# generated using pymatgen
data_K2MnSiS4
_symmetry_space_group_name_H-M   'P 1'
_cell_length_a   12.79493659
_cell_length_b   11.37248579
_cell_length_c   7.18319830
_cell_angle_alpha   83.94945100
_cell_angle_beta   62.11347261
_cell_angle_gamma   33.93706744
_symmetry_Int_Tables_number   1
_chemical_formula_structural   K2MnSiS4
_chemical_formula_sum   'K4 Mn2 Si2 S8'
_cell_volume   422.78075099
_cell_formula_units_Z   2
loop_
 _symmetry_equiv_pos_site_id
 _symmetry_equiv_pos_as_xyz
  1  'x, y, z'
loop_
 _atom_site_type_symbol
 _atom_site_label
 _atom_site_symmetry_multiplicity
 _atom_site_fract_x
 _atom_site_fract_y
 _atom_site_fract_z
 _atom_site_occupancy
  K  K0  1  0.68075629  0.68075629  0.31924371  1
  K  K1  1  0.93075629  0.93075629  0.56924371  1
  K  K2  1  0.31924371  0.31924371  0.68075629  1
  K  K3  1  0.56924371  0.56924371  0.93075629  1
  Mn  Mn0  1  0.00000000  0.00000000  0.00000000  1
  Mn  Mn1  1  0.25000000  0.25000000  0.25000000  1
  Si  Si0  1  0.75000000  0.75000000  0.75000000  1
  Si  Si1  1  0.50000000  0.50000000  0.50000000  1
  S  S0  1  0.00303936  0.38737276  0.68583308  1
  S  S1  1  0.24696064  0.86262724  0.56416692  1
  S  S2  1  0.86262724  0.24696064  0.32624720  1
  S  S3  1  0.56416692  0.32624720  0.24696064  1
  S  S4  1  0.92375280  0.68583308  0.38737276  1
  S  S5  1  0.68583308  0.92375280  0.00303936  1
  S  S6  1  0.38737276  0.00303936  0.92375280  1
  S  S7  1  0.32624720  0.56416692  0.86262724  1
loop_
_geom_bond_atom_site_label_1
_geom_bond_atom_site_label_2
_geom_bond_distance
_geom_bond_site_symmetry_2
K0 S1 3.280815 1_555
K0 S2 3.280818 1_555
K0 S4 3.411251 1_555
K0 S5 3.411259 1_555
K0 S6 3.414394 1_565
K0 S0 3.414406 1_654
K1 S5 3.280832 1_556
K1 S4 3.280839 1_555
K1 S2 3.411269 1_565
K1 S1 3.411276 1_655
K1 S7 3.414400 1_565
K1 S3 3.414403 1_655
K2 S3 3.280832 1_555
K2 S7 3.280839 1_555
K2 S6 3.411269 1_555
K2 S0 3.411276 1_555
K2 S4 3.414400 1_545
K2 S5 3.414403 1_456
K3 S0 3.280815 1_655
K3 S6 3.280818 1_565
K3 S7 3.411251 1_555
K3 S3 3.411259 1_556
K3 S2 3.414394 1_555
K3 S1 3.414406 1_556
Mn0 S3 2.410901 1_455
Mn0 S7 2.410904 1_544
Mn0 S1 2.410908 1_544
Mn0 S2 2.410919 1_455
Mn1 S5 2.410901 1_545
Mn1 S4 2.410904 1_455
Mn1 S0 2.410908 1_555
Mn1 S6 2.410919 1_554
S0 Si0 2.133489 1_455
S1 Si1 2.133489 1_555
S2 Si1 2.133493 1_555
S3 Si1 2.133473 1_555
S4 Si0 2.133484 1_555
S5 Si0 2.133473 1_554
S6 Si0 2.133493 1_545
S7 Si1 2.133484 1_555
