# generated using pymatgen
data_Zr6Al16Co3Cu4
_symmetry_space_group_name_H-M   'P 1'
_cell_length_a   8.53470421
_cell_length_b   8.51592982
_cell_length_c   8.53470417
_cell_angle_alpha   60.07273483
_cell_angle_beta   59.85452822
_cell_angle_gamma   60.07273689
_symmetry_Int_Tables_number   1
_chemical_formula_structural   Zr6Al16Co3Cu4
_chemical_formula_sum   'Zr6 Al16 Co3 Cu4'
_cell_volume   438.62141218
_cell_formula_units_Z   1
loop_
 _symmetry_equiv_pos_site_id
 _symmetry_equiv_pos_as_xyz
  1  'x, y, z'
loop_
 _atom_site_type_symbol
 _atom_site_label
 _atom_site_symmetry_multiplicity
 _atom_site_fract_x
 _atom_site_fract_y
 _atom_site_fract_z
 _atom_site_occupancy
  Zr  Zr0  1  0.69086240  0.69086240  0.30913760  1
  Zr  Zr1  1  0.30171874  0.69828126  0.30171874  1
  Zr  Zr2  1  0.69086240  0.30913760  0.30913760  1
  Zr  Zr3  1  0.30913760  0.30913760  0.69086240  1
  Zr  Zr4  1  0.69828126  0.30171874  0.69828126  1
  Zr  Zr5  1  0.30913760  0.69086240  0.69086240  1
  Al  Al0  1  0.87476881  0.88649670  0.35223879  1
  Al  Al1  1  0.88649670  0.35223879  0.88649670  1
  Al  Al2  1  0.35223879  0.88649670  0.87476881  1
  Al  Al3  1  0.88649670  0.87476881  0.88649670  1
  Al  Al4  1  0.12523119  0.11350330  0.64776121  1
  Al  Al5  1  0.11350330  0.64776121  0.11350330  1
  Al  Al6  1  0.64776121  0.11350330  0.12523119  1
  Al  Al7  1  0.11350330  0.12523119  0.11350330  1
  Al  Al8  1  0.67212997  0.66475117  0.99836868  1
  Al  Al9  1  0.66475117  0.99836868  0.66475117  1
  Al  Al10  1  0.99836868  0.66475117  0.67212997  1
  Al  Al11  1  0.66475117  0.67212997  0.66475117  1
  Al  Al12  1  0.32787003  0.33524883  0.00163132  1
  Al  Al13  1  0.33524883  0.00163132  0.33524883  1
  Al  Al14  1  0.00163132  0.33524883  0.32787003  1
  Al  Al15  1  0.33524883  0.32787003  0.33524883  1
  Co  Co0  1  0.00000000  0.00000000  0.00000000  1
  Co  Co1  1  0.50000000  0.00000000  0.50000000  1
  Co  Co2  1  0.00000000  0.50000000  0.00000000  1
  Cu  Cu0  1  0.00000000  0.00000000  0.50000000  1
  Cu  Cu1  1  0.00000000  0.50000000  0.50000000  1
  Cu  Cu2  1  0.50000000  0.50000000  0.00000000  1
  Cu  Cu3  1  0.50000000  0.00000000  0.00000000  1
loop_
_geom_bond_atom_site_label_1
_geom_bond_atom_site_label_2
_geom_bond_distance
_geom_bond_site_symmetry_2
Zr0 Zr2 3.250742 1_555
Zr0 Zr5 3.250742 1_555
Zr0 Zr4 3.322107 1_555
Zr0 Zr1 3.322108 1_555
Zr1 Zr3 3.322107 1_555
Zr1 Zr2 3.322107 1_555
Zr1 Zr5 3.322108 1_555
Zr2 Zr3 3.250742 1_555
Zr2 Zr4 3.322108 1_555
Zr3 Zr5 3.250742 1_555
Zr3 Zr4 3.322108 1_555
Zr4 Zr5 3.322107 1_555
Al0 Co0 2.453240 1_665
Al0 Co1 2.614448 1_565
Al0 Al11 2.695212 1_555
Al0 Al9 2.695212 1_555
Al0 Cu0 2.695908 1_665
Al0 Cu1 2.695914 1_655
Al0 Al6 2.745971 1_565
Al0 Al10 2.809520 1_555
Al0 Al7 2.875162 1_665
Al0 Al5 2.875174 1_655
Al0 Zr2 3.029038 1_565
Al0 Zr0 3.029046 1_555
Al0 Zr1 3.052335 1_655
Al1 Co0 2.453239 1_656
Al1 Co2 2.614441 1_656
Al1 Al10 2.695212 1_555
Al1 Al8 2.695212 1_555
Al1 Cu1 2.695915 1_655
Al1 Cu2 2.695915 1_556
Al1 Al7 2.745959 1_656
Al1 Al11 2.809520 1_555
Al1 Al6 2.875174 1_556
Al1 Al4 2.875174 1_655
Al1 Zr2 3.029039 1_556
Al1 Zr3 3.029039 1_655
Al1 Zr4 3.052343 1_555
Al2 Co0 2.453240 1_566
Al2 Co1 2.614447 1_565
Al2 Al9 2.695212 1_555
Al2 Cu3 2.695908 1_566
Al2 Cu2 2.695914 1_556
Al2 Al4 2.745971 1_565
Al2 Al8 2.809520 1_555
Al2 Al7 2.875162 1_566
Al2 Al5 2.875174 1_556
Al2 Zr3 3.029038 1_565
Al2 Zr5 3.029046 1_555
Al2 Zr1 3.052335 1_556
Al3 Co0 2.453233 1_666
Al3 Co2 2.614448 1_656
Al3 Al8 2.695212 1_555
Al3 Cu0 2.695915 1_665
Al3 Cu3 2.695915 1_566
Al3 Al5 2.745959 1_656
Al3 Al9 2.809520 1_555
Al3 Al4 2.875162 1_665
Al3 Al6 2.875162 1_566
Al3 Zr0 3.029040 1_556
Al3 Zr5 3.029040 1_655
Al3 Zr4 3.052337 1_565
Al4 Co0 2.453240 1_556
Al4 Co1 2.614448 1_555
Al4 Cu0 2.695908 1_555
Al4 Cu1 2.695914 1_555
Al4 Zr5 3.029038 1_545
Al4 Zr3 3.029046 1_555
Al4 Zr4 3.052335 1_455
Al5 Co0 2.453239 1_565
Al5 Co2 2.614441 1_555
Al5 Cu1 2.695915 1_555
Al5 Cu2 2.695915 1_555
Al5 Zr5 3.029039 1_554
Al5 Zr0 3.029039 1_455
Al5 Zr1 3.052343 1_555
Al6 Co0 2.453240 1_655
Al6 Co1 2.614447 1_555
Al6 Cu3 2.695908 1_555
Al6 Cu2 2.695914 1_555
Al6 Zr0 3.029038 1_545
Al6 Zr2 3.029046 1_555
Al6 Zr4 3.052335 1_554
Al7 Co0 2.453233 1_555
Al7 Co2 2.614448 1_555
Al7 Cu0 2.695915 1_555
Al7 Cu3 2.695915 1_555
Al7 Zr3 3.029040 1_554
Al7 Zr2 3.029040 1_455
Al7 Zr1 3.052337 1_545
Al8 Co2 2.429246 1_656
Al8 Cu3 2.478577 1_566
Al8 Cu2 2.478585 1_556
Al8 Al9 2.848300 1_555
Al8 Zr0 2.856513 1_556
Al8 Zr2 2.856517 1_556
Al8 Zr1 2.897382 1_556
Al9 Co1 2.429253 1_565
Al9 Cu3 2.478578 1_566
Al9 Cu0 2.478578 1_665
Al9 Zr2 2.856517 1_565
Al9 Zr3 2.856517 1_565
Al9 Zr4 2.897377 1_565
Al10 Co2 2.429246 1_656
Al10 Cu0 2.478577 1_665
Al10 Cu1 2.478585 1_655
Al10 Al3 2.695212 1_555
Al10 Al8 2.778226 1_555
Al10 Al9 2.848300 1_555
Al10 Al11 2.848300 1_555
Al10 Zr5 2.856513 1_655
Al10 Zr3 2.856517 1_655
Al10 Zr1 2.897382 1_655
Al11 Co1 2.429248 1_565
Al11 Cu2 2.478580 1_556
Al11 Cu1 2.478580 1_655
Al11 Al2 2.695212 1_555
Al11 Al9 2.778226 1_555
Al11 Al8 2.848300 1_555
Al11 Zr0 2.856521 1_555
Al11 Zr5 2.856521 1_555
Al11 Zr4 2.897385 1_555
Al12 Co2 2.429246 1_555
Al12 Cu3 2.478577 1_555
Al12 Cu2 2.478585 1_555
Al12 Al5 2.695212 1_555
Al12 Al7 2.695212 1_555
Al12 Al14 2.778226 1_555
Al12 Al6 2.809520 1_555
Al12 Al13 2.848300 1_555
Al12 Al15 2.848300 1_555
Al12 Zr3 2.856513 1_554
Al12 Zr5 2.856517 1_554
Al12 Zr4 2.897382 1_554
Al13 Co1 2.429253 1_555
Al13 Cu3 2.478578 1_555
Al13 Cu0 2.478578 1_555
Al13 Al6 2.695212 1_555
Al13 Al4 2.695212 1_555
Al13 Al15 2.778226 1_555
Al13 Al7 2.809520 1_555
Al13 Al14 2.848300 1_555
Al13 Zr5 2.856517 1_545
Al13 Zr0 2.856517 1_545
Al13 Zr1 2.897377 1_545
Al14 Co2 2.429246 1_555
Al14 Cu0 2.478577 1_555
Al14 Cu1 2.478585 1_555
Al14 Al5 2.695212 1_555
Al14 Al7 2.695212 1_555
Al14 Al4 2.809520 1_555
Al14 Al15 2.848300 1_555
Al14 Zr2 2.856513 1_455
Al14 Zr0 2.856517 1_455
Al14 Zr4 2.897382 1_455
Al15 Co1 2.429248 1_555
Al15 Cu2 2.478580 1_555
Al15 Cu1 2.478580 1_555
Al15 Al4 2.695212 1_555
Al15 Al6 2.695212 1_555
Al15 Al5 2.809520 1_555
Al15 Zr3 2.856521 1_555
Al15 Zr2 2.856521 1_555
Al15 Zr1 2.897385 1_555
Co1 Zr2 3.093927 1_555
Co1 Zr5 3.093927 1_545
Co1 Zr3 3.093927 1_555
Co1 Zr0 3.093927 1_545
Co2 Zr5 3.093927 1_554
Co2 Zr2 3.093927 1_455
Co2 Zr0 3.093927 1_455
Co2 Zr3 3.093927 1_554
Cu0 Zr4 3.075146 1_455
Cu0 Zr1 3.075146 1_545
Cu0 Zr5 3.106832 1_545
Cu0 Zr2 3.106832 1_455
Cu1 Zr1 3.075146 1_555
Cu1 Zr4 3.075146 1_455
Cu1 Zr3 3.106833 1_555
Cu1 Zr0 3.106833 1_455
Cu2 Zr1 3.075146 1_555
Cu2 Zr4 3.075146 1_554
Cu2 Zr2 3.106833 1_555
Cu2 Zr5 3.106833 1_554
Cu3 Zr4 3.075146 1_554
Cu3 Zr1 3.075146 1_545
Cu3 Zr0 3.106832 1_545
Cu3 Zr3 3.106832 1_554
