# generated using pymatgen
data_Sr4NiH12Au
_symmetry_space_group_name_H-M   'P 1'
_cell_length_a   7.33975817
_cell_length_b   7.33975738
_cell_length_c   5.58336372
_cell_angle_alpha   90.00171932
_cell_angle_beta   90.00170852
_cell_angle_gamma   135.26852767
_symmetry_Int_Tables_number   1
_chemical_formula_structural   Sr4NiH12Au
_chemical_formula_sum   'Sr4 Ni1 H12 Au1'
_cell_volume   211.68954169
_cell_formula_units_Z   1
loop_
 _symmetry_equiv_pos_site_id
 _symmetry_equiv_pos_as_xyz
  1  'x, y, z'
loop_
 _atom_site_type_symbol
 _atom_site_label
 _atom_site_symmetry_multiplicity
 _atom_site_fract_x
 _atom_site_fract_y
 _atom_site_fract_z
 _atom_site_occupancy
  Sr  Sr0  1  0.14485832  0.85514168  0.50000000  1
  Sr  Sr1  1  0.64410635  0.35589365  1.00000000  1
  Sr  Sr2  1  0.85514168  0.14485832  0.50000000  1
  Sr  Sr3  1  0.35589365  0.64410635  0.00000000  1
  Ni  Ni0  1  0.50000000  0.50000000  0.50000000  1
  H  H0  1  0.99996579  0.50000658  0.75124202  1
  H  H1  1  0.49999342  0.00003421  0.24875798  1
  H  H2  1  0.00003421  0.49999342  0.24875798  1
  H  H3  1  0.50000658  0.99996579  0.75124202  1
  H  H4  1  0.38668982  0.61331018  0.50000000  1
  H  H5  1  0.87788467  0.12211533  1.00000000  1
  H  H6  1  0.61331018  0.38668982  0.50000000  1
  H  H7  1  0.12211533  0.87788467  0.00000000  1
  H  H8  1  0.29702082  0.29702082  0.70323349  1
  H  H9  1  0.70297918  0.70297918  0.29676651  1
  H  H10  1  0.29673766  0.29673766  0.29699781  1
  H  H11  1  0.70326234  0.70326234  0.70300219  1
  Au  Au0  1  0.00000000  0.00000000  0.00000000  1
loop_
_geom_bond_atom_site_label_1
_geom_bond_atom_site_label_2
_geom_bond_distance
_geom_bond_site_symmetry_2
H0 Sr1 2.438223 1_555
H0 Sr3 2.438513 1_656
H0 Sr0 2.440255 1_655
H0 Sr2 2.440364 1_555
H1 Sr1 2.438222 1_554
H1 Sr3 2.438512 1_545
H1 Sr0 2.440255 1_545
H1 Sr2 2.440364 1_555
H2 Sr3 2.438223 1_555
H2 Sr1 2.438513 1_454
H2 Sr2 2.440255 1_455
H2 Sr0 2.440364 1_555
H3 Sr3 2.438222 1_556
H3 Sr1 2.438512 1_565
H3 Sr2 2.440255 1_565
H3 Sr0 2.440364 1_555
H4 Ni0 1.538212 1_555
H4 Sr3 2.822812 1_556
H4 Sr3 2.822812 1_555
H4 Sr2 2.825551 1_565
H4 Sr2 2.825551 1_455
H5 Sr2 2.808702 1_556
H5 Sr2 2.808702 1_555
H5 Sr3 2.808815 1_656
H5 Sr3 2.808815 1_546
H6 Ni0 1.538212 1_555
H6 Sr1 2.822812 1_554
H6 Sr1 2.822812 1_555
H6 Sr0 2.825551 1_545
H6 Sr0 2.825551 1_655
H7 Sr0 2.808702 1_554
H7 Sr0 2.808702 1_555
H7 Sr1 2.808815 1_454
H7 Sr1 2.808815 1_564
H8 Ni0 1.604156 1_555
H8 Sr3 2.803165 1_556
H8 Sr1 2.803166 1_555
H8 Sr0 2.811937 1_545
H8 Sr2 2.811938 1_455
H9 Ni0 1.604156 1_555
H9 Sr1 2.803165 1_554
H9 Sr3 2.803166 1_555
H9 Sr2 2.811937 1_565
H9 Sr0 2.811938 1_655
H10 Ni0 1.604236 1_555
H10 Sr3 2.804674 1_555
H10 Sr1 2.804674 1_554
H10 Sr0 2.810589 1_545
H10 Sr2 2.810589 1_455
H11 Ni0 1.604236 1_555
H11 Sr1 2.804674 1_555
H11 Sr3 2.804674 1_556
H11 Sr2 2.810589 1_565
H11 Sr0 2.810589 1_655
Au0 H7 1.657744 1_545
Au0 H5 1.657744 1_454
