# generated using pymatgen
data_HgBClF4
_symmetry_space_group_name_H-M   'P 1'
_cell_length_a   7.00584283
_cell_length_b   7.00584283
_cell_length_c   4.84731052
_cell_angle_alpha   90.00000000
_cell_angle_beta   90.00000000
_cell_angle_gamma   90.00000000
_symmetry_Int_Tables_number   1
_chemical_formula_structural   HgBClF4
_chemical_formula_sum   'Hg2 B2 Cl2 F8'
_cell_volume   237.91488913
_cell_formula_units_Z   2
loop_
 _symmetry_equiv_pos_site_id
 _symmetry_equiv_pos_as_xyz
  1  'x, y, z'
loop_
 _atom_site_type_symbol
 _atom_site_label
 _atom_site_symmetry_multiplicity
 _atom_site_fract_x
 _atom_site_fract_y
 _atom_site_fract_z
 _atom_site_occupancy
  Hg  Hg0  1  0.00000000  0.50000000  0.64906034  1
  Hg  Hg1  1  0.50000000  0.00000000  0.35093966  1
  B  B0  1  0.50000000  0.50000000  0.50000000  1
  B  B1  1  0.00000000  0.00000000  0.50000000  1
  Cl  Cl0  1  0.00000000  0.50000000  0.14944842  1
  Cl  Cl1  1  0.50000000  0.00000000  0.85055158  1
  F  F0  1  0.06161808  0.15222974  0.66744790  1
  F  F1  1  0.93838192  0.84777026  0.66744790  1
  F  F2  1  0.56161808  0.65222974  0.33255210  1
  F  F3  1  0.43838192  0.34777026  0.33255210  1
  F  F4  1  0.15222974  0.93838192  0.33255210  1
  F  F5  1  0.84777026  0.06161808  0.33255210  1
  F  F6  1  0.65222974  0.43838192  0.66744790  1
  F  F7  1  0.34777026  0.56161808  0.66744790  1
loop_
_geom_bond_atom_site_label_1
_geom_bond_atom_site_label_2
_geom_bond_distance
_geom_bond_site_symmetry_2
B0 F7 1.408042 1_555
B0 F3 1.408042 1_555
B0 F6 1.408042 1_555
B0 F2 1.408042 1_555
B1 F0 1.408042 1_555
B1 F4 1.408042 1_545
B1 F1 1.408042 1_445
B1 F5 1.408042 1_455
Cl0 Hg0 2.421774 1_555
Cl0 Hg0 2.425536 1_554
Cl1 Hg1 2.421774 1_555
Cl1 Hg1 2.425536 1_556
F0 Hg0 2.475976 1_555
F1 Hg0 2.475976 1_655
F2 Hg1 2.475976 1_565
F3 Hg1 2.475976 1_555
F4 Hg1 2.475976 1_565
F5 Hg1 2.475976 1_555
F6 Hg0 2.475976 1_655
F7 Hg0 2.475976 1_555
