# generated using pymatgen
data_Y2NiOs3
_symmetry_space_group_name_H-M   'P 1'
_cell_length_a   5.32006637
_cell_length_b   5.32006630
_cell_length_c   5.32006688
_cell_angle_alpha   58.90766419
_cell_angle_beta   58.90766602
_cell_angle_gamma   58.90767142
_symmetry_Int_Tables_number   1
_chemical_formula_structural   Y2NiOs3
_chemical_formula_sum   'Y2 Ni1 Os3'
_cell_volume   103.81783757
_cell_formula_units_Z   1
loop_
 _symmetry_equiv_pos_site_id
 _symmetry_equiv_pos_as_xyz
  1  'x, y, z'
loop_
 _atom_site_type_symbol
 _atom_site_label
 _atom_site_symmetry_multiplicity
 _atom_site_fract_x
 _atom_site_fract_y
 _atom_site_fract_z
 _atom_site_occupancy
  Y  Y0  1  0.12299374  0.12299374  0.12299374  1
  Y  Y1  1  0.87700626  0.87700626  0.87700626  1
  Ni  Ni0  1  0.50000000  0.50000000  0.50000000  1
  Os  Os0  1  0.50000000  0.00000000  0.50000000  1
  Os  Os1  1  0.00000000  0.50000000  0.50000000  1
  Os  Os2  1  0.50000000  0.50000000  0.00000000  1
loop_
_geom_bond_atom_site_label_1
_geom_bond_atom_site_label_2
_geom_bond_distance
_geom_bond_site_symmetry_2
Y0 Y1 3.231321 1_454
Y0 Y1 3.231321 1_544
Y0 Y1 3.231321 1_445
Y0 Y1 3.231782 1_444
Ni0 Os0 2.660033 1_555
Ni0 Os0 2.660033 1_565
Ni0 Os1 2.660033 1_555
Ni0 Os1 2.660033 1_655
Ni0 Os2 2.660033 1_556
Ni0 Os2 2.660033 1_555
Ni0 Y1 3.074701 1_554
Ni0 Y0 3.074701 1_556
Ni0 Y1 3.074701 1_545
Ni0 Y0 3.074701 1_565
Ni0 Y1 3.074701 1_455
Ni0 Y0 3.074701 1_655
Os0 Os2 2.615994 1_546
Os0 Os2 2.615994 1_555
Os0 Os1 2.615994 1_645
Os0 Os1 2.615994 1_555
Os0 Y0 3.074822 1_655
Os0 Y1 3.074822 1_445
Os0 Y0 3.074822 1_556
Os0 Y1 3.074822 1_544
Os0 Y1 3.149245 1_545
Os0 Y0 3.149245 1_555
Os1 Os2 2.615994 1_456
Os1 Os2 2.615994 1_555
Os1 Y0 3.074822 1_565
Os1 Y1 3.074822 1_445
Os1 Y0 3.074822 1_556
Os1 Y1 3.074822 1_454
Os1 Y1 3.149245 1_455
Os1 Y0 3.149245 1_555
Os2 Y0 3.074822 1_565
Os2 Y1 3.074822 1_544
Os2 Y0 3.074822 1_655
Os2 Y1 3.074822 1_454
Os2 Y1 3.149245 1_554
Os2 Y0 3.149245 1_555
