# generated using pymatgen
data_Cs2Ca(PS3)2
_symmetry_space_group_name_H-M   'P 1'
_cell_length_a   12.71586650
_cell_length_b   6.57037470
_cell_length_c   9.78956038
_cell_angle_alpha   54.44321578
_cell_angle_beta   90.00000000
_cell_angle_gamma   90.00000000
_symmetry_Int_Tables_number   1
_chemical_formula_structural   Cs2Ca(PS3)2
_chemical_formula_sum   'Cs4 Ca2 P4 S12'
_cell_volume   665.39262688
_cell_formula_units_Z   2
loop_
 _symmetry_equiv_pos_site_id
 _symmetry_equiv_pos_as_xyz
  1  'x, y, z'
loop_
 _atom_site_type_symbol
 _atom_site_label
 _atom_site_symmetry_multiplicity
 _atom_site_fract_x
 _atom_site_fract_y
 _atom_site_fract_z
 _atom_site_occupancy
  Cs  Cs0  1  0.33075177  0.21796965  0.51577592  1
  Cs  Cs1  1  0.66924823  0.78203035  0.48422408  1
  Cs  Cs2  1  0.83075177  0.78203035  0.98422408  1
  Cs  Cs3  1  0.16924823  0.21796965  0.01577592  1
  Ca  Ca0  1  0.50000000  0.50000000  0.00000000  1
  Ca  Ca1  1  0.00000000  0.50000000  0.50000000  1
  P  P0  1  0.46134301  0.84856497  0.12148511  1
  P  P1  1  0.03865699  0.84856497  0.62148511  1
  P  P2  1  0.96134301  0.15143503  0.37851489  1
  P  P3  1  0.53865699  0.15143503  0.87851489  1
  S  S0  1  0.07738167  0.00464166  0.74165293  1
  S  S1  1  0.66479959  0.26187431  0.94634773  1
  S  S2  1  0.06983737  0.42783401  0.25644948  1
  S  S3  1  0.92261833  0.99535834  0.25834707  1
  S  S4  1  0.42261833  0.00464166  0.24165293  1
  S  S5  1  0.33520041  0.73812569  0.05365227  1
  S  S6  1  0.43016263  0.42783401  0.75644948  1
  S  S7  1  0.56983737  0.57216599  0.24355052  1
  S  S8  1  0.57738167  0.99535834  0.75834707  1
  S  S9  1  0.16479959  0.73812569  0.55365227  1
  S  S10  1  0.93016263  0.57216599  0.74355052  1
  S  S11  1  0.83520041  0.26187431  0.44634773  1
loop_
_geom_bond_atom_site_label_1
_geom_bond_atom_site_label_2
_geom_bond_distance
_geom_bond_site_symmetry_2
Cs0 S6 3.581733 1_555
Cs0 S9 3.629161 1_545
Cs0 S8 3.684299 1_545
Cs0 S0 3.691839 1_555
Cs0 S5 3.764045 1_555
Cs0 S7 3.814141 1_555
Cs0 S4 3.860721 1_555
Cs0 S2 3.909289 1_555
Cs1 S7 3.581733 1_555
Cs1 S11 3.629161 1_565
Cs1 S4 3.684299 1_565
Cs1 S3 3.691839 1_555
Cs1 S1 3.764045 1_555
Cs1 S6 3.814141 1_555
Cs1 S8 3.860721 1_555
Cs1 S10 3.909289 1_555
Cs2 S10 3.581733 1_555
Cs2 S1 3.629161 1_565
Cs2 S0 3.684299 1_665
Cs2 S8 3.691839 1_555
Cs2 S11 3.764045 1_556
Cs2 S2 3.814141 1_656
Cs2 S3 3.860721 1_556
Cs2 S7 3.909289 1_556
Cs3 S2 3.581733 1_555
Cs3 S5 3.629161 1_545
Cs3 S3 3.684299 1_445
Cs3 S4 3.691839 1_555
Cs3 S9 3.764045 1_554
Cs3 S10 3.814141 1_454
Cs3 S0 3.860721 1_554
Cs3 S6 3.909289 1_554
Ca0 S7 2.830709 1_555
Ca0 S6 2.830709 1_554
Ca0 S1 2.840934 1_554
Ca0 S5 2.840934 1_555
Ca0 S8 2.864074 1_554
Ca0 S4 2.864074 1_555
Ca1 S2 2.830709 1_555
Ca1 S10 2.830709 1_455
Ca1 S9 2.840934 1_555
Ca1 S11 2.840934 1_455
Ca1 S3 2.864074 1_455
Ca1 S0 2.864074 1_555
P0 S4 2.020151 1_565
P0 S5 2.025035 1_555
P0 S7 2.026173 1_555
P1 S0 2.020151 1_565
P1 S9 2.025035 1_555
P1 S10 2.026173 1_455
P2 S3 2.020151 1_545
P2 S11 2.025035 1_555
P2 S2 2.026173 1_655
P3 S8 2.020151 1_545
P3 S1 2.025035 1_555
P3 S6 2.026173 1_555
