# generated using pymatgen
data_Ta3SbPb3O13
_symmetry_space_group_name_H-M   'P 1'
_cell_length_a   7.44589090
_cell_length_b   7.44589012
_cell_length_c   7.44589018
_cell_angle_alpha   60.37897235
_cell_angle_beta   60.37898277
_cell_angle_gamma   60.37898378
_symmetry_Int_Tables_number   1
_chemical_formula_structural   Ta3SbPb3O13
_chemical_formula_sum   'Ta3 Sb1 Pb3 O13'
_cell_volume   294.40262176
_cell_formula_units_Z   1
loop_
 _symmetry_equiv_pos_site_id
 _symmetry_equiv_pos_as_xyz
  1  'x, y, z'
loop_
 _atom_site_type_symbol
 _atom_site_label
 _atom_site_symmetry_multiplicity
 _atom_site_fract_x
 _atom_site_fract_y
 _atom_site_fract_z
 _atom_site_occupancy
  Ta  Ta0  1  0.99993622  0.50020034  0.50020034  1
  Ta  Ta1  1  0.50020034  0.50020034  0.99993622  1
  Ta  Ta2  1  0.50020034  0.99993622  0.50020034  1
  Sb  Sb0  1  0.49917427  0.49917427  0.49917427  1
  Pb  Pb0  1  0.50096630  0.00679937  0.00679937  1
  Pb  Pb1  1  0.00679937  0.00679937  0.50096630  1
  Pb  Pb2  1  0.00679937  0.50096630  0.00679937  1
  O  O0  1  0.81408257  0.42961761  0.42961761  1
  O  O1  1  0.44242073  0.80852729  0.80852729  1
  O  O2  1  0.42961761  0.42961761  0.81408257  1
  O  O3  1  0.80852729  0.80852729  0.44242073  1
  O  O4  1  0.80852729  0.44242073  0.80852729  1
  O  O5  1  0.42961761  0.81408257  0.42961761  1
  O  O6  1  0.18729035  0.56204845  0.56204845  1
  O  O7  1  0.55227627  0.18513961  0.18513961  1
  O  O8  1  0.56204845  0.56204845  0.18729035  1
  O  O9  1  0.18513961  0.18513961  0.55227627  1
  O  O10  1  0.18513961  0.55227627  0.18513961  1
  O  O11  1  0.56204845  0.18729035  0.56204845  1
  O  O12  1  0.14418792  0.14418792  0.14418792  1
loop_
_geom_bond_atom_site_label_1
_geom_bond_atom_site_label_2
_geom_bond_distance
_geom_bond_site_symmetry_2
O0 Sb0 1.974509 1_555
O0 Ta0 2.044099 1_555
O0 Pb2 2.624376 1_655
O0 Pb1 2.624376 1_655
O1 Ta2 1.970339 1_555
O1 Ta1 1.970339 1_555
O1 Pb0 2.824155 1_566
O2 Sb0 1.974509 1_555
O2 Ta1 2.044099 1_555
O2 Pb0 2.624376 1_556
O2 Pb2 2.624376 1_556
O3 Ta0 1.970340 1_555
O3 Ta2 1.970340 1_555
O3 Pb1 2.824155 1_665
O4 Ta0 1.970340 1_555
O4 Ta1 1.970340 1_555
O4 Pb2 2.824155 1_656
O5 Sb0 1.974509 1_555
O5 Ta2 2.044099 1_555
O5 Pb0 2.624376 1_565
O5 Pb1 2.624376 1_565
O6 Ta0 1.962133 1_455
O6 Sb0 1.974453 1_555
O6 Pb2 2.774061 1_556
O6 Pb1 2.774061 1_565
O7 Ta2 1.996694 1_545
O7 Ta1 1.996694 1_554
O7 Pb0 2.533513 1_555
O8 Ta1 1.962133 1_554
O8 Sb0 1.974452 1_555
O8 Pb0 2.774061 1_565
O8 Pb2 2.774062 1_655
O9 Ta0 1.996694 1_455
O9 Ta2 1.996694 1_545
O9 Pb1 2.533513 1_555
O10 Ta0 1.996694 1_455
O10 Ta1 1.996694 1_554
O10 Pb2 2.533513 1_555
O11 Ta2 1.962133 1_545
O11 Sb0 1.974452 1_555
O11 Pb0 2.774061 1_556
O11 Pb1 2.774062 1_655
O12 Pb1 2.193592 1_555
O12 Pb2 2.193592 1_555
O12 Pb0 2.193592 1_555
