# generated using pymatgen
data_Rb8MgCd3H16
_symmetry_space_group_name_H-M   'P 1'
_cell_length_a   6.27670322
_cell_length_b   8.27860027
_cell_length_c   11.06551178
_cell_angle_alpha   90.16148122
_cell_angle_beta   90.00000000
_cell_angle_gamma   90.00000000
_symmetry_Int_Tables_number   1
_chemical_formula_structural   Rb8MgCd3H16
_chemical_formula_sum   'Rb8 Mg1 Cd3 H16'
_cell_volume   574.98734685
_cell_formula_units_Z   1
loop_
 _symmetry_equiv_pos_site_id
 _symmetry_equiv_pos_as_xyz
  1  'x, y, z'
loop_
 _atom_site_type_symbol
 _atom_site_label
 _atom_site_symmetry_multiplicity
 _atom_site_fract_x
 _atom_site_fract_y
 _atom_site_fract_z
 _atom_site_occupancy
  Rb  Rb0  1  0.25000000  0.65354560  0.08851157  1
  Rb  Rb1  1  0.25000000  0.16026677  0.41213729  1
  Rb  Rb2  1  0.75000000  0.33923551  0.91089605  1
  Rb  Rb3  1  0.75000000  0.84042339  0.58597681  1
  Rb  Rb4  1  0.25000000  0.98890101  0.80729720  1
  Rb  Rb5  1  0.25000000  0.49186570  0.69280406  1
  Rb  Rb6  1  0.75000000  0.01055931  0.19173748  1
  Rb  Rb7  1  0.75000000  0.51120611  0.30806098  1
  Mg  Mg0  1  0.75000000  0.77215386  0.91793895  1
  Cd  Cd0  1  0.25000000  0.73203430  0.41714043  1
  Cd  Cd1  1  0.25000000  0.22793958  0.08261510  1
  Cd  Cd2  1  0.75000000  0.26858052  0.58277952  1
  H  H0  1  0.01106182  0.81026823  0.34294043  1
  H  H1  1  0.48798254  0.30637748  0.15825243  1
  H  H2  1  0.51139800  0.19003615  0.65723011  1
  H  H3  1  0.98979874  0.69334722  0.84278766  1
  H  H4  1  0.98860200  0.19003615  0.65723011  1
  H  H5  1  0.51020126  0.69334722  0.84278766  1
  H  H6  1  0.48893818  0.81026823  0.34294043  1
  H  H7  1  0.01201746  0.30637748  0.15825243  1
  H  H8  1  0.25000000  0.51285520  0.41491186  1
  H  H9  1  0.25000000  0.00818782  0.08196532  1
  H  H10  1  0.75000000  0.48786784  0.58535050  1
  H  H11  1  0.75000000  0.99349453  0.91618685  1
  H  H12  1  0.25000000  0.31267158  0.92851681  1
  H  H13  1  0.25000000  0.81513152  0.57196205  1
  H  H14  1  0.75000000  0.68692229  0.07320352  1
  H  H15  1  0.75000000  0.18610239  0.42758639  1
loop_
_geom_bond_atom_site_label_1
_geom_bond_atom_site_label_2
_geom_bond_distance
_geom_bond_site_symmetry_2
Cd0 H8 1.814594 1_555
Cd0 H0 1.829165 1_555
Cd0 H6 1.829165 1_555
Cd0 H13 1.844340 1_555
Cd1 H9 1.819231 1_555
Cd1 H1 1.830406 1_555
Cd1 H7 1.830406 1_555
Cd1 H12 1.845648 1_554
Cd2 H10 1.815535 1_555
Cd2 H4 1.829600 1_555
Cd2 H2 1.829600 1_555
Cd2 H15 1.846267 1_555
H0 Rb6 2.872187 1_465
H0 Rb7 2.993038 1_455
H0 Rb3 3.158485 1_455
H1 Rb7 2.883099 1_555
H1 Rb6 2.973977 1_555
H1 Rb2 3.205429 1_554
H2 Rb4 2.870130 1_545
H2 Rb5 3.014133 1_555
H2 Rb1 3.178724 1_555
H3 Mg0 1.838363 1_555
H3 Rb5 2.861530 1_655
H3 Rb4 2.968787 1_655
H3 Rb0 3.189714 1_656
H4 Rb4 2.870130 1_645
H4 Rb5 3.014133 1_655
H4 Rb1 3.178724 1_655
H5 Mg0 1.838363 1_555
H5 Rb5 2.861530 1_555
H5 Rb4 2.968787 1_555
H5 Rb0 3.189714 1_556
H6 Rb6 2.872187 1_565
H6 Rb7 2.993038 1_555
H6 Rb3 3.158485 1_555
H7 Rb7 2.883099 1_455
H7 Rb6 2.973977 1_455
H7 Rb2 3.205429 1_454
H8 Rb1 2.919014 1_555
H8 Rb5 3.080414 1_555
H9 Rb0 2.937039 1_545
H9 Rb4 3.043085 1_544
H10 Rb3 2.918655 1_555
H10 Rb7 3.074971 1_555
H11 Mg0 1.832548 1_555
H11 Rb2 2.863015 1_565
H11 Rb6 3.051982 1_566
H12 Rb4 2.993884 1_545
H12 Rb5 3.004272 1_555
H12 Rb2 3.152122 1_555
H12 Rb2 3.152122 1_455
H13 Rb4 2.971484 1_555
H13 Rb5 2.995030 1_555
H13 Rb3 3.149120 1_555
H13 Rb3 3.149120 1_455
H14 Mg0 1.859169 1_554
H14 Rb6 2.979770 1_565
H14 Rb7 2.981823 1_555
H14 Rb0 3.155084 1_555
H14 Rb0 3.155084 1_655
H15 Rb6 2.983548 1_555
H15 Rb7 3.002169 1_555
H15 Rb1 3.150241 1_655
H15 Rb1 3.150241 1_555
