# generated using pymatgen
data_Ni2Pd3(PtO4)3
_symmetry_space_group_name_H-M   'P 1'
_cell_length_a   3.14454199
_cell_length_b   7.08287074
_cell_length_c   9.91342022
_cell_angle_alpha   89.96504711
_cell_angle_beta   90.00000000
_cell_angle_gamma   90.00000000
_symmetry_Int_Tables_number   1
_chemical_formula_structural   Ni2Pd3(PtO4)3
_chemical_formula_sum   'Ni2 Pd3 Pt3 O12'
_cell_volume   220.79546533
_cell_formula_units_Z   1
loop_
 _symmetry_equiv_pos_site_id
 _symmetry_equiv_pos_as_xyz
  1  'x, y, z'
loop_
 _atom_site_type_symbol
 _atom_site_label
 _atom_site_symmetry_multiplicity
 _atom_site_fract_x
 _atom_site_fract_y
 _atom_site_fract_z
 _atom_site_occupancy
  Ni  Ni0  1  0.00000000  0.00214820  0.00257533  1
  Ni  Ni1  1  0.00000000  0.49915675  0.49817602  1
  Pd  Pd0  1  0.00000000  0.00080766  0.49873825  1
  Pd  Pd1  1  0.00000000  0.49892674  0.00050910  1
  Pd  Pd2  1  0.50000000  0.23023701  0.23981179  1
  Pt  Pt0  1  0.50000000  0.76900165  0.76010406  1
  Pt  Pt1  1  0.50000000  0.26859446  0.73984811  1
  Pt  Pt2  1  0.50000000  0.73110671  0.26004242  1
  O  O0  1  0.50000000  0.97730489  0.14526408  1
  O  O1  1  0.50000000  0.02159693  0.85616681  1
  O  O2  1  0.50000000  0.52173076  0.64405952  1
  O  O3  1  0.50000000  0.47926656  0.35627030  1
  O  O4  1  0.00000000  0.18779901  0.35856937  1
  O  O5  1  0.00000000  0.81246407  0.64133993  1
  O  O6  1  0.00000000  0.31007057  0.85874500  1
  O  O7  1  0.00000000  0.68912438  0.14106541  1
  O  O8  1  0.00000000  0.26999792  0.11269386  1
  O  O9  1  0.00000000  0.73004545  0.88668405  1
  O  O10  1  0.00000000  0.23143735  0.61269246  1
  O  O11  1  0.00000000  0.76918394  0.38664514  1
loop_
_geom_bond_atom_site_label_1
_geom_bond_atom_site_label_2
_geom_bond_distance
_geom_bond_site_symmetry_2
Ni0 O0 2.122169 1_445
Ni0 O0 2.122169 1_545
Ni0 O1 2.144145 1_554
Ni0 O1 2.144145 1_454
Ni0 O8 2.189381 1_555
Ni0 O9 2.244324 1_544
Ni1 O3 2.114505 1_455
Ni1 O3 2.114505 1_555
Ni1 O2 2.142286 1_455
Ni1 O2 2.142286 1_555
Ni1 O11 2.208575 1_555
Ni1 O10 2.209485 1_555
O0 Pd2 2.022371 1_565
O0 Pt2 2.081604 1_555
O1 Pt0 2.027277 1_545
O1 Pt1 2.094707 1_555
O2 Pt1 2.028362 1_555
O2 Pt0 2.096004 1_555
O3 Pt2 2.022303 1_555
O3 Pd2 2.108674 1_555
O4 Pd0 1.919047 1_555
O4 Pd2 1.986951 1_455
O4 Pd2 1.986951 1_555
O5 Pd0 1.943130 1_565
O5 Pt0 1.988098 1_555
O5 Pt0 1.988098 1_455
O6 Pd1 1.940784 1_556
O6 Pt1 1.986966 1_555
O6 Pt1 1.986966 1_455
O7 Pd1 1.938720 1_555
O7 Pt2 1.987972 1_555
O7 Pt2 1.987972 1_455
O8 Pd1 1.965660 1_555
O8 Pd2 2.034441 1_555
O8 Pd2 2.034441 1_455
O9 Pd1 1.987647 1_556
O9 Pt0 2.030362 1_455
O9 Pt0 2.030362 1_555
O10 Pd0 1.986657 1_555
O10 Pt1 2.032408 1_555
O10 Pt1 2.032408 1_455
O11 Pd0 1.982041 1_565
O11 Pt2 2.029871 1_555
O11 Pt2 2.029871 1_455
