# generated using pymatgen
data_Sc6Al16CuOs6
_symmetry_space_group_name_H-M   'P 1'
_cell_length_a   8.71961022
_cell_length_b   8.71961024
_cell_length_c   8.71961087
_cell_angle_alpha   60.00000134
_cell_angle_beta   60.00000128
_cell_angle_gamma   60.00000091
_symmetry_Int_Tables_number   1
_chemical_formula_structural   Sc6Al16CuOs6
_chemical_formula_sum   'Sc6 Al16 Cu1 Os6'
_cell_volume   468.78775840
_cell_formula_units_Z   1
loop_
 _symmetry_equiv_pos_site_id
 _symmetry_equiv_pos_as_xyz
  1  'x, y, z'
loop_
 _atom_site_type_symbol
 _atom_site_label
 _atom_site_symmetry_multiplicity
 _atom_site_fract_x
 _atom_site_fract_y
 _atom_site_fract_z
 _atom_site_occupancy
  Sc  Sc0  1  0.70923179  0.70923179  0.29076821  1
  Sc  Sc1  1  0.29076821  0.70923179  0.29076821  1
  Sc  Sc2  1  0.70923179  0.29076821  0.29076821  1
  Sc  Sc3  1  0.29076821  0.29076821  0.70923179  1
  Sc  Sc4  1  0.70923179  0.29076821  0.70923179  1
  Sc  Sc5  1  0.29076821  0.70923179  0.70923179  1
  Al  Al0  1  0.87750574  0.87750574  0.36748077  1
  Al  Al1  1  0.87750574  0.36748077  0.87750574  1
  Al  Al2  1  0.36748077  0.87750574  0.87750574  1
  Al  Al3  1  0.87750574  0.87750574  0.87750574  1
  Al  Al4  1  0.12249426  0.12249426  0.63251923  1
  Al  Al5  1  0.12249426  0.63251923  0.12249426  1
  Al  Al6  1  0.63251923  0.12249426  0.12249426  1
  Al  Al7  1  0.12249426  0.12249426  0.12249426  1
  Al  Al8  1  0.66424595  0.66424595  0.00726315  1
  Al  Al9  1  0.66424595  0.00726315  0.66424595  1
  Al  Al10  1  0.00726315  0.66424595  0.66424595  1
  Al  Al11  1  0.66424595  0.66424595  0.66424595  1
  Al  Al12  1  0.33575405  0.33575405  0.99273685  1
  Al  Al13  1  0.33575405  0.99273685  0.33575405  1
  Al  Al14  1  0.99273685  0.33575405  0.33575405  1
  Al  Al15  1  0.33575405  0.33575405  0.33575405  1
  Cu  Cu0  1  0.00000000  0.00000000  0.00000000  1
  Os  Os0  1  0.00000000  0.00000000  0.50000000  1
  Os  Os1  1  0.50000000  0.00000000  0.50000000  1
  Os  Os2  1  0.00000000  0.50000000  0.50000000  1
  Os  Os3  1  0.50000000  0.50000000  0.00000000  1
  Os  Os4  1  0.00000000  0.50000000  0.00000000  1
  Os  Os5  1  0.50000000  0.00000000  0.00000000  1
loop_
_geom_bond_atom_site_label_1
_geom_bond_atom_site_label_2
_geom_bond_distance
_geom_bond_site_symmetry_2
Al0 Cu0 2.616291 1_665
Al0 Os1 2.688138 1_565
Al0 Os2 2.688138 1_655
Al0 Os0 2.688152 1_665
Al0 Sc0 2.978109 1_555
Al0 Sc1 2.978124 1_655
Al0 Sc2 2.978124 1_565
Al1 Cu0 2.616291 1_656
Al1 Os3 2.688138 1_556
Al1 Os2 2.688138 1_655
Al1 Os4 2.688152 1_656
Al1 Sc4 2.978109 1_555
Al1 Sc3 2.978124 1_655
Al1 Sc2 2.978124 1_556
Al2 Cu0 2.616291 1_566
Al2 Os3 2.688138 1_556
Al2 Os1 2.688138 1_565
Al2 Os5 2.688152 1_566
Al2 Sc5 2.978109 1_555
Al2 Sc3 2.978124 1_565
Al2 Sc1 2.978124 1_556
Al3 Cu0 2.616305 1_666
Al3 Os5 2.688138 1_566
Al3 Os4 2.688138 1_656
Al3 Os0 2.688138 1_665
Al3 Sc5 2.978122 1_655
Al3 Sc4 2.978122 1_565
Al3 Sc0 2.978122 1_556
Al4 Cu0 2.616291 1_556
Al4 Os1 2.688138 1_555
Al4 Os2 2.688138 1_555
Al4 Os0 2.688152 1_555
Al4 Sc3 2.978109 1_555
Al4 Sc4 2.978124 1_455
Al4 Sc5 2.978124 1_545
Al5 Cu0 2.616291 1_565
Al5 Os3 2.688138 1_555
Al5 Os2 2.688138 1_555
Al5 Os4 2.688152 1_555
Al5 Sc1 2.978109 1_555
Al5 Sc0 2.978124 1_455
Al5 Sc5 2.978124 1_554
Al6 Cu0 2.616291 1_655
Al6 Os3 2.688138 1_555
Al6 Os1 2.688138 1_555
Al6 Os5 2.688152 1_555
Al6 Sc2 2.978109 1_555
Al6 Sc0 2.978124 1_545
Al6 Sc4 2.978124 1_554
Al7 Cu0 2.616305 1_555
Al7 Os5 2.688138 1_555
Al7 Os4 2.688138 1_555
Al7 Os0 2.688138 1_555
Al7 Sc2 2.978122 1_455
Al7 Sc1 2.978122 1_545
Al7 Sc3 2.978122 1_554
Al8 Os4 2.517663 1_655
Al8 Os5 2.517663 1_565
Al8 Os3 2.517671 1_555
Al8 Sc0 2.917537 1_555
Al8 Sc1 2.917542 1_555
Al8 Sc2 2.917542 1_555
Al9 Os0 2.517663 1_655
Al9 Os5 2.517663 1_556
Al9 Os1 2.517671 1_555
Al9 Sc4 2.917537 1_555
Al9 Sc3 2.917542 1_555
Al9 Sc2 2.917542 1_555
Al10 Os0 2.517663 1_565
Al10 Os4 2.517663 1_556
Al10 Os2 2.517671 1_555
Al10 Sc5 2.917537 1_555
Al10 Sc3 2.917542 1_555
Al10 Sc1 2.917542 1_555
Al11 Os2 2.517666 1_655
Al11 Os1 2.517666 1_565
Al11 Os3 2.517666 1_556
Al11 Sc5 2.917545 1_555
Al11 Sc4 2.917545 1_555
Al11 Sc0 2.917546 1_555
Al12 Os4 2.517663 1_556
Al12 Os5 2.517663 1_556
Al12 Os3 2.517671 1_556
Al12 Sc3 2.917537 1_555
Al12 Sc4 2.917542 1_555
Al12 Sc5 2.917542 1_555
Al13 Os0 2.517663 1_565
Al13 Os5 2.517663 1_565
Al13 Os1 2.517671 1_565
Al13 Sc1 2.917537 1_555
Al13 Sc0 2.917542 1_555
Al13 Sc5 2.917542 1_555
Al14 Os0 2.517663 1_655
Al14 Os4 2.517663 1_655
Al14 Os2 2.517671 1_655
Al14 Sc2 2.917537 1_555
Al14 Sc0 2.917542 1_555
Al14 Sc4 2.917542 1_555
Al15 Os2 2.517666 1_555
Al15 Os1 2.517666 1_555
Al15 Os3 2.517666 1_555
Al15 Sc2 2.917545 1_555
Al15 Sc1 2.917545 1_555
Al15 Sc3 2.917546 1_555
Os0 Sc5 3.123570 1_545
Os0 Sc4 3.123570 1_455
Os0 Sc2 3.123570 1_455
Os0 Sc1 3.123570 1_545
Os1 Sc2 3.123570 1_555
Os1 Sc5 3.123570 1_545
Os1 Sc3 3.123570 1_555
Os1 Sc0 3.123570 1_545
Os2 Sc1 3.123570 1_555
Os2 Sc4 3.123570 1_455
Os2 Sc3 3.123570 1_555
Os2 Sc0 3.123570 1_455
Os3 Sc2 3.123570 1_555
Os3 Sc1 3.123570 1_555
Os3 Sc5 3.123570 1_554
Os3 Sc4 3.123570 1_554
Os4 Sc5 3.123570 1_554
Os4 Sc2 3.123570 1_455
Os4 Sc0 3.123570 1_455
Os4 Sc3 3.123570 1_554
Os5 Sc4 3.123570 1_554
Os5 Sc1 3.123570 1_545
Os5 Sc0 3.123570 1_545
Os5 Sc3 3.123570 1_554
