# generated using pymatgen
data_TcSb12Pd2Rh
_symmetry_space_group_name_H-M   'P 1'
_cell_length_a   8.14252447
_cell_length_b   8.13537186
_cell_length_c   9.38601252
_cell_angle_alpha   54.49340433
_cell_angle_beta   54.88441645
_cell_angle_gamma   70.46907564
_symmetry_Int_Tables_number   1
_chemical_formula_structural   TcSb12Pd2Rh
_chemical_formula_sum   'Tc1 Sb12 Pd2 Rh1'
_cell_volume   414.01654586
_cell_formula_units_Z   1
loop_
 _symmetry_equiv_pos_site_id
 _symmetry_equiv_pos_as_xyz
  1  'x, y, z'
loop_
 _atom_site_type_symbol
 _atom_site_label
 _atom_site_symmetry_multiplicity
 _atom_site_fract_x
 _atom_site_fract_y
 _atom_site_fract_z
 _atom_site_occupancy
  Tc  Tc0  1  0.00000000  0.50000000  0.50000000  1
  Sb  Sb0  1  0.66829242  0.66598531  0.48742824  1
  Sb  Sb1  1  0.33170758  0.33401469  0.51257176  1
  Sb  Sb2  1  0.65279473  0.65129365  0.19482481  1
  Sb  Sb3  1  0.34720527  0.34870635  0.80517519  1
  Sb  Sb4  1  0.15820031  0.84961482  0.65326359  1
  Sb  Sb5  1  0.84179969  0.15038518  0.34673641  1
  Sb  Sb6  1  0.85045542  0.15812152  0.65664074  1
  Sb  Sb7  1  0.14954458  0.84187848  0.34335926  1
  Sb  Sb8  1  0.81459007  0.49238954  0.84190856  1
  Sb  Sb9  1  0.18540993  0.50761046  0.15809144  1
  Sb  Sb10  1  0.50306361  0.18898237  0.15679996  1
  Sb  Sb11  1  0.49693639  0.81101763  0.84320004  1
  Pd  Pd0  1  0.00000000  0.50000000  0.00000000  1
  Pd  Pd1  1  0.50000000  0.00000000  0.00000000  1
  Rh  Rh0  1  0.50000000  0.00000000  0.50000000  1
loop_
_geom_bond_atom_site_label_1
_geom_bond_atom_site_label_2
_geom_bond_distance
_geom_bond_site_symmetry_2
Sb0 Tc0 2.622091 1_655
Sb0 Sb2 2.891868 1_555
Sb0 Sb3 2.998699 1_555
Sb1 Tc0 2.622091 1_555
Sb1 Sb3 2.891868 1_555
Sb1 Sb2 2.998699 1_555
Sb4 Sb6 2.893999 1_465
Sb4 Sb7 2.986858 1_555
Sb5 Sb7 2.893999 1_645
Sb5 Sb6 2.986858 1_555
Sb6 Tc0 2.614361 1_655
Sb7 Tc0 2.614361 1_555
Sb8 Tc0 2.615266 1_655
Sb9 Tc0 2.615266 1_555
Sb10 Sb8 2.889561 1_554
Sb10 Sb9 2.987798 1_555
Sb11 Sb9 2.889561 1_556
Sb11 Sb8 2.987798 1_555
Pd0 Sb2 2.681730 1_455
Pd0 Sb3 2.681730 1_554
Pd0 Sb4 2.686092 1_554
Pd0 Sb5 2.686092 1_455
Pd0 Sb9 2.689104 1_555
Pd0 Sb8 2.689104 1_454
Pd1 Sb2 2.677899 1_545
Pd1 Sb3 2.677899 1_554
Pd1 Sb10 2.688222 1_555
Pd1 Sb11 2.688222 1_544
Pd1 Sb7 2.691221 1_545
Pd1 Sb6 2.691221 1_554
Rh0 Sb11 2.630849 1_545
Rh0 Sb10 2.630849 1_555
Rh0 Sb5 2.634055 1_555
Rh0 Sb4 2.634055 1_545
Rh0 Sb1 2.640514 1_555
Rh0 Sb0 2.640514 1_545
