# generated using pymatgen
data_TiGa2FeRu4
_symmetry_space_group_name_H-M   'P 1'
_cell_length_a   7.34648266
_cell_length_b   7.34648250
_cell_length_c   7.34648366
_cell_angle_alpha   33.60579473
_cell_angle_beta   33.60579424
_cell_angle_gamma   33.60579833
_symmetry_Int_Tables_number   1
_chemical_formula_structural   TiGa2FeRu4
_chemical_formula_sum   'Ti1 Ga2 Fe1 Ru4'
_cell_volume   108.19651689
_cell_formula_units_Z   1
loop_
 _symmetry_equiv_pos_site_id
 _symmetry_equiv_pos_as_xyz
  1  'x, y, z'
loop_
 _atom_site_type_symbol
 _atom_site_label
 _atom_site_symmetry_multiplicity
 _atom_site_fract_x
 _atom_site_fract_y
 _atom_site_fract_z
 _atom_site_occupancy
  Ti  Ti0  1  0.50000000  0.50000000  0.50000000  1
  Ga  Ga0  1  0.24891815  0.24891815  0.24891815  1
  Ga  Ga1  1  0.75108185  0.75108185  0.75108185  1
  Fe  Fe0  1  0.00000000  0.00000000  0.00000000  1
  Ru  Ru0  1  0.62725723  0.62725723  0.62725723  1
  Ru  Ru1  1  0.12284063  0.12284063  0.12284063  1
  Ru  Ru2  1  0.87715937  0.87715937  0.87715937  1
  Ru  Ru3  1  0.37274277  0.37274277  0.37274277  1
loop_
_geom_bond_atom_site_label_1
_geom_bond_atom_site_label_2
_geom_bond_distance
_geom_bond_site_symmetry_2
Ga0 Ru3 2.572499 1_555
Ga0 Ru2 2.578931 1_445
Ga0 Ru2 2.578931 1_544
Ga0 Ru2 2.578931 1_454
Ga0 Ru1 2.619304 1_555
Ga0 Ru0 2.624469 1_554
Ga0 Ru0 2.624470 1_455
Ga0 Ru0 2.624470 1_545
Ga1 Ru0 2.572499 1_555
Ga1 Ru1 2.578931 1_665
Ga1 Ru1 2.578931 1_566
Ga1 Ru1 2.578931 1_656
Ga1 Ru2 2.619304 1_555
Ga1 Ru3 2.624469 1_556
Ga1 Ru3 2.624470 1_655
Ga1 Ru3 2.624470 1_565
Fe0 Ru1 2.552056 1_555
Fe0 Ru2 2.552056 1_444
Fe0 Ru3 2.585332 1_554
Fe0 Ru0 2.585332 1_445
Fe0 Ru3 2.585332 1_455
Fe0 Ru0 2.585332 1_544
Fe0 Ru3 2.585332 1_545
Fe0 Ru0 2.585332 1_454
Ru0 Ti0 2.643813 1_555
Ru1 Ti0 2.615838 1_554
Ru1 Ti0 2.615839 1_455
Ru1 Ti0 2.615839 1_545
Ru2 Ti0 2.615838 1_556
Ru2 Ti0 2.615839 1_655
Ru2 Ti0 2.615839 1_565
Ru3 Ti0 2.643813 1_555
