# generated using pymatgen
data_Zr5InCuSb2
_symmetry_space_group_name_H-M   'P 1'
_cell_length_a   8.61808770
_cell_length_b   8.66018439
_cell_length_c   5.85296667
_cell_angle_alpha   90.00000000
_cell_angle_beta   90.00000000
_cell_angle_gamma   120.16170690
_symmetry_Int_Tables_number   1
_chemical_formula_structural   Zr5InCuSb2
_chemical_formula_sum   'Zr10 In2 Cu2 Sb4'
_cell_volume   377.68936351
_cell_formula_units_Z   2
loop_
 _symmetry_equiv_pos_site_id
 _symmetry_equiv_pos_as_xyz
  1  'x, y, z'
loop_
 _atom_site_type_symbol
 _atom_site_label
 _atom_site_symmetry_multiplicity
 _atom_site_fract_x
 _atom_site_fract_y
 _atom_site_fract_z
 _atom_site_occupancy
  Zr  Zr0  1  0.66929206  0.33530465  0.99793852  1
  Zr  Zr1  1  0.33070794  0.66601359  0.99793852  1
  Zr  Zr2  1  0.33070794  0.66601359  0.50206148  1
  Zr  Zr3  1  0.66929206  0.33530465  0.50206148  1
  Zr  Zr4  1  0.73202165  0.73149953  0.75000000  1
  Zr  Zr5  1  0.26797835  0.99947789  0.75000000  1
  Zr  Zr6  1  0.00000000  0.27121759  0.75000000  1
  Zr  Zr7  1  0.25368214  0.25178158  0.25000000  1
  Zr  Zr8  1  0.74631786  0.99809844  0.25000000  1
  Zr  Zr9  1  0.00000000  0.74376655  0.25000000  1
  In  In0  1  0.38198391  0.38133059  0.75000000  1
  In  In1  1  0.61801609  0.99934668  0.75000000  1
  Cu  Cu0  1  0.00000000  0.00341297  0.52411020  1
  Cu  Cu1  1  0.00000000  0.00341297  0.97588980  1
  Sb  Sb0  1  0.00000000  0.61832061  0.75000000  1
  Sb  Sb1  1  0.60648153  0.60774507  0.25000000  1
  Sb  Sb2  1  0.39351847  0.00126354  0.25000000  1
  Sb  Sb3  1  0.00000000  0.38668951  0.25000000  1
loop_
_geom_bond_atom_site_label_1
_geom_bond_atom_site_label_2
_geom_bond_distance
_geom_bond_site_symmetry_2
Zr0 Zr3 2.902352 1_555
Zr0 Zr3 2.950615 1_556
Zr1 Zr2 2.902352 1_555
Zr1 Zr2 2.950615 1_556
In0 Zr6 2.931189 1_555
In0 Zr5 2.938718 1_545
In0 Zr4 3.017227 1_555
In0 Zr0 3.063879 1_555
In0 Zr3 3.063879 1_555
In0 Zr1 3.078020 1_555
In0 Zr2 3.078020 1_555
In0 Zr7 3.130340 1_555
In0 Zr7 3.130340 1_556
In1 Zr6 2.931189 1_665
In1 Zr4 2.938718 1_555
In1 Zr5 3.017227 1_555
In1 Zr1 3.063874 1_555
In1 Zr2 3.063874 1_555
In1 Zr0 3.078013 1_565
In1 Zr3 3.078013 1_565
In1 Zr8 3.130342 1_556
In1 Zr8 3.130342 1_555
Cu0 Zr6 2.669621 1_555
Cu0 Zr5 2.676168 1_545
Cu0 Zr4 2.676168 1_445
Cu0 Zr8 2.693451 1_445
Cu0 Zr7 2.693455 1_555
Cu0 Zr9 2.762264 1_545
Cu1 Zr6 2.669621 1_555
Cu1 Zr5 2.676168 1_545
Cu1 Zr4 2.676168 1_445
Cu1 Zr8 2.693451 1_446
Cu1 Zr7 2.693455 1_556
Cu1 Zr9 2.762264 1_546
Sb0 Zr4 2.927282 1_455
Sb0 Zr5 2.927282 1_555
Sb0 Zr6 3.005976 1_555
Sb0 Zr1 3.035867 1_555
Sb0 Zr2 3.035867 1_555
Sb0 Zr0 3.035870 1_455
Sb0 Zr3 3.035870 1_455
Sb0 Zr9 3.121624 1_556
Sb0 Zr9 3.121624 1_555
Sb1 Zr8 2.964197 1_555
Sb1 Zr9 2.979026 1_655
Sb1 Zr2 3.047087 1_555
Sb1 Zr1 3.047087 1_554
Sb1 Zr3 3.052806 1_555
Sb1 Zr0 3.052806 1_554
Sb1 Zr7 3.054316 1_555
Sb1 Zr4 3.117415 1_555
Sb1 Zr4 3.117415 1_554
Sb2 Zr7 2.964205 1_555
Sb2 Zr9 2.979026 1_545
Sb2 Zr3 3.047083 1_555
Sb2 Zr0 3.047083 1_554
Sb2 Zr2 3.052799 1_545
Sb2 Zr1 3.052799 1_544
Sb2 Zr8 3.054320 1_545
Sb2 Zr5 3.117414 1_544
Sb2 Zr5 3.117414 1_545
Sb3 Zr7 2.951514 1_555
Sb3 Zr8 2.951522 1_445
Sb3 Zr3 3.036935 1_455
Sb3 Zr0 3.036935 1_454
Sb3 Zr2 3.036938 1_555
Sb3 Zr1 3.036938 1_554
Sb3 Zr9 3.092353 1_555
Sb3 Zr6 3.092624 1_554
Sb3 Zr6 3.092624 1_555
