# generated using pymatgen
data_CsNiMoF6
_symmetry_space_group_name_H-M   'P 1'
_cell_length_a   7.46832570
_cell_length_b   7.46832592
_cell_length_c   7.46832467
_cell_angle_alpha   119.56014929
_cell_angle_beta   120.30156172
_cell_angle_gamma   90.12099609
_symmetry_Int_Tables_number   1
_chemical_formula_structural   CsNiMoF6
_chemical_formula_sum   'Cs2 Ni2 Mo2 F12'
_cell_volume   294.83881435
_cell_formula_units_Z   2
loop_
 _symmetry_equiv_pos_site_id
 _symmetry_equiv_pos_as_xyz
  1  'x, y, z'
loop_
 _atom_site_type_symbol
 _atom_site_label
 _atom_site_symmetry_multiplicity
 _atom_site_fract_x
 _atom_site_fract_y
 _atom_site_fract_z
 _atom_site_occupancy
  Cs  Cs0  1  0.89872121  0.64872121  0.25000000  1
  Cs  Cs1  1  0.10127879  0.35127879  0.75000000  1
  Ni  Ni0  1  0.50000000  0.00000000  0.50000000  1
  Ni  Ni1  1  0.00000000  0.00000000  0.00000000  1
  Mo  Mo0  1  0.50000000  0.00000000  0.00000000  1
  Mo  Mo1  1  0.50000000  0.50000000  0.50000000  1
  F  F0  1  0.80949431  0.05949431  0.75000000  1
  F  F1  1  0.41585688  0.66585688  0.75000000  1
  F  F2  1  0.82767275  0.67906311  0.76376870  1
  F  F3  1  0.41529441  0.06390405  0.73623130  1
  F  F4  1  0.82767275  0.06390405  0.14860964  1
  F  F5  1  0.41529441  0.67906311  0.35139036  1
  F  F6  1  0.19050569  0.94050569  0.25000000  1
  F  F7  1  0.58414312  0.33414312  0.25000000  1
  F  F8  1  0.17232725  0.32093689  0.23623130  1
  F  F9  1  0.58470559  0.93609595  0.26376870  1
  F  F10  1  0.17232725  0.93609595  0.85139036  1
  F  F11  1  0.58470559  0.32093689  0.64860964  1
loop_
_geom_bond_atom_site_label_1
_geom_bond_atom_site_label_2
_geom_bond_distance
_geom_bond_site_symmetry_2
Cs0 F6 3.078516 1_655
Cs0 F10 3.188018 1_655
Cs0 F11 3.188019 1_554
Cs0 F9 3.188019 1_555
Cs0 F8 3.188019 1_655
Cs0 F7 3.319003 1_555
Cs1 F0 3.078516 1_455
Cs1 F4 3.188018 1_455
Cs1 F5 3.188019 1_556
Cs1 F3 3.188019 1_555
Cs1 F2 3.188019 1_455
Cs1 F1 3.319003 1_555
F0 Ni1 1.961702 1_656
F0 Ni0 1.961702 1_555
F1 Mo1 2.078599 1_555
F1 Mo0 2.078599 1_566
F2 Ni1 2.009301 1_666
F2 Mo1 2.044478 1_555
F3 Ni0 2.009301 1_555
F3 Mo0 2.044477 1_556
F4 Ni1 2.009301 1_655
F4 Mo0 2.044478 1_555
F5 Ni0 2.009301 1_565
F5 Mo1 2.044477 1_555
F6 Ni1 1.961702 1_565
F6 Ni0 1.961702 1_565
F7 Mo1 2.078599 1_555
F7 Mo0 2.078599 1_555
F8 Ni1 2.009301 1_555
F8 Mo1 2.044478 1_555
F9 Ni0 2.009301 1_565
F9 Mo0 2.044477 1_565
F10 Ni1 2.009301 1_566
F10 Mo0 2.044478 1_566
F11 Ni0 2.009301 1_555
F11 Mo1 2.044477 1_555
