# generated using pymatgen
data_Ga3Pd6Pt
_symmetry_space_group_name_H-M   'P 1'
_cell_length_a   7.12104146
_cell_length_b   7.12104223
_cell_length_c   5.47316417
_cell_angle_alpha   75.20537738
_cell_angle_beta   75.20537575
_cell_angle_gamma   33.38507657
_symmetry_Int_Tables_number   1
_chemical_formula_structural   Ga3Pd6Pt
_chemical_formula_sum   'Ga3 Pd6 Pt1'
_cell_volume   147.19315991
_cell_formula_units_Z   1
loop_
 _symmetry_equiv_pos_site_id
 _symmetry_equiv_pos_as_xyz
  1  'x, y, z'
loop_
 _atom_site_type_symbol
 _atom_site_label
 _atom_site_symmetry_multiplicity
 _atom_site_fract_x
 _atom_site_fract_y
 _atom_site_fract_z
 _atom_site_occupancy
  Ga  Ga0  1  0.00000000  0.00000000  0.00000000  1
  Ga  Ga1  1  0.19182864  0.19182864  0.33663120  1
  Ga  Ga2  1  0.80817136  0.80817136  0.66336880  1
  Pd  Pd0  1  0.20595288  0.20595288  0.86143370  1
  Pd  Pd1  1  0.79404712  0.79404712  0.13856630  1
  Pd  Pd2  1  0.37407899  0.37407899  0.38526716  1
  Pd  Pd3  1  0.62592101  0.62592101  0.61473284  1
  Pd  Pd4  1  0.41789504  0.41789504  0.85493596  1
  Pd  Pd5  1  0.58210496  0.58210496  0.14506404  1
  Pt  Pt0  1  0.00000000  0.00000000  0.50000000  1
loop_
_geom_bond_atom_site_label_1
_geom_bond_atom_site_label_2
_geom_bond_distance
_geom_bond_site_symmetry_2
Ga0 Pd5 2.557892 1_545
Ga0 Pd4 2.557892 1_454
Ga0 Pd5 2.557892 1_455
Ga0 Pd4 2.557892 1_544
Ga0 Pd0 2.707931 1_554
Ga0 Pd1 2.707931 1_445
Ga0 Pt0 2.736582 1_554
Ga0 Pt0 2.736582 1_555
Ga1 Pt0 2.529849 1_555
Ga1 Pd1 2.549002 1_545
Ga1 Pd1 2.549002 1_455
Ga1 Pd0 2.556222 1_554
Ga1 Pd3 2.565002 1_455
Ga1 Pd3 2.565002 1_545
Ga1 Pd2 2.570047 1_555
Ga1 Pd5 2.891427 1_455
Ga1 Pd5 2.891427 1_545
Ga1 Pd0 2.929589 1_555
Ga2 Pt0 2.529849 1_665
Ga2 Pd0 2.549002 1_565
Ga2 Pd0 2.549002 1_655
Ga2 Pd1 2.556222 1_556
Ga2 Pd2 2.565002 1_655
Ga2 Pd2 2.565002 1_565
Ga2 Pd3 2.570047 1_555
Ga2 Pd4 2.891427 1_655
Ga2 Pd4 2.891427 1_565
Ga2 Pd1 2.929589 1_555
Pd2 Pt0 2.846761 1_655
Pd2 Pt0 2.846761 1_565
Pd3 Pt0 2.846761 1_565
Pd3 Pt0 2.846761 1_655
Pd4 Pt0 2.837595 1_655
Pd4 Pt0 2.837595 1_565
Pd5 Pt0 2.837595 1_565
Pd5 Pt0 2.837595 1_655
