# generated using pymatgen
data_V4As4W
_symmetry_space_group_name_H-M   'P 1'
_cell_length_a   6.82461873
_cell_length_b   6.82461854
_cell_length_c   6.82461796
_cell_angle_alpha   93.23667600
_cell_angle_beta   93.23667448
_cell_angle_gamma   152.50842988
_symmetry_Int_Tables_number   1
_chemical_formula_structural   V4As4W
_chemical_formula_sum   'V4 As4 W1'
_cell_volume   142.52727333
_cell_formula_units_Z   1
loop_
 _symmetry_equiv_pos_site_id
 _symmetry_equiv_pos_as_xyz
  1  'x, y, z'
loop_
 _atom_site_type_symbol
 _atom_site_label
 _atom_site_symmetry_multiplicity
 _atom_site_fract_x
 _atom_site_fract_y
 _atom_site_fract_z
 _atom_site_occupancy
  V  V0  1  0.37623508  0.69396326  0.07020134  1
  V  V1  1  0.69396326  0.62376192  0.31772818  1
  V  V2  1  0.30603574  0.37623708  0.68227282  1
  V  V3  1  0.62376392  0.30603574  0.92979966  1
  As  As0  1  0.28323476  0.94114590  0.22438366  1
  As  As1  1  0.05885310  0.28323676  0.34208986  1
  As  As2  1  0.94114590  0.71676224  0.65791114  1
  As  As3  1  0.71676424  0.05885310  0.77561734  1
  W  W0  1  0.00000000  0.00000000  0.00000000  1
loop_
_geom_bond_atom_site_label_1
_geom_bond_atom_site_label_2
_geom_bond_distance
_geom_bond_site_symmetry_2
V0 W0 2.698631 1_555
V0 W0 2.698637 1_665
V1 W0 2.698631 1_555
V1 W0 2.698637 1_665
V2 W0 2.698629 1_556
V2 W0 2.698629 1_666
V3 W0 2.698633 1_666
V3 W0 2.698633 1_556
As0 V0 2.475941 1_555
As0 V1 2.502235 1_565
As0 V1 2.502235 1_455
As0 V3 2.543490 1_454
As0 V3 2.543496 1_564
As0 W0 2.712070 1_565
As1 V2 2.475941 1_555
As1 V0 2.502236 1_555
As1 V0 2.502243 1_445
As1 V1 2.543495 1_555
As1 V1 2.543501 1_445
As1 W0 2.712075 1_555
As2 V1 2.475941 1_555
As2 V3 2.502236 1_555
As2 V3 2.502243 1_665
As2 V2 2.543495 1_555
As2 V2 2.543501 1_665
As2 W0 2.712070 1_666
As3 V3 2.475941 1_555
As3 V2 2.502235 1_545
As3 V2 2.502235 1_655
As3 V0 2.543490 1_656
As3 V0 2.543496 1_546
As3 W0 2.712066 1_656
