# generated using pymatgen
data_Hf5Nb(Si3Ni2)2
_symmetry_space_group_name_H-M   'P 1'
_cell_length_a   5.20691363
_cell_length_b   5.20691451
_cell_length_c   12.77381936
_cell_angle_alpha   90.00000000
_cell_angle_beta   90.00000000
_cell_angle_gamma   136.77363367
_symmetry_Int_Tables_number   1
_chemical_formula_structural   Hf5Nb(Si3Ni2)2
_chemical_formula_sum   'Hf5 Nb1 Si6 Ni4'
_cell_volume   237.19069858
_cell_formula_units_Z   1
loop_
 _symmetry_equiv_pos_site_id
 _symmetry_equiv_pos_as_xyz
  1  'x, y, z'
loop_
 _atom_site_type_symbol
 _atom_site_label
 _atom_site_symmetry_multiplicity
 _atom_site_fract_x
 _atom_site_fract_y
 _atom_site_fract_z
 _atom_site_occupancy
  Hf  Hf0  1  0.86742002  0.13257998  0.75000000  1
  Hf  Hf1  1  0.57477624  0.42522376  0.61678751  1
  Hf  Hf2  1  0.42623576  0.57376424  0.38104773  1
  Hf  Hf3  1  0.42623576  0.57376424  0.11895227  1
  Hf  Hf4  1  0.57477624  0.42522376  0.88321249  1
  Nb  Nb0  1  0.13250594  0.86749406  0.25000000  1
  Si  Si0  1  0.83266369  0.16733631  0.25000000  1
  Si  Si1  1  0.16104584  0.83895416  0.75000000  1
  Si  Si2  1  0.88843039  0.11156961  0.53912753  1
  Si  Si3  1  0.11383931  0.88616069  0.45612261  1
  Si  Si4  1  0.11383931  0.88616069  0.04387739  1
  Si  Si5  1  0.88843039  0.11156961  0.96087247  1
  Ni  Ni0  1  0.28263693  0.71736307  0.91188782  1
  Ni  Ni1  1  0.71726462  0.28273538  0.08975623  1
  Ni  Ni2  1  0.71726462  0.28273538  0.41024377  1
  Ni  Ni3  1  0.28263693  0.71736307  0.58811218  1
loop_
_geom_bond_atom_site_label_1
_geom_bond_atom_site_label_2
_geom_bond_distance
_geom_bond_site_symmetry_2
Hf0 Si5 2.701317 1_555
Hf0 Si2 2.701317 1_555
Hf0 Si1 2.769574 1_545
Hf0 Si1 2.769574 1_655
Hf0 Si1 2.842783 1_645
Hf0 Ni0 2.937424 1_545
Hf0 Ni3 2.937424 1_545
Hf0 Ni0 2.937425 1_655
Hf0 Ni3 2.937425 1_655
Hf1 Si1 2.696578 1_655
Hf1 Si1 2.696578 1_545
Hf1 Ni3 2.804002 1_655
Hf1 Ni3 2.804003 1_545
Hf1 Si2 2.813781 1_455
Hf1 Si2 2.813781 1_565
Hf1 Si3 2.834317 1_655
Hf1 Si3 2.834317 1_545
Hf1 Ni3 2.852011 1_555
Hf1 Ni2 2.977245 1_555
Hf2 Si0 2.702089 1_455
Hf2 Si0 2.702090 1_565
Hf2 Si2 2.808886 1_455
Hf2 Si2 2.808886 1_565
Hf2 Si3 2.810164 1_655
Hf2 Si3 2.810165 1_545
Hf2 Ni2 2.812602 1_455
Hf2 Ni2 2.812603 1_565
Hf2 Ni2 2.842214 1_555
Hf2 Ni3 2.988128 1_555
Hf2 Nb0 3.235541 1_655
Hf2 Nb0 3.235542 1_545
Hf2 Nb0 3.299901 1_555
Hf3 Si0 2.702089 1_455
Hf3 Si0 2.702090 1_565
Hf3 Si5 2.808886 1_454
Hf3 Si5 2.808886 1_564
Hf3 Si4 2.810164 1_655
Hf3 Si4 2.810165 1_545
Hf3 Ni1 2.812602 1_455
Hf3 Ni1 2.812603 1_565
Hf3 Ni1 2.842214 1_555
Hf3 Ni0 2.988128 1_554
Hf3 Nb0 3.235541 1_655
Hf3 Nb0 3.235542 1_545
Hf3 Nb0 3.299901 1_555
Hf4 Si1 2.696578 1_655
Hf4 Si1 2.696578 1_545
Hf4 Ni0 2.804002 1_655
Hf4 Ni0 2.804003 1_545
Hf4 Si5 2.813781 1_455
Hf4 Si5 2.813781 1_565
Hf4 Si4 2.834317 1_656
Hf4 Si4 2.834317 1_546
Hf4 Ni0 2.852011 1_555
Hf4 Ni1 2.977245 1_556
Nb0 Si3 2.639168 1_555
Nb0 Si4 2.639168 1_555
Nb0 Si0 2.726473 1_565
Nb0 Si0 2.726474 1_455
Nb0 Si0 2.902968 1_465
Nb0 Ni2 2.922611 1_565
Nb0 Ni1 2.922611 1_565
Nb0 Ni2 2.922612 1_455
Nb0 Ni1 2.922612 1_455
Si2 Si3 2.426269 1_645
Si4 Si5 2.426269 1_464
Ni0 Si5 2.262519 1_565
Ni0 Si5 2.262519 1_455
Ni0 Si4 2.348057 1_556
Ni0 Si1 2.379521 1_555
Ni1 Si4 2.241534 1_545
Ni1 Si4 2.241534 1_655
Ni1 Si0 2.331986 1_555
Ni1 Si5 2.335943 1_554
Ni2 Si3 2.241534 1_545
Ni2 Si3 2.241534 1_655
Ni2 Si0 2.331986 1_555
Ni2 Si2 2.335943 1_555
Ni3 Si2 2.262519 1_565
Ni3 Si2 2.262519 1_455
Ni3 Si3 2.348057 1_555
Ni3 Si1 2.379521 1_555
