# generated using pymatgen
data_Ta6V5GaN2
_symmetry_space_group_name_H-M   'P 1'
_cell_length_a   8.21715534
_cell_length_b   8.21715579
_cell_length_c   8.19319526
_cell_angle_alpha   60.09642280
_cell_angle_beta   60.09642101
_cell_angle_gamma   60.29343168
_symmetry_Int_Tables_number   1
_chemical_formula_structural   Ta6V5GaN2
_chemical_formula_sum   'Ta12 V10 Ga2 N4'
_cell_volume   392.61727071
_cell_formula_units_Z   2
loop_
 _symmetry_equiv_pos_site_id
 _symmetry_equiv_pos_as_xyz
  1  'x, y, z'
loop_
 _atom_site_type_symbol
 _atom_site_label
 _atom_site_symmetry_multiplicity
 _atom_site_fract_x
 _atom_site_fract_y
 _atom_site_fract_z
 _atom_site_occupancy
  Ta  Ta0  1  0.81308882  0.81308882  0.18691118  1
  Ta  Ta1  1  0.19389940  0.19389940  0.80610060  1
  Ta  Ta2  1  0.80938217  0.18834508  0.81152721  1
  Ta  Ta3  1  0.18834508  0.80938217  0.19074654  1
  Ta  Ta4  1  0.18834508  0.80938217  0.81152721  1
  Ta  Ta5  1  0.80938217  0.18834508  0.19074654  1
  Ta  Ta6  1  0.43826289  0.43826289  0.06173711  1
  Ta  Ta7  1  0.05566956  0.05566956  0.44433044  1
  Ta  Ta8  1  0.44100021  0.06315422  0.44332416  1
  Ta  Ta9  1  0.06315422  0.44100021  0.05251940  1
  Ta  Ta10  1  0.06315422  0.44100021  0.44332416  1
  Ta  Ta11  1  0.44100021  0.06315422  0.05251940  1
  V  V0  1  0.11965580  0.62576243  0.62729188  1
  V  V1  1  0.62576243  0.11965580  0.62729188  1
  V  V2  1  0.62805102  0.62805102  0.12067860  1
  V  V3  1  0.62805102  0.62805102  0.62321837  1
  V  V4  1  0.42181870  0.42181870  0.73530684  1
  V  V5  1  0.42181870  0.42181870  0.42105376  1
  V  V6  1  0.50185988  0.82600357  0.83606827  1
  V  V7  1  0.82600357  0.50185988  0.83606827  1
  V  V8  1  0.82774953  0.82774953  0.50958063  1
  V  V9  1  0.82774953  0.82774953  0.83492231  1
  Ga  Ga0  1  0.76363829  0.40780037  0.41428017  1
  Ga  Ga1  1  0.40780037  0.76363829  0.41428017  1
  N  N0  1  0.62617216  0.12197068  0.12592908  1
  N  N1  1  0.12197068  0.62617216  0.12592908  1
  N  N2  1  0.12360714  0.12360714  0.62634864  1
  N  N3  1  0.12360714  0.12360714  0.12643808  1
loop_
_geom_bond_atom_site_label_1
_geom_bond_atom_site_label_2
_geom_bond_distance
_geom_bond_site_symmetry_2
Ta0 V9 2.769034 1_554
Ta0 V8 2.769050 1_555
Ta0 V3 2.975721 1_555
Ta0 V2 2.975726 1_555
Ta1 V7 2.810739 1_455
Ta1 V6 2.810739 1_545
Ta1 V4 2.943074 1_555
Ta1 V5 2.943082 1_555
Ta1 V1 2.945055 1_555
Ta1 V0 2.945055 1_555
Ta2 V7 2.754721 1_555
Ta2 V9 2.803321 1_545
Ta2 V1 2.972903 1_555
Ta2 V4 2.990926 1_555
Ta2 V3 3.008882 1_555
Ta3 V6 2.754726 1_554
Ta3 V8 2.803324 1_455
Ta3 V0 2.972911 1_555
Ta3 V5 2.990916 1_555
Ta3 V2 3.008879 1_555
Ta4 V6 2.754721 1_555
Ta4 V9 2.803320 1_455
Ta4 V0 2.972903 1_555
Ta4 V4 2.990926 1_555
Ta4 V3 3.008882 1_555
Ta5 V7 2.754727 1_554
Ta5 V8 2.803325 1_545
Ta5 V1 2.972911 1_555
Ta5 V5 2.990915 1_555
Ta5 V2 3.008880 1_555
Ta6 V5 2.815703 1_555
Ta6 V4 2.815719 1_554
Ta6 V7 2.942128 1_554
Ta6 V6 2.942128 1_554
Ta6 V2 3.001625 1_555
Ta6 V3 3.001631 1_554
Ta7 V1 2.944117 1_455
Ta7 V0 2.944117 1_545
Ta7 V8 2.963233 1_445
Ta7 V9 2.963241 1_445
Ta8 V5 2.788586 1_555
Ta8 V1 2.910421 1_555
Ta8 V8 2.952351 1_545
Ta8 V6 2.964507 1_545
Ta8 V3 2.979210 1_545
Ta9 V4 2.788586 1_554
Ta9 V0 2.910394 1_554
Ta9 V9 2.952338 1_454
Ta9 V7 2.964493 1_454
Ta9 V2 2.979208 1_455
Ta10 V5 2.788586 1_555
Ta10 V0 2.910421 1_555
Ta10 V8 2.952351 1_455
Ta10 V7 2.964507 1_455
Ta10 V3 2.979210 1_455
Ta11 V4 2.788587 1_554
Ta11 V1 2.910394 1_554
Ta11 V9 2.952338 1_544
Ta11 V6 2.964493 1_544
Ta11 V2 2.979208 1_545
V0 V8 2.490607 1_455
V0 V9 2.490607 1_455
V0 V4 2.518867 1_555
V0 V5 2.518884 1_555
V0 V7 2.523488 1_455
V1 V8 2.490607 1_545
V1 V9 2.490607 1_545
V1 V4 2.518867 1_555
V1 V5 2.518884 1_555
V1 V6 2.523488 1_545
V2 V9 2.423710 1_554
V2 V7 2.473046 1_554
V2 V6 2.473046 1_554
V2 V5 2.515909 1_555
V3 V8 2.423717 1_555
V3 V7 2.473052 1_555
V3 V6 2.473052 1_555
V3 V4 2.515911 1_555
V4 V5 2.574737 1_555
V6 V7 2.675344 1_555
V6 V8 2.680336 1_555
V6 V9 2.680343 1_555
V7 V8 2.680336 1_555
V7 V9 2.680343 1_555
V8 V9 2.665588 1_555
Ga0 V1 2.550010 1_555
Ga0 V3 2.576097 1_555
Ga0 V2 2.576098 1_555
Ga0 Ta7 2.681123 1_655
Ga0 V4 2.726881 1_555
Ga0 V5 2.726884 1_555
Ga0 Ta10 2.739079 1_655
Ga0 Ta9 2.739084 1_655
Ga0 Ta5 2.946559 1_555
Ga0 Ta2 2.946574 1_555
Ga0 Ta0 3.021098 1_555
Ga1 V0 2.550010 1_555
Ga1 V3 2.576097 1_555
Ga1 V2 2.576098 1_555
Ga1 Ta7 2.681123 1_565
Ga1 V4 2.726881 1_555
Ga1 V5 2.726884 1_555
Ga1 Ta8 2.739079 1_565
Ga1 Ta11 2.739085 1_565
Ga1 Ta3 2.946559 1_555
Ga1 Ta4 2.946573 1_555
Ga1 Ta0 3.021098 1_555
N0 Ta0 2.165128 1_545
N0 Ta5 2.178460 1_555
N0 Ta2 2.178460 1_554
N0 Ta8 2.200383 1_555
N0 Ta11 2.200401 1_555
N0 Ta6 2.210214 1_555
N1 Ta0 2.165128 1_455
N1 Ta3 2.178460 1_555
N1 Ta4 2.178461 1_554
N1 Ta10 2.200383 1_555
N1 Ta9 2.200401 1_555
N1 Ta6 2.210214 1_555
N2 Ta2 2.188412 1_455
N2 Ta4 2.188412 1_545
N2 Ta7 2.194626 1_555
N2 Ta8 2.203768 1_555
N2 Ta10 2.203768 1_555
N2 Ta1 2.205275 1_555
N3 Ta5 2.188412 1_455
N3 Ta3 2.188412 1_545
N3 Ta7 2.194619 1_555
N3 Ta11 2.203763 1_555
N3 Ta9 2.203763 1_555
N3 Ta1 2.205283 1_554
