# generated using pymatgen
data_Cd3CoP6N13
_symmetry_space_group_name_H-M   'P 1'
_cell_length_a   7.05144544
_cell_length_b   7.15258984
_cell_length_c   7.15259119
_cell_angle_alpha   109.75590164
_cell_angle_beta   109.18501995
_cell_angle_gamma   109.18502336
_symmetry_Int_Tables_number   1
_chemical_formula_structural   Cd3CoP6N13
_chemical_formula_sum   'Cd3 Co1 P6 N13'
_cell_volume   278.67932224
_cell_formula_units_Z   1
loop_
 _symmetry_equiv_pos_site_id
 _symmetry_equiv_pos_as_xyz
  1  'x, y, z'
loop_
 _atom_site_type_symbol
 _atom_site_label
 _atom_site_symmetry_multiplicity
 _atom_site_fract_x
 _atom_site_fract_y
 _atom_site_fract_z
 _atom_site_occupancy
  Cd  Cd0  1  0.99562003  0.00000000  0.71655200  1
  Cd  Cd1  1  0.99562003  0.71655200  1.00000000  1
  Cd  Cd2  1  0.27906803  0.28344800  0.28344800  1
  Co  Co0  1  0.67495129  1.00000000  1.00000000  1
  P  P0  1  0.25766095  0.75041181  0.50272459  1
  P  P1  1  0.75493635  0.24768822  0.49727541  1
  P  P2  1  0.75493635  0.49727541  0.24768822  1
  P  P3  1  0.25766095  0.50272459  0.75041181  1
  P  P4  1  0.50724913  0.75231178  0.24958819  1
  P  P5  1  0.50724913  0.24958819  0.75231178  1
  N  N0  1  0.93923861  0.00000000  0.00000000  1
  N  N1  1  0.71672415  0.26565404  0.26565404  1
  N  N2  1  0.28287954  0.72471523  0.27923615  1
  N  N3  1  0.29892141  0.56459847  0.56459847  1
  N  N4  1  0.55816431  0.55452092  0.27528477  1
  N  N5  1  0.45107011  0.73434596  1.00000000  1
  N  N6  1  0.00364339  0.72076385  0.44547908  1
  N  N7  1  0.55816431  0.27528477  0.55452092  1
  N  N8  1  0.73432294  1.00000000  0.43540153  1
  N  N9  1  0.45107011  1.00000000  0.73434596  1
  N  N10  1  0.73432294  0.43540153  1.00000000  1
  N  N11  1  0.28287954  0.27923615  0.72471523  1
  N  N12  1  0.00364339  0.44547908  0.72076385  1
loop_
_geom_bond_atom_site_label_1
_geom_bond_atom_site_label_2
_geom_bond_distance
_geom_bond_site_symmetry_2
Cd0 N0 2.190461 1_556
Cd0 N8 2.236874 1_545
Cd0 N11 2.297819 1_655
Cd0 N6 2.297819 1_645
Cd1 N0 2.190460 1_566
Cd1 N10 2.236873 1_555
Cd1 N2 2.297819 1_656
Cd1 N12 2.297819 1_655
Cd2 N0 2.190460 1_455
Cd2 N3 2.236874 1_555
Cd2 N4 2.297819 1_555
Cd2 N7 2.297819 1_555
Co0 N0 1.863608 1_566
Co0 N5 2.032529 1_555
Co0 N1 2.032529 1_566
Co0 N9 2.032529 1_555
N1 P2 1.645306 1_555
N1 P1 1.645306 1_555
N2 P0 1.621840 1_555
N2 P4 1.621919 1_555
N3 P0 1.616791 1_555
N3 P3 1.616792 1_555
N4 P4 1.621833 1_555
N4 P2 1.621915 1_555
N5 P3 1.645309 1_555
N5 P4 1.645312 1_556
N6 P2 1.621838 1_455
N6 P0 1.621918 1_555
N7 P5 1.621833 1_555
N7 P1 1.621915 1_555
N8 P4 1.616795 1_555
N8 P1 1.616798 1_565
N9 P0 1.645309 1_555
N9 P5 1.645312 1_565
N10 P5 1.616795 1_555
N10 P2 1.616799 1_556
N11 P3 1.621840 1_555
N11 P5 1.621919 1_555
N12 P1 1.621838 1_455
N12 P3 1.621918 1_555
