# generated using pymatgen
data_Ti13Ga9CoIr7
_symmetry_space_group_name_H-M   'P 1'
_cell_length_a   8.68561240
_cell_length_b   8.68561228
_cell_length_c   8.68561163
_cell_angle_alpha   59.83655578
_cell_angle_beta   59.83655596
_cell_angle_gamma   59.83657181
_symmetry_Int_Tables_number   1
_chemical_formula_structural   Ti13Ga9CoIr7
_chemical_formula_sum   'Ti13 Ga9 Co1 Ir7'
_cell_volume   461.60695393
_cell_formula_units_Z   1
loop_
 _symmetry_equiv_pos_site_id
 _symmetry_equiv_pos_as_xyz
  1  'x, y, z'
loop_
 _atom_site_type_symbol
 _atom_site_label
 _atom_site_symmetry_multiplicity
 _atom_site_fract_x
 _atom_site_fract_y
 _atom_site_fract_z
 _atom_site_occupancy
  Ti  Ti0  1  0.20750746  0.20750746  0.79111781  1
  Ti  Ti1  1  0.79111781  0.20750746  0.20750746  1
  Ti  Ti2  1  0.20750746  0.79111781  0.20750746  1
  Ti  Ti3  1  0.80273483  0.80273483  0.17771865  1
  Ti  Ti4  1  0.17771865  0.80273483  0.80273483  1
  Ti  Ti5  1  0.80273483  0.17771865  0.80273483  1
  Ti  Ti6  1  0.37598018  0.37598018  0.37598018  1
  Ti  Ti7  1  0.37784884  0.87038079  0.37784884  1
  Ti  Ti8  1  0.87038079  0.37784884  0.37784884  1
  Ti  Ti9  1  0.37784884  0.37784884  0.87038079  1
  Ti  Ti10  1  0.84271646  0.47679136  0.84271646  1
  Ti  Ti11  1  0.47679136  0.84271646  0.84271646  1
  Ti  Ti12  1  0.84271646  0.84271646  0.47679136  1
  Ga  Ga0  1  0.14980550  0.14980550  0.14980550  1
  Ga  Ga1  1  0.15293682  0.54464666  0.15293682  1
  Ga  Ga2  1  0.54464666  0.15293682  0.15293682  1
  Ga  Ga3  1  0.15293682  0.15293682  0.54464666  1
  Ga  Ga4  1  0.62021004  0.62021004  0.62021004  1
  Ga  Ga5  1  0.61751720  0.14524052  0.61751720  1
  Ga  Ga6  1  0.14524052  0.61751720  0.61751720  1
  Ga  Ga7  1  0.61751720  0.61751720  0.14524052  1
  Ga  Ga8  1  0.82885976  0.82885976  0.82885976  1
  Co  Co0  1  0.00825706  0.00825706  0.00825706  1
  Ir  Ir0  1  0.00445673  0.00445673  0.49738745  1
  Ir  Ir1  1  0.49738745  0.00445673  0.00445673  1
  Ir  Ir2  1  0.00445673  0.49738745  0.00445673  1
  Ir  Ir3  1  0.49915522  0.49915522  0.00229908  1
  Ir  Ir4  1  0.00229908  0.49915522  0.49915522  1
  Ir  Ir5  1  0.49915522  0.00229908  0.49915522  1
  Ir  Ir6  1  0.50156005  0.50156005  0.50156005  1
loop_
_geom_bond_atom_site_label_1
_geom_bond_atom_site_label_2
_geom_bond_distance
_geom_bond_site_symmetry_2
Ti0 Ti11 2.808813 1_545
Ti0 Ti10 2.808813 1_455
Ti0 Ti6 2.971688 1_555
Ti0 Ti9 3.016438 1_555
Ti1 Ti10 2.808812 1_554
Ti1 Ti12 2.808813 1_545
Ti1 Ti6 2.971689 1_555
Ti1 Ti8 3.016438 1_555
Ti2 Ti6 2.971689 1_555
Ti2 Ti7 3.016438 1_555
Ti3 Ti8 3.063757 1_555
Ti3 Ti7 3.063757 1_555
Ti3 Ti5 3.248914 1_564
Ti3 Ti4 3.248915 1_654
Ti4 Ti7 3.063756 1_555
Ti4 Ti9 3.063757 1_555
Ti4 Ti5 3.248915 1_465
Ti5 Ti8 3.063756 1_555
Ti5 Ti9 3.063757 1_555
Ti10 Ti5 2.987154 1_555
Ti11 Ti2 2.808812 1_556
Ti11 Ti4 2.987154 1_555
Ti12 Ti2 2.808813 1_655
Ti12 Ti3 2.987154 1_555
Ga0 Ir0 2.498623 1_555
Ga0 Ir2 2.498624 1_555
Ga0 Ir1 2.498624 1_555
Ga0 Ti0 2.706004 1_554
Ga0 Ti2 2.706004 1_545
Ga0 Ti1 2.706004 1_455
Ga0 Ti9 2.831498 1_554
Ga0 Ti8 2.831499 1_455
Ga0 Ti7 2.831499 1_545
Ga1 Ir2 2.496032 1_555
Ga1 Ir4 2.506460 1_555
Ga1 Ir3 2.506460 1_555
Ga1 Ti2 2.701345 1_555
Ga1 Ti4 2.701517 1_554
Ga1 Ti3 2.701517 1_455
Ga1 Ti6 2.778414 1_555
Ga1 Ti8 2.801607 1_455
Ga1 Ti9 2.801608 1_554
Ga2 Ir1 2.496032 1_555
Ga2 Ir5 2.506460 1_555
Ga2 Ir3 2.506460 1_555
Ga2 Ti1 2.701345 1_555
Ga2 Ti5 2.701517 1_554
Ga2 Ti3 2.701517 1_545
Ga2 Ti6 2.778414 1_555
Ga2 Ti7 2.801607 1_545
Ga2 Ti9 2.801608 1_554
Ga3 Ir0 2.496032 1_555
Ga3 Ir4 2.506461 1_555
Ga3 Ir5 2.506461 1_555
Ga3 Ti0 2.701345 1_555
Ga3 Ti4 2.701517 1_545
Ga3 Ti5 2.701517 1_455
Ga3 Ti6 2.778414 1_555
Ga3 Ti7 2.801608 1_545
Ga3 Ti8 2.801608 1_455
Ga4 Ir6 2.527430 1_555
Ga4 Ir3 2.705997 1_556
Ga4 Ir5 2.705998 1_565
Ga4 Ir4 2.705998 1_655
Ga4 Ti12 2.817171 1_555
Ga4 Ti11 2.817172 1_555
Ga4 Ti10 2.817172 1_555
Ga4 Ti9 2.973858 1_555
Ga4 Ti8 2.973858 1_555
Ga4 Ti7 2.973858 1_555
Ga4 Ti3 3.174472 1_555
Ga4 Ti5 3.174473 1_555
Ga4 Ti4 3.174473 1_555
Ga5 Ir6 2.522189 1_555
Ga5 Ir5 2.698624 1_555
Ga5 Ir1 2.739936 1_556
Ga5 Ir0 2.739937 1_655
Ga5 Ga8 2.745598 1_545
Ga5 Ti11 2.807886 1_545
Ga5 Ti12 2.807886 1_545
Ga5 Ti1 2.955659 1_555
Ga5 Ti0 2.955660 1_555
Ga5 Ti5 2.961161 1_555
Ga5 Ti6 2.965022 1_555
Ga5 Ti8 2.979423 1_555
Ga5 Ti9 2.979424 1_555
Ga6 Ir6 2.522189 1_555
Ga6 Ir4 2.698624 1_555
Ga6 Ir2 2.739936 1_556
Ga6 Ir0 2.739937 1_565
Ga6 Ga8 2.745598 1_455
Ga6 Ti10 2.807886 1_455
Ga6 Ti12 2.807887 1_455
Ga6 Ti2 2.955659 1_555
Ga6 Ti0 2.955660 1_555
Ga6 Ti4 2.961161 1_555
Ga6 Ti6 2.965022 1_555
Ga6 Ti7 2.979423 1_555
Ga6 Ti9 2.979424 1_555
Ga7 Ir6 2.522189 1_555
Ga7 Ir3 2.698624 1_555
Ga7 Ir1 2.739937 1_565
Ga7 Ir2 2.739937 1_655
Ga7 Ga8 2.745597 1_554
Ga7 Ti10 2.807886 1_554
Ga7 Ti11 2.807886 1_554
Ga7 Ti1 2.955660 1_555
Ga7 Ti2 2.955660 1_555
Ga7 Ti3 2.961161 1_555
Ga7 Ti6 2.965021 1_555
Ga7 Ti7 2.979424 1_555
Ga7 Ti8 2.979424 1_555
Ga8 Ir0 2.540348 1_665
Ga8 Ir2 2.540349 1_656
Ga8 Ir1 2.540349 1_566
Ga8 Ti3 2.820292 1_556
Ga8 Ti5 2.820292 1_565
Ga8 Ti4 2.820292 1_655
Ga8 Ti12 2.941897 1_555
Ga8 Ti10 2.941897 1_555
Ga8 Ti11 2.941897 1_555
Co0 Ti0 2.448823 1_554
Co0 Ti1 2.448823 1_455
Co0 Ti2 2.448823 1_545
Co0 Ti3 2.541841 1_445
Co0 Ti4 2.541841 1_544
Co0 Ti5 2.541841 1_454
Co0 Ga0 3.015202 1_555
Ir0 Ti12 2.543096 1_445
Ir0 Ti8 2.643463 1_455
Ir0 Ti7 2.643463 1_545
Ir0 Ti5 3.009939 1_455
Ir0 Ti4 3.009939 1_545
Ir0 Ti2 3.134509 1_545
Ir0 Ti1 3.134509 1_455
Ir1 Ti11 2.543096 1_544
Ir1 Ti7 2.643463 1_545
Ir1 Ti9 2.643463 1_554
Ir1 Ti5 3.009938 1_554
Ir1 Ti3 3.009939 1_545
Ir1 Ti2 3.134508 1_545
Ir1 Ti0 3.134509 1_554
Ir2 Ti10 2.543096 1_454
Ir2 Ti8 2.643463 1_455
Ir2 Ti9 2.643463 1_554
Ir2 Ti4 3.009938 1_554
Ir2 Ti3 3.009939 1_455
Ir2 Ti1 3.134508 1_455
Ir2 Ti0 3.134509 1_554
Ir3 Ti11 2.528830 1_554
Ir3 Ti10 2.528830 1_554
Ir3 Ti6 2.644735 1_555
Ir3 Ti9 2.659895 1_554
Ir3 Ti2 3.094144 1_555
Ir3 Ti1 3.094144 1_555
Ir3 Ti5 3.259430 1_554
Ir3 Ti4 3.259430 1_554
Ir4 Ti10 2.528829 1_455
Ir4 Ti12 2.528830 1_455
Ir4 Ti6 2.644736 1_555
Ir4 Ti8 2.659895 1_455
Ir4 Ti2 3.094143 1_555
Ir4 Ti0 3.094144 1_555
Ir4 Ti5 3.259429 1_455
Ir4 Ti3 3.259430 1_455
Ir5 Ti11 2.528829 1_545
Ir5 Ti12 2.528830 1_545
Ir5 Ti6 2.644736 1_555
Ir5 Ti7 2.659895 1_545
Ir5 Ti1 3.094143 1_555
Ir5 Ti0 3.094144 1_555
Ir5 Ti4 3.259429 1_545
Ir5 Ti3 3.259430 1_545
Ir6 Ti9 2.610206 1_555
Ir6 Ti7 2.610206 1_555
Ir6 Ti8 2.610206 1_555
Ir6 Ti6 2.675047 1_555
