# generated using pymatgen
data_Lu12Co3BiOs2
_symmetry_space_group_name_H-M   'P 1'
_cell_length_a   8.11811249
_cell_length_b   8.11811327
_cell_length_c   8.11811263
_cell_angle_alpha   110.66236256
_cell_angle_beta   112.15563044
_cell_angle_gamma   105.66521662
_symmetry_Int_Tables_number   1
_chemical_formula_structural   Lu12Co3BiOs2
_chemical_formula_sum   'Lu12 Co3 Bi1 Os2'
_cell_volume   410.42788730
_cell_formula_units_Z   1
loop_
 _symmetry_equiv_pos_site_id
 _symmetry_equiv_pos_as_xyz
  1  'x, y, z'
loop_
 _atom_site_type_symbol
 _atom_site_label
 _atom_site_symmetry_multiplicity
 _atom_site_fract_x
 _atom_site_fract_y
 _atom_site_fract_z
 _atom_site_occupancy
  Lu  Lu0  1  0.27325208  0.18130515  0.45455624  1
  Lu  Lu1  1  0.72570630  0.81832585  0.54403315  1
  Lu  Lu2  1  0.27429370  0.81832585  0.09261855  1
  Lu  Lu3  1  0.72674792  0.18130515  0.90805407  1
  Lu  Lu4  1  0.61501535  0.30426371  0.30569666  1
  Lu  Lu5  1  0.38498465  0.69068130  0.68924835  1
  Lu  Lu6  1  0.99856705  0.30426371  0.68924835  1
  Lu  Lu7  1  0.00143295  0.69068130  0.30569666  1
  Lu  Lu8  1  0.22215332  0.41884015  0.19668783  1
  Lu  Lu9  1  0.78210800  0.58202276  0.79991376  1
  Lu  Lu10  1  0.21789200  0.01780577  0.79991376  1
  Lu  Lu11  1  0.77784668  0.97453551  0.19668783  1
  Co  Co0  1  0.00000000  0.63907593  0.63907593  1
  Co  Co1  1  0.39102831  0.88993348  0.49890517  1
  Co  Co2  1  0.60897169  0.10787686  0.49890517  1
  Bi  Bi0  1  0.50000000  0.49769429  0.99769429  1
  Os  Os0  1  1.00000000  0.38342659  0.38342659  1
  Os  Os1  1  1.00000000  0.99963564  0.99963564  1
loop_
_geom_bond_atom_site_label_1
_geom_bond_atom_site_label_2
_geom_bond_distance
_geom_bond_site_symmetry_2
Lu0 Os1 2.990859 1_444
Lu0 Os0 3.100773 1_455
Lu1 Os1 2.996819 1_555
Lu2 Os1 2.996824 1_454
Lu3 Os1 2.990864 1_545
Lu3 Os0 3.100768 1_556
Lu4 Os0 2.778605 1_555
Lu5 Os0 2.778606 1_455
Lu6 Os0 2.778605 1_555
Lu7 Os0 2.778605 1_455
Lu8 Os0 2.779024 1_455
Lu8 Os1 2.839115 1_444
Lu9 Os1 2.823208 1_555
Lu10 Os1 2.823214 1_445
Lu11 Os0 2.779019 1_565
Lu11 Os1 2.839120 1_554
Co0 Os0 2.361097 1_455
Co0 Lu9 2.602816 1_455
Co0 Lu10 2.602818 1_565
Co0 Lu5 2.884714 1_555
Co0 Lu7 2.884714 1_555
Co0 Lu6 2.884714 1_455
Co0 Lu4 2.884714 1_455
Co0 Lu2 2.986230 1_556
Co0 Lu1 2.986235 1_455
Co1 Co2 2.137817 1_565
Co1 Lu5 2.604778 1_555
Co1 Lu7 2.604778 1_555
Co1 Lu1 2.847185 1_555
Co1 Lu2 2.847194 1_555
Co1 Lu0 2.863834 1_565
Co1 Lu3 2.863836 1_565
Co1 Lu8 3.245728 1_555
Co1 Lu10 3.257720 1_565
Co2 Lu4 2.604778 1_555
Co2 Lu6 2.604778 1_555
Co2 Lu1 2.847189 1_545
Co2 Lu2 2.847191 1_545
Co2 Lu0 2.863830 1_555
Co2 Lu3 2.863840 1_555
Co2 Lu11 3.245720 1_545
Co2 Lu9 3.257727 1_555
Bi0 Lu8 3.287177 1_556
Bi0 Lu11 3.287183 1_556
Bi0 Lu10 3.315730 1_555
Bi0 Lu9 3.315731 1_555
Bi0 Lu5 3.375117 1_555
Bi0 Lu4 3.375117 1_556
Bi0 Lu7 3.375117 1_656
Bi0 Lu6 3.375117 1_455
Bi0 Lu3 3.572060 1_555
Bi0 Lu0 3.572068 1_555
Bi0 Lu2 3.598811 1_556
Bi0 Lu1 3.598819 1_556
