# generated using pymatgen
data_Zr2Nb2ReMo
_symmetry_space_group_name_H-M   'P 1'
_cell_length_a   5.43708274
_cell_length_b   5.45958410
_cell_length_c   5.43708293
_cell_angle_alpha   121.07314977
_cell_angle_beta   118.27061574
_cell_angle_gamma   90.46193226
_symmetry_Int_Tables_number   1
_chemical_formula_structural   Zr2Nb2ReMo
_chemical_formula_sum   'Zr2 Nb2 Re1 Mo1'
_cell_volume   114.72365102
_cell_formula_units_Z   1
loop_
 _symmetry_equiv_pos_site_id
 _symmetry_equiv_pos_as_xyz
  1  'x, y, z'
loop_
 _atom_site_type_symbol
 _atom_site_label
 _atom_site_symmetry_multiplicity
 _atom_site_fract_x
 _atom_site_fract_y
 _atom_site_fract_z
 _atom_site_occupancy
  Zr  Zr0  1  0.37277713  0.12328670  0.25050957  1
  Zr  Zr1  1  0.62722287  0.87671330  0.74949043  1
  Nb  Nb0  1  0.50000000  0.50000000  0.00000000  1
  Nb  Nb1  1  0.00000000  0.50000000  0.50000000  1
  Re  Re0  1  0.00000000  0.50000000  0.00000000  1
  Mo  Mo0  1  0.00000000  0.00000000  0.50000000  1
loop_
_geom_bond_atom_site_label_1
_geom_bond_atom_site_label_2
_geom_bond_distance
_geom_bond_site_symmetry_2
Zr0 Zr1 3.310778 1_544
Zr0 Zr1 3.320764 1_555
Zr0 Zr1 3.366184 1_444
Zr0 Zr1 3.366185 1_545
Nb0 Re0 2.718541 1_555
Nb0 Re0 2.718541 1_655
Nb0 Nb1 2.789291 1_655
Nb0 Nb1 2.789291 1_554
Nb0 Zr1 3.157500 1_555
Nb0 Zr0 3.157500 1_554
Nb0 Zr0 3.171638 1_565
Nb0 Zr1 3.171638 1_544
Nb0 Zr1 3.213233 1_554
Nb0 Zr0 3.213233 1_555
Nb1 Re0 2.718541 1_555
Nb1 Re0 2.718541 1_556
Nb1 Zr0 3.157500 1_555
Nb1 Zr1 3.157500 1_455
Nb1 Zr0 3.171638 1_566
Nb1 Zr1 3.171638 1_444
Nb1 Zr1 3.213233 1_555
Nb1 Zr0 3.213233 1_455
Re0 Zr0 3.167351 1_565
Re0 Zr1 3.167351 1_444
Re0 Zr1 3.246076 1_555
Re0 Zr0 3.246076 1_454
Re0 Zr1 3.246076 1_454
Re0 Zr0 3.246076 1_555
Mo0 Re0 2.679878 1_556
Mo0 Re0 2.679878 1_545
Mo0 Nb0 2.729792 1_445
Mo0 Nb0 2.729792 1_556
Mo0 Nb1 2.729792 1_555
Mo0 Nb1 2.729792 1_545
Mo0 Zr0 3.150568 1_555
Mo0 Zr1 3.150568 1_445
Mo0 Zr0 3.243525 1_556
Mo0 Zr1 3.243525 1_444
Mo0 Zr1 3.243525 1_545
Mo0 Zr0 3.243525 1_455
