# generated using pymatgen
data_Sc3Nb(V3Si4)2
_symmetry_space_group_name_H-M   'P 1'
_cell_length_a   6.57213217
_cell_length_b   6.57408842
_cell_length_c   12.16085663
_cell_angle_alpha   90.03929572
_cell_angle_beta   89.87400941
_cell_angle_gamma   90.01327870
_symmetry_Int_Tables_number   1
_chemical_formula_structural   Sc3Nb(V3Si4)2
_chemical_formula_sum   'Sc6 Nb2 V12 Si16'
_cell_volume   525.41786406
_cell_formula_units_Z   2
loop_
 _symmetry_equiv_pos_site_id
 _symmetry_equiv_pos_as_xyz
  1  'x, y, z'
loop_
 _atom_site_type_symbol
 _atom_site_label
 _atom_site_symmetry_multiplicity
 _atom_site_fract_x
 _atom_site_fract_y
 _atom_site_fract_z
 _atom_site_occupancy
  Sc  Sc0  1  0.16259240  0.49801086  0.77989509  1
  Sc  Sc1  1  0.50215329  0.83721593  0.72014992  1
  Sc  Sc2  1  0.50080034  0.16461840  0.21986155  1
  Sc  Sc3  1  0.99864027  0.33739157  0.52960019  1
  Sc  Sc4  1  0.66430178  0.00064124  0.97153446  1
  Sc  Sc5  1  0.33897926  0.99869717  0.46847609  1
  Nb  Nb0  1  0.00805256  0.65686012  0.03229673  1
  Nb  Nb1  1  0.84158856  0.50799493  0.28153496  1
  V  V0  1  0.33076269  0.33733139  0.00046273  1
  V  V1  1  0.16317385  0.82941765  0.24873456  1
  V  V2  1  0.83406308  0.16699486  0.75166279  1
  V  V3  1  0.66913366  0.66690056  0.49888301  1
  V  V4  1  0.00262382  0.15733344  0.12647392  1
  V  V5  1  0.34277024  0.50536839  0.37390922  1
  V  V6  1  0.65473306  0.49496187  0.87888787  1
  V  V7  1  0.50931661  0.34358447  0.62307095  1
  V  V8  1  0.48959496  0.65662381  0.12322583  1
  V  V9  1  0.99305000  0.84136725  0.62655435  1
  V  V10  1  0.15338268  0.00882276  0.87493294  1
  V  V11  1  0.84190666  0.98988820  0.37096407  1
  Si  Si0  1  0.29146911  0.96161311  0.06450980  1
  Si  Si1  1  0.53945536  0.79205515  0.31290239  1
  Si  Si2  1  0.46097327  0.20595742  0.81447289  1
  Si  Si3  1  0.79482855  0.53901875  0.68656900  1
  Si  Si4  1  0.20511638  0.45628051  0.18584555  1
  Si  Si5  1  0.70749442  0.03947319  0.56349158  1
  Si  Si6  1  0.95736106  0.29604330  0.93610294  1
  Si  Si7  1  0.04132382  0.70662377  0.43570576  1
  Si  Si8  1  0.70887286  0.37545795  0.07359123  1
  Si  Si9  1  0.12509983  0.20569885  0.32004459  1
  Si  Si10  1  0.87055377  0.79311497  0.82280469  1
  Si  Si11  1  0.20489266  0.12875812  0.67976777  1
  Si  Si12  1  0.79387459  0.86702766  0.17687072  1
  Si  Si13  1  0.29781587  0.62873122  0.56897264  1
  Si  Si14  1  0.36802269  0.70793714  0.92966589  1
  Si  Si15  1  0.63122700  0.29618500  0.42757231  1
loop_
_geom_bond_atom_site_label_1
_geom_bond_atom_site_label_2
_geom_bond_distance
_geom_bond_site_symmetry_2
Sc0 Si14 2.655410 1_555
Sc0 Si6 2.679950 1_455
Sc0 Si3 2.686145 1_455
Sc0 Si11 2.729001 1_555
Sc0 Si2 2.777617 1_555
Sc0 Si10 2.777726 1_455
Sc0 Si13 2.846080 1_555
Sc1 Si13 2.658652 1_555
Sc1 Si5 2.685136 1_565
Sc1 Si2 2.694539 1_565
Sc1 Si10 2.742024 1_555
Sc1 Si3 2.776128 1_555
Sc1 Si11 2.781825 1_565
Sc1 Si14 2.825581 1_555
Sc2 Si8 2.635726 1_555
Sc2 Si0 2.692586 1_545
Sc2 Si1 2.710900 1_545
Sc2 Si4 2.762291 1_555
Sc2 Si9 2.764157 1_555
Sc2 Si12 2.794037 1_545
Sc2 Si15 2.805249 1_555
Sc3 Si11 2.658705 1_655
Sc3 Si3 2.679758 1_555
Sc3 Si7 2.697529 1_655
Sc3 Si15 2.730562 1_555
Sc3 Si5 2.768202 1_555
Sc3 Si13 2.786532 1_655
Sc3 Si9 2.814692 1_655
Sc4 Si10 2.637564 1_545
Sc4 Si2 2.696532 1_555
Sc4 Si0 2.708531 1_546
Sc4 Si6 2.768095 1_555
Sc4 Si8 2.773965 1_556
Sc4 Si12 2.782944 1_546
Sc4 Si14 2.784751 1_545
Sc5 Si9 2.664841 1_565
Sc5 Si1 2.673404 1_555
Sc5 Si5 2.698944 1_565
Sc5 Si13 2.735806 1_555
Sc5 Si7 2.770043 1_555
Sc5 Si15 2.785082 1_565
Sc5 Si11 2.845575 1_565
Nb0 Si4 2.630152 1_555
Nb0 Si12 2.639715 1_455
Nb0 Si6 2.665247 1_454
Nb0 Si14 2.693427 1_554
Nb0 Si8 2.745163 1_455
Nb0 Si0 2.763555 1_555
Nb0 Si10 2.850067 1_454
Nb1 Si7 2.636285 1_655
Nb1 Si15 2.644990 1_555
Nb1 Si4 2.676819 1_655
Nb1 Si12 2.701049 1_555
Nb1 Si1 2.751923 1_555
Nb1 Si9 2.765389 1_655
Nb1 Si8 2.814424 1_555
Si0 Si14 2.390884 1_554
Si0 V4 2.412579 1_565
Si0 V8 2.496544 1_555
Si0 V10 2.499036 1_564
Si0 V1 2.545451 1_555
Si0 V0 2.603019 1_565
Si1 Si12 2.400817 1_555
Si1 V5 2.402084 1_555
Si1 V11 2.478891 1_555
Si1 V8 2.494192 1_555
Si1 V3 2.555363 1_555
Si1 V1 2.606506 1_555
Si2 V6 2.417893 1_555
Si2 V10 2.510035 1_555
Si2 V7 2.517308 1_555
Si2 V0 2.565758 1_556
Si2 V2 2.579361 1_555
Si3 V7 2.402467 1_555
Si3 V9 2.485397 1_555
Si3 V6 2.528392 1_555
Si3 V3 2.570972 1_555
Si3 V2 2.584279 1_555
Si4 Si9 2.377636 1_555
Si4 V8 2.409165 1_555
Si4 V4 2.481096 1_555
Si4 V5 2.482131 1_555
Si4 V0 2.522986 1_555
Si4 V1 2.583618 1_555
Si5 V9 2.411464 1_545
Si5 V7 2.492673 1_555
Si5 V11 2.521564 1_545
Si5 V2 2.576157 1_555
Si5 V3 2.584186 1_545
Si6 Si8 2.392125 1_556
Si6 V10 2.402781 1_655
Si6 V6 2.481637 1_555
Si6 V4 2.507121 1_656
Si6 V2 2.532246 1_555
Si6 V0 2.591608 1_656
Si7 V11 2.411020 1_455
Si7 V5 2.496699 1_555
Si7 V9 2.503176 1_455
Si7 V1 2.541068 1_555
Si7 V3 2.575558 1_455
Si8 V8 2.419435 1_555
Si8 V4 2.490975 1_655
Si8 V6 2.521208 1_554
Si8 V0 2.652921 1_555
Si9 V11 2.419758 1_445
Si9 V4 2.509470 1_555
Si9 V5 2.521455 1_555
Si9 V1 2.632536 1_545
Si10 Si3 2.404647 1_555
Si10 V10 2.422940 1_665
Si10 V6 2.513014 1_555
Si10 V9 2.537114 1_555
Si10 V2 2.617530 1_565
Si11 Si2 2.405016 1_555
Si11 V9 2.434706 1_445
Si11 V10 2.523510 1_555
Si11 V7 2.542982 1_555
Si11 V2 2.599589 1_455
Si12 V4 2.428341 1_665
Si12 V11 2.514712 1_555
Si12 V8 2.518163 1_555
Si12 V1 2.593360 1_655
Si13 Si7 2.396628 1_555
Si13 V7 2.426089 1_555
Si13 V5 2.523180 1_555
Si13 V9 2.539699 1_455
Si13 V3 2.595310 1_555
Si14 V6 2.426344 1_555
Si14 V8 2.510438 1_556
Si14 V10 2.520484 1_565
Si14 V0 2.595938 1_556
Si15 Si5 2.416467 1_555
Si15 V5 2.432872 1_555
Si15 V7 2.526250 1_555
Si15 V11 2.537899 1_545
Si15 V3 2.598347 1_555
