# generated using pymatgen
data_Mo(PdPt3)2
_symmetry_space_group_name_H-M   'P 1'
_cell_length_a   6.21936490
_cell_length_b   6.21936463
_cell_length_c   6.22511447
_cell_angle_alpha   95.70620530
_cell_angle_beta   95.70630024
_cell_angle_gamma   143.22188774
_symmetry_Int_Tables_number   1
_chemical_formula_structural   Mo(PdPt3)2
_chemical_formula_sum   'Mo1 Pd2 Pt6'
_cell_volume   136.81782144
_cell_formula_units_Z   1
loop_
 _symmetry_equiv_pos_site_id
 _symmetry_equiv_pos_as_xyz
  1  'x, y, z'
loop_
 _atom_site_type_symbol
 _atom_site_label
 _atom_site_symmetry_multiplicity
 _atom_site_fract_x
 _atom_site_fract_y
 _atom_site_fract_z
 _atom_site_occupancy
  Mo  Mo0  1  0.00155575  0.00155575  0.00311049  1
  Pd  Pd0  1  0.66991454  0.00021730  0.67013085  1
  Pd  Pd1  1  0.00021730  0.66991454  0.67013085  1
  Pt  Pt0  1  0.66060048  0.33793983  0.99853930  1
  Pt  Pt1  1  0.33793983  0.66060048  0.99853930  1
  Pt  Pt2  1  0.32869712  0.99989978  0.32859590  1
  Pt  Pt3  1  0.99989978  0.32869612  0.32859590  1
  Pt  Pt4  1  0.66242178  0.66242178  0.32484256  1
  Pt  Pt5  1  0.33875642  0.33875642  0.67751284  1
loop_
_geom_bond_atom_site_label_1
_geom_bond_atom_site_label_2
_geom_bond_distance
_geom_bond_site_symmetry_2
Mo0 Pt4 2.731719 1_555
Mo0 Pt4 2.731722 1_445
Mo0 Pt3 2.731865 1_455
Mo0 Pt2 2.731867 1_545
Mo0 Pt0 2.734312 1_444
Mo0 Pt1 2.734312 1_554
Mo0 Pt1 2.734312 1_444
Mo0 Pt0 2.734312 1_554
Mo0 Pt5 2.747659 1_444
Mo0 Pt5 2.747660 1_554
Mo0 Pd0 2.769456 1_454
Mo0 Pd1 2.769459 1_544
Pd0 Pt1 2.759677 1_655
Pd0 Pt1 2.759680 1_545
Pd0 Pt5 2.766123 1_655
Pd0 Pt5 2.766126 1_545
Pd0 Pd1 2.803857 1_655
Pd0 Pd1 2.803858 1_545
Pd0 Pt3 2.814392 1_445
Pd0 Pt3 2.814393 1_555
Pd0 Pt0 2.821201 1_555
Pd0 Pt4 2.821576 1_545
Pd0 Pt2 2.849394 1_545
Pd1 Pt0 2.759677 1_565
Pd1 Pt0 2.759680 1_455
Pd1 Pt5 2.766123 1_565
Pd1 Pt5 2.766126 1_455
Pd1 Pt2 2.814391 1_445
Pd1 Pt2 2.814394 1_555
Pd1 Pt1 2.821198 1_555
Pd1 Pt4 2.821573 1_455
Pd1 Pt3 2.849401 1_455
Pt0 Pt5 2.687607 1_555
Pt0 Pt4 2.709699 1_556
Pt0 Pt2 2.766401 1_656
Pt0 Pt2 2.766404 1_546
Pt0 Pt3 2.834349 1_556
Pt0 Pt1 2.868992 1_545
Pt0 Pt1 2.868992 1_655
Pt1 Pt5 2.687610 1_555
Pt1 Pt4 2.709696 1_556
Pt1 Pt3 2.766400 1_566
Pt1 Pt3 2.766405 1_456
Pt1 Pt2 2.834347 1_556
Pt2 Pt4 2.759615 1_565
Pt2 Pt4 2.759615 1_455
Pt2 Pt3 2.816582 1_565
Pt2 Pt3 2.816585 1_455
Pt2 Pt5 2.831016 1_565
Pt3 Pt4 2.759609 1_545
Pt3 Pt4 2.759612 1_655
Pt3 Pt5 2.831009 1_655
Pt4 Pt5 2.861907 1_665
Pt4 Pt5 2.861913 1_555
