# generated using pymatgen
data_Mg2ScNi7B2
_symmetry_space_group_name_H-M   'P 1'
_cell_length_a   4.87665634
_cell_length_b   4.87665734
_cell_length_c   7.37531124
_cell_angle_alpha   109.35100880
_cell_angle_beta   109.35101685
_cell_angle_gamma   60.03388719
_symmetry_Int_Tables_number   1
_chemical_formula_structural   Mg2ScNi7B2
_chemical_formula_sum   'Mg2 Sc1 Ni7 B2'
_cell_volume   140.38459745
_cell_formula_units_Z   1
loop_
 _symmetry_equiv_pos_site_id
 _symmetry_equiv_pos_as_xyz
  1  'x, y, z'
loop_
 _atom_site_type_symbol
 _atom_site_label
 _atom_site_symmetry_multiplicity
 _atom_site_fract_x
 _atom_site_fract_y
 _atom_site_fract_z
 _atom_site_occupancy
  Mg  Mg0  1  0.35415064  0.35415064  0.06178598  1
  Mg  Mg1  1  0.64584936  0.64584936  0.93821402  1
  Sc  Sc0  1  0.50000000  0.50000000  0.50000100  1
  Ni  Ni0  1  0.00000000  0.00000000  0.00000000  1
  Ni  Ni1  1  0.93211675  0.93211675  0.29326059  1
  Ni  Ni2  1  0.93209454  0.42891134  0.29268153  1
  Ni  Ni3  1  0.42891134  0.93209454  0.29268153  1
  Ni  Ni4  1  0.57108766  0.06790446  0.70731847  1
  Ni  Ni5  1  0.06790446  0.57108766  0.70731847  1
  Ni  Ni6  1  0.06788225  0.06788225  0.70673941  1
  B  B0  1  0.83263345  0.83263345  0.49949414  1
  B  B1  1  0.16736555  0.16736555  0.50050586  1
loop_
_geom_bond_atom_site_label_1
_geom_bond_atom_site_label_2
_geom_bond_distance
_geom_bond_site_symmetry_2
Mg0 Ni5 2.800279 1_554
Mg0 Ni4 2.800279 1_554
Mg0 Ni6 2.802936 1_554
Mg0 Ni0 2.847089 1_655
Mg0 Ni0 2.847090 1_565
Mg0 Ni0 2.847772 1_555
Mg0 Ni2 2.900133 1_555
Mg0 Ni3 2.900133 1_555
Mg0 Ni2 2.903599 1_455
Mg0 Ni3 2.903599 1_545
Mg0 Ni1 2.905042 1_545
Mg0 Ni1 2.905042 1_455
Mg0 Mg1 2.935563 1_554
Mg0 Mg1 2.941031 1_454
Mg0 Mg1 2.941032 1_544
Mg0 Sc0 2.985961 1_555
Mg1 Ni2 2.800281 1_556
Mg1 Ni3 2.800281 1_556
Mg1 Ni1 2.802932 1_556
Mg1 Ni0 2.847089 1_566
Mg1 Ni0 2.847090 1_656
Mg1 Ni0 2.847772 1_666
Mg1 Ni5 2.900139 1_555
Mg1 Ni4 2.900139 1_555
Mg1 Ni5 2.903593 1_655
Mg1 Ni4 2.903593 1_565
Mg1 Ni6 2.905042 1_565
Mg1 Ni6 2.905042 1_655
Mg1 Sc0 2.985947 1_555
Ni0 Ni3 2.435959 1_545
Ni0 Ni2 2.435960 1_455
Ni0 Ni4 2.435962 1_454
Ni0 Ni5 2.435962 1_544
Ni0 Ni6 2.440437 1_554
Ni0 Ni1 2.440441 1_445
Ni1 Sc0 2.817109 1_655
Ni1 Sc0 2.817110 1_565
Ni2 Sc0 2.815967 1_655
Ni2 Sc0 2.820025 1_555
Ni3 Sc0 2.815967 1_565
Ni3 Sc0 2.820025 1_555
Ni4 Sc0 2.815959 1_545
Ni4 Sc0 2.820020 1_555
Ni5 Sc0 2.815958 1_455
Ni5 Sc0 2.820020 1_555
Ni6 Sc0 2.817102 1_455
Ni6 Sc0 2.817103 1_545
B0 Ni6 1.989770 1_665
B0 Ni5 1.990187 1_655
B0 Ni4 1.990187 1_565
B0 Ni3 1.996053 1_555
B0 Ni2 1.996054 1_555
B0 Ni1 1.999367 1_555
B0 Sc0 2.810580 1_555
B0 Sc0 2.818744 1_655
B0 Sc0 2.818745 1_565
B1 Ni1 1.989770 1_445
B1 Ni2 1.990187 1_455
B1 Ni3 1.990187 1_545
B1 Ni4 1.996053 1_555
B1 Ni5 1.996054 1_555
B1 Ni6 1.999367 1_555
B1 Sc0 2.810583 1_555
B1 Sc0 2.818743 1_455
B1 Sc0 2.818743 1_545
