# generated using pymatgen
data_Ba5VHN4
_symmetry_space_group_name_H-M   'P 1'
_cell_length_a   7.99031244
_cell_length_b   7.99031154
_cell_length_c   9.84821399
_cell_angle_alpha   76.97366356
_cell_angle_beta   76.97366874
_cell_angle_gamma   95.29730071
_symmetry_Int_Tables_number   1
_chemical_formula_structural   Ba5VHN4
_chemical_formula_sum   'Ba10 V2 H2 N8'
_cell_volume   589.99210906
_cell_formula_units_Z   2
loop_
 _symmetry_equiv_pos_site_id
 _symmetry_equiv_pos_as_xyz
  1  'x, y, z'
loop_
 _atom_site_type_symbol
 _atom_site_label
 _atom_site_symmetry_multiplicity
 _atom_site_fract_x
 _atom_site_fract_y
 _atom_site_fract_z
 _atom_site_occupancy
  Ba  Ba0  1  0.38169656  0.38169656  0.36440534  1
  Ba  Ba1  1  0.61830344  0.61830344  0.63559466  1
  Ba  Ba2  1  0.65983846  0.65983846  0.00582625  1
  Ba  Ba3  1  0.34016154  0.34016154  0.99417375  1
  Ba  Ba4  1  0.94530686  0.94530686  0.18584147  1
  Ba  Ba5  1  0.05469314  0.05469314  0.81415853  1
  Ba  Ba6  1  0.56914911  0.07157256  0.77137727  1
  Ba  Ba7  1  0.92842744  0.43085089  0.22862273  1
  Ba  Ba8  1  0.43085089  0.92842744  0.22862273  1
  Ba  Ba9  1  0.07157256  0.56914911  0.77137727  1
  V  V0  1  0.75376461  0.24623539  1.00000000  1
  V  V1  1  0.24623539  0.75376461  0.00000000  1
  H  H0  1  0.65626470  0.65626470  0.31225627  1
  H  H1  1  0.34373530  0.34373530  0.68774373  1
  N  N0  1  0.71517520  0.01804888  0.99868482  1
  N  N1  1  0.98195112  0.28482480  0.00131518  1
  N  N2  1  0.28482480  0.98195112  0.00131518  1
  N  N3  1  0.01804888  0.71517520  0.99868482  1
  N  N4  1  0.38746861  0.71231048  0.84053317  1
  N  N5  1  0.28768952  0.61253139  0.15946583  1
  N  N6  1  0.61253139  0.28768952  0.15946583  1
  N  N7  1  0.71231048  0.38746861  0.84053317  1
loop_
_geom_bond_atom_site_label_1
_geom_bond_atom_site_label_2
_geom_bond_distance
_geom_bond_site_symmetry_2
Ba0 N5 2.701993 1_555
Ba0 N6 2.701993 1_555
Ba0 H0 2.825852 1_555
Ba0 H1 3.071807 1_555
Ba1 N7 2.701987 1_555
Ba1 N4 2.701987 1_555
Ba1 H1 2.825852 1_555
Ba1 H0 3.071807 1_555
Ba2 N0 2.838004 1_564
Ba2 N3 2.838004 1_654
Ba2 N6 2.963252 1_555
Ba2 N5 2.963252 1_555
Ba2 N7 3.003311 1_554
Ba2 N4 3.003311 1_554
Ba2 H0 3.005134 1_555
Ba3 N2 2.838004 1_546
Ba3 N1 2.838004 1_456
Ba3 N4 2.963255 1_555
Ba3 N7 2.963255 1_555
Ba3 N5 3.003305 1_556
Ba3 N6 3.003305 1_556
Ba3 H1 3.005134 1_555
Ba4 N1 2.852855 1_565
Ba4 N2 2.852855 1_655
Ba4 N3 2.891126 1_654
Ba4 N0 2.891126 1_564
Ba4 H0 2.939491 1_555
Ba5 N3 2.852855 1_545
Ba5 N0 2.852855 1_455
Ba5 N1 2.891126 1_456
Ba5 N2 2.891126 1_546
Ba5 H1 2.939491 1_555
Ba6 N0 2.719107 1_555
Ba6 N2 2.729719 1_546
Ba6 N4 2.952145 1_545
Ba6 N7 2.955757 1_555
Ba6 H1 3.039104 1_555
Ba7 N1 2.719107 1_555
Ba7 N3 2.729719 1_654
Ba7 N5 2.952145 1_655
Ba7 N6 2.955762 1_555
Ba7 H0 3.039104 1_555
Ba8 N2 2.719107 1_555
Ba8 N0 2.729719 1_564
Ba8 N6 2.952144 1_565
Ba8 N5 2.955762 1_555
Ba8 H0 3.039104 1_555
Ba9 N3 2.719107 1_555
Ba9 N1 2.729719 1_456
Ba9 N7 2.952146 1_455
Ba9 N4 2.955757 1_555
Ba9 H1 3.039104 1_555
N0 V0 1.824345 1_555
N1 V0 1.824345 1_554
N2 V1 1.824345 1_555
N3 V1 1.824345 1_556
N4 V1 1.831437 1_556
N5 V1 1.831430 1_555
N6 V0 1.831430 1_554
N7 V0 1.831437 1_555
