# generated using pymatgen
data_Ba3MnOs2O9
_symmetry_space_group_name_H-M   'P 1'
_cell_length_a   5.86843339
_cell_length_b   5.86843406
_cell_length_c   14.14646974
_cell_angle_alpha   90.00000000
_cell_angle_beta   90.00000000
_cell_angle_gamma   119.99998531
_symmetry_Int_Tables_number   1
_chemical_formula_structural   Ba3MnOs2O9
_chemical_formula_sum   'Ba6 Mn2 Os4 O18'
_cell_volume   421.91326479
_cell_formula_units_Z   2
loop_
 _symmetry_equiv_pos_site_id
 _symmetry_equiv_pos_as_xyz
  1  'x, y, z'
loop_
 _atom_site_type_symbol
 _atom_site_label
 _atom_site_symmetry_multiplicity
 _atom_site_fract_x
 _atom_site_fract_y
 _atom_site_fract_z
 _atom_site_occupancy
  Ba  Ba0  1  0.00000000  0.00000000  0.25000000  1
  Ba  Ba1  1  0.00000000  0.00000000  0.75000000  1
  Ba  Ba2  1  0.33333300  0.66666700  0.91148648  1
  Ba  Ba3  1  0.66666700  0.33333300  0.41148648  1
  Ba  Ba4  1  0.66666700  0.33333300  0.08851352  1
  Ba  Ba5  1  0.33333300  0.66666700  0.58851352  1
  Mn  Mn0  1  0.00000000  0.00000000  0.00000000  1
  Mn  Mn1  1  0.00000000  0.00000000  0.50000000  1
  Os  Os0  1  0.33333300  0.66666700  0.16211963  1
  Os  Os1  1  0.66666700  0.33333300  0.66211963  1
  Os  Os2  1  0.66666700  0.33333300  0.83788037  1
  Os  Os3  1  0.33333300  0.66666700  0.33788037  1
  O  O0  1  0.49395358  0.98790815  0.25000000  1
  O  O1  1  0.50604642  0.49395358  0.75000000  1
  O  O2  1  0.98790815  0.49395358  0.75000000  1
  O  O3  1  0.01209185  0.50604642  0.25000000  1
  O  O4  1  0.49395358  0.50604642  0.25000000  1
  O  O5  1  0.50604642  0.01209185  0.75000000  1
  O  O6  1  0.17469464  0.34938727  0.41368344  1
  O  O7  1  0.82530536  0.17469464  0.91368344  1
  O  O8  1  0.34938727  0.17469464  0.91368344  1
  O  O9  1  0.65061273  0.82530536  0.41368344  1
  O  O10  1  0.17469464  0.82530536  0.41368344  1
  O  O11  1  0.82530536  0.65061273  0.58631656  1
  O  O12  1  0.82530536  0.17469464  0.58631656  1
  O  O13  1  0.82530536  0.65061273  0.91368344  1
  O  O14  1  0.34938727  0.17469464  0.58631656  1
  O  O15  1  0.65061273  0.82530536  0.08631656  1
  O  O16  1  0.17469464  0.34938727  0.08631656  1
  O  O17  1  0.17469464  0.82530536  0.08631656  1
loop_
_geom_bond_atom_site_label_1
_geom_bond_atom_site_label_2
_geom_bond_distance
_geom_bond_site_symmetry_2
Ba0 O9 2.917997 1_445
Ba0 O15 2.917997 1_445
Ba0 O6 2.917998 1_555
Ba0 O16 2.917998 1_555
Ba0 O10 2.918003 1_545
Ba0 O17 2.918003 1_545
Ba0 O0 2.934857 1_545
Ba0 O3 2.934858 1_545
Ba0 O4 2.934861 1_445
Ba0 O4 2.934861 1_555
Ba0 O0 2.934863 1_445
Ba0 O3 2.934863 1_555
Ba1 O8 2.917997 1_555
Ba1 O14 2.917997 1_555
Ba1 O13 2.917998 1_445
Ba1 O11 2.917998 1_445
Ba1 O7 2.918003 1_455
Ba1 O12 2.918003 1_455
Ba1 O5 2.934857 1_455
Ba1 O2 2.934858 1_455
Ba1 O1 2.934861 1_555
Ba1 O1 2.934861 1_445
Ba1 O5 2.934863 1_555
Ba1 O2 2.934863 1_445
Ba2 O2 2.881082 1_455
Ba2 O5 2.881082 1_565
Ba2 O1 2.881088 1_555
Ba2 O13 2.935512 1_555
Ba2 O8 2.935513 1_555
Ba2 O7 2.935516 1_455
Ba2 O7 2.935516 1_565
Ba2 O13 2.935518 1_455
Ba2 O8 2.935519 1_565
Ba2 O17 2.952442 1_556
Ba2 O15 2.952450 1_556
Ba2 O16 2.952450 1_556
Ba3 O3 2.881082 1_655
Ba3 O0 2.881082 1_545
Ba3 O4 2.881088 1_555
Ba3 O6 2.935512 1_555
Ba3 O9 2.935513 1_555
Ba3 O10 2.935516 1_655
Ba3 O10 2.935516 1_545
Ba3 O6 2.935518 1_655
Ba3 O9 2.935519 1_545
Ba3 O12 2.952442 1_555
Ba3 O14 2.952450 1_555
Ba3 O11 2.952450 1_555
Ba4 O3 2.881082 1_655
Ba4 O0 2.881082 1_545
Ba4 O4 2.881088 1_555
Ba4 O16 2.935512 1_555
Ba4 O15 2.935513 1_555
Ba4 O17 2.935516 1_655
Ba4 O17 2.935516 1_545
Ba4 O16 2.935518 1_655
Ba4 O15 2.935519 1_545
Ba4 O7 2.952442 1_554
Ba4 O8 2.952450 1_554
Ba4 O13 2.952450 1_554
Ba5 O2 2.881082 1_455
Ba5 O5 2.881082 1_565
Ba5 O1 2.881088 1_555
Ba5 O11 2.935512 1_555
Ba5 O14 2.935513 1_555
Ba5 O12 2.935516 1_455
Ba5 O12 2.935516 1_565
Ba5 O11 2.935518 1_455
Ba5 O14 2.935519 1_565
Ba5 O10 2.952442 1_555
Ba5 O9 2.952450 1_555
Ba5 O6 2.952450 1_555
Mn0 O15 2.154993 1_445
Mn0 O8 2.154993 1_554
Mn0 O16 2.154993 1_555
Mn0 O13 2.154993 1_444
Mn0 O17 2.155001 1_545
Mn0 O7 2.155001 1_454
Mn1 O14 2.154993 1_555
Mn1 O9 2.154993 1_445
Mn1 O11 2.154993 1_445
Mn1 O6 2.154993 1_555
Mn1 O12 2.155001 1_455
Mn1 O10 2.155001 1_545
O0 Os3 2.052066 1_555
O0 Os0 2.052066 1_555
O1 Os2 2.052066 1_555
O1 Os1 2.052066 1_555
O2 Os2 2.052066 1_555
O2 Os1 2.052066 1_555
O3 Os3 2.052066 1_555
O3 Os0 2.052066 1_555
O4 Os3 2.052066 1_555
O4 Os0 2.052066 1_555
O5 Os2 2.052066 1_555
O5 Os1 2.052066 1_555
O6 Os3 1.936499 1_555
O7 Os2 1.936486 1_555
O8 Os2 1.936499 1_555
O9 Os3 1.936499 1_555
O10 Os3 1.936486 1_555
O11 Os1 1.936499 1_555
O12 Os1 1.936486 1_555
O13 Os2 1.936499 1_555
O14 Os1 1.936499 1_555
O15 Os0 1.936499 1_555
O16 Os0 1.936499 1_555
O17 Os0 1.936486 1_555
