# generated using pymatgen
data_Ta5Ti2NbO12
_symmetry_space_group_name_H-M   'P 1'
_cell_length_a   6.63953216
_cell_length_b   6.64856730
_cell_length_c   6.64779543
_cell_angle_alpha   73.11966239
_cell_angle_beta   73.29673490
_cell_angle_gamma   73.07451133
_symmetry_Int_Tables_number   1
_chemical_formula_structural   Ta5Ti2NbO12
_chemical_formula_sum   'Ta5 Ti2 Nb1 O12'
_cell_volume   261.96840651
_cell_formula_units_Z   1
loop_
 _symmetry_equiv_pos_site_id
 _symmetry_equiv_pos_as_xyz
  1  'x, y, z'
loop_
 _atom_site_type_symbol
 _atom_site_label
 _atom_site_symmetry_multiplicity
 _atom_site_fract_x
 _atom_site_fract_y
 _atom_site_fract_z
 _atom_site_occupancy
  Ta  Ta0  1  0.70585944  0.94482242  0.11663488  1
  Ta  Ta1  1  0.11736102  0.70516855  0.94413474  1
  Ta  Ta2  1  0.05559232  0.88292558  0.29338515  1
  Ta  Ta3  1  0.29396425  0.05548702  0.88273798  1
  Ta  Ta4  1  0.88162568  0.29459280  0.05414943  1
  Ti  Ti0  1  0.27200348  0.27338111  0.27712547  1
  Ti  Ti1  1  0.72563548  0.72855944  0.72459482  1
  Nb  Nb0  1  0.94435929  0.11733528  0.70574009  1
  O  O0  1  0.17159691  0.57161823  0.25920062  1
  O  O1  1  0.26570333  0.17217740  0.57200286  1
  O  O2  1  0.57144895  0.25848157  0.17054242  1
  O  O3  1  0.82745934  0.43242379  0.74361098  1
  O  O4  1  0.74013092  0.82922410  0.42775448  1
  O  O5  1  0.42719698  0.74087584  0.82827692  1
  O  O6  1  0.64168637  0.03167956  0.80365459  1
  O  O7  1  0.79981164  0.64513508  0.03660356  1
  O  O8  1  0.96802902  0.20210480  0.34896587  1
  O  O9  1  0.20044469  0.35475614  0.96396995  1
  O  O10  1  0.35453364  0.96495026  0.20077102  1
  O  O11  1  0.03555624  0.79429903  0.64614419  1
loop_
_geom_bond_atom_site_label_1
_geom_bond_atom_site_label_2
_geom_bond_distance
_geom_bond_site_symmetry_2
Nb0 O3 2.074029 1_555
Nb0 O6 2.117943 1_555
Nb0 O1 2.156348 1_655
Nb0 O11 2.176095 1_645
Nb0 O8 2.242456 1_555
O0 Ti0 1.878589 1_555
O0 Ta2 2.042809 1_555
O0 Ta1 2.114786 1_554
O1 Ti0 1.870950 1_555
O1 Ta3 2.027701 1_555
O2 Ti0 1.892357 1_555
O2 Ta4 2.040001 1_555
O2 Ta0 2.107188 1_545
O3 Ti1 1.865227 1_555
O3 Ta4 2.089752 1_556
O4 Ti1 1.874187 1_555
O4 Ta0 2.041009 1_555
O4 Ta2 2.118282 1_655
O5 Ti1 1.887145 1_555
O5 Ta1 2.036883 1_555
O5 Ta3 2.113574 1_565
O6 Ti1 2.107387 1_545
O6 Ta0 2.124286 1_546
O6 Ta3 2.183906 1_555
O7 Ta0 2.084075 1_555
O7 Ta1 2.141246 1_654
O7 Ti1 2.147651 1_554
O7 Ta4 2.209481 1_555
O8 Ta4 2.071079 1_555
O8 Ti0 2.096988 1_655
O8 Ta2 2.142730 1_645
O9 Ta3 2.085188 1_555
O9 Ti0 2.148745 1_556
O9 Ta4 2.150478 1_456
O9 Ta1 2.205559 1_555
O10 Ta2 2.085382 1_555
O10 Ti0 2.133848 1_565
O10 Ta3 2.145389 1_564
O10 Ta0 2.209907 1_555
O11 Ta1 2.078412 1_555
O11 Ti1 2.114634 1_455
O11 Ta2 2.219929 1_555
