# generated using pymatgen
data_Y20InNi2Hg5
_symmetry_space_group_name_H-M   'P 1'
_cell_length_a   9.74186453
_cell_length_b   9.74186455
_cell_length_c   9.53676754
_cell_angle_alpha   90.00000000
_cell_angle_beta   90.00000000
_cell_angle_gamma   120.28493557
_symmetry_Int_Tables_number   1
_chemical_formula_structural   Y20InNi2Hg5
_chemical_formula_sum   'Y20 In1 Ni2 Hg5'
_cell_volume   781.55920217
_cell_formula_units_Z   1
loop_
 _symmetry_equiv_pos_site_id
 _symmetry_equiv_pos_as_xyz
  1  'x, y, z'
loop_
 _atom_site_type_symbol
 _atom_site_label
 _atom_site_symmetry_multiplicity
 _atom_site_fract_x
 _atom_site_fract_y
 _atom_site_fract_z
 _atom_site_occupancy
  Y  Y0  1  0.00404992  0.99595008  0.50849900  1
  Y  Y1  1  0.00404992  0.99595008  0.99150100  1
  Y  Y2  1  0.54168516  0.45831484  0.25000000  1
  Y  Y3  1  0.53592631  0.08927536  0.25000000  1
  Y  Y4  1  0.91072464  0.46407369  0.25000000  1
  Y  Y5  1  0.45470376  0.54529624  0.75000000  1
  Y  Y6  1  0.45708749  0.91407813  0.75000000  1
  Y  Y7  1  0.08592187  0.54291251  0.75000000  1
  Y  Y8  1  0.21066370  0.78933630  0.43575742  1
  Y  Y9  1  0.20838475  0.41889920  0.43484818  1
  Y  Y10  1  0.58110080  0.79161525  0.43484818  1
  Y  Y11  1  0.79095612  0.20904388  0.56351100  1
  Y  Y12  1  0.78870339  0.57979480  0.56673635  1
  Y  Y13  1  0.42020520  0.21129661  0.56673635  1
  Y  Y14  1  0.79095612  0.20904388  0.93648900  1
  Y  Y15  1  0.78870339  0.57979480  0.93326365  1
  Y  Y16  1  0.42020520  0.21129661  0.93326365  1
  Y  Y17  1  0.21066370  0.78933630  0.06424258  1
  Y  Y18  1  0.20838475  0.41889920  0.06515182  1
  Y  Y19  1  0.58110080  0.79161525  0.06515182  1
  In  In0  1  0.88252823  0.11747177  0.25000000  1
  Ni  Ni0  1  0.33372039  0.66627961  0.25000000  1
  Ni  Ni1  1  0.66952912  0.33047088  0.75000000  1
  Hg  Hg0  1  0.88003501  0.76175355  0.25000000  1
  Hg  Hg1  1  0.23824645  0.11996499  0.25000000  1
  Hg  Hg2  1  0.12427644  0.87572356  0.75000000  1
  Hg  Hg3  1  0.12233564  0.24484827  0.75000000  1
  Hg  Hg4  1  0.75515173  0.87766436  0.75000000  1
loop_
_geom_bond_atom_site_label_1
_geom_bond_atom_site_label_2
_geom_bond_distance
_geom_bond_site_symmetry_2
Y0 Y13 3.545038 1_565
Y0 Y12 3.545038 1_455
Y0 Y8 3.559526 1_555
Y0 Y10 3.627724 1_455
Y0 Y9 3.627724 1_565
Y0 Y11 3.638788 1_465
Y1 Y16 3.545038 1_565
Y1 Y15 3.545038 1_455
Y1 Y17 3.559526 1_556
Y1 Y19 3.627724 1_456
Y1 Y18 3.627724 1_566
Y1 Y14 3.638788 1_465
Y2 Y9 3.541242 1_555
Y2 Y4 3.567169 1_555
Y2 Y3 3.567169 1_555
Y3 Y8 3.518274 1_545
Y3 Y4 3.635498 1_555
Y4 Y8 3.518274 1_655
Y4 Y9 3.605146 1_655
Y5 Y7 3.580969 1_555
Y5 Y6 3.580969 1_555
Y5 Y9 3.650667 1_555
Y6 Y7 3.600261 1_555
Y6 Y8 3.643974 1_555
Y7 Y8 3.643974 1_555
Y7 Y9 3.656468 1_555
Y10 Y2 3.541242 1_555
Y10 Y3 3.605146 1_565
Y10 Y5 3.650667 1_555
Y10 Y6 3.656468 1_555
Y11 Y6 3.545763 1_545
Y11 Y7 3.545763 1_655
Y11 Y3 3.680976 1_555
Y11 Y4 3.680976 1_555
Y12 Y7 3.551999 1_655
Y12 Y5 3.556922 1_555
Y12 Y4 3.627646 1_555
Y12 Y2 3.666511 1_555
Y13 Y6 3.551999 1_545
Y13 Y5 3.556922 1_555
Y13 Y3 3.627646 1_555
Y13 Y2 3.666511 1_555
Y14 Y6 3.545763 1_545
Y14 Y7 3.545763 1_655
Y14 Y3 3.680976 1_556
Y14 Y4 3.680976 1_556
Y15 Y7 3.551999 1_655
Y15 Y5 3.556922 1_555
Y15 Y4 3.627646 1_556
Y15 Y2 3.666511 1_556
Y16 Y6 3.551999 1_545
Y16 Y5 3.556922 1_555
Y16 Y3 3.627646 1_556
Y16 Y2 3.666511 1_556
Y17 Y3 3.518274 1_565
Y17 Y4 3.518274 1_455
Y17 Y6 3.643974 1_554
Y17 Y7 3.643974 1_554
Y18 Y2 3.541242 1_555
Y18 Y4 3.605146 1_455
Y18 Y5 3.650667 1_554
Y18 Y7 3.656468 1_554
Y19 Y2 3.541242 1_555
Y19 Y3 3.605146 1_565
Y19 Y5 3.650667 1_554
Y19 Y6 3.656468 1_554
In0 Y0 3.208422 1_645
In0 Y1 3.208422 1_644
In0 Y3 3.246701 1_555
In0 Y4 3.246701 1_555
In0 Y11 3.366552 1_555
In0 Y14 3.366552 1_554
In0 Y9 3.522183 1_655
In0 Y18 3.522183 1_655
In0 Y10 3.522183 1_545
In0 Y19 3.522183 1_545
Ni0 Y10 2.727358 1_555
Ni0 Y19 2.727358 1_555
Ni0 Y9 2.727358 1_555
Ni0 Y18 2.727358 1_555
Ni0 Y8 2.731673 1_555
Ni0 Y17 2.731673 1_555
Ni0 Y2 3.514101 1_555
Ni0 Y4 3.560045 1_455
Ni0 Y3 3.560045 1_565
Ni1 Y14 2.715335 1_555
Ni1 Y11 2.715335 1_555
Ni1 Y16 2.730898 1_555
Ni1 Y13 2.730898 1_555
Ni1 Y15 2.730898 1_555
Ni1 Y12 2.730898 1_555
Ni1 Y7 3.502933 1_655
Ni1 Y6 3.502933 1_545
Ni1 Y5 3.630028 1_555
Hg0 Y4 3.061634 1_555
Hg0 Y2 3.126579 1_555
Hg0 Y0 3.156301 1_655
Hg0 Y1 3.156301 1_654
Hg0 Y12 3.386347 1_555
Hg0 Y15 3.386347 1_554
Hg0 In0 3.453174 1_565
Hg0 Y10 3.539424 1_555
Hg0 Y19 3.539424 1_555
Hg0 Y8 3.565393 1_655
Hg0 Y17 3.565393 1_655
Hg1 Y3 3.061634 1_555
Hg1 Y2 3.126579 1_555
Hg1 Y0 3.156301 1_545
Hg1 Y1 3.156301 1_544
Hg1 Y13 3.386347 1_555
Hg1 Y16 3.386347 1_554
Hg1 In0 3.453174 1_455
Hg1 Y9 3.539424 1_555
Hg1 Y18 3.539424 1_555
Hg1 Y8 3.565393 1_545
Hg1 Y17 3.565393 1_545
Hg2 Y6 3.070769 1_555
Hg2 Y7 3.070769 1_555
Hg2 Y1 3.071089 1_555
Hg2 Y0 3.071089 1_555
Hg2 Y17 3.333465 1_556
Hg2 Y8 3.333465 1_555
Hg2 Y15 3.542203 1_455
Hg2 Y12 3.542203 1_455
Hg2 Y16 3.542203 1_565
Hg2 Y13 3.542203 1_565
Hg3 Y5 3.080946 1_555
Hg3 Y7 3.097779 1_555
Hg3 Y1 3.113441 1_545
Hg3 Y0 3.113441 1_545
Hg3 Y18 3.343250 1_556
Hg3 Y9 3.343250 1_555
Hg3 Y16 3.540980 1_555
Hg3 Y13 3.540980 1_555
Hg3 Y14 3.545512 1_455
Hg3 Y11 3.545512 1_455
Hg4 Y5 3.080946 1_555
Hg4 Y6 3.097779 1_555
Hg4 Y1 3.113441 1_655
Hg4 Y0 3.113441 1_655
Hg4 Y19 3.343250 1_556
Hg4 Y10 3.343250 1_555
Hg4 Y15 3.540980 1_555
Hg4 Y12 3.540980 1_555
Hg4 Y14 3.545512 1_565
Hg4 Y11 3.545512 1_565
