# generated using pymatgen
data_Ta4MnCu3Pt8
_symmetry_space_group_name_H-M   'P 1'
_cell_length_a   4.57933829
_cell_length_b   4.75834597
_cell_length_c   11.02867529
_cell_angle_alpha   90.00000000
_cell_angle_beta   90.00000000
_cell_angle_gamma   90.00000000
_symmetry_Int_Tables_number   1
_chemical_formula_structural   Ta4MnCu3Pt8
_chemical_formula_sum   'Ta4 Mn1 Cu3 Pt8'
_cell_volume   240.31567179
_cell_formula_units_Z   1
loop_
 _symmetry_equiv_pos_site_id
 _symmetry_equiv_pos_as_xyz
  1  'x, y, z'
loop_
 _atom_site_type_symbol
 _atom_site_label
 _atom_site_symmetry_multiplicity
 _atom_site_fract_x
 _atom_site_fract_y
 _atom_site_fract_z
 _atom_site_occupancy
  Ta  Ta0  1  0.50000000  0.66093225  0.24520782  1
  Ta  Ta1  1  0.50000000  0.66093225  0.75479218  1
  Ta  Ta2  1  0.00000000  0.33936315  0.00000000  1
  Ta  Ta3  1  0.00000000  0.32060474  0.50000000  1
  Mn  Mn0  1  0.50000000  0.69540339  0.50000000  1
  Cu  Cu0  1  0.00000000  0.32280378  0.24982817  1
  Cu  Cu1  1  0.00000000  0.32280378  0.75017183  1
  Cu  Cu2  1  0.50000000  0.67605319  0.00000000  1
  Pt  Pt0  1  0.50000000  0.18587519  0.37387505  1
  Pt  Pt1  1  0.50000000  0.18071105  0.87667358  1
  Pt  Pt2  1  0.50000000  0.18071105  0.12332642  1
  Pt  Pt3  1  0.50000000  0.18587519  0.62612495  1
  Pt  Pt4  1  0.00000000  0.81517503  0.37304919  1
  Pt  Pt5  1  0.00000000  0.81879146  0.87473777  1
  Pt  Pt6  1  0.00000000  0.81879146  0.12526223  1
  Pt  Pt7  1  0.00000000  0.81517503  0.62695081  1
loop_
_geom_bond_atom_site_label_1
_geom_bond_atom_site_label_2
_geom_bond_distance
_geom_bond_site_symmetry_2
Mn0 Pt3 2.716917 1_565
Mn0 Pt0 2.716917 1_565
Mn0 Pt7 2.743659 1_555
Mn0 Pt7 2.743659 1_655
Mn0 Pt4 2.743659 1_555
Mn0 Pt4 2.743659 1_655
Mn0 Pt3 2.795194 1_555
Mn0 Pt0 2.795194 1_555
Mn0 Ta1 2.814803 1_555
Mn0 Ta0 2.814803 1_555
Mn0 Ta3 2.902271 1_555
Mn0 Ta3 2.902271 1_655
Cu0 Pt4 2.708475 1_555
Cu0 Pt6 2.730806 1_555
Cu0 Pt0 2.745675 1_555
Cu0 Pt0 2.745675 1_455
Cu0 Ta2 2.756400 1_555
Cu0 Ta3 2.759084 1_555
Cu0 Pt6 2.763873 1_545
Cu0 Pt2 2.765170 1_555
Cu0 Pt2 2.765170 1_455
Cu0 Pt4 2.771515 1_545
Cu0 Ta0 2.798901 1_555
Cu0 Ta0 2.798901 1_455
Cu1 Pt7 2.708475 1_555
Cu1 Pt5 2.730806 1_555
Cu1 Pt3 2.745675 1_455
Cu1 Pt3 2.745675 1_555
Cu1 Ta2 2.756400 1_556
Cu1 Ta3 2.759084 1_555
Cu1 Pt5 2.763873 1_545
Cu1 Pt1 2.765170 1_555
Cu1 Pt1 2.765170 1_455
Cu1 Pt7 2.771515 1_545
Cu1 Ta1 2.798901 1_455
Cu1 Ta1 2.798901 1_555
Cu2 Ta0 2.705274 1_555
Cu2 Ta1 2.705274 1_554
Cu2 Pt2 2.721293 1_555
Cu2 Pt1 2.721293 1_554
Cu2 Pt6 2.759053 1_655
Cu2 Pt6 2.759053 1_555
Cu2 Pt5 2.759053 1_654
Cu2 Pt5 2.759053 1_554
Cu2 Pt2 2.759776 1_565
Cu2 Pt1 2.759776 1_564
Cu2 Ta2 2.794507 1_655
Cu2 Ta2 2.794507 1_555
Pt0 Ta0 2.668977 1_555
Pt0 Ta3 2.754712 1_655
Pt0 Ta3 2.754712 1_555
Pt0 Pt2 2.763329 1_555
Pt0 Pt3 2.781982 1_555
Pt0 Ta0 2.872795 1_545
Pt0 Pt4 2.890343 1_545
Pt0 Pt4 2.890343 1_645
Pt1 Ta1 2.651102 1_555
Pt1 Pt2 2.720254 1_556
Pt1 Pt3 2.763329 1_555
Pt1 Ta2 2.768111 1_656
Pt1 Ta2 2.768111 1_556
Pt1 Ta1 2.814960 1_545
Pt1 Pt5 2.865101 1_645
Pt1 Pt5 2.865101 1_545
Pt2 Ta0 2.651102 1_555
Pt2 Ta2 2.768111 1_655
Pt2 Ta2 2.768111 1_555
Pt2 Ta0 2.814960 1_545
Pt2 Pt6 2.865101 1_545
Pt2 Pt6 2.865101 1_645
Pt3 Ta1 2.668977 1_555
Pt3 Ta3 2.754712 1_655
Pt3 Ta3 2.754712 1_555
Pt3 Ta1 2.872795 1_545
Pt3 Pt7 2.890343 1_545
Pt3 Pt7 2.890343 1_645
Pt4 Pt6 2.732816 1_555
Pt4 Ta3 2.738334 1_555
Pt4 Ta3 2.782867 1_565
Pt4 Ta0 2.787316 1_455
Pt4 Ta0 2.787316 1_555
Pt4 Pt7 2.800199 1_555
Pt5 Ta2 2.666972 1_556
Pt5 Pt7 2.732816 1_555
Pt5 Ta1 2.748948 1_455
Pt5 Ta1 2.748948 1_555
Pt5 Pt6 2.762953 1_556
Pt5 Ta2 2.836248 1_566
Pt6 Ta2 2.666972 1_555
Pt6 Ta0 2.748948 1_455
Pt6 Ta0 2.748948 1_555
Pt6 Ta2 2.836248 1_565
Pt7 Ta3 2.738334 1_555
Pt7 Ta3 2.782867 1_565
Pt7 Ta1 2.787316 1_555
Pt7 Ta1 2.787316 1_455
