# generated using pymatgen
data_LuHf2Zr2Sn3
_symmetry_space_group_name_H-M   'P 1'
_cell_length_a   8.49710290
_cell_length_b   8.55803831
_cell_length_c   5.82754948
_cell_angle_alpha   90.00000000
_cell_angle_beta   90.00000000
_cell_angle_gamma   120.23908633
_symmetry_Int_Tables_number   1
_chemical_formula_structural   LuHf2Zr2Sn3
_chemical_formula_sum   'Lu2 Hf4 Zr4 Sn6'
_cell_volume   366.10895929
_cell_formula_units_Z   2
loop_
 _symmetry_equiv_pos_site_id
 _symmetry_equiv_pos_as_xyz
  1  'x, y, z'
loop_
 _atom_site_type_symbol
 _atom_site_label
 _atom_site_symmetry_multiplicity
 _atom_site_fract_x
 _atom_site_fract_y
 _atom_site_fract_z
 _atom_site_occupancy
  Lu  Lu0  1  0.75846574  0.76088602  0.75000000  1
  Lu  Lu1  1  0.24151614  0.00229668  0.75000000  1
  Hf  Hf0  1  0.66702860  0.33216731  0.00081132  1
  Hf  Hf1  1  0.33311350  0.66528803  0.00082251  1
  Hf  Hf2  1  0.33311350  0.66528803  0.49917749  1
  Hf  Hf3  1  0.66702860  0.33216731  0.49918868  1
  Zr  Zr0  1  0.99986467  0.25091613  0.75000000  1
  Zr  Zr1  1  0.24492497  0.24433951  0.25000000  1
  Zr  Zr2  1  0.75492628  0.99927109  0.25000000  1
  Zr  Zr3  1  0.99992137  0.74841336  0.25000000  1
  Sn  Sn0  1  0.39491711  0.39640339  0.75000000  1
  Sn  Sn1  1  0.60514692  0.00142231  0.75000000  1
  Sn  Sn2  1  0.99998737  0.60465096  0.75000000  1
  Sn  Sn3  1  0.60780478  0.60716294  0.25000000  1
  Sn  Sn4  1  0.39229105  0.99926494  0.25000000  1
  Sn  Sn5  1  0.99994941  0.39006199  0.25000000  1
loop_
_geom_bond_atom_site_label_1
_geom_bond_atom_site_label_2
_geom_bond_distance
_geom_bond_site_symmetry_2
Lu0 Sn1 2.938678 1_565
Lu0 Sn2 2.960268 1_555
Lu0 Sn0 3.093069 1_555
Lu0 Sn3 3.188000 1_556
Lu0 Sn3 3.188000 1_555
Lu0 Lu1 3.546032 1_665
Lu0 Zr2 3.565786 1_556
Lu0 Zr2 3.565786 1_555
Lu0 Zr3 3.596028 1_555
Lu0 Zr3 3.596028 1_556
Lu0 Zr0 3.623576 1_565
Lu1 Sn0 2.940516 1_555
Lu1 Sn2 2.959437 1_445
Lu1 Sn1 3.093583 1_555
Lu1 Sn4 3.188351 1_546
Lu1 Sn4 3.188351 1_545
Lu1 Zr1 3.566684 1_555
Lu1 Zr1 3.566684 1_556
Lu1 Zr3 3.596190 1_446
Lu1 Zr3 3.596190 1_445
Lu1 Zr0 3.625423 1_455
Hf0 Hf3 2.904319 1_555
Hf0 Hf3 2.923231 1_554
Hf0 Sn1 2.987577 1_554
Hf0 Sn2 2.988881 1_554
Hf0 Sn5 2.990818 1_555
Hf0 Sn4 2.996060 1_545
Hf0 Sn0 3.010790 1_554
Hf0 Sn3 3.015539 1_555
Hf0 Zr1 3.580855 1_555
Hf0 Lu1 3.591362 1_554
Hf0 Zr2 3.595303 1_545
Hf0 Lu0 3.651063 1_554
Hf1 Hf2 2.904188 1_555
Hf1 Hf2 2.923361 1_554
Hf1 Sn0 2.987413 1_554
Hf1 Sn2 2.989755 1_454
Hf1 Sn5 2.992413 1_455
Hf1 Sn3 2.995562 1_555
Hf1 Sn1 3.009531 1_564
Hf1 Sn4 3.013815 1_555
Hf1 Zr2 3.578559 1_555
Hf1 Lu0 3.590327 1_554
Hf1 Zr1 3.595699 1_555
Hf1 Lu1 3.649858 1_564
Hf2 Sn0 2.987413 1_555
Hf2 Sn2 2.989755 1_455
Hf2 Sn5 2.992413 1_455
Hf2 Sn3 2.995562 1_555
Hf2 Sn1 3.009531 1_565
Hf2 Sn4 3.013815 1_555
Hf2 Zr2 3.578559 1_555
Hf2 Lu0 3.590327 1_555
Hf2 Zr1 3.595699 1_555
Hf2 Lu1 3.649858 1_565
Hf3 Sn1 2.987577 1_555
Hf3 Sn2 2.988881 1_555
Hf3 Sn5 2.990818 1_555
Hf3 Sn4 2.996060 1_545
Hf3 Sn0 3.010790 1_555
Hf3 Sn3 3.015539 1_555
Hf3 Zr1 3.580855 1_555
Hf3 Lu1 3.591362 1_555
Hf3 Zr2 3.595303 1_545
Hf3 Lu0 3.651063 1_555
Zr0 Zr2 3.597937 1_546
Zr0 Zr2 3.597937 1_545
Zr0 Zr1 3.598233 1_656
Zr0 Zr1 3.598233 1_655
Zr1 Zr2 3.597038 1_445
Zr1 Zr3 3.667080 1_445
Zr2 Zr3 3.666620 1_555
Sn0 Zr0 2.934055 1_455
Sn0 Zr1 3.183932 1_555
Sn0 Zr1 3.183932 1_556
Sn1 Zr0 2.931727 1_555
Sn1 Zr2 3.183357 1_545
Sn1 Zr2 3.183357 1_546
Sn2 Zr0 3.026751 1_555
Sn2 Zr3 3.162985 1_556
Sn2 Zr3 3.162985 1_555
Sn3 Zr3 2.916472 1_555
Sn3 Zr2 2.932251 1_555
Sn3 Zr1 3.083110 1_555
Sn4 Zr3 2.918087 1_455
Sn4 Zr1 2.934640 1_565
Sn4 Zr2 3.081322 1_555
Sn5 Zr1 2.915977 1_655
Sn5 Zr2 2.916579 1_545
Sn5 Zr3 3.066905 1_555
Sn5 Zr0 3.147580 1_554
Sn5 Zr0 3.147580 1_555
