# generated using pymatgen
data_LuTa3Pb4O13
_symmetry_space_group_name_H-M   'P 1'
_cell_length_a   7.60777536
_cell_length_b   7.60777506
_cell_length_c   7.60777411
_cell_angle_alpha   59.49661576
_cell_angle_beta   59.49661688
_cell_angle_gamma   59.49661769
_symmetry_Int_Tables_number   1
_chemical_formula_structural   LuTa3Pb4O13
_chemical_formula_sum   'Lu1 Ta3 Pb4 O13'
_cell_volume   307.79194196
_cell_formula_units_Z   1
loop_
 _symmetry_equiv_pos_site_id
 _symmetry_equiv_pos_as_xyz
  1  'x, y, z'
loop_
 _atom_site_type_symbol
 _atom_site_label
 _atom_site_symmetry_multiplicity
 _atom_site_fract_x
 _atom_site_fract_y
 _atom_site_fract_z
 _atom_site_occupancy
  Lu  Lu0  1  0.50111147  0.50111147  0.50111147  1
  Ta  Ta0  1  0.00252267  0.50133042  0.50133042  1
  Ta  Ta1  1  0.50133042  0.50133042  0.00252267  1
  Ta  Ta2  1  0.50133042  0.00252267  0.50133042  1
  Pb  Pb0  1  0.00535279  0.00535279  0.00535279  1
  Pb  Pb1  1  0.50397771  0.01440343  0.01440343  1
  Pb  Pb2  1  0.01440343  0.01440343  0.50397771  1
  Pb  Pb3  1  0.01440343  0.50397771  0.01440343  1
  O  O0  1  0.85553855  0.40999000  0.40999000  1
  O  O1  1  0.42490239  0.80393785  0.80393785  1
  O  O2  1  0.40999000  0.40999000  0.85553855  1
  O  O3  1  0.80393785  0.80393785  0.42490239  1
  O  O4  1  0.80393785  0.42490239  0.80393785  1
  O  O5  1  0.40999000  0.85553855  0.40999000  1
  O  O6  1  0.16174292  0.57023257  0.57023257  1
  O  O7  1  0.57241576  0.18591052  0.18591052  1
  O  O8  1  0.57023257  0.57023257  0.16174292  1
  O  O9  1  0.18591052  0.18591052  0.57241576  1
  O  O10  1  0.18591052  0.57241576  0.18591052  1
  O  O11  1  0.57023257  0.16174292  0.57023257  1
  O  O12  1  0.12583114  0.12583114  0.12583114  1
loop_
_geom_bond_atom_site_label_1
_geom_bond_atom_site_label_2
_geom_bond_distance
_geom_bond_site_symmetry_2
Lu0 O8 2.177865 1_555
Lu0 O11 2.177865 1_555
Lu0 O6 2.177865 1_555
Lu0 O2 2.219094 1_555
Lu0 O5 2.219094 1_555
Lu0 O0 2.219094 1_555
O0 Ta0 2.069803 1_655
O0 Pb3 2.455498 1_655
O0 Pb2 2.455499 1_655
O1 Ta2 1.980538 1_565
O1 Ta1 1.980538 1_556
O1 Pb0 2.708722 1_566
O2 Ta1 2.069803 1_556
O2 Pb1 2.455499 1_556
O2 Pb3 2.455499 1_556
O3 Ta0 1.980539 1_655
O3 Ta2 1.980539 1_565
O3 Pb0 2.708722 1_665
O4 Ta0 1.980538 1_655
O4 Ta1 1.980539 1_556
O4 Pb0 2.708722 1_656
O5 Ta2 2.069803 1_565
O5 Pb1 2.455498 1_565
O5 Pb2 2.455499 1_565
O6 Ta0 1.893403 1_555
O6 Pb3 2.815741 1_556
O6 Pb2 2.815741 1_565
O7 Ta2 2.011732 1_555
O7 Ta1 2.011732 1_555
O7 Pb1 2.604547 1_555
O7 Pb0 2.711394 1_655
O8 Ta1 1.893403 1_555
O8 Pb1 2.815741 1_565
O8 Pb3 2.815742 1_655
O9 Ta0 2.011732 1_555
O9 Ta2 2.011732 1_555
O9 Pb2 2.604547 1_555
O9 Pb0 2.711393 1_556
O10 Ta0 2.011732 1_555
O10 Ta1 2.011732 1_555
O10 Pb3 2.604547 1_555
O10 Pb0 2.711394 1_565
O11 Ta2 1.893403 1_555
O11 Pb1 2.815741 1_556
O11 Pb2 2.815742 1_655
O12 Pb0 2.253637 1_555
O12 Pb2 2.343399 1_555
O12 Pb3 2.343399 1_555
O12 Pb1 2.343399 1_555
