# generated using pymatgen
data_Y20Ag6OsRu
_symmetry_space_group_name_H-M   'P 1'
_cell_length_a   9.52427971
_cell_length_b   9.52440822
_cell_length_c   9.68787393
_cell_angle_alpha   90.00000000
_cell_angle_beta   90.00000000
_cell_angle_gamma   119.99985494
_symmetry_Int_Tables_number   1
_chemical_formula_structural   Y20Ag6OsRu
_chemical_formula_sum   'Y20 Ag6 Os1 Ru1'
_cell_volume   761.07926066
_cell_formula_units_Z   1
loop_
 _symmetry_equiv_pos_site_id
 _symmetry_equiv_pos_as_xyz
  1  'x, y, z'
loop_
 _atom_site_type_symbol
 _atom_site_label
 _atom_site_symmetry_multiplicity
 _atom_site_fract_x
 _atom_site_fract_y
 _atom_site_fract_z
 _atom_site_occupancy
  Y  Y0  1  0.00000244  0.99999780  0.49977927  1
  Y  Y1  1  0.00000244  0.99999780  0.00022073  1
  Y  Y2  1  0.20864776  0.79134462  0.44101453  1
  Y  Y3  1  0.20865675  0.41731719  0.44103114  1
  Y  Y4  1  0.58267938  0.79134009  0.44103773  1
  Y  Y5  1  0.79120493  0.20879562  0.55993371  1
  Y  Y6  1  0.79119867  0.58240670  0.55993653  1
  Y  Y7  1  0.41759515  0.20880046  0.55994125  1
  Y  Y8  1  0.79120493  0.20879562  0.94006629  1
  Y  Y9  1  0.79119867  0.58240670  0.94006347  1
  Y  Y10  1  0.41759515  0.20880046  0.94005875  1
  Y  Y11  1  0.20864776  0.79134462  0.05898547  1
  Y  Y12  1  0.20865675  0.41731719  0.05896886  1
  Y  Y13  1  0.58267938  0.79134009  0.05896227  1
  Y  Y14  1  0.53990716  0.46010163  0.25000000  1
  Y  Y15  1  0.53990281  0.07979893  0.25000000  1
  Y  Y16  1  0.92021053  0.46010435  0.25000000  1
  Y  Y17  1  0.45898653  0.54103003  0.75000000  1
  Y  Y18  1  0.45899051  0.91794651  0.75000000  1
  Y  Y19  1  0.08205522  0.54101847  0.75000000  1
  Ag  Ag0  1  0.88410258  0.11589829  0.25000000  1
  Ag  Ag1  1  0.88411846  0.76821564  0.25000000  1
  Ag  Ag2  1  0.23178735  0.11588463  0.25000000  1
  Ag  Ag3  1  0.11570285  0.88428896  0.75000000  1
  Ag  Ag4  1  0.11570782  0.23141208  0.75000000  1
  Ag  Ag5  1  0.76858406  0.88428979  0.75000000  1
  Os  Os0  1  0.33332034  0.66666480  0.25000000  1
  Ru  Ru0  1  0.66665863  0.33333593  0.75000000  1
loop_
_geom_bond_atom_site_label_1
_geom_bond_atom_site_label_2
_geom_bond_distance
_geom_bond_site_symmetry_2
Y0 Y2 3.488774 1_555
Y0 Y4 3.488922 1_455
Y0 Y3 3.488948 1_565
Y0 Y7 3.493386 1_565
Y0 Y5 3.493411 1_465
Y0 Y6 3.493411 1_455
Y1 Y11 3.488774 1_555
Y1 Y13 3.488922 1_455
Y1 Y12 3.488948 1_565
Y1 Y10 3.493386 1_564
Y1 Y8 3.493411 1_464
Y1 Y9 3.493411 1_454
Y10 Y17 3.508699 1_555
Y10 Y18 3.508839 1_545
Y10 Y14 3.648791 1_556
Y10 Y15 3.648819 1_556
Y11 Y16 3.501089 1_455
Y11 Y15 3.501206 1_565
Y11 Y19 3.636489 1_554
Y11 Y18 3.636551 1_554
Y12 Y16 3.501144 1_455
Y12 Y14 3.501287 1_555
Y12 Y19 3.636237 1_554
Y12 Y17 3.636358 1_554
Y13 Y15 3.501256 1_565
Y13 Y14 3.501301 1_555
Y13 Y18 3.636150 1_554
Y13 Y17 3.636230 1_554
Y14 Y3 3.501287 1_555
Y14 Y4 3.501301 1_555
Y14 Y16 3.622103 1_555
Y14 Y15 3.622137 1_555
Y14 Y6 3.648692 1_555
Y14 Y9 3.648692 1_554
Y14 Y7 3.648791 1_555
Y15 Y2 3.501206 1_545
Y15 Y4 3.501256 1_545
Y15 Y16 3.622178 1_555
Y15 Y5 3.648720 1_555
Y15 Y8 3.648720 1_554
Y15 Y7 3.648819 1_555
Y16 Y2 3.501089 1_655
Y16 Y3 3.501144 1_655
Y16 Y5 3.648767 1_555
Y16 Y8 3.648767 1_554
Y16 Y6 3.648805 1_555
Y16 Y9 3.648805 1_554
Y17 Y9 3.508592 1_555
Y17 Y6 3.508592 1_555
Y17 Y7 3.508699 1_555
Y17 Y18 3.589887 1_555
Y17 Y19 3.589944 1_555
Y17 Y4 3.636230 1_555
Y17 Y3 3.636358 1_555
Y18 Y8 3.508681 1_565
Y18 Y5 3.508681 1_565
Y18 Y7 3.508839 1_565
Y18 Y19 3.590035 1_555
Y18 Y4 3.636150 1_555
Y18 Y2 3.636551 1_555
Y19 Y8 3.508734 1_455
Y19 Y5 3.508734 1_455
Y19 Y9 3.508821 1_455
Y19 Y6 3.508821 1_455
Y19 Y3 3.636237 1_555
Y19 Y2 3.636489 1_555
Ag0 Y0 3.084020 1_645
Ag0 Y1 3.084020 1_645
Ag0 Y15 3.120582 1_555
Ag0 Y16 3.120653 1_555
Ag0 Ag2 3.311512 1_655
Ag0 Ag1 3.311547 1_545
Ag0 Y5 3.371074 1_555
Ag0 Y8 3.371074 1_554
Ag0 Y3 3.513941 1_655
Ag0 Y12 3.513941 1_655
Ag0 Y4 3.514013 1_545
Ag0 Y13 3.514013 1_545
Ag1 Y0 3.083938 1_655
Ag1 Y1 3.083938 1_655
Ag1 Y16 3.120684 1_555
Ag1 Y14 3.120723 1_555
Ag1 Ag2 3.311326 1_665
Ag1 Y6 3.371157 1_555
Ag1 Y9 3.371157 1_554
Ag1 Y2 3.513657 1_655
Ag1 Y11 3.513657 1_655
Ag1 Y4 3.514070 1_555
Ag1 Y13 3.514070 1_555
Ag2 Y0 3.083936 1_545
Ag2 Y1 3.083936 1_545
Ag2 Y15 3.120652 1_555
Ag2 Y14 3.120787 1_555
Ag2 Y7 3.371184 1_555
Ag2 Y10 3.371184 1_554
Ag2 Y2 3.513742 1_545
Ag2 Y11 3.513742 1_545
Ag2 Y3 3.514043 1_555
Ag2 Y12 3.514043 1_555
Ag3 Y1 3.085380 1_556
Ag3 Y0 3.085380 1_555
Ag3 Y19 3.121576 1_555
Ag3 Y18 3.121654 1_555
Ag3 Ag5 3.306060 1_455
Ag3 Ag4 3.306119 1_565
Ag3 Y11 3.363249 1_556
Ag3 Y2 3.363249 1_555
Ag3 Y9 3.510458 1_455
Ag3 Y6 3.510458 1_455
Ag3 Y10 3.510508 1_565
Ag3 Y7 3.510508 1_565
Ag4 Y1 3.085416 1_546
Ag4 Y0 3.085416 1_545
Ag4 Y19 3.121442 1_555
Ag4 Y17 3.121581 1_555
Ag4 Ag5 3.306126 1_445
Ag4 Y12 3.363172 1_556
Ag4 Y3 3.363172 1_555
Ag4 Y10 3.510409 1_555
Ag4 Y7 3.510409 1_555
Ag4 Y8 3.510461 1_455
Ag4 Y5 3.510461 1_455
Ag5 Y1 3.085421 1_656
Ag5 Y0 3.085421 1_655
Ag5 Y18 3.121305 1_555
Ag5 Y17 3.121404 1_555
Ag5 Y13 3.363104 1_556
Ag5 Y4 3.363104 1_555
Ag5 Y9 3.510444 1_555
Ag5 Y6 3.510444 1_555
Ag5 Y8 3.510505 1_565
Ag5 Y5 3.510505 1_565
Os0 Y2 2.766697 1_555
Os0 Y11 2.766697 1_555
Os0 Y3 2.766789 1_555
Os0 Y12 2.766789 1_555
Os0 Y4 2.766881 1_555
Os0 Y13 2.766881 1_555
Os0 Y16 3.407445 1_455
Os0 Y15 3.407692 1_565
Os0 Y14 3.407792 1_555
Ru0 Y10 2.758730 1_555
Ru0 Y7 2.758730 1_555
Ru0 Y9 2.758826 1_555
Ru0 Y6 2.758826 1_555
Ru0 Y8 2.758928 1_555
Ru0 Y5 2.758928 1_555
Ru0 Y17 3.426072 1_555
Ru0 Y18 3.426295 1_545
Ru0 Y19 3.426308 1_655
