# generated using pymatgen
data_SrY6RuI12
_symmetry_space_group_name_H-M   'P 1'
_cell_length_a   9.75153751
_cell_length_b   9.75153668
_cell_length_c   9.75153740
_cell_angle_alpha   106.39718485
_cell_angle_beta   106.39718200
_cell_angle_gamma   106.39717422
_symmetry_Int_Tables_number   1
_chemical_formula_structural   SrY6RuI12
_chemical_formula_sum   'Sr1 Y6 Ru1 I12'
_cell_volume   784.61551163
_cell_formula_units_Z   1
loop_
 _symmetry_equiv_pos_site_id
 _symmetry_equiv_pos_as_xyz
  1  'x, y, z'
loop_
 _atom_site_type_symbol
 _atom_site_label
 _atom_site_symmetry_multiplicity
 _atom_site_fract_x
 _atom_site_fract_y
 _atom_site_fract_z
 _atom_site_occupancy
  Sr  Sr0  1  0.50000000  0.50000000  0.50000000  1
  Y  Y0  1  0.70390656  0.98011841  0.90690846  1
  Y  Y1  1  0.98011841  0.90690846  0.70390656  1
  Y  Y2  1  0.09309154  0.29609344  0.01988159  1
  Y  Y3  1  0.29609344  0.01988159  0.09309154  1
  Y  Y4  1  0.90690846  0.70390656  0.98011841  1
  Y  Y5  1  0.01988159  0.09309154  0.29609344  1
  Ru  Ru0  1  0.00000000  0.00000000  0.00000000  1
  I  I0  1  0.07359289  0.22611500  0.67614970  1
  I  I1  1  0.36923399  0.13444092  0.45022403  1
  I  I2  1  0.63076601  0.86555908  0.54977597  1
  I  I3  1  0.22611500  0.67614970  0.07359289  1
  I  I4  1  0.77388500  0.32385030  0.92640711  1
  I  I5  1  0.67614970  0.07359289  0.22611500  1
  I  I6  1  0.54977597  0.63076601  0.86555908  1
  I  I7  1  0.86555908  0.54977597  0.63076601  1
  I  I8  1  0.92640711  0.77388500  0.32385030  1
  I  I9  1  0.32385030  0.92640711  0.77388500  1
  I  I10  1  0.45022403  0.36923399  0.13444092  1
  I  I11  1  0.13444092  0.45022403  0.36923399  1
loop_
_geom_bond_atom_site_label_1
_geom_bond_atom_site_label_2
_geom_bond_distance
_geom_bond_site_symmetry_2
Ru0 Y2 2.702458 1_555
Ru0 Y4 2.702458 1_444
Ru0 Y5 2.702458 1_555
Ru0 Y1 2.702458 1_444
Ru0 Y3 2.702458 1_555
Ru0 Y0 2.702458 1_444
I0 Y1 3.099424 1_445
I0 Y2 3.164278 1_556
I0 Y5 3.390960 1_555
I1 Y3 3.136296 1_555
I1 Y5 3.165247 1_555
I1 Sr0 3.267475 1_555
I2 Y0 3.136296 1_555
I2 Y1 3.165247 1_555
I2 Sr0 3.267475 1_555
I3 Y4 3.099424 1_454
I3 Y3 3.164278 1_565
I3 Y2 3.390960 1_555
I4 Y2 3.099424 1_656
I4 Y0 3.164278 1_545
I4 Y4 3.390960 1_555
I5 Y0 3.099424 1_544
I5 Y5 3.164278 1_655
I5 Y3 3.390961 1_555
I6 Y4 3.136296 1_555
I6 Y0 3.165246 1_555
I6 Sr0 3.267475 1_555
I7 Y1 3.136296 1_555
I7 Y4 3.165246 1_555
I7 Sr0 3.267475 1_555
I8 Y5 3.099424 1_665
I8 Y4 3.164278 1_554
I8 Y1 3.390960 1_555
I9 Y3 3.099424 1_566
I9 Y1 3.164278 1_455
I9 Y0 3.390961 1_555
I10 Y2 3.136296 1_555
I10 Y3 3.165246 1_555
I10 Sr0 3.267475 1_555
I11 Y5 3.136296 1_555
I11 Y2 3.165246 1_555
I11 Sr0 3.267475 1_555
