# generated using pymatgen
data_ZrNiBi
_symmetry_space_group_name_H-M   'P 1'
_cell_length_a   4.44903809
_cell_length_b   4.44903809
_cell_length_c   4.44903809
_cell_angle_alpha   60.00000000
_cell_angle_beta   60.00000000
_cell_angle_gamma   60.00000000
_symmetry_Int_Tables_number   1
_chemical_formula_structural   ZrNiBi
_chemical_formula_sum   'Zr1 Ni1 Bi1'
_cell_volume   62.27064621
_cell_formula_units_Z   1
loop_
 _symmetry_equiv_pos_site_id
 _symmetry_equiv_pos_as_xyz
  1  'x, y, z'
loop_
 _atom_site_type_symbol
 _atom_site_label
 _atom_site_symmetry_multiplicity
 _atom_site_fract_x
 _atom_site_fract_y
 _atom_site_fract_z
 _atom_site_occupancy
  Zr  Zr0  1  0.00000000  0.00000000  0.00000000  1
  Ni  Ni0  1  0.75000000  0.75000000  0.75000000  1
  Bi  Bi0  1  0.50000000  0.50000000  0.50000000  1
loop_
_geom_bond_atom_site_label_1
_geom_bond_atom_site_label_2
_geom_bond_distance
_geom_bond_site_symmetry_2
Ni0 Zr0 2.724468 1_566
Ni0 Zr0 2.724468 1_656
Ni0 Zr0 2.724468 1_665
Ni0 Zr0 2.724468 1_666
Bi0 Ni0 2.724468 1_554
Bi0 Ni0 2.724468 1_455
Bi0 Ni0 2.724468 1_545
Bi0 Ni0 2.724468 1_555
Bi0 Zr0 3.145945 1_655
Bi0 Zr0 3.145945 1_566
Bi0 Zr0 3.145945 1_656
Bi0 Zr0 3.145945 1_665
Bi0 Zr0 3.145945 1_565
Bi0 Zr0 3.145945 1_556
