# generated using pymatgen
data_BaCeO3
_symmetry_space_group_name_H-M   'P 1'
_cell_length_a   6.25973589
_cell_length_b   6.24763379
_cell_length_c   8.81258554
_cell_angle_alpha   90.00000000
_cell_angle_beta   90.00000000
_cell_angle_gamma   90.00000000
_symmetry_Int_Tables_number   1
_chemical_formula_structural   BaCeO3
_chemical_formula_sum   'Ba4 Ce4 O12'
_cell_volume   344.64733174
_cell_formula_units_Z   4
loop_
 _symmetry_equiv_pos_site_id
 _symmetry_equiv_pos_as_xyz
  1  'x, y, z'
loop_
 _atom_site_type_symbol
 _atom_site_label
 _atom_site_symmetry_multiplicity
 _atom_site_fract_x
 _atom_site_fract_y
 _atom_site_fract_z
 _atom_site_occupancy
  Ba  Ba0  1  0.49330306  0.97665352  0.25000000  1
  Ba  Ba1  1  0.00669694  0.47665352  0.25000000  1
  Ba  Ba2  1  0.50669694  0.02334648  0.75000000  1
  Ba  Ba3  1  0.99330306  0.52334648  0.75000000  1
  Ce  Ce0  1  0.50000000  0.50000000  0.00000000  1
  Ce  Ce1  1  0.00000000  -0.00000000  0.50000000  1
  Ce  Ce2  1  0.50000000  0.50000000  0.50000000  1
  Ce  Ce3  1  0.00000000  -0.00000000  0.00000000  1
  O  O0  1  0.57476848  0.51732174  0.25000000  1
  O  O1  1  0.92523152  0.01732174  0.25000000  1
  O  O2  1  0.42523152  0.48267826  0.75000000  1
  O  O3  1  0.07476848  0.98267826  0.75000000  1
  O  O4  1  0.22248562  0.72167761  0.04042627  1
  O  O5  1  0.27751438  0.22167761  0.45957373  1
  O  O6  1  0.77751438  0.27832239  0.54042627  1
  O  O7  1  0.72248562  0.77832239  0.95957373  1
  O  O8  1  0.77751438  0.27832239  0.95957373  1
  O  O9  1  0.72248562  0.77832239  0.54042627  1
  O  O10  1  0.22248562  0.72167761  0.45957373  1
  O  O11  1  0.27751438  0.22167761  0.04042627  1
loop_
_geom_bond_atom_site_label_1
_geom_bond_atom_site_label_2
_geom_bond_distance
_geom_bond_site_symmetry_2
Ba0 O1 2.715670 1_565
Ba0 O11 2.753000 1_565
Ba0 O5 2.753000 1_565
Ba0 O0 2.914694 1_555
Ba0 O10 2.970267 1_555
Ba0 O4 2.970267 1_555
Ba0 O7 3.184976 1_554
Ba0 O9 3.184976 1_555
Ba0 O0 3.416173 1_565
Ba1 O0 2.715670 1_455
Ba1 O4 2.753000 1_555
Ba1 O10 2.753000 1_555
Ba1 O1 2.914694 1_455
Ba1 O11 2.970267 1_555
Ba1 O5 2.970267 1_555
Ba1 O8 3.184976 1_454
Ba1 O6 3.184976 1_455
Ba1 O1 3.416173 1_465
Ba2 O3 2.715670 1_545
Ba2 O9 2.753000 1_545
Ba2 O7 2.753000 1_545
Ba2 O2 2.914694 1_555
Ba2 O6 2.970267 1_555
Ba2 O8 2.970267 1_555
Ba2 O11 3.184976 1_556
Ba2 O5 3.184976 1_555
Ba2 O2 3.416173 1_545
Ba3 O2 2.715670 1_655
Ba3 O8 2.753000 1_555
Ba3 O6 2.753000 1_555
Ba3 O3 2.914694 1_655
Ba3 O9 2.970267 1_555
Ba3 O7 2.970267 1_555
Ba3 O10 3.184976 1_655
Ba3 O4 3.184976 1_656
Ba3 O3 3.416173 1_645
Ce0 O4 2.250063 1_555
Ce0 O8 2.250063 1_554
Ce0 O0 2.254910 1_555
Ce0 O2 2.254910 1_554
Ce0 O11 2.256138 1_555
Ce0 O7 2.256138 1_554
Ce1 O9 2.250063 1_445
Ce1 O5 2.250063 1_555
Ce1 O3 2.254910 1_545
Ce1 O1 2.254910 1_455
Ce1 O10 2.256138 1_545
Ce1 O6 2.256138 1_455
Ce2 O10 2.250063 1_555
Ce2 O6 2.250063 1_555
Ce2 O0 2.254910 1_555
Ce2 O2 2.254910 1_555
Ce2 O5 2.256138 1_555
Ce2 O9 2.256138 1_555
Ce3 O7 2.250063 1_444
Ce3 O11 2.250063 1_555
Ce3 O3 2.254910 1_544
Ce3 O1 2.254910 1_455
Ce3 O4 2.256138 1_545
Ce3 O8 2.256138 1_454
