# generated using pymatgen
data_Rb2ZnSn3O8
_symmetry_space_group_name_H-M   'P 1'
_cell_length_a   7.75135395
_cell_length_b   7.75135386
_cell_length_c   7.75135292
_cell_angle_alpha   48.15956546
_cell_angle_beta   48.15956216
_cell_angle_gamma   48.15956709
_symmetry_Int_Tables_number   1
_chemical_formula_structural   Rb2ZnSn3O8
_chemical_formula_sum   'Rb2 Zn1 Sn3 O8'
_cell_volume   236.89832534
_cell_formula_units_Z   1
loop_
 _symmetry_equiv_pos_site_id
 _symmetry_equiv_pos_as_xyz
  1  'x, y, z'
loop_
 _atom_site_type_symbol
 _atom_site_label
 _atom_site_symmetry_multiplicity
 _atom_site_fract_x
 _atom_site_fract_y
 _atom_site_fract_z
 _atom_site_occupancy
  Rb  Rb0  1  0.61668609  0.61668609  0.61668609  1
  Rb  Rb1  1  0.26344317  0.26344317  0.26344317  1
  Zn  Zn0  1  0.09949571  0.09949571  0.09949571  1
  Sn  Sn0  1  0.61672282  0.11607010  0.61672282  1
  Sn  Sn1  1  0.11607010  0.61672282  0.61672282  1
  Sn  Sn2  1  0.61672282  0.61672282  0.11607010  1
  O  O0  1  0.83624147  0.83624147  0.83624147  1
  O  O1  1  0.88884874  0.41248906  0.88884874  1
  O  O2  1  0.41248906  0.88884874  0.88884874  1
  O  O3  1  0.88884874  0.88884874  0.41248906  1
  O  O4  1  0.39630025  0.39630025  0.39630025  1
  O  O5  1  0.33813803  0.82185596  0.33813803  1
  O  O6  1  0.82185596  0.33813803  0.33813803  1
  O  O7  1  0.33813803  0.33813803  0.82185596  1
loop_
_geom_bond_atom_site_label_1
_geom_bond_atom_site_label_2
_geom_bond_distance
_geom_bond_site_symmetry_2
O0 Sn1 2.123740 1_655
O0 Sn2 2.123740 1_556
O0 Sn0 2.123740 1_565
O1 Zn0 2.050628 1_656
O1 Sn2 2.089505 1_556
O1 Sn1 2.089505 1_655
O1 Rb0 2.904186 1_555
O2 Zn0 2.050627 1_566
O2 Sn0 2.089505 1_565
O2 Sn2 2.089505 1_556
O2 Rb0 2.904186 1_555
O3 Zn0 2.050627 1_665
O3 Sn0 2.089505 1_565
O3 Sn1 2.089505 1_655
O3 Rb0 2.904186 1_555
O4 Sn1 2.132770 1_555
O4 Sn2 2.132770 1_555
O4 Sn0 2.132770 1_555
O4 Rb1 2.725111 1_555
O5 Sn2 2.065432 1_555
O5 Sn1 2.065432 1_555
O5 Zn0 2.327656 1_565
O5 Rb1 2.746995 1_565
O5 Rb0 2.984995 1_555
O6 Sn0 2.065432 1_555
O6 Sn2 2.065432 1_555
O6 Zn0 2.327656 1_655
O6 Rb1 2.746995 1_655
O6 Rb0 2.984994 1_555
O7 Sn0 2.065432 1_555
O7 Sn1 2.065432 1_555
O7 Zn0 2.327656 1_556
O7 Rb1 2.746994 1_556
O7 Rb0 2.984995 1_555
