# generated using pymatgen
data_KRb2GaTe3
_symmetry_space_group_name_H-M   'P 1'
_cell_length_a   14.13022148
_cell_length_b   8.83802403
_cell_length_c   11.50025788
_cell_angle_alpha   53.08338318
_cell_angle_beta   90.00000000
_cell_angle_gamma   90.00000000
_symmetry_Int_Tables_number   1
_chemical_formula_structural   KRb2GaTe3
_chemical_formula_sum   'K4 Rb8 Ga4 Te12'
_cell_volume   1148.24851779
_cell_formula_units_Z   4
loop_
 _symmetry_equiv_pos_site_id
 _symmetry_equiv_pos_as_xyz
  1  'x, y, z'
loop_
 _atom_site_type_symbol
 _atom_site_label
 _atom_site_symmetry_multiplicity
 _atom_site_fract_x
 _atom_site_fract_y
 _atom_site_fract_z
 _atom_site_occupancy
  K  K0  1  0.61354871  0.35381173  0.47958083  1
  K  K1  1  0.11354871  0.64618827  0.02041917  1
  K  K2  1  0.38645129  0.64618827  0.52041917  1
  K  K3  1  0.88645129  0.35381173  0.97958083  1
  Rb  Rb0  1  0.90473839  0.32647710  0.40175390  1
  Rb  Rb1  1  0.40473839  0.67352290  0.09824610  1
  Rb  Rb2  1  0.09526161  0.67352290  0.59824610  1
  Rb  Rb3  1  0.59526161  0.32647710  0.90175390  1
  Rb  Rb4  1  0.19259020  0.14164803  0.57817390  1
  Rb  Rb5  1  0.69259020  0.85835197  0.92182610  1
  Rb  Rb6  1  0.80740980  0.85835197  0.42182610  1
  Rb  Rb7  1  0.30740980  0.14164803  0.07817390  1
  Ga  Ga0  1  0.93394349  0.05734676  0.84041671  1
  Ga  Ga1  1  0.43394349  0.94265324  0.65958329  1
  Ga  Ga2  1  0.06605651  0.94265324  0.15958329  1
  Ga  Ga3  1  0.56605651  0.05734676  0.34041671  1
  Te  Te0  1  0.39637326  0.16336101  0.36979496  1
  Te  Te1  1  0.89637326  0.83663899  0.13020504  1
  Te  Te2  1  0.60362674  0.83663899  0.63020504  1
  Te  Te3  1  0.10362674  0.16336101  0.86979496  1
  Te  Te4  1  0.68746170  0.33751802  0.19662521  1
  Te  Te5  1  0.18746170  0.66248198  0.30337479  1
  Te  Te6  1  0.31253830  0.66248198  0.80337479  1
  Te  Te7  1  0.81253830  0.33751802  0.69662521  1
  Te  Te8  1  0.55855252  0.85449489  0.24521762  1
  Te  Te9  1  0.05855252  0.14550511  0.25478238  1
  Te  Te10  1  0.44144748  0.14550511  0.75478238  1
  Te  Te11  1  0.94144748  0.85449489  0.74521762  1
loop_
_geom_bond_atom_site_label_1
_geom_bond_atom_site_label_2
_geom_bond_distance
_geom_bond_site_symmetry_2
K0 Te4 3.501910 1_555
K0 Te10 3.510003 1_555
K0 Te8 3.622408 1_555
K0 Te7 3.704769 1_555
K0 Te2 3.794848 1_545
K0 Te0 4.049367 1_555
K1 Te5 3.501910 1_555
K1 Te11 3.510003 1_454
K1 Te9 3.622408 1_555
K1 Te6 3.704769 1_554
K1 Te3 3.794848 1_564
K1 Te1 4.049367 1_455
K2 Te6 3.501910 1_555
K2 Te8 3.510003 1_555
K2 Te10 3.622408 1_555
K2 Te5 3.704769 1_555
K2 Te0 3.794848 1_565
K2 Te2 4.049367 1_555
K3 Te7 3.501910 1_555
K3 Te9 3.510003 1_656
K3 Te11 3.622408 1_555
K3 Te4 3.704769 1_556
K3 Te1 3.794848 1_546
K3 Te3 4.049367 1_655
Rb0 Te1 3.630545 1_555
Rb0 Te9 3.658739 1_655
Rb0 Te11 3.671232 1_545
Rb0 Te7 3.688344 1_555
Rb0 Te4 3.837181 1_555
Rb1 Te0 3.630545 1_555
Rb1 Te8 3.658739 1_555
Rb1 Te10 3.671232 1_564
Rb1 Te6 3.688344 1_554
Rb1 Te5 3.837181 1_555
Rb2 Te3 3.630545 1_555
Rb2 Te11 3.658739 1_455
Rb2 Te9 3.671232 1_565
Rb2 Te5 3.688344 1_555
Rb2 Te6 3.837181 1_555
Rb3 Te2 3.630545 1_555
Rb3 Te10 3.658739 1_555
Rb3 Te8 3.671232 1_546
Rb3 Te4 3.688344 1_556
Rb3 Te7 3.837181 1_555
Rb4 Te0 3.676777 1_555
Rb4 Te3 3.692914 1_555
Rb4 Te5 3.702147 1_555
Rb4 Te6 3.786641 1_545
Rb4 Te10 4.071191 1_555
Rb4 Te11 4.107029 1_445
Rb4 Te9 4.155434 1_555
Rb5 Te1 3.676777 1_556
Rb5 Te2 3.692914 1_555
Rb5 Te4 3.702147 1_556
Rb5 Te7 3.786641 1_565
Rb5 Te11 4.071191 1_555
Rb5 Te10 4.107029 1_565
Rb5 Te8 4.155434 1_556
Rb6 Te2 3.676777 1_555
Rb6 Te1 3.692914 1_555
Rb6 Te7 3.702147 1_555
Rb6 Te4 3.786641 1_565
Rb6 Te8 4.071191 1_555
Rb6 Te9 4.107029 1_665
Rb6 Te11 4.155434 1_555
Rb7 Te3 3.676777 1_554
Rb7 Te0 3.692914 1_555
Rb7 Te6 3.702147 1_554
Rb7 Te5 3.786641 1_545
Rb7 Te9 4.071191 1_555
Rb7 Te8 4.107029 1_545
Rb7 Te10 4.155434 1_554
Ga0 Te11 2.604216 1_545
Ga0 Te7 2.624847 1_555
Ga0 Te3 2.668539 1_655
Ga0 Te1 2.717334 1_546
Ga0 Rb5 3.690834 1_545
Ga1 Te10 2.604216 1_565
Ga1 Te6 2.624847 1_555
Ga1 Te2 2.668539 1_555
Ga1 Te0 2.717334 1_565
Ga1 Rb4 3.690834 1_565
Ga2 Te9 2.604216 1_565
Ga2 Te5 2.624847 1_555
Ga2 Te1 2.668539 1_455
Ga2 Te3 2.717334 1_564
Ga2 Rb7 3.690834 1_565
Ga3 Te8 2.604216 1_545
Ga3 Te4 2.624847 1_555
Ga3 Te0 2.668539 1_555
Ga3 Te2 2.717334 1_545
Ga3 Rb6 3.690834 1_545
