# generated using pymatgen
data_Ni8Mo13P3N4
_symmetry_space_group_name_H-M   'P 1'
_cell_length_a   7.80989507
_cell_length_b   7.80989515
_cell_length_c   7.80989440
_cell_angle_alpha   59.38689753
_cell_angle_beta   59.38689552
_cell_angle_gamma   59.38689546
_symmetry_Int_Tables_number   1
_chemical_formula_structural   Ni8Mo13P3N4
_chemical_formula_sum   'Ni8 Mo13 P3 N4'
_cell_volume   332.13765357
_cell_formula_units_Z   1
loop_
 _symmetry_equiv_pos_site_id
 _symmetry_equiv_pos_as_xyz
  1  'x, y, z'
loop_
 _atom_site_type_symbol
 _atom_site_label
 _atom_site_symmetry_multiplicity
 _atom_site_fract_x
 _atom_site_fract_y
 _atom_site_fract_z
 _atom_site_occupancy
  Ni  Ni0  1  0.00928938  0.33880922  0.33880922  1
  Ni  Ni1  1  0.91607852  0.91607852  0.91607852  1
  Ni  Ni2  1  0.33880922  0.33880922  0.00928938  1
  Ni  Ni3  1  0.91119078  0.91119078  0.24071062  1
  Ni  Ni4  1  0.24071062  0.91119078  0.91119078  1
  Ni  Ni5  1  0.33880922  0.00928938  0.33880922  1
  Ni  Ni6  1  0.91119078  0.24071062  0.91119078  1
  Ni  Ni7  1  0.33392148  0.33392148  0.33392148  1
  Mo  Mo0  1  0.30833288  0.69113250  0.69113250  1
  Mo  Mo1  1  0.55886750  0.55886750  0.94166712  1
  Mo  Mo2  1  0.30327055  0.69819499  0.30327055  1
  Mo  Mo3  1  0.30327055  0.30327055  0.69819499  1
  Mo  Mo4  1  0.69819499  0.30327055  0.30327055  1
  Mo  Mo5  1  0.94672945  0.94672945  0.55180501  1
  Mo  Mo6  1  0.94672945  0.55180501  0.94672945  1
  Mo  Mo7  1  0.94166712  0.55886750  0.55886750  1
  Mo  Mo8  1  0.55180501  0.94672945  0.94672945  1
  Mo  Mo9  1  0.12500000  0.12500000  0.12500000  1
  Mo  Mo10  1  0.69113250  0.69113250  0.30833288  1
  Mo  Mo11  1  0.69113250  0.30833288  0.69113250  1
  Mo  Mo12  1  0.55886750  0.94166712  0.55886750  1
  P  P0  1  0.12500000  0.12500000  0.62500000  1
  P  P1  1  0.62500000  0.12500000  0.12500000  1
  P  P2  1  0.12500000  0.62500000  0.12500000  1
  N  N0  1  0.62500000  0.12500000  0.62500000  1
  N  N1  1  0.62500000  0.62500000  0.12500000  1
  N  N2  1  0.12500000  0.62500000  0.62500000  1
  N  N3  1  0.62500000  0.62500000  0.62500000  1
loop_
_geom_bond_atom_site_label_1
_geom_bond_atom_site_label_2
_geom_bond_distance
_geom_bond_site_symmetry_2
Ni0 P0 2.306469 1_555
Ni0 P2 2.306469 1_555
Ni0 Ni7 2.497043 1_555
Ni0 Ni2 2.549630 1_555
Ni0 Ni5 2.549630 1_555
Ni1 P1 2.376640 1_566
Ni1 P2 2.376640 1_656
Ni1 P0 2.376640 1_665
Ni1 Ni3 2.497042 1_556
Ni1 Ni4 2.497043 1_655
Ni1 Ni6 2.497043 1_565
Ni2 P2 2.306469 1_555
Ni2 P1 2.306469 1_555
Ni2 Ni7 2.497042 1_555
Ni2 Ni5 2.549630 1_555
Ni3 P2 2.306469 1_655
Ni3 P1 2.306469 1_565
Ni3 Ni4 2.549630 1_654
Ni3 Ni6 2.549630 1_564
Ni4 P0 2.306469 1_565
Ni4 P2 2.306469 1_556
Ni4 Ni6 2.549630 1_465
Ni5 P0 2.306469 1_555
Ni5 P1 2.306469 1_555
Ni5 Ni7 2.497043 1_555
Ni6 P0 2.306469 1_655
Ni6 P1 2.306469 1_556
Ni7 P1 2.376640 1_555
Ni7 P2 2.376640 1_555
Ni7 P0 2.376640 1_555
Mo0 N3 2.078394 1_555
Mo0 N2 2.088454 1_555
Mo0 Ni5 2.602683 1_565
Mo0 Ni2 2.602683 1_556
Mo0 Ni4 2.710302 1_555
Mo0 Ni1 2.781768 1_455
Mo1 N3 2.078394 1_555
Mo1 N1 2.088454 1_556
Mo1 Ni6 2.602683 1_555
Mo1 Ni4 2.602683 1_555
Mo1 Ni2 2.710302 1_556
Mo1 Ni7 2.781768 1_556
Mo2 N2 2.088890 1_555
Mo2 N1 2.088890 1_555
Mo2 Ni7 2.622866 1_555
Mo2 Ni5 2.740287 1_565
Mo2 Ni4 2.808997 1_554
Mo2 Ni3 2.808997 1_455
Mo3 N0 2.088890 1_555
Mo3 N2 2.088890 1_555
Mo3 Ni7 2.622866 1_555
Mo3 Ni2 2.740287 1_556
Mo3 Ni6 2.808997 1_455
Mo3 Ni4 2.808997 1_545
Mo4 N0 2.088890 1_555
Mo4 N1 2.088890 1_555
Mo4 Ni7 2.622866 1_555
Mo4 Ni0 2.740287 1_655
Mo4 Ni6 2.808997 1_554
Mo4 Ni3 2.808997 1_545
Mo5 N0 2.088890 1_565
Mo5 N2 2.088890 1_655
Mo5 Ni1 2.622866 1_555
Mo5 Ni3 2.740287 1_555
Mo5 Ni5 2.808997 1_665
Mo5 Ni0 2.808997 1_665
Mo6 N2 2.088890 1_655
Mo6 N1 2.088890 1_556
Mo6 Ni1 2.622866 1_555
Mo6 Ni6 2.740287 1_555
Mo6 Ni0 2.808997 1_656
Mo6 Ni2 2.808997 1_656
Mo7 N3 2.078394 1_555
Mo7 N2 2.088454 1_655
Mo7 Ni6 2.602683 1_555
Mo7 Ni3 2.602683 1_555
Mo7 Ni0 2.710302 1_655
Mo7 Ni7 2.781768 1_655
Mo8 N0 2.088890 1_565
Mo8 N1 2.088890 1_556
Mo8 Ni1 2.622866 1_555
Mo8 Ni4 2.740287 1_555
Mo8 Ni5 2.808997 1_566
Mo8 Ni2 2.808997 1_566
Mo9 Ni0 2.481809 1_555
Mo9 Ni4 2.481809 1_544
Mo9 Ni5 2.481809 1_555
Mo9 Ni6 2.481809 1_454
Mo9 Ni2 2.481809 1_555
Mo9 Ni3 2.481809 1_445
Mo10 N3 2.078394 1_555
Mo10 N1 2.088454 1_555
Mo10 Ni5 2.602683 1_565
Mo10 Ni0 2.602683 1_655
Mo10 Ni3 2.710302 1_555
Mo10 Ni1 2.781768 1_554
Mo11 N3 2.078394 1_555
Mo11 N0 2.088454 1_555
Mo11 Ni0 2.602683 1_655
Mo11 Ni2 2.602683 1_556
Mo11 Ni6 2.710302 1_555
Mo11 Ni1 2.781768 1_545
Mo12 N3 2.078394 1_555
Mo12 N0 2.088454 1_565
Mo12 Ni4 2.602683 1_555
Mo12 Ni3 2.602683 1_555
Mo12 Ni5 2.710302 1_565
Mo12 Ni7 2.781768 1_565
