# generated using pymatgen
data_Sc7Ti6Al9Rh8
_symmetry_space_group_name_H-M   'P 1'
_cell_length_a   8.88593631
_cell_length_b   8.88593602
_cell_length_c   8.88593344
_cell_angle_alpha   59.85491306
_cell_angle_beta   59.85491258
_cell_angle_gamma   59.85452278
_symmetry_Int_Tables_number   1
_chemical_formula_structural   Sc7Ti6Al9Rh8
_chemical_formula_sum   'Sc7 Ti6 Al9 Rh8'
_cell_volume   494.49383870
_cell_formula_units_Z   1
loop_
 _symmetry_equiv_pos_site_id
 _symmetry_equiv_pos_as_xyz
  1  'x, y, z'
loop_
 _atom_site_type_symbol
 _atom_site_label
 _atom_site_symmetry_multiplicity
 _atom_site_fract_x
 _atom_site_fract_y
 _atom_site_fract_z
 _atom_site_occupancy
  Sc  Sc0  1  0.20936530  0.20936530  0.79527850  1
  Sc  Sc1  1  0.79527642  0.20936736  0.20936629  1
  Sc  Sc2  1  0.20936736  0.79527642  0.20936629  1
  Sc  Sc3  1  0.79454959  0.79454959  0.19515507  1
  Sc  Sc4  1  0.19515965  0.79454750  0.79454611  1
  Sc  Sc5  1  0.79454750  0.19515965  0.79454611  1
  Sc  Sc6  1  0.38118100  0.38118100  0.38118050  1
  Ti  Ti0  1  0.38135401  0.86105441  0.38135671  1
  Ti  Ti1  1  0.86105441  0.38135401  0.38135671  1
  Ti  Ti2  1  0.38135685  0.38135685  0.86105263  1
  Ti  Ti3  1  0.83526411  0.49125476  0.83526822  1
  Ti  Ti4  1  0.49125476  0.83526411  0.83526822  1
  Ti  Ti5  1  0.83526808  0.83526808  0.49125246  1
  Al  Al0  1  0.16957403  0.16957403  0.16958653  1
  Al  Al1  1  0.16478857  0.50497636  0.16478879  1
  Al  Al2  1  0.50497636  0.16478857  0.16478879  1
  Al  Al3  1  0.16478865  0.16478865  0.50497588  1
  Al  Al4  1  0.61851880  0.61851880  0.61851817  1
  Al  Al5  1  0.62034326  0.14320383  0.62034407  1
  Al  Al6  1  0.14320383  0.62034326  0.62034407  1
  Al  Al7  1  0.62034423  0.62034423  0.14320320  1
  Al  Al8  1  0.82558250  0.82558250  0.82558236  1
  Rh  Rh0  1  0.00122754  0.00122754  0.49535562  1
  Rh  Rh1  1  0.49535628  0.00122684  0.00122654  1
  Rh  Rh2  1  0.00122684  0.49535628  0.00122654  1
  Rh  Rh3  1  0.50325770  0.50325770  0.99166386  1
  Rh  Rh4  1  0.99166674  0.50325549  0.50325554  1
  Rh  Rh5  1  0.50325549  0.99166674  0.50325554  1
  Rh  Rh6  1  0.50378052  0.50378052  0.50378200  1
  Rh  Rh7  1  0.00310763  0.00310763  0.00310667  1
loop_
_geom_bond_atom_site_label_1
_geom_bond_atom_site_label_2
_geom_bond_distance
_geom_bond_site_symmetry_2
Sc0 Ti4 2.965697 1_545
Sc0 Ti3 2.965697 1_455
Sc0 Ti2 3.025447 1_555
Sc0 Sc6 3.042677 1_555
Sc1 Ti5 2.965690 1_545
Sc1 Ti3 2.965691 1_554
Sc1 Ti1 3.025422 1_555
Sc1 Sc6 3.042642 1_555
Sc2 Ti5 2.965690 1_455
Sc2 Ti4 2.965691 1_554
Sc2 Ti0 3.025422 1_555
Sc2 Sc6 3.042642 1_555
Sc3 Ti5 3.037819 1_555
Sc3 Ti1 3.044480 1_555
Sc3 Ti0 3.044480 1_555
Sc4 Ti4 3.037810 1_555
Sc4 Ti2 3.044432 1_555
Sc4 Ti0 3.044434 1_555
Sc5 Ti3 3.037810 1_555
Sc5 Ti2 3.044432 1_555
Sc5 Ti1 3.044434 1_555
Ti3 Ti4 3.050121 1_555
Ti3 Ti5 3.050184 1_555
Ti4 Ti5 3.050185 1_555
Al0 Rh0 2.530648 1_555
Al0 Rh2 2.530737 1_555
Al0 Rh1 2.530737 1_555
Al0 Ti1 2.791371 1_455
Al0 Ti0 2.791371 1_545
Al0 Ti2 2.791500 1_554
Al0 Al3 2.938153 1_555
Al0 Al1 2.938215 1_555
Al0 Al2 2.938215 1_555
Al0 Sc2 3.012579 1_545
Al0 Sc1 3.012579 1_455
Al0 Sc0 3.012640 1_554
Al1 Rh2 2.569682 1_555
Al1 Rh4 2.596690 1_455
Al1 Rh3 2.596714 1_554
Al1 Ti2 2.798631 1_554
Al1 Ti1 2.798641 1_455
Al1 Sc6 2.840656 1_555
Al1 Sc3 2.969937 1_455
Al1 Sc4 2.969967 1_554
Al1 Al2 3.016238 1_555
Al1 Al3 3.016251 1_555
Al1 Sc2 3.029572 1_555
Al2 Rh1 2.569682 1_555
Al2 Rh5 2.596690 1_545
Al2 Rh3 2.596714 1_554
Al2 Ti2 2.798631 1_554
Al2 Ti0 2.798641 1_545
Al2 Sc6 2.840656 1_555
Al2 Sc3 2.969937 1_545
Al2 Sc5 2.969967 1_554
Al2 Al3 3.016252 1_555
Al2 Sc1 3.029572 1_555
Al3 Rh0 2.569674 1_555
Al3 Rh4 2.596682 1_455
Al3 Rh5 2.596682 1_545
Al3 Ti0 2.798609 1_545
Al3 Ti1 2.798609 1_455
Al3 Sc6 2.840672 1_555
Al3 Sc4 2.969953 1_545
Al3 Sc5 2.969953 1_455
Al3 Sc0 3.029575 1_555
Al4 Rh6 2.500116 1_555
Al4 Rh3 2.706290 1_555
Al4 Rh5 2.706296 1_555
Al4 Rh4 2.706296 1_555
Al4 Ti4 2.836969 1_555
Al4 Ti3 2.836969 1_555
Al4 Ti5 2.837001 1_555
Al4 Ti1 2.977295 1_555
Al4 Ti0 2.977295 1_555
Al4 Ti2 2.977298 1_555
Al4 Sc5 3.111679 1_555
Al4 Sc4 3.111679 1_555
Al4 Sc3 3.111725 1_555
Al5 Rh6 2.612030 1_555
Al5 Al8 2.760198 1_545
Al5 Rh1 2.761030 1_556
Al5 Rh0 2.761031 1_655
Al5 Rh5 2.807092 1_545
Al5 Ti5 2.855518 1_545
Al5 Ti4 2.855549 1_545
Al5 Sc5 2.974517 1_555
Al5 Sc6 3.002214 1_555
Al5 Ti2 3.005562 1_555
Al5 Ti1 3.005579 1_555
Al5 Sc0 3.026274 1_555
Al5 Sc1 3.026275 1_555
Al6 Rh6 2.612030 1_555
Al6 Al8 2.760198 1_455
Al6 Rh2 2.761030 1_556
Al6 Rh0 2.761031 1_565
Al6 Rh4 2.807092 1_455
Al6 Ti5 2.855518 1_455
Al6 Ti3 2.855549 1_455
Al6 Sc4 2.974517 1_555
Al6 Sc6 3.002214 1_555
Al6 Ti2 3.005562 1_555
Al6 Ti0 3.005579 1_555
Al6 Sc0 3.026274 1_555
Al6 Sc2 3.026275 1_555
Al7 Rh6 2.612054 1_555
Al7 Al8 2.760210 1_554
Al7 Rh1 2.761020 1_565
Al7 Rh2 2.761020 1_655
Al7 Rh3 2.807086 1_554
Al7 Ti3 2.855508 1_554
Al7 Ti4 2.855508 1_554
Al7 Sc3 2.974530 1_555
Al7 Sc6 3.002237 1_555
Al7 Ti0 3.005575 1_555
Al7 Ti1 3.005575 1_555
Al7 Sc1 3.026257 1_555
Al7 Sc2 3.026257 1_555
Al8 Rh2 2.594077 1_656
Al8 Rh1 2.594077 1_566
Al8 Rh0 2.594100 1_665
Al8 Ti3 2.886948 1_555
Al8 Ti4 2.886949 1_555
Al8 Ti5 2.886952 1_555
Al8 Sc3 3.032161 1_556
Al8 Sc5 3.032179 1_565
Al8 Sc4 3.032180 1_655
Rh0 Ti5 2.577433 1_445
Rh0 Ti1 2.755334 1_455
Rh0 Ti0 2.755334 1_545
Rh0 Sc2 3.127095 1_545
Rh0 Sc1 3.127095 1_455
Rh0 Sc5 3.151094 1_455
Rh0 Sc4 3.151094 1_545
Rh1 Ti4 2.577435 1_544
Rh1 Ti2 2.755361 1_554
Rh1 Ti0 2.755371 1_545
Rh1 Sc0 3.127087 1_554
Rh1 Sc2 3.127103 1_545
Rh1 Sc3 3.151093 1_545
Rh1 Sc5 3.151118 1_554
Rh2 Ti3 2.577435 1_454
Rh2 Ti2 2.755361 1_554
Rh2 Ti1 2.755371 1_455
Rh2 Sc0 3.127087 1_554
Rh2 Sc1 3.127103 1_455
Rh2 Sc3 3.151093 1_455
Rh2 Sc4 3.151118 1_554
Rh3 Ti4 2.522148 1_555
Rh3 Ti3 2.522148 1_555
Rh3 Ti2 2.719834 1_555
Rh3 Sc6 2.823690 1_556
Rh4 Ti5 2.522187 1_555
Rh4 Ti3 2.522202 1_555
Rh4 Ti1 2.719833 1_555
Rh4 Sc6 2.823664 1_655
Rh5 Ti5 2.522187 1_555
Rh5 Ti4 2.522202 1_555
Rh5 Ti0 2.719833 1_555
Rh5 Sc6 2.823664 1_565
Rh6 Ti2 2.587786 1_555
Rh6 Ti0 2.587800 1_555
Rh6 Ti1 2.587800 1_555
Rh6 Sc6 2.671441 1_555
Rh7 Sc0 2.589120 1_554
Rh7 Sc1 2.589130 1_455
Rh7 Sc2 2.589130 1_545
Rh7 Sc3 2.622564 1_445
Rh7 Sc4 2.622577 1_544
Rh7 Sc5 2.622577 1_454
