# generated using pymatgen
data_BaMg2(CoH6)2
_symmetry_space_group_name_H-M   'P 1'
_cell_length_a   4.63467963
_cell_length_b   4.63468104
_cell_length_c   8.00390071
_cell_angle_alpha   90.00000000
_cell_angle_beta   90.00000000
_cell_angle_gamma   119.99998284
_symmetry_Int_Tables_number   1
_chemical_formula_structural   BaMg2(CoH6)2
_chemical_formula_sum   'Ba1 Mg2 Co2 H12'
_cell_volume   148.89220786
_cell_formula_units_Z   1
loop_
 _symmetry_equiv_pos_site_id
 _symmetry_equiv_pos_as_xyz
  1  'x, y, z'
loop_
 _atom_site_type_symbol
 _atom_site_label
 _atom_site_symmetry_multiplicity
 _atom_site_fract_x
 _atom_site_fract_y
 _atom_site_fract_z
 _atom_site_occupancy
  Ba  Ba0  1  0.00000000  0.00000000  0.00000000  1
  Mg  Mg0  1  0.66666700  0.33333300  0.37705468  1
  Mg  Mg1  1  0.33333300  0.66666700  0.62294532  1
  Co  Co0  1  0.66666700  0.33333300  0.71400595  1
  Co  Co1  1  0.33333300  0.66666700  0.28599405  1
  H  H0  1  0.17720489  0.82279511  0.38966147  1
  H  H1  1  0.64558922  0.82279511  0.38966147  1
  H  H2  1  0.17720489  0.35441078  0.38966147  1
  H  H3  1  0.82279511  0.17720489  0.61033853  1
  H  H4  1  0.35441078  0.17720489  0.61033853  1
  H  H5  1  0.82279511  0.64558922  0.61033853  1
  H  H6  1  0.51134245  0.02268491  0.82360665  1
  H  H7  1  0.51134245  0.48865755  0.82360665  1
  H  H8  1  0.97731509  0.48865755  0.82360665  1
  H  H9  1  0.48865755  0.97731509  0.17639335  1
  H  H10  1  0.48865755  0.51134245  0.17639335  1
  H  H11  1  0.02268491  0.51134245  0.17639335  1
loop_
_geom_bond_atom_site_label_1
_geom_bond_atom_site_label_2
_geom_bond_distance
_geom_bond_site_symmetry_2
Ba0 H9 2.715075 1_545
Ba0 H6 2.715075 1_454
Ba0 H9 2.715075 1_445
Ba0 H6 2.715075 1_554
Ba0 H11 2.715076 1_545
Ba0 H8 2.715076 1_454
Ba0 H11 2.715076 1_555
Ba0 H8 2.715076 1_444
Ba0 H10 2.715076 1_445
Ba0 H7 2.715076 1_554
Ba0 H10 2.715076 1_555
Ba0 H7 2.715076 1_444
Co0 H3 1.503091 1_555
Co0 H4 1.503091 1_555
Co0 H5 1.503091 1_555
Co0 H8 1.524535 1_555
Co0 H6 1.524536 1_555
Co0 H7 1.524539 1_555
Co1 H0 1.503091 1_555
Co1 H1 1.503091 1_555
Co1 H2 1.503091 1_555
Co1 H11 1.524535 1_555
Co1 H9 1.524536 1_555
Co1 H10 1.524539 1_555
H0 Mg1 2.248816 1_555
H0 Mg0 2.321079 1_455
H0 Mg0 2.321079 1_565
H1 Mg1 2.248816 1_555
H1 Mg0 2.321074 1_565
H1 Mg0 2.321083 1_555
H2 Mg1 2.248816 1_555
H2 Mg0 2.321073 1_455
H2 Mg0 2.321083 1_555
H3 Mg0 2.248816 1_555
H3 Mg1 2.321079 1_655
H3 Mg1 2.321079 1_545
H4 Mg0 2.248816 1_555
H4 Mg1 2.321074 1_545
H4 Mg1 2.321083 1_555
H5 Mg0 2.248816 1_555
H5 Mg1 2.321073 1_655
H5 Mg1 2.321083 1_555
H6 Mg1 2.149749 1_545
H7 Mg1 2.149751 1_555
H8 Mg1 2.149749 1_655
H9 Mg0 2.149749 1_565
H10 Mg0 2.149751 1_555
H11 Mg0 2.149749 1_455
