# generated using pymatgen
data_Zr10Be2(SnBi)3
_symmetry_space_group_name_H-M   'P 1'
_cell_length_a   8.66719404
_cell_length_b   8.66717219
_cell_length_c   5.85888778
_cell_angle_alpha   90.00000000
_cell_angle_beta   90.00000000
_cell_angle_gamma   119.99993037
_symmetry_Int_Tables_number   1
_chemical_formula_structural   Zr10Be2(SnBi)3
_chemical_formula_sum   'Zr10 Be2 Sn3 Bi3'
_cell_volume   381.15538555
_cell_formula_units_Z   1
loop_
 _symmetry_equiv_pos_site_id
 _symmetry_equiv_pos_as_xyz
  1  'x, y, z'
loop_
 _atom_site_type_symbol
 _atom_site_label
 _atom_site_symmetry_multiplicity
 _atom_site_fract_x
 _atom_site_fract_y
 _atom_site_fract_z
 _atom_site_occupancy
  Zr  Zr0  1  0.66666700  0.33333300  0.00560079  1
  Zr  Zr1  1  0.33333300  0.66666700  0.00560079  1
  Zr  Zr2  1  0.33333300  0.66666700  0.49439921  1
  Zr  Zr3  1  0.66666700  0.33333300  0.49439921  1
  Zr  Zr4  1  0.75832710  0.75832710  0.75000000  1
  Zr  Zr5  1  0.24167390  0.99999900  0.75000000  1
  Zr  Zr6  1  0.00000000  0.24167390  0.75000000  1
  Zr  Zr7  1  0.25775707  0.25775707  0.25000000  1
  Zr  Zr8  1  0.74224193  0.99999900  0.25000000  1
  Zr  Zr9  1  0.00000000  0.74224293  0.25000000  1
  Be  Be0  1  0.00000000  0.00000000  0.02495047  1
  Be  Be1  1  0.00000000  0.00000000  0.47504953  1
  Sn  Sn0  1  0.61493605  0.61493505  0.25000000  1
  Sn  Sn1  1  0.38506495  1.00000000  0.25000000  1
  Sn  Sn2  1  0.00000000  0.38506495  0.25000000  1
  Bi  Bi0  1  0.39605808  0.39605808  0.75000000  1
  Bi  Bi1  1  0.60394292  0.00000100  0.75000000  1
  Bi  Bi2  1  0.99999900  0.60394092  0.75000000  1
loop_
_geom_bond_atom_site_label_1
_geom_bond_atom_site_label_2
_geom_bond_distance
_geom_bond_site_symmetry_2
Be0 Zr9 2.594112 1_545
Be0 Zr7 2.594116 1_555
Be0 Zr8 2.594120 1_445
Be0 Zr4 2.642436 1_444
Be0 Zr6 2.642439 1_554
Be0 Zr5 2.642447 1_544
Be1 Zr9 2.594112 1_545
Be1 Zr7 2.594116 1_555
Be1 Zr8 2.594120 1_445
Be1 Zr4 2.642436 1_445
Be1 Zr6 2.642439 1_555
Be1 Zr5 2.642447 1_545
Sn0 Zr8 2.945056 1_555
Sn0 Zr9 2.945061 1_655
Sn0 Zr3 3.050030 1_555
Sn0 Zr0 3.050030 1_555
Sn0 Zr2 3.050047 1_555
Sn0 Zr1 3.050047 1_555
Sn0 Zr7 3.095734 1_555
Sn0 Zr4 3.182169 1_555
Sn0 Zr4 3.182169 1_554
Sn1 Zr7 2.945061 1_565
Sn1 Zr9 2.945069 1_555
Sn1 Zr2 3.050027 1_555
Sn1 Zr1 3.050027 1_555
Sn1 Zr3 3.050034 1_565
Sn1 Zr0 3.050034 1_565
Sn1 Zr8 3.095726 1_555
Sn1 Zr5 3.182166 1_555
Sn1 Zr5 3.182166 1_554
Sn2 Zr7 2.945065 1_555
Sn2 Zr8 2.945072 1_445
Sn2 Zr3 3.050034 1_455
Sn2 Zr0 3.050034 1_455
Sn2 Zr2 3.050036 1_555
Sn2 Zr1 3.050036 1_555
Sn2 Zr9 3.095723 1_555
Sn2 Zr6 3.182166 1_554
Sn2 Zr6 3.182166 1_555
Bi0 Zr5 2.996788 1_545
Bi0 Zr6 2.996789 1_555
Bi0 Zr1 3.051921 1_556
Bi0 Zr2 3.051921 1_555
Bi0 Zr0 3.051925 1_556
Bi0 Zr3 3.051925 1_555
Bi0 Zr4 3.139855 1_555
Bi0 Zr7 3.165198 1_555
Bi0 Zr7 3.165198 1_556
Bi1 Zr6 2.996780 1_655
Bi1 Zr4 2.996781 1_545
Bi1 Zr0 3.051908 1_556
Bi1 Zr3 3.051908 1_555
Bi1 Zr1 3.051927 1_546
Bi1 Zr2 3.051927 1_545
Bi1 Zr5 3.139847 1_545
Bi1 Zr8 3.165195 1_545
Bi1 Zr8 3.165195 1_546
Bi2 Zr4 2.996781 1_555
Bi2 Zr5 2.996783 1_655
Bi2 Zr0 3.051915 1_556
Bi2 Zr3 3.051915 1_555
Bi2 Zr1 3.051925 1_656
Bi2 Zr2 3.051925 1_655
Bi2 Zr6 3.139835 1_655
Bi2 Zr9 3.165199 1_655
Bi2 Zr9 3.165199 1_656
