# generated using pymatgen
data_CdHg5(SCl)4
_symmetry_space_group_name_H-M   'P 1'
_cell_length_a   7.89812423
_cell_length_b   7.83901549
_cell_length_c   7.89812444
_cell_angle_alpha   111.52241689
_cell_angle_beta   106.12531713
_cell_angle_gamma   111.15189037
_symmetry_Int_Tables_number   1
_chemical_formula_structural   CdHg5(SCl)4
_chemical_formula_sum   'Cd1 Hg5 S4 Cl4'
_cell_volume   373.86327372
_cell_formula_units_Z   1
loop_
 _symmetry_equiv_pos_site_id
 _symmetry_equiv_pos_as_xyz
  1  'x, y, z'
loop_
 _atom_site_type_symbol
 _atom_site_label
 _atom_site_symmetry_multiplicity
 _atom_site_fract_x
 _atom_site_fract_y
 _atom_site_fract_z
 _atom_site_occupancy
  Cd  Cd0  1  0.92424511  0.25000000  0.17424511  1
  Hg  Hg0  1  0.75716232  0.31254719  0.55709293  1
  Hg  Hg1  1  0.20788356  0.96711941  0.26386851  1
  Hg  Hg2  1  0.24454574  0.18745281  0.94461513  1
  Hg  Hg3  1  0.29674910  0.53288059  0.74076415  1
  Hg  Hg4  1  0.54140070  0.75000000  0.29140070  1
  S  S0  1  0.02641054  0.54902603  0.52905960  1
  S  S1  1  0.98003357  0.95097397  0.97738451  1
  S  S2  1  0.51925001  0.49131861  0.98278772  1
  S  S3  1  0.49146911  0.00868139  0.52793139  1
  Cl  Cl0  1  0.98364720  0.02015908  0.49471065  1
  Cl  Cl1  1  0.47455256  0.47984092  0.46348911  1
  Cl  Cl2  1  0.53635976  0.02297031  0.03926102  1
  Cl  Cl3  1  0.01629171  0.47702969  0.01338945  1
loop_
_geom_bond_atom_site_label_1
_geom_bond_atom_site_label_2
_geom_bond_distance
_geom_bond_site_symmetry_2
Cd0 Cl2 2.558939 1_555
Cd0 Cl3 2.558940 1_655
Cd0 S1 2.560875 1_544
Cd0 S0 2.560875 1_655
Hg0 S0 2.392786 1_655
Hg0 S3 2.419132 1_555
Hg1 S1 2.395399 1_454
Hg1 S3 2.419202 1_565
Hg2 S1 2.392786 1_445
Hg2 S2 2.419132 1_555
Hg3 S0 2.395399 1_555
Hg3 S2 2.419201 1_555
Hg4 S3 2.442197 1_565
Hg4 S2 2.442197 1_554
Cl0 Hg4 2.883532 1_545
Cl0 Hg1 2.898701 1_645
Cl0 Hg2 3.025869 1_655
Cl1 Hg4 2.883537 1_555
Cl1 Hg3 2.898700 1_555
Cl1 Hg0 3.025861 1_555
Cl2 Hg2 3.070531 1_554
Cl3 Hg0 3.070532 1_454
