# generated using pymatgen
data_SrLiPRh2
_symmetry_space_group_name_H-M   'P 1'
_cell_length_a   5.80828566
_cell_length_b   5.80828591
_cell_length_c   5.80828459
_cell_angle_alpha   137.14402872
_cell_angle_beta   137.14403251
_cell_angle_gamma   62.21651296
_symmetry_Int_Tables_number   1
_chemical_formula_structural   SrLiPRh2
_chemical_formula_sum   'Sr1 Li1 P1 Rh2'
_cell_volume   89.56731270
_cell_formula_units_Z   1
loop_
 _symmetry_equiv_pos_site_id
 _symmetry_equiv_pos_as_xyz
  1  'x, y, z'
loop_
 _atom_site_type_symbol
 _atom_site_label
 _atom_site_symmetry_multiplicity
 _atom_site_fract_x
 _atom_site_fract_y
 _atom_site_fract_z
 _atom_site_occupancy
  Sr  Sr0  1  0.00254885  0.00254885  1.00000000  1
  Li  Li0  1  0.62490476  0.62490476  1.00000000  1
  P  P0  1  0.34621759  0.34621759  0.00000000  1
  Rh  Rh0  1  0.26316390  0.76316390  0.50000000  1
  Rh  Rh1  1  0.76316390  0.26316390  0.50000000  1
loop_
_geom_bond_atom_site_label_1
_geom_bond_atom_site_label_2
_geom_bond_distance
_geom_bond_site_symmetry_2
Li0 Rh0 2.528566 1_555
Li0 Rh1 2.528566 1_555
Li0 Rh0 2.528567 1_656
Li0 Rh1 2.528567 1_566
Li0 P0 2.771829 1_556
Li0 Sr0 3.238258 1_666
Li0 Sr0 3.238259 1_565
Li0 Sr0 3.238259 1_655
Li0 Sr0 3.238259 1_554
P0 Rh1 2.277067 1_555
P0 Rh0 2.277067 1_555
P0 Rh1 2.277067 1_454
P0 Rh0 2.277067 1_544
P0 Sr0 3.379788 1_553
P0 Sr0 3.379789 1_654
P0 Sr0 3.379789 1_564
P0 Sr0 3.379789 1_665
P0 Sr0 3.418137 1_554
Rh0 Sr0 3.189277 1_564
Rh0 Sr0 3.189278 1_665
Rh0 Sr0 3.349860 1_565
Rh0 Sr0 3.349861 1_554
Rh1 Sr0 3.189277 1_654
Rh1 Sr0 3.189278 1_665
Rh1 Sr0 3.349860 1_655
Rh1 Sr0 3.349861 1_554
