# generated using pymatgen
data_K2Nb6PbBr18
_symmetry_space_group_name_H-M   'P 1'
_cell_length_a   10.79603680
_cell_length_b   10.79603693
_cell_length_c   10.79603636
_cell_angle_alpha   54.66020400
_cell_angle_beta   54.66020215
_cell_angle_gamma   54.66020293
_symmetry_Int_Tables_number   1
_chemical_formula_structural   K2Nb6PbBr18
_chemical_formula_sum   'K2 Nb6 Pb1 Br18'
_cell_volume   779.07344735
_cell_formula_units_Z   1
loop_
 _symmetry_equiv_pos_site_id
 _symmetry_equiv_pos_as_xyz
  1  'x, y, z'
loop_
 _atom_site_type_symbol
 _atom_site_label
 _atom_site_symmetry_multiplicity
 _atom_site_fract_x
 _atom_site_fract_y
 _atom_site_fract_z
 _atom_site_occupancy
  K  K0  1  0.72111879  0.72111879  0.72111879  1
  K  K1  1  0.27888121  0.27888121  0.27888121  1
  Nb  Nb0  1  0.57320704  0.35840589  0.70034301  1
  Nb  Nb1  1  0.35840589  0.70034301  0.57320704  1
  Nb  Nb2  1  0.70034301  0.57320704  0.35840589  1
  Nb  Nb3  1  0.64159411  0.29965699  0.42679296  1
  Nb  Nb4  1  0.42679296  0.64159411  0.29965699  1
  Nb  Nb5  1  0.29965699  0.42679296  0.64159411  1
  Pb  Pb0  1  0.00000000  0.00000000  0.00000000  1
  Br  Br0  1  0.91817462  0.34567988  0.23481503  1
  Br  Br1  1  0.83519571  0.41763786  0.57317979  1
  Br  Br2  1  0.76518497  0.08182538  0.65432012  1
  Br  Br3  1  0.08182538  0.65432012  0.76518497  1
  Br  Br4  1  0.66335699  0.16865932  0.98072943  1
  Br  Br5  1  0.23481503  0.91817462  0.34567988  1
  Br  Br6  1  0.42682021  0.16480429  0.58236214  1
  Br  Br7  1  0.65432012  0.76518497  0.08182538  1
  Br  Br8  1  0.58236214  0.42682021  0.16480429  1
  Br  Br9  1  0.01927057  0.33664301  0.83134068  1
  Br  Br10  1  0.57317979  0.83519571  0.41763786  1
  Br  Br11  1  0.34567988  0.23481503  0.91817462  1
  Br  Br12  1  0.98072943  0.66335699  0.16865932  1
  Br  Br13  1  0.16480429  0.58236214  0.42682021  1
  Br  Br14  1  0.83134068  0.01927057  0.33664301  1
  Br  Br15  1  0.41763786  0.57317979  0.83519571  1
  Br  Br16  1  0.16865932  0.98072943  0.66335699  1
  Br  Br17  1  0.33664301  0.83134068  0.01927057  1
loop_
_geom_bond_atom_site_label_1
_geom_bond_atom_site_label_2
_geom_bond_distance
_geom_bond_site_symmetry_2
Br0 Nb2 2.612188 1_555
Br0 Nb3 2.612310 1_555
Br0 K1 3.795878 1_655
Br1 Nb0 2.622676 1_555
Br1 Nb2 2.624529 1_555
Br1 K0 3.729949 1_555
Br1 K1 3.857760 1_655
Br2 Nb3 2.612188 1_555
Br2 Nb0 2.612310 1_555
Br2 K0 3.795878 1_545
Br3 Nb5 2.612188 1_555
Br3 Nb1 2.612310 1_555
Br3 K0 3.795878 1_455
Br4 Nb0 2.869656 1_555
Br4 Pb0 3.057532 1_656
Br4 K1 3.502407 1_556
Br5 Nb1 2.612188 1_555
Br5 Nb4 2.612310 1_555
Br5 K1 3.795878 1_565
Br6 Nb5 2.622676 1_555
Br6 Nb3 2.624529 1_555
Br6 K1 3.729949 1_555
Br6 K0 3.857760 1_545
Br7 Nb4 2.612188 1_555
Br7 Nb2 2.612310 1_555
Br7 K0 3.795878 1_554
Br8 Nb3 2.622676 1_555
Br8 Nb4 2.624529 1_555
Br8 K1 3.729949 1_555
Br8 K0 3.857760 1_554
Br9 Nb5 2.869656 1_555
Br9 Pb0 3.057532 1_556
Br9 K0 3.502407 1_455
Br10 Nb2 2.622676 1_555
Br10 Nb1 2.624529 1_555
Br10 K0 3.729949 1_555
Br10 K1 3.857760 1_565
Br11 Nb0 2.612188 1_555
Br11 Nb5 2.612310 1_555
Br11 K1 3.795878 1_556
Br12 Nb2 2.869656 1_555
Br12 Pb0 3.057532 1_665
Br12 K1 3.502407 1_655
Br13 Nb4 2.622676 1_555
Br13 Nb5 2.624529 1_555
Br13 K1 3.729949 1_555
Br13 K0 3.857760 1_455
Br14 Nb3 2.869656 1_555
Br14 Pb0 3.057532 1_655
Br14 K0 3.502407 1_545
Br15 Nb1 2.622676 1_555
Br15 Nb0 2.624529 1_555
Br15 K0 3.729949 1_555
Br15 K1 3.857760 1_556
Br16 Nb1 2.869656 1_555
Br16 Pb0 3.057532 1_566
Br16 K1 3.502407 1_565
Br17 Nb4 2.869656 1_555
Br17 Pb0 3.057532 1_565
Br17 K0 3.502407 1_554
