# generated using pymatgen
data_BaAsS2F
_symmetry_space_group_name_H-M   'P 1'
_cell_length_a   6.01566039
_cell_length_b   6.28031164
_cell_length_c   13.40896796
_cell_angle_alpha   94.91125590
_cell_angle_beta   92.46349517
_cell_angle_gamma   89.67535578
_symmetry_Int_Tables_number   1
_chemical_formula_structural   BaAsS2F
_chemical_formula_sum   'Ba4 As4 S8 F4'
_cell_volume   504.26635170
_cell_formula_units_Z   4
loop_
 _symmetry_equiv_pos_site_id
 _symmetry_equiv_pos_as_xyz
  1  'x, y, z'
loop_
 _atom_site_type_symbol
 _atom_site_label
 _atom_site_symmetry_multiplicity
 _atom_site_fract_x
 _atom_site_fract_y
 _atom_site_fract_z
 _atom_site_occupancy
  Ba  Ba0  1  0.26296481  0.52390458  0.61641403  1
  Ba  Ba1  1  0.23662181  0.98287242  0.38443061  1
  Ba  Ba2  1  0.73703519  0.47609542  0.38358597  1
  Ba  Ba3  1  0.76337819  0.01712758  0.61556939  1
  As  As0  1  0.76446643  0.98856627  0.13503205  1
  As  As1  1  0.26104338  0.36809699  0.13490109  1
  As  As2  1  0.23553357  0.01143373  0.86496795  1
  As  As3  1  0.73895662  0.63190301  0.86509891  1
  S  S0  1  0.35364245  0.66547356  0.88222997  1
  S  S1  1  0.27068354  0.03674639  0.70353606  1
  S  S2  1  0.23120596  0.46423034  0.29568414  1
  S  S3  1  0.64635755  0.33452644  0.11777003  1
  S  S4  1  0.76879404  0.53576966  0.70431586  1
  S  S5  1  0.84654662  0.98468543  0.87347533  1
  S  S6  1  0.15345338  0.01531457  0.12652467  1
  S  S7  1  0.72931646  0.96325361  0.29646394  1
  F  F0  1  0.99928688  0.25313802  0.50255074  1
  F  F1  1  0.50016682  0.24910019  0.50208918  1
  F  F2  1  0.49983318  0.75089981  0.49791082  1
  F  F3  1  0.00071312  0.74686198  0.49744926  1
loop_
_geom_bond_atom_site_label_1
_geom_bond_atom_site_label_2
_geom_bond_distance
_geom_bond_site_symmetry_2
Ba0 F1 2.659295 1_555
Ba0 F0 2.667700 1_455
Ba0 F3 2.671195 1_555
Ba0 F2 2.682016 1_555
Ba0 S4 3.214538 1_555
Ba0 S4 3.242809 1_455
Ba0 S1 3.330654 1_565
Ba0 S1 3.366478 1_555
Ba0 S0 3.617754 1_555
Ba1 F2 2.662951 1_555
Ba1 F3 2.664754 1_555
Ba1 F0 2.671079 1_465
Ba1 F1 2.676092 1_565
Ba1 S7 3.223316 1_455
Ba1 S7 3.234598 1_555
Ba1 S2 3.341809 1_565
Ba1 S2 3.370595 1_555
Ba1 S6 3.496010 1_565
Ba2 F2 2.659295 1_555
Ba2 F3 2.667700 1_655
Ba2 F0 2.671195 1_555
Ba2 F1 2.682016 1_555
Ba2 S2 3.214538 1_555
Ba2 S2 3.242809 1_655
Ba2 S7 3.330654 1_545
Ba2 S7 3.366478 1_555
Ba2 S3 3.617754 1_555
Ba3 F1 2.662951 1_555
Ba3 F0 2.664754 1_555
Ba3 F3 2.671079 1_645
Ba3 F2 2.676092 1_545
Ba3 S1 3.223316 1_655
Ba3 S1 3.234598 1_555
Ba3 S4 3.341809 1_545
Ba3 S4 3.370595 1_555
Ba3 S5 3.496010 1_545
As0 S7 2.203242 1_555
As0 S3 2.309472 1_565
As0 S6 2.355330 1_665
As1 S2 2.203168 1_555
As1 S6 2.303848 1_555
As1 S3 2.345615 1_555
As2 S1 2.203242 1_555
As2 S0 2.309472 1_545
As2 S5 2.355330 1_445
As3 S4 2.203168 1_555
As3 S5 2.303848 1_555
As3 S0 2.345615 1_555
