# generated using pymatgen
data_Rb3HgH5
_symmetry_space_group_name_H-M   'P 1'
_cell_length_a   8.25580982
_cell_length_b   8.25581023
_cell_length_c   8.25581040
_cell_angle_alpha   121.95495589
_cell_angle_beta   121.95495549
_cell_angle_gamma   86.64600446
_symmetry_Int_Tables_number   1
_chemical_formula_structural   Rb3HgH5
_chemical_formula_sum   'Rb6 Hg2 H10'
_cell_volume   385.41502218
_cell_formula_units_Z   2
loop_
 _symmetry_equiv_pos_site_id
 _symmetry_equiv_pos_as_xyz
  1  'x, y, z'
loop_
 _atom_site_type_symbol
 _atom_site_label
 _atom_site_symmetry_multiplicity
 _atom_site_fract_x
 _atom_site_fract_y
 _atom_site_fract_z
 _atom_site_occupancy
  Rb  Rb0  1  0.18155759  0.68155759  0.86311419  1
  Rb  Rb1  1  0.81844241  0.31844241  0.13688581  1
  Rb  Rb2  1  0.68155759  0.81844241  0.50000000  1
  Rb  Rb3  1  0.31844241  0.18155759  0.50000000  1
  Rb  Rb4  1  0.25000000  0.25000000  0.00000000  1
  Rb  Rb5  1  0.75000000  0.75000000  0.00000000  1
  Hg  Hg0  1  0.25000000  0.75000000  0.50000000  1
  Hg  Hg1  1  0.75000000  0.25000000  0.50000000  1
  H  H0  1  0.46711916  0.96711916  0.75417719  1
  H  H1  1  0.21294197  0.71294197  0.24582281  1
  H  H2  1  0.96711916  0.21294197  0.50000000  1
  H  H3  1  0.71294197  0.46711916  0.50000000  1
  H  H4  1  0.53288084  0.03288084  0.24582281  1
  H  H5  1  0.78705803  0.28705803  0.75417719  1
  H  H6  1  0.03288084  0.78705803  0.50000000  1
  H  H7  1  0.28705803  0.53288084  0.50000000  1
  H  H8  1  0.50000000  0.50000000  0.00000000  1
  H  H9  1  0.00000000  0.00000000  0.00000000  1
loop_
_geom_bond_atom_site_label_1
_geom_bond_atom_site_label_2
_geom_bond_distance
_geom_bond_site_symmetry_2
H0 Hg0 1.800686 1_555
H0 Rb1 2.896871 1_566
H0 Rb2 3.161632 1_555
H0 Rb3 3.161633 1_565
H1 Hg0 1.800686 1_555
H1 Rb0 2.896878 1_554
H1 Rb2 3.161632 1_555
H1 Rb3 3.161633 1_565
H2 Hg1 1.800686 1_555
H2 Rb3 2.896870 1_655
H2 Rb1 3.161625 1_555
H2 Rb0 3.161633 1_655
H3 Hg1 1.800686 1_555
H3 Rb2 2.896870 1_555
H3 Rb1 3.161625 1_555
H3 Rb0 3.161632 1_655
H4 Hg1 1.800686 1_555
H4 Rb0 2.896871 1_544
H4 Rb3 3.161632 1_555
H4 Rb2 3.161633 1_545
H5 Hg1 1.800686 1_555
H5 Rb1 2.896878 1_556
H5 Rb3 3.161632 1_555
H5 Rb2 3.161633 1_545
H6 Hg0 1.800686 1_555
H6 Rb2 2.896870 1_455
H6 Rb0 3.161625 1_555
H6 Rb1 3.161633 1_455
H7 Hg0 1.800686 1_555
H7 Rb3 2.896870 1_555
H7 Rb0 3.161625 1_555
H7 Rb1 3.161632 1_455
H8 Rb2 2.936418 1_555
H8 Rb3 2.936418 1_554
H8 Rb1 2.936419 1_555
H8 Rb0 2.936419 1_554
H8 Rb4 3.003040 1_555
H8 Rb5 3.003040 1_555
H9 Rb3 2.936418 1_555
H9 Rb2 2.936418 1_444
H9 Rb1 2.936419 1_455
H9 Rb0 2.936419 1_544
H9 Rb4 3.003040 1_555
H9 Rb5 3.003040 1_445
