# generated using pymatgen
data_MgNbPd6
_symmetry_space_group_name_H-M   'P 1'
_cell_length_a   5.56843815
_cell_length_b   5.56843810
_cell_length_c   5.56843788
_cell_angle_alpha   60.00000707
_cell_angle_beta   60.00000738
_cell_angle_gamma   60.00000461
_symmetry_Int_Tables_number   1
_chemical_formula_structural   MgNbPd6
_chemical_formula_sum   'Mg1 Nb1 Pd6'
_cell_volume   122.09144686
_cell_formula_units_Z   1
loop_
 _symmetry_equiv_pos_site_id
 _symmetry_equiv_pos_as_xyz
  1  'x, y, z'
loop_
 _atom_site_type_symbol
 _atom_site_label
 _atom_site_symmetry_multiplicity
 _atom_site_fract_x
 _atom_site_fract_y
 _atom_site_fract_z
 _atom_site_occupancy
  Mg  Mg0  1  0.50000000  0.50000000  0.50000000  1
  Nb  Nb0  1  0.00000000  0.00000000  0.00000000  1
  Pd  Pd0  1  0.00000000  0.00000000  0.50000000  1
  Pd  Pd1  1  0.50000000  0.00000000  0.50000000  1
  Pd  Pd2  1  0.00000000  0.50000000  0.50000000  1
  Pd  Pd3  1  0.50000000  0.50000000  0.00000000  1
  Pd  Pd4  1  0.00000000  0.50000000  0.00000000  1
  Pd  Pd5  1  0.50000000  0.00000000  0.00000000  1
loop_
_geom_bond_atom_site_label_1
_geom_bond_atom_site_label_2
_geom_bond_distance
_geom_bond_site_symmetry_2
Mg0 Pd3 2.784219 1_556
Mg0 Pd3 2.784219 1_555
Mg0 Pd1 2.784219 1_555
Mg0 Pd1 2.784219 1_565
Mg0 Pd2 2.784219 1_555
Mg0 Pd2 2.784219 1_655
Mg0 Pd0 2.784219 1_565
Mg0 Pd0 2.784219 1_655
Mg0 Pd5 2.784219 1_556
Mg0 Pd5 2.784219 1_565
Mg0 Pd4 2.784219 1_556
Mg0 Pd4 2.784219 1_655
Nb0 Pd0 2.784219 1_555
Nb0 Pd0 2.784219 1_554
Nb0 Pd4 2.784219 1_545
Nb0 Pd4 2.784219 1_555
Nb0 Pd5 2.784219 1_555
Nb0 Pd5 2.784219 1_455
Nb0 Pd3 2.784219 1_545
Nb0 Pd3 2.784219 1_455
Nb0 Pd2 2.784219 1_554
Nb0 Pd2 2.784219 1_545
Nb0 Pd1 2.784219 1_554
Nb0 Pd1 2.784219 1_455
Pd0 Pd2 2.784219 1_545
Pd0 Pd2 2.784219 1_555
Pd0 Pd1 2.784219 1_555
Pd0 Pd1 2.784219 1_455
Pd0 Pd4 2.784219 1_546
Pd0 Pd4 2.784219 1_555
Pd0 Pd5 2.784219 1_456
Pd0 Pd5 2.784219 1_555
Pd1 Pd5 2.784219 1_556
Pd1 Pd5 2.784219 1_555
Pd1 Pd2 2.784219 1_645
Pd1 Pd2 2.784219 1_555
Pd1 Pd3 2.784219 1_546
Pd1 Pd3 2.784219 1_555
Pd2 Pd4 2.784219 1_555
Pd2 Pd4 2.784219 1_556
Pd2 Pd3 2.784219 1_555
Pd2 Pd3 2.784219 1_456
Pd3 Pd5 2.784219 1_555
Pd3 Pd5 2.784219 1_565
Pd3 Pd4 2.784219 1_655
Pd3 Pd4 2.784219 1_555
Pd4 Pd5 2.784219 1_555
Pd4 Pd5 2.784219 1_465
