# generated using pymatgen
data_Ba2HfCu3As4
_symmetry_space_group_name_H-M   'P 1'
_cell_length_a   7.14997855
_cell_length_b   7.14997837
_cell_length_c   5.93240752
_cell_angle_alpha   90.00000000
_cell_angle_beta   90.00000000
_cell_angle_gamma   131.14417707
_symmetry_Int_Tables_number   1
_chemical_formula_structural   Ba2HfCu3As4
_chemical_formula_sum   'Ba2 Hf1 Cu3 As4'
_cell_volume   228.38516719
_cell_formula_units_Z   1
loop_
 _symmetry_equiv_pos_site_id
 _symmetry_equiv_pos_as_xyz
  1  'x, y, z'
loop_
 _atom_site_type_symbol
 _atom_site_label
 _atom_site_symmetry_multiplicity
 _atom_site_fract_x
 _atom_site_fract_y
 _atom_site_fract_z
 _atom_site_occupancy
  Ba  Ba0  1  0.50000000  0.00000000  0.26256773  1
  Ba  Ba1  1  0.00000000  0.50000000  0.73743227  1
  Hf  Hf0  1  0.00000000  0.00000000  0.00000000  1
  Cu  Cu0  1  0.50000000  0.50000000  0.50000000  1
  Cu  Cu1  1  0.50000000  0.50000000  0.00000000  1
  Cu  Cu2  1  0.00000000  0.00000000  0.50000000  1
  As  As0  1  0.63657695  0.85351440  0.74518573  1
  As  As1  1  0.14648560  0.36342305  0.25481427  1
  As  As2  1  0.85351440  0.63657695  0.25481427  1
  As  As3  1  0.36342305  0.14648560  0.74518573  1
loop_
_geom_bond_atom_site_label_1
_geom_bond_atom_site_label_2
_geom_bond_distance
_geom_bond_site_symmetry_2
Cu1 Hf0 2.956859 1_555
Cu1 Hf0 2.956859 1_665
Cu2 Hf0 2.966204 1_556
Cu2 Hf0 2.966204 1_555
As0 Cu0 2.492010 1_555
As0 Cu1 2.525776 1_556
As0 Cu2 2.526535 1_665
As0 Hf0 2.559846 1_666
As0 Ba0 3.404957 1_565
As0 Ba1 3.459528 1_555
As0 Ba1 3.509254 1_665
As0 Ba0 3.580111 1_566
As1 Cu0 2.492010 1_555
As1 Cu1 2.525776 1_555
As1 Cu2 2.526535 1_555
As1 Hf0 2.559846 1_555
As1 Ba1 3.404957 1_555
As1 Ba0 3.459528 1_565
As1 Ba0 3.509254 1_455
As1 Ba1 3.580111 1_554
As2 Cu0 2.492010 1_555
As2 Cu1 2.525776 1_555
As2 Cu2 2.526535 1_665
As2 Hf0 2.559846 1_665
As2 Ba1 3.404957 1_655
As2 Ba0 3.459528 1_555
As2 Ba0 3.509254 1_665
As2 Ba1 3.580111 1_654
As3 Cu0 2.492010 1_555
As3 Cu1 2.525776 1_556
As3 Cu2 2.526535 1_555
As3 Hf0 2.559846 1_556
As3 Ba0 3.404957 1_555
As3 Ba1 3.459528 1_655
As3 Ba1 3.509254 1_545
As3 Ba0 3.580111 1_556
