# generated using pymatgen
data_Y4Lu(TcO6)2
_symmetry_space_group_name_H-M   'P 1'
_cell_length_a   6.75107003
_cell_length_b   6.75107005
_cell_length_c   7.40956982
_cell_angle_alpha   73.70787669
_cell_angle_beta   73.70787323
_cell_angle_gamma   49.05260015
_symmetry_Int_Tables_number   1
_chemical_formula_structural   Y4Lu(TcO6)2
_chemical_formula_sum   'Y4 Lu1 Tc2 O12'
_cell_volume   242.64334216
_cell_formula_units_Z   1
loop_
 _symmetry_equiv_pos_site_id
 _symmetry_equiv_pos_as_xyz
  1  'x, y, z'
loop_
 _atom_site_type_symbol
 _atom_site_label
 _atom_site_symmetry_multiplicity
 _atom_site_fract_x
 _atom_site_fract_y
 _atom_site_fract_z
 _atom_site_occupancy
  Y  Y0  1  0.69563850  0.69563850  0.64233706  1
  Y  Y1  1  0.30436150  0.30436150  0.35766294  1
  Y  Y2  1  0.68260930  0.68260930  0.17708326  1
  Y  Y3  1  0.31739070  0.31739070  0.82291674  1
  Lu  Lu0  1  0.00000000  0.00000000  0.50000000  1
  Tc  Tc0  1  0.78787203  0.21212797  1.00000000  1
  Tc  Tc1  1  0.21212797  0.78787203  0.00000000  1
  O  O0  1  0.00155916  0.00155916  0.20662098  1
  O  O1  1  0.99844084  0.99844084  0.79337902  1
  O  O2  1  0.58608665  0.08557057  0.08417792  1
  O  O3  1  0.41391335  0.91442943  0.91582208  1
  O  O4  1  0.91442943  0.41391335  0.91582208  1
  O  O5  1  0.08557057  0.58608665  0.08417792  1
  O  O6  1  0.49821248  0.49821248  0.17703475  1
  O  O7  1  0.50178752  0.50178752  0.82296525  1
  O  O8  1  0.39888069  0.90128337  0.42920375  1
  O  O9  1  0.60111931  0.09871663  0.57079625  1
  O  O10  1  0.09871663  0.60111931  0.57079625  1
  O  O11  1  0.90128337  0.39888069  0.42920375  1
loop_
_geom_bond_atom_site_label_1
_geom_bond_atom_site_label_2
_geom_bond_distance
_geom_bond_site_symmetry_2
Lu0 O1 2.167983 1_445
Lu0 O0 2.167983 1_555
Lu0 O9 2.241017 1_455
Lu0 O8 2.241017 1_545
Lu0 O11 2.241017 1_455
Lu0 O10 2.241017 1_545
O0 Tc1 1.943177 1_545
O0 Tc0 1.943177 1_454
O1 Tc0 1.943177 1_565
O1 Tc1 1.943177 1_656
O2 Tc0 1.929937 1_554
O2 Y2 2.275215 1_545
O2 Y1 2.395861 1_555
O2 Y3 2.456953 1_554
O3 Tc1 1.929937 1_556
O3 Y3 2.275215 1_565
O3 Y0 2.395861 1_555
O3 Y2 2.456953 1_556
O4 Tc0 1.929937 1_555
O4 Y3 2.275215 1_655
O4 Y0 2.395861 1_555
O4 Y2 2.456953 1_556
O5 Tc1 1.929937 1_555
O5 Y2 2.275215 1_455
O5 Y1 2.395861 1_555
O5 Y3 2.456953 1_554
O6 Tc0 2.075273 1_554
O6 Tc1 2.075273 1_555
O6 Y2 2.265214 1_555
O6 Y1 2.344371 1_555
O7 Tc1 2.075273 1_556
O7 Tc0 2.075273 1_555
O7 Y3 2.265214 1_555
O7 Y0 2.344371 1_555
O8 Y2 2.274087 1_555
O8 Y1 2.279829 1_565
O8 Y0 2.309648 1_555
O9 Y3 2.274087 1_555
O9 Y0 2.279829 1_545
O9 Y1 2.309648 1_555
O10 Y3 2.274087 1_555
O10 Y0 2.279829 1_455
O10 Y1 2.309648 1_555
O11 Y2 2.274087 1_555
O11 Y1 2.279829 1_655
O11 Y0 2.309648 1_555
