# generated using pymatgen
data_RbZr2CrSe6
_symmetry_space_group_name_H-M   'P 1'
_cell_length_a   9.39394286
_cell_length_b   9.39394126
_cell_length_c   9.39394287
_cell_angle_alpha   40.65174893
_cell_angle_beta   40.65176025
_cell_angle_gamma   40.65175749
_symmetry_Int_Tables_number   1
_chemical_formula_structural   RbZr2CrSe6
_chemical_formula_sum   'Rb1 Zr2 Cr1 Se6'
_cell_volume   317.39824678
_cell_formula_units_Z   1
loop_
 _symmetry_equiv_pos_site_id
 _symmetry_equiv_pos_as_xyz
  1  'x, y, z'
loop_
 _atom_site_type_symbol
 _atom_site_label
 _atom_site_symmetry_multiplicity
 _atom_site_fract_x
 _atom_site_fract_y
 _atom_site_fract_z
 _atom_site_occupancy
  Rb  Rb0  1  0.99910535  0.99910535  0.99910535  1
  Zr  Zr0  1  0.50070969  0.50070969  0.50070969  1
  Zr  Zr1  1  0.83244295  0.83244295  0.83244295  1
  Cr  Cr0  1  0.16706468  0.16706468  0.16706468  1
  Se  Se0  1  0.54647584  0.22528864  0.90560170  1
  Se  Se1  1  0.90560170  0.54647584  0.22528864  1
  Se  Se2  1  0.22528864  0.90560170  0.54647584  1
  Se  Se3  1  0.78612292  0.10905063  0.42813861  1
  Se  Se4  1  0.10905063  0.42813861  0.78612292  1
  Se  Se5  1  0.42813861  0.78612292  0.10905063  1
loop_
_geom_bond_atom_site_label_1
_geom_bond_atom_site_label_2
_geom_bond_distance
_geom_bond_site_symmetry_2
Rb0 Se4 3.501187 1_665
Rb0 Se3 3.501188 1_566
Rb0 Se5 3.501188 1_656
Rb0 Se1 3.534414 1_556
Rb0 Se2 3.534415 1_655
Rb0 Se0 3.534415 1_565
Cr0 Se1 2.582914 1_455
Cr0 Se2 2.582914 1_545
Cr0 Se0 2.582914 1_554
Cr0 Se5 2.594592 1_545
Cr0 Se4 2.594592 1_554
Cr0 Se3 2.594592 1_455
Se0 Zr0 2.684590 1_555
Se0 Zr1 2.704072 1_545
Se1 Zr0 2.684590 1_555
Se1 Zr1 2.704072 1_554
Se2 Zr0 2.684589 1_555
Se2 Zr1 2.704072 1_455
Se3 Zr1 2.680185 1_545
Se3 Zr0 2.693380 1_555
Se4 Zr1 2.680185 1_455
Se4 Zr0 2.693381 1_555
Se5 Zr1 2.680186 1_554
Se5 Zr0 2.693380 1_555
