# generated using pymatgen
data_SrUO4
_symmetry_space_group_name_H-M   'P 1'
_cell_length_a   5.53083775
_cell_length_b   7.96977544
_cell_length_c   8.13358794
_cell_angle_alpha   90.00000000
_cell_angle_beta   90.00000000
_cell_angle_gamma   90.00000000
_symmetry_Int_Tables_number   1
_chemical_formula_structural   SrUO4
_chemical_formula_sum   'Sr4 U4 O16'
_cell_volume   358.52477316
_cell_formula_units_Z   4
loop_
 _symmetry_equiv_pos_site_id
 _symmetry_equiv_pos_as_xyz
  1  'x, y, z'
loop_
 _atom_site_type_symbol
 _atom_site_label
 _atom_site_symmetry_multiplicity
 _atom_site_fract_x
 _atom_site_fract_y
 _atom_site_fract_z
 _atom_site_occupancy
  Sr  Sr0  1  0.47868326  0.19699061  0.25000000  1
  Sr  Sr1  1  0.47868326  0.30300939  0.75000000  1
  Sr  Sr2  1  0.52131674  0.69699061  0.25000000  1
  Sr  Sr3  1  0.52131674  0.80300939  0.75000000  1
  U  U0  1  -0.00000000  -0.00000000  -0.00000000  1
  U  U1  1  -0.00000000  0.50000000  -0.00000000  1
  U  U2  1  -0.00000000  0.50000000  0.50000000  1
  U  U3  1  -0.00000000  -0.00000000  0.50000000  1
  O  O0  1  0.13408753  0.96641306  0.75000000  1
  O  O1  1  0.13408753  0.53358694  0.25000000  1
  O  O2  1  0.86591247  0.46641306  0.75000000  1
  O  O3  1  0.86591247  0.03358694  0.25000000  1
  O  O4  1  0.16958259  0.25000000  0.50000000  1
  O  O5  1  0.83041741  0.75000000  -0.00000000  1
  O  O6  1  0.83041741  0.75000000  0.50000000  1
  O  O7  1  0.16958259  0.25000000  -0.00000000  1
  O  O8  1  0.30230958  0.91910899  0.07931186  1
  O  O9  1  0.30230958  0.58089101  0.92068814  1
  O  O10  1  0.69769042  0.41910899  0.42068814  1
  O  O11  1  0.69769042  0.08089101  0.57931186  1
  O  O12  1  0.69769042  0.08089101  0.92068814  1
  O  O13  1  0.69769042  0.41910899  0.07931186  1
  O  O14  1  0.30230958  0.58089101  0.57931186  1
  O  O15  1  0.30230958  0.91910899  0.42068814  1
loop_
_geom_bond_atom_site_label_1
_geom_bond_atom_site_label_2
_geom_bond_distance
_geom_bond_site_symmetry_2
O0 U0 2.180906 1_566
O0 U3 2.180906 1_565
O0 Sr3 2.506561 1_555
O1 U2 2.180906 1_555
O1 U1 2.180906 1_555
O1 Sr2 2.506561 1_555
O2 U2 2.180906 1_655
O2 U1 2.180906 1_656
O2 Sr1 2.506561 1_555
O3 U0 2.180906 1_655
O3 U3 2.180906 1_655
O3 Sr0 2.506561 1_555
O4 U3 2.202170 1_555
O4 U2 2.202170 1_555
O4 Sr0 2.689957 1_555
O4 Sr1 2.689957 1_555
O5 U0 2.202170 1_665
O5 U1 2.202170 1_655
O5 Sr3 2.689957 1_554
O5 Sr2 2.689957 1_555
O6 U3 2.202170 1_665
O6 U2 2.202170 1_655
O6 Sr3 2.689957 1_555
O6 Sr2 2.689957 1_555
O7 U1 2.202170 1_555
O7 U0 2.202170 1_555
O7 Sr1 2.689957 1_554
O7 Sr0 2.689957 1_555
O8 U0 1.904580 1_565
O8 Sr2 2.555064 1_555
O8 Sr0 2.789924 1_565
O9 U1 1.904580 1_556
O9 Sr3 2.555064 1_555
O9 Sr1 2.789924 1_555
O10 U2 1.904580 1_655
O10 Sr0 2.555064 1_555
O10 Sr2 2.789924 1_555
O11 U3 1.904580 1_655
O11 Sr1 2.555064 1_555
O11 Sr3 2.789924 1_545
O12 U0 1.904580 1_656
O12 Sr1 2.555064 1_555
O12 Sr3 2.789924 1_545
O13 U1 1.904580 1_655
O13 Sr0 2.555064 1_555
O13 Sr2 2.789924 1_555
O14 U2 1.904580 1_555
O14 Sr3 2.555064 1_555
O14 Sr1 2.789924 1_555
O15 U3 1.904580 1_565
O15 Sr2 2.555064 1_555
O15 Sr0 2.789924 1_565
