# generated using pymatgen
data_Y5ZrTi16Ir7
_symmetry_space_group_name_H-M   'P 1'
_cell_length_a   9.10686813
_cell_length_b   9.11559883
_cell_length_c   9.11559818
_cell_angle_alpha   59.93664601
_cell_angle_beta   60.03167939
_cell_angle_gamma   60.03168093
_symmetry_Int_Tables_number   1
_chemical_formula_structural   Y5ZrTi16Ir7
_chemical_formula_sum   'Y5 Zr1 Ti16 Ir7'
_cell_volume   535.08607776
_cell_formula_units_Z   1
loop_
 _symmetry_equiv_pos_site_id
 _symmetry_equiv_pos_as_xyz
  1  'x, y, z'
loop_
 _atom_site_type_symbol
 _atom_site_label
 _atom_site_symmetry_multiplicity
 _atom_site_fract_x
 _atom_site_fract_y
 _atom_site_fract_z
 _atom_site_occupancy
  Y  Y0  1  0.69464004  0.69771946  0.30535996  1
  Y  Y1  1  0.30228054  0.69771946  0.30535996  1
  Y  Y2  1  0.69785906  0.30214094  0.30214094  1
  Y  Y3  1  0.30228054  0.30535996  0.69771946  1
  Y  Y4  1  0.69464004  0.30535996  0.69771946  1
  Zr  Zr0  1  0.29966752  0.70033248  0.70033248  1
  Ti  Ti0  1  0.88125334  0.88097587  0.35651844  1
  Ti  Ti1  1  0.88125334  0.35651844  0.88097587  1
  Ti  Ti2  1  0.35534868  0.87943378  0.87943378  1
  Ti  Ti3  1  0.88578576  0.87943378  0.87943378  1
  Ti  Ti4  1  0.12056622  0.11421424  0.64465132  1
  Ti  Ti5  1  0.12056622  0.64465132  0.11421424  1
  Ti  Ti6  1  0.64348156  0.11874666  0.11874666  1
  Ti  Ti7  1  0.11902413  0.11874666  0.11874666  1
  Ti  Ti8  1  0.67411842  0.67367518  0.97808599  1
  Ti  Ti9  1  0.67411842  0.97808599  0.67367518  1
  Ti  Ti10  1  0.98076792  0.67397997  0.67397997  1
  Ti  Ti11  1  0.67127014  0.67397997  0.67397997  1
  Ti  Ti12  1  0.32602003  0.32872986  0.01923208  1
  Ti  Ti13  1  0.32602003  0.01923208  0.32872986  1
  Ti  Ti14  1  0.02191401  0.32588158  0.32588158  1
  Ti  Ti15  1  0.32632482  0.32588158  0.32588158  1
  Ir  Ir0  1  0.99936153  0.00063847  0.00063847  1
  Ir  Ir1  1  0.00096464  0.99903536  0.50004031  1
  Ir  Ir2  1  0.49995969  0.99903536  0.50004031  1
  Ir  Ir3  1  0.99979450  0.50020550  0.50020550  1
  Ir  Ir4  1  0.49995969  0.50004031  0.99903536  1
  Ir  Ir5  1  0.00096464  0.50004031  0.99903536  1
  Ir  Ir6  1  0.49979450  0.00020550  0.00020550  1
loop_
_geom_bond_atom_site_label_1
_geom_bond_atom_site_label_2
_geom_bond_distance
_geom_bond_site_symmetry_2
Y0 Zr0 3.600535 1_555
Y1 Zr0 3.600535 1_555
Y3 Zr0 3.600535 1_555
Y4 Zr0 3.600536 1_555
Ti0 Y2 3.207633 1_565
Ti0 Y1 3.210084 1_655
Ti0 Y0 3.210091 1_555
Ti1 Y2 3.207632 1_556
Ti1 Y3 3.210084 1_655
Ti1 Y4 3.210091 1_555
Ti2 Zr0 3.148442 1_555
Ti2 Y1 3.245510 1_556
Ti2 Y3 3.245511 1_565
Ti3 Zr0 3.148430 1_655
Ti3 Y0 3.245514 1_556
Ti3 Y4 3.245514 1_565
Ti4 Zr0 3.148426 1_545
Ti4 Y4 3.245511 1_455
Ti4 Y3 3.245526 1_555
Ti5 Zr0 3.148426 1_554
Ti5 Y0 3.245511 1_455
Ti5 Y1 3.245526 1_555
Ti6 Y2 3.207640 1_555
Ti6 Y4 3.210084 1_554
Ti6 Y0 3.210084 1_545
Ti7 Y2 3.207634 1_455
Ti7 Y3 3.210085 1_554
Ti7 Y1 3.210086 1_545
Ti8 Y2 3.182099 1_556
Ti8 Y1 3.199379 1_556
Ti8 Y0 3.199389 1_556
Ti9 Y2 3.182098 1_565
Ti9 Y3 3.199379 1_565
Ti9 Y4 3.199389 1_565
Ti10 Y1 3.160077 1_655
Ti10 Y3 3.160077 1_655
Ti10 Zr0 3.162500 1_655
Ti11 Y0 3.160069 1_555
Ti11 Y4 3.160069 1_555
Ti11 Zr0 3.162482 1_555
Ti12 Y4 3.160077 1_554
Ti12 Y3 3.160087 1_554
Ti12 Zr0 3.162490 1_554
Ti13 Y0 3.160077 1_545
Ti13 Y1 3.160087 1_545
Ti13 Zr0 3.162490 1_545
Ti14 Y2 3.182109 1_455
Ti14 Y4 3.199379 1_455
Ti14 Y0 3.199379 1_455
Ti15 Y2 3.182091 1_555
Ti15 Y3 3.199371 1_555
Ti15 Y1 3.199371 1_555
Ir0 Ti7 2.647908 1_655
Ir0 Ti0 2.647915 1_545
Ir0 Ti1 2.647916 1_554
Ir0 Ti6 2.647916 1_555
Ir0 Ti3 2.649077 1_544
Ir0 Ti2 2.649092 1_644
Ir0 Ti4 2.649092 1_654
Ir0 Ti5 2.649092 1_645
Ir1 Ti10 2.621762 1_455
Ir1 Ti13 2.621762 1_565
Ir1 Ti9 2.638147 1_455
Ir1 Ti14 2.638147 1_565
Ir1 Ti4 2.826651 1_565
Ir1 Ti3 2.826667 1_455
Ir1 Ti0 2.840073 1_455
Ir1 Ti7 2.840080 1_565
Ir1 Y1 3.272949 1_555
Ir1 Zr0 3.275422 1_555
Ir1 Y2 3.296867 1_465
Ir1 Y4 3.326178 1_465
Ir2 Ti13 2.621746 1_565
Ir2 Ti11 2.621756 1_555
Ir2 Ti9 2.638131 1_555
Ir2 Ti15 2.638141 1_565
Ir2 Ti2 2.826666 1_555
Ir2 Ti4 2.826666 1_565
Ir2 Ti6 2.840080 1_565
Ir2 Ti0 2.840080 1_555
Ir2 Y0 3.272949 1_555
Ir2 Zr0 3.275422 1_555
Ir2 Y2 3.296867 1_565
Ir2 Y3 3.326178 1_565
Ir3 Ti14 2.642201 1_655
Ir3 Ti15 2.642210 1_655
Ir3 Ti10 2.648420 1_555
Ir3 Ti11 2.648430 1_555
Ir3 Ti1 2.835966 1_555
Ir3 Ti0 2.835967 1_555
Ir3 Ti5 2.874438 1_655
Ir3 Ti4 2.874438 1_655
Ir3 Y3 3.293576 1_655
Ir3 Y0 3.293576 1_555
Ir3 Y1 3.293576 1_655
Ir3 Y4 3.293576 1_555
Ir4 Ti12 2.621746 1_556
Ir4 Ti11 2.621756 1_555
Ir4 Ti8 2.638131 1_555
Ir4 Ti15 2.638140 1_556
Ir4 Ti2 2.826666 1_555
Ir4 Ti5 2.826666 1_556
Ir4 Ti6 2.840080 1_556
Ir4 Ti1 2.840080 1_555
Ir4 Y4 3.272948 1_555
Ir4 Zr0 3.275422 1_555
Ir4 Y2 3.296867 1_556
Ir4 Y1 3.326178 1_556
Ir5 Ti10 2.621762 1_455
Ir5 Ti12 2.621762 1_556
Ir5 Ti14 2.638147 1_556
Ir5 Ti8 2.638147 1_455
Ir5 Ti5 2.826651 1_556
Ir5 Ti3 2.826667 1_455
Ir5 Ti1 2.840073 1_455
Ir5 Ti7 2.840080 1_556
Ir5 Y3 3.272949 1_555
Ir5 Zr0 3.275422 1_555
Ir5 Y2 3.296867 1_456
Ir5 Y0 3.326178 1_456
Ir6 Ti9 2.642216 1_544
Ir6 Ti8 2.642217 1_544
Ir6 Ti13 2.648436 1_555
Ir6 Ti12 2.648436 1_555
Ir6 Ti6 2.835959 1_555
Ir6 Ti7 2.835967 1_555
Ir6 Ti2 2.874424 1_544
Ir6 Ti3 2.874439 1_544
Ir6 Y0 3.293575 1_545
Ir6 Y3 3.293575 1_554
Ir6 Y1 3.293576 1_545
Ir6 Y4 3.293576 1_554
