# generated using pymatgen
data_RbAlSiSe4
_symmetry_space_group_name_H-M   'P 1'
_cell_length_a   16.78702848
_cell_length_b   7.17093299
_cell_length_c   7.74015503
_cell_angle_alpha   69.51521059
_cell_angle_beta   90.00000000
_cell_angle_gamma   90.00000000
_symmetry_Int_Tables_number   1
_chemical_formula_structural   RbAlSiSe4
_chemical_formula_sum   'Rb4 Al4 Si4 Se16'
_cell_volume   872.83040444
_cell_formula_units_Z   4
loop_
 _symmetry_equiv_pos_site_id
 _symmetry_equiv_pos_as_xyz
  1  'x, y, z'
loop_
 _atom_site_type_symbol
 _atom_site_label
 _atom_site_symmetry_multiplicity
 _atom_site_fract_x
 _atom_site_fract_y
 _atom_site_fract_z
 _atom_site_occupancy
  Rb  Rb0  1  0.39447719  0.94853762  0.18368613  1
  Rb  Rb1  1  0.89447719  0.05146238  0.81631387  1
  Rb  Rb2  1  0.60198596  0.52370877  0.83231048  1
  Rb  Rb3  1  0.10198596  0.47629123  0.16768952  1
  Al  Al0  1  0.58339353  0.16436054  0.48240449  1
  Al  Al1  1  0.08339353  0.83563946  0.51759551  1
  Al  Al2  1  0.27249197  0.58554839  0.70262153  1
  Al  Al3  1  0.77249197  0.41445161  0.29737847  1
  Si  Si0  1  0.42152988  0.31687812  0.53885268  1
  Si  Si1  1  0.92152988  0.68312188  0.46114732  1
  Si  Si2  1  0.72603380  0.91635289  0.27575429  1
  Si  Si3  1  0.22603380  0.08364711  0.72424571  1
  Se  Se0  1  0.59885630  0.88594810  0.38230009  1
  Se  Se1  1  0.09885630  0.11405190  0.61769991  1
  Se  Se2  1  0.41114798  0.58692805  0.62694162  1
  Se  Se3  1  0.91114798  0.41307195  0.37305838  1
  Se  Se4  1  0.80237211  0.78969493  0.53998452  1
  Se  Se5  1  0.30237211  0.21030507  0.46001548  1
  Se  Se6  1  0.20025109  0.71771570  0.42746608  1
  Se  Se7  1  0.70025109  0.28228430  0.57253392  1
  Se  Se8  1  0.76219836  0.22870850  0.09289702  1
  Se  Se9  1  0.26219836  0.77129150  0.90710298  1
  Se  Se10  1  0.23730971  0.26087680  0.91516721  1
  Se  Se11  1  0.73730971  0.73912320  0.08483279  1
  Se  Se12  1  0.99566460  0.92420155  0.25278712  1
  Se  Se13  1  0.49566460  0.07579845  0.74721288  1
  Se  Se14  1  0.99228553  0.60399495  0.72871341  1
  Se  Se15  1  0.49228553  0.39600505  0.27128659  1
loop_
_geom_bond_atom_site_label_1
_geom_bond_atom_site_label_2
_geom_bond_distance
_geom_bond_site_symmetry_2
Rb0 Se2 3.513744 1_555
Rb0 Se13 3.601900 1_564
Rb0 Se9 3.610249 1_554
Rb0 Se10 3.610962 1_564
Rb0 Se5 3.646761 1_565
Rb0 Se0 3.721964 1_555
Rb0 Se6 3.839899 1_555
Rb0 Se15 3.869695 1_565
Rb0 Se15 4.119963 1_555
Rb1 Se3 3.513744 1_555
Rb1 Se12 3.601900 1_546
Rb1 Se8 3.610249 1_556
Rb1 Se11 3.610962 1_546
Rb1 Se4 3.646761 1_545
Rb1 Se1 3.721964 1_655
Rb1 Se7 3.839899 1_555
Rb1 Se14 3.869695 1_545
Rb1 Se14 4.119963 1_555
Rb2 Se7 3.492518 1_555
Rb2 Se2 3.534260 1_555
Rb2 Se0 3.542580 1_555
Rb2 Se8 3.576340 1_556
Rb2 Se11 3.671547 1_556
Rb2 Se15 3.687378 1_556
Rb2 Se13 3.926410 1_555
Rb3 Se6 3.492518 1_555
Rb3 Se3 3.534260 1_455
Rb3 Se1 3.542580 1_555
Rb3 Se9 3.576340 1_554
Rb3 Se10 3.671547 1_554
Rb3 Se14 3.687378 1_454
Rb3 Se12 3.926410 1_455
Al0 Se7 2.337279 1_555
Al0 Se0 2.395071 1_545
Al0 Se13 2.421201 1_555
Al0 Se15 2.422566 1_555
Al1 Se6 2.337279 1_555
Al1 Se1 2.395071 1_565
Al1 Se12 2.421201 1_455
Al1 Se14 2.422566 1_455
Al2 Se6 2.343493 1_555
Al2 Se2 2.399375 1_555
Al2 Se9 2.405088 1_555
Al2 Se10 2.407274 1_555
Al3 Se7 2.343493 1_555
Al3 Se3 2.399375 1_555
Al3 Se8 2.405088 1_555
Al3 Se11 2.407274 1_555
Se0 Si2 2.271502 1_555
Se1 Si3 2.271502 1_555
Se2 Si0 2.273646 1_555
Se3 Si1 2.273646 1_555
Se4 Si1 2.298700 1_555
Se4 Si2 2.312963 1_555
Se5 Si0 2.298700 1_555
Se5 Si3 2.312963 1_555
Se8 Si2 2.273753 1_545
Se9 Si3 2.273753 1_565
Se10 Si3 2.269210 1_555
Se11 Si2 2.269210 1_555
Se12 Si1 2.277486 1_555
Se13 Si0 2.277486 1_555
Se14 Si1 2.280207 1_555
Se15 Si0 2.280207 1_555
