# generated using pymatgen
data_Na2BeS2
_symmetry_space_group_name_H-M   'P 1'
_cell_length_a   6.88319422
_cell_length_b   6.88319421
_cell_length_c   6.88319425
_cell_angle_alpha   133.03476933
_cell_angle_beta   128.60420553
_cell_angle_gamma   72.15885312
_symmetry_Int_Tables_number   1
_chemical_formula_structural   Na2BeS2
_chemical_formula_sum   'Na4 Be2 S4'
_cell_volume   182.16355277
_cell_formula_units_Z   2
loop_
 _symmetry_equiv_pos_site_id
 _symmetry_equiv_pos_as_xyz
  1  'x, y, z'
loop_
 _atom_site_type_symbol
 _atom_site_label
 _atom_site_symmetry_multiplicity
 _atom_site_fract_x
 _atom_site_fract_y
 _atom_site_fract_z
 _atom_site_occupancy
  Na  Na0  1  0.52161692  0.85590792  0.66570900  1
  Na  Na1  1  0.80980208  0.64409208  0.16570900  1
  Na  Na2  1  0.47838308  0.14409208  0.33429100  1
  Na  Na3  1  0.19019792  0.35590792  0.83429100  1
  Be  Be0  1  0.00000000  0.25000000  0.25000000  1
  Be  Be1  1  0.00000000  0.75000000  0.75000000  1
  S  S0  1  0.91238795  0.10518653  0.80720142  1
  S  S1  1  0.29798510  0.60518653  0.69279858  1
  S  S2  1  0.08761205  0.89481347  0.19279858  1
  S  S3  1  0.70201490  0.39481347  0.30720142  1
loop_
_geom_bond_atom_site_label_1
_geom_bond_atom_site_label_2
_geom_bond_distance
_geom_bond_site_symmetry_2
Na0 S1 2.794213 1_555
Na0 S2 2.856015 1_555
Na0 S0 2.899238 1_565
Na0 S3 2.902321 1_566
Na0 S3 2.902321 1_555
Na0 S2 3.176078 1_656
Na1 S2 2.794207 1_655
Na1 S1 2.856019 1_554
Na1 S3 2.899243 1_555
Na1 S0 2.902318 1_554
Na1 S0 2.902323 1_565
Na1 S1 3.176076 1_655
Na2 S3 2.794213 1_555
Na2 S0 2.856015 1_555
Na2 S2 2.899238 1_545
Na2 S1 2.902321 1_544
Na2 S1 2.902321 1_555
Na2 S0 3.176078 1_454
Na3 S0 2.794207 1_455
Na3 S3 2.856019 1_556
Na3 S1 2.899243 1_555
Na3 S2 2.902318 1_556
Na3 S2 2.902323 1_545
Na3 S3 3.176076 1_455
Be0 S1 2.138895 1_555
Be0 S2 2.138895 1_545
Be0 S0 2.138895 1_454
Be0 S3 2.138895 1_455
Be0 Na1 2.903963 1_455
Be0 Na0 2.903963 1_444
Be0 Na2 2.903963 1_555
Be0 Na3 2.903965 1_555
Be1 S3 2.138895 1_455
Be1 S0 2.138895 1_465
Be1 S2 2.138895 1_556
Be1 S1 2.138895 1_555
Be1 Na3 2.903963 1_555
Be1 Na2 2.903963 1_566
Be1 Na0 2.903963 1_455
Be1 Na1 2.903965 1_455
