# generated using pymatgen
data_Y4ReTc3B8
_symmetry_space_group_name_H-M   'P 1'
_cell_length_a   5.95359297
_cell_length_b   5.28158746
_cell_length_c   6.44065104
_cell_angle_alpha   90.00000000
_cell_angle_beta   90.14970541
_cell_angle_gamma   90.00000000
_symmetry_Int_Tables_number   1
_chemical_formula_structural   Y4ReTc3B8
_chemical_formula_sum   'Y4 Re1 Tc3 B8'
_cell_volume   202.52185788
_cell_formula_units_Z   1
loop_
 _symmetry_equiv_pos_site_id
 _symmetry_equiv_pos_as_xyz
  1  'x, y, z'
loop_
 _atom_site_type_symbol
 _atom_site_label
 _atom_site_symmetry_multiplicity
 _atom_site_fract_x
 _atom_site_fract_y
 _atom_site_fract_z
 _atom_site_occupancy
  Y  Y0  1  0.01508981  0.25000000  0.33908046  1
  Y  Y1  1  0.51587048  0.25000000  0.16022823  1
  Y  Y2  1  0.98408653  0.75000000  0.66170804  1
  Y  Y3  1  0.48464418  0.75000000  0.83881158  1
  Re  Re0  1  0.31883404  0.75000000  0.31406595  1
  Tc  Tc0  1  0.18052355  0.25000000  0.81500842  1
  Tc  Tc1  1  0.68040434  0.25000000  0.68497953  1
  Tc  Tc2  1  0.81880892  0.75000000  0.18521594  1
  B  B0  1  0.36931082  0.07740775  0.53537589  1
  B  B1  1  0.87118983  0.42179992  0.96389558  1
  B  B2  1  0.62966110  0.57760400  0.46399114  1
  B  B3  1  0.13070682  0.92287859  0.03718783  1
  B  B4  1  0.62966110  0.92239600  0.46399114  1
  B  B5  1  0.13070682  0.57712141  0.03718783  1
  B  B6  1  0.36931082  0.42259225  0.53537589  1
  B  B7  1  0.87118983  0.07820008  0.96389558  1
loop_
_geom_bond_atom_site_label_1
_geom_bond_atom_site_label_2
_geom_bond_distance
_geom_bond_site_symmetry_2
Re0 Y2 3.001412 1_455
Tc0 Y1 2.984389 1_556
Tc1 Y0 2.992781 1_655
Tc2 Y3 2.985383 1_554
B0 B4 1.813271 1_545
B0 B6 1.823122 1_555
B0 Re0 2.260537 1_545
B0 Tc1 2.276049 1_555
B0 Tc0 2.312676 1_555
B0 Y0 2.619694 1_555
B0 Y3 2.697054 1_545
B0 Y1 2.727877 1_555
B0 Y2 2.986978 1_445
B1 B5 1.810853 1_656
B1 B7 1.814753 1_555
B1 Tc2 2.266321 1_556
B1 Tc0 2.267988 1_655
B1 Tc1 2.308658 1_555
B1 Y1 2.628940 1_556
B1 Y2 2.692837 1_555
B1 Y0 2.717654 1_656
B1 Y3 2.990020 1_555
B2 B6 1.813271 1_555
B2 B4 1.821049 1_555
B2 Tc1 2.260235 1_555
B2 Re0 2.275219 1_555
B2 Tc2 2.309013 1_555
B2 Y2 2.624722 1_555
B2 Y1 2.696940 1_555
B2 Y3 2.722715 1_555
B2 Y0 2.986016 1_655
B3 B7 1.810853 1_464
B3 B5 1.826147 1_555
B3 Tc0 2.263383 1_564
B3 Tc2 2.280361 1_455
B3 Re0 2.292992 1_555
B3 Y3 2.630685 1_554
B3 Y0 2.691924 1_565
B3 Y2 2.726352 1_454
B3 Y1 2.976887 1_565
B4 Tc1 2.260235 1_565
B4 Re0 2.275219 1_555
B4 Tc2 2.309013 1_555
B4 Y2 2.624722 1_555
B4 Y1 2.696940 1_565
B4 Y3 2.722715 1_555
B4 Y0 2.986016 1_665
B5 Tc0 2.263383 1_554
B5 Tc2 2.280361 1_455
B5 Re0 2.292992 1_555
B5 Y3 2.630685 1_554
B5 Y0 2.691924 1_555
B5 Y2 2.726352 1_454
B5 Y1 2.976887 1_555
B6 Re0 2.260537 1_555
B6 Tc1 2.276049 1_555
B6 Tc0 2.312676 1_555
B6 Y0 2.619694 1_555
B6 Y3 2.697054 1_555
B6 Y1 2.727877 1_555
B6 Y2 2.986978 1_455
B7 Tc2 2.266321 1_546
B7 Tc0 2.267988 1_655
B7 Tc1 2.308658 1_555
B7 Y1 2.628940 1_556
B7 Y2 2.692837 1_545
B7 Y0 2.717654 1_656
B7 Y3 2.990020 1_545
