# generated using pymatgen
data_CsNa(SiAs)6
_symmetry_space_group_name_H-M   'P 1'
_cell_length_a   3.67575789
_cell_length_b   10.12128333
_cell_length_c   19.63742422
_cell_angle_alpha   95.01715283
_cell_angle_beta   90.00000000
_cell_angle_gamma   90.00000000
_symmetry_Int_Tables_number   1
_chemical_formula_structural   CsNa(SiAs)6
_chemical_formula_sum   'Cs2 Na2 Si12 As12'
_cell_volume   727.77952641
_cell_formula_units_Z   2
loop_
 _symmetry_equiv_pos_site_id
 _symmetry_equiv_pos_as_xyz
  1  'x, y, z'
loop_
 _atom_site_type_symbol
 _atom_site_label
 _atom_site_symmetry_multiplicity
 _atom_site_fract_x
 _atom_site_fract_y
 _atom_site_fract_z
 _atom_site_occupancy
  Cs  Cs0  1  0.00000000  0.18904225  0.79706503  1
  Cs  Cs1  1  0.00000000  0.81095775  0.20293497  1
  Na  Na0  1  0.00000000  0.32457053  0.29874678  1
  Na  Na1  1  0.00000000  0.67542947  0.70125322  1
  Si  Si0  1  0.50000000  0.41371661  0.03580535  1
  Si  Si1  1  0.50000000  0.58628339  0.96419465  1
  Si  Si2  1  0.50000000  0.10160276  0.53231820  1
  Si  Si3  1  0.50000000  0.89839724  0.46768180  1
  Si  Si4  1  0.00000000  0.11367173  0.01720122  1
  Si  Si5  1  0.00000000  0.88632827  0.98279878  1
  Si  Si6  1  0.00000000  0.38961103  0.51148241  1
  Si  Si7  1  0.00000000  0.61038897  0.48851759  1
  Si  Si8  1  0.00000000  0.19860135  0.13303515  1
  Si  Si9  1  0.00000000  0.80139865  0.86696485  1
  Si  Si10  1  0.00000000  0.34819807  0.62646164  1
  Si  Si11  1  0.00000000  0.65180193  0.37353836  1
  As  As0  1  0.50000000  0.13941019  0.19746881  1
  As  As1  1  0.50000000  0.86058981  0.80253119  1
  As  As2  1  0.50000000  0.42631302  0.69182586  1
  As  As3  1  0.50000000  0.57368698  0.30817414  1
  As  As4  1  0.50000000  0.27593783  0.45518698  1
  As  As5  1  0.50000000  0.72406217  0.54481302  1
  As  As6  1  0.50000000  0.21051619  0.96267730  1
  As  As7  1  0.50000000  0.78948381  0.03732270  1
  As  As8  1  0.00000000  0.43214716  0.11287144  1
  As  As9  1  0.00000000  0.56785284  0.88712856  1
  As  As10  1  0.00000000  0.10869632  0.60892117  1
  As  As11  1  0.00000000  0.89130368  0.39107883  1
loop_
_geom_bond_atom_site_label_1
_geom_bond_atom_site_label_2
_geom_bond_distance
_geom_bond_site_symmetry_2
Si0 Si1 2.336181 1_554
Si2 Si3 2.320456 1_545
Si4 Si5 2.340757 1_544
Si4 Si8 2.360313 1_555
Si5 Si9 2.360313 1_555
Si6 Si7 2.317946 1_555
Si10 Si6 2.332234 1_555
Si11 Si7 2.332234 1_555
As0 Si8 2.338869 1_655
As0 Si8 2.338869 1_555
As0 Na0 3.192720 1_555
As0 Na0 3.192720 1_655
As0 Cs1 3.808294 1_645
As0 Cs1 3.808294 1_545
As1 Si9 2.338869 1_555
As1 Si9 2.338869 1_655
As1 Na1 3.192720 1_655
As1 Na1 3.192720 1_555
As1 Cs0 3.808294 1_665
As1 Cs0 3.808294 1_565
As2 Si10 2.339439 1_655
As2 Si10 2.339439 1_555
As2 Na1 3.112519 1_555
As2 Na1 3.112519 1_655
As2 Cs0 3.779409 1_555
As2 Cs0 3.779409 1_655
As3 Si11 2.339439 1_655
As3 Si11 2.339439 1_555
As3 Na0 3.112519 1_555
As3 Na0 3.112519 1_655
As3 Cs1 3.779409 1_555
As3 Cs1 3.779409 1_655
As4 Si6 2.387708 1_655
As4 Si6 2.387708 1_555
As4 Si2 2.423859 1_555
As5 Si7 2.387708 1_655
As5 Si7 2.387708 1_555
As5 Si3 2.423859 1_555
As6 Si4 2.380873 1_556
As6 Si4 2.380873 1_656
As6 Si0 2.403217 1_556
As6 Cs0 3.725346 1_655
As6 Cs0 3.725346 1_555
As7 Si5 2.380873 1_654
As7 Si5 2.380873 1_554
As7 Si1 2.403217 1_554
As7 Cs1 3.725346 1_555
As7 Cs1 3.725346 1_655
As8 Si0 2.377717 1_455
As8 Si0 2.377717 1_555
As8 Si8 2.430631 1_555
As8 Cs1 4.079448 1_555
As9 Si1 2.377717 1_455
As9 Si1 2.377717 1_555
As9 Si9 2.430631 1_555
As9 Cs0 4.079448 1_555
As10 Si2 2.372116 1_555
As10 Si2 2.372116 1_455
As10 Si10 2.418407 1_555
As10 Cs0 3.712992 1_555
As11 Si3 2.372116 1_555
As11 Si3 2.372116 1_455
As11 Si11 2.418407 1_555
As11 Cs1 3.712992 1_555
