# generated using pymatgen
data_Cu4Pd
_symmetry_space_group_name_H-M   'P 1'
_cell_length_a   5.82991692
_cell_length_b   5.82991692
_cell_length_c   7.19125335
_cell_angle_alpha   90.00000000
_cell_angle_beta   90.00000000
_cell_angle_gamma   90.00000000
_symmetry_Int_Tables_number   1
_chemical_formula_structural   Cu4Pd
_chemical_formula_sum   'Cu16 Pd4'
_cell_volume   244.41582478
_cell_formula_units_Z   4
loop_
 _symmetry_equiv_pos_site_id
 _symmetry_equiv_pos_as_xyz
  1  'x, y, z'
loop_
 _atom_site_type_symbol
 _atom_site_label
 _atom_site_symmetry_multiplicity
 _atom_site_fract_x
 _atom_site_fract_y
 _atom_site_fract_z
 _atom_site_occupancy
  Cu  Cu0  1  0.00000000  -0.00000000  0.00000000  1
  Cu  Cu1  1  0.00000000  -0.00000000  0.50000000  1
  Cu  Cu2  1  0.50000000  0.50000000  0.25000000  1
  Cu  Cu3  1  0.50000000  0.50000000  0.75000000  1
  Cu  Cu4  1  0.19239792  0.60473475  0.00000000  1
  Cu  Cu5  1  0.39526525  0.19239792  0.50000000  1
  Cu  Cu6  1  0.60473475  0.80760208  0.50000000  1
  Cu  Cu7  1  0.80760208  0.39526525  0.00000000  1
  Cu  Cu8  1  0.09584427  0.29635118  0.24938685  1
  Cu  Cu9  1  0.70364882  0.09584427  0.74938685  1
  Cu  Cu10  1  0.29635118  0.90415573  0.74938685  1
  Cu  Cu11  1  0.90415573  0.70364882  0.24938685  1
  Cu  Cu12  1  0.90415573  0.70364882  0.75061315  1
  Cu  Cu13  1  0.29635118  0.90415573  0.25061315  1
  Cu  Cu14  1  0.70364882  0.09584427  0.25061315  1
  Cu  Cu15  1  0.09584427  0.29635118  0.75061315  1
  Pd  Pd0  1  0.39714149  0.20808108  0.00000000  1
  Pd  Pd1  1  0.79191892  0.39714149  0.50000000  1
  Pd  Pd2  1  0.20808108  0.60285851  0.50000000  1
  Pd  Pd3  1  0.60285851  0.79191892  0.00000000  1
loop_
_geom_bond_atom_site_label_1
_geom_bond_atom_site_label_2
_geom_bond_distance
_geom_bond_site_symmetry_2
Cu0 Cu12 2.552150 1_444
Cu0 Cu8 2.552150 1_555
Cu0 Cu15 2.552150 1_554
Cu0 Cu11 2.552150 1_445
Cu0 Cu9 2.558355 1_454
Cu0 Cu14 2.558355 1_455
Cu0 Cu10 2.558355 1_544
Cu0 Cu13 2.558355 1_545
Cu0 Cu4 2.562854 1_545
Cu0 Cu7 2.562854 1_455
Cu0 Pd3 2.613852 1_445
Cu0 Pd0 2.613852 1_555
Cu1 Cu9 2.552150 1_455
Cu1 Cu14 2.552150 1_455
Cu1 Cu13 2.552150 1_545
Cu1 Cu10 2.552150 1_545
Cu1 Cu11 2.558355 1_445
Cu1 Cu8 2.558355 1_555
Cu1 Cu12 2.558355 1_445
Cu1 Cu15 2.558355 1_555
Cu1 Cu5 2.562854 1_555
Cu1 Cu6 2.562854 1_445
Cu1 Pd2 2.613852 1_545
Cu1 Pd1 2.613852 1_455
Cu2 Pd1 2.547167 1_555
Cu2 Pd2 2.547167 1_555
Cu2 Pd3 2.547167 1_555
Cu2 Pd0 2.547167 1_555
Cu2 Cu7 2.611678 1_555
Cu2 Cu6 2.611678 1_555
Cu2 Cu4 2.611678 1_555
Cu2 Cu5 2.611678 1_555
Cu2 Cu8 2.638418 1_555
Cu3 Pd1 2.547167 1_555
Cu3 Pd2 2.547167 1_555
Cu3 Pd0 2.547167 1_556
Cu3 Pd3 2.547167 1_556
Cu3 Cu6 2.611678 1_555
Cu3 Cu7 2.611678 1_556
Cu3 Cu4 2.611678 1_556
Cu3 Cu5 2.611678 1_555
Cu3 Cu9 2.638418 1_555
Cu4 Cu7 2.554178 1_455
Cu4 Cu8 2.601042 1_555
Cu4 Pd0 2.602352 1_555
Cu4 Pd3 2.630034 1_555
Cu5 Cu6 2.554178 1_545
Cu5 Cu8 2.581164 1_555
Cu5 Cu9 2.601042 1_555
Cu5 Pd1 2.602352 1_555
Cu5 Pd2 2.630034 1_555
Cu6 Cu9 2.524416 1_565
Cu6 Pd2 2.602352 1_555
Cu6 Pd1 2.630034 1_555
Cu7 Cu8 2.524416 1_655
Cu7 Cu9 2.581164 1_554
Cu7 Pd3 2.602352 1_555
Cu7 Pd0 2.630034 1_555
Cu8 Pd0 2.562527 1_555
Cu8 Pd1 2.594757 1_455
Cu8 Pd2 2.620918 1_555
Cu9 Pd1 2.562527 1_555
Cu9 Pd3 2.594757 1_546
Cu9 Pd0 2.620918 1_556
Cu10 Cu5 2.524416 1_565
Cu10 Pd2 2.562527 1_555
Cu10 Cu12 2.567961 1_455
Cu10 Cu15 2.567961 1_565
Cu10 Cu4 2.581164 1_556
Cu10 Pd0 2.594757 1_566
Cu10 Cu6 2.601042 1_555
Cu10 Pd3 2.620918 1_556
Cu10 Cu9 2.624343 1_565
Cu10 Cu3 2.638418 1_555
Cu11 Cu4 2.524416 1_655
Cu11 Pd3 2.562527 1_555
Cu11 Cu14 2.567961 1_565
Cu11 Cu13 2.567961 1_655
Cu11 Cu6 2.581164 1_555
Cu11 Pd2 2.594757 1_655
Cu11 Cu7 2.601042 1_555
Cu11 Pd1 2.620918 1_555
Cu11 Cu8 2.624343 1_655
Cu11 Cu2 2.638418 1_555
Cu12 Cu4 2.524416 1_656
Cu12 Pd3 2.562527 1_556
Cu12 Cu9 2.567961 1_565
Cu12 Cu6 2.581164 1_555
Cu12 Pd2 2.594757 1_655
Cu12 Cu7 2.601042 1_556
Cu12 Pd1 2.620918 1_555
Cu12 Cu15 2.624343 1_655
Cu12 Cu3 2.638418 1_555
Cu13 Cu5 2.524416 1_565
Cu13 Pd2 2.562527 1_555
Cu13 Cu8 2.567961 1_565
Cu13 Cu4 2.581164 1_555
Cu13 Pd0 2.594757 1_565
Cu13 Cu6 2.601042 1_555
Cu13 Pd3 2.620918 1_555
Cu13 Cu14 2.624343 1_565
Cu13 Cu2 2.638418 1_555
Cu14 Cu6 2.524416 1_545
Cu14 Pd1 2.562527 1_555
Cu14 Cu8 2.567961 1_655
Cu14 Cu7 2.581164 1_555
Cu14 Pd3 2.594757 1_545
Cu14 Cu5 2.601042 1_555
Cu14 Pd0 2.620918 1_555
Cu14 Cu2 2.638418 1_555
Cu15 Cu7 2.524416 1_456
Cu15 Pd0 2.562527 1_556
Cu15 Cu9 2.567961 1_455
Cu15 Cu5 2.581164 1_555
Cu15 Pd1 2.594757 1_455
Cu15 Cu4 2.601042 1_556
Cu15 Pd2 2.620918 1_555
Cu15 Cu3 2.638418 1_555
Pd0 Pd3 2.706428 1_545
Pd1 Pd2 2.706428 1_655
