# generated using pymatgen
data_La2UTe4
_symmetry_space_group_name_H-M   'P 1'
_cell_length_a   8.28828889
_cell_length_b   8.28828889
_cell_length_c   8.28828889
_cell_angle_alpha   109.33205335
_cell_angle_beta   109.33205335
_cell_angle_gamma   109.74991517
_symmetry_Int_Tables_number   1
_chemical_formula_structural   La2UTe4
_chemical_formula_sum   'La4 U2 Te8'
_cell_volume   438.29350785
_cell_formula_units_Z   2
loop_
 _symmetry_equiv_pos_site_id
 _symmetry_equiv_pos_as_xyz
  1  'x, y, z'
loop_
 _atom_site_type_symbol
 _atom_site_label
 _atom_site_symmetry_multiplicity
 _atom_site_fract_x
 _atom_site_fract_y
 _atom_site_fract_z
 _atom_site_occupancy
  La  La0  1  0.49910400  0.87500000  0.12410400  1
  La  La1  1  0.75089600  0.37500000  0.87589600  1
  La  La2  1  0.12500000  0.24910400  0.62410400  1
  La  La3  1  0.62500000  0.50089600  0.37589600  1
  U  U0  1  0.25000000  0.75000000  0.50000000  1
  U  U1  1  0.00000000  0.00000000  0.00000000  1
  Te  Te0  1  0.53091600  0.63130300  0.74972900  1
  Te  Te1  1  0.88157400  0.78118700  0.25027100  1
  Te  Te2  1  0.71908400  0.96881300  0.60038600  1
  Te  Te3  1  0.36869700  0.11842600  0.89961400  1
  Te  Te4  1  0.88130300  0.28091600  0.24972900  1
  Te  Te5  1  0.36842600  0.11869700  0.39961400  1
  Te  Te6  1  0.03118700  0.63157400  0.75027100  1
  Te  Te7  1  0.21881300  0.46908400  0.10038600  1
loop_
_geom_bond_atom_site_label_1
_geom_bond_atom_site_label_2
_geom_bond_distance
_geom_bond_site_symmetry_2
La0 Te0 3.244913 1_554
La0 Te5 3.244918 1_565
La0 Te7 3.275975 1_555
La0 Te4 3.275979 1_565
La0 Te3 3.365801 1_564
La0 Te6 3.365806 1_554
La0 Te2 3.428771 1_555
La0 Te1 3.428779 1_555
La1 Te1 3.244913 1_556
La1 Te2 3.244915 1_545
La1 Te6 3.275979 1_655
La1 Te3 3.275984 1_555
La1 Te7 3.365805 1_656
La1 Te4 3.365806 1_556
La1 Te5 3.428774 1_555
La1 Te0 3.428779 1_555
La2 Te4 3.244913 1_455
La2 Te3 3.244918 1_555
La2 Te2 3.275975 1_445
La2 Te0 3.275979 1_555
La2 Te5 3.365801 1_555
La2 Te1 3.365806 1_445
La2 Te7 3.428771 1_556
La2 Te6 3.428779 1_555
La3 Te6 3.244913 1_655
La3 Te7 3.244915 1_555
La3 Te1 3.275979 1_555
La3 Te5 3.275984 1_555
La3 Te2 3.365805 1_555
La3 Te0 3.365806 1_555
La3 Te3 3.428774 1_554
La3 Te4 3.428779 1_555
Te0 U0 3.221582 1_555
Te0 U1 3.345300 1_666
Te1 U0 3.221582 1_655
Te1 U1 3.345300 1_665
Te2 U1 3.221589 1_666
Te2 U0 3.345302 1_555
Te3 U0 3.221587 1_545
Te3 U1 3.345294 1_556
Te4 U1 3.221582 1_655
Te4 U0 3.345300 1_655
Te5 U1 3.221587 1_555
Te5 U0 3.345294 1_545
Te6 U1 3.221582 1_566
Te6 U0 3.345300 1_555
Te7 U0 3.221589 1_555
Te7 U1 3.345302 1_555
