# generated using pymatgen
data_K6AlBi3
_symmetry_space_group_name_H-M   'P 1'
_cell_length_a   6.12770803
_cell_length_b   10.67256534
_cell_length_c   12.25963109
_cell_angle_alpha   79.36567157
_cell_angle_beta   90.00000000
_cell_angle_gamma   90.00000000
_symmetry_Int_Tables_number   1
_chemical_formula_structural   K6AlBi3
_chemical_formula_sum   'K12 Al2 Bi6'
_cell_volume   787.98956294
_cell_formula_units_Z   2
loop_
 _symmetry_equiv_pos_site_id
 _symmetry_equiv_pos_as_xyz
  1  'x, y, z'
loop_
 _atom_site_type_symbol
 _atom_site_label
 _atom_site_symmetry_multiplicity
 _atom_site_fract_x
 _atom_site_fract_y
 _atom_site_fract_z
 _atom_site_occupancy
  K  K0  1  0.75000000  0.12225908  0.32248504  1
  K  K1  1  0.25000000  0.87774092  0.67751496  1
  K  K2  1  0.75000000  0.13447839  0.97722231  1
  K  K3  1  0.25000000  0.86552161  0.02277769  1
  K  K4  1  0.75000000  0.43922195  0.46061822  1
  K  K5  1  0.25000000  0.56077805  0.53938178  1
  K  K6  1  0.75000000  0.45596063  0.07926513  1
  K  K7  1  0.25000000  0.54403937  0.92073487  1
  K  K8  1  0.75000000  0.74280985  0.21986053  1
  K  K9  1  0.25000000  0.25719015  0.78013947  1
  K  K10  1  0.75000000  0.08092121  0.62991588  1
  K  K11  1  0.25000000  0.91907879  0.37008412  1
  Al  Al0  1  0.75000000  0.68118752  0.71991798  1
  Al  Al1  1  0.25000000  0.31881248  0.28008202  1
  Bi  Bi0  1  0.75000000  0.42632345  0.77774172  1
  Bi  Bi1  1  0.25000000  0.57367655  0.22225828  1
  Bi  Bi2  1  0.75000000  0.78877429  0.50258709  1
  Bi  Bi3  1  0.25000000  0.21122571  0.49741291  1
  Bi  Bi4  1  0.75000000  0.83197507  0.87949883  1
  Bi  Bi5  1  0.25000000  0.16802493  0.12050117  1
loop_
_geom_bond_atom_site_label_1
_geom_bond_atom_site_label_2
_geom_bond_distance
_geom_bond_site_symmetry_2
K0 K10 3.712978 1_555
K0 K11 3.736695 1_545
K0 K11 3.736695 1_645
K0 K4 4.052842 1_555
K0 K6 4.201850 1_555
K0 K2 4.210679 1_554
K0 K8 4.456843 1_545
K1 K11 3.712978 1_555
K1 K10 3.736695 1_465
K1 K10 3.736695 1_565
K1 K5 4.052842 1_555
K1 K7 4.201850 1_555
K1 K3 4.210679 1_556
K1 K9 4.456843 1_565
K2 K6 3.862803 1_556
K2 K9 3.971440 1_655
K2 K9 3.971440 1_555
K2 K3 4.164969 1_646
K2 K3 4.164969 1_546
K2 K8 4.661823 1_546
K3 K7 3.862803 1_554
K3 K8 3.971440 1_455
K3 K8 3.971440 1_555
K3 K9 4.661823 1_564
K4 K5 3.530578 1_555
K4 K5 3.530578 1_655
K4 K8 3.959835 1_555
K5 K9 3.959835 1_555
K6 K7 3.657025 1_554
K6 K7 3.657025 1_654
K6 K8 3.780318 1_555
K7 K9 3.780318 1_555
K10 K4 4.000173 1_555
K10 K9 4.194856 1_555
K10 K9 4.194856 1_655
K10 K2 4.399346 1_555
K11 K5 4.000173 1_555
K11 K8 4.194856 1_555
K11 K8 4.194856 1_455
K11 K3 4.399346 1_555
Al0 Bi0 2.681334 1_555
Al0 Bi2 2.699684 1_555
Al0 Bi4 2.753061 1_555
Al0 K1 3.695325 1_655
Al0 K1 3.695325 1_555
Al1 Bi1 2.681334 1_555
Al1 Bi3 2.699684 1_555
Al1 Bi5 2.753061 1_555
Al1 K0 3.695325 1_455
Al1 K0 3.695325 1_555
Bi0 K9 3.553423 1_555
Bi0 K9 3.553423 1_655
Bi0 K2 3.587610 1_555
Bi0 K6 3.767783 1_556
Bi0 K7 3.853777 1_655
Bi0 K7 3.853777 1_555
Bi0 K4 3.864782 1_555
Bi1 K8 3.553423 1_455
Bi1 K8 3.553423 1_555
Bi1 K3 3.587610 1_555
Bi1 K7 3.767783 1_554
Bi1 K6 3.853777 1_555
Bi1 K6 3.853777 1_455
Bi1 K5 3.864782 1_555
Bi2 K8 3.589181 1_555
Bi2 K11 3.623012 1_555
Bi2 K11 3.623012 1_655
Bi2 K10 3.735607 1_565
Bi2 K0 3.826517 1_565
Bi2 K4 3.858848 1_555
Bi2 K5 3.886713 1_555
Bi2 K5 3.886713 1_655
Bi2 K1 3.954668 1_555
Bi2 K1 3.954668 1_655
Bi3 K9 3.589181 1_555
Bi3 K10 3.623012 1_455
Bi3 K10 3.623012 1_555
Bi3 K11 3.735607 1_545
Bi3 K1 3.826517 1_545
Bi3 K5 3.858848 1_555
Bi3 K4 3.886713 1_455
Bi3 K4 3.886713 1_555
Bi3 K0 3.954668 1_455
Bi3 K0 3.954668 1_555
Bi4 K3 3.582311 1_656
Bi4 K3 3.582311 1_556
Bi4 K2 3.645000 1_565
Bi4 K10 3.663465 1_565
Bi4 K1 3.912950 1_555
Bi4 K1 3.912950 1_655
Bi4 K8 4.105061 1_556
Bi5 K2 3.582311 1_454
Bi5 K2 3.582311 1_554
Bi5 K3 3.645000 1_545
Bi5 K11 3.663465 1_545
Bi5 K0 3.912950 1_455
Bi5 K0 3.912950 1_555
Bi5 K9 4.105061 1_554
