# generated using pymatgen
data_Pr2Se3
_symmetry_space_group_name_H-M   'P 1'
_cell_length_a   23.38628855
_cell_length_b   9.00659711
_cell_length_c   9.00654919
_cell_angle_alpha   90.00489026
_cell_angle_beta   54.71618472
_cell_angle_gamma   54.71616811
_symmetry_Int_Tables_number   1
_chemical_formula_structural   Pr2Se3
_chemical_formula_sum   'Pr16 Se24'
_cell_volume   1094.12151824
_cell_formula_units_Z   8
loop_
 _symmetry_equiv_pos_site_id
 _symmetry_equiv_pos_as_xyz
  1  'x, y, z'
loop_
 _atom_site_type_symbol
 _atom_site_label
 _atom_site_symmetry_multiplicity
 _atom_site_fract_x
 _atom_site_fract_y
 _atom_site_fract_z
 _atom_site_occupancy
  Pr  Pr0  1  0.08425751  0.62361945  0.37352223  1
  Pr  Pr1  1  0.16663146  0.25006007  0.63077782  1
  Pr  Pr2  1  0.33770505  0.37888480  0.25166629  1
  Pr  Pr3  1  0.24907265  0.87637626  0.12633771  1
  Pr  Pr4  1  0.33778435  0.10775288  0.73524760  1
  Pr  Pr5  1  0.16664348  0.75000768  0.86923546  1
  Pr  Pr6  1  0.49559638  0.26471519  0.62108268  1
  Pr  Pr7  1  0.66664348  0.36923546  0.25000768  1
  Pr  Pr8  1  0.58425751  0.87352223  0.12361945  1
  Pr  Pr9  1  0.66663046  0.13077782  0.75006007  1
  Pr  Pr10  1  0.49558751  0.74853564  0.89219814  1
  Pr  Pr11  1  0.74907265  0.62633771  0.37637626  1
  Pr  Pr12  1  0.83778435  0.23524760  0.60775188  1
  Pr  Pr13  1  0.99558851  0.39219714  0.24853464  1
  Pr  Pr14  1  0.99559738  0.12108368  0.76471519  1
  Pr  Pr15  1  0.83770505  0.75166629  0.87888380  1
  Se  Se0  1  0.05008993  0.99911442  0.35381407  1
  Se  Se1  1  0.12547845  0.48929550  0.99277451  1
  Se  Se2  1  0.04994878  0.35091812  0.49625831  1
  Se  Se3  1  0.28316619  0.14948637  0.14656463  1
  Se  Se4  1  0.28329126  0.50068251  0.00391756  1
  Se  Se5  1  0.12521519  0.63466767  0.63117354  1
  Se  Se6  1  0.38418516  0.00095673  0.34393965  1
  Se  Se7  1  0.20798340  0.86525997  0.50692517  1
  Se  Se8  1  0.44921566  0.49632408  -0.00130252  1
  Se  Se9  1  0.38417643  0.34617760  0.50365596  1
  Se  Se10  1  0.20801125  0.01076447  0.86899360  1
  Se  Se11  1  0.62521419  0.13117454  0.13466767  1
  Se  Se12  1  0.62547845  0.49277351  0.98929550  1
  Se  Se13  1  0.44929593  0.65602536  0.65359981  1
  Se  Se14  1  0.70798340  0.00692517  0.36525897  1
  Se  Se15  1  0.55008993  0.85381407  0.49911442  1
  Se  Se16  1  0.78329126  0.50391856  0.00068251  1
  Se  Se17  1  0.70801125  0.36899260  0.51076347  1
  Se  Se18  1  0.54994878  0.99625831  0.85091812  1
  Se  Se19  1  0.94929593  0.15359981  0.15602636  1
  Se  Se20  1  0.94921566  0.49869648  0.99632408  1
  Se  Se21  1  0.78316619  0.64656363  0.64948637  1
  Se  Se22  1  0.88418516  0.84393865  0.50095673  1
  Se  Se23  1  0.88417643  0.00365596  0.84617760  1
loop_
_geom_bond_atom_site_label_1
_geom_bond_atom_site_label_2
_geom_bond_distance
_geom_bond_site_symmetry_2
Pr0 Se1 2.997573 1_554
Pr0 Se5 2.998369 1_555
Pr0 Se0 3.024817 1_555
Pr0 Se2 3.025007 1_555
Pr0 Se3 3.180855 1_555
Pr0 Se4 3.180913 1_555
Pr0 Se23 3.196187 1_465
Pr0 Se22 3.196408 1_455
Pr1 Se5 3.009559 1_555
Pr1 Se7 3.011981 1_545
Pr1 Se20 3.035238 1_455
Pr1 Se6 3.036551 1_555
Pr1 Se10 3.189768 1_555
Pr1 Se1 3.190134 1_555
Pr1 Se3 3.268603 1_555
Pr1 Se2 3.270345 1_555
Pr2 Se5 2.972435 1_555
Pr2 Se9 2.983040 1_555
Pr2 Se18 3.013433 1_544
Pr2 Se8 3.071397 1_555
Pr2 Se4 3.077298 1_555
Pr2 Se6 3.198138 1_555
Pr2 Se7 3.204157 1_555
Pr2 Se3 3.351187 1_555
Pr3 Se10 2.998041 1_564
Pr3 Se7 2.998175 1_555
Pr3 Se3 3.025385 1_565
Pr3 Se4 3.026134 1_555
Pr3 Se0 3.180714 1_555
Pr3 Se2 3.183334 1_565
Pr3 Se8 3.196950 1_555
Pr3 Se13 3.197418 1_554
Pr4 Se1 2.970541 1_555
Pr4 Se6 2.983137 1_555
Pr4 Se15 3.014520 1_545
Pr4 Se13 3.069401 1_545
Pr4 Se3 3.078161 1_556
Pr4 Se9 3.196412 1_555
Pr4 Se10 3.203788 1_555
Pr4 Se4 3.351041 1_556
Pr5 Se1 3.008820 1_555
Pr5 Se10 3.012294 1_565
Pr5 Se19 3.034332 1_466
Pr5 Se9 3.036709 1_555
Pr5 Se7 3.189952 1_555
Pr5 Se5 3.190181 1_555
Pr5 Se0 3.271315 1_556
Pr5 Se4 3.271416 1_556
Pr6 Se14 2.970766 1_555
Pr6 Se13 2.983998 1_555
Pr6 Se4 3.014667 1_556
Pr6 Se9 3.069479 1_555
Pr6 Se15 3.075769 1_545
Pr6 Se8 3.196552 1_556
Pr6 Se11 3.205212 1_555
Pr6 Se18 3.352148 1_545
Pr7 Se12 3.008807 1_554
Pr7 Se17 3.012271 1_555
Pr7 Se13 3.034327 1_555
Pr7 Se23 3.036707 1_554
Pr7 Se14 3.189959 1_555
Pr7 Se11 3.190201 1_555
Pr7 Se15 3.271332 1_555
Pr7 Se16 3.271428 1_555
Pr8 Se12 2.997597 1_554
Pr8 Se11 2.998371 1_565
Pr8 Se15 3.024800 1_555
Pr8 Se18 3.024995 1_554
Pr8 Se21 3.180841 1_554
Pr8 Se16 3.180917 1_555
Pr8 Se9 3.196193 1_565
Pr8 Se6 3.196406 1_565
Pr9 Se11 3.009540 1_556
Pr9 Se14 3.011960 1_555
Pr9 Se8 3.035226 1_556
Pr9 Se22 3.036569 1_545
Pr9 Se17 3.189776 1_555
Pr9 Se12 3.190152 1_555
Pr9 Se21 3.268629 1_545
Pr9 Se18 3.270331 1_545
Pr10 Se17 2.971534 1_555
Pr10 Se8 2.983403 1_556
Pr10 Se3 3.015591 1_566
Pr10 Se6 3.069216 1_566
Pr10 Se18 3.076259 1_555
Pr10 Se13 3.195867 1_555
Pr10 Se12 3.206865 1_555
Pr10 Se15 3.352806 1_555
Pr11 Se17 2.998058 1_555
Pr11 Se14 2.998195 1_565
Pr11 Se21 3.025370 1_555
Pr11 Se16 3.026116 1_555
Pr11 Se15 3.180714 1_555
Pr11 Se18 3.183327 1_555
Pr11 Se20 3.196939 1_554
Pr11 Se19 3.197432 1_555
Pr12 Se12 2.970539 1_555
Pr12 Se22 2.983162 1_545
Pr12 Se0 3.014521 1_645
Pr12 Se19 3.069367 1_555
Pr12 Se21 3.078170 1_555
Pr12 Se23 3.196415 1_555
Pr12 Se17 3.203785 1_555
Pr12 Se16 3.351044 1_556
Pr13 Se10 2.971520 1_654
Pr13 Se20 2.983398 1_554
Pr13 Se21 3.015599 1_555
Pr13 Se22 3.069225 1_555
Pr13 Se2 3.076239 1_655
Pr13 Se19 3.195879 1_555
Pr13 Se1 3.206855 1_654
Pr13 Se0 3.352817 1_645
Pr14 Se7 2.970748 1_645
Pr14 Se19 2.983981 1_556
Pr14 Se16 3.014686 1_556
Pr14 Se23 3.069514 1_555
Pr14 Se0 3.075763 1_645
Pr14 Se20 3.196532 1_555
Pr14 Se5 3.205238 1_645
Pr14 Se2 3.352136 1_655
Pr15 Se11 2.972454 1_566
Pr15 Se23 2.983053 1_565
Pr15 Se2 3.013433 1_655
Pr15 Se20 3.071405 1_555
Pr15 Se16 3.077302 1_556
Pr15 Se22 3.198113 1_555
Pr15 Se14 3.204140 1_566
Pr15 Se21 3.351178 1_555
