# generated using pymatgen
data_RbSb12Ru3Au
_symmetry_space_group_name_H-M   'P 1'
_cell_length_a   8.18181714
_cell_length_b   8.16417514
_cell_length_c   8.18181776
_cell_angle_alpha   109.42754211
_cell_angle_beta   109.51486062
_cell_angle_gamma   109.42754674
_symmetry_Int_Tables_number   1
_chemical_formula_structural   RbSb12Ru3Au
_chemical_formula_sum   'Rb1 Sb12 Ru3 Au1'
_cell_volume   420.94350013
_cell_formula_units_Z   1
loop_
 _symmetry_equiv_pos_site_id
 _symmetry_equiv_pos_as_xyz
  1  'x, y, z'
loop_
 _atom_site_type_symbol
 _atom_site_label
 _atom_site_symmetry_multiplicity
 _atom_site_fract_x
 _atom_site_fract_y
 _atom_site_fract_z
 _atom_site_occupancy
  Rb  Rb0  1  0.00000000  0.00000000  0.00000000  1
  Sb  Sb0  1  0.16228709  0.50141290  0.35859300  1
  Sb  Sb1  1  0.50258442  0.66194184  0.84147940  1
  Sb  Sb2  1  0.35859300  0.85718011  0.19630691  1
  Sb  Sb3  1  0.80369309  0.66087419  0.16228709  1
  Sb  Sb4  1  0.66110502  0.84064257  0.50258442  1
  Sb  Sb5  1  0.19630691  0.33912581  0.83771291  1
  Sb  Sb6  1  0.64140700  0.14281989  0.80369309  1
  Sb  Sb7  1  0.33889498  0.15935743  0.49741558  1
  Sb  Sb8  1  0.49741558  0.33805816  0.15852060  1
  Sb  Sb9  1  0.83771291  0.49858710  0.64140700  1
  Sb  Sb10  1  0.84147940  0.17953855  0.33889498  1
  Sb  Sb11  1  0.15852060  0.82046145  0.66110502  1
  Ru  Ru0  1  0.50000000  0.50000000  0.50000000  1
  Ru  Ru1  1  0.50000000  0.00000000  0.00000000  1
  Ru  Ru2  1  0.00000000  0.00000000  0.50000000  1
  Au  Au0  1  0.00000000  0.50000000  0.00000000  1
loop_
_geom_bond_atom_site_label_1
_geom_bond_atom_site_label_2
_geom_bond_distance
_geom_bond_site_symmetry_2
Rb0 Sb8 3.533076 1_555
Rb0 Sb1 3.533076 1_444
Rb0 Sb7 3.533076 1_555
Rb0 Sb4 3.533076 1_444
Rb0 Sb10 3.533078 1_455
Rb0 Sb11 3.533078 1_544
Rb0 Sb9 3.594514 1_444
Rb0 Sb0 3.594514 1_555
Rb0 Sb2 3.594516 1_545
Rb0 Sb6 3.594516 1_454
Rb0 Sb5 3.594516 1_554
Rb0 Sb3 3.594516 1_445
Sb0 Sb10 2.944187 1_455
Sb0 Sb11 2.954229 1_555
Sb1 Sb3 2.944187 1_556
Sb1 Sb5 2.954229 1_555
Sb2 Sb7 2.944187 1_565
Sb2 Sb4 2.954228 1_555
Sb3 Sb8 2.954229 1_555
Sb4 Sb6 2.944187 1_565
Sb5 Sb8 2.944187 1_556
Sb6 Sb7 2.954228 1_555
Sb10 Sb9 2.954229 1_555
Sb11 Sb9 2.944187 1_455
Ru0 Sb9 2.620636 1_555
Ru0 Sb0 2.620636 1_555
Ru0 Sb4 2.641193 1_555
Ru0 Sb7 2.641193 1_555
Ru0 Sb1 2.653129 1_555
Ru0 Sb8 2.653129 1_555
Ru1 Sb6 2.620643 1_554
Ru1 Sb2 2.620643 1_545
Ru1 Sb8 2.641193 1_555
Ru1 Sb1 2.641193 1_544
Ru1 Sb10 2.653128 1_555
Ru1 Sb11 2.653128 1_544
Ru2 Sb5 2.620635 1_555
Ru2 Sb3 2.620635 1_445
Ru2 Sb11 2.641200 1_545
Ru2 Sb10 2.641200 1_455
Ru2 Sb7 2.653129 1_555
Ru2 Sb4 2.653129 1_445
Au0 Sb2 2.781327 1_555
Au0 Sb6 2.781327 1_454
Au0 Sb0 2.781328 1_555
Au0 Sb9 2.781328 1_454
Au0 Sb5 2.781335 1_554
Au0 Sb3 2.781335 1_455
