# generated using pymatgen
data_Hf5GaSn2Sb
_symmetry_space_group_name_H-M   'P 1'
_cell_length_a   8.59247847
_cell_length_b   8.58323959
_cell_length_c   5.76722236
_cell_angle_alpha   90.00000000
_cell_angle_beta   90.00000000
_cell_angle_gamma   119.96443977
_symmetry_Int_Tables_number   1
_chemical_formula_structural   Hf5GaSn2Sb
_chemical_formula_sum   'Hf10 Ga2 Sn4 Sb2'
_cell_volume   368.48729989
_cell_formula_units_Z   2
loop_
 _symmetry_equiv_pos_site_id
 _symmetry_equiv_pos_as_xyz
  1  'x, y, z'
loop_
 _atom_site_type_symbol
 _atom_site_label
 _atom_site_symmetry_multiplicity
 _atom_site_fract_x
 _atom_site_fract_y
 _atom_site_fract_z
 _atom_site_occupancy
  Hf  Hf0  1  0.73482648  0.73526911  0.75000000  1
  Hf  Hf1  1  0.26517352  0.00044163  0.75000000  1
  Hf  Hf2  1  1.00000000  0.26379248  0.75000000  1
  Hf  Hf3  1  0.26946583  0.26937698  0.25000000  1
  Hf  Hf4  1  0.73053417  0.99991115  0.25000000  1
  Hf  Hf5  1  0.00000000  0.73129663  0.25000000  1
  Hf  Hf6  1  0.66601818  0.33280564  0.00112337  1
  Hf  Hf7  1  0.33398182  0.66678846  0.00112337  1
  Hf  Hf8  1  0.33398182  0.66678846  0.49887663  1
  Hf  Hf9  1  0.66601818  0.33280564  0.49887663  1
  Ga  Ga0  1  0.00000000  0.99943554  0.00516061  1
  Ga  Ga1  1  0.00000000  0.99943554  0.49483939  1
  Sn  Sn0  1  1.00000000  0.60898189  0.75000000  1
  Sn  Sn1  1  0.61310403  0.61267021  0.25000000  1
  Sn  Sn2  1  0.38689597  0.99956618  0.25000000  1
  Sn  Sn3  1  0.00000000  0.38891234  0.25000000  1
  Sb  Sb0  1  0.39193510  0.39182911  0.75000000  1
  Sb  Sb1  1  0.60806490  0.99989400  0.75000000  1
loop_
_geom_bond_atom_site_label_1
_geom_bond_atom_site_label_2
_geom_bond_distance
_geom_bond_site_symmetry_2
Hf0 Sb0 2.948641 1_555
Hf0 Sb1 2.969276 1_555
Hf0 Sn0 2.972144 1_555
Hf0 Sn1 3.068718 1_556
Hf0 Sn1 3.068718 1_555
Hf1 Sb1 2.948637 1_545
Hf1 Sb0 2.969284 1_555
Hf1 Sn0 2.972137 1_445
Hf1 Sn2 3.068717 1_545
Hf1 Sn2 3.068717 1_546
Hf2 Sn0 2.962843 1_555
Hf2 Sb1 2.975245 1_545
Hf2 Sb0 2.975245 1_655
Hf2 Sn3 3.077100 1_656
Hf2 Sn3 3.077100 1_655
Hf3 Sn1 2.951226 1_555
Hf3 Sn2 2.952202 1_545
Hf3 Sn3 2.964234 1_555
Hf3 Sb0 3.069597 1_555
Hf3 Sb0 3.069597 1_554
Hf4 Sn2 2.951226 1_555
Hf4 Sn1 2.952202 1_555
Hf4 Sn3 2.964234 1_665
Hf4 Sb1 3.069597 1_555
Hf4 Sb1 3.069597 1_554
Hf5 Sn3 2.938766 1_555
Hf5 Sn2 2.950776 1_555
Hf5 Sn1 2.950776 1_455
Hf5 Sn0 3.068780 1_455
Hf5 Sn0 3.068780 1_454
Hf6 Sb1 3.014829 1_544
Hf6 Sb0 3.015340 1_554
Hf6 Sn1 3.021287 1_555
Hf6 Sn2 3.023385 1_545
Hf6 Sn3 3.024389 1_655
Hf6 Sn0 3.026012 1_554
Hf7 Sb0 3.014837 1_554
Hf7 Sb1 3.015335 1_554
Hf7 Sn2 3.021280 1_555
Hf7 Sn1 3.023389 1_555
Hf7 Sn3 3.024391 1_555
Hf7 Sn0 3.026009 1_454
Hf8 Sb0 3.014837 1_555
Hf8 Sb1 3.015335 1_555
Hf8 Sn2 3.021280 1_555
Hf8 Sn1 3.023389 1_555
Hf8 Sn3 3.024391 1_555
Hf8 Sn0 3.026009 1_455
Hf9 Sb1 3.014829 1_545
Hf9 Sb0 3.015340 1_555
Hf9 Sn1 3.021287 1_555
Hf9 Sn2 3.023385 1_545
Hf9 Sn3 3.024389 1_655
Hf9 Sn0 3.026012 1_555
Ga0 Hf5 2.700143 1_555
Ga0 Hf2 2.704450 1_464
Ga0 Hf0 2.708775 1_454
Ga0 Hf1 2.708779 1_564
Ga0 Hf3 2.713725 1_565
Ga0 Hf4 2.713726 1_455
Ga1 Hf5 2.700143 1_555
Ga1 Hf2 2.704450 1_465
Ga1 Hf0 2.708775 1_455
Ga1 Hf1 2.708779 1_565
Ga1 Hf3 2.713725 1_565
Ga1 Hf4 2.713726 1_455
