# generated using pymatgen
data_Rb2LiInSb2
_symmetry_space_group_name_H-M   'P 1'
_cell_length_a   11.01276369
_cell_length_b   11.01276305
_cell_length_c   6.94526331
_cell_angle_alpha   90.00000000
_cell_angle_beta   90.00000000
_cell_angle_gamma   101.24206599
_symmetry_Int_Tables_number   1
_chemical_formula_structural   Rb2LiInSb2
_chemical_formula_sum   'Rb8 Li4 In4 Sb8'
_cell_volume   826.16582961
_cell_formula_units_Z   4
loop_
 _symmetry_equiv_pos_site_id
 _symmetry_equiv_pos_as_xyz
  1  'x, y, z'
loop_
 _atom_site_type_symbol
 _atom_site_label
 _atom_site_symmetry_multiplicity
 _atom_site_fract_x
 _atom_site_fract_y
 _atom_site_fract_z
 _atom_site_occupancy
  Rb  Rb0  1  0.57733264  0.92266736  0.75000000  1
  Rb  Rb1  1  0.92266736  0.57733264  0.25000000  1
  Rb  Rb2  1  0.42266736  0.07733264  0.25000000  1
  Rb  Rb3  1  0.07733264  0.42266736  0.75000000  1
  Rb  Rb4  1  0.67074817  0.32925183  0.77126872  1
  Rb  Rb5  1  0.82925183  0.17074817  0.27126872  1
  Rb  Rb6  1  0.32925183  0.67074817  0.22873128  1
  Rb  Rb7  1  0.17074817  0.82925183  0.72873128  1
  Li  Li0  1  0.61972398  0.61972398  0.00000000  1
  Li  Li1  1  0.88027602  0.88027602  0.50000000  1
  Li  Li2  1  0.38027602  0.38027602  0.00000000  1
  Li  Li3  1  0.11972398  0.11972398  0.50000000  1
  In  In0  1  0.86798869  0.86798869  0.00000000  1
  In  In1  1  0.63201131  0.63201131  0.50000000  1
  In  In2  1  0.13201131  0.13201131  0.00000000  1
  In  In3  1  0.36798869  0.36798869  0.50000000  1
  Sb  Sb0  1  0.34750896  0.15249104  0.75000000  1
  Sb  Sb1  1  0.15249104  0.34750896  0.25000000  1
  Sb  Sb2  1  0.65249104  0.84750896  0.25000000  1
  Sb  Sb3  1  0.84750896  0.65249104  0.75000000  1
  Sb  Sb4  1  0.90528564  0.09471436  0.77188938  1
  Sb  Sb5  1  0.59471436  0.40528564  0.27188938  1
  Sb  Sb6  1  0.09471436  0.90528564  0.22811062  1
  Sb  Sb7  1  0.40528564  0.59471436  0.72811062  1
loop_
_geom_bond_atom_site_label_1
_geom_bond_atom_site_label_2
_geom_bond_distance
_geom_bond_site_symmetry_2
Rb0 Sb2 3.700875 1_555
Rb0 Sb2 3.700875 1_556
Rb0 Sb7 3.740190 1_555
Rb0 Sb4 3.740190 1_565
Rb0 Sb0 3.912747 1_565
Rb1 Sb3 3.700875 1_554
Rb1 Sb3 3.700875 1_555
Rb1 Sb6 3.740190 1_655
Rb1 Sb5 3.740190 1_555
Rb1 Sb1 3.912747 1_655
Rb2 Sb0 3.700875 1_554
Rb2 Sb0 3.700875 1_555
Rb2 Sb5 3.740190 1_555
Rb2 Sb6 3.740190 1_545
Rb2 Sb2 3.912747 1_545
Rb3 Sb1 3.700875 1_556
Rb3 Sb1 3.700875 1_555
Rb3 Sb4 3.740190 1_455
Rb3 Sb7 3.740190 1_555
Rb3 Sb3 3.912747 1_455
Rb4 Sb5 3.702015 1_555
Rb4 Sb5 3.710093 1_556
Rb4 Sb3 3.712298 1_555
Rb4 Sb0 3.712298 1_555
Rb4 Sb4 3.993001 1_555
Rb5 Sb4 3.702015 1_554
Rb5 Sb4 3.710093 1_555
Rb5 Sb2 3.712298 1_545
Rb5 Sb1 3.712298 1_655
Rb5 Sb5 3.993001 1_555
Rb6 Sb7 3.702015 1_555
Rb6 Sb7 3.710093 1_554
Rb6 Sb1 3.712298 1_555
Rb6 Sb2 3.712298 1_555
Rb6 Sb6 3.993001 1_555
Rb7 Sb6 3.702015 1_556
Rb7 Sb6 3.710093 1_555
Rb7 Sb0 3.712298 1_565
Rb7 Sb3 3.712298 1_455
Rb7 Sb7 3.993001 1_555
Li0 Sb5 2.994169 1_555
Li0 Sb7 2.994169 1_554
Li0 Sb2 3.014107 1_555
Li0 Sb3 3.014107 1_554
Li1 Sb4 2.994169 1_565
Li1 Sb6 2.994169 1_655
Li1 Sb3 3.014107 1_555
Li1 Sb2 3.014107 1_555
Li2 Sb7 2.994169 1_554
Li2 Sb5 2.994169 1_555
Li2 Sb0 3.014107 1_554
Li2 Sb1 3.014107 1_555
Li3 Sb6 2.994169 1_545
Li3 Sb4 2.994169 1_455
Li3 Sb1 3.014107 1_555
Li3 Sb0 3.014107 1_555
In0 Sb3 2.913615 1_554
In0 Sb2 2.913616 1_555
In0 Sb4 2.917737 1_564
In0 Sb6 2.917737 1_655
In0 Rb1 3.791420 1_555
In0 Rb0 3.791420 1_554
In1 Sb2 2.913615 1_555
In1 Sb3 2.913616 1_555
In1 Sb5 2.917737 1_555
In1 Sb7 2.917737 1_555
In1 Rb0 3.791420 1_555
In1 Rb1 3.791420 1_555
In2 Sb1 2.913615 1_555
In2 Sb0 2.913616 1_554
In2 Sb6 2.917737 1_545
In2 Sb4 2.917737 1_454
In2 Rb3 3.791420 1_554
In2 Rb2 3.791420 1_555
In3 Sb0 2.913615 1_555
In3 Sb1 2.913616 1_555
In3 Sb7 2.917737 1_555
In3 Sb5 2.917737 1_555
In3 Rb2 3.791420 1_555
In3 Rb3 3.791420 1_555
