# generated using pymatgen
data_Zr6Sc4Al12Ni7
_symmetry_space_group_name_H-M   'P 1'
_cell_length_a   8.69210245
_cell_length_b   8.69210193
_cell_length_c   8.69210067
_cell_angle_alpha   60.00000103
_cell_angle_beta   60.00000301
_cell_angle_gamma   60.00000003
_symmetry_Int_Tables_number   1
_chemical_formula_structural   Zr6Sc4Al12Ni7
_chemical_formula_sum   'Zr6 Sc4 Al12 Ni7'
_cell_volume   464.36492688
_cell_formula_units_Z   1
loop_
 _symmetry_equiv_pos_site_id
 _symmetry_equiv_pos_as_xyz
  1  'x, y, z'
loop_
 _atom_site_type_symbol
 _atom_site_label
 _atom_site_symmetry_multiplicity
 _atom_site_fract_x
 _atom_site_fract_y
 _atom_site_fract_z
 _atom_site_occupancy
  Zr  Zr0  1  0.68682804  0.68682804  0.31317196  1
  Zr  Zr1  1  0.31317196  0.68682804  0.31317196  1
  Zr  Zr2  1  0.68682804  0.31317196  0.31317196  1
  Zr  Zr3  1  0.31317196  0.31317196  0.68682804  1
  Zr  Zr4  1  0.68682804  0.31317196  0.68682804  1
  Zr  Zr5  1  0.31317196  0.68682804  0.68682804  1
  Sc  Sc0  1  0.88309905  0.88309905  0.35070185  1
  Sc  Sc1  1  0.88309905  0.35070185  0.88309905  1
  Sc  Sc2  1  0.35070185  0.88309905  0.88309905  1
  Sc  Sc3  1  0.88309905  0.88309905  0.88309905  1
  Al  Al0  1  0.12175589  0.12175589  0.63473234  1
  Al  Al1  1  0.12175589  0.63473234  0.12175589  1
  Al  Al2  1  0.63473234  0.12175589  0.12175589  1
  Al  Al3  1  0.12175589  0.12175589  0.12175589  1
  Al  Al4  1  0.66579120  0.66579120  0.00262640  1
  Al  Al5  1  0.66579120  0.00262640  0.66579120  1
  Al  Al6  1  0.00262640  0.66579120  0.66579120  1
  Al  Al7  1  0.66579120  0.66579120  0.66579120  1
  Al  Al8  1  0.33326527  0.33326527  0.00020419  1
  Al  Al9  1  0.33326527  0.00020419  0.33326527  1
  Al  Al10  1  0.00020419  0.33326527  0.33326527  1
  Al  Al11  1  0.33326527  0.33326527  0.33326527  1
  Ni  Ni0  1  0.00000000  0.00000000  0.00000000  1
  Ni  Ni1  1  0.00048798  0.00048798  0.49951202  1
  Ni  Ni2  1  0.49951202  0.00048798  0.49951202  1
  Ni  Ni3  1  0.00048798  0.49951202  0.49951202  1
  Ni  Ni4  1  0.49951202  0.49951202  0.00048798  1
  Ni  Ni5  1  0.00048798  0.49951202  0.00048798  1
  Ni  Ni6  1  0.49951202  0.00048798  0.00048798  1
loop_
_geom_bond_atom_site_label_1
_geom_bond_atom_site_label_2
_geom_bond_distance
_geom_bond_site_symmetry_2
Zr0 Zr4 3.247856 1_555
Zr0 Zr2 3.247857 1_555
Zr0 Zr5 3.247857 1_555
Zr0 Zr1 3.247857 1_555
Zr1 Zr5 3.247856 1_555
Zr1 Zr3 3.247856 1_555
Zr1 Zr2 3.247857 1_555
Zr2 Zr4 3.247856 1_555
Zr2 Zr3 3.247857 1_555
Zr3 Zr5 3.247857 1_555
Zr3 Zr4 3.247857 1_555
Zr4 Zr5 3.247857 1_555
Sc0 Zr0 3.154496 1_555
Sc0 Zr2 3.154504 1_565
Sc0 Zr1 3.154504 1_655
Sc1 Zr4 3.154496 1_555
Sc1 Zr2 3.154504 1_556
Sc1 Zr3 3.154504 1_655
Sc2 Zr5 3.154496 1_555
Sc2 Zr1 3.154503 1_556
Sc2 Zr3 3.154504 1_565
Sc3 Zr0 3.154502 1_556
Sc3 Zr4 3.154502 1_565
Sc3 Zr5 3.154502 1_655
Al0 Ni0 2.592330 1_556
Al0 Ni1 2.681876 1_555
Al0 Ni3 2.681876 1_555
Al0 Ni2 2.681877 1_555
Al0 Al10 2.715010 1_555
Al0 Al9 2.715010 1_555
Al0 Al11 2.715010 1_555
Al0 Sc2 2.934894 1_545
Al0 Sc1 2.934894 1_455
Al0 Sc3 2.934900 1_445
Al0 Zr5 3.164907 1_545
Al0 Zr3 3.164907 1_555
Al0 Zr4 3.164907 1_455
Al1 Ni0 2.592331 1_565
Al1 Ni3 2.681876 1_555
Al1 Ni5 2.681876 1_555
Al1 Ni4 2.681877 1_555
Al1 Al11 2.715010 1_555
Al1 Al8 2.715010 1_555
Al1 Al10 2.715010 1_555
Al1 Sc0 2.934894 1_455
Al1 Sc2 2.934894 1_554
Al1 Sc3 2.934900 1_454
Al1 Zr5 3.164906 1_554
Al1 Zr1 3.164906 1_555
Al1 Zr0 3.164907 1_455
Al2 Ni0 2.592331 1_655
Al2 Ni2 2.681876 1_555
Al2 Ni6 2.681876 1_555
Al2 Ni4 2.681876 1_555
Al2 Al8 2.715010 1_555
Al2 Al9 2.715010 1_555
Al2 Sc0 2.934894 1_545
Al2 Sc1 2.934894 1_554
Al2 Sc3 2.934900 1_544
Al2 Zr4 3.164906 1_554
Al2 Zr2 3.164906 1_555
Al2 Zr0 3.164907 1_545
Al3 Ni0 2.592331 1_555
Al3 Ni1 2.681876 1_555
Al3 Ni5 2.681876 1_555
Al3 Ni6 2.681877 1_555
Al3 Al9 2.715010 1_555
Al3 Al8 2.715010 1_555
Al3 Sc2 2.934900 1_544
Al3 Sc1 2.934900 1_454
Al3 Sc0 2.934901 1_445
Al3 Zr3 3.164906 1_554
Al3 Zr1 3.164907 1_545
Al3 Zr2 3.164907 1_455
Al4 Ni6 2.514137 1_565
Al4 Ni4 2.514137 1_555
Al4 Ni5 2.514137 1_655
Al4 Sc3 2.803205 1_554
Al4 Sc1 2.803212 1_554
Al4 Sc2 2.803212 1_554
Al4 Zr0 2.893725 1_555
Al4 Zr2 2.893726 1_555
Al4 Zr1 2.893726 1_555
Al5 Ni6 2.514137 1_556
Al5 Ni2 2.514137 1_555
Al5 Ni1 2.514137 1_655
Al5 Sc3 2.803205 1_545
Al5 Sc0 2.803212 1_545
Al5 Sc2 2.803213 1_545
Al5 Zr2 2.893726 1_555
Al5 Zr4 2.893726 1_555
Al5 Zr3 2.893726 1_555
Al6 Ni5 2.514137 1_556
Al6 Ni3 2.514137 1_555
Al6 Ni1 2.514137 1_565
Al6 Sc3 2.803205 1_455
Al6 Sc0 2.803212 1_455
Al6 Sc1 2.803213 1_455
Al6 Zr1 2.893726 1_555
Al6 Zr3 2.893726 1_555
Al6 Zr5 2.893726 1_555
Al7 Ni4 2.514137 1_556
Al7 Ni2 2.514137 1_565
Al7 Ni3 2.514137 1_655
Al7 Sc1 2.803208 1_555
Al7 Sc2 2.803208 1_555
Al7 Sc0 2.803208 1_555
Al7 Zr0 2.893725 1_555
Al7 Zr4 2.893726 1_555
Al7 Zr5 2.893726 1_555
Al8 Ni6 2.504297 1_555
Al8 Ni4 2.504297 1_555
Al8 Ni5 2.504297 1_555
Al8 Al9 2.895001 1_555
Al8 Zr3 2.909055 1_554
Al8 Zr5 2.909055 1_554
Al8 Zr4 2.909055 1_554
Al9 Ni6 2.504297 1_555
Al9 Ni2 2.504297 1_555
Al9 Ni1 2.504297 1_555
Al9 Zr5 2.909055 1_545
Al9 Zr1 2.909055 1_545
Al9 Zr0 2.909055 1_545
Al10 Ni5 2.504296 1_555
Al10 Ni3 2.504297 1_555
Al10 Ni1 2.504297 1_555
Al10 Al3 2.715010 1_555
Al10 Al8 2.895001 1_555
Al10 Al9 2.895001 1_555
Al10 Al11 2.895001 1_555
Al10 Zr4 2.909055 1_455
Al10 Zr0 2.909055 1_455
Al10 Zr2 2.909055 1_455
Al11 Ni4 2.504297 1_555
Al11 Ni2 2.504297 1_555
Al11 Ni3 2.504297 1_555
Al11 Al2 2.715010 1_555
Al11 Al8 2.895000 1_555
Al11 Al9 2.895001 1_555
Al11 Zr3 2.909055 1_555
Al11 Zr1 2.909055 1_555
Al11 Zr2 2.909055 1_555
Ni0 Sc0 2.488956 1_445
Ni0 Sc1 2.488956 1_454
Ni0 Sc2 2.488956 1_544
Ni0 Sc3 2.488963 1_444
Ni1 Sc3 2.726907 1_445
Ni1 Sc0 2.726914 1_445
Ni1 Zr5 3.169721 1_545
Ni1 Zr1 3.169721 1_545
Ni1 Zr4 3.169721 1_455
Ni1 Zr2 3.169721 1_455
Ni2 Sc2 2.726907 1_545
Ni2 Sc0 2.726908 1_545
Ni2 Zr3 3.169721 1_555
Ni2 Zr0 3.169721 1_545
Ni2 Zr5 3.169721 1_545
Ni2 Zr2 3.169721 1_555
Ni3 Sc1 2.726907 1_455
Ni3 Sc0 2.726908 1_455
Ni3 Zr3 3.169721 1_555
Ni3 Zr0 3.169721 1_455
Ni3 Zr1 3.169721 1_555
Ni3 Zr4 3.169721 1_455
Ni4 Sc2 2.726908 1_554
Ni4 Sc1 2.726908 1_554
Ni4 Zr5 3.169721 1_554
Ni4 Zr4 3.169721 1_554
Ni4 Zr1 3.169721 1_555
Ni4 Zr2 3.169721 1_555
Ni5 Sc3 2.726907 1_454
Ni5 Sc1 2.726914 1_454
Ni5 Zr3 3.169721 1_554
Ni5 Zr0 3.169721 1_455
Ni5 Zr5 3.169721 1_554
Ni5 Zr2 3.169721 1_455
Ni6 Sc3 2.726907 1_544
Ni6 Sc2 2.726914 1_544
Ni6 Zr3 3.169721 1_554
Ni6 Zr0 3.169721 1_545
Ni6 Zr4 3.169721 1_554
Ni6 Zr1 3.169721 1_545
