# generated using pymatgen
data_Sc2AlB2RuRh4
_symmetry_space_group_name_H-M   'P 1'
_cell_length_a   9.34920548
_cell_length_b   9.34920548
_cell_length_c   2.99238390
_cell_angle_alpha   90.00000000
_cell_angle_beta   90.00000000
_cell_angle_gamma   90.00000000
_symmetry_Int_Tables_number   1
_chemical_formula_structural   Sc2AlB2RuRh4
_chemical_formula_sum   'Sc4 Al2 B4 Ru2 Rh8'
_cell_volume   261.55722397
_cell_formula_units_Z   2
loop_
 _symmetry_equiv_pos_site_id
 _symmetry_equiv_pos_as_xyz
  1  'x, y, z'
loop_
 _atom_site_type_symbol
 _atom_site_label
 _atom_site_symmetry_multiplicity
 _atom_site_fract_x
 _atom_site_fract_y
 _atom_site_fract_z
 _atom_site_occupancy
  Sc  Sc0  1  0.67374284  0.17374284  0.00000000  1
  Sc  Sc1  1  0.32625716  0.82625716  0.00000000  1
  Sc  Sc2  1  0.17374284  0.32625716  0.00000000  1
  Sc  Sc3  1  0.82625716  0.67374284  0.00000000  1
  Al  Al0  1  0.50000000  0.50000000  0.00000000  1
  Al  Al1  1  0.00000000  0.00000000  0.00000000  1
  B  B0  1  0.12234885  0.62234885  0.00000000  1
  B  B1  1  0.87765115  0.37765115  0.00000000  1
  B  B2  1  0.62234885  0.87765115  0.00000000  1
  B  B3  1  0.37765115  0.12234885  0.00000000  1
  Ru  Ru0  1  0.50000000  0.00000000  0.50000000  1
  Ru  Ru1  1  0.00000000  0.50000000  0.50000000  1
  Rh  Rh0  1  0.57219047  0.71450242  0.50000000  1
  Rh  Rh1  1  0.42780953  0.28549758  0.50000000  1
  Rh  Rh2  1  0.07219047  0.78549758  0.50000000  1
  Rh  Rh3  1  0.92780953  0.21450242  0.50000000  1
  Rh  Rh4  1  0.28549758  0.57219047  0.50000000  1
  Rh  Rh5  1  0.71450242  0.42780953  0.50000000  1
  Rh  Rh6  1  0.21450242  0.07219047  0.50000000  1
  Rh  Rh7  1  0.78549758  0.92780953  0.50000000  1
loop_
_geom_bond_atom_site_label_1
_geom_bond_atom_site_label_2
_geom_bond_distance
_geom_bond_site_symmetry_2
Al0 Rh0 2.591496 1_554
Al0 Rh0 2.591496 1_555
Al0 Rh5 2.591496 1_555
Al0 Rh5 2.591496 1_554
Al0 Rh4 2.591496 1_554
Al0 Rh4 2.591496 1_555
Al0 Rh1 2.591496 1_554
Al0 Rh1 2.591496 1_555
Al1 Rh6 2.591496 1_555
Al1 Rh6 2.591496 1_554
Al1 Rh3 2.591496 1_455
Al1 Rh3 2.591496 1_454
Al1 Rh2 2.591496 1_544
Al1 Rh2 2.591496 1_545
Al1 Rh7 2.591496 1_444
Al1 Rh7 2.591496 1_445
B0 Rh2 2.187480 1_554
B0 Rh4 2.187480 1_555
B0 Rh4 2.187480 1_554
B0 Rh2 2.187480 1_555
B0 Ru1 2.203507 1_555
B0 Ru1 2.203507 1_554
B0 Sc1 2.696029 1_555
B0 Sc3 2.809613 1_455
B0 Sc2 2.809613 1_555
B1 Rh5 2.187480 1_555
B1 Rh5 2.187480 1_554
B1 Rh3 2.187480 1_554
B1 Rh3 2.187480 1_555
B1 Ru1 2.203507 1_654
B1 Ru1 2.203507 1_655
B1 Sc0 2.696029 1_555
B1 Sc2 2.809613 1_655
B1 Sc3 2.809613 1_555
B2 Rh7 2.187480 1_555
B2 Rh0 2.187480 1_554
B2 Rh7 2.187480 1_554
B2 Rh0 2.187480 1_555
B2 Ru0 2.203507 1_565
B2 Ru0 2.203507 1_564
B2 Sc3 2.696029 1_555
B2 Sc1 2.809613 1_555
B2 Sc0 2.809613 1_565
B3 Rh1 2.187480 1_554
B3 Rh6 2.187480 1_555
B3 Rh6 2.187480 1_554
B3 Rh1 2.187480 1_555
B3 Ru0 2.203507 1_554
B3 Ru0 2.203507 1_555
B3 Sc2 2.696029 1_555
B3 Sc1 2.809613 1_545
B3 Sc0 2.809613 1_555
Ru0 Sc1 2.741471 1_546
Ru0 Sc1 2.741471 1_545
Ru0 Sc0 2.741471 1_555
Ru0 Sc0 2.741471 1_556
Ru1 Sc3 2.741471 1_455
Ru1 Sc3 2.741471 1_456
Ru1 Sc2 2.741471 1_555
Ru1 Sc2 2.741471 1_556
Rh0 Sc3 2.833012 1_556
Rh0 Sc3 2.833012 1_555
Rh0 Sc1 2.935460 1_555
Rh0 Sc1 2.935460 1_556
Rh1 Sc2 2.833012 1_555
Rh1 Sc2 2.833012 1_556
Rh1 Sc0 2.935460 1_555
Rh1 Sc0 2.935460 1_556
Rh2 Sc1 2.833012 1_555
Rh2 Sc1 2.833012 1_556
Rh2 Sc3 2.935460 1_455
Rh2 Sc3 2.935460 1_456
Rh3 Sc0 2.833012 1_556
Rh3 Sc0 2.833012 1_555
Rh3 Sc2 2.935460 1_656
Rh3 Sc2 2.935460 1_655
Rh4 Sc1 2.833012 1_555
Rh4 Sc1 2.833012 1_556
Rh4 Sc2 2.935460 1_555
Rh4 Sc2 2.935460 1_556
Rh5 Sc0 2.833012 1_556
Rh5 Sc0 2.833012 1_555
Rh5 Sc3 2.935460 1_555
Rh5 Sc3 2.935460 1_556
Rh6 Sc2 2.833012 1_555
Rh6 Sc2 2.833012 1_556
Rh6 Sc1 2.935460 1_546
Rh6 Sc1 2.935460 1_545
Rh7 Sc3 2.833012 1_556
Rh7 Sc3 2.833012 1_555
Rh7 Sc0 2.935460 1_565
Rh7 Sc0 2.935460 1_566
