# generated using pymatgen
data_Ag3Bi(NO3)8
_symmetry_space_group_name_H-M   'P 1'
_cell_length_a   7.71731343
_cell_length_b   7.71731401
_cell_length_c   7.71731427
_cell_angle_alpha   87.46339099
_cell_angle_beta   87.46339435
_cell_angle_gamma   87.46339114
_symmetry_Int_Tables_number   1
_chemical_formula_structural   Ag3Bi(NO3)8
_chemical_formula_sum   'Ag3 Bi1 N8 O24'
_cell_volume   458.30710852
_cell_formula_units_Z   1
loop_
 _symmetry_equiv_pos_site_id
 _symmetry_equiv_pos_as_xyz
  1  'x, y, z'
loop_
 _atom_site_type_symbol
 _atom_site_label
 _atom_site_symmetry_multiplicity
 _atom_site_fract_x
 _atom_site_fract_y
 _atom_site_fract_z
 _atom_site_occupancy
  Ag  Ag0  1  0.00000000  0.50000000  0.50000000  1
  Ag  Ag1  1  0.50000000  0.50000000  0.00000000  1
  Ag  Ag2  1  0.50000000  0.00000000  0.50000000  1
  Bi  Bi0  1  0.00000000  0.00000000  0.00000000  1
  N  N0  1  0.33193238  0.33193238  0.33193238  1
  N  N1  1  0.33959281  0.15072798  0.82151810  1
  N  N2  1  0.15072798  0.82151810  0.33959281  1
  N  N3  1  0.82151810  0.33959281  0.15072798  1
  N  N4  1  0.66806762  0.66806762  0.66806762  1
  N  N5  1  0.17848190  0.66040719  0.84927202  1
  N  N6  1  0.84927202  0.17848190  0.66040719  1
  N  N7  1  0.66040719  0.84927202  0.17848190  1
  O  O0  1  0.72506095  0.28543532  0.03697206  1
  O  O1  1  0.17823999  0.96366131  0.25401118  1
  O  O2  1  0.23213171  0.78051566  0.46995533  1
  O  O3  1  0.25401118  0.17823999  0.96366131  1
  O  O4  1  0.22544561  0.31249308  0.45828417  1
  O  O5  1  0.45828417  0.22544561  0.31249308  1
  O  O6  1  0.31249308  0.45828417  0.22544561  1
  O  O7  1  0.21948434  0.53004467  0.76786829  1
  O  O8  1  0.96302794  0.27493905  0.71456468  1
  O  O9  1  0.71456468  0.96302794  0.27493905  1
  O  O10  1  0.03633869  0.74598882  0.82176001  1
  O  O11  1  0.53004467  0.76786829  0.21948434  1
  O  O12  1  0.82176001  0.03633869  0.74598882  1
  O  O13  1  0.76786829  0.21948434  0.53004467  1
  O  O14  1  0.74598882  0.82176001  0.03633869  1
  O  O15  1  0.27493905  0.71456468  0.96302794  1
  O  O16  1  0.77455439  0.68750692  0.54171583  1
  O  O17  1  0.54171583  0.77455439  0.68750692  1
  O  O18  1  0.68750692  0.54171583  0.77455439  1
  O  O19  1  0.78051566  0.46995533  0.23213171  1
  O  O20  1  0.03697206  0.72506095  0.28543532  1
  O  O21  1  0.28543532  0.03697206  0.72506095  1
  O  O22  1  0.96366131  0.25401118  0.17823999  1
  O  O23  1  0.46995533  0.23213171  0.78051566  1
loop_
_geom_bond_atom_site_label_1
_geom_bond_atom_site_label_2
_geom_bond_distance
_geom_bond_site_symmetry_2
Ag0 O4 2.234598 1_555
Ag0 O16 2.234598 1_455
Ag0 O8 2.363783 1_455
Ag0 O20 2.363783 1_555
Ag1 O18 2.234598 1_554
Ag1 O6 2.234598 1_555
Ag1 O0 2.363783 1_555
Ag1 O15 2.363783 1_554
Ag2 O17 2.234598 1_545
Ag2 O5 2.234598 1_555
Ag2 O21 2.363783 1_555
Ag2 O9 2.363783 1_545
Bi0 O3 2.443220 1_554
Bi0 O14 2.443220 1_445
Bi0 O1 2.443220 1_545
Bi0 O12 2.443220 1_454
Bi0 O22 2.443220 1_455
Bi0 O10 2.443220 1_544
N0 O5 1.255267 1_555
N0 O6 1.255267 1_555
N0 O4 1.255267 1_555
N1 O23 1.231701 1_555
N1 O21 1.271751 1_555
N1 O3 1.276202 1_555
N2 O2 1.231701 1_555
N2 O20 1.271751 1_555
N2 O1 1.276202 1_555
N3 O19 1.231701 1_555
N3 O0 1.271751 1_555
N3 O22 1.276202 1_555
N4 O17 1.255267 1_555
N4 O18 1.255267 1_555
N4 O16 1.255267 1_555
N5 O7 1.231701 1_555
N5 O15 1.271751 1_555
N5 O10 1.276202 1_555
N6 O13 1.231701 1_555
N6 O8 1.271751 1_555
N6 O12 1.276202 1_555
N7 O11 1.231701 1_555
N7 O9 1.271751 1_555
N7 O14 1.276202 1_555
