# generated using pymatgen
data_Cs2Mn2ZnS4
_symmetry_space_group_name_H-M   'P 1'
_cell_length_a   7.61439007
_cell_length_b   7.61439082
_cell_length_c   5.87346799
_cell_angle_alpha   90.00000000
_cell_angle_beta   90.00000000
_cell_angle_gamma   134.61797161
_symmetry_Int_Tables_number   1
_chemical_formula_structural   Cs2Mn2ZnS4
_chemical_formula_sum   'Cs2 Mn2 Zn1 S4'
_cell_volume   242.39652875
_cell_formula_units_Z   1
loop_
 _symmetry_equiv_pos_site_id
 _symmetry_equiv_pos_as_xyz
  1  'x, y, z'
loop_
 _atom_site_type_symbol
 _atom_site_label
 _atom_site_symmetry_multiplicity
 _atom_site_fract_x
 _atom_site_fract_y
 _atom_site_fract_z
 _atom_site_occupancy
  Cs  Cs0  1  0.50000000  0.00000000  0.24490605  1
  Cs  Cs1  1  0.00000000  0.50000000  0.75509395  1
  Mn  Mn0  1  0.00000000  0.00000000  0.50000000  1
  Mn  Mn1  1  0.50000000  0.50000000  0.00000000  1
  Zn  Zn0  1  0.50000000  0.50000000  0.50000000  1
  S  S0  1  0.17078530  0.35689382  0.26415869  1
  S  S1  1  0.64310618  0.82921470  0.73584131  1
  S  S2  1  0.82921470  0.64310618  0.26415869  1
  S  S3  1  0.35689382  0.17078530  0.73584131  1
loop_
_geom_bond_atom_site_label_1
_geom_bond_atom_site_label_2
_geom_bond_distance
_geom_bond_site_symmetry_2
Cs0 S2 3.610010 1_555
Cs0 S0 3.610010 1_545
Cs0 S1 3.630921 1_545
Cs0 S3 3.630921 1_555
Cs0 S1 3.716048 1_544
Cs0 S3 3.716048 1_554
Cs0 S2 3.739976 1_445
Cs0 S0 3.739976 1_655
Cs1 S1 3.610009 1_555
Cs1 S3 3.610009 1_455
Cs1 S2 3.630921 1_455
Cs1 S0 3.630921 1_555
Cs1 S2 3.716048 1_456
Cs1 S0 3.716048 1_556
Cs1 S1 3.739977 1_445
Cs1 S3 3.739977 1_565
Mn0 S3 2.455717 1_555
Mn0 S1 2.455717 1_445
Mn0 S0 2.455718 1_555
Mn0 S2 2.455718 1_445
Mn1 S0 2.457918 1_555
Mn1 S2 2.457918 1_555
Mn1 S3 2.457918 1_554
Mn1 S1 2.457918 1_554
S0 Zn0 2.356463 1_555
S1 Zn0 2.356464 1_555
S2 Zn0 2.356463 1_555
S3 Zn0 2.356464 1_555
