# generated using pymatgen
data_Ga6ReIr
_symmetry_space_group_name_H-M   'P 1'
_cell_length_a   6.52399706
_cell_length_b   6.52399706
_cell_length_c   6.79563658
_cell_angle_alpha   90.00000000
_cell_angle_beta   90.00000000
_cell_angle_gamma   89.53538889
_symmetry_Int_Tables_number   1
_chemical_formula_structural   Ga6ReIr
_chemical_formula_sum   'Ga12 Re2 Ir2'
_cell_volume   289.23002780
_cell_formula_units_Z   2
loop_
 _symmetry_equiv_pos_site_id
 _symmetry_equiv_pos_as_xyz
  1  'x, y, z'
loop_
 _atom_site_type_symbol
 _atom_site_label
 _atom_site_symmetry_multiplicity
 _atom_site_fract_x
 _atom_site_fract_y
 _atom_site_fract_z
 _atom_site_occupancy
  Ga  Ga0  1  0.00000000  0.50000000  0.50000000  1
  Ga  Ga1  1  0.50000000  0.00000000  0.00000000  1
  Ga  Ga2  1  0.50000000  0.00000000  0.50000000  1
  Ga  Ga3  1  0.00000000  0.50000000  0.00000000  1
  Ga  Ga4  1  0.34798136  0.65201864  0.23808913  1
  Ga  Ga5  1  0.65201864  0.34798136  0.23808913  1
  Ga  Ga6  1  0.15651735  0.15651735  0.73019859  1
  Ga  Ga7  1  0.84348265  0.84348265  0.73019859  1
  Ga  Ga8  1  0.65201864  0.34798136  0.76191087  1
  Ga  Ga9  1  0.34798136  0.65201864  0.76191087  1
  Ga  Ga10  1  0.84348265  0.84348265  0.26980141  1
  Ga  Ga11  1  0.15651735  0.15651735  0.26980141  1
  Re  Re0  1  0.16274666  0.83725334  0.50000000  1
  Re  Re1  1  0.83725334  0.16274666  0.50000000  1
  Ir  Ir0  1  0.34008894  0.34008894  0.00000000  1
  Ir  Ir1  1  0.65991106  0.65991106  0.00000000  1
loop_
_geom_bond_atom_site_label_1
_geom_bond_atom_site_label_2
_geom_bond_distance
_geom_bond_site_symmetry_2
Ga0 Re1 2.450770 1_455
Ga0 Re0 2.450770 1_555
Ga0 Ga7 2.911064 1_455
Ga0 Ga6 2.911064 1_555
Ga0 Ga10 2.911064 1_455
Ga0 Ga11 2.911064 1_555
Ga0 Ga9 3.056457 1_555
Ga0 Ga4 3.056457 1_555
Ga0 Ga8 3.056457 1_455
Ga0 Ga5 3.056457 1_455
Ga1 Ir0 2.444106 1_555
Ga1 Ir1 2.444106 1_545
Ga1 Ga5 2.965111 1_555
Ga1 Ga8 2.965111 1_554
Ga1 Ga4 2.965111 1_545
Ga1 Ga9 2.965111 1_544
Ga1 Ga10 3.064105 1_545
Ga1 Ga11 3.064105 1_555
Ga1 Ga7 3.064105 1_544
Ga1 Ga6 3.064105 1_554
Ga2 Re0 2.450770 1_545
Ga2 Re1 2.450770 1_555
Ga2 Ga7 2.911064 1_545
Ga2 Ga6 2.911064 1_555
Ga2 Ga8 3.056457 1_555
Ga2 Ga5 3.056457 1_555
Ga2 Ga9 3.056457 1_545
Ga2 Ga4 3.056457 1_545
Ga3 Ir0 2.444106 1_555
Ga3 Ir1 2.444106 1_455
Ga3 Ga4 2.965111 1_555
Ga3 Ga9 2.965111 1_554
Ga3 Ga5 2.965111 1_455
Ga3 Ga8 2.965111 1_454
Ga3 Ga7 3.064105 1_454
Ga3 Ga6 3.064105 1_554
Ga4 Re0 2.462720 1_555
Ga4 Ir1 2.600675 1_555
Ga4 Ir0 2.600675 1_555
Ga4 Ga5 2.793750 1_555
Ga5 Re1 2.462720 1_555
Ga5 Ir1 2.600675 1_555
Ga5 Ir0 2.600675 1_555
Ga6 Ir0 2.500694 1_556
Ga6 Re0 2.604964 1_545
Ga6 Re1 2.604964 1_455
Ga6 Ga7 2.899846 1_445
Ga7 Ir1 2.500694 1_556
Ga7 Re0 2.604964 1_655
Ga7 Re1 2.604964 1_565
Ga8 Re1 2.462720 1_555
Ga8 Ir0 2.600675 1_556
Ga8 Ir1 2.600675 1_556
Ga8 Ga9 2.793750 1_555
Ga9 Re0 2.462720 1_555
Ga9 Ir1 2.600675 1_556
Ga9 Ir0 2.600675 1_556
Ga10 Ir1 2.500694 1_555
Ga10 Re0 2.604964 1_655
Ga10 Re1 2.604964 1_565
Ga10 Ga11 2.899846 1_665
Ga10 Ga2 2.911064 1_565
Ga10 Ga3 3.064105 1_655
Ga10 Ga7 3.128692 1_555
Ga11 Ir0 2.500694 1_555
Ga11 Re1 2.604964 1_455
Ga11 Re0 2.604964 1_545
Ga11 Ga2 2.911064 1_555
Ga11 Ga3 3.064105 1_555
Ga11 Ga6 3.128692 1_555
