# generated using pymatgen
data_Ba3ScCrSe6
_symmetry_space_group_name_H-M   'P 1'
_cell_length_a   8.55136618
_cell_length_b   8.55136597
_cell_length_c   8.55136693
_cell_angle_alpha   93.86083191
_cell_angle_beta   93.86083103
_cell_angle_gamma   93.86082862
_symmetry_Int_Tables_number   1
_chemical_formula_structural   Ba3ScCrSe6
_chemical_formula_sum   'Ba6 Sc2 Cr2 Se12'
_cell_volume   620.86666032
_cell_formula_units_Z   2
loop_
 _symmetry_equiv_pos_site_id
 _symmetry_equiv_pos_as_xyz
  1  'x, y, z'
loop_
 _atom_site_type_symbol
 _atom_site_label
 _atom_site_symmetry_multiplicity
 _atom_site_fract_x
 _atom_site_fract_y
 _atom_site_fract_z
 _atom_site_occupancy
  Ba  Ba0  1  0.36653314  0.75000000  0.13346686  1
  Ba  Ba1  1  0.13346686  0.36653314  0.75000000  1
  Ba  Ba2  1  0.75000000  0.13346686  0.36653314  1
  Ba  Ba3  1  0.63346686  0.25000000  0.86653314  1
  Ba  Ba4  1  0.86653314  0.63346686  0.25000000  1
  Ba  Ba5  1  0.25000000  0.86653314  0.63346686  1
  Sc  Sc0  1  0.25000000  0.25000000  0.25000000  1
  Sc  Sc1  1  0.75000000  0.75000000  0.75000000  1
  Cr  Cr0  1  0.50000000  0.50000000  0.50000000  1
  Cr  Cr1  1  0.00000000  0.00000000  0.00000000  1
  Se  Se0  1  0.52983714  0.41143343  0.20780526  1
  Se  Se1  1  0.20780526  0.52983714  0.41143343  1
  Se  Se2  1  0.41143343  0.20780526  0.52983714  1
  Se  Se3  1  0.97016286  0.29219474  0.08856657  1
  Se  Se4  1  0.08856657  0.97016286  0.29219474  1
  Se  Se5  1  0.29219474  0.08856657  0.97016286  1
  Se  Se6  1  0.47016286  0.58856657  0.79219474  1
  Se  Se7  1  0.79219474  0.47016286  0.58856657  1
  Se  Se8  1  0.58856657  0.79219474  0.47016286  1
  Se  Se9  1  0.02983714  0.70780526  0.91143343  1
  Se  Se10  1  0.70780526  0.91143343  0.02983714  1
  Se  Se11  1  0.91143343  0.02983714  0.70780526  1
loop_
_geom_bond_atom_site_label_1
_geom_bond_atom_site_label_2
_geom_bond_distance
_geom_bond_site_symmetry_2
Ba0 Se9 3.325165 1_554
Ba0 Se8 3.325165 1_555
Ba0 Se10 3.343386 1_555
Ba0 Se6 3.343386 1_554
Ba0 Se0 3.377756 1_555
Ba0 Se5 3.377756 1_564
Ba0 Se4 3.424910 1_555
Ba0 Se1 3.424911 1_555
Ba1 Se11 3.325165 1_455
Ba1 Se6 3.325165 1_555
Ba1 Se9 3.343386 1_555
Ba1 Se7 3.343386 1_455
Ba1 Se1 3.377756 1_555
Ba1 Se3 3.377756 1_456
Ba1 Se2 3.424910 1_555
Ba1 Se5 3.424910 1_555
Ba2 Se7 3.325165 1_555
Ba2 Se10 3.325165 1_545
Ba2 Se8 3.343386 1_545
Ba2 Se11 3.343386 1_555
Ba2 Se4 3.377756 1_645
Ba2 Se2 3.377756 1_555
Ba2 Se0 3.424910 1_555
Ba2 Se3 3.424911 1_555
Ba3 Se3 3.325165 1_556
Ba3 Se2 3.325165 1_555
Ba3 Se5 3.343386 1_555
Ba3 Se0 3.343386 1_556
Ba3 Se6 3.377756 1_555
Ba3 Se10 3.377756 1_546
Ba3 Se11 3.424910 1_555
Ba3 Se7 3.424911 1_555
Ba4 Se4 3.325165 1_655
Ba4 Se0 3.325165 1_555
Ba4 Se3 3.343386 1_555
Ba4 Se1 3.343386 1_655
Ba4 Se7 3.377756 1_555
Ba4 Se9 3.377756 1_654
Ba4 Se8 3.424910 1_555
Ba4 Se10 3.424910 1_555
Ba5 Se1 3.325165 1_555
Ba5 Se5 3.325165 1_565
Ba5 Se2 3.343386 1_565
Ba5 Se4 3.343386 1_555
Ba5 Se11 3.377756 1_465
Ba5 Se8 3.377756 1_555
Ba5 Se6 3.424910 1_555
Ba5 Se9 3.424911 1_555
Sc0 Se1 2.738758 1_555
Sc0 Se4 2.738758 1_545
Sc0 Se3 2.738758 1_455
Sc0 Se0 2.738758 1_555
Sc0 Se5 2.738759 1_554
Sc0 Se2 2.738759 1_555
Sc1 Se7 2.738758 1_555
Sc1 Se11 2.738758 1_565
Sc1 Se9 2.738758 1_655
Sc1 Se6 2.738758 1_555
Sc1 Se10 2.738759 1_556
Sc1 Se8 2.738759 1_555
Cr0 Se8 2.595970 1_555
Cr0 Se2 2.595970 1_555
Cr0 Se7 2.595970 1_555
Cr0 Se1 2.595970 1_555
Cr0 Se6 2.595970 1_555
Cr0 Se0 2.595970 1_555
Cr1 Se3 2.595970 1_455
Cr1 Se9 2.595970 1_544
Cr1 Se5 2.595970 1_554
Cr1 Se10 2.595970 1_445
Cr1 Se4 2.595970 1_545
Cr1 Se11 2.595970 1_454
