# generated using pymatgen
data_Hf4SnSbRh10
_symmetry_space_group_name_H-M   'P 1'
_cell_length_a   4.10597752
_cell_length_b   5.59639740
_cell_length_c   10.98876413
_cell_angle_alpha   89.85611442
_cell_angle_beta   90.00000000
_cell_angle_gamma   90.00000000
_symmetry_Int_Tables_number   1
_chemical_formula_structural   Hf4SnSbRh10
_chemical_formula_sum   'Hf4 Sn1 Sb1 Rh10'
_cell_volume   252.50651937
_cell_formula_units_Z   1
loop_
 _symmetry_equiv_pos_site_id
 _symmetry_equiv_pos_as_xyz
  1  'x, y, z'
loop_
 _atom_site_type_symbol
 _atom_site_label
 _atom_site_symmetry_multiplicity
 _atom_site_fract_x
 _atom_site_fract_y
 _atom_site_fract_z
 _atom_site_occupancy
  Hf  Hf0  1  0.50000000  0.18091517  0.64169737  1
  Hf  Hf1  1  0.50000000  0.81908483  0.35830263  1
  Hf  Hf2  1  0.50000000  0.67708170  0.85568796  1
  Hf  Hf3  1  0.50000000  0.32291830  0.14431204  1
  Sn  Sn0  1  0.00000000  0.50000000  0.50000000  1
  Sb  Sb0  1  0.00000000  0.00000000  0.00000000  1
  Rh  Rh0  1  0.50000000  0.20073455  0.88812407  1
  Rh  Rh1  1  0.50000000  0.79926545  0.11187593  1
  Rh  Rh2  1  0.50000000  0.70516275  0.61437181  1
  Rh  Rh3  1  0.50000000  0.29483725  0.38562819  1
  Rh  Rh4  1  0.00000000  0.43740917  0.74729445  1
  Rh  Rh5  1  0.00000000  0.56259083  0.25270555  1
  Rh  Rh6  1  0.00000000  0.00000000  0.50000000  1
  Rh  Rh7  1  0.00000000  0.50000000  0.00000000  1
  Rh  Rh8  1  0.00000000  0.06215172  0.24554751  1
  Rh  Rh9  1  0.00000000  0.93784828  0.75445249  1
loop_
_geom_bond_atom_site_label_1
_geom_bond_atom_site_label_2
_geom_bond_distance
_geom_bond_site_symmetry_2
Hf0 Rh2 2.680128 1_545
Hf0 Rh0 2.710474 1_555
Hf0 Rh9 2.755346 1_645
Hf0 Rh9 2.755346 1_545
Hf0 Rh4 2.762265 1_555
Hf0 Rh4 2.762265 1_655
Hf0 Rh6 2.769888 1_655
Hf0 Rh6 2.769888 1_555
Hf0 Rh3 2.883645 1_555
Hf0 Rh2 2.948474 1_555
Hf0 Sn0 3.132748 1_655
Hf0 Sn0 3.132748 1_555
Hf1 Rh3 2.680128 1_565
Hf1 Rh1 2.710474 1_555
Hf1 Rh8 2.755346 1_565
Hf1 Rh8 2.755346 1_665
Hf1 Rh5 2.762265 1_655
Hf1 Rh5 2.762265 1_555
Hf1 Rh6 2.769888 1_565
Hf1 Rh6 2.769888 1_665
Hf1 Rh2 2.883645 1_555
Hf1 Rh3 2.948474 1_555
Hf1 Sn0 3.132748 1_655
Hf1 Sn0 3.132748 1_555
Hf2 Rh2 2.656025 1_555
Hf2 Rh0 2.688663 1_555
Hf2 Rh4 2.727751 1_555
Hf2 Rh4 2.727751 1_655
Hf2 Rh9 2.752067 1_555
Hf2 Rh9 2.752067 1_655
Hf2 Rh7 2.775569 1_556
Hf2 Rh7 2.775569 1_656
Hf2 Rh1 2.898711 1_556
Hf2 Rh0 2.953054 1_565
Hf2 Sb0 3.163835 1_666
Hf2 Sb0 3.163835 1_566
Hf3 Rh3 2.656025 1_555
Hf3 Rh1 2.688663 1_555
Hf3 Rh5 2.727751 1_655
Hf3 Rh5 2.727751 1_555
Hf3 Rh8 2.752067 1_555
Hf3 Rh8 2.752067 1_655
Hf3 Rh7 2.775569 1_655
Hf3 Rh7 2.775569 1_555
Hf3 Rh0 2.898711 1_554
Hf3 Rh1 2.953054 1_545
Hf3 Sb0 3.163835 1_555
Hf3 Sb0 3.163835 1_655
Rh0 Sb0 2.642197 1_556
Rh0 Sb0 2.642197 1_656
Rh1 Sb0 2.642197 1_565
Rh1 Sb0 2.642197 1_665
Rh2 Sn0 2.668308 1_555
Rh2 Sn0 2.668308 1_655
Rh3 Sn0 2.668308 1_555
Rh3 Sn0 2.668308 1_655
Rh4 Sn0 2.739071 1_555
Rh5 Sn0 2.739071 1_555
Rh6 Sn0 2.798199 1_555
Rh6 Sn0 2.798199 1_545
Rh7 Sb0 2.798199 1_565
Rh7 Sb0 2.798199 1_555
Rh8 Sb0 2.721456 1_555
Rh9 Sb0 2.721456 1_566
