# generated using pymatgen
data_Ca8Sb4H2O
_symmetry_space_group_name_H-M   'P 1'
_cell_length_a   4.65020789
_cell_length_b   4.65021812
_cell_length_c   17.19374525
_cell_angle_alpha   97.74720994
_cell_angle_beta   97.74735057
_cell_angle_gamma   90.01584250
_symmetry_Int_Tables_number   1
_chemical_formula_structural   Ca8Sb4H2O
_chemical_formula_sum   'Ca8 Sb4 H2 O1'
_cell_volume   364.98487927
_cell_formula_units_Z   1
loop_
 _symmetry_equiv_pos_site_id
 _symmetry_equiv_pos_as_xyz
  1  'x, y, z'
loop_
 _atom_site_type_symbol
 _atom_site_label
 _atom_site_symmetry_multiplicity
 _atom_site_fract_x
 _atom_site_fract_y
 _atom_site_fract_z
 _atom_site_occupancy
  Ca  Ca0  1  0.49999997  0.99999986  0.00000001  1
  Ca  Ca1  1  0.99999991  0.50000008  0.99999999  1
  Ca  Ca2  1  0.08211847  0.08210732  0.16440038  1
  Ca  Ca3  1  0.66118207  0.66117680  0.32236537  1
  Ca  Ca4  1  0.75001025  0.24998950  0.50000005  1
  Ca  Ca5  1  0.24998951  0.75001029  0.49999992  1
  Ca  Ca6  1  0.33881871  0.33882276  0.67763450  1
  Ca  Ca7  1  0.91788113  0.91789339  0.83559962  1
  Sb  Sb0  1  0.56711759  0.56711443  0.13529055  1
  Sb  Sb1  1  0.17891462  0.17891779  0.35715441  1
  Sb  Sb2  1  0.82108253  0.82107939  0.64284560  1
  Sb  Sb3  1  0.43288039  0.43288347  0.86470955  1
  H  H0  1  0.72848586  0.72848632  0.45694179  1
  H  H1  1  0.27151403  0.27151358  0.54305816  1
  O  O0  1  0.99999997  0.00000002  0.00000009  1
loop_
_geom_bond_atom_site_label_1
_geom_bond_atom_site_label_2
_geom_bond_distance
_geom_bond_site_symmetry_2
Ca0 O0 2.325104 1_565
Ca0 O0 2.325104 1_465
Ca0 Sb0 3.257783 1_565
Ca0 Sb3 3.257788 1_554
Ca0 Sb3 3.260002 1_564
Ca0 Sb0 3.260009 1_555
Ca1 O0 2.325109 1_566
Ca1 O0 2.325110 1_556
Ca1 Sb0 3.257785 1_656
Ca1 Sb3 3.257790 1_555
Ca1 Sb3 3.259992 1_655
Ca1 Sb0 3.260000 1_556
Ca2 O0 2.774801 1_455
Ca2 Sb1 3.253367 1_555
Ca2 Sb0 3.321106 1_555
Ca2 Sb0 3.325128 1_545
Ca2 Sb0 3.325178 1_455
Ca2 Sb0 3.327398 1_445
Ca3 H0 2.271424 1_555
Ca3 Sb0 3.157513 1_555
Ca3 Sb1 3.337226 1_555
Ca3 Sb1 3.340633 1_655
Ca3 Sb1 3.340690 1_565
Ca3 Sb1 3.342304 1_665
Ca4 H1 2.435875 1_555
Ca4 H0 2.435881 1_555
Ca4 H1 2.436197 1_655
Ca4 H0 2.436202 1_545
Ca4 Sb2 3.349071 1_555
Ca4 Sb1 3.349082 1_555
Ca4 Sb1 3.349874 1_655
Ca4 Sb2 3.349890 1_545
Ca5 H0 2.435875 1_555
Ca5 H1 2.435881 1_555
Ca5 H0 2.436197 1_455
Ca5 H1 2.436202 1_565
Ca5 Sb2 3.349074 1_555
Ca5 Sb1 3.349079 1_555
Ca5 Sb1 3.349881 1_565
Ca5 Sb2 3.349883 1_455
Ca6 H1 2.271423 1_555
Ca6 Sb3 3.157517 1_555
Ca6 Sb2 3.337206 1_555
Ca6 Sb2 3.340636 1_455
Ca6 Sb2 3.340685 1_545
Ca6 Sb2 3.342324 1_445
Ca7 O0 2.774804 1_566
Ca7 Sb2 3.253367 1_555
Ca7 Sb3 3.321121 1_555
Ca7 Sb3 3.325124 1_565
Ca7 Sb3 3.325182 1_655
Ca7 Sb3 3.327384 1_665
