# generated using pymatgen
data_Sr3(ZnIr)4
_symmetry_space_group_name_H-M   'P 1'
_cell_length_a   6.73373077
_cell_length_b   6.73373185
_cell_length_c   6.73373106
_cell_angle_alpha   109.47122118
_cell_angle_beta   109.47122444
_cell_angle_gamma   109.47122185
_symmetry_Int_Tables_number   1
_chemical_formula_structural   Sr3(ZnIr)4
_chemical_formula_sum   'Sr3 Zn4 Ir4'
_cell_volume   235.04196717
_cell_formula_units_Z   1
loop_
 _symmetry_equiv_pos_site_id
 _symmetry_equiv_pos_as_xyz
  1  'x, y, z'
loop_
 _atom_site_type_symbol
 _atom_site_label
 _atom_site_symmetry_multiplicity
 _atom_site_fract_x
 _atom_site_fract_y
 _atom_site_fract_z
 _atom_site_occupancy
  Sr  Sr0  1  0.50000000  0.50000000  0.00000000  1
  Sr  Sr1  1  0.00000000  0.50000000  0.50000000  1
  Sr  Sr2  1  0.50000000  0.00000000  0.50000000  1
  Zn  Zn0  1  0.39295722  1.00000000  1.00000000  1
  Zn  Zn1  1  1.00000000  1.00000000  0.39295722  1
  Zn  Zn2  1  0.00000000  0.39295722  0.00000000  1
  Zn  Zn3  1  0.60704178  0.60704178  0.60704278  1
  Ir  Ir0  1  1.00000000  0.75710719  1.00000000  1
  Ir  Ir1  1  0.00000000  0.00000000  0.75710719  1
  Ir  Ir2  1  0.24289281  0.24289281  0.24289281  1
  Ir  Ir3  1  0.75710719  0.00000000  0.00000000  1
loop_
_geom_bond_atom_site_label_1
_geom_bond_atom_site_label_2
_geom_bond_distance
_geom_bond_site_symmetry_2
Sr0 Zn3 3.199595 1_554
Sr0 Zn2 3.199601 1_555
Sr0 Zn1 3.199601 1_555
Sr0 Zn0 3.199601 1_544
Sr0 Zn1 3.670588 1_444
Sr0 Zn2 3.670588 1_655
Sr0 Zn0 3.670589 1_554
Sr0 Zn3 3.670591 1_555
Sr1 Zn0 3.199601 1_555
Sr1 Zn2 3.199601 1_555
Sr1 Zn1 3.199601 1_445
Sr1 Zn3 3.199605 1_455
Sr1 Zn3 3.670583 1_555
Sr1 Zn0 3.670588 1_444
Sr1 Zn2 3.670588 1_556
Sr1 Zn1 3.670589 1_455
Sr2 Zn2 3.199601 1_656
Sr2 Zn1 3.199601 1_445
Sr2 Zn0 3.199601 1_544
Sr2 Zn3 3.199605 1_545
Sr2 Zn3 3.670584 1_555
Sr2 Zn1 3.670588 1_545
Sr2 Zn2 3.670588 1_545
Sr2 Zn0 3.670588 1_545
Ir0 Zn2 2.452088 1_656
Ir0 Zn0 2.606061 1_655
Ir0 Zn1 2.606061 1_556
Ir0 Zn3 2.606062 1_555
Ir0 Ir3 2.670883 1_566
Ir0 Ir1 2.670883 1_665
Ir0 Ir2 2.670883 1_666
Ir0 Sr2 3.232203 1_666
Ir0 Sr0 3.232203 1_556
Ir0 Sr1 3.232203 1_655
Ir1 Zn1 2.452088 1_445
Ir1 Zn0 2.606061 1_545
Ir1 Zn2 2.606061 1_556
Ir1 Zn3 2.606068 1_445
Ir1 Ir2 2.670882 1_556
Ir1 Ir3 2.670883 1_456
Ir1 Sr2 3.232203 1_455
Ir1 Sr0 3.232203 1_556
Ir1 Sr1 3.232203 1_545
Ir2 Zn3 2.452083 1_555
Ir2 Zn2 2.606061 1_555
Ir2 Zn1 2.606061 1_445
Ir2 Zn0 2.606061 1_544
Ir2 Ir3 2.670882 1_455
Ir2 Sr2 3.232203 1_555
Ir2 Sr1 3.232203 1_555
Ir2 Sr0 3.232203 1_555
Ir3 Zn0 2.452088 1_544
Ir3 Zn1 2.606061 1_545
Ir3 Zn2 2.606061 1_655
Ir3 Zn3 2.606063 1_544
Ir3 Sr2 3.232203 1_554
Ir3 Sr1 3.232203 1_655
Ir3 Sr0 3.232203 1_545
