# generated using pymatgen
data_Ta9TiGaSi5
_symmetry_space_group_name_H-M   'P 1'
_cell_length_a   7.53026609
_cell_length_b   7.53026660
_cell_length_c   7.53026698
_cell_angle_alpha   128.62117551
_cell_angle_beta   128.62117394
_cell_angle_gamma   75.62088882
_symmetry_Int_Tables_number   1
_chemical_formula_structural   Ta9TiGaSi5
_chemical_formula_sum   'Ta9 Ti1 Ga1 Si5'
_cell_volume   253.57430292
_cell_formula_units_Z   1
loop_
 _symmetry_equiv_pos_site_id
 _symmetry_equiv_pos_as_xyz
  1  'x, y, z'
loop_
 _atom_site_type_symbol
 _atom_site_label
 _atom_site_symmetry_multiplicity
 _atom_site_fract_x
 _atom_site_fract_y
 _atom_site_fract_z
 _atom_site_occupancy
  Ta  Ta0  1  0.01906118  0.18969034  0.50693994  1
  Ta  Ta1  1  0.68275040  0.51212124  0.49306006  1
  Ta  Ta2  1  0.51212124  0.01906118  0.82937184  1
  Ta  Ta3  1  0.18969034  0.68275040  0.17062816  1
  Ta  Ta4  1  0.98669147  0.81654359  0.50498742  1
  Ta  Ta5  1  0.31155617  0.48170405  0.49501258  1
  Ta  Ta6  1  0.48170405  0.98669147  0.17014688  1
  Ta  Ta7  1  0.81654359  0.31155617  0.82985312  1
  Ta  Ta8  1  0.49964059  0.49964059  1.00000000  1
  Ti  Ti0  1  0.00051252  0.00051252  1.00000000  1
  Ga  Ga0  1  0.75087607  0.75087607  0.00000000  1
  Si  Si0  1  0.24908265  0.24908265  0.00000000  1
  Si  Si1  1  0.36617249  0.12718390  0.49347353  1
  Si  Si2  1  0.63371137  0.87269996  0.50652647  1
  Si  Si3  1  0.87269996  0.36617249  0.23898859  1
  Si  Si4  1  0.12718390  0.63371137  0.76101141  1
loop_
_geom_bond_atom_site_label_1
_geom_bond_atom_site_label_2
_geom_bond_distance
_geom_bond_site_symmetry_2
Ga0 Ta2 2.741136 1_564
Ga0 Ta0 2.741140 1_665
Ga0 Ta1 2.741140 1_554
Ga0 Ta3 2.741141 1_655
Ga0 Ta6 2.741794 1_555
Ga0 Ta5 2.741798 1_554
Ga0 Ta4 2.741798 1_555
Ga0 Ta7 2.741799 1_554
Ga0 Ti0 2.970292 1_664
Ga0 Ta8 2.989319 1_554
Si0 Ta6 2.693258 1_545
Si0 Ta4 2.693262 1_444
Si0 Ta5 2.693262 1_555
Si0 Ta7 2.693263 1_454
Si0 Ta2 2.696160 1_554
Si0 Ta1 2.696164 1_555
Si0 Ta0 2.696164 1_554
Si0 Ta3 2.696165 1_555
Si0 Ti0 2.957605 1_554
Si0 Ta8 2.981257 1_554
Si1 Si2 2.410639 1_545
Si1 Ti0 2.531197 1_554
Si1 Ta8 2.585557 1_555
Si1 Ta5 2.591952 1_555
Si1 Ta0 2.593112 1_555
Si1 Ta6 2.603005 1_545
Si1 Ta3 2.626016 1_545
Si1 Ta2 2.631508 1_555
Si1 Ta7 2.658962 1_555
Si2 Ti0 2.531197 1_665
Si2 Ta8 2.585557 1_554
Si2 Ta4 2.591944 1_555
Si2 Ta1 2.593121 1_555
Si2 Ta7 2.602989 1_565
Si2 Ta2 2.626032 1_565
Si2 Ta3 2.631508 1_555
Si2 Ta6 2.658963 1_555
Si3 Si4 2.410640 1_655
Si3 Ti0 2.531193 1_654
Si3 Ta8 2.585561 1_554
Si3 Ta7 2.591941 1_554
Si3 Ta2 2.593117 1_554
Si3 Ta5 2.602992 1_655
Si3 Ta0 2.626019 1_655
Si3 Ta1 2.631508 1_555
Si3 Ta4 2.658962 1_555
Si4 Ti0 2.531193 1_565
Si4 Ta8 2.585561 1_555
Si4 Ta6 2.591949 1_556
Si4 Ta3 2.593109 1_556
Si4 Ta4 2.602992 1_455
Si4 Ta1 2.626019 1_455
Si4 Ta0 2.631508 1_555
Si4 Ta5 2.658962 1_555
