# generated using pymatgen
data_Y3AlHg2Pt3
_symmetry_space_group_name_H-M   'P 1'
_cell_length_a   7.56220311
_cell_length_b   7.44699960
_cell_length_c   3.84964304
_cell_angle_alpha   90.00000000
_cell_angle_beta   90.00000000
_cell_angle_gamma   119.49734216
_symmetry_Int_Tables_number   1
_chemical_formula_structural   Y3AlHg2Pt3
_chemical_formula_sum   'Y3 Al1 Hg2 Pt3'
_cell_volume   188.69409210
_cell_formula_units_Z   1
loop_
 _symmetry_equiv_pos_site_id
 _symmetry_equiv_pos_as_xyz
  1  'x, y, z'
loop_
 _atom_site_type_symbol
 _atom_site_label
 _atom_site_symmetry_multiplicity
 _atom_site_fract_x
 _atom_site_fract_y
 _atom_site_fract_z
 _atom_site_occupancy
  Y  Y0  1  0.40610319  0.40133603  0.50000000  1
  Y  Y1  1  0.59389681  0.99523284  0.50000000  1
  Y  Y2  1  1.00000000  0.60216693  0.50000000  1
  Al  Al0  1  1.00000000  0.25592357  0.00000000  1
  Hg  Hg0  1  0.73870707  0.73848556  0.00000000  1
  Hg  Hg1  1  0.26129293  0.99977849  0.00000000  1
  Pt  Pt0  1  0.68991426  0.32639615  0.00000000  1
  Pt  Pt1  1  0.31008574  0.63648089  0.00000000  1
  Pt  Pt2  1  1.00000000  0.04419953  0.50000000  1
loop_
_geom_bond_atom_site_label_1
_geom_bond_atom_site_label_2
_geom_bond_distance
_geom_bond_site_symmetry_2
Al0 Pt2 2.488162 1_555
Al0 Pt2 2.488162 1_554
Al0 Pt1 2.643103 1_655
Al0 Pt0 2.643108 1_555
Al0 Y2 3.217680 1_555
Al0 Y2 3.217680 1_554
Al0 Y1 3.321733 1_544
Al0 Y1 3.321733 1_545
Al0 Y0 3.321734 1_655
Al0 Y0 3.321734 1_654
Hg0 Pt2 2.891788 1_564
Hg0 Pt2 2.891788 1_565
Hg0 Pt0 2.904956 1_555
Hg0 Pt1 2.942534 1_555
Hg0 Y0 3.180605 1_554
Hg0 Y0 3.180605 1_555
Hg0 Y2 3.258103 1_555
Hg0 Y2 3.258103 1_554
Hg0 Y1 3.259108 1_555
Hg0 Y1 3.259108 1_554
Hg1 Pt2 2.891789 1_464
Hg1 Pt2 2.891789 1_465
Hg1 Pt1 2.904964 1_555
Hg1 Pt0 2.942536 1_565
Hg1 Y1 3.180606 1_555
Hg1 Y1 3.180606 1_554
Hg1 Y2 3.258102 1_454
Hg1 Y2 3.258102 1_455
Hg1 Y0 3.259107 1_564
Hg1 Y0 3.259107 1_565
Pt0 Y1 2.924168 1_544
Pt0 Y1 2.924168 1_545
Pt0 Y2 2.945987 1_554
Pt0 Y2 2.945987 1_555
Pt0 Y0 3.130853 1_554
Pt0 Y0 3.130853 1_555
Pt1 Y0 2.924162 1_554
Pt1 Y0 2.924162 1_555
Pt1 Y2 2.945989 1_454
Pt1 Y2 2.945989 1_455
Pt1 Y1 3.130856 1_555
Pt1 Y1 3.130856 1_554
Pt2 Y0 2.908851 1_655
Pt2 Y1 2.908852 1_545
Pt2 Y2 3.291817 1_545
