# generated using pymatgen
data_Li8Hf3TeBr24
_symmetry_space_group_name_H-M   'P 1'
_cell_length_a   6.71097257
_cell_length_b   6.71097231
_cell_length_c   25.84877028
_cell_angle_alpha   90.00000000
_cell_angle_beta   90.00000000
_cell_angle_gamma   120.00000129
_symmetry_Int_Tables_number   1
_chemical_formula_structural   Li8Hf3TeBr24
_chemical_formula_sum   'Li8 Hf3 Te1 Br24'
_cell_volume   1008.18776569
_cell_formula_units_Z   1
loop_
 _symmetry_equiv_pos_site_id
 _symmetry_equiv_pos_as_xyz
  1  'x, y, z'
loop_
 _atom_site_type_symbol
 _atom_site_label
 _atom_site_symmetry_multiplicity
 _atom_site_fract_x
 _atom_site_fract_y
 _atom_site_fract_z
 _atom_site_occupancy
  Li  Li0  1  0.00000000  0.00000000  0.24994290  1
  Li  Li1  1  0.00000000  0.00000000  0.75005710  1
  Li  Li2  1  0.33333300  0.66666700  0.99996920  1
  Li  Li3  1  0.33333300  0.66666700  0.49984446  1
  Li  Li4  1  0.33333300  0.66666700  0.25008430  1
  Li  Li5  1  0.66666700  0.33333300  0.74991570  1
  Li  Li6  1  0.66666700  0.33333300  0.00003080  1
  Li  Li7  1  0.66666700  0.33333300  0.50015554  1
  Hf  Hf0  1  0.00000000  0.00000000  0.50000000  1
  Hf  Hf1  1  0.33333300  0.66666700  0.74944317  1
  Hf  Hf2  1  0.66666700  0.33333300  0.25055683  1
  Te  Te0  1  0.00000000  0.00000000  0.00000000  1
  Br  Br0  1  0.34739641  0.01384881  0.30833482  1
  Br  Br1  1  0.33383537  0.98557811  0.80760714  1
  Br  Br2  1  0.00020584  0.33321812  0.06010336  1
  Br  Br3  1  0.99950610  0.31881836  0.55796009  1
  Br  Br4  1  0.98615119  0.33354860  0.30833482  1
  Br  Br5  1  0.01442189  0.34825627  0.80760714  1
  Br  Br6  1  0.34825627  0.33383537  0.19239286  1
  Br  Br7  1  0.33354860  0.34739641  0.69166518  1
  Br  Br8  1  0.31881836  0.31931326  0.44203991  1
  Br  Br9  1  0.33321812  0.33301229  0.93989664  1
  Br  Br10  1  0.68068674  0.99950610  0.44203991  1
  Br  Br11  1  0.33301229  0.99979416  0.06010336  1
  Br  Br12  1  0.31931326  0.00049390  0.55796009  1
  Br  Br13  1  0.66678188  0.66698771  0.06010336  1
  Br  Br14  1  0.68118164  0.68068674  0.55796009  1
  Br  Br15  1  0.66645140  0.65260359  0.30833482  1
  Br  Br16  1  0.65174373  0.66616463  0.80760714  1
  Br  Br17  1  0.98557811  0.65174373  0.19239286  1
  Br  Br18  1  0.01384881  0.66645140  0.69166518  1
  Br  Br19  1  0.00049390  0.68118164  0.44203991  1
  Br  Br20  1  0.99979416  0.66678188  0.93989664  1
  Br  Br21  1  0.66698771  0.00020584  0.93989664  1
  Br  Br22  1  0.66616463  0.01442189  0.19239286  1
  Br  Br23  1  0.65260359  0.98615119  0.69166518  1
loop_
_geom_bond_atom_site_label_1
_geom_bond_atom_site_label_2
_geom_bond_distance
_geom_bond_site_symmetry_2
Br0 Hf2 2.612353 1_555
Br0 Li4 2.735821 1_545
Br0 Li0 2.739599 1_555
Br1 Hf1 2.614131 1_555
Br1 Li5 2.728853 1_565
Br1 Li1 2.731000 1_565
Br2 Te0 2.722361 1_555
Br2 Li2 2.723768 1_554
Br2 Li6 2.724559 1_455
Br3 Hf0 2.613332 1_655
Br3 Li7 2.729272 1_555
Br3 Li3 2.737751 1_655
Br4 Hf2 2.612348 1_555
Br4 Li4 2.735821 1_655
Br4 Li0 2.739605 1_655
Br5 Hf1 2.614136 1_555
Br5 Li5 2.728853 1_455
Br5 Li1 2.730994 1_555
Br6 Hf2 2.614142 1_555
Br6 Li4 2.728853 1_555
Br6 Li0 2.730997 1_555
Br7 Hf1 2.612359 1_555
Br7 Li5 2.735822 1_555
Br7 Li1 2.739602 1_555
Br8 Hf0 2.613335 1_555
Br8 Li3 2.729272 1_555
Br8 Li7 2.737756 1_555
Br9 Te0 2.722361 1_556
Br9 Li6 2.723771 1_556
Br9 Li2 2.724564 1_555
Br10 Hf0 2.613338 1_665
Br10 Li3 2.729272 1_555
Br10 Li7 2.737745 1_565
Br11 Te0 2.722361 1_565
Br11 Li2 2.723765 1_554
Br11 Li6 2.724561 1_565
Br12 Hf0 2.613338 1_555
Br12 Li7 2.729272 1_555
Br12 Li3 2.737745 1_545
Br13 Te0 2.722361 1_665
Br13 Li2 2.723771 1_554
Br13 Li6 2.724564 1_555
Br14 Hf0 2.613335 1_665
Br14 Li7 2.729272 1_555
Br14 Li3 2.737756 1_555
Br15 Hf2 2.612359 1_555
Br15 Li4 2.735822 1_555
Br15 Li0 2.739602 1_665
Br16 Hf1 2.614142 1_555
Br16 Li5 2.728853 1_555
Br16 Li1 2.730997 1_665
Br17 Hf2 2.614136 1_555
Br17 Li4 2.728853 1_655
Br17 Li0 2.730994 1_665
Br18 Hf1 2.612348 1_555
Br18 Li5 2.735821 1_455
Br18 Li1 2.739605 1_565
Br19 Hf0 2.613332 1_565
Br19 Li3 2.729272 1_555
Br19 Li7 2.737751 1_455
Br20 Te0 2.722361 1_666
Br20 Li6 2.723768 1_556
Br20 Li2 2.724559 1_655
Br21 Te0 2.722361 1_656
Br21 Li6 2.723765 1_556
Br21 Li2 2.724561 1_545
Br22 Hf2 2.614131 1_555
Br22 Li4 2.728853 1_545
Br22 Li0 2.731000 1_655
Br23 Hf1 2.612353 1_555
Br23 Li5 2.735821 1_565
Br23 Li1 2.739599 1_665
