# generated using pymatgen
data_TaVOF5
_symmetry_space_group_name_H-M   'P 1'
_cell_length_a   5.60862446
_cell_length_b   5.61280057
_cell_length_c   5.59599574
_cell_angle_alpha   119.26159403
_cell_angle_beta   119.33667651
_cell_angle_gamma   91.06038735
_symmetry_Int_Tables_number   1
_chemical_formula_structural   TaVOF5
_chemical_formula_sum   'Ta1 V1 O1 F5'
_cell_volume   126.03049865
_cell_formula_units_Z   1
loop_
 _symmetry_equiv_pos_site_id
 _symmetry_equiv_pos_as_xyz
  1  'x, y, z'
loop_
 _atom_site_type_symbol
 _atom_site_label
 _atom_site_symmetry_multiplicity
 _atom_site_fract_x
 _atom_site_fract_y
 _atom_site_fract_z
 _atom_site_occupancy
  Ta  Ta0  1  0.67883643  0.99364711  0.31859971  1
  V  V0  1  0.15364485  0.46973683  0.31739069  1
  O  O0  1  0.91938242  0.21887191  0.33311037  1
  F  F0  1  0.39404932  0.73132347  0.29704958  1
  F  F1  1  0.40296606  0.20563021  0.27988453  1
  F  F2  1  0.43971808  0.71899104  0.83083216  1
  F  F3  1  0.90459967  0.73553485  0.35406563  1
  F  F4  1  0.86795817  0.22149857  0.80254434  1
loop_
_geom_bond_atom_site_label_1
_geom_bond_atom_site_label_2
_geom_bond_distance
_geom_bond_site_symmetry_2
O0 Ta0 1.775946 1_545
O0 V0 1.970414 1_655
F0 V0 2.056012 1_555
F0 Ta0 2.069854 1_555
F1 Ta0 1.961700 1_545
F1 V0 2.063256 1_555
F2 Ta0 1.961742 1_556
F2 V0 2.063251 1_555
F3 Ta0 1.960680 1_555
F3 V0 2.068227 1_655
F4 Ta0 1.960597 1_545
F4 V0 2.068547 1_656
