# generated using pymatgen
data_SrZr(Si7Ir3)2
_symmetry_space_group_name_H-M   'P 1'
_cell_length_a   8.01081186
_cell_length_b   8.01081290
_cell_length_c   8.01081159
_cell_angle_alpha   56.59265135
_cell_angle_beta   56.59264370
_cell_angle_gamma   56.59264925
_symmetry_Int_Tables_number   1
_chemical_formula_structural   SrZr(Si7Ir3)2
_chemical_formula_sum   'Sr1 Zr1 Si14 Ir6'
_cell_volume   334.89265764
_cell_formula_units_Z   1
loop_
 _symmetry_equiv_pos_site_id
 _symmetry_equiv_pos_as_xyz
  1  'x, y, z'
loop_
 _atom_site_type_symbol
 _atom_site_label
 _atom_site_symmetry_multiplicity
 _atom_site_fract_x
 _atom_site_fract_y
 _atom_site_fract_z
 _atom_site_occupancy
  Sr  Sr0  1  0.00000000  0.00000000  0.00000000  1
  Zr  Zr0  1  0.50000000  0.50000000  0.50000000  1
  Si  Si0  1  0.06469381  0.85027135  0.67306251  1
  Si  Si1  1  0.67306251  0.06469381  0.85027135  1
  Si  Si2  1  0.85027135  0.67306251  0.06469381  1
  Si  Si3  1  0.17516691  0.35030436  0.55976595  1
  Si  Si4  1  0.55976595  0.17516691  0.35030436  1
  Si  Si5  1  0.35030436  0.55976595  0.17516691  1
  Si  Si6  1  0.93530619  0.14972865  0.32693749  1
  Si  Si7  1  0.32693749  0.93530619  0.14972865  1
  Si  Si8  1  0.14972865  0.32693749  0.93530619  1
  Si  Si9  1  0.82483309  0.64969564  0.44023405  1
  Si  Si10  1  0.44023405  0.82483309  0.64969564  1
  Si  Si11  1  0.64969564  0.44023405  0.82483309  1
  Si  Si12  1  0.75148469  0.75148469  0.75148469  1
  Si  Si13  1  0.24851531  0.24851531  0.24851531  1
  Ir  Ir0  1  0.07698285  0.74314694  0.43521919  1
  Ir  Ir1  1  0.43521919  0.07698285  0.74314694  1
  Ir  Ir2  1  0.74314694  0.43521919  0.07698285  1
  Ir  Ir3  1  0.92301715  0.25685306  0.56478081  1
  Ir  Ir4  1  0.56478081  0.92301715  0.25685306  1
  Ir  Ir5  1  0.25685306  0.56478081  0.92301715  1
loop_
_geom_bond_atom_site_label_1
_geom_bond_atom_site_label_2
_geom_bond_distance
_geom_bond_site_symmetry_2
Si0 Si2 2.579732 1_456
Si0 Si1 2.579732 1_465
Si0 Si12 2.686927 1_455
Si0 Si6 2.760315 1_465
Si0 Si10 2.806020 1_555
Si0 Sr0 3.137942 1_566
Si0 Zr0 3.184484 1_555
Si1 Si2 2.579732 1_546
Si1 Si12 2.686927 1_545
Si1 Si7 2.760315 1_546
Si1 Si11 2.806021 1_555
Si1 Sr0 3.137942 1_656
Si1 Zr0 3.184485 1_555
Si2 Si8 2.760315 1_654
Si2 Si9 2.806020 1_555
Si2 Sr0 3.137943 1_665
Si2 Zr0 3.184484 1_555
Si3 Si4 2.532961 1_555
Si3 Si5 2.532961 1_555
Si3 Si9 2.750209 1_455
Si3 Si8 2.806020 1_555
Si3 Zr0 3.141761 1_555
Si3 Sr0 3.204698 1_556
Si4 Si5 2.532961 1_555
Si4 Si6 2.806020 1_555
Si4 Zr0 3.141762 1_555
Si4 Sr0 3.204698 1_655
Si5 Si7 2.806021 1_555
Si5 Zr0 3.141761 1_555
Si5 Sr0 3.204699 1_565
Si6 Si8 2.579732 1_654
Si6 Si7 2.579732 1_645
Si6 Sr0 3.137942 1_655
Si6 Zr0 3.184484 1_555
Si7 Si8 2.579732 1_564
Si7 Sr0 3.137942 1_565
Si7 Zr0 3.184485 1_555
Si8 Sr0 3.137943 1_556
Si8 Zr0 3.184484 1_555
Si9 Zr0 3.141761 1_555
Si9 Sr0 3.204698 1_665
Si10 Si9 2.532961 1_555
Si10 Si11 2.532961 1_555
Si10 Si12 2.706473 1_555
Si10 Si4 2.750210 1_565
Si10 Zr0 3.141762 1_555
Si10 Sr0 3.204698 1_566
Si11 Si9 2.532961 1_555
Si11 Si12 2.706473 1_555
Si11 Si5 2.750209 1_556
Si11 Zr0 3.141761 1_555
Si11 Sr0 3.204699 1_656
Si12 Si2 2.686927 1_556
Si12 Si9 2.706473 1_555
Si13 Si8 2.686927 1_554
Si13 Si6 2.686927 1_455
Si13 Si7 2.686927 1_545
Si13 Si3 2.706473 1_555
Si13 Si4 2.706473 1_555
Si13 Si5 2.706473 1_555
Ir0 Si0 2.424307 1_555
Ir0 Si12 2.437689 1_455
Ir0 Si7 2.466606 1_555
Ir0 Si5 2.469250 1_555
Ir0 Si9 2.486930 1_455
Ir0 Si3 2.489703 1_555
Ir0 Si6 2.559554 1_465
Ir0 Zr0 3.016895 1_555
Ir0 Sr0 3.136910 1_565
Ir1 Si1 2.424307 1_555
Ir1 Si12 2.437689 1_545
Ir1 Si8 2.466606 1_555
Ir1 Si3 2.469250 1_555
Ir1 Si10 2.486930 1_545
Ir1 Si4 2.489703 1_555
Ir1 Si7 2.559554 1_546
Ir1 Zr0 3.016896 1_555
Ir1 Sr0 3.136910 1_556
Ir2 Si2 2.424307 1_555
Ir2 Si12 2.437689 1_554
Ir2 Si6 2.466607 1_555
Ir2 Si4 2.469250 1_555
Ir2 Si11 2.486929 1_554
Ir2 Si5 2.489703 1_555
Ir2 Si8 2.559554 1_654
Ir2 Zr0 3.016895 1_555
Ir2 Sr0 3.136910 1_655
Ir3 Si6 2.424307 1_555
Ir3 Si13 2.437689 1_655
Ir3 Si1 2.466606 1_555
Ir3 Si11 2.469250 1_555
Ir3 Si3 2.486930 1_655
Ir3 Si9 2.489703 1_555
Ir3 Si0 2.559554 1_645
Ir3 Zr0 3.016895 1_555
Ir3 Sr0 3.136910 1_656
Ir4 Si7 2.424307 1_555
Ir4 Si13 2.437689 1_565
Ir4 Si2 2.466606 1_555
Ir4 Si9 2.469250 1_555
Ir4 Si4 2.486930 1_565
Ir4 Si10 2.489703 1_555
Ir4 Si1 2.559554 1_564
Ir4 Zr0 3.016896 1_555
Ir4 Sr0 3.136910 1_665
Ir5 Si8 2.424307 1_555
Ir5 Si13 2.437689 1_556
Ir5 Si0 2.466607 1_555
Ir5 Si10 2.469250 1_555
Ir5 Si5 2.486929 1_556
Ir5 Si11 2.489703 1_555
Ir5 Si2 2.559554 1_456
Ir5 Zr0 3.016895 1_555
Ir5 Sr0 3.136910 1_566
