# generated using pymatgen
data_Ba4Ge20Pd3
_symmetry_space_group_name_H-M   'P 1'
_cell_length_a   10.90699300
_cell_length_b   10.90699300
_cell_length_c   10.90699300
_cell_angle_alpha   90.00000000
_cell_angle_beta   90.00000000
_cell_angle_gamma   90.00000000
_symmetry_Int_Tables_number   1
_chemical_formula_structural   Ba4Ge20Pd3
_chemical_formula_sum   'Ba8 Ge40 Pd6'
_cell_volume   1297.52311443
_cell_formula_units_Z   2
loop_
 _symmetry_equiv_pos_site_id
 _symmetry_equiv_pos_as_xyz
  1  'x, y, z'
loop_
 _atom_site_type_symbol
 _atom_site_label
 _atom_site_symmetry_multiplicity
 _atom_site_fract_x
 _atom_site_fract_y
 _atom_site_fract_z
 _atom_site_occupancy
  Ba  Ba0  1  0.00000000  0.00000000  0.00000000  1
  Ba  Ba1  1  0.50000000  0.50000000  0.50000000  1
  Ba  Ba2  1  0.25000000  0.50000000  0.00000000  1
  Ba  Ba3  1  0.75000000  0.50000000  0.00000000  1
  Ba  Ba4  1  0.50000000  0.00000000  0.25000000  1
  Ba  Ba5  1  0.50000000  0.00000000  0.75000000  1
  Ba  Ba6  1  0.00000000  0.75000000  0.50000000  1
  Ba  Ba7  1  0.00000000  0.25000000  0.50000000  1
  Ge  Ge0  1  0.18302000  0.18302000  0.18302000  1
  Ge  Ge1  1  0.68302000  0.31698000  0.68302000  1
  Ge  Ge2  1  0.68302000  0.68302000  0.31698000  1
  Ge  Ge3  1  0.31698000  0.68302000  0.68302000  1
  Ge  Ge4  1  0.81698000  0.81698000  0.18302000  1
  Ge  Ge5  1  0.18302000  0.81698000  0.81698000  1
  Ge  Ge6  1  0.81698000  0.18302000  0.81698000  1
  Ge  Ge7  1  0.31698000  0.31698000  0.31698000  1
  Ge  Ge8  1  0.81698000  0.81698000  0.81698000  1
  Ge  Ge9  1  0.31698000  0.68302000  0.31698000  1
  Ge  Ge10  1  0.31698000  0.31698000  0.68302000  1
  Ge  Ge11  1  0.68302000  0.31698000  0.31698000  1
  Ge  Ge12  1  0.18302000  0.18302000  0.81698000  1
  Ge  Ge13  1  0.81698000  0.18302000  0.18302000  1
  Ge  Ge14  1  0.18302000  0.81698000  0.18302000  1
  Ge  Ge15  1  0.68302000  0.68302000  0.68302000  1
  Ge  Ge16  1  0.00000000  0.31458700  0.11902400  1
  Ge  Ge17  1  0.50000000  0.38097600  0.81458700  1
  Ge  Ge18  1  0.50000000  0.61902400  0.18541300  1
  Ge  Ge19  1  0.61902400  0.81458700  0.50000000  1
  Ge  Ge20  1  0.38097600  0.81458700  0.50000000  1
  Ge  Ge21  1  0.18541300  0.50000000  0.61902400  1
  Ge  Ge22  1  0.81458700  0.50000000  0.61902400  1
  Ge  Ge23  1  0.11902400  0.00000000  0.31458700  1
  Ge  Ge24  1  0.31458700  0.11902400  0.00000000  1
  Ge  Ge25  1  0.68541300  0.88097600  0.00000000  1
  Ge  Ge26  1  0.11902400  0.00000000  0.68541300  1
  Ge  Ge27  1  0.68541300  0.11902400  0.00000000  1
  Ge  Ge28  1  0.88097600  0.00000000  0.31458700  1
  Ge  Ge29  1  0.88097600  0.00000000  0.68541300  1
  Ge  Ge30  1  0.31458700  0.88097600  0.00000000  1
  Ge  Ge31  1  0.00000000  0.68541300  0.88097600  1
  Ge  Ge32  1  0.00000000  0.31458700  0.88097600  1
  Ge  Ge33  1  0.00000000  0.68541300  0.11902400  1
  Ge  Ge34  1  0.81458700  0.50000000  0.38097600  1
  Ge  Ge35  1  0.18541300  0.50000000  0.38097600  1
  Ge  Ge36  1  0.61902400  0.18541300  0.50000000  1
  Ge  Ge37  1  0.38097600  0.18541300  0.50000000  1
  Ge  Ge38  1  0.50000000  0.61902400  0.81458700  1
  Ge  Ge39  1  0.50000000  0.38097600  0.18541300  1
  Pd  Pd0  1  0.25000000  0.00000000  0.50000000  1
  Pd  Pd1  1  0.75000000  0.00000000  0.50000000  1
  Pd  Pd2  1  0.00000000  0.50000000  0.25000000  1
  Pd  Pd3  1  0.00000000  0.50000000  0.75000000  1
  Pd  Pd4  1  0.50000000  0.75000000  0.00000000  1
  Pd  Pd5  1  0.50000000  0.25000000  0.00000000  1
loop_
_geom_bond_atom_site_label_1
_geom_bond_atom_site_label_2
_geom_bond_distance
_geom_bond_site_symmetry_2
Ba0 Ge14 3.457516 1_545
Ba0 Ge5 3.457516 1_544
Ba0 Ge8 3.457516 1_444
Ba0 Ge13 3.457516 1_455
Ba0 Ge4 3.457516 1_445
Ba0 Ge6 3.457516 1_454
Ba0 Ge12 3.457516 1_554
Ba0 Ge0 3.457516 1_555
Ba0 Ge31 3.668573 1_544
Ba0 Ge33 3.668573 1_545
Ba0 Ge25 3.668573 1_445
Ba0 Ge27 3.668573 1_455
Ba0 Ge26 3.668573 1_554
Ba0 Ge29 3.668573 1_454
Ba0 Ge24 3.668573 1_555
Ba0 Ge16 3.668573 1_555
Ba0 Ge28 3.668573 1_455
Ba0 Ge30 3.668573 1_545
Ba0 Ge32 3.668573 1_554
Ba0 Ge23 3.668573 1_555
Ba1 Ge15 3.457516 1_555
Ba1 Ge1 3.457516 1_555
Ba1 Ge2 3.457516 1_555
Ba1 Ge3 3.457516 1_555
Ba1 Ge9 3.457516 1_555
Ba1 Ge11 3.457516 1_555
Ba1 Ge10 3.457516 1_555
Ba1 Ge7 3.457516 1_555
Ba1 Ge22 3.668573 1_555
Ba1 Ge19 3.668573 1_555
Ba1 Ge38 3.668573 1_555
Ba1 Ge34 3.668573 1_555
Ba1 Ge17 3.668573 1_555
Ba1 Ge20 3.668573 1_555
Ba1 Ge36 3.668573 1_555
Ba1 Ge18 3.668573 1_555
Ba1 Ge37 3.668573 1_555
Ba1 Ge39 3.668573 1_555
Ba1 Ge21 3.668573 1_555
Ba1 Ge35 3.668573 1_555
Ba2 Ge16 3.634578 1_555
Ba2 Ge32 3.634578 1_554
Ba2 Ge18 3.634578 1_555
Ba2 Ge39 3.634578 1_555
Ba2 Ge33 3.634578 1_555
Ba2 Ge31 3.634578 1_554
Ba2 Ge17 3.634578 1_554
Ba2 Ge38 3.634578 1_554
Ba2 Pd4 3.856204 1_555
Ba2 Pd5 3.856204 1_555
Ba2 Pd2 3.856204 1_555
Ba2 Pd3 3.856204 1_554
Ba3 Ge32 3.634578 1_654
Ba3 Ge16 3.634578 1_655
Ba3 Ge18 3.634578 1_555
Ba3 Ge39 3.634578 1_555
Ba3 Ge31 3.634578 1_654
Ba3 Ge33 3.634578 1_655
Ba3 Ge17 3.634578 1_554
Ba3 Ge38 3.634578 1_554
Ba3 Pd4 3.856204 1_555
Ba3 Pd3 3.856204 1_654
Ba3 Pd5 3.856204 1_555
Ba3 Pd2 3.856204 1_655
Ba4 Ge37 3.634578 1_555
Ba4 Ge36 3.634578 1_555
Ba4 Ge24 3.634578 1_555
Ba4 Ge25 3.634578 1_545
Ba4 Ge27 3.634578 1_555
Ba4 Ge19 3.634578 1_545
Ba4 Ge20 3.634578 1_545
Ba4 Ge30 3.634578 1_545
Ba4 Pd5 3.856204 1_555
Ba4 Pd0 3.856204 1_555
Ba4 Pd4 3.856204 1_545
Ba4 Pd1 3.856204 1_555
Ba5 Ge37 3.634578 1_555
Ba5 Ge36 3.634578 1_555
Ba5 Ge24 3.634578 1_556
Ba5 Ge25 3.634578 1_546
Ba5 Ge19 3.634578 1_545
Ba5 Ge27 3.634578 1_556
Ba5 Ge30 3.634578 1_546
Ba5 Ge20 3.634578 1_545
Ba5 Pd5 3.856204 1_556
Ba5 Pd4 3.856204 1_546
Ba5 Pd0 3.856204 1_555
Ba5 Pd1 3.856204 1_555
Ba6 Ge23 3.634578 1_565
Ba6 Ge28 3.634578 1_465
Ba6 Ge35 3.634578 1_555
Ba6 Ge21 3.634578 1_555
Ba6 Ge26 3.634578 1_565
Ba6 Ge29 3.634578 1_465
Ba6 Ge22 3.634578 1_455
Ba6 Ge34 3.634578 1_455
Ba6 Pd2 3.856204 1_555
Ba6 Pd0 3.856204 1_565
Ba6 Pd3 3.856204 1_555
Ba6 Pd1 3.856204 1_465
Ba7 Ge28 3.634578 1_455
Ba7 Ge23 3.634578 1_555
Ba7 Ge35 3.634578 1_555
Ba7 Ge21 3.634578 1_555
Ba7 Ge26 3.634578 1_555
Ba7 Ge34 3.634578 1_455
Ba7 Ge22 3.634578 1_455
Ba7 Ge29 3.634578 1_455
Ba7 Pd1 3.856204 1_455
Ba7 Pd2 3.856204 1_555
Ba7 Pd3 3.856204 1_555
Ba7 Pd0 3.856204 1_555
Ge0 Ge7 2.530701 1_555
Ge0 Ge23 2.555629 1_555
Ge0 Ge24 2.555629 1_555
Ge0 Ge16 2.555629 1_555
Ge1 Ge6 2.530701 1_555
Ge1 Ge36 2.555629 1_555
Ge1 Ge22 2.555629 1_555
Ge1 Ge17 2.555629 1_555
Ge2 Ge4 2.530701 1_555
Ge2 Ge34 2.555629 1_555
Ge3 Ge5 2.530701 1_555
Ge3 Ge38 2.555629 1_555
Ge10 Ge12 2.530701 1_555
Ge10 Ge21 2.555629 1_555
Ge10 Ge37 2.555629 1_555
Ge10 Ge17 2.555629 1_555
Ge11 Ge13 2.530701 1_555
Ge11 Ge39 2.555629 1_555
Ge11 Ge36 2.555629 1_555
Ge11 Ge34 2.555629 1_555
Ge12 Ge24 2.555629 1_556
Ge12 Ge26 2.555629 1_555
Ge12 Ge32 2.555629 1_555
Ge13 Ge16 2.555629 1_655
Ge13 Ge27 2.555629 1_555
Ge13 Ge28 2.555629 1_555
Ge14 Ge9 2.530701 1_555
Ge14 Ge33 2.555629 1_555
Ge14 Ge23 2.555629 1_565
Ge14 Ge30 2.555629 1_555
Ge15 Ge8 2.530701 1_555
Ge15 Ge22 2.555629 1_555
Ge15 Ge19 2.555629 1_555
Ge15 Ge38 2.555629 1_555
Ge16 Pd2 2.475976 1_555
Ge17 Pd5 2.475976 1_556
Ge18 Pd4 2.475976 1_555
Ge18 Ge2 2.555629 1_555
Ge18 Ge9 2.555629 1_555
Ge19 Pd1 2.475976 1_565
Ge19 Ge2 2.555629 1_555
Ge20 Pd0 2.475976 1_565
Ge20 Ge3 2.555629 1_555
Ge20 Ge9 2.555629 1_555
Ge21 Pd3 2.475976 1_555
Ge21 Ge3 2.555629 1_555
Ge22 Pd3 2.475976 1_655
Ge23 Pd0 2.475976 1_555
Ge24 Pd5 2.475976 1_555
Ge25 Pd4 2.475976 1_555
Ge25 Ge8 2.555629 1_554
Ge25 Ge4 2.555629 1_555
Ge26 Pd0 2.475976 1_555
Ge26 Ge5 2.555629 1_545
Ge27 Pd5 2.475976 1_555
Ge27 Ge6 2.555629 1_554
Ge28 Pd1 2.475976 1_555
Ge28 Ge4 2.555629 1_545
Ge29 Pd1 2.475976 1_555
Ge29 Ge8 2.555629 1_545
Ge29 Ge6 2.555629 1_555
Ge30 Pd4 2.475976 1_555
Ge30 Ge5 2.555629 1_554
Ge31 Pd3 2.475976 1_555
Ge31 Ge8 2.555629 1_455
Ge31 Ge5 2.555629 1_555
Ge32 Pd3 2.475976 1_555
Ge32 Ge6 2.555629 1_455
Ge33 Pd2 2.475976 1_555
Ge33 Ge4 2.555629 1_455
Ge34 Pd2 2.475976 1_655
Ge35 Pd2 2.475976 1_555
Ge35 Ge9 2.555629 1_555
Ge35 Ge7 2.555629 1_555
Ge36 Pd1 2.475976 1_555
Ge37 Pd0 2.475976 1_555
Ge37 Ge7 2.555629 1_555
Ge38 Pd4 2.475976 1_556
Ge39 Pd5 2.475976 1_555
Ge39 Ge7 2.555629 1_555
