# generated using pymatgen
data_Y7Co2Sn23Os4
_symmetry_space_group_name_H-M   'P 1'
_cell_length_a   9.79859935
_cell_length_b   9.79859977
_cell_length_c   9.97442072
_cell_angle_alpha   90.19727849
_cell_angle_beta   89.80271959
_cell_angle_gamma   120.02660335
_symmetry_Int_Tables_number   1
_chemical_formula_structural   Y7Co2Sn23Os4
_chemical_formula_sum   'Y7 Co2 Sn23 Os4'
_cell_volume   829.13723195
_cell_formula_units_Z   1
loop_
 _symmetry_equiv_pos_site_id
 _symmetry_equiv_pos_as_xyz
  1  'x, y, z'
loop_
 _atom_site_type_symbol
 _atom_site_label
 _atom_site_symmetry_multiplicity
 _atom_site_fract_x
 _atom_site_fract_y
 _atom_site_fract_z
 _atom_site_occupancy
  Y  Y0  1  0.99410988  0.00589012  0.98883214  1
  Y  Y1  1  0.03756698  0.51745079  0.30453700  1
  Y  Y2  1  0.48254921  0.96243302  0.30453700  1
  Y  Y3  1  0.48241486  0.51758514  0.30424497  1
  Y  Y4  1  0.96699793  0.48409210  0.69839226  1
  Y  Y5  1  0.51590790  0.03300207  0.69839226  1
  Y  Y6  1  0.51719190  0.48280810  0.69787588  1
  Co  Co0  1  0.33900980  0.16982022  0.20063595  1
  Co  Co1  1  0.83017978  0.66099020  0.20063595  1
  Sn  Sn0  1  0.00082689  0.99917311  0.49496442  1
  Sn  Sn1  1  0.11444274  0.88555726  0.27280096  1
  Sn  Sn2  1  0.77004158  0.87948230  0.27748197  1
  Sn  Sn3  1  0.12051770  0.22995842  0.27748197  1
  Sn  Sn4  1  0.88469551  0.11530449  0.71378542  1
  Sn  Sn5  1  0.23136811  0.11464707  0.71698349  1
  Sn  Sn6  1  0.88535293  0.76863189  0.71698349  1
  Sn  Sn7  1  0.34676517  0.00392344  0.00590162  1
  Sn  Sn8  1  0.65478391  0.65024309  0.00531149  1
  Sn  Sn9  1  0.99828537  0.35156133  0.00028172  1
  Sn  Sn10  1  0.34975691  0.34521609  0.00531149  1
  Sn  Sn11  1  0.99607656  0.65323483  0.00590162  1
  Sn  Sn12  1  0.64843867  0.00171463  0.00028172  1
  Sn  Sn13  1  0.77963323  0.55790828  0.45342439  1
  Sn  Sn14  1  0.77720728  0.22279272  0.45953873  1
  Sn  Sn15  1  0.44209172  0.22036677  0.45342439  1
  Sn  Sn16  1  0.22332924  0.44539561  0.54148692  1
  Sn  Sn17  1  0.22264724  0.77735276  0.54108063  1
  Sn  Sn18  1  0.55460439  0.77667076  0.54148692  1
  Sn  Sn19  1  0.66621514  0.33378486  0.18057119  1
  Sn  Sn20  1  0.33360608  0.66639392  0.82943192  1
  Sn  Sn21  1  0.66621224  0.33378776  0.87687607  1
  Sn  Sn22  1  0.33378797  0.66621203  0.12595823  1
  Os  Os0  1  0.16888477  0.83111523  0.80172629  1
  Os  Os1  1  0.66356322  0.83061521  0.80111795  1
  Os  Os2  1  0.16938479  0.33643678  0.80111795  1
  Os  Os3  1  0.83155436  0.16844564  0.20120462  1
loop_
_geom_bond_atom_site_label_1
_geom_bond_atom_site_label_2
_geom_bond_distance
_geom_bond_site_symmetry_2
Co0 Sn7 2.553791 1_555
Co0 Sn10 2.569237 1_555
Co0 Sn3 2.601242 1_555
Co0 Sn1 2.643351 1_545
Co0 Sn15 2.670458 1_555
Co0 Sn19 2.782676 1_555
Co0 Y3 3.138141 1_555
Co0 Y2 3.172797 1_545
Co0 Y0 3.613518 1_454
Co1 Sn11 2.553791 1_555
Co1 Sn8 2.569237 1_555
Co1 Sn2 2.601242 1_555
Co1 Sn1 2.643351 1_655
Co1 Sn13 2.670458 1_555
Co1 Sn19 2.782676 1_555
Co1 Y3 3.138141 1_555
Co1 Y1 3.172797 1_655
Co1 Y0 3.613518 1_564
Sn0 Sn3 2.925227 1_565
Sn0 Sn2 2.925227 1_455
Sn0 Sn1 2.931828 1_555
Sn0 Sn4 2.935175 1_465
Sn0 Sn6 2.957440 1_455
Sn0 Sn5 2.957440 1_565
Sn1 Sn17 3.251617 1_555
Sn1 Sn7 3.309323 1_565
Sn1 Sn11 3.309323 1_455
Sn1 Y2 3.311281 1_555
Sn1 Y1 3.311281 1_555
Sn1 Sn2 3.345426 1_455
Sn1 Sn3 3.345426 1_565
Sn1 Y0 3.498647 1_464
Sn2 Y3 3.253959 1_555
Sn2 Y2 3.309661 1_555
Sn2 Sn8 3.336329 1_555
Sn2 Sn3 3.432794 1_665
Sn2 Y0 3.450120 1_564
Sn3 Y3 3.253959 1_555
Sn3 Y1 3.309661 1_555
Sn3 Y0 3.450120 1_454
Sn3 Sn9 3.460166 1_455
Sn4 Y5 3.289148 1_555
Sn4 Y4 3.289148 1_555
Sn4 Y0 3.319050 1_555
Sn4 Sn5 3.400394 1_655
Sn4 Sn6 3.400394 1_545
Sn5 Y5 3.267347 1_555
Sn5 Y6 3.283823 1_555
Sn5 Y0 3.374875 1_455
Sn5 Sn6 3.389101 1_445
Sn5 Sn7 3.468729 1_556
Sn6 Y4 3.267347 1_555
Sn6 Y6 3.283822 1_555
Sn6 Y0 3.374875 1_565
Sn6 Sn8 3.475061 1_556
Sn7 Y2 3.374198 1_545
Sn7 Y5 3.425539 1_554
Sn7 Y0 3.469978 1_454
Sn8 Y3 3.350754 1_555
Sn8 Y0 3.410319 1_564
Sn8 Y6 3.419480 1_554
Sn9 Y4 3.358463 1_554
Sn9 Y0 3.368353 1_554
Sn9 Y1 3.368693 1_655
Sn10 Sn8 2.987636 1_555
Sn10 Sn3 3.336328 1_555
Sn10 Y3 3.350754 1_555
Sn10 Sn21 3.404104 1_554
Sn10 Y0 3.410319 1_454
Sn10 Y6 3.419479 1_554
Sn10 Sn5 3.475061 1_554
Sn11 Sn9 2.967203 1_555
Sn11 Y1 3.374198 1_655
Sn11 Y4 3.425539 1_554
Sn11 Sn21 3.431718 1_554
Sn11 Sn6 3.468729 1_554
Sn11 Y0 3.469979 1_564
Sn12 Sn7 2.967203 1_555
Sn12 Y5 3.358463 1_554
Sn12 Y0 3.368352 1_554
Sn12 Y2 3.368693 1_545
Sn12 Sn21 3.404698 1_554
Sn12 Sn2 3.460166 1_545
Sn13 Y1 3.118189 1_655
Sn13 Y3 3.118654 1_555
Sn13 Sn6 3.176170 1_555
Sn13 Sn14 3.272611 1_555
Sn13 Sn15 3.306104 1_555
Sn13 Sn19 3.316905 1_555
Sn13 Y6 3.342881 1_555
Sn13 Y4 3.352019 1_555
Sn14 Sn4 3.129967 1_555
Sn14 Y1 3.141128 1_655
Sn14 Y2 3.141128 1_545
Sn14 Sn15 3.272610 1_555
Sn14 Y5 3.303492 1_555
Sn14 Y4 3.303492 1_555
Sn14 Sn19 3.366536 1_555
Sn15 Y2 3.118189 1_545
Sn15 Y3 3.118654 1_555
Sn15 Sn5 3.176169 1_555
Sn15 Sn19 3.316905 1_555
Sn15 Y6 3.342881 1_555
Sn15 Y5 3.352019 1_555
Sn16 Y4 3.134273 1_455
Sn16 Y6 3.135188 1_555
Sn16 Sn3 3.202659 1_555
Sn16 Sn18 3.244727 1_555
Sn16 Sn17 3.256081 1_555
Sn16 Y3 3.273807 1_555
Sn16 Y1 3.274872 1_555
Sn17 Y4 3.129586 1_455
Sn17 Y5 3.129586 1_565
Sn17 Sn18 3.256081 1_555
Sn17 Y2 3.272162 1_555
Sn17 Y1 3.272162 1_555
Sn18 Y5 3.134273 1_565
Sn18 Y6 3.135188 1_555
Sn18 Sn2 3.202659 1_555
Sn18 Y3 3.273807 1_555
Sn18 Y2 3.274872 1_555
Sn19 Sn21 3.029183 1_554
Sn19 Y3 3.350278 1_555
Sn19 Y1 3.386730 1_655
Sn19 Y2 3.386730 1_545
Sn20 Sn22 2.957692 1_556
Sn20 Y4 3.376053 1_455
Sn20 Y5 3.376053 1_565
Sn20 Y6 3.376374 1_555
Sn21 Y6 3.101907 1_555
Sn21 Y4 3.108479 1_555
Sn21 Y5 3.108479 1_555
Sn21 Sn8 3.404105 1_556
Sn21 Sn9 3.404698 1_556
Sn21 Sn7 3.431718 1_556
Sn22 Y1 3.077379 1_555
Sn22 Y2 3.077379 1_555
Sn22 Y3 3.092327 1_555
Os0 Sn11 2.664507 1_456
Os0 Sn7 2.664507 1_566
Os0 Sn6 2.667972 1_455
Os0 Sn5 2.667972 1_565
Os0 Sn17 2.751874 1_555
Os0 Sn20 2.810687 1_555
Os0 Y5 3.129836 1_565
Os0 Y4 3.129837 1_455
Os0 Y0 3.498541 1_465
Os1 Sn12 2.646278 1_566
Os1 Sn6 2.664759 1_555
Os1 Sn8 2.674079 1_556
Os1 Sn4 2.681397 1_565
Os1 Sn18 2.751449 1_555
Os1 Sn20 2.812874 1_555
Os1 Y6 3.134687 1_555
Os1 Y5 3.157777 1_565
Os1 Y0 3.376127 1_565
Os2 Sn9 2.646277 1_456
Os2 Sn5 2.664759 1_555
Os2 Sn10 2.674079 1_556
Os2 Sn4 2.681397 1_455
Os2 Sn16 2.751449 1_555
Os2 Sn20 2.812874 1_555
Os2 Y6 3.134687 1_555
Os2 Y4 3.157777 1_455
Os2 Y0 3.376127 1_455
Os3 Sn9 2.640715 1_555
Os3 Sn12 2.640715 1_555
Os3 Sn3 2.694970 1_655
Os3 Sn2 2.694970 1_545
Os3 Sn14 2.733429 1_555
Os3 Sn19 2.814811 1_555
Os3 Y2 3.148526 1_545
Os3 Y1 3.148526 1_655
Os3 Y0 3.471876 1_554
