# generated using pymatgen
data_MgPd(PtO3)2
_symmetry_space_group_name_H-M   'P 1'
_cell_length_a   6.09830125
_cell_length_b   6.09830129
_cell_length_c   3.18065725
_cell_angle_alpha   90.00000000
_cell_angle_beta   90.00000000
_cell_angle_gamma   108.94325820
_symmetry_Int_Tables_number   1
_chemical_formula_structural   MgPd(PtO3)2
_chemical_formula_sum   'Mg1 Pd1 Pt2 O6'
_cell_volume   111.88002211
_cell_formula_units_Z   1
loop_
 _symmetry_equiv_pos_site_id
 _symmetry_equiv_pos_as_xyz
  1  'x, y, z'
loop_
 _atom_site_type_symbol
 _atom_site_label
 _atom_site_symmetry_multiplicity
 _atom_site_fract_x
 _atom_site_fract_y
 _atom_site_fract_z
 _atom_site_occupancy
  Mg  Mg0  1  0.50000000  0.50000000  0.00000000  1
  Pd  Pd0  1  0.00000000  0.00000000  0.00000000  1
  Pt  Pt0  1  0.50000000  0.00000000  0.50000000  1
  Pt  Pt1  1  0.00000000  0.50000000  0.50000000  1
  O  O0  1  0.08495298  0.33989772  0.00000000  1
  O  O1  1  0.91504702  0.66010228  0.00000000  1
  O  O2  1  0.33989772  0.08495298  0.00000000  1
  O  O3  1  0.66010228  0.91504702  0.00000000  1
  O  O4  1  0.64775959  0.35224041  0.50000000  1
  O  O5  1  0.35224041  0.64775959  0.50000000  1
loop_
_geom_bond_atom_site_label_1
_geom_bond_atom_site_label_2
_geom_bond_distance
_geom_bond_site_symmetry_2
Mg0 O5 2.163380 1_555
Mg0 O5 2.163380 1_554
Mg0 O4 2.163380 1_555
Mg0 O4 2.163380 1_554
Mg0 O1 2.398992 1_555
Mg0 O0 2.398992 1_555
Mg0 O3 2.398992 1_555
Mg0 O2 2.398992 1_555
O0 Pd0 1.966641 1_555
O0 Pt1 2.019706 1_555
O0 Pt1 2.019706 1_554
O1 Pd0 1.966641 1_665
O1 Pt1 2.019706 1_655
O1 Pt1 2.019706 1_654
O2 Pd0 1.966641 1_555
O2 Pt0 2.019706 1_555
O2 Pt0 2.019706 1_554
O3 Pd0 1.966641 1_665
O3 Pt0 2.019706 1_564
O3 Pt0 2.019706 1_565
O4 Pt1 2.041921 1_655
O4 Pt0 2.041921 1_555
O5 Pt1 2.041921 1_555
O5 Pt0 2.041921 1_565
