# generated using pymatgen
data_Ba4Sr(HfAs3)2
_symmetry_space_group_name_H-M   'P 1'
_cell_length_a   4.42562216
_cell_length_b   12.89528172
_cell_length_c   15.00691548
_cell_angle_alpha   90.00000000
_cell_angle_beta   90.00000000
_cell_angle_gamma   90.00000000
_symmetry_Int_Tables_number   1
_chemical_formula_structural   Ba4Sr(HfAs3)2
_chemical_formula_sum   'Ba8 Sr2 Hf4 As12'
_cell_volume   856.43933174
_cell_formula_units_Z   2
loop_
 _symmetry_equiv_pos_site_id
 _symmetry_equiv_pos_as_xyz
  1  'x, y, z'
loop_
 _atom_site_type_symbol
 _atom_site_label
 _atom_site_symmetry_multiplicity
 _atom_site_fract_x
 _atom_site_fract_y
 _atom_site_fract_z
 _atom_site_occupancy
  Ba  Ba0  1  0.00000000  0.60683166  0.26435460  1
  Ba  Ba1  1  0.00000000  0.39316834  0.73564540  1
  Ba  Ba2  1  0.00000000  0.10683166  0.23564540  1
  Ba  Ba3  1  0.00000000  0.89316834  0.76435460  1
  Ba  Ba4  1  0.00000000  0.87094041  0.42822857  1
  Ba  Ba5  1  0.00000000  0.12905959  0.57177143  1
  Ba  Ba6  1  0.00000000  0.37094041  0.07177143  1
  Ba  Ba7  1  0.00000000  0.62905959  0.92822857  1
  Sr  Sr0  1  0.00000000  0.50000000  0.50000000  1
  Sr  Sr1  1  0.00000000  0.00000000  0.00000000  1
  Hf  Hf0  1  0.50000000  0.78511015  0.10139285  1
  Hf  Hf1  1  0.50000000  0.21488985  0.89860715  1
  Hf  Hf2  1  0.50000000  0.28511015  0.39860715  1
  Hf  Hf3  1  0.50000000  0.71488985  0.60139285  1
  As  As0  1  0.50000000  0.58808384  0.10387881  1
  As  As1  1  0.50000000  0.41191616  0.89612119  1
  As  As2  1  0.50000000  0.08808384  0.39612119  1
  As  As3  1  0.50000000  0.91191616  0.60387881  1
  As  As4  1  0.50000000  0.66531304  0.43500579  1
  As  As5  1  0.50000000  0.33468696  0.56499421  1
  As  As6  1  0.50000000  0.16531304  0.06499421  1
  As  As7  1  0.50000000  0.83468696  0.93500579  1
  As  As8  1  0.00000000  0.85253705  0.17804917  1
  As  As9  1  0.00000000  0.14746295  0.82195083  1
  As  As10  1  0.00000000  0.35253705  0.32195083  1
  As  As11  1  0.00000000  0.64746295  0.67804917  1
loop_
_geom_bond_atom_site_label_1
_geom_bond_atom_site_label_2
_geom_bond_distance
_geom_bond_site_symmetry_2
As0 Hf0 2.540984 1_555
As0 Ba0 3.279426 1_655
As0 Ba0 3.279426 1_555
As0 Ba7 3.481962 1_554
As0 Ba7 3.481962 1_654
As0 Ba6 3.601305 1_655
As0 Ba6 3.601305 1_555
As1 Hf1 2.540984 1_555
As1 Ba1 3.279426 1_555
As1 Ba1 3.279426 1_655
As1 Ba6 3.481962 1_656
As1 Ba6 3.481962 1_556
As1 Ba7 3.601305 1_555
As1 Ba7 3.601305 1_655
As2 Hf2 2.540984 1_555
As2 Ba2 3.279426 1_655
As2 Ba2 3.279426 1_555
As2 Ba5 3.481962 1_555
As2 Ba5 3.481962 1_655
As2 Ba4 3.601305 1_645
As2 Ba4 3.601305 1_545
As3 Hf3 2.540984 1_555
As3 Ba3 3.279426 1_655
As3 Ba3 3.279426 1_555
As3 Ba4 3.481962 1_655
As3 Ba4 3.481962 1_555
As3 Ba5 3.601305 1_665
As3 Ba5 3.601305 1_565
As4 Hf3 2.577500 1_555
As4 Sr0 3.223703 1_555
As4 Sr0 3.223703 1_655
As4 Ba4 3.455138 1_555
As4 Ba4 3.455138 1_655
As4 Ba0 3.467521 1_555
As4 Ba0 3.467521 1_655
As5 Hf2 2.577500 1_555
As5 Sr0 3.223703 1_555
As5 Sr0 3.223703 1_655
As5 Ba5 3.455138 1_555
As5 Ba5 3.455138 1_655
As5 Ba1 3.467521 1_655
As5 Ba1 3.467521 1_555
As6 Hf1 2.577500 1_554
As6 Sr1 3.223703 1_655
As6 Sr1 3.223703 1_555
As6 Ba6 3.455138 1_655
As6 Ba6 3.455138 1_555
As6 Ba2 3.467521 1_655
As6 Ba2 3.467521 1_555
As7 Hf0 2.577500 1_556
As7 Sr1 3.223703 1_566
As7 Sr1 3.223703 1_666
As7 Ba7 3.455138 1_555
As7 Ba7 3.455138 1_655
As7 Ba3 3.467521 1_555
As7 Ba3 3.467521 1_655
As8 Hf0 2.641194 1_555
As8 Hf0 2.641194 1_455
As8 Sr1 3.279544 1_565
As8 Ba2 3.391201 1_565
As8 Ba0 3.422937 1_555
As8 Ba4 3.761914 1_555
As9 Hf1 2.641194 1_455
As9 Hf1 2.641194 1_555
As9 Sr1 3.279544 1_556
As9 Ba3 3.391201 1_545
As9 Ba1 3.422937 1_555
As9 Ba5 3.761914 1_555
As10 Hf2 2.641194 1_555
As10 Hf2 2.641194 1_455
As10 Sr0 3.279544 1_555
As10 Ba0 3.391201 1_555
As10 Ba2 3.422937 1_555
As10 Ba6 3.761914 1_555
As11 Hf3 2.641194 1_455
As11 Hf3 2.641194 1_555
As11 Sr0 3.279544 1_555
As11 Ba1 3.391201 1_555
As11 Ba3 3.422937 1_555
As11 Ba7 3.761914 1_555
