# generated using pymatgen
data_K2Co(TeO4)3
_symmetry_space_group_name_H-M   'P 1'
_cell_length_a   6.92880417
_cell_length_b   6.92880354
_cell_length_c   6.92880318
_cell_angle_alpha   61.82163044
_cell_angle_beta   61.82163129
_cell_angle_gamma   61.82163764
_symmetry_Int_Tables_number   1
_chemical_formula_structural   K2Co(TeO4)3
_chemical_formula_sum   'K2 Co1 Te3 O12'
_cell_volume   244.80831988
_cell_formula_units_Z   1
loop_
 _symmetry_equiv_pos_site_id
 _symmetry_equiv_pos_as_xyz
  1  'x, y, z'
loop_
 _atom_site_type_symbol
 _atom_site_label
 _atom_site_symmetry_multiplicity
 _atom_site_fract_x
 _atom_site_fract_y
 _atom_site_fract_z
 _atom_site_occupancy
  K  K0  1  0.13130576  0.13130576  0.13130576  1
  K  K1  1  0.86869424  0.86869424  0.86869424  1
  Co  Co0  1  0.50000000  0.50000000  0.50000000  1
  Te  Te0  1  0.00000000  0.50000000  0.50000000  1
  Te  Te1  1  0.50000000  0.50000000  0.00000000  1
  Te  Te2  1  0.50000000  0.00000000  0.50000000  1
  O  O0  1  0.42960462  0.81517380  0.42960462  1
  O  O1  1  0.82803001  0.43218712  0.82803001  1
  O  O2  1  0.43218712  0.82803001  0.82803001  1
  O  O3  1  0.81517380  0.42960462  0.42960462  1
  O  O4  1  0.82803001  0.82803001  0.43218712  1
  O  O5  1  0.42960462  0.42960462  0.81517380  1
  O  O6  1  0.57039538  0.18482620  0.57039538  1
  O  O7  1  0.17196999  0.56781288  0.17196999  1
  O  O8  1  0.56781288  0.17196999  0.17196999  1
  O  O9  1  0.18482620  0.57039538  0.57039538  1
  O  O10  1  0.17196999  0.17196999  0.56781288  1
  O  O11  1  0.57039538  0.57039538  0.18482620  1
loop_
_geom_bond_atom_site_label_1
_geom_bond_atom_site_label_2
_geom_bond_distance
_geom_bond_site_symmetry_2
K0 O5 2.970654 1_554
K0 O3 2.970654 1_455
K0 O0 2.970654 1_545
K0 O4 3.012141 1_445
K0 O2 3.012141 1_544
K0 O1 3.012141 1_454
K1 O11 2.970654 1_556
K1 O9 2.970654 1_655
K1 O6 2.970654 1_565
K1 O10 3.012141 1_665
K1 O8 3.012141 1_566
K1 O7 3.012141 1_656
Co0 O11 1.859422 1_555
Co0 O5 1.859422 1_555
Co0 O6 1.859422 1_555
Co0 O0 1.859422 1_555
Co0 O3 1.859422 1_555
Co0 O9 1.859422 1_555
O0 Te2 1.876259 1_565
O1 Te0 1.941354 1_655
O1 Te1 1.941354 1_556
O2 Te2 1.941354 1_565
O2 Te1 1.941354 1_556
O3 Te0 1.876259 1_655
O4 Te0 1.941354 1_655
O4 Te2 1.941354 1_565
O5 Te1 1.876259 1_556
O6 Te2 1.876259 1_555
O7 Te0 1.941354 1_555
O7 Te1 1.941354 1_555
O8 Te2 1.941354 1_555
O8 Te1 1.941354 1_555
O9 Te0 1.876259 1_555
O10 Te0 1.941354 1_555
O10 Te2 1.941354 1_555
O11 Te1 1.876259 1_555
