# generated using pymatgen
data_Lu16CdIn3Ir4
_symmetry_space_group_name_H-M   'P 1'
_cell_length_a   9.40619487
_cell_length_b   9.39880105
_cell_length_c   9.39880034
_cell_angle_alpha   59.99999907
_cell_angle_beta   60.02599828
_cell_angle_gamma   60.02599367
_symmetry_Int_Tables_number   1
_chemical_formula_structural   Lu16CdIn3Ir4
_chemical_formula_sum   'Lu16 Cd1 In3 Ir4'
_cell_volume   587.77943506
_cell_formula_units_Z   1
loop_
 _symmetry_equiv_pos_site_id
 _symmetry_equiv_pos_as_xyz
  1  'x, y, z'
loop_
 _atom_site_type_symbol
 _atom_site_label
 _atom_site_symmetry_multiplicity
 _atom_site_fract_x
 _atom_site_fract_y
 _atom_site_fract_z
 _atom_site_occupancy
  Lu  Lu0  1  0.34875683  0.34858460  0.34858460  1
  Lu  Lu1  1  0.34875683  0.34858460  0.95407297  1
  Lu  Lu2  1  0.34875683  0.95407297  0.34858460  1
  Lu  Lu3  1  0.95255978  0.34914607  0.34914607  1
  Lu  Lu4  1  0.80682574  0.19297151  0.19297151  1
  Lu  Lu5  1  0.19230865  0.80801574  0.80801574  1
  Lu  Lu6  1  0.19230865  0.80801574  0.19165987  1
  Lu  Lu7  1  0.80682574  0.19297151  0.80723024  1
  Lu  Lu8  1  0.19230865  0.19165987  0.80801574  1
  Lu  Lu9  1  0.80682574  0.80723024  0.19297151  1
  Lu  Lu10  1  0.94270519  0.55967295  0.55967295  1
  Lu  Lu11  1  0.56113173  0.93968947  0.93968947  1
  Lu  Lu12  1  0.56113173  0.93968947  0.55948834  1
  Lu  Lu13  1  0.94270519  0.55967295  0.93794891  1
  Lu  Lu14  1  0.56113173  0.55948834  0.93968947  1
  Lu  Lu15  1  0.94270519  0.93794891  0.55967295  1
  Cd  Cd0  1  0.25049760  0.58316713  0.58316713  1
  In  In0  1  0.58151600  0.58422105  0.58422105  1
  In  In1  1  0.58151600  0.58422105  0.25004290  1
  In  In2  1  0.58151600  0.25004290  0.58422105  1
  Ir  Ir0  1  0.13939527  0.14093381  0.14093381  1
  Ir  Ir1  1  0.13939527  0.14093381  0.57873611  1
  Ir  Ir2  1  0.13939527  0.57873611  0.14093381  1
  Ir  Ir3  1  0.57902339  0.14032520  0.14032520  1
loop_
_geom_bond_atom_site_label_1
_geom_bond_atom_site_label_2
_geom_bond_distance
_geom_bond_site_symmetry_2
Cd0 In2 3.123543 1_555
Cd0 In1 3.123543 1_555
Cd0 In0 3.123553 1_555
Cd0 Lu10 3.131422 1_455
Cd0 Lu15 3.131427 1_455
Cd0 Lu13 3.131427 1_455
Cd0 Lu1 3.371238 1_555
Cd0 Lu0 3.371238 1_555
Cd0 Lu2 3.371238 1_555
Cd0 Lu6 3.374339 1_555
Cd0 Lu8 3.374339 1_555
Cd0 Lu5 3.374347 1_555
In0 In1 3.140874 1_555
In0 In2 3.140874 1_555
In0 Lu14 3.143364 1_555
In0 Lu12 3.143364 1_555
In0 Lu10 3.183653 1_555
In0 Lu5 3.359567 1_555
In0 Lu2 3.365067 1_555
In0 Lu1 3.365068 1_555
In0 Lu7 3.369116 1_555
In0 Lu9 3.369116 1_555
In0 Lu3 3.378665 1_555
In1 In2 3.140874 1_555
In1 Lu11 3.143372 1_554
In1 Lu14 3.143382 1_554
In1 Lu13 3.183656 1_554
In1 Lu6 3.359571 1_555
In1 Lu2 3.365059 1_555
In1 Lu0 3.365075 1_555
In1 Lu9 3.369108 1_555
In1 Lu4 3.369123 1_555
In1 Lu3 3.378652 1_555
In2 Lu11 3.143372 1_545
In2 Lu12 3.143383 1_545
In2 Lu15 3.183656 1_545
In2 Lu8 3.359571 1_555
In2 Lu1 3.365058 1_555
In2 Lu0 3.365074 1_555
In2 Lu7 3.369107 1_555
In2 Lu4 3.369123 1_555
In2 Lu3 3.378653 1_555
Ir0 Lu4 2.728698 1_455
Ir0 Lu8 2.730387 1_554
Ir0 Lu6 2.730387 1_545
Ir0 Lu3 2.775697 1_455
Ir0 Lu2 2.780010 1_545
Ir0 Lu1 2.780011 1_554
Ir0 Lu13 3.360762 1_454
Ir0 Lu15 3.360762 1_445
Ir0 Lu11 3.387421 1_544
Ir1 Lu7 2.728698 1_455
Ir1 Lu5 2.730390 1_545
Ir1 Lu8 2.730396 1_555
Ir1 Lu3 2.775704 1_455
Ir1 Lu2 2.780010 1_545
Ir1 Lu0 2.780011 1_555
Ir1 Lu15 3.360756 1_445
Ir1 Lu10 3.360764 1_455
Ir1 Lu12 3.387421 1_545
Ir2 Lu9 2.728697 1_455
Ir2 Lu5 2.730390 1_554
Ir2 Lu6 2.730396 1_555
Ir2 Lu3 2.775704 1_455
Ir2 Lu0 2.780010 1_555
Ir2 Lu1 2.780010 1_554
Ir2 Lu13 3.360756 1_454
Ir2 Lu10 3.360764 1_455
Ir2 Lu14 3.387421 1_554
Ir3 Lu9 2.728509 1_545
Ir3 Lu7 2.728509 1_554
Ir3 Lu4 2.728509 1_555
Ir3 Lu0 2.777210 1_555
Ir3 Lu1 2.777210 1_554
Ir3 Lu2 2.777210 1_545
Ir3 Lu12 3.366085 1_545
Ir3 Lu11 3.366085 1_544
Ir3 Lu14 3.366085 1_554
