# generated using pymatgen
data_Pr2Si2O7
_symmetry_space_group_name_H-M   'P 1'
_cell_length_a   6.76066778
_cell_length_b   6.76066778
_cell_length_c   24.57145893
_cell_angle_alpha   90.00000000
_cell_angle_beta   90.00000000
_cell_angle_gamma   90.00000000
_symmetry_Int_Tables_number   1
_chemical_formula_structural   Pr2Si2O7
_chemical_formula_sum   'Pr16 Si16 O56'
_cell_volume   1123.07855352
_cell_formula_units_Z   8
loop_
 _symmetry_equiv_pos_site_id
 _symmetry_equiv_pos_as_xyz
  1  'x, y, z'
loop_
 _atom_site_type_symbol
 _atom_site_label
 _atom_site_symmetry_multiplicity
 _atom_site_fract_x
 _atom_site_fract_y
 _atom_site_fract_z
 _atom_site_occupancy
  Pr  Pr0  1  0.88063000  0.23756445  0.63293539  1
  Pr  Pr1  1  0.76243555  0.88063000  0.88293539  1
  Pr  Pr2  1  0.23756445  0.11937000  0.38293539  1
  Pr  Pr3  1  0.11937000  0.76243555  0.13293539  1
  Pr  Pr4  1  0.67001027  0.07895683  0.49289813  1
  Pr  Pr5  1  0.92104317  0.67001027  0.74289813  1
  Pr  Pr6  1  0.07895683  0.32998973  0.24289813  1
  Pr  Pr7  1  0.32998973  0.92104317  0.99289813  1
  Pr  Pr8  1  0.48054592  0.83456287  0.64110885  1
  Pr  Pr9  1  0.16543713  0.48054592  0.89110885  1
  Pr  Pr10  1  0.83456287  0.51945408  0.39110885  1
  Pr  Pr11  1  0.51945408  0.16543713  0.14110885  1
  Pr  Pr12  1  0.24901410  0.69832152  0.49116155  1
  Pr  Pr13  1  0.30167848  0.24901410  0.74116155  1
  Pr  Pr14  1  0.69832152  0.75098590  0.24116155  1
  Pr  Pr15  1  0.75098590  0.30167848  0.99116155  1
  Si  Si0  1  0.99892977  0.70602697  0.61408063  1
  Si  Si1  1  0.29397303  0.99892977  0.86408063  1
  Si  Si2  1  0.70602697  0.00107023  0.36408063  1
  Si  Si3  1  0.00107023  0.29397303  0.11408063  1
  Si  Si4  1  0.74509333  0.62093051  0.51614499  1
  Si  Si5  1  0.37906949  0.74509333  0.76614499  1
  Si  Si6  1  0.62093051  0.25490667  0.26614499  1
  Si  Si7  1  0.25490667  0.37906949  0.01614499  1
  Si  Si8  1  0.40490947  0.30288173  0.60602743  1
  Si  Si9  1  0.69711827  0.40490947  0.85602743  1
  Si  Si10  1  0.30288173  0.59509153  0.35602743  1
  Si  Si11  1  0.59509153  0.69711827  0.10602743  1
  Si  Si12  1  0.15353077  0.23444868  0.50827938  1
  Si  Si13  1  0.76555132  0.15353077  0.75827938  1
  Si  Si14  1  0.23444868  0.84646923  0.25827938  1
  Si  Si15  1  0.84646923  0.76555132  0.00827938  1
  O  O0  1  0.19004152  0.79335805  0.58432409  1
  O  O1  1  0.20664195  0.19004152  0.83432409  1
  O  O2  1  0.79335805  0.80995848  0.33432409  1
  O  O3  1  0.80995848  0.20664195  0.08432409  1
  O  O4  1  0.85163884  0.86678958  0.64175026  1
  O  O5  1  0.13321042  0.85163884  0.89175026  1
  O  O6  1  0.86678958  0.14836116  0.39175026  1
  O  O7  1  0.14836116  0.13321042  0.14175026  1
  O  O8  1  0.05186226  0.54502751  0.66038979  1
  O  O9  1  0.45497249  0.05186226  0.91038979  1
  O  O10  1  0.54502751  0.94813774  0.41038979  1
  O  O11  1  0.94813774  0.45497249  0.16038979  1
  O  O12  1  0.87985863  0.56225288  0.56959396  1
  O  O13  1  0.43774712  0.87985863  0.81959396  1
  O  O14  1  0.56225288  0.12014137  0.31959396  1
  O  O15  1  0.12014137  0.43774712  0.06959396  1
  O  O16  1  0.88336905  0.75632540  0.47632527  1
  O  O17  1  0.24367460  0.88336905  0.72632527  1
  O  O18  1  0.75632540  0.11663095  0.22632527  1
  O  O19  1  0.11663095  0.24367460  0.97632527  1
  O  O20  1  0.56435371  0.76242395  0.53564848  1
  O  O21  1  0.57042765  0.13926591  0.58688107  1
  O  O22  1  0.23757605  0.56435371  0.78564848  1
  O  O23  1  0.43564629  0.23757605  0.03564848  1
  O  O24  1  0.67350856  0.42972407  0.48314682  1
  O  O25  1  0.57027593  0.67350856  0.73314682  1
  O  O26  1  0.42972407  0.32649144  0.23314682  1
  O  O27  1  0.32649144  0.57027593  0.98314682  1
  O  O28  1  0.24904755  0.18288455  0.64418381  1
  O  O29  1  0.81711545  0.24904755  0.89418381  1
  O  O30  1  0.18288455  0.75095245  0.39418381  1
  O  O31  1  0.75095245  0.81711545  0.14418381  1
  O  O32  1  0.88884201  0.61823329  0.95726721  1
  O  O33  1  0.38176671  0.88884201  0.20726721  1
  O  O34  1  0.61823329  0.11115799  0.70726721  1
  O  O35  1  0.11115799  0.38176671  0.45726721  1
  O  O36  1  0.71220873  0.94287845  0.98374776  1
  O  O37  1  0.05712155  0.71220873  0.23374776  1
  O  O38  1  0.94287845  0.28779127  0.73374776  1
  O  O39  1  0.28779127  0.05712155  0.48374776  1
  O  O40  1  0.03606465  0.84541543  0.04041624  1
  O  O41  1  0.15458457  0.03606465  0.29041624  1
  O  O42  1  0.84541543  0.96393535  0.79041624  1
  O  O43  1  0.96393535  0.15458457  0.54041624  1
  O  O44  1  0.71288848  0.62517140  0.04983816  1
  O  O45  1  0.37482860  0.71288848  0.29983816  1
  O  O46  1  0.62517140  0.28711152  0.79983816  1
  O  O47  1  0.28711152  0.37482860  0.54983816  1
  O  O48  1  0.47950319  0.51936961  0.13444473  1
  O  O49  1  0.48063039  0.47950319  0.38444473  1
  O  O50  1  0.51936961  0.52049681  0.88444473  1
  O  O51  1  0.52049681  0.48063039  0.63444473  1
  O  O52  1  0.42957235  0.86073409  0.08688107  1
  O  O53  1  0.13926591  0.42957235  0.33688107  1
  O  O54  1  0.86073409  0.57042765  0.83688107  1
  O  O55  1  0.76242395  0.43564629  0.28564848  1
loop_
_geom_bond_atom_site_label_1
_geom_bond_atom_site_label_2
_geom_bond_distance
_geom_bond_site_symmetry_2
O0 Si0 1.597675 1_455
O0 Pr12 2.410796 1_555
O0 Pr8 2.425228 1_555
O1 Si1 1.597675 1_545
O1 Pr13 2.410796 1_555
O1 Pr9 2.425228 1_555
O2 Si2 1.597675 1_565
O2 Pr14 2.410796 1_555
O2 Pr10 2.425228 1_555
O3 Si3 1.597675 1_655
O3 Pr15 2.410796 1_554
O3 Pr11 2.425228 1_555
O4 Si0 1.623299 1_555
O4 Pr8 2.518328 1_555
O4 Pr0 2.523649 1_565
O4 Pr5 2.857795 1_555
O5 Si1 1.623299 1_555
O5 Pr9 2.518328 1_555
O5 Pr1 2.523649 1_455
O5 Pr7 2.857795 1_555
O6 Si2 1.623299 1_555
O6 Pr10 2.518328 1_555
O6 Pr2 2.523649 1_655
O6 Pr4 2.857795 1_555
O7 Si3 1.623299 1_555
O7 Pr11 2.518328 1_555
O7 Pr3 2.523649 1_545
O7 Pr6 2.857795 1_555
O8 Si0 1.614805 1_455
O8 Pr5 2.367768 1_455
O8 Pr0 2.473060 1_455
O9 Si1 1.614805 1_545
O9 Pr7 2.367768 1_545
O9 Pr1 2.473060 1_545
O10 Si2 1.614805 1_565
O10 Pr4 2.367768 1_565
O10 Pr2 2.473060 1_565
O11 Si3 1.614805 1_655
O11 Pr6 2.367768 1_655
O11 Pr3 2.473060 1_655
O12 Si4 1.646902 1_555
O12 Si0 1.669641 1_555
O12 Pr0 2.690891 1_555
O13 Si5 1.646902 1_555
O13 Si1 1.669641 1_555
O13 Pr1 2.690891 1_555
O14 Si6 1.646902 1_555
O14 Si2 1.669641 1_555
O14 Pr2 2.690891 1_555
O15 Si7 1.646902 1_555
O15 Si3 1.669641 1_555
O15 Pr3 2.690891 1_555
O16 Si4 1.633746 1_555
O16 Pr12 2.529324 1_655
O16 Pr4 2.646532 1_565
O16 Pr10 2.656646 1_555
O17 Si5 1.633746 1_555
O17 Pr13 2.529324 1_565
O17 Pr5 2.646532 1_455
O17 Pr8 2.656646 1_555
O18 Si6 1.633746 1_555
O18 Pr14 2.529324 1_545
O18 Pr6 2.646532 1_655
O18 Pr11 2.656646 1_555
O19 Si7 1.633746 1_556
O19 Pr15 2.529324 1_455
O19 Pr7 2.646532 1_545
O19 Pr9 2.656646 1_555
O20 Si4 1.624135 1_555
O20 Pr12 2.434692 1_555
O20 Pr4 2.488603 1_565
O20 Pr8 2.696999 1_555
O21 Si8 1.642282 1_555
O21 Pr4 2.439746 1_555
O21 Pr0 2.473935 1_555
O21 Pr8 2.527503 1_545
O22 Si5 1.624135 1_555
O22 Pr13 2.434692 1_555
O22 Pr5 2.488603 1_455
O22 Pr9 2.696999 1_555
O23 Si7 1.624135 1_555
O23 Pr15 2.434692 1_554
O23 Pr7 2.488603 1_544
O23 Pr11 2.696999 1_555
O24 Si4 1.600833 1_555
O24 Pr4 2.383612 1_555
O24 Pr10 2.582244 1_555
O25 Si5 1.600833 1_555
O25 Pr5 2.383612 1_555
O25 Pr8 2.582244 1_555
O26 Si6 1.600833 1_555
O26 Pr6 2.383612 1_555
O26 Pr11 2.582244 1_555
O27 Si7 1.600833 1_556
O27 Pr7 2.383612 1_555
O27 Pr9 2.582244 1_555
O28 Si8 1.627116 1_555
O28 Pr13 2.450434 1_555
O28 Pr0 2.533156 1_455
O28 Pr8 2.828549 1_545
O29 Si9 1.627116 1_555
O29 Pr15 2.450434 1_555
O29 Pr1 2.533156 1_545
O29 Pr9 2.828549 1_655
O30 Si10 1.627112 1_555
O30 Pr12 2.450434 1_555
O30 Pr2 2.533156 1_565
O30 Pr10 2.828549 1_455
O31 Si11 1.627112 1_555
O31 Pr14 2.450434 1_555
O31 Pr3 2.533156 1_655
O31 Pr11 2.828549 1_565
O32 Si15 1.626388 1_556
O32 Pr15 2.478378 1_555
O32 Pr9 2.646862 1_655
O32 Pr1 2.685742 1_555
O33 Si14 1.626388 1_555
O33 Pr14 2.478378 1_555
O33 Pr11 2.646862 1_565
O33 Pr3 2.685742 1_555
O34 Si13 1.626388 1_555
O34 Pr13 2.478378 1_555
O34 Pr8 2.646862 1_545
O34 Pr0 2.685742 1_555
O35 Si12 1.626388 1_555
O35 Pr12 2.478378 1_555
O35 Pr10 2.646862 1_455
O35 Pr2 2.685742 1_555
O36 Si15 1.620026 1_556
O36 Pr15 2.446644 1_565
O36 Pr1 2.535443 1_555
O36 Pr7 2.598016 1_555
O37 Si14 1.620026 1_555
O37 Pr14 2.446644 1_455
O37 Pr3 2.535443 1_555
O37 Pr6 2.598016 1_555
O38 Si13 1.620026 1_555
O38 Pr13 2.446644 1_655
O38 Pr0 2.535443 1_555
O38 Pr5 2.598016 1_555
O39 Si12 1.620026 1_555
O39 Pr12 2.446644 1_545
O39 Pr2 2.535443 1_555
O39 Pr4 2.598016 1_555
O40 Si15 1.599395 1_455
O40 Pr7 2.360799 1_554
O40 Pr3 2.408308 1_555
O41 Si14 1.599395 1_545
O41 Pr6 2.360799 1_555
O41 Pr2 2.408308 1_555
O42 Si13 1.599395 1_565
O42 Pr5 2.360799 1_555
O42 Pr1 2.408308 1_555
O43 Si12 1.599395 1_655
O43 Pr4 2.360799 1_555
O43 Pr0 2.408308 1_555
O44 Si15 1.661044 1_555
O44 Si11 1.666441 1_555
O44 Pr15 2.632134 1_554
O45 Si14 1.661044 1_555
O45 Si10 1.666441 1_555
O45 Pr14 2.632134 1_555
O46 Si13 1.661044 1_555
O46 Si9 1.666444 1_555
O46 Pr13 2.632134 1_555
O47 Si12 1.661044 1_555
O47 Si8 1.666444 1_555
O47 Pr12 2.632134 1_555
O48 Si11 1.594463 1_555
O48 Pr11 2.413576 1_555
O48 Pr3 2.937641 1_555
O49 Si10 1.594463 1_555
O49 Pr10 2.413576 1_555
O49 Pr2 2.937641 1_555
O50 Si9 1.594460 1_555
O50 Pr9 2.413576 1_555
O50 Pr1 2.937641 1_555
O51 Si8 1.594460 1_555
O51 Pr8 2.413576 1_555
O51 Pr0 2.937641 1_555
O52 Si11 1.642287 1_555
O52 Pr7 2.439746 1_554
O52 Pr3 2.473935 1_555
O52 Pr11 2.527503 1_565
O53 Si10 1.642287 1_555
O53 Pr6 2.439746 1_555
O53 Pr2 2.473935 1_555
O53 Pr10 2.527503 1_455
O54 Si9 1.642282 1_555
O54 Pr5 2.439746 1_555
O54 Pr1 2.473935 1_555
O54 Pr9 2.527503 1_655
O55 Si6 1.624135 1_555
O55 Pr14 2.434692 1_555
O55 Pr6 2.488603 1_655
O55 Pr10 2.696999 1_555
