# generated using pymatgen
data_TaAg2TeO7
_symmetry_space_group_name_H-M   'P 1'
_cell_length_a   7.34148939
_cell_length_b   7.34148936
_cell_length_c   7.34148950
_cell_angle_alpha   120.39535128
_cell_angle_beta   119.89219473
_cell_angle_gamma   89.75171185
_symmetry_Int_Tables_number   1
_chemical_formula_structural   TaAg2TeO7
_chemical_formula_sum   'Ta2 Ag4 Te2 O14'
_cell_volume   279.17581333
_cell_formula_units_Z   2
loop_
 _symmetry_equiv_pos_site_id
 _symmetry_equiv_pos_as_xyz
  1  'x, y, z'
loop_
 _atom_site_type_symbol
 _atom_site_label
 _atom_site_symmetry_multiplicity
 _atom_site_fract_x
 _atom_site_fract_y
 _atom_site_fract_z
 _atom_site_occupancy
  Ta  Ta0  1  0.50000000  0.50000000  0.50000000  1
  Ta  Ta1  1  0.50000000  0.00000000  0.00000000  1
  Ag  Ag0  1  0.00000000  0.50000000  0.50000000  1
  Ag  Ag1  1  0.50000000  0.00000000  0.50000000  1
  Ag  Ag2  1  0.00000000  0.50000000  0.00000000  1
  Ag  Ag3  1  0.00000000  0.00000000  0.50000000  1
  Te  Te0  1  0.50000000  0.50000000  0.00000000  1
  Te  Te1  1  0.00000000  0.00000000  0.00000000  1
  O  O0  1  0.54542597  0.42375758  0.73847780  1
  O  O1  1  0.45457403  0.19305183  0.87833162  1
  O  O2  1  0.81472022  0.07624242  0.12166838  1
  O  O3  1  0.18527978  0.30694817  0.26152220  1
  O  O4  1  0.45457403  0.57624242  0.26152220  1
  O  O5  1  0.54542597  0.80694817  0.12166838  1
  O  O6  1  0.18527978  0.92375758  0.87833162  1
  O  O7  1  0.81472022  0.69305183  0.73847780  1
  O  O8  1  0.59165666  0.25000000  0.34165666  1
  O  O9  1  0.40834334  0.75000000  0.65834334  1
  O  O10  1  0.17872041  0.41262558  0.76609483  1
  O  O11  1  0.82127959  0.58737442  0.23390517  1
  O  O12  1  0.85346725  0.08737442  0.76609483  1
  O  O13  1  0.14653275  0.91262558  0.23390517  1
loop_
_geom_bond_atom_site_label_1
_geom_bond_atom_site_label_2
_geom_bond_distance
_geom_bond_site_symmetry_2
Ag0 O10 2.157600 1_555
Ag0 O11 2.157600 1_455
Ag0 O7 2.601961 1_455
Ag0 O3 2.601961 1_555
Ag0 O6 2.601961 1_555
Ag0 O2 2.601961 1_455
Ag1 O12 2.157589 1_555
Ag1 O13 2.157589 1_545
Ag1 O0 2.601961 1_555
Ag1 O4 2.601961 1_545
Ag1 O1 2.601961 1_555
Ag1 O5 2.601961 1_545
Ag2 O10 2.491111 1_554
Ag2 O11 2.491111 1_455
Ag2 O13 2.491113 1_555
Ag2 O12 2.491113 1_454
Ag2 O7 2.771101 1_454
Ag2 O3 2.771101 1_555
Ag2 O4 2.771101 1_555
Ag2 O0 2.771101 1_454
Ag3 O10 2.491111 1_555
Ag3 O11 2.491111 1_445
Ag3 O13 2.491123 1_545
Ag3 O12 2.491123 1_455
Ag3 O1 2.771101 1_555
Ag3 O5 2.771101 1_445
Ag3 O6 2.771101 1_545
Ag3 O2 2.771101 1_455
O0 Te0 1.913082 1_556
O0 Ta0 1.974292 1_555
O1 Te0 1.913082 1_556
O1 Ta1 1.974292 1_556
O2 Te1 1.913082 1_655
O2 Ta1 1.974292 1_555
O3 Te1 1.913082 1_555
O3 Ta0 1.974292 1_555
O4 Te0 1.913082 1_555
O4 Ta0 1.974292 1_555
O5 Te0 1.913082 1_555
O5 Ta1 1.974292 1_565
O6 Te1 1.913082 1_566
O6 Ta1 1.974292 1_566
O7 Te1 1.913082 1_666
O7 Ta0 1.974292 1_555
O8 Ta0 1.944911 1_555
O8 Ta1 1.944911 1_555
O9 Ta0 1.944911 1_555
O9 Ta1 1.944911 1_566
O10 Te0 1.945492 1_556
O11 Te0 1.945492 1_555
O12 Te1 1.945493 1_656
O13 Te1 1.945493 1_565
