# generated using pymatgen
data_MgCu4Sn
_symmetry_space_group_name_H-M   'P 1'
_cell_length_a   4.93833700
_cell_length_b   4.93833667
_cell_length_c   4.93833666
_cell_angle_alpha   59.99999337
_cell_angle_beta   59.99999556
_cell_angle_gamma   59.99999477
_symmetry_Int_Tables_number   1
_chemical_formula_structural   MgCu4Sn
_chemical_formula_sum   'Mg1 Cu4 Sn1'
_cell_volume   85.15831509
_cell_formula_units_Z   1
loop_
 _symmetry_equiv_pos_site_id
 _symmetry_equiv_pos_as_xyz
  1  'x, y, z'
loop_
 _atom_site_type_symbol
 _atom_site_label
 _atom_site_symmetry_multiplicity
 _atom_site_fract_x
 _atom_site_fract_y
 _atom_site_fract_z
 _atom_site_occupancy
  Mg  Mg0  1  0.25000000  0.25000000  0.25000000  1
  Cu  Cu0  1  0.12649694  0.62450135  0.62450135  1
  Cu  Cu1  1  0.62450135  0.62450135  0.12649694  1
  Cu  Cu2  1  0.62450135  0.12649694  0.62450135  1
  Cu  Cu3  1  0.62450135  0.62450135  0.62450135  1
  Sn  Sn0  1  -0.00000000  -0.00000000  -0.00000000  1
loop_
_geom_bond_atom_site_label_1
_geom_bond_atom_site_label_2
_geom_bond_distance
_geom_bond_site_symmetry_2
Mg0 Sn0 3.024101 1_565
Mg0 Sn0 3.024101 1_556
Mg0 Sn0 3.024101 1_655
Mg0 Sn0 3.024101 1_555
Cu0 Cu2 2.459313 1_555
Cu0 Cu1 2.459313 1_555
Cu0 Cu3 2.459314 1_555
Cu0 Cu2 2.479023 1_465
Cu0 Cu1 2.479023 1_456
Cu0 Cu3 2.479023 1_455
Cu0 Mg0 2.894310 1_556
Cu0 Mg0 2.894310 1_565
Cu0 Mg0 2.894315 1_555
Cu0 Sn0 2.896411 1_566
Cu0 Sn0 2.896415 1_565
Cu0 Sn0 2.896415 1_556
Cu1 Cu2 2.459313 1_555
Cu1 Cu3 2.459313 1_555
Cu1 Cu2 2.479023 1_564
Cu1 Cu3 2.479023 1_554
Cu1 Mg0 2.894310 1_565
Cu1 Mg0 2.894311 1_655
Cu1 Mg0 2.894315 1_555
Cu1 Sn0 2.896411 1_665
Cu1 Sn0 2.896415 1_655
Cu1 Sn0 2.896415 1_565
Cu2 Cu3 2.459313 1_555
Cu2 Cu3 2.479023 1_545
Cu2 Mg0 2.894310 1_556
Cu2 Mg0 2.894311 1_655
Cu2 Mg0 2.894315 1_555
Cu2 Sn0 2.896411 1_656
Cu2 Sn0 2.896415 1_655
Cu2 Sn0 2.896415 1_556
Cu3 Mg0 2.894312 1_565
Cu3 Mg0 2.894312 1_556
Cu3 Mg0 2.894313 1_655
Cu3 Sn0 2.896412 1_656
Cu3 Sn0 2.896412 1_665
Cu3 Sn0 2.896413 1_566
