# generated using pymatgen
data_NbGaNi3Au
_symmetry_space_group_name_H-M   'P 1'
_cell_length_a   4.85689556
_cell_length_b   4.85689556
_cell_length_c   4.75423028
_cell_angle_alpha   59.28305783
_cell_angle_beta   59.28305892
_cell_angle_gamma   59.99999197
_symmetry_Int_Tables_number   1
_chemical_formula_structural   NbGaNi3Au
_chemical_formula_sum   'Nb1 Ga1 Ni3 Au1'
_cell_volume   78.43148845
_cell_formula_units_Z   1
loop_
 _symmetry_equiv_pos_site_id
 _symmetry_equiv_pos_as_xyz
  1  'x, y, z'
loop_
 _atom_site_type_symbol
 _atom_site_label
 _atom_site_symmetry_multiplicity
 _atom_site_fract_x
 _atom_site_fract_y
 _atom_site_fract_z
 _atom_site_occupancy
  Nb  Nb0  1  0.00293825  0.00293825  0.99118424  1
  Ga  Ga0  1  0.62389029  0.62389029  0.12832812  1
  Ni  Ni0  1  0.62477006  0.12368879  0.62676809  1
  Ni  Ni1  1  0.12368879  0.62477006  0.62676809  1
  Ni  Ni2  1  0.62477006  0.62477006  0.62676809  1
  Au  Au0  1  0.24993854  0.24993854  0.25018337  1
loop_
_geom_bond_atom_site_label_1
_geom_bond_atom_site_label_2
_geom_bond_distance
_geom_bond_site_symmetry_2
Nb0 Ni1 2.802632 1_555
Nb0 Ni0 2.802632 1_555
Nb0 Ni2 2.802636 1_455
Nb0 Ni2 2.802636 1_545
Nb0 Ni0 2.802640 1_455
Nb0 Ni1 2.802640 1_545
Nb0 Ni1 2.812753 1_546
Nb0 Ni0 2.812753 1_456
Nb0 Ni2 2.812758 1_446
Ga0 Ni2 2.374071 1_555
Ga0 Ni0 2.374076 1_555
Ga0 Ni1 2.374076 1_555
Ga0 Ni0 2.380169 1_564
Ga0 Ni1 2.380170 1_654
Ga0 Ni2 2.380174 1_554
Ga0 Nb0 2.853134 1_564
Ga0 Nb0 2.853134 1_654
Ga0 Nb0 2.853134 1_664
Ni0 Ni1 2.423196 1_645
Ni0 Ni2 2.423196 1_545
Ni0 Ni1 2.433699 1_555
Ni0 Ni2 2.433699 1_555
Ni1 Ni2 2.423196 1_455
Ni1 Ni2 2.433699 1_555
Au0 Ni2 2.775386 1_554
Au0 Ni1 2.775389 1_554
Au0 Ni0 2.775389 1_554
Au0 Ni0 2.826243 1_555
Au0 Ni1 2.826243 1_555
Au0 Ni2 2.826247 1_545
Au0 Ni2 2.826247 1_455
Au0 Ni1 2.826252 1_545
Au0 Ni0 2.826252 1_455
Au0 Ga0 2.842887 1_455
Au0 Ga0 2.842887 1_545
Au0 Ga0 2.842888 1_555
Au0 Nb0 2.844861 1_555
Au0 Nb0 2.975211 1_564
Au0 Nb0 2.975211 1_554
Au0 Nb0 2.975211 1_654
