# generated using pymatgen
data_TaNbTe4F12
_symmetry_space_group_name_H-M   'P 1'
_cell_length_a   5.60312292
_cell_length_b   7.96356226
_cell_length_c   8.57511893
_cell_angle_alpha   72.87403057
_cell_angle_beta   76.67957364
_cell_angle_gamma   77.04019489
_symmetry_Int_Tables_number   1
_chemical_formula_structural   TaNbTe4F12
_chemical_formula_sum   'Ta1 Nb1 Te4 F12'
_cell_volume   350.75565873
_cell_formula_units_Z   1
loop_
 _symmetry_equiv_pos_site_id
 _symmetry_equiv_pos_as_xyz
  1  'x, y, z'
loop_
 _atom_site_type_symbol
 _atom_site_label
 _atom_site_symmetry_multiplicity
 _atom_site_fract_x
 _atom_site_fract_y
 _atom_site_fract_z
 _atom_site_occupancy
  Ta  Ta0  1  0.38154741  0.81984646  0.34697288  1
  Nb  Nb0  1  0.61799149  0.18032569  0.65221990  1
  Te  Te0  1  0.94064476  0.26234197  0.06101336  1
  Te  Te1  1  0.84063240  0.55088845  0.81174344  1
  Te  Te2  1  0.15768322  0.44932757  0.18710074  1
  Te  Te3  1  0.05827114  0.73773733  0.93750740  1
  F  F0  1  0.90700199  0.29260027  0.55311231  1
  F  F1  1  0.82527954  0.94651304  0.66586118  1
  F  F2  1  0.57427686  0.59421872  0.33101007  1
  F  F3  1  0.54776783  0.19975825  0.44006627  1
  F  F4  1  0.66313359  0.93102539  0.23343956  1
  F  F5  1  0.70373122  0.16099929  0.86911111  1
  F  F6  1  0.30015688  0.83684328  0.13235780  1
  F  F7  1  0.33409133  0.06859188  0.76793262  1
  F  F8  1  0.44971806  0.80290000  0.55735070  1
  F  F9  1  0.42655741  0.40726385  0.67347727  1
  F  F10  1  0.17561175  0.05114662  0.33383538  1
  F  F11  1  0.09590314  0.70767294  0.44588801  1
loop_
_geom_bond_atom_site_label_1
_geom_bond_atom_site_label_2
_geom_bond_distance
_geom_bond_site_symmetry_2
Te0 Te2 2.689155 1_655
Te0 Te1 2.691618 1_554
Te1 Te3 2.688710 1_655
Te2 Te3 2.691964 1_554
F0 Nb0 1.926594 1_555
F1 Nb0 1.947811 1_565
F2 Ta0 1.902581 1_555
F3 Nb0 1.903980 1_555
F4 Ta0 1.905824 1_555
F5 Nb0 1.980798 1_555
F6 Ta0 1.955894 1_555
F7 Nb0 1.922053 1_555
F8 Ta0 1.889338 1_555
F9 Nb0 1.919454 1_555
F10 Ta0 1.929084 1_545
F11 Ta0 1.910111 1_555
