# generated using pymatgen
data_K3Ba3GaSb4
_symmetry_space_group_name_H-M   'P 1'
_cell_length_a   11.01439560
_cell_length_b   11.01439539
_cell_length_c   8.44570961
_cell_angle_alpha   90.00000000
_cell_angle_beta   90.00000000
_cell_angle_gamma   120.00000357
_symmetry_Int_Tables_number   1
_chemical_formula_structural   K3Ba3GaSb4
_chemical_formula_sum   'K6 Ba6 Ga2 Sb8'
_cell_volume   887.33598570
_cell_formula_units_Z   2
loop_
 _symmetry_equiv_pos_site_id
 _symmetry_equiv_pos_as_xyz
  1  'x, y, z'
loop_
 _atom_site_type_symbol
 _atom_site_label
 _atom_site_symmetry_multiplicity
 _atom_site_fract_x
 _atom_site_fract_y
 _atom_site_fract_z
 _atom_site_occupancy
  K  K0  1  0.86223535  0.72447169  0.96090370  1
  K  K1  1  0.86223535  0.13776465  0.96090370  1
  K  K2  1  0.13776465  0.27552831  0.46090370  1
  K  K3  1  0.27552831  0.13776465  0.96090370  1
  K  K4  1  0.13776465  0.86223535  0.46090370  1
  K  K5  1  0.72447169  0.86223535  0.46090370  1
  Ba  Ba0  1  0.48069703  0.96139306  0.77606334  1
  Ba  Ba1  1  0.48069703  0.51930297  0.77606334  1
  Ba  Ba2  1  0.51930297  0.03860694  0.27606334  1
  Ba  Ba3  1  0.03860694  0.51930297  0.77606334  1
  Ba  Ba4  1  0.51930297  0.48069703  0.27606334  1
  Ba  Ba5  1  0.96139306  0.48069703  0.27606334  1
  Ga  Ga0  1  0.66666700  0.33333300  0.65630867  1
  Ga  Ga1  1  0.33333300  0.66666700  0.15630867  1
  Sb  Sb0  1  0.66666700  0.33333300  0.99077456  1
  Sb  Sb1  1  0.33333300  0.66666700  0.49077456  1
  Sb  Sb2  1  0.80277017  0.60554134  0.55613955  1
  Sb  Sb3  1  0.80277017  0.19722983  0.55613955  1
  Sb  Sb4  1  0.19722983  0.39445866  0.05613955  1
  Sb  Sb5  1  0.39445866  0.19722983  0.55613955  1
  Sb  Sb6  1  0.19722983  0.80277017  0.05613955  1
  Sb  Sb7  1  0.60554134  0.80277017  0.05613955  1
loop_
_geom_bond_atom_site_label_1
_geom_bond_atom_site_label_2
_geom_bond_distance
_geom_bond_site_symmetry_2
K0 Sb7 3.438432 1_556
K0 Sb6 3.438453 1_656
K0 Sb2 3.601840 1_555
K0 Sb0 3.739492 1_555
K1 Sb7 3.438446 1_546
K1 Sb4 3.438446 1_656
K1 Sb3 3.601840 1_555
K1 Sb0 3.739473 1_555
K2 Sb5 3.438432 1_555
K2 Sb3 3.438453 1_455
K2 Sb4 3.601840 1_555
K2 Sb1 3.739492 1_555
K3 Sb4 3.438432 1_556
K3 Sb6 3.438453 1_546
K3 Sb5 3.601840 1_555
K3 Sb0 3.739492 1_555
K4 Sb5 3.438446 1_565
K4 Sb2 3.438446 1_455
K4 Sb6 3.601840 1_555
K4 Sb1 3.739473 1_555
K5 Sb2 3.438432 1_555
K5 Sb3 3.438453 1_565
K5 Sb7 3.601840 1_555
K5 Sb1 3.739492 1_555
Ba0 Sb6 3.597376 1_556
Ba0 Sb7 3.597376 1_556
Ba0 Sb3 3.683342 1_565
Ba0 Sb5 3.683356 1_565
Ba0 Ga0 3.689191 1_565
Ba0 Sb1 3.702571 1_555
Ba0 Sb0 3.984414 1_565
Ba1 Sb7 3.597376 1_556
Ba1 Sb4 3.597376 1_556
Ba1 Sb5 3.683337 1_555
Ba1 Sb2 3.683337 1_555
Ba1 Ga0 3.689191 1_555
Ba1 Sb1 3.702585 1_555
Ba1 Sb0 3.984414 1_555
Ba2 Sb3 3.597376 1_555
Ba2 Sb5 3.597376 1_555
Ba2 Sb6 3.683342 1_545
Ba2 Sb7 3.683356 1_545
Ba2 Ga1 3.689191 1_545
Ba2 Sb0 3.702571 1_554
Ba2 Sb1 3.984414 1_545
Ba3 Sb6 3.597376 1_556
Ba3 Sb4 3.597376 1_556
Ba3 Sb3 3.683342 1_455
Ba3 Sb2 3.683356 1_455
Ba3 Ga0 3.689191 1_455
Ba3 Sb1 3.702571 1_555
Ba3 Sb0 3.984414 1_455
Ba4 Sb5 3.597376 1_555
Ba4 Sb2 3.597376 1_555
Ba4 Sb7 3.683337 1_555
Ba4 Sb4 3.683337 1_555
Ba4 Ga1 3.689191 1_555
Ba4 Sb0 3.702585 1_554
Ba4 Sb1 3.984414 1_555
Ba5 Sb3 3.597376 1_555
Ba5 Sb2 3.597376 1_555
Ba5 Sb6 3.683342 1_655
Ba5 Sb4 3.683356 1_655
Ba5 Ga1 3.689191 1_655
Ba5 Sb0 3.702571 1_554
Ba5 Sb1 3.984414 1_655
Ga0 Sb3 2.730854 1_555
Ga0 Sb2 2.730872 1_555
Ga0 Sb5 2.730872 1_555
Ga0 Sb0 2.824802 1_555
Ga1 Sb6 2.730854 1_555
Ga1 Sb4 2.730872 1_555
Ga1 Sb7 2.730872 1_555
Ga1 Sb1 2.824802 1_555
