# generated using pymatgen
data_Sc6Si6Tc5Os
_symmetry_space_group_name_H-M   'P 1'
_cell_length_a   7.73628136
_cell_length_b   7.73724803
_cell_length_c   7.73724825
_cell_angle_alpha   126.77312122
_cell_angle_beta   127.96625230
_cell_angle_gamma   77.65516251
_symmetry_Int_Tables_number   1
_chemical_formula_structural   Sc6Si6Tc5Os
_chemical_formula_sum   'Sc6 Si6 Tc5 Os1'
_cell_volume   283.57950091
_cell_formula_units_Z   1
loop_
 _symmetry_equiv_pos_site_id
 _symmetry_equiv_pos_as_xyz
  1  'x, y, z'
loop_
 _atom_site_type_symbol
 _atom_site_label
 _atom_site_symmetry_multiplicity
 _atom_site_fract_x
 _atom_site_fract_y
 _atom_site_fract_z
 _atom_site_occupancy
  Sc  Sc0  1  0.55378499  0.10575330  0.05087999  1
  Sc  Sc1  1  0.44621501  0.49709500  0.55196731  1
  Sc  Sc2  1  0.94511237  0.49706409  0.05077626  1
  Sc  Sc3  1  0.05488763  0.10566389  0.55195272  1
  Sc  Sc4  1  0.74934679  0.88960631  0.63884946  1
  Sc  Sc5  1  0.25065321  0.88950267  0.14025852  1
  Si  Si0  1  0.33247919  0.82788912  0.49557805  1
  Si  Si1  1  0.66752081  0.16309987  0.49540894  1
  Si  Si2  1  0.83339262  0.83045440  0.99692216  1
  Si  Si3  1  0.16660738  0.16352954  0.99705878  1
  Si  Si4  1  0.75038880  0.49730485  0.24761899  1
  Si  Si5  1  0.24961120  0.49723019  0.74691605  1
  Tc  Tc0  1  0.12928909  0.75666295  0.62750096  1
  Tc  Tc1  1  0.87071091  0.49821187  0.62737385  1
  Tc  Tc2  1  0.62998736  0.75486310  0.12487693  1
  Tc  Tc3  1  0.37001264  0.49488857  0.12487574  1
  Tc  Tc4  1  0.50000000  0.23613068  0.73613068  1
  Os  Os0  1  0.00000000  0.23905162  0.23905162  1
loop_
_geom_bond_atom_site_label_1
_geom_bond_atom_site_label_2
_geom_bond_distance
_geom_bond_site_symmetry_2
Sc0 Si4 2.721897 1_555
Sc0 Si1 2.723407 1_555
Sc0 Si3 2.731445 1_554
Sc0 Si2 2.732545 1_544
Sc0 Si0 2.734393 1_544
Sc0 Tc3 2.919161 1_555
Sc0 Tc4 2.938784 1_554
Sc0 Tc1 2.939163 1_555
Sc0 Tc0 2.962079 1_544
Sc0 Tc2 2.967753 1_545
Sc1 Si5 2.721904 1_555
Sc1 Si0 2.723414 1_555
Sc1 Si2 2.731455 1_555
Sc1 Si3 2.732553 1_554
Sc1 Si1 2.734388 1_555
Sc1 Tc2 2.919173 1_556
Sc1 Tc4 2.938790 1_555
Sc1 Tc0 2.939166 1_555
Sc1 Tc1 2.962076 1_555
Sc1 Tc3 2.967740 1_555
Sc2 Si4 2.721633 1_555
Sc2 Si0 2.723932 1_655
Sc2 Si2 2.732228 1_554
Sc2 Si3 2.733121 1_654
Sc2 Si1 2.734563 1_554
Sc2 Tc2 2.919239 1_555
Sc2 Tc4 2.938335 1_554
Sc2 Tc0 2.940420 1_655
Sc2 Tc1 2.962424 1_554
Sc2 Tc3 2.967055 1_655
Sc3 Si5 2.721636 1_555
Sc3 Si1 2.723925 1_455
Sc3 Si3 2.732198 1_555
Sc3 Si2 2.733127 1_444
Sc3 Si0 2.734562 1_545
Sc3 Tc3 2.919234 1_556
Sc3 Tc4 2.938339 1_555
Sc3 Tc1 2.940421 1_455
Sc3 Tc0 2.962419 1_545
Sc3 Tc2 2.967054 1_445
Sc4 Si4 2.719379 1_555
Sc4 Si3 2.734613 1_665
Sc4 Si2 2.735394 1_555
Sc4 Si0 2.735610 1_555
Sc4 Si1 2.735863 1_565
Sc4 Tc0 2.936342 1_655
Sc4 Tc1 2.936835 1_555
Sc4 Tc4 2.938528 1_565
Sc4 Tc2 2.946791 1_555
Sc4 Tc3 2.947134 1_555
Sc5 Si5 2.719375 1_554
Sc5 Si2 2.734613 1_454
Sc5 Si3 2.735405 1_564
Sc5 Si1 2.735613 1_565
Sc5 Si0 2.735857 1_555
Sc5 Tc1 2.936341 1_454
Sc5 Tc0 2.936827 1_554
Sc5 Tc4 2.938533 1_565
Sc5 Tc3 2.946801 1_555
Sc5 Tc2 2.947127 1_555
Si0 Tc3 2.608870 1_555
Si0 Tc0 2.614315 1_555
Si0 Tc4 2.620030 1_565
Si1 Tc2 2.608870 1_545
Si1 Tc1 2.614304 1_555
Si1 Tc4 2.620039 1_555
Si2 Tc1 2.600970 1_555
Si2 Tc2 2.608074 1_556
Si3 Tc0 2.600963 1_545
Si3 Tc3 2.608053 1_556
Si4 Tc0 2.472037 1_655
Si4 Tc1 2.472403 1_555
Si4 Tc2 2.474785 1_555
Si4 Tc3 2.474967 1_555
Si4 Tc4 2.482777 1_554
Si5 Tc1 2.472037 1_455
Si5 Tc0 2.472403 1_555
Si5 Tc3 2.474790 1_556
Si5 Tc2 2.474967 1_556
Si5 Tc4 2.482777 1_555
Os0 Si5 2.464770 1_555
Os0 Si4 2.464771 1_455
Os0 Si2 2.616437 1_444
Os0 Si3 2.616457 1_554
Os0 Sc0 2.939502 1_455
Os0 Sc1 2.939504 1_555
Os0 Sc2 2.940394 1_455
Os0 Sc3 2.940401 1_555
Os0 Sc4 2.960596 1_444
Os0 Sc5 2.960597 1_545
