# generated using pymatgen
data_Cs2SbBr3F2
_symmetry_space_group_name_H-M   'P 1'
_cell_length_a   14.41070642
_cell_length_b   7.95810921
_cell_length_c   7.99943514
_cell_angle_alpha   59.81131350
_cell_angle_beta   84.76944086
_cell_angle_gamma   79.47666721
_symmetry_Int_Tables_number   1
_chemical_formula_structural   Cs2SbBr3F2
_chemical_formula_sum   'Cs6 Sb3 Br9 F6'
_cell_volume   779.63155192
_cell_formula_units_Z   3
loop_
 _symmetry_equiv_pos_site_id
 _symmetry_equiv_pos_as_xyz
  1  'x, y, z'
loop_
 _atom_site_type_symbol
 _atom_site_label
 _atom_site_symmetry_multiplicity
 _atom_site_fract_x
 _atom_site_fract_y
 _atom_site_fract_z
 _atom_site_occupancy
  Cs  Cs0  1  0.31522698  0.89627666  0.00243305  1
  Cs  Cs1  1  0.89856911  0.36649589  0.33287661  1
  Cs  Cs2  1  0.31191057  0.22890677  0.33625436  1
  Cs  Cs3  1  0.68808943  0.77109323  0.66374564  1
  Cs  Cs4  1  0.10143089  0.63350411  0.66712339  1
  Cs  Cs5  1  0.68477302  0.10372334  0.99756695  1
  Sb  Sb0  1  0.00000000  0.00000000  0.00000000  1
  Sb  Sb1  1  0.60470880  0.46552380  0.33629994  1
  Sb  Sb2  1  0.39529120  0.53447620  0.66370006  1
  Br  Br0  1  0.50000000  0.50000000  0.00000000  1
  Br  Br1  1  0.11429272  0.63014171  0.13808069  1
  Br  Br2  1  0.11368790  0.10226720  0.19231477  1
  Br  Br3  1  0.49961036  0.86319176  0.32071904  1
  Br  Br4  1  0.88628521  0.84455774  0.33173141  1
  Br  Br5  1  0.11371479  0.15544126  0.66826859  1
  Br  Br6  1  0.50038964  0.13680924  0.67928096  1
  Br  Br7  1  0.88631210  0.89773280  0.80768523  1
  Br  Br8  1  0.88570728  0.36985829  0.86191931  1
  F  F0  1  0.68984421  0.63329281  0.14033783  1
  F  F1  1  0.68953581  0.24038310  0.33824757  1
  F  F2  1  0.31197271  0.56158138  0.46490833  1
  F  F3  1  0.68802729  0.43841762  0.53509167  1
  F  F4  1  0.31046419  0.75961790  0.66175243  1
  F  F5  1  0.31015579  0.36670819  0.85966217  1
loop_
_geom_bond_atom_site_label_1
_geom_bond_atom_site_label_2
_geom_bond_distance
_geom_bond_site_symmetry_2
Cs0 F2 3.299578 1_555
Cs0 F5 3.307653 1_564
Cs0 F4 3.414171 1_554
Cs1 F1 3.334740 1_555
Cs1 F0 3.339257 1_555
Cs1 F3 3.398780 1_555
Cs2 F2 3.287771 1_555
Cs2 F4 3.311597 1_545
Cs2 F5 3.397189 1_554
Cs3 F3 3.287779 1_555
Cs3 F1 3.311603 1_565
Cs3 F0 3.397191 1_556
Cs4 F4 3.334743 1_555
Cs4 F5 3.339255 1_555
Cs4 F2 3.398782 1_555
Cs5 F3 3.299576 1_555
Cs5 F0 3.307645 1_546
Cs5 F1 3.414177 1_556
Br0 Sb2 3.071802 1_554
Br0 Sb1 3.071802 1_555
Br0 Cs5 3.744424 1_554
Br0 Cs0 3.744424 1_555
Br0 Cs3 3.769211 1_554
Br0 Cs2 3.769211 1_555
Br1 Sb0 2.808467 1_565
Br1 Cs2 3.637267 1_555
Br1 Cs0 3.661087 1_555
Br1 Cs4 3.775240 1_554
Br1 Cs1 3.834800 1_455
Br1 Cs4 4.232530 1_555
Br2 Sb0 2.814057 1_555
Br2 Cs2 3.649595 1_555
Br2 Cs0 3.659282 1_545
Br2 Cs4 3.773920 1_545
Br2 Cs1 3.828479 1_455
Br2 Cs4 4.189813 1_554
Br3 Sb2 3.177590 1_555
Br3 Sb1 3.195554 1_555
Br3 Cs5 3.619124 1_564
Br3 Cs2 3.637198 1_565
Br3 Cs0 3.730402 1_555
Br3 Cs3 3.748763 1_555
Br4 Sb0 2.811364 1_665
Br4 Cs3 3.635731 1_555
Br4 Cs5 3.676299 1_564
Br4 Cs1 3.771558 1_555
Br4 Cs4 3.835923 1_655
Br4 Cs1 4.194197 1_565
Br5 Sb0 2.811363 1_556
Br5 Cs2 3.635730 1_555
Br5 Cs0 3.676298 1_546
Br5 Cs4 3.771565 1_555
Br5 Cs1 3.835922 1_455
Br5 Cs4 4.194189 1_545
Br6 Sb1 3.177586 1_555
Br6 Sb2 3.195547 1_555
Br6 Cs0 3.619126 1_546
Br6 Cs3 3.637204 1_545
Br6 Cs5 3.730399 1_555
Br6 Cs2 3.748766 1_555
Br7 Sb0 2.814057 1_666
Br7 Cs3 3.649595 1_555
Br7 Cs5 3.659282 1_565
Br7 Cs1 3.773920 1_565
Br7 Cs4 3.828479 1_655
Br7 Cs1 4.189813 1_556
Br8 Sb0 2.808467 1_656
Br8 Cs3 3.637267 1_555
Br8 Cs5 3.661087 1_555
Br8 Cs1 3.775240 1_556
Br8 Cs4 3.834800 1_655
Br8 Cs1 4.232530 1_555
F0 Sb1 1.971773 1_555
F1 Sb1 1.969796 1_555
F2 Sb2 1.981290 1_555
F3 Sb1 1.981287 1_555
F4 Sb2 1.969802 1_555
F5 Sb2 1.971770 1_555
