# generated using pymatgen
data_Cs4SbWBr12
_symmetry_space_group_name_H-M   'P 1'
_cell_length_a   7.84581555
_cell_length_b   7.84581555
_cell_length_c   10.64445514
_cell_angle_alpha   90.00000000
_cell_angle_beta   90.00000000
_cell_angle_gamma   90.00000000
_symmetry_Int_Tables_number   1
_chemical_formula_structural   Cs4SbWBr12
_chemical_formula_sum   'Cs4 Sb1 W1 Br12'
_cell_volume   655.23882677
_cell_formula_units_Z   1
loop_
 _symmetry_equiv_pos_site_id
 _symmetry_equiv_pos_as_xyz
  1  'x, y, z'
loop_
 _atom_site_type_symbol
 _atom_site_label
 _atom_site_symmetry_multiplicity
 _atom_site_fract_x
 _atom_site_fract_y
 _atom_site_fract_z
 _atom_site_occupancy
  Cs  Cs0  1  0.50000000  0.00000000  0.73984732  1
  Cs  Cs1  1  0.00000000  0.50000000  0.26015268  1
  Cs  Cs2  1  0.50000000  0.00000000  0.26015268  1
  Cs  Cs3  1  0.00000000  0.50000000  0.73984732  1
  Sb  Sb0  1  0.50000000  0.50000000  0.50000000  1
  W  W0  1  0.00000000  0.00000000  0.00000000  1
  Br  Br0  1  0.00000000  0.00000000  0.76628423  1
  Br  Br1  1  0.50000000  0.50000000  0.23860421  1
  Br  Br2  1  0.75093791  0.75093791  0.50000000  1
  Br  Br3  1  0.22808451  0.22808451  0.00000000  1
  Br  Br4  1  0.75093791  0.24906209  0.50000000  1
  Br  Br5  1  0.22808451  0.77191549  0.00000000  1
  Br  Br6  1  0.00000000  0.00000000  0.23371577  1
  Br  Br7  1  0.50000000  0.50000000  0.76139579  1
  Br  Br8  1  0.24906209  0.24906209  0.50000000  1
  Br  Br9  1  0.77191549  0.77191549  0.00000000  1
  Br  Br10  1  0.24906209  0.75093791  0.50000000  1
  Br  Br11  1  0.77191549  0.22808451  0.00000000  1
loop_
_geom_bond_atom_site_label_1
_geom_bond_atom_site_label_2
_geom_bond_distance
_geom_bond_site_symmetry_2
Br0 W0 2.487777 1_556
Br0 Cs3 3.932988 1_545
Br0 Cs3 3.932988 1_555
Br0 Cs0 3.932988 1_555
Br0 Cs0 3.932988 1_455
Br1 Sb0 2.782416 1_555
Br1 Cs1 3.929608 1_655
Br1 Cs2 3.929608 1_555
Br1 Cs1 3.929608 1_555
Br1 Cs2 3.929608 1_565
Br2 Sb0 2.784321 1_555
Br2 Cs0 3.769979 1_565
Br2 Cs3 3.769979 1_655
Br2 Cs1 3.769979 1_655
Br2 Cs2 3.769979 1_565
Br3 W0 2.530748 1_555
Br3 Cs1 3.927099 1_555
Br3 Cs2 3.927099 1_555
Br3 Cs0 3.927099 1_554
Br3 Cs3 3.927099 1_554
Br4 Sb0 2.784321 1_555
Br4 Cs0 3.769979 1_555
Br4 Cs2 3.769979 1_555
Br4 Cs3 3.769979 1_655
Br4 Cs1 3.769979 1_655
Br5 W0 2.530748 1_565
Br5 Cs2 3.927099 1_565
Br5 Cs1 3.927099 1_555
Br5 Cs0 3.927099 1_564
Br5 Cs3 3.927099 1_554
Br6 W0 2.487777 1_555
Br6 Cs2 3.932988 1_555
Br6 Cs1 3.932988 1_555
Br6 Cs1 3.932988 1_545
Br6 Cs2 3.932988 1_455
Br7 Sb0 2.782416 1_555
Br7 Cs0 3.929608 1_565
Br7 Cs3 3.929608 1_555
Br7 Cs0 3.929608 1_555
Br7 Cs3 3.929608 1_655
Br8 Sb0 2.784321 1_555
Br8 Cs3 3.769979 1_555
Br8 Cs0 3.769979 1_555
Br8 Cs1 3.769979 1_555
Br8 Cs2 3.769979 1_555
Br9 W0 2.530748 1_665
Br9 Cs2 3.927099 1_565
Br9 Cs1 3.927099 1_655
Br9 Cs0 3.927099 1_564
Br9 Cs3 3.927099 1_654
Br10 Sb0 2.784321 1_555
Br10 Cs3 3.769979 1_555
Br10 Cs1 3.769979 1_555
Br10 Cs0 3.769979 1_565
Br10 Cs2 3.769979 1_565
Br11 W0 2.530748 1_655
Br11 Cs1 3.927099 1_655
Br11 Cs2 3.927099 1_555
Br11 Cs3 3.927099 1_654
Br11 Cs0 3.927099 1_554
