# generated using pymatgen
data_Cd5Au3
_symmetry_space_group_name_H-M   'P 1'
_cell_length_a   5.46226940
_cell_length_b   8.11183076
_cell_length_c   8.11183025
_cell_angle_alpha   83.49112955
_cell_angle_beta   70.32495468
_cell_angle_gamma   70.32494200
_symmetry_Int_Tables_number   1
_chemical_formula_structural   Cd5Au3
_chemical_formula_sum   'Cd10 Au6'
_cell_volume   318.68355343
_cell_formula_units_Z   2
loop_
 _symmetry_equiv_pos_site_id
 _symmetry_equiv_pos_as_xyz
  1  'x, y, z'
loop_
 _atom_site_type_symbol
 _atom_site_label
 _atom_site_symmetry_multiplicity
 _atom_site_fract_x
 _atom_site_fract_y
 _atom_site_fract_z
 _atom_site_occupancy
  Cd  Cd0  1  0.57951018  0.69544983  0.14553082  1
  Cd  Cd1  1  0.42048982  0.30455017  0.85446918  1
  Cd  Cd2  1  0.72504099  0.85446918  0.69544983  1
  Cd  Cd3  1  0.27495901  0.14553082  0.30455017  1
  Cd  Cd4  1  0.92048982  0.85446918  0.30455017  1
  Cd  Cd5  1  0.22504099  0.69544983  0.85446918  1
  Cd  Cd6  1  0.25000000  0.50000000  0.50000000  1
  Cd  Cd7  1  0.75000000  0.50000000  0.50000000  1
  Cd  Cd8  1  0.07951018  0.14553082  0.69544983  1
  Cd  Cd9  1  0.77495901  0.30455017  0.14553082  1
  Au  Au0  1  0.83504646  0.50000000  0.82990609  1
  Au  Au1  1  0.66495354  0.17009391  0.50000000  1
  Au  Au2  1  0.33504646  0.82990609  0.50000000  1
  Au  Au3  1  0.16495354  0.50000000  0.17009391  1
  Au  Au4  1  0.75000000  -0.00000000  -0.00000000  1
  Au  Au5  1  0.25000000  -0.00000000  -0.00000000  1
loop_
_geom_bond_atom_site_label_1
_geom_bond_atom_site_label_2
_geom_bond_distance
_geom_bond_site_symmetry_2
Au0 Cd9 2.835625 1_556
Au0 Cd0 2.835625 1_556
Au0 Cd7 2.866125 1_555
Au0 Cd6 2.866128 1_655
Au0 Cd2 2.895758 1_555
Au0 Cd8 2.895758 1_655
Au0 Cd5 3.118172 1_555
Au0 Cd1 3.118177 1_655
Au0 Cd1 3.118177 1_555
Au0 Cd5 3.118181 1_655
Au1 Cd2 2.835625 1_545
Au1 Cd4 2.835625 1_545
Au1 Cd7 2.866125 1_555
Au1 Cd6 2.866127 1_555
Au1 Cd9 2.895758 1_555
Au1 Cd1 2.895758 1_555
Au1 Cd3 3.118172 1_655
Au1 Cd8 3.118176 1_655
Au1 Cd8 3.118177 1_555
Au1 Cd3 3.118181 1_555
Au2 Cd3 2.835625 1_565
Au2 Cd8 2.835625 1_565
Au2 Cd6 2.866125 1_555
Au2 Cd7 2.866127 1_555
Au2 Cd5 2.895758 1_555
Au2 Cd0 2.895758 1_555
Au2 Cd2 3.118172 1_455
Au2 Cd4 3.118176 1_455
Au2 Cd4 3.118177 1_555
Au2 Cd2 3.118181 1_555
Au3 Cd5 2.835625 1_554
Au3 Cd1 2.835625 1_554
Au3 Cd6 2.866125 1_555
Au3 Cd7 2.866128 1_455
Au3 Cd3 2.895758 1_555
Au3 Cd4 2.895758 1_455
Au3 Cd9 3.118172 1_555
Au3 Cd0 3.118177 1_455
Au3 Cd0 3.118177 1_555
Au3 Cd9 3.118181 1_455
Au4 Au5 2.731135 1_655
Au4 Au5 2.731135 1_555
Au4 Cd4 2.917490 1_545
Au4 Cd2 2.917491 1_544
Au4 Cd9 2.917491 1_555
Au4 Cd0 2.917491 1_545
Au4 Cd1 2.917493 1_554
Au4 Cd5 2.917493 1_644
Au4 Cd8 2.917494 1_654
Au4 Cd3 2.917494 1_555
Au5 Cd8 2.917490 1_554
Au5 Cd3 2.917491 1_555
Au5 Cd5 2.917491 1_544
Au5 Cd1 2.917491 1_554
Au5 Cd0 2.917493 1_545
Au5 Cd9 2.917493 1_455
Au5 Cd4 2.917494 1_445
Au5 Cd2 2.917494 1_544
