# generated using pymatgen
data_Sr2Ir2Br
_symmetry_space_group_name_H-M   'P 1'
_cell_length_a   4.32194054
_cell_length_b   4.32193990
_cell_length_c   17.30248090
_cell_angle_alpha   90.00000000
_cell_angle_beta   90.00000000
_cell_angle_gamma   120.00001243
_symmetry_Int_Tables_number   1
_chemical_formula_structural   Sr2Ir2Br
_chemical_formula_sum   'Sr4 Ir4 Br2'
_cell_volume   279.89585434
_cell_formula_units_Z   2
loop_
 _symmetry_equiv_pos_site_id
 _symmetry_equiv_pos_as_xyz
  1  'x, y, z'
loop_
 _atom_site_type_symbol
 _atom_site_label
 _atom_site_symmetry_multiplicity
 _atom_site_fract_x
 _atom_site_fract_y
 _atom_site_fract_z
 _atom_site_occupancy
  Sr  Sr0  1  0.00000000  0.00000000  0.11731106  1
  Sr  Sr1  1  0.00000000  0.00000000  0.38268894  1
  Sr  Sr2  1  0.00000000  0.00000000  0.61731106  1
  Sr  Sr3  1  0.00000000  0.00000000  0.88268894  1
  Ir  Ir0  1  0.33333300  0.66666700  0.00149229  1
  Ir  Ir1  1  0.33333300  0.66666700  0.49850771  1
  Ir  Ir2  1  0.66666800  0.33333500  0.50149229  1
  Ir  Ir3  1  0.66666800  0.33333500  0.99850771  1
  Br  Br0  1  0.66666800  0.33333500  0.25000000  1
  Br  Br1  1  0.33333300  0.66666700  0.75000000  1
loop_
_geom_bond_atom_site_label_1
_geom_bond_atom_site_label_2
_geom_bond_distance
_geom_bond_site_symmetry_2
Ir0 Ir3 2.495801 1_454
Ir0 Ir3 2.495809 1_554
Ir0 Ir3 2.495812 1_564
Ir0 Sr0 3.200344 1_565
Ir0 Sr0 3.200346 1_555
Ir0 Sr0 3.200347 1_665
Ir0 Sr3 3.232930 1_564
Ir0 Sr3 3.232933 1_554
Ir0 Sr3 3.232933 1_664
Ir1 Ir2 2.495801 1_455
Ir1 Ir2 2.495809 1_555
Ir1 Ir2 2.495812 1_565
Ir1 Sr1 3.200344 1_565
Ir1 Sr1 3.200346 1_555
Ir1 Sr1 3.200347 1_665
Ir1 Sr2 3.232930 1_565
Ir1 Sr2 3.232933 1_555
Ir1 Sr2 3.232933 1_665
Ir2 Sr2 3.200340 1_665
Ir2 Sr2 3.200347 1_655
Ir2 Sr2 3.200350 1_555
Ir2 Sr1 3.232927 1_665
Ir2 Sr1 3.232933 1_655
Ir2 Sr1 3.232936 1_555
Ir3 Sr3 3.200340 1_665
Ir3 Sr3 3.200347 1_655
Ir3 Sr3 3.200350 1_555
Ir3 Sr0 3.232927 1_666
Ir3 Sr0 3.232933 1_656
Ir3 Sr0 3.232936 1_556
Br0 Sr1 3.390763 1_665
Br0 Sr0 3.390763 1_665
Br0 Sr1 3.390769 1_655
Br0 Sr0 3.390769 1_655
Br0 Sr1 3.390771 1_555
Br0 Sr0 3.390771 1_555
Br1 Sr3 3.390766 1_565
Br1 Sr2 3.390766 1_565
Br1 Sr3 3.390768 1_555
Br1 Sr2 3.390768 1_555
Br1 Sr3 3.390769 1_665
Br1 Sr2 3.390769 1_665
