# generated using pymatgen
data_Zr3GaPd2N
_symmetry_space_group_name_H-M   'P 1'
_cell_length_a   8.59422632
_cell_length_b   8.59422668
_cell_length_c   8.59422631
_cell_angle_alpha   59.99999766
_cell_angle_beta   59.99999626
_cell_angle_gamma   59.99999891
_symmetry_Int_Tables_number   1
_chemical_formula_structural   Zr3GaPd2N
_chemical_formula_sum   'Zr12 Ga4 Pd8 N4'
_cell_volume   448.85426384
_cell_formula_units_Z   4
loop_
 _symmetry_equiv_pos_site_id
 _symmetry_equiv_pos_as_xyz
  1  'x, y, z'
loop_
 _atom_site_type_symbol
 _atom_site_label
 _atom_site_symmetry_multiplicity
 _atom_site_fract_x
 _atom_site_fract_y
 _atom_site_fract_z
 _atom_site_occupancy
  Zr  Zr0  1  0.81092610  0.81092610  0.18907390  1
  Zr  Zr1  1  0.18907390  0.18907390  0.81092610  1
  Zr  Zr2  1  0.81092610  0.18907390  0.81092610  1
  Zr  Zr3  1  0.18907390  0.81092610  0.18907390  1
  Zr  Zr4  1  0.18907390  0.81092610  0.81092610  1
  Zr  Zr5  1  0.81092610  0.18907390  0.18907390  1
  Zr  Zr6  1  0.43907390  0.43907390  0.06092610  1
  Zr  Zr7  1  0.06092610  0.06092610  0.43907390  1
  Zr  Zr8  1  0.43907390  0.06092610  0.43907390  1
  Zr  Zr9  1  0.06092610  0.43907390  0.06092610  1
  Zr  Zr10  1  0.06092610  0.43907390  0.43907390  1
  Zr  Zr11  1  0.43907390  0.06092610  0.06092610  1
  Ga  Ga0  1  0.12500000  0.62500000  0.62500000  1
  Ga  Ga1  1  0.62500000  0.12500000  0.62500000  1
  Ga  Ga2  1  0.62500000  0.62500000  0.12500000  1
  Ga  Ga3  1  0.62500000  0.62500000  0.62500000  1
  Pd  Pd0  1  0.76256485  0.41247838  0.41247838  1
  Pd  Pd1  1  0.41247838  0.76256485  0.41247838  1
  Pd  Pd2  1  0.41247838  0.41247838  0.76256485  1
  Pd  Pd3  1  0.41247838  0.41247838  0.41247838  1
  Pd  Pd4  1  0.48743515  0.83752162  0.83752162  1
  Pd  Pd5  1  0.83752162  0.48743515  0.83752162  1
  Pd  Pd6  1  0.83752162  0.83752162  0.48743515  1
  Pd  Pd7  1  0.83752162  0.83752162  0.83752162  1
  N  N0  1  0.62500000  0.12500000  0.12500000  1
  N  N1  1  0.12500000  0.62500000  0.12500000  1
  N  N2  1  0.12500000  0.12500000  0.62500000  1
  N  N3  1  0.12500000  0.12500000  0.12500000  1
loop_
_geom_bond_atom_site_label_1
_geom_bond_atom_site_label_2
_geom_bond_distance
_geom_bond_site_symmetry_2
Ga0 Pd1 2.662122 1_555
Ga0 Pd5 2.662122 1_455
Ga0 Pd3 2.662122 1_555
Ga0 Pd7 2.662122 1_455
Ga0 Pd2 2.662122 1_555
Ga0 Pd6 2.662122 1_455
Ga0 Zr9 3.118141 1_556
Ga0 Zr3 3.118141 1_555
Ga0 Zr7 3.118142 1_565
Ga0 Zr1 3.118142 1_555
Ga0 Zr4 3.118142 1_555
Ga0 Zr10 3.118142 1_555
Ga1 Pd0 2.662122 1_555
Ga1 Pd4 2.662122 1_545
Ga1 Pd7 2.662122 1_545
Ga1 Pd3 2.662122 1_555
Ga1 Pd2 2.662122 1_555
Ga1 Pd6 2.662122 1_545
Ga1 Zr11 3.118141 1_556
Ga1 Zr5 3.118141 1_555
Ga1 Zr7 3.118141 1_655
Ga1 Zr1 3.118141 1_555
Ga1 Zr2 3.118142 1_555
Ga1 Zr8 3.118142 1_555
Ga2 Pd7 2.662122 1_554
Ga2 Pd3 2.662122 1_555
Ga2 Pd1 2.662122 1_555
Ga2 Pd5 2.662122 1_554
Ga2 Pd0 2.662122 1_555
Ga2 Pd4 2.662122 1_554
Ga2 Zr9 3.118142 1_655
Ga2 Zr3 3.118142 1_555
Ga2 Zr0 3.118142 1_555
Ga2 Zr6 3.118142 1_555
Ga2 Zr11 3.118142 1_565
Ga2 Zr5 3.118142 1_555
Ga3 Pd6 2.662122 1_555
Ga3 Pd2 2.662122 1_555
Ga3 Pd5 2.662122 1_555
Ga3 Pd1 2.662122 1_555
Ga3 Pd4 2.662122 1_555
Ga3 Pd0 2.662122 1_555
Ga3 Zr6 3.118141 1_556
Ga3 Zr0 3.118141 1_555
Ga3 Zr10 3.118141 1_655
Ga3 Zr4 3.118141 1_555
Ga3 Zr8 3.118142 1_565
Ga3 Zr2 3.118142 1_555
Pd0 Zr9 2.811396 1_655
Pd0 Zr10 2.811397 1_655
Pd0 Zr7 2.811397 1_655
Pd0 Zr2 3.104161 1_555
Pd0 Zr0 3.104161 1_555
Pd0 Zr5 3.104161 1_555
Pd1 Zr11 2.811396 1_565
Pd1 Zr7 2.811396 1_565
Pd1 Zr8 2.811397 1_565
Pd1 Zr0 3.104161 1_555
Pd1 Zr4 3.104161 1_555
Pd1 Zr3 3.104161 1_555
Pd2 Zr9 2.811396 1_556
Pd2 Zr11 2.811396 1_556
Pd2 Zr6 2.811397 1_556
Pd2 Zr2 3.104161 1_555
Pd2 Zr1 3.104161 1_555
Pd2 Zr4 3.104161 1_555
Pd3 Zr6 2.811396 1_555
Pd3 Zr10 2.811396 1_555
Pd3 Zr8 2.811397 1_555
Pd3 Zr1 3.104161 1_555
Pd3 Zr5 3.104161 1_555
Pd3 Zr3 3.104161 1_555
Pd4 Zr3 2.811396 1_556
Pd4 Zr4 2.811397 1_555
Pd4 Zr1 2.811397 1_565
Pd4 Zr8 3.104161 1_565
Pd4 Zr6 3.104161 1_556
Pd4 Zr11 3.104161 1_566
Pd5 Zr5 2.811396 1_556
Pd5 Zr1 2.811396 1_655
Pd5 Zr2 2.811397 1_555
Pd5 Zr6 3.104161 1_556
Pd5 Zr10 3.104161 1_655
Pd5 Zr9 3.104161 1_656
Pd6 Zr3 2.811396 1_655
Pd6 Zr5 2.811396 1_565
Pd6 Zr0 2.811397 1_555
Pd6 Zr8 3.104161 1_565
Pd6 Zr7 3.104161 1_665
Pd6 Zr10 3.104161 1_655
Pd7 Zr0 2.811396 1_556
Pd7 Zr4 2.811396 1_655
Pd7 Zr2 2.811397 1_565
Pd7 Zr7 3.104161 1_665
Pd7 Zr11 3.104161 1_566
Pd7 Zr9 3.104161 1_656
N0 Zr8 2.285336 1_555
N0 Zr2 2.285336 1_554
N0 Zr5 2.285336 1_555
N0 Zr11 2.285336 1_555
N0 Zr0 2.285336 1_545
N0 Zr6 2.285336 1_555
N1 Zr10 2.285336 1_555
N1 Zr4 2.285336 1_554
N1 Zr6 2.285336 1_555
N1 Zr0 2.285336 1_455
N1 Zr3 2.285336 1_555
N1 Zr9 2.285336 1_555
N2 Zr8 2.285336 1_555
N2 Zr2 2.285336 1_455
N2 Zr10 2.285336 1_555
N2 Zr4 2.285336 1_545
N2 Zr1 2.285336 1_555
N2 Zr7 2.285336 1_555
N3 Zr7 2.285336 1_555
N3 Zr1 2.285336 1_554
N3 Zr11 2.285336 1_555
N3 Zr5 2.285336 1_455
N3 Zr9 2.285336 1_555
N3 Zr3 2.285336 1_545
