# generated using pymatgen
data_Ti4InRe24
_symmetry_space_group_name_H-M   'P 1'
_cell_length_a   8.34269015
_cell_length_b   8.34268984
_cell_length_c   8.34268973
_cell_angle_alpha   109.47122036
_cell_angle_beta   109.47121961
_cell_angle_gamma   109.47122578
_symmetry_Int_Tables_number   1
_chemical_formula_structural   Ti4InRe24
_chemical_formula_sum   'Ti4 In1 Re24'
_cell_volume   446.98854457
_cell_formula_units_Z   1
loop_
 _symmetry_equiv_pos_site_id
 _symmetry_equiv_pos_as_xyz
  1  'x, y, z'
loop_
 _atom_site_type_symbol
 _atom_site_label
 _atom_site_symmetry_multiplicity
 _atom_site_fract_x
 _atom_site_fract_y
 _atom_site_fract_z
 _atom_site_occupancy
  Ti  Ti0  1  0.63333981  0.00000000  0.00000000  1
  Ti  Ti1  1  0.00000000  0.63333981  0.00000000  1
  Ti  Ti2  1  0.00000000  0.00000000  0.63333981  1
  Ti  Ti3  1  0.36666019  0.36666019  0.36666019  1
  In  In0  1  0.00000000  0.00000000  0.00000000  1
  Re  Re0  1  0.39884257  0.68083846  0.00000000  1
  Re  Re1  1  0.71800411  0.31916154  0.31916154  1
  Re  Re2  1  0.39884257  0.00000000  0.68083846  1
  Re  Re3  1  0.68083846  0.39884257  0.00000000  1
  Re  Re4  1  0.00000000  0.39884257  0.68083846  1
  Re  Re5  1  0.31916154  0.71800411  0.31916154  1
  Re  Re6  1  0.31916154  0.31916154  0.71800411  1
  Re  Re7  1  0.00000000  0.68083846  0.39884257  1
  Re  Re8  1  0.68083846  0.00000000  0.39884257  1
  Re  Re9  1  0.60115743  0.60115743  0.28199589  1
  Re  Re10  1  0.28199589  0.60115743  0.60115743  1
  Re  Re11  1  0.60115743  0.28199589  0.60115743  1
  Re  Re12  1  0.37697984  0.19385539  1.00000000  1
  Re  Re13  1  0.18312346  0.80614461  0.80614461  1
  Re  Re14  1  0.37697984  1.00000000  0.19385539  1
  Re  Re15  1  0.19385539  0.37697984  1.00000000  1
  Re  Re16  1  1.00000000  0.37697984  0.19385539  1
  Re  Re17  1  0.80614461  0.18312346  0.80614461  1
  Re  Re18  1  0.80614461  0.80614461  0.18312346  1
  Re  Re19  1  1.00000000  0.19385539  0.37697984  1
  Re  Re20  1  0.19385539  1.00000000  0.37697984  1
  Re  Re21  1  0.62302016  0.62302016  0.81687654  1
  Re  Re22  1  0.81687654  0.62302016  0.62302016  1
  Re  Re23  1  0.62302016  0.81687654  0.62302016  1
loop_
_geom_bond_atom_site_label_1
_geom_bond_atom_site_label_2
_geom_bond_distance
_geom_bond_site_symmetry_2
In0 Re18 3.019240 1_445
In0 Re13 3.019240 1_544
In0 Re17 3.019240 1_454
In0 Re15 3.019247 1_554
In0 Re12 3.019247 1_554
In0 Re19 3.019247 1_455
In0 Re20 3.019247 1_545
In0 Re16 3.019247 1_455
In0 Re14 3.019247 1_545
In0 Re21 3.019248 1_444
In0 Re22 3.019248 1_444
In0 Re23 3.019249 1_444
In0 Ti3 3.058932 1_555
In0 Ti2 3.058932 1_554
In0 Ti1 3.058932 1_545
In0 Ti0 3.058932 1_455
Re0 Re15 2.541784 1_554
Re0 Re14 2.718128 1_555
Re0 Re13 2.718133 1_554
Re0 Ti0 2.728430 1_565
Re0 Re6 2.822917 1_554
Re0 Re9 2.822917 1_555
Re0 Re21 2.842438 1_554
Re0 Re18 2.842444 1_555
Re0 Re8 2.897387 1_565
Re0 Re4 2.897387 1_554
Re0 Re10 2.897387 1_554
Re0 Re5 2.897387 1_555
Re0 Ti1 3.217098 1_555
Re1 Re22 2.541781 1_555
Re1 Re14 2.718127 1_545
Re1 Re12 2.718127 1_554
Re1 Ti0 2.728430 1_555
Re1 Re7 2.822917 1_655
Re1 Re4 2.822917 1_655
Re1 Re16 2.842444 1_555
Re1 Re19 2.842444 1_555
Re1 Re8 2.897387 1_555
Re1 Re11 2.897387 1_555
Re1 Re3 2.897387 1_555
Re1 Re9 2.897387 1_555
Re1 Ti3 3.217098 1_555
Re2 Re20 2.541784 1_545
Re2 Ti0 2.728430 1_556
Re2 Re5 2.822917 1_545
Re2 Re23 2.842438 1_545
Re2 Re3 2.897387 1_556
Re2 Re7 2.897387 1_545
Re2 Re6 2.897387 1_555
Re2 Ti2 3.217098 1_555
Re3 Ti1 2.728430 1_655
Re3 Re9 2.822917 1_555
Re3 Re6 2.822917 1_554
Re3 Re7 2.897387 1_655
Re3 Ti0 3.217098 1_555
Re4 Ti1 2.728430 1_556
Re4 Re8 2.897387 1_455
Re4 Re6 2.897387 1_555
Re4 Ti2 3.217098 1_555
Re5 Ti1 2.728430 1_555
Re5 Re8 2.822917 1_565
Re5 Re7 2.897387 1_555
Re5 Re9 2.897387 1_555
Re5 Ti3 3.217098 1_555
Re6 Ti2 2.728430 1_555
Re6 Ti3 3.217098 1_555
Re7 Ti2 2.728430 1_565
Re7 Re9 2.897387 1_455
Re7 Ti1 3.217098 1_555
Re8 Ti2 2.728430 1_655
Re8 Re9 2.897387 1_545
Re8 Ti0 3.217098 1_555
Re9 Ti3 2.728430 1_555
Re9 Ti2 3.217098 1_665
Re10 Re13 2.541791 1_555
Re10 Re23 2.718130 1_555
Re10 Re21 2.718130 1_555
Re10 Ti3 2.728430 1_555
Re10 Re4 2.822917 1_555
Re10 Re7 2.822917 1_555
Re10 Re19 2.842444 1_455
Re10 Re16 2.842444 1_455
Re10 Re2 2.897387 1_565
Re10 Re5 2.897387 1_555
Re10 Re6 2.897387 1_555
Re10 Ti0 3.217098 1_566
Re11 Re17 2.541791 1_555
Re11 Re22 2.718130 1_555
Re11 Re21 2.718130 1_555
Re11 Ti3 2.728430 1_555
Re11 Re2 2.822917 1_555
Re11 Re8 2.822917 1_555
Re11 Re14 2.842444 1_545
Re11 Re20 2.842444 1_545
Re11 Re3 2.897387 1_556
Re11 Re4 2.897387 1_655
Re11 Re6 2.897387 1_555
Re11 Ti1 3.217098 1_656
Re12 Re15 2.494806 1_555
Re12 Re3 2.541784 1_556
Re12 Re13 2.640999 1_545
Re12 Re14 2.641000 1_546
Re12 Re2 2.718127 1_555
Re12 Re9 2.842444 1_556
Re12 Re6 2.842444 1_555
Re12 Ti2 2.959935 1_555
Re12 Ti3 2.959935 1_556
Re12 Ti0 3.081509 1_556
Re13 Re22 2.494793 1_455
Re13 Re14 2.641000 1_556
Re13 Re2 2.718132 1_565
Re13 Re4 2.842444 1_555
Re13 Re7 2.842444 1_555
Re13 Ti1 2.959930 1_556
Re13 Ti2 2.959930 1_565
Re13 Ti0 3.081516 1_566
Re14 Re20 2.494806 1_555
Re14 Re8 2.541784 1_565
Re14 Re5 2.842444 1_555
Re14 Ti1 2.959935 1_555
Re14 Ti3 2.959935 1_565
Re14 Ti0 3.081509 1_565
Re15 Re17 2.641000 1_455
Re15 Re16 2.641000 1_456
Re15 Re5 2.718127 1_556
Re15 Re4 2.718128 1_555
Re15 Re9 2.842444 1_556
Re15 Re6 2.842444 1_555
Re15 Ti2 2.959935 1_555
Re15 Ti3 2.959935 1_556
Re15 Ti1 3.081509 1_556
Re16 Re19 2.494806 1_555
Re16 Re7 2.541784 1_655
Re16 Re17 2.641000 1_554
Re16 Re5 2.718127 1_655
Re16 Re3 2.718128 1_555
Re16 Ti0 2.959935 1_555
Re16 Ti3 2.959935 1_655
Re16 Ti1 3.081509 1_655
Re17 Re23 2.494792 1_545
Re17 Re4 2.718132 1_655
Re17 Re3 2.718133 1_556
Re17 Re8 2.842444 1_555
Re17 Re2 2.842444 1_555
Re17 Ti0 2.959930 1_556
Re17 Ti2 2.959930 1_655
Re17 Ti1 3.081516 1_656
Re18 Re21 2.494793 1_554
Re18 Re9 2.541791 1_555
Re18 Re19 2.640999 1_565
Re18 Re20 2.641000 1_655
Re18 Re8 2.718132 1_565
Re18 Re7 2.718133 1_655
Re18 Re3 2.842444 1_555
Re18 Ti0 2.959930 1_565
Re18 Ti1 2.959930 1_655
Re18 Ti2 3.081516 1_665
Re19 Re4 2.541784 1_655
Re19 Re20 2.641000 1_645
Re19 Re8 2.718127 1_555
Re19 Re6 2.718127 1_655
Re19 Ti0 2.959935 1_555
Re19 Ti3 2.959935 1_655
Re19 Ti2 3.081509 1_655
Re20 Re7 2.718127 1_555
Re20 Re6 2.718127 1_565
Re20 Re5 2.842444 1_555
Re20 Ti1 2.959935 1_555
Re20 Ti3 2.959935 1_565
Re20 Ti2 3.081509 1_565
Re21 Re6 2.541781 1_555
Re21 Re23 2.641013 1_555
Re21 Re22 2.641013 1_555
Re21 Re3 2.842438 1_556
Re21 Ti0 2.959934 1_566
Re21 Ti1 2.959934 1_656
Re21 Ti3 3.081515 1_555
Re22 Re23 2.641013 1_555
Re22 Re9 2.718130 1_555
Re22 Re7 2.842438 1_655
Re22 Re4 2.842438 1_655
Re22 Ti2 2.959933 1_665
Re22 Ti1 2.959934 1_656
Re22 Ti3 3.081515 1_555
Re23 Re5 2.541782 1_555
Re23 Re9 2.718130 1_555
Re23 Re8 2.842438 1_565
Re23 Ti0 2.959934 1_566
Re23 Ti2 2.959934 1_665
Re23 Ti3 3.081515 1_555
