# generated using pymatgen
data_Zr4N2O5
_symmetry_space_group_name_H-M   'P 1'
_cell_length_a   8.87455500
_cell_length_b   8.89683578
_cell_length_c   8.90605565
_cell_angle_alpha   109.33436377
_cell_angle_beta   109.54704027
_cell_angle_gamma   109.25406201
_symmetry_Int_Tables_number   1
_chemical_formula_structural   Zr4N2O5
_chemical_formula_sum   'Zr16 N8 O20'
_cell_volume   543.15721561
_cell_formula_units_Z   4
loop_
 _symmetry_equiv_pos_site_id
 _symmetry_equiv_pos_as_xyz
  1  'x, y, z'
loop_
 _atom_site_type_symbol
 _atom_site_label
 _atom_site_symmetry_multiplicity
 _atom_site_fract_x
 _atom_site_fract_y
 _atom_site_fract_z
 _atom_site_occupancy
  Zr  Zr0  1  0.52446900  0.79424600  0.79429100  1
  Zr  Zr1  1  0.25709300  0.50733500  0.29833200  1
  Zr  Zr2  1  0.54278900  0.50187900  0.03536100  1
  Zr  Zr3  1  0.74182000  0.74043200  0.52482700  1
  Zr  Zr4  1  0.28843500  0.04733600  0.79736600  1
  Zr  Zr5  1  0.99919400  0.00520300  0.99960100  1
  Zr  Zr6  1  0.77447100  0.25965600  0.98711500  1
  Zr  Zr7  1  0.01272100  0.73152700  0.21990000  1
  Zr  Zr8  1  0.22531300  0.21654500  0.49853600  1
  Zr  Zr9  1  0.75757800  0.95798300  0.24898400  1
  Zr  Zr10  1  0.49255000  0.98676400  0.49376200  1
  Zr  Zr11  1  0.99280000  0.20685300  0.72231800  1
  Zr  Zr12  1  0.28529600  0.78606200  0.02376500  1
  Zr  Zr13  1  0.79498300  0.49723800  0.75393300  1
  Zr  Zr14  1  0.49936000  0.26790900  0.28536100  1
  Zr  Zr15  1  0.03568100  0.49397100  0.54296700  1
  N  N0  1  0.99970500  0.96866800  0.73920400  1
  N  N1  1  0.28777900  0.28303700  0.78503800  1
  N  N2  1  0.26611900  0.73229900  0.23553700  1
  N  N3  1  0.75478400  0.50073700  0.98110600  1
  N  N4  1  0.50112400  0.71956800  0.00293200  1
  N  N5  1  0.97933700  0.22721100  0.48021500  1
  N  N6  1  0.78253500  0.49731900  0.49906700  1
  N  N7  1  0.77158800  0.03371800  0.03229200  1
  O  O0  1  0.25079500  0.76961200  0.74772300  1
  O  O1  1  0.27520800  0.02791500  0.02814400  1
  O  O2  1  0.79852000  0.73727000  0.29894800  1
  O  O3  1  0.56034800  0.26378400  0.06301700  1
  O  O4  1  0.00461500  0.49907800  0.28866700  1
  O  O5  1  0.50113500  0.75794100  0.52970900  1
  O  O6  1  0.22724200  0.96408700  0.50464500  1
  O  O7  1  0.72890500  0.96434900  0.48546700  1
  O  O8  1  0.47656900  0.49896000  0.24874300  1
  O  O9  1  0.51750600  0.02902000  0.76287900  1
  O  O10  1  0.00204900  0.97068800  0.24092600  1
  O  O11  1  0.04281400  0.28682900  0.00961900  1
  O  O12  1  0.01999000  0.75934200  0.98711200  1
  O  O13  1  0.76575100  0.23771800  0.73446200  1
  O  O14  1  0.50018000  0.26566000  0.53403700  1
  O  O15  1  0.72291100  0.71748000  0.76160200  1
  O  O16  1  0.05892100  0.50326100  0.79748400  1
  O  O17  1  0.53921500  0.03920700  0.27135900  1
  O  O18  1  0.29477400  0.49994200  0.55381400  1
  O  O19  1  0.23962900  0.24436400  0.26443100  1
loop_
_geom_bond_atom_site_label_1
_geom_bond_atom_site_label_2
_geom_bond_distance
_geom_bond_site_symmetry_2
N0 Zr3 2.109572 1_555
N0 Zr11 2.192583 1_565
N0 Zr5 2.234459 1_565
N0 Zr4 2.238934 1_665
N1 Zr4 2.137650 1_555
N1 Zr2 2.174003 1_556
N1 Zr8 2.237327 1_555
N1 Zr11 2.285813 1_455
N2 Zr12 2.138554 1_555
N2 Zr7 2.203664 1_555
N2 Zr10 2.216304 1_555
N2 Zr1 2.233938 1_555
N3 Zr2 2.095417 1_556
N3 Zr13 2.161075 1_555
N3 Zr7 2.174825 1_656
N3 Zr6 2.225016 1_555
N4 Zr2 2.177689 1_555
N4 Zr9 2.209537 1_555
N4 Zr0 2.218432 1_554
N4 Zr12 2.228340 1_555
N5 Zr15 2.084963 1_655
N5 Zr8 2.170098 1_655
N5 Zr9 2.182705 1_545
N5 Zr11 2.190133 1_555
N6 Zr15 2.159829 1_655
N6 Zr14 2.224413 1_555
N6 Zr13 2.235569 1_555
N6 Zr3 2.259161 1_555
N7 Zr0 2.158519 1_544
N7 Zr6 2.170641 1_554
N7 Zr5 2.216238 1_554
N7 Zr9 2.271612 1_545
O0 Zr15 2.146037 1_555
O0 Zr0 2.243549 1_555
O0 Zr4 2.246264 1_565
O0 Zr12 2.321125 1_556
O1 Zr4 2.156664 1_554
O1 Zr14 2.162054 1_555
O1 Zr12 2.171009 1_545
O1 Zr5 2.308331 1_454
O2 Zr3 2.224885 1_555
O2 Zr7 2.246678 1_655
O2 Zr2 2.256606 1_555
O2 Zr9 2.264262 1_555
O3 Zr14 2.213070 1_555
O3 Zr6 2.226746 1_554
O3 Zr2 2.260444 1_555
O3 Zr4 2.286266 1_554
O4 Zr1 2.188933 1_555
O4 Zr15 2.205904 1_555
O4 Zr7 2.329629 1_555
O4 Zr6 2.365103 1_454
O5 Zr1 2.166712 1_555
O5 Zr10 2.184106 1_555
O5 Zr0 2.196619 1_555
O5 Zr3 2.205818 1_555
O6 Zr7 2.243559 1_555
O6 Zr4 2.269072 1_565
O6 Zr8 2.270192 1_565
O6 Zr10 2.333687 1_555
O7 Zr3 2.165826 1_555
O7 Zr9 2.189266 1_555
O7 Zr10 2.194250 1_555
O7 Zr11 2.222055 1_565
O8 Zr1 2.154967 1_555
O8 Zr2 2.174273 1_555
O8 Zr14 2.246513 1_555
O8 Zr3 2.344401 1_555
O9 Zr6 2.133570 1_555
O9 Zr4 2.203802 1_555
O9 Zr0 2.214819 1_545
O9 Zr10 2.219941 1_545
O10 Zr7 2.110072 1_555
O10 Zr9 2.161664 1_455
O10 Zr8 2.179653 1_565
O10 Zr5 2.262727 1_464
O11 Zr1 2.236933 1_555
O11 Zr6 2.244690 1_454
O11 Zr11 2.253118 1_454
O11 Zr5 2.371692 1_454
O12 Zr13 2.164555 1_455
O12 Zr12 2.184442 1_556
O12 Zr7 2.186857 1_556
O12 Zr5 2.224851 1_465
O13 Zr11 2.153658 1_555
O13 Zr6 2.165625 1_555
O13 Zr13 2.176732 1_555
O13 Zr10 2.289414 1_545
O14 Zr14 2.219032 1_555
O14 Zr8 2.220506 1_555
O14 Zr13 2.295577 1_555
O14 Zr10 2.360860 1_545
O15 Zr0 2.158078 1_555
O15 Zr3 2.239626 1_555
O15 Zr13 2.240626 1_555
O15 Zr5 2.418141 1_565
O16 Zr15 2.177006 1_555
O16 Zr13 2.221564 1_455
O16 Zr12 2.242196 1_556
O16 Zr11 2.300949 1_455
O17 Zr14 2.148695 1_555
O17 Zr12 2.247668 1_545
O17 Zr10 2.312124 1_545
O17 Zr9 2.324628 1_545
O18 Zr1 2.213089 1_555
O18 Zr8 2.220237 1_555
O18 Zr15 2.250889 1_555
O18 Zr0 2.333085 1_555
O19 Zr14 2.181703 1_555
O19 Zr1 2.202443 1_555
O19 Zr8 2.218701 1_555
O19 Zr5 2.226711 1_454
