# generated using pymatgen
data_KRbZnH4
_symmetry_space_group_name_H-M   'P 1'
_cell_length_a   5.90471290
_cell_length_b   7.92953998
_cell_length_c   10.34383208
_cell_angle_alpha   90.00000000
_cell_angle_beta   90.00000000
_cell_angle_gamma   90.00000000
_symmetry_Int_Tables_number   1
_chemical_formula_structural   KRbZnH4
_chemical_formula_sum   'K4 Rb4 Zn4 H16'
_cell_volume   484.31535754
_cell_formula_units_Z   4
loop_
 _symmetry_equiv_pos_site_id
 _symmetry_equiv_pos_as_xyz
  1  'x, y, z'
loop_
 _atom_site_type_symbol
 _atom_site_label
 _atom_site_symmetry_multiplicity
 _atom_site_fract_x
 _atom_site_fract_y
 _atom_site_fract_z
 _atom_site_occupancy
  K  K0  1  0.25000000  0.48837197  0.31426822  1
  K  K1  1  0.25000000  0.98837197  0.18573178  1
  K  K2  1  0.75000000  0.51162803  0.68573178  1
  K  K3  1  0.75000000  0.01162803  0.81426822  1
  Rb  Rb0  1  0.25000000  0.15946029  0.59333131  1
  Rb  Rb1  1  0.25000000  0.65946029  0.90666869  1
  Rb  Rb2  1  0.75000000  0.84053971  0.40666869  1
  Rb  Rb3  1  0.75000000  0.34053971  0.09333131  1
  Zn  Zn0  1  0.25000000  0.23459364  0.91840914  1
  Zn  Zn1  1  0.25000000  0.73459364  0.58159086  1
  Zn  Zn2  1  0.75000000  0.76540636  0.08159086  1
  Zn  Zn3  1  0.75000000  0.26540636  0.41840914  1
  H  H0  1  0.02217349  0.30866003  0.84530307  1
  H  H1  1  0.47782651  0.80866003  0.65469693  1
  H  H2  1  0.52217349  0.69133997  0.15469693  1
  H  H3  1  0.97782651  0.19133997  0.34530307  1
  H  H4  1  0.97782651  0.69133997  0.15469693  1
  H  H5  1  0.52217349  0.19133997  0.34530307  1
  H  H6  1  0.47782651  0.30866003  0.84530307  1
  H  H7  1  0.02217349  0.80866003  0.65469693  1
  H  H8  1  0.25000000  0.02839892  0.91316181  1
  H  H9  1  0.25000000  0.52839892  0.58683819  1
  H  H10  1  0.75000000  0.97160108  0.08683819  1
  H  H11  1  0.75000000  0.47160108  0.41316181  1
  H  H12  1  0.25000000  0.80482114  0.43098716  1
  H  H13  1  0.25000000  0.30482114  0.06901284  1
  H  H14  1  0.75000000  0.19517886  0.56901284  1
  H  H15  1  0.75000000  0.69517886  0.93098716  1
loop_
_geom_bond_atom_site_label_1
_geom_bond_atom_site_label_2
_geom_bond_distance
_geom_bond_site_symmetry_2
H0 Zn0 1.651202 1_555
H0 K2 2.810250 1_455
H0 K3 2.869392 1_455
H0 Rb3 3.037895 1_456
H0 Rb1 3.154423 1_555
H0 Rb0 3.162668 1_555
H1 Zn1 1.651202 1_555
H1 K3 2.810250 1_565
H1 K2 2.869392 1_555
H1 Rb2 3.037895 1_555
H1 Rb0 3.154423 1_565
H1 Rb1 3.162668 1_555
H2 Zn2 1.651202 1_555
H2 K0 2.810250 1_555
H2 K1 2.869392 1_555
H2 Rb1 3.037895 1_554
H2 Rb3 3.154423 1_555
H2 Rb2 3.162668 1_555
H3 Zn3 1.651202 1_555
H3 K1 2.810250 1_645
H3 K0 2.869392 1_655
H3 Rb0 3.037895 1_655
H3 Rb2 3.154423 1_545
H3 Rb3 3.162668 1_555
H4 Zn2 1.651202 1_555
H4 K0 2.810250 1_655
H4 K1 2.869392 1_655
H4 Rb1 3.037895 1_654
H4 Rb3 3.154423 1_555
H4 Rb2 3.162668 1_555
H5 Zn3 1.651202 1_555
H5 K1 2.810250 1_545
H5 K0 2.869392 1_555
H5 Rb0 3.037895 1_555
H5 Rb2 3.154423 1_545
H5 Rb3 3.162668 1_555
H6 Zn0 1.651202 1_555
H6 K2 2.810250 1_555
H6 K3 2.869392 1_555
H6 Rb3 3.037895 1_556
H6 Rb1 3.154423 1_555
H6 Rb0 3.162668 1_555
H7 Zn1 1.651202 1_555
H7 K3 2.810250 1_465
H7 K2 2.869392 1_455
H7 Rb2 3.037895 1_455
H7 Rb0 3.154423 1_565
H7 Rb1 3.162668 1_555
H8 Zn0 1.635930 1_555
H8 K1 2.837227 1_546
H8 Rb1 2.926285 1_545
H9 Zn1 1.635930 1_555
H9 K0 2.837227 1_555
H9 Rb0 2.926285 1_555
H10 Zn2 1.635930 1_555
H10 K3 2.837227 1_564
H10 Rb3 2.926285 1_565
H11 Zn3 1.635930 1_555
H11 K2 2.837227 1_555
H11 Rb2 2.926285 1_555
H12 Zn1 1.654360 1_555
H12 K0 2.784635 1_555
H12 K1 2.924751 1_555
H12 Rb2 2.976559 1_555
H12 Rb2 2.976559 1_455
H13 Zn0 1.654360 1_554
H13 K1 2.784635 1_545
H13 K0 2.924751 1_555
H13 Rb3 2.976559 1_455
H13 Rb3 2.976559 1_555
H14 Zn3 1.654360 1_555
H14 K2 2.784635 1_555
H14 K3 2.924751 1_555
H14 Rb0 2.976559 1_555
H14 Rb0 2.976559 1_655
H15 Zn2 1.654360 1_556
H15 K3 2.784635 1_565
H15 K2 2.924751 1_555
H15 Rb1 2.976559 1_555
H15 Rb1 2.976559 1_655
