# generated using pymatgen
data_CdAg2F8
_symmetry_space_group_name_H-M   'P 1'
_cell_length_a   5.53604714
_cell_length_b   5.53604714
_cell_length_c   10.39912878
_cell_angle_alpha   90.00000000
_cell_angle_beta   90.00000000
_cell_angle_gamma   90.00000000
_symmetry_Int_Tables_number   1
_chemical_formula_structural   CdAg2F8
_chemical_formula_sum   'Cd2 Ag4 F16'
_cell_volume   318.71060517
_cell_formula_units_Z   2
loop_
 _symmetry_equiv_pos_site_id
 _symmetry_equiv_pos_as_xyz
  1  'x, y, z'
loop_
 _atom_site_type_symbol
 _atom_site_label
 _atom_site_symmetry_multiplicity
 _atom_site_fract_x
 _atom_site_fract_y
 _atom_site_fract_z
 _atom_site_occupancy
  Cd  Cd0  1  0.00000000  0.00000000  0.25000000  1
  Cd  Cd1  1  0.00000000  0.00000000  0.75000000  1
  Ag  Ag0  1  0.50000000  0.00000000  0.00000000  1
  Ag  Ag1  1  0.00000000  0.50000000  0.00000000  1
  Ag  Ag2  1  0.00000000  0.50000000  0.50000000  1
  Ag  Ag3  1  0.50000000  0.00000000  0.50000000  1
  F  F0  1  0.69222481  0.83528118  0.62758171  1
  F  F1  1  0.30777519  0.16471882  0.62758171  1
  F  F2  1  0.83528118  0.69222481  0.87241829  1
  F  F3  1  0.83528118  0.30777519  0.62758171  1
  F  F4  1  0.16471882  0.69222481  0.62758171  1
  F  F5  1  0.30777519  0.83528118  0.87241829  1
  F  F6  1  0.83528118  0.69222481  0.12758171  1
  F  F7  1  0.30777519  0.83528118  0.12758171  1
  F  F8  1  0.69222481  0.16471882  0.12758171  1
  F  F9  1  0.83528118  0.30777519  0.37241829  1
  F  F10  1  0.16471882  0.69222481  0.37241829  1
  F  F11  1  0.16471882  0.30777519  0.12758171  1
  F  F12  1  0.69222481  0.83528118  0.37241829  1
  F  F13  1  0.30777519  0.16471882  0.37241829  1
  F  F14  1  0.16471882  0.30777519  0.87241829  1
  F  F15  1  0.69222481  0.16471882  0.87241829  1
loop_
_geom_bond_atom_site_label_1
_geom_bond_atom_site_label_2
_geom_bond_distance
_geom_bond_site_symmetry_2
Cd0 F13 2.314156 1_555
Cd0 F9 2.314156 1_455
Cd0 F10 2.314156 1_545
Cd0 F12 2.314156 1_445
Cd0 F11 2.314156 1_555
Cd0 F7 2.314156 1_545
Cd0 F8 2.314156 1_455
Cd0 F6 2.314156 1_445
Cd1 F14 2.314156 1_555
Cd1 F5 2.314156 1_545
Cd1 F15 2.314156 1_455
Cd1 F1 2.314156 1_555
Cd1 F2 2.314156 1_445
Cd1 F3 2.314156 1_455
Cd1 F4 2.314156 1_545
Cd1 F0 2.314156 1_445
Ag0 F8 1.929826 1_555
Ag0 F7 1.929826 1_545
Ag0 F15 1.929826 1_554
Ag0 F5 1.929826 1_544
Ag1 F6 1.929826 1_455
Ag1 F11 1.929826 1_555
Ag1 F2 1.929826 1_454
Ag1 F14 1.929826 1_554
Ag2 F4 1.929826 1_555
Ag2 F3 1.929826 1_455
Ag2 F10 1.929826 1_555
Ag2 F9 1.929826 1_455
Ag3 F0 1.929826 1_545
Ag3 F1 1.929826 1_555
Ag3 F12 1.929826 1_545
Ag3 F13 1.929826 1_555
