# generated using pymatgen
data_Gd3ReO7
_symmetry_space_group_name_H-M   'P 1'
_cell_length_a   6.55066047
_cell_length_b   6.55066047
_cell_length_c   7.50182900
_cell_angle_alpha   90.00000000
_cell_angle_beta   90.00000000
_cell_angle_gamma   110.27820297
_symmetry_Int_Tables_number   1
_chemical_formula_structural   Gd3ReO7
_chemical_formula_sum   'Gd6 Re2 O14'
_cell_volume   301.96028960
_cell_formula_units_Z   2
loop_
 _symmetry_equiv_pos_site_id
 _symmetry_equiv_pos_as_xyz
  1  'x, y, z'
loop_
 _atom_site_type_symbol
 _atom_site_label
 _atom_site_symmetry_multiplicity
 _atom_site_fract_x
 _atom_site_fract_y
 _atom_site_fract_z
 _atom_site_occupancy
  Gd  Gd0  1  0.50000000  0.50000000  0.00000000  1
  Gd  Gd1  1  0.50000000  0.50000000  0.50000000  1
  Gd  Gd2  1  0.44478500  0.97944400  0.75000000  1
  Gd  Gd3  1  0.55521500  0.02055600  0.25000000  1
  Gd  Gd4  1  0.97944400  0.44478500  0.75000000  1
  Gd  Gd5  1  0.02055600  0.55521500  0.25000000  1
  Re  Re0  1  0.00000000  0.00000000  0.00000000  1
  Re  Re1  1  0.00000000  0.00000000  0.50000000  1
  O  O0  1  0.61077800  0.34523500  0.75000000  1
  O  O1  1  0.38922200  0.65476500  0.25000000  1
  O  O2  1  0.34523500  0.61077800  0.75000000  1
  O  O3  1  0.65476500  0.38922200  0.25000000  1
  O  O4  1  0.32001000  0.06736400  0.02957700  1
  O  O5  1  0.67999000  0.93263600  0.52957700  1
  O  O6  1  0.06736400  0.32001000  0.47042300  1
  O  O7  1  0.93263600  0.67999000  0.97042300  1
  O  O8  1  0.95117200  0.95117200  0.25000000  1
  O  O9  1  0.04882800  0.04882800  0.75000000  1
  O  O10  1  0.06736400  0.32001000  0.02957700  1
  O  O11  1  0.93263600  0.67999000  0.52957700  1
  O  O12  1  0.32001000  0.06736400  0.47042300  1
  O  O13  1  0.67999000  0.93263600  0.97042300  1
loop_
_geom_bond_atom_site_label_1
_geom_bond_atom_site_label_2
_geom_bond_distance
_geom_bond_site_symmetry_2
Gd0 O3 2.362563 1_555
Gd0 O1 2.362563 1_555
Gd0 O0 2.362563 1_554
Gd0 O2 2.362563 1_554
Gd0 O13 2.674895 1_554
Gd0 O7 2.674895 1_554
Gd0 O10 2.674895 1_555
Gd0 O4 2.674895 1_555
Gd1 O3 2.362563 1_555
Gd1 O1 2.362563 1_555
Gd1 O2 2.362563 1_555
Gd1 O0 2.362563 1_555
Gd1 O11 2.674895 1_555
Gd1 O5 2.674895 1_555
Gd1 O12 2.674895 1_555
Gd1 O6 2.674895 1_555
Gd2 O0 2.262294 1_565
Gd2 O2 2.272857 1_555
Gd2 O13 2.351532 1_555
Gd2 O5 2.351532 1_555
Gd2 O4 2.392678 1_566
Gd2 O12 2.392678 1_565
Gd2 O9 2.784141 1_565
Gd3 O1 2.262294 1_545
Gd3 O3 2.272857 1_555
Gd3 O12 2.351532 1_555
Gd3 O4 2.351532 1_555
Gd3 O5 2.392678 1_545
Gd3 O13 2.392678 1_544
Gd3 O8 2.784141 1_545
Gd4 O2 2.262294 1_655
Gd4 O0 2.272857 1_555
Gd4 O7 2.351532 1_555
Gd4 O11 2.351532 1_555
Gd4 O10 2.392678 1_656
Gd4 O6 2.392678 1_655
Gd4 O9 2.784141 1_655
Gd5 O3 2.262294 1_455
Gd5 O1 2.272857 1_555
Gd5 O6 2.351532 1_555
Gd5 O10 2.351532 1_555
Gd5 O11 2.392678 1_455
Gd5 O7 2.392678 1_454
Gd5 O8 2.784141 1_455
O4 Re0 1.999284 1_555
O5 Re1 1.999284 1_665
O6 Re1 1.999284 1_555
O7 Re0 1.999284 1_666
O8 Re1 1.910769 1_665
O8 Re0 1.910769 1_665
O9 Re1 1.910769 1_555
O9 Re0 1.910769 1_556
O10 Re0 1.999284 1_555
O11 Re1 1.999284 1_665
O12 Re1 1.999284 1_555
O13 Re0 1.999284 1_666
