# generated using pymatgen
data_Ti8VBi4P
_symmetry_space_group_name_H-M   'P 1'
_cell_length_a   7.85000114
_cell_length_b   7.85000171
_cell_length_c   7.85000214
_cell_angle_alpha   95.72759994
_cell_angle_beta   95.72760218
_cell_angle_gamma   143.16848513
_symmetry_Int_Tables_number   1
_chemical_formula_structural   Ti8VBi4P
_chemical_formula_sum   'Ti8 V1 Bi4 P1'
_cell_volume   275.13259430
_cell_formula_units_Z   1
loop_
 _symmetry_equiv_pos_site_id
 _symmetry_equiv_pos_as_xyz
  1  'x, y, z'
loop_
 _atom_site_type_symbol
 _atom_site_label
 _atom_site_symmetry_multiplicity
 _atom_site_fract_x
 _atom_site_fract_y
 _atom_site_fract_z
 _atom_site_occupancy
  Ti  Ti0  1  0.69613211  0.58149109  0.27673615  1
  Ti  Ti1  1  0.58149109  0.30475395  0.88535998  1
  Ti  Ti2  1  0.08060504  0.19524605  0.27673615  1
  Ti  Ti3  1  0.91850891  0.80386789  0.72326385  1
  Ti  Ti4  1  0.19524605  0.91850891  0.11464002  1
  Ti  Ti5  1  0.80386789  0.08060504  0.88535998  1
  Ti  Ti6  1  0.30475395  0.41939496  0.72326385  1
  Ti  Ti7  1  0.41939496  0.69613211  0.11464002  1
  V  V0  1  0.75000000  0.75000000  0.00000000  1
  Bi  Bi0  1  0.14043425  0.64043425  0.78087051  1
  Bi  Bi1  1  0.35956575  0.14043425  0.50000000  1
  Bi  Bi2  1  0.64043425  0.85956575  0.50000000  1
  Bi  Bi3  1  0.85956575  0.35956575  0.21912949  1
  P  P0  1  0.25000000  0.25000000  0.00000000  1
loop_
_geom_bond_atom_site_label_1
_geom_bond_atom_site_label_2
_geom_bond_distance
_geom_bond_site_symmetry_2
Ti0 V0 2.551338 1_555
Ti1 V0 2.551344 1_556
Ti2 V0 2.551341 1_445
Ti3 V0 2.551338 1_556
Ti4 V0 2.551344 1_455
Ti5 V0 2.551342 1_546
Ti6 V0 2.551341 1_556
Ti7 V0 2.551342 1_555
Bi0 Ti3 2.902045 1_455
Bi0 Ti6 2.902045 1_555
Bi0 Ti7 2.990799 1_556
Bi0 Ti4 2.990800 1_556
Bi0 Ti1 3.083784 1_455
Bi0 Ti5 3.083788 1_565
Bi0 Ti5 3.087317 1_455
Bi0 Ti1 3.087321 1_565
Bi1 Ti1 2.902052 1_555
Bi1 Ti4 2.902052 1_545
Bi1 Ti2 2.990822 1_555
Bi1 Ti6 2.990822 1_555
Bi1 Ti0 3.083791 1_445
Bi1 Ti3 3.083791 1_555
Bi1 Ti3 3.087326 1_445
Bi1 Ti0 3.087327 1_555
Bi2 Ti7 2.902052 1_555
Bi2 Ti5 2.902052 1_565
Bi2 Ti3 2.990822 1_555
Bi2 Ti0 2.990822 1_555
Bi2 Ti2 3.083794 1_665
Bi2 Ti6 3.083795 1_555
Bi2 Ti6 3.087323 1_665
Bi2 Ti2 3.087323 1_555
Bi3 Ti2 2.902045 1_655
Bi3 Ti0 2.902045 1_555
Bi3 Ti1 2.990799 1_554
Bi3 Ti5 2.990800 1_554
Bi3 Ti4 3.083785 1_655
Bi3 Ti7 3.083789 1_545
Bi3 Ti7 3.087316 1_655
Bi3 Ti4 3.087320 1_545
P0 V0 2.479894 1_445
P0 V0 2.479894 1_555
P0 Ti2 2.553473 1_555
P0 Ti6 2.553473 1_554
P0 Ti0 2.553476 1_555
P0 Ti3 2.553476 1_444
P0 Ti1 2.553477 1_554
P0 Ti4 2.553477 1_545
P0 Ti5 2.553479 1_454
P0 Ti7 2.553479 1_555
