# generated using pymatgen
data_V10Ga4Si2N
_symmetry_space_group_name_H-M   'P 1'
_cell_length_a   7.22286231
_cell_length_b   7.23785946
_cell_length_c   4.82980363
_cell_angle_alpha   89.94067346
_cell_angle_beta   90.02972552
_cell_angle_gamma   120.06871747
_symmetry_Int_Tables_number   1
_chemical_formula_structural   V10Ga4Si2N
_chemical_formula_sum   'V10 Ga4 Si2 N1'
_cell_volume   218.51346962
_cell_formula_units_Z   1
loop_
 _symmetry_equiv_pos_site_id
 _symmetry_equiv_pos_as_xyz
  1  'x, y, z'
loop_
 _atom_site_type_symbol
 _atom_site_label
 _atom_site_symmetry_multiplicity
 _atom_site_fract_x
 _atom_site_fract_y
 _atom_site_fract_z
 _atom_site_occupancy
  V  V0  1  0.00000000  0.77368313  0.25376525  1
  V  V1  1  0.23353580  0.23346165  0.25494741  1
  V  V2  1  0.76646420  0.99992585  0.25494741  1
  V  V3  1  0.00000000  0.22752423  0.74424751  1
  V  V4  1  0.76647530  0.77115690  0.74382243  1
  V  V5  1  0.23352470  0.00468160  0.74382243  1
  V  V6  1  0.34001699  0.66761782  0.50463475  1
  V  V7  1  0.65998301  0.32759883  0.50463475  1
  V  V8  1  0.66106041  0.32816801  0.99577999  1
  V  V9  1  0.33893959  0.66710860  0.99577999  1
  Ga  Ga0  1  0.00000000  0.40664117  0.24543522  1
  Ga  Ga1  1  0.59877585  0.59515186  0.24389915  1
  Ga  Ga2  1  0.40122415  0.99637601  0.24389915  1
  Ga  Ga3  1  1.00000000  0.59757135  0.75475907  1
  Si  Si0  1  0.40215028  0.40289598  0.75885332  1
  Si  Si1  1  0.59784972  0.00074670  0.75885332  1
  N  N0  1  1.00000000  0.99968932  0.49791587  1
loop_
_geom_bond_atom_site_label_1
_geom_bond_atom_site_label_2
_geom_bond_distance
_geom_bond_site_symmetry_2
V6 V9 2.372145 1_555
V6 V9 2.457678 1_554
V7 V8 2.372145 1_555
V7 V8 2.457678 1_554
Ga0 V8 2.524831 1_454
Ga0 V9 2.524833 1_554
Ga0 V7 2.553372 1_455
Ga0 V6 2.553376 1_555
Ga0 V2 2.556762 1_445
Ga0 V1 2.556762 1_555
Ga0 V0 2.656944 1_555
Ga0 V3 2.734652 1_555
Ga0 V3 2.747126 1_554
Ga1 V9 2.491066 1_554
Ga1 V8 2.499819 1_554
Ga1 V0 2.513526 1_655
Ga1 V6 2.517965 1_555
Ga1 V7 2.526584 1_555
Ga1 V2 2.549004 1_555
Ga1 V1 2.625814 1_555
Ga1 V4 2.715503 1_554
Ga1 V4 2.716073 1_555
Ga1 Si0 2.732103 1_554
Ga1 Si0 2.855741 1_555
Ga2 V8 2.491061 1_564
Ga2 V9 2.499813 1_554
Ga2 V0 2.513526 1_555
Ga2 V7 2.517956 1_565
Ga2 V6 2.526571 1_555
Ga2 V1 2.549005 1_565
Ga2 V2 2.625814 1_555
Ga2 V5 2.715504 1_564
Ga2 V5 2.716073 1_565
Ga2 Si1 2.732101 1_564
Ga2 Si1 2.855739 1_565
Ga3 V9 2.522940 1_655
Ga3 V8 2.522942 1_555
Ga3 V6 2.549895 1_655
Ga3 V7 2.549899 1_555
Ga3 V5 2.559229 1_665
Ga3 V4 2.559229 1_555
Ga3 V3 2.678883 1_655
Ga3 V0 2.727589 1_656
Ga3 V0 2.733744 1_655
Si0 V9 2.460670 1_555
Si0 V8 2.471684 1_555
Si0 V6 2.497259 1_555
Si0 V5 2.505696 1_555
Si0 V7 2.508683 1_555
Si0 V3 2.521636 1_555
Si0 V4 2.646815 1_555
Si0 V1 2.688576 1_556
Si0 V1 2.723386 1_555
Si1 V8 2.460658 1_555
Si1 V9 2.471683 1_545
Si1 V7 2.497241 1_555
Si1 V4 2.505703 1_545
Si1 V6 2.508679 1_545
Si1 V3 2.521635 1_655
Si1 V5 2.646811 1_555
Si1 V2 2.688578 1_546
Si1 V2 2.723388 1_545
N0 V0 2.017511 1_655
N0 V3 2.034417 1_665
N0 V4 2.047887 1_555
N0 V5 2.047887 1_665
N0 V1 2.055043 1_665
N0 V2 2.055043 1_555
