# generated using pymatgen
data_HfTaRh6
_symmetry_space_group_name_H-M   'P 1'
_cell_length_a   5.50085011
_cell_length_b   5.50085057
_cell_length_c   5.50085011
_cell_angle_alpha   60.00000863
_cell_angle_beta   60.00000585
_cell_angle_gamma   60.00000331
_symmetry_Int_Tables_number   1
_chemical_formula_structural   HfTaRh6
_chemical_formula_sum   'Hf1 Ta1 Rh6'
_cell_volume   117.69947633
_cell_formula_units_Z   1
loop_
 _symmetry_equiv_pos_site_id
 _symmetry_equiv_pos_as_xyz
  1  'x, y, z'
loop_
 _atom_site_type_symbol
 _atom_site_label
 _atom_site_symmetry_multiplicity
 _atom_site_fract_x
 _atom_site_fract_y
 _atom_site_fract_z
 _atom_site_occupancy
  Hf  Hf0  1  0.00000000  0.00000000  0.00000000  1
  Ta  Ta0  1  0.50000000  0.50000000  0.50000000  1
  Rh  Rh0  1  0.50000100  0.00000000  0.00000000  1
  Rh  Rh1  1  0.00000000  0.50000100  0.00000000  1
  Rh  Rh2  1  0.50000000  0.50000000  0.00000000  1
  Rh  Rh3  1  0.00000000  0.00000000  0.50000100  1
  Rh  Rh4  1  0.50000000  0.00000000  0.50000000  1
  Rh  Rh5  1  0.00000000  0.50000000  0.50000000  1
loop_
_geom_bond_atom_site_label_1
_geom_bond_atom_site_label_2
_geom_bond_distance
_geom_bond_site_symmetry_2
Hf0 Rh3 2.750420 1_554
Hf0 Rh0 2.750420 1_455
Hf0 Rh1 2.750420 1_545
Hf0 Rh4 2.750425 1_455
Hf0 Rh4 2.750425 1_554
Hf0 Rh2 2.750425 1_545
Hf0 Rh2 2.750425 1_455
Hf0 Rh5 2.750426 1_545
Hf0 Rh5 2.750426 1_554
Hf0 Rh3 2.750431 1_555
Hf0 Rh0 2.750431 1_555
Hf0 Rh1 2.750431 1_555
Rh0 Ta0 2.750426 1_554
Rh0 Ta0 2.750426 1_545
Rh1 Ta0 2.750425 1_554
Rh1 Ta0 2.750425 1_455
Rh2 Ta0 2.750425 1_555
Rh2 Ta0 2.750425 1_554
Rh3 Ta0 2.750425 1_455
Rh3 Ta0 2.750425 1_545
Rh4 Ta0 2.750425 1_555
Rh4 Ta0 2.750425 1_545
Rh5 Ta0 2.750425 1_555
Rh5 Ta0 2.750425 1_455
