# generated using pymatgen
data_Ba3LiIr2N3
_symmetry_space_group_name_H-M   'P 1'
_cell_length_a   5.71364167
_cell_length_b   9.83777933
_cell_length_c   14.00941191
_cell_angle_alpha   90.00000000
_cell_angle_beta   90.00000000
_cell_angle_gamma   90.00000000
_symmetry_Int_Tables_number   1
_chemical_formula_structural   Ba3LiIr2N3
_chemical_formula_sum   'Ba12 Li4 Ir8 N12'
_cell_volume   787.46268128
_cell_formula_units_Z   4
loop_
 _symmetry_equiv_pos_site_id
 _symmetry_equiv_pos_as_xyz
  1  'x, y, z'
loop_
 _atom_site_type_symbol
 _atom_site_label
 _atom_site_symmetry_multiplicity
 _atom_site_fract_x
 _atom_site_fract_y
 _atom_site_fract_z
 _atom_site_occupancy
  Ba  Ba0  1  0.48764715  0.49471147  0.75407393  1
  Ba  Ba1  1  0.98764715  0.00528853  0.24592607  1
  Ba  Ba2  1  0.01235285  0.99471147  0.74592607  1
  Ba  Ba3  1  0.51235285  0.50528853  0.25407393  1
  Ba  Ba4  1  0.00009205  0.32723629  0.42111951  1
  Ba  Ba5  1  0.50009205  0.17276371  0.57888049  1
  Ba  Ba6  1  0.49990795  0.82723629  0.07888049  1
  Ba  Ba7  1  0.99990795  0.67276371  0.92111951  1
  Ba  Ba8  1  0.03982981  0.66392890  0.59203720  1
  Ba  Ba9  1  0.53982981  0.83607110  0.40796280  1
  Ba  Ba10  1  0.46017019  0.16392890  0.90796280  1
  Ba  Ba11  1  0.96017019  0.33607110  0.09203720  1
  Li  Li0  1  0.45226117  0.16440919  0.14848319  1
  Li  Li1  1  0.95226117  0.33559081  0.85151681  1
  Li  Li2  1  0.04773883  0.66440919  0.35151681  1
  Li  Li3  1  0.54773883  0.83559081  0.64848319  1
  Ir  Ir0  1  0.53185939  0.84338795  0.83162584  1
  Ir  Ir1  1  0.03185939  0.65661205  0.16837416  1
  Ir  Ir2  1  0.96814061  0.34338795  0.66837416  1
  Ir  Ir3  1  0.46814061  0.15661205  0.33162584  1
  Ir  Ir4  1  0.96914318  0.00772320  0.99378139  1
  Ir  Ir5  1  0.46914318  0.49227680  0.00621861  1
  Ir  Ir6  1  0.53085682  0.50772320  0.50621861  1
  Ir  Ir7  1  0.03085682  0.99227680  0.49378139  1
  N  N0  1  0.31418939  0.76398451  0.74787877  1
  N  N1  1  0.81418939  0.73601549  0.25212123  1
  N  N2  1  0.18581061  0.26398451  0.75212123  1
  N  N3  1  0.68581061  0.23601549  0.24787877  1
  N  N4  1  0.25329225  0.07295012  0.41454916  1
  N  N5  1  0.75329225  0.42704988  0.58545084  1
  N  N6  1  0.24670775  0.57295012  0.08545084  1
  N  N7  1  0.74670775  0.92704988  0.91454916  1
  N  N8  1  0.78997096  0.92055497  0.57019063  1
  N  N9  1  0.28997096  0.57944503  0.42980937  1
  N  N10  1  0.71002904  0.42055497  0.92980937  1
  N  N11  1  0.21002904  0.07944503  0.07019063  1
loop_
_geom_bond_atom_site_label_1
_geom_bond_atom_site_label_2
_geom_bond_distance
_geom_bond_site_symmetry_2
Ba0 N0 2.829704 1_555
Ba0 N2 2.850811 1_555
Ba0 N10 2.864938 1_555
Ba0 N5 2.885707 1_555
Ba1 N1 2.829704 1_545
Ba1 N3 2.850811 1_555
Ba1 N11 2.864938 1_655
Ba1 N4 2.885707 1_655
Ba2 N2 2.829704 1_565
Ba2 N0 2.850811 1_555
Ba2 N8 2.864938 1_455
Ba2 N7 2.885707 1_455
Ba3 N3 2.829704 1_555
Ba3 N1 2.850811 1_555
Ba3 N9 2.864938 1_555
Ba3 N6 2.885707 1_555
Ba4 N5 2.872756 1_455
Ba4 N4 2.891273 1_555
Ba4 N9 2.985675 1_555
Ba4 N3 3.149633 1_455
Ba5 N4 2.872756 1_555
Ba5 N5 2.891273 1_555
Ba5 N8 2.985675 1_545
Ba5 N2 3.149633 1_555
Ba6 N7 2.872756 1_554
Ba6 N6 2.891273 1_555
Ba6 N11 2.985675 1_565
Ba6 N1 3.149633 1_555
Ba7 N6 2.872756 1_656
Ba7 N7 2.891273 1_555
Ba7 N10 2.985675 1_555
Ba7 N0 3.149633 1_655
Ba8 N9 2.810460 1_555
Ba8 N5 2.849464 1_455
Ba8 N0 2.862310 1_555
Ba8 N8 2.916416 1_455
Ba9 N8 2.810460 1_555
Ba9 N4 2.849464 1_565
Ba9 N1 2.862310 1_555
Ba9 N9 2.916416 1_555
Ba10 N11 2.810460 1_556
Ba10 N7 2.849464 1_545
Ba10 N2 2.862310 1_555
Ba10 N10 2.916416 1_555
Ba11 N10 2.810460 1_554
Ba11 N6 2.849464 1_655
Ba11 N3 2.862310 1_555
Ba11 N11 2.916416 1_655
Li0 N11 1.953774 1_555
Li0 N3 2.053266 1_555
Li1 N10 1.953774 1_555
Li1 N2 2.053266 1_655
Li2 N9 1.953774 1_555
Li2 N1 2.053266 1_455
Li3 N8 1.953774 1_555
Li3 N0 2.053266 1_555
Ir0 N0 1.879753 1_555
Ir0 N7 1.879864 1_555
Ir1 N1 1.879753 1_455
Ir1 N6 1.879864 1_555
Ir2 N2 1.879753 1_655
Ir2 N5 1.879864 1_555
Ir3 N3 1.879753 1_555
Ir3 N4 1.879864 1_555
Ir4 N7 1.864724 1_545
Ir4 N11 1.880959 1_656
Ir5 N6 1.864724 1_555
Ir5 N10 1.880959 1_554
Ir6 N5 1.864724 1_555
Ir6 N9 1.880959 1_555
Ir7 N4 1.864724 1_565
Ir7 N8 1.880959 1_455
