# generated using pymatgen
data_Ba3SrBi2O9
_symmetry_space_group_name_H-M   'P 1'
_cell_length_a   6.20318569
_cell_length_b   6.20318521
_cell_length_c   15.08974270
_cell_angle_alpha   90.00000000
_cell_angle_beta   90.00000000
_cell_angle_gamma   120.00000256
_symmetry_Int_Tables_number   1
_chemical_formula_structural   Ba3SrBi2O9
_chemical_formula_sum   'Ba6 Sr2 Bi4 O18'
_cell_volume   502.85408789
_cell_formula_units_Z   2
loop_
 _symmetry_equiv_pos_site_id
 _symmetry_equiv_pos_as_xyz
  1  'x, y, z'
loop_
 _atom_site_type_symbol
 _atom_site_label
 _atom_site_symmetry_multiplicity
 _atom_site_fract_x
 _atom_site_fract_y
 _atom_site_fract_z
 _atom_site_occupancy
  Ba  Ba0  1  0.33333300  0.66666700  0.08215315  1
  Ba  Ba1  1  0.66666700  0.33333300  0.91784685  1
  Ba  Ba2  1  0.33333300  0.66666700  0.58215315  1
  Ba  Ba3  1  0.66666700  0.33333300  0.41784685  1
  Ba  Ba4  1  0.00000000  0.00000000  0.25000000  1
  Ba  Ba5  1  0.00000000  0.00000000  0.75000000  1
  Sr  Sr0  1  0.00000000  0.00000000  0.00000000  1
  Sr  Sr1  1  0.00000000  0.00000000  0.50000000  1
  Bi  Bi0  1  0.33333300  0.66666700  0.83234949  1
  Bi  Bi1  1  0.66666700  0.33333300  0.16765051  1
  Bi  Bi2  1  0.33333300  0.66666700  0.33234949  1
  Bi  Bi3  1  0.66666700  0.33333300  0.66765051  1
  O  O0  1  0.88383631  0.64739929  0.59325873  1
  O  O1  1  1.00000000  0.55570256  0.25000000  1
  O  O2  1  0.23643702  0.35260071  0.90674127  1
  O  O3  1  0.88383631  0.23643702  0.09325873  1
  O  O4  1  0.76356298  0.11616369  0.59325873  1
  O  O5  1  0.76356298  0.64739929  0.09325873  1
  O  O6  1  0.64739929  0.76356298  0.40674127  1
  O  O7  1  0.44429744  0.00000000  0.75000000  1
  O  O8  1  0.55570256  0.55570256  0.75000000  1
  O  O9  1  0.35260071  0.23643702  0.59325873  1
  O  O10  1  0.11616369  0.35260071  0.40674127  1
  O  O11  1  0.23643702  0.88383631  0.40674127  1
  O  O12  1  0.35260071  0.11616369  0.09325873  1
  O  O13  1  0.55570256  0.00000000  0.25000000  1
  O  O14  1  0.44429744  0.44429744  0.25000000  1
  O  O15  1  0.00000000  0.44429744  0.75000000  1
  O  O16  1  0.11616369  0.76356298  0.90674127  1
  O  O17  1  0.64739929  0.88383631  0.90674127  1
loop_
_geom_bond_atom_site_label_1
_geom_bond_atom_site_label_2
_geom_bond_distance
_geom_bond_site_symmetry_2
Ba0 O12 2.735651 1_565
Ba0 O3 2.735654 1_455
Ba0 O5 2.735657 1_555
Ba0 O1 3.121044 1_455
Ba0 O13 3.121044 1_565
Ba0 O14 3.121047 1_555
Ba0 O16 3.161008 1_554
Ba0 O17 3.161011 1_554
Ba0 O2 3.161011 1_554
Ba1 O17 2.735651 1_545
Ba1 O16 2.735654 1_655
Ba1 O2 2.735657 1_555
Ba1 O15 3.121044 1_655
Ba1 O7 3.121044 1_555
Ba1 O8 3.121047 1_555
Ba1 O3 3.161008 1_556
Ba1 O12 3.161011 1_556
Ba1 O5 3.161011 1_556
Ba2 O0 2.735651 1_455
Ba2 O4 2.735654 1_565
Ba2 O9 2.735657 1_555
Ba2 O7 3.121044 1_565
Ba2 O15 3.121044 1_555
Ba2 O8 3.121047 1_555
Ba2 O11 3.161008 1_555
Ba2 O10 3.161011 1_555
Ba2 O6 3.161011 1_555
Ba3 O10 2.735651 1_655
Ba3 O11 2.735654 1_545
Ba3 O6 2.735657 1_555
Ba3 O13 3.121044 1_555
Ba3 O1 3.121044 1_555
Ba3 O14 3.121047 1_555
Ba3 O4 3.161008 1_555
Ba3 O0 3.161011 1_555
Ba3 O9 3.161011 1_555
Ba4 O14 2.756059 1_555
Ba4 O1 2.756059 1_445
Ba4 O13 2.756059 1_455
Ba4 O10 3.053080 1_555
Ba4 O5 3.053080 1_445
Ba4 O6 3.053080 1_445
Ba4 O3 3.053080 1_455
Ba4 O11 3.053080 1_545
Ba4 O12 3.053080 1_555
Ba5 O8 2.756059 1_445
Ba5 O15 2.756059 1_555
Ba5 O7 2.756059 1_555
Ba5 O2 3.053080 1_555
Ba5 O0 3.053080 1_445
Ba5 O16 3.053080 1_545
Ba5 O9 3.053080 1_555
Ba5 O17 3.053080 1_445
Ba5 O4 3.053080 1_455
Bi0 O16 2.060561 1_555
Bi0 O17 2.060565 1_555
Bi0 O2 2.060566 1_555
Bi0 O7 2.206841 1_565
Bi0 O15 2.206842 1_555
Bi0 O8 2.206846 1_555
Bi1 O3 2.060561 1_555
Bi1 O12 2.060565 1_555
Bi1 O5 2.060566 1_555
Bi1 O13 2.206841 1_555
Bi1 O1 2.206842 1_555
Bi1 O14 2.206846 1_555
Bi2 O11 2.060561 1_555
Bi2 O10 2.060564 1_555
Bi2 O6 2.060566 1_555
Bi2 O1 2.206841 1_455
Bi2 O13 2.206842 1_565
Bi2 O14 2.206846 1_555
Bi3 O4 2.060561 1_555
Bi3 O0 2.060564 1_555
Bi3 O9 2.060566 1_555
Bi3 O15 2.206841 1_655
Bi3 O7 2.206842 1_555
Bi3 O8 2.206846 1_555
O0 Sr1 2.389048 1_665
O2 Sr0 2.389048 1_556
O3 Sr0 2.389048 1_655
O4 Sr1 2.389048 1_655
O5 Sr0 2.389048 1_665
O6 Sr1 2.389048 1_665
O9 Sr1 2.389048 1_555
O10 Sr1 2.389048 1_555
O11 Sr1 2.389048 1_565
O12 Sr0 2.389048 1_555
O16 Sr0 2.389048 1_566
O17 Sr0 2.389048 1_666
