# generated using pymatgen
data_Cd3GaP6N13
_symmetry_space_group_name_H-M   'P 1'
_cell_length_a   7.03390399
_cell_length_b   7.15452894
_cell_length_c   7.15452954
_cell_angle_alpha   109.81023401
_cell_angle_beta   109.13004486
_cell_angle_gamma   109.13004650
_symmetry_Int_Tables_number   1
_chemical_formula_structural   Cd3GaP6N13
_chemical_formula_sum   'Cd3 Ga1 P6 N13'
_cell_volume   278.32227954
_cell_formula_units_Z   1
loop_
 _symmetry_equiv_pos_site_id
 _symmetry_equiv_pos_as_xyz
  1  'x, y, z'
loop_
 _atom_site_type_symbol
 _atom_site_label
 _atom_site_symmetry_multiplicity
 _atom_site_fract_x
 _atom_site_fract_y
 _atom_site_fract_z
 _atom_site_occupancy
  Cd  Cd0  1  0.99311950  1.00000000  0.71785575  1
  Cd  Cd1  1  0.99311950  0.71785575  1.00000000  1
  Cd  Cd2  1  0.27526275  0.28214425  0.28214425  1
  Ga  Ga0  1  0.67251183  0.00000000  0.00000000  1
  P  P0  1  0.25759235  0.74942065  0.50219182  1
  P  P1  1  0.75540153  0.24722983  0.49780818  1
  P  P2  1  0.75540153  0.49780818  0.24722983  1
  P  P3  1  0.25759235  0.50219182  0.74942065  1
  P  P4  1  0.50817170  0.75277017  0.25057935  1
  P  P5  1  0.50817170  0.25057935  0.75277017  1
  N  N0  1  0.94112455  1.00000000  1.00000000  1
  N  N1  1  0.71662971  0.26389533  0.26389533  1
  N  N2  1  0.28317922  0.72541442  0.27951990  1
  N  N3  1  0.30101820  0.56591452  0.56591452  1
  N  N4  1  0.55776480  0.55410549  0.27458558  1
  N  N5  1  0.45273438  0.73610467  1.00000000  1
  N  N6  1  0.00365932  0.72048010  0.44589451  1
  N  N7  1  0.55776480  0.27458558  0.55410549  1
  N  N8  1  0.73510368  1.00000000  0.43408548  1
  N  N9  1  0.45273438  1.00000000  0.73610467  1
  N  N10  1  0.73510368  0.43408548  1.00000000  1
  N  N11  1  0.28317922  0.27951990  0.72541442  1
  N  N12  1  0.00365932  0.44589451  0.72048010  1
loop_
_geom_bond_atom_site_label_1
_geom_bond_atom_site_label_2
_geom_bond_distance
_geom_bond_site_symmetry_2
Cd0 N0 2.166199 1_555
Cd0 N8 2.236204 1_555
Cd0 N11 2.311929 1_665
Cd0 N6 2.311929 1_655
Cd1 N0 2.166198 1_555
Cd1 N10 2.236204 1_555
Cd1 N12 2.311929 1_655
Cd1 N2 2.311930 1_656
Cd2 N0 2.166195 1_444
Cd2 N3 2.236201 1_555
Cd2 N4 2.311934 1_555
Cd2 N7 2.311934 1_555
Ga0 N0 1.889396 1_544
Ga0 N5 2.010348 1_544
Ga0 N1 2.010348 1_555
Ga0 N9 2.010348 1_544
N1 P2 1.657330 1_555
N1 P1 1.657330 1_555
N2 P0 1.619450 1_555
N2 P4 1.620170 1_555
N3 P0 1.613115 1_555
N3 P3 1.613115 1_555
N4 P4 1.619443 1_555
N4 P2 1.620174 1_555
N5 P3 1.657334 1_555
N5 P4 1.657337 1_556
N6 P2 1.619445 1_455
N6 P0 1.620169 1_555
N7 P5 1.619443 1_555
N7 P1 1.620174 1_555
N8 P4 1.613119 1_555
N8 P1 1.613120 1_565
N9 P0 1.657334 1_555
N9 P5 1.657337 1_565
N10 P5 1.613119 1_555
N10 P2 1.613120 1_556
N11 P3 1.619450 1_555
N11 P5 1.620170 1_555
N12 P1 1.619445 1_455
N12 P3 1.620169 1_555
