# generated using pymatgen
data_Y2Tc3Os
_symmetry_space_group_name_H-M   'P 1'
_cell_length_a   5.26292260
_cell_length_b   5.26292152
_cell_length_c   9.09156368
_cell_angle_alpha   90.00000000
_cell_angle_beta   90.00000000
_cell_angle_gamma   120.00000065
_symmetry_Int_Tables_number   1
_chemical_formula_structural   Y2Tc3Os
_chemical_formula_sum   'Y4 Tc6 Os2'
_cell_volume   218.08364183
_cell_formula_units_Z   2
loop_
 _symmetry_equiv_pos_site_id
 _symmetry_equiv_pos_as_xyz
  1  'x, y, z'
loop_
 _atom_site_type_symbol
 _atom_site_label
 _atom_site_symmetry_multiplicity
 _atom_site_fract_x
 _atom_site_fract_y
 _atom_site_fract_z
 _atom_site_occupancy
  Y  Y0  1  0.66666700  0.33333200  0.06313194  1
  Y  Y1  1  0.66666700  0.33333200  0.43686706  1
  Y  Y2  1  0.33333400  0.66666700  0.56313194  1
  Y  Y3  1  0.33333400  0.66666700  0.93686706  1
  Tc  Tc0  1  0.17103705  0.34207609  0.25000000  1
  Tc  Tc1  1  0.17103705  0.82896295  0.25000000  1
  Tc  Tc2  1  0.65792491  0.82896295  0.25000000  1
  Tc  Tc3  1  0.34207609  0.17103805  0.75000000  1
  Tc  Tc4  1  0.82896395  0.17103805  0.75000000  1
  Tc  Tc5  1  0.82896295  0.65792391  0.75000000  1
  Os  Os0  1  0.00000000  0.00000000  0.00000000  1
  Os  Os1  1  0.00000000  0.00000000  0.50000000  1
loop_
_geom_bond_atom_site_label_1
_geom_bond_atom_site_label_2
_geom_bond_distance
_geom_bond_site_symmetry_2
Y0 Y3 3.248155 1_544
Y0 Y3 3.248164 1_654
Y0 Y3 3.248168 1_554
Y0 Y1 3.397837 1_555
Y1 Y2 3.248155 1_545
Y1 Y2 3.248164 1_655
Y1 Y2 3.248168 1_555
Y2 Y3 3.397837 1_555
Tc0 Tc1 2.562447 1_555
Tc0 Tc2 2.562450 1_555
Tc0 Tc2 2.700472 1_445
Tc0 Tc1 2.700474 1_545
Tc0 Y1 3.132480 1_455
Tc0 Y0 3.132485 1_455
Tc0 Y1 3.132497 1_555
Tc0 Y0 3.132502 1_555
Tc0 Y2 3.208319 1_555
Tc0 Y3 3.208327 1_554
Tc1 Tc2 2.562453 1_555
Tc1 Tc2 2.700469 1_455
Tc1 Y1 3.132486 1_565
Tc1 Y1 3.132490 1_455
Tc1 Y0 3.132491 1_565
Tc1 Y0 3.132495 1_455
Tc1 Y2 3.208324 1_555
Tc1 Y3 3.208332 1_554
Tc2 Y1 3.132479 1_565
Tc2 Y0 3.132484 1_565
Tc2 Y1 3.132497 1_555
Tc2 Y0 3.132502 1_555
Tc2 Y2 3.208320 1_555
Tc2 Y3 3.208328 1_554
Tc3 Tc5 2.562445 1_555
Tc3 Tc4 2.562453 1_555
Tc3 Tc4 2.700469 1_455
Tc3 Tc5 2.700477 1_445
Tc3 Y3 3.132488 1_545
Tc3 Y3 3.132488 1_555
Tc3 Y2 3.132493 1_545
Tc3 Y2 3.132493 1_555
Tc3 Y0 3.208320 1_556
Tc3 Y1 3.208328 1_555
Tc4 Tc5 2.562445 1_555
Tc4 Tc5 2.700477 1_545
Tc4 Y3 3.132486 1_655
Tc4 Y3 3.132490 1_545
Tc4 Y2 3.132491 1_655
Tc4 Y2 3.132495 1_545
Tc4 Y0 3.208319 1_556
Tc4 Y1 3.208328 1_555
Tc5 Y3 3.132486 1_655
Tc5 Y3 3.132491 1_555
Tc5 Y2 3.132491 1_655
Tc5 Y2 3.132496 1_555
Tc5 Y0 3.208322 1_556
Tc5 Y1 3.208330 1_555
Os0 Tc1 2.756242 1_545
Os0 Tc4 2.756242 1_454
Os0 Tc2 2.756244 1_445
Os0 Tc0 2.756247 1_555
Os0 Tc5 2.756247 1_444
Os0 Tc3 2.756247 1_554
Os0 Y0 3.092277 1_455
Os0 Y3 3.092283 1_444
Os0 Y0 3.092286 1_555
Os0 Y3 3.092287 1_554
Os0 Y3 3.092287 1_544
Os0 Y0 3.092290 1_445
Os1 Tc1 2.756242 1_545
Os1 Tc4 2.756242 1_455
Os1 Tc2 2.756244 1_445
Os1 Tc0 2.756247 1_555
Os1 Tc5 2.756247 1_445
Os1 Tc3 2.756247 1_555
Os1 Y1 3.092279 1_455
Os1 Y2 3.092282 1_445
Os1 Y2 3.092285 1_555
Os1 Y2 3.092286 1_545
Os1 Y1 3.092288 1_555
Os1 Y1 3.092292 1_445
