# generated using pymatgen
data_Bi2Pd5
_symmetry_space_group_name_H-M   'P 1'
_cell_length_a   5.86907876
_cell_length_b   6.80214419
_cell_length_c   7.72867934
_cell_angle_alpha   115.12698734
_cell_angle_beta   112.27544878
_cell_angle_gamma   89.99573514
_symmetry_Int_Tables_number   1
_chemical_formula_structural   Bi2Pd5
_chemical_formula_sum   'Bi4 Pd10'
_cell_volume   253.69051058
_cell_formula_units_Z   2
loop_
 _symmetry_equiv_pos_site_id
 _symmetry_equiv_pos_as_xyz
  1  'x, y, z'
loop_
 _atom_site_type_symbol
 _atom_site_label
 _atom_site_symmetry_multiplicity
 _atom_site_fract_x
 _atom_site_fract_y
 _atom_site_fract_z
 _atom_site_occupancy
  Bi  Bi0  1  0.60045947  0.90463485  0.20092240  1
  Bi  Bi1  1  0.39954053  0.09536515  0.79907760  1
  Bi  Bi2  1  0.87089458  0.64533302  0.74150907  1
  Bi  Bi3  1  0.12910542  0.35466698  0.25849093  1
  Pd  Pd0  1  0.52476873  0.23584933  0.54672123  1
  Pd  Pd1  1  0.97862801  0.76420356  0.45332057  1
  Pd  Pd2  1  0.47523127  0.76415067  0.45327877  1
  Pd  Pd3  1  0.02137199  0.23579644  0.54667943  1
  Pd  Pd4  1  0.74856127  0.50034766  0.00002403  1
  Pd  Pd5  1  0.25143873  0.49965234  -0.00002403  1
  Pd  Pd6  1  0.09648105  0.91135066  0.19269635  1
  Pd  Pd7  1  0.90351895  0.08864934  0.80730365  1
  Pd  Pd8  1  0.36703491  0.64190835  0.73399843  1
  Pd  Pd9  1  0.63296509  0.35809165  0.26600157  1
loop_
_geom_bond_atom_site_label_1
_geom_bond_atom_site_label_2
_geom_bond_distance
_geom_bond_site_symmetry_2
Bi0 Pd2 2.815493 1_555
Bi0 Pd1 2.818461 1_555
Bi0 Pd4 2.850538 1_555
Bi0 Pd5 2.855236 1_555
Bi0 Pd3 2.863901 1_665
Bi0 Pd0 2.863954 1_565
Bi0 Pd9 2.900549 1_565
Bi0 Pd6 2.935152 1_555
Bi0 Pd6 2.936657 1_655
Bi0 Pd8 2.978043 1_554
Bi1 Pd0 2.815493 1_555
Bi1 Pd3 2.818461 1_555
Bi1 Pd5 2.850538 1_556
Bi1 Pd4 2.855236 1_556
Bi1 Pd1 2.863901 1_445
Bi1 Pd2 2.863954 1_545
Bi1 Pd8 2.900549 1_545
Bi1 Pd7 2.935152 1_555
Bi1 Pd7 2.936657 1_455
Bi1 Pd9 2.978043 1_556
Bi2 Pd7 2.830639 1_565
Bi2 Pd4 2.870726 1_556
Bi2 Pd3 2.872819 1_655
Bi2 Pd5 2.873858 1_656
Bi2 Pd0 2.876217 1_555
Bi2 Pd6 2.885918 1_656
Bi2 Pd8 2.934277 1_655
Bi2 Pd1 2.934577 1_555
Bi2 Pd2 2.935148 1_555
Bi2 Pd8 2.935579 1_555
Bi2 Pd9 3.047170 1_555
Bi3 Pd6 2.830639 1_545
Bi3 Pd5 2.870726 1_555
Bi3 Pd1 2.872819 1_455
Bi3 Pd4 2.873858 1_455
Bi3 Pd2 2.876217 1_555
Bi3 Pd7 2.885918 1_454
Bi3 Pd9 2.934277 1_455
Bi3 Pd3 2.934577 1_555
Bi3 Pd0 2.935148 1_555
Bi3 Pd9 2.935579 1_555
Bi3 Pd8 3.047170 1_555
Pd0 Pd8 2.863795 1_555
Pd0 Pd7 2.884120 1_555
Pd0 Pd6 2.886994 1_545
Pd0 Pd9 2.894550 1_555
Pd0 Pd4 2.897401 1_556
Pd0 Pd3 2.914726 1_655
Pd0 Pd3 2.954353 1_555
Pd0 Pd2 2.962101 1_545
Pd1 Pd9 2.867141 1_555
Pd1 Pd6 2.882039 1_655
Pd1 Pd7 2.887238 1_565
Pd1 Pd8 2.894403 1_655
Pd1 Pd4 2.896947 1_555
Pd1 Pd2 2.914726 1_655
Pd1 Pd2 2.954353 1_555
Pd1 Pd3 2.961593 1_665
Pd2 Pd9 2.863795 1_555
Pd2 Pd6 2.884120 1_555
Pd2 Pd7 2.886994 1_565
Pd2 Pd8 2.894550 1_555
Pd2 Pd5 2.897401 1_555
Pd3 Pd8 2.867141 1_555
Pd3 Pd7 2.882039 1_455
Pd3 Pd6 2.887238 1_545
Pd3 Pd9 2.894403 1_455
Pd3 Pd5 2.896947 1_556
Pd4 Pd8 2.891234 1_554
Pd4 Pd6 2.891909 1_655
Pd4 Pd9 2.892928 1_555
Pd4 Pd7 2.893488 1_554
Pd4 Pd5 2.917514 1_555
Pd4 Pd5 2.951571 1_655
Pd5 Pd9 2.891234 1_555
Pd5 Pd7 2.891909 1_454
Pd5 Pd8 2.892928 1_554
Pd5 Pd6 2.893488 1_555
