# generated using pymatgen
data_Ti13Al9(Ru3Pt)2
_symmetry_space_group_name_H-M   'P 1'
_cell_length_a   8.70549555
_cell_length_b   8.73093337
_cell_length_c   8.70549535
_cell_angle_alpha   59.54126329
_cell_angle_beta   59.64098841
_cell_angle_gamma   59.54127167
_symmetry_Int_Tables_number   1
_chemical_formula_structural   Ti13Al9(Ru3Pt)2
_chemical_formula_sum   'Ti13 Al9 Ru6 Pt2'
_cell_volume   463.35156501
_cell_formula_units_Z   1
loop_
 _symmetry_equiv_pos_site_id
 _symmetry_equiv_pos_as_xyz
  1  'x, y, z'
loop_
 _atom_site_type_symbol
 _atom_site_label
 _atom_site_symmetry_multiplicity
 _atom_site_fract_x
 _atom_site_fract_y
 _atom_site_fract_z
 _atom_site_occupancy
  Ti  Ti0  1  0.21287580  0.21496104  0.78768775  1
  Ti  Ti1  1  0.78768775  0.21496104  0.21287580  1
  Ti  Ti2  1  0.21416934  0.78601930  0.21416934  1
  Ti  Ti3  1  0.80025840  0.79577391  0.18432885  1
  Ti  Ti4  1  0.18432885  0.79577391  0.80025840  1
  Ti  Ti5  1  0.79581004  0.19167197  0.79581004  1
  Ti  Ti6  1  0.37914178  0.37966266  0.37914178  1
  Ti  Ti7  1  0.38354831  0.86230778  0.38354831  1
  Ti  Ti8  1  0.86474792  0.38530600  0.37744128  1
  Ti  Ti9  1  0.37744128  0.38530600  0.86474792  1
  Ti  Ti10  1  0.84430580  0.46703376  0.84430580  1
  Ti  Ti11  1  0.46401675  0.84224809  0.84307698  1
  Ti  Ti12  1  0.84307698  0.84224809  0.46401675  1
  Al  Al0  1  0.15010716  0.15426372  0.15010716  1
  Al  Al1  1  0.15902981  0.53202593  0.15902981  1
  Al  Al2  1  0.53683298  0.15929337  0.15913852  1
  Al  Al3  1  0.15913852  0.15929337  0.53683298  1
  Al  Al4  1  0.61931475  0.61709959  0.61931475  1
  Al  Al5  1  0.61720865  0.14394579  0.61720865  1
  Al  Al6  1  0.14356841  0.61469523  0.62133011  1
  Al  Al7  1  0.62133011  0.61469523  0.14356841  1
  Al  Al8  1  0.82794443  0.82723126  0.82794443  1
  Ru  Ru0  1  0.00396490  0.49960777  0.00396490  1
  Ru  Ru1  1  0.50052114  0.50141673  0.99994980  1
  Ru  Ru2  1  0.99994980  0.50141673  0.50052114  1
  Ru  Ru3  1  0.50146443  0.99781158  0.50146443  1
  Ru  Ru4  1  0.50042802  0.49995945  0.50042802  1
  Ru  Ru5  1  0.00355018  0.00495805  0.00355018  1
  Pt  Pt0  1  0.00582080  0.00450483  0.49841291  1
  Pt  Pt1  1  0.49841291  0.00450483  0.00582080  1
loop_
_geom_bond_atom_site_label_1
_geom_bond_atom_site_label_2
_geom_bond_distance
_geom_bond_site_symmetry_2
Al0 Ru0 2.487249 1_555
Al0 Pt0 2.505418 1_555
Al0 Pt1 2.505418 1_555
Al1 Ru2 2.497051 1_455
Al1 Ru1 2.497051 1_554
Al1 Ru0 2.518217 1_555
Al2 Ru3 2.493293 1_545
Al2 Ru1 2.496327 1_554
Al2 Pt1 2.541256 1_555
Al3 Ru3 2.493293 1_545
Al3 Ru2 2.496327 1_455
Al3 Pt0 2.541256 1_555
Al4 Ru4 2.533256 1_555
Al4 Ru1 2.696591 1_555
Al4 Ru2 2.696591 1_555
Al4 Ru3 2.702423 1_555
Al5 Ru4 2.523102 1_555
Al5 Ru3 2.700277 1_545
Al5 Pt1 2.749729 1_556
Al5 Pt0 2.749729 1_655
Al6 Ru4 2.524105 1_555
Al6 Ru2 2.699037 1_455
Al6 Ru0 2.708314 1_556
Al6 Pt0 2.762845 1_565
Al7 Ru4 2.524105 1_555
Al7 Ru1 2.699037 1_554
Al7 Ru0 2.708314 1_655
Al7 Pt1 2.762845 1_565
Al8 Ru0 2.522737 1_656
Al8 Pt0 2.541855 1_665
Al8 Pt1 2.541855 1_566
Ru0 Ti10 2.588223 1_454
Ru0 Ti8 2.643717 1_455
Ru0 Ti9 2.643717 1_554
Ru0 Ti4 2.991532 1_554
Ru0 Ti3 2.991532 1_455
Ru0 Ti1 3.119161 1_455
Ru0 Ti0 3.119161 1_554
Ru1 Ti11 2.486177 1_555
Ru1 Ti10 2.507075 1_555
Ru1 Ti9 2.673349 1_555
Ru1 Ti6 2.683053 1_556
Ru2 Ti12 2.486177 1_555
Ru2 Ti10 2.507075 1_555
Ru2 Ti8 2.673349 1_555
Ru2 Ti6 2.683053 1_655
Ru3 Ti11 2.483740 1_555
Ru3 Ti12 2.483740 1_555
Ru3 Ti7 2.652320 1_555
Ru3 Ti6 2.707492 1_565
Ru4 Ti7 2.568788 1_555
Ru4 Ti9 2.577337 1_555
Ru4 Ti8 2.577337 1_555
Ru4 Ti6 2.590046 1_555
Ru5 Ti3 2.547932 1_445
Ru5 Ti4 2.547933 1_544
Ru5 Ti5 2.554770 1_454
Ru5 Ti0 2.578095 1_554
Ru5 Ti1 2.578096 1_455
Ru5 Ti2 2.582497 1_545
Pt0 Ti12 2.645282 1_445
Pt0 Ti7 2.673970 1_545
Pt0 Ti8 2.699848 1_455
Pt0 Ti4 3.007067 1_545
Pt0 Ti5 3.031757 1_455
Pt0 Ti1 3.124815 1_455
Pt0 Ti2 3.129333 1_545
Pt1 Ti11 2.645282 1_544
Pt1 Ti7 2.673970 1_545
Pt1 Ti9 2.699848 1_554
Pt1 Ti3 3.007067 1_545
Pt1 Ti5 3.031757 1_554
Pt1 Ti0 3.124815 1_554
Pt1 Ti2 3.129332 1_545
