# generated using pymatgen
data_Zr3Ta(AlRh5)2
_symmetry_space_group_name_H-M   'P 1'
_cell_length_a   5.49595724
_cell_length_b   5.49595675
_cell_length_c   8.08162165
_cell_angle_alpha   89.99935996
_cell_angle_beta   89.99935504
_cell_angle_gamma   97.73648128
_symmetry_Int_Tables_number   1
_chemical_formula_structural   Zr3Ta(AlRh5)2
_chemical_formula_sum   'Zr3 Ta1 Al2 Rh10'
_cell_volume   241.88780893
_cell_formula_units_Z   1
loop_
 _symmetry_equiv_pos_site_id
 _symmetry_equiv_pos_as_xyz
  1  'x, y, z'
loop_
 _atom_site_type_symbol
 _atom_site_label
 _atom_site_symmetry_multiplicity
 _atom_site_fract_x
 _atom_site_fract_y
 _atom_site_fract_z
 _atom_site_occupancy
  Zr  Zr0  1  0.22078987  0.77921013  0.00000000  1
  Zr  Zr1  1  0.22076170  0.77923830  0.50000000  1
  Zr  Zr2  1  0.78049400  0.21950600  1.00000000  1
  Ta  Ta0  1  0.78219186  0.21780814  0.50000000  1
  Al  Al0  1  0.50152744  0.49867856  0.74929642  1
  Al  Al1  1  0.50132144  0.49847256  0.25070358  1
  Rh  Rh0  1  0.71522837  0.71676956  0.00005059  1
  Rh  Rh1  1  0.71410920  0.71362406  0.49995469  1
  Rh  Rh2  1  0.28323044  0.28477163  0.99994941  1
  Rh  Rh3  1  0.28637594  0.28589080  0.50004531  1
  Rh  Rh4  1  0.50341699  0.00501869  0.74580508  1
  Rh  Rh5  1  0.50340682  0.00497695  0.25419374  1
  Rh  Rh6  1  0.99858388  0.00144031  0.25501919  1
  Rh  Rh7  1  0.99855969  0.00141612  0.74498081  1
  Rh  Rh8  1  0.99502305  0.49659318  0.74580626  1
  Rh  Rh9  1  0.99498131  0.49658301  0.25419492  1
loop_
_geom_bond_atom_site_label_1
_geom_bond_atom_site_label_2
_geom_bond_distance
_geom_bond_site_symmetry_2
Al0 Rh1 2.539573 1_555
Al0 Rh3 2.539940 1_555
Al0 Rh0 2.558106 1_556
Al0 Rh2 2.558326 1_555
Al0 Rh8 2.713944 1_555
Al0 Rh4 2.714698 1_555
Al0 Rh4 2.781587 1_565
Al0 Rh8 2.782350 1_455
Al0 Zr2 3.072979 1_555
Al0 Zr1 3.075446 1_555
Al0 Zr0 3.082732 1_556
Al1 Rh3 2.539573 1_555
Al1 Rh1 2.539940 1_555
Al1 Rh2 2.558106 1_554
Al1 Rh0 2.558326 1_555
Al1 Rh5 2.713943 1_555
Al1 Rh9 2.714698 1_555
Al1 Rh9 2.781588 1_455
Al1 Rh5 2.782350 1_565
Al1 Zr2 3.072979 1_554
Al1 Zr1 3.075446 1_555
Al1 Zr0 3.082732 1_555
Rh0 Zr2 2.737900 1_564
Rh0 Zr0 2.753426 1_655
Rh0 Zr0 2.784451 1_555
Rh0 Zr2 2.803845 1_554
Rh0 Rh6 2.909134 1_565
Rh0 Rh7 2.909541 1_564
Rh0 Rh9 2.923665 1_555
Rh0 Rh8 2.924334 1_554
Rh0 Rh5 2.929027 1_565
Rh0 Rh4 2.929711 1_564
Rh0 Rh2 3.123519 1_554
Rh1 Ta0 2.745752 1_565
Rh1 Zr1 2.759231 1_655
Rh1 Zr1 2.782997 1_555
Rh1 Ta0 2.800011 1_555
Rh1 Rh6 2.863375 1_565
Rh1 Rh7 2.863804 1_565
Rh1 Rh9 2.871630 1_555
Rh1 Rh8 2.872258 1_555
Rh1 Rh5 2.889469 1_565
Rh1 Rh4 2.890085 1_565
Rh1 Rh3 3.092684 1_555
Rh2 Zr2 2.737900 1_455
Rh2 Zr0 2.753426 1_546
Rh2 Zr0 2.784451 1_556
Rh2 Zr2 2.803846 1_555
Rh2 Rh7 2.909134 1_455
Rh2 Rh6 2.909541 1_456
Rh2 Rh4 2.923665 1_555
Rh2 Rh5 2.924334 1_556
Rh2 Rh8 2.929027 1_455
Rh2 Rh9 2.929710 1_456
Rh3 Ta0 2.745752 1_455
Rh3 Zr1 2.759231 1_545
Rh3 Zr1 2.782997 1_555
Rh3 Ta0 2.800011 1_555
Rh3 Rh7 2.863375 1_455
Rh3 Rh6 2.863804 1_455
Rh3 Rh4 2.871630 1_555
Rh3 Rh5 2.872257 1_555
Rh3 Rh8 2.889469 1_455
Rh3 Rh9 2.890085 1_455
Rh4 Ta0 2.679326 1_555
Rh4 Zr1 2.716681 1_545
Rh4 Rh7 2.724027 1_555
Rh4 Zr2 2.728650 1_555
Rh4 Zr0 2.766581 1_546
Rh4 Rh7 2.772086 1_455
Rh5 Ta0 2.679489 1_555
Rh5 Zr1 2.716526 1_545
Rh5 Rh6 2.724165 1_555
Rh5 Zr2 2.728707 1_554
Rh5 Zr0 2.766507 1_545
Rh5 Rh6 2.771944 1_455
Rh6 Ta0 2.670018 1_555
Rh6 Zr1 2.702527 1_645
Rh6 Rh9 2.724027 1_555
Rh6 Zr2 2.739959 1_554
Rh6 Zr0 2.762667 1_645
Rh6 Rh9 2.772086 1_545
Rh7 Ta0 2.670019 1_555
Rh7 Zr1 2.702527 1_645
Rh7 Rh8 2.724165 1_555
Rh7 Zr2 2.739959 1_555
Rh7 Zr0 2.762667 1_646
Rh7 Rh8 2.771943 1_545
Rh8 Ta0 2.679489 1_555
Rh8 Zr1 2.716526 1_655
Rh8 Zr2 2.728707 1_555
Rh8 Zr0 2.766507 1_656
Rh9 Ta0 2.679326 1_555
Rh9 Zr1 2.716681 1_655
Rh9 Zr2 2.728650 1_554
Rh9 Zr0 2.766581 1_655
