# generated using pymatgen
data_KZr2N3
_symmetry_space_group_name_H-M   'P 1'
_cell_length_a   6.47454442
_cell_length_b   6.47454426
_cell_length_c   5.85461611
_cell_angle_alpha   90.00000000
_cell_angle_beta   90.00000000
_cell_angle_gamma   118.75154419
_symmetry_Int_Tables_number   1
_chemical_formula_structural   KZr2N3
_chemical_formula_sum   'K2 Zr4 N6'
_cell_volume   215.16651288
_cell_formula_units_Z   2
loop_
 _symmetry_equiv_pos_site_id
 _symmetry_equiv_pos_as_xyz
  1  'x, y, z'
loop_
 _atom_site_type_symbol
 _atom_site_label
 _atom_site_symmetry_multiplicity
 _atom_site_fract_x
 _atom_site_fract_y
 _atom_site_fract_z
 _atom_site_occupancy
  K  K0  1  0.66006859  0.66006859  0.47282577  1
  K  K1  1  0.33993141  0.33993141  0.97282577  1
  Zr  Zr0  1  0.32855721  0.98034012  0.49119841  1
  Zr  Zr1  1  0.98034012  0.32855721  0.49119841  1
  Zr  Zr2  1  0.67144279  0.01965988  0.99119841  1
  Zr  Zr3  1  0.01965988  0.67144279  0.99119841  1
  N  N0  1  0.34105749  0.90587096  0.83792068  1
  N  N1  1  0.90587096  0.34105749  0.83792068  1
  N  N2  1  0.65894251  0.09412904  0.33792068  1
  N  N3  1  0.09412904  0.65894251  0.33792068  1
  N  N4  1  0.77268296  0.77268296  0.95693606  1
  N  N5  1  0.22731704  0.22731704  0.45693606  1
loop_
_geom_bond_atom_site_label_1
_geom_bond_atom_site_label_2
_geom_bond_distance
_geom_bond_site_symmetry_2
K0 N5 2.856090 1_555
K0 N2 2.922603 1_565
K0 N3 2.922603 1_655
K0 N4 2.930010 1_555
K0 N4 3.110345 1_554
K1 N4 2.856090 1_555
K1 N0 2.922603 1_545
K1 N1 2.922603 1_455
K1 N5 2.930010 1_556
K1 N5 3.110345 1_555
N0 Zr0 2.096941 1_555
N0 Zr3 2.097792 1_555
N0 Zr2 2.099453 1_565
N1 Zr1 2.096941 1_555
N1 Zr2 2.097792 1_555
N1 Zr3 2.099453 1_655
N2 Zr2 2.096941 1_554
N2 Zr1 2.097792 1_555
N2 Zr0 2.099453 1_545
N3 Zr3 2.096941 1_554
N3 Zr0 2.097792 1_555
N3 Zr1 2.099453 1_455
N4 Zr2 2.008794 1_565
N4 Zr3 2.008794 1_655
N5 Zr0 2.008794 1_545
N5 Zr1 2.008794 1_455
