# generated using pymatgen
data_Re2Sb7Mo
_symmetry_space_group_name_H-M   'P 1'
_cell_length_a   8.23992361
_cell_length_b   8.24063145
_cell_length_c   8.24063200
_cell_angle_alpha   109.28898962
_cell_angle_beta   109.56416744
_cell_angle_gamma   109.56416141
_symmetry_Int_Tables_number   1
_chemical_formula_structural   Re2Sb7Mo
_chemical_formula_sum   'Re4 Sb14 Mo2'
_cell_volume   430.72512330
_cell_formula_units_Z   2
loop_
 _symmetry_equiv_pos_site_id
 _symmetry_equiv_pos_as_xyz
  1  'x, y, z'
loop_
 _atom_site_type_symbol
 _atom_site_label
 _atom_site_symmetry_multiplicity
 _atom_site_fract_x
 _atom_site_fract_y
 _atom_site_fract_z
 _atom_site_occupancy
  Re  Re0  1  0.33861653  0.33871693  0.99989959  1
  Re  Re1  1  1.00000000  0.34175576  0.34166084  1
  Re  Re2  1  0.00000000  0.65833916  0.65824424  1
  Re  Re3  1  0.66138347  0.00010041  0.66128307  1
  Sb  Sb0  1  0.74969350  0.25044870  0.49924481  1
  Sb  Sb1  1  0.50000000  0.25062300  0.74937700  1
  Sb  Sb2  1  0.50000000  0.75062300  0.24937700  1
  Sb  Sb3  1  0.25030650  0.50075519  0.74955130  1
  Sb  Sb4  1  0.75149230  0.50073006  0.25076224  1
  Sb  Sb5  1  0.24850770  0.74923776  0.49926994  1
  Sb  Sb6  1  0.32653403  0.32648955  0.32642532  1
  Sb  Sb7  1  1.00000000  0.00002357  0.32594128  1
  Sb  Sb8  1  0.32653403  0.00010971  0.00004447  1
  Sb  Sb9  1  1.00000000  0.32703468  0.99979261  1
  Sb  Sb10  1  0.67346597  0.99995553  0.99989029  1
  Sb  Sb11  1  1.00000000  0.67405872  0.99997643  1
  Sb  Sb12  1  0.00000000  0.00020739  0.67296532  1
  Sb  Sb13  1  0.67346597  0.67357468  0.67351045  1
  Mo  Mo0  1  0.34273824  0.99997822  0.34276002  1
  Mo  Mo1  1  0.65726176  0.65723998  0.00002178  1
loop_
_geom_bond_atom_site_label_1
_geom_bond_atom_site_label_2
_geom_bond_distance
_geom_bond_site_symmetry_2
Re0 Sb8 2.759008 1_556
Re0 Sb6 2.759016 1_556
Re0 Sb12 2.759120 1_555
Re0 Sb9 2.759120 1_455
Re0 Sb3 2.834419 1_555
Re0 Sb2 2.837663 1_556
Re0 Sb1 2.837663 1_555
Re0 Sb4 2.838060 1_556
Re1 Sb7 2.775992 1_555
Re1 Sb6 2.777318 1_655
Re1 Sb10 2.777321 1_544
Re1 Sb9 2.779497 1_554
Re1 Sb5 2.808554 1_655
Re1 Sb4 2.808554 1_555
Re1 Sb3 2.811828 1_655
Re1 Sb0 2.811828 1_555
Re2 Sb11 2.775992 1_455
Re2 Sb13 2.777318 1_455
Re2 Sb8 2.777321 1_566
Re2 Sb12 2.779496 1_565
Re2 Sb4 2.808554 1_455
Re2 Sb5 2.808555 1_555
Re2 Sb0 2.811828 1_455
Re2 Sb3 2.811828 1_555
Re3 Sb10 2.759008 1_545
Re3 Sb13 2.759016 1_545
Re3 Sb9 2.759120 1_555
Re3 Sb12 2.759120 1_655
Re3 Sb0 2.834419 1_555
Re3 Sb1 2.837663 1_555
Re3 Sb2 2.837663 1_545
Re3 Sb5 2.838060 1_545
Sb6 Sb7 3.100802 1_455
Sb6 Sb9 3.106486 1_454
Sb6 Sb8 3.112640 1_555
Sb10 Sb8 2.859544 1_566
Sb10 Sb7 3.100806 1_566
Sb10 Sb9 3.106481 1_565
Sb10 Sb13 3.112640 1_555
Sb11 Sb9 2.859197 1_555
Sb11 Sb13 3.100802 1_555
Sb11 Sb8 3.100806 1_666
Sb11 Sb7 3.108678 1_566
Sb12 Sb7 2.859197 1_455
Sb12 Sb8 3.106481 1_556
Sb12 Sb13 3.106486 1_445
Sb12 Sb9 3.116903 1_455
Sb13 Sb6 2.859538 1_555
Mo0 Sb11 2.780927 1_454
Mo0 Sb7 2.780928 1_465
Mo0 Sb6 2.782705 1_565
Mo0 Sb8 2.782708 1_565
Mo0 Sb0 2.806744 1_565
Mo0 Sb5 2.809373 1_555
Mo0 Sb2 2.810723 1_555
Mo0 Sb1 2.810723 1_565
Mo0 Re3 3.027286 1_565
Mo1 Sb7 2.780927 1_565
Mo1 Sb11 2.780928 1_554
Mo1 Sb13 2.782705 1_554
Mo1 Sb10 2.782708 1_554
Mo1 Sb3 2.806744 1_554
Mo1 Sb4 2.809373 1_555
Mo1 Sb1 2.810723 1_554
Mo1 Sb2 2.810723 1_555
Mo1 Re0 3.027286 1_554
