# generated using pymatgen
data_Mn4Cu2GePd9
_symmetry_space_group_name_H-M   'P 1'
_cell_length_a   6.71272368
_cell_length_b   6.71272353
_cell_length_c   6.71272284
_cell_angle_alpha   106.22023397
_cell_angle_beta   106.22022996
_cell_angle_gamma   116.18938620
_symmetry_Int_Tables_number   1
_chemical_formula_structural   Mn4Cu2GePd9
_chemical_formula_sum   'Mn4 Cu2 Ge1 Pd9'
_cell_volume   230.42070981
_cell_formula_units_Z   1
loop_
 _symmetry_equiv_pos_site_id
 _symmetry_equiv_pos_as_xyz
  1  'x, y, z'
loop_
 _atom_site_type_symbol
 _atom_site_label
 _atom_site_symmetry_multiplicity
 _atom_site_fract_x
 _atom_site_fract_y
 _atom_site_fract_z
 _atom_site_occupancy
  Mn  Mn0  1  0.23334590  0.23334590  0.46669281  1
  Mn  Mn1  1  0.76665410  0.76665410  0.53330719  1
  Mn  Mn2  1  0.23334590  0.76665410  0.00000000  1
  Mn  Mn3  1  0.76665410  0.23334590  1.00000000  1
  Cu  Cu0  1  0.50000000  0.00000000  0.50000000  1
  Cu  Cu1  1  0.00000000  0.50000000  0.50000000  1
  Ge  Ge0  1  0.50000000  0.50000000  0.00000000  1
  Pd  Pd0  1  0.52285058  0.27133982  0.25150975  1
  Pd  Pd1  1  0.47714942  0.72866018  0.74849025  1
  Pd  Pd2  1  0.01983007  0.27133982  0.74849025  1
  Pd  Pd3  1  0.27133982  0.01983007  0.74849025  1
  Pd  Pd4  1  0.98016993  0.72866018  0.25150975  1
  Pd  Pd5  1  0.72866018  0.98016993  0.25150975  1
  Pd  Pd6  1  0.27133982  0.52285058  0.25150975  1
  Pd  Pd7  1  0.72866018  0.47714942  0.74849025  1
  Pd  Pd8  1  0.00000000  0.00000000  0.00000000  1
loop_
_geom_bond_atom_site_label_1
_geom_bond_atom_site_label_2
_geom_bond_distance
_geom_bond_site_symmetry_2
Mn0 Pd8 2.659488 1_555
Mn0 Pd4 2.695307 1_445
Mn0 Pd5 2.695307 1_445
Mn0 Pd0 2.695317 1_555
Mn0 Pd6 2.695317 1_555
Mn0 Pd2 2.695433 1_555
Mn0 Pd3 2.695433 1_555
Mn0 Pd1 2.695439 1_555
Mn0 Pd7 2.695439 1_555
Mn1 Pd8 2.659488 1_666
Mn1 Pd2 2.695307 1_665
Mn1 Pd3 2.695307 1_665
Mn1 Pd1 2.695317 1_555
Mn1 Pd7 2.695317 1_555
Mn1 Pd4 2.695433 1_555
Mn1 Pd5 2.695433 1_555
Mn1 Pd0 2.695439 1_555
Mn1 Pd6 2.695439 1_555
Mn2 Pd8 2.659482 1_565
Mn2 Pd4 2.695307 1_455
Mn2 Pd3 2.695307 1_564
Mn2 Pd0 2.695307 1_565
Mn2 Pd7 2.695307 1_454
Mn2 Pd1 2.695433 1_554
Mn2 Pd6 2.695433 1_555
Mn2 Pd2 2.695439 1_554
Mn2 Pd5 2.695439 1_555
Mn3 Pd8 2.659482 1_656
Mn3 Pd2 2.695307 1_655
Mn3 Pd5 2.695307 1_546
Mn3 Pd1 2.695307 1_545
Mn3 Pd6 2.695307 1_656
Mn3 Pd0 2.695433 1_556
Mn3 Pd7 2.695433 1_555
Mn3 Pd4 2.695439 1_556
Mn3 Pd3 2.695439 1_555
Cu0 Pd7 2.577354 1_555
Cu0 Pd6 2.577354 1_545
Cu0 Pd3 2.577359 1_555
Cu0 Pd5 2.577359 1_545
Cu0 Pd1 2.777981 1_545
Cu0 Pd0 2.777981 1_555
Cu0 Pd2 2.777982 1_655
Cu0 Pd4 2.777982 1_445
Cu0 Mn1 2.855607 1_545
Cu0 Mn0 2.855607 1_555
Cu0 Mn3 2.855607 1_555
Cu0 Mn2 2.855607 1_545
Cu1 Pd1 2.577354 1_555
Cu1 Pd0 2.577354 1_455
Cu1 Pd2 2.577359 1_555
Cu1 Pd4 2.577359 1_455
Cu1 Pd7 2.777981 1_455
Cu1 Pd6 2.777981 1_555
Cu1 Pd3 2.777981 1_565
Cu1 Pd5 2.777981 1_445
Cu1 Mn1 2.855607 1_455
Cu1 Mn0 2.855607 1_555
Cu1 Mn2 2.855607 1_556
Cu1 Mn3 2.855607 1_454
Ge0 Pd5 2.596312 1_555
Ge0 Pd3 2.596312 1_554
Ge0 Pd4 2.596312 1_555
Ge0 Pd2 2.596312 1_554
Ge0 Pd6 2.596313 1_555
Ge0 Pd7 2.596313 1_554
Ge0 Pd0 2.596313 1_555
Ge0 Pd1 2.596313 1_554
Ge0 Mn1 3.039095 1_555
Ge0 Mn0 3.039095 1_554
Ge0 Mn3 3.039101 1_554
Ge0 Mn2 3.039101 1_555
