# generated using pymatgen
data_K5P2Pt
_symmetry_space_group_name_H-M   'P 1'
_cell_length_a   5.60376661
_cell_length_b   5.60376689
_cell_length_c   18.61658245
_cell_angle_alpha   90.00000000
_cell_angle_beta   90.00000000
_cell_angle_gamma   120.00001539
_symmetry_Int_Tables_number   1
_chemical_formula_structural   K5P2Pt
_chemical_formula_sum   'K10 P4 Pt2'
_cell_volume   506.27982666
_cell_formula_units_Z   2
loop_
 _symmetry_equiv_pos_site_id
 _symmetry_equiv_pos_as_xyz
  1  'x, y, z'
loop_
 _atom_site_type_symbol
 _atom_site_label
 _atom_site_symmetry_multiplicity
 _atom_site_fract_x
 _atom_site_fract_y
 _atom_site_fract_z
 _atom_site_occupancy
  K  K0  1  0.00000000  0.00000000  0.84641325  1
  K  K1  1  0.00000000  0.00000000  0.65358675  1
  K  K2  1  0.33333300  0.66666700  0.75000000  1
  K  K3  1  0.00000000  0.00000000  0.34641325  1
  K  K4  1  0.33333300  0.66666700  0.54858549  1
  K  K5  1  0.66666700  0.33333300  0.25000000  1
  K  K6  1  0.66666700  0.33333300  0.45141451  1
  K  K7  1  0.66666700  0.33333300  0.04858549  1
  K  K8  1  0.33333300  0.66666700  0.95141451  1
  K  K9  1  0.00000000  0.00000000  0.15358675  1
  P  P0  1  0.33333300  0.66666700  0.12638516  1
  P  P1  1  0.66666700  0.33333300  0.62638516  1
  P  P2  1  0.66666700  0.33333300  0.87361484  1
  P  P3  1  0.33333300  0.66666700  0.37361484  1
  Pt  Pt0  1  0.66666700  0.33333300  0.75000000  1
  Pt  Pt1  1  0.33333300  0.66666700  0.25000000  1
loop_
_geom_bond_atom_site_label_1
_geom_bond_atom_site_label_2
_geom_bond_distance
_geom_bond_site_symmetry_2
K0 P2 3.274725 1_455
K0 P2 3.274729 1_555
K0 P2 3.274729 1_445
K1 P1 3.274725 1_455
K1 P1 3.274729 1_555
K1 P1 3.274729 1_445
K2 Pt0 3.235332 1_455
K2 Pt0 3.235333 1_565
K2 Pt0 3.235343 1_555
K3 P3 3.274725 1_545
K3 P3 3.274729 1_445
K3 P3 3.274729 1_555
K4 P3 3.257356 1_555
K4 P1 3.544733 1_455
K4 P1 3.544733 1_565
K4 P1 3.544743 1_555
K5 Pt1 3.235332 1_655
K5 Pt1 3.235333 1_545
K5 Pt1 3.235343 1_555
K6 P1 3.257356 1_555
K6 P3 3.544733 1_655
K6 P3 3.544733 1_545
K6 P3 3.544743 1_555
K7 P2 3.257356 1_554
K7 P0 3.544733 1_655
K7 P0 3.544733 1_545
K7 P0 3.544743 1_555
K8 P0 3.257356 1_556
K8 P2 3.544733 1_455
K8 P2 3.544733 1_565
K8 P2 3.544743 1_555
K9 P0 3.274725 1_545
K9 P0 3.274729 1_445
K9 P0 3.274729 1_555
P0 Pt1 2.301286 1_555
P1 Pt0 2.301286 1_555
P2 Pt0 2.301286 1_555
P3 Pt1 2.301286 1_555
