# generated using pymatgen
data_AuSO4
_symmetry_space_group_name_H-M   'P 1'
_cell_length_a   8.32274898
_cell_length_b   8.58268324
_cell_length_c   10.08405165
_cell_angle_alpha   89.99990053
_cell_angle_beta   90.00156806
_cell_angle_gamma   89.99982857
_symmetry_Int_Tables_number   1
_chemical_formula_structural   AuSO4
_chemical_formula_sum   'Au8 S8 O32'
_cell_volume   720.31911864
_cell_formula_units_Z   8
loop_
 _symmetry_equiv_pos_site_id
 _symmetry_equiv_pos_as_xyz
  1  'x, y, z'
loop_
 _atom_site_type_symbol
 _atom_site_label
 _atom_site_symmetry_multiplicity
 _atom_site_fract_x
 _atom_site_fract_y
 _atom_site_fract_z
 _atom_site_occupancy
  Au  Au0  1  0.94803548  0.36402783  0.01421951  1
  Au  Au1  1  0.44802287  0.63595803  0.48577256  1
  Au  Au2  1  0.55196563  0.86402801  0.98578060  1
  Au  Au3  1  0.05197658  0.13595776  0.51422722  1
  Au  Au4  1  0.05196370  0.63597168  0.98577955  1
  Au  Au5  1  0.55197695  0.36404227  0.51422687  1
  Au  Au6  1  0.44803633  0.13597191  0.01422032  1
  Au  Au7  1  0.94802309  0.86404264  0.48577258  1
  S  S0  1  0.22760303  0.42241610  0.64315771  1
  S  S1  1  0.72757971  0.57757887  0.85686220  1
  S  S2  1  0.27239529  0.92241685  0.35684111  1
  S  S3  1  0.77241979  0.07757856  0.14313807  1
  S  S4  1  0.77239640  0.57758430  0.35684135  1
  S  S5  1  0.27241936  0.42242061  0.14313780  1
  S  S6  1  0.72760338  0.07758394  0.64315795  1
  S  S7  1  0.22758310  0.92242065  0.85686398  1
  O  O0  1  0.36544163  0.37120231  0.02520114  1
  O  O1  1  0.86541546  0.62881513  0.47478437  1
  O  O2  1  0.13456356  0.87120159  0.97480077  1
  O  O3  1  0.63458482  0.12881512  0.52521345  1
  O  O4  1  0.63455835  0.62879578  0.97479954  1
  O  O5  1  0.13458453  0.37118522  0.52521406  1
  O  O6  1  0.86543979  0.12879775  0.02520070  1
  O  O7  1  0.36541438  0.87118478  0.47478540  1
  O  O8  1  0.77264728  0.40920771  0.88229106  1
  O  O9  1  0.27265707  0.59078836  0.61770733  1
  O  O10  1  0.72735453  0.90920743  0.11770884  1
  O  O11  1  0.22734187  0.09078920  0.38229130  1
  O  O12  1  0.22735274  0.59079174  0.11770752  1
  O  O13  1  0.72734309  0.40921198  0.38229241  1
  O  O14  1  0.27264715  0.09079164  0.88229360  1
  O  O15  1  0.77265758  0.90921144  0.61770797  1
  O  O16  1  0.14447135  0.91087798  0.73425906  1
  O  O17  1  0.64450429  0.08911932  0.76574921  1
  O  O18  1  0.35553025  0.41087794  0.26574304  1
  O  O19  1  0.85549463  0.58911974  0.23424957  1
  O  O20  1  0.85553215  0.08912080  0.26574247  1
  O  O21  1  0.35549459  0.91088123  0.23424956  1
  O  O22  1  0.64446781  0.58912278  0.73425746  1
  O  O23  1  0.14450479  0.41088106  0.76574945  1
  O  O24  1  0.11927104  0.82585879  0.34868060  1
  O  O25  1  0.61930461  0.17415345  0.15129701  1
  O  O26  1  0.38072772  0.32585760  0.65131798  1
  O  O27  1  0.88069457  0.67415486  0.84870475  1
  O  O28  1  0.88072804  0.17414178  0.65131811  1
  O  O29  1  0.38069822  0.82584698  0.84870450  1
  O  O30  1  0.61927112  0.67414219  0.34868139  1
  O  O31  1  0.11930435  0.32584532  0.15129500  1
loop_
_geom_bond_atom_site_label_1
_geom_bond_atom_site_label_2
_geom_bond_distance
_geom_bond_site_symmetry_2
Au0 O31 2.012415 1_655
Au0 O8 2.012685 1_554
Au0 O6 2.135604 1_555
Au1 O30 2.012459 1_555
Au1 O9 2.012630 1_555
Au1 O7 2.135608 1_555
Au2 O29 2.012410 1_555
Au2 O10 2.012690 1_556
Au2 O4 2.135610 1_555
Au3 O28 2.012458 1_455
Au3 O11 2.012632 1_555
Au3 O5 2.135617 1_555
Au4 O27 2.012412 1_455
Au4 O12 2.012687 1_556
Au4 O2 2.135612 1_555
Au5 O26 2.012465 1_555
Au5 O13 2.012630 1_555
Au5 O3 2.135610 1_555
Au6 O25 2.012420 1_555
Au6 O14 2.012683 1_554
Au6 O0 2.135600 1_555
Au7 O24 2.012462 1_655
Au7 O15 2.012630 1_555
Au7 O1 2.135617 1_555
O0 S5 1.485619 1_555
O1 S4 1.485655 1_555
O2 S7 1.485610 1_555
O3 S6 1.485663 1_555
O4 S1 1.485617 1_555
O5 S0 1.485658 1_555
O6 S3 1.485617 1_555
O7 S2 1.485666 1_555
O8 S1 1.514820 1_555
O9 S0 1.514843 1_555
O10 S3 1.514819 1_565
O11 S2 1.514841 1_545
O12 S5 1.514820 1_555
O13 S4 1.514844 1_555
O14 S7 1.514816 1_545
O15 S6 1.514844 1_565
O16 S7 1.420146 1_555
O17 S6 1.420003 1_555
O18 S5 1.420145 1_555
O19 S4 1.420004 1_555
O20 S3 1.420144 1_555
O21 S2 1.420007 1_555
O22 S1 1.420145 1_555
O23 S0 1.420004 1_555
O24 S2 1.522398 1_555
O25 S3 1.522412 1_555
O26 S0 1.522398 1_555
O27 S1 1.522418 1_555
O28 S6 1.522399 1_555
O29 S7 1.522406 1_555
O30 S4 1.522399 1_555
O31 S5 1.522415 1_555
