# generated using pymatgen
data_YZr(Re2Si)4
_symmetry_space_group_name_H-M   'P 1'
_cell_length_a   7.33554471
_cell_length_b   7.33554471
_cell_length_c   4.10640765
_cell_angle_alpha   90.00000000
_cell_angle_beta   90.00000000
_cell_angle_gamma   91.14910874
_symmetry_Int_Tables_number   1
_chemical_formula_structural   YZr(Re2Si)4
_chemical_formula_sum   'Y1 Zr1 Re8 Si4'
_cell_volume   220.92224517
_cell_formula_units_Z   1
loop_
 _symmetry_equiv_pos_site_id
 _symmetry_equiv_pos_as_xyz
  1  'x, y, z'
loop_
 _atom_site_type_symbol
 _atom_site_label
 _atom_site_symmetry_multiplicity
 _atom_site_fract_x
 _atom_site_fract_y
 _atom_site_fract_z
 _atom_site_occupancy
  Y  Y0  1  0.00000000  0.00000000  0.50000000  1
  Zr  Zr0  1  0.50000000  0.50000000  0.00000000  1
  Re  Re0  1  0.65331619  0.90027191  0.00000000  1
  Re  Re1  1  0.15993539  0.58762932  0.50000000  1
  Re  Re2  1  0.09972809  0.34668381  0.00000000  1
  Re  Re3  1  0.90027191  0.65331619  0.00000000  1
  Re  Re4  1  0.41237068  0.84006461  0.50000000  1
  Re  Re5  1  0.58762932  0.15993539  0.50000000  1
  Re  Re6  1  0.34668381  0.09972809  0.00000000  1
  Re  Re7  1  0.84006461  0.41237068  0.50000000  1
  Si  Si0  1  0.21255730  0.78744270  0.00000000  1
  Si  Si1  1  0.78744270  0.21255730  0.00000000  1
  Si  Si2  1  0.70399864  0.70399864  0.50000000  1
  Si  Si3  1  0.29600136  0.29600136  0.50000000  1
loop_
_geom_bond_atom_site_label_1
_geom_bond_atom_site_label_2
_geom_bond_distance
_geom_bond_site_symmetry_2
Re0 Si1 2.474940 1_565
Re0 Si2 2.539346 1_555
Re0 Si2 2.539346 1_554
Re0 Re3 2.587487 1_555
Re0 Re6 2.707792 1_565
Re0 Re4 2.739221 1_554
Re0 Re4 2.739221 1_555
Re0 Re5 2.848297 1_565
Re0 Re5 2.848297 1_564
Re0 Zr0 3.123099 1_555
Re0 Y0 3.338209 1_665
Re0 Y0 3.338209 1_664
Re1 Si3 2.378712 1_555
Re1 Si0 2.547617 1_556
Re1 Si0 2.547617 1_555
Re1 Re4 2.592379 1_555
Re1 Re7 2.652836 1_455
Re1 Re2 2.739221 1_555
Re1 Re2 2.739221 1_556
Re1 Re3 2.848297 1_456
Re1 Re3 2.848297 1_455
Re1 Y0 3.266371 1_565
Re1 Zr0 3.303936 1_556
Re1 Zr0 3.303936 1_555
Re2 Si1 2.474940 1_455
Re2 Si3 2.539346 1_554
Re2 Si3 2.539346 1_555
Re2 Re6 2.587487 1_555
Re2 Re3 2.707792 1_455
Re2 Re7 2.848297 1_455
Re2 Re7 2.848297 1_454
Re2 Zr0 3.123099 1_555
Re2 Y0 3.338209 1_555
Re2 Y0 3.338209 1_554
Re3 Si0 2.474940 1_655
Re3 Si2 2.539346 1_555
Re3 Si2 2.539346 1_554
Re3 Re7 2.739221 1_555
Re3 Re7 2.739221 1_554
Re3 Zr0 3.123099 1_555
Re3 Y0 3.338209 1_665
Re3 Y0 3.338209 1_664
Re4 Si2 2.378712 1_555
Re4 Si0 2.547617 1_556
Re4 Si0 2.547617 1_555
Re4 Re5 2.652836 1_565
Re4 Re6 2.848297 1_565
Re4 Re6 2.848297 1_566
Re4 Y0 3.266371 1_565
Re4 Zr0 3.303936 1_556
Re4 Zr0 3.303936 1_555
Re5 Si3 2.378712 1_555
Re5 Si1 2.547617 1_555
Re5 Si1 2.547617 1_556
Re5 Re7 2.592379 1_555
Re5 Re6 2.739221 1_555
Re5 Re6 2.739221 1_556
Re5 Y0 3.266371 1_655
Re5 Zr0 3.303936 1_556
Re5 Zr0 3.303936 1_555
Re6 Si0 2.474940 1_545
Re6 Si3 2.539346 1_554
Re6 Si3 2.539346 1_555
Re6 Zr0 3.123099 1_555
Re6 Y0 3.338209 1_555
Re6 Y0 3.338209 1_554
Re7 Si2 2.378712 1_555
Re7 Si1 2.547617 1_555
Re7 Si1 2.547617 1_556
Re7 Y0 3.266371 1_655
Re7 Zr0 3.303936 1_556
Re7 Zr0 3.303936 1_555
Si0 Zr0 3.011690 1_555
Si0 Y0 3.029111 1_565
Si0 Y0 3.029111 1_564
Si1 Zr0 3.011690 1_555
Si1 Y0 3.029111 1_655
Si1 Y0 3.029111 1_654
Si2 Zr0 2.933343 1_556
Si2 Zr0 2.933343 1_555
Si2 Y0 3.039779 1_665
Si3 Zr0 2.933343 1_555
Si3 Zr0 2.933343 1_556
Si3 Y0 3.039779 1_555
