# generated using pymatgen
data_YLu3(Si2Tc)2
_symmetry_space_group_name_H-M   'P 1'
_cell_length_a   5.68232705
_cell_length_b   5.68232731
_cell_length_c   9.91496464
_cell_angle_alpha   63.97959155
_cell_angle_beta   63.97959213
_cell_angle_gamma   42.68687660
_symmetry_Int_Tables_number   1
_chemical_formula_structural   YLu3(Si2Tc)2
_chemical_formula_sum   'Y1 Lu3 Si4 Tc2'
_cell_volume   191.47121515
_cell_formula_units_Z   1
loop_
 _symmetry_equiv_pos_site_id
 _symmetry_equiv_pos_as_xyz
  1  'x, y, z'
loop_
 _atom_site_type_symbol
 _atom_site_label
 _atom_site_symmetry_multiplicity
 _atom_site_fract_x
 _atom_site_fract_y
 _atom_site_fract_z
 _atom_site_occupancy
  Y  Y0  1  0.81070468  0.81070468  0.10746779  1
  Lu  Lu0  1  0.00307868  0.00307868  0.32562685  1
  Lu  Lu1  1  0.18588883  0.18588883  0.88732609  1
  Lu  Lu2  1  0.99646580  0.99646580  0.67532375  1
  Si  Si0  1  0.36046661  0.36046661  0.56035617  1
  Si  Si1  1  0.49722437  0.49722437  0.87666198  1
  Si  Si2  1  0.64042819  0.64042819  0.44236529  1
  Si  Si3  1  0.50430640  0.50430640  0.12198299  1
  Tc  Tc0  1  0.72961996  0.72961996  0.63143806  1
  Tc  Tc1  1  0.27181649  0.27181649  0.37145004  1
loop_
_geom_bond_atom_site_label_1
_geom_bond_atom_site_label_2
_geom_bond_distance
_geom_bond_site_symmetry_2
Lu0 Si3 2.886078 1_455
Lu0 Si3 2.886078 1_545
Lu0 Si0 2.943292 1_455
Lu0 Si0 2.943292 1_545
Lu0 Tc0 3.050386 1_445
Lu0 Si2 3.052176 1_545
Lu0 Si2 3.052176 1_455
Lu0 Tc1 3.070570 1_455
Lu0 Tc1 3.070570 1_545
Lu0 Tc1 3.084784 1_555
Lu1 Si0 2.877756 1_555
Lu1 Si1 2.911263 1_455
Lu1 Si1 2.911264 1_545
Lu1 Si3 3.028559 1_456
Lu1 Si3 3.028559 1_546
Lu1 Tc0 3.134022 1_455
Lu1 Tc0 3.134022 1_545
Lu1 Si1 3.247093 1_555
Lu2 Si1 2.877041 1_655
Lu2 Si1 2.877041 1_565
Lu2 Si2 2.935776 1_655
Lu2 Si2 2.935776 1_565
Lu2 Si0 3.032274 1_565
Lu2 Si0 3.032275 1_655
Lu2 Tc1 3.049691 1_665
Lu2 Tc0 3.053781 1_555
Lu2 Tc0 3.089636 1_655
Lu2 Tc0 3.089636 1_565
Si0 Tc0 2.402639 1_455
Si0 Tc0 2.402639 1_545
Si0 Tc1 2.458516 1_555
Si0 Si2 2.623912 1_555
Si1 Si3 2.468543 1_556
Si1 Tc0 2.515730 1_555
Si1 Y0 3.025899 1_456
Si1 Y0 3.025899 1_546
Si2 Tc1 2.405124 1_655
Si2 Tc1 2.405124 1_565
Si2 Tc0 2.464320 1_555
Si2 Y0 2.938823 1_555
Si3 Tc1 2.537784 1_555
Si3 Y0 2.962326 1_455
Si3 Y0 2.962326 1_545
Si3 Y0 3.178044 1_555
Tc1 Y0 3.206607 1_455
Tc1 Y0 3.206607 1_545
