# generated using pymatgen
data_Lu12Ni4SnRh
_symmetry_space_group_name_H-M   'P 1'
_cell_length_a   8.07793344
_cell_length_b   8.07793419
_cell_length_c   8.07793387
_cell_angle_alpha   111.72401917
_cell_angle_beta   109.94882359
_cell_angle_gamma   106.77913104
_symmetry_Int_Tables_number   1
_chemical_formula_structural   Lu12Ni4SnRh
_chemical_formula_sum   'Lu12 Ni4 Sn1 Rh1'
_cell_volume   404.99896837
_cell_formula_units_Z   1
loop_
 _symmetry_equiv_pos_site_id
 _symmetry_equiv_pos_as_xyz
  1  'x, y, z'
loop_
 _atom_site_type_symbol
 _atom_site_label
 _atom_site_symmetry_multiplicity
 _atom_site_fract_x
 _atom_site_fract_y
 _atom_site_fract_z
 _atom_site_occupancy
  Lu  Lu0  1  0.67763973  0.87124125  0.19360151  1
  Lu  Lu1  1  0.32236027  0.51596178  0.19360151  1
  Lu  Lu2  1  0.81764268  0.78759594  0.60523862  1
  Lu  Lu3  1  0.18235732  0.78759594  0.96995326  1
  Lu  Lu4  1  0.81764268  0.21240406  0.03004674  1
  Lu  Lu5  1  0.18235732  0.21240406  0.39476138  1
  Lu  Lu6  1  0.67763973  0.48403822  0.80639849  1
  Lu  Lu7  1  0.32236027  0.12875875  0.80639849  1
  Lu  Lu8  1  0.58974899  0.28324806  0.30649993  1
  Lu  Lu9  1  0.41025101  0.71675194  0.69350007  1
  Lu  Lu10  1  0.02325287  0.71675194  0.30649993  1
  Lu  Lu11  1  0.97674713  0.28324806  0.69350007  1
  Ni  Ni0  1  0.35994628  0.50000000  0.85994628  1
  Ni  Ni1  1  0.64005372  0.50000000  0.14005372  1
  Ni  Ni2  1  0.87855498  0.87855498  0.00000000  1
  Ni  Ni3  1  0.12144502  0.12144502  1.00000000  1
  Sn  Sn0  1  0.50000000  0.00000000  0.50000000  1
  Rh  Rh0  1  0.00000000  0.50000000  0.50000000  1
loop_
_geom_bond_atom_site_label_1
_geom_bond_atom_site_label_2
_geom_bond_distance
_geom_bond_site_symmetry_2
Lu0 Ni2 2.613107 1_555
Lu0 Ni0 2.774327 1_554
Lu0 Ni1 2.774327 1_555
Lu0 Sn0 3.262882 1_565
Lu0 Lu3 3.511511 1_554
Lu0 Lu2 3.511511 1_555
Lu0 Lu5 3.540467 1_665
Lu0 Lu4 3.540467 1_565
Lu1 Ni3 2.613107 1_554
Lu1 Ni1 2.774327 1_555
Lu1 Ni0 2.774327 1_554
Lu1 Sn0 3.262883 1_565
Lu1 Lu2 3.511511 1_555
Lu1 Lu3 3.511512 1_554
Lu1 Lu4 3.540467 1_455
Lu1 Lu5 3.540467 1_555
Lu2 Ni2 2.817248 1_556
Lu2 Ni3 2.817248 1_665
Lu2 Ni1 3.083923 1_555
Lu2 Rh0 3.107757 1_655
Lu2 Lu8 3.342302 1_555
Lu2 Lu3 3.381829 1_655
Lu2 Sn0 3.519040 1_565
Lu2 Lu9 3.532910 1_555
Lu2 Lu7 3.540467 1_665
Lu2 Lu6 3.540467 1_555
Lu3 Ni2 2.817248 1_456
Lu3 Ni3 2.817248 1_565
Lu3 Ni0 3.083923 1_555
Lu3 Rh0 3.107757 1_555
Lu3 Lu9 3.342294 1_555
Lu3 Sn0 3.519040 1_566
Lu3 Lu8 3.532905 1_566
Lu3 Lu6 3.540467 1_455
Lu3 Lu7 3.540467 1_565
Lu4 Ni3 2.817248 1_654
Lu4 Ni2 2.817248 1_545
Lu4 Ni1 3.083923 1_555
Lu4 Rh0 3.107757 1_655
Lu4 Lu8 3.342294 1_555
Lu4 Lu5 3.381829 1_655
Lu4 Lu7 3.511511 1_554
Lu4 Lu6 3.511512 1_554
Lu4 Sn0 3.519040 1_554
Lu4 Lu9 3.532905 1_544
Lu5 Ni3 2.817248 1_554
Lu5 Ni2 2.817248 1_445
Lu5 Ni0 3.083923 1_555
Lu5 Rh0 3.107757 1_555
Lu5 Lu9 3.342302 1_555
Lu5 Lu6 3.511511 1_555
Lu5 Lu7 3.511511 1_555
Lu5 Sn0 3.519040 1_555
Lu5 Lu8 3.532910 1_555
Lu6 Ni2 2.613107 1_556
Lu6 Ni0 2.774327 1_555
Lu6 Ni1 2.774327 1_556
Lu6 Sn0 3.262883 1_555
Lu7 Ni3 2.613107 1_555
Lu7 Ni1 2.774327 1_556
Lu7 Ni0 2.774327 1_555
Lu7 Sn0 3.262882 1_555
Lu8 Ni1 2.596796 1_555
Lu8 Rh0 2.753286 1_655
Lu8 Ni3 3.241531 1_554
Lu8 Sn0 3.266051 1_555
Lu9 Ni0 2.596796 1_555
Lu9 Rh0 2.753286 1_555
Lu9 Ni2 3.241531 1_556
Lu9 Sn0 3.266051 1_565
Lu10 Ni1 2.596803 1_455
Lu10 Rh0 2.753293 1_555
Lu10 Ni2 3.241526 1_455
Lu10 Sn0 3.266042 1_565
Lu10 Lu4 3.342301 1_455
Lu10 Lu2 3.342307 1_455
Lu10 Lu3 3.532898 1_554
Lu10 Lu5 3.532903 1_565
Lu11 Ni0 2.596803 1_655
Lu11 Rh0 2.753293 1_655
Lu11 Ni3 3.241526 1_655
Lu11 Sn0 3.266042 1_555
Lu11 Lu3 3.342301 1_655
Lu11 Lu5 3.342307 1_655
Lu11 Lu4 3.532898 1_556
Lu11 Lu2 3.532903 1_545
Ni0 Ni1 2.597306 1_556
Ni2 Ni3 2.340219 1_664
