# generated using pymatgen
data_Lu12In2Os3
_symmetry_space_group_name_H-M   'P 1'
_cell_length_a   8.23001386
_cell_length_b   8.23001479
_cell_length_c   8.23001378
_cell_angle_alpha   109.71527468
_cell_angle_beta   109.71528016
_cell_angle_gamma   108.98419952
_symmetry_Int_Tables_number   1
_chemical_formula_structural   Lu12In2Os3
_chemical_formula_sum   'Lu12 In2 Os3'
_cell_volume   429.09786811
_cell_formula_units_Z   1
loop_
 _symmetry_equiv_pos_site_id
 _symmetry_equiv_pos_as_xyz
  1  'x, y, z'
loop_
 _atom_site_type_symbol
 _atom_site_label
 _atom_site_symmetry_multiplicity
 _atom_site_fract_x
 _atom_site_fract_y
 _atom_site_fract_z
 _atom_site_occupancy
  Lu  Lu0  1  0.31803292  0.31803292  0.63606288  1
  Lu  Lu1  1  0.68196904  0.68196904  0.36393712  1
  Lu  Lu2  1  0.68196904  0.31803292  1.00000000  1
  Lu  Lu3  1  0.31803292  0.68196904  0.00000000  1
  Lu  Lu4  1  0.18384561  0.42556334  0.24171873  1
  Lu  Lu5  1  0.81615473  0.57444363  0.75828889  1
  Lu  Lu6  1  0.18384561  0.94212488  0.75828127  1
  Lu  Lu7  1  0.94212488  0.18384561  0.75828127  1
  Lu  Lu8  1  0.81615473  0.05786684  0.24171111  1
  Lu  Lu9  1  0.05786684  0.81615473  0.24171111  1
  Lu  Lu10  1  0.42556334  0.18384561  0.24171873  1
  Lu  Lu11  1  0.57444363  0.81615473  0.75828889  1
  In  In0  1  0.99998170  0.49998170  0.50000000  1
  In  In1  1  0.49998170  0.99998170  0.50000000  1
  Os  Os0  1  0.65456655  0.65456655  0.00000000  1
  Os  Os1  1  0.34547802  0.34547802  1.00000000  1
  Os  Os2  1  0.99999273  0.99999273  1.00000000  1
loop_
_geom_bond_atom_site_label_1
_geom_bond_atom_site_label_2
_geom_bond_distance
_geom_bond_site_symmetry_2
Lu0 Os1 2.850825 1_555
Lu0 Os0 2.851031 1_556
Lu0 Lu2 3.448138 1_555
Lu0 Lu3 3.448138 1_556
Lu0 Lu5 3.525382 1_555
Lu0 Lu11 3.525382 1_555
Lu0 Lu7 3.525429 1_455
Lu0 Lu6 3.525430 1_545
Lu0 Lu4 3.562482 1_555
Lu0 Lu10 3.562482 1_555
Lu0 Lu8 3.562515 1_455
Lu0 Lu9 3.562516 1_545
Lu1 Os1 2.850820 1_554
Lu1 Os0 2.851036 1_555
Lu1 Lu3 3.448138 1_555
Lu1 Lu2 3.448138 1_554
Lu1 Lu9 3.525397 1_655
Lu1 Lu8 3.525398 1_565
Lu1 Lu4 3.525408 1_555
Lu1 Lu10 3.525408 1_555
Lu1 Lu6 3.562494 1_655
Lu1 Lu7 3.562494 1_565
Lu1 Lu5 3.562510 1_555
Lu1 Lu11 3.562510 1_555
Lu2 Os1 2.850817 1_555
Lu2 Os0 2.851028 1_556
Lu2 Lu5 3.525385 1_555
Lu2 Lu9 3.525387 1_656
Lu2 Lu6 3.525415 1_545
Lu2 Lu7 3.562481 1_555
Lu2 Lu4 3.562498 1_656
Lu2 Lu8 3.562510 1_556
Lu3 Os1 2.850817 1_554
Lu3 Os0 2.851028 1_555
Lu3 Lu8 3.525387 1_565
Lu3 Lu7 3.525415 1_454
Lu3 Lu4 3.525415 1_555
Lu3 Lu6 3.562481 1_554
Lu3 Lu9 3.562510 1_555
Lu3 Lu5 3.562517 1_454
Lu4 Os1 2.762731 1_554
Lu4 Os2 2.886920 1_444
Lu5 Os0 2.762436 1_556
Lu5 Os2 2.886782 1_555
Lu6 Os1 2.762746 1_565
Lu6 Os2 2.886928 1_455
Lu7 Os1 2.762746 1_655
Lu7 Os2 2.886928 1_545
Lu8 Os0 2.762443 1_545
Lu8 Os2 2.886783 1_544
Lu9 Os0 2.762443 1_455
Lu9 Os2 2.886783 1_454
Lu10 Os1 2.762731 1_554
Lu10 Os2 2.886919 1_444
Lu10 Lu2 3.525415 1_554
Lu10 Lu3 3.562498 1_545
Lu11 Os0 2.762436 1_556
Lu11 Os2 2.886782 1_555
Lu11 Lu3 3.525384 1_556
Lu11 Lu2 3.562518 1_565
In0 Lu8 3.012835 1_555
In0 Lu5 3.012841 1_555
In0 Lu6 3.012975 1_655
In0 Lu4 3.012989 1_655
In0 Lu1 3.471576 1_555
In0 Lu0 3.471576 1_655
In0 Lu2 3.471577 1_554
In0 Lu3 3.471577 1_656
In1 Lu9 3.012834 1_555
In1 Lu11 3.012841 1_555
In1 Lu7 3.012975 1_565
In1 Lu10 3.012989 1_565
In1 Lu1 3.471576 1_555
In1 Lu0 3.471576 1_565
In1 Lu3 3.471578 1_555
In1 Lu2 3.471578 1_565
Os0 Os1 2.954959 1_554
