# generated using pymatgen
data_Sc4Ga3Si3Ir7
_symmetry_space_group_name_H-M   'P 1'
_cell_length_a   6.99315599
_cell_length_b   6.99315658
_cell_length_c   7.06655747
_cell_angle_alpha   109.68397301
_cell_angle_beta   109.68397475
_cell_angle_gamma   109.25763347
_symmetry_Int_Tables_number   1
_chemical_formula_structural   Sc4Ga3Si3Ir7
_chemical_formula_sum   'Sc4 Ga3 Si3 Ir7'
_cell_volume   265.32942306
_cell_formula_units_Z   1
loop_
 _symmetry_equiv_pos_site_id
 _symmetry_equiv_pos_as_xyz
  1  'x, y, z'
loop_
 _atom_site_type_symbol
 _atom_site_label
 _atom_site_symmetry_multiplicity
 _atom_site_fract_x
 _atom_site_fract_y
 _atom_site_fract_z
 _atom_site_occupancy
  Sc  Sc0  1  0.00000000  0.00000000  0.53628704  1
  Sc  Sc1  1  1.00000000  0.48484343  0.00224422  1
  Sc  Sc2  1  0.48484343  0.00000000  0.00224422  1
  Sc  Sc3  1  0.51515657  0.51515657  0.51740079  1
  Ga  Ga0  1  0.71098298  0.71098298  0.01361543  1
  Ga  Ga1  1  0.28901702  1.00000000  0.30263244  1
  Ga  Ga2  1  1.00000000  0.28901702  0.30263244  1
  Si  Si0  1  0.32883188  0.32883188  0.00542943  1
  Si  Si1  1  0.67116812  0.00000000  0.67659754  1
  Si  Si2  1  0.00000000  0.67116812  0.67659754  1
  Ir  Ir0  1  0.74730189  0.24852723  0.50044972  1
  Ir  Ir1  1  0.75147277  0.49877466  0.25192249  1
  Ir  Ir2  1  0.50122534  0.25269811  0.75314783  1
  Ir  Ir3  1  0.25269811  0.50122534  0.75314783  1
  Ir  Ir4  1  0.24852723  0.74730189  0.50044972  1
  Ir  Ir5  1  0.49877466  0.75147277  0.25192249  1
  Ir  Ir6  1  1.00000000  1.00000000  0.95327982  1
loop_
_geom_bond_atom_site_label_1
_geom_bond_atom_site_label_2
_geom_bond_distance
_geom_bond_site_symmetry_2
Sc0 Si1 2.794123 1_455
Sc0 Si2 2.794123 1_545
Sc0 Si0 2.794123 1_556
Sc1 Si0 2.848764 1_655
Sc1 Si1 2.848764 1_554
Sc1 Si2 3.002213 1_654
Sc2 Si2 2.848764 1_544
Sc2 Si0 2.848764 1_555
Sc2 Si1 3.002213 1_554
Sc3 Si2 2.848763 1_655
Sc3 Si1 2.848764 1_565
Sc3 Si0 3.002213 1_555
Ga0 Ir5 2.599583 1_555
Ga0 Ir1 2.599584 1_555
Ga0 Ir6 2.611179 1_554
Ga0 Ir3 2.630008 1_554
Ga0 Ir2 2.630008 1_554
Ga0 Sc3 2.887833 1_554
Ga0 Sc1 2.953738 1_555
Ga0 Sc2 2.953738 1_565
Ga0 Sc0 3.009882 1_665
Ga1 Ir4 2.599583 1_555
Ga1 Ir2 2.599584 1_565
Ga1 Ir6 2.611179 1_454
Ga1 Ir0 2.630007 1_565
Ga1 Ir5 2.630008 1_555
Ga1 Sc2 2.887832 1_565
Ga1 Sc3 2.953738 1_565
Ga1 Sc1 2.953738 1_455
Ga1 Sc0 3.009882 1_565
Ga2 Ir0 2.599583 1_555
Ga2 Ir3 2.599584 1_655
Ga2 Ir6 2.611179 1_544
Ga2 Ir4 2.630008 1_655
Ga2 Ir1 2.630008 1_555
Ga2 Sc1 2.887832 1_555
Ga2 Sc3 2.953738 1_655
Ga2 Sc2 2.953738 1_555
Ga2 Sc0 3.009882 1_655
Ir0 Si2 2.449956 1_655
Ir0 Si1 2.479307 1_555
Ir0 Sc3 2.846715 1_555
Ir0 Sc2 2.864392 1_555
Ir0 Sc0 2.868544 1_655
Ir0 Sc1 2.886573 1_556
Ir1 Si0 2.449956 1_555
Ir1 Si2 2.479308 1_655
Ir1 Sc2 2.846715 1_555
Ir1 Sc1 2.864391 1_555
Ir1 Sc0 2.868544 1_665
Ir1 Sc3 2.886573 1_555
Ir2 Si1 2.449956 1_555
Ir2 Si0 2.479308 1_556
Ir2 Sc1 2.846715 1_556
Ir2 Sc3 2.864391 1_555
Ir2 Sc0 2.868543 1_555
Ir2 Sc2 2.886573 1_556
Ir3 Si2 2.449956 1_555
Ir3 Si0 2.479308 1_556
Ir3 Sc2 2.846715 1_566
Ir3 Sc3 2.864391 1_555
Ir3 Sc0 2.868544 1_555
Ir3 Sc1 2.886572 1_456
Ir4 Si1 2.449956 1_565
Ir4 Si2 2.479307 1_555
Ir4 Sc3 2.846715 1_555
Ir4 Sc1 2.864392 1_455
Ir4 Sc0 2.868544 1_565
Ir4 Sc2 2.886573 1_566
Ir5 Si0 2.449956 1_555
Ir5 Si1 2.479308 1_565
Ir5 Sc1 2.846715 1_455
Ir5 Sc2 2.864391 1_565
Ir5 Sc0 2.868543 1_665
Ir5 Sc3 2.886573 1_555
Ir6 Si0 2.466159 1_666
Ir6 Si1 2.466160 1_565
Ir6 Si2 2.466160 1_655
Ir6 Sc0 2.946703 1_665
