# generated using pymatgen
data_Sr12Si3GeI8
_symmetry_space_group_name_H-M   'P 1'
_cell_length_a   15.71761412
_cell_length_b   14.98432880
_cell_length_c   8.32423048
_cell_angle_alpha   79.19199658
_cell_angle_beta   69.46121302
_cell_angle_gamma   31.32669852
_symmetry_Int_Tables_number   1
_chemical_formula_structural   Sr12Si3GeI8
_chemical_formula_sum   'Sr12 Si3 Ge1 I8'
_cell_volume   928.82771025
_cell_formula_units_Z   1
loop_
 _symmetry_equiv_pos_site_id
 _symmetry_equiv_pos_as_xyz
  1  'x, y, z'
loop_
 _atom_site_type_symbol
 _atom_site_label
 _atom_site_symmetry_multiplicity
 _atom_site_fract_x
 _atom_site_fract_y
 _atom_site_fract_z
 _atom_site_occupancy
  Sr  Sr0  1  0.36644359  0.94941057  0.58802577  1
  Sr  Sr1  1  0.58804484  0.09615393  0.36641417  1
  Sr  Sr2  1  0.30093156  0.88356788  0.15402476  1
  Sr  Sr3  1  0.94941057  0.36644359  0.09612108  1
  Sr  Sr4  1  0.45269635  0.04740803  0.04716273  1
  Sr  Sr5  1  0.88356788  0.30093156  0.66147380  1
  Sr  Sr6  1  0.09615393  0.58804484  0.94938806  1
  Sr  Sr7  1  0.66182379  0.15377390  0.88374838  1
  Sr  Sr8  1  0.79726339  0.20252860  0.20270177  1
  Sr  Sr9  1  0.20252860  0.79726339  0.79750524  1
  Sr  Sr10  1  0.15377390  0.66182379  0.30065393  1
  Sr  Sr11  1  0.04740803  0.45269635  0.45273289  1
  Si  Si0  1  0.91573203  0.91573203  0.08426797  1
  Si  Si1  1  0.16599554  0.16599554  0.33400446  1
  Si  Si2  1  0.33411907  0.33411907  0.16588093  1
  Ge  Ge0  1  0.08414354  0.08414354  0.91585646  1
  I  I0  1  0.67326367  0.67326367  0.82673633  1
  I  I1  1  0.74402077  0.74402077  0.25597923  1
  I  I2  1  0.25609976  0.25609976  0.74390024  1
  I  I3  1  0.57705218  0.57705218  0.42294782  1
  I  I4  1  0.99387750  0.99387750  0.50612250  1
  I  I5  1  0.82693573  0.82693573  0.67306427  1
  I  I6  1  0.42293971  0.42293971  0.57706029  1
  I  I7  1  0.50577405  0.50577405  0.99422595  1
loop_
_geom_bond_atom_site_label_1
_geom_bond_atom_site_label_2
_geom_bond_distance
_geom_bond_site_symmetry_2
Si0 Sr6 3.075213 1_654
Si0 Sr1 3.075216 1_565
Si0 Sr8 3.088223 1_565
Si0 Sr9 3.088226 1_654
Si0 Sr7 3.091532 1_564
Si0 Sr10 3.091532 1_655
Si1 Sr5 3.076781 1_455
Si1 Sr2 3.076790 1_545
Si1 Sr4 3.086481 1_555
Si1 Sr11 3.086481 1_555
Si1 Sr3 3.092299 1_455
Si1 Sr0 3.092306 1_545
Si2 Sr7 3.075828 1_554
Si2 Sr10 3.075828 1_555
Si2 Sr11 3.086705 1_555
Si2 Sr4 3.086705 1_555
Si2 Sr6 3.091808 1_554
Si2 Sr1 3.091814 1_555
Ge0 Sr0 3.078396 1_545
Ge0 Sr3 3.078400 1_456
Ge0 Sr8 3.090056 1_456
Ge0 Sr9 3.090059 1_545
Ge0 Sr2 3.095713 1_546
Ge0 Sr5 3.095728 1_455
I0 Sr2 3.482345 1_556
I0 Sr5 3.482351 1_555
I0 Sr11 3.606328 1_655
I0 Sr4 3.606328 1_566
I0 Sr0 3.725005 1_555
I0 Sr3 3.725011 1_556
I1 Sr11 3.422440 1_655
I1 Sr4 3.422440 1_565
I1 Sr3 3.578803 1_555
I1 Sr0 3.578806 1_555
I1 Sr6 3.582536 1_654
I1 Sr1 3.582538 1_565
I2 Sr11 3.421167 1_555
I2 Sr4 3.421167 1_556
I2 Sr1 3.577270 1_555
I2 Sr6 3.577274 1_555
I2 Sr0 3.584844 1_545
I2 Sr3 3.584848 1_456
I3 Sr3 3.479465 1_555
I3 Sr0 3.479468 1_555
I3 Sr9 3.613398 1_555
I3 Sr8 3.613402 1_555
I3 Sr5 3.721297 1_555
I3 Sr2 3.721310 1_555
I4 Sr9 3.422426 1_655
I4 Sr8 3.422434 1_565
I4 Sr7 3.579134 1_565
I4 Sr10 3.579134 1_655
I4 Sr5 3.588481 1_565
I4 Sr2 3.588489 1_655
I5 Sr10 3.479885 1_655
I5 Sr7 3.479885 1_565
I5 Sr4 3.607957 1_566
I5 Sr11 3.607957 1_655
I5 Sr1 3.724739 1_565
I5 Sr6 3.724746 1_655
I6 Sr1 3.479114 1_555
I6 Sr6 3.479119 1_555
I6 Sr9 3.609967 1_555
I6 Sr8 3.609971 1_555
I6 Sr10 3.724895 1_555
I6 Sr7 3.724896 1_555
I7 Sr8 3.421175 1_556
I7 Sr9 3.421181 1_555
I7 Sr10 3.580006 1_556
I7 Sr7 3.580006 1_555
I7 Sr2 3.586475 1_556
I7 Sr5 3.586481 1_555
