# generated using pymatgen
data_Si4Sn7PbSe16
_symmetry_space_group_name_H-M   'P 1'
_cell_length_a   7.39139840
_cell_length_b   8.72161486
_cell_length_c   13.67016826
_cell_angle_alpha   71.31802775
_cell_angle_beta   89.86004735
_cell_angle_gamma   90.33982658
_symmetry_Int_Tables_number   1
_chemical_formula_structural   Si4Sn7PbSe16
_chemical_formula_sum   'Si4 Sn7 Pb1 Se16'
_cell_volume   834.79108971
_cell_formula_units_Z   1
loop_
 _symmetry_equiv_pos_site_id
 _symmetry_equiv_pos_as_xyz
  1  'x, y, z'
loop_
 _atom_site_type_symbol
 _atom_site_label
 _atom_site_symmetry_multiplicity
 _atom_site_fract_x
 _atom_site_fract_y
 _atom_site_fract_z
 _atom_site_occupancy
  Si  Si0  1  0.75939951  0.20492215  0.34802969  1
  Si  Si1  1  0.26006617  0.79222829  0.15158277  1
  Si  Si2  1  0.24182755  0.79612512  0.64981435  1
  Si  Si3  1  0.74010558  0.20723487  0.84993363  1
  Sn  Sn0  1  0.63045178  0.56118459  0.13711523  1
  Sn  Sn1  1  0.12554689  0.44038042  0.36328969  1
  Sn  Sn2  1  0.37328838  0.44155530  0.86256588  1
  Sn  Sn3  1  0.87356328  0.55921067  0.63733520  1
  Sn  Sn4  1  0.63610510  0.05725491  0.12559933  1
  Sn  Sn5  1  0.13688076  0.94547449  0.37725463  1
  Sn  Sn6  1  0.36258218  0.94265250  0.87779187  1
  Pb  Pb0  1  0.85299284  0.05410596  0.62800823  1
  Se  Se0  1  0.77412638  0.93553363  0.43909642  1
  Se  Se1  1  0.27848636  0.06194783  0.05975334  1
  Se  Se2  1  0.22775077  0.06330481  0.55589107  1
  Se  Se3  1  0.72244627  0.93741482  0.93934835  1
  Se  Se4  1  0.50652606  0.27386119  0.73656758  1
  Se  Se5  1  0.00696677  0.72556282  0.76418813  1
  Se  Se6  1  0.49493003  0.72548990  0.26389796  1
  Se  Se7  1  0.99812707  0.27086347  0.23680564  1
  Se  Se8  1  0.50549984  0.74544080  0.74028413  1
  Se  Se9  1  0.00578966  0.26032160  0.76127231  1
  Se  Se10  1  0.49669075  0.25569421  0.25693927  1
  Se  Se11  1  0.99495711  0.73916661  0.24017618  1
  Se  Se12  1  0.71156705  0.36350784  0.95593265  1
  Se  Se13  1  0.21443412  0.63698306  0.54540889  1
  Se  Se14  1  0.28900116  0.63634949  0.04510045  1
  Se  Se15  1  0.77988958  0.36622865  0.45101711  1
loop_
_geom_bond_atom_site_label_1
_geom_bond_atom_site_label_2
_geom_bond_distance
_geom_bond_site_symmetry_2
Pb0 Se2 2.929934 1_655
Pb0 Se15 3.059539 1_555
Pb0 Se5 3.098903 1_645
Pb0 Se0 3.128806 1_545
Pb0 Se9 3.148639 1_655
Se0 Si0 2.282916 1_565
Se0 Sn5 2.801888 1_655
Se1 Si1 2.287289 1_545
Se1 Sn4 2.790744 1_555
Se1 Sn6 3.051947 1_544
Se2 Si2 2.275123 1_545
Se2 Sn5 3.012984 1_545
Se3 Si3 2.280746 1_565
Se3 Sn6 2.788010 1_555
Se3 Sn4 3.112402 1_566
Se4 Si3 2.273352 1_555
Se4 Sn2 2.774583 1_555
Se4 Sn6 3.095861 1_545
Se5 Si2 2.279137 1_555
Se5 Sn3 2.772641 1_455
Se6 Si1 2.272056 1_555
Se6 Sn0 2.767725 1_555
Se6 Sn4 3.079875 1_565
Se7 Si0 2.273932 1_555
Se7 Sn1 2.773375 1_655
Se7 Sn5 3.057024 1_645
Se8 Si2 2.279238 1_555
Se8 Sn2 2.810122 1_555
Se8 Sn6 3.113024 1_555
Se9 Si3 2.271092 1_455
Se9 Sn3 2.798208 1_455
Se10 Si0 2.277270 1_555
Se10 Sn0 2.815032 1_555
Se10 Sn4 3.046904 1_555
Se11 Si1 2.266989 1_655
Se11 Sn1 2.789803 1_655
Se11 Sn5 3.161764 1_655
Se12 Si3 2.295417 1_555
Se12 Sn2 2.797026 1_555
Se12 Sn4 2.971900 1_556
Se13 Si2 2.296005 1_555
Se13 Sn3 2.793814 1_455
Se13 Sn5 2.985669 1_555
Se14 Si1 2.298388 1_555
Se14 Sn0 2.808628 1_555
Se14 Sn6 2.953966 1_554
Se15 Si0 2.291638 1_555
Se15 Sn1 2.802229 1_655
