# generated using pymatgen
data_YHg3(Pt2O7)2
_symmetry_space_group_name_H-M   'P 1'
_cell_length_a   7.25647483
_cell_length_b   7.25647432
_cell_length_c   7.25647514
_cell_angle_alpha   59.49291414
_cell_angle_beta   59.49292125
_cell_angle_gamma   59.49291536
_symmetry_Int_Tables_number   1
_chemical_formula_structural   YHg3(Pt2O7)2
_chemical_formula_sum   'Y1 Hg3 Pt4 O14'
_cell_volume   267.06949020
_cell_formula_units_Z   1
loop_
 _symmetry_equiv_pos_site_id
 _symmetry_equiv_pos_as_xyz
  1  'x, y, z'
loop_
 _atom_site_type_symbol
 _atom_site_label
 _atom_site_symmetry_multiplicity
 _atom_site_fract_x
 _atom_site_fract_y
 _atom_site_fract_z
 _atom_site_occupancy
  Y  Y0  1  0.12500000  0.12500000  0.12500000  1
  Hg  Hg0  1  0.62500000  0.12500000  0.12500000  1
  Hg  Hg1  1  0.12500000  0.62500000  0.12500000  1
  Hg  Hg2  1  0.12500000  0.12500000  0.62500000  1
  Pt  Pt0  1  0.62500000  0.62500000  0.12500000  1
  Pt  Pt1  1  0.62500000  0.62500000  0.62500000  1
  Pt  Pt2  1  0.62500000  0.12500000  0.62500000  1
  Pt  Pt3  1  0.12500000  0.62500000  0.62500000  1
  O  O0  1  0.72338352  0.29276193  0.29276193  1
  O  O1  1  0.70395199  0.29431633  0.70395199  1
  O  O2  1  0.99576584  0.99576584  0.99576584  1
  O  O3  1  0.29276193  0.72338352  0.29276193  1
  O  O4  1  0.70395199  0.70395199  0.29431633  1
  O  O5  1  0.95568367  0.54604801  0.54604801  1
  O  O6  1  0.29431633  0.70395199  0.70395199  1
  O  O7  1  0.25423416  0.25423416  0.25423416  1
  O  O8  1  0.95723807  0.52661648  0.95723807  1
  O  O9  1  0.54604801  0.95568367  0.54604801  1
  O  O10  1  0.54604801  0.54604801  0.95568367  1
  O  O11  1  0.95723807  0.95723807  0.52661648  1
  O  O12  1  0.52661648  0.95723807  0.95723807  1
  O  O13  1  0.29276193  0.29276193  0.72338352  1
loop_
_geom_bond_atom_site_label_1
_geom_bond_atom_site_label_2
_geom_bond_distance
_geom_bond_site_symmetry_2
Hg0 O2 2.183350 1_544
Hg0 O7 2.183350 1_555
Hg0 O10 2.509775 1_554
Hg0 O4 2.509775 1_545
Hg0 O9 2.509775 1_545
Hg0 O1 2.509775 1_554
Hg0 O0 2.596729 1_555
Hg0 O12 2.596729 1_544
Hg1 O7 2.183350 1_555
Hg1 O2 2.183350 1_454
Hg1 O10 2.509775 1_554
Hg1 O4 2.509775 1_455
Hg1 O5 2.509775 1_455
Hg1 O6 2.509775 1_554
Hg1 O3 2.596729 1_555
Hg1 O8 2.596729 1_454
Hg2 O2 2.183350 1_445
Hg2 O7 2.183350 1_555
Hg2 O5 2.509775 1_455
Hg2 O6 2.509775 1_545
Hg2 O9 2.509775 1_545
Hg2 O1 2.509775 1_455
Hg2 O13 2.596729 1_555
Hg2 O11 2.596729 1_445
O0 Pt0 1.989747 1_555
O0 Pt2 1.989747 1_555
O0 Y0 2.399536 1_655
O1 Pt2 1.982068 1_555
O1 Pt1 1.989023 1_555
O2 Y0 2.305857 1_666
O3 Pt0 1.989747 1_555
O3 Pt3 1.989747 1_555
O3 Y0 2.399536 1_565
O4 Pt0 1.982068 1_555
O4 Pt1 1.989024 1_555
O5 Pt3 1.982068 1_655
O5 Pt1 1.989024 1_555
O6 Pt3 1.982068 1_555
O6 Pt1 1.989024 1_555
O7 Y0 2.305857 1_555
O8 Pt0 1.989747 1_556
O8 Pt3 1.989747 1_655
O8 Y0 2.399536 1_656
O9 Pt2 1.982068 1_565
O9 Pt1 1.989023 1_555
O10 Pt0 1.982068 1_556
O10 Pt1 1.989024 1_555
O11 Pt3 1.989747 1_655
O11 Pt2 1.989747 1_565
O11 Y0 2.399536 1_665
O12 Pt0 1.989747 1_556
O12 Pt2 1.989747 1_565
O12 Y0 2.399536 1_566
O13 Pt3 1.989747 1_555
O13 Pt2 1.989747 1_555
O13 Y0 2.399536 1_556
