# generated using pymatgen
data_Ti3Mn2Si3Ir
_symmetry_space_group_name_H-M   'P 1'
_cell_length_a   7.23856763
_cell_length_b   7.23856971
_cell_length_c   7.23856925
_cell_angle_alpha   127.84541915
_cell_angle_beta   120.39101244
_cell_angle_gamma   83.14069186
_symmetry_Int_Tables_number   1
_chemical_formula_structural   Ti3Mn2Si3Ir
_chemical_formula_sum   'Ti6 Mn4 Si6 Ir2'
_cell_volume   247.99111487
_cell_formula_units_Z   2
loop_
 _symmetry_equiv_pos_site_id
 _symmetry_equiv_pos_as_xyz
  1  'x, y, z'
loop_
 _atom_site_type_symbol
 _atom_site_label
 _atom_site_symmetry_multiplicity
 _atom_site_fract_x
 _atom_site_fract_y
 _atom_site_fract_z
 _atom_site_occupancy
  Ti  Ti0  1  0.74813717  0.08758044  0.83944427  1
  Ti  Ti1  1  0.47775234  0.96098905  0.98323571  1
  Ti  Ti2  1  0.52224766  0.50548337  0.48323571  1
  Ti  Ti3  1  0.95282697  0.90700815  0.45418118  1
  Ti  Ti4  1  0.25186283  0.09130610  0.33944427  1
  Ti  Ti5  1  0.04717303  0.50135521  0.95418118  1
  Mn  Mn0  1  0.91069335  0.25455640  0.40773636  1
  Mn  Mn1  1  0.65317896  0.49704201  0.90773636  1
  Mn  Mn2  1  0.34682104  0.25455640  0.84386505  1
  Mn  Mn3  1  0.08930665  0.49704201  0.34386505  1
  Si  Si0  1  0.27631386  0.52327907  0.74696521  1
  Si  Si1  1  0.16235911  0.17177772  0.99844407  1
  Si  Si2  1  0.67333265  0.17177772  0.50941861  1
  Si  Si3  1  0.32666735  0.83608397  0.49844407  1
  Si  Si4  1  0.72368614  0.47065234  0.24696521  1
  Si  Si5  1  0.83764089  0.83608397  0.00941861  1
  Ir  Ir0  1  0.50000000  0.74561054  0.24561054  1
  Ir  Ir1  1  0.00000000  0.74561054  0.74561054  1
loop_
_geom_bond_atom_site_label_1
_geom_bond_atom_site_label_2
_geom_bond_distance
_geom_bond_site_symmetry_2
Mn0 Si0 2.368740 1_655
Mn0 Si4 2.401573 1_555
Mn0 Si5 2.427244 1_545
Mn0 Si2 2.432993 1_555
Mn0 Ti3 2.699234 1_545
Mn0 Ti5 2.758655 1_655
Mn1 Si4 2.368728 1_556
Mn1 Si0 2.401562 1_555
Mn1 Si2 2.427238 1_555
Mn1 Si5 2.432991 1_556
Mn1 Ti5 2.699241 1_655
Mn1 Ti3 2.758659 1_556
Mn2 Si0 2.368750 1_555
Mn2 Si4 2.401559 1_556
Mn2 Si3 2.427248 1_545
Mn2 Si1 2.432980 1_555
Mn2 Ti3 2.699237 1_445
Mn2 Ti5 2.758660 1_555
Mn3 Si4 2.368735 1_455
Mn3 Si0 2.401550 1_555
Mn3 Si1 2.427245 1_554
Mn3 Si3 2.432999 1_555
Mn3 Ti5 2.699258 1_554
Mn3 Ti3 2.758665 1_455
Si0 Ti4 2.606916 1_555
Si0 Ti1 2.649713 1_555
Si0 Ti5 2.810401 1_555
Si0 Ti2 3.148354 1_555
Si1 Ti5 2.584913 1_555
Si1 Ti1 2.601615 1_545
Si1 Ti0 2.602014 1_455
Si1 Ti2 2.605359 1_556
Si1 Ti3 2.622610 1_445
Si1 Ti4 2.628291 1_556
Si2 Ti5 2.584911 1_655
Si2 Ti1 2.601621 1_544
Si2 Ti0 2.602017 1_555
Si2 Ti2 2.605357 1_555
Si2 Ti3 2.622615 1_545
Si2 Ti4 2.628278 1_555
Si3 Ti3 2.584913 1_455
Si3 Ti2 2.601609 1_555
Si3 Ti4 2.602013 1_565
Si3 Ti1 2.605355 1_555
Si3 Ti5 2.622610 1_554
Si3 Ti0 2.628279 1_565
Si4 Ti0 2.606917 1_554
Si4 Ti2 2.649709 1_555
Si4 Ti3 2.810398 1_555
Si4 Ti1 3.148355 1_544
Si5 Ti3 2.584902 1_555
Si5 Ti2 2.601617 1_554
Si5 Ti4 2.602013 1_665
Si5 Ti1 2.605363 1_554
Si5 Ti5 2.622599 1_654
Si5 Ti0 2.628285 1_564
Ir0 Si4 2.412721 1_555
Ir0 Si0 2.412727 1_554
Ir0 Si3 2.451312 1_555
Ir0 Si2 2.451315 1_565
Ir0 Mn1 2.704794 1_554
Ir0 Mn2 2.704799 1_554
Ir0 Ti4 2.832745 1_565
Ir0 Ti0 2.832750 1_565
Ir0 Ti5 2.851603 1_554
Ir0 Ti3 2.851605 1_555
Ir0 Ti2 3.054071 1_555
Ir0 Ti1 3.054077 1_554
Ir1 Si0 2.412726 1_555
Ir1 Si4 2.412727 1_455
Ir1 Si1 2.451317 1_565
Ir1 Si5 2.451318 1_456
Ir1 Mn3 2.704788 1_555
Ir1 Mn0 2.704800 1_455
Ir1 Ti0 2.832745 1_465
Ir1 Ti4 2.832750 1_566
Ir1 Ti5 2.851599 1_555
Ir1 Ti3 2.851606 1_455
Ir1 Ti2 3.054070 1_455
Ir1 Ti1 3.054072 1_555
