# generated using pymatgen
data_Ba3LiBi2H
_symmetry_space_group_name_H-M   'P 1'
_cell_length_a   5.04365447
_cell_length_b   13.70573738
_cell_length_c   13.95252479
_cell_angle_alpha   90.00000000
_cell_angle_beta   90.00000000
_cell_angle_gamma   90.00000000
_symmetry_Int_Tables_number   1
_chemical_formula_structural   Ba3LiBi2H
_chemical_formula_sum   'Ba12 Li4 Bi8 H4'
_cell_volume   964.49623127
_cell_formula_units_Z   4
loop_
 _symmetry_equiv_pos_site_id
 _symmetry_equiv_pos_as_xyz
  1  'x, y, z'
loop_
 _atom_site_type_symbol
 _atom_site_label
 _atom_site_symmetry_multiplicity
 _atom_site_fract_x
 _atom_site_fract_y
 _atom_site_fract_z
 _atom_site_occupancy
  Ba  Ba0  1  0.25000000  0.06202210  0.62299592  1
  Ba  Ba1  1  0.25000000  0.56202210  0.87700408  1
  Ba  Ba2  1  0.75000000  0.93797790  0.37700408  1
  Ba  Ba3  1  0.75000000  0.43797790  0.12299592  1
  Ba  Ba4  1  0.25000000  0.21094390  0.29285618  1
  Ba  Ba5  1  0.25000000  0.71094390  0.20714382  1
  Ba  Ba6  1  0.75000000  0.78905610  0.70714382  1
  Ba  Ba7  1  0.75000000  0.28905610  0.79285618  1
  Ba  Ba8  1  0.25000000  0.37019778  0.56184305  1
  Ba  Ba9  1  0.25000000  0.87019778  0.93815695  1
  Ba  Ba10  1  0.75000000  0.62980222  0.43815695  1
  Ba  Ba11  1  0.75000000  0.12980222  0.06184305  1
  Li  Li0  1  0.25000000  0.14199984  0.85141597  1
  Li  Li1  1  0.25000000  0.64199984  0.64858403  1
  Li  Li2  1  0.75000000  0.85800016  0.14858403  1
  Li  Li3  1  0.75000000  0.35800016  0.35141597  1
  Bi  Bi0  1  0.25000000  0.30872982  0.98763838  1
  Bi  Bi1  1  0.25000000  0.80872982  0.51236162  1
  Bi  Bi2  1  0.75000000  0.69127018  0.01236162  1
  Bi  Bi3  1  0.75000000  0.19127018  0.48763838  1
  Bi  Bi4  1  0.25000000  0.47400595  0.32220855  1
  Bi  Bi5  1  0.25000000  0.97400595  0.17779145  1
  Bi  Bi6  1  0.75000000  0.52599405  0.67779145  1
  Bi  Bi7  1  0.75000000  0.02599405  0.82220855  1
  H  H0  1  0.25000000  0.22817290  0.73252853  1
  H  H1  1  0.25000000  0.72817290  0.76747147  1
  H  H2  1  0.75000000  0.77182710  0.26747147  1
  H  H3  1  0.75000000  0.27182710  0.23252853  1
loop_
_geom_bond_atom_site_label_1
_geom_bond_atom_site_label_2
_geom_bond_distance
_geom_bond_site_symmetry_2
Ba0 H0 2.742498 1_555
Ba0 Bi3 3.614463 1_555
Ba0 Bi3 3.614463 1_455
Ba0 Bi7 3.785389 1_555
Ba0 Bi7 3.785389 1_455
Ba0 Bi1 3.799276 1_545
Ba1 H1 2.742498 1_555
Ba1 Bi2 3.614463 1_456
Ba1 Bi2 3.614463 1_556
Ba1 Bi6 3.785389 1_555
Ba1 Bi6 3.785389 1_455
Ba1 Bi0 3.799276 1_555
Ba2 H2 2.742498 1_555
Ba2 Bi1 3.614463 1_655
Ba2 Bi1 3.614463 1_555
Ba2 Bi5 3.785389 1_655
Ba2 Bi5 3.785389 1_555
Ba2 Bi3 3.799276 1_565
Ba3 H3 2.742498 1_555
Ba3 Bi0 3.614463 1_554
Ba3 Bi0 3.614463 1_654
Ba3 Bi4 3.785389 1_555
Ba3 Bi4 3.785389 1_655
Ba3 Bi2 3.799276 1_555
Ba4 H3 2.786470 1_455
Ba4 H3 2.786470 1_555
Ba4 Bi5 3.622584 1_545
Ba4 Bi4 3.628644 1_555
Ba4 Bi3 3.717288 1_555
Ba4 Bi3 3.717288 1_455
Ba5 H2 2.786470 1_555
Ba5 H2 2.786470 1_455
Ba5 Bi4 3.622584 1_555
Ba5 Bi5 3.628644 1_555
Ba5 Bi2 3.717288 1_455
Ba5 Bi2 3.717288 1_555
Ba6 H1 2.786470 1_555
Ba6 H1 2.786470 1_655
Ba6 Bi7 3.622584 1_565
Ba6 Bi6 3.628644 1_555
Ba6 Bi1 3.717288 1_555
Ba6 Bi1 3.717288 1_655
Ba7 H0 2.786470 1_555
Ba7 H0 2.786470 1_655
Ba7 Bi6 3.622584 1_555
Ba7 Bi7 3.628644 1_555
Ba7 Bi0 3.717288 1_555
Ba7 Bi0 3.717288 1_655
Ba8 H0 3.075807 1_555
Ba8 Bi4 3.633635 1_555
Ba8 Bi3 3.666810 1_455
Ba8 Bi3 3.666810 1_555
Ba8 Bi6 3.679174 1_555
Ba8 Bi6 3.679174 1_455
Ba9 H1 3.075807 1_555
Ba9 Bi5 3.633635 1_556
Ba9 Bi2 3.666810 1_456
Ba9 Bi2 3.666810 1_556
Ba9 Bi7 3.679174 1_565
Ba9 Bi7 3.679174 1_465
Ba10 H2 3.075807 1_555
Ba10 Bi6 3.633635 1_555
Ba10 Bi1 3.666810 1_655
Ba10 Bi1 3.666810 1_555
Ba10 Bi4 3.679174 1_555
Ba10 Bi4 3.679174 1_655
Ba11 H3 3.075807 1_555
Ba11 Bi7 3.633635 1_554
Ba11 Bi0 3.666810 1_554
Ba11 Bi0 3.666810 1_654
Ba11 Bi5 3.679174 1_645
Ba11 Bi5 3.679174 1_545
Bi0 Li0 2.972272 1_555
Bi1 Li1 2.972272 1_555
Bi2 Li2 2.972272 1_555
Bi3 Li3 2.972272 1_555
Bi4 Li3 3.008921 1_555
Bi4 Li3 3.008921 1_455
Bi5 Li2 3.008921 1_455
Bi5 Li2 3.008921 1_555
Bi6 Li1 3.008921 1_555
Bi6 Li1 3.008921 1_655
Bi7 Li0 3.008921 1_655
Bi7 Li0 3.008921 1_555
H0 Li0 2.036287 1_555
H1 Li1 2.036287 1_555
H2 Li2 2.036287 1_555
H3 Li3 2.036287 1_555
