# generated using pymatgen
data_Sr6Cr(RuO6)2
_symmetry_space_group_name_H-M   'P 1'
_cell_length_a   8.75075974
_cell_length_b   8.75075918
_cell_length_c   6.84797209
_cell_angle_alpha   67.47915024
_cell_angle_beta   67.47915075
_cell_angle_gamma   36.88174888
_symmetry_Int_Tables_number   1
_chemical_formula_structural   Sr6Cr(RuO6)2
_chemical_formula_sum   'Sr6 Cr1 Ru2 O12'
_cell_volume   287.92748796
_cell_formula_units_Z   1
loop_
 _symmetry_equiv_pos_site_id
 _symmetry_equiv_pos_as_xyz
  1  'x, y, z'
loop_
 _atom_site_type_symbol
 _atom_site_label
 _atom_site_symmetry_multiplicity
 _atom_site_fract_x
 _atom_site_fract_y
 _atom_site_fract_z
 _atom_site_occupancy
  Sr  Sr0  1  0.21028472  0.21028472  0.71272606  1
  Sr  Sr1  1  0.88542280  0.88542280  0.70956584  1
  Sr  Sr2  1  0.54775706  0.54775706  0.71468602  1
  Sr  Sr3  1  0.78971528  0.78971528  0.28727394  1
  Sr  Sr4  1  0.45224294  0.45224294  0.28531398  1
  Sr  Sr5  1  0.11457720  0.11457720  0.29043416  1
  Cr  Cr0  1  0.00000000  0.00000000  0.00000000  1
  Ru  Ru0  1  0.66641155  0.66641155  0.00037859  1
  Ru  Ru1  1  0.33358845  0.33358845  0.99962141  1
  O  O0  1  0.27998744  0.27998744  0.31819252  1
  O  O1  1  0.94622892  0.94622892  0.32130427  1
  O  O2  1  0.61420407  0.61420407  0.31750951  1
  O  O3  1  0.72001256  0.72001256  0.68180748  1
  O  O4  1  0.38579593  0.38579593  0.68249049  1
  O  O5  1  0.05377108  0.05377108  0.67869573  1
  O  O6  1  0.00000000  0.50000000  0.00000000  1
  O  O7  1  0.66383402  0.16843931  0.00040233  1
  O  O8  1  0.33616598  0.83156069  0.99959767  1
  O  O9  1  0.50000000  0.00000000  0.00000000  1
  O  O10  1  0.16843931  0.66383402  0.00040233  1
  O  O11  1  0.83156069  0.33616598  0.99959767  1
loop_
_geom_bond_atom_site_label_1
_geom_bond_atom_site_label_2
_geom_bond_distance
_geom_bond_site_symmetry_2
Cr0 O11 1.971454 1_454
Cr0 O10 1.971454 1_545
Cr0 O8 1.971454 1_544
Cr0 O7 1.971454 1_455
Cr0 O1 2.012974 1_445
Cr0 O5 2.012974 1_554
O0 Ru1 1.995867 1_554
O0 Sr0 2.472642 1_555
O0 Sr3 2.775902 1_455
O0 Sr3 2.775902 1_545
O0 Sr4 2.776674 1_555
O0 Sr5 2.828378 1_555
O1 Sr1 2.433297 1_555
O1 Sr3 2.701086 1_555
O1 Sr5 2.716598 1_665
O1 Sr4 2.777260 1_565
O1 Sr4 2.777260 1_655
O2 Ru0 1.986849 1_555
O2 Sr2 2.488313 1_555
O2 Sr5 2.774134 1_655
O2 Sr5 2.774134 1_565
O2 Sr4 2.785342 1_555
O2 Sr3 2.836716 1_555
O3 Ru0 1.995867 1_556
O3 Sr3 2.472642 1_555
O3 Sr0 2.775902 1_655
O3 Sr0 2.775902 1_565
O3 Sr2 2.776674 1_555
O3 Sr1 2.828378 1_555
O4 Ru1 1.986849 1_555
O4 Sr4 2.488313 1_555
O4 Sr1 2.774134 1_455
O4 Sr1 2.774134 1_545
O4 Sr2 2.785342 1_555
O4 Sr0 2.836716 1_555
O5 Sr5 2.433297 1_555
O5 Sr0 2.701086 1_555
O5 Sr1 2.716598 1_445
O5 Sr2 2.777260 1_545
O5 Sr2 2.777260 1_455
O6 Ru1 1.959256 1_554
O6 Ru0 1.959256 1_455
O6 Sr3 2.695903 1_455
O6 Sr0 2.695903 1_554
O6 Sr1 2.704727 1_454
O6 Sr5 2.704727 1_555
O7 Ru1 1.940301 1_554
O7 Sr3 2.624159 1_545
O7 Sr4 2.644038 1_555
O7 Sr1 2.645337 1_544
O7 Sr2 2.651689 1_554
O8 Ru0 1.940301 1_556
O8 Sr0 2.624159 1_565
O8 Sr2 2.644038 1_555
O8 Sr5 2.645337 1_566
O8 Sr4 2.651689 1_556
O9 Ru1 1.959256 1_554
O9 Ru0 1.959256 1_545
O9 Sr3 2.695903 1_545
O9 Sr0 2.695903 1_554
O9 Sr1 2.704727 1_544
O9 Sr5 2.704727 1_555
O10 Ru1 1.940301 1_554
O10 Sr3 2.624160 1_455
O10 Sr4 2.644038 1_555
O10 Sr1 2.645337 1_454
O10 Sr2 2.651689 1_554
O11 Ru0 1.940301 1_556
O11 Sr0 2.624160 1_655
O11 Sr2 2.644038 1_555
O11 Sr5 2.645337 1_656
O11 Sr4 2.651689 1_556
