# generated using pymatgen
data_Ba3AlSe4I
_symmetry_space_group_name_H-M   'P 1'
_cell_length_a   8.96055367
_cell_length_b   10.12096628
_cell_length_c   13.10891876
_cell_angle_alpha   90.00000000
_cell_angle_beta   90.00000000
_cell_angle_gamma   90.00000000
_symmetry_Int_Tables_number   1
_chemical_formula_structural   Ba3AlSe4I
_chemical_formula_sum   'Ba12 Al4 Se16 I4'
_cell_volume   1188.84078287
_cell_formula_units_Z   4
loop_
 _symmetry_equiv_pos_site_id
 _symmetry_equiv_pos_as_xyz
  1  'x, y, z'
loop_
 _atom_site_type_symbol
 _atom_site_label
 _atom_site_symmetry_multiplicity
 _atom_site_fract_x
 _atom_site_fract_y
 _atom_site_fract_z
 _atom_site_occupancy
  Ba  Ba0  1  0.41981359  0.75000000  0.47166396  1
  Ba  Ba1  1  0.08018641  0.75000000  0.97166396  1
  Ba  Ba2  1  0.58018641  0.25000000  0.52833604  1
  Ba  Ba3  1  0.91981359  0.25000000  0.02833604  1
  Ba  Ba4  1  0.91009807  0.52160500  0.34001309  1
  Ba  Ba5  1  0.58990193  0.97839500  0.84001309  1
  Ba  Ba6  1  0.08990193  0.02160500  0.65998691  1
  Ba  Ba7  1  0.41009807  0.47839500  0.15998691  1
  Ba  Ba8  1  0.08990193  0.47839500  0.65998691  1
  Ba  Ba9  1  0.41009807  0.02160500  0.15998691  1
  Ba  Ba10  1  0.91009807  0.97839500  0.34001309  1
  Ba  Ba11  1  0.58990193  0.52160500  0.84001309  1
  Al  Al0  1  0.68965405  0.75000000  0.10594365  1
  Al  Al1  1  0.81034595  0.75000000  0.60594365  1
  Al  Al2  1  0.31034595  0.25000000  0.89405635  1
  Al  Al3  1  0.18965405  0.25000000  0.39405635  1
  Se  Se0  1  0.81210588  0.55012904  0.06988736  1
  Se  Se1  1  0.68789412  0.94987096  0.56988736  1
  Se  Se2  1  0.18789412  0.05012904  0.93011264  1
  Se  Se3  1  0.31210588  0.44987096  0.43011264  1
  Se  Se4  1  0.18789412  0.44987096  0.93011264  1
  Se  Se5  1  0.31210588  0.05012904  0.43011264  1
  Se  Se6  1  0.81210588  0.94987096  0.06988736  1
  Se  Se7  1  0.68789412  0.55012904  0.56988736  1
  Se  Se8  1  0.64272502  0.75000000  0.28399915  1
  Se  Se9  1  0.85727498  0.75000000  0.78399915  1
  Se  Se10  1  0.35727498  0.25000000  0.71600085  1
  Se  Se11  1  0.14272502  0.25000000  0.21600085  1
  Se  Se12  1  0.46481258  0.75000000  0.00873063  1
  Se  Se13  1  0.03518742  0.75000000  0.50873063  1
  Se  Se14  1  0.53518742  0.25000000  0.99126937  1
  Se  Se15  1  0.96481258  0.25000000  0.49126937  1
  I  I0  1  0.16981544  0.75000000  0.23196322  1
  I  I1  1  0.33018456  0.75000000  0.73196322  1
  I  I2  1  0.83018456  0.25000000  0.76803678  1
  I  I3  1  0.66981544  0.25000000  0.26803678  1
loop_
_geom_bond_atom_site_label_1
_geom_bond_atom_site_label_2
_geom_bond_distance
_geom_bond_site_symmetry_2
Ba0 Se8 3.168857 1_555
Ba0 Se3 3.233440 1_555
Ba0 Se5 3.233440 1_565
Ba0 Se7 3.394159 1_555
Ba0 Se1 3.394159 1_555
Ba0 Se13 3.480548 1_555
Ba0 I1 3.505482 1_555
Ba0 I0 3.858974 1_555
Ba1 Se9 3.168857 1_455
Ba1 Se4 3.233440 1_555
Ba1 Se2 3.233440 1_565
Ba1 Se0 3.394159 1_456
Ba1 Se6 3.394159 1_456
Ba1 Se12 3.480548 1_556
Ba1 I0 3.505482 1_556
Ba1 I1 3.858974 1_555
Ba2 Se10 3.168857 1_555
Ba2 Se1 3.233440 1_545
Ba2 Se7 3.233440 1_555
Ba2 Se5 3.394159 1_555
Ba2 Se3 3.394159 1_555
Ba2 Se15 3.480548 1_555
Ba2 I3 3.505482 1_555
Ba2 I2 3.858974 1_555
Ba3 Se11 3.168857 1_655
Ba3 Se6 3.233440 1_545
Ba3 Se0 3.233440 1_555
Ba3 Se2 3.394159 1_654
Ba3 Se4 3.394159 1_654
Ba3 Se14 3.480548 1_554
Ba3 I2 3.505482 1_554
Ba3 I3 3.858974 1_555
Ba4 Se13 3.389894 1_655
Ba4 Se8 3.409175 1_555
Ba4 Se15 3.424670 1_555
Ba4 I0 3.572890 1_655
Ba4 I3 3.616963 1_555
Ba4 Se7 3.623300 1_555
Ba4 Se0 3.659702 1_555
Ba4 Se11 3.813695 1_655
Ba4 Se3 3.859800 1_655
Ba5 Se12 3.389894 1_556
Ba5 Se9 3.409175 1_555
Ba5 Se14 3.424670 1_565
Ba5 I1 3.572890 1_555
Ba5 I2 3.616963 1_565
Ba5 Se6 3.623300 1_556
Ba5 Se1 3.659702 1_555
Ba5 Se10 3.813695 1_565
Ba5 Se2 3.859800 1_565
Ba6 Se15 3.389894 1_455
Ba6 Se10 3.409175 1_555
Ba6 Se13 3.424670 1_545
Ba6 I2 3.572890 1_455
Ba6 I1 3.616963 1_545
Ba6 Se5 3.623300 1_555
Ba6 Se2 3.659702 1_555
Ba6 Se9 3.813695 1_445
Ba6 Se1 3.859800 1_445
Ba7 Se14 3.389894 1_554
Ba7 Se11 3.409175 1_555
Ba7 Se12 3.424670 1_555
Ba7 I3 3.572890 1_555
Ba7 I0 3.616963 1_555
Ba7 Se4 3.623300 1_554
Ba7 Se3 3.659702 1_555
Ba7 Se8 3.813695 1_555
Ba7 Se0 3.859800 1_555
Ba8 Se15 3.389894 1_455
Ba8 Se10 3.409175 1_555
Ba8 Se13 3.424670 1_555
Ba8 I2 3.572890 1_455
Ba8 I1 3.616963 1_555
Ba8 Se3 3.623300 1_555
Ba8 Se4 3.659702 1_555
Ba8 Se9 3.813695 1_455
Ba8 Se7 3.859800 1_455
Ba9 Se14 3.389894 1_554
Ba9 Se11 3.409175 1_555
Ba9 Se12 3.424670 1_545
Ba9 I3 3.572890 1_555
Ba9 I0 3.616963 1_545
Ba9 Se2 3.623300 1_554
Ba9 Se5 3.659702 1_555
Ba9 Se8 3.813695 1_545
Ba9 Se6 3.859800 1_545
Ba10 Se13 3.389894 1_655
Ba10 Se8 3.409175 1_555
Ba10 Se15 3.424670 1_565
Ba10 I0 3.572890 1_655
Ba10 I3 3.616963 1_565
Ba10 Se1 3.623300 1_555
Ba10 Se6 3.659702 1_555
Ba10 Se11 3.813695 1_665
Ba10 Se5 3.859800 1_665
Ba11 Se12 3.389894 1_556
Ba11 Se9 3.409175 1_555
Ba11 Se14 3.424670 1_555
Ba11 I1 3.572890 1_555
Ba11 I2 3.616963 1_555
Ba11 Se0 3.623300 1_556
Ba11 Se7 3.659702 1_555
Ba11 Se10 3.813695 1_555
Ba11 Se4 3.859800 1_555
Al0 Se0 2.349342 1_555
Al0 Se6 2.349342 1_555
Al0 Se8 2.371692 1_555
Al0 Se12 2.383909 1_555
Al1 Se7 2.349342 1_555
Al1 Se1 2.349342 1_555
Al1 Se9 2.371692 1_555
Al1 Se13 2.383909 1_655
Al2 Se2 2.349342 1_555
Al2 Se4 2.349342 1_555
Al2 Se10 2.371692 1_555
Al2 Se14 2.383909 1_555
Al3 Se5 2.349342 1_555
Al3 Se3 2.349342 1_555
Al3 Se11 2.371692 1_555
Al3 Se15 2.383909 1_455
