# generated using pymatgen
data_CsRb4AgBi2
_symmetry_space_group_name_H-M   'P 1'
_cell_length_a   10.83815358
_cell_length_b   10.83815451
_cell_length_c   10.83815277
_cell_angle_alpha   34.15918233
_cell_angle_beta   34.15917319
_cell_angle_gamma   34.15917955
_symmetry_Int_Tables_number   1
_chemical_formula_structural   CsRb4AgBi2
_chemical_formula_sum   'Cs1 Rb4 Ag1 Bi2'
_cell_volume   357.87584527
_cell_formula_units_Z   1
loop_
 _symmetry_equiv_pos_site_id
 _symmetry_equiv_pos_as_xyz
  1  'x, y, z'
loop_
 _atom_site_type_symbol
 _atom_site_label
 _atom_site_symmetry_multiplicity
 _atom_site_fract_x
 _atom_site_fract_y
 _atom_site_fract_z
 _atom_site_occupancy
  Cs  Cs0  1  0.50000000  0.50000000  0.50000000  1
  Rb  Rb0  1  0.21781088  0.21781088  0.21781088  1
  Rb  Rb1  1  0.36577142  0.36577142  0.36577142  1
  Rb  Rb2  1  0.63422858  0.63422858  0.63422858  1
  Rb  Rb3  1  0.78218912  0.78218912  0.78218912  1
  Ag  Ag0  1  0.00000000  0.00000000  0.00000000  1
  Bi  Bi0  1  0.08997826  0.08997826  0.08997826  1
  Bi  Bi1  1  0.91002174  0.91002174  0.91002174  1
loop_
_geom_bond_atom_site_label_1
_geom_bond_atom_site_label_2
_geom_bond_distance
_geom_bond_site_symmetry_2
Cs0 Rb0 3.994661 1_556
Cs0 Rb3 3.994661 1_554
Cs0 Rb0 3.994661 1_655
Cs0 Rb3 3.994661 1_455
Cs0 Rb0 3.994662 1_565
Cs0 Rb3 3.994662 1_545
Cs0 Rb2 4.105727 1_555
Cs0 Rb1 4.105727 1_555
Ag0 Bi0 2.752217 1_555
Ag0 Bi1 2.752217 1_444
Ag0 Rb1 3.807165 1_455
Ag0 Rb2 3.807165 1_544
Ag0 Rb1 3.807165 1_554
Ag0 Rb2 3.807165 1_445
Ag0 Rb1 3.807166 1_545
Ag0 Rb2 3.807166 1_454
Bi0 Rb3 3.757728 1_445
Bi0 Rb3 3.757728 1_544
Bi0 Rb3 3.757730 1_454
Bi0 Rb0 3.910090 1_555
Bi0 Rb1 4.075253 1_554
Bi0 Rb1 4.075253 1_455
Bi0 Rb1 4.075255 1_545
Bi0 Cs0 4.360322 1_455
Bi0 Cs0 4.360322 1_545
Bi0 Cs0 4.360322 1_554
Bi1 Rb0 3.757728 1_665
Bi1 Rb0 3.757728 1_566
Bi1 Rb0 3.757730 1_656
Bi1 Rb3 3.910090 1_555
Bi1 Rb2 4.075253 1_556
Bi1 Rb2 4.075253 1_655
Bi1 Rb2 4.075255 1_565
Bi1 Cs0 4.360322 1_655
Bi1 Cs0 4.360322 1_565
Bi1 Cs0 4.360322 1_556
