# generated using pymatgen
data_Y(NbCl3)6
_symmetry_space_group_name_H-M   'P 1'
_cell_length_a   10.12290709
_cell_length_b   10.12285945
_cell_length_c   10.12286461
_cell_angle_alpha   55.51559896
_cell_angle_beta   55.51509041
_cell_angle_gamma   55.51538945
_symmetry_Int_Tables_number   1
_chemical_formula_structural   Y(NbCl3)6
_chemical_formula_sum   'Y1 Nb6 Cl18'
_cell_volume   657.12426290
_cell_formula_units_Z   1
loop_
 _symmetry_equiv_pos_site_id
 _symmetry_equiv_pos_as_xyz
  1  'x, y, z'
loop_
 _atom_site_type_symbol
 _atom_site_label
 _atom_site_symmetry_multiplicity
 _atom_site_fract_x
 _atom_site_fract_y
 _atom_site_fract_z
 _atom_site_occupancy
  Y  Y0  1  0.00000000  0.00000000  0.00000000  1
  Nb  Nb0  1  0.40904855  0.29693676  0.65199643  1
  Nb  Nb1  1  0.34800257  0.59095145  0.70306424  1
  Nb  Nb2  1  0.70306324  0.34800357  0.59095145  1
  Nb  Nb3  1  0.29693676  0.65199643  0.40904855  1
  Nb  Nb4  1  0.65199743  0.40904855  0.29693576  1
  Nb  Nb5  1  0.59095145  0.70306324  0.34800357  1
  Cl  Cl0  1  0.57157275  0.15905324  0.44096743  1
  Cl  Cl1  1  0.22091788  0.36762354  0.91299294  1
  Cl  Cl2  1  0.91299294  0.22091788  0.36762454  1
  Cl  Cl3  1  0.36762354  0.91299295  0.22091788  1
  Cl  Cl4  1  0.77908212  0.63237646  0.08700706  1
  Cl  Cl5  1  0.08700706  0.77908212  0.63237546  1
  Cl  Cl6  1  0.69981268  0.96383563  0.15743202  1
  Cl  Cl7  1  0.96383562  0.15743302  0.69981268  1
  Cl  Cl8  1  0.15743203  0.69981367  0.96383662  1
  Cl  Cl9  1  0.30018732  0.03616437  0.84256798  1
  Cl  Cl10  1  0.03616438  0.84256698  0.30018732  1
  Cl  Cl11  1  0.84256797  0.30018633  0.03616338  1
  Cl  Cl12  1  0.55903257  0.42842725  0.84094576  1
  Cl  Cl13  1  0.15905324  0.44096843  0.57157175  1
  Cl  Cl14  1  0.44096743  0.57157275  0.15905424  1
  Cl  Cl15  1  0.42842725  0.84094676  0.55903257  1
  Cl  Cl16  1  0.84094676  0.55903157  0.42842825  1
  Cl  Cl17  1  0.63237646  0.08700705  0.77908212  1
loop_
_geom_bond_atom_site_label_1
_geom_bond_atom_site_label_2
_geom_bond_distance
_geom_bond_site_symmetry_2
Cl0 Nb4 2.450229 1_555
Cl0 Nb0 2.452466 1_555
Cl1 Nb0 2.453409 1_555
Cl1 Nb1 2.457491 1_555
Cl2 Nb4 2.453435 1_555
Cl2 Nb2 2.457475 1_555
Cl3 Nb3 2.453424 1_555
Cl3 Nb5 2.457509 1_555
Cl4 Nb5 2.453409 1_555
Cl4 Nb4 2.457491 1_555
Cl5 Nb1 2.453435 1_555
Cl5 Nb3 2.457475 1_555
Cl6 Y0 2.650115 1_665
Cl6 Nb5 2.650382 1_555
Cl7 Y0 2.650118 1_656
Cl7 Nb2 2.650396 1_555
Cl8 Y0 2.650093 1_566
Cl8 Nb1 2.650373 1_555
Cl9 Y0 2.650115 1_556
Cl9 Nb0 2.650382 1_555
Cl10 Y0 2.650118 1_565
Cl10 Nb3 2.650396 1_555
Cl11 Y0 2.650093 1_655
Cl11 Nb4 2.650373 1_555
Cl12 Nb2 2.450202 1_555
Cl12 Nb1 2.452487 1_555
Cl13 Nb0 2.450240 1_555
Cl13 Nb3 2.452474 1_555
Cl14 Nb3 2.450202 1_555
Cl14 Nb4 2.452487 1_555
Cl15 Nb1 2.450229 1_555
Cl15 Nb5 2.452466 1_555
Cl16 Nb5 2.450240 1_555
Cl16 Nb2 2.452474 1_555
Cl17 Nb2 2.453424 1_555
Cl17 Nb0 2.457509 1_555
