# generated using pymatgen
data_Na6CaBr8
_symmetry_space_group_name_H-M   'P 1'
_cell_length_a   8.41167413
_cell_length_b   8.41167453
_cell_length_c   8.41167469
_cell_angle_alpha   60.00000308
_cell_angle_beta   60.00000150
_cell_angle_gamma   60.00000258
_symmetry_Int_Tables_number   1
_chemical_formula_structural   Na6CaBr8
_chemical_formula_sum   'Na6 Ca1 Br8'
_cell_volume   420.85490644
_cell_formula_units_Z   1
loop_
 _symmetry_equiv_pos_site_id
 _symmetry_equiv_pos_as_xyz
  1  'x, y, z'
loop_
 _atom_site_type_symbol
 _atom_site_label
 _atom_site_symmetry_multiplicity
 _atom_site_fract_x
 _atom_site_fract_y
 _atom_site_fract_z
 _atom_site_occupancy
  Na  Na0  1  0.00000000  0.50000000  0.00000000  1
  Na  Na1  1  0.50000000  0.00000000  0.00000000  1
  Na  Na2  1  0.00000000  0.50000000  0.50000000  1
  Na  Na3  1  0.50000000  0.00000000  0.50000000  1
  Na  Na4  1  0.00000000  0.00000000  0.50000000  1
  Na  Na5  1  0.50000000  0.50000000  0.00000000  1
  Ca  Ca0  1  0.00000000  0.00000000  0.00000000  1
  Br  Br0  1  0.25000000  0.25000000  0.25000000  1
  Br  Br1  1  0.75000000  0.75000000  0.75000000  1
  Br  Br2  1  0.24328305  0.75671695  0.24328305  1
  Br  Br3  1  0.24328305  0.75671695  0.75671695  1
  Br  Br4  1  0.75671695  0.24328305  0.24328305  1
  Br  Br5  1  0.75671695  0.75671695  0.24328305  1
  Br  Br6  1  0.24328305  0.24328305  0.75671695  1
  Br  Br7  1  0.75671695  0.24328305  0.75671695  1
loop_
_geom_bond_atom_site_label_1
_geom_bond_atom_site_label_2
_geom_bond_distance
_geom_bond_site_symmetry_2
Br0 Na5 2.973976 1_555
Br0 Na4 2.973976 1_555
Br0 Na3 2.973976 1_555
Br0 Na0 2.973976 1_555
Br0 Na1 2.973976 1_555
Br0 Na2 2.973976 1_555
Br1 Na5 2.973976 1_556
Br1 Na4 2.973976 1_665
Br1 Na3 2.973976 1_565
Br1 Na0 2.973976 1_656
Br1 Na1 2.973976 1_566
Br1 Na2 2.973976 1_655
Br2 Ca0 2.894072 1_565
Br2 Na1 2.975049 1_565
Br2 Na2 2.975049 1_555
Br2 Na5 2.975049 1_555
Br2 Na4 2.975049 1_565
Br3 Ca0 2.894072 1_566
Br3 Na0 2.975049 1_556
Br3 Na3 2.975049 1_565
Br3 Na5 2.975049 1_556
Br3 Na4 2.975049 1_565
Br4 Ca0 2.894072 1_655
Br4 Na0 2.975049 1_655
Br4 Na3 2.975049 1_555
Br4 Na5 2.975049 1_555
Br4 Na4 2.975049 1_655
Br5 Ca0 2.894072 1_665
Br5 Na1 2.975049 1_565
Br5 Na0 2.975049 1_655
Br5 Na3 2.975049 1_565
Br5 Na2 2.975049 1_655
Br6 Ca0 2.894072 1_556
Br6 Na1 2.975049 1_556
Br6 Na0 2.975049 1_556
Br6 Na3 2.975049 1_555
Br6 Na2 2.975049 1_555
Br7 Ca0 2.894072 1_656
Br7 Na1 2.975049 1_556
Br7 Na2 2.975049 1_655
Br7 Na5 2.975049 1_556
Br7 Na4 2.975049 1_655
