# generated using pymatgen
data_Zr2Si4TcOs2
_symmetry_space_group_name_H-M   'P 1'
_cell_length_a   9.93805882
_cell_length_b   9.93805935
_cell_length_c   13.36918974
_cell_angle_alpha   54.13982157
_cell_angle_beta   54.13981998
_cell_angle_gamma   31.15780559
_symmetry_Int_Tables_number   1
_chemical_formula_structural   Zr2Si4TcOs2
_chemical_formula_sum   'Zr8 Si16 Tc4 Os8'
_cell_volume   542.31866049
_cell_formula_units_Z   4
loop_
 _symmetry_equiv_pos_site_id
 _symmetry_equiv_pos_as_xyz
  1  'x, y, z'
loop_
 _atom_site_type_symbol
 _atom_site_label
 _atom_site_symmetry_multiplicity
 _atom_site_fract_x
 _atom_site_fract_y
 _atom_site_fract_z
 _atom_site_occupancy
  Zr  Zr0  1  0.03309727  0.30015161  0.63619497  1
  Zr  Zr1  1  0.69984839  0.96690273  0.86380503  1
  Zr  Zr2  1  0.96690273  0.69984839  0.36380503  1
  Zr  Zr3  1  0.30015161  0.03309727  0.13619497  1
  Zr  Zr4  1  0.28954689  0.56176408  0.64731795  1
  Zr  Zr5  1  0.43823592  0.71045311  0.85268205  1
  Zr  Zr6  1  0.71045311  0.43823592  0.35268205  1
  Zr  Zr7  1  0.56176408  0.28954689  0.14731795  1
  Si  Si0  1  0.96979132  0.25595115  0.89544519  1
  Si  Si1  1  0.74404885  0.03020868  0.60455481  1
  Si  Si2  1  0.03020868  0.74404885  0.10455481  1
  Si  Si3  1  0.25595115  0.96979132  0.39544519  1
  Si  Si4  1  0.13988060  0.38846764  0.89832601  1
  Si  Si5  1  0.61153236  0.86011940  0.60167399  1
  Si  Si6  1  0.86011940  0.61153236  0.10167399  1
  Si  Si7  1  0.38846764  0.13988060  0.39832601  1
  Si  Si8  1  0.08236013  0.57283065  0.56655309  1
  Si  Si9  1  0.42716935  0.91763987  0.93344691  1
  Si  Si10  1  0.91763987  0.42716935  0.43344691  1
  Si  Si11  1  0.57283065  0.08236013  0.06655309  1
  Si  Si12  1  0.61048473  0.38951527  0.75000000  1
  Si  Si13  1  0.38951527  0.61048473  0.25000000  1
  Si  Si14  1  0.11363989  0.88636011  0.75000000  1
  Si  Si15  1  0.88636011  0.11363989  0.25000000  1
  Tc  Tc0  1  0.88719448  0.15522166  0.58246124  1
  Tc  Tc1  1  0.84477834  0.11280552  0.91753876  1
  Tc  Tc2  1  0.11280552  0.84477834  0.41753876  1
  Tc  Tc3  1  0.15522166  0.88719448  0.08246124  1
  Os  Os0  1  0.82780227  0.64775893  0.78278668  1
  Os  Os1  1  0.35224107  0.17219773  0.71721332  1
  Os  Os2  1  0.17219773  0.35224107  0.21721332  1
  Os  Os3  1  0.64775893  0.82780227  0.28278668  1
  Os  Os4  1  0.23543183  0.52125413  0.92875145  1
  Os  Os5  1  0.47874587  0.76456817  0.57124855  1
  Os  Os6  1  0.76456817  0.47874587  0.07124855  1
  Os  Os7  1  0.52125413  0.23543183  0.42875145  1
loop_
_geom_bond_atom_site_label_1
_geom_bond_atom_site_label_2
_geom_bond_distance
_geom_bond_site_symmetry_2
Si0 Tc1 2.399412 1_555
Si0 Tc3 2.486372 1_646
Si0 Si9 2.602266 1_645
Si0 Zr5 2.882752 1_555
Si0 Zr5 2.950856 1_645
Si0 Zr0 2.955690 1_655
Si0 Zr7 3.300850 1_556
Si1 Tc0 2.399412 1_555
Si1 Tc2 2.486372 1_645
Si1 Si8 2.602266 1_645
Si1 Zr4 2.882752 1_555
Si1 Zr4 2.950856 1_645
Si1 Zr1 2.955690 1_545
Si1 Zr6 3.300850 1_555
Si2 Tc3 2.399412 1_555
Si2 Tc1 2.486372 1_464
Si2 Zr7 2.882752 1_555
Si2 Zr7 2.950856 1_465
Si2 Zr2 2.955690 1_455
Si2 Zr5 3.300850 1_554
Si3 Tc2 2.399412 1_555
Si3 Tc0 2.486372 1_465
Si3 Zr6 2.882752 1_555
Si3 Zr6 2.950856 1_465
Si3 Zr3 2.955690 1_565
Si3 Zr4 3.300850 1_555
Si4 Si9 2.529500 1_545
Si4 Zr1 2.843879 1_545
Si4 Zr4 2.864370 1_555
Si4 Zr3 2.875984 1_556
Si4 Zr1 2.934939 1_455
Si5 Si8 2.529500 1_655
Si5 Zr0 2.843880 1_655
Si5 Zr5 2.864370 1_555
Si5 Zr2 2.875983 1_555
Si5 Zr0 2.934939 1_565
Si6 Zr3 2.843879 1_565
Si6 Zr6 2.864370 1_555
Si6 Zr1 2.875984 1_554
Si6 Zr3 2.934939 1_655
Si7 Zr2 2.843880 1_455
Si7 Zr7 2.864370 1_555
Si7 Zr0 2.875983 1_555
Si7 Zr2 2.934939 1_545
Si8 Tc2 2.397861 1_555
Si8 Zr0 2.688983 1_555
Si8 Zr2 2.722765 1_455
Si8 Zr4 2.737830 1_555
Si9 Tc3 2.397860 1_556
Si9 Zr1 2.688983 1_555
Si9 Zr3 2.722765 1_566
Si9 Zr5 2.737830 1_555
Si10 Tc0 2.397861 1_555
Si10 Si7 2.529500 1_655
Si10 Si3 2.602266 1_645
Si10 Zr2 2.688983 1_555
Si10 Zr0 2.722765 1_655
Si10 Zr6 2.737830 1_555
Si11 Tc1 2.397860 1_554
Si11 Si6 2.529500 1_545
Si11 Si2 2.602266 1_645
Si11 Zr3 2.688983 1_555
Si11 Zr1 2.722765 1_544
Si11 Zr7 2.737830 1_555
Si12 Tc0 2.436346 1_555
Si12 Tc1 2.436346 1_555
Si12 Si14 2.652174 1_555
Si12 Si14 2.685859 1_645
Si12 Zr4 2.831947 1_555
Si12 Zr5 2.831947 1_555
Si12 Zr0 2.907866 1_655
Si12 Zr1 2.907866 1_545
Si13 Tc2 2.436346 1_555
Si13 Tc3 2.436346 1_555
Si13 Si15 2.652174 1_555
Si13 Si15 2.685859 1_465
Si13 Zr6 2.831947 1_555
Si13 Zr7 2.831947 1_555
Si13 Zr2 2.907866 1_455
Si13 Zr3 2.907866 1_565
Si14 Tc1 2.413143 1_465
Si14 Tc0 2.413143 1_465
Si14 Zr5 2.841076 1_555
Si14 Zr4 2.841076 1_555
Si14 Zr1 2.886038 1_455
Si14 Zr0 2.886038 1_565
Si15 Tc3 2.413143 1_645
Si15 Tc2 2.413143 1_645
Si15 Zr7 2.841076 1_555
Si15 Zr6 2.841076 1_555
Si15 Zr3 2.886038 1_655
Si15 Zr2 2.886038 1_545
Tc0 Zr6 2.859450 1_555
Tc0 Zr4 3.038646 1_645
Tc0 Zr4 3.058228 1_555
Tc1 Zr7 2.859450 1_556
Tc1 Zr5 3.038646 1_645
Tc1 Zr5 3.058229 1_555
Tc2 Zr4 2.859450 1_555
Tc2 Zr6 3.038646 1_465
Tc2 Zr6 3.058228 1_555
Tc3 Zr5 2.859450 1_554
Tc3 Zr7 3.038646 1_465
Tc3 Zr7 3.058229 1_555
Os0 Si0 2.374131 1_555
Os0 Si9 2.399993 1_555
Os0 Si4 2.432358 1_655
Os0 Si8 2.457861 1_655
Os0 Si1 2.667413 1_565
Os0 Si5 2.698748 1_555
Os0 Zr1 2.891067 1_555
Os0 Zr5 2.926644 1_555
Os0 Zr4 3.229898 1_655
Os1 Si1 2.374131 1_555
Os1 Si8 2.399993 1_555
Os1 Si5 2.432358 1_545
Os1 Si9 2.457861 1_545
Os1 Si0 2.667413 1_455
Os1 Si4 2.698748 1_555
Os1 Zr0 2.891067 1_555
Os1 Zr4 2.926644 1_555
Os1 Zr5 3.229898 1_545
Os2 Si2 2.374131 1_555
Os2 Si11 2.399993 1_555
Os2 Si6 2.432358 1_455
Os2 Si10 2.457861 1_455
Os2 Si3 2.667413 1_545
Os2 Si7 2.698748 1_555
Os2 Zr3 2.891067 1_555
Os2 Zr7 2.926644 1_555
Os2 Zr6 3.229898 1_455
Os3 Si3 2.374131 1_555
Os3 Si10 2.399993 1_555
Os3 Si7 2.432358 1_565
Os3 Si11 2.457861 1_565
Os3 Si2 2.667413 1_655
Os3 Si6 2.698748 1_555
Os3 Zr2 2.891067 1_555
Os3 Zr6 2.926644 1_555
Os3 Zr7 3.229898 1_565
Os4 Si4 2.456582 1_555
Os4 Si14 2.460643 1_555
Os4 Si12 2.489093 1_555
Os4 Si11 2.540440 1_556
Os4 Si6 2.581004 1_456
Os4 Si2 2.708940 1_556
Os4 Zr1 3.043539 1_455
Os4 Zr5 3.236652 1_555
Os4 Zr4 3.291364 1_555
Os5 Si5 2.456582 1_555
Os5 Si14 2.460643 1_555
Os5 Si12 2.489094 1_555
Os5 Si10 2.540440 1_555
Os5 Si7 2.581004 1_565
Os5 Si3 2.708940 1_555
Os5 Zr0 3.043539 1_565
Os5 Zr4 3.236652 1_555
Os5 Zr5 3.291364 1_555
Os6 Si6 2.456582 1_555
Os6 Si15 2.460643 1_555
Os6 Si13 2.489093 1_555
Os6 Si9 2.540440 1_554
Os6 Si4 2.581004 1_654
Os6 Si0 2.708940 1_554
Os6 Zr3 3.043539 1_655
Os6 Zr7 3.236652 1_555
Os6 Zr6 3.291364 1_555
Os7 Si7 2.456582 1_555
Os7 Si15 2.460643 1_555
Os7 Si13 2.489094 1_555
Os7 Si8 2.540440 1_555
Os7 Si5 2.581004 1_545
Os7 Si1 2.708940 1_555
Os7 Zr2 3.043539 1_545
Os7 Zr6 3.236652 1_555
Os7 Zr7 3.291364 1_555
