# generated using pymatgen
data_MnNb9(B2As)2
_symmetry_space_group_name_H-M   'P 1'
_cell_length_a   7.32432741
_cell_length_b   7.32432852
_cell_length_c   7.32432825
_cell_angle_alpha   129.89927569
_cell_angle_beta   129.89927769
_cell_angle_gamma   73.56783661
_symmetry_Int_Tables_number   1
_chemical_formula_structural   MnNb9(B2As)2
_chemical_formula_sum   'Mn1 Nb9 B4 As2'
_cell_volume   225.66971026
_cell_formula_units_Z   1
loop_
 _symmetry_equiv_pos_site_id
 _symmetry_equiv_pos_as_xyz
  1  'x, y, z'
loop_
 _atom_site_type_symbol
 _atom_site_label
 _atom_site_symmetry_multiplicity
 _atom_site_fract_x
 _atom_site_fract_y
 _atom_site_fract_z
 _atom_site_occupancy
  Mn  Mn0  1  0.50000000  0.50000000  0.00000000  1
  Nb  Nb0  1  0.00000000  0.00000000  0.00000000  1
  Nb  Nb1  1  0.80029292  0.31031447  0.83820939  1
  Nb  Nb2  1  0.19970708  0.68968553  0.16179061  1
  Nb  Nb3  1  0.47210508  0.96208353  0.16179061  1
  Nb  Nb4  1  0.31031447  0.47210508  0.51002155  1
  Nb  Nb5  1  0.03791647  0.19970708  0.51002155  1
  Nb  Nb6  1  0.52789492  0.03791647  0.83820939  1
  Nb  Nb7  1  0.68968553  0.52789492  0.48997845  1
  Nb  Nb8  1  0.96208353  0.80029292  0.48997845  1
  B  B0  1  0.11611569  0.61204168  0.72815537  1
  B  B1  1  0.88388431  0.38795832  0.27184463  1
  B  B2  1  0.61204168  0.88388431  0.49592599  1
  B  B3  1  0.38795832  0.11611569  0.50407401  1
  As  As0  1  0.24419866  0.24419866  0.00000000  1
  As  As1  1  0.75580134  0.75580134  0.00000000  1
loop_
_geom_bond_atom_site_label_1
_geom_bond_atom_site_label_2
_geom_bond_distance
_geom_bond_site_symmetry_2
B0 B1 2.001606 1_455
B0 Nb4 2.369821 1_555
B0 Nb5 2.369837 1_555
B0 Nb8 2.428578 1_455
B0 Nb7 2.428593 1_455
B0 Mn0 2.480370 1_556
B0 Nb3 2.484132 1_556
B0 Nb2 2.484147 1_556
B0 Nb0 2.511766 1_566
B1 Nb7 2.369821 1_555
B1 Nb8 2.369837 1_555
B1 Nb5 2.428578 1_655
B1 Nb4 2.428593 1_655
B1 Mn0 2.480370 1_555
B1 Nb6 2.484132 1_554
B1 Nb1 2.484147 1_554
B1 Nb0 2.511766 1_655
B2 B3 2.001624 1_565
B2 Nb2 2.369832 1_555
B2 Nb3 2.369833 1_555
B2 Nb6 2.428589 1_565
B2 Nb1 2.428589 1_565
B2 Mn0 2.480366 1_555
B2 Nb8 2.484133 1_555
B2 Nb7 2.484133 1_555
B2 Nb0 2.511761 1_666
B3 Nb1 2.369832 1_555
B3 Nb6 2.369833 1_555
B3 Nb3 2.428589 1_545
B3 Nb2 2.428589 1_545
B3 Mn0 2.480366 1_556
B3 Nb5 2.484133 1_555
B3 Nb4 2.484133 1_555
B3 Nb0 2.511761 1_555
As0 Nb6 2.662783 1_554
As0 Nb7 2.662783 1_555
As0 Nb5 2.662783 1_554
As0 Nb2 2.662783 1_555
As0 Nb1 2.666919 1_454
As0 Nb3 2.666920 1_545
As0 Nb4 2.666920 1_555
As0 Nb8 2.666920 1_444
As0 Nb0 2.864963 1_555
As0 Mn0 3.001087 1_555
As1 Nb3 2.662783 1_555
As1 Nb4 2.662783 1_554
As1 Nb8 2.662783 1_555
As1 Nb1 2.662783 1_554
As1 Nb2 2.666919 1_655
As1 Nb6 2.666920 1_564
As1 Nb7 2.666920 1_554
As1 Nb5 2.666920 1_665
As1 Nb0 2.864963 1_665
As1 Mn0 3.001087 1_555
