# generated using pymatgen
data_Ba6Sc(FeO6)2
_symmetry_space_group_name_H-M   'P 1'
_cell_length_a   9.01522920
_cell_length_b   9.01522928
_cell_length_c   7.23769657
_cell_angle_alpha   68.01206741
_cell_angle_beta   68.01206671
_cell_angle_gamma   36.90995351
_symmetry_Int_Tables_number   1
_chemical_formula_structural   Ba6Sc(FeO6)2
_chemical_formula_sum   'Ba6 Sc1 Fe2 O12'
_cell_volume   324.58867951
_cell_formula_units_Z   1
loop_
 _symmetry_equiv_pos_site_id
 _symmetry_equiv_pos_as_xyz
  1  'x, y, z'
loop_
 _atom_site_type_symbol
 _atom_site_label
 _atom_site_symmetry_multiplicity
 _atom_site_fract_x
 _atom_site_fract_y
 _atom_site_fract_z
 _atom_site_occupancy
  Ba  Ba0  1  0.88034884  0.88034884  0.71550376  1
  Ba  Ba1  1  0.21465723  0.21465723  0.71641098  1
  Ba  Ba2  1  0.54803513  0.54803513  0.71111909  1
  Ba  Ba3  1  0.45196487  0.45196487  0.28888091  1
  Ba  Ba4  1  0.78534277  0.78534277  0.28358902  1
  Ba  Ba5  1  0.11965116  0.11965116  0.28449624  1
  Sc  Sc0  1  0.00000000  0.00000000  0.00000000  1
  Fe  Fe0  1  0.66627753  0.66627753  0.99960084  1
  Fe  Fe1  1  0.33372247  0.33372247  0.00039916  1
  O  O0  1  0.94549685  0.94549685  0.31607921  1
  O  O1  1  0.28515227  0.28515227  0.28338251  1
  O  O2  1  0.62112648  0.62112648  0.28191419  1
  O  O3  1  0.37887352  0.37887352  0.71808581  1
  O  O4  1  0.71484773  0.71484773  0.71661749  1
  O  O5  1  0.05450315  0.05450315  0.68392079  1
  O  O6  1  0.50000000  0.00000000  0.00000000  1
  O  O7  1  0.82498424  0.35099365  0.99933537  1
  O  O8  1  0.17501576  0.64900635  0.00066463  1
  O  O9  1  0.00000000  0.50000000  0.00000000  1
  O  O10  1  0.35099365  0.82498424  0.99933537  1
  O  O11  1  0.64900635  0.17501576  0.00066463  1
loop_
_geom_bond_atom_site_label_1
_geom_bond_atom_site_label_2
_geom_bond_distance
_geom_bond_site_symmetry_2
Ba0 O0 2.656323 1_555
Ba0 O6 2.760852 1_566
Ba0 O9 2.760852 1_656
Ba0 O11 2.772856 1_566
Ba0 O8 2.772856 1_656
Ba0 O4 2.827427 1_555
Ba0 O3 2.853963 1_565
Ba0 O3 2.853963 1_655
Ba0 O5 2.895996 1_665
Ba1 O9 2.755691 1_556
Ba1 O6 2.755691 1_556
Ba1 O7 2.763692 1_455
Ba1 O10 2.763692 1_545
Ba1 O3 2.813431 1_555
Ba1 O5 2.840195 1_555
Ba1 O4 2.853858 1_545
Ba1 O4 2.853858 1_455
Ba1 O1 2.879826 1_555
Ba2 O10 2.788104 1_555
Ba2 O7 2.788104 1_555
Ba2 O8 2.790185 1_556
Ba2 O11 2.790185 1_556
Ba2 O2 2.854329 1_555
Ba2 O5 2.859771 1_655
Ba2 O5 2.859771 1_565
Ba2 O4 2.868970 1_555
Ba2 O3 2.873676 1_555
Ba3 O11 2.788104 1_555
Ba3 O8 2.788104 1_555
Ba3 O7 2.790185 1_554
Ba3 O10 2.790185 1_554
Ba3 O3 2.854329 1_555
Ba3 O0 2.859771 1_455
Ba3 O0 2.859771 1_545
Ba3 O1 2.868970 1_555
Ba3 O2 2.873676 1_555
Ba4 O9 2.755691 1_655
Ba4 O6 2.755691 1_565
Ba4 O8 2.763692 1_655
Ba4 O11 2.763692 1_565
Ba4 O2 2.813431 1_555
Ba4 O0 2.840195 1_555
Ba4 O1 2.853858 1_565
Ba4 O1 2.853858 1_655
Ba4 O4 2.879826 1_555
Ba5 O5 2.656323 1_555
Ba5 O6 2.760852 1_555
Ba5 O9 2.760852 1_555
Ba5 O10 2.772856 1_544
Ba5 O7 2.772856 1_454
Ba5 O1 2.827427 1_555
Ba5 O2 2.853963 1_545
Ba5 O2 2.853963 1_455
Ba5 O0 2.895996 1_445
Fe0 O2 1.877707 1_556
Fe0 O4 1.881982 1_555
Fe0 O10 1.903868 1_555
Fe0 O7 1.903868 1_555
Fe0 O9 2.022325 1_656
Fe0 O6 2.022325 1_566
Fe1 O3 1.877707 1_554
Fe1 O1 1.881982 1_555
Fe1 O11 1.903868 1_555
Fe1 O8 1.903868 1_555
Fe1 O9 2.022325 1_555
Fe1 O6 2.022325 1_555
O0 Sc0 2.102141 1_665
O5 Sc0 2.102141 1_556
O7 Sc0 2.124259 1_656
O8 Sc0 2.124259 1_565
O10 Sc0 2.124259 1_566
O11 Sc0 2.124259 1_655
