# generated using pymatgen
data_Lu10BiPd4Rh
_symmetry_space_group_name_H-M   'P 1'
_cell_length_a   8.67768409
_cell_length_b   8.67768394
_cell_length_c   8.67768349
_cell_angle_alpha   129.95415911
_cell_angle_beta   129.95416348
_cell_angle_gamma   73.48005859
_symmetry_Int_Tables_number   1
_chemical_formula_structural   Lu10BiPd4Rh
_chemical_formula_sum   'Lu10 Bi1 Pd4 Rh1'
_cell_volume   374.74792528
_cell_formula_units_Z   1
loop_
 _symmetry_equiv_pos_site_id
 _symmetry_equiv_pos_as_xyz
  1  'x, y, z'
loop_
 _atom_site_type_symbol
 _atom_site_label
 _atom_site_symmetry_multiplicity
 _atom_site_fract_x
 _atom_site_fract_y
 _atom_site_fract_z
 _atom_site_occupancy
  Lu  Lu0  1  0.98094341  0.98094341  0.00000000  1
  Lu  Lu1  1  0.51905659  0.51905659  1.00000000  1
  Lu  Lu2  1  0.82810064  0.28521947  0.82564461  1
  Lu  Lu3  1  0.21478053  0.67189936  0.17435539  1
  Lu  Lu4  1  0.45957685  0.00245703  0.17435539  1
  Lu  Lu5  1  0.28521947  0.45957685  0.45711983  1
  Lu  Lu6  1  0.04042315  0.21478053  0.54288017  1
  Lu  Lu7  1  0.49754297  0.04042315  0.82564461  1
  Lu  Lu8  1  0.67189936  0.49754297  0.45711983  1
  Lu  Lu9  1  0.00245703  0.82810064  0.54288017  1
  Bi  Bi0  1  0.75000000  0.75000000  0.00000000  1
  Pd  Pd0  1  0.13699572  0.63699572  0.77399245  1
  Pd  Pd1  1  0.86300428  0.36300428  0.22600755  1
  Pd  Pd2  1  0.63699572  0.86300428  0.50000000  1
  Pd  Pd3  1  0.36300428  0.13699572  0.50000000  1
  Rh  Rh0  1  0.25000000  0.25000000  0.00000000  1
loop_
_geom_bond_atom_site_label_1
_geom_bond_atom_site_label_2
_geom_bond_distance
_geom_bond_site_symmetry_2
Lu0 Pd0 2.860566 1_654
Lu0 Pd1 2.860568 1_565
Lu0 Pd2 2.860569 1_554
Lu0 Pd3 2.860569 1_665
Lu1 Pd1 2.860566 1_556
Lu1 Pd0 2.860567 1_555
Lu1 Pd2 2.860569 1_556
Lu1 Pd3 2.860569 1_555
Lu2 Pd2 2.880705 1_545
Lu2 Pd1 2.893174 1_556
Lu2 Rh0 2.937604 1_656
Lu2 Pd3 3.092698 1_555
Lu3 Pd2 2.880705 1_555
Lu3 Pd0 2.893174 1_554
Lu3 Rh0 2.937604 1_555
Lu3 Pd3 3.092698 1_565
Lu4 Pd3 2.880722 1_555
Lu4 Pd0 2.893197 1_544
Lu4 Rh0 2.937598 1_555
Lu4 Pd2 3.092708 1_545
Lu5 Pd1 2.880703 1_455
Lu5 Pd3 2.893194 1_555
Lu5 Rh0 2.937608 1_555
Lu5 Pd0 3.092701 1_555
Lu6 Pd0 2.880703 1_555
Lu6 Pd3 2.893194 1_555
Lu6 Rh0 2.937608 1_556
Lu6 Pd1 3.092701 1_455
Lu7 Pd3 2.880721 1_555
Lu7 Pd1 2.893197 1_556
Lu7 Rh0 2.937598 1_556
Lu7 Pd2 3.092708 1_545
Lu8 Pd1 2.880721 1_555
Lu8 Pd2 2.893195 1_555
Lu8 Rh0 2.937603 1_555
Lu8 Pd0 3.092699 1_655
Lu9 Pd0 2.880721 1_555
Lu9 Pd2 2.893195 1_455
Lu9 Rh0 2.937603 1_566
Lu9 Pd1 3.092699 1_455
Bi0 Lu0 3.211929 1_555
Bi0 Lu1 3.211929 1_554
Bi0 Lu7 3.307612 1_564
Bi0 Lu4 3.307612 1_565
Bi0 Lu9 3.307616 1_655
Bi0 Lu8 3.307616 1_554
Bi0 Lu5 3.307621 1_554
Bi0 Lu6 3.307621 1_665
Bi0 Lu3 3.307626 1_655
Bi0 Lu2 3.307626 1_554
Pd0 Pd1 2.844513 1_455
Pd2 Pd3 2.844503 1_565
