# generated using pymatgen
data_Na4Sr2HfAs4
_symmetry_space_group_name_H-M   'P 1'
_cell_length_a   9.71950257
_cell_length_b   9.71950267
_cell_length_c   7.64279636
_cell_angle_alpha   89.71019739
_cell_angle_beta   89.71019243
_cell_angle_gamma   120.48280090
_symmetry_Int_Tables_number   1
_chemical_formula_structural   Na4Sr2HfAs4
_chemical_formula_sum   'Na8 Sr4 Hf2 As8'
_cell_volume   622.17846308
_cell_formula_units_Z   2
loop_
 _symmetry_equiv_pos_site_id
 _symmetry_equiv_pos_as_xyz
  1  'x, y, z'
loop_
 _atom_site_type_symbol
 _atom_site_label
 _atom_site_symmetry_multiplicity
 _atom_site_fract_x
 _atom_site_fract_y
 _atom_site_fract_z
 _atom_site_occupancy
  Na  Na0  1  0.46843032  0.93136472  0.38188759  1
  Na  Na1  1  0.93136472  0.46843032  0.88188759  1
  Na  Na2  1  0.86899977  0.73164336  0.20374934  1
  Na  Na3  1  0.27813072  0.13005068  0.23560340  1
  Na  Na4  1  0.85513540  0.13345401  0.22380471  1
  Na  Na5  1  0.13005068  0.27813072  0.73560340  1
  Na  Na6  1  0.73164336  0.86899977  0.70374934  1
  Na  Na7  1  0.13345401  0.85513540  0.72380471  1
  Sr  Sr0  1  0.05805461  0.53334631  0.38806972  1
  Sr  Sr1  1  0.47729058  0.53554731  0.38432237  1
  Sr  Sr2  1  0.53334631  0.05805461  0.88806972  1
  Sr  Sr3  1  0.53554731  0.47729058  0.88432237  1
  Hf  Hf0  1  0.66235430  0.32672224  0.49527248  1
  Hf  Hf1  1  0.32672224  0.66235430  0.99527248  1
  As  As0  1  0.19218188  0.37500959  0.11462735  1
  As  As1  1  0.62326961  0.81019767  0.09274601  1
  As  As2  1  0.19226518  0.81385399  0.10274042  1
  As  As3  1  0.81019767  0.62326961  0.59274601  1
  As  As4  1  0.37500959  0.19218188  0.61462735  1
  As  As5  1  0.81385399  0.19226518  0.60274042  1
  As  As6  1  0.66536336  0.33734941  0.15947761  1
  As  As7  1  0.33734941  0.66536336  0.65947761  1
loop_
_geom_bond_atom_site_label_1
_geom_bond_atom_site_label_2
_geom_bond_distance
_geom_bond_site_symmetry_2
As0 Hf1 2.568849 1_554
As0 Na4 3.014869 1_455
As0 Na5 3.018471 1_554
As0 Na3 3.037229 1_555
As0 Sr1 3.172675 1_555
As0 Sr0 3.236643 1_555
As0 Sr3 3.432373 1_554
As1 Hf1 2.599607 1_554
As1 Na4 2.970614 1_565
As1 Na2 2.978433 1_555
As1 Na6 3.100868 1_554
As1 Sr1 3.189095 1_555
As1 Na0 3.213431 1_555
As1 Sr3 3.316778 1_554
As1 Sr2 3.335614 1_564
As2 Hf1 2.550392 1_554
As2 Na2 2.920370 1_455
As2 Na3 2.934380 1_565
As2 Na7 3.018771 1_554
As2 Na0 3.167530 1_555
As2 Sr0 3.192677 1_555
As2 Sr2 3.352320 1_564
As2 Na1 3.466169 1_454
As3 Hf0 2.599607 1_555
As3 Na7 2.970614 1_655
As3 Na6 2.978433 1_555
As3 Na2 3.100868 1_555
As3 Sr3 3.189095 1_555
As3 Na1 3.213431 1_555
As3 Sr1 3.316778 1_555
As3 Sr0 3.335614 1_655
As4 Hf0 2.568849 1_555
As4 Na7 3.014869 1_545
As4 Na3 3.018471 1_555
As4 Na5 3.037229 1_555
As4 Sr3 3.172675 1_555
As4 Sr2 3.236643 1_555
As4 Sr1 3.432373 1_555
As5 Hf0 2.550392 1_555
As5 Na6 2.920370 1_545
As5 Na5 2.934380 1_655
As5 Na4 3.018771 1_555
As5 Na1 3.167530 1_555
As5 Sr2 3.192677 1_555
As5 Sr0 3.352320 1_655
As5 Na0 3.466169 1_545
As6 Hf0 2.567389 1_555
As6 Na1 3.063302 1_554
As6 Sr3 3.098956 1_554
As6 Sr2 3.141381 1_554
As6 Na3 3.291793 1_555
As6 Na2 3.323109 1_555
As6 Na4 3.358438 1_555
As7 Hf1 2.567389 1_555
As7 Na0 3.063302 1_555
As7 Sr1 3.098956 1_555
As7 Sr0 3.141381 1_555
As7 Na5 3.291793 1_555
As7 Na6 3.323109 1_555
As7 Na7 3.358438 1_555
