# generated using pymatgen
data_CsScMnF6
_symmetry_space_group_name_H-M   'P 1'
_cell_length_a   7.65311129
_cell_length_b   7.65311163
_cell_length_c   7.65311129
_cell_angle_alpha   120.81005280
_cell_angle_beta   119.35255858
_cell_angle_gamma   89.86387896
_symmetry_Int_Tables_number   1
_chemical_formula_structural   CsScMnF6
_chemical_formula_sum   'Cs2 Sc2 Mn2 F12'
_cell_volume   316.50140026
_cell_formula_units_Z   2
loop_
 _symmetry_equiv_pos_site_id
 _symmetry_equiv_pos_as_xyz
  1  'x, y, z'
loop_
 _atom_site_type_symbol
 _atom_site_label
 _atom_site_symmetry_multiplicity
 _atom_site_fract_x
 _atom_site_fract_y
 _atom_site_fract_z
 _atom_site_occupancy
  Cs  Cs0  1  0.36067866  0.11067866  0.25000000  1
  Cs  Cs1  1  0.63932134  0.88932134  0.75000000  1
  Sc  Sc0  1  0.00000000  0.50000000  0.50000000  1
  Sc  Sc1  1  0.50000000  0.50000000  0.00000000  1
  Mn  Mn0  1  0.00000000  0.50000000  0.00000000  1
  Mn  Mn1  1  0.00000000  0.00000000  0.50000000  1
  F  F0  1  0.31039758  0.56039758  0.75000000  1
  F  F1  1  0.92396675  0.17396675  0.75000000  1
  F  F2  1  0.32811583  0.18553789  0.75986455  1
  F  F3  1  0.92567134  0.56825029  0.74013545  1
  F  F4  1  0.32811583  0.56825029  0.14257795  1
  F  F5  1  0.92567134  0.18553789  0.35742205  1
  F  F6  1  0.68960242  0.43960242  0.25000000  1
  F  F7  1  0.07603325  0.82603325  0.25000000  1
  F  F8  1  0.67188417  0.81446211  0.24013545  1
  F  F9  1  0.07432866  0.43174971  0.25986455  1
  F  F10  1  0.67188417  0.43174971  0.85742205  1
  F  F11  1  0.07432866  0.81446211  0.64257795  1
loop_
_geom_bond_atom_site_label_1
_geom_bond_atom_site_label_2
_geom_bond_distance
_geom_bond_site_symmetry_2
Cs0 F7 3.084413 1_545
Cs0 F9 3.285211 1_555
Cs0 F8 3.285215 1_545
Cs0 F10 3.285215 1_555
Cs0 F11 3.285216 1_544
Cs0 F6 3.564212 1_555
Cs1 F1 3.084413 1_565
Cs1 F3 3.285211 1_555
Cs1 F2 3.285215 1_565
Cs1 F4 3.285215 1_555
Cs1 F5 3.285216 1_566
Cs1 F0 3.564212 1_555
F0 Sc0 2.039813 1_555
F0 Sc1 2.039813 1_556
F1 Mn1 2.061592 1_655
F1 Mn0 2.061592 1_656
F2 Sc1 2.003484 1_556
F2 Mn1 2.122565 1_555
F3 Sc0 2.003497 1_655
F3 Mn0 2.122557 1_656
F4 Sc1 2.003484 1_555
F4 Mn0 2.122565 1_555
F5 Sc0 2.003485 1_655
F5 Mn1 2.122565 1_655
F6 Sc0 2.039813 1_655
F6 Sc1 2.039813 1_555
F7 Mn1 2.061592 1_565
F7 Mn0 2.061592 1_555
F8 Sc1 2.003484 1_555
F8 Mn1 2.122565 1_665
F9 Sc0 2.003497 1_555
F9 Mn0 2.122557 1_555
F10 Sc1 2.003484 1_556
F10 Mn0 2.122565 1_656
F11 Sc0 2.003485 1_555
F11 Mn1 2.122565 1_565
