# generated using pymatgen
data_YTiNb5Sn6
_symmetry_space_group_name_H-M   'P 1'
_cell_length_a   5.77683012
_cell_length_b   5.77552991
_cell_length_c   9.63208411
_cell_angle_alpha   90.00000000
_cell_angle_beta   90.00000000
_cell_angle_gamma   119.99255222
_symmetry_Int_Tables_number   1
_chemical_formula_structural   YTiNb5Sn6
_chemical_formula_sum   'Y1 Ti1 Nb5 Sn6'
_cell_volume   278.33314087
_cell_formula_units_Z   1
loop_
 _symmetry_equiv_pos_site_id
 _symmetry_equiv_pos_as_xyz
  1  'x, y, z'
loop_
 _atom_site_type_symbol
 _atom_site_label
 _atom_site_symmetry_multiplicity
 _atom_site_fract_x
 _atom_site_fract_y
 _atom_site_fract_z
 _atom_site_occupancy
  Y  Y0  1  0.00000000  0.00000000  0.99884290  1
  Ti  Ti0  1  0.00000000  0.50000000  0.24913678  1
  Nb  Nb0  1  0.50000000  0.00000000  0.75083638  1
  Nb  Nb1  1  0.50000000  0.00000000  0.24998801  1
  Nb  Nb2  1  0.50000000  0.50000000  0.24998801  1
  Nb  Nb3  1  0.50000000  0.50000000  0.75083638  1
  Nb  Nb4  1  0.00000000  0.50000000  0.75019958  1
  Sn  Sn0  1  0.33086051  0.66543075  0.49952803  1
  Sn  Sn1  1  0.66913949  0.33456925  0.49952803  1
  Sn  Sn2  1  0.33080757  0.66540428  0.00151444  1
  Sn  Sn3  1  0.66919243  0.33459572  0.00151444  1
  Sn  Sn4  1  0.00000000  0.00000000  0.32143634  1
  Sn  Sn5  1  0.00000000  0.00000000  0.67665170  1
loop_
_geom_bond_atom_site_label_1
_geom_bond_atom_site_label_2
_geom_bond_distance
_geom_bond_site_symmetry_2
Nb0 Sn3 2.937930 1_556
Nb0 Sn2 2.937930 1_546
Nb0 Sn0 2.942846 1_545
Nb0 Sn1 2.942846 1_555
Nb0 Sn5 2.975488 1_555
Nb0 Sn5 2.975488 1_655
Nb1 Nb2 2.887765 1_545
Nb1 Nb2 2.887765 1_555
Nb1 Ti0 2.888427 1_545
Nb1 Ti0 2.888427 1_655
Nb1 Sn3 2.920504 1_555
Nb1 Sn2 2.920504 1_545
Nb1 Sn0 2.928852 1_545
Nb1 Sn1 2.928852 1_555
Nb1 Sn4 2.969269 1_655
Nb1 Sn4 2.969269 1_555
Nb2 Ti0 2.888427 1_655
Nb2 Ti0 2.888427 1_555
Nb2 Sn2 2.920507 1_555
Nb2 Sn3 2.920507 1_555
Nb2 Sn1 2.928854 1_555
Nb2 Sn0 2.928854 1_555
Nb2 Sn4 2.969269 1_665
Nb2 Sn4 2.969269 1_555
Nb3 Sn2 2.937933 1_556
Nb3 Sn3 2.937933 1_556
Nb3 Sn1 2.942849 1_555
Nb3 Sn0 2.942849 1_555
Nb3 Sn5 2.975488 1_665
Nb3 Sn5 2.975488 1_555
Nb4 Sn0 2.927464 1_555
Nb4 Sn1 2.927464 1_455
Nb4 Sn2 2.932427 1_556
Nb4 Sn3 2.932427 1_456
Nb4 Sn5 2.973389 1_565
Nb4 Sn5 2.973389 1_555
Sn0 Ti0 2.925237 1_555
Sn1 Ti0 2.925237 1_655
Sn2 Ti0 2.903136 1_555
Sn2 Y0 3.328549 1_564
Sn2 Y0 3.328554 1_554
Sn2 Y0 3.348241 1_664
Sn3 Ti0 2.903136 1_655
Sn3 Y0 3.328549 1_654
Sn3 Y0 3.328554 1_664
Sn3 Y0 3.348241 1_554
Sn4 Ti0 2.970548 1_545
Sn4 Ti0 2.970548 1_555
Sn4 Y0 3.107247 1_554
Sn5 Y0 3.103373 1_555
