# generated using pymatgen
data_BiSb2O6F
_symmetry_space_group_name_H-M   'P 1'
_cell_length_a   7.31658576
_cell_length_b   7.31658642
_cell_length_c   7.31658564
_cell_angle_alpha   120.07212924
_cell_angle_beta   119.44200841
_cell_angle_gamma   90.42215265
_symmetry_Int_Tables_number   1
_chemical_formula_structural   BiSb2O6F
_chemical_formula_sum   'Bi2 Sb4 O12 F2'
_cell_volume   277.95414030
_cell_formula_units_Z   2
loop_
 _symmetry_equiv_pos_site_id
 _symmetry_equiv_pos_as_xyz
  1  'x, y, z'
loop_
 _atom_site_type_symbol
 _atom_site_label
 _atom_site_symmetry_multiplicity
 _atom_site_fract_x
 _atom_site_fract_y
 _atom_site_fract_z
 _atom_site_occupancy
  Bi  Bi0  1  0.50000000  0.50000000  0.00000000  1
  Bi  Bi1  1  0.00000000  0.50000000  0.50000000  1
  Sb  Sb0  1  0.00000000  0.00000000  0.00000000  1
  Sb  Sb1  1  0.50000000  0.00000000  0.50000000  1
  Sb  Sb2  1  0.50000000  0.00000000  0.00000000  1
  Sb  Sb3  1  0.50000000  0.50000000  0.50000000  1
  O  O0  1  0.18648973  0.93648973  0.25000000  1
  O  O1  1  0.57522361  0.32522361  0.25000000  1
  O  O2  1  0.17901849  0.91404631  0.85171070  1
  O  O3  1  0.56233761  0.32730779  0.64828930  1
  O  O4  1  0.56233761  0.91404631  0.23502882  1
  O  O5  1  0.17901849  0.32730779  0.26497118  1
  O  O6  1  0.81351027  0.06351027  0.75000000  1
  O  O7  1  0.42477639  0.67477639  0.75000000  1
  O  O8  1  0.82098151  0.08595369  0.14828930  1
  O  O9  1  0.43766239  0.67269221  0.35171070  1
  O  O10  1  0.43766239  0.08595369  0.76497118  1
  O  O11  1  0.82098151  0.67269221  0.73502882  1
  F  F0  1  0.87179693  0.62179693  0.25000000  1
  F  F1  1  0.12820307  0.37820307  0.75000000  1
loop_
_geom_bond_atom_site_label_1
_geom_bond_atom_site_label_2
_geom_bond_distance
_geom_bond_site_symmetry_2
Bi0 F0 2.231350 1_555
Bi0 F1 2.231350 1_554
Bi0 O4 2.515994 1_555
Bi0 O10 2.515994 1_554
Bi0 O3 2.516006 1_554
Bi0 O9 2.516006 1_555
Bi0 O7 2.578520 1_554
Bi0 O1 2.578520 1_555
Bi1 F0 2.231350 1_455
Bi1 F1 2.231350 1_555
Bi1 O2 2.515996 1_555
Bi1 O8 2.515996 1_455
Bi1 O11 2.516002 1_455
Bi1 O5 2.516002 1_555
Bi1 O7 2.578519 1_555
Bi1 O1 2.578519 1_455
O0 Sb1 1.957305 1_565
O0 Sb0 1.957305 1_565
O1 Sb3 1.984907 1_555
O1 Sb2 1.984907 1_555
O2 Sb2 1.969148 1_566
O2 Sb0 2.003406 1_566
O3 Sb3 1.969148 1_555
O3 Sb1 2.003406 1_555
O4 Sb2 1.969152 1_565
O4 Sb1 2.003410 1_565
O5 Sb3 1.969148 1_555
O5 Sb0 2.003406 1_555
O6 Sb1 1.957305 1_555
O6 Sb0 1.957305 1_656
O7 Sb3 1.984907 1_555
O7 Sb2 1.984907 1_566
O8 Sb2 1.969148 1_555
O8 Sb0 2.003406 1_655
O9 Sb3 1.969148 1_555
O9 Sb1 2.003406 1_565
O10 Sb2 1.969152 1_556
O10 Sb1 2.003410 1_555
O11 Sb3 1.969148 1_555
O11 Sb0 2.003406 1_666
