# generated using pymatgen
data_Be2Al2OsRu2
_symmetry_space_group_name_H-M   'P 1'
_cell_length_a   8.82943390
_cell_length_b   8.82943321
_cell_length_c   3.04361584
_cell_angle_alpha   90.00000000
_cell_angle_beta   90.00000000
_cell_angle_gamma   159.86155860
_symmetry_Int_Tables_number   1
_chemical_formula_structural   Be2Al2OsRu2
_chemical_formula_sum   'Be2 Al2 Os1 Ru2'
_cell_volume   81.69200028
_cell_formula_units_Z   1
loop_
 _symmetry_equiv_pos_site_id
 _symmetry_equiv_pos_as_xyz
  1  'x, y, z'
loop_
 _atom_site_type_symbol
 _atom_site_label
 _atom_site_symmetry_multiplicity
 _atom_site_fract_x
 _atom_site_fract_y
 _atom_site_fract_z
 _atom_site_occupancy
  Be  Be0  1  0.28506458  0.71493542  0.50000000  1
  Be  Be1  1  0.71496628  0.28503372  0.50000000  1
  Al  Al0  1  0.42087269  0.57912731  0.50000000  1
  Al  Al1  1  0.57897163  0.42102837  0.50000000  1
  Os  Os0  1  0.17406240  0.82593760  0.00000000  1
  Ru  Ru0  1  0.99998959  0.00001041  0.00000000  1
  Ru  Ru1  1  0.82607283  0.17392717  0.00000000  1
loop_
_geom_bond_atom_site_label_1
_geom_bond_atom_site_label_2
_geom_bond_distance
_geom_bond_site_symmetry_2
Be0 Be1 1.966855 1_565
Be0 Be1 1.966855 1_455
Be0 Ru1 2.281960 1_456
Be0 Ru1 2.281960 1_455
Be0 Ru1 2.281961 1_566
Be0 Ru1 2.281961 1_565
Be0 Os0 2.457789 1_556
Be0 Os0 2.457789 1_555
Be1 Os0 2.281394 1_656
Be1 Os0 2.281394 1_655
Be1 Os0 2.281394 1_546
Be1 Os0 2.281394 1_545
Be1 Ru1 2.459214 1_555
Be1 Ru1 2.459214 1_556
Al0 Be0 2.361278 1_555
Al0 Ru0 2.567339 1_456
Al0 Ru0 2.567339 1_455
Al0 Ru0 2.567339 1_565
Al0 Ru0 2.567339 1_566
Al0 Ru1 2.723191 1_566
Al0 Ru1 2.723191 1_565
Al0 Ru1 2.723192 1_455
Al0 Ru1 2.723192 1_456
Al1 Be1 2.364522 1_555
Al1 Ru0 2.566083 1_566
Al1 Ru0 2.566083 1_565
Al1 Ru0 2.566084 1_455
Al1 Ru0 2.566084 1_456
Al1 Os0 2.726256 1_546
Al1 Os0 2.726256 1_545
Al1 Os0 2.726256 1_656
Al1 Os0 2.726256 1_655
