# generated using pymatgen
data_Sr6Fe2NiO12
_symmetry_space_group_name_H-M   'P 1'
_cell_length_a   8.53959322
_cell_length_b   8.53959341
_cell_length_c   6.75412886
_cell_angle_alpha   67.71821004
_cell_angle_beta   67.71821040
_cell_angle_gamma   36.87886086
_symmetry_Int_Tables_number   1
_chemical_formula_structural   Sr6Fe2NiO12
_chemical_formula_sum   'Sr6 Fe2 Ni1 O12'
_cell_volume   270.95105157
_cell_formula_units_Z   1
loop_
 _symmetry_equiv_pos_site_id
 _symmetry_equiv_pos_as_xyz
  1  'x, y, z'
loop_
 _atom_site_type_symbol
 _atom_site_label
 _atom_site_symmetry_multiplicity
 _atom_site_fract_x
 _atom_site_fract_y
 _atom_site_fract_z
 _atom_site_occupancy
  Sr  Sr0  1  0.21210127  0.21210127  0.71535685  1
  Sr  Sr1  1  0.88271600  0.88271600  0.71394504  1
  Sr  Sr2  1  0.54754121  0.54754121  0.71608492  1
  Sr  Sr3  1  0.78789873  0.78789873  0.28464315  1
  Sr  Sr4  1  0.45245879  0.45245879  0.28391508  1
  Sr  Sr5  1  0.11728400  0.11728400  0.28605496  1
  Fe  Fe0  1  0.66573501  0.66573501  0.00040682  1
  Fe  Fe1  1  0.33426499  0.33426499  0.99959318  1
  Ni  Ni0  1  0.00000000  0.00000000  0.00000000  1
  O  O0  1  0.28096382  0.28096382  0.30857031  1
  O  O1  1  0.94734434  0.94734434  0.31453021  1
  O  O2  1  0.61646788  0.61646788  0.30859183  1
  O  O3  1  0.71903618  0.71903618  0.69142969  1
  O  O4  1  0.38353212  0.38353212  0.69140817  1
  O  O5  1  0.05265566  0.05265566  0.68546979  1
  O  O6  1  0.00000000  0.50000000  0.00000000  1
  O  O7  1  0.66170915  0.16905630  0.99981475  1
  O  O8  1  0.33829085  0.83094370  0.00018525  1
  O  O9  1  0.50000000  0.00000000  0.00000000  1
  O  O10  1  0.16905630  0.66170915  0.99981475  1
  O  O11  1  0.83094370  0.33829085  0.00018525  1
loop_
_geom_bond_atom_site_label_1
_geom_bond_atom_site_label_2
_geom_bond_distance
_geom_bond_site_symmetry_2
Fe0 O8 1.870751 1_555
Fe0 O11 1.870751 1_555
Fe0 O2 1.908332 1_555
Fe0 O3 1.913166 1_554
Fe0 O6 1.919633 1_655
Fe0 O9 1.919633 1_565
Fe1 O7 1.870751 1_555
Fe1 O10 1.870751 1_555
Fe1 O4 1.908332 1_555
Fe1 O0 1.913166 1_556
Fe1 O6 1.919633 1_556
Fe1 O9 1.919633 1_556
Ni0 O8 1.938807 1_545
Ni0 O7 1.938807 1_454
Ni0 O11 1.938807 1_455
Ni0 O10 1.938807 1_544
Ni0 O5 1.947323 1_554
Ni0 O1 1.947323 1_445
O0 Sr0 2.518557 1_555
O0 Sr3 2.705571 1_545
O0 Sr3 2.705571 1_455
O0 Sr4 2.716351 1_555
O0 Sr5 2.716352 1_555
O1 Sr1 2.473051 1_555
O1 Sr3 2.670487 1_555
O1 Sr5 2.682347 1_665
O1 Sr4 2.707733 1_565
O1 Sr4 2.707733 1_655
O2 Sr2 2.522926 1_555
O2 Sr5 2.705111 1_565
O2 Sr5 2.705111 1_655
O2 Sr3 2.716976 1_555
O2 Sr4 2.728223 1_555
O3 Sr3 2.518557 1_555
O3 Sr0 2.705571 1_565
O3 Sr0 2.705571 1_655
O3 Sr2 2.716351 1_555
O3 Sr1 2.716352 1_555
O4 Sr4 2.522926 1_555
O4 Sr1 2.705111 1_545
O4 Sr1 2.705111 1_455
O4 Sr0 2.716976 1_555
O4 Sr2 2.728223 1_555
O5 Sr5 2.473051 1_555
O5 Sr0 2.670487 1_555
O5 Sr1 2.682347 1_445
O5 Sr2 2.707733 1_545
O5 Sr2 2.707733 1_455
O6 Sr3 2.615484 1_455
O6 Sr0 2.615484 1_554
O6 Sr1 2.619094 1_454
O6 Sr5 2.619094 1_555
O7 Sr3 2.582426 1_546
O7 Sr1 2.589013 1_545
O7 Sr4 2.595193 1_556
O7 Sr2 2.597705 1_555
O8 Sr0 2.582426 1_564
O8 Sr5 2.589013 1_565
O8 Sr2 2.595193 1_554
O8 Sr4 2.597705 1_555
O9 Sr3 2.615484 1_545
O9 Sr0 2.615484 1_554
O9 Sr1 2.619094 1_544
O9 Sr5 2.619094 1_555
O10 Sr3 2.582426 1_456
O10 Sr1 2.589013 1_455
O10 Sr4 2.595193 1_556
O10 Sr2 2.597705 1_555
O11 Sr0 2.582426 1_654
O11 Sr5 2.589013 1_655
O11 Sr2 2.595193 1_554
O11 Sr4 2.597705 1_555
