# generated using pymatgen
data_RbSeF5
_symmetry_space_group_name_H-M   'P 1'
_cell_length_a   6.05714605
_cell_length_b   7.69829724
_cell_length_c   9.95863762
_cell_angle_alpha   90.00000000
_cell_angle_beta   90.00000000
_cell_angle_gamma   90.00000000
_symmetry_Int_Tables_number   1
_chemical_formula_structural   RbSeF5
_chemical_formula_sum   'Rb4 Se4 F20'
_cell_volume   464.36839146
_cell_formula_units_Z   4
loop_
 _symmetry_equiv_pos_site_id
 _symmetry_equiv_pos_as_xyz
  1  'x, y, z'
loop_
 _atom_site_type_symbol
 _atom_site_label
 _atom_site_symmetry_multiplicity
 _atom_site_fract_x
 _atom_site_fract_y
 _atom_site_fract_z
 _atom_site_occupancy
  Rb  Rb0  1  0.25000000  0.63743523  0.16573229  1
  Rb  Rb1  1  0.75000000  0.36256477  0.83426771  1
  Rb  Rb2  1  0.75000000  0.13743523  0.33426771  1
  Rb  Rb3  1  0.25000000  0.86256477  0.66573229  1
  Se  Se0  1  0.25000000  0.13984034  0.08195247  1
  Se  Se1  1  0.75000000  0.86015966  0.91804753  1
  Se  Se2  1  0.75000000  0.63984034  0.41804753  1
  Se  Se3  1  0.25000000  0.36015966  0.58195247  1
  F  F0  1  0.03564245  0.98054653  0.13942508  1
  F  F1  1  0.53564245  0.01945347  0.86057492  1
  F  F2  1  0.96435755  0.48054653  0.36057492  1
  F  F3  1  0.46435755  0.51945347  0.63942508  1
  F  F4  1  0.96435755  0.01945347  0.86057492  1
  F  F5  1  0.46435755  0.98054653  0.13942508  1
  F  F6  1  0.03564245  0.51945347  0.63942508  1
  F  F7  1  0.53564245  0.48054653  0.36057492  1
  F  F8  1  0.03256080  0.31042588  0.06838606  1
  F  F9  1  0.53256080  0.68957412  0.93161394  1
  F  F10  1  0.96743920  0.81042588  0.43161394  1
  F  F11  1  0.46743920  0.18957412  0.56838606  1
  F  F12  1  0.96743920  0.68957412  0.93161394  1
  F  F13  1  0.46743920  0.31042588  0.06838606  1
  F  F14  1  0.03256080  0.18957412  0.56838606  1
  F  F15  1  0.53256080  0.81042588  0.43161394  1
  F  F16  1  0.25000000  0.20022255  0.25149561  1
  F  F17  1  0.75000000  0.79977745  0.74850439  1
  F  F18  1  0.75000000  0.70022255  0.24850439  1
  F  F19  1  0.25000000  0.29977745  0.75149561  1
loop_
_geom_bond_atom_site_label_1
_geom_bond_atom_site_label_2
_geom_bond_distance
_geom_bond_site_symmetry_2
F0 Se0 1.875421 1_565
F0 Rb2 2.866577 1_465
F0 Rb0 2.954880 1_555
F1 Se1 1.875421 1_545
F1 Rb3 2.866577 1_545
F1 Rb1 2.954880 1_555
F2 Se2 1.875421 1_555
F2 Rb0 2.866577 1_655
F2 Rb2 2.954880 1_555
F3 Se3 1.875421 1_555
F3 Rb1 2.866577 1_555
F3 Rb3 2.954880 1_555
F4 Se1 1.875421 1_545
F4 Rb3 2.866577 1_645
F4 Rb1 2.954880 1_555
F5 Se0 1.875421 1_565
F5 Rb2 2.866577 1_565
F5 Rb0 2.954880 1_555
F6 Se3 1.875421 1_555
F6 Rb1 2.866577 1_455
F6 Rb3 2.954880 1_555
F7 Se2 1.875421 1_555
F7 Rb0 2.866577 1_555
F7 Rb2 2.954880 1_555
F8 Se0 1.864791 1_555
F8 Rb1 2.919978 1_454
F8 Rb0 3.001972 1_555
F9 Se1 1.864791 1_555
F9 Rb0 2.919978 1_556
F9 Rb1 3.001972 1_555
F10 Se2 1.864791 1_555
F10 Rb3 2.919978 1_655
F10 Rb2 3.001972 1_565
F11 Se3 1.864791 1_555
F11 Rb2 2.919978 1_555
F11 Rb3 3.001972 1_545
F12 Se1 1.864791 1_555
F12 Rb0 2.919978 1_656
F12 Rb1 3.001972 1_555
F13 Se0 1.864791 1_555
F13 Rb1 2.919978 1_554
F13 Rb0 3.001972 1_555
F14 Se3 1.864791 1_555
F14 Rb2 2.919978 1_455
F14 Rb3 3.001972 1_545
F15 Se2 1.864791 1_555
F15 Rb3 2.919978 1_555
F15 Rb2 3.001972 1_565
F16 Se0 1.751238 1_555
F16 Rb2 3.175745 1_555
F16 Rb2 3.175745 1_455
F17 Se1 1.751238 1_555
F17 Rb3 3.175745 1_655
F17 Rb3 3.175745 1_555
F18 Se2 1.751238 1_555
F18 Rb0 3.175745 1_655
F18 Rb0 3.175745 1_555
F19 Se3 1.751238 1_555
F19 Rb1 3.175745 1_455
F19 Rb1 3.175745 1_555
