# generated using pymatgen
data_CsRb3(Co3Se4)2
_symmetry_space_group_name_H-M   'P 1'
_cell_length_a   5.97995535
_cell_length_b   5.97995410
_cell_length_c   15.28632432
_cell_angle_alpha   90.00000000
_cell_angle_beta   90.00000000
_cell_angle_gamma   119.99999602
_symmetry_Int_Tables_number   1
_chemical_formula_structural   CsRb3(Co3Se4)2
_chemical_formula_sum   'Cs1 Rb3 Co6 Se8'
_cell_volume   473.40137019
_cell_formula_units_Z   1
loop_
 _symmetry_equiv_pos_site_id
 _symmetry_equiv_pos_as_xyz
  1  'x, y, z'
loop_
 _atom_site_type_symbol
 _atom_site_label
 _atom_site_symmetry_multiplicity
 _atom_site_fract_x
 _atom_site_fract_y
 _atom_site_fract_z
 _atom_site_occupancy
  Cs  Cs0  1  0.33333300  0.66666700  0.59190134  1
  Rb  Rb0  1  0.33333300  0.66666700  0.90095672  1
  Rb  Rb1  1  0.66666700  0.33333300  0.39599121  1
  Rb  Rb2  1  0.66666700  0.33333300  0.09777074  1
  Co  Co0  1  0.16614456  0.83385544  0.24573662  1
  Co  Co1  1  0.83349079  0.66698158  0.75606630  1
  Co  Co2  1  0.83349079  0.16650921  0.75606630  1
  Co  Co3  1  0.16614456  0.33229011  0.24573662  1
  Co  Co4  1  0.33301842  0.16650921  0.75606630  1
  Co  Co5  1  0.66770989  0.83385544  0.24573662  1
  Se  Se0  1  0.33333300  0.66666700  0.34749988  1
  Se  Se1  1  0.66666700  0.33333300  0.85857371  1
  Se  Se2  1  0.66666700  0.33333300  0.65374509  1
  Se  Se3  1  0.33333300  0.66666700  0.14291969  1
  Se  Se4  1  0.00000000  0.00000000  0.65453546  1
  Se  Se5  1  0.00000000  0.00000000  0.14390778  1
  Se  Se6  1  0.00000000  0.00000000  0.85805431  1
  Se  Se7  1  0.00000000  0.00000000  0.34873730  1
loop_
_geom_bond_atom_site_label_1
_geom_bond_atom_site_label_2
_geom_bond_distance
_geom_bond_site_symmetry_2
Cs0 Se2 3.579614 1_565
Cs0 Se2 3.579615 1_455
Cs0 Se2 3.579625 1_555
Cs0 Se4 3.582824 1_565
Cs0 Se4 3.582829 1_555
Cs0 Se4 3.582830 1_665
Cs0 Se0 3.736000 1_555
Rb0 Se1 3.512788 1_565
Rb0 Se1 3.512788 1_455
Rb0 Se1 3.512798 1_555
Rb0 Se6 3.514261 1_565
Rb0 Se6 3.514266 1_555
Rb0 Se6 3.514266 1_665
Rb0 Se3 3.698724 1_556
Rb1 Se7 3.527280 1_655
Rb1 Se7 3.527285 1_665
Rb1 Se7 3.527285 1_555
Rb1 Se0 3.531202 1_545
Rb1 Se0 3.531202 1_655
Rb1 Se0 3.531212 1_555
Rb1 Se2 3.940109 1_555
Rb2 Se3 3.520831 1_545
Rb2 Se3 3.520832 1_655
Rb2 Se3 3.520841 1_555
Rb2 Se5 3.523823 1_655
Rb2 Se5 3.523828 1_665
Rb2 Se5 3.523829 1_555
Rb2 Se1 3.656443 1_554
Co0 Se5 2.320413 1_565
Co0 Se0 2.327772 1_555
Co0 Se7 2.332467 1_565
Co0 Se3 2.338567 1_555
Co1 Se4 2.320165 1_665
Co1 Se6 2.324846 1_665
Co1 Se2 2.330683 1_555
Co1 Se1 2.332594 1_555
Co2 Se4 2.320165 1_655
Co2 Se6 2.324846 1_655
Co2 Se2 2.330679 1_555
Co2 Se1 2.332590 1_555
Co3 Se5 2.320416 1_555
Co3 Se0 2.327772 1_555
Co3 Se7 2.332471 1_555
Co3 Se3 2.338567 1_555
Co4 Se4 2.320166 1_555
Co4 Se6 2.324846 1_555
Co4 Se2 2.330683 1_555
Co4 Se1 2.332594 1_555
Co5 Se5 2.320417 1_665
Co5 Se0 2.327773 1_555
Co5 Se7 2.332471 1_665
Co5 Se3 2.338567 1_555
