# generated using pymatgen
data_Y16Cd3InPd4
_symmetry_space_group_name_H-M   'P 1'
_cell_length_a   9.72144980
_cell_length_b   9.72144921
_cell_length_c   9.72144935
_cell_angle_alpha   60.03489517
_cell_angle_beta   60.03489552
_cell_angle_gamma   60.03489773
_symmetry_Int_Tables_number   1
_chemical_formula_structural   Y16Cd3InPd4
_chemical_formula_sum   'Y16 Cd3 In1 Pd4'
_cell_volume   650.16182255
_cell_formula_units_Z   1
loop_
 _symmetry_equiv_pos_site_id
 _symmetry_equiv_pos_as_xyz
  1  'x, y, z'
loop_
 _atom_site_type_symbol
 _atom_site_label
 _atom_site_symmetry_multiplicity
 _atom_site_fract_x
 _atom_site_fract_y
 _atom_site_fract_z
 _atom_site_occupancy
  Y  Y0  1  0.35378048  0.35378048  0.35378048  1
  Y  Y1  1  0.35418741  0.35418741  0.93693918  1
  Y  Y2  1  0.35418741  0.93693918  0.35418741  1
  Y  Y3  1  0.93693918  0.35418741  0.35418741  1
  Y  Y4  1  0.81037618  0.18932340  0.18932340  1
  Y  Y5  1  0.19090453  0.80945503  0.80945503  1
  Y  Y6  1  0.18932340  0.81037618  0.18932340  1
  Y  Y7  1  0.80945503  0.19090453  0.80945503  1
  Y  Y8  1  0.18932340  0.18932340  0.81037618  1
  Y  Y9  1  0.80945503  0.80945503  0.19090453  1
  Y  Y10  1  0.93723263  0.56530642  0.56530642  1
  Y  Y11  1  0.56539471  0.93558447  0.93558447  1
  Y  Y12  1  0.56530642  0.93723263  0.56530642  1
  Y  Y13  1  0.93558447  0.56539471  0.93558447  1
  Y  Y14  1  0.56530642  0.56530642  0.93723263  1
  Y  Y15  1  0.93558447  0.93558447  0.56539471  1
  Cd  Cd0  1  0.58197575  0.58197575  0.25192332  1
  Cd  Cd1  1  0.58197575  0.25192332  0.58197575  1
  Cd  Cd2  1  0.25192332  0.58197575  0.58197575  1
  In  In0  1  0.58268088  0.58268088  0.58268088  1
  Pd  Pd0  1  0.14453446  0.14453446  0.14453446  1
  Pd  Pd1  1  0.14397031  0.14397031  0.56662704  1
  Pd  Pd2  1  0.14397031  0.56662704  0.14397031  1
  Pd  Pd3  1  0.56662704  0.14397031  0.14397031  1
loop_
_geom_bond_atom_site_label_1
_geom_bond_atom_site_label_2
_geom_bond_distance
_geom_bond_site_symmetry_2
Cd0 Cd1 3.210280 1_555
Cd0 Cd2 3.210280 1_555
Cd0 In0 3.222305 1_555
Cd0 Y14 3.229275 1_554
Cd0 Y11 3.268270 1_554
Cd0 Y13 3.268271 1_554
Cd0 Y0 3.369034 1_555
Cd0 Y2 3.375528 1_555
Cd0 Y3 3.375528 1_555
Cd0 Y4 3.517840 1_555
Cd0 Y6 3.517840 1_555
Cd0 Y9 3.520956 1_555
Cd1 Cd2 3.210280 1_555
Cd1 In0 3.222305 1_555
Cd1 Y12 3.229275 1_545
Cd1 Y11 3.268270 1_545
Cd1 Y15 3.268271 1_545
Cd1 Y0 3.369034 1_555
Cd1 Y1 3.375528 1_555
Cd1 Y3 3.375528 1_555
Cd1 Y4 3.517840 1_555
Cd1 Y8 3.517840 1_555
Cd1 Y7 3.520956 1_555
Cd2 In0 3.222305 1_555
Cd2 Y10 3.229275 1_455
Cd2 Y13 3.268271 1_455
Cd2 Y15 3.268271 1_455
Cd2 Y0 3.369034 1_555
Cd2 Y2 3.375528 1_555
Cd2 Y1 3.375528 1_555
Cd2 Y8 3.517840 1_555
Cd2 Y6 3.517840 1_555
Cd2 Y5 3.520956 1_555
In0 Y12 3.286726 1_555
In0 Y14 3.286726 1_555
In0 Y10 3.286726 1_555
In0 Y1 3.372531 1_555
In0 Y2 3.372531 1_555
In0 Y3 3.372531 1_555
In0 Y9 3.507975 1_555
In0 Y7 3.507975 1_555
In0 Y5 3.507975 1_555
Pd0 Y6 2.880178 1_545
Pd0 Y8 2.880178 1_554
Pd0 Y4 2.880178 1_455
Pd0 Y1 2.883167 1_554
Pd0 Y3 2.883167 1_455
Pd0 Y2 2.883167 1_545
Pd0 Y15 3.536867 1_445
Pd0 Y13 3.536867 1_454
Pd0 Y11 3.536867 1_544
Pd1 Y5 2.877714 1_545
Pd1 Y7 2.877714 1_455
Pd1 Y8 2.878409 1_555
Pd1 Y2 2.884373 1_545
Pd1 Y3 2.884373 1_455
Pd1 Y0 2.885447 1_555
Pd1 Y15 3.515117 1_445
Pd1 Y10 3.544919 1_455
Pd1 Y12 3.544920 1_545
Pd2 Y5 2.877714 1_554
Pd2 Y9 2.877714 1_455
Pd2 Y6 2.878409 1_555
Pd2 Y3 2.884373 1_455
Pd2 Y1 2.884373 1_554
Pd2 Y0 2.885447 1_555
Pd2 Y13 3.515117 1_454
Pd2 Y10 3.544919 1_455
Pd2 Y14 3.544919 1_554
Pd3 Y7 2.877714 1_554
Pd3 Y9 2.877714 1_545
Pd3 Y4 2.878410 1_555
Pd3 Y2 2.884373 1_545
Pd3 Y1 2.884373 1_554
Pd3 Y0 2.885447 1_555
Pd3 Y11 3.515117 1_544
Pd3 Y14 3.544919 1_554
Pd3 Y12 3.544919 1_545
