# generated using pymatgen
data_Na2Ti3(CrSe5)2
_symmetry_space_group_name_H-M   'P 1'
_cell_length_a   6.26113724
_cell_length_b   10.21927715
_cell_length_c   8.08294598
_cell_angle_alpha   61.69608967
_cell_angle_beta   66.85355373
_cell_angle_gamma   89.76360836
_symmetry_Int_Tables_number   1
_chemical_formula_structural   Na2Ti3(CrSe5)2
_chemical_formula_sum   'Na2 Ti3 Cr2 Se10'
_cell_volume   407.94790728
_cell_formula_units_Z   1
loop_
 _symmetry_equiv_pos_site_id
 _symmetry_equiv_pos_as_xyz
  1  'x, y, z'
loop_
 _atom_site_type_symbol
 _atom_site_label
 _atom_site_symmetry_multiplicity
 _atom_site_fract_x
 _atom_site_fract_y
 _atom_site_fract_z
 _atom_site_occupancy
  Na  Na0  1  0.78761208  0.08943296  0.41205147  1
  Na  Na1  1  0.00074264  0.51295470  0.98876331  1
  Ti  Ti0  1  0.40187629  0.78875092  0.20883788  1
  Ti  Ti1  1  0.62133329  0.20660935  0.79693162  1
  Ti  Ti2  1  0.01203218  0.99903839  0.00384110  1
  Cr  Cr0  1  0.79773051  0.60193512  0.39816060  1
  Cr  Cr1  1  0.19494313  0.39860950  0.59673173  1
  Se  Se0  1  0.98175433  0.83852993  0.36718336  1
  Se  Se1  1  0.58170561  0.04017998  0.16451445  1
  Se  Se2  1  0.18426249  0.24355287  0.96098346  1
  Se  Se3  1  0.78204384  0.44525639  0.75997555  1
  Se  Se4  1  0.38076563  0.63798125  0.56430921  1
  Se  Se5  1  0.41411917  0.95840153  0.83770019  1
  Se  Se6  1  0.02024289  0.15786683  0.63248801  1
  Se  Se7  1  0.61199362  0.36120107  0.43757808  1
  Se  Se8  1  0.21069912  0.55804456  0.23764235  1
  Se  Se9  1  0.81614220  0.76165367  0.03230662  1
loop_
_geom_bond_atom_site_label_1
_geom_bond_atom_site_label_2
_geom_bond_distance
_geom_bond_site_symmetry_2
Na0 Se5 2.903532 1_545
Na0 Se0 2.948382 1_545
Na0 Se1 2.984456 1_555
Na0 Se6 3.002603 1_655
Na0 Se7 3.050365 1_555
Na0 Se2 3.067515 1_654
Na1 Se9 2.902296 1_456
Na1 Se4 2.918064 1_555
Na1 Se8 2.991700 1_556
Na1 Se3 2.997540 1_455
Na1 Se7 3.040432 1_456
Na1 Se2 3.050823 1_555
Cr0 Se0 2.541306 1_555
Cr0 Se4 2.541600 1_555
Cr0 Se3 2.541885 1_555
Cr0 Se8 2.544614 1_655
Cr0 Se7 2.548560 1_555
Cr0 Se9 2.564892 1_555
Cr1 Se8 2.525975 1_555
Cr1 Se6 2.536146 1_555
Cr1 Se7 2.537075 1_555
Cr1 Se3 2.560511 1_455
Cr1 Se4 2.565559 1_555
Cr1 Se2 2.570170 1_555
Se0 Ti2 2.519590 1_655
Se0 Ti0 2.603027 1_655
Se1 Ti1 2.532566 1_554
Se1 Ti0 2.613777 1_545
Se1 Ti2 2.623049 1_645
Se2 Ti2 2.536605 1_546
Se2 Ti1 2.646328 1_555
Se3 Ti1 2.478424 1_555
Se4 Ti0 2.480326 1_555
Se5 Ti2 2.485182 1_556
Se5 Ti0 2.626638 1_556
Se5 Ti1 2.669099 1_565
Se6 Ti1 2.502132 1_455
Se6 Ti2 2.627964 1_546
Se7 Ti1 2.591791 1_555
Se8 Ti0 2.515782 1_555
Se9 Ti0 2.509884 1_555
Se9 Ti2 2.591450 1_655
