# generated using pymatgen
data_Zr10Al2(SnSb)3
_symmetry_space_group_name_H-M   'P 1'
_cell_length_a   8.69174868
_cell_length_b   8.69174826
_cell_length_c   5.87738941
_cell_angle_alpha   90.00000000
_cell_angle_beta   90.00000000
_cell_angle_gamma   119.99999782
_symmetry_Int_Tables_number   1
_chemical_formula_structural   Zr10Al2(SnSb)3
_chemical_formula_sum   'Zr10 Al2 Sn3 Sb3'
_cell_volume   384.52927319
_cell_formula_units_Z   1
loop_
 _symmetry_equiv_pos_site_id
 _symmetry_equiv_pos_as_xyz
  1  'x, y, z'
loop_
 _atom_site_type_symbol
 _atom_site_label
 _atom_site_symmetry_multiplicity
 _atom_site_fract_x
 _atom_site_fract_y
 _atom_site_fract_z
 _atom_site_occupancy
  Zr  Zr0  1  0.72578928  0.72578928  0.75000000  1
  Zr  Zr1  1  0.27421072  0.00000000  0.75000000  1
  Zr  Zr2  1  0.00000000  0.27421072  0.75000000  1
  Zr  Zr3  1  0.26499341  0.26499341  0.25000000  1
  Zr  Zr4  1  0.73500659  1.00000000  0.25000000  1
  Zr  Zr5  1  1.00000000  0.73500659  0.25000000  1
  Zr  Zr6  1  0.66666700  0.33333300  0.99779228  1
  Zr  Zr7  1  0.33333300  0.66666700  0.99779228  1
  Zr  Zr8  1  0.33333300  0.66666700  0.50220772  1
  Zr  Zr9  1  0.66666700  0.33333300  0.50220772  1
  Al  Al0  1  0.00000000  0.00000000  0.98966401  1
  Al  Al1  1  0.00000000  0.00000000  0.51033599  1
  Sn  Sn0  1  0.38283809  0.38283809  0.75000000  1
  Sn  Sn1  1  0.61716191  1.00000000  0.75000000  1
  Sn  Sn2  1  1.00000000  0.61716191  0.75000000  1
  Sb  Sb0  1  0.60951178  0.60951178  0.25000000  1
  Sb  Sb1  1  0.39048822  1.00000000  0.25000000  1
  Sb  Sb2  1  1.00000000  0.39048822  0.25000000  1
loop_
_geom_bond_atom_site_label_1
_geom_bond_atom_site_label_2
_geom_bond_distance
_geom_bond_site_symmetry_2
Al0 Zr5 2.765173 1_446
Al0 Zr4 2.765173 1_446
Al0 Zr3 2.765173 1_556
Al0 Zr2 2.768502 1_555
Al0 Zr1 2.768502 1_555
Al0 Zr0 2.768503 1_445
Al1 Zr5 2.765173 1_445
Al1 Zr4 2.765173 1_445
Al1 Zr3 2.765173 1_555
Al1 Zr2 2.768502 1_555
Al1 Zr1 2.768502 1_555
Al1 Zr0 2.768503 1_445
Sn0 Zr1 2.970216 1_555
Sn0 Zr2 2.970216 1_555
Sn0 Zr0 2.980846 1_555
Sn0 Zr7 3.074671 1_555
Sn0 Zr8 3.074671 1_555
Sn0 Zr6 3.074672 1_555
Sn0 Zr9 3.074672 1_555
Sn0 Zr3 3.112084 1_555
Sn0 Zr3 3.112084 1_556
Sn1 Zr0 2.970216 1_555
Sn1 Zr2 2.970216 1_665
Sn1 Zr1 2.980846 1_565
Sn1 Zr6 3.074664 1_565
Sn1 Zr9 3.074664 1_565
Sn1 Zr7 3.074667 1_555
Sn1 Zr8 3.074667 1_555
Sn1 Zr4 3.112084 1_555
Sn1 Zr4 3.112084 1_556
Sn2 Zr0 2.970216 1_555
Sn2 Zr1 2.970216 1_665
Sn2 Zr2 2.980845 1_655
Sn2 Zr7 3.074664 1_655
Sn2 Zr8 3.074664 1_655
Sn2 Zr6 3.074667 1_555
Sn2 Zr9 3.074667 1_555
Sn2 Zr5 3.112084 1_556
Sn2 Zr5 3.112084 1_555
Sb0 Zr3 2.994467 1_555
Sb0 Zr4 3.001181 1_555
Sb0 Zr5 3.001181 1_555
Sb0 Zr9 3.065757 1_555
Sb0 Zr6 3.065757 1_554
Sb0 Zr8 3.065757 1_555
Sb0 Zr7 3.065757 1_554
Sb0 Zr0 3.107628 1_555
Sb0 Zr0 3.107628 1_554
Sb1 Zr4 2.994467 1_555
Sb1 Zr3 3.001181 1_565
Sb1 Zr5 3.001181 1_455
Sb1 Zr8 3.065749 1_555
Sb1 Zr7 3.065749 1_554
Sb1 Zr9 3.065752 1_565
Sb1 Zr6 3.065752 1_564
Sb1 Zr1 3.107628 1_565
Sb1 Zr1 3.107628 1_564
Sb2 Zr5 2.994467 1_555
Sb2 Zr3 3.001181 1_655
Sb2 Zr4 3.001181 1_545
Sb2 Zr9 3.065749 1_555
Sb2 Zr6 3.065749 1_554
Sb2 Zr8 3.065752 1_655
Sb2 Zr7 3.065752 1_654
Sb2 Zr2 3.107628 1_655
Sb2 Zr2 3.107628 1_654
