# generated using pymatgen
data_Y9MgAl3Ru
_symmetry_space_group_name_H-M   'P 1'
_cell_length_a   9.44867772
_cell_length_b   9.44881881
_cell_length_c   9.54782689
_cell_angle_alpha   90.00000000
_cell_angle_beta   90.00000000
_cell_angle_gamma   120.00099266
_symmetry_Int_Tables_number   1
_chemical_formula_structural   Y9MgAl3Ru
_chemical_formula_sum   'Y18 Mg2 Al6 Ru2'
_cell_volume   738.20907677
_cell_formula_units_Z   2
loop_
 _symmetry_equiv_pos_site_id
 _symmetry_equiv_pos_as_xyz
  1  'x, y, z'
loop_
 _atom_site_type_symbol
 _atom_site_label
 _atom_site_symmetry_multiplicity
 _atom_site_fract_x
 _atom_site_fract_y
 _atom_site_fract_z
 _atom_site_occupancy
  Y  Y0  1  0.20492698  0.79507252  0.43807453  1
  Y  Y1  1  0.20492798  0.40985547  0.43807553  1
  Y  Y2  1  0.59012252  0.79506076  0.43806485  1
  Y  Y3  1  0.79507302  0.20492748  0.56192547  1
  Y  Y4  1  0.79507202  0.59014453  0.56192447  1
  Y  Y5  1  0.40987748  0.20493924  0.56193515  1
  Y  Y6  1  0.79507302  0.20492748  0.93807453  1
  Y  Y7  1  0.79507202  0.59014453  0.93807553  1
  Y  Y8  1  0.40987748  0.20493924  0.93806485  1
  Y  Y9  1  0.20492698  0.79507252  0.06192547  1
  Y  Y10  1  0.20492798  0.40985547  0.06192447  1
  Y  Y11  1  0.59012252  0.79506076  0.06193515  1
  Y  Y12  1  0.54156255  0.45843373  0.25000000  1
  Y  Y13  1  0.54156155  0.08312883  0.25000000  1
  Y  Y14  1  0.91688880  0.45844590  0.25000000  1
  Y  Y15  1  0.45843745  0.54156627  0.75000000  1
  Y  Y16  1  0.45843845  0.91687117  0.75000000  1
  Y  Y17  1  0.08311120  0.54155410  0.75000000  1
  Mg  Mg0  1  0.00000000  0.00000000  0.50000000  1
  Mg  Mg1  1  0.00000000  0.00000000  0.00000000  1
  Al  Al0  1  0.89492315  0.10506059  0.25000000  1
  Al  Al1  1  0.89492115  0.78986256  0.25000000  1
  Al  Al2  1  0.21013639  0.10507019  0.25000000  1
  Al  Al3  1  0.10507685  0.89493941  0.75000000  1
  Al  Al4  1  0.10507885  0.21013744  0.75000000  1
  Al  Al5  1  0.78986361  0.89492981  0.75000000  1
  Ru  Ru0  1  0.33327957  0.66663729  0.25000000  1
  Ru  Ru1  1  0.66672043  0.33336271  0.75000000  1
loop_
_geom_bond_atom_site_label_1
_geom_bond_atom_site_label_2
_geom_bond_distance
_geom_bond_site_symmetry_2
Mg0 Y1 3.405497 1_555
Mg0 Y4 3.405497 1_445
Mg0 Y3 3.405515 1_455
Mg0 Y0 3.405515 1_545
Mg0 Y5 3.405643 1_555
Mg0 Y2 3.405643 1_445
Mg1 Y10 3.405497 1_555
Mg1 Y7 3.405497 1_444
Mg1 Y6 3.405515 1_454
Mg1 Y9 3.405515 1_545
Mg1 Y8 3.405643 1_554
Mg1 Y11 3.405643 1_445
Al0 Mg0 2.941829 1_655
Al0 Mg1 2.941829 1_655
Al0 Al1 2.978240 1_545
Al0 Al2 2.978303 1_655
Al0 Y13 3.240156 1_555
Al0 Y14 3.240286 1_555
Al0 Y6 3.397139 1_554
Al0 Y3 3.397139 1_555
Al0 Y2 3.414993 1_545
Al0 Y11 3.414993 1_545
Al0 Y1 3.415043 1_655
Al0 Y10 3.415043 1_655
Al1 Mg0 2.941821 1_665
Al1 Mg1 2.941821 1_665
Al1 Al2 2.978309 1_665
Al1 Y12 3.240113 1_555
Al1 Y14 3.240272 1_555
Al1 Y4 3.397129 1_555
Al1 Y7 3.397129 1_554
Al1 Y2 3.414991 1_555
Al1 Y11 3.414991 1_555
Al1 Y9 3.415064 1_655
Al1 Y0 3.415064 1_655
Al2 Mg1 2.941801 1_555
Al2 Mg0 2.941801 1_555
Al2 Y12 3.240134 1_555
Al2 Y13 3.240171 1_555
Al2 Y5 3.397297 1_555
Al2 Y8 3.397297 1_554
Al2 Y1 3.415016 1_555
Al2 Y10 3.415016 1_555
Al2 Y9 3.415038 1_545
Al2 Y0 3.415038 1_545
Al3 Mg1 2.941829 1_566
Al3 Mg0 2.941829 1_565
Al3 Al4 2.978240 1_565
Al3 Al5 2.978303 1_455
Al3 Y16 3.240156 1_555
Al3 Y17 3.240286 1_555
Al3 Y9 3.397139 1_556
Al3 Y0 3.397139 1_555
Al3 Y8 3.414993 1_565
Al3 Y5 3.414993 1_565
Al3 Y7 3.415043 1_455
Al3 Y4 3.415043 1_455
Al4 Mg1 2.941821 1_556
Al4 Mg0 2.941821 1_555
Al4 Al5 2.978309 1_445
Al4 Y15 3.240113 1_555
Al4 Y17 3.240272 1_555
Al4 Y10 3.397129 1_556
Al4 Y1 3.397129 1_555
Al4 Y8 3.414991 1_555
Al4 Y5 3.414991 1_555
Al4 Y3 3.415064 1_455
Al4 Y6 3.415064 1_455
Al5 Mg0 2.941801 1_665
Al5 Mg1 2.941801 1_666
Al5 Y15 3.240134 1_555
Al5 Y16 3.240171 1_555
Al5 Y11 3.397297 1_556
Al5 Y2 3.397297 1_555
Al5 Y7 3.415016 1_555
Al5 Y4 3.415016 1_555
Al5 Y3 3.415038 1_565
Al5 Y6 3.415038 1_565
Ru0 Y1 2.763990 1_555
Ru0 Y10 2.763990 1_555
Ru0 Y9 2.764033 1_555
Ru0 Y0 2.764033 1_555
Ru0 Y2 2.764280 1_555
Ru0 Y11 2.764280 1_555
Ru0 Y14 3.407206 1_455
Ru0 Y12 3.408066 1_555
Ru0 Y13 3.408082 1_565
Ru1 Y7 2.763990 1_555
Ru1 Y4 2.763990 1_555
Ru1 Y3 2.764033 1_555
Ru1 Y6 2.764033 1_555
Ru1 Y8 2.764280 1_555
Ru1 Y5 2.764280 1_555
Ru1 Y17 3.407206 1_655
Ru1 Y15 3.408066 1_555
Ru1 Y16 3.408082 1_545
