# generated using pymatgen
data_MnVFePt5
_symmetry_space_group_name_H-M   'P 1'
_cell_length_a   3.87556783
_cell_length_b   3.87556783
_cell_length_c   7.76799833
_cell_angle_alpha   90.00000000
_cell_angle_beta   90.00000000
_cell_angle_gamma   90.00000000
_symmetry_Int_Tables_number   1
_chemical_formula_structural   MnVFePt5
_chemical_formula_sum   'Mn1 V1 Fe1 Pt5'
_cell_volume   116.67553678
_cell_formula_units_Z   1
loop_
 _symmetry_equiv_pos_site_id
 _symmetry_equiv_pos_as_xyz
  1  'x, y, z'
loop_
 _atom_site_type_symbol
 _atom_site_label
 _atom_site_symmetry_multiplicity
 _atom_site_fract_x
 _atom_site_fract_y
 _atom_site_fract_z
 _atom_site_occupancy
  Mn  Mn0  1  0.00000000  0.00000000  0.50000000  1
  V  V0  1  0.50000000  0.50000000  0.00000000  1
  Fe  Fe0  1  0.00000000  0.00000000  0.00000000  1
  Pt  Pt0  1  0.50000000  0.50000000  0.50000000  1
  Pt  Pt1  1  0.50000000  0.00000000  0.23509945  1
  Pt  Pt2  1  0.50000000  0.00000000  0.76490055  1
  Pt  Pt3  1  0.00000000  0.50000000  0.23509945  1
  Pt  Pt4  1  0.00000000  0.50000000  0.76490055  1
loop_
_geom_bond_atom_site_label_1
_geom_bond_atom_site_label_2
_geom_bond_distance
_geom_bond_site_symmetry_2
Mn0 Pt0 2.740440 1_555
Mn0 Pt0 2.740440 1_455
Mn0 Pt0 2.740440 1_545
Mn0 Pt0 2.740440 1_445
Mn0 Pt4 2.826540 1_555
Mn0 Pt2 2.826540 1_455
Mn0 Pt4 2.826540 1_545
Mn0 Pt2 2.826540 1_555
Mn0 Pt1 2.826540 1_555
Mn0 Pt3 2.826540 1_545
Mn0 Pt1 2.826540 1_455
Mn0 Pt3 2.826540 1_555
Fe0 Pt1 2.662744 1_455
Fe0 Pt3 2.662744 1_555
Fe0 Pt1 2.662744 1_555
Fe0 Pt3 2.662744 1_545
Fe0 Pt2 2.662744 1_554
Fe0 Pt4 2.662744 1_554
Fe0 Pt2 2.662744 1_454
Fe0 Pt4 2.662744 1_544
Fe0 V0 2.740440 1_455
Fe0 V0 2.740440 1_445
Fe0 V0 2.740440 1_545
Fe0 V0 2.740440 1_555
Pt0 Pt4 2.826540 1_555
Pt0 Pt4 2.826540 1_655
Pt0 Pt2 2.826540 1_555
Pt0 Pt2 2.826540 1_565
Pt0 Pt1 2.826540 1_555
Pt0 Pt3 2.826540 1_655
Pt0 Pt1 2.826540 1_565
Pt0 Pt3 2.826540 1_555
Pt1 V0 2.662744 1_545
Pt1 V0 2.662744 1_555
Pt1 Pt3 2.740440 1_545
Pt1 Pt3 2.740440 1_645
Pt1 Pt3 2.740440 1_555
Pt1 Pt3 2.740440 1_655
Pt2 V0 2.662744 1_546
Pt2 V0 2.662744 1_556
Pt2 Pt4 2.740440 1_645
Pt2 Pt4 2.740440 1_555
Pt2 Pt4 2.740440 1_655
Pt2 Pt4 2.740440 1_545
Pt3 V0 2.662744 1_555
Pt3 V0 2.662744 1_455
Pt4 V0 2.662744 1_456
Pt4 V0 2.662744 1_556
