# generated using pymatgen
data_Ca4TaNbN6
_symmetry_space_group_name_H-M   'P 1'
_cell_length_a   6.10568328
_cell_length_b   6.10568467
_cell_length_c   12.08156906
_cell_angle_alpha   88.01132679
_cell_angle_beta   88.01134042
_cell_angle_gamma   121.92854890
_symmetry_Int_Tables_number   1
_chemical_formula_structural   Ca4TaNbN6
_chemical_formula_sum   'Ca8 Ta2 Nb2 N12'
_cell_volume   381.27429948
_cell_formula_units_Z   2
loop_
 _symmetry_equiv_pos_site_id
 _symmetry_equiv_pos_as_xyz
  1  'x, y, z'
loop_
 _atom_site_type_symbol
 _atom_site_label
 _atom_site_symmetry_multiplicity
 _atom_site_fract_x
 _atom_site_fract_y
 _atom_site_fract_z
 _atom_site_occupancy
  Ca  Ca0  1  0.59577526  0.83218908  0.07778730  1
  Ca  Ca1  1  0.47092891  0.06397214  0.36461260  1
  Ca  Ca2  1  0.05761914  0.46427903  0.86479299  1
  Ca  Ca3  1  0.53572097  0.94238086  0.63520701  1
  Ca  Ca4  1  0.40147655  0.16373084  0.92271391  1
  Ca  Ca5  1  0.83626916  0.59852345  0.57728609  1
  Ca  Ca6  1  0.16781092  0.40422474  0.42221270  1
  Ca  Ca7  1  0.93602786  0.52907109  0.13538740  1
  Ta  Ta0  1  0.76612942  0.77139839  0.83783105  1
  Ta  Ta1  1  0.22860161  0.23387058  0.66216895  1
  Nb  Nb0  1  0.23056231  0.22515797  0.16168621  1
  Nb  Nb1  1  0.77484203  0.76943769  0.33831379  1
  N  N0  1  0.10097469  0.89902531  0.75000000  1
  N  N1  1  0.89285576  0.10714424  0.25000000  1
  N  N2  1  0.48173788  0.51826212  0.75000000  1
  N  N3  1  0.52014299  0.47985701  0.25000000  1
  N  N4  1  0.30134174  0.97064494  0.11483265  1
  N  N5  1  0.02935506  0.69865826  0.38516735  1
  N  N6  1  0.69289526  0.02282124  0.88474777  1
  N  N7  1  0.97717876  0.30710474  0.61525223  1
  N  N8  1  0.78692408  0.59238910  0.96341326  1
  N  N9  1  0.59531799  0.78809926  0.46502384  1
  N  N10  1  0.21190074  0.40468201  0.03497616  1
  N  N11  1  0.40761090  0.21307592  0.53658674  1
loop_
_geom_bond_atom_site_label_1
_geom_bond_atom_site_label_2
_geom_bond_distance
_geom_bond_site_symmetry_2
Ca0 N4 2.392619 1_555
Ca0 N6 2.476129 1_564
Ca0 N10 2.506207 1_555
Ca0 N8 2.692798 1_554
Ca0 N1 2.778640 1_565
Ca0 N3 2.782418 1_555
Ca1 N11 2.396448 1_555
Ca1 N5 2.420761 1_545
Ca1 N9 2.482115 1_545
Ca1 N3 2.715801 1_555
Ca1 N1 2.762656 1_555
Ca2 N10 2.385850 1_556
Ca2 N6 2.418916 1_455
Ca2 N8 2.461421 1_455
Ca2 N2 2.748453 1_555
Ca2 N0 2.831125 1_555
Ca3 N9 2.385851 1_555
Ca3 N7 2.418916 1_565
Ca3 N11 2.461421 1_565
Ca3 N2 2.748454 1_555
Ca3 N0 2.831124 1_555
Ca4 N6 2.388824 1_555
Ca4 N4 2.469888 1_546
Ca4 N8 2.506985 1_555
Ca4 N10 2.678503 1_556
Ca4 N0 2.774144 1_545
Ca4 N2 2.788106 1_555
Ca5 N7 2.388824 1_555
Ca5 N5 2.469888 1_655
Ca5 N11 2.506985 1_555
Ca5 N9 2.678503 1_555
Ca5 N0 2.774144 1_655
Ca5 N2 2.788106 1_555
Ca6 N5 2.392619 1_555
Ca6 N7 2.476129 1_455
Ca6 N9 2.506207 1_555
Ca6 N11 2.692798 1_555
Ca6 N1 2.778640 1_455
Ca6 N3 2.782418 1_555
Ca7 N8 2.396447 1_554
Ca7 N4 2.420762 1_655
Ca7 N10 2.482115 1_655
Ca7 N3 2.715800 1_555
Ca7 N1 2.762656 1_555
N0 Ta0 2.004992 1_455
N0 Ta1 2.004992 1_565
N1 Nb0 2.032642 1_655
N1 Nb1 2.032642 1_545
N2 Ta0 1.983169 1_555
N2 Ta1 1.983169 1_555
N3 Nb0 2.005176 1_555
N3 Nb1 2.005176 1_555
N4 Nb0 1.917402 1_565
N5 Nb1 1.917401 1_455
N6 Ta0 1.909615 1_545
N7 Ta1 1.909614 1_655
N8 Ta0 1.886202 1_555
N9 Nb1 1.893601 1_555
N10 Nb0 1.893601 1_555
N11 Ta1 1.886202 1_555
