# generated using pymatgen
data_Rb7NbP4
_symmetry_space_group_name_H-M   'P 1'
_cell_length_a   8.48882447
_cell_length_b   9.34803864
_cell_length_c   10.45330772
_cell_angle_alpha   90.00000000
_cell_angle_beta   90.00000000
_cell_angle_gamma   90.00000000
_symmetry_Int_Tables_number   1
_chemical_formula_structural   Rb7NbP4
_chemical_formula_sum   'Rb14 Nb2 P8'
_cell_volume   829.51030769
_cell_formula_units_Z   2
loop_
 _symmetry_equiv_pos_site_id
 _symmetry_equiv_pos_as_xyz
  1  'x, y, z'
loop_
 _atom_site_type_symbol
 _atom_site_label
 _atom_site_symmetry_multiplicity
 _atom_site_fract_x
 _atom_site_fract_y
 _atom_site_fract_z
 _atom_site_occupancy
  Rb  Rb0  1  0.87570420  0.03549890  0.00000000  1
  Rb  Rb1  1  0.70624431  0.83375228  0.71412822  1
  Rb  Rb2  1  0.39492793  0.89707763  0.00000000  1
  Rb  Rb3  1  0.37570420  0.96450110  0.50000000  1
  Rb  Rb4  1  0.87503273  0.46812159  0.29093993  1
  Rb  Rb5  1  0.89492793  0.10292237  0.50000000  1
  Rb  Rb6  1  0.66258767  0.34254951  0.00000000  1
  Rb  Rb7  1  0.16258767  0.65745049  0.50000000  1
  Rb  Rb8  1  0.20624431  0.16624772  0.21412822  1
  Rb  Rb9  1  0.37503273  0.53187841  0.20906007  1
  Rb  Rb10  1  0.37503273  0.53187841  0.79093993  1
  Rb  Rb11  1  0.87503273  0.46812159  0.70906007  1
  Rb  Rb12  1  0.70624431  0.83375228  0.28587178  1
  Rb  Rb13  1  0.20624431  0.16624772  0.78587178  1
  Nb  Nb0  1  0.99865142  0.67473665  0.00000000  1
  Nb  Nb1  1  0.49865142  0.32526335  0.50000000  1
  P  P0  1  0.71430532  0.68607991  0.00000000  1
  P  P1  1  0.21430532  0.31392009  0.50000000  1
  P  P2  1  0.07265845  0.42317702  0.00000000  1
  P  P3  1  0.57265845  0.57682298  0.50000000  1
  P  P4  1  0.08985596  0.80116841  0.19309061  1
  P  P5  1  0.58985596  0.19883159  0.30690939  1
  P  P6  1  0.58985596  0.19883159  0.69309061  1
  P  P7  1  0.08985596  0.80116841  0.80690939  1
loop_
_geom_bond_atom_site_label_1
_geom_bond_atom_site_label_2
_geom_bond_distance
_geom_bond_site_symmetry_2
Nb0 P0 2.416092 1_555
Nb0 P2 2.434060 1_655
Nb0 P4 2.463810 1_655
Nb0 P7 2.463810 1_654
Nb1 P1 2.416092 1_555
Nb1 P3 2.434060 1_555
Nb1 P5 2.463810 1_555
Nb1 P6 2.463810 1_555
P0 Rb6 3.241206 1_555
P0 Rb12 3.292459 1_555
P0 Rb1 3.292459 1_554
P0 Rb2 3.352714 1_555
P0 Rb0 3.542088 1_565
P1 Rb7 3.241206 1_555
P1 Rb13 3.292459 1_555
P1 Rb8 3.292459 1_555
P1 Rb5 3.352714 1_455
P1 Rb3 3.542088 1_545
P2 Rb8 3.473428 1_555
P2 Rb13 3.473428 1_554
P2 Rb4 3.498615 1_455
P2 Rb11 3.498615 1_454
P2 Rb9 3.520918 1_555
P2 Rb10 3.520918 1_554
P2 Rb6 3.561681 1_455
P3 Rb1 3.473428 1_555
P3 Rb12 3.473428 1_555
P3 Rb10 3.498615 1_555
P3 Rb9 3.498615 1_555
P3 Rb11 3.520918 1_555
P3 Rb4 3.520918 1_555
P3 Rb7 3.561681 1_555
P4 Rb2 3.403596 1_555
P4 Rb12 3.411399 1_455
P4 Rb0 3.489592 1_465
P4 Rb9 3.496453 1_555
P4 Rb7 3.532534 1_555
P4 Rb8 3.559711 1_565
P4 Rb4 3.750277 1_455
P5 Rb5 3.403596 1_555
P5 Rb8 3.411399 1_555
P5 Rb3 3.489592 1_545
P5 Rb4 3.496453 1_555
P5 Rb6 3.532534 1_555
P5 Rb12 3.559711 1_545
P5 Rb9 3.750277 1_555
P6 Rb5 3.403596 1_555
P6 Rb13 3.411399 1_555
P6 Rb3 3.489592 1_545
P6 Rb11 3.496453 1_555
P6 Rb6 3.532534 1_556
P6 Rb1 3.559711 1_545
P6 Rb10 3.750277 1_555
P7 Rb2 3.403596 1_556
P7 Rb1 3.411399 1_455
P7 Rb0 3.489592 1_466
P7 Rb10 3.496453 1_555
P7 Rb7 3.532534 1_555
P7 Rb13 3.559711 1_565
P7 Rb11 3.750277 1_455
