# generated using pymatgen
data_Nb3Al2CoC
_symmetry_space_group_name_H-M   'P 1'
_cell_length_a   8.22117817
_cell_length_b   8.22117833
_cell_length_c   8.22117890
_cell_angle_alpha   60.00000173
_cell_angle_beta   60.00000106
_cell_angle_gamma   60.00000137
_symmetry_Int_Tables_number   1
_chemical_formula_structural   Nb3Al2CoC
_chemical_formula_sum   'Nb12 Al8 Co4 C4'
_cell_volume   392.90471801
_cell_formula_units_Z   4
loop_
 _symmetry_equiv_pos_site_id
 _symmetry_equiv_pos_as_xyz
  1  'x, y, z'
loop_
 _atom_site_type_symbol
 _atom_site_label
 _atom_site_symmetry_multiplicity
 _atom_site_fract_x
 _atom_site_fract_y
 _atom_site_fract_z
 _atom_site_occupancy
  Nb  Nb0  1  0.68981906  0.31018094  0.68981906  1
  Nb  Nb1  1  0.93981906  0.56018094  0.56018094  1
  Nb  Nb2  1  0.56018094  0.93981906  0.93981906  1
  Nb  Nb3  1  0.93981906  0.56018094  0.93981906  1
  Nb  Nb4  1  0.56018094  0.56018094  0.93981906  1
  Nb  Nb5  1  0.93981906  0.93981906  0.56018094  1
  Nb  Nb6  1  0.68981906  0.68981906  0.31018094  1
  Nb  Nb7  1  0.31018094  0.68981906  0.68981906  1
  Nb  Nb8  1  0.68981906  0.31018094  0.31018094  1
  Nb  Nb9  1  0.31018094  0.31018094  0.68981906  1
  Nb  Nb10  1  0.56018094  0.93981906  0.56018094  1
  Nb  Nb11  1  0.31018094  0.68981906  0.31018094  1
  Al  Al0  1  0.33128605  0.33128605  0.33128605  1
  Al  Al1  1  0.24385614  0.91871395  0.91871395  1
  Al  Al2  1  0.91871395  0.24385614  0.91871395  1
  Al  Al3  1  0.91871395  0.91871395  0.24385614  1
  Al  Al4  1  0.33128605  0.00614386  0.33128605  1
  Al  Al5  1  0.33128605  0.33128605  0.00614386  1
  Al  Al6  1  0.00614386  0.33128605  0.33128605  1
  Al  Al7  1  0.91871395  0.91871395  0.91871395  1
  Co  Co0  1  0.12500000  0.12500000  0.12500000  1
  Co  Co1  1  0.62500000  0.12500000  0.12500000  1
  Co  Co2  1  0.12500000  0.62500000  0.12500000  1
  Co  Co3  1  0.12500000  0.12500000  0.62500000  1
  C  C0  1  0.62500000  0.62500000  0.62500000  1
  C  C1  1  0.12500000  0.62500000  0.62500000  1
  C  C2  1  0.62500000  0.12500000  0.62500000  1
  C  C3  1  0.62500000  0.62500000  0.12500000  1
loop_
_geom_bond_atom_site_label_1
_geom_bond_atom_site_label_2
_geom_bond_distance
_geom_bond_site_symmetry_2
Al0 Co3 2.503771 1_555
Al0 Co1 2.503771 1_555
Al0 Co2 2.503771 1_555
Al1 Co2 2.503762 1_556
Al1 Co3 2.503762 1_565
Al1 Co0 2.503776 1_566
Al2 Co1 2.503762 1_556
Al2 Co3 2.503762 1_655
Al2 Co0 2.503775 1_656
Al3 Co1 2.503762 1_565
Al3 Co2 2.503762 1_655
Al3 Co0 2.503775 1_665
Al4 Co1 2.503762 1_555
Al4 Co3 2.503762 1_555
Al4 Co0 2.503775 1_555
Al5 Co1 2.503762 1_555
Al5 Co2 2.503762 1_555
Al5 Co0 2.503775 1_555
Al6 Co2 2.503762 1_555
Al6 Co3 2.503762 1_555
Al6 Co0 2.503776 1_555
Al7 Co3 2.503771 1_665
Al7 Co1 2.503771 1_566
Al7 Co2 2.503771 1_656
Co0 Nb2 2.976520 1_544
Co0 Nb8 2.976520 1_455
Co0 Nb11 2.976520 1_545
Co0 Nb3 2.976520 1_454
Co0 Nb5 2.976521 1_445
Co0 Nb9 2.976521 1_554
Co1 Nb8 2.976520 1_555
Co1 Nb2 2.976520 1_544
Co1 Nb4 2.976520 1_554
Co1 Nb6 2.976520 1_545
Co1 Nb10 2.976521 1_545
Co1 Nb0 2.976521 1_554
Co2 Nb4 2.976520 1_554
Co2 Nb6 2.976520 1_455
Co2 Nb11 2.976520 1_555
Co2 Nb3 2.976520 1_454
Co2 Nb1 2.976521 1_455
Co2 Nb7 2.976521 1_554
Co3 Nb9 2.976520 1_555
Co3 Nb5 2.976520 1_445
Co3 Nb10 2.976520 1_545
Co3 Nb0 2.976520 1_455
Co3 Nb1 2.976520 1_455
Co3 Nb7 2.976520 1_545
C0 Nb1 2.189104 1_555
C0 Nb7 2.189104 1_555
C0 Nb10 2.189104 1_555
C0 Nb0 2.189104 1_555
C0 Nb4 2.189104 1_555
C0 Nb6 2.189104 1_555
C1 Nb7 2.189104 1_555
C1 Nb1 2.189104 1_455
C1 Nb5 2.189104 1_455
C1 Nb9 2.189104 1_555
C1 Nb3 2.189104 1_455
C1 Nb11 2.189104 1_555
C2 Nb0 2.189104 1_555
C2 Nb10 2.189104 1_545
C2 Nb5 2.189104 1_545
C2 Nb9 2.189104 1_555
C2 Nb2 2.189104 1_545
C2 Nb8 2.189104 1_555
C3 Nb3 2.189104 1_554
C3 Nb11 2.189104 1_555
C3 Nb6 2.189104 1_555
C3 Nb4 2.189104 1_554
C3 Nb2 2.189104 1_554
C3 Nb8 2.189104 1_555
