# generated using pymatgen
data_Ca5Bi3H
_symmetry_space_group_name_H-M   'P 1'
_cell_length_a   6.98284188
_cell_length_b   9.16761033
_cell_length_c   9.16761032
_cell_angle_alpha   119.99999290
_cell_angle_beta   90.00000000
_cell_angle_gamma   90.00000000
_symmetry_Int_Tables_number   1
_chemical_formula_structural   Ca5Bi3H
_chemical_formula_sum   'Ca10 Bi6 H2'
_cell_volume   508.24739436
_cell_formula_units_Z   2
loop_
 _symmetry_equiv_pos_site_id
 _symmetry_equiv_pos_as_xyz
  1  'x, y, z'
loop_
 _atom_site_type_symbol
 _atom_site_label
 _atom_site_symmetry_multiplicity
 _atom_site_fract_x
 _atom_site_fract_y
 _atom_site_fract_z
 _atom_site_occupancy
  Ca  Ca0  1  0.50000000  0.33333300  0.66666700  1
  Ca  Ca1  1  0.50000000  0.66666600  0.33333300  1
  Ca  Ca2  1  0.00000000  0.66666700  0.33333300  1
  Ca  Ca3  1  0.00000000  0.33333400  0.66666700  1
  Ca  Ca4  1  0.75000000  0.24079201  1.00000000  1
  Ca  Ca5  1  0.75000000  0.75920799  0.75920799  1
  Ca  Ca6  1  0.75000000  1.00000000  0.24079201  1
  Ca  Ca7  1  0.25000000  0.75920799  0.00000000  1
  Ca  Ca8  1  0.25000000  0.24079201  0.24079201  1
  Ca  Ca9  1  0.25000000  0.00000000  0.75920799  1
  Bi  Bi0  1  0.75000000  0.60884251  0.00000000  1
  Bi  Bi1  1  0.75000000  0.39115749  0.39115749  1
  Bi  Bi2  1  0.75000000  0.00000000  0.60884251  1
  Bi  Bi3  1  0.25000000  0.39115749  0.00000000  1
  Bi  Bi4  1  0.25000000  0.60884251  0.60884251  1
  Bi  Bi5  1  0.25000000  0.00000000  0.39115749  1
  H  H0  1  0.50000000  0.00000000  0.00000000  1
  H  H1  1  0.00000000  0.00000000  0.00000000  1
loop_
_geom_bond_atom_site_label_1
_geom_bond_atom_site_label_2
_geom_bond_distance
_geom_bond_site_symmetry_2
Ca4 H0 2.814339 1_556
Ca4 H1 2.814339 1_656
Ca5 H1 2.814339 1_666
Ca5 H0 2.814339 1_566
Ca6 H1 2.814339 1_665
Ca6 H0 2.814339 1_565
Ca7 H0 2.814339 1_565
Ca7 H1 2.814339 1_565
Ca8 H0 2.814339 1_555
Ca8 H1 2.814339 1_555
Ca9 H0 2.814339 1_556
Ca9 H1 2.814339 1_556
Bi0 Ca5 3.133089 1_554
Bi0 Ca6 3.133089 1_555
Bi0 Ca2 3.323687 1_655
Bi0 Ca3 3.323687 1_654
Bi0 Ca1 3.323690 1_555
Bi0 Ca0 3.323690 1_554
Bi0 Ca4 3.374144 1_554
Bi0 Ca7 3.753700 1_655
Bi0 Ca7 3.753700 1_555
Bi1 Ca4 3.133089 1_554
Bi1 Ca6 3.133089 1_545
Bi1 Ca1 3.323687 1_555
Bi1 Ca3 3.323690 1_655
Bi1 Ca0 3.323695 1_555
Bi1 Ca2 3.323695 1_655
Bi1 Ca5 3.374144 1_555
Bi1 Ca8 3.753700 1_555
Bi1 Ca8 3.753700 1_655
Bi2 Ca5 3.133089 1_545
Bi2 Ca4 3.133089 1_555
Bi2 Ca0 3.323687 1_555
Bi2 Ca2 3.323690 1_645
Bi2 Ca3 3.323695 1_655
Bi2 Ca1 3.323695 1_545
Bi2 Ca6 3.374144 1_545
Bi2 Ca9 3.753700 1_555
Bi2 Ca9 3.753700 1_655
Bi3 Ca8 3.133089 1_555
Bi3 Ca9 3.133089 1_554
Bi3 Ca0 3.323687 1_554
Bi3 Ca1 3.323687 1_555
Bi3 Ca3 3.323690 1_554
Bi3 Ca2 3.323690 1_555
Bi3 Ca7 3.374144 1_555
Bi3 Ca4 3.753700 1_454
Bi3 Ca4 3.753700 1_554
Bi4 Ca7 3.133089 1_556
Bi4 Ca9 3.133089 1_565
Bi4 Ca3 3.323687 1_555
Bi4 Ca1 3.323690 1_555
Bi4 Ca2 3.323695 1_555
Bi4 Ca0 3.323695 1_555
Bi4 Ca8 3.374144 1_555
Bi4 Ca5 3.753700 1_455
Bi4 Ca5 3.753700 1_555
Bi5 Ca8 3.133089 1_555
Bi5 Ca7 3.133089 1_545
Bi5 Ca2 3.323687 1_545
Bi5 Ca0 3.323690 1_555
Bi5 Ca1 3.323695 1_545
Bi5 Ca3 3.323695 1_555
Bi5 Ca9 3.374144 1_555
Bi5 Ca6 3.753700 1_445
Bi5 Ca6 3.753700 1_545
