# generated using pymatgen
data_Nb4Ag2Se4O19
_symmetry_space_group_name_H-M   'P 1'
_cell_length_a   3.97259456
_cell_length_b   10.26494361
_cell_length_c   11.04343473
_cell_angle_alpha   106.55306071
_cell_angle_beta   89.88027943
_cell_angle_gamma   98.32252757
_symmetry_Int_Tables_number   1
_chemical_formula_structural   Nb4Ag2Se4O19
_chemical_formula_sum   'Nb4 Ag2 Se4 O19'
_cell_volume   426.76078511
_cell_formula_units_Z   1
loop_
 _symmetry_equiv_pos_site_id
 _symmetry_equiv_pos_as_xyz
  1  'x, y, z'
loop_
 _atom_site_type_symbol
 _atom_site_label
 _atom_site_symmetry_multiplicity
 _atom_site_fract_x
 _atom_site_fract_y
 _atom_site_fract_z
 _atom_site_occupancy
  Nb  Nb0  1  0.33346175  0.18526589  0.70252669  1
  Nb  Nb1  1  0.66653825  0.81473411  0.29747331  1
  Nb  Nb2  1  0.57029612  0.55527770  0.68211520  1
  Nb  Nb3  1  0.42970388  0.44472230  0.31788480  1
  Ag  Ag0  1  0.80227130  0.94371432  0.86491371  1
  Ag  Ag1  1  0.19772870  0.05628568  0.13508629  1
  Se  Se0  1  0.34668478  0.82353436  0.58442528  1
  Se  Se1  1  0.65331522  0.17646564  0.41557472  1
  Se  Se2  1  0.29359091  0.71434264  0.98829524  1
  Se  Se3  1  0.70640909  0.28565736  0.01170476  1
  O  O0  1  0.64962958  0.87932356  0.49089175  1
  O  O1  1  0.35037042  0.12067644  0.50910825  1
  O  O2  1  0.30519810  0.97408641  0.69522900  1
  O  O3  1  0.69480190  0.02591359  0.30477100  1
  O  O4  1  0.60937961  0.76657661  0.67463382  1
  O  O5  1  0.39062039  0.23342339  0.32536618  1
  O  O6  1  0.56962475  0.64710835  0.87591841  1
  O  O7  1  0.43037525  0.35289165  0.12408159  1
  O  O8  1  0.61002849  0.77092755  0.10992713  1
  O  O9  1  0.38997151  0.22907245  0.89007287  1
  O  O10  1  0.26053401  0.86488928  0.96139884  1
  O  O11  1  0.73946599  0.13511072  0.03860116  1
  O  O12  1  0.87083677  0.17513988  0.70407587  1
  O  O13  1  0.12916323  0.82486012  0.29592413  1
  O  O14  1  0.45790547  0.37211572  0.69807027  1
  O  O15  1  0.54209453  0.62788428  0.30192973  1
  O  O16  1  0.50000000  0.50000000  0.50000000  1
  O  O17  1  0.03738670  0.57618535  0.69362776  1
  O  O18  1  0.96261330  0.42381465  0.30637224  1
loop_
_geom_bond_atom_site_label_1
_geom_bond_atom_site_label_2
_geom_bond_distance
_geom_bond_site_symmetry_2
Nb0 O12 1.825997 1_455
Nb0 O14 1.924771 1_555
Nb0 O9 1.996075 1_555
Nb0 O1 2.052302 1_555
Nb0 O2 2.132663 1_545
Nb0 O12 2.152616 1_555
Nb1 O13 1.825997 1_655
Nb1 O15 1.924771 1_555
Nb1 O8 1.996075 1_555
Nb1 O0 2.052302 1_555
Nb1 O3 2.132663 1_565
Nb1 O13 2.152616 1_555
Nb2 O17 1.837250 1_655
Nb2 O14 1.926336 1_555
Nb2 O16 1.936752 1_555
Nb2 O6 2.078554 1_555
Nb2 O17 2.158451 1_555
Nb2 O4 2.177140 1_555
Nb3 O18 1.837250 1_455
Nb3 O15 1.926336 1_555
Nb3 O16 1.936752 1_555
Nb3 O7 2.078554 1_555
Nb3 O18 2.158451 1_555
Nb3 O5 2.177140 1_555
Ag0 O11 2.365151 1_566
Ag0 O4 2.394845 1_555
Ag0 O10 2.455612 1_655
Ag0 O10 2.529658 1_555
Ag1 O10 2.365151 1_544
Ag1 O5 2.394845 1_555
Ag1 O11 2.455612 1_455
Ag1 O11 2.529658 1_555
O0 Se0 1.724994 1_555
O1 Se1 1.724994 1_555
O2 Se0 1.705326 1_555
O3 Se1 1.705326 1_555
O4 Se0 1.713533 1_555
O5 Se1 1.713533 1_555
O6 Se2 1.715893 1_555
O7 Se3 1.715893 1_555
O8 Se2 1.753002 1_554
O9 Se3 1.753002 1_556
O10 Se2 1.677512 1_555
O11 Se3 1.677512 1_555
