# generated using pymatgen
data_BaLuGe4N7
_symmetry_space_group_name_H-M   'P 1'
_cell_length_a   6.24194911
_cell_length_b   6.24194940
_cell_length_c   10.18992924
_cell_angle_alpha   90.00000000
_cell_angle_beta   90.00000000
_cell_angle_gamma   120.00000364
_symmetry_Int_Tables_number   1
_chemical_formula_structural   BaLuGe4N7
_chemical_formula_sum   'Ba2 Lu2 Ge8 N14'
_cell_volume   343.82879947
_cell_formula_units_Z   2
loop_
 _symmetry_equiv_pos_site_id
 _symmetry_equiv_pos_as_xyz
  1  'x, y, z'
loop_
 _atom_site_type_symbol
 _atom_site_label
 _atom_site_symmetry_multiplicity
 _atom_site_fract_x
 _atom_site_fract_y
 _atom_site_fract_z
 _atom_site_occupancy
  Ba  Ba0  1  0.33333300  0.66666700  0.36349318  1
  Ba  Ba1  1  0.66666700  0.33333300  0.86349318  1
  Lu  Lu0  1  0.33333300  0.66666700  0.73664343  1
  Lu  Lu1  1  0.66666700  0.33333300  0.23664343  1
  Ge  Ge0  1  0.82646658  0.65293216  0.54717622  1
  Ge  Ge1  1  0.17353342  0.82646658  0.04717622  1
  Ge  Ge2  1  0.65293216  0.82646658  0.04717622  1
  Ge  Ge3  1  0.34706784  0.17353342  0.54717622  1
  Ge  Ge4  1  0.82646658  0.17353342  0.54717622  1
  Ge  Ge5  1  0.17353342  0.34706784  0.04717622  1
  Ge  Ge6  1  0.00000000  0.00000000  0.81127904  1
  Ge  Ge7  1  0.00000000  0.00000000  0.31127904  1
  N  N0  1  0.00000000  0.00000000  0.61891676  1
  N  N1  1  0.00000000  0.00000000  0.11891676  1
  N  N2  1  0.16025085  0.32050171  0.86748510  1
  N  N3  1  0.83974915  0.16025085  0.36748510  1
  N  N4  1  0.32050171  0.16025085  0.36748510  1
  N  N5  1  0.67949829  0.83974915  0.86748510  1
  N  N6  1  0.16025085  0.83974915  0.86748510  1
  N  N7  1  0.83974915  0.67949829  0.36748510  1
  N  N8  1  0.99039780  0.49519940  0.60652754  1
  N  N9  1  0.49519940  0.99039780  0.10652754  1
  N  N10  1  0.49519940  0.50480060  0.10652754  1
  N  N11  1  0.50480060  0.49519940  0.60652754  1
  N  N12  1  0.00960220  0.50480060  0.10652754  1
  N  N13  1  0.50480060  0.00960220  0.60652754  1
loop_
_geom_bond_atom_site_label_1
_geom_bond_atom_site_label_2
_geom_bond_distance
_geom_bond_site_symmetry_2
Ba0 N8 3.093484 1_455
Ba0 N13 3.093484 1_565
Ba0 N11 3.093484 1_555
Ba0 N7 3.122007 1_455
Ba0 N4 3.122007 1_565
Ba0 N3 3.122010 1_565
Ba0 N3 3.122010 1_455
Ba0 N7 3.122013 1_555
Ba0 N4 3.122013 1_555
Ba0 N12 3.149412 1_555
Ba0 N9 3.149412 1_555
Ba0 N10 3.149418 1_555
Ba1 N12 3.093484 1_656
Ba1 N9 3.093484 1_546
Ba1 N10 3.093484 1_556
Ba1 N2 3.122007 1_655
Ba1 N5 3.122007 1_545
Ba1 N6 3.122010 1_545
Ba1 N6 3.122010 1_655
Ba1 N2 3.122013 1_555
Ba1 N5 3.122013 1_555
Ba1 N8 3.149412 1_555
Ba1 N13 3.149412 1_555
Ba1 N11 3.149418 1_555
Lu0 N8 2.279147 1_455
Lu0 N13 2.279147 1_565
Lu0 N11 2.279147 1_555
Lu0 N6 2.297651 1_555
Lu0 N5 2.297655 1_555
Lu0 N2 2.297655 1_555
Lu1 N12 2.279147 1_655
Lu1 N9 2.279147 1_545
Lu1 N10 2.279147 1_555
Lu1 N3 2.297651 1_555
Lu1 N4 2.297655 1_555
Lu1 N7 2.297655 1_555
Ge0 N7 1.836663 1_555
Ge0 N8 1.841091 1_555
Ge0 N11 1.841101 1_555
Ge0 N0 2.013531 1_665
Ge1 N6 1.836662 1_554
Ge1 N9 1.841101 1_555
Ge1 N12 1.841101 1_555
Ge1 N1 2.013526 1_565
Ge2 N5 1.836663 1_554
Ge2 N9 1.841091 1_555
Ge2 N10 1.841101 1_555
Ge2 N1 2.013531 1_665
Ge3 N4 1.836663 1_555
Ge3 N13 1.841091 1_555
Ge3 N11 1.841101 1_555
Ge3 N0 2.013531 1_555
Ge4 N3 1.836662 1_555
Ge4 N13 1.841101 1_555
Ge4 N8 1.841101 1_555
Ge4 N0 2.013526 1_655
Ge5 N2 1.836663 1_554
Ge5 N12 1.841091 1_555
Ge5 N10 1.841101 1_555
Ge5 N1 2.013531 1_555
Ge6 N5 1.824744 1_445
Ge6 N2 1.824745 1_555
Ge6 N6 1.824745 1_545
Ge6 N0 1.960158 1_555
Ge7 N4 1.824744 1_555
Ge7 N7 1.824745 1_445
Ge7 N3 1.824745 1_455
Ge7 N1 1.960158 1_555
