# generated using pymatgen
data_Sr2Al9Ir2Au
_symmetry_space_group_name_H-M   'P 1'
_cell_length_a   7.65211451
_cell_length_b   7.65211538
_cell_length_c   9.72966885
_cell_angle_alpha   90.00000000
_cell_angle_beta   90.00000000
_cell_angle_gamma   118.83573543
_symmetry_Int_Tables_number   1
_chemical_formula_structural   Sr2Al9Ir2Au
_chemical_formula_sum   'Sr4 Al18 Ir4 Au2'
_cell_volume   499.07765976
_cell_formula_units_Z   2
loop_
 _symmetry_equiv_pos_site_id
 _symmetry_equiv_pos_as_xyz
  1  'x, y, z'
loop_
 _atom_site_type_symbol
 _atom_site_label
 _atom_site_symmetry_multiplicity
 _atom_site_fract_x
 _atom_site_fract_y
 _atom_site_fract_z
 _atom_site_occupancy
  Sr  Sr0  1  0.99788901  0.67953961  0.75000000  1
  Sr  Sr1  1  0.00211099  0.32046039  0.25000000  1
  Sr  Sr2  1  0.67953961  0.99788901  0.75000000  1
  Sr  Sr3  1  0.32046039  0.00211099  0.25000000  1
  Al  Al0  1  0.14879661  0.14879661  0.75000000  1
  Al  Al1  1  0.85120339  0.85120339  0.25000000  1
  Al  Al2  1  0.00596954  0.34748389  0.57235682  1
  Al  Al3  1  0.99403046  0.65251611  0.42764318  1
  Al  Al4  1  0.99403046  0.65251611  0.07235682  1
  Al  Al5  1  0.34748389  0.00596954  0.92764318  1
  Al  Al6  1  0.00596954  0.34748389  0.92764318  1
  Al  Al7  1  0.65251611  0.99403046  0.07235682  1
  Al  Al8  1  0.65251611  0.99403046  0.42764318  1
  Al  Al9  1  0.34748389  0.00596954  0.57235682  1
  Al  Al10  1  0.34271168  0.34271168  0.04396107  1
  Al  Al11  1  0.65728832  0.65728832  0.95603893  1
  Al  Al12  1  0.65728832  0.65728832  0.54396107  1
  Al  Al13  1  0.34271168  0.34271168  0.45603893  1
  Al  Al14  1  0.34018516  0.54991378  0.75000000  1
  Al  Al15  1  0.65981484  0.45008622  0.25000000  1
  Al  Al16  1  0.54991378  0.34018516  0.75000000  1
  Al  Al17  1  0.45008622  0.65981484  0.25000000  1
  Ir  Ir0  1  0.67034041  0.32965959  0.50000000  1
  Ir  Ir1  1  0.32965959  0.67034041  0.50000000  1
  Ir  Ir2  1  0.32965959  0.67034041  0.00000000  1
  Ir  Ir3  1  0.67034041  0.32965959  0.00000000  1
  Au  Au0  1  0.00000000  0.00000000  0.50000000  1
  Au  Au1  1  0.00000000  0.00000000  0.00000000  1
loop_
_geom_bond_atom_site_label_1
_geom_bond_atom_site_label_2
_geom_bond_distance
_geom_bond_site_symmetry_2
Al0 Al16 2.688855 1_555
Al0 Al14 2.688855 1_555
Al0 Au0 2.694249 1_555
Al0 Au1 2.694249 1_556
Al0 Al5 2.845397 1_555
Al0 Al9 2.845397 1_555
Al0 Al6 2.845397 1_555
Al0 Al2 2.845397 1_555
Al0 Sr2 3.198068 1_445
Al0 Sr0 3.198068 1_445
Al1 Al17 2.688855 1_555
Al1 Al15 2.688855 1_555
Al1 Au1 2.694249 1_665
Al1 Au0 2.694249 1_665
Al1 Al8 2.845397 1_555
Al1 Al7 2.845397 1_555
Al1 Al3 2.845397 1_555
Al1 Al4 2.845397 1_555
Al1 Sr3 3.198068 1_665
Al1 Sr1 3.198068 1_665
Al2 Ir0 2.602375 1_455
Al2 Ir1 2.613731 1_555
Al2 Au0 2.729609 1_555
Al2 Al3 2.764918 1_455
Al2 Al8 3.091389 1_445
Al2 Sr0 3.098240 1_455
Al2 Sr1 3.142436 1_555
Al2 Sr2 3.152387 1_445
Al3 Ir1 2.602375 1_655
Al3 Ir0 2.613731 1_555
Al3 Au0 2.729609 1_665
Al3 Al9 3.091389 1_665
Al3 Sr1 3.098240 1_655
Al3 Sr0 3.142436 1_555
Al3 Sr3 3.152387 1_665
Al4 Ir2 2.602375 1_655
Al4 Ir3 2.613731 1_555
Al4 Au1 2.729609 1_665
Al4 Al6 2.764918 1_654
Al4 Al5 3.091389 1_664
Al4 Sr1 3.098240 1_655
Al4 Sr0 3.142436 1_554
Al4 Sr3 3.152387 1_665
Al5 Ir2 2.602376 1_546
Al5 Ir3 2.613731 1_556
Al5 Au1 2.729608 1_556
Al5 Al7 2.764917 1_546
Al5 Sr2 3.098240 1_545
Al5 Sr3 3.142436 1_556
Al5 Sr0 3.152387 1_445
Al6 Ir3 2.602375 1_456
Al6 Ir2 2.613731 1_556
Al6 Au1 2.729609 1_556
Al6 Al7 3.091389 1_446
Al6 Sr0 3.098240 1_455
Al6 Sr1 3.142436 1_556
Al6 Sr2 3.152387 1_445
Al7 Ir3 2.602376 1_565
Al7 Ir2 2.613731 1_555
Al7 Au1 2.729608 1_665
Al7 Sr3 3.098240 1_565
Al7 Sr2 3.142436 1_554
Al7 Sr1 3.152387 1_665
Al8 Ir0 2.602376 1_565
Al8 Ir1 2.613731 1_555
Al8 Au0 2.729608 1_665
Al8 Al9 2.764917 1_565
Al8 Sr3 3.098240 1_565
Al8 Sr2 3.142436 1_555
Al8 Sr1 3.152387 1_665
Al9 Ir1 2.602376 1_545
Al9 Ir0 2.613731 1_555
Al9 Au0 2.729608 1_555
Al9 Sr2 3.098240 1_545
Al9 Sr3 3.142436 1_555
Al9 Sr0 3.152387 1_445
Al10 Ir3 2.592252 1_555
Al10 Ir2 2.592252 1_555
Al10 Al11 2.594499 1_554
Al10 Au1 2.702545 1_555
Al10 Al6 2.830683 1_554
Al10 Al5 2.830683 1_554
Al10 Al15 2.942564 1_555
Al10 Al17 2.942564 1_555
Al10 Sr1 3.226855 1_555
Al10 Sr3 3.226855 1_555
Al11 Ir2 2.592252 1_556
Al11 Ir3 2.592252 1_556
Al11 Au1 2.702545 1_666
Al11 Al4 2.830683 1_556
Al11 Al7 2.830683 1_556
Al11 Al14 2.942564 1_555
Al11 Al16 2.942564 1_555
Al11 Sr0 3.226855 1_555
Al11 Sr2 3.226855 1_555
Al12 Ir1 2.592252 1_555
Al12 Ir0 2.592252 1_555
Al12 Al13 2.594499 1_555
Al12 Au0 2.702545 1_665
Al12 Al3 2.830683 1_555
Al12 Al8 2.830683 1_555
Al12 Al14 2.942564 1_555
Al12 Al16 2.942564 1_555
Al12 Sr0 3.226855 1_555
Al12 Sr2 3.226855 1_555
Al13 Ir0 2.592252 1_555
Al13 Ir1 2.592252 1_555
Al13 Au0 2.702545 1_555
Al13 Al2 2.830683 1_555
Al13 Al9 2.830683 1_555
Al13 Al15 2.942564 1_555
Al13 Al17 2.942564 1_555
Al13 Sr1 3.226855 1_555
Al13 Sr3 3.226855 1_555
Al14 Ir2 2.616091 1_556
Al14 Ir1 2.616091 1_555
Al14 Al16 2.763263 1_555
Al14 Al6 2.847126 1_555
Al14 Al2 2.847126 1_555
Al14 Sr2 3.147638 1_555
Al14 Sr0 3.217250 1_455
Al15 Ir3 2.616091 1_555
Al15 Ir0 2.616091 1_555
Al15 Al17 2.763263 1_555
Al15 Al3 2.847126 1_555
Al15 Al4 2.847126 1_555
Al15 Sr3 3.147638 1_555
Al15 Sr1 3.217250 1_655
Al16 Ir0 2.616091 1_555
Al16 Ir3 2.616091 1_556
Al16 Al5 2.847127 1_555
Al16 Al9 2.847127 1_555
Al16 Sr0 3.147638 1_555
Al16 Sr2 3.217250 1_545
Al17 Ir2 2.616091 1_555
Al17 Ir1 2.616091 1_555
Al17 Al8 2.847127 1_555
Al17 Al7 2.847127 1_555
Al17 Sr1 3.147638 1_555
Al17 Sr3 3.217250 1_565
