# generated using pymatgen
data_YBPPt8
_symmetry_space_group_name_H-M   'P 1'
_cell_length_a   6.19647800
_cell_length_b   6.19647963
_cell_length_c   9.19175820
_cell_angle_alpha   55.18031161
_cell_angle_beta   55.18031352
_cell_angle_gamma   37.30135489
_symmetry_Int_Tables_number   1
_chemical_formula_structural   YBPPt8
_chemical_formula_sum   'Y1 B1 P1 Pt8'
_cell_volume   170.67707084
_cell_formula_units_Z   1
loop_
 _symmetry_equiv_pos_site_id
 _symmetry_equiv_pos_as_xyz
  1  'x, y, z'
loop_
 _atom_site_type_symbol
 _atom_site_label
 _atom_site_symmetry_multiplicity
 _atom_site_fract_x
 _atom_site_fract_y
 _atom_site_fract_z
 _atom_site_occupancy
  Y  Y0  1  0.49648355  0.49648355  0.51517747  1
  B  B0  1  0.05415952  0.05415952  0.70806308  1
  P  P0  1  0.94304864  0.94304864  0.29479106  1
  Pt  Pt0  1  0.21762991  0.21762991  0.42603399  1
  Pt  Pt1  1  0.83018043  0.83018043  0.83648611  1
  Pt  Pt2  1  0.18122903  0.18122903  0.15570250  1
  Pt  Pt3  1  0.15805200  0.15805200  0.84540199  1
  Pt  Pt4  1  0.48187529  0.48187529  0.85597175  1
  Pt  Pt5  1  0.52792122  0.52792122  0.12838633  1
  Pt  Pt6  1  0.76713854  0.76713854  0.58973081  1
  Pt  Pt7  1  0.84228388  0.84228388  0.14425390  1
loop_
_geom_bond_atom_site_label_1
_geom_bond_atom_site_label_2
_geom_bond_distance
_geom_bond_site_symmetry_2
B0 Pt0 2.099337 1_555
B0 Pt1 2.137394 1_445
B0 Pt3 2.222157 1_555
B0 Pt4 2.259369 1_545
B0 Pt4 2.259369 1_455
B0 Y0 2.996006 1_455
B0 Y0 2.996007 1_545
P0 Pt6 2.206088 1_555
P0 Pt2 2.268640 1_665
P0 Pt7 2.299535 1_555
P0 Pt5 2.328577 1_655
P0 Pt5 2.328577 1_565
P0 Y0 3.155323 1_655
P0 Y0 3.155324 1_565
Pt0 Y0 2.962551 1_455
Pt0 Y0 2.962553 1_545
Pt1 Y0 3.084056 1_655
Pt1 Y0 3.084056 1_565
Pt2 Y0 3.303210 1_455
Pt2 Y0 3.303210 1_545
Pt3 Y0 3.235261 1_555
Pt4 Y0 3.032217 1_555
Pt5 Y0 3.345821 1_555
Pt6 Y0 3.069916 1_655
Pt6 Y0 3.069917 1_565
Pt7 Y0 3.380190 1_555
