# generated using pymatgen
data_Cs6(RhO3)5
_symmetry_space_group_name_H-M   'P 1'
_cell_length_a   7.88638584
_cell_length_b   7.88680193
_cell_length_c   7.89517097
_cell_angle_alpha   92.13855271
_cell_angle_beta   92.14177009
_cell_angle_gamma   92.04830767
_symmetry_Int_Tables_number   1
_chemical_formula_structural   Cs6(RhO3)5
_chemical_formula_sum   'Cs6 Rh5 O15'
_cell_volume   490.04266134
_cell_formula_units_Z   1
loop_
 _symmetry_equiv_pos_site_id
 _symmetry_equiv_pos_as_xyz
  1  'x, y, z'
loop_
 _atom_site_type_symbol
 _atom_site_label
 _atom_site_symmetry_multiplicity
 _atom_site_fract_x
 _atom_site_fract_y
 _atom_site_fract_z
 _atom_site_occupancy
  Cs  Cs0  1  0.31908061  0.68055607  0.99939189  1
  Cs  Cs1  1  0.99955111  0.31867522  0.68143192  1
  Cs  Cs2  1  0.68103352  0.99953628  0.31837560  1
  Cs  Cs3  1  0.14425514  0.85577573  0.49992583  1
  Cs  Cs4  1  0.49874434  0.14356095  0.85512507  1
  Cs  Cs5  1  0.85650305  0.50118658  0.14495965  1
  Rh  Rh0  1  0.50037347  0.49970011  0.50001378  1
  Rh  Rh1  1  0.29405047  0.29525058  0.29515307  1
  Rh  Rh2  1  0.70489871  0.70600532  0.70495408  1
  Rh  Rh3  1  0.10125351  0.10074877  0.10138767  1
  Rh  Rh4  1  0.89931124  0.89877572  0.89867520  1
  O  O0  1  0.12916681  0.00014992  0.87014431  1
  O  O1  1  0.87232228  0.12775716  0.00006224  1
  O  O2  1  0.99994965  0.87090060  0.12994911  1
  O  O3  1  0.05639507  0.21423406  0.32224082  1
  O  O4  1  0.32000197  0.05722575  0.21431048  1
  O  O5  1  0.21483666  0.32012530  0.05620240  1
  O  O6  1  0.78597462  0.94365216  0.67776008  1
  O  O7  1  0.67985412  0.78533718  0.94387492  1
  O  O8  1  0.94286354  0.67989863  0.78593230  1
  O  O9  1  0.35607374  0.29635487  0.54006262  1
  O  O10  1  0.53991136  0.35629981  0.29577827  1
  O  O11  1  0.29498971  0.53907561  0.35523484  1
  O  O12  1  0.70412182  0.64352428  0.46013693  1
  O  O13  1  0.46116759  0.70545928  0.64429931  1
  O  O14  1  0.64331489  0.46023406  0.70461959  1
loop_
_geom_bond_atom_site_label_1
_geom_bond_atom_site_label_2
_geom_bond_distance
_geom_bond_site_symmetry_2
Cs0 O5 2.985522 1_556
Cs0 O7 2.987033 1_555
Cs0 O13 3.068239 1_555
Cs0 O11 3.071291 1_556
Cs0 O0 3.159963 1_565
Cs0 O2 3.162096 1_456
Cs0 O8 3.356757 1_455
Cs0 O4 3.365375 1_566
Cs1 O3 2.978041 1_655
Cs1 O8 2.989979 1_555
Cs1 O14 3.069233 1_555
Cs1 O9 3.072059 1_655
Cs1 O0 3.150348 1_655
Cs1 O1 3.156867 1_556
Cs1 O6 3.349608 1_545
Cs1 O5 3.355338 1_656
Cs2 O6 2.978914 1_555
Cs2 O4 2.989055 1_565
Cs2 O12 3.070081 1_555
Cs2 O10 3.071480 1_565
Cs2 O2 3.149210 1_555
Cs2 O1 3.158844 1_565
Cs2 O7 3.349681 1_554
Cs2 O3 3.355928 1_665
Cs3 O13 3.008472 1_555
Cs3 O11 3.009598 1_555
Cs3 O2 3.103069 1_455
Cs3 O0 3.105083 1_565
Cs3 O4 3.142262 1_565
Cs3 O8 3.144810 1_455
Cs3 O6 3.286213 1_455
Cs3 O3 3.286930 1_565
Cs4 O9 3.002847 1_555
Cs4 O14 3.011443 1_555
Cs4 O0 3.096547 1_555
Cs4 O1 3.128873 1_556
Cs4 O5 3.129877 1_556
Cs4 O6 3.147301 1_545
Cs4 O4 3.296501 1_556
Cs4 O7 3.297635 1_545
Cs5 O12 3.001313 1_555
Cs5 O10 3.012848 1_555
Cs5 O2 3.097755 1_555
Cs5 O1 3.127898 1_555
Cs5 O7 3.131599 1_554
Cs5 O3 3.145233 1_655
Cs5 O8 3.295325 1_554
Cs5 O5 3.298191 1_655
O0 Rh4 1.978969 1_445
O0 Rh3 1.986346 1_556
O1 Rh3 1.969064 1_655
O1 Rh4 1.969712 1_544
O2 Rh3 1.978811 1_665
O2 Rh4 1.986566 1_554
O3 Rh3 1.979623 1_555
O3 Rh1 1.980238 1_555
O4 Rh3 1.959331 1_555
O4 Rh1 1.980192 1_555
O5 Rh3 1.970365 1_555
O5 Rh1 1.983970 1_555
O6 Rh4 1.979505 1_555
O6 Rh2 1.980518 1_555
O7 Rh4 1.970403 1_555
O7 Rh2 1.984259 1_555
O8 Rh4 1.959785 1_555
O8 Rh2 1.980113 1_555
O9 Rh0 1.975171 1_555
O9 Rh1 1.976334 1_555
O10 Rh0 1.975621 1_555
O10 Rh1 1.980849 1_555
O11 Rh1 1.963068 1_555
O11 Rh0 1.987617 1_555
O12 Rh0 1.975320 1_555
O12 Rh2 1.976532 1_555
O13 Rh2 1.963285 1_555
O13 Rh0 1.987695 1_555
O14 Rh0 1.975772 1_555
O14 Rh2 1.981240 1_555
