# generated using pymatgen
data_Ba2In4PtRh
_symmetry_space_group_name_H-M   'P 1'
_cell_length_a   6.27613744
_cell_length_b   6.27613772
_cell_length_c   8.14754211
_cell_angle_alpha   90.00000000
_cell_angle_beta   90.00000000
_cell_angle_gamma   137.85780884
_symmetry_Int_Tables_number   1
_chemical_formula_structural   Ba2In4PtRh
_chemical_formula_sum   'Ba2 In4 Pt1 Rh1'
_cell_volume   215.33590271
_cell_formula_units_Z   1
loop_
 _symmetry_equiv_pos_site_id
 _symmetry_equiv_pos_as_xyz
  1  'x, y, z'
loop_
 _atom_site_type_symbol
 _atom_site_label
 _atom_site_symmetry_multiplicity
 _atom_site_fract_x
 _atom_site_fract_y
 _atom_site_fract_z
 _atom_site_occupancy
  Ba  Ba0  1  0.04912793  0.95087207  0.25000000  1
  Ba  Ba1  1  0.94821849  0.05178151  0.75000000  1
  In  In0  1  0.66827285  0.33172715  0.55287429  1
  In  In1  1  0.33093053  0.66906947  0.43975758  1
  In  In2  1  0.66827285  0.33172715  0.94712571  1
  In  In3  1  0.33093053  0.66906947  0.06024242  1
  Pt  Pt0  1  0.22218753  0.77781247  0.75000000  1
  Rh  Rh0  1  0.78206028  0.21793972  0.25000000  1
loop_
_geom_bond_atom_site_label_1
_geom_bond_atom_site_label_2
_geom_bond_distance
_geom_bond_site_symmetry_2
Ba0 Rh0 3.128155 1_465
Ba0 Rh0 3.540520 1_565
Ba0 Rh0 3.540520 1_455
Ba1 Pt0 3.208990 1_645
Ba1 Pt0 3.478609 1_545
Ba1 Pt0 3.478609 1_655
Ba1 In2 3.651209 1_555
Ba1 In0 3.651209 1_555
Ba1 In3 3.656246 1_546
Ba1 In1 3.656246 1_545
Ba1 In3 3.656246 1_656
Ba1 In1 3.656246 1_655
Ba1 In2 3.783448 1_655
Ba1 In0 3.783448 1_655
Ba1 In2 3.783448 1_545
Ba1 In0 3.783448 1_545
In0 Rh0 2.804599 1_555
In0 Pt0 2.840743 1_655
In0 Pt0 2.840743 1_545
In1 Rh0 2.794540 1_455
In1 Rh0 2.794540 1_565
In1 Pt0 2.830487 1_555
In2 Rh0 2.804599 1_556
In2 Pt0 2.840743 1_655
In2 Pt0 2.840743 1_545
In3 Rh0 2.794540 1_455
In3 Rh0 2.794540 1_565
In3 Pt0 2.830487 1_554
