# generated using pymatgen
data_Sc4As6Ir5Ru2
_symmetry_space_group_name_H-M   'P 1'
_cell_length_a   7.05916279
_cell_length_b   7.05914988
_cell_length_c   7.05916237
_cell_angle_alpha   109.43674283
_cell_angle_beta   109.54036922
_cell_angle_gamma   109.43672570
_symmetry_Int_Tables_number   1
_chemical_formula_structural   Sc4As6Ir5Ru2
_chemical_formula_sum   'Sc4 As6 Ir5 Ru2'
_cell_volume   270.79184631
_cell_formula_units_Z   1
loop_
 _symmetry_equiv_pos_site_id
 _symmetry_equiv_pos_as_xyz
  1  'x, y, z'
loop_
 _atom_site_type_symbol
 _atom_site_label
 _atom_site_symmetry_multiplicity
 _atom_site_fract_x
 _atom_site_fract_y
 _atom_site_fract_z
 _atom_site_occupancy
  Sc  Sc0  1  0.00045560  0.00090820  0.50045560  1
  Sc  Sc1  1  0.49954440  0.99909180  0.99954440  1
  Sc  Sc2  1  0.00045368  0.50000000  0.99954632  1
  Sc  Sc3  1  0.49954632  0.50000000  0.50045368  1
  As  As0  1  0.68299159  0.68605689  0.99693466  1
  As  As1  1  0.31087777  0.31394211  0.99693369  1
  As  As2  1  0.00306631  0.68605789  0.68912223  1
  As  As3  1  0.00306534  0.31394311  0.31700841  1
  As  As4  1  0.68777506  1.00000000  0.68777406  1
  As  As5  1  0.31222594  0.00000000  0.31222494  1
  Ir  Ir0  1  0.74942898  0.24943799  0.49999065  1
  Ir  Ir1  1  0.50001001  0.24943799  0.74944834  1
  Ir  Ir2  1  0.50000935  0.75056201  0.25057102  1
  Ir  Ir3  1  0.75000100  0.50000000  0.24999900  1
  Ir  Ir4  1  0.25055166  0.75056201  0.49998999  1
  Ru  Ru0  1  0.00000000  0.00000000  0.00000000  1
  Ru  Ru1  1  0.24999900  0.50000000  0.75000100  1
loop_
_geom_bond_atom_site_label_1
_geom_bond_atom_site_label_2
_geom_bond_distance
_geom_bond_site_symmetry_2
As0 Ru1 2.519235 1_555
As0 Ir1 2.545091 1_555
As0 Ir2 2.545098 1_556
As0 Ir3 2.559263 1_556
As0 Ru0 2.560228 1_666
As0 Sc3 2.907521 1_555
As0 Sc1 2.907527 1_555
As0 Sc2 2.948711 1_655
As0 Sc0 2.948717 1_666
As1 Ru1 2.519228 1_555
As1 Ir1 2.545092 1_555
As1 Ir2 2.545097 1_556
As1 Ir3 2.559270 1_556
As1 Ru0 2.560228 1_556
As1 Sc0 2.907501 1_555
As1 Sc2 2.907529 1_555
As1 Sc1 2.948698 1_545
As1 Sc3 2.948715 1_556
As2 Ru1 2.519228 1_555
As2 Ir4 2.545092 1_555
As2 Ir0 2.545097 1_455
As2 Ir3 2.559270 1_455
As2 Ru0 2.560227 1_566
As2 Sc1 2.907501 1_555
As2 Sc2 2.907529 1_555
As2 Sc0 2.948699 1_565
As2 Sc3 2.948715 1_455
As3 Ru1 2.519235 1_555
As3 Ir4 2.545091 1_555
As3 Ir0 2.545098 1_455
As3 Ir3 2.559263 1_455
As3 Ru0 2.560227 1_555
As3 Sc3 2.907522 1_555
As3 Sc0 2.907527 1_555
As3 Sc2 2.948712 1_554
As3 Sc1 2.948718 1_444
As4 Ru0 2.542846 1_666
As4 Ir2 2.544794 1_555
As4 Ir1 2.544798 1_565
As4 Ir0 2.544887 1_565
As4 Ir4 2.544896 1_555
As4 Sc2 2.927314 1_665
As4 Sc3 2.927316 1_555
As4 Sc0 2.927322 1_665
As4 Sc1 2.927329 1_555
As5 Ru0 2.542846 1_555
As5 Ir0 2.544794 1_555
As5 Ir4 2.544798 1_545
As5 Ir2 2.544886 1_545
As5 Ir1 2.544895 1_555
As5 Sc2 2.927314 1_544
As5 Sc3 2.927316 1_555
As5 Sc1 2.927322 1_544
As5 Sc0 2.927329 1_555
Ir0 Sc2 2.878721 1_655
Ir0 Sc0 2.878729 1_655
Ir0 Sc3 2.883842 1_555
Ir0 Sc1 2.883848 1_544
Ir1 Sc0 2.878714 1_555
Ir1 Sc3 2.878730 1_555
Ir1 Sc1 2.883828 1_545
Ir1 Sc2 2.883834 1_655
Ir2 Sc2 2.878722 1_554
Ir2 Sc1 2.878729 1_554
Ir2 Sc3 2.883842 1_555
Ir2 Sc0 2.883849 1_665
Ir3 Sc2 2.888341 1_654
Ir3 Sc0 2.888346 1_665
Ir3 Sc1 2.888346 1_544
Ir3 Sc3 2.888364 1_555
Ir4 Sc1 2.878714 1_555
Ir4 Sc3 2.878730 1_555
Ir4 Sc0 2.883828 1_565
Ir4 Sc2 2.883833 1_554
Ru1 Sc0 2.877873 1_555
Ru1 Sc1 2.877873 1_555
Ru1 Sc2 2.877877 1_555
Ru1 Sc3 2.877900 1_555
