# generated using pymatgen
data_CdInP7Ru12
_symmetry_space_group_name_H-M   'P 1'
_cell_length_a   9.50156580
_cell_length_b   9.50156475
_cell_length_c   3.76857196
_cell_angle_alpha   90.00000000
_cell_angle_beta   90.00000000
_cell_angle_gamma   119.99999932
_symmetry_Int_Tables_number   1
_chemical_formula_structural   CdInP7Ru12
_chemical_formula_sum   'Cd1 In1 P7 Ru12'
_cell_volume   294.64410716
_cell_formula_units_Z   1
loop_
 _symmetry_equiv_pos_site_id
 _symmetry_equiv_pos_as_xyz
  1  'x, y, z'
loop_
 _atom_site_type_symbol
 _atom_site_label
 _atom_site_symmetry_multiplicity
 _atom_site_fract_x
 _atom_site_fract_y
 _atom_site_fract_z
 _atom_site_occupancy
  Cd  Cd0  1  0.66666700  0.33333300  0.50000000  1
  In  In0  1  0.33333300  0.66666700  0.00000000  1
  P  P0  1  0.61559598  0.69211457  0.50000000  1
  P  P1  1  0.00000000  0.00000000  0.00000000  1
  P  P2  1  0.30788543  0.92348240  0.50000000  1
  P  P3  1  0.07651760  0.38440402  0.50000000  1
  P  P4  1  0.91170521  0.61180793  0.00000000  1
  P  P5  1  0.38819207  0.29989827  0.00000000  1
  P  P6  1  0.70010173  0.08829479  0.00000000  1
  Ru  Ru0  1  0.53649119  0.89909387  0.50000000  1
  Ru  Ru1  1  0.36260268  0.46350881  0.50000000  1
  Ru  Ru2  1  0.86575427  0.11923275  0.50000000  1
  Ru  Ru3  1  0.25347847  0.13424573  0.50000000  1
  Ru  Ru4  1  0.88076725  0.74652153  0.50000000  1
  Ru  Ru5  1  0.73281330  0.86116315  0.00000000  1
  Ru  Ru6  1  0.13883685  0.87164915  0.00000000  1
  Ru  Ru7  1  0.12835085  0.26718670  0.00000000  1
  Ru  Ru8  1  0.46045891  0.09184573  0.00000000  1
  Ru  Ru9  1  0.90815427  0.36861419  0.00000000  1
  Ru  Ru10  1  0.63138581  0.53954109  0.00000000  1
  Ru  Ru11  1  0.10090613  0.63739732  0.50000000  1
loop_
_geom_bond_atom_site_label_1
_geom_bond_atom_site_label_2
_geom_bond_distance
_geom_bond_site_symmetry_2
Cd0 Ru9 2.856308 1_555
Cd0 Ru9 2.856308 1_556
Cd0 Ru8 2.856313 1_555
Cd0 Ru8 2.856313 1_556
Cd0 Ru10 2.856322 1_555
Cd0 Ru10 2.856322 1_556
Cd0 P6 3.132384 1_556
Cd0 P6 3.132384 1_555
Cd0 P4 3.132393 1_555
Cd0 P4 3.132393 1_556
Cd0 P5 3.132399 1_555
Cd0 P5 3.132399 1_556
In0 Ru11 2.809059 1_555
In0 Ru11 2.809059 1_554
In0 Ru0 2.809062 1_554
In0 Ru0 2.809062 1_555
In0 Ru1 2.809066 1_554
In0 Ru1 2.809066 1_555
P0 Ru1 2.296756 1_555
P0 Ru4 2.304962 1_555
P0 Ru5 2.362626 1_556
P0 Ru5 2.362626 1_555
P0 Ru10 2.427371 1_555
P0 Ru10 2.427371 1_556
P0 Ru0 2.431195 1_555
P1 Ru7 2.199136 1_555
P1 Ru5 2.199136 1_445
P1 Ru6 2.199144 1_545
P1 Ru4 2.811773 1_444
P1 Ru4 2.811773 1_445
P1 Ru2 2.811773 1_455
P1 Ru2 2.811773 1_454
P1 Ru3 2.811773 1_554
P1 Ru3 2.811773 1_555
P2 Ru0 2.296762 1_555
P2 Ru3 2.304953 1_565
P2 Ru6 2.362623 1_556
P2 Ru6 2.362623 1_555
P2 Ru8 2.427371 1_565
P2 Ru8 2.427371 1_566
P2 Ru11 2.431202 1_555
P3 Ru11 2.296752 1_555
P3 Ru2 2.304959 1_455
P3 Ru7 2.362634 1_556
P3 Ru7 2.362634 1_555
P3 Ru9 2.427371 1_455
P3 Ru9 2.427371 1_456
P3 Ru1 2.431204 1_555
P4 Ru9 2.294038 1_555
P4 Ru6 2.329106 1_655
P4 Ru4 2.377306 1_555
P4 Ru4 2.377306 1_554
P4 Ru10 2.395142 1_555
P4 Ru11 2.530672 1_655
P4 Ru11 2.530672 1_654
P5 Ru10 2.294038 1_555
P5 Ru7 2.329099 1_555
P5 Ru3 2.377310 1_554
P5 Ru3 2.377310 1_555
P5 Ru8 2.395142 1_555
P5 Ru1 2.530666 1_554
P5 Ru1 2.530666 1_555
P6 Ru8 2.294038 1_555
P6 Ru5 2.329118 1_545
P6 Ru2 2.377312 1_555
P6 Ru2 2.377312 1_554
P6 Ru9 2.395142 1_555
P6 Ru0 2.530669 1_545
P6 Ru0 2.530669 1_544
