# generated using pymatgen
data_KBa4Bi2As
_symmetry_space_group_name_H-M   'P 1'
_cell_length_a   9.03569031
_cell_length_b   10.62571558
_cell_length_c   14.18323665
_cell_angle_alpha   90.00000000
_cell_angle_beta   90.00000000
_cell_angle_gamma   90.00000000
_symmetry_Int_Tables_number   1
_chemical_formula_structural   KBa4Bi2As
_chemical_formula_sum   'K4 Ba16 Bi8 As4'
_cell_volume   1361.74212966
_cell_formula_units_Z   4
loop_
 _symmetry_equiv_pos_site_id
 _symmetry_equiv_pos_as_xyz
  1  'x, y, z'
loop_
 _atom_site_type_symbol
 _atom_site_label
 _atom_site_symmetry_multiplicity
 _atom_site_fract_x
 _atom_site_fract_y
 _atom_site_fract_z
 _atom_site_occupancy
  K  K0  1  0.00949916  0.75000000  0.49970065  1
  K  K1  1  0.99050084  0.25000000  0.50029935  1
  K  K2  1  0.50949916  0.25000000  0.00029935  1
  K  K3  1  0.49050084  0.75000000  0.99970065  1
  Ba  Ba0  1  0.84460922  0.75000000  0.79566183  1
  Ba  Ba1  1  0.15539078  0.25000000  0.20433817  1
  Ba  Ba2  1  0.34460922  0.25000000  0.70433817  1
  Ba  Ba3  1  0.65539078  0.75000000  0.29566183  1
  Ba  Ba4  1  0.69555376  0.50314608  0.56825497  1
  Ba  Ba5  1  0.30444624  0.49685392  0.43174503  1
  Ba  Ba6  1  0.19555376  0.49685392  0.93174503  1
  Ba  Ba7  1  0.30444624  0.00314608  0.43174503  1
  Ba  Ba8  1  0.80444624  0.50314608  0.06825497  1
  Ba  Ba9  1  0.69555376  0.99685392  0.56825497  1
  Ba  Ba10  1  0.80444624  0.99685392  0.06825497  1
  Ba  Ba11  1  0.19555376  0.00314608  0.93174503  1
  Ba  Ba12  1  0.34153420  0.75000000  0.70611601  1
  Ba  Ba13  1  0.65846580  0.25000000  0.29388399  1
  Ba  Ba14  1  0.84153420  0.25000000  0.79388399  1
  Ba  Ba15  1  0.15846580  0.75000000  0.20611601  1
  Bi  Bi0  1  0.56597701  0.50087489  0.82559955  1
  Bi  Bi1  1  0.43402299  0.49912511  0.17440045  1
  Bi  Bi2  1  0.06597701  0.49912511  0.67440045  1
  Bi  Bi3  1  0.43402299  0.00087489  0.17440045  1
  Bi  Bi4  1  0.93402299  0.50087489  0.32559955  1
  Bi  Bi5  1  0.56597701  0.99912511  0.82559955  1
  Bi  Bi6  1  0.93402299  0.99912511  0.32559955  1
  Bi  Bi7  1  0.06597701  0.00087489  0.67440045  1
  As  As0  1  0.00743218  0.75000000  0.99906120  1
  As  As1  1  0.99256782  0.25000000  0.00093880  1
  As  As2  1  0.50743218  0.25000000  0.50093880  1
  As  As3  1  0.49256782  0.75000000  0.49906120  1
loop_
_geom_bond_atom_site_label_1
_geom_bond_atom_site_label_2
_geom_bond_distance
_geom_bond_site_symmetry_2
Ba0 Bi0 3.677783 1_555
Ba0 Bi5 3.677783 1_555
Ba0 Bi2 3.750322 1_655
Ba0 Bi7 3.750322 1_665
Ba1 Bi3 3.677783 1_555
Ba1 Bi1 3.677783 1_555
Ba1 Bi6 3.750322 1_445
Ba1 Bi4 3.750322 1_455
Ba2 Bi2 3.677783 1_555
Ba2 Bi7 3.677783 1_555
Ba2 Bi5 3.750322 1_545
Ba2 Bi0 3.750322 1_555
Ba3 Bi4 3.677783 1_555
Ba3 Bi6 3.677783 1_555
Ba3 Bi1 3.750322 1_555
Ba3 Bi3 3.750322 1_565
Ba4 Bi2 3.670276 1_655
Ba4 Bi0 3.833241 1_555
Ba4 Bi4 4.060584 1_555
Ba5 Bi4 3.670276 1_455
Ba5 Bi1 3.833241 1_555
Ba5 Bi2 4.060584 1_555
Ba6 Bi0 3.670276 1_555
Ba6 Bi2 3.833241 1_555
Ba6 Bi1 4.060584 1_556
Ba7 Bi6 3.670276 1_445
Ba7 Bi3 3.833241 1_555
Ba7 Bi7 4.060584 1_555
Ba8 Bi1 3.670276 1_555
Ba8 Bi4 3.833241 1_555
Ba8 Bi0 4.060584 1_554
Ba9 Bi7 3.670276 1_665
Ba9 Bi5 3.833241 1_555
Ba9 Bi6 4.060584 1_555
Ba10 Bi3 3.670276 1_565
Ba10 Bi6 3.833241 1_555
Ba10 Bi5 4.060584 1_554
Ba11 Bi5 3.670276 1_545
Ba11 Bi7 3.833241 1_555
Ba11 Bi3 4.060584 1_556
Ba12 Bi2 3.675294 1_555
Ba12 Bi7 3.675294 1_565
Ba12 Bi0 3.740583 1_555
Ba12 Bi5 3.740583 1_555
Ba13 Bi6 3.675294 1_545
Ba13 Bi4 3.675294 1_555
Ba13 Bi3 3.740583 1_555
Ba13 Bi1 3.740583 1_555
Ba14 Bi5 3.675294 1_545
Ba14 Bi0 3.675294 1_555
Ba14 Bi7 3.740583 1_655
Ba14 Bi2 3.740583 1_655
Ba15 Bi1 3.675294 1_555
Ba15 Bi3 3.675294 1_565
Ba15 Bi4 3.740583 1_455
Ba15 Bi6 3.740583 1_455
Bi0 K2 3.675058 1_556
Bi0 K3 3.683739 1_555
Bi1 K3 3.675058 1_554
Bi1 K2 3.683739 1_555
Bi2 K0 3.675058 1_555
Bi2 K1 3.683739 1_455
Bi3 K3 3.675058 1_544
Bi3 K2 3.683739 1_555
Bi4 K1 3.675058 1_555
Bi4 K0 3.683739 1_655
Bi5 K2 3.675058 1_566
Bi5 K3 3.683739 1_555
Bi6 K1 3.675058 1_565
Bi6 K0 3.683739 1_655
Bi7 K0 3.675058 1_545
Bi7 K1 3.683739 1_455
As0 Ba15 3.238308 1_556
As0 Ba0 3.238350 1_455
As0 Ba11 3.322086 1_565
As0 Ba6 3.322086 1_555
As0 Ba10 3.347722 1_456
As0 Ba8 3.347722 1_456
As1 Ba14 3.238308 1_554
As1 Ba1 3.238350 1_655
As1 Ba8 3.322086 1_555
As1 Ba10 3.322086 1_545
As1 Ba6 3.347722 1_654
As1 Ba11 3.347722 1_654
As2 Ba13 3.238308 1_555
As2 Ba2 3.238350 1_555
As2 Ba4 3.322086 1_555
As2 Ba9 3.322086 1_545
As2 Ba5 3.347722 1_555
As2 Ba7 3.347722 1_555
As3 Ba12 3.238308 1_555
As3 Ba3 3.238350 1_555
As3 Ba7 3.322086 1_565
As3 Ba5 3.322086 1_555
As3 Ba9 3.347722 1_555
As3 Ba4 3.347722 1_555
