# generated using pymatgen
data_LiAl(CrS2)4
_symmetry_space_group_name_H-M   'P 1'
_cell_length_a   7.08252478
_cell_length_b   7.08252500
_cell_length_c   7.08252538
_cell_angle_alpha   60.00000288
_cell_angle_beta   60.00000183
_cell_angle_gamma   60.00000227
_symmetry_Int_Tables_number   1
_chemical_formula_structural   LiAl(CrS2)4
_chemical_formula_sum   'Li1 Al1 Cr4 S8'
_cell_volume   251.21720720
_cell_formula_units_Z   1
loop_
 _symmetry_equiv_pos_site_id
 _symmetry_equiv_pos_as_xyz
  1  'x, y, z'
loop_
 _atom_site_type_symbol
 _atom_site_label
 _atom_site_symmetry_multiplicity
 _atom_site_fract_x
 _atom_site_fract_y
 _atom_site_fract_z
 _atom_site_occupancy
  Li  Li0  1  0.25000000  0.25000000  0.25000000  1
  Al  Al0  1  0.00000000  0.00000000  0.00000000  1
  Cr  Cr0  1  0.62112821  0.62112821  0.13661436  1
  Cr  Cr1  1  0.62112821  0.13661436  0.62112821  1
  Cr  Cr2  1  0.13661436  0.62112821  0.62112821  1
  Cr  Cr3  1  0.62112821  0.62112821  0.62112821  1
  S  S0  1  0.86803268  0.86803268  0.39590295  1
  S  S1  1  0.86803268  0.39590295  0.86803268  1
  S  S2  1  0.39590295  0.86803268  0.86803268  1
  S  S3  1  0.86803268  0.86803268  0.86803268  1
  S  S4  1  0.38603500  0.38603500  0.84189501  1
  S  S5  1  0.38603500  0.84189501  0.38603500  1
  S  S6  1  0.84189501  0.38603500  0.38603500  1
  S  S7  1  0.38603500  0.38603500  0.38603500  1
loop_
_geom_bond_atom_site_label_1
_geom_bond_atom_site_label_2
_geom_bond_distance
_geom_bond_site_symmetry_2
Li0 S7 2.360013 1_555
Li0 S6 2.360013 1_455
Li0 S5 2.360013 1_545
Li0 S4 2.360013 1_554
Al0 S3 2.289445 1_444
Al0 S2 2.289450 1_544
Al0 S1 2.289450 1_454
Al0 S0 2.289451 1_445
Cr0 S7 2.356927 1_555
Cr0 S5 2.356932 1_555
Cr0 S6 2.356932 1_555
Cr0 S1 2.477797 1_554
Cr0 S2 2.477797 1_554
Cr0 S3 2.477806 1_554
Cr1 S7 2.356927 1_555
Cr1 S6 2.356932 1_555
Cr1 S4 2.356932 1_555
Cr1 S2 2.477797 1_545
Cr1 S0 2.477797 1_545
Cr1 S3 2.477806 1_545
Cr2 S7 2.356927 1_555
Cr2 S5 2.356932 1_555
Cr2 S4 2.356932 1_555
Cr2 S1 2.477797 1_455
Cr2 S0 2.477797 1_455
Cr2 S3 2.477806 1_455
Cr3 S4 2.356926 1_555
Cr3 S5 2.356927 1_555
Cr3 S6 2.356927 1_555
Cr3 S0 2.477807 1_555
Cr3 S1 2.477807 1_555
Cr3 S2 2.477807 1_555
