# generated using pymatgen
data_Tc4MoWS8
_symmetry_space_group_name_H-M   'P 1'
_cell_length_a   6.48542485
_cell_length_b   6.46079816
_cell_length_c   6.47519023
_cell_angle_alpha   93.36215596
_cell_angle_beta   93.64198495
_cell_angle_gamma   92.85629798
_symmetry_Int_Tables_number   1
_chemical_formula_structural   Tc4MoWS8
_chemical_formula_sum   'Tc4 Mo1 W1 S8'
_cell_volume   269.91223804
_cell_formula_units_Z   1
loop_
 _symmetry_equiv_pos_site_id
 _symmetry_equiv_pos_as_xyz
  1  'x, y, z'
loop_
 _atom_site_type_symbol
 _atom_site_label
 _atom_site_symmetry_multiplicity
 _atom_site_fract_x
 _atom_site_fract_y
 _atom_site_fract_z
 _atom_site_occupancy
  Tc  Tc0  1  0.23191555  0.40757067  0.54962347  1
  Tc  Tc1  1  0.55171074  0.23214911  0.41022036  1
  Tc  Tc2  1  0.40848883  0.54852985  0.23283390  1
  Tc  Tc3  1  0.76585848  0.58938436  0.44912797  1
  Mo  Mo0  1  0.59236799  0.45085654  0.76977519  1
  W  W0  1  0.44791291  0.76801147  0.59116848  1
  S  S0  1  0.38195839  0.12851055  0.71838574  1
  S  S1  1  0.72049090  0.38004386  0.13360521  1
  S  S2  1  0.12537403  0.71920196  0.37938024  1
  S  S3  1  0.62038586  0.86994606  0.27350019  1
  S  S4  1  0.27290200  0.62125097  0.87215201  1
  S  S5  1  0.87409700  0.27918113  0.61921211  1
  S  S6  1  0.22490020  0.22306593  0.22360811  1
  S  S7  1  0.78163713  0.78229755  0.77740800  1
loop_
_geom_bond_atom_site_label_1
_geom_bond_atom_site_label_2
_geom_bond_distance
_geom_bond_site_symmetry_2
Tc0 W0 2.647875 1_555
Tc2 W0 2.638649 1_555
Tc3 W0 2.604478 1_555
Mo0 S7 2.410928 1_555
Mo0 S5 2.412586 1_555
Mo0 S0 2.426503 1_555
Mo0 S4 2.502051 1_555
Mo0 S1 2.522992 1_556
Mo0 W0 2.597220 1_555
Mo0 Tc3 2.606189 1_555
Mo0 Tc1 2.643032 1_555
Mo0 Tc0 2.653268 1_555
S0 Tc0 2.379608 1_555
S0 Tc1 2.450397 1_555
S0 W0 2.491046 1_545
S1 Tc3 2.376938 1_555
S1 Tc1 2.380114 1_555
S1 Tc2 2.448440 1_555
S2 Tc2 2.405842 1_555
S2 W0 2.423804 1_555
S2 Tc0 2.459383 1_555
S2 Tc3 2.515383 1_455
S3 Tc3 2.396874 1_555
S3 Tc2 2.423973 1_555
S3 W0 2.508741 1_555
S3 Tc1 2.523736 1_565
S4 W0 2.419727 1_555
S4 Tc0 2.427517 1_555
S4 Tc2 2.521397 1_556
S5 Tc1 2.413324 1_555
S5 Tc3 2.454228 1_555
S5 Tc0 2.502231 1_655
S6 Tc0 2.359375 1_555
S6 Tc2 2.359982 1_555
S6 Tc1 2.368495 1_555
S7 Tc3 2.394016 1_555
S7 W0 2.404709 1_555
