# generated using pymatgen
data_Nb2Sn2Pb4O13
_symmetry_space_group_name_H-M   'P 1'
_cell_length_a   7.56396209
_cell_length_b   7.56396273
_cell_length_c   7.56396193
_cell_angle_alpha   120.69543560
_cell_angle_beta   119.84905967
_cell_angle_gamma   89.53066682
_symmetry_Int_Tables_number   1
_chemical_formula_structural   Nb2Sn2Pb4O13
_chemical_formula_sum   'Nb2 Sn2 Pb4 O13'
_cell_volume   304.71690839
_cell_formula_units_Z   1
loop_
 _symmetry_equiv_pos_site_id
 _symmetry_equiv_pos_as_xyz
  1  'x, y, z'
loop_
 _atom_site_type_symbol
 _atom_site_label
 _atom_site_symmetry_multiplicity
 _atom_site_fract_x
 _atom_site_fract_y
 _atom_site_fract_z
 _atom_site_occupancy
  Nb  Nb0  1  0.25165617  0.50276547  0.74889170  1
  Nb  Nb1  1  0.75387278  0.50276547  0.25110830  1
  Sn  Sn0  1  0.25221957  0.50209390  0.24987433  1
  Sn  Sn1  1  0.25221957  0.00234524  0.75012567  1
  Pb  Pb0  1  0.76300916  0.02115500  0.25814483  1
  Pb  Pb1  1  0.76300916  0.50486433  0.74185517  1
  Pb  Pb2  1  0.74870631  0.00154999  0.74715732  1
  Pb  Pb3  1  0.25439368  0.00154999  0.25284268  1
  O  O0  1  0.17447575  0.17447575  1.00000000  1
  O  O1  1  0.55279287  0.55279287  0.00000000  1
  O  O2  1  0.16576512  0.57204099  0.99099456  1
  O  O3  1  0.58104644  0.17477057  0.00900544  1
  O  O4  1  0.16576512  0.17477057  0.59372413  1
  O  O5  1  0.58104644  0.57204099  0.40627587  1
  O  O6  1  0.32752644  0.82752644  0.50000000  1
  O  O7  1  0.92618343  0.42618343  0.50000000  1
  O  O8  1  0.31201781  0.43177899  0.50250628  1
  O  O9  1  0.92927371  0.80951253  0.49749372  1
  O  O10  1  0.31201781  0.80951253  0.88023882  1
  O  O11  1  0.92927371  0.43177899  0.11976118  1
  O  O12  1  0.87872896  0.87872896  1.00000000  1
loop_
_geom_bond_atom_site_label_1
_geom_bond_atom_site_label_2
_geom_bond_distance
_geom_bond_site_symmetry_2
Nb0 O8 1.947130 1_555
Nb0 O10 1.947132 1_555
Nb0 O1 1.978090 1_556
Nb0 O7 2.058388 1_455
Nb0 O2 2.061357 1_555
Nb0 O4 2.061363 1_555
Nb1 O9 1.947134 1_555
Nb1 O11 1.947139 1_555
Nb1 O1 1.978083 1_555
Nb1 O7 2.058395 1_555
Nb1 O5 2.061356 1_555
Nb1 O3 2.061362 1_555
O0 Sn1 2.048094 1_555
O0 Sn0 2.048095 1_556
O0 Pb3 2.669101 1_556
O0 Pb2 2.669109 1_455
O2 Sn0 2.078298 1_556
O2 Pb1 2.534408 1_455
O2 Pb3 2.659222 1_566
O3 Sn1 2.078298 1_554
O3 Pb0 2.534402 1_555
O3 Pb2 2.659216 1_554
O4 Sn1 2.078298 1_555
O4 Pb0 2.534409 1_455
O4 Pb3 2.659228 1_555
O5 Sn0 2.078298 1_555
O5 Pb1 2.534408 1_555
O5 Pb2 2.659222 1_565
O6 Sn1 2.039289 1_565
O6 Sn0 2.039290 1_555
O6 Pb2 2.646626 1_565
O6 Pb3 2.646634 1_565
O7 Pb0 2.519559 1_555
O7 Pb1 2.519565 1_555
O8 Sn0 2.076607 1_555
O8 Pb3 2.697398 1_555
O9 Sn1 2.076600 1_665
O9 Pb2 2.697408 1_565
O10 Sn1 2.076600 1_565
O10 Pb3 2.697391 1_566
O11 Sn0 2.076600 1_655
O11 Pb2 2.697397 1_554
O12 Pb0 2.297307 1_566
O12 Pb1 2.297307 1_555
O12 Pb2 2.326930 1_565
O12 Pb3 2.326936 1_666
