# generated using pymatgen
data_Ti8Al15Ru3Pt4
_symmetry_space_group_name_H-M   'P 1'
_cell_length_a   8.62854889
_cell_length_b   8.62056892
_cell_length_c   8.64326284
_cell_angle_alpha   120.02359445
_cell_angle_beta   119.93392702
_cell_angle_gamma   90.09690292
_symmetry_Int_Tables_number   1
_chemical_formula_structural   Ti8Al15Ru3Pt4
_chemical_formula_sum   'Ti8 Al15 Ru3 Pt4'
_cell_volume   454.51360632
_cell_formula_units_Z   1
loop_
 _symmetry_equiv_pos_site_id
 _symmetry_equiv_pos_as_xyz
  1  'x, y, z'
loop_
 _atom_site_type_symbol
 _atom_site_label
 _atom_site_symmetry_multiplicity
 _atom_site_fract_x
 _atom_site_fract_y
 _atom_site_fract_z
 _atom_site_occupancy
  Ti  Ti0  1  0.79410148  0.28917153  0.07359670  1
  Ti  Ti1  1  0.21421908  0.28675550  0.49623359  1
  Ti  Ti2  1  0.20801335  0.70877954  0.49791571  1
  Ti  Ti3  1  0.21039985  0.71541094  0.92259236  1
  Ti  Ti4  1  0.79359782  0.71881966  0.50583424  1
  Ti  Ti5  1  0.78552658  0.28457214  0.50329088  1
  Ti  Ti6  1  0.38101747  0.12021736  0.73795487  1
  Ti  Ti7  1  0.37194902  0.64029767  0.25584498  1
  Al  Al0  1  0.99633086  0.49550178  0.49836200  1
  Al  Al1  1  0.15258510  0.34059593  0.18433911  1
  Al  Al2  1  0.15416845  0.96950882  0.81487902  1
  Al  Al3  1  0.14979523  0.34656571  0.80725822  1
  Al  Al4  1  0.54364483  0.34762048  0.19691063  1
  Al  Al5  1  0.84760476  0.65551657  0.81370788  1
  Al  Al6  1  0.84726754  0.03741556  0.19020488  1
  Al  Al7  1  0.84529115  0.65310455  0.18638129  1
  Al  Al8  1  0.46418430  0.65363312  0.80944380  1
  Al  Al9  1  0.37398753  0.11703758  0.25751063  1
  Al  Al10  1  0.86179303  0.12306997  0.74630164  1
  Al  Al11  1  0.62000772  0.88077138  0.26188927  1
  Al  Al12  1  0.62666402  0.36136997  0.74360382  1
  Al  Al13  1  0.62804745  0.88181199  0.74384210  1
  Al  Al14  1  0.13486747  0.87679363  0.25131896  1
  Ru  Ru0  1  0.00201658  0.49983143  0.00222885  1
  Ru  Ru1  1  0.99982321  0.99963104  0.99979975  1
  Ru  Ru2  1  0.49753621  0.99889048  0.50054916  1
  Pt  Pt0  1  0.99973258  0.99888200  0.49958658  1
  Pt  Pt1  1  0.49918726  0.99925872  0.99898486  1
  Pt  Pt2  1  0.49815803  0.49932134  0.00060823  1
  Pt  Pt3  1  0.49848102  0.49984458  0.49902799  1
loop_
_geom_bond_atom_site_label_1
_geom_bond_atom_site_label_2
_geom_bond_distance
_geom_bond_site_symmetry_2
Ti0 Ti6 2.945551 1_554
Ti1 Ti6 2.916360 1_555
Ti2 Ti7 2.906454 1_555
Ti2 Ti6 2.939404 1_565
Ti3 Ti7 2.919147 1_556
Ti4 Ti7 3.007673 1_555
Al0 Ti2 2.592160 1_655
Al0 Ti3 2.592929 1_655
Al0 Ti0 2.597799 1_555
Al0 Ti5 2.600066 1_555
Al0 Ti4 2.601928 1_555
Al0 Ti1 2.605002 1_655
Al1 Ru1 2.473486 1_444
Al1 Ru0 2.485383 1_555
Al1 Pt3 2.517589 1_555
Al1 Ti0 2.701199 1_455
Al1 Al10 2.746825 1_454
Al1 Ti1 2.754570 1_555
Al1 Ti2 2.782300 1_555
Al1 Al9 2.791060 1_555
Al1 Ti7 2.803155 1_555
Al2 Ru1 2.471004 1_455
Al2 Pt1 2.514314 1_555
Al2 Pt0 2.516706 1_455
Al2 Ti4 2.718746 1_455
Al2 Ti3 2.737493 1_555
Al2 Al9 2.780729 1_566
Al2 Ti2 2.808010 1_555
Al2 Ti6 2.848845 1_565
Al3 Ru0 2.476594 1_556
Al3 Pt0 2.511182 1_445
Al3 Pt2 2.516585 1_556
Al3 Ti5 2.723095 1_455
Al3 Ti3 2.771207 1_555
Al3 Ti7 2.803695 1_556
Al3 Ti1 2.811926 1_555
Al3 Ti6 2.860574 1_555
Al4 Pt3 2.506164 1_555
Al4 Pt1 2.508440 1_544
Al4 Pt2 2.510097 1_555
Al4 Ti5 2.755401 1_555
Al4 Ti4 2.774850 1_555
Al4 Ti0 2.797347 1_555
Al4 Al9 2.857585 1_555
Al4 Ti6 2.863824 1_554
Al4 Ti7 2.880918 1_555
Al5 Ru1 2.493142 1_555
Al5 Ru0 2.501851 1_656
Al5 Pt3 2.535744 1_555
Al5 Ti3 2.742216 1_655
Al5 Ti5 2.772238 1_555
Al5 Ti4 2.795090 1_555
Al6 Ru1 2.484802 1_544
Al6 Pt1 2.521703 1_544
Al6 Pt0 2.524123 1_545
Al6 Ti1 2.751539 1_655
Al6 Ti0 2.768978 1_555
Al6 Ti5 2.796264 1_555
Al7 Ru0 2.481457 1_655
Al7 Pt0 2.510101 1_555
Al7 Pt2 2.522662 1_555
Al7 Ti0 2.737367 1_555
Al7 Ti2 2.750878 1_655
Al7 Ti4 2.794334 1_555
Al8 Pt1 2.504189 1_555
Al8 Pt3 2.505574 1_555
Al8 Pt2 2.510580 1_556
Al8 Ti1 2.750447 1_555
Al8 Ti3 2.766814 1_555
Al8 Ti2 2.776092 1_555
Al9 Ru2 2.548781 1_545
Al9 Ru1 2.639139 1_444
Al9 Pt3 2.694079 1_555
Al9 Pt1 2.708020 1_544
Al9 Ti1 2.850097 1_555
Al9 Ti3 2.869724 1_544
Al9 Ti5 2.931232 1_555
Al10 Ru2 2.566456 1_545
Al10 Ru0 2.651779 1_656
Al10 Ru1 2.661705 1_545
Al10 Pt0 2.713433 1_545
Al10 Al2 2.787884 1_645
Al10 Al3 2.797564 1_655
Al10 Ti0 2.827081 1_556
Al10 Al13 2.879678 1_545
Al10 Ti5 2.886711 1_555
Al10 Ti4 2.886989 1_545
Al10 Al12 2.889906 1_555
Al10 Al11 2.960005 1_545
Al11 Ru2 2.546745 1_555
Al11 Pt0 2.677733 1_555
Al11 Pt2 2.684355 1_555
Al11 Pt1 2.693662 1_554
Al11 Al8 2.831185 1_554
Al11 Al7 2.837895 1_555
Al11 Al6 2.844894 1_565
Al11 Ti5 2.872536 1_565
Al11 Ti4 2.905055 1_555
Al11 Ti3 2.929021 1_554
Al11 Ti7 2.940479 1_555
Al11 Al9 2.944084 1_565
Al12 Ru2 2.549905 1_545
Al12 Ru0 2.646242 1_656
Al12 Pt3 2.704318 1_555
Al12 Pt2 2.719781 1_556
Al12 Al7 2.770749 1_556
Al12 Al5 2.779316 1_555
Al12 Al8 2.830280 1_555
Al12 Ti5 2.846053 1_555
Al12 Ti0 2.876943 1_556
Al12 Ti6 2.932051 1_555
Al12 Ti1 2.944895 1_555
Al12 Al9 2.971334 1_555
Al13 Ru2 2.544240 1_555
Al13 Ru1 2.621864 1_555
Al13 Pt3 2.687723 1_555
Al13 Pt1 2.709446 1_555
Al13 Al6 2.791275 1_566
Al13 Al5 2.794439 1_555
Al13 Al8 2.845462 1_555
Al13 Ti4 2.879866 1_555
Al13 Ti0 2.898211 1_566
Al13 Ti6 2.963268 1_565
Al13 Ti7 2.983785 1_555
Al13 Ti2 2.999839 1_555
Al14 Ru2 2.556001 1_555
Al14 Ru1 2.642900 1_454
Al14 Ru0 2.651869 1_555
Al14 Pt0 2.704279 1_455
Al14 Al5 2.737920 1_454
Al14 Al7 2.788834 1_455
Al14 Al6 2.791025 1_465
Al14 Al9 2.883321 1_565
Al14 Ti3 2.885921 1_554
Al14 Ti7 2.890807 1_555
Al14 Ti1 2.915231 1_565
Al14 Ti2 2.964598 1_555
Al14 Ti6 2.973662 1_565
Ru0 Ti7 2.609172 1_555
Ru0 Ti0 3.018486 1_455
Ru0 Ti2 3.070174 1_555
Ru0 Ti5 3.077451 1_454
Ru0 Ti3 3.108765 1_554
Ru1 Ti4 3.052129 1_555
Ru1 Ti3 3.055949 1_655
Ru1 Ti0 3.056067 1_566
Ru1 Ti1 3.065024 1_666
Ru2 Ti6 2.496002 1_565
Ru2 Ti7 2.522324 1_555
Pt0 Ti6 2.688804 1_665
Pt0 Ti4 3.034323 1_555
Pt0 Ti5 3.078665 1_565
Pt0 Ti2 3.080454 1_655
Pt0 Ti1 3.113587 1_665
Pt1 Ti6 2.697989 1_565
Pt1 Ti3 3.058290 1_555
Pt1 Ti2 3.099360 1_555
Pt1 Ti5 3.107477 1_566
Pt1 Ti0 3.140894 1_566
Pt2 Ti6 2.670232 1_554
Pt2 Ti7 2.692359 1_555
Pt2 Ti3 3.113114 1_554
Pt2 Ti1 3.113916 1_554
Pt2 Ti0 3.122853 1_555
Pt2 Ti4 3.123000 1_555
Pt3 Ti7 2.708682 1_555
Pt3 Ti1 3.045041 1_555
Pt3 Ti2 3.087775 1_555
Pt3 Ti5 3.093964 1_555
Pt3 Ti4 3.126379 1_555
