# generated using pymatgen
data_NaYMnPt3
_symmetry_space_group_name_H-M   'P 1'
_cell_length_a   5.19846969
_cell_length_b   5.19846890
_cell_length_c   5.19846930
_cell_angle_alpha   64.00857070
_cell_angle_beta   64.00857544
_cell_angle_gamma   64.00857294
_symmetry_Int_Tables_number   1
_chemical_formula_structural   NaYMnPt3
_chemical_formula_sum   'Na1 Y1 Mn1 Pt3'
_cell_volume   108.10630967
_cell_formula_units_Z   1
loop_
 _symmetry_equiv_pos_site_id
 _symmetry_equiv_pos_as_xyz
  1  'x, y, z'
loop_
 _atom_site_type_symbol
 _atom_site_label
 _atom_site_symmetry_multiplicity
 _atom_site_fract_x
 _atom_site_fract_y
 _atom_site_fract_z
 _atom_site_occupancy
  Na  Na0  1  0.25145715  0.25145715  0.25145715  1
  Y  Y0  1  0.00358446  0.00358446  0.00358446  1
  Mn  Mn0  1  0.62367684  0.62367684  0.62367684  1
  Pt  Pt0  1  0.62299188  0.62299188  0.12529780  1
  Pt  Pt1  1  0.62299188  0.12529780  0.62299188  1
  Pt  Pt2  1  0.12529780  0.62299188  0.62299188  1
loop_
_geom_bond_atom_site_label_1
_geom_bond_atom_site_label_2
_geom_bond_distance
_geom_bond_site_symmetry_2
Na0 Pt2 2.989973 1_555
Na0 Pt0 2.989973 1_555
Na0 Pt1 2.989973 1_555
Na0 Y0 3.057285 1_555
Na0 Pt2 3.173534 1_545
Na0 Pt0 3.173534 1_545
Na0 Pt2 3.173534 1_554
Na0 Pt1 3.173534 1_554
Na0 Pt0 3.173534 1_455
Na0 Pt1 3.173534 1_455
Na0 Y0 3.351394 1_565
Na0 Y0 3.351394 1_556
Na0 Y0 3.351395 1_655
Mn0 Pt1 2.593934 1_555
Mn0 Pt0 2.593934 1_555
Mn0 Pt2 2.593934 1_555
Mn0 Pt1 2.604545 1_565
Mn0 Pt0 2.604545 1_556
Mn0 Pt2 2.604546 1_655
Mn0 Na0 3.217266 1_565
Mn0 Na0 3.217266 1_556
Mn0 Na0 3.217266 1_655
Mn0 Y0 3.232762 1_656
Mn0 Y0 3.232763 1_665
Mn0 Y0 3.232763 1_566
Pt0 Pt1 2.742393 1_555
Pt0 Pt2 2.742393 1_555
Pt0 Pt1 2.767805 1_564
Pt0 Pt2 2.767805 1_654
Pt0 Y0 3.076647 1_665
Pt0 Y0 3.128534 1_655
Pt0 Y0 3.128535 1_565
Pt1 Pt2 2.742393 1_555
Pt1 Pt2 2.767805 1_645
Pt1 Y0 3.076647 1_656
Pt1 Y0 3.128534 1_655
Pt1 Y0 3.128535 1_556
Pt2 Y0 3.076647 1_566
Pt2 Y0 3.128534 1_556
Pt2 Y0 3.128534 1_565
