# generated using pymatgen
data_CsNaP2Pd
_symmetry_space_group_name_H-M   'P 1'
_cell_length_a   7.15554659
_cell_length_b   7.15554674
_cell_length_c   5.97800375
_cell_angle_alpha   90.00000000
_cell_angle_beta   90.00000000
_cell_angle_gamma   123.65976139
_symmetry_Int_Tables_number   1
_chemical_formula_structural   CsNaP2Pd
_chemical_formula_sum   'Cs2 Na2 P4 Pd2'
_cell_volume   254.76775195
_cell_formula_units_Z   2
loop_
 _symmetry_equiv_pos_site_id
 _symmetry_equiv_pos_as_xyz
  1  'x, y, z'
loop_
 _atom_site_type_symbol
 _atom_site_label
 _atom_site_symmetry_multiplicity
 _atom_site_fract_x
 _atom_site_fract_y
 _atom_site_fract_z
 _atom_site_occupancy
  Cs  Cs0  1  0.40046356  0.59953644  0.25000000  1
  Cs  Cs1  1  0.59953644  0.40046356  0.75000000  1
  Na  Na0  1  0.79162785  0.20837215  0.25000000  1
  Na  Na1  1  0.20837215  0.79162785  0.75000000  1
  P  P0  1  0.96279007  0.71756773  0.25000000  1
  P  P1  1  0.03720993  0.28243227  0.75000000  1
  P  P2  1  0.28243227  0.03720993  0.25000000  1
  P  P3  1  0.71756773  0.96279007  0.75000000  1
  Pd  Pd0  1  0.00000000  0.00000000  0.00000000  1
  Pd  Pd1  1  0.00000000  0.00000000  0.50000000  1
loop_
_geom_bond_atom_site_label_1
_geom_bond_atom_site_label_2
_geom_bond_distance
_geom_bond_site_symmetry_2
Cs0 P0 3.624464 1_555
Cs0 P2 3.624464 1_555
Cs0 Na0 3.646459 1_455
Cs0 Na0 3.646459 1_565
Cs0 P0 3.667905 1_455
Cs0 P2 3.667905 1_565
Cs0 P1 3.781672 1_555
Cs0 P1 3.781672 1_554
Cs0 P3 3.781672 1_554
Cs0 P3 3.781672 1_555
Cs0 Na1 3.847995 1_555
Cs0 Na1 3.847995 1_554
Cs0 Pd0 3.901511 1_665
Cs0 Pd1 3.901511 1_665
Cs0 Pd0 3.901511 1_555
Cs0 Pd1 3.901511 1_555
Cs0 Cs1 3.904065 1_554
Cs0 Cs1 3.904065 1_555
Cs1 P1 3.624464 1_555
Cs1 P3 3.624464 1_555
Cs1 Na1 3.646459 1_655
Cs1 Na1 3.646459 1_545
Cs1 P1 3.667905 1_655
Cs1 P3 3.667905 1_545
Cs1 P0 3.781672 1_556
Cs1 P0 3.781672 1_555
Cs1 P2 3.781672 1_555
Cs1 P2 3.781672 1_556
Cs1 Na0 3.847995 1_556
Cs1 Na0 3.847995 1_555
Cs1 Pd0 3.901511 1_556
Cs1 Pd1 3.901511 1_555
Cs1 Pd0 3.901511 1_666
Cs1 Pd1 3.901511 1_665
Na0 Pd1 3.023934 1_655
Na0 Pd0 3.023934 1_655
Na0 P2 3.135106 1_555
Na0 P0 3.135106 1_555
Na0 P1 3.357182 1_654
Na0 P1 3.357182 1_655
Na0 P3 3.357182 1_545
Na0 P3 3.357182 1_544
Na1 Pd1 3.023934 1_565
Na1 Pd0 3.023934 1_566
Na1 P3 3.135106 1_555
Na1 P1 3.135106 1_555
Na1 P0 3.357182 1_455
Na1 P0 3.357182 1_456
Na1 P2 3.357182 1_565
Na1 P2 3.357182 1_566
P0 P2 2.159547 1_665
P0 Pd0 2.406700 1_665
P0 Pd1 2.406700 1_665
P1 P3 2.159547 1_445
P1 Pd0 2.406700 1_556
P1 Pd1 2.406700 1_555
P2 Pd0 2.406700 1_555
P2 Pd1 2.406700 1_555
P3 Pd0 2.406700 1_666
P3 Pd1 2.406700 1_665
