# generated using pymatgen
data_Tm(CoSi)2
_symmetry_space_group_name_H-M   'P 1'
_cell_length_a   3.82344211
_cell_length_b   3.82344252
_cell_length_c   5.51717905
_cell_angle_alpha   110.27359885
_cell_angle_beta   110.27360515
_cell_angle_gamma   89.99999204
_symmetry_Int_Tables_number   1
_chemical_formula_structural   Tm(CoSi)2
_chemical_formula_sum   'Tm1 Co2 Si2'
_cell_volume   70.30658576
_cell_formula_units_Z   1
loop_
 _symmetry_equiv_pos_site_id
 _symmetry_equiv_pos_as_xyz
  1  'x, y, z'
loop_
 _atom_site_type_symbol
 _atom_site_label
 _atom_site_symmetry_multiplicity
 _atom_site_fract_x
 _atom_site_fract_y
 _atom_site_fract_z
 _atom_site_occupancy
  Tm  Tm0  1  -0.00000000  -0.00000000  0.00000000  1
  Co  Co0  1  0.75000000  0.25000000  0.50000000  1
  Co  Co1  1  0.25000000  0.75000000  0.50000000  1
  Si  Si0  1  0.62761494  0.62761494  0.25522789  1
  Si  Si1  1  0.37238506  0.37238506  0.74477211  1
loop_
_geom_bond_atom_site_label_1
_geom_bond_atom_site_label_2
_geom_bond_distance
_geom_bond_site_symmetry_2
Co0 Si1 2.245095 1_655
Co0 Si0 2.245096 1_545
Co0 Si1 2.245102 1_555
Co0 Si0 2.245102 1_555
Co0 Tm0 3.071995 1_555
Co0 Tm0 3.071995 1_666
Co0 Tm0 3.071995 1_656
Co0 Tm0 3.071995 1_655
Co1 Si0 2.245095 1_455
Co1 Si1 2.245096 1_565
Co1 Si0 2.245102 1_555
Co1 Si1 2.245102 1_555
Co1 Tm0 3.071995 1_666
Co1 Tm0 3.071995 1_555
Co1 Tm0 3.071995 1_565
Co1 Tm0 3.071995 1_566
Si0 Si1 2.454964 1_554
Si0 Tm0 2.969182 1_665
Si0 Tm0 2.969186 1_565
Si0 Tm0 2.969186 1_655
Si0 Tm0 2.969191 1_555
Si1 Tm0 2.969182 1_556
Si1 Tm0 2.969186 1_656
Si1 Tm0 2.969186 1_566
Si1 Tm0 2.969191 1_666
