# generated using pymatgen
data_Cd4Rh3IO14
_symmetry_space_group_name_H-M   'P 1'
_cell_length_a   7.19545691
_cell_length_b   7.13157322
_cell_length_c   7.13157199
_cell_angle_alpha   59.99999247
_cell_angle_beta   60.29325351
_cell_angle_gamma   60.29325598
_symmetry_Int_Tables_number   1
_chemical_formula_structural   Cd4Rh3IO14
_chemical_formula_sum   'Cd4 Rh3 I1 O14'
_cell_volume   259.91111070
_cell_formula_units_Z   1
loop_
 _symmetry_equiv_pos_site_id
 _symmetry_equiv_pos_as_xyz
  1  'x, y, z'
loop_
 _atom_site_type_symbol
 _atom_site_label
 _atom_site_symmetry_multiplicity
 _atom_site_fract_x
 _atom_site_fract_y
 _atom_site_fract_z
 _atom_site_occupancy
  Cd  Cd0  1  0.12500000  0.62500000  0.12500000  1
  Cd  Cd1  1  0.12500000  0.12500000  0.62500000  1
  Cd  Cd2  1  0.62500000  0.12500000  0.12500000  1
  Cd  Cd3  1  0.12500000  0.12500000  0.12500000  1
  Rh  Rh0  1  0.62500000  0.12500000  0.62500000  1
  Rh  Rh1  1  0.62500000  0.62500000  0.12500000  1
  Rh  Rh2  1  0.62500000  0.62500000  0.62500000  1
  I  I0  1  0.12500000  0.62500000  0.62500000  1
  O  O0  1  0.70946395  0.69549176  0.29752264  1
  O  O1  1  0.95640173  0.55143995  0.55143995  1
  O  O2  1  0.54053605  0.95247736  0.95247736  1
  O  O3  1  0.95640173  0.94071937  0.55143995  1
  O  O4  1  0.95640173  0.55143995  0.94071937  1
  O  O5  1  0.54053605  0.95247736  0.55450824  1
  O  O6  1  0.29359827  0.69856005  0.30928063  1
  O  O7  1  0.29359827  0.69856005  0.69856005  1
  O  O8  1  0.70946395  0.29752264  0.29752264  1
  O  O9  1  0.70946395  0.29752264  0.69549176  1
  O  O10  1  0.54053605  0.55450824  0.95247736  1
  O  O11  1  0.29359827  0.30928063  0.69856005  1
  O  O12  1  0.25366964  0.24877679  0.24877679  1
  O  O13  1  0.99633036  0.00122321  0.00122321  1
loop_
_geom_bond_atom_site_label_1
_geom_bond_atom_site_label_2
_geom_bond_distance
_geom_bond_site_symmetry_2
Cd0 O13 2.194260 1_465
Cd0 O12 2.194260 1_555
Cd0 O10 2.487794 1_554
Cd0 O0 2.487794 1_455
Cd0 O6 2.524764 1_555
Cd0 O4 2.524764 1_454
Cd0 O1 2.524769 1_455
Cd0 O7 2.524769 1_554
Cd1 O13 2.194260 1_456
Cd1 O12 2.194260 1_555
Cd1 O5 2.487794 1_545
Cd1 O9 2.487794 1_455
Cd1 O11 2.524764 1_555
Cd1 O3 2.524764 1_445
Cd1 O1 2.524770 1_455
Cd1 O7 2.524770 1_545
Cd2 O13 2.191210 1_555
Cd2 O12 2.191210 1_555
Cd2 O5 2.528421 1_545
Cd2 O9 2.528421 1_554
Cd2 O10 2.528422 1_554
Cd2 O0 2.528422 1_545
Cd2 O8 2.528428 1_555
Cd2 O2 2.528428 1_544
Cd3 O12 2.194260 1_555
Cd3 O13 2.194260 1_455
Cd3 O8 2.487795 1_455
Cd3 O2 2.487795 1_544
Cd3 O3 2.524768 1_445
Cd3 O11 2.524768 1_554
Cd3 O6 2.524768 1_545
Cd3 O4 2.524768 1_454
I0 O7 1.886491 1_555
I0 O1 1.886491 1_455
I0 O4 1.886496 1_455
I0 O6 1.886496 1_555
I0 O11 1.886496 1_555
I0 O3 1.886496 1_455
O0 Rh2 1.948924 1_555
O0 Rh1 1.948931 1_555
O1 Rh2 2.008028 1_555
O2 Rh0 1.948925 1_565
O2 Rh1 1.948926 1_556
O3 Rh0 2.008026 1_565
O4 Rh1 2.008026 1_556
O5 Rh2 1.948924 1_555
O5 Rh0 1.948931 1_565
O6 Rh1 2.008026 1_555
O7 Rh2 2.008028 1_555
O8 Rh0 1.948925 1_555
O8 Rh1 1.948926 1_555
O9 Rh2 1.948924 1_555
O9 Rh0 1.948931 1_555
O10 Rh2 1.948924 1_555
O10 Rh1 1.948931 1_556
O11 Rh0 2.008026 1_555
