# generated using pymatgen
data_KBaMoN3
_symmetry_space_group_name_H-M   'P 1'
_cell_length_a   6.68543029
_cell_length_b   6.68542986
_cell_length_c   13.29060143
_cell_angle_alpha   89.93734774
_cell_angle_beta   89.93735128
_cell_angle_gamma   125.85932133
_symmetry_Int_Tables_number   1
_chemical_formula_structural   KBaMoN3
_chemical_formula_sum   'K4 Ba4 Mo4 N12'
_cell_volume   481.42923520
_cell_formula_units_Z   4
loop_
 _symmetry_equiv_pos_site_id
 _symmetry_equiv_pos_as_xyz
  1  'x, y, z'
loop_
 _atom_site_type_symbol
 _atom_site_label
 _atom_site_symmetry_multiplicity
 _atom_site_fract_x
 _atom_site_fract_y
 _atom_site_fract_z
 _atom_site_occupancy
  K  K0  1  0.95599389  0.55065854  0.36137317  1
  K  K1  1  0.44934146  0.04400611  0.13862683  1
  K  K2  1  0.04400611  0.44934146  0.63862683  1
  K  K3  1  0.55065854  0.95599389  0.86137317  1
  Ba  Ba0  1  0.14036449  0.35508097  0.08218895  1
  Ba  Ba1  1  0.64491903  0.85963551  0.41781105  1
  Ba  Ba2  1  0.85963551  0.64491903  0.91781105  1
  Ba  Ba3  1  0.35508097  0.14036449  0.58218895  1
  Mo  Mo0  1  0.76960544  0.72738838  0.16742565  1
  Mo  Mo1  1  0.27261162  0.23039456  0.33257435  1
  Mo  Mo2  1  0.23039456  0.27261162  0.83257435  1
  Mo  Mo3  1  0.72738838  0.76960544  0.66742565  1
  N  N0  1  0.48245873  0.51754127  0.25000000  1
  N  N1  1  0.51754127  0.48245873  0.75000000  1
  N  N2  1  0.90609702  0.57681812  0.12437996  1
  N  N3  1  0.42318188  0.09390298  0.37562004  1
  N  N4  1  0.09390298  0.42318188  0.87562004  1
  N  N5  1  0.57681812  0.90609702  0.62437996  1
  N  N6  1  0.82347233  0.68570111  0.55878178  1
  N  N7  1  0.31429889  0.17652767  0.94121822  1
  N  N8  1  0.17652767  0.31429889  0.44121822  1
  N  N9  1  0.68570111  0.82347233  0.05878178  1
  N  N10  1  0.99083045  0.00916955  0.25000000  1
  N  N11  1  0.00916955  0.99083045  0.75000000  1
loop_
_geom_bond_atom_site_label_1
_geom_bond_atom_site_label_2
_geom_bond_distance
_geom_bond_site_symmetry_2
K0 N8 2.919941 1_655
K0 N3 3.049980 1_555
K0 N6 3.069351 1_555
K0 N3 3.113548 1_665
K0 N2 3.183149 1_555
K1 N9 2.919941 1_545
K1 N2 3.049980 1_555
K1 N7 3.069351 1_554
K1 N2 3.113548 1_445
K1 N3 3.183149 1_555
K2 N6 2.919941 1_455
K2 N5 3.049980 1_555
K2 N8 3.069351 1_555
K2 N5 3.113548 1_445
K2 N4 3.183149 1_555
K3 N7 2.919941 1_565
K3 N4 3.049980 1_555
K3 N9 3.069351 1_556
K3 N4 3.113548 1_665
K3 N5 3.183149 1_555
Ba0 N2 2.772164 1_455
Ba0 N7 2.813149 1_554
Ba0 N4 2.829477 1_554
Ba0 N0 2.913885 1_555
Ba0 N10 2.932049 1_455
Ba0 N9 3.052061 1_445
Ba0 N9 3.132773 1_555
Ba1 N3 2.772163 1_565
Ba1 N6 2.813149 1_555
Ba1 N5 2.829477 1_555
Ba1 N0 2.913885 1_555
Ba1 N10 2.932050 1_565
Ba1 N8 3.052061 1_665
Ba1 N8 3.132773 1_555
Ba2 N4 2.772164 1_655
Ba2 N9 2.813149 1_556
Ba2 N2 2.829477 1_556
Ba2 N1 2.913885 1_555
Ba2 N11 2.932049 1_655
Ba2 N7 3.052061 1_665
Ba2 N7 3.132773 1_555
Ba3 N5 2.772163 1_545
Ba3 N8 2.813149 1_555
Ba3 N3 2.829477 1_555
Ba3 N1 2.913885 1_555
Ba3 N11 2.932050 1_545
Ba3 N6 3.052061 1_445
Ba3 N6 3.132773 1_555
Mo0 N9 1.798373 1_555
Mo0 N2 1.802652 1_555
Mo0 N10 1.919494 1_565
Mo0 N0 1.922124 1_555
Mo1 N8 1.798373 1_555
Mo1 N3 1.802652 1_555
Mo1 N10 1.919494 1_455
Mo1 N0 1.922124 1_555
Mo2 N7 1.798373 1_555
Mo2 N4 1.802652 1_555
Mo2 N11 1.919494 1_545
Mo2 N1 1.922124 1_555
Mo3 N6 1.798373 1_555
Mo3 N5 1.802652 1_555
Mo3 N11 1.919494 1_655
Mo3 N1 1.922124 1_555
