# generated using pymatgen
data_Cu3OsS8
_symmetry_space_group_name_H-M   'P 1'
_cell_length_a   5.74231029
_cell_length_b   5.74231029
_cell_length_c   5.74231029
_cell_angle_alpha   90.55260317
_cell_angle_beta   90.55260317
_cell_angle_gamma   89.44739683
_symmetry_Int_Tables_number   1
_chemical_formula_structural   Cu3OsS8
_chemical_formula_sum   'Cu3 Os1 S8'
_cell_volume   189.32141985
_cell_formula_units_Z   1
loop_
 _symmetry_equiv_pos_site_id
 _symmetry_equiv_pos_as_xyz
  1  'x, y, z'
loop_
 _atom_site_type_symbol
 _atom_site_label
 _atom_site_symmetry_multiplicity
 _atom_site_fract_x
 _atom_site_fract_y
 _atom_site_fract_z
 _atom_site_occupancy
  Cu  Cu0  1  0.00000000  0.00000000  0.00000000  1
  Cu  Cu1  1  0.00000000  0.50000000  0.50000000  1
  Cu  Cu2  1  0.50000000  0.50000000  0.00000000  1
  Os  Os0  1  0.50000000  0.00000000  0.50000000  1
  S  S0  1  0.88708045  0.10181310  0.59920682  1
  S  S1  1  0.11291955  0.89818690  0.40079318  1
  S  S2  1  0.89980043  0.39980043  0.10019957  1
  S  S3  1  0.60181310  0.90079318  0.11291955  1
  S  S4  1  0.59920682  0.61291955  0.60181310  1
  S  S5  1  0.40079318  0.38708045  0.39818690  1
  S  S6  1  0.39818690  0.09920682  0.88708045  1
  S  S7  1  0.10019957  0.60019957  0.89980043  1
loop_
_geom_bond_atom_site_label_1
_geom_bond_atom_site_label_2
_geom_bond_distance
_geom_bond_site_symmetry_2
Cu0 S2 2.426549 1_455
Cu0 S7 2.426549 1_544
Cu0 S6 2.456414 1_554
Cu0 S3 2.456414 1_445
Cu0 S1 2.459454 1_545
Cu0 S0 2.459454 1_454
Cu1 S7 2.426549 1_555
Cu1 S2 2.426549 1_455
Cu1 S1 2.456414 1_555
Cu1 S0 2.456414 1_455
Cu1 S5 2.459454 1_555
Cu1 S4 2.459454 1_455
Cu2 S2 2.426549 1_555
Cu2 S7 2.426549 1_554
Cu2 S5 2.456414 1_555
Cu2 S4 2.456414 1_554
Cu2 S3 2.459454 1_555
Cu2 S6 2.459454 1_554
Os0 S0 2.366667 1_555
Os0 S6 2.366667 1_555
Os0 S5 2.366667 1_555
Os0 S4 2.366667 1_545
Os0 S3 2.366667 1_545
Os0 S1 2.366667 1_545
S0 S1 2.078628 1_645
S2 S7 2.012296 1_654
S3 S6 2.078628 1_564
S4 S5 2.078628 1_555
