# generated using pymatgen
data_FeCu6ClO8
_symmetry_space_group_name_H-M   'P 1'
_cell_length_a   6.35952787
_cell_length_b   6.35952780
_cell_length_c   6.35952857
_cell_angle_alpha   60.00000102
_cell_angle_beta   60.00000136
_cell_angle_gamma   59.99999476
_symmetry_Int_Tables_number   1
_chemical_formula_structural   FeCu6ClO8
_chemical_formula_sum   'Fe1 Cu6 Cl1 O8'
_cell_volume   181.86941109
_cell_formula_units_Z   1
loop_
 _symmetry_equiv_pos_site_id
 _symmetry_equiv_pos_as_xyz
  1  'x, y, z'
loop_
 _atom_site_type_symbol
 _atom_site_label
 _atom_site_symmetry_multiplicity
 _atom_site_fract_x
 _atom_site_fract_y
 _atom_site_fract_z
 _atom_site_occupancy
  Fe  Fe0  1  0.00000000  0.00000000  0.00000000  1
  Cu  Cu0  1  0.00000000  0.00000000  0.50000000  1
  Cu  Cu1  1  0.50000000  0.00000000  0.00000000  1
  Cu  Cu2  1  0.00000000  0.50000000  0.00000000  1
  Cu  Cu3  1  0.50000000  0.50000000  0.00000000  1
  Cu  Cu4  1  0.00000000  0.50000000  0.50000000  1
  Cu  Cu5  1  0.50000000  0.00000000  0.50000000  1
  Cl  Cl0  1  0.50000000  0.50000000  0.50000000  1
  O  O0  1  0.13885703  0.13885703  0.58342690  1
  O  O1  1  0.13885703  0.58342690  0.13885703  1
  O  O2  1  0.58342690  0.13885703  0.13885703  1
  O  O3  1  0.86114297  0.41657310  0.86114297  1
  O  O4  1  0.13885703  0.13885703  0.13885703  1
  O  O5  1  0.86114297  0.86114297  0.86114297  1
  O  O6  1  0.86114297  0.86114297  0.41657310  1
  O  O7  1  0.41657310  0.86114297  0.86114297  1
loop_
_geom_bond_atom_site_label_1
_geom_bond_atom_site_label_2
_geom_bond_distance
_geom_bond_site_symmetry_2
Fe0 O4 2.163059 1_555
Fe0 O5 2.163059 1_444
Fe0 O3 2.163069 1_454
Fe0 O1 2.163069 1_545
Fe0 O7 2.163069 1_544
Fe0 O2 2.163069 1_455
Fe0 O0 2.163070 1_554
Fe0 O6 2.163070 1_445
Cu0 O0 1.886248 1_555
Cu0 O6 1.886248 1_445
Cu0 O5 1.886258 1_445
Cu0 O4 1.886258 1_555
Cu1 O2 1.886248 1_555
Cu1 O7 1.886248 1_544
Cu1 O5 1.886258 1_544
Cu1 O4 1.886258 1_555
Cu2 O1 1.886248 1_555
Cu2 O3 1.886248 1_454
Cu2 O5 1.886258 1_454
Cu2 O4 1.886258 1_555
Cu3 O7 1.886259 1_554
Cu3 O2 1.886259 1_555
Cu3 O3 1.886259 1_554
Cu3 O1 1.886259 1_555
Cu4 O6 1.886259 1_455
Cu4 O0 1.886259 1_555
Cu4 O3 1.886259 1_455
Cu4 O1 1.886259 1_555
Cu5 O6 1.886259 1_545
Cu5 O0 1.886259 1_555
Cu5 O7 1.886259 1_545
Cu5 O2 1.886259 1_555
