# generated using pymatgen
data_In5Sn2Ir3
_symmetry_space_group_name_H-M   'P 1'
_cell_length_a   8.18428334
_cell_length_b   8.17986904
_cell_length_c   8.18428348
_cell_angle_alpha   110.75723661
_cell_angle_beta   108.85152813
_cell_angle_gamma   108.83471117
_symmetry_Int_Tables_number   1
_chemical_formula_structural   In5Sn2Ir3
_chemical_formula_sum   'In10 Sn4 Ir6'
_cell_volume   421.50628731
_cell_formula_units_Z   2
loop_
 _symmetry_equiv_pos_site_id
 _symmetry_equiv_pos_as_xyz
  1  'x, y, z'
loop_
 _atom_site_type_symbol
 _atom_site_label
 _atom_site_symmetry_multiplicity
 _atom_site_fract_x
 _atom_site_fract_y
 _atom_site_fract_z
 _atom_site_occupancy
  In  In0  1  0.00130335  0.99799554  0.67968905  1
  In  In1  1  0.31830550  0.99799554  0.99669220  1
  In  In2  1  0.68511312  0.67961867  0.67856834  1
  In  In3  1  0.00293753  0.32001211  0.00079456  1
  In  In4  1  0.31921655  0.32001211  0.31707458  1
  In  In5  1  0.00105033  0.67961867  0.99450555  1
  In  In6  1  0.24734315  0.74541414  0.49807099  1
  In  In7  1  0.74727151  0.25006762  0.50279611  1
  In  In8  1  0.75003957  0.49981775  0.24996164  1
  In  In9  1  0.24985611  0.49981775  0.74977818  1
  Sn  Sn0  1  0.49842884  0.75164963  0.25322079  1
  Sn  Sn1  1  0.50207989  0.25517188  0.75309299  1
  Sn  Sn2  1  0.00266707  0.00144540  0.32478550  1
  Sn  Sn3  1  0.67665990  0.00144540  0.99877832  1
  Ir  Ir0  1  0.65091076  0.99998270  0.65694733  1
  Ir  Ir1  1  0.65874142  0.66462187  0.00588045  1
  Ir  Ir2  1  0.35115400  0.35211573  0.00096173  1
  Ir  Ir3  1  0.99975735  0.64741690  0.64765955  1
  Ir  Ir4  1  0.99412970  0.33579990  0.34166920  1
  Ir  Ir5  1  0.34303438  0.99998270  0.34907194  1
loop_
_geom_bond_atom_site_label_1
_geom_bond_atom_site_label_2
_geom_bond_distance
_geom_bond_site_symmetry_2
In0 Ir3 2.781024 1_455
In0 Ir2 2.807757 1_566
In0 Ir0 2.818864 1_455
In0 Sn2 2.918330 1_565
In1 Ir3 2.781022 1_455
In1 Ir2 2.807754 1_566
In1 Ir5 2.818864 1_556
In1 Sn3 2.918338 1_565
In2 Ir3 2.752529 1_555
In2 Ir0 2.783377 1_555
In2 Ir1 2.797705 1_556
In2 Sn3 3.024485 1_565
In3 Ir4 2.772280 1_455
In3 Ir2 2.775772 1_555
In3 Ir0 2.782421 1_444
In3 Sn3 3.060965 1_454
In4 Ir4 2.772277 1_455
In4 Ir2 2.775775 1_555
In4 Ir5 2.782421 1_545
In4 Sn2 3.060960 1_555
In5 Ir3 2.752529 1_455
In5 Ir5 2.783374 1_556
In5 Ir1 2.797705 1_456
In5 Sn2 3.024485 1_566
In6 Ir3 2.738131 1_455
In6 Ir5 2.792962 1_555
In6 Ir0 2.792963 1_555
In6 Ir4 2.814603 1_455
In7 Ir3 2.754747 1_555
In7 Ir4 2.788377 1_555
In7 Ir0 2.798040 1_545
In7 Ir5 2.798046 1_545
In8 Ir3 2.747957 1_555
In8 Ir2 2.771107 1_555
In8 Ir4 2.798129 1_555
In8 Ir1 2.821482 1_555
In9 Ir3 2.747957 1_455
In9 Ir2 2.771106 1_556
In9 Ir4 2.798138 1_455
In9 Ir1 2.821482 1_556
Ir0 Sn3 2.732215 1_565
Ir0 Sn0 2.746346 1_555
Ir0 Sn1 2.749007 1_565
Ir1 Sn3 2.733862 1_564
Ir1 Sn2 2.733862 1_665
Ir1 Sn0 2.761166 1_555
Ir1 Sn1 2.782657 1_554
Ir2 Sn1 2.716884 1_554
Ir2 Sn0 2.731623 1_555
Ir4 Sn3 2.713999 1_554
Ir4 Sn2 2.714004 1_655
Ir5 Sn2 2.732207 1_565
Ir5 Sn0 2.746352 1_555
Ir5 Sn1 2.749011 1_565
