# generated using pymatgen
data_Zr6AlPN2
_symmetry_space_group_name_H-M   'P 1'
_cell_length_a   5.91572314
_cell_length_b   5.91572417
_cell_length_c   8.64990217
_cell_angle_alpha   90.00000000
_cell_angle_beta   90.00000000
_cell_angle_gamma   146.40642764
_symmetry_Int_Tables_number   1
_chemical_formula_structural   Zr6AlPN2
_chemical_formula_sum   'Zr6 Al1 P1 N2'
_cell_volume   167.48894073
_cell_formula_units_Z   1
loop_
 _symmetry_equiv_pos_site_id
 _symmetry_equiv_pos_as_xyz
  1  'x, y, z'
loop_
 _atom_site_type_symbol
 _atom_site_label
 _atom_site_symmetry_multiplicity
 _atom_site_fract_x
 _atom_site_fract_y
 _atom_site_fract_z
 _atom_site_occupancy
  Zr  Zr0  1  0.94990951  0.05009049  0.75000000  1
  Zr  Zr1  1  0.06581462  0.93418538  0.25000000  1
  Zr  Zr2  1  0.62739608  0.37260392  0.54453557  1
  Zr  Zr3  1  0.36767304  0.63232696  0.43911552  1
  Zr  Zr4  1  0.36767304  0.63232696  0.06088448  1
  Zr  Zr5  1  0.62739608  0.37260392  0.95546443  1
  Al  Al0  1  0.25322847  0.74677153  0.75000000  1
  P  P0  1  0.74393449  0.25606551  0.25000000  1
  N  N0  1  0.99848634  0.00151366  0.49445692  1
  N  N1  1  0.99848634  0.00151366  0.00554308  1
loop_
_geom_bond_atom_site_label_1
_geom_bond_atom_site_label_2
_geom_bond_distance
_geom_bond_site_symmetry_2
Al0 Zr0 2.808072 1_565
Al0 Zr0 2.808072 1_455
Al0 Zr5 2.848230 1_455
Al0 Zr2 2.848230 1_455
Al0 Zr5 2.848231 1_565
Al0 Zr2 2.848231 1_565
Al0 Zr4 2.985247 1_556
Al0 Zr3 2.985247 1_555
P0 Zr1 2.644383 1_545
P0 Zr1 2.644384 1_655
P0 Zr3 2.750038 1_655
P0 Zr4 2.750038 1_655
P0 Zr3 2.750039 1_545
P0 Zr4 2.750039 1_545
P0 Zr2 2.869351 1_555
P0 Zr5 2.869351 1_554
N0 Zr1 2.247843 1_645
N0 Zr0 2.277873 1_555
N0 Zr2 2.289547 1_655
N0 Zr2 2.289547 1_545
N0 Zr3 2.312350 1_545
N0 Zr3 2.312350 1_655
N1 Zr1 2.247843 1_645
N1 Zr0 2.277873 1_554
N1 Zr5 2.289547 1_654
N1 Zr5 2.289547 1_544
N1 Zr4 2.312350 1_545
N1 Zr4 2.312350 1_655
