# generated using pymatgen
data_MnCr4Ag3O16
_symmetry_space_group_name_H-M   'P 1'
_cell_length_a   5.11085941
_cell_length_b   7.03864306
_cell_length_c   9.22428403
_cell_angle_alpha   90.25493740
_cell_angle_beta   91.39207230
_cell_angle_gamma   86.57508842
_symmetry_Int_Tables_number   1
_chemical_formula_structural   MnCr4Ag3O16
_chemical_formula_sum   'Mn1 Cr4 Ag3 O16'
_cell_volume   331.13799996
_cell_formula_units_Z   1
loop_
 _symmetry_equiv_pos_site_id
 _symmetry_equiv_pos_as_xyz
  1  'x, y, z'
loop_
 _atom_site_type_symbol
 _atom_site_label
 _atom_site_symmetry_multiplicity
 _atom_site_fract_x
 _atom_site_fract_y
 _atom_site_fract_z
 _atom_site_occupancy
  Mn  Mn0  1  0.50000000  0.50000000  0.50000000  1
  Cr  Cr0  1  0.51733163  0.75034382  0.80438595  1
  Cr  Cr1  1  0.02754544  0.28444970  0.67266450  1
  Cr  Cr2  1  0.48266837  0.24965618  0.19561405  1
  Cr  Cr3  1  0.97245456  0.71555030  0.32733550  1
  Ag  Ag0  1  0.00000000  0.00000000  0.00000000  1
  Ag  Ag1  1  0.50000000  0.00000000  0.50000000  1
  Ag  Ag2  1  0.00000000  0.50000000  0.00000000  1
  O  O0  1  0.20926503  0.45665929  0.61423473  1
  O  O1  1  0.65069819  0.56199671  0.88744559  1
  O  O2  1  0.86392867  0.91725517  0.39241702  1
  O  O3  1  0.33946901  0.05816876  0.14768471  1
  O  O4  1  0.79073497  0.54334071  0.38576527  1
  O  O5  1  0.34930181  0.43800329  0.11255441  1
  O  O6  1  0.13607133  0.08274483  0.60758298  1
  O  O7  1  0.66053099  0.94183124  0.85231529  1
  O  O8  1  0.20979457  0.77067193  0.84790866  1
  O  O9  1  0.71034477  0.33241176  0.61970756  1
  O  O10  1  0.79020543  0.22932807  0.15209134  1
  O  O11  1  0.28965523  0.66758824  0.38029244  1
  O  O12  1  0.55940447  0.71534508  0.61819062  1
  O  O13  1  0.05942555  0.26711423  0.85157251  1
  O  O14  1  0.44059553  0.28465492  0.38180938  1
  O  O15  1  0.94057445  0.73288577  0.14842749  1
loop_
_geom_bond_atom_site_label_1
_geom_bond_atom_site_label_2
_geom_bond_distance
_geom_bond_site_symmetry_2
Mn0 O4 1.882665 1_555
Mn0 O0 1.882665 1_555
Mn0 O11 1.889140 1_555
Mn0 O9 1.889140 1_555
Mn0 O12 1.898004 1_555
Mn0 O14 1.898004 1_555
Cr0 O7 1.626202 1_555
Cr0 O8 1.629544 1_555
Cr0 O1 1.638540 1_555
Cr0 O12 1.750612 1_555
Cr1 O6 1.611887 1_555
Cr1 O13 1.658696 1_555
Cr1 O0 1.669412 1_555
Cr1 O9 1.696577 1_455
Cr2 O3 1.626202 1_555
Cr2 O10 1.629544 1_555
Cr2 O5 1.638540 1_555
Cr2 O14 1.750612 1_555
Cr3 O2 1.611887 1_555
Cr3 O15 1.658696 1_555
Cr3 O4 1.669412 1_555
Cr3 O11 1.696577 1_655
Ag0 O3 2.235772 1_555
Ag0 O7 2.235772 1_444
Ag0 O10 2.359990 1_455
Ag0 O8 2.359990 1_544
Ag0 O13 2.369172 1_554
Ag0 O15 2.369172 1_445
Ag1 O6 2.176851 1_555
Ag1 O2 2.176851 1_545
Ag1 O12 2.285999 1_545
Ag1 O14 2.285999 1_555
Ag2 O1 2.067922 1_454
Ag2 O5 2.067922 1_555
Ag2 O15 2.143480 1_455
Ag2 O13 2.143480 1_554
Ag2 O10 2.662423 1_455
Ag2 O8 2.662423 1_554
