# generated using pymatgen
data_Ti13Al9(Fe3Au)2
_symmetry_space_group_name_H-M   'P 1'
_cell_length_a   8.56460284
_cell_length_b   8.62008758
_cell_length_c   8.56460226
_cell_angle_alpha   59.58961470
_cell_angle_beta   59.92833934
_cell_angle_gamma   59.58962899
_symmetry_Int_Tables_number   1
_chemical_formula_structural   Ti13Al9(Fe3Au)2
_chemical_formula_sum   'Ti13 Al9 Fe6 Au2'
_cell_volume   444.07508780
_cell_formula_units_Z   1
loop_
 _symmetry_equiv_pos_site_id
 _symmetry_equiv_pos_as_xyz
  1  'x, y, z'
loop_
 _atom_site_type_symbol
 _atom_site_label
 _atom_site_symmetry_multiplicity
 _atom_site_fract_x
 _atom_site_fract_y
 _atom_site_fract_z
 _atom_site_occupancy
  Ti  Ti0  1  0.20888996  0.20874412  0.79225417  1
  Ti  Ti1  1  0.79225417  0.20874412  0.20888996  1
  Ti  Ti2  1  0.20787109  0.79418342  0.20787109  1
  Ti  Ti3  1  0.80885218  0.80088076  0.17619440  1
  Ti  Ti4  1  0.17619440  0.80088076  0.80885218  1
  Ti  Ti5  1  0.80103045  0.18947987  0.80103045  1
  Ti  Ti6  1  0.37937087  0.38534033  0.37937087  1
  Ti  Ti7  1  0.39497701  0.84986892  0.39497701  1
  Ti  Ti8  1  0.85779068  0.39930250  0.37597642  1
  Ti  Ti9  1  0.37597642  0.39930250  0.85779068  1
  Ti  Ti10  1  0.84474052  0.46701421  0.84474052  1
  Ti  Ti11  1  0.46649103  0.83322288  0.83560232  1
  Ti  Ti12  1  0.83560232  0.83322288  0.46649103  1
  Al  Al0  1  0.14850458  0.17271450  0.14850458  1
  Al  Al1  1  0.16528096  0.51777799  0.16528096  1
  Al  Al2  1  0.52327323  0.16777597  0.16816300  1
  Al  Al3  1  0.16816300  0.16777597  0.52327323  1
  Al  Al4  1  0.62383453  0.60803917  0.62383453  1
  Al  Al5  1  0.61215561  0.14627878  0.61215561  1
  Al  Al6  1  0.14572384  0.60792456  0.62107519  1
  Al  Al7  1  0.62107519  0.60792456  0.14572384  1
  Al  Al8  1  0.82799014  0.81583271  0.82799014  1
  Fe  Fe0  1  0.00392619  0.50479522  0.00392619  1
  Fe  Fe1  1  0.50100126  0.50104596  0.99907353  1
  Fe  Fe2  1  0.99907353  0.50104596  0.50100126  1
  Fe  Fe3  1  0.50185258  0.99281779  0.50185258  1
  Fe  Fe4  1  0.50108387  0.49990835  0.50108387  1
  Fe  Fe5  1  0.00393316  0.00763208  0.00393316  1
  Au  Au0  1  0.00439772  0.00526008  0.49868951  1
  Au  Au1  1  0.49868951  0.00526008  0.00439772  1
loop_
_geom_bond_atom_site_label_1
_geom_bond_atom_site_label_2
_geom_bond_distance
_geom_bond_site_symmetry_2
Ti0 Ti10 2.732071 1_455
Ti0 Ti11 2.803180 1_545
Ti0 Ti6 2.929153 1_555
Ti0 Ti9 3.029730 1_555
Ti1 Ti10 2.732070 1_554
Ti1 Ti12 2.803180 1_545
Ti1 Ti6 2.929154 1_555
Ti1 Ti8 3.029730 1_555
Ti2 Ti6 2.901073 1_555
Ti2 Ti7 3.081778 1_555
Ti3 Ti8 2.887872 1_555
Ti3 Ti7 2.980513 1_555
Ti4 Ti9 2.887872 1_555
Ti4 Ti7 2.980513 1_555
Ti5 Ti8 3.034966 1_555
Ti5 Ti9 3.034967 1_555
Ti10 Ti5 2.820915 1_555
Al0 Fe0 2.370758 1_555
Al0 Au0 2.512601 1_555
Al0 Au1 2.512601 1_555
Al0 Ti0 2.700975 1_554
Al0 Ti1 2.700976 1_455
Al0 Ti9 2.806705 1_554
Al0 Ti8 2.806706 1_455
Al0 Ti2 2.839702 1_545
Al0 Ti7 3.037750 1_545
Al1 Fe2 2.449635 1_455
Al1 Fe1 2.449635 1_554
Al1 Fe0 2.461518 1_555
Al1 Ti6 2.675521 1_555
Al1 Ti8 2.707277 1_455
Al1 Ti9 2.707277 1_554
Al1 Ti4 2.772371 1_554
Al1 Ti3 2.772372 1_455
Al1 Ti2 2.799314 1_555
Al1 Al3 3.023143 1_555
Al1 Al2 3.023144 1_555
Al2 Fe3 2.422190 1_545
Al2 Fe1 2.428351 1_554
Al2 Au1 2.560834 1_555
Al2 Ti6 2.677417 1_555
Al2 Ti1 2.703168 1_555
Al2 Ti5 2.817761 1_554
Al2 Ti7 2.830314 1_545
Al2 Ti9 2.842818 1_554
Al2 Ti3 2.847211 1_545
Al2 Al3 3.038083 1_555
Al3 Fe3 2.422191 1_545
Al3 Fe2 2.428351 1_455
Al3 Au0 2.560834 1_555
Al3 Ti6 2.677417 1_555
Al3 Ti0 2.703168 1_555
Al3 Ti5 2.817761 1_455
Al3 Ti7 2.830314 1_545
Al3 Ti8 2.842818 1_455
Al3 Ti4 2.847211 1_545
Al4 Fe4 2.484164 1_555
Al4 Fe1 2.622781 1_555
Al4 Fe2 2.622781 1_555
Al4 Fe3 2.694792 1_555
Al4 Ti12 2.709239 1_555
Al4 Ti11 2.709239 1_555
Al4 Ti10 2.750879 1_555
Al4 Ti7 2.757977 1_555
Al4 Ti9 2.777227 1_555
Al4 Ti8 2.777228 1_555
Al4 Ti5 2.974139 1_555
Al4 Ti3 3.177919 1_555
Al4 Ti4 3.177920 1_555
Al5 Fe4 2.477417 1_555
Al5 Fe3 2.638101 1_545
Al5 Au1 2.738175 1_556
Al5 Au0 2.738176 1_655
Al5 Al8 2.776883 1_545
Al5 Ti6 2.803770 1_555
Al5 Ti1 2.866549 1_555
Al5 Ti0 2.866549 1_555
Al5 Ti11 2.878961 1_545
Al5 Ti12 2.878961 1_545
Al5 Ti8 3.031297 1_555
Al5 Ti9 3.031298 1_555
Al5 Ti5 3.035511 1_555
Al6 Fe4 2.480192 1_555
Al6 Fe2 2.628504 1_455
Al6 Fe0 2.677311 1_556
Al6 Al8 2.683791 1_455
Al6 Ti10 2.766869 1_455
Al6 Au0 2.781140 1_565
Al6 Ti6 2.820230 1_555
Al6 Ti9 2.821084 1_555
Al6 Ti0 2.843487 1_555
Al6 Ti12 2.877174 1_455
Al6 Ti2 2.934327 1_555
Al6 Ti7 2.988741 1_555
Al6 Ti4 2.998205 1_555
Al7 Fe4 2.480192 1_555
Al7 Fe1 2.628504 1_554
Al7 Fe0 2.677311 1_655
Al7 Al8 2.683790 1_554
Al7 Ti10 2.766869 1_554
Al7 Au1 2.781140 1_565
Al7 Ti6 2.820229 1_555
Al7 Ti8 2.821084 1_555
Al7 Ti1 2.843487 1_555
Al7 Ti11 2.877174 1_554
Al7 Ti2 2.934328 1_555
Al7 Ti7 2.988741 1_555
Al7 Ti3 2.998205 1_555
Al8 Fe0 2.413505 1_656
Al8 Au0 2.543271 1_665
Al8 Au1 2.543271 1_566
Al8 Ti3 2.842457 1_556
Al8 Ti4 2.842458 1_655
Al8 Ti10 2.868711 1_555
Al8 Ti12 2.991701 1_555
Al8 Ti11 2.991701 1_555
Al8 Ti5 3.004707 1_565
Fe0 Ti10 2.566199 1_454
Fe0 Ti8 2.601710 1_455
Fe0 Ti9 2.601711 1_554
Fe0 Ti4 2.916725 1_554
Fe0 Ti3 2.916725 1_455
Fe0 Ti1 3.136858 1_455
Fe0 Ti0 3.136859 1_554
Fe1 Ti11 2.397062 1_555
Fe1 Ti10 2.473606 1_555
Fe1 Ti9 2.589127 1_555
Fe1 Ti6 2.655440 1_556
Fe1 Ti1 3.057058 1_556
Fe2 Ti12 2.397062 1_555
Fe2 Ti10 2.473606 1_555
Fe2 Ti8 2.589127 1_555
Fe2 Ti6 2.655440 1_655
Fe2 Ti0 3.057057 1_655
Fe3 Ti11 2.393348 1_555
Fe3 Ti12 2.393349 1_555
Fe3 Ti7 2.513475 1_555
Fe3 Ti6 2.750556 1_565
Fe3 Ti1 3.106554 1_565
Fe3 Ti0 3.106554 1_565
Fe4 Ti7 2.455396 1_555
Fe4 Ti9 2.492283 1_555
Fe4 Ti8 2.492283 1_555
Fe4 Ti6 2.514374 1_555
Fe5 Ti5 2.451089 1_454
Fe5 Ti3 2.454950 1_445
Fe5 Ti4 2.454950 1_544
Fe5 Ti2 2.457090 1_545
Fe5 Ti0 2.466406 1_554
Fe5 Ti1 2.466406 1_455
Au0 Ti12 2.710939 1_445
Au0 Ti7 2.731992 1_545
Au0 Ti8 2.758494 1_455
Au0 Ti4 2.979954 1_545
Au0 Ti5 3.017187 1_455
Au0 Ti1 3.069823 1_455
Au0 Ti2 3.095046 1_545
Au1 Ti11 2.710939 1_544
Au1 Ti7 2.731991 1_545
Au1 Ti9 2.758494 1_554
Au1 Ti3 2.979954 1_545
Au1 Ti5 3.017186 1_554
Au1 Ti0 3.069823 1_554
Au1 Ti2 3.095046 1_545
