# generated using pymatgen
data_RbCd4Ga5Se12
_symmetry_space_group_name_H-M   'P 1'
_cell_length_a   8.92086593
_cell_length_b   8.96961441
_cell_length_c   9.21279622
_cell_angle_alpha   108.44806837
_cell_angle_beta   106.55351499
_cell_angle_gamma   108.01858249
_symmetry_Int_Tables_number   1
_chemical_formula_structural   RbCd4Ga5Se12
_chemical_formula_sum   'Rb1 Cd4 Ga5 Se12'
_cell_volume   602.15718935
_cell_formula_units_Z   1
loop_
 _symmetry_equiv_pos_site_id
 _symmetry_equiv_pos_as_xyz
  1  'x, y, z'
loop_
 _atom_site_type_symbol
 _atom_site_label
 _atom_site_symmetry_multiplicity
 _atom_site_fract_x
 _atom_site_fract_y
 _atom_site_fract_z
 _atom_site_occupancy
  Rb  Rb0  1  0.99887492  0.00397469  0.00240859  1
  Cd  Cd0  1  0.49155334  0.33949115  0.93360488  1
  Cd  Cd1  1  0.62634984  0.70682117  0.40243978  1
  Cd  Cd2  1  0.40526851  0.64362655  0.71865105  1
  Cd  Cd3  1  0.71450758  0.40244423  0.63589607  1
  Ga  Ga0  1  0.18686092  0.55288203  0.02660916  1
  Ga  Ga1  1  0.02163034  0.18392494  0.55431593  1
  Ga  Ga2  1  0.56094165  0.02267408  0.19145622  1
  Ga  Ga3  1  0.93699357  0.47122490  0.33290453  1
  Ga  Ga4  1  0.32098708  0.93059289  0.46934688  1
  Se  Se0  1  0.87818219  0.63475321  0.54842983  1
  Se  Se1  1  0.54789101  0.88809043  0.63308813  1
  Se  Se2  1  0.66121629  0.59057996  0.87756408  1
  Se  Se3  1  0.35479590  0.42894390  0.14822507  1
  Se  Se4  1  0.14807956  0.36972849  0.43951095  1
  Se  Se5  1  0.43069241  0.14134096  0.36633028  1
  Se  Se6  1  0.06602516  0.67614783  0.22280926  1
  Se  Se7  1  0.21201898  0.06342609  0.66433134  1
  Se  Se8  1  0.70081369  0.21534405  0.08302556  1
  Se  Se9  1  0.78136597  0.93531912  0.30002280  1
  Se  Se10  1  0.29642356  0.78497450  0.94877265  1
  Se  Se11  1  0.93972554  0.29489382  0.78145794  1
loop_
_geom_bond_atom_site_label_1
_geom_bond_atom_site_label_2
_geom_bond_distance
_geom_bond_site_symmetry_2
Rb0 Se2 3.544332 1_544
Rb0 Se3 3.641031 1_655
Rb0 Se10 3.808863 1_644
Rb0 Se8 3.816933 1_555
Rb0 Se4 3.825419 1_655
Rb0 Se5 3.832499 1_655
Rb0 Se11 3.851314 1_554
Rb0 Se9 3.875953 1_545
Rb0 Se0 4.010170 1_544
Rb0 Se1 4.027108 1_544
Cd0 Se2 2.588820 1_555
Cd0 Se3 2.649105 1_556
Cd0 Se7 2.696539 1_555
Cd0 Se8 2.722448 1_556
Cd1 Se3 2.627389 1_555
Cd1 Se0 2.645899 1_555
Cd1 Se1 2.648335 1_555
Cd1 Se9 2.686491 1_555
Cd2 Se2 2.606015 1_555
Cd2 Se1 2.643441 1_555
Cd2 Se4 2.658070 1_555
Cd2 Se10 2.697845 1_555
Cd3 Se2 2.598520 1_555
Cd3 Se0 2.640843 1_555
Cd3 Se5 2.670308 1_555
Cd3 Se11 2.692241 1_555
Ga0 Se3 2.365947 1_555
Ga0 Se10 2.426668 1_554
Ga0 Se11 2.452578 1_454
Ga0 Se6 2.496892 1_555
Ga1 Se4 2.408539 1_555
Ga1 Se11 2.430341 1_455
Ga1 Se7 2.434790 1_555
Ga1 Se9 2.435271 1_445
Ga2 Se9 2.410277 1_545
Ga2 Se5 2.413530 1_555
Ga2 Se10 2.444815 1_544
Ga2 Se8 2.451583 1_555
Ga3 Se0 2.365528 1_555
Ga3 Se8 2.430445 1_555
Ga3 Se4 2.431450 1_655
Ga3 Se6 2.503709 1_655
Ga4 Se1 2.370585 1_555
Ga4 Se7 2.438937 1_565
Ga4 Se5 2.439686 1_565
Ga4 Se6 2.470828 1_555
