# generated using pymatgen
data_BaUO3
_symmetry_space_group_name_H-M   'P 1'
_cell_length_a   6.23957993
_cell_length_b   6.26455201
_cell_length_c   8.80358892
_cell_angle_alpha   89.99981005
_cell_angle_beta   89.99955897
_cell_angle_gamma   89.99814566
_symmetry_Int_Tables_number   1
_chemical_formula_structural   BaUO3
_chemical_formula_sum   'Ba4 U4 O12'
_cell_volume   344.11620658
_cell_formula_units_Z   4
loop_
 _symmetry_equiv_pos_site_id
 _symmetry_equiv_pos_as_xyz
  1  'x, y, z'
loop_
 _atom_site_type_symbol
 _atom_site_label
 _atom_site_symmetry_multiplicity
 _atom_site_fract_x
 _atom_site_fract_y
 _atom_site_fract_z
 _atom_site_occupancy
  Ba  Ba0  1  0.01634699  0.99302697  0.74995668  1
  Ba  Ba1  1  0.48365913  0.49301905  0.25004220  1
  Ba  Ba2  1  0.51634107  0.50698095  0.74995758  1
  Ba  Ba3  1  0.98365347  0.00697321  0.25004342  1
  U  U0  1  -0.00000026  0.49999982  0.00000005  1
  U  U1  1  0.00000025  0.50000018  0.49999993  1
  U  U2  1  0.49999996  0.00000031  0.50000037  1
  U  U3  1  0.50000025  0.00000006  0.00000001  1
  O  O0  1  0.22988010  0.23585474  0.04100891  1
  O  O1  1  0.51196208  0.92542178  0.25003171  1
  O  O2  1  0.72989758  0.26413555  0.45898618  1
  O  O3  1  0.72987995  0.26414331  0.04100713  1
  O  O4  1  0.77011797  0.76412646  0.54101178  1
  O  O5  1  0.01196403  0.57457929  0.25003784  1
  O  O6  1  0.22988224  0.23587345  0.45898859  1
  O  O7  1  0.27011998  0.73585666  0.95899297  1
  O  O8  1  0.27010259  0.73586500  0.54101401  1
  O  O9  1  0.48803762  0.07457858  0.74996849  1
  O  O10  1  0.77011956  0.76414513  0.95899124  1
  O  O11  1  0.98803643  0.42542050  0.74996191  1
loop_
_geom_bond_atom_site_label_1
_geom_bond_atom_site_label_2
_geom_bond_distance
_geom_bond_site_symmetry_2
Ba0 O11 2.714500 1_465
Ba0 O4 2.792936 1_455
Ba0 O10 2.793369 1_455
Ba0 O8 2.913011 1_555
Ba0 O7 2.913628 1_555
Ba0 O9 2.987179 1_565
Ba0 O6 3.263633 1_565
Ba0 O0 3.264178 1_566
Ba0 O9 3.335766 1_465
Ba1 O1 2.714566 1_555
Ba1 O2 2.792851 1_555
Ba1 O3 2.793285 1_555
Ba1 O6 2.913097 1_555
Ba1 O0 2.913674 1_555
Ba1 O5 2.987183 1_555
Ba1 O8 3.263679 1_555
Ba1 O7 3.264153 1_554
Ba1 O5 3.335779 1_655
Ba2 O9 2.714564 1_555
Ba2 O8 2.792851 1_555
Ba2 O7 2.793287 1_555
Ba2 O4 2.913094 1_555
Ba2 O10 2.913674 1_555
Ba2 O11 2.987185 1_555
Ba2 O2 3.263674 1_555
Ba2 O3 3.264155 1_556
Ba2 O11 3.335778 1_455
Ba3 O5 2.714502 1_645
Ba3 O6 2.792936 1_655
Ba3 O0 2.793365 1_655
Ba3 O2 2.913014 1_555
Ba3 O3 2.913629 1_555
Ba3 O1 2.987184 1_545
Ba3 O4 3.263636 1_545
Ba3 O10 3.264181 1_544
Ba3 O1 3.335761 1_645
O0 U0 2.219407 1_555
O0 U3 2.270230 1_555
O1 U2 2.250907 1_565
O1 U3 2.251448 1_565
O2 U2 2.219504 1_555
O2 U1 2.270272 1_655
O3 U3 2.219465 1_555
O3 U0 2.270303 1_655
O4 U1 2.219330 1_655
O4 U2 2.270304 1_565
O5 U1 2.250850 1_555
O5 U0 2.251506 1_555
O6 U1 2.219330 1_555
O6 U2 2.270301 1_555
O7 U3 2.219467 1_566
O7 U0 2.270306 1_556
O8 U2 2.219503 1_565
O8 U1 2.270271 1_555
O9 U2 2.250902 1_555
O9 U3 2.251447 1_556
O10 U0 2.219408 1_656
O10 U3 2.270227 1_566
O11 U1 2.250850 1_655
O11 U0 2.251509 1_656
