# generated using pymatgen
data_Ca4NiH12Rh
_symmetry_space_group_name_H-M   'P 1'
_cell_length_a   7.18904443
_cell_length_b   7.18904381
_cell_length_c   5.03152101
_cell_angle_alpha   90.00381372
_cell_angle_beta   90.00382862
_cell_angle_gamma   139.04801535
_symmetry_Int_Tables_number   1
_chemical_formula_structural   Ca4NiH12Rh
_chemical_formula_sum   'Ca4 Ni1 H12 Rh1'
_cell_volume   170.43762200
_cell_formula_units_Z   1
loop_
 _symmetry_equiv_pos_site_id
 _symmetry_equiv_pos_as_xyz
  1  'x, y, z'
loop_
 _atom_site_type_symbol
 _atom_site_label
 _atom_site_symmetry_multiplicity
 _atom_site_fract_x
 _atom_site_fract_y
 _atom_site_fract_z
 _atom_site_occupancy
  Ca  Ca0  1  0.14939485  0.85060515  0.50000000  1
  Ca  Ca1  1  0.64840888  0.35159112  0.00000000  1
  Ca  Ca2  1  0.85060515  0.14939485  0.50000000  1
  Ca  Ca3  1  0.35159112  0.64840888  1.00000000  1
  Ni  Ni0  1  0.00000000  0.00000000  0.00000000  1
  H  H0  1  0.99998407  0.50003122  0.75216997  1
  H  H1  1  0.49996878  0.00001593  0.24783003  1
  H  H2  1  0.00001593  0.49996878  0.24783003  1
  H  H3  1  0.50003122  0.99998407  0.75216997  1
  H  H4  1  0.37681142  0.62318858  0.50000000  1
  H  H5  1  0.88590338  0.11409662  1.00000000  1
  H  H6  1  0.62318858  0.37681142  0.50000000  1
  H  H7  1  0.11409662  0.88590338  0.00000000  1
  H  H8  1  0.25044613  0.25044613  0.74905853  1
  H  H9  1  0.74955387  0.74955387  0.25094147  1
  H  H10  1  0.25028573  0.25028573  0.25095108  1
  H  H11  1  0.74971427  0.74971427  0.74904892  1
  Rh  Rh0  1  0.50000000  0.50000000  0.50000000  1
loop_
_geom_bond_atom_site_label_1
_geom_bond_atom_site_label_2
_geom_bond_distance
_geom_bond_site_symmetry_2
Ca0 H0 2.242084 1_455
Ca0 H1 2.242085 1_565
Ca0 H3 2.242240 1_555
Ca0 H2 2.242240 1_555
Ca0 H6 2.539487 1_565
Ca0 H6 2.539487 1_455
Ca0 H7 2.560295 1_555
Ca0 H7 2.560295 1_556
Ca0 H10 2.684196 1_565
Ca0 H11 2.684196 1_455
Ca0 H9 2.684373 1_455
Ca0 H8 2.684373 1_565
Ca1 H1 2.237935 1_555
Ca1 H0 2.237935 1_554
Ca1 H2 2.238013 1_655
Ca1 H3 2.238013 1_544
Ca1 H6 2.538593 1_554
Ca1 H6 2.538593 1_555
Ca1 H7 2.556951 1_655
Ca1 H7 2.556951 1_545
Ca1 H8 2.676776 1_554
Ca1 H9 2.676776 1_555
Ca1 H11 2.677403 1_554
Ca1 H10 2.677403 1_555
Ca2 H2 2.242084 1_655
Ca2 H3 2.242085 1_545
Ca2 H1 2.242240 1_555
Ca2 H0 2.242240 1_555
Ca2 H4 2.539487 1_545
Ca2 H4 2.539487 1_655
Ca2 H5 2.560295 1_555
Ca2 H5 2.560295 1_554
Ca2 H11 2.684196 1_545
Ca2 H10 2.684196 1_655
Ca2 H8 2.684373 1_655
Ca2 H9 2.684373 1_545
Ca3 H3 2.237935 1_555
Ca3 H2 2.237935 1_556
Ca3 H0 2.238013 1_455
Ca3 H1 2.238013 1_566
Ca3 H4 2.538593 1_556
Ca3 H4 2.538593 1_555
Ca3 H5 2.556951 1_455
Ca3 H5 2.556951 1_565
Ca3 H9 2.676776 1_556
Ca3 H8 2.676776 1_555
Ca3 H10 2.677403 1_556
Ca3 H11 2.677403 1_555
H4 Rh0 1.659309 1_555
H5 Ni0 1.536843 1_656
H6 Rh0 1.659309 1_555
H7 Ni0 1.536843 1_565
H8 Rh0 1.773817 1_555
H8 Ni0 1.783691 1_556
H9 Rh0 1.773817 1_555
H9 Ni0 1.783691 1_665
H10 Rh0 1.774016 1_555
H10 Ni0 1.782816 1_555
H11 Rh0 1.774016 1_555
H11 Ni0 1.782816 1_666
