# generated using pymatgen
data_MgTa2(TiRe12)2
_symmetry_space_group_name_H-M   'P 1'
_cell_length_a   8.35248127
_cell_length_b   8.35248058
_cell_length_c   8.35052292
_cell_angle_alpha   109.47440906
_cell_angle_beta   109.47440932
_cell_angle_gamma   109.47435801
_symmetry_Int_Tables_number   1
_chemical_formula_structural   MgTa2(TiRe12)2
_chemical_formula_sum   'Mg1 Ta2 Ti2 Re24'
_cell_volume   448.40635662
_cell_formula_units_Z   1
loop_
 _symmetry_equiv_pos_site_id
 _symmetry_equiv_pos_as_xyz
  1  'x, y, z'
loop_
 _atom_site_type_symbol
 _atom_site_label
 _atom_site_symmetry_multiplicity
 _atom_site_fract_x
 _atom_site_fract_y
 _atom_site_fract_z
 _atom_site_occupancy
  Mg  Mg0  1  0.00185115  0.00185115  1.00000000  1
  Ta  Ta0  1  0.63410004  0.00004184  1.00000000  1
  Ta  Ta1  1  0.00004184  0.63410004  1.00000000  1
  Ti  Ti0  1  0.99992086  0.99992086  0.63349489  1
  Ti  Ti1  1  0.36642697  0.36642697  0.36650511  1
  Re  Re0  1  0.39825642  0.68022320  1.00000000  1
  Re  Re1  1  0.71830118  0.32066509  0.31989089  1
  Re  Re2  1  0.39841029  0.00077420  0.68010911  1
  Re  Re3  1  0.68022320  0.39825642  1.00000000  1
  Re  Re4  1  0.00077420  0.39841029  0.68010911  1
  Re  Re5  1  0.32066509  0.71830118  0.31989089  1
  Re  Re6  1  0.31956983  0.31956983  0.71859706  1
  Re  Re7  1  0.00068173  0.68108743  0.39957368  1
  Re  Re8  1  0.68108743  0.00068173  0.39957368  1
  Re  Re9  1  0.60097276  0.60097276  0.28140294  1
  Re  Re10  1  0.28151375  0.60110905  0.60042632  1
  Re  Re11  1  0.60110905  0.28151375  0.60042632  1
  Re  Re12  1  0.37377993  0.19237026  0.00000000  1
  Re  Re13  1  0.18073626  0.80603959  0.80513393  1
  Re  Re14  1  0.37560233  0.00090466  0.19486607  1
  Re  Re15  1  0.19237026  0.37377993  0.00000000  1
  Re  Re16  1  0.00090466  0.37560233  0.19486607  1
  Re  Re17  1  0.80603959  0.18073626  0.80513393  1
  Re  Re18  1  0.80517006  0.80517006  0.18138169  1
  Re  Re19  1  0.00082312  0.19319669  0.37516593  1
  Re  Re20  1  0.19319669  0.00082312  0.37516593  1
  Re  Re21  1  0.62378737  0.62378737  0.81861831  1
  Re  Re22  1  0.81802976  0.62565718  0.62483407  1
  Re  Re23  1  0.62565718  0.81802976  0.62483407  1
loop_
_geom_bond_atom_site_label_1
_geom_bond_atom_site_label_2
_geom_bond_distance
_geom_bond_site_symmetry_2
Mg0 Re15 2.981046 1_556
Mg0 Re12 2.981047 1_556
Mg0 Re17 3.005196 1_455
Mg0 Re13 3.005196 1_545
Mg0 Re16 3.005200 1_556
Mg0 Re14 3.005200 1_556
Mg0 Re22 3.009582 1_445
Mg0 Re23 3.009582 1_445
Mg0 Re19 3.009584 1_556
Mg0 Re20 3.009584 1_556
Mg0 Re18 3.034837 1_446
Mg0 Re21 3.034845 1_445
Mg0 Ti0 3.049797 1_445
Mg0 Ti1 3.049802 1_556
Mg0 Ta1 3.066629 1_545
Mg0 Ta0 3.066629 1_455
Re0 Re15 2.563932 1_556
Re0 Re14 2.737713 1_566
Re0 Re13 2.737720 1_555
Re0 Ta0 2.739991 1_565
Re0 Re6 2.821065 1_555
Re0 Re9 2.821065 1_556
Re0 Re21 2.843101 1_555
Re0 Re18 2.843107 1_556
Re0 Re4 2.895174 1_555
Re0 Re5 2.895174 1_556
Re0 Re8 2.907154 1_566
Re0 Re10 2.907156 1_555
Re0 Ta1 3.218207 1_555
Re1 Re22 2.552095 1_555
Re1 Re14 2.732625 1_555
Re1 Re12 2.733954 1_555
Re1 Ta0 2.742925 1_554
Re1 Re7 2.819922 1_655
Re1 Re4 2.824950 1_655
Re1 Re16 2.848265 1_655
Re1 Re19 2.862106 1_655
Re1 Re9 2.892531 1_555
Re1 Re11 2.894691 1_555
Re1 Re3 2.895174 1_554
Re1 Re8 2.907267 1_555
Re1 Ti1 3.216846 1_555
Re2 Re20 2.552093 1_555
Re2 Ta0 2.742925 1_555
Re2 Re5 2.824950 1_545
Re2 Re23 2.862112 1_545
Re2 Re6 2.892531 1_555
Re2 Re7 2.894695 1_545
Re2 Re3 2.895174 1_555
Re2 Ti0 3.216851 1_445
Re3 Ta1 2.739991 1_655
Re3 Re6 2.821065 1_555
Re3 Re9 2.821065 1_556
Re3 Re7 2.907154 1_656
Re3 Ta0 3.218206 1_555
Re4 Ta1 2.742925 1_555
Re4 Re6 2.892531 1_555
Re4 Re8 2.894695 1_455
Re4 Ti0 3.216850 1_445
Re5 Ta1 2.742925 1_554
Re5 Re8 2.819922 1_565
Re5 Re9 2.892531 1_555
Re5 Re7 2.907268 1_555
Re5 Ti1 3.216845 1_555
Re6 Ti0 2.734653 1_445
Re6 Ti1 3.222299 1_555
Re7 Ti0 2.731041 1_455
Re7 Re9 2.905342 1_455
Re7 Ta1 3.225035 1_554
Re8 Ti0 2.731041 1_545
Re8 Re9 2.905342 1_545
Re8 Ta0 3.225035 1_554
Re9 Ti1 2.734644 1_555
Re9 Ti0 3.222292 1_555
Re10 Re13 2.555309 1_555
Re10 Ti1 2.731048 1_555
Re10 Re21 2.732079 1_555
Re10 Re23 2.734469 1_555
Re10 Re7 2.816030 1_555
Re10 Re4 2.819926 1_555
Re10 Re16 2.832148 1_555
Re10 Re19 2.846626 1_555
Re10 Re5 2.894691 1_555
Re10 Re6 2.905350 1_555
Re10 Re2 2.907259 1_565
Re10 Ta0 3.225031 1_565
Re11 Re17 2.555309 1_555
Re11 Ti1 2.731048 1_555
Re11 Re21 2.732079 1_555
Re11 Re22 2.734469 1_555
Re11 Re8 2.816030 1_555
Re11 Re2 2.819925 1_555
Re11 Re14 2.832148 1_555
Re11 Re20 2.846627 1_555
Re11 Re6 2.905350 1_555
Re11 Re3 2.907156 1_555
Re11 Re4 2.907259 1_655
Re11 Ta1 3.225031 1_655
Re12 Re15 2.474393 1_555
Re12 Re3 2.563932 1_554
Re12 Re13 2.634466 1_544
Re12 Re14 2.634474 1_555
Re12 Re2 2.733955 1_554
Re12 Re9 2.851593 1_555
Re12 Re6 2.851593 1_554
Re12 Ti1 2.949945 1_555
Re12 Ti0 2.949948 1_444
Re12 Ta0 3.104382 1_554
Re13 Re22 2.473356 1_455
Re13 Re14 2.657001 1_566
Re13 Re2 2.732621 1_565
Re13 Re7 2.832146 1_555
Re13 Re4 2.848272 1_555
Re13 Ti0 2.948320 1_455
Re13 Ta1 2.956124 1_555
Re13 Ta0 3.107218 1_565
Re14 Re20 2.473349 1_555
Re14 Re8 2.555309 1_555
Re14 Re5 2.848265 1_545
Re14 Ti1 2.948330 1_555
Re14 Ta1 2.956119 1_544
Re14 Ta0 3.107218 1_554
Re15 Re17 2.634467 1_454
Re15 Re16 2.634474 1_555
Re15 Re5 2.733954 1_555
Re15 Re4 2.733955 1_554
Re15 Re9 2.851593 1_555
Re15 Re6 2.851594 1_554
Re15 Ti1 2.949945 1_555
Re15 Ti0 2.949948 1_444
Re15 Ta1 3.104382 1_554
Re16 Re19 2.473349 1_555
Re16 Re7 2.555309 1_555
Re16 Re17 2.657001 1_454
Re16 Re5 2.732625 1_555
Re16 Re3 2.737713 1_454
Re16 Ti1 2.948330 1_555
Re16 Ta0 2.956119 1_454
Re16 Ta1 3.107218 1_554
Re17 Re23 2.473356 1_545
Re17 Re4 2.732621 1_655
Re17 Re3 2.737720 1_555
Re17 Re8 2.832146 1_555
Re17 Re2 2.848272 1_555
Re17 Ti0 2.948320 1_545
Re17 Ta0 2.956124 1_555
Re17 Ta1 3.107218 1_655
Re18 Re21 2.473141 1_554
Re18 Re9 2.544707 1_555
Re18 Re19 2.646034 1_665
Re18 Re20 2.646034 1_665
Re18 Re7 2.732078 1_655
Re18 Re8 2.732078 1_565
Re18 Re3 2.843106 1_554
Re18 Ta0 2.955760 1_564
Re18 Ta1 2.955760 1_654
Re18 Ti0 3.097036 1_555
Re19 Re4 2.552093 1_555
Re19 Re20 2.623939 1_555
Re19 Re6 2.728296 1_555
Re19 Re8 2.734474 1_455
Re19 Ti1 2.948696 1_555
Re19 Ta0 2.955731 1_454
Re19 Ti0 3.095846 1_445
Re20 Re6 2.728296 1_555
Re20 Re7 2.734474 1_545
Re20 Re5 2.862106 1_545
Re20 Ti1 2.948696 1_555
Re20 Ta1 2.955731 1_544
Re20 Ti0 3.095846 1_445
Re21 Re6 2.544697 1_555
Re21 Re23 2.646034 1_555
Re21 Re22 2.646034 1_555
Re21 Re3 2.843101 1_555
Re21 Ta0 2.955763 1_565
Re21 Ta1 2.955763 1_655
Re21 Ti1 3.097034 1_555
Re22 Re23 2.623925 1_555
Re22 Re9 2.728294 1_555
Re22 Re7 2.846627 1_655
Re22 Re4 2.862112 1_655
Re22 Ti0 2.948688 1_555
Re22 Ta1 2.955733 1_655
Re22 Ti1 3.095832 1_555
Re23 Re5 2.552095 1_555
Re23 Re9 2.728294 1_555
Re23 Re8 2.846627 1_565
Re23 Ti0 2.948689 1_555
Re23 Ta0 2.955733 1_565
Re23 Ti1 3.095832 1_555
