# generated using pymatgen
data_Os(PtRh3)2
_symmetry_space_group_name_H-M   'P 1'
_cell_length_a   6.07639089
_cell_length_b   6.07628844
_cell_length_c   6.07638997
_cell_angle_alpha   95.70638559
_cell_angle_beta   95.69301432
_cell_angle_gamma   143.26264702
_symmetry_Int_Tables_number   1
_chemical_formula_structural   Os(PtRh3)2
_chemical_formula_sum   'Os1 Pt2 Rh6'
_cell_volume   127.35703774
_cell_formula_units_Z   1
loop_
 _symmetry_equiv_pos_site_id
 _symmetry_equiv_pos_as_xyz
  1  'x, y, z'
loop_
 _atom_site_type_symbol
 _atom_site_label
 _atom_site_symmetry_multiplicity
 _atom_site_fract_x
 _atom_site_fract_y
 _atom_site_fract_z
 _atom_site_occupancy
  Os  Os0  1  0.00000000  0.00000000  0.00000000  1
  Pt  Pt0  1  0.66919086  0.00000000  0.66919086  1
  Pt  Pt1  1  0.33080914  1.00000000  0.33080914  1
  Rh  Rh0  1  0.33919076  0.33803566  0.67729402  1
  Rh  Rh1  1  0.66080924  0.66196434  0.32270598  1
  Rh  Rh2  1  0.66074164  0.33803566  0.99884590  1
  Rh  Rh3  1  0.33925836  0.66196434  0.00115410  1
  Rh  Rh4  1  0.99998811  0.32621326  0.32622515  1
  Rh  Rh5  1  0.00001189  0.67378674  0.67377485  1
loop_
_geom_bond_atom_site_label_1
_geom_bond_atom_site_label_2
_geom_bond_distance
_geom_bond_site_symmetry_2
Os0 Rh4 2.660315 1_455
Os0 Rh5 2.660315 1_544
Os0 Rh3 2.670117 1_445
Os0 Rh2 2.670117 1_554
Os0 Rh1 2.670118 1_445
Os0 Rh0 2.670118 1_554
Os0 Rh1 2.670229 1_555
Os0 Rh0 2.670229 1_444
Os0 Rh2 2.670230 1_444
Os0 Rh3 2.670230 1_555
Os0 Pt1 2.698067 1_545
Os0 Pt0 2.698067 1_454
Pt0 Rh3 2.707994 1_546
Pt0 Rh0 2.708000 1_655
Pt0 Rh3 2.708106 1_656
Pt0 Rh0 2.708108 1_545
Pt0 Rh5 2.752984 1_655
Pt0 Rh4 2.752984 1_445
Pt0 Rh4 2.752998 1_555
Pt0 Rh5 2.752999 1_545
Pt0 Rh1 2.757758 1_545
Pt0 Rh2 2.757762 1_555
Pt0 Pt1 2.759829 1_545
Pt1 Rh2 2.707994 1_564
Pt1 Rh1 2.708000 1_455
Pt1 Rh2 2.708106 1_454
Pt1 Rh1 2.708108 1_565
Pt1 Rh4 2.752984 1_455
Pt1 Rh5 2.752984 1_665
Pt1 Rh5 2.752998 1_555
Pt1 Rh4 2.752999 1_565
Pt1 Rh0 2.757758 1_565
Pt1 Rh3 2.757762 1_555
Rh0 Rh2 2.622561 1_555
Rh0 Rh3 2.641032 1_556
Rh0 Rh5 2.679597 1_545
Rh0 Rh5 2.679923 1_655
Rh0 Rh4 2.768388 1_455
Rh0 Rh1 2.801225 1_445
Rh0 Rh1 2.801656 1_555
Rh1 Rh3 2.622561 1_555
Rh1 Rh2 2.641032 1_554
Rh1 Rh4 2.679597 1_565
Rh1 Rh4 2.679923 1_455
Rh1 Rh5 2.768388 1_655
Rh2 Rh5 2.679600 1_545
Rh2 Rh5 2.679928 1_655
Rh2 Rh4 2.768384 1_556
Rh2 Rh3 2.801222 1_546
Rh2 Rh3 2.801659 1_656
Rh3 Rh4 2.679600 1_565
Rh3 Rh4 2.679928 1_455
Rh3 Rh5 2.768384 1_554
Rh4 Rh5 2.834213 1_655
