# generated using pymatgen
data_CsBaSbS3
_symmetry_space_group_name_H-M   'P 1'
_cell_length_a   9.17306120
_cell_length_b   9.72637926
_cell_length_c   9.35333964
_cell_angle_alpha   73.15054596
_cell_angle_beta   90.00000000
_cell_angle_gamma   90.00000000
_symmetry_Int_Tables_number   1
_chemical_formula_structural   CsBaSbS3
_chemical_formula_sum   'Cs4 Ba4 Sb4 S12'
_cell_volume   798.68540409
_cell_formula_units_Z   4
loop_
 _symmetry_equiv_pos_site_id
 _symmetry_equiv_pos_as_xyz
  1  'x, y, z'
loop_
 _atom_site_type_symbol
 _atom_site_label
 _atom_site_symmetry_multiplicity
 _atom_site_fract_x
 _atom_site_fract_y
 _atom_site_fract_z
 _atom_site_occupancy
  Cs  Cs0  1  0.08256751  0.59129905  0.29367450  1
  Cs  Cs1  1  0.58256751  0.40870095  0.20632550  1
  Cs  Cs2  1  0.91743249  0.40870095  0.70632550  1
  Cs  Cs3  1  0.41743249  0.59129905  0.79367450  1
  Ba  Ba0  1  0.71708420  0.92577271  0.03224378  1
  Ba  Ba1  1  0.21708420  0.07422729  0.46775622  1
  Ba  Ba2  1  0.28291580  0.07422729  0.96775622  1
  Ba  Ba3  1  0.78291580  0.92577271  0.53224378  1
  Sb  Sb0  1  0.45633678  0.76365497  0.35568789  1
  Sb  Sb1  1  0.95633678  0.23634503  0.14431211  1
  Sb  Sb2  1  0.54366322  0.23634503  0.64431211  1
  Sb  Sb3  1  0.04366322  0.76365497  0.85568789  1
  S  S0  1  0.20258639  0.32813240  0.10885595  1
  S  S1  1  0.70258639  0.67186760  0.39114405  1
  S  S2  1  0.79741361  0.67186760  0.89114405  1
  S  S3  1  0.29741361  0.32813240  0.60885595  1
  S  S4  1  0.01144969  0.97812400  0.21827797  1
  S  S5  1  0.51144969  0.02187600  0.28172203  1
  S  S6  1  0.98855031  0.02187600  0.78172203  1
  S  S7  1  0.48855031  0.97812400  0.71827797  1
  S  S8  1  0.40745527  0.74955392  0.10695089  1
  S  S9  1  0.90745527  0.25044608  0.39304911  1
  S  S10  1  0.59254473  0.25044608  0.89304911  1
  S  S11  1  0.09254473  0.74955392  0.60695089  1
loop_
_geom_bond_atom_site_label_1
_geom_bond_atom_site_label_2
_geom_bond_distance
_geom_bond_site_symmetry_2
Cs0 S9 3.556513 1_455
Cs0 S8 3.569699 1_555
Cs0 S0 3.649295 1_555
Cs0 S4 3.679736 1_555
Cs0 S11 3.684873 1_555
Cs0 S1 3.742823 1_455
Cs0 S3 3.840850 1_555
Cs0 Sb0 3.932658 1_555
Cs0 Sb3 3.967222 1_554
Cs1 S8 3.556513 1_555
Cs1 S9 3.569699 1_555
Cs1 S1 3.649295 1_555
Cs1 S5 3.679736 1_555
Cs1 S10 3.684873 1_554
Cs1 S0 3.742823 1_555
Cs1 S2 3.840850 1_554
Cs1 Sb1 3.932658 1_555
Cs1 Sb2 3.967222 1_555
Cs2 S11 3.556513 1_655
Cs2 S10 3.569699 1_555
Cs2 S2 3.649295 1_555
Cs2 S6 3.679736 1_555
Cs2 S9 3.684873 1_555
Cs2 S3 3.742823 1_655
Cs2 S1 3.840850 1_555
Cs2 Sb2 3.932658 1_555
Cs2 Sb1 3.967222 1_556
Cs3 S10 3.556513 1_555
Cs3 S11 3.569699 1_555
Cs3 S3 3.649295 1_555
Cs3 S7 3.679736 1_555
Cs3 S8 3.684873 1_556
Cs3 S2 3.742823 1_555
Cs3 S0 3.840850 1_556
Cs3 Sb3 3.932658 1_555
Cs3 Sb0 3.967222 1_555
Ba0 S2 3.205147 1_554
Ba0 S10 3.254076 1_564
Ba0 S8 3.286131 1_555
Ba0 S4 3.330451 1_655
Ba0 S5 3.337862 1_565
Ba0 S6 3.360895 1_564
Ba0 S7 3.522914 1_554
Ba0 S1 3.546751 1_555
Ba1 S3 3.205147 1_555
Ba1 S11 3.254076 1_545
Ba1 S9 3.286131 1_455
Ba1 S5 3.330451 1_555
Ba1 S4 3.337862 1_545
Ba1 S7 3.360895 1_545
Ba1 S6 3.522914 1_455
Ba1 S0 3.546751 1_555
Ba2 S0 3.205147 1_556
Ba2 S8 3.254076 1_546
Ba2 S10 3.286131 1_555
Ba2 S6 3.330451 1_455
Ba2 S7 3.337862 1_545
Ba2 S4 3.360895 1_546
Ba2 S5 3.522914 1_556
Ba2 S3 3.546751 1_555
Ba3 S1 3.205147 1_555
Ba3 S9 3.254076 1_565
Ba3 S11 3.286131 1_655
Ba3 S7 3.330451 1_555
Ba3 S6 3.337862 1_565
Ba3 S5 3.360895 1_565
Ba3 S4 3.522914 1_655
Ba3 S2 3.546751 1_555
S0 Sb1 2.416159 1_455
S1 Sb0 2.416159 1_555
S2 Sb3 2.416159 1_655
S3 Sb2 2.416159 1_555
S4 Sb1 2.456589 1_465
S5 Sb0 2.456589 1_545
S6 Sb3 2.456589 1_645
S7 Sb2 2.456589 1_565
S8 Sb0 2.411960 1_555
S9 Sb1 2.411960 1_555
S10 Sb2 2.411960 1_555
S11 Sb3 2.411960 1_555
