# generated using pymatgen
data_Zr10Al2SnSb5
_symmetry_space_group_name_H-M   'P 1'
_cell_length_a   8.69777375
_cell_length_b   8.69777338
_cell_length_c   5.85287413
_cell_angle_alpha   90.00000000
_cell_angle_beta   90.00000000
_cell_angle_gamma   120.08636956
_symmetry_Int_Tables_number   1
_chemical_formula_structural   Zr10Al2SnSb5
_chemical_formula_sum   'Zr10 Al2 Sn1 Sb5'
_cell_volume   383.12225320
_cell_formula_units_Z   1
loop_
 _symmetry_equiv_pos_site_id
 _symmetry_equiv_pos_as_xyz
  1  'x, y, z'
loop_
 _atom_site_type_symbol
 _atom_site_label
 _atom_site_symmetry_multiplicity
 _atom_site_fract_x
 _atom_site_fract_y
 _atom_site_fract_z
 _atom_site_occupancy
  Zr  Zr0  1  0.72962222  0.72962222  0.75000000  1
  Zr  Zr1  1  0.27175124  0.99866878  0.75000000  1
  Zr  Zr2  1  0.99866878  0.27175124  0.75000000  1
  Zr  Zr3  1  0.26949935  0.26949935  0.25000000  1
  Zr  Zr4  1  0.73058613  0.99962941  0.25000000  1
  Zr  Zr5  1  0.99962941  0.73058613  0.25000000  1
  Zr  Zr6  1  0.66721717  0.33330978  0.99943975  1
  Zr  Zr7  1  0.33330978  0.66721717  0.99943975  1
  Zr  Zr8  1  0.33330978  0.66721717  0.50056025  1
  Zr  Zr9  1  0.66721717  0.33330978  0.50056025  1
  Al  Al0  1  0.00139356  0.00139356  0.99781232  1
  Al  Al1  1  0.00139356  0.00139356  0.50218768  1
  Sn  Sn0  1  0.38463133  0.38463133  0.75000000  1
  Sb  Sb0  1  0.61312881  0.99998460  0.75000000  1
  Sb  Sb1  1  0.99998460  0.61312881  0.75000000  1
  Sb  Sb2  1  0.61029765  0.61029765  0.25000000  1
  Sb  Sb3  1  0.38788043  0.00047603  0.25000000  1
  Sb  Sb4  1  0.00047603  0.38788043  0.25000000  1
loop_
_geom_bond_atom_site_label_1
_geom_bond_atom_site_label_2
_geom_bond_distance
_geom_bond_site_symmetry_2
Al0 Zr3 2.757230 1_556
Al0 Zr0 2.770685 1_445
Al0 Zr2 2.773038 1_455
Al0 Zr1 2.773038 1_545
Al0 Zr5 2.773203 1_446
Al0 Zr4 2.773203 1_446
Al1 Zr3 2.757230 1_555
Al1 Zr0 2.770685 1_445
Al1 Zr2 2.773038 1_455
Al1 Zr1 2.773038 1_545
Al1 Zr5 2.773203 1_445
Al1 Zr4 2.773203 1_445
Sn0 Zr1 2.988135 1_545
Sn0 Zr2 2.988136 1_455
Sn0 Zr0 2.996735 1_555
Sn0 Zr7 3.077630 1_555
Sn0 Zr8 3.077630 1_555
Sn0 Zr6 3.077630 1_555
Sn0 Zr9 3.077630 1_555
Sn0 Zr3 3.092604 1_555
Sn0 Zr3 3.092604 1_556
Sb0 Zr1 2.963504 1_555
Sb0 Zr2 2.980785 1_565
Sb0 Zr0 2.990873 1_555
Sb0 Zr7 3.060943 1_555
Sb0 Zr8 3.060943 1_555
Sb0 Zr6 3.064401 1_565
Sb0 Zr9 3.064401 1_565
Sb0 Zr4 3.100147 1_555
Sb0 Zr4 3.100147 1_556
Sb1 Zr2 2.963504 1_555
Sb1 Zr1 2.980784 1_655
Sb1 Zr0 2.990873 1_555
Sb1 Zr6 3.060943 1_555
Sb1 Zr9 3.060943 1_555
Sb1 Zr7 3.064401 1_655
Sb1 Zr8 3.064401 1_655
Sb1 Zr5 3.100147 1_556
Sb1 Zr5 3.100147 1_555
Sb2 Zr3 2.960316 1_555
Sb2 Zr4 3.001604 1_555
Sb2 Zr5 3.001604 1_555
Sb2 Zr9 3.065238 1_555
Sb2 Zr6 3.065238 1_554
Sb2 Zr8 3.065238 1_555
Sb2 Zr7 3.065238 1_554
Sb2 Zr0 3.104573 1_555
Sb2 Zr0 3.104573 1_554
Sb3 Zr4 2.984475 1_545
Sb3 Zr3 2.991807 1_555
Sb3 Zr5 2.994371 1_445
Sb3 Zr9 3.063049 1_555
Sb3 Zr6 3.063049 1_554
Sb3 Zr8 3.065688 1_545
Sb3 Zr7 3.065688 1_544
Sb3 Zr1 3.093314 1_545
Sb3 Zr1 3.093314 1_544
Sb4 Zr5 2.984475 1_455
Sb4 Zr3 2.991807 1_555
Sb4 Zr4 2.994371 1_445
Sb4 Zr8 3.063049 1_555
Sb4 Zr7 3.063049 1_554
Sb4 Zr9 3.065689 1_455
Sb4 Zr6 3.065689 1_454
Sb4 Zr2 3.093314 1_455
Sb4 Zr2 3.093314 1_454
