# generated using pymatgen
data_Zr4ZnRh8Au3
_symmetry_space_group_name_H-M   'P 1'
_cell_length_a   5.81790944
_cell_length_b   5.81822669
_cell_length_c   7.47908459
_cell_angle_alpha   90.00186789
_cell_angle_beta   89.99857591
_cell_angle_gamma   89.99597345
_symmetry_Int_Tables_number   1
_chemical_formula_structural   Zr4ZnRh8Au3
_chemical_formula_sum   'Zr4 Zn1 Rh8 Au3'
_cell_volume   253.16638429
_cell_formula_units_Z   1
loop_
 _symmetry_equiv_pos_site_id
 _symmetry_equiv_pos_as_xyz
  1  'x, y, z'
loop_
 _atom_site_type_symbol
 _atom_site_label
 _atom_site_symmetry_multiplicity
 _atom_site_fract_x
 _atom_site_fract_y
 _atom_site_fract_z
 _atom_site_occupancy
  Zr  Zr0  1  0.75000774  0.24999436  0.99992419  1
  Zr  Zr1  1  0.24999113  0.75000416  0.99992318  1
  Zr  Zr2  1  0.25003514  0.75000550  0.50009462  1
  Zr  Zr3  1  0.74996158  0.24999381  0.50009213  1
  Zn  Zn0  1  0.25000563  0.24999420  0.49997289  1
  Rh  Rh0  1  0.49677604  0.00321746  0.25502611  1
  Rh  Rh1  1  0.49677279  0.49678383  0.25502930  1
  Rh  Rh2  1  0.00321585  0.00321866  0.25505180  1
  Rh  Rh3  1  0.00322285  0.49677575  0.25504853  1
  Rh  Rh4  1  0.00322529  0.00321442  0.74495134  1
  Rh  Rh5  1  0.00323189  0.49678037  0.74495101  1
  Rh  Rh6  1  0.49679208  0.00321707  0.74498069  1
  Rh  Rh7  1  0.49679331  0.49678372  0.74497895  1
  Au  Au0  1  0.25001199  0.24998428  0.99995909  1
  Au  Au1  1  0.74999125  0.75001419  0.99997299  1
  Au  Au2  1  0.74996945  0.75001622  0.50003818  1
loop_
_geom_bond_atom_site_label_1
_geom_bond_atom_site_label_2
_geom_bond_distance
_geom_bond_site_symmetry_2
Zn0 Zr3 2.908699 1_555
Zn0 Zr2 2.909048 1_545
Zn0 Zr2 2.909179 1_555
Zn0 Zr3 2.909211 1_455
Rh0 Zn0 2.734644 1_555
Rh0 Zr3 2.755169 1_555
Rh0 Zr2 2.755173 1_545
Rh0 Zr1 2.805777 1_544
Rh0 Zr0 2.805818 1_554
Rh1 Zn0 2.734827 1_555
Rh1 Zr2 2.755006 1_555
Rh1 Zr3 2.755159 1_555
Rh1 Zr0 2.805712 1_554
Rh1 Zr1 2.805765 1_554
Rh2 Zn0 2.734725 1_555
Rh2 Zr3 2.755094 1_455
Rh2 Zr2 2.755226 1_545
Rh2 Zr1 2.805728 1_544
Rh2 Zr0 2.805817 1_454
Rh3 Zn0 2.734695 1_555
Rh3 Zr2 2.755317 1_555
Rh3 Zr3 2.755323 1_455
Rh3 Zr0 2.805881 1_454
Rh3 Zr1 2.805905 1_554
Rh4 Zn0 2.735011 1_555
Rh4 Zr2 2.754147 1_545
Rh4 Zr3 2.754347 1_455
Rh4 Zr0 2.804958 1_455
Rh4 Zr1 2.805004 1_545
Rh5 Zn0 2.734840 1_555
Rh5 Zr2 2.754348 1_555
Rh5 Zr3 2.754433 1_455
Rh5 Zr1 2.805068 1_555
Rh5 Zr0 2.805167 1_455
Rh6 Zn0 2.735111 1_555
Rh6 Zr3 2.754251 1_555
Rh6 Zr2 2.754296 1_545
Rh6 Zr0 2.804951 1_555
Rh6 Zr1 2.805025 1_545
Rh7 Zn0 2.735187 1_555
Rh7 Zr3 2.754108 1_555
Rh7 Zr2 2.754279 1_555
Rh7 Zr1 2.804889 1_555
Rh7 Zr0 2.804949 1_555
Au0 Rh6 2.785462 1_555
Au0 Rh7 2.785739 1_555
Au0 Rh4 2.785793 1_555
Au0 Rh5 2.785813 1_555
Au0 Rh0 2.785979 1_556
Au0 Rh1 2.786124 1_556
Au0 Rh3 2.786130 1_556
Au0 Rh2 2.786258 1_556
Au0 Zr0 2.908930 1_555
Au0 Zr0 2.908979 1_455
Au0 Zr1 2.908998 1_545
Au0 Zr1 2.909229 1_555
Au1 Rh6 2.824424 1_565
Au1 Rh7 2.824556 1_555
Au1 Rh0 2.824667 1_566
Au1 Rh5 2.824679 1_655
Au1 Rh4 2.824728 1_665
Au1 Rh1 2.824948 1_556
Au1 Rh2 2.824986 1_666
Au1 Rh3 2.825051 1_656
Au1 Zr1 2.908954 1_655
Au1 Zr1 2.908955 1_555
Au1 Zr0 2.908998 1_565
Au1 Zr0 2.909229 1_555
Au2 Rh6 2.774038 1_565
Au2 Rh4 2.774286 1_665
Au2 Rh7 2.774297 1_555
Au2 Rh5 2.774375 1_655
Au2 Rh0 2.774545 1_565
Au2 Rh3 2.774629 1_655
Au2 Rh2 2.774647 1_665
Au2 Rh1 2.774682 1_555
Au2 Zr2 2.908573 1_555
Au2 Zr3 2.908983 1_565
Au2 Zr3 2.909244 1_555
Au2 Zr2 2.909337 1_655
