# generated using pymatgen
data_Rb2Ba(NbCl3)6
_symmetry_space_group_name_H-M   'P 1'
_cell_length_a   10.46255415
_cell_length_b   10.46255436
_cell_length_c   10.46255447
_cell_angle_alpha   54.71145466
_cell_angle_beta   54.71145231
_cell_angle_gamma   54.71145359
_symmetry_Int_Tables_number   1
_chemical_formula_structural   Rb2Ba(NbCl3)6
_chemical_formula_sum   'Rb2 Ba1 Nb6 Cl18'
_cell_volume   710.07263447
_cell_formula_units_Z   1
loop_
 _symmetry_equiv_pos_site_id
 _symmetry_equiv_pos_as_xyz
  1  'x, y, z'
loop_
 _atom_site_type_symbol
 _atom_site_label
 _atom_site_symmetry_multiplicity
 _atom_site_fract_x
 _atom_site_fract_y
 _atom_site_fract_z
 _atom_site_occupancy
  Rb  Rb0  1  0.22260185  0.22260185  0.22260185  1
  Rb  Rb1  1  0.77739815  0.77739815  0.77739815  1
  Ba  Ba0  1  0.50000000  0.50000000  0.50000000  1
  Nb  Nb0  1  0.92962120  0.79286690  0.14294879  1
  Nb  Nb1  1  0.07037880  0.20713310  0.85705121  1
  Nb  Nb2  1  0.14294879  0.92962120  0.79286690  1
  Nb  Nb3  1  0.85705121  0.07037880  0.20713310  1
  Nb  Nb4  1  0.79286690  0.14294879  0.92962120  1
  Nb  Nb5  1  0.20713310  0.85705121  0.07037880  1
  Cl  Cl0  1  0.15111746  0.47458522  0.67964527  1
  Cl  Cl1  1  0.92327998  0.08413162  0.67217889  1
  Cl  Cl2  1  0.32782111  0.07672002  0.91586838  1
  Cl  Cl3  1  0.67217889  0.92327998  0.08413162  1
  Cl  Cl4  1  0.58826078  0.25310818  0.15991703  1
  Cl  Cl5  1  0.08413162  0.67217889  0.92327998  1
  Cl  Cl6  1  0.67964527  0.15111746  0.47458522  1
  Cl  Cl7  1  0.74689182  0.84008297  0.41173922  1
  Cl  Cl8  1  0.41173922  0.74689182  0.84008297  1
  Cl  Cl9  1  0.32035473  0.84888254  0.52541478  1
  Cl  Cl10  1  0.25310818  0.15991703  0.58826078  1
  Cl  Cl11  1  0.84008297  0.41173922  0.74689182  1
  Cl  Cl12  1  0.07672002  0.91586838  0.32782111  1
  Cl  Cl13  1  0.52541478  0.32035473  0.84888254  1
  Cl  Cl14  1  0.15991703  0.58826078  0.25310818  1
  Cl  Cl15  1  0.91586838  0.32782111  0.07672002  1
  Cl  Cl16  1  0.84888254  0.52541478  0.32035473  1
  Cl  Cl17  1  0.47458522  0.67964527  0.15111746  1
loop_
_geom_bond_atom_site_label_1
_geom_bond_atom_site_label_2
_geom_bond_distance
_geom_bond_site_symmetry_2
Ba0 Cl16 3.089426 1_555
Ba0 Cl0 3.089426 1_555
Ba0 Cl9 3.089426 1_555
Ba0 Cl6 3.089426 1_555
Ba0 Cl13 3.089426 1_555
Ba0 Cl17 3.089426 1_555
Cl0 Nb1 2.628200 1_555
Cl0 Rb1 3.344045 1_455
Cl1 Nb2 2.488330 1_645
Cl1 Nb4 2.488796 1_555
Cl1 Rb1 3.671059 1_545
Cl1 Rb0 3.792147 1_655
Cl2 Nb5 2.488330 1_546
Cl2 Nb1 2.488795 1_555
Cl2 Rb0 3.671059 1_556
Cl2 Rb1 3.792147 1_545
Cl3 Nb4 2.488330 1_564
Cl3 Nb0 2.488795 1_555
Cl3 Rb1 3.671059 1_554
Cl3 Rb0 3.792147 1_565
Cl4 Nb3 2.471790 1_555
Cl4 Nb4 2.472857 1_554
Cl4 Rb0 3.665813 1_555
Cl5 Nb0 2.488330 1_456
Cl5 Nb2 2.488796 1_555
Cl5 Rb1 3.671059 1_455
Cl5 Rb0 3.792147 1_556
Cl6 Nb3 2.628200 1_555
Cl6 Rb1 3.344045 1_545
Cl7 Nb0 2.471790 1_555
Cl7 Nb3 2.472857 1_565
Cl7 Rb1 3.665813 1_555
Cl8 Nb2 2.471790 1_555
Cl8 Nb5 2.472857 1_556
Cl8 Rb1 3.665813 1_555
Cl9 Nb2 2.628200 1_555
Cl9 Rb0 3.344045 1_565
Cl10 Nb1 2.471790 1_555
Cl10 Nb2 2.472857 1_545
Cl10 Rb0 3.665813 1_555
Cl11 Nb4 2.471790 1_555
Cl11 Nb1 2.472857 1_655
Cl11 Rb1 3.665813 1_555
Cl12 Nb3 2.488330 1_465
Cl12 Nb5 2.488796 1_555
Cl12 Rb0 3.671059 1_565
Cl12 Rb1 3.792147 1_455
Cl13 Nb4 2.628200 1_555
Cl13 Rb0 3.344045 1_556
Cl14 Nb5 2.471790 1_555
Cl14 Nb0 2.472857 1_455
Cl14 Rb0 3.665813 1_555
Cl15 Nb1 2.488330 1_654
Cl15 Nb3 2.488796 1_555
Cl15 Rb0 3.671059 1_655
Cl15 Rb1 3.792147 1_554
Cl16 Nb0 2.628200 1_555
Cl16 Rb0 3.344045 1_655
Cl17 Nb5 2.628200 1_555
Cl17 Rb1 3.344045 1_554
