# generated using pymatgen
data_Cd2GaB2Rh5
_symmetry_space_group_name_H-M   'P 1'
_cell_length_a   19.09345403
_cell_length_b   19.09345403
_cell_length_c   5.80631506
_cell_angle_alpha   90.00000000
_cell_angle_beta   90.00000000
_cell_angle_gamma   90.00000000
_symmetry_Int_Tables_number   1
_chemical_formula_structural   Cd2GaB2Rh5
_chemical_formula_sum   'Cd32 Ga16 B32 Rh80'
_cell_volume   2116.75014068
_cell_formula_units_Z   16
loop_
 _symmetry_equiv_pos_site_id
 _symmetry_equiv_pos_as_xyz
  1  'x, y, z'
loop_
 _atom_site_type_symbol
 _atom_site_label
 _atom_site_symmetry_multiplicity
 _atom_site_fract_x
 _atom_site_fract_y
 _atom_site_fract_z
 _atom_site_occupancy
  Cd  Cd0_0  1  0.41132306  0.16132306  0.00000000  1
  Cd  Cd0_1  1  0.41132306  0.16132306  0.50000000  1
  Cd  Cd0_2  1  0.41132306  0.66132306  0.00000000  1
  Cd  Cd0_3  1  0.41132306  0.66132306  0.50000000  1
  Cd  Cd0_4  1  0.91132306  0.16132306  0.00000000  1
  Cd  Cd0_5  1  0.91132306  0.16132306  0.50000000  1
  Cd  Cd0_6  1  0.91132306  0.66132306  0.00000000  1
  Cd  Cd0_7  1  0.91132306  0.66132306  0.50000000  1
  Cd  Cd1_0  1  0.16132306  0.08867694  0.00000000  1
  Cd  Cd1_1  1  0.16132306  0.08867694  0.50000000  1
  Cd  Cd1_2  1  0.16132306  0.58867694  0.00000000  1
  Cd  Cd1_3  1  0.16132306  0.58867694  0.50000000  1
  Cd  Cd1_4  1  0.66132306  0.08867694  0.00000000  1
  Cd  Cd1_5  1  0.66132306  0.08867694  0.50000000  1
  Cd  Cd1_6  1  0.66132306  0.58867694  0.00000000  1
  Cd  Cd1_7  1  0.66132306  0.58867694  0.50000000  1
  Cd  Cd2_0  1  0.33867694  0.41132306  0.00000000  1
  Cd  Cd2_1  1  0.33867694  0.41132306  0.50000000  1
  Cd  Cd2_2  1  0.33867694  0.91132306  0.00000000  1
  Cd  Cd2_3  1  0.33867694  0.91132306  0.50000000  1
  Cd  Cd2_4  1  0.83867694  0.41132306  0.00000000  1
  Cd  Cd2_5  1  0.83867694  0.41132306  0.50000000  1
  Cd  Cd2_6  1  0.83867694  0.91132306  0.00000000  1
  Cd  Cd2_7  1  0.83867694  0.91132306  0.50000000  1
  Cd  Cd3_0  1  0.08867694  0.33867694  0.00000000  1
  Cd  Cd3_1  1  0.08867694  0.33867694  0.50000000  1
  Cd  Cd3_2  1  0.08867694  0.83867694  0.00000000  1
  Cd  Cd3_3  1  0.08867694  0.83867694  0.50000000  1
  Cd  Cd3_4  1  0.58867694  0.33867694  0.00000000  1
  Cd  Cd3_5  1  0.58867694  0.33867694  0.50000000  1
  Cd  Cd3_6  1  0.58867694  0.83867694  0.00000000  1
  Cd  Cd3_7  1  0.58867694  0.83867694  0.50000000  1
  Ga  Ga0_0  1  0.00000000  0.00000000  0.00000000  1
  Ga  Ga0_1  1  0.00000000  0.00000000  0.50000000  1
  Ga  Ga0_2  1  0.00000000  0.50000000  0.00000000  1
  Ga  Ga0_3  1  0.00000000  0.50000000  0.50000000  1
  Ga  Ga0_4  1  0.50000000  0.00000000  0.00000000  1
  Ga  Ga0_5  1  0.50000000  0.00000000  0.50000000  1
  Ga  Ga0_6  1  0.50000000  0.50000000  0.00000000  1
  Ga  Ga0_7  1  0.50000000  0.50000000  0.50000000  1
  Ga  Ga1_0  1  0.25000000  0.25000000  0.00000000  1
  Ga  Ga1_1  1  0.25000000  0.25000000  0.50000000  1
  Ga  Ga1_2  1  0.25000000  0.75000000  0.00000000  1
  Ga  Ga1_3  1  0.25000000  0.75000000  0.50000000  1
  Ga  Ga1_4  1  0.75000000  0.25000000  0.00000000  1
  Ga  Ga1_5  1  0.75000000  0.25000000  0.50000000  1
  Ga  Ga1_6  1  0.75000000  0.75000000  0.00000000  1
  Ga  Ga1_7  1  0.75000000  0.75000000  0.50000000  1
  B  B0_0  1  0.31234407  0.06234407  0.00000000  1
  B  B0_1  1  0.31234407  0.06234407  0.50000000  1
  B  B0_2  1  0.31234407  0.56234407  0.00000000  1
  B  B0_3  1  0.31234407  0.56234407  0.50000000  1
  B  B0_4  1  0.81234407  0.06234407  0.00000000  1
  B  B0_5  1  0.81234407  0.06234407  0.50000000  1
  B  B0_6  1  0.81234407  0.56234407  0.00000000  1
  B  B0_7  1  0.81234407  0.56234407  0.50000000  1
  B  B1_0  1  0.06234407  0.18765593  0.00000000  1
  B  B1_1  1  0.06234407  0.18765593  0.50000000  1
  B  B1_2  1  0.06234407  0.68765593  0.00000000  1
  B  B1_3  1  0.06234407  0.68765593  0.50000000  1
  B  B1_4  1  0.56234407  0.18765593  0.00000000  1
  B  B1_5  1  0.56234407  0.18765593  0.50000000  1
  B  B1_6  1  0.56234407  0.68765593  0.00000000  1
  B  B1_7  1  0.56234407  0.68765593  0.50000000  1
  B  B2_0  1  0.43765593  0.31234407  0.00000000  1
  B  B2_1  1  0.43765593  0.31234407  0.50000000  1
  B  B2_2  1  0.43765593  0.81234407  0.00000000  1
  B  B2_3  1  0.43765593  0.81234407  0.50000000  1
  B  B2_4  1  0.93765593  0.31234407  0.00000000  1
  B  B2_5  1  0.93765593  0.31234407  0.50000000  1
  B  B2_6  1  0.93765593  0.81234407  0.00000000  1
  B  B2_7  1  0.93765593  0.81234407  0.50000000  1
  B  B3_0  1  0.18765593  0.43765593  0.00000000  1
  B  B3_1  1  0.18765593  0.43765593  0.50000000  1
  B  B3_2  1  0.18765593  0.93765593  0.00000000  1
  B  B3_3  1  0.18765593  0.93765593  0.50000000  1
  B  B3_4  1  0.68765593  0.43765593  0.00000000  1
  B  B3_5  1  0.68765593  0.43765593  0.50000000  1
  B  B3_6  1  0.68765593  0.93765593  0.00000000  1
  B  B3_7  1  0.68765593  0.93765593  0.50000000  1
  Rh  Rh0_0  1  0.03461657  0.10847585  0.25000000  1
  Rh  Rh0_1  1  0.03461657  0.10847585  0.75000000  1
  Rh  Rh0_2  1  0.03461657  0.60847585  0.25000000  1
  Rh  Rh0_3  1  0.03461657  0.60847585  0.75000000  1
  Rh  Rh0_4  1  0.53461657  0.10847585  0.25000000  1
  Rh  Rh0_5  1  0.53461657  0.10847585  0.75000000  1
  Rh  Rh0_6  1  0.53461657  0.60847585  0.25000000  1
  Rh  Rh0_7  1  0.53461657  0.60847585  0.75000000  1
  Rh  Rh1_0  1  0.10847585  0.46538343  0.25000000  1
  Rh  Rh1_1  1  0.10847585  0.46538343  0.75000000  1
  Rh  Rh1_2  1  0.10847585  0.96538343  0.25000000  1
  Rh  Rh1_3  1  0.10847585  0.96538343  0.75000000  1
  Rh  Rh1_4  1  0.60847585  0.46538343  0.25000000  1
  Rh  Rh1_5  1  0.60847585  0.46538343  0.75000000  1
  Rh  Rh1_6  1  0.60847585  0.96538343  0.25000000  1
  Rh  Rh1_7  1  0.60847585  0.96538343  0.75000000  1
  Rh  Rh2_0  1  0.39152415  0.03461657  0.25000000  1
  Rh  Rh2_1  1  0.39152415  0.03461657  0.75000000  1
  Rh  Rh2_2  1  0.39152415  0.53461657  0.25000000  1
  Rh  Rh2_3  1  0.39152415  0.53461657  0.75000000  1
  Rh  Rh2_4  1  0.89152415  0.03461657  0.25000000  1
  Rh  Rh2_5  1  0.89152415  0.03461657  0.75000000  1
  Rh  Rh2_6  1  0.89152415  0.53461657  0.25000000  1
  Rh  Rh2_7  1  0.89152415  0.53461657  0.75000000  1
  Rh  Rh3_0  1  0.46538343  0.39152415  0.25000000  1
  Rh  Rh3_1  1  0.46538343  0.39152415  0.75000000  1
  Rh  Rh3_2  1  0.46538343  0.89152415  0.25000000  1
  Rh  Rh3_3  1  0.46538343  0.89152415  0.75000000  1
  Rh  Rh3_4  1  0.96538343  0.39152415  0.25000000  1
  Rh  Rh3_5  1  0.96538343  0.39152415  0.75000000  1
  Rh  Rh3_6  1  0.96538343  0.89152415  0.25000000  1
  Rh  Rh3_7  1  0.96538343  0.89152415  0.75000000  1
  Rh  Rh4_0  1  0.21538343  0.35847585  0.25000000  1
  Rh  Rh4_1  1  0.21538343  0.35847585  0.75000000  1
  Rh  Rh4_2  1  0.21538343  0.85847585  0.25000000  1
  Rh  Rh4_3  1  0.21538343  0.85847585  0.75000000  1
  Rh  Rh4_4  1  0.71538343  0.35847585  0.25000000  1
  Rh  Rh4_5  1  0.71538343  0.35847585  0.75000000  1
  Rh  Rh4_6  1  0.71538343  0.85847585  0.25000000  1
  Rh  Rh4_7  1  0.71538343  0.85847585  0.75000000  1
  Rh  Rh5_0  1  0.28461657  0.14152415  0.25000000  1
  Rh  Rh5_1  1  0.28461657  0.14152415  0.75000000  1
  Rh  Rh5_2  1  0.28461657  0.64152415  0.25000000  1
  Rh  Rh5_3  1  0.28461657  0.64152415  0.75000000  1
  Rh  Rh5_4  1  0.78461657  0.14152415  0.25000000  1
  Rh  Rh5_5  1  0.78461657  0.14152415  0.75000000  1
  Rh  Rh5_6  1  0.78461657  0.64152415  0.25000000  1
  Rh  Rh5_7  1  0.78461657  0.64152415  0.75000000  1
  Rh  Rh6_0  1  0.35847585  0.28461657  0.25000000  1
  Rh  Rh6_1  1  0.35847585  0.28461657  0.75000000  1
  Rh  Rh6_2  1  0.35847585  0.78461657  0.25000000  1
  Rh  Rh6_3  1  0.35847585  0.78461657  0.75000000  1
  Rh  Rh6_4  1  0.85847585  0.28461657  0.25000000  1
  Rh  Rh6_5  1  0.85847585  0.28461657  0.75000000  1
  Rh  Rh6_6  1  0.85847585  0.78461657  0.25000000  1
  Rh  Rh6_7  1  0.85847585  0.78461657  0.75000000  1
  Rh  Rh7_0  1  0.14152415  0.21538343  0.25000000  1
  Rh  Rh7_1  1  0.14152415  0.21538343  0.75000000  1
  Rh  Rh7_2  1  0.14152415  0.71538343  0.25000000  1
  Rh  Rh7_3  1  0.14152415  0.71538343  0.75000000  1
  Rh  Rh7_4  1  0.64152415  0.21538343  0.25000000  1
  Rh  Rh7_5  1  0.64152415  0.21538343  0.75000000  1
  Rh  Rh7_6  1  0.64152415  0.71538343  0.25000000  1
  Rh  Rh7_7  1  0.64152415  0.71538343  0.75000000  1
  Rh  Rh8_0  1  0.25000000  0.00000000  0.25000000  1
  Rh  Rh8_1  1  0.25000000  0.00000000  0.75000000  1
  Rh  Rh8_2  1  0.25000000  0.50000000  0.25000000  1
  Rh  Rh8_3  1  0.25000000  0.50000000  0.75000000  1
  Rh  Rh8_4  1  0.75000000  0.00000000  0.25000000  1
  Rh  Rh8_5  1  0.75000000  0.00000000  0.75000000  1
  Rh  Rh8_6  1  0.75000000  0.50000000  0.25000000  1
  Rh  Rh8_7  1  0.75000000  0.50000000  0.75000000  1
  Rh  Rh9_0  1  0.00000000  0.25000000  0.25000000  1
  Rh  Rh9_1  1  0.00000000  0.25000000  0.75000000  1
  Rh  Rh9_2  1  0.00000000  0.75000000  0.25000000  1
  Rh  Rh9_3  1  0.00000000  0.75000000  0.75000000  1
  Rh  Rh9_4  1  0.50000000  0.25000000  0.25000000  1
  Rh  Rh9_5  1  0.50000000  0.25000000  0.75000000  1
  Rh  Rh9_6  1  0.50000000  0.75000000  0.25000000  1
  Rh  Rh9_7  1  0.50000000  0.75000000  0.75000000  1
loop_
_geom_bond_atom_site_label_1
_geom_bond_atom_site_label_2
_geom_bond_distance
_geom_bond_site_symmetry_2
Cd0_0 Rh9_5 2.800105 1_554
Cd0_0 Rh9_4 2.800105 1_555
Cd0_0 Rh2_0 2.846547 1_555
Cd0_0 Rh2_1 2.846547 1_554
Cd0_0 Rh5_1 2.846547 1_554
Cd0_0 Rh5_0 2.846547 1_555
Cd0_0 Cd0_1 2.903158 1_554
Cd0_0 Cd0_1 2.903158 1_555
Cd0_0 Rh0_4 2.943980 1_555
Cd0_0 Rh0_5 2.943980 1_554
Cd0_0 Rh6_0 2.943980 1_555
Cd0_0 Rh6_1 2.943980 1_554
Cd0_1 Rh9_4 2.800105 1_555
Cd0_1 Rh9_5 2.800105 1_555
Cd0_1 Rh2_1 2.846547 1_555
Cd0_1 Rh2_0 2.846547 1_555
Cd0_1 Rh5_0 2.846547 1_555
Cd0_1 Rh5_1 2.846547 1_555
Cd0_1 Rh0_4 2.943980 1_555
Cd0_1 Rh0_5 2.943980 1_555
Cd0_1 Rh6_0 2.943980 1_555
Cd0_1 Rh6_1 2.943980 1_555
Cd0_2 Rh9_6 2.800105 1_555
Cd0_2 Rh9_7 2.800105 1_554
Cd0_2 Rh2_2 2.846547 1_555
Cd0_2 Rh2_3 2.846547 1_554
Cd0_2 Rh5_3 2.846547 1_554
Cd0_2 Rh5_2 2.846547 1_555
Cd0_2 Cd0_3 2.903158 1_555
Cd0_2 Cd0_3 2.903158 1_554
Cd0_2 Rh0_6 2.943980 1_555
Cd0_2 Rh0_7 2.943980 1_554
Cd0_2 Rh6_2 2.943980 1_555
Cd0_2 Rh6_3 2.943980 1_554
Cd0_3 Rh9_6 2.800105 1_555
Cd0_3 Rh9_7 2.800105 1_555
Cd0_3 Rh2_2 2.846547 1_555
Cd0_3 Rh2_3 2.846547 1_555
Cd0_3 Rh5_2 2.846547 1_555
Cd0_3 Rh5_3 2.846547 1_555
Cd0_3 Rh0_6 2.943980 1_555
Cd0_3 Rh0_7 2.943980 1_555
Cd0_3 Rh6_2 2.943980 1_555
Cd0_3 Rh6_3 2.943980 1_555
Cd0_4 Rh9_1 2.800105 1_654
Cd0_4 Rh9_0 2.800105 1_655
Cd0_4 Rh2_4 2.846547 1_555
Cd0_4 Rh2_5 2.846547 1_554
Cd0_4 Rh5_4 2.846547 1_555
Cd0_4 Rh5_5 2.846547 1_554
Cd0_4 Cd0_5 2.903158 1_555
Cd0_4 Cd0_5 2.903158 1_554
Cd0_4 Rh6_5 2.943980 1_554
Cd0_4 Rh6_4 2.943980 1_555
Cd0_4 Rh0_0 2.943980 1_655
Cd0_4 Rh0_1 2.943980 1_654
Cd0_5 Rh9_1 2.800105 1_655
Cd0_5 Rh9_0 2.800105 1_655
Cd0_5 Rh2_4 2.846547 1_555
Cd0_5 Rh2_5 2.846547 1_555
Cd0_5 Rh5_4 2.846547 1_555
Cd0_5 Rh5_5 2.846547 1_555
Cd0_5 Rh6_4 2.943980 1_555
Cd0_5 Rh6_5 2.943980 1_555
Cd0_5 Rh0_0 2.943980 1_655
Cd0_5 Rh0_1 2.943980 1_655
Cd0_6 Rh9_3 2.800105 1_654
Cd0_6 Rh9_2 2.800105 1_655
Cd0_6 Rh2_6 2.846547 1_555
Cd0_6 Rh2_7 2.846547 1_554
Cd0_6 Rh5_6 2.846547 1_555
Cd0_6 Rh5_7 2.846547 1_554
Cd0_6 Cd0_7 2.903158 1_555
Cd0_6 Cd0_7 2.903158 1_554
Cd0_6 Rh6_7 2.943980 1_554
Cd0_6 Rh6_6 2.943980 1_555
Cd0_6 Rh0_3 2.943980 1_654
Cd0_6 Rh0_2 2.943980 1_655
Cd0_7 Rh9_2 2.800105 1_655
Cd0_7 Rh9_3 2.800105 1_655
Cd0_7 Rh2_6 2.846547 1_555
Cd0_7 Rh2_7 2.846547 1_555
Cd0_7 Rh5_6 2.846547 1_555
Cd0_7 Rh5_7 2.846547 1_555
Cd0_7 Rh6_7 2.943980 1_555
Cd0_7 Rh6_6 2.943980 1_555
Cd0_7 Rh0_3 2.943980 1_655
Cd0_7 Rh0_2 2.943980 1_655
Cd1_0 Rh8_0 2.800105 1_555
Cd1_0 Rh8_1 2.800105 1_554
Cd1_0 Rh7_0 2.846547 1_555
Cd1_0 Rh7_1 2.846547 1_554
Cd1_0 Rh0_1 2.846547 1_554
Cd1_0 Rh0_0 2.846547 1_555
Cd1_0 Cd1_1 2.903158 1_554
Cd1_0 Cd1_1 2.903158 1_555
Cd1_0 Rh5_0 2.943980 1_555
Cd1_0 Rh5_1 2.943980 1_554
Cd1_0 Rh1_2 2.943980 1_545
Cd1_0 Rh1_3 2.943980 1_544
Cd1_1 Rh8_0 2.800105 1_555
Cd1_1 Rh8_1 2.800105 1_555
Cd1_1 Rh7_0 2.846547 1_555
Cd1_1 Rh7_1 2.846547 1_555
Cd1_1 Rh0_1 2.846547 1_555
Cd1_1 Rh0_0 2.846547 1_555
Cd1_1 Rh5_1 2.943980 1_555
Cd1_1 Rh5_0 2.943980 1_555
Cd1_1 Rh1_2 2.943980 1_545
Cd1_1 Rh1_3 2.943980 1_545
Cd1_2 Rh8_2 2.800105 1_555
Cd1_2 Rh8_3 2.800105 1_554
Cd1_2 Rh7_3 2.846547 1_554
Cd1_2 Rh0_2 2.846547 1_555
Cd1_2 Rh0_3 2.846547 1_554
Cd1_2 Rh7_2 2.846547 1_555
Cd1_2 Cd1_3 2.903158 1_554
Cd1_2 Cd1_3 2.903158 1_555
Cd1_2 Rh1_1 2.943980 1_554
Cd1_2 Rh1_0 2.943980 1_555
Cd1_2 Rh5_3 2.943980 1_554
Cd1_2 Rh5_2 2.943980 1_555
Cd1_3 Rh8_2 2.800105 1_555
Cd1_3 Rh8_3 2.800105 1_555
Cd1_3 Rh7_3 2.846547 1_555
Cd1_3 Rh0_2 2.846547 1_555
Cd1_3 Rh0_3 2.846547 1_555
Cd1_3 Rh7_2 2.846547 1_555
Cd1_3 Rh1_1 2.943980 1_555
Cd1_3 Rh1_0 2.943980 1_555
Cd1_3 Rh5_2 2.943980 1_555
Cd1_3 Rh5_3 2.943980 1_555
Cd1_4 Rh8_4 2.800105 1_555
Cd1_4 Rh8_5 2.800105 1_554
Cd1_4 Rh7_5 2.846547 1_554
Cd1_4 Rh7_4 2.846547 1_555
Cd1_4 Rh0_5 2.846547 1_554
Cd1_4 Rh0_4 2.846547 1_555
Cd1_4 Cd1_5 2.903158 1_554
Cd1_4 Cd1_5 2.903158 1_555
Cd1_4 Rh5_4 2.943980 1_555
Cd1_4 Rh5_5 2.943980 1_554
Cd1_4 Rh1_7 2.943980 1_544
Cd1_4 Rh1_6 2.943980 1_545
Cd1_5 Rh8_5 2.800105 1_555
Cd1_5 Rh8_4 2.800105 1_555
Cd1_5 Rh7_4 2.846547 1_555
Cd1_5 Rh7_5 2.846547 1_555
Cd1_5 Rh0_5 2.846547 1_555
Cd1_5 Rh0_4 2.846547 1_555
Cd1_5 Rh5_4 2.943980 1_555
Cd1_5 Rh5_5 2.943980 1_555
Cd1_5 Rh1_7 2.943980 1_545
Cd1_5 Rh1_6 2.943980 1_545
Cd1_6 Rh8_7 2.800105 1_554
Cd1_6 Rh8_6 2.800105 1_555
Cd1_6 Rh7_6 2.846547 1_555
Cd1_6 Rh0_6 2.846547 1_555
Cd1_6 Rh7_7 2.846547 1_554
Cd1_6 Rh0_7 2.846547 1_554
Cd1_6 Cd1_7 2.903158 1_554
Cd1_6 Cd1_7 2.903158 1_555
Cd1_6 Rh1_4 2.943980 1_555
Cd1_6 Rh1_5 2.943980 1_554
Cd1_6 Rh5_6 2.943980 1_555
Cd1_6 Rh5_7 2.943980 1_554
Cd1_7 Rh8_6 2.800105 1_555
Cd1_7 Rh8_7 2.800105 1_555
Cd1_7 Rh7_6 2.846547 1_555
Cd1_7 Rh0_6 2.846547 1_555
Cd1_7 Rh7_7 2.846547 1_555
Cd1_7 Rh0_7 2.846547 1_555
Cd1_7 Rh1_4 2.943980 1_555
Cd1_7 Rh1_5 2.943980 1_555
Cd1_7 Rh5_7 2.943980 1_555
Cd1_7 Rh5_6 2.943980 1_555
Cd2_0 Rh8_2 2.800105 1_555
Cd2_0 Rh8_3 2.800105 1_554
Cd2_0 Rh6_1 2.846547 1_554
Cd2_0 Rh3_0 2.846547 1_555
Cd2_0 Rh3_1 2.846547 1_554
Cd2_0 Rh6_0 2.846547 1_555
Cd2_0 Cd2_1 2.903158 1_554
Cd2_0 Cd2_1 2.903158 1_555
Cd2_0 Rh4_1 2.943980 1_554
Cd2_0 Rh2_2 2.943980 1_555
Cd2_0 Rh4_0 2.943980 1_555
Cd2_0 Rh2_3 2.943980 1_554
Cd2_1 Rh8_2 2.800105 1_555
Cd2_1 Rh8_3 2.800105 1_555
Cd2_1 Rh6_1 2.846547 1_555
Cd2_1 Rh3_0 2.846547 1_555
Cd2_1 Rh3_1 2.846547 1_555
Cd2_1 Rh6_0 2.846547 1_555
Cd2_1 Rh4_1 2.943980 1_555
Cd2_1 Rh2_2 2.943980 1_555
Cd2_1 Rh4_0 2.943980 1_555
Cd2_1 Rh2_3 2.943980 1_555
Cd2_2 Rh8_0 2.800105 1_565
Cd2_2 Rh8_1 2.800105 1_564
Cd2_2 Rh6_3 2.846547 1_554
Cd2_2 Rh6_2 2.846547 1_555
Cd2_2 Rh3_3 2.846547 1_554
Cd2_2 Rh3_2 2.846547 1_555
Cd2_2 Cd2_3 2.903158 1_555
Cd2_2 Cd2_3 2.903158 1_554
Cd2_2 Rh4_3 2.943980 1_554
Cd2_2 Rh4_2 2.943980 1_555
Cd2_2 Rh2_1 2.943980 1_564
Cd2_2 Rh2_0 2.943980 1_565
Cd2_3 Rh8_0 2.800105 1_565
Cd2_3 Rh8_1 2.800105 1_565
Cd2_3 Rh6_3 2.846547 1_555
Cd2_3 Rh6_2 2.846547 1_555
Cd2_3 Rh3_3 2.846547 1_555
Cd2_3 Rh3_2 2.846547 1_555
Cd2_3 Rh4_3 2.943980 1_555
Cd2_3 Rh4_2 2.943980 1_555
Cd2_3 Rh2_0 2.943980 1_565
Cd2_3 Rh2_1 2.943980 1_565
Cd2_4 Rh8_7 2.800105 1_554
Cd2_4 Rh8_6 2.800105 1_555
Cd2_4 Rh3_4 2.846547 1_555
Cd2_4 Rh3_5 2.846547 1_554
Cd2_4 Rh6_4 2.846547 1_555
Cd2_4 Rh6_5 2.846547 1_554
Cd2_4 Cd2_5 2.903158 1_554
Cd2_4 Cd2_5 2.903158 1_555
Cd2_4 Rh4_4 2.943980 1_555
Cd2_4 Rh4_5 2.943980 1_554
Cd2_4 Rh2_6 2.943980 1_555
Cd2_4 Rh2_7 2.943980 1_554
Cd2_5 Rh8_6 2.800105 1_555
Cd2_5 Rh8_7 2.800105 1_555
Cd2_5 Rh3_4 2.846547 1_555
Cd2_5 Rh3_5 2.846547 1_555
Cd2_5 Rh6_5 2.846547 1_555
Cd2_5 Rh6_4 2.846547 1_555
Cd2_5 Rh4_5 2.943980 1_555
Cd2_5 Rh4_4 2.943980 1_555
Cd2_5 Rh2_6 2.943980 1_555
Cd2_5 Rh2_7 2.943980 1_555
Cd2_6 Rh8_4 2.800105 1_565
Cd2_6 Rh8_5 2.800105 1_564
Cd2_6 Rh3_7 2.846547 1_554
Cd2_6 Rh3_6 2.846547 1_555
Cd2_6 Rh6_6 2.846547 1_555
Cd2_6 Rh6_7 2.846547 1_554
Cd2_6 Cd2_7 2.903158 1_555
Cd2_6 Cd2_7 2.903158 1_554
Cd2_6 Rh4_6 2.943980 1_555
Cd2_6 Rh4_7 2.943980 1_554
Cd2_6 Rh2_5 2.943980 1_564
Cd2_6 Rh2_4 2.943980 1_565
Cd2_7 Rh8_4 2.800105 1_565
Cd2_7 Rh8_5 2.800105 1_565
Cd2_7 Rh3_7 2.846547 1_555
Cd2_7 Rh3_6 2.846547 1_555
Cd2_7 Rh6_6 2.846547 1_555
Cd2_7 Rh6_7 2.846547 1_555
Cd2_7 Rh4_6 2.943980 1_555
Cd2_7 Rh4_7 2.943980 1_555
Cd2_7 Rh2_5 2.943980 1_565
Cd2_7 Rh2_4 2.943980 1_565
Cd3_0 Rh9_0 2.800105 1_555
Cd3_0 Rh9_1 2.800105 1_554
Cd3_0 Rh4_1 2.846547 1_554
Cd3_0 Rh4_0 2.846547 1_555
Cd3_0 Rh1_0 2.846547 1_555
Cd3_0 Rh1_1 2.846547 1_554
Cd3_0 Cd3_1 2.903158 1_554
Cd3_0 Cd3_1 2.903158 1_555
Cd3_0 Rh7_1 2.943980 1_554
Cd3_0 Rh7_0 2.943980 1_555
Cd3_0 Rh3_5 2.943980 1_454
Cd3_0 Rh3_4 2.943980 1_455
Cd3_1 Rh9_0 2.800105 1_555
Cd3_1 Rh9_1 2.800105 1_555
Cd3_1 Rh4_1 2.846547 1_555
Cd3_1 Rh4_0 2.846547 1_555
Cd3_1 Rh1_0 2.846547 1_555
Cd3_1 Rh1_1 2.846547 1_555
Cd3_1 Rh7_1 2.943980 1_555
Cd3_1 Rh7_0 2.943980 1_555
Cd3_1 Rh3_5 2.943980 1_455
Cd3_1 Rh3_4 2.943980 1_455
Cd3_2 Rh9_2 2.800105 1_555
Cd3_2 Rh9_3 2.800105 1_554
Cd3_2 Rh1_2 2.846547 1_555
Cd3_2 Rh1_3 2.846547 1_554
Cd3_2 Rh4_2 2.846547 1_555
Cd3_2 Rh4_3 2.846547 1_554
Cd3_2 Cd3_3 2.903158 1_554
Cd3_2 Cd3_3 2.903158 1_555
Cd3_2 Rh7_3 2.943980 1_554
Cd3_2 Rh7_2 2.943980 1_555
Cd3_2 Rh3_7 2.943980 1_454
Cd3_2 Rh3_6 2.943980 1_455
Cd3_3 Rh9_2 2.800105 1_555
Cd3_3 Rh9_3 2.800105 1_555
Cd3_3 Rh1_2 2.846547 1_555
Cd3_3 Rh1_3 2.846547 1_555
Cd3_3 Rh4_3 2.846547 1_555
Cd3_3 Rh4_2 2.846547 1_555
Cd3_3 Rh7_3 2.943980 1_555
Cd3_3 Rh7_2 2.943980 1_555
Cd3_3 Rh3_7 2.943980 1_455
Cd3_3 Rh3_6 2.943980 1_455
Cd3_4 Rh9_4 2.800105 1_555
Cd3_4 Rh9_5 2.800105 1_554
Cd3_4 Rh4_4 2.846547 1_555
Cd3_4 Rh4_5 2.846547 1_554
Cd3_4 Rh1_4 2.846547 1_555
Cd3_4 Rh1_5 2.846547 1_554
Cd3_4 Cd3_5 2.903158 1_555
Cd3_4 Cd3_5 2.903158 1_554
Cd3_4 Rh3_0 2.943980 1_555
Cd3_4 Rh3_1 2.943980 1_554
Cd3_4 Rh7_5 2.943980 1_554
Cd3_4 Rh7_4 2.943980 1_555
Cd3_5 Rh9_4 2.800105 1_555
Cd3_5 Rh9_5 2.800105 1_555
Cd3_5 Rh4_4 2.846547 1_555
Cd3_5 Rh4_5 2.846547 1_555
Cd3_5 Rh1_4 2.846547 1_555
Cd3_5 Rh1_5 2.846547 1_555
Cd3_5 Rh3_1 2.943980 1_555
Cd3_5 Rh3_0 2.943980 1_555
Cd3_5 Rh7_5 2.943980 1_555
Cd3_5 Rh7_4 2.943980 1_555
Cd3_6 Rh9_7 2.800105 1_554
Cd3_6 Rh9_6 2.800105 1_555
Cd3_6 Rh1_7 2.846547 1_554
Cd3_6 Rh1_6 2.846547 1_555
Cd3_6 Rh4_7 2.846547 1_554
Cd3_6 Rh4_6 2.846547 1_555
Cd3_6 Cd3_7 2.903158 1_554
Cd3_6 Cd3_7 2.903158 1_555
Cd3_6 Rh3_2 2.943980 1_555
Cd3_6 Rh3_3 2.943980 1_554
Cd3_6 Rh7_6 2.943980 1_555
Cd3_6 Rh7_7 2.943980 1_554
Cd3_7 Rh9_7 2.800105 1_555
Cd3_7 Rh9_6 2.800105 1_555
Cd3_7 Rh1_7 2.846547 1_555
Cd3_7 Rh1_6 2.846547 1_555
Cd3_7 Rh4_7 2.846547 1_555
Cd3_7 Rh4_6 2.846547 1_555
Cd3_7 Rh3_3 2.943980 1_555
Cd3_7 Rh3_2 2.943980 1_555
Cd3_7 Rh7_7 2.943980 1_555
Cd3_7 Rh7_6 2.943980 1_555
Ga0_0 Rh0_1 2.614138 1_554
Ga0_0 Rh0_0 2.614138 1_555
Ga0_0 Rh1_2 2.614138 1_545
Ga0_0 Rh1_3 2.614138 1_544
Ga0_0 Rh2_4 2.614138 1_455
Ga0_0 Rh2_5 2.614138 1_454
Ga0_0 Rh3_6 2.614138 1_445
Ga0_0 Rh3_7 2.614138 1_444
Ga0_1 Rh0_1 2.614138 1_555
Ga0_1 Rh0_0 2.614138 1_555
Ga0_1 Rh1_2 2.614138 1_545
Ga0_1 Rh1_3 2.614138 1_545
Ga0_1 Rh2_4 2.614138 1_455
Ga0_1 Rh2_5 2.614138 1_455
Ga0_1 Rh3_6 2.614138 1_445
Ga0_1 Rh3_7 2.614138 1_445
Ga0_2 Rh0_3 2.614138 1_554
Ga0_2 Rh0_2 2.614138 1_555
Ga0_2 Rh1_1 2.614138 1_554
Ga0_2 Rh1_0 2.614138 1_555
Ga0_2 Rh2_7 2.614138 1_454
Ga0_2 Rh2_6 2.614138 1_455
Ga0_2 Rh3_5 2.614138 1_454
Ga0_2 Rh3_4 2.614138 1_455
Ga0_3 Rh0_3 2.614138 1_555
Ga0_3 Rh0_2 2.614138 1_555
Ga0_3 Rh1_1 2.614138 1_555
Ga0_3 Rh1_0 2.614138 1_555
Ga0_3 Rh2_7 2.614138 1_455
Ga0_3 Rh2_6 2.614138 1_455
Ga0_3 Rh3_4 2.614138 1_455
Ga0_3 Rh3_5 2.614138 1_455
Ga0_4 Rh0_5 2.614138 1_554
Ga0_4 Rh0_4 2.614138 1_555
Ga0_4 Rh1_7 2.614138 1_544
Ga0_4 Rh1_6 2.614138 1_545
Ga0_4 Rh2_1 2.614138 1_554
Ga0_4 Rh2_0 2.614138 1_555
Ga0_4 Rh3_3 2.614138 1_544
Ga0_4 Rh3_2 2.614138 1_545
Ga0_5 Rh0_5 2.614138 1_555
Ga0_5 Rh0_4 2.614138 1_555
Ga0_5 Rh1_7 2.614138 1_545
Ga0_5 Rh1_6 2.614138 1_545
Ga0_5 Rh2_1 2.614138 1_555
Ga0_5 Rh2_0 2.614138 1_555
Ga0_5 Rh3_3 2.614138 1_545
Ga0_5 Rh3_2 2.614138 1_545
Ga0_6 Rh0_6 2.614138 1_555
Ga0_6 Rh0_7 2.614138 1_554
Ga0_6 Rh1_5 2.614138 1_554
Ga0_6 Rh1_4 2.614138 1_555
Ga0_6 Rh2_2 2.614138 1_555
Ga0_6 Rh2_3 2.614138 1_554
Ga0_6 Rh3_1 2.614138 1_554
Ga0_6 Rh3_0 2.614138 1_555
Ga0_7 Rh0_6 2.614138 1_555
Ga0_7 Rh0_7 2.614138 1_555
Ga0_7 Rh1_5 2.614138 1_555
Ga0_7 Rh1_4 2.614138 1_555
Ga0_7 Rh2_2 2.614138 1_555
Ga0_7 Rh2_3 2.614138 1_555
Ga0_7 Rh3_1 2.614138 1_555
Ga0_7 Rh3_0 2.614138 1_555
Ga1_0 Rh6_0 2.614138 1_555
Ga1_0 Rh6_1 2.614138 1_554
Ga1_0 Rh4_0 2.614138 1_555
Ga1_0 Rh4_1 2.614138 1_554
Ga1_0 Rh5_0 2.614138 1_555
Ga1_0 Rh5_1 2.614138 1_554
Ga1_0 Rh7_1 2.614138 1_554
Ga1_0 Rh7_0 2.614138 1_555
Ga1_1 Rh6_0 2.614138 1_555
Ga1_1 Rh6_1 2.614138 1_555
Ga1_1 Rh4_1 2.614138 1_555
Ga1_1 Rh4_0 2.614138 1_555
Ga1_1 Rh5_0 2.614138 1_555
Ga1_1 Rh5_1 2.614138 1_555
Ga1_1 Rh7_1 2.614138 1_555
Ga1_1 Rh7_0 2.614138 1_555
Ga1_2 Rh6_2 2.614138 1_555
Ga1_2 Rh6_3 2.614138 1_554
Ga1_2 Rh4_2 2.614138 1_555
Ga1_2 Rh4_3 2.614138 1_554
Ga1_2 Rh5_3 2.614138 1_554
Ga1_2 Rh5_2 2.614138 1_555
Ga1_2 Rh7_3 2.614138 1_554
Ga1_2 Rh7_2 2.614138 1_555
Ga1_3 Rh6_2 2.614138 1_555
Ga1_3 Rh6_3 2.614138 1_555
Ga1_3 Rh4_2 2.614138 1_555
Ga1_3 Rh4_3 2.614138 1_555
Ga1_3 Rh5_2 2.614138 1_555
Ga1_3 Rh5_3 2.614138 1_555
Ga1_3 Rh7_3 2.614138 1_555
Ga1_3 Rh7_2 2.614138 1_555
Ga1_4 Rh6_5 2.614138 1_554
Ga1_4 Rh6_4 2.614138 1_555
Ga1_4 Rh4_4 2.614138 1_555
Ga1_4 Rh4_5 2.614138 1_554
Ga1_4 Rh5_4 2.614138 1_555
Ga1_4 Rh5_5 2.614138 1_554
Ga1_4 Rh7_5 2.614138 1_554
Ga1_4 Rh7_4 2.614138 1_555
Ga1_5 Rh6_4 2.614138 1_555
Ga1_5 Rh6_5 2.614138 1_555
Ga1_5 Rh4_4 2.614138 1_555
Ga1_5 Rh4_5 2.614138 1_555
Ga1_5 Rh5_4 2.614138 1_555
Ga1_5 Rh5_5 2.614138 1_555
Ga1_5 Rh7_5 2.614138 1_555
Ga1_5 Rh7_4 2.614138 1_555
Ga1_6 Rh6_6 2.614138 1_555
Ga1_6 Rh6_7 2.614138 1_554
Ga1_6 Rh4_6 2.614138 1_555
Ga1_6 Rh4_7 2.614138 1_554
Ga1_6 Rh5_7 2.614138 1_554
Ga1_6 Rh5_6 2.614138 1_555
Ga1_6 Rh7_6 2.614138 1_555
Ga1_6 Rh7_7 2.614138 1_554
Ga1_7 Rh6_6 2.614138 1_555
Ga1_7 Rh6_7 2.614138 1_555
Ga1_7 Rh4_6 2.614138 1_555
Ga1_7 Rh4_7 2.614138 1_555
Ga1_7 Rh5_6 2.614138 1_555
Ga1_7 Rh5_7 2.614138 1_555
Ga1_7 Rh7_6 2.614138 1_555
Ga1_7 Rh7_7 2.614138 1_555
B0_0 Rh5_1 2.161704 1_554
B0_0 Rh5_0 2.161704 1_555
B0_0 Rh2_1 2.161704 1_554
B0_0 Rh2_0 2.161704 1_555
B0_0 Rh8_0 2.222839 1_555
B0_0 Rh8_1 2.222839 1_554
B0_0 Cd0_0 2.672653 1_555
B0_0 Cd1_0 2.927019 1_555
B0_0 Cd2_2 2.927019 1_545
B0_1 Rh2_1 2.161704 1_555
B0_1 Rh5_0 2.161704 1_555
B0_1 Rh5_1 2.161704 1_555
B0_1 Rh2_0 2.161704 1_555
B0_1 Rh8_0 2.222839 1_555
B0_1 Rh8_1 2.222839 1_555
B0_1 Cd0_1 2.672653 1_555
B0_1 Cd1_1 2.927019 1_555
B0_1 Cd2_3 2.927019 1_545
B0_2 Rh2_2 2.161704 1_555
B0_2 Rh2_3 2.161704 1_554
B0_2 Rh5_3 2.161704 1_554
B0_2 Rh5_2 2.161704 1_555
B0_2 Rh8_3 2.222839 1_554
B0_2 Rh8_2 2.222839 1_555
B0_2 Cd0_2 2.672653 1_555
B0_2 Cd2_0 2.927019 1_555
B0_2 Cd1_2 2.927019 1_555
B0_3 Rh2_2 2.161704 1_555
B0_3 Rh2_3 2.161704 1_555
B0_3 Rh5_3 2.161704 1_555
B0_3 Rh5_2 2.161704 1_555
B0_3 Rh8_2 2.222839 1_555
B0_3 Rh8_3 2.222839 1_555
B0_3 Cd0_3 2.672653 1_555
B0_3 Cd2_1 2.927019 1_555
B0_3 Cd1_3 2.927019 1_555
B0_4 Rh5_5 2.161704 1_554
B0_4 Rh5_4 2.161704 1_555
B0_4 Rh2_5 2.161704 1_554
B0_4 Rh2_4 2.161704 1_555
B0_4 Rh8_5 2.222839 1_554
B0_4 Rh8_4 2.222839 1_555
B0_4 Cd0_4 2.672653 1_555
B0_4 Cd1_4 2.927019 1_555
B0_4 Cd2_6 2.927019 1_545
B0_5 Rh5_5 2.161704 1_555
B0_5 Rh5_4 2.161704 1_555
B0_5 Rh2_4 2.161704 1_555
B0_5 Rh2_5 2.161704 1_555
B0_5 Rh8_5 2.222839 1_555
B0_5 Rh8_4 2.222839 1_555
B0_5 Cd0_5 2.672653 1_555
B0_5 Cd1_5 2.927019 1_555
B0_5 Cd2_7 2.927019 1_545
B0_6 Rh5_7 2.161704 1_554
B0_6 Rh5_6 2.161704 1_555
B0_6 Rh2_6 2.161704 1_555
B0_6 Rh2_7 2.161704 1_554
B0_6 Rh8_7 2.222839 1_554
B0_6 Rh8_6 2.222839 1_555
B0_6 Cd0_6 2.672653 1_555
B0_6 Cd2_4 2.927019 1_555
B0_6 Cd1_6 2.927019 1_555
B0_7 Rh5_7 2.161704 1_555
B0_7 Rh5_6 2.161704 1_555
B0_7 Rh2_6 2.161704 1_555
B0_7 Rh2_7 2.161704 1_555
B0_7 Rh8_6 2.222839 1_555
B0_7 Rh8_7 2.222839 1_555
B0_7 Cd0_7 2.672653 1_555
B0_7 Cd2_5 2.927019 1_555
B0_7 Cd1_7 2.927019 1_555
B1_0 Rh7_1 2.161704 1_554
B1_0 Rh7_0 2.161704 1_555
B1_0 Rh0_0 2.161704 1_555
B1_0 Rh0_1 2.161704 1_554
B1_0 Rh9_0 2.222839 1_555
B1_0 Rh9_1 2.222839 1_554
B1_0 Cd1_0 2.672653 1_555
B1_0 Cd3_0 2.927019 1_555
B1_0 Cd0_4 2.927019 1_455
B1_1 Rh7_0 2.161704 1_555
B1_1 Rh0_0 2.161704 1_555
B1_1 Rh7_1 2.161704 1_555
B1_1 Rh0_1 2.161704 1_555
B1_1 Rh9_0 2.222839 1_555
B1_1 Rh9_1 2.222839 1_555
B1_1 Cd1_1 2.672653 1_555
B1_1 Cd3_1 2.927019 1_555
B1_1 Cd0_5 2.927019 1_455
B1_2 Rh7_2 2.161704 1_555
B1_2 Rh7_3 2.161704 1_554
B1_2 Rh0_2 2.161704 1_555
B1_2 Rh0_3 2.161704 1_554
B1_2 Rh9_3 2.222839 1_554
B1_2 Rh9_2 2.222839 1_555
B1_2 Cd1_2 2.672653 1_555
B1_2 Cd3_2 2.927019 1_555
B1_2 Cd0_6 2.927019 1_455
B1_3 Rh7_2 2.161704 1_555
B1_3 Rh7_3 2.161704 1_555
B1_3 Rh0_2 2.161704 1_555
B1_3 Rh0_3 2.161704 1_555
B1_3 Rh9_3 2.222839 1_555
B1_3 Rh9_2 2.222839 1_555
B1_3 Cd1_3 2.672653 1_555
B1_3 Cd3_3 2.927019 1_555
B1_3 Cd0_7 2.927019 1_455
B1_4 Rh0_5 2.161704 1_554
B1_4 Rh0_4 2.161704 1_555
B1_4 Rh7_4 2.161704 1_555
B1_4 Rh7_5 2.161704 1_554
B1_4 Rh9_5 2.222839 1_554
B1_4 Rh9_4 2.222839 1_555
B1_4 Cd1_4 2.672653 1_555
B1_4 Cd0_0 2.927019 1_555
B1_4 Cd3_4 2.927019 1_555
B1_5 Rh0_4 2.161704 1_555
B1_5 Rh0_5 2.161704 1_555
B1_5 Rh7_5 2.161704 1_555
B1_5 Rh7_4 2.161704 1_555
B1_5 Rh9_4 2.222839 1_555
B1_5 Rh9_5 2.222839 1_555
B1_5 Cd1_5 2.672653 1_555
B1_5 Cd0_1 2.927019 1_555
B1_5 Cd3_5 2.927019 1_555
B1_6 Rh0_6 2.161704 1_555
B1_6 Rh7_7 2.161704 1_554
B1_6 Rh0_7 2.161704 1_554
B1_6 Rh7_6 2.161704 1_555
B1_6 Rh9_7 2.222839 1_554
B1_6 Rh9_6 2.222839 1_555
B1_6 Cd1_6 2.672653 1_555
B1_6 Cd0_2 2.927019 1_555
B1_6 Cd3_6 2.927019 1_555
B1_7 Rh0_6 2.161704 1_555
B1_7 Rh7_7 2.161704 1_555
B1_7 Rh0_7 2.161704 1_555
B1_7 Rh7_6 2.161704 1_555
B1_7 Rh9_6 2.222839 1_555
B1_7 Rh9_7 2.222839 1_555
B1_7 Cd1_7 2.672653 1_555
B1_7 Cd0_3 2.927019 1_555
B1_7 Cd3_7 2.927019 1_555
B2_0 Rh6_0 2.161704 1_555
B2_0 Rh6_1 2.161704 1_554
B2_0 Rh3_0 2.161704 1_555
B2_0 Rh3_1 2.161704 1_554
B2_0 Rh9_4 2.222839 1_555
B2_0 Rh9_5 2.222839 1_554
B2_0 Cd2_0 2.672653 1_555
B2_0 Cd3_4 2.927019 1_555
B2_0 Cd0_0 2.927019 1_555
B2_1 Rh6_0 2.161704 1_555
B2_1 Rh6_1 2.161704 1_555
B2_1 Rh3_0 2.161704 1_555
B2_1 Rh3_1 2.161704 1_555
B2_1 Rh9_4 2.222839 1_555
B2_1 Rh9_5 2.222839 1_555
B2_1 Cd2_1 2.672653 1_555
B2_1 Cd3_5 2.927019 1_555
B2_1 Cd0_1 2.927019 1_555
B2_2 Rh6_3 2.161704 1_554
B2_2 Rh6_2 2.161704 1_555
B2_2 Rh3_2 2.161704 1_555
B2_2 Rh3_3 2.161704 1_554
B2_2 Rh9_7 2.222839 1_554
B2_2 Rh9_6 2.222839 1_555
B2_2 Cd2_2 2.672653 1_555
B2_2 Cd3_6 2.927019 1_555
B2_2 Cd0_2 2.927019 1_555
B2_3 Rh6_3 2.161704 1_555
B2_3 Rh6_2 2.161704 1_555
B2_3 Rh3_3 2.161704 1_555
B2_3 Rh3_2 2.161704 1_555
B2_3 Rh9_7 2.222839 1_555
B2_3 Rh9_6 2.222839 1_555
B2_3 Cd2_3 2.672653 1_555
B2_3 Cd3_7 2.927019 1_555
B2_3 Cd0_3 2.927019 1_555
B2_4 Rh6_5 2.161704 1_554
B2_4 Rh6_4 2.161704 1_555
B2_4 Rh3_5 2.161704 1_554
B2_4 Rh3_4 2.161704 1_555
B2_4 Rh9_0 2.222839 1_655
B2_4 Rh9_1 2.222839 1_654
B2_4 Cd2_4 2.672653 1_555
B2_4 Cd3_0 2.927019 1_655
B2_4 Cd0_4 2.927019 1_555
B2_5 Rh6_4 2.161704 1_555
B2_5 Rh6_5 2.161704 1_555
B2_5 Rh3_5 2.161704 1_555
B2_5 Rh3_4 2.161704 1_555
B2_5 Rh9_0 2.222839 1_655
B2_5 Rh9_1 2.222839 1_655
B2_5 Cd2_5 2.672653 1_555
B2_5 Cd3_1 2.927019 1_655
B2_5 Cd0_5 2.927019 1_555
B2_6 Rh6_7 2.161704 1_554
B2_6 Rh6_6 2.161704 1_555
B2_6 Rh3_7 2.161704 1_554
B2_6 Rh3_6 2.161704 1_555
B2_6 Rh9_3 2.222839 1_654
B2_6 Rh9_2 2.222839 1_655
B2_6 Cd2_6 2.672653 1_555
B2_6 Cd3_2 2.927019 1_655
B2_6 Cd0_6 2.927019 1_555
B2_7 Rh6_6 2.161704 1_555
B2_7 Rh6_7 2.161704 1_555
B2_7 Rh3_7 2.161704 1_555
B2_7 Rh3_6 2.161704 1_555
B2_7 Rh9_2 2.222839 1_655
B2_7 Rh9_3 2.222839 1_655
B2_7 Cd2_7 2.672653 1_555
B2_7 Cd0_7 2.927019 1_555
B2_7 Cd3_3 2.927019 1_655
B3_0 Rh4_1 2.161704 1_554
B3_0 Rh1_0 2.161704 1_555
B3_0 Rh1_1 2.161704 1_554
B3_0 Rh4_0 2.161704 1_555
B3_0 Rh8_2 2.222839 1_555
B3_0 Rh8_3 2.222839 1_554
B3_0 Cd3_0 2.672653 1_555
B3_0 Cd1_2 2.927019 1_555
B3_0 Cd2_0 2.927019 1_555
B3_1 Rh4_1 2.161704 1_555
B3_1 Rh1_0 2.161704 1_555
B3_1 Rh1_1 2.161704 1_555
B3_1 Rh4_0 2.161704 1_555
B3_1 Rh8_2 2.222839 1_555
B3_1 Rh8_3 2.222839 1_555
B3_1 Cd3_1 2.672653 1_555
B3_1 Cd2_1 2.927019 1_555
B3_1 Cd1_3 2.927019 1_555
B3_2 Rh4_2 2.161704 1_555
B3_2 Rh4_3 2.161704 1_554
B3_2 Rh1_3 2.161704 1_554
B3_2 Rh1_2 2.161704 1_555
B3_2 Rh8_0 2.222839 1_565
B3_2 Rh8_1 2.222839 1_564
B3_2 Cd3_2 2.672653 1_555
B3_2 Cd2_2 2.927019 1_555
B3_2 Cd1_0 2.927019 1_565
B3_3 Rh4_3 2.161704 1_555
B3_3 Rh4_2 2.161704 1_555
B3_3 Rh1_3 2.161704 1_555
B3_3 Rh1_2 2.161704 1_555
B3_3 Rh8_0 2.222839 1_565
B3_3 Rh8_1 2.222839 1_565
B3_3 Cd3_3 2.672653 1_555
B3_3 Cd2_3 2.927019 1_555
B3_3 Cd1_1 2.927019 1_565
B3_4 Rh4_4 2.161704 1_555
B3_4 Rh4_5 2.161704 1_554
B3_4 Rh1_4 2.161704 1_555
B3_4 Rh1_5 2.161704 1_554
B3_4 Rh8_6 2.222839 1_555
B3_4 Rh8_7 2.222839 1_554
B3_4 Cd3_4 2.672653 1_555
B3_4 Cd1_6 2.927019 1_555
B3_4 Cd2_4 2.927019 1_555
B3_5 Rh4_4 2.161704 1_555
B3_5 Rh4_5 2.161704 1_555
B3_5 Rh1_4 2.161704 1_555
B3_5 Rh1_5 2.161704 1_555
B3_5 Rh8_6 2.222839 1_555
B3_5 Rh8_7 2.222839 1_555
B3_5 Cd3_5 2.672653 1_555
B3_5 Cd1_7 2.927019 1_555
B3_5 Cd2_5 2.927019 1_555
B3_6 Rh4_6 2.161704 1_555
B3_6 Rh4_7 2.161704 1_554
B3_6 Rh1_7 2.161704 1_554
B3_6 Rh1_6 2.161704 1_555
B3_6 Rh8_5 2.222839 1_564
B3_6 Rh8_4 2.222839 1_565
B3_6 Cd3_6 2.672653 1_555
B3_6 Cd2_6 2.927019 1_555
B3_6 Cd1_4 2.927019 1_565
B3_7 Rh4_6 2.161704 1_555
B3_7 Rh4_7 2.161704 1_555
B3_7 Rh1_6 2.161704 1_555
B3_7 Rh1_7 2.161704 1_555
B3_7 Rh8_4 2.222839 1_565
B3_7 Rh8_5 2.222839 1_565
B3_7 Cd3_7 2.672653 1_555
B3_7 Cd1_5 2.927019 1_565
B3_7 Cd2_7 2.927019 1_555
