# generated using pymatgen
data_NdSiAg
_symmetry_space_group_name_H-M   'P 1'
_cell_length_a   4.42356637
_cell_length_b   4.42356502
_cell_length_c   7.92792521
_cell_angle_alpha   90.00000000
_cell_angle_beta   90.00000000
_cell_angle_gamma   119.99999478
_symmetry_Int_Tables_number   1
_chemical_formula_structural   NdSiAg
_chemical_formula_sum   'Nd2 Si2 Ag2'
_cell_volume   134.34922390
_cell_formula_units_Z   2
loop_
 _symmetry_equiv_pos_site_id
 _symmetry_equiv_pos_as_xyz
  1  'x, y, z'
loop_
 _atom_site_type_symbol
 _atom_site_label
 _atom_site_symmetry_multiplicity
 _atom_site_fract_x
 _atom_site_fract_y
 _atom_site_fract_z
 _atom_site_occupancy
  Nd  Nd0  1  0.00000000  -0.00000000  -0.00000000  1
  Nd  Nd1  1  0.00000000  -0.00000000  0.50000000  1
  Si  Si0  1  0.33333300  0.66666700  0.75000000  1
  Si  Si1  1  0.66666700  0.33333300  0.25000000  1
  Ag  Ag0  1  0.33333300  0.66666700  0.25000000  1
  Ag  Ag1  1  0.66666700  0.33333300  0.75000000  1
loop_
_geom_bond_atom_site_label_1
_geom_bond_atom_site_label_2
_geom_bond_distance
_geom_bond_site_symmetry_2
Nd0 Si0 3.232782 1_544
Nd0 Si1 3.232782 1_455
Nd0 Si0 3.232785 1_554
Nd0 Si1 3.232785 1_445
Nd0 Si1 3.232786 1_555
Nd0 Si0 3.232786 1_444
Nd1 Si0 3.232782 1_545
Nd1 Si1 3.232782 1_455
Nd1 Si0 3.232785 1_555
Nd1 Si1 3.232785 1_445
Nd1 Si0 3.232786 1_445
Nd1 Si1 3.232786 1_555
Ag0 Si1 2.553944 1_565
Ag0 Si1 2.553945 1_455
Ag0 Si1 2.553952 1_555
Ag0 Nd1 3.232782 1_565
Ag0 Nd0 3.232782 1_565
Ag0 Nd0 3.232785 1_555
Ag0 Nd1 3.232785 1_555
Ag0 Nd0 3.232786 1_665
Ag0 Nd1 3.232786 1_665
Ag1 Si0 2.553944 1_545
Ag1 Si0 2.553945 1_655
Ag1 Si0 2.553952 1_555
Ag1 Nd1 3.232782 1_655
Ag1 Nd0 3.232782 1_656
Ag1 Nd0 3.232785 1_666
Ag1 Nd1 3.232785 1_665
Ag1 Nd1 3.232786 1_555
Ag1 Nd0 3.232786 1_556
