# generated using pymatgen
data_Bi2PtRhF14
_symmetry_space_group_name_H-M   'P 1'
_cell_length_a   5.49360841
_cell_length_b   9.04637568
_cell_length_c   12.05678227
_cell_angle_alpha   61.85648386
_cell_angle_beta   89.83909010
_cell_angle_gamma   90.12075448
_symmetry_Int_Tables_number   1
_chemical_formula_structural   Bi2PtRhF14
_chemical_formula_sum   'Bi4 Pt2 Rh2 F28'
_cell_volume   528.34001056
_cell_formula_units_Z   2
loop_
 _symmetry_equiv_pos_site_id
 _symmetry_equiv_pos_as_xyz
  1  'x, y, z'
loop_
 _atom_site_type_symbol
 _atom_site_label
 _atom_site_symmetry_multiplicity
 _atom_site_fract_x
 _atom_site_fract_y
 _atom_site_fract_z
 _atom_site_occupancy
  Bi  Bi0  1  0.26583381  0.81169987  0.26195346  1
  Bi  Bi1  1  0.73416619  0.18830013  0.73804654  1
  Bi  Bi2  1  0.76956282  0.18495530  0.23705130  1
  Bi  Bi3  1  0.23043718  0.81504470  0.76294870  1
  Pt  Pt0  1  0.25766228  0.27092651  0.45927505  1
  Pt  Pt1  1  0.74233772  0.72907349  0.54072495  1
  Rh  Rh0  1  0.75603541  0.72897503  0.04092516  1
  Rh  Rh1  1  0.24396459  0.27102497  0.95907484  1
  F  F0  1  0.92361317  0.70820808  0.40922663  1
  F  F1  1  0.07638683  0.29179192  0.59077337  1
  F  F2  1  0.42627310  0.28825792  0.08608292  1
  F  F3  1  0.57372690  0.71174208  0.91391708  1
  F  F4  1  0.45758161  0.73041069  0.12862831  1
  F  F5  1  0.54241839  0.26958931  0.87137169  1
  F  F6  1  0.95756835  0.27515554  0.37243779  1
  F  F7  1  0.04243165  0.72484446  0.62756221  1
  F  F8  1  0.93384846  0.74662971  0.17000782  1
  F  F9  1  0.06615154  0.25337029  0.82999218  1
  F  F10  1  0.43299973  0.25599351  0.32424714  1
  F  F11  1  0.56700027  0.74400649  0.67575286  1
  F  F12  1  0.76464973  0.49304199  0.13747420  1
  F  F13  1  0.23535027  0.50695801  0.86252580  1
  F  F14  1  0.27095553  0.51381888  0.36276240  1
  F  F15  1  0.72904447  0.48618112  0.63723760  1
  F  F16  1  0.93864786  0.27730657  0.04194869  1
  F  F17  1  0.06135214  0.72269343  0.95805131  1
  F  F18  1  0.43510928  0.72577737  0.46016656  1
  F  F19  1  0.56489072  0.27422263  0.53983344  1
  F  F20  1  0.74448274  0.97452049  0.44836594  1
  F  F21  1  0.25551726  0.02547951  0.55163406  1
  F  F22  1  0.24255462  0.03113130  0.05149164  1
  F  F23  1  0.75744538  0.96886870  0.94850836  1
  F  F24  1  0.60737870  0.96699019  0.22737935  1
  F  F25  1  0.39262130  0.03300981  0.77262065  1
  F  F26  1  0.10721359  0.03320544  0.27274491  1
  F  F27  1  0.89278641  0.96679456  0.72725509  1
loop_
_geom_bond_atom_site_label_1
_geom_bond_atom_site_label_2
_geom_bond_distance
_geom_bond_site_symmetry_2
Bi0 F26 2.245939 1_565
Bi0 F24 2.258293 1_555
Bi0 F4 2.311549 1_555
Bi0 F18 2.333092 1_555
Bi0 F8 2.350340 1_455
Bi0 F22 2.376296 1_565
Bi0 F14 2.377066 1_555
Bi0 F0 2.443256 1_455
Bi1 F27 2.245939 1_545
Bi1 F25 2.258293 1_555
Bi1 F5 2.311549 1_555
Bi1 F19 2.333092 1_555
Bi1 F9 2.350340 1_655
Bi1 F23 2.376296 1_545
Bi1 F15 2.377066 1_555
Bi1 F1 2.443256 1_655
Bi2 F24 2.214837 1_545
Bi2 F26 2.228985 1_655
Bi2 F16 2.285759 1_555
Bi2 F20 2.357031 1_545
Bi2 F10 2.359714 1_555
Bi2 F6 2.378968 1_555
Bi2 F12 2.460443 1_555
Bi2 F2 2.482959 1_555
Bi3 F25 2.214837 1_565
Bi3 F27 2.228985 1_455
Bi3 F17 2.285759 1_555
Bi3 F21 2.357031 1_565
Bi3 F11 2.359714 1_555
Bi3 F7 2.378968 1_555
Bi3 F13 2.460443 1_555
Bi3 F3 2.482959 1_555
F0 Pt1 1.953263 1_555
F1 Pt0 1.953263 1_555
F2 Rh1 1.898798 1_554
F3 Rh0 1.898798 1_556
F4 Rh0 1.951886 1_555
F5 Rh1 1.951886 1_555
F6 Pt0 1.946196 1_655
F7 Pt1 1.946196 1_455
F8 Rh0 1.908983 1_555
F9 Rh1 1.908983 1_555
F10 Pt0 1.948249 1_555
F11 Pt1 1.948249 1_555
F12 Rh0 1.889347 1_555
F13 Rh1 1.889347 1_555
F14 Pt0 1.942754 1_555
F15 Pt1 1.942754 1_555
F16 Rh1 1.964553 1_654
F17 Rh0 1.964553 1_456
F18 Pt1 1.956841 1_555
F19 Pt0 1.956841 1_555
F20 Pt1 1.958993 1_555
F21 Pt0 1.958993 1_555
F22 Rh1 1.915716 1_554
F23 Rh0 1.915716 1_556
