# generated using pymatgen
data_Ba2SrP14
_symmetry_space_group_name_H-M   'P 1'
_cell_length_a   13.05588148
_cell_length_b   6.49559872
_cell_length_c   12.01815356
_cell_angle_alpha   57.26400132
_cell_angle_beta   90.00000000
_cell_angle_gamma   90.00000000
_symmetry_Int_Tables_number   1
_chemical_formula_structural   Ba2SrP14
_chemical_formula_sum   'Ba4 Sr2 P28'
_cell_volume   857.32901713
_cell_formula_units_Z   2
loop_
 _symmetry_equiv_pos_site_id
 _symmetry_equiv_pos_as_xyz
  1  'x, y, z'
loop_
 _atom_site_type_symbol
 _atom_site_label
 _atom_site_symmetry_multiplicity
 _atom_site_fract_x
 _atom_site_fract_y
 _atom_site_fract_z
 _atom_site_occupancy
  Ba  Ba0  1  0.65123669  0.18688361  0.61141068  1
  Ba  Ba1  1  0.15123669  0.81311639  0.88858932  1
  Ba  Ba2  1  0.34876331  0.81311639  0.38858932  1
  Ba  Ba3  1  0.84876331  0.18688361  0.11141068  1
  Sr  Sr0  1  0.50000000  0.00000000  0.00000000  1
  Sr  Sr1  1  0.00000000  0.00000000  0.50000000  1
  P  P0  1  0.84828411  0.05443431  0.84765690  1
  P  P1  1  0.34828411  0.94556569  0.65234310  1
  P  P2  1  0.15171589  0.94556569  0.15234310  1
  P  P3  1  0.65171589  0.05443431  0.34765690  1
  P  P4  1  0.49046396  0.72084510  0.68951570  1
  P  P5  1  0.99046396  0.27915490  0.81048430  1
  P  P6  1  0.67548820  0.62127833  0.04430297  1
  P  P7  1  0.17548820  0.37872167  0.45569703  1
  P  P8  1  0.32451180  0.37872167  0.95569703  1
  P  P9  1  0.82451180  0.62127833  0.54430297  1
  P  P10  1  0.58485431  0.29296217  0.14019122  1
  P  P11  1  0.08485431  0.70703783  0.35980878  1
  P  P12  1  0.41514569  0.70703783  0.85980878  1
  P  P13  1  0.91514569  0.29296217  0.64019122  1
  P  P14  1  0.71173143  0.63530310  0.21765594  1
  P  P15  1  0.21173143  0.36469690  0.28234406  1
  P  P16  1  0.28826857  0.36469690  0.78234406  1
  P  P17  1  0.78826857  0.63530310  0.71765594  1
  P  P18  1  0.55971208  0.59981845  0.30433262  1
  P  P19  1  0.05971208  0.40018155  0.19566738  1
  P  P20  1  0.44028792  0.40018155  0.69566738  1
  P  P21  1  0.94028792  0.59981845  0.80433262  1
  P  P22  1  0.77561251  0.26941311  0.35190808  1
  P  P23  1  0.27561251  0.73058689  0.14809192  1
  P  P24  1  0.22438749  0.73058689  0.64809192  1
  P  P25  1  0.72438749  0.26941311  0.85190808  1
  P  P26  1  0.00953604  0.72084510  0.18951570  1
  P  P27  1  0.50953604  0.27915490  0.31048430  1
loop_
_geom_bond_atom_site_label_1
_geom_bond_atom_site_label_2
_geom_bond_distance
_geom_bond_site_symmetry_2
Ba0 P22 3.292805 1_555
Ba0 P25 3.351017 1_555
Ba0 P9 3.356897 1_555
Ba0 P4 3.373087 1_545
Ba0 P18 3.396500 1_555
Ba0 P20 3.470956 1_555
Ba0 P17 3.566526 1_545
Ba0 P13 3.567086 1_555
Ba0 P0 3.574635 1_555
Ba0 P3 3.706421 1_555
Ba1 P23 3.292805 1_556
Ba1 P24 3.351017 1_555
Ba1 P8 3.356897 1_555
Ba1 P5 3.373087 1_465
Ba1 P19 3.396500 1_556
Ba1 P21 3.470956 1_455
Ba1 P16 3.566526 1_565
Ba1 P12 3.567086 1_555
Ba1 P1 3.574635 1_555
Ba1 P2 3.706421 1_556
Ba2 P24 3.292805 1_555
Ba2 P23 3.351017 1_555
Ba2 P7 3.356897 1_555
Ba2 P27 3.373087 1_565
Ba2 P20 3.396500 1_555
Ba2 P18 3.470956 1_555
Ba2 P15 3.566526 1_565
Ba2 P11 3.567086 1_555
Ba2 P2 3.574635 1_555
Ba2 P1 3.706421 1_555
Ba3 P25 3.292805 1_554
Ba3 P22 3.351017 1_555
Ba3 P6 3.356897 1_555
Ba3 P26 3.373087 1_645
Ba3 P21 3.396500 1_554
Ba3 P19 3.470956 1_655
Ba3 P14 3.566526 1_545
Ba3 P10 3.567086 1_555
Ba3 P3 3.574635 1_555
Ba3 P0 3.706421 1_554
P0 P25 2.155531 1_555
P0 P5 2.251842 1_555
P0 P13 2.280629 1_555
P1 P24 2.155531 1_555
P1 P4 2.251842 1_555
P1 P12 2.280629 1_555
P2 P23 2.155531 1_555
P2 P26 2.251842 1_555
P6 Sr0 3.188727 1_565
P7 Sr1 3.188727 1_555
P8 Sr0 3.188727 1_556
P9 Sr1 3.188727 1_665
P10 P6 2.149012 1_555
P10 P27 2.228251 1_555
P10 P3 2.280629 1_555
P10 Sr0 3.339895 1_555
P11 P7 2.149012 1_555
P11 P26 2.228251 1_555
P11 P2 2.280629 1_555
P11 Sr1 3.339895 1_565
P12 P8 2.149012 1_555
P12 P4 2.228251 1_555
P12 Sr0 3.339895 1_566
P13 P9 2.149012 1_555
P13 P5 2.228251 1_555
P13 Sr1 3.339895 1_655
P14 P6 2.185854 1_555
P14 P22 2.190911 1_555
P14 P18 2.194947 1_555
P15 P7 2.185854 1_555
P15 P23 2.190911 1_555
P15 P19 2.194947 1_555
P16 P8 2.185854 1_555
P16 P24 2.190911 1_555
P16 P20 2.194947 1_555
P17 P9 2.185854 1_555
P17 P25 2.190911 1_555
P17 P21 2.194947 1_555
P18 P27 2.146286 1_555
P18 Sr0 3.234121 1_565
P19 P26 2.146286 1_555
P19 Sr1 3.234121 1_555
P20 P4 2.146286 1_555
P20 Sr0 3.234121 1_556
P21 P5 2.146286 1_555
P21 Sr1 3.234121 1_665
P22 P3 2.155531 1_555
P22 Sr1 3.382895 1_655
P23 Sr0 3.382895 1_565
P24 Sr1 3.382895 1_565
P25 Sr0 3.382895 1_556
P27 P3 2.251842 1_555
