# generated using pymatgen
data_Hf12Al9Co3C4
_symmetry_space_group_name_H-M   'P 1'
_cell_length_a   8.49989514
_cell_length_b   8.49989530
_cell_length_c   8.49989480
_cell_angle_alpha   59.71189329
_cell_angle_beta   59.71189482
_cell_angle_gamma   59.71189786
_symmetry_Int_Tables_number   1
_chemical_formula_structural   Hf12Al9Co3C4
_chemical_formula_sum   'Hf12 Al9 Co3 C4'
_cell_volume   431.39432416
_cell_formula_units_Z   1
loop_
 _symmetry_equiv_pos_site_id
 _symmetry_equiv_pos_as_xyz
  1  'x, y, z'
loop_
 _atom_site_type_symbol
 _atom_site_label
 _atom_site_symmetry_multiplicity
 _atom_site_fract_x
 _atom_site_fract_y
 _atom_site_fract_z
 _atom_site_occupancy
  Hf  Hf0  1  0.19322062  0.80578122  0.19322062  1
  Hf  Hf1  1  0.80688558  0.19040320  0.80688558  1
  Hf  Hf2  1  0.05677938  0.44421878  0.05677938  1
  Hf  Hf3  1  0.05959680  0.44311442  0.44311442  1
  Hf  Hf4  1  0.44421878  0.05677938  0.05677938  1
  Hf  Hf5  1  0.44311442  0.05959680  0.44311442  1
  Hf  Hf6  1  0.80688558  0.80688558  0.19040320  1
  Hf  Hf7  1  0.05677938  0.05677938  0.44421878  1
  Hf  Hf8  1  0.19322062  0.19322062  0.80578122  1
  Hf  Hf9  1  0.19040320  0.80688558  0.80688558  1
  Hf  Hf10  1  0.44311442  0.44311442  0.05959680  1
  Hf  Hf11  1  0.80578122  0.19322062  0.19322062  1
  Al  Al0  1  0.62500000  0.62500000  0.62500000  1
  Al  Al1  1  0.83811825  0.83811825  0.51215197  1
  Al  Al2  1  0.51215197  0.83811825  0.83811825  1
  Al  Al3  1  0.41188175  0.73784803  0.41188175  1
  Al  Al4  1  0.73784803  0.41188175  0.41188175  1
  Al  Al5  1  0.41906513  0.41906513  0.41906513  1
  Al  Al6  1  0.41188175  0.41188175  0.73784803  1
  Al  Al7  1  0.83811825  0.51215197  0.83811825  1
  Al  Al8  1  0.83093487  0.83093487  0.83093487  1
  Co  Co0  1  0.12500000  0.62500000  0.62500000  1
  Co  Co1  1  0.62500000  0.62500000  0.12500000  1
  Co  Co2  1  0.62500000  0.12500000  0.62500000  1
  C  C0  1  0.12500000  0.12500000  0.12500000  1
  C  C1  1  0.12500000  0.12500000  0.62500000  1
  C  C2  1  0.62500000  0.12500000  0.12500000  1
  C  C3  1  0.12500000  0.62500000  0.12500000  1
loop_
_geom_bond_atom_site_label_1
_geom_bond_atom_site_label_2
_geom_bond_distance
_geom_bond_site_symmetry_2
Al0 Al7 2.699564 1_555
Al0 Al3 2.699564 1_555
Al0 Al1 2.699564 1_555
Al0 Al6 2.699564 1_555
Al0 Al2 2.699564 1_555
Al0 Al4 2.699564 1_555
Al0 Hf10 3.052166 1_556
Al0 Hf6 3.052166 1_555
Al0 Hf1 3.052167 1_555
Al0 Hf5 3.052167 1_565
Al0 Hf3 3.052167 1_655
Al0 Hf9 3.052167 1_555
Al1 Co0 2.509704 1_655
Al1 Co2 2.509704 1_565
Al1 Al8 2.649433 1_555
Al1 Al7 2.758605 1_555
Al1 Al2 2.758605 1_555
Al1 Hf11 2.862869 1_565
Al1 Hf0 2.862869 1_655
Al1 Hf7 2.926011 1_665
Al1 Hf6 3.025893 1_555
Al1 Hf5 3.107815 1_565
Al1 Hf3 3.107816 1_655
Al2 Co1 2.509704 1_556
Al2 Co2 2.509704 1_565
Al2 Al8 2.649434 1_555
Al2 Al7 2.758605 1_555
Al2 Hf0 2.862869 1_556
Al2 Hf8 2.862869 1_565
Al2 Hf4 2.926011 1_566
Al2 Hf9 3.025893 1_555
Al2 Hf5 3.107815 1_565
Al2 Hf10 3.107815 1_556
Al3 Co0 2.509704 1_555
Al3 Co1 2.509704 1_555
Al3 Al5 2.649434 1_555
Al3 Al6 2.758605 1_555
Al3 Al4 2.758605 1_555
Al3 Hf4 2.862869 1_565
Al3 Hf7 2.862869 1_565
Al3 Hf0 2.926011 1_555
Al3 Hf5 3.025893 1_565
Al3 Hf9 3.107815 1_555
Al3 Hf6 3.107815 1_555
Al4 Co1 2.509704 1_555
Al4 Co2 2.509704 1_555
Al4 Al5 2.649434 1_555
Al4 Al6 2.758605 1_555
Al4 Hf2 2.862869 1_655
Al4 Hf7 2.862869 1_655
Al4 Hf11 2.926011 1_555
Al4 Hf3 3.025893 1_655
Al4 Hf1 3.107815 1_555
Al4 Hf6 3.107815 1_555
Al5 Co1 2.576755 1_555
Al5 Co2 2.576755 1_555
Al5 Co0 2.576755 1_555
Al5 Al6 2.649433 1_555
Al5 Hf10 2.863813 1_555
Al5 Hf3 2.863813 1_555
Al5 Hf5 2.863813 1_555
Al5 Hf8 3.026913 1_555
Al5 Hf0 3.026913 1_555
Al5 Hf11 3.026913 1_555
Al6 Co0 2.509704 1_555
Al6 Co2 2.509704 1_555
Al6 Hf4 2.862869 1_556
Al6 Hf2 2.862869 1_556
Al6 Hf8 2.926011 1_555
Al6 Hf10 3.025893 1_556
Al6 Hf1 3.107815 1_555
Al6 Hf9 3.107816 1_555
Al7 Co0 2.509704 1_655
Al7 Co1 2.509704 1_556
Al7 Al8 2.649434 1_555
Al7 Hf11 2.862869 1_556
Al7 Hf8 2.862869 1_655
Al7 Hf2 2.926011 1_656
Al7 Hf1 3.025893 1_555
Al7 Hf3 3.107815 1_655
Al7 Hf10 3.107815 1_556
Al8 Co1 2.576755 1_556
Al8 Co2 2.576755 1_565
Al8 Co0 2.576755 1_655
Al8 Hf6 2.863813 1_556
Al8 Hf9 2.863813 1_655
Al8 Hf1 2.863813 1_565
Al8 Hf7 3.026913 1_665
Al8 Hf2 3.026913 1_656
Al8 Hf4 3.026913 1_566
Co0 Hf2 3.038171 1_556
Co0 Hf0 3.038171 1_555
Co0 Hf7 3.038171 1_565
Co0 Hf8 3.038171 1_555
Co0 Hf9 3.038770 1_555
Co0 Hf3 3.038770 1_555
Co1 Hf2 3.038171 1_655
Co1 Hf0 3.038171 1_555
Co1 Hf4 3.038171 1_565
Co1 Hf11 3.038171 1_555
Co1 Hf10 3.038770 1_555
Co1 Hf6 3.038770 1_555
Co2 Hf4 3.038171 1_556
Co2 Hf11 3.038171 1_555
Co2 Hf7 3.038171 1_655
Co2 Hf8 3.038171 1_555
Co2 Hf1 3.038770 1_555
Co2 Hf5 3.038770 1_555
C0 Hf7 2.280284 1_555
C0 Hf8 2.280284 1_554
C0 Hf4 2.280284 1_555
C0 Hf11 2.280284 1_455
C0 Hf2 2.280284 1_555
C0 Hf0 2.280284 1_545
C1 Hf3 2.268148 1_555
C1 Hf9 2.268148 1_545
C1 Hf5 2.268148 1_555
C1 Hf1 2.268148 1_455
C1 Hf8 2.273861 1_555
C1 Hf7 2.273861 1_555
C2 Hf5 2.268147 1_555
C2 Hf1 2.268147 1_554
C2 Hf6 2.268148 1_545
C2 Hf10 2.268148 1_555
C2 Hf11 2.273861 1_555
C2 Hf4 2.273861 1_555
C3 Hf3 2.268147 1_555
C3 Hf9 2.268147 1_554
C3 Hf10 2.268148 1_555
C3 Hf6 2.268148 1_455
C3 Hf0 2.273861 1_555
C3 Hf2 2.273861 1_555
