# generated using pymatgen
data_Ba9Sr(Bi2As)2
_symmetry_space_group_name_H-M   'P 1'
_cell_length_a   9.24034637
_cell_length_b   10.53620108
_cell_length_c   13.97984661
_cell_angle_alpha   90.00000000
_cell_angle_beta   90.33157503
_cell_angle_gamma   90.00000000
_symmetry_Int_Tables_number   1
_chemical_formula_structural   Ba9Sr(Bi2As)2
_chemical_formula_sum   'Ba18 Sr2 Bi8 As4'
_cell_volume   1361.02917518
_cell_formula_units_Z   2
loop_
 _symmetry_equiv_pos_site_id
 _symmetry_equiv_pos_as_xyz
  1  'x, y, z'
loop_
 _atom_site_type_symbol
 _atom_site_label
 _atom_site_symmetry_multiplicity
 _atom_site_fract_x
 _atom_site_fract_y
 _atom_site_fract_z
 _atom_site_occupancy
  Ba  Ba0  1  0.54557156  0.25000000  0.99878553  1
  Ba  Ba1  1  0.45442844  0.75000000  0.00121447  1
  Ba  Ba2  1  0.85774995  0.75000000  0.79835007  1
  Ba  Ba3  1  0.14225005  0.25000000  0.20164993  1
  Ba  Ba4  1  0.35745097  0.25000000  0.69715013  1
  Ba  Ba5  1  0.64254903  0.75000000  0.30284987  1
  Ba  Ba6  1  0.68822723  0.53420700  0.57235005  1
  Ba  Ba7  1  0.31177277  0.46579300  0.42764995  1
  Ba  Ba8  1  0.18359634  0.46696083  0.92256642  1
  Ba  Ba9  1  0.31177277  0.03420700  0.42764995  1
  Ba  Ba10  1  0.81640366  0.53303917  0.07743358  1
  Ba  Ba11  1  0.68822723  0.96579300  0.57235005  1
  Ba  Ba12  1  0.81640366  0.96696083  0.07743358  1
  Ba  Ba13  1  0.18359634  0.03303917  0.92256642  1
  Ba  Ba14  1  0.32929763  0.75000000  0.71016006  1
  Ba  Ba15  1  0.67070237  0.25000000  0.28983994  1
  Ba  Ba16  1  0.82984145  0.25000000  0.78338499  1
  Ba  Ba17  1  0.17015855  0.75000000  0.21661501  1
  Sr  Sr0  1  0.04206010  0.75000000  0.50089572  1
  Sr  Sr1  1  0.95793990  0.25000000  0.49910428  1
  Bi  Bi0  1  0.56583944  0.50993606  0.82645868  1
  Bi  Bi1  1  0.43416056  0.49006394  0.17354132  1
  Bi  Bi2  1  0.06344986  0.49124864  0.66641919  1
  Bi  Bi3  1  0.43416056  0.00993606  0.17354132  1
  Bi  Bi4  1  0.93655014  0.50875136  0.33358081  1
  Bi  Bi5  1  0.56583944  0.99006394  0.82645868  1
  Bi  Bi6  1  0.93655014  0.99124864  0.33358081  1
  Bi  Bi7  1  0.06344986  0.00875136  0.66641919  1
  As  As0  1  0.06897522  0.75000000  0.98889692  1
  As  As1  1  0.93102478  0.25000000  0.01110308  1
  As  As2  1  0.58457161  0.25000000  0.51456669  1
  As  As3  1  0.41542839  0.75000000  0.48543331  1
loop_
_geom_bond_atom_site_label_1
_geom_bond_atom_site_label_2
_geom_bond_distance
_geom_bond_site_symmetry_2
Ba0 Bi5 3.653049 1_545
Ba0 Bi0 3.653049 1_555
Ba0 Bi3 3.668125 1_556
Ba0 Bi1 3.668125 1_556
Ba1 Bi1 3.653049 1_555
Ba1 Bi3 3.653049 1_565
Ba1 Bi0 3.668125 1_554
Ba1 Bi5 3.668125 1_554
Ba2 Bi0 3.720225 1_555
Ba2 Bi5 3.720225 1_555
Ba2 Bi7 3.806254 1_665
Ba2 Bi2 3.806254 1_655
Ba3 Bi3 3.720225 1_555
Ba3 Bi1 3.720225 1_555
Ba3 Bi4 3.806254 1_455
Ba3 Bi6 3.806254 1_445
Ba4 Bi2 3.743306 1_555
Ba4 Bi7 3.743306 1_555
Ba4 Bi5 3.799486 1_545
Ba4 Bi0 3.799486 1_555
Ba5 Bi6 3.743306 1_555
Ba5 Bi4 3.743306 1_555
Ba5 Bi1 3.799486 1_555
Ba5 Bi3 3.799486 1_565
Ba6 Bi2 3.728658 1_655
Ba6 Bi0 3.743045 1_555
Ba6 Bi4 4.070342 1_555
Ba7 Bi4 3.728658 1_455
Ba7 Bi1 3.743045 1_555
Ba7 Bi2 4.070342 1_555
Ba8 Bi2 3.751645 1_555
Ba8 Bi0 3.813210 1_555
Ba8 Bi1 4.199530 1_556
Ba9 Bi6 3.728658 1_445
Ba9 Bi3 3.743045 1_555
Ba9 Bi7 4.070342 1_555
Ba10 Bi4 3.751645 1_555
Ba10 Bi1 3.813210 1_555
Ba10 Bi0 4.199530 1_554
Ba11 Bi7 3.728658 1_665
Ba11 Bi5 3.743045 1_555
Ba11 Bi6 4.070342 1_555
Ba12 Bi6 3.751645 1_555
Ba12 Bi3 3.813210 1_565
Ba12 Bi5 4.199530 1_554
Ba13 Bi7 3.751645 1_555
Ba13 Bi5 3.813210 1_545
Ba13 Bi3 4.199530 1_556
Ba14 Bi0 3.711778 1_555
Ba14 Bi5 3.711778 1_555
Ba14 Bi7 3.718000 1_565
Ba14 Bi2 3.718000 1_555
Ba15 Bi1 3.711778 1_555
Ba15 Bi3 3.711778 1_555
Ba15 Bi4 3.718000 1_555
Ba15 Bi6 3.718000 1_545
Ba16 Bi5 3.719046 1_545
Ba16 Bi0 3.719046 1_555
Ba16 Bi2 3.719575 1_655
Ba16 Bi7 3.719575 1_655
Ba17 Bi1 3.719046 1_555
Ba17 Bi3 3.719046 1_565
Ba17 Bi6 3.719575 1_455
Ba17 Bi4 3.719575 1_455
Bi2 Sr0 3.580616 1_555
Bi2 Sr1 3.585554 1_455
Bi4 Sr1 3.580616 1_555
Bi4 Sr0 3.585554 1_655
Bi6 Sr1 3.580616 1_565
Bi6 Sr0 3.585554 1_655
Bi7 Sr0 3.580616 1_545
Bi7 Sr1 3.585554 1_455
As0 Ba2 3.293211 1_455
As0 Ba8 3.299435 1_555
As0 Ba13 3.299435 1_565
As0 Ba17 3.312727 1_556
As0 Ba10 3.498255 1_456
As0 Ba12 3.498255 1_456
As0 Ba1 3.564886 1_556
As1 Ba3 3.293211 1_655
As1 Ba12 3.299435 1_545
As1 Ba10 3.299435 1_555
As1 Ba16 3.312727 1_554
As1 Ba13 3.498255 1_654
As1 Ba8 3.498255 1_654
As1 Ba0 3.564886 1_554
As2 Ba6 3.244657 1_555
As2 Ba11 3.244657 1_545
As2 Ba15 3.245350 1_555
As2 Ba4 3.313854 1_555
As2 Sr1 3.458066 1_555
As2 Ba7 3.600641 1_555
As2 Ba9 3.600641 1_555
As3 Ba9 3.244657 1_565
As3 Ba7 3.244657 1_555
As3 Ba14 3.245350 1_555
As3 Ba5 3.313854 1_555
As3 Sr0 3.458066 1_555
As3 Ba11 3.600641 1_555
As3 Ba6 3.600641 1_555
