# generated using pymatgen
data_HgAsO3
_symmetry_space_group_name_H-M   'P 1'
_cell_length_a   4.86693703
_cell_length_b   4.86693743
_cell_length_c   7.69342784
_cell_angle_alpha   90.00000000
_cell_angle_beta   90.00000000
_cell_angle_gamma   120.00000403
_symmetry_Int_Tables_number   1
_chemical_formula_structural   HgAsO3
_chemical_formula_sum   'Hg2 As2 O6'
_cell_volume   157.81998172
_cell_formula_units_Z   2
loop_
 _symmetry_equiv_pos_site_id
 _symmetry_equiv_pos_as_xyz
  1  'x, y, z'
loop_
 _atom_site_type_symbol
 _atom_site_label
 _atom_site_symmetry_multiplicity
 _atom_site_fract_x
 _atom_site_fract_y
 _atom_site_fract_z
 _atom_site_occupancy
  Hg  Hg0  1  -0.00000000  -0.00000000  0.83334257  1
  Hg  Hg1  1  -0.00000000  -0.00000000  0.16665743  1
  As  As0  1  0.33333300  0.66666700  0.50000000  1
  As  As1  1  0.66666700  0.33333300  0.50000000  1
  O  O0  1  0.37854900  0.00000000  0.63336723  1
  O  O1  1  0.00000000  0.37854900  0.63336723  1
  O  O2  1  0.62145100  0.62145100  0.63336723  1
  O  O3  1  -0.00000000  0.62145100  0.36663277  1
  O  O4  1  0.37854900  0.37854900  0.36663277  1
  O  O5  1  0.62145100  -0.00000000  0.36663277  1
loop_
_geom_bond_atom_site_label_1
_geom_bond_atom_site_label_2
_geom_bond_distance
_geom_bond_site_symmetry_2
Hg0 O2 2.400273 1_445
Hg0 O0 2.400273 1_555
Hg0 O1 2.400273 1_555
Hg1 O4 2.400273 1_555
Hg1 O5 2.400273 1_455
Hg1 O3 2.400273 1_545
As0 O3 1.837414 1_555
As0 O0 1.837414 1_565
As0 O1 1.837415 1_555
As0 O5 1.837415 1_565
As0 O2 1.837418 1_555
As0 O4 1.837418 1_555
As1 O1 1.837414 1_655
As1 O5 1.837414 1_555
As1 O3 1.837415 1_655
As1 O0 1.837415 1_555
As1 O4 1.837418 1_555
As1 O2 1.837418 1_555
