# generated using pymatgen
data_Rb2LiLuSb2
_symmetry_space_group_name_H-M   'P 1'
_cell_length_a   11.05072759
_cell_length_b   11.05072728
_cell_length_c   7.15582925
_cell_angle_alpha   90.00000000
_cell_angle_beta   90.00000000
_cell_angle_gamma   99.43459907
_symmetry_Int_Tables_number   1
_chemical_formula_structural   Rb2LiLuSb2
_chemical_formula_sum   'Rb8 Li4 Lu4 Sb8'
_cell_volume   862.03929358
_cell_formula_units_Z   4
loop_
 _symmetry_equiv_pos_site_id
 _symmetry_equiv_pos_as_xyz
  1  'x, y, z'
loop_
 _atom_site_type_symbol
 _atom_site_label
 _atom_site_symmetry_multiplicity
 _atom_site_fract_x
 _atom_site_fract_y
 _atom_site_fract_z
 _atom_site_occupancy
  Rb  Rb0  1  0.57091244  0.92908756  0.75000000  1
  Rb  Rb1  1  0.92908756  0.57091244  0.25000000  1
  Rb  Rb2  1  0.42908756  0.07091244  0.25000000  1
  Rb  Rb3  1  0.07091244  0.42908756  0.75000000  1
  Rb  Rb4  1  0.67596876  0.32403124  0.78184235  1
  Rb  Rb5  1  0.82403124  0.17596876  0.28184235  1
  Rb  Rb6  1  0.32403124  0.67596876  0.21815765  1
  Rb  Rb7  1  0.17596876  0.82403124  0.71815765  1
  Li  Li0  1  0.62040727  0.62040727  0.00000000  1
  Li  Li1  1  0.87959273  0.87959273  0.50000000  1
  Li  Li2  1  0.37959273  0.37959273  0.00000000  1
  Li  Li3  1  0.12040727  0.12040727  0.50000000  1
  Lu  Lu0  1  0.87042422  0.87042422  0.00000000  1
  Lu  Lu1  1  0.62957578  0.62957578  0.50000000  1
  Lu  Lu2  1  0.12957578  0.12957578  0.00000000  1
  Lu  Lu3  1  0.37042422  0.37042422  0.50000000  1
  Sb  Sb0  1  0.34396969  0.15603031  0.75000000  1
  Sb  Sb1  1  0.15603031  0.34396969  0.25000000  1
  Sb  Sb2  1  0.65603031  0.84396969  0.25000000  1
  Sb  Sb3  1  0.84396969  0.65603031  0.75000000  1
  Sb  Sb4  1  0.90592366  0.09407634  0.76516654  1
  Sb  Sb5  1  0.59407634  0.40592366  0.26516654  1
  Sb  Sb6  1  0.09407634  0.90592366  0.23483346  1
  Sb  Sb7  1  0.40592366  0.59407634  0.73483346  1
loop_
_geom_bond_atom_site_label_1
_geom_bond_atom_site_label_2
_geom_bond_distance
_geom_bond_site_symmetry_2
Rb0 Sb0 3.826344 1_565
Rb0 Sb7 3.850815 1_555
Rb0 Sb4 3.850815 1_565
Rb0 Sb2 3.855003 1_555
Rb0 Sb2 3.855003 1_556
Rb1 Sb1 3.826344 1_655
Rb1 Sb6 3.850815 1_655
Rb1 Sb5 3.850815 1_555
Rb1 Sb3 3.855003 1_555
Rb1 Sb3 3.855003 1_554
Rb2 Sb2 3.826344 1_545
Rb2 Sb5 3.850815 1_555
Rb2 Sb6 3.850815 1_545
Rb2 Sb0 3.855003 1_555
Rb2 Sb0 3.855003 1_554
Rb3 Sb3 3.826344 1_455
Rb3 Sb4 3.850815 1_455
Rb3 Sb7 3.850815 1_555
Rb3 Sb1 3.855003 1_556
Rb3 Sb1 3.855003 1_555
Rb4 Sb5 3.724010 1_556
Rb4 Sb3 3.837436 1_555
Rb4 Sb0 3.837436 1_555
Rb4 Sb4 3.878966 1_555
Rb4 Sb5 3.946651 1_555
Rb5 Sb4 3.724010 1_555
Rb5 Sb2 3.837436 1_545
Rb5 Sb1 3.837436 1_655
Rb5 Sb5 3.878966 1_555
Rb5 Sb4 3.946651 1_554
Rb6 Sb7 3.724010 1_554
Rb6 Sb1 3.837436 1_555
Rb6 Sb2 3.837436 1_555
Rb6 Sb6 3.878966 1_555
Rb6 Sb7 3.946651 1_555
Rb7 Sb6 3.724010 1_555
Rb7 Sb0 3.837436 1_565
Rb7 Sb3 3.837436 1_455
Rb7 Sb7 3.878966 1_555
Rb7 Sb6 3.946651 1_556
Li0 Sb5 3.012784 1_555
Li0 Sb7 3.012784 1_554
Li0 Sb2 3.023243 1_555
Li0 Sb3 3.023243 1_554
Li1 Sb4 3.012784 1_565
Li1 Sb6 3.012784 1_655
Li1 Sb3 3.023243 1_555
Li1 Sb2 3.023243 1_555
Li2 Sb7 3.012784 1_554
Li2 Sb5 3.012784 1_555
Li2 Sb0 3.023243 1_554
Li2 Sb1 3.023243 1_555
Li3 Sb6 3.012784 1_545
Li3 Sb4 3.012784 1_455
Li3 Sb1 3.023243 1_555
Li3 Sb0 3.023243 1_555
Lu0 Sb3 2.944811 1_554
Lu0 Sb2 2.944811 1_555
Lu0 Sb4 2.961127 1_564
Lu0 Sb6 2.961127 1_655
Lu1 Sb2 2.944811 1_555
Lu1 Sb3 2.944811 1_555
Lu1 Sb5 2.961127 1_555
Lu1 Sb7 2.961127 1_555
Lu2 Sb1 2.944811 1_555
Lu2 Sb0 2.944811 1_554
Lu2 Sb6 2.961127 1_545
Lu2 Sb4 2.961127 1_454
Lu3 Sb0 2.944811 1_555
Lu3 Sb1 2.944811 1_555
Lu3 Sb7 2.961127 1_555
Lu3 Sb5 2.961127 1_555
