# generated using pymatgen
data_Zr2Mn3Re
_symmetry_space_group_name_H-M   'P 1'
_cell_length_a   5.05753032
_cell_length_b   5.05752943
_cell_length_c   5.05752958
_cell_angle_alpha   61.62170843
_cell_angle_beta   61.62171232
_cell_angle_gamma   61.62169365
_symmetry_Int_Tables_number   1
_chemical_formula_structural   Zr2Mn3Re
_chemical_formula_sum   'Zr2 Mn3 Re1'
_cell_volume   94.80167198
_cell_formula_units_Z   1
loop_
 _symmetry_equiv_pos_site_id
 _symmetry_equiv_pos_as_xyz
  1  'x, y, z'
loop_
 _atom_site_type_symbol
 _atom_site_label
 _atom_site_symmetry_multiplicity
 _atom_site_fract_x
 _atom_site_fract_y
 _atom_site_fract_z
 _atom_site_occupancy
  Zr  Zr0  1  0.62534080  0.62534080  0.62534080  1
  Zr  Zr1  1  0.37465920  0.37465920  0.37465920  1
  Mn  Mn0  1  0.00000000  0.50000000  0.00000000  1
  Mn  Mn1  1  0.50000000  0.00000000  0.00000000  1
  Mn  Mn2  1  0.00000000  0.00000000  0.50000000  1
  Re  Re0  1  0.00000000  0.00000000  0.00000000  1
loop_
_geom_bond_atom_site_label_1
_geom_bond_atom_site_label_2
_geom_bond_distance
_geom_bond_site_symmetry_2
Zr0 Zr1 3.066928 1_555
Zr0 Zr1 3.157539 1_565
Zr0 Zr1 3.157540 1_655
Zr0 Zr1 3.157540 1_556
Mn0 Re0 2.528765 1_555
Mn0 Re0 2.528765 1_565
Mn0 Mn1 2.590494 1_555
Mn0 Mn1 2.590494 1_465
Mn0 Mn2 2.590495 1_555
Mn0 Mn2 2.590495 1_564
Mn0 Zr1 2.951636 1_555
Mn0 Zr0 2.951636 1_454
Mn0 Zr0 3.010345 1_455
Mn0 Zr1 3.010345 1_554
Mn0 Zr0 3.010345 1_554
Mn0 Zr1 3.010345 1_455
Mn1 Re0 2.528765 1_655
Mn1 Re0 2.528765 1_555
Mn1 Mn2 2.590495 1_654
Mn1 Mn2 2.590495 1_555
Mn1 Zr1 2.951636 1_555
Mn1 Zr0 2.951636 1_544
Mn1 Zr0 3.010345 1_545
Mn1 Zr1 3.010345 1_554
Mn1 Zr0 3.010345 1_554
Mn1 Zr1 3.010345 1_545
Mn2 Re0 2.528765 1_556
Mn2 Re0 2.528765 1_555
Mn2 Zr1 2.951637 1_555
Mn2 Zr0 2.951637 1_445
Mn2 Zr0 3.010344 1_455
Mn2 Zr1 3.010344 1_545
Mn2 Zr0 3.010345 1_545
Mn2 Zr1 3.010345 1_455
Re0 Zr1 3.033674 1_545
Re0 Zr0 3.033674 1_454
Re0 Zr0 3.033674 1_544
Re0 Zr1 3.033674 1_455
Re0 Zr1 3.033675 1_554
Re0 Zr0 3.033675 1_445
