# generated using pymatgen
data_Rb4P4PdPt
_symmetry_space_group_name_H-M   'P 1'
_cell_length_a   7.94657590
_cell_length_b   7.94657576
_cell_length_c   6.09632509
_cell_angle_alpha   89.64043042
_cell_angle_beta   90.35956866
_cell_angle_gamma   131.13917605
_symmetry_Int_Tables_number   1
_chemical_formula_structural   Rb4P4PdPt
_chemical_formula_sum   'Rb4 P4 Pd1 Pt1'
_cell_volume   289.92017139
_cell_formula_units_Z   1
loop_
 _symmetry_equiv_pos_site_id
 _symmetry_equiv_pos_as_xyz
  1  'x, y, z'
loop_
 _atom_site_type_symbol
 _atom_site_label
 _atom_site_symmetry_multiplicity
 _atom_site_fract_x
 _atom_site_fract_y
 _atom_site_fract_z
 _atom_site_occupancy
  Rb  Rb0  1  0.78839661  0.21160339  0.25048318  1
  Rb  Rb1  1  0.21160339  0.78839661  0.74951682  1
  Rb  Rb2  1  0.42092741  0.57907259  0.24717107  1
  Rb  Rb3  1  0.57907259  0.42092741  0.75282893  1
  P  P0  1  0.94027618  0.73038522  0.24971494  1
  P  P1  1  0.05972382  0.26961478  0.75028506  1
  P  P2  1  0.26961478  0.05972382  0.24971494  1
  P  P3  1  0.73038522  0.94027618  0.75028506  1
  Pd  Pd0  1  0.00000000  0.00000000  0.50000000  1
  Pt  Pt0  1  0.00000000  0.00000000  0.00000000  1
loop_
_geom_bond_atom_site_label_1
_geom_bond_atom_site_label_2
_geom_bond_distance
_geom_bond_site_symmetry_2
P0 P2 2.164813 1_665
P0 Pt0 2.400695 1_665
P0 Pd0 2.416142 1_665
P0 Rb0 3.450371 1_555
P0 Rb2 3.456661 1_555
P0 Rb1 3.573885 1_655
P0 Rb1 3.594035 1_654
P0 Rb3 3.762838 1_554
P0 Rb3 3.797615 1_555
P1 P3 2.164813 1_445
P1 Pt0 2.400695 1_556
P1 Pd0 2.416142 1_555
P1 Rb1 3.450371 1_555
P1 Rb3 3.456661 1_555
P1 Rb0 3.573885 1_455
P1 Rb0 3.594035 1_456
P1 Rb2 3.762838 1_556
P1 Rb2 3.797615 1_555
P2 Pt0 2.400695 1_555
P2 Pd0 2.416142 1_555
P2 Rb0 3.450371 1_555
P2 Rb2 3.456661 1_555
P2 Rb1 3.573885 1_545
P2 Rb1 3.594035 1_544
P2 Rb3 3.762838 1_554
P2 Rb3 3.797615 1_555
P3 Pt0 2.400695 1_666
P3 Pd0 2.416142 1_665
P3 Rb1 3.450371 1_555
P3 Rb3 3.456661 1_555
P3 Rb0 3.573885 1_565
P3 Rb0 3.594035 1_566
P3 Rb2 3.762838 1_556
P3 Rb2 3.797615 1_555
Pd0 Pt0 3.048163 1_555
Pd0 Pt0 3.048163 1_556
Pd0 Rb1 3.409556 1_545
Pd0 Rb0 3.409556 1_455
Pd0 Rb3 3.802938 1_445
Pd0 Rb2 3.802938 1_555
Pd0 Rb3 3.802938 1_555
Pd0 Rb2 3.802938 1_445
Pt0 Rb0 3.430991 1_455
Pt0 Rb1 3.430991 1_544
Pt0 Rb2 3.795428 1_445
Pt0 Rb3 3.795428 1_554
Pt0 Rb2 3.795428 1_555
Pt0 Rb3 3.795428 1_444
