# generated using pymatgen
data_Cs2KVO4
_symmetry_space_group_name_H-M   'P 1'
_cell_length_a   6.38305126
_cell_length_b   6.59550051
_cell_length_c   8.30279979
_cell_angle_alpha   87.95967661
_cell_angle_beta   90.00000000
_cell_angle_gamma   90.00000000
_symmetry_Int_Tables_number   1
_chemical_formula_structural   Cs2KVO4
_chemical_formula_sum   'Cs4 K2 V2 O8'
_cell_volume   349.32143386
_cell_formula_units_Z   2
loop_
 _symmetry_equiv_pos_site_id
 _symmetry_equiv_pos_as_xyz
  1  'x, y, z'
loop_
 _atom_site_type_symbol
 _atom_site_label
 _atom_site_symmetry_multiplicity
 _atom_site_fract_x
 _atom_site_fract_y
 _atom_site_fract_z
 _atom_site_occupancy
  Cs  Cs0  1  0.25000000  0.09902129  0.82436489  1
  Cs  Cs1  1  0.75000000  0.90097871  0.17563511  1
  Cs  Cs2  1  0.25000000  0.68662508  0.50889366  1
  Cs  Cs3  1  0.75000000  0.31337492  0.49110634  1
  K  K0  1  0.75000000  0.38523839  0.96313017  1
  K  K1  1  0.25000000  0.61476161  0.03686983  1
  V  V0  1  0.25000000  0.18840922  0.26511746  1
  V  V1  1  0.75000000  0.81159078  0.73488254  1
  O  O0  1  0.96909225  0.68738704  0.81179009  1
  O  O1  1  0.46909225  0.31261296  0.18820991  1
  O  O2  1  0.03090775  0.31261296  0.18820991  1
  O  O3  1  0.53090775  0.68738704  0.81179009  1
  O  O4  1  0.75000000  0.05894257  0.79747230  1
  O  O5  1  0.75000000  0.80607538  0.52838491  1
  O  O6  1  0.25000000  0.94105743  0.20252770  1
  O  O7  1  0.25000000  0.19392462  0.47161509  1
loop_
_geom_bond_atom_site_label_1
_geom_bond_atom_site_label_2
_geom_bond_distance
_geom_bond_site_symmetry_2
Cs0 O7 2.973078 1_555
Cs0 O4 3.210883 1_555
Cs0 O4 3.210883 1_455
Cs0 O3 3.258370 1_545
Cs0 O0 3.258370 1_445
Cs0 O6 3.272756 1_546
Cs1 O5 2.973078 1_555
Cs1 O6 3.210883 1_655
Cs1 O6 3.210883 1_555
Cs1 O2 3.258370 1_665
Cs1 O1 3.258370 1_565
Cs1 O4 3.272756 1_564
Cs2 O6 2.997080 1_555
Cs2 O3 3.088788 1_555
Cs2 O0 3.088788 1_455
Cs2 O7 3.275265 1_555
Cs2 O5 3.292687 1_455
Cs2 O5 3.292687 1_555
Cs2 O7 3.349189 1_565
Cs3 O4 2.997080 1_555
Cs3 O2 3.088788 1_655
Cs3 O1 3.088788 1_555
Cs3 O5 3.275265 1_555
Cs3 O7 3.292687 1_555
Cs3 O7 3.292687 1_655
Cs3 O5 3.349189 1_545
K0 O4 2.595001 1_555
K0 O2 2.621661 1_656
K0 O1 2.621661 1_556
K0 O0 2.706969 1_555
K0 O3 2.706969 1_555
K1 O6 2.595001 1_555
K1 O3 2.621661 1_554
K1 O0 2.621661 1_454
K1 O1 2.706969 1_555
K1 O2 2.706969 1_555
O0 V1 1.731271 1_555
O1 V0 1.731271 1_555
O2 V0 1.731271 1_555
O3 V1 1.731271 1_555
O4 V1 1.729717 1_545
O5 V1 1.716189 1_555
O6 V0 1.729717 1_565
O7 V0 1.716189 1_555
