# generated using pymatgen
data_Sc13Ga3(Pt2O)4
_symmetry_space_group_name_H-M   'P 1'
_cell_length_a   8.51577245
_cell_length_b   8.51577175
_cell_length_c   8.51577303
_cell_angle_alpha   60.47657982
_cell_angle_beta   60.47658239
_cell_angle_gamma   60.47657900
_symmetry_Int_Tables_number   1
_chemical_formula_structural   Sc13Ga3(Pt2O)4
_chemical_formula_sum   'Sc13 Ga3 Pt8 O4'
_cell_volume   441.37779103
_cell_formula_units_Z   1
loop_
 _symmetry_equiv_pos_site_id
 _symmetry_equiv_pos_as_xyz
  1  'x, y, z'
loop_
 _atom_site_type_symbol
 _atom_site_label
 _atom_site_symmetry_multiplicity
 _atom_site_fract_x
 _atom_site_fract_y
 _atom_site_fract_z
 _atom_site_occupancy
  Sc  Sc0  1  0.62500000  0.62500000  0.62500000  1
  Sc  Sc1  1  0.81175796  0.81175796  0.18317520  1
  Sc  Sc2  1  0.18683914  0.18683914  0.81057648  1
  Sc  Sc3  1  0.81175796  0.18317520  0.81175796  1
  Sc  Sc4  1  0.18683914  0.81057648  0.18683914  1
  Sc  Sc5  1  0.18317520  0.81175796  0.81175796  1
  Sc  Sc6  1  0.81057648  0.18683914  0.18683914  1
  Sc  Sc7  1  0.43824204  0.43824204  0.06682480  1
  Sc  Sc8  1  0.06316086  0.06316086  0.43942352  1
  Sc  Sc9  1  0.43824204  0.06682480  0.43824204  1
  Sc  Sc10  1  0.06316086  0.43942352  0.06316086  1
  Sc  Sc11  1  0.06682480  0.43824204  0.43824204  1
  Sc  Sc12  1  0.43942352  0.06316086  0.06316086  1
  Ga  Ga0  1  0.12500000  0.62500000  0.62500000  1
  Ga  Ga1  1  0.62500000  0.12500000  0.62500000  1
  Ga  Ga2  1  0.62500000  0.62500000  0.12500000  1
  Pt  Pt0  1  0.76689681  0.40905795  0.40905795  1
  Pt  Pt1  1  0.40905795  0.76689681  0.40905795  1
  Pt  Pt2  1  0.40905795  0.40905795  0.76689681  1
  Pt  Pt3  1  0.41429022  0.41429022  0.41429022  1
  Pt  Pt4  1  0.48310319  0.84094205  0.84094205  1
  Pt  Pt5  1  0.84094205  0.48310319  0.84094205  1
  Pt  Pt6  1  0.84094205  0.84094205  0.48310319  1
  Pt  Pt7  1  0.83570978  0.83570978  0.83570978  1
  O  O0  1  0.62500000  0.12500000  0.12500000  1
  O  O1  1  0.12500000  0.62500000  0.12500000  1
  O  O2  1  0.12500000  0.12500000  0.62500000  1
  O  O3  1  0.12500000  0.12500000  0.12500000  1
loop_
_geom_bond_atom_site_label_1
_geom_bond_atom_site_label_2
_geom_bond_distance
_geom_bond_site_symmetry_2
Ga0 Pt7 2.639773 1_455
Ga0 Pt3 2.639773 1_555
Ga0 Pt2 2.645737 1_555
Ga0 Pt6 2.645737 1_455
Ga0 Pt1 2.645737 1_555
Ga0 Pt5 2.645737 1_455
Ga0 Sc5 3.057765 1_555
Ga0 Sc11 3.057765 1_555
Ga0 Sc8 3.125596 1_565
Ga0 Sc2 3.125596 1_555
Ga0 Sc10 3.125597 1_556
Ga0 Sc4 3.125597 1_555
Ga1 Pt7 2.639773 1_545
Ga1 Pt3 2.639773 1_555
Ga1 Pt0 2.645737 1_555
Ga1 Pt4 2.645737 1_545
Ga1 Pt2 2.645737 1_555
Ga1 Pt6 2.645737 1_545
Ga1 Sc3 3.057765 1_555
Ga1 Sc9 3.057765 1_555
Ga1 Sc8 3.125596 1_655
Ga1 Sc2 3.125596 1_555
Ga1 Sc12 3.125597 1_556
Ga1 Sc6 3.125597 1_555
Ga2 Pt7 2.639773 1_554
Ga2 Pt3 2.639773 1_555
Ga2 Pt0 2.645737 1_555
Ga2 Pt4 2.645737 1_554
Ga2 Pt1 2.645737 1_555
Ga2 Pt5 2.645737 1_554
Ga2 Sc1 3.057765 1_555
Ga2 Sc7 3.057765 1_555
Ga2 Sc12 3.125596 1_565
Ga2 Sc6 3.125596 1_555
Ga2 Sc10 3.125596 1_655
Ga2 Sc4 3.125596 1_555
Pt0 Sc0 2.678833 1_555
Pt0 Sc8 2.770663 1_655
Pt0 Sc10 2.770663 1_655
Pt0 Sc11 2.821190 1_655
Pt0 Sc6 3.072835 1_555
Pt0 Sc1 3.109961 1_555
Pt0 Sc3 3.109962 1_555
Pt1 Sc0 2.678833 1_555
Pt1 Sc8 2.770663 1_565
Pt1 Sc12 2.770663 1_565
Pt1 Sc9 2.821190 1_565
Pt1 Sc4 3.072835 1_555
Pt1 Sc1 3.109962 1_555
Pt1 Sc5 3.109962 1_555
Pt2 Sc0 2.678833 1_555
Pt2 Sc12 2.770663 1_556
Pt2 Sc10 2.770663 1_556
Pt2 Sc7 2.821190 1_556
Pt2 Sc2 3.072835 1_555
Pt2 Sc5 3.109961 1_555
Pt2 Sc3 3.109961 1_555
Pt3 Sc9 2.773064 1_555
Pt3 Sc11 2.773064 1_555
Pt3 Sc7 2.773065 1_555
Pt3 Sc4 3.115301 1_555
Pt3 Sc6 3.115302 1_555
Pt3 Sc2 3.115302 1_555
Pt4 Sc0 2.678833 1_555
Pt4 Sc2 2.770663 1_565
Pt4 Sc4 2.770663 1_556
Pt4 Sc5 2.821190 1_555
Pt4 Sc12 3.072835 1_566
Pt4 Sc7 3.109961 1_556
Pt4 Sc9 3.109962 1_565
Pt5 Sc0 2.678833 1_555
Pt5 Sc2 2.770663 1_655
Pt5 Sc6 2.770663 1_556
Pt5 Sc3 2.821190 1_555
Pt5 Sc10 3.072835 1_656
Pt5 Sc7 3.109962 1_556
Pt5 Sc11 3.109962 1_655
Pt6 Sc0 2.678833 1_555
Pt6 Sc6 2.770663 1_565
Pt6 Sc4 2.770663 1_655
Pt6 Sc1 2.821190 1_555
Pt6 Sc8 3.072835 1_665
Pt6 Sc11 3.109961 1_655
Pt6 Sc9 3.109961 1_565
Pt7 Sc3 2.773064 1_565
Pt7 Sc5 2.773064 1_655
Pt7 Sc1 2.773065 1_556
Pt7 Sc10 3.115301 1_656
Pt7 Sc12 3.115302 1_566
Pt7 Sc8 3.115302 1_665
O0 Sc6 2.228400 1_555
O0 Sc12 2.228400 1_555
O0 Sc7 2.276689 1_555
O0 Sc1 2.276689 1_545
O0 Sc9 2.276690 1_555
O0 Sc3 2.276690 1_554
O1 Sc4 2.228400 1_555
O1 Sc10 2.228400 1_555
O1 Sc7 2.276689 1_555
O1 Sc1 2.276689 1_455
O1 Sc11 2.276690 1_555
O1 Sc5 2.276690 1_554
O2 Sc2 2.228400 1_555
O2 Sc8 2.228400 1_555
O2 Sc11 2.276689 1_555
O2 Sc5 2.276689 1_545
O2 Sc9 2.276690 1_555
O2 Sc3 2.276690 1_455
O3 Sc10 2.284282 1_555
O3 Sc4 2.284282 1_545
O3 Sc12 2.284282 1_555
O3 Sc6 2.284282 1_455
O3 Sc8 2.284282 1_555
O3 Sc2 2.284282 1_554
