# generated using pymatgen
data_Ti6Si6Tc5Rh
_symmetry_space_group_name_H-M   'P 1'
_cell_length_a   7.49443770
_cell_length_b   7.49441788
_cell_length_c   7.49441722
_cell_angle_alpha   126.39021593
_cell_angle_beta   129.06485755
_cell_angle_gamma   77.08635577
_symmetry_Int_Tables_number   1
_chemical_formula_structural   Ti6Si6Tc5Rh
_chemical_formula_sum   'Ti6 Si6 Tc5 Rh1'
_cell_volume   255.36377402
_cell_formula_units_Z   1
loop_
 _symmetry_equiv_pos_site_id
 _symmetry_equiv_pos_as_xyz
  1  'x, y, z'
loop_
 _atom_site_type_symbol
 _atom_site_label
 _atom_site_symmetry_multiplicity
 _atom_site_fract_x
 _atom_site_fract_y
 _atom_site_fract_z
 _atom_site_occupancy
  Ti  Ti0  1  0.45228917  0.40563870  0.44724178  1
  Ti  Ti1  1  0.54771083  0.99495260  0.95334953  1
  Ti  Ti2  1  0.04143051  0.99495700  0.44733782  1
  Ti  Ti3  1  0.95856949  0.40590631  0.95352650  1
  Ti  Ti4  1  0.24575091  0.61073321  0.85663761  1
  Ti  Ti5  1  0.75424909  0.61088770  0.36498231  1
  Si  Si0  1  0.16568269  0.66654446  0.50117180  1
  Si  Si1  1  0.83431731  0.33548911  0.50086277  1
  Si  Si2  1  0.66361139  0.66263510  0.99874790  1
  Si  Si3  1  0.33638861  0.33513651  0.99902471  1
  Si  Si4  1  0.24943971  0.00739573  0.25693381  1
  Si  Si5  1  0.75056029  0.00749409  0.75795701  1
  Tc  Tc0  1  0.37059731  0.74457274  0.37405302  1
  Tc  Tc1  1  0.62940269  0.00345571  0.37397544  1
  Tc  Tc2  1  0.87001511  0.74310136  0.87300165  1
  Tc  Tc3  1  0.12998489  0.00298553  0.87308624  1
  Tc  Tc4  1  0.00000000  0.26471081  0.26471081  1
  Rh  Rh0  1  0.50000000  0.26340232  0.76340232  1
loop_
_geom_bond_atom_site_label_1
_geom_bond_atom_site_label_2
_geom_bond_distance
_geom_bond_site_symmetry_2
Si0 Tc4 2.513350 1_555
Si0 Tc3 2.549000 1_565
Si0 Tc0 2.552346 1_555
Si0 Ti1 2.600560 1_555
Si0 Ti2 2.601546 1_555
Si0 Ti5 2.612757 1_455
Si0 Ti4 2.612873 1_555
Si0 Ti0 2.622907 1_555
Si0 Ti3 2.623520 1_454
Si1 Tc4 2.513357 1_655
Si1 Tc2 2.549000 1_555
Si1 Tc1 2.552341 1_555
Si1 Ti0 2.600557 1_555
Si1 Ti3 2.601542 1_555
Si1 Ti4 2.612760 1_655
Si1 Ti5 2.612886 1_555
Si1 Ti1 2.622911 1_544
Si1 Ti2 2.623520 1_645
Si2 Tc2 2.563839 1_555
Si2 Tc1 2.567296 1_566
Si2 Ti1 2.595960 1_555
Si2 Ti2 2.596466 1_656
Si2 Ti5 2.634509 1_556
Si2 Ti4 2.634730 1_555
Si2 Ti0 2.639758 1_555
Si2 Ti3 2.640604 1_555
Si3 Tc3 2.563841 1_555
Si3 Tc0 2.567294 1_556
Si3 Ti0 2.595953 1_556
Si3 Ti3 2.596463 1_455
Si3 Ti4 2.634520 1_555
Si3 Ti5 2.634734 1_556
Si3 Ti1 2.639757 1_545
Si3 Ti2 2.640604 1_545
Si4 Tc4 2.368453 1_555
Si4 Tc0 2.392102 1_545
Si4 Tc1 2.392504 1_555
Si4 Tc2 2.393900 1_444
Si4 Tc3 2.394254 1_554
Si4 Ti4 2.681067 1_544
Si4 Ti0 2.738136 1_555
Si4 Ti2 2.738924 1_545
Si5 Tc4 2.368448 1_656
Si5 Tc1 2.392109 1_555
Si5 Tc0 2.392503 1_545
Si5 Tc3 2.393902 1_655
Si5 Tc2 2.394255 1_545
Si5 Ti5 2.681067 1_545
Si5 Ti1 2.738129 1_545
Si5 Ti3 2.738921 1_555
Tc0 Ti3 2.766836 1_454
Tc0 Ti0 2.768161 1_555
Tc0 Ti4 2.854752 1_554
Tc0 Ti5 2.855428 1_555
Tc0 Ti1 2.883568 1_555
Tc0 Ti2 2.885187 1_555
Tc1 Ti2 2.766832 1_645
Tc1 Ti1 2.768161 1_544
Tc1 Ti5 2.854746 1_545
Tc1 Ti4 2.855429 1_544
Tc1 Ti0 2.883569 1_555
Tc1 Ti3 2.885184 1_555
Tc2 Ti3 2.783152 1_555
Tc2 Ti0 2.784143 1_555
Tc2 Ti4 2.823284 1_655
Tc2 Ti5 2.823945 1_555
Tc2 Ti1 2.864721 1_555
Tc2 Ti2 2.866066 1_656
Tc3 Ti2 2.783149 1_545
Tc3 Ti1 2.784143 1_545
Tc3 Ti5 2.823277 1_445
Tc3 Ti4 2.823935 1_545
Tc3 Ti0 2.864724 1_556
Tc3 Ti3 2.866066 1_455
Tc4 Ti4 2.825429 1_555
Tc4 Ti5 2.825434 1_455
Tc4 Ti0 2.918562 1_555
Tc4 Ti1 2.918562 1_444
Tc4 Ti3 2.919544 1_454
Tc4 Ti2 2.919550 1_545
Rh0 Si5 2.366457 1_555
Rh0 Si4 2.366457 1_555
Rh0 Si2 2.493736 1_555
Rh0 Si3 2.493743 1_555
Rh0 Ti4 2.863185 1_555
Rh0 Ti5 2.863186 1_556
Rh0 Ti0 2.938908 1_555
Rh0 Ti1 2.938908 1_545
Rh0 Ti3 2.940196 1_555
Rh0 Ti2 2.940199 1_545
