# generated using pymatgen
data_Rb8SnBi4
_symmetry_space_group_name_H-M   'P 1'
_cell_length_a   12.25028249
_cell_length_b   12.25028257
_cell_length_c   12.25028220
_cell_angle_alpha   60.00000101
_cell_angle_beta   60.00000078
_cell_angle_gamma   59.99999772
_symmetry_Int_Tables_number   1
_chemical_formula_structural   Rb8SnBi4
_chemical_formula_sum   'Rb16 Sn2 Bi8'
_cell_volume   1299.93998885
_cell_formula_units_Z   2
loop_
 _symmetry_equiv_pos_site_id
 _symmetry_equiv_pos_as_xyz
  1  'x, y, z'
loop_
 _atom_site_type_symbol
 _atom_site_label
 _atom_site_symmetry_multiplicity
 _atom_site_fract_x
 _atom_site_fract_y
 _atom_site_fract_z
 _atom_site_occupancy
  Rb  Rb0  1  0.62500000  0.12500000  0.62500000  1
  Rb  Rb1  1  0.62500000  0.62500000  0.12500000  1
  Rb  Rb2  1  0.12500000  0.62500000  0.62500000  1
  Rb  Rb3  1  0.62500000  0.62500000  0.62500000  1
  Rb  Rb4  1  0.02267682  0.02267682  0.47732318  1
  Rb  Rb5  1  0.77267682  0.22732318  0.22732318  1
  Rb  Rb6  1  0.22732318  0.77267682  0.77267682  1
  Rb  Rb7  1  0.77267682  0.77267682  0.22732318  1
  Rb  Rb8  1  0.77267682  0.22732318  0.77267682  1
  Rb  Rb9  1  0.22732318  0.77267682  0.22732318  1
  Rb  Rb10  1  0.47732318  0.02267682  0.47732318  1
  Rb  Rb11  1  0.47732318  0.02267682  0.02267682  1
  Rb  Rb12  1  0.02267682  0.47732318  0.47732318  1
  Rb  Rb13  1  0.02267682  0.47732318  0.02267682  1
  Rb  Rb14  1  0.22732318  0.22732318  0.77267682  1
  Rb  Rb15  1  0.47732318  0.47732318  0.02267682  1
  Sn  Sn0  1  0.75000000  0.75000000  0.75000000  1
  Sn  Sn1  1  0.50000000  0.50000000  0.50000000  1
  Bi  Bi0  1  0.39896317  0.80310949  0.39896317  1
  Bi  Bi1  1  0.85103683  0.85103683  0.44689051  1
  Bi  Bi2  1  0.44689051  0.85103683  0.85103683  1
  Bi  Bi3  1  0.85103683  0.85103683  0.85103683  1
  Bi  Bi4  1  0.80310949  0.39896317  0.39896317  1
  Bi  Bi5  1  0.39896317  0.39896317  0.39896317  1
  Bi  Bi6  1  0.39896317  0.39896317  0.80310949  1
  Bi  Bi7  1  0.85103683  0.44689051  0.85103683  1
loop_
_geom_bond_atom_site_label_1
_geom_bond_atom_site_label_2
_geom_bond_distance
_geom_bond_site_symmetry_2
Rb0 Sn1 3.750868 1_555
Rb0 Sn0 3.750868 1_545
Rb0 Rb14 3.990601 1_555
Rb0 Rb4 3.990601 1_655
Rb0 Rb8 3.990601 1_555
Rb0 Rb10 3.990601 1_555
Rb0 Rb11 3.990601 1_556
Rb0 Rb5 3.990601 1_555
Rb1 Sn1 3.750868 1_555
Rb1 Sn0 3.750868 1_554
Rb1 Rb13 3.990601 1_655
Rb1 Rb9 3.990601 1_555
Rb1 Rb11 3.990601 1_565
Rb1 Rb5 3.990601 1_555
Rb1 Rb7 3.990601 1_555
Rb1 Rb15 3.990601 1_555
Rb2 Sn1 3.750868 1_555
Rb2 Sn0 3.750868 1_455
Rb2 Rb9 3.990601 1_555
Rb2 Rb6 3.990601 1_555
Rb2 Rb4 3.990601 1_565
Rb3 Sn0 3.750868 1_555
Rb3 Sn1 3.750868 1_555
Rb3 Rb6 3.990601 1_555
Rb3 Rb8 3.990601 1_555
Rb3 Rb7 3.990601 1_555
Rb4 Rb8 4.366619 1_455
Rb4 Rb5 4.366619 1_455
Rb4 Rb9 4.366619 1_545
Rb4 Rb6 4.366619 1_545
Rb10 Rb3 3.990601 1_545
Rb10 Rb7 4.366619 1_545
Rb10 Rb14 4.366619 1_555
Rb10 Rb5 4.366619 1_555
Rb10 Rb6 4.366619 1_545
Rb11 Rb7 4.366619 1_545
Rb11 Rb14 4.366619 1_554
Rb11 Rb8 4.366619 1_554
Rb11 Rb9 4.366619 1_545
Rb12 Rb3 3.990601 1_455
Rb12 Rb2 3.990601 1_555
Rb12 Rb7 4.366619 1_455
Rb12 Rb14 4.366619 1_555
Rb12 Rb8 4.366619 1_455
Rb12 Rb9 4.366619 1_555
Rb13 Rb2 3.990601 1_554
Rb13 Rb7 4.366619 1_455
Rb13 Rb14 4.366619 1_554
Rb13 Rb5 4.366619 1_455
Rb13 Rb6 4.366619 1_554
Rb14 Rb2 3.990601 1_555
Rb15 Rb3 3.990601 1_554
Rb15 Rb5 4.366619 1_555
Rb15 Rb8 4.366619 1_554
Rb15 Rb9 4.366619 1_555
Rb15 Rb6 4.366619 1_554
Bi0 Sn1 3.031796 1_555
Bi0 Rb9 3.869110 1_555
Bi0 Rb6 3.869121 1_555
Bi0 Rb7 3.869121 1_555
Bi0 Rb4 3.893987 1_565
Bi0 Rb11 3.893987 1_565
Bi0 Rb10 3.893996 1_565
Bi0 Rb1 3.959738 1_555
Bi0 Rb2 3.959738 1_555
Bi0 Rb3 3.959748 1_555
Bi1 Sn0 3.031796 1_555
Bi1 Rb4 3.869110 1_665
Bi1 Rb10 3.869121 1_565
Bi1 Rb12 3.869121 1_655
Bi1 Rb9 3.893987 1_655
Bi1 Rb5 3.893987 1_565
Bi1 Rb7 3.893996 1_555
Bi1 Rb2 3.959738 1_655
Bi1 Rb0 3.959738 1_565
Bi1 Rb3 3.959748 1_555
Bi2 Sn0 3.031796 1_555
Bi2 Rb11 3.869110 1_566
Bi2 Rb10 3.869121 1_565
Bi2 Rb15 3.869121 1_556
Bi2 Rb14 3.893987 1_565
Bi2 Rb9 3.893987 1_556
Bi2 Rb6 3.893996 1_555
Bi2 Rb1 3.959738 1_556
Bi2 Rb0 3.959738 1_565
Bi2 Rb3 3.959748 1_555
Bi3 Sn0 3.031806 1_555
Bi3 Rb11 3.869118 1_566
Bi3 Rb13 3.869118 1_656
Bi3 Rb4 3.869118 1_665
Bi3 Rb7 3.893985 1_556
Bi3 Rb6 3.893985 1_655
Bi3 Rb8 3.893985 1_565
Bi3 Rb2 3.959746 1_655
Bi3 Rb0 3.959746 1_565
Bi3 Rb1 3.959746 1_556
Bi4 Sn1 3.031796 1_555
Bi4 Rb5 3.869110 1_555
Bi4 Rb8 3.869121 1_555
Bi4 Rb7 3.869121 1_555
Bi4 Rb4 3.893987 1_655
Bi4 Rb13 3.893987 1_655
Bi4 Rb12 3.893996 1_655
Bi4 Rb1 3.959738 1_555
Bi4 Rb0 3.959738 1_555
Bi4 Rb3 3.959748 1_555
Bi5 Sn1 3.031806 1_555
Bi5 Rb5 3.869118 1_555
Bi5 Rb9 3.869118 1_555
Bi5 Rb14 3.869118 1_555
Bi5 Rb15 3.893985 1_555
Bi5 Rb12 3.893985 1_555
Bi5 Rb10 3.893985 1_555
Bi5 Rb2 3.959746 1_555
Bi5 Rb0 3.959746 1_555
Bi5 Rb1 3.959746 1_555
Bi6 Sn1 3.031796 1_555
Bi6 Rb14 3.869110 1_555
Bi6 Rb8 3.869121 1_555
Bi6 Rb6 3.869121 1_555
Bi6 Rb13 3.893987 1_556
Bi6 Rb11 3.893987 1_556
Bi6 Rb15 3.893996 1_556
Bi6 Rb2 3.959738 1_555
Bi6 Rb0 3.959738 1_555
Bi6 Rb3 3.959748 1_555
Bi7 Sn0 3.031796 1_555
Bi7 Rb13 3.869110 1_656
Bi7 Rb12 3.869121 1_655
Bi7 Rb15 3.869121 1_556
Bi7 Rb14 3.893987 1_655
Bi7 Rb5 3.893987 1_556
Bi7 Rb8 3.893996 1_555
Bi7 Rb1 3.959738 1_556
Bi7 Rb2 3.959738 1_655
Bi7 Rb3 3.959748 1_555
