# generated using pymatgen
data_NaSr3AgO6
_symmetry_space_group_name_H-M   'P 1'
_cell_length_a   6.78228459
_cell_length_b   6.78228455
_cell_length_c   6.78228499
_cell_angle_alpha   90.78828080
_cell_angle_beta   90.78828579
_cell_angle_gamma   90.78828363
_symmetry_Int_Tables_number   1
_chemical_formula_structural   NaSr3AgO6
_chemical_formula_sum   'Na2 Sr6 Ag2 O12'
_cell_volume   311.89153091
_cell_formula_units_Z   2
loop_
 _symmetry_equiv_pos_site_id
 _symmetry_equiv_pos_as_xyz
  1  'x, y, z'
loop_
 _atom_site_type_symbol
 _atom_site_label
 _atom_site_symmetry_multiplicity
 _atom_site_fract_x
 _atom_site_fract_y
 _atom_site_fract_z
 _atom_site_occupancy
  Na  Na0  1  0.25000000  0.25000000  0.25000000  1
  Na  Na1  1  0.75000000  0.75000000  0.75000000  1
  Sr  Sr0  1  0.75000000  0.38785751  0.11214249  1
  Sr  Sr1  1  0.11214249  0.75000000  0.38785751  1
  Sr  Sr2  1  0.38785751  0.11214249  0.75000000  1
  Sr  Sr3  1  0.25000000  0.61214249  0.88785751  1
  Sr  Sr4  1  0.88785751  0.25000000  0.61214249  1
  Sr  Sr5  1  0.61214249  0.88785751  0.25000000  1
  Ag  Ag0  1  0.00000000  0.00000000  0.00000000  1
  Ag  Ag1  1  0.50000000  0.50000000  0.50000000  1
  O  O0  1  0.44449749  0.78301689  0.57746388  1
  O  O1  1  0.57746388  0.44449749  0.78301689  1
  O  O2  1  0.78301689  0.57746388  0.44449749  1
  O  O3  1  0.05550251  0.92253612  0.71698311  1
  O  O4  1  0.71698311  0.05550251  0.92253612  1
  O  O5  1  0.92253612  0.71698311  0.05550251  1
  O  O6  1  0.55550251  0.21698311  0.42253612  1
  O  O7  1  0.42253612  0.55550251  0.21698311  1
  O  O8  1  0.21698311  0.42253612  0.55550251  1
  O  O9  1  0.94449749  0.07746388  0.28301689  1
  O  O10  1  0.07746388  0.28301689  0.94449749  1
  O  O11  1  0.28301689  0.94449749  0.07746388  1
loop_
_geom_bond_atom_site_label_1
_geom_bond_atom_site_label_2
_geom_bond_distance
_geom_bond_site_symmetry_2
Na0 O7 2.380326 1_555
Na0 O6 2.380326 1_555
Na0 O9 2.380326 1_455
Na0 O10 2.380326 1_554
Na0 O11 2.380326 1_545
Na0 O8 2.380327 1_555
Na1 O1 2.380326 1_555
Na1 O0 2.380326 1_555
Na1 O3 2.380326 1_655
Na1 O5 2.380326 1_556
Na1 O4 2.380326 1_565
Na1 O2 2.380327 1_555
Ag0 O10 2.024793 1_554
Ag0 O5 2.024793 1_445
Ag0 O4 2.024793 1_454
Ag0 O11 2.024793 1_545
Ag0 O9 2.024794 1_455
Ag0 O3 2.024794 1_544
Ag1 O2 2.024793 1_555
Ag1 O8 2.024793 1_555
Ag1 O0 2.024793 1_555
Ag1 O6 2.024793 1_555
Ag1 O1 2.024793 1_555
Ag1 O7 2.024793 1_555
O0 Sr2 2.542405 1_565
O0 Sr1 2.585220 1_555
O0 Sr5 2.611845 1_555
O0 Sr3 2.759795 1_555
O1 Sr0 2.542405 1_556
O1 Sr2 2.585220 1_555
O1 Sr3 2.611845 1_555
O1 Sr4 2.759795 1_555
O2 Sr1 2.542405 1_655
O2 Sr0 2.585220 1_555
O2 Sr4 2.611845 1_555
O2 Sr5 2.759795 1_555
O3 Sr1 2.542405 1_555
O3 Sr2 2.585220 1_565
O3 Sr4 2.611845 1_465
O3 Sr3 2.759795 1_555
O4 Sr2 2.542405 1_555
O4 Sr0 2.585220 1_556
O4 Sr5 2.611845 1_546
O4 Sr4 2.759795 1_555
O5 Sr0 2.542405 1_555
O5 Sr1 2.585220 1_655
O5 Sr3 2.611845 1_654
O5 Sr5 2.759795 1_555
O6 Sr5 2.542405 1_545
O6 Sr4 2.585220 1_555
O6 Sr2 2.611845 1_555
O6 Sr0 2.759795 1_555
O7 Sr3 2.542405 1_554
O7 Sr5 2.585220 1_555
O7 Sr0 2.611845 1_555
O7 Sr1 2.759795 1_555
O8 Sr4 2.542405 1_455
O8 Sr3 2.585220 1_555
O8 Sr1 2.611845 1_555
O8 Sr2 2.759795 1_555
O9 Sr4 2.542405 1_555
O9 Sr5 2.585220 1_545
O9 Sr1 2.611845 1_645
O9 Sr0 2.759795 1_555
O10 Sr3 2.542405 1_555
O10 Sr4 2.585220 1_455
O10 Sr0 2.611845 1_456
O10 Sr2 2.759795 1_555
O11 Sr5 2.542405 1_555
O11 Sr3 2.585220 1_554
O11 Sr2 2.611845 1_564
O11 Sr1 2.759795 1_555
