# generated using pymatgen
data_KRb3Al2Se5
_symmetry_space_group_name_H-M   'P 1'
_cell_length_a   8.25247259
_cell_length_b   8.48049725
_cell_length_c   10.96330474
_cell_angle_alpha   77.13192788
_cell_angle_beta   87.01178923
_cell_angle_gamma   81.82519112
_symmetry_Int_Tables_number   1
_chemical_formula_structural   KRb3Al2Se5
_chemical_formula_sum   'K2 Rb6 Al4 Se10'
_cell_volume   740.23106563
_cell_formula_units_Z   2
loop_
 _symmetry_equiv_pos_site_id
 _symmetry_equiv_pos_as_xyz
  1  'x, y, z'
loop_
 _atom_site_type_symbol
 _atom_site_label
 _atom_site_symmetry_multiplicity
 _atom_site_fract_x
 _atom_site_fract_y
 _atom_site_fract_z
 _atom_site_occupancy
  K  K0  1  0.44325498  0.33265027  0.08826514  1
  K  K1  1  0.55674502  0.66734973  0.91173486  1
  Rb  Rb0  1  0.16918276  0.09089069  0.87699396  1
  Rb  Rb1  1  0.05078603  0.60348709  0.76194716  1
  Rb  Rb2  1  0.83081724  0.90910931  0.12300604  1
  Rb  Rb3  1  0.94921397  0.39651291  0.23805284  1
  Rb  Rb4  1  0.55058495  0.71616606  0.51245917  1
  Rb  Rb5  1  0.44941505  0.28383394  0.48754083  1
  Al  Al0  1  0.89967374  0.08716497  0.59632752  1
  Al  Al1  1  0.10032626  0.91283503  0.40367248  1
  Al  Al2  1  0.29887004  0.73128846  0.20903078  1
  Al  Al3  1  0.70112996  0.26871154  0.79096922  1
  Se  Se0  1  0.85320442  0.36736246  0.59858651  1
  Se  Se1  1  0.18594036  0.97551663  0.59157889  1
  Se  Se2  1  0.42688051  0.38773052  0.77396135  1
  Se  Se3  1  0.17775630  0.68471036  0.03358916  1
  Se  Se4  1  0.82224370  0.31528964  0.96641084  1
  Se  Se5  1  0.57311949  0.61226948  0.22603865  1
  Se  Se6  1  0.14679558  0.63263754  0.40141349  1
  Se  Se7  1  0.25117761  0.02459034  0.22069298  1
  Se  Se8  1  0.74882239  0.97540966  0.77930702  1
  Se  Se9  1  0.81405964  0.02448337  0.40842111  1
loop_
_geom_bond_atom_site_label_1
_geom_bond_atom_site_label_2
_geom_bond_distance
_geom_bond_site_symmetry_2
K0 Se7 3.270155 1_555
K0 Se4 3.333054 1_554
K0 Se2 3.379899 1_554
K0 Se5 3.397056 1_555
K0 Se3 3.399028 1_555
K1 Se8 3.270155 1_555
K1 Se3 3.333054 1_556
K1 Se5 3.379899 1_556
K1 Se2 3.397056 1_555
K1 Se4 3.399028 1_555
Rb0 Se4 3.430545 1_455
Rb0 Se1 3.470987 1_545
Rb0 Se3 3.482393 1_546
Rb0 Se2 3.484403 1_555
Rb0 Se7 3.766481 1_556
Rb1 Se2 3.364299 1_555
Rb1 Se3 3.447570 1_556
Rb1 Se0 3.564615 1_455
Rb1 Se1 3.584056 1_555
Rb1 Se4 3.603499 1_455
Rb1 Se8 3.765234 1_455
Rb1 Se6 3.950468 1_555
Rb2 Se3 3.430545 1_655
Rb2 Se9 3.470987 1_565
Rb2 Se4 3.482393 1_564
Rb2 Se5 3.484403 1_555
Rb2 Se8 3.766481 1_554
Rb3 Se5 3.364299 1_555
Rb3 Se4 3.447570 1_554
Rb3 Se6 3.564615 1_655
Rb3 Se9 3.584056 1_555
Rb3 Se3 3.603499 1_655
Rb3 Se7 3.765234 1_655
Rb3 Se0 3.950468 1_555
Rb4 Se5 3.434545 1_555
Rb4 Se0 3.574808 1_555
Rb4 Se9 3.590969 1_565
Rb4 Se1 3.652486 1_555
Rb4 Se2 3.737121 1_555
Rb4 Se6 3.816574 1_555
Rb5 Se2 3.434545 1_555
Rb5 Se6 3.574808 1_555
Rb5 Se1 3.590969 1_545
Rb5 Se9 3.652486 1_555
Rb5 Se5 3.737121 1_555
Rb5 Se0 3.816574 1_555
Al0 Se0 2.357996 1_555
Al0 Se8 2.387589 1_545
Al0 Se9 2.402495 1_555
Al0 Se1 2.419336 1_645
Al1 Se6 2.357996 1_555
Al1 Se7 2.387589 1_565
Al1 Se1 2.402495 1_555
Al1 Se9 2.419336 1_465
Al2 Se5 2.342284 1_555
Al2 Se3 2.346416 1_555
Al2 Se6 2.441331 1_555
Al2 Se7 2.493219 1_565
Al3 Se2 2.342284 1_555
Al3 Se4 2.346416 1_555
Al3 Se0 2.441331 1_555
Al3 Se8 2.493219 1_545
