# generated using pymatgen
data_TaZnIrOs
_symmetry_space_group_name_H-M   'P 1'
_cell_length_a   4.38185894
_cell_length_b   4.38185936
_cell_length_c   4.38185991
_cell_angle_alpha   59.99999588
_cell_angle_beta   59.99999270
_cell_angle_gamma   60.00000258
_symmetry_Int_Tables_number   1
_chemical_formula_structural   TaZnIrOs
_chemical_formula_sum   'Ta1 Zn1 Ir1 Os1'
_cell_volume   59.49223571
_cell_formula_units_Z   1
loop_
 _symmetry_equiv_pos_site_id
 _symmetry_equiv_pos_as_xyz
  1  'x, y, z'
loop_
 _atom_site_type_symbol
 _atom_site_label
 _atom_site_symmetry_multiplicity
 _atom_site_fract_x
 _atom_site_fract_y
 _atom_site_fract_z
 _atom_site_occupancy
  Ta  Ta0  1  0.50000000  0.50000000  0.50000000  1
  Zn  Zn0  1  0.00000000  0.00000000  0.00000000  1
  Ir  Ir0  1  0.25000000  0.25000000  0.25000000  1
  Os  Os0  1  0.75000000  0.75000000  0.75000000  1
loop_
_geom_bond_atom_site_label_1
_geom_bond_atom_site_label_2
_geom_bond_distance
_geom_bond_site_symmetry_2
Ir0 Ta0 2.683330 1_455
Ir0 Zn0 2.683330 1_655
Ir0 Ta0 2.683330 1_545
Ir0 Zn0 2.683330 1_565
Ir0 Ta0 2.683330 1_555
Ir0 Ta0 2.683330 1_554
Ir0 Zn0 2.683330 1_555
Ir0 Zn0 2.683330 1_556
Os0 Ta0 2.683330 1_655
Os0 Zn0 2.683330 1_566
Os0 Zn0 2.683330 1_656
Os0 Ta0 2.683330 1_565
Os0 Ta0 2.683330 1_556
Os0 Ta0 2.683330 1_555
Os0 Zn0 2.683330 1_666
Os0 Zn0 2.683330 1_665
