# generated using pymatgen
data_Li4TaMo7N12
_symmetry_space_group_name_H-M   'P 1'
_cell_length_a   5.01488027
_cell_length_b   5.01487923
_cell_length_c   10.50280250
_cell_angle_alpha   90.00000000
_cell_angle_beta   90.00000000
_cell_angle_gamma   120.00000041
_symmetry_Int_Tables_number   1
_chemical_formula_structural   Li4TaMo7N12
_chemical_formula_sum   'Li4 Ta1 Mo7 N12'
_cell_volume   228.74777386
_cell_formula_units_Z   1
loop_
 _symmetry_equiv_pos_site_id
 _symmetry_equiv_pos_as_xyz
  1  'x, y, z'
loop_
 _atom_site_type_symbol
 _atom_site_label
 _atom_site_symmetry_multiplicity
 _atom_site_fract_x
 _atom_site_fract_y
 _atom_site_fract_z
 _atom_site_occupancy
  Li  Li0  1  0.33333300  0.66666700  0.00000000  1
  Li  Li1  1  0.33333300  0.66666700  0.50000000  1
  Li  Li2  1  0.66666700  0.33333300  0.50000000  1
  Li  Li3  1  0.66666700  0.33333300  0.00000000  1
  Ta  Ta0  1  0.00000000  0.00000000  0.00000000  1
  Mo  Mo0  1  1.00000000  0.33736129  0.24625479  1
  Mo  Mo1  1  0.66263871  1.00000000  0.75374521  1
  Mo  Mo2  1  0.33736129  0.33736129  0.75374521  1
  Mo  Mo3  1  0.00000000  0.00000000  0.50000000  1
  Mo  Mo4  1  0.66263871  0.66263871  0.24625479  1
  Mo  Mo5  1  0.33736129  0.00000000  0.24625479  1
  Mo  Mo6  1  0.00000000  0.66263871  0.75374521  1
  N  N0  1  0.67165119  0.67165119  0.63279604  1
  N  N1  1  0.67171715  0.67171715  0.87752768  1
  N  N2  1  0.32828285  0.32828285  0.12247232  1
  N  N3  1  0.32834881  0.32834881  0.36720396  1
  N  N4  1  0.32828285  0.00000000  0.87752768  1
  N  N5  1  0.32834881  0.00000000  0.63279604  1
  N  N6  1  0.00000000  0.67165119  0.36720396  1
  N  N7  1  0.00000000  0.67171715  0.12247232  1
  N  N8  1  0.67171715  1.00000000  0.12247232  1
  N  N9  1  0.67165119  1.00000000  0.36720396  1
  N  N10  1  1.00000000  0.32828285  0.87752768  1
  N  N11  1  1.00000000  0.32834881  0.63279604  1
loop_
_geom_bond_atom_site_label_1
_geom_bond_atom_site_label_2
_geom_bond_distance
_geom_bond_site_symmetry_2
Li0 N4 2.119406 1_564
Li0 N7 2.119406 1_555
Li0 N10 2.119408 1_454
Li0 N8 2.119408 1_555
Li0 N2 2.119410 1_555
Li0 N1 2.119410 1_554
Li1 N5 2.186781 1_565
Li1 N6 2.186781 1_555
Li1 N11 2.186783 1_455
Li1 N9 2.186783 1_555
Li1 N3 2.186785 1_555
Li1 N0 2.186785 1_555
Li2 N9 2.186781 1_545
Li2 N11 2.186781 1_555
Li2 N6 2.186783 1_655
Li2 N5 2.186783 1_555
Li2 N0 2.186785 1_555
Li2 N3 2.186785 1_555
Li3 N8 2.119406 1_545
Li3 N10 2.119406 1_554
Li3 N7 2.119408 1_655
Li3 N4 2.119408 1_554
Li3 N1 2.119410 1_554
Li3 N2 2.119410 1_555
Mo0 N9 2.097982 1_545
Mo0 N3 2.097982 1_655
Mo0 N6 2.103348 1_655
Mo0 N8 2.116008 1_545
Mo0 N2 2.116008 1_655
Mo0 N7 2.121714 1_655
Mo1 N0 2.097982 1_555
Mo1 N11 2.097982 1_565
Mo1 N5 2.103348 1_565
Mo1 N1 2.116007 1_555
Mo1 N10 2.116008 1_565
Mo1 N4 2.121714 1_565
Mo2 N5 2.097982 1_555
Mo2 N11 2.097982 1_455
Mo2 N0 2.103348 1_555
Mo2 N4 2.116007 1_555
Mo2 N10 2.116008 1_455
Mo2 N1 2.121714 1_555
Mo3 N11 2.157930 1_455
Mo3 N6 2.157930 1_545
Mo3 N3 2.157930 1_555
Mo3 N0 2.157930 1_445
Mo3 N5 2.157930 1_555
Mo3 N9 2.157930 1_445
Mo4 N9 2.097982 1_555
Mo4 N6 2.097982 1_655
Mo4 N3 2.103348 1_555
Mo4 N8 2.116007 1_555
Mo4 N7 2.116008 1_655
Mo4 N2 2.121714 1_555
Mo5 N3 2.097982 1_555
Mo5 N6 2.097982 1_545
Mo5 N9 2.103348 1_545
Mo5 N2 2.116007 1_555
Mo5 N7 2.116008 1_545
Mo5 N8 2.121714 1_545
Mo6 N5 2.097982 1_565
Mo6 N0 2.097982 1_455
Mo6 N11 2.103348 1_455
Mo6 N4 2.116008 1_565
Mo6 N1 2.116008 1_455
Mo6 N10 2.121714 1_455
N1 Ta0 2.089228 1_666
N2 Ta0 2.089228 1_555
N4 Ta0 2.089228 1_556
N7 Ta0 2.089228 1_565
N8 Ta0 2.089228 1_665
N10 Ta0 2.089228 1_656
