# generated using pymatgen
data_Nb6Co15Si7Ni
_symmetry_space_group_name_H-M   'P 1'
_cell_length_a   7.88633984
_cell_length_b   7.88680735
_cell_length_c   7.88633940
_cell_angle_alpha   60.00195856
_cell_angle_beta   59.99999771
_cell_angle_gamma   60.00195932
_symmetry_Int_Tables_number   1
_chemical_formula_structural   Nb6Co15Si7Ni
_chemical_formula_sum   'Nb6 Co15 Si7 Ni1'
_cell_volume   346.85665973
_cell_formula_units_Z   1
loop_
 _symmetry_equiv_pos_site_id
 _symmetry_equiv_pos_as_xyz
  1  'x, y, z'
loop_
 _atom_site_type_symbol
 _atom_site_label
 _atom_site_symmetry_multiplicity
 _atom_site_fract_x
 _atom_site_fract_y
 _atom_site_fract_z
 _atom_site_occupancy
  Nb  Nb0  1  0.79571429  0.79341162  0.20543704  1
  Nb  Nb1  1  0.79419388  0.20245925  0.79419388  1
  Nb  Nb2  1  0.20543704  0.79341162  0.20543704  1
  Nb  Nb3  1  0.79419388  0.20245925  0.20915300  1
  Nb  Nb4  1  0.20543704  0.79341162  0.79571429  1
  Nb  Nb5  1  0.20915300  0.20245925  0.79419388  1
  Co  Co0  1  0.17040660  0.17219600  0.48699180  1
  Co  Co1  1  0.48699180  0.17219600  0.17040660  1
  Co  Co2  1  0.17040660  0.17219600  0.17040660  1
  Co  Co3  1  0.49939746  0.83461498  0.83299328  1
  Co  Co4  1  0.83299328  0.83461498  0.83299328  1
  Co  Co5  1  0.83299328  0.83461498  0.49939746  1
  Co  Co6  1  0.17161737  0.48514790  0.17161737  1
  Co  Co7  1  0.61864258  0.14407226  0.61864258  1
  Co  Co8  1  0.38190913  0.38149892  0.85468283  1
  Co  Co9  1  0.85468283  0.38149892  0.38190913  1
  Co  Co10  1  0.38190913  0.38149892  0.38190913  1
  Co  Co11  1  0.14394012  0.61828757  0.61888615  1
  Co  Co12  1  0.61888615  0.61828757  0.61888615  1
  Co  Co13  1  0.61888615  0.61828757  0.14394012  1
  Co  Co14  1  0.38087910  0.85736269  0.38087910  1
  Si  Si0  1  0.49893799  0.50318502  0.49893799  1
  Si  Si1  1  0.50062314  0.99826472  0.50062314  1
  Si  Si2  1  0.99848345  0.50069855  0.99848345  1
  Si  Si3  1  0.00048901  0.99826472  0.50062314  1
  Si  Si4  1  0.50062314  0.99826472  0.00048901  1
  Si  Si5  1  0.99848345  0.50069855  0.50233455  1
  Si  Si6  1  0.50233455  0.50069855  0.99848345  1
  Ni  Ni0  1  0.83135354  0.50593737  0.83135354  1
loop_
_geom_bond_atom_site_label_1
_geom_bond_atom_site_label_2
_geom_bond_distance
_geom_bond_site_symmetry_2
Nb0 Si5 2.831374 1_555
Nb0 Si2 2.831374 1_554
Nb0 Si1 2.833557 1_555
Nb0 Si4 2.833557 1_555
Nb1 Ni0 2.718291 1_555
Nb1 Si3 2.818203 1_645
Nb1 Si4 2.818203 1_546
Nb1 Si6 2.844912 1_555
Nb1 Si5 2.844912 1_555
Nb2 Si5 2.831374 1_455
Nb2 Si6 2.831374 1_554
Nb2 Si3 2.833557 1_555
Nb2 Si4 2.833557 1_555
Nb3 Ni0 2.718300 1_554
Nb3 Si3 2.818203 1_645
Nb3 Si1 2.818203 1_545
Nb3 Si6 2.844912 1_554
Nb3 Si2 2.844912 1_554
Nb4 Si6 2.831374 1_555
Nb4 Si2 2.831375 1_455
Nb4 Si3 2.833557 1_555
Nb4 Si1 2.833557 1_555
Nb5 Ni0 2.718301 1_455
Nb5 Si1 2.818203 1_545
Nb5 Si4 2.818203 1_546
Nb5 Si5 2.844912 1_455
Nb5 Si2 2.844912 1_455
Co0 Si5 2.280841 1_455
Co0 Si1 2.288124 1_545
Co0 Si3 2.288131 1_545
Co0 Co6 2.477780 1_555
Co0 Co14 2.487644 1_545
Co0 Co10 2.489353 1_555
Co0 Co9 2.489360 1_455
Co0 Co1 2.496698 1_555
Co0 Co2 2.496698 1_555
Co0 Nb5 2.722362 1_555
Co0 Nb1 2.722367 1_455
Co0 Nb4 2.739158 1_545
Co1 Si6 2.280841 1_554
Co1 Si1 2.288124 1_545
Co1 Si4 2.288131 1_545
Co1 Co6 2.477780 1_555
Co1 Co14 2.487644 1_545
Co1 Co10 2.489353 1_555
Co1 Co8 2.489360 1_554
Co1 Co2 2.496698 1_555
Co1 Nb3 2.722363 1_555
Co1 Nb1 2.722367 1_554
Co1 Nb0 2.739158 1_545
Co2 Si2 2.280844 1_454
Co2 Si3 2.288126 1_545
Co2 Si4 2.288126 1_545
Co2 Co6 2.477776 1_555
Co2 Co8 2.489356 1_554
Co2 Co9 2.489356 1_455
Co2 Nb5 2.722370 1_554
Co2 Nb3 2.722370 1_455
Co2 Nb2 2.739161 1_545
Co3 Si1 2.267329 1_555
Co3 Si4 2.267336 1_556
Co3 Si6 2.274145 1_555
Co3 Co7 2.505690 1_565
Co3 Ni0 2.605208 1_555
Co3 Co5 2.630850 1_555
Co3 Co4 2.630850 1_555
Co3 Nb5 2.630979 1_565
Co3 Nb4 2.663985 1_555
Co3 Nb2 2.663990 1_556
Co4 Si3 2.267332 1_655
Co4 Si4 2.267332 1_556
Co4 Si2 2.274148 1_555
Co4 Co7 2.505686 1_565
Co4 Ni0 2.605212 1_555
Co4 Co5 2.630850 1_555
Co4 Nb1 2.630982 1_565
Co4 Nb0 2.663993 1_556
Co4 Nb4 2.663993 1_655
Co5 Si1 2.267329 1_555
Co5 Si3 2.267336 1_655
Co5 Si5 2.274145 1_555
Co5 Co7 2.505690 1_565
Co5 Ni0 2.605208 1_555
Co5 Nb3 2.630979 1_565
Co5 Nb0 2.663985 1_555
Co5 Nb2 2.663990 1_655
Co6 Si5 2.296309 1_455
Co6 Si6 2.296310 1_554
Co6 Si2 2.296310 1_454
Co6 Co8 2.491624 1_554
Co6 Co9 2.491624 1_455
Co6 Nb4 2.724155 1_554
Co6 Nb0 2.724155 1_455
Co6 Nb2 2.724155 1_555
Co7 Si0 2.312594 1_555
Co7 Si4 2.462059 1_546
Co7 Si3 2.462059 1_645
Co7 Si1 2.462059 1_545
Co7 Co8 2.640365 1_555
Co7 Co9 2.640365 1_555
Co7 Nb3 2.690202 1_555
Co7 Nb5 2.690202 1_555
Co7 Nb1 2.690202 1_555
Co8 Si0 2.290823 1_555
Co8 Si4 2.471010 1_546
Co8 Si2 2.471383 1_455
Co8 Si6 2.471384 1_555
Co8 Nb4 2.706028 1_555
Co8 Nb1 2.706435 1_555
Co8 Nb5 2.706435 1_555
Co9 Si0 2.290823 1_555
Co9 Si3 2.471010 1_645
Co9 Si2 2.471383 1_554
Co9 Si5 2.471384 1_555
Co9 Nb0 2.706028 1_555
Co9 Nb1 2.706434 1_555
Co9 Nb3 2.706435 1_555
Co10 Si0 2.290817 1_555
Co10 Si1 2.471010 1_545
Co10 Si6 2.471383 1_554
Co10 Si5 2.471383 1_455
Co10 Co6 2.491624 1_555
Co10 Co7 2.640365 1_555
Co10 Co11 2.642039 1_555
Co10 Co13 2.642039 1_555
Co10 Nb2 2.706028 1_555
Co10 Nb5 2.706434 1_555
Co10 Nb3 2.706435 1_555
Co11 Si0 2.286019 1_555
Co11 Si2 2.447730 1_455
Co11 Si5 2.447730 1_455
Co11 Si3 2.449641 1_555
Co11 Ni0 2.497752 1_455
Co11 Co4 2.516322 1_455
Co11 Co5 2.516326 1_455
Co11 Co8 2.642039 1_555
Co11 Co14 2.654578 1_555
Co11 Nb2 2.712866 1_555
Co11 Nb4 2.712866 1_555
Co11 Nb5 2.724342 1_555
Co12 Si0 2.286026 1_555
Co12 Si6 2.447730 1_555
Co12 Si5 2.447730 1_555
Co12 Si1 2.449641 1_555
Co12 Ni0 2.497739 1_555
Co12 Co3 2.516319 1_555
Co12 Co5 2.516319 1_555
Co12 Co9 2.642039 1_555
Co12 Co8 2.642039 1_555
Co12 Co14 2.654578 1_555
Co12 Nb0 2.712866 1_555
Co12 Nb4 2.712866 1_555
Co12 Nb1 2.724342 1_555
Co13 Si0 2.286019 1_555
Co13 Si2 2.447730 1_554
Co13 Si6 2.447730 1_554
Co13 Si4 2.449641 1_555
Co13 Ni0 2.497752 1_554
Co13 Co4 2.516322 1_554
Co13 Co3 2.516326 1_554
Co13 Co9 2.642039 1_555
Co13 Co14 2.654578 1_555
Co13 Nb2 2.712866 1_555
Co13 Nb0 2.712866 1_555
Co13 Nb3 2.724342 1_555
Co14 Si0 2.280813 1_555
Co14 Si4 2.451320 1_555
Co14 Si3 2.451320 1_555
Co14 Si1 2.451320 1_555
Co14 Co2 2.487640 1_565
Co14 Nb4 2.719008 1_555
Co14 Nb0 2.719008 1_555
Co14 Nb2 2.719008 1_555
Ni0 Si5 2.259303 1_555
Ni0 Si6 2.259303 1_555
Ni0 Si2 2.259316 1_555
