# generated using pymatgen
data_Hf3AlPt2N
_symmetry_space_group_name_H-M   'P 1'
_cell_length_a   8.50062087
_cell_length_b   8.50075368
_cell_length_c   8.50072507
_cell_angle_alpha   60.00274764
_cell_angle_beta   60.00171772
_cell_angle_gamma   60.00197551
_symmetry_Int_Tables_number   1
_chemical_formula_structural   Hf3AlPt2N
_chemical_formula_sum   'Hf12 Al4 Pt8 N4'
_cell_volume   434.38037042
_cell_formula_units_Z   4
loop_
 _symmetry_equiv_pos_site_id
 _symmetry_equiv_pos_as_xyz
  1  'x, y, z'
loop_
 _atom_site_type_symbol
 _atom_site_label
 _atom_site_symmetry_multiplicity
 _atom_site_fract_x
 _atom_site_fract_y
 _atom_site_fract_z
 _atom_site_occupancy
  Hf  Hf0  1  0.81106384  0.18893814  0.18893728  1
  Hf  Hf1  1  0.18891159  0.81108746  0.18891916  1
  Hf  Hf2  1  0.81108589  0.81108674  0.18892171  1
  Hf  Hf3  1  0.18890660  0.81109852  0.81109464  1
  Hf  Hf4  1  0.81108243  0.18892391  0.81108734  1
  Hf  Hf5  1  0.18891060  0.18892739  0.81108230  1
  Hf  Hf6  1  0.43893616  0.06106186  0.06106272  1
  Hf  Hf7  1  0.06108841  0.43891254  0.06108084  1
  Hf  Hf8  1  0.43891411  0.43891326  0.06107829  1
  Hf  Hf9  1  0.06109340  0.43890148  0.43890536  1
  Hf  Hf10  1  0.43891757  0.06107609  0.43891266  1
  Hf  Hf11  1  0.06108940  0.06107261  0.43891770  1
  Al  Al0  1  0.62500000  0.62500000  0.12500000  1
  Al  Al1  1  0.62500000  0.62500000  0.62500000  1
  Al  Al2  1  0.12500000  0.62500000  0.62500000  1
  Al  Al3  1  0.62500000  0.12500000  0.62500000  1
  Pt  Pt0  1  0.41097892  0.41094984  0.76705807  1
  Pt  Pt1  1  0.41102231  0.41097832  0.41099554  1
  Pt  Pt2  1  0.76701784  0.41096983  0.41097417  1
  Pt  Pt3  1  0.41097927  0.76706042  0.41095778  1
  Pt  Pt4  1  0.83902108  0.83905016  0.48294193  1
  Pt  Pt5  1  0.83897769  0.83902168  0.83900446  1
  Pt  Pt6  1  0.48298216  0.83903017  0.83902583  1
  Pt  Pt7  1  0.83902073  0.48293958  0.83904222  1
  N  N0  1  0.12500000  0.12500000  0.62500000  1
  N  N1  1  0.12500000  0.12500000  0.12500000  1
  N  N2  1  0.62500000  0.12500000  0.12500000  1
  N  N3  1  0.12500000  0.62500000  0.12500000  1
loop_
_geom_bond_atom_site_label_1
_geom_bond_atom_site_label_2
_geom_bond_distance
_geom_bond_site_symmetry_2
Hf0 N2 2.259884 1_555
Hf0 N1 2.259902 1_655
Hf0 Pt4 2.757435 1_545
Hf0 Pt7 2.757454 1_554
Hf0 Pt2 3.068231 1_555
Hf0 Pt1 3.068482 1_555
Hf1 N3 2.259816 1_555
Hf1 N1 2.259854 1_565
Hf1 Pt4 2.757438 1_455
Hf1 Pt6 2.757633 1_554
Hf1 Pt3 3.068580 1_555
Hf1 Pt1 3.069109 1_555
Hf2 N3 2.259855 1_655
Hf2 N2 2.259888 1_565
Hf2 Pt4 2.757505 1_555
Hf2 Pt5 2.757777 1_554
Hf2 Pt3 3.068829 1_555
Hf2 Pt2 3.069108 1_555
Hf3 N0 2.259853 1_565
Hf3 N3 2.259875 1_556
Hf3 Pt6 2.757769 1_555
Hf3 Pt5 2.757813 1_455
Hf3 Pt3 3.069116 1_555
Hf3 Pt0 3.069214 1_555
Hf4 N2 2.259863 1_556
Hf4 N0 2.259871 1_655
Hf4 Pt7 2.757447 1_555
Hf4 Pt5 2.757711 1_545
Hf4 Pt0 3.068824 1_555
Hf4 Pt2 3.069062 1_555
Hf5 N0 2.259816 1_555
Hf5 N1 2.259869 1_556
Hf5 Pt7 2.757411 1_455
Hf5 Pt6 2.757673 1_545
Hf5 Pt0 3.068479 1_555
Hf5 Pt1 3.068923 1_555
Hf6 N2 2.259884 1_555
Hf6 N1 2.259902 1_555
Hf6 Pt0 2.757435 1_554
Hf6 Pt3 2.757454 1_545
Hf6 Pt6 3.068231 1_544
Hf6 Pt5 3.068482 1_544
Hf7 N3 2.259816 1_555
Hf7 N1 2.259854 1_555
Hf7 Pt0 2.757438 1_554
Hf7 Pt2 2.757633 1_455
Hf7 Pt7 3.068580 1_454
Hf7 Pt5 3.069109 1_454
Hf8 N3 2.259855 1_555
Hf8 N2 2.259888 1_555
Hf8 Pt0 2.757505 1_554
Hf8 Pt1 2.757777 1_555
Hf8 Pt7 3.068829 1_554
Hf8 Pt6 3.069108 1_554
Hf9 N0 2.259853 1_555
Hf9 N3 2.259875 1_555
Hf9 Pt2 2.757769 1_455
Hf9 Pt1 2.757813 1_555
Hf9 Pt7 3.069116 1_455
Hf9 Pt4 3.069214 1_455
Hf10 N2 2.259863 1_555
Hf10 N0 2.259871 1_555
Hf10 Pt3 2.757447 1_545
Hf10 Pt1 2.757711 1_555
Hf10 Pt4 3.068824 1_545
Hf10 Pt6 3.069062 1_545
Hf11 N0 2.259816 1_555
Hf11 N1 2.259869 1_555
Hf11 Pt3 2.757411 1_545
Hf11 Pt2 2.757673 1_455
Hf11 Pt4 3.068479 1_445
Hf11 Pt5 3.068923 1_445
Al0 Pt6 2.644444 1_554
Al0 Pt2 2.644444 1_555
Al0 Pt3 2.644507 1_555
Al0 Pt7 2.644507 1_554
Al0 Pt5 2.644531 1_554
Al0 Pt1 2.644531 1_555
Al1 Pt7 2.644796 1_555
Al1 Pt3 2.644796 1_555
Al1 Pt6 2.644827 1_555
Al1 Pt2 2.644827 1_555
Al1 Pt4 2.644855 1_555
Al1 Pt0 2.644855 1_555
Al2 Pt0 2.644647 1_555
Al2 Pt4 2.644647 1_455
Al2 Pt3 2.644653 1_555
Al2 Pt7 2.644653 1_455
Al2 Pt5 2.644686 1_455
Al2 Pt1 2.644686 1_555
Al3 Pt6 2.644414 1_545
Al3 Pt2 2.644414 1_555
Al3 Pt5 2.644424 1_545
Al3 Pt1 2.644424 1_555
Al3 Pt0 2.644449 1_555
Al3 Pt4 2.644449 1_545
