# generated using pymatgen
data_Sc3Ta(AgS4)2
_symmetry_space_group_name_H-M   'P 1'
_cell_length_a   7.49593466
_cell_length_b   7.57277025
_cell_length_c   10.61799753
_cell_angle_alpha   90.00000000
_cell_angle_beta   90.00000000
_cell_angle_gamma   90.00000000
_symmetry_Int_Tables_number   1
_chemical_formula_structural   Sc3Ta(AgS4)2
_chemical_formula_sum   'Sc6 Ta2 Ag4 S16'
_cell_volume   602.73053459
_cell_formula_units_Z   2
loop_
 _symmetry_equiv_pos_site_id
 _symmetry_equiv_pos_as_xyz
  1  'x, y, z'
loop_
 _atom_site_type_symbol
 _atom_site_label
 _atom_site_symmetry_multiplicity
 _atom_site_fract_x
 _atom_site_fract_y
 _atom_site_fract_z
 _atom_site_occupancy
  Sc  Sc0  1  0.74474492  0.00000000  0.50000000  1
  Sc  Sc1  1  0.74459023  0.50000000  0.50000000  1
  Sc  Sc2  1  0.25540977  0.50000000  0.00000000  1
  Sc  Sc3  1  0.00000000  0.74939109  0.25000000  1
  Sc  Sc4  1  0.25525508  0.00000000  0.00000000  1
  Sc  Sc5  1  0.00000000  0.25060891  0.75000000  1
  Ta  Ta0  1  0.50000000  0.75073190  0.25000000  1
  Ta  Ta1  1  0.50000000  0.24926810  0.75000000  1
  Ag  Ag0  1  0.75812247  0.74960879  0.87650868  1
  Ag  Ag1  1  0.24187753  0.25039121  0.37650868  1
  Ag  Ag2  1  0.24187753  0.74960879  0.62349132  1
  Ag  Ag3  1  0.75812247  0.25039121  0.12349132  1
  S  S0  1  0.73686275  0.97616085  0.25531026  1
  S  S1  1  0.50656254  0.75013496  0.48059111  1
  S  S2  1  0.73636808  0.52393971  0.25542417  1
  S  S3  1  0.49343746  0.24986504  0.98059111  1
  S  S4  1  0.26363192  0.52393971  0.24457583  1
  S  S5  1  0.02902832  0.74996048  0.00873300  1
  S  S6  1  0.26313725  0.97616085  0.24468974  1
  S  S7  1  0.49343746  0.75013496  0.01940889  1
  S  S8  1  0.26363192  0.47606029  0.75542417  1
  S  S9  1  0.02902832  0.25003952  0.99126700  1
  S  S10  1  0.26313725  0.02383915  0.75531026  1
  S  S11  1  0.97097168  0.74996048  0.49126700  1
  S  S12  1  0.73686275  0.02383915  0.74468974  1
  S  S13  1  0.50656254  0.24986504  0.51940889  1
  S  S14  1  0.73636808  0.47606029  0.74457583  1
  S  S15  1  0.97097168  0.25003952  0.50873300  1
loop_
_geom_bond_atom_site_label_1
_geom_bond_atom_site_label_2
_geom_bond_distance
_geom_bond_site_symmetry_2
Ag0 S5 2.468768 1_656
Ag0 S7 2.497751 1_556
Ag0 S14 2.506033 1_555
Ag0 S12 2.509390 1_565
Ag1 S15 2.468768 1_455
Ag1 S13 2.497751 1_555
Ag1 S4 2.506033 1_555
Ag1 S6 2.509390 1_545
Ag2 S11 2.468768 1_455
Ag2 S1 2.497751 1_555
Ag2 S8 2.506033 1_555
Ag2 S10 2.509390 1_565
Ag3 S9 2.468768 1_654
Ag3 S3 2.497751 1_554
Ag3 S2 2.506033 1_555
Ag3 S0 2.509390 1_545
S0 Ta0 2.463711 1_555
S0 Sc0 2.605050 1_565
S0 Sc3 2.615877 1_655
S1 Ta0 2.448914 1_555
S1 Sc0 2.609680 1_565
S1 Sc1 2.610370 1_555
S2 Ta0 2.468240 1_555
S2 Sc1 2.603955 1_555
S2 Sc3 2.612164 1_655
S3 Ta1 2.448914 1_555
S3 Sc4 2.609680 1_556
S3 Sc2 2.610370 1_556
S4 Ta0 2.468240 1_555
S4 Sc2 2.603955 1_555
S4 Sc3 2.612164 1_555
S5 Sc4 2.543537 1_565
S5 Sc2 2.543865 1_555
S5 Sc3 2.571001 1_555
S6 Ta0 2.463711 1_555
S6 Sc4 2.605050 1_565
S6 Sc3 2.615877 1_555
S7 Ta0 2.448914 1_555
S7 Sc4 2.609680 1_565
S7 Sc2 2.610370 1_555
S8 Ta1 2.468240 1_555
S8 Sc2 2.603955 1_556
S8 Sc5 2.612164 1_555
S9 Sc4 2.543537 1_556
S9 Sc2 2.543865 1_556
S9 Sc5 2.571001 1_555
S10 Ta1 2.463711 1_555
S10 Sc4 2.605050 1_556
S10 Sc5 2.615877 1_555
S11 Sc0 2.543537 1_565
S11 Sc1 2.543865 1_555
S11 Sc3 2.571001 1_655
S12 Ta1 2.463711 1_555
S12 Sc0 2.605050 1_555
S12 Sc5 2.615877 1_655
S13 Ta1 2.448914 1_555
S13 Sc0 2.609680 1_555
S13 Sc1 2.610370 1_555
S14 Ta1 2.468240 1_555
S14 Sc1 2.603955 1_555
S14 Sc5 2.612164 1_655
S15 Sc0 2.543537 1_555
S15 Sc1 2.543865 1_555
S15 Sc5 2.571001 1_655
