# generated using pymatgen
data_LiAlCdF6
_symmetry_space_group_name_H-M   'P 1'
_cell_length_a   4.98515389
_cell_length_b   4.98515451
_cell_length_c   9.42785272
_cell_angle_alpha   90.00000000
_cell_angle_beta   90.00000000
_cell_angle_gamma   120.00000209
_symmetry_Int_Tables_number   1
_chemical_formula_structural   LiAlCdF6
_chemical_formula_sum   'Li2 Al2 Cd2 F12'
_cell_volume   202.90867013
_cell_formula_units_Z   2
loop_
 _symmetry_equiv_pos_site_id
 _symmetry_equiv_pos_as_xyz
  1  'x, y, z'
loop_
 _atom_site_type_symbol
 _atom_site_label
 _atom_site_symmetry_multiplicity
 _atom_site_fract_x
 _atom_site_fract_y
 _atom_site_fract_z
 _atom_site_occupancy
  Li  Li0  1  0.33333300  0.66666700  0.25000000  1
  Li  Li1  1  0.66666700  0.33333300  0.75000000  1
  Al  Al0  1  0.66666700  0.33333300  0.25000000  1
  Al  Al1  1  0.33333300  0.66666700  0.75000000  1
  Cd  Cd0  1  0.00000000  0.00000000  0.00000000  1
  Cd  Cd1  1  0.00000000  0.00000000  0.50000000  1
  F  F0  1  0.37480757  0.34845558  0.14187915  1
  F  F1  1  0.62519243  0.97364801  0.64187915  1
  F  F2  1  0.02635199  0.65154442  0.64187915  1
  F  F3  1  0.34845558  0.37480757  0.64187915  1
  F  F4  1  0.65154442  0.62519243  0.35812085  1
  F  F5  1  0.65154442  0.02635199  0.14187915  1
  F  F6  1  0.97364801  0.62519243  0.14187915  1
  F  F7  1  0.97364801  0.34845558  0.35812085  1
  F  F8  1  0.34845558  0.97364801  0.85812085  1
  F  F9  1  0.37480757  0.02635199  0.35812085  1
  F  F10  1  0.62519243  0.65154442  0.85812085  1
  F  F11  1  0.02635199  0.37480757  0.85812085  1
loop_
_geom_bond_atom_site_label_1
_geom_bond_atom_site_label_2
_geom_bond_distance
_geom_bond_site_symmetry_2
Al0 F7 1.808686 1_555
Al0 F5 1.808686 1_555
Al0 F6 1.808688 1_555
Al0 F9 1.808688 1_555
Al0 F0 1.808690 1_555
Al0 F4 1.808691 1_555
Al1 F2 1.808686 1_555
Al1 F8 1.808686 1_555
Al1 F11 1.808688 1_555
Al1 F1 1.808688 1_555
Al1 F10 1.808690 1_555
Al1 F3 1.808691 1_555
Cd0 F5 2.247712 1_455
Cd0 F8 2.247712 1_544
Cd0 F0 2.247712 1_555
Cd0 F10 2.247712 1_444
Cd0 F6 2.247712 1_445
Cd0 F11 2.247712 1_554
Cd1 F1 2.247712 1_445
Cd1 F9 2.247712 1_555
Cd1 F3 2.247712 1_555
Cd1 F4 2.247712 1_445
Cd1 F2 2.247712 1_545
Cd1 F7 2.247712 1_455
F0 Li0 1.981478 1_555
F1 Li1 1.981474 1_565
F2 Li1 1.981476 1_455
F3 Li1 1.981478 1_555
F4 Li0 1.981478 1_555
F5 Li0 1.981476 1_545
F6 Li0 1.981474 1_655
F7 Li0 1.981476 1_655
F8 Li1 1.981476 1_565
F9 Li0 1.981474 1_545
F10 Li1 1.981478 1_555
F11 Li1 1.981474 1_455
