# generated using pymatgen
data_NaMgH9W
_symmetry_space_group_name_H-M   'P 1'
_cell_length_a   8.20381925
_cell_length_b   8.20381869
_cell_length_c   4.98111347
_cell_angle_alpha   90.00000000
_cell_angle_beta   90.00000000
_cell_angle_gamma   120.00000227
_symmetry_Int_Tables_number   1
_chemical_formula_structural   NaMgH9W
_chemical_formula_sum   'Na3 Mg3 H27 W3'
_cell_volume   290.32818128
_cell_formula_units_Z   3
loop_
 _symmetry_equiv_pos_site_id
 _symmetry_equiv_pos_as_xyz
  1  'x, y, z'
loop_
 _atom_site_type_symbol
 _atom_site_label
 _atom_site_symmetry_multiplicity
 _atom_site_fract_x
 _atom_site_fract_y
 _atom_site_fract_z
 _atom_site_occupancy
  Na  Na0  1  1.00000000  0.61076475  0.00000000  1
  Na  Na1  1  0.38923525  0.38923525  0.00000000  1
  Na  Na2  1  0.61076475  0.00000000  0.00000000  1
  Mg  Mg0  1  1.00000000  0.27991502  0.50000000  1
  Mg  Mg1  1  0.72008498  0.72008498  0.50000000  1
  Mg  Mg2  1  0.27991502  0.00000000  0.50000000  1
  H  H0  1  0.82751231  0.35330761  0.74837832  1
  H  H1  1  0.64669239  0.47420471  0.74837832  1
  H  H2  1  0.52579529  0.17248769  0.74837832  1
  H  H3  1  0.17248769  0.52579529  0.25162168  1
  H  H4  1  0.52579529  0.17248769  0.25162168  1
  H  H5  1  0.82751231  0.35330761  0.25162168  1
  H  H6  1  0.64669239  0.47420471  0.25162168  1
  H  H7  1  0.35330761  0.82751231  0.74837832  1
  H  H8  1  0.47420471  0.64669239  0.74837832  1
  H  H9  1  0.21042983  0.00000000  0.00000000  1
  H  H10  1  0.78957017  0.78957017  0.00000000  1
  H  H11  1  0.00000000  0.21042983  0.00000000  1
  H  H12  1  0.85093389  0.00000000  0.25634228  1
  H  H13  1  0.14906611  0.14906611  0.74365772  1
  H  H14  1  1.00000000  0.85093389  0.74365772  1
  H  H15  1  1.00000000  0.85093389  0.25634228  1
  H  H16  1  0.14906611  0.14906611  0.25634228  1
  H  H17  1  0.85093389  0.00000000  0.74365772  1
  H  H18  1  0.14059239  0.69847624  0.50000000  1
  H  H19  1  0.55788485  0.85940761  0.50000000  1
  H  H20  1  0.30152376  0.44211515  0.50000000  1
  H  H21  1  0.44211515  0.30152376  0.50000000  1
  H  H22  1  0.85940761  0.55788485  0.50000000  1
  H  H23  1  0.69847624  0.14059239  0.50000000  1
  H  H24  1  0.17248769  0.52579529  0.74837832  1
  H  H25  1  0.35330761  0.82751231  0.25162168  1
  H  H26  1  0.47420471  0.64669239  0.25162168  1
  W  W0  1  0.66666700  0.33333300  0.50000000  1
  W  W1  1  0.33333300  0.66666700  0.50000000  1
  W  W2  1  0.00000000  0.00000000  0.00000000  1
loop_
_geom_bond_atom_site_label_1
_geom_bond_atom_site_label_2
_geom_bond_distance
_geom_bond_site_symmetry_2
H0 W0 1.755702 1_555
H0 Mg0 2.178895 1_555
H0 Na0 2.246242 1_556
H1 W0 1.755707 1_555
H1 Mg1 2.178895 1_555
H1 Na1 2.246242 1_556
H2 W0 1.755704 1_555
H2 Mg2 2.178895 1_555
H2 Na2 2.246242 1_556
H3 W1 1.755704 1_555
H3 Mg0 2.178895 1_455
H3 Na0 2.246242 1_455
H4 W0 1.755704 1_555
H4 Mg2 2.178895 1_555
H4 Na2 2.246242 1_555
H5 W0 1.755702 1_555
H5 Mg0 2.178895 1_555
H5 Na0 2.246242 1_555
H6 W0 1.755707 1_555
H6 Mg1 2.178895 1_555
H6 Na1 2.246242 1_555
H7 W1 1.755701 1_555
H7 Mg2 2.178895 1_565
H7 Na2 2.246242 1_566
H8 W1 1.755707 1_555
H8 Mg1 2.178895 1_555
H8 Na1 2.246242 1_556
H9 W2 1.726328 1_555
H10 W2 1.726328 1_665
H11 W2 1.726328 1_555
H12 W2 1.768024 1_655
H12 Mg0 2.331011 1_555
H12 Mg1 2.331011 1_545
H12 Na2 2.347870 1_555
H13 W2 1.768024 1_556
H13 Mg2 2.331011 1_555
H13 Mg0 2.331011 1_455
H13 Na1 2.347870 1_556
H14 W2 1.768024 1_666
H14 Mg2 2.331011 1_665
H14 Mg1 2.331011 1_555
H14 Na0 2.347870 1_556
H15 W2 1.768024 1_665
H15 Mg2 2.331011 1_665
H15 Mg1 2.331011 1_555
H15 Na0 2.347870 1_555
H16 W2 1.768024 1_555
H16 Mg2 2.331011 1_555
H16 Mg0 2.331011 1_455
H16 Na1 2.347870 1_555
H17 W2 1.768024 1_656
H17 Mg0 2.331011 1_555
H17 Mg1 2.331011 1_545
H17 Na2 2.347870 1_556
H18 W1 1.726543 1_555
H18 Mg2 2.144295 1_565
H19 W1 1.726552 1_555
H19 Mg1 2.144288 1_555
H20 W1 1.726559 1_555
H20 Mg0 2.144295 1_455
H21 W0 1.726559 1_555
H21 Mg2 2.144295 1_555
H22 W0 1.726552 1_555
H22 Mg1 2.144288 1_555
H23 W0 1.726542 1_555
H23 Mg0 2.144295 1_555
H24 W1 1.755704 1_555
H24 Mg0 2.178895 1_455
H24 Na0 2.246242 1_456
H25 W1 1.755701 1_555
H25 Mg2 2.178895 1_565
H25 Na2 2.246242 1_565
H26 W1 1.755707 1_555
H26 Mg1 2.178895 1_555
H26 Na1 2.246242 1_555
