# generated using pymatgen
data_Ba4Cr3FeN8
_symmetry_space_group_name_H-M   'P 1'
_cell_length_a   6.44375616
_cell_length_b   6.44375501
_cell_length_c   7.81311953
_cell_angle_alpha   90.40782824
_cell_angle_beta   89.59217227
_cell_angle_gamma   125.82019022
_symmetry_Int_Tables_number   1
_chemical_formula_structural   Ba4Cr3FeN8
_chemical_formula_sum   'Ba4 Cr3 Fe1 N8'
_cell_volume   263.04697898
_cell_formula_units_Z   1
loop_
 _symmetry_equiv_pos_site_id
 _symmetry_equiv_pos_as_xyz
  1  'x, y, z'
loop_
 _atom_site_type_symbol
 _atom_site_label
 _atom_site_symmetry_multiplicity
 _atom_site_fract_x
 _atom_site_fract_y
 _atom_site_fract_z
 _atom_site_occupancy
  Ba  Ba0  1  0.83164267  0.16835733  0.56531968  1
  Ba  Ba1  1  0.15558376  0.84441624  0.43865726  1
  Ba  Ba2  1  0.66189392  0.33810608  0.05933865  1
  Ba  Ba3  1  0.33981883  0.66018117  0.92956771  1
  Cr  Cr0  1  0.44961206  0.55038794  0.36573996  1
  Cr  Cr1  1  0.94880340  0.05119660  0.13660080  1
  Cr  Cr2  1  0.05458897  0.94541103  0.86419631  1
  Fe  Fe0  1  0.54879929  0.45120071  0.63828893  1
  N  N0  1  0.89469158  0.10530842  0.91310896  1
  N  N1  1  0.10754568  0.89245432  0.08670721  1
  N  N2  1  0.60559414  0.39440586  0.40436050  1
  N  N3  1  0.38456097  0.61543903  0.57926538  1
  N  N4  1  0.34445946  0.13851534  0.75952883  1
  N  N5  1  0.15441043  0.34349282  0.24989549  1
  N  N6  1  0.65650718  0.84558957  0.24989549  1
  N  N7  1  0.86148466  0.65554054  0.75952883  1
loop_
_geom_bond_atom_site_label_1
_geom_bond_atom_site_label_2
_geom_bond_distance
_geom_bond_site_symmetry_2
Ba0 N0 2.817546 1_555
Ba0 N2 2.891449 1_555
Ba0 N6 2.981963 1_545
Ba0 N5 2.981964 1_655
Ba0 N3 2.998723 1_545
Ba0 N3 2.998723 1_655
Ba1 N1 2.808839 1_555
Ba1 N3 2.855742 1_555
Ba1 N4 2.938344 1_565
Ba1 N7 2.938344 1_455
Ba1 N2 3.002332 1_565
Ba1 N2 3.002332 1_455
Ba2 N2 2.766985 1_555
Ba2 N7 2.875973 1_554
Ba2 N4 2.875973 1_554
Ba2 N0 2.896722 1_554
Ba2 N1 3.007190 1_655
Ba2 N1 3.007191 1_545
Ba3 N3 2.780645 1_555
Ba3 N1 2.925304 1_556
Ba3 N0 3.003728 1_455
Ba3 N0 3.003729 1_565
Ba3 N5 3.005317 1_556
Ba3 N6 3.005317 1_556
Cr0 N6 1.803878 1_555
Cr0 N5 1.803878 1_555
Cr0 N2 1.817322 1_555
Cr0 N3 1.822193 1_555
Cr1 N5 1.777221 1_655
Cr1 N6 1.777221 1_545
Cr1 N0 1.857931 1_554
Cr1 N1 1.859555 1_645
Cr2 N7 1.725764 1_455
Cr2 N4 1.725764 1_565
Cr2 N1 1.846205 1_556
Cr2 N0 1.870996 1_465
Fe0 N4 1.896007 1_555
Fe0 N7 1.896007 1_555
Fe0 N2 1.935490 1_555
Fe0 N3 1.943600 1_555
