# generated using pymatgen
data_TmCu5
_symmetry_space_group_name_H-M   'P 1'
_cell_length_a   4.88858885
_cell_length_b   4.88858916
_cell_length_c   4.88858928
_cell_angle_alpha   59.99998550
_cell_angle_beta   59.99998345
_cell_angle_gamma   59.99997189
_symmetry_Int_Tables_number   1
_chemical_formula_structural   TmCu5
_chemical_formula_sum   'Tm1 Cu5'
_cell_volume   82.61053076
_cell_formula_units_Z   1
loop_
 _symmetry_equiv_pos_site_id
 _symmetry_equiv_pos_as_xyz
  1  'x, y, z'
loop_
 _atom_site_type_symbol
 _atom_site_label
 _atom_site_symmetry_multiplicity
 _atom_site_fract_x
 _atom_site_fract_y
 _atom_site_fract_z
 _atom_site_occupancy
  Tm  Tm0  1  -0.00000000  0.00000000  -0.00000000  1
  Cu  Cu0  1  0.25000000  0.25000000  0.25000000  1
  Cu  Cu1  1  0.62407946  0.62407946  0.62407946  1
  Cu  Cu2  1  0.62407946  0.62407946  0.12776161  1
  Cu  Cu3  1  0.12776161  0.62407946  0.62407946  1
  Cu  Cu4  1  0.62407946  0.12776161  0.62407946  1
loop_
_geom_bond_atom_site_label_1
_geom_bond_atom_site_label_2
_geom_bond_distance
_geom_bond_site_symmetry_2
Cu0 Cu1 2.864290 1_455
Cu0 Cu1 2.864290 1_545
Cu0 Cu2 2.864290 1_455
Cu0 Cu2 2.864290 1_545
Cu0 Cu4 2.864291 1_455
Cu0 Cu1 2.864291 1_554
Cu0 Cu4 2.864291 1_554
Cu0 Cu3 2.864291 1_554
Cu0 Cu3 2.864291 1_545
Cu0 Cu4 2.864291 1_555
Cu0 Cu3 2.864291 1_555
Cu0 Cu2 2.864291 1_555
Cu0 Tm0 2.993636 1_655
Cu0 Tm0 2.993636 1_565
Cu0 Tm0 2.993637 1_556
Cu0 Tm0 2.993638 1_555
Cu1 Cu3 2.426294 1_555
Cu1 Cu4 2.426294 1_555
Cu1 Cu2 2.426294 1_555
Cu1 Cu3 2.462295 1_655
Cu1 Cu4 2.462295 1_565
Cu1 Cu2 2.462295 1_556
Cu1 Tm0 2.868128 1_566
Cu1 Tm0 2.868128 1_656
Cu1 Tm0 2.868128 1_665
Cu2 Cu3 2.426293 1_555
Cu2 Cu4 2.426294 1_555
Cu2 Cu3 2.462294 1_654
Cu2 Cu4 2.462295 1_564
Cu2 Tm0 2.868128 1_565
Cu2 Tm0 2.868128 1_655
Cu2 Tm0 2.868129 1_665
Cu3 Cu4 2.426293 1_555
Cu3 Cu4 2.462294 1_465
Cu3 Tm0 2.868128 1_565
Cu3 Tm0 2.868129 1_556
Cu3 Tm0 2.868129 1_566
Cu4 Tm0 2.868128 1_556
Cu4 Tm0 2.868128 1_655
Cu4 Tm0 2.868129 1_656
