# generated using pymatgen
data_Hf6TiZn22Ge
_symmetry_space_group_name_H-M   'P 1'
_cell_length_a   8.66620001
_cell_length_b   8.66620033
_cell_length_c   8.66620013
_cell_angle_alpha   60.00000444
_cell_angle_beta   60.00000321
_cell_angle_gamma   59.99999699
_symmetry_Int_Tables_number   1
_chemical_formula_structural   Hf6TiZn22Ge
_chemical_formula_sum   'Hf6 Ti1 Zn22 Ge1'
_cell_volume   460.22601409
_cell_formula_units_Z   1
loop_
 _symmetry_equiv_pos_site_id
 _symmetry_equiv_pos_as_xyz
  1  'x, y, z'
loop_
 _atom_site_type_symbol
 _atom_site_label
 _atom_site_symmetry_multiplicity
 _atom_site_fract_x
 _atom_site_fract_y
 _atom_site_fract_z
 _atom_site_occupancy
  Hf  Hf0  1  0.71450114  0.28549886  0.28549886  1
  Hf  Hf1  1  0.28549886  0.71450114  0.71450114  1
  Hf  Hf2  1  0.28549886  0.71450114  0.28549886  1
  Hf  Hf3  1  0.71450114  0.28549886  0.71450114  1
  Hf  Hf4  1  0.28549886  0.28549886  0.71450114  1
  Hf  Hf5  1  0.71450114  0.71450114  0.28549886  1
  Ti  Ti0  1  0.00000000  0.00000000  0.00000000  1
  Zn  Zn0  1  0.12381158  0.12381158  0.12381158  1
  Zn  Zn1  1  0.87618842  0.87618842  0.87618842  1
  Zn  Zn2  1  0.12381158  0.12381158  0.62856725  1
  Zn  Zn3  1  0.12381158  0.62856725  0.12381158  1
  Zn  Zn4  1  0.87618842  0.87618842  0.37143275  1
  Zn  Zn5  1  0.87618842  0.37143275  0.87618842  1
  Zn  Zn6  1  0.62856725  0.12381158  0.12381158  1
  Zn  Zn7  1  0.37143275  0.87618842  0.87618842  1
  Zn  Zn8  1  0.50000000  0.00000000  0.00000000  1
  Zn  Zn9  1  0.00000000  0.50000000  0.50000000  1
  Zn  Zn10  1  0.00000000  0.50000000  0.00000000  1
  Zn  Zn11  1  0.50000000  0.00000000  0.50000000  1
  Zn  Zn12  1  0.00000000  0.00000000  0.50000000  1
  Zn  Zn13  1  0.50000000  0.50000000  0.00000000  1
  Zn  Zn14  1  0.33667888  0.33667888  0.33667888  1
  Zn  Zn15  1  0.66332112  0.66332112  0.66332112  1
  Zn  Zn16  1  0.33667888  0.33667888  0.98996536  1
  Zn  Zn17  1  0.33667888  0.98996536  0.33667888  1
  Zn  Zn18  1  0.66332112  0.66332112  0.01003464  1
  Zn  Zn19  1  0.66332112  0.01003464  0.66332112  1
  Zn  Zn20  1  0.98996536  0.33667888  0.33667888  1
  Zn  Zn21  1  0.01003464  0.66332112  0.66332112  1
  Ge  Ge0  1  0.50000000  0.50000000  0.50000000  1
loop_
_geom_bond_atom_site_label_1
_geom_bond_atom_site_label_2
_geom_bond_distance
_geom_bond_site_symmetry_2
Hf0 Zn14 2.899410 1_555
Hf0 Zn18 2.899416 1_555
Hf0 Zn19 2.899416 1_555
Hf0 Zn20 2.899427 1_555
Hf0 Zn6 2.920931 1_555
Hf0 Zn0 2.920944 1_655
Hf0 Zn4 2.920946 1_545
Hf0 Zn5 2.920946 1_554
Hf0 Zn12 3.094699 1_655
Hf0 Zn13 3.094699 1_555
Hf0 Zn11 3.094699 1_555
Hf0 Zn10 3.094699 1_655
Hf1 Zn15 2.899410 1_555
Hf1 Zn16 2.899416 1_555
Hf1 Zn17 2.899416 1_555
Hf1 Zn21 2.899427 1_555
Hf1 Zn7 2.920931 1_555
Hf1 Zn1 2.920944 1_455
Hf1 Zn2 2.920946 1_565
Hf1 Zn3 2.920946 1_556
Hf1 Zn12 3.094699 1_565
Hf1 Zn13 3.094699 1_556
Hf1 Zn11 3.094699 1_565
Hf1 Zn10 3.094699 1_556
Hf2 Zn14 2.899410 1_555
Hf2 Zn18 2.899416 1_555
Hf2 Zn21 2.899416 1_555
Hf2 Zn17 2.899427 1_555
Hf2 Zn3 2.920931 1_555
Hf2 Zn0 2.920944 1_565
Hf2 Zn4 2.920946 1_455
Hf2 Zn7 2.920946 1_554
Hf2 Zn12 3.094699 1_565
Hf2 Zn13 3.094699 1_555
Hf2 Zn9 3.094699 1_555
Hf2 Zn8 3.094699 1_565
Hf3 Zn15 2.899410 1_555
Hf3 Zn16 2.899416 1_555
Hf3 Zn20 2.899416 1_555
Hf3 Zn19 2.899427 1_555
Hf3 Zn5 2.920931 1_555
Hf3 Zn1 2.920944 1_545
Hf3 Zn2 2.920946 1_655
Hf3 Zn6 2.920946 1_556
Hf3 Zn12 3.094699 1_655
Hf3 Zn13 3.094699 1_556
Hf3 Zn9 3.094699 1_655
Hf3 Zn8 3.094699 1_556
Hf4 Zn14 2.899410 1_555
Hf4 Zn19 2.899416 1_555
Hf4 Zn21 2.899416 1_555
Hf4 Zn16 2.899427 1_555
Hf4 Zn2 2.920931 1_555
Hf4 Zn0 2.920944 1_556
Hf4 Zn5 2.920946 1_455
Hf4 Zn7 2.920946 1_545
Hf4 Zn9 3.094699 1_555
Hf4 Zn11 3.094699 1_555
Hf4 Zn10 3.094699 1_556
Hf4 Zn8 3.094699 1_556
Hf5 Zn15 2.899410 1_555
Hf5 Zn17 2.899416 1_555
Hf5 Zn20 2.899416 1_555
Hf5 Zn18 2.899427 1_555
Hf5 Zn4 2.920931 1_555
Hf5 Zn1 2.920944 1_554
Hf5 Zn3 2.920946 1_655
Hf5 Zn6 2.920946 1_565
Hf5 Zn9 3.094699 1_655
Hf5 Zn11 3.094699 1_565
Hf5 Zn10 3.094699 1_655
Hf5 Zn8 3.094699 1_565
Ti0 Zn6 2.628229 1_455
Ti0 Zn7 2.628229 1_544
Ti0 Zn5 2.628230 1_454
Ti0 Zn3 2.628230 1_545
Ti0 Zn4 2.628230 1_445
Ti0 Zn2 2.628230 1_554
Ti0 Zn0 2.628244 1_555
Ti0 Zn1 2.628244 1_444
Zn0 Zn8 2.661986 1_555
Zn0 Zn10 2.661987 1_555
Zn0 Zn12 2.661987 1_555
Zn0 Zn17 2.697254 1_545
Zn0 Zn20 2.697254 1_455
Zn0 Zn16 2.697254 1_554
Zn0 Zn5 3.034834 1_454
Zn0 Zn7 3.034834 1_544
Zn0 Zn4 3.034835 1_445
Zn1 Zn8 2.661986 1_566
Zn1 Zn10 2.661987 1_656
Zn1 Zn12 2.661987 1_665
Zn1 Zn19 2.697254 1_565
Zn1 Zn21 2.697254 1_655
Zn1 Zn18 2.697254 1_556
Zn1 Zn3 3.034834 1_656
Zn1 Zn6 3.034834 1_566
Zn1 Zn2 3.034835 1_665
Zn2 Zn9 2.661987 1_555
Zn2 Zn20 2.697254 1_455
Zn2 Zn5 3.034810 1_455
Zn2 Zn7 3.034810 1_545
Zn3 Zn9 2.661987 1_555
Zn3 Zn4 3.034810 1_455
Zn3 Zn7 3.034810 1_554
Zn4 Zn9 2.661987 1_655
Zn4 Zn6 3.034810 1_565
Zn5 Zn9 2.661987 1_655
Zn5 Zn6 3.034810 1_556
Zn6 Zn8 2.662001 1_555
Zn7 Zn8 2.662001 1_566
Zn10 Zn16 2.502729 1_554
Zn10 Zn18 2.502729 1_455
Zn10 Zn20 2.502729 1_455
Zn10 Zn21 2.502729 1_554
Zn10 Zn3 2.662001 1_555
Zn10 Zn5 2.662001 1_454
Zn11 Zn19 2.502714 1_555
Zn11 Zn17 2.502714 1_545
Zn11 Zn14 2.502724 1_555
Zn11 Zn15 2.502724 1_545
Zn11 Zn4 2.661987 1_545
Zn11 Zn2 2.661987 1_555
Zn11 Zn7 2.661987 1_545
Zn11 Zn6 2.661987 1_555
Zn12 Zn17 2.502729 1_545
Zn12 Zn19 2.502729 1_455
Zn12 Zn20 2.502729 1_455
Zn12 Zn21 2.502729 1_545
Zn12 Zn2 2.662001 1_555
Zn12 Zn4 2.662001 1_445
Zn13 Zn18 2.502714 1_555
Zn13 Zn16 2.502714 1_554
Zn13 Zn14 2.502725 1_555
Zn13 Zn15 2.502725 1_554
Zn13 Zn5 2.661987 1_554
Zn13 Zn3 2.661987 1_555
Zn13 Zn7 2.661987 1_554
Zn13 Zn6 2.661987 1_555
Zn14 Zn9 2.502724 1_555
Zn14 Zn6 2.697254 1_555
Zn14 Zn3 2.697254 1_555
Zn14 Zn2 2.697254 1_555
Zn14 Zn20 3.004689 1_455
Zn14 Zn16 3.004689 1_554
Zn14 Zn17 3.004689 1_545
Zn15 Zn9 2.502724 1_655
Zn15 Zn7 2.697254 1_555
Zn15 Zn5 2.697254 1_555
Zn15 Zn4 2.697254 1_555
Zn15 Zn21 3.004689 1_655
Zn15 Zn18 3.004689 1_556
Zn15 Zn19 3.004689 1_565
Zn16 Zn8 2.502729 1_556
Zn16 Zn6 2.697254 1_556
Zn16 Zn3 2.697254 1_556
Zn16 Zn20 3.004689 1_456
Zn16 Zn17 3.004689 1_546
Zn17 Zn8 2.502729 1_565
Zn17 Zn2 2.697254 1_565
Zn17 Zn6 2.697254 1_565
Zn17 Zn20 3.004689 1_465
Zn18 Zn8 2.502729 1_565
Zn18 Zn7 2.697254 1_554
Zn18 Zn5 2.697254 1_554
Zn18 Zn21 3.004689 1_654
Zn18 Zn19 3.004689 1_564
Zn19 Zn8 2.502729 1_556
Zn19 Zn4 2.697254 1_545
Zn19 Zn7 2.697254 1_545
Zn19 Zn21 3.004689 1_645
Zn20 Zn9 2.502714 1_655
Zn20 Zn3 2.697254 1_655
Zn21 Zn9 2.502714 1_555
Zn21 Zn4 2.697254 1_455
Zn21 Zn5 2.697254 1_455
Ge0 Hf3 2.628895 1_555
Ge0 Hf2 2.628895 1_555
Ge0 Hf1 2.628895 1_555
Ge0 Hf0 2.628895 1_555
Ge0 Hf5 2.628896 1_555
Ge0 Hf4 2.628896 1_555
