# generated using pymatgen
data_Sc8Si16Mo11W
_symmetry_space_group_name_H-M   'P 1'
_cell_length_a   6.54594457
_cell_length_b   6.78088438
_cell_length_c   12.62029504
_cell_angle_alpha   90.00000000
_cell_angle_beta   90.00000000
_cell_angle_gamma   90.03125037
_symmetry_Int_Tables_number   1
_chemical_formula_structural   Sc8Si16Mo11W
_chemical_formula_sum   'Sc8 Si16 Mo11 W1'
_cell_volume   560.18065396
_cell_formula_units_Z   1
loop_
 _symmetry_equiv_pos_site_id
 _symmetry_equiv_pos_as_xyz
  1  'x, y, z'
loop_
 _atom_site_type_symbol
 _atom_site_label
 _atom_site_symmetry_multiplicity
 _atom_site_fract_x
 _atom_site_fract_y
 _atom_site_fract_z
 _atom_site_occupancy
  Sc  Sc0  1  0.99641222  0.16935271  0.09277939  1
  Sc  Sc1  1  0.00405934  0.82990598  0.90693354  1
  Sc  Sc2  1  0.50309838  0.66915053  0.90674962  1
  Sc  Sc3  1  0.00405934  0.82990598  0.59306646  1
  Sc  Sc4  1  0.49618261  0.33046719  0.09289100  1
  Sc  Sc5  1  0.99641222  0.16935271  0.40722061  1
  Sc  Sc6  1  0.49618261  0.33046719  0.40710900  1
  Sc  Sc7  1  0.50309838  0.66915053  0.59325038  1
  Si  Si0  1  0.03305636  0.12444045  0.75000000  1
  Si  Si1  1  0.96653320  0.87467370  0.25000000  1
  Si  Si2  1  0.46673761  0.62531435  0.25000000  1
  Si  Si3  1  0.53408586  0.37483410  0.75000000  1
  Si  Si4  1  0.29971174  0.86231669  0.75000000  1
  Si  Si5  1  0.70030703  0.13771358  0.25000000  1
  Si  Si6  1  0.20020468  0.36235725  0.25000000  1
  Si  Si7  1  0.79913507  0.63856882  0.75000000  1
  Si  Si8  1  0.16425682  0.46319688  0.54482300  1
  Si  Si9  1  0.83585990  0.53703824  0.45480400  1
  Si  Si10  1  0.33615047  0.96294307  0.45495745  1
  Si  Si11  1  0.83585990  0.53703824  0.04519600  1
  Si  Si12  1  0.66415429  0.03695144  0.54529052  1
  Si  Si13  1  0.16425682  0.46319688  0.95517700  1
  Si  Si14  1  0.66415429  0.03695144  0.95470948  1
  Si  Si15  1  0.33615047  0.96294307  0.04504255  1
  Mo  Mo0  1  0.83402251  0.49356409  0.25000000  1
  Mo  Mo1  1  0.33407815  0.00630269  0.25000000  1
  Mo  Mo2  1  0.66556748  0.99383997  0.75000000  1
  Mo  Mo3  1  0.32925312  0.16734700  0.62368282  1
  Mo  Mo4  1  0.67060197  0.83320263  0.37651458  1
  Mo  Mo5  1  0.17057889  0.66713566  0.37634019  1
  Mo  Mo6  1  0.67060197  0.83320263  0.12348542  1
  Mo  Mo7  1  0.82995583  0.33357342  0.62371796  1
  Mo  Mo8  1  0.32925312  0.16734700  0.87631718  1
  Mo  Mo9  1  0.82995583  0.33357342  0.87628204  1
  Mo  Mo10  1  0.17057889  0.66713566  0.12365981  1
  W  W0  1  0.16543361  0.50554382  0.75000000  1
loop_
_geom_bond_atom_site_label_1
_geom_bond_atom_site_label_2
_geom_bond_distance
_geom_bond_site_symmetry_2
Sc0 Si15 2.696498 1_645
Sc0 Si6 2.725330 1_655
Sc0 Si11 2.772043 1_555
Sc0 Si5 2.781990 1_555
Sc0 Si1 2.822676 1_545
Sc0 Si13 2.861927 1_654
Sc0 Si14 2.927547 1_554
Sc1 Si14 2.699751 1_465
Sc1 Si7 2.720923 1_455
Sc1 Si13 2.767026 1_555
Sc1 Si4 2.777748 1_555
Sc1 Si0 2.819044 1_565
Sc1 Si11 2.863285 1_456
Sc1 Si15 2.928353 1_556
Sc2 Si13 2.690759 1_555
Sc2 Si4 2.720932 1_555
Sc2 Si14 2.773998 1_565
Sc2 Si7 2.777057 1_555
Sc2 Si3 2.817426 1_555
Sc2 Si15 2.865567 1_556
Sc2 Si11 2.932951 1_556
Sc3 Si12 2.699751 1_465
Sc3 Si7 2.720923 1_455
Sc3 Si8 2.767026 1_555
Sc3 Si4 2.777748 1_555
Sc3 Si0 2.819044 1_565
Sc3 Si9 2.863285 1_455
Sc3 Si10 2.928353 1_555
Sc4 Si11 2.695360 1_555
Sc4 Si5 2.725252 1_555
Sc4 Si15 2.769466 1_545
Sc4 Si6 2.780701 1_555
Sc4 Si2 2.822448 1_555
Sc4 Si14 2.865972 1_554
Sc4 Si13 2.924673 1_554
Sc5 Si10 2.696498 1_645
Sc5 Si6 2.725330 1_655
Sc5 Si9 2.772043 1_555
Sc5 Si5 2.781990 1_555
Sc5 Si1 2.822676 1_545
Sc5 Si8 2.861927 1_655
Sc5 Si12 2.927547 1_555
Sc6 Si9 2.695360 1_555
Sc6 Si5 2.725252 1_555
Sc6 Si10 2.769466 1_545
Sc6 Si6 2.780701 1_555
Sc6 Si2 2.822448 1_555
Sc6 Si12 2.865972 1_555
Sc6 Si8 2.924673 1_555
Sc7 Si8 2.690759 1_555
Sc7 Si4 2.720932 1_555
Sc7 Si12 2.773998 1_565
Sc7 Si7 2.777057 1_555
Sc7 Si3 2.817426 1_555
Sc7 Si10 2.865567 1_555
Sc7 Si9 2.932951 1_555
Si0 Si4 2.491878 1_545
Si0 W0 2.725183 1_555
Si1 Si5 2.494350 1_565
Si2 Si6 2.493993 1_555
Si3 Si7 2.490993 1_555
Si3 W0 2.571251 1_555
Si4 W0 2.573516 1_555
Si7 W0 2.562287 1_655
Si8 Si9 2.482661 1_455
Si8 W0 2.605278 1_555
Si10 Si12 2.482006 1_565
Si11 Si13 2.482661 1_654
Si13 W0 2.605278 1_555
Si14 Si15 2.482006 1_546
Mo0 Si6 2.557252 1_655
Mo0 Si2 2.565304 1_555
Mo0 Si5 2.566381 1_555
Mo0 Si9 2.601471 1_555
Mo0 Si11 2.601471 1_555
Mo0 Si1 2.725500 1_555
Mo1 Si5 2.557110 1_555
Mo1 Si1 2.565700 1_445
Mo1 Si6 2.568933 1_555
Mo1 Si10 2.603316 1_545
Mo1 Si15 2.603316 1_545
Mo1 Si2 2.725928 1_545
Mo2 Si4 2.555086 1_555
Mo2 Si0 2.562941 1_665
Mo2 Si7 2.563255 1_555
Mo2 Si14 2.599998 1_565
Mo2 Si12 2.599998 1_565
Mo2 Si3 2.723515 1_565
Mo3 Si8 2.486747 1_555
Mo3 Si3 2.513283 1_555
Mo3 Si0 2.526789 1_555
Mo3 Si10 2.541142 1_545
Mo3 Si12 2.562935 1_555
Mo3 Si4 2.618488 1_545
Mo4 Si9 2.486343 1_555
Mo4 Si2 2.513017 1_555
Mo4 Si1 2.525931 1_555
Mo4 Si12 2.539205 1_565
Mo4 Si10 2.559131 1_555
Mo4 Si5 2.617305 1_565
Mo5 Si10 2.485978 1_555
Mo5 Si1 2.511735 1_455
Mo5 Si2 2.526185 1_555
Mo5 Si8 2.536767 1_555
Mo5 Si9 2.560743 1_455
Mo5 Si6 2.617524 1_555
Mo6 Si11 2.486343 1_555
Mo6 Si2 2.513017 1_555
Mo6 Si1 2.525931 1_555
Mo6 Si14 2.539205 1_564
Mo6 Si15 2.559131 1_555
Mo6 Si5 2.617305 1_565
Mo7 Si12 2.490137 1_555
Mo7 Si0 2.514069 1_655
Mo7 Si3 2.523846 1_555
Mo7 Si9 2.539540 1_555
Mo7 Si8 2.559409 1_655
Mo7 Si7 2.618833 1_555
Mo8 Si13 2.486747 1_555
Mo8 Si3 2.513283 1_555
Mo8 Si0 2.526789 1_555
Mo8 Si15 2.541142 1_546
Mo8 Si14 2.562935 1_555
Mo8 Si4 2.618488 1_545
Mo9 Si14 2.490137 1_555
Mo9 Si0 2.514069 1_655
Mo9 Si3 2.523846 1_555
Mo9 Si11 2.539540 1_556
Mo9 Si13 2.559409 1_655
Mo9 Si7 2.618833 1_555
Mo10 Si15 2.485978 1_555
Mo10 Si1 2.511735 1_455
Mo10 Si2 2.526185 1_555
Mo10 Si13 2.536767 1_554
Mo10 Si11 2.560743 1_455
Mo10 Si6 2.617524 1_555
