# generated using pymatgen
data_Y12AlInCo4
_symmetry_space_group_name_H-M   'P 1'
_cell_length_a   8.41074079
_cell_length_b   8.41074067
_cell_length_c   8.41074085
_cell_angle_alpha   111.27966972
_cell_angle_beta   110.11073672
_cell_angle_gamma   107.05224847
_symmetry_Int_Tables_number   1
_chemical_formula_structural   Y12AlInCo4
_chemical_formula_sum   'Y12 Al1 In1 Co4'
_cell_volume   457.35737626
_cell_formula_units_Z   1
loop_
 _symmetry_equiv_pos_site_id
 _symmetry_equiv_pos_as_xyz
  1  'x, y, z'
loop_
 _atom_site_type_symbol
 _atom_site_label
 _atom_site_symmetry_multiplicity
 _atom_site_fract_x
 _atom_site_fract_y
 _atom_site_fract_z
 _atom_site_occupancy
  Y  Y0  1  0.43378580  0.22643725  0.20734855  1
  Y  Y1  1  0.56621420  0.77356275  0.79265145  1
  Y  Y2  1  0.01908870  0.22643725  0.79265145  1
  Y  Y3  1  0.98091130  0.77356275  0.20734855  1
  Y  Y4  1  0.18394969  0.28710160  0.47105129  1
  Y  Y5  1  0.81605031  0.71289840  0.52894871  1
  Y  Y6  1  0.18394969  0.71289840  0.89684908  1
  Y  Y7  1  0.81605031  0.28710160  0.10315092  1
  Y  Y8  1  0.31704984  0.61751867  0.30046983  1
  Y  Y9  1  0.68295016  0.38248133  0.69953017  1
  Y  Y10  1  0.31704984  0.01658001  0.69953017  1
  Y  Y11  1  0.68295016  0.98341999  0.30046983  1
  Al  Al0  1  0.00000000  0.00000000  0.00000000  1
  In  In0  1  0.50000000  0.50000000  0.00000000  1
  Co  Co0  1  0.38282100  0.00000000  0.38282100  1
  Co  Co1  1  0.61717900  1.00000000  0.61717900  1
  Co  Co2  1  0.10838037  0.60838037  0.50000000  1
  Co  Co3  1  0.89161963  0.39161963  0.50000000  1
loop_
_geom_bond_atom_site_label_1
_geom_bond_atom_site_label_2
_geom_bond_distance
_geom_bond_site_symmetry_2
Y0 Y9 3.424673 1_555
Y0 Y11 3.424675 1_545
Y0 Y6 3.550689 1_544
Y0 Y4 3.550690 1_555
Y0 Y5 3.558859 1_555
Y0 Y7 3.558864 1_555
Y0 Y8 3.598581 1_555
Y0 Y10 3.598589 1_554
Y1 Y8 3.424673 1_555
Y1 Y10 3.424675 1_565
Y1 Y7 3.550689 1_566
Y1 Y5 3.550690 1_555
Y1 Y4 3.558859 1_555
Y1 Y6 3.558864 1_555
Y1 Y9 3.598581 1_555
Y1 Y11 3.598589 1_556
Y2 Y9 3.424681 1_455
Y2 Y7 3.550683 1_456
Y2 Y5 3.550690 1_445
Y2 Y6 3.558856 1_555
Y2 Y4 3.558859 1_555
Y2 Y8 3.598587 1_556
Y3 Y8 3.424681 1_655
Y3 Y6 3.550683 1_654
Y3 Y4 3.550690 1_665
Y3 Y7 3.558856 1_555
Y3 Y5 3.558859 1_555
Y3 Y9 3.598587 1_554
Y4 Y7 3.544747 1_455
Y4 Y8 3.634375 1_555
Y4 Y9 3.648439 1_555
Y5 Y6 3.544747 1_655
Y5 Y9 3.634375 1_555
Y5 Y8 3.648439 1_555
Y6 Y9 3.634378 1_455
Y6 Y8 3.648439 1_556
Y7 Y8 3.634378 1_655
Y7 Y9 3.648439 1_554
Y10 Y3 3.424675 1_445
Y10 Y2 3.598589 1_555
Y10 Y5 3.634382 1_445
Y10 Y6 3.634389 1_545
Y10 Y7 3.648439 1_556
Y10 Y4 3.648441 1_555
Y11 Y2 3.424675 1_665
Y11 Y3 3.598589 1_555
Y11 Y4 3.634382 1_665
Y11 Y7 3.634389 1_565
Y11 Y6 3.648439 1_554
Y11 Y5 3.648441 1_555
Al0 Y2 3.019652 1_554
Al0 Y3 3.019652 1_445
Al0 Y0 3.019652 1_555
Al0 Y1 3.019652 1_444
Al0 Y7 3.251285 1_455
Al0 Y6 3.251285 1_544
Al0 Y5 3.251286 1_444
Al0 Y4 3.251286 1_555
In0 Y1 3.387388 1_554
In0 Y0 3.387388 1_555
In0 Y3 3.387388 1_555
In0 Y2 3.387388 1_554
In0 Y8 3.388860 1_555
In0 Y9 3.388860 1_554
In0 Y11 3.388862 1_555
In0 Y10 3.388862 1_554
In0 Y7 3.654926 1_555
In0 Y6 3.654926 1_554
In0 Y4 3.654927 1_554
In0 Y5 3.654927 1_555
Co0 Co1 2.258059 1_545
Co0 Y0 2.825853 1_555
Co0 Y3 2.825853 1_445
Co0 Y11 2.865311 1_545
Co0 Y10 2.865311 1_555
Co0 Y9 2.865316 1_555
Co0 Y8 2.865319 1_545
Co0 Y6 3.331834 1_544
Co0 Y4 3.331841 1_555
Co1 Y1 2.825853 1_555
Co1 Y2 2.825853 1_665
Co1 Y10 2.865311 1_565
Co1 Y11 2.865311 1_555
Co1 Y8 2.865316 1_555
Co1 Y9 2.865319 1_565
Co1 Y7 3.331834 1_566
Co1 Y5 3.331841 1_555
Co2 Co3 2.167528 1_455
Co2 Y8 2.818234 1_555
Co2 Y10 2.818234 1_565
Co2 Y4 2.898493 1_555
Co2 Y5 2.898493 1_455
Co2 Y7 2.898498 1_455
Co2 Y6 2.898502 1_555
Co2 Y3 3.267897 1_455
Co2 Y1 3.267897 1_555
Co3 Y9 2.818234 1_555
Co3 Y11 2.818234 1_545
Co3 Y5 2.898493 1_555
Co3 Y4 2.898493 1_655
Co3 Y6 2.898498 1_655
Co3 Y7 2.898502 1_555
Co3 Y2 3.267897 1_655
Co3 Y0 3.267897 1_555
