# generated using pymatgen
data_Mg2Hg2OF6
_symmetry_space_group_name_H-M   'P 1'
_cell_length_a   7.29910532
_cell_length_b   7.29910540
_cell_length_c   7.29910489
_cell_angle_alpha   59.99999800
_cell_angle_beta   59.99999763
_cell_angle_gamma   59.99999879
_symmetry_Int_Tables_number   1
_chemical_formula_structural   Mg2Hg2OF6
_chemical_formula_sum   'Mg4 Hg4 O2 F12'
_cell_volume   274.97540726
_cell_formula_units_Z   2
loop_
 _symmetry_equiv_pos_site_id
 _symmetry_equiv_pos_as_xyz
  1  'x, y, z'
loop_
 _atom_site_type_symbol
 _atom_site_label
 _atom_site_symmetry_multiplicity
 _atom_site_fract_x
 _atom_site_fract_y
 _atom_site_fract_z
 _atom_site_occupancy
  Mg  Mg0  1  0.12500000  0.12500000  0.12500000  1
  Mg  Mg1  1  0.62500000  0.12500000  0.12500000  1
  Mg  Mg2  1  0.12500000  0.12500000  0.62500000  1
  Mg  Mg3  1  0.12500000  0.62500000  0.12500000  1
  Hg  Hg0  1  0.62500000  0.62500000  0.62500000  1
  Hg  Hg1  1  0.12500000  0.62500000  0.62500000  1
  Hg  Hg2  1  0.62500000  0.62500000  0.12500000  1
  Hg  Hg3  1  0.62500000  0.12500000  0.62500000  1
  O  O0  1  0.75000000  0.75000000  0.75000000  1
  O  O1  1  0.50000000  0.50000000  0.50000000  1
  F  F0  1  0.44526848  0.44526848  0.05473152  1
  F  F1  1  0.44526848  0.05473152  0.44526848  1
  F  F2  1  0.80473152  0.80473152  0.19526848  1
  F  F3  1  0.05473152  0.05473152  0.44526848  1
  F  F4  1  0.19526848  0.80473152  0.19526848  1
  F  F5  1  0.19526848  0.80473152  0.80473152  1
  F  F6  1  0.05473152  0.44526848  0.05473152  1
  F  F7  1  0.80473152  0.19526848  0.80473152  1
  F  F8  1  0.19526848  0.19526848  0.80473152  1
  F  F9  1  0.44526848  0.05473152  0.05473152  1
  F  F10  1  0.05473152  0.44526848  0.44526848  1
  F  F11  1  0.80473152  0.19526848  0.19526848  1
loop_
_geom_bond_atom_site_label_1
_geom_bond_atom_site_label_2
_geom_bond_distance
_geom_bond_site_symmetry_2
Hg0 O0 2.234885 1_555
Hg0 O1 2.234885 1_555
Hg1 O0 2.234885 1_455
Hg1 O1 2.234885 1_555
Hg2 O0 2.234885 1_554
Hg2 O1 2.234885 1_555
Hg3 O1 2.234885 1_555
Hg3 O0 2.234885 1_545
F0 Mg3 1.963654 1_555
F0 Mg1 1.963654 1_555
F0 Hg0 2.602280 1_554
F0 Hg2 2.602280 1_555
F1 Mg1 1.963653 1_555
F1 Mg2 1.963654 1_555
F1 Hg0 2.602280 1_545
F1 Hg3 2.602280 1_555
F2 Mg3 1.963654 1_655
F2 Mg1 1.963654 1_565
F2 Hg0 2.602280 1_555
F2 Hg2 2.602280 1_555
F3 Mg0 1.963653 1_555
F3 Mg2 1.963654 1_555
F3 Hg3 2.602280 1_455
F3 Hg1 2.602280 1_545
F4 Mg0 1.963654 1_565
F4 Mg3 1.963654 1_555
F4 Hg1 2.602280 1_555
F4 Hg2 2.602280 1_555
F5 Mg3 1.963653 1_556
F5 Mg2 1.963654 1_565
F5 Hg0 2.602280 1_555
F5 Hg1 2.602280 1_555
F6 Mg0 1.963654 1_555
F6 Mg3 1.963654 1_555
F6 Hg1 2.602280 1_554
F6 Hg2 2.602280 1_455
F7 Mg1 1.963653 1_556
F7 Mg2 1.963654 1_655
F7 Hg0 2.602280 1_555
F7 Hg3 2.602280 1_555
F8 Mg0 1.963653 1_556
F8 Mg2 1.963654 1_555
F8 Hg3 2.602280 1_555
F8 Hg1 2.602280 1_555
F9 Mg0 1.963654 1_555
F9 Mg1 1.963654 1_555
F9 Hg3 2.602280 1_554
F9 Hg2 2.602280 1_545
F10 Mg3 1.963653 1_555
F10 Mg2 1.963654 1_555
F10 Hg0 2.602280 1_455
F10 Hg1 2.602280 1_555
F11 Mg0 1.963654 1_655
F11 Mg1 1.963654 1_555
F11 Hg3 2.602280 1_555
F11 Hg2 2.602280 1_555
