# generated using pymatgen
data_Cd(GaO2)2
_symmetry_space_group_name_H-M   'P 1'
_cell_length_a   6.10669516
_cell_length_b   6.10669526
_cell_length_c   6.10669508
_cell_angle_alpha   60.00000100
_cell_angle_beta   60.00000041
_cell_angle_gamma   60.00000089
_symmetry_Int_Tables_number   1
_chemical_formula_structural   Cd(GaO2)2
_chemical_formula_sum   'Cd2 Ga4 O8'
_cell_volume   161.02886585
_cell_formula_units_Z   2
loop_
 _symmetry_equiv_pos_site_id
 _symmetry_equiv_pos_as_xyz
  1  'x, y, z'
loop_
 _atom_site_type_symbol
 _atom_site_label
 _atom_site_symmetry_multiplicity
 _atom_site_fract_x
 _atom_site_fract_y
 _atom_site_fract_z
 _atom_site_occupancy
  Cd  Cd0  1  0.87500000  0.87500000  0.87500000  1
  Cd  Cd1  1  0.12500000  0.12500000  0.12500000  1
  Ga  Ga0  1  0.50000000  0.00000000  0.50000000  1
  Ga  Ga1  1  -0.00000000  0.50000000  0.50000000  1
  Ga  Ga2  1  0.50000000  0.50000000  0.00000000  1
  Ga  Ga3  1  0.50000000  0.50000000  0.50000000  1
  O  O0  1  0.73178931  0.73178931  0.73178931  1
  O  O1  1  0.26821069  0.26821069  0.69536894  1
  O  O2  1  0.26821069  0.69536894  0.26821069  1
  O  O3  1  0.69536894  0.26821069  0.26821069  1
  O  O4  1  0.73178931  0.30463106  0.73178931  1
  O  O5  1  0.30463106  0.73178931  0.73178931  1
  O  O6  1  0.26821069  0.26821069  0.26821069  1
  O  O7  1  0.73178931  0.73178931  0.30463106  1
loop_
_geom_bond_atom_site_label_1
_geom_bond_atom_site_label_2
_geom_bond_distance
_geom_bond_site_symmetry_2
Cd0 O7 2.142182 1_556
Cd0 O5 2.142182 1_655
Cd0 O4 2.142182 1_565
Cd0 O0 2.142187 1_555
Cd1 O1 2.142182 1_554
Cd1 O3 2.142182 1_455
Cd1 O2 2.142182 1_545
Cd1 O6 2.142187 1_555
Ga0 O6 2.014090 1_555
Ga0 O0 2.014090 1_545
Ga0 O7 2.014094 1_545
Ga0 O1 2.014094 1_555
Ga0 O5 2.014094 1_545
Ga0 O3 2.014094 1_555
Ga1 O6 2.014090 1_555
Ga1 O0 2.014090 1_455
Ga1 O7 2.014094 1_455
Ga1 O1 2.014094 1_555
Ga1 O4 2.014094 1_455
Ga1 O2 2.014094 1_555
Ga2 O6 2.014090 1_555
Ga2 O0 2.014090 1_554
Ga2 O4 2.014094 1_554
Ga2 O2 2.014094 1_555
Ga2 O5 2.014094 1_554
Ga2 O3 2.014094 1_555
Ga3 O2 2.014090 1_555
Ga3 O4 2.014090 1_555
Ga3 O3 2.014090 1_555
Ga3 O5 2.014090 1_555
Ga3 O1 2.014090 1_555
Ga3 O7 2.014090 1_555
