# generated using pymatgen
data_LiTa(SO4)3
_symmetry_space_group_name_H-M   'P 1'
_cell_length_a   8.53535769
_cell_length_b   9.31148052
_cell_length_c   8.43116937
_cell_angle_alpha   109.35601611
_cell_angle_beta   105.50036243
_cell_angle_gamma   111.30770661
_symmetry_Int_Tables_number   1
_chemical_formula_structural   LiTa(SO4)3
_chemical_formula_sum   'Li2 Ta2 S6 O24'
_cell_volume   528.60782072
_cell_formula_units_Z   2
loop_
 _symmetry_equiv_pos_site_id
 _symmetry_equiv_pos_as_xyz
  1  'x, y, z'
loop_
 _atom_site_type_symbol
 _atom_site_label
 _atom_site_symmetry_multiplicity
 _atom_site_fract_x
 _atom_site_fract_y
 _atom_site_fract_z
 _atom_site_occupancy
  Li  Li0  1  0.84076447  0.45496184  0.22051103  1
  Li  Li1  1  0.72188873  0.03294039  0.48626978  1
  Ta  Ta0  1  0.03075893  0.98828694  0.99717186  1
  Ta  Ta1  1  0.47374539  0.50884586  0.52480537  1
  S  S0  1  0.59308787  0.92742786  0.77158917  1
  S  S1  1  0.16170978  0.40255766  0.10061238  1
  S  S2  1  0.09462109  0.18850189  0.45728592  1
  S  S3  1  0.88029242  0.76575896  0.53218706  1
  S  S4  1  0.78719424  0.56250671  0.89994492  1
  S  S5  1  0.49600349  0.16585121  0.26258152  1
  O  O0  1  0.00994747  0.88331052  0.74047101  1
  O  O1  1  0.29692690  0.05829068  0.10196673  1
  O  O2  1  0.97268468  0.69144845  0.44415190  1
  O  O3  1  0.53680251  0.04703748  0.31102823  1
  O  O4  1  0.02820854  0.41051858  0.17127577  1
  O  O5  1  0.49271017  0.95926639  0.87414072  1
  O  O6  1  0.47868834  0.73211266  0.61892582  1
  O  O7  1  0.21059390  0.49693937  0.00497238  1
  O  O8  1  0.23482300  0.38078492  0.52544440  1
  O  O9  1  0.09693366  0.20931477  0.98096191  1
  O  O10  1  0.34222296  0.45897558  0.26829169  1
  O  O11  1  0.80470234  0.85628654  0.45891242  1
  O  O12  1  0.18138428  0.11708712  0.54999047  1
  O  O13  1  0.60922493  0.55475112  0.78156171  1
  O  O14  1  0.93614512  0.75791672  0.98560086  1
  O  O15  1  0.72034959  0.61821610  0.52823728  1
  O  O16  1  0.75889867  0.53449155  0.04846367  1
  O  O17  1  0.47340437  0.28262009  0.42087992  1
  O  O18  1  0.61994017  0.27356662  0.21372201  1
  O  O19  1  0.83643387  0.45641032  0.78338784  1
  O  O20  1  0.64672043  0.03117939  0.68306481  1
  O  O21  1  0.92791225  0.18453155  0.46253531  1
  O  O22  1  0.76727913  0.93284848  0.89239702  1
  O  O23  1  0.05628729  0.10294568  0.24887511  1
loop_
_geom_bond_atom_site_label_1
_geom_bond_atom_site_label_2
_geom_bond_distance
_geom_bond_site_symmetry_2
Li0 O4 1.904085 1_655
Li0 O16 1.920195 1_555
Li0 O18 1.993315 1_555
Li0 O2 1.995772 1_555
Li1 O21 1.922536 1_555
Li1 O3 1.930704 1_555
Li1 O20 1.935009 1_555
Li1 O11 1.984739 1_545
O0 S3 1.520986 1_455
O0 Ta0 1.984226 1_555
O1 S5 1.535718 1_555
O1 Ta0 1.958554 1_544
O2 S3 1.421467 1_555
O3 S5 1.419716 1_555
O4 S1 1.433116 1_555
O5 S0 1.407171 1_555
O6 S0 1.550379 1_555
O6 Ta1 1.943785 1_555
O7 S1 1.407031 1_555
O8 S2 1.536631 1_555
O8 Ta1 1.955377 1_555
O9 S1 1.528638 1_556
O9 Ta0 1.989058 1_545
O10 S1 1.550401 1_555
O10 Ta1 1.952163 1_555
O11 S3 1.426850 1_555
O12 S2 1.412294 1_555
O13 S4 1.539812 1_555
O13 Ta1 1.973705 1_555
O14 S4 1.551026 1_555
O14 Ta0 1.955326 1_655
O15 S3 1.527929 1_555
O15 Ta1 1.964293 1_555
O16 S4 1.423632 1_554
O17 S5 1.526031 1_555
O17 Ta1 1.993934 1_555
O18 S5 1.424931 1_555
O19 S4 1.413254 1_555
O20 S0 1.427972 1_545
O21 S2 1.422863 1_655
O22 S0 1.533784 1_555
O22 Ta0 1.973970 1_655
O23 S2 1.550689 1_555
O23 Ta0 1.942365 1_544
