# generated using pymatgen
data_Sc22CoTc3Ir4
_symmetry_space_group_name_H-M   'P 1'
_cell_length_a   9.44672341
_cell_length_b   9.43759246
_cell_length_c   9.43759249
_cell_angle_alpha   60.06402304
_cell_angle_beta   59.96798370
_cell_angle_gamma   59.96799535
_symmetry_Int_Tables_number   1
_chemical_formula_structural   Sc22CoTc3Ir4
_chemical_formula_sum   'Sc22 Co1 Tc3 Ir4'
_cell_volume   594.96009109
_cell_formula_units_Z   1
loop_
 _symmetry_equiv_pos_site_id
 _symmetry_equiv_pos_as_xyz
  1  'x, y, z'
loop_
 _atom_site_type_symbol
 _atom_site_label
 _atom_site_symmetry_multiplicity
 _atom_site_fract_x
 _atom_site_fract_y
 _atom_site_fract_z
 _atom_site_occupancy
  Sc  Sc0  1  0.80334046  0.80334046  0.19665954  1
  Sc  Sc1  1  0.19665954  0.80334046  0.19665954  1
  Sc  Sc2  1  0.80281131  0.19718869  0.19718869  1
  Sc  Sc3  1  0.19665954  0.19665954  0.80334046  1
  Sc  Sc4  1  0.80334046  0.19665954  0.80334046  1
  Sc  Sc5  1  0.19718869  0.80281131  0.80281131  1
  Sc  Sc6  1  0.61437332  0.61586358  0.15538979  1
  Sc  Sc7  1  0.61437332  0.15538979  0.61586358  1
  Sc  Sc8  1  0.15538979  0.61437332  0.61437332  1
  Sc  Sc9  1  0.61586358  0.61437332  0.61437332  1
  Sc  Sc10  1  0.38562668  0.38413642  0.84461021  1
  Sc  Sc11  1  0.38562668  0.84461021  0.38413642  1
  Sc  Sc12  1  0.84461021  0.38562668  0.38562668  1
  Sc  Sc13  1  0.38413642  0.38562668  0.38562668  1
  Sc  Sc14  1  0.84345629  0.84398300  0.46910341  1
  Sc  Sc15  1  0.84345629  0.46910341  0.84398300  1
  Sc  Sc16  1  0.46910341  0.84345629  0.84345629  1
  Sc  Sc17  1  0.84398300  0.84345629  0.84345629  1
  Sc  Sc18  1  0.15654371  0.15601700  0.53089659  1
  Sc  Sc19  1  0.15654371  0.53089659  0.15601700  1
  Sc  Sc20  1  0.53089659  0.15654371  0.15654371  1
  Sc  Sc21  1  0.15601700  0.15654371  0.15654371  1
  Co  Co0  1  0.50000000  0.50000000  0.50000000  1
  Tc  Tc0  1  0.00000000  0.00000000  0.00000000  1
  Tc  Tc1  1  0.00000000  0.50000000  0.50000000  1
  Tc  Tc2  1  0.50000000  0.00000000  0.00000000  1
  Ir  Ir0  1  0.00000000  0.00000000  0.50000000  1
  Ir  Ir1  1  0.50000000  0.00000000  0.50000000  1
  Ir  Ir2  1  0.50000000  0.50000000  0.00000000  1
  Ir  Ir3  1  0.00000000  0.50000000  0.00000000  1
loop_
_geom_bond_atom_site_label_1
_geom_bond_atom_site_label_2
_geom_bond_distance
_geom_bond_site_symmetry_2
Sc0 Tc0 2.627309 1_665
Sc0 Sc14 3.001174 1_555
Sc0 Sc19 3.001180 1_655
Sc0 Sc20 3.001180 1_565
Sc0 Sc17 3.001183 1_554
Sc0 Sc9 3.318759 1_555
Sc0 Sc11 3.318759 1_555
Sc0 Sc6 3.318759 1_555
Sc0 Sc12 3.318759 1_555
Sc1 Tc0 2.627310 1_565
Sc1 Sc19 3.001173 1_555
Sc1 Sc16 3.001179 1_554
Sc1 Sc14 3.001179 1_455
Sc1 Sc21 3.001183 1_565
Sc1 Sc8 3.318759 1_555
Sc1 Sc11 3.318759 1_555
Sc1 Sc6 3.318759 1_555
Sc1 Sc13 3.318759 1_555
Sc2 Tc0 2.629284 1_655
Sc2 Sc20 3.001990 1_555
Sc2 Sc21 3.001999 1_655
Sc2 Sc7 3.323211 1_555
Sc2 Sc6 3.323211 1_555
Sc3 Tc0 2.627309 1_556
Sc3 Sc7 3.318759 1_555
Sc3 Sc8 3.318759 1_555
Sc4 Tc0 2.627310 1_656
Sc4 Sc7 3.318759 1_555
Sc4 Sc9 3.318759 1_555
Sc5 Tc0 2.629284 1_566
Sc5 Sc9 3.323211 1_555
Sc5 Sc8 3.323211 1_555
Sc6 Tc2 2.969842 1_565
Sc7 Tc2 2.969842 1_556
Sc8 Tc1 2.969842 1_555
Sc9 Tc1 2.969842 1_655
Sc10 Tc2 2.969842 1_556
Sc10 Sc7 3.050072 1_555
Sc10 Sc9 3.075892 1_555
Sc10 Sc8 3.075893 1_555
Sc10 Sc19 3.152008 1_556
Sc10 Sc21 3.153686 1_556
Sc10 Sc20 3.153691 1_556
Sc10 Sc3 3.318759 1_555
Sc10 Sc4 3.318759 1_555
Sc10 Sc5 3.323211 1_555
Sc11 Tc2 2.969842 1_565
Sc11 Sc6 3.050072 1_555
Sc11 Sc8 3.075892 1_555
Sc11 Sc9 3.075893 1_555
Sc11 Sc18 3.152008 1_565
Sc11 Sc21 3.153686 1_565
Sc11 Sc20 3.153691 1_565
Sc11 Sc5 3.323211 1_555
Sc12 Tc1 2.969842 1_655
Sc12 Sc9 3.050072 1_555
Sc12 Sc7 3.075892 1_555
Sc12 Sc6 3.075893 1_555
Sc12 Sc21 3.152003 1_655
Sc12 Sc19 3.153691 1_655
Sc12 Sc18 3.153691 1_655
Sc12 Sc4 3.318759 1_555
Sc12 Sc2 3.323211 1_555
Sc13 Tc1 2.969842 1_555
Sc13 Sc8 3.050072 1_555
Sc13 Sc6 3.075892 1_555
Sc13 Sc7 3.075893 1_555
Sc13 Sc20 3.152000 1_555
Sc13 Sc18 3.153683 1_555
Sc13 Sc19 3.153684 1_555
Sc13 Sc3 3.318759 1_555
Sc13 Sc2 3.323211 1_555
Sc14 Tc1 2.737201 1_655
Sc14 Sc2 3.001996 1_565
Sc14 Sc7 3.152008 1_565
Sc14 Sc9 3.153683 1_555
Sc14 Sc8 3.153691 1_655
Sc15 Tc1 2.737200 1_655
Sc15 Sc4 3.001173 1_555
Sc15 Sc3 3.001180 1_655
Sc15 Sc2 3.001996 1_556
Sc15 Sc6 3.152008 1_556
Sc15 Sc9 3.153684 1_555
Sc15 Sc8 3.153691 1_655
Sc16 Tc2 2.737209 1_566
Sc16 Sc3 3.001180 1_565
Sc16 Sc5 3.001990 1_555
Sc16 Sc9 3.152000 1_555
Sc16 Sc7 3.153691 1_565
Sc16 Sc6 3.153691 1_556
Sc17 Tc2 2.737203 1_566
Sc17 Sc4 3.001183 1_565
Sc17 Sc5 3.001999 1_655
Sc17 Sc8 3.152003 1_655
Sc17 Sc6 3.153686 1_556
Sc17 Sc7 3.153686 1_565
Sc18 Tc1 2.737201 1_555
Sc18 Sc3 3.001174 1_555
Sc18 Sc4 3.001179 1_455
Sc18 Sc5 3.001996 1_545
Sc19 Tc1 2.737200 1_555
Sc19 Sc5 3.001996 1_554
Sc20 Tc2 2.737209 1_555
Sc20 Sc4 3.001179 1_554
Sc21 Tc2 2.737203 1_555
Sc21 Sc3 3.001183 1_554
Co0 Sc10 2.656368 1_555
Co0 Sc6 2.656368 1_555
Co0 Sc12 2.656368 1_555
Co0 Sc8 2.656368 1_555
Co0 Sc9 2.656368 1_555
Co0 Sc13 2.656368 1_555
Co0 Sc11 2.656368 1_555
Co0 Sc7 2.656368 1_555
Ir0 Sc17 2.734896 1_445
Ir0 Sc21 2.734896 1_555
Ir0 Sc18 2.734902 1_555
Ir0 Sc14 2.734902 1_445
Ir0 Sc11 2.980402 1_545
Ir0 Sc7 2.980402 1_455
Ir0 Sc12 2.980402 1_455
Ir0 Sc8 2.980402 1_545
Ir1 Sc16 2.734894 1_545
Ir1 Sc20 2.734894 1_555
Ir1 Sc14 2.734894 1_545
Ir1 Sc18 2.734894 1_555
Ir1 Sc7 2.980402 1_555
Ir1 Sc11 2.980402 1_545
Ir1 Sc13 2.980402 1_555
Ir1 Sc9 2.980402 1_545
Ir2 Sc15 2.734893 1_554
Ir2 Sc19 2.734893 1_555
Ir2 Sc16 2.734894 1_554
Ir2 Sc20 2.734894 1_555
Ir2 Sc13 2.980402 1_555
Ir2 Sc9 2.980402 1_554
Ir2 Sc6 2.980402 1_555
Ir2 Sc10 2.980402 1_554
Ir3 Sc17 2.734896 1_454
Ir3 Sc21 2.734896 1_555
Ir3 Sc19 2.734902 1_555
Ir3 Sc15 2.734902 1_454
Ir3 Sc12 2.980402 1_455
Ir3 Sc8 2.980402 1_554
Ir3 Sc10 2.980402 1_554
Ir3 Sc6 2.980402 1_455
