# generated using pymatgen
data_Re18Tc6W5
_symmetry_space_group_name_H-M   'P 1'
_cell_length_a   8.30627057
_cell_length_b   8.30627012
_cell_length_c   8.28440532
_cell_angle_alpha   109.47824915
_cell_angle_beta   109.47825298
_cell_angle_gamma   109.56387369
_symmetry_Int_Tables_number   1
_chemical_formula_structural   Re18Tc6W5
_chemical_formula_sum   'Re18 Tc6 W5'
_cell_volume   439.41820545
_cell_formula_units_Z   1
loop_
 _symmetry_equiv_pos_site_id
 _symmetry_equiv_pos_as_xyz
  1  'x, y, z'
loop_
 _atom_site_type_symbol
 _atom_site_label
 _atom_site_symmetry_multiplicity
 _atom_site_fract_x
 _atom_site_fract_y
 _atom_site_fract_z
 _atom_site_occupancy
  Re  Re0  1  0.31594834  0.31594834  0.72035801  1
  Re  Re1  1  0.00201854  0.68533412  0.40175407  1
  Re  Re2  1  0.68533412  0.00201854  0.40175407  1
  Re  Re3  1  0.59558933  0.59558933  0.27964199  1
  Re  Re4  1  0.28358005  0.60026447  0.59824593  1
  Re  Re5  1  0.60026447  0.28358005  0.59824593  1
  Re  Re6  1  0.37626646  0.19335666  1.00000000  1
  Re  Re7  1  0.17995912  0.80654040  0.80550405  1
  Re  Re8  1  0.37445507  0.00103634  0.19449595  1
  Re  Re9  1  0.19335666  0.37626646  0.00000000  1
  Re  Re10  1  0.00103634  0.37445507  0.19449595  1
  Re  Re11  1  0.80654040  0.17995912  0.80550405  1
  Re  Re12  1  0.80609980  0.80609980  0.18225418  1
  Re  Re13  1  0.00125984  0.19403059  0.37904794  1
  Re  Re14  1  0.19403059  0.00125984  0.37904794  1
  Re  Re15  1  0.62384562  0.62384562  0.81774582  1
  Re  Re16  1  0.81498265  0.62221289  0.62095206  1
  Re  Re17  1  0.62221289  0.81498265  0.62095206  1
  Tc  Tc0  1  0.40088325  0.68659080  1.00000000  1
  Tc  Tc1  1  0.71767576  0.31470996  0.31252502  1
  Tc  Tc2  1  0.40515074  0.00218394  0.68747498  1
  Tc  Tc3  1  0.68659080  0.40088325  0.00000000  1
  Tc  Tc4  1  0.00218394  0.40515074  0.68747498  1
  Tc  Tc5  1  0.31470996  0.71767576  0.31252502  1
  W  W0  1  0.00013344  0.00013344  1.00000000  1
  W  W1  1  0.63934733  0.99827583  1.00000000  1
  W  W2  1  0.99827583  0.63934733  1.00000000  1
  W  W3  1  0.99848754  0.99848754  0.63871044  1
  W  W4  1  0.35977710  0.35977710  0.36128956  1
loop_
_geom_bond_atom_site_label_1
_geom_bond_atom_site_label_2
_geom_bond_distance
_geom_bond_site_symmetry_2
Re0 Re15 2.569006 1_555
Re0 Re13 2.691029 1_555
Re0 Re14 2.691029 1_555
Re0 W3 2.707110 1_445
Re0 Re6 2.792077 1_555
Re0 Re9 2.792077 1_556
Re0 Tc0 2.835799 1_555
Re0 Tc3 2.835799 1_556
Re0 Tc2 2.893081 1_555
Re0 Tc4 2.893082 1_555
Re0 Re4 2.917184 1_555
Re0 Re5 2.917184 1_555
Re0 W4 3.235642 1_555
Re1 Re10 2.576020 1_555
Re1 Re14 2.681728 1_565
Re1 Re12 2.701374 1_455
Re1 W3 2.702688 1_455
Re1 Re7 2.801202 1_555
Re1 Re4 2.820226 1_555
Re1 Re16 2.820803 1_455
Re1 Tc1 2.837333 1_455
Re1 Tc5 2.882728 1_555
Re1 Tc3 2.884245 1_455
Re1 Tc2 2.898201 1_565
Re1 Re3 2.917190 1_455
Re1 W2 3.209300 1_454
Re2 Re8 2.576020 1_555
Re2 W3 2.702688 1_545
Re2 Re5 2.820227 1_555
Re2 Tc5 2.837333 1_545
Re2 Tc1 2.882728 1_555
Re2 Tc0 2.884245 1_544
Re2 Tc4 2.898201 1_655
Re2 Re3 2.917190 1_545
Re2 W1 3.209299 1_544
Re3 W4 2.707100 1_555
Re3 Re6 2.792071 1_554
Re3 Re9 2.792071 1_555
Re3 Tc0 2.835802 1_554
Re3 Tc3 2.835802 1_555
Re3 Tc1 2.893070 1_555
Re3 Tc5 2.893071 1_555
Re3 W3 3.235649 1_555
Re4 Re7 2.576020 1_555
Re4 W4 2.702688 1_555
Re4 Tc4 2.837340 1_555
Re4 Tc2 2.882720 1_565
Re4 Tc0 2.884245 1_555
Re4 Tc5 2.898203 1_555
Re4 W1 3.209299 1_555
Re5 W4 2.702688 1_555
Re5 Re8 2.801202 1_555
Re5 Tc2 2.837339 1_555
Re5 Tc4 2.882720 1_655
Re5 Tc3 2.884245 1_556
Re5 Tc1 2.898203 1_555
Re5 W2 3.209299 1_555
Re6 Re9 2.482421 1_556
Re6 Tc3 2.576798 1_556
Re6 Re7 2.620114 1_545
Re6 Re8 2.620114 1_556
Re6 Tc1 2.685150 1_556
Re6 Tc2 2.685152 1_555
Re6 W3 2.920449 1_445
Re6 W4 2.920449 1_556
Re6 W0 2.996457 1_555
Re6 W1 3.126064 1_545
Re7 Re8 2.629249 1_566
Re7 Tc0 2.698063 1_555
Re7 Tc2 2.709138 1_565
Re7 Tc4 2.796122 1_555
Re7 W3 2.900540 1_455
Re7 W2 2.917642 1_455
Re7 W0 2.983085 1_565
Re7 W1 3.132316 1_555
Re8 Tc0 2.698063 1_544
Re8 Tc1 2.709142 1_555
Re8 Tc5 2.796122 1_545
Re8 W4 2.900540 1_555
Re8 W2 2.917642 1_444
Re8 W0 2.983085 1_554
Re8 W1 3.132316 1_544
Re9 Tc0 2.576798 1_554
Re9 Tc5 2.685150 1_555
Re9 Tc4 2.685152 1_554
Re9 W3 2.920449 1_444
Re9 W4 2.920449 1_555
Re9 W0 2.996457 1_554
Re9 W2 3.126064 1_454
Re10 Re13 2.472154 1_555
Re10 Re9 2.620114 1_555
Re10 Re11 2.629249 1_454
Re10 Tc3 2.698063 1_455
Re10 Tc5 2.709142 1_555
Re10 Tc1 2.796122 1_455
Re10 Re4 2.801202 1_555
Re10 W4 2.900540 1_555
Re10 W1 2.917642 1_444
Re10 W0 2.983085 1_554
Re10 W2 3.132316 1_454
Re11 Re17 2.472154 1_545
Re11 Re5 2.576020 1_555
Re11 Re9 2.620114 1_656
Re11 Tc3 2.698063 1_556
Re11 Tc4 2.709138 1_655
Re11 Tc2 2.796122 1_555
Re11 Re2 2.801202 1_555
Re11 W3 2.900540 1_545
Re11 W1 2.917642 1_545
Re11 W0 2.983085 1_655
Re11 W2 3.132316 1_555
Re12 Re15 2.463761 1_554
Re12 Re3 2.569016 1_555
Re12 Re13 2.627652 1_665
Re12 Re14 2.627652 1_665
Re12 Re2 2.701374 1_565
Re12 Tc3 2.822698 1_555
Re12 Tc0 2.822698 1_554
Re12 W1 2.905099 1_554
Re12 W2 2.905100 1_554
Re12 W0 2.996819 1_664
Re12 W3 3.104297 1_555
Re13 Tc4 2.567814 1_555
Re13 Re14 2.616253 1_555
Re13 Re2 2.681728 1_455
Re13 Tc1 2.817980 1_455
Re13 Re4 2.820804 1_555
Re13 W4 2.909760 1_555
Re13 W1 2.927017 1_444
Re13 W0 3.008699 1_554
Re13 W3 3.099067 1_445
Re14 Re8 2.472154 1_555
Re14 Tc2 2.567814 1_555
Re14 Tc5 2.817979 1_545
Re14 Re5 2.820804 1_555
Re14 W4 2.909760 1_555
Re14 W2 2.927017 1_444
Re14 W0 3.008699 1_554
Re14 W3 3.099067 1_445
Re15 Re17 2.627652 1_555
Re15 Re16 2.627652 1_555
Re15 Re5 2.701374 1_555
Re15 Re4 2.701374 1_555
Re15 Tc3 2.822698 1_556
Re15 Tc0 2.822698 1_555
Re15 W1 2.905099 1_555
Re15 W2 2.905099 1_555
Re15 W0 2.996819 1_665
Re15 W4 3.104297 1_555
Re16 Re7 2.472154 1_655
Re16 Tc1 2.567814 1_555
Re16 Re17 2.616239 1_555
Re16 Re5 2.681734 1_555
Re16 Re3 2.691024 1_555
Re16 Tc4 2.817981 1_655
Re16 W3 2.909753 1_555
Re16 W2 2.927021 1_555
Re16 W0 3.008695 1_665
Re16 W4 3.099067 1_555
Re17 Tc5 2.567814 1_555
Re17 Re4 2.681734 1_555
Re17 Re3 2.691024 1_555
Re17 Tc2 2.817981 1_565
Re17 Re2 2.820803 1_565
Re17 W3 2.909753 1_555
Re17 W1 2.927022 1_555
Re17 W0 3.008695 1_665
Re17 W4 3.099067 1_555
Tc0 W1 2.681725 1_555
Tc0 Tc5 2.862903 1_556
Tc0 Tc4 2.862908 1_555
Tc0 W2 3.233971 1_455
Tc1 W1 2.688514 1_544
Tc1 Tc4 2.856074 1_655
Tc1 Tc3 2.862903 1_555
Tc1 W4 3.253651 1_555
Tc2 W1 2.688509 1_545
Tc2 Tc5 2.856074 1_545
Tc2 Tc3 2.862908 1_556
Tc2 W3 3.253655 1_445
Tc3 W2 2.681725 1_554
Tc3 W1 3.233970 1_544
Tc4 W2 2.688509 1_455
Tc4 W3 3.253654 1_445
Tc5 W2 2.688514 1_454
Tc5 W4 3.253651 1_555
W0 W4 2.983979 1_556
W0 W3 2.983980 1_445
W0 W2 2.991655 1_445
W0 W1 2.991656 1_445
