# generated using pymatgen
data_BaZnF4
_symmetry_space_group_name_H-M   'P 1'
_cell_length_a   4.22420674
_cell_length_b   5.84499073
_cell_length_c   7.54530467
_cell_angle_alpha   90.00000000
_cell_angle_beta   106.25560401
_cell_angle_gamma   90.00000000
_symmetry_Int_Tables_number   1
_chemical_formula_structural   BaZnF4
_chemical_formula_sum   'Ba2 Zn2 F8'
_cell_volume   178.84927126
_cell_formula_units_Z   2
loop_
 _symmetry_equiv_pos_site_id
 _symmetry_equiv_pos_as_xyz
  1  'x, y, z'
loop_
 _atom_site_type_symbol
 _atom_site_label
 _atom_site_symmetry_multiplicity
 _atom_site_fract_x
 _atom_site_fract_y
 _atom_site_fract_z
 _atom_site_occupancy
  Ba  Ba0  1  0.85454513  0.96284270  0.70909026  1
  Ba  Ba1  1  0.14545487  0.46284270  0.29090974  1
  Zn  Zn0  1  0.41206361  0.50001728  0.82412621  1
  Zn  Zn1  1  0.58793639  0.00001728  0.17587379  1
  F  F0  1  0.92374024  0.51041810  0.84748149  1
  F  F1  1  0.07625976  0.01041810  0.15251851  1
  F  F2  1  0.47194341  0.82256522  0.94388581  1
  F  F3  1  0.52805659  0.32256522  0.05611419  1
  F  F4  1  0.69870073  0.20199440  0.39740245  1
  F  F5  1  0.30129927  0.70199440  0.60259755  1
  F  F6  1  0.66919951  0.73064130  0.33839802  1
  F  F7  1  0.33080049  0.23064130  0.66160198  1
loop_
_geom_bond_atom_site_label_1
_geom_bond_atom_site_label_2
_geom_bond_distance
_geom_bond_site_symmetry_2
Ba0 F7 2.651302 1_665
Ba0 F7 2.651305 1_565
Ba0 F4 2.655455 1_565
Ba0 F5 2.716726 1_555
Ba0 F5 2.716729 1_655
Ba0 F0 2.828050 1_555
Ba0 F2 2.833001 1_555
Ba0 F2 2.833004 1_655
Ba0 F6 3.008682 1_555
Ba0 F1 3.224059 1_666
Ba0 F0 3.353892 1_565
Ba1 F6 2.651302 1_455
Ba1 F6 2.651305 1_555
Ba1 F5 2.655455 1_555
Ba1 F4 2.716726 1_555
Ba1 F4 2.716729 1_455
Ba1 F1 2.828050 1_555
Ba1 F3 2.833001 1_555
Ba1 F3 2.833004 1_455
Ba1 F7 3.008682 1_555
Ba1 F0 3.224059 1_454
Ba1 F1 3.353892 1_565
F0 Zn0 2.119736 1_555
F0 Zn0 2.119744 1_655
F1 Zn1 2.119736 1_555
F1 Zn1 2.119744 1_455
F2 Zn1 1.974761 1_566
F2 Zn0 2.075300 1_555
F3 Zn0 1.974761 1_554
F3 Zn1 2.075300 1_555
F4 Zn1 1.992160 1_555
F5 Zn0 1.992160 1_555
F6 Zn1 1.965965 1_565
F7 Zn0 1.965965 1_555
