# generated using pymatgen
data_ZrGa2Ni2Pd
_symmetry_space_group_name_H-M   'P 1'
_cell_length_a   5.00968138
_cell_length_b   4.86960236
_cell_length_c   4.86960338
_cell_angle_alpha   61.53125363
_cell_angle_beta   59.04379107
_cell_angle_gamma   59.04378447
_symmetry_Int_Tables_number   1
_chemical_formula_structural   ZrGa2Ni2Pd
_chemical_formula_sum   'Zr1 Ga2 Ni2 Pd1'
_cell_volume   83.65092192
_cell_formula_units_Z   1
loop_
 _symmetry_equiv_pos_site_id
 _symmetry_equiv_pos_as_xyz
  1  'x, y, z'
loop_
 _atom_site_type_symbol
 _atom_site_label
 _atom_site_symmetry_multiplicity
 _atom_site_fract_x
 _atom_site_fract_y
 _atom_site_fract_z
 _atom_site_occupancy
  Zr  Zr0  1  0.76132037  0.73867963  0.73867963  1
  Ga  Ga0  1  0.12159791  0.13108450  0.13108450  1
  Ga  Ga1  1  0.61623410  0.13108450  0.13108450  1
  Ni  Ni0  1  0.12117822  0.63116400  0.12647955  1
  Ni  Ni1  1  0.12117822  0.12647955  0.63116400  1
  Pd  Pd0  1  0.50849118  0.49150882  0.49150882  1
loop_
_geom_bond_atom_site_label_1
_geom_bond_atom_site_label_2
_geom_bond_distance
_geom_bond_site_symmetry_2
Ga0 Ni0 2.423504 1_555
Ga0 Ni1 2.423504 1_555
Ga0 Ni0 2.446270 1_545
Ga0 Ni1 2.446270 1_554
Ga0 Ga1 2.477970 1_555
Ga0 Ga1 2.531712 1_455
Ga0 Pd0 2.727612 1_455
Ga0 Zr0 2.885718 1_454
Ga0 Zr0 2.885719 1_445
Ga0 Zr0 2.907649 1_544
Ga0 Pd0 2.935175 1_545
Ga0 Pd0 2.935176 1_554
Ga1 Ni0 2.423507 1_555
Ga1 Ni1 2.423507 1_555
Ga1 Ni0 2.446268 1_645
Ga1 Ni1 2.446268 1_654
Ga1 Pd0 2.727609 1_555
Ga1 Zr0 2.885716 1_554
Ga1 Zr0 2.885716 1_545
Ga1 Zr0 2.907651 1_544
Ga1 Pd0 2.935177 1_545
Ga1 Pd0 2.935178 1_554
Ni0 Ni1 2.467598 1_564
Ni0 Ni1 2.514273 1_555
Ni0 Zr0 2.720207 1_455
Ni0 Pd0 2.874578 1_554
Ni0 Pd0 2.902626 1_555
Ni0 Pd0 2.902626 1_455
Ni0 Zr0 2.946019 1_454
Ni0 Zr0 2.946019 1_554
Ni1 Zr0 2.720206 1_455
Ni1 Pd0 2.874578 1_545
Ni1 Pd0 2.902625 1_555
Ni1 Pd0 2.902626 1_455
Ni1 Zr0 2.946018 1_445
Ni1 Zr0 2.946019 1_545
Pd0 Zr0 3.003253 1_555
Pd0 Zr0 3.003254 1_455
Pd0 Zr0 3.012839 1_545
Pd0 Zr0 3.012839 1_554
