# generated using pymatgen
data_Li3CdGePt3
_symmetry_space_group_name_H-M   'P 1'
_cell_length_a   6.92163424
_cell_length_b   6.92163372
_cell_length_c   6.92163455
_cell_angle_alpha   62.10420558
_cell_angle_beta   62.10420629
_cell_angle_gamma   62.10421203
_symmetry_Int_Tables_number   1
_chemical_formula_structural   Li3CdGePt3
_chemical_formula_sum   'Li6 Cd2 Ge2 Pt6'
_cell_volume   245.51057047
_cell_formula_units_Z   2
loop_
 _symmetry_equiv_pos_site_id
 _symmetry_equiv_pos_as_xyz
  1  'x, y, z'
loop_
 _atom_site_type_symbol
 _atom_site_label
 _atom_site_symmetry_multiplicity
 _atom_site_fract_x
 _atom_site_fract_y
 _atom_site_fract_z
 _atom_site_occupancy
  Li  Li0  1  0.56282811  0.83642936  0.34180924  1
  Li  Li1  1  0.34180924  0.56282811  0.83642936  1
  Li  Li2  1  0.83642936  0.34180924  0.56282811  1
  Li  Li3  1  0.65819076  0.16357064  0.43717189  1
  Li  Li4  1  0.16357064  0.43717189  0.65819076  1
  Li  Li5  1  0.43717189  0.65819076  0.16357064  1
  Cd  Cd0  1  0.28147881  0.28147881  0.28147881  1
  Cd  Cd1  1  0.71852119  0.71852119  0.71852119  1
  Ge  Ge0  1  0.90051038  0.90051038  0.90051038  1
  Ge  Ge1  1  0.09948962  0.09948962  0.09948962  1
  Pt  Pt0  1  0.88629007  0.50000000  0.11370993  1
  Pt  Pt1  1  0.11370993  0.88629007  0.50000000  1
  Pt  Pt2  1  0.50000000  0.11370993  0.88629007  1
  Pt  Pt3  1  0.26778151  1.00000000  0.73221849  1
  Pt  Pt4  1  0.73221849  0.26778151  0.00000000  1
  Pt  Pt5  1  0.00000000  0.73221849  0.26778151  1
loop_
_geom_bond_atom_site_label_1
_geom_bond_atom_site_label_2
_geom_bond_distance
_geom_bond_site_symmetry_2
Li0 Pt5 2.606113 1_655
Li0 Pt1 2.673255 1_555
Li0 Li5 2.689385 1_555
Li0 Pt0 2.860414 1_555
Li0 Pt3 2.879246 1_555
Li0 Pt2 2.941649 1_564
Li0 Li3 3.033722 1_565
Li0 Li1 3.064457 1_555
Li0 Li2 3.064457 1_555
Li0 Pt4 3.155385 1_565
Li1 Pt3 2.606113 1_555
Li1 Pt2 2.673255 1_555
Li1 Li4 2.689386 1_555
Li1 Pt1 2.860414 1_555
Li1 Pt4 2.879246 1_556
Li1 Pt0 2.941649 1_456
Li1 Li5 3.033722 1_556
Li1 Li2 3.064457 1_555
Li1 Pt5 3.155385 1_556
Li2 Pt4 2.606113 1_556
Li2 Pt0 2.673255 1_555
Li2 Li3 2.689385 1_555
Li2 Pt2 2.860413 1_555
Li2 Pt5 2.879246 1_655
Li2 Pt1 2.941649 1_645
Li2 Li4 3.033722 1_655
Li2 Pt3 3.155385 1_645
Li3 Pt4 2.606113 1_555
Li3 Pt2 2.673255 1_555
Li3 Pt0 2.860413 1_555
Li3 Pt3 2.879246 1_545
Li3 Pt1 2.941649 1_645
Li3 Li5 3.064457 1_555
Li3 Li4 3.064457 1_555
Li3 Pt5 3.155385 1_645
Li4 Pt3 2.606113 1_545
Li4 Pt1 2.673255 1_555
Li4 Pt2 2.860414 1_555
Li4 Pt5 2.879246 1_555
Li4 Pt0 2.941649 1_456
Li4 Li5 3.064457 1_555
Li4 Pt4 3.155385 1_456
Li5 Pt5 2.606113 1_555
Li5 Pt0 2.673255 1_555
Li5 Pt1 2.860414 1_555
Li5 Pt4 2.879246 1_555
Li5 Pt2 2.941649 1_564
Li5 Pt3 3.155385 1_554
Cd0 Li1 2.720282 1_554
Cd0 Li0 2.720282 1_545
Cd0 Li2 2.720282 1_455
Cd0 Pt5 2.783283 1_555
Cd0 Pt4 2.783283 1_555
Cd0 Pt3 2.783283 1_545
Cd0 Li5 2.905406 1_555
Cd0 Li4 2.905406 1_555
Cd0 Li3 2.905406 1_555
Cd0 Pt1 2.928428 1_545
Cd0 Pt2 2.928428 1_554
Cd0 Pt0 2.928428 1_455
Cd0 Ge1 3.035549 1_555
Cd1 Li3 2.720282 1_565
Cd1 Li5 2.720282 1_556
Cd1 Li4 2.720282 1_655
Cd1 Pt4 2.783283 1_556
Cd1 Pt5 2.783283 1_655
Cd1 Pt3 2.783283 1_555
Cd1 Li1 2.905406 1_555
Cd1 Li2 2.905406 1_555
Cd1 Li0 2.905406 1_555
Cd1 Pt1 2.928428 1_655
Cd1 Pt2 2.928428 1_565
Cd1 Pt0 2.928428 1_556
Cd1 Ge0 3.035549 1_555
Ge0 Pt0 2.482702 1_556
Ge0 Pt1 2.482702 1_655
Ge0 Pt2 2.482702 1_565
Ge0 Pt3 2.531806 1_655
Ge0 Pt4 2.531806 1_566
Ge0 Pt5 2.531807 1_656
Ge0 Li2 2.830482 1_565
Ge0 Li0 2.830482 1_556
Ge0 Li1 2.830482 1_655
Ge1 Pt0 2.482702 1_455
Ge1 Pt2 2.482702 1_554
Ge1 Pt1 2.482702 1_545
Ge1 Pt5 2.531806 1_545
Ge1 Pt3 2.531807 1_544
Ge1 Pt4 2.531807 1_455
Ge1 Li4 2.830482 1_554
Ge1 Li5 2.830482 1_545
Ge1 Li3 2.830482 1_455
Pt0 Pt4 2.813065 1_555
Pt0 Pt5 2.813065 1_655
Pt1 Pt5 2.813065 1_555
Pt1 Pt3 2.813065 1_555
Pt2 Pt4 2.813065 1_556
Pt2 Pt3 2.813065 1_545
