# generated using pymatgen
data_Cs4RhO4
_symmetry_space_group_name_H-M   'P 1'
_cell_length_a   6.18323868
_cell_length_b   6.18323960
_cell_length_c   6.68082029
_cell_angle_alpha   74.73299629
_cell_angle_beta   74.73299291
_cell_angle_gamma   65.97327520
_symmetry_Int_Tables_number   1
_chemical_formula_structural   Cs4RhO4
_chemical_formula_sum   'Cs4 Rh1 O4'
_cell_volume   221.49974630
_cell_formula_units_Z   1
loop_
 _symmetry_equiv_pos_site_id
 _symmetry_equiv_pos_as_xyz
  1  'x, y, z'
loop_
 _atom_site_type_symbol
 _atom_site_label
 _atom_site_symmetry_multiplicity
 _atom_site_fract_x
 _atom_site_fract_y
 _atom_site_fract_z
 _atom_site_occupancy
  Cs  Cs0  1  0.18958057  0.18958057  0.41244951  1
  Cs  Cs1  1  0.38313573  0.38313573  0.84465393  1
  Cs  Cs2  1  0.61686427  0.61686427  0.15534607  1
  Cs  Cs3  1  0.81041943  0.81041943  0.58755049  1
  Rh  Rh0  1  0.00000000  0.00000000  0.00000000  1
  O  O0  1  0.69230354  0.09452254  0.18105368  1
  O  O1  1  0.30769646  0.90547746  0.81894632  1
  O  O2  1  0.09452254  0.69230354  0.18105368  1
  O  O3  1  0.90547746  0.30769646  0.81894632  1
loop_
_geom_bond_atom_site_label_1
_geom_bond_atom_site_label_2
_geom_bond_distance
_geom_bond_site_symmetry_2
Cs0 O3 2.912368 1_455
Cs0 O1 2.912368 1_545
Cs0 O0 2.976211 1_555
Cs0 O2 2.976212 1_555
Cs1 O3 3.033429 1_555
Cs1 O1 3.033430 1_555
Cs1 O2 3.043420 1_556
Cs1 O0 3.043420 1_556
Cs1 O3 3.225105 1_455
Cs1 O1 3.225105 1_545
Cs2 O2 3.033429 1_555
Cs2 O0 3.033430 1_555
Cs2 O3 3.043420 1_554
Cs2 O1 3.043420 1_554
Cs2 O2 3.225105 1_655
Cs2 O0 3.225105 1_565
Cs3 O2 2.912368 1_655
Cs3 O0 2.912368 1_565
Cs3 O1 2.976211 1_555
Cs3 O3 2.976212 1_555
O0 Rh0 1.918145 1_655
O1 Rh0 1.918145 1_566
O2 Rh0 1.918145 1_565
O3 Rh0 1.918145 1_656
