# generated using pymatgen
data_AsPOsCl13
_symmetry_space_group_name_H-M   'P 1'
_cell_length_a   9.44739253
_cell_length_b   9.44739225
_cell_length_c   11.61013061
_cell_angle_alpha   90.00000000
_cell_angle_beta   90.00000000
_cell_angle_gamma   115.35237348
_symmetry_Int_Tables_number   1
_chemical_formula_structural   AsPOsCl13
_chemical_formula_sum   'As2 P2 Os2 Cl26'
_cell_volume   936.44273357
_cell_formula_units_Z   2
loop_
 _symmetry_equiv_pos_site_id
 _symmetry_equiv_pos_as_xyz
  1  'x, y, z'
loop_
 _atom_site_type_symbol
 _atom_site_label
 _atom_site_symmetry_multiplicity
 _atom_site_fract_x
 _atom_site_fract_y
 _atom_site_fract_z
 _atom_site_occupancy
  As  As0  1  0.54958052  0.45041948  0.84901686  1
  As  As1  1  0.45041948  0.54958052  0.34901686  1
  P  P0  1  0.13762132  0.86237868  0.03489612  1
  P  P1  1  0.86237868  0.13762132  0.53489612  1
  Os  Os0  1  0.78855190  0.21144810  0.99599014  1
  Os  Os1  1  0.21144810  0.78855190  0.49599014  1
  Cl  Cl0  1  0.23927180  0.07459412  0.09419184  1
  Cl  Cl1  1  0.33264450  0.66735550  0.60428345  1
  Cl  Cl2  1  0.70336526  0.62642870  0.36970178  1
  Cl  Cl3  1  0.55425755  0.44574245  0.65870931  1
  Cl  Cl4  1  0.00657089  0.31662387  0.11244138  1
  Cl  Cl5  1  0.92540588  0.76072820  0.09419184  1
  Cl  Cl6  1  0.25376646  0.74623354  0.08344039  1
  Cl  Cl7  1  0.99342911  0.68337613  0.61244138  1
  Cl  Cl8  1  0.07459412  0.23927180  0.59419184  1
  Cl  Cl9  1  0.89500861  0.43057702  0.87718899  1
  Cl  Cl10  1  0.68337613  0.99342911  0.11244138  1
  Cl  Cl11  1  0.43057702  0.89500861  0.37718899  1
  Cl  Cl12  1  0.37357130  0.29663474  0.36970178  1
  Cl  Cl13  1  0.86629207  0.13370793  0.36762738  1
  Cl  Cl14  1  0.29663474  0.37357130  0.86970178  1
  Cl  Cl15  1  0.13370793  0.86629207  0.86762738  1
  Cl  Cl16  1  0.62642870  0.70336526  0.86970178  1
  Cl  Cl17  1  0.76072820  0.92540588  0.59419184  1
  Cl  Cl18  1  0.09107141  0.90892859  0.38528837  1
  Cl  Cl19  1  0.90892859  0.09107141  0.88528837  1
  Cl  Cl20  1  0.44574245  0.55425755  0.15870931  1
  Cl  Cl21  1  0.31662387  0.00657089  0.61244138  1
  Cl  Cl22  1  0.56942298  0.10499139  0.87718899  1
  Cl  Cl23  1  0.74623354  0.25376646  0.58344039  1
  Cl  Cl24  1  0.66735550  0.33264450  0.10428345  1
  Cl  Cl25  1  0.10499139  0.56942298  0.37718899  1
loop_
_geom_bond_atom_site_label_1
_geom_bond_atom_site_label_2
_geom_bond_distance
_geom_bond_site_symmetry_2
As0 Cl16 2.193076 1_555
As0 Cl14 2.193076 1_555
As0 Cl3 2.210757 1_555
As1 Cl12 2.193076 1_555
As1 Cl2 2.193076 1_555
As1 Cl20 2.210757 1_555
Cl0 P0 1.940855 1_545
Cl1 Os1 2.307706 1_555
Cl4 Os0 2.303263 1_454
Cl5 P0 1.940855 1_655
Cl6 P0 1.938224 1_555
Cl7 Os1 2.303263 1_655
Cl8 P1 1.940855 1_455
Cl9 Os0 2.327372 1_555
Cl10 Os0 2.303262 1_564
Cl11 Os1 2.327372 1_555
Cl13 P1 1.943017 1_555
Cl15 P0 1.943017 1_556
Cl17 P1 1.940855 1_565
Cl18 Os1 2.312168 1_555
Cl19 Os0 2.312168 1_555
Cl21 Os1 2.303262 1_545
Cl22 Os0 2.327372 1_555
Cl23 P1 1.938224 1_555
Cl24 Os0 2.307706 1_554
Cl25 Os1 2.327372 1_555
