# generated using pymatgen
data_Al6Te10Pb
_symmetry_space_group_name_H-M   'P 1'
_cell_length_a   10.49265722
_cell_length_b   10.49265763
_cell_length_c   10.44163879
_cell_angle_alpha   90.31330057
_cell_angle_beta   90.31329967
_cell_angle_gamma   89.65075251
_symmetry_Int_Tables_number   1
_chemical_formula_structural   Al6Te10Pb
_chemical_formula_sum   'Al12 Te20 Pb2'
_cell_volume   1149.52567932
_cell_formula_units_Z   2
loop_
 _symmetry_equiv_pos_site_id
 _symmetry_equiv_pos_as_xyz
  1  'x, y, z'
loop_
 _atom_site_type_symbol
 _atom_site_label
 _atom_site_symmetry_multiplicity
 _atom_site_fract_x
 _atom_site_fract_y
 _atom_site_fract_z
 _atom_site_occupancy
  Al  Al0  1  0.57459926  0.83840233  0.88189206  1
  Al  Al1  1  0.87518097  0.56866716  0.83474657  1
  Al  Al2  1  0.25655392  0.64904262  0.83352365  1
  Al  Al3  1  0.16430613  0.34580203  0.74322441  1
  Al  Al4  1  0.83245622  0.25884886  0.65866302  1
  Al  Al5  1  0.83822739  0.87996251  0.57529823  1
  Al  Al6  1  0.12003749  0.16177261  0.42470177  1
  Al  Al7  1  0.74115114  0.16754378  0.34133698  1
  Al  Al8  1  0.65419797  0.83569387  0.25677559  1
  Al  Al9  1  0.35095738  0.74344608  0.16647635  1
  Al  Al10  1  0.43133284  0.12481903  0.16525343  1
  Al  Al11  1  0.16159767  0.42540074  0.11810794  1
  Te  Te0  1  0.17984174  0.82015826  1.00000000  1
  Te  Te1  1  0.32754473  0.42395498  0.92643592  1
  Te  Te2  1  0.50625838  0.07670844  0.92623834  1
  Te  Te3  1  0.82532517  0.82208702  0.82587853  1
  Te  Te4  1  0.99952765  0.18581050  0.83035532  1
  Te  Te5  1  0.68880695  0.44075237  0.73916988  1
  Te  Te6  1  0.43258960  0.75180812  0.69195239  1
  Te  Te7  1  0.07300905  0.57349151  0.67399970  1
  Te  Te8  1  0.67796782  0.07373050  0.57304427  1
  Te  Te9  1  0.31021906  0.24706397  0.56565262  1
  Te  Te10  1  0.07546715  0.92453285  0.50000000  1
  Te  Te11  1  0.75293603  0.68978094  0.43434738  1
  Te  Te12  1  0.92626950  0.32203218  0.42695573  1
  Te  Te13  1  0.42650849  0.92699095  0.32600030  1
  Te  Te14  1  0.24819188  0.56741040  0.30804761  1
  Te  Te15  1  0.55924763  0.31119305  0.26083012  1
  Te  Te16  1  0.81418950  0.00047235  0.16964468  1
  Te  Te17  1  0.17791298  0.17467483  0.17412147  1
  Te  Te18  1  0.92329156  0.49374162  0.07376166  1
  Te  Te19  1  0.57604502  0.67245527  0.07356408  1
  Pb  Pb0  1  0.26142764  0.00667992  0.75253354  1
  Pb  Pb1  1  0.99332008  0.73857236  0.24746646  1
loop_
_geom_bond_atom_site_label_1
_geom_bond_atom_site_label_2
_geom_bond_distance
_geom_bond_site_symmetry_2
Al0 Te6 2.635094 1_555
Al0 Te2 2.636294 1_565
Al0 Te19 2.659894 1_556
Al0 Te3 2.702339 1_555
Al1 Te5 2.572467 1_555
Al1 Te18 2.665389 1_556
Al1 Te7 2.677464 1_655
Al1 Te3 2.708869 1_555
Al2 Te6 2.613649 1_555
Al2 Te0 2.618539 1_555
Al2 Te1 2.658892 1_555
Al2 Te7 2.661020 1_555
Al3 Te4 2.589301 1_455
Al3 Te9 2.616465 1_555
Al3 Te7 2.670429 1_555
Al3 Te1 2.688860 1_555
Al4 Te5 2.565673 1_555
Al4 Te4 2.615078 1_555
Al4 Te8 2.683888 1_555
Al4 Te12 2.704352 1_555
Al5 Te8 2.630634 1_565
Al5 Te11 2.631404 1_555
Al5 Te10 2.659508 1_655
Al5 Te3 2.693560 1_555
Al6 Te12 2.630634 1_455
Al6 Te9 2.631404 1_555
Al6 Te10 2.659509 1_545
Al6 Te17 2.693560 1_555
Al7 Te15 2.565673 1_555
Al7 Te16 2.615078 1_555
Al7 Te12 2.683888 1_555
Al7 Te8 2.704352 1_555
Al8 Te16 2.589301 1_565
Al8 Te11 2.616465 1_555
Al8 Te13 2.670429 1_555
Al8 Te19 2.688860 1_555
Al9 Te14 2.613649 1_555
Al9 Te0 2.618539 1_554
Al9 Te19 2.658892 1_555
Al9 Te13 2.661020 1_555
Al10 Te15 2.572467 1_555
Al10 Te2 2.665389 1_554
Al10 Te13 2.677464 1_545
Al10 Te17 2.708869 1_555
Al11 Te14 2.635094 1_555
Al11 Te18 2.636294 1_455
Al11 Te1 2.659894 1_554
Al11 Te17 2.702339 1_555
Pb0 Te2 3.222810 1_555
Pb0 Te9 3.242246 1_555
Pb0 Te6 3.273028 1_545
Pb0 Te0 3.367469 1_545
Pb0 Te10 3.382696 1_545
Pb0 Te4 3.418981 1_455
Pb1 Te18 3.222810 1_555
Pb1 Te11 3.242246 1_555
Pb1 Te14 3.273028 1_655
Pb1 Te0 3.367468 1_654
Pb1 Te10 3.382696 1_655
Pb1 Te16 3.418981 1_565
