# generated using pymatgen
data_NaLu6PtI12
_symmetry_space_group_name_H-M   'P 1'
_cell_length_a   9.59522800
_cell_length_b   9.59522733
_cell_length_c   9.59522867
_cell_angle_alpha   107.06014524
_cell_angle_beta   107.06014263
_cell_angle_gamma   107.06014921
_symmetry_Int_Tables_number   1
_chemical_formula_structural   NaLu6PtI12
_chemical_formula_sum   'Na1 Lu6 Pt1 I12'
_cell_volume   734.50793654
_cell_formula_units_Z   1
loop_
 _symmetry_equiv_pos_site_id
 _symmetry_equiv_pos_as_xyz
  1  'x, y, z'
loop_
 _atom_site_type_symbol
 _atom_site_label
 _atom_site_symmetry_multiplicity
 _atom_site_fract_x
 _atom_site_fract_y
 _atom_site_fract_z
 _atom_site_occupancy
  Na  Na0  1  0.50000000  0.50000000  0.50000000  1
  Lu  Lu0  1  0.09557231  0.02461875  0.30150729  1
  Lu  Lu1  1  0.30150729  0.09557231  0.02461875  1
  Lu  Lu2  1  0.02461875  0.30150729  0.09557231  1
  Lu  Lu3  1  0.90442769  0.97538125  0.69849271  1
  Lu  Lu4  1  0.69849271  0.90442769  0.97538125  1
  Lu  Lu5  1  0.97538125  0.69849271  0.90442769  1
  Pt  Pt0  1  0.00000000  0.00000000  0.00000000  1
  I  I0  1  0.07693594  0.67595943  0.22508159  1
  I  I1  1  0.22508159  0.07693594  0.67595943  1
  I  I2  1  0.67595943  0.22508159  0.07693594  1
  I  I3  1  0.92306406  0.32404057  0.77491841  1
  I  I4  1  0.77491841  0.92306406  0.32404057  1
  I  I5  1  0.32404057  0.77491841  0.92306406  1
  I  I6  1  0.44748422  0.13856248  0.37104860  1
  I  I7  1  0.37104860  0.44748422  0.13856248  1
  I  I8  1  0.13856248  0.37104860  0.44748422  1
  I  I9  1  0.55251578  0.86143752  0.62895140  1
  I  I10  1  0.62895140  0.55251578  0.86143752  1
  I  I11  1  0.86143752  0.62895140  0.55251578  1
loop_
_geom_bond_atom_site_label_1
_geom_bond_atom_site_label_2
_geom_bond_distance
_geom_bond_site_symmetry_2
Lu0 Pt0 2.679858 1_555
Lu1 Pt0 2.679858 1_555
Lu2 Pt0 2.679858 1_555
Lu3 Pt0 2.679858 1_666
Lu4 Pt0 2.679858 1_666
Lu5 Pt0 2.679858 1_666
I0 Lu5 3.036027 1_454
I0 Lu0 3.145543 1_565
I0 Lu2 3.265191 1_555
I1 Lu3 3.036027 1_445
I1 Lu1 3.145544 1_556
I1 Lu0 3.265191 1_555
I2 Lu4 3.036027 1_544
I2 Lu2 3.145543 1_655
I2 Lu1 3.265191 1_555
I3 Lu2 3.036027 1_656
I3 Lu3 3.145543 1_545
I3 Lu5 3.265191 1_555
I4 Lu0 3.036027 1_665
I4 Lu4 3.145544 1_554
I4 Lu3 3.265191 1_555
I5 Lu1 3.036027 1_566
I5 Lu5 3.145543 1_455
I5 Lu4 3.265191 1_555
I6 Lu0 3.020974 1_555
I6 Lu1 3.050587 1_555
I6 Na0 3.146965 1_555
I7 Lu1 3.020974 1_555
I7 Lu2 3.050587 1_555
I7 Na0 3.146965 1_555
I8 Lu2 3.020974 1_555
I8 Lu0 3.050587 1_555
I8 Na0 3.146965 1_555
I9 Lu3 3.020974 1_555
I9 Lu4 3.050587 1_555
I9 Na0 3.146965 1_555
I10 Lu4 3.020974 1_555
I10 Lu5 3.050587 1_555
I10 Na0 3.146965 1_555
I11 Lu5 3.020974 1_555
I11 Lu3 3.050587 1_555
I11 Na0 3.146965 1_555
