# generated using pymatgen
data_LuAl2PdPt4
_symmetry_space_group_name_H-M   'P 1'
_cell_length_a   7.99877035
_cell_length_b   7.99877053
_cell_length_c   7.99877044
_cell_angle_alpha   150.54172210
_cell_angle_beta   150.54172636
_cell_angle_gamma   42.14678639
_symmetry_Int_Tables_number   1
_chemical_formula_structural   LuAl2PdPt4
_chemical_formula_sum   'Lu1 Al2 Pd1 Pt4'
_cell_volume   123.47776848
_cell_formula_units_Z   1
loop_
 _symmetry_equiv_pos_site_id
 _symmetry_equiv_pos_as_xyz
  1  'x, y, z'
loop_
 _atom_site_type_symbol
 _atom_site_label
 _atom_site_symmetry_multiplicity
 _atom_site_fract_x
 _atom_site_fract_y
 _atom_site_fract_z
 _atom_site_occupancy
  Lu  Lu0  1  0.00000000  0.00000000  0.00000000  1
  Al  Al0  1  0.25267518  0.25267518  0.00000000  1
  Al  Al1  1  0.74732482  0.74732482  1.00000000  1
  Pd  Pd0  1  0.50000000  0.50000000  0.00000000  1
  Pt  Pt0  1  0.64213643  0.14213643  0.50000000  1
  Pt  Pt1  1  0.35786357  0.85786357  0.50000000  1
  Pt  Pt2  1  0.14213643  0.64213643  0.50000000  1
  Pt  Pt3  1  0.85786357  0.35786357  0.50000000  1
loop_
_geom_bond_atom_site_label_1
_geom_bond_atom_site_label_2
_geom_bond_distance
_geom_bond_site_symmetry_2
Lu0 Pd0 2.876066 1_455
Lu0 Pd0 2.876066 1_545
Lu0 Pd0 2.876066 1_444
Lu0 Pd0 2.876066 1_556
Lu0 Pt0 2.939004 1_555
Lu0 Pt1 2.939004 1_444
Lu0 Pt0 2.939004 1_454
Lu0 Pt1 2.939004 1_545
Lu0 Pt2 2.939004 1_544
Lu0 Pt3 2.939004 1_455
Lu0 Pt2 2.939005 1_555
Lu0 Pt3 2.939005 1_444
Al0 Pt3 2.569329 1_555
Al0 Pt3 2.569329 1_454
Al0 Pt1 2.569329 1_544
Al0 Pt1 2.569329 1_555
Al0 Pt0 2.618902 1_454
Al0 Pt0 2.618902 1_555
Al0 Pt2 2.618902 1_555
Al0 Pt2 2.618903 1_544
Al1 Pt2 2.569329 1_555
Al1 Pt2 2.569329 1_656
Al1 Pt0 2.569329 1_566
Al1 Pt0 2.569329 1_555
Al1 Pt1 2.618902 1_656
Al1 Pt1 2.618902 1_555
Al1 Pt3 2.618902 1_555
Al1 Pt3 2.618903 1_566
Pd0 Pt2 2.939004 1_655
Pd0 Pt3 2.939004 1_454
Pd0 Pt2 2.939004 1_554
Pd0 Pt3 2.939004 1_555
Pd0 Pt0 2.939004 1_554
Pd0 Pt1 2.939004 1_555
Pd0 Pt0 2.939005 1_565
Pd0 Pt1 2.939005 1_544
