# generated using pymatgen
data_Y2TcIrF14
_symmetry_space_group_name_H-M   'P 1'
_cell_length_a   5.49866489
_cell_length_b   8.80915385
_cell_length_c   11.84366760
_cell_angle_alpha   62.61129961
_cell_angle_beta   90.00000000
_cell_angle_gamma   90.00000000
_symmetry_Int_Tables_number   1
_chemical_formula_structural   Y2TcIrF14
_chemical_formula_sum   'Y4 Tc2 Ir2 F28'
_cell_volume   509.38330879
_cell_formula_units_Z   2
loop_
 _symmetry_equiv_pos_site_id
 _symmetry_equiv_pos_as_xyz
  1  'x, y, z'
loop_
 _atom_site_type_symbol
 _atom_site_label
 _atom_site_symmetry_multiplicity
 _atom_site_fract_x
 _atom_site_fract_y
 _atom_site_fract_z
 _atom_site_occupancy
  Y  Y0  1  0.76107352  0.81212919  0.76720883  1
  Y  Y1  1  0.26107352  0.18787081  0.73279117  1
  Y  Y2  1  0.23760080  0.18597776  0.23679061  1
  Y  Y3  1  0.73760080  0.81402224  0.26320939  1
  Tc  Tc0  1  0.75587428  0.27325058  0.95694241  1
  Tc  Tc1  1  0.25587428  0.72674942  0.54305759  1
  Ir  Ir0  1  0.24358397  0.72772612  0.04398516  1
  Ir  Ir1  1  0.74358397  0.27227388  0.45601484  1
  F  F0  1  0.43119971  0.70750031  0.91379547  1
  F  F1  1  0.93119971  0.29249969  0.58620453  1
  F  F2  1  0.54829168  0.29174296  0.08174461  1
  F  F3  1  0.04829168  0.70825704  0.41825539  1
  F  F4  1  0.43680705  0.27816598  0.54304865  1
  F  F5  1  0.93680705  0.72183402  0.95695135  1
  F  F6  1  0.54801749  0.71714854  0.45379928  1
  F  F7  1  0.04801749  0.28285146  0.04620072  1
  F  F8  1  0.76473334  0.51996964  0.85912537  1
  F  F9  1  0.26473334  0.48003036  0.64087463  1
  F  F10  1  0.23546781  0.48216855  0.14229046  1
  F  F11  1  0.73546781  0.51783145  0.35770954  1
  F  F12  1  0.76206673  0.02692326  0.05252214  1
  F  F13  1  0.26206673  0.97307674  0.44747786  1
  F  F14  1  0.24531353  0.97355508  0.94964333  1
  F  F15  1  0.74531353  0.02644492  0.55035667  1
  F  F16  1  0.97316073  0.72980592  0.63935542  1
  F  F17  1  0.47316073  0.27019408  0.86064458  1
  F  F18  1  0.04287357  0.27395834  0.36239855  1
  F  F19  1  0.54287357  0.72604166  0.13760145  1
  F  F20  1  0.06033142  0.74589938  0.17681724  1
  F  F21  1  0.56033142  0.25410062  0.32318276  1
  F  F22  1  0.95705707  0.25499297  0.82880232  1
  F  F23  1  0.45705707  0.74500703  0.67119768  1
  F  F24  1  0.40736588  0.96763112  0.23035439  1
  F  F25  1  0.90736588  0.03236888  0.26964561  1
  F  F26  1  0.58918143  0.03134357  0.76975446  1
  F  F27  1  0.08918143  0.96865643  0.73024554  1
loop_
_geom_bond_atom_site_label_1
_geom_bond_atom_site_label_2
_geom_bond_distance
_geom_bond_site_symmetry_2
F0 Ir0 1.930365 1_556
F0 Y0 2.383592 1_555
F1 Ir1 1.930365 1_555
F1 Y1 2.383592 1_655
F2 Tc0 1.932810 1_554
F2 Y2 2.363173 1_555
F3 Tc1 1.932810 1_555
F3 Y3 2.363173 1_455
F4 Ir1 1.989969 1_555
F4 Y1 2.229788 1_555
F5 Ir0 1.989969 1_656
F5 Y0 2.229788 1_555
F6 Tc1 1.946146 1_555
F6 Y3 2.266713 1_555
F7 Tc0 1.946146 1_454
F7 Y2 2.266713 1_555
F8 Tc0 1.936890 1_555
F8 Y0 2.287261 1_555
F9 Tc1 1.936890 1_555
F9 Y1 2.287261 1_555
F10 Ir0 1.928632 1_555
F10 Y2 2.318164 1_555
F11 Ir1 1.928632 1_555
F11 Y3 2.318164 1_555
F12 Tc0 1.931639 1_554
F12 Y3 2.335883 1_545
F13 Tc1 1.931639 1_555
F13 Y2 2.335883 1_565
F14 Ir0 1.926637 1_556
F14 Y1 2.388921 1_565
F15 Ir1 1.926637 1_555
F15 Y0 2.388921 1_545
F16 Tc1 1.935557 1_655
F16 Y0 2.277988 1_555
F17 Tc0 1.935557 1_555
F17 Y1 2.277988 1_555
F18 Ir1 1.980590 1_455
F18 Y2 2.240780 1_555
F19 Ir0 1.980590 1_555
F19 Y3 2.240780 1_555
F20 Ir0 1.935902 1_555
F20 Y3 2.262998 1_455
F21 Ir1 1.935902 1_555
F21 Y2 2.262998 1_555
F22 Tc0 1.943569 1_555
F22 Y1 2.248514 1_655
F23 Tc1 1.943569 1_555
F23 Y0 2.248514 1_555
F24 Y2 2.170657 1_565
F24 Y3 2.189825 1_555
F25 Y3 2.170657 1_545
F25 Y2 2.189825 1_655
F26 Y0 2.162627 1_545
F26 Y1 2.189186 1_555
F27 Y1 2.162627 1_565
F27 Y0 2.189186 1_455
