# generated using pymatgen
data_Sr5CrTcN7
_symmetry_space_group_name_H-M   'P 1'
_cell_length_a   6.38441793
_cell_length_b   8.96655931
_cell_length_c   9.15111626
_cell_angle_alpha   114.37352895
_cell_angle_beta   98.04807869
_cell_angle_gamma   90.47871246
_symmetry_Int_Tables_number   1
_chemical_formula_structural   Sr5CrTcN7
_chemical_formula_sum   'Sr10 Cr2 Tc2 N14'
_cell_volume   471.20560676
_cell_formula_units_Z   2
loop_
 _symmetry_equiv_pos_site_id
 _symmetry_equiv_pos_as_xyz
  1  'x, y, z'
loop_
 _atom_site_type_symbol
 _atom_site_label
 _atom_site_symmetry_multiplicity
 _atom_site_fract_x
 _atom_site_fract_y
 _atom_site_fract_z
 _atom_site_occupancy
  Sr  Sr0  1  0.85492181  0.58462674  0.33833572  1
  Sr  Sr1  1  0.27394535  0.98322693  0.57166119  1
  Sr  Sr2  1  0.70063239  0.40838711  0.84208342  1
  Sr  Sr3  1  0.29936761  0.59161289  0.15791658  1
  Sr  Sr4  1  0.40437852  0.78573738  0.90763170  1
  Sr  Sr5  1  0.59562148  0.21426262  0.09236830  1
  Sr  Sr6  1  0.14507819  0.41537326  0.66166428  1
  Sr  Sr7  1  0.88040868  0.83470745  0.75559596  1
  Sr  Sr8  1  0.11959132  0.16529255  0.24440404  1
  Sr  Sr9  1  0.72605465  0.01677307  0.42833881  1
  Cr  Cr0  1  0.57440758  0.36754228  0.47893923  1
  Cr  Cr1  1  0.42559242  0.63245772  0.52106077  1
  Tc  Tc0  1  0.11629537  0.21741102  0.91103401  1
  Tc  Tc1  1  0.88370463  0.78258898  0.08896599  1
  N  N0  1  0.56598308  0.56125078  0.66750450  1
  N  N1  1  0.43401692  0.43874922  0.33249550  1
  N  N2  1  0.17806076  0.69181855  0.57588191  1
  N  N3  1  0.82193924  0.30818145  0.42411809  1
  N  N4  1  0.42510860  0.21062572  0.49039982  1
  N  N5  1  0.57489140  0.78937428  0.50960018  1
  N  N6  1  0.94621214  0.13904475  0.71270931  1
  N  N7  1  0.05378786  0.86095525  0.28729069  1
  N  N8  1  0.22606293  0.04897969  0.95406524  1
  N  N9  1  0.77393707  0.95102031  0.04593476  1
  N  N10  1  0.34755214  0.33322536  0.90214200  1
  N  N11  1  0.97481941  0.34697466  0.07303775  1
  N  N12  1  0.02518059  0.65302534  0.92696225  1
  N  N13  1  0.65244786  0.66677464  0.09785800  1
loop_
_geom_bond_atom_site_label_1
_geom_bond_atom_site_label_2
_geom_bond_distance
_geom_bond_site_symmetry_2
Cr0 N4 1.739711 1_555
Cr0 N3 1.745890 1_555
Cr0 N1 1.840221 1_555
Cr0 N0 1.884446 1_555
Cr1 N5 1.739711 1_555
Cr1 N2 1.745890 1_555
Cr1 N0 1.840221 1_555
Cr1 N1 1.884446 1_555
N0 Sr2 2.571480 1_555
N0 Sr4 2.638880 1_555
N0 Sr7 2.919749 1_555
N0 Sr6 2.962827 1_555
N1 Sr3 2.571480 1_555
N1 Sr5 2.638880 1_555
N1 Sr8 2.919749 1_555
N1 Sr0 2.962827 1_555
N2 Sr0 2.625279 1_455
N2 Sr7 2.670979 1_455
N2 Sr1 2.695707 1_555
N2 Sr6 2.906619 1_555
N2 Sr4 2.941899 1_555
N3 Sr6 2.625279 1_655
N3 Sr8 2.670979 1_655
N3 Sr9 2.695707 1_555
N3 Sr0 2.906619 1_555
N3 Sr5 2.941899 1_555
N4 Sr9 2.565555 1_555
N4 Sr8 2.653203 1_555
N4 Sr1 2.657326 1_545
N4 Sr6 2.736366 1_555
N5 Sr1 2.565555 1_555
N5 Sr7 2.653203 1_555
N5 Sr9 2.657326 1_565
N5 Sr0 2.736366 1_555
N6 Tc0 1.830184 1_655
N6 Sr9 2.558297 1_555
N6 Sr1 2.704214 1_645
N6 Sr2 2.813469 1_555
N6 Sr7 2.947566 1_545
N6 Sr6 3.006334 1_655
N7 Tc1 1.830184 1_455
N7 Sr1 2.558297 1_555
N7 Sr9 2.704214 1_465
N7 Sr3 2.813469 1_555
N7 Sr8 2.947566 1_565
N7 Sr0 3.006334 1_455
N8 Tc0 1.832570 1_555
N8 Sr4 2.529926 1_545
N8 Sr8 2.615244 1_556
N8 Sr5 2.631033 1_556
N8 Sr7 2.790470 1_445
N9 Tc1 1.832570 1_555
N9 Sr5 2.529926 1_565
N9 Sr7 2.615244 1_554
N9 Sr4 2.631033 1_554
N9 Sr8 2.790470 1_665
N10 Tc0 1.828292 1_555
N10 Sr2 2.542631 1_555
N10 Sr3 2.584300 1_556
N10 Sr5 2.732278 1_556
N10 Sr6 2.759282 1_555
N11 Tc0 1.826005 1_654
N11 Sr0 2.701580 1_555
N11 Sr5 2.748432 1_555
N11 Sr8 2.774028 1_655
N11 Sr2 2.788392 1_554
N11 Sr3 2.788468 1_655
N12 Tc1 1.826005 1_456
N12 Sr6 2.701580 1_555
N12 Sr4 2.748432 1_555
N12 Sr7 2.774028 1_455
N12 Sr3 2.788392 1_556
N12 Sr2 2.788468 1_455
N13 Tc1 1.828292 1_555
N13 Sr3 2.542631 1_555
N13 Sr2 2.584300 1_554
N13 Sr4 2.732278 1_554
N13 Sr0 2.759282 1_555
