# generated using pymatgen
data_Ta(ZnGa)3
_symmetry_space_group_name_H-M   'P 1'
_cell_length_a   5.54790076
_cell_length_b   5.54790057
_cell_length_c   5.54790076
_cell_angle_alpha   58.43691149
_cell_angle_beta   58.43691183
_cell_angle_gamma   58.43692216
_symmetry_Int_Tables_number   1
_chemical_formula_structural   Ta(ZnGa)3
_chemical_formula_sum   'Ta1 Zn3 Ga3'
_cell_volume   116.42651195
_cell_formula_units_Z   1
loop_
 _symmetry_equiv_pos_site_id
 _symmetry_equiv_pos_as_xyz
  1  'x, y, z'
loop_
 _atom_site_type_symbol
 _atom_site_label
 _atom_site_symmetry_multiplicity
 _atom_site_fract_x
 _atom_site_fract_y
 _atom_site_fract_z
 _atom_site_occupancy
  Ta  Ta0  1  0.00000000  0.00000000  0.00000000  1
  Zn  Zn0  1  0.00000000  0.00000000  0.50000000  1
  Zn  Zn1  1  0.50000000  0.00000000  0.00000000  1
  Zn  Zn2  1  0.00000000  0.50000000  0.00000000  1
  Ga  Ga0  1  0.50000000  0.50000000  0.00000000  1
  Ga  Ga1  1  0.00000000  0.50000000  0.50000000  1
  Ga  Ga2  1  0.50000000  0.00000000  0.50000000  1
loop_
_geom_bond_atom_site_label_1
_geom_bond_atom_site_label_2
_geom_bond_distance
_geom_bond_site_symmetry_2
Ta0 Zn2 2.773950 1_555
Ta0 Zn2 2.773950 1_545
Ta0 Zn0 2.773950 1_554
Ta0 Zn0 2.773950 1_555
Ta0 Zn1 2.773950 1_455
Ta0 Zn1 2.773950 1_555
Zn0 Zn2 2.708157 1_546
Zn0 Zn2 2.708157 1_555
Zn0 Zn1 2.708157 1_456
Zn0 Zn1 2.708157 1_555
Zn1 Zn2 2.708157 1_645
Zn1 Zn2 2.708157 1_555
Ga0 Ga2 2.708157 1_564
Ga0 Ga2 2.708157 1_555
Ga0 Ga1 2.708157 1_654
Ga0 Ga1 2.708157 1_555
Ga0 Ta0 2.708157 1_565
Ga0 Ta0 2.708157 1_655
Ga0 Zn1 2.773950 1_555
Ga0 Zn1 2.773950 1_565
Ga0 Zn2 2.773950 1_555
Ga0 Zn2 2.773950 1_655
Ga1 Ta0 2.708157 1_565
Ga1 Ta0 2.708157 1_556
Ga1 Ga2 2.708157 1_465
Ga1 Ga2 2.708157 1_555
Ga1 Zn0 2.773950 1_565
Ga1 Zn0 2.773950 1_555
Ga1 Zn2 2.773950 1_555
Ga1 Zn2 2.773950 1_556
Ga2 Ta0 2.708157 1_556
Ga2 Ta0 2.708157 1_655
Ga2 Zn1 2.773950 1_555
Ga2 Zn1 2.773950 1_556
Ga2 Zn0 2.773950 1_555
Ga2 Zn0 2.773950 1_655
