# generated using pymatgen
data_K2Be3Se4
_symmetry_space_group_name_H-M   'P 1'
_cell_length_a   9.01243730
_cell_length_b   9.01243755
_cell_length_c   9.01243681
_cell_angle_alpha   144.78300473
_cell_angle_beta   106.85743479
_cell_angle_gamma   83.85960249
_symmetry_Int_Tables_number   1
_chemical_formula_structural   K2Be3Se4
_chemical_formula_sum   'K4 Be6 Se8'
_cell_volume   392.64231251
_cell_formula_units_Z   2
loop_
 _symmetry_equiv_pos_site_id
 _symmetry_equiv_pos_as_xyz
  1  'x, y, z'
loop_
 _atom_site_type_symbol
 _atom_site_label
 _atom_site_symmetry_multiplicity
 _atom_site_fract_x
 _atom_site_fract_y
 _atom_site_fract_z
 _atom_site_occupancy
  K  K0  1  0.62341354  0.73351285  0.35692739  1
  K  K1  1  0.37658646  0.26648715  0.64307261  1
  K  K2  1  0.12341354  0.76648715  0.88990170  1
  K  K3  1  0.87658646  0.23351285  0.11009830  1
  Be  Be0  1  0.75000000  0.25000000  0.50000000  1
  Be  Be1  1  0.25000000  0.75000000  0.50000000  1
  Be  Be2  1  0.98509162  0.75000000  0.23509162  1
  Be  Be3  1  0.51490838  0.75000000  0.76490838  1
  Be  Be4  1  0.01490838  0.25000000  0.76490838  1
  Be  Be5  1  0.48509162  0.25000000  0.23509162  1
  Se  Se0  1  0.02523654  0.88401238  0.59738126  1
  Se  Se1  1  0.28663112  0.42785528  0.40261874  1
  Se  Se2  1  0.21336888  0.61598762  0.14122417  1
  Se  Se3  1  0.47476346  0.07214472  0.85877583  1
  Se  Se4  1  0.97476346  0.11598762  0.40261874  1
  Se  Se5  1  0.71336888  0.57214472  0.59738126  1
  Se  Se6  1  0.78663112  0.38401238  0.85877583  1
  Se  Se7  1  0.52523654  0.92785528  0.14122417  1
loop_
_geom_bond_atom_site_label_1
_geom_bond_atom_site_label_2
_geom_bond_distance
_geom_bond_site_symmetry_2
K0 Se5 3.368518 1_555
K0 Se0 3.368526 1_655
K0 Se3 3.413346 1_565
K0 Se6 3.413354 1_565
K0 Se2 3.444430 1_555
K0 Se7 3.444438 1_555
K0 Se3 3.460363 1_554
K0 Se6 3.460371 1_554
K1 Se1 3.368518 1_555
K1 Se4 3.368526 1_455
K1 Se7 3.413346 1_545
K1 Se2 3.413354 1_545
K1 Se6 3.444430 1_555
K1 Se3 3.444438 1_555
K1 Se7 3.460363 1_556
K1 Se2 3.460371 1_556
K2 Se2 3.368518 1_556
K2 Se7 3.368526 1_556
K2 Se4 3.413351 1_455
K2 Se1 3.413359 1_555
K2 Se5 3.444430 1_455
K2 Se0 3.444438 1_555
K2 Se4 3.460358 1_466
K2 Se1 3.460366 1_566
K3 Se6 3.368518 1_554
K3 Se3 3.368526 1_554
K3 Se0 3.413351 1_655
K3 Se5 3.413359 1_555
K3 Se1 3.444430 1_655
K3 Se4 3.444438 1_555
K3 Se0 3.460358 1_644
K3 Se5 3.460366 1_544
Be0 Se6 2.260096 1_555
Be0 Se7 2.260096 1_545
Be0 Se4 2.260096 1_555
Be0 Se5 2.260097 1_555
Be1 Se2 2.260096 1_555
Be1 Se3 2.260096 1_565
Be1 Se0 2.260096 1_555
Be1 Se1 2.260097 1_555
Be2 Se6 2.246463 1_554
Be2 Se4 2.246463 1_565
Be2 Se0 2.283724 1_655
Be2 Se2 2.283725 1_655
Be3 Se7 2.246463 1_556
Be3 Se5 2.246463 1_555
Be3 Se1 2.283724 1_555
Be3 Se3 2.283725 1_565
Be4 Se2 2.246463 1_556
Be4 Se0 2.246463 1_545
Be4 Se4 2.283724 1_455
Be4 Se6 2.283725 1_455
Be5 Se3 2.246463 1_554
Be5 Se1 2.246463 1_555
Be5 Se5 2.283724 1_555
Be5 Se7 2.283725 1_545
