# generated using pymatgen
data_NaCaTaTiO6
_symmetry_space_group_name_H-M   'P 1'
_cell_length_a   5.55056900
_cell_length_b   5.45648400
_cell_length_c   9.48649744
_cell_angle_alpha   54.81666325
_cell_angle_beta   90.00000000
_cell_angle_gamma   90.00000000
_symmetry_Int_Tables_number   1
_chemical_formula_structural   NaCaTaTiO6
_chemical_formula_sum   'Na2 Ca2 Ta2 Ti2 O12'
_cell_volume   234.82505365
_cell_formula_units_Z   2
loop_
 _symmetry_equiv_pos_site_id
 _symmetry_equiv_pos_as_xyz
  1  'x, y, z'
loop_
 _atom_site_type_symbol
 _atom_site_label
 _atom_site_symmetry_multiplicity
 _atom_site_fract_x
 _atom_site_fract_y
 _atom_site_fract_z
 _atom_site_occupancy
  Na  Na0  1  0.22613000  0.74565700  0.24992900  1
  Na  Na1  1  0.77387000  0.74565700  0.74992900  1
  Ca  Ca0  1  0.70496300  0.26281000  0.25000700  1
  Ca  Ca1  1  0.29503700  0.26281000  0.75000700  1
  Ta  Ta0  1  0.24396900  0.50619600  0.99977600  1
  Ta  Ta1  1  0.75603100  0.50619600  0.49977600  1
  Ti  Ti0  1  0.24497900  0.00942000  0.49695600  1
  Ti  Ti1  1  0.75502100  0.00942000  0.99695600  1
  O  O0  1  0.73230200  0.17326300  0.75194700  1
  O  O1  1  0.46989000  0.31470500  0.46214500  1
  O  O2  1  0.46902200  0.74113200  0.03899000  1
  O  O3  1  0.96225200  0.24926200  0.45681000  1
  O  O4  1  0.95731000  0.66380800  0.04435700  1
  O  O5  1  0.23327000  0.83374700  0.74908500  1
  O  O6  1  0.26769800  0.17326300  0.25194700  1
  O  O7  1  0.53011000  0.31470500  0.96214500  1
  O  O8  1  0.53097800  0.74113200  0.53899000  1
  O  O9  1  0.03774800  0.24926200  0.95681000  1
  O  O10  1  0.04269000  0.66380800  0.54435700  1
  O  O11  1  0.76673000  0.83374700  0.24908500  1
loop_
_geom_bond_atom_site_label_1
_geom_bond_atom_site_label_2
_geom_bond_distance
_geom_bond_site_symmetry_2
Na0 O6 2.355635 1_565
Na0 O2 2.424758 1_555
Na0 O1 2.440827 1_555
Na0 O11 2.593996 1_455
Na0 O3 2.684676 1_455
Na0 O4 2.689355 1_455
Na0 O9 2.751553 1_564
Na0 O10 2.756815 1_555
Na1 O0 2.355635 1_565
Na1 O8 2.424758 1_555
Na1 O7 2.440827 1_555
Na1 O5 2.593996 1_655
Na1 O9 2.684676 1_655
Na1 O10 2.689355 1_655
Na1 O3 2.751553 1_565
Na1 O4 2.756815 1_556
Ca0 O11 2.371143 1_545
Ca0 O4 2.374080 1_555
Ca0 O3 2.393033 1_555
Ca0 O6 2.473739 1_555
Ca0 O1 2.547408 1_555
Ca0 O2 2.552131 1_555
Ca0 O8 2.749190 1_545
Ca0 O7 2.754686 1_554
Ca1 O5 2.371143 1_545
Ca1 O10 2.374080 1_555
Ca1 O9 2.393033 1_555
Ca1 O0 2.473739 1_555
Ca1 O7 2.547408 1_555
Ca1 O8 2.552131 1_555
Ca1 O2 2.749190 1_546
Ca1 O1 2.754686 1_555
O0 Ti1 1.955209 1_555
O0 Ta1 2.008031 1_555
O1 Ti0 1.951518 1_555
O1 Ta1 2.042439 1_555
O2 Ta0 1.972739 1_554
O2 Ti1 2.036997 1_564
O3 Ti0 1.935472 1_655
O3 Ta1 2.024929 1_555
O4 Ta0 1.967047 1_654
O4 Ti1 2.010483 1_564
O5 Ta0 1.988827 1_555
O5 Ti0 2.000446 1_565
O6 Ti0 1.955209 1_555
O6 Ta0 2.008031 1_554
O7 Ti1 1.951518 1_555
O7 Ta0 2.042439 1_555
O8 Ta1 1.972739 1_555
O8 Ti0 2.036997 1_565
O9 Ti1 1.935472 1_455
O9 Ta0 2.024929 1_555
O10 Ta1 1.967047 1_455
O10 Ti0 2.010483 1_565
O11 Ta1 1.988827 1_555
O11 Ti1 2.000446 1_564
