# generated using pymatgen
data_Cs2CuHgF6
_symmetry_space_group_name_H-M   'P 1'
_cell_length_a   6.22255496
_cell_length_b   6.32114747
_cell_length_c   6.32114798
_cell_angle_alpha   91.82309748
_cell_angle_beta   119.45653423
_cell_angle_gamma   119.45654214
_symmetry_Int_Tables_number   1
_chemical_formula_structural   Cs2CuHgF6
_chemical_formula_sum   'Cs2 Cu1 Hg1 F6'
_cell_volume   175.80005355
_cell_formula_units_Z   1
loop_
 _symmetry_equiv_pos_site_id
 _symmetry_equiv_pos_as_xyz
  1  'x, y, z'
loop_
 _atom_site_type_symbol
 _atom_site_label
 _atom_site_symmetry_multiplicity
 _atom_site_fract_x
 _atom_site_fract_y
 _atom_site_fract_z
 _atom_site_occupancy
  Cs  Cs0  1  0.50000300  0.75000200  0.25000100  1
  Cs  Cs1  1  0.50000200  0.25000200  0.75000100  1
  Cu  Cu0  1  0.00000000  0.00000000  0.00000000  1
  Hg  Hg0  1  0.00000000  0.50000100  0.50000000  1
  F  F0  1  0.00000000  0.21738831  0.21738831  1
  F  F1  1  0.43437052  0.21718626  0.21718526  1
  F  F2  1  1.00000000  0.73196494  0.26803406  1
  F  F3  1  0.56562848  0.78281474  0.78281374  1
  F  F4  1  0.00000000  0.26803506  0.73196694  1
  F  F5  1  1.00000000  0.78261169  0.78261269  1
loop_
_geom_bond_atom_site_label_1
_geom_bond_atom_site_label_2
_geom_bond_distance
_geom_bond_site_symmetry_2
Cs0 F2 3.115578 1_555
Cs0 F4 3.115582 1_665
Cs0 F4 3.115588 1_554
Cs0 F2 3.115591 1_455
Cs0 F1 3.173748 1_555
Cs0 F3 3.173749 1_554
Cs0 F3 3.173749 1_555
Cs0 F1 3.173754 1_565
Cs0 F0 3.174909 1_665
Cs0 F5 3.174920 1_555
Cs0 F5 3.174925 1_454
Cs0 F0 3.174934 1_555
Cs1 F2 3.115573 1_556
Cs1 F4 3.115575 1_655
Cs1 F4 3.115593 1_555
Cs1 F2 3.115598 1_445
Cs1 F3 3.173746 1_555
Cs1 F1 3.173751 1_556
Cs1 F1 3.173751 1_555
Cs1 F3 3.173752 1_545
Cs1 F5 3.174909 1_555
Cs1 F0 3.174920 1_656
Cs1 F0 3.174926 1_555
Cs1 F5 3.174934 1_445
Cu0 F1 1.912086 1_555
Cu0 F3 1.912090 1_444
Cu0 F5 1.912166 1_444
Cu0 F0 1.912170 1_555
Cu0 F4 2.433893 1_554
Cu0 F2 2.433898 1_445
F0 Hg0 2.485886 1_555
F1 Hg0 2.489884 1_655
F2 Hg0 2.106366 1_655
F3 Hg0 2.489879 1_555
F4 Hg0 2.106380 1_555
F5 Hg0 2.485882 1_655
