# generated using pymatgen
data_Hf6Ti6Si5P
_symmetry_space_group_name_H-M   'P 1'
_cell_length_a   7.83047047
_cell_length_b   7.83389132
_cell_length_c   7.83238603
_cell_angle_alpha   127.54065446
_cell_angle_beta   124.18922864
_cell_angle_gamma   80.13115771
_symmetry_Int_Tables_number   1
_chemical_formula_structural   Hf6Ti6Si5P
_chemical_formula_sum   'Hf6 Ti6 Si5 P1'
_cell_volume   304.23341382
_cell_formula_units_Z   1
loop_
 _symmetry_equiv_pos_site_id
 _symmetry_equiv_pos_as_xyz
  1  'x, y, z'
loop_
 _atom_site_type_symbol
 _atom_site_label
 _atom_site_symmetry_multiplicity
 _atom_site_fract_x
 _atom_site_fract_y
 _atom_site_fract_z
 _atom_site_occupancy
  Hf  Hf0  1  0.45492536  0.65970244  0.70664160  1
  Hf  Hf1  1  0.54802758  0.25509352  0.20952644  1
  Hf  Hf2  1  0.75023357  0.84528357  0.59746973  1
  Hf  Hf3  1  0.24790952  0.84539646  0.09500251  1
  Hf  Hf4  1  0.04578905  0.25520047  0.70715691  1
  Hf  Hf5  1  0.95296791  0.65948965  0.20462439  1
  Ti  Ti0  1  0.50005230  0.50233241  0.00222757  1
  Ti  Ti1  1  0.99921245  0.50171008  0.50239354  1
  Ti  Ti2  1  0.12441043  0.25318570  0.12848479  1
  Ti  Ti3  1  0.87566493  0.00337542  0.12785349  1
  Ti  Ti4  1  0.37547441  0.00427960  0.62809131  1
  Ti  Ti5  1  0.62518940  0.25470357  0.62999753  1
  Si  Si0  1  0.25004072  0.25356499  0.50312065  1
  Si  Si1  1  0.75014301  0.25315907  0.00353261  1
  Si  Si2  1  0.33335297  0.58679751  0.25343659  1
  Si  Si3  1  0.66643864  0.92010371  0.25391748  1
  Si  Si4  1  0.16686628  0.91962457  0.75272057  1
  P  P0  1  0.83330046  0.58659525  0.75340329  1
loop_
_geom_bond_atom_site_label_1
_geom_bond_atom_site_label_2
_geom_bond_distance
_geom_bond_site_symmetry_2
Hf0 P0 2.773995 1_555
Hf0 Si2 2.784008 1_555
Hf0 Si3 2.793154 1_556
Hf0 Si4 2.794499 1_555
Hf0 Si0 2.816503 1_555
Hf0 Ti3 2.997957 1_566
Hf0 Ti4 3.011687 1_565
Hf0 Ti5 3.054915 1_555
Hf0 Ti0 3.068235 1_556
Hf0 Ti2 3.070123 1_555
Hf0 Ti1 3.083873 1_455
Hf1 P0 2.773666 1_555
Hf1 Si2 2.785629 1_555
Hf1 Si3 2.789795 1_545
Hf1 Si4 2.800835 1_544
Hf1 Si1 2.817786 1_555
Hf1 Ti5 2.997695 1_555
Hf1 Ti2 3.007580 1_555
Hf1 Ti1 3.050818 1_555
Hf1 Ti0 3.070201 1_555
Hf1 Ti3 3.074540 1_555
Hf1 Ti4 3.084747 1_554
Hf2 P0 2.773657 1_555
Hf2 Si2 2.783558 1_555
Hf2 Si4 2.791256 1_655
Hf2 Si3 2.796533 1_555
Hf2 Si1 2.818212 1_566
Hf2 Ti1 2.998364 1_555
Hf2 Ti0 3.011144 1_555
Hf2 Ti3 3.052433 1_566
Hf2 Ti4 3.065040 1_565
Hf2 Ti2 3.067857 1_666
Hf2 Ti5 3.085254 1_565
Hf3 P0 2.773596 1_454
Hf3 Si2 2.785208 1_555
Hf3 Si4 2.790925 1_554
Hf3 Si3 2.796008 1_555
Hf3 Si0 2.818667 1_565
Hf3 Ti1 2.999135 1_454
Hf3 Ti0 3.010424 1_555
Hf3 Ti3 3.051630 1_465
Hf3 Ti4 3.063695 1_565
Hf3 Ti2 3.068287 1_565
Hf3 Ti5 3.086835 1_565
Hf4 P0 2.773115 1_455
Hf4 Si2 2.785291 1_556
Hf4 Si3 2.789698 1_445
Hf4 Si4 2.801044 1_545
Hf4 Si0 2.820045 1_555
Hf4 Ti5 2.996156 1_455
Hf4 Ti2 3.007686 1_556
Hf4 Ti1 3.051213 1_455
Hf4 Ti0 3.067773 1_556
Hf4 Ti3 3.074631 1_455
Hf4 Ti4 3.079902 1_555
Hf5 P0 2.774248 1_554
Hf5 Si2 2.783263 1_655
Hf5 Si3 2.791778 1_555
Hf5 Si4 2.795582 1_655
Hf5 Si1 2.819129 1_555
Hf5 Ti3 2.998572 1_565
Hf5 Ti4 3.009245 1_665
Hf5 Ti5 3.051974 1_554
Hf5 Ti0 3.067006 1_555
Hf5 Ti2 3.067705 1_655
Hf5 Ti1 3.083618 1_555
Si0 Ti2 2.514776 1_555
Si0 Ti4 2.515553 1_555
Si0 Ti1 2.515704 1_455
Si0 Ti5 2.516832 1_555
Si0 Ti0 2.516973 1_556
Si0 Ti3 2.517928 1_455
Si1 Ti2 2.514612 1_655
Si1 Ti1 2.515528 1_555
Si1 Ti3 2.516007 1_555
Si1 Ti4 2.516738 1_554
Si1 Ti0 2.517322 1_555
Si1 Ti5 2.517732 1_554
Si2 Ti4 2.646219 1_565
Si2 Ti2 2.648428 1_555
Si2 Ti0 2.648929 1_555
Si3 Ti0 2.647159 1_555
Si3 Ti5 2.649807 1_565
Si3 Ti3 2.655929 1_565
Si4 Ti4 2.648254 1_565
Si4 Ti2 2.651489 1_566
Si4 Ti1 2.654068 1_455
P0 Ti5 2.639984 1_555
P0 Ti1 2.641286 1_555
P0 Ti3 2.642019 1_566
