# generated using pymatgen
data_Ti4ReSiB2
_symmetry_space_group_name_H-M   'P 1'
_cell_length_a   7.15492812
_cell_length_b   7.15488341
_cell_length_c   7.15479738
_cell_angle_alpha   130.46857314
_cell_angle_beta   130.46856985
_cell_angle_gamma   72.66268033
_symmetry_Int_Tables_number   1
_chemical_formula_structural   Ti4ReSiB2
_chemical_formula_sum   'Ti8 Re2 Si2 B4'
_cell_volume   207.12184912
_cell_formula_units_Z   2
loop_
 _symmetry_equiv_pos_site_id
 _symmetry_equiv_pos_as_xyz
  1  'x, y, z'
loop_
 _atom_site_type_symbol
 _atom_site_label
 _atom_site_symmetry_multiplicity
 _atom_site_fract_x
 _atom_site_fract_y
 _atom_site_fract_z
 _atom_site_occupancy
  Ti  Ti0  1  0.80761589  0.95864692  0.49999493  1
  Ti  Ti1  1  0.30772927  0.80772022  0.84934157  1
  Ti  Ti2  1  0.19238411  0.04135308  0.50000507  1
  Ti  Ti3  1  0.54137150  0.69239022  0.50003141  1
  Ti  Ti4  1  0.04141470  0.54142805  0.84910957  1
  Ti  Ti5  1  0.69227073  0.19227978  0.15065843  1
  Ti  Ti6  1  0.95858530  0.45857195  0.15089043  1
  Ti  Ti7  1  0.45862850  0.30760978  0.49996859  1
  Re  Re0  1  0.00000000  0.00000000  0.00000000  1
  Re  Re1  1  0.50000000  0.50000000  0.00000000  1
  Si  Si0  1  0.74991029  0.75008683  0.00001017  1
  Si  Si1  1  0.25008971  0.24991317  0.99998983  1
  B  B0  1  0.38843619  0.88842894  0.27692319  1
  B  B1  1  0.88854568  0.61145772  0.49999862  1
  B  B2  1  0.61156381  0.11157106  0.72307681  1
  B  B3  1  0.11145432  0.38854228  0.50000138  1
loop_
_geom_bond_atom_site_label_1
_geom_bond_atom_site_label_2
_geom_bond_distance
_geom_bond_site_symmetry_2
Re0 Ti5 2.693128 1_455
Re0 Ti1 2.693128 1_544
Re0 Ti7 2.693646 1_555
Re0 Ti3 2.693646 1_444
Re0 Ti6 2.693757 1_455
Re0 Ti4 2.693757 1_544
Re0 Ti2 2.693884 1_555
Re0 Ti0 2.693884 1_444
Re1 Ti1 2.693055 1_554
Re1 Ti5 2.693055 1_555
Re1 Ti0 2.693732 1_555
Re1 Ti2 2.693732 1_554
Re1 Ti6 2.693866 1_555
Re1 Ti4 2.693866 1_554
Re1 Ti7 2.693967 1_554
Re1 Ti3 2.693967 1_555
Si0 Ti1 2.591131 1_554
Si0 Ti5 2.591233 1_565
Si0 Ti0 2.591326 1_555
Si0 Ti3 2.591364 1_554
Si0 Ti2 2.591708 1_665
Si0 Ti7 2.591766 1_554
Si0 Ti6 2.592195 1_555
Si0 Ti4 2.592213 1_654
Si1 Ti5 2.591131 1_556
Si1 Ti1 2.591233 1_545
Si1 Ti2 2.591326 1_555
Si1 Ti7 2.591364 1_556
Si1 Ti0 2.591708 1_445
Si1 Ti3 2.591766 1_556
Si1 Ti4 2.592195 1_555
Si1 Ti6 2.592213 1_456
B0 B2 1.891020 1_565
B0 Ti2 2.331738 1_565
B0 Ti3 2.331775 1_555
B0 Ti0 2.332067 1_555
B0 Ti7 2.332084 1_565
B0 Ti1 2.374539 1_554
B0 Ti4 2.375337 1_554
B0 Re1 2.422745 1_555
B0 Re0 2.422805 1_565
B1 B3 1.889827 1_655
B1 Ti5 2.331895 1_555
B1 Ti1 2.331910 1_655
B1 Ti4 2.331970 1_655
B1 Ti6 2.331977 1_555
B1 Ti0 2.376725 1_555
B1 Ti3 2.376743 1_555
B1 Re1 2.422973 1_555
B1 Re0 2.422977 1_666
B2 Ti0 2.331738 1_545
B2 Ti7 2.331775 1_555
B2 Ti2 2.332067 1_555
B2 Ti3 2.332084 1_545
B2 Ti5 2.374539 1_556
B2 Ti6 2.375337 1_556
B2 Re1 2.422745 1_556
B2 Re0 2.422805 1_656
B3 Ti1 2.331895 1_555
B3 Ti5 2.331910 1_455
B3 Ti6 2.331970 1_455
B3 Ti4 2.331977 1_555
B3 Ti2 2.376725 1_555
B3 Ti7 2.376743 1_555
B3 Re1 2.422973 1_556
B3 Re0 2.422977 1_555
