# generated using pymatgen
data_Ca5Sn2BiH
_symmetry_space_group_name_H-M   'P 1'
_cell_length_a   9.47600832
_cell_length_b   9.47600850
_cell_length_c   9.47600880
_cell_angle_alpha   128.80302434
_cell_angle_beta   128.80302230
_cell_angle_gamma   75.32772539
_symmetry_Int_Tables_number   1
_chemical_formula_structural   Ca5Sn2BiH
_chemical_formula_sum   'Ca10 Sn4 Bi2 H2'
_cell_volume   502.96659142
_cell_formula_units_Z   2
loop_
 _symmetry_equiv_pos_site_id
 _symmetry_equiv_pos_as_xyz
  1  'x, y, z'
loop_
 _atom_site_type_symbol
 _atom_site_label
 _atom_site_symmetry_multiplicity
 _atom_site_fract_x
 _atom_site_fract_y
 _atom_site_fract_z
 _atom_site_occupancy
  Ca  Ca0  1  0.50000000  0.50000000  0.00000000  1
  Ca  Ca1  1  0.00000000  0.00000000  0.00000000  1
  Ca  Ca2  1  0.51329268  0.01329268  0.81968012  1
  Ca  Ca3  1  0.19361256  0.69361256  0.18031988  1
  Ca  Ca4  1  0.01329268  0.19361256  0.50000000  1
  Ca  Ca5  1  0.69361256  0.51329268  0.50000000  1
  Ca  Ca6  1  0.48670732  0.98670732  0.18031988  1
  Ca  Ca7  1  0.80638744  0.30638744  0.81968012  1
  Ca  Ca8  1  0.98670732  0.80638744  0.50000000  1
  Ca  Ca9  1  0.30638744  0.48670732  0.50000000  1
  Sn  Sn0  1  0.87140605  0.37140605  0.24281309  1
  Sn  Sn1  1  0.12859395  0.62859395  0.75718691  1
  Sn  Sn2  1  0.37140605  0.12859395  0.50000000  1
  Sn  Sn3  1  0.62859395  0.87140605  0.50000000  1
  Bi  Bi0  1  0.25000000  0.25000000  0.00000000  1
  Bi  Bi1  1  0.75000000  0.75000000  0.00000000  1
  H  H0  1  0.25000000  0.75000000  0.50000000  1
  H  H1  1  0.75000000  0.25000000  0.50000000  1
loop_
_geom_bond_atom_site_label_1
_geom_bond_atom_site_label_2
_geom_bond_distance
_geom_bond_site_symmetry_2
Ca0 Sn3 3.218370 1_555
Ca0 Sn2 3.218370 1_554
Ca0 Sn0 3.218373 1_555
Ca0 Sn1 3.218373 1_554
Ca1 Sn2 3.218370 1_555
Ca1 Sn3 3.218370 1_444
Ca1 Sn0 3.218373 1_455
Ca1 Sn1 3.218373 1_544
Ca2 H0 2.415577 1_545
Ca2 Sn3 3.236894 1_545
Ca2 Sn2 3.236894 1_555
Ca2 Sn0 3.291837 1_556
Ca3 H0 2.415578 1_555
Ca3 Sn2 3.236894 1_565
Ca3 Sn3 3.236894 1_555
Ca3 Sn1 3.291847 1_554
Ca4 H1 2.415577 1_455
Ca4 Sn0 3.236887 1_455
Ca4 Sn1 3.236897 1_555
Ca4 Sn2 3.291837 1_555
Ca5 H1 2.415577 1_555
Ca5 Sn0 3.236886 1_555
Ca5 Sn1 3.236897 1_655
Ca5 Sn3 3.291837 1_555
Ca6 H1 2.415577 1_565
Ca6 Sn2 3.236894 1_565
Ca6 Sn3 3.236894 1_555
Ca6 Sn1 3.291837 1_554
Ca7 H1 2.415578 1_555
Ca7 Sn3 3.236894 1_545
Ca7 Sn2 3.236894 1_555
Ca7 Sn0 3.291847 1_556
Ca8 H0 2.415577 1_655
Ca8 Sn1 3.236887 1_655
Ca8 Sn0 3.236897 1_555
Ca8 Sn3 3.291837 1_555
Ca9 H0 2.415577 1_555
Ca9 Sn1 3.236886 1_555
Ca9 Sn0 3.236897 1_455
Ca9 Sn2 3.291837 1_555
Sn0 Sn1 2.978279 1_655
Sn2 Sn3 2.978290 1_545
Bi0 Ca8 3.446780 1_444
Bi0 Ca7 3.446780 1_454
Bi0 Ca3 3.446780 1_555
Bi0 Ca5 3.446780 1_555
Bi0 Ca2 3.446780 1_554
Bi0 Ca6 3.446781 1_545
Bi0 Ca9 3.446781 1_555
Bi0 Ca4 3.446781 1_554
Bi0 Ca0 3.750647 1_555
Bi0 Ca1 3.750647 1_555
Bi1 Ca4 3.446780 1_665
Bi1 Ca3 3.446780 1_655
Bi1 Ca7 3.446780 1_554
Bi1 Ca9 3.446780 1_554
Bi1 Ca6 3.446780 1_555
Bi1 Ca2 3.446781 1_564
Bi1 Ca5 3.446781 1_554
Bi1 Ca8 3.446781 1_555
Bi1 Ca1 3.750647 1_665
Bi1 Ca0 3.750647 1_555
