# generated using pymatgen
data_TaHgO3F
_symmetry_space_group_name_H-M   'P 1'
_cell_length_a   3.83902140
_cell_length_b   7.17178494
_cell_length_c   6.81319678
_cell_angle_alpha   69.71712286
_cell_angle_beta   90.00325995
_cell_angle_gamma   89.99948992
_symmetry_Int_Tables_number   1
_chemical_formula_structural   TaHgO3F
_chemical_formula_sum   'Ta2 Hg2 O6 F2'
_cell_volume   175.95358621
_cell_formula_units_Z   2
loop_
 _symmetry_equiv_pos_site_id
 _symmetry_equiv_pos_as_xyz
  1  'x, y, z'
loop_
 _atom_site_type_symbol
 _atom_site_label
 _atom_site_symmetry_multiplicity
 _atom_site_fract_x
 _atom_site_fract_y
 _atom_site_fract_z
 _atom_site_occupancy
  Ta  Ta0  1  0.24996814  0.84488138  0.19273631  1
  Ta  Ta1  1  0.75003186  0.15511962  0.80726369  1
  Hg  Hg0  1  0.74995067  0.34524292  0.23142544  1
  Hg  Hg1  1  0.25005133  0.65475808  0.76857356  1
  O  O0  1  0.25001628  0.63992583  0.07481166  1
  O  O1  1  0.74996381  0.91420709  0.12444731  1
  O  O2  1  0.74998803  0.32118277  0.53621007  1
  O  O3  1  0.25001397  0.67881723  0.46378893  1
  O  O4  1  0.25003519  0.08579291  0.87555269  1
  O  O5  1  0.74998372  0.36007517  0.92518734  1
  F  F0  1  0.25000180  0.08409576  0.28527615  1
  F  F1  1  0.74999720  0.91590224  0.71472585  1
loop_
_geom_bond_atom_site_label_1
_geom_bond_atom_site_label_2
_geom_bond_distance
_geom_bond_site_symmetry_2
Hg0 O2 2.023225 1_555
Hg0 O5 2.052013 1_554
Hg1 O3 2.023227 1_555
Hg1 O0 2.052013 1_556
O0 Ta0 1.903918 1_555
O1 Ta0 1.996937 1_655
O1 Ta0 1.996964 1_555
O1 Ta1 2.250911 1_564
O2 Ta1 1.817687 1_555
O3 Ta0 1.817684 1_555
O4 Ta1 1.996934 1_455
O4 Ta1 1.996969 1_555
O4 Ta0 2.250908 1_546
O5 Ta1 1.903914 1_555
F0 Ta0 2.022552 1_545
F1 Ta1 2.022564 1_565
