# generated using pymatgen
data_Zr12Cd12C3S
_symmetry_space_group_name_H-M   'P 1'
_cell_length_a   9.20803805
_cell_length_b   9.20803760
_cell_length_c   9.20803837
_cell_angle_alpha   59.16983074
_cell_angle_beta   59.16983463
_cell_angle_gamma   59.16983215
_symmetry_Int_Tables_number   1
_chemical_formula_structural   Zr12Cd12C3S
_chemical_formula_sum   'Zr12 Cd12 C3 S1'
_cell_volume   541.61637751
_cell_formula_units_Z   1
loop_
 _symmetry_equiv_pos_site_id
 _symmetry_equiv_pos_as_xyz
  1  'x, y, z'
loop_
 _atom_site_type_symbol
 _atom_site_label
 _atom_site_symmetry_multiplicity
 _atom_site_fract_x
 _atom_site_fract_y
 _atom_site_fract_z
 _atom_site_occupancy
  Zr  Zr0  1  0.79816762  0.18233584  0.18233584  1
  Zr  Zr1  1  0.18233584  0.79816762  0.18233584  1
  Zr  Zr2  1  0.82048160  0.82048160  0.18169442  1
  Zr  Zr3  1  0.18169442  0.82048160  0.82048160  1
  Zr  Zr4  1  0.82048160  0.18169442  0.82048160  1
  Zr  Zr5  1  0.18233584  0.18233584  0.79816762  1
  Zr  Zr6  1  0.45183238  0.06766416  0.06766416  1
  Zr  Zr7  1  0.06766416  0.45183238  0.06766416  1
  Zr  Zr8  1  0.42951840  0.42951840  0.06830558  1
  Zr  Zr9  1  0.06830558  0.42951840  0.42951840  1
  Zr  Zr10  1  0.42951840  0.06830558  0.42951840  1
  Zr  Zr11  1  0.06766416  0.06766416  0.45183238  1
  Cd  Cd0  1  0.41390114  0.41390114  0.75792593  1
  Cd  Cd1  1  0.41253290  0.41253290  0.41253290  1
  Cd  Cd2  1  0.75792593  0.41390114  0.41390114  1
  Cd  Cd3  1  0.41390114  0.75792593  0.41390114  1
  Cd  Cd4  1  0.83609886  0.83609886  0.49207407  1
  Cd  Cd5  1  0.83746710  0.83746710  0.83746710  1
  Cd  Cd6  1  0.49207407  0.83609886  0.83609886  1
  Cd  Cd7  1  0.83609886  0.49207407  0.83609886  1
  Cd  Cd8  1  0.62500000  0.62500000  0.12500000  1
  Cd  Cd9  1  0.62500000  0.62500000  0.62500000  1
  Cd  Cd10  1  0.12500000  0.62500000  0.62500000  1
  Cd  Cd11  1  0.62500000  0.12500000  0.62500000  1
  C  C0  1  0.12500000  0.12500000  0.62500000  1
  C  C1  1  0.62500000  0.12500000  0.12500000  1
  C  C2  1  0.12500000  0.62500000  0.12500000  1
  S  S0  1  0.12500000  0.12500000  0.12500000  1
loop_
_geom_bond_atom_site_label_1
_geom_bond_atom_site_label_2
_geom_bond_distance
_geom_bond_site_symmetry_2
Cd0 Cd10 2.819908 1_555
Cd0 Cd11 2.819908 1_555
Cd0 Cd9 2.837325 1_555
Cd0 Zr6 2.996714 1_556
Cd0 Zr7 2.996714 1_556
Cd0 Zr8 3.012171 1_556
Cd0 Cd3 3.127961 1_555
Cd0 Cd2 3.127961 1_555
Cd0 Cd1 3.193355 1_555
Cd0 Zr3 3.415071 1_555
Cd0 Zr4 3.415071 1_555
Cd0 Zr5 3.502978 1_555
Cd1 Cd11 2.823043 1_555
Cd1 Cd8 2.823043 1_555
Cd1 Cd10 2.823043 1_555
Cd1 Zr10 3.017360 1_555
Cd1 Zr9 3.017360 1_555
Cd1 Zr8 3.017361 1_555
Cd1 Cd3 3.193355 1_555
Cd1 Cd2 3.193355 1_555
Cd1 Zr1 3.281857 1_555
Cd1 Zr5 3.281857 1_555
Cd1 Zr0 3.281857 1_555
Cd2 Cd8 2.819908 1_555
Cd2 Cd9 2.837325 1_555
Cd2 Zr11 2.996714 1_655
Cd2 Zr7 2.996714 1_655
Cd2 Zr9 3.012171 1_655
Cd2 Cd3 3.127961 1_555
Cd2 Zr2 3.415070 1_555
Cd2 Zr4 3.415071 1_555
Cd2 Zr0 3.502978 1_555
Cd3 Cd8 2.819909 1_555
Cd3 Cd9 2.837325 1_555
Cd3 Zr6 2.996714 1_565
Cd3 Zr11 2.996714 1_565
Cd3 Zr10 3.012171 1_565
Cd3 Zr2 3.415071 1_555
Cd3 Zr3 3.415071 1_555
Cd3 Zr1 3.502978 1_555
Cd4 Cd9 2.837325 1_555
Cd4 Zr0 2.996714 1_565
Cd4 Zr1 2.996714 1_655
Cd4 Zr2 3.012171 1_555
Cd4 Cd7 3.127961 1_555
Cd4 Cd6 3.127961 1_555
Cd4 Cd5 3.193355 1_555
Cd4 Zr9 3.415071 1_655
Cd4 Zr10 3.415071 1_565
Cd4 Zr11 3.502978 1_665
Cd5 Cd8 2.823043 1_556
Cd5 Zr4 3.017360 1_565
Cd5 Zr3 3.017360 1_655
Cd5 Zr2 3.017361 1_556
Cd5 Cd7 3.193355 1_555
Cd5 Cd6 3.193355 1_555
Cd5 Zr7 3.281857 1_656
Cd5 Zr11 3.281857 1_665
Cd5 Zr6 3.281857 1_566
Cd6 Cd8 2.819908 1_556
Cd6 Cd9 2.837325 1_555
Cd6 Zr5 2.996714 1_565
Cd6 Zr1 2.996714 1_556
Cd6 Zr3 3.012171 1_555
Cd6 Cd7 3.127961 1_555
Cd6 Zr8 3.415070 1_556
Cd6 Zr10 3.415071 1_565
Cd6 Zr6 3.502978 1_566
Cd7 Cd8 2.819909 1_556
Cd7 Cd9 2.837325 1_555
Cd7 Zr0 2.996714 1_556
Cd7 Zr5 2.996714 1_655
Cd7 Zr4 3.012171 1_555
Cd7 Zr8 3.415071 1_556
Cd7 Zr9 3.415071 1_655
Cd7 Zr7 3.502978 1_656
Cd8 Zr6 3.380959 1_565
Cd8 Zr0 3.380959 1_555
Cd8 Zr7 3.380959 1_655
Cd8 Zr1 3.380959 1_555
Cd8 Zr2 3.464079 1_555
Cd8 Zr8 3.464079 1_555
Cd9 Zr10 3.376559 1_565
Cd9 Zr4 3.376559 1_555
Cd9 Zr9 3.376559 1_655
Cd9 Zr3 3.376559 1_555
Cd9 Zr8 3.376559 1_556
Cd9 Zr2 3.376559 1_555
Cd10 Cd4 2.819908 1_455
Cd10 Cd7 2.819908 1_455
Cd10 Cd3 2.819908 1_555
Cd10 Cd5 2.823043 1_455
Cd10 Zr11 3.380959 1_565
Cd10 Zr5 3.380959 1_555
Cd10 Zr7 3.380959 1_556
Cd10 Zr1 3.380959 1_555
Cd10 Zr3 3.464080 1_555
Cd10 Zr9 3.464080 1_555
Cd11 Cd2 2.819908 1_555
Cd11 Cd6 2.819908 1_545
Cd11 Cd4 2.819908 1_545
Cd11 Cd5 2.823043 1_545
Cd11 Zr11 3.380959 1_655
Cd11 Zr5 3.380959 1_555
Cd11 Zr6 3.380959 1_556
Cd11 Zr0 3.380959 1_555
Cd11 Zr4 3.464080 1_555
Cd11 Zr10 3.464080 1_555
C0 Zr5 2.260851 1_555
C0 Zr11 2.260851 1_555
C0 Zr9 2.380009 1_555
C0 Zr3 2.380009 1_545
C0 Zr10 2.380009 1_555
C0 Zr4 2.380009 1_455
C1 Zr0 2.260851 1_555
C1 Zr6 2.260851 1_555
C1 Zr8 2.380009 1_555
C1 Zr2 2.380009 1_545
C1 Zr10 2.380009 1_555
C1 Zr4 2.380009 1_554
C2 Zr1 2.260851 1_555
C2 Zr7 2.260851 1_555
C2 Zr8 2.380009 1_555
C2 Zr2 2.380009 1_455
C2 Zr9 2.380009 1_555
C2 Zr3 2.380009 1_554
S0 Zr7 2.577408 1_555
S0 Zr1 2.577408 1_545
S0 Zr6 2.577408 1_555
S0 Zr0 2.577408 1_455
S0 Zr11 2.577408 1_555
S0 Zr5 2.577408 1_554
