# generated using pymatgen
data_Al2VBr8
_symmetry_space_group_name_H-M   'P 1'
_cell_length_a   10.05391751
_cell_length_b   10.05391727
_cell_length_c   12.37942366
_cell_angle_alpha   53.81354794
_cell_angle_beta   53.81354808
_cell_angle_gamma   49.59311967
_symmetry_Int_Tables_number   1
_chemical_formula_structural   Al2VBr8
_chemical_formula_sum   'Al4 V2 Br16'
_cell_volume   723.78491294
_cell_formula_units_Z   2
loop_
 _symmetry_equiv_pos_site_id
 _symmetry_equiv_pos_as_xyz
  1  'x, y, z'
loop_
 _atom_site_type_symbol
 _atom_site_label
 _atom_site_symmetry_multiplicity
 _atom_site_fract_x
 _atom_site_fract_y
 _atom_site_fract_z
 _atom_site_occupancy
  Al  Al0  1  0.15945887  0.67191875  0.53112025  1
  Al  Al1  1  0.32808125  0.84054113  0.96887975  1
  Al  Al2  1  0.84054113  0.32808125  0.46887975  1
  Al  Al3  1  0.67191875  0.15945887  0.03112025  1
  V  V0  1  0.99802516  0.00197484  0.75000000  1
  V  V1  1  0.00197484  0.99802516  0.25000000  1
  Br  Br0  1  0.31377863  0.37149596  0.55124332  1
  Br  Br1  1  0.62850404  0.68622137  0.94875668  1
  Br  Br2  1  0.68622137  0.62850404  0.44875668  1
  Br  Br3  1  0.37149596  0.31377863  0.05124332  1
  Br  Br4  1  0.86284804  0.82518735  0.52319639  1
  Br  Br5  1  0.17481265  0.13715196  0.97680361  1
  Br  Br6  1  0.13715196  0.17481265  0.47680361  1
  Br  Br7  1  0.82518735  0.86284804  0.02319639  1
  Br  Br8  1  0.14644560  0.68219632  0.72119331  1
  Br  Br9  1  0.31780368  0.85355440  0.77880669  1
  Br  Br10  1  0.85355440  0.31780368  0.27880669  1
  Br  Br11  1  0.68219632  0.14644560  0.22119331  1
  Br  Br12  1  0.29294769  0.85034750  0.31165802  1
  Br  Br13  1  0.14965250  0.70705231  0.18834198  1
  Br  Br14  1  0.70705231  0.14965250  0.68834198  1
  Br  Br15  1  0.85034750  0.29294769  0.81165802  1
loop_
_geom_bond_atom_site_label_1
_geom_bond_atom_site_label_2
_geom_bond_distance
_geom_bond_site_symmetry_2
Al0 Br0 2.254948 1_555
Al0 Br12 2.336890 1_555
Al0 Br8 2.338896 1_555
Al0 Br4 2.342348 1_455
Al1 Br1 2.254948 1_555
Al1 Br13 2.336890 1_556
Al1 Br9 2.338896 1_555
Al1 Br5 2.342348 1_565
Al2 Br2 2.254948 1_555
Al2 Br14 2.336890 1_555
Al2 Br10 2.338896 1_555
Al2 Br6 2.342348 1_655
Al3 Br3 2.254948 1_555
Al3 Br15 2.336890 1_554
Al3 Br11 2.338896 1_555
Al3 Br7 2.342348 1_545
Br4 V1 2.653217 1_655
Br5 V1 2.653217 1_546
Br6 V0 2.653217 1_455
Br7 V0 2.653217 1_564
Br8 V0 2.682565 1_465
Br9 V0 2.682565 1_465
Br10 V1 2.682565 1_645
Br11 V1 2.682565 1_645
Br12 V1 2.648140 1_555
Br13 V1 2.648140 1_555
Br14 V0 2.648140 1_555
Br15 V0 2.648140 1_555
