# generated using pymatgen
data_Sr3Co4(TcP3)2
_symmetry_space_group_name_H-M   'P 1'
_cell_length_a   8.47144702
_cell_length_b   8.47377323
_cell_length_c   8.47377329
_cell_angle_alpha   153.94234314
_cell_angle_beta   91.34734706
_cell_angle_gamma   94.48292814
_symmetry_Int_Tables_number   1
_chemical_formula_structural   Sr3Co4(TcP3)2
_chemical_formula_sum   'Sr3 Co4 Tc2 P6'
_cell_volume   260.21668142
_cell_formula_units_Z   1
loop_
 _symmetry_equiv_pos_site_id
 _symmetry_equiv_pos_as_xyz
  1  'x, y, z'
loop_
 _atom_site_type_symbol
 _atom_site_label
 _atom_site_symmetry_multiplicity
 _atom_site_fract_x
 _atom_site_fract_y
 _atom_site_fract_z
 _atom_site_occupancy
  Sr  Sr0  1  0.33173712  0.33346234  0.99827478  1
  Sr  Sr1  1  0.66821253  0.66672569  0.00148684  1
  Sr  Sr2  1  0.99805932  0.99977235  0.99828697  1
  Co  Co0  1  0.75898806  0.50892246  0.25006560  1
  Co  Co1  1  0.07466447  0.82440317  0.25026031  1
  Co  Co2  1  0.41552153  0.16672064  0.24880089  1
  Co  Co3  1  0.92424135  0.16662137  0.75762097  1
  Tc  Tc0  1  0.58347385  0.83748327  0.74598858  1
  Tc  Tc1  1  0.24187141  0.49582621  0.74604420  1
  P  P0  1  0.31466781  0.66662748  0.64803933  1
  P  P1  1  0.68410144  0.33470448  0.34939696  1
  P  P2  1  0.97697921  0.32386381  0.65311540  1
  P  P3  1  0.34830667  0.99884848  0.34945919  1
  P  P4  1  0.01679072  0.66663392  0.35015580  1
  P  P5  1  0.66238653  0.00938334  0.65300419  1
loop_
_geom_bond_atom_site_label_1
_geom_bond_atom_site_label_2
_geom_bond_distance
_geom_bond_site_symmetry_2
Co0 P4 2.166831 1_655
Co0 P5 2.229392 1_554
Co0 P5 2.229396 1_565
Co0 P1 2.324146 1_555
Co1 P4 2.166694 1_555
Co1 P2 2.229903 1_454
Co1 P2 2.229906 1_465
Co1 P3 2.325006 1_555
Co2 P0 2.252277 1_555
Co2 P0 2.252280 1_544
Co2 P3 2.269697 1_545
Co2 P1 2.269815 1_555
Co3 P2 2.191977 1_555
Co3 P5 2.192086 1_555
Co3 P4 2.202236 1_656
Co3 P4 2.202243 1_645
P0 Tc0 2.281935 1_555
P0 Tc1 2.282300 1_555
P0 Sr2 3.236679 1_444
P0 Sr2 3.236682 1_455
P0 Sr0 3.237222 1_554
P0 Sr0 3.237224 1_565
P1 Tc0 2.269259 1_555
P1 Tc0 2.269265 1_544
P1 Sr2 3.218924 1_555
P1 Sr2 3.218924 1_544
P1 Sr1 3.260177 1_545
P1 Sr1 3.260177 1_556
P2 Tc1 2.263437 1_655
P2 Sr1 3.184141 1_545
P2 Sr1 3.184141 1_556
P2 Sr2 3.332810 1_555
P2 Sr2 3.332810 1_544
P3 Tc1 2.269331 1_565
P3 Tc1 2.269338 1_554
P3 Sr0 3.221204 1_565
P3 Sr0 3.221206 1_554
P3 Sr1 3.258464 1_566
P3 Sr1 3.258467 1_555
P4 Sr0 3.225932 1_554
P4 Sr0 3.225934 1_565
P4 Sr2 3.226848 1_444
P4 Sr2 3.226851 1_455
P5 Tc0 2.263673 1_545
P5 Sr1 3.185322 1_556
P5 Sr1 3.185325 1_545
P5 Sr0 3.331601 1_555
P5 Sr0 3.331603 1_544
