# generated using pymatgen
data_K2ScAlB28
_symmetry_space_group_name_H-M   'P 1'
_cell_length_a   7.48319876
_cell_length_b   7.48319781
_cell_length_c   7.42339955
_cell_angle_alpha   133.37095004
_cell_angle_beta   111.74907143
_cell_angle_gamma   87.20211995
_symmetry_Int_Tables_number   1
_chemical_formula_structural   K2ScAlB28
_chemical_formula_sum   'K2 Sc1 Al1 B28'
_cell_volume   267.33394523
_cell_formula_units_Z   1
loop_
 _symmetry_equiv_pos_site_id
 _symmetry_equiv_pos_as_xyz
  1  'x, y, z'
loop_
 _atom_site_type_symbol
 _atom_site_label
 _atom_site_symmetry_multiplicity
 _atom_site_fract_x
 _atom_site_fract_y
 _atom_site_fract_z
 _atom_site_occupancy
  K  K0  1  0.09996057  0.75069412  0.35065469  1
  K  K1  1  0.90003943  0.24930588  0.64934531  1
  Sc  Sc0  1  0.50000000  0.50000000  0.50000000  1
  Al  Al0  1  0.50000000  0.00000000  0.00000000  1
  B  B0  1  0.89599311  0.21640273  0.99806623  1
  B  B1  1  0.46783743  0.17832355  0.79589744  1
  B  B2  1  0.88242511  0.17194100  0.20410256  1
  B  B3  1  0.71833750  0.39792687  0.00193377  1
  B  B4  1  0.58336203  0.41674741  0.16409066  1
  B  B5  1  0.73955091  0.35588856  0.36216223  1
  B  B6  1  0.30737349  0.33661564  0.97249027  1
  B  B7  1  0.71923419  0.71774272  0.32225734  1
  B  B8  1  0.87618309  0.67408901  0.70413731  1
  B  B9  1  0.46995070  0.67204578  0.29586269  1
  B  B10  1  0.10451362  0.10302415  0.32225734  1
  B  B11  1  0.89548638  0.89697585  0.67774266  1
  B  B12  1  0.53004930  0.32795422  0.70413731  1
  B  B13  1  0.12381691  0.32591099  0.29586269  1
  B  B14  1  0.28076581  0.28225728  0.67774266  1
  B  B15  1  0.75265575  0.91927236  0.83590934  1
  B  B16  1  0.49372633  0.87738768  0.63783777  1
  B  B17  1  0.86412536  0.83488322  0.02750973  1
  B  B18  1  0.69262651  0.66338436  0.02750973  1
  B  B19  1  0.26044909  0.64411144  0.63783777  1
  B  B20  1  0.41663797  0.58325259  0.83590934  1
  B  B21  1  0.28166250  0.60207313  0.99806623  1
  B  B22  1  0.11757489  0.82805900  0.79589744  1
  B  B23  1  0.53216257  0.82167645  0.20410256  1
  B  B24  1  0.10400689  0.78359727  0.00193377  1
  B  B25  1  0.13587464  0.16511678  0.97249027  1
  B  B26  1  0.50627367  0.12261232  0.36216223  1
  B  B27  1  0.24734425  0.08072764  0.16409066  1
loop_
_geom_bond_atom_site_label_1
_geom_bond_atom_site_label_2
_geom_bond_distance
_geom_bond_site_symmetry_2
Al0 B26 2.143523 1_555
Al0 B16 2.143523 1_544
Al0 B5 2.143526 1_555
Al0 B19 2.143526 1_544
Al0 B15 2.451115 1_544
Al0 B27 2.451115 1_555
Al0 B4 2.451121 1_555
Al0 B20 2.451121 1_544
Al0 B2 2.570897 1_555
Al0 B22 2.570897 1_544
Al0 B1 2.570903 1_554
Al0 B23 2.570903 1_545
B0 B15 1.772948 1_545
B0 B2 1.810429 1_556
B0 B13 1.822181 1_656
B0 B3 1.847116 1_556
B0 B25 1.868393 1_655
B0 B11 1.885662 1_545
B0 K1 2.774368 1_555
B0 K0 2.903161 1_656
B1 B16 1.726963 1_545
B1 B4 1.761550 1_556
B1 B14 1.804056 1_555
B1 B12 1.807744 1_555
B1 B3 1.810438 1_556
B1 B6 1.859704 1_555
B1 K0 2.886776 1_545
B2 B5 1.726948 1_555
B2 K1 2.886777 1_555
B3 B4 1.772957 1_555
B3 B7 1.885659 1_555
B3 K0 2.774362 1_655
B3 K1 2.903155 1_554
B4 B7 1.786717 1_555
B4 B9 1.793658 1_555
B4 B5 1.824718 1_555
B4 B6 1.849468 1_554
B4 Sc0 2.444682 1_555
B5 B8 1.780949 1_555
B5 Sc0 2.253547 1_555
B5 K1 2.639647 1_555
B6 B9 1.844259 1_556
B6 K1 2.845273 1_455
B7 B9 1.826079 1_555
B7 K0 2.788267 1_655
B7 K1 2.893886 1_565
B8 Sc0 2.530474 1_555
B8 K1 2.919645 1_555
B9 Sc0 2.530473 1_555
B9 K0 2.919638 1_555
B10 B27 1.786724 1_555
B10 B14 1.798475 1_555
B10 B2 1.804056 1_455
B10 B13 1.826065 1_555
B10 B17 1.858821 1_445
B10 B24 1.885662 1_545
B10 K0 2.788274 1_545
B10 K1 2.893881 1_455
B11 B15 1.786724 1_555
B11 B7 1.798475 1_555
B11 B22 1.804056 1_655
B11 B8 1.826065 1_555
B11 B25 1.858821 1_665
B11 K1 2.788274 1_565
B11 K0 2.893881 1_655
B12 B26 1.780947 1_555
B12 B20 1.793658 1_555
B12 B3 1.822181 1_556
B12 B14 1.826079 1_555
B12 B18 1.844259 1_556
B12 Sc0 2.530473 1_555
B12 K1 2.919638 1_555
B13 B19 1.780949 1_555
B13 B27 1.793663 1_555
B13 B2 1.807744 1_455
B13 B25 1.844261 1_554
B13 Sc0 2.530474 1_555
B13 K0 2.919645 1_555
B14 B20 1.786717 1_555
B14 B6 1.858823 1_555
B14 B21 1.885659 1_555
B14 K1 2.788267 1_455
B14 K0 2.893886 1_545
B15 B2 1.761550 1_566
B15 B8 1.793663 1_555
B15 B16 1.824707 1_555
B15 B17 1.849475 1_556
B15 Sc0 2.444683 1_555
B16 B9 1.780947 1_555
B16 Sc0 2.253539 1_555
B16 K0 2.639648 1_555
B17 B8 1.844261 1_554
B17 B18 1.858714 1_555
B17 B2 1.859712 1_565
B17 B24 1.868393 1_655
B17 K0 2.845273 1_655
B18 B20 1.849468 1_554
B18 B7 1.858823 1_555
B18 B23 1.859704 1_555
B18 B3 1.868394 1_555
B18 K0 2.845273 1_655
B19 B22 1.726948 1_555
B19 B20 1.824718 1_555
B19 Sc0 2.253547 1_555
B19 K0 2.639647 1_555
B20 B23 1.761550 1_556
B20 B21 1.772957 1_555
B20 Sc0 2.444682 1_555
B21 B23 1.810438 1_556
B21 B9 1.822181 1_556
B21 B24 1.847116 1_556
B21 B6 1.868394 1_555
B21 K1 2.774362 1_455
B21 K0 2.903155 1_556
B22 B27 1.761550 1_566
B22 B8 1.807744 1_455
B22 B24 1.810429 1_556
B22 B25 1.859712 1_565
B22 K0 2.886777 1_555
B23 B26 1.726963 1_565
B23 B7 1.804056 1_555
B23 B9 1.807744 1_555
B23 K1 2.886776 1_565
B24 B27 1.772948 1_565
B24 B8 1.822181 1_454
B24 K0 2.774368 1_555
B24 K1 2.903161 1_454
B25 B27 1.849475 1_556
B25 B6 1.858714 1_555
B25 K1 2.845273 1_455
B26 B27 1.824707 1_555
B26 Sc0 2.253539 1_555
B26 K1 2.639648 1_555
B27 Sc0 2.444683 1_555
