# generated using pymatgen
data_Ca(LaS2)2
_symmetry_space_group_name_H-M   'P 1'
_cell_length_a   7.53623819
_cell_length_b   7.53624248
_cell_length_c   7.53619748
_cell_angle_alpha   109.65689126
_cell_angle_beta   109.65688657
_cell_angle_gamma   109.10019394
_symmetry_Int_Tables_number   1
_chemical_formula_structural   Ca(LaS2)2
_chemical_formula_sum   'Ca2 La4 S8'
_cell_volume   329.47917055
_cell_formula_units_Z   2
loop_
 _symmetry_equiv_pos_site_id
 _symmetry_equiv_pos_as_xyz
  1  'x, y, z'
loop_
 _atom_site_type_symbol
 _atom_site_label
 _atom_site_symmetry_multiplicity
 _atom_site_fract_x
 _atom_site_fract_y
 _atom_site_fract_z
 _atom_site_occupancy
  Ca  Ca0  1  0.74999901  0.24999785  0.49999315  1
  Ca  Ca1  1  -0.00000136  0.00000229  0.00000400  1
  La  La0  1  0.50565717  0.12499983  0.88065812  1
  La  La1  1  0.87499751  0.75565704  0.38065778  1
  La  La2  1  0.24434313  0.62499880  0.11934465  1
  La  La3  1  0.37500054  0.49434129  0.61933939  1
  S  S0  1  0.98243470  0.37381563  0.24758520  1
  S  S1  1  0.48484872  0.37623357  0.25241427  1
  S  S2  1  0.62618408  0.87376981  0.60861493  1
  S  S3  1  0.12381941  0.23243725  0.74758830  1
  S  S4  1  0.76756450  0.51514944  0.89138592  1
  S  S5  1  0.62376407  0.87618203  0.10861531  1
  S  S6  1  0.26515120  0.01756438  0.39138322  1
  S  S7  1  0.12623633  0.73485080  0.75241579  1
loop_
_geom_bond_atom_site_label_1
_geom_bond_atom_site_label_2
_geom_bond_distance
_geom_bond_site_symmetry_2
Ca0 S5 2.882543 1_545
Ca0 S1 2.882568 1_555
Ca0 S3 2.882599 1_655
Ca0 S4 2.882631 1_555
Ca0 S0 3.150183 1_555
Ca0 S2 3.150225 1_545
Ca0 S6 3.150247 1_555
Ca0 S7 3.150274 1_655
Ca1 S0 2.882539 1_455
Ca1 S6 2.882567 1_555
Ca1 S2 2.882593 1_444
Ca1 S7 2.882621 1_544
Ca1 S5 3.150219 1_445
Ca1 S3 3.150239 1_554
Ca1 S1 3.150252 1_555
Ca1 S4 3.150264 1_444
La0 S1 2.894769 1_556
La0 S2 2.894788 1_545
La0 S7 2.912425 1_545
La0 S4 2.912426 1_555
La0 S5 3.080671 1_546
La0 S0 3.080706 1_556
La0 S6 3.173563 1_555
La0 S3 3.173572 1_555
La1 S7 2.894783 1_655
La1 S5 2.894787 1_555
La1 S1 2.912432 1_555
La1 S6 2.912458 1_665
La1 S2 3.080654 1_555
La1 S3 3.080725 1_665
La1 S4 3.173550 1_554
La1 S0 3.173598 1_555
La2 S3 2.894763 1_554
La2 S6 2.894777 1_565
La2 S0 2.912426 1_455
La2 S5 2.912435 1_555
La2 S7 3.080701 1_554
La2 S4 3.080711 1_454
La2 S1 3.173543 1_555
La2 S2 3.173553 1_555
La3 S0 2.894767 1_455
La3 S4 2.894787 1_555
La3 S3 2.912448 1_555
La3 S2 2.912460 1_555
La3 S1 3.080657 1_555
La3 S6 3.080700 1_555
La3 S7 3.173571 1_555
La3 S5 3.173586 1_556
