# generated using pymatgen
data_Lu4SiSn5Ir7
_symmetry_space_group_name_H-M   'P 1'
_cell_length_a   7.41964996
_cell_length_b   7.41964953
_cell_length_c   7.41964970
_cell_angle_alpha   109.43091457
_cell_angle_beta   109.49138227
_cell_angle_gamma   109.49137667
_symmetry_Int_Tables_number   1
_chemical_formula_structural   Lu4SiSn5Ir7
_chemical_formula_sum   'Lu4 Si1 Sn5 Ir7'
_cell_volume   314.43301247
_cell_formula_units_Z   1
loop_
 _symmetry_equiv_pos_site_id
 _symmetry_equiv_pos_as_xyz
  1  'x, y, z'
loop_
 _atom_site_type_symbol
 _atom_site_label
 _atom_site_symmetry_multiplicity
 _atom_site_fract_x
 _atom_site_fract_y
 _atom_site_fract_z
 _atom_site_occupancy
  Lu  Lu0  1  1.00000000  0.98631079  0.53234598  1
  Lu  Lu1  1  0.00000000  0.53234598  0.98631079  1
  Lu  Lu2  1  0.45396480  0.98631079  0.98631079  1
  Lu  Lu3  1  0.54603520  0.53234598  0.53234598  1
  Si  Si0  1  0.00000000  0.64960818  0.64960818  1
  Sn  Sn0  1  0.68788482  0.70257445  0.01468963  1
  Sn  Sn1  1  0.31211518  0.01468963  0.32680481  1
  Sn  Sn2  1  0.00000000  0.29104532  0.29104532  1
  Sn  Sn3  1  0.31211518  0.32680481  0.01468963  1
  Sn  Sn4  1  0.68788482  0.01468963  0.70257445  1
  Ir  Ir0  1  0.75578553  0.25361081  0.49782528  1
  Ir  Ir1  1  0.75578553  0.49782528  0.25361081  1
  Ir  Ir2  1  0.50000000  0.26026227  0.76026227  1
  Ir  Ir3  1  0.24421447  0.49782528  0.74203875  1
  Ir  Ir4  1  0.24421447  0.74203875  0.49782528  1
  Ir  Ir5  1  0.50000000  0.76026227  0.26026227  1
  Ir  Ir6  1  0.00000000  0.95145176  0.95145176  1
loop_
_geom_bond_atom_site_label_1
_geom_bond_atom_site_label_2
_geom_bond_distance
_geom_bond_site_symmetry_2
Lu0 Si0 2.905893 1_655
Lu0 Sn3 3.017084 1_666
Lu0 Sn4 3.017084 1_565
Lu0 Sn0 3.158797 1_555
Lu0 Sn1 3.158797 1_665
Lu0 Sn2 3.318279 1_665
Lu1 Si0 2.905893 1_555
Lu1 Sn1 3.017084 1_566
Lu1 Sn0 3.017084 1_456
Lu1 Sn4 3.158797 1_455
Lu1 Sn3 3.158797 1_556
Lu1 Sn2 3.318279 1_556
Lu2 Si0 2.905893 1_555
Lu2 Sn3 3.017084 1_566
Lu2 Sn1 3.017084 1_566
Lu2 Sn0 3.158797 1_556
Lu2 Sn4 3.158797 1_565
Lu2 Sn2 3.318279 1_666
Lu3 Si0 2.905893 1_655
Lu3 Sn4 3.017084 1_565
Lu3 Sn0 3.017084 1_556
Lu3 Sn3 3.158797 1_555
Lu3 Sn1 3.158797 1_555
Lu3 Sn2 3.318279 1_555
Ir0 Si0 2.463383 1_655
Ir0 Sn1 2.722267 1_555
Ir0 Sn4 2.722267 1_555
Ir0 Sn2 2.741746 1_655
Ir0 Lu1 2.970877 1_655
Ir0 Lu3 2.970877 1_555
Ir0 Lu2 3.115877 1_544
Ir0 Lu0 3.115877 1_545
Ir1 Si0 2.463383 1_655
Ir1 Sn0 2.722267 1_555
Ir1 Sn3 2.722267 1_555
Ir1 Sn2 2.741746 1_655
Ir1 Lu0 2.970877 1_555
Ir1 Lu3 2.970877 1_555
Ir1 Lu2 3.115877 1_544
Ir1 Lu1 3.115877 1_654
Ir2 Sn1 2.649678 1_555
Ir2 Sn4 2.649678 1_555
Ir2 Sn0 2.710368 1_556
Ir2 Sn3 2.710368 1_556
Ir2 Lu0 3.041125 1_445
Ir2 Lu1 3.041125 1_655
Ir2 Lu2 3.041125 1_545
Ir2 Lu3 3.041125 1_555
Ir3 Si0 2.463382 1_555
Ir3 Sn0 2.722268 1_556
Ir3 Sn3 2.722273 1_556
Ir3 Sn2 2.741740 1_555
Ir3 Lu2 2.970877 1_555
Ir3 Lu1 2.970883 1_555
Ir3 Lu3 3.115872 1_555
Ir3 Lu0 3.115878 1_445
Ir4 Si0 2.463382 1_555
Ir4 Sn4 2.722268 1_565
Ir4 Sn1 2.722273 1_565
Ir4 Sn2 2.741740 1_555
Ir4 Lu2 2.970877 1_555
Ir4 Lu0 2.970883 1_455
Ir4 Lu3 3.115871 1_555
Ir4 Lu1 3.115878 1_554
Ir5 Sn3 2.649678 1_555
Ir5 Sn0 2.649678 1_555
Ir5 Sn4 2.710368 1_565
Ir5 Sn1 2.710368 1_565
Ir5 Lu1 3.041125 1_554
Ir5 Lu0 3.041125 1_555
Ir5 Lu3 3.041125 1_555
Ir5 Lu2 3.041125 1_554
Ir6 Si0 2.587323 1_555
Ir6 Sn1 2.727774 1_566
Ir6 Sn4 2.727774 1_465
Ir6 Sn3 2.727774 1_566
Ir6 Sn0 2.727774 1_456
Ir6 Sn2 2.910906 1_566
Ir6 Lu3 3.204955 1_455
Ir6 Lu1 3.204955 1_555
Ir6 Lu0 3.204955 1_455
Ir6 Lu2 3.204955 1_555
