# generated using pymatgen
data_Hf6CoBi2
_symmetry_space_group_name_H-M   'P 1'
_cell_length_a   7.80255942
_cell_length_b   7.80256000
_cell_length_c   3.61418807
_cell_angle_alpha   90.00000000
_cell_angle_beta   90.00000000
_cell_angle_gamma   120.00000186
_symmetry_Int_Tables_number   1
_chemical_formula_structural   Hf6CoBi2
_chemical_formula_sum   'Hf6 Co1 Bi2'
_cell_volume   190.55290472
_cell_formula_units_Z   1
loop_
 _symmetry_equiv_pos_site_id
 _symmetry_equiv_pos_as_xyz
  1  'x, y, z'
loop_
 _atom_site_type_symbol
 _atom_site_label
 _atom_site_symmetry_multiplicity
 _atom_site_fract_x
 _atom_site_fract_y
 _atom_site_fract_z
 _atom_site_occupancy
  Hf  Hf0  1  0.61144293  0.00000000  0.50000000  1
  Hf  Hf1  1  0.38855707  0.38855707  0.50000000  1
  Hf  Hf2  1  -0.00000000  0.61144293  0.50000000  1
  Hf  Hf3  1  0.23338912  -0.00000000  0.00000000  1
  Hf  Hf4  1  0.76661088  0.76661088  -0.00000000  1
  Hf  Hf5  1  0.00000000  0.23338912  0.00000000  1
  Co  Co0  1  -0.00000000  -0.00000000  0.50000000  1
  Bi  Bi0  1  0.33333300  0.66666700  0.00000000  1
  Bi  Bi1  1  0.66666700  0.33333300  0.00000000  1
loop_
_geom_bond_atom_site_label_1
_geom_bond_atom_site_label_2
_geom_bond_distance
_geom_bond_site_symmetry_2
Co0 Hf3 2.565492 1_555
Co0 Hf3 2.565492 1_556
Co0 Hf4 2.565492 1_445
Co0 Hf4 2.565492 1_446
Co0 Hf5 2.565492 1_555
Co0 Hf5 2.565492 1_556
Co0 Hf0 3.031740 1_455
Co0 Hf1 3.031740 1_555
Co0 Hf2 3.031740 1_545
Bi0 Hf2 3.015792 1_554
Bi0 Hf2 3.015792 1_555
Bi0 Hf0 3.015794 1_564
Bi0 Hf0 3.015794 1_565
Bi0 Hf1 3.015798 1_555
Bi0 Hf1 3.015798 1_554
Bi0 Hf3 3.066061 1_565
Bi0 Hf5 3.066066 1_555
Bi0 Hf4 3.066069 1_555
Bi1 Hf0 3.015792 1_555
Bi1 Hf0 3.015792 1_554
Bi1 Hf2 3.015794 1_655
Bi1 Hf2 3.015794 1_654
Bi1 Hf1 3.015798 1_555
Bi1 Hf1 3.015798 1_554
Bi1 Hf5 3.066061 1_655
Bi1 Hf3 3.066066 1_555
Bi1 Hf4 3.066069 1_555
