# generated using pymatgen
data_YbHCl
_symmetry_space_group_name_H-M   'P 1'
_cell_length_a   3.36862949
_cell_length_b   3.36862949
_cell_length_c   8.65217303
_cell_angle_alpha   90.00000000
_cell_angle_beta   90.00000000
_cell_angle_gamma   90.00000000
_symmetry_Int_Tables_number   1
_chemical_formula_structural   YbHCl
_chemical_formula_sum   'Yb2 H2 Cl2'
_cell_volume   98.18195775
_cell_formula_units_Z   2
loop_
 _symmetry_equiv_pos_site_id
 _symmetry_equiv_pos_as_xyz
  1  'x, y, z'
loop_
 _atom_site_type_symbol
 _atom_site_label
 _atom_site_symmetry_multiplicity
 _atom_site_fract_x
 _atom_site_fract_y
 _atom_site_fract_z
 _atom_site_occupancy
  Yb  Yb0  1  0.00000000  0.50000000  0.84795080  1
  Yb  Yb1  1  0.50000000  0.00000000  0.15204920  1
  H  H0  1  0.00000000  0.00000000  0.00000000  1
  H  H1  1  0.50000000  0.50000000  0.00000000  1
  Cl  Cl0  1  0.00000000  0.50000000  0.33499713  1
  Cl  Cl1  1  0.50000000  0.00000000  0.66500287  1
loop_
_geom_bond_atom_site_label_1
_geom_bond_atom_site_label_2
_geom_bond_distance
_geom_bond_site_symmetry_2
H0 Yb1 2.137195 1_455
H0 Yb1 2.137195 1_555
H0 Yb0 2.137195 1_544
H0 Yb0 2.137195 1_554
H1 Yb1 2.137195 1_565
H1 Yb1 2.137195 1_555
H1 Yb0 2.137195 1_654
H1 Yb0 2.137195 1_554
Cl0 Yb1 2.859964 1_465
Cl0 Yb1 2.859964 1_455
Cl0 Yb1 2.859964 1_555
Cl0 Yb1 2.859964 1_565
Cl1 Yb0 2.859964 1_555
Cl1 Yb0 2.859964 1_655
Cl1 Yb0 2.859964 1_645
Cl1 Yb0 2.859964 1_545
