# generated using pymatgen
data_RbTcAs2Rh
_symmetry_space_group_name_H-M   'P 1'
_cell_length_a   7.51036903
_cell_length_b   7.51036863
_cell_length_c   7.51036877
_cell_angle_alpha   148.24467733
_cell_angle_beta   148.24467224
_cell_angle_gamma   45.52430599
_symmetry_Int_Tables_number   1
_chemical_formula_structural   RbTcAs2Rh
_chemical_formula_sum   'Rb1 Tc1 As2 Rh1'
_cell_volume   116.95341601
_cell_formula_units_Z   1
loop_
 _symmetry_equiv_pos_site_id
 _symmetry_equiv_pos_as_xyz
  1  'x, y, z'
loop_
 _atom_site_type_symbol
 _atom_site_label
 _atom_site_symmetry_multiplicity
 _atom_site_fract_x
 _atom_site_fract_y
 _atom_site_fract_z
 _atom_site_occupancy
  Rb  Rb0  1  0.00000000  0.00000000  0.00000000  1
  Tc  Tc0  1  0.75000000  0.25000000  0.50000000  1
  As  As0  1  0.34352467  0.34352467  0.00000000  1
  As  As1  1  0.65647533  0.65647533  1.00000000  1
  Rh  Rh0  1  0.25000000  0.75000000  0.50000000  1
loop_
_geom_bond_atom_site_label_1
_geom_bond_atom_site_label_2
_geom_bond_distance
_geom_bond_site_symmetry_2
As0 Rh0 2.428978 1_544
As0 Rh0 2.428978 1_555
As0 Tc0 2.428978 1_555
As0 Tc0 2.428978 1_454
As0 Rb0 3.625056 1_565
As0 Rb0 3.625057 1_554
As0 Rb0 3.625057 1_666
As0 Rb0 3.625057 1_655
As1 Tc0 2.428978 1_566
As1 Tc0 2.428978 1_555
As1 Rh0 2.428978 1_555
As1 Rh0 2.428978 1_656
As1 Rb0 3.625056 1_656
As1 Rb0 3.625057 1_667
As1 Rb0 3.625057 1_555
As1 Rb0 3.625057 1_566
Rh0 Tc0 2.905811 1_454
Rh0 Tc0 2.905811 1_566
Rh0 Tc0 2.905811 1_465
Rh0 Tc0 2.905811 1_555
