# generated using pymatgen
data_Lu12Co5Sb
_symmetry_space_group_name_H-M   'P 1'
_cell_length_a   8.04963506
_cell_length_b   8.04963609
_cell_length_c   8.04963545
_cell_angle_alpha   106.86842983
_cell_angle_beta   110.44506791
_cell_angle_gamma   111.13187861
_symmetry_Int_Tables_number   1
_chemical_formula_structural   Lu12Co5Sb
_chemical_formula_sum   'Lu12 Co5 Sb1'
_cell_volume   400.88660585
_cell_formula_units_Z   1
loop_
 _symmetry_equiv_pos_site_id
 _symmetry_equiv_pos_as_xyz
  1  'x, y, z'
loop_
 _atom_site_type_symbol
 _atom_site_label
 _atom_site_symmetry_multiplicity
 _atom_site_fract_x
 _atom_site_fract_y
 _atom_site_fract_z
 _atom_site_occupancy
  Lu  Lu0  1  0.46600655  0.28351933  0.18248622  1
  Lu  Lu1  1  0.10103211  0.28351933  0.81751378  1
  Lu  Lu2  1  0.89896789  0.71648067  0.18248622  1
  Lu  Lu3  1  0.53399345  0.71648067  0.81751378  1
  Lu  Lu4  1  0.30633012  0.61768775  0.31135763  1
  Lu  Lu5  1  0.30633012  0.99497350  0.68864237  1
  Lu  Lu6  1  0.69366988  0.38231225  0.68864237  1
  Lu  Lu7  1  0.69366988  0.00502650  0.31135763  1
  Lu  Lu8  1  0.19867885  0.21465794  0.41333779  1
  Lu  Lu9  1  0.80132115  0.78534206  0.58666221  1
  Lu  Lu10  1  0.19867885  0.78534206  0.98401891  1
  Lu  Lu11  1  0.80132115  0.21465794  0.01598109  1
  Co  Co0  1  0.50000000  0.61183044  0.11183044  1
  Co  Co1  1  0.50000000  0.38816956  0.88816956  1
  Co  Co2  1  0.37733479  0.00000000  0.37733479  1
  Co  Co3  1  0.62266521  1.00000000  0.62266521  1
  Co  Co4  1  0.00000000  0.00000000  0.00000000  1
  Sb  Sb0  1  0.00000000  0.50000000  0.50000000  1
loop_
_geom_bond_atom_site_label_1
_geom_bond_atom_site_label_2
_geom_bond_distance
_geom_bond_site_symmetry_2
Lu0 Sb0 3.519224 1_655
Lu1 Sb0 3.519229 1_555
Lu2 Sb0 3.519229 1_655
Lu3 Sb0 3.519224 1_555
Lu4 Sb0 3.324174 1_555
Lu5 Sb0 3.324181 1_555
Lu6 Sb0 3.324174 1_655
Lu7 Sb0 3.324181 1_655
Lu8 Sb0 3.289118 1_555
Lu9 Sb0 3.289118 1_655
Lu10 Sb0 3.289106 1_555
Lu11 Sb0 3.289106 1_655
Co0 Co1 2.145146 1_554
Co0 Lu7 2.602024 1_565
Co0 Lu4 2.602030 1_555
Co0 Lu3 2.800406 1_554
Co0 Lu0 2.800410 1_555
Co0 Lu1 2.800412 1_554
Co0 Lu2 2.800416 1_555
Co0 Lu9 3.228877 1_555
Co0 Lu10 3.228886 1_554
Co1 Lu5 2.602024 1_545
Co1 Lu6 2.602030 1_555
Co1 Lu0 2.800406 1_556
Co1 Lu3 2.800410 1_555
Co1 Lu2 2.800412 1_556
Co1 Lu1 2.800416 1_555
Co1 Lu8 3.228877 1_555
Co1 Lu11 3.228886 1_556
Co2 Co3 2.252838 1_545
Co2 Lu8 2.632516 1_555
Co2 Lu10 2.632528 1_544
Co2 Lu5 2.765991 1_545
Co2 Lu6 2.765993 1_555
Co2 Lu4 2.765993 1_545
Co2 Lu7 2.765995 1_555
Co2 Lu2 3.140546 1_445
Co2 Lu0 3.140554 1_555
Co3 Lu9 2.632516 1_555
Co3 Lu11 2.632528 1_566
Co3 Lu7 2.765991 1_565
Co3 Lu4 2.765993 1_555
Co3 Lu6 2.765993 1_565
Co3 Lu5 2.765995 1_555
Co3 Lu1 3.140546 1_665
Co3 Lu3 3.140554 1_555
Co4 Lu11 2.750863 1_455
Co4 Lu10 2.750863 1_544
Co4 Lu8 2.750869 1_555
Co4 Lu9 2.750869 1_444
Co4 Lu2 3.077289 1_445
Co4 Lu1 3.077289 1_554
Co4 Lu3 3.077296 1_444
Co4 Lu0 3.077296 1_555
