# generated using pymatgen
data_GaPbIO6
_symmetry_space_group_name_H-M   'P 1'
_cell_length_a   5.15600093
_cell_length_b   5.15599972
_cell_length_c   5.41674765
_cell_angle_alpha   90.00000000
_cell_angle_beta   90.00000000
_cell_angle_gamma   119.99998937
_symmetry_Int_Tables_number   1
_chemical_formula_structural   GaPbIO6
_chemical_formula_sum   'Ga1 Pb1 I1 O6'
_cell_volume   124.70824093
_cell_formula_units_Z   1
loop_
 _symmetry_equiv_pos_site_id
 _symmetry_equiv_pos_as_xyz
  1  'x, y, z'
loop_
 _atom_site_type_symbol
 _atom_site_label
 _atom_site_symmetry_multiplicity
 _atom_site_fract_x
 _atom_site_fract_y
 _atom_site_fract_z
 _atom_site_occupancy
  Ga  Ga0  1  0.33333300  0.66666700  0.50000000  1
  Pb  Pb0  1  0.00000000  0.00000000  0.00000000  1
  I  I0  1  0.66666700  0.33333300  0.50000000  1
  O  O0  1  0.38741191  0.01483746  0.69836626  1
  O  O1  1  0.98516254  0.37257346  0.69836626  1
  O  O2  1  0.62742654  0.61258809  0.69836626  1
  O  O3  1  0.98516254  0.61258809  0.30163374  1
  O  O4  1  0.62742654  0.01483746  0.30163374  1
  O  O5  1  0.38741191  0.37257346  0.30163374  1
loop_
_geom_bond_atom_site_label_1
_geom_bond_atom_site_label_2
_geom_bond_distance
_geom_bond_site_symmetry_2
Ga0 O0 1.988560 1_565
Ga0 O3 1.988561 1_455
Ga0 O4 1.988564 1_565
Ga0 O1 1.988564 1_455
Ga0 O5 1.988569 1_555
Ga0 O2 1.988569 1_555
I0 O2 1.886779 1_555
I0 O4 1.886779 1_555
I0 O5 1.886779 1_555
I0 O0 1.886779 1_555
I0 O1 1.886779 1_555
I0 O3 1.886780 1_555
O0 Pb0 2.551975 1_556
O1 Pb0 2.551970 1_656
O2 Pb0 2.551973 1_666
O3 Pb0 2.551974 1_665
O4 Pb0 2.551971 1_655
O5 Pb0 2.551973 1_555
