# generated using pymatgen
data_Y2MnBe2Rh5
_symmetry_space_group_name_H-M   'P 1'
_cell_length_a   9.63554172
_cell_length_b   9.63554172
_cell_length_c   3.20473263
_cell_angle_alpha   90.00000000
_cell_angle_beta   90.00000000
_cell_angle_gamma   90.00000000
_symmetry_Int_Tables_number   1
_chemical_formula_structural   Y2MnBe2Rh5
_chemical_formula_sum   'Y4 Mn2 Be4 Rh10'
_cell_volume   297.53912028
_cell_formula_units_Z   2
loop_
 _symmetry_equiv_pos_site_id
 _symmetry_equiv_pos_as_xyz
  1  'x, y, z'
loop_
 _atom_site_type_symbol
 _atom_site_label
 _atom_site_symmetry_multiplicity
 _atom_site_fract_x
 _atom_site_fract_y
 _atom_site_fract_z
 _atom_site_occupancy
  Y  Y0  1  0.82297854  0.32297854  0.00000000  1
  Y  Y1  1  0.32297854  0.17702146  0.00000000  1
  Y  Y2  1  0.67702146  0.82297854  0.00000000  1
  Y  Y3  1  0.17702146  0.67702146  0.00000000  1
  Mn  Mn0  1  0.00000000  0.00000000  0.00000000  1
  Mn  Mn1  1  0.50000000  0.50000000  0.00000000  1
  Be  Be0  1  0.62165956  0.12165956  0.00000000  1
  Be  Be1  1  0.12165956  0.37834044  0.00000000  1
  Be  Be2  1  0.87834044  0.62165956  0.00000000  1
  Be  Be3  1  0.37834044  0.87834044  0.00000000  1
  Rh  Rh0  1  0.06788125  0.21357738  0.50000000  1
  Rh  Rh1  1  0.21357738  0.93211875  0.50000000  1
  Rh  Rh2  1  0.78642262  0.06788125  0.50000000  1
  Rh  Rh3  1  0.93211875  0.78642262  0.50000000  1
  Rh  Rh4  1  0.43211875  0.71357738  0.50000000  1
  Rh  Rh5  1  0.56788125  0.28642262  0.50000000  1
  Rh  Rh6  1  0.71357738  0.56788125  0.50000000  1
  Rh  Rh7  1  0.28642262  0.43211875  0.50000000  1
  Rh  Rh8  1  0.50000000  0.00000000  0.50000000  1
  Rh  Rh9  1  0.00000000  0.50000000  0.50000000  1
loop_
_geom_bond_atom_site_label_1
_geom_bond_atom_site_label_2
_geom_bond_distance
_geom_bond_site_symmetry_2
Mn0 Rh0 2.688955 1_555
Mn0 Rh0 2.688955 1_554
Mn0 Rh1 2.688955 1_544
Mn0 Rh1 2.688955 1_545
Mn0 Rh2 2.688955 1_454
Mn0 Rh2 2.688955 1_455
Mn0 Rh3 2.688955 1_444
Mn0 Rh3 2.688955 1_445
Mn1 Rh6 2.688955 1_555
Mn1 Rh6 2.688955 1_554
Mn1 Rh4 2.688955 1_555
Mn1 Rh4 2.688955 1_554
Mn1 Rh5 2.688955 1_554
Mn1 Rh5 2.688955 1_555
Mn1 Rh7 2.688955 1_554
Mn1 Rh7 2.688955 1_555
Be0 Rh8 2.305633 1_554
Be0 Rh8 2.305633 1_555
Be0 Rh2 2.314413 1_554
Be0 Rh2 2.314413 1_555
Be0 Rh5 2.314413 1_554
Be0 Rh5 2.314413 1_555
Be0 Y0 2.743316 1_555
Be0 Y2 2.926974 1_545
Be0 Y1 2.926974 1_555
Be1 Rh9 2.305633 1_554
Be1 Rh9 2.305633 1_555
Be1 Rh0 2.314413 1_555
Be1 Rh7 2.314413 1_555
Be1 Rh0 2.314413 1_554
Be1 Rh7 2.314413 1_554
Be1 Y1 2.743316 1_555
Be1 Y0 2.926974 1_455
Be1 Y3 2.926974 1_555
Be2 Rh9 2.305633 1_655
Be2 Rh9 2.305633 1_654
Be2 Rh3 2.314413 1_555
Be2 Rh3 2.314413 1_554
Be2 Rh6 2.314413 1_555
Be2 Rh6 2.314413 1_554
Be2 Y2 2.743316 1_555
Be2 Y3 2.926974 1_655
Be2 Y0 2.926974 1_555
Be3 Rh8 2.305633 1_565
Be3 Rh8 2.305633 1_564
Be3 Rh1 2.314413 1_554
Be3 Rh1 2.314413 1_555
Be3 Rh4 2.314413 1_555
Be3 Rh4 2.314413 1_554
Be3 Y3 2.743316 1_555
Be3 Y1 2.926974 1_565
Be3 Y2 2.926974 1_555
Rh0 Y1 2.955235 1_555
Rh0 Y1 2.955235 1_556
Rh0 Y0 3.040938 1_455
Rh0 Y0 3.040938 1_456
Rh1 Y3 2.955235 1_555
Rh1 Y3 2.955235 1_556
Rh1 Y1 3.040938 1_565
Rh1 Y1 3.040938 1_566
Rh2 Y0 2.955235 1_555
Rh2 Y0 2.955235 1_556
Rh2 Y2 3.040938 1_545
Rh2 Y2 3.040938 1_546
Rh3 Y2 2.955235 1_555
Rh3 Y2 2.955235 1_556
Rh3 Y3 3.040938 1_655
Rh3 Y3 3.040938 1_656
Rh4 Y3 2.955235 1_555
Rh4 Y3 2.955235 1_556
Rh4 Y2 3.040938 1_555
Rh4 Y2 3.040938 1_556
Rh5 Y0 2.955235 1_555
Rh5 Y0 2.955235 1_556
Rh5 Y1 3.040938 1_556
Rh5 Y1 3.040938 1_555
Rh6 Y2 2.955235 1_555
Rh6 Y2 2.955235 1_556
Rh6 Y0 3.040938 1_555
Rh6 Y0 3.040938 1_556
Rh7 Y1 2.955235 1_555
Rh7 Y1 2.955235 1_556
Rh7 Y3 3.040938 1_556
Rh7 Y3 3.040938 1_555
Rh8 Y2 2.895926 1_546
Rh8 Y2 2.895926 1_545
Rh8 Y1 2.895926 1_556
Rh8 Y1 2.895926 1_555
Rh9 Y3 2.895926 1_555
Rh9 Y3 2.895926 1_556
Rh9 Y0 2.895926 1_455
Rh9 Y0 2.895926 1_456
