# generated using pymatgen
data_Sc12AlNi4Sb
_symmetry_space_group_name_H-M   'P 1'
_cell_length_a   7.78912027
_cell_length_b   7.78911882
_cell_length_c   7.78911964
_cell_angle_alpha   111.36974678
_cell_angle_beta   110.66384055
_cell_angle_gamma   106.42323738
_symmetry_Int_Tables_number   1
_chemical_formula_structural   Sc12AlNi4Sb
_chemical_formula_sum   'Sc12 Al1 Ni4 Sb1'
_cell_volume   363.00219466
_cell_formula_units_Z   1
loop_
 _symmetry_equiv_pos_site_id
 _symmetry_equiv_pos_as_xyz
  1  'x, y, z'
loop_
 _atom_site_type_symbol
 _atom_site_label
 _atom_site_symmetry_multiplicity
 _atom_site_fract_x
 _atom_site_fract_y
 _atom_site_fract_z
 _atom_site_occupancy
  Sc  Sc0  1  0.43675692  0.22805328  0.20870264  1
  Sc  Sc1  1  0.56324308  0.77194672  0.79129736  1
  Sc  Sc2  1  0.01935165  0.22805328  0.79129736  1
  Sc  Sc3  1  0.98064835  0.77194672  0.20870264  1
  Sc  Sc4  1  0.32001245  0.62089348  0.30087903  1
  Sc  Sc5  1  0.67998755  0.37910652  0.69912097  1
  Sc  Sc6  1  0.32001245  0.01913241  0.69912097  1
  Sc  Sc7  1  0.67998755  0.98086759  0.30087903  1
  Sc  Sc8  1  0.18214268  0.28768424  0.46982992  1
  Sc  Sc9  1  0.81785732  0.71231476  0.53017008  1
  Sc  Sc10  1  0.18214268  0.71231476  0.89445844  1
  Sc  Sc11  1  0.81785732  0.28768424  0.10554156  1
  Al  Al0  1  0.00000000  0.00000000  0.00000000  1
  Ni  Ni0  1  0.35353816  1.00000000  0.35353816  1
  Ni  Ni1  1  0.64646184  0.00000000  0.64646184  1
  Ni  Ni2  1  0.12946736  0.62946736  0.50000000  1
  Ni  Ni3  1  0.87053264  0.37053264  0.50000000  1
  Sb  Sb0  1  0.50000000  0.50000000  0.00000000  1
loop_
_geom_bond_atom_site_label_1
_geom_bond_atom_site_label_2
_geom_bond_distance
_geom_bond_site_symmetry_2
Al0 Sc2 2.818978 1_554
Al0 Sc3 2.818978 1_445
Al0 Sc0 2.818985 1_555
Al0 Sc1 2.818985 1_444
Al0 Sc11 2.998023 1_455
Al0 Sc10 2.998030 1_544
Al0 Sc8 2.998042 1_555
Al0 Sc9 2.998043 1_444
Ni0 Sc0 2.484687 1_565
Ni0 Sc3 2.484692 1_455
Ni0 Sc4 2.749869 1_555
Ni0 Sc5 2.749877 1_565
Ni0 Sc7 2.749883 1_555
Ni0 Sc6 2.749887 1_565
Ni0 Sc10 2.947848 1_554
Ni0 Sc8 2.947851 1_565
Ni1 Sc1 2.484687 1_545
Ni1 Sc2 2.484692 1_655
Ni1 Sc5 2.749869 1_555
Ni1 Sc4 2.749877 1_545
Ni1 Sc6 2.749883 1_555
Ni1 Sc7 2.749887 1_545
Ni1 Sc11 2.947846 1_556
Ni1 Sc9 2.947857 1_545
Ni2 Ni3 2.415655 1_455
Ni2 Sc6 2.493578 1_565
Ni2 Sc4 2.493585 1_555
Ni2 Sc9 2.745997 1_455
Ni2 Sc11 2.746007 1_455
Ni2 Sc10 2.746009 1_555
Ni2 Sc8 2.746012 1_555
Ni2 Sc1 2.903388 1_555
Ni2 Sc3 2.903396 1_455
Ni3 Sc7 2.493578 1_545
Ni3 Sc5 2.493585 1_555
Ni3 Sc8 2.746000 1_655
Ni3 Sc9 2.746005 1_555
Ni3 Sc10 2.746005 1_655
Ni3 Sc11 2.746008 1_555
Ni3 Sc0 2.903388 1_555
Ni3 Sc2 2.903396 1_655
Sb0 Sc4 3.130752 1_555
Sb0 Sc5 3.130752 1_554
Sb0 Sc7 3.130755 1_555
Sb0 Sc6 3.130755 1_554
Sb0 Sc3 3.139540 1_555
Sb0 Sc2 3.139540 1_554
Sb0 Sc1 3.139545 1_554
Sb0 Sc0 3.139545 1_555
Sb0 Sc8 3.377846 1_554
Sb0 Sc9 3.377848 1_555
Sb0 Sc10 3.377859 1_554
Sb0 Sc11 3.377865 1_555
