# generated using pymatgen
data_Ni6Mo6C
_symmetry_space_group_name_H-M   'P 1'
_cell_length_a   7.65938673
_cell_length_b   7.65949431
_cell_length_c   7.65938983
_cell_angle_alpha   60.00089460
_cell_angle_beta   60.00046578
_cell_angle_gamma   60.00087664
_symmetry_Int_Tables_number   1
_chemical_formula_structural   Ni6Mo6C
_chemical_formula_sum   'Ni12 Mo12 C2'
_cell_volume   317.74638153
_cell_formula_units_Z   2
loop_
 _symmetry_equiv_pos_site_id
 _symmetry_equiv_pos_as_xyz
  1  'x, y, z'
loop_
 _atom_site_type_symbol
 _atom_site_label
 _atom_site_symmetry_multiplicity
 _atom_site_fract_x
 _atom_site_fract_y
 _atom_site_fract_z
 _atom_site_occupancy
  Ni  Ni0  1  0.33315910  0.33319364  0.00043252  1
  Ni  Ni1  1  0.33317791  0.33320854  0.33318093  1
  Ni  Ni2  1  0.24955372  0.91681217  0.91684422  1
  Ni  Ni3  1  0.91682354  0.91678681  0.91681543  1
  Ni  Ni4  1  0.00043204  0.33318937  0.33316321  1
  Ni  Ni5  1  0.33316823  0.00043028  0.33317650  1
  Ni  Ni6  1  0.12498944  0.62501195  0.12498565  1
  Ni  Ni7  1  0.12498803  0.12498690  0.62501262  1
  Ni  Ni8  1  0.62501246  0.12499019  0.12498807  1
  Ni  Ni9  1  0.12499868  0.12500314  0.12500153  1
  Ni  Ni10  1  0.91684800  0.91681328  0.24955288  1
  Ni  Ni11  1  0.91683456  0.24955775  0.91683177  1
  Mo  Mo0  1  0.30078180  0.69924308  0.69922606  1
  Mo  Mo1  1  0.69922682  0.69924295  0.30077939  1
  Mo  Mo2  1  0.69923963  0.30076806  0.69923879  1
  Mo  Mo3  1  0.30077625  0.69922478  0.30077305  1
  Mo  Mo4  1  0.55076603  0.94922756  0.55076683  1
  Mo  Mo5  1  0.55078681  0.94923671  0.94922205  1
  Mo  Mo6  1  0.94921447  0.55076205  0.55077922  1
  Mo  Mo7  1  0.94922246  0.55078324  0.94922682  1
  Mo  Mo8  1  0.30077883  0.30076126  0.69922111  1
  Mo  Mo9  1  0.55077956  0.55076311  0.94921562  1
  Mo  Mo10  1  0.94921967  0.94923825  0.55078777  1
  Mo  Mo11  1  0.69922084  0.30076339  0.30077791  1
  C  C0  1  0.50000102  0.50000145  0.50000131  1
  C  C1  1  0.75000109  0.75000108  0.75000073  1
loop_
_geom_bond_atom_site_label_1
_geom_bond_atom_site_label_2
_geom_bond_distance
_geom_bond_site_symmetry_2
Ni0 Ni9 2.344141 1_555
Ni0 Ni6 2.344324 1_555
Ni0 Ni8 2.344537 1_555
Ni0 Ni4 2.548518 1_555
Ni0 Ni5 2.548742 1_555
Ni0 Ni1 2.548779 1_555
Ni1 Ni6 2.344347 1_555
Ni1 Ni7 2.344510 1_555
Ni1 Ni8 2.344514 1_555
Ni1 Ni4 2.548771 1_555
Ni1 Ni5 2.548967 1_555
Ni2 Ni9 2.344154 1_566
Ni2 Ni6 2.344257 1_556
Ni2 Ni7 2.344444 1_565
Ni2 Ni3 2.548717 1_455
Ni3 Ni6 2.344089 1_656
Ni3 Ni7 2.344254 1_665
Ni3 Ni8 2.344318 1_566
Ni4 Ni9 2.344127 1_555
Ni4 Ni6 2.344369 1_555
Ni4 Ni7 2.344515 1_555
Ni4 Ni5 2.548695 1_555
Ni5 Ni9 2.344082 1_555
Ni5 Ni7 2.344426 1_555
Ni5 Ni8 2.344490 1_555
Ni10 Ni9 2.344113 1_665
Ni10 Ni6 2.344276 1_655
Ni10 Ni8 2.344465 1_565
Ni10 Ni2 2.548351 1_654
Ni10 Ni11 2.548582 1_564
Ni10 Ni3 2.548761 1_554
Ni11 Ni9 2.344054 1_656
Ni11 Ni7 2.344379 1_655
Ni11 Ni8 2.344384 1_556
Ni11 Ni2 2.548578 1_645
Ni11 Ni3 2.548962 1_545
Mo0 Ni5 2.579393 1_565
Mo0 Ni0 2.579464 1_556
Mo0 Ni3 2.679248 1_455
Mo0 Ni2 2.679390 1_555
Mo0 Ni7 2.700218 1_565
Mo0 Ni6 2.700250 1_556
Mo1 Ni5 2.579433 1_565
Mo1 Ni4 2.579478 1_655
Mo1 Ni3 2.679292 1_554
Mo1 Ni10 2.679424 1_555
Mo1 Ni8 2.700239 1_565
Mo1 Ni6 2.700269 1_655
Mo2 Ni4 2.579499 1_655
Mo2 Ni0 2.579525 1_556
Mo2 Ni3 2.679442 1_545
Mo2 Ni11 2.679445 1_555
Mo2 Ni7 2.700188 1_655
Mo2 Ni8 2.700194 1_556
Mo3 Ni5 2.579208 1_565
Mo3 Ni1 2.579301 1_555
Mo3 Ni10 2.679176 1_455
Mo3 Ni2 2.679188 1_554
Mo3 Ni6 2.700427 1_555
Mo3 Ni9 2.700429 1_565
Mo4 Ni2 2.579568 1_555
Mo4 Ni10 2.579594 1_555
Mo4 Ni5 2.679474 1_565
Mo4 Ni1 2.679481 1_565
Mo4 Ni7 2.700360 1_565
Mo4 Ni8 2.700366 1_565
Mo5 Ni3 2.579271 1_555
Mo5 Ni2 2.579420 1_555
Mo5 Ni5 2.679259 1_566
Mo5 Ni0 2.679368 1_566
Mo5 Ni8 2.700147 1_566
Mo5 Ni9 2.700434 1_566
Mo6 Ni11 2.579459 1_555
Mo6 Ni10 2.579533 1_555
Mo6 Ni1 2.679322 1_655
Mo6 Ni4 2.679438 1_655
Mo6 Ni7 2.700400 1_655
Mo6 Ni6 2.700452 1_655
Mo7 Ni3 2.579203 1_555
Mo7 Ni11 2.579303 1_555
Mo7 Ni0 2.679189 1_656
Mo7 Ni4 2.679200 1_656
Mo7 Ni6 2.700197 1_656
Mo7 Ni9 2.700441 1_656
Mo8 Ni0 2.579303 1_556
Mo8 Ni1 2.579329 1_555
Mo8 Ni11 2.679221 1_455
Mo8 Ni2 2.679360 1_545
Mo8 Ni7 2.700352 1_555
Mo8 Ni9 2.700385 1_556
Mo9 Ni11 2.579472 1_555
Mo9 Ni2 2.579521 1_555
Mo9 Ni1 2.679343 1_556
Mo9 Ni0 2.679448 1_556
Mo9 Ni8 2.700387 1_556
Mo9 Ni6 2.700429 1_556
Mo10 Ni3 2.579231 1_555
Mo10 Ni10 2.579409 1_555
Mo10 Ni5 2.679215 1_665
Mo10 Ni4 2.679336 1_665
Mo10 Ni7 2.700126 1_665
Mo10 Ni9 2.700423 1_665
Mo11 Ni4 2.579294 1_655
Mo11 Ni1 2.579343 1_555
Mo11 Ni11 2.679240 1_554
Mo11 Ni10 2.679366 1_545
Mo11 Ni8 2.700337 1_555
Mo11 Ni9 2.700368 1_655
C0 Mo3 2.158045 1_555
C0 Mo11 2.158092 1_555
C0 Mo8 2.158097 1_555
C0 Mo0 2.158119 1_555
C0 Mo1 2.158124 1_555
C0 Mo2 2.158170 1_555
C1 Mo7 2.158015 1_555
C1 Mo10 2.158061 1_555
C1 Mo5 2.158067 1_555
C1 Mo9 2.158081 1_555
C1 Mo6 2.158087 1_555
C1 Mo4 2.158131 1_555
