# generated using pymatgen
data_Pr5AgS8
_symmetry_space_group_name_H-M   'P 1'
_cell_length_a   7.48605104
_cell_length_b   7.48605104
_cell_length_c   7.48605104
_cell_angle_alpha   109.75368060
_cell_angle_beta   109.75368060
_cell_angle_gamma   108.90776576
_symmetry_Int_Tables_number   1
_chemical_formula_structural   Pr5AgS8
_chemical_formula_sum   'Pr5 Ag1 S8'
_cell_volume   322.92747414
_cell_formula_units_Z   1
loop_
 _symmetry_equiv_pos_site_id
 _symmetry_equiv_pos_as_xyz
  1  'x, y, z'
loop_
 _atom_site_type_symbol
 _atom_site_label
 _atom_site_symmetry_multiplicity
 _atom_site_fract_x
 _atom_site_fract_y
 _atom_site_fract_z
 _atom_site_occupancy
  Pr  Pr0  1  0.23587700  0.61973500  0.11866000  1
  Pr  Pr1  1  0.38026500  0.49892600  0.61614300  1
  Pr  Pr2  1  0.50107400  0.11721700  0.88134000  1
  Pr  Pr3  1  0.88278300  0.76412300  0.38385700  1
  Pr  Pr4  1  0.75000000  0.25000000  0.50000000  1
  Ag  Ag0  1  0.00000000  0.00000000  0.00000000  1
  S  S0  1  0.27495700  0.02356300  0.39062400  1
  S  S1  1  0.63293900  0.88433300  0.60937600  1
  S  S2  1  0.49758200  0.39286800  0.25984100  1
  S  S3  1  0.76225900  0.50241800  0.89528600  1
  S  S4  1  0.60713200  0.86697300  0.10471400  1
  S  S5  1  0.11566700  0.72504300  0.74860600  1
  S  S6  1  0.97643700  0.36706100  0.25139400  1
  S  S7  1  0.13302700  0.23774100  0.74015900  1
loop_
_geom_bond_atom_site_label_1
_geom_bond_atom_site_label_2
_geom_bond_distance
_geom_bond_site_symmetry_2
Pr0 S4 2.855461 1_555
Pr0 S0 2.869401 1_565
Pr0 S7 2.901762 1_554
Pr0 S6 2.920853 1_455
Pr0 S3 3.019927 1_454
Pr0 S5 3.058827 1_554
Pr0 S2 3.132035 1_555
Pr0 S1 3.184074 1_555
Pr1 S7 2.855460 1_555
Pr1 S6 2.869403 1_455
Pr1 S3 2.901763 1_555
Pr1 S1 2.920851 1_555
Pr1 S2 3.019934 1_555
Pr1 S0 3.058834 1_555
Pr1 S4 3.132028 1_556
Pr1 S5 3.184066 1_555
Pr2 S3 2.855464 1_555
Pr2 S1 2.869407 1_545
Pr2 S2 2.901758 1_556
Pr2 S5 2.920849 1_545
Pr2 S4 3.019929 1_546
Pr2 S6 3.058832 1_556
Pr2 S7 3.132029 1_555
Pr2 S0 3.184073 1_555
Pr3 S2 2.855464 1_555
Pr3 S5 2.869407 1_655
Pr3 S4 2.901758 1_555
Pr3 S0 2.920849 1_665
Pr3 S7 3.019929 1_665
Pr3 S1 3.058832 1_555
Pr3 S3 3.132029 1_554
Pr3 S6 3.184073 1_555
Pr4 S3 2.874003 1_555
Pr4 S4 2.874003 1_545
Pr4 S7 2.874003 1_655
Pr4 S2 2.874003 1_555
Pr4 S5 3.062212 1_655
Pr4 S6 3.062212 1_555
Pr4 S0 3.062212 1_555
Pr4 S1 3.062212 1_545
Ag0 S5 2.857695 1_544
Ag0 S0 2.857695 1_555
Ag0 S6 2.857695 1_455
Ag0 S1 2.857695 1_444
