# generated using pymatgen
data_Sr3(CoH6)2
_symmetry_space_group_name_H-M   'P 1'
_cell_length_a   5.03778241
_cell_length_b   5.03778183
_cell_length_c   8.23632876
_cell_angle_alpha   90.00000000
_cell_angle_beta   90.00000000
_cell_angle_gamma   119.99999103
_symmetry_Int_Tables_number   1
_chemical_formula_structural   Sr3(CoH6)2
_chemical_formula_sum   'Sr3 Co2 H12'
_cell_volume   181.02689655
_cell_formula_units_Z   1
loop_
 _symmetry_equiv_pos_site_id
 _symmetry_equiv_pos_as_xyz
  1  'x, y, z'
loop_
 _atom_site_type_symbol
 _atom_site_label
 _atom_site_symmetry_multiplicity
 _atom_site_fract_x
 _atom_site_fract_y
 _atom_site_fract_z
 _atom_site_occupancy
  Sr  Sr0  1  0.00000000  0.00000000  0.00000000  1
  Sr  Sr1  1  0.66666700  0.33333300  0.35869336  1
  Sr  Sr2  1  0.33333300  0.66666700  0.64130664  1
  Co  Co0  1  0.66666700  0.33333300  0.75437045  1
  Co  Co1  1  0.33333300  0.66666700  0.24562955  1
  H  H0  1  0.18735699  0.81264301  0.35205430  1
  H  H1  1  0.62528603  0.81264301  0.35205430  1
  H  H2  1  0.18735699  0.37471397  0.35205430  1
  H  H3  1  0.81264301  0.18735699  0.64794570  1
  H  H4  1  0.37471397  0.18735699  0.64794570  1
  H  H5  1  0.81264301  0.62528603  0.64794570  1
  H  H6  1  0.52705176  0.05410352  0.86605797  1
  H  H7  1  0.52705176  0.47294824  0.86605797  1
  H  H8  1  0.94589648  0.47294824  0.86605797  1
  H  H9  1  0.47294824  0.94589648  0.13394203  1
  H  H10  1  0.47294824  0.52705176  0.13394203  1
  H  H11  1  0.05410352  0.52705176  0.13394203  1
loop_
_geom_bond_atom_site_label_1
_geom_bond_atom_site_label_2
_geom_bond_distance
_geom_bond_site_symmetry_2
Co0 H6 1.526534 1_555
Co0 H8 1.526534 1_555
Co0 H7 1.526537 1_555
Co0 H3 1.546207 1_555
Co0 H5 1.546211 1_555
Co0 H4 1.546211 1_555
Co1 H9 1.526534 1_555
Co1 H11 1.526534 1_555
Co1 H10 1.526537 1_555
Co1 H0 1.546207 1_555
Co1 H2 1.546211 1_555
Co1 H1 1.546211 1_555
H0 Sr1 2.525945 1_565
H0 Sr1 2.525945 1_455
H0 Sr2 2.701507 1_555
H1 Sr1 2.525942 1_565
H1 Sr1 2.525947 1_555
H1 Sr2 2.701509 1_555
H2 Sr1 2.525942 1_455
H2 Sr1 2.525947 1_555
H2 Sr2 2.701509 1_555
H3 Sr2 2.525945 1_545
H3 Sr2 2.525945 1_655
H3 Sr1 2.701507 1_555
H4 Sr2 2.525942 1_545
H4 Sr2 2.525947 1_555
H4 Sr1 2.701509 1_555
H5 Sr2 2.525942 1_655
H5 Sr2 2.525947 1_555
H5 Sr1 2.701509 1_555
H6 Sr2 2.506765 1_545
H6 Sr0 2.759993 1_656
H6 Sr0 2.759993 1_556
H7 Sr2 2.506768 1_555
H7 Sr0 2.759993 1_666
H7 Sr0 2.759993 1_556
H8 Sr2 2.506765 1_655
H8 Sr0 2.759992 1_656
H8 Sr0 2.759992 1_666
H9 Sr1 2.506765 1_565
H9 Sr0 2.759993 1_565
H9 Sr0 2.759993 1_665
H10 Sr1 2.506768 1_555
H10 Sr0 2.759993 1_555
H10 Sr0 2.759993 1_665
H11 Sr1 2.506765 1_455
H11 Sr0 2.759992 1_565
H11 Sr0 2.759992 1_555
