# generated using pymatgen
data_Zr13Ta3(Rh2N)4
_symmetry_space_group_name_H-M   'P 1'
_cell_length_a   8.67163448
_cell_length_b   8.67163394
_cell_length_c   8.67163528
_cell_angle_alpha   60.33879965
_cell_angle_beta   60.33879903
_cell_angle_gamma   60.33879826
_symmetry_Int_Tables_number   1
_chemical_formula_structural   Zr13Ta3(Rh2N)4
_chemical_formula_sum   'Zr13 Ta3 Rh8 N4'
_cell_volume   464.62653728
_cell_formula_units_Z   1
loop_
 _symmetry_equiv_pos_site_id
 _symmetry_equiv_pos_as_xyz
  1  'x, y, z'
loop_
 _atom_site_type_symbol
 _atom_site_label
 _atom_site_symmetry_multiplicity
 _atom_site_fract_x
 _atom_site_fract_y
 _atom_site_fract_z
 _atom_site_occupancy
  Zr  Zr0  1  0.62500000  0.62500000  0.62500000  1
  Zr  Zr1  1  0.81541445  0.81541445  0.18367792  1
  Zr  Zr2  1  0.18623212  0.18623212  0.81389680  1
  Zr  Zr3  1  0.81541445  0.18367792  0.81541445  1
  Zr  Zr4  1  0.18623212  0.81389680  0.18623212  1
  Zr  Zr5  1  0.18367792  0.81541445  0.81541445  1
  Zr  Zr6  1  0.81389680  0.18623212  0.18623212  1
  Zr  Zr7  1  0.43458555  0.43458555  0.06632208  1
  Zr  Zr8  1  0.06376788  0.06376788  0.43610320  1
  Zr  Zr9  1  0.43458555  0.06632208  0.43458555  1
  Zr  Zr10  1  0.06376788  0.43610320  0.06376788  1
  Zr  Zr11  1  0.06632208  0.43458555  0.43458555  1
  Zr  Zr12  1  0.43610320  0.06376788  0.06376788  1
  Ta  Ta0  1  0.12500000  0.62500000  0.62500000  1
  Ta  Ta1  1  0.62500000  0.12500000  0.62500000  1
  Ta  Ta2  1  0.62500000  0.62500000  0.12500000  1
  Rh  Rh0  1  0.76312777  0.40821382  0.40821382  1
  Rh  Rh1  1  0.40821382  0.76312777  0.40821382  1
  Rh  Rh2  1  0.40821382  0.40821382  0.76312777  1
  Rh  Rh3  1  0.41501835  0.41501835  0.41501835  1
  Rh  Rh4  1  0.48687223  0.84178618  0.84178618  1
  Rh  Rh5  1  0.84178618  0.48687223  0.84178618  1
  Rh  Rh6  1  0.84178618  0.84178618  0.48687223  1
  Rh  Rh7  1  0.83498165  0.83498165  0.83498165  1
  N  N0  1  0.62500000  0.12500000  0.12500000  1
  N  N1  1  0.12500000  0.62500000  0.12500000  1
  N  N2  1  0.12500000  0.12500000  0.62500000  1
  N  N3  1  0.12500000  0.12500000  0.12500000  1
loop_
_geom_bond_atom_site_label_1
_geom_bond_atom_site_label_2
_geom_bond_distance
_geom_bond_site_symmetry_2
Rh0 Ta1 2.667145 1_555
Rh0 Ta2 2.667145 1_555
Rh0 Zr0 2.746485 1_555
Rh0 Zr8 2.824667 1_655
Rh0 Zr10 2.824668 1_655
Rh0 Zr11 2.873878 1_655
Rh0 Zr6 3.097501 1_555
Rh0 Zr1 3.220464 1_555
Rh0 Zr3 3.220464 1_555
Rh1 Ta0 2.667145 1_555
Rh1 Ta2 2.667145 1_555
Rh1 Zr0 2.746485 1_555
Rh1 Zr8 2.824667 1_565
Rh1 Zr12 2.824668 1_565
Rh1 Zr9 2.873878 1_565
Rh1 Zr4 3.097501 1_555
Rh1 Zr1 3.220464 1_555
Rh1 Zr5 3.220464 1_555
Rh2 Ta1 2.667145 1_555
Rh2 Ta0 2.667145 1_555
Rh2 Zr0 2.746485 1_555
Rh2 Zr12 2.824668 1_556
Rh2 Zr10 2.824668 1_556
Rh2 Zr7 2.873879 1_556
Rh2 Zr2 3.097500 1_555
Rh2 Zr5 3.220464 1_555
Rh2 Zr3 3.220464 1_555
Rh3 Ta0 2.678225 1_555
Rh3 Ta2 2.678225 1_555
Rh3 Ta1 2.678225 1_555
Rh3 Zr9 2.865942 1_555
Rh3 Zr11 2.865943 1_555
Rh3 Zr7 2.865943 1_555
Rh4 Ta1 2.667145 1_565
Rh4 Ta2 2.667145 1_556
Rh4 Zr0 2.746485 1_555
Rh4 Zr2 2.824667 1_565
Rh4 Zr4 2.824668 1_556
Rh4 Zr5 2.873878 1_555
Rh4 Zr12 3.097501 1_566
Rh4 Zr7 3.220464 1_556
Rh4 Zr9 3.220464 1_565
Rh5 Ta0 2.667145 1_655
Rh5 Ta2 2.667145 1_556
Rh5 Zr0 2.746485 1_555
Rh5 Zr2 2.824667 1_655
Rh5 Zr6 2.824668 1_556
Rh5 Zr3 2.873878 1_555
Rh5 Zr10 3.097501 1_656
Rh5 Zr7 3.220464 1_556
Rh5 Zr11 3.220464 1_655
Rh6 Ta1 2.667145 1_565
Rh6 Ta0 2.667145 1_655
Rh6 Zr0 2.746485 1_555
Rh6 Zr6 2.824668 1_565
Rh6 Zr4 2.824668 1_655
Rh6 Zr1 2.873879 1_555
Rh6 Zr8 3.097500 1_665
Rh6 Zr11 3.220464 1_655
Rh6 Zr9 3.220464 1_565
Rh7 Ta0 2.678225 1_655
Rh7 Ta2 2.678225 1_556
Rh7 Ta1 2.678225 1_565
Rh7 Zr3 2.865942 1_565
Rh7 Zr5 2.865943 1_655
Rh7 Zr1 2.865943 1_556
N0 Zr6 2.290813 1_555
N0 Zr12 2.290813 1_555
N0 Zr7 2.298854 1_555
N0 Zr1 2.298854 1_545
N0 Zr9 2.298854 1_555
N0 Zr3 2.298854 1_554
N1 Zr4 2.290812 1_555
N1 Zr10 2.290812 1_555
N1 Zr7 2.298854 1_555
N1 Zr1 2.298854 1_455
N1 Zr11 2.298854 1_555
N1 Zr5 2.298854 1_554
N2 Zr2 2.290813 1_555
N2 Zr8 2.290813 1_555
N2 Zr11 2.298854 1_555
N2 Zr5 2.298854 1_545
N2 Zr9 2.298854 1_555
N2 Zr3 2.298854 1_455
N3 Zr10 2.298992 1_555
N3 Zr4 2.298992 1_545
N3 Zr12 2.298992 1_555
N3 Zr6 2.298992 1_455
N3 Zr8 2.298993 1_555
N3 Zr2 2.298993 1_554
