# generated using pymatgen
data_SrY6PtI12
_symmetry_space_group_name_H-M   'P 1'
_cell_length_a   9.75717038
_cell_length_b   9.75717166
_cell_length_c   9.75717095
_cell_angle_alpha   106.34835461
_cell_angle_beta   106.34836466
_cell_angle_gamma   106.34836550
_symmetry_Int_Tables_number   1
_chemical_formula_structural   SrY6PtI12
_chemical_formula_sum   'Sr1 Y6 Pt1 I12'
_cell_volume   786.94848349
_cell_formula_units_Z   1
loop_
 _symmetry_equiv_pos_site_id
 _symmetry_equiv_pos_as_xyz
  1  'x, y, z'
loop_
 _atom_site_type_symbol
 _atom_site_label
 _atom_site_symmetry_multiplicity
 _atom_site_fract_x
 _atom_site_fract_y
 _atom_site_fract_z
 _atom_site_occupancy
  Sr  Sr0  1  0.00000000  0.00000000  0.00000000  1
  Y  Y0  1  0.40371981  0.47790029  0.20014645  1
  Y  Y1  1  0.20014645  0.40371981  0.47790029  1
  Y  Y2  1  0.47790029  0.20014645  0.40371981  1
  Y  Y3  1  0.59628019  0.52209971  0.79985355  1
  Y  Y4  1  0.79985355  0.59628019  0.52209971  1
  Y  Y5  1  0.52209971  0.79985355  0.59628019  1
  Pt  Pt0  1  0.50000000  0.50000000  0.50000000  1
  I  I0  1  0.04795141  0.36413785  0.12876244  1
  I  I1  1  0.12876244  0.04795141  0.36413785  1
  I  I2  1  0.36413785  0.12876244  0.04795141  1
  I  I3  1  0.95204859  0.63586215  0.87123756  1
  I  I4  1  0.87123756  0.95204859  0.63586215  1
  I  I5  1  0.63586215  0.87123756  0.95204859  1
  I  I6  1  0.72435615  0.57363847  0.17378616  1
  I  I7  1  0.17378616  0.72435615  0.57363847  1
  I  I8  1  0.57363847  0.17378616  0.72435615  1
  I  I9  1  0.27564385  0.42636153  0.82621384  1
  I  I10  1  0.82621384  0.27564385  0.42636153  1
  I  I11  1  0.42636153  0.82621384  0.27564385  1
loop_
_geom_bond_atom_site_label_1
_geom_bond_atom_site_label_2
_geom_bond_distance
_geom_bond_site_symmetry_2
Pt0 Y4 2.733569 1_555
Pt0 Y1 2.733569 1_555
Pt0 Y3 2.733569 1_555
Pt0 Y0 2.733569 1_555
Pt0 Y5 2.733570 1_555
Pt0 Y2 2.733570 1_555
I0 Y0 3.130756 1_555
I0 Y1 3.169842 1_555
I0 Sr0 3.262086 1_555
I1 Y1 3.130756 1_555
I1 Y2 3.169842 1_555
I1 Sr0 3.262086 1_555
I2 Y2 3.130756 1_555
I2 Y0 3.169842 1_555
I2 Sr0 3.262086 1_555
I3 Y3 3.130756 1_555
I3 Y4 3.169842 1_555
I3 Sr0 3.262086 1_666
I4 Y4 3.130756 1_555
I4 Y5 3.169842 1_555
I4 Sr0 3.262086 1_666
I5 Y5 3.130756 1_555
I5 Y3 3.169842 1_555
I5 Sr0 3.262086 1_666
I6 Y0 3.109555 1_555
I6 Y4 3.196557 1_555
I6 Y3 3.342585 1_554
I7 Y1 3.109556 1_555
I7 Y5 3.196556 1_555
I7 Y4 3.342585 1_455
I8 Y2 3.109555 1_555
I8 Y3 3.196557 1_555
I8 Y5 3.342586 1_545
I9 Y3 3.109555 1_555
I9 Y1 3.196557 1_555
I9 Y0 3.342585 1_556
I10 Y4 3.109556 1_555
I10 Y2 3.196556 1_555
I10 Y1 3.342585 1_655
I11 Y5 3.109555 1_555
I11 Y0 3.196557 1_555
I11 Y2 3.342586 1_565
