# generated using pymatgen
data_Ba4Zn8AsP7
_symmetry_space_group_name_H-M   'P 1'
_cell_length_a   4.14041639
_cell_length_b   9.79134058
_cell_length_c   10.64309724
_cell_angle_alpha   89.76855924
_cell_angle_beta   90.00000000
_cell_angle_gamma   90.00000000
_symmetry_Int_Tables_number   1
_chemical_formula_structural   Ba4Zn8AsP7
_chemical_formula_sum   'Ba4 Zn8 As1 P7'
_cell_volume   431.47005833
_cell_formula_units_Z   1
loop_
 _symmetry_equiv_pos_site_id
 _symmetry_equiv_pos_as_xyz
  1  'x, y, z'
loop_
 _atom_site_type_symbol
 _atom_site_label
 _atom_site_symmetry_multiplicity
 _atom_site_fract_x
 _atom_site_fract_y
 _atom_site_fract_z
 _atom_site_occupancy
  Ba  Ba0  1  0.25000000  0.74554874  0.32601558  1
  Ba  Ba1  1  0.75000000  0.25477324  0.67364656  1
  Ba  Ba2  1  0.25000000  0.24887729  0.17317330  1
  Ba  Ba3  1  0.75000000  0.75289175  0.82688374  1
  Zn  Zn0  1  0.75000000  0.40181009  0.94915310  1
  Zn  Zn1  1  0.25000000  0.59930284  0.05079313  1
  Zn  Zn2  1  0.25000000  0.10125700  0.44510602  1
  Zn  Zn3  1  0.75000000  0.89666479  0.54537181  1
  Zn  Zn4  1  0.75000000  0.95183462  0.11740291  1
  Zn  Zn5  1  0.25000000  0.04920842  0.89097398  1
  Zn  Zn6  1  0.75000000  0.45241877  0.38268607  1
  Zn  Zn7  1  0.25000000  0.54759440  0.61704563  1
  As  As0  1  0.25000000  0.97753535  0.66019078  1
  P  P0  1  0.75000000  0.64649472  0.54016639  1
  P  P1  1  0.25000000  0.35127407  0.45811417  1
  P  P2  1  0.25000000  0.85038486  0.04213492  1
  P  P3  1  0.75000000  0.15123781  0.96113784  1
  P  P4  1  0.75000000  0.52081632  0.15779967  1
  P  P5  1  0.25000000  0.48018909  0.84197154  1
  P  P6  1  0.75000000  0.01988584  0.34023386  1
loop_
_geom_bond_atom_site_label_1
_geom_bond_atom_site_label_2
_geom_bond_distance
_geom_bond_site_symmetry_2
Ba0 P2 3.187051 1_555
Ba0 P0 3.225435 1_555
Ba0 P0 3.225435 1_455
Ba0 Zn1 3.265681 1_555
Ba0 P6 3.395177 1_465
Ba0 P6 3.395177 1_565
Ba0 Zn3 3.457379 1_455
Ba0 Zn3 3.457379 1_555
Ba0 P4 3.516362 1_455
Ba0 P4 3.516362 1_555
Ba0 Zn6 3.587930 1_555
Ba0 Zn6 3.587930 1_455
Ba0 Zn4 3.641271 1_555
Ba0 Zn4 3.641271 1_455
Ba0 Zn7 3.647264 1_555
Ba0 Zn2 3.711134 1_565
Ba1 P3 3.219471 1_555
Ba1 P1 3.228492 1_655
Ba1 P1 3.228492 1_555
Ba1 Zn0 3.271827 1_555
Ba1 P5 3.521160 1_655
Ba1 P5 3.521160 1_555
Ba1 Zn2 3.534285 1_555
Ba1 Zn2 3.534285 1_655
Ba1 Zn7 3.585392 1_555
Ba1 Zn7 3.585392 1_655
Ba1 Zn6 3.645041 1_555
Ba1 Zn5 3.694519 1_655
Ba1 Zn5 3.694519 1_555
Ba1 Zn3 3.767908 1_545
Ba2 P1 3.197931 1_555
Ba2 P3 3.210907 1_454
Ba2 P3 3.210907 1_554
Ba2 Zn2 3.229832 1_555
Ba2 P4 3.376197 1_555
Ba2 P4 3.376197 1_455
Ba2 Zn0 3.490546 1_454
Ba2 Zn0 3.490546 1_554
Ba2 P6 3.527343 1_455
Ba2 P6 3.527343 1_555
Ba2 Zn5 3.590324 1_554
Ba2 Zn4 3.620924 1_445
Ba2 Zn4 3.620924 1_545
Ba2 Zn6 3.642223 1_455
Ba2 Zn6 3.642223 1_555
Ba2 Zn1 3.665120 1_555
Ba3 P0 3.228465 1_555
Ba3 P2 3.234667 1_556
Ba3 P2 3.234667 1_656
Ba3 Zn3 3.305238 1_555
Ba3 P5 3.381960 1_655
Ba3 P5 3.381960 1_555
Ba3 Zn1 3.492487 1_556
Ba3 Zn1 3.492487 1_656
Ba3 Zn5 3.631087 1_665
Ba3 Zn5 3.631087 1_565
Ba3 Zn7 3.653824 1_555
Ba3 Zn7 3.653824 1_655
Ba3 Zn4 3.661100 1_556
Ba3 Zn0 3.670712 1_555
As0 Zn3 2.532574 1_455
As0 Zn3 2.532574 1_555
As0 Zn5 2.557258 1_565
As0 Zn2 2.585610 1_565
As0 Ba1 3.417322 1_465
As0 Ba1 3.417322 1_565
As0 Ba3 3.498549 1_455
As0 Ba3 3.498549 1_555
P0 Zn7 2.426232 1_655
P0 Zn7 2.426232 1_555
P0 Zn3 2.450351 1_555
P0 Zn6 2.538892 1_555
P1 Zn6 2.429935 1_555
P1 Zn6 2.429935 1_455
P1 Zn2 2.452472 1_555
P1 Zn7 2.565643 1_555
P2 Zn4 2.433234 1_455
P2 Zn4 2.433234 1_555
P2 Zn1 2.459784 1_555
P2 Zn5 2.520483 1_564
P3 Zn5 2.418150 1_655
P3 Zn5 2.418150 1_555
P3 Zn0 2.456237 1_555
P3 Zn4 2.559644 1_546
P4 Zn6 2.482808 1_555
P4 Zn1 2.483207 1_555
P4 Zn1 2.483207 1_655
P4 Zn0 2.511958 1_554
P5 Zn7 2.480649 1_555
P5 Zn0 2.483736 1_555
P5 Zn0 2.483736 1_455
P5 Zn1 2.514101 1_556
P6 Zn4 2.466025 1_545
P6 Zn2 2.484663 1_555
P6 Zn2 2.484663 1_655
P6 Zn3 2.490215 1_545
