# generated using pymatgen
data_Al13Co4
_symmetry_space_group_name_H-M   'P 1'
_cell_length_a   8.20224000
_cell_length_b   12.38816400
_cell_length_c   14.44381200
_cell_angle_alpha   90.00000000
_cell_angle_beta   90.00000000
_cell_angle_gamma   90.00000000
_symmetry_Int_Tables_number   1
_chemical_formula_structural   Al13Co4
_chemical_formula_sum   'Al78 Co24'
_cell_volume   1467.64576548
_cell_formula_units_Z   6
loop_
 _symmetry_equiv_pos_site_id
 _symmetry_equiv_pos_as_xyz
  1  'x, y, z'
loop_
 _atom_site_type_symbol
 _atom_site_label
 _atom_site_symmetry_multiplicity
 _atom_site_fract_x
 _atom_site_fract_y
 _atom_site_fract_z
 _atom_site_occupancy
  Al  Al0  1  0.00000000  0.75544000  0.40372000  1
  Al  Al1  1  0.50000000  0.74456000  0.90372000  1
  Al  Al2  1  0.00000000  0.85056000  0.56495200  1
  Al  Al3  1  0.50000000  0.64944000  0.06495200  1
  Al  Al4  1  0.00000000  0.65613400  0.20981600  1
  Al  Al5  1  0.50000000  0.84386600  0.70981600  1
  Al  Al6  1  0.00000000  0.65983000  0.02495900  1
  Al  Al7  1  0.50000000  0.84017000  0.52495900  1
  Al  Al8  1  0.00000000  0.88576200  0.25621000  1
  Al  Al9  1  0.50000000  0.61423800  0.75621000  1
  Al  Al10  1  0.00000000  0.57066200  0.73916500  1
  Al  Al11  1  0.50000000  0.92933800  0.23916500  1
  Al  Al12  1  0.00000000  0.55424100  0.42161000  1
  Al  Al13  1  0.50000000  0.94575900  0.92161000  1
  Al  Al14  1  0.00000000  0.00000000  0.00000000  1
  Al  Al15  1  0.50000000  0.50000000  0.50000000  1
  Al  Al16  1  0.00000000  0.14944000  0.43504800  1
  Al  Al17  1  0.50000000  0.35056000  0.93504800  1
  Al  Al18  1  0.00000000  0.11423800  0.74379000  1
  Al  Al19  1  0.50000000  0.38576200  0.24379000  1
  Al  Al20  1  0.00000000  0.42933800  0.26083500  1
  Al  Al21  1  0.50000000  0.07066200  0.76083500  1
  Al  Al22  1  0.00000000  0.34017000  0.97504100  1
  Al  Al23  1  0.50000000  0.15983000  0.47504100  1
  Al  Al24  1  0.00000000  0.24456000  0.59628000  1
  Al  Al25  1  0.50000000  0.25544000  0.09628000  1
  Al  Al26  1  0.00000000  0.34386600  0.79018400  1
  Al  Al27  1  0.50000000  0.15613400  0.29018400  1
  Al  Al28  1  0.00000000  0.44575900  0.57839000  1
  Al  Al29  1  0.50000000  0.05424100  0.07839000  1
  Al  Al30  1  0.00000000  0.84793000  0.82934900  1
  Al  Al31  1  0.50000000  0.65207000  0.32934900  1
  Al  Al32  1  0.00000000  0.15207000  0.17065100  1
  Al  Al33  1  0.50000000  0.34793000  0.67065100  1
  Al  Al34  1  0.22162100  0.95518300  0.68350400  1
  Al  Al35  1  0.27837900  0.54481700  0.18350400  1
  Al  Al36  1  0.77837900  0.95518300  0.68350400  1
  Al  Al37  1  0.72162100  0.54481700  0.18350400  1
  Al  Al38  1  0.20973500  0.65857200  0.86821600  1
  Al  Al39  1  0.29026500  0.84142800  0.36821600  1
  Al  Al40  1  0.79026500  0.65857200  0.86821600  1
  Al  Al41  1  0.70973500  0.84142800  0.36821600  1
  Al  Al42  1  0.23150300  0.82916800  0.99201800  1
  Al  Al43  1  0.26849700  0.67083200  0.49201800  1
  Al  Al44  1  0.76849700  0.82916800  0.99201800  1
  Al  Al45  1  0.73150300  0.67083200  0.49201800  1
  Al  Al46  1  0.25078400  0.00000000  0.50000000  1
  Al  Al47  1  0.24921600  0.50000000  0.00000000  1
  Al  Al48  1  0.74921600  0.00000000  0.50000000  1
  Al  Al49  1  0.75078400  0.50000000  0.00000000  1
  Al  Al50  1  0.21976100  0.73431300  0.67906200  1
  Al  Al51  1  0.28023900  0.76568700  0.17906200  1
  Al  Al52  1  0.78023900  0.73431300  0.67906200  1
  Al  Al53  1  0.71976100  0.76568700  0.17906200  1
  Al  Al54  1  0.22078300  0.97136000  0.13417600  1
  Al  Al55  1  0.27921700  0.52864000  0.63417600  1
  Al  Al56  1  0.77921700  0.97136000  0.13417600  1
  Al  Al57  1  0.72078300  0.52864000  0.63417600  1
  Al  Al58  1  0.20973500  0.34142800  0.13178400  1
  Al  Al59  1  0.29026500  0.15857200  0.63178400  1
  Al  Al60  1  0.79026500  0.34142800  0.13178400  1
  Al  Al61  1  0.70973500  0.15857200  0.63178400  1
  Al  Al62  1  0.22162100  0.04481700  0.31649600  1
  Al  Al63  1  0.27837900  0.45518300  0.81649600  1
  Al  Al64  1  0.77837900  0.04481700  0.31649600  1
  Al  Al65  1  0.72162100  0.45518300  0.81649600  1
  Al  Al66  1  0.23150300  0.17083200  0.00798200  1
  Al  Al67  1  0.26849700  0.32916800  0.50798200  1
  Al  Al68  1  0.76849700  0.17083200  0.00798200  1
  Al  Al69  1  0.73150300  0.32916800  0.50798200  1
  Al  Al70  1  0.21976100  0.26568700  0.32093800  1
  Al  Al71  1  0.28023900  0.23431300  0.82093800  1
  Al  Al72  1  0.78023900  0.26568700  0.32093800  1
  Al  Al73  1  0.71976100  0.23431300  0.82093800  1
  Al  Al74  1  0.22078300  0.02864000  0.86582400  1
  Al  Al75  1  0.27921700  0.47136000  0.36582400  1
  Al  Al76  1  0.77921700  0.02864000  0.86582400  1
  Al  Al77  1  0.72078300  0.47136000  0.36582400  1
  Co  Co0  1  0.00000000  0.64588500  0.58350400  1
  Co  Co1  1  0.50000000  0.85411500  0.08350400  1
  Co  Co2  1  0.00000000  0.83744900  0.10060300  1
  Co  Co3  1  0.50000000  0.66255100  0.60060300  1
  Co  Co4  1  0.00000000  0.95070500  0.40903400  1
  Co  Co5  1  0.50000000  0.54929500  0.90903400  1
  Co  Co6  1  0.00000000  0.51873900  0.89775700  1
  Co  Co7  1  0.50000000  0.98126100  0.39775700  1
  Co  Co8  1  0.00000000  0.35411500  0.41649600  1
  Co  Co9  1  0.50000000  0.14588500  0.91649600  1
  Co  Co10  1  0.00000000  0.16255100  0.89939700  1
  Co  Co11  1  0.50000000  0.33744900  0.39939700  1
  Co  Co12  1  0.00000000  0.48126100  0.10224300  1
  Co  Co13  1  0.50000000  0.01873900  0.60224300  1
  Co  Co14  1  0.00000000  0.04929500  0.59096600  1
  Co  Co15  1  0.50000000  0.45070500  0.09096600  1
  Co  Co16  1  0.22262500  0.65674300  0.32280200  1
  Co  Co17  1  0.27737500  0.84325700  0.82280200  1
  Co  Co18  1  0.77737500  0.65674300  0.32280200  1
  Co  Co19  1  0.72262500  0.84325700  0.82280200  1
  Co  Co20  1  0.22262500  0.34325700  0.67719800  1
  Co  Co21  1  0.27737500  0.15674300  0.17719800  1
  Co  Co22  1  0.77737500  0.34325700  0.67719800  1
  Co  Co23  1  0.72262500  0.15674300  0.17719800  1
loop_
_geom_bond_atom_site_label_1
_geom_bond_atom_site_label_2
_geom_bond_distance
_geom_bond_site_symmetry_2
Al0 Co4 2.420192 1_555
Al0 Co16 2.489037 1_555
Al0 Co18 2.489037 1_455
Al0 Al12 2.505845 1_555
Al0 Al2 2.609956 1_555
Al0 Al41 2.658198 1_455
Al0 Al39 2.658198 1_555
Al0 Al8 2.673188 1_555
Al0 Al45 2.752301 1_455
Al0 Al43 2.752301 1_555
Al0 Co0 2.930042 1_555
Al1 Co5 2.420192 1_555
Al1 Co19 2.489037 1_555
Al1 Co17 2.489037 1_555
Al1 Al13 2.505845 1_555
Al1 Al3 2.609956 1_556
Al1 Al40 2.658198 1_555
Al1 Al38 2.658198 1_555
Al1 Al9 2.673188 1_555
Al1 Al44 2.752301 1_555
Al1 Al42 2.752301 1_555
Al1 Co1 2.930042 1_556
Al2 Co14 2.490469 1_565
Al2 Co0 2.549668 1_555
Al2 Co4 2.571157 1_555
Al2 Al34 2.813595 1_555
Al2 Al36 2.813595 1_455
Al2 Al50 2.835398 1_555
Al2 Al52 2.835398 1_455
Al2 Al48 2.922090 1_465
Al2 Al46 2.922090 1_565
Al3 Co15 2.490469 1_555
Al3 Co1 2.549668 1_555
Al3 Co5 2.571157 1_554
Al3 Al37 2.813595 1_555
Al3 Al35 2.813595 1_555
Al3 Al53 2.835398 1_555
Al3 Al51 2.835398 1_555
Al3 Al47 2.922090 1_555
Al3 Al49 2.922090 1_555
Al4 Co16 2.449015 1_555
Al4 Co18 2.449015 1_455
Al4 Co12 2.665948 1_555
Al4 Al6 2.670432 1_555
Al4 Al51 2.706050 1_555
Al4 Al53 2.706050 1_455
Al4 Co2 2.744739 1_555
Al4 Al8 2.922531 1_555
Al5 Co19 2.449015 1_555
Al5 Co17 2.449015 1_555
Al5 Co13 2.665948 1_565
Al5 Al7 2.670432 1_555
Al5 Al52 2.706050 1_555
Al5 Al50 2.706050 1_555
Al5 Co3 2.744739 1_555
Al5 Al9 2.922531 1_555
Al6 Co2 2.456703 1_555
Al6 Co12 2.477830 1_555
Al6 Co6 2.535865 1_554
Al7 Co3 2.456703 1_555
Al7 Co13 2.477830 1_565
Al7 Co7 2.535865 1_555
Al8 Co2 2.325883 1_555
Al8 Co4 2.349405 1_555
Al9 Co3 2.325883 1_555
Al9 Co5 2.349405 1_555
Al10 Co6 2.379271 1_555
Al10 Co0 2.433807 1_555
Al10 Al38 2.760415 1_555
Al10 Al40 2.760415 1_455
Al10 Al28 2.790489 1_555
Al10 Al55 2.795645 1_555
Al10 Al57 2.795645 1_455
Al10 Al50 2.848304 1_555
Al10 Al52 2.848304 1_455
Al10 Al26 2.904618 1_555
Al10 Al63 2.916801 1_555
Al10 Al65 2.916801 1_455
Al11 Co7 2.379271 1_555
Al11 Co1 2.433807 1_555
Al11 Al41 2.760415 1_555
Al11 Al39 2.760415 1_555
Al11 Al29 2.790489 1_565
Al11 Al56 2.795645 1_555
Al11 Al54 2.795645 1_555
Al11 Al53 2.848304 1_555
Al11 Al51 2.848304 1_555
Al11 Al27 2.904618 1_565
Al11 Al64 2.916801 1_565
Al11 Al62 2.916801 1_565
Al12 Co8 2.480294 1_555
Al12 Co0 2.599397 1_555
Al12 Al28 2.633251 1_555
Al12 Al75 2.636000 1_555
Al12 Al77 2.636000 1_455
Al12 Co16 2.642647 1_555
Al12 Co18 2.642647 1_455
Al12 Al20 2.790489 1_555
Al12 Al43 2.823185 1_555
Al12 Al45 2.823185 1_455
Al13 Co9 2.480294 1_565
Al13 Co1 2.599397 1_556
Al13 Al29 2.633251 1_566
Al13 Al76 2.636000 1_565
Al13 Al74 2.636000 1_565
Al13 Co19 2.642647 1_555
Al13 Co17 2.642647 1_555
Al13 Al21 2.790489 1_565
Al13 Al44 2.823185 1_555
Al13 Al42 2.823185 1_555
Al14 Co10 2.483243 1_554
Al14 Co2 2.483243 1_545
Al14 Al54 2.676040 1_545
Al14 Al74 2.676040 1_554
Al14 Al56 2.676040 1_445
Al14 Al76 2.676040 1_454
Al14 Al66 2.845628 1_555
Al14 Al68 2.845628 1_455
Al14 Al44 2.845628 1_444
Al14 Al42 2.845628 1_544
Al14 Al30 3.102330 1_544
Al14 Al32 3.102330 1_555
Al15 Co3 2.483243 1_555
Al15 Co11 2.483243 1_555
Al15 Al57 2.676040 1_555
Al15 Al77 2.676040 1_555
Al15 Al55 2.676040 1_555
Al15 Al75 2.676040 1_555
Al15 Al45 2.845628 1_555
Al15 Al43 2.845628 1_555
Al15 Al67 2.845628 1_555
Al15 Al69 2.845628 1_555
Al15 Al31 3.102330 1_555
Al15 Al33 3.102330 1_555
Al16 Co4 2.490469 1_545
Al16 Co8 2.549668 1_555
Al16 Co14 2.571157 1_555
Al16 Al24 2.609956 1_555
Al16 Al62 2.813595 1_555
Al16 Al64 2.813595 1_455
Al16 Al70 2.835398 1_555
Al16 Al72 2.835398 1_455
Al16 Al48 2.922090 1_455
Al16 Al46 2.922090 1_555
Al17 Co5 2.490469 1_555
Al17 Co9 2.549668 1_555
Al17 Co15 2.571157 1_556
Al17 Al25 2.609956 1_556
Al17 Al65 2.813595 1_555
Al17 Al63 2.813595 1_555
Al17 Al73 2.835398 1_555
Al17 Al71 2.835398 1_555
Al17 Al47 2.922090 1_556
Al17 Al49 2.922090 1_556
Al18 Co10 2.325883 1_555
Al18 Co14 2.349405 1_555
Al18 Al24 2.673188 1_555
Al18 Al74 2.740575 1_555
Al18 Al76 2.740575 1_455
Al18 Al34 2.818697 1_545
Al18 Al36 2.818697 1_445
Al18 Al26 2.922531 1_555
Al18 Al61 2.930395 1_455
Al18 Al59 2.930395 1_555
Al18 Al71 2.955990 1_555
Al18 Al73 2.955990 1_455
Al19 Co11 2.325883 1_555
Al19 Co15 2.349405 1_555
Al19 Al25 2.673188 1_555
Al19 Al77 2.740575 1_555
Al19 Al75 2.740575 1_555
Al19 Al37 2.818697 1_555
Al19 Al35 2.818697 1_555
Al19 Al27 2.922531 1_555
Al19 Al60 2.930395 1_555
Al19 Al58 2.930395 1_555
Al19 Al72 2.955990 1_555
Al19 Al70 2.955990 1_555
Al20 Co12 2.379271 1_555
Al20 Co8 2.433807 1_555
Al20 Al58 2.760415 1_555
Al20 Al60 2.760415 1_455
Al20 Al75 2.795645 1_555
Al20 Al77 2.795645 1_455
Al20 Al70 2.848304 1_555
Al20 Al72 2.848304 1_455
Al20 Al4 2.904618 1_555
Al20 Al37 2.916801 1_455
Al20 Al35 2.916801 1_555
Al21 Co13 2.379271 1_555
Al21 Co9 2.433807 1_555
Al21 Al59 2.760415 1_555
Al21 Al61 2.760415 1_555
Al21 Al76 2.795645 1_555
Al21 Al74 2.795645 1_555
Al21 Al73 2.848304 1_555
Al21 Al71 2.848304 1_555
Al21 Al5 2.904618 1_545
Al21 Al36 2.916801 1_545
Al21 Al34 2.916801 1_545
Al22 Co10 2.456703 1_555
Al22 Co6 2.477830 1_555
Al22 Co12 2.535865 1_556
Al22 Al26 2.670432 1_555
Al22 Al58 2.843450 1_556
Al22 Al60 2.843450 1_456
Al22 Al47 2.868594 1_556
Al22 Al49 2.868594 1_456
Al22 Al66 2.869267 1_556
Al22 Al68 2.869267 1_456
Al23 Co11 2.456703 1_555
Al23 Co7 2.477830 1_545
Al23 Co13 2.535865 1_555
Al23 Al27 2.670432 1_555
Al23 Al59 2.843450 1_555
Al23 Al61 2.843450 1_555
Al23 Al48 2.868594 1_555
Al23 Al46 2.868594 1_555
Al23 Al69 2.869267 1_555
Al23 Al67 2.869267 1_555
Al24 Co14 2.420192 1_555
Al24 Co20 2.489037 1_555
Al24 Co22 2.489037 1_455
Al24 Al28 2.505845 1_555
Al24 Al59 2.658198 1_555
Al24 Al61 2.658198 1_455
Al24 Al67 2.752301 1_555
Al24 Al69 2.752301 1_455
Al24 Co8 2.930042 1_555
Al25 Co15 2.420192 1_555
Al25 Co23 2.489037 1_555
Al25 Co21 2.489037 1_555
Al25 Al29 2.505845 1_555
Al25 Al60 2.658198 1_555
Al25 Al58 2.658198 1_555
Al25 Al66 2.752301 1_555
Al25 Al68 2.752301 1_555
Al25 Co9 2.930042 1_554
Al26 Co20 2.449015 1_555
Al26 Co22 2.449015 1_455
Al26 Co6 2.665948 1_555
Al26 Al63 2.694386 1_555
Al26 Al65 2.694386 1_455
Al26 Al71 2.706050 1_555
Al26 Al73 2.706050 1_455
Al26 Co10 2.744739 1_555
Al27 Co23 2.449015 1_555
Al27 Co21 2.449015 1_555
Al27 Co7 2.665948 1_545
Al27 Al64 2.694386 1_555
Al27 Al62 2.694386 1_555
Al27 Al72 2.706050 1_555
Al27 Al70 2.706050 1_555
Al27 Co11 2.744739 1_555
Al28 Co0 2.480294 1_555
Al28 Co8 2.599397 1_555
Al28 Al55 2.636000 1_555
Al28 Al57 2.636000 1_455
Al28 Co20 2.642647 1_555
Al28 Co22 2.642647 1_455
Al28 Al67 2.823185 1_555
Al28 Al69 2.823185 1_455
Al29 Co1 2.480294 1_545
Al29 Co9 2.599397 1_554
Al29 Al56 2.636000 1_545
Al29 Al54 2.636000 1_545
Al29 Co23 2.642647 1_555
Al29 Co21 2.642647 1_555
Al29 Al66 2.823185 1_555
Al29 Al68 2.823185 1_555
Al30 Co17 2.277796 1_555
Al30 Co19 2.277796 1_455
Al30 Al74 2.927216 1_565
Al30 Al76 2.927216 1_465
Al30 Al38 2.962658 1_555
Al30 Al40 2.962658 1_455
Al30 Al42 3.029862 1_555
Al30 Al44 3.029862 1_455
Al30 Al34 3.083391 1_555
Al30 Al36 3.083391 1_455
Al31 Co18 2.277796 1_555
Al31 Co16 2.277796 1_555
Al31 Al77 2.927216 1_555
Al31 Al75 2.927216 1_555
Al31 Al39 2.962658 1_555
Al31 Al41 2.962658 1_555
Al31 Al45 3.029862 1_555
Al31 Al43 3.029862 1_555
Al31 Al35 3.083391 1_555
Al31 Al37 3.083391 1_555
Al32 Co21 2.277796 1_555
Al32 Co23 2.277796 1_455
Al32 Al54 2.927216 1_545
Al32 Al56 2.927216 1_445
Al32 Al58 2.962658 1_555
Al32 Al60 2.962658 1_455
Al32 Al66 3.029862 1_555
Al32 Al68 3.029862 1_455
Al32 Al62 3.083391 1_555
Al32 Al64 3.083391 1_455
Al33 Co22 2.277796 1_555
Al33 Co20 2.277796 1_555
Al33 Al57 2.927216 1_555
Al33 Al55 2.927216 1_555
Al33 Al59 2.962658 1_555
Al33 Al61 2.962658 1_555
Al33 Al69 3.029862 1_555
Al33 Al67 3.029862 1_555
Al33 Al65 3.083391 1_555
Al33 Al63 3.083391 1_555
Al34 Co17 2.485919 1_555
Al34 Co14 2.539709 1_565
Al34 Co13 2.685354 1_565
Al34 Al59 2.687663 1_565
Al34 Al5 2.694386 1_555
Al34 Al46 2.718566 1_565
Al34 Al50 2.736968 1_555
Al34 Al74 2.786201 1_565
Al35 Co16 2.485919 1_555
Al35 Co15 2.539709 1_555
Al35 Co12 2.685354 1_555
Al35 Al58 2.687663 1_555
Al35 Al4 2.694386 1_555
Al35 Al47 2.718566 1_555
Al35 Al51 2.736968 1_555
Al35 Al75 2.786201 1_555
Al36 Co19 2.485919 1_555
Al36 Co14 2.539709 1_665
Al36 Co13 2.685354 1_565
Al36 Al61 2.687663 1_565
Al36 Al5 2.694386 1_555
Al36 Al48 2.718566 1_565
Al36 Al52 2.736968 1_555
Al36 Al76 2.786201 1_565
Al37 Co18 2.485919 1_555
Al37 Co15 2.539709 1_555
Al37 Co12 2.685354 1_655
Al37 Al60 2.687663 1_555
Al37 Al4 2.694386 1_655
Al37 Al49 2.718566 1_555
Al37 Al53 2.736968 1_555
Al37 Al77 2.786201 1_555
Al38 Co17 2.443890 1_555
Al38 Co6 2.478357 1_555
Al38 Al63 2.687663 1_555
Al38 Al47 2.754446 1_556
Al38 Al42 2.774127 1_555
Al38 Co5 2.801522 1_555
Al38 Al6 2.843450 1_556
Al38 Al50 2.889905 1_555
Al38 Al9 2.930395 1_555
Al39 Co16 2.443890 1_555
Al39 Co7 2.478357 1_555
Al39 Al62 2.687663 1_565
Al39 Al46 2.754446 1_565
Al39 Al43 2.774127 1_555
Al39 Co4 2.801522 1_555
Al39 Al7 2.843450 1_555
Al39 Al51 2.889905 1_555
Al39 Al8 2.930395 1_555
Al40 Co19 2.443890 1_555
Al40 Co6 2.478357 1_655
Al40 Al65 2.687663 1_555
Al40 Al49 2.754446 1_556
Al40 Al44 2.774127 1_555
Al40 Co5 2.801522 1_555
Al40 Al6 2.843450 1_656
Al40 Al52 2.889905 1_555
Al40 Al9 2.930395 1_555
Al41 Co18 2.443890 1_555
Al41 Co7 2.478357 1_555
Al41 Al64 2.687663 1_565
Al41 Al48 2.754446 1_565
Al41 Al45 2.774127 1_555
Al41 Co4 2.801522 1_655
Al41 Al7 2.843450 1_555
Al41 Al53 2.889905 1_555
Al41 Al8 2.930395 1_655
Al42 Co2 2.464944 1_556
Al42 Co17 2.479067 1_555
Al42 Co1 2.586822 1_556
Al42 Al54 2.706781 1_556
Al42 Al51 2.842013 1_556
Al42 Al6 2.869267 1_556
Al42 Al74 3.071863 1_565
Al43 Co3 2.464944 1_555
Al43 Co16 2.479067 1_555
Al43 Co0 2.586822 1_555
Al43 Al55 2.706781 1_555
Al43 Al50 2.842013 1_555
Al43 Al7 2.869267 1_555
Al43 Al75 3.071863 1_555
Al44 Co2 2.464944 1_656
Al44 Co19 2.479067 1_555
Al44 Co1 2.586822 1_556
Al44 Al56 2.706781 1_556
Al44 Al53 2.842013 1_556
Al44 Al6 2.869267 1_656
Al44 Al76 3.071863 1_565
Al45 Co3 2.464944 1_555
Al45 Co18 2.479067 1_555
Al45 Co0 2.586822 1_655
Al45 Al57 2.706781 1_555
Al45 Al52 2.842013 1_555
Al45 Al7 2.869267 1_555
Al45 Al77 3.071863 1_555
Al46 Co14 2.516040 1_555
Al46 Co4 2.516040 1_545
Al46 Co13 2.532436 1_555
Al46 Co7 2.532436 1_545
Al46 Al62 2.718566 1_555
Al46 Al59 2.754446 1_555
Al46 Al7 2.868594 1_545
Al47 Co15 2.516040 1_555
Al47 Co5 2.516040 1_554
Al47 Co12 2.532436 1_555
Al47 Co6 2.532436 1_554
Al47 Al63 2.718566 1_554
Al47 Al58 2.754446 1_555
Al47 Al6 2.868594 1_555
Al48 Co14 2.516040 1_655
Al48 Co4 2.516040 1_645
Al48 Co13 2.532436 1_555
Al48 Co7 2.532436 1_545
Al48 Al64 2.718566 1_555
Al48 Al61 2.754446 1_555
Al48 Al7 2.868594 1_545
Al49 Co15 2.516040 1_555
Al49 Co5 2.516040 1_554
Al49 Co12 2.532436 1_655
Al49 Co6 2.532436 1_654
Al49 Al65 2.718566 1_554
Al49 Al60 2.754446 1_555
Al49 Al6 2.868594 1_655
Al50 Co0 2.520748 1_555
Al50 Co17 2.520951 1_555
Al50 Al55 2.673948 1_555
Al50 Co3 2.712577 1_555
Al50 Al9 2.955990 1_555
Al51 Co1 2.520748 1_555
Al51 Co16 2.520951 1_555
Al51 Al54 2.673948 1_555
Al51 Co2 2.712577 1_555
Al51 Al8 2.955990 1_555
Al52 Co0 2.520748 1_655
Al52 Co19 2.520951 1_555
Al52 Al57 2.673948 1_555
Al52 Co3 2.712577 1_555
Al52 Al9 2.955990 1_555
Al53 Co1 2.520748 1_555
Al53 Co18 2.520951 1_555
Al53 Al56 2.673948 1_555
Al53 Co2 2.712577 1_655
Al53 Al8 2.955990 1_655
Al54 Co21 2.423999 1_565
Al54 Co2 2.503308 1_555
Al54 Al8 2.740575 1_555
Al54 Al62 2.786201 1_565
Al54 Co1 2.808972 1_555
Al54 Al66 3.071863 1_565
Al55 Co20 2.423999 1_555
Al55 Co3 2.503308 1_555
Al55 Al9 2.740575 1_555
Al55 Al63 2.786201 1_555
Al55 Co0 2.808972 1_555
Al55 Al67 3.071863 1_555
Al56 Co23 2.423999 1_565
Al56 Co2 2.503308 1_655
Al56 Al8 2.740575 1_655
Al56 Al64 2.786201 1_565
Al56 Co1 2.808972 1_555
Al56 Al68 3.071863 1_565
Al57 Co22 2.423999 1_555
Al57 Co3 2.503308 1_555
Al57 Al9 2.740575 1_555
Al57 Al65 2.786201 1_555
Al57 Co0 2.808972 1_655
Al57 Al69 3.071863 1_555
Al58 Co21 2.443890 1_555
Al58 Co12 2.478357 1_555
Al58 Al66 2.774127 1_555
Al58 Co15 2.801522 1_555
Al58 Al70 2.889905 1_555
Al59 Co20 2.443890 1_555
Al59 Co13 2.478357 1_555
Al59 Al67 2.774127 1_555
Al59 Co14 2.801522 1_555
Al59 Al71 2.889905 1_555
Al60 Co23 2.443890 1_555
Al60 Co12 2.478357 1_655
Al60 Al68 2.774127 1_555
Al60 Co15 2.801522 1_555
Al60 Al72 2.889905 1_555
Al61 Co22 2.443890 1_555
Al61 Co13 2.478357 1_555
Al61 Al69 2.774127 1_555
Al61 Co14 2.801522 1_655
Al61 Al73 2.889905 1_555
Al62 Co21 2.485919 1_555
Al62 Co4 2.539709 1_545
Al62 Co7 2.685354 1_545
Al62 Al70 2.736968 1_555
Al62 Al8 2.818697 1_545
Al63 Co20 2.485919 1_555
Al63 Co5 2.539709 1_555
Al63 Co6 2.685354 1_555
Al63 Al71 2.736968 1_555
Al63 Al9 2.818697 1_555
Al64 Co23 2.485919 1_555
Al64 Co4 2.539709 1_645
Al64 Co7 2.685354 1_545
Al64 Al72 2.736968 1_555
Al64 Al8 2.818697 1_645
Al65 Co22 2.485919 1_555
Al65 Co5 2.539709 1_555
Al65 Co6 2.685354 1_655
Al65 Al73 2.736968 1_555
Al65 Al9 2.818697 1_555
Al66 Co10 2.464944 1_554
Al66 Co21 2.479067 1_555
Al66 Co9 2.586822 1_554
Al66 Al74 2.706781 1_554
Al66 Al71 2.842013 1_554
Al67 Co11 2.464944 1_555
Al67 Co20 2.479067 1_555
Al67 Co8 2.586822 1_555
Al67 Al75 2.706781 1_555
Al67 Al70 2.842013 1_555
Al68 Co10 2.464944 1_654
Al68 Co23 2.479067 1_555
Al68 Co9 2.586822 1_554
Al68 Al76 2.706781 1_554
Al68 Al73 2.842013 1_554
Al69 Co11 2.464944 1_555
Al69 Co22 2.479067 1_555
Al69 Co8 2.586822 1_655
Al69 Al77 2.706781 1_555
Al69 Al72 2.842013 1_555
Al70 Co8 2.520748 1_555
Al70 Co21 2.520951 1_555
Al70 Al75 2.673948 1_555
Al70 Co11 2.712577 1_555
Al71 Co9 2.520748 1_555
Al71 Co20 2.520951 1_555
Al71 Al74 2.673948 1_555
Al71 Co10 2.712577 1_555
Al72 Co8 2.520748 1_655
Al72 Co23 2.520951 1_555
Al72 Al77 2.673948 1_555
Al72 Co11 2.712577 1_555
Al73 Co9 2.520748 1_555
Al73 Co22 2.520951 1_555
Al73 Al76 2.673948 1_555
Al73 Co10 2.712577 1_655
Al74 Co17 2.423999 1_545
Al74 Co10 2.503308 1_555
Al74 Co9 2.808972 1_555
Al75 Co16 2.423999 1_555
Al75 Co11 2.503308 1_555
Al75 Co8 2.808972 1_555
Al76 Co19 2.423999 1_545
Al76 Co10 2.503308 1_655
Al76 Co9 2.808972 1_555
Al77 Co18 2.423999 1_555
Al77 Co11 2.503308 1_555
Al77 Co8 2.808972 1_655
Co14 Co4 2.897755 1_545
Co15 Co5 2.897755 1_554
