# generated using pymatgen
data_RbSc(NbBr3)6
_symmetry_space_group_name_H-M   'P 1'
_cell_length_a   10.56186219
_cell_length_b   10.56186222
_cell_length_c   10.56186211
_cell_angle_alpha   55.65059425
_cell_angle_beta   55.65059264
_cell_angle_gamma   55.65059570
_symmetry_Int_Tables_number   1
_chemical_formula_structural   RbSc(NbBr3)6
_chemical_formula_sum   'Rb1 Sc1 Nb6 Br18'
_cell_volume   749.04012043
_cell_formula_units_Z   1
loop_
 _symmetry_equiv_pos_site_id
 _symmetry_equiv_pos_as_xyz
  1  'x, y, z'
loop_
 _atom_site_type_symbol
 _atom_site_label
 _atom_site_symmetry_multiplicity
 _atom_site_fract_x
 _atom_site_fract_y
 _atom_site_fract_z
 _atom_site_occupancy
  Rb  Rb0  1  0.22313226  0.22313226  0.22313226  1
  Sc  Sc0  1  0.49838826  0.49838826  0.49838826  1
  Nb  Nb0  1  0.80850912  0.14583329  0.91028970  1
  Nb  Nb1  1  0.91028970  0.80850912  0.14583329  1
  Nb  Nb2  1  0.14583329  0.91028970  0.80850912  1
  Nb  Nb3  1  0.19223466  0.85461063  0.08840870  1
  Nb  Nb4  1  0.08840870  0.19223466  0.85461063  1
  Nb  Nb5  1  0.85461063  0.08840870  0.19223466  1
  Br  Br0  1  0.87058366  0.41595320  0.71538715  1
  Br  Br1  1  0.71538715  0.87058366  0.41595320  1
  Br  Br2  1  0.41595320  0.71538715  0.87058366  1
  Br  Br3  1  0.12856433  0.58403369  0.28663195  1
  Br  Br4  1  0.28663195  0.12856433  0.58403369  1
  Br  Br5  1  0.58403369  0.28663195  0.12856433  1
  Br  Br6  1  0.53224507  0.34778844  0.79275132  1
  Br  Br7  1  0.79275132  0.53224507  0.34778844  1
  Br  Br8  1  0.34778844  0.79275132  0.53224507  1
  Br  Br9  1  0.46566822  0.65327740  0.20919892  1
  Br  Br10  1  0.20919892  0.46566822  0.65327740  1
  Br  Br11  1  0.65327740  0.20919892  0.46566822  1
  Br  Br12  1  0.65556567  0.94207582  0.06834016  1
  Br  Br13  1  0.06834016  0.65556567  0.94207582  1
  Br  Br14  1  0.94207582  0.06834016  0.65556567  1
  Br  Br15  1  0.34678335  0.05704129  0.92784274  1
  Br  Br16  1  0.92784274  0.34678335  0.05704129  1
  Br  Br17  1  0.05704129  0.92784274  0.34678335  1
loop_
_geom_bond_atom_site_label_1
_geom_bond_atom_site_label_2
_geom_bond_distance
_geom_bond_site_symmetry_2
Br0 Nb0 2.601372 1_555
Br0 Nb4 2.607789 1_655
Br1 Nb1 2.601372 1_555
Br1 Nb5 2.607788 1_565
Br2 Nb2 2.601372 1_555
Br2 Nb3 2.607788 1_556
Br3 Nb3 2.613532 1_555
Br3 Nb1 2.620955 1_455
Br3 Rb0 3.716147 1_555
Br4 Nb4 2.613532 1_555
Br4 Nb2 2.620955 1_545
Br4 Rb0 3.716147 1_555
Br5 Nb5 2.613532 1_555
Br5 Nb0 2.620955 1_554
Br5 Rb0 3.716147 1_555
Br6 Sc0 2.712207 1_555
Br6 Nb0 2.946329 1_555
Br6 Rb0 3.795375 1_556
Br7 Sc0 2.712207 1_555
Br7 Nb1 2.946329 1_555
Br7 Rb0 3.795375 1_655
Br8 Sc0 2.712207 1_555
Br8 Nb2 2.946329 1_555
Br8 Rb0 3.795375 1_565
Br9 Sc0 2.653184 1_555
Br9 Nb3 2.942102 1_555
Br10 Sc0 2.653184 1_555
Br10 Nb4 2.942102 1_555
Br11 Sc0 2.653184 1_555
Br11 Nb5 2.942102 1_555
Br12 Nb1 2.607110 1_555
Br12 Nb0 2.617895 1_564
Br12 Rb0 3.754390 1_565
Br13 Nb2 2.607110 1_555
Br13 Nb1 2.617895 1_456
Br13 Rb0 3.754390 1_556
Br14 Nb0 2.607110 1_555
Br14 Nb2 2.617895 1_645
Br14 Rb0 3.754390 1_655
Br15 Nb4 2.611988 1_555
Br15 Nb3 2.614288 1_546
Br15 Rb0 3.674525 1_556
Br16 Nb5 2.611988 1_555
Br16 Nb4 2.614288 1_654
Br16 Rb0 3.674526 1_655
Br17 Nb3 2.611988 1_555
Br17 Nb5 2.614288 1_465
Br17 Rb0 3.674525 1_565
