# generated using pymatgen
data_Rb6Ir3RhBr18
_symmetry_space_group_name_H-M   'P 1'
_cell_length_a   7.39106700
_cell_length_b   7.39106687
_cell_length_c   19.02828565
_cell_angle_alpha   90.00000000
_cell_angle_beta   90.00000000
_cell_angle_gamma   119.99999629
_symmetry_Int_Tables_number   1
_chemical_formula_structural   Rb6Ir3RhBr18
_chemical_formula_sum   'Rb6 Ir3 Rh1 Br18'
_cell_volume   900.21155045
_cell_formula_units_Z   1
loop_
 _symmetry_equiv_pos_site_id
 _symmetry_equiv_pos_as_xyz
  1  'x, y, z'
loop_
 _atom_site_type_symbol
 _atom_site_label
 _atom_site_symmetry_multiplicity
 _atom_site_fract_x
 _atom_site_fract_y
 _atom_site_fract_z
 _atom_site_occupancy
  Rb  Rb0  1  0.66666700  0.33333300  0.56328008  1
  Rb  Rb1  1  0.33333300  0.66666700  0.06203651  1
  Rb  Rb2  1  0.33333300  0.66666700  0.43736745  1
  Rb  Rb3  1  0.66666700  0.33333300  0.93623494  1
  Rb  Rb4  1  0.00000000  0.00000000  0.24979282  1
  Rb  Rb5  1  0.00000000  0.00000000  0.75080107  1
  Ir  Ir0  1  0.66666700  0.33333300  0.33620287  1
  Ir  Ir1  1  0.33333300  0.66666700  0.83469057  1
  Ir  Ir2  1  0.66666700  0.33333300  0.16397182  1
  Rh  Rh0  1  0.33333300  0.66666700  0.66422375  1
  Br  Br0  1  0.82620558  0.65241017  0.40943897  1
  Br  Br1  1  0.17433153  0.82566847  0.59176031  1
  Br  Br2  1  0.65133794  0.82566847  0.59176031  1
  Br  Br3  1  0.82620558  0.17379442  0.40943897  1
  Br  Br4  1  0.34758983  0.17379442  0.40943897  1
  Br  Br5  1  0.17386545  0.34773289  0.90817568  1
  Br  Br6  1  0.02608673  0.51304337  0.75029018  1
  Br  Br7  1  0.65226711  0.82613455  0.90817568  1
  Br  Br8  1  0.82606973  0.65213845  0.09065978  1
  Br  Br9  1  0.17433153  0.34866206  0.59176031  1
  Br  Br10  1  0.48695663  0.97391327  0.75029018  1
  Br  Br11  1  0.51414400  0.48585600  0.25014012  1
  Br  Br12  1  0.48695663  0.51304337  0.75029018  1
  Br  Br13  1  0.17386545  0.82613455  0.90817568  1
  Br  Br14  1  0.34786155  0.17393027  0.09065978  1
  Br  Br15  1  0.97171399  0.48585600  0.25014012  1
  Br  Br16  1  0.51414400  0.02828601  0.25014012  1
  Br  Br17  1  0.82606973  0.17393027  0.09065978  1
loop_
_geom_bond_atom_site_label_1
_geom_bond_atom_site_label_2
_geom_bond_distance
_geom_bond_site_symmetry_2
Br0 Ir0 2.472501 1_555
Br0 Rb0 3.569388 1_555
Br0 Rb2 3.734657 1_655
Br0 Rb2 3.734671 1_555
Br0 Rb4 3.765400 1_665
Br1 Rh0 2.458548 1_555
Br1 Rb2 3.574083 1_555
Br1 Rb0 3.736346 1_565
Br1 Rb0 3.736346 1_455
Br1 Rb5 3.760185 1_565
Br2 Rh0 2.458559 1_555
Br2 Rb2 3.574091 1_555
Br2 Rb0 3.736346 1_555
Br2 Rb0 3.736346 1_565
Br2 Rb5 3.760182 1_665
Br3 Ir0 2.472501 1_555
Br3 Rb0 3.569388 1_555
Br3 Rb2 3.734664 1_545
Br3 Rb2 3.734664 1_655
Br3 Rb4 3.765396 1_655
Br4 Ir0 2.472501 1_555
Br4 Rb0 3.569388 1_555
Br4 Rb2 3.734657 1_545
Br4 Rb2 3.734671 1_555
Br4 Rb4 3.765400 1_555
Br5 Ir1 2.474419 1_555
Br5 Rb1 3.569172 1_556
Br5 Rb5 3.731162 1_555
Br5 Rb3 3.735030 1_455
Br5 Rb3 3.735052 1_555
Br6 Ir1 2.539071 1_555
Br6 Rh0 2.559241 1_555
Br6 Rb5 3.699317 1_565
Br6 Rb5 3.699317 1_555
Br7 Ir1 2.474419 1_555
Br7 Rb1 3.569172 1_556
Br7 Rb5 3.731162 1_665
Br7 Rb3 3.735030 1_565
Br7 Rb3 3.735052 1_555
Br8 Ir2 2.471880 1_555
Br8 Rb3 3.577511 1_554
Br8 Rb1 3.736604 1_655
Br8 Rb1 3.736618 1_555
Br8 Rb4 3.758557 1_665
Br9 Rh0 2.458559 1_555
Br9 Rb2 3.574091 1_555
Br9 Rb0 3.736346 1_555
Br9 Rb0 3.736346 1_455
Br9 Rb5 3.760182 1_555
Br10 Ir1 2.539071 1_555
Br10 Rh0 2.559241 1_555
Br10 Rb5 3.699317 1_565
Br10 Rb5 3.699317 1_665
Br11 Ir0 2.548389 1_555
Br11 Ir2 2.549681 1_555
Br11 Rb4 3.699973 1_665
Br11 Rb4 3.699973 1_555
Br12 Ir1 2.539076 1_555
Br12 Rh0 2.559246 1_555
Br12 Rb5 3.699317 1_555
Br12 Rb5 3.699317 1_665
Br13 Ir1 2.474424 1_555
Br13 Rb1 3.569176 1_556
Br13 Rb5 3.731154 1_565
Br13 Rb3 3.735041 1_565
Br13 Rb3 3.735041 1_455
Br14 Ir2 2.471880 1_555
Br14 Rb3 3.577511 1_554
Br14 Rb1 3.736604 1_545
Br14 Rb1 3.736618 1_555
Br14 Rb4 3.758557 1_555
Br15 Ir0 2.548394 1_555
Br15 Ir2 2.549686 1_555
Br15 Rb4 3.699964 1_655
Br15 Rb4 3.699979 1_665
Br16 Ir0 2.548394 1_555
Br16 Ir2 2.549686 1_555
Br16 Rb4 3.699965 1_655
Br16 Rb4 3.699979 1_555
Br17 Ir2 2.471879 1_555
Br17 Rb3 3.577511 1_554
Br17 Rb1 3.736611 1_545
Br17 Rb1 3.736611 1_655
Br17 Rb4 3.758553 1_655
