# generated using pymatgen
data_CuBiPdS3
_symmetry_space_group_name_H-M   'P 1'
_cell_length_a   4.98683933
_cell_length_b   7.69206607
_cell_length_c   12.74043379
_cell_angle_alpha   90.00000000
_cell_angle_beta   90.00000000
_cell_angle_gamma   90.00000000
_symmetry_Int_Tables_number   1
_chemical_formula_structural   CuBiPdS3
_chemical_formula_sum   'Cu4 Bi4 Pd4 S12'
_cell_volume   488.71154285
_cell_formula_units_Z   4
loop_
 _symmetry_equiv_pos_site_id
 _symmetry_equiv_pos_as_xyz
  1  'x, y, z'
loop_
 _atom_site_type_symbol
 _atom_site_label
 _atom_site_symmetry_multiplicity
 _atom_site_fract_x
 _atom_site_fract_y
 _atom_site_fract_z
 _atom_site_occupancy
  Cu  Cu0  1  0.47802083  0.88269779  0.43759442  1
  Cu  Cu1  1  0.97802083  0.61730221  0.56240558  1
  Cu  Cu2  1  0.52197917  0.38269779  0.06240558  1
  Cu  Cu3  1  0.02197917  0.11730221  0.93759442  1
  Bi  Bi0  1  0.42466831  0.88256806  0.12877665  1
  Bi  Bi1  1  0.92466831  0.61743194  0.87122335  1
  Bi  Bi2  1  0.57533169  0.38256806  0.37122335  1
  Bi  Bi3  1  0.07533169  0.11743194  0.62877665  1
  Pd  Pd0  1  0.00417833  0.63343492  0.25030632  1
  Pd  Pd1  1  0.50417833  0.86656508  0.74969368  1
  Pd  Pd2  1  0.99582167  0.13343492  0.24969368  1
  Pd  Pd3  1  0.49582167  0.36656508  0.75030632  1
  S  S0  1  0.76778932  0.62823469  0.08839537  1
  S  S1  1  0.26778932  0.87176531  0.91160463  1
  S  S2  1  0.23221068  0.12823469  0.41160463  1
  S  S3  1  0.73221068  0.37176531  0.58839537  1
  S  S4  1  0.75808796  0.88242791  0.29632949  1
  S  S5  1  0.25808796  0.61757209  0.70367051  1
  S  S6  1  0.24191204  0.38242791  0.20367051  1
  S  S7  1  0.74191204  0.11757209  0.79632949  1
  S  S8  1  0.22940585  0.63666266  0.41429726  1
  S  S9  1  0.72940585  0.86333734  0.58570274  1
  S  S10  1  0.77059415  0.13666266  0.08570274  1
  S  S11  1  0.27059415  0.36333734  0.91429726  1
loop_
_geom_bond_atom_site_label_1
_geom_bond_atom_site_label_2
_geom_bond_distance
_geom_bond_site_symmetry_2
Cu0 S9 2.270323 1_555
Cu0 S2 2.275830 1_565
Cu0 S4 2.278120 1_555
Cu0 S8 2.281850 1_555
Cu1 S8 2.270323 1_655
Cu1 S3 2.275830 1_555
Cu1 S5 2.278120 1_655
Cu1 S9 2.281850 1_555
Cu2 S11 2.270323 1_554
Cu2 S0 2.275830 1_555
Cu2 S6 2.278120 1_555
Cu2 S10 2.281850 1_555
Cu3 S10 2.270323 1_456
Cu3 S1 2.275830 1_545
Cu3 S7 2.278120 1_455
Cu3 S11 2.281850 1_555
Bi0 S0 2.649493 1_555
Bi0 S10 2.664051 1_565
Bi0 S4 2.705833 1_555
Bi0 S1 2.876542 1_554
Bi0 Pd0 3.235245 1_555
Bi0 Pd2 3.266572 1_465
Bi1 S1 2.649493 1_655
Bi1 S11 2.664051 1_655
Bi1 S5 2.705833 1_655
Bi1 S0 2.876542 1_556
Bi1 Pd1 3.235245 1_555
Bi1 Pd3 3.266572 1_555
Bi2 S2 2.649493 1_555
Bi2 S8 2.664051 1_555
Bi2 S6 2.705833 1_555
Bi2 S3 2.876542 1_555
Bi2 Pd2 3.235245 1_555
Bi2 Pd0 3.266572 1_655
Bi3 S3 2.649493 1_455
Bi3 S9 2.664051 1_445
Bi3 S7 2.705833 1_455
Bi3 S2 2.876542 1_555
Bi3 Pd3 3.235245 1_555
Bi3 Pd1 3.266572 1_545
Pd0 S6 2.342301 1_555
Pd0 S4 2.349069 1_455
Pd0 S8 2.372209 1_555
Pd0 S0 2.376228 1_455
Pd1 S7 2.342301 1_565
Pd1 S5 2.349069 1_555
Pd1 S9 2.372209 1_555
Pd1 S1 2.376228 1_555
Pd2 S4 2.342301 1_545
Pd2 S6 2.349069 1_655
Pd2 S10 2.372209 1_555
Pd2 S2 2.376228 1_655
Pd3 S5 2.342301 1_555
Pd3 S7 2.349069 1_555
Pd3 S11 2.372209 1_555
Pd3 S3 2.376228 1_555
