# generated using pymatgen
data_K6ScInTe6
_symmetry_space_group_name_H-M   'P 1'
_cell_length_a   8.51463500
_cell_length_b   8.78512400
_cell_length_c   17.81459600
_cell_angle_alpha   61.21691146
_cell_angle_beta   90.00000000
_cell_angle_gamma   90.00000000
_symmetry_Int_Tables_number   1
_chemical_formula_structural   K6ScInTe6
_chemical_formula_sum   'K12 Sc2 In2 Te12'
_cell_volume   1167.92909760
_cell_formula_units_Z   2
loop_
 _symmetry_equiv_pos_site_id
 _symmetry_equiv_pos_as_xyz
  1  'x, y, z'
loop_
 _atom_site_type_symbol
 _atom_site_label
 _atom_site_symmetry_multiplicity
 _atom_site_fract_x
 _atom_site_fract_y
 _atom_site_fract_z
 _atom_site_occupancy
  K  K0  1  0.02501509  0.93887713  0.28014120  1
  K  K1  1  0.52501509  0.06112287  0.21985880  1
  K  K2  1  0.97999082  0.05102408  0.72356677  1
  K  K3  1  0.47999082  0.94897592  0.77643323  1
  K  K4  1  0.98321715  0.72168658  0.11036101  1
  K  K5  1  0.48321715  0.27831342  0.38963899  1
  K  K6  1  0.01164682  0.27937331  0.88908919  1
  K  K7  1  0.51164682  0.72062669  0.61091081  1
  K  K8  1  0.98451178  0.30577253  0.40551362  1
  K  K9  1  0.48451178  0.69422747  0.09448638  1
  K  K10  1  0.01085449  0.68565273  0.59305739  1
  K  K11  1  0.51085449  0.31434727  0.90694261  1
  Sc  Sc0  1  0.63439969  0.65821664  0.42168686  1
  Sc  Sc1  1  0.13439969  0.34178336  0.07831314  1
  In  In0  1  0.36622417  0.33939201  0.58105235  1
  In  In1  1  0.86622417  0.66060799  0.91894765  1
  Te  Te0  1  0.80102906  0.34493028  0.06907652  1
  Te  Te1  1  0.30102906  0.65506972  0.43092348  1
  Te  Te2  1  0.20583659  0.64981468  0.92820424  1
  Te  Te3  1  0.70583659  0.35018532  0.57179576  1
  Te  Te4  1  0.22574831  0.34432334  0.22574971  1
  Te  Te5  1  0.72574831  0.65567666  0.27425029  1
  Te  Te6  1  0.77189659  0.65174079  0.77250330  1
  Te  Te7  1  0.27189659  0.34825921  0.72749670  1
  Te  Te8  1  0.74974997  0.94890216  0.42320546  1
  Te  Te9  1  0.24974997  0.05109784  0.07679454  1
  Te  Te10  1  0.24987949  0.05182313  0.57512848  1
  Te  Te11  1  0.74987949  0.94817687  0.92487152  1
loop_
_geom_bond_atom_site_label_1
_geom_bond_atom_site_label_2
_geom_bond_distance
_geom_bond_site_symmetry_2
K0 Te8 3.494674 1_455
K0 Te1 3.536321 1_555
K0 Te5 3.597972 1_455
K0 Te4 3.636432 1_565
K0 Sc1 3.750746 1_565
K0 Te9 3.783803 1_565
K1 Te9 3.494674 1_555
K1 Te0 3.536321 1_555
K1 Te4 3.597972 1_555
K1 Te5 3.636432 1_545
K1 Sc0 3.750746 1_545
K1 Te8 3.783803 1_545
K2 Te10 3.500811 1_655
K2 Te3 3.581012 1_555
K2 Te7 3.630032 1_655
K2 Te6 3.641285 1_545
K2 Te11 3.794149 1_545
K2 Te2 4.127637 1_645
K3 Te11 3.500811 1_555
K3 Te2 3.581012 1_555
K3 Te6 3.630032 1_555
K3 Te7 3.641285 1_565
K3 Te10 3.794149 1_565
K3 Te3 4.127637 1_565
K4 Te5 3.469295 1_555
K4 Te9 3.495169 1_665
K4 Te11 3.534682 1_554
K4 Te4 3.594154 1_655
K4 Te2 4.061419 1_654
K5 Te4 3.469295 1_555
K5 Te8 3.495169 1_545
K5 Te10 3.534682 1_555
K5 Te5 3.594154 1_555
K5 Te3 4.061419 1_555
K6 Te7 3.447592 1_555
K6 Te11 3.471863 1_445
K6 Te6 3.555203 1_455
K6 Te9 3.585501 1_556
K6 Te2 3.999275 1_555
K7 Te6 3.447592 1_555
K7 Te10 3.471863 1_565
K7 Te7 3.555203 1_555
K7 Te8 3.585501 1_555
K7 Te3 3.999275 1_555
K8 Te10 3.566673 1_655
K8 Te5 3.584638 1_555
K8 Te8 3.601750 1_545
K8 Te4 3.680333 1_655
K8 Te3 3.958589 1_555
K9 Te11 3.566673 1_554
K9 Te4 3.584638 1_555
K9 Te9 3.601750 1_565
K9 Te5 3.680333 1_555
K9 Te2 3.958589 1_554
K10 Te7 3.553265 1_555
K10 Te8 3.564836 1_455
K10 Te6 3.678401 1_455
K10 Te10 3.688199 1_565
K10 Te1 3.907246 1_555
K10 Te3 4.080315 1_455
K11 Te6 3.553265 1_555
K11 Te9 3.564836 1_556
K11 Te7 3.678401 1_555
K11 Te11 3.688199 1_545
K11 Te0 3.907246 1_556
K11 Te2 4.080315 1_555
Sc0 Te8 2.748333 1_555
Sc0 Te5 2.749642 1_555
Sc0 Te3 2.806290 1_555
Sc0 Te1 2.842659 1_555
Sc1 Te9 2.748333 1_555
Sc1 Te4 2.749642 1_555
Sc1 Te2 2.806290 1_554
Sc1 Te0 2.842659 1_455
In0 Te10 2.762529 1_555
In0 Te7 2.766393 1_555
In0 Te1 2.830102 1_555
In0 Te3 2.895326 1_555
In0 K3 3.649768 1_545
In1 Te11 2.762529 1_555
In1 Te6 2.766393 1_555
In1 Te0 2.830102 1_556
In1 Te2 2.895326 1_655
In1 K2 3.649768 1_565
