# generated using pymatgen
data_Zr6Ti6Ga10Rh7
_symmetry_space_group_name_H-M   'P 1'
_cell_length_a   8.80562081
_cell_length_b   8.76421171
_cell_length_c   8.76421207
_cell_angle_alpha   59.66875416
_cell_angle_beta   59.84357764
_cell_angle_gamma   59.84358043
_symmetry_Int_Tables_number   1
_chemical_formula_structural   Zr6Ti6Ga10Rh7
_chemical_formula_sum   'Zr6 Ti6 Ga10 Rh7'
_cell_volume   475.93318154
_cell_formula_units_Z   1
loop_
 _symmetry_equiv_pos_site_id
 _symmetry_equiv_pos_as_xyz
  1  'x, y, z'
loop_
 _atom_site_type_symbol
 _atom_site_label
 _atom_site_symmetry_multiplicity
 _atom_site_fract_x
 _atom_site_fract_y
 _atom_site_fract_z
 _atom_site_occupancy
  Zr  Zr0  1  0.68836119  0.69651445  0.30904902  1
  Zr  Zr1  1  0.30607634  0.69651445  0.30904902  1
  Zr  Zr2  1  0.69803529  0.30196471  0.30196471  1
  Zr  Zr3  1  0.30607634  0.30904902  0.69651445  1
  Zr  Zr4  1  0.68836119  0.30904902  0.69651445  1
  Zr  Zr5  1  0.30803772  0.69196228  0.69196228  1
  Ti  Ti0  1  0.87717923  0.88193138  0.36371217  1
  Ti  Ti1  1  0.87717923  0.36371217  0.88193138  1
  Ti  Ti2  1  0.36960538  0.87921145  0.87921145  1
  Ti  Ti3  1  0.87197371  0.87921145  0.87921145  1
  Ti  Ti4  1  0.12330649  0.12546355  0.62792246  1
  Ti  Ti5  1  0.12330649  0.62792246  0.12546355  1
  Ga  Ga0  1  0.64647124  0.11836651  0.11836651  1
  Ga  Ga1  1  0.11679575  0.11836651  0.11836651  1
  Ga  Ga2  1  0.65981055  0.65598818  0.02438973  1
  Ga  Ga3  1  0.65981055  0.02438973  0.65598818  1
  Ga  Ga4  1  0.01953695  0.65948116  0.65948116  1
  Ga  Ga5  1  0.66150074  0.65948116  0.65948116  1
  Ga  Ga6  1  0.33872555  0.33805221  0.98449770  1
  Ga  Ga7  1  0.33872555  0.98449770  0.33805221  1
  Ga  Ga8  1  0.97498123  0.34092957  0.34092957  1
  Ga  Ga9  1  0.34316163  0.34092957  0.34092957  1
  Rh  Rh0  1  0.01121851  0.98878149  0.98878149  1
  Rh  Rh1  1  0.99894738  0.99930465  0.50537315  1
  Rh  Rh2  1  0.49637482  0.99930465  0.50537315  1
  Rh  Rh3  1  0.99960982  0.50039018  0.50039018  1
  Rh  Rh4  1  0.49637482  0.50537315  0.99930465  1
  Rh  Rh5  1  0.99894738  0.50537315  0.99930465  1
  Rh  Rh6  1  0.50150995  0.99849005  0.99849005  1
loop_
_geom_bond_atom_site_label_1
_geom_bond_atom_site_label_2
_geom_bond_distance
_geom_bond_site_symmetry_2
Ti0 Ti5 3.051809 1_655
Ti0 Zr2 3.056805 1_565
Ti0 Zr1 3.152126 1_655
Ti0 Zr0 3.152133 1_555
Ti1 Ti4 3.051809 1_655
Ti1 Zr2 3.056805 1_556
Ti1 Zr3 3.152126 1_655
Ti1 Zr4 3.152133 1_555
Ti2 Zr3 3.123901 1_565
Ti2 Zr1 3.123901 1_556
Ti3 Zr0 3.123903 1_556
Ti3 Zr4 3.123903 1_565
Ti4 Zr4 3.176635 1_455
Ti4 Zr3 3.176650 1_555
Ti5 Zr0 3.176635 1_455
Ti5 Zr1 3.176650 1_555
Ga0 Rh0 2.620755 1_644
Ga0 Rh6 2.765267 1_544
Ga0 Rh4 2.765318 1_554
Ga0 Rh2 2.765318 1_545
Ga0 Ga7 2.845659 1_545
Ga0 Ga6 2.845659 1_554
Ga0 Ga9 2.849062 1_555
Ga0 Ti1 2.950213 1_554
Ga0 Ti0 2.950214 1_545
Ga0 Ti3 2.967025 1_544
Ga0 Zr2 3.076967 1_555
Ga0 Zr0 3.099497 1_545
Ga0 Zr4 3.099497 1_554
Ga1 Rh0 2.620755 1_544
Ga1 Rh6 2.765267 1_544
Ga1 Rh5 2.765318 1_454
Ga1 Rh1 2.765319 1_445
Ga1 Ga6 2.845667 1_554
Ga1 Ga7 2.845667 1_545
Ga1 Ga8 2.849066 1_455
Ga1 Ti0 2.950201 1_445
Ga1 Ti1 2.950201 1_454
Ga1 Ti2 2.967026 1_544
Ga1 Zr2 3.076967 1_455
Ga1 Zr3 3.099499 1_554
Ga1 Zr1 3.099499 1_545
Ga2 Rh4 2.526192 1_554
Ga2 Rh5 2.526200 1_554
Ga2 Rh6 2.535909 1_554
Ga2 Ti1 2.772554 1_554
Ga2 Ti2 2.776020 1_554
Ga2 Ti3 2.776041 1_554
Ga2 Zr2 2.794329 1_555
Ga2 Zr1 2.833418 1_555
Ga2 Zr0 2.833429 1_555
Ga3 Rh2 2.526192 1_545
Ga3 Rh1 2.526200 1_545
Ga3 Rh6 2.535909 1_545
Ga3 Ti0 2.772554 1_545
Ga3 Ti2 2.776020 1_545
Ga3 Ti3 2.776041 1_545
Ga3 Zr2 2.794329 1_555
Ga3 Zr3 2.833418 1_555
Ga3 Zr4 2.833428 1_555
Ga4 Rh1 2.523487 1_455
Ga4 Rh5 2.523487 1_455
Ga4 Rh3 2.524705 1_455
Ga4 Ti1 2.792276 1_455
Ga4 Ti0 2.792276 1_455
Ga4 Ti3 2.796945 1_455
Ga4 Zr1 2.816812 1_555
Ga4 Zr3 2.816812 1_555
Ga4 Zr5 2.854980 1_555
Ga5 Rh4 2.523487 1_555
Ga5 Rh2 2.523487 1_555
Ga5 Rh3 2.524704 1_555
Ga5 Ti0 2.792286 1_555
Ga5 Ti1 2.792286 1_555
Ga5 Ti2 2.796941 1_555
Ga5 Zr4 2.816809 1_555
Ga5 Zr0 2.816809 1_555
Ga5 Zr5 2.854980 1_555
Ga6 Rh6 2.539347 1_545
Ga6 Rh4 2.552039 1_555
Ga6 Rh5 2.552046 1_455
Ga6 Ti5 2.748135 1_556
Ga6 Zr4 2.822769 1_555
Ga6 Zr3 2.822769 1_555
Ga6 Zr5 2.844152 1_555
Ga7 Rh6 2.539347 1_554
Ga7 Rh2 2.552039 1_555
Ga7 Rh1 2.552046 1_455
Ga7 Ti4 2.748135 1_565
Ga7 Zr0 2.822769 1_555
Ga7 Zr1 2.822769 1_555
Ga7 Zr5 2.844152 1_555
Ga8 Rh1 2.529548 1_545
Ga8 Rh5 2.529548 1_554
Ga8 Rh3 2.556365 1_555
Ga8 Ti5 2.761125 1_655
Ga8 Ti4 2.761125 1_655
Ga8 Zr2 2.823413 1_555
Ga8 Zr4 2.843681 1_555
Ga8 Zr0 2.843681 1_555
Ga9 Rh4 2.529544 1_554
Ga9 Rh2 2.529544 1_545
Ga9 Rh3 2.556376 1_455
Ga9 Ti4 2.761140 1_555
Ga9 Ti5 2.761141 1_555
Ga9 Zr2 2.823395 1_555
Ga9 Zr1 2.843678 1_555
Ga9 Zr3 2.843678 1_555
Rh0 Ti5 2.576177 1_556
Rh0 Ti4 2.576177 1_565
Rh0 Ti3 2.577821 1_455
Rh0 Ti2 2.577836 1_555
Rh0 Ti1 2.678340 1_465
Rh0 Ti0 2.678340 1_456
Rh1 Ti3 2.666742 1_555
Rh1 Ti4 2.678229 1_665
Rh1 Ti0 2.735874 1_555
Rh1 Zr5 3.161432 1_655
Rh1 Zr1 3.168982 1_655
Rh1 Zr2 3.184871 1_565
Rh1 Zr4 3.191535 1_565
Rh2 Ti2 2.666742 1_555
Rh2 Ti4 2.678236 1_565
Rh2 Ti0 2.735888 1_555
Rh2 Zr5 3.161432 1_555
Rh2 Zr0 3.168980 1_555
Rh2 Zr2 3.184870 1_565
Rh2 Zr3 3.191536 1_565
Rh3 Ti4 2.674094 1_655
Rh3 Ti5 2.674094 1_655
Rh3 Ti0 2.721898 1_555
Rh3 Ti1 2.721898 1_555
Rh3 Zr4 3.201815 1_555
Rh3 Zr0 3.201816 1_555
Rh3 Zr1 3.201823 1_655
Rh3 Zr3 3.201823 1_655
Rh4 Ti2 2.666742 1_555
Rh4 Ti5 2.678236 1_556
Rh4 Ti1 2.735888 1_555
Rh4 Zr5 3.161432 1_555
Rh4 Zr4 3.168980 1_555
Rh4 Zr2 3.184871 1_556
Rh4 Zr1 3.191536 1_556
Rh5 Ti3 2.666742 1_555
Rh5 Ti5 2.678229 1_656
Rh5 Ti1 2.735874 1_555
Rh5 Zr5 3.161432 1_655
Rh5 Zr3 3.168982 1_655
Rh5 Zr2 3.184870 1_556
Rh5 Zr0 3.191535 1_556
Rh6 Ti2 2.660524 1_555
Rh6 Ti3 2.660539 1_555
Rh6 Zr1 3.157308 1_556
Rh6 Zr3 3.157308 1_565
Rh6 Zr4 3.157312 1_565
Rh6 Zr0 3.157312 1_556
