# generated using pymatgen
data_SrCr2(Sb6Os)2
_symmetry_space_group_name_H-M   'P 1'
_cell_length_a   8.18731899
_cell_length_b   8.21946097
_cell_length_c   8.18731849
_cell_angle_alpha   109.33888933
_cell_angle_beta   109.62798688
_cell_angle_gamma   109.28919845
_symmetry_Int_Tables_number   1
_chemical_formula_structural   SrCr2(Sb6Os)2
_chemical_formula_sum   'Sr1 Cr2 Sb12 Os2'
_cell_volume   424.95533296
_cell_formula_units_Z   1
loop_
 _symmetry_equiv_pos_site_id
 _symmetry_equiv_pos_as_xyz
  1  'x, y, z'
loop_
 _atom_site_type_symbol
 _atom_site_label
 _atom_site_symmetry_multiplicity
 _atom_site_fract_x
 _atom_site_fract_y
 _atom_site_fract_z
 _atom_site_occupancy
  Sr  Sr0  1  0.00000000  0.00000000  0.00000000  1
  Cr  Cr0  1  0.50000000  0.00000000  0.00000000  1
  Cr  Cr1  1  0.00000000  0.00000000  0.50000000  1
  Sb  Sb0  1  0.15698084  0.49478020  0.33779936  1
  Sb  Sb1  1  0.50183777  0.65156597  0.84018707  1
  Sb  Sb2  1  0.33711828  0.83999286  0.18813983  1
  Sb  Sb3  1  0.81137790  0.65156597  0.14972820  1
  Sb  Sb4  1  0.65185503  0.83999286  0.50287558  1
  Sb  Sb5  1  0.18862210  0.34843403  0.85027180  1
  Sb  Sb6  1  0.66288172  0.16000714  0.81186017  1
  Sb  Sb7  1  0.34814497  0.16000714  0.49712442  1
  Sb  Sb8  1  0.49816223  0.34843403  0.15981293  1
  Sb  Sb9  1  0.84301916  0.50521980  0.66220064  1
  Sb  Sb10  1  0.84872900  0.19654870  0.34781870  1
  Sb  Sb11  1  0.15127100  0.80345130  0.65218130  1
  Os  Os0  1  0.50000000  0.50000000  0.50000000  1
  Os  Os1  1  0.00000000  0.50000000  0.00000000  1
loop_
_geom_bond_atom_site_label_1
_geom_bond_atom_site_label_2
_geom_bond_distance
_geom_bond_site_symmetry_2
Cr0 Sb10 2.704535 1_555
Cr0 Sb11 2.704535 1_544
Cr0 Sb6 2.728337 1_554
Cr0 Sb2 2.728337 1_545
Cr0 Sb8 2.733902 1_555
Cr0 Sb1 2.733902 1_544
Cr1 Sb10 2.704544 1_455
Cr1 Sb11 2.704544 1_545
Cr1 Sb4 2.728327 1_445
Cr1 Sb7 2.728327 1_555
Cr1 Sb5 2.733901 1_555
Cr1 Sb3 2.733901 1_445
Sb0 Sb10 2.927452 1_455
Sb0 Sb11 2.983013 1_555
Sb0 Sr0 3.542489 1_555
Sb1 Sb3 2.920702 1_556
Sb1 Sb5 2.974579 1_555
Sb1 Sr0 3.572795 1_666
Sb2 Sb7 2.934129 1_565
Sb2 Sb4 2.969726 1_555
Sb2 Sr0 3.550240 1_565
Sb3 Sb8 2.974579 1_555
Sb3 Sr0 3.572797 1_665
Sb4 Sb6 2.934129 1_565
Sb4 Sr0 3.550229 1_666
Sb5 Sb8 2.920702 1_556
Sb5 Sr0 3.572797 1_556
Sb6 Sb7 2.969726 1_555
Sb6 Sr0 3.550240 1_656
Sb7 Sr0 3.550229 1_555
Sb8 Sr0 3.572795 1_555
Sb9 Sr0 3.542489 1_666
Sb10 Sb9 2.983013 1_555
Sb10 Sr0 3.591321 1_655
Sb11 Sb9 2.927452 1_455
Sb11 Sr0 3.591321 1_566
Os0 Sb1 2.640274 1_555
Os0 Sb8 2.640274 1_555
Os0 Sb7 2.645215 1_555
Os0 Sb4 2.645215 1_555
Os0 Sb0 2.651342 1_555
Os0 Sb9 2.651342 1_555
Os1 Sb3 2.640282 1_455
Os1 Sb5 2.640282 1_554
Os1 Sb2 2.645217 1_555
Os1 Sb6 2.645217 1_454
Os1 Sb0 2.651342 1_555
Os1 Sb9 2.651342 1_454
