# generated using pymatgen
data_BaAl5Ir2
_symmetry_space_group_name_H-M   'P 1'
_cell_length_a   6.87458610
_cell_length_b   6.87458548
_cell_length_c   6.87458580
_cell_angle_alpha   144.00408576
_cell_angle_beta   116.38234658
_cell_angle_gamma   75.32012897
_symmetry_Int_Tables_number   1
_chemical_formula_structural   BaAl5Ir2
_chemical_formula_sum   'Ba1 Al5 Ir2'
_cell_volume   167.55190245
_cell_formula_units_Z   1
loop_
 _symmetry_equiv_pos_site_id
 _symmetry_equiv_pos_as_xyz
  1  'x, y, z'
loop_
 _atom_site_type_symbol
 _atom_site_label
 _atom_site_symmetry_multiplicity
 _atom_site_fract_x
 _atom_site_fract_y
 _atom_site_fract_z
 _atom_site_occupancy
  Ba  Ba0  1  0.00000000  0.00000000  0.00000000  1
  Al  Al0  1  0.50193755  0.31465682  0.18728073  1
  Al  Al1  1  0.87262491  0.68534318  0.18728073  1
  Al  Al2  1  0.50000100  0.00000000  0.50000100  1
  Al  Al3  1  0.12737609  0.31465682  0.81271927  1
  Al  Al4  1  0.49806245  0.68534218  0.81271927  1
  Ir  Ir0  1  0.71466088  0.21465988  0.50000100  1
  Ir  Ir1  1  0.28533912  0.78533912  0.49999900  1
loop_
_geom_bond_atom_site_label_1
_geom_bond_atom_site_label_2
_geom_bond_distance
_geom_bond_site_symmetry_2
Ba0 Ir1 3.762689 1_555
Ba0 Ir1 3.762692 1_544
Ba0 Ir0 3.762695 1_444
Ba0 Ir0 3.762695 1_455
Al0 Ir0 2.514102 1_555
Al0 Ir1 2.540830 1_555
Al0 Ir1 2.540834 1_544
Al0 Ba0 3.684010 1_555
Al0 Ba0 3.703747 1_655
Al0 Ba0 3.703747 1_666
Al1 Ir1 2.514084 1_655
Al1 Ir0 2.540825 1_554
Al1 Ir0 2.540828 1_565
Al1 Ba0 3.684006 1_665
Al1 Ba0 3.703746 1_655
Al1 Ba0 3.703749 1_666
Al2 Ir0 2.336471 1_555
Al2 Ir1 2.336476 1_545
Al2 Ba0 3.623496 1_656
Al2 Ba0 3.623510 1_555
Al3 Ir0 2.514089 1_455
Al3 Ir1 2.540826 1_556
Al3 Ir1 2.540830 1_545
Al3 Ba0 3.684010 1_556
Al3 Ba0 3.703747 1_566
Al3 Ba0 3.703747 1_555
Al4 Ir1 2.514102 1_555
Al4 Ir0 2.540830 1_555
Al4 Ir0 2.540834 1_566
Al4 Ba0 3.684014 1_666
Al4 Ba0 3.703745 1_555
Al4 Ba0 3.703747 1_566
