# generated using pymatgen
data_SrBi3(Rh2O7)2
_symmetry_space_group_name_H-M   'P 1'
_cell_length_a   7.32240383
_cell_length_b   7.19357747
_cell_length_c   7.32240404
_cell_angle_alpha   59.40580025
_cell_angle_beta   59.99999905
_cell_angle_gamma   59.40579801
_symmetry_Int_Tables_number   1
_chemical_formula_structural   SrBi3(Rh2O7)2
_chemical_formula_sum   'Sr1 Bi3 Rh4 O14'
_cell_volume   270.25751989
_cell_formula_units_Z   1
loop_
 _symmetry_equiv_pos_site_id
 _symmetry_equiv_pos_as_xyz
  1  'x, y, z'
loop_
 _atom_site_type_symbol
 _atom_site_label
 _atom_site_symmetry_multiplicity
 _atom_site_fract_x
 _atom_site_fract_y
 _atom_site_fract_z
 _atom_site_occupancy
  Sr  Sr0  1  0.12500000  0.62500000  0.12500000  1
  Bi  Bi0  1  0.12500000  0.12500000  0.12500000  1
  Bi  Bi1  1  0.62500000  0.12500000  0.12500000  1
  Bi  Bi2  1  0.12500000  0.12500000  0.62500000  1
  Rh  Rh0  1  0.62500000  0.62500000  0.62500000  1
  Rh  Rh1  1  0.62500000  0.62500000  0.12500000  1
  Rh  Rh2  1  0.12500000  0.62500000  0.62500000  1
  Rh  Rh3  1  0.62500000  0.12500000  0.62500000  1
  O  O0  1  0.25848466  0.22454702  0.25848466  1
  O  O1  1  0.29508382  0.71267675  0.29508382  1
  O  O2  1  0.95434898  0.95853823  0.54355690  1
  O  O3  1  0.54355690  0.95853823  0.54355690  1
  O  O4  1  0.69715662  0.71267675  0.29508382  1
  O  O5  1  0.95491618  0.53732325  0.55284338  1
  O  O6  1  0.70644310  0.29146177  0.70644310  1
  O  O7  1  0.29565102  0.29146177  0.70644310  1
  O  O8  1  0.70644310  0.29146177  0.29565102  1
  O  O9  1  0.29508382  0.71267675  0.69715662  1
  O  O10  1  0.95491618  0.53732325  0.95491618  1
  O  O11  1  0.55284338  0.53732325  0.95491618  1
  O  O12  1  0.99151534  0.02545298  0.99151534  1
  O  O13  1  0.54355690  0.95853823  0.95434898  1
loop_
_geom_bond_atom_site_label_1
_geom_bond_atom_site_label_2
_geom_bond_distance
_geom_bond_site_symmetry_2
Bi0 O0 2.191766 1_555
Bi0 O12 2.191766 1_454
Bi0 O10 2.435263 1_454
Bi0 O1 2.435263 1_545
Bi0 O13 2.519170 1_544
Bi0 O8 2.519170 1_455
Bi0 O2 2.519170 1_445
Bi0 O7 2.519170 1_554
Bi1 O12 2.191760 1_554
Bi1 O0 2.191760 1_555
Bi1 O11 2.435262 1_554
Bi1 O4 2.435262 1_545
Bi1 O8 2.519165 1_555
Bi1 O13 2.519165 1_544
Bi1 O3 2.519171 1_545
Bi1 O6 2.519171 1_554
Bi2 O12 2.191760 1_455
Bi2 O0 2.191760 1_555
Bi2 O5 2.435262 1_455
Bi2 O9 2.435262 1_545
Bi2 O7 2.519165 1_555
Bi2 O2 2.519165 1_445
Bi2 O3 2.519171 1_545
Bi2 O6 2.519171 1_455
O0 Sr0 2.330727 1_555
O1 Rh1 2.006196 1_555
O1 Rh2 2.006196 1_555
O1 Sr0 2.578790 1_555
O2 Rh2 1.977561 1_655
O2 Rh3 1.988633 1_565
O3 Rh0 1.977563 1_555
O3 Rh3 1.988627 1_565
O4 Rh0 2.006195 1_555
O4 Rh1 2.006201 1_555
O4 Sr0 2.578784 1_655
O5 Rh0 2.006194 1_555
O5 Rh2 2.006201 1_655
O5 Sr0 2.578784 1_655
O6 Rh0 1.977563 1_555
O6 Rh3 1.988627 1_555
O7 Rh2 1.977561 1_555
O7 Rh3 1.988633 1_555
O8 Rh1 1.977561 1_555
O8 Rh3 1.988633 1_555
O9 Rh0 2.006194 1_555
O9 Rh2 2.006201 1_555
O9 Sr0 2.578784 1_556
O10 Rh1 2.006196 1_556
O10 Rh2 2.006196 1_655
O10 Sr0 2.578790 1_656
O11 Rh0 2.006195 1_555
O11 Rh1 2.006201 1_556
O11 Sr0 2.578784 1_556
O12 Sr0 2.330727 1_646
O13 Rh1 1.977561 1_556
O13 Rh3 1.988633 1_565
