# generated using pymatgen
data_CaIClO3
_symmetry_space_group_name_H-M   'P 1'
_cell_length_a   8.89238052
_cell_length_b   8.89238027
_cell_length_c   7.30249701
_cell_angle_alpha   90.00000000
_cell_angle_beta   90.00000000
_cell_angle_gamma   129.60703351
_symmetry_Int_Tables_number   1
_chemical_formula_structural   CaIClO3
_chemical_formula_sum   'Ca4 I4 Cl4 O12'
_cell_volume   444.88058205
_cell_formula_units_Z   4
loop_
 _symmetry_equiv_pos_site_id
 _symmetry_equiv_pos_as_xyz
  1  'x, y, z'
loop_
 _atom_site_type_symbol
 _atom_site_label
 _atom_site_symmetry_multiplicity
 _atom_site_fract_x
 _atom_site_fract_y
 _atom_site_fract_z
 _atom_site_occupancy
  Ca  Ca0  1  0.34542724  0.15457276  0.75000000  1
  Ca  Ca1  1  0.15457276  0.34542724  0.25000000  1
  Ca  Ca2  1  0.65457276  0.84542724  0.25000000  1
  Ca  Ca3  1  0.84542724  0.65457276  0.75000000  1
  I  I0  1  0.60216303  0.39783697  0.27837624  1
  I  I1  1  0.39783697  0.60216303  0.72162376  1
  I  I2  1  0.89783697  0.10216303  0.77837624  1
  I  I3  1  0.10216303  0.89783697  0.22162376  1
  Cl  Cl0  1  0.21054781  0.78945219  0.65959602  1
  Cl  Cl1  1  0.78945219  0.21054781  0.34040398  1
  Cl  Cl2  1  0.28945219  0.71054781  0.15959602  1
  Cl  Cl3  1  0.71054781  0.28945219  0.84040398  1
  O  O0  1  0.41462160  0.21710097  0.43619911  1
  O  O1  1  0.21710097  0.41462160  0.56380089  1
  O  O2  1  0.71710197  0.91462160  0.93619911  1
  O  O3  1  0.91462160  0.71710097  0.06380089  1
  O  O4  1  0.58537840  0.78289903  0.56380089  1
  O  O5  1  0.78289903  0.58537840  0.43619911  1
  O  O6  1  0.28289903  0.08537840  0.06380089  1
  O  O7  1  0.08537840  0.28289903  0.93619911  1
  O  O8  1  0.49158945  0.50841055  0.21912250  1
  O  O9  1  0.50841055  0.49158945  0.78087750  1
  O  O10  1  0.00841055  0.99158945  0.71912250  1
  O  O11  1  0.99158945  0.00841055  0.28087750  1
loop_
_geom_bond_atom_site_label_1
_geom_bond_atom_site_label_2
_geom_bond_distance
_geom_bond_site_symmetry_2
Ca0 O6 2.345773 1_556
Ca0 O0 2.345773 1_555
Ca0 O9 2.365297 1_555
Ca0 O10 2.365297 1_545
Ca0 Cl0 2.729614 1_545
Ca0 Cl3 2.729614 1_555
Ca1 O1 2.345773 1_555
Ca1 O7 2.345773 1_554
Ca1 O11 2.365297 1_455
Ca1 O8 2.365297 1_555
Ca1 Cl2 2.729614 1_555
Ca1 Cl1 2.729614 1_455
Ca2 O4 2.345773 1_555
Ca2 O2 2.345774 1_554
Ca2 O8 2.365297 1_555
Ca2 O11 2.365297 1_565
Ca2 Cl1 2.729614 1_565
Ca2 Cl2 2.729614 1_555
Ca3 O5 2.345773 1_555
Ca3 O3 2.345773 1_556
Ca3 O10 2.365297 1_655
Ca3 O9 2.365297 1_555
Ca3 Cl3 2.729614 1_555
Ca3 Cl0 2.729614 1_655
I0 O5 1.809700 1_555
I0 O0 1.809700 1_555
I0 O8 1.831270 1_555
I1 O1 1.809700 1_555
I1 O4 1.809700 1_555
I1 O9 1.831270 1_555
I2 O2 1.809697 1_545
I2 O7 1.809700 1_655
I2 O10 1.831270 1_645
I3 O6 1.809700 1_565
I3 O3 1.809700 1_455
I3 O11 1.831270 1_465
