# generated using pymatgen
data_Cs3RbPbI6
_symmetry_space_group_name_H-M   'P 1'
_cell_length_a   10.42440427
_cell_length_b   10.42440487
_cell_length_c   10.42440439
_cell_angle_alpha   90.30957117
_cell_angle_beta   90.30957281
_cell_angle_gamma   90.30957109
_symmetry_Int_Tables_number   1
_chemical_formula_structural   Cs3RbPbI6
_chemical_formula_sum   'Cs6 Rb2 Pb2 I12'
_cell_volume   1132.75158706
_cell_formula_units_Z   2
loop_
 _symmetry_equiv_pos_site_id
 _symmetry_equiv_pos_as_xyz
  1  'x, y, z'
loop_
 _atom_site_type_symbol
 _atom_site_label
 _atom_site_symmetry_multiplicity
 _atom_site_fract_x
 _atom_site_fract_y
 _atom_site_fract_z
 _atom_site_occupancy
  Cs  Cs0  1  0.25000000  0.62872889  0.87127111  1
  Cs  Cs1  1  0.87127111  0.25000000  0.62872889  1
  Cs  Cs2  1  0.62872889  0.87127111  0.25000000  1
  Cs  Cs3  1  0.75000000  0.37127111  0.12872889  1
  Cs  Cs4  1  0.12872889  0.75000000  0.37127111  1
  Cs  Cs5  1  0.37127111  0.12872889  0.75000000  1
  Rb  Rb0  1  0.25000000  0.25000000  0.25000000  1
  Rb  Rb1  1  0.75000000  0.75000000  0.75000000  1
  Pb  Pb0  1  0.00000000  0.00000000  0.00000000  1
  Pb  Pb1  1  0.50000000  0.50000000  0.50000000  1
  I  I0  1  0.55501005  0.20241374  0.42276127  1
  I  I1  1  0.42276127  0.55501005  0.20241374  1
  I  I2  1  0.20241374  0.42276127  0.55501005  1
  I  I3  1  0.94498995  0.07723873  0.29758626  1
  I  I4  1  0.29758626  0.94498995  0.07723873  1
  I  I5  1  0.07723873  0.29758626  0.94498995  1
  I  I6  1  0.44498995  0.79758626  0.57723873  1
  I  I7  1  0.57723873  0.44498995  0.79758626  1
  I  I8  1  0.79758626  0.57723873  0.44498995  1
  I  I9  1  0.05501005  0.92276127  0.70241374  1
  I  I10  1  0.92276127  0.70241374  0.05501005  1
  I  I11  1  0.70241374  0.05501005  0.92276127  1
loop_
_geom_bond_atom_site_label_1
_geom_bond_atom_site_label_2
_geom_bond_distance
_geom_bond_site_symmetry_2
Cs0 I2 3.952152 1_555
Cs0 I4 3.952152 1_556
Cs0 I1 3.965655 1_556
Cs0 I5 3.965655 1_555
Cs0 I10 3.997302 1_456
Cs0 I7 3.997302 1_555
Cs0 I9 4.088031 1_555
Cs0 I6 4.088031 1_555
Cs1 I0 3.952152 1_555
Cs1 I5 3.952152 1_655
Cs1 I2 3.965655 1_655
Cs1 I3 3.965655 1_555
Cs1 I9 3.997302 1_645
Cs1 I8 3.997302 1_555
Cs1 I7 4.088031 1_555
Cs1 I11 4.088031 1_555
Cs2 I3 3.952152 1_565
Cs2 I1 3.952152 1_555
Cs2 I4 3.965655 1_555
Cs2 I0 3.965655 1_565
Cs2 I6 3.997302 1_555
Cs2 I11 3.997302 1_564
Cs2 I10 4.088031 1_555
Cs2 I8 4.088031 1_555
Cs3 I8 3.952152 1_555
Cs3 I11 3.952152 1_554
Cs3 I7 3.965655 1_554
Cs3 I10 3.965655 1_555
Cs3 I5 3.997302 1_654
Cs3 I1 3.997302 1_555
Cs3 I3 4.088031 1_555
Cs3 I0 4.088031 1_555
Cs4 I6 3.952152 1_555
Cs4 I10 3.952152 1_455
Cs4 I8 3.965655 1_455
Cs4 I9 3.965655 1_555
Cs4 I3 3.997302 1_465
Cs4 I2 3.997302 1_555
Cs4 I1 4.088031 1_555
Cs4 I4 4.088031 1_555
Cs5 I9 3.952152 1_545
Cs5 I7 3.952152 1_555
Cs5 I11 3.965655 1_555
Cs5 I6 3.965655 1_545
Cs5 I0 3.997302 1_555
Cs5 I4 3.997302 1_546
Cs5 I5 4.088031 1_555
Cs5 I2 4.088031 1_555
I0 Pb1 3.255419 1_555
I0 Rb0 3.682904 1_555
I1 Pb1 3.255419 1_555
I1 Rb0 3.682904 1_555
I2 Pb1 3.255419 1_555
I2 Rb0 3.682904 1_555
I3 Pb0 3.255419 1_655
I3 Rb0 3.682904 1_655
I4 Pb0 3.255419 1_565
I4 Rb0 3.682904 1_565
I5 Pb0 3.255419 1_556
I5 Rb0 3.682904 1_556
I6 Pb1 3.255419 1_555
I6 Rb1 3.682904 1_555
I7 Pb1 3.255419 1_555
I7 Rb1 3.682904 1_555
I8 Pb1 3.255419 1_555
I8 Rb1 3.682904 1_555
I9 Pb0 3.255419 1_566
I9 Rb1 3.682904 1_455
I10 Pb0 3.255419 1_665
I10 Rb1 3.682904 1_554
I11 Pb0 3.255419 1_656
I11 Rb1 3.682904 1_545
