# generated using pymatgen
data_Ti2NbSnC2
_symmetry_space_group_name_H-M   'P 1'
_cell_length_a   3.18090299
_cell_length_b   3.18090435
_cell_length_c   18.88211335
_cell_angle_alpha   90.00000000
_cell_angle_beta   90.00000000
_cell_angle_gamma   119.99998588
_symmetry_Int_Tables_number   1
_chemical_formula_structural   Ti2NbSnC2
_chemical_formula_sum   'Ti4 Nb2 Sn2 C4'
_cell_volume   165.45592691
_cell_formula_units_Z   2
loop_
 _symmetry_equiv_pos_site_id
 _symmetry_equiv_pos_as_xyz
  1  'x, y, z'
loop_
 _atom_site_type_symbol
 _atom_site_label
 _atom_site_symmetry_multiplicity
 _atom_site_fract_x
 _atom_site_fract_y
 _atom_site_fract_z
 _atom_site_occupancy
  Ti  Ti0  1  0.33333300  0.66666700  0.12607633  1
  Ti  Ti1  1  0.33333300  0.66666700  0.37392367  1
  Ti  Ti2  1  0.66666700  0.33333300  0.62607633  1
  Ti  Ti3  1  0.66666700  0.33333300  0.87392367  1
  Nb  Nb0  1  0.00000000  0.00000000  0.00000000  1
  Nb  Nb1  1  0.00000000  0.00000000  0.50000000  1
  Sn  Sn0  1  0.00000000  0.00000000  0.25000000  1
  Sn  Sn1  1  0.00000000  0.00000000  0.75000000  1
  C  C0  1  0.33333300  0.66666700  0.92804786  1
  C  C1  1  0.66666700  0.33333300  0.07195214  1
  C  C2  1  0.66666700  0.33333300  0.42804786  1
  C  C3  1  0.33333300  0.66666700  0.57195214  1
loop_
_geom_bond_atom_site_label_1
_geom_bond_atom_site_label_2
_geom_bond_distance
_geom_bond_site_symmetry_2
Sn0 Ti1 2.974564 1_545
Sn0 Ti0 2.974564 1_545
Sn0 Ti1 2.974566 1_445
Sn0 Ti0 2.974566 1_445
Sn0 Ti1 2.974566 1_555
Sn0 Ti0 2.974566 1_555
Sn1 Ti3 2.974564 1_455
Sn1 Ti2 2.974564 1_455
Sn1 Ti3 2.974566 1_555
Sn1 Ti2 2.974566 1_555
Sn1 Ti3 2.974566 1_445
Sn1 Ti2 2.974566 1_445
C0 Ti3 2.101702 1_455
C0 Ti3 2.101702 1_565
C0 Ti3 2.101707 1_555
C0 Nb0 2.284409 1_566
C0 Nb0 2.284412 1_666
C0 Nb0 2.284412 1_556
C1 Ti0 2.101702 1_655
C1 Ti0 2.101702 1_545
C1 Ti0 2.101707 1_555
C1 Nb0 2.284409 1_655
C1 Nb0 2.284412 1_555
C1 Nb0 2.284412 1_665
C2 Ti1 2.101702 1_655
C2 Ti1 2.101702 1_545
C2 Ti1 2.101707 1_555
C2 Nb1 2.284409 1_655
C2 Nb1 2.284412 1_555
C2 Nb1 2.284412 1_665
C3 Ti2 2.101702 1_455
C3 Ti2 2.101702 1_565
C3 Ti2 2.101707 1_555
C3 Nb1 2.284409 1_565
C3 Nb1 2.284412 1_665
C3 Nb1 2.284412 1_555
