# generated using pymatgen
data_Ir6Pt(RhS6)2
_symmetry_space_group_name_H-M   'P 1'
_cell_length_a   7.55735153
_cell_length_b   7.56021435
_cell_length_c   6.30015247
_cell_angle_alpha   77.04565272
_cell_angle_beta   76.97921577
_cell_angle_gamma   91.70373165
_symmetry_Int_Tables_number   1
_chemical_formula_structural   Ir6Pt(RhS6)2
_chemical_formula_sum   'Ir6 Pt1 Rh2 S12'
_cell_volume   340.55690354
_cell_formula_units_Z   1
loop_
 _symmetry_equiv_pos_site_id
 _symmetry_equiv_pos_as_xyz
  1  'x, y, z'
loop_
 _atom_site_type_symbol
 _atom_site_label
 _atom_site_symmetry_multiplicity
 _atom_site_fract_x
 _atom_site_fract_y
 _atom_site_fract_z
 _atom_site_occupancy
  Ir  Ir0  1  0.16304451  0.83877501  0.99956336  1
  Ir  Ir1  1  0.83856610  0.16147853  0.99997933  1
  Ir  Ir2  1  0.00115381  0.00221968  0.49889011  1
  Ir  Ir3  1  0.34806637  0.34819902  0.94495858  1
  Ir  Ir4  1  0.65109759  0.64898192  0.05595688  1
  Ir  Ir5  1  0.50876050  0.21916043  0.54851616  1
  Pt  Pt0  1  0.77484630  0.48972757  0.45314192  1
  Rh  Rh0  1  0.22044310  0.51134047  0.54869584  1
  Rh  Rh1  1  0.48773818  0.77844290  0.45266184  1
  S  S0  1  0.85798574  0.43901090  0.09623314  1
  S  S1  1  0.56013952  0.14268344  0.89863667  1
  S  S2  1  0.14568551  0.56204798  0.89633795  1
  S  S3  1  0.43874611  0.85413456  0.10406838  1
  S  S4  1  0.11621330  0.11610264  0.10908689  1
  S  S5  1  0.88485351  0.88422375  0.89010322  1
  S  S6  1  0.03485158  0.71900434  0.38753221  1
  S  S7  1  0.28760819  0.97000363  0.61074490  1
  S  S8  1  0.97156172  0.28339495  0.61291210  1
  S  S9  1  0.57952215  0.58597687  0.73715906  1
  S  S10  1  0.41359986  0.41406745  0.26730295  1
  S  S11  1  0.71551435  0.03102097  0.38751750  1
loop_
_geom_bond_atom_site_label_1
_geom_bond_atom_site_label_2
_geom_bond_distance
_geom_bond_site_symmetry_2
Ir0 S3 2.329441 1_556
Ir0 S2 2.334359 1_555
Ir0 S4 2.362216 1_566
Ir0 S5 2.367212 1_455
Ir0 S6 2.370947 1_556
Ir0 S7 2.384707 1_555
Ir1 S0 2.320345 1_556
Ir1 S1 2.341716 1_555
Ir1 S4 2.362197 1_656
Ir1 S5 2.362257 1_545
Ir1 S8 2.374696 1_555
Ir1 S11 2.375167 1_556
Ir2 S4 2.360865 1_555
Ir2 S5 2.373711 1_445
Ir2 S8 2.392774 1_455
Ir2 S6 2.401474 1_545
Ir2 S11 2.416942 1_455
Ir2 S7 2.425753 1_545
Ir3 S2 2.276633 1_555
Ir3 S1 2.282230 1_555
Ir3 S4 2.325003 1_556
Ir3 S10 2.347223 1_556
Ir3 S9 2.393977 1_555
Ir4 S0 2.274794 1_555
Ir4 S3 2.283089 1_555
Ir4 S9 2.335942 1_554
Ir4 S5 2.350280 1_554
Ir4 S10 2.412867 1_555
Ir5 S1 2.275557 1_555
Ir5 S10 2.300880 1_555
Ir5 S11 2.357599 1_555
Ir5 S7 2.383634 1_545
Pt0 S0 2.315634 1_555
Pt0 S9 2.316826 1_555
Pt0 S8 2.401015 1_555
Pt0 S6 2.479262 1_655
Rh0 S2 2.257182 1_555
Rh0 S10 2.301484 1_555
Rh0 S6 2.349676 1_555
Rh0 S8 2.413089 1_455
Rh1 S3 2.259059 1_555
Rh1 S9 2.293894 1_555
Rh1 S7 2.339870 1_555
Rh1 S11 2.431621 1_565
S0 S2 2.302018 1_654
S1 S3 2.314245 1_546
