# generated using pymatgen
data_Ca6Al3Cd4Hg5
_symmetry_space_group_name_H-M   'P 1'
_cell_length_a   6.09187748
_cell_length_b   6.09187825
_cell_length_c   17.26563251
_cell_angle_alpha   77.44913727
_cell_angle_beta   77.44913454
_cell_angle_gamma   45.82018959
_symmetry_Int_Tables_number   1
_chemical_formula_structural   Ca6Al3Cd4Hg5
_chemical_formula_sum   'Ca6 Al3 Cd4 Hg5'
_cell_volume   446.54339300
_cell_formula_units_Z   1
loop_
 _symmetry_equiv_pos_site_id
 _symmetry_equiv_pos_as_xyz
  1  'x, y, z'
loop_
 _atom_site_type_symbol
 _atom_site_label
 _atom_site_symmetry_multiplicity
 _atom_site_fract_x
 _atom_site_fract_y
 _atom_site_fract_z
 _atom_site_occupancy
  Ca  Ca0  1  0.26940974  0.26940974  0.23936189  1
  Ca  Ca1  1  0.60490230  0.60490230  0.57080196  1
  Ca  Ca2  1  0.94198124  0.94198124  0.90135281  1
  Ca  Ca3  1  0.05778776  0.05778776  0.09753309  1
  Ca  Ca4  1  0.39077571  0.39077571  0.43045610  1
  Ca  Ca5  1  0.72441459  0.72441459  0.76370887  1
  Al  Al0  1  0.96243911  0.96243911  0.29536257  1
  Al  Al1  1  0.29713914  0.29713914  0.62843539  1
  Al  Al2  1  0.63231337  0.63231337  0.96235824  1
  Cd  Cd0  1  0.75707682  0.75707682  0.09350398  1
  Cd  Cd1  1  0.08806169  0.08806169  0.42609232  1
  Cd  Cd2  1  0.42218490  0.42218490  0.75818025  1
  Cd  Cd3  1  0.38641402  0.38641402  0.03878939  1
  Hg  Hg0  1  0.72511718  0.72511718  0.37621891  1
  Hg  Hg1  1  0.05945403  0.05945403  0.70778809  1
  Hg  Hg2  1  0.55852901  0.55852901  0.23645250  1
  Hg  Hg3  1  0.89273000  0.89273000  0.56976823  1
  Hg  Hg4  1  0.22927641  0.22927641  0.90383437  1
loop_
_geom_bond_atom_site_label_1
_geom_bond_atom_site_label_2
_geom_bond_distance
_geom_bond_site_symmetry_2
Ca0 Hg2 3.233206 1_555
Ca0 Hg0 3.301550 1_455
Ca0 Hg0 3.301551 1_545
Ca0 Hg2 3.359100 1_455
Ca0 Hg2 3.359100 1_545
Ca0 Cd1 3.382369 1_555
Ca0 Cd3 3.401635 1_555
Ca0 Cd0 3.485618 1_545
Ca0 Cd0 3.485618 1_455
Ca0 Ca3 3.792220 1_555
Ca0 Ca4 3.855040 1_555
Ca1 Hg3 3.226029 1_555
Ca1 Hg1 3.302853 1_565
Ca1 Hg1 3.302854 1_655
Ca1 Hg0 3.311867 1_555
Ca1 Hg3 3.363648 1_455
Ca1 Hg3 3.363648 1_545
Ca1 Cd2 3.397243 1_555
Ca1 Cd1 3.482094 1_655
Ca1 Cd1 3.482094 1_565
Ca1 Ca4 3.793935 1_555
Ca1 Ca5 3.872986 1_555
Ca2 Hg4 3.234593 1_665
Ca2 Hg1 3.290633 1_665
Ca2 Cd3 3.308385 1_566
Ca2 Cd3 3.308385 1_656
Ca2 Hg4 3.357950 1_565
Ca2 Hg4 3.357951 1_655
Ca2 Cd2 3.470307 1_655
Ca2 Cd2 3.470307 1_565
Ca2 Cd0 3.473380 1_556
Ca2 Ca5 3.787805 1_555
Ca2 Ca3 3.903737 1_666
Ca3 Cd0 3.249237 1_545
Ca3 Cd0 3.249237 1_455
Ca3 Cd3 3.357378 1_455
Ca3 Cd3 3.357379 1_545
Ca3 Hg2 3.374370 1_455
Ca3 Hg2 3.374370 1_545
Ca3 Cd0 3.391863 1_445
Ca3 Hg4 3.442615 1_554
Ca3 Cd3 3.586859 1_555
Ca4 Cd1 3.233114 1_655
Ca4 Cd1 3.233115 1_565
Ca4 Hg0 3.283087 1_455
Ca4 Hg0 3.283087 1_545
Ca4 Hg3 3.381543 1_455
Ca4 Hg3 3.381543 1_545
Ca4 Cd1 3.415817 1_555
Ca4 Hg2 3.433468 1_555
Ca4 Hg0 3.646650 1_555
Ca5 Cd2 3.234085 1_655
Ca5 Cd2 3.234086 1_565
Ca5 Hg1 3.290412 1_565
Ca5 Hg1 3.290413 1_655
Ca5 Hg4 3.397422 1_565
Ca5 Hg4 3.397423 1_655
Ca5 Cd2 3.415601 1_555
Ca5 Hg3 3.434562 1_555
Al0 Hg0 2.699662 1_555
Al0 Hg2 2.702565 1_655
Al0 Hg2 2.702565 1_565
Al0 Cd1 2.929791 1_665
Al0 Ca4 3.290303 1_565
Al0 Ca4 3.290303 1_655
Al0 Ca3 3.329742 1_665
Al0 Ca0 3.351334 1_665
Al0 Ca0 3.498566 1_565
Al0 Ca0 3.498566 1_655
Al1 Hg1 2.695938 1_555
Al1 Hg3 2.699649 1_545
Al1 Hg3 2.699649 1_455
Al1 Cd2 2.910470 1_555
Al1 Ca5 3.293264 1_455
Al1 Ca5 3.293265 1_545
Al1 Ca4 3.330734 1_555
Al1 Ca1 3.361266 1_555
Al1 Ca1 3.504491 1_455
Al1 Ca1 3.504491 1_545
Al2 Hg4 2.703754 1_655
Al2 Hg4 2.703754 1_565
Al2 Cd3 2.763837 1_556
Al2 Cd0 2.929767 1_556
Al2 Ca3 3.293848 1_566
Al2 Ca3 3.293849 1_656
Al2 Ca5 3.340546 1_555
Al2 Ca2 3.385259 1_555
Al2 Ca2 3.515334 1_455
Al2 Ca2 3.515335 1_545
Cd0 Cd3 2.824226 1_655
Cd0 Cd3 2.824226 1_565
Cd0 Hg2 2.908899 1_555
Cd1 Hg0 2.847161 1_545
Cd1 Hg0 2.847162 1_455
Cd1 Hg3 2.897126 1_445
Cd2 Hg1 2.849865 1_655
Cd2 Hg1 2.849866 1_565
Cd2 Hg4 2.905582 1_555
Cd3 Hg4 3.236980 1_554
Hg0 Hg2 3.383382 1_555
Hg1 Hg3 3.359087 1_445
