# generated using pymatgen
data_Cs6InSe4Br
_symmetry_space_group_name_H-M   'P 1'
_cell_length_a   11.48057641
_cell_length_b   11.48057776
_cell_length_c   8.63938582
_cell_angle_alpha   90.00000000
_cell_angle_beta   90.00000000
_cell_angle_gamma   120.00000447
_symmetry_Int_Tables_number   1
_chemical_formula_structural   Cs6InSe4Br
_chemical_formula_sum   'Cs12 In2 Se8 Br2'
_cell_volume   986.14532246
_cell_formula_units_Z   2
loop_
 _symmetry_equiv_pos_site_id
 _symmetry_equiv_pos_as_xyz
  1  'x, y, z'
loop_
 _atom_site_type_symbol
 _atom_site_label
 _atom_site_symmetry_multiplicity
 _atom_site_fract_x
 _atom_site_fract_y
 _atom_site_fract_z
 _atom_site_occupancy
  Cs  Cs0  1  0.13938213  0.86061787  0.51236891  1
  Cs  Cs1  1  0.72123273  0.86061787  0.51236891  1
  Cs  Cs2  1  0.94371384  0.47185642  0.31978511  1
  Cs  Cs3  1  0.52814358  0.47185642  0.31978511  1
  Cs  Cs4  1  0.86061787  0.72123273  0.01236891  1
  Cs  Cs5  1  0.27876727  0.13938213  0.01236891  1
  Cs  Cs6  1  0.52814358  0.05628616  0.31978511  1
  Cs  Cs7  1  0.13938213  0.27876727  0.51236891  1
  Cs  Cs8  1  0.86061787  0.13938213  0.01236891  1
  Cs  Cs9  1  0.05628616  0.52814358  0.81978511  1
  Cs  Cs10  1  0.47185642  0.94371384  0.81978511  1
  Cs  Cs11  1  0.47185642  0.52814358  0.81978511  1
  In  In0  1  0.66666700  0.33333300  0.71105330  1
  In  In1  1  0.33333300  0.66666700  0.21105330  1
  Se  Se0  1  0.41651645  0.20825822  0.61530757  1
  Se  Se1  1  0.58348355  0.79174178  0.11530757  1
  Se  Se2  1  0.66666700  0.33333300  0.01895252  1
  Se  Se3  1  0.79174178  0.58348355  0.61530757  1
  Se  Se4  1  0.20825822  0.41651645  0.11530757  1
  Se  Se5  1  0.33333300  0.66666700  0.51895252  1
  Se  Se6  1  0.20825822  0.79174178  0.11530757  1
  Se  Se7  1  0.79174178  0.20825822  0.61530757  1
  Br  Br0  1  0.00000000  0.00000000  0.26821140  1
  Br  Br1  1  0.00000000  0.00000000  0.76821140  1
loop_
_geom_bond_atom_site_label_1
_geom_bond_atom_site_label_2
_geom_bond_distance
_geom_bond_site_symmetry_2
Cs0 Se6 3.693671 1_555
Cs0 Se3 3.760914 1_455
Cs0 Se0 3.760915 1_565
Cs0 Se5 3.857121 1_555
Cs1 Se1 3.693660 1_555
Cs1 Se7 3.760904 1_565
Cs1 Se3 3.760937 1_555
Cs1 Se5 3.857101 1_555
Cs2 Se7 3.666171 1_555
Cs2 Se3 3.666177 1_555
Cs2 Se2 3.787121 1_555
Cs2 Se4 3.831199 1_655
Cs2 Se6 3.831205 1_655
Cs3 Se3 3.666170 1_555
Cs3 Se0 3.666170 1_555
Cs3 Se2 3.787121 1_555
Cs3 Se4 3.831209 1_555
Cs3 Se1 3.831209 1_555
Cs4 Se3 3.693660 1_554
Cs4 Se6 3.760904 1_655
Cs4 Se1 3.760937 1_555
Cs4 Se2 3.857101 1_555
Cs5 Se0 3.693660 1_554
Cs5 Se6 3.760904 1_545
Cs5 Se4 3.760937 1_555
Cs5 Se2 3.857101 1_555
Cs6 Se7 3.666170 1_555
Cs6 Se0 3.666177 1_555
Cs6 Se2 3.787121 1_555
Cs6 Se1 3.831199 1_545
Cs6 Se6 3.831205 1_545
Cs7 Se4 3.693660 1_555
Cs7 Se7 3.760904 1_455
Cs7 Se0 3.760937 1_555
Cs7 Se5 3.857101 1_555
Cs8 Se7 3.693671 1_554
Cs8 Se4 3.760914 1_655
Cs8 Se1 3.760915 1_545
Cs8 Se2 3.857121 1_555
Cs9 Se6 3.666171 1_556
Cs9 Se4 3.666177 1_556
Cs9 Se5 3.787121 1_555
Cs9 Se3 3.831199 1_455
Cs9 Se7 3.831205 1_455
Cs10 Se6 3.666170 1_556
Cs10 Se1 3.666177 1_556
Cs10 Se5 3.787121 1_555
Cs10 Se0 3.831199 1_565
Cs10 Se7 3.831205 1_565
Cs11 Se4 3.666170 1_556
Cs11 Se1 3.666170 1_556
Cs11 Se5 3.787121 1_555
Cs11 Se3 3.831209 1_555
Cs11 Se0 3.831209 1_555
In0 Se7 2.621054 1_555
In0 Se0 2.621063 1_555
In0 Se3 2.621063 1_555
In0 Se2 2.660060 1_556
In1 Se6 2.621054 1_555
In1 Se1 2.621063 1_555
In1 Se4 2.621063 1_555
In1 Se5 2.660060 1_555
Br0 Cs0 3.482994 1_545
Br0 Cs1 3.483017 1_445
Br0 Cs7 3.483017 1_555
Br0 Cs8 3.545042 1_455
Br0 Cs5 3.545065 1_555
Br0 Cs4 3.545065 1_445
Br1 Cs8 3.482994 1_456
Br1 Cs5 3.483017 1_556
Br1 Cs4 3.483017 1_446
Br1 Cs0 3.545042 1_545
Br1 Cs1 3.545065 1_445
Br1 Cs7 3.545065 1_555
