# generated using pymatgen
data_KSb12Ru3Pt
_symmetry_space_group_name_H-M   'P 1'
_cell_length_a   8.12173677
_cell_length_b   8.12173653
_cell_length_c   8.12129856
_cell_angle_alpha   109.47013069
_cell_angle_beta   109.47013010
_cell_angle_gamma   109.47231174
_symmetry_Int_Tables_number   1
_chemical_formula_structural   KSb12Ru3Pt
_chemical_formula_sum   'K1 Sb12 Ru3 Pt1'
_cell_volume   412.38915009
_cell_formula_units_Z   1
loop_
 _symmetry_equiv_pos_site_id
 _symmetry_equiv_pos_as_xyz
  1  'x, y, z'
loop_
 _atom_site_type_symbol
 _atom_site_label
 _atom_site_symmetry_multiplicity
 _atom_site_fract_x
 _atom_site_fract_y
 _atom_site_fract_z
 _atom_site_occupancy
  K  K0  1  0.00000000  0.00000000  0.00000000  1
  Sb  Sb0  1  0.64920953  0.84021119  0.49878253  1
  Sb  Sb1  1  0.35079047  0.15978881  0.50121747  1
  Sb  Sb2  1  0.84021119  0.19100166  0.34142867  1
  Sb  Sb3  1  0.80899834  0.64920953  0.15042700  1
  Sb  Sb4  1  0.84142900  0.50083257  0.65902445  1
  Sb  Sb5  1  0.19100166  0.35079047  0.84957300  1
  Sb  Sb6  1  0.15978881  0.80899834  0.65857133  1
  Sb  Sb7  1  0.50083257  0.65940357  0.84180812  1
  Sb  Sb8  1  0.49916743  0.34059643  0.15819188  1
  Sb  Sb9  1  0.15857100  0.49916743  0.34097555  1
  Sb  Sb10  1  0.34059643  0.84142900  0.18240555  1
  Sb  Sb11  1  0.65940357  0.15857100  0.81759445  1
  Ru  Ru0  1  0.50000000  0.50000000  0.50000000  1
  Ru  Ru1  1  0.50000000  0.00000000  0.00000000  1
  Ru  Ru2  1  0.00000000  0.50000000  0.00000000  1
  Pt  Pt0  1  0.00000000  0.00000000  0.50000000  1
loop_
_geom_bond_atom_site_label_1
_geom_bond_atom_site_label_2
_geom_bond_distance
_geom_bond_site_symmetry_2
K0 Sb9 3.524252 1_555
K0 Sb4 3.524252 1_444
K0 Sb8 3.524252 1_555
K0 Sb7 3.524252 1_444
K0 Sb10 3.524254 1_545
K0 Sb11 3.524254 1_454
K0 Sb1 3.557088 1_555
K0 Sb0 3.557088 1_444
K0 Sb2 3.557088 1_455
K0 Sb6 3.557088 1_544
K0 Sb5 3.557088 1_554
K0 Sb3 3.557088 1_445
Sb0 Sb10 2.936763 1_555
Sb0 Sb11 2.940692 1_565
Sb1 Sb11 2.936763 1_555
Sb1 Sb10 2.940692 1_545
Sb2 Sb4 2.936768 1_555
Sb2 Sb9 2.940696 1_655
Sb3 Sb8 2.936768 1_555
Sb3 Sb7 2.940696 1_554
Sb4 Sb6 2.940696 1_655
Sb5 Sb7 2.936768 1_555
Sb5 Sb8 2.940696 1_556
Sb6 Sb9 2.936768 1_555
Ru0 Sb0 2.626251 1_555
Ru0 Sb1 2.626251 1_555
Ru0 Sb9 2.636621 1_555
Ru0 Sb4 2.636621 1_555
Ru0 Sb7 2.639658 1_555
Ru0 Sb8 2.639658 1_555
Ru1 Sb2 2.626251 1_555
Ru1 Sb6 2.626251 1_544
Ru1 Sb8 2.636621 1_555
Ru1 Sb7 2.636621 1_544
Ru1 Sb11 2.639665 1_554
Ru1 Sb10 2.639665 1_545
Ru2 Sb5 2.626251 1_554
Ru2 Sb3 2.626251 1_455
Ru2 Sb10 2.636620 1_555
Ru2 Sb11 2.636620 1_454
Ru2 Sb4 2.639658 1_454
Ru2 Sb9 2.639658 1_555
Pt0 Sb5 2.703492 1_555
Pt0 Sb3 2.703492 1_445
Pt0 Sb6 2.703492 1_545
Pt0 Sb2 2.703492 1_455
Pt0 Sb1 2.703493 1_555
Pt0 Sb0 2.703493 1_445
