# generated using pymatgen
data_Co6Tc(NiS4)2
_symmetry_space_group_name_H-M   'P 1'
_cell_length_a   6.94884892
_cell_length_b   6.94884832
_cell_length_c   6.94884849
_cell_angle_alpha   90.03761730
_cell_angle_beta   60.15907600
_cell_angle_gamma   120.20285348
_symmetry_Int_Tables_number   1
_chemical_formula_structural   Co6Tc(NiS4)2
_chemical_formula_sum   'Co6 Tc1 Ni2 S8'
_cell_volume   237.17794238
_cell_formula_units_Z   1
loop_
 _symmetry_equiv_pos_site_id
 _symmetry_equiv_pos_as_xyz
  1  'x, y, z'
loop_
 _atom_site_type_symbol
 _atom_site_label
 _atom_site_symmetry_multiplicity
 _atom_site_fract_x
 _atom_site_fract_y
 _atom_site_fract_z
 _atom_site_occupancy
  Co  Co0  1  0.75039690  0.62524977  0.12514713  1
  Co  Co1  1  0.24960310  0.12445797  0.12514713  1
  Co  Co2  1  0.74903790  0.87464043  0.37632067  1
  Co  Co3  1  0.25096210  0.87464043  0.87439747  1
  Co  Co4  1  0.25097725  0.37677594  0.87420431  1
  Co  Co5  1  0.74902275  0.87481844  0.87420431  1
  Tc  Tc0  1  1.00000000  0.49852559  0.50147441  1
  Ni  Ni0  1  0.25401077  0.12651658  0.61947165  1
  Ni  Ni1  1  0.74598923  0.12651658  0.12749319  1
  S  S0  1  0.52024935  0.26001165  0.74448297  1
  S  S1  1  0.99550438  0.73526668  0.74448297  1
  S  S2  1  1.00000000  0.26019786  0.73980214  1
  S  S3  1  0.47975065  0.73526668  0.26023769  1
  S  S4  1  0.00449562  0.26001165  0.26023769  1
  S  S5  1  0.00000000  0.73975781  0.26024219  1
  S  S6  1  0.50000000  0.25603405  0.24396595  1
  S  S7  1  0.50000000  0.75131086  0.74868914  1
loop_
_geom_bond_atom_site_label_1
_geom_bond_atom_site_label_2
_geom_bond_distance
_geom_bond_site_symmetry_2
Co0 S6 2.091232 1_555
Co0 S3 2.165939 1_555
Co0 S1 2.165944 1_554
Co0 S5 2.180271 1_655
Co1 S6 2.091232 1_555
Co1 S4 2.165927 1_555
Co1 S0 2.165944 1_554
Co1 S5 2.180282 1_545
Co2 S7 2.116369 1_555
Co2 S3 2.183558 1_555
Co2 S4 2.183563 1_665
Co2 S5 2.194072 1_655
Co3 S7 2.116363 1_555
Co3 S0 2.183563 1_565
Co3 S1 2.183569 1_455
Co3 S5 2.194072 1_556
Co4 S7 2.120933 1_555
Co4 S2 2.183700 1_455
Co4 S4 2.195432 1_556
Co4 S0 2.195450 1_555
Co5 S7 2.120950 1_555
Co5 S2 2.183700 1_565
Co5 S3 2.195433 1_556
Co5 S1 2.195433 1_555
Ni0 S6 2.134699 1_555
Ni0 S2 2.203967 1_455
Ni0 S1 2.215726 1_445
Ni0 S0 2.215727 1_555
Ni1 S6 2.134705 1_555
Ni1 S2 2.203961 1_554
Ni1 S3 2.215726 1_545
Ni1 S4 2.215732 1_655
S0 Tc0 2.356759 1_555
S1 Tc0 2.356754 1_555
S2 Tc0 2.342852 1_555
S3 Tc0 2.356759 1_455
S4 Tc0 2.356759 1_455
S5 Tc0 2.371405 1_455
