# generated using pymatgen
data_HfSc2SnC2
_symmetry_space_group_name_H-M   'P 1'
_cell_length_a   3.33384681
_cell_length_b   3.33384760
_cell_length_c   20.25619394
_cell_angle_alpha   90.00000000
_cell_angle_beta   90.00000000
_cell_angle_gamma   119.99999220
_symmetry_Int_Tables_number   1
_chemical_formula_structural   HfSc2SnC2
_chemical_formula_sum   'Hf2 Sc4 Sn2 C4'
_cell_volume   194.97543395
_cell_formula_units_Z   2
loop_
 _symmetry_equiv_pos_site_id
 _symmetry_equiv_pos_as_xyz
  1  'x, y, z'
loop_
 _atom_site_type_symbol
 _atom_site_label
 _atom_site_symmetry_multiplicity
 _atom_site_fract_x
 _atom_site_fract_y
 _atom_site_fract_z
 _atom_site_occupancy
  Hf  Hf0  1  0.00000000  0.00000000  0.00000000  1
  Hf  Hf1  1  0.00000000  0.00000000  0.50000000  1
  Sc  Sc0  1  0.33333300  0.66666700  0.12583643  1
  Sc  Sc1  1  0.33333300  0.66666700  0.37416357  1
  Sc  Sc2  1  0.66666700  0.33333300  0.62583643  1
  Sc  Sc3  1  0.66666700  0.33333300  0.87416357  1
  Sn  Sn0  1  0.00000000  0.00000000  0.25000000  1
  Sn  Sn1  1  0.00000000  0.00000000  0.75000000  1
  C  C0  1  0.33333300  0.66666700  0.93332149  1
  C  C1  1  0.66666700  0.33333300  0.06667851  1
  C  C2  1  0.66666700  0.33333300  0.43332149  1
  C  C3  1  0.33333300  0.66666700  0.56667851  1
loop_
_geom_bond_atom_site_label_1
_geom_bond_atom_site_label_2
_geom_bond_distance
_geom_bond_site_symmetry_2
Sc0 Sn0 3.167092 1_565
Sc0 Sn0 3.167094 1_665
Sc0 Sn0 3.167094 1_555
Sc1 Sn0 3.167092 1_565
Sc1 Sn0 3.167094 1_665
Sc1 Sn0 3.167094 1_555
Sc2 Sn1 3.167092 1_655
Sc2 Sn1 3.167094 1_555
Sc2 Sn1 3.167094 1_665
Sc3 Sn1 3.167092 1_655
Sc3 Sn1 3.167094 1_555
Sc3 Sn1 3.167094 1_665
C0 Sc3 2.267332 1_455
C0 Sc3 2.267333 1_565
C0 Sc3 2.267337 1_555
C0 Hf0 2.351404 1_566
C0 Hf0 2.351406 1_666
C0 Hf0 2.351407 1_556
C1 Sc0 2.267332 1_655
C1 Sc0 2.267333 1_545
C1 Sc0 2.267337 1_555
C1 Hf0 2.351404 1_655
C1 Hf0 2.351406 1_555
C1 Hf0 2.351407 1_665
C2 Sc1 2.267332 1_655
C2 Sc1 2.267333 1_545
C2 Sc1 2.267337 1_555
C2 Hf1 2.351404 1_655
C2 Hf1 2.351406 1_555
C2 Hf1 2.351407 1_665
C3 Sc2 2.267332 1_455
C3 Sc2 2.267333 1_565
C3 Sc2 2.267337 1_555
C3 Hf1 2.351404 1_565
C3 Hf1 2.351406 1_665
C3 Hf1 2.351407 1_555
