# generated using pymatgen
data_Rb10Cd4Sn4S17
_symmetry_space_group_name_H-M   'P 1'
_cell_length_a   10.44825725
_cell_length_b   10.44825730
_cell_length_c   10.44825905
_cell_angle_alpha   89.40145649
_cell_angle_beta   89.40145453
_cell_angle_gamma   89.40145259
_symmetry_Int_Tables_number   1
_chemical_formula_structural   Rb10Cd4Sn4S17
_chemical_formula_sum   'Rb10 Cd4 Sn4 S17'
_cell_volume   1140.41006385
_cell_formula_units_Z   1
loop_
 _symmetry_equiv_pos_site_id
 _symmetry_equiv_pos_as_xyz
  1  'x, y, z'
loop_
 _atom_site_type_symbol
 _atom_site_label
 _atom_site_symmetry_multiplicity
 _atom_site_fract_x
 _atom_site_fract_y
 _atom_site_fract_z
 _atom_site_occupancy
  Rb  Rb0  1  0.00021843  0.00021843  0.49930071  1
  Rb  Rb1  1  0.49930071  0.00021843  0.00021843  1
  Rb  Rb2  1  0.00021843  0.49930071  0.00021843  1
  Rb  Rb3  1  0.49808230  0.95905349  0.49808230  1
  Rb  Rb4  1  0.49808230  0.49808230  0.95905349  1
  Rb  Rb5  1  0.95905349  0.49808230  0.49808230  1
  Rb  Rb6  1  0.65846085  0.32935381  0.32935381  1
  Rb  Rb7  1  0.32935381  0.65846085  0.32935381  1
  Rb  Rb8  1  0.32935381  0.32935381  0.65846085  1
  Rb  Rb9  1  0.67450094  0.67450094  0.67450094  1
  Cd  Cd0  1  0.86252442  0.13618090  0.13618090  1
  Cd  Cd1  1  0.13618090  0.86252442  0.13618090  1
  Cd  Cd2  1  0.13618090  0.13618090  0.86252442  1
  Cd  Cd3  1  0.86441694  0.86441694  0.86441694  1
  Sn  Sn0  1  0.22323034  0.22323034  0.22323034  1
  Sn  Sn1  1  0.22742009  0.77371259  0.77371259  1
  Sn  Sn2  1  0.77371259  0.77371259  0.22742009  1
  Sn  Sn3  1  0.77371259  0.22742009  0.77371259  1
  S  S0  1  0.99921055  0.99921055  0.99921055  1
  S  S1  1  0.35139541  0.35139541  0.35139541  1
  S  S2  1  0.36531081  0.64674742  0.64674742  1
  S  S3  1  0.64674742  0.64674742  0.36531081  1
  S  S4  1  0.64674742  0.36531081  0.64674742  1
  S  S5  1  0.27443601  0.00161038  0.27443601  1
  S  S6  1  0.27443601  0.27443601  0.00161038  1
  S  S7  1  0.00161038  0.27443601  0.27443601  1
  S  S8  1  0.27593052  0.99468638  0.72211757  1
  S  S9  1  0.27593052  0.72211757  0.99468638  1
  S  S10  1  0.00720520  0.72361149  0.72361149  1
  S  S11  1  0.72211757  0.99468638  0.27593052  1
  S  S12  1  0.72361149  0.72361149  0.00720520  1
  S  S13  1  0.99468638  0.72211757  0.27593052  1
  S  S14  1  0.72361149  0.00720520  0.72361149  1
  S  S15  1  0.72211757  0.27593052  0.99468638  1
  S  S16  1  0.99468638  0.27593052  0.72211757  1
loop_
_geom_bond_atom_site_label_1
_geom_bond_atom_site_label_2
_geom_bond_distance
_geom_bond_site_symmetry_2
Rb0 S5 3.686244 1_555
Rb0 S7 3.686244 1_555
Rb0 S14 3.702453 1_455
Rb0 S10 3.702453 1_545
Rb0 S16 3.722294 1_455
Rb0 S8 3.722294 1_545
Rb0 S13 3.747135 1_445
Rb0 S11 3.747135 1_445
Rb1 S6 3.686244 1_555
Rb1 S5 3.686244 1_555
Rb1 S12 3.702453 1_545
Rb1 S14 3.702453 1_554
Rb1 S15 3.722294 1_554
Rb1 S11 3.722294 1_545
Rb1 S9 3.747135 1_544
Rb1 S8 3.747136 1_544
Rb2 S6 3.686244 1_555
Rb2 S7 3.686244 1_555
Rb2 S12 3.702453 1_455
Rb2 S10 3.702454 1_554
Rb2 S9 3.722294 1_554
Rb2 S13 3.722294 1_455
Rb2 S15 3.747135 1_454
Rb2 S16 3.747136 1_454
Rb3 S8 3.300302 1_555
Rb3 S11 3.300302 1_555
Rb3 S5 3.344972 1_565
Rb3 S14 3.394669 1_565
Rb4 S9 3.300301 1_555
Rb4 S15 3.300301 1_555
Rb4 S6 3.344972 1_556
Rb4 S12 3.394669 1_556
Rb5 S16 3.300302 1_555
Rb5 S13 3.300302 1_555
Rb5 S7 3.344972 1_655
Rb5 S10 3.394669 1_655
Rb6 S1 3.220169 1_555
Rb6 S3 3.342149 1_555
Rb6 S4 3.342149 1_555
Rb6 S11 3.600723 1_545
Rb6 S15 3.600724 1_554
Rb6 S7 3.665226 1_655
Rb7 S1 3.220169 1_555
Rb7 S3 3.342149 1_555
Rb7 S2 3.342149 1_555
Rb7 S13 3.600723 1_455
Rb7 S9 3.600724 1_554
Rb7 S5 3.665226 1_565
Rb8 S1 3.220169 1_555
Rb8 S4 3.342149 1_555
Rb8 S2 3.342149 1_555
Rb8 S16 3.600723 1_455
Rb8 S8 3.600723 1_545
Rb8 S6 3.665226 1_556
Rb9 S2 3.262697 1_555
Rb9 S4 3.262697 1_555
Rb9 S3 3.262697 1_555
Rb9 S10 3.562365 1_655
Rb9 S14 3.562365 1_565
Rb9 S12 3.562365 1_556
Cd0 S0 2.468411 1_544
Cd0 S7 2.533066 1_655
Cd0 S15 2.534790 1_554
Cd0 S11 2.534790 1_545
Cd0 Rb6 3.549425 1_555
Cd1 S0 2.468411 1_454
Cd1 S5 2.533066 1_565
Cd1 S9 2.534790 1_554
Cd1 S13 2.534790 1_455
Cd1 Rb7 3.549425 1_555
Cd2 S0 2.468411 1_445
Cd2 S6 2.533066 1_556
Cd2 S8 2.534790 1_545
Cd2 S16 2.534790 1_455
Cd2 Rb8 3.549425 1_555
Cd3 S0 2.464699 1_555
Cd3 S10 2.551065 1_655
Cd3 S14 2.551065 1_565
Cd3 S12 2.551065 1_556
Cd3 Rb9 3.472611 1_555
S1 Sn0 2.343496 1_555
S2 Sn1 2.356294 1_555
S3 Sn2 2.356294 1_555
S4 Sn3 2.356294 1_555
S5 Sn0 2.426607 1_555
S6 Sn0 2.426608 1_555
S7 Sn0 2.426607 1_555
S8 Sn1 2.422964 1_555
S9 Sn1 2.422964 1_555
S10 Sn1 2.428592 1_555
S11 Sn2 2.422964 1_555
S12 Sn2 2.428592 1_555
S13 Sn2 2.422964 1_555
S14 Sn3 2.428592 1_555
S15 Sn3 2.422964 1_555
S16 Sn3 2.422964 1_555
