# generated using pymatgen
data_Al4Hg11(SbBr4)4
_symmetry_space_group_name_H-M   'P 1'
_cell_length_a   7.99633995
_cell_length_b   7.99634008
_cell_length_c   24.27423144
_cell_angle_alpha   84.08877297
_cell_angle_beta   84.08877382
_cell_angle_gamma   59.49211171
_symmetry_Int_Tables_number   1
_chemical_formula_structural   Al4Hg11(SbBr4)4
_chemical_formula_sum   'Al4 Hg11 Sb4 Br16'
_cell_volume   1327.81076086
_cell_formula_units_Z   1
loop_
 _symmetry_equiv_pos_site_id
 _symmetry_equiv_pos_as_xyz
  1  'x, y, z'
loop_
 _atom_site_type_symbol
 _atom_site_label
 _atom_site_symmetry_multiplicity
 _atom_site_fract_x
 _atom_site_fract_y
 _atom_site_fract_z
 _atom_site_occupancy
  Al  Al0  1  0.63442733  0.63442733  0.12452157  1
  Al  Al1  1  0.36557267  0.36557267  0.87547843  1
  Al  Al2  1  0.74951215  0.74951215  0.61964878  1
  Al  Al3  1  0.25048785  0.25048785  0.38035122  1
  Hg  Hg0  1  0.03285513  0.03285513  0.89003858  1
  Hg  Hg1  1  0.77112666  0.77112666  0.28320424  1
  Hg  Hg2  1  0.47382391  0.47382391  0.55383052  1
  Hg  Hg3  1  0.72745461  0.23114110  0.72209827  1
  Hg  Hg4  1  0.27254539  0.76885890  0.27790173  1
  Hg  Hg5  1  0.76885890  0.27254539  0.27790173  1
  Hg  Hg6  1  0.23114110  0.72745461  0.72209827  1
  Hg  Hg7  1  0.52617609  0.52617609  0.44616948  1
  Hg  Hg8  1  0.96714487  0.96714487  0.10996142  1
  Hg  Hg9  1  0.00000000  0.00000000  0.00000000  1
  Hg  Hg10  1  0.22887334  0.22887334  0.71679576  1
  Sb  Sb0  1  0.94547340  0.94547340  0.22442598  1
  Sb  Sb1  1  0.05452660  0.05452660  0.77557402  1
  Sb  Sb2  1  0.59088584  0.59088584  0.33572800  1
  Sb  Sb3  1  0.40911416  0.40911416  0.66427200  1
  Br  Br0  1  0.53143516  0.06006663  0.83954954  1
  Br  Br1  1  0.08824753  0.08824753  0.41443496  1
  Br  Br2  1  0.52930622  0.52930622  0.84140351  1
  Br  Br3  1  0.43315154  0.90934968  0.59189009  1
  Br  Br4  1  0.73678989  0.73678989  0.71569483  1
  Br  Br5  1  0.34395087  0.34395087  0.97004346  1
  Br  Br6  1  0.46856484  0.93993337  0.16045046  1
  Br  Br7  1  0.93993337  0.46856484  0.16045046  1
  Br  Br8  1  0.47069378  0.47069378  0.15859649  1
  Br  Br9  1  0.56684846  0.09065032  0.40810991  1
  Br  Br10  1  0.65604913  0.65604913  0.02995654  1
  Br  Br11  1  0.90934968  0.43315154  0.59189009  1
  Br  Br12  1  0.26321011  0.26321011  0.28430517  1
  Br  Br13  1  0.09065032  0.56684846  0.40810991  1
  Br  Br14  1  0.91175247  0.91175247  0.58556504  1
  Br  Br15  1  0.06006663  0.53143516  0.83954954  1
loop_
_geom_bond_atom_site_label_1
_geom_bond_atom_site_label_2
_geom_bond_distance
_geom_bond_site_symmetry_2
Al0 Br10 2.279458 1_555
Al0 Br7 2.323475 1_555
Al0 Br6 2.323475 1_555
Al0 Br8 2.325264 1_555
Al1 Br5 2.279458 1_555
Al1 Br15 2.323475 1_555
Al1 Br0 2.323475 1_555
Al1 Br2 2.325264 1_555
Al2 Br14 2.305930 1_555
Al2 Br4 2.317139 1_555
Al2 Br3 2.319061 1_555
Al2 Br11 2.319062 1_555
Al3 Br1 2.305930 1_555
Al3 Br12 2.317139 1_555
Al3 Br9 2.319061 1_555
Al3 Br13 2.319062 1_555
Hg0 Hg9 2.654058 1_556
Hg0 Sb1 2.759072 1_555
Hg1 Sb0 2.660250 1_555
Hg1 Sb2 2.670605 1_555
Hg2 Hg7 2.628220 1_555
Hg2 Sb3 2.724520 1_555
Hg3 Sb1 2.662935 1_655
Hg3 Sb3 2.668687 1_555
Hg4 Sb0 2.662935 1_455
Hg4 Sb2 2.668687 1_555
Hg5 Sb0 2.662935 1_545
Hg5 Sb2 2.668687 1_555
Hg6 Sb1 2.662935 1_565
Hg6 Sb3 2.668687 1_555
Hg7 Sb2 2.724520 1_555
Hg8 Hg9 2.654058 1_665
Hg8 Sb0 2.759072 1_555
Hg10 Sb1 2.660250 1_555
Hg10 Sb3 2.670605 1_555
