# generated using pymatgen
data_Cs3K5(HfSe4)2
_symmetry_space_group_name_H-M   'P 1'
_cell_length_a   8.39834273
_cell_length_b   10.58555280
_cell_length_c   15.94530053
_cell_angle_alpha   90.00000000
_cell_angle_beta   90.00000000
_cell_angle_gamma   90.00000000
_symmetry_Int_Tables_number   1
_chemical_formula_structural   Cs3K5(HfSe4)2
_chemical_formula_sum   'Cs6 K10 Hf4 Se16'
_cell_volume   1417.55476309
_cell_formula_units_Z   2
loop_
 _symmetry_equiv_pos_site_id
 _symmetry_equiv_pos_as_xyz
  1  'x, y, z'
loop_
 _atom_site_type_symbol
 _atom_site_label
 _atom_site_symmetry_multiplicity
 _atom_site_fract_x
 _atom_site_fract_y
 _atom_site_fract_z
 _atom_site_occupancy
  Cs  Cs0  1  0.00223498  0.99834372  0.99923689  1
  Cs  Cs1  1  0.50223498  0.00165628  0.50076311  1
  Cs  Cs2  1  0.00223498  0.50165628  0.99923689  1
  Cs  Cs3  1  0.50223498  0.49834372  0.50076311  1
  Cs  Cs4  1  0.99179074  0.75000000  0.43057606  1
  Cs  Cs5  1  0.49179074  0.25000000  0.06942394  1
  K  K0  1  0.02787742  0.25000000  0.56664070  1
  K  K1  1  0.52787742  0.75000000  0.93335930  1
  K  K2  1  0.82752040  0.05539663  0.26850312  1
  K  K3  1  0.32752040  0.94460337  0.23149688  1
  K  K4  1  0.17158558  0.55818375  0.73232223  1
  K  K5  1  0.67158558  0.44181625  0.76767777  1
  K  K6  1  0.17158558  0.94181625  0.73232223  1
  K  K7  1  0.67158558  0.05818375  0.76767777  1
  K  K8  1  0.82752040  0.44460337  0.26850312  1
  K  K9  1  0.32752040  0.55539663  0.23149688  1
  Hf  Hf0  1  0.77251526  0.75000000  0.67832415  1
  Hf  Hf1  1  0.22429418  0.25000000  0.32368218  1
  Hf  Hf2  1  0.72429418  0.75000000  0.17631782  1
  Hf  Hf3  1  0.27251526  0.25000000  0.82167585  1
  Se  Se0  1  0.97415647  0.25000000  0.81896046  1
  Se  Se1  1  0.52305766  0.25000000  0.31560366  1
  Se  Se2  1  0.47415647  0.75000000  0.68103954  1
  Se  Se3  1  0.02305766  0.75000000  0.18439634  1
  Se  Se4  1  0.62922458  0.55991956  0.10004381  1
  Se  Se5  1  0.12922458  0.44008044  0.39995619  1
  Se  Se6  1  0.36993351  0.05466018  0.89363280  1
  Se  Se7  1  0.86993351  0.94533982  0.60636720  1
  Se  Se8  1  0.36993351  0.44533982  0.89363280  1
  Se  Se9  1  0.86993351  0.55466018  0.60636720  1
  Se  Se10  1  0.62922458  0.94008044  0.10004381  1
  Se  Se11  1  0.12922458  0.05991956  0.39995619  1
  Se  Se12  1  0.60474481  0.75000000  0.32174773  1
  Se  Se13  1  0.10474481  0.25000000  0.17825227  1
  Se  Se14  1  0.38056636  0.25000000  0.67405717  1
  Se  Se15  1  0.88056636  0.75000000  0.82594283  1
loop_
_geom_bond_atom_site_label_1
_geom_bond_atom_site_label_2
_geom_bond_distance
_geom_bond_site_symmetry_2
Cs0 Se6 3.567488 1_565
Cs0 Se10 3.574594 1_456
Cs0 Se0 3.926218 1_465
Cs0 Se15 3.948469 1_455
Cs0 Se3 3.957053 1_556
Cs0 Se13 3.998194 1_566
Cs1 Se7 3.567488 1_545
Cs1 Se11 3.574594 1_555
Cs1 Se2 3.926218 1_545
Cs1 Se14 3.948469 1_555
Cs1 Se1 3.957053 1_555
Cs1 Se12 3.998194 1_545
Cs2 Se8 3.567488 1_555
Cs2 Se4 3.574594 1_456
Cs2 Se0 3.926218 1_455
Cs2 Se15 3.948469 1_455
Cs2 Se3 3.957053 1_556
Cs2 Se13 3.998194 1_556
Cs3 Se9 3.567488 1_555
Cs3 Se5 3.574594 1_555
Cs3 Se2 3.926218 1_555
Cs3 Se14 3.948469 1_555
Cs3 Se1 3.957053 1_555
Cs3 Se12 3.998194 1_555
Cs4 Se11 3.511893 1_665
Cs4 Se5 3.511893 1_655
Cs4 Se7 3.630442 1_555
Cs4 Se9 3.630442 1_555
Cs4 Se12 3.684740 1_555
Cs4 Se3 3.934183 1_655
Cs5 Se4 3.511893 1_555
Cs5 Se10 3.511893 1_545
Cs5 Se8 3.630442 1_554
Cs5 Se6 3.630442 1_554
Cs5 Se13 3.684740 1_555
Cs5 Se1 3.934183 1_555
K0 Se14 3.421564 1_555
K0 Se5 3.440510 1_555
K0 Se11 3.440510 1_555
K0 Se9 3.544203 1_455
K0 Se7 3.544203 1_445
K1 Se15 3.421564 1_555
K1 Se10 3.440510 1_556
K1 Se4 3.440510 1_556
K1 Se6 3.544203 1_565
K1 Se8 3.544203 1_555
K2 Se11 3.288765 1_655
K2 Se1 3.368344 1_555
K2 Se10 3.388038 1_545
K2 Se13 3.425655 1_655
K2 Se3 3.866044 1_645
K3 Se10 3.288765 1_555
K3 Se3 3.368344 1_555
K3 Se11 3.388038 1_565
K3 Se12 3.425655 1_555
K3 Se1 3.866044 1_565
K4 Se9 3.233114 1_455
K4 Se8 3.289023 1_555
K4 Se2 3.353904 1_555
K4 Se15 3.510677 1_455
K4 Se14 3.819170 1_555
K5 Se8 3.233114 1_555
K5 Se9 3.289023 1_555
K5 Se0 3.353904 1_555
K5 Se14 3.510677 1_555
K5 Se15 3.819170 1_555
K6 Se7 3.233114 1_455
K6 Se6 3.289023 1_565
K6 Se2 3.353904 1_555
K6 Se15 3.510677 1_455
K6 Se14 3.819170 1_565
K7 Se6 3.233114 1_555
K7 Se7 3.289023 1_545
K7 Se0 3.353904 1_555
K7 Se14 3.510677 1_555
K7 Se15 3.819170 1_545
K8 Se5 3.288765 1_655
K8 Se1 3.368344 1_555
K8 Se4 3.388038 1_555
K8 Se13 3.425655 1_655
K8 Se3 3.866044 1_655
K9 Se4 3.288765 1_555
K9 Se3 3.368344 1_555
K9 Se5 3.388038 1_555
K9 Se12 3.425655 1_555
K9 Se1 3.866044 1_555
Hf0 Se7 2.502310 1_555
Hf0 Se9 2.502310 1_555
Hf0 Se2 2.506093 1_555
Hf0 Se15 2.522688 1_555
Hf1 Se5 2.482988 1_555
Hf1 Se11 2.482988 1_555
Hf1 Se1 2.512422 1_555
Hf1 Se13 2.526946 1_555
Hf2 Se10 2.482988 1_555
Hf2 Se4 2.482988 1_555
Hf2 Se3 2.512422 1_655
Hf2 Se12 2.526946 1_555
Hf3 Se8 2.502310 1_555
Hf3 Se6 2.502310 1_555
Hf3 Se0 2.506093 1_455
Hf3 Se14 2.522688 1_555
