# generated using pymatgen
data_CsCaPbF7
_symmetry_space_group_name_H-M   'P 1'
_cell_length_a   6.71861068
_cell_length_b   6.71861137
_cell_length_c   8.74591159
_cell_angle_alpha   90.00000000
_cell_angle_beta   90.00000000
_cell_angle_gamma   117.68389466
_symmetry_Int_Tables_number   1
_chemical_formula_structural   CsCaPbF7
_chemical_formula_sum   'Cs2 Ca2 Pb2 F14'
_cell_volume   349.59445848
_cell_formula_units_Z   2
loop_
 _symmetry_equiv_pos_site_id
 _symmetry_equiv_pos_as_xyz
  1  'x, y, z'
loop_
 _atom_site_type_symbol
 _atom_site_label
 _atom_site_symmetry_multiplicity
 _atom_site_fract_x
 _atom_site_fract_y
 _atom_site_fract_z
 _atom_site_occupancy
  Cs  Cs0  1  0.00000000  0.00000000  0.00000000  1
  Cs  Cs1  1  0.00000000  0.00000000  0.50000000  1
  Ca  Ca0  1  0.31007062  0.68992938  0.75000000  1
  Ca  Ca1  1  0.68992938  0.31007062  0.25000000  1
  Pb  Pb0  1  0.69280707  0.30719293  0.75000000  1
  Pb  Pb1  1  0.30719293  0.69280707  0.25000000  1
  F  F0  1  0.50858045  0.49141955  0.75000000  1
  F  F1  1  0.49141955  0.50858045  0.25000000  1
  F  F2  1  0.69963239  0.30036761  0.98966001  1
  F  F3  1  0.30036761  0.69963239  0.01033999  1
  F  F4  1  0.30036761  0.69963239  0.48966001  1
  F  F5  1  0.69963239  0.30036761  0.51033999  1
  F  F6  1  0.66864694  0.97387829  0.75000000  1
  F  F7  1  0.33135306  0.02612171  0.25000000  1
  F  F8  1  0.02612171  0.33135306  0.75000000  1
  F  F9  1  0.97387829  0.66864694  0.25000000  1
  F  F10  1  0.34501900  0.05650751  0.75000000  1
  F  F11  1  0.65498100  0.94349249  0.25000000  1
  F  F12  1  0.94349249  0.65498100  0.75000000  1
  F  F13  1  0.05650751  0.34501900  0.25000000  1
loop_
_geom_bond_atom_site_label_1
_geom_bond_atom_site_label_2
_geom_bond_distance
_geom_bond_site_symmetry_2
Cs0 F7 3.066685 1_555
Cs0 F6 3.066685 1_444
Cs0 F8 3.066685 1_554
Cs0 F9 3.066685 1_445
Cs0 F10 3.079032 1_554
Cs0 F11 3.079032 1_445
Cs0 F13 3.079032 1_555
Cs0 F12 3.079032 1_444
Cs0 F2 3.455055 1_454
Cs0 F3 3.455055 1_545
Cs1 F7 3.066685 1_555
Cs1 F6 3.066685 1_445
Cs1 F8 3.066685 1_555
Cs1 F9 3.066685 1_445
Cs1 F10 3.079032 1_555
Cs1 F11 3.079032 1_445
Cs1 F13 3.079032 1_555
Cs1 F12 3.079032 1_445
Cs1 F5 3.455055 1_455
Cs1 F4 3.455055 1_545
Ca0 F6 2.274393 1_555
Ca0 F8 2.274393 1_555
Ca0 F3 2.279643 1_556
Ca0 F4 2.279643 1_555
Ca0 F0 2.282627 1_555
Ca0 F12 2.362973 1_455
Ca0 F10 2.362973 1_565
Ca1 F7 2.274393 1_555
Ca1 F9 2.274393 1_555
Ca1 F5 2.279643 1_555
Ca1 F2 2.279643 1_554
Ca1 F1 2.282627 1_555
Ca1 F13 2.362973 1_655
Ca1 F11 2.362973 1_545
F0 Pb0 2.118387 1_555
F1 Pb1 2.118387 1_555
F2 Pb0 2.097514 1_555
F3 Pb1 2.097514 1_555
F4 Pb1 2.097514 1_555
F5 Pb0 2.097514 1_555
F6 Pb0 2.168766 1_565
F7 Pb1 2.168766 1_545
F8 Pb0 2.168766 1_455
F9 Pb1 2.168766 1_655
F10 Pb0 2.154027 1_555
F11 Pb1 2.154027 1_555
F12 Pb0 2.154027 1_555
F13 Pb1 2.154027 1_555
