# generated using pymatgen
data_Hf16Pt3Rh5O4
_symmetry_space_group_name_H-M   'P 1'
_cell_length_a   8.69739881
_cell_length_b   8.69739794
_cell_length_c   8.69739886
_cell_angle_alpha   59.99396964
_cell_angle_beta   59.99397219
_cell_angle_gamma   59.99396505
_symmetry_Int_Tables_number   1
_chemical_formula_structural   Hf16Pt3Rh5O4
_chemical_formula_sum   'Hf16 Pt3 Rh5 O4'
_cell_volume   465.15074880
_cell_formula_units_Z   1
loop_
 _symmetry_equiv_pos_site_id
 _symmetry_equiv_pos_as_xyz
  1  'x, y, z'
loop_
 _atom_site_type_symbol
 _atom_site_label
 _atom_site_symmetry_multiplicity
 _atom_site_fract_x
 _atom_site_fract_y
 _atom_site_fract_z
 _atom_site_occupancy
  Hf  Hf0  1  0.11634433  0.62677286  0.62677286  1
  Hf  Hf1  1  0.62677286  0.11634433  0.62677286  1
  Hf  Hf2  1  0.62677286  0.62677286  0.11634433  1
  Hf  Hf3  1  0.62968405  0.62968405  0.62968405  1
  Hf  Hf4  1  0.81548502  0.81548502  0.18394683  1
  Hf  Hf5  1  0.18383587  0.18383587  0.81565074  1
  Hf  Hf6  1  0.81548502  0.18394683  0.81548502  1
  Hf  Hf7  1  0.18383587  0.81565074  0.18383587  1
  Hf  Hf8  1  0.18394683  0.81548502  0.81548502  1
  Hf  Hf9  1  0.81565074  0.18383587  0.18383587  1
  Hf  Hf10  1  0.43477544  0.43477544  0.06853669  1
  Hf  Hf11  1  0.06461279  0.06461279  0.43538752  1
  Hf  Hf12  1  0.43477544  0.06853669  0.43477544  1
  Hf  Hf13  1  0.06461279  0.43538752  0.06461279  1
  Hf  Hf14  1  0.06853669  0.43477544  0.43477544  1
  Hf  Hf15  1  0.43538752  0.06461279  0.06461279  1
  Pt  Pt0  1  0.78355669  0.40594097  0.40594097  1
  Pt  Pt1  1  0.40594097  0.78355669  0.40594097  1
  Pt  Pt2  1  0.40594097  0.40594097  0.78355669  1
  Rh  Rh0  1  0.40450072  0.40450072  0.40450072  1
  Rh  Rh1  1  0.45996627  0.84731230  0.84731230  1
  Rh  Rh2  1  0.84731230  0.45996627  0.84731230  1
  Rh  Rh3  1  0.84731230  0.84731230  0.45996627  1
  Rh  Rh4  1  0.84555746  0.84555746  0.84555746  1
  O  O0  1  0.62464867  0.12465937  0.12465937  1
  O  O1  1  0.12465937  0.62464867  0.12465937  1
  O  O2  1  0.12465937  0.12465937  0.62464867  1
  O  O3  1  0.12542679  0.12542679  0.12542679  1
loop_
_geom_bond_atom_site_label_1
_geom_bond_atom_site_label_2
_geom_bond_distance
_geom_bond_site_symmetry_2
Hf0 Rh3 2.716983 1_455
Hf0 Rh2 2.716983 1_455
Hf0 Rh4 2.728611 1_455
Hf0 Rh0 2.793154 1_555
Hf0 Pt2 2.805278 1_555
Hf0 Pt1 2.805278 1_555
Hf1 Rh3 2.716983 1_545
Hf1 Rh1 2.716983 1_545
Hf1 Rh4 2.728611 1_545
Hf1 Rh0 2.793154 1_555
Hf1 Pt2 2.805277 1_555
Hf1 Pt0 2.805278 1_555
Hf2 Rh1 2.716983 1_554
Hf2 Rh2 2.716983 1_554
Hf2 Rh4 2.728611 1_554
Hf2 Rh0 2.793154 1_555
Hf2 Pt0 2.805278 1_555
Hf2 Pt1 2.805278 1_555
Hf3 Rh1 2.708994 1_555
Hf3 Rh2 2.708995 1_555
Hf3 Rh3 2.708995 1_555
Hf3 Pt0 2.818284 1_555
Hf3 Pt1 2.818284 1_555
Hf3 Pt2 2.818284 1_555
Hf4 O0 2.292760 1_565
Hf4 O1 2.292760 1_655
Hf4 Rh3 2.705981 1_555
Hf4 Rh4 2.706897 1_554
Hf4 Pt0 3.172863 1_555
Hf4 Pt1 3.172864 1_555
Hf5 O2 2.294495 1_555
Hf5 O3 2.301159 1_556
Hf5 Rh1 2.689799 1_545
Hf5 Rh2 2.689799 1_455
Hf5 Rh0 3.179567 1_555
Hf5 Pt2 3.192928 1_555
Hf6 O2 2.292760 1_655
Hf6 O0 2.292760 1_556
Hf6 Rh2 2.705980 1_555
Hf6 Rh4 2.706896 1_545
Hf6 Pt2 3.172863 1_555
Hf6 Pt0 3.172864 1_555
Hf7 O1 2.294495 1_555
Hf7 O3 2.301158 1_565
Hf7 Rh3 2.689800 1_455
Hf7 Rh1 2.689800 1_554
Hf7 Rh0 3.179566 1_555
Hf7 Pt1 3.192928 1_555
Hf8 O2 2.292760 1_565
Hf8 O1 2.292760 1_556
Hf8 Rh1 2.705981 1_555
Hf8 Rh4 2.706897 1_455
Hf8 Pt2 3.172863 1_555
Hf8 Pt1 3.172864 1_555
Hf9 O0 2.294495 1_555
Hf9 O3 2.301159 1_655
Hf9 Rh3 2.689800 1_545
Hf9 Rh2 2.689800 1_554
Hf9 Rh0 3.179567 1_555
Hf9 Pt0 3.192928 1_555
Hf10 O0 2.296682 1_555
Hf10 O1 2.296682 1_555
Hf10 Rh0 2.684603 1_555
Hf10 Pt2 2.752359 1_554
Hf10 Rh1 3.175465 1_554
Hf10 Rh2 3.175466 1_554
Hf11 O2 2.290742 1_555
Hf11 O3 2.292298 1_555
Hf11 Pt0 2.731586 1_455
Hf11 Pt1 2.731586 1_545
Hf11 Rh3 3.154979 1_445
Hf11 Rh4 3.165558 1_445
Hf12 O2 2.296682 1_555
Hf12 O0 2.296682 1_555
Hf12 Rh0 2.684603 1_555
Hf12 Pt1 2.752359 1_545
Hf12 Rh3 3.175465 1_545
Hf12 Rh1 3.175466 1_545
Hf13 O1 2.290742 1_555
Hf13 O3 2.292298 1_555
Hf13 Pt2 2.731587 1_554
Hf13 Pt0 2.731587 1_455
Hf13 Rh2 3.154979 1_454
Hf13 Rh4 3.165557 1_454
Hf14 O2 2.296682 1_555
Hf14 O1 2.296682 1_555
Hf14 Rh0 2.684603 1_555
Hf14 Pt0 2.752359 1_455
Hf14 Rh3 3.175465 1_455
Hf14 Rh2 3.175466 1_455
Hf15 O0 2.290742 1_555
Hf15 O3 2.292298 1_555
Hf15 Pt2 2.731586 1_554
Hf15 Pt1 2.731587 1_545
Hf15 Rh1 3.154978 1_544
Hf15 Rh4 3.165557 1_544
