# generated using pymatgen
data_Y4MnCoC8
_symmetry_space_group_name_H-M   'P 1'
_cell_length_a   6.59727750
_cell_length_b   6.59727778
_cell_length_c   6.59727736
_cell_angle_alpha   135.19111741
_cell_angle_beta   111.16370053
_cell_angle_gamma   85.95756928
_symmetry_Int_Tables_number   1
_chemical_formula_structural   Y4MnCoC8
_chemical_formula_sum   'Y4 Mn1 Co1 C8'
_cell_volume   181.02660799
_cell_formula_units_Z   1
loop_
 _symmetry_equiv_pos_site_id
 _symmetry_equiv_pos_as_xyz
  1  'x, y, z'
loop_
 _atom_site_type_symbol
 _atom_site_label
 _atom_site_symmetry_multiplicity
 _atom_site_fract_x
 _atom_site_fract_y
 _atom_site_fract_z
 _atom_site_occupancy
  Y  Y0  1  0.51366788  0.35758784  0.15947680  1
  Y  Y1  1  0.48633212  0.64580892  0.84391996  1
  Y  Y2  1  0.19811104  0.85419108  0.34052320  1
  Y  Y3  1  0.80188896  0.14241216  0.65608004  1
  Mn  Mn0  1  0.00000000  0.75000000  0.75000000  1
  Co  Co0  1  0.00000000  0.25000000  0.25000000  1
  C  C0  1  0.24407255  0.06375402  0.14990272  1
  C  C1  1  0.75592745  0.90582917  0.81968048  1
  C  C2  1  0.91385131  0.59417083  0.35009728  1
  C  C3  1  0.08614869  0.43624598  0.68031952  1
  C  C4  1  0.46500660  0.13421832  0.34209131  1
  C  C5  1  0.53499340  0.87708571  0.66921272  1
  C  C6  1  0.79212701  0.62291429  0.15790869  1
  C  C7  1  0.20787299  0.36578168  0.83078728  1
loop_
_geom_bond_atom_site_label_1
_geom_bond_atom_site_label_2
_geom_bond_distance
_geom_bond_site_symmetry_2
C0 C4 1.368567 1_555
C0 Mn0 1.868563 1_544
C0 Co0 1.968794 1_555
C0 Y2 2.527120 1_545
C0 Y0 2.675153 1_555
C1 C5 1.368567 1_555
C1 Mn0 1.868560 1_655
C1 Co0 1.968797 1_666
C1 Y3 2.527120 1_565
C1 Y1 2.675153 1_555
C2 C6 1.368557 1_555
C2 Mn0 1.868566 1_655
C2 Co0 1.968800 1_655
C2 Y0 2.527122 1_555
C2 Y2 2.675148 1_655
C3 C7 1.368557 1_555
C3 Mn0 1.868566 1_555
C3 Co0 1.968800 1_555
C3 Y1 2.527122 1_555
C3 Y3 2.675148 1_455
C4 Y3 2.401500 1_555
C4 Y1 2.499500 1_555
C4 Y1 2.539184 1_544
C4 Y0 2.567329 1_555
C4 Y2 2.632827 1_545
C5 Y2 2.401500 1_555
C5 Y0 2.499495 1_566
C5 Y0 2.539189 1_555
C5 Y1 2.567329 1_555
C5 Y3 2.632827 1_565
C6 Y1 2.401504 1_554
C6 Y3 2.499498 1_554
C6 Y3 2.539187 1_565
C6 Y2 2.567331 1_655
C6 Y0 2.632822 1_555
C7 Y0 2.401504 1_556
C7 Y2 2.499498 1_545
C7 Y2 2.539187 1_556
C7 Y3 2.567331 1_455
C7 Y1 2.632822 1_555
