# generated using pymatgen
data_HfCu2Te3
_symmetry_space_group_name_H-M   'P 1'
_cell_length_a   4.07685559
_cell_length_b   7.30332533
_cell_length_c   10.39114593
_cell_angle_alpha   98.63536835
_cell_angle_beta   101.31306552
_cell_angle_gamma   90.00000308
_symmetry_Int_Tables_number   1
_chemical_formula_structural   HfCu2Te3
_chemical_formula_sum   'Hf2 Cu4 Te6'
_cell_volume   299.80310999
_cell_formula_units_Z   2
loop_
 _symmetry_equiv_pos_site_id
 _symmetry_equiv_pos_as_xyz
  1  'x, y, z'
loop_
 _atom_site_type_symbol
 _atom_site_label
 _atom_site_symmetry_multiplicity
 _atom_site_fract_x
 _atom_site_fract_y
 _atom_site_fract_z
 _atom_site_occupancy
  Hf  Hf0  1  0.64639245  0.05276433  0.29278590  1
  Hf  Hf1  1  0.35360755  0.94723567  0.70721410  1
  Cu  Cu0  1  0.71390174  0.42322178  0.42780349  1
  Cu  Cu1  1  0.28609826  0.57677822  0.57219651  1
  Cu  Cu2  1  0.04889672  0.14873027  0.09779343  1
  Cu  Cu3  1  0.95110328  0.85126973  0.90220657  1
  Te  Te0  1  0.75045514  0.78241141  0.50090929  1
  Te  Te1  1  0.91900487  0.17800707  0.83800974  1
  Te  Te2  1  0.58437265  0.36071957  0.16874531  1
  Te  Te3  1  0.24954486  0.21758859  0.49909071  1
  Te  Te4  1  0.41562735  0.63928043  0.83125469  1
  Te  Te5  1  0.08099513  0.82199293  0.16199026  1
loop_
_geom_bond_atom_site_label_1
_geom_bond_atom_site_label_2
_geom_bond_distance
_geom_bond_site_symmetry_2
Hf0 Te2 2.743420 1_555
Hf0 Te5 2.843237 1_545
Hf0 Te5 2.843240 1_645
Hf0 Te3 3.041069 1_655
Hf0 Te3 3.041069 1_555
Hf0 Te0 3.110925 1_545
Hf1 Te4 2.743420 1_555
Hf1 Te1 2.843237 1_565
Hf1 Te1 2.843240 1_465
Hf1 Te0 3.041069 1_455
Hf1 Te0 3.041069 1_555
Hf1 Te3 3.110925 1_565
Cu0 Te2 2.609004 1_555
Cu0 Te0 2.614965 1_555
Cu0 Cu1 2.659359 1_655
Cu0 Cu1 2.659359 1_555
Cu0 Te3 2.696715 1_655
Cu0 Te3 2.696718 1_555
Cu0 Hf0 2.841280 1_555
Cu1 Te4 2.609004 1_555
Cu1 Te3 2.614965 1_555
Cu1 Te0 2.696715 1_455
Cu1 Te0 2.696718 1_555
Cu1 Hf1 2.841280 1_555
Cu2 Te5 2.569078 1_545
Cu2 Te2 2.594624 1_555
Cu2 Te2 2.594624 1_455
Cu2 Te1 2.688057 1_454
Cu2 Cu3 2.713903 1_444
Cu2 Hf0 3.003385 1_555
Cu2 Hf0 3.003388 1_455
Cu3 Te1 2.569078 1_565
Cu3 Te4 2.594624 1_555
Cu3 Te4 2.594624 1_655
Cu3 Te5 2.688057 1_656
Cu3 Hf1 3.003385 1_555
Cu3 Hf1 3.003388 1_655
