# generated using pymatgen
data_Mg2Cd2OF6
_symmetry_space_group_name_H-M   'P 1'
_cell_length_a   7.20244614
_cell_length_b   7.20244542
_cell_length_c   7.20244614
_cell_angle_alpha   119.99999893
_cell_angle_beta   90.00000000
_cell_angle_gamma   119.99999020
_symmetry_Int_Tables_number   1
_chemical_formula_structural   Mg2Cd2OF6
_chemical_formula_sum   'Mg4 Cd4 O2 F12'
_cell_volume   264.19530023
_cell_formula_units_Z   2
loop_
 _symmetry_equiv_pos_site_id
 _symmetry_equiv_pos_as_xyz
  1  'x, y, z'
loop_
 _atom_site_type_symbol
 _atom_site_label
 _atom_site_symmetry_multiplicity
 _atom_site_fract_x
 _atom_site_fract_y
 _atom_site_fract_z
 _atom_site_occupancy
  Mg  Mg0  1  0.50000000  0.50000000  0.50000000  1
  Mg  Mg1  1  0.50000000  0.00000000  0.00000000  1
  Mg  Mg2  1  0.00000000  0.00000000  0.00000000  1
  Mg  Mg3  1  0.50000000  0.50000000  0.00000000  1
  Cd  Cd0  1  0.50000000  0.00000000  0.50000000  1
  Cd  Cd1  1  0.00000000  0.50000000  0.50000000  1
  Cd  Cd2  1  0.00000000  0.50000000  0.00000000  1
  Cd  Cd3  1  0.00000000  0.00000000  0.50000000  1
  O  O0  1  0.12500000  0.75000000  0.37500000  1
  O  O1  1  0.87500000  0.25000000  0.62500000  1
  F  F0  1  0.57497442  0.25000000  0.92502558  1
  F  F1  1  0.42502558  0.75000000  0.67502558  1
  F  F2  1  0.82497442  0.75000000  0.07497442  1
  F  F3  1  0.82497442  0.75000000  0.67502558  1
  F  F4  1  0.42502558  0.35005216  0.67502558  1
  F  F5  1  0.82497442  0.14994784  0.07497442  1
  F  F6  1  0.57497442  0.64994784  0.32497442  1
  F  F7  1  0.57497442  0.25000000  0.32497442  1
  F  F8  1  0.17502558  0.25000000  0.92502558  1
  F  F9  1  0.17502558  0.85005216  0.92502558  1
  F  F10  1  0.42502558  0.75000000  0.07497442  1
  F  F11  1  0.17502558  0.25000000  0.32497442  1
loop_
_geom_bond_atom_site_label_1
_geom_bond_atom_site_label_2
_geom_bond_distance
_geom_bond_site_symmetry_2
Cd0 O1 2.205290 1_555
Cd0 O0 2.205290 1_545
Cd0 F1 2.533868 1_545
Cd0 F7 2.533868 1_555
Cd0 F0 2.533868 1_555
Cd0 F10 2.533868 1_545
Cd0 F4 2.533874 1_555
Cd0 F6 2.533874 1_545
Cd1 O0 2.205290 1_555
Cd1 O1 2.205290 1_455
Cd1 F11 2.533868 1_555
Cd1 F3 2.533868 1_455
Cd1 F1 2.533869 1_555
Cd1 F7 2.533869 1_455
Cd1 F9 2.533870 1_555
Cd1 F5 2.533870 1_455
Cd2 O0 2.205290 1_555
Cd2 O1 2.205290 1_454
Cd2 F8 2.533868 1_554
Cd2 F2 2.533868 1_455
Cd2 F10 2.533869 1_555
Cd2 F0 2.533869 1_454
Cd2 F9 2.533874 1_554
Cd2 F5 2.533874 1_455
Cd3 O1 2.205289 1_455
Cd3 O0 2.205289 1_545
Cd3 F11 2.533868 1_555
Cd3 F3 2.533868 1_445
Cd3 F8 2.533869 1_555
Cd3 F2 2.533869 1_445
Cd3 F4 2.533870 1_555
Cd3 F6 2.533870 1_445
F0 Mg3 1.955863 1_556
F0 Mg1 1.955863 1_556
F1 Mg0 1.955863 1_555
F1 Mg1 1.955863 1_566
F2 Mg2 1.955863 1_665
F2 Mg3 1.955863 1_555
F3 Mg2 1.955863 1_666
F3 Mg0 1.955863 1_555
F4 Mg0 1.955858 1_555
F4 Mg3 1.955864 1_556
F5 Mg2 1.955858 1_655
F5 Mg1 1.955865 1_555
F6 Mg0 1.955858 1_555
F6 Mg3 1.955864 1_555
F7 Mg0 1.955863 1_555
F7 Mg1 1.955863 1_555
F8 Mg2 1.955863 1_556
F8 Mg3 1.955863 1_556
F9 Mg2 1.955858 1_566
F9 Mg1 1.955865 1_566
F10 Mg3 1.955863 1_555
F10 Mg1 1.955863 1_565
F11 Mg2 1.955863 1_555
F11 Mg0 1.955863 1_555
