# generated using pymatgen
data_Nd2Sn3
_symmetry_space_group_name_H-M   'P 1'
_cell_length_a   6.45112773
_cell_length_b   8.54925964
_cell_length_c   11.19532283
_cell_angle_alpha   107.49271853
_cell_angle_beta   96.86180090
_cell_angle_gamma   100.12608072
_symmetry_Int_Tables_number   1
_chemical_formula_structural   Nd2Sn3
_chemical_formula_sum   'Nd8 Sn12'
_cell_volume   569.87387655
_cell_formula_units_Z   4
loop_
 _symmetry_equiv_pos_site_id
 _symmetry_equiv_pos_as_xyz
  1  'x, y, z'
loop_
 _atom_site_type_symbol
 _atom_site_label
 _atom_site_symmetry_multiplicity
 _atom_site_fract_x
 _atom_site_fract_y
 _atom_site_fract_z
 _atom_site_occupancy
  Nd  Nd0  1  0.04068994  0.74624336  0.94468409  1
  Nd  Nd1  1  0.95931006  0.25375664  0.05531591  1
  Nd  Nd2  1  0.44421422  0.56931751  0.66401745  1
  Nd  Nd3  1  0.55578578  0.43068249  0.33598355  1
  Nd  Nd4  1  0.66854997  0.96554832  0.25457224  1
  Nd  Nd5  1  0.33145003  0.03445168  0.74542776  1
  Nd  Nd6  1  0.87234830  0.24893617  0.61854895  1
  Nd  Nd7  1  0.12765070  0.75106383  0.38145105  1
  Sn  Sn0  1  0.56165547  0.83334767  0.94689064  1
  Sn  Sn1  1  0.43834453  0.16665233  0.05310936  1
  Sn  Sn2  1  0.64602156  0.83542198  0.50197504  1
  Sn  Sn3  1  0.35397844  0.16457802  0.49802496  1
  Sn  Sn4  1  0.67340615  0.39912984  0.86252512  1
  Sn  Sn5  1  0.32659385  0.60087116  0.13747488  1
  Sn  Sn6  1  0.77627655  0.59359670  0.13569918  1
  Sn  Sn7  1  0.22372345  0.40640330  0.86430082  1
  Sn  Sn8  1  0.04663615  0.35220707  0.38146471  1
  Sn  Sn9  1  0.95336385  0.64779293  0.61853529  1
  Sn  Sn10  1  0.17739965  0.04040278  0.22329509  1
  Sn  Sn11  1  0.82260135  0.95959722  0.77670591  1
loop_
_geom_bond_atom_site_label_1
_geom_bond_atom_site_label_2
_geom_bond_distance
_geom_bond_site_symmetry_2
Nd0 Sn7 3.245566 1_555
Nd0 Sn4 3.260734 1_455
Nd0 Sn10 3.267784 1_566
Nd0 Sn0 3.304780 1_455
Nd0 Sn0 3.307462 1_555
Nd0 Sn6 3.309436 1_456
Nd0 Sn5 3.327513 1_556
Nd0 Sn11 3.342944 1_455
Nd0 Sn9 3.442715 1_455
Nd0 Sn1 3.789922 1_566
Nd1 Sn6 3.245566 1_555
Nd1 Sn5 3.260740 1_655
Nd1 Sn11 3.267776 1_544
Nd1 Sn1 3.304780 1_655
Nd1 Sn1 3.307462 1_555
Nd1 Sn7 3.309436 1_654
Nd1 Sn4 3.327519 1_554
Nd1 Sn10 3.342955 1_655
Nd1 Sn8 3.442715 1_655
Nd1 Sn0 3.789922 1_544
Nd2 Sn0 3.197834 1_555
Nd2 Sn3 3.306507 1_555
Nd2 Sn7 3.306613 1_555
Nd2 Sn4 3.340224 1_555
Nd2 Sn9 3.362063 1_455
Nd2 Sn9 3.365717 1_555
Nd2 Sn2 3.487910 1_555
Nd2 Sn11 3.542987 1_555
Nd2 Sn8 3.589911 1_555
Nd3 Sn1 3.197843 1_555
Nd3 Sn2 3.306504 1_555
Nd3 Sn6 3.306622 1_555
Nd3 Sn5 3.340238 1_555
Nd3 Sn8 3.362062 1_655
Nd3 Sn8 3.365713 1_555
Nd3 Sn3 3.487902 1_555
Nd3 Sn10 3.542984 1_555
Nd3 Sn9 3.589903 1_555
Nd4 Sn0 3.230492 1_554
Nd4 Sn5 3.276994 1_555
Nd4 Sn6 3.289357 1_555
Nd4 Sn2 3.289681 1_555
Nd4 Sn10 3.313406 1_665
Nd4 Sn10 3.339755 1_565
Nd4 Sn8 3.522553 1_665
Nd4 Sn1 3.560490 1_565
Nd4 Sn3 3.766944 1_565
Nd5 Sn1 3.230492 1_556
Nd5 Sn4 3.277001 1_555
Nd5 Sn7 3.289357 1_555
Nd5 Sn3 3.289681 1_555
Nd5 Sn11 3.313403 1_445
Nd5 Sn11 3.339762 1_545
Nd5 Sn9 3.522553 1_445
Nd5 Sn0 3.560490 1_545
Nd5 Sn2 3.766944 1_545
Nd6 Sn7 3.119324 1_655
Nd6 Sn4 3.172547 1_555
Nd6 Sn8 3.295671 1_655
Nd6 Sn3 3.318483 1_555
Nd6 Sn9 3.357744 1_555
Nd6 Sn2 3.359906 1_545
Nd6 Sn11 3.441892 1_545
Nd6 Sn3 3.633077 1_655
Nd7 Sn6 3.119321 1_455
Nd7 Sn5 3.172548 1_555
Nd7 Sn9 3.295668 1_455
Nd7 Sn2 3.318489 1_555
Nd7 Sn8 3.357744 1_555
Nd7 Sn3 3.359907 1_565
Nd7 Sn10 3.441884 1_565
Nd7 Sn2 3.633071 1_455
Sn0 Sn11 2.998770 1_555
Sn0 Sn1 3.025332 1_566
Sn1 Sn10 2.998775 1_555
Sn2 Sn9 3.156825 1_555
Sn3 Sn8 3.156825 1_555
Sn4 Sn7 2.914842 1_555
Sn4 Sn6 2.937331 1_556
Sn5 Sn6 2.914843 1_555
Sn5 Sn7 2.937333 1_554
Sn8 Sn9 3.267474 1_455
Sn10 Sn3 2.942645 1_555
Sn10 Sn8 3.043531 1_555
Sn11 Sn2 2.942656 1_555
Sn11 Sn9 3.043532 1_555
