# generated using pymatgen
data_HfMn(As2O7)2
_symmetry_space_group_name_H-M   'P 1'
_cell_length_a   5.00329135
_cell_length_b   8.27205478
_cell_length_c   7.25302814
_cell_angle_alpha   90.79625177
_cell_angle_beta   105.44281708
_cell_angle_gamma   91.89649530
_symmetry_Int_Tables_number   1
_chemical_formula_structural   HfMn(As2O7)2
_chemical_formula_sum   'Hf1 Mn1 As4 O14'
_cell_volume   289.10819206
_cell_formula_units_Z   1
loop_
 _symmetry_equiv_pos_site_id
 _symmetry_equiv_pos_as_xyz
  1  'x, y, z'
loop_
 _atom_site_type_symbol
 _atom_site_label
 _atom_site_symmetry_multiplicity
 _atom_site_fract_x
 _atom_site_fract_y
 _atom_site_fract_z
 _atom_site_occupancy
  Hf  Hf0  1  0.21744690  0.50737164  0.73245169  1
  Mn  Mn0  1  0.78628937  0.00793799  0.27004116  1
  As  As0  1  0.40797059  0.17402662  0.49952207  1
  As  As1  1  0.21345288  0.79018411  0.11153425  1
  As  As2  1  0.73790089  0.25490063  0.90525647  1
  As  As3  1  0.63098518  0.69723118  0.48858882  1
  O  O0  1  0.97897968  0.33025574  0.80628137  1
  O  O1  1  0.13665159  0.68172411  0.90731999  1
  O  O2  1  0.15437375  0.03128356  0.42635968  1
  O  O3  1  0.31257460  0.36310226  0.52563008  1
  O  O4  1  0.48069033  0.67968056  0.66660485  1
  O  O5  1  0.53396371  0.40316376  0.93742325  1
  O  O6  1  0.55031689  0.11087804  0.73572851  1
  O  O7  1  0.38698816  0.64656545  0.27179045  1
  O  O8  1  0.42333631  0.95494603  0.11008250  1
  O  O9  1  0.64759854  0.18748784  0.37281459  1
  O  O10  1  0.71508578  0.89503839  0.47415098  1
  O  O11  1  0.89379316  0.57483963  0.50881992  1
  O  O12  1  0.89090672  0.14849583  0.09687066  1
  O  O13  1  0.90599699  0.82444762  0.15733172  1
loop_
_geom_bond_atom_site_label_1
_geom_bond_atom_site_label_2
_geom_bond_distance
_geom_bond_site_symmetry_2
Hf0 O0 2.025634 1_455
Hf0 O1 2.028040 1_555
Hf0 O4 2.055255 1_555
Hf0 O11 2.061750 1_455
Hf0 O3 2.066170 1_555
Hf0 O5 2.081653 1_555
Mn0 O10 1.867621 1_545
Mn0 O12 1.885164 1_555
Mn0 O9 1.885743 1_555
Mn0 O2 1.890177 1_655
Mn0 O13 1.901914 1_545
Mn0 O8 1.909728 1_545
As0 O3 1.673085 1_555
As0 O2 1.676479 1_555
As0 O9 1.695643 1_555
As0 O6 1.764907 1_555
As1 O1 1.668416 1_554
As1 O13 1.689785 1_455
As1 O8 1.694682 1_555
As1 O7 1.756556 1_555
As2 O0 1.668107 1_555
As2 O5 1.673729 1_555
As2 O12 1.674594 1_556
As2 O6 1.755789 1_555
As3 O11 1.662832 1_555
As3 O4 1.663929 1_555
As3 O10 1.687621 1_555
As3 O7 1.750451 1_555
