# generated using pymatgen
data_Hf10SiSn6Au
_symmetry_space_group_name_H-M   'P 1'
_cell_length_a   8.58944590
_cell_length_b   8.58944705
_cell_length_c   5.82977852
_cell_angle_alpha   90.00000000
_cell_angle_beta   90.00000000
_cell_angle_gamma   120.00000307
_symmetry_Int_Tables_number   1
_chemical_formula_structural   Hf10SiSn6Au
_chemical_formula_sum   'Hf10 Si1 Sn6 Au1'
_cell_volume   372.48863726
_cell_formula_units_Z   1
loop_
 _symmetry_equiv_pos_site_id
 _symmetry_equiv_pos_as_xyz
  1  'x, y, z'
loop_
 _atom_site_type_symbol
 _atom_site_label
 _atom_site_symmetry_multiplicity
 _atom_site_fract_x
 _atom_site_fract_y
 _atom_site_fract_z
 _atom_site_occupancy
  Hf  Hf0  1  0.73290548  0.73290548  0.76670333  1
  Hf  Hf1  1  0.26709452  1.00000000  0.76670333  1
  Hf  Hf2  1  0.00000000  0.26709452  0.76670333  1
  Hf  Hf3  1  0.26709452  0.26709452  0.23329667  1
  Hf  Hf4  1  0.73290548  0.00000000  0.23329667  1
  Hf  Hf5  1  1.00000000  0.73290548  0.23329667  1
  Hf  Hf6  1  0.66666700  0.33333300  0.00000000  1
  Hf  Hf7  1  0.33333300  0.66666700  0.00000000  1
  Hf  Hf8  1  0.33333300  0.66666700  0.50000000  1
  Hf  Hf9  1  0.66666700  0.33333300  0.50000000  1
  Si  Si0  1  0.00000000  0.00000000  0.00000000  1
  Sn  Sn0  1  0.38952746  0.38952746  0.74307816  1
  Sn  Sn1  1  0.61047254  1.00000000  0.74307816  1
  Sn  Sn2  1  0.00000000  0.61047254  0.74307816  1
  Sn  Sn3  1  0.61047254  0.61047254  0.25692184  1
  Sn  Sn4  1  0.38952746  0.00000000  0.25692184  1
  Sn  Sn5  1  1.00000000  0.38952746  0.25692184  1
  Au  Au0  1  0.00000000  0.00000000  0.50000000  1
loop_
_geom_bond_atom_site_label_1
_geom_bond_atom_site_label_2
_geom_bond_distance
_geom_bond_site_symmetry_2
Hf0 Si0 2.667042 1_666
Hf0 Sn0 2.952641 1_555
Hf0 Sn2 2.966626 1_655
Hf0 Sn1 2.966626 1_555
Hf0 Sn3 3.045213 1_556
Hf0 Sn3 3.152490 1_555
Hf1 Si0 2.667042 1_566
Hf1 Sn1 2.952641 1_555
Hf1 Sn2 2.966626 1_555
Hf1 Sn0 2.966626 1_565
Hf1 Sn4 3.045213 1_566
Hf1 Sn4 3.152490 1_565
Hf2 Si0 2.667042 1_556
Hf2 Sn2 2.952641 1_555
Hf2 Sn0 2.966626 1_555
Hf2 Sn1 2.966626 1_445
Hf2 Sn5 3.045213 1_456
Hf2 Sn5 3.152490 1_455
Hf3 Si0 2.667042 1_555
Hf3 Sn3 2.952641 1_555
Hf3 Sn5 2.966626 1_455
Hf3 Sn4 2.966626 1_555
Hf3 Sn0 3.045213 1_554
Hf3 Sn0 3.152490 1_555
Hf4 Si0 2.667042 1_655
Hf4 Sn4 2.952641 1_555
Hf4 Sn5 2.966626 1_555
Hf4 Sn3 2.966626 1_545
Hf4 Sn1 3.045213 1_544
Hf4 Sn1 3.152490 1_545
Hf5 Si0 2.667042 1_665
Hf5 Sn5 2.952641 1_555
Hf5 Sn3 2.966626 1_555
Hf5 Sn4 2.966626 1_665
Hf5 Sn2 3.045213 1_654
Hf5 Sn2 3.152490 1_655
Hf6 Sn5 3.048278 1_555
Hf6 Sn1 3.048278 1_544
Hf6 Sn2 3.048281 1_654
Hf6 Sn4 3.048281 1_555
Hf6 Sn0 3.048285 1_554
Hf6 Sn3 3.048286 1_555
Hf7 Sn2 3.048278 1_554
Hf7 Sn4 3.048278 1_565
Hf7 Sn5 3.048281 1_455
Hf7 Sn1 3.048281 1_554
Hf7 Sn3 3.048285 1_555
Hf7 Sn0 3.048286 1_554
Hf8 Sn2 3.009444 1_555
Hf8 Sn4 3.009444 1_565
Hf8 Sn5 3.009446 1_455
Hf8 Sn1 3.009446 1_555
Hf8 Sn3 3.009451 1_555
Hf8 Sn0 3.009451 1_555
Hf9 Sn5 3.009444 1_555
Hf9 Sn1 3.009444 1_545
Hf9 Sn2 3.009446 1_655
Hf9 Sn4 3.009446 1_555
Hf9 Sn0 3.009451 1_555
Hf9 Sn3 3.009451 1_555
Au0 Hf4 2.771425 1_455
Au0 Hf1 2.771425 1_545
Au0 Hf3 2.771425 1_555
Au0 Hf0 2.771425 1_445
Au0 Hf5 2.771425 1_445
Au0 Hf2 2.771425 1_555
Au0 Si0 2.914889 1_556
Au0 Si0 2.914889 1_555
