# generated using pymatgen
data_LuGaCu3Ag
_symmetry_space_group_name_H-M   'P 1'
_cell_length_a   4.98375836
_cell_length_b   4.98375751
_cell_length_c   4.98375906
_cell_angle_alpha   60.65314398
_cell_angle_beta   60.65315374
_cell_angle_gamma   60.65314039
_symmetry_Int_Tables_number   1
_chemical_formula_structural   LuGaCu3Ag
_chemical_formula_sum   'Lu1 Ga1 Cu3 Ag1'
_cell_volume   88.82052802
_cell_formula_units_Z   1
loop_
 _symmetry_equiv_pos_site_id
 _symmetry_equiv_pos_as_xyz
  1  'x, y, z'
loop_
 _atom_site_type_symbol
 _atom_site_label
 _atom_site_symmetry_multiplicity
 _atom_site_fract_x
 _atom_site_fract_y
 _atom_site_fract_z
 _atom_site_occupancy
  Lu  Lu0  1  0.62263039  0.62263039  0.62263039  1
  Ga  Ga0  1  0.00265317  0.00265317  0.00265317  1
  Cu  Cu0  1  0.00123656  0.49948862  0.00123656  1
  Cu  Cu1  1  0.49948862  0.00123656  0.00123656  1
  Cu  Cu2  1  0.00123656  0.00123656  0.49948862  1
  Ag  Ag0  1  0.37275269  0.37275269  0.37275269  1
loop_
_geom_bond_atom_site_label_1
_geom_bond_atom_site_label_2
_geom_bond_distance
_geom_bond_site_symmetry_2
Ga0 Lu0 2.960563 1_454
Ga0 Lu0 2.960563 1_544
Ga0 Lu0 2.960564 1_445
Cu0 Ga0 2.469208 1_555
Cu0 Cu1 2.507642 1_555
Cu0 Cu2 2.507642 1_555
Cu0 Ga0 2.514590 1_565
Cu0 Cu1 2.525236 1_465
Cu0 Cu2 2.525236 1_564
Cu0 Lu0 2.920239 1_554
Cu0 Lu0 2.920239 1_455
Cu0 Lu0 2.952451 1_454
Cu1 Ga0 2.469208 1_555
Cu1 Cu2 2.507642 1_555
Cu1 Ga0 2.514591 1_655
Cu1 Cu2 2.525237 1_654
Cu1 Lu0 2.920238 1_554
Cu1 Lu0 2.920239 1_545
Cu1 Lu0 2.952451 1_544
Cu2 Ga0 2.469208 1_555
Cu2 Ga0 2.514591 1_556
Cu2 Lu0 2.920238 1_455
Cu2 Lu0 2.920239 1_545
Cu2 Lu0 2.952450 1_445
Ag0 Cu2 2.884976 1_555
Ag0 Cu1 2.884977 1_555
Ag0 Cu0 2.884977 1_555
Ag0 Ga0 2.939853 1_565
Ag0 Ga0 2.939854 1_655
Ag0 Ga0 2.939854 1_556
Ag0 Cu2 2.957403 1_565
Ag0 Cu1 2.957404 1_565
Ag0 Cu2 2.957404 1_655
Ag0 Cu1 2.957404 1_556
Ag0 Cu0 2.957404 1_655
Ag0 Cu0 2.957405 1_556
Ag0 Lu0 3.035279 1_555
Ag0 Lu0 3.077491 1_545
Ag0 Lu0 3.077492 1_455
Ag0 Lu0 3.077493 1_554
