# generated using pymatgen
data_Cs2MgAs2O7
_symmetry_space_group_name_H-M   'P 1'
_cell_length_a   8.36409741
_cell_length_b   8.36409741
_cell_length_c   6.52369117
_cell_angle_alpha   90.00000000
_cell_angle_beta   90.00000000
_cell_angle_gamma   90.00000000
_symmetry_Int_Tables_number   1
_chemical_formula_structural   Cs2MgAs2O7
_chemical_formula_sum   'Cs4 Mg2 As4 O14'
_cell_volume   456.38520608
_cell_formula_units_Z   2
loop_
 _symmetry_equiv_pos_site_id
 _symmetry_equiv_pos_as_xyz
  1  'x, y, z'
loop_
 _atom_site_type_symbol
 _atom_site_label
 _atom_site_symmetry_multiplicity
 _atom_site_fract_x
 _atom_site_fract_y
 _atom_site_fract_z
 _atom_site_occupancy
  Cs  Cs0  1  0.66558997  0.16558997  0.51003651  1
  Cs  Cs1  1  0.83441003  0.66558997  0.48996349  1
  Cs  Cs2  1  0.16558997  0.33441003  0.48996349  1
  Cs  Cs3  1  0.33441003  0.83441003  0.51003651  1
  Mg  Mg0  1  0.00000000  0.00000000  0.00000000  1
  Mg  Mg1  1  0.50000000  0.50000000  0.00000000  1
  As  As0  1  0.86018800  0.36018800  0.96403589  1
  As  As1  1  0.13981200  0.63981200  0.96403589  1
  As  As2  1  0.63981200  0.86018800  0.03596411  1
  As  As3  1  0.36018800  0.13981200  0.03596411  1
  O  O0  1  0.68918381  0.42199239  0.85003010  1
  O  O1  1  0.31081619  0.57800761  0.85003010  1
  O  O2  1  0.42199239  0.31081619  0.14996990  1
  O  O3  1  0.57800761  0.68918381  0.14996990  1
  O  O4  1  0.92199239  0.18918381  0.85003010  1
  O  O5  1  0.81081619  0.92199239  0.14996990  1
  O  O6  1  0.18918381  0.07800761  0.14996990  1
  O  O7  1  0.07800761  0.81081619  0.85003010  1
  O  O8  1  0.86045620  0.36045620  0.21805028  1
  O  O9  1  0.63954380  0.86045620  0.78194972  1
  O  O10  1  0.50000000  0.00000000  0.13752808  1
  O  O11  1  0.00000000  0.50000000  0.86247192  1
  O  O12  1  0.13954380  0.63954380  0.21805028  1
  O  O13  1  0.36045620  0.13954380  0.78194972  1
loop_
_geom_bond_atom_site_label_1
_geom_bond_atom_site_label_2
_geom_bond_distance
_geom_bond_site_symmetry_2
Cs0 O8 2.990215 1_555
Cs0 O0 3.091557 1_555
Cs0 O4 3.091557 1_555
Cs0 O13 3.115713 1_555
Cs0 O9 3.115713 1_545
Cs0 O10 3.121224 1_555
Cs0 O5 3.338322 1_545
Cs0 O2 3.338322 1_555
Cs1 O9 2.990215 1_555
Cs1 O3 3.091557 1_555
Cs1 O5 3.091557 1_555
Cs1 O12 3.115713 1_655
Cs1 O8 3.115713 1_555
Cs1 O11 3.121224 1_655
Cs1 O7 3.338322 1_655
Cs1 O0 3.338322 1_555
Cs2 O13 2.990215 1_555
Cs2 O6 3.091557 1_555
Cs2 O2 3.091557 1_555
Cs2 O8 3.115713 1_455
Cs2 O12 3.115713 1_555
Cs2 O11 3.121224 1_555
Cs2 O4 3.338322 1_455
Cs2 O1 3.338322 1_555
Cs3 O12 2.990215 1_555
Cs3 O1 3.091557 1_555
Cs3 O7 3.091557 1_555
Cs3 O13 3.115713 1_565
Cs3 O9 3.115713 1_555
Cs3 O10 3.121224 1_565
Cs3 O6 3.338322 1_565
Cs3 O3 3.338322 1_555
Mg0 O6 1.971479 1_555
Mg0 O4 1.971479 1_454
Mg0 O5 1.971479 1_445
Mg0 O7 1.971479 1_544
Mg1 O3 1.971479 1_555
Mg1 O0 1.971479 1_554
Mg1 O2 1.971479 1_555
Mg1 O1 1.971479 1_554
As0 O8 1.657115 1_556
As0 O4 1.692961 1_555
As0 O0 1.692961 1_555
As0 O11 1.781572 1_655
As1 O12 1.657115 1_556
As1 O1 1.692961 1_555
As1 O7 1.692961 1_555
As1 O11 1.781572 1_555
As2 O9 1.657115 1_554
As2 O3 1.692961 1_555
As2 O5 1.692961 1_555
As2 O10 1.781572 1_565
As3 O13 1.657115 1_554
As3 O2 1.692961 1_555
As3 O6 1.692961 1_555
As3 O10 1.781572 1_555
