# generated using pymatgen
data_K2LiCrCl6
_symmetry_space_group_name_H-M   'P 1'
_cell_length_a   6.85407413
_cell_length_b   6.85407414
_cell_length_c   6.00923208
_cell_angle_alpha   90.00000000
_cell_angle_beta   90.00000000
_cell_angle_gamma   119.99999535
_symmetry_Int_Tables_number   1
_chemical_formula_structural   K2LiCrCl6
_chemical_formula_sum   'K2 Li1 Cr1 Cl6'
_cell_volume   244.48218841
_cell_formula_units_Z   1
loop_
 _symmetry_equiv_pos_site_id
 _symmetry_equiv_pos_as_xyz
  1  'x, y, z'
loop_
 _atom_site_type_symbol
 _atom_site_label
 _atom_site_symmetry_multiplicity
 _atom_site_fract_x
 _atom_site_fract_y
 _atom_site_fract_z
 _atom_site_occupancy
  K  K0  1  0.33333300  0.66666700  0.29092240  1
  K  K1  1  0.66666700  0.33333300  0.70907760  1
  Li  Li0  1  0.00000000  0.00000000  0.00000000  1
  Cr  Cr0  1  0.00000000  0.00000000  0.50000000  1
  Cl  Cl0  1  0.83971514  0.16028486  0.26937035  1
  Cl  Cl1  1  0.16028486  0.83971514  0.73062965  1
  Cl  Cl2  1  0.83971514  0.67942928  0.26937035  1
  Cl  Cl3  1  0.16028486  0.32057072  0.73062965  1
  Cl  Cl4  1  0.32057072  0.16028486  0.26937035  1
  Cl  Cl5  1  0.67942928  0.83971514  0.73062965  1
loop_
_geom_bond_atom_site_label_1
_geom_bond_atom_site_label_2
_geom_bond_distance
_geom_bond_site_symmetry_2
Cl0 Cr0 2.354046 1_655
Cl0 Li0 2.498202 1_655
Cl0 K1 3.346962 1_555
Cl0 K0 3.430320 1_545
Cl0 K0 3.430320 1_655
Cl1 Cr0 2.354046 1_565
Cl1 Li0 2.498202 1_566
Cl1 K0 3.346962 1_555
Cl1 K1 3.430320 1_565
Cl1 K1 3.430320 1_455
Cl2 Cr0 2.354051 1_665
Cl2 Li0 2.498207 1_665
Cl2 K1 3.346962 1_555
Cl2 K0 3.430313 1_655
Cl2 K0 3.430327 1_555
Cl3 Cr0 2.354051 1_555
Cl3 Li0 2.498207 1_556
Cl3 K0 3.346962 1_555
Cl3 K1 3.430313 1_455
Cl3 K1 3.430327 1_555
Cl4 Cr0 2.354051 1_555
Cl4 Li0 2.498207 1_555
Cl4 K1 3.346962 1_555
Cl4 K0 3.430313 1_545
Cl4 K0 3.430327 1_555
Cl5 Cr0 2.354051 1_665
Cl5 Li0 2.498207 1_666
Cl5 K0 3.346962 1_555
Cl5 K1 3.430313 1_565
Cl5 K1 3.430327 1_555
