# generated using pymatgen
data_Sc7BiTe7
_symmetry_space_group_name_H-M   'P 1'
_cell_length_a   7.98797711
_cell_length_b   7.98797560
_cell_length_c   9.92520949
_cell_angle_alpha   54.57353079
_cell_angle_beta   54.57353819
_cell_angle_gamma   63.44461891
_symmetry_Int_Tables_number   1
_chemical_formula_structural   Sc7BiTe7
_chemical_formula_sum   'Sc7 Bi1 Te7'
_cell_volume   414.58915028
_cell_formula_units_Z   1
loop_
 _symmetry_equiv_pos_site_id
 _symmetry_equiv_pos_as_xyz
  1  'x, y, z'
loop_
 _atom_site_type_symbol
 _atom_site_label
 _atom_site_symmetry_multiplicity
 _atom_site_fract_x
 _atom_site_fract_y
 _atom_site_fract_z
 _atom_site_occupancy
  Sc  Sc0  1  0.73755853  0.26300406  0.49908225  1
  Sc  Sc1  1  0.26300406  0.73755853  0.49908225  1
  Sc  Sc2  1  0.50054670  0.00034369  0.49964334  1
  Sc  Sc3  1  0.00034369  0.50054670  0.49964334  1
  Sc  Sc4  1  0.74633326  0.74633326  0.00713973  1
  Sc  Sc5  1  0.25259591  0.25259591  0.99516819  1
  Sc  Sc6  1  0.99981238  0.99981238  0.99973973  1
  Bi  Bi0  1  0.96068335  0.96068335  0.33442407  1
  Te  Te0  1  0.03820374  0.03820374  0.66700865  1
  Te  Te1  1  0.54230597  0.04243181  0.16570394  1
  Te  Te2  1  0.45823459  0.95822336  0.83376292  1
  Te  Te3  1  0.95822336  0.45823459  0.83376292  1
  Te  Te4  1  0.04243181  0.54230597  0.16570394  1
  Te  Te5  1  0.45575616  0.45575616  0.32801311  1
  Te  Te6  1  0.54396547  0.54396547  0.67212160  1
loop_
_geom_bond_atom_site_label_1
_geom_bond_atom_site_label_2
_geom_bond_distance
_geom_bond_site_symmetry_2
Sc0 Te5 2.936306 1_555
Sc0 Te6 2.943528 1_555
Sc0 Te4 2.968964 1_655
Sc0 Te2 2.971328 1_545
Sc0 Te0 3.014072 1_655
Sc1 Te5 2.936306 1_555
Sc1 Te6 2.943528 1_555
Sc1 Te1 2.968964 1_565
Sc1 Te3 2.971328 1_455
Sc1 Te0 3.014072 1_565
Sc2 Te5 2.936360 1_555
Sc2 Te6 2.943401 1_545
Sc2 Te2 2.955237 1_545
Sc2 Te1 2.955736 1_555
Sc2 Te0 2.993649 1_555
Sc3 Te5 2.936361 1_555
Sc3 Te6 2.943402 1_455
Sc3 Te3 2.955237 1_455
Sc3 Te4 2.955736 1_555
Sc3 Te0 2.993648 1_555
Sc4 Te5 2.931769 1_555
Sc4 Te1 2.936400 1_565
Sc4 Te4 2.936401 1_655
Sc4 Te3 2.975521 1_554
Sc4 Te2 2.975521 1_554
Sc4 Te0 2.979736 1_664
Sc5 Te6 2.941962 1_555
Sc5 Te2 2.942218 1_545
Sc5 Te3 2.942219 1_455
Sc5 Te4 2.968478 1_556
Sc5 Te1 2.968478 1_556
Sc6 Te4 2.956983 1_656
Sc6 Te1 2.956984 1_566
Sc6 Te3 2.964237 1_565
Sc6 Te2 2.964238 1_655
Sc6 Te0 2.971531 1_665
Bi0 Sc5 2.978107 1_664
Bi0 Sc3 2.978713 1_655
Bi0 Sc2 2.978714 1_565
Bi0 Sc6 2.984930 1_554
Bi0 Sc0 3.004908 1_565
Bi0 Sc1 3.004908 1_655
