# generated using pymatgen
data_Cs2AgPO4
_symmetry_space_group_name_H-M   'P 1'
_cell_length_a   5.89792053
_cell_length_b   7.05745426
_cell_length_c   8.26526079
_cell_angle_alpha   90.00000000
_cell_angle_beta   90.00000000
_cell_angle_gamma   65.30105845
_symmetry_Int_Tables_number   1
_chemical_formula_structural   Cs2AgPO4
_chemical_formula_sum   'Cs4 Ag2 P2 O8'
_cell_volume   312.56193050
_cell_formula_units_Z   2
loop_
 _symmetry_equiv_pos_site_id
 _symmetry_equiv_pos_as_xyz
  1  'x, y, z'
loop_
 _atom_site_type_symbol
 _atom_site_label
 _atom_site_symmetry_multiplicity
 _atom_site_fract_x
 _atom_site_fract_y
 _atom_site_fract_z
 _atom_site_occupancy
  Cs  Cs0  1  0.60734240  0.78531221  0.99299414  1
  Cs  Cs1  1  0.06437702  0.87124697  0.33145176  1
  Cs  Cs2  1  0.39265660  0.21468779  0.49299414  1
  Cs  Cs3  1  0.93562198  0.12875303  0.83145176  1
  Ag  Ag0  1  0.79375053  0.41249694  0.26051095  1
  Ag  Ag1  1  0.20624847  0.58750306  0.76051095  1
  P  P0  1  0.33608161  0.32783578  0.05822494  1
  P  P1  1  0.66391739  0.67216422  0.55822494  1
  O  O0  1  0.21602052  0.56795896  0.06706622  1
  O  O1  1  0.17171612  0.23208307  0.14063747  1
  O  O2  1  0.59620181  0.23208307  0.14063747  1
  O  O3  1  0.63047182  0.73905637  0.37698006  1
  O  O4  1  0.78397848  0.43204104  0.56706622  1
  O  O5  1  0.40379919  0.76791693  0.64063747  1
  O  O6  1  0.82828388  0.76791693  0.64063747  1
  O  O7  1  0.36952718  0.26094363  0.87698006  1
loop_
_geom_bond_atom_site_label_1
_geom_bond_atom_site_label_2
_geom_bond_distance
_geom_bond_site_symmetry_2
Cs0 O5 3.171908 1_555
Cs0 O6 3.171915 1_555
Cs0 O3 3.187571 1_556
Cs0 O7 3.196854 1_565
Cs0 O0 3.318634 1_556
Cs0 O0 3.318650 1_656
Cs0 O1 3.355905 1_566
Cs0 O2 3.355914 1_566
Cs1 O0 2.925189 1_555
Cs1 O3 3.091334 1_555
Cs1 O3 3.091340 1_455
Cs1 O5 3.138457 1_555
Cs1 O6 3.138460 1_455
Cs1 O1 3.274221 1_565
Cs1 O2 3.274221 1_465
Cs2 O2 3.171912 1_555
Cs2 O1 3.171912 1_555
Cs2 O7 3.187571 1_555
Cs2 O3 3.196854 1_545
Cs2 O4 3.318634 1_555
Cs2 O4 3.318650 1_455
Cs2 O6 3.355907 1_545
Cs2 O5 3.355909 1_545
Cs3 O4 2.925189 1_555
Cs3 O7 3.091334 1_555
Cs3 O7 3.091340 1_655
Cs3 O2 3.138451 1_556
Cs3 O1 3.138464 1_656
Cs3 O6 3.274218 1_545
Cs3 O5 3.274227 1_645
Ag0 O2 2.280383 1_555
Ag0 O1 2.280396 1_655
Ag0 O3 2.304527 1_555
Ag0 O4 2.536856 1_555
Ag0 Cs0 3.256233 1_554
Ag1 O5 2.280392 1_555
Ag1 O6 2.280392 1_455
Ag1 O7 2.304527 1_555
Ag1 O0 2.536856 1_556
Ag1 Cs2 3.256233 1_555
O0 P0 1.541357 1_555
O1 P0 1.551734 1_555
O2 P0 1.551744 1_555
O3 P1 1.558226 1_555
O4 P1 1.541357 1_555
O5 P1 1.551734 1_555
O6 P1 1.551739 1_555
O7 P0 1.558226 1_556
