# generated using pymatgen
data_Eu2Te4O11
_symmetry_space_group_name_H-M   'P 1'
_cell_length_a   6.78094367
_cell_length_b   6.78094367
_cell_length_c   16.28885760
_cell_angle_alpha   75.63642510
_cell_angle_beta   75.63642510
_cell_angle_gamma   45.20572018
_symmetry_Int_Tables_number   1
_chemical_formula_structural   Eu2Te4O11
_chemical_formula_sum   'Eu4 Te8 O22'
_cell_volume   511.95900081
_cell_formula_units_Z   2
loop_
 _symmetry_equiv_pos_site_id
 _symmetry_equiv_pos_as_xyz
  1  'x, y, z'
loop_
 _atom_site_type_symbol
 _atom_site_label
 _atom_site_symmetry_multiplicity
 _atom_site_fract_x
 _atom_site_fract_y
 _atom_site_fract_z
 _atom_site_occupancy
  Eu  Eu0  1  0.13499645  0.62819837  0.53751075  1
  Eu  Eu1  1  0.37180163  0.86500355  0.96248925  1
  Eu  Eu2  1  0.86500355  0.37180163  0.46248925  1
  Eu  Eu3  1  0.62819837  0.13499645  0.03751075  1
  Te  Te0  1  0.60197981  0.15849090  0.70065530  1
  Te  Te1  1  0.84150910  0.39802019  0.79934470  1
  Te  Te2  1  0.39802019  0.84150910  0.29934470  1
  Te  Te3  1  0.15849090  0.60197981  0.20065530  1
  Te  Te4  1  0.14836610  0.58943551  0.87405790  1
  Te  Te5  1  0.41056449  0.85163390  0.62594210  1
  Te  Te6  1  0.85163390  0.41056449  0.12594210  1
  Te  Te7  1  0.58943551  0.14836610  0.37405790  1
  O  O0  1  0.85543930  0.14456070  0.75000000  1
  O  O1  1  0.14456070  0.85543930  0.25000000  1
  O  O2  1  0.19859029  0.10062380  0.82925793  1
  O  O3  1  0.89937620  0.80140971  0.67074207  1
  O  O4  1  0.80140971  0.89937620  0.17074207  1
  O  O5  1  0.10062380  0.19859029  0.32925793  1
  O  O6  1  0.61031424  0.43455561  0.90015793  1
  O  O7  1  0.56544439  0.38968576  0.59984207  1
  O  O8  1  0.38968576  0.56544439  0.09984207  1
  O  O9  1  0.43455561  0.61031424  0.40015793  1
  O  O10  1  0.04167460  0.81722208  0.95228285  1
  O  O11  1  0.18277792  0.95832540  0.54771715  1
  O  O12  1  0.68163437  0.81148580  0.37238207  1
  O  O13  1  0.18851420  0.31836563  0.12761793  1
  O  O14  1  0.31836563  0.18851420  0.62761793  1
  O  O15  1  0.81148580  0.68163437  0.87238207  1
  O  O16  1  0.25625601  0.32459778  0.44695146  1
  O  O17  1  0.67540222  0.74374399  0.05304854  1
  O  O18  1  0.74374399  0.67540222  0.55304854  1
  O  O19  1  0.32459778  0.25625601  0.94695146  1
  O  O20  1  0.81722208  0.04167460  0.45228285  1
  O  O21  1  0.95832540  0.18277792  0.04771715  1
loop_
_geom_bond_atom_site_label_1
_geom_bond_atom_site_label_2
_geom_bond_distance
_geom_bond_site_symmetry_2
Eu0 O20 2.339066 1_465
Eu0 O3 2.354137 1_455
Eu0 O16 2.368516 1_555
Eu0 O18 2.390741 1_455
Eu0 O14 2.469802 1_555
Eu0 O7 2.483898 1_555
Eu0 O11 2.525321 1_555
Eu0 O9 2.584403 1_555
Eu1 O21 2.339066 1_466
Eu1 O2 2.354137 1_565
Eu1 O17 2.368516 1_556
Eu1 O19 2.390741 1_565
Eu1 O15 2.469802 1_555
Eu1 O6 2.483898 1_555
Eu1 O10 2.525321 1_555
Eu1 O8 2.584403 1_556
Eu2 O11 2.339066 1_645
Eu2 O5 2.354137 1_655
Eu2 O18 2.368516 1_555
Eu2 O16 2.390741 1_655
Eu2 O12 2.469802 1_555
Eu2 O9 2.483898 1_555
Eu2 O20 2.525321 1_555
Eu2 O7 2.584403 1_555
Eu3 O10 2.339066 1_644
Eu3 O4 2.354137 1_545
Eu3 O19 2.368516 1_554
Eu3 O17 2.390741 1_545
Eu3 O13 2.469802 1_555
Eu3 O8 2.483898 1_555
Eu3 O21 2.525321 1_555
Eu3 O6 2.584403 1_554
O0 Te1 2.006947 1_555
O0 Te0 2.006947 1_555
O1 Te2 2.006947 1_555
O1 Te3 2.006947 1_555
O2 Te1 1.839636 1_455
O3 Te0 1.839636 1_565
O4 Te3 1.839636 1_655
O5 Te2 1.839636 1_545
O6 Te1 1.895517 1_555
O6 Te4 2.626673 1_555
O7 Te0 1.895517 1_555
O7 Te5 2.626673 1_555
O8 Te3 1.895517 1_555
O8 Te6 2.626673 1_555
O9 Te2 1.895517 1_555
O9 Te7 2.626673 1_555
O10 Te4 1.864737 1_555
O11 Te5 1.864737 1_555
O12 Te7 1.902613 1_565
O12 Te2 2.370381 1_555
O13 Te6 1.902613 1_455
O13 Te3 2.370381 1_555
O14 Te5 1.902613 1_545
O14 Te0 2.370381 1_555
O15 Te4 1.902613 1_655
O15 Te1 2.370381 1_555
O16 Te7 1.873704 1_555
O17 Te6 1.873704 1_555
O18 Te5 1.873704 1_555
O19 Te4 1.873704 1_555
O20 Te7 1.864737 1_555
O21 Te6 1.864737 1_555
