# generated using pymatgen
data_Lu6Al3ZnNi12
_symmetry_space_group_name_H-M   'P 1'
_cell_length_a   7.50663264
_cell_length_b   7.56343230
_cell_length_c   7.56343299
_cell_angle_alpha   109.62285748
_cell_angle_beta   109.31916538
_cell_angle_gamma   109.31915460
_symmetry_Int_Tables_number   1
_chemical_formula_structural   Lu6Al3ZnNi12
_chemical_formula_sum   'Lu6 Al3 Zn1 Ni12'
_cell_volume   331.18655956
_cell_formula_units_Z   1
loop_
 _symmetry_equiv_pos_site_id
 _symmetry_equiv_pos_as_xyz
  1  'x, y, z'
loop_
 _atom_site_type_symbol
 _atom_site_label
 _atom_site_symmetry_multiplicity
 _atom_site_fract_x
 _atom_site_fract_y
 _atom_site_fract_z
 _atom_site_occupancy
  Lu  Lu0  1  0.70559305  0.70695939  1.00000000  1
  Lu  Lu1  1  0.29440695  1.00000000  0.29304061  1
  Lu  Lu2  1  0.99863466  0.29304061  0.29304061  1
  Lu  Lu3  1  0.29440695  0.29304061  0.00000000  1
  Lu  Lu4  1  0.70559305  0.00000000  0.70695939  1
  Lu  Lu5  1  0.00136534  0.70695939  0.70695939  1
  Al  Al0  1  0.00000000  0.00000000  0.50000000  1
  Al  Al1  1  0.00000000  0.50000000  0.00000000  1
  Al  Al2  1  0.50000000  0.50000000  0.50000000  1
  Zn  Zn0  1  0.50000000  0.00000000  0.00000000  1
  Ni  Ni0  1  0.33583172  0.33583172  0.67166243  1
  Ni  Ni1  1  0.66362335  1.00000000  0.33798282  1
  Ni  Ni2  1  1.00000000  0.66416828  0.33583172  1
  Ni  Ni3  1  0.66362335  0.33798282  1.00000000  1
  Ni  Ni4  1  0.33583172  0.67166243  0.33583172  1
  Ni  Ni5  1  0.00000000  0.33583172  0.66416828  1
  Ni  Ni6  1  0.33637665  0.66201718  0.00000000  1
  Ni  Ni7  1  0.33637665  0.00000000  0.66201718  1
  Ni  Ni8  1  0.67435848  0.33798282  0.33798282  1
  Ni  Ni9  1  0.66416828  0.66416828  0.32833757  1
  Ni  Ni10  1  0.66416828  0.32833757  0.66416828  1
  Ni  Ni11  1  0.32564152  0.66201718  0.66201718  1
loop_
_geom_bond_atom_site_label_1
_geom_bond_atom_site_label_2
_geom_bond_distance
_geom_bond_site_symmetry_2
Lu0 Ni6 2.678395 1_556
Lu0 Ni3 2.702902 1_555
Lu0 Ni0 2.711582 1_555
Lu0 Ni9 2.711588 1_556
Lu0 Ni11 2.955639 1_555
Lu0 Ni1 2.955643 1_556
Lu0 Ni10 2.958349 1_555
Lu0 Ni2 2.958354 1_556
Lu0 Zn0 3.091516 1_566
Lu1 Ni1 2.678395 1_555
Lu1 Ni7 2.702902 1_565
Lu1 Ni10 2.711582 1_565
Lu1 Ni4 2.711588 1_555
Lu1 Ni8 2.955639 1_565
Lu1 Ni6 2.955643 1_555
Lu1 Ni0 2.958349 1_565
Lu1 Ni2 2.958354 1_455
Lu1 Zn0 3.091516 1_565
Lu2 Ni8 2.678410 1_555
Lu2 Ni11 2.702902 1_655
Lu2 Ni2 2.711583 1_555
Lu2 Ni5 2.711583 1_655
Lu2 Ni3 2.955648 1_554
Lu2 Ni1 2.955649 1_545
Lu2 Ni0 2.958345 1_655
Lu2 Ni4 2.958346 1_655
Lu2 Zn0 3.091522 1_555
Lu3 Ni3 2.678395 1_554
Lu3 Ni6 2.702902 1_555
Lu3 Ni9 2.711582 1_555
Lu3 Ni0 2.711588 1_554
Lu3 Ni8 2.955639 1_555
Lu3 Ni7 2.955643 1_554
Lu3 Ni4 2.958349 1_555
Lu3 Ni5 2.958354 1_554
Lu3 Zn0 3.091516 1_555
Lu4 Ni7 2.678395 1_555
Lu4 Ni1 2.702902 1_545
Lu4 Ni4 2.711582 1_545
Lu4 Ni10 2.711588 1_555
Lu4 Ni11 2.955639 1_545
Lu4 Ni3 2.955643 1_555
Lu4 Ni9 2.958349 1_545
Lu4 Ni5 2.958354 1_655
Lu4 Zn0 3.091516 1_556
Lu5 Ni11 2.678410 1_555
Lu5 Ni8 2.702902 1_455
Lu5 Ni5 2.711583 1_555
Lu5 Ni2 2.711583 1_455
Lu5 Ni6 2.955648 1_556
Lu5 Ni7 2.955649 1_565
Lu5 Ni9 2.958345 1_455
Lu5 Ni10 2.958346 1_455
Lu5 Zn0 3.091522 1_566
Al0 Ni7 2.414582 1_555
Al0 Ni1 2.414582 1_445
Al0 Ni5 2.423887 1_555
Al0 Ni2 2.423887 1_445
Al0 Ni0 2.423889 1_555
Al0 Ni9 2.423889 1_445
Al0 Lu1 3.102142 1_545
Al0 Lu4 3.102142 1_455
Al0 Lu2 3.114061 1_455
Al0 Lu5 3.114061 1_545
Al0 Lu3 3.114061 1_556
Al0 Lu0 3.114061 1_444
Al1 Ni3 2.414582 1_454
Al1 Ni6 2.414582 1_555
Al1 Ni2 2.423887 1_455
Al1 Ni5 2.423887 1_554
Al1 Ni4 2.423888 1_555
Al1 Ni10 2.423888 1_454
Al1 Lu3 3.102142 1_555
Al1 Lu0 3.102142 1_454
Al1 Lu2 3.114061 1_455
Al1 Lu5 3.114061 1_554
Al1 Lu1 3.114061 1_555
Al1 Lu4 3.114061 1_454
Al2 Ni11 2.414575 1_555
Al2 Ni8 2.414575 1_555
Al2 Ni10 2.423881 1_555
Al2 Ni4 2.423881 1_555
Al2 Ni9 2.423881 1_555
Al2 Ni0 2.423881 1_555
Al2 Lu5 3.102136 1_655
Al2 Lu2 3.102136 1_455
Al2 Lu4 3.114061 1_565
Al2 Lu1 3.114061 1_545
Al2 Lu0 3.114061 1_555
Al2 Lu3 3.114061 1_555
Ni1 Zn0 2.442510 1_565
Ni3 Zn0 2.442510 1_556
Ni6 Zn0 2.442510 1_565
Ni7 Zn0 2.442510 1_556
Ni8 Zn0 2.442511 1_555
Ni11 Zn0 2.442511 1_566
