# generated using pymatgen
data_YCdGePt3
_symmetry_space_group_name_H-M   'P 1'
_cell_length_a   5.50746546
_cell_length_b   5.50746516
_cell_length_c   5.15827772
_cell_angle_alpha   57.73423255
_cell_angle_beta   57.73423924
_cell_angle_gamma   59.99999765
_symmetry_Int_Tables_number   1
_chemical_formula_structural   YCdGePt3
_chemical_formula_sum   'Y1 Cd1 Ge1 Pt3'
_cell_volume   106.69352997
_cell_formula_units_Z   1
loop_
 _symmetry_equiv_pos_site_id
 _symmetry_equiv_pos_as_xyz
  1  'x, y, z'
loop_
 _atom_site_type_symbol
 _atom_site_label
 _atom_site_symmetry_multiplicity
 _atom_site_fract_x
 _atom_site_fract_y
 _atom_site_fract_z
 _atom_site_occupancy
  Y  Y0  1  0.00061950  0.00061950  0.99814151  1
  Cd  Cd0  1  0.25283016  0.25283016  0.24151452  1
  Ge  Ge0  1  0.62583868  0.62583868  0.12248497  1
  Pt  Pt0  1  0.62202214  0.12667038  0.62928733  1
  Pt  Pt1  1  0.62202214  0.62202214  0.62928733  1
  Pt  Pt2  1  0.12667038  0.62202214  0.62928733  1
loop_
_geom_bond_atom_site_label_1
_geom_bond_atom_site_label_2
_geom_bond_distance
_geom_bond_site_symmetry_2
Cd0 Pt1 2.943528 1_554
Cd0 Pt2 2.943535 1_554
Cd0 Pt0 2.943535 1_554
Cd0 Y0 3.073164 1_555
Cd0 Pt0 3.172357 1_555
Cd0 Pt2 3.172357 1_555
Cd0 Pt1 3.172364 1_545
Cd0 Pt1 3.172364 1_455
Cd0 Pt2 3.172372 1_545
Cd0 Pt0 3.172372 1_455
Cd0 Ge0 3.216267 1_555
Cd0 Ge0 3.216286 1_545
Cd0 Ge0 3.216286 1_455
Cd0 Y0 3.329835 1_564
Cd0 Y0 3.329836 1_654
Cd0 Y0 3.329858 1_554
Ge0 Pt1 2.566653 1_554
Ge0 Pt0 2.566656 1_564
Ge0 Pt2 2.566656 1_654
Ge0 Pt0 2.591941 1_555
Ge0 Pt2 2.591941 1_555
Ge0 Pt1 2.591944 1_555
Ge0 Y0 3.219592 1_664
Ge0 Y0 3.219596 1_654
Ge0 Y0 3.219596 1_564
Pt0 Pt2 2.728133 1_555
Pt0 Pt1 2.728133 1_555
Pt0 Pt2 2.779333 1_645
Pt0 Pt1 2.779333 1_545
Pt0 Y0 3.024310 1_654
Pt0 Y0 3.134919 1_655
Pt0 Y0 3.134929 1_555
Pt1 Pt2 2.728133 1_555
Pt1 Pt2 2.779333 1_655
Pt1 Y0 3.024305 1_664
Pt1 Y0 3.134924 1_655
Pt1 Y0 3.134924 1_565
Pt2 Y0 3.024309 1_564
Pt2 Y0 3.134919 1_565
Pt2 Y0 3.134929 1_555
