# generated using pymatgen
data_Tb(SiRh)2
_symmetry_space_group_name_H-M   'P 1'
_cell_length_a   4.04373272
_cell_length_b   4.04373418
_cell_length_c   5.74288787
_cell_angle_alpha   110.61362534
_cell_angle_beta   110.61363638
_cell_angle_gamma   90.00000843
_symmetry_Int_Tables_number   1
_chemical_formula_structural   Tb(SiRh)2
_chemical_formula_sum   'Tb1 Si2 Rh2'
_cell_volume   81.43921340
_cell_formula_units_Z   1
loop_
 _symmetry_equiv_pos_site_id
 _symmetry_equiv_pos_as_xyz
  1  'x, y, z'
loop_
 _atom_site_type_symbol
 _atom_site_label
 _atom_site_symmetry_multiplicity
 _atom_site_fract_x
 _atom_site_fract_y
 _atom_site_fract_z
 _atom_site_occupancy
  Tb  Tb0  1  0.00000000  -0.00000000  -0.00000000  1
  Si  Si0  1  0.62235399  0.62235399  0.24470797  1
  Si  Si1  1  0.37764601  0.37764601  0.75529203  1
  Rh  Rh0  1  0.25000000  0.75000000  0.50000000  1
  Rh  Rh1  1  0.75000000  0.25000000  0.50000000  1
loop_
_geom_bond_atom_site_label_1
_geom_bond_atom_site_label_2
_geom_bond_distance
_geom_bond_site_symmetry_2
Si0 Si1 2.437511 1_554
Si0 Tb0 3.108256 1_665
Si0 Tb0 3.108256 1_565
Si0 Tb0 3.108256 1_555
Si0 Tb0 3.108256 1_655
Si1 Tb0 3.108256 1_556
Si1 Tb0 3.108256 1_656
Si1 Tb0 3.108256 1_666
Si1 Tb0 3.108256 1_566
Rh0 Si0 2.388426 1_455
Rh0 Si0 2.388426 1_555
Rh0 Si1 2.388426 1_555
Rh0 Si1 2.388427 1_565
Rh0 Tb0 3.207672 1_666
Rh0 Tb0 3.207672 1_565
Rh0 Tb0 3.207673 1_566
Rh0 Tb0 3.207673 1_555
Rh1 Si1 2.388426 1_655
Rh1 Si1 2.388426 1_555
Rh1 Si0 2.388426 1_555
Rh1 Si0 2.388427 1_545
Rh1 Tb0 3.207672 1_555
Rh1 Tb0 3.207672 1_656
Rh1 Tb0 3.207673 1_655
Rh1 Tb0 3.207673 1_666
