# generated using pymatgen
data_Mo2P3O11
_symmetry_space_group_name_H-M   'P 1'
_cell_length_a   7.53211528
_cell_length_b   7.53211528
_cell_length_c   9.11986259
_cell_angle_alpha   70.50135001
_cell_angle_beta   70.50135001
_cell_angle_gamma   72.59529005
_symmetry_Int_Tables_number   1
_chemical_formula_structural   Mo2P3O11
_chemical_formula_sum   'Mo4 P6 O22'
_cell_volume   449.37604060
_cell_formula_units_Z   2
loop_
 _symmetry_equiv_pos_site_id
 _symmetry_equiv_pos_as_xyz
  1  'x, y, z'
loop_
 _atom_site_type_symbol
 _atom_site_label
 _atom_site_symmetry_multiplicity
 _atom_site_fract_x
 _atom_site_fract_y
 _atom_site_fract_z
 _atom_site_occupancy
  Mo  Mo0  1  0.35981200  0.88316300  0.70683200  1
  Mo  Mo1  1  0.63136700  0.11456100  0.79416600  1
  Mo  Mo2  1  0.11683700  0.64018800  0.29316800  1
  Mo  Mo3  1  0.88543900  0.36863300  0.20583400  1
  P  P0  1  0.54312700  0.67219300  0.03446800  1
  P  P1  1  0.32780700  0.45687300  0.96553200  1
  P  P2  1  0.67130800  0.54266300  0.53987000  1
  P  P3  1  0.45733700  0.32869200  0.46013000  1
  P  P4  1  0.03810200  0.96189800  0.50000000  1
  P  P5  1  0.96100300  0.03899700  0.00000000  1
  O  O0  1  0.05034700  0.76648300  0.46621000  1
  O  O1  1  0.52262000  0.84110600  0.87805600  1
  O  O2  1  0.15889400  0.47738000  0.12194400  1
  O  O3  1  0.61691900  0.28374400  0.31584600  1
  O  O4  1  0.28207500  0.61778100  0.82007200  1
  O  O5  1  0.84186300  0.53730500  0.38473900  1
  O  O6  1  0.13362000  0.00700100  0.85146100  1
  O  O7  1  0.02230600  0.12424000  0.35030800  1
  O  O8  1  0.60771200  0.74357800  0.56856500  1
  O  O9  1  0.38221900  0.71792500  0.17992800  1
  O  O10  1  0.71625600  0.38308100  0.68415400  1
  O  O11  1  0.25642200  0.39228800  0.43143500  1
  O  O12  1  0.23351700  0.94965300  0.53379000  1
  O  O13  1  0.96008800  0.22768000  0.02752000  1
  O  O14  1  0.77232000  0.03991200  0.97248000  1
  O  O15  1  0.49241800  0.50758200  0.50000000  1
  O  O16  1  0.74321700  0.62165600  0.05566500  1
  O  O17  1  0.99299900  0.86638000  0.14853900  1
  O  O18  1  0.46269500  0.15813600  0.61526100  1
  O  O19  1  0.37834400  0.25678300  0.94433500  1
  O  O20  1  0.87576000  0.97769400  0.64969200  1
  O  O21  1  0.50988100  0.49011900  0.00000000  1
loop_
_geom_bond_atom_site_label_1
_geom_bond_atom_site_label_2
_geom_bond_distance
_geom_bond_site_symmetry_2
Mo0 O12 1.958504 1_555
Mo0 O6 1.970503 1_565
Mo0 O8 2.078637 1_555
Mo0 O4 2.079268 1_555
Mo0 O1 2.181342 1_555
Mo0 O18 2.227328 1_565
Mo1 O14 2.067091 1_555
Mo1 O20 2.083189 1_545
Mo1 O10 2.120564 1_555
Mo1 O19 2.161216 1_555
Mo1 O1 2.244452 1_545
Mo1 O18 2.271719 1_555
Mo2 O0 1.958504 1_555
Mo2 O17 1.970503 1_455
Mo2 O11 2.078637 1_555
Mo2 O9 2.079268 1_555
Mo2 O2 2.181342 1_555
Mo2 O5 2.227335 1_455
Mo3 O13 2.067091 1_555
Mo3 O7 2.083189 1_655
Mo3 O3 2.120564 1_555
Mo3 O16 2.161216 1_555
Mo3 O2 2.244452 1_655
Mo3 O5 2.271717 1_555
O0 P4 1.572429 1_555
O1 P0 1.579653 1_556
O2 P1 1.579653 1_554
O3 P3 1.512929 1_555
O4 P1 1.526216 1_555
O5 P2 1.564392 1_555
O6 P5 1.561514 1_456
O7 P4 1.509985 1_545
O8 P2 1.528100 1_555
O9 P0 1.526216 1_555
O10 P2 1.512929 1_555
O11 P3 1.528100 1_555
O12 P4 1.572429 1_555
O13 P5 1.521149 1_555
O14 P5 1.521149 1_556
O15 P2 1.619188 1_555
O15 P3 1.619188 1_555
O16 P0 1.501929 1_555
O17 P5 1.561514 1_565
O18 P3 1.564396 1_555
O19 P1 1.501929 1_555
O20 P4 1.509985 1_655
O21 P0 1.608738 1_555
O21 P1 1.608738 1_554
