# generated using pymatgen
data_LiMn2(PO4)3
_symmetry_space_group_name_H-M   'P 1'
_cell_length_a   4.72929707
_cell_length_b   4.72929707
_cell_length_c   19.30170676
_cell_angle_alpha   88.31246783
_cell_angle_beta   88.31246783
_cell_angle_gamma   66.82638566
_symmetry_Int_Tables_number   1
_chemical_formula_structural   LiMn2(PO4)3
_chemical_formula_sum   'Li2 Mn4 P6 O24'
_cell_volume   396.62820205
_cell_formula_units_Z   2
loop_
 _symmetry_equiv_pos_site_id
 _symmetry_equiv_pos_as_xyz
  1  'x, y, z'
loop_
 _atom_site_type_symbol
 _atom_site_label
 _atom_site_symmetry_multiplicity
 _atom_site_fract_x
 _atom_site_fract_y
 _atom_site_fract_z
 _atom_site_occupancy
  Li  Li0  1  0.99852900  0.99852900  0.83818700  1
  Li  Li1  1  0.00147100  0.00147100  0.16181300  1
  Mn  Mn0  1  0.00115900  0.00115900  0.33128500  1
  Mn  Mn1  1  0.99884100  0.99884100  0.66871500  1
  Mn  Mn2  1  0.00000000  0.00000000  0.50000000  1
  Mn  Mn3  1  0.00000000  0.00000000  0.00000000  1
  P  P0  1  0.34396400  0.34396400  0.41253800  1
  P  P1  1  0.65603600  0.65603600  0.58746200  1
  P  P2  1  0.34681000  0.34681000  0.74515600  1
  P  P3  1  0.65319000  0.65319000  0.25484400  1
  P  P4  1  0.64966900  0.64966900  0.92285700  1
  P  P5  1  0.35033100  0.35033100  0.07714300  1
  O  O0  1  0.76775200  0.76775200  0.31837800  1
  O  O1  1  0.28987700  0.77484000  0.92763800  1
  O  O2  1  0.77551800  0.29283900  0.26129300  1
  O  O3  1  0.25760200  0.25760200  0.81566500  1
  O  O4  1  0.78261000  0.29374000  0.58804000  1
  O  O5  1  0.24038400  0.24038400  0.48130800  1
  O  O6  1  0.76252200  0.76252200  0.65140300  1
  O  O7  1  0.23747800  0.23747800  0.34859700  1
  O  O8  1  0.75961600  0.75961600  0.51869200  1
  O  O9  1  0.22516000  0.71012300  0.07236200  1
  O  O10  1  0.25988700  0.25988700  0.14822400  1
  O  O11  1  0.29374000  0.78261000  0.58804000  1
  O  O12  1  0.76510100  0.76510100  0.98543300  1
  O  O13  1  0.23489900  0.23489900  0.01456700  1
  O  O14  1  0.70716100  0.22448200  0.73870700  1
  O  O15  1  0.23224800  0.23224800  0.68162200  1
  O  O16  1  0.70626000  0.21739000  0.41196000  1
  O  O17  1  0.74239800  0.74239800  0.18433500  1
  O  O18  1  0.74011300  0.74011300  0.85177600  1
  O  O19  1  0.22448200  0.70716100  0.73870700  1
  O  O20  1  0.21739000  0.70626000  0.41196000  1
  O  O21  1  0.71012300  0.22516000  0.07236200  1
  O  O22  1  0.29283900  0.77551800  0.26129300  1
  O  O23  1  0.77484000  0.28987700  0.92763800  1
loop_
_geom_bond_atom_site_label_1
_geom_bond_atom_site_label_2
_geom_bond_distance
_geom_bond_site_symmetry_2
Li0 O18 2.047861 1_555
Li0 O3 2.076084 1_665
Li0 O23 2.209974 1_565
Li0 O1 2.209974 1_655
Li0 O14 2.367211 1_565
Li0 O19 2.367211 1_655
Li1 O10 2.047861 1_555
Li1 O17 2.076084 1_445
Li1 O21 2.209974 1_455
Li1 O9 2.209974 1_545
Li1 O22 2.367211 1_545
Li1 O2 2.367211 1_455
Mn0 O0 1.868268 1_445
Mn0 O7 1.907061 1_555
Mn0 O22 1.919198 1_545
Mn0 O2 1.919198 1_455
Mn0 O20 2.063735 1_545
Mn0 O16 2.063735 1_455
Mn1 O15 1.868268 1_665
Mn1 O6 1.907061 1_555
Mn1 O19 1.919198 1_655
Mn1 O14 1.919198 1_565
Mn1 O11 2.063735 1_655
Mn1 O4 2.063735 1_565
Mn2 O8 1.919344 1_445
Mn2 O5 1.919344 1_555
Mn2 O16 2.187829 1_455
Mn2 O20 2.187829 1_545
Mn2 O4 2.187829 1_455
Mn2 O11 2.187829 1_545
Mn3 O13 1.885570 1_555
Mn3 O12 1.885570 1_444
Mn3 O9 1.946792 1_545
Mn3 O21 1.946792 1_455
Mn3 O1 1.946792 1_544
Mn3 O23 1.946792 1_454
O0 P3 1.549268 1_555
O1 P4 1.566993 1_555
O2 P3 1.571717 1_555
O3 P2 1.510167 1_555
O4 P1 1.576785 1_555
O5 P0 1.534316 1_555
O6 P1 1.517640 1_555
O7 P0 1.517640 1_555
O8 P1 1.534316 1_555
O9 P5 1.566993 1_555
O10 P5 1.524181 1_555
O11 P1 1.576785 1_555
O12 P4 1.538539 1_555
O13 P5 1.538539 1_555
O14 P2 1.571717 1_555
O15 P2 1.549268 1_555
O16 P0 1.576785 1_555
O17 P3 1.510167 1_555
O18 P4 1.524181 1_555
O19 P2 1.571717 1_555
O20 P0 1.576785 1_555
O21 P5 1.566993 1_555
O22 P3 1.571717 1_555
O23 P4 1.566993 1_555
