# generated using pymatgen
data_Rh3W
_symmetry_space_group_name_H-M   'P 1'
_cell_length_a   5.47692595
_cell_length_b   5.47692656
_cell_length_c   4.34369129
_cell_angle_alpha   90.00000000
_cell_angle_beta   90.00000000
_cell_angle_gamma   120.00000866
_symmetry_Int_Tables_number   1
_chemical_formula_structural   Rh3W
_chemical_formula_sum   'Rh6 W2'
_cell_volume   112.84006633
_cell_formula_units_Z   2
loop_
 _symmetry_equiv_pos_site_id
 _symmetry_equiv_pos_as_xyz
  1  'x, y, z'
loop_
 _atom_site_type_symbol
 _atom_site_label
 _atom_site_symmetry_multiplicity
 _atom_site_fract_x
 _atom_site_fract_y
 _atom_site_fract_z
 _atom_site_occupancy
  Rh  Rh0  1  0.83329610  0.66659221  0.25000000  1
  Rh  Rh1  1  0.16670390  0.83329610  0.75000000  1
  Rh  Rh2  1  0.66659221  0.83329610  0.75000000  1
  Rh  Rh3  1  0.33340779  0.16670390  0.25000000  1
  Rh  Rh4  1  0.83329610  0.16670390  0.25000000  1
  Rh  Rh5  1  0.16670390  0.33340779  0.75000000  1
  W  W0  1  0.33333300  0.66666700  0.25000000  1
  W  W1  1  0.66666700  0.33333300  0.75000000  1
loop_
_geom_bond_atom_site_label_1
_geom_bond_atom_site_label_2
_geom_bond_distance
_geom_bond_site_symmetry_2
Rh0 W1 2.686174 1_554
Rh0 W1 2.686174 1_555
Rh0 Rh1 2.686588 1_654
Rh0 Rh1 2.686588 1_655
Rh0 Rh2 2.686588 1_555
Rh0 Rh2 2.686588 1_554
Rh0 Rh3 2.737851 1_555
Rh0 Rh4 2.737852 1_555
Rh0 W0 2.738460 1_655
Rh0 W0 2.738466 1_555
Rh0 Rh3 2.739074 1_665
Rh0 Rh4 2.739075 1_565
Rh1 W0 2.686171 1_556
Rh1 W0 2.686171 1_555
Rh1 Rh3 2.686588 1_565
Rh1 Rh3 2.686588 1_566
Rh1 Rh2 2.737851 1_555
Rh1 Rh5 2.737852 1_555
Rh1 W1 2.738463 1_455
Rh1 W1 2.738463 1_565
Rh1 Rh2 2.739075 1_455
Rh1 Rh5 2.739075 1_565
Rh2 W0 2.686173 1_555
Rh2 W0 2.686173 1_556
Rh2 Rh4 2.686588 1_566
Rh2 Rh4 2.686588 1_565
Rh2 Rh5 2.737851 1_555
Rh2 W1 2.738461 1_565
Rh2 W1 2.738466 1_555
Rh2 Rh5 2.739074 1_665
Rh3 W1 2.686173 1_554
Rh3 W1 2.686173 1_555
Rh3 Rh5 2.686588 1_554
Rh3 Rh5 2.686588 1_555
Rh3 Rh4 2.737851 1_555
Rh3 W0 2.738461 1_545
Rh3 W0 2.738466 1_555
Rh3 Rh4 2.739075 1_455
Rh4 W1 2.686171 1_554
Rh4 W1 2.686171 1_555
Rh4 Rh5 2.686588 1_655
Rh4 Rh5 2.686588 1_654
Rh4 W0 2.738463 1_655
Rh4 W0 2.738463 1_545
Rh5 W0 2.686174 1_555
Rh5 W0 2.686174 1_556
Rh5 W1 2.738460 1_455
Rh5 W1 2.738466 1_555
