# generated using pymatgen
data_Ca7TiFe2N9
_symmetry_space_group_name_H-M   'P 1'
_cell_length_a   9.83162535
_cell_length_b   6.03966922
_cell_length_c   9.02437388
_cell_angle_alpha   87.96414994
_cell_angle_beta   90.00000000
_cell_angle_gamma   90.00000000
_symmetry_Int_Tables_number   1
_chemical_formula_structural   Ca7TiFe2N9
_chemical_formula_sum   'Ca14 Ti2 Fe4 N18'
_cell_volume   535.52695936
_cell_formula_units_Z   2
loop_
 _symmetry_equiv_pos_site_id
 _symmetry_equiv_pos_as_xyz
  1  'x, y, z'
loop_
 _atom_site_type_symbol
 _atom_site_label
 _atom_site_symmetry_multiplicity
 _atom_site_fract_x
 _atom_site_fract_y
 _atom_site_fract_z
 _atom_site_occupancy
  Ca  Ca0  1  0.93796613  0.43311894  0.17258254  1
  Ca  Ca1  1  0.08113855  0.24558620  0.49616732  1
  Ca  Ca2  1  0.25000000  0.08803796  0.79802481  1
  Ca  Ca3  1  0.43796613  0.56688106  0.82741746  1
  Ca  Ca4  1  0.58113855  0.75441380  0.50383268  1
  Ca  Ca5  1  0.57874155  0.06061951  0.82416995  1
  Ca  Ca6  1  0.92125845  0.06061951  0.82416995  1
  Ca  Ca7  1  0.42125845  0.93938049  0.17583005  1
  Ca  Ca8  1  0.41886145  0.24558620  0.49616732  1
  Ca  Ca9  1  0.07874155  0.93938049  0.17583005  1
  Ca  Ca10  1  0.91886145  0.75441380  0.50383268  1
  Ca  Ca11  1  0.06203387  0.56688106  0.82741746  1
  Ca  Ca12  1  0.75000000  0.91196204  0.20197519  1
  Ca  Ca13  1  0.56203387  0.43311894  0.17258254  1
  Ti  Ti0  1  0.75000000  0.27986449  0.43589834  1
  Ti  Ti1  1  0.25000000  0.72013551  0.56410166  1
  Fe  Fe0  1  0.25000000  0.32871682  0.06599340  1
  Fe  Fe1  1  0.75000000  0.45967129  0.72462832  1
  Fe  Fe2  1  0.75000000  0.67128318  0.93400660  1
  Fe  Fe3  1  0.25000000  0.54032871  0.27537168  1
  N  N0  1  0.40173700  0.22919632  0.98125690  1
  N  N1  1  0.25000000  0.23588752  0.26751171  1
  N  N2  1  0.90327168  0.11712780  0.34137280  1
  N  N3  1  0.61020763  0.36132163  0.62852122  1
  N  N4  1  0.75000000  0.55495369  0.33477500  1
  N  N5  1  0.25000000  0.63592223  0.08085819  1
  N  N6  1  0.88979237  0.36132163  0.62852122  1
  N  N7  1  0.38979237  0.63867837  0.37147878  1
  N  N8  1  0.75000000  0.36407777  0.91914181  1
  N  N9  1  0.09672832  0.88287220  0.65862720  1
  N  N10  1  0.75000000  0.76411248  0.73248829  1
  N  N11  1  0.11020763  0.63867837  0.37147878  1
  N  N12  1  0.59826300  0.77080368  0.01874310  1
  N  N13  1  0.25000000  0.44504631  0.66522500  1
  N  N14  1  0.40327168  0.88287220  0.65862720  1
  N  N15  1  0.59672832  0.11712780  0.34137280  1
  N  N16  1  0.09826300  0.22919632  0.98125690  1
  N  N17  1  0.90173700  0.77080368  0.01874310  1
loop_
_geom_bond_atom_site_label_1
_geom_bond_atom_site_label_2
_geom_bond_distance
_geom_bond_site_symmetry_2
Ca0 N2 2.423289 1_555
Ca0 N17 2.452074 1_555
Ca0 N4 2.485058 1_555
Ca0 N16 2.670735 1_654
Ca0 N11 2.790886 1_655
Ca0 N8 2.981244 1_554
Ca1 N6 2.348110 1_455
Ca1 N2 2.385028 1_455
Ca1 N13 2.581783 1_555
Ca1 N9 2.596881 1_545
Ca1 N11 2.606646 1_555
Ca1 N1 2.650688 1_555
Ca2 N14 2.345098 1_545
Ca2 N9 2.345098 1_545
Ca2 N0 2.405572 1_555
Ca2 N16 2.405572 1_555
Ca2 N13 2.429383 1_555
Ca3 N14 2.423289 1_555
Ca3 N0 2.452074 1_555
Ca3 N13 2.485058 1_555
Ca3 N12 2.670735 1_556
Ca3 N3 2.790886 1_555
Ca3 N5 2.981244 1_556
Ca4 N7 2.348110 1_555
Ca4 N14 2.385028 1_555
Ca4 N4 2.581783 1_555
Ca4 N15 2.596881 1_565
Ca4 N3 2.606646 1_555
Ca4 N10 2.650688 1_555
Ca5 N12 2.442442 1_546
Ca5 N0 2.485405 1_555
Ca5 N3 2.506714 1_555
Ca5 N14 2.544480 1_545
Ca5 N10 2.613772 1_545
Ca5 N8 2.653353 1_555
Ca6 N17 2.442442 1_546
Ca6 N16 2.485405 1_655
Ca6 N6 2.506714 1_555
Ca6 N9 2.544480 1_645
Ca6 N10 2.613772 1_545
Ca6 N8 2.653353 1_555
Ca7 N0 2.442442 1_564
Ca7 N12 2.485405 1_555
Ca7 N7 2.506714 1_555
Ca7 N15 2.544480 1_565
Ca7 N1 2.613772 1_565
Ca7 N5 2.653353 1_555
Ca8 N3 2.348110 1_555
Ca8 N15 2.385028 1_555
Ca8 N13 2.581783 1_555
Ca8 N14 2.596881 1_545
Ca8 N7 2.606646 1_555
Ca8 N1 2.650688 1_555
Ca9 N16 2.442442 1_564
Ca9 N17 2.485405 1_455
Ca9 N11 2.506714 1_555
Ca9 N2 2.544480 1_465
Ca9 N1 2.613772 1_565
Ca9 N5 2.653353 1_555
Ca10 N11 2.348110 1_655
Ca10 N9 2.385028 1_655
Ca10 N4 2.581783 1_555
Ca10 N2 2.596881 1_565
Ca10 N6 2.606646 1_555
Ca10 N10 2.650688 1_555
Ca11 N9 2.423289 1_555
Ca11 N16 2.452074 1_555
Ca11 N13 2.485058 1_555
Ca11 N17 2.670735 1_456
Ca11 N6 2.790886 1_455
Ca11 N5 2.981244 1_556
Ca12 N2 2.345098 1_565
Ca12 N15 2.345098 1_565
Ca12 N17 2.405572 1_555
Ca12 N12 2.405572 1_555
Ca12 N4 2.429383 1_555
Ca13 N15 2.423289 1_555
Ca13 N12 2.452074 1_555
Ca13 N4 2.485058 1_555
Ca13 N0 2.670735 1_554
Ca13 N7 2.790886 1_555
Ca13 N8 2.981244 1_554
Fe0 N0 1.790037 1_554
Fe0 N16 1.790037 1_554
Fe0 N5 1.865009 1_555
Fe0 N1 1.883910 1_555
Fe1 N6 1.740861 1_555
Fe1 N3 1.740861 1_555
Fe1 N8 1.828286 1_555
Fe1 N10 1.842608 1_555
Fe2 N17 1.790037 1_556
Fe2 N12 1.790037 1_556
Fe2 N8 1.865009 1_555
Fe2 N10 1.883910 1_555
Fe3 N7 1.740861 1_555
Fe3 N11 1.740861 1_555
Fe3 N5 1.828286 1_555
Fe3 N1 1.842608 1_555
N2 Ti0 2.006006 1_555
N3 Ti0 2.283293 1_555
N4 Ti0 1.866943 1_555
N6 Ti0 2.283293 1_555
N7 Ti1 2.283293 1_555
N9 Ti1 2.006006 1_555
N11 Ti1 2.283293 1_555
N13 Ti1 1.866943 1_555
N14 Ti1 2.006006 1_555
N15 Ti0 2.006006 1_555
