# generated using pymatgen
data_Sc2Be2SiGe
_symmetry_space_group_name_H-M   'P 1'
_cell_length_a   3.78044049
_cell_length_b   3.78043939
_cell_length_c   7.45448191
_cell_angle_alpha   90.00000000
_cell_angle_beta   90.00000000
_cell_angle_gamma   119.99998365
_symmetry_Int_Tables_number   1
_chemical_formula_structural   Sc2Be2SiGe
_chemical_formula_sum   'Sc2 Be2 Si1 Ge1'
_cell_volume   92.26412213
_cell_formula_units_Z   1
loop_
 _symmetry_equiv_pos_site_id
 _symmetry_equiv_pos_as_xyz
  1  'x, y, z'
loop_
 _atom_site_type_symbol
 _atom_site_label
 _atom_site_symmetry_multiplicity
 _atom_site_fract_x
 _atom_site_fract_y
 _atom_site_fract_z
 _atom_site_occupancy
  Sc  Sc0  1  0.00000000  0.00000000  0.50293342  1
  Sc  Sc1  1  0.00000000  0.00000000  0.99706658  1
  Be  Be0  1  0.66666700  0.33333300  0.75000000  1
  Be  Be1  1  0.33333300  0.66666700  0.25000000  1
  Si  Si0  1  0.33333300  0.66666700  0.75000000  1
  Ge  Ge0  1  0.66666700  0.33333300  0.25000000  1
loop_
_geom_bond_atom_site_label_1
_geom_bond_atom_site_label_2
_geom_bond_distance
_geom_bond_site_symmetry_2
Sc0 Si0 2.855863 1_545
Sc0 Si0 2.855866 1_555
Sc0 Si0 2.855866 1_445
Sc1 Si0 2.855863 1_545
Sc1 Si0 2.855866 1_555
Sc1 Si0 2.855866 1_445
Be0 Si0 2.182636 1_545
Be0 Si0 2.182637 1_655
Be0 Si0 2.182642 1_555
Be0 Sc1 2.855863 1_655
Be0 Sc0 2.855863 1_655
Be0 Sc1 2.855866 1_665
Be0 Sc0 2.855866 1_665
Be0 Sc1 2.855866 1_555
Be0 Sc0 2.855866 1_555
Be1 Ge0 2.182636 1_565
Be1 Ge0 2.182637 1_455
Be1 Ge0 2.182642 1_555
Be1 Sc0 2.884261 1_565
Be1 Sc1 2.884261 1_564
Be1 Sc0 2.884264 1_555
Be1 Sc1 2.884264 1_554
Be1 Sc0 2.884264 1_665
Be1 Sc1 2.884264 1_664
Ge0 Sc0 2.884261 1_655
Ge0 Sc1 2.884261 1_654
Ge0 Sc0 2.884264 1_665
Ge0 Sc1 2.884264 1_664
Ge0 Sc0 2.884264 1_555
Ge0 Sc1 2.884264 1_554
