# generated using pymatgen
data_Hf(ZrH5)3
_symmetry_space_group_name_H-M   'P 1'
_cell_length_a   6.97016307
_cell_length_b   6.96958539
_cell_length_c   6.94934433
_cell_angle_alpha   109.47277098
_cell_angle_beta   109.47614272
_cell_angle_gamma   109.58414298
_symmetry_Int_Tables_number   1
_chemical_formula_structural   Hf(ZrH5)3
_chemical_formula_sum   'Hf2 Zr6 H30'
_cell_volume   259.49550582
_cell_formula_units_Z   2
loop_
 _symmetry_equiv_pos_site_id
 _symmetry_equiv_pos_as_xyz
  1  'x, y, z'
loop_
 _atom_site_type_symbol
 _atom_site_label
 _atom_site_symmetry_multiplicity
 _atom_site_fract_x
 _atom_site_fract_y
 _atom_site_fract_z
 _atom_site_occupancy
  Hf  Hf0  1  0.90407003  0.90423315  0.90424483  1
  Hf  Hf1  1  0.49982420  0.99998732  0.09575517  1
  Zr  Zr0  1  0.99897745  0.09266133  0.49905258  1
  Zr  Zr1  1  0.09353017  0.50075171  0.99996078  1
  Zr  Zr2  1  0.99992487  0.59360875  0.50094742  1
  Zr  Zr3  1  0.59356839  0.50078993  0.00003922  1
  Zr  Zr4  1  0.50090906  0.99997962  0.59533545  1
  Zr  Zr5  1  0.40557262  0.40464417  0.40466455  1
  H  H0  1  0.65388420  0.96841809  0.38211886  1
  H  H1  1  0.23049607  0.31391948  0.84467636  1
  H  H2  1  0.18568129  0.41586619  0.53007109  1
  H  H3  1  0.08210493  0.26643706  0.11101697  1
  H  H4  1  0.26930668  0.10956445  0.08073872  1
  H  H5  1  0.11109013  0.08059418  0.26588560  1
  H  H6  1  0.47108696  0.15542010  0.88898303  1
  H  H7  1  0.73078722  0.34496365  0.81334850  1
  H  H8  1  0.62454308  0.37326968  0.24998610  1
  H  H9  1  0.25100342  0.62535588  0.37554835  1
  H  H10  1  0.74868577  0.87541768  0.12326425  1
  H  H11  1  0.12542052  0.75215243  0.87673575  1
  H  H12  1  0.37545507  0.24980753  0.62445165  1
  H  H13  1  0.87455798  0.12328358  0.75001390  1
  H  H14  1  0.77176535  0.58630024  0.61788114  1
  H  H15  1  0.31436707  0.84623836  0.22868872  1
  H  H16  1  0.38730632  0.65988549  0.96962543  1
  H  H17  1  0.96780308  0.38520476  0.65478660  1
  H  H18  1  0.53107879  0.18517192  0.41374479  1
  H  H19  1  0.41743873  0.53161615  0.18665150  1
  H  H20  1  0.84022805  0.22791913  0.30961064  1
  H  H21  1  0.91767889  0.69025906  0.03037457  1
  H  H22  1  0.81301748  0.73041816  0.34521340  1
  H  H23  1  0.15561219  0.88579710  0.46992891  1
  H  H24  1  0.68856796  0.02882572  0.91926128  1
  H  H25  1  0.34520453  0.81470858  0.73411440  1
  H  H26  1  0.88582071  0.46924312  0.15532364  1
  H  H27  1  0.61733300  0.77142813  0.58625521  1
  H  H28  1  0.58567835  0.61754964  0.77131128  1
  H  H29  1  0.03061841  0.91830848  0.69038936  1
loop_
_geom_bond_atom_site_label_1
_geom_bond_atom_site_label_2
_geom_bond_distance
_geom_bond_site_symmetry_2
H0 Zr0 2.006752 1_565
H0 Hf1 2.046241 1_555
H0 Zr4 2.091466 1_555
H1 Zr0 2.007184 1_455
H1 Zr3 2.072972 1_556
H1 Zr1 2.086859 1_555
H2 Zr5 2.010058 1_555
H2 Zr2 2.078369 1_455
H2 Zr0 2.082844 1_455
H3 Zr1 2.015690 1_554
H3 Hf0 2.066345 1_444
H3 Zr5 2.083504 1_555
H4 Hf1 1.984870 1_545
H4 Hf0 2.082913 1_444
H4 Zr5 2.092174 1_555
H5 Zr0 2.010183 1_455
H5 Hf0 2.059668 1_444
H5 Zr5 2.089035 1_555
H6 Zr3 2.015683 1_556
H6 Hf1 2.066351 1_546
H6 Zr4 2.083512 1_545
H7 Zr4 2.003420 1_545
H7 Zr1 2.070694 1_655
H7 Zr3 2.088500 1_556
H8 Hf1 2.162489 1_545
H8 Zr5 2.166506 1_555
H8 Zr2 2.173409 1_555
H8 Zr3 2.182059 1_555
H9 Zr4 2.168496 1_555
H9 Zr1 2.170451 1_554
H9 Zr5 2.177410 1_555
H9 Zr2 2.181055 1_455
H10 Hf0 2.164986 1_554
H10 Hf1 2.167554 1_555
H10 Zr0 2.170447 1_565
H10 Zr3 2.172332 1_555
H11 Hf1 2.164986 1_556
H11 Hf0 2.167551 1_455
H11 Zr2 2.170448 1_455
H11 Zr1 2.172320 1_555
H12 Zr5 2.168495 1_555
H12 Zr3 2.170449 1_556
H12 Zr4 2.177414 1_545
H12 Zr0 2.181055 1_455
H13 Hf0 2.162483 1_545
H13 Zr4 2.166506 1_545
H13 Zr0 2.173404 1_555
H13 Zr1 2.182064 1_655
H14 Zr2 2.006752 1_555
H14 Hf0 2.046239 1_555
H14 Zr5 2.091472 1_555
H15 Zr1 2.006455 1_554
H15 Hf1 2.049475 1_555
H15 Zr4 2.089837 1_555
H16 Hf1 1.977916 1_556
H16 Zr3 2.088878 1_556
H16 Zr1 2.094931 1_555
H17 Zr1 2.001913 1_655
H17 Zr2 2.068741 1_555
H17 Zr0 2.087642 1_555
H18 Zr5 2.008387 1_555
H18 Hf1 2.045848 1_545
H18 Zr4 2.093703 1_545
H19 Zr5 2.003425 1_555
H19 Zr3 2.070689 1_555
H19 Zr1 2.088494 1_554
H20 Hf1 1.977283 1_545
H20 Zr2 2.086780 1_555
H20 Zr0 2.097979 1_555
H21 Hf0 1.977925 1_554
H21 Zr1 2.088884 1_654
H21 Zr3 2.094925 1_555
H22 Zr3 2.001915 1_555
H22 Zr0 2.068741 1_565
H22 Zr2 2.087638 1_555
H23 Zr4 2.010054 1_555
H23 Zr0 2.078368 1_465
H23 Zr2 2.082859 1_455
H24 Hf0 1.984871 1_545
H24 Hf1 2.082919 1_546
H24 Zr4 2.092173 1_545
H25 Zr2 2.010183 1_455
H25 Hf1 2.059668 1_556
H25 Zr4 2.089038 1_555
H26 Zr2 2.007185 1_555
H26 Zr1 2.072973 1_654
H26 Zr3 2.086866 1_555
H27 Zr4 2.008371 1_555
H27 Hf0 2.045854 1_555
H27 Zr5 2.093709 1_555
H28 Zr3 2.006460 1_556
H28 Hf0 2.049483 1_555
H28 Zr5 2.089837 1_555
H29 Hf0 1.977282 1_455
H29 Zr0 2.086780 1_465
H29 Zr2 2.097976 1_455
