# generated using pymatgen
data_CeNiGe2
_symmetry_space_group_name_H-M   'P 1'
_cell_length_a   8.60044834
_cell_length_b   8.60044834
_cell_length_c   4.22164259
_cell_angle_alpha   90.00000000
_cell_angle_beta   90.00000000
_cell_angle_gamma   151.44561953
_symmetry_Int_Tables_number   1
_chemical_formula_structural   CeNiGe2
_chemical_formula_sum   'Ce2 Ni2 Ge4'
_cell_volume   149.26048917
_cell_formula_units_Z   2
loop_
 _symmetry_equiv_pos_site_id
 _symmetry_equiv_pos_as_xyz
  1  'x, y, z'
loop_
 _atom_site_type_symbol
 _atom_site_label
 _atom_site_symmetry_multiplicity
 _atom_site_fract_x
 _atom_site_fract_y
 _atom_site_fract_z
 _atom_site_occupancy
  Ce  Ce0  1  0.89185616  0.10814384  0.25000000  1
  Ce  Ce1  1  0.10814384  0.89185616  0.75000000  1
  Ni  Ni0  1  0.68216117  0.31783883  0.25000000  1
  Ni  Ni1  1  0.31783883  0.68216117  0.75000000  1
  Ge  Ge0  1  0.45754707  0.54245293  0.75000000  1
  Ge  Ge1  1  0.54245293  0.45754707  0.25000000  1
  Ge  Ge2  1  0.74935216  0.25064784  0.75000000  1
  Ge  Ge3  1  0.25064784  0.74935216  0.25000000  1
loop_
_geom_bond_atom_site_label_1
_geom_bond_atom_site_label_2
_geom_bond_distance
_geom_bond_site_symmetry_2
Ce0 Ge3 3.168497 1_655
Ce0 Ge3 3.168497 1_545
Ce0 Ge2 3.177816 1_555
Ce0 Ge2 3.177816 1_554
Ce0 Ge0 3.186418 1_654
Ce0 Ge0 3.186418 1_655
Ce0 Ge0 3.186418 1_544
Ce0 Ge0 3.186418 1_545
Ce0 Ni1 3.236743 1_545
Ce0 Ni1 3.236743 1_654
Ce0 Ni1 3.236743 1_655
Ce0 Ni1 3.236743 1_544
Ce0 Ge1 3.286433 1_655
Ce0 Ge1 3.286433 1_545
Ce1 Ge2 3.168497 1_565
Ce1 Ge2 3.168497 1_455
Ce1 Ge3 3.177816 1_555
Ce1 Ge3 3.177816 1_556
Ce1 Ge1 3.186418 1_566
Ce1 Ge1 3.186418 1_455
Ce1 Ge1 3.186418 1_456
Ce1 Ge1 3.186418 1_565
Ce1 Ni0 3.236743 1_456
Ce1 Ni0 3.236743 1_455
Ce1 Ni0 3.236743 1_565
Ce1 Ni0 3.236743 1_566
Ce1 Ge0 3.286433 1_565
Ce1 Ge0 3.286433 1_455
Ge0 Ni1 2.328885 1_555
Ge0 Ge1 2.541413 1_555
Ge0 Ge1 2.541413 1_556
Ge1 Ni0 2.328885 1_555
Ge2 Ni0 2.389577 1_556
Ge2 Ni0 2.389577 1_555
Ge2 Ni1 2.408720 1_655
Ge2 Ni1 2.408720 1_545
Ge3 Ni1 2.389577 1_554
Ge3 Ni1 2.389577 1_555
Ge3 Ni0 2.408720 1_565
Ge3 Ni0 2.408720 1_455
