# generated using pymatgen
data_K2BaSb2Pb
_symmetry_space_group_name_H-M   'P 1'
_cell_length_a   4.93663629
_cell_length_b   9.57784576
_cell_length_c   10.01027387
_cell_angle_alpha   90.00000000
_cell_angle_beta   90.00000000
_cell_angle_gamma   90.00000000
_symmetry_Int_Tables_number   1
_chemical_formula_structural   K2BaSb2Pb
_chemical_formula_sum   'K4 Ba2 Sb4 Pb2'
_cell_volume   473.30918242
_cell_formula_units_Z   2
loop_
 _symmetry_equiv_pos_site_id
 _symmetry_equiv_pos_as_xyz
  1  'x, y, z'
loop_
 _atom_site_type_symbol
 _atom_site_label
 _atom_site_symmetry_multiplicity
 _atom_site_fract_x
 _atom_site_fract_y
 _atom_site_fract_z
 _atom_site_occupancy
  K  K0  1  0.50000000  0.05144527  0.41654727  1
  K  K1  1  0.00000000  0.37690522  0.31021738  1
  K  K2  1  0.50000000  0.55144527  0.58345273  1
  K  K3  1  0.00000000  0.87690522  0.68978262  1
  Ba  Ba0  1  0.00000000  0.46300397  0.93425382  1
  Ba  Ba1  1  0.00000000  0.96300397  0.06574618  1
  Sb  Sb0  1  0.00000000  0.27078851  0.64405197  1
  Sb  Sb1  1  0.50000000  0.24346205  0.08199273  1
  Sb  Sb2  1  0.00000000  0.77078851  0.35594803  1
  Sb  Sb3  1  0.50000000  0.74346205  0.91800727  1
  Pb  Pb0  1  0.50000000  0.13991499  0.79478707  1
  Pb  Pb1  1  0.50000000  0.63991499  0.20521293  1
loop_
_geom_bond_atom_site_label_1
_geom_bond_atom_site_label_2
_geom_bond_distance
_geom_bond_site_symmetry_2
K0 Sb2 3.699512 1_545
K0 Sb2 3.699512 1_645
K0 Sb1 3.820733 1_555
K0 Pb0 3.879942 1_555
K0 Sb0 3.961387 1_655
K0 Sb0 3.961387 1_555
K1 Sb0 3.492917 1_555
K1 Sb1 3.597984 1_555
K1 Sb1 3.597984 1_455
K1 Pb1 3.680102 1_555
K1 Pb1 3.680102 1_455
K1 Sb2 3.800226 1_555
K2 Sb0 3.699512 1_555
K2 Sb0 3.699512 1_655
K2 Sb3 3.820733 1_555
K2 Pb1 3.879942 1_555
K2 Sb2 3.961387 1_555
K2 Sb2 3.961387 1_655
K3 Sb2 3.492917 1_555
K3 Sb3 3.597984 1_455
K3 Sb3 3.597984 1_555
K3 Pb0 3.680102 1_465
K3 Pb0 3.680102 1_565
K3 Sb0 3.800226 1_565
Ba0 Sb0 3.439236 1_555
Ba0 Sb1 3.563884 1_556
Ba0 Sb1 3.563884 1_456
Ba0 Sb3 3.651661 1_555
Ba0 Sb3 3.651661 1_455
Ba0 Pb1 4.039883 1_456
Ba0 Pb1 4.039883 1_556
Ba0 Pb0 4.197332 1_455
Ba0 Pb0 4.197332 1_555
Ba1 Sb2 3.439236 1_555
Ba1 Sb3 3.563884 1_454
Ba1 Sb3 3.563884 1_554
Ba1 Sb1 3.651661 1_465
Ba1 Sb1 3.651661 1_565
Ba1 Pb0 4.039883 1_464
Ba1 Pb0 4.039883 1_564
Ba1 Pb1 4.197332 1_455
Ba1 Pb1 4.197332 1_555
Pb0 Sb1 3.041258 1_556
Pb0 Sb0 3.152872 1_655
Pb0 Sb0 3.152872 1_555
Pb1 Sb3 3.041258 1_554
Pb1 Sb2 3.152872 1_655
Pb1 Sb2 3.152872 1_555
