# generated using pymatgen
data_MgSiO3
_symmetry_space_group_name_H-M   'P 1'
_cell_length_a   8.79652390
_cell_length_b   5.16435374
_cell_length_c   9.37779770
_cell_angle_alpha   76.66814828
_cell_angle_beta   90.00000000
_cell_angle_gamma   90.00000000
_symmetry_Int_Tables_number   1
_chemical_formula_structural   MgSiO3
_chemical_formula_sum   'Mg8 Si8 O24'
_cell_volume   414.53715067
_cell_formula_units_Z   8
loop_
 _symmetry_equiv_pos_site_id
 _symmetry_equiv_pos_as_xyz
  1  'x, y, z'
loop_
 _atom_site_type_symbol
 _atom_site_label
 _atom_site_symmetry_multiplicity
 _atom_site_fract_x
 _atom_site_fract_y
 _atom_site_fract_z
 _atom_site_occupancy
  Mg  Mg0  1  0.65371943  0.96405241  0.25117758  1
  Mg  Mg1  1  0.15371943  0.53594759  0.74882242  1
  Mg  Mg2  1  0.34628057  0.03594759  0.74882242  1
  Mg  Mg3  1  0.84628057  0.46405241  0.25117758  1
  Mg  Mg4  1  0.01207115  0.95639431  0.25587273  1
  Mg  Mg5  1  0.51207115  0.54360569  0.74412727  1
  Mg  Mg6  1  0.98792885  0.04360569  0.74412727  1
  Mg  Mg7  1  0.48792885  0.45639431  0.25587273  1
  Si  Si0  1  0.34109611  0.25184721  0.04343445  1
  Si  Si1  1  0.84109611  0.24815279  0.95656555  1
  Si  Si2  1  0.65890389  0.74815279  0.95656555  1
  Si  Si3  1  0.15890389  0.75184721  0.04343445  1
  Si  Si4  1  0.83726838  0.67555838  0.55364685  1
  Si  Si5  1  0.33726838  0.82444162  0.44635315  1
  Si  Si6  1  0.16273162  0.32444162  0.44635315  1
  Si  Si7  1  0.66273162  0.17555838  0.55364685  1
  O  O0  1  0.80698212  0.34630669  0.60582243  1
  O  O1  1  0.30698212  0.15369331  0.39417757  1
  O  O2  1  0.19301788  0.65369331  0.39417757  1
  O  O3  1  0.69301788  0.84630669  0.60582243  1
  O  O4  1  0.51713689  0.25635149  0.63428396  1
  O  O5  1  0.01713689  0.24364851  0.36571604  1
  O  O6  1  0.48286311  0.74364851  0.36571604  1
  O  O7  1  0.98286311  0.75635149  0.63428396  1
  O  O8  1  0.66051464  0.24708287  0.37604214  1
  O  O9  1  0.16051464  0.25291713  0.62395786  1
  O  O10  1  0.33948536  0.75291713  0.62395786  1
  O  O11  1  0.83948536  0.74708287  0.37604214  1
  O  O12  1  0.21861166  0.01025948  0.10644402  1
  O  O13  1  0.71861166  0.48974052  0.89355598  1
  O  O14  1  0.78138834  0.98974052  0.89355598  1
  O  O15  1  0.28138834  0.51025948  0.10644402  1
  O  O16  1  0.33964440  0.32055768  0.86658771  1
  O  O17  1  0.83964440  0.17944232  0.13341229  1
  O  O18  1  0.66035560  0.67944232  0.13341229  1
  O  O19  1  0.16035560  0.82055768  0.86658771  1
  O  O20  1  0.50142561  0.19691685  0.12299223  1
  O  O21  1  0.00142561  0.30308315  0.87700777  1
  O  O22  1  0.49857439  0.80308315  0.87700777  1
  O  O23  1  0.99857439  0.69691685  0.12299223  1
loop_
_geom_bond_atom_site_label_1
_geom_bond_atom_site_label_2
_geom_bond_distance
_geom_bond_site_symmetry_2
Mg0 O20 2.004806 1_565
Mg0 O18 2.032748 1_555
Mg0 O6 2.035760 1_555
Mg0 O8 2.073769 1_565
Mg0 O17 2.136650 1_565
Mg0 O11 2.166065 1_555
Mg1 O21 2.004806 1_555
Mg1 O19 2.032748 1_555
Mg1 O7 2.035760 1_455
Mg1 O9 2.073769 1_555
Mg1 O16 2.136650 1_555
Mg1 O10 2.166065 1_555
Mg2 O22 2.004806 1_545
Mg2 O16 2.032748 1_555
Mg2 O4 2.035760 1_555
Mg2 O10 2.073769 1_545
Mg2 O19 2.136650 1_545
Mg2 O9 2.166065 1_555
Mg3 O23 2.004806 1_555
Mg3 O17 2.032748 1_555
Mg3 O5 2.035760 1_655
Mg3 O11 2.073769 1_555
Mg3 O18 2.136650 1_555
Mg3 O8 2.166065 1_555
Mg4 O5 1.992116 1_565
Mg4 O23 2.032909 1_455
Mg4 O11 2.044855 1_455
Mg4 O17 2.082352 1_465
Mg4 O12 2.272044 1_565
Mg4 O2 2.392575 1_555
Mg5 O4 1.992116 1_555
Mg5 O22 2.032909 1_555
Mg5 O10 2.044855 1_555
Mg5 O16 2.082352 1_555
Mg5 O13 2.272044 1_555
Mg5 O3 2.392575 1_555
Mg6 O7 1.992116 1_545
Mg6 O21 2.032909 1_655
Mg6 O9 2.044855 1_655
Mg6 O19 2.082352 1_645
Mg6 O14 2.272044 1_545
Mg6 O0 2.392575 1_555
Mg7 O6 1.992116 1_555
Mg7 O20 2.032909 1_555
Mg7 O8 2.044855 1_555
Mg7 O18 2.082352 1_555
Mg7 O15 2.272044 1_555
Mg7 O1 2.392575 1_555
O0 Si4 1.678677 1_555
O0 Si7 1.681096 1_555
O1 Si5 1.678677 1_545
O1 Si6 1.681096 1_555
O2 Si6 1.678677 1_555
O2 Si5 1.681096 1_555
O3 Si7 1.678677 1_565
O3 Si4 1.681096 1_555
O4 Si7 1.591133 1_555
O5 Si6 1.591133 1_555
O6 Si5 1.591133 1_555
O7 Si4 1.591133 1_555
O8 Si7 1.620840 1_555
O9 Si6 1.620840 1_555
O10 Si5 1.620840 1_555
O11 Si4 1.620840 1_555
O12 Si0 1.651256 1_555
O12 Si3 1.664228 1_545
O13 Si1 1.651256 1_555
O13 Si2 1.664228 1_555
O14 Si2 1.651256 1_555
O14 Si1 1.664228 1_565
O15 Si3 1.651256 1_555
O15 Si0 1.664228 1_555
O16 Si0 1.614026 1_556
O17 Si1 1.614026 1_554
O18 Si2 1.614026 1_554
O19 Si3 1.614026 1_556
O20 Si0 1.590145 1_555
O21 Si1 1.590145 1_455
O22 Si2 1.590145 1_555
O23 Si3 1.590145 1_655
