# generated using pymatgen
data_HfBe9NbW
_symmetry_space_group_name_H-M   'P 1'
_cell_length_a   7.52742143
_cell_length_b   7.52742141
_cell_length_c   7.52742130
_cell_angle_alpha   35.12765369
_cell_angle_beta   35.12765703
_cell_angle_gamma   35.12764792
_symmetry_Int_Tables_number   1
_chemical_formula_structural   HfBe9NbW
_chemical_formula_sum   'Hf1 Be9 Nb1 W1'
_cell_volume   126.11501123
_cell_formula_units_Z   1
loop_
 _symmetry_equiv_pos_site_id
 _symmetry_equiv_pos_as_xyz
  1  'x, y, z'
loop_
 _atom_site_type_symbol
 _atom_site_label
 _atom_site_symmetry_multiplicity
 _atom_site_fract_x
 _atom_site_fract_y
 _atom_site_fract_z
 _atom_site_occupancy
  Hf  Hf0  1  0.00164435  0.00164435  0.00164435  1
  Be  Be0  1  0.49974034  0.49974034  0.49974034  1
  Be  Be1  1  0.33407284  0.33407284  0.33407384  1
  Be  Be2  1  0.66434867  0.66434867  0.66434767  1
  Be  Be3  1  0.07907477  0.58549188  0.58549188  1
  Be  Be4  1  0.58549188  0.58549188  0.07907477  1
  Be  Be5  1  0.58549188  0.07907477  0.58549188  1
  Be  Be6  1  0.41302157  0.92411321  0.41302157  1
  Be  Be7  1  0.92411321  0.41302157  0.41302157  1
  Be  Be8  1  0.41302157  0.41302157  0.92411321  1
  Nb  Nb0  1  0.85683248  0.85683248  0.85683248  1
  W  W0  1  0.14314545  0.14314545  0.14314545  1
loop_
_geom_bond_atom_site_label_1
_geom_bond_atom_site_label_2
_geom_bond_distance
_geom_bond_site_symmetry_2
Hf0 W0 2.995148 1_555
Hf0 Nb0 3.065227 1_444
Be0 Be5 2.203399 1_555
Be0 Be3 2.203399 1_555
Be0 Be4 2.203399 1_555
Be0 Be6 2.220772 1_555
Be0 Be7 2.220772 1_555
Be0 Be8 2.220772 1_555
Be0 W0 2.668757 1_565
Be0 W0 2.668757 1_655
Be0 W0 2.668757 1_556
Be0 Nb0 2.670719 1_545
Be0 Nb0 2.670719 1_455
Be0 Nb0 2.670719 1_554
Be1 Be6 2.192589 1_545
Be1 Be7 2.192589 1_455
Be1 Be8 2.192592 1_554
Be1 Be5 2.195955 1_555
Be1 Be3 2.195955 1_555
Be1 Be4 2.195958 1_555
Be1 Hf0 2.623010 1_556
Be1 Hf0 2.623014 1_565
Be1 Hf0 2.623014 1_655
Be2 Be6 2.175777 1_555
Be2 Be7 2.175777 1_555
Be2 Be8 2.175780 1_555
Be2 Be5 2.228116 1_565
Be2 Be3 2.228116 1_655
Be2 Be4 2.228119 1_556
Be2 Hf0 2.624281 1_665
Be2 Hf0 2.624285 1_656
Be2 Hf0 2.624285 1_566
Be3 Be5 2.242381 1_465
Be3 Be4 2.242382 1_456
Be3 Be5 2.300688 1_555
Be3 Be4 2.300689 1_555
Be3 W0 2.600378 1_556
Be3 W0 2.600379 1_565
Be3 Nb0 2.605338 1_455
Be3 Hf0 2.855065 1_565
Be3 Hf0 2.855065 1_556
Be4 Be5 2.242382 1_564
Be4 Be5 2.300689 1_555
Be4 W0 2.600378 1_655
Be4 W0 2.600378 1_565
Be4 Nb0 2.605338 1_554
Be4 Hf0 2.855065 1_565
Be4 Hf0 2.855065 1_655
Be5 W0 2.600379 1_556
Be5 W0 2.600379 1_655
Be5 Nb0 2.605338 1_545
Be5 Hf0 2.855065 1_655
Be5 Hf0 2.855065 1_556
Be6 Be7 2.221145 1_465
Be6 Be8 2.221145 1_564
Be6 Be7 2.321925 1_555
Be6 Be8 2.321925 1_555
Be6 W0 2.600992 1_565
Be6 Nb0 2.601453 1_554
Be6 Nb0 2.601453 1_455
Be6 Hf0 2.896920 1_566
Be6 Hf0 2.896920 1_665
Be7 Be8 2.221145 1_654
Be7 Be8 2.321926 1_555
Be7 W0 2.600993 1_655
Be7 Nb0 2.601453 1_554
Be7 Nb0 2.601453 1_545
Be7 Hf0 2.896919 1_656
Be7 Hf0 2.896920 1_665
Be8 W0 2.600993 1_556
Be8 Nb0 2.601452 1_455
Be8 Nb0 2.601452 1_545
Be8 Hf0 2.896919 1_656
Be8 Hf0 2.896919 1_566
Nb0 W0 2.805425 1_656
Nb0 W0 2.805425 1_566
Nb0 W0 2.805425 1_665
