# generated using pymatgen
data_Ba7Y2Mn3Cr2O20
_symmetry_space_group_name_H-M   'P 1'
_cell_length_a   5.84792054
_cell_length_b   5.84791988
_cell_length_c   17.46016059
_cell_angle_alpha   80.35956338
_cell_angle_beta   99.64043900
_cell_angle_gamma   119.99999550
_symmetry_Int_Tables_number   1
_chemical_formula_structural   Ba7Y2Mn3Cr2O20
_chemical_formula_sum   'Ba7 Y2 Mn3 Cr2 O20'
_cell_volume   507.34849691
_cell_formula_units_Z   1
loop_
 _symmetry_equiv_pos_site_id
 _symmetry_equiv_pos_as_xyz
  1  'x, y, z'
loop_
 _atom_site_type_symbol
 _atom_site_label
 _atom_site_symmetry_multiplicity
 _atom_site_fract_x
 _atom_site_fract_y
 _atom_site_fract_z
 _atom_site_occupancy
  Ba  Ba0  1  0.00000000  0.00000000  0.00000000  1
  Ba  Ba1  1  0.38519913  0.61480287  0.15559740  1
  Ba  Ba2  1  0.77160718  0.22839182  0.31482453  1
  Ba  Ba3  1  0.14636319  0.85363681  0.43909157  1
  Ba  Ba4  1  0.85363581  0.14636319  0.56090843  1
  Ba  Ba5  1  0.22839182  0.77160818  0.68517547  1
  Ba  Ba6  1  0.61480187  0.38520013  0.84440260  1
  Y  Y0  1  0.07379829  0.92620171  0.22139486  1
  Y  Y1  1  0.92620071  0.07379829  0.77860514  1
  Mn  Mn0  1  0.45075530  0.54924670  0.35226691  1
  Mn  Mn1  1  0.50000000  0.50000100  0.50000000  1
  Mn  Mn2  1  0.54924570  0.45075630  0.64773309  1
  Cr  Cr0  1  0.69829041  0.30170759  0.09487423  1
  Cr  Cr1  1  0.30170859  0.69829241  0.90512577  1
  O  O0  1  0.33489454  0.66510746  0.00468063  1
  O  O1  1  0.87456857  0.12522477  0.13569367  1
  O  O2  1  0.38634987  0.12543143  0.13569367  1
  O  O3  1  0.87477523  0.61365013  0.13569367  1
  O  O4  1  0.27612459  0.25853092  0.29391052  1
  O  O5  1  0.74147008  0.72368514  0.29391052  1
  O  O6  1  0.27631586  0.72387641  0.29391052  1
  O  O7  1  0.62169714  0.37813374  0.42958483  1
  O  O8  1  0.18601943  0.37830186  0.42958483  1
  O  O9  1  0.62186526  0.81397757  0.42958483  1
  O  O10  1  0.37813374  0.18602043  0.57041417  1
  O  O11  1  0.81397957  0.62169714  0.57041417  1
  O  O12  1  0.37830086  0.62186626  0.57041417  1
  O  O13  1  0.72368514  0.27612459  0.70608948  1
  O  O14  1  0.25852892  0.27631486  0.70608948  1
  O  O15  1  0.72387641  0.74147008  0.70608948  1
  O  O16  1  0.12522477  0.38634987  0.86430733  1
  O  O17  1  0.61365113  0.87456857  0.86430733  1
  O  O18  1  0.12543043  0.87477523  0.86430733  1
  O  O19  1  0.66510646  0.33489454  0.99531937  1
loop_
_geom_bond_atom_site_label_1
_geom_bond_atom_site_label_2
_geom_bond_distance
_geom_bond_site_symmetry_2
Ba0 O18 2.896168 1_544
Ba0 O17 2.896171 1_444
Ba0 O16 2.896174 1_554
Ba0 O1 2.896186 1_455
Ba0 O3 2.896187 1_445
Ba0 O2 2.896187 1_555
Ba0 O19 3.377245 1_444
Ba0 O0 3.377246 1_445
Ba0 O0 3.377250 1_545
Ba0 O19 3.377251 1_554
Ba0 O19 3.377255 1_454
Ba0 O0 3.377255 1_555
Ba1 O0 2.585296 1_555
Ba1 O6 2.842792 1_555
Ba1 O5 2.842795 1_555
Ba1 O4 2.842798 1_555
Ba1 O1 2.943431 1_565
Ba1 O3 2.943431 1_455
Ba1 O2 2.943448 1_555
Ba1 O2 2.944625 1_565
Ba1 O1 2.944643 1_455
Ba1 O3 2.944643 1_555
Ba2 O7 2.737514 1_555
Ba2 O8 2.737514 1_655
Ba2 O9 2.737521 1_545
Ba2 O6 2.947603 1_545
Ba2 O5 2.947611 1_555
Ba2 O4 2.947612 1_655
Ba2 O5 2.948714 1_545
Ba2 O4 2.948715 1_555
Ba2 O6 2.948724 1_655
Ba3 O9 2.936018 1_455
Ba3 O7 2.936020 1_565
Ba3 O8 2.936026 1_555
Ba3 O8 2.936999 1_565
Ba3 O7 2.937005 1_455
Ba3 O9 2.937009 1_555
Ba3 O10 2.947882 1_565
Ba3 O11 2.947882 1_455
Ba3 O12 2.947889 1_555
Ba3 O5 3.073288 1_455
Ba3 O6 3.073291 1_555
Ba3 O4 3.073291 1_565
Ba4 O11 2.936016 1_555
Ba4 O12 2.936022 1_545
Ba4 O10 2.936025 1_655
Ba4 O10 2.936998 1_555
Ba4 O12 2.937001 1_655
Ba4 O11 2.937006 1_545
Ba4 O8 2.947896 1_655
Ba4 O9 2.947903 1_545
Ba4 O7 2.947903 1_555
Ba4 O13 3.073288 1_555
Ba4 O15 3.073288 1_545
Ba4 O14 3.073288 1_655
Ba5 O12 2.737525 1_555
Ba5 O10 2.737525 1_565
Ba5 O11 2.737525 1_455
Ba5 O15 2.947603 1_455
Ba5 O14 2.947611 1_555
Ba5 O13 2.947611 1_565
Ba5 O14 2.948714 1_565
Ba5 O13 2.948715 1_455
Ba5 O15 2.948724 1_555
Ba6 O19 2.585296 1_555
Ba6 O15 2.842792 1_555
Ba6 O13 2.842798 1_555
Ba6 O14 2.842801 1_555
Ba6 O16 2.943433 1_655
Ba6 O17 2.943436 1_555
Ba6 O18 2.943448 1_545
Ba6 O18 2.944630 1_655
Ba6 O17 2.944642 1_545
Ba6 O16 2.944645 1_555
Mn0 O6 1.861939 1_555
Mn0 O5 1.861948 1_555
Mn0 O4 1.861952 1_555
Mn0 O9 1.979610 1_555
Mn0 O8 1.979629 1_555
Mn0 O7 1.979633 1_555
Mn1 O12 1.902527 1_555
Mn1 O9 1.902529 1_555
Mn1 O11 1.902531 1_555
Mn1 O10 1.902535 1_555
Mn1 O7 1.902541 1_555
Mn1 O8 1.902545 1_555
Mn2 O15 1.861943 1_555
Mn2 O13 1.861948 1_555
Mn2 O14 1.861956 1_555
Mn2 O11 1.979634 1_555
Mn2 O10 1.979641 1_555
Mn2 O12 1.979642 1_555
Cr0 O19 1.705436 1_554
Cr0 O2 1.790875 1_555
Cr0 O1 1.790879 1_555
Cr0 O3 1.790884 1_555
Cr1 O0 1.705436 1_556
Cr1 O16 1.790875 1_555
Cr1 O18 1.790876 1_555
Cr1 O17 1.790876 1_555
O1 Y0 2.267131 1_645
O2 Y0 2.267131 1_545
O3 Y0 2.267131 1_655
O4 Y0 2.191556 1_545
O5 Y0 2.191552 1_655
O6 Y0 2.191547 1_555
O13 Y1 2.191543 1_555
O14 Y1 2.191552 1_455
O15 Y1 2.191551 1_565
O16 Y1 2.267143 1_455
O17 Y1 2.267136 1_565
O18 Y1 2.267139 1_465
