# generated using pymatgen
data_Nb7TcS12
_symmetry_space_group_name_H-M   'P 1'
_cell_length_a   5.82724123
_cell_length_b   5.82724047
_cell_length_c   12.37037936
_cell_angle_alpha   90.00000000
_cell_angle_beta   90.00000000
_cell_angle_gamma   120.00001570
_symmetry_Int_Tables_number   1
_chemical_formula_structural   Nb7TcS12
_chemical_formula_sum   'Nb7 Tc1 S12'
_cell_volume   363.78058570
_cell_formula_units_Z   1
loop_
 _symmetry_equiv_pos_site_id
 _symmetry_equiv_pos_as_xyz
  1  'x, y, z'
loop_
 _atom_site_type_symbol
 _atom_site_label
 _atom_site_symmetry_multiplicity
 _atom_site_fract_x
 _atom_site_fract_y
 _atom_site_fract_z
 _atom_site_occupancy
  Nb  Nb0  1  0.33333300  0.66666700  0.25000000  1
  Nb  Nb1  1  0.33333300  0.66666700  0.51056297  1
  Nb  Nb2  1  0.66666700  0.33333300  0.99515243  1
  Nb  Nb3  1  0.66666700  0.33333300  0.50484757  1
  Nb  Nb4  1  0.33333300  0.66666700  0.98943703  1
  Nb  Nb5  1  0.00000000  0.00000000  0.50893081  1
  Nb  Nb6  1  0.00000000  0.00000000  0.99106919  1
  Tc  Tc0  1  0.66666700  0.33333300  0.75000000  1
  S  S0  1  0.33042658  0.33203529  0.11980538  1
  S  S1  1  0.66796471  0.99839029  0.11980538  1
  S  S2  1  0.00160971  0.66957342  0.11980538  1
  S  S3  1  0.99522141  0.33216278  0.63398264  1
  S  S4  1  0.66783722  0.00477859  0.86601736  1
  S  S5  1  0.66783722  0.66305862  0.63398264  1
  S  S6  1  0.33694138  0.00477859  0.63398264  1
  S  S7  1  0.66796471  0.66957342  0.38019462  1
  S  S8  1  0.33042658  0.99839029  0.38019462  1
  S  S9  1  0.33694138  0.33216278  0.86601736  1
  S  S10  1  0.99522141  0.66305862  0.86601736  1
  S  S11  1  0.00160971  0.33203529  0.38019462  1
loop_
_geom_bond_atom_site_label_1
_geom_bond_atom_site_label_2
_geom_bond_distance
_geom_bond_site_symmetry_2
Nb0 S8 2.522604 1_555
Nb0 S2 2.522604 1_555
Nb0 S11 2.522608 1_555
Nb0 S1 2.522608 1_555
Nb0 S0 2.522613 1_555
Nb0 S7 2.522613 1_555
Nb1 S6 2.484329 1_565
Nb1 S3 2.484331 1_455
Nb1 S5 2.484333 1_555
Nb1 S8 2.523976 1_555
Nb1 S11 2.523981 1_555
Nb1 S7 2.523985 1_555
Nb2 S2 2.490398 1_656
Nb2 S1 2.490399 1_546
Nb2 S0 2.490399 1_556
Nb2 S4 2.496099 1_555
Nb2 S10 2.496101 1_555
Nb2 S9 2.496104 1_555
Nb3 S8 2.490398 1_545
Nb3 S7 2.490399 1_555
Nb3 S11 2.490399 1_655
Nb3 S3 2.496099 1_555
Nb3 S6 2.496101 1_555
Nb3 S5 2.496103 1_555
Nb4 S10 2.484329 1_455
Nb4 S4 2.484331 1_565
Nb4 S9 2.484333 1_555
Nb4 S2 2.523977 1_556
Nb4 S1 2.523981 1_556
Nb4 S0 2.523985 1_556
Nb5 S5 2.488817 1_445
Nb5 S3 2.488817 1_455
Nb5 S6 2.488817 1_555
Nb5 S11 2.502336 1_555
Nb5 S7 2.502338 1_445
Nb5 S8 2.502341 1_545
Nb6 S9 2.488817 1_555
Nb6 S10 2.488817 1_445
Nb6 S4 2.488817 1_455
Nb6 S1 2.502337 1_446
Nb6 S0 2.502338 1_556
Nb6 S2 2.502341 1_546
S3 Tc0 2.395496 1_555
S4 Tc0 2.395496 1_555
S5 Tc0 2.395501 1_555
S6 Tc0 2.395498 1_555
S9 Tc0 2.395501 1_555
S10 Tc0 2.395498 1_555
