# generated using pymatgen
data_Ca(Sm2Se3)4
_symmetry_space_group_name_H-M   'P 1'
_cell_length_a   8.86197153
_cell_length_b   8.86197153
_cell_length_c   14.68060605
_cell_angle_alpha   72.48100729
_cell_angle_beta   72.48100729
_cell_angle_gamma   90.09520100
_symmetry_Int_Tables_number   1
_chemical_formula_structural   Ca(Sm2Se3)4
_chemical_formula_sum   'Ca2 Sm16 Se24'
_cell_volume   1043.05080398
_cell_formula_units_Z   2
loop_
 _symmetry_equiv_pos_site_id
 _symmetry_equiv_pos_as_xyz
  1  'x, y, z'
loop_
 _atom_site_type_symbol
 _atom_site_label
 _atom_site_symmetry_multiplicity
 _atom_site_fract_x
 _atom_site_fract_y
 _atom_site_fract_z
 _atom_site_occupancy
  Ca  Ca0  1  0.04158900  0.91660100  0.16664100  1
  Ca  Ca1  1  0.91660100  0.04158900  0.66664100  1
  Sm  Sm0  1  0.75144000  0.12444400  0.99930500  1
  Sm  Sm1  1  0.24941500  0.37516500  0.00126300  1
  Sm  Sm2  1  0.45809100  0.70985300  0.08272200  1
  Sm  Sm3  1  0.37292200  0.12571800  0.24997600  1
  Sm  Sm4  1  0.08271700  0.45613700  0.33339300  1
  Sm  Sm5  1  0.79482500  0.41619800  0.16670100  1
  Sm  Sm6  1  0.58486200  0.70804900  0.33278400  1
  Sm  Sm7  1  0.79249400  0.04169300  0.41635700  1
  Sm  Sm8  1  0.37516500  0.24941500  0.50126300  1
  Sm  Sm9  1  0.41619800  0.79482500  0.66670100  1
  Sm  Sm10  1  0.70985300  0.45809100  0.58272200  1
  Sm  Sm11  1  0.12444400  0.75144000  0.49930500  1
  Sm  Sm12  1  0.12571800  0.37292200  0.74997600  1
  Sm  Sm13  1  0.70804900  0.58486200  0.83278400  1
  Sm  Sm14  1  0.04169300  0.79249400  0.91635700  1
  Sm  Sm15  1  0.45613700  0.08271700  0.83339300  1
  Se  Se0  1  0.55010000  0.40160900  0.04955200  1
  Se  Se1  1  0.76150600  0.76392300  0.11756300  1
  Se  Se2  1  0.40577300  0.05028700  0.04850800  1
  Se  Se3  1  0.28644700  0.78204800  0.28538200  1
  Se  Se4  1  0.43266200  0.43140400  0.28350200  1
  Se  Se5  1  0.11710100  0.61690700  0.11630900  1
  Se  Se6  1  0.88224800  0.73346700  0.38367100  1
  Se  Se7  1  0.06734500  0.21692100  0.21621600  1
  Se  Se8  1  0.10049300  0.10020700  0.44945200  1
  Se  Se9  1  0.73312200  0.38294700  0.38294000  1
  Se  Se10  1  0.71174400  0.06920800  0.21675400  1
  Se  Se11  1  0.61690700  0.11710100  0.61630900  1
  Se  Se12  1  0.76392300  0.76150600  0.61756300  1
  Se  Se13  1  0.45075000  0.94956900  0.45100800  1
  Se  Se14  1  0.21692100  0.06734500  0.71621600  1
  Se  Se15  1  0.40160900  0.55010000  0.54955200  1
  Se  Se16  1  0.43140400  0.43266200  0.78350200  1
  Se  Se17  1  0.06920800  0.71174400  0.71675400  1
  Se  Se18  1  0.05028700  0.40577300  0.54850800  1
  Se  Se19  1  0.94956900  0.45075000  0.95100800  1
  Se  Se20  1  0.10020700  0.10049300  0.94945200  1
  Se  Se21  1  0.78204800  0.28644700  0.78538200  1
  Se  Se22  1  0.73346700  0.88224800  0.88367100  1
  Se  Se23  1  0.38294700  0.73312200  0.88294000  1
loop_
_geom_bond_atom_site_label_1
_geom_bond_atom_site_label_2
_geom_bond_distance
_geom_bond_site_symmetry_2
Ca0 Se7 2.988160 1_565
Ca0 Se5 2.989511 1_555
Ca0 Se6 2.991648 1_455
Ca0 Se20 2.993937 1_564
Ca0 Se1 3.187939 1_455
Ca0 Se3 3.194307 1_555
Ca0 Se2 3.194975 1_565
Ca0 Se10 3.198759 1_465
Ca1 Se14 2.988160 1_655
Ca1 Se11 2.989511 1_555
Ca1 Se22 2.991648 1_545
Ca1 Se8 2.993937 1_655
Ca1 Se12 3.187939 1_545
Ca1 Se21 3.194307 1_555
Ca1 Se18 3.194975 1_655
Ca1 Se17 3.198759 1_645
Se0 Sm1 2.982131 1_555
Se0 Sm13 2.987123 1_554
Se0 Sm2 2.988825 1_555
Se0 Sm3 3.158373 1_555
Se0 Sm5 3.171185 1_555
Se0 Sm0 3.173924 1_554
Se1 Sm2 2.948293 1_555
Se1 Sm6 2.959124 1_555
Se1 Sm5 2.982674 1_555
Se1 Sm0 3.159806 1_564
Se1 Sm14 3.175934 1_654
Se2 Sm0 2.951740 1_554
Se2 Sm2 2.966746 1_545
Se2 Sm15 2.976485 1_554
Se2 Sm3 3.154677 1_555
Se2 Sm1 3.174854 1_555
Se3 Sm6 2.957515 1_555
Se3 Sm11 2.961244 1_555
Se3 Sm3 2.988722 1_565
Se3 Sm2 3.162179 1_555
Se3 Sm4 3.176347 1_555
Se4 Sm3 2.969161 1_555
Se4 Sm4 2.988874 1_555
Se4 Sm8 2.998862 1_555
Se4 Sm6 3.161880 1_555
Se4 Sm2 3.169758 1_555
Se4 Sm5 3.175916 1_555
Se5 Sm2 2.983838 1_555
Se5 Sm4 2.993249 1_555
Se5 Sm5 3.128359 1_455
Se5 Sm1 3.132306 1_555
Se5 Sm14 3.149452 1_554
Se6 Sm6 2.973035 1_555
Se6 Sm7 2.981693 1_565
Se6 Sm10 3.136111 1_555
Se6 Sm11 3.141516 1_655
Se6 Sm4 3.171494 1_655
Se7 Sm1 2.964946 1_555
Se7 Sm3 2.967552 1_555
Se7 Sm5 3.126959 1_455
Se7 Sm4 3.131687 1_555
Se7 Sm7 3.147863 1_455
Se8 Sm11 2.977811 1_545
Se8 Sm7 2.983348 1_455
Se8 Sm3 3.130273 1_555
Se8 Sm4 3.131254 1_555
Se8 Sm8 3.156173 1_555
Se9 Sm5 2.975674 1_555
Se9 Sm4 2.983385 1_655
Se9 Sm7 2.988425 1_555
Se9 Sm6 3.144315 1_555
Se9 Sm10 3.146458 1_555
Se9 Sm8 3.148512 1_555
Se10 Sm3 2.962235 1_555
Se10 Sm5 2.973914 1_555
Se10 Sm0 2.989415 1_554
Se10 Sm6 3.156306 1_545
Se10 Sm7 3.160857 1_555
Se11 Sm10 2.983838 1_555
Se11 Sm15 2.993249 1_555
Se11 Sm9 3.128359 1_545
Se11 Sm8 3.132306 1_555
Se11 Sm7 3.149452 1_555
Se12 Sm10 2.948293 1_555
Se12 Sm13 2.959124 1_555
Se12 Sm9 2.982674 1_555
Se12 Sm11 3.159806 1_655
Se12 Sm7 3.175934 1_565
Se13 Sm9 2.966760 1_555
Se13 Sm7 2.985212 1_565
Se13 Sm8 2.990401 1_565
Se13 Sm11 3.153866 1_555
Se13 Sm6 3.163692 1_555
Se13 Sm3 3.174576 1_565
Se14 Sm8 2.964946 1_555
Se14 Sm12 2.967552 1_555
Se14 Sm9 3.126959 1_545
Se14 Sm15 3.131687 1_555
Se14 Sm14 3.147863 1_545
Se15 Sm8 2.982131 1_555
Se15 Sm6 2.987123 1_555
Se15 Sm10 2.988825 1_555
Se15 Sm12 3.158373 1_555
Se15 Sm9 3.171185 1_555
Se15 Sm11 3.173924 1_555
Se16 Sm12 2.969161 1_555
Se16 Sm15 2.988874 1_555
Se16 Sm1 2.998862 1_556
Se16 Sm13 3.161880 1_555
Se16 Sm10 3.169758 1_555
Se16 Sm9 3.175916 1_555
Se17 Sm12 2.962235 1_555
Se17 Sm9 2.973914 1_555
Se17 Sm11 2.989415 1_555
Se17 Sm13 3.156306 1_455
Se17 Sm14 3.160857 1_555
Se18 Sm11 2.951740 1_555
Se18 Sm10 2.966746 1_455
Se18 Sm4 2.976485 1_555
Se18 Sm12 3.154677 1_555
Se18 Sm8 3.174854 1_555
Se19 Sm5 2.966760 1_556
Se19 Sm14 2.985212 1_655
Se19 Sm1 2.990401 1_656
Se19 Sm0 3.153866 1_555
Se19 Sm13 3.163692 1_555
Se19 Sm12 3.174576 1_655
Se20 Sm0 2.977811 1_455
Se20 Sm14 2.983348 1_545
Se20 Sm12 3.130273 1_555
Se20 Sm15 3.131254 1_555
Se20 Sm1 3.156173 1_556
Se21 Sm13 2.957515 1_555
Se21 Sm0 2.961244 1_555
Se21 Sm12 2.988722 1_655
Se21 Sm10 3.162179 1_555
Se21 Sm15 3.176347 1_555
Se22 Sm13 2.973035 1_555
Se22 Sm14 2.981693 1_655
Se22 Sm2 3.136111 1_556
Se22 Sm0 3.141516 1_565
Se22 Sm15 3.171494 1_565
Se23 Sm9 2.975674 1_555
Se23 Sm15 2.983385 1_565
Se23 Sm14 2.988425 1_555
Se23 Sm13 3.144315 1_555
Se23 Sm2 3.146458 1_556
Se23 Sm1 3.148512 1_556
