# generated using pymatgen
data_LuSnRuRh
_symmetry_space_group_name_H-M   'P 1'
_cell_length_a   4.58750123
_cell_length_b   4.58750140
_cell_length_c   4.58750119
_cell_angle_alpha   60.00000147
_cell_angle_beta   60.00000029
_cell_angle_gamma   60.00000138
_symmetry_Int_Tables_number   1
_chemical_formula_structural   LuSnRuRh
_chemical_formula_sum   'Lu1 Sn1 Ru1 Rh1'
_cell_volume   68.26743831
_cell_formula_units_Z   1
loop_
 _symmetry_equiv_pos_site_id
 _symmetry_equiv_pos_as_xyz
  1  'x, y, z'
loop_
 _atom_site_type_symbol
 _atom_site_label
 _atom_site_symmetry_multiplicity
 _atom_site_fract_x
 _atom_site_fract_y
 _atom_site_fract_z
 _atom_site_occupancy
  Lu  Lu0  1  0.25000000  0.25000000  0.25000000  1
  Sn  Sn0  1  0.75000000  0.75000000  0.75000000  1
  Ru  Ru0  1  0.00000000  0.00000000  0.00000000  1
  Rh  Rh0  1  0.50000000  0.50000000  0.50000000  1
loop_
_geom_bond_atom_site_label_1
_geom_bond_atom_site_label_2
_geom_bond_distance
_geom_bond_site_symmetry_2
Lu0 Rh0 2.809259 1_554
Lu0 Ru0 2.809259 1_556
Lu0 Rh0 2.809259 1_555
Lu0 Ru0 2.809259 1_555
Lu0 Ru0 2.809259 1_655
Lu0 Rh0 2.809259 1_455
Lu0 Ru0 2.809259 1_565
Lu0 Rh0 2.809259 1_545
Ru0 Sn0 2.809259 1_445
Ru0 Sn0 2.809259 1_444
Ru0 Sn0 2.809259 1_544
Ru0 Sn0 2.809259 1_454
Rh0 Sn0 2.809259 1_554
Rh0 Sn0 2.809259 1_555
Rh0 Sn0 2.809259 1_455
Rh0 Sn0 2.809259 1_545
