# generated using pymatgen
data_Sr10Si5AsF
_symmetry_space_group_name_H-M   'P 1'
_cell_length_a   9.64824383
_cell_length_b   9.64824308
_cell_length_c   9.64824282
_cell_angle_alpha   130.23986754
_cell_angle_beta   130.63603654
_cell_angle_gamma   72.70805558
_symmetry_Int_Tables_number   1
_chemical_formula_structural   Sr10Si5AsF
_chemical_formula_sum   'Sr10 Si5 As1 F1'
_cell_volume   508.31680991
_cell_formula_units_Z   1
loop_
 _symmetry_equiv_pos_site_id
 _symmetry_equiv_pos_as_xyz
  1  'x, y, z'
loop_
 _atom_site_type_symbol
 _atom_site_label
 _atom_site_symmetry_multiplicity
 _atom_site_fract_x
 _atom_site_fract_y
 _atom_site_fract_z
 _atom_site_occupancy
  Sr  Sr0  1  0.77109025  0.43229478  0.99871097  1
  Sr  Sr1  1  0.43358281  0.77238128  0.00128903  1
  Sr  Sr2  1  0.93388768  0.93215645  0.64714507  1
  Sr  Sr3  1  0.28501138  0.28674261  0.35285493  1
  Sr  Sr4  1  0.71498862  0.06784355  0.00173123  1
  Sr  Sr5  1  0.06611232  0.71325739  0.99826877  1
  Sr  Sr6  1  0.56641719  0.56770522  0.33879547  1
  Sr  Sr7  1  0.22890875  0.22761872  0.66120453  1
  Sr  Sr8  1  0.25436423  0.75436423  0.50000000  1
  Sr  Sr9  1  0.74563577  0.24563577  0.50000000  1
  Si  Si0  1  0.50000000  0.00000000  0.50000000  1
  Si  Si1  1  0.14079354  0.35748217  0.99950442  1
  Si  Si2  1  0.35797876  0.14128913  0.00049558  1
  Si  Si3  1  0.85920646  0.85871087  0.21668863  1
  Si  Si4  1  0.64202124  0.64251783  0.78331137  1
  As  As0  1  0.00000000  0.50000000  0.50000000  1
  F  F0  1  0.50000000  0.50000000  0.00000000  1
loop_
_geom_bond_atom_site_label_1
_geom_bond_atom_site_label_2
_geom_bond_distance
_geom_bond_site_symmetry_2
Si0 Sr1 3.399120 1_545
Si0 Sr0 3.399121 1_555
Si0 Sr6 3.399122 1_545
Si0 Sr7 3.399127 1_555
Si0 Sr4 3.435012 1_556
Si0 Sr3 3.435012 1_555
Si0 Sr5 3.435012 1_544
Si0 Sr2 3.435012 1_545
Si1 Si2 2.478548 1_556
Si1 Sr3 3.207426 1_556
Si1 Sr2 3.223150 1_445
Si1 Sr6 3.249208 1_556
Si1 Sr7 3.262470 1_555
Si1 Sr9 3.274242 1_455
Si1 Sr5 3.297489 1_555
Si1 Sr8 3.300676 1_556
Si1 Sr0 3.418397 1_455
Si2 Sr2 3.207434 1_444
Si2 Sr3 3.223158 1_555
Si2 Sr7 3.249178 1_554
Si2 Sr6 3.262485 1_555
Si2 Sr9 3.274239 1_555
Si2 Sr4 3.297480 1_555
Si2 Sr8 3.300673 1_544
Si2 Sr1 3.418380 1_545
Si3 Si4 2.478542 1_554
Si3 Sr4 3.207426 1_565
Si3 Sr5 3.223150 1_654
Si3 Sr1 3.249205 1_555
Si3 Sr0 3.262485 1_554
Si3 Sr8 3.274242 1_655
Si3 Sr2 3.297489 1_555
Si3 Sr9 3.300676 1_565
Si3 Sr7 3.418381 1_665
Si4 Sr5 3.207435 1_655
Si4 Sr4 3.223152 1_566
Si4 Sr0 3.249198 1_555
Si4 Sr1 3.262480 1_556
Si4 Sr8 3.274237 1_555
Si4 Sr3 3.297484 1_555
Si4 Sr9 3.300681 1_555
Si4 Sr6 3.418407 1_555
As0 Sr6 3.399900 1_455
As0 Sr1 3.399908 1_556
As0 Sr0 3.399908 1_454
As0 Sr7 3.399924 1_555
As0 Sr5 3.429014 1_555
As0 Sr2 3.429014 1_455
As0 Sr4 3.429014 1_455
As0 Sr3 3.429014 1_555
F0 Sr6 2.506807 1_555
F0 Sr0 2.506812 1_554
F0 Sr7 2.506827 1_554
F0 Sr1 2.506830 1_555
