# generated using pymatgen
data_ScSbI6
_symmetry_space_group_name_H-M   'P 1'
_cell_length_a   8.29865533
_cell_length_b   8.29865440
_cell_length_c   8.29865501
_cell_angle_alpha   53.39987881
_cell_angle_beta   53.39987510
_cell_angle_gamma   53.39987969
_symmetry_Int_Tables_number   1
_chemical_formula_structural   ScSbI6
_chemical_formula_sum   'Sc1 Sb1 I6'
_cell_volume   341.68506750
_cell_formula_units_Z   1
loop_
 _symmetry_equiv_pos_site_id
 _symmetry_equiv_pos_as_xyz
  1  'x, y, z'
loop_
 _atom_site_type_symbol
 _atom_site_label
 _atom_site_symmetry_multiplicity
 _atom_site_fract_x
 _atom_site_fract_y
 _atom_site_fract_z
 _atom_site_occupancy
  Sc  Sc0  1  0.83367887  0.83367887  0.83367887  1
  Sb  Sb0  1  0.16628476  0.16628476  0.16628476  1
  I  I0  1  0.22504436  0.59129457  0.92322501  1
  I  I1  1  0.92322501  0.22504436  0.59129457  1
  I  I2  1  0.59129457  0.92322501  0.22504436  1
  I  I3  1  0.76191516  0.43523645  0.06332182  1
  I  I4  1  0.06332182  0.76191516  0.43523645  1
  I  I5  1  0.43523645  0.06332182  0.76191516  1
loop_
_geom_bond_atom_site_label_1
_geom_bond_atom_site_label_2
_geom_bond_distance
_geom_bond_site_symmetry_2
I0 Sc0 2.907215 1_455
I0 Sb0 3.023368 1_556
I1 Sc0 2.907215 1_545
I1 Sb0 3.023368 1_655
I2 Sc0 2.907215 1_554
I2 Sb0 3.023368 1_565
I3 Sc0 2.898339 1_554
I3 Sb0 3.030899 1_655
I4 Sc0 2.898339 1_455
I4 Sb0 3.030898 1_565
I5 Sc0 2.898339 1_545
I5 Sb0 3.030898 1_556
