# generated using pymatgen
data_HfVI6
_symmetry_space_group_name_H-M   'P 1'
_cell_length_a   7.57319444
_cell_length_b   7.57319311
_cell_length_c   6.80006382
_cell_angle_alpha   90.00000000
_cell_angle_beta   90.00000000
_cell_angle_gamma   120.00000581
_symmetry_Int_Tables_number   1
_chemical_formula_structural   HfVI6
_chemical_formula_sum   'Hf1 V1 I6'
_cell_volume   337.75495866
_cell_formula_units_Z   1
loop_
 _symmetry_equiv_pos_site_id
 _symmetry_equiv_pos_as_xyz
  1  'x, y, z'
loop_
 _atom_site_type_symbol
 _atom_site_label
 _atom_site_symmetry_multiplicity
 _atom_site_fract_x
 _atom_site_fract_y
 _atom_site_fract_z
 _atom_site_occupancy
  Hf  Hf0  1  0.00000000  0.00000000  0.50000000  1
  V  V0  1  0.00000000  0.00000000  0.00000000  1
  I  I0  1  0.30095459  0.00000000  0.24988088  1
  I  I1  1  0.69904541  0.00000000  0.75011912  1
  I  I2  1  0.00000000  0.30095459  0.24988088  1
  I  I3  1  0.30095459  0.30095459  0.75011912  1
  I  I4  1  1.00000000  0.69904541  0.75011912  1
  I  I5  1  0.69904541  0.69904541  0.24988088  1
loop_
_geom_bond_atom_site_label_1
_geom_bond_atom_site_label_2
_geom_bond_distance
_geom_bond_site_symmetry_2
Hf0 I3 2.843854 1_555
Hf0 I2 2.843854 1_555
Hf0 I4 2.843854 1_445
Hf0 I5 2.843854 1_445
Hf0 I0 2.843854 1_555
Hf0 I1 2.843854 1_455
I0 V0 2.842885 1_555
I1 V0 2.842885 1_656
I2 V0 2.842885 1_555
I3 V0 2.842885 1_556
I4 V0 2.842885 1_666
I5 V0 2.842885 1_665
