# generated using pymatgen
data_Y10Zn3Bi2Au
_symmetry_space_group_name_H-M   'P 1'
_cell_length_a   8.69401692
_cell_length_b   8.69401737
_cell_length_c   8.70015042
_cell_angle_alpha   124.20796287
_cell_angle_beta   124.20796491
_cell_angle_gamma   82.80828210
_symmetry_Int_Tables_number   1
_chemical_formula_structural   Y10Zn3Bi2Au
_chemical_formula_sum   'Y10 Zn3 Bi2 Au1'
_cell_volume   431.88958882
_cell_formula_units_Z   1
loop_
 _symmetry_equiv_pos_site_id
 _symmetry_equiv_pos_as_xyz
  1  'x, y, z'
loop_
 _atom_site_type_symbol
 _atom_site_label
 _atom_site_symmetry_multiplicity
 _atom_site_fract_x
 _atom_site_fract_y
 _atom_site_fract_z
 _atom_site_occupancy
  Y  Y0  1  0.49930871  0.49930253  0.99861124  1
  Y  Y1  1  0.00069747  0.00069129  0.00138876  1
  Y  Y2  1  0.51079063  0.01206530  0.80597570  1
  Y  Y3  1  0.20481494  0.70608960  0.19402430  1
  Y  Y4  1  0.01451398  0.20448660  0.50000000  1
  Y  Y5  1  0.70483496  0.51362451  0.50000000  1
  Y  Y6  1  0.48793470  0.98920937  0.19402430  1
  Y  Y7  1  0.79391040  0.29518506  0.80597570  1
  Y  Y8  1  0.98637549  0.79516504  0.50000000  1
  Y  Y9  1  0.29551340  0.48548602  0.50000000  1
  Zn  Zn0  1  0.13745173  0.63959044  0.77704317  1
  Zn  Zn1  1  0.86040956  0.36254827  0.22295683  1
  Zn  Zn2  1  0.63955850  0.86044150  0.50000000  1
  Bi  Bi0  1  0.24899554  0.25100446  0.00000000  1
  Bi  Bi1  1  0.74899554  0.75100446  0.00000000  1
  Au  Au0  1  0.36589345  0.13410655  0.50000000  1
loop_
_geom_bond_atom_site_label_1
_geom_bond_atom_site_label_2
_geom_bond_distance
_geom_bond_site_symmetry_2
Y0 Zn1 3.140709 1_556
Y0 Zn2 3.154578 1_556
Y0 Zn0 3.156707 1_555
Y1 Zn0 3.140709 1_544
Y1 Zn2 3.154578 1_444
Y1 Zn1 3.156707 1_455
Y2 Zn2 3.018801 1_545
Y2 Zn1 3.029150 1_556
Y3 Zn2 3.018801 1_555
Y3 Zn0 3.029142 1_554
Y4 Zn0 3.020806 1_555
Y4 Zn1 3.020814 1_455
Y5 Zn2 2.997542 1_555
Y5 Zn0 3.004227 1_655
Y5 Zn1 3.004235 1_555
Y6 Zn2 3.018801 1_555
Y6 Zn0 3.029150 1_554
Y7 Zn2 3.018801 1_545
Y7 Zn1 3.029142 1_556
Y8 Zn2 2.997541 1_555
Y8 Zn1 3.004227 1_555
Y8 Zn0 3.004235 1_655
Y9 Zn1 3.020806 1_455
Y9 Zn0 3.020814 1_555
Bi0 Y0 3.260562 1_554
Bi0 Y1 3.260562 1_555
Bi0 Y7 3.389692 1_454
Bi0 Y3 3.389692 1_555
Bi0 Y4 3.391119 1_554
Bi0 Y9 3.391119 1_555
Bi0 Y2 3.396846 1_554
Bi0 Y6 3.396846 1_545
Bi0 Y5 3.399390 1_555
Bi0 Y8 3.399390 1_444
Bi1 Y1 3.260562 1_665
Bi1 Y0 3.260562 1_554
Bi1 Y6 3.389692 1_555
Bi1 Y2 3.389692 1_564
Bi1 Y9 3.391118 1_554
Bi1 Y4 3.391119 1_665
Bi1 Y3 3.396846 1_655
Bi1 Y7 3.396846 1_554
Bi1 Y8 3.399390 1_555
Bi1 Y5 3.399390 1_554
Au0 Y7 2.978206 1_555
Au0 Y3 2.978207 1_545
Au0 Y2 2.978207 1_555
Au0 Y6 2.978207 1_545
Au0 Y4 3.039538 1_555
Au0 Y9 3.039538 1_555
Au0 Zn2 3.147109 1_545
Au0 Y1 3.165792 1_555
Au0 Y0 3.165792 1_555
