# generated using pymatgen
data_MnPtBr6
_symmetry_space_group_name_H-M   'P 1'
_cell_length_a   6.57468988
_cell_length_b   6.57468993
_cell_length_c   6.70084105
_cell_angle_alpha   80.76922396
_cell_angle_beta   80.76922042
_cell_angle_gamma   119.76780798
_symmetry_Int_Tables_number   1
_chemical_formula_structural   MnPtBr6
_chemical_formula_sum   'Mn1 Pt1 Br6'
_cell_volume   238.23715197
_cell_formula_units_Z   1
loop_
 _symmetry_equiv_pos_site_id
 _symmetry_equiv_pos_as_xyz
  1  'x, y, z'
loop_
 _atom_site_type_symbol
 _atom_site_label
 _atom_site_symmetry_multiplicity
 _atom_site_fract_x
 _atom_site_fract_y
 _atom_site_fract_z
 _atom_site_occupancy
  Mn  Mn0  1  0.83292171  0.16707829  0.00000000  1
  Pt  Pt0  1  0.16688228  0.83311772  0.00000000  1
  Br  Br0  1  0.40484912  0.06273080  0.22729841  1
  Br  Br1  1  0.55245760  0.91556428  0.77030098  1
  Br  Br2  1  0.93726920  0.59515088  0.77270159  1
  Br  Br3  1  0.08443572  0.44754240  0.22969902  1
  Br  Br4  1  0.79023575  0.76905137  0.23026900  1
  Br  Br5  1  0.23094863  0.20976425  0.76973100  1
loop_
_geom_bond_atom_site_label_1
_geom_bond_atom_site_label_2
_geom_bond_distance
_geom_bond_site_symmetry_2
Br0 Pt0 2.490685 1_545
Br0 Mn0 2.661539 1_555
Br1 Pt0 2.491053 1_556
Br1 Mn0 2.683854 1_566
Br2 Pt0 2.490685 1_656
Br2 Mn0 2.661539 1_556
Br3 Pt0 2.491053 1_555
Br3 Mn0 2.683854 1_455
Br4 Pt0 2.494069 1_655
Br4 Mn0 2.672854 1_565
Br5 Pt0 2.494069 1_546
Br5 Mn0 2.672854 1_456
