# generated using pymatgen
data_CsCaBO3
_symmetry_space_group_name_H-M   'P 1'
_cell_length_a   7.58436925
_cell_length_b   7.58436925
_cell_length_c   7.58436925
_cell_angle_alpha   90.00000000
_cell_angle_beta   90.00000000
_cell_angle_gamma   90.00000000
_symmetry_Int_Tables_number   1
_chemical_formula_structural   CsCaBO3
_chemical_formula_sum   'Cs4 Ca4 B4 O12'
_cell_volume   436.27307071
_cell_formula_units_Z   4
loop_
 _symmetry_equiv_pos_site_id
 _symmetry_equiv_pos_as_xyz
  1  'x, y, z'
loop_
 _atom_site_type_symbol
 _atom_site_label
 _atom_site_symmetry_multiplicity
 _atom_site_fract_x
 _atom_site_fract_y
 _atom_site_fract_z
 _atom_site_occupancy
  Cs  Cs0  1  0.63967048  0.13967048  0.36032952  1
  Cs  Cs1  1  0.13967048  0.36032952  0.63967048  1
  Cs  Cs2  1  0.36032952  0.63967048  0.13967048  1
  Cs  Cs3  1  0.86032952  0.86032952  0.86032952  1
  Ca  Ca0  1  0.64240636  0.35759364  0.85759364  1
  Ca  Ca1  1  0.14240636  0.14240636  0.14240636  1
  Ca  Ca2  1  0.85759364  0.64240636  0.35759364  1
  Ca  Ca3  1  0.35759364  0.85759364  0.64240636  1
  B  B0  1  0.59692555  0.59692555  0.59692555  1
  B  B1  1  0.40307445  0.09692555  0.90307445  1
  B  B2  1  0.09692555  0.90307445  0.40307445  1
  B  B3  1  0.90307445  0.40307445  0.09692555  1
  O  O0  1  0.52486521  0.08741790  0.76656979  1
  O  O1  1  0.23343021  0.02486521  0.41258210  1
  O  O2  1  0.58741790  0.73343021  0.47513479  1
  O  O3  1  0.02486521  0.41258210  0.23343021  1
  O  O4  1  0.73343021  0.47513479  0.58741790  1
  O  O5  1  0.08741790  0.76656979  0.52486521  1
  O  O6  1  0.47513479  0.58741790  0.73343021  1
  O  O7  1  0.76656979  0.52486521  0.08741790  1
  O  O8  1  0.41258210  0.23343021  0.02486521  1
  O  O9  1  0.97513479  0.91258210  0.26656979  1
  O  O10  1  0.26656979  0.97513479  0.91258210  1
  O  O11  1  0.91258210  0.26656979  0.97513479  1
loop_
_geom_bond_atom_site_label_1
_geom_bond_atom_site_label_2
_geom_bond_distance
_geom_bond_site_symmetry_2
Cs0 O9 3.153642 1_545
Cs0 O8 3.153642 1_555
Cs0 O4 3.153642 1_555
Cs0 O2 3.226182 1_545
Cs0 O1 3.226182 1_555
Cs0 O0 3.226182 1_555
Cs1 O11 3.153642 1_455
Cs1 O1 3.153642 1_555
Cs1 O6 3.153642 1_555
Cs1 O4 3.226182 1_455
Cs1 O3 3.226182 1_555
Cs1 O5 3.226182 1_555
Cs2 O10 3.153642 1_554
Cs2 O3 3.153642 1_555
Cs2 O2 3.153642 1_555
Cs2 O8 3.226182 1_555
Cs2 O6 3.226182 1_554
Cs2 O7 3.226182 1_555
Cs3 O5 3.153642 1_655
Cs3 O0 3.153642 1_565
Cs3 O7 3.153642 1_556
Cs3 O11 3.226182 1_565
Cs3 O9 3.226182 1_556
Cs3 O10 3.226182 1_655
Ca0 O0 2.338843 1_555
Ca0 O11 2.338843 1_555
Ca0 O4 2.338843 1_555
Ca0 O8 2.352567 1_556
Ca0 O6 2.352567 1_555
Ca0 O7 2.352567 1_556
Ca1 O8 2.338843 1_555
Ca1 O3 2.338843 1_555
Ca1 O1 2.338843 1_555
Ca1 O9 2.352567 1_445
Ca1 O11 2.352567 1_454
Ca1 O10 2.352567 1_544
Ca2 O7 2.338843 1_555
Ca2 O9 2.338843 1_555
Ca2 O2 2.338843 1_555
Ca2 O3 2.352567 1_655
Ca2 O4 2.352567 1_555
Ca2 O5 2.352567 1_655
Ca3 O5 2.338843 1_555
Ca3 O10 2.338843 1_555
Ca3 O6 2.338843 1_555
Ca3 O1 2.352567 1_565
Ca3 O2 2.352567 1_555
Ca3 O0 2.352567 1_565
B0 O2 1.389346 1_555
B0 O6 1.389346 1_555
B0 O4 1.389346 1_555
B1 O0 1.389346 1_555
B1 O10 1.389346 1_545
B1 O8 1.389346 1_556
B2 O5 1.389346 1_555
B2 O9 1.389346 1_455
B2 O1 1.389346 1_565
B3 O7 1.389346 1_555
B3 O11 1.389346 1_554
B3 O3 1.389346 1_655
