# generated using pymatgen
data_Rb4Cd(SnAu3)2
_symmetry_space_group_name_H-M   'P 1'
_cell_length_a   10.49371923
_cell_length_b   10.49371954
_cell_length_c   10.49371925
_cell_angle_alpha   38.81324177
_cell_angle_beta   38.81323774
_cell_angle_gamma   38.81323960
_symmetry_Int_Tables_number   1
_chemical_formula_structural   Rb4Cd(SnAu3)2
_chemical_formula_sum   'Rb4 Cd1 Sn2 Au6'
_cell_volume   408.11629448
_cell_formula_units_Z   1
loop_
 _symmetry_equiv_pos_site_id
 _symmetry_equiv_pos_as_xyz
  1  'x, y, z'
loop_
 _atom_site_type_symbol
 _atom_site_label
 _atom_site_symmetry_multiplicity
 _atom_site_fract_x
 _atom_site_fract_y
 _atom_site_fract_z
 _atom_site_occupancy
  Rb  Rb0  1  0.68278112  0.68278112  0.68278112  1
  Rb  Rb1  1  0.31721888  0.31721888  0.31721888  1
  Rb  Rb2  1  0.80880418  0.80880418  0.80880418  1
  Rb  Rb3  1  0.19119582  0.19119582  0.19119582  1
  Cd  Cd0  1  0.00000000  0.00000000  0.00000000  1
  Sn  Sn0  1  0.44883892  0.44883892  0.44883892  1
  Sn  Sn1  1  0.55116108  0.55116108  0.55116108  1
  Au  Au0  1  0.18285720  0.78720266  0.78720266  1
  Au  Au1  1  0.78720266  0.78720266  0.18285720  1
  Au  Au2  1  0.78720266  0.18285720  0.78720266  1
  Au  Au3  1  0.21279734  0.81714280  0.21279734  1
  Au  Au4  1  0.81714280  0.21279734  0.21279734  1
  Au  Au5  1  0.21279734  0.21279734  0.81714280  1
loop_
_geom_bond_atom_site_label_1
_geom_bond_atom_site_label_2
_geom_bond_distance
_geom_bond_site_symmetry_2
Rb0 Rb2 3.663727 1_555
Rb0 Sn1 3.826442 1_555
Rb0 Rb1 4.133736 1_655
Rb0 Rb1 4.133737 1_556
Rb0 Rb1 4.133737 1_565
Rb1 Rb3 3.663727 1_555
Rb1 Sn0 3.826442 1_555
Cd0 Rb0 4.053315 1_544
Cd0 Rb1 4.053315 1_455
Cd0 Rb0 4.053315 1_445
Cd0 Rb1 4.053315 1_554
Cd0 Rb0 4.053316 1_454
Cd0 Rb1 4.053316 1_545
Au0 Sn1 2.632831 1_555
Au0 Au1 2.759096 1_456
Au0 Au2 2.759096 1_465
Au0 Cd0 2.840907 1_566
Au0 Rb2 3.580069 1_455
Au0 Rb0 3.725192 1_555
Au0 Rb3 3.937265 1_565
Au0 Rb3 3.937265 1_556
Au0 Rb1 3.985301 1_556
Au0 Rb1 3.985301 1_565
Au1 Sn1 2.632831 1_555
Au1 Au2 2.759097 1_564
Au1 Cd0 2.840907 1_665
Au1 Rb2 3.580069 1_554
Au1 Rb0 3.725192 1_555
Au1 Rb3 3.937264 1_565
Au1 Rb3 3.937265 1_655
Au1 Rb1 3.985300 1_565
Au1 Rb1 3.985300 1_655
Au2 Sn1 2.632831 1_555
Au2 Cd0 2.840907 1_656
Au2 Rb2 3.580069 1_545
Au2 Rb0 3.725193 1_555
Au2 Rb3 3.937264 1_556
Au2 Rb3 3.937264 1_655
Au2 Rb1 3.985300 1_556
Au2 Rb1 3.985300 1_655
Au3 Sn0 2.632831 1_555
Au3 Au4 2.759096 1_465
Au3 Au5 2.759097 1_564
Au3 Cd0 2.840907 1_565
Au3 Rb3 3.580069 1_565
Au3 Rb1 3.725193 1_555
Au3 Rb2 3.937264 1_554
Au3 Rb2 3.937264 1_455
Au3 Rb0 3.985300 1_554
Au3 Rb0 3.985300 1_455
Au4 Sn0 2.632831 1_555
Au4 Au5 2.759096 1_654
Au4 Cd0 2.840907 1_655
Au4 Rb3 3.580069 1_655
Au4 Rb1 3.725192 1_555
Au4 Rb2 3.937265 1_545
Au4 Rb2 3.937265 1_554
Au4 Rb0 3.985301 1_554
Au4 Rb0 3.985301 1_545
Au5 Sn0 2.632831 1_555
Au5 Cd0 2.840907 1_556
Au5 Rb3 3.580069 1_556
Au5 Rb1 3.725192 1_555
Au5 Rb2 3.937264 1_545
Au5 Rb2 3.937265 1_455
Au5 Rb0 3.985300 1_545
Au5 Rb0 3.985300 1_455
