# generated using pymatgen
data_UMoC2
_symmetry_space_group_name_H-M   'P 1'
_cell_length_a   3.21775615
_cell_length_b   5.62320068
_cell_length_c   11.03261266
_cell_angle_alpha   90.00058870
_cell_angle_beta   90.00000000
_cell_angle_gamma   90.00000000
_symmetry_Int_Tables_number   1
_chemical_formula_structural   UMoC2
_chemical_formula_sum   'U4 Mo4 C8'
_cell_volume   199.62507063
_cell_formula_units_Z   4
loop_
 _symmetry_equiv_pos_site_id
 _symmetry_equiv_pos_as_xyz
  1  'x, y, z'
loop_
 _atom_site_type_symbol
 _atom_site_label
 _atom_site_symmetry_multiplicity
 _atom_site_fract_x
 _atom_site_fract_y
 _atom_site_fract_z
 _atom_site_occupancy
  U  U0  1  0.25000000  0.57918842  0.35749784  1
  U  U1  1  0.75000000  0.42081158  0.64250216  1
  U  U2  1  0.25000000  0.07919776  0.14248065  1
  U  U3  1  0.75000000  0.92080224  0.85751935  1
  Mo  Mo0  1  0.75000000  0.57793540  0.10048494  1
  Mo  Mo1  1  0.75000000  0.07792209  0.39948860  1
  Mo  Mo2  1  0.25000000  0.42206560  0.89951506  1
  Mo  Mo3  1  0.25000000  0.92207791  0.60051140  1
  C  C0  1  0.25000000  0.25159168  0.49302643  1
  C  C1  1  0.75000000  0.74840832  0.50697357  1
  C  C2  1  0.25000000  0.75156045  0.00698257  1
  C  C3  1  0.75000000  0.24843955  0.99301743  1
  C  C4  1  0.25000000  0.66117742  0.74366172  1
  C  C5  1  0.75000000  0.83885949  0.24365556  1
  C  C6  1  0.25000000  0.16114051  0.75634444  1
  C  C7  1  0.75000000  0.33882258  0.25633828  1
loop_
_geom_bond_atom_site_label_1
_geom_bond_atom_site_label_2
_geom_bond_distance
_geom_bond_site_symmetry_2
C0 Mo1 2.146423 1_555
C0 Mo1 2.146423 1_455
C0 Mo3 2.199905 1_545
C0 U0 2.372608 1_555
C0 U1 2.492684 1_555
C0 U1 2.492684 1_455
C1 Mo3 2.146423 1_555
C1 Mo3 2.146423 1_655
C1 Mo1 2.199905 1_565
C1 U1 2.372608 1_555
C1 U0 2.492684 1_655
C1 U0 2.492684 1_555
C2 Mo0 2.146130 1_455
C2 Mo0 2.146130 1_555
C2 Mo2 2.199691 1_554
C2 U2 2.372550 1_565
C2 U3 2.492653 1_454
C2 U3 2.492653 1_554
C3 Mo2 2.146133 1_655
C3 Mo2 2.146133 1_555
C3 Mo0 2.199696 1_556
C3 U3 2.372550 1_545
C3 U2 2.492653 1_656
C3 U2 2.492653 1_556
C4 Mo3 2.155615 1_555
C4 Mo2 2.182774 1_555
C4 U1 2.379270 1_555
C4 U1 2.379270 1_455
C4 U3 2.509528 1_555
C4 U3 2.509528 1_455
C5 Mo0 2.155847 1_555
C5 Mo1 2.182405 1_565
C5 U2 2.379274 1_565
C5 U2 2.379274 1_665
C5 U0 2.509609 1_555
C5 U0 2.509609 1_655
C6 Mo2 2.155851 1_555
C6 Mo3 2.182405 1_545
C6 U3 2.379274 1_545
C6 U3 2.379274 1_445
C6 U1 2.509609 1_555
C6 U1 2.509609 1_455
C7 Mo1 2.155615 1_555
C7 Mo0 2.182777 1_555
C7 U0 2.379270 1_655
C7 U0 2.379270 1_555
C7 U2 2.509528 1_555
C7 U2 2.509528 1_655
