# generated using pymatgen
data_Ca2Al4NiGe2
_symmetry_space_group_name_H-M   'P 1'
_cell_length_a   4.14593251
_cell_length_b   4.14594158
_cell_length_c   10.32402036
_cell_angle_alpha   101.56202194
_cell_angle_beta   101.56177874
_cell_angle_gamma   89.99773802
_symmetry_Int_Tables_number   1
_chemical_formula_structural   Ca2Al4NiGe2
_chemical_formula_sum   'Ca2 Al4 Ni1 Ge2'
_cell_volume   170.17990926
_cell_formula_units_Z   1
loop_
 _symmetry_equiv_pos_site_id
 _symmetry_equiv_pos_as_xyz
  1  'x, y, z'
loop_
 _atom_site_type_symbol
 _atom_site_label
 _atom_site_symmetry_multiplicity
 _atom_site_fract_x
 _atom_site_fract_y
 _atom_site_fract_z
 _atom_site_occupancy
  Ca  Ca0  1  0.18638915  0.18638815  0.37329517  1
  Ca  Ca1  1  0.81361285  0.81361385  0.62670383  1
  Al  Al0  1  0.56567581  0.06560576  0.13142473  1
  Al  Al1  1  0.06560676  0.56567781  0.13142473  1
  Al  Al2  1  0.93439324  0.43432219  0.86857427  1
  Al  Al3  1  0.43432419  0.93439424  0.86857427  1
  Ni  Ni0  1  0.00000000  0.00000000  0.00000000  1
  Ge  Ge0  1  0.65286233  0.65286133  0.30605380  1
  Ge  Ge1  1  0.34713967  0.34714267  0.69394720  1
loop_
_geom_bond_atom_site_label_1
_geom_bond_atom_site_label_2
_geom_bond_distance
_geom_bond_site_symmetry_2
Ca0 Ge0 3.006136 1_445
Ca0 Ge0 3.006201 1_545
Ca0 Ge0 3.006205 1_455
Ca0 Ge0 3.006496 1_555
Ca0 Ge1 3.174660 1_555
Ca1 Ge1 3.006140 1_665
Ca1 Ge1 3.006204 1_655
Ca1 Ge1 3.006211 1_565
Ca1 Ge1 3.006501 1_555
Ca1 Ge0 3.174640 1_555
Al0 Ni0 2.447203 1_655
Al0 Ni0 2.447806 1_555
Al0 Ge0 2.699015 1_545
Al0 Ge0 2.699665 1_555
Al0 Ca0 3.167266 1_555
Al0 Ca0 3.167285 1_655
Al1 Ni0 2.447204 1_565
Al1 Ni0 2.447813 1_555
Al1 Ge0 2.699006 1_455
Al1 Ge0 2.699666 1_555
Al1 Ca0 3.167274 1_565
Al1 Ca0 3.167283 1_555
Al2 Ni0 2.447211 1_656
Al2 Ni0 2.447816 1_666
Al2 Ge1 2.698997 1_655
Al2 Ge1 2.699651 1_555
Al2 Ca1 3.167268 1_545
Al2 Ca1 3.167289 1_555
Al3 Ni0 2.447210 1_566
Al3 Ni0 2.447810 1_666
Al3 Ge1 2.699012 1_565
Al3 Ge1 2.699643 1_555
Al3 Ca1 3.167272 1_555
Al3 Ca1 3.167279 1_455
