# generated using pymatgen
data_Rb4MgMnSe4
_symmetry_space_group_name_H-M   'P 1'
_cell_length_a   8.50181627
_cell_length_b   8.50181696
_cell_length_c   8.50181631
_cell_angle_alpha   133.95766540
_cell_angle_beta   128.83110067
_cell_angle_gamma   71.26730800
_symmetry_Int_Tables_number   1
_chemical_formula_structural   Rb4MgMnSe4
_chemical_formula_sum   'Rb4 Mg1 Mn1 Se4'
_cell_volume   337.39329500
_cell_formula_units_Z   1
loop_
 _symmetry_equiv_pos_site_id
 _symmetry_equiv_pos_as_xyz
  1  'x, y, z'
loop_
 _atom_site_type_symbol
 _atom_site_label
 _atom_site_symmetry_multiplicity
 _atom_site_fract_x
 _atom_site_fract_y
 _atom_site_fract_z
 _atom_site_occupancy
  Rb  Rb0  1  0.81109899  0.64601011  0.16278667  1
  Rb  Rb1  1  0.18890101  0.35168668  0.83491012  1
  Rb  Rb2  1  0.51677656  0.85398989  0.66508988  1
  Rb  Rb3  1  0.48322344  0.14831332  0.33721333  1
  Mg  Mg0  1  0.00000000  0.75000000  0.75000000  1
  Mn  Mn0  1  0.00000000  0.25000000  0.25000000  1
  Se  Se0  1  0.29072505  0.59948010  0.68657686  1
  Se  Se1  1  0.08709676  0.90051990  0.19124495  1
  Se  Se2  1  0.91290324  0.10414819  0.81342314  1
  Se  Se3  1  0.70927495  0.39585181  0.30875505  1
loop_
_geom_bond_atom_site_label_1
_geom_bond_atom_site_label_2
_geom_bond_distance
_geom_bond_site_symmetry_2
Rb0 Se1 3.474043 1_655
Rb0 Se2 3.530025 1_554
Rb0 Se0 3.543918 1_554
Rb0 Se2 3.573414 1_565
Rb0 Se3 3.606479 1_555
Rb0 Se0 3.905424 1_655
Rb1 Se2 3.474044 1_455
Rb1 Se1 3.530019 1_545
Rb1 Se3 3.543918 1_556
Rb1 Se1 3.573420 1_556
Rb1 Se0 3.606479 1_555
Rb1 Se3 3.905424 1_455
Rb2 Se0 3.474036 1_555
Rb2 Se3 3.530022 1_566
Rb2 Se1 3.543922 1_555
Rb2 Se3 3.573417 1_555
Rb2 Se2 3.606484 1_565
Rb2 Se1 3.905422 1_656
Rb3 Se3 3.474036 1_555
Rb3 Se0 3.530022 1_555
Rb3 Se2 3.543922 1_555
Rb3 Se0 3.573417 1_544
Rb3 Se1 3.606484 1_545
Rb3 Se2 3.905422 1_454
Mg0 Se1 2.592186 1_556
Mg0 Se3 2.592186 1_455
Mg0 Se0 2.592186 1_555
Mg0 Se2 2.592186 1_465
Mn0 Se2 2.572202 1_454
Mn0 Se0 2.572202 1_555
Mn0 Se3 2.572202 1_455
Mn0 Se1 2.572202 1_545
