# generated using pymatgen
data_Na4Ca2TiAs4
_symmetry_space_group_name_H-M   'P 1'
_cell_length_a   9.40374508
_cell_length_b   9.40374461
_cell_length_c   7.30958473
_cell_angle_alpha   89.02946263
_cell_angle_beta   89.02946051
_cell_angle_gamma   120.01876917
_symmetry_Int_Tables_number   1
_chemical_formula_structural   Na4Ca2TiAs4
_chemical_formula_sum   'Na8 Ca4 Ti2 As8'
_cell_volume   559.36250681
_cell_formula_units_Z   2
loop_
 _symmetry_equiv_pos_site_id
 _symmetry_equiv_pos_as_xyz
  1  'x, y, z'
loop_
 _atom_site_type_symbol
 _atom_site_label
 _atom_site_symmetry_multiplicity
 _atom_site_fract_x
 _atom_site_fract_y
 _atom_site_fract_z
 _atom_site_occupancy
  Na  Na0  1  0.47282487  0.93741712  0.37850176  1
  Na  Na1  1  0.93741712  0.47282487  0.87850176  1
  Na  Na2  1  0.86617433  0.72591924  0.18818348  1
  Na  Na3  1  0.27593442  0.13023271  0.23429261  1
  Na  Na4  1  0.85360419  0.13664549  0.21023216  1
  Na  Na5  1  0.13023271  0.27593442  0.73429261  1
  Na  Na6  1  0.72591924  0.86617433  0.68818348  1
  Na  Na7  1  0.13664549  0.85360419  0.71023216  1
  Ca  Ca0  1  0.05879208  0.53075079  0.38477215  1
  Ca  Ca1  1  0.47760533  0.53173836  0.37695372  1
  Ca  Ca2  1  0.53075079  0.05879208  0.88477215  1
  Ca  Ca3  1  0.53173836  0.47760533  0.87695372  1
  Ti  Ti0  1  0.66391384  0.32999842  0.49115529  1
  Ti  Ti1  1  0.32999842  0.66391384  0.99115529  1
  As  As0  1  0.19775245  0.38244594  0.11945139  1
  As  As1  1  0.61986750  0.80687859  0.08284499  1
  As  As2  1  0.19680772  0.81280077  0.09954375  1
  As  As3  1  0.80687859  0.61986750  0.58284499  1
  As  As4  1  0.38244594  0.19775245  0.61945139  1
  As  As5  1  0.81280077  0.19680772  0.59954375  1
  As  As6  1  0.65749541  0.33424740  0.15404870  1
  As  As7  1  0.33424740  0.65749541  0.65404870  1
loop_
_geom_bond_atom_site_label_1
_geom_bond_atom_site_label_2
_geom_bond_distance
_geom_bond_site_symmetry_2
As0 Ti1 2.452495 1_554
As0 Na3 2.927208 1_555
As0 Na4 2.940609 1_455
As0 Na5 2.975286 1_554
As0 Ca1 3.000007 1_555
As0 Ca0 3.040229 1_555
As0 Ca3 3.279089 1_554
As0 Na1 3.463356 1_454
As1 Ti1 2.472363 1_554
As1 Na2 2.888292 1_555
As1 Na4 2.943111 1_565
As1 Na6 2.986516 1_554
As1 Ca1 3.058855 1_555
As1 Na0 3.126716 1_555
As1 Ca3 3.189361 1_554
As1 Ca2 3.212727 1_564
As2 Ti1 2.432131 1_554
As2 Na2 2.850705 1_455
As2 Na3 2.887275 1_565
As2 Na7 2.966496 1_554
As2 Ca0 3.056597 1_555
As2 Na0 3.079774 1_555
As2 Ca2 3.181000 1_564
As2 Na1 3.359656 1_454
As3 Ti0 2.472363 1_555
As3 Na6 2.888291 1_555
As3 Na7 2.943111 1_655
As3 Na2 2.986516 1_555
As3 Ca3 3.058855 1_555
As3 Na1 3.126717 1_555
As3 Ca1 3.189361 1_555
As3 Ca0 3.212727 1_655
As4 Ti0 2.452495 1_555
As4 Na5 2.927208 1_555
As4 Na7 2.940609 1_545
As4 Na3 2.975286 1_555
As4 Ca3 3.000006 1_555
As4 Ca2 3.040229 1_555
As4 Ca1 3.279089 1_555
As4 Na0 3.463355 1_545
As5 Ti0 2.432131 1_555
As5 Na6 2.850705 1_545
As5 Na5 2.887275 1_655
As5 Na4 2.966496 1_555
As5 Ca2 3.056597 1_555
As5 Na1 3.079774 1_555
As5 Ca0 3.181000 1_655
As5 Na0 3.359656 1_545
As6 Ti0 2.466007 1_555
As6 Ca3 2.983644 1_554
As6 Na1 2.997205 1_554
As6 Ca2 3.027804 1_554
As6 Na3 3.146755 1_555
As6 Na2 3.208556 1_555
As6 Na4 3.232805 1_555
As7 Ti1 2.466007 1_555
As7 Ca1 2.983644 1_555
As7 Na0 2.997204 1_555
As7 Ca0 3.027804 1_555
As7 Na5 3.146754 1_555
As7 Na6 3.208556 1_555
As7 Na7 3.232805 1_555
