# generated using pymatgen
data_Sr6Rh4PbO15
_symmetry_space_group_name_H-M   'P 1'
_cell_length_a   7.11351283
_cell_length_b   7.11351246
_cell_length_c   7.11351354
_cell_angle_alpha   85.29147738
_cell_angle_beta   85.29148262
_cell_angle_gamma   85.29147672
_symmetry_Int_Tables_number   1
_chemical_formula_structural   Sr6Rh4PbO15
_chemical_formula_sum   'Sr6 Rh4 Pb1 O15'
_cell_volume   356.50274145
_cell_formula_units_Z   1
loop_
 _symmetry_equiv_pos_site_id
 _symmetry_equiv_pos_as_xyz
  1  'x, y, z'
loop_
 _atom_site_type_symbol
 _atom_site_label
 _atom_site_symmetry_multiplicity
 _atom_site_fract_x
 _atom_site_fract_y
 _atom_site_fract_z
 _atom_site_occupancy
  Sr  Sr0  1  0.33316171  0.66683829  0.00000000  1
  Sr  Sr1  1  0.66683829  0.00000000  0.33316171  1
  Sr  Sr2  1  1.00000000  0.33316171  0.66683829  1
  Sr  Sr3  1  0.13831629  0.86168371  0.50000000  1
  Sr  Sr4  1  0.86168371  0.50000000  0.13831629  1
  Sr  Sr5  1  0.50000000  0.13831629  0.86168371  1
  Rh  Rh0  1  0.90816043  0.90816043  0.90816043  1
  Rh  Rh1  1  0.09183957  0.09183957  0.09183957  1
  Rh  Rh2  1  0.71617449  0.71617449  0.71617449  1
  Rh  Rh3  1  0.28382551  0.28382551  0.28382551  1
  Pb  Pb0  1  0.50000000  0.50000000  0.50000000  1
  O  O0  1  0.22281637  0.54443273  0.37297205  1
  O  O1  1  0.37297205  0.22281637  0.54443273  1
  O  O2  1  0.54443273  0.37297205  0.22281637  1
  O  O3  1  0.77718363  0.62702795  0.45556727  1
  O  O4  1  0.45556727  0.77718363  0.62702795  1
  O  O5  1  0.62702795  0.45556727  0.77718363  1
  O  O6  1  1.00000000  0.83409855  0.16590145  1
  O  O7  1  0.16590145  0.00000000  0.83409855  1
  O  O8  1  0.83409855  0.16590145  0.00000000  1
  O  O9  1  0.34681167  0.01372429  0.19423484  1
  O  O10  1  0.19423484  0.34681167  0.01372429  1
  O  O11  1  0.80576516  0.98627571  0.65318833  1
  O  O12  1  0.98627571  0.65318833  0.80576516  1
  O  O13  1  0.65318833  0.80576516  0.98627571  1
  O  O14  1  0.01372429  0.19423484  0.34681167  1
loop_
_geom_bond_atom_site_label_1
_geom_bond_atom_site_label_2
_geom_bond_distance
_geom_bond_site_symmetry_2
O0 Rh3 2.010701 1_555
O0 Pb0 2.224302 1_555
O0 Sr3 2.508735 1_555
O0 Sr0 2.793655 1_555
O0 Sr2 2.910686 1_455
O1 Rh3 2.010701 1_555
O1 Pb0 2.224302 1_555
O1 Sr5 2.508735 1_555
O1 Sr2 2.793655 1_455
O1 Sr1 2.910686 1_555
O2 Rh3 2.010701 1_555
O2 Pb0 2.224302 1_555
O2 Sr4 2.508735 1_555
O2 Sr1 2.793655 1_555
O2 Sr0 2.910686 1_555
O3 Rh2 2.010701 1_555
O3 Pb0 2.224302 1_555
O3 Sr4 2.508735 1_555
O3 Sr1 2.793655 1_565
O3 Sr2 2.910686 1_555
O4 Rh2 2.010701 1_555
O4 Pb0 2.224302 1_555
O4 Sr3 2.508735 1_555
O4 Sr0 2.793655 1_556
O4 Sr1 2.910686 1_565
O5 Rh2 2.010701 1_555
O5 Pb0 2.224302 1_555
O5 Sr5 2.508735 1_555
O5 Sr2 2.793655 1_555
O5 Sr0 2.910686 1_556
O6 Rh1 2.011825 1_665
O6 Rh0 2.011825 1_554
O6 Sr4 2.673397 1_555
O6 Sr3 2.673397 1_655
O6 Sr0 2.780910 1_655
O6 Sr1 2.780910 1_565
O7 Rh0 2.011825 1_445
O7 Rh1 2.011825 1_556
O7 Sr5 2.673397 1_555
O7 Sr3 2.673397 1_545
O7 Sr0 2.780909 1_546
O7 Sr2 2.780909 1_455
O8 Rh0 2.011825 1_544
O8 Rh1 2.011825 1_655
O8 Sr4 2.673397 1_555
O8 Sr5 2.673397 1_554
O8 Sr2 2.780910 1_554
O8 Sr1 2.780910 1_555
O9 Rh1 2.028296 1_555
O9 Rh3 2.076387 1_555
O9 Sr1 2.546709 1_555
O9 Sr5 2.638220 1_554
O9 Sr3 2.729077 1_545
O9 Sr0 2.937438 1_545
O10 Rh1 2.028296 1_555
O10 Rh3 2.076387 1_555
O10 Sr0 2.546709 1_555
O10 Sr4 2.638220 1_455
O10 Sr5 2.729077 1_554
O10 Sr2 2.937438 1_454
O11 Rh0 2.028296 1_555
O11 Rh2 2.076387 1_555
O11 Sr1 2.546709 1_565
O11 Sr3 2.638220 1_655
O11 Sr5 2.729077 1_565
O11 Sr2 2.937438 1_565
O12 Rh0 2.028296 1_555
O12 Rh2 2.076387 1_555
O12 Sr2 2.546709 1_555
O12 Sr4 2.638220 1_556
O12 Sr3 2.729077 1_655
O12 Sr0 2.937438 1_656
O13 Rh0 2.028296 1_555
O13 Rh2 2.076387 1_555
O13 Sr0 2.546709 1_556
O13 Sr5 2.638219 1_565
O13 Sr4 2.729076 1_556
O13 Sr1 2.937438 1_566
O14 Rh1 2.028296 1_555
O14 Rh3 2.076387 1_555
O14 Sr2 2.546709 1_455
O14 Sr3 2.638219 1_545
O14 Sr4 2.729076 1_455
O14 Sr1 2.937438 1_455
