# generated using pymatgen
data_Hf16Nb3Ni4Os
_symmetry_space_group_name_H-M   'P 1'
_cell_length_a   8.67892066
_cell_length_b   8.71880962
_cell_length_c   8.71880918
_cell_angle_alpha   59.99999418
_cell_angle_beta   59.84784046
_cell_angle_gamma   59.84784394
_symmetry_Int_Tables_number   1
_chemical_formula_structural   Hf16Nb3Ni4Os
_chemical_formula_sum   'Hf16 Nb3 Ni4 Os1'
_cell_volume   465.43861572
_cell_formula_units_Z   1
loop_
 _symmetry_equiv_pos_site_id
 _symmetry_equiv_pos_as_xyz
  1  'x, y, z'
loop_
 _atom_site_type_symbol
 _atom_site_label
 _atom_site_symmetry_multiplicity
 _atom_site_fract_x
 _atom_site_fract_y
 _atom_site_fract_z
 _atom_site_occupancy
  Hf  Hf0  1  0.69835867  0.10054744  0.10054744  1
  Hf  Hf1  1  0.09975882  0.69720982  0.10151618  1
  Hf  Hf2  1  0.09975882  0.10151618  0.69720982  1
  Hf  Hf3  1  0.09975882  0.10151618  0.10151618  1
  Hf  Hf4  1  0.31497348  0.31408189  0.68547281  1
  Hf  Hf5  1  0.69047653  0.68181192  0.31385527  1
  Hf  Hf6  1  0.31497348  0.68547281  0.31408189  1
  Hf  Hf7  1  0.69047653  0.31385527  0.68181192  1
  Hf  Hf8  1  0.69047653  0.31385527  0.31385527  1
  Hf  Hf9  1  0.31497348  0.68547281  0.68547281  1
  Hf  Hf10  1  0.94981352  0.95101410  0.54958669  1
  Hf  Hf11  1  0.55097530  0.55093038  0.94904666  1
  Hf  Hf12  1  0.94981352  0.54958669  0.95101410  1
  Hf  Hf13  1  0.55097530  0.94904666  0.55093038  1
  Hf  Hf14  1  0.55097530  0.94904666  0.94904666  1
  Hf  Hf15  1  0.94981352  0.54958669  0.54958669  1
  Nb  Nb0  1  0.33066764  0.00179059  0.33377039  1
  Nb  Nb1  1  0.33066764  0.33377039  0.00179059  1
  Nb  Nb2  1  0.33066764  0.33377039  0.33377039  1
  Ni  Ni0  1  0.32451071  0.89183043  0.89183043  1
  Ni  Ni1  1  0.89297337  0.32547666  0.89077549  1
  Ni  Ni2  1  0.89297337  0.89077549  0.32547666  1
  Ni  Ni3  1  0.89297337  0.89077549  0.89077549  1
  Os  Os0  1  0.98821162  0.33726279  0.33726279  1
loop_
_geom_bond_atom_site_label_1
_geom_bond_atom_site_label_2
_geom_bond_distance
_geom_bond_site_symmetry_2
Hf0 Ni1 2.584837 1_554
Hf0 Ni2 2.584837 1_545
Hf0 Ni3 2.584837 1_544
Hf0 Nb2 3.090364 1_555
Hf0 Nb0 3.090372 1_555
Hf0 Nb1 3.090372 1_555
Hf0 Hf8 3.182062 1_555
Hf0 Hf7 3.182077 1_554
Hf0 Hf5 3.182077 1_545
Hf1 Ni2 2.571806 1_455
Hf1 Ni3 2.571806 1_454
Hf1 Ni0 2.582041 1_554
Hf1 Nb2 3.072192 1_555
Hf1 Nb1 3.072200 1_555
Hf1 Os0 3.100581 1_455
Hf1 Hf5 3.112427 1_455
Hf1 Hf9 3.167015 1_554
Hf1 Hf6 3.167015 1_555
Hf2 Ni3 2.571806 1_445
Hf2 Ni1 2.571806 1_455
Hf2 Ni0 2.582041 1_545
Hf2 Nb2 3.072192 1_555
Hf2 Nb0 3.072200 1_555
Hf2 Os0 3.100581 1_455
Hf2 Hf7 3.112427 1_455
Hf2 Hf9 3.167015 1_545
Hf2 Hf4 3.167015 1_555
Hf3 Ni2 2.571805 1_445
Hf3 Ni1 2.571806 1_454
Hf3 Ni0 2.582035 1_544
Hf3 Nb0 3.072186 1_555
Hf3 Nb1 3.072186 1_555
Hf3 Os0 3.100574 1_455
Hf3 Hf8 3.112421 1_455
Hf3 Hf4 3.167015 1_554
Hf3 Hf6 3.167015 1_545
Hf4 Nb1 2.920343 1_556
Hf4 Nb2 2.920360 1_555
Hf4 Ni1 3.139139 1_455
Hf4 Ni0 3.165012 1_545
Hf4 Hf6 3.238086 1_555
Hf4 Hf9 3.238087 1_555
Hf4 Hf7 3.242059 1_555
Hf4 Hf8 3.242067 1_555
Hf5 Os0 2.803863 1_555
Hf5 Nb0 2.958480 1_565
Hf5 Ni3 3.162017 1_554
Hf5 Ni2 3.162028 1_555
Hf5 Hf7 3.208144 1_555
Hf5 Hf8 3.208144 1_555
Hf5 Hf6 3.242059 1_555
Hf5 Hf9 3.242067 1_555
Hf6 Nb0 2.920343 1_565
Hf6 Nb2 2.920360 1_555
Hf6 Ni2 3.139139 1_455
Hf6 Ni0 3.165012 1_554
Hf6 Hf9 3.238087 1_555
Hf6 Hf8 3.242067 1_555
Hf7 Os0 2.803863 1_555
Hf7 Nb1 2.958480 1_556
Hf7 Ni3 3.162018 1_545
Hf7 Ni1 3.162028 1_555
Hf7 Hf8 3.208144 1_555
Hf7 Hf9 3.242067 1_555
Hf8 Os0 2.803869 1_555
Hf8 Nb2 2.958480 1_555
Hf8 Ni1 3.162013 1_554
Hf8 Ni2 3.162013 1_545
Hf9 Nb0 2.920352 1_565
Hf9 Nb1 2.920352 1_556
Hf9 Ni3 3.139139 1_455
Hf9 Ni0 3.165020 1_555
Hf10 Ni3 2.567505 1_555
Hf10 Ni2 2.567505 1_555
Hf10 Nb0 3.008509 1_665
Hf10 Os0 3.025301 1_565
Hf10 Hf7 3.207842 1_565
Hf10 Hf8 3.207851 1_565
Hf10 Hf6 3.235060 1_655
Hf10 Hf9 3.235060 1_655
Hf11 Ni1 2.560183 1_555
Hf11 Ni0 2.565097 1_555
Hf11 Nb2 3.055330 1_556
Hf11 Nb1 3.055330 1_556
Hf11 Hf9 3.235971 1_555
Hf11 Hf6 3.235985 1_556
Hf11 Hf8 3.261170 1_556
Hf11 Hf7 3.261170 1_555
Hf12 Ni3 2.567505 1_555
Hf12 Ni1 2.567505 1_555
Hf12 Nb1 3.008509 1_656
Hf12 Os0 3.025301 1_556
Hf12 Hf5 3.207842 1_556
Hf12 Hf8 3.207851 1_556
Hf12 Hf9 3.235060 1_655
Hf12 Hf4 3.235060 1_655
Hf13 Ni2 2.560183 1_555
Hf13 Ni0 2.565097 1_555
Hf13 Nb2 3.055330 1_565
Hf13 Nb0 3.055330 1_565
Hf13 Hf9 3.235971 1_555
Hf13 Hf4 3.235985 1_565
Hf13 Hf8 3.261170 1_565
Hf13 Hf5 3.261170 1_555
Hf14 Ni3 2.560188 1_555
Hf14 Ni0 2.565079 1_555
Hf14 Nb0 3.055330 1_566
Hf14 Nb1 3.055330 1_566
Hf14 Hf6 3.235976 1_556
Hf14 Hf4 3.235976 1_565
Hf14 Hf5 3.261170 1_556
Hf14 Hf7 3.261170 1_565
Hf15 Ni1 2.567505 1_555
Hf15 Ni2 2.567505 1_555
Hf15 Nb2 3.008515 1_655
Hf15 Os0 3.025309 1_555
Hf15 Hf7 3.207857 1_555
Hf15 Hf5 3.207857 1_555
Hf15 Hf6 3.235060 1_655
Hf15 Hf4 3.235060 1_655
Nb0 Nb1 2.894468 1_555
Nb0 Nb2 2.894469 1_555
Nb0 Os0 2.941877 1_455
Nb1 Nb2 2.894469 1_555
Nb1 Os0 2.941877 1_455
Nb2 Os0 2.941873 1_455
