# generated using pymatgen
data_RbBaAsS4
_symmetry_space_group_name_H-M   'P 1'
_cell_length_a   6.91262824
_cell_length_b   9.39987447
_cell_length_c   13.15820403
_cell_angle_alpha   90.00000000
_cell_angle_beta   90.00000000
_cell_angle_gamma   90.00000000
_symmetry_Int_Tables_number   1
_chemical_formula_structural   RbBaAsS4
_chemical_formula_sum   'Rb4 Ba4 As4 S16'
_cell_volume   854.99164588
_cell_formula_units_Z   4
loop_
 _symmetry_equiv_pos_site_id
 _symmetry_equiv_pos_as_xyz
  1  'x, y, z'
loop_
 _atom_site_type_symbol
 _atom_site_label
 _atom_site_symmetry_multiplicity
 _atom_site_fract_x
 _atom_site_fract_y
 _atom_site_fract_z
 _atom_site_occupancy
  Rb  Rb0  1  0.25000000  0.38283285  0.09970795  1
  Rb  Rb1  1  0.75000000  0.61716715  0.90029205  1
  Rb  Rb2  1  0.75000000  0.88283285  0.40029205  1
  Rb  Rb3  1  0.25000000  0.11716715  0.59970795  1
  Ba  Ba0  1  0.25000000  0.60381163  0.64003615  1
  Ba  Ba1  1  0.75000000  0.39618837  0.35996385  1
  Ba  Ba2  1  0.75000000  0.10381163  0.85996385  1
  Ba  Ba3  1  0.25000000  0.89618837  0.14003615  1
  As  As0  1  0.25000000  0.62830169  0.34718250  1
  As  As1  1  0.75000000  0.37169831  0.65281750  1
  As  As2  1  0.75000000  0.12830169  0.15281750  1
  As  As3  1  0.25000000  0.87169831  0.84718250  1
  S  S0  1  0.25000000  0.07281638  0.92834288  1
  S  S1  1  0.75000000  0.92718362  0.07165712  1
  S  S2  1  0.75000000  0.57281638  0.57165712  1
  S  S3  1  0.25000000  0.42718362  0.42834288  1
  S  S4  1  0.25000000  0.81115275  0.44771709  1
  S  S5  1  0.75000000  0.18884725  0.55228291  1
  S  S6  1  0.75000000  0.31115275  0.05228291  1
  S  S7  1  0.25000000  0.68884725  0.94771709  1
  S  S8  1  0.00100955  0.14232337  0.25050648  1
  S  S9  1  0.50100955  0.85767663  0.74949352  1
  S  S10  1  0.99899045  0.64232337  0.24949352  1
  S  S11  1  0.49899045  0.35767663  0.75050648  1
  S  S12  1  0.99899045  0.85767663  0.74949352  1
  S  S13  1  0.49899045  0.14232337  0.25050648  1
  S  S14  1  0.00100955  0.35767663  0.75050648  1
  S  S15  1  0.50100955  0.64232337  0.24949352  1
loop_
_geom_bond_atom_site_label_1
_geom_bond_atom_site_label_2
_geom_bond_distance
_geom_bond_site_symmetry_2
Rb0 S13 3.465644 1_555
Rb0 S8 3.465644 1_555
Rb0 S7 3.503419 1_554
Rb0 S6 3.576242 1_555
Rb0 S6 3.576242 1_455
Rb0 S15 3.583960 1_555
Rb0 S10 3.583960 1_455
Rb0 S0 3.684623 1_554
Rb1 S9 3.465644 1_555
Rb1 S12 3.465644 1_555
Rb1 S6 3.503419 1_556
Rb1 S7 3.576242 1_555
Rb1 S7 3.576242 1_655
Rb1 S14 3.583960 1_655
Rb1 S11 3.583960 1_555
Rb1 S1 3.684623 1_556
Rb2 S15 3.465644 1_555
Rb2 S10 3.465644 1_555
Rb2 S5 3.503419 1_565
Rb2 S4 3.576242 1_555
Rb2 S4 3.576242 1_655
Rb2 S8 3.583960 1_665
Rb2 S13 3.583960 1_565
Rb2 S2 3.684623 1_555
Rb3 S14 3.465644 1_555
Rb3 S11 3.465644 1_555
Rb3 S4 3.503419 1_545
Rb3 S5 3.576242 1_455
Rb3 S5 3.576242 1_555
Rb3 S12 3.583960 1_445
Rb3 S9 3.583960 1_545
Rb3 S3 3.684623 1_555
Ba0 S4 3.194108 1_555
Ba0 S14 3.229288 1_555
Ba0 S11 3.229288 1_555
Ba0 S3 3.242771 1_555
Ba0 S12 3.283211 1_455
Ba0 S9 3.283211 1_555
Ba0 S2 3.583369 1_455
Ba0 S2 3.583369 1_555
Ba1 S5 3.194108 1_555
Ba1 S15 3.229288 1_555
Ba1 S10 3.229288 1_555
Ba1 S2 3.242771 1_555
Ba1 S8 3.283211 1_655
Ba1 S13 3.283211 1_555
Ba1 S3 3.583369 1_555
Ba1 S3 3.583369 1_655
Ba2 S6 3.194108 1_556
Ba2 S9 3.229288 1_545
Ba2 S12 3.229288 1_545
Ba2 S1 3.242771 1_546
Ba2 S11 3.283211 1_555
Ba2 S14 3.283211 1_655
Ba2 S0 3.583369 1_555
Ba2 S0 3.583369 1_655
Ba3 S7 3.194108 1_554
Ba3 S8 3.229288 1_565
Ba3 S13 3.229288 1_565
Ba3 S0 3.242771 1_564
Ba3 S10 3.283211 1_455
Ba3 S15 3.283211 1_555
Ba3 S1 3.583369 1_455
Ba3 S1 3.583369 1_555
As0 S10 2.163412 1_455
As0 S15 2.163412 1_555
As0 S4 2.168903 1_555
As0 S3 2.171266 1_555
As1 S11 2.163412 1_555
As1 S14 2.163412 1_655
As1 S5 2.168903 1_555
As1 S2 2.171266 1_555
As2 S13 2.163412 1_555
As2 S8 2.163412 1_655
As2 S6 2.168903 1_555
As2 S1 2.171266 1_545
As3 S12 2.163412 1_455
As3 S9 2.163412 1_555
As3 S7 2.168903 1_555
As3 S0 2.171266 1_565
