# generated using pymatgen
data_Ba3YFeIrO9
_symmetry_space_group_name_H-M   'P 1'
_cell_length_a   5.85080459
_cell_length_b   5.85080433
_cell_length_c   14.55293960
_cell_angle_alpha   90.00000000
_cell_angle_beta   90.00000000
_cell_angle_gamma   120.00000670
_symmetry_Int_Tables_number   1
_chemical_formula_structural   Ba3YFeIrO9
_chemical_formula_sum   'Ba6 Y2 Fe2 Ir2 O18'
_cell_volume   431.43214134
_cell_formula_units_Z   2
loop_
 _symmetry_equiv_pos_site_id
 _symmetry_equiv_pos_as_xyz
  1  'x, y, z'
loop_
 _atom_site_type_symbol
 _atom_site_label
 _atom_site_symmetry_multiplicity
 _atom_site_fract_x
 _atom_site_fract_y
 _atom_site_fract_z
 _atom_site_occupancy
  Ba  Ba0  1  0.66666700  0.33333300  0.40296938  1
  Ba  Ba1  1  0.33333300  0.66666700  0.58945827  1
  Ba  Ba2  1  0.33333300  0.66666700  0.90296938  1
  Ba  Ba3  1  0.66666700  0.33333300  0.08945827  1
  Ba  Ba4  1  0.00000000  0.00000000  0.74969791  1
  Ba  Ba5  1  0.00000000  0.00000000  0.24969791  1
  Y  Y0  1  0.00000000  0.00000000  0.49723935  1
  Y  Y1  1  0.00000000  0.00000000  0.99723935  1
  Fe  Fe0  1  0.33333300  0.66666700  0.34450097  1
  Fe  Fe1  1  0.66666700  0.33333300  0.84450097  1
  Ir  Ir0  1  0.66666700  0.33333300  0.66264689  1
  Ir  Ir1  1  0.33333300  0.66666700  0.16264689  1
  O  O0  1  0.52089175  0.04178351  0.75540682  1
  O  O1  1  0.52089175  0.47910825  0.75540682  1
  O  O2  1  0.95821649  0.47910825  0.75540682  1
  O  O3  1  0.47910825  0.95821649  0.25540682  1
  O  O4  1  0.47910825  0.52089175  0.25540682  1
  O  O5  1  0.04178351  0.52089175  0.25540682  1
  O  O6  1  0.81911254  0.63822508  0.91050357  1
  O  O7  1  0.81911254  0.18088746  0.91050357  1
  O  O8  1  0.36177492  0.18088746  0.91050357  1
  O  O9  1  0.17408888  0.34817875  0.08521735  1
  O  O10  1  0.17408888  0.82591112  0.08521735  1
  O  O11  1  0.65182125  0.82591112  0.08521735  1
  O  O12  1  0.18088746  0.36177492  0.41050357  1
  O  O13  1  0.18088746  0.81911254  0.41050357  1
  O  O14  1  0.63822508  0.81911254  0.41050357  1
  O  O15  1  0.82591112  0.65182125  0.58521735  1
  O  O16  1  0.82591112  0.17408888  0.58521735  1
  O  O17  1  0.34817875  0.17408888  0.58521735  1
loop_
_geom_bond_atom_site_label_1
_geom_bond_atom_site_label_2
_geom_bond_distance
_geom_bond_site_symmetry_2
Ba0 O3 2.867798 1_545
Ba0 O5 2.867798 1_655
Ba0 O4 2.867801 1_555
Ba0 O14 2.930998 1_545
Ba0 O12 2.930998 1_655
Ba0 O13 2.931001 1_545
Ba0 O13 2.931001 1_655
Ba0 O14 2.931004 1_555
Ba0 O12 2.931004 1_555
Ba0 O15 3.104614 1_555
Ba0 O17 3.104614 1_555
Ba0 O16 3.104614 1_555
Ba1 O17 2.927014 1_565
Ba1 O15 2.927014 1_455
Ba1 O16 2.927019 1_565
Ba1 O16 2.927019 1_455
Ba1 O17 2.927026 1_555
Ba1 O15 2.927026 1_555
Ba1 O13 3.028049 1_555
Ba1 O12 3.028051 1_555
Ba1 O14 3.028051 1_555
Ba1 O0 3.073281 1_565
Ba1 O2 3.073281 1_455
Ba1 O1 3.073284 1_555
Ba2 O0 2.867798 1_565
Ba2 O2 2.867798 1_455
Ba2 O1 2.867801 1_555
Ba2 O8 2.930998 1_565
Ba2 O6 2.930998 1_455
Ba2 O7 2.931001 1_565
Ba2 O7 2.931001 1_455
Ba2 O8 2.931004 1_555
Ba2 O6 2.931004 1_555
Ba2 O9 3.104614 1_556
Ba2 O11 3.104614 1_556
Ba2 O10 3.104614 1_556
Ba3 O11 2.927014 1_545
Ba3 O9 2.927014 1_655
Ba3 O10 2.927019 1_545
Ba3 O10 2.927019 1_655
Ba3 O11 2.927026 1_555
Ba3 O9 2.927026 1_555
Ba3 O7 3.028049 1_554
Ba3 O6 3.028051 1_554
Ba3 O8 3.028051 1_554
Ba3 O3 3.073281 1_545
Ba3 O5 3.073281 1_655
Ba3 O4 3.073284 1_555
Ba4 O1 2.934229 1_445
Ba4 O1 2.934229 1_555
Ba4 O2 2.934230 1_445
Ba4 O2 2.934230 1_455
Ba4 O0 2.934230 1_555
Ba4 O0 2.934230 1_455
Ba4 O6 2.972666 1_445
Ba4 O8 2.972666 1_555
Ba4 O7 2.972666 1_455
Ba4 O16 2.973563 1_455
Ba4 O15 2.973566 1_445
Ba4 O17 2.973566 1_555
Ba5 O4 2.934229 1_555
Ba5 O4 2.934229 1_445
Ba5 O5 2.934230 1_555
Ba5 O5 2.934230 1_545
Ba5 O3 2.934230 1_445
Ba5 O3 2.934230 1_545
Ba5 O12 2.972666 1_555
Ba5 O14 2.972666 1_445
Ba5 O13 2.972666 1_545
Ba5 O10 2.973563 1_545
Ba5 O9 2.973566 1_555
Ba5 O11 2.973566 1_445
Fe0 O13 1.819130 1_555
Fe0 O12 1.819134 1_555
Fe0 O14 1.819134 1_555
Fe0 O3 1.965563 1_555
Fe0 O5 1.965563 1_555
Fe0 O4 1.965567 1_555
Fe1 O7 1.819130 1_555
Fe1 O6 1.819134 1_555
Fe1 O8 1.819134 1_555
Fe1 O0 1.965563 1_555
Fe1 O2 1.965563 1_555
Fe1 O1 1.965567 1_555
Ir0 O15 1.968240 1_555
Ir0 O17 1.968240 1_555
Ir0 O16 1.968240 1_555
Ir0 O0 2.001155 1_555
Ir0 O2 2.001155 1_555
Ir0 O1 2.001159 1_555
Ir1 O9 1.968240 1_555
Ir1 O11 1.968240 1_555
Ir1 O10 1.968240 1_555
Ir1 O3 2.001155 1_555
Ir1 O5 2.001155 1_555
Ir1 O4 2.001159 1_555
O6 Y1 2.225654 1_665
O7 Y1 2.225654 1_655
O8 Y1 2.225654 1_555
O9 Y1 2.179834 1_554
O10 Y1 2.179830 1_564
O11 Y1 2.179834 1_664
O12 Y0 2.225654 1_555
O13 Y0 2.225654 1_565
O14 Y0 2.225654 1_665
O15 Y0 2.179834 1_665
O16 Y0 2.179830 1_655
O17 Y0 2.179834 1_555
