# generated using pymatgen
data_Mg4Zn(GeIr)6
_symmetry_space_group_name_H-M   'P 1'
_cell_length_a   7.02045535
_cell_length_b   7.02045485
_cell_length_c   7.02045555
_cell_angle_alpha   109.66166269
_cell_angle_beta   109.66165406
_cell_angle_gamma   109.09101082
_symmetry_Int_Tables_number   1
_chemical_formula_structural   Mg4Zn(GeIr)6
_chemical_formula_sum   'Mg4 Zn1 Ge6 Ir6'
_cell_volume   266.35423997
_cell_formula_units_Z   1
loop_
 _symmetry_equiv_pos_site_id
 _symmetry_equiv_pos_as_xyz
  1  'x, y, z'
loop_
 _atom_site_type_symbol
 _atom_site_label
 _atom_site_symmetry_multiplicity
 _atom_site_fract_x
 _atom_site_fract_y
 _atom_site_fract_z
 _atom_site_occupancy
  Mg  Mg0  1  0.00210599  0.99789401  0.50000000  1
  Mg  Mg1  1  0.00210599  0.50210599  0.00421199  1
  Mg  Mg2  1  0.49789401  0.99789401  0.99578801  1
  Mg  Mg3  1  0.49789401  0.50210599  0.50000000  1
  Zn  Zn0  1  0.75000000  0.25000000  0.50000000  1
  Ge  Ge0  1  0.68776504  0.68776504  1.00000000  1
  Ge  Ge1  1  0.29625842  0.98895758  0.30730185  1
  Ge  Ge2  1  0.01104242  0.31834527  0.30730185  1
  Ge  Ge3  1  0.31223496  0.31223496  0.00000000  1
  Ge  Ge4  1  0.68165473  0.98895758  0.69269815  1
  Ge  Ge5  1  0.01104242  0.70374158  0.69269815  1
  Ir  Ir0  1  0.74384791  0.48821064  0.25563727  1
  Ir  Ir1  1  0.51178936  0.25615209  0.74436273  1
  Ir  Ir2  1  0.23257437  0.48821064  0.74436273  1
  Ir  Ir3  1  0.25000000  0.75000000  0.50000000  1
  Ir  Ir4  1  0.51178936  0.76742563  0.25563727  1
  Ir  Ir5  1  0.00000000  0.00000000  0.00000000  1
loop_
_geom_bond_atom_site_label_1
_geom_bond_atom_site_label_2
_geom_bond_distance
_geom_bond_site_symmetry_2
Mg0 Zn0 2.883436 1_465
Mg1 Zn0 2.883436 1_454
Mg2 Zn0 2.883436 1_566
Mg3 Zn0 2.883436 1_555
Ge0 Ir4 2.515659 1_556
Ge0 Ir1 2.515659 1_555
Ge0 Ir5 2.543003 1_666
Ge0 Ir2 2.629803 1_555
Ge0 Ir0 2.629808 1_556
Ge0 Mg2 2.904028 1_555
Ge0 Mg1 2.904028 1_656
Ge0 Mg0 2.904028 1_656
Ge0 Mg3 2.904028 1_555
Ge1 Ir5 2.486914 1_565
Ge1 Ir3 2.493271 1_555
Ge1 Ir1 2.523681 1_565
Ge1 Ir4 2.523693 1_555
Ge1 Zn0 2.636079 1_565
Ge1 Mg0 2.829533 1_555
Ge1 Mg1 2.829539 1_555
Ge1 Mg3 2.984642 1_565
Ge1 Mg2 2.984648 1_554
Ge2 Ir5 2.486922 1_555
Ge2 Ir3 2.493265 1_555
Ge2 Ir0 2.523676 1_455
Ge2 Ir2 2.523683 1_555
Ge2 Zn0 2.636074 1_455
Ge2 Mg1 2.829535 1_555
Ge2 Mg3 2.829540 1_555
Ge2 Mg2 2.984644 1_444
Ge2 Mg0 2.984649 1_545
Ge3 Ir2 2.515659 1_554
Ge3 Ir0 2.515660 1_555
Ge3 Ir5 2.543003 1_555
Ge3 Ir4 2.629802 1_555
Ge3 Ir1 2.629808 1_554
Ge3 Mg2 2.904028 1_544
Ge3 Mg1 2.904028 1_555
Ge3 Mg0 2.904028 1_544
Ge3 Mg3 2.904028 1_555
Ge4 Ir5 2.486922 1_666
Ge4 Ir3 2.493266 1_555
Ge4 Ir1 2.523676 1_565
Ge4 Ir4 2.523683 1_555
Ge4 Zn0 2.636074 1_565
Ge4 Mg2 2.829534 1_555
Ge4 Mg3 2.829540 1_555
Ge4 Mg1 2.984643 1_666
Ge4 Mg0 2.984649 1_655
Ge5 Ir5 2.486914 1_566
Ge5 Ir3 2.493271 1_555
Ge5 Ir0 2.523681 1_455
Ge5 Ir2 2.523693 1_555
Ge5 Zn0 2.636079 1_455
Ge5 Mg0 2.829533 1_555
Ge5 Mg2 2.829539 1_555
Ge5 Mg3 2.984642 1_455
Ge5 Mg1 2.984648 1_556
Ir0 Zn0 2.769420 1_555
Ir0 Mg2 2.815147 1_544
Ir0 Mg3 2.815147 1_555
Ir0 Mg0 2.926811 1_655
Ir0 Mg1 2.926811 1_655
Ir1 Zn0 2.769420 1_555
Ir1 Mg3 2.815147 1_555
Ir1 Mg1 2.815147 1_656
Ir1 Mg2 2.926811 1_545
Ir1 Mg0 2.926812 1_545
Ir2 Zn0 2.769426 1_455
Ir2 Mg0 2.815147 1_545
Ir2 Mg1 2.815153 1_556
Ir2 Mg3 2.926806 1_555
Ir2 Mg2 2.926811 1_555
Ir3 Mg3 2.835262 1_555
Ir3 Mg0 2.835262 1_555
Ir3 Mg2 2.835262 1_555
Ir3 Mg1 2.835262 1_555
Ir4 Zn0 2.769426 1_565
Ir4 Mg0 2.815147 1_655
Ir4 Mg2 2.815153 1_554
Ir4 Mg3 2.926806 1_555
Ir4 Mg1 2.926811 1_555
