# generated using pymatgen
data_KBa2B2Pt7
_symmetry_space_group_name_H-M   'P 1'
_cell_length_a   8.50472079
_cell_length_b   8.50471987
_cell_length_c   8.50472032
_cell_angle_alpha   39.15829226
_cell_angle_beta   39.15830177
_cell_angle_gamma   39.15828863
_symmetry_Int_Tables_number   1
_chemical_formula_structural   KBa2B2Pt7
_chemical_formula_sum   'K1 Ba2 B2 Pt7'
_cell_volume   220.65837399
_cell_formula_units_Z   1
loop_
 _symmetry_equiv_pos_site_id
 _symmetry_equiv_pos_as_xyz
  1  'x, y, z'
loop_
 _atom_site_type_symbol
 _atom_site_label
 _atom_site_symmetry_multiplicity
 _atom_site_fract_x
 _atom_site_fract_y
 _atom_site_fract_z
 _atom_site_occupancy
  K  K0  1  0.85541664  0.85541664  0.85541664  1
  Ba  Ba0  1  0.14645579  0.14645579  0.14645579  1
  Ba  Ba1  1  0.99674981  0.99674981  0.99674981  1
  B  B0  1  0.67057186  0.67057186  0.67057186  1
  B  B1  1  0.33015503  0.33015503  0.33015503  1
  Pt  Pt0  1  0.44029098  0.93022901  0.44029098  1
  Pt  Pt1  1  0.44029098  0.44029098  0.93022901  1
  Pt  Pt2  1  0.93022901  0.44029098  0.44029098  1
  Pt  Pt3  1  0.56010001  0.06939392  0.56010001  1
  Pt  Pt4  1  0.56010001  0.56010001  0.06939392  1
  Pt  Pt5  1  0.06939392  0.56010001  0.56010001  1
  Pt  Pt6  1  0.50024296  0.50024296  0.50024296  1
loop_
_geom_bond_atom_site_label_1
_geom_bond_atom_site_label_2
_geom_bond_distance
_geom_bond_site_symmetry_2
K0 Pt6 3.330775 1_565
K0 Pt6 3.330775 1_655
K0 Pt6 3.330776 1_556
K0 Pt5 3.396192 1_655
K0 Pt3 3.396192 1_565
K0 Pt4 3.396192 1_556
K0 Pt1 3.435398 1_565
K0 Pt2 3.435398 1_565
K0 Pt2 3.435398 1_556
K0 Pt1 3.435398 1_655
K0 Pt0 3.435399 1_556
K0 Pt0 3.435399 1_655
Ba0 Pt6 3.325899 1_545
Ba0 Pt6 3.325899 1_455
Ba0 Pt6 3.325900 1_554
Ba0 Pt2 3.361962 1_455
Ba0 Pt0 3.361962 1_545
Ba0 Pt1 3.361962 1_554
Ba0 K0 3.438043 1_454
Ba0 K0 3.438044 1_544
Ba0 K0 3.438044 1_445
Ba0 Pt4 3.458361 1_545
Ba0 Pt5 3.458362 1_545
Ba0 Pt5 3.458362 1_554
Ba0 Pt4 3.458362 1_455
Ba0 Pt3 3.458362 1_554
Ba0 Pt3 3.458363 1_455
Ba0 Ba1 3.522076 1_444
Ba1 Pt1 3.178651 1_655
Ba1 Pt1 3.178651 1_565
Ba1 Pt2 3.178651 1_565
Ba1 Pt2 3.178651 1_556
Ba1 Pt0 3.178652 1_655
Ba1 Pt0 3.178652 1_556
Ba1 Pt4 3.250750 1_566
Ba1 Pt4 3.250750 1_656
Ba1 Pt5 3.250750 1_656
Ba1 Pt5 3.250750 1_665
Ba1 Pt3 3.250751 1_566
Ba1 Pt3 3.250751 1_665
Ba1 K0 3.325092 1_555
B0 Pt3 2.180598 1_565
B0 Pt4 2.180599 1_556
B0 Pt5 2.180599 1_655
B0 Pt0 2.254318 1_555
B0 Pt2 2.254318 1_555
B0 Pt1 2.254318 1_555
B0 Ba1 3.295205 1_545
B0 Ba1 3.295206 1_455
B0 Ba1 3.295206 1_554
B1 Pt0 2.191468 1_545
B1 Pt1 2.191469 1_554
B1 Pt2 2.191469 1_455
B1 Pt3 2.246423 1_555
B1 Pt5 2.246423 1_555
B1 Pt4 2.246424 1_555
B1 Ba1 3.290903 1_454
B1 Ba1 3.290904 1_544
B1 Ba1 3.290904 1_445
Pt0 Pt6 2.917694 1_555
Pt1 Pt6 2.917694 1_555
Pt2 Pt6 2.917694 1_555
Pt3 Pt6 2.925973 1_555
Pt4 Pt6 2.925973 1_555
Pt5 Pt6 2.925973 1_555
