# generated using pymatgen
data_Ta2Be9Nb
_symmetry_space_group_name_H-M   'P 1'
_cell_length_a   7.46041020
_cell_length_b   7.46041039
_cell_length_c   7.46041039
_cell_angle_alpha   35.57891772
_cell_angle_beta   35.57891184
_cell_angle_gamma   35.57891515
_symmetry_Int_Tables_number   1
_chemical_formula_structural   Ta2Be9Nb
_chemical_formula_sum   'Ta2 Be9 Nb1'
_cell_volume   125.63110206
_cell_formula_units_Z   1
loop_
 _symmetry_equiv_pos_site_id
 _symmetry_equiv_pos_as_xyz
  1  'x, y, z'
loop_
 _atom_site_type_symbol
 _atom_site_label
 _atom_site_symmetry_multiplicity
 _atom_site_fract_x
 _atom_site_fract_y
 _atom_site_fract_z
 _atom_site_occupancy
  Ta  Ta0  1  0.14002657  0.14002657  0.14002657  1
  Ta  Ta1  1  0.85997343  0.85997343  0.85997343  1
  Be  Be0  1  0.50000000  0.50000000  0.50000000  1
  Be  Be1  1  0.33439881  0.33439881  0.33439981  1
  Be  Be2  1  0.66560119  0.66560119  0.66560019  1
  Be  Be3  1  0.07551128  0.58442612  0.58442612  1
  Be  Be4  1  0.58442612  0.58442612  0.07551128  1
  Be  Be5  1  0.58442612  0.07551128  0.58442612  1
  Be  Be6  1  0.41557388  0.92448872  0.41557388  1
  Be  Be7  1  0.92448872  0.41557388  0.41557388  1
  Be  Be8  1  0.41557388  0.41557388  0.92448872  1
  Nb  Nb0  1  0.00000000  0.00000000  0.00000000  1
loop_
_geom_bond_atom_site_label_1
_geom_bond_atom_site_label_2
_geom_bond_distance
_geom_bond_site_symmetry_2
Ta0 Ta1 2.858671 1_544
Ta0 Ta1 2.858671 1_445
Ta0 Ta1 2.858671 1_454
Be0 Be7 2.231278 1_555
Be0 Be3 2.231278 1_555
Be0 Be8 2.231278 1_555
Be0 Be4 2.231278 1_555
Be0 Be6 2.231278 1_555
Be0 Be5 2.231278 1_555
Be0 Ta1 2.690396 1_455
Be0 Ta0 2.690396 1_655
Be0 Ta1 2.690396 1_554
Be0 Ta0 2.690396 1_556
Be0 Ta1 2.690397 1_545
Be0 Ta0 2.690397 1_565
Be1 Be3 2.151343 1_555
Be1 Be5 2.151343 1_555
Be1 Be4 2.151346 1_555
Be1 Be7 2.158025 1_455
Be1 Be6 2.158025 1_545
Be1 Be8 2.158027 1_554
Be1 Nb0 2.632007 1_556
Be1 Nb0 2.632011 1_655
Be1 Nb0 2.632011 1_565
Be2 Be7 2.151343 1_555
Be2 Be6 2.151343 1_555
Be2 Be8 2.151346 1_555
Be2 Be3 2.158025 1_655
Be2 Be5 2.158025 1_565
Be2 Be4 2.158027 1_556
Be2 Nb0 2.632007 1_665
Be2 Nb0 2.632011 1_566
Be2 Nb0 2.632011 1_656
Be3 Be4 2.238666 1_456
Be3 Be5 2.238666 1_465
Be3 Be4 2.319944 1_555
Be3 Be5 2.319945 1_555
Be3 Ta0 2.588514 1_565
Be3 Ta0 2.588514 1_556
Be3 Ta1 2.675359 1_455
Be3 Nb0 2.847046 1_556
Be3 Nb0 2.847046 1_565
Be4 Be5 2.238666 1_564
Be4 Be5 2.319945 1_555
Be4 Ta0 2.588514 1_655
Be4 Ta0 2.588514 1_565
Be4 Ta1 2.675359 1_554
Be4 Nb0 2.847046 1_565
Be4 Nb0 2.847046 1_655
Be5 Ta0 2.588513 1_655
Be5 Ta0 2.588513 1_556
Be5 Ta1 2.675359 1_545
Be5 Nb0 2.847045 1_556
Be5 Nb0 2.847045 1_655
Be6 Be7 2.238666 1_465
Be6 Be8 2.238666 1_564
Be6 Be7 2.319945 1_555
Be6 Be8 2.319945 1_555
Be6 Ta1 2.588513 1_455
Be6 Ta1 2.588513 1_554
Be6 Ta0 2.675359 1_565
Be6 Nb0 2.847045 1_665
Be6 Nb0 2.847045 1_566
Be7 Be8 2.238666 1_654
Be7 Be8 2.319944 1_555
Be7 Ta1 2.588514 1_545
Be7 Ta1 2.588514 1_554
Be7 Ta0 2.675359 1_655
Be7 Nb0 2.847046 1_665
Be7 Nb0 2.847046 1_656
Be8 Ta1 2.588514 1_455
Be8 Ta1 2.588514 1_545
Be8 Ta0 2.675359 1_556
Be8 Nb0 2.847046 1_656
Be8 Nb0 2.847046 1_566
Nb0 Ta0 2.932468 1_555
Nb0 Ta1 2.932468 1_444
