# generated using pymatgen
data_Rb2BeF4
_symmetry_space_group_name_H-M   'P 1'
_cell_length_a   5.83217377
_cell_length_b   7.65505271
_cell_length_c   10.15966698
_cell_angle_alpha   90.00000000
_cell_angle_beta   90.00000000
_cell_angle_gamma   90.00000000
_symmetry_Int_Tables_number   1
_chemical_formula_structural   Rb2BeF4
_chemical_formula_sum   'Rb8 Be4 F16'
_cell_volume   453.58440398
_cell_formula_units_Z   4
loop_
 _symmetry_equiv_pos_site_id
 _symmetry_equiv_pos_as_xyz
  1  'x, y, z'
loop_
 _atom_site_type_symbol
 _atom_site_label
 _atom_site_symmetry_multiplicity
 _atom_site_fract_x
 _atom_site_fract_y
 _atom_site_fract_z
 _atom_site_occupancy
  Rb  Rb0  1  0.75000000  0.98517856  0.31064358  1
  Rb  Rb1  1  0.25000000  0.01482144  0.68935642  1
  Rb  Rb2  1  0.25000000  0.51482144  0.81064358  1
  Rb  Rb3  1  0.75000000  0.48517856  0.18935642  1
  Rb  Rb4  1  0.75000000  0.65965514  0.59493800  1
  Rb  Rb5  1  0.25000000  0.34034486  0.40506200  1
  Rb  Rb6  1  0.25000000  0.84034486  0.09493800  1
  Rb  Rb7  1  0.75000000  0.15965514  0.90506200  1
  Be  Be0  1  0.25000000  0.26193855  0.08208014  1
  Be  Be1  1  0.75000000  0.23806145  0.58208014  1
  Be  Be2  1  0.25000000  0.76193855  0.41791986  1
  Be  Be3  1  0.75000000  0.73806145  0.91791986  1
  F  F0  1  0.96776478  0.31087125  0.65151801  1
  F  F1  1  0.46776478  0.68912875  0.34848199  1
  F  F2  1  0.46776478  0.18912875  0.15151801  1
  F  F3  1  0.96776478  0.81087125  0.84848199  1
  F  F4  1  0.53223522  0.81087125  0.84848199  1
  F  F5  1  0.53223522  0.31087125  0.65151801  1
  F  F6  1  0.03223522  0.18912875  0.15151801  1
  F  F7  1  0.03223522  0.68912875  0.34848199  1
  F  F8  1  0.75000000  0.53568650  0.91069756  1
  F  F9  1  0.25000000  0.46431350  0.08930244  1
  F  F10  1  0.25000000  0.96431350  0.41069756  1
  F  F11  1  0.75000000  0.03568650  0.58930244  1
  F  F12  1  0.75000000  0.80663578  0.06294411  1
  F  F13  1  0.25000000  0.19336422  0.93705589  1
  F  F14  1  0.25000000  0.69336422  0.56294411  1
  F  F15  1  0.75000000  0.30663578  0.43705589  1
loop_
_geom_bond_atom_site_label_1
_geom_bond_atom_site_label_2
_geom_bond_distance
_geom_bond_site_symmetry_2
Be0 F9 1.550928 1_555
Be0 F6 1.556066 1_555
Be0 F2 1.556066 1_555
Be0 F13 1.564118 1_554
Be1 F11 1.550928 1_555
Be1 F5 1.556066 1_555
Be1 F0 1.556066 1_555
Be1 F15 1.564118 1_555
Be2 F10 1.550928 1_555
Be2 F1 1.556066 1_555
Be2 F7 1.556066 1_555
Be2 F14 1.564118 1_555
Be3 F8 1.550928 1_555
Be3 F3 1.556066 1_555
Be3 F4 1.556066 1_555
Be3 F12 1.564118 1_556
F0 Rb2 2.785779 1_655
F0 Rb1 2.827235 1_655
F0 Rb5 3.004986 1_655
F0 Rb4 3.011996 1_555
F0 Rb7 3.096505 1_555
F1 Rb3 2.785779 1_555
F1 Rb0 2.827235 1_555
F1 Rb4 3.004986 1_555
F1 Rb5 3.011996 1_555
F1 Rb6 3.096505 1_555
F2 Rb0 2.785779 1_545
F2 Rb3 2.827235 1_555
F2 Rb7 3.004986 1_554
F2 Rb6 3.011996 1_545
F2 Rb5 3.096505 1_555
F3 Rb1 2.785779 1_665
F3 Rb2 2.827235 1_655
F3 Rb6 3.004986 1_656
F3 Rb7 3.011996 1_565
F3 Rb4 3.096505 1_555
F4 Rb1 2.785779 1_565
F4 Rb2 2.827235 1_555
F4 Rb6 3.004986 1_556
F4 Rb7 3.011996 1_565
F4 Rb4 3.096505 1_555
F5 Rb2 2.785779 1_555
F5 Rb1 2.827235 1_555
F5 Rb5 3.004986 1_555
F5 Rb4 3.011996 1_555
F5 Rb7 3.096505 1_555
F6 Rb0 2.785779 1_445
F6 Rb3 2.827235 1_455
F6 Rb7 3.004986 1_454
F6 Rb6 3.011996 1_545
F6 Rb5 3.096505 1_555
F7 Rb3 2.785779 1_455
F7 Rb0 2.827235 1_455
F7 Rb4 3.004986 1_455
F7 Rb5 3.011996 1_555
F7 Rb6 3.096505 1_555
F8 Rb3 2.857361 1_556
F8 Rb7 2.879109 1_555
F8 Rb2 3.092309 1_655
F8 Rb2 3.092309 1_555
F8 Rb4 3.345432 1_555
F9 Rb2 2.857361 1_554
F9 Rb6 2.879109 1_555
F9 Rb3 3.092309 1_555
F9 Rb3 3.092309 1_455
F9 Rb5 3.345432 1_555
F10 Rb1 2.857361 1_565
F10 Rb5 2.879109 1_565
F10 Rb0 3.092309 1_455
F10 Rb0 3.092309 1_555
F10 Rb6 3.345432 1_555
F11 Rb0 2.857361 1_545
F11 Rb4 2.879109 1_545
F11 Rb1 3.092309 1_555
F11 Rb1 3.092309 1_655
F11 Rb7 3.345432 1_555
F12 Rb3 2.775760 1_555
F12 Rb0 2.863741 1_555
F12 Rb6 2.945472 1_555
F12 Rb6 2.945472 1_655
F12 Rb7 3.142575 1_564
F13 Rb2 2.775760 1_555
F13 Rb1 2.863741 1_555
F13 Rb7 2.945472 1_555
F13 Rb7 2.945472 1_455
F13 Rb6 3.142575 1_546
F14 Rb1 2.775760 1_565
F14 Rb2 2.863741 1_555
F14 Rb4 2.945472 1_455
F14 Rb4 2.945472 1_555
F14 Rb5 3.142575 1_555
F15 Rb0 2.775760 1_545
F15 Rb3 2.863741 1_555
F15 Rb5 2.945472 1_555
F15 Rb5 2.945472 1_655
F15 Rb4 3.142575 1_555
