# generated using pymatgen
data_Y3Ag(Pt2O7)2
_symmetry_space_group_name_H-M   'P 1'
_cell_length_a   7.12738850
_cell_length_b   7.25140036
_cell_length_c   7.25139964
_cell_angle_alpha   59.99999891
_cell_angle_beta   59.42274469
_cell_angle_gamma   59.42274328
_symmetry_Int_Tables_number   1
_chemical_formula_structural   Y3Ag(Pt2O7)2
_chemical_formula_sum   'Y3 Ag1 Pt4 O14'
_cell_volume   262.67226260
_cell_formula_units_Z   1
loop_
 _symmetry_equiv_pos_site_id
 _symmetry_equiv_pos_as_xyz
  1  'x, y, z'
loop_
 _atom_site_type_symbol
 _atom_site_label
 _atom_site_symmetry_multiplicity
 _atom_site_fract_x
 _atom_site_fract_y
 _atom_site_fract_z
 _atom_site_occupancy
  Y  Y0  1  0.12500000  0.62500000  0.12500000  1
  Y  Y1  1  0.12500000  0.12500000  0.62500000  1
  Y  Y2  1  0.12500000  0.12500000  0.12500000  1
  Ag  Ag0  1  0.62500000  0.12500000  0.12500000  1
  Pt  Pt0  1  0.62500000  0.62500000  0.62500000  1
  Pt  Pt1  1  0.12500000  0.62500000  0.62500000  1
  Pt  Pt2  1  0.62500000  0.62500000  0.12500000  1
  Pt  Pt3  1  0.62500000  0.12500000  0.62500000  1
  O  O0  1  0.28016412  0.71735778  0.71735778  1
  O  O1  1  0.53227719  0.95697880  0.95697880  1
  O  O2  1  0.71772281  0.69623480  0.29302120  1
  O  O3  1  0.28016412  0.28512032  0.71735778  1
  O  O4  1  0.98177992  0.00607369  0.00607369  1
  O  O5  1  0.28016412  0.71735778  0.28512032  1
  O  O6  1  0.71772281  0.29302120  0.69623480  1
  O  O7  1  0.96983588  0.53264222  0.96487968  1
  O  O8  1  0.53227719  0.55376520  0.95697880  1
  O  O9  1  0.96983588  0.96487968  0.53264222  1
  O  O10  1  0.26822008  0.24392631  0.24392631  1
  O  O11  1  0.53227719  0.95697880  0.55376520  1
  O  O12  1  0.71772281  0.29302120  0.29302120  1
  O  O13  1  0.96983588  0.53264222  0.53264222  1
loop_
_geom_bond_atom_site_label_1
_geom_bond_atom_site_label_2
_geom_bond_distance
_geom_bond_site_symmetry_2
Ag0 O4 2.057976 1_555
Ag0 O10 2.057976 1_555
Ag0 O11 2.555109 1_545
Ag0 O6 2.555109 1_554
Ag0 O12 2.555109 1_555
Ag0 O1 2.555109 1_544
Ag0 O8 2.555109 1_554
Ag0 O2 2.555109 1_545
O0 Pt0 2.009210 1_555
O0 Pt1 2.018842 1_555
O0 Y0 2.420185 1_556
O0 Y1 2.420185 1_565
O1 Pt3 1.995979 1_565
O1 Pt2 1.995979 1_556
O1 Y2 2.383943 1_566
O2 Pt0 1.995979 1_555
O2 Pt2 1.995979 1_555
O2 Y0 2.383943 1_655
O3 Pt3 2.009210 1_555
O3 Pt1 2.018842 1_555
O3 Y2 2.420185 1_556
O3 Y1 2.420185 1_555
O4 Y2 2.250413 1_655
O4 Y1 2.250419 1_654
O4 Y0 2.250419 1_645
O5 Pt2 2.009210 1_555
O5 Pt1 2.018842 1_555
O5 Y2 2.420185 1_565
O5 Y0 2.420185 1_555
O6 Pt0 1.995979 1_555
O6 Pt3 1.995979 1_555
O6 Y1 2.383943 1_655
O7 Pt2 2.009210 1_556
O7 Pt1 2.018842 1_655
O7 Y2 2.420185 1_656
O7 Y0 2.420185 1_656
O8 Pt0 1.995979 1_555
O8 Pt2 1.995979 1_556
O8 Y0 2.383943 1_556
O9 Pt3 2.009210 1_565
O9 Pt1 2.018842 1_655
O9 Y2 2.420185 1_665
O9 Y1 2.420185 1_665
O10 Y2 2.250413 1_555
O10 Y1 2.250419 1_555
O10 Y0 2.250419 1_555
O11 Pt0 1.995979 1_555
O11 Pt3 1.995979 1_565
O11 Y1 2.383943 1_565
O12 Pt3 1.995979 1_555
O12 Pt2 1.995979 1_555
O12 Y2 2.383943 1_655
O13 Pt0 2.009210 1_555
O13 Pt1 2.018842 1_655
O13 Y0 2.420185 1_655
O13 Y1 2.420185 1_655
