# generated using pymatgen
data_Ca10Si5SbF
_symmetry_space_group_name_H-M   'P 1'
_cell_length_a   9.13749237
_cell_length_b   9.13749180
_cell_length_c   9.13749231
_cell_angle_alpha   129.91396637
_cell_angle_beta   129.95351668
_cell_angle_gamma   73.51271766
_symmetry_Int_Tables_number   1
_chemical_formula_structural   Ca10Si5SbF
_chemical_formula_sum   'Ca10 Si5 Sb1 F1'
_cell_volume   437.77184567
_cell_formula_units_Z   1
loop_
 _symmetry_equiv_pos_site_id
 _symmetry_equiv_pos_as_xyz
  1  'x, y, z'
loop_
 _atom_site_type_symbol
 _atom_site_label
 _atom_site_symmetry_multiplicity
 _atom_site_fract_x
 _atom_site_fract_y
 _atom_site_fract_z
 _atom_site_occupancy
  Ca  Ca0  1  0.76117773  0.43141037  0.98284590  1
  Ca  Ca1  1  0.44856447  0.77833282  0.01715410  1
  Ca  Ca2  1  0.92640991  0.94439654  0.64262668  1
  Ca  Ca3  1  0.30176986  0.28378322  0.35737332  1
  Ca  Ca4  1  0.69823014  0.05560346  0.98201336  1
  Ca  Ca5  1  0.07359009  0.71621678  0.01798664  1
  Ca  Ca6  1  0.55143553  0.56858963  0.32976735  1
  Ca  Ca7  1  0.23882127  0.22166718  0.67023265  1
  Ca  Ca8  1  0.24403889  0.74403889  0.50000000  1
  Ca  Ca9  1  0.75596111  0.25596111  0.50000000  1
  Si  Si0  1  0.50000000  0.00000000  0.50000000  1
  Si  Si1  1  0.13345406  0.36060669  0.00030421  1
  Si  Si2  1  0.36030248  0.13314985  0.99969579  1
  Si  Si3  1  0.86654594  0.86685015  0.22715263  1
  Si  Si4  1  0.63969752  0.63939331  0.77284737  1
  Sb  Sb0  1  0.00000000  0.50000000  0.50000000  1
  F  F0  1  0.50000000  0.50000000  0.00000000  1
loop_
_geom_bond_atom_site_label_1
_geom_bond_atom_site_label_2
_geom_bond_distance
_geom_bond_site_symmetry_2
Ca0 F0 2.370272 1_556
Ca0 Si4 3.045088 1_555
Ca0 Si3 3.123651 1_556
Ca0 Si0 3.193504 1_555
Ca0 Si1 3.194013 1_656
Ca0 Sb0 3.349138 1_656
Ca1 F0 2.370281 1_555
Ca1 Si3 3.045086 1_555
Ca1 Si4 3.123650 1_554
Ca1 Si0 3.193506 1_565
Ca1 Si2 3.194004 1_564
Ca1 Sb0 3.349140 1_554
Ca2 Si1 2.986062 1_666
Ca2 Si3 3.052002 1_555
Ca2 Si2 3.063499 1_665
Ca2 Si0 3.215943 1_565
Ca2 Sb0 3.379964 1_655
Ca3 Si2 2.986063 1_554
Ca3 Si4 3.052002 1_555
Ca3 Si1 3.063499 1_555
Ca3 Si0 3.215942 1_555
Ca3 Sb0 3.379964 1_555
Ca4 Si4 2.986062 1_545
Ca4 Si2 3.052002 1_555
Ca4 Si3 3.063499 1_546
Ca4 Si0 3.215943 1_555
Ca4 Sb0 3.379964 1_656
Ca5 Si3 2.986063 1_455
Ca5 Si1 3.052002 1_555
Ca5 Si4 3.063499 1_454
Ca5 Si0 3.215942 1_565
Ca5 Sb0 3.379964 1_554
Ca6 F0 2.370272 1_555
Ca6 Si1 3.045088 1_555
Ca6 Si2 3.123651 1_554
Ca6 Si0 3.193504 1_565
Ca6 Si4 3.194013 1_555
Ca6 Sb0 3.349138 1_655
Ca7 F0 2.370282 1_556
Ca7 Si2 3.045078 1_555
Ca7 Si1 3.123641 1_556
Ca7 Si0 3.193511 1_555
Ca7 Si3 3.194003 1_445
Ca7 Sb0 3.349145 1_555
Ca8 Si2 3.114364 1_565
Ca8 Si1 3.114364 1_555
Ca8 Si3 3.117909 1_455
Ca8 Si4 3.117909 1_555
Ca8 Sb0 3.573141 1_555
Ca9 Si3 3.114364 1_545
Ca9 Si4 3.114364 1_555
Ca9 Si2 3.117909 1_554
Ca9 Si1 3.117909 1_656
Ca9 Sb0 3.573141 1_655
Si1 Si2 2.484145 1_554
Si3 Si4 2.484145 1_554
