# generated using pymatgen
data_Ca3LuBi3
_symmetry_space_group_name_H-M   'P 1'
_cell_length_a   8.10616848
_cell_length_b   8.32686353
_cell_length_c   8.32686381
_cell_angle_alpha   110.00188507
_cell_angle_beta   108.93519677
_cell_angle_gamma   108.93520418
_symmetry_Int_Tables_number   1
_chemical_formula_structural   Ca3LuBi3
_chemical_formula_sum   'Ca6 Lu2 Bi6'
_cell_volume   435.49873817
_cell_formula_units_Z   2
loop_
 _symmetry_equiv_pos_site_id
 _symmetry_equiv_pos_as_xyz
  1  'x, y, z'
loop_
 _atom_site_type_symbol
 _atom_site_label
 _atom_site_symmetry_multiplicity
 _atom_site_fract_x
 _atom_site_fract_y
 _atom_site_fract_z
 _atom_site_occupancy
  Ca  Ca0  1  0.50075248  0.00004093  0.64465984  1
  Ca  Ca1  1  0.35609264  0.35538109  0.35534016  1
  Ca  Ca2  1  0.50071155  0.99995907  0.14461891  1
  Ca  Ca3  1  0.00071155  0.64461891  0.49995907  1
  Ca  Ca4  1  0.85609264  0.85534016  0.85538109  1
  Ca  Ca5  1  0.00075248  0.14465984  0.50004093  1
  Lu  Lu0  1  0.14146823  0.50000000  0.00000000  1
  Lu  Lu1  1  0.64146823  0.50000000  0.00000000  1
  Bi  Bi0  1  0.37712354  0.62041468  0.75998084  1
  Bi  Bi1  1  0.87712354  0.25998084  0.12041468  1
  Bi  Bi2  1  0.61714170  0.74001916  0.36043385  1
  Bi  Bi3  1  0.11714170  0.86043385  0.24001916  1
  Bi  Bi4  1  0.25670885  0.13956615  0.87958532  1
  Bi  Bi5  1  0.75670885  0.37958532  0.63956615  1
loop_
_geom_bond_atom_site_label_1
_geom_bond_atom_site_label_2
_geom_bond_distance
_geom_bond_site_symmetry_2
Ca0 Ca3 3.639530 1_545
Ca0 Ca4 3.639530 1_545
Ca0 Lu1 3.699763 1_556
Ca1 Ca2 3.639530 1_545
Ca1 Ca5 3.639530 1_555
Ca1 Lu0 3.699764 1_555
Ca2 Ca5 3.639530 1_665
Ca2 Lu0 3.699763 1_555
Ca3 Ca4 3.639530 1_455
Ca3 Lu1 3.699764 1_455
Ca4 Lu1 3.699763 1_556
Ca5 Lu0 3.699763 1_556
Bi0 Lu1 3.094732 1_556
Bi0 Ca2 3.191874 1_556
Bi0 Ca3 3.232460 1_555
Bi0 Ca1 3.247824 1_555
Bi0 Lu0 3.354774 1_556
Bi0 Ca4 3.396818 1_555
Bi0 Ca5 3.419242 1_555
Bi0 Ca0 3.544589 1_565
Bi1 Lu0 3.094731 1_655
Bi1 Ca3 3.191874 1_655
Bi1 Ca2 3.232460 1_545
Bi1 Ca4 3.247824 1_544
Bi1 Lu1 3.354774 1_555
Bi1 Ca1 3.396818 1_655
Bi1 Ca0 3.419242 1_554
Bi1 Ca5 3.544589 1_655
Bi2 Lu1 3.094736 1_555
Bi2 Ca1 3.191871 1_555
Bi2 Ca0 3.232453 1_565
Bi2 Ca5 3.247828 1_665
Bi2 Lu0 3.354769 1_555
Bi2 Ca3 3.396826 1_655
Bi2 Ca2 3.419240 1_555
Bi2 Ca4 3.544590 1_555
Bi3 Lu0 3.094736 1_555
Bi3 Ca4 3.191871 1_454
Bi3 Ca5 3.232453 1_565
Bi3 Ca0 3.247829 1_565
Bi3 Lu1 3.354769 1_455
Bi3 Ca2 3.396825 1_555
Bi3 Ca3 3.419240 1_555
Bi3 Ca1 3.544590 1_565
Bi4 Lu1 3.094731 1_556
Bi4 Ca5 3.191874 1_555
Bi4 Ca4 3.232460 1_445
Bi4 Ca2 3.247824 1_546
Bi4 Lu0 3.354774 1_556
Bi4 Ca0 3.396818 1_555
Bi4 Ca1 3.419242 1_556
Bi4 Ca3 3.544589 1_545
Bi5 Lu0 3.094732 1_656
Bi5 Ca0 3.191874 1_555
Bi5 Ca1 3.232460 1_555
Bi5 Ca3 3.247824 1_655
Bi5 Lu1 3.354774 1_556
Bi5 Ca5 3.396818 1_655
Bi5 Ca4 3.419242 1_555
Bi5 Ca2 3.544589 1_545
