# generated using pymatgen
data_HfSc7Se12
_symmetry_space_group_name_H-M   'P 1'
_cell_length_a   12.70331656
_cell_length_b   12.11240557
_cell_length_c   6.67365277
_cell_angle_alpha   79.35141941
_cell_angle_beta   69.56416954
_cell_angle_gamma   30.96709109
_symmetry_Int_Tables_number   1
_chemical_formula_structural   HfSc7Se12
_chemical_formula_sum   'Hf1 Sc7 Se12'
_cell_volume   480.92338485
_cell_formula_units_Z   1
loop_
 _symmetry_equiv_pos_site_id
 _symmetry_equiv_pos_as_xyz
  1  'x, y, z'
loop_
 _atom_site_type_symbol
 _atom_site_label
 _atom_site_symmetry_multiplicity
 _atom_site_fract_x
 _atom_site_fract_y
 _atom_site_fract_z
 _atom_site_occupancy
  Hf  Hf0  1  0.33391331  0.33391331  0.16608669  1
  Sc  Sc0  1  0.16575504  0.16575504  0.33424496  1
  Sc  Sc1  1  0.91758868  0.91758868  0.08241132  1
  Sc  Sc2  1  0.08305556  0.08305556  0.91694444  1
  Sc  Sc3  1  0.99961040  0.99961040  0.50038960  1
  Sc  Sc4  1  0.50111087  0.50111087  0.99888913  1
  Sc  Sc5  1  0.25010934  0.25010934  0.74989066  1
  Sc  Sc6  1  0.74854026  0.74854026  0.25145974  1
  Se  Se0  1  0.00617622  0.49695377  0.49354024  1
  Se  Se1  1  0.49695377  0.00617622  0.00333077  1
  Se  Se2  1  0.24673987  0.75269438  0.75303742  1
  Se  Se3  1  0.75269438  0.24673987  0.24752833  1
  Se  Se4  1  0.66266887  0.16976732  0.83842816  1
  Se  Se5  1  0.83628023  0.32762200  0.66617060  1
  Se  Se6  1  0.32762200  0.83628023  0.16992717  1
  Se  Se7  1  0.16976732  0.66266887  0.32913565  1
  Se  Se8  1  0.58070376  0.08436184  0.41139033  1
  Se  Se9  1  0.41386659  0.92248167  0.58362564  1
  Se  Se10  1  0.92248167  0.41386659  0.08002710  1
  Se  Se11  1  0.08436184  0.58070376  0.92354407  1
loop_
_geom_bond_atom_site_label_1
_geom_bond_atom_site_label_2
_geom_bond_distance
_geom_bond_site_symmetry_2
Hf0 Se8 2.673816 1_555
Hf0 Se11 2.673816 1_554
Hf0 Se1 2.674054 1_555
Hf0 Se0 2.674057 1_555
Hf0 Se7 2.676919 1_555
Hf0 Se4 2.676919 1_554
Sc0 Se10 2.703729 1_455
Sc0 Se9 2.703735 1_545
Sc0 Se6 2.706800 1_545
Sc0 Se5 2.706800 1_455
Sc0 Se1 2.730857 1_555
Sc0 Se0 2.730860 1_555
Sc1 Se3 2.680814 1_565
Sc1 Se2 2.680814 1_654
Sc1 Se7 2.710880 1_655
Sc1 Se4 2.710880 1_564
Sc1 Se11 2.732747 1_654
Sc1 Se8 2.732747 1_565
Sc2 Se2 2.700437 1_545
Sc2 Se3 2.700437 1_456
Sc2 Se6 2.703597 1_546
Sc2 Se5 2.703597 1_455
Sc2 Se9 2.728621 1_545
Sc2 Se10 2.728624 1_456
Sc3 Se5 2.683011 1_565
Sc3 Se6 2.683011 1_655
Sc3 Se3 2.715562 1_565
Sc3 Se2 2.715562 1_655
Sc3 Se7 2.739454 1_655
Sc3 Se4 2.739455 1_565
Sc4 Se6 2.693222 1_556
Sc4 Se5 2.693222 1_555
Sc4 Se3 2.717998 1_556
Sc4 Se2 2.717998 1_555
Sc4 Se4 2.719211 1_555
Sc4 Se7 2.719212 1_556
Sc5 Se9 2.676732 1_545
Sc5 Se10 2.676735 1_456
Sc5 Se11 2.713462 1_555
Sc5 Se8 2.713462 1_555
Sc5 Se0 2.718731 1_555
Sc5 Se1 2.718736 1_556
Sc6 Se10 2.685445 1_555
Sc6 Se9 2.685448 1_555
Sc6 Se8 2.715345 1_565
Sc6 Se11 2.715345 1_654
Sc6 Se1 2.716043 1_565
Sc6 Se0 2.716049 1_655
