# generated using pymatgen
data_CsRb2Cu3P2
_symmetry_space_group_name_H-M   'P 1'
_cell_length_a   7.64766206
_cell_length_b   7.64766282
_cell_length_c   7.64766170
_cell_angle_alpha   46.10881766
_cell_angle_beta   46.10880872
_cell_angle_gamma   46.10881533
_symmetry_Int_Tables_number   1
_chemical_formula_structural   CsRb2Cu3P2
_chemical_formula_sum   'Cs1 Rb2 Cu3 P2'
_cell_volume   211.93408940
_cell_formula_units_Z   1
loop_
 _symmetry_equiv_pos_site_id
 _symmetry_equiv_pos_as_xyz
  1  'x, y, z'
loop_
 _atom_site_type_symbol
 _atom_site_label
 _atom_site_symmetry_multiplicity
 _atom_site_fract_x
 _atom_site_fract_y
 _atom_site_fract_z
 _atom_site_occupancy
  Cs  Cs0  1  0.50000000  0.50000000  0.50000000  1
  Rb  Rb0  1  0.90933832  0.90933832  0.90933832  1
  Rb  Rb1  1  0.09066168  0.09066168  0.09066168  1
  Cu  Cu0  1  0.00000000  0.50000000  0.50000000  1
  Cu  Cu1  1  0.50000000  0.50000000  0.00000000  1
  Cu  Cu2  1  0.50000000  0.00000000  0.50000000  1
  P  P0  1  0.26443553  0.26443553  0.26443553  1
  P  P1  1  0.73556447  0.73556447  0.73556447  1
loop_
_geom_bond_atom_site_label_1
_geom_bond_atom_site_label_2
_geom_bond_distance
_geom_bond_site_symmetry_2
Cs0 Rb0 3.791828 1_455
Cs0 Rb1 3.791828 1_655
Cs0 Rb0 3.791828 1_554
Cs0 Rb1 3.791828 1_556
Cs0 Rb0 3.791828 1_545
Cs0 Rb1 3.791828 1_565
Cs0 Cu1 3.823831 1_556
Cs0 Cu1 3.823831 1_555
Cs0 Cu0 3.823831 1_655
Cs0 Cu0 3.823831 1_555
Cs0 Cu2 3.823831 1_565
Cs0 Cu2 3.823831 1_555
Cs0 P0 3.995205 1_556
Cs0 P1 3.995205 1_554
Cs0 P0 3.995205 1_655
Cs0 P1 3.995205 1_455
Cs0 P0 3.995206 1_565
Cs0 P1 3.995206 1_545
Cu0 P1 2.231032 1_455
Cu0 P0 2.231032 1_555
Cu0 Rb1 3.522945 1_556
Cu0 Rb0 3.522945 1_454
Cu0 Rb1 3.522945 1_565
Cu0 Rb0 3.522945 1_445
Cu1 P1 2.231032 1_554
Cu1 P0 2.231032 1_555
Cu1 Rb1 3.522945 1_655
Cu1 Rb0 3.522945 1_454
Cu1 Rb1 3.522945 1_565
Cu1 Rb0 3.522945 1_544
Cu2 P1 2.231032 1_545
Cu2 P0 2.231032 1_555
Cu2 Rb1 3.522944 1_556
Cu2 Rb0 3.522944 1_544
Cu2 Rb1 3.522944 1_655
Cu2 Rb0 3.522944 1_445
P0 Rb0 3.486730 1_544
P0 Rb0 3.486730 1_445
P0 Rb0 3.486731 1_454
P0 Rb1 3.556001 1_555
P1 Rb1 3.486730 1_566
P1 Rb1 3.486730 1_665
P1 Rb1 3.486731 1_656
P1 Rb0 3.556001 1_555
