# generated using pymatgen
data_Zr6GaGeC2
_symmetry_space_group_name_H-M   'P 1'
_cell_length_a   5.97176518
_cell_length_b   5.97176601
_cell_length_c   8.95180080
_cell_angle_alpha   90.00000000
_cell_angle_beta   90.00000000
_cell_angle_gamma   146.36484682
_symmetry_Int_Tables_number   1
_chemical_formula_structural   Zr6GaGeC2
_chemical_formula_sum   'Zr6 Ga1 Ge1 C2'
_cell_volume   176.82726066
_cell_formula_units_Z   1
loop_
 _symmetry_equiv_pos_site_id
 _symmetry_equiv_pos_as_xyz
  1  'x, y, z'
loop_
 _atom_site_type_symbol
 _atom_site_label
 _atom_site_symmetry_multiplicity
 _atom_site_fract_x
 _atom_site_fract_y
 _atom_site_fract_z
 _atom_site_occupancy
  Zr  Zr0  1  0.12839059  0.87160741  0.04650827  1
  Zr  Zr1  1  0.44901763  0.55098137  0.25000000  1
  Zr  Zr2  1  0.12839059  0.87160741  0.45349173  1
  Zr  Zr3  1  0.87088440  0.12911360  0.55098623  1
  Zr  Zr4  1  0.55503180  0.44496720  0.75000000  1
  Zr  Zr5  1  0.87088440  0.12911360  0.94901477  1
  Ga  Ga0  1  0.75066967  0.24932933  0.25000000  1
  Ge  Ge0  1  0.24735997  0.75263903  0.75000000  1
  C  C0  1  0.49968197  0.50031603  0.99904870  1
  C  C1  1  0.49968197  0.50031603  0.50095130  1
loop_
_geom_bond_atom_site_label_1
_geom_bond_atom_site_label_2
_geom_bond_distance
_geom_bond_site_symmetry_2
Ga0 Zr1 2.850877 1_655
Ga0 Zr1 2.850877 1_545
Ga0 Zr2 2.873649 1_655
Ga0 Zr0 2.873649 1_655
Ga0 Zr2 2.873651 1_545
Ga0 Zr0 2.873651 1_545
Ga0 Zr5 3.024651 1_554
Ga0 Zr3 3.024659 1_555
Ge0 Zr4 2.796445 1_455
Ge0 Zr4 2.796445 1_565
Ge0 Zr3 2.855427 1_565
Ge0 Zr3 2.855430 1_455
Ge0 Zr5 2.855433 1_565
Ge0 Zr5 2.855435 1_455
Ge0 Zr0 2.982481 1_556
Ge0 Zr2 2.982481 1_555
C0 Zr0 2.308899 1_656
C0 Zr0 2.308899 1_546
C0 Zr5 2.313897 1_455
C0 Zr5 2.313897 1_565
C0 Zr4 2.317500 1_555
C0 Zr1 2.319941 1_556
C1 Zr2 2.308899 1_655
C1 Zr2 2.308899 1_545
C1 Zr3 2.313899 1_455
C1 Zr3 2.313899 1_565
C1 Zr4 2.317500 1_555
C1 Zr1 2.319941 1_555
