# generated using pymatgen
data_K4MnZnI8
_symmetry_space_group_name_H-M   'P 1'
_cell_length_a   7.91613772
_cell_length_b   8.19234497
_cell_length_c   9.67850502
_cell_angle_alpha   90.00000000
_cell_angle_beta   108.17672506
_cell_angle_gamma   90.00000000
_symmetry_Int_Tables_number   1
_chemical_formula_structural   K4MnZnI8
_chemical_formula_sum   'K4 Mn1 Zn1 I8'
_cell_volume   596.34646030
_cell_formula_units_Z   1
loop_
 _symmetry_equiv_pos_site_id
 _symmetry_equiv_pos_as_xyz
  1  'x, y, z'
loop_
 _atom_site_type_symbol
 _atom_site_label
 _atom_site_symmetry_multiplicity
 _atom_site_fract_x
 _atom_site_fract_y
 _atom_site_fract_z
 _atom_site_occupancy
  K  K0  1  0.21723409  0.25000000  0.55251598  1
  K  K1  1  0.78246049  0.75000000  0.44747223  1
  K  K2  1  0.25668540  0.25000000  0.06528188  1
  K  K3  1  0.74517997  0.75000000  0.93426697  1
  Mn  Mn0  1  0.22840744  0.75000000  0.30338822  1
  Zn  Zn0  1  0.77494511  0.25000000  0.69851995  1
  I  I0  1  0.59135006  0.25000000  0.42219652  1
  I  I1  1  0.41370146  0.75000000  0.58759274  1
  I  I2  1  0.99865663  0.00429550  0.24088414  1
  I  I3  1  0.99490964  0.99985032  0.75743105  1
  I  I4  1  0.99490964  0.50014968  0.75743105  1
  I  I5  1  0.99865663  0.49570450  0.24088414  1
  I  I6  1  0.57891389  0.25000000  0.87135321  1
  I  I7  1  0.42398855  0.75000000  0.12078191  1
loop_
_geom_bond_atom_site_label_1
_geom_bond_atom_site_label_2
_geom_bond_distance
_geom_bond_site_symmetry_2
I0 Zn0 2.615274 1_555
I0 K0 3.562609 1_555
I0 K2 3.638924 1_555
I1 Mn0 2.683374 1_555
I1 K3 3.556748 1_555
I1 K1 3.581966 1_555
I2 Mn0 2.706912 1_645
I2 K0 3.589806 1_655
I2 K2 3.643945 1_655
I2 K1 3.660857 1_545
I2 K3 3.668493 1_544
I3 Zn0 2.633890 1_565
I3 K1 3.587469 1_555
I3 K3 3.624630 1_555
I3 K0 3.661716 1_665
I3 K2 3.676871 1_666
I4 Zn0 2.633890 1_555
I4 K1 3.587469 1_555
I4 K3 3.624630 1_555
I4 K0 3.661716 1_655
I4 K2 3.676871 1_656
I5 Mn0 2.706912 1_655
I5 K0 3.589806 1_655
I5 K2 3.643945 1_655
I5 K1 3.660857 1_555
I5 K3 3.668493 1_554
I6 Zn0 2.612622 1_555
I6 K0 3.493954 1_555
I6 K2 3.607846 1_556
I7 Mn0 2.688455 1_555
I7 K1 3.528759 1_555
I7 K3 3.547829 1_554
