# generated using pymatgen
data_TcPCl9
_symmetry_space_group_name_H-M   'P 1'
_cell_length_a   6.97916533
_cell_length_b   9.05806668
_cell_length_c   9.53371051
_cell_angle_alpha   101.18716623
_cell_angle_beta   96.04414616
_cell_angle_gamma   95.58102940
_symmetry_Int_Tables_number   1
_chemical_formula_structural   TcPCl9
_chemical_formula_sum   'Tc2 P2 Cl18'
_cell_volume   583.66714328
_cell_formula_units_Z   2
loop_
 _symmetry_equiv_pos_site_id
 _symmetry_equiv_pos_as_xyz
  1  'x, y, z'
loop_
 _atom_site_type_symbol
 _atom_site_label
 _atom_site_symmetry_multiplicity
 _atom_site_fract_x
 _atom_site_fract_y
 _atom_site_fract_z
 _atom_site_occupancy
  Tc  Tc0  1  0.88725837  0.36820882  0.32993480  1
  Tc  Tc1  1  0.11274163  0.63179118  0.67006620  1
  P  P0  1  0.55045392  0.18959666  0.77843348  1
  P  P1  1  0.44954608  0.81040334  0.22156652  1
  Cl  Cl0  1  0.65679473  0.89385472  0.12790946  1
  Cl  Cl1  1  0.34320527  0.10614528  0.87209054  1
  Cl  Cl2  1  0.21307905  0.48189501  0.45078324  1
  Cl  Cl3  1  0.78692095  0.51810499  0.54921676  1
  Cl  Cl4  1  0.08518527  0.83485417  0.55444848  1
  Cl  Cl5  1  0.91481473  0.16514583  0.44555152  1
  Cl  Cl6  1  0.98691253  0.76378354  0.86544390  1
  Cl  Cl7  1  0.01308747  0.23621646  0.13455610  1
  Cl  Cl8  1  0.12839387  0.42351333  0.78143068  1
  Cl  Cl9  1  0.87160613  0.57648667  0.21856932  1
  Cl  Cl10  1  0.43299200  0.71634153  0.75586260  1
  Cl  Cl11  1  0.56700800  0.28365847  0.24413740  1
  Cl  Cl12  1  0.44742553  0.20394869  0.58562364  1
  Cl  Cl13  1  0.55257447  0.79605131  0.41437636  1
  Cl  Cl14  1  0.75182283  0.05489332  0.76769911  1
  Cl  Cl15  1  0.24817717  0.94510668  0.23230089  1
  Cl  Cl16  1  0.65973907  0.38680943  0.89008731  1
  Cl  Cl17  1  0.34026093  0.61319057  0.10991269  1
loop_
_geom_bond_atom_site_label_1
_geom_bond_atom_site_label_2
_geom_bond_distance
_geom_bond_site_symmetry_2
Cl0 P1 1.944741 1_555
Cl1 P0 1.944741 1_555
Cl2 Tc0 2.468028 1_455
Cl2 Tc1 2.469058 1_555
Cl3 Tc1 2.468031 1_655
Cl3 Tc0 2.469051 1_555
Cl4 Tc1 2.333687 1_555
Cl5 Tc0 2.333681 1_555
Cl6 Tc1 2.314036 1_655
Cl7 Tc0 2.314043 1_455
Cl8 Tc1 2.343355 1_555
Cl9 Tc0 2.343360 1_555
Cl10 Tc1 2.300034 1_555
Cl11 Tc0 2.300036 1_555
Cl12 P0 1.935317 1_555
Cl13 P1 1.935317 1_555
Cl14 P0 1.946723 1_555
Cl15 P1 1.946723 1_555
Cl16 P0 1.931866 1_555
Cl17 P1 1.931866 1_555
