# generated using pymatgen
data_K2Li2TiSe4
_symmetry_space_group_name_H-M   'P 1'
_cell_length_a   6.06603755
_cell_length_b   6.06603755
_cell_length_c   13.33627426
_cell_angle_alpha   90.00000000
_cell_angle_beta   90.00000000
_cell_angle_gamma   90.00000000
_symmetry_Int_Tables_number   1
_chemical_formula_structural   K2Li2TiSe4
_chemical_formula_sum   'K4 Li4 Ti2 Se8'
_cell_volume   490.73237103
_cell_formula_units_Z   2
loop_
 _symmetry_equiv_pos_site_id
 _symmetry_equiv_pos_as_xyz
  1  'x, y, z'
loop_
 _atom_site_type_symbol
 _atom_site_label
 _atom_site_symmetry_multiplicity
 _atom_site_fract_x
 _atom_site_fract_y
 _atom_site_fract_z
 _atom_site_occupancy
  K  K0  1  0.25347526  0.25347526  0.00000000  1
  K  K1  1  0.74652474  0.74652474  0.00000000  1
  K  K2  1  0.74652474  0.25347526  0.50000000  1
  K  K3  1  0.25347526  0.74652474  0.50000000  1
  Li  Li0  1  0.00000000  0.50000000  0.25000000  1
  Li  Li1  1  0.00000000  0.50000000  0.75000000  1
  Li  Li2  1  0.50000000  0.00000000  0.75000000  1
  Li  Li3  1  0.50000000  0.00000000  0.25000000  1
  Ti  Ti0  1  0.00000000  0.00000000  0.25000000  1
  Ti  Ti1  1  0.00000000  0.00000000  0.75000000  1
  Se  Se0  1  0.22770510  0.22770510  0.35278767  1
  Se  Se1  1  0.77229490  0.77229490  0.64721233  1
  Se  Se2  1  0.77229490  0.77229490  0.35278767  1
  Se  Se3  1  0.77229490  0.22770510  0.85278767  1
  Se  Se4  1  0.77229490  0.22770510  0.14721233  1
  Se  Se5  1  0.22770510  0.22770510  0.64721233  1
  Se  Se6  1  0.22770510  0.77229490  0.14721233  1
  Se  Se7  1  0.22770510  0.77229490  0.85278767  1
loop_
_geom_bond_atom_site_label_1
_geom_bond_atom_site_label_2
_geom_bond_distance
_geom_bond_site_symmetry_2
K0 Se4 3.521161 1_455
K0 Se6 3.521161 1_545
K0 Se3 3.521161 1_454
K0 Se7 3.521161 1_544
K0 Se6 3.712625 1_555
K0 Se4 3.712625 1_555
K0 Se3 3.712625 1_554
K0 Se7 3.712625 1_554
K1 Se6 3.521161 1_655
K1 Se4 3.521161 1_565
K1 Se7 3.521161 1_654
K1 Se3 3.521161 1_564
K1 Se4 3.712625 1_555
K1 Se6 3.712625 1_555
K1 Se3 3.712625 1_554
K1 Se7 3.712625 1_554
K2 Se1 3.521161 1_545
K2 Se5 3.521161 1_655
K2 Se2 3.521161 1_545
K2 Se0 3.521161 1_655
K2 Se5 3.712625 1_555
K2 Se1 3.712625 1_555
K2 Se0 3.712625 1_555
K2 Se2 3.712625 1_555
K3 Se1 3.521161 1_455
K3 Se5 3.521161 1_565
K3 Se0 3.521161 1_565
K3 Se2 3.521161 1_455
K3 Se5 3.712625 1_555
K3 Se1 3.712625 1_555
K3 Se0 3.712625 1_555
K3 Se2 3.712625 1_555
Li0 Se2 2.552506 1_455
Li0 Se0 2.552506 1_555
Li0 Se6 2.552506 1_555
Li0 Se4 2.552506 1_455
Li1 Se7 2.552506 1_555
Li1 Se3 2.552506 1_455
Li1 Se1 2.552506 1_455
Li1 Se5 2.552506 1_555
Li2 Se3 2.552506 1_555
Li2 Se7 2.552506 1_545
Li2 Se1 2.552506 1_545
Li2 Se5 2.552506 1_555
Li3 Se2 2.552506 1_545
Li3 Se0 2.552506 1_555
Li3 Se4 2.552506 1_555
Li3 Se6 2.552506 1_545
Se0 Ti0 2.386400 1_555
Se1 Ti1 2.386400 1_665
Se2 Ti0 2.386400 1_665
Se3 Ti1 2.386400 1_655
Se4 Ti0 2.386400 1_655
Se5 Ti1 2.386400 1_555
Se6 Ti0 2.386400 1_565
Se7 Ti1 2.386400 1_565
