# generated using pymatgen
data_Y16Cd4PdRu3
_symmetry_space_group_name_H-M   'P 1'
_cell_length_a   9.68799101
_cell_length_b   9.61531131
_cell_length_c   9.68799034
_cell_angle_alpha   59.74964101
_cell_angle_beta   59.99999894
_cell_angle_gamma   59.74964137
_symmetry_Int_Tables_number   1
_chemical_formula_structural   Y16Cd4PdRu3
_chemical_formula_sum   'Y16 Cd4 Pd1 Ru3'
_cell_volume   635.71421157
_cell_formula_units_Z   1
loop_
 _symmetry_equiv_pos_site_id
 _symmetry_equiv_pos_as_xyz
  1  'x, y, z'
loop_
 _atom_site_type_symbol
 _atom_site_label
 _atom_site_symmetry_multiplicity
 _atom_site_fract_x
 _atom_site_fract_y
 _atom_site_fract_z
 _atom_site_occupancy
  Y  Y0  1  0.43898140  0.43561009  0.06270426  1
  Y  Y1  1  0.06587763  0.05697426  0.43857456  1
  Y  Y2  1  0.43857456  0.05697426  0.06587763  1
  Y  Y3  1  0.85123873  0.84579659  0.85123873  1
  Y  Y4  1  0.69069798  0.31482100  0.30378303  1
  Y  Y5  1  0.06270426  0.43561009  0.43898140  1
  Y  Y6  1  0.31092601  0.68774172  0.69040626  1
  Y  Y7  1  0.30378303  0.31482100  0.69069798  1
  Y  Y8  1  0.85123873  0.84579659  0.45172595  1
  Y  Y9  1  0.69040626  0.68774172  0.31092601  1
  Y  Y10  1  0.45172595  0.84579659  0.85123873  1
  Y  Y11  1  0.06270426  0.43561009  0.06270426  1
  Y  Y12  1  0.84516624  0.46450129  0.84516624  1
  Y  Y13  1  0.43857456  0.05697426  0.43857456  1
  Y  Y14  1  0.31092601  0.68774172  0.31092601  1
  Y  Y15  1  0.69069798  0.31482100  0.69069798  1
  Cd  Cd0  1  0.08038875  0.75883376  0.08038875  1
  Cd  Cd1  1  0.07926235  0.07976139  0.76171291  1
  Cd  Cd2  1  0.76171291  0.07976139  0.07926235  1
  Cd  Cd3  1  0.07926235  0.07976139  0.07926235  1
  Pd  Pd0  1  0.64146977  0.07558968  0.64146977  1
  Ru  Ru0  1  0.63800424  0.64631971  0.63800424  1
  Ru  Ru1  1  0.63800424  0.64631971  0.07767082  1
  Ru  Ru2  1  0.07767082  0.64631971  0.63800424  1
loop_
_geom_bond_atom_site_label_1
_geom_bond_atom_site_label_2
_geom_bond_distance
_geom_bond_site_symmetry_2
Y0 Y10 3.444491 1_554
Y0 Y12 3.496019 1_554
Y0 Y15 3.586014 1_554
Y0 Y4 3.586014 1_555
Y0 Y6 3.613815 1_554
Y0 Y14 3.613815 1_555
Y0 Y2 3.627290 1_555
Y0 Y13 3.627294 1_555
Y0 Y5 3.645369 1_555
Y0 Y11 3.645370 1_555
Y1 Y3 3.491693 1_445
Y1 Y8 3.491699 1_445
Y1 Y6 3.572877 1_545
Y1 Y14 3.572882 1_545
Y1 Y2 3.610684 1_555
Y1 Y13 3.610685 1_555
Y1 Y5 3.627290 1_555
Y1 Y11 3.627294 1_555
Y1 Y15 3.669894 1_455
Y1 Y4 3.669899 1_455
Y2 Y3 3.491693 1_544
Y2 Y9 3.572877 1_545
Y2 Y7 3.669898 1_554
Y5 Y8 3.444491 1_455
Y5 Y7 3.586014 1_555
Y5 Y9 3.613815 1_455
Y10 Y13 3.491690 1_565
Y10 Y2 3.491699 1_566
Y11 Y3 3.444491 1_454
Y11 Y12 3.496019 1_454
Y11 Y7 3.586014 1_554
Y11 Y4 3.586014 1_455
Y11 Y6 3.613815 1_554
Y11 Y9 3.613815 1_455
Y11 Y2 3.627294 1_555
Y11 Y5 3.645369 1_555
Y12 Y5 3.496019 1_655
Y13 Y8 3.491690 1_545
Y13 Y9 3.572882 1_545
Y13 Y6 3.572882 1_545
Y13 Y2 3.610684 1_555
Y13 Y5 3.627294 1_555
Y13 Y7 3.669890 1_555
Y13 Y4 3.669891 1_555
Y14 Y2 3.572882 1_565
Y14 Y5 3.613815 1_555
Y15 Y5 3.586014 1_655
Y15 Y2 3.669894 1_556
Cd0 Cd3 3.074863 1_565
Cd0 Cd1 3.074867 1_564
Cd0 Cd2 3.074867 1_465
Cd0 Y5 3.289386 1_555
Cd0 Y0 3.289386 1_555
Cd0 Y11 3.289386 1_555
Cd0 Y8 3.426915 1_455
Cd0 Y3 3.426915 1_454
Cd0 Y10 3.426915 1_554
Cd0 Y6 3.515047 1_554
Cd0 Y14 3.515047 1_555
Cd0 Y9 3.515047 1_455
Cd1 Cd3 3.076416 1_556
Cd1 Cd2 3.076416 1_456
Cd1 Y5 3.267789 1_555
Cd1 Y1 3.315255 1_555
Cd1 Y13 3.315265 1_555
Cd1 Y3 3.437811 1_445
Cd1 Y10 3.437819 1_545
Cd1 Y15 3.493294 1_455
Cd1 Y7 3.493303 1_555
Cd1 Y12 3.494172 1_455
Cd1 Y6 3.503152 1_545
Cd2 Cd3 3.076416 1_655
Cd2 Y0 3.267789 1_555
Cd2 Y2 3.315255 1_555
Cd2 Y13 3.315265 1_555
Cd2 Y3 3.437811 1_544
Cd2 Y8 3.437819 1_545
Cd2 Y15 3.493294 1_554
Cd2 Y4 3.493303 1_555
Cd2 Y12 3.494172 1_554
Cd2 Y9 3.503152 1_545
Cd3 Y11 3.267793 1_555
Cd3 Y1 3.315274 1_555
Cd3 Y2 3.315274 1_555
Cd3 Y8 3.437815 1_445
Cd3 Y10 3.437815 1_544
Cd3 Y7 3.493298 1_554
Cd3 Y4 3.493298 1_455
Cd3 Y12 3.494168 1_454
Cd3 Y14 3.503156 1_545
Pd0 Y4 2.860827 1_555
Pd0 Y7 2.860827 1_555
Pd0 Y15 2.860833 1_555
Pd0 Y8 2.867666 1_545
Pd0 Y10 2.867666 1_545
Pd0 Y3 2.867673 1_545
Pd0 Y13 3.511743 1_555
Pd0 Y2 3.511759 1_556
Pd0 Y1 3.511759 1_655
Ru0 Y15 2.768170 1_555
Ru0 Y9 2.789385 1_555
Ru0 Y6 2.789386 1_555
Ru0 Y10 2.824859 1_555
Ru0 Y8 2.824859 1_555
Ru0 Y12 2.840752 1_555
Ru0 Y13 3.378868 1_565
Ru0 Y0 3.514988 1_556
Ru0 Y5 3.514988 1_655
Ru1 Y4 2.768173 1_555
Ru1 Y14 2.789389 1_555
Ru1 Y9 2.789395 1_555
Ru1 Y10 2.824851 1_554
Ru1 Y3 2.824858 1_554
Ru1 Y12 2.840745 1_554
Ru1 Y2 3.378873 1_565
Ru1 Y0 3.514983 1_555
Ru1 Y11 3.514991 1_655
Ru2 Y7 2.768173 1_555
Ru2 Y14 2.789388 1_555
Ru2 Y6 2.789395 1_555
Ru2 Y8 2.824851 1_455
Ru2 Y3 2.824858 1_455
Ru2 Y12 2.840745 1_455
Ru2 Y1 3.378873 1_565
Ru2 Y5 3.514983 1_555
Ru2 Y11 3.514991 1_556
