# generated using pymatgen
data_HfAg4Te3O14
_symmetry_space_group_name_H-M   'P 1'
_cell_length_a   7.40077405
_cell_length_b   7.40077374
_cell_length_c   7.27639137
_cell_angle_alpha   120.34834404
_cell_angle_beta   119.87997043
_cell_angle_gamma   90.76915069
_symmetry_Int_Tables_number   1
_chemical_formula_structural   HfAg4Te3O14
_chemical_formula_sum   'Hf1 Ag4 Te3 O14'
_cell_volume   278.86036267
_cell_formula_units_Z   1
loop_
 _symmetry_equiv_pos_site_id
 _symmetry_equiv_pos_as_xyz
  1  'x, y, z'
loop_
 _atom_site_type_symbol
 _atom_site_label
 _atom_site_symmetry_multiplicity
 _atom_site_fract_x
 _atom_site_fract_y
 _atom_site_fract_z
 _atom_site_occupancy
  Hf  Hf0  1  0.50000000  0.00000000  0.00000000  1
  Ag  Ag0  1  0.00000000  0.50000000  0.50000000  1
  Ag  Ag1  1  0.50000000  0.00000000  0.50000000  1
  Ag  Ag2  1  0.00000000  0.50000000  0.00000000  1
  Ag  Ag3  1  0.00000000  0.00000000  0.50000000  1
  Te  Te0  1  0.50000000  0.50000000  0.00000000  1
  Te  Te1  1  0.00000000  0.00000000  0.00000000  1
  Te  Te2  1  0.50000000  0.50000000  0.50000000  1
  O  O0  1  0.55132618  0.42548866  0.73503509  1
  O  O1  1  0.45416200  0.19504750  0.86914882  1
  O  O2  1  0.82589969  0.08501318  0.13085118  1
  O  O3  1  0.19045257  0.31629109  0.26496491  1
  O  O4  1  0.44867382  0.57451134  0.26496491  1
  O  O5  1  0.54583800  0.80495250  0.13085118  1
  O  O6  1  0.17410031  0.91498682  0.86914882  1
  O  O7  1  0.80954743  0.68370891  0.73503509  1
  O  O8  1  0.59284698  0.26483273  0.35768071  1
  O  O9  1  0.40715302  0.73516727  0.64231929  1
  O  O10  1  0.18071392  0.40749353  0.75966968  1
  O  O11  1  0.81928608  0.59250647  0.24033032  1
  O  O12  1  0.85217715  0.07895576  0.75966968  1
  O  O13  1  0.14782285  0.92104424  0.24033032  1
loop_
_geom_bond_atom_site_label_1
_geom_bond_atom_site_label_2
_geom_bond_distance
_geom_bond_site_symmetry_2
Hf0 O8 2.028442 1_555
Hf0 O9 2.028442 1_544
Hf0 O1 2.045846 1_554
Hf0 O5 2.045846 1_545
Hf0 O2 2.045853 1_555
Hf0 O6 2.045853 1_544
Ag0 O10 2.154383 1_555
Ag0 O11 2.154383 1_455
Ag0 O6 2.533122 1_555
Ag0 O2 2.533122 1_455
Ag0 O3 2.619843 1_555
Ag0 O7 2.619843 1_455
Ag1 O12 2.154389 1_555
Ag1 O13 2.154389 1_545
Ag1 O1 2.533121 1_555
Ag1 O5 2.533121 1_545
Ag1 O0 2.619850 1_555
Ag1 O4 2.619850 1_545
Ag2 O13 2.541766 1_555
Ag2 O12 2.541766 1_454
Ag2 O11 2.541766 1_455
Ag2 O10 2.541766 1_554
Ag2 O3 2.746807 1_555
Ag2 O7 2.746807 1_454
Ag2 O0 2.746808 1_454
Ag2 O4 2.746808 1_555
Ag3 O13 2.463614 1_545
Ag3 O12 2.463614 1_455
Ag3 O11 2.463620 1_445
Ag3 O10 2.463620 1_555
Ag3 O6 2.748114 1_545
Ag3 O2 2.748114 1_455
Ag3 O1 2.748114 1_555
Ag3 O5 2.748114 1_445
O0 Te2 1.919514 1_555
O0 Te0 1.956140 1_556
O1 Te0 1.897722 1_556
O2 Te1 1.897715 1_655
O3 Te2 1.919519 1_555
O3 Te1 1.956139 1_555
O4 Te2 1.919514 1_555
O4 Te0 1.956140 1_555
O5 Te0 1.897722 1_555
O6 Te1 1.897715 1_566
O7 Te2 1.919519 1_555
O7 Te1 1.956139 1_666
O8 Te2 1.869080 1_555
O9 Te2 1.869080 1_555
O10 Te0 1.933894 1_556
O11 Te0 1.933894 1_555
O12 Te1 1.933893 1_656
O13 Te1 1.933893 1_565
