# generated using pymatgen
data_Co7NiRhS8
_symmetry_space_group_name_H-M   'P 1'
_cell_length_a   6.96068900
_cell_length_b   6.94597510
_cell_length_c   6.94597491
_cell_angle_alpha   60.00000553
_cell_angle_beta   60.06990671
_cell_angle_gamma   60.06990737
_symmetry_Int_Tables_number   1
_chemical_formula_structural   Co7NiRhS8
_chemical_formula_sum   'Co7 Ni1 Rh1 S8'
_cell_volume   237.71783739
_cell_formula_units_Z   1
loop_
 _symmetry_equiv_pos_site_id
 _symmetry_equiv_pos_as_xyz
  1  'x, y, z'
loop_
 _atom_site_type_symbol
 _atom_site_label
 _atom_site_symmetry_multiplicity
 _atom_site_fract_x
 _atom_site_fract_y
 _atom_site_fract_z
 _atom_site_occupancy
  Co  Co0  1  0.12673388  0.62191152  0.12567680  1
  Co  Co1  1  0.12673388  0.12567680  0.62191152  1
  Co  Co2  1  0.12673388  0.12567680  0.12567680  1
  Co  Co3  1  0.37728300  0.87423867  0.87423867  1
  Co  Co4  1  0.87310015  0.37933881  0.87378102  1
  Co  Co5  1  0.87310015  0.87378102  0.37933881  1
  Co  Co6  1  0.87310015  0.87378102  0.87378102  1
  Ni  Ni0  1  0.61646500  0.12784500  0.12784500  1
  Rh  Rh0  1  0.50263288  0.49912271  0.49912271  1
  S  S0  1  0.24113182  0.25295606  0.25295606  1
  S  S1  1  0.74685931  0.75104723  0.75104723  1
  S  S2  1  0.74945958  0.25564260  0.25564260  1
  S  S3  1  0.74945958  0.25564260  0.73925522  1
  S  S4  1  0.74945958  0.73925522  0.25564260  1
  S  S5  1  0.25591606  0.74395842  0.74395842  1
  S  S6  1  0.25591606  0.74395842  0.25616809  1
  S  S7  1  0.25591606  0.25616809  0.74395842  1
loop_
_geom_bond_atom_site_label_1
_geom_bond_atom_site_label_2
_geom_bond_distance
_geom_bond_site_symmetry_2
Co0 S0 2.093758 1_555
Co0 S4 2.147052 1_455
Co0 S5 2.165883 1_554
Co0 S6 2.165894 1_555
Co1 S0 2.093758 1_555
Co1 S3 2.147052 1_455
Co1 S5 2.165883 1_545
Co1 S7 2.165894 1_555
Co2 S0 2.093764 1_555
Co2 S2 2.147052 1_455
Co2 S7 2.165883 1_554
Co2 S6 2.165883 1_545
Co3 S1 2.102659 1_555
Co3 S5 2.167040 1_555
Co3 S6 2.167052 1_556
Co3 S7 2.167052 1_565
Co4 S1 2.108914 1_555
Co4 S2 2.166836 1_556
Co4 S3 2.166842 1_555
Co4 S7 2.178147 1_655
Co5 S1 2.108914 1_555
Co5 S2 2.166836 1_565
Co5 S4 2.166842 1_555
Co5 S6 2.178147 1_655
Co6 S1 2.108914 1_555
Co6 S4 2.166836 1_556
Co6 S3 2.166836 1_565
Co6 S5 2.178147 1_655
Ni0 S0 2.135412 1_555
Ni0 S2 2.204754 1_555
Ni0 S3 2.204754 1_554
Ni0 S4 2.204754 1_545
Rh0 S3 2.394440 1_555
Rh0 S4 2.394440 1_555
Rh0 S2 2.394445 1_555
Rh0 S6 2.407667 1_555
Rh0 S5 2.407667 1_555
Rh0 S7 2.407667 1_555
