# generated using pymatgen
data_ScAgH6Os
_symmetry_space_group_name_H-M   'P 1'
_cell_length_a   4.77828585
_cell_length_b   4.77828621
_cell_length_c   4.77828555
_cell_angle_alpha   59.99999772
_cell_angle_beta   59.99999521
_cell_angle_gamma   59.99999536
_symmetry_Int_Tables_number   1
_chemical_formula_structural   ScAgH6Os
_chemical_formula_sum   'Sc1 Ag1 H6 Os1'
_cell_volume   77.14385724
_cell_formula_units_Z   1
loop_
 _symmetry_equiv_pos_site_id
 _symmetry_equiv_pos_as_xyz
  1  'x, y, z'
loop_
 _atom_site_type_symbol
 _atom_site_label
 _atom_site_symmetry_multiplicity
 _atom_site_fract_x
 _atom_site_fract_y
 _atom_site_fract_z
 _atom_site_occupancy
  Sc  Sc0  1  0.75000000  0.75000000  0.75000000  1
  Ag  Ag0  1  0.25000100  0.25000100  0.25000100  1
  H  H0  1  0.25090728  0.74909272  0.25090728  1
  H  H1  1  0.74909272  0.25090728  0.25090728  1
  H  H2  1  0.74909272  0.74909272  0.25090728  1
  H  H3  1  0.25090728  0.25090728  0.74909272  1
  H  H4  1  0.74909272  0.25090728  0.74909272  1
  H  H5  1  0.25090728  0.74909272  0.74909272  1
  Os  Os0  1  0.00000000  0.00000000  0.00000000  1
loop_
_geom_bond_atom_site_label_1
_geom_bond_atom_site_label_2
_geom_bond_distance
_geom_bond_site_symmetry_2
Ag0 H3 2.389141 1_555
Ag0 H1 2.389141 1_555
Ag0 H0 2.389141 1_555
Ag0 H4 2.389151 1_554
Ag0 H4 2.389151 1_455
Ag0 H2 2.389151 1_455
Ag0 H2 2.389151 1_545
Ag0 H5 2.389151 1_554
Ag0 H5 2.389151 1_545
Ag0 H3 2.389160 1_554
Ag0 H1 2.389160 1_455
Ag0 H0 2.389161 1_545
H0 Os0 1.695510 1_565
H0 Sc0 2.389151 1_554
H0 Sc0 2.389151 1_455
H1 Os0 1.695510 1_655
H1 Sc0 2.389151 1_554
H1 Sc0 2.389151 1_545
H2 Os0 1.695510 1_665
H2 Sc0 2.389151 1_554
H2 Sc0 2.389151 1_555
H3 Os0 1.695510 1_556
H3 Sc0 2.389151 1_455
H3 Sc0 2.389151 1_545
H4 Os0 1.695510 1_656
H4 Sc0 2.389151 1_555
H4 Sc0 2.389151 1_545
H5 Os0 1.695510 1_566
H5 Sc0 2.389151 1_455
H5 Sc0 2.389151 1_555
