# generated using pymatgen
data_Sr6Ti2PdO12
_symmetry_space_group_name_H-M   'P 1'
_cell_length_a   8.71277993
_cell_length_b   8.71277903
_cell_length_c   6.87928821
_cell_angle_alpha   67.66452353
_cell_angle_beta   67.66451661
_cell_angle_gamma   36.85196038
_symmetry_Int_Tables_number   1
_chemical_formula_structural   Sr6Ti2PdO12
_chemical_formula_sum   'Sr6 Ti2 Pd1 O12'
_cell_volume   286.97863784
_cell_formula_units_Z   1
loop_
 _symmetry_equiv_pos_site_id
 _symmetry_equiv_pos_as_xyz
  1  'x, y, z'
loop_
 _atom_site_type_symbol
 _atom_site_label
 _atom_site_symmetry_multiplicity
 _atom_site_fract_x
 _atom_site_fract_y
 _atom_site_fract_z
 _atom_site_occupancy
  Sr  Sr0  1  0.88210874  0.88210874  0.71077218  1
  Sr  Sr1  1  0.21454873  0.21454873  0.70863956  1
  Sr  Sr2  1  0.54829367  0.54829367  0.71098824  1
  Sr  Sr3  1  0.45170633  0.45170633  0.28901176  1
  Sr  Sr4  1  0.78545127  0.78545127  0.29136044  1
  Sr  Sr5  1  0.11789126  0.11789126  0.28922782  1
  Ti  Ti0  1  0.66729247  0.66729247  0.00010970  1
  Ti  Ti1  1  0.33270753  0.33270753  0.99989030  1
  Pd  Pd0  1  0.00000000  0.00000000  0.00000000  1
  O  O0  1  0.94619330  0.94619330  0.32370866  1
  O  O1  1  0.27895727  0.27895727  0.31553784  1
  O  O2  1  0.61554639  0.61554639  0.31654908  1
  O  O3  1  0.38445361  0.38445361  0.68345092  1
  O  O4  1  0.72104273  0.72104273  0.68446216  1
  O  O5  1  0.05380670  0.05380670  0.67629134  1
  O  O6  1  0.50000000  0.00000000  0.00000000  1
  O  O7  1  0.83263068  0.33601615  0.99992650  1
  O  O8  1  0.16736932  0.66398385  0.00007350  1
  O  O9  1  0.00000000  0.50000000  0.00000000  1
  O  O10  1  0.33601615  0.83263068  0.99992650  1
  O  O11  1  0.66398385  0.16736932  0.00007350  1
loop_
_geom_bond_atom_site_label_1
_geom_bond_atom_site_label_2
_geom_bond_distance
_geom_bond_site_symmetry_2
O0 Pd0 2.040426 1_665
O0 Sr0 2.439778 1_555
O0 Sr5 2.752125 1_665
O0 Sr4 2.754116 1_555
O0 Sr3 2.762603 1_655
O0 Sr3 2.762603 1_565
O1 Ti1 1.989702 1_554
O1 Sr1 2.477896 1_555
O1 Sr5 2.740298 1_555
O1 Sr4 2.758443 1_545
O1 Sr4 2.758443 1_455
O1 Sr3 2.787845 1_555
O2 Ti0 1.994673 1_555
O2 Sr2 2.486383 1_555
O2 Sr4 2.744089 1_555
O2 Sr5 2.759550 1_655
O2 Sr5 2.759550 1_565
O2 Sr3 2.789923 1_555
O3 Ti1 1.994673 1_555
O3 Sr3 2.486383 1_555
O3 Sr1 2.744089 1_555
O3 Sr0 2.759550 1_455
O3 Sr0 2.759550 1_545
O3 Sr2 2.789923 1_555
O4 Ti0 1.989702 1_556
O4 Sr4 2.477896 1_555
O4 Sr0 2.740298 1_555
O4 Sr1 2.758443 1_565
O4 Sr1 2.758443 1_655
O4 Sr2 2.787845 1_555
O5 Pd0 2.040426 1_556
O5 Sr5 2.439778 1_555
O5 Sr0 2.752125 1_445
O5 Sr1 2.754116 1_555
O5 Sr2 2.762603 1_455
O5 Sr2 2.762603 1_545
O6 Ti1 1.940313 1_554
O6 Ti0 1.940313 1_545
O6 Sr0 2.672746 1_544
O6 Sr5 2.672746 1_555
O6 Sr4 2.682921 1_545
O6 Sr1 2.682921 1_554
O7 Ti0 1.937339 1_556
O7 Pd0 1.965861 1_656
O7 Sr5 2.659966 1_656
O7 Sr1 2.667595 1_655
O7 Sr2 2.669207 1_555
O7 Sr3 2.671926 1_556
O8 Ti1 1.937339 1_554
O8 Pd0 1.965861 1_565
O8 Sr0 2.659966 1_454
O8 Sr4 2.667595 1_455
O8 Sr3 2.669207 1_555
O8 Sr2 2.671926 1_554
O9 Ti1 1.940314 1_554
O9 Ti0 1.940314 1_455
O9 Sr0 2.672746 1_454
O9 Sr5 2.672746 1_555
O9 Sr4 2.682921 1_455
O9 Sr1 2.682921 1_554
O10 Ti0 1.937339 1_556
O10 Pd0 1.965861 1_566
O10 Sr5 2.659966 1_566
O10 Sr1 2.667595 1_565
O10 Sr2 2.669207 1_555
O10 Sr3 2.671926 1_556
O11 Ti1 1.937339 1_554
O11 Pd0 1.965861 1_655
O11 Sr0 2.659966 1_544
O11 Sr4 2.667595 1_545
O11 Sr3 2.669207 1_555
O11 Sr2 2.671926 1_554
