# generated using pymatgen
data_Zr3Ge3Mo2N
_symmetry_space_group_name_H-M   'P 1'
_cell_length_a   7.79476246
_cell_length_b   7.79476213
_cell_length_c   5.36599934
_cell_angle_alpha   90.00000000
_cell_angle_beta   90.00000000
_cell_angle_gamma   120.00000142
_symmetry_Int_Tables_number   1
_chemical_formula_structural   Zr3Ge3Mo2N
_chemical_formula_sum   'Zr6 Ge6 Mo4 N2'
_cell_volume   282.34947945
_cell_formula_units_Z   2
loop_
 _symmetry_equiv_pos_site_id
 _symmetry_equiv_pos_as_xyz
  1  'x, y, z'
loop_
 _atom_site_type_symbol
 _atom_site_label
 _atom_site_symmetry_multiplicity
 _atom_site_fract_x
 _atom_site_fract_y
 _atom_site_fract_z
 _atom_site_occupancy
  Zr  Zr0  1  0.23477910  0.00000000  0.75000000  1
  Zr  Zr1  1  0.76522090  0.00000000  0.25000000  1
  Zr  Zr2  1  1.00000000  0.23477910  0.75000000  1
  Zr  Zr3  1  0.00000000  0.76522090  0.25000000  1
  Zr  Zr4  1  0.76522090  0.76522090  0.75000000  1
  Zr  Zr5  1  0.23477910  0.23477910  0.25000000  1
  Ge  Ge0  1  0.59098006  0.00000000  0.75000000  1
  Ge  Ge1  1  0.40901994  0.00000000  0.25000000  1
  Ge  Ge2  1  0.00000000  0.59098006  0.75000000  1
  Ge  Ge3  1  1.00000000  0.40901994  0.25000000  1
  Ge  Ge4  1  0.40901994  0.40901994  0.75000000  1
  Ge  Ge5  1  0.59098006  0.59098006  0.25000000  1
  Mo  Mo0  1  0.33333300  0.66666700  0.50000000  1
  Mo  Mo1  1  0.66666700  0.33333300  0.50000000  1
  Mo  Mo2  1  0.66666700  0.33333300  0.00000000  1
  Mo  Mo3  1  0.33333300  0.66666700  0.00000000  1
  N  N0  1  0.00000000  0.00000000  0.50000000  1
  N  N1  1  0.00000000  0.00000000  0.00000000  1
loop_
_geom_bond_atom_site_label_1
_geom_bond_atom_site_label_2
_geom_bond_distance
_geom_bond_site_symmetry_2
Ge0 Mo2 2.713986 1_556
Ge0 Mo1 2.713986 1_555
Ge0 Mo3 2.713988 1_546
Ge0 Mo0 2.713988 1_545
Ge0 Zr2 2.771136 1_555
Ge0 Zr4 2.771136 1_545
Ge0 Zr0 2.776502 1_555
Ge0 Zr1 3.007175 1_555
Ge0 Zr1 3.007175 1_556
Ge1 Mo0 2.713986 1_545
Ge1 Mo3 2.713986 1_545
Ge1 Mo2 2.713988 1_555
Ge1 Mo1 2.713988 1_555
Ge1 Zr3 2.771136 1_545
Ge1 Zr5 2.771136 1_555
Ge1 Zr1 2.776502 1_555
Ge1 Zr0 3.007175 1_554
Ge1 Zr0 3.007175 1_555
Ge2 Mo3 2.713986 1_556
Ge2 Mo0 2.713986 1_555
Ge2 Mo2 2.713988 1_456
Ge2 Mo1 2.713988 1_455
Ge2 Zr0 2.771136 1_565
Ge2 Zr4 2.771136 1_455
Ge2 Zr2 2.776502 1_455
Ge2 Zr3 3.007175 1_555
Ge2 Zr3 3.007175 1_556
Ge3 Mo2 2.713986 1_555
Ge3 Mo1 2.713986 1_555
Ge3 Mo0 2.713988 1_655
Ge3 Mo3 2.713988 1_655
Ge3 Zr1 2.771136 1_555
Ge3 Zr5 2.771136 1_655
Ge3 Zr3 2.776502 1_655
Ge3 Zr2 3.007175 1_554
Ge3 Zr2 3.007175 1_555
Ge4 Mo3 2.713992 1_556
Ge4 Mo0 2.713992 1_555
Ge4 Mo2 2.713992 1_556
Ge4 Mo1 2.713992 1_555
Ge4 Zr0 2.771136 1_555
Ge4 Zr2 2.771136 1_455
Ge4 Zr4 2.776502 1_555
Ge4 Zr5 3.007175 1_556
Ge4 Zr5 3.007175 1_555
Ge5 Mo1 2.713992 1_555
Ge5 Mo2 2.713992 1_555
Ge5 Mo3 2.713992 1_555
Ge5 Mo0 2.713992 1_555
Ge5 Zr1 2.771136 1_565
Ge5 Zr3 2.771136 1_655
Ge5 Zr5 2.776502 1_555
Ge5 Zr4 3.007175 1_555
Ge5 Zr4 3.007175 1_554
Mo0 Mo3 2.683000 1_556
Mo0 Mo3 2.683000 1_555
Mo0 Zr0 3.337163 1_565
Mo0 Zr3 3.337163 1_555
Mo0 Zr2 3.337168 1_455
Mo0 Zr1 3.337168 1_565
Mo0 Zr5 3.337170 1_555
Mo0 Zr4 3.337170 1_555
Mo1 Mo2 2.683000 1_555
Mo1 Mo2 2.683000 1_556
Mo1 Zr1 3.337163 1_555
Mo1 Zr2 3.337163 1_555
Mo1 Zr3 3.337168 1_655
Mo1 Zr0 3.337168 1_555
Mo1 Zr4 3.337170 1_555
Mo1 Zr5 3.337170 1_555
Mo2 Zr1 3.337163 1_555
Mo2 Zr2 3.337163 1_554
Mo2 Zr3 3.337168 1_655
Mo2 Zr0 3.337168 1_554
Mo2 Zr4 3.337170 1_554
Mo2 Zr5 3.337170 1_555
Mo3 Zr0 3.337163 1_564
Mo3 Zr3 3.337163 1_555
Mo3 Zr2 3.337168 1_454
Mo3 Zr1 3.337168 1_565
Mo3 Zr5 3.337170 1_555
Mo3 Zr4 3.337170 1_554
N0 Zr5 2.269074 1_555
N0 Zr4 2.269074 1_445
N0 Zr2 2.269074 1_455
N0 Zr3 2.269074 1_545
N0 Zr0 2.269074 1_555
N0 Zr1 2.269074 1_455
N1 Zr5 2.269074 1_555
N1 Zr4 2.269074 1_444
N1 Zr2 2.269074 1_454
N1 Zr3 2.269074 1_545
N1 Zr0 2.269074 1_554
N1 Zr1 2.269074 1_455
