# generated using pymatgen
data_YNb6SnSe12
_symmetry_space_group_name_H-M   'P 1'
_cell_length_a   6.09591213
_cell_length_b   6.09591090
_cell_length_c   14.69029011
_cell_angle_alpha   90.00000000
_cell_angle_beta   90.00000000
_cell_angle_gamma   120.00001209
_symmetry_Int_Tables_number   1
_chemical_formula_structural   YNb6SnSe12
_chemical_formula_sum   'Y1 Nb6 Sn1 Se12'
_cell_volume   472.75731827
_cell_formula_units_Z   1
loop_
 _symmetry_equiv_pos_site_id
 _symmetry_equiv_pos_as_xyz
  1  'x, y, z'
loop_
 _atom_site_type_symbol
 _atom_site_label
 _atom_site_symmetry_multiplicity
 _atom_site_fract_x
 _atom_site_fract_y
 _atom_site_fract_z
 _atom_site_occupancy
  Y  Y0  1  0.00000000  0.00000000  0.50000000  1
  Nb  Nb0  1  0.33333300  0.66666700  0.25615596  1
  Nb  Nb1  1  0.66666700  0.33333300  0.74384404  1
  Nb  Nb2  1  0.66666700  0.33333300  0.25615596  1
  Nb  Nb3  1  0.33333300  0.66666700  0.74384404  1
  Nb  Nb4  1  0.00000000  0.00000000  0.25743427  1
  Nb  Nb5  1  0.00000000  0.00000000  0.74256573  1
  Sn  Sn0  1  0.00000000  0.00000000  0.00000000  1
  Se  Se0  1  0.33512482  0.00000000  0.14395292  1
  Se  Se1  1  0.00000000  0.33512482  0.14395292  1
  Se  Se2  1  0.66487518  0.66487518  0.14395292  1
  Se  Se3  1  0.34000751  0.34000751  0.63008174  1
  Se  Se4  1  0.65999249  0.65999249  0.36991826  1
  Se  Se5  1  0.65999249  0.00000000  0.63008174  1
  Se  Se6  1  0.00000000  0.65999249  0.63008174  1
  Se  Se7  1  1.00000000  0.66487518  0.85604708  1
  Se  Se8  1  0.33512482  0.33512482  0.85604708  1
  Se  Se9  1  1.00000000  0.34000751  0.36991826  1
  Se  Se10  1  0.34000751  1.00000000  0.36991826  1
  Se  Se11  1  0.66487518  1.00000000  0.85604708  1
loop_
_geom_bond_atom_site_label_1
_geom_bond_atom_site_label_2
_geom_bond_distance
_geom_bond_site_symmetry_2
Nb0 Se0 2.612221 1_565
Nb0 Se1 2.612223 1_555
Nb0 Se2 2.612226 1_555
Nb0 Se10 2.615490 1_555
Nb0 Se9 2.615492 1_455
Nb0 Se4 2.615495 1_555
Nb1 Se11 2.612221 1_545
Nb1 Se7 2.612223 1_555
Nb1 Se8 2.612226 1_555
Nb1 Se5 2.615490 1_555
Nb1 Se6 2.615492 1_655
Nb1 Se3 2.615495 1_555
Nb2 Se1 2.612221 1_655
Nb2 Se0 2.612223 1_555
Nb2 Se2 2.612225 1_555
Nb2 Se9 2.615490 1_555
Nb2 Se10 2.615492 1_545
Nb2 Se4 2.615495 1_555
Nb3 Se7 2.612221 1_455
Nb3 Se11 2.612223 1_555
Nb3 Se8 2.612225 1_555
Nb3 Se6 2.615490 1_555
Nb3 Se5 2.615492 1_565
Nb3 Se3 2.615495 1_555
Nb4 Se2 2.636767 1_445
Nb4 Se1 2.636767 1_555
Nb4 Se0 2.636767 1_555
Nb4 Se4 2.650736 1_445
Nb4 Se9 2.650736 1_455
Nb4 Se10 2.650736 1_545
Nb5 Se8 2.636767 1_555
Nb5 Se7 2.636767 1_445
Nb5 Se11 2.636767 1_445
Nb5 Se3 2.650736 1_555
Nb5 Se6 2.650736 1_545
Nb5 Se5 2.650736 1_455
Se0 Sn0 2.940307 1_555
Se1 Sn0 2.940307 1_555
Se2 Sn0 2.940306 1_665
Se3 Y0 2.819146 1_555
Se4 Y0 2.819146 1_665
Se5 Y0 2.819147 1_655
Se6 Y0 2.819146 1_565
Se7 Sn0 2.940307 1_666
Se8 Sn0 2.940306 1_556
Se9 Y0 2.819146 1_655
Se10 Y0 2.819147 1_565
Se11 Sn0 2.940307 1_666
