# generated using pymatgen
data_SrCoNi11B6
_symmetry_space_group_name_H-M   'P 1'
_cell_length_a   6.01247336
_cell_length_b   6.01387822
_cell_length_c   6.01387982
_cell_angle_alpha   104.39833159
_cell_angle_beta   104.61143460
_cell_angle_gamma   104.61143260
_symmetry_Int_Tables_number   1
_chemical_formula_structural   SrCoNi11B6
_chemical_formula_sum   'Sr1 Co1 Ni11 B6'
_cell_volume   191.95527878
_cell_formula_units_Z   1
loop_
 _symmetry_equiv_pos_site_id
 _symmetry_equiv_pos_as_xyz
  1  'x, y, z'
loop_
 _atom_site_type_symbol
 _atom_site_label
 _atom_site_symmetry_multiplicity
 _atom_site_fract_x
 _atom_site_fract_y
 _atom_site_fract_z
 _atom_site_occupancy
  Sr  Sr0  1  0.00000000  0.00004155  0.99995845  1
  Co  Co0  1  0.50000000  0.86553931  0.13446069  1
  Ni  Ni0  1  0.45796611  0.45882527  0.18871302  1
  Ni  Ni1  1  0.19023172  0.46310209  0.46151775  1
  Ni  Ni2  1  0.54203389  0.81128698  0.54117473  1
  Ni  Ni3  1  0.80976828  0.53848225  0.53689791  1
  Ni  Ni4  1  0.54044495  0.53830976  0.81377265  1
  Ni  Ni5  1  0.13190570  0.49982658  0.86613012  1
  Ni  Ni6  1  0.86809430  0.13386988  0.50017342  1
  Ni  Ni7  1  0.50000000  0.13256296  0.86743704  1
  Ni  Ni8  1  0.86876830  0.49932697  0.13355362  1
  Ni  Ni9  1  0.13123170  0.86644638  0.50067303  1
  Ni  Ni10  1  0.45955505  0.18622735  0.46169024  1
  B  B0  1  0.76328272  0.76719821  0.33287743  1
  B  B1  1  0.34912667  0.76959716  0.77348756  1
  B  B2  1  0.76758100  0.34260527  0.76688199  1
  B  B3  1  0.65087333  0.22651244  0.23040284  1
  B  B4  1  0.23241900  0.23311801  0.65739473  1
  B  B5  1  0.23671728  0.66712257  0.23280179  1
loop_
_geom_bond_atom_site_label_1
_geom_bond_atom_site_label_2
_geom_bond_distance
_geom_bond_site_symmetry_2
Co0 Sr0 3.266715 1_564
Co0 Sr0 3.266715 1_664
Ni0 Sr0 3.084695 1_554
Ni1 Sr0 3.116902 1_554
Ni2 Sr0 3.084695 1_665
Ni3 Sr0 3.116903 1_665
Ni4 Sr0 3.101731 1_665
Ni5 Sr0 3.260837 1_555
Ni5 Sr0 3.263100 1_565
Ni6 Sr0 3.260838 1_655
Ni6 Sr0 3.263101 1_654
Ni7 Sr0 3.259394 1_655
Ni7 Sr0 3.259395 1_555
Ni8 Sr0 3.255657 1_654
Ni8 Sr0 3.264948 1_664
Ni9 Sr0 3.255658 1_565
Ni9 Sr0 3.264948 1_564
Ni10 Sr0 3.101731 1_554
B0 Ni6 2.036562 1_565
B0 Co0 2.037093 1_555
B0 Ni9 2.043696 1_655
B0 Ni0 2.059261 1_555
B0 Ni2 2.064598 1_555
B0 Ni3 2.082233 1_555
B0 Ni8 2.091168 1_555
B0 Sr0 3.133922 1_664
B1 Co0 1.996962 1_556
B1 Ni7 2.008958 1_565
B1 Ni4 2.037350 1_555
B1 Ni2 2.050619 1_555
B1 Ni1 2.077871 1_555
B1 Ni5 2.096623 1_555
B1 Ni9 2.126770 1_555
B1 Sr0 3.186420 1_565
B2 Ni5 2.015754 1_655
B2 Ni8 2.030085 1_556
B2 Ni4 2.042026 1_555
B2 Ni3 2.049744 1_555
B2 Ni10 2.056910 1_555
B2 Ni6 2.093834 1_555
B2 Ni7 2.096435 1_555
B2 Sr0 3.172066 1_655
B3 Co0 1.996961 1_545
B3 Ni7 2.008959 1_554
B3 Ni10 2.037350 1_555
B3 Ni0 2.050618 1_555
B3 Ni3 2.077871 1_555
B3 Ni6 2.096623 1_555
B3 Ni8 2.126770 1_555
B3 Sr0 3.186420 1_654
B4 Ni6 2.015754 1_455
B4 Ni9 2.030084 1_545
B4 Ni10 2.042026 1_555
B4 Ni1 2.049744 1_555
B4 Ni4 2.056909 1_555
B4 Ni5 2.093834 1_555
B4 Ni7 2.096435 1_555
B4 Sr0 3.172067 1_555
B5 Ni5 2.036563 1_554
B5 Co0 2.037093 1_555
B5 Ni8 2.043696 1_455
B5 Ni2 2.059262 1_555
B5 Ni0 2.064598 1_555
B5 Ni1 2.082234 1_555
B5 Ni9 2.091168 1_555
B5 Sr0 3.133921 1_564
