# generated using pymatgen
data_Hf7Sc6Al9Os7
_symmetry_space_group_name_H-M   'P 1'
_cell_length_a   9.10522966
_cell_length_b   9.10523028
_cell_length_c   9.10523066
_cell_angle_alpha   59.48184684
_cell_angle_beta   59.48184716
_cell_angle_gamma   59.48184441
_symmetry_Int_Tables_number   1
_chemical_formula_structural   Hf7Sc6Al9Os7
_chemical_formula_sum   'Hf7 Sc6 Al9 Os7'
_cell_volume   527.48366125
_cell_formula_units_Z   1
loop_
 _symmetry_equiv_pos_site_id
 _symmetry_equiv_pos_as_xyz
  1  'x, y, z'
loop_
 _atom_site_type_symbol
 _atom_site_label
 _atom_site_symmetry_multiplicity
 _atom_site_fract_x
 _atom_site_fract_y
 _atom_site_fract_z
 _atom_site_occupancy
  Hf  Hf0  1  0.88013185  0.88013185  0.36481127  1
  Hf  Hf1  1  0.88013185  0.36481127  0.88013185  1
  Hf  Hf2  1  0.36481127  0.88013185  0.88013185  1
  Hf  Hf3  1  0.87677532  0.87677532  0.87677532  1
  Hf  Hf4  1  0.12387444  0.12387444  0.62919585  1
  Hf  Hf5  1  0.12387444  0.62919585  0.12387444  1
  Hf  Hf6  1  0.62919585  0.12387444  0.12387444  1
  Sc  Sc0  1  0.69976595  0.69976595  0.30167917  1
  Sc  Sc1  1  0.29414157  0.71676472  0.29414157  1
  Sc  Sc2  1  0.71676472  0.29414157  0.29414157  1
  Sc  Sc3  1  0.29414157  0.29414157  0.71676472  1
  Sc  Sc4  1  0.69976595  0.30167917  0.69976595  1
  Sc  Sc5  1  0.30167917  0.69976595  0.69976595  1
  Al  Al0  1  0.11978932  0.11978932  0.11978932  1
  Al  Al1  1  0.66384096  0.66384096  0.00736250  1
  Al  Al2  1  0.66384096  0.00736250  0.66384096  1
  Al  Al3  1  0.00736250  0.66384096  0.66384096  1
  Al  Al4  1  0.66476968  0.66476968  0.66476968  1
  Al  Al5  1  0.33049582  0.33049582  0.99718332  1
  Al  Al6  1  0.33049582  0.99718332  0.33049582  1
  Al  Al7  1  0.99718332  0.33049582  0.33049582  1
  Al  Al8  1  0.33946019  0.33946019  0.33946019  1
  Os  Os0  1  0.99843739  0.99843739  0.99843739  1
  Os  Os1  1  0.00005045  0.00005045  0.49918259  1
  Os  Os2  1  0.50000509  0.99997341  0.50000509  1
  Os  Os3  1  0.99997341  0.50000509  0.50000509  1
  Os  Os4  1  0.50000509  0.50000509  0.99997341  1
  Os  Os5  1  0.00005045  0.49918259  0.00005045  1
  Os  Os6  1  0.49918259  0.00005045  0.00005045  1
loop_
_geom_bond_atom_site_label_1
_geom_bond_atom_site_label_2
_geom_bond_distance
_geom_bond_site_symmetry_2
Hf0 Os0 2.707098 1_554
Hf0 Os1 2.793873 1_665
Hf0 Os2 2.808345 1_555
Hf0 Os3 2.808345 1_555
Hf0 Sc1 3.106542 1_655
Hf0 Sc2 3.106542 1_565
Hf0 Sc0 3.222004 1_555
Hf1 Os0 2.707098 1_545
Hf1 Os5 2.793873 1_656
Hf1 Os4 2.808345 1_555
Hf1 Os3 2.808345 1_555
Hf1 Sc3 3.106542 1_655
Hf1 Sc2 3.106543 1_556
Hf1 Sc4 3.222004 1_555
Hf2 Os0 2.707098 1_455
Hf2 Os6 2.793873 1_566
Hf2 Os4 2.808345 1_555
Hf2 Os2 2.808345 1_555
Hf2 Sc3 3.106542 1_565
Hf2 Sc1 3.106543 1_556
Hf2 Sc5 3.222004 1_555
Hf3 Os0 2.724027 1_555
Hf3 Os6 2.789441 1_566
Hf3 Os5 2.789441 1_656
Hf3 Os1 2.789442 1_665
Hf3 Sc5 3.183652 1_655
Hf3 Sc4 3.183652 1_565
Hf3 Sc0 3.183652 1_556
Hf4 Os0 2.727137 1_445
Hf4 Os2 2.778067 1_545
Hf4 Os3 2.778067 1_455
Hf4 Os1 2.818810 1_555
Hf4 Sc4 3.183223 1_455
Hf4 Sc5 3.183224 1_545
Hf4 Sc3 3.224074 1_555
Hf5 Os0 2.727137 1_454
Hf5 Os4 2.778067 1_554
Hf5 Os3 2.778067 1_455
Hf5 Os5 2.818810 1_555
Hf5 Sc0 3.183223 1_455
Hf5 Sc5 3.183224 1_554
Hf5 Sc1 3.224074 1_555
Hf6 Os0 2.727137 1_544
Hf6 Os4 2.778067 1_554
Hf6 Os2 2.778067 1_545
Hf6 Os6 2.818810 1_555
Hf6 Sc0 3.183224 1_545
Hf6 Sc4 3.183224 1_554
Hf6 Sc2 3.224074 1_555
Al0 Os0 2.717083 1_444
Al0 Os6 2.804939 1_555
Al0 Os5 2.804940 1_555
Al0 Os1 2.804940 1_555
Al0 Al6 2.827648 1_545
Al0 Al5 2.827648 1_554
Al0 Al7 2.827648 1_455
Al0 Sc2 3.038581 1_455
Al0 Sc1 3.038581 1_545
Al0 Sc3 3.038581 1_554
Al0 Hf1 3.073777 1_454
Al0 Hf0 3.073777 1_445
Al0 Hf2 3.073777 1_544
Al1 Os5 2.618511 1_655
Al1 Os6 2.618511 1_565
Al1 Os4 2.630443 1_554
Al1 Hf3 2.840229 1_554
Al1 Hf2 2.841527 1_554
Al1 Hf1 2.841527 1_554
Al1 Sc1 3.014167 1_555
Al1 Sc2 3.014167 1_555
Al1 Sc0 3.047075 1_555
Al2 Os1 2.618511 1_655
Al2 Os6 2.618512 1_556
Al2 Os2 2.630443 1_545
Al2 Hf3 2.840229 1_545
Al2 Hf2 2.841527 1_545
Al2 Hf0 2.841528 1_545
Al2 Sc3 3.014166 1_555
Al2 Sc2 3.014167 1_555
Al2 Sc4 3.047075 1_555
Al3 Os1 2.618511 1_565
Al3 Os5 2.618512 1_556
Al3 Os3 2.630443 1_455
Al3 Hf3 2.840229 1_455
Al3 Hf1 2.841527 1_455
Al3 Hf0 2.841528 1_455
Al3 Sc3 3.014166 1_555
Al3 Sc1 3.014167 1_555
Al3 Sc5 3.047074 1_555
Al4 Os3 2.608020 1_555
Al4 Os2 2.608020 1_555
Al4 Os4 2.608020 1_555
Al4 Hf1 2.859454 1_555
Al4 Hf2 2.859454 1_555
Al4 Hf0 2.859454 1_555
Al4 Sc5 3.015982 1_555
Al4 Sc4 3.015982 1_555
Al4 Sc0 3.015982 1_555
Al5 Os5 2.584570 1_556
Al5 Os6 2.584570 1_556
Al5 Os4 2.695171 1_555
Al5 Hf6 2.837715 1_556
Al5 Hf5 2.837715 1_556
Al5 Sc3 2.926839 1_555
Al5 Sc4 3.047218 1_555
Al5 Sc5 3.047218 1_555
Al6 Os1 2.584570 1_565
Al6 Os6 2.584570 1_565
Al6 Os2 2.695172 1_555
Al6 Hf6 2.837715 1_565
Al6 Hf4 2.837715 1_565
Al6 Sc1 2.926839 1_555
Al6 Sc0 3.047218 1_555
Al6 Sc5 3.047218 1_555
Al7 Os1 2.584570 1_655
Al7 Os5 2.584570 1_655
Al7 Os3 2.695172 1_555
Al7 Hf5 2.837715 1_655
Al7 Hf4 2.837715 1_655
Al7 Sc2 2.926839 1_555
Al7 Sc0 3.047218 1_555
Al7 Sc4 3.047218 1_555
Al8 Os3 2.611618 1_455
Al8 Os2 2.611618 1_545
Al8 Os4 2.611618 1_554
Al8 Hf5 2.839125 1_555
Al8 Hf6 2.839125 1_555
Al8 Hf4 2.839125 1_555
Al8 Sc2 3.071852 1_555
Al8 Sc1 3.071852 1_555
Al8 Sc3 3.071852 1_555
Os1 Sc2 3.179260 1_455
Os1 Sc1 3.179260 1_545
Os1 Sc5 3.278752 1_545
Os1 Sc4 3.278752 1_455
Os2 Sc5 3.266328 1_555
Os2 Sc0 3.266328 1_555
Os2 Sc2 3.331006 1_565
Os2 Sc3 3.331006 1_565
Os3 Sc0 3.266328 1_555
Os3 Sc4 3.266328 1_555
Os3 Sc3 3.331006 1_655
Os3 Sc1 3.331006 1_655
Os4 Sc5 3.266328 1_555
Os4 Sc4 3.266328 1_555
Os4 Sc2 3.331006 1_556
Os4 Sc1 3.331006 1_556
Os5 Sc2 3.179260 1_455
Os5 Sc3 3.179260 1_554
Os5 Sc5 3.278752 1_554
Os5 Sc0 3.278752 1_455
Os6 Sc3 3.179260 1_554
Os6 Sc1 3.179260 1_545
Os6 Sc0 3.278752 1_545
Os6 Sc4 3.278752 1_554
