# generated using pymatgen
data_Sr2Mg(Si3Pd10)2
_symmetry_space_group_name_H-M   'P 1'
_cell_length_a   8.67663065
_cell_length_b   8.67663031
_cell_length_c   8.67662966
_cell_angle_alpha   60.00000250
_cell_angle_beta   60.00000379
_cell_angle_gamma   59.99999910
_symmetry_Int_Tables_number   1
_chemical_formula_structural   Sr2Mg(Si3Pd10)2
_chemical_formula_sum   'Sr2 Mg1 Si6 Pd20'
_cell_volume   461.88970823
_cell_formula_units_Z   1
loop_
 _symmetry_equiv_pos_site_id
 _symmetry_equiv_pos_as_xyz
  1  'x, y, z'
loop_
 _atom_site_type_symbol
 _atom_site_label
 _atom_site_symmetry_multiplicity
 _atom_site_fract_x
 _atom_site_fract_y
 _atom_site_fract_z
 _atom_site_occupancy
  Sr  Sr0  1  0.25000000  0.25000000  0.25000000  1
  Sr  Sr1  1  0.75000000  0.75000000  0.75000000  1
  Mg  Mg0  1  0.00000000  0.00000000  0.00000000  1
  Si  Si0  1  0.73356047  0.26643953  0.26643953  1
  Si  Si1  1  0.26643953  0.73356047  0.73356047  1
  Si  Si2  1  0.26643953  0.73356047  0.26643953  1
  Si  Si3  1  0.73356047  0.26643953  0.73356047  1
  Si  Si4  1  0.26643953  0.26643953  0.73356047  1
  Si  Si5  1  0.73356047  0.73356047  0.26643953  1
  Pd  Pd0  1  0.38660180  0.38660180  0.38660180  1
  Pd  Pd1  1  0.61339820  0.61339820  0.61339820  1
  Pd  Pd2  1  0.38660180  0.38660180  0.84019559  1
  Pd  Pd3  1  0.38660180  0.84019559  0.38660180  1
  Pd  Pd4  1  0.61339820  0.61339820  0.15980441  1
  Pd  Pd5  1  0.61339820  0.15980441  0.61339820  1
  Pd  Pd6  1  0.84019559  0.38660180  0.38660180  1
  Pd  Pd7  1  0.15980441  0.61339820  0.61339820  1
  Pd  Pd8  1  0.34262851  1.00000000  0.00000000  1
  Pd  Pd9  1  0.65737149  0.00000000  1.00000000  1
  Pd  Pd10  1  1.00000000  0.34262851  0.65737149  1
  Pd  Pd11  1  0.00000000  0.65737149  0.34262851  1
  Pd  Pd12  1  1.00000000  0.34262851  0.00000000  1
  Pd  Pd13  1  0.65737149  0.00000000  0.34262851  1
  Pd  Pd14  1  0.00000000  0.65737149  1.00000000  1
  Pd  Pd15  1  0.34262851  1.00000000  0.65737149  1
  Pd  Pd16  1  0.00000000  0.00000000  0.34262851  1
  Pd  Pd17  1  0.00000000  0.00000000  0.65737149  1
  Pd  Pd18  1  0.65737149  0.34262851  1.00000000  1
  Pd  Pd19  1  0.34262851  0.65737149  0.00000000  1
loop_
_geom_bond_atom_site_label_1
_geom_bond_atom_site_label_2
_geom_bond_distance
_geom_bond_site_symmetry_2
Mg0 Pd16 2.972861 1_555
Mg0 Pd17 2.972861 1_554
Mg0 Pd10 2.972861 1_454
Mg0 Pd11 2.972861 1_545
Mg0 Pd12 2.972861 1_455
Mg0 Pd14 2.972861 1_544
Mg0 Pd19 2.972861 1_545
Mg0 Pd18 2.972861 1_454
Mg0 Pd8 2.972861 1_545
Mg0 Pd9 2.972861 1_454
Mg0 Pd15 2.972861 1_544
Mg0 Pd13 2.972861 1_455
Pd0 Si4 2.458941 1_555
Pd0 Si2 2.458942 1_555
Pd0 Si0 2.458942 1_555
Pd0 Sr0 2.903241 1_555
Pd1 Si5 2.458941 1_555
Pd1 Si3 2.458942 1_555
Pd1 Si1 2.458942 1_555
Pd1 Sr1 2.903241 1_555
Pd2 Si1 2.458941 1_555
Pd2 Si3 2.458941 1_555
Pd2 Si4 2.458948 1_555
Pd2 Sr0 2.903234 1_556
Pd3 Si1 2.458941 1_555
Pd3 Si5 2.458941 1_555
Pd3 Si2 2.458948 1_555
Pd3 Sr0 2.903234 1_565
Pd4 Si0 2.458941 1_555
Pd4 Si2 2.458941 1_555
Pd4 Si5 2.458948 1_555
Pd4 Sr1 2.903234 1_554
Pd5 Si0 2.458941 1_555
Pd5 Si4 2.458941 1_555
Pd5 Si3 2.458948 1_555
Pd5 Sr1 2.903234 1_545
Pd6 Si3 2.458941 1_555
Pd6 Si5 2.458941 1_555
Pd6 Si0 2.458948 1_555
Pd6 Sr0 2.903234 1_655
Pd7 Si2 2.458941 1_555
Pd7 Si4 2.458941 1_555
Pd7 Si1 2.458948 1_555
Pd7 Sr1 2.903234 1_455
Pd8 Si4 2.404457 1_564
Pd8 Si2 2.404457 1_555
Pd8 Sr0 3.357820 1_565
Pd8 Sr1 3.357820 1_554
Pd9 Si5 2.404457 1_546
Pd9 Si3 2.404457 1_555
Pd9 Sr1 3.357820 1_545
Pd9 Sr0 3.357820 1_556
Pd10 Si4 2.404457 1_655
Pd10 Si3 2.404457 1_555
Pd10 Sr0 3.357820 1_655
Pd10 Sr1 3.357820 1_555
Pd11 Si5 2.404457 1_455
Pd11 Si2 2.404457 1_555
Pd11 Sr1 3.357820 1_455
Pd11 Sr0 3.357820 1_555
Pd12 Si4 2.404457 1_654
Pd12 Si0 2.404457 1_555
Pd12 Sr0 3.357820 1_655
Pd12 Sr1 3.357820 1_554
Pd13 Si5 2.404457 1_545
Pd13 Si0 2.404457 1_555
Pd13 Sr1 3.357820 1_545
Pd13 Sr0 3.357820 1_555
Pd14 Si5 2.404457 1_456
Pd14 Si1 2.404457 1_555
Pd14 Sr1 3.357820 1_455
Pd14 Sr0 3.357820 1_556
Pd15 Si4 2.404457 1_565
Pd15 Si1 2.404457 1_555
Pd15 Sr0 3.357820 1_565
Pd15 Sr1 3.357820 1_555
Pd16 Si0 2.404457 1_455
Pd16 Si2 2.404457 1_545
Pd16 Sr0 3.357820 1_555
Pd16 Sr1 3.357820 1_445
Pd17 Si1 2.404457 1_545
Pd17 Si3 2.404457 1_455
Pd17 Sr0 3.357820 1_555
Pd17 Sr1 3.357820 1_445
Pd18 Si3 2.404457 1_555
Pd18 Si0 2.404457 1_556
Pd18 Sr1 3.357820 1_555
Pd18 Sr0 3.357820 1_556
Pd19 Si2 2.404457 1_555
Pd19 Si1 2.404457 1_554
Pd19 Sr0 3.357820 1_555
Pd19 Sr1 3.357820 1_554
