# generated using pymatgen
data_BaUS3
_symmetry_space_group_name_H-M   'P 1'
_cell_length_a   7.29081320
_cell_length_b   7.52588778
_cell_length_c   10.41371308
_cell_angle_alpha   90.00000000
_cell_angle_beta   90.00000000
_cell_angle_gamma   90.00000000
_symmetry_Int_Tables_number   1
_chemical_formula_structural   BaUS3
_chemical_formula_sum   'Ba4 U4 S12'
_cell_volume   571.39879100
_cell_formula_units_Z   4
loop_
 _symmetry_equiv_pos_site_id
 _symmetry_equiv_pos_as_xyz
  1  'x, y, z'
loop_
 _atom_site_type_symbol
 _atom_site_label
 _atom_site_symmetry_multiplicity
 _atom_site_fract_x
 _atom_site_fract_y
 _atom_site_fract_z
 _atom_site_occupancy
  Ba  Ba0  1  0.98304555  0.05881894  0.25000000  1
  Ba  Ba1  1  0.48304555  0.44118106  0.75000000  1
  Ba  Ba2  1  0.51695445  0.55881894  0.25000000  1
  Ba  Ba3  1  0.01695445  0.94118106  0.75000000  1
  U  U0  1  0.50000000  -0.00000000  0.00000000  1
  U  U1  1  0.00000000  0.50000000  0.00000000  1
  U  U2  1  0.00000000  0.50000000  0.50000000  1
  U  U3  1  0.50000000  -0.00000000  0.50000000  1
  S  S0  1  0.70725851  0.29681471  0.45442355  1
  S  S1  1  0.20725851  0.20318529  0.54557645  1
  S  S2  1  0.79274149  0.79681471  0.04557645  1
  S  S3  1  0.29274149  0.70318529  0.95442355  1
  S  S4  1  0.29274149  0.70318529  0.54557645  1
  S  S5  1  0.79274149  0.79681471  0.45442355  1
  S  S6  1  0.20725851  0.20318529  0.95442355  1
  S  S7  1  0.70725851  0.29681471  0.04557645  1
  S  S8  1  0.08691578  0.48031470  0.25000000  1
  S  S9  1  0.58691578  0.01968530  0.75000000  1
  S  S10  1  0.41308422  0.98031470  0.25000000  1
  S  S11  1  0.91308422  0.51968530  0.75000000  1
loop_
_geom_bond_atom_site_label_1
_geom_bond_atom_site_label_2
_geom_bond_distance
_geom_bond_site_symmetry_2
Ba0 S10 3.190512 1_645
Ba0 S5 3.216357 1_545
Ba0 S2 3.216357 1_545
Ba0 S8 3.261274 1_655
Ba0 S0 3.432627 1_555
Ba0 S7 3.432627 1_555
Ba0 S1 3.650624 1_655
Ba0 S6 3.650624 1_654
Ba1 S11 3.190512 1_555
Ba1 S4 3.216357 1_555
Ba1 S3 3.216357 1_555
Ba1 S9 3.261274 1_555
Ba1 S6 3.432627 1_555
Ba1 S1 3.432627 1_555
Ba1 S0 3.650624 1_555
Ba1 S7 3.650624 1_556
Ba2 S8 3.190512 1_555
Ba2 S0 3.216357 1_555
Ba2 S7 3.216357 1_555
Ba2 S10 3.261274 1_555
Ba2 S5 3.432627 1_555
Ba2 S2 3.432627 1_555
Ba2 S4 3.650624 1_555
Ba2 S3 3.650624 1_554
Ba3 S9 3.190512 1_465
Ba3 S1 3.216357 1_565
Ba3 S6 3.216357 1_565
Ba3 S11 3.261274 1_455
Ba3 S3 3.432627 1_555
Ba3 S4 3.432627 1_555
Ba3 S5 3.650624 1_455
Ba3 S2 3.650624 1_456
S0 U2 2.668127 1_655
S0 U3 2.738334 1_555
S1 U3 2.668127 1_555
S1 U2 2.738334 1_555
S2 U0 2.668127 1_565
S2 U1 2.738334 1_655
S3 U1 2.668127 1_556
S3 U0 2.738334 1_566
S4 U2 2.668127 1_555
S4 U3 2.738334 1_565
S5 U3 2.668127 1_565
S5 U2 2.738334 1_655
S6 U0 2.668127 1_556
S6 U1 2.738334 1_556
S7 U1 2.668127 1_655
S7 U0 2.738334 1_555
S8 U2 2.683532 1_555
S8 U1 2.683532 1_555
S9 U3 2.683532 1_555
S9 U0 2.683532 1_556
S10 U3 2.683532 1_565
S10 U0 2.683532 1_565
S11 U1 2.683532 1_656
S11 U2 2.683532 1_655
