# generated using pymatgen
data_Ti16Ir3Pd5O4
_symmetry_space_group_name_H-M   'P 1'
_cell_length_a   8.24346930
_cell_length_b   8.24351993
_cell_length_c   8.24352059
_cell_angle_alpha   60.00000129
_cell_angle_beta   59.99979813
_cell_angle_gamma   59.99980935
_symmetry_Int_Tables_number   1
_chemical_formula_structural   Ti16Ir3Pd5O4
_chemical_formula_sum   'Ti16 Ir3 Pd5 O4'
_cell_volume   396.11306084
_cell_formula_units_Z   1
loop_
 _symmetry_equiv_pos_site_id
 _symmetry_equiv_pos_as_xyz
  1  'x, y, z'
loop_
 _atom_site_type_symbol
 _atom_site_label
 _atom_site_symmetry_multiplicity
 _atom_site_fract_x
 _atom_site_fract_y
 _atom_site_fract_z
 _atom_site_occupancy
  Ti  Ti0  1  0.11725837  0.62758021  0.62758021  1
  Ti  Ti1  1  0.62765612  0.11966825  0.62633681  1
  Ti  Ti2  1  0.62765612  0.62633681  0.11966825  1
  Ti  Ti3  1  0.62765612  0.62633681  0.62633681  1
  Ti  Ti4  1  0.81872733  0.81863928  0.18131720  1
  Ti  Ti5  1  0.17683629  0.18417116  0.81949678  1
  Ti  Ti6  1  0.81872733  0.18131720  0.81863928  1
  Ti  Ti7  1  0.17683629  0.81949678  0.18417116  1
  Ti  Ti8  1  0.17683629  0.81949678  0.81949678  1
  Ti  Ti9  1  0.81872733  0.18131720  0.18131720  1
  Ti  Ti10  1  0.42935748  0.42945969  0.07059091  1
  Ti  Ti11  1  0.06845706  0.06671491  0.43241401  1
  Ti  Ti12  1  0.42935748  0.07059091  0.42945969  1
  Ti  Ti13  1  0.06845706  0.43241401  0.06671491  1
  Ti  Ti14  1  0.06845706  0.43241401  0.43241401  1
  Ti  Ti15  1  0.42935748  0.07059091  0.07059091  1
  Ir  Ir0  1  0.84506449  0.46862509  0.84315571  1
  Ir  Ir1  1  0.84506449  0.84315571  0.46862509  1
  Ir  Ir2  1  0.84506449  0.84315571  0.84315571  1
  Pd  Pd0  1  0.77121975  0.40959308  0.40959308  1
  Pd  Pd1  1  0.41122518  0.76435268  0.41221157  1
  Pd  Pd2  1  0.41122518  0.41221157  0.76435268  1
  Pd  Pd3  1  0.41122518  0.41221157  0.41221157  1
  Pd  Pd4  1  0.47633626  0.84122058  0.84122058  1
  O  O0  1  0.62268811  0.12577130  0.12577130  1
  O  O1  1  0.12684321  0.62185580  0.12565099  1
  O  O2  1  0.12684321  0.12565099  0.62185580  1
  O  O3  1  0.12684321  0.12565099  0.12565099  1
loop_
_geom_bond_atom_site_label_1
_geom_bond_atom_site_label_2
_geom_bond_distance
_geom_bond_site_symmetry_2
Ir0 Ti5 2.554849 1_655
Ir0 Ti0 2.556150 1_655
Ir0 Ti2 2.578039 1_556
Ir0 Ti3 2.578058 1_555
Ir0 Ti6 2.595031 1_555
Ir0 Ti9 2.595032 1_556
Ir1 Ti7 2.554849 1_655
Ir1 Ti0 2.556151 1_655
Ir1 Ti1 2.578039 1_565
Ir1 Ti3 2.578058 1_555
Ir1 Ti9 2.595032 1_565
Ir1 Ti4 2.595032 1_555
Ir2 Ti8 2.554849 1_655
Ir2 Ti0 2.556161 1_655
Ir2 Ti2 2.578053 1_556
Ir2 Ti1 2.578054 1_565
Ir2 Ti6 2.595031 1_565
Ir2 Ti4 2.595032 1_556
Pd0 Ti3 2.597831 1_555
Pd0 Ti1 2.597837 1_555
Pd0 Ti2 2.597838 1_555
Pd0 Ti13 2.651768 1_655
Pd0 Ti11 2.651768 1_655
Pd0 Ti14 2.651772 1_655
Pd1 Ti3 2.589299 1_555
Pd1 Ti2 2.589319 1_555
Pd1 Ti0 2.593037 1_555
Pd1 Ti11 2.669465 1_565
Pd1 Ti12 2.678265 1_565
Pd1 Ti15 2.678274 1_565
Pd2 Ti3 2.589299 1_555
Pd2 Ti1 2.589319 1_555
Pd2 Ti0 2.593038 1_555
Pd2 Ti13 2.669465 1_556
Pd2 Ti10 2.678265 1_556
Pd2 Ti15 2.678274 1_556
Pd3 Ti2 2.589305 1_555
Pd3 Ti1 2.589305 1_555
Pd3 Ti0 2.593029 1_555
Pd3 Ti14 2.669468 1_555
Pd3 Ti12 2.678282 1_555
Pd3 Ti10 2.678282 1_555
Pd4 Ti1 2.559346 1_565
Pd4 Ti3 2.559346 1_555
Pd4 Ti2 2.559346 1_556
Pd4 Ti8 2.660084 1_555
Pd4 Ti7 2.660098 1_556
Pd4 Ti5 2.660098 1_565
O0 Ti12 2.147211 1_555
O0 Ti10 2.147211 1_555
O0 Ti15 2.147227 1_555
O0 Ti9 2.172684 1_555
O0 Ti6 2.172690 1_554
O0 Ti4 2.172690 1_545
O1 Ti10 2.138490 1_555
O1 Ti14 2.156543 1_555
O1 Ti13 2.156549 1_555
O1 Ti7 2.171007 1_555
O1 Ti8 2.171008 1_554
O1 Ti4 2.179895 1_455
O2 Ti12 2.138490 1_555
O2 Ti14 2.156543 1_555
O2 Ti11 2.156549 1_555
O2 Ti5 2.171008 1_555
O2 Ti8 2.171008 1_545
O2 Ti6 2.179895 1_455
O3 Ti15 2.138485 1_555
O3 Ti13 2.156541 1_555
O3 Ti11 2.156541 1_555
O3 Ti7 2.171008 1_545
O3 Ti5 2.171008 1_554
O3 Ti9 2.179895 1_455
