# generated using pymatgen
data_Ti8Al14Co7Si
_symmetry_space_group_name_H-M   'P 1'
_cell_length_a   8.33832698
_cell_length_b   8.33832760
_cell_length_c   8.33832657
_cell_angle_alpha   120.12214796
_cell_angle_beta   119.87629763
_cell_angle_gamma   90.00147187
_symmetry_Int_Tables_number   1
_chemical_formula_structural   Ti8Al14Co7Si
_chemical_formula_sum   'Ti8 Al14 Co7 Si1'
_cell_volume   409.94387737
_cell_formula_units_Z   1
loop_
 _symmetry_equiv_pos_site_id
 _symmetry_equiv_pos_as_xyz
  1  'x, y, z'
loop_
 _atom_site_type_symbol
 _atom_site_label
 _atom_site_symmetry_multiplicity
 _atom_site_fract_x
 _atom_site_fract_y
 _atom_site_fract_z
 _atom_site_occupancy
  Ti  Ti0  1  0.79595806  0.29249651  0.08306283  1
  Ti  Ti1  1  0.20943368  0.29249651  0.49653844  1
  Ti  Ti2  1  0.20532317  0.70532317  0.50000000  1
  Ti  Ti3  1  0.20943368  0.71289524  0.91693717  1
  Ti  Ti4  1  0.79595806  0.71289524  0.50346156  1
  Ti  Ti5  1  0.78911253  0.28911253  0.50000000  1
  Ti  Ti6  1  0.38028372  0.12043578  0.74015206  1
  Ti  Ti7  1  0.38028372  0.64013167  0.25984794  1
  Al  Al0  1  0.16015361  0.33735408  0.17720046  1
  Al  Al1  1  0.16015361  0.98295215  0.82279954  1
  Al  Al2  1  0.15612825  0.34029190  0.81583635  1
  Al  Al3  1  0.52445555  0.34029190  0.18416365  1
  Al  Al4  1  0.83924895  0.65937944  0.82013150  1
  Al  Al5  1  0.83924895  0.01911545  0.17986850  1
  Al  Al6  1  0.83858588  0.66023253  0.17835335  1
  Al  Al7  1  0.48187918  0.66023253  0.82164665  1
  Al  Al8  1  0.38082087  0.11917995  0.26164092  1
  Al  Al9  1  0.85754003  0.11917995  0.73835908  1
  Al  Al10  1  0.62005912  0.88035243  0.26029331  1
  Al  Al11  1  0.62005912  0.35976382  0.73970669  1
  Al  Al12  1  0.62103478  0.87994962  0.74108615  1
  Al  Al13  1  0.13886147  0.87994962  0.25891385  1
  Co  Co0  1  0.00366446  0.00065046  0.50261096  1
  Co  Co1  1  0.49803950  0.00065046  0.99698600  1
  Co  Co2  1  0.49732774  0.49732774  0.00000000  1
  Co  Co3  1  0.49803950  0.50105350  0.49738904  1
  Co  Co4  1  0.00366446  0.50105350  0.00301400  1
  Co  Co5  1  0.00019007  0.00019007  1.00000000  1
  Co  Co6  1  0.49778441  0.99778441  0.50000000  1
  Si  Si0  1  0.99727385  0.49727385  0.50000000  1
loop_
_geom_bond_atom_site_label_1
_geom_bond_atom_site_label_2
_geom_bond_distance
_geom_bond_site_symmetry_2
Al0 Co5 2.394414 1_554
Al0 Co4 2.403576 1_555
Al0 Co3 2.403576 1_555
Al0 Al9 2.680661 1_454
Al0 Al8 2.680663 1_555
Al1 Co5 2.394412 1_565
Al1 Co1 2.403574 1_565
Al1 Co0 2.403581 1_565
Al1 Al8 2.680661 1_566
Al1 Al9 2.680661 1_465
Al2 Co4 2.392900 1_556
Al2 Co0 2.392900 1_555
Al2 Co2 2.407488 1_556
Al2 Al9 2.686484 1_455
Al3 Co3 2.392900 1_555
Al3 Co1 2.392900 1_554
Al3 Co2 2.407487 1_555
Al3 Al8 2.686490 1_555
Al4 Co5 2.417203 1_665
Al4 Co4 2.426046 1_656
Al4 Co3 2.426054 1_555
Al5 Co5 2.417199 1_654
Al5 Co0 2.426043 1_655
Al5 Co1 2.426058 1_554
Al6 Co4 2.418938 1_655
Al6 Co0 2.418938 1_665
Al6 Co2 2.431070 1_555
Al7 Co3 2.418938 1_555
Al7 Co1 2.418938 1_565
Al7 Co2 2.431069 1_556
Al8 Co6 2.452385 1_545
Al8 Co5 2.597340 1_554
Al8 Co1 2.600350 1_554
Al8 Co3 2.600350 1_555
Al8 Ti1 2.813323 1_555
Al8 Ti3 2.813324 1_544
Al8 Ti5 2.824962 1_555
Al9 Co6 2.452392 1_545
Al9 Co5 2.597339 1_655
Al9 Co0 2.600343 1_655
Al9 Co4 2.600350 1_656
Al9 Ti4 2.813322 1_545
Al9 Ti0 2.813329 1_556
Al9 Ti5 2.824961 1_555
Al10 Co6 2.461554 1_555
Al10 Co2 2.605348 1_555
Al10 Co1 2.616637 1_564
Al10 Co0 2.616637 1_665
Al10 Al5 2.669951 1_565
Al10 Al6 2.671640 1_555
Al10 Al7 2.671640 1_554
Al10 Al8 2.818755 1_565
Al10 Al9 2.818755 1_565
Al10 Ti5 2.820326 1_565
Al10 Ti7 2.827440 1_555
Al10 Ti4 2.844485 1_555
Al10 Ti3 2.844485 1_554
Al11 Co6 2.461541 1_545
Al11 Co2 2.605348 1_556
Al11 Co4 2.616638 1_656
Al11 Co3 2.616651 1_555
Al11 Al4 2.669967 1_555
Al11 Al6 2.671644 1_556
Al11 Al7 2.671654 1_555
Al11 Al9 2.818749 1_555
Al11 Al8 2.818755 1_555
Al11 Ti5 2.820328 1_555
Al11 Ti6 2.827428 1_555
Al11 Ti0 2.844473 1_556
Al11 Ti1 2.844487 1_555
Al12 Co6 2.446832 1_555
Al12 Co1 2.577304 1_565
Al12 Co3 2.577311 1_555
Al12 Co5 2.586260 1_665
Al12 Al9 2.821113 1_565
Al13 Co6 2.446846 1_555
Al13 Co0 2.577297 1_565
Al13 Co4 2.577311 1_555
Al13 Co5 2.586252 1_564
Al13 Al8 2.821114 1_565
Co0 Ti6 2.569062 1_555
Co0 Ti4 2.964089 1_445
Co0 Ti2 2.979070 1_545
Co0 Ti5 3.000069 1_455
Co0 Ti1 3.013040 1_555
Co1 Ti6 2.569061 1_555
Co1 Ti3 2.964089 1_545
Co1 Ti2 2.979070 1_545
Co1 Ti5 3.000069 1_556
Co1 Ti0 3.013040 1_556
Co2 Ti7 2.565573 1_555
Co2 Ti6 2.565573 1_554
Co3 Ti7 2.569061 1_555
Co3 Ti1 2.964089 1_555
Co3 Ti2 2.979070 1_555
Co3 Ti5 3.000069 1_555
Co3 Ti4 3.013039 1_555
Co4 Ti7 2.569062 1_555
Co4 Ti0 2.964089 1_455
Co4 Ti2 2.979070 1_555
Co4 Ti5 3.000069 1_454
Co4 Ti3 3.013039 1_554
Co5 Ti3 2.966705 1_545
Co5 Ti0 2.966705 1_456
Co5 Ti4 2.966705 1_445
Co5 Ti1 2.966705 1_556
Co6 Ti6 2.432053 1_565
Co6 Ti7 2.432053 1_555
Si0 Ti2 2.453323 1_655
Si0 Ti5 2.454643 1_555
Si0 Ti1 2.459170 1_655
Si0 Ti4 2.459170 1_555
Si0 Ti0 2.459170 1_555
Si0 Ti3 2.459170 1_655
