# generated using pymatgen
data_Sr4Si6HgIr
_symmetry_space_group_name_H-M   'P 1'
_cell_length_a   11.86472509
_cell_length_b   10.28484664
_cell_length_c   8.36974364
_cell_angle_alpha   78.24564059
_cell_angle_beta   58.06698825
_cell_angle_gamma   43.68127636
_symmetry_Int_Tables_number   1
_chemical_formula_structural   Sr4Si6HgIr
_chemical_formula_sum   'Sr8 Si12 Hg2 Ir2'
_cell_volume   570.09929715
_cell_formula_units_Z   2
loop_
 _symmetry_equiv_pos_site_id
 _symmetry_equiv_pos_as_xyz
  1  'x, y, z'
loop_
 _atom_site_type_symbol
 _atom_site_label
 _atom_site_symmetry_multiplicity
 _atom_site_fract_x
 _atom_site_fract_y
 _atom_site_fract_z
 _atom_site_occupancy
  Sr  Sr0  1  0.13356888  0.11630033  0.87075450  1
  Sr  Sr1  1  0.87076973  0.87936600  0.13356211  1
  Sr  Sr2  1  0.13367479  0.11645761  0.37062638  1
  Sr  Sr3  1  0.37063821  0.37924050  0.13369308  1
  Sr  Sr4  1  0.61822650  0.63503710  0.37787281  1
  Sr  Sr5  1  0.37788224  0.36885215  0.61820842  1
  Sr  Sr6  1  0.61489584  0.63182227  0.88118763  1
  Sr  Sr7  1  0.88115823  0.87210890  0.61493140  1
  Si  Si0  1  0.90428306  0.59151664  0.43953280  1
  Si  Si1  1  0.09298211  0.40327969  0.57960497  1
  Si  Si2  1  0.43953772  0.06468309  0.90427224  1
  Si  Si3  1  0.57959994  0.92411951  0.09298261  1
  Si  Si4  1  0.32588204  0.67037312  0.84672602  1
  Si  Si5  1  0.65846208  0.34571452  0.18532305  1
  Si  Si6  1  0.84670920  0.15698995  0.32588471  1
  Si  Si7  1  0.18535856  0.81050424  0.65847127  1
  Si  Si8  1  0.90634828  0.59362612  0.90633978  1
  Si  Si9  1  0.57739340  0.92260395  0.57741663  1
  Si  Si10  1  0.32738391  0.67263481  0.32743085  1
  Si  Si11  1  0.65636929  0.34362945  0.65633707  1
  Hg  Hg0  1  0.08308589  0.41693339  0.08305816  1
  Hg  Hg1  1  0.83307155  0.16693026  0.83306967  1
  Ir  Ir0  1  0.16636306  0.83364496  0.16636292  1
  Ir  Ir1  1  0.41635950  0.08363745  0.41634691  1
loop_
_geom_bond_atom_site_label_1
_geom_bond_atom_site_label_2
_geom_bond_distance
_geom_bond_site_symmetry_2
Si0 Si1 2.391161 1_655
Si0 Si9 2.394481 1_555
Si0 Sr7 3.273122 1_555
Si0 Sr6 3.280924 1_555
Si0 Sr4 3.398132 1_555
Si0 Sr3 3.428733 1_655
Si0 Sr1 3.430216 1_555
Si0 Sr2 3.444709 1_655
Si1 Si8 2.391579 1_455
Si1 Sr5 3.321673 1_555
Si1 Sr3 3.321799 1_555
Si1 Sr0 3.337191 1_555
Si1 Sr2 3.338168 1_555
Si1 Sr7 3.452648 1_455
Si1 Sr6 3.472516 1_455
Si2 Si3 2.391168 1_546
Si2 Si9 2.394352 1_545
Si2 Sr6 3.273167 1_545
Si2 Sr7 3.280669 1_545
Si2 Sr5 3.397835 1_555
Si2 Sr2 3.428698 1_556
Si2 Sr0 3.430498 1_555
Si2 Sr3 3.444860 1_556
Si3 Si8 2.391792 1_554
Si3 Sr4 3.321466 1_555
Si3 Sr2 3.321820 1_565
Si3 Sr1 3.337577 1_555
Si3 Sr3 3.338258 1_565
Si3 Sr6 3.452562 1_554
Si3 Sr7 3.472268 1_554
Si4 Si7 2.391199 1_555
Si4 Sr6 3.321463 1_555
Si4 Sr0 3.321926 1_565
Si4 Sr3 3.337018 1_556
Si4 Sr1 3.338074 1_456
Si4 Sr4 3.452725 1_555
Si4 Sr5 3.472257 1_555
Si5 Si6 2.391432 1_555
Si5 Sr5 3.272956 1_555
Si5 Sr4 3.280993 1_555
Si5 Sr6 3.397907 1_554
Si5 Sr1 3.428535 1_545
Si5 Sr3 3.429980 1_555
Si5 Sr0 3.445051 1_654
Si6 Sr7 3.321199 1_545
Si6 Sr1 3.321597 1_545
Si6 Sr2 3.337470 1_655
Si6 Sr0 3.338291 1_654
Si6 Sr5 3.452493 1_555
Si6 Sr4 3.472368 1_555
Si7 Sr4 3.272757 1_555
Si7 Sr5 3.281164 1_555
Si7 Sr7 3.398625 1_455
Si7 Sr0 3.428188 1_565
Si7 Sr2 3.430014 1_565
Si7 Sr1 3.445028 1_456
Si8 Sr6 3.305749 1_555
Si8 Sr7 3.305794 1_555
Si8 Sr4 3.427853 1_556
Si8 Sr5 3.428118 1_655
Si8 Sr0 3.472863 1_655
Si8 Sr1 3.473480 1_556
Si9 Sr5 3.294531 1_565
Si9 Sr4 3.294759 1_555
Si9 Sr0 3.296800 1_565
Si9 Sr1 3.296931 1_555
Si9 Sr6 3.432233 1_555
Si9 Sr7 3.432372 1_555
Si10 Si7 2.394315 1_555
Si10 Si5 2.394524 1_555
Si10 Sr6 3.294294 1_554
Si10 Sr7 3.294484 1_455
Si10 Sr2 3.296719 1_565
Si10 Sr3 3.297203 1_555
Si10 Sr4 3.432229 1_555
Si10 Sr5 3.432281 1_555
Si11 Si6 2.391650 1_555
Si11 Si4 2.391756 1_555
Si11 Sr4 3.305652 1_555
Si11 Sr5 3.305853 1_555
Si11 Sr7 3.427918 1_545
Si11 Sr6 3.428230 1_555
Si11 Sr2 3.472876 1_655
Si11 Sr3 3.473014 1_556
Hg0 Si8 2.561532 1_454
Hg0 Si2 2.569684 1_554
Hg0 Si0 2.569799 1_455
Hg0 Sr5 3.391485 1_554
Hg0 Sr4 3.391763 1_455
Hg0 Sr1 3.392370 1_455
Hg0 Sr0 3.392700 1_554
Hg0 Sr2 3.393874 1_555
Hg0 Sr3 3.394023 1_555
Hg1 Si11 2.561379 1_555
Hg1 Si5 2.569621 1_556
Hg1 Si7 2.569715 1_645
Hg1 Sr6 3.391773 1_555
Hg1 Sr7 3.391835 1_545
Hg1 Sr3 3.392410 1_556
Hg1 Sr2 3.392416 1_655
Hg1 Sr1 3.393914 1_546
Hg1 Sr0 3.394046 1_655
Ir0 Si6 2.331441 1_465
Ir0 Si4 2.331566 1_554
Ir0 Si10 2.334211 1_555
Ir0 Sr6 3.306144 1_554
Ir0 Sr7 3.306379 1_455
Ir0 Sr0 3.343021 1_564
Ir0 Sr1 3.343213 1_455
Ir0 Sr2 3.350627 1_565
Ir0 Sr3 3.350640 1_555
Ir1 Si3 2.331484 1_545
Ir1 Si1 2.331524 1_555
Ir1 Si9 2.334318 1_545
Ir1 Sr4 3.306572 1_545
Ir1 Sr5 3.306672 1_555
Ir1 Sr3 3.343016 1_555
Ir1 Sr2 3.343220 1_555
Ir1 Sr0 3.350593 1_555
Ir1 Sr1 3.350729 1_545
