# generated using pymatgen
data_Al2Ga2Sb2O9
_symmetry_space_group_name_H-M   'P 1'
_cell_length_a   5.74130123
_cell_length_b   7.91300074
_cell_length_c   8.00559257
_cell_angle_alpha   90.00000000
_cell_angle_beta   90.00000000
_cell_angle_gamma   90.00000000
_symmetry_Int_Tables_number   1
_chemical_formula_structural   Al2Ga2Sb2O9
_chemical_formula_sum   'Al4 Ga4 Sb4 O18'
_cell_volume   363.70144218
_cell_formula_units_Z   2
loop_
 _symmetry_equiv_pos_site_id
 _symmetry_equiv_pos_as_xyz
  1  'x, y, z'
loop_
 _atom_site_type_symbol
 _atom_site_label
 _atom_site_symmetry_multiplicity
 _atom_site_fract_x
 _atom_site_fract_y
 _atom_site_fract_z
 _atom_site_occupancy
  Al  Al0  1  0.24217082  0.00000000  0.50000000  1
  Al  Al1  1  0.75782918  0.00000000  0.50000000  1
  Al  Al2  1  0.75782918  0.50000000  0.00000000  1
  Al  Al3  1  0.24217082  0.50000000  0.00000000  1
  Ga  Ga0  1  0.00000000  0.15511421  0.16377977  1
  Ga  Ga1  1  0.00000000  0.84488579  0.83622023  1
  Ga  Ga2  1  0.00000000  0.34488579  0.66377977  1
  Ga  Ga3  1  0.00000000  0.65511421  0.33622023  1
  Sb  Sb0  1  0.50000000  0.32051078  0.33418992  1
  Sb  Sb1  1  0.50000000  0.67948922  0.66581008  1
  Sb  Sb2  1  0.50000000  0.17948922  0.83418992  1
  Sb  Sb3  1  0.50000000  0.82051078  0.16581008  1
  O  O0  1  0.50000000  0.36302335  0.08110459  1
  O  O1  1  0.50000000  0.63697665  0.91889541  1
  O  O2  1  0.50000000  0.13697665  0.58110459  1
  O  O3  1  0.50000000  0.86302335  0.41889541  1
  O  O4  1  0.25894885  0.14002292  0.30524603  1
  O  O5  1  0.74105115  0.85997708  0.69475397  1
  O  O6  1  0.25894885  0.85997708  0.69475397  1
  O  O7  1  0.74105115  0.35997708  0.80524603  1
  O  O8  1  0.74105115  0.14002292  0.30524603  1
  O  O9  1  0.25894885  0.64002292  0.19475397  1
  O  O10  1  0.74105115  0.64002292  0.19475397  1
  O  O11  1  0.25894885  0.35997708  0.80524603  1
  O  O12  1  0.00000000  0.37735760  0.09658166  1
  O  O13  1  0.00000000  0.62264240  0.90341834  1
  O  O14  1  0.00000000  0.12264240  0.59658166  1
  O  O15  1  0.00000000  0.87735760  0.40341834  1
  O  O16  1  0.00000000  0.00000000  0.00000000  1
  O  O17  1  0.00000000  0.50000000  0.50000000  1
loop_
_geom_bond_atom_site_label_1
_geom_bond_atom_site_label_2
_geom_bond_distance
_geom_bond_site_symmetry_2
Al0 O14 1.863541 1_555
Al0 O15 1.863541 1_545
Al0 O4 1.915151 1_555
Al0 O6 1.915151 1_545
Al0 O2 1.946182 1_555
Al0 O3 1.946182 1_545
Al1 O14 1.863541 1_655
Al1 O15 1.863541 1_645
Al1 O8 1.915151 1_555
Al1 O5 1.915151 1_545
Al1 O2 1.946182 1_555
Al1 O3 1.946182 1_545
Al2 O13 1.863541 1_654
Al2 O12 1.863541 1_655
Al2 O10 1.915151 1_555
Al2 O7 1.915151 1_554
Al2 O1 1.946182 1_554
Al2 O0 1.946182 1_555
Al3 O13 1.863541 1_554
Al3 O12 1.863541 1_555
Al3 O9 1.915151 1_555
Al3 O11 1.915151 1_554
Al3 O1 1.946182 1_554
Al3 O0 1.946182 1_555
Ga0 O16 1.796018 1_555
Ga0 O12 1.839054 1_555
Ga0 O4 1.872739 1_555
Ga0 O8 1.872739 1_455
Ga1 O16 1.796018 1_566
Ga1 O13 1.839054 1_555
Ga1 O6 1.872739 1_555
Ga1 O5 1.872739 1_455
Ga2 O17 1.796018 1_555
Ga2 O14 1.839054 1_555
Ga2 O11 1.872739 1_555
Ga2 O7 1.872739 1_455
Ga3 O17 1.796018 1_555
Ga3 O15 1.839054 1_555
Ga3 O9 1.872739 1_555
Ga3 O10 1.872739 1_455
O0 Sb0 2.053835 1_555
O0 Sb2 2.452861 1_554
O1 Sb1 2.053835 1_555
O1 Sb3 2.452861 1_556
O2 Sb2 2.053835 1_555
O2 Sb0 2.452861 1_555
O3 Sb3 2.053835 1_555
O3 Sb1 2.452861 1_555
O4 Sb0 2.002188 1_555
O5 Sb1 2.002188 1_555
O6 Sb1 2.002188 1_555
O7 Sb2 2.002188 1_555
O8 Sb0 2.002188 1_555
O9 Sb3 2.002188 1_555
O10 Sb3 2.002188 1_555
O11 Sb2 2.002188 1_555
