# generated using pymatgen
data_KSb12(IrOs)2
_symmetry_space_group_name_H-M   'P 1'
_cell_length_a   8.11890723
_cell_length_b   8.11890704
_cell_length_c   8.11716810
_cell_angle_alpha   109.48201182
_cell_angle_beta   109.48020494
_cell_angle_gamma   109.46013269
_symmetry_Int_Tables_number   1
_chemical_formula_structural   KSb12(IrOs)2
_chemical_formula_sum   'K1 Sb12 Ir2 Os2'
_cell_volume   411.84254603
_cell_formula_units_Z   1
loop_
 _symmetry_equiv_pos_site_id
 _symmetry_equiv_pos_as_xyz
  1  'x, y, z'
loop_
 _atom_site_type_symbol
 _atom_site_label
 _atom_site_symmetry_multiplicity
 _atom_site_fract_x
 _atom_site_fract_y
 _atom_site_fract_z
 _atom_site_occupancy
  K  K0  1  0.00000000  0.00000000  0.00000000  1
  Sb  Sb0  1  0.15478912  0.81325506  0.65584832  1
  Sb  Sb1  1  0.84521088  0.18674494  0.34415168  1
  Sb  Sb2  1  0.84259326  0.50106020  0.65584832  1
  Sb  Sb3  1  0.15740674  0.49893980  0.34415168  1
  Sb  Sb4  1  0.81332722  0.65880729  0.15790259  1
  Sb  Sb5  1  0.18667278  0.34119271  0.84209741  1
  Sb  Sb6  1  0.50090470  0.65542463  0.84209741  1
  Sb  Sb7  1  0.49909530  0.34457537  0.15790259  1
  Sb  Sb8  1  0.65580509  0.15522745  0.81103254  1
  Sb  Sb9  1  0.34419491  0.84477255  0.18896746  1
  Sb  Sb10  1  0.65896324  0.84312672  0.50208996  1
  Sb  Sb11  1  0.34103676  0.15687328  0.49791004  1
  Ir  Ir0  1  0.50000000  0.00000000  0.00000000  1
  Ir  Ir1  1  0.00000000  0.50000000  0.00000000  1
  Os  Os0  1  0.00000000  0.00000000  0.50000000  1
  Os  Os1  1  0.50000000  0.50000000  0.50000000  1
loop_
_geom_bond_atom_site_label_1
_geom_bond_atom_site_label_2
_geom_bond_distance
_geom_bond_site_symmetry_2
K0 Sb11 3.518007 1_555
K0 Sb10 3.518007 1_444
K0 Sb3 3.530980 1_555
K0 Sb2 3.530980 1_444
K0 Sb0 3.530986 1_544
K0 Sb1 3.530986 1_455
K0 Sb7 3.532681 1_555
K0 Sb6 3.532681 1_444
K0 Sb4 3.532681 1_445
K0 Sb5 3.532681 1_554
K0 Sb9 3.539407 1_545
K0 Sb8 3.539407 1_454
Sb0 Sb2 2.927203 1_455
Sb0 Sb3 2.946074 1_555
Sb1 Sb3 2.927203 1_655
Sb1 Sb2 2.946074 1_555
Sb4 Sb6 2.928455 1_554
Sb4 Sb7 2.946298 1_555
Sb5 Sb7 2.928455 1_556
Sb5 Sb6 2.946298 1_555
Sb10 Sb8 2.925371 1_565
Sb10 Sb9 2.950326 1_555
Sb11 Sb9 2.925371 1_545
Sb11 Sb8 2.950326 1_555
Ir0 Sb9 2.657546 1_545
Ir0 Sb8 2.657546 1_554
Ir0 Sb1 2.660711 1_555
Ir0 Sb0 2.660711 1_544
Ir0 Sb7 2.664116 1_555
Ir0 Sb6 2.664116 1_544
Ir1 Sb9 2.657545 1_555
Ir1 Sb8 2.657545 1_454
Ir1 Sb3 2.660715 1_555
Ir1 Sb2 2.660715 1_454
Ir1 Sb5 2.664116 1_554
Ir1 Sb4 2.664116 1_455
Os0 Sb5 2.635581 1_555
Os0 Sb4 2.635581 1_445
Os0 Sb0 2.639513 1_545
Os0 Sb1 2.639513 1_455
Os0 Sb11 2.642910 1_555
Os0 Sb10 2.642910 1_445
Os1 Sb6 2.635581 1_555
Os1 Sb7 2.635581 1_555
Os1 Sb2 2.639508 1_555
Os1 Sb3 2.639508 1_555
Os1 Sb11 2.642910 1_555
Os1 Sb10 2.642910 1_555
