# generated using pymatgen
data_CdSb12(RuPt)2
_symmetry_space_group_name_H-M   'P 1'
_cell_length_a   8.14040010
_cell_length_b   8.13182330
_cell_length_c   8.14040106
_cell_angle_alpha   109.46777170
_cell_angle_beta   109.50439588
_cell_angle_gamma   109.48419706
_symmetry_Int_Tables_number   1
_chemical_formula_structural   CdSb12(RuPt)2
_chemical_formula_sum   'Cd1 Sb12 Ru2 Pt2'
_cell_volume   414.59921329
_cell_formula_units_Z   1
loop_
 _symmetry_equiv_pos_site_id
 _symmetry_equiv_pos_as_xyz
  1  'x, y, z'
loop_
 _atom_site_type_symbol
 _atom_site_label
 _atom_site_symmetry_multiplicity
 _atom_site_fract_x
 _atom_site_fract_y
 _atom_site_fract_z
 _atom_site_occupancy
  Cd  Cd0  1  0.00000000  0.00000000  0.00000000  1
  Sb  Sb0  1  0.15644693  0.48906391  0.33261698  1
  Sb  Sb1  1  0.50635689  0.65560464  0.84158556  1
  Sb  Sb2  1  0.33541181  0.84213663  0.18611340  1
  Sb  Sb3  1  0.81401808  0.65560464  0.14924776  1
  Sb  Sb4  1  0.65602424  0.84213663  0.50672483  1
  Sb  Sb5  1  0.18598192  0.34439536  0.85075224  1
  Sb  Sb6  1  0.66458819  0.15786337  0.81388660  1
  Sb  Sb7  1  0.34397576  0.15786337  0.49327517  1
  Sb  Sb8  1  0.49364311  0.34439536  0.15841444  1
  Sb  Sb9  1  0.84355307  0.51093609  0.66738302  1
  Sb  Sb10  1  0.84869546  0.19406908  0.34537161  1
  Sb  Sb11  1  0.15130454  0.80593092  0.65462839  1
  Ru  Ru0  1  0.50000000  0.50000000  0.50000000  1
  Ru  Ru1  1  0.00000000  0.50000000  0.00000000  1
  Pt  Pt0  1  0.50000000  0.00000000  0.00000000  1
  Pt  Pt1  1  0.00000000  0.00000000  0.50000000  1
loop_
_geom_bond_atom_site_label_1
_geom_bond_atom_site_label_2
_geom_bond_distance
_geom_bond_site_symmetry_2
Cd0 Sb0 3.451179 1_555
Cd0 Sb9 3.451179 1_444
Cd0 Sb7 3.502934 1_555
Cd0 Sb4 3.502934 1_444
Cd0 Sb2 3.502936 1_545
Cd0 Sb6 3.502936 1_454
Cd0 Sb8 3.504148 1_555
Cd0 Sb1 3.504148 1_444
Cd0 Sb5 3.504151 1_554
Cd0 Sb3 3.504151 1_445
Cd0 Sb10 3.544497 1_455
Cd0 Sb11 3.544497 1_544
Sb0 Sb10 2.893456 1_455
Sb0 Sb11 3.025806 1_555
Sb10 Sb9 3.025806 1_555
Sb11 Sb9 2.893456 1_455
Ru0 Sb1 2.617392 1_555
Ru0 Sb8 2.617392 1_555
Ru0 Sb4 2.617542 1_555
Ru0 Sb7 2.617542 1_555
Ru0 Sb0 2.625745 1_555
Ru0 Sb9 2.625745 1_555
Ru1 Sb3 2.617399 1_455
Ru1 Sb5 2.617399 1_554
Ru1 Sb2 2.617540 1_555
Ru1 Sb6 2.617540 1_454
Ru1 Sb9 2.625745 1_454
Ru1 Sb0 2.625745 1_555
Pt0 Sb10 2.679059 1_555
Pt0 Sb11 2.679059 1_544
Pt0 Sb8 2.691240 1_555
Pt0 Sb1 2.691240 1_544
Pt0 Sb6 2.691251 1_554
Pt0 Sb2 2.691251 1_545
Pt1 Sb11 2.679076 1_545
Pt1 Sb10 2.679076 1_455
Pt1 Sb5 2.691239 1_555
Pt1 Sb3 2.691239 1_445
Pt1 Sb7 2.691244 1_555
Pt1 Sb4 2.691244 1_445
