# generated using pymatgen
data_Cs2NbAuSe4
_symmetry_space_group_name_H-M   'P 1'
_cell_length_a   14.82425376
_cell_length_b   13.19408321
_cell_length_c   7.98342579
_cell_angle_alpha   85.08203338
_cell_angle_beta   62.46850043
_cell_angle_gamma   32.44945966
_symmetry_Int_Tables_number   1
_chemical_formula_structural   Cs2NbAuSe4
_chemical_formula_sum   'Cs4 Nb2 Au2 Se8'
_cell_volume   571.08981737
_cell_formula_units_Z   2
loop_
 _symmetry_equiv_pos_site_id
 _symmetry_equiv_pos_as_xyz
  1  'x, y, z'
loop_
 _atom_site_type_symbol
 _atom_site_label
 _atom_site_symmetry_multiplicity
 _atom_site_fract_x
 _atom_site_fract_y
 _atom_site_fract_z
 _atom_site_occupancy
  Cs  Cs0  1  0.92989222  0.92989222  0.57010778  1
  Cs  Cs1  1  0.57010778  0.57010778  0.92989222  1
  Cs  Cs2  1  0.67989222  0.67989222  0.32010778  1
  Cs  Cs3  1  0.32010778  0.32010778  0.67989222  1
  Nb  Nb0  1  0.75000000  0.75000000  0.75000000  1
  Nb  Nb1  1  0.50000000  0.50000000  0.50000000  1
  Au  Au0  1  0.00000000  0.00000000  0.00000000  1
  Au  Au1  1  0.25000000  0.25000000  0.25000000  1
  Se  Se0  1  0.57250573  0.31642755  0.23271141  1
  Se  Se1  1  0.87835531  0.23271141  0.31642755  1
  Se  Se2  1  0.23271141  0.87835531  0.57250573  1
  Se  Se3  1  0.31642755  0.57250573  0.87835531  1
  Se  Se4  1  0.93357245  0.67749427  0.37164469  1
  Se  Se5  1  0.37164469  0.01728859  0.93357245  1
  Se  Se6  1  0.01728859  0.37164469  0.67749427  1
  Se  Se7  1  0.67749427  0.93357245  0.01728859  1
loop_
_geom_bond_atom_site_label_1
_geom_bond_atom_site_label_2
_geom_bond_distance
_geom_bond_site_symmetry_2
Cs0 Se0 3.660731 1_655
Cs0 Se3 3.660731 1_565
Cs0 Se7 3.757851 1_556
Cs0 Se4 3.757851 1_555
Cs0 Se3 3.895625 1_654
Cs0 Se0 3.895625 1_566
Cs0 Se1 3.942070 1_565
Cs0 Se2 3.942070 1_655
Cs1 Se2 3.660731 1_556
Cs1 Se1 3.660731 1_555
Cs1 Se6 3.757851 1_655
Cs1 Se5 3.757851 1_565
Cs1 Se1 3.895624 1_466
Cs1 Se2 3.895624 1_645
Cs1 Se0 3.942070 1_556
Cs1 Se3 3.942070 1_555
Cs2 Se6 3.660731 1_654
Cs2 Se5 3.660731 1_565
Cs2 Se2 3.757851 1_555
Cs2 Se1 3.757851 1_555
Cs2 Se5 3.895624 1_654
Cs2 Se6 3.895624 1_565
Cs2 Se7 3.942070 1_555
Cs2 Se4 3.942070 1_555
Cs3 Se7 3.660731 1_456
Cs3 Se4 3.660731 1_545
Cs3 Se0 3.757851 1_555
Cs3 Se3 3.757851 1_555
Cs3 Se4 3.895625 1_456
Cs3 Se7 3.895625 1_545
Cs3 Se5 3.942070 1_555
Cs3 Se6 3.942070 1_555
Nb0 Se5 2.438691 1_565
Nb0 Se6 2.438691 1_655
Nb0 Se4 2.438691 1_555
Nb0 Se7 2.438691 1_556
Nb1 Se1 2.438691 1_555
Nb1 Se2 2.438691 1_555
Nb1 Se3 2.438691 1_555
Nb1 Se0 2.438691 1_555
Au0 Se0 2.614323 1_455
Au0 Se3 2.614323 1_544
Au0 Se2 2.614323 1_544
Au0 Se1 2.614323 1_455
Au0 Nb1 3.005030 1_455
Au0 Nb1 3.005030 1_544
Au1 Se7 2.614323 1_545
Au1 Se4 2.614323 1_455
Au1 Se6 2.614323 1_555
Au1 Se5 2.614323 1_554
Au1 Nb0 3.005030 1_544
Au1 Nb0 3.005030 1_455
