# generated using pymatgen
data_Y8InHgRh2
_symmetry_space_group_name_H-M   'P 1'
_cell_length_a   9.63001562
_cell_length_b   9.63001576
_cell_length_c   9.63471784
_cell_angle_alpha   59.98385351
_cell_angle_beta   59.98385305
_cell_angle_gamma   60.04767448
_symmetry_Int_Tables_number   1
_chemical_formula_structural   Y8InHgRh2
_chemical_formula_sum   'Y16 In2 Hg2 Rh4'
_cell_volume   631.87054629
_cell_formula_units_Z   2
loop_
 _symmetry_equiv_pos_site_id
 _symmetry_equiv_pos_as_xyz
  1  'x, y, z'
loop_
 _atom_site_type_symbol
 _atom_site_label
 _atom_site_symmetry_multiplicity
 _atom_site_fract_x
 _atom_site_fract_y
 _atom_site_fract_z
 _atom_site_occupancy
  Y  Y0  1  0.60100291  0.60100291  0.60075075  1
  Y  Y1  1  0.60100291  0.60100291  0.19724543  1
  Y  Y2  1  0.60058177  0.19847712  0.60047106  1
  Y  Y3  1  0.19847712  0.60058177  0.60047106  1
  Y  Y4  1  0.05921578  0.44136700  0.43995191  1
  Y  Y5  1  0.44136700  0.05921578  0.05946430  1
  Y  Y6  1  0.44136700  0.05921578  0.43995191  1
  Y  Y7  1  0.05921578  0.44136700  0.05946430  1
  Y  Y8  1  0.44053982  0.44053982  0.05946018  1
  Y  Y9  1  0.05827445  0.05827445  0.44172555  1
  Y  Y10  1  0.19093706  0.81344614  0.81156869  1
  Y  Y11  1  0.81344614  0.19093706  0.18404811  1
  Y  Y12  1  0.81344614  0.19093706  0.81156869  1
  Y  Y13  1  0.19093706  0.81344614  0.18404811  1
  Y  Y14  1  0.81334190  0.81334190  0.18665810  1
  Y  Y15  1  0.18878359  0.18878359  0.81121641  1
  In  In0  1  0.83083091  0.83083091  0.83310432  1
  In  In1  1  0.83083091  0.83083091  0.50523386  1
  Hg  Hg0  1  0.83651804  0.49034901  0.83656598  1
  Hg  Hg1  1  0.49034901  0.83651804  0.83656598  1
  Rh  Rh0  1  0.39220154  0.39220154  0.39252057  1
  Rh  Rh1  1  0.39220154  0.39220154  0.82307635  1
  Rh  Rh2  1  0.39215284  0.82297878  0.39243519  1
  Rh  Rh3  1  0.82297878  0.39215284  0.39243519  1
loop_
_geom_bond_atom_site_label_1
_geom_bond_atom_site_label_2
_geom_bond_distance
_geom_bond_site_symmetry_2
In0 In1 3.158939 1_555
In0 Y14 3.246627 1_556
In0 Y10 3.291207 1_655
In0 Y12 3.291207 1_565
In0 Y1 3.385218 1_556
In0 Y3 3.415968 1_655
In0 Y2 3.415968 1_565
In0 Y5 3.469664 1_566
In0 Y7 3.469664 1_656
In0 Y9 3.475316 1_665
In1 Y14 3.246627 1_555
In1 Y13 3.291207 1_655
In1 Y11 3.291207 1_565
In1 Y0 3.385210 1_555
In1 Y3 3.415973 1_655
In1 Y2 3.415973 1_565
In1 Y6 3.469667 1_565
In1 Y4 3.469668 1_655
In1 Y9 3.475316 1_665
Hg0 Y12 3.131939 1_555
Hg0 Y11 3.131945 1_556
Hg0 Y15 3.169307 1_655
Hg0 In1 3.235432 1_555
Hg0 In0 3.235436 1_555
Hg0 Y0 3.429484 1_555
Hg0 Y1 3.429509 1_556
Hg0 Y3 3.434720 1_655
Hg0 Y8 3.462048 1_556
Hg0 Y7 3.466699 1_656
Hg0 Y4 3.466699 1_655
Hg1 Y10 3.131939 1_555
Hg1 Y13 3.131945 1_556
Hg1 Y15 3.169307 1_565
Hg1 In1 3.235432 1_555
Hg1 In0 3.235436 1_555
Hg1 Y0 3.429484 1_555
Hg1 Y1 3.429509 1_556
Hg1 Y2 3.434720 1_565
Hg1 Y8 3.462048 1_556
Hg1 Y5 3.466699 1_566
Hg1 Y6 3.466699 1_565
Rh0 Y4 2.819569 1_555
Rh0 Y6 2.819569 1_555
Rh0 Y8 2.821010 1_555
Rh0 Y2 2.840081 1_555
Rh0 Y3 2.840081 1_555
Rh0 Y1 2.844912 1_555
Rh0 Y15 3.459408 1_555
Rh0 Y11 3.484066 1_555
Rh0 Y13 3.484066 1_555
Rh1 Y7 2.819566 1_556
Rh1 Y5 2.819566 1_556
Rh1 Y8 2.821009 1_556
Rh1 Y2 2.840074 1_555
Rh1 Y3 2.840074 1_555
Rh1 Y0 2.844911 1_555
Rh1 Y15 3.459408 1_555
Rh1 Y12 3.484066 1_555
Rh1 Y10 3.484066 1_555
Rh2 Y6 2.818757 1_565
Rh2 Y5 2.818776 1_565
Rh2 Y9 2.823417 1_565
Rh2 Y3 2.834893 1_555
Rh2 Y1 2.845333 1_555
Rh2 Y0 2.845333 1_555
Rh2 Y10 3.471090 1_555
Rh2 Y13 3.471106 1_555
Rh2 Y14 3.486210 1_555
Rh3 Y4 2.818757 1_655
Rh3 Y7 2.818776 1_655
Rh3 Y9 2.823417 1_655
Rh3 Y2 2.834893 1_555
Rh3 Y1 2.845333 1_555
Rh3 Y0 2.845333 1_555
Rh3 Y12 3.471090 1_555
Rh3 Y11 3.471106 1_555
Rh3 Y14 3.486210 1_555
