# generated using pymatgen
data_K4ZrTcI12
_symmetry_space_group_name_H-M   'P 1'
_cell_length_a   8.39099089
_cell_length_b   7.98686312
_cell_length_c   13.73800987
_cell_angle_alpha   54.70964758
_cell_angle_beta   90.03433153
_cell_angle_gamma   90.09473652
_symmetry_Int_Tables_number   1
_chemical_formula_structural   K4ZrTcI12
_chemical_formula_sum   'K4 Zr1 Tc1 I12'
_cell_volume   751.49800011
_cell_formula_units_Z   1
loop_
 _symmetry_equiv_pos_site_id
 _symmetry_equiv_pos_as_xyz
  1  'x, y, z'
loop_
 _atom_site_type_symbol
 _atom_site_label
 _atom_site_symmetry_multiplicity
 _atom_site_fract_x
 _atom_site_fract_y
 _atom_site_fract_z
 _atom_site_occupancy
  K  K0  1  0.42124750  0.72446578  0.25206672  1
  K  K1  1  0.92128446  0.26342257  0.25313043  1
  K  K2  1  0.07871554  0.73657743  0.74686957  1
  K  K3  1  0.57875250  0.27553422  0.74793328  1
  Zr  Zr0  1  0.00000000  0.00000000  0.00000000  1
  Tc  Tc0  1  0.50000000  0.00000000  0.50000000  1
  I  I0  1  0.81506035  0.33943640  0.95852963  1
  I  I1  1  0.50865651  0.15468569  0.26182178  1
  I  I2  1  0.49134349  0.84531431  0.73817822  1
  I  I3  1  0.29117520  0.21990195  0.96543405  1
  I  I4  1  0.31635470  0.67628919  0.54330975  1
  I  I5  1  0.22638063  0.22252563  0.46029401  1
  I  I6  1  0.18493965  0.66056360  0.04147037  1
  I  I7  1  0.77361937  0.77747437  0.53970599  1
  I  I8  1  0.70882480  0.78009805  0.03456595  1
  I  I9  1  0.00626306  0.82429032  0.25072867  1
  I  I10  1  0.99373694  0.17570968  0.74927133  1
  I  I11  1  0.68364530  0.32371081  0.45669025  1
loop_
_geom_bond_atom_site_label_1
_geom_bond_atom_site_label_2
_geom_bond_distance
_geom_bond_site_symmetry_2
I0 Zr0 2.882826 1_656
I0 K2 3.569067 1_655
I0 K3 3.776054 1_555
I0 K1 3.834256 1_556
I1 Tc0 2.750876 1_555
I1 K1 3.553470 1_555
I1 K0 3.589757 1_545
I2 Tc0 2.750876 1_565
I2 K2 3.553470 1_555
I2 K3 3.589757 1_565
I3 Zr0 2.881524 1_556
I3 K3 3.663284 1_555
I3 K0 3.789507 1_546
I3 K2 3.863178 1_555
I4 Tc0 2.761079 1_565
I4 K3 3.551717 1_555
I4 K2 3.687028 1_555
I4 K0 3.893042 1_555
I5 Tc0 2.760332 1_555
I5 K0 3.696161 1_555
I5 K1 3.698691 1_455
I5 K2 3.799126 1_545
I6 Zr0 2.882826 1_565
I6 K1 3.569067 1_455
I6 K0 3.776054 1_555
I6 K2 3.834256 1_554
I7 Tc0 2.760332 1_565
I7 K3 3.696161 1_555
I7 K2 3.698691 1_655
I7 K1 3.799126 1_565
I8 Zr0 2.881524 1_665
I8 K0 3.663284 1_555
I8 K3 3.789507 1_564
I8 K1 3.863178 1_555
I9 Zr0 2.872559 1_565
I9 K0 3.571191 1_555
I9 K1 3.598975 1_465
I10 Zr0 2.872559 1_656
I10 K3 3.571191 1_555
I10 K2 3.598975 1_645
I11 Tc0 2.761079 1_555
I11 K0 3.551717 1_555
I11 K1 3.687028 1_555
I11 K3 3.893042 1_555
