# generated using pymatgen
data_Mn3Hg(PN2)6
_symmetry_space_group_name_H-M   'P 1'
_cell_length_a   7.10415747
_cell_length_b   7.10415728
_cell_length_c   7.10415686
_cell_angle_alpha   109.63045388
_cell_angle_beta   109.63045311
_cell_angle_gamma   109.63043464
_symmetry_Int_Tables_number   1
_chemical_formula_structural   Mn3Hg(PN2)6
_chemical_formula_sum   'Mn3 Hg1 P6 N12'
_cell_volume   274.36510583
_cell_formula_units_Z   1
loop_
 _symmetry_equiv_pos_site_id
 _symmetry_equiv_pos_as_xyz
  1  'x, y, z'
loop_
 _atom_site_type_symbol
 _atom_site_label
 _atom_site_symmetry_multiplicity
 _atom_site_fract_x
 _atom_site_fract_y
 _atom_site_fract_z
 _atom_site_occupancy
  Mn  Mn0  1  0.00839419  0.33177887  0.00839419  1
  Mn  Mn1  1  0.00839419  0.00839419  0.33177887  1
  Mn  Mn2  1  0.33177887  0.00839419  0.00839419  1
  Hg  Hg0  1  0.82506872  0.82506872  0.82506872  1
  P  P0  1  0.51039280  0.26455768  0.75948536  1
  P  P1  1  0.26455768  0.75948536  0.51039280  1
  P  P2  1  0.75948536  0.51039280  0.26455768  1
  P  P3  1  0.75948536  0.26455768  0.51039280  1
  P  P4  1  0.51039280  0.75948536  0.26455768  1
  P  P5  1  0.26455768  0.51039280  0.75948536  1
  N  N0  1  0.45783270  0.72760865  0.45783270  1
  N  N1  1  0.72760865  0.45783270  0.45783270  1
  N  N2  1  0.45783270  0.45783270  0.72760865  1
  N  N3  1  0.73835468  0.29119611  0.73835468  1
  N  N4  1  0.00918052  0.56171822  0.28225466  1
  N  N5  1  0.28225466  0.56171822  0.00918052  1
  N  N6  1  0.28225466  0.00918052  0.56171822  1
  N  N7  1  0.00918052  0.28225466  0.56171822  1
  N  N8  1  0.73835468  0.73835468  0.29119611  1
  N  N9  1  0.56171822  0.00918052  0.28225466  1
  N  N10  1  0.29119611  0.73835468  0.73835468  1
  N  N11  1  0.56171822  0.28225466  0.00918052  1
loop_
_geom_bond_atom_site_label_1
_geom_bond_atom_site_label_2
_geom_bond_distance
_geom_bond_site_symmetry_2
Mn0 N3 2.056120 1_454
Mn0 N4 2.074796 1_555
Mn0 N5 2.074796 1_555
Mn1 N8 2.056120 1_445
Mn1 N7 2.074796 1_555
Mn1 N6 2.074796 1_555
Mn2 N10 2.056120 1_544
Mn2 N9 2.074796 1_555
Mn2 N11 2.074796 1_555
Hg0 N1 2.662992 1_555
Hg0 N0 2.662993 1_555
Hg0 N2 2.662993 1_555
Hg0 Mn1 2.985097 1_666
Hg0 Mn0 2.985098 1_666
Hg0 Mn2 2.985098 1_666
N0 P4 1.603925 1_555
N0 P1 1.603925 1_555
N1 P3 1.603925 1_555
N1 P2 1.603925 1_555
N2 P0 1.603925 1_555
N2 P5 1.603925 1_555
N3 P3 1.630204 1_555
N3 P0 1.630204 1_555
N4 P1 1.635200 1_555
N4 P2 1.637117 1_455
N5 P4 1.635200 1_555
N5 P5 1.637117 1_554
N6 P0 1.635200 1_555
N6 P1 1.637117 1_545
N7 P5 1.635200 1_555
N7 P3 1.637117 1_455
N8 P2 1.630204 1_555
N8 P4 1.630204 1_555
N9 P3 1.635200 1_555
N9 P4 1.637117 1_545
N10 P1 1.630204 1_555
N10 P5 1.630204 1_555
N11 P2 1.635200 1_555
N11 P0 1.637117 1_554
