# generated using pymatgen
data_Ca2MnRh3
_symmetry_space_group_name_H-M   'P 1'
_cell_length_a   5.20610428
_cell_length_b   5.49844722
_cell_length_c   5.49844670
_cell_angle_alpha   60.00000313
_cell_angle_beta   58.12439020
_cell_angle_gamma   58.12438899
_symmetry_Int_Tables_number   1
_chemical_formula_structural   Ca2MnRh3
_chemical_formula_sum   'Ca2 Mn1 Rh3'
_cell_volume   108.03526490
_cell_formula_units_Z   1
loop_
 _symmetry_equiv_pos_site_id
 _symmetry_equiv_pos_as_xyz
  1  'x, y, z'
loop_
 _atom_site_type_symbol
 _atom_site_label
 _atom_site_symmetry_multiplicity
 _atom_site_fract_x
 _atom_site_fract_y
 _atom_site_fract_z
 _atom_site_occupancy
  Ca  Ca0  1  0.49890122  0.50036659  0.50036659  1
  Ca  Ca1  1  0.75109878  0.74963341  0.74963341  1
  Mn  Mn0  1  0.62500000  0.12500000  0.12500000  1
  Rh  Rh0  1  0.12500000  0.12500000  0.62500000  1
  Rh  Rh1  1  0.12500000  0.62500000  0.12500000  1
  Rh  Rh2  1  0.12500000  0.12500000  0.12500000  1
loop_
_geom_bond_atom_site_label_1
_geom_bond_atom_site_label_2
_geom_bond_distance
_geom_bond_site_symmetry_2
Ca0 Rh0 3.032086 1_655
Ca0 Rh1 3.032086 1_655
Ca0 Rh2 3.032088 1_655
Ca0 Ca1 3.085615 1_455
Ca0 Rh1 3.152534 1_556
Ca0 Rh0 3.152534 1_565
Ca0 Rh2 3.152536 1_565
Ca0 Rh2 3.152536 1_556
Ca0 Rh1 3.152538 1_555
Ca0 Rh0 3.152539 1_555
Ca0 Mn0 3.216886 1_556
Ca0 Mn0 3.216886 1_565
Ca0 Mn0 3.216891 1_555
Ca0 Ca1 3.340734 1_555
Ca0 Ca1 3.340744 1_554
Ca0 Ca1 3.340744 1_545
Ca1 Rh0 3.032086 1_565
Ca1 Rh1 3.032086 1_556
Ca1 Rh2 3.032088 1_566
Ca1 Rh1 3.152534 1_655
Ca1 Rh0 3.152534 1_655
Ca1 Rh2 3.152536 1_656
Ca1 Rh2 3.152536 1_665
Ca1 Rh1 3.152538 1_656
Ca1 Rh0 3.152539 1_665
Ca1 Mn0 3.216886 1_565
Ca1 Mn0 3.216886 1_556
Ca1 Mn0 3.216891 1_566
Mn0 Rh0 2.603052 1_654
Mn0 Rh2 2.603052 1_555
Mn0 Rh0 2.603052 1_555
Mn0 Rh2 2.603052 1_655
Mn0 Rh1 2.603052 1_645
Mn0 Rh1 2.603052 1_555
Rh0 Rh2 2.749223 1_556
Rh0 Rh2 2.749223 1_555
Rh0 Rh1 2.749224 1_546
Rh0 Rh1 2.749224 1_555
Rh1 Rh2 2.749224 1_555
Rh1 Rh2 2.749224 1_565
