# generated using pymatgen
data_LaSnPt
_symmetry_space_group_name_H-M   'P 1'
_cell_length_a   4.64194870
_cell_length_b   7.57926586
_cell_length_c   8.04579489
_cell_angle_alpha   90.00000000
_cell_angle_beta   90.00000000
_cell_angle_gamma   90.00000000
_symmetry_Int_Tables_number   1
_chemical_formula_structural   LaSnPt
_chemical_formula_sum   'La4 Sn4 Pt4'
_cell_volume   283.07168806
_cell_formula_units_Z   4
loop_
 _symmetry_equiv_pos_site_id
 _symmetry_equiv_pos_as_xyz
  1  'x, y, z'
loop_
 _atom_site_type_symbol
 _atom_site_label
 _atom_site_symmetry_multiplicity
 _atom_site_fract_x
 _atom_site_fract_y
 _atom_site_fract_z
 _atom_site_occupancy
  La  La0  1  0.75000000  0.48343700  0.19334009  1
  La  La1  1  0.25000000  0.01656300  0.69334009  1
  La  La2  1  0.75000000  0.98343700  0.30665991  1
  La  La3  1  0.25000000  0.51656300  0.80665991  1
  Sn  Sn0  1  0.25000000  0.67217080  0.41738274  1
  Sn  Sn1  1  0.25000000  0.17217080  0.08261726  1
  Sn  Sn2  1  0.75000000  0.32782920  0.58261726  1
  Sn  Sn3  1  0.75000000  0.82782920  0.91738274  1
  Pt  Pt0  1  0.25000000  0.79170031  0.09255821  1
  Pt  Pt1  1  0.25000000  0.29170031  0.40744179  1
  Pt  Pt2  1  0.75000000  0.70829969  0.59255821  1
  Pt  Pt3  1  0.75000000  0.20829969  0.90744179  1
loop_
_geom_bond_atom_site_label_1
_geom_bond_atom_site_label_2
_geom_bond_distance
_geom_bond_site_symmetry_2
La0 Pt3 3.104822 1_554
La0 Pt1 3.235150 1_555
La0 Pt1 3.235150 1_655
La0 Sn0 3.268412 1_655
La0 Sn0 3.268412 1_555
La0 Sn2 3.346740 1_555
La0 Pt0 3.391643 1_655
La0 Pt0 3.391643 1_555
La0 Sn3 3.426816 1_554
La0 Sn1 3.427276 1_555
La0 Sn1 3.427276 1_655
La0 Pt2 3.636171 1_555
La0 La3 3.889628 1_554
La0 La3 3.889628 1_654
La0 La2 3.897769 1_545
La0 La2 3.897769 1_555
La1 Pt1 3.104822 1_555
La1 Pt3 3.235150 1_455
La1 Pt3 3.235150 1_555
La1 Sn3 3.268412 1_445
La1 Sn3 3.268412 1_545
La1 Sn1 3.346740 1_556
La1 Pt2 3.391643 1_545
La1 Pt2 3.391643 1_445
La1 Sn0 3.426816 1_545
La1 Sn2 3.427276 1_455
La1 Sn2 3.427276 1_555
La1 Pt0 3.636171 1_546
La1 La2 3.889628 1_445
La1 La2 3.889628 1_545
La1 La3 3.897769 1_545
La1 La3 3.897769 1_555
La2 Pt2 3.104822 1_555
La2 Pt0 3.235150 1_655
La2 Pt0 3.235150 1_555
La2 Sn1 3.268412 1_665
La2 Sn1 3.268412 1_565
La2 Sn3 3.346740 1_554
La2 Pt1 3.391643 1_565
La2 Pt1 3.391643 1_665
La2 Sn2 3.426816 1_565
La2 Sn0 3.427276 1_555
La2 Sn0 3.427276 1_655
La2 Pt3 3.636171 1_564
La3 Pt0 3.104822 1_556
La3 Pt2 3.235150 1_555
La3 Pt2 3.235150 1_455
La3 Sn2 3.268412 1_555
La3 Sn2 3.268412 1_455
La3 Sn0 3.346740 1_555
La3 Pt3 3.391643 1_455
La3 Pt3 3.391643 1_555
La3 Sn1 3.426816 1_556
La3 Sn3 3.427276 1_555
La3 Sn3 3.427276 1_455
La3 Pt1 3.636171 1_555
Pt0 Sn3 2.729173 1_454
Pt0 Sn3 2.729173 1_554
Pt0 Sn0 2.766039 1_555
Pt0 Sn1 2.884796 1_565
Pt1 Sn2 2.729173 1_455
Pt1 Sn2 2.729173 1_555
Pt1 Sn1 2.766039 1_555
Pt1 Sn0 2.884796 1_555
Pt2 Sn0 2.729173 1_555
Pt2 Sn0 2.729173 1_655
Pt2 Sn3 2.766039 1_555
Pt2 Sn2 2.884796 1_555
Pt3 Sn1 2.729173 1_556
Pt3 Sn1 2.729173 1_656
Pt3 Sn2 2.766039 1_555
Pt3 Sn3 2.884796 1_545
