# generated using pymatgen
data_MgB9N
_symmetry_space_group_name_H-M   'P 1'
_cell_length_a   7.37646905
_cell_length_b   7.37646905
_cell_length_c   7.37646809
_cell_angle_alpha   43.61933653
_cell_angle_beta   43.61933653
_cell_angle_gamma   43.61933686
_symmetry_Int_Tables_number   1
_chemical_formula_structural   MgB9N
_chemical_formula_sum   'Mg2 B18 N2'
_cell_volume   173.35858148
_cell_formula_units_Z   2
loop_
 _symmetry_equiv_pos_site_id
 _symmetry_equiv_pos_as_xyz
  1  'x, y, z'
loop_
 _atom_site_type_symbol
 _atom_site_label
 _atom_site_symmetry_multiplicity
 _atom_site_fract_x
 _atom_site_fract_y
 _atom_site_fract_z
 _atom_site_occupancy
  Mg  Mg0  1  0.69583850  0.69583850  0.69583850  1
  Mg  Mg1  1  0.30416150  0.30416150  0.30416150  1
  B  B0  1  0.17570290  0.85790216  0.85790216  1
  B  B1  1  0.85790216  0.17570290  0.85790216  1
  B  B2  1  0.85790216  0.85790216  0.17570290  1
  B  B3  1  0.82429710  0.14209784  0.14209784  1
  B  B4  1  0.33900348  0.33900348  0.87015046  1
  B  B5  1  0.33900348  0.87015046  0.33900348  1
  B  B6  1  0.87015046  0.33900348  0.33900348  1
  B  B7  1  0.66099652  0.66099652  0.12984954  1
  B  B8  1  0.66099652  0.12984954  0.66099652  1
  B  B9  1  0.12984954  0.66099652  0.66099652  1
  B  B10  1  0.32462845  0.32462845  0.64791530  1
  B  B11  1  0.32462845  0.64791530  0.32462845  1
  B  B12  1  0.64791530  0.32462845  0.32462845  1
  B  B13  1  0.67537155  0.67537155  0.35208470  1
  B  B14  1  0.67537155  0.35208470  0.67537155  1
  B  B15  1  0.35208470  0.67537155  0.67537155  1
  B  B16  1  0.14209784  0.14209784  0.82429710  1
  B  B17  1  0.14209784  0.82429710  0.14209784  1
  N  N0  1  0.80036219  0.80036219  0.80036219  1
  N  N1  1  0.19963781  0.19963781  0.19963781  1
loop_
_geom_bond_atom_site_label_1
_geom_bond_atom_site_label_2
_geom_bond_distance
_geom_bond_site_symmetry_2
Mg0 N0 2.089386 1_555
Mg1 N1 2.089386 1_555
B0 B15 1.694275 1_555
B0 B2 1.741891 1_456
B0 B1 1.741891 1_465
B0 B17 1.761188 1_556
B0 B16 1.761188 1_565
B0 Mg0 2.523144 1_555
B0 Mg1 2.804019 1_565
B0 Mg1 2.804019 1_556
B1 B14 1.694275 1_555
B1 B2 1.741891 1_546
B1 B3 1.761188 1_556
B1 B16 1.761188 1_655
B1 Mg0 2.523144 1_555
B1 Mg1 2.804019 1_655
B1 Mg1 2.804019 1_556
B2 B3 1.761188 1_565
B2 Mg0 2.523143 1_555
B2 Mg1 2.804019 1_655
B2 Mg1 2.804019 1_565
B3 Mg1 2.523144 1_555
B3 Mg0 2.804019 1_545
B3 Mg0 2.804019 1_554
B4 N1 1.521743 1_556
B5 N1 1.521743 1_565
B6 N1 1.521743 1_655
B7 N0 1.521743 1_554
B8 N0 1.521743 1_545
B9 N0 1.521743 1_455
B10 B16 1.694275 1_555
B10 B11 1.771960 1_555
B10 B12 1.771960 1_555
B10 B9 1.792860 1_555
B10 B8 1.792860 1_555
B10 B4 1.797072 1_555
B11 B17 1.694275 1_555
B11 B12 1.771960 1_555
B11 B9 1.792860 1_555
B11 B7 1.792860 1_555
B11 B5 1.797072 1_555
B12 B3 1.694275 1_555
B12 B8 1.792860 1_555
B12 B7 1.792860 1_555
B12 B6 1.797072 1_555
B13 B2 1.694275 1_555
B13 B14 1.771960 1_555
B13 B15 1.771960 1_555
B13 B5 1.792860 1_555
B13 B6 1.792860 1_555
B13 B7 1.797072 1_555
B14 B15 1.771960 1_555
B14 B6 1.792860 1_555
B14 B4 1.792860 1_555
B14 B8 1.797072 1_555
B15 B5 1.792860 1_555
B15 B4 1.792860 1_555
B15 B9 1.797072 1_555
B16 B3 1.741891 1_456
B16 B17 1.741891 1_546
B16 Mg1 2.523143 1_555
B16 Mg0 2.804019 1_455
B16 Mg0 2.804019 1_545
B17 B3 1.741891 1_465
B17 B2 1.761188 1_455
B17 Mg1 2.523144 1_555
B17 Mg0 2.804019 1_455
B17 Mg0 2.804019 1_554
