# generated using pymatgen
data_Sr6TeMoO12
_symmetry_space_group_name_H-M   'P 1'
_cell_length_a   6.06485940
_cell_length_b   5.84364036
_cell_length_c   10.21412620
_cell_angle_alpha   54.99521868
_cell_angle_beta   90.08182546
_cell_angle_gamma   89.85786509
_symmetry_Int_Tables_number   1
_chemical_formula_structural   Sr6TeMoO12
_chemical_formula_sum   'Sr6 Te1 Mo1 O12'
_cell_volume   296.51086331
_cell_formula_units_Z   1
loop_
 _symmetry_equiv_pos_site_id
 _symmetry_equiv_pos_as_xyz
  1  'x, y, z'
loop_
 _atom_site_type_symbol
 _atom_site_label
 _atom_site_symmetry_multiplicity
 _atom_site_fract_x
 _atom_site_fract_y
 _atom_site_fract_z
 _atom_site_occupancy
  Sr  Sr0  1  0.50000000  0.50000000  0.50000000  1
  Sr  Sr1  1  0.94852389  0.73413371  0.25048711  1
  Sr  Sr2  1  0.45196380  0.26774828  0.24380547  1
  Sr  Sr3  1  0.00000000  0.50000000  0.00000000  1
  Sr  Sr4  1  0.54803620  0.73225172  0.75619453  1
  Sr  Sr5  1  0.05147611  0.26586629  0.74951289  1
  Te  Te0  1  0.00000000  0.00000000  0.50000000  1
  Mo  Mo0  1  0.50000000  0.00000000  0.00000000  1
  O  O0  1  0.45611425  0.12192086  0.78239908  1
  O  O1  1  0.23586649  0.77487868  0.05928377  1
  O  O2  1  0.17848013  0.31033214  0.45429147  1
  O  O3  1  0.67225019  0.68778518  0.04187619  1
  O  O4  1  0.73939755  0.23571538  0.43512559  1
  O  O5  1  0.95542523  0.88476123  0.71753367  1
  O  O6  1  0.04457477  0.11523877  0.28246633  1
  O  O7  1  0.26060245  0.76428462  0.56487441  1
  O  O8  1  0.32774981  0.31221482  0.95812381  1
  O  O9  1  0.82151987  0.68966786  0.54570853  1
  O  O10  1  0.76413351  0.22512132  0.94071623  1
  O  O11  1  0.54388575  0.87807914  0.21760092  1
loop_
_geom_bond_atom_site_label_1
_geom_bond_atom_site_label_2
_geom_bond_distance
_geom_bond_site_symmetry_2
Mo0 O8 1.922742 1_554
Mo0 O3 1.922742 1_545
Mo0 O11 1.923284 1_545
Mo0 O0 1.923284 1_554
Mo0 O10 1.939787 1_554
Mo0 O1 1.939787 1_545
O0 Sr0 2.442513 1_555
O0 Sr4 2.502186 1_545
O0 Sr5 2.550706 1_555
O1 Sr3 2.473462 1_555
O1 Sr1 2.527067 1_455
O1 Sr2 2.760031 1_555
O1 Sr5 3.008743 1_564
O2 Te0 1.928257 1_555
O2 Sr0 2.418802 1_555
O2 Sr1 2.543932 1_455
O2 Sr2 2.838512 1_555
O2 Sr5 2.976964 1_555
O3 Sr3 2.422480 1_655
O3 Sr2 2.505920 1_555
O3 Sr1 2.841697 1_555
O3 Sr4 2.876203 1_554
O4 Te0 1.942545 1_655
O4 Sr0 2.469408 1_555
O4 Sr2 2.541985 1_555
O4 Sr1 2.715082 1_555
O4 Sr4 3.117017 1_545
O5 Te0 1.936349 1_665
O5 Sr3 2.450468 1_656
O5 Sr5 2.499246 1_665
O5 Sr4 2.581624 1_555
O6 Te0 1.936349 1_555
O6 Sr3 2.450468 1_555
O6 Sr1 2.499246 1_445
O6 Sr2 2.581624 1_555
O7 Te0 1.942545 1_565
O7 Sr0 2.469408 1_555
O7 Sr4 2.541985 1_555
O7 Sr5 2.715082 1_555
O7 Sr2 3.117017 1_565
O8 Sr3 2.422480 1_556
O8 Sr4 2.505920 1_555
O8 Sr5 2.841697 1_555
O8 Sr2 2.876203 1_556
O9 Te0 1.928257 1_665
O9 Sr0 2.418802 1_555
O9 Sr5 2.543932 1_655
O9 Sr4 2.838512 1_555
O9 Sr1 2.976964 1_555
O10 Sr3 2.473462 1_656
O10 Sr5 2.527067 1_655
O10 Sr4 2.760031 1_555
O10 Sr1 3.008743 1_546
O11 Sr0 2.442513 1_555
O11 Sr2 2.502186 1_565
O11 Sr1 2.550706 1_555
