# generated using pymatgen
data_Zr6Zn20GaPd3
_symmetry_space_group_name_H-M   'P 1'
_cell_length_a   8.72531341
_cell_length_b   8.72531352
_cell_length_c   8.73046161
_cell_angle_alpha   59.98048769
_cell_angle_beta   59.98048728
_cell_angle_gamma   60.03903778
_symmetry_Int_Tables_number   1
_chemical_formula_structural   Zr6Zn20GaPd3
_chemical_formula_sum   'Zr6 Zn20 Ga1 Pd3'
_cell_volume   469.98502976
_cell_formula_units_Z   1
loop_
 _symmetry_equiv_pos_site_id
 _symmetry_equiv_pos_as_xyz
  1  'x, y, z'
loop_
 _atom_site_type_symbol
 _atom_site_label
 _atom_site_symmetry_multiplicity
 _atom_site_fract_x
 _atom_site_fract_y
 _atom_site_fract_z
 _atom_site_occupancy
  Zr  Zr0  1  0.71562933  0.28437067  0.28437067  1
  Zr  Zr1  1  0.28437067  0.71562933  0.71562933  1
  Zr  Zr2  1  0.28437067  0.71562933  0.28437067  1
  Zr  Zr3  1  0.71562933  0.28437067  0.71562933  1
  Zr  Zr4  1  0.28145572  0.28145572  0.71854428  1
  Zr  Zr5  1  0.71854428  0.71854428  0.28145572  1
  Zn  Zn0  1  0.12250892  0.12250892  0.12697609  1
  Zn  Zn1  1  0.87749108  0.87749108  0.87302391  1
  Zn  Zn2  1  0.12250892  0.12250892  0.62800607  1
  Zn  Zn3  1  0.12697609  0.62800607  0.12250892  1
  Zn  Zn4  1  0.87749108  0.87749108  0.37199393  1
  Zn  Zn5  1  0.87302391  0.37199393  0.87749108  1
  Zn  Zn6  1  0.62800607  0.12697609  0.12250892  1
  Zn  Zn7  1  0.37199393  0.87302391  0.87749108  1
  Zn  Zn8  1  0.50000000  0.00000000  0.00000000  1
  Zn  Zn9  1  0.00000000  0.50000000  0.50000000  1
  Zn  Zn10  1  0.00000000  0.50000000  0.00000000  1
  Zn  Zn11  1  0.50000000  0.00000000  0.50000000  1
  Zn  Zn12  1  0.33885106  0.33885106  0.34119643  1
  Zn  Zn13  1  0.66114894  0.66114894  0.65880357  1
  Zn  Zn14  1  0.33885106  0.33885106  0.98110346  1
  Zn  Zn15  1  0.34119643  0.98110346  0.33885106  1
  Zn  Zn16  1  0.66114894  0.66114894  0.01889654  1
  Zn  Zn17  1  0.65880357  0.01889654  0.66114894  1
  Zn  Zn18  1  0.98110346  0.34119643  0.33885106  1
  Zn  Zn19  1  0.01889654  0.65880357  0.66114894  1
  Ga  Ga0  1  0.50000000  0.50000000  0.50000000  1
  Pd  Pd0  1  0.00000000  0.00000000  0.50000000  1
  Pd  Pd1  1  0.50000000  0.50000000  0.00000000  1
  Pd  Pd2  1  0.00000000  0.00000000  0.00000000  1
loop_
_geom_bond_atom_site_label_1
_geom_bond_atom_site_label_2
_geom_bond_distance
_geom_bond_site_symmetry_2
Zn0 Zn8 2.689940 1_555
Zn0 Zn10 2.689940 1_555
Zn0 Zn15 2.735216 1_545
Zn0 Zn18 2.735216 1_455
Zn0 Zn14 2.737986 1_554
Zn0 Zr0 2.922160 1_455
Zn0 Zr2 2.922160 1_545
Zn0 Zr4 2.930261 1_554
Zn0 Zn4 3.021602 1_445
Zn0 Zn5 3.080326 1_454
Zn0 Zn7 3.080326 1_544
Zn1 Zn8 2.689940 1_566
Zn1 Zn10 2.689940 1_656
Zn1 Zn17 2.735216 1_565
Zn1 Zn19 2.735216 1_655
Zn1 Zn16 2.737986 1_556
Zn1 Zr1 2.922160 1_655
Zn1 Zr3 2.922160 1_565
Zn1 Zr5 2.930261 1_556
Zn1 Zn2 3.021602 1_665
Zn1 Zn3 3.080326 1_656
Zn1 Zn6 3.080326 1_566
Zn2 Zn9 2.689940 1_555
Zn2 Zr3 2.922160 1_455
Zn2 Zr1 2.922160 1_545
Zn2 Zr4 2.930261 1_555
Zn2 Zn5 3.080326 1_455
Zn2 Zn7 3.080326 1_545
Zn3 Zn9 2.689940 1_555
Zn3 Zr2 2.922160 1_555
Zn3 Zr1 2.922160 1_554
Zn3 Zr5 2.930261 1_455
Zn3 Zn7 3.021602 1_554
Zn3 Zn4 3.080326 1_455
Zn4 Zn9 2.689940 1_655
Zn4 Zr2 2.922160 1_655
Zn4 Zr0 2.922160 1_565
Zn4 Zr5 2.930261 1_555
Zn4 Zn6 3.080326 1_565
Zn5 Zn9 2.689940 1_655
Zn5 Zr3 2.922160 1_555
Zn5 Zr0 2.922160 1_556
Zn5 Zr4 2.930261 1_655
Zn5 Zn6 3.021602 1_556
Zn6 Zn8 2.689939 1_555
Zn6 Zr0 2.922160 1_555
Zn6 Zr3 2.922160 1_554
Zn6 Zr5 2.930261 1_545
Zn7 Zn8 2.689939 1_566
Zn7 Zr1 2.922160 1_555
Zn7 Zr2 2.922160 1_556
Zn7 Zr4 2.930261 1_565
Zn8 Zr5 3.110964 1_545
Zn8 Zr4 3.110964 1_554
Zn8 Zr3 3.112112 1_554
Zn8 Zr2 3.112112 1_545
Zn9 Zr4 3.110964 1_555
Zn9 Zr5 3.110964 1_455
Zn9 Zr2 3.112112 1_555
Zn9 Zr3 3.112112 1_455
Zn10 Zn16 2.517424 1_455
Zn10 Zn14 2.517424 1_554
Zn10 Zn19 2.517424 1_554
Zn10 Zn18 2.517424 1_455
Zn10 Zn3 2.689939 1_555
Zn10 Zn5 2.689939 1_454
Zn10 Zr5 3.110964 1_455
Zn10 Zr4 3.110964 1_554
Zn10 Zr1 3.112112 1_554
Zn10 Zr0 3.112112 1_455
Zn11 Zn15 2.517409 1_545
Zn11 Zn17 2.517409 1_555
Zn11 Zn13 2.517420 1_545
Zn11 Zn12 2.517420 1_555
Zn11 Zn4 2.689940 1_545
Zn11 Zn2 2.689940 1_555
Zn11 Zn7 2.689940 1_545
Zn11 Zn6 2.689940 1_555
Zn11 Zr4 3.110964 1_555
Zn11 Zr5 3.110964 1_545
Zn11 Zr0 3.112112 1_555
Zn11 Zr1 3.112112 1_545
Zn12 Zn9 2.517420 1_555
Zn12 Zn6 2.735212 1_555
Zn12 Zn3 2.735212 1_555
Zn12 Zn2 2.737982 1_555
Zn12 Zr4 2.881615 1_555
Zn12 Zr0 2.884950 1_555
Zn12 Zr2 2.884950 1_555
Zn13 Zn9 2.517420 1_655
Zn13 Zn7 2.735212 1_555
Zn13 Zn5 2.735212 1_555
Zn13 Zn4 2.737982 1_555
Zn13 Zr5 2.881615 1_555
Zn13 Zr1 2.884950 1_555
Zn13 Zr3 2.884950 1_555
Zn14 Zn8 2.517424 1_556
Zn14 Zn6 2.735202 1_556
Zn14 Zn3 2.735202 1_556
Zn14 Zr4 2.881632 1_555
Zn14 Zr3 2.884955 1_555
Zn14 Zr1 2.884955 1_555
Zn15 Zn8 2.517424 1_565
Zn15 Zn2 2.735202 1_565
Zn15 Zn6 2.737972 1_565
Zn15 Zr5 2.881620 1_555
Zn15 Zr1 2.884956 1_555
Zn15 Zr2 2.884967 1_555
Zn16 Zn8 2.517424 1_565
Zn16 Zn7 2.735202 1_554
Zn16 Zn5 2.735202 1_554
Zn16 Zr5 2.881632 1_555
Zn16 Zr2 2.884955 1_555
Zn16 Zr0 2.884955 1_555
Zn17 Zn8 2.517424 1_556
Zn17 Zn4 2.735202 1_545
Zn17 Zn7 2.737972 1_545
Zn17 Zr4 2.881620 1_555
Zn17 Zr0 2.884956 1_555
Zn17 Zr3 2.884967 1_555
Zn18 Zn9 2.517409 1_655
Zn18 Zn2 2.735202 1_655
Zn18 Zn3 2.737972 1_655
Zn18 Zr5 2.881620 1_555
Zn18 Zr3 2.884956 1_555
Zn18 Zr0 2.884967 1_555
Zn19 Zn9 2.517409 1_555
Zn19 Zn4 2.735202 1_455
Zn19 Zn5 2.737972 1_455
Zn19 Zr4 2.881620 1_555
Zn19 Zr2 2.884956 1_555
Zn19 Zr1 2.884967 1_555
Ga0 Zr3 2.662319 1_555
Ga0 Zr1 2.662319 1_555
Ga0 Zr2 2.662319 1_555
Ga0 Zr0 2.662319 1_555
Ga0 Zr5 2.695126 1_555
Ga0 Zr4 2.695126 1_555
Pd0 Zn15 2.533833 1_545
Pd0 Zn17 2.533833 1_455
Pd0 Zn18 2.533833 1_455
Pd0 Zn19 2.533833 1_545
Pd0 Zn2 2.658190 1_555
Pd0 Zn4 2.658190 1_445
Pd0 Zn1 2.658191 1_445
Pd0 Zn0 2.658191 1_555
Pd0 Zr1 3.115719 1_545
Pd0 Zr0 3.115719 1_455
Pd0 Zr3 3.115719 1_455
Pd0 Zr2 3.115719 1_545
Pd1 Zn14 2.533818 1_554
Pd1 Zn16 2.533818 1_555
Pd1 Zn12 2.533829 1_555
Pd1 Zn13 2.533829 1_554
Pd1 Zn5 2.658191 1_554
Pd1 Zn3 2.658191 1_555
Pd1 Zn7 2.658191 1_554
Pd1 Zn6 2.658191 1_555
Pd1 Zr2 3.115719 1_555
Pd1 Zr3 3.115719 1_554
Pd1 Zr0 3.115719 1_555
Pd1 Zr1 3.115719 1_554
Pd2 Zn0 2.650797 1_555
Pd2 Zn1 2.650797 1_444
Pd2 Zn7 2.650797 1_544
Pd2 Zn6 2.650797 1_455
Pd2 Zn5 2.650797 1_454
Pd2 Zn3 2.650797 1_545
Pd2 Zn4 2.650797 1_445
Pd2 Zn2 2.650797 1_554
