# generated using pymatgen
data_Hf10Si2Sn5Sb
_symmetry_space_group_name_H-M   'P 1'
_cell_length_a   8.56715710
_cell_length_b   8.57951152
_cell_length_c   5.76120227
_cell_angle_alpha   90.00000000
_cell_angle_beta   90.00000000
_cell_angle_gamma   120.04723529
_symmetry_Int_Tables_number   1
_chemical_formula_structural   Hf10Si2Sn5Sb
_chemical_formula_sum   'Hf10 Si2 Sn5 Sb1'
_cell_volume   366.55245946
_cell_formula_units_Z   1
loop_
 _symmetry_equiv_pos_site_id
 _symmetry_equiv_pos_as_xyz
  1  'x, y, z'
loop_
 _atom_site_type_symbol
 _atom_site_label
 _atom_site_symmetry_multiplicity
 _atom_site_fract_x
 _atom_site_fract_y
 _atom_site_fract_z
 _atom_site_occupancy
  Hf  Hf0  1  0.66728360  0.33333854  0.99909602  1
  Hf  Hf1  1  0.33272094  0.66605824  0.99909688  1
  Hf  Hf2  1  0.33272094  0.66605824  0.50090312  1
  Hf  Hf3  1  0.66728360  0.33333854  0.50090398  1
  Hf  Hf4  1  0.73784156  0.73782601  0.75000000  1
  Hf  Hf5  1  0.26213539  0.99997075  0.75000000  1
  Hf  Hf6  1  0.00000127  0.26294052  0.75000000  1
  Hf  Hf7  1  0.25648345  0.25639871  0.25000000  1
  Hf  Hf8  1  0.74350567  0.99992368  0.25000000  1
  Hf  Hf9  1  0.99999481  0.74262090  0.25000000  1
  Si  Si0  1  0.99998806  0.99979434  0.99378196  1
  Si  Si1  1  0.99998806  0.99979434  0.50621804  1
  Sn  Sn0  1  0.39420834  0.39352999  0.75000000  1
  Sn  Sn1  1  0.60586584  0.99949681  0.75000000  1
  Sn  Sn2  1  0.99991476  0.60835283  0.75000000  1
  Sn  Sn3  1  0.60333046  0.60303767  0.25000000  1
  Sn  Sn4  1  0.39673334  0.99986747  0.25000000  1
  Sb  Sb0  1  0.99999989  0.39765340  0.25000000  1
loop_
_geom_bond_atom_site_label_1
_geom_bond_atom_site_label_2
_geom_bond_distance
_geom_bond_site_symmetry_2
Hf0 Sb0 2.990627 1_556
Hf0 Sn4 3.001078 1_546
Hf0 Sn0 3.001532 1_555
Hf0 Sn3 3.002222 1_556
Hf0 Sn2 3.002340 1_555
Hf0 Sn1 3.005123 1_545
Hf1 Sb0 2.990668 1_456
Hf1 Sn3 3.001979 1_556
Hf1 Sn1 3.002563 1_555
Hf1 Sn4 3.003238 1_556
Hf1 Sn2 3.003393 1_455
Hf1 Sn0 3.006230 1_555
Hf2 Sb0 2.990668 1_455
Hf2 Sn3 3.001979 1_555
Hf2 Sn1 3.002563 1_555
Hf2 Sn4 3.003238 1_555
Hf2 Sn2 3.003393 1_455
Hf2 Sn0 3.006230 1_555
Hf3 Sb0 2.990627 1_555
Hf3 Sn4 3.001078 1_545
Hf3 Sn0 3.001532 1_555
Hf3 Sn3 3.002222 1_555
Hf3 Sn2 3.002340 1_555
Hf3 Sn1 3.005123 1_545
Hf4 Si0 2.648214 1_555
Hf4 Si1 2.648214 1_555
Hf4 Sn0 2.946833 1_555
Hf4 Sn2 2.961845 1_555
Hf4 Sn1 2.976643 1_555
Hf4 Sn3 3.103000 1_556
Hf4 Sn3 3.103000 1_555
Hf5 Si0 2.648213 1_455
Hf5 Si1 2.648213 1_455
Hf5 Sn1 2.946831 1_555
Hf5 Sn2 2.962573 1_455
Hf5 Sn0 2.975794 1_565
Hf5 Sn4 3.102995 1_555
Hf5 Sn4 3.102995 1_556
Hf6 Si0 2.658826 1_445
Hf6 Si1 2.658826 1_445
Hf6 Sn2 2.963840 1_455
Hf6 Sn1 2.977811 1_445
Hf6 Sn0 2.978550 1_555
Hf6 Sb0 3.103817 1_455
Hf6 Sb0 3.103817 1_456
Hf7 Si1 2.647602 1_445
Hf7 Si0 2.647602 1_444
Hf7 Sn3 2.970621 1_555
Hf7 Sn4 2.989312 1_545
Hf7 Sb0 2.993947 1_455
Hf7 Sn0 3.111926 1_554
Hf7 Sn0 3.111926 1_555
Hf8 Si1 2.647569 1_555
Hf8 Si0 2.647569 1_554
Hf8 Sn4 2.970612 1_555
Hf8 Sn3 2.990280 1_555
Hf8 Sb0 2.993930 1_565
Hf8 Sn1 3.111916 1_555
Hf8 Sn1 3.111916 1_554
Hf9 Si1 2.654688 1_555
Hf9 Si0 2.654688 1_554
Hf9 Sb0 2.959674 1_555
Hf9 Sn3 2.984466 1_555
Hf9 Sn4 2.985203 1_655
Hf9 Sn2 3.102269 1_554
Hf9 Sn2 3.102269 1_555
