# generated using pymatgen
data_Lu4Ta5ReSi8
_symmetry_space_group_name_H-M   'P 1'
_cell_length_a   6.90277080
_cell_length_b   6.90442072
_cell_length_c   12.76459932
_cell_angle_alpha   89.82729748
_cell_angle_beta   90.20603194
_cell_angle_gamma   90.00083625
_symmetry_Int_Tables_number   1
_chemical_formula_structural   Lu4Ta5ReSi8
_chemical_formula_sum   'Lu8 Ta10 Re2 Si16'
_cell_volume   608.34943166
_cell_formula_units_Z   2
loop_
 _symmetry_equiv_pos_site_id
 _symmetry_equiv_pos_as_xyz
  1  'x, y, z'
loop_
 _atom_site_type_symbol
 _atom_site_label
 _atom_site_symmetry_multiplicity
 _atom_site_fract_x
 _atom_site_fract_y
 _atom_site_fract_z
 _atom_site_occupancy
  Lu  Lu0  1  0.00290688  0.66039872  0.02963609  1
  Lu  Lu1  1  0.00039642  0.33761608  0.53273806  1
  Lu  Lu2  1  0.33970845  0.99903127  0.46755379  1
  Lu  Lu3  1  0.16213457  0.49811368  0.78286353  1
  Lu  Lu4  1  0.83859622  0.50037899  0.27985640  1
  Lu  Lu5  1  0.49922774  0.16141393  0.21736957  1
  Lu  Lu6  1  0.50083725  0.83995967  0.72022716  1
  Lu  Lu7  1  0.65959608  0.00052002  0.97012997  1
  Ta  Ta0  1  0.66930640  0.66810828  0.49933891  1
  Ta  Ta1  1  0.16618007  0.82902051  0.24862181  1
  Ta  Ta2  1  0.33102283  0.33289200  0.00017250  1
  Ta  Ta3  1  0.99486607  0.84582559  0.62674102  1
  Ta  Ta4  1  0.00308497  0.15533449  0.12639257  1
  Ta  Ta5  1  0.84293877  0.99039350  0.37183711  1
  Ta  Ta6  1  0.34505391  0.50477436  0.37619332  1
  Ta  Ta7  1  0.65457906  0.49568433  0.87646704  1
  Ta  Ta8  1  0.50545681  0.34388648  0.62539211  1
  Ta  Ta9  1  0.83155527  0.16742312  0.75108519  1
  Re  Re0  1  0.49064401  0.66223828  0.12193426  1
  Re  Re1  1  0.16260620  0.00102281  0.87475454  1
  Si  Si0  1  0.04217732  0.70123170  0.43677882  1
  Si  Si1  1  0.63518616  0.29408824  0.43063019  1
  Si  Si2  1  0.36782947  0.70816941  0.93095032  1
  Si  Si3  1  0.20436608  0.13205898  0.68345825  1
  Si  Si4  1  0.29621576  0.63487859  0.57005578  1
  Si  Si5  1  0.70166684  0.37508592  0.06908372  1
  Si  Si6  1  0.78859672  0.86425750  0.17802954  1
  Si  Si7  1  0.13241601  0.20518155  0.31872650  1
  Si  Si8  1  0.96182769  0.29003431  0.93668284  1
  Si  Si9  1  0.70222525  0.04127581  0.56333015  1
  Si  Si10  1  0.20712847  0.46094599  0.18629833  1
  Si  Si11  1  0.79775008  0.54241646  0.68728505  1
  Si  Si12  1  0.45579334  0.20207301  0.81536218  1
  Si  Si13  1  0.53834208  0.79603942  0.31075679  1
  Si  Si14  1  0.29545123  0.95904041  0.06263859  1
  Si  Si15  1  0.87233051  0.79918558  0.82062500  1
loop_
_geom_bond_atom_site_label_1
_geom_bond_atom_site_label_2
_geom_bond_distance
_geom_bond_site_symmetry_2
Lu0 Si6 2.791733 1_455
Lu0 Si10 2.801029 1_555
Lu0 Si8 2.836034 1_454
Lu0 Si2 2.839213 1_554
Lu0 Si5 2.908509 1_455
Lu0 Si14 2.916493 1_555
Lu0 Si15 2.969154 1_454
Lu0 Re1 3.262259 1_564
Lu1 Si3 2.768043 1_555
Lu1 Si0 2.805420 1_555
Lu1 Si11 2.807946 1_455
Lu1 Si1 2.850096 1_455
Lu1 Si9 2.928463 1_455
Lu1 Si4 2.933903 1_555
Lu1 Si7 3.026901 1_555
Lu2 Si7 2.765234 1_565
Lu2 Si9 2.796726 1_565
Lu2 Si13 2.808345 1_555
Lu2 Si4 2.847196 1_555
Lu2 Si1 2.921189 1_565
Lu2 Si0 2.932404 1_555
Lu2 Si3 3.057021 1_565
Lu3 Si2 2.773031 1_555
Lu3 Si8 2.798814 1_455
Lu3 Si11 2.807894 1_455
Lu3 Si3 2.846884 1_555
Lu3 Si12 2.906529 1_555
Lu3 Si15 2.927173 1_455
Lu3 Si4 3.021544 1_555
Lu4 Si1 2.776143 1_555
Lu4 Si0 2.811866 1_655
Lu4 Si10 2.827638 1_655
Lu4 Si6 2.845639 1_555
Lu4 Si7 2.915573 1_655
Lu4 Si13 2.937552 1_555
Lu4 Si5 2.979240 1_555
Lu4 Re0 3.321580 1_555
Lu5 Si5 2.777411 1_555
Lu5 Si14 2.797944 1_545
Lu5 Si13 2.799548 1_545
Lu5 Si7 2.863955 1_555
Lu5 Si6 2.909459 1_545
Lu5 Si10 2.913621 1_555
Lu5 Si1 3.021063 1_555
Lu6 Si4 2.769701 1_555
Lu6 Si12 2.800590 1_565
Lu6 Si9 2.806884 1_565
Lu6 Si15 2.876041 1_555
Lu6 Si3 2.909162 1_565
Lu6 Si11 2.934159 1_555
Lu6 Si2 2.984781 1_555
Lu6 Re1 3.259558 1_565
Lu7 Si15 2.786902 1_545
Lu7 Si12 2.789616 1_555
Lu7 Si14 2.795337 1_546
Lu7 Si2 2.894722 1_545
Lu7 Si5 2.895691 1_556
Lu7 Si8 2.920875 1_555
Lu7 Si6 2.947617 1_546
Lu7 Re0 3.249457 1_546
Re0 Si10 2.537947 1_555
Re0 Si5 2.553999 1_555
Re0 Si14 2.563414 1_555
Re0 Si6 2.585266 1_555
Re0 Si2 2.596687 1_554
Re0 Si13 2.603619 1_555
Re0 Ta2 2.968069 1_555
Re0 Ta1 2.999117 1_555
Re1 Si15 2.535753 1_445
Re1 Si8 2.558318 1_455
Re1 Si2 2.567834 1_545
Re1 Si12 2.569446 1_555
Re1 Si14 2.580035 1_546
Re1 Si3 2.618368 1_555
Re1 Ta9 2.999518 1_455
Re1 Ta2 3.028765 1_556
Si0 Si4 2.480510 1_555
Si0 Ta5 2.558614 1_455
Si0 Ta6 2.612846 1_555
Si0 Ta3 2.646364 1_455
Si0 Ta1 2.698430 1_555
Si0 Ta0 2.707087 1_455
Si1 Si9 2.471179 1_555
Si1 Ta6 2.567829 1_555
Si1 Ta5 2.652130 1_545
Si1 Ta8 2.668666 1_555
Si1 Ta0 2.739629 1_555
Si2 Ta7 2.563207 1_555
Si2 Ta2 2.747133 1_556
Si3 Ta3 2.553842 1_445
Si3 Ta8 2.648102 1_555
Si3 Ta9 2.728476 1_455
Si4 Ta8 2.570186 1_555
Si4 Ta3 2.643695 1_455
Si4 Ta6 2.657728 1_555
Si4 Ta0 2.741420 1_555
Si5 Si8 2.540461 1_554
Si5 Ta7 2.612657 1_554
Si5 Ta4 2.673692 1_655
Si5 Ta2 2.718404 1_555
Si6 Ta4 2.581555 1_665
Si6 Ta5 2.650573 1_555
Si6 Ta1 2.765161 1_655
Si7 Ta5 2.579772 1_445
Si7 Ta4 2.632890 1_555
Si7 Ta6 2.640561 1_555
Si7 Ta1 2.759698 1_545
Si8 Ta4 2.606054 1_656
Si8 Ta7 2.662096 1_555
Si8 Ta9 2.671064 1_555
Si8 Ta2 2.688049 1_656
Si9 Ta3 2.557047 1_545
Si9 Ta8 2.618320 1_555
Si9 Ta5 2.657798 1_545
Si9 Ta9 2.701208 1_555
Si9 Ta0 2.714507 1_545
Si10 Si7 2.496010 1_555
Si10 Ta6 2.619404 1_555
Si10 Ta4 2.650055 1_555
Si10 Ta2 2.680470 1_555
Si10 Ta1 2.680487 1_555
Si11 Si15 2.513319 1_555
Si11 Ta8 2.562987 1_555
Si11 Ta3 2.614342 1_555
Si11 Ta7 2.631477 1_555
Si11 Ta0 2.695713 1_555
Si11 Ta9 2.721601 1_555
Si12 Si3 2.462623 1_555
Si12 Ta7 2.569549 1_555
Si12 Ta8 2.635905 1_555
Si12 Ta2 2.673967 1_556
Si12 Ta9 2.733990 1_555
Si13 Si6 2.468298 1_555
Si13 Ta6 2.553396 1_555
Si13 Ta5 2.612236 1_555
Si13 Ta1 2.695307 1_555
Si13 Ta0 2.713576 1_555
Si14 Si2 2.469626 1_554
Si14 Ta4 2.567199 1_565
Si14 Ta1 2.690796 1_555
Si14 Ta2 2.710681 1_565
Si15 Ta3 2.637094 1_555
Si15 Ta7 2.675274 1_555
Si15 Ta9 2.704791 1_565
