# generated using pymatgen
data_Rb2Si2Te5
_symmetry_space_group_name_H-M   'P 1'
_cell_length_a   12.32813828
_cell_length_b   12.32813849
_cell_length_c   10.05089045
_cell_angle_alpha   80.42642218
_cell_angle_beta   80.42641730
_cell_angle_gamma   89.96597437
_symmetry_Int_Tables_number   1
_chemical_formula_structural   Rb2Si2Te5
_chemical_formula_sum   'Rb8 Si8 Te20'
_cell_volume   1484.73587018
_cell_formula_units_Z   4
loop_
 _symmetry_equiv_pos_site_id
 _symmetry_equiv_pos_as_xyz
  1  'x, y, z'
loop_
 _atom_site_type_symbol
 _atom_site_label
 _atom_site_symmetry_multiplicity
 _atom_site_fract_x
 _atom_site_fract_y
 _atom_site_fract_z
 _atom_site_occupancy
  Rb  Rb0  1  0.78885002  0.52467553  0.11499958  1
  Rb  Rb1  1  0.47532447  0.21114998  0.38500042  1
  Rb  Rb2  1  0.21114998  0.47532447  0.88500042  1
  Rb  Rb3  1  0.52467553  0.78885002  0.61499958  1
  Rb  Rb4  1  0.04887465  0.21131751  0.38950743  1
  Rb  Rb5  1  0.78868249  0.95112535  0.11049257  1
  Rb  Rb6  1  0.95112535  0.78868249  0.61049257  1
  Rb  Rb7  1  0.21131751  0.04887465  0.88950743  1
  Si  Si0  1  0.73256750  0.46896432  0.60146353  1
  Si  Si1  1  0.53103568  0.26743250  0.89853647  1
  Si  Si2  1  0.26743250  0.53103568  0.39853647  1
  Si  Si3  1  0.46896432  0.73256750  0.10146353  1
  Si  Si4  1  0.13584151  0.73089188  0.11121705  1
  Si  Si5  1  0.26910812  0.86415849  0.38878295  1
  Si  Si6  1  0.86415849  0.26910812  0.88878295  1
  Si  Si7  1  0.73089188  0.13584151  0.61121705  1
  Te  Te0  1  0.88900197  0.45599427  0.73877172  1
  Te  Te1  1  0.54400573  0.11099803  0.76122828  1
  Te  Te2  1  0.11099803  0.54400573  0.26122828  1
  Te  Te3  1  0.45599427  0.88900197  0.23877172  1
  Te  Te4  1  0.24634530  0.68004345  0.54825861  1
  Te  Te5  1  0.31995655  0.75365470  0.95174139  1
  Te  Te6  1  0.75365470  0.31995655  0.45174139  1
  Te  Te7  1  0.68004345  0.24634530  0.04825861  1
  Te  Te8  1  0.75750587  0.64379193  0.44646854  1
  Te  Te9  1  0.35620807  0.24249413  0.05353146  1
  Te  Te10  1  0.24249413  0.35620807  0.55353146  1
  Te  Te11  1  0.64379193  0.75750587  0.94646854  1
  Te  Te12  1  0.00588270  0.24616746  0.03176258  1
  Te  Te13  1  0.75383254  0.99411730  0.46823742  1
  Te  Te14  1  0.99411730  0.75383254  0.96823742  1
  Te  Te15  1  0.24616746  0.00588270  0.53176258  1
  Te  Te16  1  0.88650433  0.11349567  0.75000000  1
  Te  Te17  1  0.11349567  0.88650433  0.25000000  1
  Te  Te18  1  0.54492213  0.45507787  0.75000000  1
  Te  Te19  1  0.45507787  0.54492213  0.25000000  1
loop_
_geom_bond_atom_site_label_1
_geom_bond_atom_site_label_2
_geom_bond_distance
_geom_bond_site_symmetry_2
Rb0 Te11 3.700065 1_554
Rb0 Te14 3.733822 1_554
Rb0 Te8 3.821450 1_555
Rb0 Te6 3.832048 1_555
Rb0 Te7 3.885029 1_555
Rb0 Te0 4.006408 1_554
Rb0 Te19 4.133907 1_555
Rb1 Te10 3.700065 1_555
Rb1 Te15 3.733822 1_555
Rb1 Te9 3.821450 1_555
Rb1 Te7 3.832048 1_555
Rb1 Te6 3.885029 1_555
Rb1 Te1 4.006409 1_555
Rb1 Te19 4.133907 1_555
Rb2 Te9 3.700065 1_556
Rb2 Te12 3.733822 1_556
Rb2 Te10 3.821450 1_555
Rb2 Te4 3.832048 1_555
Rb2 Te5 3.885029 1_555
Rb2 Te2 4.006408 1_556
Rb2 Te18 4.133907 1_555
Rb3 Te8 3.700065 1_555
Rb3 Te13 3.733822 1_555
Rb3 Te11 3.821450 1_555
Rb3 Te5 3.832048 1_555
Rb3 Te4 3.885029 1_555
Rb3 Te3 4.006409 1_555
Rb3 Te18 4.133907 1_555
Rb4 Te12 3.676140 1_555
Rb4 Te10 3.728215 1_555
Rb4 Te15 3.784087 1_555
Rb4 Te16 3.837485 1_455
Rb4 Te6 3.866097 1_455
Rb4 Te2 4.121519 1_555
Rb5 Te13 3.676140 1_555
Rb5 Te11 3.728215 1_554
Rb5 Te14 3.784087 1_554
Rb5 Te16 3.837485 1_564
Rb5 Te7 3.866097 1_565
Rb5 Te3 4.121519 1_555
Rb6 Te14 3.676140 1_555
Rb6 Te8 3.728215 1_555
Rb6 Te13 3.784087 1_555
Rb6 Te17 3.837485 1_655
Rb6 Te4 3.866097 1_655
Rb6 Te0 4.121519 1_555
Rb7 Te15 3.676140 1_555
Rb7 Te9 3.728215 1_556
Rb7 Te12 3.784087 1_556
Rb7 Te17 3.837485 1_546
Rb7 Te5 3.866097 1_545
Rb7 Te1 4.121519 1_555
Si0 Te8 2.427207 1_555
Si0 Te18 2.525126 1_555
Si0 Te0 2.541846 1_555
Si0 Te6 2.548621 1_555
Si1 Te9 2.427207 1_556
Si1 Te18 2.525126 1_555
Si1 Te1 2.541846 1_555
Si1 Te7 2.548621 1_556
Si2 Te10 2.427207 1_555
Si2 Te19 2.525126 1_555
Si2 Te2 2.541846 1_555
Si2 Te4 2.548621 1_555
Si3 Te11 2.427207 1_554
Si3 Te19 2.525126 1_555
Si3 Te3 2.541846 1_555
Si3 Te5 2.548621 1_554
Si4 Te14 2.428427 1_454
Si4 Te2 2.523308 1_555
Si4 Te5 2.537892 1_554
Si4 Te17 2.542357 1_555
Si5 Te15 2.428427 1_565
Si5 Te3 2.523308 1_555
Si5 Te4 2.537892 1_555
Si5 Te17 2.542357 1_555
Si6 Te12 2.428427 1_656
Si6 Te0 2.523308 1_555
Si6 Te7 2.537892 1_556
Si6 Te16 2.542357 1_555
Si7 Te13 2.428427 1_545
Si7 Te1 2.523308 1_555
Si7 Te6 2.537892 1_555
Si7 Te16 2.542357 1_555
