# generated using pymatgen
data_K4Al3Ga9Se20
_symmetry_space_group_name_H-M   'P 1'
_cell_length_a   13.34186573
_cell_length_b   7.50778169
_cell_length_c   11.07898478
_cell_angle_alpha   75.71758224
_cell_angle_beta   90.05444341
_cell_angle_gamma   90.04928197
_symmetry_Int_Tables_number   1
_chemical_formula_structural   K4Al3Ga9Se20
_chemical_formula_sum   'K4 Al3 Ga9 Se20'
_cell_volume   1075.45602547
_cell_formula_units_Z   1
loop_
 _symmetry_equiv_pos_site_id
 _symmetry_equiv_pos_as_xyz
  1  'x, y, z'
loop_
 _atom_site_type_symbol
 _atom_site_label
 _atom_site_symmetry_multiplicity
 _atom_site_fract_x
 _atom_site_fract_y
 _atom_site_fract_z
 _atom_site_occupancy
  K  K0  1  0.63205666  0.84164798  0.36118798  1
  K  K1  1  0.13152838  0.15619757  0.14075210  1
  K  K2  1  0.36981752  0.16110368  0.63944497  1
  K  K3  1  0.86728728  0.84346804  0.85815312  1
  Al  Al0  1  0.89640775  0.43680534  0.68943853  1
  Al  Al1  1  0.16056309  0.70383546  0.62817851  1
  Al  Al2  1  0.83893900  0.29696175  0.37169857  1
  Ga  Ga0  1  0.92282455  0.80366087  0.39892979  1
  Ga  Ga1  1  0.57666753  0.80419650  0.89806583  1
  Ga  Ga2  1  0.42330436  0.19618743  0.10182126  1
  Ga  Ga3  1  0.39444131  0.56115989  0.81039303  1
  Ga  Ga4  1  0.10519892  0.56037106  0.31065124  1
  Ga  Ga5  1  0.33840372  0.70430856  0.12837995  1
  Ga  Ga6  1  0.60528082  0.43922534  0.18949002  1
  Ga  Ga7  1  0.07691455  0.19484970  0.60196243  1
  Ga  Ga8  1  0.66185149  0.29670406  0.87121159  1
  Se  Se0  1  0.82467566  0.71551625  0.58115226  1
  Se  Se1  1  0.10666514  0.81350149  0.41433332  1
  Se  Se2  1  0.67559014  0.72124201  0.07996045  1
  Se  Se3  1  0.39316350  0.81514907  0.91281975  1
  Se  Se4  1  0.32424369  0.27917690  0.92007016  1
  Se  Se5  1  0.66596037  0.34588559  0.39694775  1
  Se  Se6  1  0.57662031  0.58027619  0.76574125  1
  Se  Se7  1  0.60676410  0.18555438  0.08675368  1
  Se  Se8  1  0.89310812  0.18753527  0.58567606  1
  Se  Se9  1  0.62662051  0.07831987  0.75168813  1
  Se  Se10  1  0.37342620  0.92205454  0.24832726  1
  Se  Se11  1  0.17600070  0.27892228  0.42050588  1
  Se  Se12  1  0.07661613  0.42157547  0.73282633  1
  Se  Se13  1  0.92279465  0.57862405  0.26677354  1
  Se  Se14  1  0.87478565  0.08019595  0.25393322  1
  Se  Se15  1  0.12451445  0.91877509  0.74749967  1
  Se  Se16  1  0.83649314  0.34617503  0.89520264  1
  Se  Se17  1  0.33364259  0.65515219  0.60306199  1
  Se  Se18  1  0.42301476  0.42016322  0.23415297  1
  Se  Se19  1  0.16381127  0.65552291  0.10281579  1
loop_
_geom_bond_atom_site_label_1
_geom_bond_atom_site_label_2
_geom_bond_distance
_geom_bond_site_symmetry_2
K0 Se7 3.485824 1_565
K0 Se2 3.500893 1_555
K0 Se0 3.506227 1_555
K0 Se10 3.668455 1_555
K0 Se5 3.672927 1_555
K0 Se14 3.748927 1_565
K0 Se5 3.928088 1_565
K1 Se1 3.474109 1_545
K1 Se11 3.494542 1_555
K1 Se4 3.512151 1_554
K1 Se14 3.644620 1_455
K1 Se19 3.692697 1_555
K1 Se10 3.727635 1_545
K1 Se19 3.908268 1_545
K2 Se3 3.483467 1_545
K2 Se4 3.490853 1_555
K2 Se11 3.505170 1_555
K2 Se9 3.644991 1_555
K2 Se17 3.663148 1_555
K2 Se15 3.791696 1_545
K2 Se17 3.946712 1_545
K3 Se8 3.472369 1_565
K3 Se0 3.480581 1_555
K3 Se2 3.509625 1_556
K3 Se15 3.641854 1_655
K3 Se16 3.676730 1_555
K3 Se9 3.713052 1_565
K3 Se16 3.917825 1_565
Al0 Se0 2.344441 1_555
Al0 Se16 2.352872 1_555
Al0 Se8 2.426342 1_555
Al0 Se12 2.448680 1_655
Al1 Se17 2.365650 1_555
Al1 Se15 2.374466 1_555
Al1 Se1 2.417307 1_555
Al1 Se12 2.423948 1_555
Al2 Se5 2.364901 1_555
Al2 Se14 2.372709 1_555
Al2 Se8 2.419518 1_555
Al2 Se13 2.420807 1_555
Ga0 Se0 2.360669 1_555
Ga0 Se14 2.378353 1_565
Ga0 Se1 2.460855 1_655
Ga0 Se13 2.493753 1_555
Ga1 Se2 2.359650 1_556
Ga1 Se9 2.379635 1_565
Ga1 Se3 2.456690 1_555
Ga1 Se6 2.488273 1_555
Ga2 Se4 2.359441 1_554
Ga2 Se10 2.380072 1_545
Ga2 Se7 2.456245 1_555
Ga2 Se18 2.488683 1_555
Ga3 Se4 2.359049 1_555
Ga3 Se17 2.372746 1_555
Ga3 Se3 2.447867 1_555
Ga3 Se6 2.477868 1_555
Ga4 Se11 2.360285 1_555
Ga4 Se19 2.369535 1_555
Ga4 Se1 2.451242 1_555
Ga4 Se13 2.478512 1_455
Ga5 Se19 2.385139 1_555
Ga5 Se10 2.392956 1_555
Ga5 Se3 2.439552 1_554
Ga5 Se18 2.442689 1_555
Ga6 Se2 2.359355 1_555
Ga6 Se5 2.373177 1_555
Ga6 Se7 2.448008 1_555
Ga6 Se18 2.479028 1_555
Ga7 Se11 2.359052 1_555
Ga7 Se15 2.377105 1_545
Ga7 Se8 2.460339 1_455
Ga7 Se12 2.493445 1_555
Ga8 Se16 2.384063 1_555
Ga8 Se9 2.394035 1_555
Ga8 Se7 2.440919 1_556
Ga8 Se6 2.442398 1_555
