# generated using pymatgen
data_SrMgInGa2
_symmetry_space_group_name_H-M   'P 1'
_cell_length_a   6.66714402
_cell_length_b   6.66714490
_cell_length_c   6.66714431
_cell_angle_alpha   140.59816377
_cell_angle_beta   140.59817636
_cell_angle_gamma   56.94618475
_symmetry_Int_Tables_number   1
_chemical_formula_structural   SrMgInGa2
_chemical_formula_sum   'Sr1 Mg1 In1 Ga2'
_cell_volume   118.42210742
_cell_formula_units_Z   1
loop_
 _symmetry_equiv_pos_site_id
 _symmetry_equiv_pos_as_xyz
  1  'x, y, z'
loop_
 _atom_site_type_symbol
 _atom_site_label
 _atom_site_symmetry_multiplicity
 _atom_site_fract_x
 _atom_site_fract_y
 _atom_site_fract_z
 _atom_site_occupancy
  Sr  Sr0  1  0.00000000  0.00000000  0.00000000  1
  Mg  Mg0  1  0.25000000  0.75000000  0.50000000  1
  In  In0  1  0.75000000  0.25000000  0.50000000  1
  Ga  Ga0  1  0.39298214  0.39298214  1.00000000  1
  Ga  Ga1  1  0.60701786  0.60701786  0.00000000  1
loop_
_geom_bond_atom_site_label_1
_geom_bond_atom_site_label_2
_geom_bond_distance
_geom_bond_site_symmetry_2
Mg0 Sr0 3.693030 1_666
Mg0 Sr0 3.693030 1_565
Mg0 Sr0 3.693030 1_566
Mg0 Sr0 3.693031 1_555
In0 Mg0 3.178534 1_656
In0 Mg0 3.178534 1_544
In0 Mg0 3.178534 1_555
In0 Mg0 3.178534 1_645
In0 Sr0 3.693030 1_555
In0 Sr0 3.693030 1_656
In0 Sr0 3.693030 1_655
In0 Sr0 3.693031 1_666
Ga0 Ga1 2.508796 1_556
Ga0 In0 2.803630 1_455
Ga0 In0 2.803631 1_556
Ga0 Mg0 2.803631 1_556
Ga0 Mg0 2.803631 1_545
Ga0 Sr0 3.417103 1_667
Ga0 Sr0 3.417103 1_555
Ga0 Sr0 3.417103 1_656
Ga0 Sr0 3.417103 1_566
Ga1 Mg0 2.803630 1_655
Ga1 Mg0 2.803631 1_554
Ga1 In0 2.803631 1_554
Ga1 In0 2.803631 1_565
Ga1 Sr0 3.417103 1_554
Ga1 Sr0 3.417103 1_666
Ga1 Sr0 3.417103 1_565
Ga1 Sr0 3.417103 1_655
