# generated using pymatgen
data_K3H6Ir
_symmetry_space_group_name_H-M   'P 1'
_cell_length_a   5.89687249
_cell_length_b   5.89687187
_cell_length_c   5.89687260
_cell_angle_alpha   59.99999589
_cell_angle_beta   59.99999935
_cell_angle_gamma   59.99999611
_symmetry_Int_Tables_number   1
_chemical_formula_structural   K3H6Ir
_chemical_formula_sum   'K3 H6 Ir1'
_cell_volume   144.99403887
_cell_formula_units_Z   1
loop_
 _symmetry_equiv_pos_site_id
 _symmetry_equiv_pos_as_xyz
  1  'x, y, z'
loop_
 _atom_site_type_symbol
 _atom_site_label
 _atom_site_symmetry_multiplicity
 _atom_site_fract_x
 _atom_site_fract_y
 _atom_site_fract_z
 _atom_site_occupancy
  K  K0  1  0.75000000  0.75000000  0.75000000  1
  K  K1  1  0.25000000  0.25000000  0.25000000  1
  K  K2  1  0.50000000  0.50000000  0.50000000  1
  H  H0  1  0.79917870  0.79917870  0.20082130  1
  H  H1  1  0.20082130  0.79917870  0.20082130  1
  H  H2  1  0.79917870  0.20082130  0.20082130  1
  H  H3  1  0.20082130  0.20082130  0.79917870  1
  H  H4  1  0.79917870  0.20082130  0.79917870  1
  H  H5  1  0.20082130  0.79917870  0.79917870  1
  Ir  Ir0  1  0.00000000  0.00000000  0.00000000  1
loop_
_geom_bond_atom_site_label_1
_geom_bond_atom_site_label_2
_geom_bond_distance
_geom_bond_site_symmetry_2
H0 Ir0 1.674736 1_665
H0 K2 2.494982 1_555
H0 K1 2.976823 1_655
H0 K1 2.976823 1_565
H0 K0 2.976823 1_555
H0 K0 2.976823 1_554
H1 Ir0 1.674737 1_565
H1 K2 2.494982 1_555
H1 K1 2.976823 1_555
H1 K1 2.976823 1_565
H1 K0 2.976823 1_554
H1 K0 2.976823 1_455
H2 Ir0 1.674737 1_655
H2 K2 2.494982 1_555
H2 K0 2.976823 1_554
H2 K0 2.976823 1_545
H2 K1 2.976823 1_555
H2 K1 2.976823 1_655
H3 Ir0 1.674736 1_556
H3 K2 2.494982 1_555
H3 K0 2.976823 1_455
H3 K0 2.976823 1_545
H3 K1 2.976823 1_555
H3 K1 2.976823 1_556
H4 Ir0 1.674737 1_656
H4 K2 2.494982 1_555
H4 K0 2.976823 1_555
H4 K0 2.976823 1_545
H4 K1 2.976823 1_556
H4 K1 2.976823 1_655
H5 Ir0 1.674737 1_566
H5 K2 2.494982 1_555
H5 K1 2.976823 1_556
H5 K1 2.976823 1_565
H5 K0 2.976823 1_555
H5 K0 2.976823 1_455
