# generated using pymatgen
data_Si2S3I2
_symmetry_space_group_name_H-M   'P 1'
_cell_length_a   10.96718890
_cell_length_b   10.96836415
_cell_length_c   9.52534148
_cell_angle_alpha   89.99863545
_cell_angle_beta   89.99744766
_cell_angle_gamma   120.00635411
_symmetry_Int_Tables_number   1
_chemical_formula_structural   Si2S3I2
_chemical_formula_sum   'Si8 S12 I8'
_cell_volume   992.24874491
_cell_formula_units_Z   4
loop_
 _symmetry_equiv_pos_site_id
 _symmetry_equiv_pos_as_xyz
  1  'x, y, z'
loop_
 _atom_site_type_symbol
 _atom_site_label
 _atom_site_symmetry_multiplicity
 _atom_site_fract_x
 _atom_site_fract_y
 _atom_site_fract_z
 _atom_site_occupancy
  Si  Si0  1  0.80790904  0.28009986  0.77009029  1
  Si  Si1  1  0.47214371  0.19204979  0.77011503  1
  Si  Si2  1  0.33331103  0.66669928  0.94595375  1
  Si  Si3  1  0.19209096  0.71990014  0.22990971  1
  Si  Si4  1  0.52785629  0.80795021  0.22988497  1
  Si  Si5  1  0.28014664  0.47218572  0.22985678  1
  Si  Si6  1  0.66668897  0.33330072  0.05404625  1
  Si  Si7  1  0.71985336  0.52781428  0.77014322  1
  S  S0  1  0.60941506  0.12409417  0.68745907  1
  S  S1  1  0.18087428  0.72362160  0.00689260  1
  S  S2  1  0.54271875  0.81911791  0.00687304  1
  S  S3  1  0.27635242  0.45731769  0.00683200  1
  S  S4  1  0.45728125  0.18088209  0.99312696  1
  S  S5  1  0.72364758  0.54268231  0.99316800  1
  S  S6  1  0.81912572  0.27637840  0.99310740  1
  S  S7  1  0.12411885  0.51462525  0.31250478  1
  S  S8  1  0.51460316  0.39050790  0.68747323  1
  S  S9  1  0.87588115  0.48537475  0.68749522  1
  S  S10  1  0.39058494  0.87590583  0.31254093  1
  S  S11  1  0.48539684  0.60949210  0.31252677  1
  I  I0  1  0.97806555  0.21718030  0.68481764  1
  I  I1  1  0.78287700  0.76092901  0.68498008  1
  I  I2  1  0.02193445  0.78281970  0.31518236  1
  I  I3  1  0.76101211  0.97804413  0.31508941  1
  I  I4  1  0.21712300  0.23907099  0.31501992  1
  I  I5  1  0.66670372  0.33331731  0.30844018  1
  I  I6  1  0.33329628  0.66668269  0.69155982  1
  I  I7  1  0.23898789  0.02195587  0.68491059  1
loop_
_geom_bond_atom_site_label_1
_geom_bond_atom_site_label_2
_geom_bond_distance
_geom_bond_site_symmetry_2
S0 Si0 2.135642 1_555
S0 Si1 2.136396 1_555
S1 Si3 2.129448 1_555
S1 Si2 2.136722 1_554
S2 Si4 2.129333 1_555
S2 Si2 2.136821 1_554
S3 Si5 2.129456 1_555
S3 Si2 2.136762 1_554
S4 Si1 2.129333 1_555
S4 Si6 2.136821 1_556
S5 Si7 2.129456 1_555
S5 Si6 2.136762 1_556
S6 Si0 2.129448 1_555
S6 Si6 2.136722 1_556
S7 Si5 2.135696 1_555
S7 Si3 2.136628 1_555
S8 Si1 2.135616 1_555
S8 Si7 2.136530 1_555
S9 Si7 2.135696 1_555
S9 Si0 2.136628 1_555
S10 Si3 2.135642 1_555
S10 Si4 2.136396 1_555
S11 Si4 2.135616 1_555
S11 Si5 2.136530 1_555
I0 Si0 2.430330 1_555
I1 Si7 2.430162 1_555
I2 Si3 2.430330 1_555
I3 Si4 2.430366 1_555
I4 Si5 2.430162 1_555
I5 Si6 2.423189 1_555
I6 Si2 2.423189 1_555
I7 Si1 2.430366 1_555
