# generated using pymatgen
data_Ti8Al15Pt6W
_symmetry_space_group_name_H-M   'P 1'
_cell_length_a   8.67058356
_cell_length_b   8.67058528
_cell_length_c   8.67058412
_cell_angle_alpha   120.13631807
_cell_angle_beta   119.73080101
_cell_angle_gamma   90.11547799
_symmetry_Int_Tables_number   1
_chemical_formula_structural   Ti8Al15Pt6W
_chemical_formula_sum   'Ti8 Al15 Pt6 W1'
_cell_volume   461.37947595
_cell_formula_units_Z   1
loop_
 _symmetry_equiv_pos_site_id
 _symmetry_equiv_pos_as_xyz
  1  'x, y, z'
loop_
 _atom_site_type_symbol
 _atom_site_label
 _atom_site_symmetry_multiplicity
 _atom_site_fract_x
 _atom_site_fract_y
 _atom_site_fract_z
 _atom_site_occupancy
  Ti  Ti0  1  0.78953072  0.28954629  0.07563915  1
  Ti  Ti1  1  0.21390713  0.28954629  0.50001656  1
  Ti  Ti2  1  0.20938722  0.70938722  0.50000000  1
  Ti  Ti3  1  0.21390713  0.71389157  0.92436085  1
  Ti  Ti4  1  0.78953072  0.71389157  0.49998344  1
  Ti  Ti5  1  0.78449336  0.28449336  0.50000000  1
  Ti  Ti6  1  0.38142455  0.12129010  0.73986555  1
  Ti  Ti7  1  0.38142455  0.64156100  0.26013445  1
  Al  Al0  1  0.99683427  0.49683427  0.50000000  1
  Al  Al1  1  0.15527038  0.34576609  0.19049471  1
  Al  Al2  1  0.15527038  0.96477566  0.80950529  1
  Al  Al3  1  0.15354792  0.34527798  0.80826994  1
  Al  Al4  1  0.53700704  0.34527798  0.19173006  1
  Al  Al5  1  0.84472653  0.65359748  0.80887095  1
  Al  Al6  1  0.84472653  0.03585558  0.19112905  1
  Al  Al7  1  0.84294195  0.65552798  0.18741297  1
  Al  Al8  1  0.46811500  0.65552798  0.81258703  1
  Al  Al9  1  0.37955709  0.12138260  0.25817550  1
  Al  Al10  1  0.86320910  0.12138260  0.74182450  1
  Al  Al11  1  0.62067953  0.87935256  0.25867403  1
  Al  Al12  1  0.62067953  0.36200550  0.74132597  1
  Al  Al13  1  0.62134218  0.87932030  0.74202288  1
  Al  Al14  1  0.13729643  0.87932030  0.25797712  1
  Pt  Pt0  1  0.99931970  0.99879519  0.49974671  1
  Pt  Pt1  1  0.49904948  0.99879519  0.99947549  1
  Pt  Pt2  1  0.49936640  0.49936640  1.00000000  1
  Pt  Pt3  1  0.49904948  0.49957299  0.50025329  1
  Pt  Pt4  1  0.99931970  0.49957299  0.00052451  1
  Pt  Pt5  1  0.00017630  0.00017630  1.00000000  1
  W  W0  1  0.49890468  0.99890468  0.50000000  1
loop_
_geom_bond_atom_site_label_1
_geom_bond_atom_site_label_2
_geom_bond_distance
_geom_bond_site_symmetry_2
Ti0 Ti6 2.936304 1_554
Ti1 Ti6 2.936298 1_555
Ti2 Ti6 2.957838 1_565
Ti2 Ti7 2.957840 1_555
Ti3 Ti7 2.936292 1_556
Ti4 Ti7 2.936306 1_555
Ti6 W0 2.525598 1_545
Ti7 W0 2.525584 1_555
Al0 Ti5 2.601111 1_555
Al0 Ti2 2.603709 1_655
Al0 Ti3 2.605077 1_655
Al0 Ti0 2.605077 1_555
Al0 Ti1 2.605077 1_655
Al0 Ti4 2.605077 1_555
Al1 Pt4 2.514724 1_455
Al1 Pt3 2.514737 1_555
Al1 Pt5 2.515227 1_554
Al1 Ti2 2.758883 1_555
Al1 Ti0 2.767620 1_455
Al1 Ti1 2.767634 1_555
Al1 Al10 2.817985 1_454
Al1 Al9 2.817991 1_555
Al1 Ti7 2.835102 1_555
Al2 Pt0 2.514731 1_455
Al2 Pt1 2.514739 1_555
Al2 Pt5 2.515219 1_565
Al2 Ti2 2.758888 1_555
Al2 Ti4 2.767620 1_455
Al2 Ti3 2.767621 1_555
Al2 Al9 2.817989 1_566
Al2 Ti6 2.835095 1_565
Al3 Pt4 2.517075 1_456
Al3 Pt0 2.517076 1_445
Al3 Pt2 2.519707 1_555
Al3 Ti1 2.782529 1_555
Al3 Ti3 2.782537 1_555
Al3 Ti5 2.785126 1_455
Al3 Ti6 2.837006 1_555
Al3 Ti7 2.837009 1_556
Al4 Pt3 2.517064 1_555
Al4 Pt1 2.517079 1_544
Al4 Pt2 2.519709 1_554
Al4 Ti4 2.782540 1_555
Al4 Ti0 2.782545 1_555
Al4 Ti5 2.785129 1_555
Al4 Al9 2.802989 1_555
Al4 Ti6 2.837007 1_554
Al4 Ti7 2.837015 1_555
Al5 Pt5 2.522108 1_665
Al5 Pt3 2.523472 1_555
Al5 Pt4 2.523478 1_556
Al5 Ti5 2.772552 1_555
Al5 Ti3 2.794790 1_655
Al5 Ti4 2.794798 1_555
Al6 Pt5 2.522108 1_654
Al6 Pt1 2.523470 1_544
Al6 Pt0 2.523478 1_545
Al6 Ti5 2.772552 1_555
Al6 Ti1 2.794790 1_655
Al6 Ti0 2.794790 1_555
Al7 Pt4 2.505820 1_555
Al7 Pt0 2.505827 1_555
Al7 Pt2 2.514244 1_554
Al7 Ti4 2.772050 1_555
Al7 Ti0 2.772053 1_555
Al7 Ti2 2.800161 1_655
Al8 Pt1 2.505826 1_555
Al8 Pt3 2.505833 1_555
Al8 Pt2 2.514237 1_555
Al8 Ti3 2.772052 1_555
Al8 Ti1 2.772052 1_555
Al8 Ti2 2.800167 1_555
Al9 W0 2.585185 1_545
Al9 Pt3 2.673954 1_555
Al9 Pt1 2.673967 1_544
Al9 Pt5 2.693748 1_554
Al9 Ti5 2.902499 1_555
Al9 Ti1 2.917448 1_555
Al9 Ti3 2.917450 1_544
Al10 W0 2.585198 1_545
Al10 Pt0 2.673939 1_545
Al10 Pt4 2.673953 1_556
Al10 Pt5 2.693754 1_655
Al10 Al3 2.802976 1_655
Al10 Al2 2.817975 1_645
Al10 Ti5 2.902490 1_555
Al10 Ti4 2.917447 1_545
Al10 Ti0 2.917462 1_556
Al10 Al13 2.965208 1_545
Al10 Al11 2.965226 1_545
Al10 Al12 2.965238 1_555
Al11 W0 2.566212 1_555
Al11 Pt2 2.686631 1_554
Al11 Pt0 2.688157 1_555
Al11 Pt1 2.688165 1_554
Al11 Al8 2.802497 1_554
Al11 Al7 2.802499 1_555
Al11 Al6 2.806052 1_565
Al11 Ti5 2.896037 1_565
Al11 Ti4 2.926361 1_555
Al11 Ti3 2.926374 1_554
Al11 Ti7 2.930809 1_555
Al11 Al9 2.965238 1_565
Al12 W0 2.566213 1_545
Al12 Pt2 2.686638 1_555
Al12 Pt4 2.688157 1_556
Al12 Pt3 2.688158 1_555
Al12 Al7 2.802497 1_556
Al12 Al8 2.802497 1_555
Al12 Al5 2.806047 1_555
Al12 Ti5 2.896029 1_555
Al12 Ti1 2.926374 1_555
Al12 Ti0 2.926375 1_556
Al12 Ti6 2.930828 1_555
Al12 Al9 2.965226 1_555
Al13 W0 2.566194 1_555
Al13 Pt1 2.685261 1_555
Al13 Pt3 2.685275 1_555
Al13 Pt5 2.689957 1_665
Al13 Al8 2.809372 1_555
Al13 Al6 2.821113 1_566
Al13 Al5 2.821119 1_555
Al13 Ti0 2.934190 1_566
Al13 Ti4 2.934204 1_555
Al13 Ti6 2.957665 1_565
Al13 Ti7 2.957671 1_555
Al13 Ti2 2.961863 1_555
Al14 W0 2.566201 1_555
Al14 Pt0 2.685267 1_455
Al14 Pt4 2.685275 1_455
Al14 Pt5 2.689950 1_564
Al14 Al7 2.809363 1_455
Al14 Al6 2.821106 1_465
Al14 Al5 2.821111 1_454
Al14 Ti1 2.934189 1_565
Al14 Ti3 2.934196 1_554
Al14 Ti7 2.957665 1_555
Al14 Ti6 2.957671 1_565
Al14 Ti2 2.961870 1_555
Al14 Al9 2.965190 1_565
Pt0 Ti6 2.713493 1_665
Pt0 Ti4 3.066221 1_555
Pt0 Ti2 3.103915 1_655
Pt0 Ti1 3.128583 1_665
Pt1 Ti6 2.713493 1_565
Pt1 Ti3 3.066233 1_555
Pt1 Ti2 3.103916 1_555
Pt1 Ti0 3.128583 1_566
Pt2 Ti6 2.674644 1_555
Pt2 Ti7 2.674644 1_556
Pt2 Ti1 3.106357 1_555
Pt2 Ti4 3.106357 1_556
Pt2 Ti0 3.106364 1_556
Pt2 Ti3 3.106364 1_555
Pt3 Ti7 2.713508 1_555
Pt3 Ti1 3.066240 1_555
Pt3 Ti2 3.103922 1_555
Pt3 Ti4 3.128588 1_555
Pt4 Ti7 2.713493 1_655
Pt4 Ti0 3.066227 1_555
Pt4 Ti2 3.103915 1_655
Pt4 Ti3 3.128589 1_654
Pt5 Ti3 3.100857 1_545
Pt5 Ti0 3.100857 1_456
Pt5 Ti1 3.100863 1_556
Pt5 Ti4 3.100863 1_445
