# generated using pymatgen
data_KBaReN3
_symmetry_space_group_name_H-M   'P 1'
_cell_length_a   6.67042490
_cell_length_b   6.67042397
_cell_length_c   13.38984004
_cell_angle_alpha   90.00000000
_cell_angle_beta   90.00000000
_cell_angle_gamma   127.02671349
_symmetry_Int_Tables_number   1
_chemical_formula_structural   KBaReN3
_chemical_formula_sum   'K4 Ba4 Re4 N12'
_cell_volume   475.63990684
_cell_formula_units_Z   4
loop_
 _symmetry_equiv_pos_site_id
 _symmetry_equiv_pos_as_xyz
  1  'x, y, z'
loop_
 _atom_site_type_symbol
 _atom_site_label
 _atom_site_symmetry_multiplicity
 _atom_site_fract_x
 _atom_site_fract_y
 _atom_site_fract_z
 _atom_site_occupancy
  K  K0  1  0.55178845  0.44821155  0.63212889  1
  K  K1  1  0.44821155  0.55178845  0.36787111  1
  K  K2  1  0.94821155  0.05178845  0.13212889  1
  K  K3  1  0.05178845  0.94821155  0.86787111  1
  Ba  Ba0  1  0.85325965  0.14674035  0.58580633  1
  Ba  Ba1  1  0.14674035  0.85325965  0.41419367  1
  Ba  Ba2  1  0.64674035  0.35325965  0.08580633  1
  Ba  Ba3  1  0.35325965  0.64674035  0.91419367  1
  Re  Re0  1  0.72472689  0.27527311  0.83526238  1
  Re  Re1  1  0.27527311  0.72472689  0.16473762  1
  Re  Re2  1  0.77527311  0.22472689  0.33526238  1
  Re  Re3  1  0.22472689  0.77527311  0.66473762  1
  N  N0  1  0.82108992  0.17891008  0.94082146  1
  N  N1  1  0.17891008  0.82108992  0.05917854  1
  N  N2  1  0.67891008  0.32108992  0.44082146  1
  N  N3  1  0.32108992  0.67891008  0.55917854  1
  N  N4  1  0.58311484  0.41688516  0.87984263  1
  N  N5  1  0.41688516  0.58311484  0.12015737  1
  N  N6  1  0.91688516  0.08311484  0.37984263  1
  N  N7  1  0.08311484  0.91688516  0.62015737  1
  N  N8  1  0.50489000  0.99511000  0.75000000  1
  N  N9  1  0.99511000  0.50489000  0.25000000  1
  N  N10  1  0.49511000  0.00489000  0.25000000  1
  N  N11  1  0.00489000  0.49511000  0.75000000  1
loop_
_geom_bond_atom_site_label_1
_geom_bond_atom_site_label_2
_geom_bond_distance
_geom_bond_site_symmetry_2
K0 N3 2.922729 1_555
K0 N2 2.977534 1_555
K0 N7 3.002643 1_545
K0 N7 3.002643 1_655
K0 N8 3.253438 1_545
K0 N11 3.253439 1_655
K0 N4 3.337873 1_555
K1 N2 2.922729 1_555
K1 N3 2.977534 1_555
K1 N6 3.002643 1_565
K1 N6 3.002643 1_455
K1 N10 3.253438 1_565
K1 N9 3.253439 1_455
K1 N5 3.337873 1_555
K2 N1 2.922729 1_645
K2 N0 2.977534 1_554
K2 N5 3.002643 1_655
K2 N5 3.002643 1_545
K2 N9 3.253438 1_555
K2 N10 3.253439 1_555
K2 N6 3.337873 1_555
K3 N0 2.922729 1_465
K3 N1 2.977534 1_556
K3 N4 3.002643 1_455
K3 N4 3.002643 1_565
K3 N11 3.253438 1_555
K3 N8 3.253439 1_555
K3 N7 3.337873 1_555
Ba0 N7 2.782876 1_645
Ba0 N2 2.846537 1_555
Ba0 N6 2.860552 1_555
Ba0 N11 2.902713 1_655
Ba0 N8 2.902713 1_545
Ba0 N3 3.020749 1_655
Ba0 N3 3.020749 1_545
Ba1 N6 2.782876 1_465
Ba1 N3 2.846537 1_555
Ba1 N7 2.860552 1_555
Ba1 N9 2.902713 1_455
Ba1 N10 2.902713 1_565
Ba1 N2 3.020749 1_455
Ba1 N2 3.020749 1_565
Ba2 N5 2.782876 1_555
Ba2 N0 2.846537 1_554
Ba2 N4 2.860552 1_554
Ba2 N10 2.902713 1_555
Ba2 N9 2.902713 1_555
Ba2 N1 3.020749 1_545
Ba2 N1 3.020749 1_655
Ba3 N4 2.782876 1_555
Ba3 N1 2.846537 1_556
Ba3 N5 2.860552 1_556
Ba3 N8 2.902713 1_555
Ba3 N11 2.902713 1_555
Ba3 N0 3.020749 1_565
Ba3 N0 3.020749 1_455
N0 Re0 1.822554 1_555
N1 Re1 1.822554 1_555
N2 Re2 1.822554 1_555
N3 Re3 1.822554 1_555
N4 Re0 1.793197 1_555
N5 Re1 1.793197 1_555
N6 Re2 1.793197 1_555
N7 Re3 1.793197 1_555
N8 Re0 1.909357 1_565
N8 Re3 1.909357 1_555
N9 Re2 1.909357 1_555
N9 Re1 1.909357 1_655
N10 Re1 1.909357 1_545
N10 Re2 1.909357 1_555
N11 Re3 1.909357 1_555
N11 Re0 1.909357 1_455
