# generated using pymatgen
data_Zr3Ti3Sn3Sb2
_symmetry_space_group_name_H-M   'P 1'
_cell_length_a   9.59508432
_cell_length_b   9.52369521
_cell_length_c   5.74574796
_cell_angle_alpha   90.00000000
_cell_angle_beta   90.00000000
_cell_angle_gamma   119.75418416
_symmetry_Int_Tables_number   1
_chemical_formula_structural   Zr3Ti3Sn3Sb2
_chemical_formula_sum   'Zr6 Ti6 Sn6 Sb4'
_cell_volume   455.82896158
_cell_formula_units_Z   2
loop_
 _symmetry_equiv_pos_site_id
 _symmetry_equiv_pos_as_xyz
  1  'x, y, z'
loop_
 _atom_site_type_symbol
 _atom_site_label
 _atom_site_symmetry_multiplicity
 _atom_site_fract_x
 _atom_site_fract_y
 _atom_site_fract_z
 _atom_site_occupancy
  Zr  Zr0  1  0.84066879  0.68984901  0.75000000  1
  Zr  Zr1  1  0.15933121  0.84918122  0.25000000  1
  Zr  Zr2  1  0.69145030  0.84730424  0.25000000  1
  Zr  Zr3  1  0.30854970  0.15585294  0.75000000  1
  Zr  Zr4  1  0.84690718  0.14934778  0.75000000  1
  Zr  Zr5  1  0.15309282  0.30243960  0.25000000  1
  Ti  Ti0  1  0.50177333  0.00257338  0.49914736  1
  Ti  Ti1  1  0.49822667  0.50080105  0.99914736  1
  Ti  Ti2  1  0.00000000  0.49847600  0.00000000  1
  Ti  Ti3  1  0.00000000  0.49847600  0.50000000  1
  Ti  Ti4  1  0.50177333  0.00257338  0.00085264  1
  Ti  Ti5  1  0.49822667  0.50080105  0.50085264  1
  Sn  Sn0  1  0.20847210  0.79276813  0.75000000  1
  Sn  Sn1  1  0.79152790  0.58429702  0.25000000  1
  Sn  Sn2  1  0.66848383  0.33521818  0.75000000  1
  Sn  Sn3  1  0.33151617  0.66673435  0.25000000  1
  Sn  Sn4  1  0.00000000  0.99458676  0.50000000  1
  Sn  Sn5  1  0.00000000  0.99458676  0.00000000  1
  Sb  Sb0  1  0.20677057  0.41726172  0.75000000  1
  Sb  Sb1  1  0.79322943  0.21049115  0.25000000  1
  Sb  Sb2  1  0.41860000  0.21249212  0.25000000  1
  Sb  Sb3  1  0.58140000  0.79389213  0.75000000  1
loop_
_geom_bond_atom_site_label_1
_geom_bond_atom_site_label_2
_geom_bond_distance
_geom_bond_site_symmetry_2
Ti0 Ti4 2.863076 1_555
Ti0 Ti4 2.882672 1_556
Ti0 Zr1 3.196141 1_545
Ti0 Zr2 3.196790 1_545
Ti0 Zr3 3.214349 1_555
Ti0 Zr4 3.225430 1_555
Ti1 Ti5 2.863076 1_555
Ti1 Ti5 2.882672 1_556
Ti1 Zr0 3.196140 1_555
Ti1 Zr3 3.196804 1_555
Ti1 Zr2 3.214349 1_556
Ti1 Zr5 3.225431 1_556
Ti2 Ti3 2.872874 1_554
Ti2 Ti3 2.872874 1_555
Ti2 Zr4 3.229370 1_454
Ti2 Zr5 3.229377 1_555
Ti2 Zr0 3.238515 1_454
Ti2 Zr1 3.238523 1_555
Ti3 Zr4 3.229370 1_455
Ti3 Zr5 3.229377 1_555
Ti3 Zr0 3.238515 1_455
Ti3 Zr1 3.238523 1_555
Ti4 Zr1 3.196141 1_545
Ti4 Zr2 3.196790 1_545
Ti4 Zr3 3.214349 1_554
Ti4 Zr4 3.225430 1_554
Ti5 Zr0 3.196140 1_555
Ti5 Zr3 3.196804 1_555
Ti5 Zr2 3.214349 1_555
Ti5 Zr5 3.225431 1_555
Sn0 Ti3 2.890559 1_555
Sn0 Ti2 2.890559 1_556
Sn0 Ti4 2.899753 1_566
Sn0 Ti0 2.899753 1_565
Sn0 Zr1 3.002635 1_555
Sn0 Zr1 3.002635 1_556
Sn0 Zr3 3.095716 1_565
Sn0 Zr0 3.159418 1_455
Sn1 Ti3 2.890565 1_655
Sn1 Ti2 2.890565 1_655
Sn1 Ti5 2.899753 1_555
Sn1 Ti1 2.899753 1_554
Sn1 Zr0 3.002630 1_554
Sn1 Zr0 3.002630 1_555
Sn1 Zr2 3.095716 1_555
Sn1 Zr1 3.159418 1_655
Sn2 Zr0 2.932227 1_555
Sn2 Zr3 2.998290 1_555
Sn2 Zr4 3.012039 1_555
Sn2 Ti4 3.105254 1_556
Sn2 Ti0 3.105254 1_555
Sn2 Ti2 3.112898 1_656
Sn2 Ti3 3.112898 1_655
Sn2 Ti1 3.124398 1_555
Sn2 Ti5 3.124398 1_555
Sn3 Zr1 2.932235 1_555
Sn3 Zr2 2.998290 1_555
Sn3 Zr5 3.012047 1_555
Sn3 Ti5 3.105246 1_555
Sn3 Ti1 3.105246 1_554
Sn3 Ti2 3.112898 1_555
Sn3 Ti3 3.112898 1_555
Sn3 Ti0 3.124391 1_565
Sn3 Ti4 3.124391 1_565
Sn4 Zr1 2.901647 1_555
Sn4 Zr0 2.901655 1_455
Sn4 Zr5 2.922741 1_565
Sn4 Zr4 2.922749 1_465
Sn4 Zr3 2.945158 1_565
Sn4 Zr2 2.945159 1_455
Sn5 Zr1 2.901647 1_555
Sn5 Zr0 2.901655 1_454
Sn5 Zr5 2.922741 1_565
Sn5 Zr4 2.922749 1_464
Sn5 Zr3 2.945158 1_564
Sn5 Zr2 2.945159 1_455
Sb0 Ti2 2.849717 1_556
Sb0 Ti3 2.849717 1_555
Sb0 Ti1 2.880029 1_555
Sb0 Ti5 2.880029 1_555
Sb0 Zr5 3.025799 1_556
Sb0 Zr5 3.025799 1_555
Sb0 Zr3 3.092715 1_555
Sb0 Zr4 3.112601 1_455
Sb1 Ti3 2.849717 1_655
Sb1 Ti2 2.849717 1_655
Sb1 Ti0 2.880031 1_555
Sb1 Ti4 2.880031 1_555
Sb1 Zr4 3.025796 1_555
Sb1 Zr4 3.025796 1_554
Sb1 Zr2 3.092706 1_545
Sb1 Zr5 3.112603 1_655
Sb2 Ti5 2.849244 1_555
Sb2 Ti1 2.849244 1_554
Sb2 Ti0 2.875170 1_555
Sb2 Ti4 2.875170 1_555
Sb2 Zr3 3.015632 1_554
Sb2 Zr3 3.015632 1_555
Sb2 Zr5 3.064309 1_555
Sb2 Zr1 3.101151 1_545
Sb3 Ti4 2.849236 1_566
Sb3 Ti0 2.849236 1_565
Sb3 Ti1 2.875162 1_555
Sb3 Ti5 2.875162 1_555
Sb3 Zr2 3.015631 1_555
Sb3 Zr2 3.015631 1_556
Sb3 Zr4 3.064315 1_565
Sb3 Zr0 3.101158 1_555
