# generated using pymatgen
data_SrNiPdO4
_symmetry_space_group_name_H-M   'P 1'
_cell_length_a   5.25216879
_cell_length_b   6.08844409
_cell_length_c   11.45270898
_cell_angle_alpha   90.00000000
_cell_angle_beta   90.00000000
_cell_angle_gamma   90.00000000
_symmetry_Int_Tables_number   1
_chemical_formula_structural   SrNiPdO4
_chemical_formula_sum   'Sr4 Ni4 Pd4 O16'
_cell_volume   366.22941411
_cell_formula_units_Z   4
loop_
 _symmetry_equiv_pos_site_id
 _symmetry_equiv_pos_as_xyz
  1  'x, y, z'
loop_
 _atom_site_type_symbol
 _atom_site_label
 _atom_site_symmetry_multiplicity
 _atom_site_fract_x
 _atom_site_fract_y
 _atom_site_fract_z
 _atom_site_occupancy
  Sr  Sr0  1  0.84761561  0.00000000  0.50000000  1
  Sr  Sr1  1  0.15238439  0.50000000  0.00000000  1
  Sr  Sr2  1  0.51412153  0.00000000  0.00000000  1
  Sr  Sr3  1  0.48587847  0.50000000  0.50000000  1
  Ni  Ni0  1  0.50153918  0.50000000  0.24131417  1
  Ni  Ni1  1  0.50153918  0.50000000  0.75868583  1
  Ni  Ni2  1  0.49846082  0.00000000  0.25868583  1
  Ni  Ni3  1  0.49846082  0.00000000  0.74131417  1
  Pd  Pd0  1  0.00000000  0.25000000  0.25000000  1
  Pd  Pd1  1  0.00000000  0.75000000  0.75000000  1
  Pd  Pd2  1  0.00000000  0.75000000  0.25000000  1
  Pd  Pd3  1  0.00000000  0.25000000  0.75000000  1
  O  O0  1  0.83812820  0.50000000  0.15933523  1
  O  O1  1  0.83812820  0.50000000  0.84066477  1
  O  O2  1  0.16187180  0.00000000  0.34066477  1
  O  O3  1  0.16187180  0.00000000  0.65933523  1
  O  O4  1  0.16638701  0.50000000  0.33683094  1
  O  O5  1  0.16638701  0.50000000  0.66316906  1
  O  O6  1  0.83361299  0.00000000  0.16316906  1
  O  O7  1  0.83361299  0.00000000  0.83683094  1
  O  O8  1  0.67458166  0.25314959  0.34650149  1
  O  O9  1  0.67458166  0.74685041  0.65349851  1
  O  O10  1  0.32541834  0.75314959  0.15349851  1
  O  O11  1  0.32541834  0.24685041  0.84650149  1
  O  O12  1  0.32541834  0.24685041  0.15349851  1
  O  O13  1  0.32541834  0.75314959  0.84650149  1
  O  O14  1  0.67458166  0.74685041  0.34650149  1
  O  O15  1  0.67458166  0.25314959  0.65349851  1
loop_
_geom_bond_atom_site_label_1
_geom_bond_atom_site_label_2
_geom_bond_distance
_geom_bond_site_symmetry_2
Ni0 O0 2.001673 1_555
Ni0 O10 2.059784 1_555
Ni0 O12 2.059784 1_555
Ni0 O4 2.072497 1_555
Ni0 O14 2.129806 1_555
Ni0 O8 2.129806 1_555
Ni1 O1 2.001673 1_555
Ni1 O13 2.059784 1_555
Ni1 O11 2.059784 1_555
Ni1 O5 2.072497 1_555
Ni1 O9 2.129806 1_555
Ni1 O15 2.129806 1_555
Ni2 O2 2.001673 1_555
Ni2 O8 2.059784 1_555
Ni2 O14 2.059784 1_545
Ni2 O6 2.072497 1_555
Ni2 O12 2.129806 1_555
Ni2 O10 2.129806 1_545
Ni3 O3 2.001673 1_555
Ni3 O15 2.059784 1_555
Ni3 O9 2.059784 1_545
Ni3 O7 2.072497 1_555
Ni3 O11 2.129806 1_555
Ni3 O13 2.129806 1_545
O0 Pd2 2.029239 1_655
O0 Pd0 2.029239 1_655
O0 Sr1 2.460530 1_655
O1 Pd3 2.029239 1_655
O1 Pd1 2.029239 1_655
O1 Sr1 2.460530 1_656
O2 Pd2 2.029239 1_545
O2 Pd0 2.029239 1_555
O2 Sr0 2.460530 1_455
O3 Pd1 2.029239 1_545
O3 Pd3 2.029239 1_555
O3 Sr0 2.460530 1_455
O4 Pd0 2.017285 1_555
O4 Pd2 2.017285 1_555
O4 Sr3 2.511554 1_555
O5 Pd3 2.017285 1_555
O5 Pd1 2.017285 1_555
O5 Sr3 2.511554 1_555
O6 Pd2 2.017285 1_645
O6 Pd0 2.017285 1_655
O6 Sr2 2.511554 1_555
O7 Pd1 2.017285 1_645
O7 Pd3 2.017285 1_655
O7 Sr2 2.511554 1_556
O8 Pd0 2.035447 1_655
O8 Sr0 2.508378 1_555
O8 Sr3 2.516260 1_555
O9 Pd1 2.035447 1_655
O9 Sr0 2.508378 1_565
O9 Sr3 2.516260 1_555
O10 Pd2 2.035447 1_555
O10 Sr1 2.508378 1_555
O10 Sr2 2.516260 1_565
O11 Pd3 2.035447 1_555
O11 Sr1 2.508378 1_556
O11 Sr2 2.516260 1_556
O12 Pd0 2.035447 1_555
O12 Sr1 2.508378 1_555
O12 Sr2 2.516260 1_555
O13 Pd1 2.035447 1_555
O13 Sr1 2.508378 1_556
O13 Sr2 2.516260 1_566
O14 Pd2 2.035447 1_655
O14 Sr0 2.508378 1_565
O14 Sr3 2.516260 1_555
O15 Pd3 2.035447 1_655
O15 Sr0 2.508378 1_555
O15 Sr3 2.516260 1_555
