# generated using pymatgen
data_YbB2Ru3
_symmetry_space_group_name_H-M   'P 1'
_cell_length_a   11.12667867
_cell_length_b   11.12667867
_cell_length_c   5.89688000
_cell_angle_alpha   90.00000000
_cell_angle_beta   90.00000000
_cell_angle_gamma   119.99999207
_symmetry_Int_Tables_number   1
_chemical_formula_structural   YbB2Ru3
_chemical_formula_sum   'Yb8 B16 Ru24'
_cell_volume   632.24302739
_cell_formula_units_Z   8
loop_
 _symmetry_equiv_pos_site_id
 _symmetry_equiv_pos_as_xyz
  1  'x, y, z'
loop_
 _atom_site_type_symbol
 _atom_site_label
 _atom_site_symmetry_multiplicity
 _atom_site_fract_x
 _atom_site_fract_y
 _atom_site_fract_z
 _atom_site_occupancy
  Yb  Yb0_0  1  0.00000000  0.00000000  0.00000000  1
  Yb  Yb0_1  1  0.00000000  0.00000000  0.50000000  1
  Yb  Yb0_2  1  0.00000000  0.50000000  0.00000000  1
  Yb  Yb0_3  1  0.00000000  0.50000000  0.50000000  1
  Yb  Yb0_4  1  0.50000000  0.00000000  0.00000000  1
  Yb  Yb0_5  1  0.50000000  0.00000000  0.50000000  1
  Yb  Yb0_6  1  0.50000000  0.50000000  0.00000000  1
  Yb  Yb0_7  1  0.50000000  0.50000000  0.50000000  1
  B  B0_0  1  0.16666650  0.33333350  0.00000000  1
  B  B0_1  1  0.16666650  0.33333350  0.50000000  1
  B  B0_2  1  0.16666650  0.83333350  0.00000000  1
  B  B0_3  1  0.16666650  0.83333350  0.50000000  1
  B  B0_4  1  0.66666650  0.33333350  0.00000000  1
  B  B0_5  1  0.66666650  0.33333350  0.50000000  1
  B  B0_6  1  0.66666650  0.83333350  0.00000000  1
  B  B0_7  1  0.66666650  0.83333350  0.50000000  1
  B  B1_0  1  0.33333350  0.16666650  0.00000000  1
  B  B1_1  1  0.33333350  0.16666650  0.50000000  1
  B  B1_2  1  0.33333350  0.66666650  0.00000000  1
  B  B1_3  1  0.33333350  0.66666650  0.50000000  1
  B  B1_4  1  0.83333350  0.16666650  0.00000000  1
  B  B1_5  1  0.83333350  0.16666650  0.50000000  1
  B  B1_6  1  0.83333350  0.66666650  0.00000000  1
  B  B1_7  1  0.83333350  0.66666650  0.50000000  1
  Ru  Ru0_0  1  0.25000000  0.00000000  0.25000000  1
  Ru  Ru0_1  1  0.25000000  0.00000000  0.75000000  1
  Ru  Ru0_2  1  0.25000000  0.50000000  0.25000000  1
  Ru  Ru0_3  1  0.25000000  0.50000000  0.75000000  1
  Ru  Ru0_4  1  0.75000000  0.00000000  0.25000000  1
  Ru  Ru0_5  1  0.75000000  0.00000000  0.75000000  1
  Ru  Ru0_6  1  0.75000000  0.50000000  0.25000000  1
  Ru  Ru0_7  1  0.75000000  0.50000000  0.75000000  1
  Ru  Ru1_0  1  0.25000000  0.25000000  0.25000000  1
  Ru  Ru1_1  1  0.25000000  0.25000000  0.75000000  1
  Ru  Ru1_2  1  0.25000000  0.75000000  0.25000000  1
  Ru  Ru1_3  1  0.25000000  0.75000000  0.75000000  1
  Ru  Ru1_4  1  0.75000000  0.25000000  0.25000000  1
  Ru  Ru1_5  1  0.75000000  0.25000000  0.75000000  1
  Ru  Ru1_6  1  0.75000000  0.75000000  0.25000000  1
  Ru  Ru1_7  1  0.75000000  0.75000000  0.75000000  1
  Ru  Ru2_0  1  0.00000000  0.25000000  0.25000000  1
  Ru  Ru2_1  1  0.00000000  0.25000000  0.75000000  1
  Ru  Ru2_2  1  0.00000000  0.75000000  0.25000000  1
  Ru  Ru2_3  1  0.00000000  0.75000000  0.75000000  1
  Ru  Ru2_4  1  0.50000000  0.25000000  0.25000000  1
  Ru  Ru2_5  1  0.50000000  0.25000000  0.75000000  1
  Ru  Ru2_6  1  0.50000000  0.75000000  0.25000000  1
  Ru  Ru2_7  1  0.50000000  0.75000000  0.75000000  1
loop_
_geom_bond_atom_site_label_1
_geom_bond_atom_site_label_2
_geom_bond_distance
_geom_bond_site_symmetry_2
Yb0_0 Yb0_1 2.948440 1_555
Yb0_0 Yb0_1 2.948440 1_554
Yb0_2 Yb0_3 2.948440 1_554
Yb0_2 Yb0_3 2.948440 1_555
Yb0_4 Yb0_5 2.948440 1_555
Yb0_4 Yb0_5 2.948440 1_554
Yb0_6 Yb0_7 2.948440 1_555
Yb0_6 Yb0_7 2.948440 1_554
B0_0 Ru0_3 2.180034 1_554
B0_0 Ru2_0 2.180034 1_555
B0_0 Ru0_2 2.180034 1_555
B0_0 Ru2_1 2.180034 1_554
B0_0 Ru1_1 2.180037 1_554
B0_0 Ru1_0 2.180037 1_555
B0_0 Yb0_2 3.211992 1_555
B0_0 Yb0_6 3.211997 1_555
B0_0 Yb0_0 3.211997 1_555
B0_1 Ru2_1 2.180034 1_555
B0_1 Ru2_0 2.180034 1_555
B0_1 Ru0_2 2.180034 1_555
B0_1 Ru0_3 2.180034 1_555
B0_1 Ru1_0 2.180037 1_555
B0_1 Ru1_1 2.180037 1_555
B0_1 Yb0_3 3.211992 1_555
B0_1 Yb0_7 3.211997 1_555
B0_1 Yb0_1 3.211997 1_555
B0_2 Ru2_3 2.180034 1_554
B0_2 Ru2_2 2.180034 1_555
B0_2 Ru0_0 2.180034 1_565
B0_2 Ru0_1 2.180034 1_564
B0_2 Ru1_3 2.180037 1_554
B0_2 Ru1_2 2.180037 1_555
B0_2 Yb0_0 3.211992 1_565
B0_2 Yb0_2 3.211997 1_555
B0_2 Yb0_4 3.211997 1_565
B0_3 Ru2_2 2.180034 1_555
B0_3 Ru0_0 2.180034 1_565
B0_3 Ru2_3 2.180034 1_555
B0_3 Ru0_1 2.180034 1_565
B0_3 Ru1_2 2.180037 1_555
B0_3 Ru1_3 2.180037 1_555
B0_3 Yb0_1 3.211992 1_565
B0_3 Yb0_3 3.211997 1_555
B0_3 Yb0_5 3.211997 1_565
B0_4 Ru0_7 2.180034 1_554
B0_4 Ru0_6 2.180034 1_555
B0_4 Ru2_4 2.180034 1_555
B0_4 Ru2_5 2.180034 1_554
B0_4 Ru1_4 2.180037 1_555
B0_4 Ru1_5 2.180037 1_554
B0_4 Yb0_6 3.211992 1_555
B0_4 Yb0_4 3.211997 1_555
B0_4 Yb0_2 3.211997 1_655
B0_5 Ru0_6 2.180034 1_555
B0_5 Ru2_4 2.180034 1_555
B0_5 Ru0_7 2.180034 1_555
B0_5 Ru2_5 2.180034 1_555
B0_5 Ru1_5 2.180037 1_555
B0_5 Ru1_4 2.180037 1_555
B0_5 Yb0_7 3.211992 1_555
B0_5 Yb0_5 3.211997 1_555
B0_5 Yb0_3 3.211997 1_655
B0_6 Ru0_5 2.180034 1_564
B0_6 Ru2_7 2.180034 1_554
B0_6 Ru2_6 2.180034 1_555
B0_6 Ru0_4 2.180034 1_565
B0_6 Ru1_6 2.180037 1_555
B0_6 Ru1_7 2.180037 1_554
B0_6 Yb0_4 3.211992 1_565
B0_6 Yb0_6 3.211997 1_555
B0_6 Yb0_0 3.211997 1_665
B0_7 Ru2_6 2.180034 1_555
B0_7 Ru0_4 2.180034 1_565
B0_7 Ru0_5 2.180034 1_565
B0_7 Ru2_7 2.180034 1_555
B0_7 Ru1_6 2.180037 1_555
B0_7 Ru1_7 2.180037 1_555
B0_7 Yb0_5 3.211992 1_565
B0_7 Yb0_7 3.211997 1_555
B0_7 Yb0_1 3.211997 1_665
B1_0 Ru2_4 2.180034 1_555
B1_0 Ru0_1 2.180034 1_554
B1_0 Ru0_0 2.180034 1_555
B1_0 Ru2_5 2.180034 1_554
B1_0 Ru1_1 2.180037 1_554
B1_0 Ru1_0 2.180037 1_555
B1_0 Yb0_4 3.211992 1_555
B1_0 Yb0_0 3.211997 1_555
B1_0 Yb0_6 3.211997 1_555
B1_1 Ru0_1 2.180034 1_555
B1_1 Ru2_5 2.180034 1_555
B1_1 Ru2_4 2.180034 1_555
B1_1 Ru0_0 2.180034 1_555
B1_1 Ru1_0 2.180037 1_555
B1_1 Ru1_1 2.180037 1_555
B1_1 Yb0_5 3.211992 1_555
B1_1 Yb0_7 3.211997 1_555
B1_1 Yb0_1 3.211997 1_555
B1_2 Ru2_7 2.180034 1_554
B1_2 Ru2_6 2.180034 1_555
B1_2 Ru0_3 2.180034 1_554
B1_2 Ru0_2 2.180034 1_555
B1_2 Ru1_3 2.180037 1_554
B1_2 Ru1_2 2.180037 1_555
B1_2 Yb0_6 3.211992 1_555
B1_2 Yb0_4 3.211997 1_565
B1_2 Yb0_2 3.211997 1_555
B1_3 Ru2_6 2.180034 1_555
B1_3 Ru2_7 2.180034 1_555
B1_3 Ru0_2 2.180034 1_555
B1_3 Ru0_3 2.180034 1_555
B1_3 Ru1_2 2.180037 1_555
B1_3 Ru1_3 2.180037 1_555
B1_3 Yb0_7 3.211992 1_555
B1_3 Yb0_5 3.211997 1_565
B1_3 Yb0_3 3.211997 1_555
B1_4 Ru0_5 2.180034 1_554
B1_4 Ru0_4 2.180034 1_555
B1_4 Ru2_1 2.180034 1_654
B1_4 Ru2_0 2.180034 1_655
B1_4 Ru1_5 2.180037 1_554
B1_4 Ru1_4 2.180037 1_555
B1_4 Yb0_0 3.211992 1_655
B1_4 Yb0_2 3.211997 1_655
B1_4 Yb0_4 3.211997 1_555
B1_5 Ru0_5 2.180034 1_555
B1_5 Ru0_4 2.180034 1_555
B1_5 Ru2_1 2.180034 1_655
B1_5 Ru2_0 2.180034 1_655
B1_5 Ru1_5 2.180037 1_555
B1_5 Ru1_4 2.180037 1_555
B1_5 Yb0_1 3.211992 1_655
B1_5 Yb0_3 3.211997 1_655
B1_5 Yb0_5 3.211997 1_555
B1_6 Ru0_7 2.180034 1_554
B1_6 Ru0_6 2.180034 1_555
B1_6 Ru2_3 2.180034 1_654
B1_6 Ru2_2 2.180034 1_655
B1_6 Ru1_7 2.180037 1_554
B1_6 Ru1_6 2.180037 1_555
B1_6 Yb0_2 3.211992 1_655
B1_6 Yb0_6 3.211997 1_555
B1_6 Yb0_0 3.211997 1_665
B1_7 Ru0_7 2.180034 1_555
B1_7 Ru0_6 2.180034 1_555
B1_7 Ru2_2 2.180034 1_655
B1_7 Ru2_3 2.180034 1_655
B1_7 Ru1_7 2.180037 1_555
B1_7 Ru1_6 2.180037 1_555
B1_7 Yb0_3 3.211992 1_655
B1_7 Yb0_7 3.211997 1_555
B1_7 Yb0_1 3.211997 1_665
Ru0_0 Yb0_4 3.148176 1_555
Ru0_0 Yb0_1 3.148176 1_555
Ru0_0 Yb0_5 3.148176 1_555
Ru0_0 Yb0_0 3.148176 1_555
Ru0_1 Yb0_4 3.148176 1_556
Ru0_1 Yb0_1 3.148176 1_555
Ru0_1 Yb0_5 3.148176 1_555
Ru0_1 Yb0_0 3.148176 1_556
Ru0_2 Yb0_7 3.148176 1_555
Ru0_2 Yb0_2 3.148176 1_555
Ru0_2 Yb0_6 3.148176 1_555
Ru0_2 Yb0_3 3.148176 1_555
Ru0_3 Yb0_7 3.148176 1_555
Ru0_3 Yb0_2 3.148176 1_556
Ru0_3 Yb0_3 3.148176 1_555
Ru0_3 Yb0_6 3.148176 1_556
Ru0_4 Yb0_0 3.148176 1_655
Ru0_4 Yb0_1 3.148176 1_655
Ru0_4 Yb0_4 3.148176 1_555
Ru0_4 Yb0_5 3.148176 1_555
Ru0_5 Yb0_1 3.148176 1_655
Ru0_5 Yb0_0 3.148176 1_656
Ru0_5 Yb0_4 3.148176 1_556
Ru0_5 Yb0_5 3.148176 1_555
Ru0_6 Yb0_2 3.148176 1_655
Ru0_6 Yb0_7 3.148176 1_555
Ru0_6 Yb0_6 3.148176 1_555
Ru0_6 Yb0_3 3.148176 1_655
Ru0_7 Yb0_7 3.148176 1_555
Ru0_7 Yb0_2 3.148176 1_656
Ru0_7 Yb0_6 3.148176 1_556
Ru0_7 Yb0_3 3.148176 1_655
Ru1_0 Yb0_0 3.148176 1_555
Ru1_0 Yb0_7 3.148176 1_555
Ru1_0 Yb0_1 3.148176 1_555
Ru1_0 Yb0_6 3.148176 1_555
Ru1_1 Yb0_6 3.148176 1_556
Ru1_1 Yb0_0 3.148176 1_556
Ru1_1 Yb0_7 3.148176 1_555
Ru1_1 Yb0_1 3.148176 1_555
Ru1_2 Yb0_5 3.148176 1_565
Ru1_2 Yb0_4 3.148176 1_565
Ru1_2 Yb0_2 3.148176 1_555
Ru1_2 Yb0_3 3.148176 1_555
Ru1_3 Yb0_5 3.148176 1_565
Ru1_3 Yb0_4 3.148176 1_566
Ru1_3 Yb0_2 3.148176 1_556
Ru1_3 Yb0_3 3.148176 1_555
Ru1_4 Yb0_2 3.148176 1_655
Ru1_4 Yb0_4 3.148176 1_555
Ru1_4 Yb0_3 3.148176 1_655
Ru1_4 Yb0_5 3.148176 1_555
Ru1_5 Yb0_3 3.148176 1_655
Ru1_5 Yb0_4 3.148176 1_556
Ru1_5 Yb0_5 3.148176 1_555
Ru1_5 Yb0_2 3.148176 1_656
Ru1_6 Yb0_7 3.148176 1_555
Ru1_6 Yb0_0 3.148176 1_665
Ru1_6 Yb0_1 3.148176 1_665
Ru1_6 Yb0_6 3.148176 1_555
Ru1_7 Yb0_6 3.148176 1_556
Ru1_7 Yb0_7 3.148176 1_555
Ru1_7 Yb0_0 3.148176 1_666
Ru1_7 Yb0_1 3.148176 1_665
Ru2_0 Yb0_1 3.148176 1_555
Ru2_0 Yb0_2 3.148176 1_555
Ru2_0 Yb0_3 3.148176 1_555
Ru2_0 Yb0_0 3.148176 1_555
Ru2_1 Yb0_1 3.148176 1_555
Ru2_1 Yb0_2 3.148176 1_556
Ru2_1 Yb0_3 3.148176 1_555
Ru2_1 Yb0_0 3.148176 1_556
Ru2_2 Yb0_1 3.148176 1_565
Ru2_2 Yb0_0 3.148176 1_565
Ru2_2 Yb0_3 3.148176 1_555
Ru2_2 Yb0_2 3.148176 1_555
Ru2_3 Yb0_0 3.148176 1_566
Ru2_3 Yb0_1 3.148176 1_565
Ru2_3 Yb0_3 3.148176 1_555
Ru2_3 Yb0_2 3.148176 1_556
Ru2_4 Yb0_4 3.148176 1_555
Ru2_4 Yb0_7 3.148176 1_555
Ru2_4 Yb0_5 3.148176 1_555
Ru2_4 Yb0_6 3.148176 1_555
Ru2_5 Yb0_4 3.148176 1_556
Ru2_5 Yb0_7 3.148176 1_555
Ru2_5 Yb0_5 3.148176 1_555
Ru2_5 Yb0_6 3.148176 1_556
Ru2_6 Yb0_7 3.148176 1_555
Ru2_6 Yb0_4 3.148176 1_565
Ru2_6 Yb0_6 3.148176 1_555
Ru2_6 Yb0_5 3.148176 1_565
Ru2_7 Yb0_7 3.148176 1_555
Ru2_7 Yb0_4 3.148176 1_566
Ru2_7 Yb0_5 3.148176 1_565
Ru2_7 Yb0_6 3.148176 1_556
