# generated using pymatgen
data_Hf7Zr3Sn6P
_symmetry_space_group_name_H-M   'P 1'
_cell_length_a   5.78383845
_cell_length_b   8.48491487
_cell_length_c   8.48487515
_cell_angle_alpha   120.00015549
_cell_angle_beta   89.99985327
_cell_angle_gamma   90.00029849
_symmetry_Int_Tables_number   1
_chemical_formula_structural   Hf7Zr3Sn6P
_chemical_formula_sum   'Hf7 Zr3 Sn6 P1'
_cell_volume   360.61106670
_cell_formula_units_Z   1
loop_
 _symmetry_equiv_pos_site_id
 _symmetry_equiv_pos_as_xyz
  1  'x, y, z'
loop_
 _atom_site_type_symbol
 _atom_site_label
 _atom_site_symmetry_multiplicity
 _atom_site_fract_x
 _atom_site_fract_y
 _atom_site_fract_z
 _atom_site_occupancy
  Hf  Hf0  1  0.49984351  0.33338767  0.66668602  1
  Hf  Hf1  1  0.49984351  0.66670265  0.33331398  1
  Hf  Hf2  1  0.99935633  0.66669883  0.33331432  1
  Hf  Hf3  1  0.99935633  0.33338551  0.66668568  1
  Hf  Hf4  1  0.75700732  0.25067341  1.00000000  1
  Hf  Hf5  1  0.75698400  0.74929472  0.74934519  1
  Hf  Hf6  1  0.75698400  0.99994853  0.25065481  1
  Zr  Zr0  1  0.24264073  0.75041808  0.00000000  1
  Zr  Zr1  1  0.24260613  0.24952764  0.24955666  1
  Zr  Zr2  1  0.24260613  0.99996998  0.75044334  1
  Sn  Sn0  1  0.74854244  0.60537009  1.00000000  1
  Sn  Sn1  1  0.74856324  0.39463949  0.39465495  1
  Sn  Sn2  1  0.74856324  0.99998454  0.60534505  1
  Sn  Sn3  1  0.25079826  0.39528597  0.00000000  1
  Sn  Sn4  1  0.25080351  0.60472533  0.60475726  1
  Sn  Sn5  1  0.25080351  0.99996807  0.39524274  1
  P  P0  1  0.50469882  0.00002450  0.00000000  1
loop_
_geom_bond_atom_site_label_1
_geom_bond_atom_site_label_2
_geom_bond_distance
_geom_bond_site_symmetry_2
Hf0 Sn4 2.976769 1_555
Hf0 Sn3 2.977187 1_556
Hf0 Sn0 2.977658 1_555
Hf0 Sn1 2.977694 1_555
Hf0 Sn5 2.977750 1_545
Hf0 Sn2 2.978366 1_545
Hf1 Sn5 2.976761 1_555
Hf1 Sn3 2.977190 1_555
Hf1 Sn0 2.977656 1_554
Hf1 Sn2 2.977690 1_555
Hf1 Sn4 2.977754 1_555
Hf1 Sn1 2.978373 1_555
Hf2 Sn2 2.983527 1_555
Hf2 Sn5 2.983539 1_655
Hf2 Sn0 2.983601 1_554
Hf2 Sn3 2.983918 1_655
Hf2 Sn1 2.984141 1_555
Hf2 Sn4 2.984502 1_655
Hf3 Sn1 2.983522 1_555
Hf3 Sn4 2.983532 1_655
Hf3 Sn0 2.983599 1_555
Hf3 Sn3 2.983920 1_656
Hf3 Sn2 2.984148 1_545
Hf3 Sn5 2.984507 1_645
Hf4 P0 2.579255 1_556
Hf4 Sn2 2.935505 1_545
Hf4 Sn1 2.935505 1_556
Hf4 Sn0 3.009970 1_555
Hf4 Sn3 3.108429 1_656
Hf4 Sn3 3.174559 1_556
Hf5 P0 2.579484 1_566
Hf5 Sn0 2.934972 1_555
Hf5 Sn2 2.935751 1_555
Hf5 Sn1 3.009748 1_555
Hf5 Sn4 3.108474 1_655
Hf5 Sn4 3.174284 1_555
Hf6 P0 2.579487 1_565
Hf6 Sn0 2.934965 1_554
Hf6 Sn1 2.935759 1_565
Hf6 Sn2 3.009744 1_555
Hf6 Sn5 3.108472 1_655
Hf6 Sn5 3.174283 1_555
Sn0 Zr0 3.111522 1_656
Sn0 Zr0 3.174350 1_556
Sn1 Zr1 3.111426 1_655
Sn1 Zr1 3.174822 1_555
Sn2 Zr2 3.111427 1_655
Sn2 Zr2 3.174824 1_555
Sn3 Zr1 2.938398 1_555
Sn3 Zr2 2.938405 1_544
Sn3 Zr0 3.013635 1_555
Sn4 Zr0 2.937897 1_556
Sn4 Zr2 2.937940 1_555
Sn4 Zr1 3.014193 1_555
Sn5 Zr0 2.937897 1_555
Sn5 Zr1 2.937948 1_565
Sn5 Zr2 3.014197 1_555
P0 Zr2 2.603962 1_544
P0 Zr1 2.603966 1_555
P0 Zr0 2.604376 1_545
