# generated using pymatgen
data_Ca3Be2Pd7
_symmetry_space_group_name_H-M   'P 1'
_cell_length_a   8.47612318
_cell_length_b   8.47612413
_cell_length_c   8.47612392
_cell_angle_alpha   37.75057975
_cell_angle_beta   37.75057077
_cell_angle_gamma   37.75057710
_symmetry_Int_Tables_number   1
_chemical_formula_structural   Ca3Be2Pd7
_chemical_formula_sum   'Ca3 Be2 Pd7'
_cell_volume   204.79547583
_cell_formula_units_Z   1
loop_
 _symmetry_equiv_pos_site_id
 _symmetry_equiv_pos_as_xyz
  1  'x, y, z'
loop_
 _atom_site_type_symbol
 _atom_site_label
 _atom_site_symmetry_multiplicity
 _atom_site_fract_x
 _atom_site_fract_y
 _atom_site_fract_z
 _atom_site_occupancy
  Ca  Ca0  1  0.35817265  0.35817265  0.35817265  1
  Ca  Ca1  1  0.50000000  0.50000000  0.50000000  1
  Ca  Ca2  1  0.64182635  0.64182635  0.64182635  1
  Be  Be0  1  0.16675027  0.16675027  0.16675027  1
  Be  Be1  1  0.83324973  0.83324973  0.83324973  1
  Pd  Pd0  1  0.00000000  0.00000000  0.00000000  1
  Pd  Pd1  1  0.57095607  0.07086974  0.07087074  1
  Pd  Pd2  1  0.07086974  0.57095607  0.07087074  1
  Pd  Pd3  1  0.92913026  0.92913026  0.42904293  1
  Pd  Pd4  1  0.07086974  0.07086974  0.57095707  1
  Pd  Pd5  1  0.92913026  0.42904393  0.92912926  1
  Pd  Pd6  1  0.42904393  0.92913026  0.92912926  1
loop_
_geom_bond_atom_site_label_1
_geom_bond_atom_site_label_2
_geom_bond_distance
_geom_bond_site_symmetry_2
Ca0 Pd5 3.212188 1_455
Ca0 Pd6 3.212188 1_545
Ca0 Pd3 3.212190 1_545
Ca0 Pd3 3.212191 1_455
Ca0 Pd5 3.212192 1_554
Ca0 Pd6 3.212193 1_554
Ca0 Pd0 3.220061 1_655
Ca0 Pd0 3.220062 1_556
Ca0 Pd0 3.220062 1_565
Ca0 Pd2 3.255807 1_555
Ca0 Pd1 3.255807 1_555
Ca0 Pd4 3.255809 1_555
Ca0 Ca1 3.345359 1_555
Ca0 Ca2 3.376193 1_455
Ca0 Ca2 3.376194 1_554
Ca0 Ca2 3.376194 1_545
Ca1 Pd2 3.211823 1_655
Ca1 Pd5 3.211823 1_455
Ca1 Pd1 3.211824 1_565
Ca1 Pd6 3.211824 1_545
Ca1 Pd4 3.211826 1_655
Ca1 Pd3 3.211826 1_455
Ca1 Pd4 3.211827 1_565
Ca1 Pd3 3.211827 1_545
Ca1 Pd2 3.211828 1_556
Ca1 Pd5 3.211828 1_554
Ca1 Pd1 3.211829 1_556
Ca1 Pd6 3.211829 1_554
Ca1 Ca2 3.345336 1_555
Ca2 Pd2 3.212176 1_655
Ca2 Pd1 3.212176 1_565
Ca2 Pd4 3.212178 1_565
Ca2 Pd4 3.212178 1_655
Ca2 Pd2 3.212180 1_556
Ca2 Pd1 3.212181 1_556
Ca2 Pd0 3.220066 1_566
Ca2 Pd0 3.220066 1_665
Ca2 Pd0 3.220067 1_656
Ca2 Pd5 3.255828 1_555
Ca2 Pd6 3.255828 1_555
Ca2 Pd3 3.255830 1_555
Be0 Pd1 2.301594 1_555
Be0 Pd2 2.301594 1_555
Be0 Pd4 2.301598 1_555
Be0 Pd3 2.304082 1_445
Be0 Pd6 2.304085 1_544
Be0 Pd5 2.304085 1_454
Be0 Ca1 3.166310 1_455
Be0 Ca1 3.166311 1_554
Be0 Ca1 3.166311 1_545
Be1 Pd6 2.301594 1_555
Be1 Pd5 2.301594 1_555
Be1 Pd3 2.301598 1_555
Be1 Pd4 2.304082 1_665
Be1 Pd1 2.304085 1_566
Be1 Pd2 2.304085 1_656
Be1 Ca1 3.166310 1_655
Be1 Ca1 3.166311 1_556
Be1 Ca1 3.166311 1_565
Pd0 Pd3 2.758308 1_445
Pd0 Pd4 2.758308 1_554
Pd0 Pd6 2.758310 1_544
Pd0 Pd1 2.758310 1_455
Pd0 Pd5 2.758310 1_454
Pd0 Pd2 2.758310 1_545
Pd1 Pd4 2.741631 1_654
Pd1 Pd2 2.741632 1_645
Pd1 Pd4 2.742578 1_555
Pd1 Pd2 2.742579 1_555
Pd2 Pd4 2.741632 1_564
Pd2 Pd4 2.742579 1_555
Pd3 Pd6 2.741631 1_654
Pd3 Pd5 2.741632 1_564
Pd3 Pd6 2.742578 1_555
Pd3 Pd5 2.742579 1_555
Pd5 Pd6 2.741632 1_645
Pd5 Pd6 2.742579 1_555
