# generated using pymatgen
data_K3GeB4Pt9
_symmetry_space_group_name_H-M   'P 1'
_cell_length_a   6.57626113
_cell_length_b   6.57626236
_cell_length_c   15.13075085
_cell_angle_alpha   90.00000000
_cell_angle_beta   90.00000000
_cell_angle_gamma   123.97864768
_symmetry_Int_Tables_number   1
_chemical_formula_structural   K3GeB4Pt9
_chemical_formula_sum   'K6 Ge2 B8 Pt18'
_cell_volume   542.62774821
_cell_formula_units_Z   2
loop_
 _symmetry_equiv_pos_site_id
 _symmetry_equiv_pos_as_xyz
  1  'x, y, z'
loop_
 _atom_site_type_symbol
 _atom_site_label
 _atom_site_symmetry_multiplicity
 _atom_site_fract_x
 _atom_site_fract_y
 _atom_site_fract_z
 _atom_site_occupancy
  K  K0  1  0.31218076  0.68781924  0.75000000  1
  K  K1  1  0.68781924  0.31218076  0.25000000  1
  K  K2  1  0.55740495  0.44259505  0.08581426  1
  K  K3  1  0.44259505  0.55740495  0.91418574  1
  K  K4  1  0.44259505  0.55740495  0.58581426  1
  K  K5  1  0.55740495  0.44259505  0.41418574  1
  Ge  Ge0  1  0.70534355  0.29465645  0.75000000  1
  Ge  Ge1  1  0.29465645  0.70534355  0.25000000  1
  B  B0  1  0.94277834  0.05722166  0.14059053  1
  B  B1  1  0.05722166  0.94277834  0.85940947  1
  B  B2  1  0.05722166  0.94277834  0.64059053  1
  B  B3  1  0.94277834  0.05722166  0.35940947  1
  B  B4  1  0.20019155  0.79980845  0.02597909  1
  B  B5  1  0.79980845  0.20019155  0.97402091  1
  B  B6  1  0.79980845  0.20019155  0.52597909  1
  B  B7  1  0.20019155  0.79980845  0.47402091  1
  Pt  Pt0  1  0.00000000  0.00000000  0.00000000  1
  Pt  Pt1  1  0.00000000  0.00000000  0.50000000  1
  Pt  Pt2  1  0.71417950  0.84698217  0.25000000  1
  Pt  Pt3  1  0.84698217  0.71417950  0.75000000  1
  Pt  Pt4  1  0.28582050  0.15301783  0.75000000  1
  Pt  Pt5  1  0.15301783  0.28582050  0.25000000  1
  Pt  Pt6  1  0.12564043  0.87435957  0.15157261  1
  Pt  Pt7  1  0.87435957  0.12564043  0.84842739  1
  Pt  Pt8  1  0.87435957  0.12564043  0.65157261  1
  Pt  Pt9  1  0.12564043  0.87435957  0.34842739  1
  Pt  Pt10  1  0.57572863  0.94925967  0.07739932  1
  Pt  Pt11  1  0.94925967  0.57572863  0.92260068  1
  Pt  Pt12  1  0.42427137  0.05074033  0.57739932  1
  Pt  Pt13  1  0.05074033  0.42427137  0.42260068  1
  Pt  Pt14  1  0.42427137  0.05074033  0.92260068  1
  Pt  Pt15  1  0.05074033  0.42427137  0.07739932  1
  Pt  Pt16  1  0.57572863  0.94925967  0.42260068  1
  Pt  Pt17  1  0.94925967  0.57572863  0.57739932  1
loop_
_geom_bond_atom_site_label_1
_geom_bond_atom_site_label_2
_geom_bond_distance
_geom_bond_site_symmetry_2
K0 K3 2.909428 1_555
K0 K4 2.909428 1_555
K0 Pt3 3.159423 1_455
K0 Pt4 3.159424 1_565
K0 Pt11 3.330674 1_455
K0 Pt17 3.330674 1_455
K0 Pt14 3.330674 1_565
K0 Pt12 3.330674 1_565
K0 Pt3 3.423130 1_555
K0 Pt4 3.423130 1_555
K0 Pt7 3.503966 1_565
K0 Pt8 3.503966 1_565
K0 Pt7 3.503966 1_455
K0 Pt8 3.503966 1_455
K1 K5 2.909428 1_555
K1 K2 2.909428 1_555
K1 Pt5 3.159423 1_655
K1 Pt2 3.159424 1_545
K1 Pt13 3.330674 1_655
K1 Pt15 3.330674 1_655
K1 Pt16 3.330674 1_545
K1 Pt10 3.330674 1_545
K1 Pt5 3.423130 1_555
K1 Pt2 3.423130 1_555
K1 Pt9 3.503966 1_545
K1 Pt6 3.503966 1_545
K1 Pt9 3.503966 1_655
K1 Pt6 3.503966 1_655
K2 K3 2.919079 1_554
K2 Pt15 3.268622 1_555
K2 Pt10 3.268623 1_555
K2 Pt11 3.314201 1_554
K2 Pt14 3.314202 1_554
K2 Pt15 3.315601 1_655
K2 Pt10 3.315602 1_545
K2 Pt6 3.340104 1_655
K2 Pt6 3.340104 1_545
K2 Pt5 3.352904 1_555
K2 Pt2 3.352904 1_555
K2 Pt0 3.415959 1_555
K2 Pt0 3.415959 1_665
K3 Pt11 3.268622 1_555
K3 Pt14 3.268623 1_555
K3 Pt15 3.314201 1_556
K3 Pt10 3.314202 1_556
K3 Pt11 3.315601 1_455
K3 Pt14 3.315602 1_565
K3 Pt7 3.340104 1_455
K3 Pt7 3.340104 1_565
K3 Pt3 3.352904 1_555
K3 Pt4 3.352904 1_555
K3 Pt0 3.415959 1_666
K3 Pt0 3.415959 1_556
K4 K5 2.919079 1_555
K4 Pt17 3.268622 1_555
K4 Pt12 3.268623 1_555
K4 Pt13 3.314201 1_555
K4 Pt16 3.314202 1_555
K4 Pt17 3.315601 1_455
K4 Pt12 3.315602 1_565
K4 Pt8 3.340104 1_455
K4 Pt8 3.340104 1_565
K4 Pt3 3.352904 1_555
K4 Pt4 3.352904 1_555
K4 Pt1 3.415959 1_665
K4 Pt1 3.415959 1_555
K5 Pt13 3.268622 1_555
K5 Pt16 3.268623 1_555
K5 Pt17 3.314201 1_555
K5 Pt12 3.314202 1_555
K5 Pt13 3.315601 1_655
K5 Pt16 3.315602 1_545
K5 Pt9 3.340104 1_655
K5 Pt9 3.340104 1_545
K5 Pt5 3.352904 1_555
K5 Pt2 3.352904 1_555
K5 Pt1 3.415959 1_555
K5 Pt1 3.415959 1_665
Ge0 Pt4 2.367843 1_555
Ge0 Pt3 2.367843 1_555
Ge0 Pt7 2.463677 1_555
Ge0 Pt8 2.463677 1_555
Ge0 K0 3.328295 1_655
Ge0 K0 3.328296 1_545
Ge1 Pt2 2.367843 1_555
Ge1 Pt5 2.367843 1_555
Ge1 Pt9 2.463677 1_555
Ge1 Pt6 2.463677 1_555
Ge1 K1 3.328295 1_455
Ge1 K1 3.328296 1_565
B0 Pt6 2.129857 1_645
B0 Pt2 2.142146 1_545
B0 Pt5 2.142146 1_655
B0 Pt0 2.228597 1_655
B0 Pt10 2.308498 1_545
B0 Pt15 2.308499 1_655
B0 K1 3.391950 1_555
B1 Pt7 2.129857 1_465
B1 Pt4 2.142146 1_565
B1 Pt3 2.142146 1_455
B1 Pt0 2.228597 1_566
B1 Pt14 2.308498 1_565
B1 Pt11 2.308499 1_455
B1 K0 3.391950 1_555
B2 Pt8 2.129857 1_465
B2 Pt4 2.142146 1_565
B2 Pt3 2.142146 1_455
B2 Pt1 2.228597 1_565
B2 Pt12 2.308498 1_565
B2 Pt17 2.308499 1_455
B2 K0 3.391950 1_555
B3 Pt9 2.129857 1_645
B3 Pt2 2.142146 1_545
B3 Pt5 2.142146 1_655
B3 Pt1 2.228597 1_655
B3 Pt16 2.308498 1_545
B3 Pt13 2.308499 1_655
B3 K1 3.391950 1_555
B4 Pt6 2.088211 1_555
B4 Pt11 2.150172 1_454
B4 Pt14 2.150172 1_564
B4 Pt10 2.226494 1_555
B4 Pt15 2.226495 1_555
B4 Pt0 2.357592 1_565
B4 K3 3.283908 1_554
B5 Pt7 2.088211 1_555
B5 Pt15 2.150172 1_656
B5 Pt10 2.150172 1_546
B5 Pt14 2.226494 1_555
B5 Pt11 2.226495 1_555
B5 Pt0 2.357592 1_656
B5 K2 3.283908 1_556
B6 Pt8 2.088211 1_555
B6 Pt13 2.150172 1_655
B6 Pt16 2.150172 1_545
B6 Pt12 2.226494 1_555
B6 Pt17 2.226495 1_555
B6 Pt1 2.357592 1_655
B6 K5 3.283908 1_555
B7 Pt9 2.088211 1_555
B7 Pt17 2.150172 1_455
B7 Pt12 2.150172 1_565
B7 Pt16 2.226494 1_555
B7 Pt13 2.226495 1_555
B7 Pt1 2.357592 1_565
B7 K4 3.283908 1_555
