# generated using pymatgen
data_Hf10CuSiSb6
_symmetry_space_group_name_H-M   'P 1'
_cell_length_a   8.53856410
_cell_length_b   8.53856392
_cell_length_c   5.72667801
_cell_angle_alpha   90.00000000
_cell_angle_beta   90.00000000
_cell_angle_gamma   119.99999304
_symmetry_Int_Tables_number   1
_chemical_formula_structural   Hf10CuSiSb6
_chemical_formula_sum   'Hf10 Cu1 Si1 Sb6'
_cell_volume   361.57892123
_cell_formula_units_Z   1
loop_
 _symmetry_equiv_pos_site_id
 _symmetry_equiv_pos_as_xyz
  1  'x, y, z'
loop_
 _atom_site_type_symbol
 _atom_site_label
 _atom_site_symmetry_multiplicity
 _atom_site_fract_x
 _atom_site_fract_y
 _atom_site_fract_z
 _atom_site_occupancy
  Hf  Hf0  1  0.66666700  0.33333300  0.00000000  1
  Hf  Hf1  1  0.33333300  0.66666700  0.00000000  1
  Hf  Hf2  1  0.33333300  0.66666700  0.50000000  1
  Hf  Hf3  1  0.66666700  0.33333300  0.50000000  1
  Hf  Hf4  1  0.73701598  0.73701598  0.74983130  1
  Hf  Hf5  1  0.26298402  0.00000000  0.74983130  1
  Hf  Hf6  1  0.00000000  0.26298402  0.74983130  1
  Hf  Hf7  1  0.26298402  0.26298402  0.25016870  1
  Hf  Hf8  1  0.73701598  1.00000000  0.25016870  1
  Hf  Hf9  1  1.00000000  0.73701598  0.25016870  1
  Cu  Cu0  1  0.00000000  0.00000000  0.00000000  1
  Si  Si0  1  0.00000000  0.00000000  0.50000000  1
  Sb  Sb0  1  0.39016676  0.39016676  0.75249470  1
  Sb  Sb1  1  0.60983324  0.00000000  0.75249470  1
  Sb  Sb2  1  0.00000000  0.60983324  0.75249470  1
  Sb  Sb3  1  0.60983324  0.60983324  0.24750530  1
  Sb  Sb4  1  0.39016676  1.00000000  0.24750530  1
  Sb  Sb5  1  1.00000000  0.39016676  0.24750530  1
loop_
_geom_bond_atom_site_label_1
_geom_bond_atom_site_label_2
_geom_bond_distance
_geom_bond_site_symmetry_2
Hf0 Sb1 2.994002 1_554
Hf0 Sb5 2.994002 1_555
Hf0 Sb4 2.994005 1_545
Hf0 Sb2 2.994005 1_654
Hf0 Sb3 2.994009 1_555
Hf0 Sb0 2.994009 1_554
Hf1 Sb4 2.994002 1_555
Hf1 Sb2 2.994002 1_554
Hf1 Sb1 2.994005 1_564
Hf1 Sb5 2.994005 1_455
Hf1 Sb0 2.994009 1_554
Hf1 Sb3 2.994009 1_555
Hf2 Sb4 3.007634 1_555
Hf2 Sb2 3.007634 1_555
Hf2 Sb1 3.007637 1_565
Hf2 Sb5 3.007637 1_455
Hf2 Sb0 3.007641 1_555
Hf2 Sb3 3.007641 1_555
Hf3 Sb1 3.007634 1_555
Hf3 Sb5 3.007634 1_555
Hf3 Sb4 3.007637 1_545
Hf3 Sb2 3.007637 1_655
Hf3 Sb3 3.007641 1_555
Hf3 Sb0 3.007641 1_555
Hf4 Si0 2.662557 1_665
Hf4 Sb1 2.942849 1_565
Hf4 Sb2 2.942849 1_655
Hf4 Sb0 2.961634 1_555
Hf4 Sb3 3.049904 1_556
Hf4 Sb3 3.074813 1_555
Hf5 Si0 2.662557 1_555
Hf5 Sb0 2.942849 1_555
Hf5 Sb2 2.942849 1_545
Hf5 Sb1 2.961634 1_555
Hf5 Sb4 3.049904 1_546
Hf5 Sb4 3.074813 1_545
Hf6 Si0 2.662557 1_555
Hf6 Sb0 2.942849 1_555
Hf6 Sb1 2.942849 1_455
Hf6 Sb2 2.961633 1_555
Hf6 Sb5 3.049904 1_456
Hf6 Sb5 3.074813 1_455
Hf7 Si0 2.662557 1_555
Hf7 Sb4 2.942849 1_545
Hf7 Sb5 2.942849 1_455
Hf7 Sb3 2.961634 1_555
Hf7 Sb0 3.049904 1_554
Hf7 Sb0 3.074813 1_555
Hf8 Si0 2.662557 1_665
Hf8 Sb3 2.942849 1_555
Hf8 Sb5 2.942849 1_565
Hf8 Sb4 2.961634 1_555
Hf8 Sb1 3.049904 1_564
Hf8 Sb1 3.074813 1_565
Hf9 Si0 2.662557 1_665
Hf9 Sb3 2.942849 1_555
Hf9 Sb4 2.942849 1_655
Hf9 Sb5 2.961633 1_555
Hf9 Sb2 3.049904 1_654
Hf9 Sb2 3.074813 1_655
Cu0 Hf6 2.663596 1_554
Cu0 Hf9 2.663596 1_445
Cu0 Hf8 2.663596 1_445
Cu0 Hf5 2.663596 1_554
Cu0 Hf7 2.663596 1_555
Cu0 Hf4 2.663596 1_444
