# generated using pymatgen
data_Zr10BeSiSn6
_symmetry_space_group_name_H-M   'P 1'
_cell_length_a   8.64574916
_cell_length_b   8.64574875
_cell_length_c   5.84926973
_cell_angle_alpha   90.00000000
_cell_angle_beta   90.00000000
_cell_angle_gamma   120.00000155
_symmetry_Int_Tables_number   1
_chemical_formula_structural   Zr10BeSiSn6
_chemical_formula_sum   'Zr10 Be1 Si1 Sn6'
_cell_volume   378.64961112
_cell_formula_units_Z   1
loop_
 _symmetry_equiv_pos_site_id
 _symmetry_equiv_pos_as_xyz
  1  'x, y, z'
loop_
 _atom_site_type_symbol
 _atom_site_label
 _atom_site_symmetry_multiplicity
 _atom_site_fract_x
 _atom_site_fract_y
 _atom_site_fract_z
 _atom_site_occupancy
  Zr  Zr0  1  0.66666700  0.33333300  0.00000000  1
  Zr  Zr1  1  0.33333300  0.66666700  0.00000000  1
  Zr  Zr2  1  0.33333300  0.66666700  0.50000000  1
  Zr  Zr3  1  0.66666700  0.33333300  0.50000000  1
  Zr  Zr4  1  0.74478109  0.74478109  0.75493159  1
  Zr  Zr5  1  0.25521891  0.00000000  0.75493159  1
  Zr  Zr6  1  0.00000000  0.25521891  0.75493159  1
  Zr  Zr7  1  0.25521891  0.25521891  0.24506841  1
  Zr  Zr8  1  0.74478109  0.00000000  0.24506841  1
  Zr  Zr9  1  1.00000000  0.74478109  0.24506841  1
  Be  Be0  1  0.00000000  0.00000000  0.00000000  1
  Si  Si0  1  0.00000000  0.00000000  0.50000000  1
  Sn  Sn0  1  0.39151926  0.39151926  0.74924627  1
  Sn  Sn1  1  0.60848074  0.00000000  0.74924627  1
  Sn  Sn2  1  1.00000000  0.60848074  0.74924627  1
  Sn  Sn3  1  0.60848074  0.60848074  0.25075373  1
  Sn  Sn4  1  0.39151926  0.00000000  0.25075373  1
  Sn  Sn5  1  0.00000000  0.39151926  0.25075373  1
loop_
_geom_bond_atom_site_label_1
_geom_bond_atom_site_label_2
_geom_bond_distance
_geom_bond_site_symmetry_2
Be0 Zr7 2.631300 1_555
Be0 Zr6 2.631300 1_554
Be0 Zr9 2.631300 1_445
Be0 Zr4 2.631300 1_444
Be0 Zr5 2.631300 1_554
Be0 Zr8 2.631300 1_455
Si0 Zr6 2.663169 1_555
Si0 Zr7 2.663169 1_555
Si0 Zr9 2.663169 1_445
Si0 Zr4 2.663169 1_445
Si0 Zr5 2.663169 1_555
Si0 Zr8 2.663169 1_455
Sn0 Zr5 2.976395 1_555
Sn0 Zr6 2.976395 1_555
Sn0 Zr2 3.038792 1_555
Sn0 Zr3 3.038792 1_555
Sn0 Zr1 3.043032 1_556
Sn0 Zr0 3.043032 1_556
Sn0 Zr4 3.054394 1_555
Sn0 Zr7 3.130466 1_556
Sn0 Zr7 3.175799 1_555
Sn1 Zr6 2.976395 1_655
Sn1 Zr4 2.976395 1_545
Sn1 Zr3 3.038784 1_555
Sn1 Zr2 3.038787 1_545
Sn1 Zr0 3.043024 1_556
Sn1 Zr1 3.043027 1_546
Sn1 Zr5 3.054394 1_555
Sn1 Zr8 3.130466 1_556
Sn1 Zr8 3.175799 1_555
Sn2 Zr5 2.976395 1_665
Sn2 Zr4 2.976395 1_555
Sn2 Zr2 3.038784 1_655
Sn2 Zr3 3.038787 1_555
Sn2 Zr1 3.043024 1_656
Sn2 Zr0 3.043027 1_556
Sn2 Zr6 3.054394 1_655
Sn2 Zr9 3.130466 1_556
Sn2 Zr9 3.175799 1_555
Sn3 Zr8 2.976395 1_565
Sn3 Zr9 2.976395 1_555
Sn3 Zr3 3.038792 1_555
Sn3 Zr2 3.038792 1_555
Sn3 Zr0 3.043032 1_555
Sn3 Zr1 3.043032 1_555
Sn3 Zr7 3.054394 1_555
Sn3 Zr4 3.130466 1_554
Sn3 Zr4 3.175799 1_555
Sn4 Zr7 2.976395 1_555
Sn4 Zr9 2.976395 1_445
Sn4 Zr2 3.038784 1_545
Sn4 Zr3 3.038787 1_555
Sn4 Zr1 3.043024 1_545
Sn4 Zr0 3.043027 1_555
Sn4 Zr8 3.054394 1_555
Sn4 Zr5 3.130466 1_554
Sn4 Zr5 3.175799 1_555
Sn5 Zr8 2.976395 1_455
Sn5 Zr7 2.976395 1_555
Sn5 Zr3 3.038784 1_455
Sn5 Zr2 3.038787 1_555
Sn5 Zr0 3.043024 1_455
Sn5 Zr1 3.043027 1_555
Sn5 Zr9 3.054394 1_455
Sn5 Zr6 3.130466 1_554
Sn5 Zr6 3.175799 1_555
