# generated using pymatgen
data_Cs2Li3FeO4
_symmetry_space_group_name_H-M   'P 1'
_cell_length_a   5.02431769
_cell_length_b   8.15528207
_cell_length_c   8.15527660
_cell_angle_alpha   93.36187057
_cell_angle_beta   107.93757704
_cell_angle_gamma   107.93689825
_symmetry_Int_Tables_number   1
_chemical_formula_structural   Cs2Li3FeO4
_chemical_formula_sum   'Cs4 Li6 Fe2 O8'
_cell_volume   298.08510537
_cell_formula_units_Z   2
loop_
 _symmetry_equiv_pos_site_id
 _symmetry_equiv_pos_as_xyz
  1  'x, y, z'
loop_
 _atom_site_type_symbol
 _atom_site_label
 _atom_site_symmetry_multiplicity
 _atom_site_fract_x
 _atom_site_fract_y
 _atom_site_fract_z
 _atom_site_occupancy
  Cs  Cs0  1  0.38673242  0.12735885  0.12736635  1
  Cs  Cs1  1  0.13192509  0.37260745  0.37261357  1
  Cs  Cs2  1  0.86807491  0.62739255  0.62738643  1
  Cs  Cs3  1  0.61326858  0.87264115  0.87263365  1
  Li  Li0  1  0.25867515  0.50809996  0.00827613  1
  Li  Li1  1  0.50000490  0.75008338  0.24992779  1
  Li  Li2  1  0.74133003  0.99172488  0.49190017  1
  Li  Li3  1  0.25866997  0.00827412  0.50809883  1
  Li  Li4  1  0.49999510  0.24991562  0.75007121  1
  Li  Li5  1  0.74132485  0.49189904  0.99172287  1
  Fe  Fe0  1  0.00000231  0.75000836  0.24999362  1
  Fe  Fe1  1  0.99999769  0.24999064  0.75000538  1
  O  O0  1  0.11718066  0.70467663  0.05695954  1
  O  O1  1  0.64446905  0.55699743  0.20466856  1
  O  O2  1  0.88283375  0.94304867  0.29533389  1
  O  O3  1  0.35553775  0.79534091  0.44300825  1
  O  O4  1  0.64446225  0.20466009  0.55699275  1
  O  O5  1  0.11716625  0.05695233  0.70466711  1
  O  O6  1  0.35553095  0.44300357  0.79533244  1
  O  O7  1  0.88281934  0.29532437  0.94304146  1
loop_
_geom_bond_atom_site_label_1
_geom_bond_atom_site_label_2
_geom_bond_distance
_geom_bond_site_symmetry_2
Cs0 O0 3.234146 1_545
Cs0 O5 3.234262 1_554
Cs0 O2 3.252568 1_445
Cs0 O7 3.252617 1_454
Cs0 O4 3.285392 1_555
Cs0 O1 3.285500 1_555
Cs0 O2 3.285523 1_545
Cs0 O7 3.285574 1_554
Cs1 O6 3.234383 1_555
Cs1 O3 3.234508 1_555
Cs1 O4 3.252564 1_455
Cs1 O1 3.252573 1_455
Cs1 O2 3.284887 1_445
Cs1 O7 3.284974 1_454
Cs1 O4 3.285920 1_555
Cs1 O1 3.285980 1_555
Cs2 O1 3.234375 1_555
Cs2 O4 3.234500 1_555
Cs2 O3 3.252560 1_655
Cs2 O6 3.252569 1_655
Cs2 O5 3.284895 1_665
Cs2 O0 3.284982 1_656
Cs2 O3 3.285924 1_555
Cs2 O6 3.285983 1_555
Cs3 O7 3.234153 1_565
Cs3 O2 3.234269 1_556
Cs3 O5 3.252560 1_665
Cs3 O0 3.252609 1_656
Cs3 O3 3.285384 1_555
Cs3 O6 3.285492 1_555
Cs3 O5 3.285531 1_565
Cs3 O0 3.285582 1_556
Li0 O1 2.004541 1_555
Li0 O0 2.008548 1_555
Li0 O6 2.026332 1_554
Li0 O7 2.028493 1_454
Li1 O0 1.985385 1_555
Li1 O2 1.985403 1_555
Li1 O3 1.985795 1_555
Li1 O1 1.985824 1_555
Li2 O3 2.004522 1_555
Li2 O2 2.008492 1_555
Li2 O4 2.026292 1_565
Li2 O5 2.028387 1_665
Li3 O4 2.004527 1_555
Li3 O5 2.008511 1_555
Li3 O3 2.026273 1_545
Li3 O2 2.028379 1_445
Li4 O7 1.985390 1_555
Li4 O5 1.985398 1_555
Li4 O4 1.985776 1_555
Li4 O6 1.985843 1_555
Li5 O6 2.004535 1_555
Li5 O7 2.008530 1_555
Li5 O1 2.026351 1_556
Li5 O0 2.028501 1_656
Fe0 O0 1.896901 1_555
Fe0 O2 1.896930 1_455
Fe0 O1 1.896940 1_455
Fe0 O3 1.896940 1_555
Fe1 O5 1.896911 1_655
Fe1 O7 1.896919 1_555
Fe1 O4 1.896934 1_555
Fe1 O6 1.896946 1_655
