# generated using pymatgen
data_Sc4As6Ir6Ru
_symmetry_space_group_name_H-M   'P 1'
_cell_length_a   7.06938842
_cell_length_b   7.06938946
_cell_length_c   7.06938961
_cell_angle_alpha   109.47121542
_cell_angle_beta   109.47121842
_cell_angle_gamma   109.47122384
_symmetry_Int_Tables_number   1
_chemical_formula_structural   Sc4As6Ir6Ru
_chemical_formula_sum   'Sc4 As6 Ir6 Ru1'
_cell_volume   271.97175373
_cell_formula_units_Z   1
loop_
 _symmetry_equiv_pos_site_id
 _symmetry_equiv_pos_as_xyz
  1  'x, y, z'
loop_
 _atom_site_type_symbol
 _atom_site_label
 _atom_site_symmetry_multiplicity
 _atom_site_fract_x
 _atom_site_fract_y
 _atom_site_fract_z
 _atom_site_occupancy
  Sc  Sc0  1  0.00000000  0.00000000  0.50000000  1
  Sc  Sc1  1  0.50000000  0.00000000  0.00000000  1
  Sc  Sc2  1  0.00000000  0.50000000  0.00000000  1
  Sc  Sc3  1  0.50000000  0.50000000  0.50000000  1
  As  As0  1  0.68775588  0.68775588  0.00000000  1
  As  As1  1  0.31224412  0.31224412  1.00000000  1
  As  As2  1  0.00000000  0.68775588  0.68775588  1
  As  As3  1  1.00000000  0.31224412  0.31224412  1
  As  As4  1  0.68775588  0.00000000  0.68775588  1
  As  As5  1  0.31224412  1.00000000  0.31224412  1
  Ir  Ir0  1  0.25000000  0.50000000  0.75000000  1
  Ir  Ir1  1  0.75000000  0.25000000  0.50000000  1
  Ir  Ir2  1  0.50000000  0.25000000  0.75000000  1
  Ir  Ir3  1  0.50000000  0.75000000  0.25000000  1
  Ir  Ir4  1  0.75000000  0.50000000  0.25000000  1
  Ir  Ir5  1  0.25000000  0.75000000  0.50000000  1
  Ru  Ru0  1  0.00000000  0.00000000  0.00000000  1
loop_
_geom_bond_atom_site_label_1
_geom_bond_atom_site_label_2
_geom_bond_distance
_geom_bond_site_symmetry_2
As0 Ru0 2.548857 1_665
As0 Ir0 2.552200 1_554
As0 Ir3 2.552200 1_555
As0 Ir4 2.552200 1_555
As0 Ir2 2.552200 1_554
As0 Sc2 2.930451 1_655
As0 Sc1 2.930451 1_565
As0 Sc3 2.930451 1_554
As0 Sc0 2.930451 1_665
As1 Ru0 2.548857 1_556
As1 Ir4 2.552200 1_556
As1 Ir2 2.552200 1_555
As1 Ir0 2.552200 1_555
As1 Ir3 2.552200 1_556
As1 Sc2 2.930451 1_556
As1 Sc1 2.930451 1_556
As1 Sc3 2.930451 1_556
As1 Sc0 2.930451 1_555
As2 Ru0 2.548858 1_566
As2 Ir5 2.552200 1_555
As2 Ir0 2.552200 1_555
As2 Ir1 2.552200 1_455
As2 Ir4 2.552200 1_455
As2 Sc3 2.930451 1_455
As2 Sc1 2.930451 1_566
As2 Sc0 2.930451 1_565
As2 Sc2 2.930451 1_556
As3 Ru0 2.548858 1_655
As3 Ir1 2.552200 1_555
As3 Ir4 2.552200 1_555
As3 Ir5 2.552200 1_655
As3 Ir0 2.552200 1_655
As3 Sc3 2.930451 1_655
As3 Sc1 2.930451 1_555
As3 Sc0 2.930451 1_655
As3 Sc2 2.930451 1_655
As4 Ru0 2.548857 1_656
As4 Ir5 2.552200 1_545
As4 Ir2 2.552200 1_555
As4 Ir1 2.552200 1_555
As4 Ir3 2.552200 1_545
As4 Sc0 2.930451 1_655
As4 Sc1 2.930451 1_556
As4 Sc3 2.930451 1_545
As4 Sc2 2.930451 1_656
As5 Ru0 2.548857 1_565
As5 Ir1 2.552200 1_565
As5 Ir3 2.552200 1_555
As5 Ir5 2.552200 1_555
As5 Ir2 2.552200 1_565
As5 Sc0 2.930451 1_565
As5 Sc1 2.930451 1_565
As5 Sc3 2.930451 1_565
As5 Sc2 2.930451 1_555
Ir0 Sc2 2.886066 1_556
Ir0 Sc3 2.886066 1_555
Ir0 Sc0 2.886066 1_555
Ir0 Sc1 2.886066 1_566
Ir1 Sc0 2.886066 1_655
Ir1 Sc3 2.886066 1_555
Ir1 Sc1 2.886066 1_555
Ir1 Sc2 2.886066 1_656
Ir2 Sc0 2.886066 1_555
Ir2 Sc2 2.886066 1_656
Ir2 Sc1 2.886066 1_556
Ir2 Sc3 2.886066 1_555
Ir3 Sc2 2.886066 1_555
Ir3 Sc0 2.886066 1_665
Ir3 Sc3 2.886066 1_555
Ir3 Sc1 2.886066 1_565
Ir4 Sc2 2.886066 1_655
Ir4 Sc3 2.886066 1_555
Ir4 Sc0 2.886066 1_665
Ir4 Sc1 2.886066 1_555
Ir5 Sc3 2.886066 1_555
Ir5 Sc0 2.886066 1_565
Ir5 Sc1 2.886066 1_566
Ir5 Sc2 2.886066 1_555
