# generated using pymatgen
data_Cs2Ti7CBr18
_symmetry_space_group_name_H-M   'P 1'
_cell_length_a   10.57685086
_cell_length_b   10.57685085
_cell_length_c   10.57685084
_cell_angle_alpha   55.63841383
_cell_angle_beta   55.63841249
_cell_angle_gamma   55.63841153
_symmetry_Int_Tables_number   1
_chemical_formula_structural   Cs2Ti7CBr18
_chemical_formula_sum   'Cs2 Ti7 C1 Br18'
_cell_volume   751.99262167
_cell_formula_units_Z   1
loop_
 _symmetry_equiv_pos_site_id
 _symmetry_equiv_pos_as_xyz
  1  'x, y, z'
loop_
 _atom_site_type_symbol
 _atom_site_label
 _atom_site_symmetry_multiplicity
 _atom_site_fract_x
 _atom_site_fract_y
 _atom_site_fract_z
 _atom_site_occupancy
  Cs  Cs0  1  0.77412707  0.77412707  0.77412707  1
  Cs  Cs1  1  0.22587293  0.22587293  0.22587293  1
  Ti  Ti0  1  0.15012911  0.90496511  0.80668516  1
  Ti  Ti1  1  0.84987089  0.09503489  0.19331484  1
  Ti  Ti2  1  0.09503489  0.19331484  0.84987089  1
  Ti  Ti3  1  0.19331484  0.84987089  0.09503489  1
  Ti  Ti4  1  0.90496511  0.80668516  0.15012911  1
  Ti  Ti5  1  0.80668516  0.15012911  0.90496511  1
  Ti  Ti6  1  0.50000000  0.50000000  0.50000000  1
  C  C0  1  0.00000000  0.00000000  0.00000000  1
  Br  Br0  1  0.21628004  0.46502979  0.64980758  1
  Br  Br1  1  0.78371996  0.53497021  0.35019242  1
  Br  Br2  1  0.34006849  0.05207462  0.93431595  1
  Br  Br3  1  0.65993151  0.94792538  0.06568405  1
  Br  Br4  1  0.93431595  0.34006849  0.05207462  1
  Br  Br5  1  0.71161303  0.88371401  0.40350133  1
  Br  Br6  1  0.35019242  0.78371996  0.53497021  1
  Br  Br7  1  0.59649867  0.28838697  0.11628599  1
  Br  Br8  1  0.28838697  0.11628599  0.59649867  1
  Br  Br9  1  0.11628599  0.59649867  0.28838697  1
  Br  Br10  1  0.94792538  0.06568405  0.65993151  1
  Br  Br11  1  0.40350133  0.71161303  0.88371401  1
  Br  Br12  1  0.88371401  0.40350133  0.71161303  1
  Br  Br13  1  0.06568405  0.65993151  0.94792538  1
  Br  Br14  1  0.46502979  0.64980758  0.21628004  1
  Br  Br15  1  0.64980758  0.21628004  0.46502979  1
  Br  Br16  1  0.53497021  0.35019242  0.78371996  1
  Br  Br17  1  0.05207462  0.93431595  0.34006849  1
loop_
_geom_bond_atom_site_label_1
_geom_bond_atom_site_label_2
_geom_bond_distance
_geom_bond_site_symmetry_2
C0 Ti1 2.136755 1_455
C0 Ti0 2.136755 1_544
C0 Ti3 2.136755 1_545
C0 Ti5 2.136755 1_454
C0 Ti2 2.136756 1_554
C0 Ti4 2.136756 1_445
Br0 Ti6 2.622323 1_555
Br0 Ti2 2.934920 1_555
Br0 Cs0 3.865233 1_455
Br1 Ti6 2.622323 1_555
Br1 Ti4 2.934920 1_555
Br1 Cs1 3.865233 1_655
Br2 Ti2 2.546103 1_555
Br2 Ti3 2.556915 1_546
Br2 Cs1 3.746422 1_556
Br2 Cs0 3.767873 1_545
Br3 Ti4 2.546103 1_555
Br3 Ti5 2.556915 1_564
Br3 Cs0 3.746422 1_554
Br3 Cs1 3.767873 1_565
Br4 Ti1 2.546103 1_555
Br4 Ti2 2.556915 1_654
Br4 Cs1 3.746422 1_655
Br4 Cs0 3.767874 1_554
Br5 Ti4 2.534773 1_555
Br5 Ti1 2.546985 1_565
Br5 Cs0 3.752226 1_555
Br6 Ti6 2.622323 1_555
Br6 Ti0 2.934920 1_555
Br6 Cs1 3.865234 1_565
Br7 Ti1 2.534773 1_555
Br7 Ti5 2.546985 1_554
Br7 Cs1 3.752226 1_555
Br8 Ti2 2.534773 1_555
Br8 Ti0 2.546985 1_545
Br8 Cs1 3.752226 1_555
Br9 Ti3 2.534773 1_555
Br9 Ti4 2.546985 1_455
Br9 Cs1 3.752226 1_555
Br10 Ti5 2.546103 1_555
Br10 Ti0 2.556915 1_645
Br10 Cs0 3.746422 1_545
Br10 Cs1 3.767874 1_655
Br11 Ti0 2.534773 1_555
Br11 Ti3 2.546985 1_556
Br11 Cs0 3.752226 1_555
Br12 Ti5 2.534773 1_555
Br12 Ti2 2.546985 1_655
Br12 Cs0 3.752226 1_555
Br13 Ti0 2.546103 1_555
Br13 Ti4 2.556915 1_456
Br13 Cs0 3.746422 1_455
Br13 Cs1 3.767874 1_556
Br14 Ti6 2.622323 1_555
Br14 Ti3 2.934920 1_555
Br14 Cs0 3.865234 1_554
Br15 Ti6 2.622323 1_555
Br15 Ti1 2.934920 1_555
Br15 Cs0 3.865234 1_545
Br16 Ti6 2.622323 1_555
Br16 Ti5 2.934920 1_555
Br16 Cs1 3.865234 1_556
Br17 Ti3 2.546103 1_555
Br17 Ti1 2.556915 1_465
Br17 Cs1 3.746422 1_565
Br17 Cs0 3.767874 1_455
