# generated using pymatgen
data_Ca2B4RuRh3
_symmetry_space_group_name_H-M   'P 1'
_cell_length_a   6.90143895
_cell_length_b   5.98879519
_cell_length_c   5.51491358
_cell_angle_alpha   73.60008221
_cell_angle_beta   56.35176619
_cell_angle_gamma   49.99502313
_symmetry_Int_Tables_number   1
_chemical_formula_structural   Ca2B4RuRh3
_chemical_formula_sum   'Ca2 B4 Ru1 Rh3'
_cell_volume   144.36693155
_cell_formula_units_Z   1
loop_
 _symmetry_equiv_pos_site_id
 _symmetry_equiv_pos_as_xyz
  1  'x, y, z'
loop_
 _atom_site_type_symbol
 _atom_site_label
 _atom_site_symmetry_multiplicity
 _atom_site_fract_x
 _atom_site_fract_y
 _atom_site_fract_z
 _atom_site_occupancy
  Ca  Ca0  1  0.49922131  0.49922131  0.50077869  1
  Ca  Ca1  1  0.75197074  0.75197074  0.74802926  1
  B  B0  1  0.82158389  0.18624890  0.82766547  1
  B  B1  1  0.06343435  0.43047175  0.07386097  1
  B  B2  1  0.18624890  0.82158389  0.16450175  1
  B  B3  1  0.43047175  0.06343435  0.43223294  1
  Ru  Ru0  1  0.13254296  0.13254296  0.86745704  1
  Rh  Rh0  1  0.38063051  0.38063051  0.11936949  1
  Rh  Rh1  1  0.11669357  0.11669357  0.38330643  1
  Rh  Rh2  1  0.86720203  0.86720203  0.13279797  1
loop_
_geom_bond_atom_site_label_1
_geom_bond_atom_site_label_2
_geom_bond_distance
_geom_bond_site_symmetry_2
Ca0 Rh1 3.009104 1_565
Ca0 Rh1 3.009104 1_655
Ca0 Rh0 3.016196 1_555
Ca0 Rh0 3.016196 1_556
Ca0 Rh2 3.340912 1_545
Ca0 Rh2 3.340913 1_456
Ca0 Ru0 3.346401 1_565
Ca0 Ru0 3.346402 1_654
Ca1 Rh2 3.002332 1_556
Ca1 Rh2 3.002333 1_555
Ca1 Ru0 3.017269 1_655
Ca1 Ru0 3.017270 1_565
Ca1 Rh0 3.326961 1_566
Ca1 Rh0 3.326962 1_655
Ca1 Rh1 3.354727 1_655
Ca1 Rh1 3.354728 1_566
B0 Rh1 2.069210 1_655
B0 Rh0 2.069217 1_556
B0 Ru0 2.086093 1_655
B0 Rh2 2.140032 1_546
B0 Ca0 2.981250 1_555
B0 Ca1 3.033653 1_555
B0 Ca1 3.110177 1_545
B1 Ru0 2.039067 1_554
B1 Rh2 2.053928 1_455
B1 Rh1 2.138901 1_555
B1 Rh0 2.161185 1_555
B1 Ca1 2.926134 1_454
B1 Ca0 3.033412 1_455
B1 Ca0 3.086622 1_554
B2 Rh1 2.069210 1_565
B2 Rh0 2.069216 1_555
B2 Ru0 2.086093 1_564
B2 Rh2 2.140032 1_455
B2 Ca0 2.981250 1_555
B2 Ca1 3.033654 1_554
B2 Ca1 3.110177 1_455
B3 Ru0 2.039067 1_555
B3 Rh2 2.053928 1_545
B3 Rh1 2.138901 1_555
B3 Rh0 2.161185 1_555
B3 Ca1 2.926134 1_545
B3 Ca0 3.033412 1_545
B3 Ca0 3.086622 1_555
