# generated using pymatgen
data_ZrTa(NbN2)3
_symmetry_space_group_name_H-M   'P 1'
_cell_length_a   5.28209247
_cell_length_b   5.28209174
_cell_length_c   10.53627983
_cell_angle_alpha   90.00000000
_cell_angle_beta   90.00000000
_cell_angle_gamma   119.99999837
_symmetry_Int_Tables_number   1
_chemical_formula_structural   ZrTa(NbN2)3
_chemical_formula_sum   'Zr2 Ta2 Nb6 N12'
_cell_volume   254.58327881
_cell_formula_units_Z   2
loop_
 _symmetry_equiv_pos_site_id
 _symmetry_equiv_pos_as_xyz
  1  'x, y, z'
loop_
 _atom_site_type_symbol
 _atom_site_label
 _atom_site_symmetry_multiplicity
 _atom_site_fract_x
 _atom_site_fract_y
 _atom_site_fract_z
 _atom_site_occupancy
  Zr  Zr0  1  0.66666700  0.33333300  0.00000000  1
  Zr  Zr1  1  0.33333300  0.66666700  0.00000000  1
  Ta  Ta0  1  0.33333300  0.66666700  0.50000000  1
  Ta  Ta1  1  0.66666700  0.33333300  0.50000000  1
  Nb  Nb0  1  0.67689652  0.67689652  0.74570036  1
  Nb  Nb1  1  0.32310348  1.00000000  0.74570036  1
  Nb  Nb2  1  0.00000000  0.32310348  0.74570036  1
  Nb  Nb3  1  0.32310348  0.32310348  0.25429964  1
  Nb  Nb4  1  0.67689652  0.00000000  0.25429964  1
  Nb  Nb5  1  1.00000000  0.67689652  0.25429964  1
  N  N0  1  0.65470336  0.65470336  0.38449369  1
  N  N1  1  0.34529664  1.00000000  0.38449369  1
  N  N2  1  0.00000000  0.34529664  0.38449369  1
  N  N3  1  0.34529664  0.34529664  0.61550631  1
  N  N4  1  0.65470336  0.00000000  0.61550631  1
  N  N5  1  1.00000000  0.65470336  0.61550631  1
  N  N6  1  0.34439607  0.34439607  0.87102219  1
  N  N7  1  0.65560393  0.00000000  0.87102219  1
  N  N8  1  1.00000000  0.65560393  0.87102219  1
  N  N9  1  0.65560393  0.65560393  0.12897781  1
  N  N10  1  0.34439607  1.00000000  0.12897781  1
  N  N11  1  0.00000000  0.34439607  0.12897781  1
loop_
_geom_bond_atom_site_label_1
_geom_bond_atom_site_label_2
_geom_bond_distance
_geom_bond_site_symmetry_2
N0 Ta1 2.115160 1_555
N0 Ta0 2.115160 1_555
N0 Nb3 2.224775 1_555
N0 Nb4 2.237908 1_565
N0 Nb5 2.237908 1_555
N1 Ta0 2.115156 1_555
N1 Ta1 2.115158 1_565
N1 Nb4 2.224775 1_565
N1 Nb3 2.237908 1_565
N1 Nb5 2.237908 1_455
N2 Ta1 2.115156 1_455
N2 Ta0 2.115158 1_555
N2 Nb5 2.224775 1_455
N2 Nb4 2.237908 1_455
N2 Nb3 2.237908 1_555
N3 Ta0 2.115160 1_555
N3 Ta1 2.115160 1_555
N3 Nb0 2.224775 1_555
N3 Nb1 2.237908 1_545
N3 Nb2 2.237908 1_555
N4 Ta1 2.115156 1_555
N4 Ta0 2.115158 1_545
N4 Nb1 2.224775 1_545
N4 Nb0 2.237908 1_545
N4 Nb2 2.237908 1_655
N5 Ta0 2.115156 1_655
N5 Ta1 2.115158 1_555
N5 Nb2 2.224775 1_655
N5 Nb1 2.237908 1_655
N5 Nb0 2.237908 1_555
N6 Nb0 2.197295 1_555
N6 Zr1 2.201665 1_556
N6 Zr0 2.201665 1_556
N6 Nb1 2.204726 1_545
N6 Nb2 2.204726 1_555
N7 Nb1 2.197296 1_545
N7 Zr0 2.201661 1_556
N7 Zr1 2.201663 1_546
N7 Nb0 2.204726 1_545
N7 Nb2 2.204726 1_655
N8 Nb2 2.197295 1_655
N8 Zr1 2.201661 1_656
N8 Zr0 2.201663 1_556
N8 Nb1 2.204726 1_655
N8 Nb0 2.204726 1_555
N9 Nb3 2.197295 1_555
N9 Zr0 2.201665 1_555
N9 Zr1 2.201665 1_555
N9 Nb4 2.204726 1_565
N9 Nb5 2.204726 1_555
N10 Nb4 2.197296 1_565
N10 Zr1 2.201661 1_555
N10 Zr0 2.201663 1_565
N10 Nb3 2.204726 1_565
N10 Nb5 2.204726 1_455
N11 Nb5 2.197295 1_455
N11 Zr0 2.201661 1_455
N11 Zr1 2.201663 1_555
N11 Nb4 2.204726 1_455
N11 Nb3 2.204726 1_555
