# generated using pymatgen
data_TaTi2(GaIr)3
_symmetry_space_group_name_H-M   'P 1'
_cell_length_a   14.60188222
_cell_length_b   14.65128647
_cell_length_c   5.87598227
_cell_angle_alpha   90.00000000
_cell_angle_beta   90.00000000
_cell_angle_gamma   119.88851745
_symmetry_Int_Tables_number   1
_chemical_formula_structural   TaTi2(GaIr)3
_chemical_formula_sum   'Ta8 Ti16 Ga24 Ir24'
_cell_volume   1089.88954893
_cell_formula_units_Z   8
loop_
 _symmetry_equiv_pos_site_id
 _symmetry_equiv_pos_as_xyz
  1  'x, y, z'
loop_
 _atom_site_type_symbol
 _atom_site_label
 _atom_site_symmetry_multiplicity
 _atom_site_fract_x
 _atom_site_fract_y
 _atom_site_fract_z
 _atom_site_occupancy
  Ta  Ta0_0  1  0.18570537  0.00000000  0.25000000  1
  Ta  Ta0_1  1  0.18570537  0.00000000  0.75000000  1
  Ta  Ta0_2  1  0.18570537  0.50000000  0.25000000  1
  Ta  Ta0_3  1  0.18570537  0.50000000  0.75000000  1
  Ta  Ta0_4  1  0.68570537  0.00000000  0.25000000  1
  Ta  Ta0_5  1  0.68570537  0.00000000  0.75000000  1
  Ta  Ta0_6  1  0.68570537  0.50000000  0.25000000  1
  Ta  Ta0_7  1  0.68570537  0.50000000  0.75000000  1
  Ti  Ti0_0  1  0.49978356  0.18740806  0.25000000  1
  Ti  Ti0_1  1  0.49978356  0.18740806  0.75000000  1
  Ti  Ti0_2  1  0.49978356  0.68740806  0.25000000  1
  Ti  Ti0_3  1  0.49978356  0.68740806  0.75000000  1
  Ti  Ti0_4  1  0.99978356  0.18740806  0.25000000  1
  Ti  Ti0_5  1  0.99978356  0.18740806  0.75000000  1
  Ti  Ti0_6  1  0.99978356  0.68740806  0.25000000  1
  Ti  Ti0_7  1  0.99978356  0.68740806  0.75000000  1
  Ti  Ti1_0  1  0.31237600  0.31259194  0.25000000  1
  Ti  Ti1_1  1  0.31237600  0.31259194  0.75000000  1
  Ti  Ti1_2  1  0.31237600  0.81259194  0.25000000  1
  Ti  Ti1_3  1  0.31237600  0.81259194  0.75000000  1
  Ti  Ti1_4  1  0.81237600  0.31259194  0.25000000  1
  Ti  Ti1_5  1  0.81237600  0.31259194  0.75000000  1
  Ti  Ti1_6  1  0.81237600  0.81259194  0.25000000  1
  Ti  Ti1_7  1  0.81237600  0.81259194  0.75000000  1
  Ga  Ga0_0  1  0.35501433  0.00000000  0.00000000  1
  Ga  Ga0_1  1  0.35501433  0.00000000  0.50000000  1
  Ga  Ga0_2  1  0.35501433  0.50000000  0.00000000  1
  Ga  Ga0_3  1  0.35501433  0.50000000  0.50000000  1
  Ga  Ga0_4  1  0.85501433  0.00000000  0.00000000  1
  Ga  Ga0_5  1  0.85501433  0.00000000  0.50000000  1
  Ga  Ga0_6  1  0.85501433  0.50000000  0.00000000  1
  Ga  Ga0_7  1  0.85501433  0.50000000  0.50000000  1
  Ga  Ga1_0  1  0.14591971  0.14698625  0.00000000  1
  Ga  Ga1_1  1  0.14591971  0.14698625  0.50000000  1
  Ga  Ga1_2  1  0.14591971  0.64698625  0.00000000  1
  Ga  Ga1_3  1  0.14591971  0.64698625  0.50000000  1
  Ga  Ga1_4  1  0.64591971  0.14698625  0.00000000  1
  Ga  Ga1_5  1  0.64591971  0.14698625  0.50000000  1
  Ga  Ga1_6  1  0.64591971  0.64698625  0.00000000  1
  Ga  Ga1_7  1  0.64591971  0.64698625  0.50000000  1
  Ga  Ga2_0  1  0.49893346  0.35301375  0.00000000  1
  Ga  Ga2_1  1  0.49893346  0.35301375  0.50000000  1
  Ga  Ga2_2  1  0.49893346  0.85301375  0.00000000  1
  Ga  Ga2_3  1  0.49893346  0.85301375  0.50000000  1
  Ga  Ga2_4  1  0.99893346  0.35301375  0.00000000  1
  Ga  Ga2_5  1  0.99893346  0.35301375  0.50000000  1
  Ga  Ga2_6  1  0.99893346  0.85301375  0.00000000  1
  Ga  Ga2_7  1  0.99893346  0.85301375  0.50000000  1
  Ir  Ir0_0  1  0.33526832  0.16880832  0.00000000  1
  Ir  Ir0_1  1  0.33526832  0.16880832  0.50000000  1
  Ir  Ir0_2  1  0.33526832  0.66880832  0.00000000  1
  Ir  Ir0_3  1  0.33526832  0.66880832  0.50000000  1
  Ir  Ir0_4  1  0.83526832  0.16880832  0.00000000  1
  Ir  Ir0_5  1  0.83526832  0.16880832  0.50000000  1
  Ir  Ir0_6  1  0.83526832  0.66880832  0.00000000  1
  Ir  Ir0_7  1  0.83526832  0.66880832  0.50000000  1
  Ir  Ir1_0  1  0.16646000  0.33119168  0.00000000  1
  Ir  Ir1_1  1  0.16646000  0.33119168  0.50000000  1
  Ir  Ir1_2  1  0.16646000  0.83119168  0.00000000  1
  Ir  Ir1_3  1  0.16646000  0.83119168  0.50000000  1
  Ir  Ir1_4  1  0.66646000  0.33119168  0.00000000  1
  Ir  Ir1_5  1  0.66646000  0.33119168  0.50000000  1
  Ir  Ir1_6  1  0.66646000  0.83119168  0.00000000  1
  Ir  Ir1_7  1  0.66646000  0.83119168  0.50000000  1
  Ir  Ir2_0  1  0.00054026  0.00000000  0.25000000  1
  Ir  Ir2_1  1  0.00054026  0.00000000  0.75000000  1
  Ir  Ir2_2  1  0.00054026  0.50000000  0.25000000  1
  Ir  Ir2_3  1  0.00054026  0.50000000  0.75000000  1
  Ir  Ir2_4  1  0.50054026  0.00000000  0.25000000  1
  Ir  Ir2_5  1  0.50054026  0.00000000  0.75000000  1
  Ir  Ir2_6  1  0.50054026  0.50000000  0.25000000  1
  Ir  Ir2_7  1  0.50054026  0.50000000  0.75000000  1
loop_
_geom_bond_atom_site_label_1
_geom_bond_atom_site_label_2
_geom_bond_distance
_geom_bond_site_symmetry_2
Ta0_0 Ta0_1 2.937991 1_554
Ta0_0 Ta0_1 2.937991 1_555
Ta0_2 Ta0_3 2.937991 1_554
Ta0_2 Ta0_3 2.937991 1_555
Ta0_4 Ta0_5 2.937991 1_555
Ta0_4 Ta0_5 2.937991 1_554
Ta0_6 Ta0_7 2.937991 1_555
Ta0_6 Ta0_7 2.937991 1_554
Ti0_0 Ti0_1 2.937991 1_555
Ti0_0 Ti0_1 2.937991 1_554
Ti0_2 Ti0_3 2.937991 1_554
Ti0_2 Ti0_3 2.937991 1_555
Ti0_4 Ti0_5 2.937991 1_555
Ti0_4 Ti0_5 2.937991 1_554
Ti0_6 Ti0_7 2.937991 1_555
Ti0_6 Ti0_7 2.937991 1_554
Ti1_0 Ti1_1 2.937991 1_554
Ti1_0 Ti1_1 2.937991 1_555
Ti1_2 Ti1_3 2.937991 1_555
Ti1_2 Ti1_3 2.937991 1_554
Ti1_4 Ti1_5 2.937991 1_554
Ti1_4 Ti1_5 2.937991 1_555
Ti1_6 Ti1_7 2.937991 1_555
Ti1_6 Ti1_7 2.937991 1_554
Ga0_0 Ir2_5 2.583287 1_554
Ga0_0 Ir2_4 2.583287 1_555
Ga0_0 Ir0_0 2.628850 1_555
Ga0_0 Ir1_2 2.628850 1_545
Ga0_0 Ta0_1 2.875738 1_554
Ga0_0 Ta0_0 2.875738 1_555
Ga0_0 Ti0_1 2.895007 1_554
Ga0_0 Ti0_0 2.895007 1_555
Ga0_0 Ti1_3 2.895009 1_544
Ga0_0 Ti1_2 2.895009 1_545
Ga0_0 Ga0_1 2.937991 1_554
Ga0_0 Ga0_1 2.937991 1_555
Ga0_1 Ir2_5 2.583287 1_555
Ga0_1 Ir2_4 2.583287 1_555
Ga0_1 Ir0_1 2.628850 1_555
Ga0_1 Ir1_3 2.628850 1_545
Ga0_1 Ta0_0 2.875738 1_555
Ga0_1 Ta0_1 2.875738 1_555
Ga0_1 Ti0_1 2.895007 1_555
Ga0_1 Ti0_0 2.895007 1_555
Ga0_1 Ti1_3 2.895009 1_545
Ga0_1 Ti1_2 2.895009 1_545
Ga0_2 Ir2_6 2.583287 1_555
Ga0_2 Ir2_7 2.583287 1_554
Ga0_2 Ir0_2 2.628850 1_555
Ga0_2 Ir1_0 2.628850 1_555
Ga0_2 Ta0_3 2.875738 1_554
Ga0_2 Ta0_2 2.875738 1_555
Ga0_2 Ti0_2 2.895007 1_555
Ga0_2 Ti0_3 2.895007 1_554
Ga0_2 Ti1_1 2.895009 1_554
Ga0_2 Ti1_0 2.895009 1_555
Ga0_2 Ga0_3 2.937991 1_555
Ga0_2 Ga0_3 2.937991 1_554
Ga0_3 Ir2_7 2.583287 1_555
Ga0_3 Ir2_6 2.583287 1_555
Ga0_3 Ir0_3 2.628850 1_555
Ga0_3 Ir1_1 2.628850 1_555
Ga0_3 Ta0_3 2.875738 1_555
Ga0_3 Ta0_2 2.875738 1_555
Ga0_3 Ti0_3 2.895007 1_555
Ga0_3 Ti0_2 2.895007 1_555
Ga0_3 Ti1_0 2.895009 1_555
Ga0_3 Ti1_1 2.895009 1_555
Ga0_4 Ir2_0 2.583287 1_655
Ga0_4 Ir2_1 2.583287 1_654
Ga0_4 Ir0_4 2.628850 1_555
Ga0_4 Ir1_6 2.628850 1_545
Ga0_4 Ta0_4 2.875738 1_555
Ga0_4 Ta0_5 2.875738 1_554
Ga0_4 Ti0_4 2.895007 1_555
Ga0_4 Ti0_5 2.895007 1_554
Ga0_4 Ti1_6 2.895009 1_545
Ga0_4 Ti1_7 2.895009 1_544
Ga0_4 Ga0_5 2.937991 1_554
Ga0_4 Ga0_5 2.937991 1_555
Ga0_5 Ir2_0 2.583287 1_655
Ga0_5 Ir2_1 2.583287 1_655
Ga0_5 Ir0_5 2.628850 1_555
Ga0_5 Ir1_7 2.628850 1_545
Ga0_5 Ta0_4 2.875738 1_555
Ga0_5 Ta0_5 2.875738 1_555
Ga0_5 Ti0_4 2.895007 1_555
Ga0_5 Ti0_5 2.895007 1_555
Ga0_5 Ti1_6 2.895009 1_545
Ga0_5 Ti1_7 2.895009 1_545
Ga0_6 Ir2_3 2.583287 1_654
Ga0_6 Ir2_2 2.583287 1_655
Ga0_6 Ir0_6 2.628850 1_555
Ga0_6 Ir1_4 2.628850 1_555
Ga0_6 Ta0_6 2.875738 1_555
Ga0_6 Ta0_7 2.875738 1_554
Ga0_6 Ti0_7 2.895007 1_554
Ga0_6 Ti0_6 2.895007 1_555
Ga0_6 Ti1_4 2.895009 1_555
Ga0_6 Ti1_5 2.895009 1_554
Ga0_6 Ga0_7 2.937991 1_555
Ga0_6 Ga0_7 2.937991 1_554
Ga0_7 Ir2_3 2.583287 1_655
Ga0_7 Ir2_2 2.583287 1_655
Ga0_7 Ir0_7 2.628850 1_555
Ga0_7 Ir1_5 2.628850 1_555
Ga0_7 Ta0_6 2.875738 1_555
Ga0_7 Ta0_7 2.875738 1_555
Ga0_7 Ti0_6 2.895007 1_555
Ga0_7 Ti0_7 2.895007 1_555
Ga0_7 Ti1_4 2.895009 1_555
Ga0_7 Ti1_5 2.895009 1_555
Ga1_0 Ir1_0 2.562616 1_555
Ga1_0 Ir2_1 2.597281 1_554
Ga1_0 Ir2_0 2.597281 1_555
Ga1_0 Ir0_0 2.620228 1_555
Ga1_0 Ti1_1 2.841698 1_554
Ga1_0 Ti1_0 2.841698 1_555
Ga1_0 Ti0_5 2.884707 1_454
Ga1_0 Ti0_4 2.884707 1_455
Ga1_0 Ta0_0 2.894830 1_555
Ga1_0 Ta0_1 2.894830 1_554
Ga1_0 Ga1_1 2.937991 1_555
Ga1_0 Ga1_1 2.937991 1_554
Ga1_1 Ir1_1 2.562616 1_555
Ga1_1 Ir2_1 2.597281 1_555
Ga1_1 Ir2_0 2.597281 1_555
Ga1_1 Ir0_1 2.620228 1_555
Ga1_1 Ti1_0 2.841698 1_555
Ga1_1 Ti1_1 2.841698 1_555
Ga1_1 Ti0_4 2.884707 1_455
Ga1_1 Ti0_5 2.884707 1_455
Ga1_1 Ta0_0 2.894830 1_555
Ga1_1 Ta0_1 2.894830 1_555
Ga1_2 Ir1_2 2.562616 1_555
Ga1_2 Ir2_2 2.597281 1_555
Ga1_2 Ir2_3 2.597281 1_554
Ga1_2 Ir0_2 2.620228 1_555
Ga1_2 Ti1_2 2.841698 1_555
Ga1_2 Ti1_3 2.841698 1_554
Ga1_2 Ti0_6 2.884707 1_455
Ga1_2 Ti0_7 2.884707 1_454
Ga1_2 Ta0_2 2.894830 1_555
Ga1_2 Ta0_3 2.894830 1_554
Ga1_2 Ga1_3 2.937991 1_555
Ga1_2 Ga1_3 2.937991 1_554
Ga1_3 Ir1_3 2.562616 1_555
Ga1_3 Ir2_2 2.597281 1_555
Ga1_3 Ir2_3 2.597281 1_555
Ga1_3 Ir0_3 2.620228 1_555
Ga1_3 Ti1_2 2.841698 1_555
Ga1_3 Ti1_3 2.841698 1_555
Ga1_3 Ti0_6 2.884707 1_455
Ga1_3 Ti0_7 2.884707 1_455
Ga1_3 Ta0_2 2.894830 1_555
Ga1_3 Ta0_3 2.894830 1_555
Ga1_4 Ir1_4 2.562616 1_555
Ga1_4 Ir2_5 2.597281 1_554
Ga1_4 Ir2_4 2.597281 1_555
Ga1_4 Ir0_4 2.620228 1_555
Ga1_4 Ti1_4 2.841698 1_555
Ga1_4 Ti1_5 2.841698 1_554
Ga1_4 Ti0_1 2.884707 1_554
Ga1_4 Ti0_0 2.884707 1_555
Ga1_4 Ta0_4 2.894830 1_555
Ga1_4 Ta0_5 2.894830 1_554
Ga1_4 Ga1_5 2.937991 1_555
Ga1_4 Ga1_5 2.937991 1_554
Ga1_5 Ir1_5 2.562616 1_555
Ga1_5 Ir2_5 2.597281 1_555
Ga1_5 Ir2_4 2.597281 1_555
Ga1_5 Ir0_5 2.620228 1_555
Ga1_5 Ti1_4 2.841698 1_555
Ga1_5 Ti1_5 2.841698 1_555
Ga1_5 Ti0_1 2.884707 1_555
Ga1_5 Ti0_0 2.884707 1_555
Ga1_5 Ta0_4 2.894830 1_555
Ga1_5 Ta0_5 2.894830 1_555
Ga1_6 Ir1_6 2.562616 1_555
Ga1_6 Ir2_6 2.597281 1_555
Ga1_6 Ir2_7 2.597281 1_554
Ga1_6 Ir0_6 2.620228 1_555
Ga1_6 Ti1_7 2.841698 1_554
Ga1_6 Ti1_6 2.841698 1_555
Ga1_6 Ti0_3 2.884707 1_554
Ga1_6 Ti0_2 2.884707 1_555
Ga1_6 Ta0_7 2.894830 1_554
Ga1_6 Ta0_6 2.894830 1_555
Ga1_6 Ga1_7 2.937991 1_554
Ga1_6 Ga1_7 2.937991 1_555
Ga1_7 Ir1_7 2.562616 1_555
Ga1_7 Ir2_6 2.597281 1_555
Ga1_7 Ir2_7 2.597281 1_555
Ga1_7 Ir0_7 2.620228 1_555
Ga1_7 Ti1_7 2.841698 1_555
Ga1_7 Ti1_6 2.841698 1_555
Ga1_7 Ti0_2 2.884707 1_555
Ga1_7 Ti0_3 2.884707 1_555
Ga1_7 Ta0_6 2.894830 1_555
Ga1_7 Ta0_7 2.894830 1_555
Ga2_0 Ir0_0 2.562616 1_555
Ga2_0 Ir2_6 2.597281 1_555
Ga2_0 Ir2_7 2.597281 1_554
Ga2_0 Ir1_4 2.620228 1_555
Ga2_0 Ti0_0 2.841694 1_555
Ga2_0 Ti0_1 2.841694 1_554
Ga2_0 Ti1_0 2.884701 1_555
Ga2_0 Ti1_1 2.884701 1_554
Ga2_0 Ta0_7 2.894830 1_554
Ga2_0 Ta0_6 2.894830 1_555
Ga2_0 Ga2_1 2.937991 1_554
Ga2_0 Ga2_1 2.937991 1_555
Ga2_1 Ir0_1 2.562616 1_555
Ga2_1 Ir2_7 2.597281 1_555
Ga2_1 Ir2_6 2.597281 1_555
Ga2_1 Ir1_5 2.620228 1_555
Ga2_1 Ti0_1 2.841694 1_555
Ga2_1 Ti0_0 2.841694 1_555
Ga2_1 Ti1_0 2.884701 1_555
Ga2_1 Ti1_1 2.884701 1_555
Ga2_1 Ta0_6 2.894830 1_555
Ga2_1 Ta0_7 2.894830 1_555
Ga2_2 Ir0_2 2.562616 1_555
Ga2_2 Ir2_4 2.597281 1_565
Ga2_2 Ir2_5 2.597281 1_564
Ga2_2 Ir1_6 2.620228 1_555
Ga2_2 Ti0_3 2.841694 1_554
Ga2_2 Ti0_2 2.841694 1_555
Ga2_2 Ti1_2 2.884701 1_555
Ga2_2 Ti1_3 2.884701 1_554
Ga2_2 Ta0_4 2.894830 1_565
Ga2_2 Ta0_5 2.894830 1_564
Ga2_2 Ga2_3 2.937991 1_555
Ga2_2 Ga2_3 2.937991 1_554
Ga2_3 Ir0_3 2.562616 1_555
Ga2_3 Ir2_4 2.597281 1_565
Ga2_3 Ir2_5 2.597281 1_565
Ga2_3 Ir1_7 2.620228 1_555
Ga2_3 Ti0_2 2.841694 1_555
Ga2_3 Ti0_3 2.841694 1_555
Ga2_3 Ti1_2 2.884701 1_555
Ga2_3 Ti1_3 2.884701 1_555
Ga2_3 Ta0_4 2.894830 1_565
Ga2_3 Ta0_5 2.894830 1_565
Ga2_4 Ir0_4 2.562616 1_555
Ga2_4 Ir2_3 2.597281 1_654
Ga2_4 Ir2_2 2.597281 1_655
Ga2_4 Ir1_0 2.620228 1_655
Ga2_4 Ti0_5 2.841694 1_554
Ga2_4 Ti0_4 2.841694 1_555
Ga2_4 Ti1_4 2.884701 1_555
Ga2_4 Ti1_5 2.884701 1_554
Ga2_4 Ta0_3 2.894830 1_654
Ga2_4 Ta0_2 2.894830 1_655
Ga2_4 Ga2_5 2.937991 1_554
Ga2_4 Ga2_5 2.937991 1_555
Ga2_5 Ir0_5 2.562616 1_555
Ga2_5 Ir2_2 2.597281 1_655
Ga2_5 Ir2_3 2.597281 1_655
Ga2_5 Ir1_1 2.620228 1_655
Ga2_5 Ti0_5 2.841694 1_555
Ga2_5 Ti0_4 2.841694 1_555
Ga2_5 Ti1_4 2.884701 1_555
Ga2_5 Ti1_5 2.884701 1_555
Ga2_5 Ta0_3 2.894830 1_655
Ga2_5 Ta0_2 2.894830 1_655
Ga2_6 Ir0_6 2.562616 1_555
Ga2_6 Ir2_0 2.597281 1_665
Ga2_6 Ir2_1 2.597281 1_664
Ga2_6 Ir1_2 2.620228 1_655
Ga2_6 Ti0_7 2.841694 1_554
Ga2_6 Ti0_6 2.841694 1_555
Ga2_6 Ti1_6 2.884701 1_555
Ga2_6 Ti1_7 2.884701 1_554
Ga2_6 Ta0_0 2.894830 1_665
Ga2_6 Ta0_1 2.894830 1_664
Ga2_6 Ga2_7 2.937991 1_555
Ga2_6 Ga2_7 2.937991 1_554
Ga2_7 Ir0_7 2.562616 1_555
Ga2_7 Ir2_0 2.597281 1_665
Ga2_7 Ir2_1 2.597281 1_665
Ga2_7 Ir1_3 2.620228 1_655
Ga2_7 Ti0_6 2.841694 1_555
Ga2_7 Ti0_7 2.841694 1_555
Ga2_7 Ti1_6 2.884701 1_555
Ga2_7 Ti1_7 2.884701 1_555
Ga2_7 Ta0_0 2.894830 1_665
Ga2_7 Ta0_1 2.894830 1_665
Ir0_0 Ti0_0 2.711181 1_555
Ir0_0 Ti0_1 2.711181 1_554
Ir0_0 Ti1_1 2.722006 1_554
Ir0_0 Ti1_0 2.722006 1_555
Ir0_0 Ta0_0 2.767895 1_555
Ir0_0 Ta0_1 2.767895 1_554
Ir0_1 Ti0_0 2.711181 1_555
Ir0_1 Ti0_1 2.711181 1_555
Ir0_1 Ti1_1 2.722006 1_555
Ir0_1 Ti1_0 2.722006 1_555
Ir0_1 Ta0_0 2.767895 1_555
Ir0_1 Ta0_1 2.767895 1_555
Ir0_2 Ti0_2 2.711181 1_555
Ir0_2 Ti0_3 2.711181 1_554
Ir0_2 Ti1_3 2.722006 1_554
Ir0_2 Ti1_2 2.722006 1_555
Ir0_2 Ta0_2 2.767895 1_555
Ir0_2 Ta0_3 2.767895 1_554
Ir0_3 Ti0_2 2.711181 1_555
Ir0_3 Ti0_3 2.711181 1_555
Ir0_3 Ti1_3 2.722006 1_555
Ir0_3 Ti1_2 2.722006 1_555
Ir0_3 Ta0_2 2.767895 1_555
Ir0_3 Ta0_3 2.767895 1_555
Ir0_4 Ti0_4 2.711181 1_555
Ir0_4 Ti0_5 2.711181 1_554
Ir0_4 Ti1_4 2.722006 1_555
Ir0_4 Ti1_5 2.722006 1_554
Ir0_4 Ta0_5 2.767895 1_554
Ir0_4 Ta0_4 2.767895 1_555
Ir0_5 Ti0_4 2.711181 1_555
Ir0_5 Ti0_5 2.711181 1_555
Ir0_5 Ti1_4 2.722006 1_555
Ir0_5 Ti1_5 2.722006 1_555
Ir0_5 Ta0_5 2.767895 1_555
Ir0_5 Ta0_4 2.767895 1_555
Ir0_6 Ti0_7 2.711181 1_554
Ir0_6 Ti0_6 2.711181 1_555
Ir0_6 Ti1_7 2.722006 1_554
Ir0_6 Ti1_6 2.722006 1_555
Ir0_6 Ta0_7 2.767895 1_554
Ir0_6 Ta0_6 2.767895 1_555
Ir0_7 Ti0_6 2.711181 1_555
Ir0_7 Ti0_7 2.711181 1_555
Ir0_7 Ti1_6 2.722006 1_555
Ir0_7 Ti1_7 2.722006 1_555
Ir0_7 Ta0_6 2.767895 1_555
Ir0_7 Ta0_7 2.767895 1_555
Ir1_0 Ti1_1 2.711187 1_554
Ir1_0 Ti1_0 2.711187 1_555
Ir1_0 Ti0_4 2.722010 1_455
Ir1_0 Ti0_5 2.722010 1_454
Ir1_0 Ta0_2 2.767895 1_555
Ir1_0 Ta0_3 2.767895 1_554
Ir1_1 Ti1_0 2.711187 1_555
Ir1_1 Ti1_1 2.711187 1_555
Ir1_1 Ti0_4 2.722010 1_455
Ir1_1 Ti0_5 2.722010 1_455
Ir1_1 Ta0_2 2.767895 1_555
Ir1_1 Ta0_3 2.767895 1_555
Ir1_2 Ti1_3 2.711187 1_554
Ir1_2 Ti1_2 2.711187 1_555
Ir1_2 Ti0_6 2.722010 1_455
Ir1_2 Ti0_7 2.722010 1_454
Ir1_2 Ta0_1 2.767895 1_564
Ir1_2 Ta0_0 2.767895 1_565
Ir1_3 Ti1_2 2.711187 1_555
Ir1_3 Ti1_3 2.711187 1_555
Ir1_3 Ti0_6 2.722010 1_455
Ir1_3 Ti0_7 2.722010 1_455
Ir1_3 Ta0_0 2.767895 1_565
Ir1_3 Ta0_1 2.767895 1_565
Ir1_4 Ti1_4 2.711187 1_555
Ir1_4 Ti1_5 2.711187 1_554
Ir1_4 Ti0_0 2.722010 1_555
Ir1_4 Ti0_1 2.722010 1_554
Ir1_4 Ta0_6 2.767895 1_555
Ir1_4 Ta0_7 2.767895 1_554
Ir1_5 Ti1_4 2.711187 1_555
Ir1_5 Ti1_5 2.711187 1_555
Ir1_5 Ti0_1 2.722010 1_555
Ir1_5 Ti0_0 2.722010 1_555
Ir1_5 Ta0_6 2.767895 1_555
Ir1_5 Ta0_7 2.767895 1_555
Ir1_6 Ti1_7 2.711187 1_554
Ir1_6 Ti1_6 2.711187 1_555
Ir1_6 Ti0_3 2.722010 1_554
Ir1_6 Ti0_2 2.722010 1_555
Ir1_6 Ta0_4 2.767895 1_565
Ir1_6 Ta0_5 2.767895 1_564
Ir1_7 Ti1_7 2.711187 1_555
Ir1_7 Ti1_6 2.711187 1_555
Ir1_7 Ti0_2 2.722010 1_555
Ir1_7 Ti0_3 2.722010 1_555
Ir1_7 Ta0_5 2.767895 1_565
Ir1_7 Ta0_4 2.767895 1_565
Ir2_0 Ta0_0 2.703759 1_555
Ir2_0 Ti1_6 2.751288 1_445
Ir2_0 Ti0_4 2.751292 1_455
Ir2_1 Ta0_1 2.703759 1_555
Ir2_1 Ti1_7 2.751288 1_445
Ir2_1 Ti0_5 2.751292 1_455
Ir2_2 Ta0_2 2.703759 1_555
Ir2_2 Ti1_4 2.751288 1_455
Ir2_2 Ti0_6 2.751292 1_455
Ir2_3 Ta0_3 2.703759 1_555
Ir2_3 Ti1_5 2.751288 1_455
Ir2_3 Ti0_7 2.751292 1_455
Ir2_4 Ta0_4 2.703759 1_555
Ir2_4 Ti1_2 2.751288 1_545
Ir2_4 Ti0_0 2.751292 1_555
Ir2_5 Ta0_5 2.703759 1_555
Ir2_5 Ti1_3 2.751288 1_545
Ir2_5 Ti0_1 2.751292 1_555
Ir2_6 Ta0_6 2.703759 1_555
Ir2_6 Ti1_0 2.751288 1_555
Ir2_6 Ti0_2 2.751292 1_555
Ir2_7 Ta0_7 2.703759 1_555
Ir2_7 Ti1_1 2.751288 1_555
Ir2_7 Ti0_3 2.751292 1_555
