# generated using pymatgen
data_KCaCuH4
_symmetry_space_group_name_H-M   'P 1'
_cell_length_a   7.54894870
_cell_length_b   7.54894870
_cell_length_c   7.54894870
_cell_angle_alpha   90.00000000
_cell_angle_beta   90.00000000
_cell_angle_gamma   90.00000000
_symmetry_Int_Tables_number   1
_chemical_formula_structural   KCaCuH4
_chemical_formula_sum   'K4 Ca4 Cu4 H16'
_cell_volume   430.18911940
_cell_formula_units_Z   4
loop_
 _symmetry_equiv_pos_site_id
 _symmetry_equiv_pos_as_xyz
  1  'x, y, z'
loop_
 _atom_site_type_symbol
 _atom_site_label
 _atom_site_symmetry_multiplicity
 _atom_site_fract_x
 _atom_site_fract_y
 _atom_site_fract_z
 _atom_site_occupancy
  K  K0  1  0.16034842  0.66034842  0.83965158  1
  K  K1  1  0.66034842  0.83965158  0.16034842  1
  K  K2  1  0.83965158  0.16034842  0.66034842  1
  K  K3  1  0.33965158  0.33965158  0.33965158  1
  Ca  Ca0  1  0.84045975  0.34045975  0.15954025  1
  Ca  Ca1  1  0.34045975  0.15954025  0.84045975  1
  Ca  Ca2  1  0.15954025  0.84045975  0.34045975  1
  Ca  Ca3  1  0.65954025  0.65954025  0.65954025  1
  Cu  Cu0  1  0.45195181  0.95195181  0.54804819  1
  Cu  Cu1  1  0.95195181  0.54804819  0.45195181  1
  Cu  Cu2  1  0.54804819  0.45195181  0.95195181  1
  Cu  Cu3  1  0.04804819  0.04804819  0.04804819  1
  H  H0  1  0.57293345  0.07293345  0.42706655  1
  H  H1  1  0.07293345  0.42706655  0.57293345  1
  H  H2  1  0.42706655  0.57293345  0.07293345  1
  H  H3  1  0.92706655  0.92706655  0.92706655  1
  H  H4  1  0.25013459  0.96964366  0.07234326  1
  H  H5  1  0.92765674  0.75013459  0.53035634  1
  H  H6  1  0.46964366  0.42765674  0.74986541  1
  H  H7  1  0.75013459  0.53035634  0.92765674  1
  H  H8  1  0.42765674  0.74986541  0.46964366  1
  H  H9  1  0.96964366  0.07234326  0.25013459  1
  H  H10  1  0.74986541  0.46964366  0.42765674  1
  H  H11  1  0.07234326  0.25013459  0.96964366  1
  H  H12  1  0.53035634  0.92765674  0.75013459  1
  H  H13  1  0.24986541  0.03035634  0.57234326  1
  H  H14  1  0.57234326  0.24986541  0.03035634  1
  H  H15  1  0.03035634  0.57234326  0.24986541  1
loop_
_geom_bond_atom_site_label_1
_geom_bond_atom_site_label_2
_geom_bond_distance
_geom_bond_site_symmetry_2
Ca0 H14 2.348467 1_555
Ca0 H9 2.348467 1_555
Ca0 H10 2.348467 1_555
Ca0 H7 2.363066 1_554
Ca0 H11 2.363066 1_654
Ca0 H15 2.363066 1_655
Ca1 H13 2.348467 1_555
Ca1 H11 2.348467 1_555
Ca1 H6 2.348467 1_555
Ca1 H12 2.363066 1_545
Ca1 H4 2.363066 1_546
Ca1 H14 2.363066 1_556
Ca2 H15 2.348467 1_555
Ca2 H4 2.348467 1_555
Ca2 H8 2.348467 1_555
Ca2 H5 2.363066 1_455
Ca2 H9 2.363066 1_465
Ca2 H13 2.363066 1_565
Ca3 H7 2.348467 1_555
Ca3 H5 2.348467 1_555
Ca3 H12 2.348467 1_555
Ca3 H10 2.363066 1_555
Ca3 H8 2.363066 1_555
Ca3 H6 2.363066 1_555
Cu0 H0 1.581855 1_565
Cu0 H8 1.646578 1_555
Cu0 H12 1.646578 1_555
Cu0 H13 1.646578 1_565
Cu1 H1 1.581855 1_655
Cu1 H5 1.646578 1_555
Cu1 H10 1.646578 1_555
Cu1 H15 1.646578 1_655
Cu2 H2 1.581855 1_556
Cu2 H7 1.646578 1_555
Cu2 H6 1.646578 1_555
Cu2 H14 1.646578 1_556
Cu3 H3 1.581855 1_444
Cu3 H11 1.646578 1_554
Cu3 H9 1.646578 1_455
Cu3 H4 1.646578 1_545
H0 K2 2.755112 1_555
H0 K1 2.755112 1_545
H0 K3 2.755112 1_555
H1 K0 2.755112 1_555
H1 K2 2.755112 1_455
H1 K3 2.755112 1_555
H2 K1 2.755112 1_555
H2 K0 2.755112 1_554
H2 K3 2.755112 1_555
H3 K0 2.755112 1_655
H3 K1 2.755112 1_556
H3 K2 2.755112 1_565
H4 K0 2.999418 1_554
H5 K0 2.999418 1_655
H6 K0 2.999418 1_555
H7 K1 2.999418 1_556
H8 K1 2.999418 1_555
H9 K1 2.999418 1_545
H10 K2 2.999418 1_555
H11 K2 2.999418 1_455
H12 K2 2.999418 1_565
H13 K3 2.999418 1_555
H14 K3 2.999418 1_555
H15 K3 2.999418 1_555
