# generated using pymatgen
data_Zn2Ni3RhO8
_symmetry_space_group_name_H-M   'P 1'
_cell_length_a   5.80724631
_cell_length_b   5.80724611
_cell_length_c   5.91206567
_cell_angle_alpha   60.58477423
_cell_angle_beta   60.58477820
_cell_angle_gamma   59.99999355
_symmetry_Int_Tables_number   1
_chemical_formula_structural   Zn2Ni3RhO8
_chemical_formula_sum   'Zn2 Ni3 Rh1 O8'
_cell_volume   142.21564137
_cell_formula_units_Z   1
loop_
 _symmetry_equiv_pos_site_id
 _symmetry_equiv_pos_as_xyz
  1  'x, y, z'
loop_
 _atom_site_type_symbol
 _atom_site_label
 _atom_site_symmetry_multiplicity
 _atom_site_fract_x
 _atom_site_fract_y
 _atom_site_fract_z
 _atom_site_occupancy
  Zn  Zn0  1  0.49412754  0.49412754  0.51761637  1
  Zn  Zn1  1  0.75587246  0.75587246  0.73238363  1
  Ni  Ni0  1  0.12500000  0.12500000  0.12500000  1
  Ni  Ni1  1  0.62500000  0.12500000  0.12500000  1
  Ni  Ni2  1  0.12500000  0.62500000  0.12500000  1
  Rh  Rh0  1  0.12500000  0.12500000  0.62500000  1
  O  O0  1  0.88562769  0.88562769  0.88335495  1
  O  O1  1  0.90461233  0.36437231  0.36664505  1
  O  O2  1  0.36437231  0.90461233  0.36664505  1
  O  O3  1  0.35745170  0.35745170  0.92764491  1
  O  O4  1  0.88562769  0.34538767  0.88335495  1
  O  O5  1  0.89254830  0.89254830  0.32235509  1
  O  O6  1  0.34538767  0.88562769  0.88335495  1
  O  O7  1  0.36437231  0.36437231  0.36664505  1
loop_
_geom_bond_atom_site_label_1
_geom_bond_atom_site_label_2
_geom_bond_distance
_geom_bond_site_symmetry_2
Ni0 O3 1.932322 1_554
Ni0 O5 1.932322 1_445
Ni0 O2 1.996730 1_545
Ni0 O4 1.996730 1_454
Ni0 O1 1.996730 1_455
Ni0 O6 1.996730 1_544
Ni1 O5 1.932322 1_545
Ni1 O3 1.932322 1_554
Ni1 O4 1.996721 1_554
Ni1 O2 1.996721 1_545
Ni1 O0 1.996729 1_544
Ni1 O7 1.996729 1_555
Ni2 O5 1.932322 1_455
Ni2 O3 1.932322 1_554
Ni2 O6 1.996721 1_554
Ni2 O1 1.996721 1_455
Ni2 O0 1.996729 1_454
Ni2 O7 1.996729 1_555
O0 Zn1 1.954813 1_555
O0 Rh0 1.989690 1_665
O1 Zn0 1.954827 1_555
O1 Rh0 1.989682 1_655
O2 Zn0 1.954827 1_555
O2 Rh0 1.989682 1_565
O3 Zn0 1.996597 1_555
O4 Zn1 1.954827 1_555
O4 Rh0 1.989682 1_655
O5 Zn1 1.996597 1_555
O6 Zn1 1.954827 1_555
O6 Rh0 1.989682 1_565
O7 Zn0 1.954813 1_555
O7 Rh0 1.989690 1_555
