# generated using pymatgen
data_Li3MnP2
_symmetry_space_group_name_H-M   'P 1'
_cell_length_a   5.77873100
_cell_length_b   11.53727600
_cell_length_c   11.59473200
_cell_angle_alpha   90.00000000
_cell_angle_beta   90.00000000
_cell_angle_gamma   90.00000000
_symmetry_Int_Tables_number   1
_chemical_formula_structural   Li3MnP2
_chemical_formula_sum   'Li24 Mn8 P16'
_cell_volume   773.03022608
_cell_formula_units_Z   8
loop_
 _symmetry_equiv_pos_site_id
 _symmetry_equiv_pos_as_xyz
  1  'x, y, z'
loop_
 _atom_site_type_symbol
 _atom_site_label
 _atom_site_symmetry_multiplicity
 _atom_site_fract_x
 _atom_site_fract_y
 _atom_site_fract_z
 _atom_site_occupancy
  Li  Li0  1  0.00204600  0.62500300  0.75257400  1
  Li  Li1  1  0.00176200  0.87507800  0.74915300  1
  Li  Li2  1  0.99823800  0.87507800  0.25084700  1
  Li  Li3  1  0.99518300  0.37572200  0.74527900  1
  Li  Li4  1  0.00481700  0.37572200  0.25472100  1
  Li  Li5  1  0.50000000  0.36965100  0.00000000  1
  Li  Li6  1  0.50495800  0.87586500  0.74840700  1
  Li  Li7  1  0.50481700  0.62427800  0.74527900  1
  Li  Li8  1  0.49504200  0.87586500  0.25159300  1
  Li  Li9  1  0.50000000  0.13054300  0.00000000  1
  Li  Li10  1  0.49795400  0.37499700  0.75257400  1
  Li  Li11  1  0.50176200  0.12492200  0.25084700  1
  Li  Li12  1  0.49823800  0.12492200  0.74915300  1
  Li  Li13  1  0.50000000  0.12451400  0.50000000  1
  Li  Li14  1  0.50204600  0.37499700  0.24742600  1
  Li  Li15  1  0.50000000  0.62525600  0.50000000  1
  Li  Li16  1  0.49518300  0.62427800  0.25472100  1
  Li  Li17  1  0.00000000  0.86945700  0.00000000  1
  Li  Li18  1  0.00495800  0.12413500  0.25159300  1
  Li  Li19  1  0.99504200  0.12413500  0.74840700  1
  Li  Li20  1  0.00000000  0.87548600  0.50000000  1
  Li  Li21  1  0.00000000  0.63034900  0.00000000  1
  Li  Li22  1  0.99795400  0.62500300  0.24742600  1
  Li  Li23  1  0.00000000  0.37474400  0.50000000  1
  Mn  Mn0  1  0.50000000  0.88074100  0.00000000  1
  Mn  Mn1  1  0.50000000  0.87504700  0.50000000  1
  Mn  Mn2  1  0.50000000  0.37501300  0.50000000  1
  Mn  Mn3  1  0.50000000  0.61894700  0.00000000  1
  Mn  Mn4  1  0.00000000  0.11925900  0.00000000  1
  Mn  Mn5  1  0.00000000  0.12495300  0.50000000  1
  Mn  Mn6  1  0.00000000  0.38105300  0.00000000  1
  Mn  Mn7  1  0.00000000  0.62498700  0.50000000  1
  P  P0  1  0.28351100  0.74999300  0.88663800  1
  P  P1  1  0.24630100  0.74946100  0.38604100  1
  P  P2  1  0.21648900  0.25000700  0.88663800  1
  P  P3  1  0.25369900  0.25053900  0.38604100  1
  P  P4  1  0.25000000  0.00000000  0.11278400  1
  P  P5  1  0.25000000  0.00000000  0.61455700  1
  P  P6  1  0.25000000  0.50000000  0.11317100  1
  P  P7  1  0.25000000  0.50000000  0.61389200  1
  P  P8  1  0.71648900  0.74999300  0.11336200  1
  P  P9  1  0.75000000  0.00000000  0.88721600  1
  P  P10  1  0.75369900  0.74946100  0.61395900  1
  P  P11  1  0.75000000  0.00000000  0.38544300  1
  P  P12  1  0.78351100  0.25000700  0.11336200  1
  P  P13  1  0.75000000  0.50000000  0.88682900  1
  P  P14  1  0.74630100  0.25053900  0.61395900  1
  P  P15  1  0.75000000  0.50000000  0.38610800  1
loop_
_geom_bond_atom_site_label_1
_geom_bond_atom_site_label_2
_geom_bond_distance
_geom_bond_site_symmetry_2
Li0 P13 2.573809 1_455
Li0 P10 2.589311 1_455
Li0 P7 2.592029 1_555
Li0 P0 2.672321 1_555
Li1 P5 2.563300 1_565
Li1 P10 2.571473 1_455
Li1 P9 2.599314 1_465
Li1 P0 2.697164 1_555
Li2 P11 2.563300 1_565
Li2 P1 2.571473 1_655
Li2 P4 2.599314 1_665
Li2 P8 2.697164 1_555
Li3 P2 2.534872 1_655
Li3 P14 2.544165 1_555
Li3 P7 2.558304 1_655
Li3 P13 2.599418 1_555
Li4 P12 2.534872 1_455
Li4 P3 2.544165 1_555
Li4 P15 2.558304 1_455
Li4 P6 2.599418 1_555
Li5 P6 2.463854 1_555
Li5 P13 2.463854 1_554
Li5 P12 2.513404 1_555
Li5 P2 2.513404 1_554
Li6 P0 2.513035 1_555
Li6 P10 2.573535 1_555
Li6 P5 2.574959 1_565
Li6 P9 2.578105 1_565
Li6 Mn1 2.880371 1_555
Li7 P0 2.534872 1_555
Li7 P10 2.544165 1_555
Li7 P7 2.558304 1_555
Li7 P13 2.599418 1_555
Li8 P8 2.513035 1_555
Li8 P1 2.573535 1_555
Li8 P11 2.574959 1_565
Li8 P4 2.578105 1_565
Li8 Mn1 2.880371 1_555
Li9 P4 2.462835 1_555
Li9 P9 2.462835 1_554
Li9 P12 2.512264 1_555
Li9 P2 2.512264 1_554
Li10 P13 2.573809 1_555
Li10 P14 2.589311 1_555
Li10 P7 2.592029 1_555
Li10 P2 2.672321 1_555
Li11 P11 2.563300 1_555
Li11 P3 2.571473 1_555
Li11 P4 2.599314 1_555
Li11 P12 2.697164 1_555
Li12 P5 2.563300 1_555
Li12 P14 2.571473 1_555
Li12 P9 2.599314 1_555
Li12 P2 2.697164 1_555
Li13 P14 2.426061 1_555
Li13 P3 2.426061 1_555
Li13 P5 2.432090 1_555
Li13 P11 2.432090 1_555
Li13 Mn1 2.878170 1_545
Li13 Mn5 2.889370 1_555
Li13 Mn5 2.889370 1_655
Li14 P6 2.573809 1_555
Li14 P3 2.589311 1_555
Li14 P15 2.592029 1_555
Li14 P12 2.672321 1_555
Li15 P7 2.432962 1_555
Li15 P15 2.432962 1_555
Li15 P10 2.438991 1_555
Li15 P1 2.438991 1_555
Li15 Mn1 2.881908 1_555
Li16 P8 2.534872 1_555
Li16 P1 2.544165 1_555
Li16 P15 2.558304 1_555
Li16 P6 2.599418 1_555
Li17 P4 2.462835 1_565
Li17 P9 2.462835 1_464
Li17 P8 2.512264 1_455
Li17 P0 2.512264 1_554
Li18 P12 2.513035 1_455
Li18 P3 2.573535 1_555
Li18 P11 2.574959 1_455
Li18 P4 2.578105 1_555
Li18 Mn5 2.880371 1_555
Li19 P2 2.513035 1_655
Li19 P14 2.573535 1_555
Li19 P5 2.574959 1_655
Li19 P9 2.578105 1_555
Li19 Mn5 2.880371 1_655
Li20 P10 2.426061 1_455
Li20 P1 2.426061 1_555
Li20 P11 2.432090 1_465
Li20 P5 2.432090 1_565
Li20 Mn5 2.878170 1_565
Li20 Mn1 2.889370 1_555
Li20 Mn1 2.889370 1_455
Li21 P13 2.463854 1_454
Li21 P6 2.463854 1_555
Li21 P8 2.513404 1_455
Li21 P0 2.513404 1_554
Li22 P6 2.573809 1_655
Li22 P1 2.589311 1_655
Li22 P15 2.592029 1_555
Li22 P8 2.672321 1_555
Li23 P7 2.432962 1_555
Li23 P15 2.432962 1_455
Li23 P14 2.438991 1_455
Li23 P3 2.438991 1_555
Li23 Mn5 2.881908 1_555
Mn0 P8 2.359710 1_555
Mn0 P0 2.359710 1_554
Mn0 P4 2.385447 1_565
Mn0 P9 2.385447 1_564
Mn1 P5 2.435085 1_565
Mn1 P11 2.435085 1_565
Mn1 P10 2.448386 1_555
Mn1 P1 2.448386 1_555
Mn2 P14 2.415379 1_555
Mn2 P3 2.415379 1_555
Mn2 P7 2.431120 1_555
Mn2 P15 2.431120 1_555
Mn3 P8 2.361910 1_555
Mn3 P0 2.361910 1_554
Mn3 P6 2.385837 1_555
Mn3 P13 2.385837 1_554
Mn4 P12 2.359710 1_455
Mn4 P2 2.359710 1_554
Mn4 P9 2.385447 1_454
Mn4 P4 2.385447 1_555
Mn5 P5 2.435085 1_555
Mn5 P11 2.435085 1_455
Mn5 P14 2.448386 1_455
Mn5 P3 2.448386 1_555
Mn6 P12 2.361910 1_455
Mn6 P2 2.361910 1_554
Mn6 P6 2.385837 1_555
Mn6 P13 2.385837 1_454
Mn7 P10 2.415379 1_455
Mn7 P1 2.415379 1_555
Mn7 P15 2.431120 1_455
Mn7 P7 2.431120 1_555
