# generated using pymatgen
data_Zr6Al3Zn3O
_symmetry_space_group_name_H-M   'P 1'
_cell_length_a   8.54762612
_cell_length_b   8.55065300
_cell_length_c   8.55065255
_cell_angle_alpha   60.05159434
_cell_angle_beta   60.01170399
_cell_angle_gamma   60.01170790
_symmetry_Int_Tables_number   1
_chemical_formula_structural   Zr6Al3Zn3O
_chemical_formula_sum   'Zr12 Al6 Zn6 O2'
_cell_volume   442.15546496
_cell_formula_units_Z   2
loop_
 _symmetry_equiv_pos_site_id
 _symmetry_equiv_pos_as_xyz
  1  'x, y, z'
loop_
 _atom_site_type_symbol
 _atom_site_label
 _atom_site_symmetry_multiplicity
 _atom_site_fract_x
 _atom_site_fract_y
 _atom_site_fract_z
 _atom_site_occupancy
  Zr  Zr0  1  0.19211376  0.80837939  0.19170311  1
  Zr  Zr1  1  0.44163887  0.05771188  0.44236914  1
  Zr  Zr2  1  0.44239371  0.05760629  0.05760629  1
  Zr  Zr3  1  0.44163887  0.44236914  0.05771188  1
  Zr  Zr4  1  0.19216791  0.80783209  0.80783209  1
  Zr  Zr5  1  0.05828010  0.44236914  0.05771188  1
  Zr  Zr6  1  0.80780473  0.80837939  0.19170311  1
  Zr  Zr7  1  0.05807031  0.44192969  0.44192969  1
  Zr  Zr8  1  0.19211376  0.19170311  0.80837939  1
  Zr  Zr9  1  0.80807200  0.19192800  0.19192800  1
  Zr  Zr10  1  0.80780473  0.19170311  0.80837939  1
  Zr  Zr11  1  0.05828010  0.05771188  0.44236914  1
  Al  Al0  1  0.83176365  0.50409564  0.83237707  1
  Al  Al1  1  0.41704212  0.41693784  0.74897792  1
  Al  Al2  1  0.74894852  0.41708622  0.41708622  1
  Al  Al3  1  0.41687804  0.41708622  0.41708622  1
  Al  Al4  1  0.83176365  0.83237707  0.50409564  1
  Al  Al5  1  0.41704212  0.74897792  0.41693784  1
  Zn  Zn0  1  0.83167257  0.83176284  0.83176284  1
  Zn  Zn1  1  0.50480175  0.83176284  0.83176284  1
  Zn  Zn2  1  0.62492278  0.12400340  0.62615104  1
  Zn  Zn3  1  0.62492278  0.62615104  0.12400340  1
  Zn  Zn4  1  0.12419359  0.62559155  0.62559155  1
  Zn  Zn5  1  0.62462330  0.62559155  0.62559155  1
  O  O0  1  0.00088068  0.99911932  0.99911932  1
  O  O1  1  0.25016657  0.24983343  0.24983343  1
loop_
_geom_bond_atom_site_label_1
_geom_bond_atom_site_label_2
_geom_bond_distance
_geom_bond_site_symmetry_2
Al0 Zn3 2.603805 1_556
Al0 Zn4 2.607154 1_655
Al0 Zn5 2.607154 1_555
Al0 Zn1 2.798762 1_555
Al0 Zn0 2.798762 1_555
Al0 Al4 2.809209 1_555
Al0 Zr9 2.888293 1_556
Al0 Zr10 2.890544 1_555
Al0 Zr8 2.890548 1_655
Al0 Zr3 3.071168 1_556
Al0 Zr5 3.071168 1_656
Al0 Zr7 3.075502 1_655
Al1 Zn2 2.616518 1_555
Al1 Zn5 2.618825 1_555
Al1 Zn4 2.618825 1_555
Al1 Al2 2.837954 1_555
Al1 Al3 2.837959 1_555
Al1 Al5 2.841373 1_555
Al1 Zr5 2.869515 1_556
Al1 Zr3 2.869516 1_556
Al1 Zr2 2.874361 1_556
Al1 Zr4 3.067521 1_555
Al1 Zr8 3.067909 1_555
Al1 Zr10 3.067916 1_555
Al2 Zn5 2.621485 1_555
Al2 Zn3 2.624541 1_555
Al2 Zn2 2.624541 1_555
Al2 Al5 2.837954 1_555
Al2 Al3 2.838414 1_555
Al2 Zr7 2.870368 1_655
Al2 Zr5 2.875152 1_655
Al2 Zr11 2.875152 1_655
Al2 Zr9 3.069878 1_555
Al2 Zr10 3.071983 1_555
Al2 Zr6 3.071984 1_555
Al3 Zn4 2.621483 1_555
Al3 Zn3 2.624546 1_555
Al3 Zn2 2.624546 1_555
Al3 Al5 2.837959 1_555
Al3 Zr7 2.870359 1_555
Al3 Zr3 2.875149 1_555
Al3 Zr1 2.875149 1_555
Al3 Zr9 3.069882 1_555
Al3 Zr8 3.071977 1_555
Al3 Zr0 3.071977 1_555
Al4 Zn2 2.603805 1_565
Al4 Zn5 2.607154 1_555
Al4 Zn4 2.607154 1_655
Al4 Zn1 2.798761 1_555
Al4 Zn0 2.798761 1_555
Al4 Zr9 2.888293 1_565
Al4 Zr6 2.890544 1_555
Al4 Zr0 2.890548 1_655
Al4 Zr1 3.071168 1_565
Al4 Zr11 3.071168 1_665
Al4 Zr7 3.075502 1_655
Al5 Zn3 2.616518 1_555
Al5 Zn4 2.618825 1_555
Al5 Zn5 2.618825 1_555
Al5 Zr11 2.869516 1_565
Al5 Zr1 2.869516 1_565
Al5 Zr2 2.874361 1_565
Al5 Zr4 3.067520 1_555
Al5 Zr0 3.067909 1_555
Al5 Zr6 3.067916 1_555
Zn0 Zn4 2.599567 1_655
Zn0 Zn3 2.600633 1_556
Zn0 Zn2 2.600633 1_565
Zn0 Zn1 2.793970 1_555
Zn0 Zr6 2.890100 1_556
Zn0 Zr10 2.890100 1_565
Zn0 Zr4 2.891340 1_655
Zn0 Zr2 3.067043 1_566
Zn0 Zr11 3.072739 1_665
Zn0 Zr5 3.072739 1_656
Zn1 Zn5 2.599567 1_555
Zn1 Zn3 2.600633 1_556
Zn1 Zn2 2.600633 1_565
Zn1 Zr0 2.890096 1_556
Zn1 Zr8 2.890096 1_565
Zn1 Zr4 2.891340 1_555
Zn1 Zr2 3.067043 1_566
Zn1 Zr1 3.072739 1_565
Zn1 Zr3 3.072739 1_556
Zn2 Zr2 3.067126 1_556
Zn2 Zr8 3.073534 1_555
Zn2 Zr10 3.073542 1_555
Zn2 Zr11 3.079490 1_655
Zn2 Zr1 3.079490 1_555
Zn2 Zr9 3.085294 1_555
Zn3 Zr2 3.067126 1_565
Zn3 Zr0 3.073534 1_555
Zn3 Zr6 3.073542 1_555
Zn3 Zr5 3.079490 1_655
Zn3 Zr3 3.079490 1_555
Zn3 Zr9 3.085294 1_555
Zn4 Zr4 3.070602 1_555
Zn4 Zr5 3.073424 1_556
Zn4 Zr11 3.073424 1_565
Zn4 Zr7 3.080408 1_555
Zn4 Zr0 3.083597 1_555
Zn4 Zr8 3.083598 1_555
Zn5 Zr4 3.070602 1_555
Zn5 Zr3 3.073424 1_556
Zn5 Zr1 3.073424 1_565
Zn5 Zr7 3.080408 1_655
Zn5 Zr6 3.083599 1_555
Zn5 Zr10 3.083599 1_555
O0 Zr4 2.312638 1_555
O0 Zr6 2.321157 1_456
O0 Zr10 2.321157 1_465
O0 Zr8 2.321163 1_565
O0 Zr0 2.321163 1_556
O0 Zr9 2.331032 1_466
O1 Zr11 2.322302 1_555
O1 Zr3 2.322302 1_555
O1 Zr1 2.322303 1_555
O1 Zr5 2.322303 1_555
O1 Zr7 2.322419 1_555
O1 Zr2 2.324001 1_555
