# generated using pymatgen
data_Hf6Al9(SiIr)7
_symmetry_space_group_name_H-M   'P 1'
_cell_length_a   8.51397318
_cell_length_b   8.54784774
_cell_length_c   8.54784803
_cell_angle_alpha   59.99999886
_cell_angle_beta   59.86829696
_cell_angle_gamma   59.86830004
_symmetry_Int_Tables_number   1
_chemical_formula_structural   Hf6Al9(SiIr)7
_chemical_formula_sum   'Hf6 Al9 Si7 Ir7'
_cell_volume   438.99890415
_cell_formula_units_Z   1
loop_
 _symmetry_equiv_pos_site_id
 _symmetry_equiv_pos_as_xyz
  1  'x, y, z'
loop_
 _atom_site_type_symbol
 _atom_site_label
 _atom_site_symmetry_multiplicity
 _atom_site_fract_x
 _atom_site_fract_y
 _atom_site_fract_z
 _atom_site_occupancy
  Hf  Hf0  1  0.69014334  0.30974588  0.30974588  1
  Hf  Hf1  1  0.31073806  0.68942538  0.68942538  1
  Hf  Hf2  1  0.31073806  0.68942538  0.31041018  1
  Hf  Hf3  1  0.69014334  0.30974588  0.69036489  1
  Hf  Hf4  1  0.31073806  0.31041018  0.68942538  1
  Hf  Hf5  1  0.69014334  0.69036489  0.30974588  1
  Al  Al0  1  0.00141762  0.66619446  0.66619446  1
  Al  Al1  1  0.12029467  0.12061831  0.12061831  1
  Al  Al2  1  0.88266094  0.88002777  0.88002777  1
  Al  Al3  1  0.12029467  0.12061831  0.63846871  1
  Al  Al4  1  0.12029467  0.63846871  0.12061831  1
  Al  Al5  1  0.88266094  0.88002777  0.35728352  1
  Al  Al6  1  0.88266094  0.35728352  0.88002777  1
  Al  Al7  1  0.63798036  0.12067288  0.12067288  1
  Al  Al8  1  0.36068787  0.87977104  0.87977104  1
  Si  Si0  1  0.34431029  0.34476029  0.34476029  1
  Si  Si1  1  0.66245567  0.65930838  0.65930838  1
  Si  Si2  1  0.34431029  0.34476029  0.96616913  1
  Si  Si3  1  0.34431029  0.96616913  0.34476029  1
  Si  Si4  1  0.66245567  0.65930838  0.01892758  1
  Si  Si5  1  0.66245567  0.01892758  0.65930838  1
  Si  Si6  1  0.96508350  0.34497183  0.34497183  1
  Ir  Ir0  1  0.49856663  0.00176314  0.00176314  1
  Ir  Ir1  1  0.00217942  0.49499800  0.49499800  1
  Ir  Ir2  1  0.00217942  0.49499800  0.00782458  1
  Ir  Ir3  1  0.49856663  0.00176314  0.49790808  1
  Ir  Ir4  1  0.00217942  0.00782458  0.49499800  1
  Ir  Ir5  1  0.49856663  0.49790808  0.00176314  1
  Ir  Ir6  1  0.00078259  0.99973880  0.99973880  1
loop_
_geom_bond_atom_site_label_1
_geom_bond_atom_site_label_2
_geom_bond_distance
_geom_bond_site_symmetry_2
Hf0 Si6 2.677084 1_555
Hf0 Si0 2.677458 1_555
Hf0 Si4 2.759831 1_555
Hf0 Si5 2.759831 1_555
Hf0 Ir2 3.078823 1_655
Hf0 Ir4 3.078823 1_655
Hf1 Si2 2.687277 1_555
Hf1 Si3 2.687277 1_555
Hf1 Si1 2.760075 1_555
Hf1 Ir3 3.106878 1_565
Hf1 Ir5 3.106878 1_556
Hf1 Ir2 3.122917 1_556
Hf1 Ir4 3.122917 1_565
Hf2 Si0 2.687274 1_555
Hf2 Si3 2.687282 1_555
Hf2 Si4 2.760071 1_555
Hf2 Ir5 3.106863 1_555
Hf2 Ir0 3.106875 1_565
Hf2 Ir1 3.122915 1_555
Hf2 Ir4 3.122922 1_565
Hf3 Si6 2.677090 1_555
Hf3 Si2 2.677458 1_555
Hf3 Si1 2.759831 1_555
Hf3 Si5 2.759831 1_555
Hf3 Ir1 3.078823 1_655
Hf3 Ir4 3.078823 1_655
Hf4 Si0 2.687274 1_555
Hf4 Si2 2.687282 1_555
Hf4 Si5 2.760071 1_555
Hf4 Ir3 3.106863 1_555
Hf4 Ir0 3.106875 1_556
Hf4 Ir1 3.122916 1_555
Hf4 Ir2 3.122922 1_556
Hf5 Si6 2.677090 1_555
Hf5 Si3 2.677458 1_555
Hf5 Si1 2.759831 1_555
Hf5 Si4 2.759831 1_555
Hf5 Ir1 3.078823 1_655
Hf5 Ir2 3.078823 1_655
Al0 Ir4 2.530855 1_565
Al0 Ir2 2.530855 1_556
Al0 Ir1 2.530862 1_555
Al0 Al2 2.708162 1_455
Al0 Al6 2.708169 1_455
Al0 Al5 2.708170 1_455
Al0 Hf1 2.846740 1_555
Al0 Hf2 2.846750 1_555
Al0 Hf4 2.846750 1_555
Al0 Si4 2.946175 1_456
Al0 Si5 2.946176 1_465
Al0 Si1 2.946180 1_455
Al1 Ir6 2.519787 1_544
Al1 Ir2 2.615117 1_555
Al1 Ir4 2.615117 1_555
Al1 Ir0 2.626545 1_555
Al1 Si2 2.768156 1_554
Al1 Si3 2.768156 1_545
Al1 Si6 2.773235 1_455
Al1 Al5 2.884955 1_445
Al1 Al6 2.884955 1_454
Al1 Al8 2.905739 1_544
Al1 Hf4 3.083392 1_554
Al1 Hf2 3.083392 1_545
Al2 Ir6 2.493797 1_655
Al2 Ir0 2.666384 1_566
Al2 Ir2 2.686826 1_656
Al2 Ir4 2.686826 1_665
Al2 Si4 2.749648 1_556
Al2 Si5 2.749648 1_565
Al2 Al3 2.884955 1_665
Al2 Al4 2.884955 1_656
Al2 Al7 2.903286 1_566
Al2 Hf1 3.053428 1_655
Al2 Hf5 3.078211 1_556
Al2 Hf3 3.078211 1_565
Al3 Ir6 2.519780 1_545
Al3 Ir1 2.615117 1_555
Al3 Ir4 2.615117 1_555
Al3 Ir3 2.626545 1_555
Al3 Si0 2.768156 1_555
Al3 Si3 2.768156 1_545
Al3 Si6 2.773242 1_455
Al3 Al6 2.884955 1_455
Al3 Al8 2.905745 1_545
Al3 Hf4 3.083386 1_555
Al3 Hf1 3.083393 1_545
Al4 Ir6 2.519780 1_554
Al4 Ir1 2.615117 1_555
Al4 Ir2 2.615117 1_555
Al4 Ir5 2.626545 1_555
Al4 Si0 2.768156 1_555
Al4 Si2 2.768156 1_554
Al4 Si6 2.773241 1_455
Al4 Al5 2.884955 1_455
Al4 Al8 2.905745 1_554
Al4 Hf2 3.083386 1_555
Al4 Hf1 3.083393 1_554
Al5 Ir6 2.493804 1_654
Al5 Ir3 2.666384 1_565
Al5 Ir1 2.686826 1_655
Al5 Ir4 2.686826 1_665
Al5 Si1 2.749648 1_555
Al5 Si5 2.749648 1_565
Al5 Al7 2.903292 1_565
Al5 Hf2 3.053426 1_655
Al5 Hf5 3.078211 1_555
Al5 Hf0 3.078211 1_565
Al6 Ir6 2.493804 1_645
Al6 Ir5 2.666384 1_556
Al6 Ir2 2.686826 1_656
Al6 Ir1 2.686826 1_655
Al6 Si4 2.749648 1_556
Al6 Si1 2.749648 1_555
Al6 Al7 2.903292 1_556
Al6 Hf4 3.053426 1_655
Al6 Hf0 3.078211 1_556
Al6 Hf3 3.078211 1_555
Al7 Ir6 2.517035 1_644
Al7 Ir0 2.632631 1_555
Al7 Ir5 2.632644 1_555
Al7 Ir3 2.632644 1_555
Al7 Si3 2.764400 1_545
Al7 Si2 2.764400 1_554
Al7 Si0 2.764405 1_555
Al7 Hf5 3.078054 1_545
Al7 Hf3 3.078055 1_554
Al7 Hf0 3.078062 1_555
Al8 Ir6 2.496936 1_555
Al8 Ir5 2.664224 1_556
Al8 Ir0 2.664224 1_566
Al8 Ir3 2.664224 1_565
Al8 Si5 2.744610 1_565
Al8 Si4 2.744610 1_556
Al8 Si1 2.744615 1_555
Al8 Hf4 3.084149 1_565
Al8 Hf2 3.084149 1_556
Al8 Hf1 3.084164 1_555
Ir0 Si2 2.461027 1_554
Ir0 Si3 2.461027 1_545
Ir0 Si4 2.492507 1_545
Ir0 Si5 2.492507 1_554
Ir1 Si6 2.417991 1_455
Ir1 Si0 2.433358 1_555
Ir1 Si1 2.475229 1_455
Ir2 Si6 2.417984 1_455
Ir2 Si2 2.433358 1_554
Ir2 Si4 2.475229 1_455
Ir3 Si0 2.461029 1_555
Ir3 Si3 2.461034 1_545
Ir3 Si5 2.492500 1_555
Ir3 Si1 2.492505 1_545
Ir4 Si6 2.417984 1_455
Ir4 Si3 2.433358 1_545
Ir4 Si5 2.475229 1_455
Ir5 Si0 2.461029 1_555
Ir5 Si2 2.461034 1_554
Ir5 Si4 2.492500 1_555
Ir5 Si1 2.492505 1_554
