# generated using pymatgen
data_ZrGa
_symmetry_space_group_name_H-M   'P 1'
_cell_length_a   3.87319194
_cell_length_b   3.87319014
_cell_length_c   10.60299216
_cell_angle_alpha   100.52410983
_cell_angle_beta   100.52413151
_cell_angle_gamma   89.99994343
_symmetry_Int_Tables_number   1
_chemical_formula_structural   ZrGa
_chemical_formula_sum   'Zr4 Ga4'
_cell_volume   153.66391417
_cell_formula_units_Z   4
loop_
 _symmetry_equiv_pos_site_id
 _symmetry_equiv_pos_as_xyz
  1  'x, y, z'
loop_
 _atom_site_type_symbol
 _atom_site_label
 _atom_site_symmetry_multiplicity
 _atom_site_fract_x
 _atom_site_fract_y
 _atom_site_fract_z
 _atom_site_occupancy
  Zr  Zr0  1  0.32205983  0.57199382  0.14421816  1
  Zr  Zr1  1  0.07201703  0.82207097  0.64425705  1
  Zr  Zr2  1  0.67796645  0.42802531  0.85581392  1
  Zr  Zr3  1  0.92797267  0.17790971  0.35571141  1
  Ga  Ga0  1  0.46042817  0.71035963  0.42056153  1
  Ga  Ga1  1  0.21036165  0.96044414  0.92055400  1
  Ga  Ga2  1  0.53955173  0.28963455  0.57944512  1
  Ga  Ga3  1  0.78964248  0.03955986  0.07943981  1
loop_
_geom_bond_atom_site_label_1
_geom_bond_atom_site_label_2
_geom_bond_distance
_geom_bond_site_symmetry_2
Ga0 Ga2 2.529138 1_565
Ga0 Ga2 2.530135 1_555
Ga0 Zr3 2.818023 1_565
Ga0 Zr3 2.818150 1_555
Ga0 Zr3 2.818179 1_465
Ga0 Zr3 2.818312 1_455
Ga0 Zr0 2.830630 1_555
Ga0 Zr1 2.999462 1_655
Ga0 Zr1 3.000767 1_555
Ga1 Ga3 2.529167 1_566
Ga1 Ga3 2.530137 1_466
Ga1 Zr2 2.817708 1_565
Ga1 Zr2 2.817836 1_465
Ga1 Zr2 2.817962 1_555
Ga1 Zr2 2.818096 1_455
Ga1 Zr1 2.830155 1_555
Ga1 Zr0 2.999158 1_566
Ga1 Zr0 3.000579 1_556
Ga2 Zr1 2.817839 1_545
Ga2 Zr1 2.817996 1_555
Ga2 Zr1 2.818149 1_645
Ga2 Zr1 2.818311 1_655
Ga2 Zr2 2.830891 1_555
Ga2 Zr3 2.999689 1_455
Ga2 Zr3 3.001138 1_555
Ga3 Zr0 2.817803 1_545
Ga3 Zr0 2.817947 1_645
Ga3 Zr0 2.818036 1_555
Ga3 Zr0 2.818185 1_655
Ga3 Zr3 2.829895 1_555
Ga3 Zr2 2.998869 1_544
Ga3 Zr2 3.000270 1_554
