# generated using pymatgen
data_Sr2VHF10
_symmetry_space_group_name_H-M   'P 1'
_cell_length_a   4.61108738
_cell_length_b   4.92464714
_cell_length_c   8.74636086
_cell_angle_alpha   89.31680936
_cell_angle_beta   97.13653483
_cell_angle_gamma   104.40203088
_symmetry_Int_Tables_number   1
_chemical_formula_structural   Sr2VHF10
_chemical_formula_sum   'Sr2 V1 H1 F10'
_cell_volume   190.84313120
_cell_formula_units_Z   1
loop_
 _symmetry_equiv_pos_site_id
 _symmetry_equiv_pos_as_xyz
  1  'x, y, z'
loop_
 _atom_site_type_symbol
 _atom_site_label
 _atom_site_symmetry_multiplicity
 _atom_site_fract_x
 _atom_site_fract_y
 _atom_site_fract_z
 _atom_site_occupancy
  Sr  Sr0  1  0.68191614  0.92186343  0.33161866  1
  Sr  Sr1  1  0.31807306  0.07813357  0.66835062  1
  V  V0  1  0.00000374  0.49999881  0.00002976  1
  H  H0  1  0.99998913  0.50000841  0.49997803  1
  F  F0  1  0.73380072  0.24590183  0.09350977  1
  F  F1  1  0.86492306  0.76957655  0.07952435  1
  F  F2  1  0.27480850  0.52877060  0.16695741  1
  F  F3  1  0.22132791  0.01775847  0.39122255  1
  F  F4  1  0.79815314  0.45488412  0.40557416  1
  F  F5  1  0.20183223  0.54514280  0.59439002  1
  F  F6  1  0.77868949  0.98225596  0.60874811  1
  F  F7  1  0.72520861  0.47119456  0.83306417  1
  F  F8  1  0.13509587  0.23044354  0.92050325  1
  F  F9  1  0.26617840  0.75406936  0.90652415  1
loop_
_geom_bond_atom_site_label_1
_geom_bond_atom_site_label_2
_geom_bond_distance
_geom_bond_site_symmetry_2
F0 V0 1.789396 1_655
F0 Sr0 2.606824 1_545
F1 V0 1.781799 1_655
F1 Sr0 2.636801 1_555
F2 V0 1.792571 1_555
F2 Sr0 2.632977 1_555
F3 Sr0 2.404311 1_445
F3 Sr0 2.405258 1_545
F3 Sr1 2.417655 1_555
F4 H0 1.143624 1_555
F4 Sr0 2.546738 1_555
F4 Sr0 2.617339 1_545
F5 H0 1.143690 1_455
F5 Sr1 2.546895 1_555
F5 Sr1 2.617207 1_565
F6 Sr1 2.404190 1_665
F6 Sr1 2.405343 1_565
F6 Sr0 2.417678 1_555
F7 V0 1.792773 1_656
F7 Sr1 2.633161 1_555
F8 V0 1.781861 1_556
F8 Sr1 2.637224 1_555
F9 V0 1.789373 1_556
F9 Sr1 2.607353 1_565
