# generated using pymatgen
data_SrNi(P4Os)3
_symmetry_space_group_name_H-M   'P 1'
_cell_length_a   6.97711499
_cell_length_b   6.97711521
_cell_length_c   7.01525677
_cell_angle_alpha   109.58200035
_cell_angle_beta   109.58200099
_cell_angle_gamma   109.36022090
_symmetry_Int_Tables_number   1
_chemical_formula_structural   SrNi(P4Os)3
_chemical_formula_sum   'Sr1 Ni1 P12 Os3'
_cell_volume   262.52933210
_cell_formula_units_Z   1
loop_
 _symmetry_equiv_pos_site_id
 _symmetry_equiv_pos_as_xyz
  1  'x, y, z'
loop_
 _atom_site_type_symbol
 _atom_site_label
 _atom_site_symmetry_multiplicity
 _atom_site_fract_x
 _atom_site_fract_y
 _atom_site_fract_z
 _atom_site_occupancy
  Sr  Sr0  1  0.00000000  0.00000000  0.00000000  1
  Ni  Ni0  1  0.00000000  0.00000000  0.50000000  1
  P  P0  1  0.35501916  0.21238983  0.85522156  1
  P  P1  1  0.64498084  0.78761017  0.14477844  1
  P  P2  1  0.64242266  0.49986432  0.85626220  1
  P  P3  1  0.35757734  0.50013568  0.14373780  1
  P  P4  1  0.21238983  0.85736967  0.35716827  1
  P  P5  1  0.78761017  0.14263033  0.64283173  1
  P  P6  1  0.49986432  0.85744266  0.64360211  1
  P  P7  1  0.50013568  0.14255734  0.35639789  1
  P  P8  1  0.85744266  0.35757734  0.21383954  1
  P  P9  1  0.14255734  0.64242266  0.78616046  1
  P  P10  1  0.85736967  0.64498084  0.50020139  1
  P  P11  1  0.14263033  0.35501916  0.49979861  1
  Os  Os0  1  0.50000000  0.00000000  0.00000000  1
  Os  Os1  1  0.00000000  0.50000000  0.00000000  1
  Os  Os2  1  0.50000000  0.50000000  0.50000000  1
loop_
_geom_bond_atom_site_label_1
_geom_bond_atom_site_label_2
_geom_bond_distance
_geom_bond_site_symmetry_2
Ni0 P11 2.344113 1_555
Ni0 P10 2.344113 1_445
Ni0 P1 2.344116 1_445
Ni0 P0 2.344116 1_555
Ni0 P4 2.344120 1_545
Ni0 P5 2.344120 1_455
P0 P3 2.314257 1_556
P0 P2 2.314693 1_555
P0 Sr0 3.102362 1_556
P1 P2 2.314257 1_554
P1 P3 2.314693 1_555
P1 Sr0 3.102362 1_665
P2 Sr0 3.098510 1_666
P3 Sr0 3.098510 1_555
P4 P7 2.314257 1_565
P4 P6 2.314685 1_555
P4 Sr0 3.102367 1_565
P5 P6 2.314257 1_545
P5 P7 2.314685 1_555
P5 Sr0 3.102367 1_656
P6 Sr0 3.098513 1_666
P7 Sr0 3.098513 1_555
P8 Sr0 3.098505 1_655
P9 Sr0 3.098505 1_566
P10 P9 2.314261 1_655
P10 P8 2.314697 1_555
P10 Sr0 3.102365 1_666
P11 P8 2.314261 1_455
P11 P9 2.314697 1_555
P11 Sr0 3.102365 1_555
Os0 P8 2.356397 1_555
Os0 P9 2.356397 1_544
Os0 P0 2.358975 1_554
Os0 P1 2.358975 1_545
Os0 P7 2.360353 1_555
Os0 P6 2.360353 1_544
Os1 P3 2.356393 1_555
Os1 P2 2.356393 1_454
Os1 P4 2.358971 1_555
Os1 P5 2.358971 1_454
Os1 P9 2.360350 1_554
Os1 P8 2.360350 1_455
Os2 P7 2.356400 1_555
Os2 P6 2.356400 1_555
Os2 P10 2.358972 1_555
Os2 P11 2.358972 1_555
Os2 P3 2.360354 1_555
Os2 P2 2.360354 1_555
