# generated using pymatgen
data_MnCd3P7N12
_symmetry_space_group_name_H-M   'P 1'
_cell_length_a   7.22517174
_cell_length_b   7.30903166
_cell_length_c   7.30903167
_cell_angle_alpha   109.70246442
_cell_angle_beta   109.23896659
_cell_angle_gamma   109.23897771
_symmetry_Int_Tables_number   1
_chemical_formula_structural   MnCd3P7N12
_chemical_formula_sum   'Mn1 Cd3 P7 N12'
_cell_volume   297.97701529
_cell_formula_units_Z   1
loop_
 _symmetry_equiv_pos_site_id
 _symmetry_equiv_pos_as_xyz
  1  'x, y, z'
loop_
 _atom_site_type_symbol
 _atom_site_label
 _atom_site_symmetry_multiplicity
 _atom_site_fract_x
 _atom_site_fract_y
 _atom_site_fract_z
 _atom_site_occupancy
  Mn  Mn0  1  0.62984813  1.00000000  1.00000000  1
  Cd  Cd0  1  0.99855556  0.00000000  0.68210659  1
  Cd  Cd1  1  0.99855556  0.68210659  0.00000000  1
  Cd  Cd2  1  0.31644996  0.31789341  0.31789341  1
  P  P0  1  0.25578235  0.74903109  0.50070591  1
  P  P1  1  0.75507644  0.24832518  0.49929409  1
  P  P2  1  0.75507644  0.49929409  0.24832518  1
  P  P3  1  0.25578235  0.50070591  0.74903109  1
  P  P4  1  0.50675126  0.75167482  0.25096891  1
  P  P5  1  0.50675126  0.25096891  0.75167482  1
  P  P6  1  0.95463647  0.00000000  0.00000000  1
  N  N0  1  0.71265125  0.27670109  0.27670109  1
  N  N1  1  0.28982962  0.71761122  0.28573174  1
  N  N2  1  0.30161423  0.57747894  0.57747894  1
  N  N3  1  0.57221940  0.56812052  0.28238878  1
  N  N4  1  0.43595116  0.72329891  1.00000000  1
  N  N5  1  0.00409788  0.71426826  0.43187948  1
  N  N6  1  0.57221940  0.28238878  0.56812052  1
  N  N7  1  0.72413529  1.00000000  0.42252106  1
  N  N8  1  0.43595116  0.00000000  0.72329891  1
  N  N9  1  0.72413529  0.42252106  1.00000000  1
  N  N10  1  0.28982962  0.28573174  0.71761122  1
  N  N11  1  0.00409788  0.43187948  0.71426826  1
loop_
_geom_bond_atom_site_label_1
_geom_bond_atom_site_label_2
_geom_bond_distance
_geom_bond_site_symmetry_2
Mn0 N4 2.045878 1_555
Mn0 N8 2.045878 1_565
Mn0 N0 2.045881 1_566
Mn0 P6 2.346652 1_566
Cd0 N7 2.247645 1_545
Cd0 N10 2.288233 1_655
Cd0 N5 2.288234 1_645
Cd0 P6 2.446468 1_556
Cd1 N9 2.247645 1_554
Cd1 N1 2.288234 1_655
Cd1 N11 2.288234 1_654
Cd1 P6 2.446468 1_565
Cd2 N2 2.247649 1_555
Cd2 N3 2.288233 1_555
Cd2 N6 2.288234 1_555
Cd2 P6 2.446471 1_455
N0 P2 1.650656 1_555
N0 P1 1.650656 1_555
N1 P0 1.621957 1_555
N1 P4 1.622003 1_555
N2 P3 1.619364 1_555
N2 P0 1.619364 1_555
N3 P4 1.621961 1_555
N3 P2 1.621996 1_555
N4 P3 1.650657 1_555
N4 P4 1.650657 1_556
N5 P2 1.621957 1_455
N5 P0 1.622003 1_555
N6 P5 1.621960 1_555
N6 P1 1.621996 1_555
N7 P4 1.619363 1_555
N7 P1 1.619364 1_565
N8 P5 1.650657 1_555
N8 P0 1.650657 1_545
N9 P5 1.619364 1_555
N9 P2 1.619364 1_556
N10 P3 1.621957 1_555
N10 P5 1.622003 1_555
N11 P1 1.621957 1_455
N11 P3 1.622003 1_555
