# generated using pymatgen
data_Cs3Na2GeAs3
_symmetry_space_group_name_H-M   'P 1'
_cell_length_a   10.90570826
_cell_length_b   10.90570745
_cell_length_c   16.38108475
_cell_angle_alpha   90.00000000
_cell_angle_beta   90.00000000
_cell_angle_gamma   142.72797134
_symmetry_Int_Tables_number   1
_chemical_formula_structural   Cs3Na2GeAs3
_chemical_formula_sum   'Cs12 Na8 Ge4 As12'
_cell_volume   1179.87563094
_cell_formula_units_Z   4
loop_
 _symmetry_equiv_pos_site_id
 _symmetry_equiv_pos_as_xyz
  1  'x, y, z'
loop_
 _atom_site_type_symbol
 _atom_site_label
 _atom_site_symmetry_multiplicity
 _atom_site_fract_x
 _atom_site_fract_y
 _atom_site_fract_z
 _atom_site_occupancy
  Cs  Cs0  1  0.93809628  0.60865666  0.82889799  1
  Cs  Cs1  1  0.56190372  0.89134334  0.32889799  1
  Cs  Cs2  1  0.39134334  0.06190372  0.17110201  1
  Cs  Cs3  1  0.06190372  0.39134334  0.17110201  1
  Cs  Cs4  1  0.89134334  0.56190372  0.32889799  1
  Cs  Cs5  1  0.43809628  0.10865666  0.67110201  1
  Cs  Cs6  1  0.60865666  0.93809628  0.82889799  1
  Cs  Cs7  1  0.26701698  0.26701698  0.32033803  1
  Cs  Cs8  1  0.76701698  0.76701698  0.17966197  1
  Cs  Cs9  1  0.23298302  0.23298302  0.82033803  1
  Cs  Cs10  1  0.73298302  0.73298302  0.67966197  1
  Cs  Cs11  1  0.10865666  0.43809628  0.67110201  1
  Na  Na0  1  0.92132994  0.07867006  0.00000000  1
  Na  Na1  1  0.57867006  0.42132994  0.50000000  1
  Na  Na2  1  0.07867006  0.92132994  0.00000000  1
  Na  Na3  1  0.42132994  0.57867006  0.50000000  1
  Na  Na4  1  0.75511811  0.24488189  0.00000000  1
  Na  Na5  1  0.74488189  0.25511811  0.50000000  1
  Na  Na6  1  0.24488189  0.75511811  0.00000000  1
  Na  Na7  1  0.25511811  0.74488189  0.50000000  1
  Ge  Ge0  1  0.58696091  0.41303909  0.00000000  1
  Ge  Ge1  1  0.91303909  0.08696091  0.50000000  1
  Ge  Ge2  1  0.41303909  0.58696091  0.00000000  1
  Ge  Ge3  1  0.08696091  0.91303909  0.50000000  1
  As  As0  1  0.86628517  0.55650849  0.08791427  1
  As  As1  1  0.44349151  0.13371483  0.91208573  1
  As  As2  1  0.63371483  0.94349151  0.58791427  1
  As  As3  1  0.94349151  0.63371483  0.58791427  1
  As  As4  1  0.13371483  0.44349151  0.91208573  1
  As  As5  1  0.55650849  0.86628517  0.08791427  1
  As  As6  1  0.36628517  0.05650849  0.41208573  1
  As  As7  1  0.18861690  0.18861690  0.57748389  1
  As  As8  1  0.68861690  0.68861690  0.92251611  1
  As  As9  1  0.31138310  0.31138310  0.07748389  1
  As  As10  1  0.05650849  0.36628517  0.41208573  1
  As  As11  1  0.81138310  0.81138310  0.42251611  1
loop_
_geom_bond_atom_site_label_1
_geom_bond_atom_site_label_2
_geom_bond_distance
_geom_bond_site_symmetry_2
Cs0 Na6 3.618809 1_656
Cs0 Na2 3.676112 1_656
Cs0 Ge0 3.750907 1_556
Cs0 Na4 3.870037 1_556
Cs1 Na7 3.618809 1_555
Cs1 Na3 3.676112 1_555
Cs1 Ge1 3.750907 1_565
Cs1 Na5 3.870037 1_565
Cs2 Na6 3.618809 1_545
Cs2 Na2 3.676112 1_545
Cs2 Ge0 3.750907 1_555
Cs2 Na4 3.870037 1_555
Cs3 Na4 3.618809 1_455
Cs3 Na0 3.676112 1_455
Cs3 Ge2 3.750907 1_555
Cs3 Na6 3.870037 1_555
Cs4 Na5 3.618809 1_555
Cs4 Na1 3.676112 1_555
Cs4 Ge3 3.750907 1_655
Cs4 Na7 3.870037 1_655
Cs5 Na5 3.618809 1_555
Cs5 Na1 3.676112 1_555
Cs5 Ge3 3.750907 1_545
Cs5 Na7 3.870037 1_545
Cs6 Na4 3.618809 1_566
Cs6 Na0 3.676112 1_566
Cs6 Ge2 3.750907 1_556
Cs6 Na6 3.870037 1_556
Cs11 Na7 3.618809 1_555
Cs11 Na3 3.676112 1_555
Cs11 Ge1 3.750907 1_455
Cs11 Na5 3.870037 1_455
As0 Ge0 2.493175 1_555
As0 Na4 2.921675 1_555
As0 Na2 2.932876 1_655
As0 Na6 3.095123 1_655
As0 Cs8 3.557634 1_555
As0 Cs2 3.648951 1_555
As0 Cs2 3.846332 1_665
As0 Cs4 3.954225 1_555
As0 Cs3 3.970952 1_655
As1 Ge0 2.493175 1_556
As1 Na4 2.921675 1_556
As1 Na2 2.932876 1_546
As1 Na6 3.095123 1_546
As1 Cs9 3.557634 1_555
As1 Cs0 3.648951 1_555
As1 Cs0 3.846332 1_445
As1 Cs5 3.954225 1_555
As1 Cs6 3.970952 1_545
As2 Ge1 2.493175 1_565
As2 Na5 2.921675 1_565
As2 Na3 2.932876 1_555
As2 Na7 3.095123 1_555
As2 Cs10 3.557634 1_555
As2 Cs11 3.648951 1_665
As2 Cs11 3.846332 1_555
As2 Cs6 3.954225 1_555
As2 Cs5 3.970952 1_565
As3 Ge3 2.493175 1_655
As3 Na7 2.921675 1_655
As3 Na1 2.932876 1_555
As3 Na5 3.095123 1_555
As3 Cs10 3.557634 1_555
As3 Cs5 3.648951 1_665
As3 Cs5 3.846332 1_555
As3 Cs0 3.954225 1_555
As3 Cs11 3.970952 1_655
As4 Ge2 2.493175 1_556
As4 Na6 2.921675 1_556
As4 Na0 2.932876 1_456
As4 Na4 3.095123 1_456
As4 Cs9 3.557634 1_555
As4 Cs6 3.648951 1_555
As4 Cs6 3.846332 1_445
As4 Cs11 3.954225 1_555
As4 Cs0 3.970952 1_455
As5 Ge2 2.493175 1_555
As5 Na6 2.921675 1_555
As5 Na0 2.932876 1_565
As5 Na4 3.095123 1_565
As5 Cs8 3.557634 1_555
As5 Cs3 3.648951 1_555
As5 Cs3 3.846332 1_665
As5 Cs1 3.954225 1_555
As5 Cs2 3.970952 1_565
As6 Ge3 2.493175 1_545
As6 Na7 2.921675 1_545
As6 Na1 2.932876 1_555
As6 Na5 3.095123 1_555
As6 Cs7 3.557634 1_555
As6 Cs4 3.648951 1_445
As6 Cs4 3.846332 1_555
As6 Cs2 3.954225 1_555
As6 Cs1 3.970952 1_545
As7 Ge3 2.563123 1_545
As7 Ge1 2.563124 1_455
As7 Na3 2.994164 1_555
As7 Na1 2.994165 1_555
As7 Cs10 3.589835 1_445
As7 Cs11 3.780310 1_555
As7 Cs5 3.780310 1_555
As7 Cs9 3.990215 1_555
As7 Cs10 4.146992 1_555
As8 Ge0 2.563123 1_556
As8 Ge2 2.563124 1_556
As8 Na0 2.994164 1_566
As8 Na2 2.994165 1_656
As8 Cs9 3.589835 1_555
As8 Cs6 3.780310 1_555
As8 Cs0 3.780310 1_555
As8 Cs10 3.990215 1_555
As8 Cs9 4.146992 1_665
As9 Ge2 2.563123 1_555
As9 Ge0 2.563124 1_555
As9 Na2 2.994164 1_545
As9 Na0 2.994165 1_455
As9 Cs8 3.589835 1_555
As9 Cs2 3.780310 1_555
As9 Cs3 3.780310 1_555
As9 Cs7 3.990215 1_555
As9 Cs8 4.146992 1_445
As10 Ge1 2.493175 1_455
As10 Na5 2.921675 1_455
As10 Na3 2.932876 1_555
As10 Na7 3.095123 1_555
As10 Cs7 3.557634 1_555
As10 Cs1 3.648951 1_445
As10 Cs1 3.846332 1_555
As10 Cs3 3.954225 1_555
As10 Cs4 3.970952 1_455
As11 Ge1 2.563123 1_565
As11 Ge3 2.563124 1_655
As11 Na1 2.994164 1_555
As11 Na3 2.994165 1_555
As11 Cs7 3.589835 1_665
As11 Cs4 3.780310 1_555
As11 Cs1 3.780310 1_555
As11 Cs8 3.990215 1_555
As11 Cs7 4.146992 1_555
