# generated using pymatgen
data_CaIn(CuO2)4
_symmetry_space_group_name_H-M   'P 1'
_cell_length_a   6.17296261
_cell_length_b   6.17296238
_cell_length_c   6.17296184
_cell_angle_alpha   126.18319377
_cell_angle_beta   126.18319325
_cell_angle_gamma   79.58725738
_symmetry_Int_Tables_number   1
_chemical_formula_structural   CaIn(CuO2)4
_chemical_formula_sum   'Ca1 In1 Cu4 O8'
_cell_volume   148.06946193
_cell_formula_units_Z   1
loop_
 _symmetry_equiv_pos_site_id
 _symmetry_equiv_pos_as_xyz
  1  'x, y, z'
loop_
 _atom_site_type_symbol
 _atom_site_label
 _atom_site_symmetry_multiplicity
 _atom_site_fract_x
 _atom_site_fract_y
 _atom_site_fract_z
 _atom_site_occupancy
  Ca  Ca0  1  0.00000000  0.00000000  0.00000000  1
  In  In0  1  0.75000000  0.25000000  0.50000000  1
  Cu  Cu0  1  0.87220972  0.63186789  0.25408810  1
  Cu  Cu1  1  0.37777979  0.61812162  0.74591190  1
  Cu  Cu2  1  0.38187838  0.12779028  0.75965716  1
  Cu  Cu3  1  0.36813211  0.62222021  0.24034284  1
  O  O0  1  0.01274189  0.96027683  0.37867432  1
  O  O1  1  0.03972317  0.41839749  0.05246506  1
  O  O2  1  0.36593243  0.98725811  0.94753494  1
  O  O3  1  0.15941624  0.58046191  0.84358996  1
  O  O4  1  0.41953809  0.26312805  0.57895434  1
  O  O5  1  0.68417372  0.84058376  0.42104566  1
  O  O6  1  0.58160251  0.63406757  0.62132568  1
  O  O7  1  0.73687195  0.31582628  0.15641004  1
loop_
_geom_bond_atom_site_label_1
_geom_bond_atom_site_label_2
_geom_bond_distance
_geom_bond_site_symmetry_2
Ca0 O5 2.419886 1_444
Ca0 O4 2.419886 1_555
Ca0 O3 2.419886 1_544
Ca0 O7 2.419886 1_455
Ca0 O0 2.446046 1_545
Ca0 O1 2.446046 1_555
Ca0 O2 2.446046 1_544
Ca0 O6 2.446046 1_444
In0 O1 2.279079 1_656
In0 O2 2.279079 1_544
In0 O6 2.279079 1_555
In0 O0 2.279079 1_645
In0 O7 2.339432 1_555
In0 O5 2.339433 1_545
In0 O4 2.339433 1_555
In0 O3 2.339433 1_655
Cu0 O5 1.836718 1_555
Cu0 O1 1.856158 1_655
Cu0 O0 1.860340 1_655
Cu0 O7 1.863603 1_555
Cu1 O4 1.836718 1_555
Cu1 O2 1.856158 1_555
Cu1 O6 1.860340 1_555
Cu1 O3 1.863603 1_555
Cu2 O7 1.836720 1_556
Cu2 O0 1.856157 1_545
Cu2 O2 1.860346 1_545
Cu2 O4 1.863597 1_555
Cu3 O3 1.836723 1_554
Cu3 O6 1.856153 1_555
Cu3 O1 1.860338 1_555
Cu3 O5 1.863606 1_555
