# generated using pymatgen
data_Ca5Hg3
_symmetry_space_group_name_H-M   'P 1'
_cell_length_a   8.22506606
_cell_length_b   8.22616409
_cell_length_c   9.32111308
_cell_angle_alpha   116.21059667
_cell_angle_beta   116.20929564
_cell_angle_gamma   89.97259002
_symmetry_Int_Tables_number   1
_chemical_formula_structural   Ca5Hg3
_chemical_formula_sum   'Ca10 Hg6'
_cell_volume   492.59449630
_cell_formula_units_Z   2
loop_
 _symmetry_equiv_pos_site_id
 _symmetry_equiv_pos_as_xyz
  1  'x, y, z'
loop_
 _atom_site_type_symbol
 _atom_site_label
 _atom_site_symmetry_multiplicity
 _atom_site_fract_x
 _atom_site_fract_y
 _atom_site_fract_z
 _atom_site_occupancy
  Ca  Ca0  1  -0.00000000  -0.00000000  -0.00000000  1
  Ca  Ca1  1  0.50000000  0.50000000  -0.00000000  1
  Ca  Ca2  1  0.31182559  0.81181014  0.29405075  1
  Ca  Ca3  1  0.48221732  0.31175955  0.29402863  1
  Ca  Ca4  1  0.81184582  0.98177123  0.29373138  1
  Ca  Ca5  1  0.51778368  0.68824045  0.70597137  1
  Ca  Ca6  1  0.18815418  0.01822877  0.70626862  1
  Ca  Ca7  1  0.01812020  0.51816880  0.70627166  1
  Ca  Ca8  1  0.68817441  0.18818986  0.70594925  1
  Ca  Ca9  1  0.98187980  0.48183120  0.29372834  1
  Hg  Hg0  1  0.24880621  0.24998429  0.50000124  1
  Hg  Hg1  1  0.75119379  0.75001571  0.49999876  1
  Hg  Hg2  1  0.36665296  0.86657534  0.00018671  1
  Hg  Hg3  1  0.13336613  0.36666304  0.00010664  1
  Hg  Hg4  1  0.86663387  0.63333696  0.99989336  1
  Hg  Hg5  1  0.63334704  0.13342466  0.99981329  1
loop_
_geom_bond_atom_site_label_1
_geom_bond_atom_site_label_2
_geom_bond_distance
_geom_bond_site_symmetry_2
Ca0 Hg2 3.208313 1_545
Ca0 Hg5 3.208313 1_454
Ca0 Hg4 3.209438 1_444
Ca0 Hg3 3.209438 1_555
Ca0 Hg1 3.640205 1_444
Ca0 Hg0 3.640205 1_555
Ca0 Ca9 3.741976 1_455
Ca0 Ca7 3.741976 1_544
Ca0 Ca5 3.744182 1_444
Ca0 Ca3 3.744188 1_555
Ca0 Ca6 3.744216 1_554
Ca0 Ca4 3.744216 1_445
Ca0 Ca2 3.744597 1_545
Ca0 Ca8 3.744597 1_454
Ca1 Hg5 3.207823 1_554
Ca1 Hg2 3.207823 1_555
Ca1 Hg3 3.209927 1_555
Ca1 Hg4 3.209927 1_554
Ca1 Hg0 3.640181 1_554
Ca1 Hg1 3.640181 1_555
Ca1 Ca7 3.742094 1_554
Ca1 Ca9 3.742094 1_555
Ca1 Ca6 3.742095 1_554
Ca1 Ca4 3.742095 1_555
Ca1 Ca8 3.744368 1_554
Ca1 Ca2 3.744368 1_555
Ca1 Ca3 3.746154 1_555
Ca1 Ca5 3.746157 1_554
Ca2 Hg2 3.176561 1_555
Ca2 Hg3 3.265090 1_555
Ca2 Hg4 3.265350 1_454
Ca2 Hg0 3.422147 1_565
Ca2 Hg1 3.425748 1_555
Ca2 Ca8 3.594410 1_565
Ca2 Ca9 3.837421 1_455
Ca2 Ca5 4.043009 1_555
Ca2 Ca6 4.045851 1_565
Ca3 Hg3 3.176627 1_555
Ca3 Hg2 3.264978 1_545
Ca3 Hg5 3.267065 1_554
Ca3 Hg1 3.423371 1_555
Ca3 Hg0 3.427599 1_555
Ca3 Ca5 3.595127 1_555
Ca3 Ca4 3.835670 1_545
Ca3 Ca8 4.043009 1_555
Ca3 Ca7 4.044788 1_655
Ca4 Hg4 3.174038 1_554
Ca4 Hg2 3.264345 1_555
Ca4 Hg5 3.268322 1_564
Ca4 Hg0 3.411504 1_665
Ca4 Hg1 3.415548 1_555
Ca4 Ca6 3.595220 1_665
Ca4 Ca8 4.045851 1_565
Ca4 Ca7 4.048643 1_665
Ca5 Hg4 3.176622 1_555
Ca5 Hg5 3.264978 1_565
Ca5 Hg2 3.267071 1_556
Ca5 Hg0 3.423374 1_555
Ca5 Hg1 3.427592 1_555
Ca5 Ca6 3.835676 1_565
Ca5 Ca9 4.044793 1_455
Ca6 Hg3 3.174038 1_556
Ca6 Hg5 3.264345 1_555
Ca6 Hg2 3.268322 1_546
Ca6 Hg1 3.411504 1_445
Ca6 Hg0 3.415548 1_555
Ca6 Ca9 4.048643 1_445
Ca7 Hg2 3.173723 1_556
Ca7 Hg4 3.265143 1_455
Ca7 Hg3 3.267131 1_556
Ca7 Hg0 3.411062 1_555
Ca7 Hg1 3.414809 1_455
Ca7 Ca9 3.596843 1_455
Ca7 Ca8 3.837421 1_455
Ca8 Hg5 3.176561 1_555
Ca8 Hg4 3.265090 1_555
Ca8 Hg3 3.265350 1_656
Ca8 Hg1 3.422147 1_545
Ca8 Hg0 3.425748 1_555
Ca9 Hg5 3.173723 1_554
Ca9 Hg3 3.265143 1_655
Ca9 Hg4 3.267131 1_554
Ca9 Hg1 3.411062 1_555
Ca9 Hg0 3.414809 1_655
Hg2 Hg5 3.106213 1_564
Hg3 Hg4 3.101756 1_454
