# generated using pymatgen
data_K12In2AsP5
_symmetry_space_group_name_H-M   'P 1'
_cell_length_a   8.96139730
_cell_length_b   8.96742473
_cell_length_c   9.93905078
_cell_angle_alpha   81.77599364
_cell_angle_beta   107.19884824
_cell_angle_gamma   119.44987824
_symmetry_Int_Tables_number   1
_chemical_formula_structural   K12In2AsP5
_chemical_formula_sum   'K12 In2 As1 P5'
_cell_volume   664.40182397
_cell_formula_units_Z   1
loop_
 _symmetry_equiv_pos_site_id
 _symmetry_equiv_pos_as_xyz
  1  'x, y, z'
loop_
 _atom_site_type_symbol
 _atom_site_label
 _atom_site_symmetry_multiplicity
 _atom_site_fract_x
 _atom_site_fract_y
 _atom_site_fract_z
 _atom_site_occupancy
  K  K0  1  0.73319150  0.12625961  0.61765450  1
  K  K1  1  0.25696491  0.85700836  0.39437351  1
  K  K2  1  0.96859106  0.81639104  0.62725741  1
  K  K3  1  0.02296695  0.19849625  0.39510578  1
  K  K4  1  0.62896026  0.44897952  0.39907717  1
  K  K5  1  0.40119388  0.56328275  0.59628993  1
  K  K6  1  0.86253077  0.48666138  0.13162138  1
  K  K7  1  0.11227790  0.50380788  0.84500423  1
  K  K8  1  0.75701221  0.09751270  0.98669948  1
  K  K9  1  0.23747264  0.87320001  0.00430830  1
  K  K10  1  0.56425115  0.62254072  0.94687272  1
  K  K11  1  0.24249776  0.19798584  0.11089329  1
  In  In0  1  0.59250560  0.83405095  0.25676486  1
  In  In1  1  0.41899867  0.17560036  0.75051973  1
  As  As0  1  0.28666029  0.55017832  0.22829239  1
  P  P0  1  0.71334143  0.44145047  0.76221463  1
  P  P1  1  0.59787471  0.11824881  0.26039438  1
  P  P2  1  0.38980264  0.87709788  0.74247037  1
  P  P3  1  0.86734158  0.82743538  0.24434207  1
  P  P4  1  0.15494109  0.20055176  0.76122487  1
loop_
_geom_bond_atom_site_label_1
_geom_bond_atom_site_label_2
_geom_bond_distance
_geom_bond_site_symmetry_2
K0 P2 3.271745 1_545
K0 P4 3.372101 1_655
K0 P1 3.394840 1_555
K0 P0 3.448504 1_555
K1 P3 3.257082 1_455
K1 P2 3.309267 1_555
K1 P1 3.327203 1_565
K2 P4 3.281704 1_665
K2 P0 3.361219 1_555
K2 P2 3.384843 1_655
K2 P3 3.640839 1_555
K3 P3 3.299961 1_445
K3 P1 3.374307 1_455
K3 P4 3.477524 1_555
K4 P1 3.302052 1_555
K4 P3 3.430319 1_555
K4 P0 3.459693 1_555
K5 P0 3.391108 1_555
K5 P2 3.403005 1_555
K5 P4 3.419510 1_555
K6 P1 3.325393 1_555
K6 P3 3.378855 1_555
K6 P0 3.524496 1_554
K7 P4 3.176991 1_555
K7 P0 3.193243 1_455
K7 P2 3.281122 1_555
K8 P2 3.298605 1_545
K8 P1 3.488240 1_556
K8 P3 3.533204 1_546
K8 P0 3.653162 1_555
K9 P2 3.265767 1_554
K9 P1 3.390882 1_565
K10 P3 3.375253 1_556
K10 P2 3.476514 1_555
K10 P0 3.496684 1_555
K11 P4 3.328159 1_554
K11 P1 3.463825 1_555
K11 P3 3.807157 1_445
In0 P1 2.530471 1_565
In0 P3 2.531861 1_555
In0 K8 3.472889 1_564
In1 P4 2.517383 1_555
In1 P0 2.523692 1_555
In1 P2 2.569109 1_545
In1 K8 3.547736 1_555
As0 In0 2.637981 1_555
As0 K11 3.323381 1_555
As0 K6 3.400263 1_455
As0 K3 3.430982 1_555
As0 K5 3.497030 1_555
As0 K4 3.511651 1_555
As0 K9 3.517287 1_555
As0 K1 3.556027 1_555
As0 K7 3.663476 1_554
