# generated using pymatgen
data_KAlSiS4
_symmetry_space_group_name_H-M   'P 1'
_cell_length_a   15.85100527
_cell_length_b   6.79465194
_cell_length_c   7.17592305
_cell_angle_alpha   70.30330496
_cell_angle_beta   90.00000000
_cell_angle_gamma   90.00000000
_symmetry_Int_Tables_number   1
_chemical_formula_structural   KAlSiS4
_chemical_formula_sum   'K4 Al4 Si4 S16'
_cell_volume   727.64157340
_cell_formula_units_Z   4
loop_
 _symmetry_equiv_pos_site_id
 _symmetry_equiv_pos_as_xyz
  1  'x, y, z'
loop_
 _atom_site_type_symbol
 _atom_site_label
 _atom_site_symmetry_multiplicity
 _atom_site_fract_x
 _atom_site_fract_y
 _atom_site_fract_z
 _atom_site_occupancy
  K  K0  1  0.39063223  0.94455323  0.18386669  1
  K  K1  1  0.89063223  0.05544677  0.81613331  1
  K  K2  1  0.60101013  0.52101729  0.83583993  1
  K  K3  1  0.10101013  0.47898271  0.16416007  1
  Al  Al0  1  0.58477825  0.15782332  0.48987025  1
  Al  Al1  1  0.08477825  0.84217668  0.51012975  1
  Al  Al2  1  0.27299322  0.58887684  0.70007888  1
  Al  Al3  1  0.77299322  0.41112316  0.29992112  1
  Si  Si0  1  0.42223054  0.31732492  0.53754719  1
  Si  Si1  1  0.92223054  0.68267508  0.46245281  1
  Si  Si2  1  0.72585138  0.91096389  0.27829681  1
  Si  Si3  1  0.22585138  0.08903611  0.72170319  1
  S  S0  1  0.60127213  0.87793480  0.39221617  1
  S  S1  1  0.10127213  0.12206520  0.60778383  1
  S  S2  1  0.41087024  0.58824234  0.61983862  1
  S  S3  1  0.91087024  0.41175766  0.38016138  1
  S  S4  1  0.80434801  0.79180870  0.53893068  1
  S  S5  1  0.30434801  0.20819130  0.46106932  1
  S  S6  1  0.20052177  0.71698395  0.42275553  1
  S  S7  1  0.70052177  0.28301605  0.57724447  1
  S  S8  1  0.75815219  0.21978943  0.09732101  1
  S  S9  1  0.25815219  0.78021057  0.90267899  1
  S  S10  1  0.23889422  0.26652673  0.91260443  1
  S  S11  1  0.73889422  0.73347327  0.08739557  1
  S  S12  1  0.99425894  0.91433356  0.24807122  1
  S  S13  1  0.49425894  0.08566644  0.75192878  1
  S  S14  1  0.99418674  0.61748011  0.72661780  1
  S  S15  1  0.49418674  0.38251989  0.27338220  1
loop_
_geom_bond_atom_site_label_1
_geom_bond_atom_site_label_2
_geom_bond_distance
_geom_bond_site_symmetry_2
K0 S2 3.262840 1_555
K0 S13 3.349828 1_564
K0 S9 3.353643 1_554
K0 S5 3.382047 1_565
K0 S10 3.389621 1_564
K0 S6 3.552973 1_555
K0 S0 3.623806 1_555
K0 S15 3.640201 1_565
K1 S3 3.262840 1_555
K1 S12 3.349828 1_546
K1 S8 3.353643 1_556
K1 S4 3.382047 1_545
K1 S11 3.389621 1_546
K1 S7 3.552973 1_555
K1 S1 3.623806 1_655
K1 S14 3.640201 1_545
K2 S7 3.251075 1_555
K2 S0 3.288060 1_555
K2 S2 3.349263 1_555
K2 S8 3.365340 1_556
K2 S15 3.408688 1_556
K2 S11 3.446132 1_556
K2 S13 3.629955 1_555
K3 S6 3.251075 1_555
K3 S1 3.288060 1_555
K3 S3 3.349263 1_455
K3 S9 3.365340 1_554
K3 S14 3.408688 1_454
K3 S10 3.446132 1_554
K3 S12 3.629955 1_455
Al0 S7 2.200493 1_555
Al0 S0 2.252637 1_545
Al0 S15 2.281997 1_555
Al0 S13 2.283402 1_555
Al1 S6 2.200493 1_555
Al1 S1 2.252637 1_565
Al1 S14 2.281997 1_455
Al1 S12 2.283402 1_455
Al2 S6 2.206791 1_555
Al2 S2 2.260442 1_555
Al2 S9 2.265651 1_555
Al2 S10 2.272349 1_555
Al3 S7 2.206791 1_555
Al3 S3 2.260442 1_555
Al3 S8 2.265651 1_555
Al3 S11 2.272349 1_555
S0 Si2 2.120007 1_555
S1 Si3 2.120007 1_555
S2 Si0 2.121882 1_555
S3 Si1 2.121882 1_555
S4 Si1 2.148688 1_555
S4 Si2 2.163542 1_555
S5 Si0 2.148688 1_555
S5 Si3 2.163542 1_555
S8 Si2 2.124825 1_545
S9 Si3 2.124825 1_565
S10 Si3 2.118345 1_555
S11 Si2 2.118345 1_555
S12 Si1 2.124967 1_555
S13 Si0 2.124967 1_555
S14 Si1 2.127090 1_555
S15 Si0 2.127090 1_555
