# generated using pymatgen
data_FeH4I4N
_symmetry_space_group_name_H-M   'P 1'
_cell_length_a   10.41861089
_cell_length_b   10.41861168
_cell_length_c   10.41861080
_cell_angle_alpha   136.34787089
_cell_angle_beta   136.34787278
_cell_angle_gamma   63.44297816
_symmetry_Int_Tables_number   1
_chemical_formula_structural   FeH4I4N
_chemical_formula_sum   'Fe2 H8 I8 N2'
_cell_volume   531.88505828
_cell_formula_units_Z   2
loop_
 _symmetry_equiv_pos_site_id
 _symmetry_equiv_pos_as_xyz
  1  'x, y, z'
loop_
 _atom_site_type_symbol
 _atom_site_label
 _atom_site_symmetry_multiplicity
 _atom_site_fract_x
 _atom_site_fract_y
 _atom_site_fract_z
 _atom_site_occupancy
  Fe  Fe0  1  0.50000000  0.50000000  0.00000000  1
  Fe  Fe1  1  0.25000000  0.75000000  0.50000000  1
  H  H0  1  0.89125573  0.27498902  0.59878469  1
  H  H1  1  0.70752796  0.10874427  0.38373229  1
  H  H2  1  0.72501098  0.32379567  0.61626771  1
  H  H3  1  0.07379567  0.95752796  0.09878469  1
  H  H4  1  0.67620433  0.29247204  0.40121531  1
  H  H5  1  0.02498902  0.92620433  0.88373229  1
  H  H6  1  0.04247204  0.14125573  0.11626771  1
  H  H7  1  0.85874427  0.97501098  0.90121531  1
  I  I0  1  0.71117835  0.33877710  0.89005004  1
  I  I1  1  0.08877710  0.69872806  0.12759875  1
  I  I2  1  0.17887068  0.28882165  0.62759875  1
  I  I3  1  0.44872806  0.82112932  0.10994996  1
  I  I4  1  0.30127194  0.42887068  0.39005004  1
  I  I5  1  0.57112932  0.96117835  0.87240125  1
  I  I6  1  0.66122290  0.55127194  0.37240125  1
  I  I7  1  0.03882165  0.91122290  0.60994996  1
  N  N0  1  0.75000000  0.25000000  0.50000000  1
  N  N1  1  0.00000000  0.00000000  0.00000000  1
loop_
_geom_bond_atom_site_label_1
_geom_bond_atom_site_label_2
_geom_bond_distance
_geom_bond_site_symmetry_2
Fe0 I0 2.555908 1_554
Fe0 I6 2.555914 1_555
Fe0 I2 2.555914 1_554
Fe0 I3 2.555918 1_555
Fe1 I7 2.555908 1_555
Fe1 I1 2.555914 1_555
Fe1 I5 2.555914 1_555
Fe1 I4 2.555918 1_555
H0 N0 1.027575 1_555
H1 N0 1.027575 1_555
H2 N0 1.027583 1_555
H3 N1 1.027583 1_565
H4 N0 1.027583 1_555
H5 N1 1.027583 1_566
H6 N1 1.027575 1_555
H7 N1 1.027575 1_666
