# generated using pymatgen
data_NaHf2(AsO4)3
_symmetry_space_group_name_H-M   'P 1'
_cell_length_a   9.27565432
_cell_length_b   9.27565396
_cell_length_c   9.27565312
_cell_angle_alpha   59.20444800
_cell_angle_beta   59.20444659
_cell_angle_gamma   59.20444437
_symmetry_Int_Tables_number   1
_chemical_formula_structural   NaHf2(AsO4)3
_chemical_formula_sum   'Na2 Hf4 As6 O24'
_cell_volume   554.08288870
_cell_formula_units_Z   2
loop_
 _symmetry_equiv_pos_site_id
 _symmetry_equiv_pos_as_xyz
  1  'x, y, z'
loop_
 _atom_site_type_symbol
 _atom_site_label
 _atom_site_symmetry_multiplicity
 _atom_site_fract_x
 _atom_site_fract_y
 _atom_site_fract_z
 _atom_site_occupancy
  Na  Na0  1  0.00000000  0.00000000  0.00000000  1
  Na  Na1  1  0.50000000  0.50000000  0.50000000  1
  Hf  Hf0  1  0.85784093  0.85784093  0.85784093  1
  Hf  Hf1  1  0.64215907  0.64215907  0.64215907  1
  Hf  Hf2  1  0.35784093  0.35784093  0.35784093  1
  Hf  Hf3  1  0.14215907  0.14215907  0.14215907  1
  As  As0  1  0.75000000  0.04032567  0.45967433  1
  As  As1  1  0.95967433  0.54032567  0.25000000  1
  As  As2  1  0.04032567  0.45967433  0.75000000  1
  As  As3  1  0.25000000  0.95967433  0.54032567  1
  As  As4  1  0.45967433  0.75000000  0.04032567  1
  As  As5  1  0.54032567  0.25000000  0.95967433  1
  O  O0  1  0.86953852  0.49820850  0.70155228  1
  O  O1  1  0.26680324  0.92299025  0.06021305  1
  O  O2  1  0.79844772  0.00179150  0.63046148  1
  O  O3  1  0.57700975  0.23319676  0.43978695  1
  O  O4  1  0.13046148  0.50179150  0.29844772  1
  O  O5  1  0.92299025  0.06021305  0.26680324  1
  O  O6  1  0.73319676  0.07700975  0.93978695  1
  O  O7  1  0.76680324  0.56021305  0.42299025  1
  O  O8  1  0.42299025  0.76680324  0.56021305  1
  O  O9  1  0.49820850  0.70155228  0.86953852  1
  O  O10  1  0.07700975  0.93978695  0.73319676  1
  O  O11  1  0.20155228  0.99820850  0.36953852  1
  O  O12  1  0.99820850  0.36953852  0.20155228  1
  O  O13  1  0.36953852  0.20155228  0.99820850  1
  O  O14  1  0.93978695  0.73319676  0.07700975  1
  O  O15  1  0.50179150  0.29844772  0.13046148  1
  O  O16  1  0.23319676  0.43978695  0.57700975  1
  O  O17  1  0.63046148  0.79844772  0.00179150  1
  O  O18  1  0.00179150  0.63046148  0.79844772  1
  O  O19  1  0.43978695  0.57700975  0.23319676  1
  O  O20  1  0.56021305  0.42299025  0.76680324  1
  O  O21  1  0.70155228  0.86953852  0.49820850  1
  O  O22  1  0.29844772  0.13046148  0.50179150  1
  O  O23  1  0.06021305  0.26680324  0.92299025  1
loop_
_geom_bond_atom_site_label_1
_geom_bond_atom_site_label_2
_geom_bond_distance
_geom_bond_site_symmetry_2
Na0 O5 2.478583 1_455
Na0 O10 2.478583 1_544
Na0 O1 2.478584 1_545
Na0 O6 2.478584 1_454
Na0 O23 2.478584 1_554
Na0 O14 2.478584 1_445
Na1 O20 2.478584 1_555
Na1 O19 2.478584 1_555
Na1 O8 2.478584 1_555
Na1 O3 2.478584 1_555
Na1 O7 2.478584 1_555
Na1 O16 2.478584 1_555
Hf0 O2 2.021776 1_565
Hf0 O18 2.021776 1_655
Hf0 O17 2.021776 1_556
Hf0 O14 2.079180 1_556
Hf0 O6 2.079180 1_565
Hf0 O10 2.079181 1_655
Hf1 O9 2.021776 1_555
Hf1 O0 2.021776 1_555
Hf1 O21 2.021776 1_555
Hf1 O7 2.079180 1_555
Hf1 O8 2.079181 1_555
Hf1 O20 2.079181 1_555
Hf2 O15 2.021776 1_555
Hf2 O4 2.021776 1_555
Hf2 O22 2.021776 1_555
Hf2 O16 2.079180 1_555
Hf2 O3 2.079181 1_555
Hf2 O19 2.079181 1_555
Hf3 O11 2.021776 1_545
Hf3 O12 2.021776 1_455
Hf3 O13 2.021776 1_554
Hf3 O23 2.079180 1_554
Hf3 O1 2.079180 1_545
Hf3 O5 2.079181 1_455
As0 O2 1.680465 1_555
As0 O21 1.680465 1_545
As0 O5 1.683769 1_555
As0 O3 1.683769 1_555
As1 O12 1.680465 1_555
As1 O4 1.680465 1_655
As1 O7 1.683769 1_555
As1 O14 1.683769 1_555
As2 O18 1.680465 1_555
As2 O0 1.680465 1_455
As2 O16 1.683769 1_555
As2 O23 1.683769 1_555
As3 O11 1.680465 1_555
As3 O22 1.680465 1_565
As3 O10 1.683769 1_555
As3 O8 1.683769 1_555
As4 O9 1.680465 1_554
As4 O17 1.680465 1_555
As4 O19 1.683769 1_555
As4 O1 1.683769 1_555
As5 O15 1.680465 1_556
As5 O13 1.680465 1_555
As5 O20 1.683769 1_555
As5 O6 1.683769 1_555
