# generated using pymatgen
data_Zr6Zn18Ir5Os
_symmetry_space_group_name_H-M   'P 1'
_cell_length_a   8.70350824
_cell_length_b   8.70350724
_cell_length_c   8.70350803
_cell_angle_alpha   59.74954204
_cell_angle_beta   59.74953703
_cell_angle_gamma   59.74954228
_symmetry_Int_Tables_number   1
_chemical_formula_structural   Zr6Zn18Ir5Os
_chemical_formula_sum   'Zr6 Zn18 Ir5 Os1'
_cell_volume   463.54394145
_cell_formula_units_Z   1
loop_
 _symmetry_equiv_pos_site_id
 _symmetry_equiv_pos_as_xyz
  1  'x, y, z'
loop_
 _atom_site_type_symbol
 _atom_site_label
 _atom_site_symmetry_multiplicity
 _atom_site_fract_x
 _atom_site_fract_y
 _atom_site_fract_z
 _atom_site_occupancy
  Zr  Zr0  1  0.70495450  0.28309947  0.28309947  1
  Zr  Zr1  1  0.29504550  0.71690053  0.71690053  1
  Zr  Zr2  1  0.28309947  0.70495450  0.28309947  1
  Zr  Zr3  1  0.71690053  0.29504550  0.71690053  1
  Zr  Zr4  1  0.28309947  0.28309947  0.70495450  1
  Zr  Zr5  1  0.71690053  0.71690053  0.29504550  1
  Zn  Zn0  1  0.12074019  0.12074019  0.62488330  1
  Zn  Zn1  1  0.12074019  0.62488330  0.12074019  1
  Zn  Zn2  1  0.87925981  0.87925981  0.37511670  1
  Zn  Zn3  1  0.87925981  0.37511670  0.87925981  1
  Zn  Zn4  1  0.62488330  0.12074019  0.12074019  1
  Zn  Zn5  1  0.37511670  0.87925981  0.87925981  1
  Zn  Zn6  1  0.50000000  0.00000000  0.00000000  1
  Zn  Zn7  1  0.00000000  0.50000000  0.00000000  1
  Zn  Zn8  1  0.00000000  0.00000000  0.50000000  1
  Zn  Zn9  1  0.33119090  0.33119090  0.33119090  1
  Zn  Zn10  1  0.66880910  0.66880910  0.66880910  1
  Zn  Zn11  1  0.33338449  0.33338449  0.98627923  1
  Zn  Zn12  1  0.33338449  0.98627923  0.33338449  1
  Zn  Zn13  1  0.66661551  0.66661551  0.01372077  1
  Zn  Zn14  1  0.66661551  0.01372077  0.66661551  1
  Zn  Zn15  1  0.98627923  0.33338449  0.33338449  1
  Zn  Zn16  1  0.01372077  0.66661551  0.66661551  1
  Zn  Zn17  1  0.00000000  0.00000000  0.00000000  1
  Ir  Ir0  1  0.11929740  0.11929740  0.11929740  1
  Ir  Ir1  1  0.88070260  0.88070260  0.88070260  1
  Ir  Ir2  1  0.00000000  0.50000000  0.50000000  1
  Ir  Ir3  1  0.50000000  0.00000000  0.50000000  1
  Ir  Ir4  1  0.50000000  0.50000000  0.00000000  1
  Os  Os0  1  0.50000000  0.50000000  0.50000000  1
loop_
_geom_bond_atom_site_label_1
_geom_bond_atom_site_label_2
_geom_bond_distance
_geom_bond_site_symmetry_2
Zn0 Zn8 2.608521 1_555
Zn0 Zn17 2.658335 1_556
Zn0 Zn9 2.681307 1_555
Zn0 Zn12 2.703664 1_545
Zn0 Zn15 2.703664 1_455
Zn0 Zr1 2.883101 1_545
Zn0 Zr3 2.883102 1_455
Zn0 Zr4 2.911314 1_555
Zn1 Zn7 2.608521 1_555
Zn1 Zn17 2.658335 1_565
Zn1 Zn9 2.681307 1_555
Zn1 Zn11 2.703664 1_554
Zn1 Zn15 2.703664 1_455
Zn1 Zr1 2.883101 1_554
Zn1 Zr5 2.883101 1_455
Zn1 Zr2 2.911314 1_555
Zn2 Zn8 2.608521 1_665
Zn2 Zr0 2.883101 1_565
Zn2 Zr2 2.883102 1_655
Zn2 Zr5 2.911314 1_555
Zn3 Zn7 2.608521 1_656
Zn3 Zr0 2.883101 1_556
Zn3 Zr4 2.883101 1_655
Zn3 Zr3 2.911314 1_555
Zn4 Zn6 2.608521 1_555
Zn4 Zn9 2.681307 1_555
Zn4 Zr5 2.883101 1_545
Zn4 Zr3 2.883101 1_554
Zn4 Zr0 2.911314 1_555
Zn5 Zn6 2.608521 1_566
Zn5 Zr4 2.883101 1_565
Zn5 Zr2 2.883101 1_556
Zn5 Zr1 2.911314 1_555
Zn9 Zr2 2.892310 1_555
Zn9 Zr4 2.892310 1_555
Zn9 Zr0 2.892311 1_555
Zn10 Zn2 2.681307 1_555
Zn10 Zn5 2.681307 1_555
Zn10 Zn3 2.681307 1_555
Zn10 Zr3 2.892310 1_555
Zn10 Zr5 2.892310 1_555
Zn10 Zr1 2.892311 1_555
Zn10 Zn14 2.982827 1_565
Zn10 Zn13 2.982827 1_556
Zn10 Zn16 2.982827 1_655
Zn11 Zn6 2.474333 1_556
Zn11 Zn7 2.474333 1_556
Zn11 Zn4 2.703664 1_556
Zn11 Zr1 2.920776 1_555
Zn11 Zr3 2.920776 1_555
Zn11 Zr4 2.954777 1_555
Zn11 Zn9 2.982827 1_556
Zn11 Zn15 3.009589 1_456
Zn11 Zn12 3.009589 1_546
Zn12 Zn6 2.474333 1_565
Zn12 Zn8 2.474333 1_565
Zn12 Zn4 2.703664 1_565
Zn12 Zr1 2.920777 1_555
Zn12 Zr5 2.920777 1_555
Zn12 Zr2 2.954777 1_555
Zn12 Zn9 2.982827 1_565
Zn12 Zn15 3.009589 1_465
Zn13 Zn6 2.474333 1_565
Zn13 Zn7 2.474333 1_655
Zn13 Zn3 2.703664 1_554
Zn13 Zn5 2.703664 1_554
Zn13 Zr0 2.920776 1_555
Zn13 Zr2 2.920776 1_555
Zn13 Zr5 2.954777 1_555
Zn13 Zn16 3.009589 1_654
Zn13 Zn14 3.009589 1_564
Zn14 Zn6 2.474333 1_556
Zn14 Zn8 2.474333 1_655
Zn14 Zn2 2.703664 1_545
Zn14 Zn5 2.703664 1_545
Zn14 Zr0 2.920777 1_555
Zn14 Zr4 2.920777 1_555
Zn14 Zr3 2.954777 1_555
Zn14 Zn16 3.009589 1_645
Zn15 Zn8 2.474333 1_655
Zn15 Zn7 2.474333 1_655
Zn15 Zr3 2.920776 1_555
Zn15 Zr5 2.920776 1_555
Zn15 Zr0 2.954777 1_555
Zn15 Zn9 2.982827 1_655
Zn16 Zn8 2.474333 1_565
Zn16 Zn7 2.474333 1_556
Zn16 Zn3 2.703664 1_455
Zn16 Zn2 2.703664 1_455
Zn16 Zr2 2.920776 1_555
Zn16 Zr4 2.920776 1_555
Zn16 Zr1 2.954777 1_555
Zn17 Zn3 2.658335 1_454
Zn17 Zn2 2.658335 1_445
Zn17 Zn5 2.658335 1_544
Zn17 Zn4 2.658335 1_455
Ir0 Zn17 2.548123 1_555
Ir0 Zn7 2.699732 1_555
Ir0 Zn8 2.699732 1_555
Ir0 Zn6 2.699732 1_555
Ir0 Zn15 2.726777 1_455
Ir0 Zn11 2.726777 1_554
Ir0 Zn12 2.726778 1_545
Ir0 Zn5 2.951402 1_544
Ir0 Zn2 2.951402 1_445
Ir0 Zn3 2.951403 1_454
Ir0 Zr2 2.959313 1_545
Ir0 Zr4 2.959313 1_554
Ir0 Zr0 2.959313 1_455
Ir1 Zn17 2.548123 1_666
Ir1 Zn7 2.699732 1_656
Ir1 Zn8 2.699732 1_665
Ir1 Zn6 2.699732 1_566
Ir1 Zn16 2.726777 1_655
Ir1 Zn13 2.726777 1_556
Ir1 Zn14 2.726778 1_565
Ir1 Zn4 2.951402 1_566
Ir1 Zn0 2.951402 1_665
Ir1 Zn1 2.951403 1_656
Ir1 Zr3 2.959313 1_565
Ir1 Zr5 2.959313 1_556
Ir1 Zr1 2.959313 1_655
Ir2 Zn10 2.503387 1_455
Ir2 Zn9 2.503387 1_555
Ir2 Zn16 2.586086 1_555
Ir2 Zn15 2.586086 1_455
Ir2 Zn2 2.687467 1_455
Ir2 Zn0 2.687467 1_555
Ir2 Zn3 2.687467 1_455
Ir2 Zn1 2.687467 1_555
Ir2 Zr2 3.027509 1_555
Ir2 Zr3 3.027509 1_455
Ir2 Zr4 3.027509 1_555
Ir2 Zr5 3.027509 1_455
Ir3 Zn10 2.503387 1_545
Ir3 Zn9 2.503387 1_555
Ir3 Zn14 2.586086 1_555
Ir3 Zn12 2.586086 1_545
Ir3 Zn5 2.687467 1_545
Ir3 Zn4 2.687467 1_555
Ir3 Zn2 2.687467 1_545
Ir3 Zn0 2.687467 1_555
Ir3 Zr4 3.027509 1_555
Ir3 Zr5 3.027509 1_545
Ir3 Zr0 3.027509 1_555
Ir3 Zr1 3.027509 1_545
Ir4 Zn10 2.503387 1_554
Ir4 Zn9 2.503387 1_555
Ir4 Zn13 2.586086 1_555
Ir4 Zn11 2.586086 1_554
Ir4 Zn5 2.687467 1_554
Ir4 Zn4 2.687467 1_555
Ir4 Zn1 2.687467 1_555
Ir4 Zn3 2.687467 1_554
Ir4 Zr2 3.027509 1_555
Ir4 Zr3 3.027509 1_554
Ir4 Zr0 3.027509 1_555
Ir4 Zr1 3.027509 1_554
Os0 Zr1 2.667278 1_555
Os0 Zr0 2.667278 1_555
Os0 Zr5 2.667278 1_555
Os0 Zr4 2.667278 1_555
Os0 Zr3 2.667279 1_555
Os0 Zr2 2.667279 1_555
