# generated using pymatgen
data_KBa3(BeAs)8
_symmetry_space_group_name_H-M   'P 1'
_cell_length_a   7.32565161
_cell_length_b   8.55550107
_cell_length_c   7.61125167
_cell_angle_alpha   63.64874615
_cell_angle_beta   75.01530991
_cell_angle_gamma   96.85974796
_symmetry_Int_Tables_number   1
_chemical_formula_structural   KBa3(BeAs)8
_chemical_formula_sum   'K1 Ba3 Be8 As8'
_cell_volume   397.52610641
_cell_formula_units_Z   1
loop_
 _symmetry_equiv_pos_site_id
 _symmetry_equiv_pos_as_xyz
  1  'x, y, z'
loop_
 _atom_site_type_symbol
 _atom_site_label
 _atom_site_symmetry_multiplicity
 _atom_site_fract_x
 _atom_site_fract_y
 _atom_site_fract_z
 _atom_site_occupancy
  K  K0  1  0.00000000  0.00000000  0.00000000  1
  Ba  Ba0  1  0.99967743  0.48461838  0.75783870  1
  Ba  Ba1  1  0.00000000  0.00000000  0.50000000  1
  Ba  Ba2  1  0.00032257  0.51538162  0.24216130  1
  Be  Be0  1  0.50302934  0.62476771  0.31088083  1
  Be  Be1  1  0.49699091  0.62293004  0.81390404  1
  Be  Be2  1  0.49708467  0.12405140  0.06360882  1
  Be  Be3  1  0.49532044  0.12475248  0.56127236  1
  Be  Be4  1  0.49697066  0.37523229  0.68911917  1
  Be  Be5  1  0.50300909  0.37706996  0.18609596  1
  Be  Be6  1  0.50467956  0.87524752  0.43872764  1
  Be  Be7  1  0.50291533  0.87594860  0.93639118  1
  As  As0  1  0.30319556  0.32782737  0.50811465  1
  As  As1  1  0.30227700  0.32502500  0.01400123  1
  As  As2  1  0.30782235  0.82557567  0.26241071  1
  As  As3  1  0.30397477  0.82531226  0.76038222  1
  As  As4  1  0.69680444  0.67217263  0.49188535  1
  As  As5  1  0.69772300  0.67497500  0.98599877  1
  As  As6  1  0.69602523  0.17468774  0.23961778  1
  As  As7  1  0.69217765  0.17442433  0.73758929  1
loop_
_geom_bond_atom_site_label_1
_geom_bond_atom_site_label_2
_geom_bond_distance
_geom_bond_site_symmetry_2
As0 Be5 2.325533 1_555
As0 Be3 2.327602 1_555
As0 Be0 2.332415 1_555
As0 Be4 2.333952 1_555
As0 Ba0 3.338627 1_455
As0 Ba1 3.397090 1_555
As0 K0 3.421443 1_556
As0 Ba2 3.447411 1_555
As1 Be1 2.326445 1_554
As1 Be4 2.328131 1_554
As1 Be2 2.328961 1_555
As1 Be5 2.331040 1_555
As1 Ba0 3.342809 1_454
As1 Ba1 3.388340 1_555
As1 K0 3.400231 1_555
As1 Ba2 3.456281 1_555
As2 Be2 2.317748 1_565
As2 Be6 2.328495 1_555
As2 Be0 2.330161 1_555
As2 Be7 2.335661 1_554
As2 Ba2 3.354953 1_555
As2 Ba1 3.416555 1_565
As2 K0 3.433367 1_565
As2 Ba0 3.476249 1_455
As3 Be6 2.323351 1_555
As3 Be1 2.328050 1_555
As3 Be3 2.328453 1_565
As3 Be7 2.340997 1_555
As3 Ba2 3.341667 1_556
As3 Ba1 3.401136 1_565
As3 K0 3.410743 1_566
As3 Ba0 3.462076 1_455
As4 Be1 2.325533 1_555
As4 Be6 2.327602 1_555
As4 Be4 2.332415 1_555
As4 Be0 2.333952 1_555
As4 Ba2 3.338627 1_655
As4 Ba1 3.397090 1_665
As4 K0 3.421443 1_665
As4 Ba0 3.447411 1_555
As5 Be5 2.326445 1_556
As5 Be0 2.328131 1_556
As5 Be7 2.328961 1_555
As5 Be1 2.331040 1_555
As5 Ba2 3.342809 1_656
As5 Ba1 3.388340 1_665
As5 K0 3.400231 1_666
As5 Ba0 3.456281 1_555
As6 Be3 2.323351 1_555
As6 Be5 2.328050 1_555
As6 Be6 2.328453 1_545
As6 Be2 2.340997 1_555
As6 Ba0 3.341667 1_554
As6 Ba1 3.401136 1_655
As6 K0 3.410743 1_655
As6 Ba2 3.462076 1_655
As7 Be7 2.317748 1_545
As7 Be3 2.328495 1_555
As7 Be4 2.330161 1_555
As7 Be2 2.335661 1_556
As7 Ba0 3.354953 1_555
As7 Ba1 3.416555 1_655
As7 K0 3.433367 1_656
As7 Ba2 3.476249 1_655
