# generated using pymatgen
data_Rb6AlFeSe6
_symmetry_space_group_name_H-M   'P 1'
_cell_length_a   10.63162591
_cell_length_b   10.63162596
_cell_length_c   13.56893282
_cell_angle_alpha   90.00000000
_cell_angle_beta   90.00000000
_cell_angle_gamma   140.28535698
_symmetry_Int_Tables_number   1
_chemical_formula_structural   Rb6AlFeSe6
_chemical_formula_sum   'Rb12 Al2 Fe2 Se12'
_cell_volume   979.99024268
_cell_formula_units_Z   2
loop_
 _symmetry_equiv_pos_site_id
 _symmetry_equiv_pos_as_xyz
  1  'x, y, z'
loop_
 _atom_site_type_symbol
 _atom_site_label
 _atom_site_symmetry_multiplicity
 _atom_site_fract_x
 _atom_site_fract_y
 _atom_site_fract_z
 _atom_site_occupancy
  Rb  Rb0  1  0.85667776  0.85655672  0.66861566  1
  Rb  Rb1  1  0.14344328  0.14332224  0.33138434  1
  Rb  Rb2  1  0.64344328  0.64332224  0.16861566  1
  Rb  Rb3  1  0.35667776  0.35655672  0.83138434  1
  Rb  Rb4  1  0.16587158  0.51940885  0.12955075  1
  Rb  Rb5  1  0.48059115  0.83412842  0.87044925  1
  Rb  Rb6  1  0.98059115  0.33412842  0.62955075  1
  Rb  Rb7  1  0.66587158  0.01940885  0.37044925  1
  Rb  Rb8  1  0.83832709  0.48315360  0.87190236  1
  Rb  Rb9  1  0.51684640  0.16167291  0.12809764  1
  Rb  Rb10  1  0.01684640  0.66167291  0.37190236  1
  Rb  Rb11  1  0.33832709  0.98315360  0.62809764  1
  Al  Al0  1  0.91763934  0.08236066  0.00000000  1
  Al  Al1  1  0.41763934  0.58236066  0.50000000  1
  Fe  Fe0  1  0.08194326  0.91805674  0.00000000  1
  Fe  Fe1  1  0.58194326  0.41805674  0.50000000  1
  Se  Se0  1  0.29540318  0.29734410  0.57941523  1
  Se  Se1  1  0.70265590  0.70459682  0.42058477  1
  Se  Se2  1  0.20265590  0.20459682  0.07941523  1
  Se  Se3  1  0.79540318  0.79734410  0.92058477  1
  Se  Se4  1  0.69056464  0.98921315  0.11601369  1
  Se  Se5  1  0.01078685  0.30943536  0.88398631  1
  Se  Se6  1  0.51078685  0.80943536  0.61601369  1
  Se  Se7  1  0.19056464  0.48921315  0.38398631  1
  Se  Se8  1  0.30928910  0.01003853  0.88417509  1
  Se  Se9  1  0.98996147  0.69071090  0.11582491  1
  Se  Se10  1  0.48996147  0.19071090  0.38417509  1
  Se  Se11  1  0.80928910  0.51003853  0.61582491  1
loop_
_geom_bond_atom_site_label_1
_geom_bond_atom_site_label_2
_geom_bond_distance
_geom_bond_site_symmetry_2
Rb0 Se6 3.383676 1_555
Rb0 Se11 3.388750 1_555
Rb0 Se0 3.399082 1_665
Rb0 Se3 3.446591 1_555
Rb0 Se1 3.542336 1_555
Rb1 Se7 3.383676 1_555
Rb1 Se10 3.388750 1_555
Rb1 Se1 3.399082 1_445
Rb1 Se2 3.446591 1_555
Rb1 Se0 3.542336 1_555
Rb2 Se4 3.383676 1_555
Rb2 Se9 3.388750 1_555
Rb2 Se2 3.399082 1_555
Rb2 Se1 3.446591 1_555
Rb2 Se3 3.542336 1_554
Rb3 Se5 3.383676 1_555
Rb3 Se8 3.388750 1_555
Rb3 Se3 3.399082 1_555
Rb3 Se0 3.446591 1_555
Rb3 Se2 3.542336 1_556
Rb4 Se9 3.476974 1_455
Rb4 Se7 3.495832 1_555
Rb4 Se5 3.625166 1_554
Rb4 Se4 3.637806 1_555
Rb4 Se4 3.677049 1_445
Rb4 Se2 3.719091 1_555
Rb5 Se8 3.476974 1_565
Rb5 Se6 3.495832 1_555
Rb5 Se4 3.625166 1_556
Rb5 Se5 3.637806 1_555
Rb5 Se5 3.677049 1_665
Rb5 Se3 3.719091 1_555
Rb6 Se11 3.476974 1_555
Rb6 Se5 3.495832 1_655
Rb6 Se7 3.625166 1_655
Rb6 Se6 3.637806 1_545
Rb6 Se6 3.677049 1_655
Rb6 Se0 3.719091 1_655
Rb7 Se10 3.476974 1_555
Rb7 Se4 3.495832 1_545
Rb7 Se6 3.625166 1_545
Rb7 Se7 3.637806 1_655
Rb7 Se7 3.677049 1_545
Rb7 Se1 3.719091 1_545
Rb8 Se5 3.465486 1_655
Rb8 Se11 3.519416 1_555
Rb8 Se9 3.598598 1_556
Rb8 Se8 3.650496 1_665
Rb8 Se8 3.665847 1_555
Rb8 Se3 3.761355 1_555
Rb9 Se4 3.465486 1_545
Rb9 Se10 3.519416 1_555
Rb9 Se8 3.598598 1_554
Rb9 Se9 3.650496 1_445
Rb9 Se9 3.665847 1_555
Rb9 Se2 3.761355 1_555
Rb10 Se7 3.465486 1_555
Rb10 Se9 3.519416 1_455
Rb10 Se11 3.598598 1_455
Rb10 Se10 3.650496 1_455
Rb10 Se10 3.665847 1_565
Rb10 Se1 3.761355 1_455
Rb11 Se6 3.465486 1_555
Rb11 Se8 3.519416 1_565
Rb11 Se10 3.598598 1_565
Rb11 Se11 3.650496 1_565
Rb11 Se11 3.665847 1_455
Rb11 Se0 3.761355 1_565
Al0 Se4 2.368300 1_545
Al0 Se5 2.368300 1_654
Al0 Se2 2.444114 1_655
Al0 Se3 2.444114 1_544
Al0 Rb5 3.574830 1_544
Al0 Rb4 3.574830 1_655
Al1 Se7 2.368300 1_555
Al1 Se6 2.368300 1_555
Al1 Se1 2.444114 1_555
Al1 Se0 2.444114 1_555
Al1 Rb6 3.574830 1_455
Al1 Rb7 3.574830 1_565
Fe0 Se8 2.373187 1_564
Fe0 Se9 2.373187 1_455
Fe0 Se3 2.464510 1_454
Fe0 Se2 2.464510 1_565
Fe0 Rb9 3.561480 1_565
Fe0 Rb8 3.561480 1_454
Fe1 Se11 2.373187 1_555
Fe1 Se10 2.373187 1_555
Fe1 Se0 2.464510 1_555
Fe1 Se1 2.464510 1_555
Fe1 Rb10 3.561480 1_655
Fe1 Rb11 3.561480 1_545
