# generated using pymatgen
data_HgIr2PbO7
_symmetry_space_group_name_H-M   'P 1'
_cell_length_a   7.26244492
_cell_length_b   7.26244465
_cell_length_c   7.18003036
_cell_angle_alpha   60.37468886
_cell_angle_beta   60.37469007
_cell_angle_gamma   60.95832765
_symmetry_Int_Tables_number   1
_chemical_formula_structural   HgIr2PbO7
_chemical_formula_sum   'Hg2 Ir4 Pb2 O14'
_cell_volume   271.20409293
_cell_formula_units_Z   2
loop_
 _symmetry_equiv_pos_site_id
 _symmetry_equiv_pos_as_xyz
  1  'x, y, z'
loop_
 _atom_site_type_symbol
 _atom_site_label
 _atom_site_symmetry_multiplicity
 _atom_site_fract_x
 _atom_site_fract_y
 _atom_site_fract_z
 _atom_site_occupancy
  Hg  Hg0  1  0.12500000  0.12500000  0.62500000  1
  Hg  Hg1  1  0.12500000  0.12500000  0.12500000  1
  Ir  Ir0  1  0.12500000  0.62500000  0.62500000  1
  Ir  Ir1  1  0.62500000  0.12500000  0.62500000  1
  Ir  Ir2  1  0.62500000  0.62500000  0.12500000  1
  Ir  Ir3  1  0.62500000  0.62500000  0.62500000  1
  Pb  Pb0  1  0.62500000  0.12500000  0.12500000  1
  Pb  Pb1  1  0.12500000  0.62500000  0.12500000  1
  O  O0  1  0.70636678  0.70636678  0.29363322  1
  O  O1  1  0.30744359  0.30744359  0.69255641  1
  O  O2  1  0.68825411  0.30260967  0.71081675  1
  O  O3  1  0.30260967  0.68825411  0.29831946  1
  O  O4  1  0.30260967  0.68825411  0.71081675  1
  O  O5  1  0.68825411  0.30260967  0.29831946  1
  O  O6  1  0.54363322  0.54363322  0.95636678  1
  O  O7  1  0.94255641  0.94255641  0.55744359  1
  O  O8  1  0.56174589  0.94739033  0.53918325  1
  O  O9  1  0.94739033  0.56174589  0.95168054  1
  O  O10  1  0.94739033  0.56174589  0.53918325  1
  O  O11  1  0.56174589  0.94739033  0.95168054  1
  O  O12  1  0.23497094  0.23497094  0.26502906  1
  O  O13  1  0.01502906  0.01502906  0.98497094  1
loop_
_geom_bond_atom_site_label_1
_geom_bond_atom_site_label_2
_geom_bond_distance
_geom_bond_site_symmetry_2
Hg0 O13 2.119809 1_555
Hg0 O12 2.119809 1_555
Hg0 O1 2.592633 1_555
Hg0 O7 2.592633 1_445
Hg0 O10 2.642989 1_455
Hg0 O4 2.642989 1_545
Hg0 O8 2.642989 1_545
Hg0 O2 2.642989 1_455
Hg1 O12 2.119809 1_555
Hg1 O13 2.119809 1_554
Hg1 O7 2.592633 1_445
Hg1 O1 2.592633 1_554
Hg1 O9 2.642989 1_454
Hg1 O3 2.642989 1_545
Hg1 O11 2.642989 1_544
Hg1 O5 2.642989 1_455
Ir0 O7 1.967803 1_455
Ir0 O1 1.967803 1_555
Ir0 O4 1.973673 1_555
Ir0 O10 1.973673 1_455
Ir0 O9 1.973673 1_455
Ir0 O3 1.973673 1_555
Ir1 O7 1.967803 1_545
Ir1 O1 1.967803 1_555
Ir1 O2 1.973673 1_555
Ir1 O8 1.973673 1_545
Ir1 O11 1.973673 1_545
Ir1 O5 1.973673 1_555
Ir2 O11 1.970247 1_554
Ir2 O5 1.970247 1_555
Ir2 O9 1.970247 1_554
Ir2 O3 1.970247 1_555
Ir2 O0 1.979430 1_555
Ir2 O6 1.979430 1_554
Ir3 O8 1.970247 1_555
Ir3 O2 1.970247 1_555
Ir3 O10 1.970247 1_555
Ir3 O4 1.970247 1_555
Ir3 O6 1.979431 1_555
Ir3 O0 1.979431 1_555
O0 Pb0 2.526325 1_565
O0 Pb1 2.526325 1_655
O2 Pb0 2.480099 1_556
O3 Pb1 2.480099 1_555
O4 Pb1 2.480099 1_556
O5 Pb0 2.480099 1_555
O6 Pb0 2.526325 1_556
O6 Pb1 2.526325 1_556
O8 Pb0 2.480099 1_565
O9 Pb1 2.480099 1_656
O10 Pb1 2.480099 1_655
O11 Pb0 2.480099 1_566
O12 Pb1 2.335385 1_555
O12 Pb0 2.335385 1_555
O13 Pb1 2.335385 1_546
O13 Pb0 2.335385 1_456
