# generated using pymatgen
data_Hf6Al16Co4Cu3
_symmetry_space_group_name_H-M   'P 1'
_cell_length_a   8.47307184
_cell_length_b   8.44813042
_cell_length_c   8.47558091
_cell_angle_alpha   59.80273405
_cell_angle_beta   59.79559592
_cell_angle_gamma   60.11695076
_symmetry_Int_Tables_number   1
_chemical_formula_structural   Hf6Al16Co4Cu3
_chemical_formula_sum   'Hf6 Al16 Co4 Cu3'
_cell_volume   428.06621772
_cell_formula_units_Z   1
loop_
 _symmetry_equiv_pos_site_id
 _symmetry_equiv_pos_as_xyz
  1  'x, y, z'
loop_
 _atom_site_type_symbol
 _atom_site_label
 _atom_site_symmetry_multiplicity
 _atom_site_fract_x
 _atom_site_fract_y
 _atom_site_fract_z
 _atom_site_occupancy
  Hf  Hf0  1  0.68357042  0.68188957  0.31811043  1
  Hf  Hf1  1  0.30476067  0.69454455  0.30545545  1
  Hf  Hf2  1  0.69161640  0.30838360  0.30838360  1
  Hf  Hf3  1  0.31642958  0.31811043  0.68188957  1
  Hf  Hf4  1  0.69523933  0.30545545  0.69454455  1
  Hf  Hf5  1  0.30838360  0.69161640  0.69161640  1
  Al  Al0  1  0.87871043  0.87603660  0.35423520  1
  Al  Al1  1  0.89101577  0.35423520  0.87603660  1
  Al  Al2  1  0.35157217  0.88711374  0.87338629  1
  Al  Al3  1  0.88792579  0.87338629  0.88711374  1
  Al  Al4  1  0.12128957  0.12396340  0.64576480  1
  Al  Al5  1  0.10898423  0.64576480  0.12396340  1
  Al  Al6  1  0.64842783  0.11288626  0.12661371  1
  Al  Al7  1  0.11207421  0.12661371  0.11288626  1
  Al  Al8  1  0.67211051  0.66334303  0.99927255  1
  Al  Al9  1  0.66527391  0.99927255  0.66334303  1
  Al  Al10  1  0.00128670  0.66216940  0.66747785  1
  Al  Al11  1  0.66906605  0.66747785  0.66216940  1
  Al  Al12  1  0.32788949  0.33665697  0.00072745  1
  Al  Al13  1  0.33472609  0.00072745  0.33665697  1
  Al  Al14  1  0.99871330  0.33783060  0.33252215  1
  Al  Al15  1  0.33093395  0.33252215  0.33783060  1
  Co  Co0  1  0.00000000  0.00000000  0.00000000  1
  Co  Co1  1  0.50000000  0.00000000  0.50000000  1
  Co  Co2  1  0.00000000  0.50000000  0.50000000  1
  Co  Co3  1  0.00000000  0.50000000  0.00000000  1
  Cu  Cu0  1  0.00000000  0.00000000  0.50000000  1
  Cu  Cu1  1  0.50000000  0.50000000  0.00000000  1
  Cu  Cu2  1  0.50000000  0.00000000  0.00000000  1
loop_
_geom_bond_atom_site_label_1
_geom_bond_atom_site_label_2
_geom_bond_distance
_geom_bond_site_symmetry_2
Hf0 Hf2 3.163833 1_555
Hf0 Hf5 3.163833 1_555
Hf0 Hf4 3.178022 1_555
Hf0 Hf1 3.212151 1_555
Hf1 Hf3 3.178022 1_555
Hf1 Hf2 3.276059 1_555
Hf1 Hf5 3.276060 1_555
Hf2 Hf3 3.163833 1_555
Hf2 Hf4 3.276060 1_555
Hf3 Hf5 3.163833 1_555
Hf3 Hf4 3.212151 1_555
Hf4 Hf5 3.276059 1_555
Al0 Co0 2.443757 1_665
Al0 Co2 2.598208 1_655
Al0 Co1 2.623710 1_565
Al0 Al11 2.626699 1_555
Al0 Al9 2.705302 1_555
Al0 Cu0 2.707528 1_665
Al0 Al10 2.733279 1_655
Al0 Al6 2.747127 1_565
Al0 Al5 2.757910 1_655
Al0 Al7 2.884546 1_665
Al0 Hf1 3.028886 1_655
Al0 Hf0 3.038860 1_555
Al0 Hf2 3.070384 1_565
Al1 Co0 2.443757 1_656
Al1 Co2 2.598208 1_655
Al1 Co3 2.623724 1_656
Al1 Al10 2.626708 1_655
Al1 Al8 2.705302 1_555
Al1 Cu1 2.707515 1_556
Al1 Al11 2.733269 1_555
Al1 Al7 2.747151 1_656
Al1 Al4 2.757910 1_655
Al1 Al6 2.884522 1_556
Al1 Hf4 3.028871 1_555
Al1 Hf3 3.038875 1_655
Al1 Hf2 3.070384 1_556
Al2 Co0 2.432512 1_566
Al2 Co1 2.580849 1_565
Al2 Cu1 2.675399 1_556
Al2 Al9 2.680256 1_555
Al2 Cu2 2.688000 1_566
Al2 Al4 2.747127 1_565
Al2 Al8 2.803391 1_555
Al2 Al7 2.868434 1_566
Al2 Al5 2.884522 1_556
Al2 Hf5 2.994029 1_555
Al2 Hf1 3.066418 1_556
Al2 Hf3 3.072730 1_565
Al3 Co0 2.432526 1_666
Al3 Co3 2.580847 1_656
Al3 Cu0 2.675399 1_665
Al3 Al8 2.680242 1_555
Al3 Cu2 2.687985 1_566
Al3 Al5 2.747151 1_656
Al3 Al9 2.803377 1_555
Al3 Al6 2.868434 1_566
Al3 Al4 2.884546 1_665
Al3 Hf5 2.994040 1_655
Al3 Hf4 3.066415 1_565
Al3 Hf0 3.072727 1_556
Al4 Co0 2.443757 1_556
Al4 Co2 2.598208 1_555
Al4 Co1 2.623710 1_555
Al4 Cu0 2.707528 1_555
Al4 Hf4 3.028886 1_455
Al4 Hf3 3.038860 1_555
Al4 Hf5 3.070384 1_545
Al5 Co0 2.443757 1_565
Al5 Co2 2.598208 1_555
Al5 Co3 2.623724 1_555
Al5 Cu1 2.707515 1_555
Al5 Hf1 3.028871 1_555
Al5 Hf0 3.038875 1_455
Al5 Hf5 3.070384 1_554
Al6 Co0 2.432512 1_655
Al6 Co1 2.580849 1_555
Al6 Cu1 2.675399 1_555
Al6 Cu2 2.688000 1_555
Al6 Hf2 2.994029 1_555
Al6 Hf4 3.066418 1_554
Al6 Hf0 3.072730 1_545
Al7 Co0 2.432526 1_555
Al7 Co3 2.580847 1_555
Al7 Cu0 2.675399 1_555
Al7 Cu2 2.687985 1_555
Al7 Hf2 2.994040 1_455
Al7 Hf1 3.066415 1_545
Al7 Hf3 3.072727 1_554
Al8 Co3 2.410661 1_656
Al8 Cu1 2.453281 1_556
Al8 Cu2 2.468074 1_566
Al8 Hf2 2.814648 1_556
Al8 Al9 2.835087 1_555
Al8 Hf0 2.835791 1_556
Al8 Hf1 2.869737 1_556
Al9 Co1 2.410661 1_565
Al9 Cu0 2.453281 1_665
Al9 Cu2 2.468074 1_566
Al9 Hf2 2.814648 1_565
Al9 Hf3 2.835791 1_565
Al9 Hf4 2.869737 1_565
Al10 Co2 2.424614 1_555
Al10 Co3 2.433065 1_556
Al10 Cu0 2.463687 1_565
Al10 Al3 2.721493 1_455
Al10 Al8 2.792163 1_455
Al10 Hf3 2.798343 1_555
Al10 Al11 2.815577 1_455
Al10 Hf1 2.831874 1_555
Al10 Hf5 2.847155 1_555
Al10 Al9 2.852722 1_455
Al11 Co2 2.424614 1_655
Al11 Co1 2.433065 1_565
Al11 Cu1 2.463687 1_556
Al11 Al2 2.721498 1_555
Al11 Al9 2.792163 1_555
Al11 Hf0 2.798344 1_555
Al11 Hf4 2.831874 1_555
Al11 Hf5 2.847155 1_555
Al11 Al8 2.852722 1_555
Al12 Co3 2.410661 1_555
Al12 Cu1 2.453281 1_555
Al12 Cu2 2.468074 1_555
Al12 Al7 2.680242 1_555
Al12 Al5 2.705302 1_555
Al12 Al14 2.792163 1_455
Al12 Al6 2.803391 1_555
Al12 Hf5 2.814648 1_554
Al12 Al13 2.835087 1_555
Al12 Hf3 2.835791 1_554
Al12 Al15 2.852722 1_555
Al12 Hf4 2.869737 1_554
Al13 Co1 2.410661 1_555
Al13 Cu0 2.453281 1_555
Al13 Cu2 2.468074 1_555
Al13 Al6 2.680256 1_555
Al13 Al4 2.705302 1_555
Al13 Al15 2.792163 1_555
Al13 Al7 2.803377 1_555
Al13 Hf5 2.814648 1_545
Al13 Hf0 2.835791 1_545
Al13 Al14 2.852722 1_455
Al13 Hf1 2.869737 1_545
Al14 Co2 2.424614 1_655
Al14 Co3 2.433065 1_655
Al14 Cu0 2.463687 1_655
Al14 Al5 2.626708 1_655
Al14 Al7 2.721493 1_655
Al14 Al4 2.733279 1_655
Al14 Hf0 2.798343 1_555
Al14 Al15 2.815577 1_655
Al14 Hf4 2.831874 1_555
Al14 Hf2 2.847155 1_555
Al15 Co2 2.424614 1_555
Al15 Co1 2.433065 1_555
Al15 Cu1 2.463687 1_555
Al15 Al4 2.626699 1_555
Al15 Al6 2.721498 1_555
Al15 Al5 2.733269 1_555
Al15 Hf3 2.798344 1_555
Al15 Hf1 2.831874 1_555
Al15 Hf2 2.847155 1_555
Co1 Hf2 3.060473 1_555
Co1 Hf5 3.060473 1_545
Co1 Hf3 3.099674 1_555
Co1 Hf0 3.099674 1_545
Co2 Hf1 3.050714 1_555
Co2 Hf4 3.050714 1_455
Co2 Hf3 3.097861 1_555
Co2 Hf0 3.097861 1_455
Co3 Hf5 3.060474 1_554
Co3 Hf2 3.060474 1_455
Co3 Hf0 3.099674 1_455
Co3 Hf3 3.099674 1_554
Cu0 Hf4 3.066297 1_455
Cu0 Hf1 3.066297 1_545
Cu0 Hf5 3.079389 1_545
Cu0 Hf2 3.079389 1_455
Cu1 Hf1 3.066297 1_555
Cu1 Hf4 3.066297 1_554
Cu1 Hf2 3.079389 1_555
Cu1 Hf5 3.079389 1_554
Cu2 Hf4 3.053236 1_554
Cu2 Hf1 3.053236 1_545
Cu2 Hf0 3.110666 1_545
Cu2 Hf3 3.110666 1_554
