# generated using pymatgen
data_Zr6Zn22CuC
_symmetry_space_group_name_H-M   'P 1'
_cell_length_a   8.58122087
_cell_length_b   8.58122045
_cell_length_c   8.58121940
_cell_angle_alpha   59.99999660
_cell_angle_beta   59.99999821
_cell_angle_gamma   59.99999074
_symmetry_Int_Tables_number   1
_chemical_formula_structural   Zr6Zn22CuC
_chemical_formula_sum   'Zr6 Zn22 Cu1 C1'
_cell_volume   446.81948132
_cell_formula_units_Z   1
loop_
 _symmetry_equiv_pos_site_id
 _symmetry_equiv_pos_as_xyz
  1  'x, y, z'
loop_
 _atom_site_type_symbol
 _atom_site_label
 _atom_site_symmetry_multiplicity
 _atom_site_fract_x
 _atom_site_fract_y
 _atom_site_fract_z
 _atom_site_occupancy
  Zr  Zr0  1  0.69112592  0.30887408  0.30887408  1
  Zr  Zr1  1  0.30887408  0.69112592  0.69112592  1
  Zr  Zr2  1  0.30887408  0.69112592  0.30887408  1
  Zr  Zr3  1  0.69112592  0.30887408  0.69112592  1
  Zr  Zr4  1  0.30887408  0.30887408  0.69112592  1
  Zr  Zr5  1  0.69112592  0.69112592  0.30887408  1
  Zn  Zn0  1  0.11872053  0.11872053  0.11872053  1
  Zn  Zn1  1  0.88127947  0.88127947  0.88127947  1
  Zn  Zn2  1  0.11872053  0.11872053  0.64384041  1
  Zn  Zn3  1  0.11872053  0.64384041  0.11872053  1
  Zn  Zn4  1  0.88127947  0.88127947  0.35615959  1
  Zn  Zn5  1  0.88127947  0.35615959  0.88127947  1
  Zn  Zn6  1  0.64384041  0.11872053  0.11872053  1
  Zn  Zn7  1  0.35615959  0.88127947  0.88127947  1
  Zn  Zn8  1  0.50000000  0.00000000  0.00000000  1
  Zn  Zn9  1  0.00000000  0.50000000  0.50000000  1
  Zn  Zn10  1  0.00000000  0.50000000  0.00000000  1
  Zn  Zn11  1  0.50000000  0.00000000  0.50000000  1
  Zn  Zn12  1  0.00000000  0.00000000  0.50000000  1
  Zn  Zn13  1  0.50000000  0.50000000  0.00000000  1
  Zn  Zn14  1  0.32950485  0.32950485  0.32950485  1
  Zn  Zn15  1  0.67049515  0.67049515  0.67049515  1
  Zn  Zn16  1  0.32950485  0.32950485  0.01148644  1
  Zn  Zn17  1  0.32950485  0.01148644  0.32950485  1
  Zn  Zn18  1  0.67049515  0.67049515  0.98851356  1
  Zn  Zn19  1  0.67049515  0.98851356  0.67049515  1
  Zn  Zn20  1  0.01148644  0.32950485  0.32950485  1
  Zn  Zn21  1  0.98851356  0.67049515  0.67049515  1
  Cu  Cu0  1  0.00000000  0.00000000  0.00000000  1
  C  C0  1  0.50000000  0.50000000  0.50000000  1
loop_
_geom_bond_atom_site_label_1
_geom_bond_atom_site_label_2
_geom_bond_distance
_geom_bond_site_symmetry_2
Zn0 Zn12 2.674345 1_555
Zn0 Zn10 2.674345 1_555
Zn0 Zn8 2.674346 1_555
Zn0 Zn20 2.707952 1_555
Zn0 Zn17 2.707952 1_555
Zn0 Zn16 2.707953 1_555
Zn1 Zn12 2.674345 1_665
Zn1 Zn10 2.674345 1_656
Zn1 Zn8 2.674346 1_566
Zn1 Zn21 2.707952 1_555
Zn1 Zn19 2.707952 1_555
Zn1 Zn18 2.707953 1_555
Zn2 Zn9 2.674346 1_555
Zn2 Zn20 2.707959 1_555
Zn3 Zn9 2.674346 1_555
Zn4 Zn9 2.674346 1_655
Zn5 Zn9 2.674346 1_655
Zn6 Zn8 2.674360 1_555
Zn7 Zn8 2.674360 1_566
Zn8 Zr5 3.116912 1_545
Zn8 Zr4 3.116912 1_554
Zn8 Zr3 3.116913 1_554
Zn8 Zr2 3.116913 1_545
Zn9 Zr4 3.116913 1_555
Zn9 Zr5 3.116913 1_455
Zn9 Zr2 3.116913 1_555
Zn9 Zr3 3.116913 1_455
Zn10 Zn20 2.478494 1_555
Zn10 Zn21 2.478494 1_454
Zn10 Zn16 2.478494 1_555
Zn10 Zn18 2.478494 1_454
Zn10 Zn3 2.674360 1_555
Zn10 Zn5 2.674360 1_454
Zn10 Zr5 3.116912 1_455
Zn10 Zr4 3.116912 1_554
Zn10 Zr1 3.116913 1_554
Zn10 Zr0 3.116913 1_455
Zn11 Zn19 2.478487 1_545
Zn11 Zn17 2.478487 1_555
Zn11 Zn15 2.478491 1_545
Zn11 Zn14 2.478491 1_555
Zn11 Zn7 2.674346 1_545
Zn11 Zn6 2.674346 1_555
Zn11 Zn4 2.674346 1_545
Zn11 Zn2 2.674346 1_555
Zn11 Zr4 3.116912 1_555
Zn11 Zr5 3.116912 1_545
Zn11 Zr0 3.116913 1_555
Zn11 Zr1 3.116913 1_545
Zn12 Zn20 2.478494 1_555
Zn12 Zn21 2.478494 1_445
Zn12 Zn17 2.478495 1_555
Zn12 Zn19 2.478495 1_445
Zn12 Zn2 2.674360 1_555
Zn12 Zn4 2.674360 1_445
Zn12 Zr1 3.116912 1_545
Zn12 Zr0 3.116912 1_455
Zn12 Zr3 3.116912 1_455
Zn12 Zr2 3.116912 1_545
Zn13 Zn18 2.478487 1_554
Zn13 Zn16 2.478487 1_555
Zn13 Zn15 2.478492 1_554
Zn13 Zn14 2.478492 1_555
Zn13 Zn7 2.674346 1_554
Zn13 Zn6 2.674346 1_555
Zn13 Zn5 2.674346 1_554
Zn13 Zn3 2.674346 1_555
Zn13 Zr0 3.116912 1_555
Zn13 Zr2 3.116912 1_555
Zn13 Zr1 3.116912 1_554
Zn13 Zr3 3.116912 1_554
Zn14 Zn9 2.478492 1_555
Zn14 Zn3 2.707955 1_555
Zn14 Zn6 2.707955 1_555
Zn14 Zn2 2.707955 1_555
Zn14 Zn16 2.728986 1_555
Zn14 Zn17 2.728986 1_555
Zn14 Zn20 2.728986 1_555
Zn14 Zr4 2.936804 1_555
Zn14 Zr2 2.936804 1_555
Zn14 Zr0 2.936805 1_555
Zn15 Zn9 2.478492 1_655
Zn15 Zn5 2.707955 1_555
Zn15 Zn7 2.707955 1_555
Zn15 Zn4 2.707955 1_555
Zn15 Zn18 2.728986 1_555
Zn15 Zn19 2.728986 1_555
Zn15 Zn21 2.728986 1_555
Zn15 Zr5 2.936804 1_555
Zn15 Zr3 2.936804 1_555
Zn15 Zr1 2.936805 1_555
Zn16 Zn8 2.478494 1_555
Zn16 Zn3 2.707959 1_555
Zn16 Zn6 2.707959 1_555
Zn16 Zn17 2.728986 1_555
Zn16 Zn20 2.728986 1_555
Zn16 Zr1 2.936808 1_554
Zn16 Zr3 2.936808 1_554
Zn16 Zr4 2.936813 1_554
Zn17 Zn8 2.478494 1_555
Zn17 Zn2 2.707959 1_555
Zn17 Zn6 2.707960 1_555
Zn17 Zn20 2.728986 1_555
Zn17 Zr1 2.936808 1_545
Zn17 Zr5 2.936808 1_545
Zn17 Zr2 2.936813 1_545
Zn18 Zn8 2.478494 1_566
Zn18 Zn5 2.707959 1_555
Zn18 Zn7 2.707959 1_555
Zn18 Zn19 2.728986 1_555
Zn18 Zn21 2.728986 1_555
Zn18 Zr0 2.936808 1_556
Zn18 Zr2 2.936808 1_556
Zn18 Zr5 2.936813 1_556
Zn19 Zn8 2.478494 1_566
Zn19 Zn4 2.707959 1_555
Zn19 Zn7 2.707960 1_555
Zn19 Zn21 2.728986 1_555
Zn19 Zr0 2.936808 1_565
Zn19 Zr4 2.936808 1_565
Zn19 Zr3 2.936813 1_565
Zn20 Zn9 2.478487 1_555
Zn20 Zn3 2.707960 1_555
Zn20 Zr5 2.936808 1_455
Zn20 Zr3 2.936808 1_455
Zn20 Zr0 2.936813 1_455
Zn21 Zn9 2.478487 1_655
Zn21 Zn4 2.707959 1_555
Zn21 Zn5 2.707960 1_555
Zn21 Zr4 2.936808 1_655
Zn21 Zr2 2.936808 1_655
Zn21 Zr1 2.936813 1_655
Cu0 Zn4 2.495445 1_445
Cu0 Zn2 2.495445 1_554
Cu0 Zn5 2.495445 1_454
Cu0 Zn3 2.495445 1_545
Cu0 Zn7 2.495445 1_544
Cu0 Zn6 2.495445 1_455
Cu0 Zn0 2.495459 1_555
Cu0 Zn1 2.495459 1_444
C0 Zr3 2.319442 1_555
C0 Zr2 2.319442 1_555
C0 Zr1 2.319442 1_555
C0 Zr0 2.319442 1_555
C0 Zr5 2.319443 1_555
C0 Zr4 2.319443 1_555
