# generated using pymatgen
data_Nb3Ga(AsO4)6
_symmetry_space_group_name_H-M   'P 1'
_cell_length_a   9.23939085
_cell_length_b   9.23938995
_cell_length_c   9.23938915
_cell_angle_alpha   56.80662579
_cell_angle_beta   56.80663057
_cell_angle_gamma   56.80663237
_symmetry_Int_Tables_number   1
_chemical_formula_structural   Nb3Ga(AsO4)6
_chemical_formula_sum   'Nb3 Ga1 As6 O24'
_cell_volume   516.61352840
_cell_formula_units_Z   1
loop_
 _symmetry_equiv_pos_site_id
 _symmetry_equiv_pos_as_xyz
  1  'x, y, z'
loop_
 _atom_site_type_symbol
 _atom_site_label
 _atom_site_symmetry_multiplicity
 _atom_site_fract_x
 _atom_site_fract_y
 _atom_site_fract_z
 _atom_site_occupancy
  Nb  Nb0  1  0.85615000  0.85615000  0.85615000  1
  Nb  Nb1  1  0.64113659  0.64113659  0.64113659  1
  Nb  Nb2  1  0.36223145  0.36223145  0.36223145  1
  Ga  Ga0  1  0.14545325  0.14545325  0.14545325  1
  As  As0  1  0.25580469  0.51270496  0.97081113  1
  As  As1  1  0.97081113  0.25580469  0.51270496  1
  As  As2  1  0.51270496  0.97081113  0.25580469  1
  As  As3  1  0.45997590  0.03199518  0.76555141  1
  As  As4  1  0.03199518  0.76555141  0.45997590  1
  As  As5  1  0.76555141  0.45997590  0.03199518  1
  O  O0  1  0.69968485  0.49969000  0.87063814  1
  O  O1  1  0.49969000  0.87063814  0.69968485  1
  O  O2  1  0.04381656  0.68170452  0.97502706  1
  O  O3  1  0.87063814  0.69968485  0.49969000  1
  O  O4  1  0.40510115  0.60144973  0.76519233  1
  O  O5  1  0.29186500  0.30935035  0.98423335  1
  O  O6  1  0.97502706  0.04381656  0.68170452  1
  O  O7  1  0.76519233  0.40510115  0.60144973  1
  O  O8  1  0.60144973  0.76519233  0.40510115  1
  O  O9  1  0.66997633  0.01200970  0.73057574  1
  O  O10  1  0.30841673  0.00427125  0.97938806  1
  O  O11  1  0.01200970  0.73057574  0.66997633  1
  O  O12  1  0.98423335  0.29186500  0.30935035  1
  O  O13  1  0.68170452  0.97502706  0.04381656  1
  O  O14  1  0.30935035  0.98423335  0.29186500  1
  O  O15  1  0.39175753  0.23850055  0.60293406  1
  O  O16  1  0.23850055  0.60293406  0.39175753  1
  O  O17  1  0.00427125  0.97938806  0.30841673  1
  O  O18  1  0.73057574  0.66997633  0.01200970  1
  O  O19  1  0.60293406  0.39175753  0.23850055  1
  O  O20  1  0.13533791  0.29658851  0.50067402  1
  O  O21  1  0.97938806  0.30841673  0.00427125  1
  O  O22  1  0.50067402  0.13533791  0.29658851  1
  O  O23  1  0.29658851  0.50067402  0.13533791  1
loop_
_geom_bond_atom_site_label_1
_geom_bond_atom_site_label_2
_geom_bond_distance
_geom_bond_site_symmetry_2
Nb0 O6 1.974230 1_565
Nb0 O13 1.974230 1_556
Nb0 O2 1.974230 1_655
Nb0 O11 2.005569 1_655
Nb0 O18 2.005569 1_556
Nb0 O9 2.005569 1_565
Nb1 O8 1.970445 1_555
Nb1 O7 1.970446 1_555
Nb1 O4 1.970446 1_555
Nb1 O0 1.986081 1_555
Nb1 O1 1.986081 1_555
Nb1 O3 1.986081 1_555
Nb2 O15 1.966293 1_555
Nb2 O16 1.966293 1_555
Nb2 O19 1.966293 1_555
Nb2 O23 2.001339 1_555
Nb2 O22 2.001340 1_555
Nb2 O20 2.001340 1_555
Ga0 O17 1.958116 1_545
Ga0 O21 1.958116 1_455
Ga0 O10 1.958116 1_554
Ga0 O14 1.977052 1_545
Ga0 O5 1.977052 1_554
Ga0 O12 1.977052 1_455
As0 O5 1.661698 1_555
As0 O4 1.687521 1_555
As0 O23 1.691580 1_556
As0 O2 1.705968 1_555
As1 O12 1.661698 1_555
As1 O7 1.687522 1_555
As1 O20 1.691581 1_655
As1 O6 1.705967 1_555
As2 O14 1.661699 1_555
As2 O8 1.687521 1_555
As2 O22 1.691580 1_565
As2 O13 1.705968 1_555
As3 O10 1.655085 1_555
As3 O15 1.696003 1_555
As3 O1 1.696329 1_545
As3 O9 1.699915 1_555
As4 O17 1.655085 1_555
As4 O16 1.696003 1_555
As4 O3 1.696329 1_455
As4 O11 1.699914 1_555
As5 O21 1.655086 1_555
As5 O19 1.696003 1_555
As5 O0 1.696329 1_554
As5 O18 1.699915 1_555
