# generated using pymatgen
data_NbNi4Pt
_symmetry_space_group_name_H-M   'P 1'
_cell_length_a   4.69642126
_cell_length_b   4.69642151
_cell_length_c   4.69642065
_cell_angle_alpha   59.99999927
_cell_angle_beta   59.99999752
_cell_angle_gamma   60.00000010
_symmetry_Int_Tables_number   1
_chemical_formula_structural   NbNi4Pt
_chemical_formula_sum   'Nb1 Ni4 Pt1'
_cell_volume   73.24636808
_cell_formula_units_Z   1
loop_
 _symmetry_equiv_pos_site_id
 _symmetry_equiv_pos_as_xyz
  1  'x, y, z'
loop_
 _atom_site_type_symbol
 _atom_site_label
 _atom_site_symmetry_multiplicity
 _atom_site_fract_x
 _atom_site_fract_y
 _atom_site_fract_z
 _atom_site_occupancy
  Nb  Nb0  1  0.00000000  0.00000000  0.00000000  1
  Ni  Ni0  1  0.62479352  0.62479352  0.12561843  1
  Ni  Ni1  1  0.62479352  0.12561843  0.62479352  1
  Ni  Ni2  1  0.12561843  0.62479352  0.62479352  1
  Ni  Ni3  1  0.62479352  0.62479352  0.62479352  1
  Pt  Pt0  1  0.25000000  0.25000000  0.25000000  1
loop_
_geom_bond_atom_site_label_1
_geom_bond_atom_site_label_2
_geom_bond_distance
_geom_bond_site_symmetry_2
Nb0 Ni1 2.753933 1_455
Nb0 Ni2 2.753933 1_545
Nb0 Ni1 2.753933 1_554
Nb0 Ni0 2.753933 1_545
Nb0 Ni0 2.753934 1_455
Nb0 Ni2 2.753934 1_554
Nb0 Ni3 2.753935 1_445
Nb0 Ni3 2.753935 1_544
Nb0 Ni3 2.753936 1_454
Nb0 Ni1 2.753937 1_454
Nb0 Ni2 2.753937 1_544
Nb0 Ni0 2.753938 1_445
Nb0 Pt0 2.875958 1_554
Nb0 Pt0 2.875959 1_555
Nb0 Pt0 2.875959 1_455
Nb0 Pt0 2.875959 1_545
Ni0 Ni3 2.344336 1_555
Ni0 Ni2 2.344336 1_555
Ni0 Ni1 2.344336 1_555
Ni0 Ni3 2.352084 1_554
Ni0 Ni2 2.352085 1_654
Ni0 Ni1 2.352085 1_564
Ni0 Pt0 2.753107 1_555
Ni0 Pt0 2.753111 1_655
Ni0 Pt0 2.753111 1_565
Ni1 Ni2 2.344337 1_555
Ni1 Ni3 2.344337 1_555
Ni1 Ni2 2.352085 1_645
Ni1 Ni3 2.352085 1_545
Ni1 Pt0 2.753106 1_555
Ni1 Pt0 2.753110 1_556
Ni1 Pt0 2.753110 1_655
Ni2 Ni3 2.344337 1_555
Ni2 Ni3 2.352085 1_455
Ni2 Pt0 2.753106 1_555
Ni2 Pt0 2.753110 1_556
Ni2 Pt0 2.753111 1_565
Ni3 Pt0 2.753108 1_556
Ni3 Pt0 2.753108 1_655
Ni3 Pt0 2.753109 1_565
