# generated using pymatgen
data_CsP4RuO12
_symmetry_space_group_name_H-M   'P 1'
_cell_length_a   13.39689271
_cell_length_b   5.18793808
_cell_length_c   7.57167328
_cell_angle_alpha   79.06373300
_cell_angle_beta   90.00000000
_cell_angle_gamma   90.00000000
_symmetry_Int_Tables_number   1
_chemical_formula_structural   CsP4RuO12
_chemical_formula_sum   'Cs2 P8 Ru2 O24'
_cell_volume   516.69103905
_cell_formula_units_Z   2
loop_
 _symmetry_equiv_pos_site_id
 _symmetry_equiv_pos_as_xyz
  1  'x, y, z'
loop_
 _atom_site_type_symbol
 _atom_site_label
 _atom_site_symmetry_multiplicity
 _atom_site_fract_x
 _atom_site_fract_y
 _atom_site_fract_z
 _atom_site_occupancy
  Cs  Cs0  1  0.99974051  0.41311242  0.83202119  1
  Cs  Cs1  1  0.49974051  0.58688758  0.16797881  1
  P  P0  1  0.87009950  0.02531062  0.44396519  1
  P  P1  1  0.81912779  0.78789882  0.14399532  1
  P  P2  1  0.37009950  0.97468938  0.55603481  1
  P  P3  1  0.18196127  0.87811663  0.09998443  1
  P  P4  1  0.09781063  0.03369864  0.42793660  1
  P  P5  1  0.59781063  0.96630136  0.57206340  1
  P  P6  1  0.68196127  0.12188337  0.90001557  1
  P  P7  1  0.31912779  0.21210118  0.85600468  1
  Ru  Ru0  1  0.23418355  0.50560586  0.48750671  1
  Ru  Ru1  1  0.73418355  0.49439414  0.51249329  1
  O  O0  1  0.15451008  0.82031632  0.54434055  1
  O  O1  1  0.10465079  0.30417360  0.47127537  1
  O  O2  1  0.62099124  0.95047962  0.77783369  1
  O  O3  1  0.98458583  0.94966107  0.44793064  1
  O  O4  1  0.86292123  0.29298003  0.49179958  1
  O  O5  1  0.83891600  0.03783795  0.24212377  1
  O  O6  1  0.12099124  0.04952038  0.22216631  1
  O  O7  1  0.62090172  0.14832328  0.05505720  1
  O  O8  1  0.12090172  0.85167672  0.94494280  1
  O  O9  1  0.23414988  0.36832302  0.75501624  1
  O  O10  1  0.36292123  0.70701997  0.50820042  1
  O  O11  1  0.60465079  0.69582640  0.52872463  1
  O  O12  1  0.65451008  0.17968368  0.45565945  1
  O  O13  1  0.48458583  0.05033893  0.55206936  1
  O  O14  1  0.27631979  0.06693507  0.04362718  1
  O  O15  1  0.91313967  0.65858711  0.11743999  1
  O  O16  1  0.72646562  0.36030095  0.78073148  1
  O  O17  1  0.77631979  0.93306493  0.95637282  1
  O  O18  1  0.41313967  0.34141289  0.88256001  1
  O  O19  1  0.81928891  0.80667070  0.56814824  1
  O  O20  1  0.31928891  0.19332930  0.43185176  1
  O  O21  1  0.33891600  0.96216205  0.75787623  1
  O  O22  1  0.73414988  0.63167698  0.24498376  1
  O  O23  1  0.22646562  0.63969905  0.21926852  1
loop_
_geom_bond_atom_site_label_1
_geom_bond_atom_site_label_2
_geom_bond_distance
_geom_bond_site_symmetry_2
Cs0 O15 2.946601 1_556
Cs0 O8 3.046412 1_655
Cs0 O9 3.210483 1_655
Cs0 O1 3.215793 1_655
Cs0 O8 3.302213 1_645
Cs0 O4 3.315621 1_555
Cs0 O0 3.429378 1_655
Cs0 O19 3.529452 1_555
Cs0 O6 3.578946 1_656
Cs0 O3 3.629823 1_555
Cs0 O16 3.697219 1_555
Cs1 O18 2.946601 1_554
Cs1 O7 3.046412 1_555
Cs1 O22 3.210483 1_555
Cs1 O11 3.215793 1_555
Cs1 O7 3.302213 1_565
Cs1 O10 3.315621 1_555
Cs1 O12 3.429378 1_555
Cs1 O20 3.529452 1_555
Cs1 O2 3.578946 1_554
Cs1 O13 3.629823 1_555
Cs1 O23 3.697219 1_555
O0 P4 1.486296 1_565
O0 Ru0 2.063193 1_555
O1 P4 1.503257 1_555
O1 Ru0 2.041394 1_555
O2 P5 1.575467 1_555
O2 P6 1.620463 1_565
O3 P4 1.577600 1_665
O3 P0 1.582050 1_565
O4 P0 1.503203 1_555
O4 Ru1 2.037910 1_555
O5 P0 1.573751 1_555
O5 P1 1.633777 1_545
O6 P4 1.575467 1_555
O6 P3 1.620463 1_545
O7 P6 1.458475 1_554
O8 P3 1.458475 1_556
O9 P7 1.517383 1_555
O9 Ru0 2.015568 1_555
O10 P2 1.503203 1_555
O10 Ru0 2.037910 1_555
O11 P5 1.503257 1_555
O11 Ru1 2.041394 1_555
O12 P5 1.486296 1_545
O12 Ru1 2.063193 1_555
O13 P5 1.577600 1_545
O13 P2 1.582050 1_545
O14 P7 1.583753 1_554
O14 P3 1.606560 1_545
O15 P1 1.458740 1_555
O16 P6 1.509054 1_555
O16 Ru1 2.020779 1_555
O17 P1 1.583753 1_556
O17 P6 1.606560 1_565
O18 P7 1.458740 1_555
O19 P0 1.493119 1_565
O19 Ru1 2.088345 1_555
O20 P2 1.493119 1_545
O20 Ru0 2.088345 1_555
O21 P2 1.573751 1_555
O21 P7 1.633777 1_565
O22 P1 1.517383 1_555
O22 Ru1 2.015568 1_555
O23 P3 1.509054 1_555
O23 Ru0 2.020779 1_555
