# generated using pymatgen
data_Sr10TcPN10
_symmetry_space_group_name_H-M   'P 1'
_cell_length_a   7.56832017
_cell_length_b   7.56832028
_cell_length_c   8.88746675
_cell_angle_alpha   76.45151292
_cell_angle_beta   76.45151276
_cell_angle_gamma   96.28561185
_symmetry_Int_Tables_number   1
_chemical_formula_structural   Sr10TcPN10
_chemical_formula_sum   'Sr10 Tc1 P1 N10'
_cell_volume   473.79911357
_cell_formula_units_Z   1
loop_
 _symmetry_equiv_pos_site_id
 _symmetry_equiv_pos_as_xyz
  1  'x, y, z'
loop_
 _atom_site_type_symbol
 _atom_site_label
 _atom_site_symmetry_multiplicity
 _atom_site_fract_x
 _atom_site_fract_y
 _atom_site_fract_z
 _atom_site_occupancy
  Sr  Sr0  1  0.38594489  0.40156480  0.38177748  1
  Sr  Sr1  1  0.59843520  0.61405511  0.61822252  1
  Sr  Sr2  1  0.66942795  0.66812509  0.00970336  1
  Sr  Sr3  1  0.33187491  0.33057205  0.99029664  1
  Sr  Sr4  1  0.93537388  0.91584266  0.20307577  1
  Sr  Sr5  1  0.08415734  0.06462612  0.79692423  1
  Sr  Sr6  1  0.54637163  0.08475146  0.75374408  1
  Sr  Sr7  1  0.91524854  0.45362837  0.24625592  1
  Sr  Sr8  1  0.43208312  0.89384035  0.24333500  1
  Sr  Sr9  1  0.10615965  0.56791688  0.75666500  1
  Tc  Tc0  1  0.75702700  0.24297300  1.00000000  1
  P  P0  1  0.24213016  0.75786984  0.00000000  1
  N  N0  1  0.65841351  0.65948523  0.31523442  1
  N  N1  1  0.34051477  0.34158649  0.68476558  1
  N  N2  1  0.71898281  0.01302127  0.97807975  1
  N  N3  1  0.98697873  0.28101719  0.02192025  1
  N  N4  1  0.27920099  0.97604298  0.01133601  1
  N  N5  1  0.02395702  0.72079901  0.98866399  1
  N  N6  1  0.38984466  0.72960605  0.83807071  1
  N  N7  1  0.27039395  0.61015534  0.16192829  1
  N  N8  1  0.59103787  0.26355859  0.17495547  1
  N  N9  1  0.73644141  0.40896213  0.82504353  1
loop_
_geom_bond_atom_site_label_1
_geom_bond_atom_site_label_2
_geom_bond_distance
_geom_bond_site_symmetry_2
N0 Sr4 2.525088 1_555
N0 Sr0 2.533539 1_555
N0 Sr1 2.556313 1_555
N0 Sr7 2.670930 1_555
N0 Sr8 2.671236 1_555
N0 Sr2 2.682194 1_555
N1 Sr5 2.525088 1_555
N1 Sr1 2.533539 1_555
N1 Sr0 2.556313 1_555
N1 Sr6 2.670930 1_555
N1 Sr9 2.671236 1_555
N1 Sr3 2.682194 1_555
N2 Tc0 1.795851 1_555
N2 Sr2 2.534907 1_546
N2 Sr6 2.616295 1_555
N2 Sr8 2.694881 1_546
N2 Sr5 2.786973 1_655
N2 Sr4 2.886293 1_546
N3 Tc0 1.795851 1_554
N3 Sr3 2.534906 1_654
N3 Sr7 2.616295 1_555
N3 Sr9 2.694881 1_654
N3 Sr4 2.786973 1_545
N3 Sr5 2.886293 1_654
N4 P0 1.674840 1_555
N4 Sr6 2.567275 1_564
N4 Sr8 2.579070 1_555
N4 Sr3 2.624723 1_564
N4 Sr4 2.679898 1_455
N4 Sr5 2.682500 1_564
N5 P0 1.674840 1_556
N5 Sr7 2.567275 1_456
N5 Sr9 2.579070 1_555
N5 Sr2 2.624723 1_456
N5 Sr5 2.679898 1_565
N5 Sr4 2.682500 1_456
N6 P0 1.676149 1_556
N6 Sr1 2.594688 1_555
N6 Sr6 2.670689 1_565
N6 Sr9 2.682894 1_555
N6 Sr2 2.901028 1_556
N6 Sr3 2.942917 1_555
N7 P0 1.676143 1_555
N7 Sr0 2.594694 1_555
N7 Sr7 2.670689 1_455
N7 Sr8 2.682899 1_555
N7 Sr3 2.901023 1_554
N7 Sr2 2.942915 1_555
N8 Tc0 1.805919 1_554
N8 Sr0 2.607050 1_555
N8 Sr8 2.787439 1_545
N8 Sr3 2.851992 1_554
N8 Sr7 2.978987 1_555
N8 Sr2 2.995189 1_555
N9 Tc0 1.805925 1_555
N9 Sr1 2.607044 1_555
N9 Sr9 2.787440 1_655
N9 Sr2 2.851998 1_556
N9 Sr6 2.978983 1_555
N9 Sr3 2.995190 1_555
