# generated using pymatgen
data_KGaGeSe4
_symmetry_space_group_name_H-M   'P 1'
_cell_length_a   16.90399535
_cell_length_b   7.25735808
_cell_length_c   7.50995197
_cell_angle_alpha   69.16742775
_cell_angle_beta   90.00000000
_cell_angle_gamma   90.00000000
_symmetry_Int_Tables_number   1
_chemical_formula_structural   KGaGeSe4
_chemical_formula_sum   'K4 Ga4 Ge4 Se16'
_cell_volume   861.07670794
_cell_formula_units_Z   4
loop_
 _symmetry_equiv_pos_site_id
 _symmetry_equiv_pos_as_xyz
  1  'x, y, z'
loop_
 _atom_site_type_symbol
 _atom_site_label
 _atom_site_symmetry_multiplicity
 _atom_site_fract_x
 _atom_site_fract_y
 _atom_site_fract_z
 _atom_site_occupancy
  K  K0  1  0.39426929  0.97186788  0.18120039  1
  K  K1  1  0.89426929  0.02813212  0.81879961  1
  K  K2  1  0.60197783  0.50412684  0.82351671  1
  K  K3  1  0.10197783  0.49587316  0.17648329  1
  Ga  Ga0  1  0.58402243  0.15324665  0.48102605  1
  Ga  Ga1  1  0.08402243  0.84675335  0.51897395  1
  Ga  Ga2  1  0.27388595  0.60035689  0.71095481  1
  Ga  Ga3  1  0.77388595  0.39964311  0.28904519  1
  Ge  Ge0  1  0.42111850  0.33381522  0.53131045  1
  Ge  Ge1  1  0.92111850  0.66618478  0.46868955  1
  Ge  Ge2  1  0.72403210  0.90326049  0.27177470  1
  Ge  Ge3  1  0.22403210  0.09673951  0.72822530  1
  Se  Se0  1  0.59277901  0.86998855  0.38491090  1
  Se  Se1  1  0.09277901  0.13001145  0.61508910  1
  Se  Se2  1  0.41224086  0.61451585  0.61904280  1
  Se  Se3  1  0.91224086  0.38548415  0.38095720  1
  Se  Se4  1  0.79999110  0.77555407  0.55744353  1
  Se  Se5  1  0.29999110  0.22444593  0.44255647  1
  Se  Se6  1  0.20137653  0.73143404  0.42465675  1
  Se  Se7  1  0.70137653  0.26856596  0.57534325  1
  Se  Se8  1  0.76089091  0.22350819  0.07197584  1
  Se  Se9  1  0.26089091  0.77649181  0.92802416  1
  Se  Se10  1  0.24004795  0.27480316  0.93296162  1
  Se  Se11  1  0.74004795  0.72519684  0.06703838  1
  Se  Se12  1  0.99610613  0.91422298  0.24138055  1
  Se  Se13  1  0.49610613  0.08577702  0.75861945  1
  Se  Se14  1  0.99725842  0.60692978  0.74776949  1
  Se  Se15  1  0.49725842  0.39307022  0.25223051  1
loop_
_geom_bond_atom_site_label_1
_geom_bond_atom_site_label_2
_geom_bond_distance
_geom_bond_site_symmetry_2
K0 Se2 3.400698 1_555
K0 Se13 3.442708 1_564
K0 Se10 3.491404 1_564
K0 Se5 3.508764 1_565
K0 Se9 3.553376 1_554
K0 Se0 3.652764 1_555
K0 Se15 3.717434 1_565
K0 Se6 3.840609 1_555
K1 Se3 3.400698 1_555
K1 Se12 3.442708 1_546
K1 Se11 3.491404 1_546
K1 Se4 3.508764 1_545
K1 Se8 3.553376 1_556
K1 Se1 3.652764 1_655
K1 Se14 3.717434 1_545
K1 Se7 3.840609 1_555
K2 Se7 3.389051 1_555
K2 Se0 3.421002 1_555
K2 Se8 3.484585 1_556
K2 Se15 3.507614 1_556
K2 Se2 3.523022 1_555
K2 Se11 3.667826 1_556
K2 Se13 3.702821 1_555
K3 Se6 3.389051 1_555
K3 Se1 3.421002 1_555
K3 Se9 3.484585 1_554
K3 Se14 3.507614 1_454
K3 Se3 3.523022 1_455
K3 Se10 3.667826 1_554
K3 Se12 3.702821 1_455
Ga0 Se7 2.357766 1_555
Ga0 Se0 2.413356 1_545
Ga0 Se15 2.450634 1_555
Ga0 Se13 2.463398 1_555
Ga1 Se6 2.357766 1_555
Ga1 Se1 2.413356 1_565
Ga1 Se14 2.450634 1_455
Ga1 Se12 2.463398 1_455
Ga2 Se6 2.361215 1_555
Ga2 Se9 2.412861 1_555
Ga2 Se10 2.426368 1_555
Ga2 Se2 2.430291 1_555
Ga3 Se7 2.361215 1_555
Ga3 Se8 2.412861 1_555
Ga3 Se11 2.426368 1_555
Ga3 Se3 2.430291 1_555
Ge0 Se2 2.358233 1_555
Ge0 Se13 2.361266 1_555
Ge0 Se15 2.364974 1_555
Ge0 Se5 2.375499 1_555
Ge1 Se3 2.358233 1_555
Ge1 Se12 2.361266 1_555
Ge1 Se14 2.364974 1_555
Ge1 Se4 2.375499 1_555
Ge2 Se11 2.349600 1_555
Ge2 Se0 2.357311 1_555
Ge2 Se8 2.358148 1_565
Ge2 Se4 2.386622 1_555
Ge3 Se10 2.349600 1_555
Ge3 Se1 2.357311 1_555
Ge3 Se9 2.358148 1_545
Ge3 Se5 2.386622 1_555
