# generated using pymatgen
data_Li9ZnNiN4
_symmetry_space_group_name_H-M   'P 1'
_cell_length_a   5.16889133
_cell_length_b   8.47327022
_cell_length_c   6.18986069
_cell_angle_alpha   86.67849366
_cell_angle_beta   54.87090631
_cell_angle_gamma   57.44026951
_symmetry_Int_Tables_number   1
_chemical_formula_structural   Li9ZnNiN4
_chemical_formula_sum   'Li9 Zn1 Ni1 N4'
_cell_volume   173.96564343
_cell_formula_units_Z   1
loop_
 _symmetry_equiv_pos_site_id
 _symmetry_equiv_pos_as_xyz
  1  'x, y, z'
loop_
 _atom_site_type_symbol
 _atom_site_label
 _atom_site_symmetry_multiplicity
 _atom_site_fract_x
 _atom_site_fract_y
 _atom_site_fract_z
 _atom_site_occupancy
  Li  Li0  1  0.89319763  0.05590373  0.95066478  1
  Li  Li1  1  0.50052042  0.74895633  0.54720187  1
  Li  Li2  1  0.70162754  0.40079095  0.24525825  1
  Li  Li3  1  0.46564930  0.76536459  0.19944507  1
  Li  Li4  1  0.45717893  0.27436276  0.74247212  1
  Li  Li5  1  0.20088001  0.66116324  0.00630512  1
  Li  Li6  1  0.19337734  0.14435135  0.49311339  1
  Li  Li7  1  0.92864784  0.03896771  0.29846923  1
  Li  Li8  1  0.93713073  0.53256922  0.75258656  1
  Zn  Zn0  1  0.69588367  0.90334101  0.74958979  1
  Ni  Ni0  1  0.19764742  0.40259127  0.24797863  1
  N  N0  1  0.95829569  0.52807276  0.09956984  1
  N  N1  1  0.43732068  0.27716920  0.39632956  1
  N  N2  1  0.00232373  0.98919887  0.58667789  1
  N  N3  1  0.39153208  0.81647800  0.91093691  1
loop_
_geom_bond_atom_site_label_1
_geom_bond_atom_site_label_2
_geom_bond_distance
_geom_bond_site_symmetry_2
Li0 N2 2.013859 1_645
Li0 N3 2.124919 1_645
Li0 N1 2.245163 1_556
Li1 N3 2.014068 1_555
Li1 N2 2.127440 1_555
Li1 N0 2.251231 1_555
Li2 N0 1.946021 1_555
Li2 N1 1.947988 1_555
Li3 N0 1.931480 1_555
Li3 N3 2.010636 1_554
Li3 N2 2.027162 1_555
Li4 N0 2.044747 1_456
Li4 N2 2.126653 1_645
Li4 N1 2.201430 1_555
Li5 N3 1.920400 1_554
Li5 N0 1.946986 1_455
Li6 N2 1.920913 1_545
Li6 N1 1.948145 1_555
Li7 N1 1.935032 1_555
Li7 N2 2.006798 1_645
Li7 N3 2.024029 1_644
Li8 N1 2.049354 1_655
Li8 N3 2.119154 1_555
Li8 N0 2.209708 1_556
N0 Ni0 1.812149 1_655
N1 Ni0 1.812838 1_555
N2 Zn0 1.836340 1_455
N3 Zn0 1.834925 1_555
