# generated using pymatgen
data_RbRe2Mo4Se7
_symmetry_space_group_name_H-M   'P 1'
_cell_length_a   9.87506551
_cell_length_b   9.86610627
_cell_length_c   9.87909529
_cell_angle_alpha   60.54717143
_cell_angle_beta   60.52660373
_cell_angle_gamma   60.73781535
_symmetry_Int_Tables_number   1
_chemical_formula_structural   RbRe2Mo4Se7
_chemical_formula_sum   'Rb2 Re4 Mo8 Se14'
_cell_volume   689.87004620
_cell_formula_units_Z   2
loop_
 _symmetry_equiv_pos_site_id
 _symmetry_equiv_pos_as_xyz
  1  'x, y, z'
loop_
 _atom_site_type_symbol
 _atom_site_label
 _atom_site_symmetry_multiplicity
 _atom_site_fract_x
 _atom_site_fract_y
 _atom_site_fract_z
 _atom_site_occupancy
  Rb  Rb0  1  0.12027496  0.12522902  0.12679848  1
  Rb  Rb1  1  0.87783889  0.88269316  0.87999893  1
  Re  Re0  1  0.61153477  0.30624122  0.44081327  1
  Re  Re1  1  0.30702016  0.44055140  0.61099173  1
  Re  Re2  1  0.44166090  0.61089874  0.30689834  1
  Re  Re3  1  0.38886795  0.69405424  0.55894320  1
  Mo  Mo0  1  0.69667009  0.55962120  0.38671623  1
  Mo  Mo1  1  0.55926164  0.38644077  0.69613536  1
  Mo  Mo2  1  0.37603647  0.20369945  0.50360989  1
  Mo  Mo3  1  0.20550808  0.50349463  0.37559406  1
  Mo  Mo4  1  0.50493575  0.37523454  0.20417240  1
  Mo  Mo5  1  0.62530533  0.79462655  0.49610678  1
  Mo  Mo6  1  0.79612196  0.49574210  0.62375576  1
  Mo  Mo7  1  0.49702749  0.62279532  0.79522717  1
  Se  Se0  1  0.66960897  0.31252687  0.91849173  1
  Se  Se1  1  0.08473549  0.32875362  0.68906347  1
  Se  Se2  1  0.27673136  0.27743083  0.27657402  1
  Se  Se3  1  0.72358001  0.72326723  0.72323271  1
  Se  Se4  1  0.85675043  0.25202247  0.51852866  1
  Se  Se5  1  0.25054476  0.52476179  0.85335558  1
  Se  Se6  1  0.51384388  0.85877307  0.25655967  1
  Se  Se7  1  0.14586750  0.74152535  0.48007029  1
  Se  Se8  1  0.73973533  0.47905702  0.14290639  1
  Se  Se9  1  0.47604432  0.14317253  0.73992558  1
  Se  Se10  1  0.33292149  0.68803237  0.08344870  1
  Se  Se11  1  0.68930413  0.08338606  0.33032465  1
  Se  Se12  1  0.91964620  0.67056932  0.31264917  1
  Se  Se13  1  0.31262167  0.91539813  0.66910779  1
loop_
_geom_bond_atom_site_label_1
_geom_bond_atom_site_label_2
_geom_bond_distance
_geom_bond_site_symmetry_2
Rb0 Se8 3.669662 1_455
Rb0 Se7 3.676278 1_545
Rb0 Se2 3.678873 1_555
Rb0 Se9 3.702846 1_554
Rb0 Se11 3.847905 1_455
Rb0 Se4 3.870612 1_455
Rb0 Se1 3.888571 1_554
Rb0 Se6 3.906337 1_545
Rb0 Se10 3.908366 1_545
Rb0 Se5 3.944148 1_554
Rb1 Se4 3.642335 1_565
Rb1 Se5 3.652470 1_655
Rb1 Se6 3.690875 1_556
Rb1 Se3 3.775255 1_555
Rb1 Se0 3.827345 1_565
Rb1 Se13 3.843154 1_655
Rb1 Se12 3.861873 1_556
Rb1 Se7 4.009046 1_655
Rb1 Se8 4.014576 1_556
Rb1 Se9 4.024866 1_565
Re0 Se11 2.549521 1_555
Re0 Se9 2.578563 1_555
Re0 Se8 2.584657 1_555
Re0 Se4 2.626520 1_555
Re0 Re2 2.634944 1_555
Re0 Re1 2.635428 1_555
Re1 Se1 2.548379 1_555
Re1 Se9 2.577988 1_555
Re1 Se7 2.579089 1_555
Re1 Re2 2.627969 1_555
Re1 Se5 2.631245 1_555
Re1 Re3 2.734169 1_555
Re2 Se10 2.546922 1_555
Re2 Se8 2.572467 1_555
Re2 Se7 2.586595 1_555
Re2 Se6 2.625931 1_555
Re2 Re3 2.730984 1_555
Re3 Se13 2.538467 1_555
Re3 Se6 2.578111 1_555
Re3 Se5 2.580431 1_555
Re3 Se7 2.639532 1_555
Mo0 Se12 2.562260 1_555
Mo0 Se4 2.618003 1_555
Mo0 Se6 2.639502 1_555
Mo0 Mo6 2.655572 1_555
Mo0 Re3 2.661194 1_555
Mo0 Mo1 2.674551 1_555
Mo0 Mo5 2.675373 1_555
Mo0 Se8 2.675523 1_555
Mo0 Re2 2.745075 1_555
Mo0 Re0 2.745987 1_555
Mo1 Se0 2.558887 1_555
Mo1 Se4 2.622005 1_555
Mo1 Se5 2.631820 1_555
Mo1 Mo7 2.650592 1_555
Mo1 Re3 2.661902 1_555
Mo1 Se9 2.679604 1_555
Mo1 Mo6 2.684573 1_555
Mo1 Re1 2.741759 1_555
Mo1 Re0 2.745355 1_555
Mo2 Se2 2.526648 1_555
Mo2 Mo4 2.590855 1_555
Mo2 Se1 2.592471 1_555
Mo2 Mo3 2.594518 1_555
Mo2 Re0 2.660785 1_555
Mo2 Se9 2.665231 1_555
Mo2 Se11 2.665853 1_555
Mo2 Re1 2.686996 1_555
Mo2 Se13 2.704888 1_545
Mo3 Se2 2.522134 1_555
Mo3 Se10 2.593504 1_555
Mo3 Mo4 2.595051 1_555
Mo3 Re1 2.657771 1_555
Mo3 Se1 2.666471 1_555
Mo3 Re2 2.678253 1_555
Mo3 Se12 2.691269 1_455
Mo3 Se7 2.713055 1_555
Mo4 Se2 2.526281 1_555
Mo4 Se11 2.595711 1_555
Mo4 Se10 2.661004 1_555
Mo4 Re2 2.665057 1_555
Mo4 Se8 2.668892 1_555
Mo4 Re0 2.681972 1_555
Mo4 Se0 2.685091 1_554
Mo5 Se3 2.528522 1_555
Mo5 Mo7 2.588489 1_555
Mo5 Mo6 2.589341 1_555
Mo5 Se12 2.598276 1_555
Mo5 Re3 2.655988 1_555
Mo5 Se13 2.662308 1_555
Mo5 Se11 2.711323 1_565
Mo5 Se6 2.760753 1_555
Mo6 Se3 2.534295 1_555
Mo6 Mo7 2.590327 1_555
Mo6 Se0 2.599725 1_555
Mo6 Se12 2.657735 1_555
Mo6 Se1 2.725294 1_655
Mo6 Se4 2.767559 1_555
Mo7 Se3 2.530322 1_555
Mo7 Se13 2.599721 1_555
Mo7 Se0 2.652198 1_555
Mo7 Re3 2.681290 1_555
Mo7 Se10 2.718433 1_556
Mo7 Se5 2.751297 1_555
