# generated using pymatgen
data_Ca4Cu(Si2Pt)5
_symmetry_space_group_name_H-M   'P 1'
_cell_length_a   8.20791515
_cell_length_b   8.20791458
_cell_length_c   8.20791487
_cell_angle_alpha   138.16890232
_cell_angle_beta   104.27273733
_cell_angle_gamma   90.47830702
_symmetry_Int_Tables_number   1
_chemical_formula_structural   Ca4Cu(Si2Pt)5
_chemical_formula_sum   'Ca4 Cu1 Si10 Pt5'
_cell_volume   341.26895058
_cell_formula_units_Z   1
loop_
 _symmetry_equiv_pos_site_id
 _symmetry_equiv_pos_as_xyz
  1  'x, y, z'
loop_
 _atom_site_type_symbol
 _atom_site_label
 _atom_site_symmetry_multiplicity
 _atom_site_fract_x
 _atom_site_fract_y
 _atom_site_fract_z
 _atom_site_occupancy
  Ca  Ca0  1  0.63662936  0.37454745  0.26698815  1
  Ca  Ca1  1  0.36337064  0.63035879  0.73791809  1
  Ca  Ca2  1  0.10756030  0.86964121  0.23301185  1
  Ca  Ca3  1  0.89243970  0.12545255  0.76208191  1
  Cu  Cu0  1  0.50000000  0.25000000  0.75000000  1
  Si  Si0  1  0.46427855  0.11837050  0.35823895  1
  Si  Si1  1  0.53572145  0.89395940  0.65409195  1
  Si  Si2  1  0.76013255  0.60604060  0.14176105  1
  Si  Si3  1  0.23986745  0.38162950  0.84590805  1
  Si  Si4  1  0.27257477  0.52257477  0.25000000  1
  Si  Si5  1  0.73097727  0.48097727  0.75000000  1
  Si  Si6  1  0.72742523  0.97742523  0.25000000  1
  Si  Si7  1  0.26902273  0.01902273  0.75000000  1
  Si  Si8  1  0.00000000  0.25000000  0.25000000  1
  Si  Si9  1  0.00000000  0.75000000  0.75000000  1
  Pt  Pt0  1  0.50000000  0.75000000  0.25000000  1
  Pt  Pt1  1  0.25217205  0.13854768  0.11829841  1
  Pt  Pt2  1  0.74782795  0.86612537  0.88637563  1
  Pt  Pt3  1  0.02025127  0.63387463  0.38170159  1
  Pt  Pt4  1  0.97974873  0.36145232  0.61362437  1
loop_
_geom_bond_atom_site_label_1
_geom_bond_atom_site_label_2
_geom_bond_distance
_geom_bond_site_symmetry_2
Ca0 Si2 3.014362 1_555
Ca0 Pt1 3.110543 1_555
Ca0 Si0 3.130991 1_555
Ca0 Si1 3.142002 1_544
Ca0 Si9 3.149473 1_655
Ca0 Si8 3.162819 1_655
Ca0 Pt2 3.168734 1_555
Ca0 Pt2 3.169997 1_544
Ca0 Si1 3.182315 1_555
Ca0 Si5 3.223983 1_555
Ca0 Si4 3.245337 1_555
Ca0 Si6 3.257906 1_545
Ca0 Si7 3.273013 1_554
Ca0 Pt3 3.281978 1_655
Ca0 Pt0 3.375617 1_555
Ca0 Cu0 3.388073 1_554
Ca0 Pt4 3.542296 1_555
Ca1 Si3 3.014355 1_555
Ca1 Pt2 3.110540 1_555
Ca1 Si1 3.130984 1_555
Ca1 Si0 3.142001 1_555
Ca1 Si9 3.149473 1_555
Ca1 Si8 3.162820 1_555
Ca1 Pt1 3.168734 1_566
Ca1 Pt1 3.169993 1_555
Ca1 Si0 3.182320 1_566
Ca1 Si7 3.223983 1_565
Ca1 Si6 3.245337 1_556
Ca1 Si4 3.257906 1_555
Ca1 Si5 3.273013 1_555
Ca1 Pt4 3.281974 1_455
Ca1 Pt0 3.375617 1_556
Ca1 Cu0 3.388073 1_555
Ca1 Pt3 3.542301 1_555
Ca2 Si0 3.014344 1_565
Ca2 Pt3 3.110533 1_555
Ca2 Si2 3.130987 1_455
Ca2 Si3 3.142002 1_565
Ca2 Si9 3.149472 1_554
Ca2 Si8 3.162822 1_565
Ca2 Pt4 3.168733 1_454
Ca2 Pt4 3.170007 1_465
Ca2 Si3 3.182310 1_554
Ca2 Si5 3.223989 1_454
Ca2 Si4 3.245334 1_555
Ca2 Si6 3.257914 1_455
Ca2 Si7 3.273012 1_565
Ca2 Pt1 3.281956 1_565
Ca2 Pt0 3.375610 1_555
Ca2 Cu0 3.388068 1_565
Ca2 Pt2 3.542306 1_454
Ca3 Si1 3.014347 1_545
Ca3 Pt4 3.110540 1_555
Ca3 Si3 3.130992 1_655
Ca3 Si2 3.141995 1_556
Ca3 Si9 3.149475 1_645
Ca3 Si8 3.162819 1_656
Ca3 Pt3 3.168744 1_645
Ca3 Pt3 3.169992 1_656
Ca3 Si2 3.182320 1_545
Ca3 Si7 3.223991 1_655
Ca3 Si6 3.245336 1_545
Ca3 Si4 3.257911 1_656
Ca3 Si5 3.273009 1_555
Ca3 Pt2 3.281963 1_545
Ca3 Pt0 3.375612 1_545
Ca3 Cu0 3.388066 1_555
Ca3 Pt1 3.542311 1_656
Cu0 Si0 2.438362 1_555
Cu0 Si2 2.438368 1_556
Cu0 Si1 2.438370 1_545
Cu0 Si3 2.438370 1_555
Cu0 Si7 2.669911 1_555
Cu0 Si5 2.669911 1_555
Cu0 Pt0 2.930156 1_556
Cu0 Pt0 2.930156 1_545
Si0 Si5 2.479574 1_555
Si0 Si6 2.499795 1_545
Si1 Si7 2.479575 1_565
Si1 Si4 2.499793 1_555
Si2 Si5 2.479567 1_554
Si2 Si6 2.499789 1_555
Si3 Si7 2.479575 1_555
Si3 Si4 2.499793 1_556
Pt0 Si0 2.481401 1_565
Pt0 Si1 2.481406 1_555
Pt0 Si3 2.481406 1_554
Pt0 Si2 2.481407 1_555
Pt0 Si6 2.628852 1_555
Pt0 Si4 2.628852 1_555
Pt1 Si0 2.395246 1_555
Pt1 Si7 2.430797 1_554
Pt1 Si8 2.439401 1_555
Pt1 Si4 2.440546 1_555
Pt1 Si9 2.455797 1_544
Pt2 Si1 2.395246 1_555
Pt2 Si5 2.430789 1_555
Pt2 Si8 2.439404 1_666
Pt2 Si6 2.440541 1_556
Pt2 Si9 2.455796 1_655
Pt3 Si2 2.395252 1_455
Pt3 Si7 2.430785 1_565
Pt3 Si8 2.439408 1_555
Pt3 Si4 2.440531 1_555
Pt3 Si9 2.455807 1_555
Pt4 Si3 2.395252 1_655
Pt4 Si5 2.430781 1_555
Pt4 Si8 2.439407 1_655
Pt4 Si6 2.440537 1_545
Pt4 Si9 2.455795 1_655
