# generated using pymatgen
data_Ti3(NbSi2)2
_symmetry_space_group_name_H-M   'P 1'
_cell_length_a   6.67977046
_cell_length_b   6.66447855
_cell_length_c   6.48685576
_cell_angle_alpha   90.00000000
_cell_angle_beta   109.14634965
_cell_angle_gamma   90.00000000
_symmetry_Int_Tables_number   1
_chemical_formula_structural   Ti3(NbSi2)2
_chemical_formula_sum   'Ti6 Nb4 Si8'
_cell_volume   272.80257690
_cell_formula_units_Z   2
loop_
 _symmetry_equiv_pos_site_id
 _symmetry_equiv_pos_as_xyz
  1  'x, y, z'
loop_
 _atom_site_type_symbol
 _atom_site_label
 _atom_site_symmetry_multiplicity
 _atom_site_fract_x
 _atom_site_fract_y
 _atom_site_fract_z
 _atom_site_occupancy
  Ti  Ti0  1  0.50000000  0.50000000  0.00000000  1
  Ti  Ti1  1  0.74998607  0.17778935  0.25541207  1
  Ti  Ti2  1  0.25001493  0.67779035  0.24458893  1
  Ti  Ti3  1  0.50000000  0.00000000  0.49999900  1
  Ti  Ti4  1  0.74998607  0.32221065  0.75541207  1
  Ti  Ti5  1  0.25001393  0.82221065  0.74458793  1
  Nb  Nb0  1  0.18909683  0.17191201  0.05736490  1
  Nb  Nb1  1  0.81090317  0.67191201  0.44263510  1
  Nb  Nb2  1  0.18909683  0.32808799  0.55736590  1
  Nb  Nb3  1  0.81090317  0.82808699  0.94263510  1
  Si  Si0  1  0.92606199  0.46557728  0.14815890  1
  Si  Si1  1  0.51164218  0.87352175  0.13134026  1
  Si  Si2  1  0.48835782  0.37352175  0.36865974  1
  Si  Si3  1  0.07393801  0.96557728  0.35184110  1
  Si  Si4  1  0.92606199  0.03442272  0.64815790  1
  Si  Si5  1  0.51164318  0.62647925  0.63134026  1
  Si  Si6  1  0.48835782  0.12647925  0.86865874  1
  Si  Si7  1  0.07393701  0.53442272  0.85184210  1
loop_
_geom_bond_atom_site_label_1
_geom_bond_atom_site_label_2
_geom_bond_distance
_geom_bond_site_symmetry_2
Nb0 Si3 2.663738 1_545
Nb0 Si6 2.681649 1_554
Nb0 Si2 2.689070 1_555
Nb0 Si7 2.744670 1_554
Nb0 Si4 2.813096 1_454
Nb0 Si0 2.818355 1_455
Nb0 Si1 2.854587 1_545
Nb1 Si0 2.663738 1_555
Nb1 Si5 2.681638 1_555
Nb1 Si1 2.689070 1_555
Nb1 Si4 2.744669 1_565
Nb1 Si7 2.813094 1_655
Nb1 Si3 2.818355 1_655
Nb1 Si2 2.854587 1_555
Nb2 Si7 2.663741 1_555
Nb2 Si2 2.681650 1_555
Nb2 Si6 2.689060 1_555
Nb2 Si3 2.744674 1_545
Nb2 Si0 2.813096 1_455
Nb2 Si4 2.818350 1_455
Nb2 Si5 2.854596 1_555
Nb3 Si4 2.663746 1_565
Nb3 Si1 2.681646 1_556
Nb3 Si5 2.689060 1_555
Nb3 Si0 2.744665 1_556
Nb3 Si3 2.813093 1_656
Nb3 Si7 2.818343 1_655
Nb3 Si6 2.854595 1_565
Si0 Ti1 2.466312 1_555
Si0 Si7 2.475151 1_654
Si0 Ti2 2.487204 1_655
Si0 Ti4 2.611780 1_554
Si0 Ti0 2.698478 1_555
Si1 Si6 2.365566 1_564
Si1 Ti2 2.477409 1_555
Si1 Ti1 2.540447 1_565
Si1 Ti3 2.560763 1_565
Si1 Ti5 2.566940 1_554
Si1 Ti0 2.623970 1_555
Si2 Si5 2.365560 1_555
Si2 Ti1 2.477415 1_555
Si2 Ti2 2.540448 1_555
Si2 Ti0 2.560769 1_555
Si2 Ti4 2.566940 1_555
Si2 Ti3 2.623968 1_555
Si3 Ti2 2.466308 1_555
Si3 Si4 2.475156 1_465
Si3 Ti1 2.487196 1_465
Si3 Ti5 2.611780 1_555
Si3 Ti3 2.698478 1_565
Si4 Ti4 2.466315 1_555
Si4 Ti5 2.487195 1_645
Si4 Ti1 2.611775 1_555
Si4 Ti3 2.698478 1_555
Si5 Ti5 2.477417 1_555
Si5 Ti4 2.540448 1_555
Si5 Ti0 2.560774 1_556
Si5 Ti2 2.566935 1_555
Si5 Ti3 2.623965 1_565
Si6 Ti4 2.477408 1_555
Si6 Ti5 2.540451 1_545
Si6 Ti3 2.560771 1_555
Si6 Ti1 2.566944 1_556
Si6 Ti0 2.623965 1_556
Si7 Ti5 2.466318 1_555
Si7 Ti4 2.487190 1_455
Si7 Ti2 2.611784 1_556
Si7 Ti0 2.698484 1_556
