# generated using pymatgen
data_LiLu3Sb6Rh7
_symmetry_space_group_name_H-M   'P 1'
_cell_length_a   7.45792622
_cell_length_b   7.45789570
_cell_length_c   7.45791076
_cell_angle_alpha   109.54547405
_cell_angle_beta   109.54584166
_cell_angle_gamma   109.54589740
_symmetry_Int_Tables_number   1
_chemical_formula_structural   LiLu3Sb6Rh7
_chemical_formula_sum   'Li1 Lu3 Sb6 Rh7'
_cell_volume   318.43858438
_cell_formula_units_Z   1
loop_
 _symmetry_equiv_pos_site_id
 _symmetry_equiv_pos_as_xyz
  1  'x, y, z'
loop_
 _atom_site_type_symbol
 _atom_site_label
 _atom_site_symmetry_multiplicity
 _atom_site_fract_x
 _atom_site_fract_y
 _atom_site_fract_z
 _atom_site_occupancy
  Li  Li0  1  0.50000000  0.50000000  0.50000000  1
  Lu  Lu0  1  0.50000000  0.00000000  0.00000000  1
  Lu  Lu1  1  0.00000000  0.50000000  0.00000000  1
  Lu  Lu2  1  0.00000000  0.00000000  0.50000000  1
  Sb  Sb0  1  0.32265328  0.01454079  0.32265242  1
  Sb  Sb1  1  0.98546269  0.67734639  0.67734437  1
  Sb  Sb2  1  0.67734632  0.67734961  0.98546151  1
  Sb  Sb3  1  0.67734672  0.98545921  0.67734758  1
  Sb  Sb4  1  0.01453731  0.32265361  0.32265563  1
  Sb  Sb5  1  0.32265368  0.32265039  0.01453849  1
  Rh  Rh0  1  0.24422770  0.50000377  0.75574665  1
  Rh  Rh1  1  0.49998534  0.24422387  0.75576111  1
  Rh  Rh2  1  0.75577126  0.24424062  0.49998244  1
  Rh  Rh3  1  0.50001466  0.75577613  0.24423889  1
  Rh  Rh4  1  0.00000000  0.00000000  0.00000000  1
  Rh  Rh5  1  0.24422874  0.75575938  0.50001756  1
  Rh  Rh6  1  0.75577230  0.49999623  0.24425335  1
loop_
_geom_bond_atom_site_label_1
_geom_bond_atom_site_label_2
_geom_bond_distance
_geom_bond_site_symmetry_2
Li0 Sb0 3.004656 1_555
Li0 Sb3 3.004656 1_555
Li0 Sb5 3.004678 1_555
Li0 Sb2 3.004678 1_555
Li0 Sb1 3.004691 1_555
Li0 Sb4 3.004691 1_555
Li0 Rh6 3.116259 1_555
Li0 Rh0 3.116259 1_555
Li0 Rh2 3.116328 1_555
Li0 Rh5 3.116328 1_555
Li0 Rh1 3.116357 1_555
Li0 Rh3 3.116357 1_555
Lu0 Rh3 2.975784 1_545
Lu0 Rh1 2.975784 1_554
Lu0 Rh2 3.038381 1_555
Lu0 Rh5 3.038381 1_544
Lu0 Rh6 3.038455 1_555
Lu0 Rh0 3.038455 1_544
Lu0 Sb5 3.098764 1_555
Lu0 Sb2 3.098764 1_544
Lu0 Sb3 3.098782 1_544
Lu0 Sb0 3.098782 1_555
Lu0 Sb4 3.174042 1_655
Lu0 Sb1 3.174042 1_444
Lu1 Rh6 2.975908 1_455
Lu1 Rh0 2.975908 1_554
Lu1 Rh3 3.038576 1_555
Lu1 Rh1 3.038576 1_454
Lu1 Rh5 3.038595 1_555
Lu1 Rh2 3.038595 1_454
Lu1 Sb4 3.098793 1_555
Lu1 Sb1 3.098793 1_454
Lu1 Sb5 3.098807 1_555
Lu1 Sb2 3.098807 1_454
Lu1 Sb0 3.174054 1_565
Lu1 Sb3 3.174054 1_444
Lu2 Rh2 2.975835 1_455
Lu2 Rh5 2.975835 1_545
Lu2 Rh1 3.038398 1_555
Lu2 Rh3 3.038398 1_445
Lu2 Rh6 3.038503 1_445
Lu2 Rh0 3.038503 1_555
Lu2 Sb4 3.098766 1_555
Lu2 Sb1 3.098766 1_445
Lu2 Sb0 3.098794 1_555
Lu2 Sb3 3.098794 1_445
Lu2 Sb5 3.174047 1_556
Lu2 Sb2 3.174047 1_444
Rh0 Sb4 2.653233 1_555
Rh0 Sb2 2.653422 1_555
Rh0 Sb1 2.699220 1_455
Rh0 Sb5 2.699463 1_556
Rh1 Sb0 2.653358 1_555
Rh1 Sb2 2.653440 1_555
Rh1 Sb5 2.699259 1_556
Rh1 Sb3 2.699344 1_545
Rh2 Sb1 2.653308 1_555
Rh2 Sb0 2.653424 1_555
Rh2 Sb4 2.699144 1_655
Rh2 Sb3 2.699468 1_545
Rh3 Sb3 2.653358 1_555
Rh3 Sb5 2.653440 1_555
Rh3 Sb2 2.699259 1_554
Rh3 Sb0 2.699344 1_565
Rh4 Sb5 2.714555 1_555
Rh4 Sb2 2.714555 1_444
Rh4 Sb0 2.714558 1_555
Rh4 Sb3 2.714558 1_444
Rh4 Sb4 2.714594 1_555
Rh4 Sb1 2.714594 1_444
Rh5 Sb4 2.653308 1_555
Rh5 Sb3 2.653424 1_555
Rh5 Sb1 2.699144 1_455
Rh5 Sb0 2.699468 1_565
Rh6 Sb1 2.653233 1_555
Rh6 Sb5 2.653422 1_555
Rh6 Sb4 2.699220 1_655
Rh6 Sb2 2.699463 1_554
