# generated using pymatgen
data_Nd2Mo2O7
_symmetry_space_group_name_H-M   'P 1'
_cell_length_a   7.41365880
_cell_length_b   7.41365880
_cell_length_c   7.41365880
_cell_angle_alpha   120.00231170
_cell_angle_beta   120.00231170
_cell_angle_gamma   89.99599606
_symmetry_Int_Tables_number   1
_chemical_formula_structural   Nd2Mo2O7
_chemical_formula_sum   'Nd4 Mo4 O14'
_cell_volume   288.11615503
_cell_formula_units_Z   2
loop_
 _symmetry_equiv_pos_site_id
 _symmetry_equiv_pos_as_xyz
  1  'x, y, z'
loop_
 _atom_site_type_symbol
 _atom_site_label
 _atom_site_symmetry_multiplicity
 _atom_site_fract_x
 _atom_site_fract_y
 _atom_site_fract_z
 _atom_site_occupancy
  Nd  Nd0  1  0.37500000  0.62500000  0.75000000  1
  Nd  Nd1  1  0.37500000  0.62500000  0.25000000  1
  Nd  Nd2  1  0.87500000  0.62500000  0.25000000  1
  Nd  Nd3  1  0.37500000  0.12500000  0.75000000  1
  Mo  Mo0  1  0.87500000  0.62500000  0.75000000  1
  Mo  Mo1  1  0.37500000  0.12500000  0.25000000  1
  Mo  Mo2  1  0.87500000  0.12500000  0.25000000  1
  Mo  Mo3  1  0.87500000  0.12500000  0.75000000  1
  O  O0  1  0.79363283  0.20635327  0.00001603  1
  O  O1  1  0.54366276  0.45638320  0.50001603  1
  O  O2  1  0.20635113  0.20635113  0.00000000  1
  O  O3  1  0.95635113  0.45635113  0.50000000  1
  O  O4  1  0.79364673  0.79366276  0.58727956  1
  O  O5  1  0.54361680  0.04363283  0.08727956  1
  O  O6  1  0.25000000  0.75000000  0.50000000  1
  O  O7  1  0.95635327  0.45633724  0.91272044  1
  O  O8  1  0.95636717  0.04364673  0.49998397  1
  O  O9  1  0.54364887  0.04364887  0.50000000  1
  O  O10  1  0.20638320  0.20636717  0.41272044  1
  O  O11  1  0.50000000  0.50000000  0.00000000  1
  O  O12  1  0.79364887  0.79364887  -0.00000000  1
  O  O13  1  0.20633724  0.79361680  0.99998397  1
loop_
_geom_bond_atom_site_label_1
_geom_bond_atom_site_label_2
_geom_bond_distance
_geom_bond_site_symmetry_2
Nd0 O6 2.269934 1_555
Nd0 O11 2.269934 1_556
Nd0 O5 2.561430 1_566
Nd0 O10 2.561430 1_555
Nd0 O1 2.561505 1_555
Nd0 O13 2.561505 1_555
Nd0 O12 2.561572 1_556
Nd0 O3 2.561572 1_455
Nd1 O6 2.269934 1_555
Nd1 O11 2.269934 1_555
Nd1 O13 2.561430 1_554
Nd1 O1 2.561430 1_555
Nd1 O4 2.561505 1_555
Nd1 O7 2.561505 1_454
Nd1 O9 2.561572 1_565
Nd1 O2 2.561572 1_555
Nd2 O6 2.269934 1_655
Nd2 O11 2.269934 1_555
Nd2 O4 2.561430 1_555
Nd2 O7 2.561430 1_554
Nd2 O8 2.561505 1_565
Nd2 O0 2.561505 1_555
Nd2 O3 2.561572 1_555
Nd2 O12 2.561572 1_555
Nd3 O6 2.269934 1_545
Nd3 O11 2.269934 1_556
Nd3 O8 2.561430 1_455
Nd3 O0 2.561430 1_556
Nd3 O10 2.561505 1_555
Nd3 O5 2.561505 1_556
Nd3 O9 2.561572 1_555
Nd3 O2 2.561572 1_556
Mo0 O1 2.040125 1_555
Mo0 O13 2.040125 1_655
Mo0 O12 2.040206 1_556
Mo0 O3 2.040206 1_555
Mo0 O7 2.040434 1_555
Mo0 O4 2.040434 1_555
Mo1 O10 2.040125 1_555
Mo1 O5 2.040125 1_555
Mo1 O2 2.040206 1_555
Mo1 O9 2.040206 1_555
Mo1 O13 2.040434 1_544
Mo1 O1 2.040434 1_555
Mo2 O8 2.040125 1_555
Mo2 O0 2.040125 1_555
Mo2 O3 2.040206 1_555
Mo2 O12 2.040206 1_545
Mo2 O10 2.040434 1_655
Mo2 O5 2.040434 1_555
Mo3 O4 2.040125 1_545
Mo3 O7 2.040125 1_555
Mo3 O9 2.040206 1_555
Mo3 O2 2.040206 1_656
Mo3 O0 2.040434 1_556
Mo3 O8 2.040434 1_555
