# generated using pymatgen
data_Rb2CrCl4
_symmetry_space_group_name_H-M   'P 1'
_cell_length_a   7.16927022
_cell_length_b   7.16728974
_cell_length_c   8.70881020
_cell_angle_alpha   89.99994799
_cell_angle_beta   114.03578673
_cell_angle_gamma   90.00008487
_symmetry_Int_Tables_number   1
_chemical_formula_structural   Rb2CrCl4
_chemical_formula_sum   'Rb4 Cr2 Cl8'
_cell_volume   408.69377756
_cell_formula_units_Z   2
loop_
 _symmetry_equiv_pos_site_id
 _symmetry_equiv_pos_as_xyz
  1  'x, y, z'
loop_
 _atom_site_type_symbol
 _atom_site_label
 _atom_site_symmetry_multiplicity
 _atom_site_fract_x
 _atom_site_fract_y
 _atom_site_fract_z
 _atom_site_occupancy
  Rb  Rb0  1  0.86178180  0.49993929  0.71990468  1
  Rb  Rb1  1  0.63821820  0.99993929  0.28009532  1
  Rb  Rb2  1  0.36178180  0.00006071  0.71990468  1
  Rb  Rb3  1  0.13821820  0.50006071  0.28009532  1
  Cr  Cr0  1  -0.00000000  -0.00000000  -0.00000000  1
  Cr  Cr1  1  0.50000000  0.50000000  -0.00000000  1
  Cl  Cl0  1  0.65151028  0.50004899  0.30671962  1
  Cl  Cl1  1  0.73690752  0.73677800  -0.00002262  1
  Cl  Cl2  1  0.84848972  0.00004899  0.69328038  1
  Cl  Cl3  1  0.15151028  -0.00004899  0.30671962  1
  Cl  Cl4  1  0.23690752  0.76322200  -0.00002262  1
  Cl  Cl5  1  0.26309248  0.26322200  0.00002262  1
  Cl  Cl6  1  0.34848972  0.49995101  0.69328038  1
  Cl  Cl7  1  0.76309248  0.23677800  0.00002262  1
loop_
_geom_bond_atom_site_label_1
_geom_bond_atom_site_label_2
_geom_bond_distance
_geom_bond_site_symmetry_2
Cl0 Cr1 2.439550 1_555
Cl0 Rb0 3.286608 1_555
Cl0 Rb1 3.589111 1_555
Cl0 Rb3 3.590032 1_655
Cl0 Rb1 3.590681 1_545
Cl0 Rb3 3.591737 1_555
Cl1 Cr1 2.401044 1_555
Cl1 Cr0 2.667692 1_665
Cl1 Rb3 3.374889 1_655
Cl1 Rb2 3.376275 1_564
Cl1 Rb0 3.378016 1_554
Cl1 Rb1 3.378662 1_555
Cl2 Cr0 2.439550 1_656
Cl2 Rb1 3.286608 1_545
Cl2 Rb0 3.589111 1_555
Cl2 Rb2 3.590032 1_555
Cl2 Rb0 3.590681 1_545
Cl2 Rb2 3.591737 1_655
Cl3 Cr0 2.439550 1_555
Cl3 Rb2 3.286608 1_555
Cl3 Rb3 3.589111 1_545
Cl3 Rb1 3.590032 1_545
Cl3 Rb3 3.590681 1_555
Cl3 Rb1 3.591737 1_445
Cl4 Cr0 2.401047 1_565
Cl4 Cr1 2.667696 1_555
Cl4 Rb1 3.374887 1_555
Cl4 Rb0 3.376273 1_454
Cl4 Rb2 3.378013 1_564
Cl4 Rb3 3.378658 1_555
Cl5 Cr1 2.401044 1_555
Cl5 Cr0 2.667692 1_555
Cl5 Rb0 3.374889 1_454
Cl5 Rb1 3.376275 1_545
Cl5 Rb3 3.378016 1_555
Cl5 Rb2 3.378662 1_554
Cl6 Cr1 2.439550 1_556
Cl6 Rb3 3.286608 1_555
Cl6 Rb2 3.589111 1_555
Cl6 Rb0 3.590032 1_455
Cl6 Rb2 3.590681 1_565
Cl6 Rb0 3.591737 1_555
Cl7 Cr0 2.401047 1_655
Cl7 Cr1 2.667696 1_555
Cl7 Rb2 3.374887 1_554
Cl7 Rb3 3.376273 1_655
Cl7 Rb1 3.378013 1_545
Cl7 Rb0 3.378658 1_554
