# generated using pymatgen
data_Hf(TaS2)5
_symmetry_space_group_name_H-M   'P 1'
_cell_length_a   5.79421826
_cell_length_b   7.30841007
_cell_length_c   8.07076460
_cell_angle_alpha   110.00427534
_cell_angle_beta   97.11576118
_cell_angle_gamma   105.08626233
_symmetry_Int_Tables_number   1
_chemical_formula_structural   Hf(TaS2)5
_chemical_formula_sum   'Hf1 Ta5 S10'
_cell_volume   301.42160493
_cell_formula_units_Z   1
loop_
 _symmetry_equiv_pos_site_id
 _symmetry_equiv_pos_as_xyz
  1  'x, y, z'
loop_
 _atom_site_type_symbol
 _atom_site_label
 _atom_site_symmetry_multiplicity
 _atom_site_fract_x
 _atom_site_fract_y
 _atom_site_fract_z
 _atom_site_occupancy
  Hf  Hf0  1  0.66911062  0.51379460  0.98919644  1
  Ta  Ta0  1  0.00346614  0.99743895  0.00109135  1
  Ta  Ta1  1  0.59914806  0.20266795  0.20434570  1
  Ta  Ta2  1  0.19815133  0.39906821  0.39823373  1
  Ta  Ta3  1  0.79626631  0.59916145  0.60236016  1
  Ta  Ta4  1  0.40146652  0.79539949  0.79900544  1
  S  S0  1  0.23412675  0.05185242  0.30013483  1
  S  S1  1  0.04578757  0.64580864  0.90192646  1
  S  S2  1  0.83496736  0.25146492  0.49882438  1
  S  S3  1  0.63423071  0.85776146  0.11016964  1
  S  S4  1  0.42126316  0.43368872  0.69047814  1
  S  S5  1  0.90035171  0.55585839  0.30230238  1
  S  S6  1  0.69998188  0.14752362  0.89904534  1
  S  S7  1  0.49846524  0.74941893  0.50323187  1
  S  S8  1  0.29768148  0.35140840  0.09834422  1
  S  S9  1  0.09833917  0.94528485  0.70290993  1
loop_
_geom_bond_atom_site_label_1
_geom_bond_atom_site_label_2
_geom_bond_distance
_geom_bond_site_symmetry_2
Hf0 S1 2.437236 1_655
Hf0 S3 2.438780 1_556
Hf0 S4 2.440564 1_555
Hf0 S8 2.582942 1_556
Hf0 S6 2.583776 1_555
Hf0 S5 2.586645 1_556
S0 Ta0 2.457012 1_545
S0 Ta2 2.459946 1_555
S0 Ta1 2.461795 1_555
S1 Ta4 2.450520 1_555
S1 Ta0 2.504858 1_556
S1 Ta3 2.522976 1_455
S2 Ta1 2.450437 1_555
S2 Ta2 2.468179 1_655
S2 Ta3 2.469015 1_555
S3 Ta1 2.442789 1_565
S3 Ta0 2.517710 1_655
S3 Ta4 2.528097 1_554
S4 Ta2 2.442214 1_555
S4 Ta3 2.508584 1_555
S4 Ta4 2.523321 1_555
S5 Ta2 2.489010 1_655
S5 Ta1 2.500146 1_555
S5 Ta3 2.503062 1_555
S6 Ta4 2.486303 1_545
S6 Ta0 2.497382 1_646
S6 Ta1 2.524860 1_556
S7 Ta4 2.451328 1_555
S7 Ta3 2.463507 1_555
S7 Ta2 2.476498 1_555
S8 Ta2 2.487071 1_555
S8 Ta0 2.489612 1_545
S8 Ta1 2.493843 1_555
S9 Ta0 2.459308 1_556
S9 Ta3 2.461674 1_455
S9 Ta4 2.476216 1_555
