# generated using pymatgen
data_Ba4Na(AsIr)10
_symmetry_space_group_name_H-M   'P 1'
_cell_length_a   9.13402548
_cell_length_b   9.13402559
_cell_length_c   9.13402604
_cell_angle_alpha   120.38384634
_cell_angle_beta   120.38385049
_cell_angle_gamma   89.33643474
_symmetry_Int_Tables_number   1
_chemical_formula_structural   Ba4Na(AsIr)10
_chemical_formula_sum   'Ba4 Na1 As10 Ir10'
_cell_volume   535.68939289
_cell_formula_units_Z   1
loop_
 _symmetry_equiv_pos_site_id
 _symmetry_equiv_pos_as_xyz
  1  'x, y, z'
loop_
 _atom_site_type_symbol
 _atom_site_label
 _atom_site_symmetry_multiplicity
 _atom_site_fract_x
 _atom_site_fract_y
 _atom_site_fract_z
 _atom_site_occupancy
  Ba  Ba0  1  0.19479362  0.60962431  0.80441793  1
  Ba  Ba1  1  0.39037569  0.19479362  0.58517031  1
  Ba  Ba2  1  0.60962431  0.80520638  0.41482969  1
  Ba  Ba3  1  0.80520638  0.39037569  0.19558207  1
  Na  Na0  1  0.00000000  0.00000000  0.00000000  1
  As  As0  1  0.44391675  0.04343525  0.19917617  1
  As  As1  1  0.63901922  0.63901922  0.00000000  1
  As  As2  1  0.84425908  0.24474058  0.80082383  1
  As  As3  1  0.04343525  0.84425908  0.59951950  1
  As  As4  1  0.24474058  0.44391675  0.40048050  1
  As  As5  1  0.36098078  0.36098078  1.00000000  1
  As  As6  1  0.55608325  0.95656475  0.80082383  1
  As  As7  1  0.75525942  0.55608325  0.59951950  1
  As  As8  1  0.95656475  0.15574092  0.40048050  1
  As  As9  1  0.15574092  0.75525942  0.19917617  1
  Ir  Ir0  1  0.34962796  0.05225484  0.90042436  1
  Ir  Ir1  1  0.55079740  0.65037204  0.70262788  1
  Ir  Ir2  1  0.75000000  0.25000000  0.50000000  1
  Ir  Ir3  1  0.94774516  0.84816952  0.29737212  1
  Ir  Ir4  1  0.15183048  0.44920260  0.09957564  1
  Ir  Ir5  1  0.44920260  0.34962796  0.29737212  1
  Ir  Ir6  1  0.65037204  0.94774516  0.09957564  1
  Ir  Ir7  1  0.84816952  0.55079740  0.90042436  1
  Ir  Ir8  1  0.05225484  0.15183048  0.70262788  1
  Ir  Ir9  1  0.25000000  0.75000000  0.50000000  1
loop_
_geom_bond_atom_site_label_1
_geom_bond_atom_site_label_2
_geom_bond_distance
_geom_bond_site_symmetry_2
As0 Ir2 2.456232 1_555
As0 Ir0 2.457235 1_554
As0 Ir6 2.457768 1_545
As0 Ir5 2.459780 1_555
As0 Ba0 3.366920 1_544
As0 Ba1 3.373234 1_555
As0 Na0 3.428283 1_555
As0 Ba2 3.485617 1_545
As1 Ir1 2.471181 1_554
As1 Ir3 2.471186 1_555
As1 Ir7 2.471186 1_554
As1 Ir6 2.471187 1_555
As1 Ba2 3.454668 1_555
As1 Ba1 3.454674 1_554
As1 Ba0 3.454676 1_554
As1 Ba3 3.454676 1_555
As2 Ir2 2.456232 1_555
As2 Ir4 2.457233 1_656
As2 Ir7 2.457776 1_555
As2 Ir8 2.459771 1_655
As2 Ba3 3.366920 1_556
As2 Ba2 3.373227 1_545
As2 Na0 3.428283 1_656
As2 Ba1 3.485624 1_555
As3 Ir9 2.456237 1_555
As3 Ir8 2.457235 1_565
As3 Ir3 2.457785 1_455
As3 Ir0 2.459775 1_565
As3 Ba2 3.366917 1_455
As3 Ba0 3.373220 1_555
As3 Na0 3.428275 1_566
As3 Ba3 3.485624 1_455
As4 Ir9 2.456230 1_555
As4 Ir5 2.457227 1_555
As4 Ir1 2.457775 1_555
As4 Ir4 2.459762 1_555
As4 Ba1 3.366932 1_555
As4 Ba3 3.373227 1_455
As4 Na0 3.428282 1_555
As4 Ba0 3.485632 1_555
As5 Ir5 2.471181 1_556
As5 Ir8 2.471186 1_555
As5 Ir4 2.471186 1_556
As5 Ir0 2.471187 1_555
As5 Ba1 3.454668 1_555
As5 Ba2 3.454674 1_556
As5 Ba3 3.454676 1_556
As5 Ba0 3.454676 1_555
As6 Ir9 2.456232 1_555
As6 Ir6 2.457235 1_556
As6 Ir0 2.457768 1_565
As6 Ir1 2.459780 1_555
As6 Ba3 3.366920 1_566
As6 Ba2 3.373234 1_555
As6 Na0 3.428283 1_666
As6 Ba1 3.485617 1_565
As7 Ir2 2.456230 1_555
As7 Ir1 2.457227 1_555
As7 Ir5 2.457775 1_555
As7 Ir7 2.459762 1_555
As7 Ba2 3.366932 1_555
As7 Ba0 3.373227 1_655
As7 Na0 3.428282 1_666
As7 Ba3 3.485632 1_555
As8 Ir2 2.456237 1_555
As8 Ir3 2.457235 1_545
As8 Ir8 2.457785 1_655
As8 Ir6 2.459775 1_545
As8 Ba1 3.366917 1_655
As8 Ba3 3.373220 1_555
As8 Na0 3.428275 1_655
As8 Ba0 3.485624 1_655
As9 Ir9 2.456232 1_555
As9 Ir7 2.457233 1_454
As9 Ir4 2.457776 1_555
As9 Ir3 2.459771 1_455
As9 Ba0 3.366920 1_554
As9 Ba1 3.373227 1_565
As9 Na0 3.428283 1_565
As9 Ba2 3.485624 1_555
