# generated using pymatgen
data_Hf2Ta4NbH16
_symmetry_space_group_name_H-M   'P 1'
_cell_length_a   6.44934319
_cell_length_b   6.33695688
_cell_length_c   6.44934381
_cell_angle_alpha   60.57478181
_cell_angle_beta   58.85043055
_cell_angle_gamma   60.57478600
_symmetry_Int_Tables_number   1
_chemical_formula_structural   Hf2Ta4NbH16
_chemical_formula_sum   'Hf2 Ta4 Nb1 H16'
_cell_volume   186.26764921
_cell_formula_units_Z   1
loop_
 _symmetry_equiv_pos_site_id
 _symmetry_equiv_pos_as_xyz
  1  'x, y, z'
loop_
 _atom_site_type_symbol
 _atom_site_label
 _atom_site_symmetry_multiplicity
 _atom_site_fract_x
 _atom_site_fract_y
 _atom_site_fract_z
 _atom_site_occupancy
  Hf  Hf0  1  0.50000000  0.00000000  0.50000000  1
  Hf  Hf1  1  0.00000000  0.50000000  0.00000000  1
  Ta  Ta0  1  0.00000000  0.00000000  0.50000000  1
  Ta  Ta1  1  0.00000000  0.50000000  0.50000000  1
  Ta  Ta2  1  0.50000000  0.50000000  0.00000000  1
  Ta  Ta3  1  0.50000000  0.00000000  0.00000000  1
  Nb  Nb0  1  0.00000000  0.00000000  0.00000000  1
  H  H0  1  0.88267289  0.87057752  0.37616907  1
  H  H1  1  0.87057752  0.37616907  0.87057752  1
  H  H2  1  0.37616907  0.87057752  0.88267289  1
  H  H3  1  0.87057752  0.88267289  0.87057752  1
  H  H4  1  0.11732711  0.12942248  0.62383093  1
  H  H5  1  0.12942248  0.62383093  0.12942248  1
  H  H6  1  0.62383093  0.12942248  0.11732711  1
  H  H7  1  0.12942248  0.11732711  0.12942248  1
  H  H8  1  0.61127261  0.62826617  0.13219504  1
  H  H9  1  0.62826617  0.13219504  0.62826617  1
  H  H10  1  0.13219504  0.62826617  0.61127261  1
  H  H11  1  0.62826617  0.61127261  0.62826617  1
  H  H12  1  0.38872739  0.37173383  0.86780496  1
  H  H13  1  0.37173383  0.86780496  0.37173383  1
  H  H14  1  0.86780496  0.37173383  0.38872739  1
  H  H15  1  0.37173383  0.38872739  0.37173383  1
loop_
_geom_bond_atom_site_label_1
_geom_bond_atom_site_label_2
_geom_bond_distance
_geom_bond_site_symmetry_2
H0 Ta1 1.939456 1_655
H0 Ta0 1.939472 1_665
H0 Nb0 1.971413 1_665
H0 Hf0 2.004259 1_565
H1 Ta2 1.939456 1_556
H1 Ta1 1.939456 1_655
H1 Nb0 1.971413 1_656
H1 Hf1 2.004275 1_656
H2 Ta2 1.939456 1_556
H2 Ta3 1.939472 1_566
H2 Nb0 1.971412 1_566
H2 Hf0 2.004259 1_565
H3 Ta3 1.939456 1_566
H3 Ta0 1.939456 1_665
H3 Nb0 1.971428 1_666
H3 Hf1 2.004259 1_656
H4 Ta1 1.939456 1_555
H4 Ta0 1.939472 1_555
H4 Nb0 1.971413 1_556
H4 Hf0 2.004259 1_555
H5 Ta2 1.939456 1_555
H5 Ta1 1.939456 1_555
H5 Nb0 1.971413 1_565
H5 Hf1 2.004275 1_555
H6 Ta2 1.939456 1_555
H6 Ta3 1.939472 1_555
H6 Nb0 1.971412 1_655
H6 Hf0 2.004259 1_555
H7 Ta3 1.939456 1_555
H7 Ta0 1.939456 1_555
H7 Nb0 1.971428 1_555
H7 Hf1 2.004259 1_555
H8 Ta3 1.946682 1_565
H8 Ta2 1.946683 1_555
H8 Hf1 2.034740 1_655
H9 Ta0 1.946683 1_655
H9 Ta3 1.946683 1_556
H9 Hf0 2.034740 1_555
H10 Ta0 1.946682 1_565
H10 Ta1 1.946683 1_555
H10 Hf1 2.034740 1_556
H11 Ta1 1.946683 1_655
H11 Ta2 1.946683 1_556
H11 Hf0 2.034739 1_565
H12 Ta3 1.946682 1_556
H12 Ta2 1.946683 1_556
H12 Hf1 2.034740 1_556
H13 Ta0 1.946683 1_565
H13 Ta3 1.946683 1_565
H13 Hf0 2.034740 1_565
H14 Ta0 1.946682 1_655
H14 Ta1 1.946683 1_655
H14 Hf1 2.034740 1_655
H15 Ta1 1.946683 1_555
H15 Ta2 1.946683 1_555
H15 Hf0 2.034739 1_555
