# generated using pymatgen
data_CsRbInGa13
_symmetry_space_group_name_H-M   'P 1'
_cell_length_a   10.44603427
_cell_length_b   10.44603343
_cell_length_c   10.44603449
_cell_angle_alpha   37.37935174
_cell_angle_beta   37.37935015
_cell_angle_gamma   37.37935605
_symmetry_Int_Tables_number   1
_chemical_formula_structural   CsRbInGa13
_chemical_formula_sum   'Cs1 Rb1 In1 Ga13'
_cell_volume   376.67989330
_cell_formula_units_Z   1
loop_
 _symmetry_equiv_pos_site_id
 _symmetry_equiv_pos_as_xyz
  1  'x, y, z'
loop_
 _atom_site_type_symbol
 _atom_site_label
 _atom_site_symmetry_multiplicity
 _atom_site_fract_x
 _atom_site_fract_y
 _atom_site_fract_z
 _atom_site_occupancy
  Cs  Cs0  1  0.19398632  0.19398632  0.19398632  1
  Rb  Rb0  1  0.80358259  0.80358259  0.80358259  1
  In  In0  1  0.45678198  0.45678198  0.45678198  1
  Ga  Ga0  1  0.54982032  0.54982032  0.54982032  1
  Ga  Ga1  1  0.58131847  0.18269926  0.18269926  1
  Ga  Ga2  1  0.18269926  0.18269926  0.58131847  1
  Ga  Ga3  1  0.18269926  0.58131847  0.18269926  1
  Ga  Ga4  1  0.81645770  0.41857297  0.81645770  1
  Ga  Ga5  1  0.41857297  0.81645770  0.81645770  1
  Ga  Ga6  1  0.81645770  0.81645770  0.41857297  1
  Ga  Ga7  1  0.80336434  0.20852165  0.20852165  1
  Ga  Ga8  1  0.20852165  0.20852165  0.80336434  1
  Ga  Ga9  1  0.20852165  0.80336434  0.20852165  1
  Ga  Ga10  1  0.78714047  0.20293486  0.78714047  1
  Ga  Ga11  1  0.20293486  0.78714047  0.78714047  1
  Ga  Ga12  1  0.78714047  0.78714047  0.20293486  1
loop_
_geom_bond_atom_site_label_1
_geom_bond_atom_site_label_2
_geom_bond_distance
_geom_bond_site_symmetry_2
Cs0 Ga9 3.842333 1_545
Cs0 Ga7 3.842334 1_455
Cs0 Ga8 3.842334 1_554
Cs0 Ga11 3.860223 1_554
Cs0 Ga10 3.860223 1_554
Cs0 Ga12 3.860223 1_455
Cs0 Ga10 3.860223 1_455
Cs0 Ga11 3.860224 1_545
Cs0 Ga12 3.860224 1_545
Cs0 Ga3 3.860617 1_555
Cs0 Ga1 3.860618 1_555
Cs0 Ga2 3.860618 1_555
Cs0 Ga0 3.920308 1_554
Cs0 Ga0 3.920308 1_455
Cs0 Ga0 3.920308 1_545
Cs0 Rb0 4.207184 1_445
Cs0 Rb0 4.207185 1_544
Cs0 Rb0 4.207185 1_454
In0 Rb0 3.885024 1_554
In0 Rb0 3.885024 1_455
In0 Rb0 3.885024 1_545
Ga0 Ga12 2.576042 1_555
Ga0 Ga11 2.576043 1_555
Ga0 Ga10 2.576043 1_555
Ga0 In0 2.708710 1_555
Ga1 Ga4 2.538403 1_554
Ga1 Ga6 2.538404 1_545
Ga1 Ga12 2.637439 1_545
Ga1 Ga10 2.637439 1_554
Ga1 Ga2 2.668637 1_555
Ga1 Ga3 2.668637 1_555
Ga1 Ga7 2.762233 1_555
Ga2 Ga4 2.538403 1_455
Ga2 Ga5 2.538404 1_545
Ga2 Ga3 2.668637 1_555
Ga2 Ga8 2.762233 1_555
Ga3 Ga5 2.538403 1_554
Ga3 Ga6 2.538403 1_455
Ga3 Ga9 2.762233 1_555
Ga4 Ga7 2.628956 1_556
Ga4 Ga8 2.628956 1_655
Ga4 Ga6 2.663720 1_555
Ga4 Ga5 2.663720 1_555
Ga4 Rb0 3.810602 1_555
Ga5 Ga8 2.628955 1_565
Ga5 Ga9 2.628956 1_556
Ga5 Ga6 2.663720 1_555
Ga5 Rb0 3.810602 1_555
Ga6 Ga7 2.628955 1_565
Ga6 Ga9 2.628956 1_655
Ga6 Rb0 3.810602 1_555
Ga7 Ga8 2.712408 1_654
Ga7 Ga9 2.712408 1_645
Ga7 In0 2.720943 1_555
Ga7 Rb0 3.840732 1_554
Ga7 Rb0 3.840733 1_545
Ga8 Ga9 2.712408 1_546
Ga8 In0 2.720943 1_555
Ga8 Rb0 3.840732 1_455
Ga8 Rb0 3.840733 1_545
Ga9 In0 2.720943 1_555
Ga9 Rb0 3.840732 1_554
Ga9 Rb0 3.840732 1_455
Ga10 Ga2 2.637439 1_655
Ga10 Ga4 2.757420 1_555
Ga10 Ga12 2.783620 1_546
Ga10 Ga11 2.783620 1_645
Ga10 Rb0 3.902704 1_545
Ga11 Ga2 2.637439 1_565
Ga11 Ga3 2.637440 1_556
Ga11 Ga5 2.757420 1_555
Ga11 Ga12 2.783620 1_456
Ga11 Rb0 3.902705 1_455
Ga12 Ga3 2.637440 1_655
Ga12 Ga6 2.757420 1_555
Ga12 Rb0 3.902705 1_554
