# generated using pymatgen
data_Rb3Nb2Br10N
_symmetry_space_group_name_H-M   'P 1'
_cell_length_a   7.38929632
_cell_length_b   7.38929632
_cell_length_c   19.77724613
_cell_angle_alpha   90.00000000
_cell_angle_beta   90.00000000
_cell_angle_gamma   90.00000000
_symmetry_Int_Tables_number   1
_chemical_formula_structural   Rb3Nb2Br10N
_chemical_formula_sum   'Rb6 Nb4 Br20 N2'
_cell_volume   1079.87126343
_cell_formula_units_Z   2
loop_
 _symmetry_equiv_pos_site_id
 _symmetry_equiv_pos_as_xyz
  1  'x, y, z'
loop_
 _atom_site_type_symbol
 _atom_site_label
 _atom_site_symmetry_multiplicity
 _atom_site_fract_x
 _atom_site_fract_y
 _atom_site_fract_z
 _atom_site_occupancy
  Rb  Rb0  1  0.50000000  0.50000000  0.00000000  1
  Rb  Rb1  1  0.00000000  0.00000000  0.50000000  1
  Rb  Rb2  1  0.00000000  0.50000000  0.25000000  1
  Rb  Rb3  1  0.50000000  0.00000000  0.75000000  1
  Rb  Rb4  1  0.50000000  0.00000000  0.25000000  1
  Rb  Rb5  1  0.00000000  0.50000000  0.75000000  1
  Nb  Nb0  1  0.50000000  0.50000000  0.40542969  1
  Nb  Nb1  1  0.00000000  0.00000000  0.90542969  1
  Nb  Nb2  1  0.50000000  0.50000000  0.59457031  1
  Nb  Nb3  1  0.00000000  0.00000000  0.09457031  1
  Br  Br0  1  0.79122355  0.68577965  0.39566796  1
  Br  Br1  1  0.20877645  0.31422035  0.39566796  1
  Br  Br2  1  0.70877645  0.18577965  0.89566796  1
  Br  Br3  1  0.29122355  0.81422035  0.89566796  1
  Br  Br4  1  0.68577965  0.20877645  0.39566796  1
  Br  Br5  1  0.31422035  0.79122355  0.39566796  1
  Br  Br6  1  0.18577965  0.29122355  0.89566796  1
  Br  Br7  1  0.81422035  0.70877645  0.89566796  1
  Br  Br8  1  0.20877645  0.31422035  0.60433204  1
  Br  Br9  1  0.79122355  0.68577965  0.60433204  1
  Br  Br10  1  0.29122355  0.81422035  0.10433204  1
  Br  Br11  1  0.70877645  0.18577965  0.10433204  1
  Br  Br12  1  0.31422035  0.79122355  0.60433204  1
  Br  Br13  1  0.68577965  0.20877645  0.60433204  1
  Br  Br14  1  0.81422035  0.70877645  0.10433204  1
  Br  Br15  1  0.18577965  0.29122355  0.10433204  1
  Br  Br16  1  0.50000000  0.50000000  0.26247789  1
  Br  Br17  1  0.00000000  0.00000000  0.76247789  1
  Br  Br18  1  0.50000000  0.50000000  0.73752211  1
  Br  Br19  1  0.00000000  0.00000000  0.23752211  1
  N  N0  1  0.50000000  0.50000000  0.50000000  1
  N  N1  1  0.00000000  0.00000000  0.00000000  1
loop_
_geom_bond_atom_site_label_1
_geom_bond_atom_site_label_2
_geom_bond_distance
_geom_bond_site_symmetry_2
Br0 Nb0 2.559811 1_555
Br0 Rb1 3.468234 1_665
Br0 Rb2 3.544592 1_655
Br1 Nb0 2.559811 1_555
Br1 Rb1 3.468234 1_555
Br1 Rb2 3.544592 1_555
Br2 Nb1 2.559811 1_655
Br2 Rb0 3.468234 1_556
Br2 Rb3 3.544592 1_555
Br3 Nb1 2.559811 1_565
Br3 Rb0 3.468234 1_556
Br3 Rb3 3.544592 1_565
Br4 Nb0 2.559811 1_555
Br4 Rb1 3.468234 1_655
Br4 Rb4 3.544592 1_555
Br5 Nb0 2.559811 1_555
Br5 Rb1 3.468234 1_565
Br5 Rb4 3.544592 1_565
Br6 Nb1 2.559811 1_555
Br6 Rb0 3.468234 1_556
Br6 Rb5 3.544592 1_555
Br7 Nb1 2.559811 1_665
Br7 Rb0 3.468234 1_556
Br7 Rb5 3.544592 1_655
Br8 Nb2 2.559811 1_555
Br8 Rb1 3.468234 1_555
Br8 Rb5 3.544592 1_555
Br9 Nb2 2.559811 1_555
Br9 Rb1 3.468234 1_665
Br9 Rb5 3.544592 1_655
Br10 Nb3 2.559811 1_565
Br10 Rb0 3.468234 1_555
Br10 Rb4 3.544592 1_565
Br11 Nb3 2.559811 1_655
Br11 Rb0 3.468234 1_555
Br11 Rb4 3.544592 1_555
Br12 Nb2 2.559811 1_555
Br12 Rb1 3.468234 1_565
Br12 Rb3 3.544592 1_565
Br13 Nb2 2.559811 1_555
Br13 Rb1 3.468234 1_655
Br13 Rb3 3.544592 1_555
Br14 Nb3 2.559811 1_665
Br14 Rb0 3.468234 1_555
Br14 Rb2 3.544592 1_655
Br15 Nb3 2.559811 1_555
Br15 Rb0 3.468234 1_555
Br15 Rb2 3.544592 1_555
Br16 Nb0 2.827193 1_555
Br16 Rb2 3.702881 1_655
Br16 Rb2 3.702881 1_555
Br16 Rb4 3.702881 1_555
Br16 Rb4 3.702881 1_565
Br17 Nb1 2.827193 1_555
Br17 Rb5 3.702881 1_545
Br17 Rb3 3.702881 1_555
Br17 Rb5 3.702881 1_555
Br17 Rb3 3.702881 1_455
Br18 Nb2 2.827193 1_555
Br18 Rb3 3.702881 1_555
Br18 Rb5 3.702881 1_555
Br18 Rb5 3.702881 1_655
Br18 Rb3 3.702881 1_565
Br19 Nb3 2.827193 1_555
Br19 Rb4 3.702881 1_555
Br19 Rb2 3.702881 1_545
Br19 Rb2 3.702881 1_555
Br19 Rb4 3.702881 1_455
N0 Nb2 1.870340 1_555
N0 Nb0 1.870340 1_555
N1 Nb3 1.870340 1_555
N1 Nb1 1.870340 1_554
