# generated using pymatgen
data_Ba2Ca(InAs2)2
_symmetry_space_group_name_H-M   'P 1'
_cell_length_a   4.49777738
_cell_length_b   6.91302954
_cell_length_c   17.43397548
_cell_angle_alpha   90.00000000
_cell_angle_beta   90.00000000
_cell_angle_gamma   90.00000000
_symmetry_Int_Tables_number   1
_chemical_formula_structural   Ba2Ca(InAs2)2
_chemical_formula_sum   'Ba4 Ca2 In4 As8'
_cell_volume   542.07926974
_cell_formula_units_Z   2
loop_
 _symmetry_equiv_pos_site_id
 _symmetry_equiv_pos_as_xyz
  1  'x, y, z'
loop_
 _atom_site_type_symbol
 _atom_site_label
 _atom_site_symmetry_multiplicity
 _atom_site_fract_x
 _atom_site_fract_y
 _atom_site_fract_z
 _atom_site_occupancy
  Ba  Ba0  1  0.00000000  0.27038287  0.80397581  1
  Ba  Ba1  1  0.50000000  0.77038287  0.69602419  1
  Ba  Ba2  1  0.00000000  0.72961713  0.19602419  1
  Ba  Ba3  1  0.50000000  0.22961713  0.30397581  1
  Ca  Ca0  1  0.00000000  0.00000000  0.00000000  1
  Ca  Ca1  1  0.50000000  0.50000000  0.50000000  1
  In  In0  1  0.00000000  0.86841607  0.41661061  1
  In  In1  1  0.50000000  0.36841607  0.08338939  1
  In  In2  1  0.00000000  0.13158393  0.58338939  1
  In  In3  1  0.50000000  0.63158393  0.91661061  1
  As  As0  1  0.50000000  0.24365776  0.93881258  1
  As  As1  1  0.50000000  0.75634224  0.06118742  1
  As  As2  1  0.00000000  0.24056898  0.15956215  1
  As  As3  1  0.00000000  0.25634224  0.43881258  1
  As  As4  1  0.50000000  0.74056898  0.34043785  1
  As  As5  1  0.00000000  0.75943102  0.84043785  1
  As  As6  1  0.00000000  0.74365776  0.56118742  1
  As  As7  1  0.50000000  0.25943102  0.65956215  1
loop_
_geom_bond_atom_site_label_1
_geom_bond_atom_site_label_2
_geom_bond_distance
_geom_bond_site_symmetry_2
As0 In1 2.664019 1_556
As0 In3 2.709535 1_555
As0 Ca0 3.005442 1_556
As0 Ca0 3.005442 1_656
As0 Ba0 3.258468 1_655
As0 Ba0 3.258468 1_555
As1 In3 2.664019 1_554
As1 In1 2.709535 1_555
As1 Ca0 3.005442 1_565
As1 Ca0 3.005442 1_665
As1 Ba2 3.258468 1_655
As1 Ba2 3.258468 1_555
As2 In1 2.757207 1_555
As2 In1 2.757207 1_455
As2 Ca0 3.241018 1_555
As2 Ba3 3.376695 1_555
As2 Ba3 3.376695 1_455
As2 Ba2 3.440047 1_555
As2 Ba2 3.588970 1_545
As3 In2 2.664019 1_555
As3 In0 2.709535 1_545
As3 Ca1 3.005442 1_455
As3 Ca1 3.005442 1_555
As3 Ba3 3.258468 1_455
As3 Ba3 3.258468 1_555
As4 In0 2.757207 1_555
As4 In0 2.757207 1_655
As4 Ca1 3.241018 1_555
As4 Ba2 3.376695 1_655
As4 Ba2 3.376695 1_555
As4 Ba3 3.440047 1_565
As4 Ba3 3.588970 1_555
As5 In3 2.757207 1_555
As5 In3 2.757207 1_455
As5 Ca0 3.241018 1_566
As5 Ba1 3.376695 1_455
As5 Ba1 3.376695 1_555
As5 Ba0 3.440047 1_555
As5 Ba0 3.588970 1_565
As6 In0 2.664019 1_555
As6 In2 2.709535 1_565
As6 Ca1 3.005442 1_455
As6 Ca1 3.005442 1_555
As6 Ba1 3.258468 1_455
As6 Ba1 3.258468 1_555
As7 In2 2.757207 1_655
As7 In2 2.757207 1_555
As7 Ca1 3.241018 1_555
As7 Ba0 3.376695 1_655
As7 Ba0 3.376695 1_555
As7 Ba1 3.440047 1_545
As7 Ba1 3.588970 1_555
