# generated using pymatgen
data_Ti10Ga3Si2Pt
_symmetry_space_group_name_H-M   'P 1'
_cell_length_a   4.90913644
_cell_length_b   7.52398103
_cell_length_c   7.64599473
_cell_angle_alpha   83.98842758
_cell_angle_beta   71.27498410
_cell_angle_gamma   70.95973648
_symmetry_Int_Tables_number   1
_chemical_formula_structural   Ti10Ga3Si2Pt
_chemical_formula_sum   'Ti10 Ga3 Si2 Pt1'
_cell_volume   252.83303721
_cell_formula_units_Z   1
loop_
 _symmetry_equiv_pos_site_id
 _symmetry_equiv_pos_as_xyz
  1  'x, y, z'
loop_
 _atom_site_type_symbol
 _atom_site_label
 _atom_site_symmetry_multiplicity
 _atom_site_fract_x
 _atom_site_fract_y
 _atom_site_fract_z
 _atom_site_occupancy
  Ti  Ti0  1  0.25556579  0.49129311  0.50000000  1
  Ti  Ti1  1  0.75314010  0.49129311  0.50000000  1
  Ti  Ti2  1  0.07631520  0.14079822  0.70657238  1
  Ti  Ti3  1  0.92034294  0.86727515  0.29203897  1
  Ti  Ti4  1  0.78352559  0.29583438  0.13711444  1
  Ti  Ti5  1  0.42063903  0.29583438  0.86288556  1
  Ti  Ti6  1  0.21855207  0.70495310  0.85794375  1
  Ti  Ti7  1  0.57649583  0.70495310  0.14205625  1
  Ti  Ti8  1  0.71238091  0.86727515  0.70796103  1
  Ti  Ti9  1  0.28288758  0.14079822  0.29342762  1
  Ga  Ga0  1  0.16212570  0.50202704  0.17372056  1
  Ga  Ga1  1  0.83584726  0.50202704  0.82627944  1
  Ga  Ga2  1  0.33623883  0.82752333  0.50000000  1
  Si  Si0  1  0.24970508  0.00059083  1.00000000  1
  Si  Si1  1  0.74970508  0.00059083  1.00000000  1
  Pt  Pt0  1  0.66653401  0.16693097  0.50000000  1
loop_
_geom_bond_atom_site_label_1
_geom_bond_atom_site_label_2
_geom_bond_distance
_geom_bond_site_symmetry_2
Ti0 Ti1 2.442660 1_555
Ti0 Ti1 2.466476 1_455
Ga0 Ti0 2.666268 1_555
Ga0 Ti1 2.666268 1_455
Ga0 Ti5 2.686443 1_554
Ga0 Ti6 2.704024 1_554
Ga0 Ti9 2.711475 1_555
Ga0 Ti3 2.735411 1_455
Ga0 Ti7 2.856661 1_455
Ga0 Ti7 2.856669 1_555
Ga0 Ti4 2.871553 1_455
Ga0 Ti4 2.871557 1_555
Ga1 Ti0 2.666266 1_655
Ga1 Ti1 2.666270 1_555
Ga1 Ti4 2.686442 1_556
Ga1 Ti7 2.704024 1_556
Ga1 Ti2 2.711476 1_655
Ga1 Ti8 2.735411 1_555
Ga1 Ti6 2.856665 1_655
Ga1 Ti6 2.856665 1_555
Ga1 Ti5 2.871549 1_655
Ga1 Ti5 2.871561 1_555
Ga2 Ti9 2.683669 1_565
Ga2 Ti2 2.683669 1_565
Ga2 Ti1 2.685210 1_555
Ga2 Ti0 2.685214 1_555
Ga2 Ti6 2.734649 1_555
Ga2 Ti7 2.734649 1_555
Ga2 Ti8 2.893537 1_555
Ga2 Ti3 2.893542 1_555
Ga2 Ti3 2.893546 1_455
Ga2 Ti8 2.893550 1_455
Si0 Si1 2.454568 1_555
Si0 Si1 2.454568 1_455
Si0 Ti8 2.622478 1_545
Si0 Ti3 2.622483 1_446
Si0 Ti5 2.627070 1_555
Si0 Ti4 2.627075 1_456
Si0 Ti6 2.643036 1_545
Si0 Ti7 2.643036 1_546
Si0 Ti9 2.648659 1_556
Si0 Ti2 2.648659 1_555
Si1 Ti3 2.622480 1_546
Si1 Ti8 2.622485 1_545
Si1 Ti4 2.627072 1_556
Si1 Ti5 2.627077 1_555
Si1 Ti7 2.643036 1_546
Si1 Ti6 2.643036 1_645
Si1 Ti2 2.648659 1_655
Si1 Ti9 2.648660 1_556
Pt0 Ti8 2.609598 1_545
Pt0 Ti3 2.609598 1_545
Pt0 Ti1 2.610321 1_555
Pt0 Ti0 2.610321 1_555
Pt0 Ti4 2.783102 1_555
Pt0 Ti5 2.783102 1_555
Pt0 Ti9 2.880451 1_555
Pt0 Ti2 2.880451 1_555
Pt0 Ti2 2.880459 1_655
Pt0 Ti9 2.880460 1_655
