# generated using pymatgen
data_Cs4P2Se9S
_symmetry_space_group_name_H-M   'P 1'
_cell_length_a   7.48913413
_cell_length_b   7.66328748
_cell_length_c   10.30105792
_cell_angle_alpha   85.31505308
_cell_angle_beta   87.30834614
_cell_angle_gamma   84.60196806
_symmetry_Int_Tables_number   1
_chemical_formula_structural   Cs4P2Se9S
_chemical_formula_sum   'Cs4 P2 Se9 S1'
_cell_volume   586.14394155
_cell_formula_units_Z   1
loop_
 _symmetry_equiv_pos_site_id
 _symmetry_equiv_pos_as_xyz
  1  'x, y, z'
loop_
 _atom_site_type_symbol
 _atom_site_label
 _atom_site_symmetry_multiplicity
 _atom_site_fract_x
 _atom_site_fract_y
 _atom_site_fract_z
 _atom_site_occupancy
  Cs  Cs0  1  0.79847446  0.14278981  0.63330820  1
  Cs  Cs1  1  0.20591053  0.86769736  0.36418124  1
  Cs  Cs2  1  0.22265378  0.28050434  0.97206212  1
  Cs  Cs3  1  0.77494621  0.71996194  0.03116654  1
  P  P0  1  0.24700359  0.79431310  0.78008014  1
  P  P1  1  0.75782009  0.20435031  0.22090835  1
  Se  Se0  1  0.50356594  0.59839636  0.75954290  1
  Se  Se1  1  0.29988832  0.04346387  0.67798690  1
  Se  Se2  1  0.02108939  0.67980497  0.70846521  1
  Se  Se3  1  0.59303773  0.60635379  0.54084370  1
  Se  Se4  1  0.40512846  0.39870527  0.46007675  1
  Se  Se5  1  0.26427111  0.77496868  0.99276140  1
  Se  Se6  1  0.70365752  0.95601472  0.32424982  1
  Se  Se7  1  0.73323438  0.22365018  0.00859236  1
  Se  Se8  1  0.50029387  0.40067034  0.24252874  1
  S  S0  1  0.96902662  0.30835398  0.28324362  1
loop_
_geom_bond_atom_site_label_1
_geom_bond_atom_site_label_2
_geom_bond_distance
_geom_bond_site_symmetry_2
Cs0 Se6 3.719717 1_545
Cs0 Se3 3.801398 1_555
Cs0 Se1 3.802591 1_655
Cs0 Se2 3.811392 1_645
Cs0 Se4 3.813579 1_555
Cs0 Se1 3.879420 1_555
Cs0 S0 3.920415 1_555
Cs0 Se7 3.965380 1_556
Cs0 Se0 4.216645 1_555
Cs1 S0 3.714507 1_465
Cs1 Se1 3.723194 1_565
Cs1 Se6 3.794279 1_455
Cs1 Se3 3.812618 1_555
Cs1 Se4 3.829929 1_555
Cs1 Se6 3.848136 1_555
Cs1 Se5 3.945000 1_554
Cs1 Se2 3.955560 1_555
Cs2 Se1 3.653420 1_555
Cs2 S0 3.659548 1_456
Cs2 Se7 3.729637 1_456
Cs2 Se8 3.775868 1_556
Cs2 Se7 3.840291 1_556
Cs2 Se5 3.846441 1_545
Cs2 Se0 3.848833 1_555
Cs2 Se5 3.855028 1_555
Cs2 Se2 4.144113 1_555
Cs3 Se6 3.637458 1_555
Cs3 Se5 3.727046 1_654
Cs3 Se2 3.745362 1_654
Cs3 Se0 3.760788 1_554
Cs3 Se8 3.822868 1_555
Cs3 Se7 3.831955 1_565
Cs3 Se5 3.843521 1_554
Cs3 Se7 3.871976 1_555
Cs3 S0 4.118086 1_555
P0 Se2 2.163117 1_555
P0 Se1 2.164140 1_565
P0 Se5 2.192815 1_555
P0 Se0 2.337026 1_555
P1 S0 1.991400 1_555
P1 Se6 2.166372 1_545
P1 Se7 2.195211 1_555
P1 Se8 2.345451 1_555
Se0 Se3 2.317635 1_555
Se3 Se4 2.439741 1_555
Se4 Se8 2.318759 1_555
