# generated using pymatgen
data_Cs2TaOF5
_symmetry_space_group_name_H-M   'P 1'
_cell_length_a   6.63647823
_cell_length_b   6.63647714
_cell_length_c   8.85865545
_cell_angle_alpha   90.00000000
_cell_angle_beta   90.00000000
_cell_angle_gamma   84.18497200
_symmetry_Int_Tables_number   1
_chemical_formula_structural   Cs2TaOF5
_chemical_formula_sum   'Cs4 Ta2 O2 F10'
_cell_volume   388.15261037
_cell_formula_units_Z   2
loop_
 _symmetry_equiv_pos_site_id
 _symmetry_equiv_pos_as_xyz
  1  'x, y, z'
loop_
 _atom_site_type_symbol
 _atom_site_label
 _atom_site_symmetry_multiplicity
 _atom_site_fract_x
 _atom_site_fract_y
 _atom_site_fract_z
 _atom_site_occupancy
  Cs  Cs0  1  0.74625117  0.25374883  0.00000000  1
  Cs  Cs1  1  0.74625117  0.25374883  0.50000000  1
  Cs  Cs2  1  0.25374883  0.74625117  0.00000000  1
  Cs  Cs3  1  0.25374883  0.74625117  0.50000000  1
  Ta  Ta0  1  0.24059311  0.24059311  0.75000000  1
  Ta  Ta1  1  0.75940689  0.75940689  0.25000000  1
  O  O0  1  0.05960582  0.05960582  0.75000000  1
  O  O1  1  0.94039418  0.94039418  0.25000000  1
  F  F0  1  0.45264886  0.45264886  0.75000000  1
  F  F1  1  0.54735114  0.54735114  0.25000000  1
  F  F2  1  0.51931722  0.95564792  0.25000000  1
  F  F3  1  0.04435208  0.48068278  0.75000000  1
  F  F4  1  0.48068278  0.04435208  0.75000000  1
  F  F5  1  0.95564792  0.51931722  0.25000000  1
  F  F6  1  0.26317003  0.26317003  0.96900504  1
  F  F7  1  0.73682997  0.73682997  0.03099496  1
  F  F8  1  0.26317003  0.26317003  0.53099496  1
  F  F9  1  0.73682997  0.73682997  0.46900504  1
loop_
_geom_bond_atom_site_label_1
_geom_bond_atom_site_label_2
_geom_bond_distance
_geom_bond_site_symmetry_2
Cs0 F1 3.150007 1_555
Cs0 F0 3.150007 1_554
Cs0 F7 3.211984 1_555
Cs0 F6 3.211985 1_554
Cs0 O1 3.216591 1_545
Cs0 O0 3.216591 1_654
Cs0 F5 3.230845 1_555
Cs0 F4 3.230845 1_554
Cs0 F2 3.419133 1_545
Cs0 F3 3.419133 1_654
Cs0 F7 3.448366 1_545
Cs0 F6 3.448367 1_654
Cs1 F1 3.150007 1_555
Cs1 F0 3.150007 1_555
Cs1 F9 3.211984 1_555
Cs1 F8 3.211985 1_555
Cs1 O1 3.216591 1_545
Cs1 O0 3.216591 1_655
Cs1 F5 3.230845 1_555
Cs1 F4 3.230845 1_555
Cs1 F2 3.419133 1_545
Cs1 F3 3.419133 1_655
Cs1 F9 3.448366 1_545
Cs1 F8 3.448367 1_655
Cs2 F0 3.150007 1_554
Cs2 F1 3.150007 1_555
Cs2 F6 3.211984 1_554
Cs2 F7 3.211985 1_555
Cs2 O0 3.216591 1_564
Cs2 O1 3.216591 1_455
Cs2 F3 3.230845 1_554
Cs2 F2 3.230845 1_555
Cs2 F4 3.419133 1_564
Cs2 F5 3.419133 1_455
Cs2 F6 3.448366 1_564
Cs2 F7 3.448367 1_455
Cs3 F0 3.150007 1_555
Cs3 F1 3.150007 1_555
Cs3 F8 3.211984 1_555
Cs3 F9 3.211985 1_555
Cs3 O0 3.216591 1_565
Cs3 O1 3.216591 1_455
Cs3 F3 3.230845 1_555
Cs3 F2 3.230845 1_555
Cs3 F4 3.419133 1_565
Cs3 F5 3.419133 1_455
Cs3 F8 3.448366 1_565
Cs3 F9 3.448367 1_455
O0 Ta0 1.782612 1_555
O1 Ta1 1.782612 1_555
F0 Ta0 2.088617 1_555
F1 Ta1 2.088617 1_555
F2 Ta1 1.953047 1_555
F3 Ta0 1.953046 1_555
F4 Ta0 1.953047 1_555
F5 Ta1 1.953046 1_555
F6 Ta0 1.952792 1_555
F7 Ta1 1.952792 1_555
F8 Ta0 1.952792 1_555
F9 Ta1 1.952792 1_555
