# generated using pymatgen
data_Mg(IrCl4)3
_symmetry_space_group_name_H-M   'P 1'
_cell_length_a   11.71742255
_cell_length_b   11.17716605
_cell_length_c   6.11608151
_cell_angle_alpha   79.44795995
_cell_angle_beta   69.67897114
_cell_angle_gamma   31.16550312
_symmetry_Int_Tables_number   1
_chemical_formula_structural   Mg(IrCl4)3
_chemical_formula_sum   'Mg1 Ir3 Cl12'
_cell_volume   377.84832582
_cell_formula_units_Z   1
loop_
 _symmetry_equiv_pos_site_id
 _symmetry_equiv_pos_as_xyz
  1  'x, y, z'
loop_
 _atom_site_type_symbol
 _atom_site_label
 _atom_site_symmetry_multiplicity
 _atom_site_fract_x
 _atom_site_fract_y
 _atom_site_fract_z
 _atom_site_occupancy
  Mg  Mg0  1  0.41700396  0.41700396  0.58299604  1
  Ir  Ir0  1  0.83203070  0.83203070  0.66796930  1
  Ir  Ir1  1  0.66678862  0.66678862  0.83321138  1
  Ir  Ir2  1  0.58472073  0.58472073  0.41527927  1
  Cl  Cl0  1  0.73140224  0.28067653  0.26156654  1
  Cl  Cl1  1  0.88432450  0.44089743  0.08606598  1
  Cl  Cl2  1  0.36643782  0.81136344  0.16198603  1
  Cl  Cl3  1  0.44089743  0.88432450  0.58871109  1
  Cl  Cl4  1  0.14662715  0.67065286  0.35802738  1
  Cl  Cl5  1  0.28067653  0.73140224  0.72635570  1
  Cl  Cl6  1  0.52733025  0.97098706  0.97362490  1
  Cl  Cl7  1  0.97098706  0.52733025  0.52805780  1
  Cl  Cl8  1  0.06753664  0.60121909  0.89829183  1
  Cl  Cl9  1  0.81136344  0.36643782  0.66021372  1
  Cl  Cl10  1  0.67065286  0.14662715  0.82469361  1
  Cl  Cl11  1  0.60121909  0.06753664  0.43295144  1
loop_
_geom_bond_atom_site_label_1
_geom_bond_atom_site_label_2
_geom_bond_distance
_geom_bond_site_symmetry_2
Cl0 Ir2 2.332117 1_555
Cl0 Mg0 2.493672 1_555
Cl1 Ir1 2.357464 1_554
Cl1 Ir2 2.362344 1_555
Cl2 Ir1 2.362781 1_554
Cl2 Ir2 2.363358 1_555
Cl3 Ir1 2.357469 1_555
Cl3 Ir2 2.362341 1_555
Cl4 Ir0 2.335679 1_455
Cl4 Mg0 2.489102 1_555
Cl5 Ir2 2.332119 1_555
Cl5 Mg0 2.493674 1_555
Cl6 Ir1 2.356839 1_555
Cl6 Ir0 2.364726 1_555
Cl7 Ir1 2.356839 1_555
Cl7 Ir0 2.364727 1_555
Cl8 Ir0 2.332481 1_455
Cl8 Mg0 2.503340 1_555
Cl9 Ir1 2.362779 1_555
Cl9 Ir2 2.363363 1_555
Cl10 Ir0 2.335682 1_545
Cl10 Mg0 2.489106 1_555
Cl11 Ir0 2.332486 1_545
Cl11 Mg0 2.503343 1_555
