# generated using pymatgen
data_AsPICl13
_symmetry_space_group_name_H-M   'P 1'
_cell_length_a   9.60556097
_cell_length_b   9.60556269
_cell_length_c   11.78850408
_cell_angle_alpha   90.00000000
_cell_angle_beta   90.00000000
_cell_angle_gamma   115.30384911
_symmetry_Int_Tables_number   1
_chemical_formula_structural   AsPICl13
_chemical_formula_sum   'As2 P2 I2 Cl26'
_cell_volume   983.32829514
_cell_formula_units_Z   2
loop_
 _symmetry_equiv_pos_site_id
 _symmetry_equiv_pos_as_xyz
  1  'x, y, z'
loop_
 _atom_site_type_symbol
 _atom_site_label
 _atom_site_symmetry_multiplicity
 _atom_site_fract_x
 _atom_site_fract_y
 _atom_site_fract_z
 _atom_site_occupancy
  As  As0  1  0.44783482  0.55216518  0.34958900  1
  As  As1  1  0.55216518  0.44783482  0.84958900  1
  P  P0  1  0.13964804  0.86035196  0.03557362  1
  P  P1  1  0.86035196  0.13964804  0.53557362  1
  I  I0  1  0.79142981  0.20857019  0.99768511  1
  I  I1  1  0.20857019  0.79142981  0.49768511  1
  Cl  Cl0  1  0.31935508  0.02180969  0.62109553  1
  Cl  Cl1  1  0.86132825  0.13867175  0.37093628  1
  Cl  Cl2  1  0.62821814  0.69603320  0.87115161  1
  Cl  Cl3  1  0.13867175  0.86132825  0.87093628  1
  Cl  Cl4  1  0.92979153  0.76175067  0.09165627  1
  Cl  Cl5  1  0.69603320  0.62821814  0.37115161  1
  Cl  Cl6  1  0.74714410  0.25285590  0.58778621  1
  Cl  Cl7  1  0.23824933  0.07020847  0.09165627  1
  Cl  Cl8  1  0.68064492  0.97819031  0.12109553  1
  Cl  Cl9  1  0.25285590  0.74714410  0.08778621  1
  Cl  Cl10  1  0.07020847  0.23824933  0.59165627  1
  Cl  Cl11  1  0.09492048  0.55794777  0.37199940  1
  Cl  Cl12  1  0.97819031  0.68064492  0.62109553  1
  Cl  Cl13  1  0.02180969  0.31935508  0.12109553  1
  Cl  Cl14  1  0.08075167  0.91924833  0.37988939  1
  Cl  Cl15  1  0.90507952  0.44205223  0.87199940  1
  Cl  Cl16  1  0.55794777  0.09492048  0.87200040  1
  Cl  Cl17  1  0.44205223  0.90507952  0.37200040  1
  Cl  Cl18  1  0.30396680  0.37178186  0.87115161  1
  Cl  Cl19  1  0.37178186  0.30396680  0.37115161  1
  Cl  Cl20  1  0.91924833  0.08075167  0.87988939  1
  Cl  Cl21  1  0.55585064  0.44414936  0.66222242  1
  Cl  Cl22  1  0.33608772  0.66391228  0.61380734  1
  Cl  Cl23  1  0.66391228  0.33608772  0.11380734  1
  Cl  Cl24  1  0.76175067  0.92979153  0.59165627  1
  Cl  Cl25  1  0.44414936  0.55585064  0.16222242  1
loop_
_geom_bond_atom_site_label_1
_geom_bond_atom_site_label_2
_geom_bond_distance
_geom_bond_site_symmetry_2
As0 Cl5 2.189366 1_555
As0 Cl19 2.189366 1_555
As0 Cl25 2.209581 1_555
As1 Cl18 2.189366 1_555
As1 Cl2 2.189366 1_555
As1 Cl21 2.209581 1_555
Cl0 I1 2.476476 1_545
Cl1 P1 1.940893 1_555
Cl3 P0 1.940893 1_556
Cl4 P0 1.940486 1_655
Cl6 P1 1.937699 1_555
Cl7 P0 1.940487 1_545
Cl8 I0 2.476476 1_564
Cl9 P0 1.937699 1_555
Cl10 P1 1.940486 1_455
Cl11 I1 2.514742 1_555
Cl12 I1 2.476476 1_655
Cl13 I0 2.476476 1_454
Cl14 I1 2.496344 1_555
Cl15 I0 2.514742 1_555
Cl16 I0 2.514735 1_555
Cl17 I1 2.514735 1_555
Cl20 I0 2.496344 1_555
Cl22 I1 2.481349 1_555
Cl23 I0 2.481349 1_554
Cl24 P1 1.940487 1_565
