# generated using pymatgen
data_Zr16Ta3Ni4Pt
_symmetry_space_group_name_H-M   'P 1'
_cell_length_a   8.81423941
_cell_length_b   8.83108331
_cell_length_c   8.83108320
_cell_angle_alpha   59.99999674
_cell_angle_beta   59.93676163
_cell_angle_gamma   59.93676066
_symmetry_Int_Tables_number   1
_chemical_formula_structural   Zr16Ta3Ni4Pt
_chemical_formula_sum   'Zr16 Ta3 Ni4 Pt1'
_cell_volume   485.60372313
_cell_formula_units_Z   1
loop_
 _symmetry_equiv_pos_site_id
 _symmetry_equiv_pos_as_xyz
  1  'x, y, z'
loop_
 _atom_site_type_symbol
 _atom_site_label
 _atom_site_symmetry_multiplicity
 _atom_site_fract_x
 _atom_site_fract_y
 _atom_site_fract_z
 _atom_site_occupancy
  Zr  Zr0  1  0.19282713  0.60239162  0.60239162  1
  Zr  Zr1  1  0.59957295  0.19957242  0.60042782  1
  Zr  Zr2  1  0.59957295  0.60042782  0.60042782  1
  Zr  Zr3  1  0.59957295  0.60042782  0.19957242  1
  Zr  Zr4  1  0.45007589  0.45186476  0.04902868  1
  Zr  Zr5  1  0.04908571  0.04629337  0.45231046  1
  Zr  Zr6  1  0.45007589  0.04902868  0.04902868  1
  Zr  Zr7  1  0.04908571  0.45231046  0.45231046  1
  Zr  Zr8  1  0.04908571  0.45231046  0.04629337  1
  Zr  Zr9  1  0.45007589  0.04902868  0.45186476  1
  Zr  Zr10  1  0.81210898  0.81539838  0.18624582  1
  Zr  Zr11  1  0.18173013  0.18606367  0.81610260  1
  Zr  Zr12  1  0.81210898  0.18624582  0.18624582  1
  Zr  Zr13  1  0.18173013  0.81610260  0.81610260  1
  Zr  Zr14  1  0.18173013  0.81610260  0.18606367  1
  Zr  Zr15  1  0.81210898  0.18624582  0.81539838  1
  Ta  Ta0  1  0.83697683  0.49905574  0.83198372  1
  Ta  Ta1  1  0.83697683  0.83198372  0.83198372  1
  Ta  Ta2  1  0.83697683  0.83198372  0.49905574  1
  Ni  Ni0  1  0.82658038  0.39114021  0.39114021  1
  Ni  Ni1  1  0.39474071  0.82843736  0.38841097  1
  Ni  Ni2  1  0.39474071  0.38841097  0.38841097  1
  Ni  Ni3  1  0.39474071  0.38841097  0.82843736  1
  Pt  Pt0  1  0.50771987  0.83076038  0.83076038  1
loop_
_geom_bond_atom_site_label_1
_geom_bond_atom_site_label_2
_geom_bond_distance
_geom_bond_site_symmetry_2
Zr0 Zr8 3.199979 1_556
Zr0 Zr5 3.199979 1_565
Zr0 Zr7 3.199994 1_555
Zr0 Zr13 3.213310 1_555
Zr0 Zr14 3.213333 1_555
Zr0 Zr11 3.213333 1_555
Zr1 Zr15 3.200962 1_555
Zr1 Zr12 3.200977 1_555
Zr1 Zr11 3.223505 1_555
Zr10 Zr3 3.200962 1_555
Zr10 Zr2 3.200971 1_555
Zr10 Zr13 3.260243 1_654
Zr10 Zr14 3.260243 1_655
Zr10 Zr9 3.268895 1_565
Zr10 Zr6 3.268900 1_565
Zr10 Zr15 3.274984 1_564
Zr10 Zr12 3.274985 1_565
Zr10 Zr8 3.292107 1_655
Zr10 Zr7 3.292112 1_655
Zr11 Zr12 3.260243 1_456
Zr11 Zr15 3.260243 1_455
Zr11 Zr7 3.266784 1_555
Zr11 Zr8 3.266791 1_556
Zr11 Zr14 3.267157 1_546
Zr11 Zr13 3.267157 1_545
Zr11 Zr6 3.287502 1_556
Zr11 Zr9 3.287509 1_555
Zr12 Zr3 3.200977 1_555
Zr12 Zr14 3.260243 1_645
Zr12 Zr4 3.268900 1_555
Zr12 Zr9 3.268900 1_555
Zr12 Zr15 3.274985 1_554
Zr12 Zr5 3.292115 1_655
Zr12 Zr8 3.292115 1_655
Zr13 Zr2 3.223500 1_555
Zr13 Zr15 3.260243 1_465
Zr13 Zr5 3.266783 1_565
Zr13 Zr8 3.266783 1_556
Zr13 Zr14 3.267157 1_556
Zr13 Zr4 3.287504 1_556
Zr13 Zr9 3.287504 1_565
Zr14 Zr3 3.223505 1_555
Zr14 Zr7 3.266784 1_555
Zr14 Zr5 3.266791 1_565
Zr14 Zr6 3.287502 1_565
Zr14 Zr4 3.287509 1_555
Zr15 Zr2 3.200971 1_555
Zr15 Zr4 3.268895 1_556
Zr15 Zr6 3.268900 1_556
Zr15 Zr5 3.292107 1_655
Zr15 Zr7 3.292112 1_655
Ta0 Zr11 2.904992 1_655
Ta0 Ta2 2.940115 1_555
Ta0 Ta1 2.940115 1_555
Ta0 Zr12 2.957031 1_556
Ta0 Zr15 2.957036 1_555
Ta0 Zr7 3.039438 1_655
Ta0 Zr8 3.039438 1_656
Ta0 Zr0 3.070428 1_655
Ta0 Zr4 3.090855 1_556
Ta0 Zr2 3.152995 1_555
Ta0 Zr3 3.153002 1_556
Ta1 Zr13 2.904989 1_655
Ta1 Ta2 2.940115 1_555
Ta1 Zr10 2.957027 1_556
Ta1 Zr15 2.957027 1_565
Ta1 Zr8 3.039437 1_656
Ta1 Zr5 3.039438 1_665
Ta1 Zr0 3.070419 1_655
Ta1 Zr6 3.090849 1_566
Ta1 Zr1 3.152998 1_565
Ta1 Zr3 3.152998 1_556
Ta2 Zr14 2.904992 1_655
Ta2 Zr12 2.957031 1_565
Ta2 Zr10 2.957036 1_555
Ta2 Zr7 3.039438 1_655
Ta2 Zr5 3.039438 1_665
Ta2 Zr0 3.070428 1_655
Ta2 Zr9 3.090855 1_565
Ta2 Zr2 3.152995 1_555
Ta2 Zr1 3.153002 1_565
Ni0 Zr2 2.615555 1_555
Ni0 Zr3 2.615555 1_555
Ni0 Zr1 2.615555 1_555
Ni0 Zr7 2.616249 1_655
Ni0 Zr5 2.616254 1_655
Ni0 Zr8 2.616254 1_655
Ni0 Zr15 3.209497 1_555
Ni0 Zr10 3.209497 1_555
Ni0 Zr12 3.209512 1_555
Ni1 Zr9 2.581522 1_565
Ni1 Zr6 2.581534 1_565
Ni1 Zr5 2.606249 1_565
Ni1 Zr3 2.606558 1_555
Ni1 Zr2 2.606564 1_555
Ni1 Zr0 2.672257 1_555
Ni1 Zr10 3.151965 1_555
Ni1 Zr13 3.238997 1_555
Ni1 Zr14 3.239005 1_555
Ni2 Zr4 2.581539 1_555
Ni2 Zr9 2.581539 1_555
Ni2 Zr7 2.606249 1_555
Ni2 Zr1 2.606564 1_555
Ni2 Zr3 2.606564 1_555
Ni2 Zr0 2.672270 1_555
Ni2 Zr12 3.151967 1_555
Ni2 Zr14 3.239000 1_555
Ni2 Zr11 3.239000 1_555
Ni3 Zr4 2.581522 1_556
Ni3 Zr6 2.581534 1_556
Ni3 Zr8 2.606249 1_556
Ni3 Zr1 2.606558 1_555
Ni3 Zr2 2.606564 1_555
Ni3 Zr0 2.672257 1_555
Ni3 Zr15 3.151965 1_555
Ni3 Zr13 3.238997 1_555
Ni3 Zr11 3.239005 1_555
Pt0 Ta1 2.913014 1_555
Pt0 Ta0 2.913018 1_555
Pt0 Ta2 2.913018 1_555
Pt0 Zr11 3.008597 1_565
Pt0 Zr14 3.008597 1_556
Pt0 Zr13 3.008607 1_555
Pt0 Zr6 3.072781 1_566
Pt0 Zr9 3.072803 1_565
Pt0 Zr4 3.072803 1_556
Pt0 Zr3 3.125387 1_556
Pt0 Zr1 3.125387 1_565
Pt0 Zr2 3.125387 1_555
