# generated using pymatgen
data_Ca8V(PN4)3
_symmetry_space_group_name_H-M   'P 1'
_cell_length_a   5.81246398
_cell_length_b   5.81922065
_cell_length_c   11.40800840
_cell_angle_alpha   89.67971114
_cell_angle_beta   90.23391692
_cell_angle_gamma   125.98499280
_symmetry_Int_Tables_number   1
_chemical_formula_structural   Ca8V(PN4)3
_chemical_formula_sum   'Ca8 V1 P3 N12'
_cell_volume   312.22537982
_cell_formula_units_Z   1
loop_
 _symmetry_equiv_pos_site_id
 _symmetry_equiv_pos_as_xyz
  1  'x, y, z'
loop_
 _atom_site_type_symbol
 _atom_site_label
 _atom_site_symmetry_multiplicity
 _atom_site_fract_x
 _atom_site_fract_y
 _atom_site_fract_z
 _atom_site_occupancy
  Ca  Ca0  1  0.63830628  0.86043605  0.07128543  1
  Ca  Ca1  1  0.44322411  0.05944458  0.35972032  1
  Ca  Ca2  1  0.05225771  0.44631543  0.85751473  1
  Ca  Ca3  1  0.54775676  0.95294165  0.64797384  1
  Ca  Ca4  1  0.36240945  0.13339020  0.92305958  1
  Ca  Ca5  1  0.86341160  0.63737570  0.58027403  1
  Ca  Ca6  1  0.14220831  0.36291458  0.43027990  1
  Ca  Ca7  1  0.94820113  0.54725883  0.14095667  1
  V  V0  1  0.75478808  0.74979842  0.33465590  1
  P  P0  1  0.74405508  0.75362007  0.83451090  1
  P  P1  1  0.24285287  0.25669222  0.66790679  1
  P  P2  1  0.25527997  0.24343222  0.15615631  1
  N  N0  1  0.03712180  0.96131727  0.75068414  1
  N  N1  1  0.97685402  0.05715197  0.24270264  1
  N  N2  1  0.53688071  0.46063842  0.75128650  1
  N  N3  1  0.45530906  0.52298727  0.24025147  1
  N  N4  1  0.40683400  0.08384819  0.13554290  1
  N  N5  1  0.92463200  0.58648592  0.36783929  1
  N  N6  1  0.58941152  0.90770065  0.85940291  1
  N  N7  1  0.08813528  0.41111205  0.64358384  1
  N  N8  1  0.83999093  0.65844106  0.94739131  1
  N  N9  1  0.65092463  0.84558010  0.46033532  1
  N  N10  1  0.16149054  0.33694248  0.04220901  1
  N  N11  1  0.33766417  0.16417468  0.55447825  1
loop_
_geom_bond_atom_site_label_1
_geom_bond_atom_site_label_2
_geom_bond_distance
_geom_bond_site_symmetry_2
Ca0 N6 2.465337 1_554
Ca0 N4 2.472242 1_565
Ca0 N3 2.494565 1_555
Ca0 N1 2.520556 1_565
Ca0 N8 2.530813 1_554
Ca0 N10 2.671199 1_665
Ca0 N10 2.674592 1_555
Ca1 N9 2.462133 1_545
Ca1 N11 2.479915 1_555
Ca1 N4 2.575289 1_555
Ca1 N5 2.630541 1_445
Ca1 N5 2.675948 1_555
Ca2 N10 2.386752 1_556
Ca2 N8 2.431357 1_455
Ca2 N7 2.470135 1_555
Ca2 N6 2.665771 1_555
Ca2 N6 2.674448 1_445
Ca3 N9 2.407842 1_555
Ca3 N11 2.424559 1_565
Ca3 N6 2.451252 1_555
Ca3 N7 2.671193 1_665
Ca3 N7 2.680130 1_555
Ca4 N6 2.459269 1_545
Ca4 N4 2.469854 1_556
Ca4 N2 2.489968 1_555
Ca4 N0 2.492245 1_545
Ca4 N10 2.504208 1_556
Ca4 N8 2.659379 1_445
Ca4 N8 2.674762 1_555
Ca5 N7 2.442162 1_655
Ca5 N0 2.478012 1_655
Ca5 N2 2.485951 1_555
Ca5 N5 2.495269 1_555
Ca5 N9 2.567420 1_555
Ca5 N11 2.668464 1_555
Ca5 N11 2.673759 1_665
Ca6 N5 2.390642 1_455
Ca6 N11 2.479562 1_555
Ca6 N7 2.493235 1_555
Ca6 N1 2.585516 1_455
Ca6 N3 2.626164 1_555
Ca6 N9 2.644338 1_555
Ca6 N9 2.688677 1_445
Ca7 N10 2.472591 1_655
Ca7 N8 2.478150 1_554
Ca7 N5 2.610807 1_555
Ca7 N4 2.660395 1_665
Ca7 N4 2.684392 1_555
N0 P1 1.688731 1_565
N0 P0 1.690548 1_455
N1 P2 1.645731 1_655
N1 V0 1.800706 1_545
N2 P1 1.688157 1_555
N2 P0 1.689489 1_555
N3 P2 1.644464 1_555
N3 V0 1.797959 1_555
N4 P2 1.630691 1_555
N5 V0 1.765363 1_555
N6 P0 1.626212 1_555
N7 P1 1.624199 1_555
N8 P0 1.620215 1_555
N9 V0 1.772623 1_555
N10 P2 1.618015 1_555
N11 P1 1.621802 1_555
