# generated using pymatgen
data_Tc3Se4Br
_symmetry_space_group_name_H-M   'P 1'
_cell_length_a   11.86299984
_cell_length_b   6.63350751
_cell_length_c   11.50449163
_cell_angle_alpha   66.79533609
_cell_angle_beta   90.00000000
_cell_angle_gamma   90.00000000
_symmetry_Int_Tables_number   1
_chemical_formula_structural   Tc3Se4Br
_chemical_formula_sum   'Tc12 Se16 Br4'
_cell_volume   832.08844870
_cell_formula_units_Z   4
loop_
 _symmetry_equiv_pos_site_id
 _symmetry_equiv_pos_as_xyz
  1  'x, y, z'
loop_
 _atom_site_type_symbol
 _atom_site_label
 _atom_site_symmetry_multiplicity
 _atom_site_fract_x
 _atom_site_fract_y
 _atom_site_fract_z
 _atom_site_occupancy
  Tc  Tc0  1  0.51894906  0.29742855  0.43964883  1
  Tc  Tc1  1  0.43153146  0.02749522  0.35008051  1
  Tc  Tc2  1  0.35994825  0.02921507  0.56289118  1
  Tc  Tc3  1  0.48105094  0.70257145  0.56035117  1
  Tc  Tc4  1  0.01894906  0.70257145  0.06035117  1
  Tc  Tc5  1  0.98105094  0.29742855  0.93964883  1
  Tc  Tc6  1  0.56846854  0.97250478  0.64991949  1
  Tc  Tc7  1  0.06846854  0.02749522  0.85008051  1
  Tc  Tc8  1  0.64005175  0.97078493  0.43710882  1
  Tc  Tc9  1  0.93153146  0.97250478  0.14991949  1
  Tc  Tc10  1  0.85994825  0.97078493  0.93710882  1
  Tc  Tc11  1  0.14005175  0.02921507  0.06289118  1
  Se  Se0  1  0.67809291  0.65831539  0.64354860  1
  Se  Se1  1  0.55415012  0.72380728  0.34212547  1
  Se  Se2  1  0.94584988  0.72380728  0.84212547  1
  Se  Se3  1  0.28413877  0.76589425  0.47775418  1
  Se  Se4  1  0.78413877  0.23410575  0.02224582  1
  Se  Se5  1  0.91338267  0.28531459  0.73719797  1
  Se  Se6  1  0.08661733  0.71468541  0.26280203  1
  Se  Se7  1  0.71586123  0.23410575  0.52224582  1
  Se  Se8  1  0.05415012  0.27619272  0.15787453  1
  Se  Se9  1  0.44584988  0.27619272  0.65787453  1
  Se  Se10  1  0.41338267  0.71468541  0.76280203  1
  Se  Se11  1  0.32190709  0.34168461  0.35645140  1
  Se  Se12  1  0.17809291  0.34168461  0.85645140  1
  Se  Se13  1  0.58661733  0.28531459  0.23719797  1
  Se  Se14  1  0.82190709  0.65831539  0.14354860  1
  Se  Se15  1  0.21586123  0.76589425  0.97775418  1
  Br  Br0  1  0.65146088  0.91551300  0.87323500  1
  Br  Br1  1  0.84853912  0.91551300  0.37323500  1
  Br  Br2  1  0.34853912  0.08448700  0.12676500  1
  Br  Br3  1  0.15146088  0.08448700  0.62676500  1
loop_
_geom_bond_atom_site_label_1
_geom_bond_atom_site_label_2
_geom_bond_distance
_geom_bond_site_symmetry_2
Se0 Tc6 2.482092 1_555
Se0 Tc3 2.498965 1_555
Se0 Tc8 2.502250 1_555
Se1 Tc8 2.515440 1_555
Se1 Tc1 2.515526 1_565
Se1 Tc3 2.606939 1_555
Se1 Tc0 2.632917 1_555
Se2 Tc10 2.515440 1_555
Se2 Tc7 2.515526 1_665
Se2 Tc4 2.606939 1_656
Se2 Tc5 2.632917 1_555
Se3 Tc2 2.483434 1_565
Se3 Tc1 2.493496 1_565
Se3 Tc3 2.494314 1_555
Se4 Tc10 2.483434 1_544
Se4 Tc9 2.493496 1_545
Se4 Tc5 2.494314 1_554
Se5 Tc5 2.494601 1_555
Se5 Tc7 2.499203 1_655
Se5 Tc10 2.502606 1_545
Se6 Tc4 2.494601 1_555
Se6 Tc9 2.499203 1_455
Se6 Tc11 2.502606 1_565
Se7 Tc8 2.483434 1_545
Se7 Tc6 2.493496 1_545
Se7 Tc0 2.494314 1_555
Se8 Tc11 2.515440 1_555
Se8 Tc9 2.515526 1_445
Se8 Tc5 2.606939 1_454
Se8 Tc4 2.632917 1_555
Se9 Tc2 2.515440 1_555
Se9 Tc6 2.515526 1_545
Se9 Tc0 2.606939 1_555
Se9 Tc3 2.632917 1_555
Se10 Tc3 2.494601 1_555
Se10 Tc6 2.499203 1_555
Se10 Tc2 2.502606 1_565
Se11 Tc1 2.482092 1_555
Se11 Tc0 2.498965 1_555
Se11 Tc2 2.502250 1_555
Se12 Tc7 2.482092 1_555
Se12 Tc5 2.498965 1_455
Se12 Tc11 2.502250 1_556
Se13 Tc0 2.494601 1_555
Se13 Tc1 2.499203 1_555
Se13 Tc8 2.502606 1_545
Se14 Tc9 2.482092 1_555
Se14 Tc4 2.498965 1_655
Se14 Tc10 2.502250 1_554
Se15 Tc11 2.483434 1_566
Se15 Tc7 2.493496 1_565
Se15 Tc4 2.494314 1_556
Br0 Tc6 2.635770 1_555
Br0 Tc10 2.646483 1_555
Br1 Tc9 2.635770 1_555
Br1 Tc8 2.646483 1_555
Br2 Tc1 2.635770 1_555
Br2 Tc11 2.646483 1_555
Br3 Tc7 2.635770 1_555
Br3 Tc2 2.646483 1_555
