# generated using pymatgen
data_Th3As4
_symmetry_space_group_name_H-M   'P 1'
_cell_length_a   7.71057235
_cell_length_b   7.71057228
_cell_length_c   7.71057206
_cell_angle_alpha   109.47122009
_cell_angle_beta   109.47121990
_cell_angle_gamma   109.47122156
_symmetry_Int_Tables_number   1
_chemical_formula_structural   Th3As4
_chemical_formula_sum   'Th6 As8'
_cell_volume   352.88885327
_cell_formula_units_Z   2
loop_
 _symmetry_equiv_pos_site_id
 _symmetry_equiv_pos_as_xyz
  1  'x, y, z'
loop_
 _atom_site_type_symbol
 _atom_site_label
 _atom_site_symmetry_multiplicity
 _atom_site_fract_x
 _atom_site_fract_y
 _atom_site_fract_z
 _atom_site_occupancy
  Th  Th0  1  0.75000000  0.87500000  0.12500000  1
  Th  Th1  1  0.62500000  0.37500000  0.25000000  1
  Th  Th2  1  0.87500000  0.12500000  0.75000000  1
  Th  Th3  1  0.12500000  0.75000000  0.87500000  1
  Th  Th4  1  0.37500000  0.25000000  0.62500000  1
  Th  Th5  1  0.25000000  0.62500000  0.37500000  1
  As  As0  1  0.65610720  0.65610720  0.65610720  1
  As  As1  1  0.34389280  0.50000000  0.00000000  1
  As  As2  1  0.50000000  -0.00000000  0.34389280  1
  As  As3  1  -0.00000000  0.34389280  0.50000000  1
  As  As4  1  0.50000000  -0.00000000  0.84389280  1
  As  As5  1  -0.00000000  0.84389280  0.50000000  1
  As  As6  1  0.15610720  0.15610720  0.15610720  1
  As  As7  1  0.84389280  0.50000000  0.00000000  1
loop_
_geom_bond_atom_site_label_1
_geom_bond_atom_site_label_2
_geom_bond_distance
_geom_bond_site_symmetry_2
As0 Th1 3.031285 1_555
As0 Th4 3.031285 1_555
As0 Th5 3.031285 1_555
As0 Th0 3.133126 1_556
As0 Th2 3.133126 1_565
As0 Th3 3.133126 1_655
As1 Th4 3.031285 1_554
As1 Th0 3.031285 1_555
As1 Th1 3.031285 1_555
As1 Th5 3.133126 1_555
As1 Th3 3.133126 1_554
As1 Th2 3.133126 1_454
As2 Th5 3.031285 1_545
As2 Th4 3.031285 1_555
As2 Th2 3.031285 1_555
As2 Th1 3.133126 1_555
As2 Th3 3.133126 1_544
As2 Th0 3.133126 1_545
As3 Th5 3.031285 1_555
As3 Th3 3.031285 1_555
As3 Th1 3.031285 1_455
As3 Th2 3.133126 1_455
As3 Th0 3.133126 1_445
As3 Th4 3.133126 1_555
As4 Th1 3.031285 1_556
As4 Th3 3.031285 1_545
As4 Th0 3.031285 1_546
As4 Th5 3.133126 1_545
As4 Th4 3.133126 1_555
As4 Th2 3.133126 1_555
As5 Th0 3.031285 1_455
As5 Th2 3.031285 1_465
As5 Th4 3.031285 1_565
As5 Th3 3.133126 1_555
As5 Th1 3.133126 1_455
As5 Th5 3.133126 1_555
As6 Th2 3.031285 1_454
As6 Th3 3.031285 1_544
As6 Th0 3.031285 1_445
As6 Th4 3.133126 1_555
As6 Th5 3.133126 1_555
As6 Th1 3.133126 1_555
As7 Th3 3.031285 1_654
As7 Th2 3.031285 1_554
As7 Th5 3.031285 1_655
As7 Th1 3.133126 1_555
As7 Th4 3.133126 1_554
As7 Th0 3.133126 1_555
