# generated using pymatgen
data_Lu12GaCo4Sn
_symmetry_space_group_name_H-M   'P 1'
_cell_length_a   8.07342373
_cell_length_b   8.07342487
_cell_length_c   8.07342478
_cell_angle_alpha   111.62600187
_cell_angle_beta   109.46548477
_cell_angle_gamma   107.35039964
_symmetry_Int_Tables_number   1
_chemical_formula_structural   Lu12GaCo4Sn
_chemical_formula_sum   'Lu12 Ga1 Co4 Sn1'
_cell_volume   404.52589784
_cell_formula_units_Z   1
loop_
 _symmetry_equiv_pos_site_id
 _symmetry_equiv_pos_as_xyz
  1  'x, y, z'
loop_
 _atom_site_type_symbol
 _atom_site_label
 _atom_site_symmetry_multiplicity
 _atom_site_fract_x
 _atom_site_fract_y
 _atom_site_fract_z
 _atom_site_occupancy
  Lu  Lu0  1  0.43559044  0.23233251  0.20325793  1
  Lu  Lu1  1  0.56440956  0.76766749  0.79674207  1
  Lu  Lu2  1  0.02907358  0.23233251  0.79674207  1
  Lu  Lu3  1  0.97092642  0.76766749  0.20325793  1
  Lu  Lu4  1  0.18112357  0.28058292  0.46170749  1
  Lu  Lu5  1  0.81887643  0.71941708  0.53829251  1
  Lu  Lu6  1  0.18112357  0.71941708  0.90054065  1
  Lu  Lu7  1  0.81887643  0.28058292  0.09945935  1
  Lu  Lu8  1  0.32498363  0.63779874  0.31281611  1
  Lu  Lu9  1  0.67501637  0.36220126  0.68718389  1
  Lu  Lu10  1  0.32498363  0.01216752  0.68718389  1
  Lu  Lu11  1  0.67501637  0.98783248  0.31281611  1
  Ga  Ga0  1  0.00000000  0.00000000  0.00000000  1
  Co  Co0  1  0.34378904  0.00000000  0.34378904  1
  Co  Co1  1  0.65621096  1.00000000  0.65621096  1
  Co  Co2  1  0.11475416  0.61475416  0.50000000  1
  Co  Co3  1  0.88524584  0.38524584  0.50000000  1
  Sn  Sn0  1  0.50000000  0.50000000  0.00000000  1
loop_
_geom_bond_atom_site_label_1
_geom_bond_atom_site_label_2
_geom_bond_distance
_geom_bond_site_symmetry_2
Lu0 Sn0 3.185198 1_555
Lu0 Lu9 3.292182 1_555
Lu0 Lu11 3.292184 1_545
Lu0 Lu6 3.385456 1_544
Lu0 Lu4 3.385462 1_555
Lu0 Lu5 3.417522 1_555
Lu0 Lu7 3.417523 1_555
Lu0 Lu8 3.525795 1_555
Lu0 Lu10 3.525803 1_554
Lu1 Sn0 3.185198 1_556
Lu1 Lu8 3.292182 1_555
Lu1 Lu10 3.292184 1_565
Lu1 Lu7 3.385456 1_566
Lu1 Lu5 3.385462 1_555
Lu1 Lu4 3.417522 1_555
Lu1 Lu6 3.417523 1_555
Lu1 Lu9 3.525795 1_555
Lu1 Lu11 3.525803 1_556
Lu2 Sn0 3.185204 1_556
Lu2 Lu9 3.292183 1_455
Lu2 Lu7 3.385450 1_456
Lu2 Lu5 3.385457 1_445
Lu2 Lu4 3.417520 1_555
Lu2 Lu6 3.417523 1_555
Lu2 Lu8 3.525800 1_556
Lu3 Sn0 3.185204 1_555
Lu3 Lu8 3.292183 1_655
Lu3 Lu6 3.385450 1_654
Lu3 Lu4 3.385457 1_665
Lu3 Lu5 3.417520 1_555
Lu3 Lu7 3.417523 1_555
Lu3 Lu9 3.525800 1_554
Lu4 Lu7 3.377252 1_455
Lu4 Lu9 3.515457 1_555
Lu4 Lu8 3.549521 1_555
Lu4 Sn0 3.577866 1_556
Lu5 Lu6 3.377252 1_655
Lu5 Lu8 3.515457 1_555
Lu5 Lu9 3.549521 1_555
Lu5 Sn0 3.577866 1_555
Lu6 Lu8 3.515466 1_556
Lu6 Lu9 3.549519 1_455
Lu6 Sn0 3.577872 1_556
Lu7 Lu9 3.515466 1_554
Lu7 Lu8 3.549519 1_655
Lu7 Sn0 3.577872 1_555
Lu8 Sn0 3.295032 1_555
Lu9 Sn0 3.295032 1_556
Lu10 Lu3 3.292182 1_445
Lu10 Sn0 3.295034 1_556
Lu10 Lu4 3.515456 1_555
Lu10 Lu7 3.515461 1_556
Lu10 Lu2 3.525810 1_555
Lu10 Lu5 3.549519 1_445
Lu10 Lu6 3.549522 1_545
Lu11 Lu2 3.292182 1_665
Lu11 Sn0 3.295034 1_555
Lu11 Lu5 3.515456 1_555
Lu11 Lu6 3.515461 1_554
Lu11 Lu3 3.525810 1_555
Lu11 Lu4 3.549519 1_665
Lu11 Lu7 3.549522 1_565
Ga0 Lu2 2.920475 1_554
Ga0 Lu3 2.920475 1_445
Ga0 Lu0 2.920475 1_555
Ga0 Lu1 2.920475 1_444
Ga0 Lu7 3.054826 1_455
Ga0 Lu6 3.054826 1_544
Ga0 Lu4 3.054833 1_555
Ga0 Lu5 3.054833 1_444
Co0 Lu3 2.579679 1_445
Co0 Lu0 2.579686 1_555
Co0 Lu11 2.794178 1_545
Co0 Lu10 2.794179 1_555
Co0 Lu9 2.794182 1_555
Co0 Lu8 2.794187 1_545
Co0 Co1 2.912724 1_545
Co0 Lu6 2.963174 1_544
Co0 Lu4 2.963176 1_555
Co0 Ga0 3.205161 1_555
Co1 Lu2 2.579679 1_665
Co1 Lu1 2.579686 1_555
Co1 Lu10 2.794178 1_565
Co1 Lu11 2.794179 1_555
Co1 Lu8 2.794182 1_555
Co1 Lu9 2.794187 1_565
Co1 Lu7 2.963174 1_566
Co1 Lu5 2.963176 1_555
Co1 Ga0 3.205161 1_666
Co2 Co3 2.195196 1_455
Co2 Lu8 2.632014 1_555
Co2 Lu10 2.632015 1_565
Co2 Lu5 2.831818 1_455
Co2 Lu7 2.831820 1_455
Co2 Lu6 2.831820 1_555
Co2 Lu4 2.831822 1_555
Co2 Lu3 3.129358 1_455
Co2 Lu1 3.129360 1_555
Co3 Lu9 2.632014 1_555
Co3 Lu11 2.632015 1_545
Co3 Lu4 2.831818 1_655
Co3 Lu6 2.831820 1_655
Co3 Lu7 2.831820 1_555
Co3 Lu5 2.831822 1_555
Co3 Lu2 3.129358 1_655
Co3 Lu0 3.129360 1_555
