# generated using pymatgen
data_Rb4Mn3Zn3Te8
_symmetry_space_group_name_H-M   'P 1'
_cell_length_a   10.35126491
_cell_length_b   10.33895501
_cell_length_c   10.35126470
_cell_angle_alpha   143.82603495
_cell_angle_beta   105.46281244
_cell_angle_gamma   85.81550389
_symmetry_Int_Tables_number   1
_chemical_formula_structural   Rb4Mn3Zn3Te8
_chemical_formula_sum   'Rb4 Mn3 Zn3 Te8'
_cell_volume   610.18191140
_cell_formula_units_Z   1
loop_
 _symmetry_equiv_pos_site_id
 _symmetry_equiv_pos_as_xyz
  1  'x, y, z'
loop_
 _atom_site_type_symbol
 _atom_site_label
 _atom_site_symmetry_multiplicity
 _atom_site_fract_x
 _atom_site_fract_y
 _atom_site_fract_z
 _atom_site_occupancy
  Rb  Rb0  1  0.12546707  0.26597134  0.38912683  1
  Rb  Rb1  1  0.87508895  0.73632837  0.61170164  1
  Rb  Rb2  1  0.62315549  0.23402866  0.85949473  1
  Rb  Rb3  1  0.37537427  0.76367163  0.13876158  1
  Mn  Mn0  1  0.48686184  0.75000000  0.73686184  1
  Mn  Mn1  1  0.98502375  0.25000000  0.73502375  1
  Mn  Mn2  1  0.01187182  0.75000000  0.26187182  1
  Zn  Zn0  1  0.24857116  0.25000000  0.99857116  1
  Zn  Zn1  1  0.74814428  0.75000000  0.99814428  1
  Zn  Zn2  1  0.51821857  0.25000000  0.26821857  1
  Te  Te0  1  0.48276510  0.57571789  0.35219416  1
  Te  Te1  1  0.52070262  0.41022236  0.63723910  1
  Te  Te2  1  0.22885210  0.12637917  0.64446782  1
  Te  Te3  1  0.27647627  0.92428211  0.90704721  1
  Te  Te4  1  0.76841523  0.87215566  0.35206274  1
  Te  Te5  1  0.72701674  0.08977764  0.11048025  1
  Te  Te6  1  0.01808866  0.37362083  0.10247294  1
  Te  Te7  1  0.97990808  0.62784434  0.89626057  1
loop_
_geom_bond_atom_site_label_1
_geom_bond_atom_site_label_2
_geom_bond_distance
_geom_bond_site_symmetry_2
Rb0 Te2 3.826103 1_555
Rb0 Te1 3.829088 1_555
Rb0 Te6 3.830297 1_555
Rb0 Te3 3.836342 1_544
Rb0 Te7 3.851819 1_444
Rb0 Te5 3.862549 1_455
Rb0 Te7 3.938475 1_455
Rb0 Te3 3.960302 1_555
Rb1 Te0 3.798831 1_555
Rb1 Te7 3.816216 1_555
Rb1 Te4 3.833940 1_555
Rb1 Te6 3.845305 1_666
Rb1 Te3 3.898639 1_655
Rb1 Te5 3.900599 1_555
Rb1 Te5 3.911749 1_566
Rb1 Te6 3.934004 1_655
Rb2 Te6 3.826104 1_656
Rb2 Te5 3.829098 1_556
Rb2 Te2 3.830297 1_555
Rb2 Te0 3.836349 1_556
Rb2 Te4 3.851818 1_556
Rb2 Te1 3.862540 1_555
Rb2 Te4 3.938468 1_545
Rb2 Te0 3.960304 1_545
Rb3 Te3 3.798841 1_554
Rb3 Te4 3.816196 1_555
Rb3 Te7 3.833940 1_454
Rb3 Te2 3.845305 1_554
Rb3 Te0 3.898629 1_555
Rb3 Te1 3.900599 1_565
Rb3 Te1 3.911749 1_554
Rb3 Te2 3.934004 1_565
Mn0 Te3 2.727832 1_555
Mn0 Te0 2.727832 1_555
Mn0 Te1 2.773332 1_555
Mn0 Te5 2.773332 1_566
Mn1 Te7 2.745894 1_555
Mn1 Te4 2.745900 1_545
Mn1 Te6 2.781906 1_656
Mn1 Te2 2.781906 1_655
Mn2 Te6 2.742896 1_555
Mn2 Te2 2.742896 1_565
Mn2 Te7 2.775591 1_454
Mn2 Te4 2.775599 1_455
Te0 Zn0 2.678578 1_554
Te0 Zn2 2.737639 1_555
Te1 Zn2 2.659689 1_555
Te1 Zn1 2.677558 1_555
Te2 Zn0 2.680713 1_555
Te3 Zn0 2.678577 1_565
Te3 Zn2 2.737639 1_566
Te4 Zn1 2.686868 1_554
Te5 Zn2 2.659689 1_555
Te5 Zn1 2.677558 1_544
Te6 Zn0 2.680713 1_554
Te7 Zn1 2.686876 1_555
