# generated using pymatgen
data_Li7Pb2
_symmetry_space_group_name_H-M   'P 1'
_cell_length_a   4.70690448
_cell_length_b   4.70690360
_cell_length_c   8.52756341
_cell_angle_alpha   90.00000000
_cell_angle_beta   90.00000000
_cell_angle_gamma   119.99999919
_symmetry_Int_Tables_number   1
_chemical_formula_structural   Li7Pb2
_chemical_formula_sum   'Li7 Pb2'
_cell_volume   163.61619215
_cell_formula_units_Z   1
loop_
 _symmetry_equiv_pos_site_id
 _symmetry_equiv_pos_as_xyz
  1  'x, y, z'
loop_
 _atom_site_type_symbol
 _atom_site_label
 _atom_site_symmetry_multiplicity
 _atom_site_fract_x
 _atom_site_fract_y
 _atom_site_fract_z
 _atom_site_occupancy
  Li  Li0  1  -0.00000000  -0.00000000  -0.00000000  1
  Li  Li1  1  -0.00000000  -0.00000000  0.32091980  1
  Li  Li2  1  0.00000000  -0.00000000  0.67908020  1
  Li  Li3  1  0.33333300  0.66666700  0.57729389  1
  Li  Li4  1  0.66666700  0.33333300  0.42270611  1
  Li  Li5  1  0.33333300  0.66666700  0.89816540  1
  Li  Li6  1  0.66666700  0.33333300  0.10183460  1
  Pb  Pb0  1  0.33333300  0.66666700  0.23701999  1
  Pb  Pb1  1  0.66666700  0.33333300  0.76298001  1
loop_
_geom_bond_atom_site_label_1
_geom_bond_atom_site_label_2
_geom_bond_distance
_geom_bond_site_symmetry_2
Li0 Li1 2.736664 1_555
Li0 Li2 2.736664 1_554
Li0 Li6 2.852909 1_455
Li0 Li5 2.852909 1_544
Li0 Li6 2.852912 1_445
Li0 Li5 2.852912 1_554
Li0 Li5 2.852913 1_444
Li0 Li6 2.852913 1_555
Li0 Pb1 3.386773 1_454
Li0 Pb0 3.386773 1_545
Li0 Pb1 3.386776 1_444
Li0 Pb0 3.386776 1_555
Li0 Pb1 3.386776 1_554
Li0 Pb0 3.386776 1_445
Li1 Pb0 2.810134 1_545
Li1 Pb0 2.810137 1_555
Li1 Pb0 2.810138 1_445
Li2 Pb1 2.810134 1_455
Li2 Pb1 2.810137 1_445
Li2 Pb1 2.810138 1_555
Li3 Pb0 2.901707 1_555
Li3 Pb1 3.145200 1_565
Li3 Pb1 3.145200 1_455
Li3 Pb1 3.145207 1_555
Li4 Pb1 2.901707 1_555
Li4 Pb0 3.145200 1_545
Li4 Pb0 3.145200 1_655
Li4 Pb0 3.145207 1_555
Li5 Pb0 2.889604 1_556
Li5 Pb1 2.951935 1_565
Li5 Pb1 2.951935 1_455
Li5 Pb1 2.951942 1_555
Li6 Pb1 2.889604 1_554
Li6 Pb0 2.951935 1_545
Li6 Pb0 2.951935 1_655
Li6 Pb0 2.951942 1_555
