# generated using pymatgen
data_BaYCr4N7
_symmetry_space_group_name_H-M   'P 1'
_cell_length_a   6.24615412
_cell_length_b   6.24615379
_cell_length_c   10.24818856
_cell_angle_alpha   90.00000000
_cell_angle_beta   90.00000000
_cell_angle_gamma   120.00000699
_symmetry_Int_Tables_number   1
_chemical_formula_structural   BaYCr4N7
_chemical_formula_sum   'Ba2 Y2 Cr8 N14'
_cell_volume   346.26060027
_cell_formula_units_Z   2
loop_
 _symmetry_equiv_pos_site_id
 _symmetry_equiv_pos_as_xyz
  1  'x, y, z'
loop_
 _atom_site_type_symbol
 _atom_site_label
 _atom_site_symmetry_multiplicity
 _atom_site_fract_x
 _atom_site_fract_y
 _atom_site_fract_z
 _atom_site_occupancy
  Ba  Ba0  1  0.33333300  0.66666700  0.36400258  1
  Ba  Ba1  1  0.66666700  0.33333300  0.86400258  1
  Y  Y0  1  0.33333300  0.66666700  0.73643008  1
  Y  Y1  1  0.66666700  0.33333300  0.23643008  1
  Cr  Cr0  1  0.83022566  0.66045031  0.54869438  1
  Cr  Cr1  1  0.16977434  0.83022566  0.04869438  1
  Cr  Cr2  1  0.66045031  0.83022566  0.04869438  1
  Cr  Cr3  1  0.33954969  0.16977434  0.54869438  1
  Cr  Cr4  1  0.83022566  0.16977434  0.54869438  1
  Cr  Cr5  1  0.16977434  0.33954969  0.04869438  1
  Cr  Cr6  1  0.00000000  0.00000000  0.80835509  1
  Cr  Cr7  1  0.00000000  0.00000000  0.30835509  1
  N  N0  1  0.00000000  0.00000000  0.61930212  1
  N  N1  1  0.00000000  0.00000000  0.11930212  1
  N  N2  1  0.15673924  0.31347747  0.87029160  1
  N  N3  1  0.84326076  0.15673924  0.37029160  1
  N  N4  1  0.31347747  0.15673924  0.37029160  1
  N  N5  1  0.68652253  0.84326076  0.87029160  1
  N  N6  1  0.15673924  0.84326076  0.87029160  1
  N  N7  1  0.84326076  0.68652253  0.37029160  1
  N  N8  1  0.98247768  0.49123934  0.60295173  1
  N  N9  1  0.49123934  0.98247768  0.10295173  1
  N  N10  1  0.49123934  0.50876066  0.10295173  1
  N  N11  1  0.50876066  0.49123934  0.60295173  1
  N  N12  1  0.01752232  0.50876066  0.10295173  1
  N  N13  1  0.50876066  0.01752232  0.60295173  1
loop_
_geom_bond_atom_site_label_1
_geom_bond_atom_site_label_2
_geom_bond_distance
_geom_bond_site_symmetry_2
Ba0 N13 3.098160 1_565
Ba0 N8 3.098160 1_455
Ba0 N11 3.098160 1_555
Ba0 N3 3.125588 1_455
Ba0 N3 3.125588 1_565
Ba0 N4 3.125588 1_555
Ba0 N4 3.125588 1_565
Ba0 N7 3.125588 1_555
Ba0 N7 3.125588 1_455
Ba0 N9 3.174207 1_555
Ba0 N12 3.174207 1_555
Ba0 N10 3.174213 1_555
Ba1 N9 3.098160 1_546
Ba1 N12 3.098160 1_656
Ba1 N10 3.098160 1_556
Ba1 N6 3.125588 1_655
Ba1 N6 3.125588 1_545
Ba1 N5 3.125588 1_555
Ba1 N5 3.125588 1_545
Ba1 N2 3.125588 1_555
Ba1 N2 3.125588 1_655
Ba1 N13 3.174207 1_555
Ba1 N8 3.174207 1_555
Ba1 N11 3.174213 1_555
Cr0 N8 1.826405 1_555
Cr0 N11 1.826415 1_555
Cr0 N7 1.833737 1_555
Cr0 N0 1.974132 1_665
Cr1 N12 1.826415 1_555
Cr1 N9 1.826415 1_555
Cr1 N6 1.833736 1_554
Cr1 N1 1.974127 1_565
Cr2 N9 1.826405 1_555
Cr2 N10 1.826415 1_555
Cr2 N5 1.833737 1_554
Cr2 N1 1.974132 1_665
Cr3 N13 1.826405 1_555
Cr3 N11 1.826415 1_555
Cr3 N4 1.833737 1_555
Cr3 N0 1.974132 1_555
Cr4 N8 1.826415 1_555
Cr4 N13 1.826415 1_555
Cr4 N3 1.833736 1_555
Cr4 N0 1.974127 1_655
Cr5 N12 1.826405 1_555
Cr5 N10 1.826415 1_555
Cr5 N2 1.833737 1_554
Cr5 N1 1.974132 1_555
Cr6 N2 1.810607 1_555
Cr6 N5 1.810607 1_445
Cr6 N6 1.810612 1_545
Cr6 N0 1.937450 1_555
Cr7 N7 1.810607 1_445
Cr7 N4 1.810607 1_555
Cr7 N3 1.810612 1_455
Cr7 N1 1.937450 1_555
N2 Y0 2.352024 1_555
N3 Y1 2.352016 1_555
N4 Y1 2.352024 1_555
N5 Y0 2.352024 1_555
N6 Y0 2.352016 1_555
N7 Y1 2.352024 1_555
N8 Y0 2.339481 1_655
N9 Y1 2.339481 1_565
N10 Y1 2.339481 1_555
N11 Y0 2.339481 1_555
N12 Y1 2.339481 1_455
N13 Y0 2.339481 1_545
