# generated using pymatgen
data_Ba10NbReN10
_symmetry_space_group_name_H-M   'P 1'
_cell_length_a   8.17922118
_cell_length_b   8.17922052
_cell_length_c   9.56744396
_cell_angle_alpha   76.33400871
_cell_angle_beta   76.33401341
_cell_angle_gamma   97.12241827
_symmetry_Int_Tables_number   1
_chemical_formula_structural   Ba10NbReN10
_chemical_formula_sum   'Ba10 Nb1 Re1 N10'
_cell_volume   593.27107790
_cell_formula_units_Z   1
loop_
 _symmetry_equiv_pos_site_id
 _symmetry_equiv_pos_as_xyz
  1  'x, y, z'
loop_
 _atom_site_type_symbol
 _atom_site_label
 _atom_site_symmetry_multiplicity
 _atom_site_fract_x
 _atom_site_fract_y
 _atom_site_fract_z
 _atom_site_occupancy
  Ba  Ba0  1  0.39096628  0.39167296  0.38233867  1
  Ba  Ba1  1  0.60832704  0.60903372  0.61766133  1
  Ba  Ba2  1  0.66760976  0.66733610  0.00723457  1
  Ba  Ba3  1  0.33266390  0.33239024  0.99276543  1
  Ba  Ba4  1  0.91768357  0.92345702  0.20438993  1
  Ba  Ba5  1  0.07654298  0.08231643  0.79561007  1
  Ba  Ba6  1  0.56642055  0.10376011  0.74948893  1
  Ba  Ba7  1  0.89623989  0.43357945  0.25051107  1
  Ba  Ba8  1  0.44270385  0.90452989  0.24854090  1
  Ba  Ba9  1  0.09547011  0.55729615  0.75145910  1
  Nb  Nb0  1  0.75665431  0.24334569  0.00000000  1
  Re  Re0  1  0.24260216  0.75739784  1.00000000  1
  N  N0  1  0.65485961  0.65382201  0.30923783  1
  N  N1  1  0.34617799  0.34514039  0.69076217  1
  N  N2  1  0.71540175  0.00644084  0.98684645  1
  N  N3  1  0.99355916  0.28459825  0.01315355  1
  N  N4  1  0.28561636  0.97884573  0.01009768  1
  N  N5  1  0.02115427  0.71438364  0.98990232  1
  N  N6  1  0.39007776  0.73174465  0.83367200  1
  N  N7  1  0.26825535  0.60992224  0.16632700  1
  N  N8  1  0.59625674  0.26524337  0.18073672  1
  N  N9  1  0.73475663  0.40374326  0.81926228  1
loop_
_geom_bond_atom_site_label_1
_geom_bond_atom_site_label_2
_geom_bond_distance
_geom_bond_site_symmetry_2
Ba0 N0 2.678790 1_555
Ba0 N8 2.729802 1_555
Ba0 N1 2.812539 1_555
Ba0 N7 2.854180 1_555
Ba1 N1 2.678790 1_555
Ba1 N9 2.729796 1_555
Ba1 N0 2.812539 1_555
Ba1 N6 2.854174 1_555
Ba2 N2 2.706149 1_564
Ba2 N5 2.829299 1_654
Ba2 N0 2.841754 1_555
Ba2 N9 3.137395 1_554
Ba2 N6 3.138817 1_554
Ba2 N7 3.184231 1_555
Ba2 N8 3.224741 1_555
Ba3 N3 2.706149 1_456
Ba3 N4 2.829299 1_546
Ba3 N1 2.841754 1_555
Ba3 N8 3.137388 1_556
Ba3 N7 3.138811 1_556
Ba3 N6 3.184233 1_555
Ba3 N9 3.224744 1_555
Ba4 N0 2.692821 1_555
Ba4 N2 2.961109 1_564
Ba4 N3 2.985484 1_565
Ba4 N5 3.008002 1_654
Ba4 N4 3.055785 1_655
Ba5 N1 2.692821 1_555
Ba5 N3 2.961109 1_456
Ba5 N2 2.985484 1_455
Ba5 N4 3.008001 1_546
Ba5 N5 3.055784 1_545
Ba6 N2 2.823019 1_555
Ba6 N4 2.836230 1_546
Ba6 N1 2.880051 1_555
Ba6 N9 2.955025 1_555
Ba6 N6 3.031897 1_545
Ba7 N3 2.823019 1_555
Ba7 N5 2.836230 1_654
Ba7 N0 2.880051 1_555
Ba7 N8 2.955030 1_555
Ba7 N7 3.031897 1_655
Ba8 N2 2.802230 1_564
Ba8 N4 2.854484 1_555
Ba8 N0 2.889497 1_555
Ba8 N8 2.914545 1_565
Ba8 N7 3.005729 1_555
Ba9 N3 2.802229 1_456
Ba9 N5 2.854484 1_555
Ba9 N1 2.889497 1_555
Ba9 N9 2.914546 1_455
Ba9 N6 3.005723 1_555
N2 Nb0 1.964056 1_556
N3 Nb0 1.964056 1_555
N4 Re0 1.831539 1_554
N5 Re0 1.831540 1_555
N6 Re0 1.828905 1_555
N7 Re0 1.828897 1_554
N8 Nb0 1.968753 1_555
N9 Nb0 1.968760 1_556
