# generated using pymatgen
data_Y2Cd(P3Pd10)2
_symmetry_space_group_name_H-M   'P 1'
_cell_length_a   8.59947573
_cell_length_b   8.59947461
_cell_length_c   8.59947506
_cell_angle_alpha   59.99999454
_cell_angle_beta   59.99999883
_cell_angle_gamma   59.99999493
_symmetry_Int_Tables_number   1
_chemical_formula_structural   Y2Cd(P3Pd10)2
_chemical_formula_sum   'Y2 Cd1 P6 Pd20'
_cell_volume   449.67712805
_cell_formula_units_Z   1
loop_
 _symmetry_equiv_pos_site_id
 _symmetry_equiv_pos_as_xyz
  1  'x, y, z'
loop_
 _atom_site_type_symbol
 _atom_site_label
 _atom_site_symmetry_multiplicity
 _atom_site_fract_x
 _atom_site_fract_y
 _atom_site_fract_z
 _atom_site_occupancy
  Y  Y0  1  0.00000000  0.00000000  0.00000000  1
  Y  Y1  1  0.25000000  0.25000000  0.25000000  1
  Cd  Cd0  1  0.75000000  0.75000000  0.75000000  1
  P  P0  1  0.73527707  0.26472293  0.26472293  1
  P  P1  1  0.73527707  0.73527707  0.26472293  1
  P  P2  1  0.73527707  0.26472293  0.73527707  1
  P  P3  1  0.26472293  0.73527707  0.26472293  1
  P  P4  1  0.26472293  0.73527707  0.73527707  1
  P  P5  1  0.26472293  0.26472293  0.73527707  1
  Pd  Pd0  1  0.34338718  0.00170209  0.00170209  1
  Pd  Pd1  1  0.00170209  0.65320764  0.34338718  1
  Pd  Pd2  1  0.34338718  0.00170209  0.65320764  1
  Pd  Pd3  1  0.00170209  0.65320764  0.00170209  1
  Pd  Pd4  1  0.65320764  0.34338718  0.00170209  1
  Pd  Pd5  1  0.61771822  0.61771822  0.14684634  1
  Pd  Pd6  1  0.38588117  0.84235850  0.38588117  1
  Pd  Pd7  1  0.14684634  0.61771822  0.61771822  1
  Pd  Pd8  1  0.65320764  0.00170209  0.34338718  1
  Pd  Pd9  1  0.00170209  0.34338718  0.65320764  1
  Pd  Pd10  1  0.65320764  0.00170209  0.00170209  1
  Pd  Pd11  1  0.00170209  0.00170209  0.34338718  1
  Pd  Pd12  1  0.61771822  0.14684634  0.61771822  1
  Pd  Pd13  1  0.34338718  0.65320764  0.00170209  1
  Pd  Pd14  1  0.38588117  0.38588117  0.38588117  1
  Pd  Pd15  1  0.61771822  0.61771822  0.61771822  1
  Pd  Pd16  1  0.38588117  0.38588117  0.84235850  1
  Pd  Pd17  1  0.00170209  0.00170209  0.65320764  1
  Pd  Pd18  1  0.84235850  0.38588117  0.38588117  1
  Pd  Pd19  1  0.00170209  0.34338718  0.00170209  1
loop_
_geom_bond_atom_site_label_1
_geom_bond_atom_site_label_2
_geom_bond_distance
_geom_bond_site_symmetry_2
Cd0 Pd15 2.786427 1_555
Cd0 Pd12 2.786433 1_565
Cd0 Pd5 2.786433 1_556
Cd0 Pd7 2.786434 1_655
Cd0 Pd10 3.338379 1_566
Cd0 Pd3 3.338379 1_656
Cd0 Pd17 3.338379 1_665
Cd0 Pd19 3.338382 1_656
Cd0 Pd11 3.338382 1_665
Cd0 Pd0 3.338382 1_566
Cd0 Pd9 3.338386 1_655
Cd0 Pd4 3.338386 1_556
Cd0 Pd8 3.338386 1_565
Cd0 Pd1 3.338386 1_655
Cd0 Pd2 3.338386 1_565
Cd0 Pd13 3.338387 1_556
P0 Pd11 2.379162 1_655
P0 Pd19 2.379162 1_655
P0 Pd8 2.379167 1_555
P0 Pd4 2.379168 1_555
P0 Pd14 2.454259 1_555
P0 Pd18 2.454272 1_555
P0 Pd5 2.478536 1_555
P0 Pd12 2.478536 1_555
P0 Y0 3.219426 1_655
P1 Pd8 2.379159 1_565
P1 Pd1 2.379159 1_655
P1 Pd10 2.379164 1_565
P1 Pd3 2.379165 1_655
P1 Pd18 2.454258 1_555
P1 Pd6 2.454258 1_555
P1 Pd5 2.478529 1_555
P1 Pd15 2.478536 1_555
P1 Y0 3.219426 1_665
P2 Pd4 2.379159 1_556
P2 Pd9 2.379159 1_655
P2 Pd10 2.379164 1_556
P2 Pd17 2.379164 1_655
P2 Pd18 2.454258 1_555
P2 Pd16 2.454258 1_555
P2 Pd12 2.478529 1_555
P2 Pd15 2.478536 1_555
P2 Y0 3.219426 1_656
P3 Pd0 2.379162 1_565
P3 Pd11 2.379162 1_565
P3 Pd13 2.379168 1_555
P3 Pd1 2.379168 1_555
P3 Pd14 2.454258 1_555
P3 Pd6 2.454273 1_555
P3 Pd7 2.478536 1_555
P3 Pd5 2.478537 1_555
P3 Y0 3.219426 1_565
P4 Pd2 2.379159 1_565
P4 Pd13 2.379159 1_556
P4 Pd17 2.379164 1_565
P4 Pd3 2.379165 1_556
P4 Pd16 2.454258 1_555
P4 Pd6 2.454258 1_555
P4 Pd7 2.478529 1_555
P4 Pd15 2.478537 1_555
P4 Y0 3.219426 1_566
P5 Pd0 2.379162 1_556
P5 Pd19 2.379162 1_556
P5 Pd2 2.379167 1_555
P5 Pd9 2.379168 1_555
P5 Pd14 2.454259 1_555
P5 Pd16 2.454273 1_555
P5 Pd7 2.478536 1_555
P5 Pd12 2.478537 1_555
P5 Y0 3.219426 1_556
Pd0 Pd10 2.664294 1_555
Pd0 Pd19 2.938312 1_555
Pd0 Pd11 2.938312 1_555
Pd0 Y0 2.967659 1_555
Pd0 Pd13 2.996869 1_545
Pd0 Pd2 2.996869 1_554
Pd0 Pd5 3.009986 1_545
Pd0 Pd12 3.009986 1_554
Pd0 Pd16 3.017513 1_554
Pd0 Pd6 3.017513 1_545
Pd0 Y1 3.300463 1_555
Pd1 Pd9 2.664293 1_555
Pd1 Pd3 2.938312 1_555
Pd1 Pd13 2.938312 1_555
Pd1 Y0 2.967663 1_565
Pd1 Pd8 2.996869 1_465
Pd1 Pd11 2.996869 1_565
Pd1 Pd15 3.009982 1_455
Pd1 Pd7 3.009995 1_555
Pd1 Pd18 3.017490 1_455
Pd1 Pd14 3.017510 1_555
Pd1 Y1 3.300455 1_555
Pd2 Pd8 2.664293 1_555
Pd2 Pd9 2.938312 1_555
Pd2 Y0 2.967663 1_556
Pd2 Pd6 3.017490 1_545
Pd2 Y1 3.300455 1_555
Pd3 Y0 2.967667 1_565
Pd3 Pd7 3.009978 1_554
Pd3 Pd5 3.009979 1_455
Pd3 Y1 3.300459 1_555
Pd4 Pd8 2.938312 1_555
Pd4 Y0 2.967663 1_655
Pd4 Pd9 2.996869 1_654
Pd4 Pd5 3.009994 1_555
Pd4 Y1 3.300456 1_555
Pd6 Y1 2.862231 1_565
Pd6 Pd8 3.017490 1_565
Pd7 Pd9 3.009995 1_555
Pd8 Y0 2.967663 1_655
Pd8 Y1 3.300456 1_555
Pd9 Y0 2.967663 1_556
Pd9 Y1 3.300455 1_555
Pd10 Pd4 2.938312 1_555
Pd10 Pd8 2.938312 1_555
Pd10 Y0 2.967668 1_655
Pd10 Pd3 2.996869 1_645
Pd10 Pd17 2.996869 1_654
Pd10 Pd5 3.009978 1_545
Pd10 Pd12 3.009978 1_554
Pd10 Pd16 3.017502 1_554
Pd10 Pd6 3.017502 1_545
Pd10 Y1 3.300459 1_555
Pd11 Pd17 2.664293 1_555
Pd11 Pd19 2.938312 1_555
Pd11 Y0 2.967659 1_555
Pd11 Pd8 2.996870 1_455
Pd11 Pd7 3.009986 1_545
Pd11 Pd12 3.009986 1_455
Pd11 Pd18 3.017513 1_455
Pd11 Pd6 3.017514 1_545
Pd11 Y1 3.300463 1_555
Pd12 Pd17 3.009979 1_655
Pd12 Pd8 3.009995 1_555
Pd12 Pd2 3.009995 1_555
Pd13 Pd4 2.664293 1_555
Pd13 Pd3 2.938313 1_555
Pd13 Y0 2.967663 1_565
Pd13 Pd2 2.996869 1_564
Pd13 Pd15 3.009982 1_554
Pd13 Pd5 3.009995 1_555
Pd13 Pd16 3.017490 1_554
Pd13 Pd14 3.017509 1_555
Pd13 Y1 3.300455 1_555
Pd14 Y1 2.862245 1_555
Pd14 Pd2 3.017509 1_555
Pd14 Pd8 3.017509 1_555
Pd14 Pd4 3.017510 1_555
Pd14 Pd9 3.017510 1_555
Pd15 Pd8 3.009981 1_565
Pd15 Pd2 3.009981 1_565
Pd15 Pd4 3.009981 1_556
Pd15 Pd9 3.009982 1_655
Pd16 Y1 2.862231 1_556
Pd16 Pd4 3.017490 1_556
Pd16 Pd3 3.017502 1_556
Pd16 Pd19 3.017514 1_556
Pd17 Pd9 2.938312 1_555
Pd17 Pd2 2.938313 1_555
Pd17 Y0 2.967667 1_556
Pd17 Pd3 2.996869 1_546
Pd17 Pd7 3.009978 1_545
Pd17 Pd18 3.017502 1_455
Pd17 Pd6 3.017502 1_545
Pd17 Y1 3.300459 1_555
Pd18 Y1 2.862231 1_655
Pd18 Pd9 3.017490 1_655
Pd18 Pd3 3.017502 1_655
Pd18 Pd19 3.017514 1_655
Pd19 Pd3 2.664293 1_555
Pd19 Y0 2.967659 1_555
Pd19 Pd9 2.996869 1_554
Pd19 Pd4 2.996870 1_455
Pd19 Pd7 3.009986 1_554
Pd19 Pd5 3.009986 1_455
Pd19 Y1 3.300463 1_555
