# generated using pymatgen
data_Sr9Y(PN5)2
_symmetry_space_group_name_H-M   'P 1'
_cell_length_a   7.45234605
_cell_length_b   7.45234545
_cell_length_c   8.52501782
_cell_angle_alpha   76.59985276
_cell_angle_beta   76.59985397
_cell_angle_gamma   95.23352650
_symmetry_Int_Tables_number   1
_chemical_formula_structural   Sr9Y(PN5)2
_chemical_formula_sum   'Sr9 Y1 P2 N10'
_cell_volume   442.74387845
_cell_formula_units_Z   1
loop_
 _symmetry_equiv_pos_site_id
 _symmetry_equiv_pos_as_xyz
  1  'x, y, z'
loop_
 _atom_site_type_symbol
 _atom_site_label
 _atom_site_symmetry_multiplicity
 _atom_site_fract_x
 _atom_site_fract_y
 _atom_site_fract_z
 _atom_site_occupancy
  Sr  Sr0  1  0.59975629  0.59975629  0.62959003  1
  Sr  Sr1  1  0.67719180  0.67719180  0.99866855  1
  Sr  Sr2  1  0.32833469  0.32833469  0.99586608  1
  Sr  Sr3  1  0.92543255  0.92543255  0.20052272  1
  Sr  Sr4  1  0.07219917  0.07219917  0.79699062  1
  Sr  Sr5  1  0.55118400  0.08743425  0.75815644  1
  Sr  Sr6  1  0.91494781  0.44449993  0.24481872  1
  Sr  Sr7  1  0.44449993  0.91494781  0.24481872  1
  Sr  Sr8  1  0.08743425  0.55118400  0.75815644  1
  Y  Y0  1  0.42241361  0.42241361  0.35866150  1
  P  P0  1  0.75643576  0.24173578  0.00369936  1
  P  P1  1  0.24173578  0.75643576  0.00369936  1
  N  N0  1  0.64877181  0.64877181  0.32252459  1
  N  N1  1  0.34117238  0.34117238  0.64461415  1
  N  N2  1  0.71967847  0.02401742  0.99070102  1
  N  N3  1  0.97471740  0.27565588  0.01850393  1
  N  N4  1  0.27565588  0.97471740  0.01850393  1
  N  N5  1  0.02401742  0.71967847  0.99070102  1
  N  N6  1  0.39045613  0.72625335  0.83673715  1
  N  N7  1  0.27485353  0.60286002  0.17366326  1
  N  N8  1  0.60286002  0.27485353  0.17366326  1
  N  N9  1  0.72625335  0.39045613  0.83673715  1
loop_
_geom_bond_atom_site_label_1
_geom_bond_atom_site_label_2
_geom_bond_distance
_geom_bond_site_symmetry_2
N0 Y0 2.187531 1_555
N0 Sr0 2.491719 1_555
N0 Sr3 2.611552 1_555
N0 Sr7 2.664637 1_555
N0 Sr6 2.664637 1_555
N0 Sr1 2.676177 1_554
N1 Y0 2.289258 1_555
N1 Sr0 2.556801 1_555
N1 Sr4 2.564480 1_555
N1 Sr5 2.712153 1_555
N1 Sr8 2.712153 1_555
N1 Sr2 2.952571 1_555
N2 P0 1.654141 1_556
N2 Sr7 2.525839 1_546
N2 Sr1 2.558265 1_545
N2 Sr5 2.560856 1_555
N2 Sr3 2.637834 1_546
N2 Sr4 2.701838 1_655
N3 P0 1.661609 1_555
N3 Sr6 2.516579 1_555
N3 Sr8 2.560606 1_654
N3 Sr2 2.583888 1_654
N3 Sr3 2.653025 1_545
N3 Sr4 2.699072 1_654
N4 P1 1.661609 1_555
N4 Sr7 2.516579 1_555
N4 Sr5 2.560607 1_564
N4 Sr2 2.583888 1_564
N4 Sr3 2.653025 1_455
N4 Sr4 2.699072 1_564
N5 P1 1.654141 1_556
N5 Sr6 2.525839 1_456
N5 Sr1 2.558265 1_455
N5 Sr8 2.560856 1_555
N5 Sr3 2.637834 1_456
N5 Sr4 2.701838 1_565
N6 P1 1.663606 1_556
N6 Sr0 2.490636 1_555
N6 Sr5 2.707879 1_565
N6 Sr8 2.796305 1_555
N6 Sr1 2.807377 1_555
N6 Sr2 2.905556 1_555
N7 P1 1.708474 1_555
N7 Y0 2.365487 1_555
N7 Sr6 2.700229 1_455
N7 Sr7 2.801530 1_555
N7 Sr2 2.819193 1_554
N7 Sr1 2.960288 1_554
N8 P0 1.708474 1_555
N8 Y0 2.365487 1_555
N8 Sr7 2.700229 1_545
N8 Sr6 2.801530 1_555
N8 Sr2 2.819193 1_554
N8 Sr1 2.960287 1_554
N9 P0 1.663606 1_556
N9 Sr0 2.490636 1_555
N9 Sr8 2.707879 1_655
N9 Sr5 2.796305 1_555
N9 Sr1 2.807376 1_555
N9 Sr2 2.905557 1_555
