# generated using pymatgen
data_K3LiPtO4
_symmetry_space_group_name_H-M   'P 1'
_cell_length_a   7.18124736
_cell_length_b   7.18124731
_cell_length_c   5.86327724
_cell_angle_alpha   79.25164915
_cell_angle_beta   79.25164183
_cell_angle_gamma   83.86171283
_symmetry_Int_Tables_number   1
_chemical_formula_structural   K3LiPtO4
_chemical_formula_sum   'K6 Li2 Pt2 O8'
_cell_volume   291.03790363
_cell_formula_units_Z   2
loop_
 _symmetry_equiv_pos_site_id
 _symmetry_equiv_pos_as_xyz
  1  'x, y, z'
loop_
 _atom_site_type_symbol
 _atom_site_label
 _atom_site_symmetry_multiplicity
 _atom_site_fract_x
 _atom_site_fract_y
 _atom_site_fract_z
 _atom_site_occupancy
  K  K0  1  0.06576957  0.24412687  0.02396762  1
  K  K1  1  0.59633610  0.40366390  0.25000000  1
  K  K2  1  0.24412687  0.06576957  0.52396762  1
  K  K3  1  0.75587313  0.93423043  0.47603238  1
  K  K4  1  0.93423043  0.75587313  0.97603238  1
  K  K5  1  0.40366390  0.59633610  0.75000000  1
  Li  Li0  1  0.73243525  0.26756475  0.75000000  1
  Li  Li1  1  0.26756475  0.73243525  0.25000000  1
  Pt  Pt0  1  0.50000000  0.00000000  0.00000000  1
  Pt  Pt1  1  0.00000000  0.50000000  0.50000000  1
  O  O0  1  0.20713269  0.48140477  0.23759988  1
  O  O1  1  0.91087294  0.26130411  0.46972883  1
  O  O2  1  0.48140477  0.20713269  0.73759988  1
  O  O3  1  0.26130411  0.91087294  0.96972883  1
  O  O4  1  0.08912706  0.73869589  0.53027117  1
  O  O5  1  0.73869589  0.08912706  0.03027117  1
  O  O6  1  0.51859523  0.79286731  0.26240012  1
  O  O7  1  0.79286731  0.51859523  0.76240012  1
loop_
_geom_bond_atom_site_label_1
_geom_bond_atom_site_label_2
_geom_bond_distance
_geom_bond_site_symmetry_2
K0 O1 2.662721 1_455
K0 O0 2.672692 1_555
K0 O3 2.683062 1_544
K0 O5 2.696030 1_455
K0 O7 3.040595 1_454
K0 O2 3.150590 1_554
K1 O6 2.802812 1_555
K1 O0 2.802812 1_555
K1 O5 2.811990 1_555
K1 O1 2.811990 1_555
K1 O7 2.951369 1_554
K1 O2 2.951369 1_555
K2 O3 2.662721 1_545
K2 O2 2.672692 1_555
K2 O1 2.683062 1_455
K2 O4 2.696030 1_545
K2 O6 3.040595 1_545
K2 O0 3.150590 1_555
K3 O5 2.662721 1_565
K3 O6 2.672692 1_555
K3 O4 2.683062 1_655
K3 O1 2.696030 1_565
K3 O2 3.040595 1_565
K3 O7 3.150590 1_555
K4 O4 2.662721 1_655
K4 O7 2.672692 1_555
K4 O5 2.683062 1_566
K4 O3 2.696030 1_655
K4 O0 3.040595 1_656
K4 O6 3.150590 1_556
K5 O2 2.802812 1_555
K5 O7 2.802812 1_555
K5 O3 2.811990 1_555
K5 O4 2.811990 1_555
K5 O0 2.951369 1_556
K5 O6 2.951369 1_555
Li0 O1 1.890580 1_555
Li0 O5 1.890580 1_556
Li0 O7 1.916079 1_555
Li0 O2 1.916079 1_555
Li1 O4 1.890580 1_555
Li1 O3 1.890580 1_554
Li1 O0 1.916079 1_555
Li1 O6 1.916079 1_555
O0 Pt1 1.943712 1_555
O1 Pt1 1.941621 1_655
O2 Pt0 1.943712 1_556
O3 Pt0 1.941621 1_566
O4 Pt1 1.941621 1_555
O5 Pt0 1.941621 1_555
O6 Pt0 1.943712 1_565
O7 Pt1 1.943712 1_655
