# generated using pymatgen
data_Ca2CoIrI
_symmetry_space_group_name_H-M   'P 1'
_cell_length_a   4.09840610
_cell_length_b   4.09840563
_cell_length_c   17.42054616
_cell_angle_alpha   90.00000000
_cell_angle_beta   90.00000000
_cell_angle_gamma   119.99999601
_symmetry_Int_Tables_number   1
_chemical_formula_structural   Ca2CoIrI
_chemical_formula_sum   'Ca4 Co2 Ir2 I2'
_cell_volume   253.40918050
_cell_formula_units_Z   2
loop_
 _symmetry_equiv_pos_site_id
 _symmetry_equiv_pos_as_xyz
  1  'x, y, z'
loop_
 _atom_site_type_symbol
 _atom_site_label
 _atom_site_symmetry_multiplicity
 _atom_site_fract_x
 _atom_site_fract_y
 _atom_site_fract_z
 _atom_site_occupancy
  Ca  Ca0  1  0.00000000  0.00000000  0.61036394  1
  Ca  Ca1  1  0.00000000  0.00000000  0.38994226  1
  Ca  Ca2  1  0.00000000  0.00000000  0.11036394  1
  Ca  Ca3  1  0.00000000  0.00000000  0.88994226  1
  Co  Co0  1  0.66666700  0.33333300  0.99866656  1
  Co  Co1  1  0.33333300  0.66666700  0.49866656  1
  Ir  Ir0  1  0.66666700  0.33333300  0.50107287  1
  Ir  Ir1  1  0.33333300  0.66666700  0.00107287  1
  I  I0  1  0.66666700  0.33333300  0.24995437  1
  I  I1  1  0.33333300  0.66666700  0.74995437  1
loop_
_geom_bond_atom_site_label_1
_geom_bond_atom_site_label_2
_geom_bond_distance
_geom_bond_site_symmetry_2
Ca0 Ir0 3.037077 1_455
Ca0 Ir0 3.037080 1_445
Ca0 Ir0 3.037080 1_555
Ca0 Co1 3.063530 1_545
Ca0 Co1 3.063533 1_555
Ca0 Co1 3.063533 1_445
Ca0 I1 3.392983 1_545
Ca0 I1 3.392985 1_555
Ca0 I1 3.392986 1_445
Ca1 Co1 3.030898 1_545
Ca1 Co1 3.030900 1_555
Ca1 Co1 3.030901 1_445
Ca1 Ir0 3.057269 1_455
Ca1 Ir0 3.057271 1_445
Ca1 Ir0 3.057271 1_555
Ca1 I0 3.397949 1_455
Ca1 I0 3.397951 1_445
Ca1 I0 3.397951 1_555
Ca2 Ir1 3.037077 1_545
Ca2 Ir1 3.037080 1_555
Ca2 Ir1 3.037080 1_445
Ca2 Co0 3.063530 1_454
Ca2 Co0 3.063533 1_444
Ca2 Co0 3.063533 1_554
Ca2 I0 3.392983 1_455
Ca2 I0 3.392985 1_445
Ca2 I0 3.392986 1_555
Ca3 Co0 3.030898 1_455
Ca3 Co0 3.030900 1_445
Ca3 Co0 3.030901 1_555
Ca3 Ir1 3.057269 1_546
Ca3 Ir1 3.057271 1_556
Ca3 Ir1 3.057271 1_446
Ca3 I1 3.397949 1_545
Ca3 I1 3.397951 1_555
Ca3 I1 3.397951 1_445
Co0 Ir1 2.366585 1_546
Co0 Ir1 2.366585 1_656
Co0 Ir1 2.366592 1_556
Co1 Ir0 2.366585 1_565
Co1 Ir0 2.366585 1_455
Co1 Ir0 2.366592 1_555
