# generated using pymatgen
data_Rb3Ba3ScAs4
_symmetry_space_group_name_H-M   'P 1'
_cell_length_a   10.86994986
_cell_length_b   10.86994974
_cell_length_c   8.08496673
_cell_angle_alpha   90.00000000
_cell_angle_beta   90.00000000
_cell_angle_gamma   119.99999738
_symmetry_Int_Tables_number   1
_chemical_formula_structural   Rb3Ba3ScAs4
_chemical_formula_sum   'Rb6 Ba6 Sc2 As8'
_cell_volume   827.30177662
_cell_formula_units_Z   2
loop_
 _symmetry_equiv_pos_site_id
 _symmetry_equiv_pos_as_xyz
  1  'x, y, z'
loop_
 _atom_site_type_symbol
 _atom_site_label
 _atom_site_symmetry_multiplicity
 _atom_site_fract_x
 _atom_site_fract_y
 _atom_site_fract_z
 _atom_site_occupancy
  Rb  Rb0  1  0.13503348  0.86496652  0.17372415  1
  Rb  Rb1  1  0.27006895  0.13503348  0.67372415  1
  Rb  Rb2  1  0.86496652  0.72993105  0.67372415  1
  Rb  Rb3  1  0.13503348  0.27006895  0.17372415  1
  Rb  Rb4  1  0.72993105  0.86496652  0.17372415  1
  Rb  Rb5  1  0.86496652  0.13503348  0.67372415  1
  Ba  Ba0  1  0.46995722  0.93991343  0.49756995  1
  Ba  Ba1  1  0.53004278  0.06008657  0.99756995  1
  Ba  Ba2  1  0.93991343  0.46995722  0.99756995  1
  Ba  Ba3  1  0.46995722  0.53004278  0.49756995  1
  Ba  Ba4  1  0.53004278  0.46995722  0.99756995  1
  Ba  Ba5  1  0.06008657  0.53004278  0.49756995  1
  Sc  Sc0  1  0.33333300  0.66666700  0.88840643  1
  Sc  Sc1  1  0.66666700  0.33333300  0.38840643  1
  As  As0  1  0.20170478  0.79829522  0.77128601  1
  As  As1  1  0.40340956  0.20170478  0.27128601  1
  As  As2  1  0.79829522  0.59659044  0.27128601  1
  As  As3  1  0.20170478  0.40340956  0.77128601  1
  As  As4  1  0.59659044  0.79829522  0.77128601  1
  As  As5  1  0.79829522  0.20170478  0.27128601  1
  As  As6  1  0.33333300  0.66666700  0.22453225  1
  As  As7  1  0.66666700  0.33333300  0.72453225  1
loop_
_geom_bond_atom_site_label_1
_geom_bond_atom_site_label_2
_geom_bond_distance
_geom_bond_site_symmetry_2
As0 Sc0 2.652950 1_555
As0 Ba5 3.358683 1_555
As0 Ba0 3.358683 1_555
As0 Rb1 3.442725 1_565
As0 Rb2 3.442725 1_455
As0 Rb0 3.487433 1_556
As0 Ba2 3.745199 1_455
As0 Ba1 3.745199 1_565
As1 Sc1 2.652959 1_555
As1 Ba1 3.358676 1_554
As1 Ba4 3.358683 1_554
As1 Rb0 3.442732 1_545
As1 Rb3 3.442746 1_555
As1 Rb1 3.487426 1_555
As1 Ba3 3.745196 1_555
As1 Ba0 3.745206 1_545
As2 Sc1 2.652959 1_555
As2 Ba2 3.358676 1_554
As2 Ba4 3.358683 1_554
As2 Rb0 3.442732 1_655
As2 Rb4 3.442746 1_555
As2 Rb2 3.487426 1_555
As2 Ba3 3.745196 1_555
As2 Ba5 3.745206 1_655
As3 Sc0 2.652959 1_555
As3 Ba5 3.358676 1_555
As3 Ba3 3.358683 1_555
As3 Rb5 3.442732 1_455
As3 Rb1 3.442746 1_555
As3 Rb3 3.487426 1_556
As3 Ba4 3.745196 1_555
As3 Ba2 3.745206 1_455
As4 Sc0 2.652959 1_555
As4 Ba0 3.358676 1_555
As4 Ba3 3.358683 1_555
As4 Rb5 3.442732 1_565
As4 Rb2 3.442746 1_555
As4 Rb4 3.487426 1_556
As4 Ba4 3.745196 1_555
As4 Ba1 3.745206 1_565
As5 Sc1 2.652950 1_555
As5 Ba2 3.358683 1_554
As5 Ba1 3.358683 1_554
As5 Rb4 3.442725 1_545
As5 Rb3 3.442725 1_655
As5 Rb5 3.487433 1_555
As5 Ba5 3.745199 1_655
As5 Ba0 3.745199 1_545
As6 Sc0 2.717566 1_554
As6 Ba0 3.389619 1_555
As6 Ba5 3.389619 1_555
As6 Ba3 3.389633 1_555
As6 Rb3 3.755967 1_555
As6 Rb4 3.755967 1_555
As6 Rb0 3.755976 1_555
As7 Sc1 2.717566 1_555
As7 Ba1 3.389619 1_555
As7 Ba2 3.389619 1_555
As7 Ba4 3.389633 1_555
As7 Rb2 3.755967 1_555
As7 Rb1 3.755967 1_555
As7 Rb5 3.755976 1_555
