# generated using pymatgen
data_RbBiTe3O8
_symmetry_space_group_name_H-M   'P 1'
_cell_length_a   6.11130431
_cell_length_b   7.75888627
_cell_length_c   11.60801306
_cell_angle_alpha   101.98747635
_cell_angle_beta   89.43008807
_cell_angle_gamma   109.43406956
_symmetry_Int_Tables_number   1
_chemical_formula_structural   RbBiTe3O8
_chemical_formula_sum   'Rb2 Bi2 Te6 O16'
_cell_volume   506.69194517
_cell_formula_units_Z   2
loop_
 _symmetry_equiv_pos_site_id
 _symmetry_equiv_pos_as_xyz
  1  'x, y, z'
loop_
 _atom_site_type_symbol
 _atom_site_label
 _atom_site_symmetry_multiplicity
 _atom_site_fract_x
 _atom_site_fract_y
 _atom_site_fract_z
 _atom_site_occupancy
  Rb  Rb0  1  0.87874886  0.13567529  0.16812585  1
  Rb  Rb1  1  0.12125114  0.86432471  0.83187415  1
  Bi  Bi0  1  0.50000000  0.50000000  0.00000000  1
  Bi  Bi1  1  0.00000000  0.50000000  0.50000000  1
  Te  Te0  1  0.21892625  0.00129196  0.42330397  1
  Te  Te1  1  0.78107375  0.99870804  0.57669603  1
  Te  Te2  1  0.07762106  0.69465127  0.15351690  1
  Te  Te3  1  0.92237894  0.30534873  0.84648310  1
  Te  Te4  1  0.51453049  0.52110331  0.33483519  1
  Te  Te5  1  0.48546951  0.47889669  0.66516481  1
  O  O0  1  0.18974251  0.75126589  0.41558015  1
  O  O1  1  0.81025749  0.24873411  0.58441985  1
  O  O2  1  0.23044982  0.94485870  0.24018445  1
  O  O3  1  0.76955018  0.05514130  0.75981555  1
  O  O4  1  0.90129516  0.97603802  0.39923558  1
  O  O5  1  0.09870484  0.02396198  0.60076442  1
  O  O6  1  0.27173454  0.69987063  0.02828204  1
  O  O7  1  0.72826546  0.30012937  0.97171796  1
  O  O8  1  0.84348841  0.74751779  0.08083242  1
  O  O9  1  0.15651159  0.25248221  0.91916758  1
  O  O10  1  0.38403765  0.42619003  0.18009246  1
  O  O11  1  0.61596235  0.57380997  0.81990754  1
  O  O12  1  0.26603936  0.36677783  0.40438129  1
  O  O13  1  0.73396064  0.63322217  0.59561871  1
  O  O14  1  0.72087384  0.38924244  0.33553120  1
  O  O15  1  0.27912616  0.61075756  0.66446880  1
loop_
_geom_bond_atom_site_label_1
_geom_bond_atom_site_label_2
_geom_bond_distance
_geom_bond_site_symmetry_2
Bi0 O10 2.323407 1_555
Bi0 O11 2.323407 1_554
Bi0 O8 2.362853 1_555
Bi0 O9 2.362853 1_554
Bi0 O6 2.382788 1_555
Bi0 O7 2.382788 1_554
Bi1 O0 2.317819 1_555
Bi1 O1 2.317819 1_455
Bi1 O12 2.355767 1_555
Bi1 O13 2.355767 1_455
Bi1 O15 2.387676 1_555
Bi1 O14 2.387676 1_455
O0 Te0 1.871092 1_565
O1 Te1 1.871092 1_545
O2 Te2 1.911555 1_555
O2 Te0 2.084707 1_565
O2 Rb0 3.190465 1_465
O3 Te3 1.911555 1_555
O3 Te1 2.084707 1_545
O3 Rb1 3.190465 1_645
O4 Te0 1.902478 1_665
O4 Te1 2.172455 1_555
O4 Rb0 3.201775 1_565
O5 Te1 1.902478 1_445
O5 Te0 2.172455 1_555
O5 Rb1 3.201775 1_545
O6 Te2 1.865588 1_555
O6 Rb1 3.114942 1_554
O7 Te3 1.865588 1_555
O7 Rb0 3.114942 1_556
O8 Te2 1.867031 1_655
O8 Rb0 2.906576 1_565
O8 Rb1 3.467142 1_654
O9 Te3 1.867031 1_455
O9 Rb1 2.906576 1_545
O9 Rb0 3.467142 1_456
O10 Te4 1.868966 1_555
O10 Rb0 3.143621 1_455
O11 Te5 1.868966 1_555
O11 Rb1 3.143621 1_655
O12 Te4 1.886469 1_555
O12 Rb0 3.405955 1_455
O13 Te5 1.886469 1_555
O13 Rb1 3.405955 1_655
O14 Te4 1.870597 1_555
O14 Rb0 2.866263 1_555
O15 Te5 1.870597 1_555
O15 Rb1 2.866263 1_555
