# generated using pymatgen
data_Sc4Si6Ni2Rh5
_symmetry_space_group_name_H-M   'P 1'
_cell_length_a   6.85355239
_cell_length_b   6.87158047
_cell_length_c   6.87157936
_cell_angle_alpha   109.12286232
_cell_angle_beta   109.69948430
_cell_angle_gamma   109.69948693
_symmetry_Int_Tables_number   1
_chemical_formula_structural   Sc4Si6Ni2Rh5
_chemical_formula_sum   'Sc4 Si6 Ni2 Rh5'
_cell_volume   248.77970111
_cell_formula_units_Z   1
loop_
 _symmetry_equiv_pos_site_id
 _symmetry_equiv_pos_as_xyz
  1  'x, y, z'
loop_
 _atom_site_type_symbol
 _atom_site_label
 _atom_site_symmetry_multiplicity
 _atom_site_fract_x
 _atom_site_fract_y
 _atom_site_fract_z
 _atom_site_occupancy
  Sc  Sc0  1  0.00241725  0.00120812  0.50120812  1
  Sc  Sc1  1  0.00241725  0.50120812  0.00120812  1
  Sc  Sc2  1  0.49465708  0.99803606  0.99803606  1
  Sc  Sc3  1  0.49465708  0.49662102  0.49662102  1
  Si  Si0  1  0.68154970  0.68007829  0.00147141  1
  Si  Si1  1  0.32722869  0.00321214  0.32401655  1
  Si  Si2  1  0.99070131  0.32129893  0.32129893  1
  Si  Si3  1  0.32722869  0.32401655  0.00321214  1
  Si  Si4  1  0.68154970  0.00147141  0.68007829  1
  Si  Si5  1  0.99070131  0.66940338  0.66940338  1
  Ni  Ni0  1  0.74767418  0.25102340  0.49665078  1
  Ni  Ni1  1  0.74767418  0.49665078  0.25102340  1
  Rh  Rh0  1  0.51022467  0.25511183  0.75511183  1
  Rh  Rh1  1  0.24446953  0.49617216  0.74829637  1
  Rh  Rh2  1  0.24446953  0.74829637  0.49617216  1
  Rh  Rh3  1  0.51022467  0.75511183  0.25511183  1
  Rh  Rh4  1  0.00215622  0.00107761  0.00107761  1
loop_
_geom_bond_atom_site_label_1
_geom_bond_atom_site_label_2
_geom_bond_distance
_geom_bond_site_symmetry_2
Sc0 Si0 2.858347 1_445
Sc0 Si4 2.858352 1_455
Sc0 Si5 2.864687 1_445
Sc0 Si2 2.864690 1_455
Sc0 Si1 2.873314 1_555
Sc0 Si3 2.873320 1_556
Sc1 Si4 2.858348 1_454
Sc1 Si0 2.858353 1_455
Sc1 Si5 2.864687 1_454
Sc1 Si2 2.864690 1_455
Sc1 Si3 2.873315 1_555
Sc1 Si1 2.873321 1_565
Sc2 Si2 2.830372 1_566
Sc2 Si1 2.836152 1_566
Sc2 Si3 2.836152 1_566
Sc2 Si5 2.875876 1_455
Sc2 Si4 2.883573 1_565
Sc2 Si0 2.883573 1_556
Sc3 Si5 2.830370 1_555
Sc3 Si3 2.836152 1_555
Sc3 Si1 2.836152 1_555
Sc3 Si2 2.875878 1_455
Sc3 Si0 2.883573 1_556
Sc3 Si4 2.883573 1_565
Ni0 Si2 2.377252 1_555
Ni0 Si5 2.377257 1_555
Ni0 Si1 2.382047 1_555
Ni0 Si4 2.451936 1_555
Ni0 Ni1 2.750307 1_555
Ni0 Rh1 2.770565 1_655
Ni0 Rh0 2.783902 1_555
Ni0 Rh3 2.783908 1_545
Ni0 Sc2 2.797869 1_544
Ni0 Sc3 2.797869 1_555
Ni0 Sc1 2.831041 1_656
Ni0 Sc0 2.831047 1_655
Ni1 Si2 2.377252 1_555
Ni1 Si5 2.377256 1_555
Ni1 Si3 2.382047 1_555
Ni1 Si0 2.451936 1_555
Ni1 Rh2 2.770565 1_655
Ni1 Rh3 2.783902 1_555
Ni1 Rh0 2.783908 1_554
Ni1 Sc3 2.797869 1_555
Ni1 Sc2 2.797870 1_544
Ni1 Sc0 2.831042 1_665
Ni1 Sc1 2.831047 1_655
Rh0 Si4 2.425151 1_555
Rh0 Si0 2.425157 1_556
Rh0 Si1 2.452865 1_555
Rh0 Si3 2.452872 1_556
Rh0 Sc1 2.744660 1_656
Rh0 Sc3 2.800619 1_555
Rh0 Sc2 2.800619 1_545
Rh0 Sc0 2.831734 1_555
Rh1 Si2 2.432819 1_455
Rh1 Si5 2.432828 1_455
Rh1 Si3 2.435105 1_556
Rh1 Si0 2.467990 1_556
Rh1 Sc1 2.777856 1_556
Rh1 Sc0 2.777856 1_555
Rh1 Sc3 2.816037 1_555
Rh1 Sc2 2.816044 1_555
Rh2 Si2 2.432819 1_455
Rh2 Si5 2.432828 1_455
Rh2 Si1 2.435105 1_565
Rh2 Si4 2.467990 1_565
Rh2 Sc1 2.777856 1_555
Rh2 Sc0 2.777856 1_565
Rh2 Sc3 2.816038 1_555
Rh2 Sc2 2.816043 1_555
Rh3 Si0 2.425150 1_555
Rh3 Si4 2.425157 1_565
Rh3 Si3 2.452866 1_555
Rh3 Si1 2.452872 1_565
Rh3 Sc0 2.744660 1_665
Rh3 Sc3 2.800619 1_555
Rh3 Sc2 2.800619 1_554
Rh3 Sc1 2.831734 1_555
Rh4 Si4 2.536517 1_454
Rh4 Si0 2.536517 1_445
Rh4 Si1 2.551811 1_555
Rh4 Si3 2.551811 1_555
Rh4 Si5 2.598155 1_444
Rh4 Si2 2.598171 1_455
