# generated using pymatgen
data_Pt4(I3Br)3
_symmetry_space_group_name_H-M   'P 1'
_cell_length_a   6.82873888
_cell_length_b   6.94968338
_cell_length_c   13.25897079
_cell_angle_alpha   83.79378279
_cell_angle_beta   85.26794947
_cell_angle_gamma   120.20592328
_symmetry_Int_Tables_number   1
_chemical_formula_structural   Pt4(I3Br)3
_chemical_formula_sum   'Pt4 I9 Br3'
_cell_volume   533.70946310
_cell_formula_units_Z   1
loop_
 _symmetry_equiv_pos_site_id
 _symmetry_equiv_pos_as_xyz
  1  'x, y, z'
loop_
 _atom_site_type_symbol
 _atom_site_label
 _atom_site_symmetry_multiplicity
 _atom_site_fract_x
 _atom_site_fract_y
 _atom_site_fract_z
 _atom_site_occupancy
  Pt  Pt0  1  0.91079509  0.09394564  0.25110275  1
  Pt  Pt1  1  0.08915885  0.90346815  0.74891473  1
  Pt  Pt2  1  0.49944427  0.00019288  0.49783003  1
  Pt  Pt3  1  0.00156861  0.49701082  0.99870531  1
  I  I0  1  0.05490967  0.18808523  0.86237988  1
  I  I1  1  0.15236387  0.64628339  0.61716466  1
  I  I2  1  0.35187677  0.84636198  0.87674491  1
  I  I3  1  0.85220932  0.34768744  0.37645347  1
  I  I4  1  0.64774586  0.15582890  0.12295334  1
  I  I5  1  0.74268913  0.55137699  0.87739986  1
  I  I6  1  0.44663234  0.24624807  0.62060261  1
  I  I7  1  0.25830992  0.45201110  0.12464416  1
  I  I8  1  0.55362898  0.74946985  0.37769387  1
  Br  Br0  1  0.18249078  0.06289752  0.35918645  1
  Br  Br1  1  0.93929829  0.82726100  0.14635660  1
  Br  Br2  1  0.81687825  0.93186904  0.64186938  1
loop_
_geom_bond_atom_site_label_1
_geom_bond_atom_site_label_2
_geom_bond_distance
_geom_bond_site_symmetry_2
I0 Pt1 2.698394 1_545
I0 Pt3 3.086504 1_555
I1 Pt2 2.616211 1_565
I1 Pt1 2.785569 1_555
I2 Pt3 2.626947 1_555
I2 Pt1 2.705810 1_555
I3 Pt2 2.625144 1_555
I3 Pt0 2.695533 1_555
I4 Pt3 2.628310 1_654
I4 Pt0 2.724259 1_555
I5 Pt3 2.620051 1_655
I5 Pt1 2.663781 1_655
I6 Pt2 2.613343 1_555
I6 Pt1 2.667469 1_545
I7 Pt3 2.623298 1_554
I7 Pt0 2.671067 1_455
I8 Pt2 2.619522 1_565
I8 Pt0 2.660389 1_565
Br0 Pt0 2.513406 1_455
Br0 Pt2 3.112242 1_555
Br1 Pt0 2.505323 1_565
Br2 Pt1 2.500926 1_655
Br2 Pt2 3.177154 1_565
