# generated using pymatgen
data_BeV3N
_symmetry_space_group_name_H-M   'P 1'
_cell_length_a   5.01573441
_cell_length_b   5.01573415
_cell_length_c   7.49134788
_cell_angle_alpha   90.00000000
_cell_angle_beta   90.00000000
_cell_angle_gamma   146.22901069
_symmetry_Int_Tables_number   1
_chemical_formula_structural   BeV3N
_chemical_formula_sum   'Be2 V6 N2'
_cell_volume   104.76253153
_cell_formula_units_Z   2
loop_
 _symmetry_equiv_pos_site_id
 _symmetry_equiv_pos_as_xyz
  1  'x, y, z'
loop_
 _atom_site_type_symbol
 _atom_site_label
 _atom_site_symmetry_multiplicity
 _atom_site_fract_x
 _atom_site_fract_y
 _atom_site_fract_z
 _atom_site_occupancy
  Be  Be0  1  0.25719020  0.74280980  0.25000000  1
  Be  Be1  1  0.74280980  0.25719020  0.75000000  1
  V  V0  1  0.94176551  0.05823449  0.25000000  1
  V  V1  1  0.05823449  0.94176551  0.75000000  1
  V  V2  1  0.63820880  0.36179120  0.44740742  1
  V  V3  1  0.36179120  0.63820880  0.55259258  1
  V  V4  1  0.63820880  0.36179120  0.05259258  1
  V  V5  1  0.36179120  0.63820880  0.94740742  1
  N  N0  1  0.00000000  0.00000000  0.50000000  1
  N  N1  1  0.00000000  0.00000000  0.00000000  1
loop_
_geom_bond_atom_site_label_1
_geom_bond_atom_site_label_2
_geom_bond_distance
_geom_bond_site_symmetry_2
Be0 V0 2.293799 1_455
Be0 V0 2.293800 1_565
Be0 V2 2.369357 1_565
Be0 V4 2.369357 1_565
Be0 V2 2.369357 1_455
Be0 V4 2.369357 1_455
Be0 V3 2.479243 1_555
Be0 V5 2.479243 1_554
Be1 V1 2.293799 1_655
Be1 V1 2.293800 1_545
Be1 V5 2.369357 1_545
Be1 V3 2.369357 1_545
Be1 V5 2.369357 1_655
Be1 V3 2.369357 1_655
Be1 V4 2.479243 1_556
Be1 V2 2.479243 1_555
N0 V1 1.954480 1_545
N0 V0 1.954480 1_455
N0 V2 2.009411 1_445
N0 V3 2.009411 1_555
N0 V2 2.009412 1_555
N0 V3 2.009412 1_445
N1 V0 1.954480 1_455
N1 V1 1.954480 1_544
N1 V4 2.009411 1_445
N1 V5 2.009411 1_554
N1 V4 2.009412 1_555
N1 V5 2.009412 1_444
