# generated using pymatgen
data_HgPd(PtO3)2
_symmetry_space_group_name_H-M   'P 1'
_cell_length_a   6.35013674
_cell_length_b   6.35013605
_cell_length_c   3.15886182
_cell_angle_alpha   90.00000000
_cell_angle_beta   90.00000000
_cell_angle_gamma   109.90762103
_symmetry_Int_Tables_number   1
_chemical_formula_structural   HgPd(PtO3)2
_chemical_formula_sum   'Hg1 Pd1 Pt2 O6'
_cell_volume   119.76689030
_cell_formula_units_Z   1
loop_
 _symmetry_equiv_pos_site_id
 _symmetry_equiv_pos_as_xyz
  1  'x, y, z'
loop_
 _atom_site_type_symbol
 _atom_site_label
 _atom_site_symmetry_multiplicity
 _atom_site_fract_x
 _atom_site_fract_y
 _atom_site_fract_z
 _atom_site_occupancy
  Hg  Hg0  1  0.50000000  0.50000000  0.00000000  1
  Pd  Pd0  1  0.00000000  0.00000000  0.00000000  1
  Pt  Pt0  1  0.00000000  0.50000000  0.50000000  1
  Pt  Pt1  1  0.50000000  0.00000000  0.50000000  1
  O  O0  1  0.66599311  0.92797995  0.00000000  1
  O  O1  1  0.33400689  0.07202005  0.00000000  1
  O  O2  1  0.92797995  0.66599311  0.00000000  1
  O  O3  1  0.07202005  0.33400689  0.00000000  1
  O  O4  1  0.66956751  0.33043249  0.50000000  1
  O  O5  1  0.33043249  0.66956751  0.50000000  1
loop_
_geom_bond_atom_site_label_1
_geom_bond_atom_site_label_2
_geom_bond_distance
_geom_bond_site_symmetry_2
Hg0 O5 2.367085 1_555
Hg0 O5 2.367085 1_554
Hg0 O4 2.367085 1_554
Hg0 O4 2.367085 1_555
Hg0 O0 2.558565 1_555
Hg0 O1 2.558565 1_555
Hg0 O2 2.558565 1_555
Hg0 O3 2.558565 1_555
O0 Pd0 2.011758 1_665
O0 Pt1 2.035469 1_565
O0 Pt1 2.035469 1_564
O1 Pd0 2.011758 1_555
O1 Pt1 2.035469 1_554
O1 Pt1 2.035469 1_555
O2 Pd0 2.011758 1_665
O2 Pt0 2.035469 1_655
O2 Pt0 2.035469 1_654
O3 Pd0 2.011758 1_555
O3 Pt0 2.035469 1_555
O3 Pt0 2.035469 1_554
O4 Pt1 2.005893 1_555
O4 Pt0 2.005894 1_655
O5 Pt1 2.005893 1_565
O5 Pt0 2.005894 1_555
