# generated using pymatgen
data_Cs3Zr2CuTe10
_symmetry_space_group_name_H-M   'P 1'
_cell_length_a   10.16779873
_cell_length_b   11.23167712
_cell_length_c   11.38567454
_cell_angle_alpha   88.83467400
_cell_angle_beta   89.88977537
_cell_angle_gamma   77.97342667
_symmetry_Int_Tables_number   1
_chemical_formula_structural   Cs3Zr2CuTe10
_chemical_formula_sum   'Cs6 Zr4 Cu2 Te20'
_cell_volume   1271.45443027
_cell_formula_units_Z   2
loop_
 _symmetry_equiv_pos_site_id
 _symmetry_equiv_pos_as_xyz
  1  'x, y, z'
loop_
 _atom_site_type_symbol
 _atom_site_label
 _atom_site_symmetry_multiplicity
 _atom_site_fract_x
 _atom_site_fract_y
 _atom_site_fract_z
 _atom_site_occupancy
  Cs  Cs0  1  0.88325703  0.89106219  0.26212255  1
  Cs  Cs1  1  0.11674297  0.10893781  0.73787745  1
  Cs  Cs2  1  0.43925477  0.76684848  0.38735171  1
  Cs  Cs3  1  0.56074523  0.23315152  0.61264829  1
  Cs  Cs4  1  0.30015510  0.62573560  0.89436723  1
  Cs  Cs5  1  0.69984490  0.37426440  0.10563277  1
  Zr  Zr0  1  0.10780816  0.37628721  0.36474665  1
  Zr  Zr1  1  0.89219184  0.62371279  0.63525335  1
  Zr  Zr2  1  0.30942580  0.15681844  0.14296711  1
  Zr  Zr3  1  0.69057420  0.84318156  0.85703289  1
  Cu  Cu0  1  0.92152668  0.37727555  0.55799242  1
  Cu  Cu1  1  0.07847332  0.62272445  0.44200758  1
  Te  Te0  1  0.84301848  0.55877572  0.39707120  1
  Te  Te1  1  0.15698152  0.44122428  0.60292880  1
  Te  Te2  1  0.92953628  0.20440138  0.41244832  1
  Te  Te3  1  0.07046372  0.79559862  0.58755168  1
  Te  Te4  1  0.19298120  0.58775569  0.24183563  1
  Te  Te5  1  0.80701880  0.41224431  0.75816437  1
  Te  Te6  1  0.21345283  0.11465037  0.39480468  1
  Te  Te7  1  0.78654717  0.88534963  0.60519532  1
  Te  Te8  1  0.07801329  0.36000939  0.10623935  1
  Te  Te9  1  0.92198671  0.63999061  0.89376065  1
  Te  Te10  1  0.39199758  0.35465167  0.29221202  1
  Te  Te11  1  0.60800242  0.64534833  0.70778798  1
  Te  Te12  1  0.04231325  0.12289677  0.06770770  1
  Te  Te13  1  0.95768675  0.87710323  0.93229230  1
  Te  Te14  1  0.52541135  0.08844845  0.30937819  1
  Te  Te15  1  0.47458865  0.91155155  0.69062181  1
  Te  Te16  1  0.33428280  0.90982973  0.06654922  1
  Te  Te17  1  0.66571720  0.09017027  0.93345078  1
  Te  Te18  1  0.40898631  0.24658164  0.92797443  1
  Te  Te19  1  0.59101369  0.75341836  0.07202557  1
loop_
_geom_bond_atom_site_label_1
_geom_bond_atom_site_label_2
_geom_bond_distance
_geom_bond_site_symmetry_2
Cs0 Cu1 3.806536 1_655
Cs0 Te13 3.829289 1_554
Cs0 Te14 3.888781 1_565
Cs0 Te12 3.975202 1_665
Cs0 Te7 4.028660 1_555
Cs0 Te2 4.058909 1_565
Cs0 Te0 4.105808 1_555
Cs0 Te4 4.139386 1_655
Cs0 Te3 4.185288 1_655
Cs0 Te19 4.240218 1_555
Cs1 Cu0 3.806536 1_455
Cs1 Te12 3.829289 1_556
Cs1 Te15 3.888781 1_545
Cs1 Te13 3.975202 1_445
Cs1 Te6 4.028660 1_555
Cs1 Te3 4.058909 1_545
Cs1 Te1 4.105808 1_555
Cs1 Te5 4.139386 1_455
Cs1 Te2 4.185288 1_455
Cs1 Te18 4.240218 1_555
Cs2 Te15 3.894825 1_555
Cs2 Te19 3.898336 1_555
Cs2 Te4 3.913061 1_555
Cs2 Te14 3.973427 1_565
Cs2 Te16 4.015151 1_555
Cs2 Te6 4.100431 1_565
Cs2 Te11 4.118584 1_555
Cs2 Te0 4.280308 1_555
Cs2 Te3 4.342049 1_555
Cs2 Cu1 4.346181 1_555
Cs3 Te14 3.894825 1_555
Cs3 Te18 3.898336 1_555
Cs3 Te5 3.913061 1_555
Cs3 Te15 3.973427 1_545
Cs3 Te17 4.015151 1_555
Cs3 Te7 4.100431 1_545
Cs3 Te10 4.118584 1_555
Cs3 Te1 4.280308 1_555
Cs3 Te2 4.342049 1_555
Cs3 Cu0 4.346181 1_555
Cs4 Te9 3.815008 1_455
Cs4 Te11 3.821223 1_555
Cs4 Te16 3.855338 1_556
Cs4 Te13 4.028600 1_455
Cs4 Te19 4.099119 1_556
Cs4 Te4 4.138740 1_556
Cs4 Te18 4.180621 1_555
Cs4 Te1 4.356613 1_555
Cs4 Te3 4.381880 1_555
Cs5 Te8 3.815008 1_655
Cs5 Te10 3.821223 1_555
Cs5 Te17 3.855338 1_554
Cs5 Te12 4.028600 1_655
Cs5 Te18 4.099119 1_554
Cs5 Te5 4.138740 1_554
Cs5 Te19 4.180621 1_555
Cs5 Te0 4.356613 1_555
Cs5 Te2 4.381880 1_555
Cu0 Te5 2.557291 1_555
Cu0 Te2 2.566554 1_555
Cu0 Te1 2.691729 1_655
Cu0 Te0 2.706550 1_555
Cu0 Zr1 2.877160 1_555
Cu0 Zr0 2.899113 1_655
Cu1 Te4 2.557291 1_555
Cu1 Te3 2.566554 1_555
Cu1 Te0 2.691729 1_455
Cu1 Te1 2.706550 1_555
Cu1 Zr0 2.877160 1_555
Cu1 Zr1 2.899113 1_455
Te0 Zr1 2.893749 1_555
Te0 Zr0 3.051617 1_655
Te1 Zr0 2.893749 1_555
Te1 Zr1 3.051617 1_455
Te2 Te6 2.860677 1_655
Te2 Zr0 2.952892 1_655
Te3 Te7 2.860677 1_455
Te3 Zr1 2.952892 1_455
Te4 Zr0 3.011151 1_555
Te4 Te8 3.421533 1_555
Te5 Zr1 3.011151 1_555
Te5 Te9 3.421533 1_555
Te6 Zr0 2.924299 1_555
Te6 Zr2 3.086229 1_555
Te7 Zr1 2.924299 1_555
Te7 Zr3 3.086229 1_555
Te8 Zr2 2.940540 1_555
Te8 Zr0 2.972625 1_555
Te9 Zr3 2.940540 1_555
Te9 Zr1 2.972625 1_555
Te10 Zr0 2.965995 1_555
Te10 Te4 3.002337 1_555
Te10 Te14 3.017441 1_555
Te10 Zr2 3.076706 1_555
Te11 Zr1 2.965995 1_555
Te11 Te5 3.002337 1_555
Te11 Te15 3.017441 1_555
Te11 Zr3 3.076706 1_555
Te12 Te8 2.804943 1_555
Te12 Zr2 2.951139 1_555
Te13 Te9 2.804943 1_555
Te13 Zr3 2.951139 1_555
Te14 Zr2 2.873409 1_555
Te14 Te6 3.271781 1_555
Te15 Zr3 2.873409 1_555
Te15 Te7 3.271781 1_555
Te16 Te19 2.826542 1_555
Te16 Zr2 2.884729 1_565
Te17 Te18 2.826542 1_555
Te17 Zr3 2.884729 1_545
Te18 Zr2 2.889382 1_556
Te19 Zr3 2.889382 1_554
