# generated using pymatgen
data_ZrGe2Rh
_symmetry_space_group_name_H-M   'P 1'
_cell_length_a   8.00063985
_cell_length_b   9.36279967
_cell_length_c   10.55785229
_cell_angle_alpha   90.00000000
_cell_angle_beta   90.00000000
_cell_angle_gamma   90.00000000
_symmetry_Int_Tables_number   1
_chemical_formula_structural   ZrGe2Rh
_chemical_formula_sum   'Zr12 Ge24 Rh12'
_cell_volume   790.87169734
_cell_formula_units_Z   12
loop_
 _symmetry_equiv_pos_site_id
 _symmetry_equiv_pos_as_xyz
  1  'x, y, z'
loop_
 _atom_site_type_symbol
 _atom_site_label
 _atom_site_symmetry_multiplicity
 _atom_site_fract_x
 _atom_site_fract_y
 _atom_site_fract_z
 _atom_site_occupancy
  Zr  Zr0  1  0.75422134  0.32955624  0.04763363  1
  Zr  Zr1  1  0.75422134  0.82955624  0.45236637  1
  Zr  Zr2  1  0.75422134  0.67044376  0.95236637  1
  Zr  Zr3  1  -0.00000000  0.66316099  0.68207579  1
  Zr  Zr4  1  0.24577866  0.82955624  0.45236637  1
  Zr  Zr5  1  0.24577866  0.32955624  0.04763363  1
  Zr  Zr6  1  -0.00000000  0.16316099  0.81792421  1
  Zr  Zr7  1  0.24577866  0.67044376  0.95236637  1
  Zr  Zr8  1  0.24577866  0.17044376  0.54763363  1
  Zr  Zr9  1  0.75422134  0.17044376  0.54763363  1
  Zr  Zr10  1  -0.00000000  0.83683901  0.18207579  1
  Zr  Zr11  1  -0.00000000  0.33683901  0.31792421  1
  Ge  Ge0  1  0.34824749  0.65658508  0.68256495  1
  Ge  Ge1  1  0.50000000  0.95571138  0.61189819  1
  Ge  Ge2  1  -0.00000000  0.04089703  0.38574721  1
  Ge  Ge3  1  0.34824749  0.34341492  0.31743505  1
  Ge  Ge4  1  -0.00000000  0.54089703  0.11425279  1
  Ge  Ge5  1  -0.00000000  0.45910297  0.88574721  1
  Ge  Ge6  1  0.50000000  0.86476220  0.90403515  1
  Ge  Ge7  1  0.65175251  0.34341492  0.31743505  1
  Ge  Ge8  1  0.65175251  0.84341492  0.18256495  1
  Ge  Ge9  1  -0.00000000  0.95910297  0.61425279  1
  Ge  Ge10  1  -0.00000000  0.63217251  0.39885216  1
  Ge  Ge11  1  0.50000000  0.04428862  0.38810181  1
  Ge  Ge12  1  0.50000000  0.36476220  0.59596485  1
  Ge  Ge13  1  0.50000000  0.13523780  0.09596485  1
  Ge  Ge14  1  0.50000000  0.54428862  0.11189819  1
  Ge  Ge15  1  0.65175251  0.65658508  0.68256495  1
  Ge  Ge16  1  0.65175251  0.15658508  0.81743505  1
  Ge  Ge17  1  0.34824749  0.15658508  0.81743505  1
  Ge  Ge18  1  -0.00000000  0.13217251  0.10114784  1
  Ge  Ge19  1  -0.00000000  0.86782749  0.89885216  1
  Ge  Ge20  1  0.50000000  0.45571138  0.88810181  1
  Ge  Ge21  1  0.34824749  0.84341492  0.18256495  1
  Ge  Ge22  1  0.50000000  0.63523780  0.40403515  1
  Ge  Ge23  1  -0.00000000  0.36782749  0.60114784  1
  Rh  Rh0  1  0.74799034  0.40367991  0.75354914  1
  Rh  Rh1  1  0.24880410  0.00000000  0.00000000  1
  Rh  Rh2  1  0.74799034  0.59632009  0.24645086  1
  Rh  Rh3  1  0.75119590  0.00000000  0.00000000  1
  Rh  Rh4  1  0.74799034  0.90367991  0.74645086  1
  Rh  Rh5  1  0.74799034  0.09632009  0.25354914  1
  Rh  Rh6  1  0.25200966  0.40367991  0.75354914  1
  Rh  Rh7  1  0.25200966  0.59632009  0.24645086  1
  Rh  Rh8  1  0.24880410  0.50000000  0.50000000  1
  Rh  Rh9  1  0.75119590  0.50000000  0.50000000  1
  Rh  Rh10  1  0.25200966  0.90367991  0.74645086  1
  Rh  Rh11  1  0.25200966  0.09632009  0.25354914  1
loop_
_geom_bond_atom_site_label_1
_geom_bond_atom_site_label_2
_geom_bond_distance
_geom_bond_site_symmetry_2
Ge0 Ge15 2.428234 1_555
Ge0 Rh10 2.529836 1_555
Ge0 Rh8 2.549040 1_555
Ge0 Rh6 2.600280 1_555
Ge0 Zr3 2.786888 1_555
Ge0 Zr7 2.966989 1_555
Ge0 Zr4 3.033433 1_555
Ge1 Rh4 2.488367 1_555
Ge1 Rh10 2.488367 1_555
Ge1 Ge11 2.504128 1_565
Ge1 Zr1 2.892913 1_555
Ge1 Zr4 2.892913 1_555
Ge1 Zr9 2.939275 1_565
Ge1 Zr8 2.939275 1_565
Ge2 Rh11 2.506501 1_555
Ge2 Rh5 2.506501 1_455
Ge2 Ge9 2.531161 1_545
Ge2 Zr11 2.861876 1_555
Ge2 Zr8 2.873869 1_555
Ge2 Zr9 2.873869 1_455
Ge2 Zr10 2.876482 1_545
Ge2 Zr1 2.876943 1_445
Ge2 Zr4 2.876943 1_545
Ge3 Ge7 2.428234 1_555
Ge3 Rh11 2.529836 1_555
Ge3 Rh8 2.549040 1_555
Ge3 Rh7 2.600280 1_555
Ge3 Zr11 2.786888 1_555
Ge3 Zr5 2.966989 1_555
Ge3 Zr8 3.033433 1_555
Ge4 Rh7 2.506501 1_555
Ge4 Rh2 2.506501 1_455
Ge4 Ge5 2.531161 1_554
Ge4 Zr10 2.861876 1_555
Ge4 Zr2 2.873869 1_454
Ge4 Zr7 2.873869 1_554
Ge4 Zr11 2.876482 1_555
Ge4 Zr5 2.876943 1_555
Ge4 Zr0 2.876943 1_455
Ge5 Rh6 2.506501 1_555
Ge5 Rh0 2.506501 1_455
Ge5 Zr6 2.861876 1_555
Ge5 Zr5 2.873869 1_556
Ge5 Zr0 2.873869 1_456
Ge5 Zr3 2.876482 1_555
Ge5 Zr7 2.876943 1_555
Ge5 Zr2 2.876943 1_455
Ge6 Rh3 2.582406 1_566
Ge6 Rh1 2.582406 1_566
Ge6 Rh10 2.614846 1_555
Ge6 Rh4 2.614846 1_555
Ge6 Zr2 2.776212 1_555
Ge6 Zr7 2.776212 1_555
Ge7 Rh5 2.529836 1_555
Ge7 Rh9 2.549040 1_555
Ge7 Rh2 2.600280 1_555
Ge7 Zr11 2.786888 1_655
Ge7 Zr0 2.966989 1_555
Ge7 Zr9 3.033433 1_555
Ge8 Rh2 2.529836 1_555
Ge8 Rh3 2.549040 1_565
Ge8 Rh5 2.600280 1_565
Ge8 Zr10 2.786888 1_655
Ge8 Zr1 2.966989 1_555
Ge8 Zr2 3.033433 1_554
Ge9 Rh10 2.506501 1_555
Ge9 Rh4 2.506501 1_455
Ge9 Zr3 2.861876 1_555
Ge9 Zr1 2.873869 1_455
Ge9 Zr4 2.873869 1_555
Ge9 Zr6 2.876482 1_565
Ge9 Zr8 2.876943 1_565
Ge9 Zr9 2.876943 1_465
Ge10 Rh8 2.575712 1_555
Ge10 Rh9 2.575712 1_455
Ge10 Rh7 2.601322 1_555
Ge10 Rh2 2.601322 1_455
Ge10 Zr1 2.757034 1_455
Ge10 Zr4 2.757034 1_555
Ge10 Zr11 2.894147 1_555
Ge10 Zr10 2.984985 1_555
Ge10 Zr3 3.004276 1_555
Ge11 Rh11 2.488367 1_555
Ge11 Rh5 2.488367 1_555
Ge11 Zr8 2.892913 1_555
Ge11 Zr9 2.892913 1_555
Ge11 Zr1 2.939275 1_545
Ge11 Zr4 2.939275 1_545
Ge12 Rh9 2.582406 1_555
Ge12 Rh8 2.582406 1_555
Ge12 Rh0 2.614846 1_555
Ge12 Rh6 2.614846 1_555
Ge12 Zr8 2.776212 1_555
Ge12 Zr9 2.776212 1_555
Ge13 Rh3 2.582406 1_555
Ge13 Rh1 2.582406 1_555
Ge13 Rh5 2.614846 1_555
Ge13 Rh11 2.614846 1_555
Ge13 Zr5 2.776212 1_555
Ge13 Zr0 2.776212 1_555
Ge14 Rh2 2.488367 1_555
Ge14 Rh7 2.488367 1_555
Ge14 Ge20 2.504128 1_554
Ge14 Zr2 2.892913 1_554
Ge14 Zr7 2.892913 1_554
Ge14 Zr0 2.939275 1_555
Ge14 Zr5 2.939275 1_555
Ge15 Rh4 2.529836 1_555
Ge15 Rh9 2.549040 1_555
Ge15 Rh0 2.600280 1_555
Ge15 Zr3 2.786888 1_655
Ge15 Zr2 2.966989 1_555
Ge15 Zr1 3.033433 1_555
Ge16 Ge17 2.428234 1_555
Ge16 Rh0 2.529836 1_555
Ge16 Rh3 2.549040 1_556
Ge16 Rh4 2.600280 1_545
Ge16 Zr6 2.786888 1_655
Ge16 Zr9 2.966989 1_555
Ge16 Zr0 3.033433 1_556
Ge17 Rh6 2.529836 1_555
Ge17 Rh1 2.549040 1_556
Ge17 Rh10 2.600280 1_545
Ge17 Zr6 2.786888 1_555
Ge17 Zr8 2.966989 1_555
Ge17 Zr5 3.033433 1_556
Ge18 Rh1 2.575712 1_555
Ge18 Rh3 2.575712 1_455
Ge18 Rh5 2.601322 1_455
Ge18 Rh11 2.601322 1_555
Ge18 Zr5 2.757034 1_555
Ge18 Zr0 2.757034 1_455
Ge18 Zr10 2.894147 1_545
Ge18 Zr11 2.984985 1_555
Ge18 Zr6 3.004276 1_554
Ge19 Rh1 2.575712 1_566
Ge19 Rh3 2.575712 1_466
Ge19 Rh4 2.601322 1_455
Ge19 Rh10 2.601322 1_555
Ge19 Zr7 2.757034 1_555
Ge19 Zr2 2.757034 1_455
Ge19 Zr6 2.894147 1_565
Ge19 Zr3 2.984985 1_555
Ge19 Zr10 3.004276 1_556
Ge20 Rh6 2.488367 1_555
Ge20 Rh0 2.488367 1_555
Ge20 Zr5 2.892913 1_556
Ge20 Zr0 2.892913 1_556
Ge20 Zr2 2.939275 1_555
Ge20 Zr7 2.939275 1_555
Ge21 Ge8 2.428234 1_555
Ge21 Rh7 2.529836 1_555
Ge21 Rh1 2.549040 1_565
Ge21 Rh11 2.600280 1_565
Ge21 Zr10 2.786888 1_555
Ge21 Zr4 2.966989 1_555
Ge21 Zr7 3.033433 1_554
Ge22 Rh9 2.582406 1_555
Ge22 Rh8 2.582406 1_555
Ge22 Rh2 2.614846 1_555
Ge22 Rh7 2.614846 1_555
Ge22 Zr1 2.776212 1_555
Ge22 Zr4 2.776212 1_555
Ge23 Rh8 2.575712 1_555
Ge23 Rh9 2.575712 1_455
Ge23 Rh0 2.601322 1_455
Ge23 Rh6 2.601322 1_555
Ge23 Zr9 2.757034 1_455
Ge23 Zr8 2.757034 1_555
Ge23 Zr3 2.894147 1_555
Ge23 Zr6 2.984985 1_555
Ge23 Zr11 3.004276 1_555
Rh0 Zr9 3.081819 1_555
Rh0 Zr6 3.098120 1_655
Rh0 Zr0 3.181908 1_556
Rh0 Zr3 3.246070 1_655
Rh0 Zr2 3.262962 1_555
Rh1 Zr7 3.126378 1_544
Rh1 Zr5 3.126378 1_555
Rh1 Zr10 3.160934 1_545
Rh1 Zr6 3.160934 1_554
Rh2 Zr1 3.081819 1_555
Rh2 Zr10 3.098120 1_655
Rh2 Zr2 3.181908 1_554
Rh2 Zr11 3.246070 1_655
Rh2 Zr0 3.262962 1_555
Rh3 Zr0 3.126378 1_555
Rh3 Zr2 3.126378 1_544
Rh3 Zr10 3.160934 1_645
Rh3 Zr6 3.160934 1_654
Rh4 Zr2 3.081819 1_555
Rh4 Zr3 3.098120 1_655
Rh4 Zr1 3.181908 1_555
Rh4 Zr6 3.246070 1_665
Rh4 Zr9 3.262962 1_565
Rh5 Zr0 3.081819 1_555
Rh5 Zr11 3.098120 1_655
Rh5 Zr9 3.181908 1_555
Rh5 Zr10 3.246070 1_645
Rh5 Zr1 3.262962 1_545
Rh6 Zr8 3.081819 1_555
Rh6 Zr6 3.098120 1_555
Rh6 Zr5 3.181908 1_556
Rh6 Zr3 3.246070 1_555
Rh6 Zr7 3.262962 1_555
Rh7 Zr4 3.081819 1_555
Rh7 Zr10 3.098120 1_555
Rh7 Zr7 3.181908 1_554
Rh7 Zr11 3.246070 1_555
Rh7 Zr5 3.262962 1_555
Rh8 Zr8 3.126378 1_555
Rh8 Zr4 3.126378 1_555
Rh8 Zr11 3.160934 1_555
Rh8 Zr3 3.160934 1_555
Rh9 Zr9 3.126378 1_555
Rh9 Zr1 3.126378 1_555
Rh9 Zr11 3.160934 1_655
Rh9 Zr3 3.160934 1_655
Rh10 Zr7 3.081819 1_555
Rh10 Zr3 3.098120 1_555
Rh10 Zr4 3.181908 1_555
Rh10 Zr6 3.246070 1_565
Rh10 Zr8 3.262962 1_565
Rh11 Zr5 3.081819 1_555
Rh11 Zr11 3.098120 1_555
Rh11 Zr8 3.181908 1_555
Rh11 Zr10 3.246070 1_545
Rh11 Zr4 3.262962 1_545
