# generated using pymatgen
data_CaSb12Ru3Rh
_symmetry_space_group_name_H-M   'P 1'
_cell_length_a   8.08245639
_cell_length_b   8.09168720
_cell_length_c   8.08211731
_cell_angle_alpha   109.48974544
_cell_angle_beta   109.44857886
_cell_angle_gamma   109.49688298
_symmetry_Int_Tables_number   1
_chemical_formula_structural   CaSb12Ru3Rh
_chemical_formula_sum   'Ca1 Sb12 Ru3 Rh1'
_cell_volume   406.78985699
_cell_formula_units_Z   1
loop_
 _symmetry_equiv_pos_site_id
 _symmetry_equiv_pos_as_xyz
  1  'x, y, z'
loop_
 _atom_site_type_symbol
 _atom_site_label
 _atom_site_symmetry_multiplicity
 _atom_site_fract_x
 _atom_site_fract_y
 _atom_site_fract_z
 _atom_site_occupancy
  Ca  Ca0  1  0.00000394  0.00000637  0.99999881  1
  Sb  Sb0  1  0.34098803  0.18334329  0.84183802  1
  Sb  Sb1  1  0.65900722  0.81665006  0.15815279  1
  Sb  Sb2  1  0.65639212  0.50112313  0.84210940  1
  Sb  Sb3  1  0.34360810  0.49886972  0.15788674  1
  Sb  Sb4  1  0.18564800  0.84471690  0.34357958  1
  Sb  Sb5  1  0.81435162  0.15527325  0.65641728  1
  Sb  Sb6  1  0.50098825  0.84241837  0.65901309  1
  Sb  Sb7  1  0.49900814  0.15758190  0.34099119  1
  Sb  Sb8  1  0.84208199  0.34098058  0.18566788  1
  Sb  Sb9  1  0.15791135  0.65902651  0.81434048  1
  Sb  Sb10  1  0.84193020  0.65857825  0.50094405  1
  Sb  Sb11  1  0.15807421  0.34142673  0.49906168  1
  Ru  Ru0  1  0.00000006  0.99999869  0.49999690  1
  Ru  Ru1  1  0.50000258  0.00000465  0.00000320  1
  Ru  Ru2  1  0.50000163  0.50000164  0.50000032  1
  Rh  Rh0  1  0.00000156  0.49999895  0.99999958  1
loop_
_geom_bond_atom_site_label_1
_geom_bond_atom_site_label_2
_geom_bond_distance
_geom_bond_site_symmetry_2
Ca0 Sb7 3.508301 1_556
Ca0 Sb6 3.508329 1_445
Ca0 Sb10 3.508573 1_445
Ca0 Sb11 3.508614 1_556
Ca0 Sb0 3.508912 1_555
Ca0 Sb1 3.508993 1_446
Ca0 Sb5 3.514638 1_455
Ca0 Sb4 3.514754 1_546
Ca0 Sb3 3.515015 1_556
Ca0 Sb2 3.515152 1_445
Ca0 Sb9 3.515161 1_545
Ca0 Sb8 3.515241 1_456
Sb0 Sb3 2.935954 1_556
Sb0 Sb2 2.954241 1_555
Sb1 Sb2 2.935955 1_554
Sb1 Sb3 2.954245 1_555
Sb4 Sb7 2.935094 1_565
Sb4 Sb6 2.954994 1_555
Sb5 Sb6 2.935097 1_545
Sb5 Sb7 2.955023 1_555
Sb10 Sb9 2.935648 1_655
Sb10 Sb8 2.954965 1_555
Sb11 Sb8 2.935698 1_455
Sb11 Sb9 2.955039 1_555
Ru0 Sb5 2.624898 1_465
Ru0 Sb4 2.624911 1_555
Ru0 Sb0 2.625800 1_565
Ru0 Sb1 2.625828 1_455
Ru0 Sb10 2.632344 1_455
Ru0 Sb11 2.632354 1_565
Ru1 Sb8 2.625082 1_555
Ru1 Sb9 2.625142 1_544
Ru1 Sb6 2.626332 1_544
Ru1 Sb7 2.626343 1_555
Ru1 Sb0 2.632641 1_554
Ru1 Sb1 2.632650 1_545
Ru2 Sb3 2.625081 1_555
Ru2 Sb2 2.625088 1_555
Ru2 Sb10 2.626116 1_555
Ru2 Sb11 2.626127 1_555
Ru2 Sb7 2.632670 1_555
Ru2 Sb6 2.632681 1_555
Rh0 Sb9 2.646471 1_555
Rh0 Sb8 2.646539 1_456
Rh0 Sb4 2.646875 1_556
Rh0 Sb3 2.646878 1_556
Rh0 Sb2 2.646881 1_455
Rh0 Sb5 2.646913 1_455
