# generated using pymatgen
data_Ba2NbBrO4
_symmetry_space_group_name_H-M   'P 1'
_cell_length_a   7.09877504
_cell_length_b   8.04553608
_cell_length_c   12.46823455
_cell_angle_alpha   90.00000000
_cell_angle_beta   90.00000000
_cell_angle_gamma   90.00000000
_symmetry_Int_Tables_number   1
_chemical_formula_structural   Ba2NbBrO4
_chemical_formula_sum   'Ba8 Nb4 Br4 O16'
_cell_volume   712.10389927
_cell_formula_units_Z   4
loop_
 _symmetry_equiv_pos_site_id
 _symmetry_equiv_pos_as_xyz
  1  'x, y, z'
loop_
 _atom_site_type_symbol
 _atom_site_label
 _atom_site_symmetry_multiplicity
 _atom_site_fract_x
 _atom_site_fract_y
 _atom_site_fract_z
 _atom_site_occupancy
  Ba  Ba0  1  0.61697138  0.25000000  0.00000000  1
  Ba  Ba1  1  0.38302862  0.75000000  0.00000000  1
  Ba  Ba2  1  0.38302862  0.75000000  0.50000000  1
  Ba  Ba3  1  0.61697138  0.25000000  0.50000000  1
  Ba  Ba4  1  0.12450089  0.02668952  0.25000000  1
  Ba  Ba5  1  0.87549911  0.97331048  0.75000000  1
  Ba  Ba6  1  0.87549911  0.52668952  0.25000000  1
  Ba  Ba7  1  0.12450089  0.47331048  0.75000000  1
  Nb  Nb0  1  0.11929864  0.25000000  0.00000000  1
  Nb  Nb1  1  0.88070136  0.75000000  0.00000000  1
  Nb  Nb2  1  0.88070136  0.75000000  0.50000000  1
  Nb  Nb3  1  0.11929864  0.25000000  0.50000000  1
  Br  Br0  1  0.43471060  0.36111244  0.25000000  1
  Br  Br1  1  0.56528940  0.63888756  0.75000000  1
  Br  Br2  1  0.56528940  0.86111244  0.25000000  1
  Br  Br3  1  0.43471060  0.13888756  0.75000000  1
  O  O0  1  0.04075516  0.76930958  0.11923279  1
  O  O1  1  0.95924484  0.23069042  0.88076721  1
  O  O2  1  0.95924484  0.23069042  0.61923279  1
  O  O3  1  0.95924484  0.26930958  0.38076721  1
  O  O4  1  0.04075516  0.76930958  0.38076721  1
  O  O5  1  0.04075516  0.73069042  0.61923279  1
  O  O6  1  0.04075516  0.73069042  0.88076721  1
  O  O7  1  0.95924484  0.26930958  0.11923279  1
  O  O8  1  0.27703196  0.07068870  0.03124223  1
  O  O9  1  0.72296804  0.92931130  0.96875777  1
  O  O10  1  0.72296804  0.92931130  0.53124223  1
  O  O11  1  0.72296804  0.57068870  0.46875777  1
  O  O12  1  0.27703196  0.07068870  0.46875777  1
  O  O13  1  0.27703196  0.42931130  0.53124223  1
  O  O14  1  0.27703196  0.42931130  0.96875777  1
  O  O15  1  0.72296804  0.57068870  0.03124223  1
loop_
_geom_bond_atom_site_label_1
_geom_bond_atom_site_label_2
_geom_bond_distance
_geom_bond_site_symmetry_2
Ba0 O15 2.715676 1_555
Ba0 O9 2.715676 1_544
Ba0 O14 2.838363 1_554
Ba0 O8 2.838363 1_555
Ba0 O7 2.852671 1_555
Ba0 O1 2.852671 1_554
Ba0 Br0 3.491305 1_555
Ba0 Br3 3.491305 1_554
Ba1 O8 2.715676 1_565
Ba1 O14 2.715676 1_554
Ba1 O9 2.838363 1_554
Ba1 O15 2.838363 1_555
Ba1 O0 2.852671 1_555
Ba1 O6 2.852671 1_554
Ba1 Br2 3.491305 1_555
Ba1 Br1 3.491305 1_554
Ba2 O12 2.715676 1_565
Ba2 O13 2.715676 1_555
Ba2 O10 2.838363 1_555
Ba2 O11 2.838363 1_555
Ba2 O5 2.852671 1_555
Ba2 O4 2.852671 1_555
Ba2 Br2 3.491305 1_555
Ba2 Br1 3.491305 1_555
Ba3 O11 2.715676 1_555
Ba3 O10 2.715676 1_545
Ba3 O13 2.838363 1_555
Ba3 O12 2.838363 1_555
Ba3 O2 2.852671 1_555
Ba3 O3 2.852671 1_555
Ba3 Br0 3.491305 1_555
Ba3 Br3 3.491305 1_555
Ba4 O4 2.701812 1_545
Ba4 O0 2.701812 1_545
Ba4 O3 2.800868 1_455
Ba4 O7 2.800868 1_455
Ba4 O12 2.955861 1_555
Ba4 O8 2.955861 1_555
Ba4 Br2 3.400830 1_545
Ba4 Br0 3.476877 1_555
Ba5 O1 2.701812 1_565
Ba5 O2 2.701812 1_565
Ba5 O6 2.800868 1_655
Ba5 O5 2.800868 1_655
Ba5 O9 2.955861 1_555
Ba5 O10 2.955861 1_555
Ba5 Br3 3.400830 1_565
Ba5 Br1 3.476877 1_555
Ba6 O3 2.701812 1_555
Ba6 O7 2.701812 1_555
Ba6 O4 2.800868 1_655
Ba6 O0 2.800868 1_655
Ba6 O11 2.955861 1_555
Ba6 O15 2.955861 1_555
Ba6 Br0 3.400830 1_555
Ba6 Br2 3.476877 1_555
Ba7 O6 2.701812 1_555
Ba7 O5 2.701812 1_555
Ba7 O1 2.800868 1_455
Ba7 O2 2.800868 1_455
Ba7 O14 2.955861 1_555
Ba7 O13 2.955861 1_555
Ba7 Br1 3.400830 1_555
Ba7 Br3 3.476877 1_555
Nb0 O14 1.867284 1_554
Nb0 O8 1.867284 1_555
Nb0 O7 1.877525 1_455
Nb0 O1 1.877525 1_454
Nb1 O9 1.867284 1_554
Nb1 O15 1.867284 1_555
Nb1 O0 1.877525 1_655
Nb1 O6 1.877525 1_654
Nb2 O10 1.867284 1_555
Nb2 O11 1.867284 1_555
Nb2 O5 1.877525 1_655
Nb2 O4 1.877525 1_655
Nb3 O13 1.867284 1_555
Nb3 O12 1.867284 1_555
Nb3 O2 1.877525 1_455
Nb3 O3 1.877525 1_455
