# generated using pymatgen
data_TcSn14Ir4Os
_symmetry_space_group_name_H-M   'P 1'
_cell_length_a   9.41547946
_cell_length_b   8.17894790
_cell_length_c   8.17605628
_cell_angle_alpha   70.52129980
_cell_angle_beta   54.86613187
_cell_angle_gamma   54.83736032
_symmetry_Int_Tables_number   1
_chemical_formula_structural   TcSn14Ir4Os
_chemical_formula_sum   'Tc1 Sn14 Ir4 Os1'
_cell_volume   420.95211543
_cell_formula_units_Z   1
loop_
 _symmetry_equiv_pos_site_id
 _symmetry_equiv_pos_as_xyz
  1  'x, y, z'
loop_
 _atom_site_type_symbol
 _atom_site_label
 _atom_site_symmetry_multiplicity
 _atom_site_fract_x
 _atom_site_fract_y
 _atom_site_fract_z
 _atom_site_occupancy
  Tc  Tc0  1  0.65225008  0.00032443  0.99967557  1
  Sn  Sn0  1  0.67621952  0.32244188  0.99753042  1
  Sn  Sn1  1  0.99991892  0.99984072  0.32646984  1
  Sn  Sn2  1  0.32420827  0.00229961  0.67343149  1
  Sn  Sn3  1  0.99645117  0.67757188  0.99998155  1
  Sn  Sn4  1  0.32622947  0.67353016  0.00015928  1
  Sn  Sn5  1  0.99619182  0.00246958  0.67755812  1
  Sn  Sn6  1  0.67400460  0.00001845  0.32242812  1
  Sn  Sn7  1  0.99993937  0.32656851  0.99770039  1
  Sn  Sn8  1  0.24998387  0.49759717  0.50240283  1
  Sn  Sn9  1  0.50332841  0.24967314  0.75032686  1
  Sn  Sn10  1  0.75443211  0.74692857  0.75220268  1
  Sn  Sn11  1  0.50388894  0.75006212  0.24993788  1
  Sn  Sn12  1  0.75127438  0.49804946  0.50195054  1
  Sn  Sn13  1  0.25356335  0.24779732  0.25307143  1
  Ir  Ir0  1  0.65676669  0.34352985  0.34285767  1
  Ir  Ir1  1  0.33833381  0.00019471  0.99980529  1
  Ir  Ir2  1  0.99995917  0.65901142  0.34098858  1
  Ir  Ir3  1  0.34315421  0.65714233  0.65647015  1
  Os  Os0  1  0.99990083  0.34494868  0.65505132  1
loop_
_geom_bond_atom_site_label_1
_geom_bond_atom_site_label_2
_geom_bond_distance
_geom_bond_site_symmetry_2
Sn0 Tc0 2.764368 1_555
Sn0 Sn4 2.857607 1_556
Sn0 Sn5 3.030280 1_555
Sn0 Sn6 3.055946 1_556
Sn0 Sn7 3.068339 1_555
Sn1 Sn5 2.857607 1_565
Sn1 Sn6 3.086938 1_565
Sn1 Sn4 3.090306 1_655
Sn1 Sn7 3.094527 1_564
Sn2 Sn6 2.858241 1_555
Sn2 Sn5 3.068339 1_455
Sn2 Sn4 3.094527 1_546
Sn3 Tc0 2.760901 1_565
Sn3 Sn7 2.858241 1_555
Sn3 Sn6 3.053712 1_566
Sn3 Sn5 3.055946 1_565
Sn3 Sn4 3.086938 1_656
Sn5 Tc0 2.764368 1_555
Sn6 Tc0 2.760901 1_554
Sn9 Tc0 2.739557 1_555
Sn10 Tc0 2.752153 1_565
Sn11 Tc0 2.745563 1_564
Sn13 Tc0 2.752153 1_554
Ir0 Sn1 2.766003 1_545
Ir0 Sn7 2.770036 1_554
Ir0 Sn6 2.775686 1_555
Ir0 Sn0 2.779954 1_554
Ir0 Sn8 2.783109 1_555
Ir0 Sn11 2.786782 1_555
Ir0 Sn12 2.793709 1_555
Ir0 Sn9 2.794175 1_555
Ir1 Sn1 2.737982 1_446
Ir1 Sn4 2.737982 1_546
Ir1 Sn2 2.741135 1_555
Ir1 Sn7 2.741135 1_455
Ir1 Sn9 2.822347 1_555
Ir1 Sn11 2.829027 1_546
Ir1 Sn13 2.838792 1_556
Ir1 Sn10 2.838792 1_545
Ir1 Tc0 2.955673 1_555
Ir2 Sn4 2.750108 1_655
Ir2 Sn1 2.750108 1_555
Ir2 Sn3 2.759628 1_554
Ir2 Sn6 2.759628 1_565
Ir2 Sn12 2.792131 1_555
Ir2 Sn8 2.803682 1_655
Ir2 Sn10 2.813698 1_555
Ir2 Sn13 2.813699 1_655
Ir3 Sn4 2.766003 1_556
Ir3 Sn2 2.770036 1_565
Ir3 Sn3 2.775686 1_455
Ir3 Sn5 2.779955 1_465
Ir3 Sn8 2.783109 1_555
Ir3 Sn11 2.786782 1_555
Ir3 Sn12 2.793709 1_555
Ir3 Sn9 2.794175 1_555
Os0 Sn12 2.750627 1_555
Os0 Sn7 2.755238 1_555
Os0 Sn2 2.755238 1_655
Os0 Sn8 2.761381 1_655
Os0 Sn0 2.764572 1_555
Os0 Sn5 2.764572 1_555
Os0 Sn13 2.767405 1_655
Os0 Sn10 2.767405 1_555
