# generated using pymatgen
data_CrGaNiO4
_symmetry_space_group_name_H-M   'P 1'
_cell_length_a   5.84975243
_cell_length_b   5.84975268
_cell_length_c   5.84975245
_cell_angle_alpha   120.62647047
_cell_angle_beta   119.39442377
_cell_angle_gamma   89.98522835
_symmetry_Int_Tables_number   1
_chemical_formula_structural   CrGaNiO4
_chemical_formula_sum   'Cr2 Ga2 Ni2 O8'
_cell_volume   141.50313598
_cell_formula_units_Z   2
loop_
 _symmetry_equiv_pos_site_id
 _symmetry_equiv_pos_as_xyz
  1  'x, y, z'
loop_
 _atom_site_type_symbol
 _atom_site_label
 _atom_site_symmetry_multiplicity
 _atom_site_fract_x
 _atom_site_fract_y
 _atom_site_fract_z
 _atom_site_occupancy
  Cr  Cr0  1  0.50000000  0.50000000  0.00000000  1
  Cr  Cr1  1  0.00000000  0.50000000  0.50000000  1
  Ga  Ga0  1  0.38234182  0.13234182  0.25000000  1
  Ga  Ga1  1  0.61765818  0.86765818  0.75000000  1
  Ni  Ni0  1  0.00000000  0.50000000  0.00000000  1
  Ni  Ni1  1  0.00000000  0.00000000  0.50000000  1
  O  O0  1  0.74981353  0.73408825  0.48427472  1
  O  O1  1  0.74981353  0.26553981  0.01572528  1
  O  O2  1  0.23146934  0.73961047  0.49185988  1
  O  O3  1  0.74775059  0.73961047  0.00814012  1
  O  O4  1  0.25018647  0.26591175  0.51572528  1
  O  O5  1  0.25018647  0.73446019  0.98427472  1
  O  O6  1  0.76853066  0.26038953  0.50814012  1
  O  O7  1  0.25224941  0.26038953  0.99185988  1
loop_
_geom_bond_atom_site_label_1
_geom_bond_atom_site_label_2
_geom_bond_distance
_geom_bond_site_symmetry_2
Cr0 O3 1.983087 1_555
Cr0 O7 1.983087 1_554
Cr0 O1 2.005158 1_555
Cr0 O5 2.005158 1_554
Cr0 O0 2.005162 1_555
Cr0 O4 2.005162 1_554
Cr1 O2 1.983083 1_555
Cr1 O6 1.983083 1_455
Cr1 O5 2.005162 1_555
Cr1 O1 2.005162 1_455
Cr1 O4 2.005162 1_555
Cr1 O0 2.005162 1_455
Ga0 O7 1.855956 1_554
Ga0 O6 1.855961 1_555
Ga0 O4 1.888447 1_555
Ga0 O5 1.888451 1_544
Ga1 O3 1.855956 1_556
Ga1 O2 1.855961 1_555
Ga1 O0 1.888447 1_555
Ga1 O1 1.888451 1_566
Ni0 O2 2.035734 1_555
Ni0 O6 2.035734 1_454
Ni0 O7 2.035734 1_554
Ni0 O3 2.035734 1_455
Ni0 O5 2.072010 1_554
Ni0 O1 2.072010 1_455
Ni1 O6 2.035730 1_455
Ni1 O2 2.035730 1_545
Ni1 O7 2.035734 1_555
Ni1 O3 2.035734 1_445
Ni1 O4 2.072014 1_555
Ni1 O0 2.072014 1_445
