# generated using pymatgen
data_Sc6MnOsC8
_symmetry_space_group_name_H-M   'P 1'
_cell_length_a   6.72359578
_cell_length_b   6.72359595
_cell_length_c   6.84545835
_cell_angle_alpha   75.21907162
_cell_angle_beta   75.21907227
_cell_angle_gamma   38.52045160
_symmetry_Int_Tables_number   1
_chemical_formula_structural   Sc6MnOsC8
_chemical_formula_sum   'Sc6 Mn1 Os1 C8'
_cell_volume   185.55890582
_cell_formula_units_Z   1
loop_
 _symmetry_equiv_pos_site_id
 _symmetry_equiv_pos_as_xyz
  1  'x, y, z'
loop_
 _atom_site_type_symbol
 _atom_site_label
 _atom_site_symmetry_multiplicity
 _atom_site_fract_x
 _atom_site_fract_y
 _atom_site_fract_z
 _atom_site_occupancy
  Sc  Sc0  1  0.50013605  0.50013605  0.99821251  1
  Sc  Sc1  1  0.49983685  0.49983685  0.50179041  1
  Sc  Sc2  1  0.19023712  0.19023712  0.90268105  1
  Sc  Sc3  1  0.19143528  0.19143528  0.40659197  1
  Sc  Sc4  1  0.80968871  0.80968871  0.59734320  1
  Sc  Sc5  1  0.80865817  0.80865817  0.09340212  1
  Mn  Mn0  1  0.00004319  0.00004319  0.25016201  1
  Os  Os0  1  0.99996669  0.99996669  0.74987622  1
  C  C0  1  0.79158677  0.46517663  0.68457500  1
  C  C1  1  0.46517663  0.79158677  0.68457500  1
  C  C2  1  0.78895563  0.45967516  0.18892626  1
  C  C3  1  0.45967516  0.78895563  0.18892626  1
  C  C4  1  0.53472373  0.20835320  0.81538272  1
  C  C5  1  0.20835320  0.53472373  0.81538272  1
  C  C6  1  0.54044387  0.21108395  0.31108578  1
  C  C7  1  0.21108395  0.54044387  0.31108578  1
loop_
_geom_bond_atom_site_label_1
_geom_bond_atom_site_label_2
_geom_bond_distance
_geom_bond_site_symmetry_2
C0 C1 1.447851 1_555
C0 Os0 2.166839 1_545
C0 Sc4 2.331353 1_555
C0 Sc3 2.381243 1_655
C0 Sc2 2.389808 1_655
C0 Sc1 2.419940 1_555
C0 Sc0 2.427934 1_555
C1 Os0 2.166839 1_455
C1 Sc4 2.331353 1_555
C1 Sc3 2.381243 1_565
C1 Sc2 2.389808 1_565
C1 Sc1 2.419940 1_555
C1 Sc0 2.427934 1_555
C2 C3 1.460582 1_555
C2 Mn0 2.125993 1_655
C2 Sc5 2.368570 1_555
C2 Sc1 2.405828 1_555
C2 Sc0 2.415599 1_554
C2 Sc3 2.417680 1_655
C2 Sc2 2.422059 1_654
C3 Mn0 2.125992 1_565
C3 Sc5 2.368570 1_555
C3 Sc1 2.405828 1_555
C3 Sc0 2.415599 1_554
C3 Sc3 2.417680 1_565
C3 Sc2 2.422059 1_564
C4 C5 1.447675 1_555
C4 Os0 2.167021 1_545
C4 Sc2 2.331255 1_555
C4 Sc5 2.381211 1_546
C4 Sc4 2.389502 1_545
C4 Sc0 2.420675 1_555
C4 Sc1 2.427979 1_555
C5 Os0 2.167021 1_455
C5 Sc2 2.331255 1_555
C5 Sc5 2.381211 1_456
C5 Sc4 2.389502 1_455
C5 Sc0 2.420675 1_555
C5 Sc1 2.427979 1_555
C6 C7 1.460935 1_555
C6 Mn0 2.125939 1_655
C6 Sc3 2.368459 1_555
C6 Sc0 2.405364 1_554
C6 Sc1 2.414529 1_555
C6 Sc5 2.417565 1_545
C6 Sc4 2.422259 1_545
C7 Mn0 2.125939 1_565
C7 Sc3 2.368459 1_555
C7 Sc0 2.405364 1_554
C7 Sc1 2.414529 1_555
C7 Sc5 2.417565 1_455
C7 Sc4 2.422259 1_455
