# generated using pymatgen
data_YSc2Al7Cu2
_symmetry_space_group_name_H-M   'P 1'
_cell_length_a   8.85701026
_cell_length_b   8.85701046
_cell_length_c   8.85701070
_cell_angle_alpha   35.16423583
_cell_angle_beta   35.16423002
_cell_angle_gamma   35.16423512
_symmetry_Int_Tables_number   1
_chemical_formula_structural   YSc2Al7Cu2
_chemical_formula_sum   'Y1 Sc2 Al7 Cu2'
_cell_volume   205.82803475
_cell_formula_units_Z   1
loop_
 _symmetry_equiv_pos_site_id
 _symmetry_equiv_pos_as_xyz
  1  'x, y, z'
loop_
 _atom_site_type_symbol
 _atom_site_label
 _atom_site_symmetry_multiplicity
 _atom_site_fract_x
 _atom_site_fract_y
 _atom_site_fract_z
 _atom_site_occupancy
  Y  Y0  1  0.00000000  0.00000000  0.00000000  1
  Sc  Sc0  1  0.85707792  0.85707792  0.85707792  1
  Sc  Sc1  1  0.14292208  0.14292208  0.14292208  1
  Al  Al0  1  0.41643206  0.41643206  0.92524861  1
  Al  Al1  1  0.92524861  0.41643206  0.41643206  1
  Al  Al2  1  0.41643206  0.92524861  0.41643206  1
  Al  Al3  1  0.50000000  0.50000000  0.50000000  1
  Al  Al4  1  0.58356794  0.07475139  0.58356794  1
  Al  Al5  1  0.07475139  0.58356794  0.58356794  1
  Al  Al6  1  0.58356794  0.58356794  0.07475139  1
  Cu  Cu0  1  0.66503225  0.66503225  0.66503225  1
  Cu  Cu1  1  0.33496775  0.33496775  0.33496775  1
loop_
_geom_bond_atom_site_label_1
_geom_bond_atom_site_label_2
_geom_bond_distance
_geom_bond_site_symmetry_2
Sc0 Sc1 3.307962 1_566
Sc0 Sc1 3.307962 1_665
Sc0 Sc1 3.307963 1_656
Sc0 Y0 3.559084 1_666
Sc1 Y0 3.559084 1_555
Al0 Cu0 2.518050 1_555
Al0 Cu1 2.549347 1_556
Al0 Al3 2.657320 1_555
Al0 Sc0 3.092758 1_545
Al0 Sc0 3.092758 1_455
Al0 Sc1 3.126726 1_556
Al0 Y0 3.345186 1_656
Al0 Y0 3.345186 1_566
Al1 Cu0 2.518050 1_555
Al1 Cu1 2.549347 1_655
Al1 Al3 2.657320 1_555
Al1 Sc0 3.092758 1_545
Al1 Sc0 3.092758 1_554
Al1 Sc1 3.126726 1_655
Al1 Y0 3.345186 1_665
Al1 Y0 3.345186 1_656
Al2 Cu0 2.518051 1_555
Al2 Cu1 2.549347 1_565
Al2 Al3 2.657320 1_555
Al2 Sc0 3.092758 1_455
Al2 Sc0 3.092758 1_554
Al2 Sc1 3.126726 1_565
Al2 Y0 3.345185 1_665
Al2 Y0 3.345186 1_566
Al3 Al5 2.657320 1_555
Al3 Al4 2.657320 1_555
Al3 Al6 2.657320 1_555
Al3 Sc0 3.145430 1_455
Al3 Sc1 3.145430 1_655
Al3 Sc0 3.145430 1_554
Al3 Sc1 3.145430 1_556
Al3 Sc0 3.145430 1_545
Al3 Sc1 3.145430 1_565
Al4 Cu1 2.518051 1_555
Al4 Cu0 2.549347 1_545
Al4 Sc1 3.092758 1_655
Al4 Sc1 3.092758 1_556
Al4 Sc0 3.126726 1_545
Al4 Y0 3.345185 1_556
Al4 Y0 3.345186 1_655
Al5 Cu1 2.518050 1_555
Al5 Cu0 2.549347 1_455
Al5 Sc1 3.092758 1_565
Al5 Sc1 3.092758 1_556
Al5 Sc0 3.126726 1_455
Al5 Y0 3.345186 1_556
Al5 Y0 3.345186 1_565
Al6 Cu1 2.518050 1_555
Al6 Cu0 2.549347 1_554
Al6 Sc1 3.092758 1_565
Al6 Sc1 3.092758 1_655
Al6 Sc0 3.126726 1_554
Al6 Y0 3.345186 1_565
Al6 Y0 3.345186 1_655
Cu0 Y0 3.089621 1_566
Cu0 Y0 3.089621 1_665
Cu0 Y0 3.089621 1_656
Cu1 Y0 3.089621 1_655
Cu1 Y0 3.089621 1_556
Cu1 Y0 3.089621 1_565
