# generated using pymatgen
data_Sc11CoRu2Pt
_symmetry_space_group_name_H-M   'P 1'
_cell_length_a   9.45419388
_cell_length_b   9.45419360
_cell_length_c   9.38949417
_cell_angle_alpha   60.22612290
_cell_angle_beta   60.22612391
_cell_angle_gamma   59.54776178
_symmetry_Int_Tables_number   1
_chemical_formula_structural   Sc11CoRu2Pt
_chemical_formula_sum   'Sc22 Co2 Ru4 Pt2'
_cell_volume   593.38398261
_cell_formula_units_Z   2
loop_
 _symmetry_equiv_pos_site_id
 _symmetry_equiv_pos_as_xyz
  1  'x, y, z'
loop_
 _atom_site_type_symbol
 _atom_site_label
 _atom_site_symmetry_multiplicity
 _atom_site_fract_x
 _atom_site_fract_y
 _atom_site_fract_z
 _atom_site_occupancy
  Sc  Sc0  1  0.80803364  0.80803364  0.19196636  1
  Sc  Sc1  1  0.19250648  0.80749352  0.19250648  1
  Sc  Sc2  1  0.80749352  0.19250648  0.19250648  1
  Sc  Sc3  1  0.19196636  0.19196636  0.80803364  1
  Sc  Sc4  1  0.80749352  0.19250648  0.80749352  1
  Sc  Sc5  1  0.19250648  0.80749352  0.80749352  1
  Sc  Sc6  1  0.61535678  0.61535678  0.15624556  1
  Sc  Sc7  1  0.61304389  0.15624556  0.61535678  1
  Sc  Sc8  1  0.15624556  0.61304389  0.61535678  1
  Sc  Sc9  1  0.61535678  0.61535678  0.61304389  1
  Sc  Sc10  1  0.38464322  0.38464322  0.84375444  1
  Sc  Sc11  1  0.38695611  0.84375444  0.38464322  1
  Sc  Sc12  1  0.84375444  0.38695611  0.38464322  1
  Sc  Sc13  1  0.38464322  0.38464322  0.38695611  1
  Sc  Sc14  1  0.83957937  0.83957937  0.47369269  1
  Sc  Sc15  1  0.84714758  0.47369269  0.83957937  1
  Sc  Sc16  1  0.47369269  0.84714758  0.83957937  1
  Sc  Sc17  1  0.83957937  0.83957937  0.84714758  1
  Sc  Sc18  1  0.16042063  0.16042063  0.52630731  1
  Sc  Sc19  1  0.15285242  0.52630731  0.16042063  1
  Sc  Sc20  1  0.52630731  0.15285242  0.16042063  1
  Sc  Sc21  1  0.16042063  0.16042063  0.15285242  1
  Co  Co0  1  0.00000000  0.00000000  0.00000000  1
  Co  Co1  1  0.50000000  0.50000000  0.50000000  1
  Ru  Ru0  1  0.50000000  0.00000000  0.50000000  1
  Ru  Ru1  1  0.00000000  0.50000000  0.50000000  1
  Ru  Ru2  1  0.00000000  0.50000000  0.00000000  1
  Ru  Ru3  1  0.50000000  0.00000000  0.00000000  1
  Pt  Pt0  1  0.00000000  0.00000000  0.50000000  1
  Pt  Pt1  1  0.50000000  0.50000000  0.00000000  1
loop_
_geom_bond_atom_site_label_1
_geom_bond_atom_site_label_2
_geom_bond_distance
_geom_bond_site_symmetry_2
Co0 Sc1 2.556246 1_545
Co0 Sc2 2.556246 1_455
Co0 Sc5 2.556246 1_544
Co0 Sc4 2.556246 1_454
Co0 Sc3 2.584083 1_554
Co0 Sc0 2.584083 1_445
Co1 Sc11 2.647703 1_555
Co1 Sc7 2.647703 1_555
Co1 Sc12 2.647703 1_555
Co1 Sc8 2.647703 1_555
Co1 Sc6 2.647703 1_555
Co1 Sc10 2.647703 1_555
Co1 Sc9 2.647726 1_555
Co1 Sc13 2.647726 1_555
Ru0 Sc16 2.705024 1_545
Ru0 Sc20 2.705024 1_555
Ru0 Sc14 2.705025 1_545
Ru0 Sc18 2.705025 1_555
Ru0 Sc13 2.972586 1_555
Ru0 Sc9 2.972586 1_545
Ru0 Sc7 2.972610 1_555
Ru0 Sc11 2.972610 1_545
Ru1 Sc15 2.705024 1_455
Ru1 Sc19 2.705024 1_555
Ru1 Sc14 2.705025 1_455
Ru1 Sc18 2.705025 1_555
Ru1 Sc13 2.972586 1_555
Ru1 Sc9 2.972586 1_455
Ru1 Sc8 2.972610 1_555
Ru1 Sc12 2.972610 1_455
Ru2 Sc21 2.705027 1_555
Ru2 Sc17 2.705027 1_454
Ru2 Sc19 2.705032 1_555
Ru2 Sc15 2.705032 1_454
Ru2 Sc12 2.972588 1_455
Ru2 Sc8 2.972588 1_554
Ru2 Sc10 2.972588 1_554
Ru2 Sc6 2.972588 1_455
Ru3 Sc21 2.705027 1_555
Ru3 Sc17 2.705027 1_544
Ru3 Sc20 2.705032 1_555
Ru3 Sc16 2.705032 1_544
Ru3 Sc10 2.972588 1_554
Ru3 Sc6 2.972588 1_545
Ru3 Sc7 2.972588 1_554
Ru3 Sc11 2.972588 1_545
Pt0 Sc17 2.781574 1_445
Pt0 Sc21 2.781574 1_555
Pt0 Sc18 2.781580 1_555
Pt0 Sc14 2.781580 1_445
Pt0 Sc12 2.985752 1_455
Pt0 Sc8 2.985752 1_545
Pt0 Sc11 2.985753 1_545
Pt0 Sc7 2.985753 1_455
Pt1 Sc16 2.781571 1_554
Pt1 Sc20 2.781571 1_555
Pt1 Sc15 2.781572 1_554
Pt1 Sc19 2.781572 1_555
Pt1 Sc13 2.985751 1_555
Pt1 Sc9 2.985751 1_554
Pt1 Sc6 2.985775 1_555
Pt1 Sc10 2.985775 1_554
