# generated using pymatgen
data_Ta3Nb7Si6
_symmetry_space_group_name_H-M   'P 1'
_cell_length_a   7.55295561
_cell_length_b   7.55295499
_cell_length_c   7.55212870
_cell_angle_alpha   128.31768265
_cell_angle_beta   128.31767888
_cell_angle_gamma   76.08733409
_symmetry_Int_Tables_number   1
_chemical_formula_structural   Ta3Nb7Si6
_chemical_formula_sum   'Ta3 Nb7 Si6'
_cell_volume   257.84923563
_cell_formula_units_Z   1
loop_
 _symmetry_equiv_pos_site_id
 _symmetry_equiv_pos_as_xyz
  1  'x, y, z'
loop_
 _atom_site_type_symbol
 _atom_site_label
 _atom_site_symmetry_multiplicity
 _atom_site_fract_x
 _atom_site_fract_y
 _atom_site_fract_z
 _atom_site_occupancy
  Ta  Ta0  1  0.81489446  0.31489446  0.83177027  1
  Ta  Ta1  1  0.00023686  0.00055175  0.00011454  1
  Ta  Ta2  1  0.50055175  0.50023686  0.00011454  1
  Nb  Nb0  1  0.01799665  0.18543483  0.50063616  1
  Nb  Nb1  1  0.68543483  0.51799665  0.50063616  1
  Nb  Nb2  1  0.51825582  0.01825582  0.83358225  1
  Nb  Nb3  1  0.18513103  0.68513103  0.16676438  1
  Nb  Nb4  1  0.98151239  0.81443256  0.49941079  1
  Nb  Nb5  1  0.31443256  0.48151239  0.49941079  1
  Nb  Nb6  1  0.48208232  0.98208232  0.16757148  1
  Si  Si0  1  0.75010774  0.74919402  0.99995687  1
  Si  Si1  1  0.24919402  0.25010774  0.99995687  1
  Si  Si2  1  0.37160259  0.12894269  0.50053075  1
  Si  Si3  1  0.62894269  0.87160259  0.50053075  1
  Si  Si4  1  0.87098868  0.37098868  0.24174074  1
  Si  Si5  1  0.12863362  0.62863362  0.75727166  1
loop_
_geom_bond_atom_site_label_1
_geom_bond_atom_site_label_2
_geom_bond_distance
_geom_bond_site_symmetry_2
Nb0 Si2 2.601785 1_555
Nb0 Si5 2.636621 1_555
Nb0 Si4 2.641480 1_455
Nb0 Si1 2.732825 1_555
Nb0 Si0 2.741764 1_444
Nb1 Si3 2.601784 1_555
Nb1 Si5 2.636621 1_655
Nb1 Si4 2.641480 1_555
Nb1 Si0 2.732825 1_555
Nb1 Si1 2.741764 1_554
Nb2 Si4 2.596820 1_556
Nb2 Si3 2.638127 1_545
Nb2 Si2 2.638127 1_555
Nb2 Si0 2.738935 1_545
Nb2 Si1 2.738935 1_555
Nb3 Si5 2.596671 1_554
Nb3 Si2 2.638970 1_565
Nb3 Si3 2.638971 1_555
Nb3 Si1 2.734150 1_554
Nb3 Si0 2.734150 1_454
Nb4 Si3 2.597737 1_555
Nb4 Si4 2.636194 1_555
Nb4 Si5 2.636671 1_655
Nb4 Si0 2.731199 1_554
Nb4 Si1 2.739080 1_665
Nb5 Si2 2.597737 1_555
Nb5 Si4 2.636194 1_455
Nb5 Si5 2.636671 1_555
Nb5 Si1 2.731199 1_554
Nb5 Si0 2.739081 1_555
Nb6 Si5 2.601264 1_554
Nb6 Si2 2.635858 1_565
Nb6 Si3 2.635858 1_555
Nb6 Si1 2.738388 1_564
Nb6 Si0 2.738388 1_554
Si0 Ta0 2.728559 1_555
Si0 Ta2 2.966227 1_556
Si0 Ta1 2.982044 1_666
Si1 Ta0 2.728560 1_455
Si1 Ta1 2.966227 1_556
Si1 Ta2 2.982044 1_556
Si2 Si3 2.395630 1_545
Si2 Ta2 2.585396 1_556
Si2 Ta1 2.590160 1_555
Si2 Ta0 2.637993 1_555
Si3 Ta1 2.585397 1_666
Si3 Ta2 2.590159 1_555
Si3 Ta0 2.637993 1_565
Si4 Si5 2.400591 1_655
Si4 Ta1 2.583689 1_655
Si4 Ta2 2.583689 1_555
Si4 Ta0 2.603492 1_554
Si5 Ta1 2.588801 1_566
Si5 Ta2 2.588802 1_556
