# generated using pymatgen
data_HfGaCo2
_symmetry_space_group_name_H-M   'P 1'
_cell_length_a   4.22643246
_cell_length_b   4.22643241
_cell_length_c   4.22643160
_cell_angle_alpha   59.99999836
_cell_angle_beta   59.99999874
_cell_angle_gamma   59.99998961
_symmetry_Int_Tables_number   1
_chemical_formula_structural   HfGaCo2
_chemical_formula_sum   'Hf1 Ga1 Co2'
_cell_volume   53.38345333
_cell_formula_units_Z   1
loop_
 _symmetry_equiv_pos_site_id
 _symmetry_equiv_pos_as_xyz
  1  'x, y, z'
loop_
 _atom_site_type_symbol
 _atom_site_label
 _atom_site_symmetry_multiplicity
 _atom_site_fract_x
 _atom_site_fract_y
 _atom_site_fract_z
 _atom_site_occupancy
  Hf  Hf0  1  0.50000000  0.50000000  0.50000000  1
  Ga  Ga0  1  0.00000000  -0.00000000  0.00000000  1
  Co  Co0  1  0.25000000  0.25000000  0.25000000  1
  Co  Co1  1  0.75000000  0.75000000  0.75000000  1
loop_
_geom_bond_atom_site_label_1
_geom_bond_atom_site_label_2
_geom_bond_distance
_geom_bond_site_symmetry_2
Ga0 Hf0 2.988539 1_454
Ga0 Hf0 2.988539 1_544
Ga0 Hf0 2.988539 1_545
Ga0 Hf0 2.988539 1_455
Ga0 Hf0 2.988539 1_554
Ga0 Hf0 2.988539 1_445
Co0 Ga0 2.588150 1_556
Co0 Hf0 2.588150 1_554
Co0 Hf0 2.588150 1_545
Co0 Ga0 2.588150 1_565
Co0 Hf0 2.588151 1_455
Co0 Ga0 2.588151 1_655
Co0 Ga0 2.588151 1_555
Co0 Hf0 2.588151 1_555
Co1 Hf0 2.588150 1_556
Co1 Ga0 2.588150 1_665
Co1 Ga0 2.588150 1_656
Co1 Hf0 2.588150 1_565
Co1 Hf0 2.588151 1_655
Co1 Ga0 2.588151 1_566
Co1 Ga0 2.588151 1_666
Co1 Hf0 2.588151 1_555
