# generated using pymatgen
data_Sr3MgTiN4
_symmetry_space_group_name_H-M   'P 1'
_cell_length_a   6.03996086
_cell_length_b   9.74777528
_cell_length_c   10.39003317
_cell_angle_alpha   90.00000000
_cell_angle_beta   90.00000000
_cell_angle_gamma   90.00000000
_symmetry_Int_Tables_number   1
_chemical_formula_structural   Sr3MgTiN4
_chemical_formula_sum   'Sr12 Mg4 Ti4 N16'
_cell_volume   611.72547555
_cell_formula_units_Z   4
loop_
 _symmetry_equiv_pos_site_id
 _symmetry_equiv_pos_as_xyz
  1  'x, y, z'
loop_
 _atom_site_type_symbol
 _atom_site_label
 _atom_site_symmetry_multiplicity
 _atom_site_fract_x
 _atom_site_fract_y
 _atom_site_fract_z
 _atom_site_occupancy
  Sr  Sr0  1  0.75000000  0.40335497  0.00000000  1
  Sr  Sr1  1  0.11294043  0.91554256  0.84603073  1
  Sr  Sr2  1  0.38705957  0.58445744  0.34603073  1
  Sr  Sr3  1  0.88705957  0.08445744  0.15396927  1
  Sr  Sr4  1  0.88705957  0.41554256  0.34603073  1
  Sr  Sr5  1  0.75000000  0.09664503  0.50000000  1
  Sr  Sr6  1  0.38705957  0.91554256  0.15396927  1
  Sr  Sr7  1  0.61294043  0.41554256  0.65396927  1
  Sr  Sr8  1  0.25000000  0.59664503  0.00000000  1
  Sr  Sr9  1  0.11294043  0.58445744  0.65396927  1
  Sr  Sr10  1  0.61294043  0.08445744  0.84603073  1
  Sr  Sr11  1  0.25000000  0.90335497  0.50000000  1
  Mg  Mg0  1  0.15430173  0.25000000  0.75000000  1
  Mg  Mg1  1  0.84569827  0.75000000  0.25000000  1
  Mg  Mg2  1  0.34569827  0.25000000  0.25000000  1
  Mg  Mg3  1  0.65430173  0.75000000  0.75000000  1
  Ti  Ti0  1  0.75000000  0.76599697  0.50000000  1
  Ti  Ti1  1  0.75000000  0.73400303  0.00000000  1
  Ti  Ti2  1  0.25000000  0.26599697  0.00000000  1
  Ti  Ti3  1  0.25000000  0.23400303  0.50000000  1
  N  N0  1  0.98734990  0.66200899  0.41425754  1
  N  N1  1  0.37779464  0.37413887  0.86431394  1
  N  N2  1  0.87779464  0.87413887  0.63568606  1
  N  N3  1  0.01265010  0.16200899  0.91425754  1
  N  N4  1  0.48734990  0.16200899  0.08574246  1
  N  N5  1  0.48734990  0.33799101  0.41425754  1
  N  N6  1  0.98734990  0.83799101  0.08574246  1
  N  N7  1  0.01265010  0.33799101  0.58574246  1
  N  N8  1  0.87779464  0.62586113  0.86431394  1
  N  N9  1  0.51265010  0.66200899  0.58574246  1
  N  N10  1  0.62220536  0.62586113  0.13568606  1
  N  N11  1  0.37779464  0.12586113  0.63568606  1
  N  N12  1  0.62220536  0.87413887  0.36431394  1
  N  N13  1  0.12220536  0.37413887  0.13568606  1
  N  N14  1  0.12220536  0.12586113  0.36431394  1
  N  N15  1  0.51265010  0.83799101  0.91425754  1
loop_
_geom_bond_atom_site_label_1
_geom_bond_atom_site_label_2
_geom_bond_distance
_geom_bond_site_symmetry_2
Mg0 N3 2.092917 1_555
Mg0 N7 2.092917 1_555
Mg0 N1 2.167298 1_555
Mg0 N11 2.167298 1_555
Mg1 N0 2.092917 1_555
Mg1 N6 2.092917 1_555
Mg1 N12 2.167298 1_555
Mg1 N10 2.167298 1_555
Mg2 N5 2.092917 1_555
Mg2 N4 2.092917 1_555
Mg2 N14 2.167298 1_555
Mg2 N13 2.167298 1_555
Mg3 N15 2.092917 1_555
Mg3 N9 2.092917 1_555
Mg3 N2 2.167298 1_555
Mg3 N8 2.167298 1_555
N0 Ti0 1.968831 1_555
N0 Sr4 2.577100 1_555
N0 Sr2 2.627259 1_655
N0 Sr9 2.711095 1_655
N0 Sr11 2.974048 1_655
N1 Ti2 1.922107 1_556
N1 Sr7 2.637502 1_555
N1 Sr0 2.668815 1_556
N1 Sr8 2.699552 1_556
N2 Ti0 1.922107 1_555
N2 Sr1 2.637502 1_655
N2 Sr11 2.668815 1_655
N2 Sr5 2.699552 1_565
N3 Ti2 1.968831 1_556
N3 Sr1 2.577100 1_545
N3 Sr10 2.627259 1_455
N3 Sr3 2.711095 1_456
N3 Sr0 2.974048 1_456
N4 Ti2 1.968831 1_555
N4 Sr6 2.577100 1_545
N4 Sr3 2.627259 1_555
N4 Sr10 2.711095 1_554
N4 Sr0 2.974048 1_555
N5 Ti3 1.968831 1_555
N5 Sr2 2.577100 1_555
N5 Sr4 2.627259 1_555
N5 Sr7 2.711095 1_555
N5 Sr5 2.974048 1_555
N6 Ti1 1.968831 1_555
N6 Sr3 2.577100 1_565
N6 Sr6 2.627259 1_655
N6 Sr1 2.711095 1_654
N6 Sr8 2.974048 1_655
N7 Ti3 1.968831 1_555
N7 Sr9 2.577100 1_555
N7 Sr7 2.627259 1_455
N7 Sr4 2.711095 1_455
N7 Sr5 2.974048 1_455
N8 Ti1 1.922107 1_556
N8 Sr9 2.637502 1_655
N8 Sr8 2.668815 1_656
N8 Sr0 2.699552 1_556
N9 Ti0 1.968831 1_555
N9 Sr7 2.577100 1_555
N9 Sr9 2.627259 1_555
N9 Sr2 2.711095 1_555
N9 Sr11 2.974048 1_555
N10 Ti1 1.922107 1_555
N10 Sr2 2.637502 1_555
N10 Sr8 2.668815 1_555
N10 Sr0 2.699552 1_555
N11 Ti3 1.922107 1_555
N11 Sr10 2.637502 1_555
N11 Sr5 2.668815 1_555
N11 Sr11 2.699552 1_545
N12 Ti0 1.922107 1_555
N12 Sr6 2.637502 1_555
N12 Sr11 2.668815 1_555
N12 Sr5 2.699552 1_565
N13 Ti2 1.922107 1_555
N13 Sr4 2.637502 1_455
N13 Sr0 2.668815 1_455
N13 Sr8 2.699552 1_555
N14 Ti3 1.922107 1_555
N14 Sr3 2.637502 1_455
N14 Sr5 2.668815 1_455
N14 Sr11 2.699552 1_545
N15 Ti1 1.968831 1_556
N15 Sr10 2.577100 1_565
N15 Sr1 2.627259 1_555
N15 Sr6 2.711095 1_556
N15 Sr8 2.974048 1_556
