# generated using pymatgen
data_SrNi9Ge2P3
_symmetry_space_group_name_H-M   'P 1'
_cell_length_a   6.71756660
_cell_length_b   6.71756651
_cell_length_c   10.38875964
_cell_angle_alpha   90.00000000
_cell_angle_beta   90.00000000
_cell_angle_gamma   119.99999570
_symmetry_Int_Tables_number   1
_chemical_formula_structural   SrNi9Ge2P3
_chemical_formula_sum   'Sr2 Ni18 Ge4 P6'
_cell_volume   405.99277456
_cell_formula_units_Z   2
loop_
 _symmetry_equiv_pos_site_id
 _symmetry_equiv_pos_as_xyz
  1  'x, y, z'
loop_
 _atom_site_type_symbol
 _atom_site_label
 _atom_site_symmetry_multiplicity
 _atom_site_fract_x
 _atom_site_fract_y
 _atom_site_fract_z
 _atom_site_occupancy
  Sr  Sr0  1  0.00000000  0.00000000  0.00000000  1
  Sr  Sr1  1  0.00000000  0.00000000  0.50000000  1
  Ni  Ni0  1  0.53905754  0.07811508  0.11773373  1
  Ni  Ni1  1  0.46094246  0.53905754  0.61773373  1
  Ni  Ni2  1  0.07811508  0.53905754  0.61773373  1
  Ni  Ni3  1  0.92188492  0.46094246  0.11773373  1
  Ni  Ni4  1  0.53905754  0.46094246  0.11773373  1
  Ni  Ni5  1  0.46094246  0.92188492  0.88226627  1
  Ni  Ni6  1  0.46094246  0.53905754  0.88226627  1
  Ni  Ni7  1  0.46094246  0.92188492  0.61773373  1
  Ni  Ni8  1  0.07811508  0.53905754  0.88226627  1
  Ni  Ni9  1  0.92188492  0.46094246  0.38226627  1
  Ni  Ni10  1  0.53905754  0.07811508  0.38226627  1
  Ni  Ni11  1  0.53905754  0.46094246  0.38226627  1
  Ni  Ni12  1  0.19762846  0.39525591  0.25000000  1
  Ni  Ni13  1  0.80237154  0.19762846  0.75000000  1
  Ni  Ni14  1  0.39525591  0.19762846  0.75000000  1
  Ni  Ni15  1  0.60474409  0.80237154  0.25000000  1
  Ni  Ni16  1  0.19762846  0.80237154  0.25000000  1
  Ni  Ni17  1  0.80237154  0.60474409  0.75000000  1
  Ge  Ge0  1  0.33333300  0.66666700  0.06379276  1
  Ge  Ge1  1  0.66666700  0.33333300  0.56379276  1
  Ge  Ge2  1  0.66666700  0.33333300  0.93620724  1
  Ge  Ge3  1  0.33333300  0.66666700  0.43620724  1
  P  P0  1  0.83060248  0.66120597  0.25000000  1
  P  P1  1  0.16939752  0.83060248  0.75000000  1
  P  P2  1  0.66120597  0.83060248  0.75000000  1
  P  P3  1  0.33879403  0.16939752  0.25000000  1
  P  P4  1  0.83060248  0.16939752  0.25000000  1
  P  P5  1  0.16939752  0.33879403  0.75000000  1
loop_
_geom_bond_atom_site_label_1
_geom_bond_atom_site_label_2
_geom_bond_distance
_geom_bond_site_symmetry_2
Ni0 P4 2.213323 1_555
Ni0 P3 2.213328 1_555
Ni0 Sr0 3.603323 1_655
Ni0 Sr0 3.603323 1_555
Ni1 P2 2.213324 1_555
Ni1 P5 2.213324 1_555
Ni1 Sr1 3.603323 1_555
Ni1 Sr1 3.603323 1_665
Ni2 P1 2.213323 1_555
Ni2 P5 2.213328 1_555
Ni2 Sr1 3.603323 1_565
Ni2 Sr1 3.603323 1_555
Ni3 P4 2.213323 1_555
Ni3 P0 2.213328 1_555
Ni3 Sr0 3.603323 1_655
Ni3 Sr0 3.603323 1_665
Ni4 P3 2.213324 1_555
Ni4 P0 2.213324 1_555
Ni4 Sr0 3.603323 1_665
Ni4 Sr0 3.603323 1_555
Ni5 P1 2.213323 1_555
Ni5 P2 2.213328 1_555
Ni5 Sr0 3.603323 1_566
Ni5 Sr0 3.603323 1_666
Ni6 P2 2.213324 1_555
Ni6 P5 2.213324 1_555
Ni6 Sr0 3.603323 1_556
Ni6 Sr0 3.603323 1_666
Ni7 P1 2.213323 1_555
Ni7 P2 2.213328 1_555
Ni7 Sr1 3.603323 1_565
Ni7 Sr1 3.603323 1_665
Ni8 P1 2.213323 1_555
Ni8 P5 2.213328 1_555
Ni8 Sr0 3.603323 1_566
Ni8 Sr0 3.603323 1_556
Ni9 P4 2.213323 1_555
Ni9 P0 2.213328 1_555
Ni9 Sr1 3.603323 1_655
Ni9 Sr1 3.603323 1_665
Ni10 P4 2.213323 1_555
Ni10 P3 2.213328 1_555
Ni10 Sr1 3.603323 1_655
Ni10 Sr1 3.603323 1_555
Ni11 P3 2.213324 1_555
Ni11 P0 2.213324 1_555
Ni11 Sr1 3.603323 1_665
Ni11 Sr1 3.603323 1_555
Ni12 P3 2.154058 1_555
Ni12 P4 2.154069 1_455
Ni12 Sr0 3.468832 1_555
Ni12 Sr1 3.468832 1_555
Ni13 P2 2.154071 1_545
Ni13 P5 2.154071 1_655
Ni13 Sr0 3.468835 1_656
Ni13 Sr1 3.468835 1_655
Ni14 P5 2.154058 1_555
Ni14 P1 2.154069 1_545
Ni14 Sr0 3.468832 1_556
Ni14 Sr1 3.468832 1_555
Ni15 P0 2.154058 1_555
Ni15 P4 2.154069 1_565
Ni15 Sr1 3.468832 1_665
Ni15 Sr0 3.468832 1_665
Ni16 P3 2.154071 1_565
Ni16 P0 2.154071 1_455
Ni16 Sr0 3.468835 1_565
Ni16 Sr1 3.468835 1_565
Ni17 P2 2.154058 1_555
Ni17 P1 2.154069 1_655
Ni17 Sr0 3.468832 1_666
Ni17 Sr1 3.468832 1_665
Ge0 Ni5 2.400179 1_554
Ge0 Ni8 2.400179 1_554
Ge0 Ni6 2.400183 1_554
Ge0 Ni0 2.458355 1_565
Ge0 Ni3 2.458355 1_455
Ge0 Ni4 2.458360 1_555
Ge0 Ni16 2.497041 1_555
Ge0 Ni12 2.497048 1_555
Ge0 Ni15 2.497048 1_555
Ge1 Ni10 2.400179 1_555
Ge1 Ni9 2.400179 1_555
Ge1 Ni11 2.400183 1_555
Ge1 Ni7 2.458355 1_545
Ge1 Ni2 2.458355 1_655
Ge1 Ni1 2.458360 1_555
Ge1 Ni13 2.497041 1_555
Ge1 Ni17 2.497048 1_555
Ge1 Ni14 2.497048 1_555
Ge2 Ni0 2.400179 1_556
Ge2 Ni3 2.400179 1_556
Ge2 Ni4 2.400183 1_556
Ge2 Ni5 2.458355 1_545
Ge2 Ni8 2.458355 1_655
Ge2 Ni6 2.458360 1_555
Ge2 Ni13 2.497041 1_555
Ge2 Ni17 2.497048 1_555
Ge2 Ni14 2.497048 1_555
Ge3 Ni7 2.400179 1_555
Ge3 Ni2 2.400179 1_555
Ge3 Ni1 2.400183 1_555
Ge3 Ni10 2.458355 1_565
Ge3 Ni9 2.458355 1_455
Ge3 Ni11 2.458360 1_555
Ge3 Ni16 2.497041 1_555
Ge3 Ni12 2.497048 1_555
Ge3 Ni15 2.497048 1_555
P0 Sr1 3.260382 1_665
P0 Sr0 3.260382 1_665
P1 Sr0 3.260385 1_566
P1 Sr1 3.260385 1_565
P2 Sr0 3.260382 1_666
P2 Sr1 3.260382 1_665
P3 Sr0 3.260382 1_555
P3 Sr1 3.260382 1_555
P4 Sr1 3.260385 1_655
P4 Sr0 3.260385 1_655
P5 Sr0 3.260382 1_556
P5 Sr1 3.260382 1_555
