# generated using pymatgen
data_CsMnGaF6
_symmetry_space_group_name_H-M   'P 1'
_cell_length_a   7.40925771
_cell_length_b   7.40925750
_cell_length_c   7.40925737
_cell_angle_alpha   119.73755343
_cell_angle_beta   119.81585297
_cell_angle_gamma   90.38721014
_symmetry_Int_Tables_number   1
_chemical_formula_structural   CsMnGaF6
_chemical_formula_sum   'Cs2 Mn2 Ga2 F12'
_cell_volume   288.57680383
_cell_formula_units_Z   2
loop_
 _symmetry_equiv_pos_site_id
 _symmetry_equiv_pos_as_xyz
  1  'x, y, z'
loop_
 _atom_site_type_symbol
 _atom_site_label
 _atom_site_symmetry_multiplicity
 _atom_site_fract_x
 _atom_site_fract_y
 _atom_site_fract_z
 _atom_site_occupancy
  Cs  Cs0  1  0.37861910  0.62861910  0.75000000  1
  Cs  Cs1  1  0.62138090  0.37138090  0.25000000  1
  Mn  Mn0  1  0.00000000  0.00000000  0.50000000  1
  Mn  Mn1  1  0.00000000  0.50000000  0.00000000  1
  Ga  Ga0  1  0.00000000  0.00000000  0.00000000  1
  Ga  Ga1  1  0.50000000  0.00000000  0.50000000  1
  F  F0  1  0.29828594  0.04828594  0.25000000  1
  F  F1  1  0.91433927  0.66433927  0.25000000  1
  F  F2  1  0.33900642  0.69636113  0.28258866  1
  F  F3  1  0.91377247  0.05641777  0.21741134  1
  F  F4  1  0.33900642  0.05641777  0.64264529  1
  F  F5  1  0.91377247  0.69636113  0.85735471  1
  F  F6  1  0.70171406  0.95171406  0.75000000  1
  F  F7  1  0.08566073  0.33566073  0.75000000  1
  F  F8  1  0.66099358  0.30363887  0.71741134  1
  F  F9  1  0.08622753  0.94358223  0.78258866  1
  F  F10  1  0.66099358  0.94358223  0.35735471  1
  F  F11  1  0.08622753  0.30363887  0.14264529  1
loop_
_geom_bond_atom_site_label_1
_geom_bond_atom_site_label_2
_geom_bond_distance
_geom_bond_site_symmetry_2
Cs0 F7 3.059307 1_555
Cs0 F10 3.197970 1_556
Cs0 F11 3.197970 1_555
Cs0 F8 3.197970 1_555
Cs0 F9 3.197970 1_555
Cs0 F6 3.374018 1_555
Cs1 F1 3.059307 1_555
Cs1 F4 3.197970 1_554
Cs1 F5 3.197970 1_555
Cs1 F2 3.197970 1_555
Cs1 F3 3.197970 1_555
Cs1 F0 3.374018 1_555
F0 Ga1 1.924693 1_555
F0 Ga0 1.924693 1_555
F1 Mn1 2.063619 1_655
F1 Mn0 2.063619 1_665
F2 Ga1 1.880632 1_565
F2 Mn1 2.123311 1_555
F3 Ga0 1.880632 1_655
F3 Mn0 2.123311 1_655
F4 Ga1 1.880632 1_555
F4 Mn0 2.123311 1_555
F5 Ga0 1.880632 1_666
F5 Mn1 2.123311 1_656
F6 Ga1 1.924693 1_565
F6 Ga0 1.924693 1_666
F7 Mn1 2.063619 1_556
F7 Mn0 2.063619 1_555
F8 Ga1 1.880632 1_555
F8 Mn1 2.123311 1_656
F9 Ga0 1.880632 1_566
F9 Mn0 2.123311 1_565
F10 Ga1 1.880632 1_565
F10 Mn0 2.123311 1_665
F11 Ga0 1.880632 1_555
F11 Mn1 2.123311 1_555
