# generated using pymatgen
data_BaHgBPt3
_symmetry_space_group_name_H-M   'P 1'
_cell_length_a   5.81543507
_cell_length_b   5.81543550
_cell_length_c   7.59297629
_cell_angle_alpha   90.00000000
_cell_angle_beta   90.00000000
_cell_angle_gamma   119.99999199
_symmetry_Int_Tables_number   1
_chemical_formula_structural   BaHgBPt3
_chemical_formula_sum   'Ba2 Hg2 B2 Pt6'
_cell_volume   222.38585730
_cell_formula_units_Z   2
loop_
 _symmetry_equiv_pos_site_id
 _symmetry_equiv_pos_as_xyz
  1  'x, y, z'
loop_
 _atom_site_type_symbol
 _atom_site_label
 _atom_site_symmetry_multiplicity
 _atom_site_fract_x
 _atom_site_fract_y
 _atom_site_fract_z
 _atom_site_occupancy
  Ba  Ba0  1  0.00000000  0.00000000  0.00000000  1
  Ba  Ba1  1  0.00000000  0.00000000  0.50000000  1
  Hg  Hg0  1  0.66666700  0.33333400  0.50000000  1
  Hg  Hg1  1  0.33333400  0.66666700  0.50000000  1
  B  B0  1  0.66666700  0.33333400  0.00000000  1
  B  B1  1  0.33333400  0.66666700  0.00000000  1
  Pt  Pt0  1  0.50000000  0.00000000  0.18900986  1
  Pt  Pt1  1  0.00000000  0.50000000  0.18900986  1
  Pt  Pt2  1  0.49999900  0.50000000  0.18900986  1
  Pt  Pt3  1  0.50000000  0.00000000  0.81099014  1
  Pt  Pt4  1  0.00000000  0.50000000  0.81099014  1
  Pt  Pt5  1  0.49999900  0.50000000  0.81099014  1
loop_
_geom_bond_atom_site_label_1
_geom_bond_atom_site_label_2
_geom_bond_distance
_geom_bond_site_symmetry_2
Ba0 Pt2 3.242600 1_555
Ba0 Pt5 3.242600 1_554
Ba0 Pt3 3.242602 1_454
Ba0 Pt0 3.242602 1_555
Ba0 Pt0 3.242602 1_455
Ba0 Pt3 3.242602 1_554
Ba0 Pt4 3.242602 1_554
Ba0 Pt1 3.242602 1_555
Ba0 Pt1 3.242602 1_545
Ba0 Pt4 3.242602 1_544
Ba0 Pt2 3.242605 1_445
Ba0 Pt5 3.242605 1_444
Ba1 Hg1 3.357540 1_445
Ba1 Hg0 3.357540 1_445
Ba1 Hg1 3.357545 1_545
Ba1 Hg0 3.357545 1_455
Ba1 Hg0 3.357545 1_555
Ba1 Hg1 3.357545 1_555
Hg0 Pt4 2.897274 1_655
Hg0 Pt1 2.897274 1_655
Hg0 Pt5 2.897277 1_555
Hg0 Pt2 2.897277 1_555
Hg0 Pt3 2.897277 1_555
Hg0 Pt0 2.897277 1_555
Hg1 Pt5 2.897271 1_555
Hg1 Pt2 2.897271 1_555
Hg1 Pt3 2.897274 1_565
Hg1 Pt0 2.897274 1_565
Hg1 Pt4 2.897277 1_555
Hg1 Pt1 2.897277 1_555
B0 Pt1 2.208601 1_655
B0 Pt4 2.208601 1_654
B0 Pt5 2.208604 1_554
B0 Pt2 2.208604 1_555
B0 Pt0 2.208605 1_555
B0 Pt3 2.208605 1_554
B1 Pt2 2.208597 1_555
B1 Pt5 2.208597 1_554
B1 Pt0 2.208601 1_565
B1 Pt3 2.208601 1_564
B1 Pt4 2.208604 1_554
B1 Pt1 2.208604 1_555
