# generated using pymatgen
data_Lu12Fe2Bi2Os
_symmetry_space_group_name_H-M   'P 1'
_cell_length_a   8.24913195
_cell_length_b   8.24913297
_cell_length_c   8.24913156
_cell_angle_alpha   108.45030727
_cell_angle_beta   108.45029717
_cell_angle_gamma   111.53293759
_symmetry_Int_Tables_number   1
_chemical_formula_structural   Lu12Fe2Bi2Os
_chemical_formula_sum   'Lu12 Fe2 Bi2 Os1'
_cell_volume   431.69721826
_cell_formula_units_Z   1
loop_
 _symmetry_equiv_pos_site_id
 _symmetry_equiv_pos_as_xyz
  1  'x, y, z'
loop_
 _atom_site_type_symbol
 _atom_site_label
 _atom_site_symmetry_multiplicity
 _atom_site_fract_x
 _atom_site_fract_y
 _atom_site_fract_z
 _atom_site_occupancy
  Lu  Lu0  1  0.31138069  0.31138069  0.62276039  1
  Lu  Lu1  1  0.68861931  0.68861931  0.37723961  1
  Lu  Lu2  1  0.68861931  0.31138069  0.00000000  1
  Lu  Lu3  1  0.31138069  0.68861931  1.00000000  1
  Lu  Lu4  1  0.19213456  0.42492571  0.23279215  1
  Lu  Lu5  1  0.80786544  0.57507429  0.76720785  1
  Lu  Lu6  1  0.19213456  0.95934141  0.76720785  1
  Lu  Lu7  1  0.95934141  0.19213456  0.76720785  1
  Lu  Lu8  1  0.80786544  0.04065859  0.23279215  1
  Lu  Lu9  1  0.04065859  0.80786544  0.23279215  1
  Lu  Lu10  1  0.42492571  0.19213456  0.23279215  1
  Lu  Lu11  1  0.57507429  0.80786544  0.76720785  1
  Fe  Fe0  1  0.37719290  0.37719290  1.00000000  1
  Fe  Fe1  1  0.62280710  0.62280710  0.00000000  1
  Bi  Bi0  1  0.00000000  0.50000000  0.50000000  1
  Bi  Bi1  1  0.50000000  0.00000000  0.50000000  1
  Os  Os0  1  0.00000000  0.00000000  0.00000000  1
loop_
_geom_bond_atom_site_label_1
_geom_bond_atom_site_label_2
_geom_bond_distance
_geom_bond_site_symmetry_2
Lu4 Os0 2.867267 1_555
Lu5 Os0 2.867267 1_666
Lu6 Os0 2.867274 1_566
Lu7 Os0 2.867275 1_656
Lu8 Os0 2.867274 1_655
Lu9 Os0 2.867275 1_565
Lu10 Os0 2.867267 1_555
Lu11 Os0 2.867267 1_666
Fe0 Fe1 2.279640 1_556
Fe0 Lu2 2.813945 1_556
Fe0 Lu3 2.813945 1_555
Fe0 Lu1 2.813949 1_556
Fe0 Lu0 2.813953 1_555
Fe0 Lu4 2.826893 1_556
Fe0 Lu10 2.826894 1_556
Fe0 Lu7 2.826901 1_455
Fe0 Lu6 2.826901 1_545
Fe1 Lu3 2.813945 1_554
Fe1 Lu2 2.813945 1_555
Fe1 Lu0 2.813949 1_554
Fe1 Lu1 2.813953 1_555
Fe1 Lu5 2.826893 1_554
Fe1 Lu11 2.826894 1_554
Fe1 Lu9 2.826901 1_655
Fe1 Lu8 2.826901 1_565
Bi0 Lu6 3.134002 1_555
Bi0 Lu8 3.134002 1_455
Bi0 Lu5 3.134009 1_455
Bi0 Lu4 3.134009 1_555
Bi0 Lu0 3.511265 1_555
Bi0 Lu1 3.511265 1_455
Bi0 Lu3 3.511267 1_555
Bi0 Lu2 3.511267 1_455
Bi0 Lu7 3.847958 1_455
Bi0 Lu9 3.847958 1_555
Bi0 Lu11 3.847964 1_555
Bi0 Lu10 3.847964 1_455
Bi1 Lu7 3.134002 1_555
Bi1 Lu9 3.134002 1_545
Bi1 Lu11 3.134010 1_545
Bi1 Lu10 3.134010 1_555
Bi1 Lu0 3.511265 1_555
Bi1 Lu1 3.511265 1_545
Bi1 Lu2 3.511267 1_556
Bi1 Lu3 3.511267 1_544
Bi1 Lu6 3.847957 1_545
Bi1 Lu8 3.847957 1_555
Bi1 Lu5 3.847964 1_555
Bi1 Lu4 3.847964 1_545
