# generated using pymatgen
data_LiMnO2
_symmetry_space_group_name_H-M   'P 1'
_cell_length_a   4.08497815
_cell_length_b   5.11748164
_cell_length_c   4.08608161
_cell_angle_alpha   66.47108418
_cell_angle_beta   89.98203192
_cell_angle_gamma   66.46771635
_symmetry_Int_Tables_number   1
_chemical_formula_structural   LiMnO2
_chemical_formula_sum   'Li2 Mn2 O4'
_cell_volume   70.50624272
_cell_formula_units_Z   2
loop_
 _symmetry_equiv_pos_site_id
 _symmetry_equiv_pos_as_xyz
  1  'x, y, z'
loop_
 _atom_site_type_symbol
 _atom_site_label
 _atom_site_symmetry_multiplicity
 _atom_site_fract_x
 _atom_site_fract_y
 _atom_site_fract_z
 _atom_site_occupancy
  Li  Li0  1  0.75029159  0.49787873  0.24964161  1
  Li  Li1  1  0.50076329  0.99794073  0.49900762  1
  Mn  Mn0  1  0.24925379  0.49932201  0.74841573  1
  Mn  Mn1  1  0.99898402  0.99925683  0.99871805  1
  O  O0  1  0.23164262  0.53413753  0.23103941  1
  O  O1  1  0.76636787  0.46483569  0.76578351  1
  O  O2  1  0.01630190  0.96492682  0.51577572  1
  O  O3  1  0.48163993  0.03399067  0.98108836  1
loop_
_geom_bond_atom_site_label_1
_geom_bond_atom_site_label_2
_geom_bond_distance
_geom_bond_site_symmetry_2
Li0 O0 2.046111 1_655
Li0 O1 2.046280 1_555
Li0 O1 2.049328 1_554
Li0 O0 2.050338 1_555
Li0 O2 2.251226 1_645
Li0 O3 2.264575 1_564
Li1 O2 2.043295 1_655
Li1 O3 2.048309 1_564
Li1 O3 2.049116 1_565
Li1 O2 2.051194 1_555
Li1 O1 2.251875 1_555
Li1 O0 2.264935 1_565
Mn0 O3 1.965591 1_555
Mn0 O2 1.966746 1_555
Mn0 O1 2.047148 1_555
Mn0 O1 2.048207 1_455
Mn0 O0 2.048224 1_555
Mn0 O0 2.048430 1_556
Mn1 O0 1.964695 1_656
Mn1 O1 1.966637 1_565
Mn1 O3 2.047656 1_565
Mn1 O2 2.047768 1_656
Mn1 O3 2.047849 1_665
Mn1 O2 2.048593 1_655
