# generated using pymatgen
data_Li4B4Os3Rh
_symmetry_space_group_name_H-M   'P 1'
_cell_length_a   6.77592125
_cell_length_b   6.03247571
_cell_length_c   5.53688353
_cell_angle_alpha   71.55600755
_cell_angle_beta   57.62379260
_cell_angle_gamma   50.28580498
_symmetry_Int_Tables_number   1
_chemical_formula_structural   Li4B4Os3Rh
_chemical_formula_sum   'Li4 B4 Os3 Rh1'
_cell_volume   146.91817521
_cell_formula_units_Z   1
loop_
 _symmetry_equiv_pos_site_id
 _symmetry_equiv_pos_as_xyz
  1  'x, y, z'
loop_
 _atom_site_type_symbol
 _atom_site_label
 _atom_site_symmetry_multiplicity
 _atom_site_fract_x
 _atom_site_fract_y
 _atom_site_fract_z
 _atom_site_occupancy
  Li  Li0  1  0.12087399  0.62588422  0.62069032  1
  Li  Li1  1  0.62573167  0.62138166  0.62824006  1
  Li  Li2  1  0.62138166  0.62573167  0.12464561  1
  Li  Li3  1  0.62588422  0.12087399  0.63255148  1
  B  B0  1  0.43570398  0.06570312  0.43736018  1
  B  B1  1  0.16670541  0.83114179  0.18934354  1
  B  B2  1  0.06570312  0.43570398  0.06123172  1
  B  B3  1  0.83114179  0.16670541  0.81280826  1
  Os  Os0  1  0.86381220  0.86381220  0.13618780  1
  Os  Os1  1  0.13579688  0.13579688  0.86420312  1
  Os  Os2  1  0.11821658  0.11821658  0.38178342  1
  Rh  Rh0  1  0.38904650  0.38904650  0.11095350  1
loop_
_geom_bond_atom_site_label_1
_geom_bond_atom_site_label_2
_geom_bond_distance
_geom_bond_site_symmetry_2
Li0 Rh0 2.655226 1_555
Li0 Os1 2.794708 1_555
Li1 Os2 2.647870 1_655
Li1 Os1 2.667028 1_565
Li1 Rh0 2.755268 1_556
Li2 Os2 2.647871 1_565
Li2 Os1 2.667027 1_654
Li2 Rh0 2.755265 1_555
Li3 Rh0 2.655226 1_556
Li3 Os1 2.794707 1_555
B0 Os0 2.066062 1_545
B0 Os1 2.069959 1_555
B0 Os2 2.144621 1_555
B0 Rh0 2.182694 1_555
B0 Li3 2.281797 1_555
B0 Li1 2.283367 1_545
B1 Os2 2.075537 1_565
B1 Os0 2.105002 1_455
B1 Rh0 2.113820 1_555
B1 Os1 2.116793 1_564
B1 Li0 2.271461 1_555
B1 Li2 2.318576 1_555
B2 Os0 2.066064 1_455
B2 Os1 2.069956 1_554
B2 Os2 2.144624 1_555
B2 Rh0 2.182697 1_555
B2 Li0 2.281792 1_554
B2 Li2 2.283366 1_455
B3 Os2 2.075533 1_655
B3 Os0 2.105005 1_546
B3 Rh0 2.113820 1_556
B3 Os1 2.116797 1_655
B3 Li3 2.271456 1_555
B3 Li1 2.318576 1_555
