# generated using pymatgen
data_HfSn3(SeO3)8
_symmetry_space_group_name_H-M   'P 1'
_cell_length_a   8.32534818
_cell_length_b   8.32534818
_cell_length_c   8.32534818
_cell_angle_alpha   89.70581386
_cell_angle_beta   90.29418614
_cell_angle_gamma   90.29418614
_symmetry_Int_Tables_number   1
_chemical_formula_structural   HfSn3(SeO3)8
_chemical_formula_sum   'Hf1 Sn3 Se8 O24'
_cell_volume   577.01898277
_cell_formula_units_Z   1
loop_
 _symmetry_equiv_pos_site_id
 _symmetry_equiv_pos_as_xyz
  1  'x, y, z'
loop_
 _atom_site_type_symbol
 _atom_site_label
 _atom_site_symmetry_multiplicity
 _atom_site_fract_x
 _atom_site_fract_y
 _atom_site_fract_z
 _atom_site_occupancy
  Hf  Hf0  1  0.50000000  0.50000000  0.00000000  1
  Sn  Sn0  1  0.50000000  0.00000000  0.50000000  1
  Sn  Sn1  1  0.00000000  0.00000000  0.00000000  1
  Sn  Sn2  1  0.00000000  0.50000000  0.50000000  1
  Se  Se0  1  0.82827705  0.17172295  0.67172295  1
  Se  Se1  1  0.17172295  0.82827705  0.32827705  1
  Se  Se2  1  0.68227098  0.67884315  0.66054523  1
  Se  Se3  1  0.16054523  0.68227098  0.82115685  1
  Se  Se4  1  0.32115685  0.16054523  0.81772902  1
  Se  Se5  1  0.83945477  0.31772902  0.17884315  1
  Se  Se6  1  0.67884315  0.83945477  0.18227098  1
  Se  Se7  1  0.31772902  0.32115685  0.33945477  1
  O  O0  1  0.24053491  0.45727651  0.47213586  1
  O  O1  1  0.97213586  0.24053491  0.04272349  1
  O  O2  1  0.03863174  0.74075740  0.45832040  1
  O  O3  1  0.44744083  0.26781121  0.93585540  1
  O  O4  1  0.25924260  0.95832040  0.46136826  1
  O  O5  1  0.56414460  0.55255917  0.76781121  1
  O  O6  1  0.95832040  0.03863174  0.75924260  1
  O  O7  1  0.55255917  0.73218879  0.06414460  1
  O  O8  1  0.54272349  0.97213586  0.25946509  1
  O  O9  1  0.45727651  0.02786414  0.74053491  1
  O  O10  1  0.75882483  0.96561121  0.03946383  1
  O  O11  1  0.26781121  0.56414460  0.94744083  1
  O  O12  1  0.03438879  0.53946383  0.74117517  1
  O  O13  1  0.04167960  0.96136826  0.24075740  1
  O  O14  1  0.24117517  0.03438879  0.96053617  1
  O  O15  1  0.43585540  0.44744083  0.23218879  1
  O  O16  1  0.75946509  0.54272349  0.52786414  1
  O  O17  1  0.96561121  0.46053617  0.25882483  1
  O  O18  1  0.02786414  0.75946509  0.95727651  1
  O  O19  1  0.46053617  0.24117517  0.46561121  1
  O  O20  1  0.53946383  0.75882483  0.53438879  1
  O  O21  1  0.96136826  0.25924260  0.54167960  1
  O  O22  1  0.74075740  0.04167960  0.53863174  1
  O  O23  1  0.73218879  0.43585540  0.05255917  1
loop_
_geom_bond_atom_site_label_1
_geom_bond_atom_site_label_2
_geom_bond_distance
_geom_bond_site_symmetry_2
Hf0 O7 2.052526 1_555
Hf0 O23 2.052526 1_555
Hf0 O15 2.052526 1_555
Hf0 O5 2.052526 1_554
Hf0 O11 2.052526 1_554
Hf0 O3 2.052526 1_554
O0 Se7 1.716119 1_555
O0 Sn2 2.050223 1_555
O1 Se5 1.716119 1_555
O1 Sn1 2.050223 1_655
O2 Se1 1.710762 1_555
O2 Sn2 2.056407 1_555
O3 Se4 1.690790 1_555
O4 Se1 1.710762 1_555
O4 Sn0 2.056407 1_565
O5 Se2 1.690790 1_555
O6 Se0 1.710762 1_555
O6 Sn1 2.056407 1_656
O7 Se6 1.690790 1_555
O8 Se6 1.716119 1_555
O8 Sn0 2.050223 1_565
O9 Se4 1.716119 1_555
O9 Sn0 2.050223 1_555
O10 Se6 1.717022 1_555
O10 Sn1 2.054592 1_665
O11 Se3 1.690790 1_555
O12 Se3 1.717022 1_555
O12 Sn2 2.054592 1_555
O13 Se1 1.710762 1_555
O13 Sn1 2.056407 1_565
O14 Se4 1.717022 1_555
O14 Sn1 2.054592 1_556
O15 Se7 1.690790 1_555
O16 Se2 1.716119 1_555
O16 Sn2 2.050223 1_655
O17 Se5 1.717022 1_555
O17 Sn2 2.054592 1_655
O18 Se3 1.716119 1_555
O18 Sn1 2.050223 1_566
O19 Se7 1.717022 1_555
O19 Sn0 2.054592 1_555
O20 Se2 1.717022 1_555
O20 Sn0 2.054592 1_565
O21 Se0 1.710762 1_555
O21 Sn2 2.056407 1_655
O22 Se0 1.710762 1_555
O22 Sn0 2.056407 1_555
O23 Se5 1.690790 1_555
