# generated using pymatgen
data_Hf4Ta6Ga3Si5
_symmetry_space_group_name_H-M   'P 1'
_cell_length_a   6.67434981
_cell_length_b   6.82673899
_cell_length_c   13.15460783
_cell_angle_alpha   89.90016023
_cell_angle_beta   90.00000000
_cell_angle_gamma   90.00000000
_symmetry_Int_Tables_number   1
_chemical_formula_structural   Hf4Ta6Ga3Si5
_chemical_formula_sum   'Hf8 Ta12 Ga6 Si10'
_cell_volume   599.37622105
_cell_formula_units_Z   2
loop_
 _symmetry_equiv_pos_site_id
 _symmetry_equiv_pos_as_xyz
  1  'x, y, z'
loop_
 _atom_site_type_symbol
 _atom_site_label
 _atom_site_symmetry_multiplicity
 _atom_site_fract_x
 _atom_site_fract_y
 _atom_site_fract_z
 _atom_site_occupancy
  Hf  Hf0  1  0.49018556  0.66959792  0.59681162  1
  Hf  Hf1  1  0.99018556  0.83040208  0.90318838  1
  Hf  Hf2  1  0.50663981  0.32511137  0.09881530  1
  Hf  Hf3  1  0.00663981  0.17488863  0.40118470  1
  Hf  Hf4  1  0.50263688  0.33068192  0.40172187  1
  Hf  Hf5  1  0.00263688  0.16931808  0.09827813  1
  Hf  Hf6  1  0.49645566  0.67316042  0.90265736  1
  Hf  Hf7  1  0.99645566  0.82683958  0.59734264  1
  Ta  Ta0  1  0.65937057  0.17508588  0.62791555  1
  Ta  Ta1  1  0.15937057  0.32491412  0.87208445  1
  Ta  Ta2  1  0.34358337  0.82479259  0.12767157  1
  Ta  Ta3  1  0.84358337  0.67520741  0.37232843  1
  Ta  Ta4  1  0.33790474  0.82080764  0.37373935  1
  Ta  Ta5  1  0.83790474  0.67919236  0.12626065  1
  Ta  Ta6  1  0.66337979  0.16994393  0.87398360  1
  Ta  Ta7  1  0.16337979  0.33005607  0.62601640  1
  Ta  Ta8  1  0.83342370  0.49442518  0.74957574  1
  Ta  Ta9  1  0.33342370  0.00557482  0.75042426  1
  Ta  Ta10  1  0.16787442  0.50473668  0.25183160  1
  Ta  Ta11  1  0.66787442  0.99526332  0.24816840  1
  Ga  Ga0  1  0.67670465  0.96676366  0.46335377  1
  Ga  Ga1  1  0.17670465  0.53323634  0.03664623  1
  Ga  Ga2  1  0.32259362  0.03436112  0.96410090  1
  Ga  Ga3  1  0.82259362  0.46563888  0.53589910  1
  Ga  Ga4  1  0.32474421  0.03480198  0.53606935  1
  Ga  Ga5  1  0.82474421  0.46519802  0.96393065  1
  Si  Si0  1  0.67170040  0.96476101  0.03608406  1
  Si  Si1  1  0.17170040  0.53523899  0.46391594  1
  Si  Si2  1  0.45787948  0.38761758  0.75122512  1
  Si  Si3  1  0.95787948  0.11238242  0.74877488  1
  Si  Si4  1  0.54444367  0.61190388  0.25041215  1
  Si  Si5  1  0.04444367  0.88809612  0.24958785  1
  Si  Si6  1  0.69916356  0.86181496  0.74864583  1
  Si  Si7  1  0.19916356  0.63818504  0.75135417  1
  Si  Si8  1  0.30131989  0.13589548  0.25048647  1
  Si  Si9  1  0.80131989  0.36410452  0.24951353  1
loop_
_geom_bond_atom_site_label_1
_geom_bond_atom_site_label_2
_geom_bond_distance
_geom_bond_site_symmetry_2
Hf0 Si6 2.768714 1_555
Hf0 Si2 2.804369 1_555
Hf0 Si7 2.819608 1_555
Hf0 Si1 2.901999 1_555
Hf1 Si7 2.768714 1_655
Hf1 Si3 2.804369 1_565
Hf1 Si6 2.819608 1_555
Hf1 Si0 2.901999 1_556
Hf2 Si8 2.741940 1_555
Hf2 Si9 2.805496 1_555
Hf2 Si4 2.808434 1_555
Hf2 Si0 2.820179 1_545
Hf3 Si9 2.741940 1_455
Hf3 Si8 2.805496 1_555
Hf3 Si5 2.808434 1_545
Hf3 Si1 2.820179 1_555
Hf4 Si1 2.739007 1_555
Hf4 Si8 2.746047 1_555
Hf4 Si4 2.777059 1_555
Hf4 Si9 2.834350 1_555
Hf5 Si0 2.739007 1_445
Hf5 Si9 2.746047 1_455
Hf5 Si5 2.777059 1_545
Hf5 Si8 2.834350 1_555
Hf6 Si6 2.754007 1_555
Hf6 Si2 2.801408 1_555
Hf6 Si7 2.820863 1_555
Hf6 Si0 2.902361 1_556
Hf7 Si7 2.754007 1_655
Hf7 Si3 2.801408 1_565
Hf7 Si6 2.820863 1_555
Hf7 Si1 2.902361 1_655
Ga0 Ta3 2.577644 1_555
Ga0 Ga4 2.578870 1_565
Ga0 Ta0 2.594760 1_565
Ga0 Ta4 2.738598 1_555
Ga0 Hf3 2.744583 1_665
Ga0 Ta11 2.837631 1_555
Ga0 Hf4 2.858699 1_565
Ga0 Hf7 2.927073 1_555
Ga0 Hf0 2.955494 1_555
Ga1 Ta2 2.577644 1_555
Ga1 Ga5 2.578870 1_454
Ga1 Ta1 2.594760 1_554
Ga1 Ta5 2.738598 1_455
Ga1 Hf2 2.744583 1_555
Ga1 Ta10 2.837631 1_555
Ga1 Hf5 2.858699 1_555
Ga1 Hf6 2.927073 1_554
Ga1 Hf1 2.955494 1_454
Ga2 Si0 2.559299 1_546
Ga2 Ta1 2.564761 1_555
Ga2 Ta2 2.585645 1_546
Ga2 Ta6 2.726109 1_555
Ga2 Hf1 2.739866 1_445
Ga2 Ta9 2.818962 1_555
Ga2 Hf6 2.843780 1_545
Ga2 Hf5 2.920661 1_556
Ga2 Hf2 2.932801 1_556
Ga3 Si1 2.559299 1_655
Ga3 Ta0 2.564761 1_555
Ga3 Ta3 2.585645 1_555
Ga3 Ta7 2.726109 1_655
Ga3 Hf0 2.739866 1_555
Ga3 Ta8 2.818962 1_555
Ga3 Hf7 2.843780 1_555
Ga3 Hf4 2.920661 1_555
Ga3 Hf3 2.932801 1_655
Ga4 Ta7 2.575070 1_555
Ga4 Ta4 2.590878 1_545
Ga4 Ta0 2.714603 1_555
Ga4 Hf7 2.731708 1_445
Ga4 Ta9 2.827052 1_555
Ga4 Hf0 2.840180 1_545
Ga4 Hf3 2.926554 1_555
Ga4 Hf4 2.932672 1_555
Ga5 Ta6 2.575070 1_555
Ga5 Ta5 2.590878 1_556
Ga5 Ta1 2.714603 1_655
Ga5 Hf6 2.731708 1_555
Ga5 Ta8 2.827052 1_555
Ga5 Hf1 2.840180 1_555
Ga5 Hf2 2.926554 1_556
Ga5 Hf5 2.932672 1_656
Si0 Ta5 2.535788 1_555
Si0 Ta6 2.549846 1_564
Si0 Ta2 2.675167 1_555
Si0 Ta11 2.798125 1_555
Si1 Ta4 2.535788 1_555
Si1 Ta7 2.549846 1_555
Si1 Ta3 2.675167 1_455
Si1 Ta10 2.798125 1_555
Si2 Si7 2.430581 1_555
Si2 Ta0 2.559888 1_555
Si2 Ta1 2.584179 1_555
Si2 Ta6 2.586267 1_555
Si2 Ta7 2.594817 1_555
Si2 Ta8 2.610495 1_555
Si2 Ta9 2.737229 1_555
Si3 Si6 2.430581 1_545
Si3 Ta1 2.559888 1_655
Si3 Ta0 2.584179 1_555
Si3 Ta7 2.586267 1_655
Si3 Ta6 2.594817 1_555
Si3 Ta9 2.610495 1_655
Si3 Ta8 2.737229 1_555
Si4 Si9 2.408605 1_555
Si4 Ta2 2.551116 1_555
Si4 Ta4 2.564008 1_555
Si4 Ta5 2.590749 1_555
Si4 Ta3 2.597593 1_555
Si4 Ta10 2.617727 1_555
Si4 Ta11 2.743805 1_555
Si5 Si8 2.408605 1_565
Si5 Ta3 2.551116 1_455
Si5 Ta5 2.564008 1_455
Si5 Ta4 2.590749 1_555
Si5 Ta2 2.597593 1_555
Si5 Ta11 2.617727 1_455
Si5 Ta10 2.743805 1_555
Si6 Ta9 2.631092 1_565
Si6 Ta8 2.663357 1_555
Si6 Ta0 2.674817 1_565
Si6 Ta6 2.685582 1_565
Si7 Ta8 2.631092 1_455
Si7 Ta9 2.663357 1_565
Si7 Ta1 2.674817 1_555
Si7 Ta7 2.685582 1_555
Si8 Ta11 2.628340 1_545
Si8 Ta10 2.670952 1_555
Si8 Ta2 2.685561 1_545
Si8 Ta4 2.702429 1_545
Si9 Ta10 2.628340 1_655
Si9 Ta11 2.670952 1_545
Si9 Ta3 2.685561 1_555
Si9 Ta5 2.702429 1_555
