# generated using pymatgen
data_Sc5Al16SbIr7
_symmetry_space_group_name_H-M   'P 1'
_cell_length_a   8.69200405
_cell_length_b   8.73575308
_cell_length_c   8.73575473
_cell_angle_alpha   59.66895059
_cell_angle_beta   60.16553318
_cell_angle_gamma   60.16553464
_symmetry_Int_Tables_number   1
_chemical_formula_structural   Sc5Al16SbIr7
_chemical_formula_sum   'Sc5 Al16 Sb1 Ir7'
_cell_volume   469.01214405
_cell_formula_units_Z   1
loop_
 _symmetry_equiv_pos_site_id
 _symmetry_equiv_pos_as_xyz
  1  'x, y, z'
loop_
 _atom_site_type_symbol
 _atom_site_label
 _atom_site_symmetry_multiplicity
 _atom_site_fract_x
 _atom_site_fract_y
 _atom_site_fract_z
 _atom_site_occupancy
  Sc  Sc0  1  0.79284190  0.20715810  0.20715810  1
  Sc  Sc1  1  0.77578558  0.22421442  0.76920977  1
  Sc  Sc2  1  0.77578558  0.76920977  0.22421442  1
  Sc  Sc3  1  0.23079023  0.76920977  0.22421442  1
  Sc  Sc4  1  0.23079023  0.22421442  0.76920977  1
  Al  Al0  1  0.86765253  0.83402890  0.83402890  1
  Al  Al1  1  0.84757392  0.82214545  0.48270971  1
  Al  Al2  1  0.46429068  0.83402890  0.83402890  1
  Al  Al3  1  0.84757392  0.48270971  0.82214545  1
  Al  Al4  1  0.17785455  0.15242608  0.15242608  1
  Al  Al5  1  0.16597110  0.13234747  0.53570932  1
  Al  Al6  1  0.16597110  0.53570932  0.13234747  1
  Al  Al7  1  0.51729029  0.15242608  0.15242608  1
  Al  Al8  1  0.60669290  0.62326867  0.62326867  1
  Al  Al9  1  0.63196167  0.61622550  0.11985015  1
  Al  Al10  1  0.14676976  0.62326867  0.62326867  1
  Al  Al11  1  0.63196167  0.11985015  0.61622550  1
  Al  Al12  1  0.38377450  0.36803833  0.36803833  1
  Al  Al13  1  0.37673133  0.39330710  0.85323024  1
  Al  Al14  1  0.37673133  0.85323024  0.39330710  1
  Al  Al15  1  0.88014985  0.36803833  0.36803833  1
  Sb  Sb0  1  0.03125153  0.96874847  0.96874847  1
  Ir  Ir0  1  0.51129691  0.48870309  0.48870309  1
  Ir  Ir1  1  0.01119504  0.48880496  0.48880496  1
  Ir  Ir2  1  0.51119504  0.98880496  0.98880496  1
  Ir  Ir3  1  0.51537639  0.99531897  0.48462361  1
  Ir  Ir4  1  0.51537639  0.48462361  0.99531897  1
  Ir  Ir5  1  0.00468103  0.48462361  0.99531897  1
  Ir  Ir6  1  0.00468103  0.99531897  0.48462361  1
loop_
_geom_bond_atom_site_label_1
_geom_bond_atom_site_label_2
_geom_bond_distance
_geom_bond_site_symmetry_2
Al0 Ir5 2.535619 1_655
Al0 Ir6 2.535620 1_655
Al0 Ir2 2.601128 1_555
Al0 Al10 2.683361 1_655
Al0 Sb0 3.085666 1_655
Al1 Ir6 2.501480 1_655
Al1 Ir3 2.501503 1_555
Al1 Ir1 2.510615 1_655
Al1 Al10 2.795786 1_655
Al1 Al8 2.795807 1_555
Al1 Sc0 2.950140 1_565
Al2 Ir4 2.535620 1_555
Al2 Ir3 2.535621 1_555
Al2 Ir2 2.601122 1_555
Al2 Al8 2.683363 1_555
Al2 Sb0 3.085673 1_555
Al3 Ir5 2.501481 1_655
Al3 Ir4 2.501503 1_555
Al3 Ir1 2.510615 1_655
Al3 Al8 2.795808 1_555
Al3 Sc0 2.950140 1_556
Al4 Ir5 2.501496 1_554
Al4 Ir6 2.501496 1_545
Al4 Ir2 2.510607 1_544
Al4 Sc0 2.950131 1_455
Al5 Ir6 2.535613 1_545
Al5 Ir3 2.535621 1_545
Al5 Ir1 2.601129 1_555
Al5 Sb0 3.085673 1_545
Al6 Ir5 2.535613 1_554
Al6 Ir4 2.535621 1_554
Al6 Ir1 2.601130 1_555
Al6 Sb0 3.085673 1_554
Al7 Ir4 2.501504 1_554
Al7 Ir3 2.501504 1_545
Al7 Ir2 2.510592 1_544
Al7 Sc0 2.950156 1_555
Al8 Ir0 2.605124 1_555
Al8 Ir3 2.659749 1_555
Al8 Ir4 2.659749 1_555
Al8 Sc1 2.866306 1_555
Al8 Sc2 2.866307 1_555
Al8 Ir1 2.880342 1_655
Al9 Ir0 2.626440 1_555
Al9 Ir2 2.653092 1_554
Al9 Ir4 2.655420 1_554
Al9 Ir5 2.655427 1_654
Al9 Sc0 2.939986 1_555
Al10 Ir0 2.605124 1_555
Al10 Ir6 2.659749 1_555
Al10 Ir5 2.659749 1_555
Al10 Al3 2.795786 1_455
Al10 Al14 2.826768 1_555
Al10 Al13 2.826768 1_555
Al10 Sc4 2.866306 1_555
Al10 Sc3 2.866307 1_555
Al10 Ir1 2.880342 1_555
Al11 Ir0 2.626440 1_555
Al11 Ir2 2.653093 1_545
Al11 Ir3 2.655420 1_545
Al11 Ir6 2.655427 1_645
Al11 Sc0 2.939987 1_555
Al12 Ir0 2.626432 1_555
Al12 Ir1 2.653093 1_555
Al12 Ir3 2.655427 1_545
Al12 Ir4 2.655428 1_554
Al12 Sc0 2.939987 1_555
Al13 Ir0 2.605125 1_555
Al13 Ir4 2.659749 1_555
Al13 Ir5 2.659749 1_555
Al13 Al6 2.683356 1_556
Al13 Al7 2.795788 1_556
Al13 Al4 2.795801 1_556
Al13 Al8 2.826768 1_555
Al13 Sc4 2.866306 1_555
Al13 Sc1 2.866306 1_555
Al13 Ir2 2.880342 1_545
Al14 Ir0 2.605124 1_555
Al14 Ir3 2.659749 1_555
Al14 Ir6 2.659749 1_555
Al14 Al5 2.683356 1_565
Al14 Al7 2.795787 1_565
Al14 Al4 2.795801 1_565
Al14 Al8 2.826768 1_555
Al14 Sc3 2.866306 1_555
Al14 Sc2 2.866306 1_555
Al14 Ir2 2.880343 1_554
Al15 Ir0 2.626440 1_555
Al15 Ir1 2.653085 1_655
Al15 Ir6 2.655428 1_645
Al15 Ir5 2.655428 1_654
Al15 Sc0 2.939993 1_555
Sb0 Sc4 2.818008 1_565
Sb0 Sc2 2.818008 1_456
Sb0 Sc1 2.818008 1_465
Sb0 Sc3 2.818008 1_556
Sb0 Sc0 2.960043 1_466
Ir1 Sc3 3.087067 1_555
Ir1 Sc1 3.087067 1_455
Ir1 Sc2 3.087068 1_455
Ir1 Sc4 3.087068 1_555
Ir2 Sc1 3.087067 1_565
Ir2 Sc3 3.087067 1_556
Ir2 Sc4 3.087068 1_565
Ir2 Sc2 3.087068 1_556
Ir3 Sc2 3.027602 1_555
Ir3 Sc0 3.034822 1_565
Ir3 Sc4 3.205963 1_565
Ir4 Sc1 3.027602 1_555
Ir4 Sc0 3.034822 1_556
Ir4 Sc3 3.205963 1_556
Ir5 Sc4 3.027602 1_555
Ir5 Sc0 3.034822 1_456
Ir5 Sc2 3.205963 1_456
Ir6 Sc3 3.027602 1_555
Ir6 Sc0 3.034822 1_465
Ir6 Sc1 3.205963 1_465
