# generated using pymatgen
data_Hf2Mg2As6Ru7
_symmetry_space_group_name_H-M   'P 1'
_cell_length_a   6.94778310
_cell_length_b   7.04436904
_cell_length_c   7.04436917
_cell_angle_alpha   110.02687754
_cell_angle_beta   109.47163619
_cell_angle_gamma   109.47161789
_symmetry_Int_Tables_number   1
_chemical_formula_structural   Hf2Mg2As6Ru7
_chemical_formula_sum   'Hf2 Mg2 As6 Ru7'
_cell_volume   263.56005005
_cell_formula_units_Z   1
loop_
 _symmetry_equiv_pos_site_id
 _symmetry_equiv_pos_as_xyz
  1  'x, y, z'
loop_
 _atom_site_type_symbol
 _atom_site_label
 _atom_site_symmetry_multiplicity
 _atom_site_fract_x
 _atom_site_fract_y
 _atom_site_fract_z
 _atom_site_occupancy
  Hf  Hf0  1  0.50000000  0.00000000  0.00000000  1
  Hf  Hf1  1  0.50000000  0.50000000  0.50000000  1
  Mg  Mg0  1  0.00000000  0.00000000  0.50000000  1
  Mg  Mg1  1  0.00000000  0.50000000  0.00000000  1
  As  As0  1  0.30547308  0.99469608  0.31077700  1
  As  As1  1  0.00000000  0.31061405  0.31061405  1
  As  As2  1  1.00000000  0.68938595  0.68938595  1
  As  As3  1  0.30547308  0.31077700  0.99469608  1
  As  As4  1  0.69452692  0.68922300  0.00530392  1
  As  As5  1  0.69452692  0.00530392  0.68922300  1
  Ru  Ru0  1  0.74782838  0.49763537  0.25019301  1
  Ru  Ru1  1  0.50000000  0.75000000  0.25000000  1
  Ru  Ru2  1  0.50000000  0.25000000  0.75000000  1
  Ru  Ru3  1  0.74782838  0.25019301  0.49763537  1
  Ru  Ru4  1  0.25217162  0.74980699  0.50236463  1
  Ru  Ru5  1  0.25217162  0.50236463  0.74980699  1
  Ru  Ru6  1  0.00000000  0.00000000  0.00000000  1
loop_
_geom_bond_atom_site_label_1
_geom_bond_atom_site_label_2
_geom_bond_distance
_geom_bond_site_symmetry_2
Hf0 Ru3 2.842679 1_555
Hf0 Ru4 2.842679 1_544
Hf0 Ru0 2.842679 1_555
Hf0 Ru5 2.842679 1_544
Hf0 Ru2 2.885678 1_554
Hf0 Ru1 2.885678 1_545
Hf1 Ru4 2.842679 1_555
Hf1 Ru3 2.842679 1_555
Hf1 Ru5 2.842679 1_555
Hf1 Ru0 2.842679 1_555
Hf1 Ru1 2.885678 1_555
Hf1 Ru2 2.885678 1_555
Mg0 Ru2 2.826531 1_555
Mg0 Ru1 2.826531 1_445
Mg0 Ru4 2.869741 1_545
Mg0 Ru3 2.869741 1_455
Mg0 Ru5 2.869741 1_555
Mg0 Ru0 2.869741 1_445
Mg1 Ru1 2.826531 1_555
Mg1 Ru2 2.826531 1_454
Mg1 Ru4 2.869741 1_555
Mg1 Ru3 2.869741 1_454
Mg1 Ru5 2.869741 1_554
Mg1 Ru0 2.869741 1_455
As0 Ru6 2.511932 1_565
As0 Ru3 2.531844 1_565
As0 Ru2 2.532711 1_565
As0 Ru1 2.532711 1_555
As0 Ru4 2.537020 1_555
As0 Mg1 2.861361 1_555
As0 Mg0 2.861361 1_565
As0 Hf1 2.935249 1_565
As0 Hf0 2.935249 1_565
As1 Ru6 2.509221 1_555
As1 Ru5 2.532232 1_555
As1 Ru0 2.532232 1_455
As1 Ru4 2.532232 1_555
As1 Ru3 2.532232 1_455
As1 Hf0 2.868631 1_455
As1 Hf1 2.868631 1_555
As1 Mg0 2.926927 1_555
As1 Mg1 2.926927 1_555
As2 Ru6 2.509221 1_666
As2 Ru0 2.532232 1_555
As2 Ru5 2.532232 1_655
As2 Ru3 2.532232 1_555
As2 Ru4 2.532232 1_655
As2 Hf0 2.868631 1_666
As2 Hf1 2.868631 1_555
As2 Mg0 2.926927 1_665
As2 Mg1 2.926927 1_656
As3 Ru6 2.511932 1_556
As3 Ru0 2.531844 1_556
As3 Ru1 2.532711 1_556
As3 Ru2 2.532712 1_555
As3 Ru5 2.537020 1_555
As3 Mg0 2.861361 1_555
As3 Mg1 2.861361 1_556
As3 Hf1 2.935249 1_556
As3 Hf0 2.935249 1_556
As4 Ru6 2.511932 1_665
As4 Ru5 2.531844 1_554
As4 Ru2 2.532711 1_554
As4 Ru1 2.532712 1_555
As4 Ru0 2.537020 1_555
As4 Mg0 2.861361 1_665
As4 Mg1 2.861361 1_655
As4 Hf1 2.935249 1_554
As4 Hf0 2.935249 1_565
As5 Ru6 2.511932 1_656
As5 Ru4 2.531844 1_545
As5 Ru1 2.532711 1_545
As5 Ru2 2.532711 1_555
As5 Ru3 2.537020 1_555
As5 Mg1 2.861361 1_656
As5 Mg0 2.861361 1_655
As5 Hf1 2.935249 1_545
As5 Hf0 2.935249 1_556
