# generated using pymatgen
data_Y10CoHg3
_symmetry_space_group_name_H-M   'P 1'
_cell_length_a   9.63646680
_cell_length_b   9.63649096
_cell_length_c   9.56325043
_cell_angle_alpha   90.00000000
_cell_angle_beta   90.00000000
_cell_angle_gamma   119.99987330
_symmetry_Int_Tables_number   1
_chemical_formula_structural   Y10CoHg3
_chemical_formula_sum   'Y20 Co2 Hg6'
_cell_volume   769.08344450
_cell_formula_units_Z   2
loop_
 _symmetry_equiv_pos_site_id
 _symmetry_equiv_pos_as_xyz
  1  'x, y, z'
loop_
 _atom_site_type_symbol
 _atom_site_label
 _atom_site_symmetry_multiplicity
 _atom_site_fract_x
 _atom_site_fract_y
 _atom_site_fract_z
 _atom_site_occupancy
  Y  Y0  1  0.00000000  0.00000000  0.50000000  1
  Y  Y1  1  0.00000000  0.00000000  0.00000000  1
  Y  Y2  1  0.54254825  0.45745966  0.25000000  1
  Y  Y3  1  0.54254590  0.08510459  0.25000000  1
  Y  Y4  1  0.91490944  0.45746544  0.25000000  1
  Y  Y5  1  0.45745175  0.54254034  0.75000000  1
  Y  Y6  1  0.45745410  0.91489541  0.75000000  1
  Y  Y7  1  0.08509056  0.54253456  0.75000000  1
  Y  Y8  1  0.21061359  0.78937315  0.43436998  1
  Y  Y9  1  0.21060517  0.42120946  0.43434962  1
  Y  Y10  1  0.57877778  0.78938163  0.43435902  1
  Y  Y11  1  0.78938641  0.21062685  0.56563002  1
  Y  Y12  1  0.78939483  0.57879054  0.56565038  1
  Y  Y13  1  0.42122222  0.21061837  0.56564098  1
  Y  Y14  1  0.78938641  0.21062685  0.93436998  1
  Y  Y15  1  0.78939483  0.57879054  0.93434962  1
  Y  Y16  1  0.42122222  0.21061837  0.93435902  1
  Y  Y17  1  0.21061359  0.78937315  0.06563002  1
  Y  Y18  1  0.21060517  0.42120946  0.06565038  1
  Y  Y19  1  0.57877778  0.78938163  0.06564098  1
  Co  Co0  1  0.33334106  0.66670381  0.25000000  1
  Co  Co1  1  0.66665894  0.33329619  0.75000000  1
  Hg  Hg0  1  0.88033062  0.11969974  0.25000000  1
  Hg  Hg1  1  0.88029204  0.76063470  0.25000000  1
  Hg  Hg2  1  0.23936664  0.11972519  0.25000000  1
  Hg  Hg3  1  0.11966938  0.88030026  0.75000000  1
  Hg  Hg4  1  0.11970796  0.23936530  0.75000000  1
  Hg  Hg5  1  0.76063336  0.88027481  0.75000000  1
loop_
_geom_bond_atom_site_label_1
_geom_bond_atom_site_label_2
_geom_bond_distance
_geom_bond_site_symmetry_2
Y0 Y12 3.570812 1_445
Y0 Y9 3.570812 1_555
Y0 Y13 3.570892 1_555
Y0 Y10 3.570892 1_445
Y0 Y11 3.571021 1_455
Y0 Y8 3.571021 1_545
Y1 Y18 3.570812 1_555
Y1 Y15 3.570812 1_444
Y1 Y16 3.570892 1_554
Y1 Y19 3.570892 1_445
Y1 Y14 3.571021 1_454
Y1 Y17 3.571021 1_545
Y2 Y9 3.513515 1_555
Y2 Y3 3.588185 1_555
Y2 Y4 3.588218 1_555
Y3 Y8 3.513700 1_545
Y3 Y4 3.588267 1_555
Y4 Y8 3.513488 1_655
Y4 Y9 3.513566 1_655
Y5 Y6 3.588185 1_555
Y5 Y7 3.588218 1_555
Y5 Y9 3.654639 1_555
Y6 Y7 3.588267 1_555
Y6 Y8 3.654451 1_555
Y7 Y8 3.654445 1_555
Y7 Y9 3.654607 1_555
Y10 Y2 3.513463 1_555
Y10 Y3 3.513726 1_565
Y10 Y6 3.654522 1_555
Y10 Y5 3.654543 1_555
Y11 Y7 3.513488 1_655
Y11 Y6 3.513700 1_545
Y11 Y4 3.654445 1_555
Y11 Y3 3.654451 1_555
Y12 Y5 3.513515 1_555
Y12 Y7 3.513566 1_655
Y12 Y4 3.654607 1_555
Y12 Y2 3.654639 1_555
Y13 Y5 3.513463 1_555
Y13 Y6 3.513726 1_545
Y13 Y3 3.654522 1_555
Y13 Y2 3.654543 1_555
Y14 Y7 3.513488 1_655
Y14 Y6 3.513700 1_545
Y14 Y4 3.654445 1_556
Y14 Y3 3.654451 1_556
Y15 Y5 3.513515 1_555
Y15 Y7 3.513566 1_655
Y15 Y4 3.654607 1_556
Y15 Y2 3.654639 1_556
Y16 Y5 3.513463 1_555
Y16 Y6 3.513726 1_545
Y16 Y3 3.654522 1_556
Y16 Y2 3.654543 1_556
Y17 Y4 3.513488 1_455
Y17 Y3 3.513700 1_565
Y17 Y7 3.654445 1_554
Y17 Y6 3.654451 1_554
Y18 Y2 3.513515 1_555
Y18 Y4 3.513566 1_455
Y18 Y7 3.654607 1_554
Y18 Y5 3.654639 1_554
Y19 Y2 3.513463 1_555
Y19 Y3 3.513726 1_565
Y19 Y6 3.654522 1_554
Y19 Y5 3.654543 1_554
Co0 Y8 2.702380 1_555
Co0 Y17 2.702380 1_555
Co0 Y10 2.702565 1_555
Co0 Y19 2.702565 1_555
Co0 Y9 2.702875 1_555
Co0 Y18 2.702875 1_555
Co0 Y3 3.491746 1_565
Co0 Y4 3.491994 1_455
Co0 Y2 3.492156 1_555
Co1 Y14 2.702380 1_555
Co1 Y11 2.702380 1_555
Co1 Y16 2.702565 1_555
Co1 Y13 2.702565 1_555
Co1 Y15 2.702875 1_555
Co1 Y12 2.702875 1_555
Co1 Y6 3.491746 1_545
Co1 Y7 3.491994 1_655
Co1 Y5 3.492156 1_555
Hg0 Y4 3.101721 1_555
Hg0 Y3 3.101830 1_555
Hg0 Y0 3.115533 1_655
Hg0 Y1 3.115533 1_655
Hg0 Y11 3.378570 1_555
Hg0 Y14 3.378570 1_554
Hg0 Y9 3.525937 1_655
Hg0 Y18 3.525937 1_655
Hg0 Y10 3.526344 1_545
Hg0 Y19 3.526344 1_545
Hg1 Y2 3.101552 1_555
Hg1 Y4 3.101765 1_555
Hg1 Y0 3.115516 1_665
Hg1 Y1 3.115516 1_665
Hg1 Y12 3.378644 1_555
Hg1 Y15 3.378644 1_554
Hg1 Y10 3.525927 1_555
Hg1 Y19 3.525927 1_555
Hg1 Y8 3.526513 1_655
Hg1 Y17 3.526513 1_655
Hg2 Y2 3.101528 1_555
Hg2 Y3 3.101872 1_555
Hg2 Y1 3.115520 1_555
Hg2 Y0 3.115520 1_555
Hg2 Y13 3.378605 1_555
Hg2 Y16 3.378605 1_554
Hg2 Y9 3.525708 1_555
Hg2 Y18 3.525708 1_555
Hg2 Y8 3.526721 1_545
Hg2 Y17 3.526721 1_545
Hg3 Y7 3.101721 1_555
Hg3 Y6 3.101830 1_555
Hg3 Y0 3.115533 1_565
Hg3 Y1 3.115533 1_566
Hg3 Y17 3.378570 1_556
Hg3 Y8 3.378570 1_555
Hg3 Y15 3.525937 1_455
Hg3 Y12 3.525937 1_455
Hg3 Y16 3.526344 1_565
Hg3 Y13 3.526344 1_565
Hg4 Y5 3.101552 1_555
Hg4 Y7 3.101765 1_555
Hg4 Y0 3.115516 1_555
Hg4 Y1 3.115516 1_556
Hg4 Y18 3.378644 1_556
Hg4 Y9 3.378644 1_555
Hg4 Y16 3.525927 1_555
Hg4 Y13 3.525927 1_555
Hg4 Y14 3.526513 1_455
Hg4 Y11 3.526513 1_455
Hg5 Y5 3.101528 1_555
Hg5 Y6 3.101872 1_555
Hg5 Y1 3.115520 1_666
Hg5 Y0 3.115520 1_665
Hg5 Y19 3.378605 1_556
Hg5 Y10 3.378605 1_555
Hg5 Y15 3.525708 1_555
Hg5 Y12 3.525708 1_555
Hg5 Y14 3.526721 1_565
Hg5 Y11 3.526721 1_565
