# generated using pymatgen
data_Cs2Na2TiS4
_symmetry_space_group_name_H-M   'P 1'
_cell_length_a   6.51145729
_cell_length_b   6.51145729
_cell_length_c   13.78457129
_cell_angle_alpha   90.00000000
_cell_angle_beta   90.00000000
_cell_angle_gamma   90.00000000
_symmetry_Int_Tables_number   1
_chemical_formula_structural   Cs2Na2TiS4
_chemical_formula_sum   'Cs4 Na4 Ti2 S8'
_cell_volume   584.45308660
_cell_formula_units_Z   2
loop_
 _symmetry_equiv_pos_site_id
 _symmetry_equiv_pos_as_xyz
  1  'x, y, z'
loop_
 _atom_site_type_symbol
 _atom_site_label
 _atom_site_symmetry_multiplicity
 _atom_site_fract_x
 _atom_site_fract_y
 _atom_site_fract_z
 _atom_site_occupancy
  Cs  Cs0  1  0.75926988  0.75926988  0.00000000  1
  Cs  Cs1  1  0.24073012  0.75926988  0.50000000  1
  Cs  Cs2  1  0.75926988  0.24073012  0.50000000  1
  Cs  Cs3  1  0.24073012  0.24073012  0.00000000  1
  Na  Na0  1  0.00000000  0.50000000  0.75000000  1
  Na  Na1  1  0.50000000  0.00000000  0.75000000  1
  Na  Na2  1  0.00000000  0.50000000  0.25000000  1
  Na  Na3  1  0.50000000  0.00000000  0.25000000  1
  Ti  Ti0  1  0.50000000  0.50000000  0.75000000  1
  Ti  Ti1  1  0.50000000  0.50000000  0.25000000  1
  S  S0  1  0.69928244  0.69928244  0.65200872  1
  S  S1  1  0.30071756  0.30071756  0.65200872  1
  S  S2  1  0.69928244  0.69928244  0.34799128  1
  S  S3  1  0.69928244  0.30071756  0.15200872  1
  S  S4  1  0.30071756  0.69928244  0.84799128  1
  S  S5  1  0.30071756  0.30071756  0.34799128  1
  S  S6  1  0.30071756  0.69928244  0.15200872  1
  S  S7  1  0.69928244  0.30071756  0.84799128  1
loop_
_geom_bond_atom_site_label_1
_geom_bond_atom_site_label_2
_geom_bond_distance
_geom_bond_site_symmetry_2
Cs0 S6 3.668574 1_555
Cs0 S3 3.668574 1_555
Cs0 S7 3.668574 1_554
Cs0 S4 3.668574 1_554
Cs0 S6 4.119845 1_655
Cs0 S3 4.119845 1_565
Cs0 S7 4.119845 1_564
Cs0 S4 4.119845 1_654
Cs1 S0 3.668574 1_555
Cs1 S1 3.668574 1_555
Cs1 S2 3.668574 1_555
Cs1 S5 3.668574 1_555
Cs1 S0 4.119845 1_455
Cs1 S1 4.119845 1_565
Cs1 S5 4.119845 1_565
Cs1 S2 4.119845 1_455
Cs2 S0 3.668574 1_555
Cs2 S1 3.668574 1_555
Cs2 S2 3.668574 1_555
Cs2 S5 3.668574 1_555
Cs2 S1 4.119845 1_655
Cs2 S0 4.119845 1_545
Cs2 S5 4.119845 1_655
Cs2 S2 4.119845 1_545
Cs3 S6 3.668574 1_555
Cs3 S3 3.668574 1_555
Cs3 S7 3.668574 1_554
Cs3 S4 3.668574 1_554
Cs3 S3 4.119845 1_455
Cs3 S6 4.119845 1_545
Cs3 S4 4.119845 1_544
Cs3 S7 4.119845 1_454
Na0 S4 2.709720 1_555
Na0 S7 2.709720 1_455
Na0 S1 2.709720 1_555
Na0 S0 2.709720 1_455
Na1 S7 2.709720 1_555
Na1 S4 2.709720 1_545
Na1 S1 2.709720 1_555
Na1 S0 2.709720 1_545
Na2 S5 2.709720 1_555
Na2 S2 2.709720 1_455
Na2 S6 2.709720 1_555
Na2 S3 2.709720 1_455
Na3 S5 2.709720 1_555
Na3 S2 2.709720 1_545
Na3 S3 2.709720 1_555
Na3 S6 2.709720 1_545
S0 Ti0 2.278641 1_555
S1 Ti0 2.278641 1_555
S2 Ti1 2.278641 1_555
S3 Ti1 2.278641 1_555
S4 Ti0 2.278641 1_555
S5 Ti1 2.278641 1_555
S6 Ti1 2.278641 1_555
S7 Ti0 2.278641 1_555
