# generated using pymatgen
data_Ti3Al2RhO
_symmetry_space_group_name_H-M   'P 1'
_cell_length_a   8.11788962
_cell_length_b   8.11788968
_cell_length_c   8.11789022
_cell_angle_alpha   60.00000179
_cell_angle_beta   60.00000155
_cell_angle_gamma   60.00000589
_symmetry_Int_Tables_number   1
_chemical_formula_structural   Ti3Al2RhO
_chemical_formula_sum   'Ti12 Al8 Rh4 O4'
_cell_volume   378.28096950
_cell_formula_units_Z   4
loop_
 _symmetry_equiv_pos_site_id
 _symmetry_equiv_pos_as_xyz
  1  'x, y, z'
loop_
 _atom_site_type_symbol
 _atom_site_label
 _atom_site_symmetry_multiplicity
 _atom_site_fract_x
 _atom_site_fract_y
 _atom_site_fract_z
 _atom_site_occupancy
  Ti  Ti0  1  0.56322559  0.93677441  0.56322559  1
  Ti  Ti1  1  0.31322559  0.68677441  0.68677441  1
  Ti  Ti2  1  0.68677441  0.31322559  0.31322559  1
  Ti  Ti3  1  0.31322559  0.68677441  0.31322559  1
  Ti  Ti4  1  0.68677441  0.68677441  0.31322559  1
  Ti  Ti5  1  0.31322559  0.31322559  0.68677441  1
  Ti  Ti6  1  0.56322559  0.56322559  0.93677441  1
  Ti  Ti7  1  0.93677441  0.56322559  0.56322559  1
  Ti  Ti8  1  0.56322559  0.93677441  0.93677441  1
  Ti  Ti9  1  0.93677441  0.93677441  0.56322559  1
  Ti  Ti10  1  0.68677441  0.31322559  0.68677441  1
  Ti  Ti11  1  0.93677441  0.56322559  0.93677441  1
  Al  Al0  1  0.33401621  0.33401621  0.33401621  1
  Al  Al1  1  0.25204862  0.91598379  0.91598379  1
  Al  Al2  1  0.91598379  0.25204862  0.91598379  1
  Al  Al3  1  0.91598379  0.91598379  0.25204862  1
  Al  Al4  1  0.33401621  0.99795138  0.33401621  1
  Al  Al5  1  0.33401621  0.33401621  0.99795138  1
  Al  Al6  1  0.99795138  0.33401621  0.33401621  1
  Al  Al7  1  0.91598379  0.91598379  0.91598379  1
  Rh  Rh0  1  0.12500000  0.12500000  0.12500000  1
  Rh  Rh1  1  0.62500000  0.12500000  0.12500000  1
  Rh  Rh2  1  0.12500000  0.62500000  0.12500000  1
  Rh  Rh3  1  0.12500000  0.12500000  0.62500000  1
  O  O0  1  0.62500000  0.62500000  0.62500000  1
  O  O1  1  0.12500000  0.62500000  0.62500000  1
  O  O2  1  0.62500000  0.12500000  0.62500000  1
  O  O3  1  0.62500000  0.62500000  0.12500000  1
loop_
_geom_bond_atom_site_label_1
_geom_bond_atom_site_label_2
_geom_bond_distance
_geom_bond_site_symmetry_2
Al0 Rh3 2.490145 1_555
Al0 Rh1 2.490145 1_555
Al0 Rh2 2.490145 1_555
Al1 Rh2 2.490145 1_556
Al1 Rh0 2.490145 1_566
Al1 Rh3 2.490145 1_565
Al2 Rh1 2.490145 1_556
Al2 Rh0 2.490145 1_656
Al2 Rh3 2.490145 1_655
Al3 Rh0 2.490145 1_665
Al3 Rh1 2.490145 1_565
Al3 Rh2 2.490145 1_655
Al4 Rh1 2.490145 1_565
Al4 Rh0 2.490145 1_565
Al4 Rh3 2.490145 1_565
Al5 Rh0 2.490145 1_556
Al5 Rh1 2.490145 1_556
Al5 Rh2 2.490145 1_556
Al6 Rh2 2.490145 1_655
Al6 Rh0 2.490145 1_655
Al6 Rh3 2.490145 1_655
Al7 Rh3 2.490145 1_665
Al7 Rh1 2.490145 1_566
Al7 Rh2 2.490145 1_656
Rh0 Ti9 2.964506 1_445
Rh0 Ti5 2.964506 1_554
Rh0 Ti8 2.964506 1_544
Rh0 Ti2 2.964506 1_455
Rh0 Ti11 2.964506 1_454
Rh0 Ti3 2.964506 1_545
Rh1 Ti2 2.964506 1_555
Rh1 Ti8 2.964506 1_544
Rh1 Ti6 2.964506 1_554
Rh1 Ti4 2.964506 1_545
Rh1 Ti0 2.964506 1_545
Rh1 Ti10 2.964506 1_554
Rh2 Ti3 2.964506 1_555
Rh2 Ti11 2.964506 1_454
Rh2 Ti6 2.964506 1_554
Rh2 Ti4 2.964506 1_455
Rh2 Ti7 2.964506 1_455
Rh2 Ti1 2.964506 1_554
Rh3 Ti5 2.964505 1_555
Rh3 Ti9 2.964505 1_445
Rh3 Ti0 2.964506 1_545
Rh3 Ti10 2.964506 1_455
Rh3 Ti7 2.964506 1_455
Rh3 Ti1 2.964506 1_545
O0 Ti7 2.149818 1_555
O0 Ti1 2.149818 1_555
O0 Ti0 2.149818 1_555
O0 Ti10 2.149818 1_555
O0 Ti6 2.149818 1_555
O0 Ti4 2.149818 1_555
O1 Ti1 2.149818 1_555
O1 Ti7 2.149818 1_455
O1 Ti11 2.149818 1_455
O1 Ti3 2.149818 1_555
O1 Ti9 2.149818 1_455
O1 Ti5 2.149818 1_555
O2 Ti10 2.149818 1_555
O2 Ti0 2.149818 1_545
O2 Ti2 2.149818 1_555
O2 Ti8 2.149818 1_545
O2 Ti9 2.149818 1_545
O2 Ti5 2.149818 1_555
O3 Ti4 2.149818 1_555
O3 Ti6 2.149818 1_554
O3 Ti11 2.149818 1_554
O3 Ti3 2.149818 1_555
O3 Ti8 2.149818 1_554
O3 Ti2 2.149818 1_555
