# generated using pymatgen
data_BaCd2H8Os
_symmetry_space_group_name_H-M   'P 1'
_cell_length_a   5.12157680
_cell_length_b   5.12157680
_cell_length_c   10.92902626
_cell_angle_alpha   90.00000000
_cell_angle_beta   90.00000000
_cell_angle_gamma   90.00000000
_symmetry_Int_Tables_number   1
_chemical_formula_structural   BaCd2H8Os
_chemical_formula_sum   'Ba2 Cd4 H16 Os2'
_cell_volume   286.67435769
_cell_formula_units_Z   2
loop_
 _symmetry_equiv_pos_site_id
 _symmetry_equiv_pos_as_xyz
  1  'x, y, z'
loop_
 _atom_site_type_symbol
 _atom_site_label
 _atom_site_symmetry_multiplicity
 _atom_site_fract_x
 _atom_site_fract_y
 _atom_site_fract_z
 _atom_site_occupancy
  Ba  Ba0  1  0.50000000  0.00000000  0.00000000  1
  Ba  Ba1  1  0.00000000  0.50000000  0.50000000  1
  Cd  Cd0  1  0.50000000  0.00000000  0.63662449  1
  Cd  Cd1  1  0.00000000  0.50000000  0.13662449  1
  Cd  Cd2  1  0.50000000  0.00000000  0.36337551  1
  Cd  Cd3  1  0.00000000  0.50000000  0.86337551  1
  H  H0  1  0.23687130  0.23687130  0.75000000  1
  H  H1  1  0.76312870  0.76312870  0.75000000  1
  H  H2  1  0.76312870  0.23687130  0.25000000  1
  H  H3  1  0.23687130  0.76312870  0.25000000  1
  H  H4  1  0.76312870  0.76312870  0.25000000  1
  H  H5  1  0.23687130  0.23687130  0.25000000  1
  H  H6  1  0.23687130  0.76312870  0.75000000  1
  H  H7  1  0.76312870  0.23687130  0.75000000  1
  H  H8  1  0.50000000  0.26350657  0.50000000  1
  H  H9  1  0.50000000  0.73649343  0.50000000  1
  H  H10  1  0.73649343  0.50000000  0.00000000  1
  H  H11  1  0.26350657  0.50000000  0.00000000  1
  H  H12  1  0.00000000  0.00000000  0.59466854  1
  H  H13  1  0.00000000  0.00000000  0.09466854  1
  H  H14  1  0.00000000  0.00000000  0.40533146  1
  H  H15  1  0.00000000  0.00000000  0.90533146  1
  Os  Os0  1  0.00000000  0.00000000  0.75000000  1
  Os  Os1  1  0.00000000  0.00000000  0.25000000  1
loop_
_geom_bond_atom_site_label_1
_geom_bond_atom_site_label_2
_geom_bond_distance
_geom_bond_site_symmetry_2
Ba0 H15 2.761903 1_654
Ba0 H15 2.761903 1_554
Ba0 H13 2.761903 1_655
Ba0 H13 2.761903 1_555
Ba0 H11 2.832788 1_545
Ba0 H11 2.832788 1_555
Ba0 H10 2.832788 1_545
Ba0 H10 2.832788 1_555
Ba1 H14 2.761903 1_565
Ba1 H14 2.761903 1_555
Ba1 H12 2.761903 1_555
Ba1 H12 2.761903 1_565
Ba1 H8 2.832788 1_555
Ba1 H8 2.832788 1_455
Ba1 H9 2.832788 1_455
Ba1 H9 2.832788 1_555
Cd0 H9 2.012685 1_545
Cd0 H8 2.012685 1_555
Cd0 H1 2.196176 1_545
Cd0 H6 2.196176 1_545
Cd0 H0 2.196176 1_555
Cd0 H7 2.196176 1_555
Cd1 H10 2.012685 1_455
Cd1 H11 2.012685 1_555
Cd1 H5 2.196176 1_555
Cd1 H2 2.196176 1_455
Cd1 H4 2.196176 1_455
Cd1 H3 2.196176 1_555
Cd2 H9 2.012685 1_545
Cd2 H8 2.012685 1_555
Cd2 H3 2.196176 1_545
Cd2 H4 2.196176 1_545
Cd2 H5 2.196176 1_555
Cd2 H2 2.196176 1_555
Cd3 H10 2.012685 1_456
Cd3 H11 2.012685 1_556
Cd3 H7 2.196176 1_455
Cd3 H1 2.196176 1_455
Cd3 H0 2.196176 1_555
Cd3 H6 2.196176 1_555
H0 Os0 1.715660 1_555
H1 Os0 1.715660 1_665
H2 Os1 1.715660 1_655
H3 Os1 1.715660 1_565
H4 Os1 1.715660 1_665
H5 Os1 1.715660 1_555
H6 Os0 1.715660 1_565
H7 Os0 1.715660 1_655
H12 Os0 1.697622 1_555
H13 Os1 1.697622 1_555
H14 Os1 1.697622 1_555
H15 Os0 1.697622 1_555
