# generated using pymatgen
data_Cs4Nb2PdS8
_symmetry_space_group_name_H-M   'P 1'
_cell_length_a   13.71948708
_cell_length_b   7.54715857
_cell_length_c   9.85125105
_cell_angle_alpha   85.56194024
_cell_angle_beta   90.00000000
_cell_angle_gamma   90.00000000
_symmetry_Int_Tables_number   1
_chemical_formula_structural   Cs4Nb2PdS8
_chemical_formula_sum   'Cs8 Nb4 Pd2 S16'
_cell_volume   1016.97102454
_cell_formula_units_Z   2
loop_
 _symmetry_equiv_pos_site_id
 _symmetry_equiv_pos_as_xyz
  1  'x, y, z'
loop_
 _atom_site_type_symbol
 _atom_site_label
 _atom_site_symmetry_multiplicity
 _atom_site_fract_x
 _atom_site_fract_y
 _atom_site_fract_z
 _atom_site_occupancy
  Cs  Cs0  1  0.13877624  0.81992964  0.68246784  1
  Cs  Cs1  1  0.63877624  0.18007036  0.81753216  1
  Cs  Cs2  1  0.86122376  0.18007036  0.31753216  1
  Cs  Cs3  1  0.36122376  0.81992964  0.18246784  1
  Cs  Cs4  1  0.34330962  0.27061039  0.53882934  1
  Cs  Cs5  1  0.84330962  0.72938961  0.96117066  1
  Cs  Cs6  1  0.65669038  0.72938961  0.46117066  1
  Cs  Cs7  1  0.15669038  0.27061039  0.03882934  1
  Nb  Nb0  1  0.42820731  0.75282012  0.76918819  1
  Nb  Nb1  1  0.92820731  0.24717988  0.73081181  1
  Nb  Nb2  1  0.57179269  0.24717988  0.23081181  1
  Nb  Nb3  1  0.07179269  0.75282012  0.26918819  1
  Pd  Pd0  1  0.00000000  0.50000000  0.50000000  1
  Pd  Pd1  1  0.50000000  0.50000000  0.00000000  1
  S  S0  1  0.08778526  0.31316083  0.66505505  1
  S  S1  1  0.58778526  0.68683917  0.83494495  1
  S  S2  1  0.91221474  0.68683917  0.33494495  1
  S  S3  1  0.41221474  0.31316083  0.16505505  1
  S  S4  1  0.40217266  0.75281495  0.54241169  1
  S  S5  1  0.90217266  0.24718505  0.95758831  1
  S  S6  1  0.59782734  0.24718505  0.45758831  1
  S  S7  1  0.09782734  0.75281495  0.04241169  1
  S  S8  1  0.15314536  0.52262910  0.38769662  1
  S  S9  1  0.65314536  0.47737090  0.11230338  1
  S  S10  1  0.84685464  0.47737090  0.61230338  1
  S  S11  1  0.34685464  0.52262910  0.88769662  1
  S  S12  1  0.37776928  0.01409184  0.84154696  1
  S  S13  1  0.87776928  0.98590816  0.65845304  1
  S  S14  1  0.62223072  0.98590816  0.15845304  1
  S  S15  1  0.12223072  0.01409184  0.34154696  1
loop_
_geom_bond_atom_site_label_1
_geom_bond_atom_site_label_2
_geom_bond_distance
_geom_bond_site_symmetry_2
Cs0 S15 3.566047 1_565
Cs0 S7 3.587144 1_556
Cs0 Pd0 3.654850 1_555
Cs0 S0 3.778487 1_565
Cs0 S13 3.794995 1_455
Cs0 S8 3.809750 1_555
Cs0 S0 3.904922 1_555
Cs0 S4 3.914964 1_555
Cs0 S12 3.963527 1_565
Cs0 S11 4.070559 1_555
Cs1 S14 3.566047 1_546
Cs1 S6 3.587144 1_555
Cs1 Pd1 3.654850 1_556
Cs1 S1 3.778487 1_545
Cs1 S12 3.794995 1_555
Cs1 S9 3.809750 1_556
Cs1 S1 3.904922 1_555
Cs1 S5 3.914964 1_555
Cs1 S13 3.963527 1_545
Cs1 S10 4.070559 1_555
Cs2 S13 3.566047 1_545
Cs2 S5 3.587144 1_554
Cs2 Pd0 3.654850 1_655
Cs2 S2 3.778487 1_545
Cs2 S15 3.794995 1_655
Cs2 S10 3.809750 1_555
Cs2 S2 3.904922 1_555
Cs2 S6 3.914964 1_555
Cs2 S14 3.963527 1_545
Cs2 S9 4.070559 1_555
Cs3 S12 3.566047 1_564
Cs3 S4 3.587144 1_555
Cs3 Pd1 3.654850 1_555
Cs3 S3 3.778487 1_565
Cs3 S14 3.794995 1_555
Cs3 S11 3.809750 1_554
Cs3 S3 3.904922 1_555
Cs3 S7 3.914964 1_555
Cs3 S15 3.963527 1_565
Cs3 S8 4.070559 1_555
Cs4 S12 3.459949 1_555
Cs4 S8 3.493244 1_555
Cs4 S6 3.589806 1_555
Cs4 S4 3.730631 1_555
Cs4 S0 3.741771 1_555
Cs4 S3 3.791040 1_555
Cs4 S4 3.987936 1_545
Cs4 S11 4.055018 1_555
Cs4 S15 4.160178 1_555
Cs5 S13 3.459949 1_555
Cs5 S9 3.493244 1_556
Cs5 S7 3.589806 1_656
Cs5 S5 3.730631 1_555
Cs5 S1 3.741771 1_555
Cs5 S2 3.791040 1_556
Cs5 S5 3.987936 1_565
Cs5 S10 4.055018 1_555
Cs5 S14 4.160178 1_556
Cs6 S14 3.459949 1_555
Cs6 S10 3.493244 1_555
Cs6 S4 3.589806 1_555
Cs6 S6 3.730631 1_555
Cs6 S2 3.741771 1_555
Cs6 S1 3.791040 1_555
Cs6 S6 3.987936 1_565
Cs6 S9 4.055018 1_555
Cs6 S13 4.160178 1_555
Cs7 S15 3.459949 1_555
Cs7 S11 3.493244 1_554
Cs7 S5 3.589806 1_454
Cs7 S7 3.730631 1_555
Cs7 S3 3.741771 1_555
Cs7 S0 3.791040 1_554
Cs7 S7 3.987936 1_545
Cs7 S8 4.055018 1_555
Cs7 S12 4.160178 1_554
Nb0 S12 2.256706 1_565
Nb0 S4 2.262409 1_555
Nb0 S11 2.304984 1_555
Nb0 S1 2.326120 1_555
Nb1 S13 2.256706 1_545
Nb1 S5 2.262409 1_555
Nb1 S10 2.304984 1_555
Nb1 S0 2.326120 1_655
Nb2 S14 2.256706 1_545
Nb2 S6 2.262409 1_555
Nb2 S9 2.304984 1_555
Nb2 S3 2.326120 1_555
Nb3 S15 2.256706 1_565
Nb3 S7 2.262409 1_555
Nb3 S8 2.304984 1_555
Nb3 S2 2.326120 1_455
Pd0 S8 2.374533 1_555
Pd0 S10 2.374533 1_455
Pd0 S0 2.393309 1_555
Pd0 S2 2.393309 1_455
Pd1 S9 2.374533 1_555
Pd1 S11 2.374533 1_554
Pd1 S1 2.393309 1_554
Pd1 S3 2.393309 1_555
