# generated using pymatgen
data_Zr7Ti3(BePb3)2
_symmetry_space_group_name_H-M   'P 1'
_cell_length_a   8.59731875
_cell_length_b   8.59731901
_cell_length_c   5.81270599
_cell_angle_alpha   90.00000000
_cell_angle_beta   90.00000000
_cell_angle_gamma   120.00000277
_symmetry_Int_Tables_number   1
_chemical_formula_structural   Zr7Ti3(BePb3)2
_chemical_formula_sum   'Zr7 Ti3 Be2 Pb6'
_cell_volume   372.07890392
_cell_formula_units_Z   1
loop_
 _symmetry_equiv_pos_site_id
 _symmetry_equiv_pos_as_xyz
  1  'x, y, z'
loop_
 _atom_site_type_symbol
 _atom_site_label
 _atom_site_symmetry_multiplicity
 _atom_site_fract_x
 _atom_site_fract_y
 _atom_site_fract_z
 _atom_site_occupancy
  Zr  Zr0  1  0.66666700  0.33333300  0.00000000  1
  Zr  Zr1  1  0.75482550  0.75318560  0.24769548  1
  Zr  Zr2  1  0.24681440  0.00163990  0.24769548  1
  Zr  Zr3  1  0.99836010  0.24517450  0.24769548  1
  Zr  Zr4  1  0.24681440  0.24517450  0.75230452  1
  Zr  Zr5  1  0.75482550  0.00163990  0.75230452  1
  Zr  Zr6  1  0.99836010  0.75318560  0.75230452  1
  Ti  Ti0  1  0.66666700  0.33333300  0.50000000  1
  Ti  Ti1  1  0.33333300  0.66666700  0.50000000  1
  Ti  Ti2  1  0.33333300  0.66666700  0.00000000  1
  Be  Be0  1  0.00000000  0.00000000  0.50000000  1
  Be  Be1  1  0.00000000  0.00000000  0.00000000  1
  Pb  Pb0  1  0.39218143  0.39586714  0.25389582  1
  Pb  Pb1  1  0.60413286  0.99631329  0.25389582  1
  Pb  Pb2  1  0.00368671  0.60781857  0.25389582  1
  Pb  Pb3  1  0.60413286  0.60781857  0.74610418  1
  Pb  Pb4  1  0.39218143  0.99631329  0.74610418  1
  Pb  Pb5  1  0.00368671  0.39586714  0.74610418  1
loop_
_geom_bond_atom_site_label_1
_geom_bond_atom_site_label_2
_geom_bond_distance
_geom_bond_site_symmetry_2
Ti0 Zr0 2.906353 1_555
Ti0 Zr0 2.906353 1_556
Be0 Zr4 2.573665 1_555
Be0 Zr1 2.573665 1_445
Be0 Zr2 2.573665 1_555
Be0 Zr5 2.573665 1_455
Be0 Zr6 2.573665 1_445
Be0 Zr3 2.573665 1_455
Be1 Zr4 2.558494 1_554
Be1 Zr1 2.558494 1_445
Be1 Zr2 2.558494 1_555
Be1 Zr5 2.558494 1_454
Be1 Zr6 2.558494 1_444
Be1 Zr3 2.558494 1_455
Pb0 Zr3 2.959215 1_455
Pb0 Zr2 2.968960 1_555
Pb0 Ti1 2.983386 1_555
Pb0 Ti2 3.005366 1_555
Pb0 Ti0 3.028699 1_555
Pb0 Zr0 3.050352 1_555
Pb0 Zr1 3.095337 1_555
Pb0 Zr4 3.164560 1_555
Pb0 Zr4 3.181505 1_554
Pb1 Zr1 2.959208 1_555
Pb1 Zr3 2.968961 1_565
Pb1 Ti1 2.983376 1_555
Pb1 Ti2 3.005356 1_555
Pb1 Ti0 3.028699 1_565
Pb1 Zr0 3.050352 1_565
Pb1 Zr2 3.095342 1_565
Pb1 Zr5 3.164559 1_565
Pb1 Zr5 3.181503 1_564
Pb2 Zr2 2.959214 1_565
Pb2 Zr1 2.968968 1_455
Pb2 Ti1 2.983371 1_555
Pb2 Ti2 3.005351 1_555
Pb2 Ti0 3.028699 1_455
Pb2 Zr0 3.050352 1_455
Pb2 Zr3 3.095333 1_455
Pb2 Zr6 3.164562 1_455
Pb2 Zr6 3.181507 1_454
Pb3 Zr5 2.959215 1_565
Pb3 Zr6 2.968959 1_555
Pb3 Ti1 2.983386 1_555
Pb3 Ti2 3.005365 1_556
Pb3 Ti0 3.028699 1_555
Pb3 Zr0 3.050352 1_556
Pb3 Zr4 3.095337 1_555
Pb3 Zr1 3.164560 1_555
Pb3 Zr1 3.181505 1_556
Pb4 Zr6 2.959214 1_455
Pb4 Zr4 2.968968 1_565
Pb4 Ti1 2.983371 1_555
Pb4 Ti2 3.005351 1_556
Pb4 Ti0 3.028699 1_565
Pb4 Zr0 3.050352 1_566
Pb4 Zr5 3.095333 1_565
Pb4 Zr2 3.164562 1_565
Pb4 Zr2 3.181507 1_566
Pb5 Zr4 2.959208 1_555
Pb5 Zr5 2.968961 1_455
Pb5 Ti1 2.983376 1_555
Pb5 Ti2 3.005356 1_556
Pb5 Ti0 3.028699 1_455
Pb5 Zr0 3.050352 1_456
Pb5 Zr6 3.095342 1_455
Pb5 Zr3 3.164559 1_455
Pb5 Zr3 3.181503 1_456
