# generated using pymatgen
data_Nd3Cu3Sb4
_symmetry_space_group_name_H-M   'P 1'
_cell_length_a   8.44535277
_cell_length_b   8.44535288
_cell_length_c   8.44535390
_cell_angle_alpha   109.47123053
_cell_angle_beta   109.47123077
_cell_angle_gamma   109.47121378
_symmetry_Int_Tables_number   1
_chemical_formula_structural   Nd3Cu3Sb4
_chemical_formula_sum   'Nd6 Cu6 Sb8'
_cell_volume   463.69401243
_cell_formula_units_Z   2
loop_
 _symmetry_equiv_pos_site_id
 _symmetry_equiv_pos_as_xyz
  1  'x, y, z'
loop_
 _atom_site_type_symbol
 _atom_site_label
 _atom_site_symmetry_multiplicity
 _atom_site_fract_x
 _atom_site_fract_y
 _atom_site_fract_z
 _atom_site_occupancy
  Nd  Nd0  1  0.75000000  0.87500000  0.12500000  1
  Nd  Nd1  1  0.87500000  0.12500000  0.75000000  1
  Nd  Nd2  1  0.12500000  0.75000000  0.87500000  1
  Nd  Nd3  1  0.37500000  0.25000000  0.62500000  1
  Nd  Nd4  1  0.25000000  0.62500000  0.37500000  1
  Nd  Nd5  1  0.62500000  0.37500000  0.25000000  1
  Cu  Cu0  1  0.25000000  0.12500000  0.87500000  1
  Cu  Cu1  1  0.87500000  0.25000000  0.12500000  1
  Cu  Cu2  1  0.62500000  0.75000000  0.37500000  1
  Cu  Cu3  1  0.37500000  0.62500000  0.75000000  1
  Cu  Cu4  1  0.12500000  0.87500000  0.25000000  1
  Cu  Cu5  1  0.75000000  0.37500000  0.62500000  1
  Sb  Sb0  1  0.34301946  0.50000000  -0.00000000  1
  Sb  Sb1  1  0.50000000  -0.00000000  0.34301946  1
  Sb  Sb2  1  0.00000000  0.34301946  0.50000000  1
  Sb  Sb3  1  0.50000000  -0.00000000  0.84301946  1
  Sb  Sb4  1  0.65698054  0.65698054  0.65698054  1
  Sb  Sb5  1  0.00000000  0.84301946  0.50000000  1
  Sb  Sb6  1  0.15698054  0.15698054  0.15698054  1
  Sb  Sb7  1  0.84301946  0.50000000  -0.00000000  1
loop_
_geom_bond_atom_site_label_1
_geom_bond_atom_site_label_2
_geom_bond_distance
_geom_bond_site_symmetry_2
Nd0 Sb0 3.324649 1_555
Nd0 Sb3 3.324649 1_564
Nd0 Sb5 3.324649 1_655
Nd0 Sb6 3.324649 1_665
Nd0 Sb2 3.426972 1_665
Nd0 Sb7 3.426973 1_555
Nd0 Sb4 3.426973 1_554
Nd0 Sb1 3.426973 1_565
Nd1 Sb1 3.324649 1_555
Nd1 Sb7 3.324649 1_556
Nd1 Sb6 3.324649 1_656
Nd1 Sb5 3.324649 1_645
Nd1 Sb0 3.426973 1_656
Nd1 Sb4 3.426973 1_545
Nd1 Sb3 3.426973 1_555
Nd1 Sb2 3.426974 1_655
Nd2 Sb2 3.324649 1_555
Nd2 Sb6 3.324649 1_566
Nd2 Sb3 3.324649 1_565
Nd2 Sb7 3.324649 1_456
Nd2 Sb1 3.426972 1_566
Nd2 Sb4 3.426973 1_455
Nd2 Sb0 3.426973 1_556
Nd2 Sb5 3.426973 1_555
Nd3 Sb5 3.324649 1_545
Nd3 Sb1 3.324649 1_555
Nd3 Sb0 3.324649 1_556
Nd3 Sb4 3.324649 1_555
Nd3 Sb7 3.426972 1_556
Nd3 Sb2 3.426973 1_555
Nd3 Sb6 3.426973 1_555
Nd3 Sb3 3.426973 1_555
Nd4 Sb7 3.324649 1_455
Nd4 Sb4 3.324649 1_555
Nd4 Sb1 3.324649 1_565
Nd4 Sb2 3.324649 1_555
Nd4 Sb3 3.426972 1_565
Nd4 Sb6 3.426973 1_555
Nd4 Sb5 3.426973 1_555
Nd4 Sb0 3.426973 1_555
Nd5 Sb3 3.324649 1_554
Nd5 Sb2 3.324649 1_655
Nd5 Sb0 3.324649 1_555
Nd5 Sb4 3.324649 1_555
Nd5 Sb5 3.426973 1_655
Nd5 Sb6 3.426973 1_555
Nd5 Sb1 3.426973 1_555
Nd5 Sb7 3.426974 1_555
Cu0 Sb5 2.705758 1_545
Cu0 Sb0 2.705759 1_556
Cu0 Sb3 2.705759 1_555
Cu0 Sb6 2.705759 1_556
Cu0 Nd5 2.985883 1_556
Cu0 Nd1 2.985883 1_455
Cu0 Nd2 2.985883 1_545
Cu0 Nd3 2.985884 1_555
Cu1 Sb3 2.705758 1_554
Cu1 Sb6 2.705759 1_655
Cu1 Sb2 2.705759 1_655
Cu1 Sb7 2.705759 1_555
Cu1 Nd4 2.985883 1_655
Cu1 Nd5 2.985883 1_555
Cu1 Nd0 2.985883 1_545
Cu1 Nd1 2.985883 1_554
Cu2 Sb0 2.705758 1_555
Cu2 Sb5 2.705759 1_655
Cu2 Sb1 2.705759 1_565
Cu2 Sb4 2.705759 1_555
Cu2 Nd1 2.985883 1_565
Cu2 Nd5 2.985883 1_555
Cu2 Nd4 2.985883 1_555
Cu2 Nd0 2.985884 1_555
Cu3 Sb2 2.705759 1_555
Cu3 Sb3 2.705759 1_565
Cu3 Sb4 2.705759 1_555
Cu3 Sb0 2.705759 1_556
Cu3 Nd0 2.985883 1_556
Cu3 Nd3 2.985883 1_555
Cu3 Nd2 2.985883 1_555
Cu3 Nd4 2.985883 1_555
Cu4 Sb7 2.705759 1_455
Cu4 Sb1 2.705759 1_565
Cu4 Sb6 2.705759 1_565
Cu4 Sb5 2.705759 1_555
Cu4 Nd3 2.985883 1_565
Cu4 Nd0 2.985883 1_455
Cu4 Nd4 2.985883 1_555
Cu4 Nd2 2.985883 1_554
Cu5 Sb1 2.705758 1_555
Cu5 Sb4 2.705759 1_555
Cu5 Sb7 2.705759 1_556
Cu5 Sb2 2.705759 1_655
Cu5 Nd2 2.985883 1_655
Cu5 Nd1 2.985883 1_555
Cu5 Nd3 2.985883 1_555
Cu5 Nd5 2.985883 1_555
