# generated using pymatgen
data_Li2Cu(OsO4)2
_symmetry_space_group_name_H-M   'P 1'
_cell_length_a   5.10685925
_cell_length_b   5.30208193
_cell_length_c   5.72949315
_cell_angle_alpha   105.60776455
_cell_angle_beta   86.41301178
_cell_angle_gamma   112.92994300
_symmetry_Int_Tables_number   1
_chemical_formula_structural   Li2Cu(OsO4)2
_chemical_formula_sum   'Li2 Cu1 Os2 O8'
_cell_volume   137.45399196
_cell_formula_units_Z   1
loop_
 _symmetry_equiv_pos_site_id
 _symmetry_equiv_pos_as_xyz
  1  'x, y, z'
loop_
 _atom_site_type_symbol
 _atom_site_label
 _atom_site_symmetry_multiplicity
 _atom_site_fract_x
 _atom_site_fract_y
 _atom_site_fract_z
 _atom_site_occupancy
  Li  Li0  1  0.06215832  0.59708069  0.77161928  1
  Li  Li1  1  0.93784168  0.40291931  0.22838072  1
  Cu  Cu0  1  0.50000000  0.50000000  0.00000000  1
  Os  Os0  1  0.73557650  0.99035822  0.65587868  1
  Os  Os1  1  0.26442350  0.00964178  0.34412132  1
  O  O0  1  0.27157447  0.72479713  0.07780062  1
  O  O1  1  0.86074474  0.78042160  0.35371051  1
  O  O2  1  0.72842553  0.27520287  0.92219938  1
  O  O3  1  0.33552348  0.80314266  0.56641186  1
  O  O4  1  0.25004440  0.26214295  0.18958027  1
  O  O5  1  0.13925526  0.21957840  0.64628949  1
  O  O6  1  0.74995560  0.73785705  0.81041973  1
  O  O7  1  0.66447652  0.19685734  0.43358814  1
loop_
_geom_bond_atom_site_label_1
_geom_bond_atom_site_label_2
_geom_bond_distance
_geom_bond_site_symmetry_2
Li0 O0 1.926386 1_556
Li0 O3 1.955071 1_555
Li0 O6 1.985508 1_455
Li0 O5 2.117106 1_555
Li0 O2 2.214380 1_455
Li1 O2 1.926386 1_554
Li1 O7 1.955071 1_555
Li1 O4 1.985508 1_655
Li1 O1 2.117106 1_555
Li1 O0 2.214380 1_655
Cu0 O6 1.925863 1_554
Cu0 O4 1.925863 1_555
Cu0 O2 1.926802 1_554
Cu0 O0 1.926802 1_555
Cu0 O1 2.534376 1_555
Cu0 O5 2.534376 1_554
O0 Os1 1.845676 1_565
O1 Os1 1.949220 1_665
O1 Os0 2.005959 1_555
O2 Os0 1.845676 1_545
O3 Os0 1.923283 1_555
O3 Os1 2.017590 1_565
O4 Os1 1.817787 1_555
O5 Os0 1.949220 1_445
O5 Os1 2.005959 1_555
O6 Os0 1.817787 1_555
O7 Os1 1.923283 1_555
O7 Os0 2.017590 1_545
