# generated using pymatgen
data_Ni7(PO4)6
_symmetry_space_group_name_H-M   'P 1'
_cell_length_a   8.83620282
_cell_length_b   8.83620348
_cell_length_c   6.53172273
_cell_angle_alpha   81.38714631
_cell_angle_beta   98.61285276
_cell_angle_gamma   74.44082262
_symmetry_Int_Tables_number   1
_chemical_formula_structural   Ni7(PO4)6
_chemical_formula_sum   'Ni7 P6 O24'
_cell_volume   476.00258881
_cell_formula_units_Z   1
loop_
 _symmetry_equiv_pos_site_id
 _symmetry_equiv_pos_as_xyz
  1  'x, y, z'
loop_
 _atom_site_type_symbol
 _atom_site_label
 _atom_site_symmetry_multiplicity
 _atom_site_fract_x
 _atom_site_fract_y
 _atom_site_fract_z
 _atom_site_occupancy
  Ni  Ni0  1  0.64423500  0.97076000  0.19013500  1
  Ni  Ni1  1  0.62215100  0.61354000  0.00339100  1
  Ni  Ni2  1  0.36441700  0.02065800  0.81642700  1
  Ni  Ni3  1  0.38646000  0.37784900  0.00339100  1
  Ni  Ni4  1  0.00433300  0.99566700  0.00335800  1
  Ni  Ni5  1  0.97934200  0.63558300  0.81642700  1
  Ni  Ni6  1  0.02924100  0.35576500  0.19013500  1
  P  P0  1  0.10929300  0.28427100  0.72874300  1
  P  P1  1  0.29288700  0.10067400  0.27784500  1
  P  P2  1  0.30697300  0.69302700  0.01778000  1
  P  P3  1  0.70161200  0.29838700  0.98894400  1
  P  P4  1  0.71572800  0.89070600  0.72874300  1
  P  P5  1  0.89932600  0.70711300  0.27784500  1
  O  O0  1  0.35561300  0.01668800  0.50842300  1
  O  O1  1  0.89781500  0.88136600  0.79100400  1
  O  O2  1  0.02532000  0.34695300  0.49814700  1
  O  O3  1  0.71554200  0.72021700  0.23187400  1
  O  O4  1  0.79014000  0.39446000  0.12320200  1
  O  O5  1  0.72873200  0.70696800  0.77469800  1
  O  O6  1  0.89000000  0.88918400  0.21553300  1
  O  O7  1  0.11863300  0.10218600  0.79100400  1
  O  O8  1  0.02018200  0.39245600  0.86543800  1
  O  O9  1  0.11081600  0.11000000  0.21553300  1
  O  O10  1  0.98331200  0.64438700  0.50842300  1
  O  O11  1  0.29303200  0.27126800  0.77469800  1
  O  O12  1  0.21843100  0.59697300  0.88349400  1
  O  O13  1  0.27978200  0.28445800  0.23187400  1
  O  O14  1  0.60754400  0.97981800  0.86543800  1
  O  O15  1  0.19498900  0.80501100  0.12022900  1
  O  O16  1  0.40302600  0.78156900  0.88349400  1
  O  O17  1  0.44596100  0.55403900  0.16877800  1
  O  O18  1  0.98836200  0.59890800  0.14111800  1
  O  O19  1  0.65304700  0.97468000  0.49814700  1
  O  O20  1  0.56260500  0.43739500  0.83798700  1
  O  O21  1  0.60554100  0.20985900  0.12320200  1
  O  O22  1  0.81362300  0.18637700  0.88652600  1
  O  O23  1  0.40109300  0.01163800  0.14111800  1
loop_
_geom_bond_atom_site_label_1
_geom_bond_atom_site_label_2
_geom_bond_distance
_geom_bond_site_symmetry_2
Ni0 O19 2.007535 1_555
Ni0 O21 2.015617 1_565
Ni0 O23 2.047399 1_565
Ni0 O6 2.068719 1_555
Ni0 O14 2.082963 1_554
Ni0 O3 2.095689 1_555
Ni1 O4 2.054277 1_555
Ni1 O16 2.054772 1_554
Ni1 O3 2.065556 1_555
Ni1 O5 2.066124 1_554
Ni1 O20 2.153909 1_554
Ni1 O17 2.154044 1_555
Ni2 O0 2.007569 1_555
Ni2 O16 2.015670 1_545
Ni2 O14 2.047314 1_545
Ni2 O7 2.068833 1_555
Ni2 O23 2.082977 1_556
Ni2 O11 2.096258 1_555
Ni3 O21 2.054287 1_555
Ni3 O12 2.054766 1_554
Ni3 O13 2.065562 1_555
Ni3 O11 2.066125 1_554
Ni3 O20 2.153909 1_554
Ni3 O17 2.154044 1_555
Ni4 O15 1.991497 1_555
Ni4 O22 1.992000 1_464
Ni4 O6 2.089335 1_455
Ni4 O9 2.089335 1_565
Ni4 O7 2.090064 1_564
Ni4 O1 2.090066 1_454
Ni5 O10 2.007569 1_555
Ni5 O12 2.015668 1_655
Ni5 O8 2.047314 1_655
Ni5 O1 2.068824 1_555
Ni5 O18 2.082977 1_556
Ni5 O5 2.096258 1_555
Ni6 O2 2.007537 1_555
Ni6 O4 2.015632 1_455
Ni6 O18 2.047407 1_455
Ni6 O9 2.068719 1_555
Ni6 O8 2.082961 1_554
Ni6 O13 2.095672 1_555
O0 P1 1.523400 1_555
O1 P4 1.575967 1_555
O2 P0 1.523441 1_555
O3 P5 1.575897 1_555
O4 P3 1.573328 1_554
O5 P4 1.575700 1_555
O6 P5 1.575895 1_555
O7 P0 1.575950 1_555
O8 P0 1.547070 1_555
O9 P1 1.575895 1_555
O10 P5 1.523400 1_555
O11 P0 1.575711 1_555
O12 P2 1.573374 1_556
O13 P1 1.575895 1_555
O14 P4 1.547069 1_555
O15 P2 1.509117 1_555
O16 P2 1.573367 1_556
O17 P2 1.566714 1_555
O18 P5 1.547042 1_555
O19 P4 1.523442 1_555
O20 P3 1.566774 1_555
O21 P3 1.573315 1_554
O22 P3 1.509243 1_555
O23 P1 1.547047 1_555
