# generated using pymatgen
data_LiTaTeO6
_symmetry_space_group_name_H-M   'P 1'
_cell_length_a   5.36555525
_cell_length_b   5.36555520
_cell_length_c   5.36555606
_cell_angle_alpha   56.91508664
_cell_angle_beta   56.91508332
_cell_angle_gamma   56.91507436
_symmetry_Int_Tables_number   1
_chemical_formula_structural   LiTaTeO6
_chemical_formula_sum   'Li1 Ta1 Te1 O6'
_cell_volume   101.45408886
_cell_formula_units_Z   1
loop_
 _symmetry_equiv_pos_site_id
 _symmetry_equiv_pos_as_xyz
  1  'x, y, z'
loop_
 _atom_site_type_symbol
 _atom_site_label
 _atom_site_symmetry_multiplicity
 _atom_site_fract_x
 _atom_site_fract_y
 _atom_site_fract_z
 _atom_site_occupancy
  Li  Li0  1  0.21381479  0.21381479  0.21381479  1
  Ta  Ta0  1  0.99907437  0.99907437  0.99907437  1
  Te  Te0  1  0.49989717  0.49989717  0.49989717  1
  O  O0  1  0.35600764  0.15176666  0.75506408  1
  O  O1  1  0.75506408  0.35600764  0.15176666  1
  O  O2  1  0.15176666  0.75506408  0.35600764  1
  O  O3  1  0.25838103  0.62081122  0.86805006  1
  O  O4  1  0.86805006  0.25838103  0.62081122  1
  O  O5  1  0.62081122  0.86805106  0.25838103  1
loop_
_geom_bond_atom_site_label_1
_geom_bond_atom_site_label_2
_geom_bond_distance
_geom_bond_site_symmetry_2
Li0 O5 1.982543 1_545
Li0 O4 1.982545 1_455
Li0 O3 1.982545 1_554
Li0 O1 2.306242 1_455
Li0 O2 2.306242 1_545
Li0 O0 2.306243 1_554
O0 Te0 1.894203 1_555
O0 Ta0 1.964075 1_445
O1 Te0 1.894203 1_555
O1 Ta0 1.964075 1_544
O2 Te0 1.894203 1_555
O2 Ta0 1.964076 1_454
O3 Te0 1.920615 1_555
O3 Ta0 1.989022 1_455
O4 Te0 1.920615 1_555
O4 Ta0 1.989022 1_545
O5 Te0 1.920619 1_555
O5 Ta0 1.989019 1_554
