# generated using pymatgen
data_ScTa8MoN12
_symmetry_space_group_name_H-M   'P 1'
_cell_length_a   5.19630748
_cell_length_b   5.19441306
_cell_length_c   10.43888618
_cell_angle_alpha   90.07655042
_cell_angle_beta   90.02232115
_cell_angle_gamma   120.13730360
_symmetry_Int_Tables_number   1
_chemical_formula_structural   ScTa8MoN12
_chemical_formula_sum   'Sc1 Ta8 Mo1 N12'
_cell_volume   243.67606079
_cell_formula_units_Z   1
loop_
 _symmetry_equiv_pos_site_id
 _symmetry_equiv_pos_as_xyz
  1  'x, y, z'
loop_
 _atom_site_type_symbol
 _atom_site_label
 _atom_site_symmetry_multiplicity
 _atom_site_fract_x
 _atom_site_fract_y
 _atom_site_fract_z
 _atom_site_occupancy
  Sc  Sc0  1  0.66781107  0.33535887  0.99944359  1
  Ta  Ta0  1  0.32128392  0.99877463  0.74946576  1
  Ta  Ta1  1  0.99570849  0.31989852  0.74945561  1
  Ta  Ta2  1  0.32689738  0.32452821  0.25093424  1
  Ta  Ta3  1  0.67905345  0.00406715  0.25116953  1
  Ta  Ta4  1  0.00011204  0.67685848  0.25118282  1
  Ta  Ta5  1  0.33526661  0.66697875  0.00347745  1
  Ta  Ta6  1  0.33774138  0.66348818  0.49790161  1
  Ta  Ta7  1  0.66232451  0.33866618  0.49869370  1
  Mo  Mo0  1  0.67281480  0.67117965  0.74832318  1
  N  N0  1  0.66368649  0.66420206  0.37849760  1
  N  N1  1  0.34287532  0.00127018  0.38060545  1
  N  N2  1  0.00137905  0.34320529  0.38072160  1
  N  N3  1  0.33652420  0.33732079  0.62294625  1
  N  N4  1  0.65312672  0.00045412  0.62178718  1
  N  N5  1  0.00055725  0.65373480  0.62208153  1
  N  N6  1  0.33727859  0.34529908  0.87485593  1
  N  N7  1  0.64911622  0.99260954  0.87370036  1
  N  N8  1  0.01065366  0.65707892  0.87391303  1
  N  N9  1  0.65433798  0.66214364  0.12276585  1
  N  N10  1  0.34249340  0.99315613  0.12398459  1
  N  N11  1  0.00895748  0.34972584  0.12409315  1
loop_
_geom_bond_atom_site_label_1
_geom_bond_atom_site_label_2
_geom_bond_distance
_geom_bond_site_symmetry_2
Mo0 N6 2.166608 1_555
Mo0 N7 2.171764 1_555
Mo0 N3 2.173285 1_555
Mo0 N5 2.191265 1_655
Mo0 N4 2.205061 1_565
Mo0 N8 2.221158 1_655
N0 Ta6 2.101820 1_555
N0 Ta7 2.104136 1_555
N0 Ta4 2.171029 1_655
N0 Ta3 2.180478 1_565
N0 Ta2 2.200075 1_555
N1 Ta7 2.101883 1_555
N1 Ta6 2.130089 1_545
N1 Ta2 2.191954 1_555
N1 Ta4 2.194417 1_545
N1 Ta3 2.203151 1_555
N2 Ta6 2.095724 1_555
N2 Ta7 2.140385 1_455
N2 Ta3 2.183261 1_455
N2 Ta4 2.202285 1_555
N2 Ta2 2.207342 1_555
N3 Ta7 2.130346 1_555
N3 Ta6 2.137651 1_555
N3 Ta0 2.170142 1_545
N3 Ta1 2.174812 1_455
N4 Ta6 2.129272 1_545
N4 Ta7 2.159065 1_555
N4 Ta1 2.173612 1_555
N4 Ta0 2.176377 1_545
N5 Ta7 2.128556 1_455
N5 Ta6 2.160016 1_555
N5 Ta1 2.176683 1_455
N5 Ta0 2.179575 1_555
N6 Ta5 2.146264 1_556
N6 Ta1 2.154959 1_455
N6 Sc0 2.175218 1_555
N6 Ta0 2.191707 1_545
N7 Ta5 2.143338 1_556
N7 Ta0 2.153611 1_555
N7 Sc0 2.173051 1_565
N7 Ta1 2.179261 1_565
N8 Ta0 2.138769 1_555
N8 Ta5 2.141989 1_556
N8 Ta1 2.149138 1_455
N8 Sc0 2.168369 1_455
N9 Ta5 2.083381 1_555
N9 Sc0 2.158027 1_554
N9 Ta3 2.175340 1_565
N9 Ta2 2.184577 1_555
N9 Ta4 2.211586 1_655
N10 Ta5 2.094017 1_555
N10 Sc0 2.167496 1_564
N10 Ta4 2.167997 1_555
N10 Ta3 2.173228 1_565
N10 Ta2 2.204458 1_565
N11 Ta5 2.092238 1_555
N11 Sc0 2.169394 1_454
N11 Ta2 2.171565 1_555
N11 Ta4 2.173044 1_555
N11 Ta3 2.199920 1_455
