# generated using pymatgen
data_Hf9Zr(Sn3As)2
_symmetry_space_group_name_H-M   'P 1'
_cell_length_a   8.56874568
_cell_length_b   8.58047308
_cell_length_c   5.86788667
_cell_angle_alpha   90.00000000
_cell_angle_beta   90.00000000
_cell_angle_gamma   120.04527892
_symmetry_Int_Tables_number   1
_chemical_formula_structural   Hf9Zr(Sn3As)2
_chemical_formula_sum   'Hf9 Zr1 Sn6 As2'
_cell_volume   373.45863290
_cell_formula_units_Z   1
loop_
 _symmetry_equiv_pos_site_id
 _symmetry_equiv_pos_as_xyz
  1  'x, y, z'
loop_
 _atom_site_type_symbol
 _atom_site_label
 _atom_site_symmetry_multiplicity
 _atom_site_fract_x
 _atom_site_fract_y
 _atom_site_fract_z
 _atom_site_occupancy
  Hf  Hf0  1  0.66639834  0.33272748  0.99978057  1
  Hf  Hf1  1  0.33360166  0.66633214  0.99978057  1
  Hf  Hf2  1  0.33360166  0.66633214  0.50021943  1
  Hf  Hf3  1  0.66639834  0.33272748  0.50021943  1
  Hf  Hf4  1  0.73681819  0.73736886  0.75000000  1
  Hf  Hf5  1  0.26318181  0.00055067  0.75000000  1
  Hf  Hf6  1  0.00000000  0.26428587  0.75000000  1
  Hf  Hf7  1  0.26228802  0.26144373  0.25000000  1
  Hf  Hf8  1  0.73771198  0.99915571  0.25000000  1
  Zr  Zr0  1  1.00000000  0.73785066  0.25000000  1
  Sn  Sn0  1  0.39573914  0.39555089  0.75000000  1
  Sn  Sn1  1  0.60426086  0.99981275  0.75000000  1
  Sn  Sn2  1  0.00000000  0.60487942  0.75000000  1
  Sn  Sn3  1  0.60308001  0.60329530  0.25000000  1
  Sn  Sn4  1  0.39691999  0.00021528  0.25000000  1
  Sn  Sn5  1  1.00000000  0.39448758  0.25000000  1
  As  As0  1  1.00000000  0.00149303  0.99804123  1
  As  As1  1  1.00000000  0.00149303  0.50195877  1
loop_
_geom_bond_atom_site_label_1
_geom_bond_atom_site_label_2
_geom_bond_distance
_geom_bond_site_symmetry_2
Hf0 Sn4 3.005133 1_556
Hf0 Sn1 3.011421 1_545
Hf0 Sn0 3.011550 1_555
Hf0 Sn2 3.014673 1_655
Hf0 Sn5 3.015129 1_556
Hf0 Sn3 3.016838 1_556
Hf1 Sn3 3.005147 1_556
Hf1 Sn0 3.011451 1_555
Hf1 Sn1 3.011541 1_555
Hf1 Sn2 3.014665 1_555
Hf1 Sn5 3.015137 1_456
Hf1 Sn4 3.016816 1_566
Hf2 Sn3 3.005147 1_555
Hf2 Sn0 3.011451 1_555
Hf2 Sn1 3.011541 1_555
Hf2 Sn2 3.014665 1_555
Hf2 Sn5 3.015137 1_455
Hf2 Sn4 3.016816 1_565
Hf3 Sn4 3.005133 1_555
Hf3 Sn1 3.011421 1_545
Hf3 Sn0 3.011550 1_555
Hf3 Sn2 3.014673 1_655
Hf3 Sn5 3.015129 1_555
Hf3 Sn3 3.016838 1_555
Hf4 Sn0 2.925800 1_555
Hf4 Sn1 2.987054 1_555
Hf4 Sn2 2.990855 1_655
Hf4 Sn3 3.150330 1_556
Hf4 Sn3 3.150330 1_555
Hf5 Sn1 2.925795 1_545
Hf5 Sn0 2.987046 1_555
Hf5 Sn2 2.990855 1_545
Hf5 Sn4 3.150330 1_556
Hf5 Sn4 3.150330 1_555
Hf6 Sn2 2.922454 1_555
Hf6 Sn1 2.990456 1_445
Hf6 Sn0 2.990458 1_555
Hf6 Sn5 3.139449 1_455
Hf6 Sn5 3.139449 1_456
Hf7 Sn3 2.924723 1_555
Hf7 Sn5 2.987232 1_455
Hf7 Sn4 2.990713 1_555
Hf7 Sn0 3.149939 1_554
Hf7 Sn0 3.149939 1_555
Hf8 Sn4 2.924723 1_565
Hf8 Sn5 2.987232 1_565
Hf8 Sn3 2.990714 1_555
Hf8 Sn1 3.149940 1_555
Hf8 Sn1 3.149940 1_554
Sn2 Zr0 3.147984 1_455
Sn2 Zr0 3.147984 1_456
Sn3 Zr0 2.994727 1_555
Sn4 Zr0 2.994727 1_445
Sn5 Zr0 2.946218 1_555
As0 Hf8 2.681845 1_546
As0 Hf7 2.681845 1_656
As0 Hf6 2.683828 1_655
As0 Hf5 2.687450 1_655
As0 Hf4 2.687450 1_545
As0 Zr0 2.702462 1_546
As1 Hf8 2.681845 1_545
As1 Hf7 2.681845 1_655
As1 Hf6 2.683828 1_655
As1 Hf5 2.687450 1_655
As1 Hf4 2.687450 1_545
As1 Zr0 2.702462 1_545
