# generated using pymatgen
data_ZrPt3(SeO3)8
_symmetry_space_group_name_H-M   'P 1'
_cell_length_a   8.08233406
_cell_length_b   8.08233330
_cell_length_c   8.08233284
_cell_angle_alpha   89.00105602
_cell_angle_beta   90.99894324
_cell_angle_gamma   90.99894095
_symmetry_Int_Tables_number   1
_chemical_formula_structural   ZrPt3(SeO3)8
_chemical_formula_sum   'Zr1 Pt3 Se8 O24'
_cell_volume   527.73329619
_cell_formula_units_Z   1
loop_
 _symmetry_equiv_pos_site_id
 _symmetry_equiv_pos_as_xyz
  1  'x, y, z'
loop_
 _atom_site_type_symbol
 _atom_site_label
 _atom_site_symmetry_multiplicity
 _atom_site_fract_x
 _atom_site_fract_y
 _atom_site_fract_z
 _atom_site_occupancy
  Zr  Zr0  1  0.50000000  0.50000000  0.00000000  1
  Pt  Pt0  1  0.50000000  0.00000000  0.50000000  1
  Pt  Pt1  1  0.00000000  0.00000000  0.00000000  1
  Pt  Pt2  1  0.00000000  0.50000000  0.50000000  1
  Se  Se0  1  0.82800697  0.17199303  0.67199303  1
  Se  Se1  1  0.17199303  0.82800697  0.32800697  1
  Se  Se2  1  0.68808754  0.67664909  0.63833344  1
  Se  Se3  1  0.13833344  0.68808754  0.82335091  1
  Se  Se4  1  0.32335091  0.13833344  0.81191246  1
  Se  Se5  1  0.86166656  0.31191246  0.17664909  1
  Se  Se6  1  0.67664909  0.86166656  0.18808754  1
  Se  Se7  1  0.31191246  0.32335091  0.36166656  1
  O  O0  1  0.24655234  0.47640260  0.49326523  1
  O  O1  1  0.99326523  0.24655234  0.02359740  1
  O  O2  1  0.01419036  0.74322896  0.44628382  1
  O  O3  1  0.44284127  0.25733592  0.93696941  1
  O  O4  1  0.25677104  0.94628382  0.48580964  1
  O  O5  1  0.56303059  0.55715873  0.75733592  1
  O  O6  1  0.94628382  0.01419036  0.75677104  1
  O  O7  1  0.55715873  0.74266408  0.06303059  1
  O  O8  1  0.52359740  0.99326523  0.25344766  1
  O  O9  1  0.47640260  0.00673477  0.74655234  1
  O  O10  1  0.75569958  0.00119526  0.04188617  1
  O  O11  1  0.25733592  0.56303059  0.94284127  1
  O  O12  1  0.99880474  0.54188617  0.74430042  1
  O  O13  1  0.05371618  0.98580964  0.24322896  1
  O  O14  1  0.24430042  0.99880474  0.95811383  1
  O  O15  1  0.43696941  0.44284127  0.24266408  1
  O  O16  1  0.75344766  0.52359740  0.50673477  1
  O  O17  1  0.00119526  0.45811383  0.25569958  1
  O  O18  1  0.00673477  0.75344766  0.97640260  1
  O  O19  1  0.45811383  0.24430042  0.50119526  1
  O  O20  1  0.54188617  0.75569958  0.49880474  1
  O  O21  1  0.98580964  0.25677104  0.55371618  1
  O  O22  1  0.74322896  0.05371618  0.51419036  1
  O  O23  1  0.74266408  0.43696941  0.05715873  1
loop_
_geom_bond_atom_site_label_1
_geom_bond_atom_site_label_2
_geom_bond_distance
_geom_bond_site_symmetry_2
O0 Se7 1.740349 1_555
O0 Pt2 2.006903 1_555
O1 Se5 1.740349 1_555
O1 Pt1 2.006903 1_655
O2 Se1 1.731829 1_555
O2 Pt2 2.007574 1_555
O3 Se4 1.687270 1_555
O3 Zr0 2.077174 1_556
O4 Se1 1.731829 1_555
O4 Pt0 2.007574 1_565
O5 Se2 1.687270 1_555
O5 Zr0 2.077174 1_556
O6 Se0 1.731829 1_555
O6 Pt1 2.007574 1_656
O7 Se6 1.687270 1_555
O7 Zr0 2.077174 1_555
O8 Se6 1.740349 1_555
O8 Pt0 2.006903 1_565
O9 Se4 1.740349 1_555
O9 Pt0 2.006903 1_555
O10 Se6 1.740973 1_545
O10 Pt1 2.009355 1_655
O11 Se3 1.687270 1_555
O11 Zr0 2.077174 1_556
O12 Se3 1.740973 1_655
O12 Pt2 2.009355 1_655
O13 Se1 1.731829 1_555
O13 Pt1 2.007574 1_565
O14 Se4 1.740973 1_565
O14 Pt1 2.009355 1_566
O15 Se7 1.687270 1_555
O15 Zr0 2.077174 1_555
O16 Se2 1.740349 1_555
O16 Pt2 2.006903 1_655
O17 Se5 1.740973 1_455
O17 Pt2 2.009355 1_555
O18 Se3 1.740349 1_555
O18 Pt1 2.006903 1_566
O19 Se7 1.740973 1_555
O19 Pt0 2.009355 1_555
O20 Se2 1.740973 1_555
O20 Pt0 2.009355 1_565
O21 Se0 1.731829 1_555
O21 Pt2 2.007574 1_655
O22 Se0 1.731829 1_555
O22 Pt0 2.007574 1_555
O23 Se5 1.687270 1_555
O23 Zr0 2.077174 1_555
