# generated using pymatgen
data_BaCa3Sb2
_symmetry_space_group_name_H-M   'P 1'
_cell_length_a   4.92229003
_cell_length_b   4.92229549
_cell_length_c   9.38430040
_cell_angle_alpha   105.19127141
_cell_angle_beta   105.19111295
_cell_angle_gamma   89.97777869
_symmetry_Int_Tables_number   1
_chemical_formula_structural   BaCa3Sb2
_chemical_formula_sum   'Ba1 Ca3 Sb2'
_cell_volume   211.18948860
_cell_formula_units_Z   1
loop_
 _symmetry_equiv_pos_site_id
 _symmetry_equiv_pos_as_xyz
  1  'x, y, z'
loop_
 _atom_site_type_symbol
 _atom_site_label
 _atom_site_symmetry_multiplicity
 _atom_site_fract_x
 _atom_site_fract_y
 _atom_site_fract_z
 _atom_site_occupancy
  Ba  Ba0  1  0.67631501  0.67631701  0.35352362  1
  Ca  Ca0  1  0.49672965  0.99669710  0.99328248  1
  Ca  Ca1  1  0.99669810  0.49672865  0.99328348  1
  Ca  Ca2  1  0.32919880  0.32919580  0.65837273  1
  Sb  Sb0  1  0.12911679  0.12911679  0.25894738  1
  Sb  Sb1  1  0.87193865  0.87194065  0.74258931  1
loop_
_geom_bond_atom_site_label_1
_geom_bond_atom_site_label_2
_geom_bond_distance
_geom_bond_site_symmetry_2
Ba0 Sb1 3.391267 1_555
Ba0 Sb0 3.576216 1_565
Ba0 Sb0 3.576227 1_655
Ba0 Sb0 3.577327 1_555
Ba0 Sb0 3.577743 1_665
Ca0 Sb1 3.289739 1_455
Ca0 Sb1 3.292690 1_555
Ca0 Sb0 3.378258 1_666
Ca0 Sb0 3.380275 1_566
Ca1 Sb1 3.289730 1_545
Ca1 Sb1 3.292715 1_555
Ca1 Sb0 3.378255 1_666
Ca1 Sb0 3.380270 1_656
Ca2 Sb0 3.481556 1_555
Ca2 Sb1 3.553140 1_445
Ca2 Sb1 3.556480 1_545
Ca2 Sb1 3.556511 1_455
Ca2 Sb1 3.562486 1_555
