# generated using pymatgen
data_Cs2Na2TiSe4
_symmetry_space_group_name_H-M   'P 1'
_cell_length_a   6.73962356
_cell_length_b   6.73962356
_cell_length_c   14.27142311
_cell_angle_alpha   90.00000000
_cell_angle_beta   90.00000000
_cell_angle_gamma   90.00000000
_symmetry_Int_Tables_number   1
_chemical_formula_structural   Cs2Na2TiSe4
_chemical_formula_sum   'Cs4 Na4 Ti2 Se8'
_cell_volume   648.24408390
_cell_formula_units_Z   2
loop_
 _symmetry_equiv_pos_site_id
 _symmetry_equiv_pos_as_xyz
  1  'x, y, z'
loop_
 _atom_site_type_symbol
 _atom_site_label
 _atom_site_symmetry_multiplicity
 _atom_site_fract_x
 _atom_site_fract_y
 _atom_site_fract_z
 _atom_site_occupancy
  Cs  Cs0  1  0.25794236  0.25794236  0.00000000  1
  Cs  Cs1  1  0.74205764  0.74205764  0.00000000  1
  Cs  Cs2  1  0.74205764  0.25794236  0.50000000  1
  Cs  Cs3  1  0.25794236  0.74205764  0.50000000  1
  Na  Na0  1  0.00000000  0.50000000  0.25000000  1
  Na  Na1  1  0.00000000  0.50000000  0.75000000  1
  Na  Na2  1  0.50000000  0.00000000  0.75000000  1
  Na  Na3  1  0.50000000  0.00000000  0.25000000  1
  Ti  Ti0  1  0.00000000  0.00000000  0.25000000  1
  Ti  Ti1  1  0.00000000  0.00000000  0.75000000  1
  Se  Se0  1  0.20239906  0.20239906  0.35070932  1
  Se  Se1  1  0.79760094  0.79760094  0.64929068  1
  Se  Se2  1  0.79760094  0.79760094  0.35070932  1
  Se  Se3  1  0.79760094  0.20239906  0.85070932  1
  Se  Se4  1  0.79760094  0.20239906  0.14929068  1
  Se  Se5  1  0.20239906  0.20239906  0.64929068  1
  Se  Se6  1  0.20239906  0.79760094  0.14929068  1
  Se  Se7  1  0.20239906  0.79760094  0.85070932  1
loop_
_geom_bond_atom_site_label_1
_geom_bond_atom_site_label_2
_geom_bond_distance
_geom_bond_site_symmetry_2
Cs0 Se4 3.782225 1_455
Cs0 Se6 3.782225 1_545
Cs0 Se3 3.782225 1_454
Cs0 Se7 3.782225 1_544
Cs0 Se4 4.231786 1_555
Cs0 Se6 4.231786 1_555
Cs0 Se3 4.231786 1_554
Cs0 Se7 4.231786 1_554
Cs1 Se4 3.782225 1_565
Cs1 Se6 3.782225 1_655
Cs1 Se3 3.782225 1_564
Cs1 Se7 3.782225 1_654
Cs1 Se6 4.231786 1_555
Cs1 Se4 4.231786 1_555
Cs1 Se3 4.231786 1_554
Cs1 Se7 4.231786 1_554
Cs2 Se1 3.782225 1_545
Cs2 Se5 3.782225 1_655
Cs2 Se2 3.782225 1_545
Cs2 Se0 3.782225 1_655
Cs2 Se5 4.231786 1_555
Cs2 Se1 4.231786 1_555
Cs2 Se0 4.231786 1_555
Cs2 Se2 4.231786 1_555
Cs3 Se1 3.782225 1_455
Cs3 Se5 3.782225 1_565
Cs3 Se2 3.782225 1_455
Cs3 Se0 3.782225 1_565
Cs3 Se5 4.231786 1_555
Cs3 Se1 4.231786 1_555
Cs3 Se0 4.231786 1_555
Cs3 Se2 4.231786 1_555
Na0 Se0 2.819466 1_555
Na0 Se2 2.819466 1_455
Na0 Se6 2.819466 1_555
Na0 Se4 2.819466 1_455
Na1 Se3 2.819466 1_455
Na1 Se7 2.819466 1_555
Na1 Se1 2.819466 1_455
Na1 Se5 2.819466 1_555
Na2 Se7 2.819466 1_545
Na2 Se3 2.819466 1_555
Na2 Se5 2.819466 1_555
Na2 Se1 2.819466 1_545
Na3 Se2 2.819466 1_545
Na3 Se0 2.819466 1_555
Na3 Se4 2.819466 1_555
Na3 Se6 2.819466 1_545
Se0 Ti0 2.405667 1_555
Se1 Ti1 2.405667 1_665
Se2 Ti0 2.405667 1_665
Se3 Ti1 2.405667 1_655
Se4 Ti0 2.405667 1_655
Se5 Ti1 2.405667 1_555
Se6 Ti0 2.405667 1_565
Se7 Ti1 2.405667 1_565
