# generated using pymatgen
data_HfMnBr18
_symmetry_space_group_name_H-M   'P 1'
_cell_length_a   9.11040099
_cell_length_b   9.11039889
_cell_length_c   9.11040077
_cell_angle_alpha   88.42649595
_cell_angle_beta   88.42649732
_cell_angle_gamma   88.42649375
_symmetry_Int_Tables_number   1
_chemical_formula_structural   HfMnBr18
_chemical_formula_sum   'Hf1 Mn1 Br18'
_cell_volume   755.31763460
_cell_formula_units_Z   1
loop_
 _symmetry_equiv_pos_site_id
 _symmetry_equiv_pos_as_xyz
  1  'x, y, z'
loop_
 _atom_site_type_symbol
 _atom_site_label
 _atom_site_symmetry_multiplicity
 _atom_site_fract_x
 _atom_site_fract_y
 _atom_site_fract_z
 _atom_site_occupancy
  Hf  Hf0  1  0.50000000  0.50000000  0.50000000  1
  Mn  Mn0  1  0.00000000  0.00000000  0.00000000  1
  Br  Br0  1  0.29207220  0.97925587  0.02955945  1
  Br  Br1  1  0.02955945  0.29207220  0.97925587  1
  Br  Br2  1  0.97925587  0.02955945  0.29207220  1
  Br  Br3  1  0.70792780  0.02074413  0.97044055  1
  Br  Br4  1  0.97044055  0.70792780  0.02074413  1
  Br  Br5  1  0.02074413  0.97044055  0.70792780  1
  Br  Br6  1  0.62493602  0.24106476  0.09802838  1
  Br  Br7  1  0.09802838  0.62493602  0.24106476  1
  Br  Br8  1  0.24106476  0.09802838  0.62493602  1
  Br  Br9  1  0.37506398  0.75893524  0.90197162  1
  Br  Br10  1  0.90197162  0.37506398  0.75893524  1
  Br  Br11  1  0.75893524  0.90197162  0.37506398  1
  Br  Br12  1  0.49620694  0.21413209  0.52281671  1
  Br  Br13  1  0.52281671  0.49620694  0.21413209  1
  Br  Br14  1  0.21413209  0.52281671  0.49620694  1
  Br  Br15  1  0.50379306  0.78586791  0.47718329  1
  Br  Br16  1  0.47718329  0.50379306  0.78586791  1
  Br  Br17  1  0.78586791  0.47718329  0.50379306  1
loop_
_geom_bond_atom_site_label_1
_geom_bond_atom_site_label_2
_geom_bond_distance
_geom_bond_site_symmetry_2
Br0 Br9 2.438892 1_554
Br0 Mn0 2.682823 1_565
Br1 Br10 2.438893 1_455
Br1 Mn0 2.682823 1_556
Br2 Mn0 2.682823 1_655
Br3 Br6 2.438892 1_556
Br3 Mn0 2.682823 1_656
Br4 Br7 2.438893 1_655
Br4 Mn0 2.682823 1_665
Br5 Br8 2.438893 1_565
Br5 Mn0 2.682823 1_566
Br10 Br17 2.711026 1_555
Br11 Br2 2.438893 1_565
Br11 Br15 2.711026 1_555
Br12 Hf0 2.608058 1_555
Br12 Br8 2.711026 1_555
Br13 Hf0 2.608059 1_555
Br13 Br6 2.711025 1_555
Br14 Hf0 2.608059 1_555
Br14 Br7 2.711026 1_555
Br15 Hf0 2.608058 1_555
Br16 Hf0 2.608059 1_555
Br16 Br9 2.711025 1_555
Br17 Hf0 2.608059 1_555
