# generated using pymatgen
data_Ta10CuSi4Ge
_symmetry_space_group_name_H-M   'P 1'
_cell_length_a   7.55092644
_cell_length_b   7.54830804
_cell_length_c   7.54407885
_cell_angle_alpha   128.65851898
_cell_angle_beta   128.66808234
_cell_angle_gamma   75.60723159
_symmetry_Int_Tables_number   1
_chemical_formula_structural   Ta10CuSi4Ge
_chemical_formula_sum   'Ta10 Cu1 Si4 Ge1'
_cell_volume   254.97981361
_cell_formula_units_Z   1
loop_
 _symmetry_equiv_pos_site_id
 _symmetry_equiv_pos_as_xyz
  1  'x, y, z'
loop_
 _atom_site_type_symbol
 _atom_site_label
 _atom_site_symmetry_multiplicity
 _atom_site_fract_x
 _atom_site_fract_y
 _atom_site_fract_z
 _atom_site_occupancy
  Ta  Ta0  1  0.01218190  0.18076365  0.49303931  1
  Ta  Ta1  1  0.52095814  0.01591870  0.83225592  1
  Ta  Ta2  1  0.18209470  0.68795750  0.16896789  1
  Ta  Ta3  1  0.48687319  0.98101040  0.16896789  1
  Ta  Ta4  1  0.68704259  0.51797780  0.50512926  1
  Ta  Ta5  1  0.98085641  0.81227566  0.49303931  1
  Ta  Ta6  1  0.31808767  0.48715245  0.50512926  1
  Ta  Ta7  1  0.81129778  0.31633622  0.83225592  1
  Ta  Ta8  1  0.50070419  0.49972956  0.99938842  1
  Ta  Ta9  1  0.99868423  0.99965886  0.99938842  1
  Cu  Cu0  1  0.12776417  0.62776317  0.75552734  1
  Si  Si0  1  0.62929125  0.86845240  0.49792045  1
  Si  Si1  1  0.36862719  0.12946904  0.49792045  1
  Si  Si2  1  0.87690225  0.37690225  0.25380550  1
  Si  Si3  1  0.74926451  0.74926451  0.99852902  1
  Ge  Ge0  1  0.24936882  0.24936782  0.99873664  1
loop_
_geom_bond_atom_site_label_1
_geom_bond_atom_site_label_2
_geom_bond_distance
_geom_bond_site_symmetry_2
Cu0 Si2 2.317224 1_455
Cu0 Ta8 2.577417 1_555
Cu0 Ta9 2.577426 1_455
Cu0 Ta3 2.612702 1_556
Cu0 Ta2 2.612705 1_556
Cu0 Ta4 2.624768 1_455
Cu0 Ta6 2.624772 1_555
Cu0 Ta0 2.650329 1_555
Cu0 Ta5 2.650335 1_455
Si0 Si1 2.414125 1_565
Si0 Ta8 2.556639 1_554
Si0 Ta9 2.564961 1_555
Si0 Ta4 2.601603 1_555
Si0 Ta5 2.602177 1_555
Si0 Ta3 2.623353 1_555
Si0 Ta1 2.624478 1_565
Si0 Ta7 2.646663 1_565
Si0 Ta2 2.647362 1_555
Si1 Ta9 2.556633 1_444
Si1 Ta8 2.564955 1_555
Si1 Ta6 2.601605 1_555
Si1 Ta0 2.602171 1_555
Si1 Ta2 2.623353 1_545
Si1 Ta7 2.624485 1_555
Si1 Ta1 2.646674 1_555
Si1 Ta3 2.647374 1_545
Si2 Ta9 2.591049 1_544
Si2 Ta8 2.591049 1_554
Si2 Ta0 2.602956 1_655
Si2 Ta5 2.602961 1_555
Si2 Ta1 2.625943 1_554
Si2 Ta7 2.625950 1_554
Si2 Ta4 2.626649 1_555
Si2 Ta6 2.626664 1_655
Si3 Ta6 2.688370 1_555
Si3 Ta4 2.688378 1_555
Si3 Ta0 2.691868 1_666
Si3 Ta5 2.691872 1_556
Si3 Ta2 2.699853 1_656
Si3 Ta3 2.699854 1_556
Si3 Ta1 2.706256 1_565
Si3 Ta7 2.706261 1_555
Si3 Ta9 2.976307 1_555
Si3 Ta8 2.976307 1_555
Ge0 Ta5 2.735842 1_445
Ge0 Ta0 2.735846 1_555
Ge0 Ta6 2.739424 1_556
Ge0 Ta4 2.739425 1_556
Ge0 Ta3 2.744960 1_546
Ge0 Ta2 2.744967 1_556
Ge0 Ta1 2.746844 1_555
Ge0 Ta7 2.746850 1_455
Ge0 Ta8 2.988780 1_555
Ge0 Ta9 2.988780 1_445
