# generated using pymatgen
data_Sr6Sc2(TeO6)3
_symmetry_space_group_name_H-M   'P 1'
_cell_length_a   9.85945352
_cell_length_b   9.85945353
_cell_length_c   9.85945270
_cell_angle_alpha   146.55953124
_cell_angle_beta   131.87185769
_cell_angle_gamma   59.87250949
_symmetry_Int_Tables_number   1
_chemical_formula_structural   Sr6Sc2(TeO6)3
_chemical_formula_sum   'Sr6 Sc2 Te3 O18'
_cell_volume   389.73388892
_cell_formula_units_Z   1
loop_
 _symmetry_equiv_pos_site_id
 _symmetry_equiv_pos_as_xyz
  1  'x, y, z'
loop_
 _atom_site_type_symbol
 _atom_site_label
 _atom_site_symmetry_multiplicity
 _atom_site_fract_x
 _atom_site_fract_y
 _atom_site_fract_z
 _atom_site_occupancy
  Sr  Sr0  1  0.77942168  0.50000000  0.27942168  1
  Sr  Sr1  1  0.38627652  0.15325140  0.23302512  1
  Sr  Sr2  1  0.07977372  0.84674860  0.23302512  1
  Sr  Sr3  1  0.22057832  0.50000000  0.72057832  1
  Sr  Sr4  1  0.92022628  0.15325140  0.76697488  1
  Sr  Sr5  1  0.61372348  0.84674860  0.76697488  1
  Sc  Sc0  1  0.66595020  0.66595020  1.00000000  1
  Sc  Sc1  1  0.33404980  0.33404980  0.00000000  1
  Te  Te0  1  0.50000000  0.00000000  0.50000000  1
  Te  Te1  1  0.17058417  0.67058417  0.50000000  1
  Te  Te2  1  0.82941583  0.32941583  0.50000000  1
  O  O0  1  0.73240495  0.00000000  0.73240495  1
  O  O1  1  0.41113074  0.66980755  0.74132218  1
  O  O2  1  0.07151563  0.33019245  0.74132218  1
  O  O3  1  0.58078061  0.83991722  0.25913560  1
  O  O4  1  0.24924236  0.51003111  0.26078975  1
  O  O5  1  0.90761434  0.17275285  0.26513651  1
  O  O6  1  0.41921939  0.67835499  0.25913560  1
  O  O7  1  0.09238566  0.35752218  0.26513651  1
  O  O8  1  0.75075764  0.01154738  0.26078975  1
  O  O9  1  0.26759505  1.00000000  0.26759505  1
  O  O10  1  0.92848437  0.66980755  0.25867782  1
  O  O11  1  0.58886926  0.33019245  0.25867782  1
  O  O12  1  0.41921939  0.16008278  0.74086440  1
  O  O13  1  0.09238566  0.82724715  0.73486349  1
  O  O14  1  0.75075764  0.48996889  0.73921025  1
  O  O15  1  0.58078061  0.32164501  0.74086440  1
  O  O16  1  0.24924236  0.98845262  0.73921025  1
  O  O17  1  0.90761434  0.64247882  0.73486349  1
loop_
_geom_bond_atom_site_label_1
_geom_bond_atom_site_label_2
_geom_bond_distance
_geom_bond_site_symmetry_2
O0 Te0 1.868662 1_555
O0 Sr5 2.633475 1_545
O0 Sr4 2.633475 1_555
O0 Sr0 2.861633 1_545
O0 Sr0 2.861633 1_556
O1 Te1 1.940410 1_555
O1 Sc0 2.080950 1_555
O1 Sr1 2.851405 1_555
O1 Sr1 2.851410 1_566
O1 Sr3 2.906476 1_555
O1 Sr5 3.030593 1_555
O2 Te2 1.940410 1_455
O2 Sc1 2.080950 1_556
O2 Sr2 2.851403 1_545
O2 Sr2 2.851409 1_556
O2 Sr3 2.906459 1_555
O2 Sr4 3.030610 1_455
O3 Te0 1.942332 1_565
O3 Sc0 2.068652 1_554
O3 Sr1 2.829968 1_565
O3 Sr4 2.829974 1_565
O3 Sr3 3.018997 1_554
O3 Sr0 3.019002 1_555
O4 Te1 1.910040 1_555
O4 Sc1 2.071004 1_555
O4 Sr1 2.896543 1_555
O4 Sr4 2.896549 1_454
O4 Sr5 3.037404 1_555
O4 Sr2 3.037409 1_555
O5 Te2 1.887040 1_555
O5 Sr5 2.618167 1_544
O5 Sr2 2.618178 1_645
O5 Sr0 2.722685 1_555
O5 Sr3 2.722696 1_655
O6 Te0 1.942328 1_565
O6 Sc1 2.068656 1_555
O6 Sr5 2.829976 1_555
O6 Sr2 2.829976 1_555
O6 Sr3 3.018994 1_554
O6 Sr0 3.018994 1_555
O7 Te1 1.887032 1_555
O7 Sr4 2.618162 1_454
O7 Sr1 2.618162 1_555
O7 Sr3 2.722703 1_555
O7 Sr0 2.722703 1_455
O8 Te2 1.910044 1_555
O8 Sc0 2.071000 1_544
O8 Sr5 2.896552 1_544
O8 Sr2 2.896552 1_645
O8 Sr4 3.037400 1_555
O8 Sr1 3.037401 1_555
O9 Te0 1.868662 1_565
O9 Sr1 2.633475 1_565
O9 Sr2 2.633475 1_555
O9 Sr3 2.861633 1_565
O9 Sr3 2.861633 1_554
O10 Te1 1.940410 1_655
O10 Sc0 2.080950 1_554
O10 Sr4 2.851403 1_565
O10 Sr4 2.851409 1_554
O10 Sr0 2.906459 1_555
O10 Sr2 3.030610 1_655
O11 Te2 1.940410 1_555
O11 Sc1 2.080950 1_555
O11 Sr5 2.851405 1_555
O11 Sr5 2.851410 1_544
O11 Sr0 2.906476 1_555
O11 Sr1 3.030593 1_555
O12 Te0 1.942332 1_555
O12 Sc1 2.068652 1_556
O12 Sr5 2.829968 1_545
O12 Sr2 2.829974 1_545
O12 Sr0 3.018997 1_556
O12 Sr3 3.019002 1_555
O13 Te1 1.887040 1_555
O13 Sr1 2.618167 1_566
O13 Sr4 2.618178 1_465
O13 Sr3 2.722685 1_555
O13 Sr0 2.722696 1_455
O14 Te2 1.910040 1_555
O14 Sc0 2.071004 1_555
O14 Sr5 2.896543 1_555
O14 Sr2 2.896549 1_656
O14 Sr1 3.037404 1_555
O14 Sr4 3.037409 1_555
O15 Te0 1.942328 1_555
O15 Sc0 2.068656 1_555
O15 Sr1 2.829976 1_555
O15 Sr4 2.829976 1_555
O15 Sr0 3.018994 1_556
O15 Sr3 3.018994 1_555
O16 Te1 1.910044 1_555
O16 Sc1 2.071000 1_566
O16 Sr1 2.896552 1_566
O16 Sr4 2.896552 1_465
O16 Sr2 3.037400 1_555
O16 Sr5 3.037401 1_555
O17 Te2 1.887040 1_555
O17 Sr5 2.618161 1_555
O17 Sr2 2.618167 1_656
O17 Sr0 2.722696 1_555
O17 Sr3 2.722702 1_655
