# generated using pymatgen
data_Ca8ZrSnN8
_symmetry_space_group_name_H-M   'P 1'
_cell_length_a   6.11703759
_cell_length_b   6.11183881
_cell_length_c   9.24756339
_cell_angle_alpha   85.04418981
_cell_angle_beta   108.82540660
_cell_angle_gamma   111.42842336
_symmetry_Int_Tables_number   1
_chemical_formula_structural   Ca8ZrSnN8
_chemical_formula_sum   'Ca8 Zr1 Sn1 N8'
_cell_volume   304.42289247
_cell_formula_units_Z   1
loop_
 _symmetry_equiv_pos_site_id
 _symmetry_equiv_pos_as_xyz
  1  'x, y, z'
loop_
 _atom_site_type_symbol
 _atom_site_label
 _atom_site_symmetry_multiplicity
 _atom_site_fract_x
 _atom_site_fract_y
 _atom_site_fract_z
 _atom_site_occupancy
  Ca  Ca0  1  0.81484248  0.26995537  0.19519914  1
  Ca  Ca1  1  0.18760645  0.73068804  0.80653504  1
  Ca  Ca2  1  0.23975304  0.24324120  0.99246168  1
  Ca  Ca3  1  0.76111084  0.75057295  0.00478532  1
  Ca  Ca4  1  0.05375837  0.26317649  0.57675400  1
  Ca  Ca5  1  0.95165251  0.73797781  0.42715879  1
  Ca  Ca6  1  0.54278367  0.75257225  0.59887896  1
  Ca  Ca7  1  0.46566797  0.24871074  0.40907798  1
  Zr  Zr0  1  0.39464369  0.71973437  0.23655461  1
  Sn  Sn0  1  0.60460540  0.28074206  0.76324722  1
  N  N0  1  0.30580119  0.01048657  0.61220861  1
  N  N1  1  0.68595847  0.98773213  0.38502332  1
  N  N2  1  0.80702559  0.15032200  0.94871071  1
  N  N3  1  0.18986933  0.84402206  0.04702410  1
  N  N4  1  0.41559055  0.49104683  0.80059792  1
  N  N5  1  0.57795433  0.51121612  0.19640445  1
  N  N6  1  0.19859111  0.51190962  0.38011805  1
  N  N7  1  0.80278502  0.49589437  0.61926109  1
loop_
_geom_bond_atom_site_label_1
_geom_bond_atom_site_label_2
_geom_bond_distance
_geom_bond_site_symmetry_2
Ca0 N5 2.418402 1_555
Ca0 N2 2.434076 1_554
Ca0 N6 2.435417 1_655
Ca0 N1 2.460626 1_545
Ca1 N4 2.376733 1_555
Ca1 N3 2.380163 1_556
Ca1 N7 2.435133 1_455
Ca1 N0 2.465896 1_565
Ca2 N3 2.375661 1_546
Ca2 N2 2.396459 1_455
Ca2 N5 2.461531 1_556
Ca2 N4 2.485128 1_555
Ca3 N3 2.374946 1_655
Ca3 N2 2.385524 1_564
Ca3 N4 2.457808 1_554
Ca3 N5 2.484183 1_555
Ca4 N6 2.445514 1_555
Ca4 N0 2.489130 1_555
Ca4 N1 2.492661 1_445
Ca4 N4 2.532263 1_555
Ca4 N7 2.572157 1_455
Ca5 N7 2.404097 1_555
Ca5 N0 2.420538 1_665
Ca5 N1 2.534687 1_555
Ca5 N6 2.536322 1_655
Ca5 N5 2.597661 1_555
Ca6 N4 2.480487 1_555
Ca6 N6 2.488254 1_555
Ca6 N0 2.533773 1_565
Ca6 N1 2.539840 1_555
Ca6 N7 2.569939 1_555
Ca7 N7 2.440691 1_555
Ca7 N1 2.496954 1_545
Ca7 N0 2.505486 1_555
Ca7 N5 2.536777 1_555
Ca7 N6 2.625244 1_555
N0 Sn0 2.136599 1_555
N1 Zr0 2.102449 1_555
N2 Sn0 2.055358 1_555
N3 Zr0 2.065515 1_555
N4 Sn0 2.128045 1_555
N5 Zr0 2.100951 1_555
N6 Zr0 2.106492 1_555
N7 Sn0 2.132172 1_555
