# generated using pymatgen
data_Sr4Ga2Ir3Pt
_symmetry_space_group_name_H-M   'P 1'
_cell_length_a   5.88122101
_cell_length_b   5.88835497
_cell_length_c   7.78706357
_cell_angle_alpha   99.70940324
_cell_angle_beta   99.88859474
_cell_angle_gamma   61.92214285
_symmetry_Int_Tables_number   1
_chemical_formula_structural   Sr4Ga2Ir3Pt
_chemical_formula_sum   'Sr4 Ga2 Ir3 Pt1'
_cell_volume   233.19928003
_cell_formula_units_Z   1
loop_
 _symmetry_equiv_pos_site_id
 _symmetry_equiv_pos_as_xyz
  1  'x, y, z'
loop_
 _atom_site_type_symbol
 _atom_site_label
 _atom_site_symmetry_multiplicity
 _atom_site_fract_x
 _atom_site_fract_y
 _atom_site_fract_z
 _atom_site_occupancy
  Sr  Sr0  1  0.50989115  0.78374927  0.14164000  1
  Sr  Sr1  1  0.21681562  0.49214766  0.35949418  1
  Sr  Sr2  1  0.78559841  0.50855028  0.64129176  1
  Sr  Sr3  1  0.48906856  0.21595653  0.85771075  1
  Ga  Ga0  1  0.92330838  0.07117378  0.25565086  1
  Ga  Ga1  1  0.07930709  0.91316350  0.74251803  1
  Ir  Ir0  1  0.71000334  0.00828483  0.49063341  1
  Ir  Ir1  1  0.28679590  0.99271338  0.51056275  1
  Ir  Ir2  1  0.00675286  0.72858404  0.99008425  1
  Pt  Pt0  1  0.99245569  0.28567775  0.01041102  1
loop_
_geom_bond_atom_site_label_1
_geom_bond_atom_site_label_2
_geom_bond_distance
_geom_bond_site_symmetry_2
Sr0 Sr3 3.590539 1_564
Sr0 Sr1 3.683743 1_555
Sr0 Sr3 3.725661 1_554
Sr1 Sr2 3.586878 1_455
Sr1 Sr2 3.704861 1_555
Sr2 Sr3 3.696908 1_555
Ga0 Ir0 2.552143 1_555
Ga0 Ir2 2.568341 1_644
Ga0 Ir1 2.577953 1_645
Ga0 Pt0 2.640371 1_555
Ga0 Sr1 3.188838 1_645
Ga0 Sr0 3.256201 1_645
Ga0 Sr0 3.491380 1_545
Ga0 Sr2 3.545420 1_555
Ga0 Sr1 3.556776 1_655
Ga1 Ir2 2.550624 1_555
Ga1 Ir1 2.559603 1_555
Ga1 Ir0 2.576925 1_465
Ga1 Pt0 2.681788 1_466
Ga1 Sr2 3.264955 1_465
Ga1 Sr2 3.471945 1_455
Ga1 Sr1 3.484697 1_555
Ga1 Sr0 3.596135 1_556
Ir0 Ir1 2.565111 1_545
Ir0 Sr0 3.110139 1_545
Ir0 Sr1 3.123840 1_555
Ir0 Sr3 3.155221 1_555
Ir0 Sr2 3.160187 1_545
Ir0 Sr2 3.184244 1_555
Ir0 Sr1 3.261150 1_645
Ir1 Sr3 3.101567 1_565
Ir1 Sr2 3.138522 1_555
Ir1 Sr1 3.169726 1_555
Ir1 Sr1 3.172238 1_565
Ir1 Sr0 3.173524 1_555
Ir1 Sr2 3.241993 1_465
Ir2 Pt0 2.680294 1_456
Ir2 Sr0 3.135357 1_556
Ir2 Sr2 3.151732 1_455
Ir2 Sr3 3.180417 1_555
Ir2 Sr0 3.193582 1_456
Ir2 Sr1 3.201660 1_556
Ir2 Sr3 3.203594 1_465
Ir2 Pt0 3.219116 1_466
Pt0 Sr1 3.126011 1_655
Pt0 Sr0 3.138510 1_555
Pt0 Sr3 3.164230 1_654
Pt0 Sr2 3.167432 1_554
Pt0 Sr3 3.180813 1_554
Pt0 Sr0 3.244115 1_645
