# generated using pymatgen
data_Ca6Re2PdN6
_symmetry_space_group_name_H-M   'P 1'
_cell_length_a   6.22854837
_cell_length_b   6.22854821
_cell_length_c   6.22854744
_cell_angle_alpha   95.70153392
_cell_angle_beta   95.70153111
_cell_angle_gamma   95.70153535
_symmetry_Int_Tables_number   1
_chemical_formula_structural   Ca6Re2PdN6
_chemical_formula_sum   'Ca6 Re2 Pd1 N6'
_cell_volume   237.79051765
_cell_formula_units_Z   1
loop_
 _symmetry_equiv_pos_site_id
 _symmetry_equiv_pos_as_xyz
  1  'x, y, z'
loop_
 _atom_site_type_symbol
 _atom_site_label
 _atom_site_symmetry_multiplicity
 _atom_site_fract_x
 _atom_site_fract_y
 _atom_site_fract_z
 _atom_site_occupancy
  Ca  Ca0  1  0.61241874  0.11668663  0.79172408  1
  Ca  Ca1  1  0.11668663  0.79172408  0.61241874  1
  Ca  Ca2  1  0.79172408  0.61241874  0.11668663  1
  Ca  Ca3  1  0.38758126  0.88331337  0.20827592  1
  Ca  Ca4  1  0.88331337  0.20827592  0.38758126  1
  Ca  Ca5  1  0.20827592  0.38758126  0.88331337  1
  Re  Re0  1  0.62367157  0.62367157  0.62367157  1
  Re  Re1  1  0.37632843  0.37632843  0.37632843  1
  Pd  Pd0  1  0.00000000  0.00000000  0.00000000  1
  N  N0  1  0.72343075  0.85462672  0.46950340  1
  N  N1  1  0.85462672  0.46950340  0.72343075  1
  N  N2  1  0.46950340  0.72343075  0.85462672  1
  N  N3  1  0.27656925  0.14537328  0.53049660  1
  N  N4  1  0.14537328  0.53049660  0.27656925  1
  N  N5  1  0.53049660  0.27656925  0.14537328  1
loop_
_geom_bond_atom_site_label_1
_geom_bond_atom_site_label_2
_geom_bond_distance
_geom_bond_site_symmetry_2
Ca0 N5 2.447952 1_556
Ca0 N3 2.551645 1_555
Ca0 N2 2.602355 1_545
Ca0 N1 2.634486 1_555
Ca0 N0 2.649404 1_545
Ca0 Pd0 2.820023 1_656
Ca1 N3 2.447953 1_565
Ca1 N4 2.551645 1_555
Ca1 N0 2.602356 1_455
Ca1 N2 2.634486 1_555
Ca1 N1 2.649404 1_455
Ca1 Pd0 2.820022 1_566
Ca2 N4 2.447953 1_655
Ca2 N5 2.551645 1_555
Ca2 N1 2.602355 1_554
Ca2 N0 2.634486 1_555
Ca2 N2 2.649404 1_554
Ca2 Pd0 2.820022 1_665
Ca3 N2 2.447952 1_554
Ca3 N0 2.551645 1_555
Ca3 N5 2.602355 1_565
Ca3 N4 2.634486 1_555
Ca3 N3 2.649404 1_565
Ca3 Pd0 2.820023 1_565
Ca4 N0 2.447953 1_545
Ca4 N1 2.551645 1_555
Ca4 N3 2.602356 1_655
Ca4 N5 2.634486 1_555
Ca4 N4 2.649404 1_655
Ca4 Pd0 2.820022 1_655
Ca5 N1 2.447953 1_455
Ca5 N2 2.551645 1_555
Ca5 N4 2.602355 1_556
Ca5 N3 2.634486 1_555
Ca5 N5 2.649404 1_556
Ca5 Pd0 2.820022 1_556
N0 Re0 1.895492 1_555
N1 Re0 1.895492 1_555
N2 Re0 1.895492 1_555
N3 Re1 1.895492 1_555
N4 Re1 1.895492 1_555
N5 Re1 1.895492 1_555
