# generated using pymatgen
data_Lu5(SiBi)2
_symmetry_space_group_name_H-M   'P 1'
_cell_length_a   8.42132547
_cell_length_b   8.42132587
_cell_length_c   7.75977740
_cell_angle_alpha   90.00000000
_cell_angle_beta   90.00000000
_cell_angle_gamma   125.29665193
_symmetry_Int_Tables_number   1
_chemical_formula_structural   Lu5(SiBi)2
_chemical_formula_sum   'Lu10 Si4 Bi4'
_cell_volume   449.15013787
_cell_formula_units_Z   2
loop_
 _symmetry_equiv_pos_site_id
 _symmetry_equiv_pos_as_xyz
  1  'x, y, z'
loop_
 _atom_site_type_symbol
 _atom_site_label
 _atom_site_symmetry_multiplicity
 _atom_site_fract_x
 _atom_site_fract_y
 _atom_site_fract_z
 _atom_site_occupancy
  Lu  Lu0  1  0.04025519  0.28050665  0.33893309  1
  Lu  Lu1  1  0.95974481  0.71949335  0.66106691  1
  Lu  Lu2  1  0.45974481  0.21949335  0.83893309  1
  Lu  Lu3  1  0.78050665  0.54025519  0.16106691  1
  Lu  Lu4  1  0.54025519  0.78050665  0.16106691  1
  Lu  Lu5  1  0.21949335  0.45974481  0.83893309  1
  Lu  Lu6  1  0.71949335  0.95974481  0.66106691  1
  Lu  Lu7  1  0.28050665  0.04025519  0.33893309  1
  Lu  Lu8  1  0.00000000  0.00000000  0.00000000  1
  Lu  Lu9  1  0.50000000  0.50000000  0.50000000  1
  Si  Si0  1  0.36023471  0.36023471  0.13791343  1
  Si  Si1  1  0.63976529  0.63976529  0.86208657  1
  Si  Si2  1  0.13976529  0.13976529  0.63791343  1
  Si  Si3  1  0.86023471  0.86023471  0.36208657  1
  Bi  Bi0  1  0.79374437  0.20625563  0.00000000  1
  Bi  Bi1  1  0.20625563  0.79374437  0.00000000  1
  Bi  Bi2  1  0.70625563  0.29374437  0.50000000  1
  Bi  Bi3  1  0.29374437  0.70625563  0.50000000  1
loop_
_geom_bond_atom_site_label_1
_geom_bond_atom_site_label_2
_geom_bond_distance
_geom_bond_site_symmetry_2
Lu0 Si0 2.838019 1_555
Lu0 Si2 2.938931 1_555
Lu0 Si3 2.942162 1_445
Lu1 Si1 2.838019 1_555
Lu1 Si3 2.938931 1_555
Lu1 Si2 2.942162 1_665
Lu2 Si2 2.838019 1_555
Lu2 Si0 2.938931 1_556
Lu2 Si1 2.942162 1_555
Lu3 Si3 2.838019 1_555
Lu3 Si1 2.938931 1_554
Lu3 Si0 2.942162 1_555
Lu4 Si3 2.838019 1_555
Lu4 Si1 2.938931 1_554
Lu4 Si0 2.942162 1_555
Lu5 Si2 2.838019 1_555
Lu5 Si0 2.938931 1_556
Lu5 Si1 2.942162 1_555
Lu6 Si1 2.838019 1_555
Lu6 Si3 2.938931 1_555
Lu6 Si2 2.942162 1_665
Lu7 Si0 2.838019 1_555
Lu7 Si2 2.938931 1_555
Lu7 Si3 2.942162 1_445
Lu8 Si0 2.985993 1_555
Lu8 Si1 2.985993 1_444
Lu8 Si2 3.010688 1_554
Lu8 Si3 3.010688 1_445
Lu9 Si3 2.985993 1_555
Lu9 Si2 2.985993 1_555
Lu9 Si1 3.010688 1_555
Lu9 Si0 3.010688 1_555
Bi0 Lu8 3.085522 1_655
Bi0 Lu2 3.138197 1_554
Bi0 Lu3 3.138197 1_555
Bi0 Lu0 3.180819 1_655
Bi0 Lu6 3.180819 1_544
Bi0 Lu5 3.182637 1_654
Bi0 Lu4 3.182638 1_545
Bi1 Lu8 3.085522 1_565
Bi1 Lu4 3.138197 1_555
Bi1 Lu5 3.138197 1_554
Bi1 Lu1 3.180819 1_454
Bi1 Lu7 3.180819 1_565
Bi1 Lu3 3.182637 1_455
Bi1 Lu2 3.182638 1_564
Bi2 Lu9 3.085522 1_555
Bi2 Lu0 3.138197 1_655
Bi2 Lu6 3.138197 1_545
Bi2 Lu2 3.180819 1_555
Bi2 Lu3 3.180819 1_555
Bi2 Lu7 3.182637 1_555
Bi2 Lu1 3.182638 1_555
Bi3 Lu9 3.085522 1_555
Bi3 Lu1 3.138197 1_455
Bi3 Lu7 3.138197 1_565
Bi3 Lu4 3.180819 1_555
Bi3 Lu5 3.180819 1_555
Bi3 Lu6 3.182637 1_555
Bi3 Lu0 3.182638 1_555
