# generated using pymatgen
data_Zr5Ge2SbH
_symmetry_space_group_name_H-M   'P 1'
_cell_length_a   8.22097863
_cell_length_b   8.22097816
_cell_length_c   8.22097904
_cell_angle_alpha   128.50336437
_cell_angle_beta   128.50336295
_cell_angle_gamma   75.81100036
_symmetry_Int_Tables_number   1
_chemical_formula_structural   Zr5Ge2SbH
_chemical_formula_sum   'Zr10 Ge4 Sb2 H2'
_cell_volume   330.93189942
_cell_formula_units_Z   2
loop_
 _symmetry_equiv_pos_site_id
 _symmetry_equiv_pos_as_xyz
  1  'x, y, z'
loop_
 _atom_site_type_symbol
 _atom_site_label
 _atom_site_symmetry_multiplicity
 _atom_site_fract_x
 _atom_site_fract_y
 _atom_site_fract_z
 _atom_site_occupancy
  Zr  Zr0  1  0.50000000  0.50000000  0.00000000  1
  Zr  Zr1  1  0.00000000  0.00000000  0.00000000  1
  Zr  Zr2  1  0.51773512  0.01773512  0.82367094  1
  Zr  Zr3  1  0.19406518  0.69406518  0.17632906  1
  Zr  Zr4  1  0.01773512  0.19406518  0.50000000  1
  Zr  Zr5  1  0.69406518  0.51773512  0.50000000  1
  Zr  Zr6  1  0.48226488  0.98226488  0.17632906  1
  Zr  Zr7  1  0.80593482  0.30593482  0.82367094  1
  Zr  Zr8  1  0.98226488  0.80593482  0.50000000  1
  Zr  Zr9  1  0.30593482  0.48226488  0.50000000  1
  Ge  Ge0  1  0.86516654  0.36516654  0.23033309  1
  Ge  Ge1  1  0.13483346  0.63483346  0.76966691  1
  Ge  Ge2  1  0.36516654  0.13483346  0.50000000  1
  Ge  Ge3  1  0.63483346  0.86516654  0.50000000  1
  Sb  Sb0  1  0.25000000  0.25000000  0.00000000  1
  Sb  Sb1  1  0.75000000  0.75000000  0.00000000  1
  H  H0  1  0.25000000  0.75000000  0.50000000  1
  H  H1  1  0.75000000  0.25000000  0.50000000  1
loop_
_geom_bond_atom_site_label_1
_geom_bond_atom_site_label_2
_geom_bond_distance
_geom_bond_site_symmetry_2
Ge0 Zr7 2.777276 1_554
Ge0 Zr2 2.777284 1_554
Ge0 Zr1 2.780396 1_655
Ge0 Zr0 2.780396 1_555
Ge0 Zr8 2.832341 1_555
Ge0 Zr4 2.832341 1_655
Ge0 Zr5 2.832341 1_555
Ge0 Zr9 2.832341 1_655
Ge1 Zr3 2.777276 1_556
Ge1 Zr6 2.777284 1_556
Ge1 Zr1 2.780396 1_566
Ge1 Zr0 2.780396 1_556
Ge1 Zr4 2.832341 1_555
Ge1 Zr8 2.832341 1_455
Ge1 Zr9 2.832341 1_555
Ge1 Zr5 2.832341 1_455
Ge2 Zr9 2.777283 1_555
Ge2 Zr4 2.777283 1_555
Ge2 Zr0 2.780396 1_556
Ge2 Zr1 2.780396 1_555
Ge2 Zr3 2.832340 1_545
Ge2 Zr7 2.832340 1_555
Ge2 Zr2 2.832348 1_555
Ge2 Zr6 2.832348 1_545
Ge3 Zr5 2.777283 1_555
Ge3 Zr8 2.777283 1_555
Ge3 Zr0 2.780396 1_555
Ge3 Zr1 2.780396 1_666
Ge3 Zr7 2.832340 1_565
Ge3 Zr3 2.832340 1_555
Ge3 Zr6 2.832348 1_555
Ge3 Zr2 2.832348 1_565
Sb0 Zr6 3.009626 1_545
Sb0 Zr2 3.009626 1_554
Sb0 Zr8 3.009631 1_444
Sb0 Zr9 3.009631 1_555
Sb0 Zr4 3.009631 1_554
Sb0 Zr5 3.009631 1_555
Sb0 Zr3 3.009632 1_555
Sb0 Zr7 3.009632 1_454
Sb0 Zr1 3.243279 1_555
Sb0 Zr0 3.243279 1_555
Sb1 Zr2 3.009626 1_564
Sb1 Zr6 3.009626 1_555
Sb1 Zr4 3.009631 1_665
Sb1 Zr5 3.009631 1_554
Sb1 Zr8 3.009631 1_555
Sb1 Zr9 3.009631 1_554
Sb1 Zr7 3.009632 1_554
Sb1 Zr3 3.009632 1_655
Sb1 Zr1 3.243279 1_665
Sb1 Zr0 3.243279 1_555
H0 Zr9 2.135383 1_555
H0 Zr2 2.135383 1_565
H0 Zr8 2.135383 1_455
H0 Zr3 2.135392 1_555
H1 Zr5 2.135383 1_555
H1 Zr6 2.135383 1_545
H1 Zr4 2.135383 1_655
H1 Zr7 2.135392 1_555
