# generated using pymatgen
data_Ti2Sn2IrRh2
_symmetry_space_group_name_H-M   'P 1'
_cell_length_a   7.57490120
_cell_length_b   7.57490109
_cell_length_c   7.57490028
_cell_angle_alpha   33.89641452
_cell_angle_beta   33.89641828
_cell_angle_gamma   33.89641558
_symmetry_Int_Tables_number   1
_chemical_formula_structural   Ti2Sn2IrRh2
_chemical_formula_sum   'Ti2 Sn2 Ir1 Rh2'
_cell_volume   120.47800784
_cell_formula_units_Z   1
loop_
 _symmetry_equiv_pos_site_id
 _symmetry_equiv_pos_as_xyz
  1  'x, y, z'
loop_
 _atom_site_type_symbol
 _atom_site_label
 _atom_site_symmetry_multiplicity
 _atom_site_fract_x
 _atom_site_fract_y
 _atom_site_fract_z
 _atom_site_occupancy
  Ti  Ti0  1  0.75406081  0.75406081  0.75406081  1
  Ti  Ti1  1  0.24633389  0.24633389  0.24633389  1
  Sn  Sn0  1  0.99336899  0.99336899  0.99336899  1
  Sn  Sn1  1  0.50467142  0.50467142  0.50467142  1
  Ir  Ir0  1  0.12319123  0.12319123  0.12319123  1
  Rh  Rh0  1  0.62696270  0.62696270  0.62696270  1
  Rh  Rh1  1  0.37641296  0.37641296  0.37641296  1
loop_
_geom_bond_atom_site_label_1
_geom_bond_atom_site_label_2
_geom_bond_distance
_geom_bond_site_symmetry_2
Sn0 Ti1 3.075514 1_665
Sn0 Ti1 3.075514 1_656
Sn0 Ti1 3.075515 1_566
Sn1 Ti1 3.012735 1_556
Sn1 Ti1 3.012735 1_565
Sn1 Ti1 3.012735 1_655
Sn1 Ti0 3.118943 1_554
Sn1 Ti0 3.118943 1_545
Sn1 Ti0 3.118943 1_455
Ir0 Ti1 2.635085 1_555
Ir0 Ti0 2.662317 1_454
Ir0 Ti0 2.662317 1_544
Ir0 Ti0 2.662317 1_445
Ir0 Sn1 2.750024 1_545
Ir0 Sn1 2.750024 1_455
Ir0 Sn1 2.750024 1_554
Ir0 Sn0 2.778019 1_444
Rh0 Sn1 2.616867 1_555
Rh0 Sn0 2.646134 1_545
Rh0 Sn0 2.646134 1_455
Rh0 Sn0 2.646134 1_554
Rh0 Ti0 2.719726 1_555
Rh0 Ti1 2.743251 1_565
Rh0 Ti1 2.743251 1_655
Rh0 Ti1 2.743251 1_556
Rh1 Ti0 2.720364 1_545
Rh1 Ti0 2.720364 1_455
Rh1 Ti0 2.720364 1_554
Rh1 Sn1 2.744556 1_555
Rh1 Sn0 2.762735 1_454
Rh1 Sn0 2.762735 1_544
Rh1 Sn0 2.762735 1_445
Rh1 Ti1 2.783515 1_555
