# generated using pymatgen
data_MnSb(SeO3)4
_symmetry_space_group_name_H-M   'P 1'
_cell_length_a   8.02008237
_cell_length_b   8.28405509
_cell_length_c   7.93076446
_cell_angle_alpha   87.80863719
_cell_angle_beta   90.00000000
_cell_angle_gamma   90.00000000
_symmetry_Int_Tables_number   1
_chemical_formula_structural   MnSb(SeO3)4
_chemical_formula_sum   'Mn2 Sb2 Se8 O24'
_cell_volume   526.52517264
_cell_formula_units_Z   2
loop_
 _symmetry_equiv_pos_site_id
 _symmetry_equiv_pos_as_xyz
  1  'x, y, z'
loop_
 _atom_site_type_symbol
 _atom_site_label
 _atom_site_symmetry_multiplicity
 _atom_site_fract_x
 _atom_site_fract_y
 _atom_site_fract_z
 _atom_site_occupancy
  Mn  Mn0  1  0.00000000  0.50000000  0.00000000  1
  Mn  Mn1  1  0.50000000  0.50000000  0.50000000  1
  Sb  Sb0  1  0.00000000  0.00000000  0.50000000  1
  Sb  Sb1  1  0.50000000  0.00000000  0.00000000  1
  Se  Se0  1  0.32748260  0.66175516  0.17283086  1
  Se  Se1  1  0.82748260  0.33824484  0.32716914  1
  Se  Se2  1  0.66121256  0.82974932  0.66591730  1
  Se  Se3  1  0.16121256  0.17025068  0.83408270  1
  Se  Se4  1  0.67251740  0.33824484  0.82716914  1
  Se  Se5  1  0.17251740  0.66175516  0.67283086  1
  Se  Se6  1  0.33878744  0.17025068  0.33408270  1
  Se  Se7  1  0.83878744  0.82974932  0.16591730  1
  O  O0  1  0.24286616  0.53892726  0.03137450  1
  O  O1  1  0.74286616  0.46107274  0.46862550  1
  O  O2  1  0.75684141  0.97369459  0.52893707  1
  O  O3  1  0.25684141  0.02630541  0.97106293  1
  O  O4  1  0.52604541  0.97019009  0.75460836  1
  O  O5  1  0.46935843  0.53143644  0.26328903  1
  O  O6  1  0.96935843  0.46856356  0.23671097  1
  O  O7  1  0.02604541  0.02980991  0.74539164  1
  O  O8  1  0.97160098  0.23704700  0.46392237  1
  O  O9  1  0.53241437  0.75048060  0.52949881  1
  O  O10  1  0.47160098  0.76295300  0.03607763  1
  O  O11  1  0.03241437  0.24951940  0.97050119  1
  O  O12  1  0.75713384  0.46107274  0.96862550  1
  O  O13  1  0.25713384  0.53892726  0.53137450  1
  O  O14  1  0.24315859  0.02630541  0.47106293  1
  O  O15  1  0.74315859  0.97369459  0.02893707  1
  O  O16  1  0.47395459  0.02980991  0.24539164  1
  O  O17  1  0.53064157  0.46856356  0.73671097  1
  O  O18  1  0.03064157  0.53143644  0.76328903  1
  O  O19  1  0.97395459  0.97019009  0.25460836  1
  O  O20  1  0.02839902  0.76295300  0.53607763  1
  O  O21  1  0.46758563  0.24951940  0.47050119  1
  O  O22  1  0.52839902  0.23704700  0.96392237  1
  O  O23  1  0.96758563  0.75048060  0.02949881  1
loop_
_geom_bond_atom_site_label_1
_geom_bond_atom_site_label_2
_geom_bond_distance
_geom_bond_site_symmetry_2
Mn0 O18 1.901335 1_554
Mn0 O6 1.901335 1_455
Mn0 O0 1.991480 1_555
Mn0 O12 1.991480 1_454
Mn0 O23 2.113065 1_455
Mn0 O11 2.113065 1_554
Mn1 O5 1.901335 1_555
Mn1 O17 1.901335 1_555
Mn1 O1 1.991480 1_555
Mn1 O13 1.991480 1_555
Mn1 O9 2.113065 1_555
Mn1 O21 2.113065 1_555
O0 Se0 1.685744 1_555
O1 Se1 1.685744 1_555
O2 Se2 1.758198 1_555
O2 Sb0 1.974695 1_665
O3 Se3 1.758198 1_555
O3 Sb1 1.974695 1_556
O4 Se2 1.756715 1_555
O4 Sb1 1.982131 1_566
O5 Se0 1.707519 1_555
O6 Se1 1.707519 1_555
O7 Se3 1.756715 1_555
O7 Sb0 1.982131 1_555
O8 Se1 1.773555 1_555
O8 Sb0 1.986689 1_655
O9 Se2 1.650178 1_555
O10 Se0 1.773555 1_555
O10 Sb1 1.986689 1_565
O11 Se3 1.650178 1_555
O12 Se4 1.685744 1_555
O13 Se5 1.685744 1_555
O14 Se6 1.758198 1_555
O14 Sb0 1.974695 1_555
O15 Se7 1.758198 1_555
O15 Sb1 1.974695 1_565
O16 Se6 1.756715 1_555
O16 Sb1 1.982131 1_555
O17 Se4 1.707519 1_555
O18 Se5 1.707519 1_555
O19 Se7 1.756715 1_555
O19 Sb0 1.982131 1_665
O20 Se5 1.773555 1_555
O20 Sb0 1.986689 1_565
O21 Se6 1.650178 1_555
O22 Se4 1.773555 1_555
O22 Sb1 1.986689 1_556
O23 Se7 1.650178 1_555
