# generated using pymatgen
data_Zr6Ta(Be7Ni4)2
_symmetry_space_group_name_H-M   'P 1'
_cell_length_a   7.88379355
_cell_length_b   7.88379344
_cell_length_c   7.88379376
_cell_angle_alpha   60.00000281
_cell_angle_beta   60.00000330
_cell_angle_gamma   59.99999930
_symmetry_Int_Tables_number   1
_chemical_formula_structural   Zr6Ta(Be7Ni4)2
_chemical_formula_sum   'Zr6 Ta1 Be14 Ni8'
_cell_volume   346.49003940
_cell_formula_units_Z   1
loop_
 _symmetry_equiv_pos_site_id
 _symmetry_equiv_pos_as_xyz
  1  'x, y, z'
loop_
 _atom_site_type_symbol
 _atom_site_label
 _atom_site_symmetry_multiplicity
 _atom_site_fract_x
 _atom_site_fract_y
 _atom_site_fract_z
 _atom_site_occupancy
  Zr  Zr0  1  0.70725498  0.29274502  0.29274502  1
  Zr  Zr1  1  0.29274502  0.70725498  0.70725498  1
  Zr  Zr2  1  0.29274502  0.70725498  0.29274502  1
  Zr  Zr3  1  0.70725498  0.29274502  0.70725498  1
  Zr  Zr4  1  0.29274502  0.29274502  0.70725498  1
  Zr  Zr5  1  0.70725498  0.70725498  0.29274502  1
  Ta  Ta0  1  0.00000000  0.00000000  0.00000000  1
  Be  Be0  1  0.32290719  0.32290719  0.32290719  1
  Be  Be1  1  0.67709281  0.67709281  0.67709281  1
  Be  Be2  1  0.32290719  0.32290719  0.03127744  1
  Be  Be3  1  0.32290719  0.03127744  0.32290719  1
  Be  Be4  1  0.67709281  0.67709281  0.96872256  1
  Be  Be5  1  0.67709281  0.96872256  0.67709281  1
  Be  Be6  1  0.03127744  0.32290719  0.32290719  1
  Be  Be7  1  0.96872256  0.67709281  0.67709281  1
  Be  Be8  1  0.50000000  0.00000000  0.00000000  1
  Be  Be9  1  0.00000000  0.50000000  0.50000000  1
  Be  Be10  1  0.00000000  0.50000000  0.00000000  1
  Be  Be11  1  0.50000000  0.00000000  0.50000000  1
  Be  Be12  1  0.00000000  0.00000000  0.50000000  1
  Be  Be13  1  0.50000000  0.50000000  0.00000000  1
  Ni  Ni0  1  0.12690434  0.12690434  0.12690434  1
  Ni  Ni1  1  0.87309566  0.87309566  0.87309566  1
  Ni  Ni2  1  0.12690434  0.12690434  0.61928698  1
  Ni  Ni3  1  0.12690434  0.61928698  0.12690434  1
  Ni  Ni4  1  0.87309566  0.87309566  0.38071302  1
  Ni  Ni5  1  0.87309566  0.38071302  0.87309566  1
  Ni  Ni6  1  0.61928698  0.12690434  0.12690434  1
  Ni  Ni7  1  0.38071302  0.87309566  0.87309566  1
loop_
_geom_bond_atom_site_label_1
_geom_bond_atom_site_label_2
_geom_bond_distance
_geom_bond_site_symmetry_2
Be0 Be11 2.284744 1_555
Be0 Be9 2.284744 1_555
Be0 Be13 2.284744 1_555
Be0 Be3 2.299149 1_555
Be0 Be6 2.299149 1_555
Be0 Be2 2.299149 1_555
Be0 Ni3 2.324179 1_555
Be0 Ni6 2.324179 1_555
Be0 Ni2 2.324179 1_555
Be0 Zr2 2.812504 1_555
Be0 Zr0 2.812504 1_555
Be0 Zr4 2.812504 1_555
Be1 Be11 2.284744 1_565
Be1 Be9 2.284744 1_655
Be1 Be13 2.284744 1_556
Be1 Be5 2.299149 1_555
Be1 Be7 2.299149 1_555
Be1 Be4 2.299149 1_555
Be1 Ni5 2.324179 1_555
Be1 Ni7 2.324179 1_555
Be1 Ni4 2.324179 1_555
Be1 Zr3 2.812504 1_555
Be1 Zr1 2.812504 1_555
Be1 Zr5 2.812504 1_555
Be2 Be8 2.284741 1_555
Be2 Be3 2.299149 1_555
Be2 Be6 2.299149 1_555
Be2 Ni0 2.324176 1_555
Be2 Ni3 2.324183 1_555
Be2 Ni6 2.324183 1_555
Be2 Zr4 2.812496 1_554
Be2 Zr1 2.812501 1_554
Be2 Zr3 2.812501 1_554
Be3 Be8 2.284741 1_555
Be3 Be6 2.299149 1_555
Be3 Ni0 2.324176 1_555
Be3 Ni2 2.324183 1_555
Be3 Ni6 2.324183 1_555
Be3 Zr2 2.812496 1_545
Be3 Zr5 2.812500 1_545
Be3 Zr1 2.812501 1_545
Be4 Be8 2.284741 1_566
Be4 Be5 2.299149 1_555
Be4 Be7 2.299149 1_555
Be4 Ni1 2.324176 1_555
Be4 Ni5 2.324183 1_555
Be4 Ni7 2.324183 1_555
Be4 Zr5 2.812496 1_556
Be4 Zr0 2.812501 1_556
Be4 Zr2 2.812501 1_556
Be5 Be8 2.284741 1_566
Be5 Be7 2.299149 1_555
Be5 Ni1 2.324176 1_555
Be5 Ni4 2.324183 1_555
Be5 Ni7 2.324183 1_555
Be5 Zr3 2.812496 1_565
Be5 Zr4 2.812500 1_565
Be5 Zr0 2.812501 1_565
Be6 Be9 2.284748 1_555
Be6 Ni0 2.324176 1_555
Be6 Ni3 2.324183 1_555
Be6 Ni2 2.324183 1_555
Be6 Zr0 2.812496 1_455
Be6 Zr5 2.812500 1_455
Be6 Zr3 2.812501 1_455
Be7 Be9 2.284748 1_655
Be7 Ni1 2.324176 1_555
Be7 Ni5 2.324183 1_555
Be7 Ni4 2.324183 1_555
Be7 Zr1 2.812496 1_655
Be7 Zr4 2.812500 1_655
Be7 Zr2 2.812501 1_655
Be8 Ni6 2.401901 1_555
Be8 Ni7 2.401901 1_544
Be8 Ni1 2.401901 1_544
Be8 Ni0 2.401901 1_555
Be8 Zr4 2.827791 1_554
Be8 Zr5 2.827791 1_545
Be8 Zr3 2.827791 1_554
Be8 Zr2 2.827791 1_545
Be9 Ni2 2.401901 1_555
Be9 Ni4 2.401901 1_455
Be9 Ni3 2.401901 1_555
Be9 Ni5 2.401901 1_455
Be9 Zr4 2.827791 1_555
Be9 Zr5 2.827791 1_455
Be9 Zr2 2.827791 1_555
Be9 Zr3 2.827791 1_455
Be10 Be2 2.284741 1_555
Be10 Be4 2.284741 1_454
Be10 Be6 2.284741 1_555
Be10 Be7 2.284741 1_454
Be10 Ni5 2.401901 1_454
Be10 Ni3 2.401901 1_555
Be10 Ni1 2.401901 1_454
Be10 Ni0 2.401901 1_555
Be10 Zr5 2.827791 1_455
Be10 Zr4 2.827791 1_554
Be10 Zr1 2.827791 1_554
Be10 Zr0 2.827791 1_455
Be11 Be5 2.284748 1_545
Be11 Be3 2.284748 1_555
Be11 Ni4 2.401901 1_545
Be11 Ni2 2.401901 1_555
Be11 Ni7 2.401901 1_545
Be11 Ni6 2.401901 1_555
Be11 Zr4 2.827791 1_555
Be11 Zr5 2.827791 1_545
Be11 Zr0 2.827791 1_555
Be11 Zr1 2.827791 1_545
Be12 Be6 2.284741 1_555
Be12 Be7 2.284741 1_445
Be12 Be3 2.284741 1_555
Be12 Be5 2.284741 1_445
Be12 Ni2 2.401901 1_555
Be12 Ni4 2.401901 1_445
Be12 Ni1 2.401901 1_445
Be12 Ni0 2.401901 1_555
Be12 Zr3 2.827791 1_455
Be12 Zr1 2.827791 1_545
Be12 Zr2 2.827791 1_545
Be12 Zr0 2.827791 1_455
Be13 Be4 2.284748 1_554
Be13 Be2 2.284748 1_555
Be13 Ni6 2.401901 1_555
Be13 Ni7 2.401901 1_554
Be13 Ni3 2.401901 1_555
Be13 Ni5 2.401901 1_554
Be13 Zr0 2.827791 1_555
Be13 Zr2 2.827791 1_555
Be13 Zr3 2.827791 1_554
Be13 Zr1 2.827791 1_554
Ni0 Ta0 2.450684 1_555
Ni0 Zr2 2.724476 1_545
Ni0 Zr0 2.724477 1_455
Ni0 Zr4 2.724477 1_554
Ni1 Ta0 2.450684 1_666
Ni1 Zr3 2.724476 1_565
Ni1 Zr1 2.724477 1_655
Ni1 Zr5 2.724477 1_556
Ni2 Ta0 2.450684 1_556
Ni2 Zr1 2.724476 1_545
Ni2 Zr4 2.724476 1_555
Ni2 Zr3 2.724477 1_455
Ni3 Ta0 2.450684 1_565
Ni3 Zr2 2.724476 1_555
Ni3 Zr5 2.724477 1_455
Ni3 Zr1 2.724477 1_554
Ni4 Ta0 2.450684 1_665
Ni4 Zr0 2.724476 1_565
Ni4 Zr5 2.724476 1_555
Ni4 Zr2 2.724477 1_655
Ni5 Ta0 2.450684 1_656
Ni5 Zr3 2.724476 1_555
Ni5 Zr4 2.724477 1_655
Ni5 Zr0 2.724477 1_556
Ni6 Ta0 2.450684 1_655
Ni6 Zr0 2.724476 1_555
Ni6 Zr5 2.724477 1_545
Ni6 Zr3 2.724477 1_554
Ni7 Ta0 2.450684 1_566
Ni7 Zr1 2.724476 1_555
Ni7 Zr4 2.724477 1_565
Ni7 Zr2 2.724477 1_556
