# generated using pymatgen
data_Be8OsW3
_symmetry_space_group_name_H-M   'P 1'
_cell_length_a   4.41058234
_cell_length_b   4.41058097
_cell_length_c   7.22998097
_cell_angle_alpha   90.00000000
_cell_angle_beta   90.00000000
_cell_angle_gamma   120.00000286
_symmetry_Int_Tables_number   1
_chemical_formula_structural   Be8OsW3
_chemical_formula_sum   'Be8 Os1 W3'
_cell_volume   121.80342705
_cell_formula_units_Z   1
loop_
 _symmetry_equiv_pos_site_id
 _symmetry_equiv_pos_as_xyz
  1  'x, y, z'
loop_
 _atom_site_type_symbol
 _atom_site_label
 _atom_site_symmetry_multiplicity
 _atom_site_fract_x
 _atom_site_fract_y
 _atom_site_fract_z
 _atom_site_occupancy
  Be  Be0  1  0.00000000  0.00000000  0.50084673  1
  Be  Be1  1  0.00000000  0.00000000  0.00487618  1
  Be  Be2  1  0.82996316  0.17003684  0.25133418  1
  Be  Be3  1  0.82996316  0.65992732  0.25133418  1
  Be  Be4  1  0.34007268  0.17003684  0.25133418  1
  Be  Be5  1  0.16911126  0.83088874  0.74827349  1
  Be  Be6  1  0.16911126  0.33822253  0.74827349  1
  Be  Be7  1  0.66177747  0.83088874  0.74827349  1
  Os  Os0  1  0.33333300  0.66666700  0.43531863  1
  W  W0  1  0.66666700  0.33333300  0.56106614  1
  W  W1  1  0.66666700  0.33333300  0.93583695  1
  W  W2  1  0.33333300  0.66666700  0.06323238  1
loop_
_geom_bond_atom_site_label_1
_geom_bond_atom_site_label_2
_geom_bond_distance
_geom_bond_site_symmetry_2
Be0 Be6 2.206612 1_555
Be0 Be5 2.206612 1_545
Be0 Be7 2.206612 1_445
Be0 Be3 2.222977 1_445
Be0 Be4 2.222977 1_555
Be0 Be2 2.222979 1_455
Be0 W0 2.583400 1_455
Be0 W0 2.583404 1_445
Be0 W0 2.583404 1_555
Be0 Os0 2.590145 1_545
Be0 Os0 2.590149 1_555
Be0 Os0 2.590149 1_445
Be1 Be3 2.205093 1_445
Be1 Be4 2.205093 1_555
Be1 Be2 2.205095 1_455
Be1 Be6 2.260729 1_554
Be1 Be5 2.260729 1_544
Be1 Be7 2.260729 1_444
Be1 W2 2.581164 1_545
Be1 W2 2.581168 1_555
Be1 W2 2.581168 1_445
Be1 W1 2.594909 1_454
Be1 W1 2.594912 1_444
Be1 W1 2.594913 1_554
Be2 Be3 2.160702 1_555
Be2 Be4 2.160702 1_555
Be2 Be3 2.249879 1_545
Be2 Be4 2.249880 1_655
Be2 W0 2.563379 1_555
Be2 Os0 2.575541 1_545
Be2 Os0 2.575541 1_655
Be2 W2 2.591041 1_545
Be2 W2 2.591041 1_655
Be2 W1 2.599873 1_554
Be3 Be4 2.160702 1_555
Be3 Be4 2.249880 1_665
Be3 W0 2.563383 1_555
Be3 Os0 2.575542 1_555
Be3 Os0 2.575542 1_655
Be3 W2 2.591042 1_555
Be3 W2 2.591042 1_655
Be3 W1 2.599876 1_554
Be4 W0 2.563383 1_555
Be4 Os0 2.575541 1_545
Be4 Os0 2.575541 1_555
Be4 W2 2.591041 1_545
Be4 W2 2.591041 1_555
Be4 W1 2.599876 1_554
Be5 Be6 2.172944 1_555
Be5 Be7 2.172945 1_555
Be5 Be6 2.237637 1_565
Be5 Be7 2.237637 1_455
Be5 Os0 2.587182 1_555
Be5 W0 2.587592 1_565
Be5 W0 2.587592 1_455
Be5 W1 2.588940 1_565
Be5 W1 2.588940 1_455
Be5 W2 2.599863 1_556
Be6 Be7 2.172944 1_555
Be6 Be7 2.237637 1_445
Be6 Os0 2.587183 1_555
Be6 W0 2.587591 1_455
Be6 W0 2.587594 1_555
Be6 W1 2.588938 1_455
Be6 W1 2.588942 1_555
Be6 W2 2.599865 1_556
Be7 Os0 2.587184 1_555
Be7 W0 2.587590 1_565
Be7 W0 2.587594 1_555
Be7 W1 2.588938 1_565
Be7 W1 2.588942 1_555
Be7 W2 2.599865 1_556
Os0 W2 2.690177 1_555
Os0 W0 2.703877 1_565
Os0 W0 2.703878 1_455
Os0 W0 2.703885 1_555
W0 W1 2.709586 1_555
W1 W2 2.707907 1_546
W1 W2 2.707907 1_656
W1 W2 2.707914 1_556
