# generated using pymatgen
data_TcN(OF3)2
_symmetry_space_group_name_H-M   'P 1'
_cell_length_a   5.48202651
_cell_length_b   5.35737822
_cell_length_c   4.94898103
_cell_angle_alpha   89.08518325
_cell_angle_beta   89.39981853
_cell_angle_gamma   69.47546376
_symmetry_Int_Tables_number   1
_chemical_formula_structural   TcN(OF3)2
_chemical_formula_sum   'Tc1 N1 O2 F6'
_cell_volume   136.10247457
_cell_formula_units_Z   1
loop_
 _symmetry_equiv_pos_site_id
 _symmetry_equiv_pos_as_xyz
  1  'x, y, z'
loop_
 _atom_site_type_symbol
 _atom_site_label
 _atom_site_symmetry_multiplicity
 _atom_site_fract_x
 _atom_site_fract_y
 _atom_site_fract_z
 _atom_site_occupancy
  Tc  Tc0  1  0.00000000  0.00000000  0.50000000  1
  N  N0  1  0.49999900  0.49999900  0.00000000  1
  O  O0  1  0.60320259  0.61614297  0.11186744  1
  O  O1  1  0.39679641  0.38385603  0.88813256  1
  F  F0  1  0.13652776  0.15039448  0.22568563  1
  F  F1  1  0.67461124  0.11888433  0.31243545  1
  F  F2  1  0.10891921  0.67818486  0.31481600  1
  F  F3  1  0.89108079  0.32181614  0.68518200  1
  F  F4  1  0.32538976  0.88111567  0.68756255  1
  F  F5  1  0.86347124  0.84960452  0.77431537  1
loop_
_geom_bond_atom_site_label_1
_geom_bond_atom_site_label_2
_geom_bond_distance
_geom_bond_site_symmetry_2
N0 O1 1.130557 1_554
N0 O0 1.130565 1_555
F0 Tc0 1.849060 1_555
F1 Tc0 1.915297 1_655
F2 Tc0 1.867094 1_565
F3 Tc0 1.867094 1_655
F4 Tc0 1.915297 1_565
F5 Tc0 1.849069 1_665
