# generated using pymatgen
data_Ca10AlTcN10
_symmetry_space_group_name_H-M   'P 1'
_cell_length_a   6.86933411
_cell_length_b   6.86933282
_cell_length_c   8.68769911
_cell_angle_alpha   81.81907365
_cell_angle_beta   81.81907381
_cell_angle_gamma   60.34386750
_symmetry_Int_Tables_number   1
_chemical_formula_structural   Ca10AlTcN10
_chemical_formula_sum   'Ca10 Al1 Tc1 N10'
_cell_volume   351.39431816
_cell_formula_units_Z   1
loop_
 _symmetry_equiv_pos_site_id
 _symmetry_equiv_pos_as_xyz
  1  'x, y, z'
loop_
 _atom_site_type_symbol
 _atom_site_label
 _atom_site_symmetry_multiplicity
 _atom_site_fract_x
 _atom_site_fract_y
 _atom_site_fract_z
 _atom_site_occupancy
  Ca  Ca0  1  0.89750858  0.36068445  0.83793715  1
  Ca  Ca1  1  0.88273945  0.88273945  0.81182588  1
  Ca  Ca2  1  0.73511176  0.73511176  0.54480066  1
  Ca  Ca3  1  0.73866049  0.26201351  0.52264429  1
  Ca  Ca4  1  0.61194737  0.13144399  0.12865563  1
  Ca  Ca5  1  0.36068445  0.89750858  0.83793715  1
  Ca  Ca6  1  0.26201351  0.73866049  0.52264429  1
  Ca  Ca7  1  0.24470471  0.24470471  0.50365268  1
  Ca  Ca8  1  0.13496094  0.13496094  0.16870854  1
  Ca  Ca9  1  0.13144399  0.61194737  0.12865563  1
  Al  Al0  1  0.36960769  0.36960769  0.77046175  1
  Tc  Tc0  1  0.63353182  0.63353182  0.22795759  1
  N  N0  1  0.90009239  0.47523842  0.31997006  1
  N  N1  1  0.98840800  0.98840800  0.03226938  1
  N  N2  1  0.69077513  0.69077513  0.02612268  1
  N  N3  1  0.53808107  0.53808107  0.70485528  1
  N  N4  1  0.47523842  0.90009239  0.31997006  1
  N  N5  1  0.54662415  0.08410881  0.66607334  1
  N  N6  1  0.47699704  0.47699704  0.27890635  1
  N  N7  1  0.29487489  0.29487489  0.98015632  1
  N  N8  1  0.06417535  0.06417535  0.64553094  1
  N  N9  1  0.08410881  0.54662415  0.66607334  1
loop_
_geom_bond_atom_site_label_1
_geom_bond_atom_site_label_2
_geom_bond_distance
_geom_bond_site_symmetry_2
Ca0 N9 2.456950 1_655
Ca0 N3 2.520287 1_555
Ca0 N8 2.523927 1_655
Ca0 N2 2.653091 1_556
Ca0 N1 2.696494 1_546
Ca0 N7 2.960010 1_655
Ca1 N8 2.388776 1_665
Ca1 N9 2.453734 1_655
Ca1 N5 2.453734 1_565
Ca1 N1 2.456470 1_556
Ca1 N2 2.695783 1_556
Ca2 N5 2.406816 1_565
Ca2 N9 2.406816 1_655
Ca2 N3 2.517705 1_555
Ca2 N0 2.578118 1_555
Ca2 N4 2.578118 1_555
Ca3 N8 2.290411 1_655
Ca3 N5 2.341049 1_555
Ca3 N3 2.376666 1_555
Ca3 N0 2.606356 1_555
Ca3 N6 2.731680 1_555
Ca4 N1 2.336147 1_545
Ca4 N7 2.374136 1_554
Ca4 N4 2.539885 1_545
Ca4 N6 2.560796 1_555
Ca4 N2 3.042710 1_545
Ca5 N5 2.456950 1_565
Ca5 N3 2.520287 1_555
Ca5 N8 2.523927 1_565
Ca5 N2 2.653091 1_556
Ca5 N1 2.696494 1_456
Ca5 N7 2.960010 1_565
Ca6 N8 2.290410 1_565
Ca6 N9 2.341049 1_555
Ca6 N3 2.376667 1_555
Ca6 N4 2.606356 1_555
Ca6 N6 2.731680 1_555
Ca7 N8 2.290609 1_555
Ca7 N9 2.373862 1_555
Ca7 N5 2.373863 1_555
Ca7 N4 2.702658 1_545
Ca7 N0 2.702659 1_455
Ca7 N6 3.106631 1_555
Ca8 N1 2.261454 1_445
Ca8 N7 2.294916 1_554
Ca8 N0 2.516455 1_455
Ca8 N4 2.516455 1_545
Ca9 N1 2.336147 1_455
Ca9 N7 2.374136 1_554
Ca9 N0 2.539885 1_455
Ca9 N6 2.560796 1_555
Ca9 N2 3.042710 1_455
Al0 N7 1.890602 1_555
Al0 N3 1.988338 1_555
Al0 N5 1.994926 1_555
Al0 N9 1.994926 1_555
N0 Tc0 1.836610 1_555
N2 Tc0 1.773271 1_555
N4 Tc0 1.836610 1_555
N6 Tc0 1.838943 1_555
