# generated using pymatgen
data_KRb3I16
_symmetry_space_group_name_H-M   'P 1'
_cell_length_a   8.87526924
_cell_length_b   10.37429919
_cell_length_c   11.12051291
_cell_angle_alpha   64.47788392
_cell_angle_beta   89.51995770
_cell_angle_gamma   90.28874169
_symmetry_Int_Tables_number   1
_chemical_formula_structural   KRb3I16
_chemical_formula_sum   'K1 Rb3 I16'
_cell_volume   923.92810935
_cell_formula_units_Z   1
loop_
 _symmetry_equiv_pos_site_id
 _symmetry_equiv_pos_as_xyz
  1  'x, y, z'
loop_
 _atom_site_type_symbol
 _atom_site_label
 _atom_site_symmetry_multiplicity
 _atom_site_fract_x
 _atom_site_fract_y
 _atom_site_fract_z
 _atom_site_occupancy
  K  K0  1  0.88911602  0.73956608  0.20993583  1
  Rb  Rb0  1  0.61882263  0.73567251  0.70209027  1
  Rb  Rb1  1  0.11422805  0.26620097  0.79733979  1
  Rb  Rb2  1  0.38291776  0.26244523  0.29658465  1
  I  I0  1  0.35678625  0.54848465  0.51094991  1
  I  I1  1  0.85735448  0.45454580  0.98543926  1
  I  I2  1  0.64563229  0.45792070  0.48335054  1
  I  I3  1  0.14700560  0.54544332  0.01305931  1
  I  I4  1  0.01405773  0.66556632  0.55064082  1
  I  I5  1  0.51019753  0.33729511  0.93795961  1
  I  I6  1  0.98606469  0.34143216  0.43934326  1
  I  I7  1  0.48307853  0.66028108  0.05853868  1
  I  I8  1  0.20176870  0.87757913  0.60357321  1
  I  I9  1  0.70089262  0.12351720  0.89482814  1
  I  I10  1  0.79885113  0.12661968  0.39122656  1
  I  I11  1  0.29493453  0.87247689  0.10957109  1
  I  I12  1  0.39157138  0.06550021  0.66585934  1
  I  I13  1  0.89218418  0.92372678  0.85028539  1
  I  I14  1  0.61183285  0.93325651  0.33295432  1
  I  I15  1  0.10270305  0.06246768  0.16647100  1
loop_
_geom_bond_atom_site_label_1
_geom_bond_atom_site_label_2
_geom_bond_distance
_geom_bond_site_symmetry_2
I0 I2 2.794366 1_555
I0 I4 3.376314 1_555
I0 Rb1 3.890767 1_555
I0 Rb0 4.158380 1_555
I1 I3 2.798327 1_656
I1 I5 3.434322 1_555
I1 Rb0 3.895053 1_555
I1 Rb1 4.108280 1_655
I2 I6 3.369069 1_555
I2 K0 3.823959 1_555
I2 Rb2 4.186369 1_555
I3 I7 3.328743 1_555
I3 Rb2 3.891068 1_555
I4 I8 3.009135 1_555
I4 K0 3.707647 1_455
I4 Rb1 3.970604 1_555
I4 Rb0 4.080751 1_455
I5 I9 2.992327 1_555
I5 Rb2 3.876990 1_556
I5 Rb0 3.932716 1_555
I5 Rb1 4.049658 1_555
I6 Rb1 3.893527 1_655
I6 K0 3.911662 1_555
I6 Rb2 4.080921 1_655
I7 Rb0 3.874856 1_554
I7 Rb2 3.916751 1_555
I7 K0 4.214595 1_555
I8 Rb0 3.975105 1_555
I8 Rb2 4.275361 1_565
I9 Rb1 3.914056 1_655
I10 I14 2.881612 1_545
I10 I6 3.003099 1_555
I10 Rb2 3.944634 1_555
I11 I15 2.878650 1_565
I11 I7 3.009018 1_555
I11 K0 3.830923 1_455
I12 I8 2.875466 1_545
I12 Rb2 3.717626 1_555
I12 Rb0 3.851455 1_545
I12 Rb1 3.891886 1_555
I13 I9 2.886152 1_565
I13 K0 3.613858 1_556
I13 Rb1 3.867943 1_665
I13 Rb0 3.898479 1_555
I14 Rb0 3.716330 1_555
I14 K0 3.785203 1_555
I14 Rb2 3.853272 1_565
I15 K0 3.684311 1_445
I15 Rb1 3.720559 1_554
I15 Rb2 3.895869 1_555
