# generated using pymatgen
data_NaPb4BrO4
_symmetry_space_group_name_H-M   'P 1'
_cell_length_a   8.39189042
_cell_length_b   8.39189042
_cell_length_c   6.42124368
_cell_angle_alpha   90.00000000
_cell_angle_beta   90.00000000
_cell_angle_gamma   90.00000000
_symmetry_Int_Tables_number   1
_chemical_formula_structural   NaPb4BrO4
_chemical_formula_sum   'Na2 Pb8 Br2 O8'
_cell_volume   452.20853945
_cell_formula_units_Z   2
loop_
 _symmetry_equiv_pos_site_id
 _symmetry_equiv_pos_as_xyz
  1  'x, y, z'
loop_
 _atom_site_type_symbol
 _atom_site_label
 _atom_site_symmetry_multiplicity
 _atom_site_fract_x
 _atom_site_fract_y
 _atom_site_fract_z
 _atom_site_occupancy
  Na  Na0  1  0.50000000  0.00000000  0.96619457  1
  Na  Na1  1  0.00000000  0.50000000  0.03380543  1
  Pb  Pb0  1  0.19156607  0.14313127  0.22480551  1
  Pb  Pb1  1  0.35686873  0.69156607  0.22480551  1
  Pb  Pb2  1  0.64313127  0.30843393  0.22480551  1
  Pb  Pb3  1  0.30843393  0.35686873  0.77519449  1
  Pb  Pb4  1  0.14313127  0.80843393  0.77519449  1
  Pb  Pb5  1  0.85686873  0.19156607  0.77519449  1
  Pb  Pb6  1  0.80843393  0.85686873  0.22480551  1
  Pb  Pb7  1  0.69156607  0.64313127  0.77519449  1
  Br  Br0  1  0.00000000  0.50000000  0.47413773  1
  Br  Br1  1  0.50000000  0.00000000  0.52586227  1
  O  O0  1  0.75102539  0.09097724  0.07355058  1
  O  O1  1  0.40902276  0.25102539  0.07355058  1
  O  O2  1  0.24897461  0.90902276  0.07355058  1
  O  O3  1  0.59097724  0.74897461  0.07355058  1
  O  O4  1  0.90902276  0.75102539  0.92644942  1
  O  O5  1  0.25102539  0.59097724  0.92644942  1
  O  O6  1  0.09097724  0.24897461  0.92644942  1
  O  O7  1  0.74897461  0.40902276  0.92644942  1
loop_
_geom_bond_atom_site_label_1
_geom_bond_atom_site_label_2
_geom_bond_distance
_geom_bond_site_symmetry_2
Na0 O0 2.344307 1_556
Na0 O1 2.344307 1_556
Na0 O3 2.344307 1_546
Na0 O2 2.344307 1_546
Na1 O5 2.344307 1_554
Na1 O4 2.344307 1_454
Na1 O6 2.344307 1_554
Na1 O7 2.344307 1_454
Br0 Na1 2.827481 1_555
Br1 Na0 2.827481 1_555
O0 Pb6 2.243907 1_545
O0 Pb2 2.256832 1_555
O0 Pb5 2.274172 1_554
O1 Pb2 2.243907 1_555
O1 Pb0 2.256832 1_555
O1 Pb3 2.274172 1_554
O2 Pb0 2.243907 1_565
O2 Pb1 2.256832 1_555
O2 Pb4 2.274172 1_554
O3 Pb1 2.243907 1_555
O3 Pb6 2.256832 1_555
O3 Pb7 2.274172 1_554
O4 Pb4 2.243907 1_655
O4 Pb7 2.256832 1_555
O4 Pb6 2.274172 1_556
O5 Pb3 2.243907 1_555
O5 Pb4 2.256832 1_555
O5 Pb1 2.274172 1_556
O6 Pb5 2.243907 1_455
O6 Pb3 2.256832 1_555
O6 Pb0 2.274172 1_556
O7 Pb7 2.243907 1_555
O7 Pb5 2.256832 1_555
O7 Pb2 2.274172 1_556
