# generated using pymatgen
data_Hf3TaFe2N
_symmetry_space_group_name_H-M   'P 1'
_cell_length_a   8.37258257
_cell_length_b   8.37258181
_cell_length_c   8.37258281
_cell_angle_alpha   59.99999993
_cell_angle_beta   60.00000292
_cell_angle_gamma   60.00000120
_symmetry_Int_Tables_number   1
_chemical_formula_structural   Hf3TaFe2N
_chemical_formula_sum   'Hf12 Ta4 Fe8 N4'
_cell_volume   415.01453441
_cell_formula_units_Z   4
loop_
 _symmetry_equiv_pos_site_id
 _symmetry_equiv_pos_as_xyz
  1  'x, y, z'
loop_
 _atom_site_type_symbol
 _atom_site_label
 _atom_site_symmetry_multiplicity
 _atom_site_fract_x
 _atom_site_fract_y
 _atom_site_fract_z
 _atom_site_occupancy
  Hf  Hf0  1  0.81203448  0.81203448  0.18796552  1
  Hf  Hf1  1  0.18796552  0.18796552  0.81203448  1
  Hf  Hf2  1  0.81203448  0.18796552  0.81203448  1
  Hf  Hf3  1  0.18796552  0.81203448  0.18796552  1
  Hf  Hf4  1  0.18796552  0.81203448  0.81203448  1
  Hf  Hf5  1  0.81203448  0.18796552  0.18796552  1
  Hf  Hf6  1  0.43796552  0.43796552  0.06203448  1
  Hf  Hf7  1  0.06203448  0.06203448  0.43796552  1
  Hf  Hf8  1  0.43796552  0.06203448  0.43796552  1
  Hf  Hf9  1  0.06203448  0.43796552  0.06203448  1
  Hf  Hf10  1  0.06203448  0.43796552  0.43796552  1
  Hf  Hf11  1  0.43796552  0.06203448  0.06203448  1
  Ta  Ta0  1  0.12500000  0.62500000  0.62500000  1
  Ta  Ta1  1  0.62500000  0.12500000  0.62500000  1
  Ta  Ta2  1  0.62500000  0.62500000  0.12500000  1
  Ta  Ta3  1  0.62500000  0.62500000  0.62500000  1
  Fe  Fe0  1  0.74521257  0.41826281  0.41826281  1
  Fe  Fe1  1  0.41826281  0.74521257  0.41826281  1
  Fe  Fe2  1  0.41826281  0.41826281  0.74521257  1
  Fe  Fe3  1  0.41826281  0.41826281  0.41826281  1
  Fe  Fe4  1  0.50478743  0.83173719  0.83173719  1
  Fe  Fe5  1  0.83173719  0.50478743  0.83173719  1
  Fe  Fe6  1  0.83173719  0.83173719  0.50478743  1
  Fe  Fe7  1  0.83173719  0.83173719  0.83173719  1
  N  N0  1  0.62500000  0.12500000  0.12500000  1
  N  N1  1  0.12500000  0.62500000  0.12500000  1
  N  N2  1  0.12500000  0.12500000  0.62500000  1
  N  N3  1  0.12500000  0.12500000  0.12500000  1
loop_
_geom_bond_atom_site_label_1
_geom_bond_atom_site_label_2
_geom_bond_distance
_geom_bond_site_symmetry_2
Hf0 N0 2.221960 1_565
Hf0 N1 2.221960 1_655
Hf1 N2 2.221960 1_555
Hf1 N3 2.221960 1_556
Hf2 N2 2.221960 1_655
Hf2 N0 2.221960 1_556
Hf3 N3 2.221959 1_565
Hf3 N1 2.221960 1_555
Hf4 N2 2.221959 1_565
Hf4 N1 2.221960 1_556
Hf5 N0 2.221960 1_555
Hf5 N3 2.221960 1_655
Hf6 N0 2.221960 1_555
Hf6 N1 2.221960 1_555
Hf7 N2 2.221960 1_555
Hf7 N3 2.221960 1_555
Hf8 N2 2.221960 1_555
Hf8 N0 2.221960 1_555
Hf9 N3 2.221959 1_555
Hf9 N1 2.221960 1_555
Hf10 N2 2.221959 1_555
Hf10 N1 2.221960 1_555
Hf11 N0 2.221960 1_555
Hf11 N3 2.221960 1_555
Fe0 Ta3 2.552842 1_555
Fe0 Ta1 2.552849 1_555
Fe0 Ta2 2.552849 1_555
Fe0 Fe1 2.737414 1_555
Fe0 Fe3 2.737414 1_555
Fe0 Fe2 2.737414 1_555
Fe0 Hf10 2.827222 1_655
Fe0 Hf7 2.827226 1_655
Fe0 Hf9 2.827227 1_655
Fe0 Hf0 3.051083 1_555
Fe0 Hf2 3.051083 1_555
Fe0 Hf5 3.051090 1_555
Fe1 Ta3 2.552842 1_555
Fe1 Ta0 2.552849 1_555
Fe1 Ta2 2.552849 1_555
Fe1 Fe3 2.737414 1_555
Fe1 Fe2 2.737414 1_555
Fe1 Hf8 2.827222 1_565
Fe1 Hf11 2.827226 1_565
Fe1 Hf7 2.827226 1_565
Fe1 Hf0 3.051083 1_555
Fe1 Hf4 3.051083 1_555
Fe1 Hf3 3.051090 1_555
Fe2 Ta3 2.552842 1_555
Fe2 Ta1 2.552849 1_555
Fe2 Ta0 2.552849 1_555
Fe2 Fe3 2.737414 1_555
Fe2 Hf6 2.827222 1_556
Fe2 Hf11 2.827226 1_556
Fe2 Hf9 2.827227 1_556
Fe2 Hf4 3.051083 1_555
Fe2 Hf2 3.051083 1_555
Fe2 Hf1 3.051090 1_555
Fe3 Ta1 2.552844 1_555
Fe3 Ta2 2.552844 1_555
Fe3 Ta0 2.552844 1_555
Fe3 Hf8 2.827230 1_555
Fe3 Hf10 2.827230 1_555
Fe3 Hf6 2.827230 1_555
Fe3 Hf3 3.051086 1_555
Fe3 Hf1 3.051086 1_555
Fe3 Hf5 3.051086 1_555
Fe4 Ta3 2.552842 1_555
Fe4 Ta1 2.552849 1_565
Fe4 Ta2 2.552849 1_556
Fe4 Fe5 2.737414 1_555
Fe4 Fe7 2.737414 1_555
Fe4 Fe6 2.737414 1_555
Fe4 Hf4 2.827222 1_555
Fe4 Hf1 2.827226 1_565
Fe4 Hf3 2.827227 1_556
Fe4 Hf6 3.051083 1_556
Fe4 Hf8 3.051083 1_565
Fe4 Hf11 3.051090 1_566
Fe5 Ta3 2.552842 1_555
Fe5 Ta0 2.552849 1_655
Fe5 Ta2 2.552849 1_556
Fe5 Fe7 2.737414 1_555
Fe5 Fe6 2.737414 1_555
Fe5 Hf2 2.827222 1_555
Fe5 Hf5 2.827226 1_556
Fe5 Hf1 2.827226 1_655
Fe5 Hf6 3.051083 1_556
Fe5 Hf10 3.051083 1_655
Fe5 Hf9 3.051090 1_656
Fe6 Ta3 2.552842 1_555
Fe6 Ta1 2.552849 1_565
Fe6 Ta0 2.552849 1_655
Fe6 Fe7 2.737414 1_555
Fe6 Hf0 2.827222 1_555
Fe6 Hf5 2.827226 1_565
Fe6 Hf3 2.827227 1_655
Fe6 Hf10 3.051083 1_655
Fe6 Hf8 3.051083 1_565
Fe6 Hf7 3.051090 1_665
Fe7 Ta1 2.552844 1_565
Fe7 Ta2 2.552844 1_556
Fe7 Ta0 2.552844 1_655
Fe7 Hf2 2.827230 1_565
Fe7 Hf4 2.827230 1_655
Fe7 Hf0 2.827230 1_556
Fe7 Hf9 3.051086 1_656
Fe7 Hf7 3.051086 1_665
Fe7 Hf11 3.051086 1_566
