# generated using pymatgen
data_Dy3GaO6
_symmetry_space_group_name_H-M   'P 1'
_cell_length_a   5.40343216
_cell_length_b   7.07765734
_cell_length_c   7.07765799
_cell_angle_alpha   102.85670532
_cell_angle_beta   90.00000000
_cell_angle_gamma   90.00000000
_symmetry_Int_Tables_number   1
_chemical_formula_structural   Dy3GaO6
_chemical_formula_sum   'Dy6 Ga2 O12'
_cell_volume   263.88947585
_cell_formula_units_Z   2
loop_
 _symmetry_equiv_pos_site_id
 _symmetry_equiv_pos_as_xyz
  1  'x, y, z'
loop_
 _atom_site_type_symbol
 _atom_site_label
 _atom_site_symmetry_multiplicity
 _atom_site_fract_x
 _atom_site_fract_y
 _atom_site_fract_z
 _atom_site_occupancy
  Dy  Dy0  1  0.53008362  0.29863979  0.08801594  1
  Dy  Dy1  1  0.03008362  0.70136021  0.91198406  1
  Dy  Dy2  1  0.53008362  0.91198406  0.70136021  1
  Dy  Dy3  1  0.03008362  0.08801594  0.29863979  1
  Dy  Dy4  1  0.57712381  0.39791263  0.60208737  1
  Dy  Dy5  1  0.07712381  0.60208737  0.39791263  1
  Ga  Ga0  1  -0.00031287  0.19314150  0.80685850  1
  Ga  Ga1  1  0.49968713  0.80685850  0.19314150  1
  O  O0  1  0.82107584  0.42214579  0.89456601  1
  O  O1  1  0.32107584  0.57785421  0.10543399  1
  O  O2  1  0.82107584  0.10543399  0.57785421  1
  O  O3  1  0.32107584  0.89456601  0.42214579  1
  O  O4  1  0.80282709  0.35613100  0.32336248  1
  O  O5  1  0.30282709  0.64386900  0.67663752  1
  O  O6  1  0.80282709  0.67663752  0.64386900  1
  O  O7  1  0.30282709  0.32336248  0.35613100  1
  O  O8  1  0.85845000  0.03842270  0.96157730  1
  O  O9  1  0.35845000  0.96157730  0.03842270  1
  O  O10  1  0.33689396  0.21614904  0.78385096  1
  O  O11  1  0.83689396  0.78385096  0.21614904  1
loop_
_geom_bond_atom_site_label_1
_geom_bond_atom_site_label_2
_geom_bond_distance
_geom_bond_site_symmetry_2
Dy0 O4 2.193273 1_555
Dy0 O7 2.234219 1_555
Dy0 O1 2.255556 1_555
Dy0 O10 2.346416 1_554
Dy0 O0 2.375642 1_554
Dy0 O9 2.510338 1_545
Dy0 O8 2.570502 1_554
Dy1 O5 2.193273 1_555
Dy1 O6 2.234219 1_455
Dy1 O0 2.255556 1_455
Dy1 O11 2.346416 1_456
Dy1 O1 2.375642 1_556
Dy1 O8 2.510338 1_465
Dy1 O9 2.570502 1_556
Dy2 O6 2.193273 1_555
Dy2 O5 2.234219 1_555
Dy2 O3 2.255557 1_555
Dy2 O10 2.346416 1_565
Dy2 O2 2.375642 1_565
Dy2 O9 2.510338 1_556
Dy2 O8 2.570502 1_565
Dy3 O7 2.193273 1_555
Dy3 O4 2.234219 1_455
Dy3 O2 2.255557 1_455
Dy3 O11 2.346416 1_445
Dy3 O3 2.375642 1_545
Dy3 O8 2.510338 1_454
Dy3 O9 2.570502 1_545
Dy4 O5 2.257600 1_555
Dy4 O7 2.257600 1_555
Dy4 O6 2.281844 1_555
Dy4 O4 2.281844 1_555
Dy4 O10 2.394044 1_555
Dy4 O2 2.427791 1_555
Dy4 O0 2.427791 1_555
Dy5 O4 2.257600 1_455
Dy5 O6 2.257600 1_455
Dy5 O7 2.281844 1_555
Dy5 O5 2.281844 1_555
Dy5 O11 2.394044 1_455
Dy5 O3 2.427791 1_555
Dy5 O1 2.427791 1_555
Ga0 O10 1.839779 1_555
Ga0 O0 1.869778 1_455
Ga0 O2 1.869778 1_455
Ga0 O8 1.874652 1_455
Ga1 O11 1.839779 1_555
Ga1 O1 1.869778 1_555
Ga1 O3 1.869778 1_555
Ga1 O9 1.874652 1_555
