# generated using pymatgen
data_YInSn5Rh4
_symmetry_space_group_name_H-M   'P 1'
_cell_length_a   6.87730097
_cell_length_b   6.95787239
_cell_length_c   6.88776970
_cell_angle_alpha   120.12105263
_cell_angle_beta   119.73186223
_cell_angle_gamma   90.37417943
_symmetry_Int_Tables_number   1
_chemical_formula_structural   YInSn5Rh4
_chemical_formula_sum   'Y1 In1 Sn5 Rh4'
_cell_volume   232.80221555
_cell_formula_units_Z   1
loop_
 _symmetry_equiv_pos_site_id
 _symmetry_equiv_pos_as_xyz
  1  'x, y, z'
loop_
 _atom_site_type_symbol
 _atom_site_label
 _atom_site_symmetry_multiplicity
 _atom_site_fract_x
 _atom_site_fract_y
 _atom_site_fract_z
 _atom_site_occupancy
  Y  Y0  1  0.00069907  0.99951719  0.00000000  1
  In  In0  1  0.46545666  0.12519392  0.00000000  1
  Sn  Sn0  1  0.13276031  0.45874427  0.00000000  1
  Sn  Sn1  1  0.86876660  0.87066677  0.33249129  1
  Sn  Sn2  1  0.50009383  0.00266107  0.50180286  1
  Sn  Sn3  1  0.99829197  0.50085622  0.49819514  1
  Sn  Sn4  1  0.53627430  0.53817447  0.66750771  1
  Rh  Rh0  1  0.76246410  0.39707438  0.00000000  1
  Rh  Rh1  1  0.38974774  0.75449064  1.00000000  1
  Rh  Rh2  1  0.60928965  0.61287797  0.37313387  1
  Rh  Rh3  1  0.23615477  0.23974210  0.62686513  1
loop_
_geom_bond_atom_site_label_1
_geom_bond_atom_site_label_2
_geom_bond_distance
_geom_bond_site_symmetry_2
In0 Rh1 2.627999 1_544
In0 Rh0 2.774950 1_555
In0 Rh3 2.789188 1_554
In0 Rh2 2.789192 1_555
In0 Y0 3.308223 1_545
In0 Y0 3.789014 1_645
Sn0 Y0 3.316105 1_545
Sn0 Y0 3.876452 1_555
Sn1 Y0 3.314027 1_655
Sn1 Y0 3.805260 1_656
Sn2 Y0 3.448343 1_545
Sn2 Y0 3.462184 1_646
Sn3 Y0 3.448361 1_656
Sn3 Y0 3.462167 1_645
Sn4 Y0 3.314033 1_656
Sn4 Y0 3.805253 1_545
Rh0 Sn0 2.579770 1_655
Rh0 Sn3 2.627614 1_555
Rh0 Sn2 2.627620 1_554
Rh0 Sn1 2.715017 1_555
Rh0 Sn4 2.715018 1_554
Rh0 Rh2 2.966889 1_555
Rh0 Rh3 2.966893 1_554
Rh0 Y0 3.224158 1_645
Rh1 Sn2 2.625803 1_566
Rh1 Sn3 2.625807 1_455
Rh1 Sn0 2.703799 1_556
Rh1 Sn1 2.715671 1_556
Rh1 Sn4 2.715672 1_555
Rh1 Rh2 2.927088 1_556
Rh1 Rh3 2.927099 1_555
Rh1 Y0 3.181980 1_556
Rh2 Sn4 2.587975 1_555
Rh2 Sn3 2.630968 1_555
Rh2 Sn2 2.641793 1_565
Rh2 Sn0 2.707224 1_555
Rh2 Sn1 2.727208 1_555
Rh2 Y0 3.137669 1_656
Rh3 Sn1 2.587963 1_445
Rh3 Sn2 2.630952 1_555
Rh3 Sn3 2.641789 1_455
Rh3 Sn0 2.707226 1_556
Rh3 Sn4 2.727213 1_555
Rh3 Y0 3.137667 1_545
