# generated using pymatgen
data_KRb3Os2O9
_symmetry_space_group_name_H-M   'P 1'
_cell_length_a   6.25259571
_cell_length_b   6.25259526
_cell_length_c   15.58399483
_cell_angle_alpha   90.00000000
_cell_angle_beta   90.00000000
_cell_angle_gamma   119.99998288
_symmetry_Int_Tables_number   1
_chemical_formula_structural   KRb3Os2O9
_chemical_formula_sum   'K2 Rb6 Os4 O18'
_cell_volume   527.63083461
_cell_formula_units_Z   2
loop_
 _symmetry_equiv_pos_site_id
 _symmetry_equiv_pos_as_xyz
  1  'x, y, z'
loop_
 _atom_site_type_symbol
 _atom_site_label
 _atom_site_symmetry_multiplicity
 _atom_site_fract_x
 _atom_site_fract_y
 _atom_site_fract_z
 _atom_site_occupancy
  K  K0  1  0.00000000  0.00000000  0.50000000  1
  K  K1  1  0.00000000  0.00000000  0.00000000  1
  Rb  Rb0  1  0.00000000  0.00000000  0.25000000  1
  Rb  Rb1  1  0.00000000  0.00000000  0.75000000  1
  Rb  Rb2  1  0.33333300  0.66666700  0.38482784  1
  Rb  Rb3  1  0.66666700  0.33333300  0.61517216  1
  Rb  Rb4  1  0.66666700  0.33333300  0.88482784  1
  Rb  Rb5  1  0.33333300  0.66666700  0.11517216  1
  Os  Os0  1  0.66666700  0.33333300  0.34251813  1
  Os  Os1  1  0.33333300  0.66666700  0.65748187  1
  Os  Os2  1  0.33333300  0.66666700  0.84251813  1
  Os  Os3  1  0.66666700  0.33333300  0.15748187  1
  O  O0  1  0.53594078  0.46405922  0.25000000  1
  O  O1  1  0.53594078  0.07187956  0.25000000  1
  O  O2  1  0.92812044  0.46405922  0.25000000  1
  O  O3  1  0.46405922  0.53594078  0.75000000  1
  O  O4  1  0.46405922  0.92812044  0.75000000  1
  O  O5  1  0.07187956  0.53594078  0.75000000  1
  O  O6  1  0.37481924  0.18740962  0.39712677  1
  O  O7  1  0.81259038  0.18740962  0.39712677  1
  O  O8  1  0.81259038  0.62518076  0.39712677  1
  O  O9  1  0.62518076  0.81259038  0.60287323  1
  O  O10  1  0.18740962  0.81259038  0.60287323  1
  O  O11  1  0.18740962  0.37481924  0.60287323  1
  O  O12  1  0.62518076  0.81259038  0.89712677  1
  O  O13  1  0.18740962  0.81259038  0.89712677  1
  O  O14  1  0.18740962  0.37481924  0.89712677  1
  O  O15  1  0.37481924  0.18740962  0.10287323  1
  O  O16  1  0.81259038  0.18740962  0.10287323  1
  O  O17  1  0.81259038  0.62518076  0.10287323  1
loop_
_geom_bond_atom_site_label_1
_geom_bond_atom_site_label_2
_geom_bond_distance
_geom_bond_site_symmetry_2
K0 O10 2.586405 1_545
K0 O7 2.586405 1_455
K0 O11 2.586406 1_555
K0 O8 2.586406 1_445
K0 O9 2.586406 1_445
K0 O6 2.586406 1_555
K1 O16 2.586405 1_455
K1 O13 2.586405 1_544
K1 O17 2.586406 1_445
K1 O14 2.586406 1_554
K1 O15 2.586406 1_555
K1 O12 2.586406 1_444
O0 Os0 2.020672 1_555
O0 Os3 2.020672 1_555
O0 Rb2 3.037991 1_555
O0 Rb5 3.037991 1_555
O0 Rb0 3.150436 1_665
O0 Rb0 3.150436 1_555
O1 Os0 2.020676 1_555
O1 Os3 2.020676 1_555
O1 Rb2 3.037980 1_545
O1 Rb5 3.037980 1_545
O1 Rb0 3.150427 1_655
O1 Rb0 3.150440 1_555
O2 Os0 2.020676 1_555
O2 Os3 2.020676 1_555
O2 Rb2 3.037980 1_655
O2 Rb5 3.037980 1_655
O2 Rb0 3.150427 1_655
O2 Rb0 3.150440 1_665
O3 Os2 2.020672 1_555
O3 Os1 2.020672 1_555
O3 Rb4 3.037991 1_555
O3 Rb3 3.037991 1_555
O3 Rb1 3.150436 1_555
O3 Rb1 3.150436 1_665
O4 Os2 2.020676 1_555
O4 Os1 2.020676 1_555
O4 Rb4 3.037980 1_565
O4 Rb3 3.037980 1_565
O4 Rb1 3.150427 1_565
O4 Rb1 3.150440 1_665
O5 Os2 2.020676 1_555
O5 Os1 2.020676 1_555
O5 Rb4 3.037980 1_455
O5 Rb3 3.037980 1_455
O5 Rb1 3.150427 1_565
O5 Rb1 3.150440 1_555
O6 Os0 1.794903 1_555
O6 Rb0 3.062084 1_555
O6 Rb2 3.140210 1_545
O6 Rb2 3.140216 1_555
O7 Os0 1.794897 1_555
O7 Rb0 3.062084 1_655
O7 Rb2 3.140214 1_545
O7 Rb2 3.140214 1_655
O8 Os0 1.794902 1_555
O8 Rb0 3.062084 1_665
O8 Rb2 3.140210 1_655
O8 Rb2 3.140216 1_555
O9 Os1 1.794903 1_555
O9 Rb1 3.062084 1_665
O9 Rb3 3.140210 1_565
O9 Rb3 3.140216 1_555
O10 Os1 1.794897 1_555
O10 Rb1 3.062084 1_565
O10 Rb3 3.140214 1_565
O10 Rb3 3.140214 1_455
O11 Os1 1.794902 1_555
O11 Rb1 3.062084 1_555
O11 Rb3 3.140210 1_455
O11 Rb3 3.140216 1_555
O12 Os2 1.794903 1_555
O12 Rb1 3.062084 1_665
O12 Rb4 3.140210 1_565
O12 Rb4 3.140216 1_555
O13 Os2 1.794897 1_555
O13 Rb1 3.062084 1_565
O13 Rb4 3.140214 1_565
O13 Rb4 3.140214 1_455
O14 Os2 1.794902 1_555
O14 Rb1 3.062084 1_555
O14 Rb4 3.140210 1_455
O14 Rb4 3.140216 1_555
O15 Os3 1.794903 1_555
O15 Rb0 3.062084 1_555
O15 Rb5 3.140210 1_545
O15 Rb5 3.140216 1_555
O16 Os3 1.794897 1_555
O16 Rb0 3.062084 1_655
O16 Rb5 3.140214 1_545
O16 Rb5 3.140214 1_655
O17 Os3 1.794902 1_555
O17 Rb0 3.062084 1_665
O17 Rb5 3.140210 1_655
O17 Rb5 3.140216 1_555
