# generated using pymatgen
data_BaCu2Pd4O11
_symmetry_space_group_name_H-M   'P 1'
_cell_length_a   5.93068119
_cell_length_b   5.93068058
_cell_length_c   13.54738490
_cell_angle_alpha   90.00974469
_cell_angle_beta   90.00974394
_cell_angle_gamma   120.19932735
_symmetry_Int_Tables_number   1
_chemical_formula_structural   BaCu2Pd4O11
_chemical_formula_sum   'Ba2 Cu4 Pd8 O22'
_cell_volume   411.83132404
_cell_formula_units_Z   2
loop_
 _symmetry_equiv_pos_site_id
 _symmetry_equiv_pos_as_xyz
  1  'x, y, z'
loop_
 _atom_site_type_symbol
 _atom_site_label
 _atom_site_symmetry_multiplicity
 _atom_site_fract_x
 _atom_site_fract_y
 _atom_site_fract_z
 _atom_site_occupancy
  Ba  Ba0  1  0.66725069  0.33274931  0.25000000  1
  Ba  Ba1  1  0.33274931  0.66725069  0.75000000  1
  Cu  Cu0  1  0.33155538  0.66844462  0.25000000  1
  Cu  Cu1  1  0.66844462  0.33155538  0.75000000  1
  Cu  Cu2  1  0.50000000  0.00000000  0.00000000  1
  Cu  Cu3  1  0.00000000  0.50000000  0.50000000  1
  Pd  Pd0  1  0.00273683  0.00553431  0.14844969  1
  Pd  Pd1  1  0.99726317  0.99446569  0.85155031  1
  Pd  Pd2  1  0.00553431  0.00273683  0.64844969  1
  Pd  Pd3  1  0.99446569  0.99726317  0.35155031  1
  Pd  Pd4  1  0.00000000  0.50000000  0.00000000  1
  Pd  Pd5  1  0.50000000  0.50000000  0.00000000  1
  Pd  Pd6  1  0.50000000  0.00000000  0.50000000  1
  Pd  Pd7  1  0.50000000  0.50000000  0.50000000  1
  O  O0  1  0.82458575  0.64853138  0.08153427  1
  O  O1  1  0.35351813  0.17413418  0.08074625  1
  O  O2  1  0.82090664  0.17404480  0.08072981  1
  O  O3  1  0.17541425  0.35146862  0.91846573  1
  O  O4  1  0.64648187  0.82586582  0.91925375  1
  O  O5  1  0.17909336  0.82595520  0.91927019  1
  O  O6  1  0.17413418  0.35351813  0.58074625  1
  O  O7  1  0.64853138  0.82458575  0.58153427  1
  O  O8  1  0.17404480  0.82090664  0.58072981  1
  O  O9  1  0.82586582  0.64648187  0.41925375  1
  O  O10  1  0.35146862  0.17541425  0.41846573  1
  O  O11  1  0.82595520  0.17909336  0.41927019  1
  O  O12  1  0.14606001  0.85393999  0.25000000  1
  O  O13  1  0.14683614  0.29520136  0.25038043  1
  O  O14  1  0.70479864  0.85316386  0.24961957  1
  O  O15  1  0.85393999  0.14606001  0.75000000  1
  O  O16  1  0.85316386  0.70479864  0.74961957  1
  O  O17  1  0.29520136  0.14683614  0.75038043  1
  O  O18  1  0.33412732  0.66767424  0.07842302  1
  O  O19  1  0.66587268  0.33232576  0.92157698  1
  O  O20  1  0.66767424  0.33412732  0.57842302  1
  O  O21  1  0.33232576  0.66587268  0.42157698  1
loop_
_geom_bond_atom_site_label_1
_geom_bond_atom_site_label_2
_geom_bond_distance
_geom_bond_site_symmetry_2
Ba0 O0 2.798387 1_555
Ba0 O10 2.798387 1_555
Ba0 O2 2.799613 1_555
Ba0 O11 2.799613 1_555
Ba0 O9 2.800267 1_555
Ba0 O1 2.800267 1_555
Ba0 O14 2.962543 1_545
Ba0 O13 2.962543 1_655
Ba0 O12 2.964421 1_655
Ba0 O12 2.964421 1_545
Ba0 O14 2.980625 1_555
Ba0 O13 2.980626 1_555
Ba1 O3 2.798387 1_555
Ba1 O7 2.798387 1_555
Ba1 O5 2.799613 1_555
Ba1 O8 2.799613 1_555
Ba1 O6 2.800267 1_555
Ba1 O4 2.800267 1_555
Ba1 O17 2.962543 1_565
Ba1 O16 2.962543 1_455
Ba1 O15 2.964421 1_455
Ba1 O15 2.964421 1_565
Ba1 O17 2.980625 1_555
Ba1 O16 2.980626 1_555
Cu0 O12 1.907364 1_555
Cu0 O13 1.913253 1_555
Cu0 O14 1.913253 1_555
Cu0 O18 2.324491 1_555
Cu0 O21 2.324491 1_555
Cu1 O15 1.907364 1_555
Cu1 O16 1.913253 1_555
Cu1 O17 1.913253 1_555
Cu1 O19 2.324491 1_555
Cu1 O20 2.324491 1_555
Cu2 O2 1.976442 1_555
Cu2 O5 1.976442 1_544
Cu2 O1 1.979994 1_555
Cu2 O4 1.979994 1_544
Cu2 O18 2.007869 1_545
Cu2 O19 2.007869 1_554
Cu3 O8 1.976442 1_555
Cu3 O11 1.976442 1_455
Cu3 O6 1.979994 1_555
Cu3 O9 1.979994 1_455
Cu3 O20 2.007869 1_455
Cu3 O21 2.007869 1_555
O0 Pd5 1.998687 1_555
O0 Pd4 2.000082 1_655
O0 Pd0 2.041930 1_665
O1 Pd5 1.999574 1_555
O1 Pd0 2.019229 1_555
O2 Pd4 1.999195 1_655
O2 Pd0 2.021758 1_655
O3 Pd5 1.998687 1_556
O3 Pd4 2.000082 1_556
O3 Pd1 2.041930 1_445
O4 Pd5 1.999574 1_556
O4 Pd1 2.019229 1_555
O5 Pd4 1.999195 1_556
O5 Pd1 2.021758 1_455
O6 Pd7 1.999575 1_555
O6 Pd2 2.019229 1_555
O7 Pd7 1.998687 1_555
O7 Pd6 2.000082 1_565
O7 Pd2 2.041931 1_665
O8 Pd6 1.999196 1_565
O8 Pd2 2.021758 1_565
O9 Pd7 1.999575 1_555
O9 Pd3 2.019229 1_555
O10 Pd7 1.998687 1_555
O10 Pd6 2.000082 1_555
O10 Pd3 2.041931 1_445
O11 Pd6 1.999196 1_555
O11 Pd3 2.021758 1_545
O12 Pd3 2.047511 1_455
O12 Pd0 2.047511 1_565
O13 Pd0 2.027385 1_555
O13 Pd3 2.052365 1_445
O14 Pd3 2.027385 1_555
O14 Pd0 2.052365 1_665
O15 Pd2 2.047511 1_655
O15 Pd1 2.047511 1_545
O16 Pd1 2.027385 1_555
O16 Pd2 2.052365 1_665
O17 Pd2 2.027385 1_555
O17 Pd1 2.052365 1_445
O18 Pd4 2.015165 1_555
O18 Pd5 2.017301 1_555
O19 Pd4 2.015165 1_656
O19 Pd5 2.017301 1_556
O20 Pd6 2.015164 1_555
O20 Pd7 2.017301 1_555
O21 Pd6 2.015164 1_565
O21 Pd7 2.017301 1_555
