# generated using pymatgen
data_K6GaTe4Br
_symmetry_space_group_name_H-M   'P 1'
_cell_length_a   11.21766349
_cell_length_b   11.21766387
_cell_length_c   8.18268749
_cell_angle_alpha   90.00000000
_cell_angle_beta   90.00000000
_cell_angle_gamma   120.00000171
_symmetry_Int_Tables_number   1
_chemical_formula_structural   K6GaTe4Br
_chemical_formula_sum   'K12 Ga2 Te8 Br2'
_cell_volume   891.72597952
_cell_formula_units_Z   2
loop_
 _symmetry_equiv_pos_site_id
 _symmetry_equiv_pos_as_xyz
  1  'x, y, z'
loop_
 _atom_site_type_symbol
 _atom_site_label
 _atom_site_symmetry_multiplicity
 _atom_site_fract_x
 _atom_site_fract_y
 _atom_site_fract_z
 _atom_site_occupancy
  K  K0  1  0.13093068  0.86906932  0.51635879  1
  K  K1  1  0.73813665  0.86906932  0.51635879  1
  K  K2  1  0.95679892  0.47839946  0.31938936  1
  K  K3  1  0.52160054  0.47839946  0.31938936  1
  K  K4  1  0.86906932  0.73813665  0.01635879  1
  K  K5  1  0.26186335  0.13093068  0.01635879  1
  K  K6  1  0.52160054  0.04320108  0.31938936  1
  K  K7  1  0.13093068  0.26186335  0.51635879  1
  K  K8  1  0.86906932  0.13093068  0.01635879  1
  K  K9  1  0.04320108  0.52160054  0.81938936  1
  K  K10  1  0.47839946  0.95679892  0.81938936  1
  K  K11  1  0.47839946  0.52160054  0.81938936  1
  Ga  Ga0  1  0.66666700  0.33333300  0.70671862  1
  Ga  Ga1  1  0.33333300  0.66666700  0.20671862  1
  Te  Te0  1  0.40843974  0.20422037  0.60605883  1
  Te  Te1  1  0.59156026  0.79577963  0.10605883  1
  Te  Te2  1  0.66666700  0.33333300  0.03358406  1
  Te  Te3  1  0.79577963  0.59156026  0.60605883  1
  Te  Te4  1  0.20422037  0.40843974  0.10605883  1
  Te  Te5  1  0.33333300  0.66666700  0.53358406  1
  Te  Te6  1  0.20422037  0.79577963  0.10605883  1
  Te  Te7  1  0.79577963  0.20422037  0.60605883  1
  Br  Br0  1  0.00000000  0.00000000  0.27487838  1
  Br  Br1  1  0.00000000  0.00000000  0.77487838  1
loop_
_geom_bond_atom_site_label_1
_geom_bond_atom_site_label_2
_geom_bond_distance
_geom_bond_site_symmetry_2
K0 Te3 3.558163 1_455
K0 Te0 3.558163 1_565
K0 Te6 3.646859 1_555
K0 Te5 3.935114 1_555
K1 Te7 3.558159 1_565
K1 Te3 3.558170 1_555
K1 Te1 3.646848 1_555
K1 Te5 3.935104 1_555
K2 Te7 3.559382 1_555
K2 Te3 3.559389 1_555
K2 Te2 3.662463 1_555
K2 Te6 3.680289 1_655
K2 Te4 3.680296 1_655
K2 Te5 4.056167 1_655
K3 Te3 3.559382 1_555
K3 Te0 3.559382 1_555
K3 Te2 3.662471 1_555
K3 Te4 3.680286 1_555
K3 Te1 3.680286 1_555
K3 Te5 4.056175 1_555
K4 Te6 3.558159 1_655
K4 Te1 3.558170 1_555
K4 Te3 3.646848 1_554
K4 Te2 3.935104 1_555
K5 Te6 3.558159 1_545
K5 Te4 3.558170 1_555
K5 Te0 3.646848 1_554
K5 Te2 3.935104 1_555
K6 Te7 3.559382 1_555
K6 Te0 3.559389 1_555
K6 Te2 3.662463 1_555
K6 Te6 3.680289 1_545
K6 Te1 3.680296 1_545
K6 Te5 4.056167 1_545
K7 Te7 3.558159 1_455
K7 Te0 3.558170 1_555
K7 Te4 3.646848 1_555
K7 Te5 3.935104 1_555
K8 Te4 3.558163 1_655
K8 Te1 3.558163 1_545
K8 Te7 3.646859 1_554
K8 Te2 3.935114 1_555
K9 Te6 3.559382 1_556
K9 Te4 3.559389 1_556
K9 Te5 3.662463 1_555
K9 Te7 3.680289 1_455
K9 Te3 3.680296 1_455
K9 Te2 4.056167 1_456
K10 Te6 3.559382 1_556
K10 Te1 3.559389 1_556
K10 Te5 3.662463 1_555
K10 Te7 3.680289 1_565
K10 Te0 3.680296 1_565
K10 Te2 4.056167 1_566
K11 Te4 3.559382 1_556
K11 Te1 3.559382 1_556
K11 Te5 3.662471 1_555
K11 Te3 3.680286 1_555
K11 Te0 3.680286 1_555
K11 Te2 4.056175 1_556
Ga0 Te7 2.640362 1_555
Ga0 Te0 2.640381 1_555
Ga0 Te3 2.640381 1_555
Ga0 Te2 2.674638 1_556
Ga1 Te6 2.640362 1_555
Ga1 Te1 2.640381 1_555
Ga1 Te4 2.640381 1_555
Ga1 Te5 2.674638 1_555
Br0 K0 3.221176 1_545
Br0 K1 3.221191 1_445
Br0 K7 3.221191 1_555
Br0 K8 3.308536 1_455
Br0 K5 3.308551 1_555
Br0 K4 3.308551 1_445
Br1 K8 3.221176 1_456
Br1 K5 3.221191 1_556
Br1 K4 3.221191 1_446
Br1 K0 3.308536 1_545
Br1 K1 3.308551 1_445
Br1 K7 3.308551 1_555
