# generated using pymatgen
data_Ba2AlTe5As
_symmetry_space_group_name_H-M   'P 1'
_cell_length_a   9.59059501
_cell_length_b   9.94433016
_cell_length_c   13.79113163
_cell_angle_alpha   90.00000000
_cell_angle_beta   90.00000000
_cell_angle_gamma   90.00000000
_symmetry_Int_Tables_number   1
_chemical_formula_structural   Ba2AlTe5As
_chemical_formula_sum   'Ba8 Al4 Te20 As4'
_cell_volume   1315.28840119
_cell_formula_units_Z   4
loop_
 _symmetry_equiv_pos_site_id
 _symmetry_equiv_pos_as_xyz
  1  'x, y, z'
loop_
 _atom_site_type_symbol
 _atom_site_label
 _atom_site_symmetry_multiplicity
 _atom_site_fract_x
 _atom_site_fract_y
 _atom_site_fract_z
 _atom_site_occupancy
  Ba  Ba0  1  0.99382027  0.13494060  0.67482085  1
  Ba  Ba1  1  0.50617973  0.36505940  0.17482085  1
  Ba  Ba2  1  0.49382027  0.86505940  0.32517915  1
  Ba  Ba3  1  0.00617973  0.63494060  0.82517915  1
  Ba  Ba4  1  0.00617973  0.86505940  0.32517915  1
  Ba  Ba5  1  0.49382027  0.63494060  0.82517915  1
  Ba  Ba6  1  0.50617973  0.13494060  0.67482085  1
  Ba  Ba7  1  0.99382027  0.36505940  0.17482085  1
  Al  Al0  1  0.25000000  0.83858139  0.59628825  1
  Al  Al1  1  0.25000000  0.66141861  0.09628825  1
  Al  Al2  1  0.75000000  0.16141861  0.40371175  1
  Al  Al3  1  0.75000000  0.33858139  0.90371175  1
  Te  Te0  1  0.04015415  0.67515102  0.55571133  1
  Te  Te1  1  0.45984585  0.82484898  0.05571133  1
  Te  Te2  1  0.54015415  0.32484898  0.44428867  1
  Te  Te3  1  0.95984585  0.17515102  0.94428867  1
  Te  Te4  1  0.95984585  0.32484898  0.44428867  1
  Te  Te5  1  0.54015415  0.17515102  0.94428867  1
  Te  Te6  1  0.45984585  0.67515102  0.55571133  1
  Te  Te7  1  0.04015415  0.82484898  0.05571133  1
  Te  Te8  1  0.75000000  0.95005882  0.51173560  1
  Te  Te9  1  0.75000000  0.54994118  0.01173560  1
  Te  Te10  1  0.25000000  0.04994118  0.48826440  1
  Te  Te11  1  0.25000000  0.45005882  0.98826440  1
  Te  Te12  1  0.25000000  0.90310440  0.77822685  1
  Te  Te13  1  0.25000000  0.59689560  0.27822685  1
  Te  Te14  1  0.75000000  0.09689560  0.22177315  1
  Te  Te15  1  0.75000000  0.40310440  0.72177315  1
  Te  Te16  1  0.25000000  0.40037789  0.71488236  1
  Te  Te17  1  0.25000000  0.09962211  0.21488236  1
  Te  Te18  1  0.75000000  0.59962211  0.28511764  1
  Te  Te19  1  0.75000000  0.90037789  0.78511764  1
  As  As0  1  0.25000000  0.49843340  0.53787409  1
  As  As1  1  0.25000000  0.00156660  0.03787409  1
  As  As2  1  0.75000000  0.50156660  0.46212591  1
  As  As3  1  0.75000000  0.99843340  0.96212591  1
loop_
_geom_bond_atom_site_label_1
_geom_bond_atom_site_label_2
_geom_bond_distance
_geom_bond_site_symmetry_2
Ba0 Te15 3.605365 1_555
Ba0 Te19 3.636304 1_545
Ba0 Te16 3.648171 1_655
Ba0 Te10 3.656546 1_655
Ba0 Te12 3.658590 1_645
Ba0 Te4 3.712222 1_555
Ba0 Te8 3.729181 1_545
Ba0 Te3 3.751892 1_555
Ba1 Te14 3.605365 1_555
Ba1 Te18 3.636304 1_555
Ba1 Te17 3.648171 1_555
Ba1 Te11 3.656546 1_554
Ba1 Te13 3.658590 1_555
Ba1 Te5 3.712222 1_554
Ba1 Te9 3.729181 1_555
Ba1 Te2 3.751892 1_555
Ba2 Te13 3.605365 1_555
Ba2 Te17 3.636304 1_565
Ba2 Te18 3.648171 1_555
Ba2 Te8 3.656546 1_555
Ba2 Te14 3.658590 1_565
Ba2 Te6 3.712222 1_555
Ba2 Te10 3.729181 1_565
Ba2 Te1 3.751892 1_555
Ba3 Te12 3.605365 1_555
Ba3 Te16 3.636304 1_555
Ba3 Te19 3.648171 1_455
Ba3 Te9 3.656546 1_456
Ba3 Te15 3.658590 1_455
Ba3 Te7 3.712222 1_556
Ba3 Te11 3.729181 1_555
Ba3 Te0 3.751892 1_555
Ba4 Te13 3.605365 1_555
Ba4 Te17 3.636304 1_565
Ba4 Te18 3.648171 1_455
Ba4 Te8 3.656546 1_455
Ba4 Te14 3.658590 1_465
Ba4 Te0 3.712222 1_555
Ba4 Te10 3.729181 1_565
Ba4 Te7 3.751892 1_555
Ba5 Te12 3.605365 1_555
Ba5 Te16 3.636304 1_555
Ba5 Te19 3.648171 1_555
Ba5 Te9 3.656546 1_556
Ba5 Te15 3.658590 1_555
Ba5 Te1 3.712222 1_556
Ba5 Te11 3.729181 1_555
Ba5 Te6 3.751892 1_555
Ba6 Te15 3.605365 1_555
Ba6 Te19 3.636304 1_545
Ba6 Te16 3.648171 1_555
Ba6 Te10 3.656546 1_555
Ba6 Te12 3.658590 1_545
Ba6 Te2 3.712222 1_555
Ba6 Te8 3.729181 1_545
Ba6 Te5 3.751892 1_555
Ba7 Te14 3.605365 1_555
Ba7 Te18 3.636304 1_555
Ba7 Te17 3.648171 1_655
Ba7 Te11 3.656546 1_654
Ba7 Te13 3.658590 1_655
Ba7 Te3 3.712222 1_554
Ba7 Te9 3.729181 1_555
Ba7 Te4 3.751892 1_555
Al0 Te10 2.576260 1_565
Al0 Te12 2.589880 1_555
Al0 Te6 2.646657 1_555
Al0 Te0 2.646657 1_555
Al1 Te11 2.576260 1_554
Al1 Te13 2.589880 1_555
Al1 Te1 2.646657 1_555
Al1 Te7 2.646657 1_555
Al2 Te8 2.576260 1_545
Al2 Te14 2.589880 1_555
Al2 Te4 2.646657 1_555
Al2 Te2 2.646657 1_555
Al3 Te9 2.576260 1_556
Al3 Te15 2.589880 1_555
Al3 Te3 2.646657 1_555
Al3 Te5 2.646657 1_555
As0 Te16 2.628688 1_555
As0 Te6 2.683113 1_555
As0 Te0 2.683113 1_555
As1 Te17 2.628688 1_555
As1 Te1 2.683113 1_545
As1 Te7 2.683113 1_545
As2 Te18 2.628688 1_555
As2 Te4 2.683113 1_555
As2 Te2 2.683113 1_555
As3 Te19 2.628688 1_555
As3 Te3 2.683113 1_565
As3 Te5 2.683113 1_565
