# generated using pymatgen
data_Cd3Si(PPd4)5
_symmetry_space_group_name_H-M   'P 1'
_cell_length_a   8.55192591
_cell_length_b   8.54617651
_cell_length_c   8.54617676
_cell_angle_alpha   60.04450931
_cell_angle_beta   59.97773835
_cell_angle_gamma   59.97773687
_symmetry_Int_Tables_number   1
_chemical_formula_structural   Cd3Si(PPd4)5
_chemical_formula_sum   'Cd3 Si1 P5 Pd20'
_cell_volume   441.66421958
_cell_formula_units_Z   1
loop_
 _symmetry_equiv_pos_site_id
 _symmetry_equiv_pos_as_xyz
  1  'x, y, z'
loop_
 _atom_site_type_symbol
 _atom_site_label
 _atom_site_symmetry_multiplicity
 _atom_site_fract_x
 _atom_site_fract_y
 _atom_site_fract_z
 _atom_site_occupancy
  Cd  Cd0  1  0.99677241  0.00322759  0.00322759  1
  Cd  Cd1  1  0.75197851  0.74802149  0.74802149  1
  Cd  Cd2  1  0.25197851  0.24802149  0.24802149  1
  Si  Si0  1  0.73348009  0.26651991  0.26651991  1
  P  P0  1  0.73413131  0.73203573  0.26586869  1
  P  P1  1  0.73413131  0.26586869  0.73203573  1
  P  P2  1  0.26796427  0.73203573  0.26586869  1
  P  P3  1  0.26618753  0.73381247  0.73381247  1
  P  P4  1  0.26796427  0.26586869  0.73203573  1
  Pd  Pd0  1  0.34053340  0.00168738  0.00168738  1
  Pd  Pd1  1  0.99831262  0.65946660  0.34390917  1
  Pd  Pd2  1  0.34201051  0.00004752  0.65798949  1
  Pd  Pd3  1  0.99995248  0.65798949  0.00004752  1
  Pd  Pd4  1  0.65549645  0.34450355  0.99827463  1
  Pd  Pd5  1  0.61676659  0.61785536  0.14861045  1
  Pd  Pd6  1  0.38418059  0.84777346  0.38386637  1
  Pd  Pd7  1  0.15222654  0.61581941  0.61581941  1
  Pd  Pd8  1  0.65549645  0.99827463  0.34450355  1
  Pd  Pd9  1  0.99831262  0.34390917  0.65946660  1
  Pd  Pd10  1  0.65609083  0.00168738  0.00168738  1
  Pd  Pd11  1  0.00172537  0.99827463  0.34450355  1
  Pd  Pd12  1  0.61676659  0.14861045  0.61785536  1
  Pd  Pd13  1  0.34201051  0.65798949  0.00004752  1
  Pd  Pd14  1  0.38214464  0.38323341  0.38323341  1
  Pd  Pd15  1  0.61613363  0.61581941  0.61581941  1
  Pd  Pd16  1  0.38418059  0.38386637  0.84777346  1
  Pd  Pd17  1  0.99995248  0.00004752  0.65798949  1
  Pd  Pd18  1  0.85138955  0.38323341  0.38323341  1
  Pd  Pd19  1  0.00172537  0.34450355  0.99827463  1
loop_
_geom_bond_atom_site_label_1
_geom_bond_atom_site_label_2
_geom_bond_distance
_geom_bond_site_symmetry_2
Cd0 Pd4 2.916968 1_554
Cd0 Pd8 2.916969 1_545
Cd0 Pd19 2.916969 1_654
Cd0 Pd11 2.916969 1_645
Cd0 Pd0 2.926706 1_655
Cd0 Pd1 2.926710 1_545
Cd0 Pd9 2.926710 1_554
Cd0 Pd10 2.926714 1_555
Cd0 Pd13 2.950554 1_645
Cd0 Pd2 2.950554 1_654
Cd0 Pd3 2.950554 1_545
Cd0 Pd17 2.950554 1_554
Cd1 Pd7 2.793607 1_655
Cd1 Pd15 2.793614 1_555
Cd1 Pd12 2.795985 1_565
Cd1 Pd5 2.795985 1_556
Cd1 Pd9 3.266884 1_555
Cd1 Pd1 3.266884 1_555
Cd1 Pd2 3.318308 1_565
Cd1 Pd13 3.318308 1_556
Cd1 Pd17 3.318308 1_565
Cd1 Pd3 3.318308 1_556
Cd1 Pd10 3.347735 1_566
Cd1 Pd0 3.347738 1_566
Cd2 Pd6 2.793607 1_545
Cd2 Pd16 2.793607 1_554
Cd2 Pd18 2.795985 1_455
Cd2 Pd14 2.795993 1_555
Cd2 Pd10 3.266888 1_555
Cd2 Pd0 3.266892 1_555
Cd2 Pd3 3.318308 1_455
Cd2 Pd17 3.318308 1_455
Cd2 Pd13 3.318308 1_555
Cd2 Pd2 3.318308 1_555
Cd2 Pd1 3.347742 1_455
Cd2 Pd9 3.347742 1_455
P0 Pd3 2.357424 1_555
P0 Pd8 2.371625 1_555
P0 Pd10 2.371987 1_565
P0 Pd1 2.371991 1_555
P0 Pd18 2.434521 1_555
P0 Pd5 2.434529 1_555
P0 Pd6 2.442494 1_555
P0 Pd15 2.442494 1_555
P1 Pd17 2.357424 1_555
P1 Pd4 2.371625 1_555
P1 Pd10 2.371987 1_556
P1 Pd9 2.371991 1_555
P1 Pd18 2.434521 1_555
P1 Pd12 2.434529 1_555
P1 Pd16 2.442494 1_555
P1 Pd15 2.442494 1_555
P2 Pd13 2.357425 1_555
P2 Pd11 2.371625 1_555
P2 Pd1 2.371982 1_455
P2 Pd0 2.371985 1_565
P2 Pd5 2.434521 1_555
P2 Pd14 2.434521 1_555
P2 Pd7 2.442494 1_555
P2 Pd6 2.442501 1_555
P3 Pd17 2.366605 1_465
P3 Pd3 2.366605 1_456
P3 Pd2 2.366605 1_565
P3 Pd13 2.366605 1_556
P3 Pd16 2.442501 1_555
P3 Pd15 2.442501 1_555
P3 Pd6 2.442501 1_555
P3 Pd7 2.442508 1_555
P4 Pd2 2.357425 1_555
P4 Pd19 2.371625 1_555
P4 Pd9 2.371982 1_455
P4 Pd0 2.371985 1_556
P4 Pd12 2.434521 1_555
P4 Pd14 2.434521 1_555
P4 Pd7 2.442494 1_555
P4 Pd16 2.442501 1_555
Pd0 Pd10 2.698624 1_555
Pd0 Pd19 2.912782 1_554
Pd0 Pd11 2.912782 1_545
Pd0 Pd13 2.938011 1_545
Pd0 Pd2 2.938011 1_554
Pd0 Pd16 2.995931 1_554
Pd0 Pd6 2.995931 1_545
Pd0 Pd5 3.003015 1_545
Pd0 Pd12 3.003015 1_554
Pd1 Pd9 2.698624 1_555
Pd1 Pd11 2.912778 1_655
Pd1 Pd8 2.912782 1_555
Pd1 Pd13 2.938015 1_655
Pd1 Pd3 2.938019 1_555
Pd1 Pd7 2.995915 1_655
Pd1 Pd15 2.995928 1_555
Pd1 Pd14 3.003015 1_655
Pd1 Pd18 3.003015 1_555
Pd2 Pd8 2.679128 1_545
Pd2 Pd9 2.938015 1_455
Pd2 Pd6 3.006892 1_545
Pd3 Pd5 2.999112 1_555
Pd3 Pd7 3.006900 1_654
Pd4 Si0 2.388244 1_556
Pd4 Pd9 2.912782 1_555
Pd5 Si0 2.452156 1_555
Pd7 Pd9 2.995915 1_455
Pd8 Si0 2.388244 1_565
Pd10 Pd4 2.912787 1_554
Pd10 Pd8 2.912787 1_545
Pd10 Pd3 2.938015 1_545
Pd10 Pd17 2.938015 1_554
Pd10 Pd16 2.995923 1_554
Pd10 Pd6 2.995923 1_545
Pd10 Pd5 3.003015 1_545
Pd10 Pd12 3.003015 1_554
Pd11 Si0 2.388244 1_465
Pd11 Pd17 2.679129 1_465
Pd12 Si0 2.452156 1_555
Pd12 Pd2 2.999104 1_555
Pd12 Pd17 2.999111 1_555
Pd13 Pd4 2.679128 1_554
Pd13 Pd2 2.925255 1_564
Pd13 Pd3 2.925255 1_455
Pd13 Pd5 2.999104 1_555
Pd13 Pd14 2.999110 1_555
Pd13 Pd16 3.006892 1_554
Pd13 Pd15 3.006899 1_554
Pd14 Si0 2.452156 1_555
Pd14 Pd2 2.999110 1_555
Pd14 Pd9 3.003015 1_455
Pd15 Pd9 2.995928 1_555
Pd15 Pd2 3.006899 1_565
Pd16 Pd3 3.006896 1_456
Pd17 Pd3 2.925255 1_546
Pd17 Pd2 2.925255 1_655
Pd17 Pd9 2.938019 1_555
Pd17 Pd18 2.999108 1_555
Pd17 Pd6 3.006896 1_645
Pd17 Pd7 3.006900 1_645
Pd18 Si0 2.452164 1_555
Pd18 Pd3 2.999108 1_555
Pd18 Pd9 3.003015 1_555
Pd19 Si0 2.388244 1_456
Pd19 Pd3 2.679129 1_456
Pd19 Pd9 2.912778 1_455
