# generated using pymatgen
data_Na2BeBr4
_symmetry_space_group_name_H-M   'P 1'
_cell_length_a   6.49197010
_cell_length_b   8.49042518
_cell_length_c   14.13665018
_cell_angle_alpha   90.00000000
_cell_angle_beta   90.00000000
_cell_angle_gamma   90.00000000
_symmetry_Int_Tables_number   1
_chemical_formula_structural   Na2BeBr4
_chemical_formula_sum   'Na8 Be4 Br16'
_cell_volume   779.20631099
_cell_formula_units_Z   4
loop_
 _symmetry_equiv_pos_site_id
 _symmetry_equiv_pos_as_xyz
  1  'x, y, z'
loop_
 _atom_site_type_symbol
 _atom_site_label
 _atom_site_symmetry_multiplicity
 _atom_site_fract_x
 _atom_site_fract_y
 _atom_site_fract_z
 _atom_site_occupancy
  Na  Na0  1  0.01759464  0.75000000  0.72866459  1
  Na  Na1  1  0.98240536  0.25000000  0.27133541  1
  Na  Na2  1  0.51759464  0.25000000  0.77133541  1
  Na  Na3  1  0.48240536  0.75000000  0.22866459  1
  Na  Na4  1  0.50000000  0.50000000  0.50000000  1
  Na  Na5  1  0.00000000  0.50000000  0.00000000  1
  Na  Na6  1  0.50000000  0.00000000  0.50000000  1
  Na  Na7  1  0.00000000  0.00000000  0.00000000  1
  Be  Be0  1  0.60132936  0.75000000  0.90749014  1
  Be  Be1  1  0.39867064  0.25000000  0.09250986  1
  Be  Be2  1  0.10132936  0.25000000  0.59250986  1
  Be  Be3  1  0.89867064  0.75000000  0.40749014  1
  Br  Br0  1  0.26535055  0.75000000  0.90736705  1
  Br  Br1  1  0.73464945  0.25000000  0.09263295  1
  Br  Br2  1  0.76535055  0.25000000  0.59263295  1
  Br  Br3  1  0.23464945  0.75000000  0.40736705  1
  Br  Br4  1  0.77743948  0.75000000  0.55389279  1
  Br  Br5  1  0.22256052  0.25000000  0.44610721  1
  Br  Br6  1  0.27743948  0.25000000  0.94610721  1
  Br  Br7  1  0.72256052  0.75000000  0.05389279  1
  Br  Br8  1  0.73024143  0.54170723  0.83445843  1
  Br  Br9  1  0.26975857  0.45829277  0.16554157  1
  Br  Br10  1  0.23024143  0.45829277  0.66554157  1
  Br  Br11  1  0.26975857  0.04170723  0.16554157  1
  Br  Br12  1  0.76975857  0.54170723  0.33445843  1
  Br  Br13  1  0.73024143  0.95829277  0.83445843  1
  Br  Br14  1  0.76975857  0.95829277  0.33445843  1
  Br  Br15  1  0.23024143  0.04170723  0.66554157  1
loop_
_geom_bond_atom_site_label_1
_geom_bond_atom_site_label_2
_geom_bond_distance
_geom_bond_site_symmetry_2
Be0 Br0 2.181165 1_555
Be0 Br13 2.212207 1_555
Be0 Br8 2.212207 1_555
Be0 Br7 2.214235 1_556
Be1 Br1 2.181165 1_555
Be1 Br9 2.212207 1_555
Be1 Br11 2.212207 1_555
Be1 Br6 2.214235 1_554
Be2 Br2 2.181165 1_455
Be2 Br10 2.212207 1_555
Be2 Br15 2.212207 1_555
Be2 Br5 2.214235 1_555
Be3 Br3 2.181165 1_655
Be3 Br14 2.212207 1_555
Be3 Br12 2.212207 1_555
Be3 Br4 2.214235 1_555
Br0 Na0 2.994827 1_555
Br0 Na5 3.031141 1_556
Br0 Na7 3.031141 1_566
Br1 Na1 2.994827 1_555
Br1 Na7 3.031141 1_655
Br1 Na5 3.031141 1_655
Br2 Na2 2.994827 1_555
Br2 Na4 3.031141 1_555
Br2 Na6 3.031141 1_555
Br3 Na3 2.994827 1_555
Br3 Na6 3.031141 1_565
Br3 Na4 3.031141 1_555
Br4 Na6 2.886167 1_565
Br4 Na4 2.886167 1_555
Br4 Na0 2.921477 1_655
Br5 Na6 2.886167 1_555
Br5 Na4 2.886167 1_555
Br5 Na1 2.921477 1_455
Br6 Na7 2.886167 1_556
Br6 Na5 2.886167 1_556
Br6 Na2 2.921477 1_555
Br7 Na7 2.886167 1_665
Br7 Na5 2.886167 1_655
Br7 Na3 2.921477 1_555
Br8 Na5 2.944295 1_656
Br8 Na2 2.972573 1_555
Br8 Na0 2.973945 1_655
Br9 Na5 2.944295 1_555
Br9 Na3 2.972573 1_555
Br9 Na1 2.973945 1_455
Br10 Na4 2.944295 1_555
Br10 Na0 2.972573 1_555
Br10 Na2 2.973945 1_555
Br11 Na7 2.944295 1_555
Br11 Na3 2.972573 1_545
Br11 Na1 2.973945 1_455
Br12 Na4 2.944295 1_555
Br12 Na1 2.972573 1_555
Br12 Na3 2.973945 1_555
Br13 Na7 2.944295 1_666
Br13 Na2 2.972573 1_565
Br13 Na0 2.973945 1_655
Br14 Na6 2.944295 1_565
Br14 Na1 2.972573 1_565
Br14 Na3 2.973945 1_555
Br15 Na6 2.944295 1_555
Br15 Na0 2.972573 1_545
Br15 Na2 2.973945 1_555
