# generated using pymatgen
data_Ba4CrCuH12
_symmetry_space_group_name_H-M   'P 1'
_cell_length_a   8.03494267
_cell_length_b   8.03494383
_cell_length_c   5.87969311
_cell_angle_alpha   90.01970691
_cell_angle_beta   90.01970398
_cell_angle_gamma   137.14256371
_symmetry_Int_Tables_number   1
_chemical_formula_structural   Ba4CrCuH12
_chemical_formula_sum   'Ba4 Cr1 Cu1 H12'
_cell_volume   258.19136416
_cell_formula_units_Z   1
loop_
 _symmetry_equiv_pos_site_id
 _symmetry_equiv_pos_as_xyz
  1  'x, y, z'
loop_
 _atom_site_type_symbol
 _atom_site_label
 _atom_site_symmetry_multiplicity
 _atom_site_fract_x
 _atom_site_fract_y
 _atom_site_fract_z
 _atom_site_occupancy
  Ba  Ba0  1  0.35591780  0.64408220  0.00000000  1
  Ba  Ba1  1  0.85756277  0.14243723  0.50000000  1
  Ba  Ba2  1  0.64408220  0.35591780  0.00000000  1
  Ba  Ba3  1  0.14243723  0.85756277  0.50000000  1
  Cr  Cr0  1  0.00000000  0.00000000  0.00000000  1
  Cu  Cu0  1  0.50000000  0.50000000  0.50000000  1
  H  H0  1  0.00063279  0.49981581  0.25344245  1
  H  H1  1  0.50018419  0.99936721  0.74655755  1
  H  H2  1  0.99936721  0.50018419  0.74655755  1
  H  H3  1  0.49981581  0.00063279  0.25344245  1
  H  H4  1  0.11577276  0.88422724  1.00000000  1
  H  H5  1  0.60455521  0.39544479  0.50000000  1
  H  H6  1  0.88422724  0.11577276  0.00000000  1
  H  H7  1  0.39544479  0.60455521  0.50000000  1
  H  H8  1  0.78667526  0.78667526  0.21234951  1
  H  H9  1  0.21332474  0.21332474  0.78765049  1
  H  H10  1  0.78707029  0.78707029  0.78706237  1
  H  H11  1  0.21292971  0.21292971  0.21293763  1
loop_
_geom_bond_atom_site_label_1
_geom_bond_atom_site_label_2
_geom_bond_distance
_geom_bond_site_symmetry_2
Ba0 H0 2.620349 1_555
Ba0 H1 2.620349 1_554
Ba0 H2 2.627632 1_454
Ba0 H3 2.627633 1_565
Ba0 H6 2.965902 1_565
Ba0 H6 2.965902 1_455
Ba0 H7 2.998719 1_554
Ba0 H7 2.998719 1_555
Ba0 H8 3.005514 1_555
Ba0 H9 3.005514 1_554
Ba0 H10 3.009568 1_554
Ba0 H11 3.009569 1_555
Ba1 H1 2.614025 1_545
Ba1 H0 2.614026 1_655
Ba1 H3 2.618533 1_555
Ba1 H2 2.618533 1_555
Ba1 H6 2.966783 1_555
Ba1 H6 2.966783 1_556
Ba1 H7 2.989710 1_655
Ba1 H7 2.989710 1_545
Ba1 H11 2.992580 1_655
Ba1 H10 2.992580 1_545
Ba1 H9 2.994172 1_655
Ba1 H8 2.994172 1_545
Ba2 H2 2.620349 1_554
Ba2 H3 2.620349 1_555
Ba2 H0 2.627632 1_655
Ba2 H1 2.627633 1_544
Ba2 H4 2.965902 1_544
Ba2 H4 2.965902 1_654
Ba2 H5 2.998719 1_555
Ba2 H5 2.998719 1_554
Ba2 H9 3.005514 1_554
Ba2 H8 3.005514 1_555
Ba2 H11 3.009568 1_555
Ba2 H10 3.009569 1_554
Ba3 H3 2.614025 1_565
Ba3 H2 2.614026 1_455
Ba3 H1 2.618533 1_555
Ba3 H0 2.618533 1_555
Ba3 H4 2.966783 1_555
Ba3 H4 2.966783 1_554
Ba3 H5 2.989710 1_455
Ba3 H5 2.989710 1_565
Ba3 H10 2.992580 1_455
Ba3 H11 2.992580 1_565
Ba3 H8 2.994172 1_455
Ba3 H9 2.994172 1_565
Cr0 H6 1.731847 1_455
Cr0 H4 1.731847 1_544
Cr0 H11 1.768436 1_555
Cr0 H10 1.768436 1_444
Cr0 H8 1.769298 1_445
Cr0 H9 1.769298 1_554
Cu0 H7 1.564043 1_555
Cu0 H5 1.564043 1_555
