# generated using pymatgen
data_Hf4Mn4As3P
_symmetry_space_group_name_H-M   'P 1'
_cell_length_a   3.65586134
_cell_length_b   6.52182474
_cell_length_c   7.71893596
_cell_angle_alpha   89.69719176
_cell_angle_beta   90.00000000
_cell_angle_gamma   90.00000000
_symmetry_Int_Tables_number   1
_chemical_formula_structural   Hf4Mn4As3P
_chemical_formula_sum   'Hf4 Mn4 As3 P1'
_cell_volume   184.03914733
_cell_formula_units_Z   1
loop_
 _symmetry_equiv_pos_site_id
 _symmetry_equiv_pos_as_xyz
  1  'x, y, z'
loop_
 _atom_site_type_symbol
 _atom_site_label
 _atom_site_symmetry_multiplicity
 _atom_site_fract_x
 _atom_site_fract_y
 _atom_site_fract_z
 _atom_site_occupancy
  Hf  Hf0  1  0.25000000  0.54105145  0.17512935  1
  Hf  Hf1  1  0.75000000  0.45512915  0.81822305  1
  Hf  Hf2  1  0.75000000  0.97171234  0.67383025  1
  Hf  Hf3  1  0.25000000  0.04216774  0.33076944  1
  Mn  Mn0  1  0.25000000  0.62413901  0.56185468  1
  Mn  Mn1  1  0.75000000  0.36071524  0.44697156  1
  Mn  Mn2  1  0.75000000  0.86701027  0.06033814  1
  Mn  Mn3  1  0.25000000  0.13815416  0.93273614  1
  As  As0  1  0.25000000  0.75794481  0.86673531  1
  As  As1  1  0.75000000  0.24234972  0.13183785  1
  As  As2  1  0.75000000  0.74036129  0.37171890  1
  P  P0  1  0.25000000  0.25926383  0.62985433  1
loop_
_geom_bond_atom_site_label_1
_geom_bond_atom_site_label_2
_geom_bond_distance
_geom_bond_site_symmetry_2
Hf1 P0 2.665867 1_655
Hf1 P0 2.665867 1_555
Hf2 P0 2.639470 1_665
Hf2 P0 2.639470 1_565
Hf3 P0 2.714577 1_555
Mn0 P0 2.434142 1_555
Mn1 P0 2.400421 1_555
Mn1 P0 2.400421 1_655
Mn3 P0 2.463787 1_555
As0 Mn2 2.468153 1_556
As0 Mn2 2.468153 1_456
As0 Mn0 2.514262 1_555
As0 Mn3 2.534089 1_565
As0 Hf1 2.718390 1_455
As0 Hf1 2.718390 1_555
As0 Hf2 2.735003 1_555
As0 Hf2 2.735003 1_455
As0 Hf0 2.762605 1_556
As1 Mn3 2.485170 1_554
As1 Mn3 2.485170 1_654
As1 Mn2 2.512186 1_545
As1 Mn1 2.555936 1_555
As1 Hf0 2.693491 1_655
As1 Hf0 2.693491 1_555
As1 Hf3 2.717074 1_555
As1 Hf3 2.717074 1_655
As1 Hf1 2.783949 1_554
As2 Mn0 2.461319 1_655
As2 Mn0 2.461319 1_555
As2 Mn2 2.537363 1_555
As2 Mn1 2.540219 1_555
As2 Hf3 2.703513 1_565
As2 Hf3 2.703513 1_665
As2 Hf0 2.711921 1_655
As2 Hf0 2.711921 1_555
As2 Hf2 2.784221 1_555
