# generated using pymatgen
data_Rb4Ag3AuO4
_symmetry_space_group_name_H-M   'P 1'
_cell_length_a   7.60504178
_cell_length_b   7.60504121
_cell_length_c   7.72422403
_cell_angle_alpha   98.22868435
_cell_angle_beta   98.22868792
_cell_angle_gamma   135.17514009
_symmetry_Int_Tables_number   1
_chemical_formula_structural   Rb4Ag3AuO4
_chemical_formula_sum   'Rb4 Ag3 Au1 O4'
_cell_volume   291.89674185
_cell_formula_units_Z   1
loop_
 _symmetry_equiv_pos_site_id
 _symmetry_equiv_pos_as_xyz
  1  'x, y, z'
loop_
 _atom_site_type_symbol
 _atom_site_label
 _atom_site_symmetry_multiplicity
 _atom_site_fract_x
 _atom_site_fract_y
 _atom_site_fract_z
 _atom_site_occupancy
  Rb  Rb0  1  0.18762712  0.49775929  0.68538641  1
  Rb  Rb1  1  0.49775929  0.18762712  0.68538641  1
  Rb  Rb2  1  0.50310333  0.81293895  0.31604228  1
  Rb  Rb3  1  0.81293895  0.50310333  0.31604228  1
  Ag  Ag0  1  0.85558662  0.85558662  0.71117323  1
  Ag  Ag1  1  0.14605561  0.85212478  0.99818139  1
  Ag  Ag2  1  0.85212478  0.14605561  0.99818139  1
  Au  Au0  1  0.14608165  0.14608165  0.29216229  1
  O  O0  1  0.71009040  0.00173617  0.71182757  1
  O  O1  1  0.00173617  0.71009040  0.71182757  1
  O  O2  1  0.99936314  0.28753094  0.28689508  1
  O  O3  1  0.28753094  0.99936314  0.28689508  1
loop_
_geom_bond_atom_site_label_1
_geom_bond_atom_site_label_2
_geom_bond_distance
_geom_bond_site_symmetry_2
Ag0 O0 2.050445 1_565
Ag0 O1 2.050445 1_655
Ag1 O1 2.050166 1_555
Ag1 O3 2.067395 1_556
Ag2 O0 2.050166 1_555
Ag2 O2 2.067395 1_556
Au0 O3 2.026338 1_545
Au0 O2 2.026338 1_455
O0 Rb1 2.806125 1_555
O0 Rb2 2.836444 1_545
O0 Rb0 2.908656 1_545
O0 Rb0 2.908662 1_655
O1 Rb0 2.806125 1_555
O1 Rb3 2.836444 1_455
O1 Rb1 2.908656 1_455
O1 Rb1 2.908662 1_565
O2 Rb3 2.833963 1_555
O2 Rb0 2.857109 1_655
O2 Rb2 2.911066 1_545
O2 Rb2 2.911072 1_655
O3 Rb2 2.833963 1_555
O3 Rb1 2.857109 1_565
O3 Rb3 2.911066 1_455
O3 Rb3 2.911072 1_565
