# generated using pymatgen
data_Rb6InAs3
_symmetry_space_group_name_H-M   'P 1'
_cell_length_a   6.08183763
_cell_length_b   10.32386858
_cell_length_c   11.94530478
_cell_angle_alpha   79.00828735
_cell_angle_beta   90.00000000
_cell_angle_gamma   90.00000000
_symmetry_Int_Tables_number   1
_chemical_formula_structural   Rb6InAs3
_chemical_formula_sum   'Rb12 In2 As6'
_cell_volume   736.26355937
_cell_formula_units_Z   2
loop_
 _symmetry_equiv_pos_site_id
 _symmetry_equiv_pos_as_xyz
  1  'x, y, z'
loop_
 _atom_site_type_symbol
 _atom_site_label
 _atom_site_symmetry_multiplicity
 _atom_site_fract_x
 _atom_site_fract_y
 _atom_site_fract_z
 _atom_site_occupancy
  Rb  Rb0  1  0.75000000  0.46987841  0.07171467  1
  Rb  Rb1  1  0.25000000  0.53012159  0.92828533  1
  Rb  Rb2  1  0.75000000  0.74114638  0.22402170  1
  Rb  Rb3  1  0.25000000  0.25885362  0.77597830  1
  Rb  Rb4  1  0.25000000  0.56483745  0.52741716  1
  Rb  Rb5  1  0.75000000  0.43516255  0.47258284  1
  Rb  Rb6  1  0.25000000  0.86600535  0.01899859  1
  Rb  Rb7  1  0.75000000  0.13399465  0.98100141  1
  Rb  Rb8  1  0.25000000  0.88319059  0.67553943  1
  Rb  Rb9  1  0.75000000  0.11680941  0.32446057  1
  Rb  Rb10  1  0.25000000  0.91763445  0.36757847  1
  Rb  Rb11  1  0.75000000  0.08236555  0.63242153  1
  In  In0  1  0.25000000  0.32511837  0.27828411  1
  In  In1  1  0.75000000  0.67488163  0.72171589  1
  As  As0  1  0.25000000  0.17447830  0.12147746  1
  As  As1  1  0.75000000  0.82552170  0.87852254  1
  As  As2  1  0.25000000  0.21110816  0.49343960  1
  As  As3  1  0.75000000  0.78889184  0.50656040  1
  As  As4  1  0.25000000  0.57916697  0.22137415  1
  As  As5  1  0.75000000  0.42083303  0.77862585  1
loop_
_geom_bond_atom_site_label_1
_geom_bond_atom_site_label_2
_geom_bond_distance
_geom_bond_site_symmetry_2
In0 Rb9 3.704588 1_455
In0 Rb9 3.704588 1_555
In1 Rb8 3.704588 1_555
In1 Rb8 3.704588 1_655
As0 In0 2.652916 1_555
As0 Rb7 3.536254 1_454
As0 Rb7 3.536254 1_554
As0 Rb10 3.563804 1_545
As0 Rb6 3.623124 1_545
As0 Rb9 3.863976 1_455
As0 Rb9 3.863976 1_555
As0 Rb1 3.946558 1_554
As0 Rb3 4.052255 1_554
As1 In1 2.652916 1_555
As1 Rb6 3.536254 1_556
As1 Rb6 3.536254 1_656
As1 Rb11 3.563804 1_565
As1 Rb7 3.623124 1_565
As1 Rb8 3.863976 1_655
As1 Rb8 3.863976 1_555
As1 Rb0 3.946558 1_556
As1 Rb2 4.052255 1_556
As2 In0 2.614810 1_555
As2 Rb3 3.502578 1_555
As2 Rb11 3.595624 1_555
As2 Rb11 3.595624 1_455
As2 Rb10 3.630011 1_545
As2 Rb8 3.658456 1_545
As2 Rb4 3.750464 1_555
As2 Rb5 3.799996 1_455
As2 Rb5 3.799996 1_555
As2 Rb9 3.875391 1_455
As2 Rb9 3.875391 1_555
As3 In1 2.614810 1_555
As3 Rb2 3.502578 1_555
As3 Rb10 3.595624 1_655
As3 Rb10 3.595624 1_555
As3 Rb11 3.630011 1_565
As3 Rb9 3.658456 1_565
As3 Rb5 3.750464 1_555
As3 Rb4 3.799996 1_655
As3 Rb4 3.799996 1_555
As3 Rb8 3.875391 1_655
As3 Rb8 3.875391 1_555
As4 In0 2.580915 1_555
As4 Rb6 3.447221 1_555
As4 Rb2 3.473440 1_455
As4 Rb2 3.473440 1_555
As4 Rb4 3.630476 1_555
As4 Rb1 3.631752 1_554
As4 Rb0 3.805962 1_455
As4 Rb0 3.805962 1_555
As5 In1 2.580915 1_555
As5 Rb7 3.447221 1_555
As5 Rb3 3.473440 1_555
As5 Rb3 3.473440 1_655
As5 Rb5 3.630476 1_555
As5 Rb0 3.631752 1_556
As5 Rb1 3.805962 1_655
As5 Rb1 3.805962 1_555
