# generated using pymatgen
data_BaTc2(MoS2)4
_symmetry_space_group_name_H-M   'P 1'
_cell_length_a   6.65758877
_cell_length_b   6.65304643
_cell_length_c   6.70626715
_cell_angle_alpha   88.66627626
_cell_angle_beta   89.51800254
_cell_angle_gamma   89.14220116
_symmetry_Int_Tables_number   1
_chemical_formula_structural   BaTc2(MoS2)4
_chemical_formula_sum   'Ba1 Tc2 Mo4 S8'
_cell_volume   296.91893274
_cell_formula_units_Z   1
loop_
 _symmetry_equiv_pos_site_id
 _symmetry_equiv_pos_as_xyz
  1  'x, y, z'
loop_
 _atom_site_type_symbol
 _atom_site_label
 _atom_site_symmetry_multiplicity
 _atom_site_fract_x
 _atom_site_fract_y
 _atom_site_fract_z
 _atom_site_occupancy
  Ba  Ba0  1  0.00000000  0.00000000  0.00000000  1
  Tc  Tc0  1  0.56612479  0.41683854  0.24116884  1
  Tc  Tc1  1  0.43387521  0.58316146  0.75883116  1
  Mo  Mo0  1  0.41906858  0.23966171  0.56625998  1
  Mo  Mo1  1  0.58093142  0.76033829  0.43374002  1
  Mo  Mo2  1  0.24018398  0.56204048  0.41599663  1
  Mo  Mo3  1  0.75981602  0.43795952  0.58400337  1
  S  S0  1  0.25917452  0.25107829  0.25119283  1
  S  S1  1  0.74082548  0.74892171  0.74880717  1
  S  S2  1  0.38989154  0.72258219  0.11968965  1
  S  S3  1  0.61010846  0.27741781  0.88031035  1
  S  S4  1  0.73027245  0.12527419  0.38838994  1
  S  S5  1  0.26972755  0.87472581  0.61161006  1
  S  S6  1  0.12563666  0.38912860  0.72997997  1
  S  S7  1  0.87436334  0.61087140  0.27002003  1
loop_
_geom_bond_atom_site_label_1
_geom_bond_atom_site_label_2
_geom_bond_distance
_geom_bond_site_symmetry_2
Ba0 S0 2.978521 1_555
Ba0 S1 2.978521 1_444
Ba0 S6 3.240709 1_554
Ba0 S7 3.240709 1_445
Ba0 S2 3.257497 1_545
Ba0 S3 3.257497 1_454
Ba0 S4 3.268187 1_455
Ba0 S5 3.268187 1_544
Mo0 S0 2.373046 1_555
Mo0 S6 2.442800 1_555
Mo0 S3 2.489113 1_555
Mo0 S4 2.499628 1_555
Mo0 Tc0 2.641981 1_555
Mo0 S5 2.647398 1_545
Mo0 Tc1 2.654521 1_555
Mo1 S1 2.373046 1_555
Mo1 S7 2.442800 1_555
Mo1 S2 2.489113 1_555
Mo1 S5 2.499628 1_555
Mo1 Tc1 2.641981 1_555
Mo1 S4 2.647398 1_565
Mo1 Tc0 2.654521 1_555
Mo2 S0 2.369362 1_555
Mo2 S2 2.445932 1_555
Mo2 S6 2.495044 1_555
Mo2 S5 2.496182 1_555
Mo2 Tc0 2.638903 1_555
Mo2 S7 2.645203 1_455
Mo2 Tc1 2.653109 1_555
Mo3 S1 2.369362 1_555
Mo3 S3 2.445932 1_555
Mo3 S7 2.495044 1_555
Mo3 S4 2.496182 1_555
Mo3 Tc1 2.638903 1_555
Mo3 S6 2.645203 1_655
Mo3 Tc0 2.653109 1_555
S0 Tc0 2.336347 1_555
S1 Tc1 2.336347 1_555
S2 Tc0 2.458749 1_555
S2 Tc1 2.624318 1_554
S3 Tc1 2.458749 1_555
S3 Tc0 2.624318 1_556
S4 Tc0 2.407770 1_555
S5 Tc1 2.407770 1_555
S6 Tc1 2.452087 1_555
S7 Tc0 2.452087 1_555
