# generated using pymatgen
data_Na12Cr5Fe3N16
_symmetry_space_group_name_H-M   'P 1'
_cell_length_a   5.49885562
_cell_length_b   9.51251392
_cell_length_c   9.26491913
_cell_angle_alpha   90.61360852
_cell_angle_beta   90.00000000
_cell_angle_gamma   90.00000000
_symmetry_Int_Tables_number   1
_chemical_formula_structural   Na12Cr5Fe3N16
_chemical_formula_sum   'Na12 Cr5 Fe3 N16'
_cell_volume   484.60104818
_cell_formula_units_Z   1
loop_
 _symmetry_equiv_pos_site_id
 _symmetry_equiv_pos_as_xyz
  1  'x, y, z'
loop_
 _atom_site_type_symbol
 _atom_site_label
 _atom_site_symmetry_multiplicity
 _atom_site_fract_x
 _atom_site_fract_y
 _atom_site_fract_z
 _atom_site_occupancy
  Na  Na0  1  0.63683572  0.15562191  0.41717303  1
  Na  Na1  1  0.86307752  0.84483716  0.41671483  1
  Na  Na2  1  0.63683572  0.34437809  0.08282697  1
  Na  Na3  1  0.86307752  0.65516284  0.08328517  1
  Na  Na4  1  0.35888196  0.83623273  0.57943838  1
  Na  Na5  1  0.13719596  0.15399592  0.58385499  1
  Na  Na6  1  0.35888196  0.66376727  0.92056162  1
  Na  Na7  1  0.13719596  0.34600408  0.91614501  1
  Na  Na8  1  0.75116248  0.50297835  0.40834889  1
  Na  Na9  1  0.75116248  0.99702165  0.09165111  1
  Na  Na10  1  0.25014431  0.49853540  0.59209284  1
  Na  Na11  1  0.25014431  0.00146460  0.90790716  1
  Cr  Cr0  1  0.74967331  0.49980501  0.73747839  1
  Cr  Cr1  1  0.74967331  0.00019499  0.76252161  1
  Cr  Cr2  1  0.25120014  0.50511245  0.26473536  1
  Cr  Cr3  1  0.25120014  0.99488755  0.23526464  1
  Cr  Cr4  1  0.18758569  0.25000000  0.25000000  1
  Fe  Fe0  1  0.69673717  0.25000000  0.75000000  1
  Fe  Fe1  1  0.80375059  0.75000000  0.75000000  1
  Fe  Fe2  1  0.31145966  0.75000000  0.25000000  1
  N  N0  1  0.88681152  0.36071083  0.63637810  1
  N  N1  1  0.61275911  0.63693614  0.63705220  1
  N  N2  1  0.88681152  0.13928917  0.86362190  1
  N  N3  1  0.61275911  0.86306386  0.86294780  1
  N  N4  1  0.11930375  0.64496224  0.36577970  1
  N  N5  1  0.38201954  0.36350815  0.36295822  1
  N  N6  1  0.11930375  0.85503776  0.13422030  1
  N  N7  1  0.38201954  0.13649185  0.13704178  1
  N  N8  1  0.54148239  0.39880565  0.83821680  1
  N  N9  1  0.95926793  0.60229326  0.83743366  1
  N  N10  1  0.54148239  0.10119435  0.66178320  1
  N  N11  1  0.95926793  0.89770674  0.66256634  1
  N  N12  1  0.46329459  0.60151487  0.16244746  1
  N  N13  1  0.03712423  0.40242996  0.16514396  1
  N  N14  1  0.46329459  0.89848513  0.33755254  1
  N  N15  1  0.03712423  0.09757004  0.33485604  1
loop_
_geom_bond_atom_site_label_1
_geom_bond_atom_site_label_2
_geom_bond_distance
_geom_bond_site_symmetry_2
Cr0 N9 1.765525 1_555
Cr0 N8 1.767475 1_555
Cr0 N1 1.777682 1_555
Cr0 N0 1.780504 1_555
Cr1 N11 1.765525 1_545
Cr1 N10 1.767475 1_555
Cr1 N3 1.777682 1_545
Cr1 N2 1.780504 1_555
Cr2 N12 1.765750 1_555
Cr2 N4 1.773563 1_555
Cr2 N13 1.780981 1_555
Cr2 N5 1.785027 1_555
Cr3 N14 1.765750 1_555
Cr3 N6 1.773563 1_555
Cr3 N15 1.780981 1_565
Cr3 N7 1.785027 1_565
Cr4 N5 1.838485 1_555
Cr4 N7 1.838485 1_555
Cr4 N13 1.851895 1_555
Cr4 N15 1.851895 1_555
Fe0 N0 1.825772 1_555
Fe0 N2 1.825772 1_555
Fe0 N8 1.837325 1_555
Fe0 N10 1.837325 1_555
Fe1 N3 1.825019 1_555
Fe1 N1 1.825019 1_555
Fe1 N11 1.840135 1_555
Fe1 N9 1.840135 1_555
Fe2 N4 1.813408 1_555
Fe2 N6 1.813408 1_555
Fe2 N14 1.823624 1_555
Fe2 N12 1.823624 1_555
N0 Na10 2.427015 1_655
N0 Na5 2.445119 1_655
N0 Na8 2.629162 1_555
N0 Na7 2.939651 1_655
N1 Na4 2.418598 1_555
N1 Na10 2.423002 1_555
N1 Na8 2.575844 1_555
N2 Na11 2.427015 1_655
N2 Na7 2.445119 1_655
N2 Na9 2.629162 1_546
N2 Na5 2.939651 1_655
N3 Na6 2.418598 1_555
N3 Na11 2.423002 1_565
N3 Na9 2.575844 1_556
N4 Na1 2.409069 1_455
N4 Na8 2.467623 1_455
N4 Na10 2.629979 1_555
N5 Na8 2.458743 1_555
N5 Na0 2.479419 1_555
N5 Na10 2.573719 1_555
N6 Na3 2.409069 1_455
N6 Na9 2.467623 1_455
N6 Na11 2.629979 1_564
N7 Na9 2.458743 1_545
N7 Na2 2.479419 1_555
N7 Na11 2.573719 1_554
N8 Na2 2.388347 1_556
N8 Na7 2.392396 1_555
N8 Na6 2.811003 1_555
N8 Na10 2.951723 1_555
N9 Na3 2.386738 1_556
N9 Na6 2.398778 1_655
N9 Na7 2.733273 1_655
N9 Na10 2.941307 1_655
N10 Na0 2.388347 1_555
N10 Na5 2.392396 1_555
N10 Na4 2.811003 1_545
N10 Na11 2.951723 1_555
N11 Na1 2.386738 1_555
N11 Na4 2.398778 1_655
N11 Na5 2.733273 1_665
N11 Na11 2.941307 1_665
N12 Na3 2.374681 1_555
N12 Na6 2.393964 1_554
N12 Na2 2.720141 1_555
N12 Na8 2.936067 1_555
N13 Na2 2.392184 1_455
N13 Na7 2.426197 1_554
N13 Na3 2.703705 1_455
N13 Na8 2.901474 1_455
N14 Na1 2.374681 1_555
N14 Na4 2.393964 1_555
N14 Na0 2.720141 1_565
N14 Na9 2.936067 1_555
N15 Na0 2.392184 1_455
N15 Na5 2.426197 1_555
N15 Na1 2.703705 1_445
N15 Na9 2.901474 1_445
