# generated using pymatgen
data_Rb2PH3
_symmetry_space_group_name_H-M   'P 1'
_cell_length_a   4.34030789
_cell_length_b   4.35490341
_cell_length_c   8.90192366
_cell_angle_alpha   75.52858427
_cell_angle_beta   89.07346697
_cell_angle_gamma   117.62502179
_symmetry_Int_Tables_number   1
_chemical_formula_structural   Rb2PH3
_chemical_formula_sum   'Rb2 P1 H3'
_cell_volume   142.62925397
_cell_formula_units_Z   1
loop_
 _symmetry_equiv_pos_site_id
 _symmetry_equiv_pos_as_xyz
  1  'x, y, z'
loop_
 _atom_site_type_symbol
 _atom_site_label
 _atom_site_symmetry_multiplicity
 _atom_site_fract_x
 _atom_site_fract_y
 _atom_site_fract_z
 _atom_site_occupancy
  Rb  Rb0  1  0.95187466  0.40949488  0.84640858  1
  Rb  Rb1  1  0.75115078  0.01437635  0.43849150  1
  P  P0  1  0.49394000  0.55143939  0.13941180  1
  H  H0  1  0.34893012  0.20645343  0.64447431  1
  H  H1  1  0.49513947  0.87718015  0.14268117  1
  H  H2  1  0.86206698  0.70103480  0.14386864  1
loop_
_geom_bond_atom_site_label_1
_geom_bond_atom_site_label_2
_geom_bond_distance
_geom_bond_site_symmetry_2
H0 Rb0 3.015048 1_455
H0 Rb1 3.021077 1_555
H0 Rb0 3.079254 1_445
H0 Rb0 3.108437 1_555
H0 Rb1 3.114709 1_455
H0 Rb1 3.124916 1_565
H1 P0 1.423729 1_555
H1 Rb0 2.961942 1_564
H1 Rb1 2.964984 1_565
H2 P0 1.424278 1_555
