# generated using pymatgen
data_K6As4W
_symmetry_space_group_name_H-M   'P 1'
_cell_length_a   10.26678283
_cell_length_b   10.26678285
_cell_length_c   8.15782506
_cell_angle_alpha   89.98875292
_cell_angle_beta   89.98876466
_cell_angle_gamma   120.00580045
_symmetry_Int_Tables_number   1
_chemical_formula_structural   K6As4W
_chemical_formula_sum   'K12 As8 W2'
_cell_volume   744.64341164
_cell_formula_units_Z   2
loop_
 _symmetry_equiv_pos_site_id
 _symmetry_equiv_pos_as_xyz
  1  'x, y, z'
loop_
 _atom_site_type_symbol
 _atom_site_label
 _atom_site_symmetry_multiplicity
 _atom_site_fract_x
 _atom_site_fract_y
 _atom_site_fract_z
 _atom_site_occupancy
  K  K0  1  0.46844792  0.53145740  0.60939874  1
  K  K1  1  0.06275378  0.53142017  0.60927501  1
  K  K2  1  0.53145740  0.46844792  0.10939874  1
  K  K3  1  0.53142017  0.06275378  0.10927501  1
  K  K4  1  0.85375362  0.14549788  0.78972109  1
  K  K5  1  0.29281807  0.14606085  0.79064254  1
  K  K6  1  0.85390170  0.70816672  0.78966675  1
  K  K7  1  0.14549788  0.85375362  0.28972109  1
  K  K8  1  0.70816672  0.85390170  0.28966675  1
  K  K9  1  0.14606085  0.29281807  0.29064254  1
  K  K10  1  0.46834389  0.93681521  0.60882755  1
  K  K11  1  0.93681521  0.46834389  0.10882755  1
  As  As0  1  0.66785344  0.33364791  0.79356856  1
  As  As1  1  0.33364791  0.66785344  0.29356856  1
  As  As2  1  0.20414537  0.79545043  0.90527400  1
  As  As3  1  0.59105851  0.79551728  0.90535185  1
  As  As4  1  0.20432359  0.40865234  0.90596611  1
  As  As5  1  0.79545043  0.20414537  0.40527400  1
  As  As6  1  0.40865234  0.20432359  0.40596611  1
  As  As7  1  0.79551728  0.59105851  0.40535185  1
  W  W0  1  0.66672994  0.33318097  0.49950979  1
  W  W1  1  0.33318097  0.66672994  0.99950979  1
loop_
_geom_bond_atom_site_label_1
_geom_bond_atom_site_label_2
_geom_bond_distance
_geom_bond_site_symmetry_2
As0 W0 2.398904 1_555
As0 K4 3.326056 1_555
As0 K6 3.329928 1_555
As0 K5 3.334449 1_555
As0 K11 3.512363 1_556
As0 K3 3.525568 1_556
As0 K2 3.528876 1_556
As1 W1 2.398904 1_554
As1 K7 3.326056 1_555
As1 K8 3.329928 1_555
As1 K9 3.334449 1_555
As1 K10 3.512364 1_555
As1 K1 3.525568 1_555
As1 K0 3.528876 1_555
As2 W1 2.417350 1_555
As2 K7 3.304151 1_556
As2 K1 3.369633 1_555
As2 K10 3.372088 1_555
As2 K5 3.373637 1_565
As2 K6 3.376619 1_455
As2 K11 3.513664 1_456
As2 K3 3.517416 1_566
As3 W1 2.417734 1_555
As3 K8 3.303876 1_556
As3 K0 3.369547 1_555
As3 K10 3.372109 1_555
As3 K4 3.373390 1_565
As3 K6 3.375937 1_555
As3 K3 3.514491 1_566
As3 K2 3.516158 1_556
As4 W1 2.418328 1_555
As4 K9 3.302458 1_556
As4 K0 3.372374 1_555
As4 K1 3.375183 1_555
As4 K5 3.380729 1_555
As4 K4 3.380768 1_455
As4 K11 3.512738 1_456
As4 K2 3.514494 1_556
As5 W0 2.417350 1_555
As5 K4 3.304151 1_555
As5 K3 3.369633 1_555
As5 K11 3.372088 1_555
As5 K9 3.373637 1_655
As5 K8 3.376619 1_545
As5 K10 3.513664 1_545
As5 K1 3.517416 1_655
As6 W0 2.418328 1_555
As6 K5 3.302458 1_555
As6 K2 3.372374 1_555
As6 K3 3.375184 1_555
As6 K9 3.380729 1_555
As6 K7 3.380769 1_545
As6 K10 3.512738 1_545
As6 K0 3.514494 1_555
As7 W0 2.417734 1_555
As7 K6 3.303876 1_555
As7 K2 3.369547 1_555
As7 K11 3.372109 1_555
As7 K7 3.373390 1_655
As7 K8 3.375937 1_555
As7 K1 3.514490 1_655
As7 K0 3.516158 1_555
