# generated using pymatgen
data_Ba2Ir2I
_symmetry_space_group_name_H-M   'P 1'
_cell_length_a   4.41800088
_cell_length_b   4.41800043
_cell_length_c   19.46078450
_cell_angle_alpha   90.00000000
_cell_angle_beta   90.00000000
_cell_angle_gamma   119.99998871
_symmetry_Int_Tables_number   1
_chemical_formula_structural   Ba2Ir2I
_chemical_formula_sum   'Ba4 Ir4 I2'
_cell_volume   328.95960896
_cell_formula_units_Z   2
loop_
 _symmetry_equiv_pos_site_id
 _symmetry_equiv_pos_as_xyz
  1  'x, y, z'
loop_
 _atom_site_type_symbol
 _atom_site_label
 _atom_site_symmetry_multiplicity
 _atom_site_fract_x
 _atom_site_fract_y
 _atom_site_fract_z
 _atom_site_occupancy
  Ba  Ba0  1  0.00000000  0.00000000  0.11187656  1
  Ba  Ba1  1  0.00000000  0.00000000  0.88812344  1
  Ba  Ba2  1  0.00000000  0.00000000  0.61187656  1
  Ba  Ba3  1  0.00000000  0.00000000  0.38812344  1
  Ir  Ir0  1  0.33333300  0.66666700  0.50033887  1
  Ir  Ir1  1  0.66666700  0.33333300  0.49966113  1
  Ir  Ir2  1  0.66666700  0.33333300  0.00033887  1
  Ir  Ir3  1  0.33333300  0.66666700  0.99966113  1
  I  I0  1  0.33333300  0.66666700  0.25000000  1
  I  I1  1  0.66666700  0.33333300  0.75000000  1
loop_
_geom_bond_atom_site_label_1
_geom_bond_atom_site_label_2
_geom_bond_distance
_geom_bond_site_symmetry_2
Ba0 Ir2 3.349296 1_455
Ba0 Ir2 3.349299 1_445
Ba0 Ir2 3.349299 1_555
Ba0 Ir3 3.357858 1_544
Ba0 Ir3 3.357862 1_554
Ba0 Ir3 3.357862 1_444
Ba0 I0 3.705607 1_545
Ba0 I0 3.705610 1_555
Ba0 I0 3.705610 1_445
Ba1 Ir3 3.349296 1_545
Ba1 Ir3 3.349299 1_555
Ba1 Ir3 3.349299 1_445
Ba1 Ir2 3.357858 1_456
Ba1 Ir2 3.357862 1_446
Ba1 Ir2 3.357862 1_556
Ba1 I1 3.705607 1_455
Ba1 I1 3.705610 1_445
Ba1 I1 3.705610 1_555
Ba2 Ir0 3.349296 1_545
Ba2 Ir0 3.349299 1_555
Ba2 Ir0 3.349299 1_445
Ba2 Ir1 3.357858 1_455
Ba2 Ir1 3.357862 1_445
Ba2 Ir1 3.357862 1_555
Ba2 I1 3.705607 1_455
Ba2 I1 3.705610 1_445
Ba2 I1 3.705610 1_555
Ba3 Ir1 3.349296 1_455
Ba3 Ir1 3.349299 1_445
Ba3 Ir1 3.349299 1_555
Ba3 Ir0 3.357858 1_545
Ba3 Ir0 3.357862 1_555
Ba3 Ir0 3.357862 1_445
Ba3 I0 3.705607 1_545
Ba3 I0 3.705610 1_555
Ba3 I0 3.705610 1_445
Ir0 Ir1 2.550766 1_565
Ir0 Ir1 2.550766 1_455
Ir0 Ir1 2.550773 1_555
Ir2 Ir3 2.550766 1_544
Ir2 Ir3 2.550766 1_654
Ir2 Ir3 2.550773 1_554
