# generated using pymatgen
data_Cs3Na2TiP3
_symmetry_space_group_name_H-M   'P 1'
_cell_length_a   10.62493641
_cell_length_b   10.62493702
_cell_length_c   16.15617002
_cell_angle_alpha   90.00000000
_cell_angle_beta   90.00000000
_cell_angle_gamma   142.59237924
_symmetry_Int_Tables_number   1
_chemical_formula_structural   Cs3Na2TiP3
_chemical_formula_sum   'Cs12 Na8 Ti4 P12'
_cell_volume   1107.96023325
_cell_formula_units_Z   4
loop_
 _symmetry_equiv_pos_site_id
 _symmetry_equiv_pos_as_xyz
  1  'x, y, z'
loop_
 _atom_site_type_symbol
 _atom_site_label
 _atom_site_symmetry_multiplicity
 _atom_site_fract_x
 _atom_site_fract_y
 _atom_site_fract_z
 _atom_site_occupancy
  Cs  Cs0  1  0.94885888  0.61146205  0.82444798  1
  Cs  Cs1  1  0.55114112  0.88853795  0.32444798  1
  Cs  Cs2  1  0.38853795  0.05114112  0.17555202  1
  Cs  Cs3  1  0.05114112  0.38853795  0.17555202  1
  Cs  Cs4  1  0.88853795  0.55114112  0.32444798  1
  Cs  Cs5  1  0.44885888  0.11146205  0.67555202  1
  Cs  Cs6  1  0.61146205  0.94885888  0.82444798  1
  Cs  Cs7  1  0.28751869  0.28751869  0.31415255  1
  Cs  Cs8  1  0.78751869  0.78751869  0.18584745  1
  Cs  Cs9  1  0.21248131  0.21248131  0.81415255  1
  Cs  Cs10  1  0.71248131  0.71248131  0.68584745  1
  Cs  Cs11  1  0.11146205  0.44885888  0.67555202  1
  Na  Na0  1  0.92125450  0.07874550  0.00000000  1
  Na  Na1  1  0.57874550  0.42125450  0.50000000  1
  Na  Na2  1  0.07874550  0.92125450  0.00000000  1
  Na  Na3  1  0.42125450  0.57874550  0.50000000  1
  Na  Na4  1  0.75535711  0.24464289  0.00000000  1
  Na  Na5  1  0.74464289  0.25535711  0.50000000  1
  Na  Na6  1  0.24464289  0.75535711  0.00000000  1
  Na  Na7  1  0.25535711  0.74464289  0.50000000  1
  Ti  Ti0  1  0.58400576  0.41599424  0.00000000  1
  Ti  Ti1  1  0.91599424  0.08400576  0.50000000  1
  Ti  Ti2  1  0.41599424  0.58400576  0.00000000  1
  Ti  Ti3  1  0.08400576  0.91599424  0.50000000  1
  P  P0  1  0.85895176  0.55388534  0.08542031  1
  P  P1  1  0.44611466  0.14104824  0.91457969  1
  P  P2  1  0.64104824  0.94611466  0.58542031  1
  P  P3  1  0.94611466  0.64104824  0.58542031  1
  P  P4  1  0.14104824  0.44611466  0.91457969  1
  P  P5  1  0.55388534  0.85895176  0.08542031  1
  P  P6  1  0.35895176  0.05388534  0.41457969  1
  P  P7  1  0.18808000  0.18808000  0.57792991  1
  P  P8  1  0.68808000  0.68808000  0.92207009  1
  P  P9  1  0.31192000  0.31192000  0.07792991  1
  P  P10  1  0.05388534  0.35895176  0.41457969  1
  P  P11  1  0.81192000  0.81192000  0.42207009  1
loop_
_geom_bond_atom_site_label_1
_geom_bond_atom_site_label_2
_geom_bond_distance
_geom_bond_site_symmetry_2
Cs0 Na6 3.553174 1_656
Cs0 P1 3.635966 1_555
Cs0 Na2 3.683278 1_656
Cs0 P8 3.796143 1_555
Cs0 P1 3.803506 1_665
Cs0 Ti0 3.820322 1_556
Cs0 Na4 3.838143 1_556
Cs0 P3 3.876533 1_555
Cs0 P4 3.882754 1_655
Cs0 Cs11 4.061798 1_655
Cs0 Cs10 4.093456 1_555
Cs0 Cs5 4.170804 1_665
Cs0 Cs5 4.170804 1_555
Cs1 Na7 3.553174 1_555
Cs1 P10 3.635966 1_665
Cs1 Na3 3.683278 1_555
Cs1 P11 3.796143 1_555
Cs1 P10 3.803506 1_555
Cs1 Ti1 3.820322 1_565
Cs1 Na5 3.838143 1_565
Cs1 P5 3.876533 1_555
Cs1 P6 3.882754 1_565
Cs1 Cs2 4.061798 1_565
Cs1 Cs8 4.093456 1_555
Cs1 Cs3 4.170804 1_665
Cs1 Cs3 4.170804 1_555
Cs2 Na6 3.553175 1_545
Cs2 P0 3.635966 1_555
Cs2 Na2 3.683278 1_545
Cs2 P9 3.796143 1_555
Cs2 P0 3.803506 1_445
Cs2 Ti0 3.820322 1_555
Cs2 Na4 3.838143 1_555
Cs2 P6 3.876533 1_555
Cs2 P5 3.882754 1_545
Cs2 Cs7 4.093456 1_555
Cs2 Cs4 4.170804 1_555
Cs2 Cs4 4.170804 1_445
Cs3 Na4 3.553174 1_455
Cs3 P5 3.635966 1_555
Cs3 Na0 3.683278 1_455
Cs3 P9 3.796143 1_555
Cs3 P5 3.803506 1_445
Cs3 Ti2 3.820322 1_555
Cs3 Na6 3.838143 1_555
Cs3 P10 3.876533 1_555
Cs3 P0 3.882754 1_455
Cs3 Cs4 4.061798 1_455
Cs3 Cs7 4.093456 1_555
Cs4 Na5 3.553175 1_555
Cs4 P6 3.635966 1_665
Cs4 Na1 3.683278 1_555
Cs4 P11 3.796143 1_555
Cs4 P6 3.803506 1_555
Cs4 Ti3 3.820322 1_655
Cs4 Na7 3.838143 1_655
Cs4 P0 3.876533 1_555
Cs4 P10 3.882754 1_655
Cs4 Cs8 4.093456 1_555
Cs5 Na5 3.553174 1_555
Cs5 P3 3.635966 1_445
Cs5 Na1 3.683278 1_555
Cs5 P7 3.796143 1_555
Cs5 P3 3.803506 1_555
Cs5 Ti3 3.820322 1_545
Cs5 Na7 3.838143 1_545
Cs5 P1 3.876533 1_555
Cs5 P2 3.882754 1_545
Cs5 Cs6 4.061798 1_545
Cs5 Cs9 4.093456 1_555
Cs6 Na4 3.553175 1_566
Cs6 P4 3.635966 1_555
Cs6 Na0 3.683278 1_566
Cs6 P8 3.796143 1_555
Cs6 P4 3.803506 1_665
Cs6 Ti2 3.820322 1_556
Cs6 Na6 3.838143 1_556
Cs6 P2 3.876533 1_555
Cs6 P1 3.882754 1_565
Cs7 P10 3.516206 1_555
Cs7 P6 3.516206 1_555
Cs7 P11 3.680114 1_445
Cs7 P9 3.820074 1_555
Cs8 P5 3.516206 1_555
Cs8 P0 3.516206 1_555
Cs8 P9 3.680114 1_555
Cs8 P11 3.820074 1_555
Cs9 P1 3.516206 1_555
Cs9 P4 3.516206 1_555
Cs9 P8 3.680114 1_555
Cs9 P7 3.820074 1_555
Cs10 P3 3.516206 1_555
Cs10 P2 3.516206 1_555
Cs10 P7 3.680114 1_665
Cs10 P8 3.820074 1_555
Cs10 Cs6 4.093456 1_555
Cs11 Na7 3.553175 1_555
Cs11 P2 3.635966 1_445
Cs11 Na3 3.683278 1_555
Cs11 P7 3.796143 1_555
Cs11 P2 3.803506 1_555
Cs11 Ti1 3.820322 1_455
Cs11 Na5 3.838143 1_455
Cs11 P4 3.876533 1_555
Cs11 P3 3.882754 1_455
Cs11 Cs9 4.093456 1_555
Cs11 Cs6 4.170804 1_445
Cs11 Cs6 4.170804 1_555
Na0 P5 2.848255 1_545
Na0 P4 2.848255 1_654
Na0 P9 2.935159 1_655
Na0 P8 2.935159 1_544
Na1 P3 2.848255 1_555
Na1 P6 2.848255 1_555
Na1 P7 2.935159 1_555
Na1 P11 2.935159 1_555
Na2 P1 2.848255 1_564
Na2 P0 2.848255 1_455
Na2 P8 2.935159 1_454
Na2 P9 2.935159 1_565
Na3 P10 2.848255 1_555
Na3 P2 2.848255 1_555
Na3 P11 2.935159 1_555
Na3 P7 2.935159 1_555
Na4 P1 2.857686 1_554
Na4 P0 2.857686 1_555
Na4 P4 3.056788 1_654
Na4 P5 3.056788 1_545
Na5 P10 2.857686 1_655
Na5 P2 2.857686 1_545
Na5 P6 3.056788 1_555
Na5 P3 3.056788 1_555
Na6 P5 2.857686 1_555
Na6 P4 2.857686 1_554
Na6 P0 3.056788 1_455
Na6 P1 3.056788 1_564
Na7 P3 2.857686 1_455
Na7 P6 2.857686 1_565
Na7 P2 3.056788 1_555
Na7 P10 3.056788 1_555
P0 Ti0 2.405321 1_555
P1 Ti0 2.405321 1_556
P2 Ti1 2.405321 1_565
P3 Ti3 2.405321 1_655
P4 Ti2 2.405321 1_556
P5 Ti2 2.405321 1_555
P6 Ti3 2.405321 1_545
P7 Ti1 2.467131 1_455
P7 Ti3 2.467131 1_545
P8 Ti2 2.467131 1_556
P8 Ti0 2.467131 1_556
P9 Ti0 2.467131 1_555
P9 Ti2 2.467131 1_555
P10 Ti1 2.405321 1_455
P11 Ti3 2.467131 1_655
P11 Ti1 2.467131 1_565
