# generated using pymatgen
data_Ta3Nb6CrN12
_symmetry_space_group_name_H-M   'P 1'
_cell_length_a   5.22174155
_cell_length_b   5.22174023
_cell_length_c   10.36841229
_cell_angle_alpha   90.00000000
_cell_angle_beta   90.00000000
_cell_angle_gamma   120.00000832
_symmetry_Int_Tables_number   1
_chemical_formula_structural   Ta3Nb6CrN12
_chemical_formula_sum   'Ta3 Nb6 Cr1 N12'
_cell_volume   244.83499278
_cell_formula_units_Z   1
loop_
 _symmetry_equiv_pos_site_id
 _symmetry_equiv_pos_as_xyz
  1  'x, y, z'
loop_
 _atom_site_type_symbol
 _atom_site_label
 _atom_site_symmetry_multiplicity
 _atom_site_fract_x
 _atom_site_fract_y
 _atom_site_fract_z
 _atom_site_occupancy
  Ta  Ta0  1  0.33333300  0.66666700  0.00000000  1
  Ta  Ta1  1  0.33333300  0.66666700  0.50000000  1
  Ta  Ta2  1  0.66666700  0.33333300  0.50000000  1
  Nb  Nb0  1  0.67817909  0.67636771  0.75056441  1
  Nb  Nb1  1  0.32363229  0.00181138  0.75056441  1
  Nb  Nb2  1  0.99818862  0.32182091  0.75056441  1
  Nb  Nb3  1  0.32363229  0.32182091  0.24943559  1
  Nb  Nb4  1  0.67817909  0.00181138  0.24943559  1
  Nb  Nb5  1  0.99818862  0.67636771  0.24943559  1
  Cr  Cr0  1  0.66666700  0.33333300  0.00000000  1
  N  N0  1  0.65668537  0.65691863  0.38174920  1
  N  N1  1  0.34308137  0.99976774  0.38174920  1
  N  N2  1  0.00023226  0.34331463  0.38174920  1
  N  N3  1  0.34308137  0.34331463  0.61825080  1
  N  N4  1  0.65668537  0.99976774  0.61825080  1
  N  N5  1  0.00023226  0.65691863  0.61825080  1
  N  N6  1  0.35175102  0.35085317  0.88018656  1
  N  N7  1  0.64914683  0.00089786  0.88018656  1
  N  N8  1  0.99910214  0.64824898  0.88018656  1
  N  N9  1  0.64914683  0.64824898  0.11981344  1
  N  N10  1  0.35175102  0.00089786  0.11981344  1
  N  N11  1  0.99910214  0.35085317  0.11981344  1
loop_
_geom_bond_atom_site_label_1
_geom_bond_atom_site_label_2
_geom_bond_distance
_geom_bond_site_symmetry_2
Cr0 N7 2.099076 1_554
Cr0 N11 2.099077 1_555
Cr0 N10 2.099078 1_555
Cr0 N8 2.099078 1_554
Cr0 N9 2.099081 1_555
Cr0 N6 2.099081 1_554
N0 Ta1 2.107771 1_555
N0 Ta2 2.109279 1_555
N0 Nb5 2.211611 1_555
N0 Nb3 2.219295 1_555
N0 Nb4 2.221692 1_565
N1 Ta1 2.107771 1_555
N1 Ta2 2.109275 1_565
N1 Nb3 2.211606 1_565
N1 Nb4 2.219297 1_565
N1 Nb5 2.221694 1_455
N2 Ta1 2.107771 1_555
N2 Ta2 2.109271 1_455
N2 Nb4 2.211609 1_455
N2 Nb5 2.219293 1_455
N2 Nb3 2.221696 1_555
N3 Ta1 2.107771 1_555
N3 Ta2 2.109280 1_555
N3 Nb1 2.211611 1_555
N3 Nb0 2.219295 1_555
N3 Nb2 2.221692 1_455
N4 Ta1 2.107771 1_555
N4 Ta2 2.109271 1_565
N4 Nb2 2.211609 1_565
N4 Nb1 2.219293 1_565
N4 Nb0 2.221696 1_555
N5 Ta1 2.107771 1_555
N5 Ta2 2.109275 1_455
N5 Nb0 2.211607 1_455
N5 Nb2 2.219297 1_455
N5 Nb1 2.221694 1_565
N6 Ta0 2.104904 1_556
N6 Nb0 2.168769 1_555
N6 Nb1 2.209550 1_555
N6 Nb2 2.226627 1_455
N7 Ta0 2.104902 1_546
N7 Nb1 2.168770 1_555
N7 Nb2 2.209550 1_555
N7 Nb0 2.226626 1_545
N8 Ta0 2.104900 1_656
N8 Nb2 2.168769 1_555
N8 Nb0 2.209550 1_555
N8 Nb1 2.226626 1_665
N9 Ta0 2.104904 1_555
N9 Nb3 2.168769 1_555
N9 Nb5 2.209550 1_555
N9 Nb4 2.226626 1_565
N10 Ta0 2.104900 1_545
N10 Nb4 2.168770 1_555
N10 Nb3 2.209550 1_555
N10 Nb5 2.226626 1_445
N11 Ta0 2.104902 1_655
N11 Nb5 2.168769 1_555
N11 Nb4 2.209550 1_555
N11 Nb3 2.226627 1_655
