# generated using pymatgen
data_Y3CuIr7Rh
_symmetry_space_group_name_H-M   'P 1'
_cell_length_a   5.27852128
_cell_length_b   5.27852212
_cell_length_c   17.14756525
_cell_angle_alpha   90.00000000
_cell_angle_beta   90.00000000
_cell_angle_gamma   119.99998864
_symmetry_Int_Tables_number   1
_chemical_formula_structural   Y3CuIr7Rh
_chemical_formula_sum   'Y6 Cu2 Ir14 Rh2'
_cell_volume   413.76882661
_cell_formula_units_Z   2
loop_
 _symmetry_equiv_pos_site_id
 _symmetry_equiv_pos_as_xyz
  1  'x, y, z'
loop_
 _atom_site_type_symbol
 _atom_site_label
 _atom_site_symmetry_multiplicity
 _atom_site_fract_x
 _atom_site_fract_y
 _atom_site_fract_z
 _atom_site_occupancy
  Y  Y0  1  0.33333300  0.66666700  0.95885316  1
  Y  Y1  1  0.66666700  0.33333300  0.04114684  1
  Y  Y2  1  0.66666700  0.33333300  0.45885316  1
  Y  Y3  1  0.33333300  0.66666700  0.54114684  1
  Y  Y4  1  0.33333300  0.66666700  0.75000000  1
  Y  Y5  1  0.66666700  0.33333300  0.25000000  1
  Cu  Cu0  1  0.33333300  0.66666700  0.25000000  1
  Cu  Cu1  1  0.66666700  0.33333300  0.75000000  1
  Ir  Ir0  1  0.16918280  0.83081720  0.37397940  1
  Ir  Ir1  1  0.16918280  0.33836659  0.37397940  1
  Ir  Ir2  1  0.66163341  0.83081720  0.37397940  1
  Ir  Ir3  1  0.83081720  0.16918280  0.62602060  1
  Ir  Ir4  1  0.83081720  0.66163341  0.62602060  1
  Ir  Ir5  1  0.33836659  0.16918280  0.62602060  1
  Ir  Ir6  1  0.83081720  0.16918280  0.87397940  1
  Ir  Ir7  1  0.83081720  0.66163341  0.87397940  1
  Ir  Ir8  1  0.33836659  0.16918280  0.87397940  1
  Ir  Ir9  1  0.16918280  0.83081720  0.12602060  1
  Ir  Ir10  1  0.16918280  0.33836659  0.12602060  1
  Ir  Ir11  1  0.66163341  0.83081720  0.12602060  1
  Ir  Ir12  1  0.00000000  0.00000000  0.50000000  1
  Ir  Ir13  1  0.00000000  0.00000000  0.00000000  1
  Rh  Rh0  1  0.00000000  0.00000000  0.25000000  1
  Rh  Rh1  1  0.00000000  0.00000000  0.75000000  1
loop_
_geom_bond_atom_site_label_1
_geom_bond_atom_site_label_2
_geom_bond_distance
_geom_bond_site_symmetry_2
Y0 Y1 3.358405 1_456
Y0 Y1 3.358405 1_566
Y0 Y1 3.358413 1_556
Y0 Y4 3.581323 1_555
Y1 Y5 3.581323 1_555
Y2 Y3 3.358405 1_655
Y2 Y3 3.358405 1_545
Y2 Y3 3.358413 1_555
Y2 Y5 3.581323 1_555
Y3 Y4 3.581323 1_555
Cu0 Ir0 2.602298 1_555
Cu0 Ir9 2.602298 1_555
Cu0 Ir2 2.602298 1_555
Cu0 Ir11 2.602298 1_555
Cu0 Ir1 2.602298 1_555
Cu0 Ir10 2.602298 1_555
Cu0 Rh0 3.047553 1_565
Cu0 Y5 3.047553 1_455
Cu0 Y5 3.047553 1_565
Cu0 Rh0 3.047558 1_665
Cu0 Rh0 3.047558 1_555
Cu0 Y5 3.047562 1_555
Cu1 Ir6 2.602298 1_555
Cu1 Ir3 2.602298 1_555
Cu1 Ir8 2.602298 1_555
Cu1 Ir5 2.602298 1_555
Cu1 Ir7 2.602298 1_555
Cu1 Ir4 2.602298 1_555
Cu1 Rh1 3.047553 1_655
Cu1 Y4 3.047553 1_655
Cu1 Y4 3.047553 1_545
Cu1 Rh1 3.047558 1_555
Cu1 Rh1 3.047558 1_665
Cu1 Y4 3.047562 1_555
Ir0 Ir2 2.599411 1_555
Ir0 Ir1 2.599411 1_555
Ir0 Rh0 2.629102 1_565
Ir0 Ir12 2.657485 1_565
Ir0 Ir2 2.679110 1_455
Ir0 Ir1 2.679111 1_565
Ir0 Y2 3.014026 1_455
Ir0 Y2 3.014026 1_565
Ir0 Y3 3.235617 1_555
Ir0 Y5 3.389081 1_455
Ir0 Y5 3.389081 1_565
Ir1 Ir2 2.599412 1_555
Ir1 Rh0 2.629105 1_555
Ir1 Ir12 2.657487 1_555
Ir1 Ir2 2.679111 1_445
Ir1 Y2 3.014021 1_455
Ir1 Y2 3.014031 1_555
Ir1 Y3 3.235617 1_555
Ir1 Y5 3.389077 1_455
Ir1 Y5 3.389085 1_555
Ir2 Rh0 2.629105 1_665
Ir2 Y2 3.014022 1_565
Ir2 Y2 3.014031 1_555
Ir2 Y3 3.235617 1_555
Ir2 Y5 3.389077 1_565
Ir2 Y5 3.389085 1_555
Ir3 Ir5 2.599411 1_555
Ir3 Ir4 2.599411 1_555
Ir3 Rh1 2.629102 1_655
Ir3 Ir5 2.679110 1_655
Ir3 Ir4 2.679111 1_545
Ir3 Y3 3.014026 1_655
Ir3 Y3 3.014026 1_545
Ir3 Y2 3.235617 1_555
Ir3 Y4 3.389081 1_655
Ir3 Y4 3.389081 1_545
Ir4 Ir5 2.599412 1_555
Ir4 Rh1 2.629105 1_665
Ir4 Ir5 2.679111 1_665
Ir4 Y3 3.014021 1_655
Ir4 Y3 3.014031 1_555
Ir4 Y2 3.235617 1_555
Ir4 Y4 3.389077 1_655
Ir4 Y4 3.389085 1_555
Ir5 Rh1 2.629105 1_555
Ir5 Y3 3.014022 1_545
Ir5 Y3 3.014031 1_555
Ir5 Y2 3.235617 1_555
Ir5 Y4 3.389077 1_545
Ir5 Y4 3.389085 1_555
Ir6 Ir8 2.599411 1_555
Ir6 Ir7 2.599411 1_555
Ir6 Rh1 2.629102 1_655
Ir6 Ir8 2.679110 1_655
Ir6 Ir7 2.679111 1_545
Ir6 Y0 3.014026 1_655
Ir6 Y0 3.014026 1_545
Ir6 Y1 3.235617 1_556
Ir6 Y4 3.389081 1_655
Ir6 Y4 3.389081 1_545
Ir7 Ir8 2.599412 1_555
Ir7 Rh1 2.629105 1_665
Ir7 Ir8 2.679111 1_665
Ir7 Y0 3.014021 1_655
Ir7 Y0 3.014031 1_555
Ir7 Y1 3.235617 1_556
Ir7 Y4 3.389077 1_655
Ir7 Y4 3.389085 1_555
Ir8 Rh1 2.629105 1_555
Ir8 Y0 3.014022 1_545
Ir8 Y0 3.014031 1_555
Ir8 Y1 3.235617 1_556
Ir8 Y4 3.389077 1_545
Ir8 Y4 3.389085 1_555
Ir9 Rh0 2.629102 1_565
Ir9 Y1 3.014026 1_455
Ir9 Y1 3.014026 1_565
Ir9 Y0 3.235617 1_554
Ir9 Y5 3.389081 1_455
Ir9 Y5 3.389081 1_565
Ir10 Ir9 2.599411 1_555
Ir10 Ir11 2.599412 1_555
Ir10 Rh0 2.629105 1_555
Ir10 Ir13 2.657487 1_555
Ir10 Ir9 2.679111 1_545
Ir10 Ir11 2.679111 1_445
Ir10 Y1 3.014021 1_455
Ir10 Y1 3.014031 1_555
Ir10 Y0 3.235617 1_554
Ir10 Y5 3.389077 1_455
Ir10 Y5 3.389085 1_555
Ir11 Ir9 2.599411 1_555
Ir11 Rh0 2.629105 1_665
Ir11 Ir13 2.657487 1_665
Ir11 Ir9 2.679110 1_655
Ir11 Y1 3.014022 1_565
Ir11 Y1 3.014031 1_555
Ir11 Y0 3.235617 1_554
Ir11 Y5 3.389077 1_565
Ir11 Y5 3.389085 1_555
Ir12 Ir3 2.657485 1_455
Ir12 Ir5 2.657487 1_555
Ir12 Ir2 2.657487 1_445
Ir12 Ir4 2.657487 1_445
Ir12 Y3 3.128163 1_545
Ir12 Y2 3.128163 1_455
Ir12 Y2 3.128168 1_555
Ir12 Y3 3.128168 1_445
Ir12 Y3 3.128168 1_555
Ir12 Y2 3.128168 1_445
Ir13 Ir9 2.657485 1_545
Ir13 Ir6 2.657485 1_454
Ir13 Ir8 2.657487 1_554
Ir13 Ir7 2.657487 1_444
Ir13 Y1 3.128163 1_455
Ir13 Y0 3.128163 1_544
Ir13 Y1 3.128168 1_555
Ir13 Y0 3.128168 1_444
Ir13 Y0 3.128168 1_554
Ir13 Y1 3.128168 1_445
Rh0 Y5 3.047553 1_455
Rh0 Y5 3.047558 1_555
Rh0 Y5 3.047558 1_445
Rh1 Y4 3.047553 1_545
Rh1 Y4 3.047558 1_445
Rh1 Y4 3.047558 1_555
