# generated using pymatgen
data_Ta6Si6Tc5W
_symmetry_space_group_name_H-M   'P 1'
_cell_length_a   7.52173875
_cell_length_b   7.50727548
_cell_length_c   7.50727549
_cell_angle_alpha   126.95259455
_cell_angle_beta   125.08834823
_cell_angle_gamma   79.81890088
_symmetry_Int_Tables_number   1
_chemical_formula_structural   Ta6Si6Tc5W
_chemical_formula_sum   'Ta6 Si6 Tc5 W1'
_cell_volume   267.80641038
_cell_formula_units_Z   1
loop_
 _symmetry_equiv_pos_site_id
 _symmetry_equiv_pos_as_xyz
  1  'x, y, z'
loop_
 _atom_site_type_symbol
 _atom_site_label
 _atom_site_symmetry_multiplicity
 _atom_site_fract_x
 _atom_site_fract_y
 _atom_site_fract_z
 _atom_site_occupancy
  Ta  Ta0  1  0.55634011  0.09626545  0.04201685  1
  Ta  Ta1  1  0.44365989  0.48567674  0.53992534  1
  Ta  Ta2  1  0.96371527  0.49488234  0.03617087  1
  Ta  Ta3  1  0.03628473  0.07245560  0.53116706  1
  Ta  Ta4  1  0.75425850  0.91253060  0.66074426  1
  Ta  Ta5  1  0.24574150  0.90648475  0.15827310  1
  Si  Si0  1  0.33630626  0.82523635  0.49755462  1
  Si  Si1  1  0.66369374  0.16124635  0.48892809  1
  Si  Si2  1  0.82656713  0.82115970  0.98604488  1
  Si  Si3  1  0.17343287  0.15947676  0.99459257  1
  Si  Si4  1  0.77178568  0.53512963  0.26045032  1
  Si  Si5  1  0.22821432  0.48866464  0.76334495  1
  Tc  Tc0  1  0.15973867  0.75138158  0.65595556  1
  Tc  Tc1  1  0.84026133  0.49621590  0.59164292  1
  Tc  Tc2  1  0.59700673  0.74957684  0.09170552  1
  Tc  Tc3  1  0.40299327  0.49469778  0.15257011  1
  Tc  Tc4  1  0.50000000  0.24546445  0.74546445  1
  W  W0  1  0.00000000  0.24545154  0.24545154  1
loop_
_geom_bond_atom_site_label_1
_geom_bond_atom_site_label_2
_geom_bond_distance
_geom_bond_site_symmetry_2
Ta0 Tc2 2.785921 1_545
Ta0 Tc0 2.787654 1_544
Ta0 Tc1 2.800363 1_555
Ta0 Tc3 2.803985 1_555
Ta0 W0 2.851032 1_655
Ta0 Tc4 2.852406 1_554
Ta1 Tc3 2.785916 1_555
Ta1 Tc1 2.787652 1_555
Ta1 Tc0 2.800364 1_555
Ta1 Tc2 2.803991 1_556
Ta1 W0 2.851032 1_555
Ta1 Tc4 2.852406 1_555
Ta2 Tc3 2.891590 1_655
Ta2 Tc1 2.910912 1_554
Ta2 W0 2.985449 1_655
Ta2 Tc4 3.013123 1_554
Ta2 Tc0 3.142540 1_655
Ta2 Tc2 3.152320 1_555
Ta3 Tc2 2.891590 1_445
Ta3 Tc0 2.910917 1_545
Ta3 W0 2.985449 1_555
Ta3 Tc4 3.013122 1_555
Ta3 Tc1 3.142533 1_455
Ta3 Tc3 3.152319 1_556
Ta4 W0 2.836560 1_666
Ta4 Tc4 2.847186 1_565
Ta4 Tc1 2.859609 1_555
Ta4 Tc3 2.885851 1_555
Ta4 Tc0 3.088079 1_655
Ta4 Tc2 3.092582 1_555
Ta5 W0 2.836563 1_565
Ta5 Tc4 2.847182 1_565
Ta5 Tc0 2.859612 1_554
Ta5 Tc2 2.885849 1_555
Ta5 Tc1 3.088082 1_454
Ta5 Tc3 3.092578 1_555
Si0 Tc0 2.520732 1_555
Si0 Tc3 2.538383 1_555
Si0 Tc4 2.571336 1_565
Si0 Ta2 2.640289 1_455
Si0 Ta0 2.645768 1_566
Si0 Ta5 2.655171 1_555
Si0 Ta4 2.673676 1_555
Si0 Ta1 2.683912 1_555
Si0 Ta3 2.685478 1_565
Si1 Tc1 2.520730 1_555
Si1 Tc2 2.538368 1_545
Si1 Tc4 2.571344 1_555
Si1 Ta3 2.640282 1_655
Si1 Ta1 2.645777 1_555
Si1 Ta4 2.655181 1_545
Si1 Ta5 2.673678 1_545
Si1 Ta0 2.683906 1_555
Si1 Ta2 2.685488 1_556
Si2 Tc1 2.511169 1_555
Si2 Tc2 2.512901 1_556
Si2 W0 2.594309 1_666
Si2 Ta2 2.640882 1_556
Si2 Ta0 2.651012 1_566
Si2 Ta5 2.656010 1_656
Si2 Ta4 2.661846 1_555
Si2 Ta3 2.672620 1_666
Si2 Ta1 2.681076 1_555
Si3 Tc0 2.511162 1_545
Si3 Tc3 2.512901 1_556
Si3 W0 2.594306 1_556
Si3 Ta3 2.640886 1_555
Si3 Ta1 2.651014 1_556
Si3 Ta4 2.656012 1_445
Si3 Ta5 2.661851 1_546
Si3 Ta2 2.672625 1_456
Si3 Ta0 2.681074 1_556
Si4 Tc2 2.390417 1_555
Si4 Tc3 2.421187 1_555
Si4 Tc1 2.424954 1_555
Si4 Tc0 2.425882 1_655
Si4 Tc4 2.496390 1_554
Si4 W0 2.509320 1_655
Si4 Ta2 2.653113 1_555
Si4 Ta4 2.676210 1_555
Si4 Ta0 2.916612 1_555
Si5 Tc3 2.390415 1_556
Si5 Tc2 2.421187 1_556
Si5 Tc0 2.424954 1_555
Si5 Tc1 2.425879 1_455
Si5 Tc4 2.496390 1_555
Si5 W0 2.509326 1_555
Si5 Ta3 2.653111 1_555
Si5 Ta5 2.676207 1_556
Si5 Ta1 2.916618 1_555
Tc0 W0 2.941114 1_555
Tc0 Tc1 2.976346 1_455
Tc0 Tc2 3.030997 1_556
Tc1 W0 2.941113 1_655
Tc1 Tc3 3.030997 1_555
Tc2 Tc4 2.929131 1_554
Tc2 Tc3 2.967257 1_555
Tc3 Tc4 2.929131 1_554
