# generated using pymatgen
data_Y5TcRuO12
_symmetry_space_group_name_H-M   'P 1'
_cell_length_a   6.80517167
_cell_length_b   6.80517311
_cell_length_c   7.41185592
_cell_angle_alpha   73.98068164
_cell_angle_beta   73.98067722
_cell_angle_gamma   49.24150383
_symmetry_Int_Tables_number   1
_chemical_formula_structural   Y5TcRuO12
_chemical_formula_sum   'Y5 Tc1 Ru1 O12'
_cell_volume   247.72912097
_cell_formula_units_Z   1
loop_
 _symmetry_equiv_pos_site_id
 _symmetry_equiv_pos_as_xyz
  1  'x, y, z'
loop_
 _atom_site_type_symbol
 _atom_site_label
 _atom_site_symmetry_multiplicity
 _atom_site_fract_x
 _atom_site_fract_y
 _atom_site_fract_z
 _atom_site_occupancy
  Y  Y0  1  0.50146453  0.49853547  0.50000000  1
  Y  Y1  1  0.18678869  0.18872390  0.17163487  1
  Y  Y2  1  0.81127610  0.81321131  0.82836513  1
  Y  Y3  1  0.80423277  0.80251854  0.35844455  1
  Y  Y4  1  0.19748146  0.19576723  0.64155545  1
  Tc  Tc0  1  0.28109638  0.71890362  1.00000000  1
  Ru  Ru0  1  0.72603844  0.27396156  0.00000000  1
  O  O0  1  0.99891456  0.99911834  0.17613753  1
  O  O1  1  0.00088166  0.00108544  0.82386247  1
  O  O2  1  0.49664785  0.50202429  0.79991045  1
  O  O3  1  0.49797571  0.50335215  0.20008955  1
  O  O4  1  0.59881037  0.09519160  0.57311823  1
  O  O5  1  0.90480840  0.40118963  0.42688177  1
  O  O6  1  0.40251087  0.90444116  0.42542051  1
  O  O7  1  0.41041914  0.92013235  0.91675008  1
  O  O8  1  0.07986765  0.58958086  0.08324992  1
  O  O9  1  0.58935298  0.08412841  0.08360503  1
  O  O10  1  0.91587159  0.41064702  0.91639497  1
  O  O11  1  0.09555884  0.59748913  0.57457949  1
loop_
_geom_bond_atom_site_label_1
_geom_bond_atom_site_label_2
_geom_bond_distance
_geom_bond_site_symmetry_2
O0 Ru0 2.026367 1_565
O0 Tc0 2.058428 1_654
O0 Y1 2.325363 1_665
O0 Y3 2.387390 1_555
O1 Ru0 2.026367 1_456
O1 Tc0 2.058428 1_545
O1 Y2 2.325363 1_445
O1 Y4 2.387390 1_555
O2 Tc0 1.926110 1_555
O2 Ru0 1.972024 1_556
O2 Y0 2.220538 1_555
O3 Tc0 1.926110 1_554
O3 Ru0 1.972024 1_555
O3 Y0 2.220538 1_555
O4 Y4 2.273972 1_555
O4 Y2 2.288048 1_545
O4 Y0 2.295537 1_555
O4 Y3 2.310552 1_545
O5 Y3 2.273972 1_555
O5 Y1 2.288048 1_655
O5 Y0 2.295536 1_555
O5 Y4 2.310552 1_655
O6 Y3 2.272933 1_555
O6 Y1 2.289817 1_565
O6 Y0 2.307162 1_555
O6 Y4 2.313180 1_565
O7 Tc0 1.959094 1_555
O7 Y2 2.255009 1_555
O7 Y4 2.397742 1_565
O7 Y1 2.431620 1_566
O8 Tc0 1.959094 1_554
O8 Y1 2.255009 1_555
O8 Y3 2.397741 1_455
O8 Y2 2.431620 1_454
O9 Ru0 1.930583 1_555
O9 Y1 2.271775 1_555
O9 Y3 2.406421 1_545
O9 Y2 2.443609 1_544
O10 Ru0 1.930583 1_556
O10 Y2 2.271776 1_555
O10 Y4 2.406421 1_655
O10 Y1 2.443609 1_656
O11 Y4 2.272934 1_555
O11 Y2 2.289817 1_455
O11 Y0 2.307162 1_555
O11 Y3 2.313179 1_455
