# generated using pymatgen
data_Mg3VP6N13
_symmetry_space_group_name_H-M   'P 1'
_cell_length_a   7.00625756
_cell_length_b   7.00625820
_cell_length_c   7.00625827
_cell_angle_alpha   109.58869363
_cell_angle_beta   109.58869869
_cell_angle_gamma   109.58869644
_symmetry_Int_Tables_number   1
_chemical_formula_structural   Mg3VP6N13
_chemical_formula_sum   'Mg3 V1 P6 N13'
_cell_volume   263.59251922
_cell_formula_units_Z   1
loop_
 _symmetry_equiv_pos_site_id
 _symmetry_equiv_pos_as_xyz
  1  'x, y, z'
loop_
 _atom_site_type_symbol
 _atom_site_label
 _atom_site_symmetry_multiplicity
 _atom_site_fract_x
 _atom_site_fract_y
 _atom_site_fract_z
 _atom_site_occupancy
  Mg  Mg0  1  0.00329570  0.70858757  0.00329570  1
  Mg  Mg1  1  0.70858757  0.00329570  0.00329570  1
  Mg  Mg2  1  0.00329570  0.00329570  0.70858757  1
  V  V0  1  0.29389723  0.29389723  0.29389723  1
  P  P0  1  0.49759740  0.24844263  0.74882530  1
  P  P1  1  0.49759740  0.74882530  0.24844263  1
  P  P2  1  0.74882530  0.24844263  0.49759740  1
  P  P3  1  0.24844263  0.49759740  0.74882530  1
  P  P4  1  0.74882530  0.49759740  0.24844263  1
  P  P5  1  0.24844263  0.74882530  0.49759740  1
  N  N0  1  0.02343831  0.02343831  0.02343831  1
  N  N1  1  0.99909643  0.73066858  0.45475214  1
  N  N2  1  0.26479128  0.71699580  0.26479128  1
  N  N3  1  0.27772220  0.54220947  0.54220947  1
  N  N4  1  0.54220947  0.54220947  0.27772220  1
  N  N5  1  0.54220947  0.27772220  0.54220947  1
  N  N6  1  0.73066858  0.99909643  0.45475214  1
  N  N7  1  0.45475214  0.99909643  0.73066858  1
  N  N8  1  0.73066858  0.45475214  0.99909643  1
  N  N9  1  0.26479128  0.26479128  0.71699580  1
  N  N10  1  0.71699580  0.26479128  0.26479128  1
  N  N11  1  0.99909643  0.45475214  0.73066858  1
  N  N12  1  0.45475214  0.73066858  0.99909643  1
loop_
_geom_bond_atom_site_label_1
_geom_bond_atom_site_label_2
_geom_bond_distance
_geom_bond_site_symmetry_2
Mg0 N2 2.078759 1_555
Mg0 N8 2.112254 1_454
Mg0 N11 2.112254 1_454
Mg0 N0 2.115443 1_565
Mg1 N10 2.078759 1_555
Mg1 N7 2.112254 1_544
Mg1 N12 2.112254 1_544
Mg1 N0 2.115443 1_655
Mg2 N9 2.078759 1_555
Mg2 N6 2.112254 1_445
Mg2 N1 2.112254 1_445
Mg2 N0 2.115443 1_556
N0 V0 1.883888 1_555
N1 P4 1.621227 1_555
N1 P5 1.622340 1_655
N2 P1 1.619209 1_555
N2 P5 1.619210 1_555
N3 P5 1.641602 1_555
N3 P3 1.641602 1_555
N3 V0 2.073919 1_555
N4 P4 1.641602 1_555
N4 P1 1.641602 1_555
N4 V0 2.073919 1_555
N5 P2 1.641602 1_555
N5 P0 1.641602 1_555
N5 V0 2.073919 1_555
N6 P1 1.621227 1_555
N6 P2 1.622340 1_565
N7 P5 1.621227 1_555
N7 P0 1.622340 1_565
N8 P0 1.621227 1_555
N8 P4 1.622340 1_556
N9 P0 1.619209 1_555
N9 P3 1.619210 1_555
N10 P4 1.619210 1_555
N10 P2 1.619210 1_555
N11 P2 1.621227 1_555
N11 P3 1.622340 1_655
N12 P3 1.621227 1_555
N12 P1 1.622340 1_556
