# generated using pymatgen
data_Na2Ca2(NiH4)3
_symmetry_space_group_name_H-M   'P 1'
_cell_length_a   6.02802528
_cell_length_b   5.97700590
_cell_length_c   5.97700577
_cell_angle_alpha   108.75933813
_cell_angle_beta   109.65356672
_cell_angle_gamma   109.65356211
_symmetry_Int_Tables_number   1
_chemical_formula_structural   Na2Ca2(NiH4)3
_chemical_formula_sum   'Na2 Ca2 Ni3 H12'
_cell_volume   166.47197864
_cell_formula_units_Z   1
loop_
 _symmetry_equiv_pos_site_id
 _symmetry_equiv_pos_as_xyz
  1  'x, y, z'
loop_
 _atom_site_type_symbol
 _atom_site_label
 _atom_site_symmetry_multiplicity
 _atom_site_fract_x
 _atom_site_fract_y
 _atom_site_fract_z
 _atom_site_occupancy
  Na  Na0  1  0.00000000  0.00000000  0.50000000  1
  Na  Na1  1  0.00000000  0.50000000  0.00000000  1
  Ca  Ca0  1  0.50000000  0.00000000  0.00000000  1
  Ca  Ca1  1  0.50000000  0.50000000  0.50000000  1
  Ni  Ni0  1  0.00000000  0.50000000  0.50000000  1
  Ni  Ni1  1  0.50000000  0.50000000  0.00000000  1
  Ni  Ni2  1  0.50000000  0.00000000  0.50000000  1
  H  H0  1  0.71396975  0.72256513  0.99140562  1
  H  H1  1  0.28603025  0.00859438  0.27743487  1
  H  H2  1  1.00000000  0.27870618  0.27870618  1
  H  H3  1  0.28603025  0.27743487  0.00859438  1
  H  H4  1  0.71396975  0.99140562  0.72256513  1
  H  H5  1  0.00000000  0.72129382  0.72129382  1
  H  H6  1  0.74957932  0.25049552  0.49908380  1
  H  H7  1  0.74957932  0.49908380  0.25049552  1
  H  H8  1  0.50000000  0.25000000  0.75000000  1
  H  H9  1  0.25042068  0.50091620  0.74950448  1
  H  H10  1  0.25042068  0.74950448  0.50091620  1
  H  H11  1  0.50000000  0.75000000  0.25000000  1
loop_
_geom_bond_atom_site_label_1
_geom_bond_atom_site_label_2
_geom_bond_distance
_geom_bond_site_symmetry_2
Ca0 H3 2.417534 1_555
Ca0 H0 2.417534 1_544
Ca0 H1 2.417534 1_555
Ca0 H4 2.417534 1_544
Ca0 H8 2.429337 1_554
Ca0 H11 2.429337 1_545
Ca0 H6 2.448854 1_555
Ca0 H10 2.448854 1_544
Ca0 H7 2.448854 1_555
Ca0 H9 2.448854 1_544
Ca0 H2 2.468753 1_555
Ca0 H5 2.468753 1_544
Ca1 H0 2.417539 1_555
Ca1 H3 2.417539 1_555
Ca1 H4 2.417539 1_555
Ca1 H1 2.417539 1_555
Ca1 H11 2.429337 1_555
Ca1 H8 2.429337 1_555
Ca1 H10 2.448854 1_555
Ca1 H6 2.448854 1_555
Ca1 H7 2.448854 1_555
Ca1 H9 2.448854 1_555
Ca1 H5 2.468753 1_655
Ca1 H2 2.468753 1_455
H0 Ni1 1.539561 1_556
H0 Na0 2.504462 1_666
H0 Na1 2.504467 1_656
H1 Ni2 1.539560 1_555
H1 Na1 2.504463 1_545
H1 Na0 2.504467 1_555
H2 Ni0 1.540681 1_655
H2 Na1 2.437544 1_655
H2 Na0 2.437544 1_655
H3 Ni1 1.539561 1_555
H3 Na0 2.504462 1_554
H3 Na1 2.504467 1_555
H4 Ni2 1.539560 1_565
H4 Na1 2.504463 1_666
H4 Na0 2.504467 1_665
H5 Ni0 1.540681 1_555
H5 Na1 2.437544 1_556
H5 Na0 2.437544 1_565
H6 Ni0 1.725573 1_655
H6 Ni2 1.732264 1_555
H6 Na0 2.457723 1_655
H6 Na1 2.457723 1_656
H7 Ni0 1.725573 1_655
H7 Ni1 1.732264 1_555
H7 Na1 2.457723 1_655
H7 Na0 2.457723 1_665
H8 Ni2 1.740538 1_555
H8 Ni1 1.740538 1_556
H8 Na1 2.460650 1_656
H8 Na0 2.460650 1_555
H9 Ni0 1.725573 1_555
H9 Ni1 1.732264 1_556
H9 Na1 2.457723 1_556
H9 Na0 2.457723 1_555
H10 Ni0 1.725573 1_555
H10 Ni2 1.732264 1_565
H10 Na0 2.457723 1_565
H10 Na1 2.457723 1_555
H11 Ni1 1.740538 1_555
H11 Ni2 1.740538 1_565
H11 Na1 2.460650 1_555
H11 Na0 2.460650 1_665
