# generated using pymatgen
data_ZrGeTe
_symmetry_space_group_name_H-M   'P 1'
_cell_length_a   3.76136572
_cell_length_b   3.76136572
_cell_length_c   10.12633786
_cell_angle_alpha   90.00000000
_cell_angle_beta   90.00000000
_cell_angle_gamma   90.00000000
_symmetry_Int_Tables_number   1
_chemical_formula_structural   ZrGeTe
_chemical_formula_sum   'Zr2 Ge2 Te2'
_cell_volume   143.26613268
_cell_formula_units_Z   2
loop_
 _symmetry_equiv_pos_site_id
 _symmetry_equiv_pos_as_xyz
  1  'x, y, z'
loop_
 _atom_site_type_symbol
 _atom_site_label
 _atom_site_symmetry_multiplicity
 _atom_site_fract_x
 _atom_site_fract_y
 _atom_site_fract_z
 _atom_site_occupancy
  Zr  Zr0  1  0.25000000  0.25000000  0.21331520  1
  Zr  Zr1  1  0.75000000  0.75000000  0.78668480  1
  Ge  Ge0  1  0.75000000  0.25000000  0.00000000  1
  Ge  Ge1  1  0.25000000  0.75000000  0.00000000  1
  Te  Te0  1  0.25000000  0.25000000  0.65659381  1
  Te  Te1  1  0.75000000  0.75000000  0.34340619  1
loop_
_geom_bond_atom_site_label_1
_geom_bond_atom_site_label_2
_geom_bond_distance
_geom_bond_site_symmetry_2
Ge0 Ge1 2.659687 1_655
Ge0 Ge1 2.659687 1_545
Ge0 Ge1 2.659687 1_645
Ge0 Ge1 2.659687 1_555
Ge0 Zr0 2.864089 1_655
Ge0 Zr0 2.864089 1_555
Ge0 Zr1 2.864089 1_544
Ge0 Zr1 2.864089 1_554
Ge1 Zr0 2.864089 1_565
Ge1 Zr0 2.864089 1_555
Ge1 Zr1 2.864089 1_454
Ge1 Zr1 2.864089 1_554
Te0 Zr1 2.968052 1_555
Te0 Zr1 2.968052 1_455
Te0 Zr1 2.968052 1_545
Te0 Zr1 2.968052 1_445
Te1 Zr0 2.968052 1_555
Te1 Zr0 2.968052 1_665
Te1 Zr0 2.968052 1_565
Te1 Zr0 2.968052 1_655
