# generated using pymatgen
data_Cs2Mn2ZnTe4
_symmetry_space_group_name_H-M   'P 1'
_cell_length_a   10.62748950
_cell_length_b   10.62748949
_cell_length_c   10.62748929
_cell_angle_alpha   144.33580852
_cell_angle_beta   104.86740883
_cell_angle_gamma   86.04166168
_symmetry_Int_Tables_number   1
_chemical_formula_structural   Cs2Mn2ZnTe4
_chemical_formula_sum   'Cs4 Mn4 Zn2 Te8'
_cell_volume   655.35891350
_cell_formula_units_Z   2
loop_
 _symmetry_equiv_pos_site_id
 _symmetry_equiv_pos_as_xyz
  1  'x, y, z'
loop_
 _atom_site_type_symbol
 _atom_site_label
 _atom_site_symmetry_multiplicity
 _atom_site_fract_x
 _atom_site_fract_y
 _atom_site_fract_z
 _atom_site_occupancy
  Cs  Cs0  1  0.12280873  0.23460659  0.35798318  1
  Cs  Cs1  1  0.37719127  0.73517444  0.11179786  1
  Cs  Cs2  1  0.62337658  0.26539341  0.88820214  1
  Cs  Cs3  1  0.87662342  0.76482556  0.64201682  1
  Mn  Mn0  1  0.48775184  0.25000000  0.23775184  1
  Mn  Mn1  1  0.75000000  0.25000000  0.50000000  1
  Mn  Mn2  1  0.25000000  0.75000000  0.50000000  1
  Mn  Mn3  1  0.01224816  0.25000000  0.76224816  1
  Zn  Zn0  1  0.51303976  0.75000000  0.76303976  1
  Zn  Zn1  1  0.98696024  0.75000000  0.23696024  1
  Te  Te0  1  0.21818300  0.07624893  0.59242304  1
  Te  Te1  1  0.28181700  0.87424004  0.85806494  1
  Te  Te2  1  0.01617411  0.42375107  0.14193506  1
  Te  Te3  1  0.48382589  0.62575996  0.40757696  1
  Te  Te4  1  0.78097134  0.91161306  0.39160022  1
  Te  Te5  1  0.71902966  0.11062887  0.13064272  1
  Te  Te6  1  0.97998715  0.58838694  0.86935728  1
  Te  Te7  1  0.52001285  0.38937113  0.60839978  1
loop_
_geom_bond_atom_site_label_1
_geom_bond_atom_site_label_2
_geom_bond_distance
_geom_bond_site_symmetry_2
Cs0 Te0 3.917797 1_555
Cs0 Te1 3.947634 1_555
Cs0 Te7 3.960820 1_555
Cs0 Te6 3.985051 1_444
Cs0 Te6 4.027225 1_455
Cs0 Te5 4.034233 1_455
Cs0 Te1 4.049836 1_544
Cs0 Te2 4.055422 1_555
Cs1 Te1 3.917807 1_554
Cs1 Te0 3.947632 1_565
Cs1 Te6 3.960820 1_454
Cs1 Te7 3.985053 1_554
Cs1 Te7 4.027232 1_565
Cs1 Te4 4.034243 1_555
Cs1 Te0 4.049829 1_554
Cs1 Te3 4.055432 1_555
Cs2 Te2 3.917798 1_656
Cs2 Te3 3.947632 1_545
Cs2 Te5 3.960830 1_556
Cs2 Te4 3.985053 1_556
Cs2 Te4 4.027232 1_545
Cs2 Te7 4.034243 1_555
Cs2 Te3 4.049830 1_556
Cs2 Te0 4.055432 1_555
Cs3 Te3 3.917797 1_555
Cs3 Te2 3.947625 1_655
Cs3 Te4 3.960820 1_555
Cs3 Te5 3.985053 1_566
Cs3 Te5 4.027232 1_555
Cs3 Te6 4.034234 1_555
Cs3 Te2 4.049827 1_666
Cs3 Te1 4.055431 1_655
Mn0 Te3 2.740568 1_555
Mn0 Te1 2.740569 1_544
Mn0 Te7 2.779272 1_555
Mn0 Te5 2.779280 1_555
Mn1 Te5 2.769028 1_555
Mn1 Te6 2.769034 1_555
Mn1 Te4 2.769036 1_545
Mn1 Te7 2.769036 1_555
Mn2 Te1 2.752351 1_555
Mn2 Te2 2.752359 1_555
Mn2 Te0 2.752361 1_565
Mn2 Te3 2.752361 1_555
Mn3 Te0 2.740568 1_555
Mn3 Te2 2.740578 1_556
Mn3 Te4 2.779272 1_445
Mn3 Te6 2.779279 1_455
Te0 Zn1 2.731392 1_445
Te1 Zn0 2.731390 1_555
Te2 Zn1 2.731399 1_455
Te3 Zn0 2.731392 1_555
Te4 Zn1 2.680254 1_555
Te5 Zn0 2.680260 1_544
Te6 Zn1 2.680263 1_556
Te7 Zn0 2.680254 1_555
