# generated using pymatgen
data_Cu4Bi(AuO4)3
_symmetry_space_group_name_H-M   'P 1'
_cell_length_a   6.48540141
_cell_length_b   6.48540217
_cell_length_c   6.48540194
_cell_angle_alpha   109.47122293
_cell_angle_beta   109.47122533
_cell_angle_gamma   109.47120928
_symmetry_Int_Tables_number   1
_chemical_formula_structural   Cu4Bi(AuO4)3
_chemical_formula_sum   'Cu4 Bi1 Au3 O12'
_cell_volume   209.98525692
_cell_formula_units_Z   1
loop_
 _symmetry_equiv_pos_site_id
 _symmetry_equiv_pos_as_xyz
  1  'x, y, z'
loop_
 _atom_site_type_symbol
 _atom_site_label
 _atom_site_symmetry_multiplicity
 _atom_site_fract_x
 _atom_site_fract_y
 _atom_site_fract_z
 _atom_site_occupancy
  Cu  Cu0  1  0.50000000  0.00000000  0.00000000  1
  Cu  Cu1  1  0.50000000  0.50000000  0.50000000  1
  Cu  Cu2  1  0.00000000  0.50000000  0.00000000  1
  Cu  Cu3  1  0.00000000  0.00000000  0.50000000  1
  Bi  Bi0  1  0.00000000  0.00000000  0.00000000  1
  Au  Au0  1  0.00000000  0.50000000  0.50000000  1
  Au  Au1  1  0.50000000  0.50000000  0.00000000  1
  Au  Au2  1  0.50000000  0.00000000  0.50000000  1
  O  O0  1  0.29835423  0.82380907  0.12216430  1
  O  O1  1  0.70164577  0.17619093  0.87783570  1
  O  O2  1  0.70164577  0.82380907  0.52545484  1
  O  O3  1  0.87783570  0.70164577  0.17619093  1
  O  O4  1  0.82380907  0.12216430  0.29835423  1
  O  O5  1  0.17619093  0.47454516  0.29835423  1
  O  O6  1  0.47454516  0.29835423  0.17619093  1
  O  O7  1  0.17619093  0.87783570  0.70164577  1
  O  O8  1  0.29835423  0.17619093  0.47454516  1
  O  O9  1  0.12216430  0.29835423  0.82380907  1
  O  O10  1  0.82380907  0.52545484  0.70164577  1
  O  O11  1  0.52545484  0.70164577  0.82380907  1
loop_
_geom_bond_atom_site_label_1
_geom_bond_atom_site_label_2
_geom_bond_distance
_geom_bond_site_symmetry_2
Cu0 O4 1.985363 1_555
Cu0 O7 1.985363 1_544
Cu0 O6 1.985365 1_555
Cu0 O11 1.985365 1_544
Cu0 O0 1.985371 1_545
Cu0 O1 1.985371 1_554
Cu1 O5 1.985365 1_555
Cu1 O10 1.985365 1_555
Cu1 O11 1.985365 1_555
Cu1 O6 1.985365 1_555
Cu1 O2 1.985365 1_555
Cu1 O8 1.985365 1_555
Cu2 O0 1.985364 1_555
Cu2 O1 1.985364 1_454
Cu2 O5 1.985365 1_555
Cu2 O10 1.985365 1_454
Cu2 O3 1.985370 1_455
Cu2 O9 1.985370 1_554
Cu3 O9 1.985363 1_555
Cu3 O3 1.985363 1_445
Cu3 O8 1.985365 1_555
Cu3 O2 1.985365 1_445
Cu3 O7 1.985370 1_545
Cu3 O4 1.985370 1_455
Bi0 O8 2.594793 1_555
Bi0 O2 2.594793 1_444
Bi0 O6 2.594793 1_555
Bi0 O11 2.594793 1_444
Bi0 O5 2.594793 1_555
Bi0 O10 2.594793 1_444
Bi0 O0 2.594794 1_545
Bi0 O1 2.594794 1_454
Bi0 O4 2.594794 1_455
Bi0 O7 2.594794 1_544
Bi0 O9 2.594794 1_554
Bi0 O3 2.594794 1_445
Au0 O7 2.005292 1_555
Au0 O4 2.005292 1_455
Au0 O10 2.005297 1_455
Au0 O5 2.005297 1_555
Au1 O3 2.005292 1_555
Au1 O9 2.005292 1_554
Au1 O11 2.005297 1_554
Au1 O6 2.005297 1_555
Au2 O1 2.005292 1_555
Au2 O0 2.005292 1_545
Au2 O2 2.005297 1_545
Au2 O8 2.005297 1_555
