# generated using pymatgen
data_Zr12Cd12CS3
_symmetry_space_group_name_H-M   'P 1'
_cell_length_a   9.32311884
_cell_length_b   9.23694323
_cell_length_c   9.32312397
_cell_angle_alpha   59.69079744
_cell_angle_beta   59.99986524
_cell_angle_gamma   59.69100283
_symmetry_Int_Tables_number   1
_chemical_formula_structural   Zr12Cd12CS3
_chemical_formula_sum   'Zr12 Cd12 C1 S3'
_cell_volume   565.05483591
_cell_formula_units_Z   1
loop_
 _symmetry_equiv_pos_site_id
 _symmetry_equiv_pos_as_xyz
  1  'x, y, z'
loop_
 _atom_site_type_symbol
 _atom_site_label
 _atom_site_symmetry_multiplicity
 _atom_site_fract_x
 _atom_site_fract_y
 _atom_site_fract_z
 _atom_site_occupancy
  Zr  Zr0  1  0.81083603  0.19158529  0.18674264  1
  Zr  Zr1  1  0.18168438  0.80181086  0.18168338  1
  Zr  Zr2  1  0.83482239  0.80181086  0.18168338  1
  Zr  Zr3  1  0.18168338  0.80181086  0.83482239  1
  Zr  Zr4  1  0.81083503  0.19158629  0.81083503  1
  Zr  Zr5  1  0.18674364  0.19158529  0.81083603  1
  Zr  Zr6  1  0.43916397  0.05841471  0.06325736  1
  Zr  Zr7  1  0.06831562  0.44818914  0.06831662  1
  Zr  Zr8  1  0.41517761  0.44818914  0.06831662  1
  Zr  Zr9  1  0.06831662  0.44818914  0.41517761  1
  Zr  Zr10  1  0.43916497  0.05841371  0.43916497  1
  Zr  Zr11  1  0.06325636  0.05841471  0.43916397  1
  Cd  Cd0  1  0.41245811  0.41351942  0.76156436  1
  Cd  Cd1  1  0.41245911  0.41351842  0.41245711  1
  Cd  Cd2  1  0.76156536  0.41351842  0.41245711  1
  Cd  Cd3  1  0.41408658  0.75774025  0.41408658  1
  Cd  Cd4  1  0.83754189  0.83648058  0.48843564  1
  Cd  Cd5  1  0.83754089  0.83648158  0.83754289  1
  Cd  Cd6  1  0.48843464  0.83648158  0.83754289  1
  Cd  Cd7  1  0.83591342  0.49225975  0.83591342  1
  Cd  Cd8  1  0.62500000  0.62500000  0.12500000  1
  Cd  Cd9  1  0.62500000  0.62500000  0.62500000  1
  Cd  Cd10  1  0.12500000  0.62500000  0.62500000  1
  Cd  Cd11  1  0.62500000  0.12500000  0.62500000  1
  C  C0  1  0.12500000  0.62500000  0.12500000  1
  S  S0  1  0.12500000  0.12500000  0.62500000  1
  S  S1  1  0.12500000  0.12500000  0.12500000  1
  S  S2  1  0.62500000  0.12500000  0.12500000  1
loop_
_geom_bond_atom_site_label_1
_geom_bond_atom_site_label_2
_geom_bond_distance
_geom_bond_site_symmetry_2
Cd0 Cd11 2.867358 1_555
Cd0 Cd9 2.870048 1_555
Cd0 Cd10 2.870058 1_555
Cd0 Zr7 3.047502 1_556
Cd0 Zr8 3.047503 1_556
Cd0 Zr6 3.048983 1_556
Cd0 Cd3 3.194940 1_555
Cd0 Cd2 3.254763 1_555
Cd0 Cd1 3.254770 1_555
Cd0 Zr3 3.342718 1_555
Cd0 Zr5 3.358397 1_555
Cd0 Zr4 3.358401 1_555
Cd1 Cd11 2.867356 1_555
Cd1 Cd8 2.870043 1_555
Cd1 Cd10 2.870068 1_555
Cd1 Zr8 3.047493 1_555
Cd1 Zr9 3.047503 1_555
Cd1 Zr10 3.048978 1_555
Cd1 Cd3 3.194953 1_555
Cd1 Cd2 3.254759 1_555
Cd1 Zr1 3.342717 1_555
Cd1 Zr0 3.358398 1_555
Cd1 Zr5 3.358400 1_555
Cd2 Cd8 2.870053 1_555
Cd2 Cd9 2.870069 1_555
Cd2 Zr7 3.047482 1_655
Cd2 Zr9 3.047502 1_655
Cd2 Zr11 3.048977 1_655
Cd2 Cd3 3.194958 1_555
Cd2 Zr2 3.342712 1_555
Cd2 Zr0 3.358400 1_555
Cd2 Zr4 3.358401 1_555
Cd3 Cd8 2.869882 1_555
Cd3 Cd9 2.869885 1_555
Cd3 Zr6 3.031206 1_565
Cd3 Zr10 3.031212 1_565
Cd3 Zr11 3.031220 1_565
Cd3 Zr2 3.531179 1_555
Cd3 Zr1 3.531181 1_555
Cd3 Zr3 3.531183 1_555
Cd4 Cd9 2.870048 1_555
Cd4 Zr1 3.047502 1_655
Cd4 Zr2 3.047503 1_555
Cd4 Zr0 3.048983 1_565
Cd4 Cd7 3.194940 1_555
Cd4 Cd6 3.254763 1_555
Cd4 Cd5 3.254770 1_555
Cd4 Zr9 3.342718 1_655
Cd4 Zr11 3.358397 1_665
Cd4 Zr10 3.358401 1_565
Cd5 Cd8 2.870043 1_556
Cd5 Zr2 3.047493 1_556
Cd5 Zr3 3.047503 1_655
Cd5 Zr4 3.048978 1_565
Cd5 Cd7 3.194953 1_555
Cd5 Cd6 3.254759 1_555
Cd5 Zr7 3.342717 1_656
Cd5 Zr6 3.358398 1_566
Cd5 Zr11 3.358400 1_665
Cd6 Cd8 2.870053 1_556
Cd6 Cd9 2.870069 1_555
Cd6 Zr1 3.047482 1_556
Cd6 Zr3 3.047502 1_555
Cd6 Zr5 3.048977 1_565
Cd6 Cd7 3.194958 1_555
Cd6 Zr8 3.342712 1_556
Cd6 Zr6 3.358400 1_566
Cd6 Zr10 3.358401 1_565
Cd7 Cd8 2.869882 1_556
Cd7 Cd9 2.869885 1_555
Cd7 Zr0 3.031206 1_556
Cd7 Zr4 3.031212 1_555
Cd7 Zr5 3.031220 1_655
Cd7 Zr8 3.531179 1_556
Cd7 Zr7 3.531181 1_656
Cd7 Zr9 3.531183 1_655
Cd8 Zr6 3.321293 1_565
Cd8 Zr0 3.321293 1_555
Cd8 Zr7 3.450049 1_655
Cd8 Zr1 3.450049 1_555
Cd8 Zr2 3.450055 1_555
Cd8 Zr8 3.450055 1_555
Cd9 Zr10 3.321283 1_565
Cd9 Zr4 3.321283 1_555
Cd9 Zr8 3.450048 1_556
Cd9 Zr2 3.450048 1_555
Cd9 Zr9 3.450056 1_655
Cd9 Zr3 3.450056 1_555
Cd10 Cd3 2.869875 1_555
Cd10 Cd7 2.869875 1_455
Cd10 Cd4 2.870058 1_455
Cd10 Cd5 2.870068 1_455
Cd10 Zr11 3.321287 1_565
Cd10 Zr5 3.321287 1_555
Cd10 Zr7 3.450051 1_556
Cd10 Zr1 3.450051 1_555
Cd10 Zr3 3.450058 1_555
Cd10 Zr9 3.450058 1_555
Cd11 Cd2 2.867346 1_555
Cd11 Cd6 2.867346 1_545
Cd11 Cd5 2.867356 1_545
Cd11 Cd4 2.867358 1_545
Cd11 Zr11 3.396280 1_655
Cd11 Zr5 3.396280 1_555
Cd11 Zr4 3.396284 1_555
Cd11 Zr10 3.396284 1_555
Cd11 Zr6 3.396287 1_556
Cd11 Zr0 3.396287 1_555
C0 Zr9 2.290721 1_555
C0 Zr3 2.290721 1_554
C0 Zr8 2.290727 1_555
C0 Zr2 2.290727 1_455
C0 Zr1 2.290732 1_555
C0 Zr7 2.290732 1_555
S0 Zr4 2.478239 1_455
S0 Zr10 2.478239 1_555
S0 Zr5 2.478246 1_555
S0 Zr11 2.478246 1_555
S0 Zr9 2.562234 1_555
S0 Zr3 2.562234 1_545
S1 Zr11 2.478234 1_555
S1 Zr5 2.478234 1_554
S1 Zr6 2.478237 1_555
S1 Zr0 2.478237 1_455
S1 Zr7 2.562233 1_555
S1 Zr1 2.562233 1_545
S2 Zr10 2.478237 1_555
S2 Zr4 2.478237 1_554
S2 Zr0 2.478238 1_555
S2 Zr6 2.478238 1_555
S2 Zr8 2.562239 1_555
S2 Zr2 2.562239 1_545
