# generated using pymatgen
data_GaFe2SiRu4
_symmetry_space_group_name_H-M   'P 1'
_cell_length_a   7.24733043
_cell_length_b   7.24733033
_cell_length_c   7.24733114
_cell_angle_alpha   33.53554616
_cell_angle_beta   33.53554727
_cell_angle_gamma   33.53554991
_symmetry_Int_Tables_number   1
_chemical_formula_structural   GaFe2SiRu4
_chemical_formula_sum   'Ga1 Fe2 Si1 Ru4'
_cell_volume   103.47948189
_cell_formula_units_Z   1
loop_
 _symmetry_equiv_pos_site_id
 _symmetry_equiv_pos_as_xyz
  1  'x, y, z'
loop_
 _atom_site_type_symbol
 _atom_site_label
 _atom_site_symmetry_multiplicity
 _atom_site_fract_x
 _atom_site_fract_y
 _atom_site_fract_z
 _atom_site_occupancy
  Ga  Ga0  1  0.00000000  0.00000000  0.00000000  1
  Fe  Fe0  1  0.25125713  0.25125713  0.25125713  1
  Fe  Fe1  1  0.74874287  0.74874287  0.74874287  1
  Si  Si0  1  0.50000000  0.50000000  0.50000000  1
  Ru  Ru0  1  0.87206099  0.87206099  0.87206099  1
  Ru  Ru1  1  0.37824575  0.37824575  0.37824575  1
  Ru  Ru2  1  0.12793901  0.12793901  0.12793901  1
  Ru  Ru3  1  0.62175425  0.62175425  0.62175425  1
loop_
_geom_bond_atom_site_label_1
_geom_bond_atom_site_label_2
_geom_bond_distance
_geom_bond_site_symmetry_2
Ga0 Ru1 2.583861 1_554
Ga0 Ru3 2.583861 1_445
Ga0 Ru1 2.583861 1_545
Ga0 Ru3 2.583861 1_454
Ga0 Ru1 2.583861 1_455
Ga0 Ru3 2.583861 1_544
Ga0 Ru2 2.622770 1_555
Ga0 Ru0 2.622770 1_444
Fe0 Ru2 2.528041 1_555
Fe0 Ru3 2.531613 1_554
Fe0 Ru3 2.531613 1_545
Fe0 Ru3 2.531613 1_455
Fe0 Ru0 2.590867 1_445
Fe0 Ru0 2.590868 1_454
Fe0 Ru0 2.590868 1_544
Fe0 Ru1 2.603287 1_555
Fe1 Ru0 2.528041 1_555
Fe1 Ru1 2.531613 1_556
Fe1 Ru1 2.531613 1_565
Fe1 Ru1 2.531613 1_655
Fe1 Ru2 2.590867 1_665
Fe1 Ru2 2.590868 1_656
Fe1 Ru2 2.590868 1_566
Fe1 Ru3 2.603287 1_555
Ru0 Si0 2.541445 1_556
Ru0 Si0 2.541445 1_565
Ru0 Si0 2.541445 1_655
Ru1 Si0 2.495982 1_555
Ru2 Si0 2.541445 1_554
Ru2 Si0 2.541445 1_545
Ru2 Si0 2.541445 1_455
Ru3 Si0 2.495982 1_555
