# generated using pymatgen
data_Lu12In2CuTc2
_symmetry_space_group_name_H-M   'P 1'
_cell_length_a   8.20894752
_cell_length_b   8.20894902
_cell_length_c   8.20894818
_cell_angle_alpha   108.92552454
_cell_angle_beta   108.92552629
_cell_angle_gamma   110.56820545
_symmetry_Int_Tables_number   1
_chemical_formula_structural   Lu12In2CuTc2
_chemical_formula_sum   'Lu12 In2 Cu1 Tc2'
_cell_volume   425.71702365
_cell_formula_units_Z   1
loop_
 _symmetry_equiv_pos_site_id
 _symmetry_equiv_pos_as_xyz
  1  'x, y, z'
loop_
 _atom_site_type_symbol
 _atom_site_label
 _atom_site_symmetry_multiplicity
 _atom_site_fract_x
 _atom_site_fract_y
 _atom_site_fract_z
 _atom_site_occupancy
  Lu  Lu0  1  0.29680157  0.29680157  0.60984253  1
  Lu  Lu1  1  0.68695904  0.68695904  0.39015747  1
  Lu  Lu2  1  0.68695904  0.29680157  0.00000000  1
  Lu  Lu3  1  0.29680157  0.68695904  0.00000000  1
  Lu  Lu4  1  0.18860763  0.42740835  0.23880072  1
  Lu  Lu5  1  0.80983359  0.56565822  0.75582562  1
  Lu  Lu6  1  0.18860763  0.94980591  0.76119928  1
  Lu  Lu7  1  0.94980591  0.18860763  0.76119928  1
  Lu  Lu8  1  0.80983359  0.05400897  0.24417438  1
  Lu  Lu9  1  0.05400897  0.80983359  0.24417438  1
  Lu  Lu10  1  0.42740835  0.18860763  0.23880072  1
  Lu  Lu11  1  0.56565822  0.80983359  0.75582562  1
  In  In0  1  0.00155658  0.50155658  0.50000000  1
  In  In1  1  0.50155658  0.00155658  0.50000000  1
  Cu  Cu0  1  0.65148599  0.65148599  1.00000000  1
  Tc  Tc0  1  0.38785712  0.38785712  1.00000000  1
  Tc  Tc1  1  0.99625862  0.99625862  0.00000000  1
loop_
_geom_bond_atom_site_label_1
_geom_bond_atom_site_label_2
_geom_bond_distance
_geom_bond_site_symmetry_2
Lu0 Tc0 2.806566 1_555
Lu1 Tc0 2.806566 1_554
Lu2 Tc0 2.806566 1_554
Lu3 Tc0 2.806566 1_554
Lu4 Tc1 2.902998 1_445
Lu4 Tc0 2.943405 1_554
Lu5 Tc1 2.909915 1_556
Lu6 Tc1 2.902998 1_456
Lu6 Tc0 2.943412 1_565
Lu7 Tc1 2.902998 1_546
Lu7 Tc0 2.943412 1_655
Lu8 Tc1 2.909908 1_545
Lu9 Tc1 2.909908 1_455
Lu10 Tc1 2.902997 1_445
Lu10 Tc0 2.943405 1_554
Lu11 Tc1 2.909914 1_556
In0 Lu8 3.028723 1_455
In0 Lu5 3.028728 1_455
In0 Lu6 3.044906 1_555
In0 Lu4 3.044912 1_555
In0 Lu1 3.455459 1_455
In0 Lu0 3.455459 1_555
In0 Lu3 3.455459 1_556
In0 Lu2 3.455459 1_455
In0 Lu11 3.777300 1_555
In0 Lu9 3.777307 1_555
In0 Lu10 3.843798 1_455
In0 Lu7 3.843798 1_455
In1 Lu9 3.028722 1_545
In1 Lu11 3.028728 1_545
In1 Lu7 3.044905 1_555
In1 Lu10 3.044912 1_555
In1 Lu0 3.455459 1_555
In1 Lu1 3.455459 1_545
In1 Lu2 3.455459 1_556
In1 Lu3 3.455459 1_545
In1 Lu5 3.777301 1_555
In1 Lu8 3.777307 1_555
In1 Lu6 3.843798 1_545
In1 Lu4 3.843798 1_545
Cu0 Tc0 2.464961 1_555
Cu0 Lu5 2.760665 1_555
Cu0 Lu11 2.760665 1_555
Cu0 Lu9 2.760670 1_656
Cu0 Lu8 2.760670 1_566
Cu0 Lu3 3.026196 1_556
Cu0 Lu1 3.026196 1_556
Cu0 Lu2 3.026196 1_556
Cu0 Lu0 3.026196 1_555
