# generated using pymatgen
data_Ba2TaCrO6
_symmetry_space_group_name_H-M   'P 1'
_cell_length_a   5.81948700
_cell_length_b   5.81948625
_cell_length_c   19.14643700
_cell_angle_alpha   90.00000000
_cell_angle_beta   90.00000000
_cell_angle_gamma   119.99999859
_symmetry_Int_Tables_number   1
_chemical_formula_structural   Ba2TaCrO6
_chemical_formula_sum   'Ba8 Ta4 Cr4 O24'
_cell_volume   561.54938197
_cell_formula_units_Z   4
loop_
 _symmetry_equiv_pos_site_id
 _symmetry_equiv_pos_as_xyz
  1  'x, y, z'
loop_
 _atom_site_type_symbol
 _atom_site_label
 _atom_site_symmetry_multiplicity
 _atom_site_fract_x
 _atom_site_fract_y
 _atom_site_fract_z
 _atom_site_occupancy
  Ba  Ba0  1  0.00000000  0.00000000  0.00000000  1
  Ba  Ba1  1  0.66666700  0.33333300  0.25000000  1
  Ba  Ba2  1  0.33333300  0.66666600  0.75000000  1
  Ba  Ba3  1  0.00000000  0.00000000  0.50000000  1
  Ba  Ba4  1  0.33333300  0.66666600  0.14205800  1
  Ba  Ba5  1  0.66666700  0.33333300  0.85794200  1
  Ba  Ba6  1  0.66666700  0.33333300  0.64205800  1
  Ba  Ba7  1  0.33333300  0.66666600  0.35794200  1
  Ta  Ta0  1  0.33333300  0.66666600  0.56341900  1
  Ta  Ta1  1  0.66666700  0.33333300  0.06341900  1
  Ta  Ta2  1  0.66666700  0.33333300  0.43658100  1
  Ta  Ta3  1  0.33333300  0.66666600  0.93658100  1
  Cr  Cr0  1  0.00000000  0.00000000  0.81861200  1
  Cr  Cr1  1  0.00000000  0.00000000  0.18138800  1
  Cr  Cr2  1  0.00000000  0.00000000  0.68138800  1
  Cr  Cr3  1  0.00000000  0.00000000  0.31861200  1
  O  O0  1  0.17066000  0.82934000  0.87992900  1
  O  O1  1  0.17066000  0.34131900  0.87992900  1
  O  O2  1  0.65868100  0.82934000  0.87992900  1
  O  O3  1  0.34132000  0.17066100  0.37992900  1
  O  O4  1  0.82934100  0.65868200  0.12007100  1
  O  O5  1  0.82934100  0.17066100  0.37992900  1
  O  O6  1  0.82934100  0.65868200  0.37992900  1
  O  O7  1  0.17066000  0.82934000  0.62007000  1
  O  O8  1  0.65868100  0.82934000  0.62007000  1
  O  O9  1  0.34132000  0.17066100  0.12007100  1
  O  O10  1  0.82934100  0.17066100  0.12007100  1
  O  O11  1  0.17066000  0.34131900  0.62007000  1
  O  O12  1  0.84971800  0.69943600  0.75000000  1
  O  O13  1  0.15028200  0.84971800  0.25000000  1
  O  O14  1  0.69943700  0.84971800  0.25000000  1
  O  O15  1  0.30056400  0.15028200  0.75000000  1
  O  O16  1  0.50000000  0.00000000  0.00000000  1
  O  O17  1  0.49999900  0.50000000  0.50000000  1
  O  O18  1  0.00000100  0.50000000  0.50000000  1
  O  O19  1  0.00000100  0.50000000  0.00000000  1
  O  O20  1  0.84971900  0.15028200  0.75000000  1
  O  O21  1  0.50000000  0.00000000  0.50000000  1
  O  O22  1  0.15028100  0.30056300  0.25000000  1
  O  O23  1  0.49999900  0.50000000  0.00000000  1
loop_
_geom_bond_atom_site_label_1
_geom_bond_atom_site_label_2
_geom_bond_distance
_geom_bond_site_symmetry_2
Ba0 O4 2.871257 1_445
Ba0 O1 2.871260 1_554
Ba0 O2 2.871260 1_444
Ba0 O0 2.871263 1_544
Ba0 O10 2.871263 1_455
Ba0 O9 2.871263 1_555
Ba0 O19 2.909740 1_555
Ba0 O23 2.909740 1_555
Ba0 O16 2.909743 1_555
Ba0 O16 2.909743 1_455
Ba0 O19 2.909746 1_545
Ba0 O23 2.909746 1_445
Ba1 O22 2.914421 1_655
Ba1 O14 2.914426 1_555
Ba1 O14 2.914426 1_545
Ba1 O13 2.914427 1_655
Ba1 O13 2.914427 1_545
Ba1 O22 2.914433 1_555
Ba1 O5 2.979448 1_555
Ba1 O10 2.979448 1_555
Ba1 O9 2.979451 1_555
Ba1 O3 2.979451 1_555
Ba1 O4 2.979456 1_555
Ba1 O6 2.979456 1_555
Ba2 O20 2.914421 1_455
Ba2 O15 2.914423 1_555
Ba2 O12 2.914427 1_455
Ba2 O12 2.914427 1_555
Ba2 O15 2.914429 1_565
Ba2 O20 2.914432 1_565
Ba2 O1 2.979451 1_555
Ba2 O0 2.979451 1_555
Ba2 O2 2.979454 1_555
Ba2 O11 2.979467 1_555
Ba2 O7 2.979467 1_555
Ba2 O8 2.979470 1_555
Ba3 O11 2.871244 1_555
Ba3 O8 2.871244 1_445
Ba3 O7 2.871247 1_545
Ba3 O6 2.871257 1_445
Ba3 O5 2.871263 1_455
Ba3 O3 2.871263 1_555
Ba3 O18 2.909740 1_555
Ba3 O17 2.909740 1_555
Ba3 O21 2.909743 1_555
Ba3 O21 2.909743 1_455
Ba3 O18 2.909746 1_545
Ba3 O17 2.909746 1_445
Ba4 O22 2.770495 1_555
Ba4 O13 2.770495 1_555
Ba4 O14 2.770498 1_555
Ba4 O9 2.940305 1_555
Ba4 O10 2.940305 1_455
Ba4 O4 2.940314 1_555
Ba4 O4 2.940314 1_455
Ba4 O9 2.940322 1_565
Ba4 O10 2.940322 1_565
Ba4 O23 3.196883 1_555
Ba4 O19 3.196883 1_555
Ba4 O16 3.196888 1_565
Ba5 O12 2.770495 1_555
Ba5 O20 2.770495 1_555
Ba5 O15 2.770495 1_555
Ba5 O2 2.940313 1_545
Ba5 O2 2.940313 1_555
Ba5 O0 2.940314 1_545
Ba5 O0 2.940314 1_655
Ba5 O1 2.940314 1_555
Ba5 O1 2.940314 1_655
Ba5 O16 3.196885 1_556
Ba5 O19 3.196888 1_656
Ba5 O23 3.196891 1_556
Ba6 O12 2.770495 1_555
Ba6 O20 2.770495 1_555
Ba6 O15 2.770495 1_555
Ba6 O8 2.940316 1_545
Ba6 O8 2.940316 1_555
Ba6 O7 2.940316 1_545
Ba6 O7 2.940316 1_655
Ba6 O11 2.940317 1_555
Ba6 O11 2.940317 1_655
Ba6 O21 3.196885 1_555
Ba6 O18 3.196888 1_655
Ba6 O17 3.196891 1_555
Ba7 O22 2.770495 1_555
Ba7 O13 2.770495 1_555
Ba7 O14 2.770498 1_555
Ba7 O3 2.940305 1_555
Ba7 O5 2.940305 1_455
Ba7 O6 2.940314 1_555
Ba7 O6 2.940314 1_455
Ba7 O3 2.940322 1_565
Ba7 O5 2.940322 1_565
Ba7 O17 3.196883 1_555
Ba7 O18 3.196883 1_555
Ba7 O21 3.196888 1_565
Cr0 O20 2.005072 1_455
Cr0 O12 2.005076 1_445
Cr0 O15 2.005076 1_555
Cr0 O1 2.082625 1_555
Cr0 O2 2.082625 1_445
Cr0 O0 2.082629 1_545
Cr1 O22 2.005072 1_555
Cr1 O14 2.005072 1_445
Cr1 O13 2.005076 1_545
Cr1 O4 2.082620 1_445
Cr1 O10 2.082629 1_455
Cr1 O9 2.082629 1_555
Cr2 O20 2.005072 1_455
Cr2 O12 2.005076 1_445
Cr2 O15 2.005076 1_555
Cr2 O11 2.082635 1_555
Cr2 O8 2.082636 1_445
Cr2 O7 2.082640 1_545
Cr3 O22 2.005072 1_555
Cr3 O14 2.005072 1_445
Cr3 O13 2.005076 1_545
Cr3 O6 2.082620 1_445
Cr3 O5 2.082629 1_455
Cr3 O3 2.082629 1_555
O0 Ta3 1.965993 1_555
O1 Ta3 1.965993 1_555
O2 Ta3 1.965997 1_555
O3 Ta2 1.965993 1_555
O4 Ta1 1.966001 1_555
O5 Ta2 1.965988 1_555
O6 Ta2 1.966001 1_555
O7 Ta0 1.965982 1_555
O8 Ta0 1.965986 1_555
O9 Ta1 1.965993 1_555
O10 Ta1 1.965988 1_555
O11 Ta0 1.965982 1_555
O16 Ta1 2.072823 1_555
O16 Ta3 2.072827 1_544
O17 Ta0 2.072819 1_555
O17 Ta2 2.072831 1_555
O18 Ta0 2.072819 1_555
O18 Ta2 2.072827 1_455
O19 Ta3 2.072819 1_554
O19 Ta1 2.072827 1_455
O21 Ta2 2.072823 1_555
O21 Ta0 2.072827 1_545
O23 Ta3 2.072819 1_554
O23 Ta1 2.072831 1_555
