# generated using pymatgen
data_RbSr(BiAu)2
_symmetry_space_group_name_H-M   'P 1'
_cell_length_a   4.76187980
_cell_length_b   4.76188009
_cell_length_c   10.31160134
_cell_angle_alpha   90.00000000
_cell_angle_beta   90.00000000
_cell_angle_gamma   119.99999797
_symmetry_Int_Tables_number   1
_chemical_formula_structural   RbSr(BiAu)2
_chemical_formula_sum   'Rb1 Sr1 Bi2 Au2'
_cell_volume   202.49469011
_cell_formula_units_Z   1
loop_
 _symmetry_equiv_pos_site_id
 _symmetry_equiv_pos_as_xyz
  1  'x, y, z'
loop_
 _atom_site_type_symbol
 _atom_site_label
 _atom_site_symmetry_multiplicity
 _atom_site_fract_x
 _atom_site_fract_y
 _atom_site_fract_z
 _atom_site_occupancy
  Rb  Rb0  1  0.00000000  0.00000000  0.00000000  1
  Sr  Sr0  1  0.00000000  0.00000000  0.50000000  1
  Bi  Bi0  1  0.33333300  0.66666700  0.73969108  1
  Bi  Bi1  1  0.66666700  0.33333300  0.26030892  1
  Au  Au0  1  0.33333300  0.66666700  0.30509394  1
  Au  Au1  1  0.66666700  0.33333300  0.69490606  1
loop_
_geom_bond_atom_site_label_1
_geom_bond_atom_site_label_2
_geom_bond_distance
_geom_bond_site_symmetry_2
Bi0 Sr0 3.696929 1_565
Bi0 Sr0 3.696932 1_665
Bi0 Sr0 3.696932 1_555
Bi0 Rb0 3.842320 1_566
Bi0 Rb0 3.842323 1_666
Bi0 Rb0 3.842323 1_556
Bi1 Sr0 3.696929 1_655
Bi1 Sr0 3.696932 1_555
Bi1 Sr0 3.696932 1_665
Bi1 Rb0 3.842320 1_655
Bi1 Rb0 3.842323 1_555
Bi1 Rb0 3.842323 1_665
Au0 Bi1 2.787786 1_455
Au0 Bi1 2.787786 1_565
Au0 Bi1 2.787794 1_555
Au0 Sr0 3.405548 1_565
Au0 Sr0 3.405551 1_665
Au0 Sr0 3.405551 1_555
Au1 Bi0 2.787786 1_655
Au1 Bi0 2.787786 1_545
Au1 Bi0 2.787794 1_555
Au1 Sr0 3.405548 1_655
Au1 Sr0 3.405551 1_555
Au1 Sr0 3.405551 1_665
