# generated using pymatgen
data_Cs2Cd(IBr)2
_symmetry_space_group_name_H-M   'P 1'
_cell_length_a   7.58361731
_cell_length_b   7.58361691
_cell_length_c   12.12902071
_cell_angle_alpha   90.00000000
_cell_angle_beta   90.00000000
_cell_angle_gamma   108.82425183
_symmetry_Int_Tables_number   1
_chemical_formula_structural   Cs2Cd(IBr)2
_chemical_formula_sum   'Cs4 Cd2 I4 Br4'
_cell_volume   660.24483149
_cell_formula_units_Z   2
loop_
 _symmetry_equiv_pos_site_id
 _symmetry_equiv_pos_as_xyz
  1  'x, y, z'
loop_
 _atom_site_type_symbol
 _atom_site_label
 _atom_site_symmetry_multiplicity
 _atom_site_fract_x
 _atom_site_fract_y
 _atom_site_fract_z
 _atom_site_occupancy
  Cs  Cs0  1  0.62045513  0.62045513  0.50000000  1
  Cs  Cs1  1  0.62045513  0.62045513  0.00000000  1
  Cs  Cs2  1  0.24561764  0.89691635  0.25000000  1
  Cs  Cs3  1  0.89691635  0.24561764  0.75000000  1
  Cd  Cd0  1  0.85620449  0.29271690  0.25000000  1
  Cd  Cd1  1  0.29271690  0.85620449  0.75000000  1
  I  I0  1  0.05461594  0.45177955  0.44042045  1
  I  I1  1  0.45177955  0.05461594  0.55957955  1
  I  I2  1  0.05461594  0.45177955  0.05957955  1
  I  I3  1  0.45177955  0.05461594  0.94042045  1
  Br  Br0  1  0.53748424  0.36255501  0.25000000  1
  Br  Br1  1  0.36255501  0.53748424  0.75000000  1
  Br  Br2  1  0.76637650  0.92642663  0.25000000  1
  Br  Br3  1  0.92642663  0.76637650  0.75000000  1
loop_
_geom_bond_atom_site_label_1
_geom_bond_atom_site_label_2
_geom_bond_distance
_geom_bond_site_symmetry_2
Cs0 I1 3.964473 1_565
Cs0 I0 3.964473 1_655
Cs0 I1 4.126721 1_555
Cs0 I0 4.126721 1_555
Cs1 I3 3.964473 1_564
Cs1 I2 3.964473 1_655
Cs1 I3 4.126721 1_554
Cs1 I2 4.126721 1_555
Cs2 I0 3.958863 1_555
Cs2 I2 3.958863 1_555
Cs2 I1 4.094784 1_565
Cs2 I3 4.094784 1_564
Cs3 I3 3.958863 1_555
Cs3 I1 3.958863 1_555
Cs3 I2 4.094784 1_656
Cs3 I0 4.094784 1_655
Cd0 I0 2.807516 1_655
Cd0 I2 2.807516 1_655
Cd1 I3 2.807516 1_565
Cd1 I1 2.807516 1_565
Br0 Cd0 2.636049 1_555
Br0 Cs2 3.510665 1_545
Br0 Cs1 3.552680 1_555
Br0 Cs0 3.552680 1_555
Br1 Cd1 2.636049 1_555
Br1 Cs3 3.510666 1_455
Br1 Cs1 3.552680 1_556
Br1 Cs0 3.552680 1_555
Br2 Cd0 2.638011 1_565
Br2 Cs2 3.712640 1_655
Br2 Cs0 3.761147 1_555
Br2 Cs1 3.761147 1_555
Br2 Cs2 3.882807 1_555
Br3 Cd1 2.638011 1_655
Br3 Cs3 3.712640 1_565
Br3 Cs1 3.761147 1_556
Br3 Cs0 3.761147 1_555
Br3 Cs3 3.882807 1_555
