# generated using pymatgen
data_Ti13Al9IrRh7
_symmetry_space_group_name_H-M   'P 1'
_cell_length_a   8.69815727
_cell_length_b   8.69815708
_cell_length_c   8.69815842
_cell_angle_alpha   59.74313194
_cell_angle_beta   59.74313287
_cell_angle_gamma   59.74314406
_symmetry_Int_Tables_number   1
_chemical_formula_structural   Ti13Al9IrRh7
_chemical_formula_sum   'Ti13 Al9 Ir1 Rh7'
_cell_volume   462.62183388
_cell_formula_units_Z   1
loop_
 _symmetry_equiv_pos_site_id
 _symmetry_equiv_pos_as_xyz
  1  'x, y, z'
loop_
 _atom_site_type_symbol
 _atom_site_label
 _atom_site_symmetry_multiplicity
 _atom_site_fract_x
 _atom_site_fract_y
 _atom_site_fract_z
 _atom_site_occupancy
  Ti  Ti0  1  0.21223914  0.21223914  0.78795045  1
  Ti  Ti1  1  0.78795045  0.21223914  0.21223914  1
  Ti  Ti2  1  0.21223914  0.78795045  0.21223914  1
  Ti  Ti3  1  0.79550898  0.79550898  0.19523646  1
  Ti  Ti4  1  0.19523646  0.79550898  0.79550898  1
  Ti  Ti5  1  0.79550898  0.19523646  0.79550898  1
  Ti  Ti6  1  0.37824416  0.37824416  0.37824416  1
  Ti  Ti7  1  0.37899209  0.86684655  0.37899209  1
  Ti  Ti8  1  0.86684655  0.37899209  0.37899209  1
  Ti  Ti9  1  0.37899209  0.37899209  0.86684655  1
  Ti  Ti10  1  0.84405649  0.46892190  0.84405649  1
  Ti  Ti11  1  0.46892190  0.84405649  0.84405649  1
  Ti  Ti12  1  0.84405649  0.84405649  0.46892190  1
  Al  Al0  1  0.15452402  0.15452402  0.15452402  1
  Al  Al1  1  0.15783366  0.52944336  0.15783366  1
  Al  Al2  1  0.52944336  0.15783366  0.15783366  1
  Al  Al3  1  0.15783366  0.15783366  0.52944336  1
  Al  Al4  1  0.61967247  0.61967247  0.61967247  1
  Al  Al5  1  0.62090254  0.14140842  0.62090254  1
  Al  Al6  1  0.14140842  0.62090254  0.62090254  1
  Al  Al7  1  0.62090254  0.62090254  0.14140842  1
  Al  Al8  1  0.82861391  0.82861391  0.82861391  1
  Ir  Ir0  1  0.00446593  0.00446593  0.00446593  1
  Rh  Rh0  1  0.00367609  0.00367609  0.49769475  1
  Rh  Rh1  1  0.49769475  0.00367609  0.00367609  1
  Rh  Rh2  1  0.00367609  0.49769475  0.00367609  1
  Rh  Rh3  1  0.49851007  0.49851007  0.00293224  1
  Rh  Rh4  1  0.00293224  0.49851007  0.49851007  1
  Rh  Rh5  1  0.49851007  0.00293224  0.49851007  1
  Rh  Rh6  1  0.50060524  0.50060524  0.50060524  1
loop_
_geom_bond_atom_site_label_1
_geom_bond_atom_site_label_2
_geom_bond_distance
_geom_bond_site_symmetry_2
Ti0 Ti11 2.792218 1_545
Ti0 Ti10 2.792218 1_455
Ti0 Ti6 2.932511 1_555
Ti0 Ti9 2.967286 1_555
Ti1 Ti12 2.792217 1_545
Ti1 Ti10 2.792217 1_554
Ti1 Ti6 2.932511 1_555
Ti1 Ti8 2.967286 1_555
Ti2 Ti6 2.932511 1_555
Ti2 Ti7 2.967286 1_555
Ti3 Ti8 2.993951 1_555
Ti3 Ti7 2.993951 1_555
Ti4 Ti9 2.993951 1_555
Ti4 Ti7 2.993952 1_555
Ti5 Ti8 2.993951 1_555
Ti5 Ti9 2.993951 1_555
Ti10 Ti5 2.868706 1_555
Ti11 Ti2 2.792217 1_556
Ti11 Ti4 2.868706 1_555
Ti12 Ti2 2.792217 1_655
Ti12 Ti3 2.868707 1_555
Al0 Rh0 2.488826 1_555
Al0 Rh2 2.488826 1_555
Al0 Rh1 2.488826 1_555
Al0 Ti2 2.774607 1_545
Al0 Ti1 2.774607 1_455
Al0 Ti0 2.774608 1_554
Al0 Ti9 2.807180 1_554
Al0 Ti7 2.807181 1_545
Al0 Ti8 2.807181 1_455
Al1 Rh3 2.491381 1_555
Al1 Rh4 2.491381 1_555
Al1 Rh2 2.496090 1_555
Al1 Ti6 2.775403 1_555
Al1 Ti8 2.777343 1_455
Al1 Ti9 2.777344 1_554
Al1 Ti4 2.787363 1_554
Al1 Ti3 2.787363 1_455
Al1 Ti2 2.806086 1_555
Al2 Rh3 2.491381 1_555
Al2 Rh5 2.491381 1_555
Al2 Rh1 2.496090 1_555
Al2 Ti6 2.775403 1_555
Al2 Ti7 2.777343 1_545
Al2 Ti9 2.777344 1_554
Al2 Ti5 2.787363 1_554
Al2 Ti3 2.787363 1_545
Al2 Ti1 2.806086 1_555
Al3 Rh4 2.491381 1_555
Al3 Rh5 2.491381 1_555
Al3 Rh0 2.496090 1_555
Al3 Ti6 2.775402 1_555
Al3 Ti7 2.777344 1_545
Al3 Ti8 2.777344 1_455
Al3 Ti4 2.787363 1_545
Al3 Ti5 2.787363 1_455
Al3 Ti0 2.806087 1_555
Al4 Rh6 2.541766 1_555
Al4 Rh5 2.715293 1_565
Al4 Rh4 2.715293 1_655
Al4 Rh3 2.715293 1_556
Al4 Ti12 2.831702 1_555
Al4 Ti11 2.831702 1_555
Al4 Ti10 2.831702 1_555
Al4 Ti9 2.955106 1_555
Al4 Ti7 2.955106 1_555
Al4 Ti8 2.955106 1_555
Al4 Ti3 3.047099 1_555
Al4 Ti5 3.047099 1_555
Al4 Ti4 3.047099 1_555
Al5 Rh6 2.542748 1_555
Al5 Al8 2.704237 1_545
Al5 Rh0 2.710585 1_655
Al5 Rh1 2.710585 1_556
Al5 Rh5 2.728385 1_555
Al5 Ti11 2.829352 1_545
Al5 Ti12 2.829352 1_545
Al5 Ti5 2.930896 1_555
Al5 Ti0 2.935361 1_555
Al5 Ti1 2.935361 1_555
Al5 Ti8 2.968392 1_555
Al5 Ti9 2.968393 1_555
Al5 Ti6 2.979870 1_555
Al6 Rh6 2.542748 1_555
Al6 Al8 2.704237 1_455
Al6 Rh0 2.710585 1_565
Al6 Rh2 2.710585 1_556
Al6 Rh4 2.728385 1_555
Al6 Ti10 2.829352 1_455
Al6 Ti12 2.829352 1_455
Al6 Ti4 2.930896 1_555
Al6 Ti0 2.935360 1_555
Al6 Ti2 2.935361 1_555
Al6 Ti7 2.968392 1_555
Al6 Ti9 2.968393 1_555
Al6 Ti6 2.979870 1_555
Al7 Rh6 2.542748 1_555
Al7 Al8 2.704237 1_554
Al7 Rh1 2.710585 1_565
Al7 Rh2 2.710585 1_655
Al7 Rh3 2.728385 1_555
Al7 Ti11 2.829352 1_554
Al7 Ti10 2.829352 1_554
Al7 Ti3 2.930896 1_555
Al7 Ti1 2.935361 1_555
Al7 Ti2 2.935361 1_555
Al7 Ti8 2.968393 1_555
Al7 Ti7 2.968393 1_555
Al7 Ti6 2.979869 1_555
Al8 Rh0 2.534794 1_665
Al8 Rh2 2.534794 1_656
Al8 Rh1 2.534794 1_566
Al8 Ti5 2.927109 1_565
Al8 Ti4 2.927109 1_655
Al8 Ti3 2.927110 1_556
Al8 Ti10 2.999292 1_555
Al8 Ti11 2.999292 1_555
Al8 Ti12 2.999292 1_555
Ir0 Ti0 2.551584 1_554
Ir0 Ti2 2.551585 1_545
Ir0 Ti1 2.551585 1_455
Ir0 Ti3 2.571142 1_445
Ir0 Ti5 2.571142 1_454
Ir0 Ti4 2.571142 1_544
Rh0 Ti12 2.561417 1_445
Rh0 Ti8 2.658190 1_455
Rh0 Ti7 2.658190 1_545
Rh0 Ti4 3.057404 1_545
Rh0 Ti5 3.057404 1_455
Rh0 Ti1 3.114866 1_455
Rh0 Ti2 3.114866 1_545
Rh1 Ti11 2.561417 1_544
Rh1 Ti9 2.658190 1_554
Rh1 Ti7 2.658190 1_545
Rh1 Ti5 3.057403 1_554
Rh1 Ti3 3.057404 1_545
Rh1 Ti2 3.114865 1_545
Rh1 Ti0 3.114866 1_554
Rh2 Ti10 2.561417 1_454
Rh2 Ti9 2.658190 1_554
Rh2 Ti8 2.658190 1_455
Rh2 Ti4 3.057403 1_554
Rh2 Ti3 3.057404 1_455
Rh2 Ti1 3.114865 1_455
Rh2 Ti0 3.114866 1_554
Rh3 Ti11 2.530379 1_554
Rh3 Ti10 2.530380 1_554
Rh3 Ti6 2.658114 1_555
Rh3 Ti9 2.670566 1_554
Rh3 Ti1 3.096150 1_555
Rh3 Ti2 3.096151 1_555
Rh4 Ti12 2.530380 1_455
Rh4 Ti10 2.530380 1_455
Rh4 Ti6 2.658114 1_555
Rh4 Ti8 2.670566 1_455
Rh4 Ti2 3.096150 1_555
Rh4 Ti0 3.096150 1_555
Rh5 Ti12 2.530380 1_545
Rh5 Ti11 2.530380 1_545
Rh5 Ti6 2.658114 1_555
Rh5 Ti7 2.670566 1_545
Rh5 Ti1 3.096150 1_555
Rh5 Ti0 3.096151 1_555
Rh6 Ti7 2.592669 1_555
Rh6 Ti8 2.592669 1_555
Rh6 Ti9 2.592669 1_555
Rh6 Ti6 2.612080 1_555
