# generated using pymatgen
data_Y4IrRh3O14
_symmetry_space_group_name_H-M   'P 1'
_cell_length_a   7.17991095
_cell_length_b   7.17991134
_cell_length_c   7.17991143
_cell_angle_alpha   59.78751360
_cell_angle_beta   59.78751163
_cell_angle_gamma   59.78751574
_symmetry_Int_Tables_number   1
_chemical_formula_structural   Y4IrRh3O14
_chemical_formula_sum   'Y4 Ir1 Rh3 O14'
_cell_volume   260.46065271
_cell_formula_units_Z   1
loop_
 _symmetry_equiv_pos_site_id
 _symmetry_equiv_pos_as_xyz
  1  'x, y, z'
loop_
 _atom_site_type_symbol
 _atom_site_label
 _atom_site_symmetry_multiplicity
 _atom_site_fract_x
 _atom_site_fract_y
 _atom_site_fract_z
 _atom_site_occupancy
  Y  Y0  1  0.62500000  0.12500000  0.12500000  1
  Y  Y1  1  0.12500000  0.62500000  0.12500000  1
  Y  Y2  1  0.12500000  0.12500000  0.62500000  1
  Y  Y3  1  0.12500000  0.12500000  0.12500000  1
  Ir  Ir0  1  0.62500000  0.62500000  0.62500000  1
  Rh  Rh0  1  0.12500000  0.62500000  0.62500000  1
  Rh  Rh1  1  0.62500000  0.12500000  0.62500000  1
  Rh  Rh2  1  0.62500000  0.62500000  0.12500000  1
  O  O0  1  0.71073306  0.71073306  0.29064733  1
  O  O1  1  0.28820285  0.28820285  0.70922788  1
  O  O2  1  0.71073306  0.29064733  0.71073306  1
  O  O3  1  0.28820285  0.70922788  0.28820285  1
  O  O4  1  0.29064733  0.71073306  0.71073306  1
  O  O5  1  0.70922788  0.28820285  0.28820285  1
  O  O6  1  0.53926694  0.53926694  0.95935267  1
  O  O7  1  0.96179715  0.96179715  0.54077212  1
  O  O8  1  0.53926694  0.95935267  0.53926694  1
  O  O9  1  0.96179715  0.54077212  0.96179715  1
  O  O10  1  0.95935267  0.53926694  0.53926694  1
  O  O11  1  0.54077212  0.96179715  0.96179715  1
  O  O12  1  0.25001361  0.25001361  0.25001361  1
  O  O13  1  0.99998639  0.99998639  0.99998639  1
loop_
_geom_bond_atom_site_label_1
_geom_bond_atom_site_label_2
_geom_bond_distance
_geom_bond_site_symmetry_2
Ir0 O10 1.981855 1_555
Ir0 O4 1.981855 1_555
Ir0 O6 1.981855 1_555
Ir0 O0 1.981855 1_555
Ir0 O8 1.981855 1_555
Ir0 O2 1.981855 1_555
O0 Rh2 2.006806 1_555
O0 Y1 2.444252 1_655
O0 Y0 2.444252 1_565
O1 Rh1 1.993994 1_555
O1 Rh0 1.993994 1_555
O1 Y2 2.433128 1_555
O1 Y3 2.449199 1_556
O2 Rh1 2.006805 1_555
O2 Y2 2.444252 1_655
O2 Y0 2.444252 1_556
O3 Rh2 1.993994 1_555
O3 Rh0 1.993994 1_555
O3 Y1 2.433128 1_555
O3 Y3 2.449199 1_565
O4 Rh0 2.006805 1_555
O4 Y1 2.444252 1_556
O4 Y2 2.444252 1_565
O5 Rh1 1.993994 1_555
O5 Rh2 1.993994 1_555
O5 Y0 2.433128 1_555
O5 Y3 2.449199 1_655
O6 Rh2 2.006806 1_556
O6 Y1 2.444252 1_556
O6 Y0 2.444252 1_556
O7 Rh1 1.993994 1_565
O7 Rh0 1.993994 1_655
O7 Y2 2.433128 1_665
O7 Y3 2.449199 1_665
O8 Rh1 2.006805 1_565
O8 Y2 2.444252 1_565
O8 Y0 2.444252 1_565
O9 Rh2 1.993994 1_556
O9 Rh0 1.993994 1_655
O9 Y1 2.433128 1_656
O9 Y3 2.449199 1_656
O10 Rh0 2.006805 1_655
O10 Y1 2.444252 1_655
O10 Y2 2.444252 1_655
O11 Rh1 1.993994 1_565
O11 Rh2 1.993994 1_556
O11 Y0 2.433128 1_566
O11 Y3 2.449199 1_566
O12 Y0 2.192424 1_555
O12 Y2 2.192424 1_555
O12 Y1 2.192424 1_555
O12 Y3 2.202153 1_555
O13 Y0 2.192424 1_566
O13 Y2 2.192424 1_665
O13 Y1 2.192424 1_656
O13 Y3 2.202153 1_666
