# generated using pymatgen
data_ScFe(SiRu2)2
_symmetry_space_group_name_H-M   'P 1'
_cell_length_a   7.30594991
_cell_length_b   7.30594951
_cell_length_c   7.30594861
_cell_angle_alpha   33.60009309
_cell_angle_beta   33.60009755
_cell_angle_gamma   33.60010399
_symmetry_Int_Tables_number   1
_chemical_formula_structural   ScFe(SiRu2)2
_chemical_formula_sum   'Sc1 Fe1 Si2 Ru4'
_cell_volume   106.38264034
_cell_formula_units_Z   1
loop_
 _symmetry_equiv_pos_site_id
 _symmetry_equiv_pos_as_xyz
  1  'x, y, z'
loop_
 _atom_site_type_symbol
 _atom_site_label
 _atom_site_symmetry_multiplicity
 _atom_site_fract_x
 _atom_site_fract_y
 _atom_site_fract_z
 _atom_site_occupancy
  Sc  Sc0  1  0.00000000  0.00000000  0.00000000  1
  Fe  Fe0  1  0.50000000  0.50000000  0.50000000  1
  Si  Si0  1  0.25020540  0.25020540  0.25020540  1
  Si  Si1  1  0.74979460  0.74979460  0.74979460  1
  Ru  Ru0  1  0.62093828  0.62093828  0.62093828  1
  Ru  Ru1  1  0.12926955  0.12926955  0.12926955  1
  Ru  Ru2  1  0.87073045  0.87073045  0.87073045  1
  Ru  Ru3  1  0.37906172  0.37906172  0.37906172  1
loop_
_geom_bond_atom_site_label_1
_geom_bond_atom_site_label_2
_geom_bond_distance
_geom_bond_site_symmetry_2
Fe0 Ru0 2.498723 1_555
Fe0 Ru3 2.498723 1_555
Fe0 Ru2 2.557827 1_554
Fe0 Ru1 2.557827 1_556
Fe0 Ru2 2.557827 1_545
Fe0 Ru1 2.557827 1_565
Fe0 Ru2 2.557827 1_455
Fe0 Ru1 2.557827 1_655
Ru0 Si0 2.557842 1_556
Ru0 Si0 2.557842 1_565
Ru0 Si0 2.557842 1_655
Ru0 Sc0 2.614978 1_665
Ru0 Sc0 2.614979 1_656
Ru0 Sc0 2.614979 1_566
Ru0 Si1 2.662319 1_555
Ru1 Si0 2.498673 1_555
Ru1 Si1 2.618075 1_445
Ru1 Si1 2.618075 1_454
Ru1 Si1 2.618076 1_544
Ru1 Sc0 2.670857 1_555
Ru2 Si1 2.498673 1_555
Ru2 Si0 2.618075 1_665
Ru2 Si0 2.618075 1_656
Ru2 Si0 2.618076 1_566
Ru2 Sc0 2.670857 1_666
Ru3 Si1 2.557842 1_554
Ru3 Si1 2.557842 1_545
Ru3 Si1 2.557842 1_455
Ru3 Sc0 2.614978 1_556
Ru3 Sc0 2.614979 1_565
Ru3 Sc0 2.614979 1_655
Ru3 Si0 2.662319 1_555
