# generated using pymatgen
data_K4ReTcP4
_symmetry_space_group_name_H-M   'P 1'
_cell_length_a   7.99862907
_cell_length_b   7.99862896
_cell_length_c   7.99862953
_cell_angle_alpha   136.18995804
_cell_angle_beta   127.47653122
_cell_angle_gamma   70.72665297
_symmetry_Int_Tables_number   1
_chemical_formula_structural   K4ReTcP4
_chemical_formula_sum   'K4 Re1 Tc1 P4'
_cell_volume   275.55304801
_cell_formula_units_Z   1
loop_
 _symmetry_equiv_pos_site_id
 _symmetry_equiv_pos_as_xyz
  1  'x, y, z'
loop_
 _atom_site_type_symbol
 _atom_site_label
 _atom_site_symmetry_multiplicity
 _atom_site_fract_x
 _atom_site_fract_y
 _atom_site_fract_z
 _atom_site_occupancy
  K  K0  1  0.30705875  0.15015188  0.15452164  1
  K  K1  1  0.69294125  0.84746289  0.84309313  1
  K  K2  1  0.00437076  0.34984812  0.65690687  1
  K  K3  1  0.99562924  0.65253711  0.34547836  1
  Re  Re0  1  0.50000000  0.25000000  0.75000000  1
  Tc  Tc0  1  0.50000000  0.75000000  0.25000000  1
  P  P0  1  0.41996330  0.59372084  0.82402093  1
  P  P1  1  0.23030009  0.90627916  0.32624246  1
  P  P2  1  0.76969991  0.09594137  0.67597907  1
  P  P3  1  0.58003670  0.40405863  0.17375754  1
loop_
_geom_bond_atom_site_label_1
_geom_bond_atom_site_label_2
_geom_bond_distance
_geom_bond_site_symmetry_2
K0 P0 3.298969 1_544
K0 P0 3.299853 1_555
K0 P3 3.314101 1_555
K0 P1 3.428164 1_545
K0 P2 3.482551 1_454
K1 P3 3.298969 1_555
K1 P3 3.299858 1_566
K1 P0 3.314095 1_555
K1 P2 3.428156 1_565
K1 P1 3.482553 1_656
K2 P1 3.298969 1_556
K2 P1 3.299847 1_545
K2 P2 3.314108 1_455
K2 P0 3.428156 1_555
K2 P3 3.482560 1_455
K3 P2 3.298961 1_565
K3 P2 3.299856 1_554
K3 P1 3.314101 1_655
K3 P3 3.428151 1_555
K3 P0 3.482556 1_655
P0 Re0 2.295434 1_555
P0 Tc0 2.304036 1_556
P1 Re0 2.295434 1_565
P1 Tc0 2.304036 1_555
P2 Re0 2.295435 1_555
P2 Tc0 2.304032 1_545
P3 Re0 2.295431 1_554
P3 Tc0 2.304029 1_555
