# generated using pymatgen
data_Na5ReNO4
_symmetry_space_group_name_H-M   'P 1'
_cell_length_a   5.66462506
_cell_length_b   5.66464816
_cell_length_c   10.62045851
_cell_angle_alpha   90.00000000
_cell_angle_beta   90.00000000
_cell_angle_gamma   118.67109112
_symmetry_Int_Tables_number   1
_chemical_formula_structural   Na5ReNO4
_chemical_formula_sum   'Na10 Re2 N2 O8'
_cell_volume   299.00554383
_cell_formula_units_Z   2
loop_
 _symmetry_equiv_pos_site_id
 _symmetry_equiv_pos_as_xyz
  1  'x, y, z'
loop_
 _atom_site_type_symbol
 _atom_site_label
 _atom_site_symmetry_multiplicity
 _atom_site_fract_x
 _atom_site_fract_y
 _atom_site_fract_z
 _atom_site_occupancy
  Na  Na0  1  0.19219689  0.80780540  0.50000146  1
  Na  Na1  1  0.19219689  0.80780540  0.99999854  1
  Na  Na2  1  0.55116049  0.17170961  0.75000000  1
  Na  Na3  1  0.17171137  0.55115311  0.75000000  1
  Na  Na4  1  0.50000000  0.50000000  0.00000000  1
  Na  Na5  1  0.80780311  0.19219460  0.49999854  1
  Na  Na6  1  0.80780311  0.19219460  0.00000146  1
  Na  Na7  1  0.50000000  0.50000000  0.50000000  1
  Na  Na8  1  0.44883951  0.82829039  0.25000000  1
  Na  Na9  1  0.82828863  0.44884689  0.25000000  1
  Re  Re0  1  0.20026968  0.20027636  0.25000000  1
  Re  Re1  1  0.79973032  0.79972364  0.75000000  1
  N  N0  1  0.90067958  0.90068439  0.25000000  1
  N  N1  1  0.09932042  0.09931561  0.75000000  1
  O  O0  1  0.83348100  0.55576074  0.62713112  1
  O  O1  1  0.55577001  0.83348311  0.62713210  1
  O  O2  1  0.16651900  0.44423926  0.37286888  1
  O  O3  1  0.44422999  0.16651689  0.37286790  1
  O  O4  1  0.44422999  0.16651689  0.12713210  1
  O  O5  1  0.16651900  0.44423926  0.12713112  1
  O  O6  1  0.55577001  0.83348311  0.87286790  1
  O  O7  1  0.83348100  0.55576074  0.87286888  1
loop_
_geom_bond_atom_site_label_1
_geom_bond_atom_site_label_2
_geom_bond_distance
_geom_bond_site_symmetry_2
Na0 O0 2.281791 1_455
Na0 O3 2.281791 1_565
Na0 O2 2.407945 1_555
Na0 O1 2.407960 1_555
Na1 O7 2.281791 1_455
Na1 O4 2.281791 1_566
Na1 O5 2.407945 1_556
Na1 O6 2.407960 1_555
Na2 O6 2.328581 1_545
Na2 O1 2.328581 1_545
Na2 O7 2.377978 1_555
Na2 O0 2.377978 1_555
Na3 O7 2.328594 1_455
Na3 O0 2.328594 1_455
Na3 O6 2.378006 1_555
Na3 O1 2.378006 1_555
Na4 O5 2.217819 1_555
Na4 O7 2.217819 1_554
Na4 O4 2.217827 1_555
Na4 O6 2.217827 1_554
Na5 O2 2.281791 1_655
Na5 O1 2.281791 1_545
Na5 O0 2.407945 1_555
Na5 O3 2.407960 1_555
Na6 O5 2.281791 1_655
Na6 O6 2.281791 1_544
Na6 O7 2.407945 1_554
Na6 O4 2.407960 1_555
Na7 O0 2.217819 1_555
Na7 O2 2.217819 1_555
Na7 O1 2.217827 1_555
Na7 O3 2.217827 1_555
Na8 O3 2.328581 1_565
Na8 O4 2.328581 1_565
Na8 O2 2.377978 1_555
Na8 O5 2.377978 1_555
Na9 O2 2.328594 1_655
Na9 O5 2.328594 1_655
Na9 O3 2.378006 1_555
Na9 O4 2.378006 1_555
N0 Re0 1.731048 1_665
N0 Na8 2.389992 1_555
N0 Na9 2.389994 1_555
N1 Re1 1.731048 1_445
N1 Na2 2.389992 1_555
N1 Na3 2.389994 1_555
O0 Re1 1.975533 1_555
O1 Re1 1.975532 1_555
O2 Re0 1.975533 1_555
O3 Re0 1.975532 1_555
O4 Re0 1.975532 1_555
O5 Re0 1.975533 1_555
O6 Re1 1.975532 1_555
O7 Re1 1.975533 1_555
