# generated using pymatgen
data_Lu2Rh6S
_symmetry_space_group_name_H-M   'P 1'
_cell_length_a   5.84971511
_cell_length_b   5.84971419
_cell_length_c   5.84971424
_cell_angle_alpha   59.99998878
_cell_angle_beta   59.99999398
_cell_angle_gamma   59.99999079
_symmetry_Int_Tables_number   1
_chemical_formula_structural   Lu2Rh6S
_chemical_formula_sum   'Lu2 Rh6 S1'
_cell_volume   141.54317387
_cell_formula_units_Z   1
loop_
 _symmetry_equiv_pos_site_id
 _symmetry_equiv_pos_as_xyz
  1  'x, y, z'
loop_
 _atom_site_type_symbol
 _atom_site_label
 _atom_site_symmetry_multiplicity
 _atom_site_fract_x
 _atom_site_fract_y
 _atom_site_fract_z
 _atom_site_occupancy
  Lu  Lu0  1  0.25000000  0.25000000  0.25000000  1
  Lu  Lu1  1  0.75000000  0.75000000  0.75000000  1
  Rh  Rh0  1  0.73553252  0.26446848  0.26446848  1
  Rh  Rh1  1  0.26446848  0.73553252  0.26446848  1
  Rh  Rh2  1  0.73553152  0.73553152  0.26446948  1
  Rh  Rh3  1  0.26446948  0.73553152  0.73553152  1
  Rh  Rh4  1  0.26446848  0.26446848  0.73553252  1
  Rh  Rh5  1  0.73553152  0.26446948  0.73553152  1
  S  S0  1  0.00000000  0.00000000  0.00000000  1
loop_
_geom_bond_atom_site_label_1
_geom_bond_atom_site_label_2
_geom_bond_distance
_geom_bond_site_symmetry_2
Lu0 Rh1 2.927299 1_545
Lu0 Rh4 2.927299 1_554
Lu0 Rh0 2.927300 1_455
Lu0 Rh3 2.927305 1_545
Lu0 Rh3 2.927305 1_554
Lu0 Rh2 2.927305 1_545
Lu0 Rh2 2.927305 1_455
Lu0 Rh5 2.927305 1_554
Lu0 Rh5 2.927305 1_455
Lu0 Rh1 2.927311 1_555
Lu0 Rh4 2.927311 1_555
Lu0 Rh0 2.927312 1_555
Lu1 Rh5 2.927299 1_555
Lu1 Rh2 2.927299 1_555
Lu1 Rh3 2.927300 1_555
Lu1 Rh0 2.927305 1_565
Lu1 Rh0 2.927305 1_556
Lu1 Rh4 2.927305 1_565
Lu1 Rh4 2.927305 1_655
Lu1 Rh1 2.927305 1_556
Lu1 Rh1 2.927305 1_655
Lu1 Rh5 2.927311 1_565
Lu1 Rh2 2.927311 1_556
Lu1 Rh3 2.927311 1_655
Rh0 S0 2.187880 1_655
Rh1 S0 2.187880 1_565
Rh2 S0 2.187880 1_665
Rh3 S0 2.187880 1_566
Rh4 S0 2.187880 1_556
Rh5 S0 2.187880 1_656
