# generated using pymatgen
data_Ba3AgBiO6
_symmetry_space_group_name_H-M   'P 1'
_cell_length_a   7.31239322
_cell_length_b   7.31239288
_cell_length_c   7.31239347
_cell_angle_alpha   90.90851276
_cell_angle_beta   90.90851312
_cell_angle_gamma   90.90851474
_symmetry_Int_Tables_number   1
_chemical_formula_structural   Ba3AgBiO6
_chemical_formula_sum   'Ba6 Ag2 Bi2 O12'
_cell_volume   390.85262563
_cell_formula_units_Z   2
loop_
 _symmetry_equiv_pos_site_id
 _symmetry_equiv_pos_as_xyz
  1  'x, y, z'
loop_
 _atom_site_type_symbol
 _atom_site_label
 _atom_site_symmetry_multiplicity
 _atom_site_fract_x
 _atom_site_fract_y
 _atom_site_fract_z
 _atom_site_occupancy
  Ba  Ba0  1  0.25000000  0.90069552  0.59930448  1
  Ba  Ba1  1  0.75000000  0.09930448  0.40069552  1
  Ba  Ba2  1  0.90069552  0.59930448  0.25000000  1
  Ba  Ba3  1  0.40069552  0.75000000  0.09930448  1
  Ba  Ba4  1  0.09930448  0.40069552  0.75000000  1
  Ba  Ba5  1  0.59930448  0.25000000  0.90069552  1
  Ag  Ag0  1  0.75000000  0.75000000  0.75000000  1
  Ag  Ag1  1  0.25000000  0.25000000  0.25000000  1
  Bi  Bi0  1  0.00000000  0.00000000  0.00000000  1
  Bi  Bi1  1  0.50000000  0.50000000  0.50000000  1
  O  O0  1  0.72419406  0.92019879  0.05688312  1
  O  O1  1  0.05688312  0.72419406  0.92019879  1
  O  O2  1  0.07980121  0.94311688  0.27580594  1
  O  O3  1  0.92019879  0.05688312  0.72419406  1
  O  O4  1  0.44311688  0.57980121  0.77580594  1
  O  O5  1  0.57980121  0.77580594  0.44311688  1
  O  O6  1  0.27580594  0.07980121  0.94311688  1
  O  O7  1  0.94311688  0.27580594  0.07980121  1
  O  O8  1  0.22419406  0.55688312  0.42019879  1
  O  O9  1  0.55688312  0.42019879  0.22419406  1
  O  O10  1  0.42019879  0.22419406  0.55688312  1
  O  O11  1  0.77580594  0.44311688  0.57980121  1
loop_
_geom_bond_atom_site_label_1
_geom_bond_atom_site_label_2
_geom_bond_distance
_geom_bond_site_symmetry_2
Ba0 O10 2.680136 1_565
Ba0 O2 2.680136 1_555
Ba0 O8 2.818556 1_555
Ba0 O6 2.818556 1_565
Ba0 O3 2.842273 1_465
Ba0 O5 2.842273 1_555
Ba0 O4 3.051121 1_555
Ba0 O1 3.051121 1_555
Ba1 O5 2.680136 1_545
Ba1 O3 2.680136 1_555
Ba1 O11 2.818556 1_555
Ba1 O0 2.818556 1_545
Ba1 O2 2.842273 1_645
Ba1 O10 2.842273 1_555
Ba1 O9 3.051121 1_555
Ba1 O7 3.051121 1_555
Ba2 O7 2.680136 1_555
Ba2 O8 2.680136 1_655
Ba2 O2 2.818556 1_655
Ba2 O9 2.818556 1_555
Ba2 O11 2.842273 1_555
Ba2 O1 2.842273 1_654
Ba2 O0 3.051121 1_555
Ba2 O5 3.051121 1_555
Ba3 O0 2.680136 1_555
Ba3 O4 2.680136 1_554
Ba3 O1 2.818556 1_554
Ba3 O5 2.818556 1_555
Ba3 O6 2.842273 1_564
Ba3 O9 2.842273 1_555
Ba3 O8 3.051121 1_555
Ba3 O2 3.051121 1_555
Ba4 O1 2.680136 1_555
Ba4 O11 2.680136 1_455
Ba4 O3 2.818556 1_455
Ba4 O4 2.818556 1_555
Ba4 O8 2.842273 1_555
Ba4 O7 2.842273 1_456
Ba4 O6 3.051121 1_555
Ba4 O10 3.051121 1_555
Ba5 O6 2.680136 1_555
Ba5 O9 2.680136 1_556
Ba5 O7 2.818556 1_556
Ba5 O10 2.818556 1_555
Ba5 O0 2.842273 1_546
Ba5 O4 2.842273 1_555
Ba5 O11 3.051121 1_555
Ba5 O3 3.051121 1_555
Ag0 O3 2.559807 1_565
Ag0 O11 2.559807 1_555
Ag0 O4 2.559807 1_555
Ag0 O1 2.559807 1_655
Ag0 O0 2.559807 1_556
Ag0 O5 2.559807 1_555
Ag1 O2 2.559807 1_545
Ag1 O8 2.559807 1_555
Ag1 O9 2.559807 1_555
Ag1 O7 2.559807 1_455
Ag1 O6 2.559807 1_554
Ag1 O10 2.559807 1_555
Bi0 O7 2.139626 1_455
Bi0 O1 2.139626 1_544
Bi0 O6 2.139626 1_554
Bi0 O0 2.139626 1_445
Bi0 O3 2.139626 1_454
Bi0 O2 2.139626 1_545
Bi1 O10 2.139626 1_555
Bi1 O5 2.139626 1_555
Bi1 O11 2.139626 1_555
Bi1 O8 2.139626 1_555
Bi1 O4 2.139626 1_555
Bi1 O9 2.139626 1_555
