# generated using pymatgen
data_Lu12Cd2Fe2Ru
_symmetry_space_group_name_H-M   'P 1'
_cell_length_a   8.13687601
_cell_length_b   8.13687648
_cell_length_c   8.13687591
_cell_angle_alpha   108.20095984
_cell_angle_beta   108.20095662
_cell_angle_gamma   112.04275357
_symmetry_Int_Tables_number   1
_chemical_formula_structural   Lu12Cd2Fe2Ru
_chemical_formula_sum   'Lu12 Cd2 Fe2 Ru1'
_cell_volume   414.08679311
_cell_formula_units_Z   1
loop_
 _symmetry_equiv_pos_site_id
 _symmetry_equiv_pos_as_xyz
  1  'x, y, z'
loop_
 _atom_site_type_symbol
 _atom_site_label
 _atom_site_symmetry_multiplicity
 _atom_site_fract_x
 _atom_site_fract_y
 _atom_site_fract_z
 _atom_site_occupancy
  Lu  Lu0  1  0.30975264  0.30975264  0.61950528  1
  Lu  Lu1  1  0.69024736  0.69024736  0.38049472  1
  Lu  Lu2  1  0.69024736  0.30975264  0.00000000  1
  Lu  Lu3  1  0.30975264  0.69024736  1.00000000  1
  Lu  Lu4  1  0.19018960  0.43008201  0.23989241  1
  Lu  Lu5  1  0.80981040  0.56991799  0.76010759  1
  Lu  Lu6  1  0.19018960  0.95029519  0.76010759  1
  Lu  Lu7  1  0.95029519  0.19018960  0.76010759  1
  Lu  Lu8  1  0.80981040  0.04970481  0.23989241  1
  Lu  Lu9  1  0.04970481  0.80981040  0.23989241  1
  Lu  Lu10  1  0.43008201  0.19018960  0.23989241  1
  Lu  Lu11  1  0.56991799  0.80981040  0.76010759  1
  Cd  Cd0  1  0.00000000  0.50000000  0.50000000  1
  Cd  Cd1  1  0.50000000  0.00000000  0.50000000  1
  Fe  Fe0  1  0.37731752  0.37731752  1.00000000  1
  Fe  Fe1  1  0.62268248  0.62268248  0.00000000  1
  Ru  Ru0  1  0.00000000  0.00000000  0.00000000  1
loop_
_geom_bond_atom_site_label_1
_geom_bond_atom_site_label_2
_geom_bond_distance
_geom_bond_site_symmetry_2
Lu0 Lu5 3.385254 1_555
Lu0 Lu11 3.385254 1_555
Lu0 Lu7 3.385268 1_455
Lu0 Lu6 3.385268 1_545
Lu0 Lu10 3.489012 1_555
Lu0 Lu4 3.489012 1_555
Lu0 Lu8 3.489014 1_455
Lu0 Lu9 3.489014 1_545
Lu1 Lu4 3.385254 1_555
Lu1 Lu10 3.385254 1_555
Lu1 Lu9 3.385268 1_655
Lu1 Lu8 3.385268 1_565
Lu1 Lu11 3.489012 1_555
Lu1 Lu5 3.489012 1_555
Lu1 Lu6 3.489014 1_655
Lu1 Lu7 3.489014 1_565
Lu2 Lu5 3.385254 1_554
Lu2 Lu6 3.385258 1_544
Lu2 Lu9 3.385258 1_655
Lu2 Lu7 3.488997 1_554
Lu2 Lu8 3.488997 1_555
Lu2 Lu4 3.489012 1_655
Lu3 Lu4 3.385254 1_556
Lu3 Lu8 3.385258 1_566
Lu3 Lu7 3.385258 1_455
Lu3 Lu9 3.488997 1_556
Lu3 Lu6 3.488997 1_555
Lu3 Lu5 3.489012 1_455
Lu4 Ru0 2.869212 1_555
Lu4 Lu7 3.237335 1_454
Lu4 Lu8 3.459590 1_455
Lu4 Lu9 3.674870 1_555
Lu5 Ru0 2.869212 1_666
Lu5 Lu9 3.237335 1_656
Lu5 Lu6 3.459590 1_655
Lu5 Lu7 3.674870 1_555
Lu6 Ru0 2.869214 1_566
Lu6 Lu7 3.237362 1_465
Lu6 Lu9 3.674885 1_555
Lu7 Ru0 2.869214 1_656
Lu7 Lu8 3.674885 1_555
Lu8 Ru0 2.869214 1_655
Lu8 Lu9 3.237362 1_645
Lu9 Ru0 2.869214 1_565
Lu10 Ru0 2.869212 1_555
Lu10 Lu6 3.237335 1_544
Lu10 Lu4 3.237335 1_555
Lu10 Lu2 3.385254 1_555
Lu10 Lu9 3.459590 1_545
Lu10 Lu3 3.489012 1_544
Lu10 Lu8 3.674869 1_555
Lu10 Lu5 3.674880 1_555
Lu11 Ru0 2.869212 1_666
Lu11 Lu8 3.237335 1_566
Lu11 Lu5 3.237335 1_555
Lu11 Lu3 3.385254 1_555
Lu11 Lu7 3.459590 1_565
Lu11 Lu2 3.489012 1_566
Lu11 Lu6 3.674869 1_555
Lu11 Lu4 3.674880 1_555
Cd0 Lu6 3.025337 1_555
Cd0 Lu8 3.025337 1_455
Cd0 Lu5 3.025350 1_455
Cd0 Lu4 3.025350 1_555
Cd0 Lu3 3.468762 1_555
Cd0 Lu2 3.468762 1_455
Cd0 Lu1 3.468763 1_455
Cd0 Lu0 3.468763 1_555
Cd0 Lu11 3.755042 1_555
Cd0 Lu10 3.755042 1_455
Cd0 Lu7 3.755043 1_455
Cd0 Lu9 3.755043 1_555
Cd1 Lu9 3.025337 1_545
Cd1 Lu7 3.025337 1_555
Cd1 Lu11 3.025350 1_545
Cd1 Lu10 3.025350 1_555
Cd1 Lu2 3.468762 1_556
Cd1 Lu3 3.468762 1_544
Cd1 Lu0 3.468762 1_555
Cd1 Lu1 3.468762 1_545
Cd1 Lu5 3.755043 1_555
Cd1 Lu4 3.755043 1_545
Cd1 Lu8 3.755043 1_555
Cd1 Lu6 3.755043 1_545
Fe0 Fe1 2.231627 1_556
Fe0 Lu0 2.799369 1_555
Fe0 Lu2 2.799369 1_556
Fe0 Lu1 2.799369 1_556
Fe0 Lu3 2.799369 1_555
Fe0 Lu4 2.852510 1_556
Fe0 Lu10 2.852510 1_556
Fe0 Lu7 2.852523 1_455
Fe0 Lu6 2.852523 1_545
Fe1 Lu1 2.799369 1_555
Fe1 Lu3 2.799369 1_554
Fe1 Lu0 2.799369 1_554
Fe1 Lu2 2.799369 1_555
Fe1 Lu5 2.852510 1_554
Fe1 Lu11 2.852510 1_554
Fe1 Lu9 2.852523 1_655
Fe1 Lu8 2.852523 1_565
