# generated using pymatgen
data_Hf4Al6RePt
_symmetry_space_group_name_H-M   'P 1'
_cell_length_a   5.23715581
_cell_length_b   5.21256946
_cell_length_c   8.57770779
_cell_angle_alpha   90.00000000
_cell_angle_beta   90.00000000
_cell_angle_gamma   120.55613454
_symmetry_Int_Tables_number   1
_chemical_formula_structural   Hf4Al6RePt
_chemical_formula_sum   'Hf4 Al6 Re1 Pt1'
_cell_volume   201.64528484
_cell_formula_units_Z   1
loop_
 _symmetry_equiv_pos_site_id
 _symmetry_equiv_pos_as_xyz
  1  'x, y, z'
loop_
 _atom_site_type_symbol
 _atom_site_label
 _atom_site_symmetry_multiplicity
 _atom_site_fract_x
 _atom_site_fract_y
 _atom_site_fract_z
 _atom_site_occupancy
  Hf  Hf0  1  0.33499136  0.66788521  0.43162104  1
  Hf  Hf1  1  0.67131165  0.32774640  0.94090049  1
  Hf  Hf2  1  0.67131165  0.32774640  0.55909951  1
  Hf  Hf3  1  0.33499136  0.66788521  0.06837896  1
  Al  Al0  1  0.34343803  0.17334261  0.25000000  1
  Al  Al1  1  0.64765835  0.81181111  0.75000000  1
  Al  Al2  1  0.99921060  0.01066830  0.99775777  1
  Al  Al3  1  0.99921060  0.01066830  0.50224223  1
  Al  Al4  1  0.82995481  0.66532913  0.25000000  1
  Al  Al5  1  0.17104444  0.82709883  0.75000000  1
  Re  Re0  1  0.83907272  0.17847862  0.25000000  1
  Pt  Pt0  1  0.15780240  0.33133789  0.75000000  1
loop_
_geom_bond_atom_site_label_1
_geom_bond_atom_site_label_2
_geom_bond_distance
_geom_bond_site_symmetry_2
Hf0 Re0 2.990605 1_455
Hf0 Re0 3.055478 1_565
Hf0 Hf3 3.115784 1_555
Hf0 Pt0 3.121147 1_555
Hf0 Hf2 3.157347 1_565
Hf0 Hf2 3.186606 1_455
Hf0 Hf2 3.258349 1_555
Hf1 Re0 3.016971 1_556
Hf1 Pt0 3.020703 1_655
Hf1 Pt0 3.156801 1_555
Hf1 Hf3 3.157347 1_546
Hf1 Hf3 3.186606 1_656
Hf1 Hf3 3.258349 1_556
Hf1 Hf2 3.274977 1_555
Hf2 Re0 3.016971 1_555
Hf2 Pt0 3.020703 1_655
Hf2 Pt0 3.156801 1_555
Hf3 Re0 2.990605 1_455
Hf3 Re0 3.055478 1_565
Hf3 Pt0 3.121147 1_554
Al0 Al4 2.534762 1_555
Al0 Re0 2.582209 1_555
Al0 Al4 2.646401 1_445
Al0 Re0 2.655150 1_455
Al0 Al3 2.663859 1_455
Al0 Al2 2.663859 1_454
Al0 Hf3 3.031531 1_555
Al0 Hf0 3.031531 1_555
Al0 Hf2 3.036584 1_555
Al0 Hf1 3.036584 1_554
Al0 Hf3 3.041758 1_545
Al0 Hf0 3.041758 1_545
Al1 Pt0 2.514195 1_555
Al1 Al5 2.537541 1_555
Al1 Al2 2.653345 1_565
Al1 Al3 2.653345 1_565
Al1 Pt0 2.667431 1_665
Al1 Al5 2.701414 1_655
Al1 Hf1 3.062869 1_555
Al1 Hf2 3.062869 1_555
Al1 Hf0 3.074617 1_555
Al1 Hf3 3.074617 1_556
Al1 Hf1 3.096866 1_565
Al1 Hf2 3.096866 1_565
Al2 Pt0 2.566840 1_655
Al2 Re0 2.625991 1_556
Al2 Al4 2.661793 1_546
Al2 Al5 2.667854 1_645
Al2 Hf1 2.967221 1_555
Al2 Hf3 3.011655 1_656
Al2 Hf3 3.056240 1_546
Al2 Hf1 3.073120 1_655
Al2 Hf1 3.105368 1_545
Al2 Hf3 3.137959 1_646
Al3 Pt0 2.566840 1_655
Al3 Re0 2.625991 1_555
Al3 Al4 2.661793 1_545
Al3 Al5 2.667854 1_645
Al3 Hf2 2.967221 1_555
Al3 Hf0 3.011655 1_655
Al3 Hf0 3.056240 1_545
Al3 Hf2 3.073120 1_655
Al3 Hf2 3.105368 1_545
Al3 Hf0 3.137959 1_645
Al4 Re0 2.562348 1_555
Al4 Re0 2.650870 1_565
Al4 Hf3 3.030153 1_555
Al4 Hf0 3.030153 1_555
Al4 Hf2 3.054499 1_555
Al4 Hf1 3.054499 1_554
Al4 Hf3 3.063848 1_655
Al4 Hf0 3.063848 1_655
Al5 Pt0 2.549631 1_555
Al5 Pt0 2.664307 1_565
Al5 Hf1 3.062621 1_455
Al5 Hf2 3.062621 1_455
Al5 Hf1 3.066611 1_565
Al5 Hf2 3.066611 1_565
Al5 Hf0 3.099782 1_555
Al5 Hf3 3.099782 1_556
