# generated using pymatgen
data_Zn2Fe3RhO8
_symmetry_space_group_name_H-M   'P 1'
_cell_length_a   5.97268968
_cell_length_b   5.97268950
_cell_length_c   5.97268907
_cell_angle_alpha   59.99848953
_cell_angle_beta   59.99849462
_cell_angle_gamma   59.99848526
_symmetry_Int_Tables_number   1
_chemical_formula_structural   Zn2Fe3RhO8
_chemical_formula_sum   'Zn2 Fe3 Rh1 O8'
_cell_volume   150.65374328
_cell_formula_units_Z   1
loop_
 _symmetry_equiv_pos_site_id
 _symmetry_equiv_pos_as_xyz
  1  'x, y, z'
loop_
 _atom_site_type_symbol
 _atom_site_label
 _atom_site_symmetry_multiplicity
 _atom_site_fract_x
 _atom_site_fract_y
 _atom_site_fract_z
 _atom_site_occupancy
  Zn  Zn0  1  0.62729504  0.62729504  0.62729504  1
  Zn  Zn1  1  0.37270496  0.37270496  0.37270496  1
  Fe  Fe0  1  0.00000000  0.50000000  0.00000000  1
  Fe  Fe1  1  0.50000000  0.00000000  0.00000000  1
  Fe  Fe2  1  0.00000000  0.00000000  0.50000000  1
  Rh  Rh0  1  0.00000000  0.00000000  0.00000000  1
  O  O0  1  0.23941900  0.23941900  0.23941900  1
  O  O1  1  0.24241383  0.77728712  0.24241383  1
  O  O2  1  0.77728712  0.24241383  0.24241383  1
  O  O3  1  0.24241383  0.24241383  0.77728712  1
  O  O4  1  0.76058100  0.76058100  0.76058100  1
  O  O5  1  0.75758617  0.22271288  0.75758617  1
  O  O6  1  0.22271288  0.75758617  0.75758617  1
  O  O7  1  0.75758617  0.75758617  0.22271288  1
loop_
_geom_bond_atom_site_label_1
_geom_bond_atom_site_label_2
_geom_bond_distance
_geom_bond_site_symmetry_2
Fe0 O0 2.026209 1_555
Fe0 O4 2.026209 1_454
Fe0 O7 2.031154 1_455
Fe0 O3 2.031154 1_554
Fe0 O2 2.031154 1_455
Fe0 O6 2.031154 1_554
Fe1 O0 2.026209 1_555
Fe1 O4 2.026209 1_544
Fe1 O7 2.031154 1_545
Fe1 O3 2.031154 1_554
Fe1 O5 2.031154 1_554
Fe1 O1 2.031154 1_545
Fe2 O0 2.026210 1_555
Fe2 O4 2.026210 1_445
Fe2 O6 2.031154 1_545
Fe2 O2 2.031154 1_455
Fe2 O5 2.031154 1_455
Fe2 O1 2.031154 1_545
O0 Zn1 1.950001 1_555
O1 Zn1 1.973548 1_555
O1 Rh0 2.050945 1_565
O2 Zn1 1.973548 1_555
O2 Rh0 2.050945 1_655
O3 Zn1 1.973548 1_555
O3 Rh0 2.050946 1_556
O4 Zn0 1.950001 1_555
O5 Zn0 1.973548 1_555
O5 Rh0 2.050945 1_656
O6 Zn0 1.973548 1_555
O6 Rh0 2.050945 1_566
O7 Zn0 1.973548 1_555
O7 Rh0 2.050946 1_665
