# generated using pymatgen
data_HoBiPt
_symmetry_space_group_name_H-M   'P 1'
_cell_length_a   4.71928843
_cell_length_b   4.71928831
_cell_length_c   4.71928679
_cell_angle_alpha   59.99999626
_cell_angle_beta   59.99999717
_cell_angle_gamma   59.99999303
_symmetry_Int_Tables_number   1
_chemical_formula_structural   HoBiPt
_chemical_formula_sum   'Ho1 Bi1 Pt1'
_cell_volume   74.32148165
_cell_formula_units_Z   1
loop_
 _symmetry_equiv_pos_site_id
 _symmetry_equiv_pos_as_xyz
  1  'x, y, z'
loop_
 _atom_site_type_symbol
 _atom_site_label
 _atom_site_symmetry_multiplicity
 _atom_site_fract_x
 _atom_site_fract_y
 _atom_site_fract_z
 _atom_site_occupancy
  Ho  Ho0  1  0.50000000  0.50000000  0.50000000  1
  Bi  Bi0  1  -0.00000000  -0.00000000  0.00000000  1
  Pt  Pt0  1  0.25000000  0.25000000  0.25000000  1
loop_
_geom_bond_atom_site_label_1
_geom_bond_atom_site_label_2
_geom_bond_distance
_geom_bond_site_symmetry_2
Ho0 Pt0 2.889961 1_556
Ho0 Pt0 2.889962 1_565
Ho0 Pt0 2.889962 1_555
Ho0 Pt0 2.889962 1_655
Bi0 Pt0 2.889961 1_554
Bi0 Pt0 2.889962 1_545
Bi0 Pt0 2.889962 1_555
Bi0 Pt0 2.889962 1_455
Bi0 Ho0 3.337040 1_454
Bi0 Ho0 3.337040 1_545
Bi0 Ho0 3.337040 1_455
Bi0 Ho0 3.337040 1_544
Bi0 Ho0 3.337041 1_445
Bi0 Ho0 3.337041 1_554
