# generated using pymatgen
data_Mg4P6SeN12
_symmetry_space_group_name_H-M   'P 1'
_cell_length_a   7.20605060
_cell_length_b   7.20605131
_cell_length_c   7.20605075
_cell_angle_alpha   109.47122459
_cell_angle_beta   109.47122657
_cell_angle_gamma   109.47121271
_symmetry_Int_Tables_number   1
_chemical_formula_structural   Mg4P6SeN12
_chemical_formula_sum   'Mg4 P6 Se1 N12'
_cell_volume   288.05145470
_cell_formula_units_Z   1
loop_
 _symmetry_equiv_pos_site_id
 _symmetry_equiv_pos_as_xyz
  1  'x, y, z'
loop_
 _atom_site_type_symbol
 _atom_site_label
 _atom_site_symmetry_multiplicity
 _atom_site_fract_x
 _atom_site_fract_y
 _atom_site_fract_z
 _atom_site_occupancy
  Mg  Mg0  1  0.35480509  0.35480509  0.35480509  1
  Mg  Mg1  1  0.00000000  0.64519491  0.00000000  1
  Mg  Mg2  1  0.64519491  0.00000000  1.00000000  1
  Mg  Mg3  1  1.00000000  1.00000000  0.64519491  1
  P  P0  1  0.50000000  0.25000000  0.75000000  1
  P  P1  1  0.50000000  0.75000000  0.25000000  1
  P  P2  1  0.75000000  0.25000000  0.50000000  1
  P  P3  1  0.25000000  0.50000000  0.75000000  1
  P  P4  1  0.75000000  0.50000000  0.25000000  1
  P  P5  1  0.25000000  0.75000000  0.50000000  1
  Se  Se0  1  0.00000000  0.00000000  0.00000000  1
  N  N0  1  0.00000000  0.72281406  0.43531920  1
  N  N1  1  0.27718594  0.71250414  0.27718594  1
  N  N2  1  0.28749586  0.56468080  0.56468080  1
  N  N3  1  0.56468080  0.56468080  0.28749586  1
  N  N4  1  0.56468080  0.28749586  0.56468080  1
  N  N5  1  0.72281406  1.00000000  0.43531920  1
  N  N6  1  0.43531920  1.00000000  0.72281406  1
  N  N7  1  0.72281406  0.43531920  1.00000000  1
  N  N8  1  0.27718594  0.27718594  0.71250414  1
  N  N9  1  0.71250414  0.27718594  0.27718594  1
  N  N10  1  1.00000000  0.43531920  0.72281406  1
  N  N11  1  0.43531920  0.72281406  0.00000000  1
loop_
_geom_bond_atom_site_label_1
_geom_bond_atom_site_label_2
_geom_bond_distance
_geom_bond_site_symmetry_2
Mg0 N4 2.064711 1_555
Mg0 N2 2.064711 1_555
Mg0 N3 2.064711 1_555
Mg0 Se0 2.556743 1_555
Mg1 N10 2.064716 1_454
Mg1 N7 2.064717 1_454
Mg1 N1 2.064719 1_555
Mg1 Se0 2.556744 1_565
Mg2 N6 2.064716 1_545
Mg2 N11 2.064717 1_546
Mg2 N9 2.064719 1_556
Mg2 Se0 2.556743 1_656
Mg3 N5 2.064716 1_555
Mg3 N0 2.064716 1_655
Mg3 N8 2.064720 1_665
Mg3 Se0 2.556743 1_666
N0 P5 1.626386 1_555
N0 P4 1.626386 1_455
N1 P5 1.626386 1_555
N1 P1 1.626386 1_555
N2 P3 1.626389 1_555
N2 P5 1.626389 1_555
N3 P4 1.626389 1_555
N3 P1 1.626389 1_555
N4 P2 1.626389 1_555
N4 P0 1.626389 1_555
N5 P1 1.626387 1_555
N5 P2 1.626387 1_565
N6 P5 1.626386 1_555
N6 P0 1.626387 1_565
N7 P0 1.626386 1_555
N7 P4 1.626386 1_556
N8 P0 1.626385 1_555
N8 P3 1.626386 1_555
N9 P2 1.626386 1_555
N9 P4 1.626386 1_555
N10 P2 1.626386 1_555
N10 P3 1.626386 1_655
N11 P1 1.626386 1_555
N11 P3 1.626386 1_554
