# generated using pymatgen
data_Sr3FeN3
_symmetry_space_group_name_H-M   'P 1'
_cell_length_a   7.62679874
_cell_length_b   7.62629286
_cell_length_c   5.28097266
_cell_angle_alpha   90.00000000
_cell_angle_beta   90.00000000
_cell_angle_gamma   119.99766804
_symmetry_Int_Tables_number   1
_chemical_formula_structural   Sr3FeN3
_chemical_formula_sum   'Sr6 Fe2 N6'
_cell_volume   266.01769158
_cell_formula_units_Z   2
loop_
 _symmetry_equiv_pos_site_id
 _symmetry_equiv_pos_as_xyz
  1  'x, y, z'
loop_
 _atom_site_type_symbol
 _atom_site_label
 _atom_site_symmetry_multiplicity
 _atom_site_fract_x
 _atom_site_fract_y
 _atom_site_fract_z
 _atom_site_occupancy
  Sr  Sr0  1  0.72540361  0.08525390  0.25000000  1
  Sr  Sr1  1  0.64026548  0.72548835  0.75000000  1
  Sr  Sr2  1  0.08529095  0.35977964  0.75000000  1
  Sr  Sr3  1  0.91468233  0.64014838  0.25000000  1
  Sr  Sr4  1  0.35981899  0.27459315  0.25000000  1
  Sr  Sr5  1  0.27451454  0.91472671  0.75000000  1
  Fe  Fe0  1  0.33332908  0.66672492  0.25000000  1
  Fe  Fe1  1  0.66668426  0.33328434  0.75000000  1
  N  N0  1  0.68807358  0.11706185  0.75000000  1
  N  N1  1  0.57100690  0.68824447  0.25000000  1
  N  N2  1  0.11714904  0.42895391  0.25000000  1
  N  N3  1  0.88292865  0.57091234  0.75000000  1
  N  N4  1  0.42910624  0.31197690  0.75000000  1
  N  N5  1  0.31174633  0.88285116  0.25000000  1
loop_
_geom_bond_atom_site_label_1
_geom_bond_atom_site_label_2
_geom_bond_distance
_geom_bond_site_symmetry_2
Fe0 N5 1.736402 1_555
Fe0 N1 1.736496 1_555
Fe0 N2 1.736953 1_555
Fe1 N0 1.736294 1_555
Fe1 N4 1.736429 1_555
Fe1 N3 1.736542 1_555
N0 Sr2 2.645160 1_655
N0 Sr0 2.679763 1_556
N0 Sr0 2.679763 1_555
N0 Sr5 2.731832 1_545
N0 Sr1 2.821681 1_545
N1 Sr0 2.643600 1_565
N1 Sr1 2.679895 1_554
N1 Sr1 2.679895 1_555
N1 Sr4 2.732256 1_555
N1 Sr3 2.822461 1_555
N2 Sr4 2.643832 1_555
N2 Sr2 2.679801 1_555
N2 Sr2 2.679801 1_554
N2 Sr3 2.732310 1_455
N2 Sr0 2.822472 1_455
N3 Sr1 2.645089 1_555
N3 Sr3 2.679879 1_555
N3 Sr3 2.679879 1_556
N3 Sr2 2.731215 1_655
N3 Sr5 2.822098 1_655
N4 Sr5 2.645105 1_545
N4 Sr4 2.679935 1_555
N4 Sr4 2.679935 1_556
N4 Sr1 2.731336 1_555
N4 Sr2 2.822192 1_555
N5 Sr3 2.644216 1_455
N5 Sr5 2.679724 1_554
N5 Sr5 2.679724 1_555
N5 Sr0 2.732480 1_565
N5 Sr4 2.822152 1_565
