# generated using pymatgen
data_Ta4CuP
_symmetry_space_group_name_H-M   'P 1'
_cell_length_a   5.00560210
_cell_length_b   5.00560268
_cell_length_c   5.00560202
_cell_angle_alpha   104.33627095
_cell_angle_beta   104.33627012
_cell_angle_gamma   120.31643619
_symmetry_Int_Tables_number   1
_chemical_formula_structural   Ta4CuP
_chemical_formula_sum   'Ta4 Cu1 P1'
_cell_volume   93.91323603
_cell_formula_units_Z   1
loop_
 _symmetry_equiv_pos_site_id
 _symmetry_equiv_pos_as_xyz
  1  'x, y, z'
loop_
 _atom_site_type_symbol
 _atom_site_label
 _atom_site_symmetry_multiplicity
 _atom_site_fract_x
 _atom_site_fract_y
 _atom_site_fract_z
 _atom_site_occupancy
  Ta  Ta0  1  0.16039496  0.66039496  0.82079092  1
  Ta  Ta1  1  0.33960504  0.16039496  0.50000000  1
  Ta  Ta2  1  0.66039496  0.83960504  0.50000000  1
  Ta  Ta3  1  0.83960504  0.33960504  0.17920908  1
  Cu  Cu0  1  0.75000000  0.75000000  0.00000000  1
  P  P0  1  0.25000000  0.25000000  0.00000000  1
loop_
_geom_bond_atom_site_label_1
_geom_bond_atom_site_label_2
_geom_bond_distance
_geom_bond_site_symmetry_2
Cu0 P0 2.490821 1_665
Cu0 P0 2.490821 1_555
Cu0 Ta0 2.620964 1_654
Cu0 Ta3 2.620964 1_555
Cu0 Ta1 2.620966 1_665
Cu0 Ta0 2.620966 1_554
Cu0 Ta2 2.620966 1_555
Cu0 Ta2 2.620966 1_554
Cu0 Ta1 2.620966 1_554
Cu0 Ta3 2.620966 1_565
P0 Ta3 2.620964 1_455
P0 Ta0 2.620964 1_554
P0 Ta2 2.620966 1_444
P0 Ta3 2.620966 1_555
P0 Ta1 2.620966 1_554
P0 Ta1 2.620966 1_555
P0 Ta2 2.620966 1_555
P0 Ta0 2.620966 1_544
