# generated using pymatgen
data_Rb2Nb6PbCl18
_symmetry_space_group_name_H-M   'P 1'
_cell_length_a   10.32771846
_cell_length_b   10.32771785
_cell_length_c   10.32771838
_cell_angle_alpha   54.62557202
_cell_angle_beta   54.62557489
_cell_angle_gamma   54.62557127
_symmetry_Int_Tables_number   1
_chemical_formula_structural   Rb2Nb6PbCl18
_chemical_formula_sum   'Rb2 Nb6 Pb1 Cl18'
_cell_volume   681.38036841
_cell_formula_units_Z   1
loop_
 _symmetry_equiv_pos_site_id
 _symmetry_equiv_pos_as_xyz
  1  'x, y, z'
loop_
 _atom_site_type_symbol
 _atom_site_label
 _atom_site_symmetry_multiplicity
 _atom_site_fract_x
 _atom_site_fract_y
 _atom_site_fract_z
 _atom_site_occupancy
  Rb  Rb0  1  0.72289158  0.72289158  0.72289158  1
  Rb  Rb1  1  0.27710842  0.27710842  0.27710842  1
  Nb  Nb0  1  0.57767592  0.35254925  0.70611202  1
  Nb  Nb1  1  0.35254925  0.70611202  0.57767592  1
  Nb  Nb2  1  0.70611202  0.57767592  0.35254925  1
  Nb  Nb3  1  0.64745075  0.29388798  0.42232408  1
  Nb  Nb4  1  0.42232408  0.64745075  0.29388798  1
  Nb  Nb5  1  0.29388798  0.42232408  0.64745075  1
  Pb  Pb0  1  0.00000000  0.00000000  0.00000000  1
  Cl  Cl0  1  0.91593349  0.34920031  0.23396738  1
  Cl  Cl1  1  0.83479884  0.41868431  0.57043165  1
  Cl  Cl2  1  0.76603262  0.08406651  0.65079969  1
  Cl  Cl3  1  0.08406651  0.65079969  0.76603262  1
  Cl  Cl4  1  0.66853883  0.16969978  0.97266825  1
  Cl  Cl5  1  0.23396738  0.91593349  0.34920031  1
  Cl  Cl6  1  0.42956835  0.16520116  0.58131569  1
  Cl  Cl7  1  0.65079969  0.76603262  0.08406651  1
  Cl  Cl8  1  0.58131569  0.42956835  0.16520116  1
  Cl  Cl9  1  0.02733175  0.33146117  0.83030022  1
  Cl  Cl10  1  0.57043165  0.83479884  0.41868431  1
  Cl  Cl11  1  0.34920031  0.23396738  0.91593349  1
  Cl  Cl12  1  0.97266825  0.66853883  0.16969978  1
  Cl  Cl13  1  0.16520116  0.58131569  0.42956835  1
  Cl  Cl14  1  0.83030022  0.02733175  0.33146117  1
  Cl  Cl15  1  0.41868431  0.57043165  0.83479884  1
  Cl  Cl16  1  0.16969978  0.97266825  0.66853883  1
  Cl  Cl17  1  0.33146117  0.83030022  0.02733175  1
loop_
_geom_bond_atom_site_label_1
_geom_bond_atom_site_label_2
_geom_bond_distance
_geom_bond_site_symmetry_2
Cl0 Nb3 2.470028 1_555
Cl0 Nb2 2.473126 1_555
Cl0 Rb1 3.604330 1_655
Cl1 Nb0 2.482987 1_555
Cl1 Nb2 2.486748 1_555
Cl1 Rb0 3.619694 1_555
Cl1 Rb1 3.681667 1_655
Cl2 Nb0 2.470028 1_555
Cl2 Nb3 2.473127 1_555
Cl2 Rb0 3.604330 1_545
Cl3 Nb1 2.470028 1_555
Cl3 Nb5 2.473126 1_555
Cl3 Rb0 3.604330 1_455
Cl4 Nb0 2.635411 1_555
Cl4 Pb0 2.910213 1_656
Cl4 Rb1 3.404141 1_556
Cl5 Nb4 2.470028 1_555
Cl5 Nb1 2.473127 1_555
Cl5 Rb1 3.604330 1_565
Cl6 Nb5 2.482987 1_555
Cl6 Nb3 2.486748 1_555
Cl6 Rb1 3.619694 1_555
Cl6 Rb0 3.681667 1_545
Cl7 Nb2 2.470028 1_555
Cl7 Nb4 2.473127 1_555
Cl7 Rb0 3.604330 1_554
Cl8 Nb3 2.482987 1_555
Cl8 Nb4 2.486748 1_555
Cl8 Rb1 3.619694 1_555
Cl8 Rb0 3.681667 1_554
Cl9 Nb5 2.635411 1_555
Cl9 Pb0 2.910212 1_556
Cl9 Rb0 3.404141 1_455
Cl10 Nb2 2.482987 1_555
Cl10 Nb1 2.486748 1_555
Cl10 Rb0 3.619694 1_555
Cl10 Rb1 3.681667 1_565
Cl11 Nb5 2.470028 1_555
Cl11 Nb0 2.473127 1_555
Cl11 Rb1 3.604330 1_556
Cl12 Nb2 2.635411 1_555
Cl12 Pb0 2.910212 1_665
Cl12 Rb1 3.404141 1_655
Cl13 Nb4 2.482987 1_555
Cl13 Nb5 2.486748 1_555
Cl13 Rb1 3.619694 1_555
Cl13 Rb0 3.681667 1_455
Cl14 Nb3 2.635411 1_555
Cl14 Pb0 2.910213 1_655
Cl14 Rb0 3.404141 1_545
Cl15 Nb1 2.482987 1_555
Cl15 Nb0 2.486748 1_555
Cl15 Rb0 3.619694 1_555
Cl15 Rb1 3.681667 1_556
Cl16 Nb1 2.635411 1_555
Cl16 Pb0 2.910213 1_566
Cl16 Rb1 3.404141 1_565
Cl17 Nb4 2.635411 1_555
Cl17 Pb0 2.910213 1_565
Cl17 Rb0 3.404141 1_554
