# generated using pymatgen
data_Rb3AgGe4
_symmetry_space_group_name_H-M   'P 1'
_cell_length_a   6.22443619
_cell_length_b   6.92954943
_cell_length_c   12.41193733
_cell_angle_alpha   90.00000000
_cell_angle_beta   90.00000000
_cell_angle_gamma   90.00000000
_symmetry_Int_Tables_number   1
_chemical_formula_structural   Rb3AgGe4
_chemical_formula_sum   'Rb6 Ag2 Ge8'
_cell_volume   535.35836192
_cell_formula_units_Z   2
loop_
 _symmetry_equiv_pos_site_id
 _symmetry_equiv_pos_as_xyz
  1  'x, y, z'
loop_
 _atom_site_type_symbol
 _atom_site_label
 _atom_site_symmetry_multiplicity
 _atom_site_fract_x
 _atom_site_fract_y
 _atom_site_fract_z
 _atom_site_occupancy
  Rb  Rb0  1  0.83582914  0.50000000  0.26514880  1
  Rb  Rb1  1  0.83582914  0.50000000  0.73485120  1
  Rb  Rb2  1  0.42491844  0.50000000  0.50000000  1
  Rb  Rb3  1  0.16417086  0.00000000  0.23485120  1
  Rb  Rb4  1  0.16417086  0.00000000  0.76514880  1
  Rb  Rb5  1  0.57508156  0.00000000  0.00000000  1
  Ag  Ag0  1  0.69723064  0.50000000  0.00000000  1
  Ag  Ag1  1  0.30276936  0.00000000  0.50000000  1
  Ge  Ge0  1  0.06623588  0.30473748  0.00000000  1
  Ge  Ge1  1  0.33165294  0.50000000  0.11002070  1
  Ge  Ge2  1  0.66834706  0.00000000  0.61002070  1
  Ge  Ge3  1  0.06623588  0.69526252  0.00000000  1
  Ge  Ge4  1  0.93376412  0.80473748  0.50000000  1
  Ge  Ge5  1  0.66834706  0.00000000  0.38997930  1
  Ge  Ge6  1  0.33165294  0.50000000  0.88997930  1
  Ge  Ge7  1  0.93376412  0.19526252  0.50000000  1
loop_
_geom_bond_atom_site_label_1
_geom_bond_atom_site_label_2
_geom_bond_distance
_geom_bond_site_symmetry_2
Ag0 Ge6 2.653818 1_554
Ag0 Ge1 2.653818 1_555
Ag0 Ge3 2.665773 1_655
Ag0 Ge0 2.665773 1_655
Ag0 Rb0 3.402205 1_555
Ag0 Rb1 3.402205 1_554
Ag0 Rb5 3.547215 1_555
Ag0 Rb5 3.547215 1_565
Ag1 Ge5 2.653818 1_555
Ag1 Ge2 2.653818 1_555
Ag1 Ge7 2.665773 1_455
Ag1 Ge4 2.665773 1_445
Ag1 Rb3 3.402205 1_555
Ag1 Rb4 3.402205 1_555
Ag1 Rb2 3.547215 1_545
Ag1 Rb2 3.547215 1_555
Ge0 Ge6 2.534749 1_554
Ge0 Ge1 2.534749 1_555
Ge0 Ge3 2.706163 1_555
Ge0 Rb4 3.650730 1_554
Ge0 Rb3 3.650730 1_555
Ge0 Rb5 3.715571 1_455
Ge0 Rb5 3.806691 1_555
Ge0 Rb0 3.836453 1_455
Ge0 Rb1 3.836453 1_454
Ge1 Ge3 2.534749 1_555
Ge1 Ge6 2.731140 1_554
Ge1 Rb0 3.637595 1_455
Ge1 Rb0 3.681806 1_555
Ge1 Rb3 3.935992 1_565
Ge1 Rb3 3.935992 1_555
Ge1 Rb5 4.020609 1_565
Ge1 Rb5 4.020609 1_555
Ge2 Ge7 2.534749 1_555
Ge2 Ge4 2.534749 1_545
Ge2 Ge5 2.731140 1_555
Ge2 Rb4 3.637595 1_655
Ge2 Rb4 3.681806 1_555
Ge2 Rb1 3.935992 1_555
Ge2 Rb1 3.935992 1_545
Ge2 Rb2 4.020609 1_555
Ge2 Rb2 4.020609 1_545
Ge3 Ge6 2.534749 1_554
Ge3 Rb4 3.650730 1_564
Ge3 Rb3 3.650730 1_565
Ge3 Rb5 3.715571 1_465
Ge3 Rb5 3.806691 1_565
Ge3 Rb0 3.836453 1_455
Ge3 Rb1 3.836453 1_454
Ge4 Ge5 2.534749 1_565
Ge4 Ge7 2.706163 1_565
Ge4 Rb1 3.650730 1_555
Ge4 Rb0 3.650730 1_555
Ge4 Rb2 3.715571 1_655
Ge4 Rb2 3.806691 1_555
Ge4 Rb3 3.836453 1_665
Ge4 Rb4 3.836453 1_665
Ge5 Ge7 2.534749 1_555
Ge5 Rb3 3.637595 1_655
Ge5 Rb3 3.681806 1_555
Ge5 Rb0 3.935992 1_545
Ge5 Rb0 3.935992 1_555
Ge5 Rb2 4.020609 1_545
Ge5 Rb2 4.020609 1_555
Ge6 Rb1 3.637595 1_455
Ge6 Rb1 3.681806 1_555
Ge6 Rb4 3.935992 1_555
Ge6 Rb4 3.935992 1_565
Ge6 Rb5 4.020609 1_556
Ge6 Rb5 4.020609 1_566
Ge7 Rb1 3.650730 1_555
Ge7 Rb0 3.650730 1_555
Ge7 Rb2 3.715571 1_655
Ge7 Rb2 3.806691 1_555
Ge7 Rb3 3.836453 1_655
Ge7 Rb4 3.836453 1_655
