# generated using pymatgen
data_LuSeBrO3
_symmetry_space_group_name_H-M   'P 1'
_cell_length_a   6.73238456
_cell_length_b   7.39729105
_cell_length_c   8.80663132
_cell_angle_alpha   90.00000000
_cell_angle_beta   90.00000000
_cell_angle_gamma   90.00000000
_symmetry_Int_Tables_number   1
_chemical_formula_structural   LuSeBrO3
_chemical_formula_sum   'Lu4 Se4 Br4 O12'
_cell_volume   438.58264019
_cell_formula_units_Z   4
loop_
 _symmetry_equiv_pos_site_id
 _symmetry_equiv_pos_as_xyz
  1  'x, y, z'
loop_
 _atom_site_type_symbol
 _atom_site_label
 _atom_site_symmetry_multiplicity
 _atom_site_fract_x
 _atom_site_fract_y
 _atom_site_fract_z
 _atom_site_occupancy
  Lu  Lu0  1  0.25000000  0.89951188  0.02761549  1
  Lu  Lu1  1  0.75000000  0.10048812  0.97238451  1
  Lu  Lu2  1  0.75000000  0.60048812  0.52761549  1
  Lu  Lu3  1  0.25000000  0.39951188  0.47238451  1
  Se  Se0  1  0.25000000  0.78419476  0.63350827  1
  Se  Se1  1  0.75000000  0.21580524  0.36649173  1
  Se  Se2  1  0.75000000  0.71580524  0.13350827  1
  Se  Se3  1  0.25000000  0.28419476  0.86649173  1
  Br  Br0  1  0.25000000  0.55743303  0.17919691  1
  Br  Br1  1  0.75000000  0.44256697  0.82080309  1
  Br  Br2  1  0.75000000  0.94256697  0.67919691  1
  Br  Br3  1  0.25000000  0.05743303  0.32080309  1
  O  O0  1  0.07016388  0.63362723  0.57086074  1
  O  O1  1  0.92983612  0.36637277  0.42913926  1
  O  O2  1  0.92983612  0.86637277  0.07086074  1
  O  O3  1  0.57016388  0.36637277  0.42913926  1
  O  O4  1  0.07016388  0.13362723  0.92913926  1
  O  O5  1  0.42983612  0.63362723  0.57086074  1
  O  O6  1  0.42983612  0.13362723  0.92913926  1
  O  O7  1  0.57016388  0.86637277  0.07086074  1
  O  O8  1  0.25000000  0.74860067  0.82213450  1
  O  O9  1  0.75000000  0.25139933  0.17786550  1
  O  O10  1  0.75000000  0.75139933  0.32213450  1
  O  O11  1  0.25000000  0.24860067  0.67786550  1
loop_
_geom_bond_atom_site_label_1
_geom_bond_atom_site_label_2
_geom_bond_distance
_geom_bond_site_symmetry_2
Lu0 O8 2.126226 1_554
Lu0 O2 2.202538 1_455
Lu0 O7 2.202538 1_555
Lu0 O6 2.284112 1_564
Lu0 O4 2.284112 1_564
Lu1 O9 2.126226 1_556
Lu1 O4 2.202538 1_655
Lu1 O6 2.202538 1_555
Lu1 O7 2.284112 1_546
Lu1 O2 2.284112 1_546
Lu2 O10 2.126226 1_555
Lu2 O5 2.202538 1_555
Lu2 O0 2.202538 1_655
Lu2 O3 2.284112 1_555
Lu2 O1 2.284112 1_555
Lu3 O11 2.126226 1_555
Lu3 O1 2.202538 1_455
Lu3 O3 2.202538 1_555
Lu3 O5 2.284112 1_555
Lu3 O0 2.284112 1_555
Br0 Lu3 2.833966 1_555
Br0 Lu0 2.860984 1_555
Br1 Lu2 2.833966 1_555
Br1 Lu1 2.860984 1_555
Br2 Lu1 2.833966 1_565
Br2 Lu2 2.860984 1_555
Br3 Lu0 2.833966 1_545
Br3 Lu3 2.860984 1_555
O0 Se0 1.735159 1_555
O1 Se1 1.735159 1_555
O2 Se2 1.735159 1_555
O3 Se1 1.735159 1_555
O4 Se3 1.735159 1_555
O5 Se0 1.735159 1_555
O6 Se3 1.735159 1_555
O7 Se2 1.735159 1_555
O8 Se0 1.681899 1_555
O9 Se1 1.681899 1_555
O10 Se2 1.681899 1_555
O11 Se3 1.681899 1_555
