# generated using pymatgen
data_CsZn4As2P
_symmetry_space_group_name_H-M   'P 1'
_cell_length_a   4.13179696
_cell_length_b   4.13179696
_cell_length_c   10.55491669
_cell_angle_alpha   90.00000000
_cell_angle_beta   90.00000000
_cell_angle_gamma   90.00000000
_symmetry_Int_Tables_number   1
_chemical_formula_structural   CsZn4As2P
_chemical_formula_sum   'Cs1 Zn4 As2 P1'
_cell_volume   180.19085770
_cell_formula_units_Z   1
loop_
 _symmetry_equiv_pos_site_id
 _symmetry_equiv_pos_as_xyz
  1  'x, y, z'
loop_
 _atom_site_type_symbol
 _atom_site_label
 _atom_site_symmetry_multiplicity
 _atom_site_fract_x
 _atom_site_fract_y
 _atom_site_fract_z
 _atom_site_occupancy
  Cs  Cs0  1  0.00000000  0.00000000  0.50000000  1
  Zn  Zn0  1  0.50000000  0.00000000  0.85282469  1
  Zn  Zn1  1  0.00000000  0.50000000  0.85282469  1
  Zn  Zn2  1  0.50000000  0.00000000  0.14717531  1
  Zn  Zn3  1  0.00000000  0.50000000  0.14717531  1
  As  As0  1  0.50000000  0.50000000  0.72304830  1
  As  As1  1  0.50000000  0.50000000  0.27695170  1
  P  P0  1  0.00000000  0.00000000  0.00000000  1
loop_
_geom_bond_atom_site_label_1
_geom_bond_atom_site_label_2
_geom_bond_distance
_geom_bond_site_symmetry_2
As0 Zn0 2.478756 1_565
As0 Zn1 2.478756 1_655
As0 Zn0 2.478756 1_555
As0 Zn1 2.478756 1_555
As0 Cs0 3.752119 1_665
As0 Cs0 3.752119 1_565
As0 Cs0 3.752119 1_555
As0 Cs0 3.752119 1_655
As1 Zn3 2.478756 1_555
As1 Zn2 2.478756 1_565
As1 Zn3 2.478756 1_655
As1 Zn2 2.478756 1_555
As1 Cs0 3.752119 1_655
As1 Cs0 3.752119 1_665
As1 Cs0 3.752119 1_565
As1 Cs0 3.752119 1_555
P0 Zn3 2.584775 1_545
P0 Zn3 2.584775 1_555
P0 Zn2 2.584775 1_555
P0 Zn2 2.584775 1_455
P0 Zn1 2.584775 1_544
P0 Zn1 2.584775 1_554
P0 Zn0 2.584775 1_554
P0 Zn0 2.584775 1_454
