# generated using pymatgen
data_Zr3Ti2Sb3C
_symmetry_space_group_name_H-M   'P 1'
_cell_length_a   8.24429764
_cell_length_b   8.24429735
_cell_length_c   5.66832979
_cell_angle_alpha   90.00000000
_cell_angle_beta   90.00000000
_cell_angle_gamma   120.00000513
_symmetry_Int_Tables_number   1
_chemical_formula_structural   Zr3Ti2Sb3C
_chemical_formula_sum   'Zr6 Ti4 Sb6 C2'
_cell_volume   333.65145955
_cell_formula_units_Z   2
loop_
 _symmetry_equiv_pos_site_id
 _symmetry_equiv_pos_as_xyz
  1  'x, y, z'
loop_
 _atom_site_type_symbol
 _atom_site_label
 _atom_site_symmetry_multiplicity
 _atom_site_fract_x
 _atom_site_fract_y
 _atom_site_fract_z
 _atom_site_occupancy
  Zr  Zr0  1  0.77539574  0.77539574  0.25000000  1
  Zr  Zr1  1  0.22460426  1.00000000  0.25000000  1
  Zr  Zr2  1  1.00000000  0.22460426  0.25000000  1
  Zr  Zr3  1  0.22460426  0.22460426  0.75000000  1
  Zr  Zr4  1  0.77539574  0.00000000  0.75000000  1
  Zr  Zr5  1  0.00000000  0.77539574  0.75000000  1
  Ti  Ti0  1  0.66666700  0.33333300  0.50000000  1
  Ti  Ti1  1  0.33333300  0.66666700  0.50000000  1
  Ti  Ti2  1  0.33333300  0.66666700  0.00000000  1
  Ti  Ti3  1  0.66666700  0.33333300  0.00000000  1
  Sb  Sb0  1  0.40925187  0.40925187  0.25000000  1
  Sb  Sb1  1  0.59074813  1.00000000  0.25000000  1
  Sb  Sb2  1  1.00000000  0.59074813  0.25000000  1
  Sb  Sb3  1  0.59074813  0.59074813  0.75000000  1
  Sb  Sb4  1  0.40925187  0.00000000  0.75000000  1
  Sb  Sb5  1  0.00000000  0.40925187  0.75000000  1
  C  C0  1  0.00000000  0.00000000  0.50000000  1
  C  C1  1  0.00000000  0.00000000  0.00000000  1
loop_
_geom_bond_atom_site_label_1
_geom_bond_atom_site_label_2
_geom_bond_distance
_geom_bond_site_symmetry_2
Sb0 Ti1 2.869132 1_555
Sb0 Ti2 2.869132 1_555
Sb0 Ti0 2.869132 1_555
Sb0 Ti3 2.869132 1_555
Sb0 Zr1 2.926603 1_545
Sb0 Zr2 2.926603 1_455
Sb0 Zr0 3.018599 1_555
Sb0 Zr3 3.217119 1_554
Sb0 Zr3 3.217119 1_555
Sb1 Ti3 2.869125 1_565
Sb1 Ti0 2.869125 1_565
Sb1 Ti1 2.869127 1_555
Sb1 Ti2 2.869127 1_555
Sb1 Zr2 2.926603 1_565
Sb1 Zr0 2.926603 1_555
Sb1 Zr1 3.018599 1_555
Sb1 Zr4 3.217119 1_565
Sb1 Zr4 3.217119 1_564
Sb2 Ti1 2.869125 1_655
Sb2 Ti2 2.869125 1_655
Sb2 Ti0 2.869127 1_555
Sb2 Ti3 2.869127 1_555
Sb2 Zr1 2.926603 1_655
Sb2 Zr0 2.926603 1_555
Sb2 Zr2 3.018599 1_555
Sb2 Zr5 3.217119 1_655
Sb2 Zr5 3.217119 1_654
Sb3 Ti3 2.869132 1_556
Sb3 Ti0 2.869132 1_555
Sb3 Ti1 2.869132 1_555
Sb3 Ti2 2.869132 1_556
Sb3 Zr4 2.926603 1_565
Sb3 Zr5 2.926603 1_655
Sb3 Zr3 3.018599 1_555
Sb3 Zr0 3.217119 1_556
Sb3 Zr0 3.217119 1_555
Sb4 Ti1 2.869125 1_545
Sb4 Ti2 2.869125 1_546
Sb4 Ti3 2.869127 1_556
Sb4 Ti0 2.869127 1_555
Sb4 Zr5 2.926603 1_545
Sb4 Zr3 2.926603 1_555
Sb4 Zr4 3.018599 1_555
Sb4 Zr1 3.217119 1_545
Sb4 Zr1 3.217119 1_546
Sb5 Ti3 2.869125 1_456
Sb5 Ti0 2.869125 1_455
Sb5 Ti2 2.869127 1_556
Sb5 Ti1 2.869127 1_555
Sb5 Zr4 2.926603 1_455
Sb5 Zr3 2.926603 1_555
Sb5 Zr5 3.018599 1_555
Sb5 Zr2 3.217119 1_455
Sb5 Zr2 3.217119 1_456
C0 Zr3 2.331723 1_555
C0 Zr0 2.331723 1_445
C0 Zr5 2.331723 1_545
C0 Zr2 2.331723 1_455
C0 Zr1 2.331723 1_545
C0 Zr4 2.331723 1_455
C1 Zr3 2.331723 1_554
C1 Zr0 2.331723 1_445
C1 Zr5 2.331723 1_544
C1 Zr2 2.331723 1_455
C1 Zr1 2.331723 1_545
C1 Zr4 2.331723 1_454
