# generated using pymatgen
data_Ga17Rh10
_symmetry_space_group_name_H-M   'P 1'
_cell_length_a   5.87987600
_cell_length_b   5.87987600
_cell_length_c   48.23391200
_cell_angle_alpha   90.00000000
_cell_angle_beta   90.00000000
_cell_angle_gamma   90.00000000
_symmetry_Int_Tables_number   1
_chemical_formula_structural   Ga17Rh10
_chemical_formula_sum   'Ga68 Rh40'
_cell_volume   1667.58823117
_cell_formula_units_Z   4
loop_
 _symmetry_equiv_pos_site_id
 _symmetry_equiv_pos_as_xyz
  1  'x, y, z'
loop_
 _atom_site_type_symbol
 _atom_site_label
 _atom_site_symmetry_multiplicity
 _atom_site_fract_x
 _atom_site_fract_y
 _atom_site_fract_z
 _atom_site_occupancy
  Ga  Ga0  1  0.17166800  0.17166800  0.25000000  1
  Ga  Ga1  1  0.17166800  0.82833200  0.75000000  1
  Ga  Ga2  1  0.82833200  0.17166800  0.75000000  1
  Ga  Ga3  1  0.82833200  0.82833200  0.25000000  1
  Ga  Ga4  1  0.34709900  0.23306900  0.01515900  1
  Ga  Ga5  1  0.23306900  0.65290100  0.98484100  1
  Ga  Ga6  1  0.76693100  0.34709900  0.98484100  1
  Ga  Ga7  1  0.65290100  0.76693100  0.01515900  1
  Ga  Ga8  1  0.23306900  0.34709900  0.48484100  1
  Ga  Ga9  1  0.76693100  0.65290100  0.48484100  1
  Ga  Ga10  1  0.65290100  0.23306900  0.51515900  1
  Ga  Ga11  1  0.34709900  0.76693100  0.51515900  1
  Ga  Ga12  1  0.79890400  0.15627200  0.04498900  1
  Ga  Ga13  1  0.15627200  0.20109600  0.95501100  1
  Ga  Ga14  1  0.84372800  0.79890400  0.95501100  1
  Ga  Ga15  1  0.20109600  0.84372800  0.04498900  1
  Ga  Ga16  1  0.15627200  0.79890400  0.45501100  1
  Ga  Ga17  1  0.84372800  0.20109600  0.45501100  1
  Ga  Ga18  1  0.20109600  0.15627200  0.54498900  1
  Ga  Ga19  1  0.79890400  0.84372800  0.54498900  1
  Ga  Ga20  1  0.16693500  0.32271600  0.07378200  1
  Ga  Ga21  1  0.32271600  0.83306500  0.92621800  1
  Ga  Ga22  1  0.67728400  0.16693500  0.92621800  1
  Ga  Ga23  1  0.83306500  0.67728400  0.07378200  1
  Ga  Ga24  1  0.32271600  0.16693500  0.42621800  1
  Ga  Ga25  1  0.67728400  0.83306500  0.42621800  1
  Ga  Ga26  1  0.83306500  0.32271600  0.57378200  1
  Ga  Ga27  1  0.16693500  0.67728400  0.57378200  1
  Ga  Ga28  1  0.66256500  0.31547900  0.10252500  1
  Ga  Ga29  1  0.31547900  0.33743500  0.89747500  1
  Ga  Ga30  1  0.68452100  0.66256500  0.89747500  1
  Ga  Ga31  1  0.33743500  0.68452100  0.10252500  1
  Ga  Ga32  1  0.31547900  0.66256500  0.39747500  1
  Ga  Ga33  1  0.68452100  0.33743500  0.39747500  1
  Ga  Ga34  1  0.33743500  0.31547900  0.60252500  1
  Ga  Ga35  1  0.66256500  0.68452100  0.60252500  1
  Ga  Ga36  1  0.28867100  0.15441000  0.13154100  1
  Ga  Ga37  1  0.15441000  0.71132900  0.86845900  1
  Ga  Ga38  1  0.84559000  0.28867100  0.86845900  1
  Ga  Ga39  1  0.71132900  0.84559000  0.13154100  1
  Ga  Ga40  1  0.15441000  0.28867100  0.36845900  1
  Ga  Ga41  1  0.84559000  0.71132900  0.36845900  1
  Ga  Ga42  1  0.71132900  0.15441000  0.63154100  1
  Ga  Ga43  1  0.28867100  0.84559000  0.63154100  1
  Ga  Ga44  1  0.84772900  0.24466600  0.16163400  1
  Ga  Ga45  1  0.24466600  0.15227100  0.83836600  1
  Ga  Ga46  1  0.75533400  0.84772900  0.83836600  1
  Ga  Ga47  1  0.15227100  0.75533400  0.16163400  1
  Ga  Ga48  1  0.24466600  0.84772900  0.33836600  1
  Ga  Ga49  1  0.75533400  0.15227100  0.33836600  1
  Ga  Ga50  1  0.15227100  0.24466600  0.66163400  1
  Ga  Ga51  1  0.84772900  0.75533400  0.66163400  1
  Ga  Ga52  1  0.27861500  0.34648900  0.19197200  1
  Ga  Ga53  1  0.34648900  0.72138500  0.80802800  1
  Ga  Ga54  1  0.65351100  0.27861500  0.80802800  1
  Ga  Ga55  1  0.72138500  0.65351100  0.19197200  1
  Ga  Ga56  1  0.34648900  0.27861500  0.30802800  1
  Ga  Ga57  1  0.65351100  0.72138500  0.30802800  1
  Ga  Ga58  1  0.72138500  0.34648900  0.69197200  1
  Ga  Ga59  1  0.27861500  0.65351100  0.69197200  1
  Ga  Ga60  1  0.65924900  0.19203900  0.22130100  1
  Ga  Ga61  1  0.19203900  0.34075100  0.77869900  1
  Ga  Ga62  1  0.80796100  0.65924900  0.77869900  1
  Ga  Ga63  1  0.34075100  0.80796100  0.22130100  1
  Ga  Ga64  1  0.19203900  0.65924900  0.27869900  1
  Ga  Ga65  1  0.80796100  0.34075100  0.27869900  1
  Ga  Ga66  1  0.34075100  0.19203900  0.72130100  1
  Ga  Ga67  1  0.65924900  0.80796100  0.72130100  1
  Rh  Rh0  1  0.50000000  0.50000000  0.25000000  1
  Rh  Rh1  1  0.50000000  0.50000000  0.75000000  1
  Rh  Rh2  1  0.00000000  0.00000000  0.00000000  1
  Rh  Rh3  1  0.00000000  0.00000000  0.50000000  1
  Rh  Rh4  1  0.00000000  0.00000000  0.09874200  1
  Rh  Rh5  1  0.00000000  0.00000000  0.90125800  1
  Rh  Rh6  1  0.00000000  0.00000000  0.40125800  1
  Rh  Rh7  1  0.00000000  0.00000000  0.59874200  1
  Rh  Rh8  1  0.00000000  0.00000000  0.20125500  1
  Rh  Rh9  1  0.00000000  0.00000000  0.79874500  1
  Rh  Rh10  1  0.00000000  0.00000000  0.29874500  1
  Rh  Rh11  1  0.00000000  0.00000000  0.70125500  1
  Rh  Rh12  1  0.50000000  0.50000000  0.05158700  1
  Rh  Rh13  1  0.50000000  0.50000000  0.94841300  1
  Rh  Rh14  1  0.50000000  0.50000000  0.44841300  1
  Rh  Rh15  1  0.50000000  0.50000000  0.55158700  1
  Rh  Rh16  1  0.50000000  0.50000000  0.14940500  1
  Rh  Rh17  1  0.50000000  0.50000000  0.85059500  1
  Rh  Rh18  1  0.50000000  0.50000000  0.35059500  1
  Rh  Rh19  1  0.50000000  0.50000000  0.64940500  1
  Rh  Rh20  1  0.00000000  0.50000000  0.02597400  1
  Rh  Rh21  1  0.50000000  0.00000000  0.97402600  1
  Rh  Rh22  1  0.50000000  0.00000000  0.47402600  1
  Rh  Rh23  1  0.00000000  0.50000000  0.52597400  1
  Rh  Rh24  1  0.00000000  0.50000000  0.12350900  1
  Rh  Rh25  1  0.50000000  0.00000000  0.87649100  1
  Rh  Rh26  1  0.50000000  0.00000000  0.37649100  1
  Rh  Rh27  1  0.00000000  0.50000000  0.62350900  1
  Rh  Rh28  1  0.00000000  0.50000000  0.22655700  1
  Rh  Rh29  1  0.50000000  0.00000000  0.77344300  1
  Rh  Rh30  1  0.50000000  0.00000000  0.27344300  1
  Rh  Rh31  1  0.00000000  0.50000000  0.72655700  1
  Rh  Rh32  1  0.00000000  0.50000000  0.32469300  1
  Rh  Rh33  1  0.50000000  0.00000000  0.67530700  1
  Rh  Rh34  1  0.50000000  0.00000000  0.17530700  1
  Rh  Rh35  1  0.00000000  0.50000000  0.82469300  1
  Rh  Rh36  1  0.00000000  0.50000000  0.42427200  1
  Rh  Rh37  1  0.50000000  0.00000000  0.57572800  1
  Rh  Rh38  1  0.50000000  0.00000000  0.07572800  1
  Rh  Rh39  1  0.00000000  0.50000000  0.92427200  1
loop_
_geom_bond_atom_site_label_1
_geom_bond_atom_site_label_2
_geom_bond_distance
_geom_bond_site_symmetry_2
Ga0 Rh28 2.454482 1_555
Ga0 Rh30 2.454482 1_555
Ga0 Rh0 2.730212 1_555
Ga0 Rh10 2.750579 1_555
Ga0 Rh8 2.750579 1_555
Ga1 Rh31 2.454482 1_555
Ga1 Rh29 2.454482 1_565
Ga1 Rh1 2.730212 1_555
Ga1 Rh9 2.750579 1_565
Ga1 Rh11 2.750579 1_565
Ga2 Rh29 2.454482 1_555
Ga2 Rh31 2.454482 1_655
Ga2 Rh1 2.730212 1_555
Ga2 Rh9 2.750579 1_655
Ga2 Rh11 2.750579 1_655
Ga3 Rh30 2.454482 1_565
Ga3 Rh28 2.454482 1_655
Ga3 Rh0 2.730212 1_555
Ga3 Rh10 2.750579 1_665
Ga3 Rh8 2.750579 1_665
Ga4 Rh12 2.521695 1_555
Ga4 Rh2 2.564748 1_555
Ga4 Rh21 2.573440 1_554
Ga4 Rh20 2.626934 1_555
Ga5 Rh13 2.521695 1_555
Ga5 Rh2 2.564748 1_566
Ga5 Rh20 2.573440 1_556
Ga5 Rh21 2.626934 1_565
Ga6 Rh13 2.521695 1_555
Ga6 Rh2 2.564748 1_656
Ga6 Rh20 2.573440 1_656
Ga6 Rh21 2.626934 1_555
Ga7 Rh12 2.521695 1_555
Ga7 Rh2 2.564748 1_665
Ga7 Rh21 2.573440 1_564
Ga7 Rh20 2.626934 1_655
Ga8 Rh14 2.521695 1_555
Ga8 Rh3 2.564748 1_555
Ga8 Rh23 2.573440 1_555
Ga8 Rh22 2.626934 1_555
Ga9 Rh14 2.521695 1_555
Ga9 Rh3 2.564748 1_665
Ga9 Rh23 2.573440 1_655
Ga9 Rh22 2.626934 1_565
Ga10 Rh15 2.521695 1_555
Ga10 Rh3 2.564748 1_655
Ga10 Rh22 2.573440 1_555
Ga10 Rh23 2.626934 1_655
Ga11 Rh15 2.521695 1_555
Ga11 Rh3 2.564748 1_565
Ga11 Rh22 2.573440 1_565
Ga11 Rh23 2.626934 1_555
Ga12 Rh38 2.476179 1_555
Ga12 Rh20 2.514770 1_655
Ga12 Rh2 2.636532 1_655
Ga12 Rh12 2.697204 1_555
Ga12 Rh4 2.994095 1_655
Ga13 Rh39 2.476179 1_555
Ga13 Rh21 2.514770 1_555
Ga13 Rh2 2.636532 1_556
Ga13 Rh13 2.697204 1_555
Ga13 Rh5 2.994095 1_555
Ga14 Rh39 2.476179 1_655
Ga14 Rh21 2.514770 1_565
Ga14 Rh2 2.636532 1_666
Ga14 Rh13 2.697204 1_555
Ga14 Rh5 2.994095 1_665
Ga15 Rh38 2.476179 1_565
Ga15 Rh20 2.514770 1_555
Ga15 Rh2 2.636532 1_565
Ga15 Rh12 2.697204 1_555
Ga15 Rh4 2.994095 1_565
Ga16 Rh36 2.476179 1_555
Ga16 Rh22 2.514770 1_565
Ga16 Rh3 2.636532 1_565
Ga16 Rh14 2.697204 1_555
Ga16 Rh6 2.994095 1_565
Ga17 Rh36 2.476179 1_655
Ga17 Rh22 2.514770 1_555
Ga17 Rh3 2.636532 1_655
Ga17 Rh14 2.697204 1_555
Ga17 Rh6 2.994095 1_655
Ga18 Rh37 2.476179 1_555
Ga18 Rh23 2.514770 1_555
Ga18 Rh3 2.636532 1_555
Ga18 Rh15 2.697204 1_555
Ga18 Rh7 2.994095 1_555
Ga19 Rh37 2.476179 1_565
Ga19 Rh23 2.514770 1_655
Ga19 Rh3 2.636532 1_665
Ga19 Rh15 2.697204 1_555
Ga19 Rh7 2.994095 1_665
Ga20 Rh4 2.452243 1_555
Ga20 Rh12 2.463321 1_555
Ga20 Rh20 2.714323 1_555
Ga20 Rh38 2.728495 1_555
Ga20 Rh24 2.793386 1_555
Ga21 Rh5 2.452243 1_565
Ga21 Rh13 2.463321 1_555
Ga21 Rh21 2.714323 1_565
Ga21 Rh39 2.728495 1_555
Ga21 Rh25 2.793386 1_565
Ga22 Rh5 2.452243 1_655
Ga22 Rh13 2.463321 1_555
Ga22 Rh21 2.714323 1_555
Ga22 Rh39 2.728495 1_655
Ga22 Rh25 2.793386 1_555
Ga23 Rh4 2.452243 1_665
Ga23 Rh12 2.463321 1_555
Ga23 Rh20 2.714323 1_655
Ga23 Rh38 2.728495 1_565
Ga23 Rh24 2.793386 1_655
Ga24 Rh6 2.452243 1_555
Ga24 Rh14 2.463321 1_555
Ga24 Rh22 2.714323 1_555
Ga24 Rh36 2.728495 1_555
Ga24 Rh26 2.793386 1_555
Ga25 Rh6 2.452243 1_665
Ga25 Rh14 2.463321 1_555
Ga25 Rh22 2.714323 1_565
Ga25 Rh36 2.728495 1_655
Ga25 Rh26 2.793386 1_565
Ga26 Rh7 2.452243 1_655
Ga26 Rh15 2.463321 1_555
Ga26 Rh23 2.714323 1_655
Ga26 Rh37 2.728495 1_555
Ga26 Rh27 2.793386 1_655
Ga27 Rh7 2.452243 1_565
Ga27 Rh15 2.463321 1_555
Ga27 Rh23 2.714323 1_555
Ga27 Rh37 2.728495 1_565
Ga27 Rh27 2.793386 1_555
Ga28 Rh38 2.454635 1_555
Ga28 Rh24 2.477524 1_655
Ga28 Rh16 2.684001 1_555
Ga28 Rh4 2.722277 1_655
Ga28 Rh12 2.850853 1_555
Ga29 Rh39 2.454635 1_555
Ga29 Rh25 2.477524 1_555
Ga29 Rh17 2.684001 1_555
Ga29 Rh5 2.722277 1_555
Ga29 Rh13 2.850853 1_555
Ga30 Rh39 2.454635 1_655
Ga30 Rh25 2.477524 1_565
Ga30 Rh17 2.684001 1_555
Ga30 Rh5 2.722277 1_665
Ga30 Rh13 2.850853 1_555
Ga31 Rh38 2.454635 1_565
Ga31 Rh24 2.477524 1_555
Ga31 Rh16 2.684001 1_555
Ga31 Rh4 2.722277 1_565
Ga31 Rh12 2.850853 1_555
Ga32 Rh36 2.454635 1_555
Ga32 Rh26 2.477524 1_565
Ga32 Rh18 2.684001 1_555
Ga32 Rh6 2.722277 1_565
Ga32 Rh14 2.850853 1_555
Ga33 Rh36 2.454635 1_655
Ga33 Rh26 2.477524 1_555
Ga33 Rh18 2.684001 1_555
Ga33 Rh6 2.722277 1_655
Ga33 Rh14 2.850853 1_555
Ga34 Rh37 2.454635 1_555
Ga34 Rh27 2.477524 1_555
Ga34 Rh19 2.684001 1_555
Ga34 Rh7 2.722277 1_555
Ga34 Rh15 2.850853 1_555
Ga35 Rh37 2.454635 1_565
Ga35 Rh27 2.477524 1_655
Ga35 Rh19 2.684001 1_555
Ga35 Rh7 2.722277 1_665
Ga35 Rh15 2.850853 1_555
Ga36 Rh4 2.491606 1_555
Ga36 Rh16 2.532903 1_555
Ga36 Rh34 2.612408 1_555
Ga36 Rh24 2.675858 1_555
Ga37 Rh5 2.491606 1_565
Ga37 Rh17 2.532903 1_555
Ga37 Rh35 2.612408 1_555
Ga37 Rh25 2.675858 1_565
Ga38 Rh5 2.491606 1_655
Ga38 Rh17 2.532903 1_555
Ga38 Rh35 2.612408 1_655
Ga38 Rh25 2.675858 1_555
Ga39 Rh4 2.491606 1_665
Ga39 Rh16 2.532903 1_555
Ga39 Rh34 2.612408 1_565
Ga39 Rh24 2.675858 1_655
Ga40 Rh6 2.491606 1_555
Ga40 Rh18 2.532903 1_555
Ga40 Rh32 2.612408 1_555
Ga40 Rh26 2.675858 1_555
Ga41 Rh6 2.491606 1_665
Ga41 Rh18 2.532903 1_555
Ga41 Rh32 2.612408 1_655
Ga41 Rh26 2.675858 1_565
Ga42 Rh7 2.491606 1_655
Ga42 Rh19 2.532903 1_555
Ga42 Rh33 2.612408 1_555
Ga42 Rh27 2.675858 1_655
Ga43 Rh7 2.491606 1_565
Ga43 Rh19 2.532903 1_555
Ga43 Rh33 2.612408 1_565
Ga43 Rh27 2.675858 1_555
Ga44 Rh24 2.537172 1_655
Ga44 Rh8 2.554099 1_655
Ga44 Rh34 2.585524 1_555
Ga44 Rh16 2.604290 1_555
Ga45 Rh25 2.537172 1_555
Ga45 Rh9 2.554099 1_555
Ga45 Rh35 2.585524 1_555
Ga45 Rh17 2.604290 1_555
Ga46 Rh25 2.537172 1_565
Ga46 Rh9 2.554099 1_665
Ga46 Rh35 2.585524 1_655
Ga46 Rh17 2.604290 1_555
Ga47 Rh24 2.537172 1_555
Ga47 Rh8 2.554099 1_565
Ga47 Rh34 2.585524 1_565
Ga47 Rh16 2.604290 1_555
Ga48 Rh26 2.537172 1_565
Ga48 Rh10 2.554099 1_565
Ga48 Rh32 2.585524 1_555
Ga48 Rh18 2.604290 1_555
Ga49 Rh26 2.537172 1_555
Ga49 Rh10 2.554099 1_655
Ga49 Rh32 2.585524 1_655
Ga49 Rh18 2.604290 1_555
Ga50 Rh27 2.537172 1_555
Ga50 Rh11 2.554099 1_555
Ga50 Rh33 2.585524 1_555
Ga50 Rh19 2.604290 1_555
Ga51 Rh27 2.537172 1_655
Ga51 Rh11 2.554099 1_665
Ga51 Rh33 2.585524 1_565
Ga51 Rh19 2.604290 1_555
Ga52 Rh28 2.506251 1_555
Ga52 Rh34 2.547789 1_555
Ga52 Rh16 2.593206 1_555
Ga52 Rh8 2.652338 1_555
Ga53 Rh29 2.506251 1_565
Ga53 Rh35 2.547789 1_555
Ga53 Rh17 2.593206 1_555
Ga53 Rh9 2.652338 1_565
Ga54 Rh29 2.506251 1_555
Ga54 Rh35 2.547789 1_655
Ga54 Rh17 2.593206 1_555
Ga54 Rh9 2.652338 1_655
Ga55 Rh28 2.506251 1_655
Ga55 Rh34 2.547789 1_565
Ga55 Rh16 2.593206 1_555
Ga55 Rh8 2.652338 1_665
Ga56 Rh30 2.506251 1_555
Ga56 Rh32 2.547789 1_555
Ga56 Rh18 2.593206 1_555
Ga56 Rh10 2.652338 1_555
Ga57 Rh30 2.506251 1_565
Ga57 Rh32 2.547789 1_655
Ga57 Rh18 2.593206 1_555
Ga57 Rh10 2.652338 1_665
Ga58 Rh31 2.506251 1_655
Ga58 Rh33 2.547789 1_555
Ga58 Rh19 2.593206 1_555
Ga58 Rh11 2.652338 1_655
Ga59 Rh31 2.506251 1_555
Ga59 Rh33 2.547789 1_565
Ga59 Rh19 2.593206 1_555
Ga59 Rh11 2.652338 1_565
Ga60 Rh0 2.464115 1_555
Ga60 Rh8 2.494837 1_655
Ga60 Rh34 2.659587 1_555
Ga60 Rh28 2.712467 1_655
Ga60 Rh30 2.911543 1_555
Ga61 Rh1 2.464115 1_555
Ga61 Rh9 2.494837 1_555
Ga61 Rh35 2.659587 1_555
Ga61 Rh29 2.712467 1_555
Ga61 Rh31 2.911543 1_555
Ga62 Rh1 2.464115 1_555
Ga62 Rh9 2.494837 1_665
Ga62 Rh35 2.659587 1_655
Ga62 Rh29 2.712467 1_565
Ga62 Rh31 2.911543 1_655
Ga63 Rh0 2.464115 1_555
Ga63 Rh8 2.494837 1_565
Ga63 Rh34 2.659587 1_565
Ga63 Rh28 2.712467 1_555
Ga63 Rh30 2.911543 1_565
Ga64 Rh0 2.464115 1_555
Ga64 Rh10 2.494837 1_565
Ga64 Rh32 2.659587 1_555
Ga64 Rh30 2.712467 1_565
Ga64 Rh28 2.911543 1_555
Ga65 Rh0 2.464115 1_555
Ga65 Rh10 2.494837 1_655
Ga65 Rh32 2.659587 1_655
Ga65 Rh30 2.712467 1_555
Ga65 Rh28 2.911543 1_655
Ga66 Rh1 2.464115 1_555
Ga66 Rh11 2.494837 1_555
Ga66 Rh33 2.659587 1_555
Ga66 Rh31 2.712467 1_555
Ga66 Rh29 2.911543 1_555
Ga67 Rh1 2.464115 1_555
Ga67 Rh11 2.494837 1_665
Ga67 Rh33 2.659587 1_565
Ga67 Rh31 2.712467 1_655
Ga67 Rh29 2.911543 1_565
