# generated using pymatgen
data_K3Sb(AsS2)6
_symmetry_space_group_name_H-M   'P 1'
_cell_length_a   9.45439300
_cell_length_b   9.45439336
_cell_length_c   7.75139967
_cell_angle_alpha   90.00000000
_cell_angle_beta   90.00000000
_cell_angle_gamma   119.99999874
_symmetry_Int_Tables_number   1
_chemical_formula_structural   K3Sb(AsS2)6
_chemical_formula_sum   'K3 Sb1 As6 S12'
_cell_volume   600.03707575
_cell_formula_units_Z   1
loop_
 _symmetry_equiv_pos_site_id
 _symmetry_equiv_pos_as_xyz
  1  'x, y, z'
loop_
 _atom_site_type_symbol
 _atom_site_label
 _atom_site_symmetry_multiplicity
 _atom_site_fract_x
 _atom_site_fract_y
 _atom_site_fract_z
 _atom_site_occupancy
  K  K0  1  0.00000000  0.00000000  0.00000000  1
  K  K1  1  0.33333300  0.66666700  0.85753568  1
  K  K2  1  0.66666700  0.33333300  0.14246432  1
  Sb  Sb0  1  0.00000000  0.00000000  0.50000000  1
  As  As0  1  0.28912646  0.83824500  0.37680518  1
  As  As1  1  0.16175500  0.45088046  0.37680518  1
  As  As2  1  0.54911954  0.71087354  0.37680518  1
  As  As3  1  0.71087354  0.16175500  0.62319482  1
  As  As4  1  0.83824500  0.54911954  0.62319482  1
  As  As5  1  0.45088046  0.28912646  0.62319482  1
  S  S0  1  0.25509120  0.03943078  0.28663805  1
  S  S1  1  0.96056922  0.21566242  0.28663805  1
  S  S2  1  0.78433758  0.74490880  0.28663805  1
  S  S3  1  0.74490880  0.96056922  0.71336195  1
  S  S4  1  0.03943078  0.78433758  0.71336195  1
  S  S5  1  0.21566242  0.25509120  0.71336195  1
  S  S6  1  0.52108007  0.90292421  0.21833240  1
  S  S7  1  0.09707579  0.61815486  0.21833240  1
  S  S8  1  0.38184514  0.47891993  0.21833240  1
  S  S9  1  0.47891993  0.09707579  0.78166760  1
  S  S10  1  0.90292421  0.38184514  0.78166760  1
  S  S11  1  0.61815486  0.52108007  0.78166760  1
loop_
_geom_bond_atom_site_label_1
_geom_bond_atom_site_label_2
_geom_bond_distance
_geom_bond_site_symmetry_2
K0 S0 3.161163 1_555
K0 S3 3.161163 1_444
K0 S2 3.161168 1_445
K0 S5 3.161168 1_554
K0 S1 3.161176 1_455
K0 S4 3.161176 1_544
K1 S7 3.463607 1_556
K1 S6 3.463611 1_556
K1 S8 3.463618 1_556
K1 S11 3.632930 1_555
K1 S10 3.632930 1_455
K1 S9 3.632930 1_565
K1 S4 3.646759 1_555
K1 S3 3.646778 1_555
K1 S5 3.646785 1_555
K2 S10 3.463607 1_554
K2 S9 3.463611 1_554
K2 S11 3.463618 1_554
K2 S8 3.632930 1_555
K2 S7 3.632930 1_655
K2 S6 3.632930 1_545
K2 S1 3.646759 1_555
K2 S0 3.646778 1_555
K2 S2 3.646785 1_555
As0 S0 2.195914 1_565
As0 S6 2.313227 1_555
As0 S7 2.314605 1_555
As1 S1 2.195898 1_455
As1 S7 2.313227 1_555
As1 S8 2.314605 1_555
As2 S2 2.195888 1_555
As2 S8 2.313227 1_555
As2 S6 2.314605 1_555
As3 S3 2.195914 1_545
As3 S9 2.313227 1_555
As3 S10 2.314605 1_555
As4 S4 2.195898 1_655
As4 S10 2.313227 1_555
As4 S11 2.314605 1_555
As5 S5 2.195888 1_555
As5 S11 2.313227 1_555
As5 S9 2.314605 1_555
S0 Sb0 2.791340 1_555
S1 Sb0 2.791356 1_655
S2 Sb0 2.791346 1_665
S3 Sb0 2.791340 1_665
S4 Sb0 2.791356 1_565
S5 Sb0 2.791346 1_555
