# generated using pymatgen
data_Lu4Sb6RuRh6
_symmetry_space_group_name_H-M   'P 1'
_cell_length_a   7.47673882
_cell_length_b   7.47679846
_cell_length_c   7.47676030
_cell_angle_alpha   109.47136223
_cell_angle_beta   109.47064950
_cell_angle_gamma   109.47126168
_symmetry_Int_Tables_number   1
_chemical_formula_structural   Lu4Sb6RuRh6
_chemical_formula_sum   'Lu4 Sb6 Ru1 Rh6'
_cell_volume   321.75220623
_cell_formula_units_Z   1
loop_
 _symmetry_equiv_pos_site_id
 _symmetry_equiv_pos_as_xyz
  1  'x, y, z'
loop_
 _atom_site_type_symbol
 _atom_site_label
 _atom_site_symmetry_multiplicity
 _atom_site_fract_x
 _atom_site_fract_y
 _atom_site_fract_z
 _atom_site_occupancy
  Lu  Lu0  1  0.50000000  0.00000000  0.00000000  1
  Lu  Lu1  1  0.00000000  0.50000000  0.00000000  1
  Lu  Lu2  1  0.00000000  0.00000000  0.50000000  1
  Lu  Lu3  1  0.50000000  0.50000000  0.50000000  1
  Sb  Sb0  1  0.00000280  0.31413148  0.31413503  1
  Sb  Sb1  1  0.68582685  0.99998229  0.68583874  1
  Sb  Sb2  1  0.68587685  0.68589245  0.99998974  1
  Sb  Sb3  1  0.99999720  0.68586852  0.68586497  1
  Sb  Sb4  1  0.31417315  0.00001771  0.31416126  1
  Sb  Sb5  1  0.31412315  0.31410755  0.00001026  1
  Ru  Ru0  1  0.00000000  0.00000000  0.00000000  1
  Rh  Rh0  1  0.49999177  0.74995346  0.24996588  1
  Rh  Rh1  1  0.75001601  0.50003549  0.24998334  1
  Rh  Rh2  1  0.24994375  0.74996293  0.49996166  1
  Rh  Rh3  1  0.24998399  0.49996451  0.75001666  1
  Rh  Rh4  1  0.50000823  0.25004654  0.75003412  1
  Rh  Rh5  1  0.75005625  0.25003707  0.50003834  1
loop_
_geom_bond_atom_site_label_1
_geom_bond_atom_site_label_2
_geom_bond_distance
_geom_bond_site_symmetry_2
Lu0 Rh4 3.052461 1_554
Lu0 Rh0 3.052461 1_545
Lu0 Rh1 3.052611 1_555
Lu0 Rh3 3.052611 1_544
Lu0 Rh5 3.052624 1_555
Lu0 Rh2 3.052624 1_544
Lu0 Sb5 3.102066 1_555
Lu0 Sb2 3.102066 1_544
Lu0 Sb4 3.102141 1_555
Lu0 Sb1 3.102141 1_544
Lu0 Sb0 3.102216 1_655
Lu0 Sb3 3.102216 1_444
Lu1 Rh2 3.052156 1_555
Lu1 Rh5 3.052156 1_454
Lu1 Rh1 3.052160 1_455
Lu1 Rh3 3.052160 1_554
Lu1 Rh0 3.052333 1_555
Lu1 Rh4 3.052333 1_454
Lu1 Sb0 3.102213 1_555
Lu1 Sb3 3.102213 1_454
Lu1 Sb2 3.102245 1_454
Lu1 Sb5 3.102245 1_555
Lu1 Sb4 3.102353 1_565
Lu1 Sb1 3.102353 1_444
Lu2 Rh3 3.052177 1_555
Lu2 Rh1 3.052177 1_445
Lu2 Rh2 3.052262 1_545
Lu2 Rh5 3.052262 1_455
Lu2 Rh4 3.052433 1_555
Lu2 Rh0 3.052433 1_445
Lu2 Sb0 3.102177 1_555
Lu2 Sb3 3.102177 1_445
Lu2 Sb2 3.102232 1_444
Lu2 Sb5 3.102232 1_556
Lu2 Sb4 3.102281 1_555
Lu2 Sb1 3.102281 1_445
Lu3 Rh0 3.052309 1_555
Lu3 Rh4 3.052309 1_555
Lu3 Rh5 3.052496 1_555
Lu3 Rh2 3.052496 1_555
Lu3 Rh3 3.052559 1_555
Lu3 Rh1 3.052559 1_555
Lu3 Sb2 3.102101 1_555
Lu3 Sb5 3.102101 1_555
Lu3 Sb1 3.102138 1_555
Lu3 Sb4 3.102138 1_555
Lu3 Sb3 3.102170 1_555
Lu3 Sb0 3.102170 1_555
Ru0 Sb2 2.711847 1_444
Ru0 Sb5 2.711847 1_555
Ru0 Sb0 2.712034 1_555
Ru0 Sb3 2.712034 1_444
Ru0 Sb4 2.712276 1_555
Ru0 Sb1 2.712276 1_444
Rh0 Sb5 2.689356 1_555
Rh0 Sb2 2.689397 1_554
Rh0 Sb1 2.689609 1_555
Rh0 Sb4 2.689661 1_565
Rh1 Sb2 2.689425 1_554
Rh1 Sb5 2.689596 1_555
Rh1 Sb3 2.689625 1_555
Rh1 Sb0 2.689674 1_655
Rh2 Sb0 2.689293 1_555
Rh2 Sb3 2.689358 1_455
Rh2 Sb4 2.689530 1_565
Rh2 Sb1 2.689619 1_555
Rh3 Sb5 2.689425 1_556
Rh3 Sb2 2.689596 1_555
Rh3 Sb0 2.689625 1_555
Rh3 Sb3 2.689674 1_455
Rh4 Sb2 2.689356 1_555
Rh4 Sb5 2.689397 1_556
Rh4 Sb4 2.689609 1_555
Rh4 Sb1 2.689661 1_545
Rh5 Sb3 2.689293 1_555
Rh5 Sb0 2.689358 1_655
Rh5 Sb1 2.689530 1_545
Rh5 Sb4 2.689619 1_555
