# generated using pymatgen
data_Nb3Al2PtN
_symmetry_space_group_name_H-M   'P 1'
_cell_length_a   8.32048729
_cell_length_b   8.32048762
_cell_length_c   8.32048680
_cell_angle_alpha   59.99999936
_cell_angle_beta   59.99999804
_cell_angle_gamma   60.00000001
_symmetry_Int_Tables_number   1
_chemical_formula_structural   Nb3Al2PtN
_chemical_formula_sum   'Nb12 Al8 Pt4 N4'
_cell_volume   407.31581249
_cell_formula_units_Z   4
loop_
 _symmetry_equiv_pos_site_id
 _symmetry_equiv_pos_as_xyz
  1  'x, y, z'
loop_
 _atom_site_type_symbol
 _atom_site_label
 _atom_site_symmetry_multiplicity
 _atom_site_fract_x
 _atom_site_fract_y
 _atom_site_fract_z
 _atom_site_occupancy
  Nb  Nb0  1  0.81618944  0.81618944  0.18381056  1
  Nb  Nb1  1  0.06618944  0.43381056  0.43381056  1
  Nb  Nb2  1  0.43381056  0.06618944  0.06618944  1
  Nb  Nb3  1  0.06618944  0.06618944  0.43381056  1
  Nb  Nb4  1  0.06618944  0.43381056  0.06618944  1
  Nb  Nb5  1  0.43381056  0.06618944  0.43381056  1
  Nb  Nb6  1  0.18381056  0.81618944  0.18381056  1
  Nb  Nb7  1  0.18381056  0.81618944  0.81618944  1
  Nb  Nb8  1  0.81618944  0.18381056  0.18381056  1
  Nb  Nb9  1  0.81618944  0.18381056  0.81618944  1
  Nb  Nb10  1  0.43381056  0.43381056  0.06618944  1
  Nb  Nb11  1  0.18381056  0.18381056  0.81618944  1
  Al  Al0  1  0.41593819  0.75218344  0.41593819  1
  Al  Al1  1  0.83406181  0.83406181  0.49781656  1
  Al  Al2  1  0.49781656  0.83406181  0.83406181  1
  Al  Al3  1  0.83406181  0.83406181  0.83406181  1
  Al  Al4  1  0.75218344  0.41593819  0.41593819  1
  Al  Al5  1  0.41593819  0.41593819  0.41593819  1
  Al  Al6  1  0.41593819  0.41593819  0.75218344  1
  Al  Al7  1  0.83406181  0.49781656  0.83406181  1
  Pt  Pt0  1  0.62500000  0.12500000  0.62500000  1
  Pt  Pt1  1  0.62500000  0.62500000  0.12500000  1
  Pt  Pt2  1  0.12500000  0.62500000  0.62500000  1
  Pt  Pt3  1  0.62500000  0.62500000  0.62500000  1
  N  N0  1  0.12500000  0.62500000  0.12500000  1
  N  N1  1  0.12500000  0.12500000  0.62500000  1
  N  N2  1  0.62500000  0.12500000  0.12500000  1
  N  N3  1  0.12500000  0.12500000  0.12500000  1
loop_
_geom_bond_atom_site_label_1
_geom_bond_atom_site_label_2
_geom_bond_distance
_geom_bond_site_symmetry_2
Nb0 Pt3 3.064005 1_555
Nb0 Pt1 3.064005 1_555
Nb1 Pt3 3.064005 1_455
Nb1 Pt2 3.064005 1_555
Nb2 Pt0 3.064005 1_554
Nb2 Pt1 3.064005 1_545
Nb3 Pt0 3.064005 1_455
Nb3 Pt2 3.064005 1_545
Nb4 Pt2 3.064005 1_554
Nb4 Pt1 3.064005 1_455
Nb5 Pt0 3.064005 1_555
Nb5 Pt3 3.064005 1_545
Nb6 Pt2 3.064005 1_555
Nb6 Pt1 3.064005 1_555
Nb7 Pt3 3.064005 1_555
Nb7 Pt2 3.064005 1_555
Nb8 Pt0 3.064005 1_555
Nb8 Pt1 3.064005 1_555
Nb9 Pt0 3.064005 1_555
Nb9 Pt3 3.064005 1_555
Nb10 Pt3 3.064005 1_554
Nb10 Pt1 3.064005 1_555
Nb11 Pt0 3.064005 1_555
Nb11 Pt2 3.064005 1_555
Al0 Pt1 2.552597 1_555
Al0 Pt2 2.552597 1_555
Al0 Pt3 2.552610 1_555
Al1 Pt2 2.552597 1_655
Al1 Pt0 2.552597 1_565
Al1 Pt3 2.552610 1_555
Al2 Pt1 2.552597 1_556
Al2 Pt0 2.552597 1_565
Al2 Pt3 2.552610 1_555
Al3 Pt1 2.552606 1_556
Al3 Pt2 2.552606 1_655
Al3 Pt0 2.552606 1_565
Al4 Pt1 2.552597 1_555
Al4 Pt0 2.552597 1_555
Al4 Pt3 2.552610 1_555
Al5 Pt1 2.552606 1_555
Al5 Pt2 2.552606 1_555
Al5 Pt0 2.552606 1_555
Al6 Pt2 2.552597 1_555
Al6 Pt0 2.552597 1_555
Al6 Pt3 2.552610 1_555
Al7 Pt1 2.552597 1_556
Al7 Pt2 2.552597 1_655
Al7 Pt3 2.552610 1_555
N0 Nb1 2.192213 1_555
N0 Nb7 2.192213 1_554
N0 Nb10 2.192213 1_555
N0 Nb0 2.192213 1_455
N0 Nb4 2.192213 1_555
N0 Nb6 2.192213 1_555
N1 Nb5 2.192213 1_555
N1 Nb9 2.192213 1_455
N1 Nb11 2.192213 1_555
N1 Nb3 2.192213 1_555
N1 Nb1 2.192213 1_555
N1 Nb7 2.192213 1_545
N2 Nb5 2.192213 1_555
N2 Nb9 2.192213 1_554
N2 Nb8 2.192213 1_555
N2 Nb2 2.192213 1_555
N2 Nb10 2.192213 1_555
N2 Nb0 2.192213 1_545
N3 Nb3 2.192213 1_555
N3 Nb11 2.192213 1_554
N3 Nb2 2.192213 1_555
N3 Nb8 2.192213 1_455
N3 Nb6 2.192213 1_545
N3 Nb4 2.192213 1_555
