# generated using pymatgen
data_Mn2ZnIrCl12
_symmetry_space_group_name_H-M   'P 1'
_cell_length_a   11.64990198
_cell_length_b   11.10037540
_cell_length_c   6.16352034
_cell_angle_alpha   79.26527049
_cell_angle_beta   69.41564134
_cell_angle_gamma   31.14887480
_symmetry_Int_Tables_number   1
_chemical_formula_structural   Mn2ZnIrCl12
_chemical_formula_sum   'Mn2 Zn1 Ir1 Cl12'
_cell_volume   374.99468594
_cell_formula_units_Z   1
loop_
 _symmetry_equiv_pos_site_id
 _symmetry_equiv_pos_as_xyz
  1  'x, y, z'
loop_
 _atom_site_type_symbol
 _atom_site_label
 _atom_site_symmetry_multiplicity
 _atom_site_fract_x
 _atom_site_fract_y
 _atom_site_fract_z
 _atom_site_occupancy
  Mn  Mn0  1  0.83411941  0.83411941  0.66588059  1
  Mn  Mn1  1  0.66752203  0.66752203  0.83247797  1
  Zn  Zn0  1  0.41799987  0.41799987  0.58200013  1
  Ir  Ir0  1  0.58393667  0.58393667  0.41606333  1
  Cl  Cl0  1  0.72740663  0.27850127  0.26830787  1
  Cl  Cl1  1  0.89980752  0.42301236  0.09915825  1
  Cl  Cl2  1  0.36638012  0.80926423  0.17065082  1
  Cl  Cl3  1  0.42301236  0.89980752  0.57801987  1
  Cl  Cl4  1  0.14495876  0.66826920  0.36128391  1
  Cl  Cl5  1  0.27850127  0.72740663  0.72578423  1
  Cl  Cl6  1  0.53107587  0.97503021  0.97038606  1
  Cl  Cl7  1  0.97503021  0.53107587  0.52350585  1
  Cl  Cl8  1  0.06553635  0.60717849  0.88771889  1
  Cl  Cl9  1  0.80926423  0.36638012  0.65370482  1
  Cl  Cl10  1  0.66826920  0.14495876  0.82549012  1
  Cl  Cl11  1  0.60717849  0.06553635  0.43956527  1
loop_
_geom_bond_atom_site_label_1
_geom_bond_atom_site_label_2
_geom_bond_distance
_geom_bond_site_symmetry_2
Cl0 Ir0 2.344860 1_555
Cl0 Zn0 2.406208 1_555
Cl1 Ir0 2.354087 1_555
Cl1 Mn1 2.507074 1_554
Cl2 Ir0 2.324520 1_555
Cl2 Mn1 2.399930 1_554
Cl3 Ir0 2.354082 1_555
Cl3 Mn1 2.507084 1_555
Cl4 Mn0 2.263457 1_455
Cl4 Zn0 2.489164 1_555
Cl5 Ir0 2.344860 1_555
Cl5 Zn0 2.406208 1_555
Cl6 Mn0 2.327093 1_555
Cl6 Mn1 2.396736 1_555
Cl7 Mn0 2.327098 1_555
Cl7 Mn1 2.396741 1_555
Cl8 Mn0 2.273335 1_455
Cl8 Zn0 2.468860 1_555
Cl9 Ir0 2.324521 1_555
Cl9 Mn1 2.399930 1_555
Cl10 Mn0 2.263463 1_545
Cl10 Zn0 2.489173 1_555
Cl11 Mn0 2.273340 1_545
Cl11 Zn0 2.468862 1_555
