# generated using pymatgen
data_Sr5P3H
_symmetry_space_group_name_H-M   'P 1'
_cell_length_a   8.76050108
_cell_length_b   8.76050103
_cell_length_c   7.05816601
_cell_angle_alpha   90.00000000
_cell_angle_beta   90.00000000
_cell_angle_gamma   120.00000392
_symmetry_Int_Tables_number   1
_chemical_formula_structural   Sr5P3H
_chemical_formula_sum   'Sr10 P6 H2'
_cell_volume   469.11614119
_cell_formula_units_Z   2
loop_
 _symmetry_equiv_pos_site_id
 _symmetry_equiv_pos_as_xyz
  1  'x, y, z'
loop_
 _atom_site_type_symbol
 _atom_site_label
 _atom_site_symmetry_multiplicity
 _atom_site_fract_x
 _atom_site_fract_y
 _atom_site_fract_z
 _atom_site_occupancy
  Sr  Sr0  1  0.74943695  0.74943695  0.25000000  1
  Sr  Sr1  1  0.74943695  0.00000000  0.75000000  1
  Sr  Sr2  1  0.00000000  0.25056305  0.25000000  1
  Sr  Sr3  1  0.00000000  0.74943695  0.75000000  1
  Sr  Sr4  1  0.25056305  0.25056305  0.75000000  1
  Sr  Sr5  1  0.25056305  0.00000000  0.25000000  1
  Sr  Sr6  1  0.33333300  0.66666700  0.50000000  1
  Sr  Sr7  1  0.66666700  0.33333300  0.00000000  1
  Sr  Sr8  1  0.66666700  0.33333300  0.50000000  1
  Sr  Sr9  1  0.33333300  0.66666700  0.00000000  1
  P  P0  1  0.39235988  0.00000000  0.75000000  1
  P  P1  1  0.39235988  0.39235988  0.25000000  1
  P  P2  1  0.00000000  0.60764012  0.25000000  1
  P  P3  1  0.00000000  0.39235988  0.75000000  1
  P  P4  1  0.60764012  0.60764012  0.75000000  1
  P  P5  1  0.60764012  0.00000000  0.25000000  1
  H  H0  1  0.00000000  0.00000000  0.50000000  1
  H  H1  1  0.00000000  0.00000000  0.00000000  1
loop_
_geom_bond_atom_site_label_1
_geom_bond_atom_site_label_2
_geom_bond_distance
_geom_bond_site_symmetry_2
P0 Sr3 3.014646 1_545
P0 Sr4 3.014647 1_555
P0 Sr1 3.128174 1_555
P0 Sr6 3.224644 1_545
P0 Sr9 3.224644 1_546
P0 Sr7 3.224647 1_556
P0 Sr8 3.224647 1_555
P1 Sr5 3.014646 1_555
P1 Sr2 3.014646 1_555
P1 Sr0 3.128174 1_555
P1 Sr6 3.224652 1_555
P1 Sr9 3.224652 1_555
P1 Sr7 3.224652 1_555
P1 Sr8 3.224652 1_555
P2 Sr5 3.014646 1_565
P2 Sr0 3.014647 1_455
P2 Sr2 3.128174 1_555
P2 Sr9 3.224644 1_555
P2 Sr6 3.224644 1_555
P2 Sr7 3.224647 1_455
P2 Sr8 3.224647 1_455
P3 Sr1 3.014646 1_455
P3 Sr4 3.014647 1_555
P3 Sr3 3.128174 1_555
P3 Sr8 3.224644 1_455
P3 Sr7 3.224644 1_456
P3 Sr9 3.224647 1_556
P3 Sr6 3.224647 1_555
P4 Sr1 3.014646 1_565
P4 Sr3 3.014646 1_655
P4 Sr4 3.128174 1_555
P4 Sr7 3.224652 1_556
P4 Sr8 3.224652 1_555
P4 Sr9 3.224652 1_556
P4 Sr6 3.224652 1_555
P5 Sr2 3.014646 1_655
P5 Sr0 3.014647 1_545
P5 Sr5 3.128174 1_555
P5 Sr7 3.224644 1_555
P5 Sr8 3.224644 1_555
P5 Sr6 3.224647 1_545
P5 Sr9 3.224647 1_545
H0 Sr4 2.816360 1_555
H0 Sr0 2.816360 1_445
H0 Sr2 2.816360 1_555
H0 Sr3 2.816360 1_545
H0 Sr5 2.816360 1_555
H0 Sr1 2.816360 1_455
H1 Sr4 2.816360 1_554
H1 Sr0 2.816360 1_445
H1 Sr2 2.816360 1_555
H1 Sr3 2.816360 1_544
H1 Sr5 2.816360 1_555
H1 Sr1 2.816360 1_454
