# generated using pymatgen
data_Li3V3(PO4)4
_symmetry_space_group_name_H-M   'P 1'
_cell_length_a   4.98265700
_cell_length_b   8.23030600
_cell_length_c   15.53312340
_cell_angle_alpha   67.95092486
_cell_angle_beta   90.00000000
_cell_angle_gamma   90.00000000
_symmetry_Int_Tables_number   1
_chemical_formula_structural   Li3V3(PO4)4
_chemical_formula_sum   'Li6 V6 P8 O32'
_cell_volume   590.40652822
_cell_formula_units_Z   2
loop_
 _symmetry_equiv_pos_site_id
 _symmetry_equiv_pos_as_xyz
  1  'x, y, z'
loop_
 _atom_site_type_symbol
 _atom_site_label
 _atom_site_symmetry_multiplicity
 _atom_site_fract_x
 _atom_site_fract_y
 _atom_site_fract_z
 _atom_site_occupancy
  Li  Li0  1  0.52190800  0.29841500  0.87784000  1
  Li  Li1  1  0.02190800  0.70158500  0.62216000  1
  Li  Li2  1  0.97809200  0.29841500  0.37784000  1
  Li  Li3  1  0.47809200  0.70158500  0.12216000  1
  Li  Li4  1  0.00000000  0.00000000  0.00000000  1
  Li  Li5  1  0.50000000  0.00000000  0.50000000  1
  V  V0  1  0.00000000  0.50000000  0.50000000  1
  V  V1  1  0.92659700  0.82182900  0.20821300  1
  V  V2  1  0.42659700  0.17817100  0.29178700  1
  V  V3  1  0.57340300  0.82182900  0.70821300  1
  V  V4  1  0.50000000  0.50000000  0.00000000  1
  V  V5  1  0.07340300  0.17817100  0.79178700  1
  P  P0  1  0.50490200  0.52651600  0.34984400  1
  P  P1  1  0.49509800  0.47348400  0.65015600  1
  P  P2  1  0.99509800  0.52651600  0.84984400  1
  P  P3  1  0.51113300  0.92700300  0.89277200  1
  P  P4  1  0.01113300  0.07299700  0.60722800  1
  P  P5  1  0.48886700  0.07299700  0.10722800  1
  P  P6  1  0.98886700  0.92700300  0.39277200  1
  P  P7  1  0.00490200  0.47348400  0.15015600  1
  O  O0  1  0.42760100  0.90791100  0.80067800  1
  O  O1  1  0.08218200  0.65381400  0.15800700  1
  O  O2  1  0.20179200  0.52271900  0.37214200  1
  O  O3  1  0.58218200  0.34618600  0.34199300  1
  O  O4  1  0.20357100  0.00013300  0.11166700  1
  O  O5  1  0.91781800  0.34618600  0.84199300  1
  O  O6  1  0.79642900  0.99986700  0.88833300  1
  O  O7  1  0.58302200  0.67764300  0.25714000  1
  O  O8  1  0.46846000  0.75833800  0.97874500  1
  O  O9  1  0.32719600  0.45164900  0.57312300  1
  O  O10  1  0.70357100  0.99986700  0.38833300  1
  O  O11  1  0.67280400  0.54835100  0.42687700  1
  O  O12  1  0.07239900  0.90791100  0.30067800  1
  O  O13  1  0.57239900  0.09208900  0.19932200  1
  O  O14  1  0.29642900  0.00013300  0.61166700  1
  O  O15  1  0.08302200  0.32235700  0.24286000  1
  O  O16  1  0.17280400  0.45164900  0.07312300  1
  O  O17  1  0.29820800  0.52271900  0.87214200  1
  O  O18  1  0.91697800  0.67764300  0.75714000  1
  O  O19  1  0.96846000  0.24166200  0.52125500  1
  O  O20  1  0.82719600  0.54835100  0.92687700  1
  O  O21  1  0.53154000  0.24166200  0.02125500  1
  O  O22  1  0.92760100  0.09208900  0.69932200  1
  O  O23  1  0.69418000  0.93481500  0.09675600  1
  O  O24  1  0.41781800  0.65381400  0.65800700  1
  O  O25  1  0.30582000  0.06518500  0.90324400  1
  O  O26  1  0.79820800  0.47728100  0.62785800  1
  O  O27  1  0.41697800  0.32235700  0.74286000  1
  O  O28  1  0.70179200  0.47728100  0.12785800  1
  O  O29  1  0.03154000  0.75833800  0.47874500  1
  O  O30  1  0.19418000  0.06518500  0.40324400  1
  O  O31  1  0.80582000  0.93481500  0.59675600  1
loop_
_geom_bond_atom_site_label_1
_geom_bond_atom_site_label_2
_geom_bond_distance
_geom_bond_site_symmetry_2
Li0 O5 2.047374 1_555
Li0 O27 2.097135 1_555
Li0 O21 2.098050 1_556
Li0 O25 2.104985 1_555
Li0 O17 2.129692 1_555
Li1 O24 2.047374 1_555
Li1 O18 2.097135 1_455
Li1 O29 2.098050 1_555
Li1 O31 2.104985 1_455
Li1 O26 2.129692 1_455
Li2 O3 2.047374 1_555
Li2 O15 2.097135 1_655
Li2 O19 2.098050 1_555
Li2 O30 2.104985 1_655
Li2 O2 2.129692 1_655
Li3 O1 2.047374 1_555
Li3 O7 2.097135 1_555
Li3 O8 2.098050 1_554
Li3 O23 2.104985 1_555
Li3 O28 2.129692 1_555
Li4 O4 2.009702 1_555
Li4 O6 2.009702 1_444
Li4 O23 2.064747 1_445
Li4 O25 2.064747 1_554
Li5 O14 2.009702 1_555
Li5 O10 2.009702 1_545
Li5 O31 2.064747 1_545
Li5 O30 2.064747 1_555
O0 P3 1.553396 1_555
O0 V3 1.963819 1_555
O1 P7 1.581707 1_555
O1 V1 1.982672 1_455
O2 P0 1.547191 1_555
O2 V0 2.170583 1_555
O3 P0 1.581707 1_555
O3 V2 1.982672 1_555
O4 P5 1.534306 1_555
O4 V1 2.157496 1_445
O5 P2 1.581707 1_555
O5 V5 1.982672 1_655
O6 P3 1.534306 1_555
O6 V5 2.157496 1_665
O7 P0 1.558014 1_555
O7 V1 2.058970 1_555
O8 P3 1.537449 1_555
O8 V4 2.031596 1_556
O9 P1 1.524927 1_555
O9 V0 1.940877 1_555
O10 P6 1.534306 1_555
O10 V2 2.157496 1_565
O11 P0 1.524927 1_555
O11 V0 1.940877 1_655
O12 P6 1.553396 1_455
O12 V1 1.963819 1_455
O13 P5 1.553396 1_555
O13 V2 1.963819 1_555
O14 P4 1.534306 1_555
O14 V3 2.157496 1_545
O15 P7 1.558014 1_555
O15 V2 2.058970 1_555
O16 P7 1.524927 1_555
O16 V4 1.940877 1_555
O17 P2 1.547191 1_455
O17 V4 2.170583 1_556
O18 P2 1.558014 1_555
O18 V3 2.058970 1_555
O19 P4 1.537449 1_655
O19 V0 2.031596 1_655
O20 P2 1.524927 1_555
O20 V4 1.940877 1_556
O21 P5 1.537449 1_555
O21 V4 2.031596 1_555
O22 P4 1.553396 1_655
O22 V5 1.963819 1_655
O23 P5 1.582813 1_565
O23 V1 1.998599 1_555
O24 P1 1.581707 1_555
O24 V3 1.982672 1_555
O25 P3 1.582813 1_545
O25 V5 1.998599 1_555
O26 P1 1.547191 1_555
O26 V0 2.170583 1_655
O27 P1 1.558014 1_555
O27 V5 2.058970 1_555
O28 P7 1.547191 1_655
O28 V4 2.170583 1_555
O29 P6 1.537449 1_455
O29 V0 2.031596 1_555
O30 P6 1.582813 1_445
O30 V2 1.998599 1_555
O31 P4 1.582813 1_665
O31 V3 1.998599 1_555
