# generated using pymatgen
data_Hg3Bi(Ru2O7)2
_symmetry_space_group_name_H-M   'P 1'
_cell_length_a   7.28507727
_cell_length_b   7.28507717
_cell_length_c   7.28507795
_cell_angle_alpha   59.10926536
_cell_angle_beta   59.10927062
_cell_angle_gamma   59.10926177
_symmetry_Int_Tables_number   1
_chemical_formula_structural   Hg3Bi(Ru2O7)2
_chemical_formula_sum   'Hg3 Bi1 Ru4 O14'
_cell_volume   267.84182384
_cell_formula_units_Z   1
loop_
 _symmetry_equiv_pos_site_id
 _symmetry_equiv_pos_as_xyz
  1  'x, y, z'
loop_
 _atom_site_type_symbol
 _atom_site_label
 _atom_site_symmetry_multiplicity
 _atom_site_fract_x
 _atom_site_fract_y
 _atom_site_fract_z
 _atom_site_occupancy
  Hg  Hg0  1  0.00000000  0.50000000  0.00000000  1
  Hg  Hg1  1  0.50000000  0.00000000  0.00000000  1
  Hg  Hg2  1  0.00000000  0.00000000  0.50000000  1
  Bi  Bi0  1  0.00000000  0.00000000  0.00000000  1
  Ru  Ru0  1  0.50000000  0.50000000  0.50000000  1
  Ru  Ru1  1  0.50000000  0.00000000  0.50000000  1
  Ru  Ru2  1  0.00000000  0.50000000  0.50000000  1
  Ru  Ru3  1  0.50000000  0.50000000  0.00000000  1
  O  O0  1  0.43676909  0.43676909  0.81631676  1
  O  O1  1  0.81631676  0.43676909  0.43676909  1
  O  O2  1  0.43676909  0.81631676  0.43676909  1
  O  O3  1  0.82739917  0.82739917  0.41399449  1
  O  O4  1  0.41399449  0.82739917  0.82739917  1
  O  O5  1  0.82739917  0.41399449  0.82739917  1
  O  O6  1  0.56323091  0.56323091  0.18368324  1
  O  O7  1  0.18368324  0.56323091  0.56323091  1
  O  O8  1  0.56323091  0.18368324  0.56323091  1
  O  O9  1  0.17260083  0.17260083  0.58600551  1
  O  O10  1  0.58600551  0.17260083  0.17260083  1
  O  O11  1  0.17260083  0.58600551  0.17260083  1
  O  O12  1  0.12895423  0.12895423  0.12895423  1
  O  O13  1  0.87104577  0.87104577  0.87104577  1
loop_
_geom_bond_atom_site_label_1
_geom_bond_atom_site_label_2
_geom_bond_distance
_geom_bond_site_symmetry_2
Hg0 O13 2.182453 1_454
Hg0 O12 2.182453 1_555
Hg0 O11 2.606935 1_555
Hg0 O5 2.606935 1_454
Hg0 O0 2.623594 1_554
Hg0 O6 2.623594 1_455
Hg0 O1 2.623594 1_455
Hg0 O7 2.623594 1_554
Hg1 O13 2.182453 1_544
Hg1 O12 2.182453 1_555
Hg1 O4 2.606935 1_544
Hg1 O10 2.606935 1_555
Hg1 O0 2.623594 1_554
Hg1 O6 2.623594 1_545
Hg1 O2 2.623594 1_545
Hg1 O8 2.623594 1_554
Hg2 O12 2.182453 1_555
Hg2 O13 2.182453 1_445
Hg2 O9 2.606935 1_555
Hg2 O3 2.606935 1_445
Hg2 O1 2.623593 1_455
Hg2 O7 2.623593 1_545
Hg2 O2 2.623594 1_545
Hg2 O8 2.623594 1_455
Bi0 O12 2.316522 1_555
Bi0 O13 2.316522 1_444
Bi0 O5 2.468564 1_454
Bi0 O11 2.468564 1_545
Bi0 O10 2.468564 1_455
Bi0 O4 2.468564 1_544
Bi0 O9 2.468565 1_554
Bi0 O3 2.468565 1_445
O0 Ru3 1.923215 1_556
O0 Ru0 1.942313 1_555
O1 Ru2 1.923215 1_655
O1 Ru0 1.942312 1_555
O2 Ru1 1.923215 1_565
O2 Ru0 1.942312 1_555
O3 Ru2 1.964051 1_655
O3 Ru1 1.964051 1_565
O4 Ru3 1.964051 1_556
O4 Ru1 1.964051 1_565
O5 Ru3 1.964051 1_556
O5 Ru2 1.964051 1_655
O6 Ru3 1.923215 1_555
O6 Ru0 1.942313 1_555
O7 Ru2 1.923215 1_555
O7 Ru0 1.942312 1_555
O8 Ru1 1.923215 1_555
O8 Ru0 1.942312 1_555
O9 Ru2 1.964051 1_555
O9 Ru1 1.964051 1_555
O10 Ru3 1.964051 1_555
O10 Ru1 1.964051 1_555
O11 Ru3 1.964051 1_555
O11 Ru2 1.964051 1_555
