# generated using pymatgen
data_Sr2LiInSb4
_symmetry_space_group_name_H-M   'P 1'
_cell_length_a   4.46407674
_cell_length_b   4.46407674
_cell_length_c   11.88318547
_cell_angle_alpha   90.00000000
_cell_angle_beta   90.00000000
_cell_angle_gamma   90.00000000
_symmetry_Int_Tables_number   1
_chemical_formula_structural   Sr2LiInSb4
_chemical_formula_sum   'Sr2 Li1 In1 Sb4'
_cell_volume   236.80789575
_cell_formula_units_Z   1
loop_
 _symmetry_equiv_pos_site_id
 _symmetry_equiv_pos_as_xyz
  1  'x, y, z'
loop_
 _atom_site_type_symbol
 _atom_site_label
 _atom_site_symmetry_multiplicity
 _atom_site_fract_x
 _atom_site_fract_y
 _atom_site_fract_z
 _atom_site_occupancy
  Sr  Sr0  1  0.00000000  0.50000000  0.27838694  1
  Sr  Sr1  1  0.50000000  0.00000000  0.72161306  1
  Li  Li0  1  0.00000000  0.00000000  0.00000000  1
  In  In0  1  0.50000000  0.50000000  0.00000000  1
  Sb  Sb0  1  0.00000000  0.50000000  0.84595200  1
  Sb  Sb1  1  0.50000000  0.00000000  0.15404800  1
  Sb  Sb2  1  0.00000000  0.00000000  0.50000000  1
  Sb  Sb3  1  0.50000000  0.50000000  0.50000000  1
loop_
_geom_bond_atom_site_label_1
_geom_bond_atom_site_label_2
_geom_bond_distance
_geom_bond_site_symmetry_2
Li0 Sb1 2.886697 1_555
Li0 Sb1 2.886697 1_455
Li0 Sb0 2.886697 1_554
Li0 Sb0 2.886697 1_544
In0 Sb1 2.886697 1_555
In0 Sb1 2.886697 1_565
In0 Sb0 2.886697 1_554
In0 Sb0 2.886697 1_654
In0 Li0 3.156579 1_655
In0 Li0 3.156579 1_555
In0 Li0 3.156579 1_565
In0 Li0 3.156579 1_665
Sb0 Sr1 3.485272 1_455
Sb0 Sr1 3.485272 1_555
Sb0 Sr1 3.485272 1_565
Sb0 Sr1 3.485272 1_465
Sb1 Sr0 3.485272 1_655
Sb1 Sr0 3.485272 1_545
Sb1 Sr0 3.485272 1_645
Sb1 Sr0 3.485272 1_555
Sb2 Sb3 3.156579 1_545
Sb2 Sb3 3.156579 1_555
Sb2 Sb3 3.156579 1_455
Sb2 Sb3 3.156579 1_445
Sb2 Sr1 3.452123 1_455
Sb2 Sr1 3.452123 1_555
Sb2 Sr0 3.452123 1_545
Sb2 Sr0 3.452123 1_555
Sb3 Sr1 3.452123 1_565
Sb3 Sr1 3.452123 1_555
Sb3 Sr0 3.452123 1_655
Sb3 Sr0 3.452123 1_555
