# generated using pymatgen
data_Cu2AgGeTe4
_symmetry_space_group_name_H-M   'P 1'
_cell_length_a   7.35074712
_cell_length_b   7.35074682
_cell_length_c   7.35074770
_cell_angle_alpha   130.98042451
_cell_angle_beta   130.98041785
_cell_angle_gamma   71.84418835
_symmetry_Int_Tables_number   1
_chemical_formula_structural   Cu2AgGeTe4
_chemical_formula_sum   'Cu2 Ag1 Ge1 Te4'
_cell_volume   221.42161307
_cell_formula_units_Z   1
loop_
 _symmetry_equiv_pos_site_id
 _symmetry_equiv_pos_as_xyz
  1  'x, y, z'
loop_
 _atom_site_type_symbol
 _atom_site_label
 _atom_site_symmetry_multiplicity
 _atom_site_fract_x
 _atom_site_fract_y
 _atom_site_fract_z
 _atom_site_occupancy
  Cu  Cu0  1  0.75000000  0.25000000  0.50000000  1
  Cu  Cu1  1  0.25000000  0.75000000  0.50000000  1
  Ag  Ag0  1  0.00000000  0.00000000  0.00000000  1
  Ge  Ge0  1  0.50000000  0.50000000  0.00000000  1
  Te  Te0  1  0.87725356  0.39274210  0.00000000  1
  Te  Te1  1  0.39274210  0.87725356  1.00000000  1
  Te  Te2  1  0.12274644  0.12274644  0.51548754  1
  Te  Te3  1  0.60725790  0.60725790  0.48451246  1
loop_
_geom_bond_atom_site_label_1
_geom_bond_atom_site_label_2
_geom_bond_distance
_geom_bond_site_symmetry_2
Cu0 Te3 2.555113 1_555
Cu0 Te1 2.555117 1_544
Cu0 Te0 2.555117 1_556
Cu0 Te2 2.555120 1_655
Cu1 Te3 2.555114 1_555
Cu1 Te0 2.555117 1_455
Cu1 Te1 2.555117 1_555
Cu1 Te2 2.555120 1_565
Ag0 Te2 2.743209 1_555
Ag0 Te3 2.743216 1_444
Ag0 Te0 2.743216 1_455
Ag0 Te1 2.743216 1_544
Ge0 Te2 2.636117 1_554
Ge0 Te1 2.636117 1_554
Ge0 Te0 2.636117 1_555
Ge0 Te3 2.636124 1_555
