# generated using pymatgen
data_Zr6NiSb8Pd5
_symmetry_space_group_name_H-M   'P 1'
_cell_length_a   8.11908894
_cell_length_b   8.11908910
_cell_length_c   8.11908830
_cell_angle_alpha   109.23432034
_cell_angle_beta   109.23432185
_cell_angle_gamma   109.94605911
_symmetry_Int_Tables_number   1
_chemical_formula_structural   Zr6NiSb8Pd5
_chemical_formula_sum   'Zr6 Ni1 Sb8 Pd5'
_cell_volume   411.98141229
_cell_formula_units_Z   1
loop_
 _symmetry_equiv_pos_site_id
 _symmetry_equiv_pos_as_xyz
  1  'x, y, z'
loop_
 _atom_site_type_symbol
 _atom_site_label
 _atom_site_symmetry_multiplicity
 _atom_site_fract_x
 _atom_site_fract_y
 _atom_site_fract_z
 _atom_site_occupancy
  Zr  Zr0  1  0.62500000  0.37500000  0.25000000  1
  Zr  Zr1  1  0.36672396  0.24204589  0.61509015  1
  Zr  Zr2  1  0.12695574  0.75163281  0.88490985  1
  Zr  Zr3  1  0.75795411  0.87304426  0.12467807  1
  Zr  Zr4  1  0.24836719  0.63327604  0.37532193  1
  Zr  Zr5  1  0.87500000  0.12500000  0.75000000  1
  Ni  Ni0  1  0.12500000  0.87500000  0.25000000  1
  Sb  Sb0  1  0.49995135  0.00100524  0.82453175  1
  Sb  Sb1  1  0.17351157  0.16456578  0.17651778  1
  Sb  Sb2  1  0.83543422  0.51195201  0.00894579  1
  Sb  Sb3  1  0.00300521  0.82648843  0.49105421  1
  Sb  Sb4  1  0.32458040  0.50004865  0.00105289  1
  Sb  Sb5  1  0.99899476  0.32352751  0.49894711  1
  Sb  Sb6  1  0.48804799  0.99699479  0.32348222  1
  Sb  Sb7  1  0.67647249  0.67541960  0.67546825  1
  Pd  Pd0  1  0.87793063  0.25085207  0.12447966  1
  Pd  Pd1  1  0.37500000  0.62500000  0.75000000  1
  Pd  Pd2  1  0.62637241  0.75345097  0.37552034  1
  Pd  Pd3  1  0.74914793  0.37362759  0.62707856  1
  Pd  Pd4  1  0.24654903  0.12206937  0.87292144  1
loop_
_geom_bond_atom_site_label_1
_geom_bond_atom_site_label_2
_geom_bond_distance
_geom_bond_site_symmetry_2
Ni0 Sb6 2.546667 1_555
Ni0 Sb1 2.546668 1_565
Ni0 Sb2 2.546668 1_455
Ni0 Sb3 2.546672 1_555
Ni0 Zr2 2.806362 1_554
Ni0 Zr3 2.806362 1_455
Ni0 Zr1 2.806362 1_565
Ni0 Zr4 2.806365 1_555
Sb0 Zr4 3.185037 1_545
Sb0 Zr5 3.189975 1_555
Sb0 Zr1 3.211953 1_555
Sb0 Zr0 3.295285 1_556
Sb0 Zr2 3.310508 1_545
Sb0 Zr3 3.345965 1_546
Sb1 Zr1 3.115520 1_555
Sb1 Zr3 3.181571 1_445
Sb1 Zr2 3.210054 1_544
Sb1 Zr0 3.213514 1_555
Sb1 Zr5 3.342937 1_454
Sb1 Zr4 3.344423 1_555
Sb2 Zr3 3.115520 1_555
Sb2 Zr2 3.181567 1_654
Sb2 Zr4 3.210052 1_655
Sb2 Zr0 3.213514 1_555
Sb2 Zr5 3.342938 1_554
Sb2 Zr1 3.344426 1_554
Sb3 Zr4 3.115534 1_555
Sb3 Zr1 3.181575 1_565
Sb3 Zr3 3.210044 1_455
Sb3 Zr0 3.213511 1_455
Sb3 Zr5 3.342931 1_465
Sb3 Zr2 3.344431 1_555
Sb4 Zr2 3.185026 1_554
Sb4 Zr5 3.189976 1_454
Sb4 Zr4 3.211955 1_555
Sb4 Zr0 3.295289 1_555
Sb4 Zr3 3.310502 1_555
Sb4 Zr1 3.345959 1_554
Sb5 Zr1 3.185041 1_655
Sb5 Zr5 3.189973 1_555
Sb5 Zr3 3.211961 1_545
Sb5 Zr0 3.295283 1_555
Sb5 Zr4 3.310510 1_655
Sb5 Zr2 3.345951 1_655
Sb6 Zr2 3.115519 1_554
Sb6 Zr4 3.181575 1_555
Sb6 Zr1 3.210043 1_565
Sb6 Zr0 3.213506 1_565
Sb6 Zr5 3.342940 1_565
Sb6 Zr3 3.344429 1_555
Sb7 Zr3 3.185034 1_556
Sb7 Zr5 3.189976 1_565
Sb7 Zr2 3.211963 1_655
Sb7 Zr0 3.295289 1_555
Sb7 Zr1 3.310502 1_555
Sb7 Zr4 3.345953 1_555
Pd0 Sb5 2.647883 1_555
Pd0 Sb0 2.652779 1_554
Pd0 Sb2 2.662490 1_555
Pd0 Sb1 2.665072 1_655
Pd0 Zr5 2.859671 1_554
Pd0 Zr4 2.874135 1_655
Pd0 Zr3 2.885102 1_545
Pd0 Zr0 2.895867 1_555
Pd1 Sb4 2.642041 1_556
Pd1 Sb7 2.642041 1_555
Pd1 Sb5 2.642046 1_455
Pd1 Sb0 2.642049 1_565
Pd1 Zr2 2.904602 1_555
Pd1 Zr4 2.904606 1_555
Pd1 Zr1 2.904606 1_555
Pd1 Zr3 2.904606 1_556
Pd2 Sb4 2.647883 1_555
Pd2 Sb7 2.652779 1_555
Pd2 Sb3 2.662483 1_655
Pd2 Sb6 2.665079 1_555
Pd2 Zr5 2.859672 1_565
Pd2 Zr3 2.874131 1_555
Pd2 Zr4 2.885094 1_555
Pd2 Zr0 2.895867 1_555
Pd3 Sb7 2.647883 1_555
Pd3 Sb5 2.652771 1_555
Pd3 Sb6 2.662486 1_545
Pd3 Sb2 2.665072 1_556
Pd3 Zr5 2.859671 1_555
Pd3 Zr1 2.874131 1_555
Pd3 Zr2 2.885099 1_655
Pd3 Zr0 2.895867 1_555
Pd4 Sb0 2.647878 1_555
Pd4 Sb4 2.652779 1_556
Pd4 Sb1 2.662490 1_556
Pd4 Sb3 2.665072 1_545
Pd4 Zr5 2.859671 1_455
Pd4 Zr2 2.874139 1_545
Pd4 Zr1 2.885102 1_555
Pd4 Zr0 2.895867 1_556
