# generated using pymatgen
data_Y4Lu6IrRu3
_symmetry_space_group_name_H-M   'P 1'
_cell_length_a   6.24294585
_cell_length_b   7.22179522
_cell_length_c   8.34115301
_cell_angle_alpha   97.20484242
_cell_angle_beta   112.33608382
_cell_angle_gamma   89.92770096
_symmetry_Int_Tables_number   1
_chemical_formula_structural   Y4Lu6IrRu3
_chemical_formula_sum   'Y4 Lu6 Ir1 Ru3'
_cell_volume   344.65935656
_cell_formula_units_Z   1
loop_
 _symmetry_equiv_pos_site_id
 _symmetry_equiv_pos_as_xyz
  1  'x, y, z'
loop_
 _atom_site_type_symbol
 _atom_site_label
 _atom_site_symmetry_multiplicity
 _atom_site_fract_x
 _atom_site_fract_y
 _atom_site_fract_z
 _atom_site_occupancy
  Y  Y0  1  0.52346941  0.08349982  0.80877717  1
  Y  Y1  1  0.47811382  0.91828111  0.19066746  1
  Y  Y2  1  0.71691392  0.41585305  0.19134902  1
  Y  Y3  1  0.28411466  0.58468720  0.80621422  1
  Lu  Lu0  1  0.29484736  0.31498823  0.43469449  1
  Lu  Lu1  1  0.70277342  0.68183566  0.56670042  1
  Lu  Lu2  1  0.86379239  0.18458873  0.56745647  1
  Lu  Lu3  1  0.13387750  0.81705698  0.43322895  1
  Lu  Lu4  1  0.08001646  0.24997112  0.99937990  1
  Lu  Lu5  1  0.92090853  0.74918944  0.00007394  1
  Ir  Ir0  1  0.31568311  0.57525091  0.22528576  1
  Ru  Ru0  1  0.68308010  0.42505737  0.77644320  1
  Ru  Ru1  1  0.09424119  0.92482169  0.77825811  1
  Ru  Ru2  1  0.90816914  0.07492167  0.22146990  1
loop_
_geom_bond_atom_site_label_1
_geom_bond_atom_site_label_2
_geom_bond_distance
_geom_bond_site_symmetry_2
Lu0 Ru2 2.823155 1_455
Lu0 Ru0 2.969374 1_555
Lu1 Ru0 2.737241 1_555
Lu1 Ru1 2.849934 1_655
Lu2 Ru1 2.752940 1_645
Lu2 Ru0 2.838633 1_555
Lu2 Ru2 3.011048 1_555
Lu3 Ru2 2.738622 1_465
Lu3 Ru1 2.988049 1_555
Lu4 Ru1 2.821563 1_545
Lu4 Ru0 2.876953 1_455
Lu4 Ru2 2.877887 1_456
Lu5 Ru2 2.823433 1_565
Lu5 Ru0 2.823443 1_554
Lu5 Ru1 2.883896 1_654
Ir0 Lu0 2.756354 1_555
Ir0 Y1 2.767126 1_555
Ir0 Lu4 2.832803 1_554
Ir0 Lu3 2.842133 1_555
Ir0 Y2 2.851229 1_555
Ir0 Lu5 2.871573 1_455
Ir0 Lu1 2.960801 1_555
Ru0 Y0 2.743607 1_555
Ru0 Y3 2.825843 1_555
Ru1 Y3 2.723880 1_555
Ru1 Y0 2.823933 1_565
Ru1 Y1 3.369466 1_556
Ru2 Y2 2.733240 1_555
Ru2 Y1 2.822119 1_545
Ru2 Y0 3.375023 1_554
