# generated using pymatgen
data_Cs2Zn2Cd3Sb4
_symmetry_space_group_name_H-M   'P 1'
_cell_length_a   7.55035329
_cell_length_b   7.55035281
_cell_length_c   13.15820849
_cell_angle_alpha   90.00000000
_cell_angle_beta   90.00000000
_cell_angle_gamma   116.14432099
_symmetry_Int_Tables_number   1
_chemical_formula_structural   Cs2Zn2Cd3Sb4
_chemical_formula_sum   'Cs4 Zn4 Cd6 Sb8'
_cell_volume   673.37380093
_cell_formula_units_Z   2
loop_
 _symmetry_equiv_pos_site_id
 _symmetry_equiv_pos_as_xyz
  1  'x, y, z'
loop_
 _atom_site_type_symbol
 _atom_site_label
 _atom_site_symmetry_multiplicity
 _atom_site_fract_x
 _atom_site_fract_y
 _atom_site_fract_z
 _atom_site_occupancy
  Cs  Cs0  1  0.22132508  0.77867492  0.50000000  1
  Cs  Cs1  1  0.22132508  0.77867492  0.00000000  1
  Cs  Cs2  1  0.77867492  0.22132508  0.50000000  1
  Cs  Cs3  1  0.77867492  0.22132508  0.00000000  1
  Zn  Zn0  1  0.53133242  0.24798482  0.25000000  1
  Zn  Zn1  1  0.75201518  0.46866758  0.75000000  1
  Zn  Zn2  1  0.46866758  0.75201518  0.75000000  1
  Zn  Zn3  1  0.24798482  0.53133242  0.25000000  1
  Cd  Cd0  1  0.66697137  0.66697137  0.39508929  1
  Cd  Cd1  1  0.33302863  0.33302863  0.60491071  1
  Cd  Cd2  1  0.66697137  0.66697137  0.10491071  1
  Cd  Cd3  1  0.33302863  0.33302863  0.89508929  1
  Cd  Cd4  1  0.99452045  0.99452045  0.25000000  1
  Cd  Cd5  1  0.00547955  0.00547955  0.75000000  1
  Sb  Sb0  1  0.57232094  0.90906771  0.25000000  1
  Sb  Sb1  1  0.09093229  0.42767906  0.75000000  1
  Sb  Sb2  1  0.42767906  0.09093229  0.75000000  1
  Sb  Sb3  1  0.90906771  0.57232094  0.25000000  1
  Sb  Sb4  1  0.28069775  0.28069775  0.39187929  1
  Sb  Sb5  1  0.71930225  0.71930225  0.60812071  1
  Sb  Sb6  1  0.28069775  0.28069775  0.10812071  1
  Sb  Sb7  1  0.71930225  0.71930225  0.89187929  1
loop_
_geom_bond_atom_site_label_1
_geom_bond_atom_site_label_2
_geom_bond_distance
_geom_bond_site_symmetry_2
Cs0 Zn3 3.831526 1_555
Cs0 Zn2 3.831526 1_555
Cs0 Sb4 3.885231 1_565
Cs0 Sb5 3.885231 1_455
Cs0 Sb2 3.945884 1_565
Cs0 Sb3 3.945884 1_455
Cs0 Cs2 4.060094 1_455
Cs0 Cs2 4.060094 1_565
Cs0 Sb1 4.063786 1_555
Cs0 Sb0 4.063787 1_555
Cs0 Sb4 4.224597 1_555
Cs0 Sb5 4.224597 1_555
Cs1 Zn3 3.831526 1_555
Cs1 Zn2 3.831526 1_554
Cs1 Sb6 3.885231 1_565
Cs1 Sb7 3.885231 1_454
Cs1 Sb2 3.945884 1_564
Cs1 Sb3 3.945884 1_455
Cs1 Cs3 4.060094 1_455
Cs1 Cs3 4.060094 1_565
Cs1 Sb1 4.063786 1_554
Cs1 Sb0 4.063787 1_555
Cs1 Sb6 4.224597 1_555
Cs1 Sb7 4.224597 1_554
Cs2 Zn1 3.831526 1_555
Cs2 Zn0 3.831526 1_555
Cs2 Sb5 3.885231 1_545
Cs2 Sb4 3.885231 1_655
Cs2 Sb0 3.945884 1_545
Cs2 Sb1 3.945884 1_655
Cs2 Sb3 4.063786 1_555
Cs2 Sb2 4.063787 1_555
Cs2 Sb5 4.224597 1_555
Cs2 Sb4 4.224597 1_555
Cs3 Zn1 3.831526 1_554
Cs3 Zn0 3.831526 1_555
Cs3 Sb7 3.885231 1_544
Cs3 Sb6 3.885231 1_655
Cs3 Sb0 3.945884 1_545
Cs3 Sb1 3.945884 1_654
Cs3 Sb3 4.063786 1_555
Cs3 Sb2 4.063787 1_554
Cs3 Sb7 4.224597 1_554
Cs3 Sb6 4.224597 1_555
Cd0 Sb5 2.834094 1_555
Cd0 Sb0 2.940733 1_555
Cd0 Sb3 2.940733 1_555
Cd0 Sb4 3.085078 1_555
Cd0 Cs2 4.054583 1_555
Cd0 Cs0 4.054583 1_555
Cd0 Cs2 4.126127 1_565
Cd0 Cs0 4.126127 1_655
Cd1 Sb4 2.834094 1_555
Cd1 Sb2 2.940733 1_555
Cd1 Sb1 2.940733 1_555
Cd1 Sb5 3.085078 1_555
Cd1 Cs0 4.054583 1_555
Cd1 Cs2 4.054583 1_555
Cd1 Cs0 4.126127 1_545
Cd1 Cs2 4.126127 1_455
Cd2 Sb7 2.834094 1_554
Cd2 Sb0 2.940733 1_555
Cd2 Sb3 2.940733 1_555
Cd2 Sb6 3.085078 1_555
Cd2 Cs3 4.054583 1_555
Cd2 Cs1 4.054583 1_555
Cd2 Cs3 4.126127 1_565
Cd2 Cs1 4.126127 1_655
Cd3 Sb6 2.834094 1_556
Cd3 Sb2 2.940733 1_555
Cd3 Sb1 2.940733 1_555
Cd3 Sb7 3.085078 1_555
Cd3 Cs1 4.054583 1_556
Cd3 Cs3 4.054583 1_556
Cd3 Cs1 4.126127 1_546
Cd3 Cs3 4.126127 1_456
Cd4 Sb4 2.950994 1_665
Cd4 Sb6 2.950994 1_665
Cd4 Sb3 2.960664 1_555
Cd4 Sb0 2.960664 1_555
Cd4 Cs3 4.343853 1_565
Cd4 Cs2 4.343853 1_565
Cd4 Cs0 4.343853 1_655
Cd4 Cs1 4.343853 1_655
Cd5 Sb7 2.950994 1_445
Cd5 Sb5 2.950994 1_445
Cd5 Sb1 2.960664 1_555
Cd5 Sb2 2.960664 1_555
Cd5 Cs0 4.343853 1_545
Cd5 Cs1 4.343853 1_546
Cd5 Cs2 4.343853 1_455
Cd5 Cs3 4.343853 1_456
Sb0 Zn0 2.709590 1_565
Sb0 Zn3 2.824185 1_555
Sb1 Zn1 2.709590 1_455
Sb1 Zn2 2.824185 1_555
Sb2 Zn2 2.709590 1_545
Sb2 Zn1 2.824185 1_555
Sb3 Zn3 2.709590 1_655
Sb3 Zn0 2.824185 1_555
Sb4 Zn3 2.745769 1_555
Sb4 Zn0 2.745770 1_555
Sb5 Zn1 2.745769 1_555
Sb5 Zn2 2.745770 1_555
Sb6 Zn3 2.745769 1_555
Sb6 Zn0 2.745770 1_555
Sb7 Zn1 2.745769 1_555
Sb7 Zn2 2.745770 1_555
