# generated using pymatgen
data_Hf6Zn22SiPt
_symmetry_space_group_name_H-M   'P 1'
_cell_length_a   8.62608589
_cell_length_b   8.62608658
_cell_length_c   8.62608744
_cell_angle_alpha   60.00000779
_cell_angle_beta   60.00000515
_cell_angle_gamma   60.00000821
_symmetry_Int_Tables_number   1
_chemical_formula_structural   Hf6Zn22SiPt
_chemical_formula_sum   'Hf6 Zn22 Si1 Pt1'
_cell_volume   453.86481790
_cell_formula_units_Z   1
loop_
 _symmetry_equiv_pos_site_id
 _symmetry_equiv_pos_as_xyz
  1  'x, y, z'
loop_
 _atom_site_type_symbol
 _atom_site_label
 _atom_site_symmetry_multiplicity
 _atom_site_fract_x
 _atom_site_fract_y
 _atom_site_fract_z
 _atom_site_occupancy
  Hf  Hf0  1  0.70966643  0.29033357  0.29033357  1
  Hf  Hf1  1  0.29033357  0.70966643  0.70966643  1
  Hf  Hf2  1  0.29033357  0.70966643  0.29033357  1
  Hf  Hf3  1  0.70966643  0.29033357  0.70966643  1
  Hf  Hf4  1  0.29033357  0.29033357  0.70966643  1
  Hf  Hf5  1  0.70966643  0.70966643  0.29033357  1
  Zn  Zn0  1  0.12288732  0.12288732  0.12288732  1
  Zn  Zn1  1  0.87711268  0.87711268  0.87711268  1
  Zn  Zn2  1  0.12288732  0.12288732  0.63133805  1
  Zn  Zn3  1  0.12288732  0.63133805  0.12288732  1
  Zn  Zn4  1  0.87711268  0.87711268  0.36866195  1
  Zn  Zn5  1  0.87711268  0.36866195  0.87711268  1
  Zn  Zn6  1  0.63133805  0.12288732  0.12288732  1
  Zn  Zn7  1  0.36866195  0.87711268  0.87711268  1
  Zn  Zn8  1  0.50000000  0.00000000  0.00000000  1
  Zn  Zn9  1  0.00000000  0.50000000  0.50000000  1
  Zn  Zn10  1  0.00000000  0.50000000  0.00000000  1
  Zn  Zn11  1  0.50000000  0.00000000  0.50000000  1
  Zn  Zn12  1  0.00000000  0.00000000  0.50000000  1
  Zn  Zn13  1  0.50000000  0.50000000  0.00000000  1
  Zn  Zn14  1  0.33514433  0.33514433  0.33514433  1
  Zn  Zn15  1  0.66485567  0.66485567  0.66485567  1
  Zn  Zn16  1  0.33514433  0.33514433  0.99456600  1
  Zn  Zn17  1  0.33514433  0.99456600  0.33514433  1
  Zn  Zn18  1  0.66485567  0.66485567  0.00543400  1
  Zn  Zn19  1  0.66485567  0.00543400  0.66485567  1
  Zn  Zn20  1  0.99456600  0.33514433  0.33514433  1
  Zn  Zn21  1  0.00543400  0.66485567  0.66485567  1
  Si  Si0  1  0.50000000  0.50000000  0.50000000  1
  Pt  Pt0  1  0.00000000  0.00000000  0.00000000  1
loop_
_geom_bond_atom_site_label_1
_geom_bond_atom_site_label_2
_geom_bond_distance
_geom_bond_site_symmetry_2
Hf0 Si0 2.557748 1_555
Hf0 Zn20 2.896168 1_555
Hf0 Zn18 2.896174 1_555
Hf0 Zn19 2.896174 1_555
Hf0 Zn14 2.896176 1_555
Hf0 Zn11 3.089218 1_555
Hf0 Zn10 3.089218 1_655
Hf0 Zn12 3.089218 1_655
Hf0 Zn13 3.089218 1_555
Hf1 Si0 2.557748 1_555
Hf1 Zn21 2.896168 1_555
Hf1 Zn16 2.896174 1_555
Hf1 Zn17 2.896174 1_555
Hf1 Zn15 2.896176 1_555
Hf1 Zn11 3.089218 1_565
Hf1 Zn10 3.089218 1_556
Hf1 Zn12 3.089218 1_565
Hf1 Zn13 3.089218 1_556
Hf2 Si0 2.557748 1_555
Hf2 Zn17 2.896168 1_555
Hf2 Zn18 2.896174 1_555
Hf2 Zn21 2.896174 1_555
Hf2 Zn14 2.896177 1_555
Hf2 Zn9 3.089218 1_555
Hf2 Zn8 3.089218 1_565
Hf2 Zn12 3.089218 1_565
Hf2 Zn13 3.089218 1_555
Hf3 Si0 2.557748 1_555
Hf3 Zn19 2.896168 1_555
Hf3 Zn16 2.896174 1_555
Hf3 Zn20 2.896174 1_555
Hf3 Zn15 2.896177 1_555
Hf3 Zn9 3.089218 1_655
Hf3 Zn8 3.089218 1_556
Hf3 Zn12 3.089218 1_655
Hf3 Zn13 3.089218 1_556
Hf4 Si0 2.557748 1_555
Hf4 Zn16 2.896168 1_555
Hf4 Zn19 2.896174 1_555
Hf4 Zn21 2.896174 1_555
Hf4 Zn14 2.896177 1_555
Hf4 Zn9 3.089218 1_555
Hf4 Zn11 3.089218 1_555
Hf4 Zn10 3.089219 1_556
Hf4 Zn8 3.089219 1_556
Hf5 Si0 2.557748 1_555
Hf5 Zn18 2.896168 1_555
Hf5 Zn17 2.896174 1_555
Hf5 Zn20 2.896174 1_555
Hf5 Zn15 2.896177 1_555
Hf5 Zn9 3.089218 1_655
Hf5 Zn11 3.089218 1_565
Hf5 Zn10 3.089219 1_655
Hf5 Zn8 3.089219 1_565
Zn0 Zn8 2.656402 1_555
Zn0 Zn10 2.656403 1_555
Zn0 Zn12 2.656403 1_555
Zn0 Zn16 2.688673 1_554
Zn0 Zn17 2.688674 1_545
Zn0 Zn20 2.688674 1_455
Zn1 Zn8 2.656402 1_566
Zn1 Zn10 2.656403 1_656
Zn1 Zn12 2.656403 1_665
Zn1 Zn18 2.688673 1_556
Zn1 Zn19 2.688674 1_565
Zn1 Zn21 2.688674 1_655
Zn2 Zn9 2.656403 1_555
Zn2 Zn20 2.688681 1_455
Zn3 Zn9 2.656403 1_555
Zn4 Zn9 2.656403 1_655
Zn5 Zn9 2.656403 1_655
Zn6 Zn8 2.656402 1_555
Zn7 Zn8 2.656402 1_566
Zn10 Zn16 2.490428 1_554
Zn10 Zn18 2.490428 1_455
Zn10 Zn20 2.490429 1_455
Zn10 Zn21 2.490429 1_554
Zn10 Zn3 2.656402 1_555
Zn10 Zn5 2.656402 1_454
Zn11 Zn14 2.490431 1_555
Zn11 Zn15 2.490431 1_545
Zn11 Zn19 2.490436 1_555
Zn11 Zn17 2.490436 1_545
Zn11 Zn4 2.656402 1_545
Zn11 Zn2 2.656402 1_555
Zn11 Zn7 2.656403 1_545
Zn11 Zn6 2.656403 1_555
Zn12 Zn17 2.490428 1_545
Zn12 Zn19 2.490428 1_455
Zn12 Zn20 2.490429 1_455
Zn12 Zn21 2.490429 1_545
Zn12 Zn4 2.656402 1_445
Zn12 Zn2 2.656402 1_555
Zn13 Zn14 2.490431 1_555
Zn13 Zn15 2.490431 1_554
Zn13 Zn18 2.490436 1_555
Zn13 Zn16 2.490436 1_554
Zn13 Zn5 2.656402 1_554
Zn13 Zn3 2.656402 1_555
Zn13 Zn7 2.656403 1_554
Zn13 Zn6 2.656403 1_555
Zn14 Zn9 2.490431 1_555
Zn14 Zn2 2.688676 1_555
Zn14 Zn6 2.688676 1_555
Zn14 Zn3 2.688676 1_555
Zn14 Zn20 2.937858 1_455
Zn14 Zn17 2.937858 1_545
Zn14 Zn16 2.937858 1_554
Zn15 Zn9 2.490431 1_655
Zn15 Zn4 2.688676 1_555
Zn15 Zn7 2.688676 1_555
Zn15 Zn5 2.688676 1_555
Zn15 Zn21 2.937858 1_655
Zn15 Zn19 2.937858 1_565
Zn15 Zn18 2.937858 1_556
Zn16 Zn8 2.490429 1_556
Zn16 Zn6 2.688681 1_556
Zn16 Zn3 2.688681 1_556
Zn16 Zn20 2.937858 1_456
Zn16 Zn17 2.937859 1_546
Zn17 Zn8 2.490429 1_565
Zn17 Zn6 2.688681 1_565
Zn17 Zn2 2.688681 1_565
Zn17 Zn20 2.937858 1_465
Zn18 Zn8 2.490429 1_565
Zn18 Zn7 2.688681 1_554
Zn18 Zn5 2.688681 1_554
Zn18 Zn21 2.937858 1_654
Zn18 Zn19 2.937859 1_564
Zn19 Zn8 2.490429 1_556
Zn19 Zn7 2.688681 1_545
Zn19 Zn4 2.688681 1_545
Zn19 Zn21 2.937858 1_645
Zn20 Zn9 2.490436 1_655
Zn20 Zn3 2.688681 1_655
Zn21 Zn9 2.490436 1_555
Zn21 Zn5 2.688681 1_455
Zn21 Zn4 2.688681 1_455
Pt0 Zn0 2.596549 1_555
Pt0 Zn1 2.596549 1_444
Pt0 Zn7 2.596549 1_544
Pt0 Zn6 2.596549 1_455
Pt0 Zn5 2.596549 1_454
Pt0 Zn3 2.596549 1_545
Pt0 Zn2 2.596549 1_554
Pt0 Zn4 2.596549 1_445
