# generated using pymatgen
data_Nb3Fe(SeI)4
_symmetry_space_group_name_H-M   'P 1'
_cell_length_a   7.79570250
_cell_length_b   7.79570264
_cell_length_c   7.79570206
_cell_angle_alpha   59.19863629
_cell_angle_beta   59.19863569
_cell_angle_gamma   59.19863873
_symmetry_Int_Tables_number   1
_chemical_formula_structural   Nb3Fe(SeI)4
_chemical_formula_sum   'Nb3 Fe1 Se4 I4'
_cell_volume   328.88803623
_cell_formula_units_Z   1
loop_
 _symmetry_equiv_pos_site_id
 _symmetry_equiv_pos_as_xyz
  1  'x, y, z'
loop_
 _atom_site_type_symbol
 _atom_site_label
 _atom_site_symmetry_multiplicity
 _atom_site_fract_x
 _atom_site_fract_y
 _atom_site_fract_z
 _atom_site_occupancy
  Nb  Nb0  1  0.39854130  0.79800360  0.39854130  1
  Nb  Nb1  1  0.79800360  0.39854130  0.39854130  1
  Nb  Nb2  1  0.39854130  0.39854130  0.79800360  1
  Fe  Fe0  1  0.41787638  0.41787638  0.41787638  1
  Se  Se0  1  0.63012233  0.11192686  0.63012233  1
  Se  Se1  1  0.63012233  0.63012233  0.11192686  1
  Se  Se2  1  0.11192686  0.63012233  0.63012233  1
  Se  Se3  1  0.62793210  0.62793210  0.62793210  1
  I  I0  1  0.12403472  0.12403472  0.12403472  1
  I  I1  1  0.61492864  0.12398422  0.12398422  1
  I  I2  1  0.12398422  0.61492864  0.12398422  1
  I  I3  1  0.12398422  0.12398422  0.61492864  1
loop_
_geom_bond_atom_site_label_1
_geom_bond_atom_site_label_2
_geom_bond_distance
_geom_bond_site_symmetry_2
Nb0 Se1 2.531478 1_555
Nb0 Se2 2.531478 1_555
Nb0 Se3 2.563662 1_555
Nb1 Se1 2.531478 1_555
Nb1 Se0 2.531478 1_555
Nb1 Se3 2.563662 1_555
Nb2 Se2 2.531478 1_555
Nb2 Se0 2.531478 1_555
Nb2 Se3 2.563662 1_555
Fe0 Se1 2.425836 1_555
Fe0 Se2 2.425836 1_555
Fe0 Se0 2.425836 1_555
Fe0 Nb2 2.816968 1_555
Fe0 Nb1 2.816969 1_555
Fe0 Nb0 2.816969 1_555
Fe0 I2 3.320389 1_555
Fe0 I1 3.320389 1_555
Fe0 I3 3.320389 1_555
I0 Nb2 3.027925 1_554
I0 Nb1 3.027925 1_455
I0 Nb0 3.027925 1_545
I1 Nb2 3.001140 1_554
I1 Nb0 3.001140 1_545
I2 Nb2 3.001140 1_554
I2 Nb1 3.001140 1_455
I3 Nb1 3.001140 1_455
I3 Nb0 3.001140 1_545
