# generated using pymatgen
data_NbSnF7
_symmetry_space_group_name_H-M   'P 1'
_cell_length_a   7.30930930
_cell_length_b   4.91387606
_cell_length_c   6.80465133
_cell_angle_alpha   86.03832441
_cell_angle_beta   90.00000000
_cell_angle_gamma   90.00000000
_symmetry_Int_Tables_number   1
_chemical_formula_structural   NbSnF7
_chemical_formula_sum   'Nb2 Sn2 F14'
_cell_volume   243.81892926
_cell_formula_units_Z   2
loop_
 _symmetry_equiv_pos_site_id
 _symmetry_equiv_pos_as_xyz
  1  'x, y, z'
loop_
 _atom_site_type_symbol
 _atom_site_label
 _atom_site_symmetry_multiplicity
 _atom_site_fract_x
 _atom_site_fract_y
 _atom_site_fract_z
 _atom_site_occupancy
  Nb  Nb0  1  0.75000000  0.54148565  0.79709941  1
  Nb  Nb1  1  0.25000000  0.45851435  0.20290059  1
  Sn  Sn0  1  0.25000000  0.95275036  0.66841720  1
  Sn  Sn1  1  0.75000000  0.04724964  0.33158280  1
  F  F0  1  0.25000000  0.62770936  0.92045681  1
  F  F1  1  0.46390917  0.67946468  0.19568314  1
  F  F2  1  0.96390917  0.32053532  0.80431686  1
  F  F3  1  0.57167425  0.80122234  0.64482044  1
  F  F4  1  0.75000000  0.40032205  0.51517122  1
  F  F5  1  0.25000000  0.59967795  0.48482878  1
  F  F6  1  0.75000000  0.37229064  0.07954319  1
  F  F7  1  0.92832575  0.80122234  0.64482044  1
  F  F8  1  0.42832575  0.19877766  0.35517956  1
  F  F9  1  0.25000000  0.15091331  0.04583841  1
  F  F10  1  0.07167425  0.19877766  0.35517956  1
  F  F11  1  0.53609083  0.32053532  0.80431686  1
  F  F12  1  0.75000000  0.84908669  0.95416159  1
  F  F13  1  0.03609083  0.67946468  0.19568314  1
loop_
_geom_bond_atom_site_label_1
_geom_bond_atom_site_label_2
_geom_bond_distance
_geom_bond_site_symmetry_2
F0 Nb1 2.040651 1_556
F0 Sn0 2.261403 1_555
F1 Nb1 1.902225 1_555
F2 Nb0 1.902225 1_555
F3 Nb0 2.053997 1_555
F3 Sn0 2.474861 1_555
F4 Nb0 2.084560 1_555
F4 Sn1 2.206851 1_555
F5 Nb1 2.084560 1_555
F5 Sn0 2.206851 1_555
F6 Nb0 2.040651 1_554
F6 Sn1 2.261403 1_555
F7 Nb0 2.053997 1_555
F7 Sn0 2.474861 1_655
F8 Nb1 2.053997 1_555
F8 Sn1 2.474861 1_555
F9 Nb1 1.910530 1_555
F10 Nb1 2.053997 1_555
F10 Sn1 2.474861 1_455
F11 Nb0 1.902225 1_555
F12 Nb0 1.910530 1_555
F13 Nb1 1.902225 1_555
