# generated using pymatgen
data_K3Rb(In3Te5)4
_symmetry_space_group_name_H-M   'P 1'
_cell_length_a   11.18938959
_cell_length_b   11.18938896
_cell_length_c   11.18939021
_cell_angle_alpha   89.89115366
_cell_angle_beta   89.89114487
_cell_angle_gamma   89.89115128
_symmetry_Int_Tables_number   1
_chemical_formula_structural   K3Rb(In3Te5)4
_chemical_formula_sum   'K3 Rb1 In12 Te20'
_cell_volume   1400.93129633
_cell_formula_units_Z   1
loop_
 _symmetry_equiv_pos_site_id
 _symmetry_equiv_pos_as_xyz
  1  'x, y, z'
loop_
 _atom_site_type_symbol
 _atom_site_label
 _atom_site_symmetry_multiplicity
 _atom_site_fract_x
 _atom_site_fract_y
 _atom_site_fract_z
 _atom_site_occupancy
  K  K0  1  0.25482548  0.00000000  0.74517452  1
  K  K1  1  0.74517452  0.25482548  1.00000000  1
  K  K2  1  1.00000000  0.74517452  0.25482548  1
  Rb  Rb0  1  0.50000000  0.50000000  0.50000000  1
  In  In0  1  0.83840436  0.88445830  0.57787042  1
  In  In1  1  0.57787042  0.83840436  0.88445830  1
  In  In2  1  0.88445830  0.57787042  0.83840436  1
  In  In3  1  0.16159564  0.42212958  0.11554170  1
  In  In4  1  0.11554170  0.16159564  0.42212958  1
  In  In5  1  0.42212958  0.11554170  0.16159564  1
  In  In6  1  0.74019142  0.16471255  0.34527598  1
  In  In7  1  0.34527598  0.74019142  0.16471255  1
  In  In8  1  0.16471255  0.34527598  0.74019142  1
  In  In9  1  0.25980858  0.65472402  0.83528745  1
  In  In10  1  0.83528745  0.25980858  0.65472402  1
  In  In11  1  0.65472402  0.83528745  0.25980858  1
  Te  Te0  1  0.17802109  0.82197891  1.00000000  1
  Te  Te1  1  0.82197891  0.00000000  0.17802109  1
  Te  Te2  1  0.17011742  0.17011742  0.17011742  1
  Te  Te3  1  0.82988258  0.82988258  0.82988258  1
  Te  Te4  1  0.00000000  0.17802109  0.82197891  1
  Te  Te5  1  0.92652473  0.50000000  0.07347527  1
  Te  Te6  1  0.07347527  0.92652473  0.50000000  1
  Te  Te7  1  0.50000000  0.07347527  0.92652473  1
  Te  Te8  1  0.75079553  0.69498569  0.44088604  1
  Te  Te9  1  0.44088604  0.75079553  0.69498569  1
  Te  Te10  1  0.69498569  0.44088604  0.75079553  1
  Te  Te11  1  0.24920447  0.55911396  0.30501431  1
  Te  Te12  1  0.30501431  0.24920447  0.55911396  1
  Te  Te13  1  0.55911396  0.30501431  0.24920447  1
  Te  Te14  1  0.67248143  0.07725896  0.57698770  1
  Te  Te15  1  0.57698770  0.67248143  0.07725896  1
  Te  Te16  1  0.07725896  0.57698770  0.67248143  1
  Te  Te17  1  0.32751857  0.42301230  0.92274104  1
  Te  Te18  1  0.92274104  0.32751857  0.42301230  1
  Te  Te19  1  0.42301230  0.92274104  0.32751857  1
loop_
_geom_bond_atom_site_label_1
_geom_bond_atom_site_label_2
_geom_bond_distance
_geom_bond_site_symmetry_2
K0 Te7 3.515055 1_555
K0 Te6 3.515055 1_545
K0 Te9 3.522013 1_545
K0 Te12 3.522014 1_555
K0 Te4 3.579410 1_555
K0 Te0 3.579410 1_545
K1 Te5 3.515055 1_556
K1 Te7 3.515055 1_555
K1 Te13 3.522014 1_556
K1 Te10 3.522014 1_555
K1 Te4 3.579410 1_655
K1 Te1 3.579410 1_556
K2 Te5 3.515055 1_555
K2 Te6 3.515055 1_655
K2 Te8 3.522014 1_555
K2 Te11 3.522014 1_655
K2 Te1 3.579410 1_565
K2 Te0 3.579410 1_654
Rb0 Te9 3.617098 1_555
Rb0 Te12 3.617098 1_555
Rb0 Te8 3.617098 1_555
Rb0 Te13 3.617098 1_555
Rb0 Te11 3.617098 1_555
Rb0 Te10 3.617098 1_555
In0 Te8 2.798403 1_555
In0 Te6 2.809568 1_655
In0 Te14 2.843551 1_565
In0 Te3 2.885531 1_555
In1 Te9 2.798403 1_555
In1 Te7 2.809568 1_565
In1 Te15 2.843551 1_556
In1 Te3 2.885531 1_555
In2 Te10 2.798403 1_555
In2 Te5 2.809569 1_556
In2 Te16 2.843551 1_655
In2 Te3 2.885531 1_555
In3 Te11 2.798403 1_555
In3 Te5 2.809569 1_455
In3 Te17 2.843551 1_554
In3 Te2 2.885531 1_555
In4 Te12 2.798403 1_555
In4 Te6 2.809568 1_545
In4 Te18 2.843551 1_455
In4 Te2 2.885531 1_555
In5 Te13 2.798403 1_555
In5 Te7 2.809568 1_554
In5 Te19 2.843551 1_545
In5 Te2 2.885531 1_555
In6 Te13 2.777623 1_555
In6 Te1 2.781529 1_555
In6 Te14 2.870443 1_555
In6 Te18 2.876523 1_555
In7 Te11 2.777623 1_555
In7 Te0 2.781529 1_554
In7 Te15 2.870443 1_555
In7 Te19 2.876523 1_555
In8 Te12 2.777623 1_555
In8 Te4 2.781529 1_555
In8 Te16 2.870443 1_555
In8 Te17 2.876523 1_555
In9 Te9 2.777623 1_555
In9 Te0 2.781529 1_555
In9 Te17 2.870443 1_555
In9 Te16 2.876523 1_555
In10 Te10 2.777623 1_555
In10 Te4 2.781529 1_655
In10 Te18 2.870443 1_555
In10 Te14 2.876522 1_555
In11 Te8 2.777623 1_555
In11 Te1 2.781529 1_565
In11 Te19 2.870443 1_555
In11 Te15 2.876523 1_555
