# generated using pymatgen
data_LuTa5TiSn6
_symmetry_space_group_name_H-M   'P 1'
_cell_length_a   5.73064695
_cell_length_b   5.72159602
_cell_length_c   9.59376067
_cell_angle_alpha   90.00000000
_cell_angle_beta   90.00000000
_cell_angle_gamma   119.94777065
_symmetry_Int_Tables_number   1
_chemical_formula_structural   LuTa5TiSn6
_chemical_formula_sum   'Lu1 Ta5 Ti1 Sn6'
_cell_volume   272.56411905
_cell_formula_units_Z   1
loop_
 _symmetry_equiv_pos_site_id
 _symmetry_equiv_pos_as_xyz
  1  'x, y, z'
loop_
 _atom_site_type_symbol
 _atom_site_label
 _atom_site_symmetry_multiplicity
 _atom_site_fract_x
 _atom_site_fract_y
 _atom_site_fract_z
 _atom_site_occupancy
  Lu  Lu0  1  0.00000000  0.00000000  0.00139831  1
  Ta  Ta0  1  0.50000000  0.50000000  0.75094533  1
  Ta  Ta1  1  0.50000000  0.00000000  0.75094533  1
  Ta  Ta2  1  0.50000000  0.50000000  0.24811774  1
  Ta  Ta3  1  0.50000000  0.00000000  0.24811774  1
  Ta  Ta4  1  0.00000000  0.50000000  0.24922541  1
  Ti  Ti0  1  0.00000000  0.50000000  0.75117743  1
  Sn  Sn0  1  0.66983565  0.33491732  0.99834312  1
  Sn  Sn1  1  0.33016435  0.66508268  0.99834312  1
  Sn  Sn2  1  0.66847418  0.33423609  0.50035951  1
  Sn  Sn3  1  0.33152582  0.66576391  0.50035951  1
  Sn  Sn4  1  0.00000000  0.00000000  0.68098128  1
  Sn  Sn5  1  0.00000000  0.00000000  0.32168617  1
loop_
_geom_bond_atom_site_label_1
_geom_bond_atom_site_label_2
_geom_bond_distance
_geom_bond_site_symmetry_2
Lu0 Sn5 3.072765 1_555
Lu0 Sn4 3.074004 1_554
Lu0 Sn0 3.297384 1_454
Lu0 Sn1 3.297384 1_544
Lu0 Sn1 3.297388 1_554
Lu0 Sn0 3.297388 1_444
Lu0 Sn1 3.326195 1_444
Lu0 Sn0 3.326195 1_554
Ta0 Ta1 2.860798 1_565
Ta0 Ta1 2.860798 1_555
Ta0 Ti0 2.865324 1_555
Ta0 Ti0 2.865324 1_655
Ta1 Ti0 2.865324 1_545
Ta1 Ti0 2.865324 1_655
Ta2 Ta3 2.860798 1_565
Ta2 Ta3 2.860798 1_555
Ta2 Ta4 2.865343 1_655
Ta2 Ta4 2.865343 1_555
Ta3 Ta4 2.865343 1_545
Ta3 Ta4 2.865343 1_655
Sn0 Ti0 2.882802 1_655
Sn0 Ta1 2.896654 1_555
Sn0 Ta0 2.896657 1_555
Sn0 Ta4 2.912202 1_656
Sn0 Ta3 2.915367 1_556
Sn0 Ta2 2.915370 1_556
Sn0 Sn1 3.278859 1_655
Sn0 Sn1 3.320975 1_545
Sn0 Sn1 3.320985 1_555
Sn1 Ti0 2.882802 1_555
Sn1 Ta1 2.896654 1_565
Sn1 Ta0 2.896657 1_555
Sn1 Ta4 2.912202 1_556
Sn1 Ta3 2.915367 1_566
Sn1 Ta2 2.915370 1_556
Sn2 Ti0 2.915503 1_655
Sn2 Ta4 2.918007 1_655
Sn2 Ta1 2.919822 1_555
Sn2 Ta0 2.919828 1_555
Sn2 Ta3 2.932916 1_555
Sn2 Ta2 2.932922 1_555
Sn2 Sn3 3.292380 1_655
Sn2 Sn3 3.314124 1_545
Sn2 Sn3 3.314143 1_555
Sn3 Ti0 2.915503 1_555
Sn3 Ta4 2.918007 1_555
Sn3 Ta1 2.919822 1_565
Sn3 Ta0 2.919828 1_555
Sn3 Ta3 2.932916 1_565
Sn3 Ta2 2.932922 1_555
Sn4 Ti0 2.938995 1_545
Sn4 Ti0 2.938995 1_555
Sn4 Ta0 2.942892 1_555
Sn4 Ta0 2.942892 1_445
Sn4 Ta1 2.942892 1_555
Sn4 Ta1 2.942892 1_455
Sn4 Sn5 3.446991 1_555
Sn5 Ta4 2.944050 1_555
Sn5 Ta4 2.944050 1_545
Sn5 Ta2 2.950971 1_555
Sn5 Ta2 2.950971 1_445
Sn5 Ta3 2.950971 1_455
Sn5 Ta3 2.950971 1_555
