# generated using pymatgen
data_RbNi2(Sb6Os)2
_symmetry_space_group_name_H-M   'P 1'
_cell_length_a   8.07792981
_cell_length_b   8.08668325
_cell_length_c   8.08668375
_cell_angle_alpha   109.36619105
_cell_angle_beta   109.47143359
_cell_angle_gamma   109.62015646
_symmetry_Int_Tables_number   1
_chemical_formula_structural   RbNi2(Sb6Os)2
_chemical_formula_sum   'Rb1 Ni2 Sb12 Os2'
_cell_volume   406.42532921
_cell_formula_units_Z   1
loop_
 _symmetry_equiv_pos_site_id
 _symmetry_equiv_pos_as_xyz
  1  'x, y, z'
loop_
 _atom_site_type_symbol
 _atom_site_label
 _atom_site_symmetry_multiplicity
 _atom_site_fract_x
 _atom_site_fract_y
 _atom_site_fract_z
 _atom_site_occupancy
  Rb  Rb0  1  0.00000000  0.00000000  0.00000000  1
  Ni  Ni0  1  0.00000000  0.00000000  0.50000000  1
  Ni  Ni1  1  0.00000000  0.50000000  0.00000000  1
  Sb  Sb0  1  0.33962636  0.18295917  0.83970180  1
  Sb  Sb1  1  0.66037364  0.81704083  0.16029820  1
  Sb  Sb2  1  0.66037364  0.50007244  0.84333182  1
  Sb  Sb3  1  0.33962636  0.49992756  0.15666818  1
  Sb  Sb4  1  0.18336633  0.84083231  0.34253402  1
  Sb  Sb5  1  0.81663367  0.15916769  0.65746598  1
  Sb  Sb6  1  0.50277786  0.84389558  0.65888428  1
  Sb  Sb7  1  0.49722214  0.15610442  0.34111572  1
  Sb  Sb8  1  0.84393940  0.34369900  0.18319228  1
  Sb  Sb9  1  0.15606060  0.65630100  0.81680772  1
  Sb  Sb10  1  0.84393940  0.66074712  0.50023740  1
  Sb  Sb11  1  0.15606060  0.33925288  0.49976260  1
  Os  Os0  1  0.50000000  0.00000000  0.00000000  1
  Os  Os1  1  0.50000000  0.50000000  0.50000000  1
loop_
_geom_bond_atom_site_label_1
_geom_bond_atom_site_label_2
_geom_bond_distance
_geom_bond_site_symmetry_2
Rb0 Sb7 3.497768 1_555
Rb0 Sb6 3.497768 1_444
Rb0 Sb0 3.508984 1_554
Rb0 Sb1 3.508984 1_445
Rb0 Sb2 3.509000 1_444
Rb0 Sb3 3.509000 1_555
Rb0 Sb9 3.517980 1_544
Rb0 Sb8 3.517980 1_455
Rb0 Sb11 3.517999 1_555
Rb0 Sb10 3.517999 1_444
Rb0 Sb4 3.526053 1_545
Rb0 Sb5 3.526053 1_454
Ni0 Sb11 2.607325 1_555
Ni0 Sb10 2.607325 1_445
Ni0 Sb0 2.610784 1_555
Ni0 Sb1 2.610784 1_445
Ni0 Sb5 2.631166 1_455
Ni0 Sb4 2.631166 1_545
Ni1 Sb8 2.607337 1_455
Ni1 Sb9 2.607337 1_554
Ni1 Sb3 2.610772 1_555
Ni1 Sb2 2.610772 1_454
Ni1 Sb4 2.631166 1_555
Ni1 Sb5 2.631166 1_454
Sb0 Sb2 2.954222 1_555
Sb0 Sb3 2.963581 1_556
Sb1 Sb3 2.954222 1_555
Sb1 Sb2 2.963581 1_554
Sb4 Sb7 2.936973 1_565
Sb4 Sb6 2.952460 1_555
Sb5 Sb6 2.936973 1_545
Sb5 Sb7 2.952460 1_555
Sb10 Sb9 2.954775 1_655
Sb10 Sb8 2.964322 1_555
Sb11 Sb8 2.954775 1_455
Sb11 Sb9 2.964322 1_555
Os0 Sb7 2.637084 1_555
Os0 Sb6 2.637084 1_544
Os0 Sb9 2.641618 1_544
Os0 Sb8 2.641618 1_555
Os0 Sb1 2.643342 1_545
Os0 Sb0 2.643342 1_554
Os1 Sb6 2.637100 1_555
Os1 Sb7 2.637100 1_555
Os1 Sb11 2.641630 1_555
Os1 Sb10 2.641630 1_555
Os1 Sb2 2.643347 1_555
Os1 Sb3 2.643347 1_555
