# generated using pymatgen
data_CdFe(CO3)2
_symmetry_space_group_name_H-M   'P 1'
_cell_length_a   5.92652032
_cell_length_b   5.91980691
_cell_length_c   5.97425719
_cell_angle_alpha   48.13978138
_cell_angle_beta   47.46870415
_cell_angle_gamma   47.92067562
_symmetry_Int_Tables_number   1
_chemical_formula_structural   CdFe(CO3)2
_chemical_formula_sum   'Cd1 Fe1 C2 O6'
_cell_volume   105.47456987
_cell_formula_units_Z   1
loop_
 _symmetry_equiv_pos_site_id
 _symmetry_equiv_pos_as_xyz
  1  'x, y, z'
loop_
 _atom_site_type_symbol
 _atom_site_label
 _atom_site_symmetry_multiplicity
 _atom_site_fract_x
 _atom_site_fract_y
 _atom_site_fract_z
 _atom_site_occupancy
  Cd  Cd0  1  0.00000000  0.00000000  0.00000000  1
  Fe  Fe0  1  0.50000000  0.50000000  0.50000000  1
  C  C0  1  0.24360020  0.24419841  0.24944533  1
  C  C1  1  0.75639980  0.75580159  0.75055467  1
  O  O0  1  0.49887299  0.73342461  0.02779875  1
  O  O1  1  0.96120793  0.49985643  0.27403484  1
  O  O2  1  0.73458591  0.03036901  0.49459683  1
  O  O3  1  0.26541409  0.96963099  0.50540317  1
  O  O4  1  0.03879207  0.50014357  0.72596516  1
  O  O5  1  0.50112701  0.26657539  0.97220125  1
loop_
_geom_bond_atom_site_label_1
_geom_bond_atom_site_label_2
_geom_bond_distance
_geom_bond_site_symmetry_2
Cd0 O2 2.298641 1_455
Cd0 O3 2.298641 1_544
Cd0 O0 2.306472 1_545
Cd0 O5 2.306472 1_454
Cd0 O4 2.330969 1_554
Cd0 O1 2.330969 1_445
Fe0 O1 2.074444 1_555
Fe0 O4 2.074444 1_555
Fe0 O3 2.131099 1_555
Fe0 O2 2.131099 1_555
Fe0 O5 2.162928 1_555
Fe0 O0 2.162928 1_555
C0 O5 1.284823 1_554
C0 O3 1.290489 1_545
C0 O1 1.297104 1_455
C1 O0 1.284823 1_556
C1 O2 1.290489 1_565
C1 O4 1.297104 1_655
