# generated using pymatgen
data_Cs2CoMoS4
_symmetry_space_group_name_H-M   'P 1'
_cell_length_a   14.25959811
_cell_length_b   12.66491800
_cell_length_c   7.60318319
_cell_angle_alpha   85.57097449
_cell_angle_beta   62.31505565
_cell_angle_gamma   32.11398814
_symmetry_Int_Tables_number   1
_chemical_formula_structural   Cs2CoMoS4
_chemical_formula_sum   'Cs4 Co2 Mo2 S8'
_cell_volume   478.73568939
_cell_formula_units_Z   2
loop_
 _symmetry_equiv_pos_site_id
 _symmetry_equiv_pos_as_xyz
  1  'x, y, z'
loop_
 _atom_site_type_symbol
 _atom_site_label
 _atom_site_symmetry_multiplicity
 _atom_site_fract_x
 _atom_site_fract_y
 _atom_site_fract_z
 _atom_site_occupancy
  Cs  Cs0  1  0.57422373  0.57422373  0.92577627  1
  Cs  Cs1  1  0.92577627  0.92577627  0.57422373  1
  Cs  Cs2  1  0.32422373  0.32422373  0.67577627  1
  Cs  Cs3  1  0.67577627  0.67577627  0.32422373  1
  Co  Co0  1  0.00000000  0.00000000  0.00000000  1
  Co  Co1  1  0.25000000  0.25000000  0.25000000  1
  Mo  Mo0  1  0.75000000  0.75000000  0.75000000  1
  Mo  Mo1  1  0.50000000  0.50000000  0.50000000  1
  S  S0  1  0.20827245  0.89204872  0.61252565  1
  S  S1  1  0.28715317  0.61252565  0.89204872  1
  S  S2  1  0.61252565  0.28715317  0.20827245  1
  S  S3  1  0.89204872  0.20827245  0.28715317  1
  S  S4  1  0.35795128  0.04172755  0.96284683  1
  S  S5  1  0.96284683  0.63747435  0.35795128  1
  S  S6  1  0.63747435  0.96284683  0.04172755  1
  S  S7  1  0.04172755  0.35795128  0.63747435  1
loop_
_geom_bond_atom_site_label_1
_geom_bond_atom_site_label_2
_geom_bond_distance
_geom_bond_site_symmetry_2
Cs0 S0 3.592561 1_645
Cs0 S3 3.592561 1_466
Cs0 S3 3.611448 1_555
Cs0 S0 3.611448 1_556
Cs0 S4 3.628429 1_565
Cs0 S7 3.628429 1_655
Cs0 S1 3.827575 1_555
Cs0 S2 3.827575 1_556
Cs1 S2 3.592560 1_566
Cs1 S1 3.592561 1_654
Cs1 S1 3.611448 1_565
Cs1 S2 3.611449 1_655
Cs1 S5 3.628429 1_555
Cs1 S6 3.628429 1_556
Cs1 S0 3.827575 1_655
Cs1 S3 3.827575 1_565
Cs2 S6 3.592560 1_545
Cs2 S5 3.592561 1_456
Cs2 S5 3.611448 1_545
Cs2 S6 3.611449 1_456
Cs2 S1 3.628429 1_555
Cs2 S2 3.628429 1_555
Cs2 S7 3.827575 1_555
Cs2 S4 3.827575 1_555
Cs3 S7 3.592561 1_565
Cs3 S4 3.592561 1_654
Cs3 S4 3.611448 1_565
Cs3 S7 3.611448 1_654
Cs3 S3 3.628429 1_555
Cs3 S0 3.628429 1_555
Cs3 S5 3.827575 1_555
Cs3 S6 3.827575 1_555
Co0 S3 2.232104 1_455
Co0 S1 2.232105 1_544
Co0 S0 2.232105 1_544
Co0 S2 2.232105 1_455
Co1 S4 2.232104 1_554
Co1 S5 2.232105 1_455
Co1 S7 2.232105 1_555
Co1 S6 2.232105 1_545
Mo0 S6 2.247292 1_556
Mo0 S7 2.247292 1_655
Mo0 S5 2.247293 1_555
Mo0 S4 2.247293 1_565
Mo1 S2 2.247292 1_555
Mo1 S0 2.247292 1_555
Mo1 S1 2.247293 1_555
Mo1 S3 2.247293 1_555
