# generated using pymatgen
data_TbAgPb
_symmetry_space_group_name_H-M   'P 1'
_cell_length_a   4.77768248
_cell_length_b   4.77768248
_cell_length_c   7.52453254
_cell_angle_alpha   90.00000000
_cell_angle_beta   90.00000000
_cell_angle_gamma   119.99999302
_symmetry_Int_Tables_number   1
_chemical_formula_structural   TbAgPb
_chemical_formula_sum   'Tb2 Ag2 Pb2'
_cell_volume   148.74581424
_cell_formula_units_Z   2
loop_
 _symmetry_equiv_pos_site_id
 _symmetry_equiv_pos_as_xyz
  1  'x, y, z'
loop_
 _atom_site_type_symbol
 _atom_site_label
 _atom_site_symmetry_multiplicity
 _atom_site_fract_x
 _atom_site_fract_y
 _atom_site_fract_z
 _atom_site_occupancy
  Tb  Tb0  1  -0.00000000  -0.00000000  0.00311738  1
  Tb  Tb1  1  0.00000000  -0.00000000  0.50311738  1
  Ag  Ag0  1  0.66666700  0.33333300  0.32018225  1
  Ag  Ag1  1  0.33333300  0.66666700  0.82018225  1
  Pb  Pb0  1  0.33333300  0.66666700  0.22190037  1
  Pb  Pb1  1  0.66666700  0.33333300  0.72190037  1
loop_
_geom_bond_atom_site_label_1
_geom_bond_atom_site_label_2
_geom_bond_distance
_geom_bond_site_symmetry_2
Tb0 Tb1 3.762266 1_554
Tb0 Tb1 3.762266 1_555
Ag0 Pb0 2.855807 1_545
Ag0 Pb0 2.855807 1_655
Ag0 Pb0 2.855815 1_555
Ag0 Pb1 3.022741 1_555
Ag0 Tb1 3.082773 1_655
Ag0 Tb1 3.082777 1_555
Ag0 Tb1 3.082777 1_665
Ag0 Tb0 3.647000 1_655
Ag0 Tb0 3.647003 1_665
Ag0 Tb0 3.647003 1_555
Ag1 Pb1 2.855807 1_455
Ag1 Pb1 2.855807 1_565
Ag1 Pb1 2.855815 1_555
Ag1 Pb0 3.022741 1_556
Ag1 Tb0 3.082773 1_566
Ag1 Tb0 3.082777 1_556
Ag1 Tb0 3.082777 1_666
Ag1 Tb1 3.647000 1_565
Ag1 Tb1 3.647003 1_555
Ag1 Tb1 3.647003 1_665
Pb0 Tb0 3.212295 1_565
Pb0 Tb0 3.212299 1_555
Pb0 Tb0 3.212299 1_665
Pb0 Tb1 3.476536 1_565
Pb0 Tb1 3.476540 1_555
Pb0 Tb1 3.476540 1_665
Pb1 Tb1 3.212295 1_655
Pb1 Tb1 3.212299 1_665
Pb1 Tb1 3.212299 1_555
Pb1 Tb0 3.476536 1_656
Pb1 Tb0 3.476540 1_556
Pb1 Tb0 3.476540 1_666
