# generated using pymatgen
data_InIrCl6
_symmetry_space_group_name_H-M   'P 1'
_cell_length_a   6.30186650
_cell_length_b   6.30186530
_cell_length_c   6.35983123
_cell_angle_alpha   80.78244072
_cell_angle_beta   80.78244224
_cell_angle_gamma   119.90699031
_symmetry_Int_Tables_number   1
_chemical_formula_structural   InIrCl6
_chemical_formula_sum   'In1 Ir1 Cl6'
_cell_volume   207.43162241
_cell_formula_units_Z   1
loop_
 _symmetry_equiv_pos_site_id
 _symmetry_equiv_pos_as_xyz
  1  'x, y, z'
loop_
 _atom_site_type_symbol
 _atom_site_label
 _atom_site_symmetry_multiplicity
 _atom_site_fract_x
 _atom_site_fract_y
 _atom_site_fract_z
 _atom_site_occupancy
  In  In0  1  0.16678795  0.83321205  1.00000000  1
  Ir  Ir0  1  0.83337976  0.16662024  0.00000000  1
  Cl  Cl0  1  0.45071546  0.08497875  0.22591076  1
  Cl  Cl1  1  0.91502125  0.54928454  0.77408924  1
  Cl  Cl2  1  0.20605075  0.22937527  0.77386944  1
  Cl  Cl3  1  0.77062473  0.79394925  0.22613056  1
  Cl  Cl4  1  0.06154802  0.40412993  0.22482610  1
  Cl  Cl5  1  0.59587007  0.93845198  0.77517390  1
loop_
_geom_bond_atom_site_label_1
_geom_bond_atom_site_label_2
_geom_bond_distance
_geom_bond_site_symmetry_2
Cl0 Ir0 2.358025 1_555
Cl0 In0 2.550699 1_544
Cl1 Ir0 2.358024 1_556
Cl1 In0 2.550699 1_655
Cl2 Ir0 2.355804 1_456
Cl2 In0 2.545998 1_545
Cl3 Ir0 2.355804 1_565
Cl3 In0 2.545998 1_654
Cl4 Ir0 2.355943 1_455
Cl4 In0 2.542697 1_554
Cl5 Ir0 2.355943 1_566
Cl5 In0 2.542697 1_555
