# generated using pymatgen
data_Zr6ZnAuN2
_symmetry_space_group_name_H-M   'P 1'
_cell_length_a   5.99980265
_cell_length_b   5.99980232
_cell_length_c   8.96265023
_cell_angle_alpha   90.00000000
_cell_angle_beta   90.00000000
_cell_angle_gamma   147.49019420
_symmetry_Int_Tables_number   1
_chemical_formula_structural   Zr6ZnAuN2
_chemical_formula_sum   'Zr6 Zn1 Au1 N2'
_cell_volume   173.39777748
_cell_formula_units_Z   1
loop_
 _symmetry_equiv_pos_site_id
 _symmetry_equiv_pos_as_xyz
  1  'x, y, z'
loop_
 _atom_site_type_symbol
 _atom_site_label
 _atom_site_symmetry_multiplicity
 _atom_site_fract_x
 _atom_site_fract_y
 _atom_site_fract_z
 _atom_site_occupancy
  Zr  Zr0  1  0.62700054  0.37299946  0.95463364  1
  Zr  Zr1  1  0.37488158  0.62511842  0.44801644  1
  Zr  Zr2  1  0.37488158  0.62511842  0.05198356  1
  Zr  Zr3  1  0.62700054  0.37299946  0.54536636  1
  Zr  Zr4  1  0.95277196  0.04722804  0.75000000  1
  Zr  Zr5  1  0.05032809  0.94967191  0.25000000  1
  Zn  Zn0  1  0.74427234  0.25572766  0.25000000  1
  Au  Au0  1  0.25058573  0.74941427  0.75000000  1
  N  N0  1  0.99913831  0.00086169  0.00106945  1
  N  N1  1  0.99913831  0.00086169  0.49893055  1
loop_
_geom_bond_atom_site_label_1
_geom_bond_atom_site_label_2
_geom_bond_distance
_geom_bond_site_symmetry_2
Zn0 Zr5 2.795028 1_655
Zn0 Zr5 2.795028 1_545
Zn0 Zr1 2.869498 1_545
Zn0 Zr2 2.869498 1_545
Zn0 Zr1 2.869498 1_655
Zn0 Zr2 2.869498 1_655
Zn0 Zr3 2.972056 1_555
Zn0 Zr0 2.972056 1_554
Au0 Zr0 2.865502 1_565
Au0 Zr3 2.865502 1_565
Au0 Zr0 2.865502 1_455
Au0 Zr3 2.865502 1_455
Au0 Zr4 2.871491 1_455
Au0 Zr4 2.871492 1_565
Au0 Zr2 3.061996 1_556
Au0 Zr1 3.061996 1_555
N0 Zr2 2.253363 1_655
N0 Zr2 2.253363 1_545
N0 Zr0 2.272281 1_544
N0 Zr0 2.272281 1_654
N0 Zr5 2.307695 1_645
N0 Zr4 2.312773 1_554
N1 Zr1 2.253363 1_655
N1 Zr1 2.253363 1_545
N1 Zr3 2.272281 1_545
N1 Zr3 2.272281 1_655
N1 Zr5 2.307695 1_645
N1 Zr4 2.312773 1_555
