# generated using pymatgen
data_ScNb(NiH3)2
_symmetry_space_group_name_H-M   'P 1'
_cell_length_a   5.40478383
_cell_length_b   5.40478338
_cell_length_c   4.24145003
_cell_angle_alpha   90.00000000
_cell_angle_beta   90.00000000
_cell_angle_gamma   142.95597514
_symmetry_Int_Tables_number   1
_chemical_formula_structural   ScNb(NiH3)2
_chemical_formula_sum   'Sc1 Nb1 Ni2 H6'
_cell_volume   74.64083435
_cell_formula_units_Z   1
loop_
 _symmetry_equiv_pos_site_id
 _symmetry_equiv_pos_as_xyz
  1  'x, y, z'
loop_
 _atom_site_type_symbol
 _atom_site_label
 _atom_site_symmetry_multiplicity
 _atom_site_fract_x
 _atom_site_fract_y
 _atom_site_fract_z
 _atom_site_occupancy
  Sc  Sc0  1  0.13885053  0.86114947  0.25000000  1
  Nb  Nb0  1  0.86097221  0.13902779  0.75000000  1
  Ni  Ni0  1  0.56831521  0.43168479  0.75000000  1
  Ni  Ni1  1  0.42758697  0.57241303  0.25000000  1
  H  H0  1  0.06112780  0.93887220  0.75000000  1
  H  H1  1  0.92257600  0.07742400  0.25000000  1
  H  H2  1  0.69285105  0.30714895  0.51222466  1
  H  H3  1  0.31743459  0.68256541  0.51978147  1
  H  H4  1  0.69285105  0.30714895  0.98777534  1
  H  H5  1  0.31743459  0.68256541  0.98021853  1
loop_
_geom_bond_atom_site_label_1
_geom_bond_atom_site_label_2
_geom_bond_distance
_geom_bond_site_symmetry_2
H0 Ni0 1.718512 1_455
H0 Ni0 1.718512 1_565
H0 Nb0 2.051525 1_465
H0 Sc0 2.265413 1_555
H0 Sc0 2.265413 1_556
H1 Ni1 1.717700 1_545
H1 Ni1 1.717700 1_655
H1 Nb0 2.212727 1_555
H1 Nb0 2.212727 1_554
H1 Sc0 2.216738 1_645
H2 Ni0 1.626782 1_555
H2 Nb0 1.996611 1_555
H2 Sc0 2.119250 1_655
H2 Sc0 2.119250 1_545
H3 Ni1 1.607493 1_555
H3 Nb0 2.024961 1_455
H3 Nb0 2.024961 1_565
H3 Sc0 2.158656 1_555
H4 Ni0 1.626782 1_555
H4 Nb0 1.996611 1_555
H4 Sc0 2.119250 1_656
H4 Sc0 2.119250 1_546
H5 Ni1 1.607493 1_556
H5 Nb0 2.024961 1_455
H5 Nb0 2.024961 1_565
H5 Sc0 2.158656 1_556
