# generated using pymatgen
data_Y8AlPd23Pt
_symmetry_space_group_name_H-M   'P 1'
_cell_length_a   8.30535934
_cell_length_b   8.29185158
_cell_length_c   8.29185158
_cell_angle_alpha   90.00000000
_cell_angle_beta   90.00000000
_cell_angle_gamma   90.00000000
_symmetry_Int_Tables_number   1
_chemical_formula_structural   Y8AlPd23Pt
_chemical_formula_sum   'Y8 Al1 Pd23 Pt1'
_cell_volume   571.03334186
_cell_formula_units_Z   1
loop_
 _symmetry_equiv_pos_site_id
 _symmetry_equiv_pos_as_xyz
  1  'x, y, z'
loop_
 _atom_site_type_symbol
 _atom_site_label
 _atom_site_symmetry_multiplicity
 _atom_site_fract_x
 _atom_site_fract_y
 _atom_site_fract_z
 _atom_site_occupancy
  Y  Y0  1  0.25124807  0.25072360  0.25072360  1
  Y  Y1  1  0.74790822  0.74757797  0.74757797  1
  Y  Y2  1  0.74790822  0.74757797  0.25242203  1
  Y  Y3  1  0.74790822  0.25242203  0.74757797  1
  Y  Y4  1  0.25124807  0.25072360  0.74927640  1
  Y  Y5  1  0.25124807  0.74927640  0.25072360  1
  Y  Y6  1  0.25124807  0.74927640  0.74927640  1
  Y  Y7  1  0.74790822  0.25242203  0.25242203  1
  Al  Al0  1  0.00544735  0.00000000  0.00000000  1
  Pd  Pd0  1  0.25958701  0.50000000  0.00000000  1
  Pd  Pd1  1  0.73853780  0.50000000  0.00000000  1
  Pd  Pd2  1  0.00022981  0.26069206  0.50000000  1
  Pd  Pd3  1  0.50074980  0.26033951  0.00000000  1
  Pd  Pd4  1  0.00022981  0.73930794  0.50000000  1
  Pd  Pd5  1  0.50074980  0.73966049  0.00000000  1
  Pd  Pd6  1  0.50074980  0.00000000  0.26033951  1
  Pd  Pd7  1  0.25958701  0.00000000  0.50000000  1
  Pd  Pd8  1  0.50074980  0.00000000  0.73966049  1
  Pd  Pd9  1  0.73853780  0.00000000  0.50000000  1
  Pd  Pd10  1  0.00022981  0.50000000  0.26069206  1
  Pd  Pd11  1  0.00022981  0.50000000  0.73930794  1
  Pd  Pd12  1  0.25295310  0.50000000  0.50000000  1
  Pd  Pd13  1  0.74685329  0.50000000  0.50000000  1
  Pd  Pd14  1  0.49930865  0.25291931  0.50000000  1
  Pd  Pd15  1  0.49930865  0.74708069  0.50000000  1
  Pd  Pd16  1  0.49930865  0.50000000  0.25291931  1
  Pd  Pd17  1  0.49930865  0.50000000  0.74708069  1
  Pd  Pd18  1  0.71478762  0.00000000  0.00000000  1
  Pd  Pd19  1  0.99807265  0.29132824  0.00000000  1
  Pd  Pd20  1  0.99807265  0.70867176  0.00000000  1
  Pd  Pd21  1  0.99807265  0.00000000  0.29132824  1
  Pd  Pd22  1  0.99807265  0.00000000  0.70867176  1
  Pt  Pt0  1  0.29363823  0.00000000  0.00000000  1
loop_
_geom_bond_atom_site_label_1
_geom_bond_atom_site_label_2
_geom_bond_distance
_geom_bond_site_symmetry_2
Al0 Pt0 2.393529 1_555
Al0 Pd18 2.414034 1_455
Al0 Pd19 2.416427 1_455
Al0 Pd21 2.416427 1_455
Al0 Pd20 2.416427 1_445
Al0 Pd22 2.416427 1_454
Pd0 Pd5 2.821500 1_555
Pd0 Pd3 2.821500 1_555
Pd0 Y4 2.932442 1_554
Pd0 Y6 2.932442 1_554
Pd0 Y0 2.932442 1_555
Pd0 Y5 2.932442 1_555
Pd1 Pd5 2.801672 1_555
Pd1 Pd3 2.801672 1_555
Pd1 Y2 2.932783 1_555
Pd1 Y1 2.932783 1_554
Pd1 Y7 2.932783 1_555
Pd1 Y3 2.932783 1_554
Pd2 Y3 2.934390 1_455
Pd2 Y7 2.934390 1_455
Pd2 Y0 2.936928 1_555
Pd2 Y4 2.936928 1_555
Pd3 Pt0 2.760224 1_555
Pd3 Y7 2.932387 1_555
Pd3 Y3 2.932387 1_554
Pd3 Y4 2.936403 1_554
Pd3 Y0 2.936403 1_555
Pd3 Pd6 3.052858 1_555
Pd3 Pd8 3.052858 1_554
Pd4 Y1 2.934390 1_455
Pd4 Y2 2.934390 1_455
Pd4 Y5 2.936928 1_555
Pd4 Y6 2.936928 1_555
Pd5 Pt0 2.760224 1_565
Pd5 Y2 2.932387 1_555
Pd5 Y1 2.932387 1_554
Pd5 Y6 2.936403 1_554
Pd5 Y5 2.936403 1_555
Pd5 Pd6 3.052858 1_565
Pd5 Pd8 3.052858 1_564
Pd6 Pt0 2.760224 1_555
Pd6 Pd9 2.801672 1_555
Pd6 Pd7 2.821500 1_555
Pd6 Y7 2.932387 1_555
Pd6 Y2 2.932387 1_545
Pd6 Y5 2.936403 1_545
Pd6 Y0 2.936403 1_555
Pd7 Pd8 2.821500 1_555
Pd7 Y5 2.932442 1_545
Pd7 Y6 2.932442 1_545
Pd7 Y0 2.932442 1_555
Pd7 Y4 2.932442 1_555
Pd8 Pt0 2.760224 1_556
Pd8 Pd9 2.801672 1_555
Pd8 Y3 2.932387 1_555
Pd8 Y1 2.932387 1_545
Pd8 Y6 2.936403 1_545
Pd8 Y4 2.936403 1_555
Pd9 Y3 2.932783 1_555
Pd9 Y7 2.932783 1_555
Pd9 Y1 2.932783 1_545
Pd9 Y2 2.932783 1_545
Pd10 Y2 2.934390 1_455
Pd10 Y7 2.934390 1_455
Pd10 Y0 2.936928 1_555
Pd10 Y5 2.936928 1_555
Pd11 Y1 2.934390 1_455
Pd11 Y3 2.934390 1_455
Pd11 Y4 2.936928 1_555
Pd11 Y6 2.936928 1_555
Pd12 Y0 2.923161 1_555
Pd12 Y4 2.923161 1_555
Pd12 Y5 2.923161 1_555
Pd12 Y6 2.923161 1_555
Pd13 Y1 2.903224 1_555
Pd13 Y3 2.903224 1_555
Pd13 Y2 2.903224 1_555
Pd13 Y7 2.903224 1_555
Pd14 Pd8 2.889177 1_555
Pd14 Pd6 2.889177 1_555
Pd14 Y3 2.911590 1_555
Pd14 Y7 2.911590 1_555
Pd14 Y0 2.918428 1_555
Pd14 Y4 2.918428 1_555
Pd15 Pd8 2.889177 1_565
Pd15 Pd6 2.889177 1_565
Pd15 Y1 2.911590 1_555
Pd15 Y2 2.911590 1_555
Pd15 Y5 2.918428 1_555
Pd15 Y6 2.918428 1_555
Pd16 Pd5 2.889177 1_555
Pd16 Pd3 2.889177 1_555
Pd16 Y2 2.911590 1_555
Pd16 Y7 2.911590 1_555
Pd16 Y0 2.918428 1_555
Pd16 Y5 2.918428 1_555
Pd17 Pd5 2.889177 1_556
Pd17 Pd3 2.889177 1_556
Pd17 Y1 2.911590 1_555
Pd17 Y3 2.911590 1_555
Pd17 Y4 2.918428 1_555
Pd17 Y6 2.918428 1_555
Pd18 Pd3 2.796435 1_555
Pd18 Pd6 2.796435 1_555
Pd18 Pd5 2.796435 1_545
Pd18 Pd8 2.796435 1_554
Pd18 Y7 2.972768 1_555
Pd18 Y3 2.972768 1_554
Pd18 Y2 2.972768 1_545
Pd18 Y1 2.972768 1_544
Pd19 Y7 2.966779 1_555
Pd19 Y3 2.966779 1_554
Pd19 Y4 2.976045 1_654
Pd19 Y0 2.976045 1_655
Pd20 Y2 2.966779 1_555
Pd20 Y1 2.966779 1_554
Pd20 Y6 2.976045 1_654
Pd20 Y5 2.976045 1_655
Pd21 Y7 2.966779 1_555
Pd21 Y2 2.966779 1_545
Pd21 Y5 2.976045 1_645
Pd21 Y0 2.976045 1_655
Pd22 Y3 2.966779 1_555
Pd22 Y1 2.966779 1_545
Pd22 Y6 2.976045 1_645
Pd22 Y4 2.976045 1_655
Pt0 Y6 2.961102 1_544
Pt0 Y5 2.961102 1_545
Pt0 Y4 2.961102 1_554
Pt0 Y0 2.961102 1_555
