# generated using pymatgen
data_K2Zr(AuS2)2
_symmetry_space_group_name_H-M   'P 1'
_cell_length_a   7.71671116
_cell_length_b   8.31015822
_cell_length_c   8.72182442
_cell_angle_alpha   73.26460293
_cell_angle_beta   84.34018318
_cell_angle_gamma   67.23789899
_symmetry_Int_Tables_number   1
_chemical_formula_structural   K2Zr(AuS2)2
_chemical_formula_sum   'K4 Zr2 Au4 S8'
_cell_volume   493.84979481
_cell_formula_units_Z   2
loop_
 _symmetry_equiv_pos_site_id
 _symmetry_equiv_pos_as_xyz
  1  'x, y, z'
loop_
 _atom_site_type_symbol
 _atom_site_label
 _atom_site_symmetry_multiplicity
 _atom_site_fract_x
 _atom_site_fract_y
 _atom_site_fract_z
 _atom_site_occupancy
  K  K0  1  0.77832352  0.81308343  0.41717623  1
  K  K1  1  0.22167648  0.18691657  0.58282377  1
  K  K2  1  0.04741270  0.25294772  0.08096989  1
  K  K3  1  0.95258730  0.74705228  0.91903011  1
  Zr  Zr0  1  0.61283573  0.30069472  0.80164788  1
  Zr  Zr1  1  0.38716427  0.69930528  0.19835212  1
  Au  Au0  1  0.51626576  0.69589633  0.84495636  1
  Au  Au1  1  0.29905382  0.66105788  0.56958154  1
  Au  Au2  1  0.48373424  0.30410367  0.15504364  1
  Au  Au3  1  0.70094618  0.33894212  0.43041846  1
  S  S0  1  0.72927343  0.56870187  0.21669831  1
  S  S1  1  0.71016730  0.08773321  0.63636464  1
  S  S2  1  0.26786070  0.90961093  0.93767319  1
  S  S3  1  0.21682933  0.49403816  0.25435892  1
  S  S4  1  0.27072657  0.43129813  0.78330169  1
  S  S5  1  0.73213930  0.09038907  0.06232681  1
  S  S6  1  0.28983270  0.91226679  0.36363536  1
  S  S7  1  0.78317067  0.50596184  0.74564108  1
loop_
_geom_bond_atom_site_label_1
_geom_bond_atom_site_label_2
_geom_bond_distance
_geom_bond_site_symmetry_2
K0 S0 3.177324 1_555
K0 S7 3.234018 1_555
K0 S5 3.238943 1_565
K0 S1 3.244411 1_565
K0 S6 3.581648 1_555
K1 S4 3.177324 1_555
K1 S3 3.234018 1_555
K1 S2 3.238943 1_545
K1 S6 3.244411 1_545
K1 S1 3.581648 1_555
K2 S6 3.222496 1_545
K2 S2 3.236511 1_544
K2 S5 3.243132 1_455
K2 S0 3.247226 1_455
K2 S4 3.283970 1_554
K2 S7 3.383741 1_454
K2 S3 3.488806 1_555
K3 S1 3.222496 1_565
K3 S5 3.236511 1_566
K3 S2 3.243132 1_655
K3 S4 3.247226 1_655
K3 S0 3.283970 1_556
K3 S3 3.383741 1_656
K3 S7 3.488806 1_555
Au0 S2 2.317224 1_555
Au0 S7 2.324565 1_555
Au0 Au1 3.198727 1_555
Au0 K3 3.691802 1_555
Au1 S6 2.310900 1_555
Au1 S4 2.315358 1_555
Au1 Zr1 3.191706 1_555
Au1 Zr0 3.285223 1_555
Au1 K3 3.888011 1_455
Au1 K0 3.958286 1_455
Au2 S5 2.317224 1_555
Au2 S3 2.324565 1_555
Au2 Au3 3.198727 1_555
Au2 K2 3.691802 1_555
Au3 S1 2.310900 1_555
Au3 S0 2.315358 1_555
Au3 Zr0 3.191706 1_555
Au3 Zr1 3.285223 1_555
Au3 K2 3.888011 1_655
Au3 K1 3.958286 1_655
S0 Zr1 2.437023 1_555
S1 Zr0 2.449769 1_555
S2 Zr1 2.439391 1_556
S3 Zr1 2.450423 1_555
S4 Zr0 2.437023 1_555
S5 Zr0 2.439391 1_554
S6 Zr1 2.449769 1_555
S7 Zr0 2.450423 1_555
