# generated using pymatgen
data_Cs4NbInCl12
_symmetry_space_group_name_H-M   'P 1'
_cell_length_a   7.41495668
_cell_length_b   7.41495668
_cell_length_c   10.47469467
_cell_angle_alpha   90.00000000
_cell_angle_beta   90.00000000
_cell_angle_gamma   90.00000000
_symmetry_Int_Tables_number   1
_chemical_formula_structural   Cs4NbInCl12
_chemical_formula_sum   'Cs4 Nb1 In1 Cl12'
_cell_volume   575.91528953
_cell_formula_units_Z   1
loop_
 _symmetry_equiv_pos_site_id
 _symmetry_equiv_pos_as_xyz
  1  'x, y, z'
loop_
 _atom_site_type_symbol
 _atom_site_label
 _atom_site_symmetry_multiplicity
 _atom_site_fract_x
 _atom_site_fract_y
 _atom_site_fract_z
 _atom_site_occupancy
  Cs  Cs0  1  0.50000000  0.00000000  0.77392806  1
  Cs  Cs1  1  0.00000000  0.50000000  0.22607194  1
  Cs  Cs2  1  0.50000000  0.00000000  0.22607194  1
  Cs  Cs3  1  0.00000000  0.50000000  0.77392806  1
  Nb  Nb0  1  0.50000000  0.50000000  0.50000000  1
  In  In0  1  0.00000000  0.00000000  0.00000000  1
  Cl  Cl0  1  0.00000000  0.00000000  0.75657997  1
  Cl  Cl1  1  0.50000000  0.50000000  0.27259579  1
  Cl  Cl2  1  0.72700508  0.72700508  0.50000000  1
  Cl  Cl3  1  0.24164405  0.24164405  0.00000000  1
  Cl  Cl4  1  0.72700508  0.27299492  0.50000000  1
  Cl  Cl5  1  0.24164405  0.75835595  0.00000000  1
  Cl  Cl6  1  0.00000000  0.00000000  0.24342003  1
  Cl  Cl7  1  0.50000000  0.50000000  0.72740421  1
  Cl  Cl8  1  0.27299492  0.27299492  0.50000000  1
  Cl  Cl9  1  0.75835595  0.75835595  0.00000000  1
  Cl  Cl10  1  0.27299492  0.72700508  0.50000000  1
  Cl  Cl11  1  0.75835595  0.24164405  0.00000000  1
loop_
_geom_bond_atom_site_label_1
_geom_bond_atom_site_label_2
_geom_bond_distance
_geom_bond_site_symmetry_2
Cl0 In0 2.549751 1_556
Cl0 Cs0 3.711929 1_455
Cl0 Cs3 3.711929 1_545
Cl0 Cs3 3.711929 1_555
Cl0 Cs0 3.711929 1_555
Cl1 Nb0 2.381990 1_555
Cl1 Cs1 3.739369 1_655
Cl1 Cs2 3.739369 1_555
Cl1 Cs1 3.739369 1_555
Cl1 Cs2 3.739369 1_565
Cl2 Nb0 2.380451 1_555
Cl2 Cs3 3.894072 1_655
Cl2 Cs0 3.894072 1_565
Cl2 Cs2 3.894072 1_565
Cl2 Cs1 3.894072 1_655
Cl3 In0 2.533960 1_555
Cl3 Cs1 3.533831 1_555
Cl3 Cs2 3.533831 1_555
Cl3 Cs3 3.533831 1_554
Cl3 Cs0 3.533831 1_554
Cl4 Nb0 2.380451 1_555
Cl4 Cs0 3.894072 1_555
Cl4 Cs3 3.894072 1_655
Cl4 Cs2 3.894072 1_555
Cl4 Cs1 3.894072 1_655
Cl5 In0 2.533960 1_565
Cl5 Cs1 3.533831 1_555
Cl5 Cs3 3.533831 1_554
Cl5 Cs2 3.533831 1_565
Cl5 Cs0 3.533831 1_564
Cl6 In0 2.549751 1_555
Cl6 Cs1 3.711929 1_555
Cl6 Cs1 3.711929 1_545
Cl6 Cs2 3.711929 1_455
Cl6 Cs2 3.711929 1_555
Cl7 Nb0 2.381990 1_555
Cl7 Cs0 3.739369 1_565
Cl7 Cs3 3.739369 1_555
Cl7 Cs0 3.739369 1_555
Cl7 Cs3 3.739369 1_655
Cl8 Nb0 2.380451 1_555
Cl8 Cs3 3.894072 1_555
Cl8 Cs0 3.894072 1_555
Cl8 Cs1 3.894072 1_555
Cl8 Cs2 3.894072 1_555
Cl9 In0 2.533960 1_665
Cl9 Cs2 3.533831 1_565
Cl9 Cs1 3.533831 1_655
Cl9 Cs0 3.533831 1_564
Cl9 Cs3 3.533831 1_654
Cl10 Nb0 2.380451 1_555
Cl10 Cs3 3.894072 1_555
Cl10 Cs0 3.894072 1_565
Cl10 Cs1 3.894072 1_555
Cl10 Cs2 3.894072 1_565
Cl11 In0 2.533960 1_655
Cl11 Cs2 3.533831 1_555
Cl11 Cs0 3.533831 1_554
Cl11 Cs1 3.533831 1_655
Cl11 Cs3 3.533831 1_654
