# generated using pymatgen
data_Na4TaInO6
_symmetry_space_group_name_H-M   'P 1'
_cell_length_a   5.55890667
_cell_length_b   5.55890757
_cell_length_c   5.71914837
_cell_angle_alpha   99.62194360
_cell_angle_beta   99.62195074
_cell_angle_gamma   119.81423134
_symmetry_Int_Tables_number   1
_chemical_formula_structural   Na4TaInO6
_chemical_formula_sum   'Na4 Ta1 In1 O6'
_cell_volume   144.56747724
_cell_formula_units_Z   1
loop_
 _symmetry_equiv_pos_site_id
 _symmetry_equiv_pos_as_xyz
  1  'x, y, z'
loop_
 _atom_site_type_symbol
 _atom_site_label
 _atom_site_symmetry_multiplicity
 _atom_site_fract_x
 _atom_site_fract_y
 _atom_site_fract_z
 _atom_site_occupancy
  Na  Na0  1  0.50017834  0.49982066  0.00000000  1
  Na  Na1  1  0.99943810  0.00056190  0.50000000  1
  Na  Na2  1  0.65923491  0.34076509  0.50000000  1
  Na  Na3  1  0.34146866  0.65853134  0.50000000  1
  Ta  Ta0  1  0.16778494  0.83221506  1.00000000  1
  In  In0  1  0.83304895  0.16695105  1.00000000  1
  O  O0  1  0.95241272  0.59614565  0.21029699  1
  O  O1  1  0.54776531  0.92793808  0.21404430  1
  O  O2  1  0.21548569  0.19273290  0.21415335  1
  O  O3  1  0.80726810  0.78451531  0.78584565  1
  O  O4  1  0.07206292  0.45223569  0.78595570  1
  O  O5  1  0.40385635  0.04758928  0.78970401  1
loop_
_geom_bond_atom_site_label_1
_geom_bond_atom_site_label_2
_geom_bond_distance
_geom_bond_site_symmetry_2
Na0 O5 2.342747 1_554
Na0 O0 2.342756 1_555
Na0 O4 2.350339 1_554
Na0 O1 2.350344 1_555
Na0 O2 2.362039 1_555
Na0 O3 2.362053 1_554
Na1 O3 2.284835 1_545
Na1 O2 2.284845 1_655
Na1 O0 2.427587 1_545
Na1 O5 2.427592 1_655
Na1 O1 2.557422 1_545
Na1 O4 2.557424 1_655
Na2 O1 2.305987 1_545
Na2 O4 2.305988 1_655
Na2 O2 2.370306 1_555
Na2 O3 2.370307 1_555
Na2 O5 2.608625 1_555
Na2 O0 2.608629 1_555
Na3 O0 2.325306 1_455
Na3 O5 2.325313 1_565
Na3 O4 2.443454 1_555
Na3 O1 2.443458 1_555
Na3 O3 2.503331 1_555
Na3 O2 2.503332 1_555
In0 O5 2.186056 1_555
In0 O0 2.186064 1_556
In0 O2 2.192741 1_656
In0 O3 2.192742 1_545
In0 O1 2.208235 1_546
In0 O4 2.208240 1_655
O0 Ta0 2.012138 1_654
O1 Ta0 2.010869 1_554
O2 Ta0 2.032046 1_544
O3 Ta0 2.032046 1_655
O4 Ta0 2.010867 1_555
O5 Ta0 2.012143 1_545
