# generated using pymatgen
data_Hf8MnNi2Pt
_symmetry_space_group_name_H-M   'P 1'
_cell_length_a   8.58720764
_cell_length_b   8.58720676
_cell_length_c   8.54753136
_cell_angle_alpha   60.15273220
_cell_angle_beta   60.15273559
_cell_angle_gamma   60.13970572
_symmetry_Int_Tables_number   1
_chemical_formula_structural   Hf8MnNi2Pt
_chemical_formula_sum   'Hf16 Mn2 Ni4 Pt2'
_cell_volume   447.18465610
_cell_formula_units_Z   2
loop_
 _symmetry_equiv_pos_site_id
 _symmetry_equiv_pos_as_xyz
  1  'x, y, z'
loop_
 _atom_site_type_symbol
 _atom_site_label
 _atom_site_symmetry_multiplicity
 _atom_site_fract_x
 _atom_site_fract_y
 _atom_site_fract_z
 _atom_site_occupancy
  Hf  Hf0  1  0.66965701  0.11122896  0.10955652  1
  Hf  Hf1  1  0.11122896  0.66965701  0.10955652  1
  Hf  Hf2  1  0.10553450  0.10553450  0.68120953  1
  Hf  Hf3  1  0.10553450  0.10553450  0.10771947  1
  Hf  Hf4  1  0.31429155  0.31429155  0.68570845  1
  Hf  Hf5  1  0.68979931  0.68979931  0.31020069  1
  Hf  Hf6  1  0.31650741  0.69212145  0.31452831  1
  Hf  Hf7  1  0.69212145  0.31650741  0.67684283  1
  Hf  Hf8  1  0.69212145  0.31650741  0.31452831  1
  Hf  Hf9  1  0.31650741  0.69212145  0.67684283  1
  Hf  Hf10  1  0.95367720  0.95367720  0.54632280  1
  Hf  Hf11  1  0.55470214  0.55470214  0.94529786  1
  Hf  Hf12  1  0.94236964  0.55577861  0.94620192  1
  Hf  Hf13  1  0.55577861  0.94236964  0.55565083  1
  Hf  Hf14  1  0.55577861  0.94236964  0.94620192  1
  Hf  Hf15  1  0.94236964  0.55577861  0.55565083  1
  Mn  Mn0  1  0.99860067  0.33045950  0.33546892  1
  Mn  Mn1  1  0.33045950  0.99860067  0.33546892  1
  Ni  Ni0  1  0.31655365  0.88945891  0.89699322  1
  Ni  Ni1  1  0.88945891  0.31655365  0.89699322  1
  Ni  Ni2  1  0.89338843  0.89338843  0.31261385  1
  Ni  Ni3  1  0.89338843  0.89338843  0.90061029  1
  Pt  Pt0  1  0.33008401  0.33008401  0.99766437  1
  Pt  Pt1  1  0.33008401  0.33008401  0.34216562  1
loop_
_geom_bond_atom_site_label_1
_geom_bond_atom_site_label_2
_geom_bond_distance
_geom_bond_site_symmetry_2
Hf0 Ni1 2.585371 1_554
Hf0 Ni3 2.590647 1_544
Hf0 Ni2 2.590659 1_545
Hf0 Pt1 2.911951 1_555
Hf0 Pt0 2.911956 1_554
Hf0 Mn1 2.914795 1_545
Hf0 Hf7 3.156448 1_554
Hf0 Hf8 3.156455 1_555
Hf1 Ni0 2.585371 1_554
Hf1 Ni3 2.590647 1_454
Hf1 Ni2 2.590659 1_455
Hf1 Pt1 2.911951 1_555
Hf1 Pt0 2.911955 1_554
Hf1 Mn0 2.914794 1_455
Hf1 Hf9 3.156448 1_554
Hf1 Hf6 3.156455 1_555
Hf2 Ni3 2.580292 1_445
Hf2 Ni0 2.588536 1_545
Hf2 Ni1 2.588536 1_455
Hf2 Pt1 2.900454 1_555
Hf2 Mn0 2.925856 1_455
Hf2 Mn1 2.925856 1_545
Hf2 Hf9 3.089776 1_545
Hf2 Hf7 3.089776 1_455
Hf3 Ni2 2.580292 1_445
Hf3 Ni0 2.588530 1_544
Hf3 Ni1 2.588530 1_454
Hf3 Pt0 2.900454 1_554
Hf3 Mn0 2.925856 1_455
Hf3 Mn1 2.925856 1_545
Hf3 Hf6 3.089781 1_545
Hf3 Hf8 3.089781 1_455
Hf4 Pt0 2.808013 1_555
Hf4 Pt1 2.808030 1_555
Hf4 Hf9 3.216865 1_555
Hf4 Hf7 3.216865 1_555
Hf4 Hf6 3.216865 1_555
Hf4 Hf8 3.216866 1_555
Hf5 Mn0 2.891162 1_555
Hf5 Mn1 2.891162 1_555
Hf5 Ni3 3.037850 1_554
Hf5 Ni2 3.037854 1_555
Hf5 Hf8 3.177464 1_555
Hf5 Hf6 3.177464 1_555
Hf5 Hf7 3.177464 1_555
Hf5 Hf9 3.177465 1_555
Hf6 Mn1 2.788724 1_555
Hf6 Pt1 2.944498 1_555
Hf6 Ni0 3.096455 1_554
Hf6 Hf9 3.096895 1_555
Hf6 Ni2 3.157040 1_455
Hf6 Hf8 3.232284 1_555
Hf7 Mn0 2.788735 1_555
Hf7 Pt0 2.944492 1_555
Hf7 Ni1 3.096447 1_555
Hf7 Hf8 3.096895 1_555
Hf7 Ni3 3.157043 1_545
Hf7 Hf9 3.232284 1_555
Hf8 Mn0 2.788725 1_555
Hf8 Pt1 2.944499 1_555
Hf8 Ni1 3.096455 1_554
Hf8 Ni2 3.157040 1_545
Hf9 Mn1 2.788734 1_555
Hf9 Pt0 2.944491 1_555
Hf9 Ni0 3.096447 1_555
Hf9 Ni3 3.157043 1_455
Hf10 Ni2 2.617696 1_555
Hf10 Ni3 2.617704 1_555
Hf10 Mn0 2.934625 1_565
Hf10 Mn1 2.934625 1_655
Hf10 Hf7 3.161362 1_565
Hf10 Hf8 3.161362 1_565
Hf10 Hf9 3.161362 1_655
Hf10 Hf6 3.161362 1_655
Hf11 Ni0 2.534028 1_555
Hf11 Ni1 2.534028 1_555
Hf11 Pt1 3.102764 1_556
Hf11 Pt0 3.102771 1_555
Hf11 Hf7 3.227174 1_555
Hf11 Hf9 3.227174 1_555
Hf11 Hf8 3.227174 1_556
Hf11 Hf6 3.227174 1_556
Hf12 Ni3 2.560869 1_555
Hf12 Ni1 2.565757 1_555
Hf12 Pt0 3.036161 1_655
Hf12 Mn0 3.050967 1_556
Hf12 Hf8 3.158319 1_556
Hf12 Hf9 3.270074 1_655
Hf13 Ni2 2.560869 1_555
Hf13 Ni0 2.565747 1_555
Hf13 Pt1 3.036171 1_565
Hf13 Mn1 3.050989 1_555
Hf13 Hf9 3.158321 1_555
Hf13 Hf8 3.270073 1_565
Hf14 Ni3 2.560869 1_555
Hf14 Ni0 2.565757 1_555
Hf14 Pt0 3.036161 1_565
Hf14 Mn1 3.050967 1_556
Hf14 Hf6 3.158319 1_556
Hf14 Hf7 3.270073 1_565
Hf15 Ni2 2.560869 1_555
Hf15 Ni1 2.565746 1_555
Hf15 Pt1 3.036171 1_655
Hf15 Mn0 3.050988 1_555
Hf15 Hf7 3.158321 1_555
Hf15 Hf6 3.270073 1_655
Mn0 Mn1 2.855756 1_645
Mn0 Pt1 2.873813 1_655
Mn0 Pt0 2.873813 1_654
Mn1 Pt1 2.873813 1_565
Mn1 Pt0 2.873813 1_564
