# generated using pymatgen
data_KMgH6Rh
_symmetry_space_group_name_H-M   'P 1'
_cell_length_a   7.25582968
_cell_length_b   7.25582968
_cell_length_c   7.25582968
_cell_angle_alpha   90.00000000
_cell_angle_beta   90.00000000
_cell_angle_gamma   90.00000000
_symmetry_Int_Tables_number   1
_chemical_formula_structural   KMgH6Rh
_chemical_formula_sum   'K4 Mg4 H24 Rh4'
_cell_volume   381.99813259
_cell_formula_units_Z   4
loop_
 _symmetry_equiv_pos_site_id
 _symmetry_equiv_pos_as_xyz
  1  'x, y, z'
loop_
 _atom_site_type_symbol
 _atom_site_label
 _atom_site_symmetry_multiplicity
 _atom_site_fract_x
 _atom_site_fract_y
 _atom_site_fract_z
 _atom_site_occupancy
  K  K0  1  0.00000000  0.00000000  0.50000000  1
  K  K1  1  0.00000000  0.50000000  0.00000000  1
  K  K2  1  0.50000000  0.00000000  0.00000000  1
  K  K3  1  0.00000000  0.00000000  0.00000000  1
  Mg  Mg0  1  0.50000000  0.50000000  0.50000000  1
  Mg  Mg1  1  0.00000000  0.50000000  0.50000000  1
  Mg  Mg2  1  0.50000000  0.00000000  0.50000000  1
  Mg  Mg3  1  0.50000000  0.50000000  0.00000000  1
  H  H0  1  0.72421173  0.72421173  0.50488378  1
  H  H1  1  0.27578827  0.27578827  0.50488378  1
  H  H2  1  0.05025059  0.71341362  0.71341362  1
  H  H3  1  0.28658638  0.94974941  0.71341362  1
  H  H4  1  0.71341362  0.05025059  0.71341362  1
  H  H5  1  0.94974941  0.28658638  0.71341362  1
  H  H6  1  0.72421173  0.50488378  0.72421173  1
  H  H7  1  0.50488378  0.72421173  0.72421173  1
  H  H8  1  0.49511622  0.27578827  0.72421173  1
  H  H9  1  0.27578827  0.49511622  0.72421173  1
  H  H10  1  0.28658638  0.71341362  0.94974941  1
  H  H11  1  0.71341362  0.28658638  0.94974941  1
  H  H12  1  0.71341362  0.71341362  0.05025059  1
  H  H13  1  0.28658638  0.28658638  0.05025059  1
  H  H14  1  0.27578827  0.50488378  0.27578827  1
  H  H15  1  0.49511622  0.72421173  0.27578827  1
  H  H16  1  0.50488378  0.27578827  0.27578827  1
  H  H17  1  0.72421173  0.49511622  0.27578827  1
  H  H18  1  0.94974941  0.71341362  0.28658638  1
  H  H19  1  0.71341362  0.94974941  0.28658638  1
  H  H20  1  0.28658638  0.05025059  0.28658638  1
  H  H21  1  0.05025059  0.28658638  0.28658638  1
  H  H22  1  0.27578827  0.72421173  0.49511622  1
  H  H23  1  0.72421173  0.27578827  0.49511622  1
  Rh  Rh0  1  0.28197495  0.71802505  0.71802505  1
  Rh  Rh1  1  0.71802505  0.28197495  0.71802505  1
  Rh  Rh2  1  0.71802505  0.71802505  0.28197495  1
  Rh  Rh3  1  0.28197495  0.28197495  0.28197495  1
loop_
_geom_bond_atom_site_label_1
_geom_bond_atom_site_label_2
_geom_bond_distance
_geom_bond_site_symmetry_2
H0 Rh2 1.618634 1_555
H0 Mg0 2.300975 1_555
H0 K0 2.830166 1_665
H1 Rh3 1.618634 1_555
H1 Mg0 2.300975 1_555
H1 K0 2.830166 1_555
H2 Rh0 1.682018 1_555
H2 Mg1 2.220045 1_555
H2 K0 2.618161 1_565
H2 K1 2.618161 1_556
H2 K3 2.963264 1_566
H3 Rh0 1.682018 1_555
H3 Mg2 2.220045 1_565
H3 K0 2.618161 1_565
H3 K2 2.618161 1_566
H3 K3 2.963264 1_566
H4 Rh1 1.682018 1_555
H4 Mg2 2.220045 1_555
H4 K0 2.618161 1_655
H4 K2 2.618161 1_556
H4 K3 2.963264 1_656
H5 Rh1 1.682018 1_555
H5 Mg1 2.220045 1_655
H5 K0 2.618161 1_655
H5 K1 2.618161 1_656
H5 K3 2.963264 1_656
H6 Rh1 1.618634 1_555
H6 Mg0 2.300975 1_555
H6 K1 2.830166 1_656
H7 Rh0 1.618634 1_555
H7 Mg0 2.300975 1_555
H7 K2 2.830166 1_566
H8 Rh1 1.618634 1_555
H8 Mg0 2.300975 1_555
H8 K2 2.830166 1_556
H9 Rh0 1.618634 1_555
H9 Mg0 2.300975 1_555
H9 K1 2.830166 1_556
H10 Rh0 1.682018 1_555
H10 Mg3 2.220045 1_556
H10 K1 2.618161 1_556
H10 K2 2.618161 1_566
H10 K3 2.963264 1_566
H11 Rh1 1.682018 1_555
H11 Mg3 2.220045 1_556
H11 K2 2.618161 1_556
H11 K1 2.618161 1_656
H11 K3 2.963264 1_656
H12 Rh2 1.682018 1_555
H12 Mg3 2.220045 1_555
H12 K2 2.618161 1_565
H12 K1 2.618161 1_655
H12 K3 2.963264 1_665
H13 Rh3 1.682018 1_555
H13 Mg3 2.220045 1_555
H13 K2 2.618161 1_555
H13 K1 2.618161 1_555
H13 K3 2.963264 1_555
H14 Rh3 1.618634 1_555
H14 Mg0 2.300975 1_555
H14 K1 2.830166 1_555
H15 Rh2 1.618634 1_555
H15 Mg0 2.300975 1_555
H15 K2 2.830166 1_565
H16 Rh3 1.618634 1_555
H16 Mg0 2.300975 1_555
H16 K2 2.830166 1_555
H17 Rh2 1.618634 1_555
H17 Mg0 2.300975 1_555
H17 K1 2.830166 1_655
H18 Rh2 1.682018 1_555
H18 Mg1 2.220045 1_655
H18 K1 2.618161 1_655
H18 K0 2.618161 1_665
H18 K3 2.963264 1_665
H19 Rh2 1.682018 1_555
H19 Mg2 2.220045 1_565
H19 K2 2.618161 1_565
H19 K0 2.618161 1_665
H19 K3 2.963264 1_665
H20 Rh3 1.682018 1_555
H20 Mg2 2.220045 1_555
H20 K2 2.618161 1_555
H20 K0 2.618161 1_555
H20 K3 2.963264 1_555
H21 Rh3 1.682018 1_555
H21 Mg1 2.220045 1_555
H21 K0 2.618161 1_555
H21 K1 2.618161 1_555
H21 K3 2.963264 1_555
H22 Rh0 1.618634 1_555
H22 Mg0 2.300975 1_555
H22 K0 2.830166 1_565
H23 Rh1 1.618634 1_555
H23 Mg0 2.300975 1_555
H23 K0 2.830166 1_655
