# generated using pymatgen
data_Y20In6TcNi
_symmetry_space_group_name_H-M   'P 1'
_cell_length_a   9.83835422
_cell_length_b   9.83833712
_cell_length_c   9.64644851
_cell_angle_alpha   90.00000000
_cell_angle_beta   90.00000000
_cell_angle_gamma   120.00010953
_symmetry_Int_Tables_number   1
_chemical_formula_structural   Y20In6TcNi
_chemical_formula_sum   'Y20 In6 Tc1 Ni1'
_cell_volume   808.61493280
_cell_formula_units_Z   1
loop_
 _symmetry_equiv_pos_site_id
 _symmetry_equiv_pos_as_xyz
  1  'x, y, z'
loop_
 _atom_site_type_symbol
 _atom_site_label
 _atom_site_symmetry_multiplicity
 _atom_site_fract_x
 _atom_site_fract_y
 _atom_site_fract_z
 _atom_site_occupancy
  Y  Y0  1  0.00000000  0.00000000  0.50142681  1
  Y  Y1  1  0.00000000  0.00000000  0.99857319  1
  Y  Y2  1  0.53888774  0.46111326  0.25000000  1
  Y  Y3  1  0.53888774  0.07777348  0.25000000  1
  Y  Y4  1  0.92222652  0.46111226  0.25000000  1
  Y  Y5  1  0.45637220  0.54362680  0.75000000  1
  Y  Y6  1  0.45637220  0.91274640  0.75000000  1
  Y  Y7  1  0.08725360  0.54362780  0.75000000  1
  Y  Y8  1  0.21042527  0.78957473  0.43929266  1
  Y  Y9  1  0.21042627  0.42085154  0.43929266  1
  Y  Y10  1  0.57914946  0.78957473  0.43929266  1
  Y  Y11  1  0.78905879  0.21094121  0.56453030  1
  Y  Y12  1  0.78905779  0.57811658  0.56453030  1
  Y  Y13  1  0.42188242  0.21094121  0.56453030  1
  Y  Y14  1  0.78905879  0.21094121  0.93546970  1
  Y  Y15  1  0.78905779  0.57811658  0.93546970  1
  Y  Y16  1  0.42188242  0.21094121  0.93546970  1
  Y  Y17  1  0.21042527  0.78957473  0.06070734  1
  Y  Y18  1  0.21042627  0.42085154  0.06070734  1
  Y  Y19  1  0.57914946  0.78957473  0.06070734  1
  In  In0  1  0.88110840  0.11889160  0.25000000  1
  In  In1  1  0.88110840  0.76221780  0.25000000  1
  In  In2  1  0.23778320  0.11889160  0.25000000  1
  In  In3  1  0.11999371  0.88000629  0.75000000  1
  In  In4  1  0.11999371  0.23998843  0.75000000  1
  In  In5  1  0.76001057  0.88000629  0.75000000  1
  Tc  Tc0  1  0.33333300  0.66666700  0.25000000  1
  Ni  Ni0  1  0.66666700  0.33333300  0.75000000  1
loop_
_geom_bond_atom_site_label_1
_geom_bond_atom_site_label_2
_geom_bond_distance
_geom_bond_site_symmetry_2
In0 Y0 3.160225 1_655
In0 Y1 3.160225 1_654
In0 Y4 3.183947 1_555
In0 Y3 3.183953 1_555
In0 Y11 3.415580 1_555
In0 Y14 3.415580 1_554
In0 Y10 3.609960 1_545
In0 Y19 3.609960 1_545
In0 Y9 3.609969 1_655
In0 Y18 3.609969 1_655
In1 Y0 3.160216 1_665
In1 Y1 3.160216 1_664
In1 Y2 3.183954 1_555
In1 Y4 3.183978 1_555
In1 Y12 3.415586 1_555
In1 Y15 3.415586 1_554
In1 Y10 3.609962 1_555
In1 Y19 3.609962 1_555
In1 Y8 3.609971 1_655
In1 Y17 3.609971 1_655
In2 Y0 3.160224 1_555
In2 Y1 3.160224 1_554
In2 Y2 3.183959 1_555
In2 Y3 3.183973 1_555
In2 Y13 3.415580 1_555
In2 Y16 3.415580 1_554
In2 Y8 3.609962 1_545
In2 Y17 3.609962 1_545
In2 Y9 3.609967 1_555
In2 Y18 3.609967 1_555
In3 Y1 3.151302 1_565
In3 Y0 3.151302 1_565
In3 Y7 3.160684 1_555
In3 Y6 3.160690 1_555
In3 Y17 3.370167 1_556
In3 Y8 3.370167 1_555
In3 Y16 3.598993 1_565
In3 Y13 3.598993 1_565
In3 Y15 3.599002 1_455
In3 Y12 3.599002 1_455
In4 Y1 3.151304 1_555
In4 Y0 3.151304 1_555
In4 Y5 3.160683 1_555
In4 Y7 3.160695 1_555
In4 Y18 3.370165 1_556
In4 Y9 3.370165 1_555
In4 Y14 3.598996 1_455
In4 Y11 3.598996 1_455
In4 Y16 3.599005 1_555
In4 Y13 3.599005 1_555
In5 Y1 3.151312 1_665
In5 Y0 3.151312 1_665
In5 Y5 3.160687 1_555
In5 Y6 3.160690 1_555
In5 Y19 3.370159 1_556
In5 Y10 3.370159 1_555
In5 Y14 3.598988 1_565
In5 Y11 3.598988 1_565
In5 Y15 3.599010 1_555
In5 Y12 3.599010 1_555
Tc0 Y9 2.778637 1_555
Tc0 Y18 2.778637 1_555
Tc0 Y8 2.778641 1_555
Tc0 Y17 2.778641 1_555
Tc0 Y10 2.778646 1_555
Tc0 Y19 2.778646 1_555
Ni0 Y15 2.747864 1_555
Ni0 Y12 2.747864 1_555
Ni0 Y14 2.747868 1_555
Ni0 Y11 2.747868 1_555
Ni0 Y16 2.747873 1_555
Ni0 Y13 2.747873 1_555
