# generated using pymatgen
data_Sc22Tc5OsRh2
_symmetry_space_group_name_H-M   'P 1'
_cell_length_a   9.46656602
_cell_length_b   9.46656661
_cell_length_c   9.56694179
_cell_angle_alpha   59.64862721
_cell_angle_beta   59.64862515
_cell_angle_gamma   60.70275224
_symmetry_Int_Tables_number   1
_chemical_formula_structural   Sc22Tc5OsRh2
_chemical_formula_sum   'Sc22 Tc5 Os1 Rh2'
_cell_volume   606.10015871
_cell_formula_units_Z   1
loop_
 _symmetry_equiv_pos_site_id
 _symmetry_equiv_pos_as_xyz
  1  'x, y, z'
loop_
 _atom_site_type_symbol
 _atom_site_label
 _atom_site_symmetry_multiplicity
 _atom_site_fract_x
 _atom_site_fract_y
 _atom_site_fract_z
 _atom_site_occupancy
  Sc  Sc0  1  0.84632060  0.84632060  0.83943350  1
  Sc  Sc1  1  0.53207470  0.16056650  0.15367940  1
  Sc  Sc2  1  0.15367940  0.15367940  0.53207470  1
  Sc  Sc3  1  0.16056650  0.53207470  0.15367940  1
  Sc  Sc4  1  0.84632060  0.84632060  0.46792530  1
  Sc  Sc5  1  0.83943350  0.46792530  0.84632060  1
  Sc  Sc6  1  0.46792530  0.83943350  0.84632060  1
  Sc  Sc7  1  0.15367940  0.15367940  0.16056650  1
  Sc  Sc8  1  0.20092833  0.79907167  0.20092833  1
  Sc  Sc9  1  0.20092833  0.79907167  0.79907167  1
  Sc  Sc10  1  0.79907167  0.20092833  0.20092833  1
  Sc  Sc11  1  0.80734960  0.80734960  0.19265040  1
  Sc  Sc12  1  0.19265040  0.19265040  0.80734960  1
  Sc  Sc13  1  0.79907167  0.20092833  0.79907167  1
  Sc  Sc14  1  0.38075891  0.38075891  0.38930470  1
  Sc  Sc15  1  0.15082351  0.61069530  0.61924109  1
  Sc  Sc16  1  0.61069530  0.15082351  0.61924109  1
  Sc  Sc17  1  0.61924109  0.61924109  0.15082351  1
  Sc  Sc18  1  0.38930470  0.84917649  0.38075891  1
  Sc  Sc19  1  0.38075891  0.38075891  0.84917649  1
  Sc  Sc20  1  0.84917649  0.38930470  0.38075891  1
  Sc  Sc21  1  0.61924109  0.61924109  0.61069530  1
  Tc  Tc0  1  0.50000000  0.00000000  0.50000000  1
  Tc  Tc1  1  0.00000000  0.50000000  0.50000000  1
  Tc  Tc2  1  0.50000000  0.00000000  0.00000000  1
  Tc  Tc3  1  0.00000000  0.50000000  0.00000000  1
  Tc  Tc4  1  0.00000000  0.00000000  0.00000000  1
  Os  Os0  1  0.50000000  0.50000000  0.50000000  1
  Rh  Rh0  1  0.50000000  0.50000000  0.00000000  1
  Rh  Rh1  1  0.00000000  0.00000000  0.50000000  1
loop_
_geom_bond_atom_site_label_1
_geom_bond_atom_site_label_2
_geom_bond_distance
_geom_bond_site_symmetry_2
Sc0 Tc2 2.779492 1_566
Sc0 Tc3 2.779493 1_656
Sc1 Tc2 2.779492 1_555
Sc1 Tc0 2.779492 1_555
Sc2 Tc0 2.779492 1_555
Sc2 Tc1 2.779493 1_555
Sc3 Tc3 2.779492 1_555
Sc3 Tc1 2.779492 1_555
Sc4 Tc0 2.779492 1_565
Sc4 Tc1 2.779493 1_655
Sc5 Tc3 2.779492 1_656
Sc5 Tc1 2.779492 1_655
Sc6 Tc0 2.779492 1_565
Sc6 Tc2 2.779492 1_566
Sc7 Tc2 2.779492 1_555
Sc7 Tc3 2.779493 1_555
Sc8 Tc4 2.718500 1_565
Sc9 Tc4 2.718500 1_566
Sc10 Tc4 2.718500 1_655
Sc11 Tc4 2.551514 1_665
Sc12 Tc4 2.551514 1_556
Sc13 Tc4 2.718500 1_656
Sc14 Tc1 2.959121 1_555
Sc14 Tc0 2.959121 1_555
Sc15 Tc3 2.959121 1_556
Sc15 Tc1 2.959129 1_555
Sc16 Tc2 2.959121 1_556
Sc16 Tc0 2.959129 1_555
Sc17 Tc3 2.959121 1_655
Sc17 Tc2 2.959122 1_565
Sc18 Tc2 2.959121 1_565
Sc18 Tc0 2.959129 1_565
Sc19 Tc3 2.959121 1_556
Sc19 Tc2 2.959122 1_556
Sc20 Tc3 2.959121 1_655
Sc20 Tc1 2.959129 1_655
Sc21 Tc1 2.959121 1_655
Sc21 Tc0 2.959121 1_565
Os0 Sc19 2.707968 1_555
Os0 Sc17 2.707968 1_555
Os0 Sc15 2.707968 1_555
Os0 Sc20 2.707968 1_555
Os0 Sc18 2.707969 1_555
Os0 Sc16 2.707969 1_555
Os0 Sc14 2.707976 1_555
Os0 Sc21 2.707976 1_555
Rh0 Sc5 2.702003 1_554
Rh0 Sc3 2.702003 1_555
Rh0 Sc6 2.702003 1_554
Rh0 Sc1 2.702003 1_555
Rh0 Sc14 3.028116 1_555
Rh0 Sc21 3.028116 1_554
Rh0 Sc19 3.028124 1_554
Rh0 Sc17 3.028124 1_555
Rh1 Sc2 2.702003 1_555
Rh1 Sc4 2.702003 1_445
Rh1 Sc0 2.702003 1_445
Rh1 Sc7 2.702003 1_555
Rh1 Sc18 3.028116 1_545
Rh1 Sc16 3.028116 1_455
Rh1 Sc20 3.028116 1_455
Rh1 Sc15 3.028116 1_545
