# generated using pymatgen
data_BaInSn2Pt
_symmetry_space_group_name_H-M   'P 1'
_cell_length_a   6.66708461
_cell_length_b   6.66708454
_cell_length_c   6.66708536
_cell_angle_alpha   137.64825388
_cell_angle_beta   136.28374618
_cell_angle_gamma   62.49705992
_symmetry_Int_Tables_number   1
_chemical_formula_structural   BaInSn2Pt
_chemical_formula_sum   'Ba1 In1 Sn2 Pt1'
_cell_volume   136.29703948
_cell_formula_units_Z   1
loop_
 _symmetry_equiv_pos_site_id
 _symmetry_equiv_pos_as_xyz
  1  'x, y, z'
loop_
 _atom_site_type_symbol
 _atom_site_label
 _atom_site_symmetry_multiplicity
 _atom_site_fract_x
 _atom_site_fract_y
 _atom_site_fract_z
 _atom_site_occupancy
  Ba  Ba0  1  0.00412387  0.00412387  1.00000000  1
  In  In0  1  0.24944897  0.74944897  0.50000000  1
  Sn  Sn0  1  0.75408783  0.25408783  0.50000000  1
  Sn  Sn1  1  0.41982792  0.41982792  0.00000000  1
  Pt  Pt0  1  0.65161241  0.65161241  0.00000000  1
loop_
_geom_bond_atom_site_label_1
_geom_bond_atom_site_label_2
_geom_bond_distance
_geom_bond_site_symmetry_2
Ba0 Sn1 3.589576 1_546
Ba0 Sn1 3.589576 1_456
Ba0 Sn1 3.589576 1_445
Ba0 Sn1 3.589577 1_557
Ba0 In0 3.690717 1_556
Ba0 In0 3.690718 1_545
Ba0 Sn0 3.731575 1_445
Ba0 Sn0 3.731576 1_456
Ba0 Sn0 3.779043 1_556
Ba0 Sn0 3.779044 1_455
Ba0 In0 3.819700 1_445
Ba0 In0 3.819701 1_546
Ba0 Pt0 3.845581 1_456
Ba0 Pt0 3.845581 1_546
Ba0 Pt0 3.845581 1_557
Ba0 Pt0 3.845582 1_445
Ba0 Pt0 4.018531 1_446
In0 Pt0 2.721273 1_455
In0 Pt0 2.721274 1_556
In0 Sn1 3.093968 1_566
In0 Sn1 3.093968 1_555
Sn0 Sn1 3.119489 1_656
Sn0 Sn1 3.119489 1_555
Pt0 Sn1 2.642278 1_555
Pt0 Sn0 2.676731 1_565
Pt0 Sn0 2.676731 1_554
