# generated using pymatgen
data_LiTc4Ag7Br24
_symmetry_space_group_name_H-M   'P 1'
_cell_length_a   6.91891450
_cell_length_b   6.91891349
_cell_length_c   25.19708317
_cell_angle_alpha   90.00000000
_cell_angle_beta   90.00000000
_cell_angle_gamma   120.00000485
_symmetry_Int_Tables_number   1
_chemical_formula_structural   LiTc4Ag7Br24
_chemical_formula_sum   'Li1 Tc4 Ag7 Br24'
_cell_volume   1044.61616990
_cell_formula_units_Z   1
loop_
 _symmetry_equiv_pos_site_id
 _symmetry_equiv_pos_as_xyz
  1  'x, y, z'
loop_
 _atom_site_type_symbol
 _atom_site_label
 _atom_site_symmetry_multiplicity
 _atom_site_fract_x
 _atom_site_fract_y
 _atom_site_fract_z
 _atom_site_occupancy
  Li  Li0  1  0.66666700  0.33333300  0.50009519  1
  Tc  Tc0  1  0.00000000  0.00000000  0.99992988  1
  Tc  Tc1  1  0.00000000  0.00000000  0.50019264  1
  Tc  Tc2  1  0.33333300  0.66666700  0.74985216  1
  Tc  Tc3  1  0.66666700  0.33333300  0.24992042  1
  Ag  Ag0  1  0.00000000  0.00000000  0.24977635  1
  Ag  Ag1  1  0.00000000  0.00000000  0.74985713  1
  Ag  Ag2  1  0.33333300  0.66666700  0.99881293  1
  Ag  Ag3  1  0.33333300  0.66666700  0.50099428  1
  Ag  Ag4  1  0.33333300  0.66666700  0.24981759  1
  Ag  Ag5  1  0.66666700  0.33333300  0.74974801  1
  Ag  Ag6  1  0.66666700  0.33333300  0.00103932  1
  Br  Br0  1  0.37151356  0.03732358  0.30914894  1
  Br  Br1  1  0.33433883  0.96269440  0.80913998  1
  Br  Br2  1  0.00304645  0.29730778  0.05910110  1
  Br  Br3  1  0.98748785  0.29342851  0.55822504  1
  Br  Br4  1  0.96267642  0.33418998  0.30914894  1
  Br  Br5  1  0.03730560  0.37164443  0.80913998  1
  Br  Br6  1  0.37152242  0.33417660  0.19066667  1
  Br  Br7  1  0.33375395  0.37129426  0.69062793  1
  Br  Br8  1  0.30354835  0.29595226  0.44231153  1
  Br  Br9  1  0.29725728  0.29429727  0.94076684  1
  Br  Br10  1  0.70404774  0.00759609  0.44231153  1
  Br  Br11  1  0.29426133  0.99695355  0.05910110  1
  Br  Br12  1  0.30594167  0.01251215  0.55822504  1
  Br  Br13  1  0.70269222  0.70573867  0.05910110  1
  Br  Br14  1  0.70657149  0.69405833  0.55822504  1
  Br  Br15  1  0.66581002  0.62848644  0.30914894  1
  Br  Br16  1  0.62835557  0.66566117  0.80913998  1
  Br  Br17  1  0.96265417  0.62847758  0.19066667  1
  Br  Br18  1  0.03754031  0.66624605  0.69062793  1
  Br  Br19  1  0.99240391  0.69645165  0.44231153  1
  Br  Br20  1  0.99704099  0.70274272  0.94076684  1
  Br  Br21  1  0.70570273  0.00295901  0.94076684  1
  Br  Br22  1  0.66582340  0.03734583  0.19066667  1
  Br  Br23  1  0.62870574  0.96245969  0.69062793  1
loop_
_geom_bond_atom_site_label_1
_geom_bond_atom_site_label_2
_geom_bond_distance
_geom_bond_site_symmetry_2
Ag0 Br17 2.868533 1_445
Ag0 Br6 2.868533 1_555
Ag0 Br22 2.868533 1_455
Ag0 Br15 2.871981 1_445
Ag0 Br4 2.871981 1_455
Ag0 Br0 2.871981 1_555
Ag1 Br7 2.868274 1_555
Ag1 Br18 2.868274 1_545
Ag1 Br23 2.868274 1_445
Ag1 Br5 2.871618 1_555
Ag1 Br16 2.871618 1_445
Ag1 Br1 2.871618 1_545
Ag2 Br20 2.862890 1_455
Ag2 Br21 2.862896 1_565
Ag2 Br9 2.862901 1_555
Ag2 Br11 2.867181 1_556
Ag2 Br2 2.867184 1_556
Ag2 Br13 2.867187 1_556
Ag3 Br19 2.877351 1_455
Ag3 Br10 2.877354 1_565
Ag3 Br8 2.877357 1_555
Ag3 Br12 2.880061 1_565
Ag3 Br3 2.880068 1_455
Ag3 Br14 2.880074 1_555
Ag4 Br17 2.862026 1_455
Ag4 Br22 2.862028 1_565
Ag4 Br6 2.862032 1_555
Ag4 Br0 2.864287 1_565
Ag4 Br4 2.864290 1_455
Ag4 Br15 2.864293 1_555
Ag5 Br23 2.863327 1_545
Ag5 Br18 2.863330 1_655
Ag5 Br7 2.863334 1_555
Ag5 Br5 2.864658 1_655
Ag5 Br1 2.864660 1_545
Ag5 Br16 2.864663 1_555
Ag6 Br2 2.863437 1_655
Ag6 Br11 2.863441 1_545
Ag6 Br13 2.863443 1_555
Ag6 Br20 2.867359 1_554
Ag6 Br21 2.867359 1_554
Ag6 Br9 2.867360 1_554
Br0 Tc3 2.531736 1_555
Br1 Tc2 2.532301 1_555
Br2 Tc0 2.532081 1_554
Br3 Tc1 2.538337 1_655
Br3 Li0 2.785974 1_555
Br4 Tc3 2.531733 1_555
Br5 Tc2 2.532303 1_555
Br6 Tc3 2.532026 1_555
Br7 Tc2 2.531678 1_555
Br8 Tc1 2.535815 1_555
Br8 Li0 2.801619 1_555
Br9 Tc0 2.531916 1_555
Br10 Tc1 2.535815 1_655
Br10 Li0 2.801613 1_555
Br11 Tc0 2.532081 1_564
Br12 Tc1 2.538343 1_555
Br12 Li0 2.785974 1_555
Br13 Tc0 2.532081 1_664
Br14 Tc1 2.538340 1_665
Br14 Li0 2.785974 1_555
Br15 Tc3 2.531739 1_555
Br16 Tc2 2.532306 1_555
Br17 Tc3 2.532023 1_555
Br18 Tc2 2.531673 1_555
Br19 Tc1 2.535815 1_665
Br19 Li0 2.801616 1_555
Br20 Tc0 2.531918 1_665
Br21 Tc0 2.531913 1_655
Br22 Tc3 2.532021 1_555
Br23 Tc2 2.531675 1_555
