# generated using pymatgen
data_Sn2BPtRh5
_symmetry_space_group_name_H-M   'P 1'
_cell_length_a   5.71623983
_cell_length_b   5.69127136
_cell_length_c   5.69127036
_cell_angle_alpha   60.29048631
_cell_angle_beta   59.85476332
_cell_angle_gamma   59.85475732
_symmetry_Int_Tables_number   1
_chemical_formula_structural   Sn2BPtRh5
_chemical_formula_sum   'Sn2 B1 Pt1 Rh5'
_cell_volume   130.91734293
_cell_formula_units_Z   1
loop_
 _symmetry_equiv_pos_site_id
 _symmetry_equiv_pos_as_xyz
  1  'x, y, z'
loop_
 _atom_site_type_symbol
 _atom_site_label
 _atom_site_symmetry_multiplicity
 _atom_site_fract_x
 _atom_site_fract_y
 _atom_site_fract_z
 _atom_site_occupancy
  Sn  Sn0  1  0.24964541  0.25035459  0.25035459  1
  Sn  Sn1  1  0.74964541  0.75035459  0.75035459  1
  B  B0  1  0.00444409  0.99555591  0.99555591  1
  Pt  Pt0  1  0.74138761  0.25861339  0.25861339  1
  Rh  Rh0  1  0.25411473  0.74588627  0.25534557  1
  Rh  Rh1  1  0.74465443  0.74588527  0.25534657  1
  Rh  Rh2  1  0.25411473  0.25534557  0.74588627  1
  Rh  Rh3  1  0.74465443  0.25534657  0.74588527  1
  Rh  Rh4  1  0.25734016  0.74266084  0.74266084  1
loop_
_geom_bond_atom_site_label_1
_geom_bond_atom_site_label_2
_geom_bond_distance
_geom_bond_site_symmetry_2
B0 Rh4 2.026500 1_555
B0 Rh0 2.059634 1_556
B0 Rh3 2.059634 1_465
B0 Rh1 2.059634 1_456
B0 Rh2 2.059634 1_565
B0 Pt0 2.107933 1_466
Pt0 Sn0 2.858880 1_655
Pt0 Sn1 2.858887 1_554
Pt0 Sn1 2.858887 1_545
Pt0 Sn0 2.858892 1_555
Rh0 Sn0 2.844416 1_565
Rh0 Sn1 2.844421 1_455
Rh0 Sn1 2.847364 1_554
Rh0 Sn0 2.847370 1_555
Rh1 Sn1 2.844415 1_555
Rh1 Sn0 2.844421 1_565
Rh1 Sn0 2.847364 1_655
Rh1 Sn1 2.847369 1_554
Rh2 Sn0 2.844415 1_556
Rh2 Sn1 2.844421 1_455
Rh2 Sn1 2.847364 1_545
Rh2 Sn0 2.847369 1_555
Rh3 Sn1 2.844416 1_555
Rh3 Sn0 2.844421 1_556
Rh3 Sn0 2.847364 1_655
Rh3 Sn1 2.847370 1_545
Rh4 Sn1 2.858779 1_555
Rh4 Sn0 2.858785 1_556
Rh4 Sn0 2.858785 1_565
Rh4 Sn1 2.858790 1_455
