# generated using pymatgen
data_Rb4TaRhCl12
_symmetry_space_group_name_H-M   'P 1'
_cell_length_a   7.05523706
_cell_length_b   7.05523706
_cell_length_c   10.22952884
_cell_angle_alpha   90.00000000
_cell_angle_beta   90.00000000
_cell_angle_gamma   90.00000000
_symmetry_Int_Tables_number   1
_chemical_formula_structural   Rb4TaRhCl12
_chemical_formula_sum   'Rb4 Ta1 Rh1 Cl12'
_cell_volume   509.18881155
_cell_formula_units_Z   1
loop_
 _symmetry_equiv_pos_site_id
 _symmetry_equiv_pos_as_xyz
  1  'x, y, z'
loop_
 _atom_site_type_symbol
 _atom_site_label
 _atom_site_symmetry_multiplicity
 _atom_site_fract_x
 _atom_site_fract_y
 _atom_site_fract_z
 _atom_site_occupancy
  Rb  Rb0  1  0.50000000  0.00000000  0.78355691  1
  Rb  Rb1  1  0.00000000  0.50000000  0.21644309  1
  Rb  Rb2  1  0.50000000  0.00000000  0.21644309  1
  Rb  Rb3  1  0.00000000  0.50000000  0.78355691  1
  Ta  Ta0  1  0.50000000  0.50000000  0.50000000  1
  Rh  Rh0  1  0.00000000  0.00000000  0.00000000  1
  Cl  Cl0  1  0.00000000  0.00000000  0.76877186  1
  Cl  Cl1  1  0.50000000  0.50000000  0.26850254  1
  Cl  Cl2  1  0.73643399  0.73643399  0.50000000  1
  Cl  Cl3  1  0.23649046  0.23649046  0.00000000  1
  Cl  Cl4  1  0.73643399  0.26356601  0.50000000  1
  Cl  Cl5  1  0.23649046  0.76350954  0.00000000  1
  Cl  Cl6  1  0.00000000  0.00000000  0.23122814  1
  Cl  Cl7  1  0.50000000  0.50000000  0.73149746  1
  Cl  Cl8  1  0.26356601  0.26356601  0.50000000  1
  Cl  Cl9  1  0.76350954  0.76350954  0.00000000  1
  Cl  Cl10  1  0.26356601  0.73643399  0.50000000  1
  Cl  Cl11  1  0.76350954  0.23649046  0.00000000  1
loop_
_geom_bond_atom_site_label_1
_geom_bond_atom_site_label_2
_geom_bond_distance
_geom_bond_site_symmetry_2
Cl0 Rh0 2.365355 1_556
Cl0 Rb0 3.530859 1_455
Cl0 Rb0 3.530859 1_555
Cl0 Rb3 3.530859 1_545
Cl0 Rb3 3.530859 1_555
Cl1 Ta0 2.368110 1_555
Cl1 Rb1 3.567590 1_555
Cl1 Rb2 3.567590 1_555
Cl1 Rb2 3.567590 1_565
Cl1 Rb1 3.567590 1_655
Cl2 Ta0 2.359047 1_555
Cl2 Rb3 3.828075 1_655
Cl2 Rb0 3.828075 1_565
Cl2 Rb2 3.828075 1_565
Cl2 Rb1 3.828075 1_655
Cl3 Rh0 2.359610 1_555
Cl3 Rb1 3.338039 1_555
Cl3 Rb2 3.338039 1_555
Cl3 Rb0 3.338039 1_554
Cl3 Rb3 3.338039 1_554
Cl4 Ta0 2.359047 1_555
Cl4 Rb0 3.828075 1_555
Cl4 Rb3 3.828075 1_655
Cl4 Rb2 3.828075 1_555
Cl4 Rb1 3.828075 1_655
Cl5 Rh0 2.359610 1_565
Cl5 Rb2 3.338039 1_565
Cl5 Rb1 3.338039 1_555
Cl5 Rb0 3.338039 1_564
Cl5 Rb3 3.338039 1_554
Cl6 Rh0 2.365355 1_555
Cl6 Rb1 3.530859 1_555
Cl6 Rb2 3.530859 1_555
Cl6 Rb2 3.530859 1_455
Cl6 Rb1 3.530859 1_545
Cl7 Ta0 2.368110 1_555
Cl7 Rb0 3.567590 1_555
Cl7 Rb0 3.567590 1_565
Cl7 Rb3 3.567590 1_655
Cl7 Rb3 3.567590 1_555
Cl8 Ta0 2.359047 1_555
Cl8 Rb3 3.828075 1_555
Cl8 Rb0 3.828075 1_555
Cl8 Rb1 3.828075 1_555
Cl8 Rb2 3.828075 1_555
Cl9 Rh0 2.359610 1_665
Cl9 Rb2 3.338039 1_565
Cl9 Rb1 3.338039 1_655
Cl9 Rb3 3.338039 1_654
Cl9 Rb0 3.338039 1_564
Cl10 Ta0 2.359047 1_555
Cl10 Rb3 3.828075 1_555
Cl10 Rb0 3.828075 1_565
Cl10 Rb1 3.828075 1_555
Cl10 Rb2 3.828075 1_565
Cl11 Rh0 2.359610 1_655
Cl11 Rb1 3.338039 1_655
Cl11 Rb2 3.338039 1_555
Cl11 Rb3 3.338039 1_654
Cl11 Rb0 3.338039 1_554
