# generated using pymatgen
data_SrAu
_symmetry_space_group_name_H-M   'P 1'
_cell_length_a   4.68916238
_cell_length_b   6.20433384
_cell_length_c   40.73616133
_cell_angle_alpha   85.76076887
_cell_angle_beta   90.00000000
_cell_angle_gamma   90.00000000
_symmetry_Int_Tables_number   1
_chemical_formula_structural   SrAu
_chemical_formula_sum   'Sr20 Au20'
_cell_volume   1181.89995447
_cell_formula_units_Z   20
loop_
 _symmetry_equiv_pos_site_id
 _symmetry_equiv_pos_as_xyz
  1  'x, y, z'
loop_
 _atom_site_type_symbol
 _atom_site_label
 _atom_site_symmetry_multiplicity
 _atom_site_fract_x
 _atom_site_fract_y
 _atom_site_fract_z
 _atom_site_occupancy
  Sr  Sr0  1  0.75000000  0.94276931  0.08639859  1
  Sr  Sr1  1  0.25000000  0.05723069  0.91360141  1
  Sr  Sr2  1  0.75000000  0.65980993  0.18610185  1
  Sr  Sr3  1  0.25000000  0.34019007  0.81389815  1
  Sr  Sr4  1  0.75000000  0.84260323  0.28629182  1
  Sr  Sr5  1  0.25000000  0.15739677  0.71370818  1
  Sr  Sr6  1  0.75000000  0.03812565  0.38600393  1
  Sr  Sr7  1  0.25000000  0.96187435  0.61399607  1
  Sr  Sr8  1  0.75000000  0.76242774  0.48636177  1
  Sr  Sr9  1  0.25000000  0.23757226  0.51363823  1
  Sr  Sr10  1  0.75000000  0.47497540  0.58622527  1
  Sr  Sr11  1  0.25000000  0.52502460  0.41377473  1
  Sr  Sr12  1  0.75000000  0.65680989  0.68637441  1
  Sr  Sr13  1  0.25000000  0.34319011  0.31362559  1
  Sr  Sr14  1  0.75000000  0.85326573  0.78625372  1
  Sr  Sr15  1  0.25000000  0.14673427  0.21374628  1
  Sr  Sr16  1  0.75000000  0.57173218  0.88594285  1
  Sr  Sr17  1  0.25000000  0.42826782  0.11405715  1
  Sr  Sr18  1  0.75000000  0.75029818  0.98634351  1
  Sr  Sr19  1  0.25000000  0.24970182  0.01365649  1
  Au  Au0  1  0.75000000  0.45597867  0.05767678  1
  Au  Au1  1  0.25000000  0.54402133  0.94232322  1
  Au  Au2  1  0.75000000  0.17411343  0.15801890  1
  Au  Au3  1  0.25000000  0.82588657  0.84198110  1
  Au  Au4  1  0.75000000  0.35510552  0.25799758  1
  Au  Au5  1  0.25000000  0.64489448  0.74200242  1
  Au  Au6  1  0.75000000  0.54964798  0.35772977  1
  Au  Au7  1  0.25000000  0.45035202  0.64227023  1
  Au  Au8  1  0.75000000  0.27443503  0.45774734  1
  Au  Au9  1  0.25000000  0.72556497  0.54225266  1
  Au  Au10  1  0.75000000  0.98963492  0.55797590  1
  Au  Au11  1  0.25000000  0.01036508  0.44202410  1
  Au  Au12  1  0.75000000  0.17063183  0.65784347  1
  Au  Au13  1  0.25000000  0.82936817  0.34215653  1
  Au  Au14  1  0.75000000  0.36441484  0.75773020  1
  Au  Au15  1  0.25000000  0.63558516  0.24226980  1
  Au  Au16  1  0.75000000  0.08668804  0.85787707  1
  Au  Au17  1  0.25000000  0.91331196  0.14212293  1
  Au  Au18  1  0.75000000  0.26410067  0.95789101  1
  Au  Au19  1  0.25000000  0.73589933  0.04210899  1
loop_
_geom_bond_atom_site_label_1
_geom_bond_atom_site_label_2
_geom_bond_distance
_geom_bond_site_symmetry_2
Au0 Au19 2.958480 1_555
Au0 Au19 2.958480 1_655
Au0 Sr19 3.269541 1_555
Au0 Sr19 3.269541 1_655
Au0 Sr17 3.277677 1_555
Au0 Sr17 3.277677 1_655
Au0 Sr0 3.310104 1_545
Au0 Sr18 3.315709 1_554
Au0 Sr0 3.318591 1_555
Au1 Au18 2.958480 1_555
Au1 Au18 2.958480 1_455
Au1 Sr18 3.269541 1_455
Au1 Sr18 3.269541 1_555
Au1 Sr16 3.277677 1_555
Au1 Sr16 3.277677 1_455
Au1 Sr1 3.310104 1_565
Au1 Sr19 3.315709 1_556
Au1 Sr1 3.318591 1_555
Au2 Sr15 3.259194 1_555
Au2 Sr15 3.259194 1_655
Au2 Sr17 3.282246 1_655
Au2 Sr17 3.282246 1_555
Au2 Sr2 3.301378 1_555
Au2 Sr2 3.309222 1_545
Au2 Sr0 3.345343 1_545
Au3 Sr14 3.259194 1_455
Au3 Sr14 3.259194 1_555
Au3 Sr16 3.282246 1_455
Au3 Sr16 3.282246 1_555
Au3 Sr3 3.301378 1_555
Au3 Sr3 3.309222 1_565
Au3 Sr1 3.345343 1_565
Au4 Sr13 3.257735 1_555
Au4 Sr13 3.257735 1_655
Au4 Sr15 3.280611 1_555
Au4 Sr15 3.280611 1_655
Au4 Sr4 3.301116 1_545
Au4 Sr4 3.315431 1_555
Au4 Sr2 3.366450 1_555
Au5 Sr12 3.257735 1_555
Au5 Sr12 3.257735 1_455
Au5 Sr14 3.280611 1_555
Au5 Sr14 3.280611 1_455
Au5 Sr5 3.301116 1_565
Au5 Sr5 3.315431 1_555
Au5 Sr3 3.366450 1_555
Au6 Sr11 3.268208 1_555
Au6 Sr11 3.268208 1_655
Au6 Sr13 3.272001 1_655
Au6 Sr13 3.272001 1_555
Au6 Sr6 3.295189 1_555
Au6 Sr4 3.315173 1_555
Au6 Sr6 3.320795 1_565
Au7 Sr10 3.268208 1_555
Au7 Sr10 3.268208 1_455
Au7 Sr12 3.272001 1_455
Au7 Sr12 3.272001 1_555
Au7 Sr7 3.295189 1_555
Au7 Sr5 3.315173 1_555
Au7 Sr7 3.320795 1_545
Au8 Sr9 3.264370 1_555
Au8 Sr9 3.264370 1_655
Au8 Sr11 3.272799 1_555
Au8 Sr11 3.272799 1_655
Au8 Sr8 3.301890 1_545
Au8 Sr8 3.323743 1_555
Au8 Sr6 3.365169 1_555
Au9 Sr8 3.264370 1_455
Au9 Sr8 3.264370 1_555
Au9 Sr10 3.272799 1_455
Au9 Sr10 3.272799 1_555
Au9 Sr9 3.301890 1_565
Au9 Sr9 3.323743 1_555
Au9 Sr7 3.365169 1_555
Au10 Au9 2.957488 1_655
Au10 Au9 2.957488 1_555
Au10 Sr7 3.267469 1_655
Au10 Sr7 3.267469 1_555
Au10 Sr9 3.273345 1_565
Au10 Sr9 3.273345 1_665
Au10 Sr10 3.302119 1_565
Au10 Sr10 3.313161 1_555
Au10 Sr8 3.332522 1_555
Au11 Au8 2.957488 1_555
Au11 Au8 2.957488 1_455
Au11 Sr6 3.267469 1_455
Au11 Sr6 3.267469 1_555
Au11 Sr8 3.273345 1_545
Au11 Sr8 3.273345 1_445
Au11 Sr11 3.302119 1_545
Au11 Sr11 3.313161 1_555
Au11 Sr9 3.332522 1_555
Au12 Au7 2.957808 1_555
Au12 Au7 2.957808 1_655
Au12 Sr5 3.264207 1_555
Au12 Sr5 3.264207 1_655
Au12 Sr7 3.272163 1_545
Au12 Sr7 3.272163 1_645
Au12 Sr12 3.311477 1_545
Au12 Sr12 3.311773 1_555
Au12 Sr10 3.355974 1_555
Au13 Au6 2.957808 1_455
Au13 Au6 2.957808 1_555
Au13 Sr4 3.264207 1_455
Au13 Sr4 3.264207 1_555
Au13 Sr6 3.272163 1_465
Au13 Sr6 3.272163 1_565
Au13 Sr13 3.311477 1_565
Au13 Sr13 3.311773 1_555
Au13 Sr11 3.355974 1_555
Au14 Au5 2.961582 1_555
Au14 Au5 2.961582 1_655
Au14 Sr5 3.271571 1_655
Au14 Sr5 3.271571 1_555
Au14 Sr3 3.271706 1_655
Au14 Sr3 3.271706 1_555
Au14 Sr14 3.295863 1_545
Au14 Sr12 3.310691 1_555
Au14 Sr14 3.327187 1_555
Au15 Au4 2.961582 1_455
Au15 Au4 2.961582 1_555
Au15 Sr4 3.271571 1_455
Au15 Sr4 3.271571 1_555
Au15 Sr2 3.271706 1_455
Au15 Sr2 3.271706 1_555
Au15 Sr15 3.295863 1_565
Au15 Sr13 3.310691 1_555
Au15 Sr15 3.327187 1_555
Au16 Au3 2.947800 1_545
Au16 Au3 2.947800 1_645
Au16 Sr1 3.259142 1_555
Au16 Sr1 3.259142 1_655
Au16 Sr3 3.280824 1_555
Au16 Sr3 3.280824 1_655
Au16 Sr16 3.297290 1_555
Au16 Sr16 3.312830 1_545
Au16 Sr14 3.351837 1_545
Au17 Au2 2.947800 1_465
Au17 Au2 2.947800 1_565
Au17 Sr0 3.259142 1_555
Au17 Sr0 3.259142 1_455
Au17 Sr2 3.280824 1_555
Au17 Sr2 3.280824 1_455
Au17 Sr17 3.297290 1_555
Au17 Sr17 3.312830 1_565
Au17 Sr15 3.351837 1_565
Au18 Sr19 3.261216 1_556
Au18 Sr19 3.261216 1_656
Au18 Sr1 3.277477 1_655
Au18 Sr1 3.277477 1_555
Au18 Sr18 3.310471 1_545
Au18 Sr18 3.310551 1_555
Au18 Sr16 3.377282 1_555
Au19 Sr18 3.261216 1_554
Au19 Sr18 3.261216 1_454
Au19 Sr0 3.277477 1_555
Au19 Sr0 3.277477 1_455
Au19 Sr19 3.310471 1_565
Au19 Sr19 3.310551 1_555
Au19 Sr17 3.377282 1_555
