# generated using pymatgen
data_LiNb8(SiSn2)2
_symmetry_space_group_name_H-M   'P 1'
_cell_length_a   4.96215373
_cell_length_b   7.90174113
_cell_length_c   7.90173674
_cell_angle_alpha   95.64563171
_cell_angle_beta   108.29989019
_cell_angle_gamma   71.70004346
_symmetry_Int_Tables_number   1
_chemical_formula_structural   LiNb8(SiSn2)2
_chemical_formula_sum   'Li1 Nb8 Si2 Sn4'
_cell_volume   279.27862899
_cell_formula_units_Z   1
loop_
 _symmetry_equiv_pos_site_id
 _symmetry_equiv_pos_as_xyz
  1  'x, y, z'
loop_
 _atom_site_type_symbol
 _atom_site_label
 _atom_site_symmetry_multiplicity
 _atom_site_fract_x
 _atom_site_fract_y
 _atom_site_fract_z
 _atom_site_occupancy
  Li  Li0  1  0.25000100  0.49999900  0.50000100  1
  Nb  Nb0  1  0.41504956  0.87707974  0.71621545  1
  Nb  Nb1  1  0.57591085  0.12292026  0.28378355  1
  Nb  Nb2  1  0.92408515  0.28378455  0.12292026  1
  Nb  Nb3  1  0.08495344  0.71621645  0.87707974  1
  Nb  Nb4  1  0.70802228  0.71606851  0.12296522  1
  Nb  Nb5  1  0.30112557  0.28393149  0.87703478  1
  Nb  Nb6  1  0.79197772  0.12296522  0.71606851  1
  Nb  Nb7  1  0.19887443  0.87703478  0.28393149  1
  Si  Si0  1  0.25000000  0.00000000  0.00000000  1
  Si  Si1  1  0.75000000  0.00000000  0.00000000  1
  Sn  Sn0  1  0.36726671  0.50007796  0.19940593  1
  Sn  Sn1  1  0.66793573  0.49992204  0.80059407  1
  Sn  Sn2  1  0.83206127  0.80059407  0.49992204  1
  Sn  Sn3  1  0.13273529  0.19940593  0.50007796  1
loop_
_geom_bond_atom_site_label_1
_geom_bond_atom_site_label_2
_geom_bond_distance
_geom_bond_site_symmetry_2
Li0 Sn1 2.616992 1_555
Li0 Sn3 2.616995 1_555
Li0 Sn0 2.617011 1_555
Li0 Sn2 2.617011 1_455
Nb0 Si0 2.620630 1_566
Nb0 Si1 2.641773 1_566
Nb0 Sn1 2.901356 1_555
Nb0 Sn3 2.911857 1_565
Nb0 Sn2 2.966562 1_555
Nb0 Sn2 3.073249 1_455
Nb1 Si0 2.620620 1_555
Nb1 Si1 2.641771 1_555
Nb1 Sn0 2.901355 1_555
Nb1 Sn2 2.911862 1_545
Nb1 Sn3 2.966586 1_655
Nb1 Sn3 3.073232 1_555
Nb2 Si0 2.620632 1_655
Nb2 Si1 2.641771 1_555
Nb2 Sn3 2.901355 1_655
Nb2 Sn1 2.911857 1_554
Nb2 Sn0 2.966558 1_555
Nb2 Sn0 3.073253 1_655
Nb3 Si0 2.620618 1_566
Nb3 Si1 2.641773 1_466
Nb3 Sn2 2.901355 1_455
Nb3 Sn0 2.911861 1_556
Nb3 Sn1 2.966594 1_455
Nb3 Sn1 3.073224 1_555
Nb4 Si1 2.621160 1_565
Nb4 Si0 2.642555 1_565
Nb4 Sn2 2.900432 1_555
Nb4 Sn1 2.912811 1_554
Nb4 Sn0 2.965331 1_555
Nb4 Sn0 3.071612 1_655
Nb5 Si1 2.621159 1_556
Nb5 Si0 2.642556 1_556
Nb5 Sn3 2.900432 1_555
Nb5 Sn0 2.912811 1_556
Nb5 Sn1 2.965343 1_455
Nb5 Sn1 3.071600 1_555
Nb6 Si1 2.621159 1_556
Nb6 Si0 2.642556 1_656
Nb6 Sn1 2.900432 1_555
Nb6 Sn2 2.912811 1_545
Nb6 Sn3 2.965338 1_655
Nb6 Sn3 3.071605 1_555
Nb7 Si1 2.621160 1_465
Nb7 Si0 2.642555 1_565
Nb7 Sn0 2.900433 1_555
Nb7 Sn3 2.912811 1_565
Nb7 Sn2 2.965331 1_555
Nb7 Sn2 3.071612 1_455
Si0 Si1 2.481077 1_455
Si0 Si1 2.481077 1_555
