# generated using pymatgen
data_Rb2Hf(Te2Au)2
_symmetry_space_group_name_H-M   'P 1'
_cell_length_a   8.16268684
_cell_length_b   8.16268716
_cell_length_c   6.39244240
_cell_angle_alpha   90.00000000
_cell_angle_beta   90.00000000
_cell_angle_gamma   133.82223298
_symmetry_Int_Tables_number   1
_chemical_formula_structural   Rb2Hf(Te2Au)2
_chemical_formula_sum   'Rb2 Hf1 Te4 Au2'
_cell_volume   307.30129272
_cell_formula_units_Z   1
loop_
 _symmetry_equiv_pos_site_id
 _symmetry_equiv_pos_as_xyz
  1  'x, y, z'
loop_
 _atom_site_type_symbol
 _atom_site_label
 _atom_site_symmetry_multiplicity
 _atom_site_fract_x
 _atom_site_fract_y
 _atom_site_fract_z
 _atom_site_occupancy
  Rb  Rb0  1  0.50000000  0.00000000  0.25473257  1
  Rb  Rb1  1  0.00000000  0.50000000  0.74526743  1
  Hf  Hf0  1  0.00000000  0.00000000  0.00000000  1
  Te  Te0  1  0.86378767  0.64689755  0.24450624  1
  Te  Te1  1  0.13621233  0.35310245  0.24450624  1
  Te  Te2  1  0.64689755  0.86378767  0.75549376  1
  Te  Te3  1  0.35310245  0.13621233  0.75549376  1
  Au  Au0  1  0.00000000  0.00000000  0.50000000  1
  Au  Au1  1  0.50000000  0.50000000  0.00000000  1
loop_
_geom_bond_atom_site_label_1
_geom_bond_atom_site_label_2
_geom_bond_distance
_geom_bond_site_symmetry_2
Rb0 Te1 3.814766 1_655
Rb0 Te0 3.814766 1_445
Rb0 Te2 3.834717 1_544
Rb0 Te3 3.834717 1_554
Rb0 Te2 3.842820 1_545
Rb0 Te3 3.842820 1_555
Rb0 Te0 3.871743 1_555
Rb0 Te1 3.871743 1_545
Rb1 Te2 3.814766 1_445
Rb1 Te3 3.814766 1_565
Rb1 Te0 3.834717 1_456
Rb1 Te1 3.834717 1_556
Rb1 Te1 3.842820 1_555
Rb1 Te0 3.842820 1_455
Rb1 Te2 3.871743 1_555
Rb1 Te3 3.871743 1_455
Hf0 Te3 2.747480 1_554
Hf0 Te2 2.747480 1_444
Hf0 Te1 2.747480 1_555
Hf0 Te0 2.747480 1_445
Au0 Te3 2.788035 1_555
Au0 Te2 2.788035 1_445
Au0 Te1 2.788035 1_555
Au0 Te0 2.788035 1_445
Au0 Hf0 3.196221 1_556
Au0 Hf0 3.196221 1_555
Au1 Te0 2.787046 1_555
Au1 Te1 2.787046 1_555
Au1 Te3 2.787046 1_554
Au1 Te2 2.787046 1_554
Au1 Hf0 3.201068 1_555
Au1 Hf0 3.201068 1_665
