# generated using pymatgen
data_Mg2Ni2GeIr
_symmetry_space_group_name_H-M   'P 1'
_cell_length_a   4.76153781
_cell_length_b   4.76153728
_cell_length_c   4.89439738
_cell_angle_alpha   65.13646077
_cell_angle_beta   65.13646510
_cell_angle_gamma   62.46408385
_symmetry_Int_Tables_number   1
_chemical_formula_structural   Mg2Ni2GeIr
_chemical_formula_sum   'Mg2 Ni2 Ge1 Ir1'
_cell_volume   85.67921771
_cell_formula_units_Z   1
loop_
 _symmetry_equiv_pos_site_id
 _symmetry_equiv_pos_as_xyz
  1  'x, y, z'
loop_
 _atom_site_type_symbol
 _atom_site_label
 _atom_site_symmetry_multiplicity
 _atom_site_fract_x
 _atom_site_fract_y
 _atom_site_fract_z
 _atom_site_occupancy
  Mg  Mg0  1  0.12798106  0.12798106  0.11750073  1
  Mg  Mg1  1  0.87201894  0.87201894  0.88249927  1
  Ni  Ni0  1  0.00000000  0.50000000  0.50000000  1
  Ni  Ni1  1  0.50000000  0.00000000  0.50000000  1
  Ge  Ge0  1  0.50000000  0.50000000  0.50000000  1
  Ir  Ir0  1  0.50000000  0.50000000  0.00000000  1
loop_
_geom_bond_atom_site_label_1
_geom_bond_atom_site_label_2
_geom_bond_distance
_geom_bond_site_symmetry_2
Mg0 Ni0 2.800920 1_555
Mg0 Ni1 2.800920 1_555
Mg0 Mg1 2.832809 1_444
Mg0 Ni0 2.948240 1_554
Mg0 Ni1 2.948241 1_554
Mg0 Ni0 2.972413 1_545
Mg0 Ni1 2.972413 1_455
Mg0 Mg1 3.019838 1_454
Mg0 Mg1 3.019839 1_544
Mg0 Mg1 3.269334 1_445
Mg1 Ni0 2.800920 1_655
Mg1 Ni1 2.800920 1_565
Mg1 Ni0 2.948240 1_656
Mg1 Ni1 2.948241 1_566
Mg1 Ni0 2.972413 1_665
Mg1 Ni1 2.972413 1_665
Ni0 Ni1 2.468882 1_555
Ni0 Ni1 2.468882 1_465
Ge0 Ni1 2.380769 1_565
Ge0 Ni1 2.380769 1_555
Ge0 Ni0 2.380769 1_555
Ge0 Ni0 2.380769 1_655
Ge0 Ir0 2.447199 1_555
Ge0 Ir0 2.447199 1_556
Ge0 Mg1 2.960999 1_545
Ge0 Mg0 2.960999 1_565
Ge0 Mg1 2.960999 1_455
Ge0 Mg0 2.960999 1_655
Ge0 Mg1 3.050763 1_554
Ge0 Mg0 3.050763 1_556
Ir0 Ni1 2.599515 1_555
Ir0 Ni1 2.599515 1_564
Ir0 Ni0 2.599515 1_555
Ir0 Ni0 2.599515 1_654
Ir0 Mg1 2.791819 1_554
Ir0 Mg0 2.791819 1_555
Ir0 Mg0 2.846328 1_565
Ir0 Mg1 2.846328 1_544
Ir0 Mg0 2.846328 1_655
Ir0 Mg1 2.846328 1_454
