# generated using pymatgen
data_Bi2CO5
_symmetry_space_group_name_H-M   'P 1'
_cell_length_a   7.52275286
_cell_length_b   7.52275286
_cell_length_c   7.52275286
_cell_angle_alpha   152.33223794
_cell_angle_beta   144.73579917
_cell_angle_gamma   45.39996269
_symmetry_Int_Tables_number   1
_chemical_formula_structural   Bi2CO5
_chemical_formula_sum   'Bi2 C1 O5'
_cell_volume   113.78187880
_cell_formula_units_Z   1
loop_
 _symmetry_equiv_pos_site_id
 _symmetry_equiv_pos_as_xyz
  1  'x, y, z'
loop_
 _atom_site_type_symbol
 _atom_site_label
 _atom_site_symmetry_multiplicity
 _atom_site_fract_x
 _atom_site_fract_y
 _atom_site_fract_z
 _atom_site_occupancy
  Bi  Bi0  1  0.80453800  0.30453800  0.50000000  1
  Bi  Bi1  1  0.48014400  0.98014400  0.50000000  1
  C  C0  1  0.15884500  0.65884500  0.50000000  1
  O  O0  1  0.06580600  0.56580600  0.50000000  1
  O  O1  1  0.96290600  0.70631700  0.25658900  1
  O  O2  1  0.91047400  0.91047400  0.00000000  1
  O  O3  1  0.38540100  0.38540100  0.00000000  1
  O  O4  1  0.44972800  0.70631700  0.74341100  1
loop_
_geom_bond_atom_site_label_1
_geom_bond_atom_site_label_2
_geom_bond_distance
_geom_bond_site_symmetry_2
Bi0 O2 2.323266 1_556
Bi0 O2 2.323266 1_545
Bi0 O3 2.540095 1_656
Bi0 O3 2.540095 1_555
Bi0 O1 2.541954 1_545
Bi0 O4 2.541954 1_555
Bi0 O4 2.541954 1_544
Bi0 O1 2.541954 1_556
Bi1 O3 2.228187 1_566
Bi1 O3 2.228187 1_555
Bi1 O2 2.475374 1_455
Bi1 O2 2.475374 1_556
C0 O4 1.290244 1_555
C0 O1 1.290244 1_455
C0 O0 1.291386 1_555
