# generated using pymatgen
data_Lu2Be24CuNi
_symmetry_space_group_name_H-M   'P 1'
_cell_length_a   7.21661477
_cell_length_b   7.19780571
_cell_length_c   7.23005000
_cell_angle_alpha   60.02415205
_cell_angle_beta   59.76623610
_cell_angle_gamma   60.25678726
_symmetry_Int_Tables_number   1
_chemical_formula_structural   Lu2Be24CuNi
_chemical_formula_sum   'Lu2 Be24 Cu1 Ni1'
_cell_volume   265.64327157
_cell_formula_units_Z   1
loop_
 _symmetry_equiv_pos_site_id
 _symmetry_equiv_pos_as_xyz
  1  'x, y, z'
loop_
 _atom_site_type_symbol
 _atom_site_label
 _atom_site_symmetry_multiplicity
 _atom_site_fract_x
 _atom_site_fract_y
 _atom_site_fract_z
 _atom_site_occupancy
  Lu  Lu0  1  0.24534218  0.25083292  0.25231971  1
  Lu  Lu1  1  0.74916708  0.75465782  0.74849380  1
  Be  Be0  1  0.29669418  0.70330582  0.06281191  1
  Be  Be1  1  0.06208934  0.93791066  0.29676653  1
  Be  Be2  1  0.70601360  0.93609528  0.06128607  1
  Be  Be3  1  0.70487729  0.06112169  0.29748813  1
  Be  Be4  1  0.06390472  0.29398640  0.70339495  1
  Be  Be5  1  0.93887831  0.29512271  0.06348711  1
  Be  Be6  1  0.93811971  0.70577897  0.29432529  1
  Be  Be7  1  0.29534626  0.93724851  0.70464328  1
  Be  Be8  1  0.29422103  0.06188029  0.93822397  1
  Be  Be9  1  0.06275149  0.70465374  0.93723705  1
  Be  Be10  1  0.79020509  0.43547867  0.56266758  1
  Be  Be11  1  0.56452133  0.20979491  0.78835234  1
  Be  Be12  1  0.21142928  0.56308012  0.43618869  1
  Be  Be13  1  0.43691988  0.78857072  0.21069808  1
  Be  Be14  1  0.78857424  0.21142576  0.43532284  1
  Be  Be15  1  0.78920107  0.56381430  0.21174422  1
  Be  Be16  1  0.43085198  0.56914802  0.78744499  1
  Be  Be17  1  0.56818514  0.78696401  0.43401660  1
  Be  Be18  1  0.56517392  0.43482608  0.21525262  1
  Be  Be19  1  0.21303599  0.43181486  0.78916475  1
  Be  Be20  1  0.21123629  0.78876371  0.56469890  1
  Be  Be21  1  0.43618570  0.21079893  0.56476060  1
  Be  Be22  1  0.99870412  0.00129588  0.99661158  1
  Be  Be23  1  0.49944897  0.50055103  0.50034633  1
  Cu  Cu0  1  0.69558858  0.30441142  0.94364368  1
  Ni  Ni0  1  0.94333522  0.05666478  0.69860841  1
loop_
_geom_bond_atom_site_label_1
_geom_bond_atom_site_label_2
_geom_bond_distance
_geom_bond_site_symmetry_2
Lu0 Ni0 2.923830 1_455
Lu1 Ni0 2.923834 1_565
Be0 Be16 2.210405 1_554
Be0 Be22 2.210922 1_464
Be0 Be12 2.214846 1_555
Be0 Be13 2.214847 1_555
Be0 Be18 2.238358 1_555
Be0 Be6 2.262816 1_455
Be0 Be8 2.262817 1_564
Be0 Be7 2.278862 1_554
Be0 Be9 2.278868 1_554
Be0 Be1 2.390109 1_555
Be0 Lu0 2.974662 1_555
Be0 Lu1 2.974663 1_554
Be1 Be14 2.213405 1_465
Be1 Be22 2.220388 1_464
Be1 Be20 2.222329 1_555
Be1 Be13 2.224398 1_555
Be1 Be12 2.224398 1_555
Be1 Be8 2.262951 1_564
Be1 Be6 2.262952 1_455
Be1 Be3 2.270369 1_465
Be1 Be5 2.270369 1_465
Be1 Lu1 2.954575 1_455
Be1 Lu0 2.954579 1_565
Be2 Be22 2.161033 1_564
Be2 Be9 2.262663 1_654
Be2 Ni0 2.289183 1_564
Be2 Be3 2.289240 1_565
Be2 Cu0 2.317449 1_564
Be2 Be6 2.385066 1_555
Be2 Lu1 2.958945 1_554
Be2 Lu0 3.020220 1_565
Be3 Be6 2.263518 1_545
Be3 Cu0 2.279364 1_554
Be3 Be5 2.376630 1_555
Be3 Lu1 2.960266 1_545
Be3 Lu0 3.020074 1_555
Be4 Be7 2.262662 1_545
Be4 Ni0 2.289183 1_455
Be4 Be5 2.289240 1_456
Be4 Cu0 2.317449 1_455
Be4 Be8 2.385066 1_555
Be4 Lu0 2.958938 1_555
Be4 Lu1 3.020219 1_455
Be5 Be8 2.263518 1_654
Be5 Cu0 2.279364 1_554
Be5 Lu0 2.960271 1_655
Be5 Lu1 3.020077 1_554
Be6 Be9 2.269300 1_654
Be6 Lu0 2.973692 1_655
Be6 Lu1 2.989116 1_555
Be7 Ni0 2.258670 1_465
Be7 Be8 2.269293 1_565
Be7 Be9 2.362347 1_555
Be7 Lu1 2.985336 1_555
Be7 Lu0 2.987304 1_565
Be8 Lu1 2.973693 1_545
Be8 Lu0 2.989122 1_556
Be9 Ni0 2.258667 1_465
Be9 Lu0 2.985342 1_556
Be9 Lu1 2.987304 1_455
Be10 Be23 2.142721 1_555
Be10 Be6 2.211769 1_555
Be10 Be17 2.227144 1_555
Be10 Be15 2.227236 1_555
Be10 Be14 2.227575 1_555
Be10 Be4 2.228507 1_655
Be10 Ni0 2.246745 1_555
Be10 Cu0 2.256500 1_555
Be10 Be16 2.265957 1_555
Be10 Be11 2.292155 1_555
Be10 Lu0 2.969174 1_655
Be10 Lu1 3.029745 1_555
Be11 Be23 2.142725 1_555
Be11 Be8 2.211770 1_555
Be11 Be19 2.227147 1_555
Be11 Be21 2.227236 1_555
Be11 Be14 2.227580 1_555
Be11 Be2 2.228502 1_546
Be11 Ni0 2.246745 1_555
Be11 Cu0 2.256494 1_555
Be11 Be16 2.265955 1_555
Be11 Lu1 2.969181 1_545
Be11 Lu0 3.029744 1_556
Be12 Be23 2.138254 1_555
Be12 Be4 2.202914 1_555
Be12 Be18 2.224721 1_555
Be12 Be6 2.229730 1_455
Be12 Be21 2.237564 1_555
Be12 Be20 2.237570 1_555
Be12 Be19 2.239459 1_555
Be12 Be13 2.290194 1_555
Be12 Lu0 2.998428 1_555
Be12 Lu1 3.014949 1_455
Be13 Be23 2.138254 1_555
Be13 Be2 2.202914 1_555
Be13 Be18 2.224721 1_555
Be13 Be8 2.229730 1_564
Be13 Be15 2.237562 1_555
Be13 Be20 2.237569 1_555
Be13 Be17 2.239466 1_555
Be13 Lu1 2.998433 1_554
Be13 Lu0 3.014953 1_565
Be14 Be23 2.141672 1_555
Be14 Be5 2.204598 1_555
Be14 Be3 2.204598 1_555
Be14 Ni0 2.213470 1_555
Be14 Be21 2.225625 1_555
Be14 Be15 2.225627 1_555
Be14 Be18 2.273957 1_555
Be14 Lu1 2.976121 1_545
Be14 Lu0 2.976121 1_655
Be15 Be23 2.129563 1_555
Be15 Be2 2.207431 1_555
Be15 Be5 2.211063 1_555
Be15 Be9 2.212082 1_654
Be15 Be18 2.213802 1_555
Be15 Be6 2.213831 1_555
Be15 Be17 2.272111 1_555
Be15 Lu0 2.991830 1_655
Be15 Lu1 3.028468 1_554
Be16 Be23 2.131744 1_555
Be16 Be9 2.183655 1_555
Be16 Be7 2.183656 1_555
Be16 Be17 2.226631 1_555
Be16 Be19 2.226635 1_555
Be16 Cu0 2.228592 1_555
Be16 Be20 2.268242 1_555
Be16 Lu1 3.025787 1_555
Be16 Lu0 3.025791 1_556
Be17 Be23 2.124425 1_555
Be17 Be6 2.194354 1_555
Be17 Be3 2.201344 1_565
Be17 Be2 2.207542 1_555
Be17 Be7 2.235470 1_555
Be17 Be20 2.248676 1_555
Be17 Lu1 3.015039 1_555
Be17 Lu0 3.046726 1_565
Be18 Be23 2.112981 1_555
Be18 Cu0 2.174264 1_554
Be18 Be21 2.213806 1_555
Be18 Be5 2.218106 1_555
Be18 Be3 2.218106 1_555
Be18 Lu0 3.034540 1_555
Be18 Lu1 3.034543 1_554
Be19 Be23 2.124422 1_555
Be19 Be8 2.194355 1_555
Be19 Be5 2.201345 1_456
Be19 Be4 2.207537 1_555
Be19 Be9 2.235471 1_555
Be19 Be20 2.248675 1_555
Be19 Be21 2.272101 1_555
Be19 Lu0 3.015052 1_556
Be19 Lu1 3.046726 1_455
Be20 Be23 2.134193 1_555
Be20 Ni0 2.162166 1_465
Be20 Be9 2.208435 1_555
Be20 Be7 2.208441 1_555
Be20 Lu0 2.994884 1_565
Be20 Lu1 2.994884 1_455
Be21 Be23 2.129560 1_555
Be21 Be4 2.207431 1_555
Be21 Be3 2.211068 1_555
Be21 Be7 2.212082 1_545
Be21 Be8 2.213826 1_555
Be21 Lu1 2.991826 1_545
Be21 Lu0 3.028468 1_555
Be22 Be4 2.161033 1_655
Be22 Be7 2.166505 1_645
Be22 Be9 2.166509 1_645
Be22 Be8 2.179141 1_655
Be22 Be6 2.179141 1_546
Be22 Be3 2.190580 1_556
Be22 Be5 2.190581 1_556
Be22 Ni0 2.193544 1_555
Be22 Cu0 2.228237 1_555
Cu0 Lu1 2.961023 1_555
Cu0 Lu0 2.961024 1_556
