# generated using pymatgen
data_SrSi2Ir2Pt
_symmetry_space_group_name_H-M   'P 1'
_cell_length_a   5.72243736
_cell_length_b   6.74197957
_cell_length_c   6.74197868
_cell_angle_alpha   64.11034850
_cell_angle_beta   64.88803881
_cell_angle_gamma   64.88802818
_symmetry_Int_Tables_number   1
_chemical_formula_structural   SrSi2Ir2Pt
_chemical_formula_sum   'Sr2 Si4 Ir4 Pt2'
_cell_volume   202.55437332
_cell_formula_units_Z   2
loop_
 _symmetry_equiv_pos_site_id
 _symmetry_equiv_pos_as_xyz
  1  'x, y, z'
loop_
 _atom_site_type_symbol
 _atom_site_label
 _atom_site_symmetry_multiplicity
 _atom_site_fract_x
 _atom_site_fract_y
 _atom_site_fract_z
 _atom_site_occupancy
  Sr  Sr0  1  0.51946961  0.75000000  0.75000000  1
  Sr  Sr1  1  0.48053039  0.25000000  0.25000000  1
  Si  Si0  1  0.23018434  0.57130284  0.57130284  1
  Si  Si1  1  0.76981566  0.42869716  0.42869716  1
  Si  Si2  1  0.12720898  0.07130284  0.07130284  1
  Si  Si3  1  0.87279102  0.92869716  0.92869716  1
  Ir  Ir0  1  0.50000000  0.21683202  0.78316798  1
  Ir  Ir1  1  1.00000000  0.71683202  0.28316798  1
  Ir  Ir2  1  0.50000000  0.78316798  0.21683202  1
  Ir  Ir3  1  0.00000000  0.28316798  0.71683202  1
  Pt  Pt0  1  0.00000000  0.50000000  0.00000000  1
  Pt  Pt1  1  0.00000000  0.00000000  0.50000000  1
loop_
_geom_bond_atom_site_label_1
_geom_bond_atom_site_label_2
_geom_bond_distance
_geom_bond_site_symmetry_2
Sr0 Sr1 3.585140 1_565
Sr0 Sr1 3.585140 1_556
Si0 Sr1 3.204238 1_555
Si0 Sr0 3.208817 1_555
Si0 Sr0 3.520429 1_455
Si1 Sr0 3.204238 1_555
Si1 Sr1 3.208817 1_555
Si1 Sr1 3.520429 1_655
Si2 Sr0 3.204239 1_544
Si2 Sr1 3.208812 1_455
Si2 Sr1 3.520434 1_555
Si3 Sr1 3.204239 1_566
Si3 Sr0 3.208812 1_655
Si3 Sr0 3.520434 1_555
Ir0 Si3 2.425260 1_545
Ir0 Si2 2.425261 1_556
Ir0 Si0 2.427865 1_555
Ir0 Si1 2.427865 1_555
Ir0 Pt0 2.866883 1_556
Ir0 Pt1 2.866883 1_655
Ir0 Sr1 3.203780 1_556
Ir0 Sr0 3.203781 1_545
Ir0 Sr1 3.549710 1_555
Ir0 Sr0 3.549710 1_555
Ir1 Si0 2.425256 1_655
Ir1 Si1 2.425257 1_555
Ir1 Si3 2.427862 1_554
Ir1 Si2 2.427863 1_665
Ir1 Pt0 2.866883 1_655
Ir1 Pt1 2.866883 1_665
Ir1 Sr1 3.203780 1_655
Ir1 Sr0 3.203780 1_555
Ir1 Sr1 3.549710 1_565
Ir1 Sr0 3.549710 1_654
Ir2 Si2 2.425260 1_565
Ir2 Si3 2.425261 1_554
Ir2 Si1 2.427865 1_555
Ir2 Si0 2.427865 1_555
Ir2 Pt0 2.866883 1_655
Ir2 Pt1 2.866883 1_565
Ir2 Sr0 3.203780 1_554
Ir2 Sr1 3.203781 1_565
Ir2 Sr0 3.549710 1_555
Ir2 Sr1 3.549710 1_555
Ir3 Si1 2.425256 1_455
Ir3 Si0 2.425257 1_555
Ir3 Si2 2.427862 1_556
Ir3 Si3 2.427863 1_445
Ir3 Pt0 2.866883 1_556
Ir3 Pt1 2.866883 1_555
Ir3 Sr0 3.203780 1_455
Ir3 Sr1 3.203780 1_555
Ir3 Sr0 3.549710 1_545
Ir3 Sr1 3.549710 1_456
Pt0 Si1 2.532296 1_455
Pt0 Si0 2.532296 1_554
Pt0 Si3 2.532297 1_454
Pt0 Si2 2.532297 1_555
Pt0 Sr1 3.280598 1_555
Pt0 Sr0 3.280598 1_454
Pt0 Sr0 3.469501 1_554
Pt0 Sr1 3.469501 1_455
Pt1 Si1 2.532296 1_455
Pt1 Si0 2.532296 1_545
Pt1 Si3 2.532297 1_445
Pt1 Si2 2.532297 1_555
Pt1 Sr1 3.280598 1_555
Pt1 Sr0 3.280598 1_445
Pt1 Sr0 3.469501 1_545
Pt1 Sr1 3.469501 1_455
