# generated using pymatgen
data_Ca3Se2(IO3)2
_symmetry_space_group_name_H-M   'P 1'
_cell_length_a   6.89506582
_cell_length_b   6.89506546
_cell_length_c   7.21591708
_cell_angle_alpha   86.13069481
_cell_angle_beta   86.13069411
_cell_angle_gamma   47.17022093
_symmetry_Int_Tables_number   1
_chemical_formula_structural   Ca3Se2(IO3)2
_chemical_formula_sum   'Ca3 Se2 I2 O6'
_cell_volume   250.90823979
_cell_formula_units_Z   1
loop_
 _symmetry_equiv_pos_site_id
 _symmetry_equiv_pos_as_xyz
  1  'x, y, z'
loop_
 _atom_site_type_symbol
 _atom_site_label
 _atom_site_symmetry_multiplicity
 _atom_site_fract_x
 _atom_site_fract_y
 _atom_site_fract_z
 _atom_site_occupancy
  Ca  Ca0  1  0.28105912  0.29295309  0.17557956  1
  Ca  Ca1  1  0.70704691  0.71894088  0.82442044  1
  Ca  Ca2  1  0.93506074  0.06493926  0.00000000  1
  Se  Se0  1  0.39784680  0.41479667  0.75982210  1
  Se  Se1  1  0.58520333  0.60215320  0.24017790  1
  I  I0  1  0.16307957  0.12814064  0.60364956  1
  I  I1  1  0.87185936  0.83692043  0.39635044  1
  O  O0  1  0.87347615  0.43712644  0.10157818  1
  O  O1  1  0.37533117  0.88502254  0.10026556  1
  O  O2  1  0.11497746  0.62466883  0.89973444  1
  O  O3  1  0.56287356  0.12652385  0.89842182  1
  O  O4  1  0.52302294  0.41383610  0.19327386  1
  O  O5  1  0.58616390  0.47697706  0.80672614  1
loop_
_geom_bond_atom_site_label_1
_geom_bond_atom_site_label_2
_geom_bond_distance
_geom_bond_site_symmetry_2
Ca0 O4 2.329855 1_555
Ca0 O0 2.345989 1_455
Ca0 O3 2.417826 1_554
Ca0 O1 2.510375 1_545
Ca0 O2 2.576177 1_554
Ca0 I1 3.221431 1_455
Ca0 I1 3.435605 1_545
Ca0 I0 3.455223 1_555
Ca1 O5 2.329855 1_555
Ca1 O3 2.345989 1_565
Ca1 O0 2.417826 1_556
Ca1 O2 2.510375 1_655
Ca1 O1 2.576178 1_556
Ca1 I0 3.221431 1_565
Ca1 I0 3.435605 1_655
Ca1 I1 3.455223 1_555
Ca2 O0 2.456314 1_555
Ca2 O3 2.456314 1_554
Ca2 O2 2.516514 1_644
Ca2 O1 2.516515 1_645
Ca2 O5 2.535584 1_554
Ca2 O4 2.535584 1_555
Ca2 I1 3.316320 1_545
Ca2 I0 3.316320 1_654
O0 Se1 1.748136 1_555
O1 Se1 1.735329 1_555
O2 Se0 1.735329 1_555
O3 Se0 1.748135 1_555
O4 Se1 1.679337 1_555
O5 Se0 1.679337 1_555
