# generated using pymatgen
data_LuMg3Ge6Ir7
_symmetry_space_group_name_H-M   'P 1'
_cell_length_a   6.94071965
_cell_length_b   7.08134587
_cell_length_c   7.08134630
_cell_angle_alpha   109.86999948
_cell_angle_beta   109.06944020
_cell_angle_gamma   109.06943284
_symmetry_Int_Tables_number   1
_chemical_formula_structural   LuMg3Ge6Ir7
_chemical_formula_sum   'Lu1 Mg3 Ge6 Ir7'
_cell_volume   269.24257593
_cell_formula_units_Z   1
loop_
 _symmetry_equiv_pos_site_id
 _symmetry_equiv_pos_as_xyz
  1  'x, y, z'
loop_
 _atom_site_type_symbol
 _atom_site_label
 _atom_site_symmetry_multiplicity
 _atom_site_fract_x
 _atom_site_fract_y
 _atom_site_fract_z
 _atom_site_occupancy
  Lu  Lu0  1  0.50000000  0.00000000  0.00000000  1
  Mg  Mg0  1  0.50000000  0.50000000  0.50000000  1
  Mg  Mg1  1  0.00000000  0.00000000  0.50000000  1
  Mg  Mg2  1  0.00000000  0.50000000  0.00000000  1
  Ge  Ge0  1  0.00673290  0.31340954  0.31340954  1
  Ge  Ge1  1  0.99326710  0.68659046  0.68659046  1
  Ge  Ge2  1  0.30667764  0.00000000  0.31340954  1
  Ge  Ge3  1  0.69332236  0.00000000  0.68659046  1
  Ge  Ge4  1  0.30667764  0.31340954  0.00000000  1
  Ge  Ge5  1  0.69332236  0.68659046  1.00000000  1
  Ir  Ir0  1  0.50000000  0.74769455  0.25230545  1
  Ir  Ir1  1  0.50000000  0.25230545  0.74769455  1
  Ir  Ir2  1  0.24769455  0.49538909  0.74769455  1
  Ir  Ir3  1  0.75230545  0.50461091  0.25230545  1
  Ir  Ir4  1  0.75230545  0.25230545  0.50461091  1
  Ir  Ir5  1  0.24769455  0.74769455  0.49538909  1
  Ir  Ir6  1  0.00000000  0.00000000  0.00000000  1
loop_
_geom_bond_atom_site_label_1
_geom_bond_atom_site_label_2
_geom_bond_distance
_geom_bond_site_symmetry_2
Ge0 Ir6 2.523787 1_555
Ge0 Ir5 2.540137 1_555
Ge0 Ir2 2.540137 1_555
Ge0 Ir3 2.569080 1_455
Ge0 Ir4 2.569080 1_455
Ge0 Mg0 2.848574 1_555
Ge0 Mg1 2.939321 1_555
Ge0 Mg2 2.939321 1_555
Ge0 Lu0 2.944804 1_455
Ge1 Ir6 2.523787 1_666
Ge1 Ir4 2.540137 1_555
Ge1 Ir3 2.540137 1_555
Ge1 Ir2 2.569080 1_655
Ge1 Ir5 2.569080 1_655
Ge1 Mg0 2.848574 1_555
Ge1 Mg1 2.939321 1_665
Ge1 Mg2 2.939321 1_656
Ge1 Lu0 2.944804 1_666
Ge2 Ir6 2.523791 1_555
Ge2 Ir5 2.540138 1_545
Ge2 Ir1 2.540138 1_555
Ge2 Ir0 2.569075 1_545
Ge2 Ir4 2.569075 1_555
Ge2 Mg1 2.848580 1_555
Ge2 Mg0 2.939321 1_555
Ge2 Mg2 2.939321 1_545
Ge2 Lu0 2.944800 1_555
Ge3 Ir6 2.523791 1_656
Ge3 Ir4 2.540138 1_555
Ge3 Ir0 2.540138 1_545
Ge3 Ir1 2.569075 1_555
Ge3 Ir5 2.569075 1_545
Ge3 Mg1 2.848580 1_655
Ge3 Mg0 2.939321 1_545
Ge3 Mg2 2.939321 1_656
Ge3 Lu0 2.944800 1_556
Ge4 Ir6 2.523791 1_555
Ge4 Ir0 2.540137 1_555
Ge4 Ir2 2.540138 1_554
Ge4 Ir3 2.569075 1_555
Ge4 Ir1 2.569075 1_554
Ge4 Mg2 2.848580 1_555
Ge4 Mg1 2.939321 1_554
Ge4 Mg0 2.939322 1_555
Ge4 Lu0 2.944799 1_555
Ge5 Ir6 2.523791 1_666
Ge5 Ir1 2.540137 1_555
Ge5 Ir3 2.540138 1_556
Ge5 Ir2 2.569075 1_555
Ge5 Ir0 2.569075 1_556
Ge5 Mg2 2.848580 1_656
Ge5 Mg1 2.939321 1_666
Ge5 Mg0 2.939322 1_555
Ge5 Lu0 2.944799 1_566
Ir0 Mg2 2.855326 1_555
Ir0 Mg1 2.855326 1_665
Ir0 Mg0 2.871319 1_555
Ir0 Lu0 2.924769 1_565
Ir1 Mg2 2.855326 1_656
Ir1 Mg1 2.855326 1_555
Ir1 Mg0 2.871319 1_555
Ir1 Lu0 2.924769 1_556
Ir2 Mg2 2.855326 1_556
Ir2 Mg0 2.855326 1_555
Ir2 Mg1 2.871318 1_555
Ir2 Lu0 2.924769 1_566
Ir3 Mg2 2.855326 1_655
Ir3 Mg0 2.855326 1_555
Ir3 Mg1 2.871318 1_665
Ir3 Lu0 2.924769 1_555
Ir4 Mg0 2.855326 1_555
Ir4 Mg1 2.855326 1_655
Ir4 Mg2 2.871319 1_656
Ir4 Lu0 2.924769 1_555
Ir5 Mg0 2.855326 1_555
Ir5 Mg1 2.855326 1_565
Ir5 Mg2 2.871319 1_555
Ir5 Lu0 2.924769 1_566
