# generated using pymatgen
data_Ba2AlPtI
_symmetry_space_group_name_H-M   'P 1'
_cell_length_a   4.47551289
_cell_length_b   4.47551400
_cell_length_c   19.76377927
_cell_angle_alpha   90.00000000
_cell_angle_beta   90.00000000
_cell_angle_gamma   120.00002085
_symmetry_Int_Tables_number   1
_chemical_formula_structural   Ba2AlPtI
_chemical_formula_sum   'Ba4 Al2 Pt2 I2'
_cell_volume   342.83588033
_cell_formula_units_Z   2
loop_
 _symmetry_equiv_pos_site_id
 _symmetry_equiv_pos_as_xyz
  1  'x, y, z'
loop_
 _atom_site_type_symbol
 _atom_site_label
 _atom_site_symmetry_multiplicity
 _atom_site_fract_x
 _atom_site_fract_y
 _atom_site_fract_z
 _atom_site_occupancy
  Ba  Ba0  1  0.00000000  0.00000000  0.38446440  1
  Ba  Ba1  1  0.00000000  0.00000000  0.88446440  1
  Ba  Ba2  1  0.00000000  0.00000000  0.61597544  1
  Ba  Ba3  1  0.00000000  0.00000000  0.11597544  1
  Al  Al0  1  0.33333300  0.66666700  0.50072746  1
  Al  Al1  1  0.66666700  0.33333300  0.00072746  1
  Pt  Pt0  1  0.66666700  0.33333300  0.49915364  1
  Pt  Pt1  1  0.33333300  0.66666700  0.99915364  1
  I  I0  1  0.33333300  0.66666700  0.24967906  1
  I  I1  1  0.66666700  0.33333300  0.74967906  1
loop_
_geom_bond_atom_site_label_1
_geom_bond_atom_site_label_2
_geom_bond_distance
_geom_bond_site_symmetry_2
Ba0 Pt0 3.437241 1_455
Ba0 Pt0 3.437243 1_555
Ba0 Pt0 3.437243 1_445
Ba0 I0 3.711189 1_545
Ba0 I0 3.711190 1_445
Ba0 I0 3.711191 1_555
Ba1 Pt1 3.437241 1_545
Ba1 Pt1 3.437243 1_445
Ba1 Pt1 3.437243 1_555
Ba1 I1 3.711189 1_455
Ba1 I1 3.711190 1_555
Ba1 I1 3.711191 1_445
Ba2 Pt0 3.465180 1_455
Ba2 Pt0 3.465182 1_555
Ba2 Pt0 3.465182 1_445
Ba2 I1 3.695873 1_455
Ba2 I1 3.695875 1_555
Ba2 I1 3.695875 1_445
Ba3 Pt1 3.465180 1_544
Ba3 Pt1 3.465182 1_444
Ba3 Pt1 3.465182 1_554
Ba3 I0 3.695873 1_545
Ba3 I0 3.695875 1_445
Ba3 I0 3.695875 1_555
Al0 Pt0 2.584123 1_455
Al0 Pt0 2.584123 1_565
Al0 Pt0 2.584132 1_555
Al0 Ba2 3.444533 1_565
Al0 Ba2 3.444535 1_665
Al0 Ba2 3.444536 1_555
Al0 Ba0 3.457832 1_565
Al0 Ba0 3.457834 1_665
Al0 Ba0 3.457834 1_555
Al1 Pt1 2.584123 1_654
Al1 Pt1 2.584123 1_544
Al1 Pt1 2.584132 1_554
Al1 Ba3 3.444533 1_655
Al1 Ba3 3.444535 1_555
Al1 Ba3 3.444536 1_665
Al1 Ba1 3.457832 1_654
Al1 Ba1 3.457834 1_554
Al1 Ba1 3.457834 1_664
