# generated using pymatgen
data_CrSi12(P4Rh)3
_symmetry_space_group_name_H-M   'P 1'
_cell_length_a   5.87940744
_cell_length_b   6.08090435
_cell_length_c   13.10383442
_cell_angle_alpha   89.84029631
_cell_angle_beta   90.18648783
_cell_angle_gamma   90.28338010
_symmetry_Int_Tables_number   1
_chemical_formula_structural   CrSi12(P4Rh)3
_chemical_formula_sum   'Cr1 Si12 P12 Rh3'
_cell_volume   468.47977537
_cell_formula_units_Z   1
loop_
 _symmetry_equiv_pos_site_id
 _symmetry_equiv_pos_as_xyz
  1  'x, y, z'
loop_
 _atom_site_type_symbol
 _atom_site_label
 _atom_site_symmetry_multiplicity
 _atom_site_fract_x
 _atom_site_fract_y
 _atom_site_fract_z
 _atom_site_occupancy
  Cr  Cr0  1  0.02737900  0.51719466  0.38736503  1
  Si  Si0  1  0.97196637  0.15507381  0.31350070  1
  Si  Si1  1  0.46701229  0.84084154  0.68250118  1
  Si  Si2  1  0.93232594  0.62203775  0.21196104  1
  Si  Si3  1  0.43090277  0.37336682  0.78632219  1
  Si  Si4  1  0.34206032  0.91393409  0.95074288  1
  Si  Si5  1  0.84189011  0.08423337  0.04751154  1
  Si  Si6  1  0.91459939  0.53075564  0.67449317  1
  Si  Si7  1  0.41923536  0.46885701  0.32506389  1
  Si  Si8  1  0.99470177  0.06348264  0.57052972  1
  Si  Si9  1  0.49404080  0.94272594  0.42958012  1
  Si  Si10  1  0.91207298  0.62649528  0.92754740  1
  Si  Si11  1  0.41131932  0.37224234  0.07169093  1
  P  P0  1  0.57798702  0.03051824  0.82522734  1
  P  P1  1  0.07978021  0.96447528  0.17206691  1
  P  P2  1  0.52006624  0.56107248  0.93031819  1
  P  P3  1  0.02015745  0.43616530  0.06827093  1
  P  P4  1  0.60863727  0.11491877  0.57341433  1
  P  P5  1  0.10838364  0.89157081  0.42726929  1
  P  P6  1  0.54648068  0.64169503  0.17951096  1
  P  P7  1  0.04458122  0.35862391  0.81942818  1
  P  P8  1  0.58236614  0.13064244  0.28800018  1
  P  P9  1  0.07918921  0.86881849  0.71056152  1
  P  P10  1  0.15272795  0.40097372  0.55703657  1
  P  P11  1  0.64555955  0.60514288  0.44925247  1
  Rh  Rh0  1  0.96609270  0.98675184  0.87893426  1
  Rh  Rh1  1  0.46669813  0.01185385  0.11949205  1
  Rh  Rh2  1  0.53558616  0.48553408  0.62240703  1
loop_
_geom_bond_atom_site_label_1
_geom_bond_atom_site_label_2
_geom_bond_distance
_geom_bond_site_symmetry_2
Cr0 P5 2.382687 1_555
Cr0 Si0 2.427883 1_455
Cr0 P10 2.443686 1_555
Cr0 Si2 2.447185 1_455
Cr0 P11 2.451382 1_455
Cr0 Si7 2.465976 1_555
P0 Si4 2.265048 1_545
P0 Si1 2.291412 1_545
P0 Si3 2.315876 1_555
P0 Rh0 2.401537 1_545
P1 Si5 2.266952 1_465
P1 Si0 2.281845 1_465
P1 Si2 2.310844 1_455
P1 Rh1 2.394823 1_565
P2 Si3 2.266648 1_555
P2 Si11 2.268860 1_556
P2 Si10 2.337292 1_555
P2 Si4 2.407962 1_555
P3 Si2 2.261289 1_455
P3 Si10 2.265282 1_454
P3 Si11 2.334579 1_555
P3 Si5 2.394077 1_455
P4 Si9 2.257985 1_545
P4 Si8 2.293259 1_555
P4 Si1 2.344164 1_545
P4 Rh2 2.386444 1_555
P5 Si8 2.256032 1_465
P5 Si9 2.287263 1_555
P5 Si0 2.329138 1_465
P6 Si7 2.300533 1_555
P6 Si11 2.303283 1_555
P6 Si2 2.310303 1_555
P6 Rh1 2.429672 1_565
P7 Si6 2.296519 1_455
P7 Si10 2.302200 1_455
P7 Si3 2.315040 1_555
P7 Rh0 2.432432 1_445
P8 Si9 2.237396 1_545
P8 Si0 2.317885 1_555
P8 Si7 2.326736 1_555
P8 Rh1 2.419552 1_555
P9 Si8 2.236694 1_465
P9 Si6 2.317021 1_455
P9 Si1 2.317965 1_555
P9 Rh0 2.418142 1_455
P10 Si6 2.232405 1_455
P10 Si8 2.255307 1_455
P10 Rh2 2.458361 1_555
P11 Si9 2.255598 1_555
P11 Si7 2.255708 1_555
P11 Rh2 2.468011 1_555
Rh0 Si10 2.300527 1_555
Rh0 Si5 2.405500 1_566
Rh0 Si4 2.441613 1_655
Rh1 Si11 2.301968 1_555
Rh1 Si4 2.402851 1_544
Rh1 Si5 2.439474 1_555
Rh2 Si3 2.335353 1_555
Rh2 Si1 2.339010 1_555
Rh2 Si6 2.343543 1_555
