# generated using pymatgen
data_Zr6Si5PRu6
_symmetry_space_group_name_H-M   'P 1'
_cell_length_a   7.59386245
_cell_length_b   7.59715761
_cell_length_c   7.59649147
_cell_angle_alpha   128.09381206
_cell_angle_beta   121.29471629
_cell_angle_gamma   82.15029306
_symmetry_Int_Tables_number   1
_chemical_formula_structural   Zr6Si5PRu6
_chemical_formula_sum   'Zr6 Si5 P1 Ru6'
_cell_volume   283.49268469
_cell_formula_units_Z   1
loop_
 _symmetry_equiv_pos_site_id
 _symmetry_equiv_pos_as_xyz
  1  'x, y, z'
loop_
 _atom_site_type_symbol
 _atom_site_label
 _atom_site_symmetry_multiplicity
 _atom_site_fract_x
 _atom_site_fract_y
 _atom_site_fract_z
 _atom_site_occupancy
  Zr  Zr0  1  0.47391266  0.69817903  0.73013332  1
  Zr  Zr1  1  0.53283771  0.25982076  0.23289125  1
  Zr  Zr2  1  0.74954180  0.83062839  0.58621129  1
  Zr  Zr3  1  0.24991755  0.83369467  0.08078380  1
  Zr  Zr4  1  0.05076244  0.25796254  0.70536576  1
  Zr  Zr5  1  0.94866426  0.65316404  0.20314863  1
  Si  Si0  1  0.27178279  0.27014706  0.49602141  1
  Si  Si1  1  0.72463812  0.22158659  0.99325830  1
  Si  Si2  1  0.32917191  0.58734736  0.25111540  1
  Si  Si3  1  0.67255804  0.92089369  0.26172437  1
  Si  Si4  1  0.16377519  0.92315459  0.74932372  1
  P  P0  1  0.83978542  0.58748225  0.76130071  1
  Ru  Ru0  1  0.50052339  0.49745399  0.99771078  1
  Ru  Ru1  1  0.99537971  0.49571131  0.49373915  1
  Ru  Ru2  1  0.09675276  0.25358602  0.10550556  1
  Ru  Ru3  1  0.90080385  0.00541035  0.15291872  1
  Ru  Ru4  1  0.35147237  0.00797603  0.60358391  1
  Ru  Ru5  1  0.64771905  0.25540234  0.65486292  1
loop_
_geom_bond_atom_site_label_1
_geom_bond_atom_site_label_2
_geom_bond_distance
_geom_bond_site_symmetry_2
Si0 Zr0 2.735851 1_555
Si0 Zr3 2.769958 1_545
Si0 Zr4 2.889909 1_555
Si1 Zr1 2.739706 1_556
Si1 Zr2 2.746029 1_545
Si1 Zr5 2.905473 1_556
Si2 Zr1 2.710879 1_555
Si2 Zr3 2.722218 1_555
Si2 Zr2 2.729574 1_555
Si2 Zr4 2.730875 1_554
Si2 Zr5 2.732851 1_455
Si2 Zr0 2.734123 1_555
Si3 Zr2 2.714269 1_555
Si3 Zr0 2.717267 1_554
Si3 Zr5 2.723764 1_555
Si3 Zr4 2.732875 1_665
Si3 Zr3 2.739178 1_555
Si3 Zr1 2.740797 1_565
Si4 Zr2 2.721114 1_455
Si4 Zr0 2.727441 1_555
Si4 Zr5 2.731905 1_455
Si4 Zr4 2.733482 1_565
Si4 Zr3 2.740217 1_556
Si4 Zr1 2.749527 1_566
P0 Ru5 2.531570 1_555
P0 Ru3 2.541809 1_566
P0 Ru1 2.556312 1_555
P0 Zr3 2.688152 1_656
P0 Zr1 2.697732 1_555
P0 Zr4 2.704366 1_655
P0 Zr5 2.713235 1_556
P0 Zr2 2.718422 1_555
P0 Zr0 2.721543 1_555
Ru0 Si1 2.507600 1_555
Ru0 Si0 2.518941 1_555
Ru0 Si3 2.557890 1_556
Ru0 Si2 2.569532 1_556
Ru0 Ru4 2.822195 1_555
Ru0 Ru5 2.822677 1_555
Ru0 Zr3 2.911343 1_556
Ru0 Zr2 2.920771 1_556
Ru0 Zr5 2.953027 1_556
Ru0 Zr4 2.956224 1_555
Ru0 Zr0 3.132368 1_555
Ru0 Zr1 3.148726 1_556
Ru1 Si1 2.509562 1_554
Ru1 Si0 2.521689 1_655
Ru1 Si4 2.593360 1_655
Ru1 Ru2 2.819936 1_655
Ru1 Ru3 2.827214 1_555
Ru1 Zr2 2.883082 1_555
Ru1 Zr3 2.913422 1_656
Ru1 Zr4 2.949021 1_655
Ru1 Zr5 2.959455 1_555
Ru1 Zr1 3.095577 1_555
Ru1 Zr0 3.183587 1_655
Ru2 Si0 2.464088 1_555
Ru2 Si1 2.489964 1_454
Ru2 Si2 2.549813 1_555
Ru2 Si4 2.565628 1_544
Ru2 Ru3 2.838974 1_455
Ru2 Zr5 2.861081 1_455
Ru2 Zr4 2.895043 1_554
Ru2 Zr1 2.926139 1_555
Ru2 Zr2 2.950715 1_444
Ru2 Zr3 3.168332 1_545
Ru3 Si1 2.475879 1_554
Ru3 Si0 2.495220 1_655
Ru3 Si3 2.558674 1_545
Ru3 Zr0 2.876210 1_544
Ru3 Zr4 2.878650 1_655
Ru3 Zr5 2.879107 1_545
Ru3 Zr3 2.951785 1_645
Ru3 Zr2 3.137112 1_544
Ru3 Zr1 3.279068 1_555
Ru4 Si1 2.457742 1_555
Ru4 Si0 2.483172 1_555
Ru4 Si4 2.538329 1_545
Ru4 Si2 2.555142 1_545
Ru4 Zr4 2.873512 1_555
Ru4 Zr5 2.888603 1_445
Ru4 Zr0 2.931458 1_545
Ru4 Zr3 2.954486 1_545
Ru4 Zr2 3.170664 1_545
Ru5 Si0 2.473708 1_555
Ru5 Si1 2.495843 1_555
Ru5 Si3 2.549978 1_545
Ru5 Zr5 2.858258 1_556
Ru5 Zr1 2.873506 1_555
Ru5 Zr4 2.881384 1_655
Ru5 Zr2 2.990754 1_545
Ru5 Zr3 3.182106 1_545
