# generated using pymatgen
data_K6PbSe4
_symmetry_space_group_name_H-M   'P 1'
_cell_length_a   10.70902694
_cell_length_b   10.70902673
_cell_length_c   8.05543390
_cell_angle_alpha   90.00000000
_cell_angle_beta   90.00000000
_cell_angle_gamma   120.00000064
_symmetry_Int_Tables_number   1
_chemical_formula_structural   K6PbSe4
_chemical_formula_sum   'K12 Pb2 Se8'
_cell_volume   800.05451517
_cell_formula_units_Z   2
loop_
 _symmetry_equiv_pos_site_id
 _symmetry_equiv_pos_as_xyz
  1  'x, y, z'
loop_
 _atom_site_type_symbol
 _atom_site_label
 _atom_site_symmetry_multiplicity
 _atom_site_fract_x
 _atom_site_fract_y
 _atom_site_fract_z
 _atom_site_occupancy
  K  K0  1  0.14635782  0.29271564  0.21029893  1
  K  K1  1  0.14635782  0.85364218  0.21029893  1
  K  K2  1  0.70728436  0.85364218  0.21029893  1
  K  K3  1  0.85364218  0.70728436  0.71029993  1
  K  K4  1  0.85364218  0.14635782  0.71029993  1
  K  K5  1  0.29271564  0.14635782  0.71029993  1
  K  K6  1  0.53060508  0.06120817  0.37475079  1
  K  K7  1  0.53060508  0.46939492  0.37475079  1
  K  K8  1  0.93879183  0.46939492  0.37475079  1
  K  K9  1  0.46939492  0.93879183  0.87475079  1
  K  K10  1  0.46939492  0.53060508  0.87475079  1
  K  K11  1  0.06120817  0.53060508  0.87475079  1
  Pb  Pb0  1  0.33333300  0.66666700  0.49880899  1
  Pb  Pb1  1  0.66666700  0.33333300  0.99880899  1
  Se  Se0  1  0.33333300  0.66666700  0.13589423  1
  Se  Se1  1  0.66666700  0.33333300  0.63589423  1
  Se  Se2  1  0.81709432  0.63418865  0.11103121  1
  Se  Se3  1  0.81709432  0.18290568  0.11103121  1
  Se  Se4  1  0.36581135  0.18290568  0.11103121  1
  Se  Se5  1  0.18290568  0.36581135  0.61103121  1
  Se  Se6  1  0.18290568  0.81709432  0.61103121  1
  Se  Se7  1  0.63418865  0.81709432  0.61103121  1
loop_
_geom_bond_atom_site_label_1
_geom_bond_atom_site_label_2
_geom_bond_distance
_geom_bond_site_symmetry_2
K0 Se3 3.210778 1_455
K0 Se4 3.210778 1_555
K0 Se5 3.298487 1_555
K0 Se0 3.519543 1_555
K1 Se4 3.210778 1_565
K1 Se2 3.210778 1_455
K1 Se6 3.298487 1_555
K1 Se0 3.519534 1_555
K2 Se3 3.210778 1_565
K2 Se2 3.210778 1_555
K2 Se7 3.298487 1_555
K2 Se0 3.519543 1_555
K3 Se6 3.210780 1_655
K3 Se7 3.210780 1_555
K3 Se2 3.298479 1_556
K3 Se1 3.519544 1_555
K4 Se7 3.210780 1_545
K4 Se5 3.210780 1_655
K4 Se3 3.298479 1_556
K4 Se1 3.519535 1_555
K5 Se6 3.210780 1_545
K5 Se5 3.210780 1_555
K5 Se4 3.298479 1_556
K5 Se1 3.519544 1_555
K6 Se1 3.285517 1_555
K6 Se3 3.409660 1_555
K6 Se4 3.409675 1_555
K6 Pb0 3.793101 1_545
K6 Se7 3.819328 1_545
K6 Se6 3.819341 1_545
K6 Pb1 3.942136 1_554
K7 Se1 3.285510 1_555
K7 Se4 3.409661 1_555
K7 Se2 3.409661 1_555
K7 Pb0 3.793128 1_555
K7 Se7 3.819346 1_555
K7 Se5 3.819346 1_555
K7 Pb1 3.942130 1_554
K8 Se1 3.285517 1_555
K8 Se3 3.409660 1_555
K8 Se2 3.409675 1_555
K8 Pb0 3.793101 1_655
K8 Se5 3.819328 1_655
K8 Se6 3.819341 1_655
K8 Pb1 3.942136 1_554
K9 Se0 3.285517 1_556
K9 Se6 3.409660 1_555
K9 Se7 3.409675 1_555
K9 Pb1 3.793101 1_565
K9 Se4 3.819328 1_566
K9 Se3 3.819341 1_566
K9 Pb0 3.942136 1_555
K10 Se0 3.285510 1_556
K10 Se7 3.409661 1_555
K10 Se5 3.409661 1_555
K10 Pb1 3.793128 1_555
K10 Se4 3.819346 1_556
K10 Se2 3.819346 1_556
K10 Pb0 3.942130 1_555
K11 Se0 3.285517 1_556
K11 Se6 3.409660 1_555
K11 Se5 3.409675 1_555
K11 Pb1 3.793101 1_455
K11 Se2 3.819328 1_456
K11 Se3 3.819341 1_456
K11 Pb0 3.942136 1_555
Pb0 Se0 2.923436 1_555
Pb0 Se6 2.933002 1_555
Pb0 Se5 2.933011 1_555
Pb0 Se7 2.933011 1_555
Pb1 Se1 2.923436 1_555
Pb1 Se3 2.933002 1_556
Pb1 Se2 2.933011 1_556
Pb1 Se4 2.933011 1_556
