# generated using pymatgen
data_Ca2RuRhO6
_symmetry_space_group_name_H-M   'P 1'
_cell_length_a   5.34234332
_cell_length_b   5.55867530
_cell_length_c   7.65891122
_cell_angle_alpha   90.00000000
_cell_angle_beta   89.50824044
_cell_angle_gamma   90.00000000
_symmetry_Int_Tables_number   1
_chemical_formula_structural   Ca2RuRhO6
_chemical_formula_sum   'Ca4 Ru2 Rh2 O12'
_cell_volume   227.43334532
_cell_formula_units_Z   2
loop_
 _symmetry_equiv_pos_site_id
 _symmetry_equiv_pos_as_xyz
  1  'x, y, z'
loop_
 _atom_site_type_symbol
 _atom_site_label
 _atom_site_symmetry_multiplicity
 _atom_site_fract_x
 _atom_site_fract_y
 _atom_site_fract_z
 _atom_site_occupancy
  Ca  Ca0  1  0.51724488  0.56235019  0.25129710  1
  Ca  Ca1  1  0.98275512  0.06235019  0.24870290  1
  Ca  Ca2  1  0.48275512  0.43764981  0.74870290  1
  Ca  Ca3  1  0.01724488  0.93764981  0.75129710  1
  Ru  Ru0  1  0.50000000  0.00000000  0.00000000  1
  Ru  Ru1  1  0.00000000  0.50000000  0.50000000  1
  Rh  Rh0  1  0.50000000  0.00000000  0.50000000  1
  Rh  Rh1  1  0.00000000  0.50000000  0.00000000  1
  O  O0  1  0.40074360  0.97246647  0.24611496  1
  O  O1  1  0.09925640  0.47246647  0.25388504  1
  O  O2  1  0.59925640  0.02753353  0.75388504  1
  O  O3  1  0.90074360  0.52753353  0.74611496  1
  O  O4  1  0.80033234  0.80519976  0.04804269  1
  O  O5  1  0.69966766  0.30519976  0.45195731  1
  O  O6  1  0.19140113  0.20632475  0.55155056  1
  O  O7  1  0.30859887  0.70632475  0.94844944  1
  O  O8  1  0.19966766  0.19480024  0.95195731  1
  O  O9  1  0.30033234  0.69480024  0.54804269  1
  O  O10  1  0.80859887  0.79367525  0.44844944  1
  O  O11  1  0.69140113  0.29367525  0.05155056  1
loop_
_geom_bond_atom_site_label_1
_geom_bond_atom_site_label_2
_geom_bond_distance
_geom_bond_site_symmetry_2
Ca0 O1 2.288171 1_555
Ca0 O5 2.319610 1_555
Ca0 O11 2.326393 1_555
Ca0 O0 2.363560 1_555
Ca0 O10 2.529136 1_555
Ca0 O4 2.548023 1_555
Ca0 O9 2.646715 1_555
Ca0 O7 2.703209 1_554
Ca1 O0 2.288171 1_645
Ca1 O4 2.319610 1_545
Ca1 O10 2.326393 1_545
Ca1 O1 2.363560 1_655
Ca1 O11 2.529136 1_555
Ca1 O5 2.548023 1_555
Ca1 O8 2.646715 1_654
Ca1 O6 2.703209 1_655
Ca2 O3 2.288171 1_555
Ca2 O9 2.319610 1_555
Ca2 O7 2.326393 1_555
Ca2 O2 2.363560 1_555
Ca2 O6 2.529136 1_555
Ca2 O8 2.548023 1_555
Ca2 O5 2.646715 1_555
Ca2 O11 2.703209 1_556
Ca3 O2 2.288171 1_465
Ca3 O8 2.319610 1_565
Ca3 O6 2.326393 1_565
Ca3 O3 2.363560 1_455
Ca3 O7 2.529136 1_555
Ca3 O9 2.548023 1_555
Ca3 O4 2.646715 1_456
Ca3 O10 2.703209 1_455
O0 Ru0 1.959736 1_565
O0 Rh0 2.025664 1_565
O1 Ru1 1.959736 1_555
O1 Rh1 2.025664 1_555
O2 Ru0 1.959736 1_556
O2 Rh0 2.025664 1_555
O3 Ru1 1.959736 1_655
O3 Rh1 2.025664 1_656
O4 Ru0 1.972917 1_565
O4 Rh1 2.035834 1_655
O5 Ru1 1.972917 1_655
O5 Rh0 2.035834 1_555
O6 Ru1 1.968060 1_555
O6 Rh0 2.044038 1_555
O7 Ru0 1.968060 1_566
O7 Rh1 2.044038 1_556
O8 Ru0 1.972917 1_556
O8 Rh1 2.035834 1_556
O9 Ru1 1.972917 1_555
O9 Rh0 2.035834 1_565
O10 Ru1 1.968060 1_655
O10 Rh0 2.044038 1_565
O11 Ru0 1.968060 1_555
O11 Rh1 2.044038 1_655
