# generated using pymatgen
data_Li2CaSb2Pb
_symmetry_space_group_name_H-M   'P 1'
_cell_length_a   4.72120667
_cell_length_b   7.63272339
_cell_length_c   8.47344215
_cell_angle_alpha   90.00000000
_cell_angle_beta   90.00000000
_cell_angle_gamma   90.00000000
_symmetry_Int_Tables_number   1
_chemical_formula_structural   Li2CaSb2Pb
_chemical_formula_sum   'Li4 Ca2 Sb4 Pb2'
_cell_volume   305.34611900
_cell_formula_units_Z   2
loop_
 _symmetry_equiv_pos_site_id
 _symmetry_equiv_pos_as_xyz
  1  'x, y, z'
loop_
 _atom_site_type_symbol
 _atom_site_label
 _atom_site_symmetry_multiplicity
 _atom_site_fract_x
 _atom_site_fract_y
 _atom_site_fract_z
 _atom_site_occupancy
  Li  Li0  1  0.75000000  0.86184621  0.44035471  1
  Li  Li1  1  0.25000000  0.14300327  0.58594939  1
  Li  Li2  1  0.25000000  0.64300327  0.91405061  1
  Li  Li3  1  0.75000000  0.36184621  0.05964529  1
  Ca  Ca0  1  0.25000000  0.50779577  0.29017848  1
  Ca  Ca1  1  0.25000000  0.00779577  0.20982152  1
  Sb  Sb0  1  0.75000000  0.73681966  0.11034956  1
  Sb  Sb1  1  0.25000000  0.25931945  0.91373972  1
  Sb  Sb2  1  0.75000000  0.23681966  0.38965044  1
  Sb  Sb3  1  0.25000000  0.75931945  0.58626028  1
  Pb  Pb0  1  0.75000000  0.49121564  0.67486403  1
  Pb  Pb1  1  0.75000000  0.99121564  0.82513597  1
loop_
_geom_bond_atom_site_label_1
_geom_bond_atom_site_label_2
_geom_bond_distance
_geom_bond_site_symmetry_2
Li0 Sb3 2.777290 1_655
Li0 Sb3 2.777290 1_555
Li0 Sb2 2.894137 1_565
Li0 Sb0 2.954633 1_555
Li0 Pb1 3.406669 1_555
Li0 Pb0 3.457074 1_555
Li1 Sb1 2.915953 1_555
Li1 Sb3 2.928554 1_545
Li1 Sb2 2.975209 1_455
Li1 Sb2 2.975209 1_555
Li1 Pb1 3.319991 1_445
Li1 Pb1 3.319991 1_545
Li2 Sb3 2.915953 1_555
Li2 Sb1 2.928554 1_555
Li2 Sb0 2.975209 1_556
Li2 Sb0 2.975209 1_456
Li2 Pb0 3.319991 1_455
Li2 Pb0 3.319991 1_555
Li3 Sb1 2.777290 1_554
Li3 Sb1 2.777290 1_654
Li3 Sb0 2.894137 1_555
Li3 Sb2 2.954633 1_555
Li3 Pb0 3.406669 1_554
Li3 Pb1 3.457074 1_544
Ca0 Sb3 3.159100 1_555
Ca0 Sb2 3.249720 1_455
Ca0 Sb2 3.249720 1_555
Ca0 Sb0 3.309092 1_455
Ca0 Sb0 3.309092 1_555
Ca1 Sb1 3.159100 1_554
Ca1 Sb0 3.249720 1_445
Ca1 Sb0 3.249720 1_545
Ca1 Sb2 3.309092 1_455
Ca1 Sb2 3.309092 1_555
Pb0 Sb2 3.100156 1_555
Pb0 Sb3 3.213054 1_555
Pb0 Sb3 3.213054 1_655
Pb1 Sb0 3.100156 1_556
Pb1 Sb1 3.213054 1_665
Pb1 Sb1 3.213054 1_565
