# generated using pymatgen
data_Lu4V4O13
_symmetry_space_group_name_H-M   'P 1'
_cell_length_a   7.04527478
_cell_length_b   7.04527478
_cell_length_c   12.47600752
_cell_angle_alpha   72.19429550
_cell_angle_beta   72.19429550
_cell_angle_gamma   61.28819784
_symmetry_Int_Tables_number   1
_chemical_formula_structural   Lu4V4O13
_chemical_formula_sum   'Lu8 V8 O26'
_cell_volume   507.65528388
_cell_formula_units_Z   2
loop_
 _symmetry_equiv_pos_site_id
 _symmetry_equiv_pos_as_xyz
  1  'x, y, z'
loop_
 _atom_site_type_symbol
 _atom_site_label
 _atom_site_symmetry_multiplicity
 _atom_site_fract_x
 _atom_site_fract_y
 _atom_site_fract_z
 _atom_site_occupancy
  Lu  Lu0  1  0.25374300  0.25374300  0.75574400  1
  Lu  Lu1  1  0.74847200  0.26655700  0.72949000  1
  Lu  Lu2  1  0.26655700  0.74847200  0.72949000  1
  Lu  Lu3  1  0.74625700  0.74625700  0.24425600  1
  Lu  Lu4  1  0.73344300  0.25152800  0.27051000  1
  Lu  Lu5  1  0.50000000  0.50000000  0.00000000  1
  Lu  Lu6  1  0.25152800  0.73344300  0.27051000  1
  Lu  Lu7  1  0.00000000  0.00000000  0.00000000  1
  V  V0  1  0.25697900  0.25697900  0.24590900  1
  V  V1  1  0.00000000  0.50000000  0.00000000  1
  V  V2  1  0.50000000  0.50000000  0.50000000  1
  V  V3  1  0.50000000  0.00000000  0.00000000  1
  V  V4  1  0.00000000  0.00000000  0.50000000  1
  V  V5  1  0.74302100  0.74302100  0.75409100  1
  V  V6  1  0.50000000  0.00000000  0.50000000  1
  V  V7  1  0.00000000  0.50000000  0.50000000  1
  O  O0  1  0.56381400  0.95479000  0.84245500  1
  O  O1  1  0.78061200  0.78061200  0.05839700  1
  O  O2  1  0.95479000  0.56381400  0.84245500  1
  O  O3  1  0.29706700  0.81912300  0.07800600  1
  O  O4  1  0.56602700  0.56602700  0.32220100  1
  O  O5  1  0.57769200  0.57769200  0.80380000  1
  O  O6  1  0.81912300  0.29706700  0.07800600  1
  O  O7  1  0.03649500  0.56189300  0.32811300  1
  O  O8  1  0.42230800  0.42230800  0.19620000  1
  O  O9  1  0.18087700  0.70293300  0.92199400  1
  O  O10  1  0.30390600  0.30390600  0.50525700  1
  O  O11  1  0.70293300  0.18087700  0.92199400  1
  O  O12  1  0.56189300  0.03649500  0.32811300  1
  O  O13  1  0.04521000  0.43618600  0.15754500  1
  O  O14  1  0.86269700  0.30093900  0.53553000  1
  O  O15  1  0.07873800  0.07873800  0.32071800  1
  O  O16  1  0.21938800  0.21938800  0.94160300  1
  O  O17  1  0.43618600  0.04521000  0.15754500  1
  O  O18  1  0.30093900  0.86269700  0.53553000  1
  O  O19  1  0.69906100  0.13730300  0.46447000  1
  O  O20  1  0.92126200  0.92126200  0.67928200  1
  O  O21  1  0.13730300  0.69906100  0.46447000  1
  O  O22  1  0.43810700  0.96350500  0.67188700  1
  O  O23  1  0.69609400  0.69609400  0.49474300  1
  O  O24  1  0.96350500  0.43810700  0.67188700  1
  O  O25  1  0.43397300  0.43397300  0.67779900  1
loop_
_geom_bond_atom_site_label_1
_geom_bond_atom_site_label_2
_geom_bond_distance
_geom_bond_site_symmetry_2
Lu0 O25 2.051602 1_555
Lu0 O16 2.205381 1_555
Lu0 O24 2.210941 1_455
Lu0 O22 2.210941 1_545
Lu0 O0 2.451463 1_545
Lu0 O2 2.451463 1_455
Lu1 O25 2.148080 1_555
Lu1 O24 2.198759 1_555
Lu1 O11 2.250240 1_555
Lu1 O5 2.266885 1_555
Lu1 O14 2.280305 1_555
Lu1 O20 2.326487 1_545
Lu2 O25 2.148080 1_555
Lu2 O22 2.198759 1_555
Lu2 O9 2.250240 1_555
Lu2 O5 2.266885 1_555
Lu2 O18 2.280305 1_555
Lu2 O20 2.326487 1_455
Lu3 O4 2.051602 1_555
Lu3 O1 2.205381 1_555
Lu3 O7 2.210941 1_655
Lu3 O12 2.210941 1_565
Lu3 O17 2.451463 1_565
Lu3 O13 2.451463 1_655
Lu4 O4 2.148080 1_555
Lu4 O12 2.198759 1_555
Lu4 O6 2.250240 1_555
Lu4 O8 2.266885 1_555
Lu4 O19 2.280305 1_555
Lu4 O15 2.326487 1_655
Lu5 O5 2.289091 1_554
Lu5 O8 2.289091 1_555
Lu5 O9 2.333423 1_554
Lu5 O6 2.333423 1_555
Lu5 O11 2.333423 1_554
Lu5 O3 2.333423 1_555
Lu6 O4 2.148080 1_555
Lu6 O7 2.198759 1_555
Lu6 O3 2.250240 1_555
Lu6 O8 2.266885 1_555
Lu6 O21 2.280305 1_555
Lu6 O15 2.326487 1_565
Lu7 O9 2.208172 1_544
Lu7 O6 2.208172 1_455
Lu7 O3 2.208172 1_545
Lu7 O11 2.208172 1_454
Lu7 O16 2.495368 1_554
Lu7 O1 2.495368 1_445
O0 V5 1.838528 1_555
O0 V3 1.967677 1_566
O1 V3 2.021024 1_565
O1 V1 2.021024 1_655
O2 V5 1.838528 1_555
O2 V1 1.967677 1_656
O3 V3 2.180879 1_565
O4 V2 2.073417 1_555
O5 V5 1.875650 1_555
O6 V1 2.180879 1_655
O7 V7 2.013355 1_555
O7 V0 2.290516 1_555
O8 V0 1.875650 1_555
O9 V1 2.180879 1_556
O10 V6 1.919804 1_555
O10 V7 1.919804 1_555
O10 V2 2.354696 1_555
O11 V3 2.180879 1_556
O12 V6 2.013355 1_555
O12 V0 2.290516 1_555
O13 V0 1.838528 1_555
O13 V1 1.967677 1_555
O14 V7 1.939096 1_655
O14 V4 1.992346 1_655
O14 V2 2.358435 1_555
O15 V0 2.026447 1_555
O15 V4 2.096754 1_555
O16 V3 2.021024 1_556
O16 V1 2.021024 1_556
O17 V0 1.838528 1_555
O17 V3 1.967677 1_555
O18 V6 1.939096 1_565
O18 V4 1.992346 1_565
O18 V2 2.358435 1_555
O19 V6 1.939096 1_555
O19 V4 1.992346 1_655
O19 V2 2.358435 1_555
O20 V5 2.026447 1_555
O20 V4 2.096754 1_665
O21 V7 1.939096 1_555
O21 V4 1.992346 1_565
O21 V2 2.358435 1_555
O22 V6 2.013355 1_565
O22 V5 2.290516 1_555
O23 V7 1.919804 1_655
O23 V6 1.919804 1_565
O23 V2 2.354696 1_555
O24 V7 2.013355 1_655
O24 V5 2.290516 1_555
O25 V2 2.073417 1_555
