# generated using pymatgen
data_Li12Ca6Hg4N
_symmetry_space_group_name_H-M   'P 1'
_cell_length_a   8.69033531
_cell_length_b   8.69033604
_cell_length_c   8.69033507
_cell_angle_alpha   109.47121836
_cell_angle_beta   109.47122006
_cell_angle_gamma   109.47122274
_symmetry_Int_Tables_number   1
_chemical_formula_structural   Li12Ca6Hg4N
_chemical_formula_sum   'Li12 Ca6 Hg4 N1'
_cell_volume   505.22838120
_cell_formula_units_Z   1
loop_
 _symmetry_equiv_pos_site_id
 _symmetry_equiv_pos_as_xyz
  1  'x, y, z'
loop_
 _atom_site_type_symbol
 _atom_site_label
 _atom_site_symmetry_multiplicity
 _atom_site_fract_x
 _atom_site_fract_y
 _atom_site_fract_z
 _atom_site_occupancy
  Li  Li0  1  0.67633208  0.33816654  0.33816654  1
  Li  Li1  1  0.33816654  0.00000000  0.66183346  1
  Li  Li2  1  0.33816654  0.67633208  0.33816654  1
  Li  Li3  1  0.33816654  0.33816654  0.67633208  1
  Li  Li4  1  0.33816654  0.66183346  0.00000000  1
  Li  Li5  1  1.00000000  0.33816654  0.66183346  1
  Li  Li6  1  0.00000000  0.66183346  0.33816654  1
  Li  Li7  1  0.66183346  0.66183346  0.32366792  1
  Li  Li8  1  0.66183346  1.00000000  0.33816654  1
  Li  Li9  1  0.66183346  0.33816654  1.00000000  1
  Li  Li10  1  0.66183346  0.32366792  0.66183346  1
  Li  Li11  1  0.32366792  0.66183346  0.66183346  1
  Ca  Ca0  1  1.00000000  0.24214359  0.24214359  1
  Ca  Ca1  1  0.24214359  0.00000000  0.24214359  1
  Ca  Ca2  1  0.75785641  1.00000000  0.75785641  1
  Ca  Ca3  1  0.75785641  0.75785641  0.00000000  1
  Ca  Ca4  1  0.24214359  0.24214359  1.00000000  1
  Ca  Ca5  1  0.00000000  0.75785641  0.75785641  1
  Hg  Hg0  1  0.50000000  0.50000000  0.50000000  1
  Hg  Hg1  1  0.50000000  0.00000000  0.00000000  1
  Hg  Hg2  1  0.00000000  0.50000000  0.00000000  1
  Hg  Hg3  1  0.00000000  0.00000000  0.50000000  1
  N  N0  1  0.00000000  0.00000000  0.00000000  1
loop_
_geom_bond_atom_site_label_1
_geom_bond_atom_site_label_2
_geom_bond_distance
_geom_bond_site_symmetry_2
Ca0 N0 2.429847 1_655
Ca1 N0 2.429847 1_555
Ca2 N0 2.429847 1_666
Ca3 N0 2.429847 1_665
Ca4 N0 2.429847 1_556
Ca5 N0 2.429847 1_566
Hg0 Li7 2.803380 1_555
Hg0 Li3 2.803380 1_555
Hg0 Li0 2.803380 1_555
Hg0 Li11 2.803380 1_555
Hg0 Li2 2.803380 1_555
Hg0 Li10 2.803380 1_555
Hg1 Li8 2.803387 1_545
Hg1 Li1 2.803387 1_554
Hg1 Li9 2.803388 1_554
Hg1 Li4 2.803388 1_545
Hg1 Li0 2.803389 1_555
Hg1 Li11 2.803389 1_544
Hg2 Li4 2.803387 1_555
Hg2 Li9 2.803387 1_454
Hg2 Li6 2.803387 1_555
Hg2 Li5 2.803387 1_454
Hg2 Li2 2.803389 1_555
Hg2 Li10 2.803389 1_454
Hg3 Li1 2.803387 1_555
Hg3 Li8 2.803387 1_445
Hg3 Li5 2.803388 1_455
Hg3 Li6 2.803388 1_545
Hg3 Li3 2.803389 1_555
Hg3 Li7 2.803389 1_445
