# generated using pymatgen
data_Ti3Al2IrO
_symmetry_space_group_name_H-M   'P 1'
_cell_length_a   8.12608592
_cell_length_b   8.12607278
_cell_length_c   8.12603757
_cell_angle_alpha   59.99959797
_cell_angle_beta   59.99966112
_cell_angle_gamma   59.99968376
_symmetry_Int_Tables_number   1
_chemical_formula_structural   Ti3Al2IrO
_chemical_formula_sum   'Ti12 Al8 Ir4 O4'
_cell_volume   379.42197122
_cell_formula_units_Z   4
loop_
 _symmetry_equiv_pos_site_id
 _symmetry_equiv_pos_as_xyz
  1  'x, y, z'
loop_
 _atom_site_type_symbol
 _atom_site_label
 _atom_site_symmetry_multiplicity
 _atom_site_fract_x
 _atom_site_fract_y
 _atom_site_fract_z
 _atom_site_occupancy
  Ti  Ti0  1  0.56091804  0.93908267  0.56092108  1
  Ti  Ti1  1  0.31091439  0.68908373  0.68908196  1
  Ti  Ti2  1  0.68908379  0.31092155  0.31091701  1
  Ti  Ti3  1  0.31091734  0.68908596  0.31091435  1
  Ti  Ti4  1  0.68907909  0.68907551  0.31091821  1
  Ti  Ti5  1  0.31091419  0.31091663  0.68908597  1
  Ti  Ti6  1  0.56092091  0.56092449  0.93908179  1
  Ti  Ti7  1  0.93908561  0.56091627  0.56091804  1
  Ti  Ti8  1  0.56091621  0.93907845  0.93908299  1
  Ti  Ti9  1  0.93908581  0.93908337  0.56091403  1
  Ti  Ti10  1  0.68908196  0.31091733  0.68907892  1
  Ti  Ti11  1  0.93908266  0.56091404  0.93908565  1
  Al  Al0  1  0.33449269  0.33449015  0.33448493  1
  Al  Al1  1  0.25347501  0.91550788  0.91551018  1
  Al  Al2  1  0.91550741  0.25347271  0.91551227  1
  Al  Al3  1  0.91550985  0.91551229  0.25346439  1
  Al  Al4  1  0.33449259  0.99652729  0.33448773  1
  Al  Al5  1  0.33449015  0.33448771  0.99653561  1
  Al  Al6  1  0.99652499  0.33449212  0.33448982  1
  Al  Al7  1  0.91550731  0.91550985  0.91551507  1
  Ir  Ir0  1  0.12500000  0.12500000  0.12500000  1
  Ir  Ir1  1  0.62500000  0.12500000  0.12500000  1
  Ir  Ir2  1  0.12500000  0.62500000  0.12500000  1
  Ir  Ir3  1  0.12500000  0.12500000  0.62500000  1
  O  O0  1  0.62500000  0.62500000  0.62500000  1
  O  O1  1  0.12500000  0.62500000  0.62500000  1
  O  O2  1  0.62500000  0.12500000  0.62500000  1
  O  O3  1  0.62500000  0.62500000  0.12500000  1
loop_
_geom_bond_atom_site_label_1
_geom_bond_atom_site_label_2
_geom_bond_distance
_geom_bond_site_symmetry_2
Al0 Ir1 2.495821 1_555
Al0 Ir2 2.495835 1_555
Al0 Ir3 2.495870 1_555
Al1 Ir0 2.495856 1_566
Al1 Ir2 2.495861 1_556
Al1 Ir3 2.495868 1_565
Al2 Ir1 2.495851 1_556
Al2 Ir0 2.495851 1_656
Al2 Ir3 2.495873 1_655
Al3 Ir1 2.495828 1_565
Al3 Ir2 2.495843 1_655
Al3 Ir0 2.495859 1_665
Al4 Ir1 2.495851 1_565
Al4 Ir0 2.495851 1_565
Al4 Ir3 2.495873 1_565
Al5 Ir1 2.495828 1_556
Al5 Ir2 2.495843 1_556
Al5 Ir0 2.495859 1_556
Al6 Ir0 2.495856 1_655
Al6 Ir2 2.495861 1_655
Al6 Ir3 2.495868 1_655
Al7 Ir1 2.495821 1_566
Al7 Ir2 2.495835 1_656
Al7 Ir3 2.495870 1_665
Ir0 Ti9 2.948163 1_445
Ir0 Ti5 2.948163 1_554
Ir0 Ti11 2.948175 1_454
Ir0 Ti3 2.948175 1_545
Ir0 Ti8 2.948203 1_544
Ir0 Ti2 2.948203 1_455
Ir1 Ti0 2.948215 1_545
Ir1 Ti10 2.948215 1_554
Ir1 Ti2 2.948250 1_555
Ir1 Ti8 2.948250 1_544
Ir1 Ti6 2.948256 1_554
Ir1 Ti4 2.948256 1_545
Ir2 Ti7 2.948192 1_455
Ir2 Ti1 2.948192 1_554
Ir2 Ti3 2.948215 1_555
Ir2 Ti11 2.948215 1_454
Ir2 Ti6 2.948243 1_554
Ir2 Ti4 2.948243 1_455
Ir3 Ti7 2.948197 1_455
Ir3 Ti1 2.948197 1_545
Ir3 Ti5 2.948213 1_555
Ir3 Ti9 2.948213 1_445
Ir3 Ti0 2.948219 1_545
Ir3 Ti10 2.948219 1_455
O0 Ti6 2.160878 1_555
O0 Ti4 2.160878 1_555
O0 Ti0 2.160884 1_555
O0 Ti10 2.160884 1_555
O0 Ti7 2.160902 1_555
O0 Ti1 2.160902 1_555
O1 Ti1 2.160866 1_555
O1 Ti7 2.160866 1_455
O1 Ti5 2.160870 1_555
O1 Ti9 2.160870 1_455
O1 Ti11 2.160880 1_455
O1 Ti3 2.160880 1_555
O2 Ti10 2.160859 1_555
O2 Ti0 2.160859 1_545
O2 Ti8 2.160871 1_545
O2 Ti2 2.160871 1_555
O2 Ti9 2.160891 1_545
O2 Ti5 2.160891 1_555
O3 Ti4 2.160825 1_555
O3 Ti6 2.160825 1_554
O3 Ti8 2.160843 1_554
O3 Ti2 2.160843 1_555
O3 Ti11 2.160867 1_554
O3 Ti3 2.160867 1_555
