# generated using pymatgen
data_RbHf2(AsO4)3
_symmetry_space_group_name_H-M   'P 1'
_cell_length_a   9.82345047
_cell_length_b   9.82345092
_cell_length_c   9.82345006
_cell_angle_alpha   54.33783116
_cell_angle_beta   54.33782881
_cell_angle_gamma   54.33782592
_symmetry_Int_Tables_number   1
_chemical_formula_structural   RbHf2(AsO4)3
_chemical_formula_sum   'Rb2 Hf4 As6 O24'
_cell_volume   581.77268320
_cell_formula_units_Z   2
loop_
 _symmetry_equiv_pos_site_id
 _symmetry_equiv_pos_as_xyz
  1  'x, y, z'
loop_
 _atom_site_type_symbol
 _atom_site_label
 _atom_site_symmetry_multiplicity
 _atom_site_fract_x
 _atom_site_fract_y
 _atom_site_fract_z
 _atom_site_occupancy
  Rb  Rb0  1  0.50000000  0.50000000  0.50000000  1
  Rb  Rb1  1  0.00000000  0.00000000  0.00000000  1
  Hf  Hf0  1  0.35092009  0.35092009  0.35092009  1
  Hf  Hf1  1  0.85092009  0.85092009  0.85092009  1
  Hf  Hf2  1  0.64907991  0.64907991  0.64907991  1
  Hf  Hf3  1  0.14907991  0.14907991  0.14907991  1
  As  As0  1  0.97045497  0.52954503  0.25000000  1
  As  As1  1  0.25000000  0.97045497  0.52954503  1
  As  As2  1  0.52954503  0.25000000  0.97045497  1
  As  As3  1  0.75000000  0.02954503  0.47045497  1
  As  As4  1  0.47045497  0.75000000  0.02954503  1
  As  As5  1  0.02954503  0.47045497  0.75000000  1
  O  O0  1  0.15539968  0.51271864  0.24204228  1
  O  O1  1  0.24204228  0.15539968  0.51271864  1
  O  O2  1  0.51271864  0.24204228  0.15539968  1
  O  O3  1  0.74204228  0.01271864  0.65539968  1
  O  O4  1  0.65539968  0.74204228  0.01271864  1
  O  O5  1  0.01271864  0.65539968  0.74204228  1
  O  O6  1  0.84460032  0.48728136  0.75795772  1
  O  O7  1  0.75795772  0.84460032  0.48728136  1
  O  O8  1  0.48728136  0.75795772  0.84460032  1
  O  O9  1  0.25795772  0.98728136  0.34460032  1
  O  O10  1  0.34460032  0.25795772  0.98728136  1
  O  O11  1  0.98728136  0.34460032  0.25795772  1
  O  O12  1  0.20608359  0.43230751  0.56411101  1
  O  O13  1  0.56411101  0.20608359  0.43230751  1
  O  O14  1  0.43230751  0.56411101  0.20608359  1
  O  O15  1  0.06411101  0.93230751  0.70608359  1
  O  O16  1  0.70608359  0.06411101  0.93230751  1
  O  O17  1  0.93230751  0.70608359  0.06411101  1
  O  O18  1  0.79391641  0.56769249  0.43588899  1
  O  O19  1  0.43588899  0.79391641  0.56769249  1
  O  O20  1  0.56769249  0.43588899  0.79391641  1
  O  O21  1  0.93588899  0.06769249  0.29391641  1
  O  O22  1  0.29391641  0.93588899  0.06769249  1
  O  O23  1  0.06769249  0.29391641  0.93588899  1
loop_
_geom_bond_atom_site_label_1
_geom_bond_atom_site_label_2
_geom_bond_distance
_geom_bond_site_symmetry_2
Hf0 O12 2.049662 1_555
Hf0 O13 2.049662 1_555
Hf0 O14 2.049662 1_555
Hf0 O2 2.052509 1_555
Hf0 O0 2.052509 1_555
Hf0 O1 2.052510 1_555
Hf1 O17 2.049662 1_556
Hf1 O16 2.049662 1_565
Hf1 O15 2.049662 1_655
Hf1 O3 2.052509 1_565
Hf1 O5 2.052509 1_655
Hf1 O4 2.052510 1_556
Hf2 O18 2.049662 1_555
Hf2 O19 2.049662 1_555
Hf2 O20 2.049662 1_555
Hf2 O8 2.052509 1_555
Hf2 O6 2.052509 1_555
Hf2 O7 2.052510 1_555
Hf3 O23 2.049662 1_554
Hf3 O22 2.049662 1_545
Hf3 O21 2.049662 1_455
Hf3 O9 2.052509 1_545
Hf3 O11 2.052509 1_455
Hf3 O10 2.052510 1_554
As0 O18 1.682286 1_555
As0 O17 1.682286 1_555
As0 O0 1.683296 1_655
As0 O11 1.683296 1_555
As1 O19 1.682286 1_555
As1 O15 1.682286 1_555
As1 O9 1.683296 1_555
As1 O1 1.683296 1_565
As2 O16 1.682286 1_555
As2 O20 1.682286 1_555
As2 O2 1.683296 1_556
As2 O10 1.683296 1_555
As3 O13 1.682286 1_555
As3 O21 1.682286 1_555
As3 O3 1.683296 1_555
As3 O7 1.683296 1_545
As4 O22 1.682286 1_555
As4 O14 1.682286 1_555
As4 O8 1.683296 1_554
As4 O4 1.683296 1_555
As5 O12 1.682286 1_555
As5 O23 1.682286 1_555
As5 O6 1.683296 1_455
As5 O5 1.683296 1_555
O12 Rb0 2.967373 1_555
O13 Rb0 2.967373 1_555
O14 Rb0 2.967373 1_555
O15 Rb1 2.967373 1_566
O16 Rb1 2.967373 1_656
O17 Rb1 2.967373 1_665
O18 Rb0 2.967373 1_555
O19 Rb0 2.967373 1_555
O20 Rb0 2.967373 1_555
O21 Rb1 2.967373 1_655
O22 Rb1 2.967373 1_565
O23 Rb1 2.967373 1_556
