# generated using pymatgen
data_Y2Al3Si2Pt3
_symmetry_space_group_name_H-M   'P 1'
_cell_length_a   8.30478280
_cell_length_b   8.30478264
_cell_length_c   8.30478282
_cell_angle_alpha   138.15348616
_cell_angle_beta   101.87133963
_cell_angle_gamma   92.82873875
_symmetry_Int_Tables_number   1
_chemical_formula_structural   Y2Al3Si2Pt3
_chemical_formula_sum   'Y4 Al6 Si4 Pt6'
_cell_volume   355.48720900
_cell_formula_units_Z   2
loop_
 _symmetry_equiv_pos_site_id
 _symmetry_equiv_pos_as_xyz
  1  'x, y, z'
loop_
 _atom_site_type_symbol
 _atom_site_label
 _atom_site_symmetry_multiplicity
 _atom_site_fract_x
 _atom_site_fract_y
 _atom_site_fract_z
 _atom_site_occupancy
  Y  Y0  1  0.87271754  0.62941340  0.24330513  1
  Y  Y1  1  0.12728246  0.37058660  0.75669487  1
  Y  Y2  1  0.38610827  0.12941340  0.25669487  1
  Y  Y3  1  0.61389173  0.87058660  0.74330513  1
  Al  Al0  1  0.50000000  0.75000000  0.25000000  1
  Al  Al1  1  0.50000000  0.25000000  0.75000000  1
  Al  Al2  1  0.24093490  0.99093490  0.75000000  1
  Al  Al3  1  0.75906510  0.50906510  0.75000000  1
  Al  Al4  1  0.75906510  0.00906510  0.25000000  1
  Al  Al5  1  0.24093490  0.49093490  0.25000000  1
  Si  Si0  1  0.03448818  0.88940390  0.14508528  1
  Si  Si1  1  0.96551182  0.11059610  0.85491472  1
  Si  Si2  1  0.74431861  0.38940390  0.35491472  1
  Si  Si3  1  0.25568139  0.61059610  0.64508528  1
  Pt  Pt0  1  0.00000000  0.75000000  0.75000000  1
  Pt  Pt1  1  0.00000000  0.25000000  0.25000000  1
  Pt  Pt2  1  0.23696556  0.86867464  0.36829192  1
  Pt  Pt3  1  0.76303444  0.13132536  0.63170808  1
  Pt  Pt4  1  0.50038271  0.36867464  0.13170808  1
  Pt  Pt5  1  0.49961729  0.63132536  0.86829192  1
loop_
_geom_bond_atom_site_label_1
_geom_bond_atom_site_label_2
_geom_bond_distance
_geom_bond_site_symmetry_2
Al0 Pt4 2.522120 1_555
Al0 Pt5 2.522120 1_554
Al0 Pt3 2.522124 1_565
Al0 Pt2 2.522128 1_555
Al0 Y0 3.298622 1_555
Al0 Y1 3.298625 1_554
Al0 Y3 3.298630 1_555
Al0 Y2 3.298630 1_565
Al1 Pt5 2.522120 1_555
Al1 Pt4 2.522120 1_556
Al1 Pt2 2.522124 1_545
Al1 Pt3 2.522128 1_555
Al1 Y1 3.298622 1_555
Al1 Y0 3.298625 1_556
Al1 Y2 3.298630 1_555
Al1 Y3 3.298630 1_545
Al2 Pt2 2.497853 1_555
Al2 Pt4 2.497855 1_566
Al2 Si1 2.594779 1_465
Al2 Si3 2.594787 1_555
Al2 Pt0 2.759009 1_555
Al2 Y1 3.299854 1_565
Al2 Y3 3.299857 1_555
Al2 Y2 3.324032 1_566
Al2 Y0 3.324037 1_455
Al3 Pt5 2.497855 1_555
Al3 Pt3 2.497857 1_555
Al3 Si0 2.594782 1_656
Al3 Si2 2.594787 1_555
Al3 Pt0 2.759009 1_655
Al3 Y2 3.299857 1_555
Al3 Y0 3.299857 1_556
Al3 Y3 3.324032 1_555
Al3 Y1 3.324040 1_655
Al4 Pt3 2.497853 1_555
Al4 Pt5 2.497855 1_544
Al4 Si0 2.594779 1_645
Al4 Si2 2.594787 1_555
Al4 Pt1 2.759009 1_655
Al4 Y0 3.299854 1_545
Al4 Y2 3.299857 1_555
Al4 Y3 3.324032 1_544
Al4 Y1 3.324037 1_655
Al5 Pt4 2.497855 1_555
Al5 Pt2 2.497857 1_555
Al5 Si1 2.594782 1_454
Al5 Si3 2.594787 1_555
Al5 Pt1 2.759009 1_555
Al5 Y3 3.299857 1_555
Al5 Y1 3.299857 1_554
Al5 Y2 3.324032 1_555
Al5 Y0 3.324040 1_455
Si0 Y2 2.986403 1_565
Si0 Y0 3.149731 1_455
Si0 Y1 3.194849 1_565
Si0 Y1 3.194860 1_554
Si1 Y3 2.986403 1_545
Si1 Y1 3.149731 1_655
Si1 Y0 3.194849 1_545
Si1 Y0 3.194860 1_556
Si2 Y0 2.986393 1_555
Si2 Y2 3.149731 1_555
Si2 Y3 3.194852 1_544
Si2 Y3 3.194852 1_555
Si3 Y1 2.986393 1_555
Si3 Y3 3.149731 1_555
Si3 Y2 3.194852 1_566
Si3 Y2 3.194852 1_555
Pt0 Si1 2.471671 1_465
Pt0 Si2 2.471672 1_455
Pt0 Si3 2.471673 1_555
Pt0 Si0 2.471674 1_556
Pt0 Y2 3.408001 1_566
Pt0 Y3 3.408001 1_455
Pt0 Y0 3.408001 1_455
Pt0 Y1 3.408004 1_555
Pt1 Si0 2.471671 1_545
Pt1 Si3 2.471672 1_555
Pt1 Si2 2.471673 1_455
Pt1 Si1 2.471674 1_454
Pt1 Y3 3.408001 1_444
Pt1 Y2 3.408001 1_555
Pt1 Y1 3.408001 1_555
Pt1 Y0 3.408004 1_455
Pt2 Si0 2.348382 1_555
Pt2 Y0 3.036165 1_455
Pt2 Y1 3.187595 1_565
Pt2 Y1 3.187605 1_554
Pt2 Y2 3.206156 1_565
Pt3 Si1 2.348382 1_555
Pt3 Y1 3.036165 1_655
Pt3 Y0 3.187595 1_545
Pt3 Y0 3.187605 1_556
Pt3 Y3 3.206156 1_545
Pt4 Si2 2.348382 1_555
Pt4 Y2 3.036165 1_555
Pt4 Y3 3.187604 1_555
Pt4 Y3 3.187604 1_544
Pt4 Y0 3.206146 1_555
Pt5 Si3 2.348382 1_555
Pt5 Y3 3.036165 1_555
Pt5 Y2 3.187604 1_555
Pt5 Y2 3.187604 1_566
Pt5 Y1 3.206146 1_555
