# generated using pymatgen
data_Ba2Sr(SnIr)4
_symmetry_space_group_name_H-M   'P 1'
_cell_length_a   7.11707308
_cell_length_b   7.11707365
_cell_length_c   7.11707356
_cell_angle_alpha   108.36531822
_cell_angle_beta   111.70640673
_cell_angle_gamma   108.36532500
_symmetry_Int_Tables_number   1
_chemical_formula_structural   Ba2Sr(SnIr)4
_chemical_formula_sum   'Ba2 Sr1 Sn4 Ir4'
_cell_volume   277.19431006
_cell_formula_units_Z   1
loop_
 _symmetry_equiv_pos_site_id
 _symmetry_equiv_pos_as_xyz
  1  'x, y, z'
loop_
 _atom_site_type_symbol
 _atom_site_label
 _atom_site_symmetry_multiplicity
 _atom_site_fract_x
 _atom_site_fract_y
 _atom_site_fract_z
 _atom_site_occupancy
  Ba  Ba0  1  0.50000000  0.50000000  0.00000000  1
  Ba  Ba1  1  0.00000000  0.50000000  0.50000000  1
  Sr  Sr0  1  0.50000000  0.00000000  0.50000000  1
  Sn  Sn0  1  0.38724163  1.00000000  0.00484869  1
  Sn  Sn1  1  0.00484869  0.00000000  0.38724163  1
  Sn  Sn2  1  0.99515131  0.38239294  0.99515131  1
  Sn  Sn3  1  0.61275737  0.61760606  0.61275837  1
  Ir  Ir0  1  0.00768724  0.75796776  0.00768724  1
  Ir  Ir1  1  0.99231276  1.00000000  0.75028052  1
  Ir  Ir2  1  0.24971948  0.24203224  0.24971948  1
  Ir  Ir3  1  0.75028052  0.00000000  0.99231276  1
loop_
_geom_bond_atom_site_label_1
_geom_bond_atom_site_label_2
_geom_bond_distance
_geom_bond_site_symmetry_2
Ba0 Sn3 3.406856 1_554
Ba0 Sn2 3.406862 1_454
Ba0 Sn1 3.406862 1_665
Ba0 Sn0 3.406862 1_545
Ba0 Ir0 3.469802 1_655
Ba0 Ir1 3.469802 1_444
Ba0 Ir2 3.469802 1_555
Ba0 Ir3 3.469802 1_564
Ba0 Sn2 3.879569 1_554
Ba0 Sn1 3.879569 1_554
Ba0 Sn0 3.879569 1_555
Ba0 Sn3 3.879572 1_555
Ba1 Sn2 3.406862 1_454
Ba1 Sn0 3.406862 1_556
Ba1 Sn1 3.406862 1_555
Ba1 Sn3 3.406866 1_455
Ba1 Ir2 3.469802 1_555
Ba1 Ir0 3.469802 1_556
Ba1 Ir1 3.469802 1_455
Ba1 Ir3 3.469802 1_454
Ba1 Sn3 3.879563 1_555
Ba1 Sn0 3.879569 1_445
Ba1 Sn2 3.879569 1_455
Ba1 Sn1 3.879569 1_565
Sn0 Sr0 3.312231 1_565
Sn1 Sr0 3.312231 1_555
Sn2 Sr0 3.312231 1_555
Sn3 Sr0 3.312235 1_565
Ir0 Sn2 2.618085 1_454
Ir0 Sn0 2.719344 1_555
Ir0 Sn1 2.719344 1_565
Ir0 Sn3 2.723219 1_454
Ir0 Ir2 2.851191 1_565
Ir0 Ir1 2.880001 1_454
Ir0 Ir3 2.880001 1_464
Ir0 Sr0 3.291359 1_565
Ir1 Sn1 2.618085 1_665
Ir1 Sn2 2.719344 1_565
Ir1 Sn3 2.719352 1_555
Ir1 Sn0 2.723217 1_656
Ir1 Ir3 2.851191 1_565
Ir1 Ir2 2.880002 1_666
Ir1 Sr0 3.291359 1_565
Ir2 Sn3 2.618080 1_555
Ir2 Sn1 2.719344 1_555
Ir2 Sn0 2.719344 1_545
Ir2 Sn2 2.723217 1_454
Ir2 Ir3 2.880001 1_454
Ir2 Sr0 3.291359 1_555
Ir3 Sn0 2.618085 1_546
Ir3 Sn2 2.719344 1_555
Ir3 Sn3 2.719346 1_545
Ir3 Sn1 2.723217 1_656
Ir3 Sr0 3.291359 1_555
