# generated using pymatgen
data_HgBi3(Ir2O7)2
_symmetry_space_group_name_H-M   'P 1'
_cell_length_a   7.21162005
_cell_length_b   7.36811492
_cell_length_c   7.36811498
_cell_angle_alpha   59.99999537
_cell_angle_beta   59.27951829
_cell_angle_gamma   59.27952272
_symmetry_Int_Tables_number   1
_chemical_formula_structural   HgBi3(Ir2O7)2
_chemical_formula_sum   'Hg1 Bi3 Ir4 O14'
_cell_volume   273.78791099
_cell_formula_units_Z   1
loop_
 _symmetry_equiv_pos_site_id
 _symmetry_equiv_pos_as_xyz
  1  'x, y, z'
loop_
 _atom_site_type_symbol
 _atom_site_label
 _atom_site_symmetry_multiplicity
 _atom_site_fract_x
 _atom_site_fract_y
 _atom_site_fract_z
 _atom_site_occupancy
  Hg  Hg0  1  0.62500000  0.12500000  0.12500000  1
  Bi  Bi0  1  0.12500000  0.62500000  0.12500000  1
  Bi  Bi1  1  0.12500000  0.12500000  0.62500000  1
  Bi  Bi2  1  0.12500000  0.12500000  0.12500000  1
  Ir  Ir0  1  0.12500000  0.62500000  0.62500000  1
  Ir  Ir1  1  0.62500000  0.12500000  0.62500000  1
  Ir  Ir2  1  0.62500000  0.62500000  0.12500000  1
  Ir  Ir3  1  0.62500000  0.62500000  0.62500000  1
  O  O0  1  0.71070064  0.69210495  0.29859721  1
  O  O1  1  0.28925021  0.29437574  0.70818702  1
  O  O2  1  0.71070064  0.29859721  0.69210495  1
  O  O3  1  0.28925021  0.70818702  0.29437574  1
  O  O4  1  0.28925021  0.70818702  0.70818702  1
  O  O5  1  0.71070064  0.29859721  0.29859721  1
  O  O6  1  0.53929936  0.55789505  0.95140279  1
  O  O7  1  0.96074979  0.95562426  0.54181298  1
  O  O8  1  0.53929936  0.95140279  0.55789505  1
  O  O9  1  0.96074979  0.54181298  0.95562426  1
  O  O10  1  0.96074979  0.54181298  0.54181298  1
  O  O11  1  0.53929936  0.95140279  0.95140279  1
  O  O12  1  0.25968631  0.24677123  0.24677123  1
  O  O13  1  0.99031369  0.00322877  0.00322877  1
loop_
_geom_bond_atom_site_label_1
_geom_bond_atom_site_label_2
_geom_bond_distance
_geom_bond_site_symmetry_2
Hg0 O13 2.127340 1_555
Hg0 O12 2.127340 1_555
Hg0 O8 2.627832 1_545
Hg0 O2 2.627832 1_554
Hg0 O6 2.627832 1_554
Hg0 O0 2.627832 1_545
Hg0 O5 2.627833 1_555
Hg0 O11 2.627833 1_544
Bi0 O13 2.266992 1_465
Bi0 O12 2.266992 1_555
Bi0 O6 2.454762 1_554
Bi0 O0 2.454762 1_455
Bi0 O10 2.520562 1_455
Bi0 O4 2.520562 1_554
Bi0 O3 2.520562 1_555
Bi0 O9 2.520562 1_454
Bi1 O13 2.266992 1_456
Bi1 O12 2.266992 1_555
Bi1 O8 2.454762 1_545
Bi1 O2 2.454762 1_455
Bi1 O10 2.520562 1_455
Bi1 O4 2.520562 1_545
Bi1 O1 2.520562 1_555
Bi1 O7 2.520562 1_445
Bi2 O12 2.266992 1_555
Bi2 O13 2.266992 1_455
Bi2 O5 2.454762 1_455
Bi2 O11 2.454762 1_544
Bi2 O7 2.520562 1_445
Bi2 O1 2.520562 1_554
Bi2 O9 2.520562 1_454
Bi2 O3 2.520562 1_545
Ir0 O9 2.003416 1_455
Ir0 O3 2.003416 1_555
Ir0 O7 2.003416 1_455
Ir0 O1 2.003416 1_555
Ir0 O4 2.003416 1_555
Ir0 O10 2.003416 1_455
Ir1 O7 1.989260 1_545
Ir1 O1 1.989260 1_555
Ir1 O11 2.003701 1_545
Ir1 O5 2.003701 1_555
Ir1 O2 2.003701 1_555
Ir1 O8 2.003701 1_545
Ir2 O9 1.989260 1_554
Ir2 O3 1.989260 1_555
Ir2 O11 2.003701 1_554
Ir2 O5 2.003701 1_555
Ir2 O0 2.003701 1_555
Ir2 O6 2.003701 1_554
Ir3 O10 1.989260 1_555
Ir3 O4 1.989260 1_555
Ir3 O6 2.003701 1_555
Ir3 O0 2.003701 1_555
Ir3 O8 2.003701 1_555
Ir3 O2 2.003701 1_555
