# generated using pymatgen
data_Ta12Al9Tc3C4
_symmetry_space_group_name_H-M   'P 1'
_cell_length_a   8.28359842
_cell_length_b   8.28359860
_cell_length_c   8.28359794
_cell_angle_alpha   60.20804897
_cell_angle_beta   60.20804517
_cell_angle_gamma   60.20804615
_symmetry_Int_Tables_number   1
_chemical_formula_structural   Ta12Al9Tc3C4
_chemical_formula_sum   'Ta12 Al9 Tc3 C4'
_cell_volume   403.81563475
_cell_formula_units_Z   1
loop_
 _symmetry_equiv_pos_site_id
 _symmetry_equiv_pos_as_xyz
  1  'x, y, z'
loop_
 _atom_site_type_symbol
 _atom_site_label
 _atom_site_symmetry_multiplicity
 _atom_site_fract_x
 _atom_site_fract_y
 _atom_site_fract_z
 _atom_site_occupancy
  Ta  Ta0  1  0.19056154  0.80909801  0.19056154  1
  Ta  Ta1  1  0.80956284  0.18756248  0.80956284  1
  Ta  Ta2  1  0.05943846  0.44090199  0.05943846  1
  Ta  Ta3  1  0.06243752  0.44043716  0.44043716  1
  Ta  Ta4  1  0.44090199  0.05943846  0.05943846  1
  Ta  Ta5  1  0.44043716  0.06243752  0.44043716  1
  Ta  Ta6  1  0.80956284  0.80956284  0.18756248  1
  Ta  Ta7  1  0.05943846  0.05943846  0.44090199  1
  Ta  Ta8  1  0.19056154  0.19056154  0.80909801  1
  Ta  Ta9  1  0.18756248  0.80956284  0.80956284  1
  Ta  Ta10  1  0.44043716  0.44043716  0.06243752  1
  Ta  Ta11  1  0.80909801  0.19056154  0.19056154  1
  Al  Al0  1  0.62500000  0.62500000  0.62500000  1
  Al  Al1  1  0.83733838  0.83733838  0.49622946  1
  Al  Al2  1  0.49622946  0.83733838  0.83733838  1
  Al  Al3  1  0.41266162  0.75377054  0.41266162  1
  Al  Al4  1  0.75377054  0.41266162  0.41266162  1
  Al  Al5  1  0.41655154  0.41655154  0.41655154  1
  Al  Al6  1  0.41266162  0.41266162  0.75377054  1
  Al  Al7  1  0.83733838  0.49622946  0.83733838  1
  Al  Al8  1  0.83344846  0.83344846  0.83344846  1
  Tc  Tc0  1  0.12500000  0.62500000  0.62500000  1
  Tc  Tc1  1  0.62500000  0.62500000  0.12500000  1
  Tc  Tc2  1  0.62500000  0.12500000  0.62500000  1
  C  C0  1  0.12500000  0.12500000  0.12500000  1
  C  C1  1  0.12500000  0.12500000  0.62500000  1
  C  C2  1  0.62500000  0.12500000  0.12500000  1
  C  C3  1  0.12500000  0.62500000  0.12500000  1
loop_
_geom_bond_atom_site_label_1
_geom_bond_atom_site_label_2
_geom_bond_distance
_geom_bond_site_symmetry_2
Ta0 Tc0 2.999784 1_555
Ta0 Tc1 2.999784 1_555
Ta1 Tc2 2.973315 1_555
Ta2 Tc0 2.999784 1_554
Ta2 Tc1 2.999784 1_455
Ta3 Tc0 2.973315 1_555
Ta4 Tc2 2.999784 1_554
Ta4 Tc1 2.999785 1_545
Ta5 Tc2 2.973315 1_555
Ta6 Tc1 2.973315 1_555
Ta7 Tc2 2.999784 1_455
Ta7 Tc0 2.999785 1_545
Ta8 Tc2 2.999784 1_555
Ta8 Tc0 2.999785 1_555
Ta9 Tc0 2.973315 1_555
Ta10 Tc1 2.973315 1_555
Ta11 Tc2 2.999784 1_555
Ta11 Tc1 2.999785 1_555
Al0 Al2 2.582825 1_555
Al0 Al4 2.582825 1_555
Al0 Al7 2.582825 1_555
Al0 Al3 2.582825 1_555
Al0 Al1 2.582825 1_555
Al0 Al6 2.582825 1_555
Al0 Ta10 3.019535 1_556
Al0 Ta6 3.019535 1_555
Al0 Ta3 3.019535 1_655
Al0 Ta9 3.019535 1_555
Al0 Ta5 3.019535 1_565
Al0 Ta1 3.019535 1_555
Al1 Tc2 2.531042 1_565
Al1 Tc0 2.531042 1_655
Al1 Ta0 2.752016 1_655
Al1 Ta11 2.752016 1_565
Al1 Al8 2.761744 1_555
Al1 Ta6 2.804505 1_555
Al1 Al2 2.834490 1_555
Al1 Al7 2.834490 1_555
Al1 Ta7 2.944049 1_665
Al1 Ta5 3.010244 1_565
Al1 Ta3 3.010245 1_655
Al2 Tc1 2.531042 1_556
Al2 Tc2 2.531042 1_565
Al2 Ta0 2.752016 1_556
Al2 Ta8 2.752016 1_565
Al2 Al8 2.761744 1_555
Al2 Ta9 2.804505 1_555
Al2 Al7 2.834490 1_555
Al2 Ta4 2.944049 1_566
Al2 Ta5 3.010244 1_565
Al2 Ta10 3.010245 1_556
Al3 Tc1 2.531042 1_555
Al3 Tc0 2.531042 1_555
Al3 Ta7 2.752016 1_565
Al3 Ta4 2.752016 1_565
Al3 Al5 2.761744 1_555
Al3 Ta5 2.804505 1_565
Al3 Al4 2.834490 1_555
Al3 Al6 2.834490 1_555
Al3 Ta0 2.944049 1_555
Al3 Ta9 3.010244 1_555
Al3 Ta6 3.010244 1_555
Al4 Tc1 2.531042 1_555
Al4 Tc2 2.531042 1_555
Al4 Ta2 2.752016 1_655
Al4 Ta7 2.752016 1_655
Al4 Al5 2.761744 1_555
Al4 Ta3 2.804505 1_655
Al4 Al6 2.834490 1_555
Al4 Ta11 2.944049 1_555
Al4 Ta1 3.010244 1_555
Al4 Ta6 3.010245 1_555
Al5 Tc0 2.543743 1_555
Al5 Tc1 2.543744 1_555
Al5 Tc2 2.543744 1_555
Al5 Ta10 2.751037 1_555
Al5 Ta3 2.751037 1_555
Al5 Ta5 2.751037 1_555
Al5 Al6 2.761744 1_555
Al5 Ta11 2.994489 1_555
Al5 Ta8 2.994489 1_555
Al5 Ta0 2.994489 1_555
Al6 Tc2 2.531042 1_555
Al6 Tc0 2.531042 1_555
Al6 Ta2 2.752016 1_556
Al6 Ta4 2.752016 1_556
Al6 Ta10 2.804505 1_556
Al6 Ta8 2.944049 1_555
Al6 Ta1 3.010244 1_555
Al6 Ta9 3.010245 1_555
Al7 Tc1 2.531042 1_556
Al7 Tc0 2.531042 1_655
Al7 Ta8 2.752016 1_655
Al7 Ta11 2.752016 1_556
Al7 Al8 2.761744 1_555
Al7 Ta1 2.804505 1_555
Al7 Ta2 2.944049 1_656
Al7 Ta3 3.010244 1_655
Al7 Ta10 3.010244 1_556
Al8 Tc0 2.543743 1_655
Al8 Tc1 2.543744 1_556
Al8 Tc2 2.543744 1_565
Al8 Ta6 2.751037 1_556
Al8 Ta9 2.751037 1_655
Al8 Ta1 2.751037 1_565
Al8 Ta4 2.994489 1_566
Al8 Ta7 2.994489 1_665
Al8 Ta2 2.994489 1_656
C0 Ta7 2.215002 1_555
C0 Ta8 2.215002 1_554
C0 Ta4 2.215002 1_555
C0 Ta11 2.215002 1_455
C0 Ta2 2.215002 1_555
C0 Ta0 2.215002 1_545
C1 Ta8 2.203304 1_555
C1 Ta7 2.203304 1_555
C1 Ta5 2.214842 1_555
C1 Ta1 2.214842 1_455
C1 Ta3 2.214843 1_555
C1 Ta9 2.214843 1_545
C2 Ta11 2.203305 1_555
C2 Ta4 2.203305 1_555
C2 Ta1 2.214842 1_554
C2 Ta5 2.214842 1_555
C2 Ta10 2.214843 1_555
C2 Ta6 2.214843 1_545
C3 Ta0 2.203305 1_555
C3 Ta2 2.203305 1_555
C3 Ta3 2.214842 1_555
C3 Ta9 2.214842 1_554
C3 Ta10 2.214843 1_555
C3 Ta6 2.214843 1_455
