# generated using pymatgen
data_NaZnPb2F11
_symmetry_space_group_name_H-M   'P 1'
_cell_length_a   5.71560810
_cell_length_b   5.71560723
_cell_length_c   7.95513362
_cell_angle_alpha   68.86294820
_cell_angle_beta   68.86295187
_cell_angle_gamma   72.39890188
_symmetry_Int_Tables_number   1
_chemical_formula_structural   NaZnPb2F11
_chemical_formula_sum   'Na1 Zn1 Pb2 F11'
_cell_volume   221.60546475
_cell_formula_units_Z   1
loop_
 _symmetry_equiv_pos_site_id
 _symmetry_equiv_pos_as_xyz
  1  'x, y, z'
loop_
 _atom_site_type_symbol
 _atom_site_label
 _atom_site_symmetry_multiplicity
 _atom_site_fract_x
 _atom_site_fract_y
 _atom_site_fract_z
 _atom_site_occupancy
  Na  Na0  1  0.00000000  0.00000000  0.00000000  1
  Zn  Zn0  1  0.00000000  0.00000000  0.50000000  1
  Pb  Pb0  1  0.50663815  0.50663815  0.76435508  1
  Pb  Pb1  1  0.49336185  0.49336185  0.23564492  1
  F  F0  1  0.21293188  0.82383151  0.68588854  1
  F  F1  1  0.17616849  0.78706812  0.31411146  1
  F  F2  1  0.78706812  0.17616849  0.31411146  1
  F  F3  1  0.82383151  0.21293188  0.68588854  1
  F  F4  1  0.50000000  0.50000000  0.50000000  1
  F  F5  1  0.67872424  0.32127576  1.00000000  1
  F  F6  1  0.32127576  0.67872424  0.00000000  1
  F  F7  1  0.24421736  0.24421736  0.34728595  1
  F  F8  1  0.75578264  0.75578264  0.65271405  1
  F  F9  1  0.26220472  0.26220472  0.89538308  1
  F  F10  1  0.73779528  0.73779528  0.10461692  1
loop_
_geom_bond_atom_site_label_1
_geom_bond_atom_site_label_2
_geom_bond_distance
_geom_bond_site_symmetry_2
F0 Zn0 2.040778 1_565
F0 Pb0 2.143241 1_555
F0 Na0 2.760298 1_566
F1 Zn0 2.040778 1_565
F1 Pb1 2.143241 1_555
F1 Na0 2.760298 1_565
F2 Zn0 2.040778 1_655
F2 Pb1 2.143241 1_555
F2 Na0 2.760298 1_655
F3 Zn0 2.040778 1_655
F3 Pb0 2.143241 1_555
F3 Na0 2.760298 1_656
F4 Pb0 2.131047 1_555
F4 Pb1 2.131047 1_555
F5 Na0 2.169014 1_656
F5 Pb0 2.207068 1_555
F5 Pb1 2.207068 1_556
F6 Na0 2.169014 1_565
F6 Pb1 2.207068 1_555
F6 Pb0 2.207068 1_554
F7 Zn0 2.026095 1_555
F7 Pb1 2.060717 1_555
F8 Zn0 2.026095 1_665
F8 Pb0 2.060717 1_555
F9 Pb0 2.017455 1_555
F9 Na0 2.178043 1_556
F10 Pb1 2.017455 1_555
F10 Na0 2.178043 1_665
