# generated using pymatgen
data_CsRb2SbTe3
_symmetry_space_group_name_H-M   'P 1'
_cell_length_a   11.01426164
_cell_length_b   11.01426164
_cell_length_c   11.01426164
_cell_angle_alpha   90.00000000
_cell_angle_beta   90.00000000
_cell_angle_gamma   90.00000000
_symmetry_Int_Tables_number   1
_chemical_formula_structural   CsRb2SbTe3
_chemical_formula_sum   'Cs4 Rb8 Sb4 Te12'
_cell_volume   1336.18369164
_cell_formula_units_Z   4
loop_
 _symmetry_equiv_pos_site_id
 _symmetry_equiv_pos_as_xyz
  1  'x, y, z'
loop_
 _atom_site_type_symbol
 _atom_site_label
 _atom_site_symmetry_multiplicity
 _atom_site_fract_x
 _atom_site_fract_y
 _atom_site_fract_z
 _atom_site_occupancy
  Cs  Cs0  1  0.92473434  0.42473434  0.07526566  1
  Cs  Cs1  1  0.42473434  0.07526566  0.92473434  1
  Cs  Cs2  1  0.07526566  0.92473434  0.42473434  1
  Cs  Cs3  1  0.57526566  0.57526566  0.57526566  1
  Rb  Rb0  1  0.18245529  0.68245529  0.81754471  1
  Rb  Rb1  1  0.68245529  0.81754471  0.18245529  1
  Rb  Rb2  1  0.81754471  0.18245529  0.68245529  1
  Rb  Rb3  1  0.31754471  0.31754471  0.31754471  1
  Rb  Rb4  1  0.68660022  0.18660022  0.31339978  1
  Rb  Rb5  1  0.18660022  0.31339978  0.68660022  1
  Rb  Rb6  1  0.31339978  0.68660022  0.18660022  1
  Rb  Rb7  1  0.81339978  0.81339978  0.81339978  1
  Sb  Sb0  1  0.47595329  0.97595329  0.52404671  1
  Sb  Sb1  1  0.97595329  0.52404671  0.47595329  1
  Sb  Sb2  1  0.52404671  0.47595329  0.97595329  1
  Sb  Sb3  1  0.02404671  0.02404671  0.02404671  1
  Te  Te0  1  0.00375844  0.78105283  0.09714655  1
  Te  Te1  1  0.90285345  0.50375844  0.71894717  1
  Te  Te2  1  0.28105283  0.40285345  0.99624156  1
  Te  Te3  1  0.50375844  0.71894717  0.90285345  1
  Te  Te4  1  0.40285345  0.99624156  0.28105283  1
  Te  Te5  1  0.78105283  0.09714655  0.00375844  1
  Te  Te6  1  0.99624156  0.28105283  0.40285345  1
  Te  Te7  1  0.09714655  0.00375844  0.78105283  1
  Te  Te8  1  0.71894717  0.90285345  0.50375844  1
  Te  Te9  1  0.49624156  0.21894717  0.59714655  1
  Te  Te10  1  0.59714655  0.49624156  0.21894717  1
  Te  Te11  1  0.21894717  0.59714655  0.49624156  1
loop_
_geom_bond_atom_site_label_1
_geom_bond_atom_site_label_2
_geom_bond_distance
_geom_bond_site_symmetry_2
Cs0 Te6 4.017888 1_555
Cs0 Te10 4.017888 1_555
Cs0 Te5 4.017888 1_555
Cs0 Te1 4.027162 1_554
Cs0 Te0 4.027162 1_655
Cs0 Te2 4.027162 1_654
Cs1 Te7 4.017888 1_555
Cs1 Te2 4.017888 1_555
Cs1 Te9 4.017888 1_555
Cs1 Te3 4.027162 1_545
Cs1 Te4 4.027162 1_546
Cs1 Te5 4.027162 1_556
Cs2 Te11 4.017888 1_555
Cs2 Te0 4.017888 1_555
Cs2 Te4 4.017888 1_555
Cs2 Te8 4.027162 1_455
Cs2 Te6 4.027162 1_465
Cs2 Te7 4.027162 1_565
Cs3 Te8 4.017888 1_555
Cs3 Te3 4.017888 1_555
Cs3 Te1 4.017888 1_555
Cs3 Te9 4.027162 1_555
Cs3 Te11 4.027162 1_555
Cs3 Te10 4.027162 1_555
Rb0 Te3 3.683525 1_555
Rb0 Te7 3.683525 1_565
Rb0 Te11 3.683525 1_555
Rb0 Te0 3.812768 1_556
Rb0 Te1 3.812768 1_455
Rb0 Te2 3.812768 1_555
Rb1 Te0 3.683525 1_655
Rb1 Te8 3.683525 1_555
Rb1 Te10 3.683525 1_555
Rb1 Te5 3.812768 1_565
Rb1 Te3 3.812768 1_554
Rb1 Te4 3.812768 1_555
Rb2 Te1 3.683525 1_555
Rb2 Te5 3.683525 1_556
Rb2 Te9 3.683525 1_555
Rb2 Te7 3.812768 1_655
Rb2 Te8 3.812768 1_545
Rb2 Te6 3.812768 1_555
Rb3 Te2 3.683525 1_554
Rb3 Te4 3.683525 1_545
Rb3 Te6 3.683525 1_455
Rb3 Te9 3.812768 1_555
Rb3 Te10 3.812768 1_555
Rb3 Te11 3.812768 1_555
Rb4 Te5 3.699235 1_555
Rb4 Te6 3.699235 1_555
Rb4 Te10 3.699235 1_555
Rb4 Te8 3.780235 1_545
Rb4 Te4 3.780235 1_545
Rb4 Te9 3.780235 1_555
Rb5 Te7 3.699235 1_555
Rb5 Te2 3.699235 1_555
Rb5 Te9 3.699235 1_555
Rb5 Te1 3.780235 1_455
Rb5 Te6 3.780235 1_455
Rb5 Te11 3.780235 1_555
Rb6 Te0 3.699235 1_555
Rb6 Te4 3.699235 1_555
Rb6 Te11 3.699235 1_555
Rb6 Te3 3.780235 1_554
Rb6 Te2 3.780235 1_554
Rb6 Te10 3.780235 1_555
Rb7 Te3 3.699235 1_555
Rb7 Te1 3.699235 1_555
Rb7 Te8 3.699235 1_555
Rb7 Te0 3.780235 1_656
Rb7 Te5 3.780235 1_566
Rb7 Te7 3.780235 1_665
Sb0 Te9 2.803800 1_565
Sb0 Te4 2.803800 1_555
Sb0 Te8 2.803800 1_555
Sb1 Te11 2.803800 1_655
Sb1 Te1 2.803800 1_555
Sb1 Te6 2.803800 1_555
Sb2 Te10 2.803800 1_556
Sb2 Te3 2.803800 1_555
Sb2 Te2 2.803800 1_555
Sb3 Te7 2.803800 1_554
Sb3 Te0 2.803800 1_545
Sb3 Te5 2.803800 1_455
