# generated using pymatgen
data_AlV2(Ni10B3)2
_symmetry_space_group_name_H-M   'P 1'
_cell_length_a   7.33432880
_cell_length_b   7.33432834
_cell_length_c   7.33432802
_cell_angle_alpha   59.99999702
_cell_angle_beta   59.99999909
_cell_angle_gamma   59.99999986
_symmetry_Int_Tables_number   1
_chemical_formula_structural   AlV2(Ni10B3)2
_chemical_formula_sum   'Al1 V2 Ni20 B6'
_cell_volume   278.97548546
_cell_formula_units_Z   1
loop_
 _symmetry_equiv_pos_site_id
 _symmetry_equiv_pos_as_xyz
  1  'x, y, z'
loop_
 _atom_site_type_symbol
 _atom_site_label
 _atom_site_symmetry_multiplicity
 _atom_site_fract_x
 _atom_site_fract_y
 _atom_site_fract_z
 _atom_site_occupancy
  Al  Al0  1  0.75000000  0.75000000  0.75000000  1
  V  V0  1  0.00000000  0.00000000  0.00000000  1
  V  V1  1  0.25000000  0.25000000  0.25000000  1
  Ni  Ni0  1  0.61693743  0.61693743  0.14918670  1
  Ni  Ni1  1  0.61693743  0.14918670  0.61693743  1
  Ni  Ni2  1  0.14918670  0.61693743  0.61693743  1
  Ni  Ni3  1  0.61693743  0.61693743  0.61693743  1
  Ni  Ni4  1  0.38055042  0.38055042  0.85834873  1
  Ni  Ni5  1  0.38055042  0.85834873  0.38055042  1
  Ni  Ni6  1  0.85834873  0.38055042  0.38055042  1
  Ni  Ni7  1  0.38055042  0.38055042  0.38055042  1
  Ni  Ni8  1  0.00104454  0.00104454  0.33825507  1
  Ni  Ni9  1  0.65965585  0.00104454  0.33825507  1
  Ni  Ni10  1  0.00104454  0.65965585  0.33825507  1
  Ni  Ni11  1  0.65965585  0.33825507  0.00104454  1
  Ni  Ni12  1  0.00104454  0.33825507  0.00104454  1
  Ni  Ni13  1  0.00104454  0.33825507  0.65965585  1
  Ni  Ni14  1  0.33825507  0.65965585  0.00104454  1
  Ni  Ni15  1  0.33825507  0.00104454  0.65965585  1
  Ni  Ni16  1  0.33825507  0.00104454  0.00104454  1
  Ni  Ni17  1  0.00104454  0.00104454  0.65965585  1
  Ni  Ni18  1  0.00104454  0.65965585  0.00104454  1
  Ni  Ni19  1  0.65965585  0.00104454  0.00104454  1
  B  B0  1  0.72897669  0.72897669  0.27102331  1
  B  B1  1  0.27102331  0.72897669  0.27102331  1
  B  B2  1  0.72897669  0.27102331  0.27102331  1
  B  B3  1  0.27102331  0.27102331  0.72897669  1
  B  B4  1  0.72897669  0.27102331  0.72897669  1
  B  B5  1  0.27102331  0.72897669  0.72897669  1
loop_
_geom_bond_atom_site_label_1
_geom_bond_atom_site_label_2
_geom_bond_distance
_geom_bond_site_symmetry_2
Al0 Ni0 2.390511 1_556
Al0 Ni1 2.390511 1_565
Al0 Ni2 2.390511 1_655
Al0 Ni3 2.390517 1_555
Ni4 V1 2.345385 1_556
Ni5 V1 2.345386 1_565
Ni6 V1 2.345386 1_655
Ni7 V1 2.345386 1_555
Ni8 V0 2.488558 1_555
Ni9 V0 2.488558 1_655
Ni10 V0 2.488558 1_565
Ni11 V0 2.488558 1_655
Ni12 V0 2.488558 1_555
Ni13 V0 2.488558 1_556
Ni14 V0 2.488558 1_565
Ni15 V0 2.488558 1_556
Ni16 V0 2.488558 1_555
Ni17 V0 2.488558 1_556
Ni18 V0 2.488558 1_565
Ni19 V0 2.488558 1_655
B0 Ni19 2.049908 1_565
B0 Ni18 2.049908 1_655
B0 Ni9 2.049908 1_565
B0 Ni10 2.049908 1_655
B0 Ni3 2.071906 1_555
B0 Ni0 2.071912 1_555
B0 Ni6 2.088226 1_555
B0 Ni5 2.088226 1_555
B1 Ni16 2.049908 1_565
B1 Ni14 2.049908 1_555
B1 Ni8 2.049908 1_565
B1 Ni10 2.049908 1_555
B1 Ni2 2.071906 1_555
B1 Ni0 2.071906 1_555
B1 Ni7 2.088226 1_555
B1 Ni5 2.088226 1_555
B2 Ni11 2.049908 1_555
B2 Ni12 2.049908 1_655
B2 Ni9 2.049908 1_555
B2 Ni8 2.049908 1_655
B2 Ni1 2.071906 1_555
B2 Ni0 2.071906 1_555
B2 Ni6 2.088226 1_555
B2 Ni7 2.088226 1_555
B3 Ni16 2.049908 1_556
B3 Ni12 2.049908 1_556
B3 Ni15 2.049908 1_555
B3 Ni13 2.049908 1_555
B3 Ni2 2.071906 1_555
B3 Ni1 2.071906 1_555
B3 Ni7 2.088226 1_555
B3 Ni4 2.088226 1_555
B4 Ni19 2.049908 1_556
B4 Ni11 2.049908 1_556
B4 Ni17 2.049908 1_655
B4 Ni13 2.049908 1_655
B4 Ni3 2.071906 1_555
B4 Ni1 2.071912 1_555
B4 Ni6 2.088226 1_555
B4 Ni4 2.088226 1_555
B5 Ni14 2.049908 1_556
B5 Ni18 2.049908 1_556
B5 Ni15 2.049908 1_565
B5 Ni17 2.049908 1_565
B5 Ni3 2.071906 1_555
B5 Ni2 2.071912 1_555
B5 Ni5 2.088226 1_555
B5 Ni4 2.088226 1_555
