# generated using pymatgen
data_Lu12AlNi4Sb
_symmetry_space_group_name_H-M   'P 1'
_cell_length_a   8.13078256
_cell_length_b   8.13078183
_cell_length_c   8.13078144
_cell_angle_alpha   112.05397141
_cell_angle_beta   110.24004218
_cell_angle_gamma   106.17464077
_symmetry_Int_Tables_number   1
_chemical_formula_structural   Lu12AlNi4Sb
_chemical_formula_sum   'Lu12 Al1 Ni4 Sb1'
_cell_volume   412.65547856
_cell_formula_units_Z   1
loop_
 _symmetry_equiv_pos_site_id
 _symmetry_equiv_pos_as_xyz
  1  'x, y, z'
loop_
 _atom_site_type_symbol
 _atom_site_label
 _atom_site_symmetry_multiplicity
 _atom_site_fract_x
 _atom_site_fract_y
 _atom_site_fract_z
 _atom_site_occupancy
  Lu  Lu0  1  0.67712487  0.86733849  0.19021362  1
  Lu  Lu1  1  0.32287513  0.51308876  0.19021362  1
  Lu  Lu2  1  0.82045097  0.78602190  0.60647287  1
  Lu  Lu3  1  0.17954903  0.78602190  0.96557093  1
  Lu  Lu4  1  0.82045097  0.21397810  0.03442907  1
  Lu  Lu5  1  0.17954903  0.21397810  0.39352713  1
  Lu  Lu6  1  0.67712487  0.48691124  0.80978638  1
  Lu  Lu7  1  0.32287513  0.13266151  0.80978638  1
  Lu  Lu8  1  0.56668816  0.27017756  0.29650960  1
  Lu  Lu9  1  0.43331184  0.72982244  0.70349040  1
  Lu  Lu10  1  0.02633104  0.72982244  0.29650960  1
  Lu  Lu11  1  0.97366896  0.27017756  0.70349040  1
  Al  Al0  1  0.00000000  0.50000000  0.50000000  1
  Ni  Ni0  1  0.34727063  0.50000000  0.84727063  1
  Ni  Ni1  1  0.65272937  0.50000000  0.15272937  1
  Ni  Ni2  1  0.87697933  0.87697933  1.00000000  1
  Ni  Ni3  1  0.12302067  0.12302067  0.00000000  1
  Sb  Sb0  1  0.50000000  0.00000000  0.50000000  1
loop_
_geom_bond_atom_site_label_1
_geom_bond_atom_site_label_2
_geom_bond_distance
_geom_bond_site_symmetry_2
Lu0 Ni2 2.607213 1_554
Lu0 Ni1 2.827971 1_555
Lu0 Ni0 2.827971 1_554
Lu0 Sb0 3.304088 1_565
Lu1 Ni3 2.607213 1_555
Lu1 Ni0 2.827971 1_554
Lu1 Ni1 2.827971 1_555
Lu1 Sb0 3.304088 1_565
Lu2 Ni2 2.830585 1_555
Lu2 Ni3 2.830586 1_666
Lu2 Ni1 3.031152 1_555
Lu2 Sb0 3.558235 1_565
Lu3 Ni3 2.830586 1_566
Lu3 Ni2 2.830586 1_455
Lu3 Ni0 3.031151 1_555
Lu3 Sb0 3.558235 1_566
Lu4 Ni2 2.830586 1_544
Lu4 Ni3 2.830586 1_655
Lu4 Ni1 3.031151 1_555
Lu4 Sb0 3.558235 1_554
Lu5 Ni3 2.830585 1_555
Lu5 Ni2 2.830586 1_444
Lu5 Ni0 3.031152 1_555
Lu5 Sb0 3.558235 1_555
Lu6 Ni2 2.607213 1_555
Lu6 Ni1 2.827971 1_556
Lu6 Ni0 2.827971 1_555
Lu6 Sb0 3.304088 1_555
Lu7 Ni3 2.607213 1_556
Lu7 Ni0 2.827971 1_555
Lu7 Ni1 2.827971 1_556
Lu7 Sb0 3.304088 1_555
Lu8 Ni1 2.612647 1_555
Lu8 Ni3 3.109436 1_555
Lu8 Sb0 3.247120 1_555
Lu9 Ni0 2.612647 1_555
Lu9 Ni2 3.109436 1_555
Lu9 Sb0 3.247120 1_565
Lu10 Ni1 2.612643 1_455
Lu10 Ni2 3.109427 1_454
Lu10 Sb0 3.247126 1_565
Lu11 Ni0 2.612643 1_655
Lu11 Ni3 3.109427 1_656
Lu11 Sb0 3.247126 1_555
Al0 Lu9 2.935823 1_555
Al0 Lu8 2.935823 1_455
Al0 Lu10 2.935829 1_555
Al0 Lu11 2.935829 1_455
Al0 Lu2 3.089186 1_455
Al0 Lu5 3.089186 1_555
Al0 Lu3 3.089186 1_555
Al0 Lu4 3.089186 1_455
Ni2 Ni3 2.403000 1_666
