# generated using pymatgen
data_Rb2VAgTe4
_symmetry_space_group_name_H-M   'P 1'
_cell_length_a   14.82393127
_cell_length_b   13.26959125
_cell_length_c   7.98460159
_cell_angle_alpha   84.56063027
_cell_angle_beta   63.01378876
_cell_angle_gamma   32.42558000
_symmetry_Int_Tables_number   1
_chemical_formula_structural   Rb2VAgTe4
_chemical_formula_sum   'Rb4 V2 Ag2 Te8'
_cell_volume   598.55721351
_cell_formula_units_Z   2
loop_
 _symmetry_equiv_pos_site_id
 _symmetry_equiv_pos_as_xyz
  1  'x, y, z'
loop_
 _atom_site_type_symbol
 _atom_site_label
 _atom_site_symmetry_multiplicity
 _atom_site_fract_x
 _atom_site_fract_y
 _atom_site_fract_z
 _atom_site_occupancy
  Rb  Rb0  1  0.68232461  0.68232461  0.31767539  1
  Rb  Rb1  1  0.31767539  0.31767539  0.68232461  1
  Rb  Rb2  1  0.93232461  0.93232461  0.56767539  1
  Rb  Rb3  1  0.56767539  0.56767539  0.93232461  1
  V  V0  1  0.75000000  0.75000000  0.75000000  1
  V  V1  1  0.50000000  0.50000000  0.50000000  1
  Ag  Ag0  1  0.25000000  0.25000000  0.25000000  1
  Ag  Ag1  1  0.00000000  0.00000000  0.00000000  1
  Te  Te0  1  0.55825983  0.32524589  0.23827930  1
  Te  Te1  1  0.87821498  0.23827930  0.32524589  1
  Te  Te2  1  0.01172070  0.37178502  0.69174017  1
  Te  Te3  1  0.92475411  0.69174017  0.37178502  1
  Te  Te4  1  0.23827930  0.87821498  0.55825983  1
  Te  Te5  1  0.32524589  0.55825983  0.87821498  1
  Te  Te6  1  0.37178502  0.01172070  0.92475411  1
  Te  Te7  1  0.69174017  0.92475411  0.01172070  1
loop_
_geom_bond_atom_site_label_1
_geom_bond_atom_site_label_2
_geom_bond_distance
_geom_bond_site_symmetry_2
Rb0 Te2 3.686471 1_654
Rb0 Te6 3.686471 1_565
Rb0 Te4 3.789670 1_555
Rb0 Te1 3.789670 1_555
Rb0 Te3 3.910848 1_555
Rb0 Te7 3.910848 1_555
Rb0 Te6 4.017726 1_654
Rb0 Te2 4.017726 1_565
Rb1 Te7 3.686470 1_456
Rb1 Te3 3.686470 1_545
Rb1 Te0 3.789670 1_555
Rb1 Te5 3.789670 1_555
Rb1 Te2 3.910847 1_555
Rb1 Te6 3.910848 1_555
Rb1 Te3 4.017726 1_456
Rb1 Te7 4.017726 1_545
Rb2 Te0 3.686470 1_655
Rb2 Te5 3.686470 1_565
Rb2 Te7 3.789670 1_556
Rb2 Te3 3.789670 1_555
Rb2 Te4 3.910847 1_655
Rb2 Te1 3.910848 1_565
Rb2 Te5 4.017726 1_654
Rb2 Te0 4.017726 1_566
Rb3 Te4 3.686471 1_556
Rb3 Te1 3.686471 1_555
Rb3 Te2 3.789670 1_655
Rb3 Te6 3.789670 1_565
Rb3 Te5 3.910848 1_555
Rb3 Te0 3.910848 1_556
Rb3 Te1 4.017726 1_466
Rb3 Te4 4.017726 1_645
Ag0 Te7 2.768776 1_545
Ag0 Te3 2.768776 1_455
Ag0 Te2 2.768776 1_555
Ag0 Te6 2.768776 1_554
Ag1 Te0 2.768776 1_455
Ag1 Te5 2.768776 1_544
Ag1 Te4 2.768776 1_544
Ag1 Te1 2.768776 1_455
Te0 V1 2.527864 1_555
Te1 V1 2.527863 1_555
Te2 V0 2.527863 1_455
Te3 V0 2.527864 1_555
Te4 V1 2.527863 1_555
Te5 V1 2.527864 1_555
Te6 V0 2.527863 1_545
Te7 V0 2.527864 1_554
