# generated using pymatgen
data_TbCoSn2
_symmetry_space_group_name_H-M   'P 1'
_cell_length_a   9.42665731
_cell_length_b   9.42665731
_cell_length_c   4.46088000
_cell_angle_alpha   90.00000000
_cell_angle_beta   90.00000000
_cell_angle_gamma   153.15085033
_symmetry_Int_Tables_number   1
_chemical_formula_structural   TbCoSn2
_chemical_formula_sum   'Tb2 Co2 Sn4'
_cell_volume   179.03226945
_cell_formula_units_Z   2
loop_
 _symmetry_equiv_pos_site_id
 _symmetry_equiv_pos_as_xyz
  1  'x, y, z'
loop_
 _atom_site_type_symbol
 _atom_site_label
 _atom_site_symmetry_multiplicity
 _atom_site_fract_x
 _atom_site_fract_y
 _atom_site_fract_z
 _atom_site_occupancy
  Tb  Tb0  1  0.11391500  0.88608500  0.75000000  1
  Tb  Tb1  1  0.88608500  0.11391500  0.25000000  1
  Co  Co0  1  0.68003700  0.31996300  0.25000000  1
  Co  Co1  1  0.31996300  0.68003700  0.75000000  1
  Sn  Sn0  1  0.54840700  0.45159300  0.25000000  1
  Sn  Sn1  1  0.25168000  0.74832000  0.25000000  1
  Sn  Sn2  1  0.45159300  0.54840700  0.75000000  1
  Sn  Sn3  1  0.74832000  0.25168000  0.75000000  1
loop_
_geom_bond_atom_site_label_1
_geom_bond_atom_site_label_2
_geom_bond_distance
_geom_bond_site_symmetry_2
Co0 Sn0 2.413854 1_555
Co0 Sn1 2.552604 1_545
Co0 Sn1 2.552604 1_655
Co0 Sn3 2.557896 1_555
Co0 Sn3 2.557896 1_554
Co0 Tb0 3.351845 1_655
Co0 Tb0 3.351845 1_654
Co0 Tb0 3.351845 1_545
Co0 Tb0 3.351845 1_544
Co1 Sn2 2.413854 1_555
Co1 Sn3 2.552604 1_455
Co1 Sn3 2.552604 1_565
Co1 Sn1 2.557896 1_555
Co1 Sn1 2.557896 1_556
Co1 Tb1 3.351845 1_565
Co1 Tb1 3.351845 1_566
Co1 Tb1 3.351845 1_456
Co1 Tb1 3.351845 1_455
Sn0 Sn2 2.850768 1_555
Sn0 Sn2 2.850768 1_554
Sn0 Tb0 3.347789 1_545
Sn0 Tb0 3.347789 1_544
Sn0 Tb0 3.347789 1_655
Sn0 Tb0 3.347789 1_654
Sn0 Tb1 3.694643 1_455
Sn0 Tb1 3.694643 1_565
Sn1 Tb1 3.296159 1_565
Sn1 Tb1 3.296159 1_455
Sn1 Tb0 3.370067 1_555
Sn1 Tb0 3.370067 1_554
Sn2 Tb1 3.347789 1_566
Sn2 Tb1 3.347789 1_456
Sn2 Tb1 3.347789 1_455
Sn2 Tb1 3.347789 1_565
Sn2 Tb0 3.694643 1_545
Sn2 Tb0 3.694643 1_655
Sn3 Tb0 3.296159 1_655
Sn3 Tb0 3.296159 1_545
Sn3 Tb1 3.370067 1_555
Sn3 Tb1 3.370067 1_556
