# generated using pymatgen
data_Sr4Ru2O9
_symmetry_space_group_name_H-M   'P 1'
_cell_length_a   9.67944578
_cell_length_b   9.67944590
_cell_length_c   8.03204135
_cell_angle_alpha   90.00000719
_cell_angle_beta   89.99999390
_cell_angle_gamma   119.99996453
_symmetry_Int_Tables_number   1
_chemical_formula_structural   Sr4Ru2O9
_chemical_formula_sum   'Sr12 Ru6 O27'
_cell_volume   651.71499094
_cell_formula_units_Z   3
loop_
 _symmetry_equiv_pos_site_id
 _symmetry_equiv_pos_as_xyz
  1  'x, y, z'
loop_
 _atom_site_type_symbol
 _atom_site_label
 _atom_site_symmetry_multiplicity
 _atom_site_fract_x
 _atom_site_fract_y
 _atom_site_fract_z
 _atom_site_occupancy
  Sr  Sr0  1  0.00000227  0.67244474  0.00000054  1
  Sr  Sr1  1  0.00000108  0.65415649  0.50000107  1
  Sr  Sr2  1  0.32077652  0.98716015  0.75193092  1
  Sr  Sr3  1  0.01283909  0.33361612  0.75193139  1
  Sr  Sr4  1  0.34584329  0.34584423  0.50000126  1
  Sr  Sr5  1  0.32755544  0.32755735  0.00000115  1
  Sr  Sr6  1  0.66638327  0.67922310  0.75193207  1
  Sr  Sr7  1  0.33361893  0.01283931  0.24807113  1
  Sr  Sr8  1  0.67922030  0.66638098  0.24807130  1
  Sr  Sr9  1  0.65415562  -0.00000104  0.50000112  1
  Sr  Sr10  1  0.67244252  -0.00000199  0.00000118  1
  Sr  Sr11  1  0.98716094  0.32078013  0.24807131  1
  Ru  Ru0  1  -0.00000006  0.00000001  0.84452989  1
  Ru  Ru1  1  0.33333330  0.66666660  0.91200221  1
  Ru  Ru2  1  0.33333357  0.66666659  0.59863216  1
  Ru  Ru3  1  0.66666658  0.33333355  0.40135741  1
  Ru  Ru4  1  0.66666651  0.33333338  0.08799752  1
  Ru  Ru5  1  -0.00000012  -0.00000007  0.15548999  1
  O  O0  1  0.01031010  0.83685143  0.27598162  1
  O  O1  1  0.15225585  0.64445478  0.75370774  1
  O  O2  1  0.31841399  0.82263872  0.03208138  1
  O  O3  1  0.31185502  0.82336254  0.47761392  1
  O  O4  1  -0.00000034  0.16513941  -0.00000669  1
  O  O5  1  0.17736121  0.49577511  0.03208105  1
  O  O6  1  0.17663731  0.48849256  0.47761345  1
  O  O7  1  0.49219931  0.84774424  0.75370792  1
  O  O8  1  0.16314855  0.17345841  0.27598157  1
  O  O9  1  0.17345325  0.16314338  0.72402798  1
  O  O10  1  0.35554558  0.50780089  0.75370782  1
  O  O11  1  0.16513950  -0.00000022  -0.00000678  1
  O  O12  1  0.50422471  0.68158578  0.03208125  1
  O  O13  1  0.51150783  0.68814492  0.47761365  1
  O  O14  1  0.82654143  0.98968994  0.27598162  1
  O  O15  1  0.50780252  0.35554837  0.24629054  1
  O  O16  1  0.48848968  0.17663050  0.52238581  1
  O  O17  1  0.49577115  0.17735736  0.96791144  1
  O  O18  1  0.83486040  0.83486023  -0.00000671  1
  O  O19  1  0.68814128  0.51151058  0.52238581  1
  O  O20  1  0.68158606  0.50422867  0.96791143  1
  O  O21  1  0.64445201  0.15225443  0.24629053  1
  O  O22  1  0.98969004  0.82654669  0.72402772  1
  O  O23  1  0.84774441  0.49219852  0.24629026  1
  O  O24  1  0.82264228  0.31841348  0.96791151  1
  O  O25  1  0.82336948  0.31185875  0.52238558  1
  O  O26  1  0.83685638  0.01030987  0.72402798  1
loop_
_geom_bond_atom_site_label_1
_geom_bond_atom_site_label_2
_geom_bond_distance
_geom_bond_site_symmetry_2
O0 Ru5 1.896843 1_565
O0 Sr1 2.489636 1_555
O0 Sr0 2.701359 1_555
O0 Sr7 2.722977 1_565
O0 Sr8 2.784857 1_455
O1 Ru2 2.071935 1_555
O1 Ru1 2.087578 1_555
O1 Sr1 2.543951 1_555
O1 Sr0 2.560852 1_556
O1 Sr3 2.610290 1_555
O1 Sr2 2.872945 1_555
O2 Ru1 1.856977 1_554
O2 Sr7 2.479876 1_565
O2 Sr0 2.682961 1_555
O2 Sr2 2.750163 1_554
O2 Sr10 2.978864 1_565
O3 Ru2 1.898381 1_555
O3 Sr7 2.533950 1_565
O3 Sr1 2.623490 1_555
O3 Sr2 2.690521 1_555
O3 Sr9 2.875505 1_565
O4 Ru0 2.028372 1_554
O4 Ru5 2.028538 1_555
O4 Sr3 2.538108 1_554
O4 Sr11 2.538227 1_455
O4 Sr5 2.745817 1_555
O4 Sr10 2.745828 1_455
O5 Ru1 1.856977 1_554
O5 Sr11 2.479876 1_455
O5 Sr5 2.682961 1_555
O5 Sr3 2.750161 1_554
O5 Sr0 2.978863 1_555
O6 Ru2 1.898383 1_555
O6 Sr11 2.533944 1_455
O6 Sr4 2.623492 1_555
O6 Sr3 2.690530 1_555
O6 Sr1 2.875500 1_555
O7 Ru2 2.071935 1_555
O7 Ru1 2.087579 1_555
O7 Sr9 2.543951 1_565
O7 Sr10 2.560855 1_566
O7 Sr2 2.610290 1_555
O7 Sr6 2.872941 1_555
O8 Ru5 1.896843 1_555
O8 Sr4 2.489637 1_555
O8 Sr5 2.701356 1_555
O8 Sr11 2.722979 1_455
O8 Sr7 2.784853 1_555
O9 Ru0 1.896842 1_555
O9 Sr4 2.489713 1_555
O9 Sr5 2.701338 1_556
O9 Sr2 2.722950 1_545
O9 Sr3 2.784827 1_555
O10 Ru2 2.071934 1_555
O10 Ru1 2.087580 1_555
O10 Sr4 2.543950 1_555
O10 Sr5 2.560856 1_556
O10 Sr6 2.610283 1_555
O10 Sr3 2.872954 1_555
O11 Ru0 2.028373 1_554
O11 Ru5 2.028539 1_555
O11 Sr2 2.538109 1_544
O11 Sr7 2.538225 1_555
O11 Sr0 2.745810 1_545
O11 Sr5 2.745832 1_555
O12 Ru1 1.856977 1_554
O12 Sr8 2.479877 1_555
O12 Sr10 2.682965 1_565
O12 Sr6 2.750153 1_554
O12 Sr5 2.978863 1_555
O13 Ru2 1.898381 1_555
O13 Sr8 2.533945 1_555
O13 Sr9 2.623491 1_565
O13 Sr6 2.690528 1_555
O13 Sr4 2.875506 1_555
O14 Ru5 1.896842 1_665
O14 Sr9 2.489635 1_565
O14 Sr10 2.701356 1_565
O14 Sr8 2.722978 1_555
O14 Sr11 2.784860 1_565
O15 Ru3 2.071892 1_555
O15 Ru4 2.087572 1_555
O15 Sr4 2.543986 1_555
O15 Sr5 2.560851 1_555
O15 Sr8 2.610239 1_555
O15 Sr7 2.872976 1_555
O16 Ru3 1.898459 1_555
O16 Sr2 2.533940 1_545
O16 Sr4 2.623541 1_555
O16 Sr7 2.690473 1_555
O16 Sr9 2.875475 1_555
O17 Ru4 1.857039 1_556
O17 Sr2 2.479809 1_545
O17 Sr5 2.682998 1_556
O17 Sr7 2.750197 1_556
O17 Sr10 2.978887 1_556
O18 Ru0 2.028374 1_664
O18 Ru5 2.028538 1_665
O18 Sr6 2.538105 1_554
O18 Sr8 2.538226 1_555
O18 Sr10 2.745814 1_565
O18 Sr0 2.745829 1_655
O19 Ru3 1.898457 1_555
O19 Sr6 2.533945 1_555
O19 Sr1 2.623539 1_655
O19 Sr8 2.690471 1_555
O19 Sr4 2.875481 1_555
O20 Ru4 1.857037 1_556
O20 Sr6 2.479801 1_555
O20 Sr0 2.683004 1_656
O20 Sr8 2.750197 1_556
O20 Sr5 2.978888 1_556
O21 Ru3 2.071895 1_555
O21 Ru4 2.087574 1_555
O21 Sr9 2.543986 1_555
O21 Sr10 2.560850 1_555
O21 Sr7 2.610243 1_555
O21 Sr11 2.872975 1_555
O22 Ru0 1.896843 1_665
O22 Sr1 2.489713 1_655
O22 Sr0 2.701336 1_656
O22 Sr6 2.722954 1_555
O22 Sr2 2.784825 1_655
O23 Ru3 2.071892 1_555
O23 Ru4 2.087570 1_555
O23 Sr1 2.543988 1_655
O23 Sr0 2.560854 1_655
O23 Sr11 2.610257 1_555
O23 Sr8 2.872953 1_555
O24 Ru4 1.857038 1_556
O24 Sr3 2.479803 1_655
O24 Sr10 2.682998 1_556
O24 Sr11 2.750198 1_556
O24 Sr0 2.978893 1_656
O25 Ru3 1.898461 1_555
O25 Sr3 2.533938 1_655
O25 Sr9 2.623539 1_555
O25 Sr11 2.690469 1_555
O25 Sr1 2.875479 1_655
O26 Ru0 1.896843 1_655
O26 Sr9 2.489712 1_555
O26 Sr10 2.701337 1_556
O26 Sr3 2.722949 1_655
O26 Sr6 2.784828 1_545
