# generated using pymatgen
data_Ti6BI12
_symmetry_space_group_name_H-M   'P 1'
_cell_length_a   9.08162432
_cell_length_b   9.08162554
_cell_length_c   9.08162489
_cell_angle_alpha   106.75294616
_cell_angle_beta   106.75294925
_cell_angle_gamma   106.75294025
_symmetry_Int_Tables_number   1
_chemical_formula_structural   Ti6BI12
_chemical_formula_sum   'Ti6 B1 I12'
_cell_volume   627.94361053
_cell_formula_units_Z   1
loop_
 _symmetry_equiv_pos_site_id
 _symmetry_equiv_pos_as_xyz
  1  'x, y, z'
loop_
 _atom_site_type_symbol
 _atom_site_label
 _atom_site_symmetry_multiplicity
 _atom_site_fract_x
 _atom_site_fract_y
 _atom_site_fract_z
 _atom_site_occupancy
  Ti  Ti0  1  0.97440650  0.74230825  0.91678499  1
  Ti  Ti1  1  0.25769175  0.08321501  0.02559350  1
  Ti  Ti2  1  0.08321501  0.02559350  0.25769175  1
  Ti  Ti3  1  0.91678499  0.97440650  0.74230825  1
  Ti  Ti4  1  0.74230825  0.91678499  0.97440650  1
  Ti  Ti5  1  0.02559350  0.25769175  0.08321501  1
  B  B0  1  0.00000000  0.00000000  0.00000000  1
  I  I0  1  0.92398830  0.29504655  0.77921290  1
  I  I1  1  0.70495345  0.22078710  0.07601170  1
  I  I2  1  0.42772533  0.13550260  0.35587827  1
  I  I3  1  0.86449740  0.64412173  0.57227467  1
  I  I4  1  0.22078710  0.07601170  0.70495345  1
  I  I5  1  0.64412173  0.57227467  0.86449740  1
  I  I6  1  0.35587827  0.42772533  0.13550260  1
  I  I7  1  0.77921290  0.92398830  0.29504655  1
  I  I8  1  0.13550260  0.35587827  0.42772533  1
  I  I9  1  0.57227467  0.86449740  0.64412173  1
  I  I10  1  0.29504655  0.77921290  0.92398830  1
  I  I11  1  0.07601170  0.70495345  0.22078710  1
loop_
_geom_bond_atom_site_label_1
_geom_bond_atom_site_label_2
_geom_bond_distance
_geom_bond_site_symmetry_2
B0 Ti4 2.160449 1_444
B0 Ti1 2.160449 1_555
B0 Ti2 2.160449 1_555
B0 Ti3 2.160449 1_444
B0 Ti0 2.160449 1_444
B0 Ti5 2.160449 1_555
I0 Ti5 2.800090 1_656
I0 Ti3 2.812629 1_545
I1 Ti4 2.800090 1_544
I1 Ti5 2.812628 1_655
I2 Ti2 2.767400 1_555
I2 Ti1 2.773641 1_555
I3 Ti0 2.767400 1_555
I3 Ti3 2.773641 1_555
I4 Ti3 2.800090 1_445
I4 Ti1 2.812628 1_556
I5 Ti4 2.767400 1_555
I5 Ti0 2.773641 1_555
I6 Ti1 2.767400 1_555
I6 Ti5 2.773641 1_555
I7 Ti2 2.800090 1_665
I7 Ti4 2.812628 1_554
I8 Ti5 2.767400 1_555
I8 Ti2 2.773641 1_555
I9 Ti3 2.767400 1_555
I9 Ti4 2.773641 1_555
I10 Ti1 2.800090 1_566
I10 Ti0 2.812628 1_455
I11 Ti0 2.800090 1_454
I11 Ti2 2.812629 1_565
