# generated using pymatgen
data_Cs2Sr(GeSe3)2
_symmetry_space_group_name_H-M   'P 1'
_cell_length_a   9.51939604
_cell_length_b   9.51939653
_cell_length_c   9.46498127
_cell_angle_alpha   90.68594907
_cell_angle_beta   90.68595187
_cell_angle_gamma   113.86126006
_symmetry_Int_Tables_number   1
_chemical_formula_structural   Cs2Sr(GeSe3)2
_chemical_formula_sum   'Cs4 Sr2 Ge4 Se12'
_cell_volume   784.20728275
_cell_formula_units_Z   2
loop_
 _symmetry_equiv_pos_site_id
 _symmetry_equiv_pos_as_xyz
  1  'x, y, z'
loop_
 _atom_site_type_symbol
 _atom_site_label
 _atom_site_symmetry_multiplicity
 _atom_site_fract_x
 _atom_site_fract_y
 _atom_site_fract_z
 _atom_site_occupancy
  Cs  Cs0  1  0.25648915  0.54433408  0.53059652  1
  Cs  Cs1  1  0.74351085  0.45566592  0.46940348  1
  Cs  Cs2  1  0.45566592  0.74351085  0.96940348  1
  Cs  Cs3  1  0.54433408  0.25648915  0.03059652  1
  Sr  Sr0  1  0.99805459  0.00194541  0.25000000  1
  Sr  Sr1  1  0.00194541  0.99805459  0.75000000  1
  Ge  Ge0  1  0.97756717  0.65790839  0.04277000  1
  Ge  Ge1  1  0.02243283  0.34209161  0.95723000  1
  Ge  Ge2  1  0.34209161  0.02243283  0.45723000  1
  Ge  Ge3  1  0.65790839  0.97756717  0.54277000  1
  Se  Se0  1  0.66820866  0.76494698  0.65005713  1
  Se  Se1  1  0.91409581  0.49693638  0.83202458  1
  Se  Se2  1  0.23505302  0.33179134  0.84994287  1
  Se  Se3  1  0.49693638  0.91409581  0.33202458  1
  Se  Se4  1  0.33179134  0.23505302  0.34994287  1
  Se  Se5  1  0.90245061  0.16377443  0.50382135  1
  Se  Se6  1  0.83622557  0.09754939  0.99617865  1
  Se  Se7  1  0.16377443  0.90245061  0.00382135  1
  Se  Se8  1  0.08590419  0.50306362  0.16797542  1
  Se  Se9  1  0.50306362  0.08590419  0.66797542  1
  Se  Se10  1  0.09754939  0.83622557  0.49617865  1
  Se  Se11  1  0.76494698  0.66820866  0.15005713  1
loop_
_geom_bond_atom_site_label_1
_geom_bond_atom_site_label_2
_geom_bond_distance
_geom_bond_site_symmetry_2
Cs0 Se2 3.619201 1_555
Cs0 Se10 3.677947 1_555
Cs0 Se4 3.704317 1_555
Cs0 Se8 3.726851 1_555
Cs0 Se0 3.771971 1_555
Cs0 Se5 3.824432 1_455
Cs0 Se3 3.860625 1_555
Cs0 Se1 4.246230 1_455
Cs1 Se11 3.619201 1_555
Cs1 Se5 3.677947 1_555
Cs1 Se0 3.704317 1_555
Cs1 Se1 3.726851 1_555
Cs1 Se4 3.771971 1_555
Cs1 Se10 3.824432 1_655
Cs1 Se9 3.860625 1_555
Cs1 Se8 4.246230 1_655
Cs2 Se0 3.619201 1_555
Cs2 Se7 3.677947 1_556
Cs2 Se11 3.704316 1_556
Cs2 Se3 3.726851 1_556
Cs2 Se2 3.771971 1_555
Cs2 Se6 3.824432 1_565
Cs2 Se8 3.860625 1_556
Cs2 Se9 4.246230 1_565
Cs3 Se4 3.619201 1_555
Cs3 Se6 3.677947 1_554
Cs3 Se2 3.704316 1_554
Cs3 Se9 3.726851 1_554
Cs3 Se11 3.771971 1_555
Cs3 Se7 3.824432 1_545
Cs3 Se1 3.860625 1_554
Cs3 Se3 4.246230 1_545
Ge0 Se11 2.311888 1_555
Ge0 Se7 2.322670 1_655
Ge0 Se1 2.416797 1_554
Ge0 Se8 2.425527 1_655
Ge1 Se2 2.311888 1_555
Ge1 Se6 2.322670 1_455
Ge1 Se8 2.416797 1_556
Ge1 Se1 2.425527 1_455
Ge2 Se4 2.311888 1_555
Ge2 Se10 2.322670 1_545
Ge2 Se9 2.416797 1_555
Ge2 Se3 2.425527 1_545
Ge3 Se0 2.311888 1_555
Ge3 Se5 2.322670 1_565
Ge3 Se3 2.416797 1_555
Ge3 Se9 2.425527 1_565
Se0 Sr1 3.175890 1_655
Se2 Sr1 3.175890 1_545
Se4 Sr0 3.175890 1_455
Se5 Sr1 3.171591 1_645
Se5 Sr0 3.173496 1_555
Se6 Sr1 3.171591 1_645
Se6 Sr0 3.173496 1_556
Se7 Sr0 3.171591 1_465
Se7 Sr1 3.173496 1_554
Se10 Sr0 3.171591 1_465
Se10 Sr1 3.173496 1_555
Se11 Sr0 3.175890 1_565
