# generated using pymatgen
data_LuTa2(ReSi)3
_symmetry_space_group_name_H-M   'P 1'
_cell_length_a   6.93618957
_cell_length_b   6.93618973
_cell_length_c   3.33679667
_cell_angle_alpha   90.00000000
_cell_angle_beta   90.00000000
_cell_angle_gamma   120.65571042
_symmetry_Int_Tables_number   1
_chemical_formula_structural   LuTa2(ReSi)3
_chemical_formula_sum   'Lu1 Ta2 Re3 Si3'
_cell_volume   138.10031171
_cell_formula_units_Z   1
loop_
 _symmetry_equiv_pos_site_id
 _symmetry_equiv_pos_as_xyz
  1  'x, y, z'
loop_
 _atom_site_type_symbol
 _atom_site_label
 _atom_site_symmetry_multiplicity
 _atom_site_fract_x
 _atom_site_fract_y
 _atom_site_fract_z
 _atom_site_occupancy
  Lu  Lu0  1  0.40241512  0.40241512  0.50000000  1
  Ta  Ta0  1  0.60022546  0.00228567  0.50000000  1
  Ta  Ta1  1  0.00228567  0.60022546  0.50000000  1
  Re  Re0  1  0.74832186  0.74832186  0.00000000  1
  Re  Re1  1  0.25279715  0.99063889  0.00000000  1
  Re  Re2  1  0.99063889  0.25279715  0.00000000  1
  Si  Si0  1  0.67185473  0.33260647  0.00000000  1
  Si  Si1  1  0.33260647  0.67185473  0.00000000  1
  Si  Si2  1  0.99885466  0.99885466  0.50000000  1
loop_
_geom_bond_atom_site_label_1
_geom_bond_atom_site_label_2
_geom_bond_distance
_geom_bond_site_symmetry_2
Lu0 Si0 2.726452 1_556
Lu0 Si0 2.726452 1_555
Lu0 Si1 2.726452 1_555
Lu0 Si1 2.726452 1_556
Lu0 Si2 2.771383 1_445
Lu0 Re0 2.902817 1_556
Lu0 Re0 2.902817 1_555
Lu0 Re2 2.999260 1_456
Lu0 Re2 2.999260 1_455
Lu0 Re1 2.999260 1_545
Lu0 Re1 2.999260 1_546
Re0 Si2 2.396590 1_555
Re0 Si2 2.396590 1_554
Re0 Si1 2.652582 1_555
Re0 Si0 2.652582 1_555
Re0 Ta1 2.964290 1_655
Re0 Ta1 2.964290 1_654
Re0 Ta0 2.964291 1_564
Re0 Ta0 2.964291 1_565
Re1 Si2 2.447788 1_455
Re1 Si2 2.447788 1_454
Re1 Si1 2.538470 1_555
Re1 Si0 2.654086 1_565
Re1 Ta1 2.887493 1_555
Re1 Ta1 2.887493 1_554
Re1 Ta0 2.898074 1_564
Re1 Ta0 2.898074 1_565
Re2 Si2 2.447788 1_544
Re2 Si2 2.447788 1_545
Re2 Si0 2.538470 1_555
Re2 Si1 2.654086 1_655
Re2 Ta0 2.887493 1_554
Re2 Ta0 2.887493 1_555
Re2 Ta1 2.898074 1_655
Re2 Ta1 2.898074 1_654
Si0 Ta0 2.668151 1_554
Si0 Ta0 2.668151 1_555
Si0 Ta1 2.672775 1_655
Si0 Ta1 2.672775 1_654
Si1 Ta1 2.668150 1_554
Si1 Ta1 2.668150 1_555
Si1 Ta0 2.672775 1_564
Si1 Ta0 2.672775 1_565
Si2 Ta0 2.777177 1_565
Si2 Ta1 2.777177 1_655
