# generated using pymatgen
data_Sr6MoOsO12
_symmetry_space_group_name_H-M   'P 1'
_cell_length_a   6.07490919
_cell_length_b   5.82310819
_cell_length_c   10.17062407
_cell_angle_alpha   55.13800100
_cell_angle_beta   89.75063116
_cell_angle_gamma   89.56127548
_symmetry_Int_Tables_number   1
_chemical_formula_structural   Sr6MoOsO12
_chemical_formula_sum   'Sr6 Mo1 Os1 O12'
_cell_volume   295.20560625
_cell_formula_units_Z   1
loop_
 _symmetry_equiv_pos_site_id
 _symmetry_equiv_pos_as_xyz
  1  'x, y, z'
loop_
 _atom_site_type_symbol
 _atom_site_label
 _atom_site_symmetry_multiplicity
 _atom_site_fract_x
 _atom_site_fract_y
 _atom_site_fract_z
 _atom_site_occupancy
  Sr  Sr0  1  0.50000000  0.50000000  0.50000000  1
  Sr  Sr1  1  0.94801289  0.73066679  0.25499883  1
  Sr  Sr2  1  0.44534286  0.27063910  0.24542541  1
  Sr  Sr3  1  0.00000000  0.50000000  0.00000000  1
  Sr  Sr4  1  0.55465714  0.72936090  0.75457459  1
  Sr  Sr5  1  0.05198711  0.26933321  0.74500117  1
  Mo  Mo0  1  0.50000000  0.00000000  0.00000000  1
  Os  Os0  1  0.00000000  0.00000000  0.50000000  1
  O  O0  1  0.45688902  0.11657850  0.78251859  1
  O  O1  1  0.23647631  0.77384973  0.06156031  1
  O  O2  1  0.17877416  0.31688867  0.45306351  1
  O  O3  1  0.67229074  0.68414143  0.04542098  1
  O  O4  1  0.73891023  0.23035354  0.43656229  1
  O  O5  1  0.95420745  0.88198651  0.71836061  1
  O  O6  1  0.04579255  0.11801349  0.28163939  1
  O  O7  1  0.26108977  0.76964646  0.56343771  1
  O  O8  1  0.32770926  0.31585857  0.95457902  1
  O  O9  1  0.82122584  0.68311133  0.54693649  1
  O  O10  1  0.76352369  0.22615027  0.93843969  1
  O  O11  1  0.54311098  0.88342150  0.21748141  1
loop_
_geom_bond_atom_site_label_1
_geom_bond_atom_site_label_2
_geom_bond_distance
_geom_bond_site_symmetry_2
Mo0 O8 1.922293 1_554
Mo0 O3 1.922293 1_545
Mo0 O11 1.925552 1_545
Mo0 O0 1.925552 1_554
Mo0 O10 1.941654 1_554
Mo0 O1 1.941654 1_545
O0 Sr0 2.445034 1_555
O0 Sr4 2.495661 1_545
O0 Sr5 2.563942 1_555
O1 Sr3 2.486563 1_555
O1 Sr1 2.532963 1_455
O1 Sr2 2.718951 1_555
O1 Sr5 3.051045 1_564
O2 Os0 1.957435 1_555
O2 Sr0 2.407227 1_555
O2 Sr1 2.500554 1_455
O2 Sr2 2.787186 1_555
O2 Sr5 2.920511 1_555
O3 Sr3 2.419105 1_655
O3 Sr2 2.502690 1_555
O3 Sr1 2.849673 1_555
O3 Sr4 2.907810 1_554
O4 Os0 1.928265 1_655
O4 Sr0 2.470486 1_555
O4 Sr2 2.552846 1_555
O4 Sr1 2.719801 1_555
O4 Sr4 3.075132 1_545
O5 Os0 1.932532 1_665
O5 Sr3 2.437967 1_656
O5 Sr5 2.496877 1_665
O5 Sr4 2.543232 1_555
O6 Os0 1.932532 1_555
O6 Sr3 2.437967 1_555
O6 Sr1 2.496877 1_445
O6 Sr2 2.543232 1_555
O7 Os0 1.928265 1_565
O7 Sr0 2.470486 1_555
O7 Sr4 2.552846 1_555
O7 Sr5 2.719801 1_555
O7 Sr2 3.075132 1_565
O8 Sr3 2.419105 1_556
O8 Sr4 2.502690 1_555
O8 Sr5 2.849673 1_555
O8 Sr2 2.907810 1_556
O9 Os0 1.957435 1_665
O9 Sr0 2.407227 1_555
O9 Sr5 2.500554 1_655
O9 Sr4 2.787186 1_555
O9 Sr1 2.920511 1_555
O10 Sr3 2.486563 1_656
O10 Sr5 2.532963 1_655
O10 Sr4 2.718951 1_555
O10 Sr1 3.051045 1_546
O11 Sr0 2.445034 1_555
O11 Sr2 2.495661 1_565
O11 Sr1 2.563942 1_555
