# generated using pymatgen
data_Hf2Ta(SiRu)3
_symmetry_space_group_name_H-M   'P 1'
_cell_length_a   7.47125067
_cell_length_b   7.47125019
_cell_length_c   7.47125046
_cell_angle_alpha   127.28380731
_cell_angle_beta   121.31305562
_cell_angle_gamma   82.79167182
_symmetry_Int_Tables_number   1
_chemical_formula_structural   Hf2Ta(SiRu)3
_chemical_formula_sum   'Hf4 Ta2 Si6 Ru6'
_cell_volume   272.26493619
_cell_formula_units_Z   2
loop_
 _symmetry_equiv_pos_site_id
 _symmetry_equiv_pos_as_xyz
  1  'x, y, z'
loop_
 _atom_site_type_symbol
 _atom_site_label
 _atom_site_symmetry_multiplicity
 _atom_site_fract_x
 _atom_site_fract_y
 _atom_site_fract_z
 _atom_site_occupancy
  Hf  Hf0  1  0.94473630  0.90167963  0.45694433  1
  Hf  Hf1  1  0.05526370  0.51220703  0.95694433  1
  Hf  Hf2  1  0.52978375  0.51155064  0.48176589  1
  Hf  Hf3  1  0.47021625  0.95198314  0.98176589  1
  Ta  Ta0  1  0.74717412  0.07960283  0.83242970  1
  Ta  Ta1  1  0.25282588  0.08525558  0.33242970  1
  Si  Si0  1  0.72247267  0.45890753  0.23643485  1
  Si  Si1  1  0.27752733  0.51396218  0.73643485  1
  Si  Si2  1  0.67112529  0.17233838  0.51486974  1
  Si  Si3  1  0.32887471  0.84374545  0.50121409  1
  Si  Si4  1  0.15746864  0.17233838  0.00121409  1
  Si  Si5  1  0.84253136  0.84374545  0.01486974  1
  Ru  Ru0  1  0.50000000  0.74771820  0.24771820  1
  Ru  Ru1  1  1.00000000  0.74771820  0.74771820  1
  Ru  Ru2  1  0.90422850  0.25453585  0.40721684  1
  Ru  Ru3  1  0.09577150  0.50298834  0.35030634  1
  Ru  Ru4  1  0.34731801  0.25453585  0.85030634  1
  Ru  Ru5  1  0.65268199  0.50298834  0.90721684  1
loop_
_geom_bond_atom_site_label_1
_geom_bond_atom_site_label_2
_geom_bond_distance
_geom_bond_site_symmetry_2
Hf0 Si2 2.697624 1_565
Hf0 Si4 2.697625 1_666
Hf0 Si3 2.721880 1_655
Hf0 Si5 2.721892 1_555
Hf0 Ru3 2.827833 1_655
Hf0 Ru5 2.827838 1_554
Hf0 Ru4 2.837087 1_665
Hf0 Ru2 2.837095 1_565
Hf0 Ru1 2.861666 1_555
Hf0 Ru0 2.861671 1_555
Hf0 Si0 2.889144 1_555
Hf1 Si3 2.697626 1_556
Hf1 Si5 2.697631 1_456
Hf1 Si4 2.721881 1_556
Hf1 Si2 2.721882 1_455
Hf1 Ru4 2.827833 1_555
Hf1 Ru2 2.827842 1_455
Hf1 Ru3 2.837076 1_556
Hf1 Ru5 2.837080 1_455
Hf1 Ru0 2.861675 1_556
Hf1 Ru1 2.861679 1_455
Hf1 Si1 2.889153 1_555
Hf2 Si3 2.699814 1_555
Hf2 Si5 2.699816 1_556
Hf2 Si0 2.704464 1_555
Hf2 Si4 2.723132 1_555
Hf2 Si2 2.723139 1_555
Hf2 Ru3 2.854623 1_555
Hf2 Ru5 2.854628 1_555
Hf2 Ru0 3.075000 1_555
Hf2 Ru1 3.075004 1_555
Hf3 Si4 2.699813 1_566
Hf3 Si2 2.699817 1_566
Hf3 Si1 2.704473 1_555
Hf3 Si3 2.723125 1_555
Hf3 Si5 2.723132 1_556
Hf3 Ru4 2.854623 1_565
Hf3 Ru2 2.854623 1_566
Hf3 Ru1 3.075009 1_455
Hf3 Ru0 3.075013 1_556
Si0 Ta0 2.694506 1_554
Si1 Ta1 2.694503 1_555
Si2 Ta0 2.631259 1_555
Si2 Ta1 2.656365 1_555
Si3 Ta1 2.631252 1_565
Si3 Ta0 2.656362 1_565
Si4 Ta0 2.631252 1_454
Si4 Ta1 2.656358 1_555
Si5 Ta1 2.631251 1_665
Si5 Ta0 2.656351 1_564
Ru0 Si2 2.525231 1_565
Ru0 Si3 2.525235 1_555
Ru0 Si0 2.539892 1_555
Ru0 Si1 2.539892 1_554
Ru0 Ru4 2.823783 1_554
Ru0 Ru5 2.823788 1_554
Ru0 Ta1 2.878010 1_565
Ru0 Ta0 2.878010 1_565
Ru1 Si5 2.525229 1_556
Ru1 Si4 2.525229 1_666
Ru1 Si1 2.539892 1_655
Ru1 Si0 2.539892 1_555
Ru1 Ru2 2.823782 1_555
Ru1 Ru3 2.823788 1_655
Ru1 Ta0 2.878005 1_565
Ru1 Ta1 2.878011 1_666
Ru2 Si0 2.417143 1_555
Ru2 Si1 2.456733 1_655
Ru2 Si5 2.505109 1_545
Ru2 Si2 2.525850 1_555
Ru2 Ta1 2.919726 1_655
Ru3 Si1 2.417150 1_555
Ru3 Si0 2.456735 1_455
Ru3 Si4 2.505105 1_555
Ru3 Si3 2.525848 1_555
Ru3 Ta0 2.919728 1_454
Ru4 Si0 2.417149 1_556
Ru4 Si1 2.456728 1_555
Ru4 Si3 2.505107 1_545
Ru4 Si4 2.525857 1_556
Ru4 Ta1 2.919722 1_555
Ru5 Si1 2.417150 1_555
Ru5 Si0 2.456735 1_556
Ru5 Si2 2.505109 1_555
Ru5 Si5 2.525852 1_556
Ru5 Ta0 2.919732 1_555
