# generated using pymatgen
data_Sr6Sn8AsCl
_symmetry_space_group_name_H-M   'P 1'
_cell_length_a   8.87000198
_cell_length_b   8.87000236
_cell_length_c   8.87000217
_cell_angle_alpha   120.00627062
_cell_angle_beta   120.00627370
_cell_angle_gamma   89.98913965
_symmetry_Int_Tables_number   1
_chemical_formula_structural   Sr6Sn8AsCl
_chemical_formula_sum   'Sr6 Sn8 As1 Cl1'
_cell_volume   493.41799671
_cell_formula_units_Z   1
loop_
 _symmetry_equiv_pos_site_id
 _symmetry_equiv_pos_as_xyz
  1  'x, y, z'
loop_
 _atom_site_type_symbol
 _atom_site_label
 _atom_site_symmetry_multiplicity
 _atom_site_fract_x
 _atom_site_fract_y
 _atom_site_fract_z
 _atom_site_occupancy
  Sr  Sr0  1  0.24787340  0.24787340  0.00000000  1
  Sr  Sr1  1  0.75212660  0.75212660  0.00000000  1
  Sr  Sr2  1  0.15371180  0.67955507  0.83326888  1
  Sr  Sr3  1  0.84628820  0.32044493  0.16673112  1
  Sr  Sr4  1  0.67955507  0.84628820  0.52584327  1
  Sr  Sr5  1  0.32044493  0.15371180  0.47415673  1
  Sn  Sn0  1  0.82984265  0.33278883  0.78346780  1
  Sn  Sn1  1  0.17015735  0.66721117  0.21653220  1
  Sn  Sn2  1  0.54932103  0.04637585  0.21653220  1
  Sn  Sn3  1  0.33278883  0.54932103  0.50294618  1
  Sn  Sn4  1  0.95362415  0.17015735  0.50294618  1
  Sn  Sn5  1  0.45067897  0.95362415  0.78346780  1
  Sn  Sn6  1  0.66721117  0.45067897  0.49705382  1
  Sn  Sn7  1  0.04637585  0.82984265  0.49705382  1
  As  As0  1  0.00000000  0.00000000  0.00000000  1
  Cl  Cl0  1  0.50000000  0.50000000  0.00000000  1
loop_
_geom_bond_atom_site_label_1
_geom_bond_atom_site_label_2
_geom_bond_distance
_geom_bond_site_symmetry_2
Sn0 Sn4 2.935894 1_555
Sn0 Sn6 2.935901 1_555
Sn0 Sn1 3.110581 1_656
Sn0 Sr3 3.386218 1_556
Sn0 Sr1 3.489550 1_556
Sn0 Sr0 3.511100 1_656
Sn0 Sr4 3.565520 1_545
Sn0 Sr5 3.702833 1_555
Sn0 Sr2 3.909408 1_655
Sn1 Sn7 2.935894 1_555
Sn1 Sn3 2.935901 1_555
Sn1 Sr2 3.386218 1_554
Sn1 Sr0 3.489550 1_555
Sn1 Sr1 3.511100 1_455
Sn1 Sr5 3.565520 1_565
Sn1 Sr4 3.702833 1_555
Sn1 Sr3 3.909408 1_455
Sn2 Sn6 2.935894 1_555
Sn2 Sn4 2.935894 1_555
Sn2 Sn5 3.110575 1_544
Sn2 Sr2 3.386240 1_544
Sn2 Sr1 3.489554 1_545
Sn2 Sr0 3.511094 1_555
Sn2 Sr5 3.565520 1_555
Sn2 Sr4 3.702841 1_545
Sn2 Sr3 3.909427 1_555
Sn3 Sn5 2.935894 1_555
Sn3 Sn6 3.110581 1_555
Sn3 Sr5 3.386236 1_555
Sn3 Sr1 3.489550 1_556
Sn3 Sr0 3.511101 1_555
Sn3 Sr3 3.565519 1_455
Sn3 Sr2 3.702849 1_555
Sn3 Sr4 3.909420 1_555
Sn4 Sn7 3.110586 1_645
Sn4 Sr5 3.386245 1_655
Sn4 Sr0 3.489551 1_656
Sn4 Sr1 3.511102 1_545
Sn4 Sr3 3.565537 1_555
Sn4 Sr2 3.702833 1_655
Sn4 Sr4 3.909414 1_545
Sn5 Sn7 2.935894 1_555
Sn5 Sr3 3.386240 1_566
Sn5 Sr0 3.489554 1_566
Sn5 Sr1 3.511094 1_556
Sn5 Sr4 3.565520 1_555
Sn5 Sr5 3.702841 1_565
Sn5 Sr2 3.909427 1_555
Sn6 Sr4 3.386236 1_555
Sn6 Sr0 3.489550 1_555
Sn6 Sr1 3.511101 1_556
Sn6 Sr2 3.565519 1_655
Sn6 Sr3 3.702849 1_555
Sn6 Sr5 3.909420 1_555
Sn7 Sr4 3.386245 1_455
Sn7 Sr1 3.489551 1_455
Sn7 Sr0 3.511102 1_566
Sn7 Sr2 3.565537 1_555
Sn7 Sr3 3.702833 1_455
Sn7 Sr5 3.909414 1_565
As0 Sr0 3.109638 1_555
As0 Sr1 3.109638 1_445
As0 Sr3 3.152135 1_455
As0 Sr2 3.152135 1_544
As0 Sr5 3.152139 1_555
As0 Sr4 3.152139 1_444
Cl0 Sr1 3.162995 1_555
Cl0 Sr0 3.162995 1_555
Cl0 Sr3 3.459601 1_555
Cl0 Sr2 3.459601 1_554
Cl0 Sr4 3.459604 1_555
Cl0 Sr5 3.459604 1_554
