# generated using pymatgen
data_Ag2Sb2S3Cl2
_symmetry_space_group_name_H-M   'P 1'
_cell_length_a   7.02066594
_cell_length_b   11.34479082
_cell_length_c   11.24760908
_cell_angle_alpha   106.63979789
_cell_angle_beta   89.99125351
_cell_angle_gamma   91.29446892
_symmetry_Int_Tables_number   1
_chemical_formula_structural   Ag2Sb2S3Cl2
_chemical_formula_sum   'Ag8 Sb8 S12 Cl8'
_cell_volume   858.09703104
_cell_formula_units_Z   4
loop_
 _symmetry_equiv_pos_site_id
 _symmetry_equiv_pos_as_xyz
  1  'x, y, z'
loop_
 _atom_site_type_symbol
 _atom_site_label
 _atom_site_symmetry_multiplicity
 _atom_site_fract_x
 _atom_site_fract_y
 _atom_site_fract_z
 _atom_site_occupancy
  Ag  Ag0  1  0.50270657  0.70100916  0.28673555  1
  Ag  Ag1  1  0.98623038  0.29999330  0.21362462  1
  Ag  Ag2  1  0.24806261  0.50567104  0.34630131  1
  Ag  Ag3  1  0.75193739  0.49432896  0.65369869  1
  Ag  Ag4  1  0.25329832  0.50527806  0.84618394  1
  Ag  Ag5  1  0.74670168  0.49472194  0.15381606  1
  Ag  Ag6  1  0.01376962  0.70000670  0.78637538  1
  Ag  Ag7  1  0.49729343  0.29899084  0.71326445  1
  Sb  Sb0  1  0.93468642  0.79129091  0.47864676  1
  Sb  Sb1  1  0.08419402  0.79100442  0.14540165  1
  Sb  Sb2  1  0.41080725  0.21029864  0.02068645  1
  Sb  Sb3  1  0.58919275  0.78970136  0.97931355  1
  Sb  Sb4  1  0.91580598  0.20899558  0.85459835  1
  Sb  Sb5  1  0.06531358  0.20870909  0.52135324  1
  Sb  Sb6  1  0.56034021  0.20795170  0.35446262  1
  Sb  Sb7  1  0.43965979  0.79204830  0.64553738  1
  S  S0  1  0.99480016  0.36198427  0.73034611  1
  S  S1  1  0.37316465  0.34499228  0.52504574  1
  S  S2  1  0.11339807  0.34664067  0.02538883  1
  S  S3  1  0.00519984  0.63801573  0.26965389  1
  S  S4  1  0.38438236  0.65203546  0.06935161  1
  S  S5  1  0.87051560  0.34610672  0.43090003  1
  S  S6  1  0.49483704  0.36160808  0.23102630  1
  S  S7  1  0.61561764  0.34796454  0.93064839  1
  S  S8  1  0.50516296  0.63839192  0.76897370  1
  S  S9  1  0.88660193  0.65335933  0.97461117  1
  S  S10  1  0.62683535  0.65500772  0.47495426  1
  S  S11  1  0.12948440  0.65389328  0.56909997  1
  Cl  Cl0  1  0.79082096  0.88775772  0.75064183  1
  Cl  Cl1  1  0.71311283  0.10814242  0.56986688  1
  Cl  Cl2  1  0.20917904  0.11224228  0.24935817  1
  Cl  Cl3  1  0.75883381  0.10960086  0.06650005  1
  Cl  Cl4  1  0.25888472  0.11040535  0.74936687  1
  Cl  Cl5  1  0.24116619  0.89039914  0.93349995  1
  Cl  Cl6  1  0.74111528  0.88959465  0.25063313  1
  Cl  Cl7  1  0.28688717  0.89185758  0.43013312  1
loop_
_geom_bond_atom_site_label_1
_geom_bond_atom_site_label_2
_geom_bond_distance
_geom_bond_site_symmetry_2
Ag0 S10 2.483424 1_555
Ag0 S4 2.485721 1_555
Ag0 Cl7 2.780743 1_555
Ag0 Cl6 2.807009 1_555
Ag1 S2 2.485851 1_655
Ag1 S5 2.488447 1_555
Ag1 Cl3 2.783973 1_555
Ag1 Cl2 2.790974 1_655
Ag2 S6 2.503499 1_555
Ag2 S3 2.600409 1_555
Ag2 S11 2.729423 1_555
Ag3 S8 2.503499 1_555
Ag3 S0 2.600409 1_555
Ag3 S5 2.729423 1_555
Ag4 S0 2.507639 1_455
Ag4 S8 2.606035 1_555
Ag4 S4 2.730862 1_556
Ag5 S3 2.507639 1_655
Ag5 S6 2.606035 1_555
Ag5 S7 2.730862 1_554
Ag6 S9 2.485851 1_455
Ag6 S11 2.488447 1_555
Ag6 Cl5 2.783973 1_555
Ag6 Cl0 2.790974 1_455
Ag7 S1 2.483424 1_555
Ag7 S7 2.485721 1_555
Ag7 Cl1 2.780743 1_555
Ag7 Cl4 2.807009 1_555
S0 Sb5 2.547939 1_655
S0 Sb4 2.572649 1_555
S1 Sb6 2.491657 1_555
S1 Sb5 2.622163 1_555
S2 Sb4 2.497601 1_454
S2 Sb2 2.618038 1_555
S3 Sb0 2.547939 1_455
S3 Sb1 2.572649 1_555
S4 Sb3 2.517193 1_554
S4 Sb1 2.652574 1_555
S5 Sb5 2.517953 1_655
S5 Sb6 2.648103 1_555
S6 Sb2 2.553549 1_555
S6 Sb6 2.569098 1_555
S7 Sb2 2.517193 1_556
S7 Sb4 2.652574 1_555
S8 Sb3 2.553549 1_555
S8 Sb7 2.569098 1_555
S9 Sb1 2.497601 1_656
S9 Sb3 2.618038 1_555
S10 Sb7 2.491657 1_555
S10 Sb0 2.622163 1_555
S11 Sb0 2.517953 1_455
S11 Sb7 2.648103 1_555
Cl0 Sb7 2.792747 1_555
Cl0 Sb0 3.115875 1_555
Cl1 Sb5 2.818200 1_655
Cl2 Sb6 2.792747 1_555
Cl2 Sb5 3.115875 1_555
Cl3 Sb2 2.829192 1_555
Cl3 Sb4 3.106249 1_554
Cl4 Sb4 2.795738 1_455
Cl4 Sb2 3.114564 1_556
Cl5 Sb3 2.829192 1_555
Cl5 Sb1 3.106249 1_556
Cl6 Sb1 2.795738 1_655
Cl6 Sb3 3.114564 1_554
Cl7 Sb0 2.818200 1_455
