# generated using pymatgen
data_Na3B5Pt8Rh
_symmetry_space_group_name_H-M   'P 1'
_cell_length_a   6.33592636
_cell_length_b   6.33592606
_cell_length_c   15.12624183
_cell_angle_alpha   90.00000000
_cell_angle_beta   90.00000000
_cell_angle_gamma   128.12875803
_symmetry_Int_Tables_number   1
_chemical_formula_structural   Na3B5Pt8Rh
_chemical_formula_sum   'Na6 B10 Pt16 Rh2'
_cell_volume   477.66027707
_cell_formula_units_Z   2
loop_
 _symmetry_equiv_pos_site_id
 _symmetry_equiv_pos_as_xyz
  1  'x, y, z'
loop_
 _atom_site_type_symbol
 _atom_site_label
 _atom_site_symmetry_multiplicity
 _atom_site_fract_x
 _atom_site_fract_y
 _atom_site_fract_z
 _atom_site_occupancy
  Na  Na0  1  0.31283147  0.68716853  0.75000000  1
  Na  Na1  1  0.68716853  0.31283147  0.25000000  1
  Na  Na2  1  0.56008218  0.43991782  0.08495477  1
  Na  Na3  1  0.43991782  0.56008218  0.91504523  1
  Na  Na4  1  0.43991782  0.56008218  0.58495477  1
  Na  Na5  1  0.56008218  0.43991782  0.41504523  1
  B  B0  1  0.94502293  0.05497707  0.14397068  1
  B  B1  1  0.05497707  0.94502293  0.85602932  1
  B  B2  1  0.05497707  0.94502293  0.64397068  1
  B  B3  1  0.94502293  0.05497707  0.35602932  1
  B  B4  1  0.18573296  0.81426704  0.02742847  1
  B  B5  1  0.81426704  0.18573296  0.97257153  1
  B  B6  1  0.81426704  0.18573296  0.52742847  1
  B  B7  1  0.18573296  0.81426704  0.47257153  1
  B  B8  1  0.72344900  0.27655100  0.75000000  1
  B  B9  1  0.27655100  0.72344900  0.25000000  1
  Pt  Pt0  1  0.66441498  0.83096240  0.25000000  1
  Pt  Pt1  1  0.83096240  0.66441498  0.75000000  1
  Pt  Pt2  1  0.33558502  0.16903760  0.75000000  1
  Pt  Pt3  1  0.16903760  0.33558502  0.25000000  1
  Pt  Pt4  1  0.12814190  0.87185810  0.15779220  1
  Pt  Pt5  1  0.87185810  0.12814190  0.84220780  1
  Pt  Pt6  1  0.87185810  0.12814190  0.65779220  1
  Pt  Pt7  1  0.12814190  0.87185810  0.34220780  1
  Pt  Pt8  1  0.56800777  0.93486076  0.07932305  1
  Pt  Pt9  1  0.93486076  0.56800777  0.92067695  1
  Pt  Pt10  1  0.43199223  0.06513924  0.57932305  1
  Pt  Pt11  1  0.06513924  0.43199223  0.42067695  1
  Pt  Pt12  1  0.43199223  0.06513924  0.92067695  1
  Pt  Pt13  1  0.06513924  0.43199223  0.07932305  1
  Pt  Pt14  1  0.56800777  0.93486076  0.42067695  1
  Pt  Pt15  1  0.93486076  0.56800777  0.57932305  1
  Rh  Rh0  1  0.00000000  0.00000000  0.00000000  1
  Rh  Rh1  1  0.00000000  0.00000000  0.50000000  1
loop_
_geom_bond_atom_site_label_1
_geom_bond_atom_site_label_2
_geom_bond_distance
_geom_bond_site_symmetry_2
Na0 Na3 2.886165 1_555
Na0 Na4 2.886165 1_555
Na0 Pt2 2.966244 1_565
Na0 Pt1 2.966244 1_455
Na0 Pt5 3.174385 1_455
Na0 Pt6 3.174385 1_455
Na0 Pt5 3.174385 1_565
Na0 Pt6 3.174385 1_565
Na0 Pt12 3.276818 1_565
Na0 Pt10 3.276818 1_565
Na0 Pt9 3.276818 1_455
Na0 Pt15 3.276818 1_455
Na0 Pt2 3.373758 1_555
Na0 Pt1 3.373758 1_555
Na1 Na5 2.886165 1_555
Na1 Na2 2.886165 1_555
Na1 Pt0 2.966244 1_545
Na1 Pt3 2.966244 1_655
Na1 Pt7 3.174385 1_655
Na1 Pt4 3.174385 1_655
Na1 Pt7 3.174385 1_545
Na1 Pt4 3.174385 1_545
Na1 Pt14 3.276818 1_545
Na1 Pt8 3.276818 1_545
Na1 Pt11 3.276818 1_655
Na1 Pt13 3.276818 1_655
Na1 Pt0 3.373758 1_555
Na1 Pt3 3.373758 1_555
Na2 Na3 2.912128 1_554
Na2 Pt4 3.081285 1_545
Na2 Pt4 3.081285 1_655
Na2 Pt8 3.106337 1_555
Na2 Pt13 3.106337 1_555
Na2 Rh0 3.130342 1_665
Na2 Rh0 3.130343 1_555
Na2 Pt12 3.176830 1_554
Na2 Pt9 3.176830 1_554
Na2 Pt8 3.232373 1_545
Na2 Pt13 3.232373 1_655
Na2 Pt0 3.284163 1_555
Na2 Pt3 3.284163 1_555
Na3 Pt5 3.081285 1_565
Na3 Pt5 3.081285 1_455
Na3 Pt12 3.106337 1_555
Na3 Pt9 3.106337 1_555
Na3 Rh0 3.130342 1_556
Na3 Rh0 3.130343 1_666
Na3 Pt8 3.176830 1_556
Na3 Pt13 3.176830 1_556
Na3 Pt12 3.232373 1_565
Na3 Pt9 3.232373 1_455
Na3 Pt2 3.284163 1_555
Na3 Pt1 3.284163 1_555
Na4 Na5 2.912128 1_555
Na4 Pt6 3.081285 1_565
Na4 Pt6 3.081285 1_455
Na4 Pt10 3.106337 1_555
Na4 Pt15 3.106337 1_555
Na4 Rh1 3.130342 1_555
Na4 Rh1 3.130343 1_665
Na4 Pt14 3.176830 1_555
Na4 Pt11 3.176830 1_555
Na4 Pt10 3.232373 1_565
Na4 Pt15 3.232373 1_455
Na4 Pt2 3.284163 1_555
Na4 Pt1 3.284163 1_555
Na5 Pt7 3.081285 1_545
Na5 Pt7 3.081285 1_655
Na5 Pt14 3.106337 1_555
Na5 Pt11 3.106337 1_555
Na5 Rh1 3.130342 1_665
Na5 Rh1 3.130343 1_555
Na5 Pt10 3.176830 1_555
Na5 Pt15 3.176830 1_555
Na5 Pt14 3.232373 1_545
Na5 Pt11 3.232373 1_655
Na5 Pt0 3.284163 1_555
Na5 Pt3 3.284163 1_555
B0 Pt4 2.097201 1_645
B0 Pt3 2.152121 1_655
B0 Pt0 2.152121 1_545
B0 Pt13 2.235308 1_655
B0 Pt8 2.235308 1_545
B0 Rh0 2.266061 1_655
B0 Na2 3.192959 1_545
B0 Na2 3.192959 1_655
B1 Pt5 2.097201 1_465
B1 Pt1 2.152121 1_455
B1 Pt2 2.152121 1_565
B1 Pt9 2.235308 1_455
B1 Pt12 2.235308 1_565
B1 Rh0 2.266061 1_566
B1 Na3 3.192959 1_565
B1 Na3 3.192959 1_455
B2 Pt6 2.097201 1_465
B2 Pt1 2.152121 1_455
B2 Pt2 2.152121 1_565
B2 Pt15 2.235308 1_455
B2 Pt10 2.235308 1_565
B2 Rh1 2.266061 1_565
B2 Na4 3.192959 1_565
B2 Na4 3.192959 1_455
B3 Pt7 2.097201 1_645
B3 Pt3 2.152121 1_655
B3 Pt0 2.152121 1_545
B3 Pt11 2.235308 1_655
B3 Pt14 2.235308 1_545
B3 Rh1 2.266061 1_655
B3 Na5 3.192959 1_545
B3 Na5 3.192959 1_655
B4 Pt4 2.078257 1_555
B4 Pt12 2.122704 1_564
B4 Pt9 2.122704 1_454
B4 Rh0 2.156823 1_565
B4 Pt13 2.186574 1_555
B4 Pt8 2.186574 1_555
B4 Na2 3.238262 1_565
B4 Na2 3.238262 1_455
B5 Pt5 2.078257 1_555
B5 Pt8 2.122704 1_546
B5 Pt13 2.122704 1_656
B5 Rh0 2.156823 1_656
B5 Pt9 2.186574 1_555
B5 Pt12 2.186574 1_555
B5 Na3 3.238262 1_545
B5 Na3 3.238262 1_655
B6 Pt6 2.078257 1_555
B6 Pt14 2.122704 1_545
B6 Pt11 2.122704 1_655
B6 Rh1 2.156823 1_655
B6 Pt15 2.186574 1_555
B6 Pt10 2.186574 1_555
B6 Na4 3.238262 1_545
B6 Na4 3.238262 1_655
B7 Pt7 2.078257 1_555
B7 Pt10 2.122704 1_565
B7 Pt15 2.122704 1_455
B7 Rh1 2.156823 1_565
B7 Pt11 2.186574 1_555
B7 Pt14 2.186574 1_555
B7 Na5 3.238262 1_565
B7 Na5 3.238262 1_455
B8 Pt1 2.106190 1_555
B8 Pt2 2.106190 1_555
B8 Pt5 2.192157 1_555
B8 Pt6 2.192157 1_555
B8 Na0 2.952356 1_545
B8 Na0 2.952356 1_655
B9 Pt3 2.106190 1_555
B9 Pt0 2.106190 1_555
B9 Pt7 2.192157 1_555
B9 Pt4 2.192157 1_555
B9 Na1 2.952356 1_565
B9 Na1 2.952356 1_455
