# generated using pymatgen
data_Zr6Ga5(SiNi8)2
_symmetry_space_group_name_H-M   'P 1'
_cell_length_a   8.14682007
_cell_length_b   8.14682007
_cell_length_c   8.18019904
_cell_angle_alpha   59.86436183
_cell_angle_beta   59.86436185
_cell_angle_gamma   60.27126019
_symmetry_Int_Tables_number   1
_chemical_formula_structural   Zr6Ga5(SiNi8)2
_chemical_formula_sum   'Zr6 Ga5 Si2 Ni16'
_cell_volume   383.89320676
_cell_formula_units_Z   1
loop_
 _symmetry_equiv_pos_site_id
 _symmetry_equiv_pos_as_xyz
  1  'x, y, z'
loop_
 _atom_site_type_symbol
 _atom_site_label
 _atom_site_symmetry_multiplicity
 _atom_site_fract_x
 _atom_site_fract_y
 _atom_site_fract_z
 _atom_site_occupancy
  Zr  Zr0  1  0.79265583  0.20734417  0.79265583  1
  Zr  Zr1  1  0.79006835  0.79006835  0.20993165  1
  Zr  Zr2  1  0.20734417  0.79265583  0.79265583  1
  Zr  Zr3  1  0.20993165  0.20993165  0.79006835  1
  Zr  Zr4  1  0.79265583  0.20734417  0.20734417  1
  Zr  Zr5  1  0.20734417  0.79265583  0.20734417  1
  Ga  Ga0  1  0.00000000  0.50000000  0.00000000  1
  Ga  Ga1  1  0.50000000  0.50000000  0.50000000  1
  Ga  Ga2  1  0.50000000  0.00000000  0.50000000  1
  Ga  Ga3  1  0.00000000  0.50000000  0.50000000  1
  Ga  Ga4  1  0.50000000  0.00000000  0.00000000  1
  Si  Si0  1  0.50000000  0.50000000  0.00000000  1
  Si  Si1  1  0.00000000  0.00000000  0.50000000  1
  Ni  Ni0  1  0.16641100  0.16641100  0.17474417  1
  Ni  Ni1  1  0.61804917  0.61804917  0.13797488  1
  Ni  Ni2  1  0.38195083  0.38195083  0.37407622  1
  Ni  Ni3  1  0.17474417  0.49243282  0.16641100  1
  Ni  Ni4  1  0.16641100  0.16641100  0.49243282  1
  Ni  Ni5  1  0.13797488  0.62592378  0.61804917  1
  Ni  Ni6  1  0.62592378  0.13797488  0.61804917  1
  Ni  Ni7  1  0.83358900  0.83358900  0.82525583  1
  Ni  Ni8  1  0.86202512  0.37407622  0.38195083  1
  Ni  Ni9  1  0.38195083  0.38195083  0.86202512  1
  Ni  Ni10  1  0.37407622  0.86202512  0.38195083  1
  Ni  Ni11  1  0.50756718  0.82525583  0.83358900  1
  Ni  Ni12  1  0.61804917  0.61804917  0.62592378  1
  Ni  Ni13  1  0.83358900  0.83358900  0.50756718  1
  Ni  Ni14  1  0.49243282  0.17474417  0.16641100  1
  Ni  Ni15  1  0.82525583  0.50756718  0.83358900  1
loop_
_geom_bond_atom_site_label_1
_geom_bond_atom_site_label_2
_geom_bond_distance
_geom_bond_site_symmetry_2
Ga0 Ni3 2.378674 1_555
Ga0 Ni15 2.378674 1_454
Ga0 Ni7 2.378679 1_454
Ga0 Ni0 2.378679 1_555
Ga0 Ni8 2.544963 1_455
Ga0 Ni5 2.544963 1_554
Ga0 Ni9 2.544964 1_554
Ga0 Ni1 2.544964 1_455
Ga0 Zr2 2.910622 1_554
Ga0 Zr4 2.910622 1_455
Ga0 Zr1 2.928450 1_455
Ga0 Zr3 2.928450 1_554
Ga1 Ni12 2.411980 1_555
Ga1 Ni2 2.411980 1_555
Ga1 Ni10 2.412000 1_555
Ga1 Ni6 2.412000 1_555
Ga1 Ni8 2.412000 1_555
Ga1 Ni5 2.412000 1_555
Ga1 Ni9 2.412000 1_555
Ga1 Ni1 2.412000 1_555
Ga2 Ni11 2.378681 1_545
Ga2 Ni14 2.378681 1_555
Ga2 Ni13 2.378682 1_545
Ga2 Ni4 2.378682 1_555
Ga2 Ni6 2.544944 1_555
Ga2 Ni10 2.544944 1_545
Ga2 Ni2 2.544965 1_555
Ga2 Ni12 2.544965 1_545
Ga2 Zr4 2.910621 1_555
Ga2 Zr2 2.910621 1_545
Ga2 Zr3 2.928450 1_555
Ga2 Zr1 2.928450 1_545
Ga3 Ni15 2.378681 1_455
Ga3 Ni3 2.378681 1_555
Ga3 Ni13 2.378682 1_455
Ga3 Ni4 2.378682 1_555
Ga3 Ni5 2.544944 1_555
Ga3 Ni8 2.544944 1_455
Ga3 Ni2 2.544965 1_555
Ga3 Ni12 2.544965 1_455
Ga3 Zr5 2.910621 1_555
Ga3 Zr0 2.910621 1_455
Ga3 Zr3 2.928450 1_555
Ga3 Zr1 2.928450 1_455
Ga4 Ni14 2.378674 1_555
Ga4 Ni11 2.378674 1_544
Ga4 Ni0 2.378679 1_555
Ga4 Ni7 2.378679 1_544
Ga4 Ni10 2.544963 1_545
Ga4 Ni6 2.544963 1_554
Ga4 Ni9 2.544964 1_554
Ga4 Ni1 2.544964 1_545
Ga4 Zr0 2.910622 1_554
Ga4 Zr5 2.910622 1_545
Ga4 Zr1 2.928450 1_545
Ga4 Zr3 2.928450 1_554
Si0 Zr4 2.933934 1_555
Si0 Zr2 2.933934 1_554
Si0 Zr5 2.933934 1_555
Si0 Zr0 2.933934 1_554
Si1 Zr0 2.933934 1_455
Si1 Zr5 2.933934 1_545
Si1 Zr2 2.933934 1_545
Si1 Zr4 2.933934 1_455
Ni0 Si1 2.309581 1_555
Ni0 Ni10 2.526377 1_545
Ni0 Ni8 2.526377 1_455
Ni0 Ni9 2.597714 1_554
Ni0 Ni4 2.598756 1_555
Ni0 Ni3 2.656351 1_555
Ni0 Ni14 2.656351 1_555
Ni0 Zr5 2.778621 1_545
Ni0 Zr4 2.778621 1_455
Ni0 Zr3 2.835041 1_554
Ni1 Si0 2.494163 1_555
Ni1 Ni11 2.526360 1_554
Ni1 Ni15 2.526360 1_554
Ni1 Ni7 2.597714 1_554
Ni1 Ni2 2.708979 1_555
Ni1 Zr4 2.779275 1_555
Ni1 Zr5 2.779275 1_555
Ni1 Zr1 2.806911 1_555
Ni1 Ni10 2.822448 1_555
Ni1 Ni8 2.822448 1_555
Ni2 Si0 2.494183 1_555
Ni2 Ni3 2.526388 1_555
Ni2 Ni4 2.597724 1_555
Ni2 Zr5 2.779278 1_555
Ni2 Zr4 2.779278 1_555
Ni2 Zr3 2.806893 1_555
Ni2 Ni6 2.822413 1_555
Ni2 Ni5 2.822413 1_555
Ni3 Si0 2.309584 1_555
Ni3 Ni9 2.526360 1_554
Ni3 Ni8 2.597697 1_455
Ni3 Ni4 2.656351 1_555
Ni3 Zr2 2.778623 1_554
Ni3 Zr5 2.778629 1_555
Ni3 Zr1 2.835044 1_455
Ni4 Si1 2.309577 1_555
Ni4 Ni8 2.526361 1_455
Ni4 Zr2 2.778624 1_545
Ni4 Zr0 2.778624 1_455
Ni4 Zr3 2.835049 1_555
Ni5 Si1 2.494183 1_565
Ni5 Ni7 2.526377 1_455
Ni5 Zr5 2.779274 1_555
Ni5 Zr2 2.779296 1_555
Ni5 Zr3 2.806890 1_555
Ni5 Ni9 2.822448 1_555
Ni6 Si1 2.494183 1_655
Ni6 Ni7 2.526377 1_545
Ni6 Ni8 2.709013 1_555
Ni6 Zr4 2.779274 1_555
Ni6 Zr0 2.779296 1_555
Ni6 Zr3 2.806890 1_555
Ni6 Ni9 2.822448 1_555
Ni7 Si1 2.309581 1_665
Ni7 Zr0 2.778621 1_565
Ni7 Zr2 2.778621 1_655
Ni7 Zr1 2.835041 1_556
Ni8 Si1 2.494183 1_655
Ni8 Zr0 2.779274 1_555
Ni8 Zr4 2.779296 1_555
Ni8 Zr1 2.806890 1_555
Ni9 Si0 2.494163 1_556
Ni9 Zr2 2.779275 1_555
Ni9 Zr0 2.779275 1_555
Ni9 Zr3 2.806911 1_555
Ni10 Si1 2.494183 1_565
Ni10 Ni4 2.526361 1_565
Ni10 Ni14 2.597697 1_565
Ni10 Ni5 2.709013 1_555
Ni10 Zr2 2.779274 1_555
Ni10 Zr5 2.779296 1_555
Ni10 Zr1 2.806890 1_555
Ni10 Ni12 2.822413 1_555
Ni11 Si0 2.309584 1_556
Ni11 Ni12 2.526388 1_555
Ni11 Ni6 2.597697 1_565
Ni11 Ni15 2.598757 1_555
Ni11 Ni13 2.656351 1_555
Ni11 Ni7 2.656351 1_555
Ni11 Zr5 2.778623 1_556
Ni11 Zr2 2.778629 1_555
Ni11 Zr3 2.835044 1_565
Ni12 Si0 2.494183 1_556
Ni12 Ni15 2.526388 1_555
Ni12 Ni13 2.597724 1_555
Ni12 Ni9 2.708979 1_555
Ni12 Zr0 2.779278 1_555
Ni12 Zr2 2.779278 1_555
Ni12 Zr1 2.806893 1_555
Ni12 Ni8 2.822413 1_555
Ni13 Si1 2.309577 1_665
Ni13 Ni6 2.526361 1_565
Ni13 Ni5 2.526361 1_655
Ni13 Ni7 2.598756 1_555
Ni13 Ni15 2.656351 1_555
Ni13 Zr4 2.778624 1_565
Ni13 Zr5 2.778624 1_655
Ni13 Zr1 2.835049 1_555
Ni14 Si0 2.309584 1_555
Ni14 Ni9 2.526360 1_554
Ni14 Ni2 2.526388 1_555
Ni14 Ni3 2.598757 1_555
Ni14 Ni4 2.656351 1_555
Ni14 Zr0 2.778623 1_554
Ni14 Zr4 2.778629 1_555
Ni14 Zr1 2.835044 1_545
Ni15 Si0 2.309584 1_556
Ni15 Ni5 2.597697 1_655
Ni15 Ni7 2.656351 1_555
Ni15 Zr4 2.778623 1_556
Ni15 Zr0 2.778629 1_555
Ni15 Zr3 2.835044 1_655
