# generated using pymatgen
data_Nb16Cu5Ni3C4
_symmetry_space_group_name_H-M   'P 1'
_cell_length_a   8.31463789
_cell_length_b   8.31463816
_cell_length_c   8.31463788
_cell_angle_alpha   59.96547313
_cell_angle_beta   59.96547282
_cell_angle_gamma   59.96546801
_symmetry_Int_Tables_number   1
_chemical_formula_structural   Nb16Cu5Ni3C4
_chemical_formula_sum   'Nb16 Cu5 Ni3 C4'
_cell_volume   406.13913627
_cell_formula_units_Z   1
loop_
 _symmetry_equiv_pos_site_id
 _symmetry_equiv_pos_as_xyz
  1  'x, y, z'
loop_
 _atom_site_type_symbol
 _atom_site_label
 _atom_site_symmetry_multiplicity
 _atom_site_fract_x
 _atom_site_fract_y
 _atom_site_fract_z
 _atom_site_occupancy
  Nb  Nb0  1  0.43373839  0.06665562  0.06665562  1
  Nb  Nb1  1  0.06424571  0.43392357  0.43392357  1
  Nb  Nb2  1  0.06665562  0.43373839  0.06665562  1
  Nb  Nb3  1  0.06665562  0.06665562  0.43373839  1
  Nb  Nb4  1  0.43392357  0.06424571  0.43392357  1
  Nb  Nb5  1  0.43392357  0.43392357  0.06424571  1
  Nb  Nb6  1  0.18479885  0.81518246  0.18479885  1
  Nb  Nb7  1  0.81635559  0.18433644  0.81635559  1
  Nb  Nb8  1  0.81518246  0.18479885  0.18479885  1
  Nb  Nb9  1  0.18479885  0.18479885  0.81518246  1
  Nb  Nb10  1  0.18433644  0.81635559  0.81635559  1
  Nb  Nb11  1  0.81635559  0.81635559  0.18433644  1
  Nb  Nb12  1  0.62266724  0.62266724  0.62266724  1
  Nb  Nb13  1  0.62605499  0.62605499  0.12884054  1
  Nb  Nb14  1  0.12884054  0.62605499  0.62605499  1
  Nb  Nb15  1  0.62605499  0.12884054  0.62605499  1
  Cu  Cu0  1  0.83221753  0.83221753  0.83221753  1
  Cu  Cu1  1  0.83167355  0.83167355  0.50519576  1
  Cu  Cu2  1  0.50519576  0.83167355  0.83167355  1
  Cu  Cu3  1  0.83167355  0.50519576  0.83167355  1
  Cu  Cu4  1  0.41772960  0.41772960  0.41772960  1
  Ni  Ni0  1  0.42139179  0.42139179  0.73362019  1
  Ni  Ni1  1  0.42139179  0.73362019  0.42139179  1
  Ni  Ni2  1  0.73362019  0.42139179  0.42139179  1
  C  C0  1  0.12486074  0.62614917  0.12486074  1
  C  C1  1  0.62614917  0.12486074  0.12486074  1
  C  C2  1  0.12486074  0.12486074  0.62614917  1
  C  C3  1  0.12464255  0.12464255  0.12464255  1
loop_
_geom_bond_atom_site_label_1
_geom_bond_atom_site_label_2
_geom_bond_distance
_geom_bond_site_symmetry_2
Nb0 Ni0 2.860665 1_554
Nb0 Ni1 2.860665 1_545
Nb1 Ni2 2.857138 1_455
Nb2 Ni0 2.860665 1_554
Nb2 Ni2 2.860665 1_455
Nb3 Ni1 2.860665 1_545
Nb3 Ni2 2.860665 1_455
Nb4 Ni1 2.857138 1_545
Nb5 Ni0 2.857138 1_554
Nb6 Ni1 3.066344 1_555
Nb7 Ni0 3.093102 1_555
Nb7 Ni2 3.093102 1_555
Nb8 Ni2 3.066344 1_555
Nb9 Ni0 3.066344 1_555
Nb10 Ni0 3.093102 1_555
Nb10 Ni1 3.093102 1_555
Nb11 Ni1 3.093102 1_555
Nb11 Ni2 3.093102 1_555
Nb12 Ni1 2.482966 1_555
Nb12 Ni2 2.482966 1_555
Nb12 Ni0 2.482967 1_555
Nb13 Ni2 2.474497 1_555
Nb13 Ni1 2.474497 1_555
Nb14 Ni0 2.474497 1_555
Nb14 Ni1 2.474497 1_555
Nb15 Ni0 2.474497 1_555
Nb15 Ni2 2.474497 1_555
Cu0 Nb14 2.537066 1_655
Cu0 Nb15 2.537066 1_565
Cu0 Nb13 2.537066 1_556
Cu0 Cu1 2.723603 1_555
Cu0 Cu2 2.723603 1_555
Cu0 Cu3 2.723603 1_555
Cu0 Nb10 2.801929 1_655
Cu0 Nb11 2.801929 1_556
Cu0 Nb7 2.801929 1_565
Cu0 Nb0 3.074104 1_566
Cu0 Nb2 3.074104 1_656
Cu0 Nb3 3.074104 1_665
Cu1 Nb14 2.564137 1_655
Cu1 Nb15 2.564137 1_565
Cu1 Nb12 2.572709 1_555
Cu1 Cu2 2.713128 1_555
Cu1 Cu3 2.713128 1_555
Cu1 Nb11 2.801119 1_555
Cu1 Nb6 2.805189 1_655
Cu1 Nb8 2.805189 1_565
Cu1 Nb4 3.072563 1_565
Cu1 Nb1 3.072563 1_655
Cu1 Nb3 3.079741 1_665
Cu2 Nb13 2.564137 1_556
Cu2 Nb15 2.564138 1_565
Cu2 Nb12 2.572709 1_555
Cu2 Cu3 2.713128 1_555
Cu2 Nb10 2.801119 1_555
Cu2 Nb9 2.805189 1_565
Cu2 Nb6 2.805189 1_556
Cu2 Nb4 3.072563 1_565
Cu2 Nb5 3.072564 1_556
Cu2 Nb0 3.079741 1_566
Cu3 Nb13 2.564137 1_556
Cu3 Nb14 2.564138 1_655
Cu3 Nb12 2.572709 1_555
Cu3 Nb7 2.801119 1_555
Cu3 Nb9 2.805189 1_655
Cu3 Nb8 2.805189 1_556
Cu3 Nb1 3.072563 1_655
Cu3 Nb5 3.072564 1_556
Cu3 Nb2 3.079741 1_656
Cu4 Nb14 2.538473 1_555
Cu4 Nb15 2.538473 1_555
Cu4 Nb13 2.538473 1_555
Cu4 Ni0 2.657346 1_555
Cu4 Ni2 2.657346 1_555
Cu4 Ni1 2.657346 1_555
Cu4 Nb1 2.810757 1_555
Cu4 Nb5 2.810757 1_555
Cu4 Nb4 2.810757 1_555
Cu4 Nb8 3.060017 1_555
Cu4 Nb6 3.060017 1_555
Cu4 Nb9 3.060017 1_555
Ni0 Ni2 2.594711 1_555
Ni0 Ni1 2.594711 1_555
Ni1 Ni2 2.594711 1_555
C0 Nb11 2.185771 1_455
C0 Nb10 2.185772 1_554
C0 Nb6 2.187229 1_555
C0 Nb5 2.193291 1_555
C0 Nb1 2.193291 1_555
C0 Nb2 2.193724 1_555
C1 Nb11 2.185771 1_545
C1 Nb7 2.185772 1_554
C1 Nb8 2.187229 1_555
C1 Nb5 2.193291 1_555
C1 Nb4 2.193291 1_555
C1 Nb0 2.193724 1_555
C2 Nb7 2.185771 1_455
C2 Nb10 2.185772 1_545
C2 Nb9 2.187229 1_555
C2 Nb4 2.193291 1_555
C2 Nb1 2.193291 1_555
C2 Nb3 2.193724 1_555
C3 Nb8 2.189686 1_455
C3 Nb9 2.189686 1_554
C3 Nb6 2.189686 1_545
C3 Nb0 2.195863 1_555
C3 Nb3 2.195863 1_555
C3 Nb2 2.195864 1_555
