# generated using pymatgen
data_KPtRh3Se8
_symmetry_space_group_name_H-M   'P 1'
_cell_length_a   3.74702491
_cell_length_b   8.30075368
_cell_length_c   9.42589421
_cell_angle_alpha   81.61514587
_cell_angle_beta   78.53540671
_cell_angle_gamma   76.95573086
_symmetry_Int_Tables_number   1
_chemical_formula_structural   KPtRh3Se8
_chemical_formula_sum   'K1 Pt1 Rh3 Se8'
_cell_volume   278.34180579
_cell_formula_units_Z   1
loop_
 _symmetry_equiv_pos_site_id
 _symmetry_equiv_pos_as_xyz
  1  'x, y, z'
loop_
 _atom_site_type_symbol
 _atom_site_label
 _atom_site_symmetry_multiplicity
 _atom_site_fract_x
 _atom_site_fract_y
 _atom_site_fract_z
 _atom_site_occupancy
  K  K0  1  0.49659829  0.00128203  0.00552040  1
  Pt  Pt0  1  0.63515614  0.19427377  0.53541295  1
  Rh  Rh0  1  0.83797239  0.50209612  0.82195709  1
  Rh  Rh1  1  0.16337499  0.49720487  0.17604616  1
  Rh  Rh2  1  0.36651583  0.80259691  0.46437044  1
  Se  Se0  1  0.45486064  0.32033176  0.76994796  1
  Se  Se1  1  0.54393787  0.67941066  0.23271260  1
  Se  Se2  1  0.89503828  0.63662346  0.57330097  1
  Se  Se3  1  0.10192999  0.37056999  0.42557003  1
  Se  Se4  1  0.20683980  0.65948574  0.92683466  1
  Se  Se5  1  0.79359949  0.34093870  0.07186331  1
  Se  Se6  1  0.83337726  0.98478132  0.34846516  1
  Se  Se7  1  0.17079903  0.01040566  0.64799727  1
loop_
_geom_bond_atom_site_label_1
_geom_bond_atom_site_label_2
_geom_bond_distance
_geom_bond_site_symmetry_2
K0 Se1 3.166107 1_545
K0 Se0 3.194497 1_554
K0 Se5 3.433038 1_455
K0 Se5 3.433042 1_555
K0 Se4 3.478901 1_544
K0 Se4 3.478904 1_644
K0 Se6 3.670840 1_445
K0 Se6 3.670844 1_545
K0 Se7 3.791044 1_554
K0 Se7 3.791047 1_654
Pt0 Se0 2.490049 1_555
Pt0 Se3 2.503230 1_555
Pt0 Se3 2.503233 1_655
Pt0 Se6 2.543840 1_545
Pt0 Se7 2.544684 1_555
Pt0 Se7 2.544690 1_655
Rh0 Se2 2.435440 1_555
Rh0 Se0 2.459810 1_555
Rh0 Se0 2.459819 1_655
Rh0 Se4 2.515818 1_555
Rh0 Se4 2.515823 1_655
Rh0 Se5 2.528174 1_556
Rh1 Se3 2.421310 1_555
Rh1 Se1 2.473488 1_555
Rh1 Se1 2.473494 1_455
Rh1 Se5 2.508055 1_455
Rh1 Se5 2.508055 1_555
Rh1 Se4 2.526496 1_554
Rh2 Se1 2.454146 1_555
Rh2 Se2 2.457312 1_455
Rh2 Se2 2.457318 1_555
Rh2 Se7 2.510833 1_565
Rh2 Se6 2.548197 1_455
Rh2 Se6 2.548202 1_555
Se2 Se3 2.666864 1_655
