# generated using pymatgen
data_YMgAg
_symmetry_space_group_name_H-M   'P 1'
_cell_length_a   7.74818279
_cell_length_b   7.74818579
_cell_length_c   4.06362754
_cell_angle_alpha   90.00000000
_cell_angle_beta   90.00000000
_cell_angle_gamma   120.00000976
_symmetry_Int_Tables_number   1
_chemical_formula_structural   YMgAg
_chemical_formula_sum   'Y3 Mg3 Ag3'
_cell_volume   211.27317915
_cell_formula_units_Z   3
loop_
 _symmetry_equiv_pos_site_id
 _symmetry_equiv_pos_as_xyz
  1  'x, y, z'
loop_
 _atom_site_type_symbol
 _atom_site_label
 _atom_site_symmetry_multiplicity
 _atom_site_fract_x
 _atom_site_fract_y
 _atom_site_fract_z
 _atom_site_occupancy
  Y  Y0  1  0.41303290  0.41303290  0.50000000  1
  Y  Y1  1  -0.00000000  0.58696710  0.50000000  1
  Y  Y2  1  0.58696710  0.00000000  0.50000000  1
  Mg  Mg0  1  0.75332970  0.75332970  -0.00000000  1
  Mg  Mg1  1  0.24667030  0.00000000  0.00000000  1
  Mg  Mg2  1  -0.00000000  0.24667030  0.00000000  1
  Ag  Ag0  1  0.66666800  0.33333400  0.00000000  1
  Ag  Ag1  1  0.33333200  0.66666700  -0.00000000  1
  Ag  Ag2  1  -0.00000000  0.99999900  0.50000000  1
loop_
_geom_bond_atom_site_label_1
_geom_bond_atom_site_label_2
_geom_bond_distance
_geom_bond_site_symmetry_2
Mg0 Y0 3.328717 1_554
Mg0 Y0 3.328717 1_555
Mg0 Y1 3.450549 1_655
Mg0 Y1 3.450549 1_654
Mg0 Y2 3.450549 1_565
Mg0 Y2 3.450549 1_564
Mg1 Y2 3.328717 1_555
Mg1 Y2 3.328717 1_554
Mg1 Y1 3.450549 1_544
Mg1 Y1 3.450549 1_545
Mg1 Y0 3.450549 1_554
Mg1 Y0 3.450549 1_555
Mg2 Y1 3.328718 1_555
Mg2 Y1 3.328718 1_554
Mg2 Y0 3.450548 1_554
Mg2 Y0 3.450548 1_555
Mg2 Y2 3.450548 1_455
Mg2 Y2 3.450548 1_454
Ag0 Mg2 2.975833 1_655
Ag0 Mg0 2.975839 1_555
Ag0 Mg1 2.975848 1_555
Ag0 Y1 3.095988 1_655
Ag0 Y1 3.095988 1_654
Ag0 Y2 3.095997 1_554
Ag0 Y2 3.095997 1_555
Ag0 Y0 3.096000 1_554
Ag0 Y0 3.096000 1_555
Ag1 Mg1 2.975831 1_565
Ag1 Mg2 2.975838 1_555
Ag1 Mg0 2.975850 1_555
Ag1 Y1 3.095987 1_555
Ag1 Y1 3.095987 1_554
Ag1 Y2 3.095996 1_565
Ag1 Y2 3.095996 1_564
Ag1 Y0 3.096003 1_554
Ag1 Y0 3.096003 1_555
Ag2 Mg1 2.789465 1_565
Ag2 Mg1 2.789465 1_566
Ag2 Mg0 2.789465 1_456
Ag2 Mg0 2.789465 1_455
Ag2 Mg2 2.789474 1_566
Ag2 Mg2 2.789474 1_565
Ag2 Y1 3.200248 1_555
Ag2 Y2 3.200258 1_465
Ag2 Y0 3.200258 1_565
