# generated using pymatgen
data_Rb16Zr3SnSe16
_symmetry_space_group_name_H-M   'P 1'
_cell_length_a   8.91261152
_cell_length_b   10.49627794
_cell_length_c   15.12522523
_cell_angle_alpha   90.00000000
_cell_angle_beta   89.82121040
_cell_angle_gamma   90.00000000
_symmetry_Int_Tables_number   1
_chemical_formula_structural   Rb16Zr3SnSe16
_chemical_formula_sum   'Rb16 Zr3 Sn1 Se16'
_cell_volume   1414.94655216
_cell_formula_units_Z   1
loop_
 _symmetry_equiv_pos_site_id
 _symmetry_equiv_pos_as_xyz
  1  'x, y, z'
loop_
 _atom_site_type_symbol
 _atom_site_label
 _atom_site_symmetry_multiplicity
 _atom_site_fract_x
 _atom_site_fract_y
 _atom_site_fract_z
 _atom_site_occupancy
  Rb  Rb0  1  0.50057945  0.49372402  0.50216431  1
  Rb  Rb1  1  0.15999477  0.45008726  0.27967593  1
  Rb  Rb2  1  0.15999477  0.04991274  0.27967593  1
  Rb  Rb3  1  0.01065952  0.75000000  0.42457961  1
  Rb  Rb4  1  0.98977021  0.25000000  0.57460234  1
  Rb  Rb5  1  0.65710863  0.94380255  0.21874721  1
  Rb  Rb6  1  0.33912072  0.05438429  0.78379677  1
  Rb  Rb7  1  0.84066565  0.94540146  0.71807692  1
  Rb  Rb8  1  0.33912072  0.44561571  0.78379677  1
  Rb  Rb9  1  0.99879334  0.50456629  0.00124320  1
  Rb  Rb10  1  0.51259267  0.25000000  0.07779714  1
  Rb  Rb11  1  0.65710863  0.55619745  0.21874721  1
  Rb  Rb12  1  0.48946771  0.75000000  0.92408576  1
  Rb  Rb13  1  0.99879334  0.99543371  0.00124320  1
  Rb  Rb14  1  0.84066565  0.55459854  0.71807692  1
  Rb  Rb15  1  0.50057945  0.00627598  0.50216431  1
  Zr  Zr0  1  0.74293221  0.25000000  0.83368473  1
  Zr  Zr1  1  0.75699358  0.25000000  0.33217868  1
  Zr  Zr2  1  0.24412710  0.75000000  0.66705097  1
  Sn  Sn0  1  0.25874427  0.75000000  0.16489861  1
  Se  Se0  1  0.52889720  0.75000000  0.67895941  1
  Se  Se1  1  0.47176873  0.25000000  0.32041230  1
  Se  Se2  1  0.37081130  0.75000000  0.32074542  1
  Se  Se3  1  0.12646783  0.75000000  0.82090785  1
  Se  Se4  1  0.02743880  0.25000000  0.82097606  1
  Se  Se5  1  0.97261503  0.75000000  0.17764966  1
  Se  Se6  1  0.62590517  0.25000000  0.68006649  1
  Se  Se7  1  0.87313352  0.25000000  0.17816785  1
  Se  Se8  1  0.84220106  0.44892279  0.41075330  1
  Se  Se9  1  0.65648677  0.05136270  0.91246735  1
  Se  Se10  1  0.34548090  0.94864612  0.08579821  1
  Se  Se11  1  0.34548090  0.55135388  0.08579821  1
  Se  Se12  1  0.15840629  0.55094220  0.58889585  1
  Se  Se13  1  0.84220106  0.05107721  0.41075330  1
  Se  Se14  1  0.15840629  0.94905780  0.58889585  1
  Se  Se15  1  0.65648677  0.44863730  0.91246735  1
loop_
_geom_bond_atom_site_label_1
_geom_bond_atom_site_label_2
_geom_bond_distance
_geom_bond_site_symmetry_2
Rb0 Se12 3.370021 1_555
Rb0 Se8 3.372969 1_555
Rb0 Se1 3.764562 1_555
Rb0 Se0 3.801886 1_555
Rb0 Se6 3.879591 1_555
Rb0 Se2 4.015322 1_555
Rb1 Se8 3.452251 1_455
Rb1 Se11 3.525867 1_555
Rb1 Se1 3.538690 1_555
Rb1 Se7 3.650903 1_455
Rb1 Sn0 3.699808 1_555
Rb1 Se2 3.719303 1_555
Rb1 Se5 3.885383 1_455
Rb2 Se13 3.452251 1_455
Rb2 Se10 3.525867 1_545
Rb2 Se1 3.538690 1_555
Rb2 Se7 3.650903 1_455
Rb2 Sn0 3.699808 1_545
Rb2 Se2 3.719303 1_545
Rb2 Se5 3.885383 1_445
Rb3 Se13 3.505241 1_465
Rb3 Se8 3.505241 1_455
Rb3 Se14 3.506662 1_555
Rb3 Se12 3.506662 1_555
Rb3 Se2 3.569099 1_555
Rb3 Se5 3.751285 1_455
Rb4 Se8 3.500205 1_555
Rb4 Se13 3.500205 1_555
Rb4 Se12 3.505080 1_655
Rb4 Se14 3.505080 1_645
Rb4 Se6 3.609605 1_555
Rb4 Se4 3.742594 1_655
Rb5 Se10 3.434405 1_555
Rb5 Se5 3.524308 1_555
Rb5 Se13 3.528897 1_565
Rb5 Se2 3.606167 1_555
Rb5 Se7 3.795480 1_565
Rb5 Se1 3.925138 1_565
Rb6 Se9 3.438560 1_555
Rb6 Se4 3.498427 1_555
Rb6 Se14 3.540654 1_545
Rb6 Se6 3.631180 1_555
Rb6 Se3 3.756057 1_545
Rb6 Se0 3.945367 1_545
Rb7 Se14 3.435737 1_655
Rb7 Se0 3.505408 1_555
Rb7 Se9 3.542062 1_565
Rb7 Se3 3.624750 1_655
Rb7 Se6 3.771321 1_565
Rb7 Se4 3.928263 1_665
Rb8 Se15 3.438560 1_555
Rb8 Se4 3.498427 1_555
Rb8 Se12 3.540654 1_555
Rb8 Se6 3.631180 1_555
Rb8 Se3 3.756057 1_555
Rb8 Se0 3.945367 1_555
Rb9 Se11 3.383620 1_655
Rb9 Se15 3.388338 1_554
Rb9 Se5 3.715680 1_555
Rb9 Se4 3.825527 1_654
Rb9 Se3 3.918143 1_654
Rb9 Se7 3.941610 1_555
Rb10 Se15 3.496427 1_554
Rb10 Se9 3.496427 1_554
Rb10 Se11 3.498143 1_555
Rb10 Se10 3.498143 1_545
Rb10 Se7 3.558209 1_555
Rb10 Se1 3.686473 1_555
Rb11 Se11 3.434405 1_555
Rb11 Se5 3.524308 1_555
Rb11 Se8 3.528897 1_555
Rb11 Se2 3.606167 1_555
Rb11 Se7 3.795480 1_555
Rb11 Se1 3.925138 1_555
Rb12 Se10 3.457931 1_556
Rb12 Se11 3.457931 1_556
Rb12 Se9 3.500122 1_565
Rb12 Se15 3.500122 1_555
Rb12 Se3 3.596382 1_555
Rb12 Se0 3.723117 1_555
Rb13 Se10 3.383620 1_655
Rb13 Se9 3.388338 1_564
Rb13 Se5 3.715680 1_555
Rb13 Se4 3.825527 1_664
Rb13 Se3 3.918143 1_654
Rb13 Se7 3.941610 1_565
Rb14 Se12 3.435737 1_655
Rb14 Se0 3.505408 1_555
Rb14 Se15 3.542062 1_555
Rb14 Se3 3.624750 1_655
Rb14 Se6 3.771321 1_555
Rb14 Se4 3.928263 1_655
Rb15 Se14 3.370021 1_545
Rb15 Se13 3.372969 1_555
Rb15 Se1 3.764562 1_555
Rb15 Se0 3.801886 1_545
Rb15 Se6 3.879591 1_555
Rb15 Se2 4.015322 1_545
Se0 Zr2 2.544989 1_555
Se1 Zr1 2.548874 1_555
Se2 Sn0 2.562965 1_555
Se3 Zr2 2.549495 1_555
Se4 Zr0 2.542374 1_455
Se5 Sn0 2.556841 1_655
Se6 Zr0 2.549845 1_555
Se7 Zr1 2.546122 1_555
Se8 Zr1 2.520777 1_555
Se9 Zr0 2.520877 1_555
Se10 Sn0 2.524014 1_555
Se11 Sn0 2.524014 1_555
Se12 Zr2 2.520351 1_555
Se13 Zr1 2.520777 1_555
Se14 Zr2 2.520351 1_555
Se15 Zr0 2.520877 1_555
