# generated using pymatgen
data_Li2AlInSe4
_symmetry_space_group_name_H-M   'P 1'
_cell_length_a   7.00499865
_cell_length_b   7.00499858
_cell_length_c   7.00499820
_cell_angle_alpha   129.95858209
_cell_angle_beta   129.95858313
_cell_angle_gamma   73.47298160
_symmetry_Int_Tables_number   1
_chemical_formula_structural   Li2AlInSe4
_chemical_formula_sum   'Li2 Al1 In1 Se4'
_cell_volume   197.10612748
_cell_formula_units_Z   1
loop_
 _symmetry_equiv_pos_site_id
 _symmetry_equiv_pos_as_xyz
  1  'x, y, z'
loop_
 _atom_site_type_symbol
 _atom_site_label
 _atom_site_symmetry_multiplicity
 _atom_site_fract_x
 _atom_site_fract_y
 _atom_site_fract_z
 _atom_site_occupancy
  Li  Li0  1  0.25000000  0.75000000  0.50000000  1
  Li  Li1  1  0.00000000  0.00000000  0.00000000  1
  Al  Al0  1  0.75000000  0.25000000  0.50000000  1
  In  In0  1  0.50000000  0.50000000  0.00000000  1
  Se  Se0  1  0.10164180  0.12579964  0.49116866  1
  Se  Se1  1  0.63463197  0.61047314  0.50883134  1
  Se  Se2  1  0.38952686  0.89835820  0.02415883  1
  Se  Se3  1  0.87420036  0.36536803  0.97584117  1
loop_
_geom_bond_atom_site_label_1
_geom_bond_atom_site_label_2
_geom_bond_distance
_geom_bond_site_symmetry_2
Li0 Se0 2.565912 1_565
Li0 Se3 2.565916 1_454
Li0 Se2 2.565918 1_556
Li0 Se1 2.565919 1_555
Li1 Se3 2.537193 1_454
Li1 Se2 2.537193 1_545
Li1 Se1 2.537194 1_444
Li1 Se0 2.537196 1_555
Al0 Se3 2.394927 1_555
Al0 Se1 2.394931 1_555
Al0 Se2 2.394931 1_545
Al0 Se0 2.394931 1_655
In0 Se1 2.597581 1_555
In0 Se2 2.597581 1_555
In0 Se0 2.597585 1_554
In0 Se3 2.597588 1_554
