# generated using pymatgen
data_CsCdSnAs2
_symmetry_space_group_name_H-M   'P 1'
_cell_length_a   8.85085734
_cell_length_b   9.04683224
_cell_length_c   9.26710810
_cell_angle_alpha   70.35271407
_cell_angle_beta   74.98002327
_cell_angle_gamma   72.74318891
_symmetry_Int_Tables_number   1
_chemical_formula_structural   CsCdSnAs2
_chemical_formula_sum   'Cs4 Cd4 Sn4 As8'
_cell_volume   656.81156077
_cell_formula_units_Z   4
loop_
 _symmetry_equiv_pos_site_id
 _symmetry_equiv_pos_as_xyz
  1  'x, y, z'
loop_
 _atom_site_type_symbol
 _atom_site_label
 _atom_site_symmetry_multiplicity
 _atom_site_fract_x
 _atom_site_fract_y
 _atom_site_fract_z
 _atom_site_occupancy
  Cs  Cs0  1  0.45296646  0.76983597  0.31450936  1
  Cs  Cs1  1  0.54703354  0.23016403  0.68549064  1
  Cs  Cs2  1  0.44624480  0.80343791  0.81127141  1
  Cs  Cs3  1  0.55375520  0.19656209  0.18872859  1
  Cd  Cd0  1  0.00010991  0.89513047  0.70002609  1
  Cd  Cd1  1  0.99989009  0.10486953  0.29997391  1
  Cd  Cd2  1  0.95877283  0.80744340  0.17261467  1
  Cd  Cd3  1  0.04122717  0.19255660  0.82738533  1
  Sn  Sn0  1  0.95804960  0.59898431  0.59807348  1
  Sn  Sn1  1  0.04195040  0.40101569  0.40192652  1
  Sn  Sn2  1  0.16464657  0.44796529  0.97287794  1
  Sn  Sn3  1  0.83535343  0.55203471  0.02712206  1
  As  As0  1  0.81523527  0.88793323  0.44491925  1
  As  As1  1  0.18476473  0.11206677  0.55508075  1
  As  As2  1  0.77794803  0.39164893  0.32144777  1
  As  As3  1  0.22205197  0.60835107  0.67855223  1
  As  As4  1  0.77494261  0.87174435  0.95959133  1
  As  As5  1  0.22505739  0.12825565  0.04040867  1
  As  As6  1  0.76794799  0.43812820  0.82881863  1
  As  As7  1  0.23205201  0.56187180  0.17118137  1
loop_
_geom_bond_atom_site_label_1
_geom_bond_atom_site_label_2
_geom_bond_distance
_geom_bond_site_symmetry_2
As0 Sn0 2.630598 1_555
As0 Cd1 2.705477 1_565
As0 Cd2 2.745416 1_555
As0 Cd0 3.231478 1_655
As0 Cs3 3.653069 1_565
As0 Cs2 4.094585 1_555
As0 Cs1 4.210596 1_565
As0 Cs0 4.218080 1_555
As1 Sn1 2.630598 1_555
As1 Cd0 2.705477 1_545
As1 Cd3 2.745416 1_555
As1 Cd1 3.231478 1_455
As1 Cs2 3.653069 1_545
As1 Cs3 4.094585 1_555
As1 Cs0 4.210596 1_545
As1 Cs1 4.218080 1_555
As2 Sn3 2.619312 1_555
As2 Sn1 2.662059 1_655
As2 Cd1 2.783938 1_555
As2 Cs1 3.546296 1_555
As2 Cs3 3.656173 1_555
As2 Cs0 3.754012 1_555
As3 Sn2 2.619312 1_555
As3 Sn0 2.662059 1_455
As3 Cd0 2.783938 1_555
As3 Cs0 3.546296 1_555
As3 Cs2 3.656173 1_555
As3 Cs1 3.754012 1_555
As4 Sn3 2.661193 1_556
As4 Cd2 2.685857 1_556
As4 Cd0 2.688084 1_655
As4 Cs1 3.777804 1_565
As4 Cs2 3.800700 1_555
As4 Cs0 3.801398 1_556
As4 Cs3 3.950313 1_566
As5 Sn2 2.661193 1_554
As5 Cd3 2.685857 1_554
As5 Cd1 2.688084 1_455
As5 Cs0 3.777804 1_545
As5 Cs3 3.800700 1_555
As5 Cs1 3.801398 1_554
As5 Cs2 3.950313 1_544
As6 Sn3 2.646027 1_556
As6 Sn0 2.648885 1_555
As6 Cd3 2.757033 1_655
As6 Cs2 3.653985 1_555
As6 Cs3 3.711286 1_556
As6 Cs1 3.786321 1_555
As7 Sn2 2.646027 1_554
As7 Sn1 2.648885 1_555
As7 Cd2 2.757033 1_455
As7 Cs3 3.653985 1_555
As7 Cs2 3.711286 1_554
As7 Cs0 3.786321 1_555
