# generated using pymatgen
data_Rb4LiAs4Pt
_symmetry_space_group_name_H-M   'P 1'
_cell_length_a   8.62341653
_cell_length_b   8.62361129
_cell_length_c   5.85208598
_cell_angle_alpha   91.73032577
_cell_angle_beta   88.26831671
_cell_angle_gamma   133.76157331
_symmetry_Int_Tables_number   1
_chemical_formula_structural   Rb4LiAs4Pt
_chemical_formula_sum   'Rb4 Li1 As4 Pt1'
_cell_volume   314.13543517
_cell_formula_units_Z   1
loop_
 _symmetry_equiv_pos_site_id
 _symmetry_equiv_pos_as_xyz
  1  'x, y, z'
loop_
 _atom_site_type_symbol
 _atom_site_label
 _atom_site_symmetry_multiplicity
 _atom_site_fract_x
 _atom_site_fract_y
 _atom_site_fract_z
 _atom_site_occupancy
  Rb  Rb0  1  0.21364141  0.78635038  0.74533237  1
  Rb  Rb1  1  0.57597874  0.42401896  0.74568043  1
  Rb  Rb2  1  0.78635859  0.21364962  0.25466763  1
  Rb  Rb3  1  0.42402126  0.57598104  0.25431957  1
  Li  Li0  1  0.00000000  0.00000000  0.00000000  1
  As  As0  1  0.07212283  0.28761105  0.74117124  1
  As  As1  1  0.28762951  0.07212591  0.25878993  1
  As  As2  1  0.92787717  0.71238895  0.25882876  1
  As  As3  1  0.71237049  0.92787409  0.74121007  1
  Pt  Pt0  1  0.00000000  0.00000000  0.50000000  1
loop_
_geom_bond_atom_site_label_1
_geom_bond_atom_site_label_2
_geom_bond_distance
_geom_bond_site_symmetry_2
Li0 Pt0 2.926043 1_555
Li0 Pt0 2.926043 1_554
As0 As3 2.436179 1_445
As0 Pt0 2.497626 1_555
As0 Li0 2.620836 1_556
As0 Rb0 3.566893 1_555
As0 Rb2 3.567254 1_455
As0 Rb3 3.602283 1_555
As0 Rb2 3.606044 1_456
As0 Rb1 3.632891 1_555
As0 Rb3 3.751194 1_556
As1 As2 2.436179 1_445
As1 Pt0 2.497774 1_555
As1 Li0 2.620807 1_555
As1 Rb2 3.566681 1_555
As1 Rb0 3.567401 1_545
As1 Rb1 3.602542 1_555
As1 Rb0 3.605943 1_544
As1 Rb3 3.633055 1_555
As1 Rb1 3.750896 1_554
As2 Pt0 2.497626 1_665
As2 Li0 2.620836 1_665
As2 Rb2 3.566893 1_555
As2 Rb0 3.567254 1_655
As2 Rb1 3.602283 1_555
As2 Rb0 3.606044 1_654
As2 Rb3 3.632891 1_555
As2 Rb1 3.751194 1_554
As3 Pt0 2.497774 1_665
As3 Li0 2.620807 1_666
As3 Rb0 3.566681 1_555
As3 Rb2 3.567401 1_565
As3 Rb3 3.602542 1_555
As3 Rb2 3.605943 1_566
As3 Rb1 3.633055 1_555
As3 Rb3 3.750896 1_556
