# generated using pymatgen
data_Zr6FeHgBr14
_symmetry_space_group_name_H-M   'P 1'
_cell_length_a   9.44469008
_cell_length_b   9.44469043
_cell_length_c   9.44469084
_cell_angle_alpha   111.33721349
_cell_angle_beta   105.80039418
_cell_angle_gamma   111.33721104
_symmetry_Int_Tables_number   1
_chemical_formula_structural   Zr6FeHgBr14
_chemical_formula_sum   'Zr6 Fe1 Hg1 Br14'
_cell_volume   646.56701366
_cell_formula_units_Z   1
loop_
 _symmetry_equiv_pos_site_id
 _symmetry_equiv_pos_as_xyz
  1  'x, y, z'
loop_
 _atom_site_type_symbol
 _atom_site_label
 _atom_site_symmetry_multiplicity
 _atom_site_fract_x
 _atom_site_fract_y
 _atom_site_fract_z
 _atom_site_occupancy
  Zr  Zr0  1  0.21065646  0.00000000  0.21065646  1
  Zr  Zr1  1  0.23238066  0.23238066  0.00000000  1
  Zr  Zr2  1  0.78934354  1.00000000  0.78934354  1
  Zr  Zr3  1  0.00000000  0.23238066  0.23238066  1
  Zr  Zr4  1  1.00000000  0.76761934  0.76761934  1
  Zr  Zr5  1  0.76761934  0.76761934  1.00000000  1
  Fe  Fe0  1  0.00000000  0.00000000  0.00000000  1
  Hg  Hg0  1  0.50000000  0.00000000  0.50000000  1
  Br  Br0  1  0.98861339  0.75037069  0.23824170  1
  Br  Br1  1  0.23824170  0.75037069  0.98861339  1
  Br  Br2  1  0.51212899  0.75037069  0.76175830  1
  Br  Br3  1  0.01138661  0.24962931  0.76175830  1
  Br  Br4  1  0.74697928  0.00000000  0.25302072  1
  Br  Br5  1  0.25302272  0.50604443  0.25302272  1
  Br  Br6  1  0.76175830  0.24962931  0.01138661  1
  Br  Br7  1  0.50000000  0.50000000  0.00000000  1
  Br  Br8  1  0.23824170  0.24962931  0.48787101  1
  Br  Br9  1  0.74697728  0.49395557  0.74697728  1
  Br  Br10  1  0.76175830  0.75037069  0.51212899  1
  Br  Br11  1  0.48787101  0.24962931  0.23824170  1
  Br  Br12  1  0.25302072  1.00000000  0.74697928  1
  Br  Br13  1  0.00000000  0.50000000  0.50000000  1
loop_
_geom_bond_atom_site_label_1
_geom_bond_atom_site_label_2
_geom_bond_distance
_geom_bond_site_symmetry_2
Fe0 Zr0 2.400256 1_555
Fe0 Zr2 2.400256 1_444
Fe0 Zr1 2.475599 1_555
Fe0 Zr5 2.475599 1_444
Fe0 Zr3 2.475599 1_555
Fe0 Zr4 2.475599 1_444
Hg0 Zr2 3.296831 1_545
Hg0 Zr0 3.296831 1_555
Br0 Zr0 2.677858 1_665
Br0 Zr5 2.720785 1_554
Br1 Zr0 2.677858 1_566
Br1 Zr4 2.720785 1_455
Br2 Zr2 2.677863 1_555
Br2 Zr5 2.720780 1_555
Br3 Zr2 2.677858 1_445
Br3 Zr1 2.720785 1_556
Br4 Zr3 2.704435 1_655
Br4 Zr5 2.704435 1_544
Br5 Zr3 2.704453 1_555
Br5 Zr1 2.704453 1_555
Br6 Zr2 2.677858 1_544
Br6 Zr3 2.720785 1_655
Br7 Zr5 2.851004 1_554
Br7 Zr1 2.851004 1_555
Br8 Zr0 2.677863 1_555
Br8 Zr3 2.720780 1_555
Br9 Zr4 2.704453 1_555
Br9 Zr5 2.704453 1_555
Br10 Zr2 2.677863 1_555
Br10 Zr4 2.720780 1_555
Br11 Zr0 2.677863 1_555
Br11 Zr1 2.720780 1_555
Br12 Zr4 2.704435 1_455
Br12 Zr1 2.704435 1_566
Br13 Zr4 2.851004 1_455
Br13 Zr3 2.851004 1_555
