# generated using pymatgen
data_Rb7TaIn3As5
_symmetry_space_group_name_H-M   'P 1'
_cell_length_a   8.63429505
_cell_length_b   9.50027410
_cell_length_c   14.54096934
_cell_angle_alpha   85.19657424
_cell_angle_beta   83.12342994
_cell_angle_gamma   86.43535429
_symmetry_Int_Tables_number   1
_chemical_formula_structural   Rb7TaIn3As5
_chemical_formula_sum   'Rb14 Ta2 In6 As10'
_cell_volume   1178.38922637
_cell_formula_units_Z   2
loop_
 _symmetry_equiv_pos_site_id
 _symmetry_equiv_pos_as_xyz
  1  'x, y, z'
loop_
 _atom_site_type_symbol
 _atom_site_label
 _atom_site_symmetry_multiplicity
 _atom_site_fract_x
 _atom_site_fract_y
 _atom_site_fract_z
 _atom_site_occupancy
  Rb  Rb0  1  0.84739528  0.35798544  0.64858416  1
  Rb  Rb1  1  0.81988920  0.80958643  0.13046123  1
  Rb  Rb2  1  0.24284445  0.01521259  0.46811594  1
  Rb  Rb3  1  0.27560089  0.25503979  0.25151335  1
  Rb  Rb4  1  0.74322396  0.49998404  0.97345072  1
  Rb  Rb5  1  0.25677604  0.50001596  0.02654928  1
  Rb  Rb6  1  0.67605854  0.07998728  0.88265753  1
  Rb  Rb7  1  0.75715555  0.98478741  0.53188406  1
  Rb  Rb8  1  0.72439911  0.74496021  0.74848665  1
  Rb  Rb9  1  0.33960896  0.34297776  0.60397066  1
  Rb  Rb10  1  0.15260472  0.64201456  0.35141584  1
  Rb  Rb11  1  0.18011080  0.19041357  0.86953877  1
  Rb  Rb12  1  0.32394146  0.92001272  0.11734247  1
  Rb  Rb13  1  0.66039104  0.65702224  0.39602934  1
  Ta  Ta0  1  0.34958336  0.60928094  0.77462715  1
  Ta  Ta1  1  0.65041664  0.39071906  0.22537285  1
  In  In0  1  0.04275477  0.81775010  0.87116165  1
  In  In1  1  0.95724523  0.18224990  0.12883835  1
  In  In2  1  0.36149485  0.96125626  0.70149127  1
  In  In3  1  0.09064920  0.72410386  0.62165801  1
  In  In4  1  0.90935080  0.27589614  0.37834199  1
  In  In5  1  0.63850515  0.03874374  0.29850873  1
  As  As0  1  0.92813587  0.45301777  0.20915527  1
  As  As1  1  0.63214004  0.19188022  0.12264275  1
  As  As2  1  0.07186413  0.54698223  0.79084473  1
  As  As3  1  0.58160416  0.29184103  0.39025134  1
  As  As4  1  0.41839584  0.70815897  0.60974866  1
  As  As5  1  0.02573409  0.99874920  0.70137019  1
  As  As6  1  0.51604920  0.40517008  0.81168422  1
  As  As7  1  0.48395080  0.59482992  0.18831578  1
  As  As8  1  0.36785996  0.80811978  0.87735725  1
  As  As9  1  0.97426591  0.00125080  0.29862981  1
loop_
_geom_bond_atom_site_label_1
_geom_bond_atom_site_label_2
_geom_bond_distance
_geom_bond_site_symmetry_2
Rb3 Ta1 3.524418 1_555
Rb8 Ta0 3.524418 1_555
In0 Rb8 3.582329 1_455
In0 Rb11 3.800392 1_565
In0 Rb6 3.901459 1_465
In0 Rb1 4.019639 1_456
In1 Rb3 3.582329 1_655
In1 Rb1 3.800392 1_545
In1 Rb12 3.901459 1_645
In1 Rb11 4.019639 1_654
In2 Rb11 3.565659 1_565
In2 Rb2 3.647467 1_565
In2 Rb8 3.739617 1_555
In2 Rb9 3.783580 1_565
In2 Rb7 3.973442 1_555
In3 Ta0 3.408397 1_555
In3 Rb8 3.468045 1_455
In3 Rb2 3.616000 1_565
In3 Rb7 3.949782 1_455
In3 Rb10 4.036579 1_555
In3 Rb9 4.105220 1_555
In3 Rb0 4.140791 1_455
In4 Ta1 3.408397 1_555
In4 Rb3 3.468045 1_655
In4 Rb7 3.616000 1_545
In4 Rb2 3.949782 1_655
In4 Rb0 4.036579 1_555
In4 Rb13 4.105220 1_555
In4 Rb10 4.140791 1_655
In5 Rb1 3.565659 1_545
In5 Rb7 3.647467 1_545
In5 Rb3 3.739617 1_555
In5 Rb13 3.783580 1_545
In5 Rb2 3.973442 1_555
As0 Ta1 2.484667 1_555
As0 In4 2.855727 1_555
As0 In1 2.897699 1_555
As0 Rb3 3.530502 1_655
As0 Rb1 3.587661 1_555
As0 Rb10 3.643378 1_655
As0 Rb5 3.668298 1_655
As0 Rb13 3.912167 1_555
As0 Rb4 3.932011 1_554
As1 Ta1 2.528010 1_555
As1 In1 2.814832 1_555
As1 In5 2.838979 1_555
As1 Rb3 3.453363 1_555
As1 Rb4 3.602963 1_554
As1 Rb6 3.702091 1_554
As1 Rb12 3.833448 1_545
As1 Rb1 3.882571 1_545
As2 Ta0 2.484667 1_555
As2 In3 2.855727 1_555
As2 In0 2.897699 1_555
As2 Rb8 3.530502 1_455
As2 Rb11 3.587661 1_555
As2 Rb0 3.643378 1_455
As2 Rb4 3.668298 1_455
As2 Rb9 3.912167 1_555
As2 Rb5 3.932011 1_556
As3 Ta1 2.516847 1_555
As3 In4 2.809767 1_555
As3 In5 2.834775 1_555
As3 Rb3 3.561215 1_555
As3 Rb9 3.582076 1_555
As3 Rb13 3.586362 1_555
As3 Rb7 3.773589 1_545
As3 Rb2 4.050729 1_555
As4 Ta0 2.516847 1_555
As4 In3 2.809767 1_555
As4 In2 2.834775 1_555
As4 Rb8 3.561215 1_555
As4 Rb13 3.582076 1_555
As4 Rb9 3.586362 1_555
As4 Rb2 3.773589 1_565
As4 Rb7 4.050729 1_555
As5 In2 2.898986 1_555
As5 In0 2.901466 1_555
As5 In3 2.938482 1_555
As5 Rb11 3.591649 1_565
As5 Rb7 3.595909 1_455
As5 Rb8 3.623345 1_455
As5 Rb2 3.669819 1_565
As5 Rb0 3.714640 1_465
As5 Rb6 3.847771 1_465
As6 Ta0 2.404219 1_555
As6 Rb6 3.434307 1_555
As6 Rb4 3.445471 1_555
As6 Rb0 3.521983 1_555
As6 Rb11 3.625999 1_555
As6 Rb9 3.647622 1_555
As6 Rb5 3.759089 1_556
As6 Rb8 3.785602 1_555
As7 Ta1 2.404219 1_555
As7 Rb12 3.434307 1_555
As7 Rb5 3.445471 1_555
As7 Rb10 3.521983 1_555
As7 Rb1 3.625999 1_555
As7 Rb13 3.647622 1_555
As7 Rb4 3.759089 1_554
As7 Rb3 3.785602 1_555
As8 Ta0 2.528010 1_555
As8 In0 2.814832 1_555
As8 In2 2.838979 1_555
As8 Rb8 3.453363 1_555
As8 Rb5 3.602963 1_556
As8 Rb12 3.702091 1_556
As8 Rb6 3.833448 1_565
As8 Rb11 3.882571 1_565
As9 In5 2.898986 1_555
As9 In1 2.901466 1_555
As9 In4 2.938482 1_555
As9 Rb1 3.591649 1_545
As9 Rb2 3.595909 1_655
As9 Rb3 3.623345 1_655
As9 Rb7 3.669819 1_545
As9 Rb10 3.714640 1_645
As9 Rb12 3.847771 1_645
