# generated using pymatgen
data_K3Li2TaP3
_symmetry_space_group_name_H-M   'P 1'
_cell_length_a   9.77180805
_cell_length_b   9.77180667
_cell_length_c   14.82203149
_cell_angle_alpha   90.00000000
_cell_angle_beta   90.00000000
_cell_angle_gamma   142.53783667
_symmetry_Int_Tables_number   1
_chemical_formula_structural   K3Li2TaP3
_chemical_formula_sum   'K12 Li8 Ta4 P12'
_cell_volume   860.85624854
_cell_formula_units_Z   4
loop_
 _symmetry_equiv_pos_site_id
 _symmetry_equiv_pos_as_xyz
  1  'x, y, z'
loop_
 _atom_site_type_symbol
 _atom_site_label
 _atom_site_symmetry_multiplicity
 _atom_site_fract_x
 _atom_site_fract_y
 _atom_site_fract_z
 _atom_site_occupancy
  K  K0  1  0.11146481  0.44983289  0.67315136  1
  K  K1  1  0.71074222  0.71074222  0.68429785  1
  K  K2  1  0.21074222  0.21074222  0.81570215  1
  K  K3  1  0.78925778  0.78925778  0.18429785  1
  K  K4  1  0.94983289  0.61146481  0.82684864  1
  K  K5  1  0.55016711  0.88853519  0.32684864  1
  K  K6  1  0.38853519  0.05016711  0.17315136  1
  K  K7  1  0.05016711  0.38853519  0.17315136  1
  K  K8  1  0.88853519  0.55016711  0.32684864  1
  K  K9  1  0.44983289  0.11146481  0.67315136  1
  K  K10  1  0.61146481  0.94983389  0.82684864  1
  K  K11  1  0.28925778  0.28925778  0.31570215  1
  Li  Li0  1  0.91771075  0.08228925  0.00000000  1
  Li  Li1  1  0.58228925  0.41771075  0.50000000  1
  Li  Li2  1  0.08228925  0.91771075  0.00000000  1
  Li  Li3  1  0.41771075  0.58228925  0.50000000  1
  Li  Li4  1  0.75096700  0.24903300  0.00000000  1
  Li  Li5  1  0.74903300  0.25096700  0.50000000  1
  Li  Li6  1  0.24903300  0.75096700  0.00000000  1
  Li  Li7  1  0.25096700  0.74903300  0.50000000  1
  Ta  Ta0  1  0.08327872  0.91672128  0.50000000  1
  Ta  Ta1  1  0.41672128  0.58327872  0.00000000  1
  Ta  Ta2  1  0.91672128  0.08327872  0.50000000  1
  Ta  Ta3  1  0.58327872  0.41672128  0.00000000  1
  P  P0  1  0.88338168  0.56465586  0.09098178  1
  P  P1  1  0.43534414  0.11661832  0.90901822  1
  P  P2  1  0.61661832  0.93534414  0.59098178  1
  P  P3  1  0.93534414  0.61661832  0.59098178  1
  P  P4  1  0.11661832  0.43534414  0.90901822  1
  P  P5  1  0.56465586  0.88338168  0.09098178  1
  P  P6  1  0.38338168  0.06465586  0.40901822  1
  P  P7  1  0.22375208  0.22375208  0.58899830  1
  P  P8  1  0.72375208  0.72375208  0.91100170  1
  P  P9  1  0.27624792  0.27624792  0.08899830  1
  P  P10  1  0.06465586  0.38338168  0.40901822  1
  P  P11  1  0.77624792  0.77624792  0.41100170  1
loop_
_geom_bond_atom_site_label_1
_geom_bond_atom_site_label_2
_geom_bond_distance
_geom_bond_site_symmetry_2
K0 P2 3.343704 1_555
K0 P7 3.389489 1_555
K0 P2 3.398243 1_445
K0 P3 3.399159 1_455
K0 P4 3.500871 1_555
K1 P2 3.283392 1_555
K1 P3 3.283392 1_555
K1 P8 3.361204 1_555
K1 P7 3.366966 1_555
K1 P7 3.515867 1_665
K2 P4 3.283392 1_555
K2 P1 3.283392 1_555
K2 P7 3.361204 1_555
K2 P8 3.366966 1_445
K2 P8 3.515867 1_555
K3 P0 3.283392 1_555
K3 P5 3.283392 1_555
K3 P11 3.361204 1_555
K3 P9 3.366966 1_665
K3 P9 3.515867 1_555
K4 P1 3.343704 1_665
K4 P8 3.389489 1_555
K4 P1 3.398243 1_555
K4 P4 3.399158 1_655
K4 P3 3.500871 1_555
K5 P10 3.343704 1_555
K5 P11 3.389489 1_555
K5 P10 3.398243 1_665
K5 P6 3.399158 1_565
K5 P5 3.500871 1_555
K6 P0 3.343704 1_445
K6 P9 3.389489 1_555
K6 P0 3.398243 1_555
K6 P5 3.399159 1_545
K6 P6 3.500871 1_555
K7 P5 3.343704 1_445
K7 P9 3.389489 1_555
K7 P5 3.398243 1_555
K7 P0 3.399158 1_455
K7 P10 3.500871 1_555
K8 P6 3.343704 1_555
K8 P11 3.389489 1_555
K8 P6 3.398243 1_665
K8 P10 3.399159 1_655
K8 P0 3.500871 1_555
K9 P3 3.343704 1_555
K9 P7 3.389489 1_555
K9 P3 3.398243 1_445
K9 P2 3.399158 1_545
K9 P1 3.500871 1_555
K10 P4 3.343702 1_665
K10 P8 3.389497 1_555
K10 P4 3.398246 1_555
K10 P1 3.399150 1_565
K10 P2 3.500872 1_555
K11 P6 3.283392 1_555
K11 P10 3.283392 1_555
K11 P9 3.361204 1_555
K11 P11 3.366966 1_555
K11 P11 3.515867 1_445
Li0 P4 2.617920 1_654
Li0 P5 2.617920 1_545
Li0 P8 2.658121 1_544
Li0 P9 2.658122 1_655
Li1 P6 2.617920 1_555
Li1 P3 2.617920 1_555
Li1 P11 2.658121 1_555
Li1 P7 2.658122 1_555
Li2 P0 2.617920 1_455
Li2 P1 2.617920 1_564
Li2 P9 2.658121 1_565
Li2 P8 2.658122 1_454
Li3 P2 2.617920 1_555
Li3 P10 2.617920 1_555
Li3 P7 2.658121 1_555
Li3 P11 2.658122 1_555
Li4 P0 2.582590 1_555
Li4 P1 2.582591 1_554
Li4 P5 2.751912 1_545
Li4 P4 2.751913 1_654
Li5 P2 2.582590 1_545
Li5 P10 2.582591 1_655
Li5 P3 2.751912 1_555
Li5 P6 2.751913 1_555
Li6 P4 2.582590 1_554
Li6 P5 2.582591 1_555
Li6 P1 2.751912 1_564
Li6 P0 2.751913 1_455
Li7 P6 2.582590 1_565
Li7 P3 2.582591 1_455
Li7 P10 2.751912 1_555
Li7 P2 2.751913 1_555
P0 Ta3 2.403798 1_555
P1 Ta3 2.403798 1_556
P2 Ta2 2.403798 1_565
P3 Ta0 2.403798 1_655
P4 Ta1 2.403798 1_556
P5 Ta1 2.403798 1_555
P6 Ta0 2.403798 1_545
P7 Ta0 2.467363 1_545
P7 Ta2 2.467363 1_455
P8 Ta3 2.467363 1_556
P8 Ta1 2.467363 1_556
P9 Ta1 2.467363 1_555
P9 Ta3 2.467363 1_555
P10 Ta2 2.403798 1_455
P11 Ta2 2.467363 1_565
P11 Ta0 2.467363 1_655
