# generated using pymatgen
data_Cs2Cd(GeO3)2
_symmetry_space_group_name_H-M   'P 1'
_cell_length_a   6.31243215
_cell_length_b   6.31243257
_cell_length_c   11.26367531
_cell_angle_alpha   90.00000000
_cell_angle_beta   90.00000000
_cell_angle_gamma   66.82355044
_symmetry_Int_Tables_number   1
_chemical_formula_structural   Cs2Cd(GeO3)2
_chemical_formula_sum   'Cs4 Cd2 Ge4 O12'
_cell_volume   412.60028909
_cell_formula_units_Z   2
loop_
 _symmetry_equiv_pos_site_id
 _symmetry_equiv_pos_as_xyz
  1  'x, y, z'
loop_
 _atom_site_type_symbol
 _atom_site_label
 _atom_site_symmetry_multiplicity
 _atom_site_fract_x
 _atom_site_fract_y
 _atom_site_fract_z
 _atom_site_occupancy
  Cs  Cs0  1  0.56195089  0.78160776  0.17194665  1
  Cs  Cs1  1  0.21839224  0.43804811  0.32805335  1
  Cs  Cs2  1  0.43804811  0.21839224  0.67194665  1
  Cs  Cs3  1  0.78160776  0.56195089  0.82805335  1
  Cd  Cd0  1  0.31178126  0.31178126  0.00000000  1
  Cd  Cd1  1  0.68821974  0.68821974  0.50000000  1
  Ge  Ge0  1  0.87317828  0.16259513  0.11438455  1
  Ge  Ge1  1  0.83740387  0.12682072  0.38561645  1
  Ge  Ge2  1  0.12682072  0.83740387  0.61438255  1
  Ge  Ge3  1  0.16259513  0.87317828  0.88561745  1
  O  O0  1  0.94827328  0.94827328  0.00000000  1
  O  O1  1  0.98463229  0.36921921  0.08841638  1
  O  O2  1  0.57550270  0.27463542  0.12968343  1
  O  O3  1  0.99339378  0.00660622  0.25000000  1
  O  O4  1  0.72536458  0.42449730  0.37031757  1
  O  O5  1  0.63078079  0.01536871  0.41158362  1
  O  O6  1  0.05172872  0.05172872  0.50000000  1
  O  O7  1  0.01536871  0.63078079  0.58841538  1
  O  O8  1  0.42449730  0.72536458  0.62968243  1
  O  O9  1  0.00660622  0.99339378  0.75000100  1
  O  O10  1  0.27463542  0.57550270  0.87031757  1
  O  O11  1  0.36921921  0.98463229  0.91158362  1
loop_
_geom_bond_atom_site_label_1
_geom_bond_atom_site_label_2
_geom_bond_distance
_geom_bond_site_symmetry_2
Cs0 O4 3.050868 1_555
Cs0 O1 3.051823 1_555
Cs0 O2 3.182657 1_565
Cs0 O5 3.186920 1_565
Cs0 O2 3.203109 1_555
Cs0 O11 3.239708 1_554
Cs0 O3 3.414473 1_465
Cs1 O2 3.050859 1_555
Cs1 O5 3.051816 1_555
Cs1 O4 3.182656 1_455
Cs1 O1 3.186915 1_455
Cs1 O4 3.203113 1_555
Cs1 O7 3.239697 1_555
Cs1 O3 3.414479 1_465
Cs2 O10 3.050868 1_555
Cs2 O7 3.051820 1_555
Cs2 O8 3.182656 1_545
Cs2 O11 3.186915 1_545
Cs2 O8 3.203113 1_555
Cs2 O5 3.239708 1_555
Cs2 O9 3.414481 1_645
Cs3 O8 3.050868 1_555
Cs3 O11 3.051823 1_555
Cs3 O10 3.182658 1_655
Cs3 O7 3.186930 1_655
Cs3 O10 3.203111 1_555
Cs3 O1 3.239708 1_556
Cs3 O9 3.414470 1_645
Cd0 O10 2.157007 1_554
Cd0 O2 2.157015 1_555
Cd0 O1 2.190562 1_455
Cd0 O11 2.190562 1_544
Cd1 O8 2.157013 1_555
Cd1 O4 2.157013 1_555
Cd1 O7 2.190555 1_655
Cd1 O5 2.190561 1_565
Ge0 O1 1.733213 1_555
Ge0 O2 1.736286 1_555
Ge0 O0 1.791697 1_545
Ge0 O3 1.814006 1_555
Ge1 O5 1.733197 1_555
Ge1 O4 1.736292 1_555
Ge1 O6 1.791702 1_655
Ge1 O3 1.814016 1_555
Ge2 O7 1.733197 1_555
Ge2 O8 1.736293 1_555
Ge2 O6 1.791693 1_565
Ge2 O9 1.814035 1_555
Ge3 O11 1.733209 1_555
Ge3 O10 1.736287 1_555
Ge3 O0 1.791680 1_456
Ge3 O9 1.814015 1_555
