# generated using pymatgen
data_Cs2Te3PtO12
_symmetry_space_group_name_H-M   'P 1'
_cell_length_a   7.12670057
_cell_length_b   7.12670074
_cell_length_c   7.12670117
_cell_angle_alpha   61.23609590
_cell_angle_beta   61.23609111
_cell_angle_gamma   61.23608963
_symmetry_Int_Tables_number   1
_chemical_formula_structural   Cs2Te3PtO12
_chemical_formula_sum   'Cs2 Te3 Pt1 O12'
_cell_volume   263.06214271
_cell_formula_units_Z   1
loop_
 _symmetry_equiv_pos_site_id
 _symmetry_equiv_pos_as_xyz
  1  'x, y, z'
loop_
 _atom_site_type_symbol
 _atom_site_label
 _atom_site_symmetry_multiplicity
 _atom_site_fract_x
 _atom_site_fract_y
 _atom_site_fract_z
 _atom_site_occupancy
  Cs  Cs0  1  0.37610253  0.37610253  0.37610253  1
  Cs  Cs1  1  0.62389747  0.62389747  0.62389747  1
  Te  Te0  1  0.50000000  0.00000000  0.00000000  1
  Te  Te1  1  0.00000000  0.00000000  0.50000000  1
  Te  Te2  1  0.00000000  0.50000000  0.00000000  1
  Pt  Pt0  1  0.00000000  0.00000000  0.00000000  1
  O  O0  1  0.92935887  0.31787162  0.31787162  1
  O  O1  1  0.33404665  0.92201948  0.92201948  1
  O  O2  1  0.31787162  0.31787162  0.92935887  1
  O  O3  1  0.92201948  0.92201948  0.33404665  1
  O  O4  1  0.92201948  0.33404665  0.92201948  1
  O  O5  1  0.31787162  0.92935887  0.31787162  1
  O  O6  1  0.07064113  0.68212838  0.68212838  1
  O  O7  1  0.66595335  0.07798052  0.07798052  1
  O  O8  1  0.68212838  0.68212838  0.07064113  1
  O  O9  1  0.07798052  0.07798052  0.66595335  1
  O  O10  1  0.07798052  0.66595335  0.07798052  1
  O  O11  1  0.68212838  0.07064113  0.68212838  1
loop_
_geom_bond_atom_site_label_1
_geom_bond_atom_site_label_2
_geom_bond_distance
_geom_bond_site_symmetry_2
Cs0 O7 3.031806 1_555
Cs0 O9 3.031806 1_555
Cs0 O10 3.031806 1_555
Cs0 O6 3.113088 1_555
Cs0 O8 3.113088 1_555
Cs0 O11 3.113088 1_555
Cs1 O1 3.031806 1_555
Cs1 O3 3.031806 1_555
Cs1 O4 3.031806 1_555
Cs1 O0 3.113088 1_555
Cs1 O2 3.113088 1_555
Cs1 O5 3.113088 1_555
O0 Te1 1.942048 1_655
O0 Te2 1.942048 1_655
O1 Te0 1.891786 1_566
O1 Pt0 2.008945 1_566
O2 Te2 1.942048 1_556
O2 Te0 1.942048 1_556
O3 Te1 1.891786 1_665
O3 Pt0 2.008945 1_665
O4 Te2 1.891786 1_656
O4 Pt0 2.008945 1_656
O5 Te1 1.942048 1_565
O5 Te0 1.942048 1_565
O6 Te1 1.942048 1_565
O6 Te2 1.942048 1_556
O7 Te0 1.891786 1_555
O7 Pt0 2.008945 1_655
O8 Te2 1.942048 1_655
O8 Te0 1.942048 1_565
O9 Te1 1.891786 1_555
O9 Pt0 2.008945 1_556
O10 Te2 1.891786 1_555
O10 Pt0 2.008945 1_565
O11 Te1 1.942048 1_655
O11 Te0 1.942048 1_556
