# generated using pymatgen
data_Hg2RuPtO7
_symmetry_space_group_name_H-M   'P 1'
_cell_length_a   7.23624513
_cell_length_b   7.23624524
_cell_length_c   7.28406336
_cell_angle_alpha   59.78116271
_cell_angle_beta   59.78116220
_cell_angle_gamma   59.60272181
_symmetry_Int_Tables_number   1
_chemical_formula_structural   Hg2RuPtO7
_chemical_formula_sum   'Hg4 Ru2 Pt2 O14'
_cell_volume   267.99611454
_cell_formula_units_Z   2
loop_
 _symmetry_equiv_pos_site_id
 _symmetry_equiv_pos_as_xyz
  1  'x, y, z'
loop_
 _atom_site_type_symbol
 _atom_site_label
 _atom_site_symmetry_multiplicity
 _atom_site_fract_x
 _atom_site_fract_y
 _atom_site_fract_z
 _atom_site_occupancy
  Hg  Hg0  1  0.12500000  0.12500000  0.12500000  1
  Hg  Hg1  1  0.62500000  0.12500000  0.12500000  1
  Hg  Hg2  1  0.12500000  0.62500000  0.12500000  1
  Hg  Hg3  1  0.12500000  0.12500000  0.62500000  1
  Ru  Ru0  1  0.62500000  0.62500000  0.12500000  1
  Ru  Ru1  1  0.62500000  0.62500000  0.62500000  1
  Pt  Pt0  1  0.62500000  0.12500000  0.62500000  1
  Pt  Pt1  1  0.12500000  0.62500000  0.62500000  1
  O  O0  1  0.69492449  0.30675832  0.29961123  1
  O  O1  1  0.69492449  0.30675832  0.69870597  1
  O  O2  1  0.99208902  0.99208902  0.00791098  1
  O  O3  1  0.30675832  0.69492449  0.29961123  1
  O  O4  1  0.68667105  0.68667105  0.31332895  1
  O  O5  1  0.94324168  0.55507551  0.55129403  1
  O  O6  1  0.30675832  0.69492449  0.69870597  1
  O  O7  1  0.25791098  0.25791098  0.24208902  1
  O  O8  1  0.94324168  0.55507551  0.95038877  1
  O  O9  1  0.55507551  0.94324168  0.55129403  1
  O  O10  1  0.56332895  0.56332895  0.93667105  1
  O  O11  1  0.95992621  0.95992621  0.54007379  1
  O  O12  1  0.55507551  0.94324168  0.95038877  1
  O  O13  1  0.29007379  0.29007379  0.70992621  1
loop_
_geom_bond_atom_site_label_1
_geom_bond_atom_site_label_2
_geom_bond_distance
_geom_bond_site_symmetry_2
Hg0 O7 2.272652 1_555
Hg0 O2 2.272652 1_445
Hg0 O13 2.483548 1_554
Hg0 O11 2.483548 1_445
Hg0 O12 2.567121 1_544
Hg0 O0 2.567121 1_455
Hg0 O8 2.567121 1_454
Hg0 O3 2.567121 1_545
Hg1 O2 2.160636 1_545
Hg1 O7 2.160636 1_555
Hg1 O0 2.570751 1_555
Hg1 O12 2.570751 1_544
Hg1 O9 2.570751 1_545
Hg1 O1 2.570751 1_554
Hg1 O10 2.635437 1_554
Hg1 O4 2.635437 1_545
Hg2 O2 2.160636 1_455
Hg2 O7 2.160636 1_555
Hg2 O5 2.570751 1_455
Hg2 O6 2.570751 1_554
Hg2 O3 2.570751 1_555
Hg2 O8 2.570751 1_454
Hg2 O10 2.635437 1_554
Hg2 O4 2.635437 1_455
Hg3 O2 2.272652 1_446
Hg3 O7 2.272652 1_555
Hg3 O13 2.483548 1_555
Hg3 O11 2.483548 1_445
Hg3 O9 2.567121 1_545
Hg3 O1 2.567121 1_455
Hg3 O5 2.567121 1_455
Hg3 O6 2.567121 1_545
O0 Ru0 1.922814 1_555
O0 Pt0 1.982894 1_555
O1 Ru1 1.922814 1_555
O1 Pt0 1.982894 1_555
O3 Ru0 1.922814 1_555
O3 Pt1 1.982894 1_555
O4 Ru0 1.927214 1_555
O4 Ru1 1.927214 1_555
O5 Ru1 1.922814 1_555
O5 Pt1 1.982894 1_655
O6 Ru1 1.922814 1_555
O6 Pt1 1.982894 1_555
O8 Ru0 1.922814 1_556
O8 Pt1 1.982894 1_655
O9 Ru1 1.922814 1_555
O9 Pt0 1.982894 1_565
O10 Ru1 1.927214 1_555
O10 Ru0 1.927214 1_556
O11 Pt0 1.997081 1_565
O11 Pt1 1.997081 1_655
O12 Ru0 1.922814 1_556
O12 Pt0 1.982894 1_565
O13 Pt0 1.997081 1_555
O13 Pt1 1.997081 1_555
