# generated using pymatgen
data_Lu5Zn2Sb
_symmetry_space_group_name_H-M   'P 1'
_cell_length_a   8.36252239
_cell_length_b   8.36252223
_cell_length_c   8.36252282
_cell_angle_alpha   124.28992888
_cell_angle_beta   124.28992590
_cell_angle_gamma   82.71750510
_symmetry_Int_Tables_number   1
_chemical_formula_structural   Lu5Zn2Sb
_chemical_formula_sum   'Lu10 Zn4 Sb2'
_cell_volume   383.30609125
_cell_formula_units_Z   2
loop_
 _symmetry_equiv_pos_site_id
 _symmetry_equiv_pos_as_xyz
  1  'x, y, z'
loop_
 _atom_site_type_symbol
 _atom_site_label
 _atom_site_symmetry_multiplicity
 _atom_site_fract_x
 _atom_site_fract_y
 _atom_site_fract_z
 _atom_site_occupancy
  Lu  Lu0  1  0.51104774  0.70216214  0.50000000  1
  Lu  Lu1  1  0.01104774  0.51104774  0.80888560  1
  Lu  Lu2  1  0.70216214  0.20216214  0.19111440  1
  Lu  Lu3  1  0.98895226  0.48895226  0.19111440  1
  Lu  Lu4  1  0.20216214  0.01104774  0.50000000  1
  Lu  Lu5  1  0.48895226  0.29783786  0.50000000  1
  Lu  Lu6  1  0.79783786  0.98895226  0.50000000  1
  Lu  Lu7  1  0.29783786  0.79783786  0.80888560  1
  Lu  Lu8  1  0.00000000  0.00000000  0.00000000  1
  Lu  Lu9  1  0.50000000  0.50000000  0.00000000  1
  Zn  Zn0  1  0.36335626  0.86335626  0.22671251  1
  Zn  Zn1  1  0.86335626  0.63664374  0.50000000  1
  Zn  Zn2  1  0.63664374  0.13664374  0.77328749  1
  Zn  Zn3  1  0.13664374  0.36335626  0.50000000  1
  Sb  Sb0  1  0.75000000  0.75000000  0.00000000  1
  Sb  Sb1  1  0.25000000  0.25000000  0.00000000  1
loop_
_geom_bond_atom_site_label_1
_geom_bond_atom_site_label_2
_geom_bond_distance
_geom_bond_site_symmetry_2
Lu0 Zn2 2.904151 1_565
Lu0 Zn0 2.904151 1_555
Lu0 Zn1 2.927623 1_555
Lu0 Sb1 3.246475 1_555
Lu0 Sb0 3.246475 1_556
Lu1 Zn3 2.904151 1_555
Lu1 Zn1 2.904151 1_455
Lu1 Zn0 2.927623 1_556
Lu1 Sb0 3.246475 1_456
Lu1 Sb1 3.246475 1_556
Lu2 Zn1 2.904151 1_555
Lu2 Zn3 2.904151 1_655
Lu2 Zn2 2.927623 1_554
Lu2 Sb0 3.246475 1_545
Lu2 Sb1 3.246475 1_555
Lu3 Zn1 2.904151 1_555
Lu3 Zn3 2.904151 1_655
Lu3 Zn2 2.927623 1_554
Lu3 Sb1 3.246475 1_655
Lu3 Sb0 3.246475 1_555
Lu4 Zn2 2.904151 1_555
Lu4 Zn0 2.904151 1_545
Lu4 Zn3 2.927623 1_555
Lu4 Sb0 3.246475 1_445
Lu4 Sb1 3.246475 1_556
Lu5 Zn0 2.904151 1_545
Lu5 Zn2 2.904151 1_555
Lu5 Zn3 2.927623 1_555
Lu5 Sb0 3.246475 1_556
Lu5 Sb1 3.246475 1_555
Lu6 Zn0 2.904151 1_555
Lu6 Zn2 2.904151 1_565
Lu6 Zn1 2.927623 1_555
Lu6 Sb1 3.246475 1_666
Lu6 Sb0 3.246475 1_555
Lu7 Zn3 2.904151 1_555
Lu7 Zn1 2.904151 1_455
Lu7 Zn0 2.927623 1_556
Lu7 Sb1 3.246475 1_566
Lu7 Sb0 3.246475 1_556
Lu8 Zn3 3.033607 1_555
Lu8 Zn1 3.033607 1_444
Lu8 Zn0 3.033607 1_545
Lu8 Zn2 3.033607 1_454
Lu8 Sb0 3.138400 1_445
Lu8 Sb1 3.138400 1_555
Lu9 Zn0 3.033607 1_555
Lu9 Zn2 3.033607 1_554
Lu9 Zn1 3.033607 1_555
Lu9 Zn3 3.033607 1_554
Lu9 Sb1 3.138400 1_555
Lu9 Sb0 3.138400 1_555
