# generated using pymatgen
data_La2Te3
_symmetry_space_group_name_H-M   'P 1'
_cell_length_a   16.12645938
_cell_length_b   16.12669068
_cell_length_c   16.12654648
_cell_angle_alpha   144.97861703
_cell_angle_beta   144.97757230
_cell_angle_gamma   50.36734898
_symmetry_Int_Tables_number   1
_chemical_formula_structural   La2Te3
_chemical_formula_sum   'La16 Te24'
_cell_volume   1374.42002790
_cell_formula_units_Z   8
loop_
 _symmetry_equiv_pos_site_id
 _symmetry_equiv_pos_as_xyz
  1  'x, y, z'
loop_
 _atom_site_type_symbol
 _atom_site_label
 _atom_site_symmetry_multiplicity
 _atom_site_fract_x
 _atom_site_fract_y
 _atom_site_fract_z
 _atom_site_occupancy
  La  La0  1  0.20344100  0.32796011  0.61121579  1
  La  La1  1  0.41706951  0.91707338  0.50001540  1
  La  La2  1  0.99424200  0.62499431  0.86924373  1
  La  La3  1  0.03326075  0.92204246  0.37548378  1
  La  La4  1  0.33295312  0.33294567  0.00000253  1
  La  La5  1  0.54657425  0.65777828  0.62452929  1
  La  La6  1  0.75588671  0.12499817  0.13088400  1
  La  La7  1  0.34220692  0.96675720  0.88878415  1
  La  La8  1  0.37498247  0.24415170  0.36913983  1
  La  La9  1  0.66704920  0.66706197  -0.00001038  1
  La  La10  1  0.87493940  0.00575846  0.63070012  1
  La  La11  1  0.07790119  0.45339501  0.11111383  1
  La  La12  1  0.08293317  0.58293040  0.49998363  1
  La  La13  1  0.67202318  0.28325284  0.87545425  1
  La  La14  1  0.71681597  0.59230829  0.38891292  1
  La  La15  1  0.40773501  0.79656175  0.12447846  1
  Te  Te0  1  0.50543653  0.25832959  0.89775864  1
  Te  Te1  1  0.71696804  0.82309378  0.74694912  1
  Te  Te2  1  0.36060184  0.60768969  0.10227592  1
  Te  Te3  1  0.24455772  0.64229409  0.25286893  1
  Te  Te4  1  0.38942689  0.99168207  0.74711791  1
  Te  Te5  1  0.07615622  0.97001582  0.25307426  1
  Te  Te6  1  0.84542065  0.59127941  0.90455572  1
  Te  Te7  1  0.03305050  0.27996962  0.60613007  1
  Te  Te8  1  0.05912289  0.15457358  0.74585450  1
  Te  Te9  1  0.68673331  0.94086241  0.09544563  1
  Te  Te10  1  0.67386103  0.42694751  0.39388171  1
  Te  Te11  1  0.57307275  0.96695185  0.24693176  1
  Te  Te12  1  0.71999821  0.32613852  0.75304802  1
  Te  Te13  1  0.40871867  0.31325118  0.25413744  1
  Te  Te14  1  0.17690379  0.92385933  0.89385769  1
  Te  Te15  1  0.35768235  0.61058918  0.60226222  1
  Te  Te16  1  0.39231773  0.49457662  0.75289567  1
  Te  Te17  1  0.02995850  0.28304490  0.10611218  1
  Te  Te18  1  0.00830800  0.75544211  0.39774415  1
  Te  Te19  1  0.90458210  0.30912667  0.24587393  1
  Te  Te20  1  0.06328681  0.65873737  0.75418661  1
  Te  Te21  1  0.74166918  0.63941760  0.24710160  1
  Te  Te22  1  0.69088884  0.93676713  0.59549574  1
  Te  Te23  1  0.34126360  0.09538696  0.40450827  1
loop_
_geom_bond_atom_site_label_1
_geom_bond_atom_site_label_2
_geom_bond_distance
_geom_bond_site_symmetry_2
La0 Te7 3.224276 1_555
La0 Te19 3.234428 1_455
La0 Te16 3.271853 1_555
La0 Te0 3.315893 1_555
La0 Te23 3.337908 1_555
La0 Te20 3.448117 1_555
La0 Te5 3.461941 1_545
La0 Te2 3.561922 1_556
La1 Te5 3.245743 1_555
La1 Te1 3.245822 1_555
La1 Te0 3.267612 1_565
La1 Te2 3.267695 1_555
La1 Te23 3.438234 1_565
La1 Te22 3.438386 1_555
La1 Te4 3.449368 1_555
La1 Te3 3.449663 1_555
La2 Te5 3.254660 1_656
La2 Te7 3.254704 1_655
La2 Te20 3.284680 1_655
La2 Te6 3.284805 1_555
La2 Te10 3.426441 1_555
La2 Te1 3.426633 1_555
La2 Te3 3.514740 1_656
La2 Te2 3.515060 1_656
La3 Te5 3.224067 1_555
La3 Te9 3.234561 1_455
La3 Te18 3.271811 1_555
La3 Te4 3.315821 1_555
La3 Te8 3.337810 1_565
La3 Te6 3.448037 1_454
La3 Te7 3.461764 1_565
La3 Te3 3.561896 1_555
La4 Te7 3.245692 1_554
La4 Te10 3.245745 1_555
La4 Te3 3.267601 1_555
La4 Te4 3.267628 1_544
La4 Te8 3.438711 1_554
La4 Te13 3.438804 1_555
La4 Te0 3.449026 1_554
La4 Te2 3.449208 1_555
La5 Te1 3.224242 1_555
La5 Te6 3.234552 1_555
La5 Te15 3.271897 1_555
La5 Te3 3.315958 1_555
La5 Te13 3.338051 1_555
La5 Te9 3.447952 1_556
La5 Te10 3.461879 1_555
La5 Te4 3.561933 1_555
La6 Te1 3.254782 1_544
La6 Te10 3.254951 1_555
La6 Te19 3.284490 1_555
La6 Te9 3.284729 1_545
La6 Te7 3.425571 1_655
La6 Te5 3.425579 1_645
La6 Te4 3.515837 1_544
La6 Te0 3.515883 1_554
La7 Te14 3.223992 1_555
La7 Te13 3.234258 1_566
La7 Te4 3.271802 1_555
La7 Te15 3.315809 1_555
La7 Te9 3.338048 1_556
La7 Te8 3.447905 1_565
La7 Te11 3.462051 1_556
La7 Te18 3.561865 1_555
La8 Te12 3.254813 1_555
La8 Te17 3.254889 1_555
La8 Te13 3.284535 1_555
La8 Te23 3.284818 1_555
La8 Te14 3.425750 1_544
La8 Te11 3.425828 1_545
La8 Te16 3.515462 1_555
La8 Te15 3.515656 1_555
La9 Te11 3.245742 1_555
La9 Te12 3.245806 1_554
La9 Te15 3.267617 1_554
La9 Te18 3.267701 1_655
La9 Te6 3.438287 1_554
La9 Te9 3.438311 1_555
La9 Te16 3.449181 1_554
La9 Te21 3.449454 1_555
La10 Te11 3.254169 1_545
La10 Te14 3.255074 1_645
La10 Te22 3.284524 1_545
La10 Te8 3.284867 1_655
La10 Te12 3.426269 1_555
La10 Te17 3.426729 1_656
La10 Te21 3.514743 1_545
La10 Te18 3.514770 1_645
La11 Te17 3.224254 1_555
La11 Te8 3.234013 1_554
La11 Te3 3.271826 1_555
La11 Te18 3.316231 1_555
La11 Te6 3.337440 1_454
La11 Te13 3.448421 1_555
La11 Te12 3.461596 1_454
La11 Te15 3.562577 1_555
La12 Te17 3.245604 1_555
La12 Te14 3.245840 1_555
La12 Te21 3.267725 1_455
La12 Te16 3.267746 1_555
La12 Te19 3.438464 1_455
La12 Te20 3.438733 1_555
La12 Te15 3.449284 1_555
La12 Te18 3.449397 1_555
La13 Te12 3.223900 1_555
La13 Te22 3.234188 1_545
La13 Te0 3.271832 1_555
La13 Te21 3.315783 1_556
La13 Te19 3.338253 1_556
La13 Te23 3.448141 1_555
La13 Te17 3.461820 1_656
La13 Te16 3.561806 1_555
La14 Te10 3.224156 1_555
La14 Te20 3.234044 1_655
La14 Te21 3.271574 1_555
La14 Te2 3.316155 1_555
La14 Te22 3.337483 1_555
La14 Te19 3.448245 1_555
La14 Te1 3.461400 1_555
La14 Te0 3.562701 1_554
La15 Te11 3.224090 1_555
La15 Te23 3.234213 1_565
La15 Te2 3.271827 1_555
La15 Te16 3.315682 1_554
La15 Te20 3.337338 1_554
La15 Te22 3.448650 1_555
La15 Te14 3.461819 1_554
La15 Te21 3.562169 1_555
