# generated using pymatgen
data_Nb3MoH3Se8
_symmetry_space_group_name_H-M   'P 1'
_cell_length_a   3.42159518
_cell_length_b   3.42159522
_cell_length_c   27.64269547
_cell_angle_alpha   90.00000000
_cell_angle_beta   90.00000000
_cell_angle_gamma   119.99998997
_symmetry_Int_Tables_number   1
_chemical_formula_structural   Nb3MoH3Se8
_chemical_formula_sum   'Nb3 Mo1 H3 Se8'
_cell_volume   280.26464815
_cell_formula_units_Z   1
loop_
 _symmetry_equiv_pos_site_id
 _symmetry_equiv_pos_as_xyz
  1  'x, y, z'
loop_
 _atom_site_type_symbol
 _atom_site_label
 _atom_site_symmetry_multiplicity
 _atom_site_fract_x
 _atom_site_fract_y
 _atom_site_fract_z
 _atom_site_occupancy
  Nb  Nb0  1  0.66666700  0.33333300  0.50000000  1
  Nb  Nb1  1  0.33333300  0.66666700  0.24889599  1
  Nb  Nb2  1  0.33333300  0.66666700  0.75110401  1
  Mo  Mo0  1  0.66666700  0.33333300  0.00000000  1
  H  H0  1  0.00000000  0.00000000  0.50000000  1
  H  H1  1  0.00000000  0.00000000  0.24894156  1
  H  H2  1  0.00000000  0.00000000  0.75105844  1
  Se  Se0  1  0.66666700  0.33333300  0.31285536  1
  Se  Se1  1  0.66666700  0.33333300  0.81505974  1
  Se  Se2  1  0.33333300  0.66666700  0.94132137  1
  Se  Se3  1  0.33333300  0.66666700  0.43603321  1
  Se  Se4  1  0.33333300  0.66666700  0.05867863  1
  Se  Se5  1  0.33333300  0.66666700  0.56396679  1
  Se  Se6  1  0.66666700  0.33333300  0.18494026  1
  Se  Se7  1  0.66666700  0.33333300  0.68714464  1
loop_
_geom_bond_atom_site_label_1
_geom_bond_atom_site_label_2
_geom_bond_distance
_geom_bond_site_symmetry_2
Nb0 Se5 2.651229 1_655
Nb0 Se3 2.651229 1_655
Nb0 Se5 2.651229 1_545
Nb0 Se3 2.651229 1_545
Nb0 Se5 2.651233 1_555
Nb0 Se3 2.651233 1_555
Nb1 Se6 2.651025 1_455
Nb1 Se6 2.651025 1_565
Nb1 Se6 2.651029 1_555
Nb1 Se0 2.651092 1_455
Nb1 Se0 2.651092 1_565
Nb1 Se0 2.651096 1_555
Nb2 Se1 2.651025 1_455
Nb2 Se1 2.651025 1_565
Nb2 Se1 2.651029 1_555
Nb2 Se7 2.651092 1_455
Nb2 Se7 2.651092 1_565
Nb2 Se7 2.651096 1_555
Mo0 Se4 2.556058 1_655
Mo0 Se2 2.556058 1_654
Mo0 Se4 2.556058 1_545
Mo0 Se2 2.556058 1_544
Mo0 Se4 2.556062 1_555
Mo0 Se2 2.556062 1_554
H0 Nb0 1.975457 1_455
H0 Nb0 1.975460 1_555
H0 Nb0 1.975460 1_445
H1 Nb1 1.975457 1_545
H1 Nb1 1.975460 1_445
H1 Nb1 1.975461 1_555
H2 Nb2 1.975457 1_545
H2 Nb2 1.975460 1_445
H2 Nb2 1.975461 1_555
