# generated using pymatgen
data_Zr6Ti7Ga9Rh7
_symmetry_space_group_name_H-M   'P 1'
_cell_length_a   8.81890237
_cell_length_b   8.81890297
_cell_length_c   8.81890344
_cell_angle_alpha   59.45830832
_cell_angle_beta   59.45830581
_cell_angle_gamma   59.45830640
_symmetry_Int_Tables_number   1
_chemical_formula_structural   Zr6Ti7Ga9Rh7
_chemical_formula_sum   'Zr6 Ti7 Ga9 Rh7'
_cell_volume   479.00911259
_cell_formula_units_Z   1
loop_
 _symmetry_equiv_pos_site_id
 _symmetry_equiv_pos_as_xyz
  1  'x, y, z'
loop_
 _atom_site_type_symbol
 _atom_site_label
 _atom_site_symmetry_multiplicity
 _atom_site_fract_x
 _atom_site_fract_y
 _atom_site_fract_z
 _atom_site_occupancy
  Zr  Zr0  1  0.69208309  0.69208309  0.30929100  1
  Zr  Zr1  1  0.30618555  0.69818203  0.30618555  1
  Zr  Zr2  1  0.69818203  0.30618555  0.30618555  1
  Zr  Zr3  1  0.30618555  0.30618555  0.69818203  1
  Zr  Zr4  1  0.69208309  0.30929100  0.69208309  1
  Zr  Zr5  1  0.30929100  0.69208309  0.69208309  1
  Ti  Ti0  1  0.88055409  0.88055409  0.36389983  1
  Ti  Ti1  1  0.88055409  0.36389983  0.88055409  1
  Ti  Ti2  1  0.36389983  0.88055409  0.88055409  1
  Ti  Ti3  1  0.87539285  0.87539285  0.87539285  1
  Ti  Ti4  1  0.12424334  0.12424334  0.62930799  1
  Ti  Ti5  1  0.12424334  0.62930799  0.12424334  1
  Ti  Ti6  1  0.62930799  0.12424334  0.12424334  1
  Ga  Ga0  1  0.11670858  0.11670858  0.11670858  1
  Ga  Ga1  1  0.65808145  0.65808145  0.02246887  1
  Ga  Ga2  1  0.65808145  0.02246887  0.65808145  1
  Ga  Ga3  1  0.02246887  0.65808145  0.65808145  1
  Ga  Ga4  1  0.66045287  0.66045287  0.66045287  1
  Ga  Ga5  1  0.33917033  0.33917033  0.98185072  1
  Ga  Ga6  1  0.33917033  0.98185072  0.33917033  1
  Ga  Ga7  1  0.98185072  0.33917033  0.33917033  1
  Ga  Ga8  1  0.34480864  0.34480864  0.34480864  1
  Rh  Rh0  1  0.99342123  0.99342123  0.99342123  1
  Rh  Rh1  1  0.99964116  0.99964116  0.50374326  1
  Rh  Rh2  1  0.50029864  0.99995584  0.50029864  1
  Rh  Rh3  1  0.99995584  0.50029864  0.50029864  1
  Rh  Rh4  1  0.50029864  0.50029864  0.99995584  1
  Rh  Rh5  1  0.99964116  0.50374326  0.99964116  1
  Rh  Rh6  1  0.50374326  0.99964116  0.99964116  1
loop_
_geom_bond_atom_site_label_1
_geom_bond_atom_site_label_2
_geom_bond_distance
_geom_bond_site_symmetry_2
Zr0 Zr5 3.348128 1_555
Zr0 Zr4 3.348129 1_555
Zr0 Zr1 3.390067 1_555
Zr0 Zr2 3.390068 1_555
Zr1 Zr5 3.390068 1_555
Zr1 Zr2 3.428636 1_555
Zr1 Zr3 3.428636 1_555
Zr2 Zr4 3.390068 1_555
Zr2 Zr3 3.428636 1_555
Zr3 Zr4 3.390067 1_555
Zr3 Zr5 3.390068 1_555
Zr4 Zr5 3.348128 1_555
Ti0 Ti5 3.049340 1_655
Ti0 Ti6 3.049340 1_565
Ti0 Zr1 3.112872 1_655
Ti0 Zr2 3.112872 1_565
Ti0 Zr0 3.192475 1_555
Ti1 Ti6 3.049340 1_556
Ti1 Ti4 3.049340 1_655
Ti1 Zr3 3.112872 1_655
Ti1 Zr2 3.112872 1_556
Ti1 Zr4 3.192475 1_555
Ti2 Ti5 3.049340 1_556
Ti2 Ti4 3.049340 1_565
Ti2 Zr3 3.112872 1_565
Ti2 Zr1 3.112872 1_556
Ti2 Zr5 3.192475 1_555
Ti3 Ti4 3.091299 1_665
Ti3 Ti6 3.091299 1_566
Ti3 Ti5 3.091299 1_656
Ti3 Zr5 3.154536 1_655
Ti3 Zr4 3.154536 1_565
Ti3 Zr0 3.154536 1_556
Ti4 Zr4 3.153960 1_455
Ti4 Zr5 3.153961 1_545
Ti4 Zr3 3.180490 1_555
Ti5 Zr0 3.153960 1_455
Ti5 Zr5 3.153961 1_554
Ti5 Zr1 3.180491 1_555
Ti6 Zr0 3.153961 1_545
Ti6 Zr4 3.153961 1_554
Ti6 Zr2 3.180491 1_555
Ga0 Rh0 2.674081 1_444
Ga0 Rh6 2.775305 1_544
Ga0 Rh5 2.775305 1_454
Ga0 Rh1 2.775306 1_445
Ga0 Ga5 2.877737 1_554
Ga0 Ga6 2.877737 1_545
Ga0 Ga7 2.877737 1_455
Ga0 Ti0 2.933712 1_445
Ga0 Ti2 2.933712 1_544
Ga0 Ti1 2.933712 1_454
Ga0 Zr2 3.083629 1_455
Ga0 Zr1 3.083629 1_545
Ga0 Zr3 3.083629 1_554
Ga1 Rh4 2.537945 1_554
Ga1 Rh5 2.541990 1_554
Ga1 Rh6 2.541990 1_554
Ga1 Ti3 2.776327 1_554
Ga1 Ti2 2.788828 1_554
Ga1 Ti1 2.788828 1_554
Ga1 Zr1 2.812195 1_555
Ga1 Zr2 2.812195 1_555
Ga1 Zr0 2.865499 1_555
Ga2 Rh2 2.537945 1_545
Ga2 Rh1 2.541990 1_545
Ga2 Rh6 2.541990 1_545
Ga2 Ti3 2.776327 1_545
Ga2 Ti2 2.788828 1_545
Ga2 Ti0 2.788828 1_545
Ga2 Zr3 2.812195 1_555
Ga2 Zr2 2.812195 1_555
Ga2 Zr4 2.865499 1_555
Ga3 Rh3 2.537945 1_455
Ga3 Rh1 2.541990 1_455
Ga3 Rh5 2.541990 1_455
Ga3 Ti3 2.776327 1_455
Ga3 Ti1 2.788828 1_455
Ga3 Ti0 2.788828 1_455
Ga3 Zr3 2.812195 1_555
Ga3 Zr1 2.812195 1_555
Ga3 Zr5 2.865499 1_555
Ga4 Rh3 2.527008 1_555
Ga4 Rh2 2.527008 1_555
Ga4 Rh4 2.527008 1_555
Ga4 Ti2 2.808142 1_555
Ga4 Ti0 2.808142 1_555
Ga4 Ti1 2.808142 1_555
Ga4 Zr5 2.840658 1_555
Ga4 Zr4 2.840659 1_555
Ga4 Zr0 2.840659 1_555
Ga5 Rh5 2.536529 1_455
Ga5 Rh6 2.536529 1_545
Ga5 Rh4 2.564596 1_555
Ga5 Ti6 2.762960 1_556
Ga5 Ti5 2.762960 1_556
Ga5 Zr3 2.827126 1_555
Ga5 Zr4 2.837923 1_555
Ga5 Zr5 2.837923 1_555
Ga6 Rh1 2.536529 1_455
Ga6 Rh6 2.536529 1_554
Ga6 Rh2 2.564596 1_555
Ga6 Ti6 2.762960 1_565
Ga6 Ti4 2.762960 1_565
Ga6 Zr1 2.827126 1_555
Ga6 Zr0 2.837923 1_555
Ga6 Zr5 2.837923 1_555
Ga7 Rh1 2.536529 1_545
Ga7 Rh5 2.536529 1_554
Ga7 Rh3 2.564596 1_555
Ga7 Ti5 2.762960 1_655
Ga7 Ti4 2.762960 1_655
Ga7 Zr2 2.827126 1_555
Ga7 Zr0 2.837923 1_555
Ga7 Zr4 2.837923 1_555
Ga8 Rh3 2.538497 1_455
Ga8 Rh2 2.538497 1_545
Ga8 Rh4 2.538497 1_554
Ga8 Ti6 2.790603 1_555
Ga8 Ti4 2.790603 1_555
Ga8 Ti5 2.790603 1_555
Ga8 Zr2 2.811416 1_555
Ga8 Zr1 2.811416 1_555
Ga8 Zr3 2.811417 1_555
Rh0 Ti3 2.560015 1_555
Rh0 Ti6 2.606837 1_566
Rh0 Ti5 2.606837 1_656
Rh0 Ti4 2.606837 1_665
Rh0 Ti2 2.655705 1_655
Rh0 Ti1 2.655705 1_565
Rh0 Ti0 2.655705 1_556
Rh1 Ti3 2.657793 1_555
Rh1 Ti4 2.709563 1_665
Rh1 Ti0 2.735054 1_555
Rh1 Zr1 3.166654 1_655
Rh1 Zr2 3.166654 1_565
Rh1 Zr4 3.174275 1_565
Rh1 Zr5 3.174275 1_655
Rh2 Ti4 2.689336 1_565
Rh2 Ti6 2.689336 1_565
Rh2 Ti0 2.720311 1_555
Rh2 Ti2 2.720311 1_555
Rh2 Zr5 3.186752 1_555
Rh2 Zr0 3.186752 1_555
Rh2 Zr2 3.213141 1_565
Rh2 Zr3 3.213141 1_565
Rh3 Ti4 2.689336 1_655
Rh3 Ti5 2.689336 1_655
Rh3 Ti0 2.720311 1_555
Rh3 Ti1 2.720311 1_555
Rh3 Zr4 3.186752 1_555
Rh3 Zr0 3.186752 1_555
Rh3 Zr1 3.213141 1_655
Rh3 Zr3 3.213141 1_655
Rh4 Ti5 2.689336 1_556
Rh4 Ti6 2.689336 1_556
Rh4 Ti1 2.720311 1_555
Rh4 Ti2 2.720311 1_555
Rh4 Zr4 3.186752 1_555
Rh4 Zr5 3.186752 1_555
Rh4 Zr1 3.213141 1_556
Rh4 Zr2 3.213141 1_556
Rh5 Ti3 2.657793 1_555
Rh5 Ti5 2.709563 1_656
Rh5 Ti1 2.735054 1_555
Rh5 Zr2 3.166654 1_556
Rh5 Zr3 3.166654 1_655
Rh5 Zr5 3.174275 1_655
Rh5 Zr0 3.174275 1_556
Rh6 Ti3 2.657792 1_555
Rh6 Ti6 2.709563 1_566
Rh6 Ti2 2.735054 1_555
Rh6 Zr1 3.166654 1_556
Rh6 Zr3 3.166654 1_565
Rh6 Zr4 3.174275 1_565
Rh6 Zr0 3.174275 1_556
