# generated using pymatgen
data_CrCo2Rh3O8
_symmetry_space_group_name_H-M   'P 1'
_cell_length_a   5.92648176
_cell_length_b   5.92661324
_cell_length_c   6.03421079
_cell_angle_alpha   90.00064294
_cell_angle_beta   59.39652749
_cell_angle_gamma   118.79698785
_symmetry_Int_Tables_number   1
_chemical_formula_structural   CrCo2Rh3O8
_chemical_formula_sum   'Cr1 Co2 Rh3 O8'
_cell_volume   151.17919357
_cell_formula_units_Z   1
loop_
 _symmetry_equiv_pos_site_id
 _symmetry_equiv_pos_as_xyz
  1  'x, y, z'
loop_
 _atom_site_type_symbol
 _atom_site_label
 _atom_site_symmetry_multiplicity
 _atom_site_fract_x
 _atom_site_fract_y
 _atom_site_fract_z
 _atom_site_occupancy
  Cr  Cr0  1  0.49999720  0.50004939  0.49995658  1
  Co  Co0  1  0.74631102  0.87685989  0.87680708  1
  Co  Co1  1  0.25381392  0.12315425  0.12305761  1
  Rh  Rh0  1  0.99997712  0.49992444  0.00004826  1
  Rh  Rh1  1  0.99998626  0.49995462  0.50003837  1
  Rh  Rh2  1  0.50002750  0.00005984  0.50001158  1
  O  O0  1  0.48552151  0.73719191  0.73720763  1
  O  O1  1  0.48551642  0.73725231  0.27723960  1
  O  O2  1  0.01826002  0.74081485  0.74091416  1
  O  O3  1  0.98164885  0.25905950  0.25922788  1
  O  O4  1  0.51445205  0.26281606  0.26278735  1
  O  O5  1  0.02564763  0.27725972  0.73717984  1
  O  O6  1  0.51445226  0.26286273  0.72272008  1
  O  O7  1  0.97438925  0.72274349  0.26280298  1
loop_
_geom_bond_atom_site_label_1
_geom_bond_atom_site_label_2
_geom_bond_distance
_geom_bond_site_symmetry_2
Cr0 O5 2.005511 1_555
Cr0 O7 2.005703 1_555
Cr0 O0 2.005808 1_555
Cr0 O4 2.005852 1_555
Cr0 O1 2.005866 1_555
Cr0 O6 2.005881 1_555
Co0 O2 1.956114 1_655
Co0 O0 1.968908 1_555
Co0 O5 1.968959 1_665
Co0 O1 1.969112 1_556
Co1 O3 1.956480 1_455
Co1 O6 1.968703 1_554
Co1 O4 1.968839 1_555
Co1 O7 1.969033 1_445
O0 Rh0 2.056218 1_456
O0 Rh2 2.056409 1_565
O1 Rh1 2.056124 1_455
O1 Rh2 2.056456 1_565
O2 Rh1 2.042885 1_455
O2 Rh0 2.042923 1_456
O2 Rh2 2.042946 1_565
O3 Rh2 2.042249 1_555
O3 Rh1 2.042763 1_555
O3 Rh0 2.042844 1_555
O4 Rh0 2.056095 1_555
O4 Rh2 2.056363 1_555
O5 Rh1 2.056143 1_455
O5 Rh0 2.056289 1_456
O6 Rh1 2.056170 1_555
O6 Rh2 2.056173 1_555
O7 Rh0 2.056410 1_555
O7 Rh1 2.056655 1_555
