# generated using pymatgen
data_RbSO3
_symmetry_space_group_name_H-M   'P 1'
_cell_length_a   10.12309926
_cell_length_b   10.12310853
_cell_length_c   6.45371747
_cell_angle_alpha   89.99853468
_cell_angle_beta   90.00193683
_cell_angle_gamma   120.00038177
_symmetry_Int_Tables_number   1
_chemical_formula_structural   RbSO3
_chemical_formula_sum   'Rb6 S6 O18'
_cell_volume   572.75158272
_cell_formula_units_Z   6
loop_
 _symmetry_equiv_pos_site_id
 _symmetry_equiv_pos_as_xyz
  1  'x, y, z'
loop_
 _atom_site_type_symbol
 _atom_site_label
 _atom_site_symmetry_multiplicity
 _atom_site_fract_x
 _atom_site_fract_y
 _atom_site_fract_z
 _atom_site_occupancy
  Rb  Rb0  1  0.29265501  0.00002202  0.49995086  1
  Rb  Rb1  1  -0.00004131  0.29261884  0.49997033  1
  Rb  Rb2  1  0.70738426  0.70735592  0.49996786  1
  Rb  Rb3  1  0.61789343  -0.00000867  0.00001800  1
  Rb  Rb4  1  0.00000511  0.61788978  0.00000041  1
  Rb  Rb5  1  0.38210369  0.38211143  0.00001941  1
  S  S0  1  -0.00000097  -0.00000470  0.17101292  1
  S  S1  1  -0.00000279  -0.00000110  0.82897677  1
  S  S2  1  0.33334015  0.66666924  0.58788695  1
  S  S3  1  0.66666978  0.33334493  0.41212239  1
  S  S4  1  0.33333190  0.66666371  0.25345922  1
  S  S5  1  0.66666281  0.33332710  0.74657326  1
  O  O0  1  0.20703371  0.51754093  0.19462608  1
  O  O1  1  0.48244458  0.68948795  0.19462892  1
  O  O2  1  0.31049516  0.79295175  0.19461462  1
  O  O3  1  0.68948538  0.48245283  0.80537995  1
  O  O4  1  0.79296713  0.31050348  0.80539444  1
  O  O5  1  0.51753664  0.20702763  0.80538146  1
  O  O6  1  0.17931500  0.63025676  0.64166728  1
  O  O7  1  0.36976000  0.54905740  0.64166104  1
  O  O8  1  0.45095060  0.82069184  0.64165215  1
  O  O9  1  0.54900438  0.36969298  0.35835670  1
  O  O10  1  0.82067341  0.45100038  0.35835219  1
  O  O11  1  0.63032106  0.17932888  0.35834621  1
  O  O12  1  0.14687451  0.12908410  0.23017092  1
  O  O13  1  0.87091669  0.01778786  0.23016759  1
  O  O14  1  0.98221906  0.85313110  0.23017325  1
  O  O15  1  0.01782037  0.87094136  0.76982301  1
  O  O16  1  0.85311803  0.98218674  0.76981550  1
  O  O17  1  0.12906423  0.14688652  0.76982834  1
loop_
_geom_bond_atom_site_label_1
_geom_bond_atom_site_label_2
_geom_bond_distance
_geom_bond_site_symmetry_2
O0 S4 1.458622 1_555
O0 Rb1 2.947690 1_555
O0 Rb5 3.004624 1_555
O0 Rb4 3.021693 1_555
O1 S4 1.458539 1_555
O1 Rb2 2.947681 1_555
O1 Rb3 3.004589 1_565
O1 Rb5 3.021707 1_555
O2 S4 1.458616 1_555
O2 Rb0 2.947633 1_565
O2 Rb4 3.004486 1_555
O2 Rb3 3.021824 1_565
O3 S5 1.458629 1_555
O3 Rb2 2.947636 1_555
O3 Rb4 3.004741 1_656
O3 Rb5 3.021843 1_556
O4 S5 1.458652 1_555
O4 Rb1 2.947618 1_655
O4 Rb3 3.004706 1_556
O4 Rb4 3.021747 1_656
O5 S5 1.458611 1_555
O5 Rb0 2.947639 1_555
O5 Rb5 3.004848 1_556
O5 Rb3 3.021849 1_556
O6 S2 1.453536 1_555
O6 Rb4 2.903717 1_556
O6 Rb1 3.099899 1_555
O6 Rb0 3.445194 1_565
O7 S2 1.453552 1_555
O7 Rb5 2.903704 1_556
O7 Rb2 3.099783 1_555
O7 Rb1 3.445425 1_555
O8 S2 1.453474 1_555
O8 Rb3 2.903790 1_566
O8 Rb0 3.099777 1_565
O8 Rb2 3.445244 1_555
O9 S3 1.453568 1_555
O9 Rb5 2.903561 1_555
O9 Rb2 3.099919 1_555
O9 Rb0 3.444149 1_555
O10 S3 1.453488 1_555
O10 Rb4 2.903704 1_655
O10 Rb1 3.099939 1_655
O10 Rb2 3.444061 1_555
O11 S3 1.453622 1_555
O11 Rb3 2.903684 1_555
O11 Rb0 3.099947 1_555
O11 Rb1 3.443940 1_655
O12 S0 1.456404 1_555
O12 Rb5 2.887566 1_555
O12 Rb0 2.973885 1_555
O12 Rb1 3.232146 1_555
O13 S0 1.456396 1_655
O13 Rb3 2.887490 1_555
O13 Rb1 2.973948 1_655
O13 Rb2 3.231938 1_545
O14 S0 1.456329 1_665
O14 Rb4 2.887724 1_655
O14 Rb2 2.973954 1_555
O14 Rb0 3.231867 1_665
O15 S1 1.456329 1_565
O15 Rb4 2.887770 1_556
O15 Rb0 2.974243 1_565
O15 Rb2 3.232150 1_455
O16 S1 1.456345 1_665
O16 Rb3 2.887774 1_566
O16 Rb2 2.974096 1_555
O16 Rb1 3.232109 1_665
O17 S1 1.456380 1_555
O17 Rb5 2.887718 1_556
O17 Rb1 2.974134 1_555
O17 Rb0 3.232467 1_555
