# generated using pymatgen
data_Sc22CoIr6Os
_symmetry_space_group_name_H-M   'P 1'
_cell_length_a   9.42497503
_cell_length_b   9.42497532
_cell_length_c   9.42497497
_cell_angle_alpha   60.00000124
_cell_angle_beta   60.00000022
_cell_angle_gamma   60.00000117
_symmetry_Int_Tables_number   1
_chemical_formula_structural   Sc22CoIr6Os
_chemical_formula_sum   'Sc22 Co1 Ir6 Os1'
_cell_volume   592.00537060
_cell_formula_units_Z   1
loop_
 _symmetry_equiv_pos_site_id
 _symmetry_equiv_pos_as_xyz
  1  'x, y, z'
loop_
 _atom_site_type_symbol
 _atom_site_label
 _atom_site_symmetry_multiplicity
 _atom_site_fract_x
 _atom_site_fract_y
 _atom_site_fract_z
 _atom_site_occupancy
  Sc  Sc0  1  0.84337441  0.84337441  0.84337441  1
  Sc  Sc1  1  0.53012222  0.15662559  0.15662559  1
  Sc  Sc2  1  0.15662559  0.15662559  0.53012222  1
  Sc  Sc3  1  0.15662559  0.53012222  0.15662559  1
  Sc  Sc4  1  0.84337441  0.84337441  0.46987778  1
  Sc  Sc5  1  0.84337441  0.46987778  0.84337441  1
  Sc  Sc6  1  0.46987778  0.84337441  0.84337441  1
  Sc  Sc7  1  0.15662559  0.15662559  0.15662559  1
  Sc  Sc8  1  0.19672404  0.80327596  0.19672404  1
  Sc  Sc9  1  0.19672404  0.80327596  0.80327596  1
  Sc  Sc10  1  0.80327596  0.19672404  0.19672404  1
  Sc  Sc11  1  0.80327596  0.80327596  0.19672404  1
  Sc  Sc12  1  0.19672404  0.19672404  0.80327596  1
  Sc  Sc13  1  0.80327596  0.19672404  0.80327596  1
  Sc  Sc14  1  0.38465040  0.38465040  0.38465040  1
  Sc  Sc15  1  0.15395219  0.61534960  0.61534960  1
  Sc  Sc16  1  0.61534960  0.15395219  0.61534960  1
  Sc  Sc17  1  0.61534960  0.61534960  0.15395219  1
  Sc  Sc18  1  0.38465040  0.84604781  0.38465040  1
  Sc  Sc19  1  0.38465040  0.38465040  0.84604781  1
  Sc  Sc20  1  0.84604781  0.38465040  0.38465040  1
  Sc  Sc21  1  0.61534960  0.61534960  0.61534960  1
  Co  Co0  1  0.50000000  0.50000000  0.50000000  1
  Ir  Ir0  1  0.50000000  0.50000000  0.00000000  1
  Ir  Ir1  1  0.00000000  0.00000000  0.50000000  1
  Ir  Ir2  1  0.50000000  0.00000000  0.50000000  1
  Ir  Ir3  1  0.00000000  0.50000000  0.50000000  1
  Ir  Ir4  1  0.50000000  0.00000000  0.00000000  1
  Ir  Ir5  1  0.00000000  0.50000000  0.00000000  1
  Os  Os0  1  0.00000000  0.00000000  0.00000000  1
loop_
_geom_bond_atom_site_label_1
_geom_bond_atom_site_label_2
_geom_bond_distance
_geom_bond_site_symmetry_2
Co0 Sc19 2.662997 1_555
Co0 Sc17 2.662997 1_555
Co0 Sc20 2.662997 1_555
Co0 Sc15 2.662997 1_555
Co0 Sc18 2.662997 1_555
Co0 Sc16 2.662997 1_555
Co0 Sc21 2.663005 1_555
Co0 Sc14 2.663005 1_555
Ir0 Sc5 2.730615 1_554
Ir0 Sc3 2.730615 1_555
Ir0 Sc6 2.730616 1_554
Ir0 Sc1 2.730616 1_555
Ir0 Sc14 2.967505 1_555
Ir0 Sc21 2.967505 1_554
Ir0 Sc17 2.967513 1_555
Ir0 Sc19 2.967513 1_554
Ir1 Sc2 2.730607 1_555
Ir1 Sc4 2.730607 1_445
Ir1 Sc0 2.730613 1_445
Ir1 Sc7 2.730613 1_555
Ir1 Sc18 2.967506 1_545
Ir1 Sc16 2.967506 1_455
Ir1 Sc20 2.967506 1_455
Ir1 Sc15 2.967506 1_545
Ir2 Sc6 2.730615 1_545
Ir2 Sc1 2.730615 1_555
Ir2 Sc4 2.730616 1_545
Ir2 Sc2 2.730616 1_555
Ir2 Sc14 2.967505 1_555
Ir2 Sc21 2.967505 1_545
Ir2 Sc16 2.967513 1_555
Ir2 Sc18 2.967513 1_545
Ir3 Sc5 2.730615 1_455
Ir3 Sc3 2.730615 1_555
Ir3 Sc4 2.730616 1_455
Ir3 Sc2 2.730616 1_555
Ir3 Sc14 2.967505 1_555
Ir3 Sc21 2.967505 1_455
Ir3 Sc15 2.967513 1_555
Ir3 Sc20 2.967513 1_455
Ir4 Sc1 2.730607 1_555
Ir4 Sc6 2.730607 1_544
Ir4 Sc0 2.730613 1_544
Ir4 Sc7 2.730613 1_555
Ir4 Sc18 2.967506 1_545
Ir4 Sc16 2.967506 1_554
Ir4 Sc19 2.967506 1_554
Ir4 Sc17 2.967506 1_545
Ir5 Sc3 2.730607 1_555
Ir5 Sc5 2.730607 1_454
Ir5 Sc0 2.730614 1_454
Ir5 Sc7 2.730614 1_555
Ir5 Sc20 2.967506 1_455
Ir5 Sc15 2.967506 1_554
Ir5 Sc19 2.967506 1_554
Ir5 Sc17 2.967506 1_455
Os0 Sc8 2.622121 1_545
Os0 Sc10 2.622121 1_455
Os0 Sc9 2.622121 1_544
Os0 Sc13 2.622121 1_454
Os0 Sc12 2.622121 1_554
Os0 Sc11 2.622121 1_445
