# generated using pymatgen
data_KBa4Sb2As
_symmetry_space_group_name_H-M   'P 1'
_cell_length_a   8.92072751
_cell_length_b   10.54042109
_cell_length_c   13.99729543
_cell_angle_alpha   90.00000000
_cell_angle_beta   90.00000000
_cell_angle_gamma   90.00000000
_symmetry_Int_Tables_number   1
_chemical_formula_structural   KBa4Sb2As
_chemical_formula_sum   'K4 Ba16 Sb8 As4'
_cell_volume   1316.14083641
_cell_formula_units_Z   4
loop_
 _symmetry_equiv_pos_site_id
 _symmetry_equiv_pos_as_xyz
  1  'x, y, z'
loop_
 _atom_site_type_symbol
 _atom_site_label
 _atom_site_symmetry_multiplicity
 _atom_site_fract_x
 _atom_site_fract_y
 _atom_site_fract_z
 _atom_site_occupancy
  K  K0  1  0.00826434  0.75000000  0.49977807  1
  K  K1  1  0.99173566  0.25000000  0.50022193  1
  K  K2  1  0.50826434  0.25000000  0.00022193  1
  K  K3  1  0.49173566  0.75000000  0.99977807  1
  Ba  Ba0  1  0.84173561  0.75000000  0.79414849  1
  Ba  Ba1  1  0.15826439  0.25000000  0.20585151  1
  Ba  Ba2  1  0.34173561  0.25000000  0.70585151  1
  Ba  Ba3  1  0.65826439  0.75000000  0.29414849  1
  Ba  Ba4  1  0.69813085  0.50284960  0.56924158  1
  Ba  Ba5  1  0.30186915  0.49715040  0.43075842  1
  Ba  Ba6  1  0.19813085  0.49715040  0.93075842  1
  Ba  Ba7  1  0.30186915  0.00284960  0.43075842  1
  Ba  Ba8  1  0.80186915  0.50284960  0.06924158  1
  Ba  Ba9  1  0.69813085  0.99715040  0.56924158  1
  Ba  Ba10  1  0.80186915  0.99715040  0.06924158  1
  Ba  Ba11  1  0.19813085  0.00284960  0.93075842  1
  Ba  Ba12  1  0.33913408  0.75000000  0.70744559  1
  Ba  Ba13  1  0.66086592  0.25000000  0.29255441  1
  Ba  Ba14  1  0.83913408  0.25000000  0.79255441  1
  Ba  Ba15  1  0.16086592  0.75000000  0.20744559  1
  Sb  Sb0  1  0.56522731  0.50077437  0.82524358  1
  Sb  Sb1  1  0.43477269  0.49922563  0.17475642  1
  Sb  Sb2  1  0.06522731  0.49922563  0.67475642  1
  Sb  Sb3  1  0.43477269  0.00077437  0.17475642  1
  Sb  Sb4  1  0.93477269  0.50077437  0.32524358  1
  Sb  Sb5  1  0.56522731  0.99922563  0.82524358  1
  Sb  Sb6  1  0.93477269  0.99922563  0.32524358  1
  Sb  Sb7  1  0.06522731  0.00077437  0.67475642  1
  As  As0  1  0.00650969  0.75000000  0.99883387  1
  As  As1  1  0.99349031  0.25000000  0.00116613  1
  As  As2  1  0.50650969  0.25000000  0.50116613  1
  As  As3  1  0.49349031  0.75000000  0.49883387  1
loop_
_geom_bond_atom_site_label_1
_geom_bond_atom_site_label_2
_geom_bond_distance
_geom_bond_site_symmetry_2
K0 Sb7 3.639200 1_565
K0 Sb2 3.639200 1_555
K0 Sb6 3.646771 1_455
K0 Sb4 3.646771 1_455
K1 Sb4 3.639200 1_555
K1 Sb6 3.639200 1_545
K1 Sb2 3.646771 1_655
K1 Sb7 3.646771 1_655
K2 Sb0 3.639200 1_554
K2 Sb5 3.639200 1_544
K2 Sb1 3.646771 1_555
K2 Sb3 3.646771 1_555
K3 Sb3 3.639200 1_566
K3 Sb1 3.639200 1_556
K3 Sb5 3.646771 1_555
K3 Sb0 3.646771 1_555
Ba0 Sb5 3.629691 1_555
Ba0 Sb0 3.629691 1_555
Ba0 Sb7 3.708710 1_665
Ba0 Sb2 3.708710 1_655
Ba1 Sb1 3.629691 1_555
Ba1 Sb3 3.629691 1_555
Ba1 Sb4 3.708710 1_455
Ba1 Sb6 3.708710 1_445
Ba2 Sb2 3.629691 1_555
Ba2 Sb7 3.629691 1_555
Ba2 Sb0 3.708710 1_555
Ba2 Sb5 3.708710 1_545
Ba3 Sb6 3.629691 1_555
Ba3 Sb4 3.629691 1_555
Ba3 Sb3 3.708710 1_565
Ba3 Sb1 3.708710 1_555
Ba4 Sb2 3.592612 1_655
Ba4 Sb0 3.774442 1_555
Ba4 Sb4 4.015125 1_555
Ba5 Sb4 3.592612 1_455
Ba5 Sb1 3.774442 1_555
Ba5 Sb2 4.015125 1_555
Ba6 Sb0 3.592612 1_555
Ba6 Sb2 3.774442 1_555
Ba6 Sb1 4.015125 1_556
Ba7 Sb6 3.592612 1_445
Ba7 Sb3 3.774442 1_555
Ba7 Sb7 4.015125 1_555
Ba8 Sb1 3.592612 1_555
Ba8 Sb4 3.774442 1_555
Ba8 Sb0 4.015125 1_554
Ba9 Sb7 3.592612 1_665
Ba9 Sb5 3.774442 1_555
Ba9 Sb6 4.015125 1_555
Ba10 Sb3 3.592612 1_565
Ba10 Sb6 3.774442 1_555
Ba10 Sb5 4.015125 1_554
Ba11 Sb5 3.592612 1_545
Ba11 Sb7 3.774442 1_555
Ba11 Sb3 4.015125 1_556
Ba12 Sb7 3.628589 1_565
Ba12 Sb2 3.628589 1_555
Ba12 Sb5 3.699662 1_555
Ba12 Sb0 3.699662 1_555
Ba13 Sb4 3.628589 1_555
Ba13 Sb6 3.628589 1_545
Ba13 Sb1 3.699662 1_555
Ba13 Sb3 3.699662 1_555
Ba14 Sb0 3.628589 1_555
Ba14 Sb5 3.628589 1_545
Ba14 Sb2 3.699662 1_655
Ba14 Sb7 3.699662 1_655
Ba15 Sb3 3.628589 1_565
Ba15 Sb1 3.628589 1_555
Ba15 Sb6 3.699662 1_455
Ba15 Sb4 3.699662 1_455
As0 Ba0 3.220106 1_455
As0 Ba15 3.228381 1_556
As0 Ba11 3.306508 1_565
As0 Ba6 3.306508 1_555
As0 Ba8 3.330201 1_456
As0 Ba10 3.330201 1_456
As1 Ba1 3.220106 1_655
As1 Ba14 3.228381 1_554
As1 Ba10 3.306508 1_545
As1 Ba8 3.306508 1_555
As1 Ba11 3.330201 1_654
As1 Ba6 3.330201 1_654
As2 Ba2 3.220106 1_555
As2 Ba13 3.228381 1_555
As2 Ba9 3.306508 1_545
As2 Ba4 3.306508 1_555
As2 Ba7 3.330201 1_555
As2 Ba5 3.330201 1_555
As3 Ba3 3.220106 1_555
As3 Ba12 3.228381 1_555
As3 Ba5 3.306508 1_555
As3 Ba7 3.306508 1_565
As3 Ba4 3.330201 1_555
As3 Ba9 3.330201 1_555
