# generated using pymatgen
data_K2TiF6
_symmetry_space_group_name_H-M   'P 1'
_cell_length_a   5.68505675
_cell_length_b   5.68505641
_cell_length_c   4.59016253
_cell_angle_alpha   90.00000000
_cell_angle_beta   90.00000000
_cell_angle_gamma   119.99999040
_symmetry_Int_Tables_number   1
_chemical_formula_structural   K2TiF6
_chemical_formula_sum   'K2 Ti1 F6'
_cell_volume   128.47786761
_cell_formula_units_Z   1
loop_
 _symmetry_equiv_pos_site_id
 _symmetry_equiv_pos_as_xyz
  1  'x, y, z'
loop_
 _atom_site_type_symbol
 _atom_site_label
 _atom_site_symmetry_multiplicity
 _atom_site_fract_x
 _atom_site_fract_y
 _atom_site_fract_z
 _atom_site_occupancy
  K  K0  1  0.33333300  0.66666700  0.69778717  1
  K  K1  1  0.66666700  0.33333300  0.30221283  1
  Ti  Ti0  1  0.00000000  -0.00000000  0.00000000  1
  F  F0  1  0.31684026  0.15842013  0.77230011  1
  F  F1  1  0.84157987  0.15842013  0.77230011  1
  F  F2  1  0.84157987  0.68315974  0.77230011  1
  F  F3  1  0.15842013  0.31684026  0.22769989  1
  F  F4  1  0.68315974  0.84157987  0.22769989  1
  F  F5  1  0.15842013  0.84157987  0.22769989  1
loop_
_geom_bond_atom_site_label_1
_geom_bond_atom_site_label_2
_geom_bond_distance
_geom_bond_site_symmetry_2
F0 Ti0 1.877709 1_556
F0 K1 2.760879 1_555
F0 K0 2.864180 1_545
F0 K0 2.864185 1_555
F0 K1 2.980428 1_556
F1 Ti0 1.877708 1_656
F1 K1 2.760875 1_555
F1 K0 2.864183 1_655
F1 K0 2.864183 1_545
F1 K1 2.980425 1_556
F2 Ti0 1.877709 1_666
F2 K1 2.760879 1_555
F2 K0 2.864180 1_655
F2 K0 2.864186 1_555
F2 K1 2.980428 1_556
F3 Ti0 1.877709 1_555
F3 K0 2.760879 1_555
F3 K1 2.864180 1_455
F3 K1 2.864186 1_555
F3 K0 2.980428 1_554
F4 Ti0 1.877709 1_665
F4 K0 2.760879 1_555
F4 K1 2.864180 1_565
F4 K1 2.864185 1_555
F4 K0 2.980428 1_554
F5 Ti0 1.877708 1_565
F5 K0 2.760875 1_555
F5 K1 2.864183 1_455
F5 K1 2.864183 1_565
F5 K0 2.980425 1_554
