# generated using pymatgen
data_LuNb(SeO3)4
_symmetry_space_group_name_H-M   'P 1'
_cell_length_a   8.60145431
_cell_length_b   8.66344737
_cell_length_c   8.60041065
_cell_angle_alpha   90.53068016
_cell_angle_beta   90.00000000
_cell_angle_gamma   90.00000000
_symmetry_Int_Tables_number   1
_chemical_formula_structural   LuNb(SeO3)4
_chemical_formula_sum   'Lu2 Nb2 Se8 O24'
_cell_volume   640.86003327
_cell_formula_units_Z   2
loop_
 _symmetry_equiv_pos_site_id
 _symmetry_equiv_pos_as_xyz
  1  'x, y, z'
loop_
 _atom_site_type_symbol
 _atom_site_label
 _atom_site_symmetry_multiplicity
 _atom_site_fract_x
 _atom_site_fract_y
 _atom_site_fract_z
 _atom_site_occupancy
  Lu  Lu0  1  0.00000000  0.50000000  0.00000000  1
  Lu  Lu1  1  0.50000000  0.50000000  0.50000000  1
  Nb  Nb0  1  0.00000000  0.00000000  0.50000000  1
  Nb  Nb1  1  0.50000000  0.00000000  0.00000000  1
  Se  Se0  1  0.32230421  0.68999356  0.18434087  1
  Se  Se1  1  0.82230421  0.31000644  0.31565913  1
  Se  Se2  1  0.69999465  0.81719415  0.69308278  1
  Se  Se3  1  0.19999465  0.18280585  0.80691722  1
  Se  Se4  1  0.67769579  0.31000644  0.81565913  1
  Se  Se5  1  0.17769579  0.68999356  0.68434087  1
  Se  Se6  1  0.30000535  0.18280585  0.30691722  1
  Se  Se7  1  0.80000535  0.81719415  0.19308278  1
  O  O0  1  0.23264624  0.56828521  0.06217561  1
  O  O1  1  0.73264624  0.43171479  0.43782439  1
  O  O2  1  0.78311796  0.95902100  0.57903676  1
  O  O3  1  0.28311796  0.04097900  0.92096324  1
  O  O4  1  0.56658911  0.93664465  0.78507914  1
  O  O5  1  0.45836509  0.57921071  0.26591998  1
  O  O6  1  0.95836509  0.42078929  0.23408002  1
  O  O7  1  0.06658911  0.06335535  0.71492086  1
  O  O8  1  0.94170323  0.21410899  0.45219588  1
  O  O9  1  0.58651489  0.73030827  0.56365462  1
  O  O10  1  0.44170323  0.78589101  0.04780412  1
  O  O11  1  0.08651489  0.26969173  0.93634538  1
  O  O12  1  0.76735376  0.43171479  0.93782439  1
  O  O13  1  0.26735376  0.56828521  0.56217561  1
  O  O14  1  0.21688204  0.04097900  0.42096324  1
  O  O15  1  0.71688204  0.95902100  0.07903676  1
  O  O16  1  0.43341089  0.06335535  0.21492086  1
  O  O17  1  0.54163491  0.42078929  0.73408002  1
  O  O18  1  0.04163491  0.57921071  0.76591998  1
  O  O19  1  0.93341089  0.93664465  0.28507914  1
  O  O20  1  0.05829677  0.78589101  0.54780412  1
  O  O21  1  0.41348511  0.26969173  0.43634538  1
  O  O22  1  0.55829677  0.21410899  0.95219588  1
  O  O23  1  0.91348511  0.73030827  0.06365462  1
loop_
_geom_bond_atom_site_label_1
_geom_bond_atom_site_label_2
_geom_bond_distance
_geom_bond_site_symmetry_2
Lu0 O0 2.152775 1_555
Lu0 O12 2.152775 1_454
Lu0 O6 2.162793 1_455
Lu0 O18 2.162793 1_554
Lu0 O23 2.194155 1_455
Lu0 O11 2.194155 1_554
Lu1 O1 2.152775 1_555
Lu1 O13 2.152775 1_555
Lu1 O17 2.162793 1_555
Lu1 O5 2.162793 1_555
Lu1 O9 2.194155 1_555
Lu1 O21 2.194155 1_555
Nb0 O8 1.968587 1_455
Nb0 O20 1.968587 1_545
Nb0 O7 2.006773 1_555
Nb0 O19 2.006773 1_445
Nb0 O14 2.018084 1_555
Nb0 O2 2.018084 1_445
Nb1 O22 1.968587 1_554
Nb1 O10 1.968587 1_545
Nb1 O16 2.006773 1_555
Nb1 O4 2.006773 1_544
Nb1 O15 2.018084 1_545
Nb1 O3 2.018084 1_554
O0 Se0 1.670302 1_555
O1 Se1 1.670302 1_555
O2 Se2 1.733581 1_555
O3 Se3 1.733581 1_555
O4 Se2 1.731611 1_555
O5 Se0 1.671984 1_555
O6 Se1 1.671984 1_555
O7 Se3 1.731611 1_555
O8 Se1 1.772557 1_555
O9 Se2 1.656172 1_555
O10 Se0 1.772557 1_555
O11 Se3 1.656172 1_555
O12 Se4 1.670302 1_555
O13 Se5 1.670302 1_555
O14 Se6 1.733581 1_555
O15 Se7 1.733581 1_555
O16 Se6 1.731611 1_555
O17 Se4 1.671984 1_555
O18 Se5 1.671984 1_555
O19 Se7 1.731611 1_555
O20 Se5 1.772557 1_555
O21 Se6 1.656172 1_555
O22 Se4 1.772557 1_555
O23 Se7 1.656172 1_555
