# generated using pymatgen
data_Ta5Nb5(B2As)2
_symmetry_space_group_name_H-M   'P 1'
_cell_length_a   7.32251280
_cell_length_b   7.32191137
_cell_length_c   7.32008117
_cell_angle_alpha   129.38370688
_cell_angle_beta   129.38576684
_cell_angle_gamma   74.39830741
_symmetry_Int_Tables_number   1
_chemical_formula_structural   Ta5Nb5(B2As)2
_chemical_formula_sum   'Ta5 Nb5 B4 As2'
_cell_volume   228.50492049
_cell_formula_units_Z   1
loop_
 _symmetry_equiv_pos_site_id
 _symmetry_equiv_pos_as_xyz
  1  'x, y, z'
loop_
 _atom_site_type_symbol
 _atom_site_label
 _atom_site_symmetry_multiplicity
 _atom_site_fract_x
 _atom_site_fract_y
 _atom_site_fract_z
 _atom_site_occupancy
  Ta  Ta0  1  0.80372693  0.97138137  0.49997206  1
  Ta  Ta1  1  0.97188077  0.47218373  0.16857098  1
  Ta  Ta2  1  0.30309600  0.80350858  0.83098273  1
  Ta  Ta3  1  0.49942000  0.49897694  0.99935451  1
  Ta  Ta4  1  0.00006290  0.99960895  0.00066300  1
  Nb  Nb0  1  0.52746244  0.69530350  0.50011002  1
  Nb  Nb1  1  0.19560806  0.02709962  0.50005875  1
  Nb  Nb2  1  0.02810651  0.52807085  0.83253356  1
  Nb  Nb3  1  0.69576779  0.19563525  0.16790039  1
  Nb  Nb4  1  0.47206323  0.30469188  0.49989430  1
  B  B0  1  0.88346388  0.61985138  0.50002818  1
  B  B1  1  0.11749922  0.38464794  0.49992193  1
  B  B2  1  0.38403560  0.88232608  0.26368151  1
  B  B3  1  0.61996825  0.11835996  0.73632516  1
  As  As0  1  0.24846846  0.24866117  0.99898236  1
  As  As1  1  0.74937294  0.74969379  0.00102155  1
loop_
_geom_bond_atom_site_label_1
_geom_bond_atom_site_label_2
_geom_bond_distance
_geom_bond_site_symmetry_2
B0 B1 2.077290 1_655
B0 Ta2 2.400103 1_655
B0 Ta1 2.400632 1_555
B0 Nb2 2.432861 1_655
B0 Nb3 2.433133 1_555
B0 Ta0 2.481612 1_555
B0 Ta4 2.503077 1_656
B0 Ta3 2.503268 1_554
B0 Nb0 2.515483 1_555
B1 Ta1 2.398721 1_455
B1 Ta2 2.399182 1_555
B1 Nb3 2.421614 1_455
B1 Nb2 2.422275 1_555
B1 Nb4 2.503286 1_555
B1 Ta4 2.506882 1_545
B1 Ta3 2.507532 1_555
B1 Nb1 2.525453 1_555
B2 B3 2.091459 1_565
B2 Ta0 2.400454 1_555
B2 Nb4 2.416808 1_565
B2 Nb0 2.429113 1_555
B2 Nb1 2.436562 1_565
B2 Ta2 2.489708 1_554
B2 Ta3 2.498627 1_554
B2 Ta4 2.505814 1_555
B2 Nb2 2.508038 1_554
B3 Ta0 2.403074 1_545
B3 Nb4 2.419183 1_555
B3 Nb0 2.426711 1_545
B3 Nb1 2.433829 1_555
B3 Ta1 2.490895 1_556
B3 Ta4 2.499060 1_646
B3 Ta3 2.505439 1_555
B3 Nb3 2.506758 1_556
As0 Ta0 2.668146 1_445
As0 Nb4 2.669704 1_556
As0 Ta2 2.670622 1_545
As0 Nb1 2.673001 1_555
As0 Ta1 2.674142 1_456
As0 Nb2 2.676960 1_555
As0 Nb0 2.680328 1_556
As0 Nb3 2.681995 1_556
As0 Ta4 2.911197 1_546
As0 Ta3 2.921437 1_555
As1 Ta0 2.666875 1_555
As1 Ta1 2.670817 1_555
As1 Nb4 2.670958 1_554
As1 Ta2 2.674189 1_554
As1 Nb1 2.674473 1_665
As1 Nb3 2.676748 1_565
As1 Nb0 2.679071 1_554
As1 Nb2 2.682068 1_654
As1 Ta3 2.910410 1_554
As1 Ta4 2.921836 1_655
