# generated using pymatgen
data_ZrNi3GePd
_symmetry_space_group_name_H-M   'P 1'
_cell_length_a   4.76885895
_cell_length_b   4.76885900
_cell_length_c   4.76885990
_cell_angle_alpha   61.65942602
_cell_angle_beta   61.65942105
_cell_angle_gamma   61.65943224
_symmetry_Int_Tables_number   1
_chemical_formula_structural   ZrNi3GePd
_chemical_formula_sum   'Zr1 Ni3 Ge1 Pd1'
_cell_volume   79.54161455
_cell_formula_units_Z   1
loop_
 _symmetry_equiv_pos_site_id
 _symmetry_equiv_pos_as_xyz
  1  'x, y, z'
loop_
 _atom_site_type_symbol
 _atom_site_label
 _atom_site_symmetry_multiplicity
 _atom_site_fract_x
 _atom_site_fract_y
 _atom_site_fract_z
 _atom_site_occupancy
  Zr  Zr0  1  0.74596911  0.74596911  0.74596911  1
  Ni  Ni0  1  0.62485895  0.12645957  0.12645957  1
  Ni  Ni1  1  0.12645957  0.62485895  0.12645957  1
  Ni  Ni2  1  0.12645957  0.12645957  0.62485895  1
  Ge  Ge0  1  0.12845066  0.12845066  0.12845066  1
  Pd  Pd0  1  0.49780213  0.49780213  0.49780213  1
loop_
_geom_bond_atom_site_label_1
_geom_bond_atom_site_label_2
_geom_bond_distance
_geom_bond_site_symmetry_2
Ni0 Ni2 2.436160 1_555
Ni0 Ni1 2.436161 1_555
Ni0 Ni2 2.451808 1_654
Ni0 Ni1 2.451808 1_645
Ni0 Pd0 2.753018 1_555
Ni0 Zr0 2.808856 1_554
Ni0 Zr0 2.808857 1_545
Ni0 Zr0 2.838025 1_544
Ni0 Pd0 2.855940 1_545
Ni0 Pd0 2.855941 1_554
Ni1 Ni2 2.436161 1_555
Ni1 Ni2 2.451808 1_564
Ni1 Pd0 2.753018 1_555
Ni1 Zr0 2.808856 1_554
Ni1 Zr0 2.808857 1_455
Ni1 Zr0 2.838025 1_454
Ni1 Pd0 2.855940 1_455
Ni1 Pd0 2.855941 1_554
Ni2 Pd0 2.753017 1_555
Ni2 Zr0 2.808857 1_455
Ni2 Zr0 2.808857 1_545
Ni2 Zr0 2.838025 1_445
Ni2 Pd0 2.855941 1_545
Ni2 Pd0 2.855941 1_455
Ge0 Ni0 2.358325 1_555
Ge0 Ni1 2.358325 1_555
Ge0 Ni2 2.358326 1_555
Ge0 Ni0 2.410611 1_455
Ge0 Ni1 2.410611 1_545
Ge0 Ni2 2.410612 1_554
Ge0 Pd0 2.852476 1_554
Ge0 Pd0 2.852477 1_455
Ge0 Pd0 2.852477 1_545
Ge0 Zr0 2.878428 1_445
Ge0 Zr0 2.878428 1_544
Ge0 Zr0 2.878429 1_454
Pd0 Zr0 2.862017 1_555
Pd0 Zr0 2.988106 1_455
Pd0 Zr0 2.988106 1_545
Pd0 Zr0 2.988107 1_554
