# generated using pymatgen
data_Zr3InIr2N
_symmetry_space_group_name_H-M   'P 1'
_cell_length_a   8.70468160
_cell_length_b   8.70468229
_cell_length_c   8.70468125
_cell_angle_alpha   60.00000022
_cell_angle_beta   59.99999759
_cell_angle_gamma   59.99999673
_symmetry_Int_Tables_number   1
_chemical_formula_structural   Zr3InIr2N
_chemical_formula_sum   'Zr12 In4 Ir8 N4'
_cell_volume   466.38403069
_cell_formula_units_Z   4
loop_
 _symmetry_equiv_pos_site_id
 _symmetry_equiv_pos_as_xyz
  1  'x, y, z'
loop_
 _atom_site_type_symbol
 _atom_site_label
 _atom_site_symmetry_multiplicity
 _atom_site_fract_x
 _atom_site_fract_y
 _atom_site_fract_z
 _atom_site_occupancy
  Zr  Zr0  1  0.81121567  0.81121567  0.18878433  1
  Zr  Zr1  1  0.18878433  0.18878433  0.81121567  1
  Zr  Zr2  1  0.81121567  0.18878433  0.81121567  1
  Zr  Zr3  1  0.18878433  0.81121567  0.18878433  1
  Zr  Zr4  1  0.18878433  0.81121567  0.81121567  1
  Zr  Zr5  1  0.81121567  0.18878433  0.18878433  1
  Zr  Zr6  1  0.43878433  0.43878433  0.06121567  1
  Zr  Zr7  1  0.06121567  0.06121567  0.43878433  1
  Zr  Zr8  1  0.43878433  0.06121567  0.43878433  1
  Zr  Zr9  1  0.06121567  0.43878433  0.06121567  1
  Zr  Zr10  1  0.06121567  0.43878433  0.43878433  1
  Zr  Zr11  1  0.43878433  0.06121567  0.06121567  1
  In  In0  1  0.12500000  0.62500000  0.62500000  1
  In  In1  1  0.62500000  0.12500000  0.62500000  1
  In  In2  1  0.62500000  0.62500000  0.12500000  1
  In  In3  1  0.62500000  0.62500000  0.62500000  1
  Ir  Ir0  1  0.77572914  0.40809029  0.40809029  1
  Ir  Ir1  1  0.40809029  0.77572914  0.40809029  1
  Ir  Ir2  1  0.40809029  0.40809029  0.77572914  1
  Ir  Ir3  1  0.40809029  0.40809029  0.40809029  1
  Ir  Ir4  1  0.47427086  0.84190971  0.84190971  1
  Ir  Ir5  1  0.84190971  0.47427086  0.84190971  1
  Ir  Ir6  1  0.84190971  0.84190971  0.47427086  1
  Ir  Ir7  1  0.84190971  0.84190971  0.84190971  1
  N  N0  1  0.62500000  0.12500000  0.12500000  1
  N  N1  1  0.12500000  0.62500000  0.12500000  1
  N  N2  1  0.12500000  0.12500000  0.62500000  1
  N  N3  1  0.12500000  0.12500000  0.12500000  1
loop_
_geom_bond_atom_site_label_1
_geom_bond_atom_site_label_2
_geom_bond_distance
_geom_bond_site_symmetry_2
In0 Ir7 2.731655 1_455
In0 Ir3 2.731655 1_555
In0 Ir2 2.731655 1_555
In0 Ir6 2.731655 1_455
In0 Ir5 2.731655 1_455
In0 Ir1 2.731655 1_555
In0 Zr9 3.160801 1_556
In0 Zr3 3.160801 1_555
In0 Zr4 3.160801 1_555
In0 Zr10 3.160801 1_555
In0 Zr7 3.160801 1_565
In0 Zr1 3.160801 1_555
In1 Ir7 2.731655 1_545
In1 Ir3 2.731655 1_555
In1 Ir2 2.731655 1_555
In1 Ir6 2.731655 1_545
In1 Ir0 2.731655 1_555
In1 Ir4 2.731655 1_545
In1 Zr11 3.160801 1_556
In1 Zr5 3.160801 1_555
In1 Zr7 3.160801 1_655
In1 Zr1 3.160801 1_555
In1 Zr2 3.160801 1_555
In1 Zr8 3.160801 1_555
In2 Ir5 2.731655 1_554
In2 Ir1 2.731655 1_555
In2 Ir0 2.731655 1_555
In2 Ir4 2.731655 1_554
In2 Ir7 2.731655 1_554
In2 Ir3 2.731655 1_555
In2 Zr9 3.160801 1_655
In2 Zr3 3.160801 1_555
In2 Zr0 3.160801 1_555
In2 Zr6 3.160801 1_555
In2 Zr11 3.160801 1_565
In2 Zr5 3.160801 1_555
In3 Ir5 2.731655 1_555
In3 Ir1 2.731655 1_555
In3 Ir4 2.731655 1_555
In3 Ir0 2.731655 1_555
In3 Ir6 2.731655 1_555
In3 Ir2 2.731655 1_555
In3 Zr10 3.160801 1_655
In3 Zr4 3.160801 1_555
In3 Zr6 3.160801 1_556
In3 Zr0 3.160801 1_555
In3 Zr8 3.160801 1_565
In3 Zr2 3.160801 1_555
Ir0 Zr9 2.778067 1_655
Ir0 Zr7 2.778068 1_655
Ir0 Zr10 2.778068 1_655
Ir0 Zr2 3.138273 1_555
Ir0 Zr5 3.138274 1_555
Ir0 Zr0 3.138274 1_555
Ir1 Zr7 2.778067 1_565
Ir1 Zr11 2.778068 1_565
Ir1 Zr8 2.778068 1_565
Ir1 Zr4 3.138273 1_555
Ir1 Zr0 3.138274 1_555
Ir1 Zr3 3.138274 1_555
Ir2 Zr9 2.778067 1_556
Ir2 Zr6 2.778067 1_556
Ir2 Zr11 2.778068 1_556
Ir2 Zr2 3.138273 1_555
Ir2 Zr4 3.138274 1_555
Ir2 Zr1 3.138274 1_555
Ir3 Zr6 2.778067 1_555
Ir3 Zr10 2.778067 1_555
Ir3 Zr8 2.778068 1_555
Ir3 Zr5 3.138273 1_555
Ir3 Zr1 3.138274 1_555
Ir3 Zr3 3.138274 1_555
Ir4 Zr3 2.778067 1_556
Ir4 Zr1 2.778068 1_565
Ir4 Zr4 2.778068 1_555
Ir4 Zr8 3.138273 1_565
Ir4 Zr11 3.138274 1_566
Ir4 Zr6 3.138274 1_556
Ir5 Zr1 2.778067 1_655
Ir5 Zr5 2.778068 1_556
Ir5 Zr2 2.778068 1_555
Ir5 Zr10 3.138273 1_655
Ir5 Zr6 3.138274 1_556
Ir5 Zr9 3.138274 1_656
Ir6 Zr3 2.778067 1_655
Ir6 Zr0 2.778067 1_555
Ir6 Zr5 2.778068 1_565
Ir6 Zr8 3.138273 1_565
Ir6 Zr10 3.138274 1_655
Ir6 Zr7 3.138274 1_665
Ir7 Zr0 2.778067 1_556
Ir7 Zr4 2.778067 1_655
Ir7 Zr2 2.778068 1_565
Ir7 Zr11 3.138273 1_566
Ir7 Zr7 3.138274 1_665
Ir7 Zr9 3.138274 1_656
N0 Zr8 2.313495 1_555
N0 Zr2 2.313495 1_554
N0 Zr5 2.313495 1_555
N0 Zr11 2.313495 1_555
N0 Zr6 2.313496 1_555
N0 Zr0 2.313496 1_545
N1 Zr6 2.313495 1_555
N1 Zr0 2.313495 1_455
N1 Zr10 2.313495 1_555
N1 Zr4 2.313495 1_554
N1 Zr3 2.313496 1_555
N1 Zr9 2.313496 1_555
N2 Zr8 2.313495 1_555
N2 Zr2 2.313495 1_455
N2 Zr1 2.313495 1_555
N2 Zr7 2.313495 1_555
N2 Zr10 2.313496 1_555
N2 Zr4 2.313496 1_545
N3 Zr7 2.313495 1_555
N3 Zr1 2.313495 1_554
N3 Zr11 2.313495 1_555
N3 Zr5 2.313495 1_455
N3 Zr9 2.313496 1_555
N3 Zr3 2.313496 1_545
