# generated using pymatgen
data_BaLu(Pd3O4)2
_symmetry_space_group_name_H-M   'P 1'
_cell_length_a   5.86307306
_cell_length_b   5.86307306
_cell_length_c   5.86307306
_cell_angle_alpha   90.00000000
_cell_angle_beta   90.00000000
_cell_angle_gamma   90.00000000
_symmetry_Int_Tables_number   1
_chemical_formula_structural   BaLu(Pd3O4)2
_chemical_formula_sum   'Ba1 Lu1 Pd6 O8'
_cell_volume   201.54680542
_cell_formula_units_Z   1
loop_
 _symmetry_equiv_pos_site_id
 _symmetry_equiv_pos_as_xyz
  1  'x, y, z'
loop_
 _atom_site_type_symbol
 _atom_site_label
 _atom_site_symmetry_multiplicity
 _atom_site_fract_x
 _atom_site_fract_y
 _atom_site_fract_z
 _atom_site_occupancy
  Ba  Ba0  1  0.50000000  0.50000000  0.50000000  1
  Lu  Lu0  1  0.00000000  0.00000000  0.00000000  1
  Pd  Pd0  1  0.23992614  0.00000000  0.50000000  1
  Pd  Pd1  1  0.76007386  0.00000000  0.50000000  1
  Pd  Pd2  1  0.50000000  0.23992614  0.00000000  1
  Pd  Pd3  1  0.50000000  0.76007386  0.00000000  1
  Pd  Pd4  1  0.00000000  0.50000000  0.23992614  1
  Pd  Pd5  1  0.00000000  0.50000000  0.76007386  1
  O  O0  1  0.23094614  0.23094614  0.23094614  1
  O  O1  1  0.76905386  0.76905386  0.76905386  1
  O  O2  1  0.76905386  0.76905386  0.23094614  1
  O  O3  1  0.76905386  0.23094614  0.76905386  1
  O  O4  1  0.23094614  0.23094614  0.76905386  1
  O  O5  1  0.23094614  0.76905386  0.23094614  1
  O  O6  1  0.23094614  0.76905386  0.76905386  1
  O  O7  1  0.76905386  0.23094614  0.23094614  1
loop_
_geom_bond_atom_site_label_1
_geom_bond_atom_site_label_2
_geom_bond_distance
_geom_bond_site_symmetry_2
Ba0 O1 2.732280 1_555
Ba0 O6 2.732280 1_555
Ba0 O2 2.732280 1_555
Ba0 O3 2.732280 1_555
Ba0 O4 2.732280 1_555
Ba0 O7 2.732280 1_555
Ba0 O5 2.732280 1_555
Ba0 O0 2.732280 1_555
Lu0 O0 2.345290 1_555
Lu0 O7 2.345290 1_455
Lu0 O5 2.345290 1_545
Lu0 O4 2.345290 1_554
Lu0 O2 2.345290 1_445
Lu0 O6 2.345290 1_544
Lu0 O3 2.345290 1_454
Lu0 O1 2.345290 1_444
O0 Pd4 2.079588 1_555
O0 Pd2 2.079588 1_555
O0 Pd0 2.079588 1_555
O1 Pd1 2.079588 1_565
O1 Pd5 2.079588 1_655
O1 Pd3 2.079588 1_556
O2 Pd3 2.079588 1_555
O2 Pd4 2.079588 1_655
O2 Pd1 2.079588 1_565
O3 Pd1 2.079588 1_555
O3 Pd2 2.079588 1_556
O3 Pd5 2.079588 1_655
O4 Pd0 2.079588 1_555
O4 Pd5 2.079588 1_555
O4 Pd2 2.079588 1_556
O5 Pd4 2.079588 1_555
O5 Pd3 2.079588 1_555
O5 Pd0 2.079588 1_565
O6 Pd5 2.079588 1_555
O6 Pd0 2.079588 1_565
O6 Pd3 2.079588 1_556
O7 Pd2 2.079588 1_555
O7 Pd1 2.079588 1_555
O7 Pd4 2.079588 1_655
