# generated using pymatgen
data_Rb4Ga3FeO8
_symmetry_space_group_name_H-M   'P 1'
_cell_length_a   5.67233462
_cell_length_b   5.71506874
_cell_length_c   8.25220590
_cell_angle_alpha   90.11422177
_cell_angle_beta   89.95821384
_cell_angle_gamma   89.94399746
_symmetry_Int_Tables_number   1
_chemical_formula_structural   Rb4Ga3FeO8
_chemical_formula_sum   'Rb4 Ga3 Fe1 O8'
_cell_volume   267.51748338
_cell_formula_units_Z   1
loop_
 _symmetry_equiv_pos_site_id
 _symmetry_equiv_pos_as_xyz
  1  'x, y, z'
loop_
 _atom_site_type_symbol
 _atom_site_label
 _atom_site_symmetry_multiplicity
 _atom_site_fract_x
 _atom_site_fract_y
 _atom_site_fract_z
 _atom_site_occupancy
  Rb  Rb0  1  0.51458276  0.01346414  0.37739399  1
  Rb  Rb1  1  0.01495922  0.98653882  0.61771926  1
  Rb  Rb2  1  0.01411995  0.48604918  0.87771170  1
  Rb  Rb3  1  0.51358887  0.51235195  0.12767740  1
  Ga  Ga0  1  0.50138641  0.53130124  0.63023918  1
  Ga  Ga1  1  0.49921804  0.03094205  0.87521875  1
  Ga  Ga2  1  0.99902523  0.96955226  0.11898392  1
  Fe  Fe0  1  0.00168061  0.46949009  0.37561905  1
  O  O0  1  0.68935402  0.48322153  0.45000329  1
  O  O1  1  0.19269464  0.50983618  0.55825832  1
  O  O2  1  0.18512452  0.00653484  0.93706001  1
  O  O3  1  0.68485548  0.98912471  0.05690275  1
  O  O4  1  0.05749142  0.17084462  0.28914516  1
  O  O5  1  0.55837601  0.83369758  0.70256625  1
  O  O6  1  0.55220168  0.33397638  0.80325100  1
  O  O7  1  0.04934214  0.67307544  0.20225296  1
loop_
_geom_bond_atom_site_label_1
_geom_bond_atom_site_label_2
_geom_bond_distance
_geom_bond_site_symmetry_2
Ga0 O6 1.843812 1_555
Ga0 O0 1.849323 1_555
Ga0 O1 1.853522 1_555
Ga0 O5 1.855998 1_555
Ga1 O5 1.845384 1_545
Ga1 O3 1.848524 1_546
Ga1 O6 1.856674 1_555
Ga1 O2 1.858383 1_555
Ga2 O4 1.843958 1_665
Ga2 O2 1.847217 1_664
Ga2 O7 1.851639 1_655
Ga2 O3 1.857939 1_555
Fe0 O7 1.865553 1_555
Fe0 O1 1.870881 1_555
Fe0 O4 1.875180 1_555
Fe0 O0 1.876044 1_455
O0 Rb3 2.846418 1_555
O0 Rb0 2.923879 1_555
O0 Rb0 3.244567 1_565
O1 Rb2 2.826985 1_555
O1 Rb1 2.944157 1_555
O1 Rb1 3.195681 1_545
O2 Rb1 2.809286 1_545
O2 Rb2 2.948170 1_555
O2 Rb2 3.166952 1_545
O3 Rb0 2.818067 1_565
O3 Rb3 2.952974 1_555
O3 Rb3 3.195808 1_565
O4 Rb0 2.839476 1_555
O4 Rb1 2.920726 1_545
O4 Rb0 3.290559 1_455
O5 Rb1 2.822234 1_655
O5 Rb0 2.886044 1_565
O5 Rb1 3.279484 1_555
O6 Rb2 2.828921 1_655
O6 Rb3 2.870995 1_556
O6 Rb2 3.230892 1_555
O7 Rb3 2.854420 1_555
O7 Rb2 2.888743 1_554
O7 Rb3 3.234770 1_455
