# generated using pymatgen
data_K2Ni2(SeO3)3
_symmetry_space_group_name_H-M   'P 1'
_cell_length_a   5.45163059
_cell_length_b   5.45163130
_cell_length_c   17.39414573
_cell_angle_alpha   90.00000000
_cell_angle_beta   90.00000000
_cell_angle_gamma   120.00001315
_symmetry_Int_Tables_number   1
_chemical_formula_structural   K2Ni2(SeO3)3
_chemical_formula_sum   'K4 Ni4 Se6 O18'
_cell_volume   447.69946340
_cell_formula_units_Z   2
loop_
 _symmetry_equiv_pos_site_id
 _symmetry_equiv_pos_as_xyz
  1  'x, y, z'
loop_
 _atom_site_type_symbol
 _atom_site_label
 _atom_site_symmetry_multiplicity
 _atom_site_fract_x
 _atom_site_fract_y
 _atom_site_fract_z
 _atom_site_occupancy
  K  K0  1  0.66666700  0.33333300  0.52920940  1
  K  K1  1  0.33333300  0.66666700  0.45747849  1
  K  K2  1  0.33333300  0.66666700  0.02920940  1
  K  K3  1  0.66666700  0.33333300  0.95747849  1
  Ni  Ni0  1  0.66666700  0.33333300  0.16951852  1
  Ni  Ni1  1  0.33333300  0.66666700  0.83576570  1
  Ni  Ni2  1  0.33333300  0.66666700  0.66951852  1
  Ni  Ni3  1  0.66666700  0.33333300  0.33576570  1
  Se  Se0  1  0.00000000  0.00000000  0.64082091  1
  Se  Se1  1  0.00000000  0.00000000  0.35734112  1
  Se  Se2  1  0.00000000  0.00000000  0.14082091  1
  Se  Se3  1  0.00000000  0.00000000  0.85734112  1
  Se  Se4  1  0.66666700  0.33333300  0.71444550  1
  Se  Se5  1  0.33333300  0.66666700  0.21444550  1
  O  O0  1  0.83731716  0.16268284  0.09721584  1
  O  O1  1  0.32536569  0.16268284  0.09721584  1
  O  O2  1  0.83731716  0.67463431  0.09721584  1
  O  O3  1  0.16077056  0.83922944  0.90317936  1
  O  O4  1  0.67845888  0.83922944  0.90317936  1
  O  O5  1  0.16077056  0.32154112  0.90317936  1
  O  O6  1  0.16268284  0.83731716  0.59721584  1
  O  O7  1  0.67463431  0.83731716  0.59721584  1
  O  O8  1  0.16268284  0.32536569  0.59721584  1
  O  O9  1  0.83922944  0.16077056  0.40317936  1
  O  O10  1  0.32154112  0.16077056  0.40317936  1
  O  O11  1  0.83922944  0.67845888  0.40317936  1
  O  O12  1  0.49984572  0.50015428  0.75311392  1
  O  O13  1  0.00030855  0.50015428  0.75311392  1
  O  O14  1  0.49984572  0.99969145  0.75311392  1
  O  O15  1  0.50015428  0.49984572  0.25311392  1
  O  O16  1  0.99969145  0.49984572  0.25311392  1
  O  O17  1  0.50015428  0.00030855  0.25311392  1
loop_
_geom_bond_atom_site_label_1
_geom_bond_atom_site_label_2
_geom_bond_distance
_geom_bond_site_symmetry_2
K0 O9 2.731426 1_555
K0 O10 2.731429 1_555
K0 O11 2.731429 1_555
K0 O8 2.971659 1_655
K0 O7 2.971659 1_545
K0 O6 2.971661 1_545
K0 O6 2.971661 1_655
K0 O8 2.971664 1_555
K0 O7 2.971664 1_555
K0 Se4 3.222024 1_555
K1 O11 2.885344 1_455
K1 O10 2.885344 1_565
K1 O9 2.885346 1_565
K1 O9 2.885346 1_455
K1 O11 2.885349 1_555
K1 O10 2.885349 1_555
K1 O6 2.916225 1_555
K1 O7 2.916227 1_555
K1 O8 2.916228 1_555
K2 O3 2.731426 1_554
K2 O4 2.731429 1_554
K2 O5 2.731429 1_554
K2 O2 2.971659 1_455
K2 O1 2.971659 1_565
K2 O0 2.971661 1_565
K2 O0 2.971661 1_455
K2 O2 2.971664 1_555
K2 O1 2.971664 1_555
K2 Se5 3.222024 1_555
K3 O5 2.885344 1_655
K3 O4 2.885344 1_545
K3 O3 2.885346 1_545
K3 O3 2.885346 1_655
K3 O5 2.885349 1_555
K3 O4 2.885349 1_555
K3 O0 2.916225 1_556
K3 O1 2.916227 1_556
K3 O2 2.916228 1_556
Ni0 O0 2.044055 1_555
Ni0 O1 2.044059 1_555
Ni0 O2 2.044059 1_555
Ni0 O16 2.141593 1_555
Ni0 O17 2.141594 1_555
Ni0 O15 2.141597 1_555
Ni1 O3 2.007489 1_555
Ni1 O4 2.007492 1_555
Ni1 O5 2.007492 1_555
Ni1 O13 2.130483 1_555
Ni1 O14 2.130483 1_555
Ni1 O12 2.130487 1_555
Ni2 O6 2.044055 1_555
Ni2 O7 2.044059 1_555
Ni2 O8 2.044059 1_555
Ni2 O13 2.141593 1_555
Ni2 O14 2.141594 1_555
Ni2 O12 2.141597 1_555
Ni3 O9 2.007489 1_555
Ni3 O10 2.007492 1_555
Ni3 O11 2.007492 1_555
Ni3 O16 2.130483 1_555
Ni3 O17 2.130483 1_555
Ni3 O15 2.130487 1_555
O0 Se2 1.713180 1_655
O1 Se2 1.713180 1_555
O2 Se2 1.713180 1_665
O3 Se3 1.714722 1_565
O4 Se3 1.714721 1_665
O5 Se3 1.714721 1_555
O6 Se0 1.713180 1_565
O7 Se0 1.713180 1_665
O8 Se0 1.713180 1_555
O9 Se1 1.714722 1_655
O10 Se1 1.714721 1_555
O11 Se1 1.714721 1_665
O12 Se4 1.712800 1_555
O13 Se4 1.712795 1_455
O14 Se4 1.712796 1_565
O15 Se5 1.712800 1_555
O16 Se5 1.712795 1_655
O17 Se5 1.712796 1_545
