# generated using pymatgen
data_K2Ca2TeO6
_symmetry_space_group_name_H-M   'P 1'
_cell_length_a   5.74301656
_cell_length_b   5.74301670
_cell_length_c   6.52496467
_cell_angle_alpha   98.90037706
_cell_angle_beta   98.90037420
_cell_angle_gamma   118.51814315
_symmetry_Int_Tables_number   1
_chemical_formula_structural   K2Ca2TeO6
_chemical_formula_sum   'K2 Ca2 Te1 O6'
_cell_volume   180.22585488
_cell_formula_units_Z   1
loop_
 _symmetry_equiv_pos_site_id
 _symmetry_equiv_pos_as_xyz
  1  'x, y, z'
loop_
 _atom_site_type_symbol
 _atom_site_label
 _atom_site_symmetry_multiplicity
 _atom_site_fract_x
 _atom_site_fract_y
 _atom_site_fract_z
 _atom_site_occupancy
  K  K0  1  0.82807571  0.17192429  0.50000000  1
  K  K1  1  0.17192429  0.82807571  0.50000000  1
  Ca  Ca0  1  0.66338033  0.33661967  0.00000000  1
  Ca  Ca1  1  0.33661967  0.66338033  0.00000000  1
  Te  Te0  1  0.00000000  0.00000000  0.00000000  1
  O  O0  1  0.78498029  0.78498029  0.17610316  1
  O  O1  1  0.34014225  0.05382687  0.17407830  1
  O  O2  1  0.05382687  0.34014225  0.17407830  1
  O  O3  1  0.94617213  0.65985675  0.82592070  1
  O  O4  1  0.65985675  0.94617213  0.82592070  1
  O  O5  1  0.21501871  0.21501871  0.82389584  1
loop_
_geom_bond_atom_site_label_1
_geom_bond_atom_site_label_2
_geom_bond_distance
_geom_bond_site_symmetry_2
K0 O5 2.706613 1_655
K0 O0 2.706619 1_545
K0 O4 2.725734 1_545
K0 O2 2.725736 1_655
K0 O3 2.954622 1_555
K0 O1 2.954628 1_555
K1 O5 2.706613 1_565
K1 O0 2.706619 1_455
K1 O3 2.725734 1_455
K1 O1 2.725736 1_565
K1 O4 2.954622 1_555
K1 O2 2.954628 1_555
Ca0 O2 2.340966 1_655
Ca0 O4 2.340970 1_544
Ca0 O0 2.357426 1_555
Ca0 O5 2.357431 1_554
Ca0 O3 2.391303 1_554
Ca0 O1 2.391304 1_555
Ca1 O1 2.340966 1_565
Ca1 O3 2.340970 1_454
Ca1 O0 2.357426 1_555
Ca1 O5 2.357431 1_554
Ca1 O4 2.391303 1_554
Ca1 O2 2.391304 1_555
O0 Te0 1.947353 1_665
O1 Te0 1.956993 1_555
O2 Te0 1.956993 1_555
O3 Te0 1.956998 1_666
O4 Te0 1.956998 1_666
O5 Te0 1.947354 1_556
