# generated using pymatgen
data_Ni6B6Ir6Pb
_symmetry_space_group_name_H-M   'P 1'
_cell_length_a   6.29582079
_cell_length_b   6.29582151
_cell_length_c   6.29582023
_cell_angle_alpha   103.59002839
_cell_angle_beta   103.59002660
_cell_angle_gamma   103.59003602
_symmetry_Int_Tables_number   1
_chemical_formula_structural   Ni6B6Ir6Pb
_chemical_formula_sum   'Ni6 B6 Ir6 Pb1'
_cell_volume   224.37507532
_cell_formula_units_Z   1
loop_
 _symmetry_equiv_pos_site_id
 _symmetry_equiv_pos_as_xyz
  1  'x, y, z'
loop_
 _atom_site_type_symbol
 _atom_site_label
 _atom_site_symmetry_multiplicity
 _atom_site_fract_x
 _atom_site_fract_y
 _atom_site_fract_z
 _atom_site_occupancy
  Ni  Ni0  1  0.79919839  0.54217062  0.54217062  1
  Ni  Ni1  1  0.54217062  0.54217062  0.79919839  1
  Ni  Ni2  1  0.54217062  0.79919839  0.54217062  1
  Ni  Ni3  1  0.20080161  0.45782938  0.45782938  1
  Ni  Ni4  1  0.45782938  0.45782938  0.20080161  1
  Ni  Ni5  1  0.45782938  0.20080161  0.45782938  1
  B  B0  1  0.34711044  0.76786791  0.76786791  1
  B  B1  1  0.76786791  0.76786791  0.34711044  1
  B  B2  1  0.76786791  0.34711044  0.76786791  1
  B  B3  1  0.65288956  0.23213209  0.23213209  1
  B  B4  1  0.23213209  0.23213209  0.65288956  1
  B  B5  1  0.23213209  0.65288956  0.23213209  1
  Ir  Ir0  1  0.86124963  0.13875037  0.50000000  1
  Ir  Ir1  1  0.13875037  0.50000000  0.86124963  1
  Ir  Ir2  1  0.50000000  0.86124963  0.13875037  1
  Ir  Ir3  1  0.86124963  0.50000000  0.13875037  1
  Ir  Ir4  1  0.50000000  0.13875037  0.86124963  1
  Ir  Ir5  1  0.13875037  0.86124963  0.50000000  1
  Pb  Pb0  1  0.00000000  0.00000000  0.00000000  1
loop_
_geom_bond_atom_site_label_1
_geom_bond_atom_site_label_2
_geom_bond_distance
_geom_bond_site_symmetry_2
Ni0 Pb0 3.299307 1_666
Ni1 Pb0 3.299307 1_666
Ni2 Pb0 3.299307 1_666
Ni3 Pb0 3.299307 1_555
Ni4 Pb0 3.299307 1_555
Ni5 Pb0 3.299307 1_555
B0 Ni2 2.098592 1_555
B0 Ni1 2.098593 1_555
B0 Ir1 2.167785 1_555
B0 Ir5 2.167785 1_555
B0 Ir2 2.181081 1_556
B0 Ir4 2.181081 1_565
B0 Ni3 2.233431 1_555
B1 Ni2 2.098592 1_555
B1 Ni0 2.098593 1_555
B1 Ir2 2.167785 1_555
B1 Ir3 2.167785 1_555
B1 Ir5 2.181081 1_655
B1 Ir0 2.181081 1_565
B1 Ni4 2.233431 1_555
B2 Ni0 2.098593 1_555
B2 Ni1 2.098593 1_555
B2 Ir4 2.167785 1_555
B2 Ir0 2.167785 1_555
B2 Ir3 2.181081 1_556
B2 Ir1 2.181081 1_655
B2 Ni5 2.233431 1_555
B3 Ni5 2.098592 1_555
B3 Ni4 2.098593 1_555
B3 Ir3 2.167785 1_555
B3 Ir0 2.167785 1_555
B3 Ir4 2.181081 1_554
B3 Ir2 2.181081 1_545
B3 Ni0 2.233431 1_555
B4 Ni5 2.098592 1_555
B4 Ni3 2.098593 1_555
B4 Ir4 2.167785 1_555
B4 Ir1 2.167785 1_555
B4 Ir0 2.181081 1_455
B4 Ir5 2.181081 1_545
B4 Ni1 2.233431 1_555
B5 Ni3 2.098593 1_555
B5 Ni4 2.098593 1_555
B5 Ir2 2.167785 1_555
B5 Ir5 2.167785 1_555
B5 Ir1 2.181081 1_554
B5 Ir3 2.181081 1_455
B5 Ni2 2.233431 1_555
Ir0 Pb0 3.434256 1_655
Ir0 Pb0 3.434257 1_656
Ir1 Pb0 3.434257 1_556
Ir1 Pb0 3.434257 1_566
Ir2 Pb0 3.434257 1_665
Ir2 Pb0 3.434257 1_565
Ir3 Pb0 3.434257 1_665
Ir3 Pb0 3.434257 1_655
Ir4 Pb0 3.434257 1_556
Ir4 Pb0 3.434257 1_656
Ir5 Pb0 3.434256 1_566
Ir5 Pb0 3.434257 1_565
