# generated using pymatgen
data_Lu4Ga4Ge2Ir7
_symmetry_space_group_name_H-M   'P 1'
_cell_length_a   7.15594953
_cell_length_b   7.15594857
_cell_length_c   7.16543325
_cell_angle_alpha   109.54875123
_cell_angle_beta   109.54874706
_cell_angle_gamma   109.26243621
_symmetry_Int_Tables_number   1
_chemical_formula_structural   Lu4Ga4Ge2Ir7
_chemical_formula_sum   'Lu4 Ga4 Ge2 Ir7'
_cell_volume   282.64412767
_cell_formula_units_Z   1
loop_
 _symmetry_equiv_pos_site_id
 _symmetry_equiv_pos_as_xyz
  1  'x, y, z'
loop_
 _atom_site_type_symbol
 _atom_site_label
 _atom_site_symmetry_multiplicity
 _atom_site_fract_x
 _atom_site_fract_y
 _atom_site_fract_z
 _atom_site_occupancy
  Lu  Lu0  1  0.00131099  0.00131099  0.51002857  1
  Lu  Lu1  1  0.00149407  0.50149407  0.00298815  1
  Lu  Lu2  1  0.50149407  0.00149407  0.00298815  1
  Lu  Lu3  1  0.50871758  0.50871758  0.51002857  1
  Ga  Ga0  1  0.68940399  0.68940399  0.00565931  1
  Ga  Ga1  1  0.30596704  0.00341251  0.30937954  1
  Ga  Ga2  1  0.00341251  0.30596704  0.30937954  1
  Ga  Ga3  1  0.31625532  0.31625532  0.00565931  1
  Ge  Ge0  1  0.68042687  0.00244659  0.68287346  1
  Ge  Ge1  1  0.00244659  0.68042687  0.68287346  1
  Ir  Ir0  1  0.74922936  0.24922936  0.49845872  1
  Ir  Ir1  1  0.75205937  0.49886912  0.25092849  1
  Ir  Ir2  1  0.49935054  0.25133460  0.75068514  1
  Ir  Ir3  1  0.25133460  0.49935054  0.75068514  1
  Ir  Ir4  1  0.24922936  0.74922936  0.49845872  1
  Ir  Ir5  1  0.49886912  0.75205937  0.25092849  1
  Ir  Ir6  1  0.98899963  0.98899963  0.97799826  1
loop_
_geom_bond_atom_site_label_1
_geom_bond_atom_site_label_2
_geom_bond_distance
_geom_bond_site_symmetry_2
Ga0 Ir1 2.574552 1_555
Ga0 Ir5 2.574552 1_555
Ga0 Ir2 2.589591 1_554
Ga0 Ir3 2.589591 1_554
Ga0 Ir6 2.601535 1_554
Ga0 Lu3 2.950779 1_554
Ga0 Lu2 2.964611 1_565
Ga0 Lu1 2.964612 1_655
Ga0 Lu0 2.990210 1_665
Ga1 Ir2 2.599821 1_555
Ga1 Ir5 2.614780 1_545
Ga1 Ir4 2.615136 1_545
Ga1 Ir0 2.615137 1_555
Ga1 Ir6 2.621270 1_444
Ga1 Lu1 2.970859 1_545
Ga1 Lu2 2.970859 1_555
Ga1 Lu3 2.985064 1_555
Ga1 Lu0 2.985064 1_555
Ga2 Ir3 2.599821 1_555
Ga2 Ir1 2.614780 1_455
Ga2 Ir4 2.615136 1_555
Ga2 Ir0 2.615137 1_455
Ga2 Ir6 2.621270 1_444
Ga2 Lu1 2.970859 1_555
Ga2 Lu2 2.970859 1_455
Ga2 Lu0 2.985064 1_555
Ga2 Lu3 2.985064 1_555
Ga3 Ir5 2.574552 1_555
Ga3 Ir1 2.574552 1_555
Ga3 Ir3 2.589591 1_554
Ga3 Ir2 2.589591 1_554
Ga3 Ir6 2.601526 1_444
Ga3 Lu0 2.950779 1_554
Ga3 Lu2 2.964611 1_555
Ga3 Lu1 2.964612 1_555
Ga3 Lu3 2.990210 1_555
Ge0 Ir2 2.540093 1_555
Ge0 Ir6 2.551173 1_545
Ge0 Ir0 2.555494 1_555
Ge0 Ir4 2.555494 1_545
Ge0 Ir5 2.557275 1_545
Ge0 Lu3 2.952187 1_545
Ge0 Lu0 2.952187 1_655
Ge0 Lu1 2.978438 1_656
Ge0 Lu2 2.978439 1_556
Ge1 Ir3 2.540093 1_555
Ge1 Ir6 2.551173 1_455
Ge1 Ir0 2.555494 1_455
Ge1 Ir4 2.555494 1_555
Ge1 Ir1 2.557275 1_455
Ge1 Lu0 2.952187 1_565
Ge1 Lu3 2.952187 1_455
Ge1 Lu1 2.978439 1_556
Ge1 Lu2 2.978439 1_566
Ir0 Lu2 2.896966 1_555
Ir0 Lu3 2.918581 1_555
Ir0 Lu0 2.918581 1_655
Ir0 Lu1 2.949932 1_656
Ir1 Lu2 2.909478 1_555
Ir1 Lu1 2.909478 1_655
Ir1 Lu0 2.939557 1_665
Ir1 Lu3 2.939558 1_555
Ir2 Lu3 2.914059 1_555
Ir2 Lu0 2.914060 1_555
Ir2 Lu2 2.937270 1_556
Ir2 Lu1 2.937270 1_656
Ir3 Lu0 2.914059 1_555
Ir3 Lu3 2.914059 1_555
Ir3 Lu2 2.937269 1_566
Ir3 Lu1 2.937270 1_556
Ir4 Lu1 2.896966 1_555
Ir4 Lu0 2.918581 1_565
Ir4 Lu3 2.918581 1_555
Ir4 Lu2 2.949932 1_566
Ir5 Lu2 2.909478 1_565
Ir5 Lu1 2.909478 1_555
Ir5 Lu3 2.939557 1_555
Ir5 Lu0 2.939558 1_665
