# generated using pymatgen
data_K5ZrAs2P
_symmetry_space_group_name_H-M   'P 1'
_cell_length_a   8.30244604
_cell_length_b   9.06788300
_cell_length_c   17.70851127
_cell_angle_alpha   59.82908177
_cell_angle_beta   90.00000000
_cell_angle_gamma   90.00000000
_symmetry_Int_Tables_number   1
_chemical_formula_structural   K5ZrAs2P
_chemical_formula_sum   'K20 Zr4 As8 P4'
_cell_volume   1152.58800372
_cell_formula_units_Z   4
loop_
 _symmetry_equiv_pos_site_id
 _symmetry_equiv_pos_as_xyz
  1  'x, y, z'
loop_
 _atom_site_type_symbol
 _atom_site_label
 _atom_site_symmetry_multiplicity
 _atom_site_fract_x
 _atom_site_fract_y
 _atom_site_fract_z
 _atom_site_occupancy
  K  K0  1  0.17212883  0.83919913  0.74348766  1
  K  K1  1  0.67212883  0.16080087  0.75651234  1
  K  K2  1  0.82787117  0.16080087  0.25651234  1
  K  K3  1  0.32787117  0.83919913  0.24348766  1
  K  K4  1  0.17116565  0.16880072  0.42035347  1
  K  K5  1  0.67116565  0.83119928  0.07964653  1
  K  K6  1  0.82883435  0.83119928  0.57964653  1
  K  K7  1  0.32883435  0.16880072  0.92035347  1
  K  K8  1  0.00664143  0.07841124  0.09397960  1
  K  K9  1  0.50664143  0.92158876  0.40602040  1
  K  K10  1  0.99335857  0.92158876  0.90602040  1
  K  K11  1  0.49335857  0.07841124  0.59397960  1
  K  K12  1  0.51970519  0.25432639  0.07975696  1
  K  K13  1  0.01970519  0.74567361  0.42024304  1
  K  K14  1  0.48029481  0.74567361  0.92024304  1
  K  K15  1  0.98029481  0.25432639  0.57975696  1
  K  K16  1  0.98608671  0.54137856  0.25842842  1
  K  K17  1  0.48608671  0.45862144  0.24157158  1
  K  K18  1  0.01391329  0.45862144  0.74157158  1
  K  K19  1  0.51391329  0.54137856  0.75842842  1
  Zr  Zr0  1  0.36943016  0.49443020  0.58044972  1
  Zr  Zr1  1  0.86943016  0.50556980  0.91955028  1
  Zr  Zr2  1  0.63056984  0.50556980  0.41955028  1
  Zr  Zr3  1  0.13056984  0.49443020  0.08044972  1
  As  As0  1  0.21798574  0.21168043  0.22159231  1
  As  As1  1  0.71798574  0.78831957  0.27840769  1
  As  As2  1  0.78201426  0.78831957  0.77840769  1
  As  As3  1  0.28201426  0.21168043  0.72159231  1
  As  As4  1  0.25184828  0.76441059  0.07806664  1
  As  As5  1  0.75184828  0.23558941  0.42193336  1
  As  As6  1  0.74815172  0.23558941  0.92193336  1
  As  As7  1  0.24815172  0.76441059  0.57806664  1
  P  P0  1  0.32206383  0.48865625  0.43824212  1
  P  P1  1  0.82206383  0.51134375  0.06175788  1
  P  P2  1  0.67793617  0.51134375  0.56175788  1
  P  P3  1  0.17793617  0.48865625  0.93824212  1
loop_
_geom_bond_atom_site_label_1
_geom_bond_atom_site_label_2
_geom_bond_distance
_geom_bond_site_symmetry_2
K0 P3 3.313816 1_555
K1 P2 3.313816 1_555
K2 P1 3.313816 1_555
K3 P0 3.313816 1_555
K4 P0 3.317507 1_555
K5 P1 3.317507 1_555
K6 P2 3.317507 1_555
K7 P3 3.317507 1_555
K8 P3 3.626959 1_554
K9 P2 3.626959 1_555
K10 P1 3.626959 1_556
K11 P0 3.626959 1_555
K12 P1 3.329911 1_555
K12 P3 3.673454 1_554
K13 P0 3.329911 1_555
K13 P2 3.673454 1_455
K14 P3 3.329911 1_555
K14 P1 3.673454 1_556
K15 P2 3.329911 1_555
K15 P0 3.673454 1_655
As0 Zr3 2.627964 1_555
As0 K2 3.286182 1_455
As0 K17 3.300042 1_555
As0 K3 3.327849 1_545
As0 K4 3.363835 1_555
As0 K12 3.428835 1_555
As0 K8 3.520107 1_555
As0 K9 3.833275 1_545
As1 Zr2 2.627964 1_555
As1 K3 3.286182 1_555
As1 K16 3.300042 1_555
As1 K2 3.327849 1_565
As1 K5 3.363835 1_555
As1 K13 3.428835 1_655
As1 K9 3.520107 1_555
As1 K8 3.833275 1_665
As2 Zr1 2.627964 1_555
As2 K0 3.286182 1_655
As2 K19 3.300042 1_555
As2 K1 3.327849 1_565
As2 K6 3.363835 1_555
As2 K14 3.428835 1_555
As2 K10 3.520107 1_555
As2 K11 3.833275 1_565
As3 Zr0 2.627964 1_555
As3 K1 3.286182 1_555
As3 K18 3.300042 1_555
As3 K0 3.327849 1_545
As3 K7 3.363835 1_555
As3 K15 3.428835 1_455
As3 K11 3.520107 1_555
As3 K10 3.833275 1_445
As4 Zr3 2.627782 1_555
As4 K7 3.370616 1_564
As4 K3 3.381763 1_555
As4 K10 3.399212 1_454
As4 K17 3.432820 1_555
As4 K14 3.451744 1_554
As4 K5 3.536166 1_555
As4 K16 3.559089 1_455
As4 K8 3.624596 1_565
As5 Zr2 2.627782 1_555
As5 K6 3.370616 1_545
As5 K2 3.381763 1_555
As5 K11 3.399212 1_555
As5 K16 3.432820 1_555
As5 K15 3.451744 1_555
As5 K4 3.536166 1_655
As5 K17 3.559089 1_555
As5 K9 3.624596 1_545
As6 Zr1 2.627782 1_555
As6 K5 3.370616 1_546
As6 K1 3.381763 1_555
As6 K8 3.399212 1_656
As6 K19 3.432820 1_555
As6 K12 3.451744 1_556
As6 K7 3.536166 1_555
As6 K18 3.559089 1_655
As6 K10 3.624596 1_545
As7 Zr0 2.627782 1_555
As7 K4 3.370616 1_565
As7 K0 3.381763 1_555
As7 K9 3.399212 1_555
As7 K18 3.432820 1_555
As7 K13 3.451744 1_555
As7 K6 3.536166 1_455
As7 K19 3.559089 1_555
As7 K11 3.624596 1_565
P0 Zr0 2.575205 1_555
P0 Zr2 2.577323 1_555
P1 Zr1 2.575205 1_554
P1 Zr3 2.577323 1_655
P2 Zr2 2.575205 1_555
P2 Zr0 2.577323 1_555
P3 Zr3 2.575205 1_556
P3 Zr1 2.577323 1_455
