# generated using pymatgen
data_Ti6NbTc5P6
_symmetry_space_group_name_H-M   'P 1'
_cell_length_a   7.38271994
_cell_length_b   7.36387641
_cell_length_c   7.36387566
_cell_angle_alpha   126.84602835
_cell_angle_beta   125.35334933
_cell_angle_gamma   79.67068019
_symmetry_Int_Tables_number   1
_chemical_formula_structural   Ti6NbTc5P6
_chemical_formula_sum   'Ti6 Nb1 Tc5 P6'
_cell_volume   252.52604726
_cell_formula_units_Z   1
loop_
 _symmetry_equiv_pos_site_id
 _symmetry_equiv_pos_as_xyz
  1  'x, y, z'
loop_
 _atom_site_type_symbol
 _atom_site_label
 _atom_site_symmetry_multiplicity
 _atom_site_fract_x
 _atom_site_fract_y
 _atom_site_fract_z
 _atom_site_occupancy
  Ti  Ti0  1  0.45966946  0.24929779  0.29178525  1
  Ti  Ti1  1  0.54033054  0.83211579  0.78962934  1
  Ti  Ti2  1  0.74612149  0.65081786  0.40357858  1
  Ti  Ti3  1  0.25387851  0.65745709  0.90469537  1
  Ti  Ti4  1  0.05219161  0.84309153  0.28947137  1
  Ti  Ti5  1  0.94780839  0.23727976  0.79089991  1
  Nb  Nb0  1  0.50000000  0.99233436  0.49233436  1
  Tc  Tc0  1  0.65829323  0.50427350  0.90544627  1
  Tc  Tc1  1  0.34170677  0.24715403  0.84598227  1
  Tc  Tc2  1  0.89842569  0.24481222  0.39815580  1
  Tc  Tc3  1  0.10157431  0.49973011  0.34638753  1
  Tc  Tc4  1  0.00000000  0.99289999  0.99289999  1
  P  P0  1  0.83363425  0.57645363  0.74574088  1
  P  P1  1  0.16636575  0.91210464  0.74281938  1
  P  P2  1  0.67135923  0.91064982  0.24230810  1
  P  P3  1  0.32864077  0.57094788  0.23929060  1
  P  P4  1  0.26720664  0.27903850  0.50714615  1
  P  P5  1  0.73279336  0.23993850  0.01183285  1
loop_
_geom_bond_atom_site_label_1
_geom_bond_atom_site_label_2
_geom_bond_distance
_geom_bond_site_symmetry_2
Nb0 P4 2.462228 1_565
Nb0 P5 2.462234 1_566
Nb0 P2 2.538999 1_555
Nb0 P3 2.539006 1_555
Nb0 Ti2 2.796022 1_555
Nb0 Ti3 2.796026 1_554
Nb0 Ti5 2.826304 1_565
Nb0 Ti4 2.826304 1_555
Tc0 Ti4 2.702218 1_656
Tc0 Ti5 2.781362 1_555
Tc0 Ti2 2.791323 1_556
Tc0 Ti3 2.994555 1_555
Tc1 Ti5 2.702212 1_455
Tc1 Ti4 2.781370 1_545
Tc1 Ti3 2.791324 1_555
Tc1 Ti2 2.994552 1_556
Tc2 Ti5 2.732270 1_555
Tc2 Ti4 2.772710 1_645
Tc2 Ti3 2.823414 1_655
Tc2 Ti2 2.984607 1_555
Tc3 Ti4 2.732275 1_555
Tc3 Ti5 2.772716 1_454
Tc3 Ti2 2.823412 1_455
Tc3 Ti3 2.984593 1_555
Tc4 Ti2 2.803727 1_455
Tc4 Ti3 2.803729 1_555
Tc4 Ti4 2.810367 1_556
Tc4 Ti5 2.810368 1_465
Tc4 Ti0 2.931876 1_566
Tc4 Ti1 2.931879 1_455
P0 Tc0 2.469725 1_555
P0 Tc2 2.499081 1_555
P0 Tc4 2.509042 1_655
P0 Ti0 2.578225 1_555
P0 Ti2 2.590360 1_555
P0 Ti4 2.592574 1_656
P0 Ti1 2.637408 1_555
P0 Ti3 2.641097 1_655
P0 Ti5 2.641220 1_555
P1 Tc1 2.469736 1_565
P1 Tc3 2.499070 1_555
P1 Tc4 2.509038 1_555
P1 Ti1 2.578221 1_555
P1 Ti3 2.590341 1_555
P1 Ti5 2.592585 1_465
P1 Ti0 2.637409 1_566
P1 Ti2 2.641088 1_455
P1 Ti4 2.641228 1_555
P2 Tc0 2.457944 1_554
P2 Tc2 2.459361 1_565
P2 Ti1 2.557173 1_554
P2 Ti3 2.605910 1_554
P2 Ti5 2.614571 1_565
P2 Ti4 2.617003 1_655
P2 Ti2 2.638923 1_555
P2 Ti0 2.639259 1_565
P3 Tc1 2.457931 1_554
P3 Tc3 2.459363 1_555
P3 Ti0 2.557174 1_555
P3 Ti2 2.605913 1_555
P3 Ti4 2.614575 1_555
P3 Ti5 2.617000 1_454
P3 Ti3 2.638935 1_554
P3 Ti1 2.639264 1_555
P4 Tc3 2.336083 1_555
P4 Tc2 2.365379 1_455
P4 Tc1 2.377302 1_555
P4 Tc0 2.402688 1_555
P4 Tc4 2.438759 1_544
P4 Ti0 2.580992 1_555
P4 Ti3 2.606967 1_555
P4 Ti4 2.847160 1_545
P5 Tc2 2.336076 1_555
P5 Tc3 2.365381 1_655
P5 Tc0 2.377305 1_554
P5 Tc1 2.402691 1_554
P5 Tc4 2.438756 1_644
P5 Ti1 2.580986 1_544
P5 Ti2 2.606972 1_555
P5 Ti5 2.847170 1_554
