# generated using pymatgen
data_Sr3UO6
_symmetry_space_group_name_H-M   'P 1'
_cell_length_a   6.01187075
_cell_length_b   6.24491972
_cell_length_c   8.62546066
_cell_angle_alpha   90.00000000
_cell_angle_beta   90.47273692
_cell_angle_gamma   90.00000000
_symmetry_Int_Tables_number   1
_chemical_formula_structural   Sr3UO6
_chemical_formula_sum   'Sr6 U2 O12'
_cell_volume   323.82025550
_cell_formula_units_Z   2
loop_
 _symmetry_equiv_pos_site_id
 _symmetry_equiv_pos_as_xyz
  1  'x, y, z'
loop_
 _atom_site_type_symbol
 _atom_site_label
 _atom_site_symmetry_multiplicity
 _atom_site_fract_x
 _atom_site_fract_y
 _atom_site_fract_z
 _atom_site_occupancy
  Sr  Sr0  1  0.25002613  0.01817894  0.75000258  1
  Sr  Sr1  1  0.74997387  0.51817894  0.24999742  1
  Sr  Sr2  1  0.23500384  0.56819627  0.50687689  1
  Sr  Sr3  1  0.76499616  0.06819627  0.49312311  1
  Sr  Sr4  1  0.73496342  0.96816210  0.00696032  1
  Sr  Sr5  1  0.26503658  0.46816210  0.99303968  1
  U  U0  1  0.24993508  0.01818518  0.25001046  1
  U  U1  1  0.75006492  0.51818518  0.74998954  1
  O  O0  1  0.42400273  0.74561550  0.17332698  1
  O  O1  1  0.57599727  0.24561550  0.82667302  1
  O  O2  1  0.96826374  0.84172246  0.29983682  1
  O  O3  1  0.03173626  0.34172246  0.70016318  1
  O  O4  1  0.86796310  0.58019870  0.97467249  1
  O  O5  1  0.13203690  0.08019870  0.02532751  1
  O  O6  1  0.92424524  0.79063033  0.67319808  1
  O  O7  1  0.07575476  0.29063033  0.32680192  1
  O  O8  1  0.63208872  0.45622924  0.52531407  1
  O  O9  1  0.36791128  0.95622924  0.47468593  1
  O  O10  1  0.53156401  0.19468128  0.20011830  1
  O  O11  1  0.46843599  0.69468128  0.79988170  1
loop_
_geom_bond_atom_site_label_1
_geom_bond_atom_site_label_2
_geom_bond_distance
_geom_bond_site_symmetry_2
O0 U0 2.107467 1_565
O0 Sr1 2.504732 1_555
O0 Sr5 2.511809 1_554
O0 Sr4 2.744053 1_555
O1 U1 2.107467 1_555
O1 Sr0 2.504732 1_555
O1 Sr4 2.511809 1_546
O1 Sr5 2.744053 1_555
O2 U0 2.068482 1_665
O2 Sr1 2.445432 1_555
O2 Sr3 2.511319 1_565
O2 Sr2 2.937892 1_655
O2 Sr4 2.985611 1_555
O3 U1 2.068482 1_455
O3 Sr0 2.445432 1_555
O3 Sr2 2.511319 1_555
O3 Sr3 2.937892 1_455
O3 Sr5 2.985611 1_555
O4 U1 2.094162 1_555
O4 Sr5 2.491363 1_655
O4 Sr1 2.514092 1_556
O4 Sr4 2.567201 1_556
O5 U0 2.094162 1_555
O5 Sr4 2.491363 1_445
O5 Sr0 2.514092 1_554
O5 Sr5 2.567201 1_554
O6 U1 2.107474 1_555
O6 Sr0 2.504535 1_665
O6 Sr3 2.511805 1_565
O6 Sr2 2.742657 1_655
O7 U0 2.107474 1_555
O7 Sr1 2.504535 1_455
O7 Sr2 2.511805 1_555
O7 Sr3 2.742657 1_455
O8 U1 2.094191 1_555
O8 Sr2 2.491340 1_555
O8 Sr1 2.513776 1_555
O8 Sr3 2.567345 1_555
O9 U0 2.094191 1_565
O9 Sr3 2.491340 1_565
O9 Sr0 2.513776 1_565
O9 Sr2 2.567345 1_555
O10 U0 2.068506 1_555
O10 Sr1 2.445641 1_555
O10 Sr4 2.511130 1_545
O10 Sr5 2.937237 1_554
O10 Sr3 2.986985 1_555
O11 U1 2.068506 1_555
O11 Sr0 2.445641 1_565
O11 Sr5 2.511130 1_555
O11 Sr4 2.937237 1_556
O11 Sr2 2.986985 1_555
