# generated using pymatgen
data_Rb6ScAlAs4
_symmetry_space_group_name_H-M   'P 1'
_cell_length_a   9.31405184
_cell_length_b   9.31405154
_cell_length_c   9.31405158
_cell_angle_alpha   127.13729046
_cell_angle_beta   70.27527938
_cell_angle_gamma   137.20376010
_symmetry_Int_Tables_number   1
_chemical_formula_structural   Rb6ScAlAs4
_chemical_formula_sum   'Rb6 Sc1 Al1 As4'
_cell_volume   429.23999296
_cell_formula_units_Z   1
loop_
 _symmetry_equiv_pos_site_id
 _symmetry_equiv_pos_as_xyz
  1  'x, y, z'
loop_
 _atom_site_type_symbol
 _atom_site_label
 _atom_site_symmetry_multiplicity
 _atom_site_fract_x
 _atom_site_fract_y
 _atom_site_fract_z
 _atom_site_occupancy
  Rb  Rb0  1  0.80682167  0.19333527  0.01660328  1
  Rb  Rb1  1  0.69317833  0.70978161  0.38651260  1
  Rb  Rb2  1  0.75000000  0.25000100  0.50000000  1
  Rb  Rb3  1  0.25000100  0.75000100  0.50000000  1
  Rb  Rb4  1  0.32326901  0.30666473  0.61348640  1
  Rb  Rb5  1  0.17673099  0.79021839  0.98339672  1
  Sc  Sc0  1  0.25000100  0.25000100  0.00000000  1
  Al  Al0  1  0.75000100  0.75000100  0.00000000  1
  As  As0  1  0.42200825  0.68842829  0.08566212  1
  As  As1  1  0.07799175  0.16365287  0.26642004  1
  As  As2  1  0.89723283  0.81157171  0.73357996  1
  As  As3  1  0.60276617  0.33634713  0.91433788  1
loop_
_geom_bond_atom_site_label_1
_geom_bond_atom_site_label_2
_geom_bond_distance
_geom_bond_site_symmetry_2
Rb0 Sc0 3.716401 1_655
Rb1 Sc0 3.716389 1_555
Rb4 Sc0 3.716392 1_556
Rb5 Sc0 3.716395 1_566
Al0 As2 2.575694 1_554
Al0 As1 2.575694 1_665
Al0 As3 2.575695 1_554
Al0 As0 2.575703 1_555
Al0 Rb5 3.664927 1_654
Al0 Rb1 3.664933 1_555
Al0 Rb0 3.664936 1_565
Al0 Rb4 3.664937 1_554
As0 Sc0 2.684470 1_555
As0 Rb2 3.423340 1_565
As0 Rb4 3.446685 1_554
As0 Rb3 3.505909 1_555
As0 Rb0 3.568728 1_565
As0 Rb5 3.572529 1_554
As0 Rb0 3.826205 1_455
As1 Sc0 2.684483 1_555
As1 Rb2 3.423347 1_455
As1 Rb5 3.446670 1_544
As1 Rb3 3.505923 1_555
As1 Rb1 3.568716 1_445
As1 Rb4 3.572520 1_555
As1 Rb1 3.826206 1_555
As2 Sc0 2.684483 1_666
As2 Rb2 3.423335 1_555
As2 Rb0 3.446677 1_566
As2 Rb3 3.505923 1_655
As2 Rb4 3.568716 1_555
As2 Rb1 3.572523 1_555
As2 Rb4 3.826206 1_665
As3 Sc0 2.684466 1_556
As3 Rb2 3.423338 1_555
As3 Rb1 3.446677 1_556
As3 Rb3 3.505911 1_545
As3 Rb5 3.568722 1_655
As3 Rb0 3.572529 1_556
As3 Rb5 3.826211 1_545
