# generated using pymatgen
data_K5(DyI4)3
_symmetry_space_group_name_H-M   'P 1'
_cell_length_a   14.86979146
_cell_length_b   14.86979146
_cell_length_c   4.44776200
_cell_angle_alpha   90.00000000
_cell_angle_beta   90.00000000
_cell_angle_gamma   119.99999761
_symmetry_Int_Tables_number   1
_chemical_formula_structural   K5(DyI4)3
_chemical_formula_sum   'K5 Dy3 I12'
_cell_volume   851.69076480
_cell_formula_units_Z   1
loop_
 _symmetry_equiv_pos_site_id
 _symmetry_equiv_pos_as_xyz
  1  'x, y, z'
loop_
 _atom_site_type_symbol
 _atom_site_label
 _atom_site_symmetry_multiplicity
 _atom_site_fract_x
 _atom_site_fract_y
 _atom_site_fract_z
 _atom_site_occupancy
  K  K0  1  0.71670500  0.00000000  0.50000000  1
  K  K1  1  0.28329500  0.28329500  0.50000000  1
  K  K2  1  0.00000000  0.71670500  0.50000000  1
  K  K3  1  0.66666700  0.33333300  0.50000000  1
  K  K4  1  0.33333300  0.66666700  0.50000000  1
  Dy  Dy0  1  0.32394600  0.00000000  0.00000000  1
  Dy  Dy1  1  0.00000000  0.32394600  0.00000000  1
  Dy  Dy2  1  0.67605400  0.67605400  0.00000000  1
  I  I0  1  0.17590100  0.00000000  0.50000000  1
  I  I1  1  0.23898700  0.44401400  0.00000000  1
  I  I2  1  0.55598600  0.79497300  0.00000000  1
  I  I3  1  0.00000000  0.17590100  0.50000000  1
  I  I4  1  0.82409900  0.82409900  0.50000000  1
  I  I5  1  0.00000000  0.46829700  0.50000000  1
  I  I6  1  0.46829700  0.00000000  0.50000000  1
  I  I7  1  0.53170300  0.53170300  0.50000000  1
  I  I8  1  0.76101300  0.20502700  0.00000000  1
  I  I9  1  0.44401400  0.23898700  0.00000000  1
  I  I10  1  0.79497300  0.55598600  0.00000000  1
  I  I11  1  0.20502700  0.76101300  0.00000000  1
loop_
_geom_bond_atom_site_label_1
_geom_bond_atom_site_label_2
_geom_bond_distance
_geom_bond_site_symmetry_2
Dy0 I11 3.077595 1_545
Dy0 I9 3.077595 1_555
Dy0 I6 3.090789 1_555
Dy0 I6 3.090789 1_554
Dy0 I0 3.129185 1_554
Dy0 I0 3.129185 1_555
Dy1 I8 3.077595 1_455
Dy1 I1 3.077595 1_555
Dy1 I5 3.090789 1_555
Dy1 I5 3.090789 1_554
Dy1 I3 3.129185 1_555
Dy1 I3 3.129185 1_554
Dy2 I10 3.077595 1_555
Dy2 I2 3.077595 1_555
Dy2 I7 3.090789 1_555
Dy2 I7 3.090789 1_554
Dy2 I4 3.129185 1_555
Dy2 I4 3.129185 1_554
I0 K1 3.683549 1_555
I0 K2 3.683549 1_545
I1 K1 3.558892 1_555
I1 K1 3.558892 1_554
I1 K4 3.637371 1_554
I1 K4 3.637371 1_555
I2 K0 3.558892 1_564
I2 K0 3.558892 1_565
I2 K4 3.637370 1_555
I2 K4 3.637370 1_554
I3 K1 3.683549 1_555
I3 K0 3.683549 1_455
I4 K0 3.683549 1_565
I4 K2 3.683549 1_655
I5 K2 3.693775 1_555
I6 K0 3.693775 1_555
I7 K1 3.693775 1_555
I8 K0 3.558892 1_554
I8 K0 3.558892 1_555
I8 K3 3.637360 1_555
I8 K3 3.637360 1_554
I9 K1 3.558892 1_555
I9 K1 3.558892 1_554
I9 K3 3.637371 1_555
I9 K3 3.637371 1_554
I10 K2 3.558892 1_655
I10 K2 3.558892 1_654
I10 K3 3.637370 1_554
I10 K3 3.637370 1_555
I11 K2 3.558892 1_554
I11 K2 3.558892 1_555
I11 K4 3.637360 1_555
I11 K4 3.637360 1_554
