# generated using pymatgen
data_CsGaAsH
_symmetry_space_group_name_H-M   'P 1'
_cell_length_a   4.13998794
_cell_length_b   4.13998694
_cell_length_c   6.61786277
_cell_angle_alpha   90.00000000
_cell_angle_beta   90.00000000
_cell_angle_gamma   119.99998507
_symmetry_Int_Tables_number   1
_chemical_formula_structural   CsGaAsH
_chemical_formula_sum   'Cs1 Ga1 As1 H1'
_cell_volume   98.23053325
_cell_formula_units_Z   1
loop_
 _symmetry_equiv_pos_site_id
 _symmetry_equiv_pos_as_xyz
  1  'x, y, z'
loop_
 _atom_site_type_symbol
 _atom_site_label
 _atom_site_symmetry_multiplicity
 _atom_site_fract_x
 _atom_site_fract_y
 _atom_site_fract_z
 _atom_site_occupancy
  Cs  Cs0  1  0.00000000  0.00000000  0.02841178  1
  Ga  Ga0  1  0.66666700  0.33333300  0.56716840  1
  As  As0  1  0.33333300  0.66666700  0.44945350  1
  H  H0  1  0.66666700  0.33333300  0.81206632  1
loop_
_geom_bond_atom_site_label_1
_geom_bond_atom_site_label_2
_geom_bond_distance
_geom_bond_site_symmetry_2
Cs0 H0 2.786224 1_454
Cs0 H0 2.786228 1_444
Cs0 H0 2.786228 1_554
Ga0 H0 1.620701 1_555
As0 Ga0 2.513967 1_565
As0 Ga0 2.513967 1_455
As0 Ga0 2.513973 1_555
As0 Cs0 3.671125 1_565
As0 Cs0 3.671127 1_555
As0 Cs0 3.671128 1_665
