# generated using pymatgen
data_CsZrCuS3
_symmetry_space_group_name_H-M   'P 1'
_cell_length_a   8.00061454
_cell_length_b   8.00061429
_cell_length_c   9.86069629
_cell_angle_alpha   90.00000000
_cell_angle_beta   90.00000000
_cell_angle_gamma   152.63251033
_symmetry_Int_Tables_number   1
_chemical_formula_structural   CsZrCuS3
_chemical_formula_sum   'Cs2 Zr2 Cu2 S6'
_cell_volume   290.15158288
_cell_formula_units_Z   2
loop_
 _symmetry_equiv_pos_site_id
 _symmetry_equiv_pos_as_xyz
  1  'x, y, z'
loop_
 _atom_site_type_symbol
 _atom_site_label
 _atom_site_symmetry_multiplicity
 _atom_site_fract_x
 _atom_site_fract_y
 _atom_site_fract_z
 _atom_site_occupancy
  Cs  Cs0  1  0.74262745  0.25737255  0.25000000  1
  Cs  Cs1  1  0.25737255  0.74262745  0.75000000  1
  Zr  Zr0  1  0.00000000  0.00000000  0.50000000  1
  Zr  Zr1  1  0.00000000  0.00000000  0.00000000  1
  Cu  Cu0  1  0.53288008  0.46711992  0.75000000  1
  Cu  Cu1  1  0.46711992  0.53288008  0.25000000  1
  S  S0  1  0.60952751  0.39047249  0.55285042  1
  S  S1  1  0.39047249  0.60952751  0.44714958  1
  S  S2  1  0.05452220  0.94547780  0.25000000  1
  S  S3  1  0.94547780  0.05452220  0.75000000  1
  S  S4  1  0.60952751  0.39047249  0.94714958  1
  S  S5  1  0.39047249  0.60952751  0.05285042  1
loop_
_geom_bond_atom_site_label_1
_geom_bond_atom_site_label_2
_geom_bond_distance
_geom_bond_site_symmetry_2
Cs0 S2 3.483490 1_655
Cs0 S2 3.483490 1_545
Cs0 S1 3.555942 1_545
Cs0 S5 3.555942 1_545
Cs0 S1 3.555942 1_655
Cs0 S5 3.555942 1_655
Cs0 S0 3.633199 1_555
Cs0 S4 3.633199 1_554
Cs1 S3 3.483490 1_455
Cs1 S3 3.483490 1_565
Cs1 S4 3.555942 1_565
Cs1 S0 3.555942 1_565
Cs1 S4 3.555942 1_455
Cs1 S0 3.555942 1_455
Cs1 S5 3.633199 1_556
Cs1 S1 3.633199 1_555
Cu0 S4 2.280191 1_555
Cu0 S0 2.280191 1_555
Cu0 S3 2.329930 1_565
Cu0 S3 2.329930 1_455
Cu1 S1 2.280191 1_555
Cu1 S5 2.280191 1_555
Cu1 S2 2.329930 1_545
Cu1 S2 2.329930 1_655
S0 Zr0 2.598716 1_665
S0 Zr0 2.598716 1_555
S1 Zr0 2.598716 1_555
S1 Zr0 2.598716 1_665
S2 Zr1 2.606839 1_565
S2 Zr0 2.606839 1_565
S3 Zr1 2.606839 1_656
S3 Zr0 2.606839 1_655
S4 Zr1 2.598716 1_666
S4 Zr1 2.598716 1_556
S5 Zr1 2.598716 1_555
S5 Zr1 2.598716 1_665
