# generated using pymatgen
data_Ti4Pt2C
_symmetry_space_group_name_H-M   'P 1'
_cell_length_a   8.30869353
_cell_length_b   8.30869296
_cell_length_c   8.30869334
_cell_angle_alpha   60.00000242
_cell_angle_beta   60.00000469
_cell_angle_gamma   59.99999631
_symmetry_Int_Tables_number   1
_chemical_formula_structural   Ti4Pt2C
_chemical_formula_sum   'Ti16 Pt8 C4'
_cell_volume   405.58622196
_cell_formula_units_Z   4
loop_
 _symmetry_equiv_pos_site_id
 _symmetry_equiv_pos_as_xyz
  1  'x, y, z'
loop_
 _atom_site_type_symbol
 _atom_site_label
 _atom_site_symmetry_multiplicity
 _atom_site_fract_x
 _atom_site_fract_y
 _atom_site_fract_z
 _atom_site_occupancy
  Ti  Ti0  1  0.12500000  0.62500000  0.62500000  1
  Ti  Ti1  1  0.62500000  0.12500000  0.62500000  1
  Ti  Ti2  1  0.62500000  0.62500000  0.12500000  1
  Ti  Ti3  1  0.62500000  0.62500000  0.62500000  1
  Ti  Ti4  1  0.81923914  0.81923914  0.18076086  1
  Ti  Ti5  1  0.18076086  0.18076086  0.81923914  1
  Ti  Ti6  1  0.81923914  0.18076086  0.81923914  1
  Ti  Ti7  1  0.18076086  0.81923914  0.18076086  1
  Ti  Ti8  1  0.18076086  0.81923914  0.81923914  1
  Ti  Ti9  1  0.81923914  0.18076086  0.18076086  1
  Ti  Ti10  1  0.43076086  0.43076086  0.06923914  1
  Ti  Ti11  1  0.06923914  0.06923914  0.43076086  1
  Ti  Ti12  1  0.43076086  0.06923914  0.43076086  1
  Ti  Ti13  1  0.06923914  0.43076086  0.06923914  1
  Ti  Ti14  1  0.06923914  0.43076086  0.43076086  1
  Ti  Ti15  1  0.43076086  0.06923914  0.06923914  1
  Pt  Pt0  1  0.77079782  0.40973406  0.40973406  1
  Pt  Pt1  1  0.40973406  0.77079782  0.40973406  1
  Pt  Pt2  1  0.40973406  0.40973406  0.77079782  1
  Pt  Pt3  1  0.40973406  0.40973406  0.40973406  1
  Pt  Pt4  1  0.47920218  0.84026594  0.84026594  1
  Pt  Pt5  1  0.84026594  0.47920218  0.84026594  1
  Pt  Pt6  1  0.84026594  0.84026594  0.47920218  1
  Pt  Pt7  1  0.84026594  0.84026594  0.84026594  1
  C  C0  1  0.62500000  0.12500000  0.12500000  1
  C  C1  1  0.12500000  0.62500000  0.12500000  1
  C  C2  1  0.12500000  0.12500000  0.62500000  1
  C  C3  1  0.12500000  0.12500000  0.12500000  1
loop_
_geom_bond_atom_site_label_1
_geom_bond_atom_site_label_2
_geom_bond_distance
_geom_bond_site_symmetry_2
Pt0 Ti3 2.594451 1_555
Pt0 Ti2 2.594451 1_555
Pt0 Ti1 2.594451 1_555
Pt0 Ti11 2.665836 1_655
Pt0 Ti14 2.665837 1_655
Pt0 Ti13 2.665837 1_655
Pt1 Ti3 2.594451 1_555
Pt1 Ti2 2.594451 1_555
Pt1 Ti0 2.594451 1_555
Pt1 Ti11 2.665836 1_565
Pt1 Ti12 2.665837 1_565
Pt1 Ti15 2.665837 1_565
Pt2 Ti1 2.594451 1_555
Pt2 Ti0 2.594451 1_555
Pt2 Ti3 2.594451 1_555
Pt2 Ti10 2.665837 1_556
Pt2 Ti15 2.665837 1_556
Pt2 Ti13 2.665837 1_556
Pt3 Ti1 2.594451 1_555
Pt3 Ti0 2.594451 1_555
Pt3 Ti2 2.594451 1_555
Pt3 Ti12 2.665836 1_555
Pt3 Ti10 2.665837 1_555
Pt3 Ti14 2.665837 1_555
Pt4 Ti3 2.594451 1_555
Pt4 Ti2 2.594451 1_556
Pt4 Ti1 2.594451 1_565
Pt4 Ti5 2.665836 1_565
Pt4 Ti8 2.665837 1_555
Pt4 Ti7 2.665837 1_556
Pt5 Ti3 2.594451 1_555
Pt5 Ti2 2.594451 1_556
Pt5 Ti0 2.594451 1_655
Pt5 Ti5 2.665836 1_655
Pt5 Ti6 2.665837 1_555
Pt5 Ti9 2.665837 1_556
Pt6 Ti1 2.594451 1_565
Pt6 Ti0 2.594451 1_655
Pt6 Ti3 2.594451 1_555
Pt6 Ti4 2.665837 1_555
Pt6 Ti9 2.665837 1_565
Pt6 Ti7 2.665837 1_655
Pt7 Ti1 2.594451 1_565
Pt7 Ti0 2.594451 1_655
Pt7 Ti2 2.594451 1_556
Pt7 Ti6 2.665836 1_565
Pt7 Ti4 2.665837 1_556
Pt7 Ti8 2.665837 1_655
C0 Ti10 2.178059 1_555
C0 Ti4 2.178059 1_545
C0 Ti9 2.178059 1_555
C0 Ti15 2.178059 1_555
C0 Ti12 2.178060 1_555
C0 Ti6 2.178060 1_554
C1 Ti7 2.178059 1_555
C1 Ti13 2.178059 1_555
C1 Ti10 2.178059 1_555
C1 Ti4 2.178059 1_455
C1 Ti14 2.178059 1_555
C1 Ti8 2.178059 1_554
C2 Ti14 2.178059 1_555
C2 Ti8 2.178059 1_545
C2 Ti5 2.178059 1_555
C2 Ti11 2.178059 1_555
C2 Ti12 2.178060 1_555
C2 Ti6 2.178060 1_455
C3 Ti13 2.178059 1_555
C3 Ti7 2.178059 1_545
C3 Ti15 2.178059 1_555
C3 Ti9 2.178059 1_455
C3 Ti11 2.178059 1_555
C3 Ti5 2.178059 1_554
