# generated using pymatgen
data_Rb2HfZn3As4
_symmetry_space_group_name_H-M   'P 1'
_cell_length_a   7.92780213
_cell_length_b   7.92780155
_cell_length_c   5.95343926
_cell_angle_alpha   90.00000000
_cell_angle_beta   90.00000000
_cell_angle_gamma   135.94294358
_symmetry_Int_Tables_number   1
_chemical_formula_structural   Rb2HfZn3As4
_chemical_formula_sum   'Rb2 Hf1 Zn3 As4'
_cell_volume   260.19094165
_cell_formula_units_Z   1
loop_
 _symmetry_equiv_pos_site_id
 _symmetry_equiv_pos_as_xyz
  1  'x, y, z'
loop_
 _atom_site_type_symbol
 _atom_site_label
 _atom_site_symmetry_multiplicity
 _atom_site_fract_x
 _atom_site_fract_y
 _atom_site_fract_z
 _atom_site_occupancy
  Rb  Rb0  1  0.50000000  0.00000000  0.25581655  1
  Rb  Rb1  1  0.00000000  0.50000000  0.74418345  1
  Hf  Hf0  1  0.00000000  0.00000000  0.00000000  1
  Zn  Zn0  1  0.50000000  0.50000000  0.50000000  1
  Zn  Zn1  1  0.50000000  0.50000000  0.00000000  1
  Zn  Zn2  1  0.00000000  0.00000000  0.50000000  1
  As  As0  1  0.64842261  0.85027325  0.75002910  1
  As  As1  1  0.14972675  0.35157739  0.24997090  1
  As  As2  1  0.85027325  0.64842261  0.24997090  1
  As  As3  1  0.35157739  0.14972675  0.75002910  1
loop_
_geom_bond_atom_site_label_1
_geom_bond_atom_site_label_2
_geom_bond_distance
_geom_bond_site_symmetry_2
As0 Zn1 2.571783 1_556
As0 Zn0 2.571983 1_555
As0 Hf0 2.576262 1_666
As0 Zn2 2.576463 1_665
As0 Rb0 3.668504 1_565
As0 Rb1 3.690617 1_555
As0 Rb1 3.696860 1_665
As0 Rb0 3.724000 1_566
As1 Zn1 2.571783 1_555
As1 Zn0 2.571983 1_555
As1 Hf0 2.576262 1_555
As1 Zn2 2.576462 1_555
As1 Rb1 3.668504 1_555
As1 Rb0 3.690616 1_565
As1 Rb0 3.696860 1_455
As1 Rb1 3.724000 1_554
As2 Zn1 2.571783 1_555
As2 Zn0 2.571983 1_555
As2 Hf0 2.576262 1_665
As2 Zn2 2.576462 1_665
As2 Rb1 3.668504 1_655
As2 Rb0 3.690616 1_555
As2 Rb0 3.696860 1_665
As2 Rb1 3.724000 1_654
As3 Zn1 2.571783 1_556
As3 Zn0 2.571983 1_555
As3 Hf0 2.576262 1_556
As3 Zn2 2.576463 1_555
As3 Rb0 3.668504 1_555
As3 Rb1 3.690617 1_655
As3 Rb1 3.696860 1_545
As3 Rb0 3.724000 1_556
