# generated using pymatgen
data_RbY(GaO2)4
_symmetry_space_group_name_H-M   'P 1'
_cell_length_a   6.66743251
_cell_length_b   6.66743200
_cell_length_c   6.66743289
_cell_angle_alpha   134.17936756
_cell_angle_beta   103.71314493
_cell_angle_gamma   93.78611255
_symmetry_Int_Tables_number   1
_chemical_formula_structural   RbY(GaO2)4
_chemical_formula_sum   'Rb1 Y1 Ga4 O8'
_cell_volume   194.80037424
_cell_formula_units_Z   1
loop_
 _symmetry_equiv_pos_site_id
 _symmetry_equiv_pos_as_xyz
  1  'x, y, z'
loop_
 _atom_site_type_symbol
 _atom_site_label
 _atom_site_symmetry_multiplicity
 _atom_site_fract_x
 _atom_site_fract_y
 _atom_site_fract_z
 _atom_site_occupancy
  Rb  Rb0  1  0.00000000  0.01022794  0.01022794  1
  Y  Y0  1  0.50000000  0.91175507  0.41175507  1
  Ga  Ga0  1  0.87879371  0.62617318  0.16106087  1
  Ga  Ga1  1  0.53488769  0.28226616  0.16106087  1
  Ga  Ga2  1  0.12120629  0.28226616  0.74737847  1
  Ga  Ga3  1  0.46511231  0.62617318  0.74737847  1
  O  O0  1  0.47981948  0.26633130  0.41108861  1
  O  O1  1  0.52018052  0.93126913  0.78651282  1
  O  O2  1  0.78069410  0.59302836  0.37372245  1
  O  O3  1  0.21930590  0.59302836  0.81233426  1
  O  O4  1  0.14475731  0.93126913  0.41108861  1
  O  O5  1  0.85524269  0.26633130  0.78651282  1
  O  O6  1  0.32310731  0.42279719  0.09968988  1
  O  O7  1  0.67689269  0.77658157  0.09968988  1
loop_
_geom_bond_atom_site_label_1
_geom_bond_atom_site_label_2
_geom_bond_distance
_geom_bond_site_symmetry_2
Ga0 O2 1.828789 1_555
Ga0 O5 1.852180 1_554
Ga0 O4 1.859317 1_655
Ga0 O7 1.863958 1_555
Ga1 O2 1.828793 1_555
Ga1 O1 1.852178 1_544
Ga1 O0 1.859312 1_555
Ga1 O6 1.863968 1_555
Ga2 O3 1.828791 1_555
Ga2 O4 1.852178 1_545
Ga2 O5 1.859321 1_455
Ga2 O6 1.863965 1_556
Ga3 O3 1.828793 1_555
Ga3 O0 1.852181 1_555
Ga3 O1 1.859308 1_555
Ga3 O7 1.863970 1_556
O0 Y0 2.379815 1_545
O0 Rb0 3.026104 1_555
O1 Y0 2.379822 1_555
O1 Rb0 3.026103 1_666
O2 Rb0 2.820074 1_666
O3 Rb0 2.820074 1_566
O4 Y0 2.379816 1_555
O4 Rb0 3.026104 1_565
O5 Y0 2.379817 1_545
O5 Rb0 3.026099 1_656
O6 Y0 2.285314 1_555
O6 Rb0 2.980730 1_555
O7 Y0 2.285313 1_555
O7 Rb0 2.980734 1_665
