# generated using pymatgen
data_Y6Al16Os6Pt
_symmetry_space_group_name_H-M   'P 1'
_cell_length_a   8.91769818
_cell_length_b   8.91769897
_cell_length_c   8.91769804
_cell_angle_alpha   60.00000342
_cell_angle_beta   60.00000050
_cell_angle_gamma   59.99999695
_symmetry_Int_Tables_number   1
_chemical_formula_structural   Y6Al16Os6Pt
_chemical_formula_sum   'Y6 Al16 Os6 Pt1'
_cell_volume   501.46813922
_cell_formula_units_Z   1
loop_
 _symmetry_equiv_pos_site_id
 _symmetry_equiv_pos_as_xyz
  1  'x, y, z'
loop_
 _atom_site_type_symbol
 _atom_site_label
 _atom_site_symmetry_multiplicity
 _atom_site_fract_x
 _atom_site_fract_y
 _atom_site_fract_z
 _atom_site_occupancy
  Y  Y0  1  0.71049126  0.71049126  0.28950874  1
  Y  Y1  1  0.28950874  0.71049126  0.28950874  1
  Y  Y2  1  0.71049126  0.28950874  0.28950874  1
  Y  Y3  1  0.28950874  0.28950874  0.71049126  1
  Y  Y4  1  0.71049126  0.28950874  0.71049126  1
  Y  Y5  1  0.28950874  0.71049126  0.71049126  1
  Al  Al0  1  0.87652168  0.87652168  0.37043396  1
  Al  Al1  1  0.87652168  0.37043396  0.87652168  1
  Al  Al2  1  0.37043396  0.87652168  0.87652168  1
  Al  Al3  1  0.87652168  0.87652168  0.87652168  1
  Al  Al4  1  0.12347832  0.12347832  0.62956604  1
  Al  Al5  1  0.12347832  0.62956604  0.12347832  1
  Al  Al6  1  0.62956604  0.12347832  0.12347832  1
  Al  Al7  1  0.12347832  0.12347832  0.12347832  1
  Al  Al8  1  0.66852432  0.66852432  0.99442804  1
  Al  Al9  1  0.66852432  0.99442804  0.66852432  1
  Al  Al10  1  0.99442804  0.66852432  0.66852432  1
  Al  Al11  1  0.66852432  0.66852432  0.66852432  1
  Al  Al12  1  0.33147568  0.33147568  0.00557196  1
  Al  Al13  1  0.33147568  0.00557196  0.33147568  1
  Al  Al14  1  0.00557196  0.33147568  0.33147568  1
  Al  Al15  1  0.33147568  0.33147568  0.33147568  1
  Os  Os0  1  0.00000000  0.00000000  0.50000000  1
  Os  Os1  1  0.50000000  0.00000000  0.50000000  1
  Os  Os2  1  0.00000000  0.50000000  0.50000000  1
  Os  Os3  1  0.50000000  0.50000000  0.00000000  1
  Os  Os4  1  0.00000000  0.50000000  0.00000000  1
  Os  Os5  1  0.50000000  0.00000000  0.00000000  1
  Pt  Pt0  1  0.00000000  0.00000000  0.00000000  1
loop_
_geom_bond_atom_site_label_1
_geom_bond_atom_site_label_2
_geom_bond_distance
_geom_bond_site_symmetry_2
Al0 Pt0 2.697230 1_665
Al0 Os1 2.741735 1_565
Al0 Os2 2.741735 1_655
Al0 Os0 2.741743 1_665
Al0 Y0 3.038820 1_555
Al0 Y1 3.038827 1_655
Al0 Y2 3.038828 1_565
Al1 Pt0 2.697230 1_656
Al1 Os3 2.741735 1_556
Al1 Os2 2.741735 1_655
Al1 Os4 2.741743 1_656
Al1 Y4 3.038820 1_555
Al1 Y3 3.038827 1_655
Al1 Y2 3.038827 1_556
Al2 Pt0 2.697230 1_566
Al2 Os1 2.741735 1_565
Al2 Os3 2.741735 1_556
Al2 Os5 2.741743 1_566
Al2 Y5 3.038820 1_555
Al2 Y1 3.038827 1_556
Al2 Y3 3.038828 1_565
Al3 Pt0 2.697237 1_666
Al3 Os5 2.741735 1_566
Al3 Os0 2.741735 1_665
Al3 Os4 2.741735 1_656
Al3 Y5 3.038826 1_655
Al3 Y0 3.038826 1_556
Al3 Y4 3.038827 1_565
Al4 Pt0 2.697230 1_556
Al4 Os1 2.741735 1_555
Al4 Os2 2.741735 1_555
Al4 Os0 2.741743 1_555
Al4 Y3 3.038820 1_555
Al4 Y4 3.038827 1_455
Al4 Y5 3.038828 1_545
Al5 Pt0 2.697230 1_565
Al5 Os3 2.741735 1_555
Al5 Os2 2.741735 1_555
Al5 Os4 2.741743 1_555
Al5 Y1 3.038820 1_555
Al5 Y0 3.038827 1_455
Al5 Y5 3.038827 1_554
Al6 Pt0 2.697230 1_655
Al6 Os1 2.741735 1_555
Al6 Os3 2.741735 1_555
Al6 Os5 2.741743 1_555
Al6 Y2 3.038820 1_555
Al6 Y4 3.038827 1_554
Al6 Y0 3.038828 1_545
Al7 Pt0 2.697237 1_555
Al7 Os5 2.741735 1_555
Al7 Os0 2.741735 1_555
Al7 Os4 2.741735 1_555
Al7 Y2 3.038826 1_455
Al7 Y3 3.038826 1_554
Al7 Y1 3.038827 1_545
Al8 Os4 2.574635 1_656
Al8 Os5 2.574635 1_566
Al8 Os3 2.574643 1_556
Al8 Y0 3.051932 1_556
Al8 Y1 3.051938 1_556
Al8 Y2 3.051938 1_556
Al9 Os5 2.574635 1_566
Al9 Os0 2.574635 1_665
Al9 Os1 2.574643 1_565
Al9 Y4 3.051933 1_565
Al9 Y3 3.051938 1_565
Al9 Y2 3.051938 1_565
Al10 Os4 2.574635 1_656
Al10 Os0 2.574635 1_665
Al10 Os2 2.574643 1_655
Al10 Y5 3.051932 1_655
Al10 Y1 3.051938 1_655
Al10 Y3 3.051938 1_655
Al11 Os2 2.574637 1_655
Al11 Os1 2.574638 1_565
Al11 Os3 2.574638 1_556
Al11 Y0 3.051941 1_555
Al11 Y5 3.051941 1_555
Al11 Y4 3.051941 1_555
Al12 Os4 2.574635 1_555
Al12 Os5 2.574635 1_555
Al12 Os3 2.574643 1_555
Al12 Y3 3.051932 1_554
Al12 Y4 3.051938 1_554
Al12 Y5 3.051938 1_554
Al13 Os5 2.574635 1_555
Al13 Os0 2.574635 1_555
Al13 Os1 2.574643 1_555
Al13 Y1 3.051933 1_545
Al13 Y0 3.051938 1_545
Al13 Y5 3.051938 1_545
Al14 Os4 2.574635 1_555
Al14 Os0 2.574635 1_555
Al14 Os2 2.574643 1_555
Al14 Y2 3.051932 1_455
Al14 Y4 3.051938 1_455
Al14 Y0 3.051938 1_455
Al15 Os2 2.574637 1_555
Al15 Os1 2.574638 1_555
Al15 Os3 2.574638 1_555
Al15 Y3 3.051941 1_555
Al15 Y2 3.051941 1_555
Al15 Y1 3.051941 1_555
Os0 Y4 3.192011 1_455
Os0 Y5 3.192011 1_545
Os0 Y2 3.192011 1_455
Os0 Y1 3.192011 1_545
Os1 Y3 3.192011 1_555
Os1 Y0 3.192011 1_545
Os1 Y2 3.192012 1_555
Os1 Y5 3.192012 1_545
Os2 Y3 3.192011 1_555
Os2 Y0 3.192011 1_455
Os2 Y1 3.192012 1_555
Os2 Y4 3.192012 1_455
Os3 Y2 3.192011 1_555
Os3 Y1 3.192011 1_555
Os3 Y5 3.192011 1_554
Os3 Y4 3.192011 1_554
Os4 Y0 3.192011 1_455
Os4 Y3 3.192011 1_554
Os4 Y5 3.192012 1_554
Os4 Y2 3.192012 1_455
Os5 Y0 3.192011 1_545
Os5 Y3 3.192011 1_554
Os5 Y4 3.192012 1_554
Os5 Y1 3.192012 1_545
