# generated using pymatgen
data_Ga2CuO4
_symmetry_space_group_name_H-M   'P 1'
_cell_length_a   6.03773633
_cell_length_b   6.03773633
_cell_length_c   6.03773633
_cell_angle_alpha   123.43040421
_cell_angle_beta   121.79098109
_cell_angle_gamma   85.54100065
_symmetry_Int_Tables_number   1
_chemical_formula_structural   Ga2CuO4
_chemical_formula_sum   'Ga4 Cu2 O8'
_cell_volume   148.95940225
_cell_formula_units_Z   2
loop_
 _symmetry_equiv_pos_site_id
 _symmetry_equiv_pos_as_xyz
  1  'x, y, z'
loop_
 _atom_site_type_symbol
 _atom_site_label
 _atom_site_symmetry_multiplicity
 _atom_site_fract_x
 _atom_site_fract_y
 _atom_site_fract_z
 _atom_site_occupancy
  Ga  Ga0  1  0.61089500  0.86089500  0.75000000  1
  Ga  Ga1  1  0.38910500  0.13910500  0.25000000  1
  Ga  Ga2  1  0.00000000  0.50000000  0.50000000  1
  Ga  Ga3  1  0.50000000  0.50000000  0.00000000  1
  Cu  Cu0  1  0.00000000  0.50000000  0.00000000  1
  Cu  Cu1  1  0.00000000  0.00000000  0.50000000  1
  O  O0  1  0.26169400  0.74695000  0.98525600  1
  O  O1  1  0.77948300  0.26644100  0.51304200  1
  O  O2  1  0.26169400  0.27643700  0.51474400  1
  O  O3  1  0.25339800  0.26644100  0.98695800  1
  O  O4  1  0.74660200  0.73355900  0.01304200  1
  O  O5  1  0.73830600  0.72356300  0.48525600  1
  O  O6  1  0.22051700  0.73355900  0.48695800  1
  O  O7  1  0.73830600  0.25305000  0.01474400  1
loop_
_geom_bond_atom_site_label_1
_geom_bond_atom_site_label_2
_geom_bond_distance
_geom_bond_site_symmetry_2
Ga0 O7 1.889554 1_566
Ga0 O5 1.889554 1_555
Ga0 O4 1.913396 1_556
Ga0 O6 1.913396 1_555
Ga1 O0 1.889554 1_544
Ga1 O2 1.889554 1_555
Ga1 O3 1.913396 1_554
Ga1 O1 1.913396 1_555
Ga2 O0 1.994744 1_555
Ga2 O7 1.994744 1_455
Ga2 O2 1.994748 1_555
Ga2 O5 1.994748 1_455
Ga2 O6 2.071767 1_555
Ga2 O1 2.071767 1_455
Ga3 O5 1.994744 1_555
Ga3 O2 1.994744 1_554
Ga3 O7 1.994744 1_555
Ga3 O0 1.994744 1_554
Ga3 O3 2.071772 1_554
Ga3 O4 2.071772 1_555
Cu0 O4 2.001159 1_455
Cu0 O3 2.001159 1_554
Cu0 O1 2.001163 1_454
Cu0 O6 2.001163 1_555
Cu0 O7 2.321283 1_455
Cu0 O0 2.321283 1_554
Cu1 O4 2.001163 1_445
Cu1 O3 2.001163 1_555
Cu1 O6 2.001163 1_545
Cu1 O1 2.001163 1_455
Cu1 O5 2.321278 1_445
Cu1 O2 2.321278 1_555
