# generated using pymatgen
data_Zr16Ir3Pd5O4
_symmetry_space_group_name_H-M   'P 1'
_cell_length_a   8.85404357
_cell_length_b   8.82380720
_cell_length_c   8.85404401
_cell_angle_alpha   59.88658346
_cell_angle_beta   60.00000204
_cell_angle_gamma   59.88658703
_symmetry_Int_Tables_number   1
_chemical_formula_structural   Zr16Ir3Pd5O4
_chemical_formula_sum   'Zr16 Ir3 Pd5 O4'
_cell_volume   488.28988106
_cell_formula_units_Z   1
loop_
 _symmetry_equiv_pos_site_id
 _symmetry_equiv_pos_as_xyz
  1  'x, y, z'
loop_
 _atom_site_type_symbol
 _atom_site_label
 _atom_site_symmetry_multiplicity
 _atom_site_fract_x
 _atom_site_fract_y
 _atom_site_fract_z
 _atom_site_occupancy
  Zr  Zr0  1  0.31580206  0.68436636  0.31580206  1
  Zr  Zr1  1  0.93338503  0.56868726  0.93338503  1
  Zr  Zr2  1  0.68310505  0.31648685  0.68310505  1
  Zr  Zr3  1  0.68310505  0.31648685  0.31730306  1
  Zr  Zr4  1  0.31580206  0.68436636  0.68402853  1
  Zr  Zr5  1  0.63712957  0.11850563  0.12218290  1
  Zr  Zr6  1  0.93365448  0.93281772  0.56676390  1
  Zr  Zr7  1  0.68402853  0.68436636  0.31580206  1
  Zr  Zr8  1  0.11758442  0.64724774  0.11758442  1
  Zr  Zr9  1  0.12218290  0.11850563  0.63712957  1
  Zr  Zr10  1  0.31730306  0.31648685  0.68310505  1
  Zr  Zr11  1  0.12218290  0.11850563  0.12218290  1
  Zr  Zr12  1  0.56454268  0.56868726  0.93338503  1
  Zr  Zr13  1  0.56676390  0.93281772  0.93365448  1
  Zr  Zr14  1  0.93338503  0.56868726  0.56454268  1
  Zr  Zr15  1  0.56676390  0.93281772  0.56676390  1
  Ir  Ir0  1  0.29830278  0.90286526  0.89941598  1
  Ir  Ir1  1  0.89941598  0.90286526  0.89941598  1
  Ir  Ir2  1  0.89941598  0.90286526  0.29830278  1
  Pd  Pd0  1  0.33955199  0.98134204  0.33955199  1
  Pd  Pd1  1  0.33900085  0.34168356  0.33900085  1
  Pd  Pd2  1  0.98031474  0.34168356  0.33900085  1
  Pd  Pd3  1  0.33900085  0.34168356  0.98031474  1
  Pd  Pd4  1  0.90644318  0.28067147  0.90644318  1
  O  O0  1  0.62544579  0.62349238  0.62544579  1
  O  O1  1  0.12561605  0.62349238  0.62544579  1
  O  O2  1  0.62544579  0.62349238  0.12561605  1
  O  O3  1  0.62532544  0.12402368  0.62532544  1
loop_
_geom_bond_atom_site_label_1
_geom_bond_atom_site_label_2
_geom_bond_distance
_geom_bond_site_symmetry_2
Ir0 Zr12 2.680770 1_555
Ir0 Zr13 2.691294 1_555
Ir0 Zr15 2.691294 1_555
Ir0 Zr8 2.745488 1_556
Ir0 Zr9 2.766826 1_565
Ir0 Zr11 2.766833 1_566
Ir1 Zr1 2.680770 1_555
Ir1 Zr13 2.691294 1_555
Ir1 Zr6 2.691294 1_555
Ir1 Zr8 2.745494 1_656
Ir1 Zr9 2.766832 1_665
Ir1 Zr5 2.766832 1_566
Ir2 Zr14 2.680770 1_555
Ir2 Zr6 2.691294 1_555
Ir2 Zr15 2.691294 1_555
Ir2 Zr8 2.745489 1_655
Ir2 Zr5 2.766826 1_565
Ir2 Zr11 2.766833 1_665
Pd0 Zr11 2.811118 1_565
Pd0 Zr5 2.811139 1_565
Pd0 Zr9 2.811139 1_565
Pd0 Zr0 2.846980 1_555
Pd0 Zr4 2.846986 1_555
Pd0 Zr7 2.846986 1_555
Pd1 Zr0 2.832543 1_555
Pd1 Zr9 2.835688 1_555
Pd1 Zr5 2.835688 1_555
Pd1 Zr3 2.854233 1_555
Pd1 Zr10 2.854233 1_555
Pd1 Zr8 2.862126 1_555
Pd1 Zr12 3.243673 1_554
Pd1 Zr14 3.243673 1_455
Pd1 Zr15 3.258125 1_545
Pd2 Zr7 2.832547 1_555
Pd2 Zr11 2.835686 1_655
Pd2 Zr9 2.835693 1_655
Pd2 Zr3 2.854233 1_555
Pd2 Zr2 2.854233 1_555
Pd2 Zr8 2.862131 1_655
Pd2 Zr14 3.243673 1_555
Pd2 Zr1 3.243673 1_554
Pd2 Zr6 3.258125 1_545
Pd3 Zr4 2.832547 1_555
Pd3 Zr11 2.835686 1_556
Pd3 Zr5 2.835693 1_556
Pd3 Zr10 2.854233 1_555
Pd3 Zr2 2.854233 1_555
Pd3 Zr8 2.862131 1_556
Pd3 Zr12 3.243673 1_555
Pd3 Zr1 3.243673 1_455
Pd3 Zr13 3.258125 1_545
Pd4 Zr5 2.740153 1_556
Pd4 Zr11 2.740153 1_656
Pd4 Zr9 2.740153 1_655
Pd4 Zr1 2.801076 1_555
Pd4 Zr14 2.801082 1_555
Pd4 Zr12 2.801082 1_555
O0 Zr2 2.311908 1_555
O0 Zr15 2.326725 1_555
O0 Zr14 2.329566 1_555
O0 Zr12 2.329566 1_555
O0 Zr4 2.335332 1_555
O0 Zr7 2.335332 1_555
O1 Zr10 2.311908 1_555
O1 Zr6 2.326726 1_455
O1 Zr14 2.329566 1_455
O1 Zr1 2.329566 1_455
O1 Zr4 2.335323 1_555
O1 Zr0 2.335330 1_555
O2 Zr3 2.311908 1_555
O2 Zr13 2.326726 1_554
O2 Zr12 2.329566 1_554
O2 Zr1 2.329566 1_554
O2 Zr7 2.335323 1_555
O2 Zr0 2.335330 1_555
O3 Zr15 2.325656 1_545
O3 Zr13 2.325657 1_545
O3 Zr6 2.325657 1_545
O3 Zr2 2.326540 1_555
O3 Zr3 2.326540 1_555
O3 Zr10 2.326540 1_555
