# generated using pymatgen
data_FeSb12OsPd2
_symmetry_space_group_name_H-M   'P 1'
_cell_length_a   8.05374313
_cell_length_b   8.06301594
_cell_length_c   9.31410145
_cell_angle_alpha   54.95210687
_cell_angle_beta   54.63694595
_cell_angle_gamma   70.45527656
_symmetry_Int_Tables_number   1
_chemical_formula_structural   FeSb12OsPd2
_chemical_formula_sum   'Fe1 Sb12 Os1 Pd2'
_cell_volume   403.80213876
_cell_formula_units_Z   1
loop_
 _symmetry_equiv_pos_site_id
 _symmetry_equiv_pos_as_xyz
  1  'x, y, z'
loop_
 _atom_site_type_symbol
 _atom_site_label
 _atom_site_symmetry_multiplicity
 _atom_site_fract_x
 _atom_site_fract_y
 _atom_site_fract_z
 _atom_site_occupancy
  Fe  Fe0  1  0.00000000  0.50000000  0.50000000  1
  Sb  Sb0  1  0.67729262  0.66609009  0.48531556  1
  Sb  Sb1  1  0.32270738  0.33390991  0.51468444  1
  Sb  Sb2  1  0.65015471  0.65124799  0.19705330  1
  Sb  Sb3  1  0.34984529  0.34875201  0.80294670  1
  Sb  Sb4  1  0.15655426  0.84974935  0.65505879  1
  Sb  Sb5  1  0.84344574  0.15025065  0.34494121  1
  Sb  Sb6  1  0.85335617  0.16782190  0.65214210  1
  Sb  Sb7  1  0.14664383  0.83217810  0.34785790  1
  Sb  Sb8  1  0.81904615  0.49300675  0.83397497  1
  Sb  Sb9  1  0.18095385  0.50699325  0.16602503  1
  Sb  Sb10  1  0.50590671  0.18844381  0.15681728  1
  Sb  Sb11  1  0.49409329  0.81155619  0.84318272  1
  Os  Os0  1  0.50000000  0.00000000  0.50000000  1
  Pd  Pd0  1  0.00000000  0.50000000  0.00000000  1
  Pd  Pd1  1  0.50000000  0.00000000  0.00000000  1
loop_
_geom_bond_atom_site_label_1
_geom_bond_atom_site_label_2
_geom_bond_distance
_geom_bond_site_symmetry_2
Fe0 Sb7 2.529161 1_555
Fe0 Sb6 2.529161 1_455
Fe0 Sb8 2.531697 1_455
Fe0 Sb9 2.531697 1_555
Fe0 Sb1 2.537568 1_555
Fe0 Sb0 2.537568 1_455
Sb0 Sb2 2.887313 1_555
Sb0 Sb3 3.007321 1_555
Sb1 Sb3 2.887313 1_555
Sb1 Sb2 3.007321 1_555
Sb4 Sb6 2.889192 1_465
Sb4 Sb7 2.991820 1_555
Sb5 Sb7 2.889192 1_645
Sb5 Sb6 2.991820 1_555
Sb10 Sb8 2.883999 1_554
Sb10 Sb9 2.991521 1_555
Sb11 Sb9 2.883999 1_556
Sb11 Sb8 2.991521 1_555
Os0 Sb5 2.610159 1_555
Os0 Sb4 2.610159 1_545
Os0 Sb11 2.611974 1_545
Os0 Sb10 2.611974 1_555
Os0 Sb1 2.632647 1_555
Os0 Sb0 2.632647 1_545
Pd0 Sb3 2.660892 1_554
Pd0 Sb2 2.660892 1_455
Pd0 Sb4 2.673708 1_554
Pd0 Sb5 2.673708 1_455
Pd0 Sb9 2.698528 1_555
Pd0 Sb8 2.698528 1_454
Pd1 Sb3 2.665446 1_554
Pd1 Sb2 2.665446 1_545
Pd1 Sb10 2.668707 1_555
Pd1 Sb11 2.668707 1_544
Pd1 Sb6 2.701061 1_554
Pd1 Sb7 2.701061 1_545
