# generated using pymatgen
data_Cs5SrTaAs4
_symmetry_space_group_name_H-M   'P 1'
_cell_length_a   11.14140661
_cell_length_b   11.14140741
_cell_length_c   8.32474271
_cell_angle_alpha   87.06641823
_cell_angle_beta   87.06642430
_cell_angle_gamma   120.95301034
_symmetry_Int_Tables_number   1
_chemical_formula_structural   Cs5SrTaAs4
_chemical_formula_sum   'Cs10 Sr2 Ta2 As8'
_cell_volume   881.40480988
_cell_formula_units_Z   2
loop_
 _symmetry_equiv_pos_site_id
 _symmetry_equiv_pos_as_xyz
  1  'x, y, z'
loop_
 _atom_site_type_symbol
 _atom_site_label
 _atom_site_symmetry_multiplicity
 _atom_site_fract_x
 _atom_site_fract_y
 _atom_site_fract_z
 _atom_site_occupancy
  Cs  Cs0  1  0.46506386  0.52480607  0.49085982  1
  Cs  Cs1  1  0.06379162  0.52914787  0.49885687  1
  Cs  Cs2  1  0.52480607  0.46506386  0.99085982  1
  Cs  Cs3  1  0.52914787  0.06379162  0.99885687  1
  Cs  Cs4  1  0.86630163  0.13943136  0.68554238  1
  Cs  Cs5  1  0.29577029  0.15245672  0.74419391  1
  Cs  Cs6  1  0.85758758  0.72055282  0.64096200  1
  Cs  Cs7  1  0.13943136  0.86630163  0.18554238  1
  Cs  Cs8  1  0.72055282  0.85758758  0.14096200  1
  Cs  Cs9  1  0.15245672  0.29577029  0.24419391  1
  Sr  Sr0  1  0.46377196  0.93669432  0.49344659  1
  Sr  Sr1  1  0.93669432  0.46377196  0.99344659  1
  Ta  Ta0  1  0.67272772  0.32471825  0.39190712  1
  Ta  Ta1  1  0.32471825  0.67272772  0.89190712  1
  As  As0  1  0.69460816  0.34422099  0.68769209  1
  As  As1  1  0.34422099  0.69460816  0.18769209  1
  As  As2  1  0.78523067  0.19652201  0.28699458  1
  As  As3  1  0.41824725  0.18599672  0.34262559  1
  As  As4  1  0.79599470  0.56635341  0.25120803  1
  As  As5  1  0.19652201  0.78523067  0.78699458  1
  As  As6  1  0.56635341  0.79599470  0.75120803  1
  As  As7  1  0.18599672  0.41824725  0.84262559  1
loop_
_geom_bond_atom_site_label_1
_geom_bond_atom_site_label_2
_geom_bond_distance
_geom_bond_site_symmetry_2
As0 Ta0 2.496286 1_555
As0 Cs3 3.553605 1_555
As0 Sr1 3.589119 1_555
As0 Cs6 3.599672 1_555
As0 Cs4 3.654561 1_555
As0 Cs1 3.731466 1_655
As0 Cs2 3.773653 1_555
As0 Cs5 3.801159 1_555
As1 Ta1 2.496287 1_554
As1 Cs1 3.553605 1_555
As1 Sr0 3.589119 1_555
As1 Cs8 3.599672 1_555
As1 Cs7 3.654561 1_555
As1 Cs3 3.731467 1_564
As1 Cs0 3.773653 1_555
As1 Cs9 3.801160 1_555
As2 Ta0 2.496222 1_555
As2 Sr1 3.368918 1_554
As2 Sr0 3.515202 1_545
As2 Cs3 3.578295 1_554
As2 Cs4 3.593051 1_555
As2 Cs9 3.639499 1_655
As2 Cs8 3.743966 1_545
As2 Cs1 3.984289 1_655
As3 Ta0 2.504410 1_555
As3 Sr0 3.272008 1_545
As3 Cs5 3.472420 1_555
As3 Cs3 3.652083 1_554
As3 Cs7 3.682027 1_545
As3 Cs0 3.815933 1_555
As3 Cs2 3.816672 1_554
As3 Cs9 3.848091 1_555
As4 Ta0 2.492993 1_555
As4 Sr1 3.180834 1_554
As4 Cs2 3.537375 1_554
As4 Cs7 3.543025 1_655
As4 Cs6 3.679074 1_555
As4 Cs8 3.828433 1_555
As4 Cs1 3.890825 1_655
As4 Cs0 3.896871 1_555
As5 Ta1 2.496222 1_555
As5 Sr0 3.368918 1_555
As5 Sr1 3.515202 1_455
As5 Cs1 3.578296 1_555
As5 Cs7 3.593051 1_556
As5 Cs5 3.639499 1_565
As5 Cs6 3.743966 1_455
As5 Cs3 3.984289 1_565
As6 Ta1 2.492993 1_555
As6 Sr0 3.180834 1_555
As6 Cs0 3.537375 1_555
As6 Cs4 3.543025 1_565
As6 Cs8 3.679074 1_556
As6 Cs6 3.828433 1_555
As6 Cs3 3.890826 1_565
As6 Cs2 3.896871 1_555
As7 Ta1 2.504410 1_555
As7 Sr1 3.272008 1_455
As7 Cs9 3.472419 1_556
As7 Cs1 3.652082 1_555
As7 Cs4 3.682027 1_455
As7 Cs2 3.815932 1_555
As7 Cs0 3.816672 1_555
As7 Cs5 3.848091 1_555
