# generated using pymatgen
data_Ti10Ga3Si2Au
_symmetry_space_group_name_H-M   'P 1'
_cell_length_a   4.90343463
_cell_length_b   7.58932070
_cell_length_c   7.65801219
_cell_angle_alpha   84.06362129
_cell_angle_beta   71.32797352
_cell_angle_gamma   71.15262872
_symmetry_Int_Tables_number   1
_chemical_formula_structural   Ti10Ga3Si2Au
_chemical_formula_sum   'Ti10 Ga3 Si2 Au1'
_cell_volume   255.50779825
_cell_formula_units_Z   1
loop_
 _symmetry_equiv_pos_site_id
 _symmetry_equiv_pos_as_xyz
  1  'x, y, z'
loop_
 _atom_site_type_symbol
 _atom_site_label
 _atom_site_symmetry_multiplicity
 _atom_site_fract_x
 _atom_site_fract_y
 _atom_site_fract_z
 _atom_site_occupancy
  Ti  Ti0  1  0.24792813  0.50056854  0.50000000  1
  Ti  Ti1  1  0.75150134  0.50056854  0.50000000  1
  Ti  Ti2  1  0.07586350  0.13894777  0.70932624  1
  Ti  Ti3  1  0.92391047  0.86073762  0.29143944  1
  Ti  Ti4  1  0.78563035  0.29480824  0.13393107  1
  Ti  Ti5  1  0.41956041  0.29480824  0.86606893  1
  Ti  Ti6  1  0.21824965  0.70516280  0.85833790  1
  Ti  Ti7  1  0.57658755  0.70516280  0.14166210  1
  Ti  Ti8  1  0.71535091  0.86073762  0.70856056  1
  Ti  Ti9  1  0.28518974  0.13894777  0.29067376  1
  Ga  Ga0  1  0.16298314  0.50093467  0.17309905  1
  Ga  Ga1  1  0.83608319  0.50093467  0.82690095  1
  Ga  Ga2  1  0.33522129  0.82955742  0.50000000  1
  Si  Si0  1  0.25055774  0.99888551  0.00000000  1
  Si  Si1  1  0.75055774  0.99888551  0.00000000  1
  Au  Au0  1  0.66482486  0.17034928  0.50000000  1
loop_
_geom_bond_atom_site_label_1
_geom_bond_atom_site_label_2
_geom_bond_distance
_geom_bond_site_symmetry_2
Ti0 Ti1 2.434196 1_455
Ti0 Ti1 2.469238 1_555
Ga0 Ti0 2.665716 1_555
Ga0 Ti1 2.665720 1_455
Ga0 Ti5 2.674608 1_554
Ga0 Ti6 2.714104 1_554
Ga0 Ti3 2.723133 1_455
Ga0 Ti9 2.736287 1_555
Ga0 Ti7 2.866109 1_555
Ga0 Ti7 2.866109 1_455
Ga0 Ti4 2.878106 1_455
Ga0 Ti4 2.878106 1_555
Ga1 Ti0 2.665714 1_655
Ga1 Ti1 2.665722 1_555
Ga1 Ti4 2.674608 1_556
Ga1 Ti7 2.714104 1_556
Ga1 Ti8 2.723133 1_555
Ga1 Ti2 2.736287 1_655
Ga1 Ti6 2.866104 1_655
Ga1 Ti6 2.866113 1_555
Ga1 Ti5 2.878098 1_655
Ga1 Ti5 2.878114 1_555
Ga2 Ti1 2.666029 1_555
Ga2 Ti0 2.666033 1_555
Ga2 Ti9 2.691527 1_565
Ga2 Ti2 2.691527 1_565
Ga2 Ti6 2.748965 1_555
Ga2 Ti7 2.748965 1_555
Ga2 Ti3 2.889724 1_555
Ga2 Ti8 2.889728 1_555
Ga2 Ti8 2.889728 1_455
Ga2 Ti3 2.889732 1_455
Si0 Si1 2.451717 1_455
Si0 Si1 2.451717 1_555
Si0 Ti8 2.637772 1_554
Si0 Ti3 2.637777 1_455
Si0 Ti9 2.638534 1_565
Si0 Ti2 2.638534 1_564
Si0 Ti5 2.638999 1_564
Si0 Ti4 2.639004 1_465
Si0 Ti7 2.647556 1_555
Si0 Ti6 2.647558 1_554
Si1 Ti3 2.637770 1_555
Si1 Ti8 2.637774 1_554
Si1 Ti2 2.638534 1_664
Si1 Ti9 2.638534 1_565
Si1 Ti4 2.639001 1_565
Si1 Ti5 2.639006 1_564
Si1 Ti6 2.647556 1_654
Si1 Ti7 2.647558 1_555
Au0 Ti1 2.673865 1_555
Au0 Ti0 2.673868 1_555
Au0 Ti8 2.689711 1_545
Au0 Ti3 2.689711 1_545
Au0 Ti4 2.802215 1_555
Au0 Ti5 2.802215 1_555
Au0 Ti9 2.892760 1_555
Au0 Ti2 2.892760 1_555
Au0 Ti2 2.892768 1_655
Au0 Ti9 2.892769 1_655
