# generated using pymatgen
data_Y4Re3(TcB4)3
_symmetry_space_group_name_H-M   'P 1'
_cell_length_a   6.18743966
_cell_length_b   6.19286260
_cell_length_c   7.49404328
_cell_angle_alpha   89.34266617
_cell_angle_beta   89.30930791
_cell_angle_gamma   113.67252825
_symmetry_Int_Tables_number   1
_chemical_formula_structural   Y4Re3(TcB4)3
_chemical_formula_sum   'Y4 Re3 Tc3 B12'
_cell_volume   262.93292644
_cell_formula_units_Z   1
loop_
 _symmetry_equiv_pos_site_id
 _symmetry_equiv_pos_as_xyz
  1  'x, y, z'
loop_
 _atom_site_type_symbol
 _atom_site_label
 _atom_site_symmetry_multiplicity
 _atom_site_fract_x
 _atom_site_fract_y
 _atom_site_fract_z
 _atom_site_occupancy
  Y  Y0  1  0.89914541  0.55430470  0.32193684  1
  Y  Y1  1  0.43976313  0.09998396  0.17769004  1
  Y  Y2  1  0.10052298  0.44395301  0.67826706  1
  Y  Y3  1  0.55724232  0.89980684  0.82249716  1
  Re  Re0  1  0.80722464  0.98996565  0.41014506  1
  Re  Re1  1  0.99003573  0.80589790  0.91110265  1
  Re  Re2  1  0.19373319  0.01029659  0.58890547  1
  Tc  Tc0  1  0.41251829  0.58718933  0.25028150  1
  Tc  Tc1  1  0.58713198  0.41262178  0.75051139  1
  Tc  Tc2  1  0.01027464  0.19501979  0.08820453  1
  B  B0  1  0.75581988  0.84934950  0.13016298  1
  B  B1  1  0.15138762  0.24999229  0.37127338  1
  B  B2  1  0.24796679  0.15045614  0.86942470  1
  B  B3  1  0.84860161  0.75220836  0.62974546  1
  B  B4  1  0.41447956  0.84142271  0.48123248  1
  B  B5  1  0.15824890  0.58510900  0.01905260  1
  B  B6  1  0.58632596  0.15876638  0.51788477  1
  B  B7  1  0.84059482  0.41410805  0.98083903  1
  B  B8  1  0.55748683  0.64988679  0.53448435  1
  B  B9  1  0.34957791  0.44231276  0.96592199  1
  B  B10  1  0.44279515  0.35047973  0.46573566  1
  B  B11  1  0.64912466  0.55686673  0.03470392  1
loop_
_geom_bond_atom_site_label_1
_geom_bond_atom_site_label_2
_geom_bond_distance
_geom_bond_site_symmetry_2
B0 B11 1.819150 1_555
B0 Tc2 2.103901 1_665
B0 Re0 2.257768 1_555
B0 Tc0 2.260365 1_555
B0 Re1 2.265726 1_554
B0 Y3 2.698788 1_554
B0 Y0 2.731684 1_555
B0 Y1 2.965407 1_565
B1 B10 1.810881 1_555
B1 Re0 2.105540 1_445
B1 Tc0 2.237236 1_555
B1 Re2 2.280165 1_555
B1 Tc2 2.280531 1_555
B1 Y2 2.680346 1_555
B1 Y1 2.729640 1_555
B1 Y0 2.912734 1_455
B2 B9 1.820294 1_555
B2 Re1 2.106124 1_445
B2 Tc1 2.240483 1_555
B2 Re2 2.260605 1_555
B2 Tc2 2.281540 1_556
B2 Y1 2.681460 1_556
B2 Y2 2.737043 1_555
B2 Y3 2.928592 1_545
B3 B8 1.811219 1_555
B3 Re2 2.107304 1_665
B3 Tc1 2.246779 1_555
B3 Re1 2.269159 1_555
B3 Re0 2.280149 1_555
B3 Y0 2.697433 1_555
B3 Y3 2.731808 1_555
B3 Y2 2.931442 1_655
B4 B8 1.785960 1_555
B4 B6 1.846538 1_565
B4 Re2 2.179501 1_565
B4 Re0 2.279866 1_555
B4 Tc0 2.349934 1_555
B4 Y3 2.696439 1_555
B4 Y1 2.733066 1_565
B4 Y2 2.832054 1_555
B4 Y0 3.215823 1_455
B5 B9 1.783088 1_554
B5 B7 1.848146 1_454
B5 Re1 2.178300 1_454
B5 Tc2 2.264174 1_555
B5 Tc0 2.351183 1_555
B5 Y2 2.690061 1_554
B5 Y0 2.723134 1_455
B5 Y3 2.836454 1_554
B5 Y1 3.207988 1_565
B6 Re0 2.180120 1_545
B6 Re2 2.278921 1_555
B6 Tc1 2.359542 1_555
B6 Y1 2.695635 1_555
B6 Y3 2.736726 1_545
B6 Y0 2.818601 1_555
B6 Y2 3.211673 1_655
B7 Tc2 2.174785 1_656
B7 Re1 2.274364 1_555
B7 Tc1 2.343718 1_555
B7 Y0 2.690704 1_556
B7 Y2 2.725072 1_655
B7 Y1 2.843100 1_556
B7 Y3 3.206070 1_545
B8 Tc1 2.232158 1_555
B8 Re0 2.235724 1_555
B8 Tc0 2.297143 1_555
B8 Y3 2.670674 1_555
B8 Y2 2.789499 1_555
B8 Y0 2.881279 1_555
B9 Tc2 2.220870 1_556
B9 Tc1 2.228645 1_555
B9 Tc0 2.298065 1_556
B9 Y2 2.667211 1_555
B9 Y3 2.794064 1_555
B9 Y1 2.866783 1_556
B10 B8 1.783579 1_555
B10 B6 1.787573 1_555
B10 Tc0 2.228116 1_555
B10 Re2 2.231394 1_555
B10 Tc1 2.299775 1_555
B10 Y1 2.668510 1_555
B10 Y0 2.785835 1_555
B10 Y2 2.877697 1_555
B11 B9 1.783180 1_554
B11 B7 1.784886 1_554
B11 Tc0 2.226930 1_555
B11 Re1 2.234650 1_554
B11 Tc1 2.295459 1_554
B11 Y0 2.669465 1_555
B11 Y1 2.790265 1_555
B11 Y3 2.876897 1_554
