# generated using pymatgen
data_SrCoTcP2
_symmetry_space_group_name_H-M   'P 1'
_cell_length_a   6.43794149
_cell_length_b   6.43794137
_cell_length_c   6.43794117
_cell_angle_alpha   144.66549690
_cell_angle_beta   144.66550023
_cell_angle_gamma   50.83329218
_symmetry_Int_Tables_number   1
_chemical_formula_structural   SrCoTcP2
_chemical_formula_sum   'Sr1 Co1 Tc1 P2'
_cell_volume   88.79213945
_cell_formula_units_Z   1
loop_
 _symmetry_equiv_pos_site_id
 _symmetry_equiv_pos_as_xyz
  1  'x, y, z'
loop_
 _atom_site_type_symbol
 _atom_site_label
 _atom_site_symmetry_multiplicity
 _atom_site_fract_x
 _atom_site_fract_y
 _atom_site_fract_z
 _atom_site_occupancy
  Sr  Sr0  1  0.00000000  0.00000000  0.00000000  1
  Co  Co0  1  0.25000000  0.75000000  0.50000000  1
  Tc  Tc0  1  0.75000000  0.25000000  0.50000000  1
  P  P0  1  0.65053057  0.65053057  1.00000000  1
  P  P1  1  0.34946943  0.34946943  0.00000000  1
loop_
_geom_bond_atom_site_label_1
_geom_bond_atom_site_label_2
_geom_bond_distance
_geom_bond_site_symmetry_2
Co0 P0 2.270609 1_555
Co0 P0 2.270609 1_454
Co0 P1 2.270609 1_555
Co0 P1 2.270609 1_566
P0 Tc0 2.270609 1_555
P0 Tc0 2.270609 1_566
P0 Sr0 3.271031 1_667
P0 Sr0 3.271031 1_555
P0 Sr0 3.271031 1_656
P0 Sr0 3.271031 1_566
P1 Tc0 2.270609 1_555
P1 Tc0 2.270609 1_454
P1 Sr0 3.271031 1_554
P1 Sr0 3.271031 1_666
P1 Sr0 3.271031 1_565
P1 Sr0 3.271031 1_655
