# generated using pymatgen
data_SrAs2RuRh
_symmetry_space_group_name_H-M   'P 1'
_cell_length_a   6.66341523
_cell_length_b   6.66341576
_cell_length_c   6.66341471
_cell_angle_alpha   144.23063757
_cell_angle_beta   144.23063628
_cell_angle_gamma   51.48254598
_symmetry_Int_Tables_number   1
_chemical_formula_structural   SrAs2RuRh
_chemical_formula_sum   'Sr1 As2 Ru1 Rh1'
_cell_volume   100.53740403
_cell_formula_units_Z   1
loop_
 _symmetry_equiv_pos_site_id
 _symmetry_equiv_pos_as_xyz
  1  'x, y, z'
loop_
 _atom_site_type_symbol
 _atom_site_label
 _atom_site_symmetry_multiplicity
 _atom_site_fract_x
 _atom_site_fract_y
 _atom_site_fract_z
 _atom_site_occupancy
  Sr  Sr0  1  0.00000000  0.00000000  0.00000000  1
  As  As0  1  0.64087358  0.64087358  1.00000000  1
  As  As1  1  0.35912642  0.35912642  0.00000000  1
  Ru  Ru0  1  0.75000000  0.25000000  0.50000000  1
  Rh  Rh0  1  0.25000000  0.75000000  0.50000000  1
loop_
_geom_bond_atom_site_label_1
_geom_bond_atom_site_label_2
_geom_bond_distance
_geom_bond_site_symmetry_2
As0 Ru0 2.429736 1_555
As0 Rh0 2.429736 1_555
As0 Rh0 2.429737 1_656
As0 Ru0 2.429737 1_566
As0 Sr0 3.351848 1_667
As0 Sr0 3.351848 1_566
As0 Sr0 3.351849 1_656
As0 Sr0 3.351849 1_555
As1 Rh0 2.429736 1_555
As1 Ru0 2.429736 1_555
As1 Ru0 2.429737 1_454
As1 Rh0 2.429737 1_544
As1 Sr0 3.351848 1_554
As1 Sr0 3.351848 1_655
As1 Sr0 3.351849 1_565
As1 Sr0 3.351849 1_666
Ru0 Sr0 3.632361 1_655
Ru0 Sr0 3.632361 1_656
Ru0 Sr0 3.632362 1_555
Ru0 Sr0 3.632362 1_666
Rh0 Ru0 2.893975 1_454
Rh0 Ru0 2.893975 1_566
Rh0 Ru0 2.893975 1_465
Rh0 Ru0 2.893975 1_555
