# generated using pymatgen
data_Lu4ReSi4Ir
_symmetry_space_group_name_H-M   'P 1'
_cell_length_a   5.59216919
_cell_length_b   5.59216938
_cell_length_c   9.78416562
_cell_angle_alpha   116.18739893
_cell_angle_beta   116.18739926
_cell_angle_gamma   43.86917510
_symmetry_Int_Tables_number   1
_chemical_formula_structural   Lu4ReSi4Ir
_chemical_formula_sum   'Lu4 Re1 Si4 Ir1'
_cell_volume   186.51027941
_cell_formula_units_Z   1
loop_
 _symmetry_equiv_pos_site_id
 _symmetry_equiv_pos_as_xyz
  1  'x, y, z'
loop_
 _atom_site_type_symbol
 _atom_site_label
 _atom_site_symmetry_multiplicity
 _atom_site_fract_x
 _atom_site_fract_y
 _atom_site_fract_z
 _atom_site_occupancy
  Lu  Lu0  1  0.00694330  0.00694330  0.17798163  1
  Lu  Lu1  1  0.81376039  0.81376039  0.38890123  1
  Lu  Lu2  1  0.18398518  0.18398518  0.60974683  1
  Lu  Lu3  1  0.99572472  0.99572472  0.82103274  1
  Re  Re0  1  0.72960903  0.72960903  0.87259813  1
  Si  Si0  1  0.63794541  0.63794541  0.06141454  1
  Si  Si1  1  0.50971299  0.50971299  0.37667363  1
  Si  Si2  1  0.49344036  0.49344036  0.62096384  1
  Si  Si3  1  0.35955615  0.35955615  0.94017127  1
  Ir  Ir0  1  0.26932146  0.26932146  0.13051716  1
loop_
_geom_bond_atom_site_label_1
_geom_bond_atom_site_label_2
_geom_bond_distance
_geom_bond_site_symmetry_2
Lu0 Si1 2.844403 1_455
Lu0 Si1 2.844403 1_545
Lu0 Si3 2.954728 1_454
Lu0 Si3 2.954728 1_544
Lu0 Si0 2.997752 1_545
Lu0 Si0 2.997753 1_455
Lu0 Re0 3.004378 1_444
Lu1 Si0 2.834227 1_555
Lu1 Si1 2.956739 1_655
Lu1 Si1 2.956740 1_565
Lu1 Si2 2.994450 1_655
Lu1 Si2 2.994450 1_565
Lu1 Si1 3.099275 1_555
Lu2 Si3 2.857716 1_555
Lu2 Si2 2.913776 1_455
Lu2 Si2 2.913776 1_545
Lu2 Si1 2.984946 1_455
Lu2 Si1 2.984946 1_545
Lu2 Si2 3.159771 1_555
Lu2 Re0 3.169151 1_455
Lu2 Re0 3.169151 1_545
Lu3 Si2 2.855160 1_655
Lu3 Si2 2.855160 1_565
Lu3 Si0 2.961491 1_656
Lu3 Si0 2.961491 1_566
Lu3 Re0 3.033535 1_555
Lu3 Si3 3.047146 1_565
Lu3 Si3 3.047146 1_655
Lu3 Re0 3.056339 1_655
Lu3 Re0 3.056339 1_565
Re0 Si3 2.402133 1_655
Re0 Si3 2.402133 1_565
Re0 Si0 2.447231 1_556
Re0 Si2 2.514989 1_555
Si0 Si3 2.547348 1_554
Si1 Si2 2.474952 1_555
Ir0 Si0 2.408675 1_455
Ir0 Si0 2.408675 1_545
Ir0 Si3 2.450255 1_554
Ir0 Si1 2.511035 1_555
Ir0 Lu0 2.971248 1_555
Ir0 Lu3 3.007975 1_444
Ir0 Lu0 3.093140 1_655
Ir0 Lu0 3.093140 1_565
Ir0 Lu1 3.139806 1_455
Ir0 Lu1 3.139806 1_545
