# generated using pymatgen
data_K3Ag2Sb2Au
_symmetry_space_group_name_H-M   'P 1'
_cell_length_a   8.42239888
_cell_length_b   8.21802580
_cell_length_c   8.21802543
_cell_angle_alpha   43.49442550
_cell_angle_beta   43.95777459
_cell_angle_gamma   43.95776599
_symmetry_Int_Tables_number   1
_chemical_formula_structural   K3Ag2Sb2Au
_chemical_formula_sum   'K3 Ag2 Sb2 Au1'
_cell_volume   247.41134882
_cell_formula_units_Z   1
loop_
 _symmetry_equiv_pos_site_id
 _symmetry_equiv_pos_as_xyz
  1  'x, y, z'
loop_
 _atom_site_type_symbol
 _atom_site_label
 _atom_site_symmetry_multiplicity
 _atom_site_fract_x
 _atom_site_fract_y
 _atom_site_fract_z
 _atom_site_occupancy
  K  K0  1  0.50000000  0.50000000  0.50000000  1
  K  K1  1  0.91362704  0.91605785  0.91605785  1
  K  K2  1  0.08637296  0.08394215  0.08394215  1
  Ag  Ag0  1  0.50000000  0.00000000  0.50000000  1
  Ag  Ag1  1  0.50000000  0.50000000  0.00000000  1
  Sb  Sb0  1  0.24486927  0.24142258  0.24142258  1
  Sb  Sb1  1  0.75513073  0.75857742  0.75857742  1
  Au  Au0  1  0.00000000  0.50000000  0.50000000  1
loop_
_geom_bond_atom_site_label_1
_geom_bond_atom_site_label_2
_geom_bond_distance
_geom_bond_site_symmetry_2
K0 Sb0 3.898302 1_565
K0 Sb1 3.898302 1_545
K0 Sb0 3.898302 1_556
K0 Sb1 3.898302 1_554
K0 Sb0 4.068704 1_655
K0 Sb1 4.068704 1_455
K1 Sb1 3.540680 1_555
K1 Sb0 3.554361 1_656
K1 Sb0 3.554361 1_665
K1 Sb0 3.609991 1_566
K2 Sb0 3.540680 1_555
K2 Sb1 3.554361 1_454
K2 Sb1 3.554361 1_445
K2 Sb1 3.609991 1_544
Ag0 Sb1 2.718180 1_545
Ag0 Sb0 2.718180 1_555
Ag0 Ag1 3.044879 1_555
Ag0 Ag1 3.044879 1_546
Ag0 Au0 3.115404 1_645
Ag0 Au0 3.115404 1_555
Ag0 K2 3.593821 1_556
Ag0 K1 3.593821 1_544
Ag0 K2 3.705231 1_655
Ag0 K1 3.705231 1_445
Ag0 K0 4.109013 1_555
Ag0 K0 4.109013 1_545
Ag1 Sb1 2.718181 1_554
Ag1 Sb0 2.718181 1_555
Ag1 Au0 3.115405 1_555
Ag1 Au0 3.115405 1_654
Ag1 K2 3.593820 1_565
Ag1 K1 3.593820 1_544
Ag1 K2 3.705230 1_655
Ag1 K1 3.705230 1_454
Ag1 K0 4.109013 1_555
Ag1 K0 4.109013 1_554
Au0 Sb1 2.686464 1_455
Au0 Sb0 2.686464 1_555
Au0 K2 3.589942 1_556
Au0 K1 3.589942 1_454
Au0 K2 3.589942 1_565
Au0 K1 3.589942 1_445
