# generated using pymatgen
data_Li2Sn8OsRh
_symmetry_space_group_name_H-M   'P 1'
_cell_length_a   7.32944420
_cell_length_b   7.32944396
_cell_length_c   7.32944351
_cell_angle_alpha   125.98424780
_cell_angle_beta   125.98423948
_cell_angle_gamma   79.91404597
_symmetry_Int_Tables_number   1
_chemical_formula_structural   Li2Sn8OsRh
_chemical_formula_sum   'Li2 Sn8 Os1 Rh1'
_cell_volume   248.95912868
_cell_formula_units_Z   1
loop_
 _symmetry_equiv_pos_site_id
 _symmetry_equiv_pos_as_xyz
  1  'x, y, z'
loop_
 _atom_site_type_symbol
 _atom_site_label
 _atom_site_symmetry_multiplicity
 _atom_site_fract_x
 _atom_site_fract_y
 _atom_site_fract_z
 _atom_site_occupancy
  Li  Li0  1  0.50017727  0.50017727  1.00000000  1
  Li  Li1  1  0.99982273  0.99982273  0.00000000  1
  Sn  Sn0  1  0.20441248  0.02038376  0.49738959  1
  Sn  Sn1  1  0.02038376  0.52299317  0.81597128  1
  Sn  Sn2  1  0.70702189  0.20441248  0.18402872  1
  Sn  Sn3  1  0.29558752  0.79297811  0.81597128  1
  Sn  Sn4  1  0.97700683  0.47961624  0.18402872  1
  Sn  Sn5  1  0.79297811  0.97700683  0.49738959  1
  Sn  Sn6  1  0.47961624  0.29558752  0.50261041  1
  Sn  Sn7  1  0.52299317  0.70702189  0.50261041  1
  Os  Os0  1  0.75000000  0.75000000  0.00000000  1
  Rh  Rh0  1  0.25000000  0.25000000  0.00000000  1
loop_
_geom_bond_atom_site_label_1
_geom_bond_atom_site_label_2
_geom_bond_distance
_geom_bond_site_symmetry_2
Li0 Os0 2.807114 1_556
Li0 Rh0 2.811098 1_556
Li0 Sn6 2.927651 1_555
Li0 Sn5 2.927657 1_556
Li0 Sn3 2.927658 1_555
Li0 Sn4 2.927658 1_556
Li0 Sn2 2.949409 1_556
Li0 Sn1 2.949409 1_555
Li0 Sn0 2.949409 1_555
Li0 Sn7 2.949415 1_556
Li1 Os0 2.807114 1_555
Li1 Rh0 2.811098 1_665
Li1 Sn0 2.927651 1_665
Li1 Sn7 2.927657 1_554
Li1 Sn1 2.927658 1_654
Li1 Sn2 2.927658 1_565
Li1 Sn4 2.949409 1_565
Li1 Sn3 2.949409 1_654
Li1 Sn6 2.949410 1_665
Li1 Sn5 2.949416 1_554
Sn0 Sn7 2.974695 1_545
Sn0 Sn6 3.063073 1_555
Sn0 Sn5 3.087172 1_445
Sn0 Sn4 3.298564 1_445
Sn0 Sn3 3.320648 1_545
Sn1 Sn2 2.974694 1_455
Sn1 Sn3 3.063084 1_555
Sn1 Sn4 3.087172 1_456
Sn1 Sn6 3.298565 1_455
Sn1 Sn5 3.320639 1_445
Sn2 Sn4 3.063084 1_555
Sn2 Sn3 3.087172 1_544
Sn2 Sn5 3.298556 1_545
Sn2 Sn6 3.320648 1_555
Sn3 Sn4 2.974694 1_455
Sn3 Sn7 3.298556 1_555
Sn4 Sn7 3.320639 1_655
Sn5 Sn6 2.974695 1_565
Sn5 Sn7 3.063096 1_555
Sn6 Sn7 3.087172 1_555
Os0 Sn5 2.804294 1_555
Os0 Sn7 2.804294 1_554
Os0 Sn6 2.804299 1_554
Os0 Sn0 2.804299 1_665
Os0 Sn2 2.804301 1_565
Os0 Sn1 2.804301 1_654
Os0 Sn4 2.804301 1_555
Os0 Sn3 2.804301 1_554
Rh0 Sn3 2.824842 1_544
Rh0 Sn4 2.824842 1_455
Rh0 Sn1 2.824842 1_554
Rh0 Sn2 2.824843 1_555
Rh0 Sn7 2.824843 1_555
Rh0 Sn5 2.824843 1_444
Rh0 Sn0 2.824848 1_554
Rh0 Sn6 2.824849 1_555
