# generated using pymatgen
data_Bi2WO8
_symmetry_space_group_name_H-M   'P 1'
_cell_length_a   5.45375000
_cell_length_b   5.72327557
_cell_length_c   5.80677431
_cell_angle_alpha   112.11817853
_cell_angle_beta   103.39806496
_cell_angle_gamma   97.50200568
_symmetry_Int_Tables_number   1
_chemical_formula_structural   Bi2WO8
_chemical_formula_sum   'Bi2 W1 O8'
_cell_volume   158.49825479
_cell_formula_units_Z   1
loop_
 _symmetry_equiv_pos_site_id
 _symmetry_equiv_pos_as_xyz
  1  'x, y, z'
loop_
 _atom_site_type_symbol
 _atom_site_label
 _atom_site_symmetry_multiplicity
 _atom_site_fract_x
 _atom_site_fract_y
 _atom_site_fract_z
 _atom_site_occupancy
  Bi  Bi0  1  0.52095300  0.95257600  0.02273800  1
  Bi  Bi1  1  0.76302400  0.77139800  0.50308600  1
  W  W0  1  0.16952000  0.35122800  0.48871700  1
  O  O0  1  0.20212500  0.22571200  0.72528200  1
  O  O1  1  0.13809700  0.72502700  0.70456400  1
  O  O2  1  0.29760600  0.21367600  0.20838200  1
  O  O3  1  0.41341000  0.72787000  0.21874100  1
  O  O4  1  0.53521600  0.58042700  0.68359600  1
  O  O5  1  0.71563900  0.09598600  0.80887700  1
  O  O6  1  0.90334800  0.95501300  0.27264300  1
  O  O7  1  0.82106300  0.38108500  0.32337400  1
loop_
_geom_bond_atom_site_label_1
_geom_bond_atom_site_label_2
_geom_bond_distance
_geom_bond_site_symmetry_2
Bi0 O5 2.119963 1_564
Bi0 O3 2.123190 1_555
Bi0 O2 2.179362 1_565
Bi0 O6 2.242750 1_555
Bi0 O1 2.271465 1_554
Bi0 O4 2.318719 1_554
Bi0 O7 2.478861 1_565
Bi1 O5 2.127166 1_565
Bi1 O3 2.128628 1_555
Bi1 O7 2.182115 1_555
Bi1 O6 2.191830 1_555
Bi1 O1 2.211331 1_655
Bi1 O4 2.224522 1_555
O0 W0 1.760088 1_555
O1 W0 2.086440 1_555
O2 W0 1.860954 1_555
O4 W0 2.032755 1_555
O6 W0 2.231043 1_665
O7 W0 1.981235 1_655
