# generated using pymatgen
data_CsInNiF6
_symmetry_space_group_name_H-M   'P 1'
_cell_length_a   7.52396810
_cell_length_b   7.52396945
_cell_length_c   7.52396825
_cell_angle_alpha   120.97021303
_cell_angle_beta   118.25434418
_cell_angle_gamma   90.68877895
_symmetry_Int_Tables_number   1
_chemical_formula_structural   CsInNiF6
_chemical_formula_sum   'Cs2 In2 Ni2 F12'
_cell_volume   302.71158851
_cell_formula_units_Z   2
loop_
 _symmetry_equiv_pos_site_id
 _symmetry_equiv_pos_as_xyz
  1  'x, y, z'
loop_
 _atom_site_type_symbol
 _atom_site_label
 _atom_site_symmetry_multiplicity
 _atom_site_fract_x
 _atom_site_fract_y
 _atom_site_fract_z
 _atom_site_occupancy
  Cs  Cs0  1  0.84808250  0.59808250  0.25000000  1
  Cs  Cs1  1  0.15191750  0.40191750  0.75000000  1
  In  In0  1  0.50000000  0.00000000  0.50000000  1
  In  In1  1  0.00000000  0.00000000  0.00000000  1
  Ni  Ni0  1  0.50000000  0.00000000  0.00000000  1
  Ni  Ni1  1  0.50000000  0.50000000  0.50000000  1
  F  F0  1  0.56021837  0.32880391  0.64485005  1
  F  F1  1  0.81604614  0.67119609  0.73141546  1
  F  F2  1  0.43978163  0.08463068  0.76858454  1
  F  F3  1  0.18395386  0.91536932  0.85514995  1
  F  F4  1  0.43978163  0.67119609  0.35514995  1
  F  F5  1  0.18395386  0.32880391  0.26858454  1
  F  F6  1  0.56021837  0.91536932  0.23141546  1
  F  F7  1  0.81604614  0.08463068  0.14485005  1
  F  F8  1  0.83250362  0.08250362  0.75000000  1
  F  F9  1  0.16749638  0.91749638  0.25000000  1
  F  F10  1  0.55940955  0.30940955  0.25000000  1
  F  F11  1  0.44059045  0.69059045  0.75000000  1
loop_
_geom_bond_atom_site_label_1
_geom_bond_atom_site_label_2
_geom_bond_distance
_geom_bond_site_symmetry_2
Cs0 F10 3.053106 1_555
Cs0 F0 3.254332 1_554
Cs0 F3 3.254332 1_655
Cs0 F5 3.254332 1_655
Cs0 F6 3.254337 1_555
Cs0 F9 3.378233 1_655
Cs1 F11 3.053106 1_555
Cs1 F4 3.254332 1_556
Cs1 F7 3.254332 1_455
Cs1 F1 3.254332 1_455
Cs1 F2 3.254337 1_555
Cs1 F8 3.378233 1_455
F0 Ni1 2.010841 1_555
F0 In0 2.060086 1_555
F1 Ni1 2.010841 1_555
F1 In1 2.060086 1_666
F2 Ni0 2.010842 1_556
F2 In0 2.060081 1_555
F3 Ni0 2.010841 1_566
F3 In1 2.060086 1_566
F4 Ni1 2.010841 1_555
F4 In0 2.060086 1_565
F5 Ni1 2.010841 1_555
F5 In1 2.060086 1_555
F6 Ni0 2.010842 1_565
F6 In0 2.060081 1_565
F7 Ni0 2.010841 1_555
F7 In1 2.060086 1_655
F8 In0 2.118458 1_555
F8 In1 2.118458 1_656
F9 In0 2.118458 1_565
F9 In1 2.118458 1_565
F10 Ni1 1.956956 1_555
F10 Ni0 1.956957 1_555
F11 Ni1 1.956956 1_555
F11 Ni0 1.956957 1_566
