# generated using pymatgen
data_Zr6Ga2Te
_symmetry_space_group_name_H-M   'P 1'
_cell_length_a   7.59652669
_cell_length_b   7.59652669
_cell_length_c   3.83637436
_cell_angle_alpha   90.00000000
_cell_angle_beta   90.00000000
_cell_angle_gamma   119.99999999
_symmetry_Int_Tables_number   1
_chemical_formula_structural   Zr6Ga2Te
_chemical_formula_sum   'Zr6 Ga2 Te1'
_cell_volume   191.72632485
_cell_formula_units_Z   1
loop_
 _symmetry_equiv_pos_site_id
 _symmetry_equiv_pos_as_xyz
  1  'x, y, z'
loop_
 _atom_site_type_symbol
 _atom_site_label
 _atom_site_symmetry_multiplicity
 _atom_site_fract_x
 _atom_site_fract_y
 _atom_site_fract_z
 _atom_site_occupancy
  Zr  Zr0  1  0.25756413  0.01219431  0.50000000  1
  Zr  Zr1  1  0.98780569  0.24536982  0.50000000  1
  Zr  Zr2  1  0.75463018  0.74243587  0.50000000  1
  Zr  Zr3  1  0.60047859  0.00720781  0.00000000  1
  Zr  Zr4  1  0.99279219  0.59327078  0.00000000  1
  Zr  Zr5  1  0.40672922  0.39952141  0.00000000  1
  Ga  Ga0  1  0.66666700  0.33333300  0.50000000  1
  Ga  Ga1  1  0.00000000  0.00000000  0.00000000  1
  Te  Te0  1  0.33333300  0.66666700  0.50000000  1
loop_
_geom_bond_atom_site_label_1
_geom_bond_atom_site_label_2
_geom_bond_distance
_geom_bond_site_symmetry_2
Ga0 Zr1 2.833372 1_555
Ga0 Zr0 2.833377 1_555
Ga0 Zr2 2.833379 1_555
Ga0 Zr3 2.970556 1_555
Ga0 Zr3 2.970556 1_556
Ga0 Zr4 2.970558 1_556
Ga0 Zr4 2.970558 1_555
Ga0 Zr5 2.970562 1_556
Ga0 Zr5 2.970562 1_555
Ga1 Zr0 2.708326 1_555
Ga1 Zr0 2.708326 1_554
Ga1 Zr1 2.708326 1_455
Ga1 Zr1 2.708326 1_454
Ga1 Zr2 2.708326 1_445
Ga1 Zr2 2.708326 1_444
Ga1 Zr3 3.062719 1_455
Ga1 Zr5 3.062719 1_555
Ga1 Zr4 3.062719 1_445
Te0 Zr0 2.954944 1_565
Te0 Zr1 2.954949 1_455
Te0 Zr2 2.954951 1_555
Te0 Zr4 3.039761 1_455
Te0 Zr4 3.039761 1_456
Te0 Zr3 3.039763 1_565
Te0 Zr3 3.039763 1_566
Te0 Zr5 3.039767 1_556
Te0 Zr5 3.039767 1_555
