# generated using pymatgen
data_Rb4CuAs2Au
_symmetry_space_group_name_H-M   'P 1'
_cell_length_a   6.52265668
_cell_length_b   6.52265702
_cell_length_c   6.25648172
_cell_angle_alpha   89.33869855
_cell_angle_beta   89.33870799
_cell_angle_gamma   107.09693237
_symmetry_Int_Tables_number   1
_chemical_formula_structural   Rb4CuAs2Au
_chemical_formula_sum   'Rb4 Cu1 As2 Au1'
_cell_volume   254.37140657
_cell_formula_units_Z   1
loop_
 _symmetry_equiv_pos_site_id
 _symmetry_equiv_pos_as_xyz
  1  'x, y, z'
loop_
 _atom_site_type_symbol
 _atom_site_label
 _atom_site_symmetry_multiplicity
 _atom_site_fract_x
 _atom_site_fract_y
 _atom_site_fract_z
 _atom_site_occupancy
  Rb  Rb0  1  0.98066799  0.31902831  0.74758160  1
  Rb  Rb1  1  0.31902831  0.98066799  0.74758160  1
  Rb  Rb2  1  0.01933201  0.68097169  0.25241840  1
  Rb  Rb3  1  0.68097169  0.01933201  0.25241840  1
  Cu  Cu0  1  0.50000000  0.50000000  0.00000000  1
  As  As0  1  0.73712166  0.73712166  0.76607654  1
  As  As1  1  0.26287834  0.26287834  0.23392346  1
  Au  Au0  1  0.50000000  0.50000000  0.50000000  1
loop_
_geom_bond_atom_site_label_1
_geom_bond_atom_site_label_2
_geom_bond_distance
_geom_bond_site_symmetry_2
Cu0 Rb2 3.630083 1_655
Cu0 Rb0 3.630083 1_454
Cu0 Rb3 3.630083 1_565
Cu0 Rb1 3.630083 1_544
As0 Cu0 2.327065 1_556
As0 Au0 2.503576 1_555
As0 Rb1 3.538949 1_555
As0 Rb0 3.538949 1_555
As0 Rb2 3.644320 1_656
As0 Rb3 3.644320 1_566
As0 Rb1 3.658378 1_655
As0 Rb0 3.658378 1_565
As0 Rb3 3.759970 1_565
As0 Rb2 3.759970 1_655
As1 Cu0 2.327065 1_555
As1 Au0 2.503576 1_555
As1 Rb3 3.538949 1_555
As1 Rb2 3.538949 1_555
As1 Rb0 3.644320 1_454
As1 Rb1 3.644320 1_544
As1 Rb3 3.658378 1_455
As1 Rb2 3.658378 1_545
As1 Rb1 3.759970 1_545
As1 Rb0 3.759970 1_455
Au0 Rb1 3.571134 1_545
Au0 Rb3 3.571134 1_565
Au0 Rb2 3.571134 1_655
Au0 Rb0 3.571134 1_455
