# generated using pymatgen
data_GaCu2SiRh4
_symmetry_space_group_name_H-M   'P 1'
_cell_length_a   7.20521183
_cell_length_b   7.20521241
_cell_length_c   7.20521365
_cell_angle_alpha   33.65729825
_cell_angle_beta   33.65728740
_cell_angle_gamma   33.65730496
_symmetry_Int_Tables_number   1
_chemical_formula_structural   GaCu2SiRh4
_chemical_formula_sum   'Ga1 Cu2 Si1 Rh4'
_cell_volume   102.35895150
_cell_formula_units_Z   1
loop_
 _symmetry_equiv_pos_site_id
 _symmetry_equiv_pos_as_xyz
  1  'x, y, z'
loop_
 _atom_site_type_symbol
 _atom_site_label
 _atom_site_symmetry_multiplicity
 _atom_site_fract_x
 _atom_site_fract_y
 _atom_site_fract_z
 _atom_site_occupancy
  Ga  Ga0  1  0.00000000  0.00000000  0.00000000  1
  Cu  Cu0  1  0.25285882  0.25285882  0.25285882  1
  Cu  Cu1  1  0.74714118  0.74714118  0.74714118  1
  Si  Si0  1  0.50000000  0.50000000  0.50000000  1
  Rh  Rh0  1  0.37953172  0.37953172  0.37953172  1
  Rh  Rh1  1  0.87154637  0.87154637  0.87154637  1
  Rh  Rh2  1  0.62046828  0.62046828  0.62046828  1
  Rh  Rh3  1  0.12845363  0.12845363  0.12845363  1
loop_
_geom_bond_atom_site_label_1
_geom_bond_atom_site_label_2
_geom_bond_distance
_geom_bond_site_symmetry_2
Ga0 Rh0 2.586028 1_554
Ga0 Rh2 2.586028 1_445
Ga0 Rh0 2.586029 1_455
Ga0 Rh2 2.586029 1_544
Ga0 Rh0 2.586030 1_545
Ga0 Rh2 2.586030 1_454
Ga0 Rh3 2.616862 1_555
Ga0 Rh1 2.616862 1_444
Cu0 Rh2 2.507859 1_554
Cu0 Rh2 2.507860 1_455
Cu0 Rh2 2.507860 1_545
Cu0 Rh3 2.534387 1_555
Cu0 Rh0 2.580585 1_555
Cu0 Rh1 2.599451 1_445
Cu0 Rh1 2.599451 1_544
Cu0 Rh1 2.599452 1_454
Cu1 Rh0 2.507859 1_556
Cu1 Rh0 2.507860 1_655
Cu1 Rh0 2.507860 1_565
Cu1 Rh1 2.534387 1_555
Cu1 Rh2 2.580585 1_555
Cu1 Rh3 2.599451 1_665
Cu1 Rh3 2.599451 1_566
Cu1 Rh3 2.599452 1_656
Rh0 Si0 2.454184 1_555
Rh1 Si0 2.531363 1_556
Rh1 Si0 2.531363 1_655
Rh1 Si0 2.531364 1_565
Rh2 Si0 2.454184 1_555
Rh3 Si0 2.531363 1_554
Rh3 Si0 2.531363 1_455
Rh3 Si0 2.531364 1_545
