# generated using pymatgen
data_K4Ba2ZrP4
_symmetry_space_group_name_H-M   'P 1'
_cell_length_a   10.37337066
_cell_length_b   10.37337072
_cell_length_c   7.98227694
_cell_angle_alpha   89.04433769
_cell_angle_beta   89.04433972
_cell_angle_gamma   120.12521148
_symmetry_Int_Tables_number   1
_chemical_formula_structural   K4Ba2ZrP4
_chemical_formula_sum   'K8 Ba4 Zr2 P8'
_cell_volume   742.51495244
_cell_formula_units_Z   2
loop_
 _symmetry_equiv_pos_site_id
 _symmetry_equiv_pos_as_xyz
  1  'x, y, z'
loop_
 _atom_site_type_symbol
 _atom_site_label
 _atom_site_symmetry_multiplicity
 _atom_site_fract_x
 _atom_site_fract_y
 _atom_site_fract_z
 _atom_site_occupancy
  K  K0  1  0.05921859  0.52796976  0.61612689  1
  K  K1  1  0.52796976  0.05921859  0.11612689  1
  K  K2  1  0.27538220  0.13300005  0.81439908  1
  K  K3  1  0.87182380  0.72865332  0.76849182  1
  K  K4  1  0.86266676  0.14350101  0.79179864  1
  K  K5  1  0.72865332  0.87182380  0.26849182  1
  K  K6  1  0.13300005  0.27538220  0.31439908  1
  K  K7  1  0.14350101  0.86266676  0.29179864  1
  Ba  Ba0  1  0.46502380  0.93590836  0.60718630  1
  Ba  Ba1  1  0.46410947  0.52490839  0.61709896  1
  Ba  Ba2  1  0.93590836  0.46502380  0.10718630  1
  Ba  Ba3  1  0.52490839  0.46410947  0.11709896  1
  Zr  Zr0  1  0.66888606  0.33623484  0.51152129  1
  Zr  Zr1  1  0.33623484  0.66888606  0.01152129  1
  P  P0  1  0.66908231  0.34728194  0.83150888  1
  P  P1  1  0.34728194  0.66908231  0.33150888  1
  P  P2  1  0.59878006  0.79359509  0.88463251  1
  P  P3  1  0.20258167  0.39743305  0.92045421  1
  P  P4  1  0.19857271  0.79538476  0.90552942  1
  P  P5  1  0.39743305  0.20258167  0.42045421  1
  P  P6  1  0.79359509  0.59878006  0.38463251  1
  P  P7  1  0.79538476  0.19857271  0.40552942  1
loop_
_geom_bond_atom_site_label_1
_geom_bond_atom_site_label_2
_geom_bond_distance
_geom_bond_site_symmetry_2
K0 P4 3.379530 1_555
K0 P1 3.391969 1_555
K0 P3 3.461003 1_555
K0 P7 3.598591 1_455
K0 P6 3.701700 1_455
K1 P7 3.379530 1_555
K1 P0 3.391969 1_554
K1 P5 3.461003 1_555
K1 P4 3.598591 1_544
K1 P2 3.701700 1_544
K2 P4 3.244091 1_545
K2 P5 3.299467 1_555
K2 P3 3.308603 1_555
K2 P0 3.543306 1_555
K3 P4 3.310305 1_655
K3 P6 3.314409 1_555
K3 P2 3.344281 1_555
K3 P0 3.445811 1_555
K4 P7 3.276206 1_555
K4 P2 3.329609 1_545
K4 P3 3.363660 1_655
K4 P0 3.586604 1_555
K5 P7 3.310305 1_565
K5 P2 3.314409 1_554
K5 P6 3.344281 1_555
K5 P1 3.445811 1_555
K6 P7 3.244091 1_455
K6 P3 3.299467 1_554
K6 P5 3.308603 1_555
K6 P1 3.543306 1_555
K7 P4 3.276206 1_554
K7 P6 3.329609 1_455
K7 P5 3.363660 1_565
K7 P1 3.586604 1_555
Ba0 P1 3.300713 1_555
Ba0 P4 3.325089 1_555
Ba0 P2 3.325468 1_555
Ba0 P7 3.472184 1_565
Ba0 P5 3.494279 1_565
Ba1 P2 3.266516 1_555
Ba1 P1 3.271089 1_555
Ba1 P3 3.323419 1_555
Ba1 P5 3.465822 1_555
Ba1 P6 3.581114 1_555
Ba2 P0 3.300713 1_554
Ba2 P7 3.325089 1_555
Ba2 P6 3.325468 1_555
Ba2 P4 3.472184 1_654
Ba2 P3 3.494279 1_654
Ba3 P6 3.266516 1_555
Ba3 P0 3.271089 1_554
Ba3 P5 3.323419 1_555
Ba3 P3 3.465822 1_554
Ba3 P2 3.581114 1_554
P0 Zr0 2.558697 1_555
P1 Zr1 2.558697 1_555
P2 Zr1 2.538597 1_556
P3 Zr1 2.561817 1_556
P4 Zr1 2.522142 1_556
P5 Zr0 2.561817 1_555
P6 Zr0 2.538597 1_555
P7 Zr0 2.522142 1_555
