# generated using pymatgen
data_Ag3PSe4
_symmetry_space_group_name_H-M   'P 1'
_cell_length_a   6.83922998
_cell_length_b   7.20524313
_cell_length_c   8.05423423
_cell_angle_alpha   90.00000000
_cell_angle_beta   90.00000000
_cell_angle_gamma   90.00000000
_symmetry_Int_Tables_number   1
_chemical_formula_structural   Ag3PSe4
_chemical_formula_sum   'Ag6 P2 Se8'
_cell_volume   396.89909008
_cell_formula_units_Z   2
loop_
 _symmetry_equiv_pos_site_id
 _symmetry_equiv_pos_as_xyz
  1  'x, y, z'
loop_
 _atom_site_type_symbol
 _atom_site_label
 _atom_site_symmetry_multiplicity
 _atom_site_fract_x
 _atom_site_fract_y
 _atom_site_fract_z
 _atom_site_occupancy
  Ag  Ag0  1  0.02265255  0.80009849  0.27235174  1
  Ag  Ag1  1  0.52265255  0.19990151  0.22764826  1
  Ag  Ag2  1  0.52265255  0.19990151  0.77235174  1
  Ag  Ag3  1  0.02265255  0.80009849  0.72764826  1
  Ag  Ag4  1  0.96545264  0.35528293  0.00000000  1
  Ag  Ag5  1  0.46545264  0.64471707  0.50000000  1
  P  P0  1  0.99690847  0.31007062  0.50000000  1
  P  P1  1  0.49690847  0.68992938  0.00000000  1
  Se  Se0  1  0.89691524  0.15581385  0.72630703  1
  Se  Se1  1  0.39691524  0.84418615  0.77369297  1
  Se  Se2  1  0.36277117  0.40844307  0.00000000  1
  Se  Se3  1  0.86277117  0.59155693  0.50000000  1
  Se  Se4  1  0.39691524  0.84418615  0.22630703  1
  Se  Se5  1  0.89691524  0.15581385  0.27369297  1
  Se  Se6  1  0.32182415  0.30484160  0.50000000  1
  Se  Se7  1  0.82182415  0.69515840  0.00000000  1
loop_
_geom_bond_atom_site_label_1
_geom_bond_atom_site_label_2
_geom_bond_distance
_geom_bond_site_symmetry_2
Ag0 Se4 2.605829 1_555
Ag0 Se3 2.610612 1_455
Ag0 Se7 2.696306 1_455
Ag0 Se5 2.703456 1_465
Ag1 Se5 2.605829 1_555
Ag1 Se2 2.610612 1_555
Ag1 Se6 2.696306 1_555
Ag1 Se4 2.703456 1_545
Ag2 Se0 2.605829 1_555
Ag2 Se2 2.610612 1_556
Ag2 Se6 2.696306 1_555
Ag2 Se1 2.703456 1_545
Ag3 Se1 2.605829 1_555
Ag3 Se3 2.610612 1_455
Ag3 Se7 2.696306 1_456
Ag3 Se0 2.703456 1_465
Ag4 Se7 2.638554 1_555
Ag4 Se5 2.672949 1_555
Ag4 Se0 2.672949 1_554
Ag4 Se2 2.744216 1_655
Ag5 Se6 2.638554 1_555
Ag5 Se4 2.672949 1_555
Ag5 Se1 2.672949 1_555
Ag5 Se3 2.744216 1_555
P0 Se6 2.222492 1_655
P0 Se3 2.226010 1_555
P0 Se5 2.241734 1_555
P0 Se0 2.241734 1_555
P1 Se7 2.222492 1_555
P1 Se2 2.226010 1_555
P1 Se4 2.241734 1_555
P1 Se1 2.241734 1_554
