# generated using pymatgen
data_NdTiO3
_symmetry_space_group_name_H-M   'P 1'
_cell_length_a   5.50560400
_cell_length_b   5.73577500
_cell_length_c   7.85485600
_cell_angle_alpha   90.00000000
_cell_angle_beta   90.00000000
_cell_angle_gamma   90.00000000
_symmetry_Int_Tables_number   1
_chemical_formula_structural   NdTiO3
_chemical_formula_sum   'Nd4 Ti4 O12'
_cell_volume   248.04775756
_cell_formula_units_Z   4
loop_
 _symmetry_equiv_pos_site_id
 _symmetry_equiv_pos_as_xyz
  1  'x, y, z'
loop_
 _atom_site_type_symbol
 _atom_site_label
 _atom_site_symmetry_multiplicity
 _atom_site_fract_x
 _atom_site_fract_y
 _atom_site_fract_z
 _atom_site_occupancy
  Nd  Nd0  1  0.01517100  0.93938700  0.75000000  1
  Nd  Nd1  1  0.51517100  0.56061300  0.25000000  1
  Nd  Nd2  1  0.48482900  0.43938700  0.75000000  1
  Nd  Nd3  1  0.98482900  0.06061300  0.25000000  1
  Ti  Ti0  1  0.00000000  0.50000000  0.50000000  1
  Ti  Ti1  1  0.50000000  0.00000000  0.50000000  1
  Ti  Ti2  1  0.50000000  0.00000000  0.00000000  1
  Ti  Ti3  1  0.00000000  0.50000000  0.00000000  1
  O  O0  1  0.70098300  0.29552000  0.45199200  1
  O  O1  1  0.20098300  0.20448000  0.54800800  1
  O  O2  1  0.79901700  0.79552000  0.04800800  1
  O  O3  1  0.29901700  0.70448000  0.95199200  1
  O  O4  1  0.29901700  0.70448000  0.54800800  1
  O  O5  1  0.79901700  0.79552000  0.45199200  1
  O  O6  1  0.20098300  0.20448000  0.95199200  1
  O  O7  1  0.70098300  0.29552000  0.04800800  1
  O  O8  1  0.09434300  0.47300900  0.25000000  1
  O  O9  1  0.59434300  0.02699100  0.75000000  1
  O  O10  1  0.40565700  0.97300900  0.25000000  1
  O  O11  1  0.90565700  0.52699100  0.75000000  1
loop_
_geom_bond_atom_site_label_1
_geom_bond_atom_site_label_2
_geom_bond_distance
_geom_bond_site_symmetry_2
Nd0 O9 2.370773 1_465
Nd0 O6 2.424018 1_565
Nd0 O1 2.424018 1_565
Nd0 O11 2.441046 1_455
Nd0 O3 2.602872 1_555
Nd0 O4 2.602872 1_555
Nd0 O5 2.752556 1_455
Nd0 O2 2.752556 1_456
Nd1 O8 2.370773 1_555
Nd1 O0 2.424018 1_555
Nd1 O7 2.424018 1_555
Nd1 O10 2.441046 1_555
Nd1 O5 2.602872 1_555
Nd1 O2 2.602872 1_555
Nd1 O3 2.752556 1_554
Nd1 O4 2.752556 1_555
Nd2 O11 2.370773 1_555
Nd2 O4 2.424018 1_555
Nd2 O3 2.424018 1_555
Nd2 O9 2.441046 1_555
Nd2 O1 2.602872 1_555
Nd2 O6 2.602872 1_555
Nd2 O0 2.752556 1_555
Nd2 O7 2.752556 1_556
Nd3 O10 2.370773 1_645
Nd3 O2 2.424018 1_545
Nd3 O5 2.424018 1_545
Nd3 O8 2.441046 1_655
Nd3 O0 2.602872 1_555
Nd3 O7 2.602872 1_555
Nd3 O1 2.752556 1_655
Nd3 O6 2.752556 1_654
O0 Ti0 2.056206 1_655
O0 Ti1 2.059069 1_555
O1 Ti1 2.056206 1_555
O1 Ti0 2.059069 1_555
O2 Ti2 2.056206 1_565
O2 Ti3 2.059069 1_655
O3 Ti3 2.056206 1_556
O3 Ti2 2.059069 1_566
O4 Ti0 2.056206 1_555
O4 Ti1 2.059069 1_565
O5 Ti1 2.056206 1_565
O5 Ti0 2.059069 1_655
O6 Ti2 2.056206 1_556
O6 Ti3 2.059069 1_556
O7 Ti3 2.056206 1_655
O7 Ti2 2.059069 1_555
O8 Ti0 2.037138 1_555
O8 Ti3 2.037138 1_555
O9 Ti2 2.037138 1_556
O9 Ti1 2.037138 1_555
O10 Ti1 2.037138 1_565
O10 Ti2 2.037138 1_565
O11 Ti3 2.037138 1_656
O11 Ti0 2.037138 1_655
