# generated using pymatgen
data_RbTa(IO3)6
_symmetry_space_group_name_H-M   'P 1'
_cell_length_a   7.62133726
_cell_length_b   7.62133755
_cell_length_c   7.62133868
_cell_angle_alpha   97.49829359
_cell_angle_beta   97.49828429
_cell_angle_gamma   97.49828334
_symmetry_Int_Tables_number   1
_chemical_formula_structural   RbTa(IO3)6
_chemical_formula_sum   'Rb1 Ta1 I6 O18'
_cell_volume   430.21656306
_cell_formula_units_Z   1
loop_
 _symmetry_equiv_pos_site_id
 _symmetry_equiv_pos_as_xyz
  1  'x, y, z'
loop_
 _atom_site_type_symbol
 _atom_site_label
 _atom_site_symmetry_multiplicity
 _atom_site_fract_x
 _atom_site_fract_y
 _atom_site_fract_z
 _atom_site_occupancy
  Rb  Rb0  1  0.64903288  0.64903288  0.64903288  1
  Ta  Ta0  1  0.00613400  0.00613400  0.00613400  1
  I  I0  1  0.61731270  0.84086107  0.20346188  1
  I  I1  1  0.20346188  0.61731270  0.84086107  1
  I  I2  1  0.84086107  0.20346188  0.61731270  1
  I  I3  1  0.38204523  0.16092458  0.78542902  1
  I  I4  1  0.78542902  0.38204523  0.16092458  1
  I  I5  1  0.16092458  0.78542902  0.38204523  1
  O  O0  1  0.78743749  0.84559375  0.04582533  1
  O  O1  1  0.04582533  0.78743749  0.84559375  1
  O  O2  1  0.84559375  0.04582533  0.78743749  1
  O  O3  1  0.20913217  0.15353765  0.94398436  1
  O  O4  1  0.94398436  0.20913217  0.15353765  1
  O  O5  1  0.15353765  0.94398436  0.20913217  1
  O  O6  1  0.58272037  0.60086462  0.18625741  1
  O  O7  1  0.18625741  0.58272037  0.60086462  1
  O  O8  1  0.60086462  0.18625741  0.58272037  1
  O  O9  1  0.41759549  0.40115835  0.81128601  1
  O  O10  1  0.81128601  0.41759549  0.40115835  1
  O  O11  1  0.40115835  0.81128601  0.41759549  1
  O  O12  1  0.78471571  0.89531322  0.40174653  1
  O  O13  1  0.40174653  0.78471571  0.89531322  1
  O  O14  1  0.89531322  0.40174653  0.78471571  1
  O  O15  1  0.21200830  0.10313045  0.59204944  1
  O  O16  1  0.59204944  0.21200830  0.10313045  1
  O  O17  1  0.10313045  0.59204944  0.21200830  1
loop_
_geom_bond_atom_site_label_1
_geom_bond_atom_site_label_2
_geom_bond_distance
_geom_bond_site_symmetry_2
I0 O6 1.798558 1_555
I0 O12 1.810695 1_555
I0 O0 1.879212 1_555
I0 O11 2.475648 1_555
I0 O13 2.635326 1_554
I1 O7 1.798558 1_555
I1 O13 1.810695 1_555
I1 O1 1.879212 1_555
I1 O9 2.475648 1_555
I1 O14 2.635325 1_455
I2 O8 1.798558 1_555
I2 O14 1.810695 1_555
I2 O2 1.879212 1_555
I2 O10 2.475648 1_555
I2 O12 2.635325 1_545
I3 O9 1.796350 1_555
I3 O15 1.796839 1_555
I3 O3 1.901078 1_555
I3 O8 2.423115 1_555
I3 O16 2.675044 1_556
I4 O10 1.796351 1_555
I4 O16 1.796839 1_555
I4 O4 1.901078 1_555
I4 O6 2.423114 1_555
I4 O17 2.675044 1_655
I5 O11 1.796350 1_555
I5 O17 1.796839 1_555
I5 O5 1.901078 1_555
I5 O7 2.423115 1_555
I5 O15 2.675044 1_565
O0 Ta0 2.015580 1_665
O0 Rb0 3.174055 1_554
O1 Ta0 2.015580 1_566
O1 Rb0 3.174055 1_455
O2 Ta0 2.015580 1_656
O2 Rb0 3.174055 1_545
O3 Ta0 1.938171 1_556
O4 Ta0 1.938171 1_655
O5 Ta0 1.938171 1_565
O9 Rb0 2.918644 1_555
O10 Rb0 2.918644 1_555
O11 Rb0 2.918644 1_555
O12 Rb0 3.011586 1_555
O13 Rb0 3.011585 1_555
O14 Rb0 3.011585 1_555
