# generated using pymatgen
data_Ca(AlI4)2
_symmetry_space_group_name_H-M   'P 1'
_cell_length_a   7.85574932
_cell_length_b   8.31317103
_cell_length_c   15.20737126
_cell_angle_alpha   87.74222495
_cell_angle_beta   90.00000000
_cell_angle_gamma   90.00000000
_symmetry_Int_Tables_number   1
_chemical_formula_structural   Ca(AlI4)2
_chemical_formula_sum   'Ca2 Al4 I16'
_cell_volume   992.36446952
_cell_formula_units_Z   2
loop_
 _symmetry_equiv_pos_site_id
 _symmetry_equiv_pos_as_xyz
  1  'x, y, z'
loop_
 _atom_site_type_symbol
 _atom_site_label
 _atom_site_symmetry_multiplicity
 _atom_site_fract_x
 _atom_site_fract_y
 _atom_site_fract_z
 _atom_site_occupancy
  Ca  Ca0  1  0.75954017  0.07465321  0.81264185  1
  Ca  Ca1  1  0.24045983  0.07465321  0.31264185  1
  Al  Al0  1  0.93580751  0.22158411  0.58017440  1
  Al  Al1  1  0.06419249  0.22158411  0.08017440  1
  Al  Al2  1  0.57795568  0.64109465  0.77745259  1
  Al  Al3  1  0.42204432  0.64109465  0.27745259  1
  I  I0  1  0.42693989  0.61624918  0.63507603  1
  I  I1  1  0.57306011  0.61624918  0.13507603  1
  I  I2  1  0.89045894  0.73022754  0.75876980  1
  I  I3  1  0.10954106  0.73022754  0.25876980  1
  I  I4  1  0.94073663  0.48080573  0.49339725  1
  I  I5  1  0.05926337  0.48080573  0.99339725  1
  I  I6  1  0.91670801  0.99001732  0.00104177  1
  I  I7  1  0.08329199  0.99001732  0.50104177  1
  I  I8  1  0.63051364  0.12671301  0.61711292  1
  I  I9  1  0.36948636  0.12671301  0.11711292  1
  I  I10  1  0.56501324  0.38266544  0.87749705  1
  I  I11  1  0.43498676  0.38266544  0.37749705  1
  I  I12  1  0.43809073  0.86388561  0.86763975  1
  I  I13  1  0.56190927  0.86388561  0.36763975  1
  I  I14  1  0.91605283  0.23950620  0.23139758  1
  I  I15  1  0.08394717  0.23950620  0.73139758  1
loop_
_geom_bond_atom_site_label_1
_geom_bond_atom_site_label_2
_geom_bond_distance
_geom_bond_site_symmetry_2
Ca0 I15 3.125038 1_655
Ca0 I8 3.155136 1_555
Ca0 I12 3.167151 1_545
Ca0 I10 3.172292 1_555
Ca0 I6 3.173206 1_546
Ca0 I2 3.179945 1_545
Ca1 I14 3.125038 1_455
Ca1 I9 3.155136 1_555
Ca1 I13 3.167151 1_545
Ca1 I11 3.172292 1_555
Ca1 I7 3.173206 1_545
Ca1 I3 3.179945 1_545
Al0 I4 2.482487 1_555
Al0 I8 2.579643 1_555
Al0 I7 2.584355 1_645
Al0 I15 2.586920 1_655
Al1 I5 2.482487 1_554
Al1 I9 2.579643 1_555
Al1 I6 2.584355 1_445
Al1 I14 2.586920 1_455
Al2 I0 2.484609 1_555
Al2 I2 2.576810 1_555
Al2 I10 2.585146 1_555
Al2 I12 2.592044 1_555
Al3 I1 2.484609 1_555
Al3 I3 2.576810 1_555
Al3 I11 2.585146 1_555
Al3 I13 2.592044 1_555
