# generated using pymatgen
data_Cu2AsIr3S8
_symmetry_space_group_name_H-M   'P 1'
_cell_length_a   6.96324459
_cell_length_b   6.96324507
_cell_length_c   6.96324501
_cell_angle_alpha   60.81653389
_cell_angle_beta   60.81653097
_cell_angle_gamma   60.81653000
_symmetry_Int_Tables_number   1
_chemical_formula_structural   Cu2AsIr3S8
_chemical_formula_sum   'Cu2 As1 Ir3 S8'
_cell_volume   243.13349181
_cell_formula_units_Z   1
loop_
 _symmetry_equiv_pos_site_id
 _symmetry_equiv_pos_as_xyz
  1  'x, y, z'
loop_
 _atom_site_type_symbol
 _atom_site_label
 _atom_site_symmetry_multiplicity
 _atom_site_fract_x
 _atom_site_fract_y
 _atom_site_fract_z
 _atom_site_occupancy
  Cu  Cu0  1  0.99966091  0.99966091  0.99966091  1
  Cu  Cu1  1  0.25033909  0.25033909  0.25033909  1
  As  As0  1  0.62500000  0.62500000  0.62500000  1
  Ir  Ir0  1  0.62500000  0.62500000  0.12500000  1
  Ir  Ir1  1  0.12500000  0.62500000  0.62500000  1
  Ir  Ir2  1  0.62500000  0.12500000  0.62500000  1
  S  S0  1  0.38020458  0.38020458  0.84576644  1
  S  S1  1  0.38488380  0.38488380  0.38488380  1
  S  S2  1  0.86511620  0.86511620  0.86511620  1
  S  S3  1  0.86979542  0.86979542  0.40423356  1
  S  S4  1  0.38020458  0.84576644  0.38020458  1
  S  S5  1  0.84576644  0.38020458  0.38020458  1
  S  S6  1  0.40423356  0.86979542  0.86979542  1
  S  S7  1  0.86979542  0.40423356  0.86979542  1
loop_
_geom_bond_atom_site_label_1
_geom_bond_atom_site_label_2
_geom_bond_distance
_geom_bond_site_symmetry_2
Cu0 S2 2.280585 1_555
Cu0 S6 2.323893 1_655
Cu0 S3 2.323893 1_556
Cu0 S7 2.323893 1_565
Cu1 S1 2.280585 1_555
Cu1 S5 2.323893 1_455
Cu1 S0 2.323893 1_554
Cu1 S4 2.323893 1_545
As0 S6 2.428372 1_555
As0 S5 2.428372 1_555
As0 S4 2.428372 1_555
As0 S7 2.428372 1_555
As0 S3 2.428372 1_555
As0 S0 2.428372 1_555
Ir0 S4 2.362465 1_555
Ir0 S7 2.362465 1_554
Ir0 S5 2.362465 1_555
Ir0 S6 2.362465 1_554
Ir0 S2 2.385525 1_554
Ir0 S1 2.385525 1_555
Ir1 S0 2.362465 1_555
Ir1 S3 2.362465 1_455
Ir1 S4 2.362465 1_555
Ir1 S7 2.362465 1_455
Ir1 S2 2.385525 1_455
Ir1 S1 2.385525 1_555
Ir2 S0 2.362465 1_555
Ir2 S3 2.362465 1_545
Ir2 S5 2.362465 1_555
Ir2 S6 2.362465 1_545
Ir2 S2 2.385525 1_545
Ir2 S1 2.385525 1_555
