# generated using pymatgen
data_TaBe6Nb5Ru6
_symmetry_space_group_name_H-M   'P 1'
_cell_length_a   7.28654388
_cell_length_b   7.28815482
_cell_length_c   7.28654431
_cell_angle_alpha   126.49848076
_cell_angle_beta   128.62641690
_cell_angle_gamma   77.34238670
_symmetry_Int_Tables_number   1
_chemical_formula_structural   TaBe6Nb5Ru6
_chemical_formula_sum   'Ta1 Be6 Nb5 Ru6'
_cell_volume   235.77029366
_cell_formula_units_Z   1
loop_
 _symmetry_equiv_pos_site_id
 _symmetry_equiv_pos_as_xyz
  1  'x, y, z'
loop_
 _atom_site_type_symbol
 _atom_site_label
 _atom_site_symmetry_multiplicity
 _atom_site_fract_x
 _atom_site_fract_y
 _atom_site_fract_z
 _atom_site_occupancy
  Ta  Ta0  1  0.24999527  0.09600293  0.34600765  1
  Be  Be0  1  0.74990597  0.50358288  0.25367790  1
  Be  Be1  1  0.24998229  0.50331296  0.75332968  1
  Be  Be2  1  0.66663743  0.16900506  0.50345512  1
  Be  Be3  1  0.33449458  0.83719979  0.50363352  1
  Be  Be4  1  0.16554894  0.16900506  0.00236763  1
  Be  Be5  1  0.83356627  0.83719979  0.00270521  1
  Nb  Nb0  1  0.95466586  0.91116945  0.45650559  1
  Nb  Nb1  1  0.04572916  0.50402112  0.95829196  1
  Nb  Nb2  1  0.54519615  0.50189172  0.45669458  1
  Nb  Nb3  1  0.45417106  0.91233628  0.95816521  1
  Nb  Nb4  1  0.74997657  0.09473760  0.84476103  1
  Ru  Ru0  1  0.49922964  0.75787283  0.25714503  1
  Ru  Ru1  1  0.00072780  0.75787283  0.75864319  1
  Ru  Ru2  1  0.87397922  0.24892273  0.37632528  1
  Ru  Ru3  1  0.12745970  0.50237112  0.37623749  1
  Ru  Ru4  1  0.37259645  0.24892273  0.87494351  1
  Ru  Ru5  1  0.62613463  0.50237112  0.87491142  1
loop_
_geom_bond_atom_site_label_1
_geom_bond_atom_site_label_2
_geom_bond_distance
_geom_bond_site_symmetry_2
Be0 Ru2 2.299963 1_555
Be0 Ru4 2.299972 1_554
Be0 Ru1 2.300012 1_655
Be0 Ru0 2.300016 1_555
Be0 Ru3 2.301609 1_655
Be0 Ru5 2.301616 1_554
Be0 Nb4 2.682582 1_554
Be0 Nb2 2.682905 1_555
Be0 Nb0 2.683512 1_555
Be1 Ru2 2.293682 1_455
Be1 Ru4 2.293686 1_555
Be1 Ru3 2.294469 1_555
Be1 Ru5 2.294481 1_555
Be1 Ru1 2.295162 1_555
Be1 Ru0 2.295166 1_556
Be1 Ta0 2.672126 1_555
Be1 Nb3 2.684443 1_555
Be1 Nb1 2.684771 1_555
Be2 Ru0 2.481657 1_545
Be2 Ru5 2.485180 1_555
Be2 Ru2 2.500928 1_555
Be2 Nb4 2.533464 1_555
Be2 Nb3 2.535881 1_544
Be2 Ta0 2.539536 1_555
Be2 Nb2 2.539945 1_555
Be2 Nb0 2.540897 1_545
Be2 Nb1 2.544718 1_655
Be3 Ru0 2.480538 1_555
Be3 Ru4 2.484104 1_565
Be3 Ru3 2.502541 1_555
Be3 Nb4 2.532206 1_565
Be3 Nb1 2.536869 1_554
Be3 Ta0 2.537970 1_565
Be3 Nb0 2.539322 1_455
Be3 Nb2 2.542271 1_555
Be3 Nb3 2.544681 1_555
Be4 Ru1 2.481655 1_544
Be4 Ru3 2.485180 1_555
Be4 Ru4 2.500928 1_554
Be4 Nb4 2.533457 1_454
Be4 Nb3 2.535886 1_544
Be4 Ta0 2.539533 1_555
Be4 Nb2 2.539945 1_555
Be4 Nb0 2.540891 1_444
Be4 Nb1 2.544717 1_554
Be5 Ru1 2.480538 1_654
Be5 Ru2 2.484102 1_565
Be5 Ru5 2.502536 1_554
Be5 Nb4 2.532206 1_564
Be5 Nb1 2.536869 1_654
Be5 Ta0 2.537971 1_665
Be5 Nb0 2.539331 1_555
Be5 Nb2 2.542275 1_554
Be5 Nb3 2.544681 1_554
Nb0 Ru4 2.719217 1_665
Nb0 Ru2 2.719228 1_565
Nb0 Ru3 2.829577 1_655
Nb0 Ru5 2.829583 1_554
Nb0 Ru1 2.836697 1_655
Nb0 Ru0 2.836704 1_555
Nb1 Ru5 2.721259 1_455
Nb1 Ru3 2.721266 1_556
Nb1 Ru1 2.826139 1_555
Nb1 Ru0 2.826140 1_556
Nb1 Ru4 2.831991 1_555
Nb1 Ru2 2.831997 1_455
Nb2 Ru3 2.716368 1_555
Nb2 Ru5 2.716369 1_555
Nb2 Ru4 2.830701 1_554
Nb2 Ru2 2.830706 1_555
Nb2 Ru0 2.837621 1_555
Nb2 Ru1 2.837624 1_655
Nb3 Ru4 2.723835 1_565
Nb3 Ru2 2.723836 1_566
Nb3 Ru1 2.825531 1_555
Nb3 Ru0 2.825532 1_556
Nb3 Ru3 2.831530 1_555
Nb3 Ru5 2.831532 1_555
Nb4 Ru1 2.718921 1_645
Nb4 Ru0 2.718922 1_545
Nb4 Ru2 2.824766 1_556
Nb4 Ru4 2.824772 1_555
Nb4 Ru5 2.825767 1_555
Nb4 Ru3 2.825768 1_656
Ru0 Ta0 2.720084 1_565
Ru1 Ta0 2.720084 1_566
Ru2 Ta0 2.814655 1_655
Ru3 Ta0 2.815639 1_555
Ru4 Ta0 2.814659 1_555
Ru5 Ta0 2.815642 1_555
