# generated using pymatgen
data_Zr2V2ReW
_symmetry_space_group_name_H-M   'P 1'
_cell_length_a   5.23841428
_cell_length_b   5.28917111
_cell_length_c   5.23841448
_cell_angle_alpha   120.05492012
_cell_angle_beta   119.44384184
_cell_angle_gamma   90.15589729
_symmetry_Int_Tables_number   1
_chemical_formula_structural   Zr2V2ReW
_chemical_formula_sum   'Zr2 V2 Re1 W1'
_cell_volume   103.26192638
_cell_formula_units_Z   1
loop_
 _symmetry_equiv_pos_site_id
 _symmetry_equiv_pos_as_xyz
  1  'x, y, z'
loop_
 _atom_site_type_symbol
 _atom_site_label
 _atom_site_symmetry_multiplicity
 _atom_site_fract_x
 _atom_site_fract_y
 _atom_site_fract_z
 _atom_site_occupancy
  Zr  Zr0  1  0.37499762  0.12578328  0.25078466  1
  Zr  Zr1  1  0.62500238  0.87421672  0.74921534  1
  V  V0  1  0.50000000  0.50000000  0.00000000  1
  V  V1  1  0.00000000  0.50000000  0.50000000  1
  Re  Re0  1  0.00000000  0.50000000  0.00000000  1
  W  W0  1  0.00000000  0.00000000  0.50000000  1
loop_
_geom_bond_atom_site_label_1
_geom_bond_atom_site_label_2
_geom_bond_distance
_geom_bond_site_symmetry_2
Zr0 Zr1 3.206176 1_544
Zr0 Zr1 3.229606 1_444
Zr0 Zr1 3.229615 1_545
Zr0 Zr1 3.234171 1_555
V0 V1 2.641194 1_655
V0 V1 2.641194 1_554
V0 W0 2.644585 1_665
V0 W0 2.644585 1_554
V0 Zr1 3.071637 1_555
V0 Zr0 3.071637 1_554
V0 Zr1 3.084715 1_554
V0 Zr0 3.084715 1_555
V0 Zr0 3.100320 1_565
V0 Zr1 3.100320 1_544
V1 W0 2.644586 1_555
V1 W0 2.644586 1_565
V1 Zr0 3.071635 1_555
V1 Zr1 3.071635 1_455
V1 Zr1 3.084717 1_555
V1 Zr0 3.084717 1_455
V1 Zr0 3.100317 1_566
V1 Zr1 3.100317 1_444
Re0 V0 2.619207 1_555
Re0 V0 2.619207 1_455
Re0 V1 2.619207 1_555
Re0 V1 2.619207 1_554
Re0 W0 2.629803 1_554
Re0 W0 2.629803 1_565
Re0 Zr0 3.096911 1_555
Re0 Zr1 3.096911 1_454
Re0 Zr1 3.096915 1_555
Re0 Zr0 3.096915 1_454
Re0 Zr0 3.100320 1_565
Re0 Zr1 3.100320 1_444
W0 Zr0 3.064292 1_555
W0 Zr1 3.064292 1_445
W0 Zr0 3.089625 1_556
W0 Zr1 3.089625 1_444
W0 Zr1 3.089630 1_545
W0 Zr0 3.089630 1_455
