# generated using pymatgen
data_Ba3Sc2SeO5
_symmetry_space_group_name_H-M   'P 1'
_cell_length_a   4.18392185
_cell_length_b   4.18392185
_cell_length_c   11.62843619
_cell_angle_alpha   90.00000000
_cell_angle_beta   90.00000000
_cell_angle_gamma   90.00000000
_symmetry_Int_Tables_number   1
_chemical_formula_structural   Ba3Sc2SeO5
_chemical_formula_sum   'Ba3 Sc2 Se1 O5'
_cell_volume   203.55812492
_cell_formula_units_Z   1
loop_
 _symmetry_equiv_pos_site_id
 _symmetry_equiv_pos_as_xyz
  1  'x, y, z'
loop_
 _atom_site_type_symbol
 _atom_site_label
 _atom_site_symmetry_multiplicity
 _atom_site_fract_x
 _atom_site_fract_y
 _atom_site_fract_z
 _atom_site_occupancy
  Ba  Ba0  1  0.00000000  0.00000000  0.00000000  1
  Ba  Ba1  1  0.00000000  0.00000000  0.65697871  1
  Ba  Ba2  1  0.00000000  0.00000000  0.34302129  1
  Sc  Sc0  1  0.50000000  0.50000000  0.82959992  1
  Sc  Sc1  1  0.50000000  0.50000000  0.17040008  1
  Se  Se0  1  0.50000000  0.50000000  0.50000000  1
  O  O0  1  0.50000000  0.00000000  0.80587534  1
  O  O1  1  0.00000000  0.50000000  0.80587534  1
  O  O2  1  0.50000000  0.00000000  0.19412466  1
  O  O3  1  0.00000000  0.50000000  0.19412466  1
  O  O4  1  0.50000000  0.50000000  0.00000000  1
loop_
_geom_bond_atom_site_label_1
_geom_bond_atom_site_label_2
_geom_bond_distance
_geom_bond_site_symmetry_2
Ba0 O4 2.958480 1_445
Ba0 O4 2.958480 1_545
Ba0 O4 2.958480 1_455
Ba0 O4 2.958480 1_555
Ba0 O2 3.077662 1_555
Ba0 O3 3.077662 1_555
Ba0 O3 3.077662 1_545
Ba0 O2 3.077662 1_455
Ba0 O0 3.077662 1_454
Ba0 O0 3.077662 1_554
Ba0 O1 3.077662 1_554
Ba0 O1 3.077662 1_544
Ba1 O1 2.715542 1_555
Ba1 O0 2.715542 1_555
Ba1 O1 2.715542 1_545
Ba1 O0 2.715542 1_455
Ba1 Se0 3.476312 1_455
Ba1 Se0 3.476312 1_545
Ba1 Se0 3.476312 1_445
Ba1 Se0 3.476312 1_555
Ba2 O2 2.715542 1_455
Ba2 O3 2.715542 1_555
Ba2 O3 2.715542 1_545
Ba2 O2 2.715542 1_555
Ba2 Se0 3.476312 1_455
Ba2 Se0 3.476312 1_445
Ba2 Se0 3.476312 1_555
Ba2 Se0 3.476312 1_545
O0 Sc0 2.110074 1_555
O0 Sc0 2.110074 1_545
O1 Sc0 2.110074 1_555
O1 Sc0 2.110074 1_455
O2 Sc1 2.110074 1_545
O2 Sc1 2.110074 1_555
O3 Sc1 2.110074 1_555
O3 Sc1 2.110074 1_455
O4 Sc1 1.981486 1_555
O4 Sc0 1.981486 1_554
