# generated using pymatgen
data_Zr4Al2Fe4Si5
_symmetry_space_group_name_H-M   'P 1'
_cell_length_a   9.70373516
_cell_length_b   9.70373502
_cell_length_c   9.70373511
_cell_angle_alpha   93.77437572
_cell_angle_beta   93.77437220
_cell_angle_gamma   150.26685234
_symmetry_Int_Tables_number   1
_chemical_formula_structural   Zr4Al2Fe4Si5
_chemical_formula_sum   'Zr8 Al4 Fe8 Si10'
_cell_volume   438.00386681
_cell_formula_units_Z   2
loop_
 _symmetry_equiv_pos_site_id
 _symmetry_equiv_pos_as_xyz
  1  'x, y, z'
loop_
 _atom_site_type_symbol
 _atom_site_label
 _atom_site_symmetry_multiplicity
 _atom_site_fract_x
 _atom_site_fract_y
 _atom_site_fract_z
 _atom_site_occupancy
  Zr  Zr0  1  0.50000000  0.30820058  0.80820158  1
  Zr  Zr1  1  0.50000000  0.69179942  0.19179942  1
  Zr  Zr2  1  0.69179942  0.50000000  0.19179942  1
  Zr  Zr3  1  0.30820058  0.50000000  0.80820158  1
  Zr  Zr4  1  0.13863801  0.13863801  0.27727602  1
  Zr  Zr5  1  0.86136199  0.86136199  0.72272398  1
  Zr  Zr6  1  0.86136199  0.13863801  0.00000000  1
  Zr  Zr7  1  0.13863801  0.86136199  1.00000000  1
  Al  Al0  1  0.50000000  0.90262445  0.40262545  1
  Al  Al1  1  0.50000000  0.09737555  0.59737555  1
  Al  Al2  1  0.09737555  0.50000000  0.59737555  1
  Al  Al3  1  0.90262445  0.50000000  0.40262545  1
  Fe  Fe0  1  0.90202939  0.40202939  0.80405778  1
  Fe  Fe1  1  0.59796961  0.09797061  0.19594222  1
  Fe  Fe2  1  0.09797061  0.90202939  0.50000000  1
  Fe  Fe3  1  0.40202939  0.59796961  0.49999900  1
  Fe  Fe4  1  0.09797061  0.59796961  0.19594222  1
  Fe  Fe5  1  0.40202939  0.90202939  0.80405778  1
  Fe  Fe6  1  0.90202939  0.09797061  0.50000000  1
  Fe  Fe7  1  0.59796961  0.40202939  0.49999900  1
  Si  Si0  1  0.00000000  0.30420006  0.30420006  1
  Si  Si1  1  0.00000000  0.69580094  0.69580094  1
  Si  Si2  1  0.69580094  0.00000000  0.69580094  1
  Si  Si3  1  0.30420006  0.00000000  0.30420006  1
  Si  Si4  1  0.29183096  0.29183096  0.58366293  1
  Si  Si5  1  0.70816904  0.70816904  0.41633707  1
  Si  Si6  1  0.70816904  0.29183096  0.00000000  1
  Si  Si7  1  0.29183096  0.70816904  1.00000000  1
  Si  Si8  1  0.24878922  0.24878922  0.00000000  1
  Si  Si9  1  0.75121178  0.75121178  1.00000000  1
loop_
_geom_bond_atom_site_label_1
_geom_bond_atom_site_label_2
_geom_bond_distance
_geom_bond_site_symmetry_2
Al0 Fe6 2.478170 1_565
Al0 Fe4 2.478170 1_555
Al0 Fe3 2.478172 1_555
Al0 Fe1 2.478175 1_565
Al0 Al1 2.583130 1_565
Al0 Zr1 2.796344 1_555
Al0 Si0 2.811188 1_555
Al0 Si0 2.811192 1_665
Al0 Si3 2.900487 1_565
Al0 Si2 2.900487 1_565
Al1 Fe5 2.478164 1_545
Al1 Fe0 2.478167 1_555
Al1 Fe2 2.478173 1_545
Al1 Fe7 2.478183 1_555
Al1 Zr0 2.796344 1_555
Al1 Si1 2.811193 1_545
Al1 Si1 2.811193 1_655
Al1 Si3 2.900484 1_555
Al1 Si2 2.900496 1_555
Al2 Fe0 2.478164 1_455
Al2 Fe5 2.478167 1_555
Al2 Fe6 2.478173 1_455
Al2 Fe3 2.478183 1_555
Al2 Al3 2.583130 1_455
Al2 Zr3 2.796344 1_555
Al2 Si2 2.811193 1_455
Al2 Si2 2.811193 1_565
Al2 Si0 2.900484 1_555
Al2 Si1 2.900496 1_555
Al3 Fe2 2.478170 1_655
Al3 Fe1 2.478170 1_555
Al3 Fe7 2.478172 1_555
Al3 Fe4 2.478175 1_655
Al3 Zr2 2.796344 1_555
Al3 Si3 2.811188 1_555
Al3 Si3 2.811192 1_665
Al3 Si0 2.900487 1_655
Al3 Si1 2.900487 1_655
Fe0 Si7 2.354259 1_655
Fe0 Si6 2.354262 1_556
Fe0 Si1 2.439852 1_655
Fe0 Si2 2.439855 1_555
Fe0 Fe5 2.489677 1_655
Fe0 Fe5 2.489677 1_545
Fe0 Zr7 3.048014 1_655
Fe0 Zr6 3.048016 1_556
Fe0 Zr3 3.147477 1_655
Fe0 Zr0 3.147481 1_555
Fe1 Si6 2.354260 1_555
Fe1 Si7 2.354261 1_544
Fe1 Si3 2.439841 1_555
Fe1 Si0 2.439860 1_655
Fe1 Fe4 2.489677 1_545
Fe1 Fe4 2.489677 1_655
Fe1 Zr7 3.048006 1_544
Fe1 Zr6 3.048023 1_555
Fe1 Zr2 3.147472 1_555
Fe1 Zr1 3.147485 1_545
Fe2 Si4 2.354255 1_565
Fe2 Si5 2.354255 1_455
Fe2 Si3 2.439854 1_565
Fe2 Si1 2.439857 1_555
Fe2 Fe7 2.489677 1_565
Fe2 Fe7 2.489677 1_455
Fe2 Zr5 3.048009 1_455
Fe2 Zr4 3.048009 1_565
Fe2 Zr2 3.147478 1_455
Fe2 Zr0 3.147486 1_565
Fe3 Si5 2.354247 1_555
Fe3 Si4 2.354254 1_555
Fe3 Si0 2.439851 1_555
Fe3 Si2 2.439868 1_565
Fe3 Fe6 2.489677 1_455
Fe3 Fe6 2.489677 1_565
Fe3 Zr4 3.047997 1_555
Fe3 Zr5 3.048010 1_555
Fe3 Zr1 3.147470 1_555
Fe3 Zr3 3.147496 1_555
Fe4 Si7 2.354260 1_554
Fe4 Si6 2.354261 1_455
Fe4 Si0 2.439841 1_555
Fe4 Si3 2.439860 1_565
Fe4 Zr6 3.048006 1_455
Fe4 Zr7 3.048023 1_554
Fe4 Zr1 3.147472 1_555
Fe4 Zr2 3.147485 1_455
Fe5 Si6 2.354259 1_566
Fe5 Si7 2.354262 1_555
Fe5 Si2 2.439852 1_565
Fe5 Si1 2.439855 1_555
Fe5 Zr6 3.048014 1_566
Fe5 Zr7 3.048016 1_555
Fe5 Zr0 3.147477 1_565
Fe5 Zr3 3.147480 1_555
Fe6 Si5 2.354255 1_545
Fe6 Si4 2.354255 1_655
Fe6 Si0 2.439854 1_655
Fe6 Si2 2.439857 1_555
Fe6 Zr4 3.048009 1_655
Fe6 Zr5 3.048009 1_545
Fe6 Zr1 3.147478 1_545
Fe6 Zr3 3.147486 1_655
Fe7 Si5 2.354247 1_555
Fe7 Si4 2.354254 1_555
Fe7 Si3 2.439851 1_555
Fe7 Si1 2.439868 1_655
Fe7 Zr4 3.047997 1_555
Fe7 Zr5 3.048010 1_555
Fe7 Zr2 3.147470 1_555
Fe7 Zr0 3.147496 1_555
Si0 Zr4 2.864218 1_555
Si0 Zr6 2.864219 1_455
Si0 Zr1 2.901922 1_555
Si0 Zr1 2.901922 1_445
Si1 Zr5 2.864208 1_455
Si1 Zr7 2.864208 1_555
Si1 Zr0 2.901916 1_565
Si1 Zr0 2.901920 1_455
Si2 Zr5 2.864208 1_545
Si2 Zr6 2.864208 1_556
Si2 Zr3 2.901916 1_655
Si2 Zr3 2.901920 1_545
Si3 Zr4 2.864219 1_555
Si3 Zr7 2.864219 1_544
Si3 Zr2 2.901922 1_555
Si3 Zr2 2.901922 1_445
Si4 Zr3 2.769633 1_555
Si4 Zr0 2.769633 1_555
Si4 Zr5 2.810609 1_445
Si4 Zr5 2.810614 1_555
Si4 Zr4 2.873576 1_555
Si5 Zr2 2.769626 1_555
Si5 Zr1 2.769626 1_555
Si5 Zr4 2.810609 1_665
Si5 Zr4 2.810614 1_555
Si5 Zr5 2.873576 1_555
Si6 Zr0 2.769627 1_554
Si6 Zr2 2.769633 1_555
Si6 Zr7 2.810616 1_654
Si6 Zr7 2.810616 1_544
Si6 Zr6 2.873566 1_555
Si7 Zr3 2.769627 1_555
Si7 Zr1 2.769633 1_556
Si7 Zr6 2.810616 1_456
Si7 Zr6 2.810616 1_566
Si7 Zr7 2.873566 1_555
Si8 Si9 2.477614 1_444
Si8 Si9 2.501740 1_554
Si8 Zr0 2.834871 1_554
Si8 Zr3 2.834871 1_554
Si8 Zr1 2.834878 1_555
Si8 Zr2 2.834878 1_555
Si8 Zr7 2.880537 1_544
Si8 Zr4 2.880537 1_555
Si8 Zr6 2.880537 1_455
Si8 Zr5 2.880538 1_444
Si9 Zr0 2.834876 1_555
Si9 Zr3 2.834876 1_555
Si9 Zr1 2.834880 1_556
Si9 Zr2 2.834880 1_556
Si9 Zr6 2.880535 1_566
Si9 Zr5 2.880535 1_555
Si9 Zr7 2.880535 1_655
Si9 Zr4 2.880535 1_666
