# generated using pymatgen
data_Li2BeGeS4
_symmetry_space_group_name_H-M   'P 1'
_cell_length_a   6.28326285
_cell_length_b   6.06058675
_cell_length_c   9.85053340
_cell_angle_alpha   51.87485954
_cell_angle_beta   90.00000000
_cell_angle_gamma   90.00000000
_symmetry_Int_Tables_number   1
_chemical_formula_structural   Li2BeGeS4
_chemical_formula_sum   'Li4 Be2 Ge2 S8'
_cell_volume   295.08629179
_cell_formula_units_Z   2
loop_
 _symmetry_equiv_pos_site_id
 _symmetry_equiv_pos_as_xyz
  1  'x, y, z'
loop_
 _atom_site_type_symbol
 _atom_site_label
 _atom_site_symmetry_multiplicity
 _atom_site_fract_x
 _atom_site_fract_y
 _atom_site_fract_z
 _atom_site_occupancy
  Li  Li0  1  0.66769852  0.38943307  0.12970040  1
  Li  Li1  1  0.33230148  0.38943307  0.62970040  1
  Li  Li2  1  0.83670966  0.12946625  0.88761744  1
  Li  Li3  1  0.16329034  0.12946625  0.38761744  1
  Be  Be0  1  0.31897482  0.87738896  0.13666311  1
  Be  Be1  1  0.68102518  0.87738896  0.63666311  1
  Ge  Ge0  1  0.81948325  0.62901262  0.38395684  1
  Ge  Ge1  1  0.18051675  0.62901262  0.88395684  1
  S  S0  1  0.84227187  0.75762109  0.86169539  1
  S  S1  1  0.15772813  0.75762109  0.36169539  1
  S  S2  1  0.64110005  0.97092622  0.15072500  1
  S  S3  1  0.35889995  0.97092622  0.65072500  1
  S  S4  1  0.80051217  0.24203613  0.40409337  1
  S  S5  1  0.19948783  0.24203613  0.90409337  1
  S  S6  1  0.31128124  0.54111466  0.12154845  1
  S  S7  1  0.68871876  0.54111466  0.62154845  1
loop_
_geom_bond_atom_site_label_1
_geom_bond_atom_site_label_2
_geom_bond_distance
_geom_bond_site_symmetry_2
Li0 S6 2.403242 1_555
Li0 S4 2.412213 1_555
Li0 S2 2.419817 1_545
Li0 S0 2.424475 1_554
Li1 S7 2.403242 1_555
Li1 S5 2.412213 1_555
Li1 S3 2.419817 1_545
Li1 S1 2.424475 1_555
Li2 S5 2.413362 1_655
Li2 S0 2.419850 1_545
Li2 S7 2.425748 1_555
Li2 S2 2.464975 1_546
Li3 S4 2.413362 1_455
Li3 S1 2.419850 1_545
Li3 S6 2.425748 1_555
Li3 S3 2.464975 1_545
Be0 S5 2.108208 1_564
Be0 S1 2.116676 1_555
Be0 S2 2.129337 1_555
Be0 S6 2.133705 1_555
Be1 S4 2.108208 1_565
Be1 S0 2.116676 1_555
Be1 S3 2.129337 1_555
Be1 S7 2.133705 1_555
Ge0 S7 2.212892 1_555
Ge0 S2 2.224889 1_555
Ge0 S1 2.227418 1_655
Ge0 S4 2.231500 1_555
Ge1 S6 2.212892 1_556
Ge1 S3 2.224889 1_555
Ge1 S0 2.227418 1_455
Ge1 S5 2.231500 1_555
