# generated using pymatgen
data_Ba4H12RhAu
_symmetry_space_group_name_H-M   'P 1'
_cell_length_a   7.91370041
_cell_length_b   7.91370080
_cell_length_c   6.01727201
_cell_angle_alpha   89.99321946
_cell_angle_beta   89.99321689
_cell_angle_gamma   135.40407084
_symmetry_Int_Tables_number   1
_chemical_formula_structural   Ba4H12RhAu
_chemical_formula_sum   'Ba4 H12 Rh1 Au1'
_cell_volume   264.58142460
_cell_formula_units_Z   1
loop_
 _symmetry_equiv_pos_site_id
 _symmetry_equiv_pos_as_xyz
  1  'x, y, z'
loop_
 _atom_site_type_symbol
 _atom_site_label
 _atom_site_symmetry_multiplicity
 _atom_site_fract_x
 _atom_site_fract_y
 _atom_site_fract_z
 _atom_site_occupancy
  Ba  Ba0  1  0.35884378  0.64115622  0.00000000  1
  Ba  Ba1  1  0.85601662  0.14398338  0.50000000  1
  Ba  Ba2  1  0.64115622  0.35884378  0.00000000  1
  Ba  Ba3  1  0.14398338  0.85601662  0.50000000  1
  H  H0  1  0.00006590  0.50030590  0.24378683  1
  H  H1  1  0.49969410  0.99993410  0.75621317  1
  H  H2  1  0.99993410  0.49969410  0.75621317  1
  H  H3  1  0.50030590  0.00006590  0.24378683  1
  H  H4  1  0.11329353  0.88670647  0.00000000  1
  H  H5  1  0.61412997  0.38587003  0.50000000  1
  H  H6  1  0.88670647  0.11329353  1.00000000  1
  H  H7  1  0.38587003  0.61412997  0.50000000  1
  H  H8  1  0.69735868  0.69735868  0.30349755  1
  H  H9  1  0.30264132  0.30264132  0.69650245  1
  H  H10  1  0.69744404  0.69744404  0.69627394  1
  H  H11  1  0.30255596  0.30255596  0.30372606  1
  Rh  Rh0  1  0.50000000  0.50000000  0.50000000  1
  Au  Au0  1  0.00000000  0.00000000  0.00000000  1
loop_
_geom_bond_atom_site_label_1
_geom_bond_atom_site_label_2
_geom_bond_distance
_geom_bond_site_symmetry_2
Ba0 H2 2.635429 1_454
Ba0 H3 2.635429 1_565
Ba0 H0 2.635761 1_555
Ba0 H1 2.635761 1_554
Ba0 H8 3.002323 1_555
Ba0 H9 3.002323 1_554
Ba0 H10 3.002912 1_554
Ba0 H11 3.002912 1_555
Ba0 H6 3.030238 1_564
Ba0 H6 3.030238 1_454
Ba0 H7 3.034555 1_554
Ba0 H7 3.034555 1_555
Ba1 H3 2.652112 1_555
Ba1 H2 2.652112 1_555
Ba1 H1 2.654887 1_545
Ba1 H0 2.654887 1_655
Ba1 H11 3.023313 1_655
Ba1 H10 3.023313 1_545
Ba1 H9 3.024601 1_655
Ba1 H8 3.024601 1_545
Ba1 H7 3.034300 1_655
Ba1 H7 3.034300 1_545
Ba1 H6 3.042017 1_554
Ba1 H6 3.042017 1_555
Ba2 H0 2.635429 1_655
Ba2 H1 2.635429 1_544
Ba2 H2 2.635761 1_554
Ba2 H3 2.635761 1_555
Ba2 H9 3.002323 1_554
Ba2 H8 3.002323 1_555
Ba2 H11 3.002912 1_555
Ba2 H10 3.002912 1_554
Ba2 H4 3.030238 1_545
Ba2 H4 3.030238 1_655
Ba2 H5 3.034555 1_555
Ba2 H5 3.034555 1_554
Ba3 H1 2.652112 1_555
Ba3 H0 2.652112 1_555
Ba3 H3 2.654887 1_565
Ba3 H2 2.654887 1_455
Ba3 H10 3.023313 1_455
Ba3 H11 3.023313 1_565
Ba3 H8 3.024601 1_455
Ba3 H9 3.024601 1_565
Ba3 H5 3.034300 1_455
Ba3 H5 3.034300 1_565
Ba3 H4 3.042017 1_556
Ba3 H4 3.042017 1_555
H5 Rh0 1.671305 1_555
H7 Rh0 1.671305 1_555
H8 Rh0 1.673889 1_555
H9 Rh0 1.673889 1_555
H10 Rh0 1.673803 1_555
H11 Rh0 1.673803 1_555
Au0 H4 1.659057 1_545
Au0 H6 1.659057 1_454
