# generated using pymatgen
data_Cs3Rb(NiSe16)2
_symmetry_space_group_name_H-M   'P 1'
_cell_length_a   12.66412188
_cell_length_b   12.66412188
_cell_length_c   7.17696369
_cell_angle_alpha   90.00000000
_cell_angle_beta   90.00000000
_cell_angle_gamma   90.00000000
_symmetry_Int_Tables_number   1
_chemical_formula_structural   Cs3Rb(NiSe16)2
_chemical_formula_sum   'Cs3 Rb1 Ni2 Se32'
_cell_volume   1151.04131515
_cell_formula_units_Z   1
loop_
 _symmetry_equiv_pos_site_id
 _symmetry_equiv_pos_as_xyz
  1  'x, y, z'
loop_
 _atom_site_type_symbol
 _atom_site_label
 _atom_site_symmetry_multiplicity
 _atom_site_fract_x
 _atom_site_fract_y
 _atom_site_fract_z
 _atom_site_occupancy
  Cs  Cs0  1  0.50000000  0.00000000  0.00010305  1
  Cs  Cs1  1  0.00000000  0.50000000  0.99989695  1
  Cs  Cs2  1  0.00000000  0.00000000  0.50000000  1
  Rb  Rb0  1  0.50000000  0.50000000  0.50000000  1
  Ni  Ni0  1  0.00000000  0.00000000  0.00000000  1
  Ni  Ni1  1  0.50000000  0.50000000  0.00000000  1
  Se  Se0  1  0.19314054  0.42086825  0.58366567  1
  Se  Se1  1  0.80685946  0.57913175  0.58366567  1
  Se  Se2  1  0.57913175  0.19314054  0.41633433  1
  Se  Se3  1  0.42086825  0.80685946  0.41633433  1
  Se  Se4  1  0.30747796  0.92360599  0.58542655  1
  Se  Se5  1  0.07639401  0.30747796  0.41457345  1
  Se  Se6  1  0.82262698  0.96419590  0.96263100  1
  Se  Se7  1  0.03580410  0.82262698  0.03736900  1
  Se  Se8  1  0.96419590  0.17737302  0.03736900  1
  Se  Se9  1  0.17737302  0.03580410  0.96263100  1
  Se  Se10  1  0.53705004  0.67564224  0.04878379  1
  Se  Se11  1  0.46294996  0.32435776  0.04878379  1
  Se  Se12  1  0.67564224  0.46294996  0.95121621  1
  Se  Se13  1  0.32435776  0.53705004  0.95121621  1
  Se  Se14  1  0.78629276  0.20262182  0.12682336  1
  Se  Se15  1  0.79737818  0.78629276  0.87317664  1
  Se  Se16  1  0.20262182  0.21370724  0.87317664  1
  Se  Se17  1  0.21370724  0.79737818  0.12682336  1
  Se  Se18  1  0.30042369  0.71617243  0.86877356  1
  Se  Se19  1  0.69957631  0.28382757  0.86877356  1
  Se  Se20  1  0.71617243  0.69957631  0.13122644  1
  Se  Se21  1  0.28382757  0.30042369  0.13122644  1
  Se  Se22  1  0.91653473  0.30700031  0.58599210  1
  Se  Se23  1  0.69299969  0.91653473  0.41400790  1
  Se  Se24  1  0.30700031  0.08346527  0.41400790  1
  Se  Se25  1  0.08346527  0.69299969  0.58599210  1
  Se  Se26  1  0.19571574  0.58018025  0.41184118  1
  Se  Se27  1  0.80428426  0.41981975  0.41184118  1
  Se  Se28  1  0.58018025  0.80428426  0.58815882  1
  Se  Se29  1  0.41981975  0.19571574  0.58815882  1
  Se  Se30  1  0.69252204  0.07639401  0.58542655  1
  Se  Se31  1  0.92360599  0.69252204  0.41457345  1
loop_
_geom_bond_atom_site_label_1
_geom_bond_atom_site_label_2
_geom_bond_distance
_geom_bond_site_symmetry_2
Cs0 Se30 3.967078 1_554
Cs0 Se4 3.967078 1_544
Cs0 Se2 3.988834 1_555
Cs0 Se3 3.988834 1_545
Cs0 Se28 3.989399 1_544
Cs0 Se29 3.989399 1_554
Cs0 Se23 3.989436 1_545
Cs0 Se24 3.989436 1_555
Cs0 Se6 4.119658 1_544
Cs0 Se9 4.119658 1_554
Cs0 Se11 4.149153 1_555
Cs0 Se10 4.149153 1_545
Cs1 Se31 3.967078 1_456
Cs1 Se5 3.967078 1_556
Cs1 Se0 3.988834 1_555
Cs1 Se1 3.988834 1_455
Cs1 Se26 3.989399 1_556
Cs1 Se27 3.989399 1_456
Cs1 Se25 3.989436 1_555
Cs1 Se22 3.989436 1_455
Cs1 Se7 4.119658 1_556
Cs1 Se8 4.119658 1_456
Cs1 Se13 4.149153 1_555
Cs1 Se12 4.149153 1_455
Cs2 Ni0 3.588482 1_555
Cs2 Ni0 3.588482 1_556
Cs2 Se9 4.034308 1_555
Cs2 Se8 4.034308 1_455
Cs2 Se6 4.034308 1_445
Cs2 Se7 4.034308 1_545
Cs2 Se5 4.058896 1_555
Cs2 Se4 4.058896 1_545
Cs2 Se30 4.058896 1_455
Cs2 Se31 4.058896 1_445
Cs2 Se24 4.076009 1_555
Cs2 Se22 4.076009 1_455
Cs2 Se25 4.076009 1_545
Cs2 Se23 4.076009 1_445
Rb0 Se12 3.956627 1_555
Rb0 Se10 3.956627 1_555
Rb0 Se13 3.956627 1_555
Rb0 Se11 3.956627 1_555
Rb0 Se26 4.034947 1_555
Rb0 Se28 4.034947 1_555
Rb0 Se29 4.034947 1_555
Rb0 Se27 4.034947 1_555
Rb0 Se1 4.057912 1_555
Rb0 Se3 4.057912 1_555
Rb0 Se2 4.057912 1_555
Rb0 Se0 4.057912 1_555
Ni0 Se9 2.307221 1_554
Ni0 Se8 2.307221 1_455
Ni0 Se7 2.307221 1_545
Ni0 Se6 2.307221 1_444
Ni1 Se10 2.300107 1_555
Ni1 Se12 2.300107 1_554
Ni1 Se13 2.300107 1_554
Ni1 Se11 2.300107 1_555
Ni1 Rb0 3.588482 1_554
Ni1 Rb0 3.588482 1_555
Se0 Se26 2.364801 1_555
Se0 Se5 2.391809 1_555
Se1 Se27 2.364801 1_555
Se1 Se31 2.391809 1_555
Se2 Se29 2.364801 1_555
Se2 Se30 2.391809 1_555
Se3 Se4 2.391809 1_555
Se10 Se20 2.363838 1_555
Se11 Se21 2.363838 1_555
Se12 Se19 2.363838 1_555
Se13 Se18 2.363838 1_555
Se14 Se8 2.364397 1_555
Se14 Se19 2.386122 1_554
Se15 Se6 2.364397 1_555
Se15 Se20 2.386122 1_556
Se16 Se9 2.364397 1_555
Se16 Se21 2.386122 1_556
Se17 Se7 2.364397 1_555
Se17 Se18 2.386122 1_554
Se22 Se5 2.368987 1_655
Se22 Se27 2.371572 1_555
Se23 Se30 2.368987 1_565
Se23 Se28 2.371572 1_555
Se24 Se4 2.368987 1_545
Se24 Se29 2.371572 1_555
Se25 Se31 2.368987 1_455
Se25 Se26 2.371572 1_555
Se28 Se3 2.364801 1_555
