# generated using pymatgen
data_Mn4SnPd8Au3
_symmetry_space_group_name_H-M   'P 1'
_cell_length_a   6.90017212
_cell_length_b   6.90017251
_cell_length_c   6.90017270
_cell_angle_alpha   107.15441255
_cell_angle_beta   107.15440953
_cell_angle_gamma   114.21138677
_symmetry_Int_Tables_number   1
_chemical_formula_structural   Mn4SnPd8Au3
_chemical_formula_sum   'Mn4 Sn1 Pd8 Au3'
_cell_volume   251.59596994
_cell_formula_units_Z   1
loop_
 _symmetry_equiv_pos_site_id
 _symmetry_equiv_pos_as_xyz
  1  'x, y, z'
loop_
 _atom_site_type_symbol
 _atom_site_label
 _atom_site_symmetry_multiplicity
 _atom_site_fract_x
 _atom_site_fract_y
 _atom_site_fract_z
 _atom_site_occupancy
  Mn  Mn0  1  0.25984591  0.25984591  0.51969281  1
  Mn  Mn1  1  0.74015409  0.74015409  0.48030719  1
  Mn  Mn2  1  0.25984591  0.74015409  0.00000000  1
  Mn  Mn3  1  0.74015409  0.25984591  0.00000000  1
  Sn  Sn0  1  0.00000000  0.00000000  0.00000000  1
  Pd  Pd0  1  0.49199789  0.24277227  0.24922462  1
  Pd  Pd1  1  0.50800211  0.75722773  0.75077538  1
  Pd  Pd2  1  0.99354765  0.24277227  0.75077538  1
  Pd  Pd3  1  0.24277227  0.99354765  0.75077538  1
  Pd  Pd4  1  0.00645235  0.75722773  0.24922462  1
  Pd  Pd5  1  0.75722773  0.00645235  0.24922462  1
  Pd  Pd6  1  0.24277227  0.49199789  0.24922462  1
  Pd  Pd7  1  0.75722773  0.50800211  0.75077538  1
  Au  Au0  1  0.50000000  0.00000000  0.50000000  1
  Au  Au1  1  0.00000000  0.50000000  0.50000000  1
  Au  Au2  1  0.50000000  0.50000000  0.00000000  1
loop_
_geom_bond_atom_site_label_1
_geom_bond_atom_site_label_2
_geom_bond_distance
_geom_bond_site_symmetry_2
Mn0 Pd2 2.755787 1_455
Mn0 Pd3 2.755787 1_545
Mn0 Pd7 2.755792 1_555
Mn0 Pd1 2.755793 1_555
Mn0 Pd5 2.802050 1_455
Mn0 Pd4 2.802050 1_545
Mn0 Pd0 2.802060 1_555
Mn0 Pd6 2.802060 1_555
Mn0 Sn0 3.011045 1_555
Mn1 Pd4 2.755787 1_655
Mn1 Pd5 2.755787 1_565
Mn1 Pd6 2.755792 1_555
Mn1 Pd0 2.755793 1_555
Mn1 Pd3 2.802050 1_655
Mn1 Pd2 2.802050 1_565
Mn1 Pd1 2.802060 1_555
Mn1 Pd7 2.802060 1_555
Mn1 Sn0 3.011045 1_666
Mn2 Pd1 2.755787 1_554
Mn2 Pd6 2.755787 1_555
Mn2 Pd5 2.755792 1_565
Mn2 Pd2 2.755792 1_454
Mn2 Pd7 2.802048 1_454
Mn2 Pd0 2.802048 1_565
Mn2 Pd4 2.802049 1_555
Mn2 Pd3 2.802049 1_554
Mn2 Sn0 3.011039 1_565
Mn3 Pd0 2.755787 1_555
Mn3 Pd7 2.755787 1_554
Mn3 Pd3 2.755792 1_544
Mn3 Pd4 2.755792 1_655
Mn3 Pd6 2.802048 1_655
Mn3 Pd1 2.802048 1_544
Mn3 Pd2 2.802049 1_554
Mn3 Pd5 2.802049 1_555
Mn3 Sn0 3.011039 1_655
Pd0 Sn0 2.735127 1_555
Pd0 Pd3 2.887962 1_544
Pd0 Pd6 2.887974 1_555
Pd0 Pd5 2.907945 1_555
Pd0 Pd7 2.907951 1_555
Pd1 Sn0 2.735127 1_666
Pd1 Pd5 2.887962 1_566
Pd1 Pd7 2.887974 1_555
Pd1 Pd3 2.907945 1_555
Pd1 Pd6 2.907951 1_555
Pd2 Sn0 2.735122 1_656
Pd2 Pd3 2.887962 1_645
Pd2 Pd6 2.887962 1_656
Pd2 Pd7 2.907945 1_555
Pd2 Pd5 2.907951 1_555
Pd3 Sn0 2.735121 1_566
Pd3 Pd4 2.907951 1_555
Pd4 Sn0 2.735122 1_565
Pd4 Pd5 2.887962 1_465
Pd4 Pd7 2.887962 1_454
Pd4 Pd6 2.907945 1_555
Pd5 Sn0 2.735121 1_655
Pd6 Sn0 2.735127 1_555
Pd7 Sn0 2.735127 1_666
Au0 Pd1 2.744621 1_545
Au0 Pd0 2.744621 1_555
Au0 Pd2 2.744621 1_555
Au0 Pd4 2.744621 1_545
Au0 Pd7 2.817608 1_555
Au0 Pd6 2.817608 1_545
Au0 Pd3 2.817614 1_545
Au0 Pd5 2.817614 1_555
Au0 Mn3 2.899193 1_556
Au0 Mn2 2.899193 1_545
Au0 Mn0 2.899193 1_555
Au0 Mn1 2.899193 1_545
Au1 Pd7 2.744621 1_455
Au1 Pd6 2.744621 1_555
Au1 Pd3 2.744621 1_555
Au1 Pd5 2.744621 1_455
Au1 Pd1 2.817608 1_555
Au1 Pd0 2.817608 1_455
Au1 Pd2 2.817614 1_455
Au1 Pd4 2.817614 1_555
Au1 Mn3 2.899193 1_455
Au1 Mn2 2.899193 1_556
Au1 Mn0 2.899193 1_555
Au1 Mn1 2.899193 1_455
Au2 Mn1 2.782849 1_555
Au2 Mn0 2.782849 1_554
Au2 Mn3 2.782855 1_555
Au2 Mn2 2.782855 1_555
Au2 Pd4 2.808361 1_655
Au2 Pd2 2.808361 1_454
Au2 Pd5 2.808361 1_565
Au2 Pd3 2.808361 1_544
Au2 Pd6 2.808361 1_555
Au2 Pd7 2.808361 1_554
Au2 Pd0 2.808361 1_555
Au2 Pd1 2.808361 1_554
