# generated using pymatgen
data_Y8NbW3C8
_symmetry_space_group_name_H-M   'P 1'
_cell_length_a   5.77740311
_cell_length_b   5.77740235
_cell_length_c   9.87825914
_cell_angle_alpha   90.00000000
_cell_angle_beta   90.00000000
_cell_angle_gamma   90.58383999
_symmetry_Int_Tables_number   1
_chemical_formula_structural   Y8NbW3C8
_chemical_formula_sum   'Y8 Nb1 W3 C8'
_cell_volume   329.70319221
_cell_formula_units_Z   1
loop_
 _symmetry_equiv_pos_site_id
 _symmetry_equiv_pos_as_xyz
  1  'x, y, z'
loop_
 _atom_site_type_symbol
 _atom_site_label
 _atom_site_symmetry_multiplicity
 _atom_site_fract_x
 _atom_site_fract_y
 _atom_site_fract_z
 _atom_site_occupancy
  Y  Y0  1  0.19821459  0.19821459  0.34377873  1
  Y  Y1  1  0.79943335  0.79943335  0.65592634  1
  Y  Y2  1  0.29913197  0.70181251  0.84091083  1
  Y  Y3  1  0.79943335  0.79943335  0.34407366  1
  Y  Y4  1  0.19821459  0.19821459  0.65622127  1
  Y  Y5  1  0.70181251  0.29913197  0.15908917  1
  Y  Y6  1  0.70181251  0.29913197  0.84091083  1
  Y  Y7  1  0.29913197  0.70181251  0.15908917  1
  Nb  Nb0  1  0.18425265  0.18425265  0.00000000  1
  W  W0  1  0.82641075  0.82641075  0.00000000  1
  W  W1  1  0.32206271  0.67625546  0.50000000  1
  W  W2  1  0.67625546  0.32206271  0.50000000  1
  C  C0  1  0.99705671  0.99705671  0.15479544  1
  C  C1  1  0.49961282  0.49961282  0.34731709  1
  C  C2  1  0.49961282  0.49961282  0.65268291  1
  C  C3  1  0.50916062  0.99157869  0.00000000  1
  C  C4  1  0.99157869  0.50916062  0.00000000  1
  C  C5  1  0.99705671  0.99705671  0.84520456  1
  C  C6  1  0.50006502  0.99969121  0.50000000  1
  C  C7  1  0.99969121  0.50006502  0.50000000  1
loop_
_geom_bond_atom_site_label_1
_geom_bond_atom_site_label_2
_geom_bond_distance
_geom_bond_site_symmetry_2
C0 W0 2.064540 1_555
C0 Nb0 2.157232 1_665
C0 Y5 2.453119 1_565
C0 Y7 2.453119 1_655
C0 Y3 2.465065 1_555
C0 Y0 2.481691 1_665
C1 W2 2.095195 1_555
C1 W1 2.095195 1_555
C1 Y3 2.437376 1_555
C1 Y0 2.450239 1_555
C1 Y7 2.488180 1_555
C1 Y5 2.488180 1_555
C2 W2 2.095195 1_555
C2 W1 2.095195 1_555
C2 Y1 2.437376 1_555
C2 Y4 2.450239 1_555
C2 Y2 2.488180 1_555
C2 Y6 2.488180 1_555
C3 W0 2.075013 1_555
C3 Nb0 2.192098 1_565
C3 Y7 2.589068 1_555
C3 Y2 2.589068 1_554
C3 Y5 2.612555 1_565
C3 Y6 2.612555 1_564
C4 W0 2.075012 1_555
C4 Nb0 2.192098 1_655
C4 Y5 2.589068 1_555
C4 Y6 2.589068 1_554
C4 Y7 2.612555 1_655
C4 Y2 2.612555 1_654
C5 W0 2.064540 1_556
C5 Nb0 2.157232 1_666
C5 Y6 2.453119 1_565
C5 Y2 2.453119 1_655
C5 Y1 2.465065 1_555
C5 Y4 2.481691 1_665
C6 W2 2.113368 1_565
C6 W1 2.123714 1_555
C6 Y1 2.596776 1_555
C6 Y3 2.596776 1_555
C6 Y4 2.603638 1_565
C6 Y0 2.603638 1_565
C7 W1 2.113368 1_655
C7 W2 2.123714 1_555
C7 Y1 2.596776 1_555
C7 Y3 2.596776 1_555
C7 Y4 2.603638 1_655
C7 Y0 2.603638 1_655
