# generated using pymatgen
data_Zr10Be2InBi5
_symmetry_space_group_name_H-M   'P 1'
_cell_length_a   8.71617607
_cell_length_b   8.73353933
_cell_length_c   5.86562742
_cell_angle_alpha   90.00000000
_cell_angle_beta   90.00000000
_cell_angle_gamma   119.93425178
_symmetry_Int_Tables_number   1
_chemical_formula_structural   Zr10Be2InBi5
_chemical_formula_sum   'Zr10 Be2 In1 Bi5'
_cell_volume   386.94454560
_cell_formula_units_Z   1
loop_
 _symmetry_equiv_pos_site_id
 _symmetry_equiv_pos_as_xyz
  1  'x, y, z'
loop_
 _atom_site_type_symbol
 _atom_site_label
 _atom_site_symmetry_multiplicity
 _atom_site_fract_x
 _atom_site_fract_y
 _atom_site_fract_z
 _atom_site_occupancy
  Zr  Zr0  1  0.74485712  0.00000000  0.25000000  1
  Zr  Zr1  1  0.00580092  0.75064103  0.25000000  1
  Zr  Zr2  1  0.25516089  0.24935897  0.25000000  1
  Zr  Zr3  1  0.24197981  1.00000000  0.75000000  1
  Zr  Zr4  1  0.99825481  0.24269354  0.75000000  1
  Zr  Zr5  1  0.75556126  0.75730646  0.75000000  1
  Zr  Zr6  1  0.33336329  0.66713185  0.49757968  1
  Zr  Zr7  1  0.66623245  0.33286815  0.49757968  1
  Zr  Zr8  1  0.66623245  0.33286815  0.00242032  1
  Zr  Zr9  1  0.33336329  0.66713185  0.00242032  1
  Be  Be0  1  0.00015355  0.00000000  0.48477873  1
  Be  Be1  1  0.00015355  0.00000000  0.01522127  1
  In  In0  1  0.39014695  1.00000000  0.25000000  1
  Bi  Bi0  1  0.00103577  0.38677541  0.25000000  1
  Bi  Bi1  1  0.61426036  0.61322459  0.25000000  1
  Bi  Bi2  1  0.60145417  0.00000000  0.75000000  1
  Bi  Bi3  1  0.00008628  0.60818520  0.75000000  1
  Bi  Bi4  1  0.39190208  0.39181480  0.75000000  1
loop_
_geom_bond_atom_site_label_1
_geom_bond_atom_site_label_2
_geom_bond_distance
_geom_bond_site_symmetry_2
Zr6 Zr9 2.904420 1_555
Zr6 Zr9 2.961207 1_556
Zr7 Zr8 2.904420 1_555
Zr7 Zr8 2.961207 1_556
Be0 Zr1 2.597813 1_545
Be0 Zr2 2.597817 1_555
Be0 Zr0 2.616873 1_455
Be0 Zr3 2.619731 1_545
Be0 Zr4 2.635914 1_455
Be0 Zr5 2.635914 1_445
Be1 Zr1 2.597813 1_545
Be1 Zr2 2.597817 1_555
Be1 Zr0 2.616873 1_455
Be1 Zr3 2.619731 1_544
Be1 Zr4 2.635914 1_454
Be1 Zr5 2.635914 1_444
In0 Zr2 2.946907 1_565
In0 Zr1 2.946914 1_555
In0 Zr6 3.060920 1_555
In0 Zr9 3.060920 1_555
In0 Zr7 3.060922 1_565
In0 Zr8 3.060922 1_565
In0 Zr0 3.091716 1_565
In0 Zr3 3.204566 1_554
In0 Zr3 3.204566 1_555
Bi0 Zr0 2.978022 1_455
Bi0 Zr2 2.999924 1_555
Bi0 Zr6 3.068587 1_555
Bi0 Zr9 3.068587 1_555
Bi0 Zr7 3.078202 1_455
Bi0 Zr8 3.078202 1_455
Bi0 Zr1 3.157314 1_555
Bi0 Zr4 3.186687 1_454
Bi0 Zr4 3.186687 1_455
Bi1 Zr0 2.978022 1_565
Bi1 Zr1 2.999916 1_655
Bi1 Zr7 3.068592 1_555
Bi1 Zr8 3.068592 1_555
Bi1 Zr6 3.078209 1_555
Bi1 Zr9 3.078209 1_555
Bi1 Zr2 3.157310 1_555
Bi1 Zr5 3.186687 1_555
Bi1 Zr5 3.186687 1_554
Bi2 Zr5 3.022953 1_545
Bi2 Zr4 3.022954 1_555
Bi2 Zr8 3.053549 1_556
Bi2 Zr7 3.053549 1_555
Bi2 Zr9 3.053552 1_546
Bi2 Zr6 3.053552 1_545
Bi2 Zr3 3.133242 1_545
Bi2 Zr0 3.188057 1_555
Bi2 Zr0 3.188057 1_556
Bi2 In0 3.463176 1_545
Bi2 In0 3.463176 1_546
Bi3 Zr3 2.992406 1_555
Bi3 Zr5 3.001482 1_455
Bi3 Zr9 3.066458 1_556
Bi3 Zr6 3.066458 1_555
Bi3 Zr8 3.075462 1_456
Bi3 Zr7 3.075462 1_455
Bi3 Zr1 3.176464 1_555
Bi3 Zr1 3.176464 1_556
Bi3 Zr4 3.184100 1_455
Bi4 Zr3 2.992405 1_545
Bi4 Zr4 3.001490 1_455
Bi4 Zr8 3.066458 1_556
Bi4 Zr7 3.066458 1_555
Bi4 Zr9 3.075471 1_556
Bi4 Zr6 3.075471 1_555
Bi4 Zr2 3.176464 1_555
Bi4 Zr2 3.176464 1_556
Bi4 Zr5 3.184096 1_555
