# generated using pymatgen
data_ZrSc(ZnIr)2
_symmetry_space_group_name_H-M   'P 1'
_cell_length_a   5.08901674
_cell_length_b   5.08901634
_cell_length_c   5.24990439
_cell_angle_alpha   90.00000000
_cell_angle_beta   90.00000000
_cell_angle_gamma   131.74749567
_symmetry_Int_Tables_number   1
_chemical_formula_structural   ZrSc(ZnIr)2
_chemical_formula_sum   'Zr1 Sc1 Zn2 Ir2'
_cell_volume   101.43977765
_cell_formula_units_Z   1
loop_
 _symmetry_equiv_pos_site_id
 _symmetry_equiv_pos_as_xyz
  1  'x, y, z'
loop_
 _atom_site_type_symbol
 _atom_site_label
 _atom_site_symmetry_multiplicity
 _atom_site_fract_x
 _atom_site_fract_y
 _atom_site_fract_z
 _atom_site_occupancy
  Zr  Zr0  1  0.71378787  0.28621213  0.25000000  1
  Sc  Sc0  1  0.28700068  0.71299932  0.75000000  1
  Zn  Zn0  1  0.00256600  0.99743400  0.49999494  1
  Zn  Zn1  1  0.00256600  0.99743400  0.00000506  1
  Ir  Ir0  1  0.40076521  0.59923479  0.25000000  1
  Ir  Ir1  1  0.59331423  0.40668577  0.75000000  1
loop_
_geom_bond_atom_site_label_1
_geom_bond_atom_site_label_2
_geom_bond_distance
_geom_bond_site_symmetry_2
Sc0 Zn1 2.950145 1_556
Sc0 Zn0 2.950145 1_555
Sc0 Zn1 3.171609 1_546
Sc0 Zn0 3.171609 1_545
Sc0 Zn1 3.171610 1_656
Sc0 Zn0 3.171610 1_655
Sc0 Zr0 3.417573 1_565
Sc0 Zr0 3.417573 1_566
Sc0 Zr0 3.417573 1_456
Sc0 Zr0 3.417573 1_455
Zn0 Zn1 2.624899 1_555
Zn0 Zn1 2.625005 1_556
Zn0 Zr0 2.986309 1_465
Zn0 Zr0 3.146271 1_455
Zn0 Zr0 3.146271 1_565
Zn1 Zr0 2.986309 1_465
Zn1 Zr0 3.146271 1_455
Zn1 Zr0 3.146271 1_565
Ir0 Zn0 2.635083 1_545
Ir0 Zn1 2.635083 1_545
Ir0 Zn0 2.635083 1_655
Ir0 Zn1 2.635083 1_655
Ir0 Zr0 2.709887 1_565
Ir0 Zr0 2.709888 1_455
Ir0 Sc0 2.829682 1_554
Ir0 Sc0 2.829682 1_555
Ir0 Zr0 2.907652 1_555
Ir1 Zn1 2.600033 1_656
Ir1 Zn0 2.600033 1_655
Ir1 Zn1 2.600033 1_546
Ir1 Zn0 2.600033 1_545
Ir1 Sc0 2.750246 1_545
Ir1 Sc0 2.750246 1_655
Ir1 Sc0 2.845332 1_555
Ir1 Zr0 2.853542 1_555
Ir1 Zr0 2.853542 1_556
