# generated using pymatgen
data_Cs3ScAlSb3
_symmetry_space_group_name_H-M   'P 1'
_cell_length_a   6.56660950
_cell_length_b   8.78575798
_cell_length_c   11.90515066
_cell_angle_alpha   70.50952749
_cell_angle_beta   90.00000000
_cell_angle_gamma   90.00000000
_symmetry_Int_Tables_number   1
_chemical_formula_structural   Cs3ScAlSb3
_chemical_formula_sum   'Cs6 Sc2 Al2 Sb6'
_cell_volume   647.48161383
_cell_formula_units_Z   2
loop_
 _symmetry_equiv_pos_site_id
 _symmetry_equiv_pos_as_xyz
  1  'x, y, z'
loop_
 _atom_site_type_symbol
 _atom_site_label
 _atom_site_symmetry_multiplicity
 _atom_site_fract_x
 _atom_site_fract_y
 _atom_site_fract_z
 _atom_site_occupancy
  Cs  Cs0  1  0.25642692  0.46285028  0.40315834  1
  Cs  Cs1  1  0.73598862  0.14358123  0.94655261  1
  Cs  Cs2  1  0.75835669  0.47426089  0.14432717  1
  Cs  Cs3  1  0.25835669  0.52573911  0.85567283  1
  Cs  Cs4  1  0.75642692  0.53714972  0.59684166  1
  Cs  Cs5  1  0.23598862  0.85641877  0.05344739  1
  Sc  Sc0  1  0.00017734  0.00900002  0.34530714  1
  Sc  Sc1  1  0.50017734  0.99099998  0.65469286  1
  Al  Al0  1  0.50090804  0.01280394  0.35101853  1
  Al  Al1  1  0.00090804  0.98719606  0.64898147  1
  Sb  Sb0  1  0.25279947  0.81731295  0.53761490  1
  Sb  Sb1  1  0.75279947  0.18268705  0.46238510  1
  Sb  Sb2  1  0.26826861  0.21964517  0.17777103  1
  Sb  Sb3  1  0.76826861  0.78035483  0.82222897  1
  Sb  Sb4  1  0.22707431  0.18204196  0.73242535  1
  Sb  Sb5  1  0.72707431  0.81795804  0.26757465  1
loop_
_geom_bond_atom_site_label_1
_geom_bond_atom_site_label_2
_geom_bond_distance
_geom_bond_site_symmetry_2
Cs0 Sb4 3.877695 1_555
Cs0 Sb0 3.948136 1_555
Cs0 Sb2 3.949377 1_555
Cs0 Sb1 4.002747 1_555
Cs0 Sb1 4.041635 1_455
Cs0 Sb5 4.304676 1_555
Cs1 Sb5 3.936767 1_546
Cs1 Sb3 3.946054 1_545
Cs1 Sb4 4.054258 1_655
Cs1 Sb4 4.147986 1_555
Cs1 Sb2 4.322562 1_556
Cs2 Sb5 3.777554 1_555
Cs2 Sb1 3.798506 1_555
Cs2 Sb2 3.863320 1_555
Cs2 Sb3 3.880636 1_554
Cs2 Sb2 3.972411 1_655
Cs3 Sb4 3.777554 1_555
Cs3 Sb0 3.798506 1_555
Cs3 Sb3 3.863320 1_455
Cs3 Sb2 3.880636 1_556
Cs3 Sb3 3.972411 1_555
Cs4 Sb5 3.877695 1_555
Cs4 Sb1 3.948136 1_555
Cs4 Sb3 3.949377 1_555
Cs4 Sb0 4.002747 1_655
Cs4 Sb0 4.041635 1_555
Cs4 Sb4 4.304676 1_655
Cs5 Sb4 3.936767 1_564
Cs5 Sb2 3.946054 1_565
Cs5 Sb5 4.054258 1_555
Cs5 Sb5 4.147986 1_455
Cs5 Sb3 4.322562 1_454
Al0 Sb5 2.694035 1_545
Al0 Sb2 2.718282 1_555
Al0 Sb0 2.827218 1_545
Al0 Sb1 2.835845 1_555
Al1 Sb4 2.694035 1_565
Al1 Sb3 2.718282 1_455
Al1 Sb1 2.827218 1_465
Al1 Sb0 2.835845 1_555
Sb0 Sc0 2.873462 1_565
Sb0 Sc1 2.886079 1_555
Sb1 Sc1 2.873462 1_545
Sb1 Sc0 2.886079 1_655
Sb2 Sc0 2.835352 1_555
Sb3 Sc1 2.835352 1_555
Sb4 Sc1 2.815355 1_545
Sb5 Sc0 2.815355 1_665
