# generated using pymatgen
data_MgTa2(Co10B3)2
_symmetry_space_group_name_H-M   'P 1'
_cell_length_a   7.41785577
_cell_length_b   7.41785628
_cell_length_c   7.41785620
_cell_angle_alpha   60.00000474
_cell_angle_beta   60.00000246
_cell_angle_gamma   60.00000392
_symmetry_Int_Tables_number   1
_chemical_formula_structural   MgTa2(Co10B3)2
_chemical_formula_sum   'Mg1 Ta2 Co20 B6'
_cell_volume   288.61589695
_cell_formula_units_Z   1
loop_
 _symmetry_equiv_pos_site_id
 _symmetry_equiv_pos_as_xyz
  1  'x, y, z'
loop_
 _atom_site_type_symbol
 _atom_site_label
 _atom_site_symmetry_multiplicity
 _atom_site_fract_x
 _atom_site_fract_y
 _atom_site_fract_z
 _atom_site_occupancy
  Mg  Mg0  1  0.00000000  0.00000000  0.00000000  1
  Ta  Ta0  1  0.75000000  0.75000000  0.75000000  1
  Ta  Ta1  1  0.25000000  0.25000000  0.25000000  1
  Co  Co0  1  0.61603432  0.61603432  0.15189603  1
  Co  Co1  1  0.61603432  0.15189603  0.61603432  1
  Co  Co2  1  0.15189603  0.61603432  0.61603432  1
  Co  Co3  1  0.61603432  0.61603432  0.61603432  1
  Co  Co4  1  0.38396568  0.38396568  0.84810397  1
  Co  Co5  1  0.38396568  0.84810397  0.38396568  1
  Co  Co6  1  0.84810397  0.38396568  0.38396568  1
  Co  Co7  1  0.38396568  0.38396568  0.38396568  1
  Co  Co8  1  0.00000000  0.00000000  0.34727828  1
  Co  Co9  1  0.65272172  0.00000000  0.34727828  1
  Co  Co10  1  1.00000000  0.65272172  0.34727828  1
  Co  Co11  1  0.65272172  0.34727828  0.00000000  1
  Co  Co12  1  0.00000000  0.34727828  0.00000000  1
  Co  Co13  1  0.00000000  0.34727828  0.65272172  1
  Co  Co14  1  0.34727828  0.65272172  1.00000000  1
  Co  Co15  1  0.34727828  1.00000000  0.65272172  1
  Co  Co16  1  0.34727828  0.00000000  1.00000000  1
  Co  Co17  1  1.00000000  1.00000000  0.65272172  1
  Co  Co18  1  1.00000000  0.65272172  1.00000000  1
  Co  Co19  1  0.65272172  1.00000000  0.00000000  1
  B  B0  1  0.72733532  0.72733532  0.27266468  1
  B  B1  1  0.27266468  0.72733532  0.27266468  1
  B  B2  1  0.72733532  0.27266468  0.27266468  1
  B  B3  1  0.27266468  0.27266468  0.72733532  1
  B  B4  1  0.72733532  0.27266468  0.72733532  1
  B  B5  1  0.27266468  0.72733532  0.72733532  1
loop_
_geom_bond_atom_site_label_1
_geom_bond_atom_site_label_2
_geom_bond_distance
_geom_bond_site_symmetry_2
Co0 Ta0 2.434145 1_554
Co0 Co14 2.591355 1_554
Co0 Co11 2.591355 1_555
Co0 Co12 2.591359 1_655
Co0 Co16 2.591359 1_564
Co0 Co18 2.591362 1_554
Co0 Co19 2.591362 1_555
Co1 Ta0 2.434145 1_545
Co1 Co15 2.591355 1_545
Co1 Co9 2.591355 1_555
Co1 Co8 2.591359 1_655
Co1 Co16 2.591359 1_555
Co1 Co17 2.591362 1_545
Co1 Co19 2.591362 1_546
Co2 Ta0 2.434145 1_455
Co2 Co8 2.591359 1_565
Co3 Ta0 2.434151 1_555
Co3 Co9 2.591361 1_565
Co4 Ta1 2.434145 1_556
Co5 Ta1 2.434145 1_565
Co5 Co9 2.591355 1_565
Co5 Co8 2.591362 1_565
Co6 Ta1 2.434145 1_655
Co6 Co8 2.591362 1_655
Co7 Ta1 2.434151 1_555
Co7 Co9 2.591361 1_555
Co8 Co9 2.576060 1_455
Co8 Mg0 2.576060 1_555
Co8 Ta1 2.856827 1_555
Co8 Ta0 2.856828 1_445
Co9 Mg0 2.576060 1_655
Co9 Ta1 2.856827 1_555
Co9 Ta0 2.856828 1_545
Co10 Co13 2.265736 1_655
Co10 Co18 2.576060 1_554
Co10 Co14 2.576060 1_654
Co10 Co8 2.576060 1_665
Co10 Co9 2.576060 1_565
Co10 Mg0 2.576061 1_665
Co10 Co6 2.591355 1_555
Co10 Co2 2.591355 1_655
Co10 Co3 2.591360 1_555
Co10 Co7 2.591361 1_655
Co10 Ta0 2.856828 1_555
Co10 Ta1 2.856828 1_655
Co11 Co14 2.265736 1_554
Co11 Co12 2.576060 1_655
Co11 Co13 2.576060 1_654
Co11 Co19 2.576060 1_545
Co11 Mg0 2.576060 1_655
Co11 Co9 2.576061 1_555
Co11 Co4 2.591355 1_554
Co11 Co7 2.591361 1_555
Co11 Co3 2.591361 1_554
Co11 Ta1 2.856827 1_555
Co11 Ta0 2.856828 1_554
Co12 Co18 2.265735 1_454
Co12 Co13 2.576060 1_554
Co12 Mg0 2.576060 1_555
Co12 Co16 2.576060 1_554
Co12 Co8 2.576061 1_555
Co12 Co2 2.591359 1_554
Co12 Co4 2.591362 1_554
Co12 Co6 2.591362 1_455
Co12 Ta1 2.856827 1_555
Co12 Ta0 2.856828 1_454
Co13 Co17 2.576060 1_445
Co13 Co15 2.576060 1_545
Co13 Mg0 2.576061 1_556
Co13 Co2 2.591355 1_555
Co13 Co6 2.591355 1_455
Co13 Co7 2.591360 1_555
Co13 Co3 2.591361 1_455
Co13 Ta1 2.856828 1_555
Co13 Ta0 2.856828 1_455
Co14 Co18 2.576060 1_455
Co14 Co16 2.576060 1_565
Co14 Mg0 2.576060 1_566
Co14 Co15 2.576061 1_555
Co14 Co4 2.591355 1_555
Co14 Co3 2.591361 1_555
Co14 Co7 2.591361 1_556
Co14 Ta0 2.856827 1_555
Co14 Ta1 2.856828 1_556
Co15 Co9 2.265735 1_565
Co15 Co17 2.576060 1_455
Co15 Co16 2.576060 1_565
Co15 Mg0 2.576060 1_566
Co15 Co5 2.591355 1_555
Co15 Co3 2.591361 1_555
Co15 Co7 2.591361 1_565
Co15 Ta0 2.856827 1_555
Co15 Ta1 2.856828 1_565
Co16 Co19 2.265735 1_546
Co16 Mg0 2.576060 1_556
Co16 Co8 2.576060 1_556
Co16 Co5 2.591362 1_546
Co16 Co4 2.591362 1_555
Co16 Ta1 2.856827 1_556
Co16 Ta0 2.856827 1_545
Co17 Co8 2.265735 1_665
Co17 Mg0 2.576060 1_666
Co17 Co19 2.576060 1_556
Co17 Co18 2.576061 1_555
Co17 Co5 2.591359 1_655
Co17 Co6 2.591359 1_565
Co17 Co2 2.591362 1_655
Co17 Ta0 2.856827 1_555
Co17 Ta1 2.856828 1_665
Co18 Mg0 2.576060 1_666
Co18 Co19 2.576060 1_556
Co18 Co4 2.591359 1_655
Co18 Co6 2.591359 1_556
Co18 Co2 2.591362 1_655
Co18 Ta0 2.856827 1_555
Co18 Ta1 2.856828 1_656
Co19 Mg0 2.576060 1_665
Co19 Co9 2.576060 1_565
Co19 Co5 2.591359 1_555
Co19 Co4 2.591359 1_564
Co19 Ta0 2.856827 1_554
Co19 Ta1 2.856827 1_565
B0 Co5 2.080066 1_555
B0 Co3 2.080066 1_555
B0 Co6 2.080067 1_555
B0 Co0 2.080072 1_555
B0 Co10 2.096948 1_555
B0 Co18 2.096948 1_554
B0 Co9 2.096948 1_565
B0 Co19 2.096948 1_555
B1 Co0 2.080066 1_555
B1 Co7 2.080067 1_555
B1 Co2 2.080067 1_555
B1 Co5 2.080072 1_555
B1 Co10 2.096948 1_455
B1 Co14 2.096948 1_554
B1 Co8 2.096948 1_565
B1 Co16 2.096948 1_564
B2 Co7 2.080066 1_555
B2 Co1 2.080067 1_555
B2 Co0 2.080067 1_555
B2 Co6 2.080072 1_555
B2 Co11 2.096948 1_555
B2 Co12 2.096948 1_655
B2 Co9 2.096948 1_555
B2 Co8 2.096948 1_655
B3 Co1 2.080066 1_555
B3 Co7 2.080066 1_555
B3 Co2 2.080067 1_555
B3 Co4 2.080072 1_555
B3 Co13 2.096948 1_555
B3 Co12 2.096948 1_556
B3 Co15 2.096948 1_545
B3 Co16 2.096948 1_555
B4 Co4 2.080066 1_555
B4 Co3 2.080067 1_555
B4 Co6 2.080067 1_555
B4 Co1 2.080072 1_555
B4 Co13 2.096948 1_655
B4 Co11 2.096948 1_556
B4 Co17 2.096948 1_545
B4 Co19 2.096948 1_546
B5 Co3 2.080066 1_555
B5 Co5 2.080067 1_555
B5 Co4 2.080067 1_555
B5 Co2 2.080072 1_555
B5 Co14 2.096948 1_555
B5 Co18 2.096948 1_455
B5 Co15 2.096948 1_555
B5 Co17 2.096948 1_455
