# generated using pymatgen
data_Cs2BaTa6Cl18
_symmetry_space_group_name_H-M   'P 1'
_cell_length_a   10.52429448
_cell_length_b   10.52429441
_cell_length_c   10.52429419
_cell_angle_alpha   55.02942491
_cell_angle_beta   55.02942617
_cell_angle_gamma   55.02942218
_symmetry_Int_Tables_number   1
_chemical_formula_structural   Cs2BaTa6Cl18
_chemical_formula_sum   'Cs2 Ba1 Ta6 Cl18'
_cell_volume   728.94510960
_cell_formula_units_Z   1
loop_
 _symmetry_equiv_pos_site_id
 _symmetry_equiv_pos_as_xyz
  1  'x, y, z'
loop_
 _atom_site_type_symbol
 _atom_site_label
 _atom_site_symmetry_multiplicity
 _atom_site_fract_x
 _atom_site_fract_y
 _atom_site_fract_z
 _atom_site_occupancy
  Cs  Cs0  1  0.27561627  0.27561627  0.27561627  1
  Cs  Cs1  1  0.72438373  0.72438373  0.72438373  1
  Ba  Ba0  1  0.00000000  0.00000000  0.00000000  1
  Ta  Ta0  1  0.42614097  0.30163292  0.64040273  1
  Ta  Ta1  1  0.35959727  0.57385903  0.69836708  1
  Ta  Ta2  1  0.69836708  0.35959727  0.57385903  1
  Ta  Ta3  1  0.64040273  0.42614097  0.30163292  1
  Ta  Ta4  1  0.57385903  0.69836708  0.35959727  1
  Ta  Ta5  1  0.30163292  0.64040273  0.42614097  1
  Cl  Cl0  1  0.64696603  0.09679692  0.75838177  1
  Cl  Cl1  1  0.75838177  0.64696603  0.09679692  1
  Cl  Cl2  1  0.09679692  0.75838177  0.64696603  1
  Cl  Cl3  1  0.81649068  0.33719908  0.04376870  1
  Cl  Cl4  1  0.17376480  0.42990276  0.57947205  1
  Cl  Cl5  1  0.66280092  0.95623130  0.18350932  1
  Cl  Cl6  1  0.90320308  0.24161823  0.35303397  1
  Cl  Cl7  1  0.57009724  0.42052795  0.82623520  1
  Cl  Cl8  1  0.42052795  0.82623520  0.57009724  1
  Cl  Cl9  1  0.95623130  0.18350932  0.66280092  1
  Cl  Cl10  1  0.18350932  0.66280092  0.95623130  1
  Cl  Cl11  1  0.04376870  0.81649068  0.33719908  1
  Cl  Cl12  1  0.33719908  0.04376870  0.81649068  1
  Cl  Cl13  1  0.24161823  0.35303397  0.90320308  1
  Cl  Cl14  1  0.57947205  0.17376480  0.42990276  1
  Cl  Cl15  1  0.42990276  0.57947205  0.17376480  1
  Cl  Cl16  1  0.35303397  0.90320308  0.24161823  1
  Cl  Cl17  1  0.82623520  0.57009724  0.42052795  1
loop_
_geom_bond_atom_site_label_1
_geom_bond_atom_site_label_2
_geom_bond_distance
_geom_bond_site_symmetry_2
Ba0 Cl3 3.087635 1_455
Ba0 Cl10 3.087635 1_544
Ba0 Cl11 3.087635 1_545
Ba0 Cl9 3.087635 1_454
Ba0 Cl12 3.087635 1_554
Ba0 Cl5 3.087635 1_445
Cl0 Ta2 2.463209 1_555
Cl0 Ta0 2.467086 1_555
Cl0 Cs1 3.710286 1_545
Cl1 Ta4 2.463209 1_555
Cl1 Ta3 2.467087 1_555
Cl1 Cs1 3.710286 1_554
Cl2 Ta1 2.463209 1_555
Cl2 Ta5 2.467086 1_555
Cl2 Cs1 3.710286 1_455
Cl3 Ta3 2.614155 1_555
Cl3 Cs1 3.514073 1_554
Cl4 Ta0 2.477550 1_555
Cl4 Ta5 2.480520 1_555
Cl4 Cs0 3.746955 1_555
Cl4 Cs1 3.827062 1_455
Cl5 Ta4 2.614155 1_555
Cl5 Cs0 3.514073 1_565
Cl6 Ta3 2.463209 1_555
Cl6 Ta2 2.467086 1_555
Cl6 Cs0 3.710286 1_655
Cl7 Ta2 2.477550 1_555
Cl7 Ta1 2.480520 1_555
Cl7 Cs1 3.746955 1_555
Cl7 Cs0 3.827062 1_556
Cl8 Ta1 2.477550 1_555
Cl8 Ta4 2.480520 1_555
Cl8 Cs1 3.746955 1_555
Cl8 Cs0 3.827062 1_565
Cl9 Ta2 2.614155 1_555
Cl9 Cs0 3.514073 1_655
Cl10 Ta1 2.614155 1_555
Cl10 Cs0 3.514073 1_556
Cl11 Ta5 2.614155 1_555
Cl11 Cs1 3.514073 1_455
Cl12 Ta0 2.614155 1_555
Cl12 Cs1 3.514073 1_545
Cl13 Ta0 2.463209 1_555
Cl13 Ta1 2.467087 1_555
Cl13 Cs0 3.710286 1_556
Cl14 Ta3 2.477550 1_555
Cl14 Ta0 2.480520 1_555
Cl14 Cs0 3.746955 1_555
Cl14 Cs1 3.827062 1_545
Cl15 Ta5 2.477550 1_555
Cl15 Ta3 2.480520 1_555
Cl15 Cs0 3.746955 1_555
Cl15 Cs1 3.827062 1_554
Cl16 Ta5 2.463209 1_555
Cl16 Ta4 2.467086 1_555
Cl16 Cs0 3.710286 1_565
Cl17 Ta4 2.477550 1_555
Cl17 Ta2 2.480520 1_555
Cl17 Cs1 3.746955 1_555
Cl17 Cs0 3.827062 1_655
