# generated using pymatgen
data_Be6Al9VIr16
_symmetry_space_group_name_H-M   'P 1'
_cell_length_a   8.77338850
_cell_length_b   8.77144461
_cell_length_c   8.77144468
_cell_angle_alpha   140.93014489
_cell_angle_beta   96.39405964
_cell_angle_gamma   96.44253275
_symmetry_Int_Tables_number   1
_chemical_formula_structural   Be6Al9VIr16
_chemical_formula_sum   'Be6 Al9 V1 Ir16'
_cell_volume   400.95829588
_cell_formula_units_Z   1
loop_
 _symmetry_equiv_pos_site_id
 _symmetry_equiv_pos_as_xyz
  1  'x, y, z'
loop_
 _atom_site_type_symbol
 _atom_site_label
 _atom_site_symmetry_multiplicity
 _atom_site_fract_x
 _atom_site_fract_y
 _atom_site_fract_z
 _atom_site_occupancy
  Be  Be0  1  0.87645961  0.00158590  0.87487271  1
  Be  Be1  1  0.12584498  0.99899115  0.12685282  1
  Be  Be2  1  0.62210263  0.99898009  0.62312254  1
  Be  Be3  1  0.37928131  0.00408938  0.37519194  1
  Be  Be4  1  0.87057434  0.74536538  0.12520796  1
  Be  Be5  1  0.37022730  0.74538399  0.62484331  1
  Al  Al0  1  0.12896815  0.25396836  0.87499979  1
  Al  Al1  1  0.37979633  0.25340748  0.12638886  1
  Al  Al2  1  0.87703769  0.25342153  0.62361616  1
  Al  Al3  1  0.62791063  0.25291820  0.37499243  1
  Al  Al4  1  0.37400599  0.49901339  0.87499260  1
  Al  Al5  1  0.62688138  0.50092514  0.12595724  1
  Al  Al6  1  0.12493809  0.50090036  0.62403772  1
  Al  Al7  1  0.87082570  0.49584488  0.37497982  1
  Al  Al8  1  0.62161698  0.74663074  0.87498424  1
  V  V0  1  0.12214230  0.74714036  0.37500294  1
  Ir  Ir0  1  0.12456997  0.36924550  0.24585089  1
  Ir  Ir1  1  0.12456997  0.87871808  0.75532347  1
  Ir  Ir2  1  0.87337863  0.36918586  0.99463210  1
  Ir  Ir3  1  0.37120281  0.87735411  0.00255676  1
  Ir  Ir4  1  0.87337863  0.87874652  0.50419177  1
  Ir  Ir5  1  0.37120281  0.36864605  0.49384870  1
  Ir  Ir6  1  0.62479585  0.87738145  0.25613601  1
  Ir  Ir7  1  0.62479585  0.36866184  0.74741440  1
  Ir  Ir8  1  0.87912266  0.11548874  0.24030783  1
  Ir  Ir9  1  0.87912266  0.63881683  0.76363392  1
  Ir  Ir10  1  0.62515120  0.11550886  0.98639032  1
  Ir  Ir11  1  0.12498222  0.63753504  0.01006102  1
  Ir  Ir12  1  0.62515120  0.63876088  0.50964234  1
  Ir  Ir13  1  0.12498222  0.11492220  0.48744818  1
  Ir  Ir14  1  0.37749045  0.63747295  0.26250172  1
  Ir  Ir15  1  0.37749045  0.11498872  0.74001550  1
loop_
_geom_bond_atom_site_label_1
_geom_bond_atom_site_label_2
_geom_bond_distance
_geom_bond_site_symmetry_2
Be0 Ir2 2.503477 1_555
Be0 Ir4 2.503482 1_545
Be0 Ir12 2.504724 1_545
Be0 Ir10 2.504728 1_555
Be0 Ir9 2.505710 1_545
Be0 Ir8 2.505730 1_556
Be0 Ir0 2.505889 1_656
Be0 Ir1 2.505890 1_645
Be1 Ir11 2.459907 1_555
Be1 Ir13 2.459914 1_565
Be1 Ir9 2.473279 1_454
Be1 Ir8 2.473286 1_465
Be1 Ir3 2.488514 1_555
Be1 Ir5 2.488517 1_565
Be1 Ir0 2.526670 1_565
Be1 Ir1 2.526671 1_554
Be2 Ir15 2.460183 1_565
Be2 Ir14 2.460186 1_555
Be2 Ir12 2.473101 1_555
Be2 Ir10 2.473101 1_565
Be2 Ir6 2.488285 1_555
Be2 Ir7 2.488302 1_565
Be2 Ir2 2.527084 1_565
Be2 Ir4 2.527086 1_555
Be3 Ir6 2.490289 1_545
Be3 Ir7 2.490291 1_555
Be3 Ir5 2.492590 1_555
Be3 Ir3 2.492590 1_545
Be3 Ir15 2.523460 1_555
Be3 Ir14 2.523477 1_545
Be3 Ir11 2.526252 1_545
Be3 Ir13 2.526256 1_555
Be4 Ir4 2.521171 1_555
Be4 Ir2 2.521176 1_554
Be4 Ir7 2.521191 1_554
Be4 Ir6 2.521199 1_555
Be4 Ir11 2.527677 1_655
Be4 Ir13 2.527683 1_665
Be4 Ir8 2.530585 1_565
Be4 Ir9 2.530593 1_554
Be5 Ir5 2.520527 1_555
Be5 Ir3 2.520527 1_556
Be5 Ir1 2.521792 1_555
Be5 Ir0 2.521795 1_555
Be5 Ir14 2.527599 1_555
Be5 Ir15 2.527609 1_565
Be5 Ir10 2.530462 1_565
Be5 Ir12 2.530462 1_555
Al0 Ir0 2.556309 1_556
Al0 Ir1 2.556312 1_545
Al0 Ir2 2.556709 1_455
Al0 Ir4 2.556710 1_445
Al0 Ir13 2.563352 1_555
Al0 Ir11 2.563355 1_556
Al0 Ir14 2.563651 1_556
Al0 Ir15 2.563655 1_555
Al1 Ir3 2.535448 1_545
Al1 Ir5 2.535448 1_555
Al1 Ir12 2.543889 1_555
Al1 Ir10 2.543890 1_554
Al1 Ir0 2.554289 1_555
Al1 Ir1 2.554291 1_544
Al1 Ir14 2.559320 1_555
Al1 Ir15 2.559337 1_554
Al2 Ir6 2.535985 1_545
Al2 Ir7 2.535988 1_555
Al2 Ir8 2.543753 1_555
Al2 Ir9 2.543769 1_555
Al2 Ir4 2.553880 1_545
Al2 Ir2 2.553886 1_555
Al2 Ir13 2.559902 1_655
Al2 Ir11 2.559905 1_656
Al3 Ir7 2.564976 1_555
Al3 Ir6 2.564986 1_545
Al3 Ir3 2.565635 1_545
Al3 Ir5 2.565636 1_555
Al3 Ir12 2.582191 1_555
Al3 Ir10 2.582191 1_554
Al3 Ir8 2.582864 1_555
Al3 Ir9 2.582866 1_555
Al4 Ir3 2.554278 1_556
Al4 Ir5 2.554278 1_555
Al4 Ir7 2.554805 1_555
Al4 Ir6 2.554808 1_556
Al4 Ir15 2.566673 1_555
Al4 Ir14 2.566683 1_556
Al4 Ir13 2.567144 1_555
Al4 Ir11 2.567148 1_556
Al5 Ir6 2.524159 1_555
Al5 Ir7 2.524172 1_554
Al5 Ir4 2.527425 1_555
Al5 Ir2 2.527431 1_554
Al5 Ir12 2.546727 1_555
Al5 Ir10 2.546731 1_554
Al5 Ir14 2.569186 1_555
Al5 Ir15 2.569192 1_554
Al6 Ir3 2.524460 1_556
Al6 Ir5 2.524460 1_555
Al6 Ir1 2.527095 1_555
Al6 Ir0 2.527098 1_555
Al6 Ir8 2.547038 1_455
Al6 Ir9 2.547042 1_455
Al6 Ir13 2.568982 1_555
Al6 Ir11 2.568986 1_556
Al7 Ir9 2.546678 1_555
Al7 Ir8 2.546684 1_555
Al7 Ir10 2.546883 1_554
Al7 Ir12 2.546887 1_555
Al7 Ir2 2.575268 1_554
Al7 Ir4 2.575277 1_555
Al7 Ir1 2.575919 1_655
Al7 Ir0 2.575919 1_655
Al8 Ir12 2.546790 1_555
Al8 Ir10 2.546796 1_565
Al8 Ir9 2.547344 1_555
Al8 Ir8 2.547353 1_566
Al8 Ir7 2.551794 1_555
Al8 Ir6 2.551817 1_556
Al8 Ir5 2.552291 1_555
Al8 Ir3 2.552299 1_556
Ir0 V0 2.541946 1_555
Ir1 V0 2.541939 1_555
Ir2 V0 2.542649 1_656
Ir4 V0 2.542645 1_655
Ir11 V0 2.533037 1_555
Ir13 V0 2.533037 1_545
Ir14 V0 2.533765 1_555
Ir15 V0 2.533758 1_545
