# generated using pymatgen
data_CsZrCdF7
_symmetry_space_group_name_H-M   'P 1'
_cell_length_a   6.63459417
_cell_length_b   6.63459373
_cell_length_c   8.61649979
_cell_angle_alpha   90.00000000
_cell_angle_beta   90.00000000
_cell_angle_gamma   118.09960815
_symmetry_Int_Tables_number   1
_chemical_formula_structural   CsZrCdF7
_chemical_formula_sum   'Cs2 Zr2 Cd2 F14'
_cell_volume   334.57401933
_cell_formula_units_Z   2
loop_
 _symmetry_equiv_pos_site_id
 _symmetry_equiv_pos_as_xyz
  1  'x, y, z'
loop_
 _atom_site_type_symbol
 _atom_site_label
 _atom_site_symmetry_multiplicity
 _atom_site_fract_x
 _atom_site_fract_y
 _atom_site_fract_z
 _atom_site_occupancy
  Cs  Cs0  1  0.50000000  0.50000000  0.50000000  1
  Cs  Cs1  1  0.50000000  0.50000000  0.00000000  1
  Zr  Zr0  1  0.80932607  0.19067393  0.25000000  1
  Zr  Zr1  1  0.19067393  0.80932607  0.75000000  1
  Cd  Cd0  1  0.80938706  0.19061294  0.75000000  1
  Cd  Cd1  1  0.19061294  0.80938706  0.25000000  1
  F  F0  1  0.80260655  0.19739345  0.01427203  1
  F  F1  1  0.15197819  0.43907854  0.25000000  1
  F  F2  1  0.56092146  0.84802181  0.25000000  1
  F  F3  1  0.52064975  0.83378080  0.75000000  1
  F  F4  1  0.16621920  0.47935025  0.75000000  1
  F  F5  1  0.80260655  0.19739345  0.48572797  1
  F  F6  1  0.43907854  0.15197819  0.75000000  1
  F  F7  1  0.83378080  0.52064975  0.25000000  1
  F  F8  1  0.47935025  0.16621920  0.25000000  1
  F  F9  1  0.98984579  0.01015421  0.25000000  1
  F  F10  1  0.19739345  0.80260655  0.51427203  1
  F  F11  1  0.19739345  0.80260655  0.98572797  1
  F  F12  1  0.01015421  0.98984579  0.75000000  1
  F  F13  1  0.84802181  0.56092146  0.75000000  1
loop_
_geom_bond_atom_site_label_1
_geom_bond_atom_site_label_2
_geom_bond_distance
_geom_bond_site_symmetry_2
Cs0 F2 3.042348 1_555
Cs0 F6 3.042348 1_555
Cs0 F13 3.042348 1_555
Cs0 F1 3.042348 1_555
Cs0 F3 3.045855 1_555
Cs0 F8 3.045855 1_555
Cs0 F7 3.045855 1_555
Cs0 F4 3.045855 1_555
Cs0 F10 3.445812 1_555
Cs0 F5 3.445812 1_555
Cs1 F2 3.042348 1_555
Cs1 F6 3.042348 1_554
Cs1 F13 3.042348 1_554
Cs1 F1 3.042348 1_555
Cs1 F3 3.045855 1_554
Cs1 F8 3.045855 1_555
Cs1 F7 3.045855 1_555
Cs1 F4 3.045855 1_554
Cs1 F11 3.445812 1_554
Cs1 F0 3.445812 1_555
Cd0 F3 2.236579 1_545
Cd0 F4 2.236579 1_655
Cd0 F0 2.278407 1_556
Cd0 F5 2.278407 1_555
Cd0 F12 2.284700 1_645
Cd0 F13 2.347033 1_555
Cd0 F6 2.347033 1_555
Cd1 F8 2.236579 1_565
Cd1 F7 2.236579 1_455
Cd1 F10 2.278407 1_555
Cd1 F11 2.278407 1_554
Cd1 F9 2.284700 1_465
Cd1 F1 2.347033 1_555
Cd1 F2 2.347033 1_555
F0 Zr0 2.032589 1_555
F1 Zr0 2.086838 1_455
F2 Zr0 2.086838 1_565
F3 Zr1 2.117678 1_555
F4 Zr1 2.117678 1_555
F5 Zr0 2.032589 1_555
F6 Zr1 2.086838 1_545
F7 Zr0 2.117678 1_555
F8 Zr0 2.117678 1_555
F9 Zr0 2.054287 1_555
F10 Zr1 2.032589 1_555
F11 Zr1 2.032589 1_555
F12 Zr1 2.054287 1_555
F13 Zr1 2.086838 1_655
