# generated using pymatgen
data_TaNb3(SeI)4
_symmetry_space_group_name_H-M   'P 1'
_cell_length_a   7.82608052
_cell_length_b   7.82608107
_cell_length_c   7.82608034
_cell_angle_alpha   58.45724706
_cell_angle_beta   58.45724207
_cell_angle_gamma   58.45725167
_symmetry_Int_Tables_number   1
_chemical_formula_structural   TaNb3(SeI)4
_chemical_formula_sum   'Ta1 Nb3 Se4 I4'
_cell_volume   326.97166731
_cell_formula_units_Z   1
loop_
 _symmetry_equiv_pos_site_id
 _symmetry_equiv_pos_as_xyz
  1  'x, y, z'
loop_
 _atom_site_type_symbol
 _atom_site_label
 _atom_site_symmetry_multiplicity
 _atom_site_fract_x
 _atom_site_fract_y
 _atom_site_fract_z
 _atom_site_occupancy
  Ta  Ta0  1  0.39615764  0.39615764  0.39615764  1
  Nb  Nb0  1  0.41255894  0.78287282  0.41255894  1
  Nb  Nb1  1  0.78287282  0.41255894  0.41255894  1
  Nb  Nb2  1  0.41255894  0.41255894  0.78287282  1
  Se  Se0  1  0.62119568  0.11344179  0.62119568  1
  Se  Se1  1  0.62119568  0.62119568  0.11344179  1
  Se  Se2  1  0.11344179  0.62119568  0.62119568  1
  Se  Se3  1  0.63720067  0.63720067  0.63720067  1
  I  I0  1  0.13074130  0.13074130  0.13074130  1
  I  I1  1  0.62044148  0.12581702  0.12581702  1
  I  I2  1  0.12581702  0.62044148  0.12581702  1
  I  I3  1  0.12581702  0.12581702  0.62044148  1
loop_
_geom_bond_atom_site_label_1
_geom_bond_atom_site_label_2
_geom_bond_distance
_geom_bond_site_symmetry_2
Nb0 Se3 2.553638 1_555
Nb0 Se2 2.585581 1_555
Nb0 Se1 2.585581 1_555
Nb1 Se3 2.553638 1_555
Nb1 Se0 2.585581 1_555
Nb1 Se1 2.585581 1_555
Nb2 Se3 2.553638 1_555
Nb2 Se2 2.585581 1_555
Nb2 Se0 2.585581 1_555
Se0 Ta0 2.487988 1_555
Se1 Ta0 2.487988 1_555
Se2 Ta0 2.487988 1_555
I0 Nb2 3.108912 1_554
I0 Nb1 3.108913 1_455
I0 Nb0 3.108913 1_545
I1 Ta0 2.990955 1_555
I1 Nb0 3.055024 1_545
I1 Nb2 3.055024 1_554
I2 Ta0 2.990956 1_555
I2 Nb1 3.055024 1_455
I2 Nb2 3.055024 1_554
I3 Ta0 2.990955 1_555
I3 Nb0 3.055024 1_545
I3 Nb1 3.055024 1_455
