# generated using pymatgen
data_Y4Co2(OsRu)3
_symmetry_space_group_name_H-M   'P 1'
_cell_length_a   5.17994112
_cell_length_b   5.17489626
_cell_length_c   9.01390165
_cell_angle_alpha   90.00000000
_cell_angle_beta   90.00000000
_cell_angle_gamma   120.33898998
_symmetry_Int_Tables_number   1
_chemical_formula_structural   Y4Co2(OsRu)3
_chemical_formula_sum   'Y4 Co2 Os3 Ru3'
_cell_volume   208.53370446
_cell_formula_units_Z   1
loop_
 _symmetry_equiv_pos_site_id
 _symmetry_equiv_pos_as_xyz
  1  'x, y, z'
loop_
 _atom_site_type_symbol
 _atom_site_label
 _atom_site_symmetry_multiplicity
 _atom_site_fract_x
 _atom_site_fract_y
 _atom_site_fract_z
 _atom_site_occupancy
  Y  Y0  1  0.33906508  0.66972029  0.43316734  1
  Y  Y1  1  0.67230357  0.33756696  0.56681592  1
  Y  Y2  1  0.67230357  0.33756696  0.93318408  1
  Y  Y3  1  0.33906508  0.66972029  0.06683266  1
  Co  Co0  1  0.81714793  0.65423108  0.25000000  1
  Co  Co1  1  0.65651236  0.82524120  0.75000000  1
  Os  Os0  1  0.16080982  0.32795809  0.75000000  1
  Os  Os1  1  0.16544356  0.82195259  0.75000000  1
  Os  Os2  1  0.31538893  0.15502152  0.25000000  1
  Ru  Ru0  1  0.02538299  0.01805606  0.00083092  1
  Ru  Ru1  1  0.81119412  0.16490992  0.25000000  1
  Ru  Ru2  1  0.02538299  0.01805606  0.49916908  1
loop_
_geom_bond_atom_site_label_1
_geom_bond_atom_site_label_2
_geom_bond_distance
_geom_bond_site_symmetry_2
Y0 Y1 3.215136 1_455
Y0 Y1 3.216894 1_565
Y0 Y1 3.222228 1_555
Y0 Y3 3.302105 1_555
Y1 Y2 3.302407 1_555
Y2 Y3 3.215136 1_656
Y2 Y3 3.216894 1_546
Y2 Y3 3.222228 1_556
Co0 Ru1 2.516749 1_555
Co0 Os2 2.572953 1_665
Co0 Os2 2.577968 1_555
Co0 Ru1 2.658421 1_565
Co0 Ru2 2.775085 1_665
Co0 Ru0 2.775085 1_665
Co0 Y0 3.010928 1_555
Co0 Y3 3.010928 1_555
Co0 Y0 3.134070 1_655
Co0 Y3 3.134070 1_655
Co0 Y1 3.187711 1_555
Co0 Y2 3.187711 1_554
Co1 Os1 2.535154 1_555
Co1 Os0 2.557372 1_555
Co1 Os0 2.593518 1_665
Co1 Os1 2.644871 1_655
Co1 Ru0 2.798646 1_666
Co1 Ru2 2.798646 1_665
Co1 Y2 3.051325 1_555
Co1 Y1 3.051325 1_555
Co1 Y2 3.089193 1_565
Co1 Y1 3.089193 1_565
Co1 Y3 3.189178 1_556
Co1 Y0 3.189178 1_555
Os0 Os1 2.544331 1_555
Os0 Os1 2.630732 1_545
Os0 Ru0 2.653195 1_556
Os0 Ru2 2.653195 1_555
Os0 Y2 3.042885 1_455
Os0 Y1 3.042885 1_455
Os0 Y2 3.100926 1_555
Os0 Y1 3.100926 1_555
Os0 Y3 3.238347 1_556
Os0 Y0 3.238347 1_555
Os1 Ru0 2.722491 1_566
Os1 Ru2 2.722491 1_565
Os1 Y2 3.011033 1_455
Os1 Y1 3.011033 1_455
Os1 Y2 3.108398 1_565
Os1 Y1 3.108398 1_565
Os1 Y3 3.209569 1_556
Os1 Y0 3.209569 1_555
Os2 Ru1 2.542778 1_555
Os2 Ru2 2.593807 1_555
Os2 Ru0 2.593807 1_555
Os2 Ru1 2.637917 1_455
Os2 Y0 3.059283 1_545
Os2 Y3 3.059283 1_545
Os2 Y0 3.083069 1_555
Os2 Y3 3.083069 1_555
Os2 Y1 3.271296 1_555
Os2 Y2 3.271296 1_554
Ru0 Ru1 2.775738 1_455
Ru0 Y2 2.955938 1_554
Ru0 Y3 2.971687 1_555
Ru0 Y3 3.033546 1_545
Ru0 Y2 3.083116 1_454
Ru0 Y2 3.100175 1_444
Ru0 Y3 3.125379 1_445
Ru1 Ru2 2.775738 1_655
Ru1 Y0 2.990406 1_545
Ru1 Y3 2.990406 1_545
Ru1 Y0 3.132222 1_655
Ru1 Y3 3.132222 1_655
Ru1 Y1 3.181288 1_555
Ru1 Y2 3.181288 1_554
Ru2 Y1 2.955938 1_555
Ru2 Y0 2.971687 1_555
Ru2 Y0 3.033546 1_545
Ru2 Y1 3.083116 1_455
Ru2 Y1 3.100175 1_445
Ru2 Y0 3.125379 1_445
