# generated using pymatgen
data_Sc6ZnAs5Ru6
_symmetry_space_group_name_H-M   'P 1'
_cell_length_a   7.68543047
_cell_length_b   7.69360723
_cell_length_c   7.68543068
_cell_angle_alpha   127.89572666
_cell_angle_beta   122.63208696
_cell_angle_gamma   81.14359565
_symmetry_Int_Tables_number   1
_chemical_formula_structural   Sc6ZnAs5Ru6
_chemical_formula_sum   'Sc6 Zn1 As5 Ru6'
_cell_volume   291.05757003
_cell_formula_units_Z   1
loop_
 _symmetry_equiv_pos_site_id
 _symmetry_equiv_pos_as_xyz
  1  'x, y, z'
loop_
 _atom_site_type_symbol
 _atom_site_label
 _atom_site_symmetry_multiplicity
 _atom_site_fract_x
 _atom_site_fract_y
 _atom_site_fract_z
 _atom_site_occupancy
  Sc  Sc0  1  0.45453354  0.66591336  0.71138081  1
  Sc  Sc1  1  0.53765728  0.25337650  0.21571923  1
  Sc  Sc2  1  0.74803823  0.84301421  0.59497598  1
  Sc  Sc3  1  0.25027792  0.85054150  0.10026259  1
  Sc  Sc4  1  0.05735307  0.25435130  0.69699823  1
  Sc  Sc5  1  0.95131489  0.65618333  0.20486844  1
  Zn  Zn0  1  0.26328180  0.26274016  0.49945936  1
  As  As0  1  0.73812205  0.24261846  0.00449641  1
  As  As1  1  0.33201063  0.58590267  0.25252752  1
  As  As2  1  0.66701145  0.92079487  0.25418713  1
  As  As3  1  0.16660673  0.92079487  0.75378242  1
  As  As4  1  0.83337515  0.58590267  0.75389104  1
  Ru  Ru0  1  0.50905174  0.50000902  0.00948962  1
  Ru  Ru1  1  0.99052040  0.50000902  0.49095928  1
  Ru  Ru2  1  0.09709838  0.25272487  0.10196182  1
  Ru  Ru3  1  0.88067747  0.00600016  0.13369294  1
  Ru  Ru4  1  0.37230722  0.00600016  0.62532270  1
  Ru  Ru5  1  0.65076206  0.25272487  0.65562549  1
loop_
_geom_bond_atom_site_label_1
_geom_bond_atom_site_label_2
_geom_bond_distance
_geom_bond_site_symmetry_2
Sc0 Zn0 2.655283 1_555
Sc3 Zn0 2.700807 1_565
Sc4 Zn0 2.748987 1_555
As0 Ru0 2.434813 1_555
As0 Ru1 2.434823 1_555
As0 Ru3 2.435865 1_555
As0 Ru4 2.435865 1_554
As0 Ru2 2.438100 1_655
As0 Ru5 2.438105 1_554
As0 Sc1 2.740198 1_555
As0 Sc2 2.768266 1_544
As0 Sc5 2.836340 1_555
As1 Ru2 2.587906 1_555
As1 Ru0 2.593192 1_555
As1 Ru4 2.593549 1_565
As1 Sc1 2.733329 1_555
As1 Sc2 2.745773 1_555
As1 Sc5 2.754503 1_455
As1 Sc0 2.762637 1_555
As1 Sc3 2.765816 1_555
As1 Sc4 2.783982 1_554
As2 Ru5 2.587339 1_565
As2 Ru3 2.588644 1_565
As2 Ru0 2.599966 1_555
As2 Sc1 2.729833 1_565
As2 Sc0 2.739474 1_554
As2 Sc3 2.758758 1_555
As2 Sc5 2.763691 1_555
As2 Sc2 2.767173 1_555
As2 Sc4 2.792538 1_665
As3 Ru2 2.587339 1_566
As3 Ru4 2.588643 1_565
As3 Ru1 2.599967 1_455
As3 Sc1 2.729838 1_566
As3 Sc0 2.739483 1_555
As3 Sc3 2.758758 1_556
As3 Sc5 2.763686 1_455
As3 Sc2 2.767168 1_455
As3 Sc4 2.792533 1_565
As4 Ru5 2.587911 1_555
As4 Ru1 2.593179 1_555
As4 Ru3 2.593551 1_566
As4 Sc1 2.733326 1_555
As4 Sc2 2.745766 1_555
As4 Sc5 2.754511 1_556
As4 Sc0 2.762634 1_555
As4 Sc3 2.765811 1_656
As4 Sc4 2.783982 1_655
Ru0 Zn0 2.559586 1_554
Ru0 Ru4 2.892303 1_554
Ru0 Sc2 2.928626 1_555
Ru0 Sc5 2.964504 1_555
Ru0 Sc4 2.973861 1_554
Ru0 Sc3 3.041154 1_555
Ru0 Sc1 3.057973 1_555
Ru0 Sc0 3.073489 1_554
Ru1 Zn0 2.559585 1_655
Ru1 Ru3 2.892302 1_555
Ru1 Sc2 2.928630 1_555
Ru1 Sc5 2.964516 1_555
Ru1 Sc4 2.973850 1_655
Ru1 Sc3 3.041140 1_656
Ru1 Sc1 3.057975 1_555
Ru1 Sc0 3.073492 1_655
Ru2 Zn0 2.550093 1_555
Ru2 Sc5 2.895678 1_455
Ru2 Ru3 2.899563 1_455
Ru2 Sc2 2.925319 1_444
Ru2 Sc4 2.966708 1_554
Ru2 Sc1 3.005980 1_555
Ru2 Sc3 3.131407 1_545
Ru2 Sc0 3.179764 1_555
Ru3 Zn0 2.550076 1_655
Ru3 Sc4 2.921355 1_655
Ru3 Sc0 2.974691 1_544
Ru3 Sc5 2.979212 1_545
Ru3 Sc3 2.988085 1_645
Ru3 Sc2 3.036025 1_544
Ru3 Sc1 3.121381 1_555
Ru4 Zn0 2.550070 1_555
Ru4 Ru5 2.899563 1_555
Ru4 Sc4 2.921354 1_555
Ru4 Sc0 2.974695 1_545
Ru4 Sc5 2.979212 1_445
Ru4 Sc3 2.988090 1_545
Ru4 Sc2 3.036024 1_545
Ru4 Sc1 3.121381 1_556
Ru5 Zn0 2.550081 1_555
Ru5 Sc5 2.895682 1_556
Ru5 Sc2 2.925323 1_545
Ru5 Sc4 2.966712 1_655
Ru5 Sc1 3.005975 1_555
Ru5 Sc3 3.131407 1_545
Ru5 Sc0 3.179755 1_555
