# generated using pymatgen
data_Hf8Ir3RhO2
_symmetry_space_group_name_H-M   'P 1'
_cell_length_a   8.67783884
_cell_length_b   8.67782974
_cell_length_c   8.68919341
_cell_angle_alpha   59.95674020
_cell_angle_beta   59.95665513
_cell_angle_gamma   59.92681717
_symmetry_Int_Tables_number   1
_chemical_formula_structural   Hf8Ir3RhO2
_chemical_formula_sum   'Hf16 Ir6 Rh2 O4'
_cell_volume   462.12785739
_cell_formula_units_Z   2
loop_
 _symmetry_equiv_pos_site_id
 _symmetry_equiv_pos_as_xyz
  1  'x, y, z'
loop_
 _atom_site_type_symbol
 _atom_site_label
 _atom_site_symmetry_multiplicity
 _atom_site_fract_x
 _atom_site_fract_y
 _atom_site_fract_z
 _atom_site_occupancy
  Hf  Hf0  1  0.10397415  0.63314723  0.63144031  1
  Hf  Hf1  1  0.63314723  0.10397315  0.63144031  1
  Hf  Hf2  1  0.63126306  0.63126406  0.10831335  1
  Hf  Hf3  1  0.63126206  0.63126306  0.62916053  1
  Hf  Hf4  1  0.81283349  0.81283349  0.18716651  1
  Hf  Hf5  1  0.18919013  0.18919013  0.81080987  1
  Hf  Hf6  1  0.81224430  0.18793094  0.81120597  1
  Hf  Hf7  1  0.18793094  0.81224430  0.18861879  1
  Hf  Hf8  1  0.18793094  0.81224430  0.81120597  1
  Hf  Hf9  1  0.81224330  0.18793094  0.18861879  1
  Hf  Hf10  1  0.43705789  0.43705789  0.06294211  1
  Hf  Hf11  1  0.06675076  0.06675176  0.43324924  1
  Hf  Hf12  1  0.43523737  0.06610554  0.43443714  1
  Hf  Hf13  1  0.06610554  0.43523837  0.06421894  1
  Hf  Hf14  1  0.06610554  0.43523737  0.43443714  1
  Hf  Hf15  1  0.43523737  0.06610554  0.06421994  1
  Ir  Ir0  1  0.76368124  0.41041395  0.41295241  1
  Ir  Ir1  1  0.41041395  0.76368124  0.41295241  1
  Ir  Ir2  1  0.41208752  0.41208752  0.76106401  1
  Ir  Ir3  1  0.41208852  0.41208752  0.41475995  1
  Ir  Ir4  1  0.45065722  0.84733160  0.85100509  1
  Ir  Ir5  1  0.84733160  0.45065822  0.85100509  1
  Rh  Rh0  1  0.84829767  0.84829567  0.45200879  1
  Rh  Rh1  1  0.84829667  0.84829767  0.85139787  1
  O  O0  1  0.62365429  0.12515616  0.12559427  1
  O  O1  1  0.12515716  0.62365429  0.12559427  1
  O  O2  1  0.12490955  0.12490955  0.62471870  1
  O  O3  1  0.12490955  0.12490955  0.12546221  1
loop_
_geom_bond_atom_site_label_1
_geom_bond_atom_site_label_2
_geom_bond_distance
_geom_bond_site_symmetry_2
Hf0 Rh1 2.690132 1_455
Hf0 Rh0 2.690136 1_455
Hf0 Ir5 2.713406 1_455
Hf0 Ir1 2.787358 1_555
Hf0 Ir2 2.794471 1_555
Hf0 Ir3 2.794483 1_555
Hf1 Rh1 2.690129 1_545
Hf1 Rh0 2.690137 1_545
Hf1 Ir4 2.713405 1_545
Hf1 Ir0 2.787365 1_555
Hf1 Ir2 2.794473 1_555
Hf1 Ir3 2.794482 1_555
Hf2 Rh1 2.685684 1_554
Hf2 Ir5 2.708633 1_554
Hf2 Ir4 2.708638 1_554
Hf2 Ir1 2.785534 1_555
Hf2 Ir0 2.785544 1_555
Hf2 Ir3 2.794376 1_555
Hf3 Rh0 2.685690 1_555
Hf3 Ir4 2.708627 1_555
Hf3 Ir5 2.708639 1_555
Hf3 Ir1 2.785536 1_555
Hf3 Ir0 2.785537 1_555
Hf3 Ir2 2.794371 1_555
Hf4 O0 2.301142 1_565
Hf4 O1 2.301148 1_655
Hf4 Rh1 2.645447 1_554
Hf4 Rh0 2.645450 1_555
Hf4 Ir0 3.165545 1_555
Hf4 Ir1 3.165545 1_555
Hf5 O2 2.314112 1_555
Hf5 O3 2.314112 1_556
Hf5 Ir4 2.660997 1_545
Hf5 Ir5 2.661000 1_455
Hf5 Ir2 3.121684 1_555
Hf5 Ir3 3.121692 1_555
Hf6 O2 2.298796 1_655
Hf6 O0 2.316144 1_556
Hf6 Ir5 2.645919 1_555
Hf6 Rh1 2.657245 1_545
Hf6 Ir0 3.136105 1_555
Hf6 Ir2 3.150957 1_555
Hf7 O3 2.298795 1_565
Hf7 O1 2.316144 1_555
Hf7 Ir4 2.645917 1_554
Hf7 Rh0 2.657249 1_455
Hf7 Ir1 3.136105 1_555
Hf7 Ir3 3.150957 1_555
Hf8 O2 2.298797 1_565
Hf8 O1 2.316146 1_556
Hf8 Ir4 2.645913 1_555
Hf8 Rh1 2.657253 1_455
Hf8 Ir1 3.136101 1_555
Hf8 Ir2 3.150953 1_555
Hf9 O3 2.298805 1_655
Hf9 O0 2.316143 1_555
Hf9 Ir5 2.645922 1_554
Hf9 Rh0 2.657261 1_545
Hf9 Ir0 3.136105 1_555
Hf9 Ir3 3.150942 1_555
Hf10 O1 2.293255 1_555
Hf10 O0 2.293261 1_555
Hf10 Ir3 2.856526 1_555
Hf10 Ir2 2.856531 1_554
Hf10 Ir4 3.117584 1_554
Hf10 Ir5 3.117587 1_554
Hf11 O2 2.283452 1_555
Hf11 O3 2.283461 1_555
Hf11 Ir0 2.814054 1_455
Hf11 Ir1 2.814062 1_545
Hf12 O0 2.281852 1_555
Hf12 O2 2.292469 1_555
Hf12 Ir3 2.828383 1_555
Hf12 Ir1 2.840084 1_545
Hf12 Ir4 3.173879 1_545
Hf13 O1 2.281849 1_555
Hf13 O3 2.292475 1_555
Hf13 Ir2 2.828380 1_554
Hf13 Ir0 2.840090 1_455
Hf13 Ir5 3.173879 1_454
Hf14 O1 2.281853 1_555
Hf14 O2 2.292470 1_555
Hf14 Ir3 2.828391 1_555
Hf14 Ir0 2.840087 1_455
Hf14 Ir5 3.173879 1_455
Hf15 O0 2.281847 1_555
Hf15 O3 2.292471 1_555
Hf15 Ir2 2.828386 1_554
Hf15 Ir1 2.840087 1_545
Hf15 Ir4 3.173883 1_544
