# generated using pymatgen
data_HfZr13Pd17Au3
_symmetry_space_group_name_H-M   'P 1'
_cell_length_a   8.14948260
_cell_length_b   8.14945089
_cell_length_c   9.67230765
_cell_angle_alpha   90.09149549
_cell_angle_beta   90.09258666
_cell_angle_gamma   106.71903531
_symmetry_Int_Tables_number   1
_chemical_formula_structural   HfZr13Pd17Au3
_chemical_formula_sum   'Hf1 Zr13 Pd17 Au3'
_cell_volume   615.21742873
_cell_formula_units_Z   1
loop_
 _symmetry_equiv_pos_site_id
 _symmetry_equiv_pos_as_xyz
  1  'x, y, z'
loop_
 _atom_site_type_symbol
 _atom_site_label
 _atom_site_symmetry_multiplicity
 _atom_site_fract_x
 _atom_site_fract_y
 _atom_site_fract_z
 _atom_site_occupancy
  Hf  Hf0  1  0.50003699  0.50002345  0.49924699  1
  Zr  Zr0  1  0.69446129  0.30504255  0.00020455  1
  Zr  Zr1  1  0.30503869  0.69448550  0.00020350  1
  Zr  Zr2  1  0.80864600  0.19479601  0.49857407  1
  Zr  Zr3  1  0.19480406  0.80866637  0.49857271  1
  Zr  Zr4  1  0.00063517  0.00063139  0.99972450  1
  Zr  Zr5  1  0.99953829  0.50073201  0.25025835  1
  Zr  Zr6  1  0.00053961  0.49998764  0.74943894  1
  Zr  Zr7  1  0.50000419  0.00056677  0.74943610  1
  Zr  Zr8  1  0.50073666  0.99956135  0.25025964  1
  Zr  Zr9  1  0.31023134  0.31020790  0.19225007  1
  Zr  Zr10  1  0.68395007  0.68394156  0.81223310  1
  Zr  Zr11  1  0.18555279  0.18554029  0.68213033  1
  Zr  Zr12  1  0.81776233  0.81776319  0.31507507  1
  Pd  Pd0  1  0.85465556  0.14805645  0.20699528  1
  Pd  Pd1  1  0.14763585  0.85227868  0.79311669  1
  Pd  Pd2  1  0.64466115  0.35341327  0.70510990  1
  Pd  Pd3  1  0.64630059  0.35450610  0.29433977  1
  Pd  Pd4  1  0.35451380  0.64631709  0.29433988  1
  Pd  Pd5  1  0.35342276  0.64466979  0.70510977  1
  Pd  Pd6  1  0.85227442  0.14762592  0.79311468  1
  Pd  Pd7  1  0.14806332  0.85466679  0.20699038  1
  Pd  Pd8  1  0.93838094  0.64636778  0.00049988  1
  Pd  Pd9  1  0.06077531  0.35463531  0.99987232  1
  Pd  Pd10  1  0.56187049  0.85293719  0.50206860  1
  Pd  Pd11  1  0.14735312  0.43782536  0.49697386  1
  Pd  Pd12  1  0.43783360  0.14735144  0.49696662  1
  Pd  Pd13  1  0.85292717  0.56186518  0.50206509  1
  Pd  Pd14  1  0.35463347  0.06077186  0.99986735  1
  Pd  Pd15  1  0.64634848  0.93837449  0.00049471  1
  Pd  Pd16  1  0.10282417  0.10280697  0.39564528  1
  Au  Au0  1  0.89522538  0.89522029  0.60730802  1
  Au  Au1  1  0.39203075  0.39202953  0.89424535  1
  Au  Au2  1  0.60633318  0.60633549  0.10726864  1
loop_
_geom_bond_atom_site_label_1
_geom_bond_atom_site_label_2
_geom_bond_distance
_geom_bond_site_symmetry_2
Hf0 Pd3 2.751105 1_555
Hf0 Pd4 2.751234 1_555
Hf0 Pd2 2.755293 1_555
Hf0 Pd5 2.755443 1_555
Hf0 Pd12 2.771157 1_555
Hf0 Pd11 2.771268 1_555
Hf0 Pd13 2.773296 1_555
Hf0 Pd10 2.773483 1_555
Pd0 Zr4 2.774936 1_654
Pd0 Zr5 2.805672 1_555
Pd0 Zr8 2.820605 1_545
Pd0 Zr12 2.823630 1_545
Pd0 Pd16 2.824013 1_655
Pd0 Pd9 2.839691 1_654
Pd0 Pd3 2.841001 1_555
Pd0 Pd15 2.846099 1_545
Pd0 Zr0 2.881377 1_555
Pd0 Zr2 2.884716 1_555
Pd1 Zr4 2.779147 1_565
Pd1 Zr6 2.805771 1_555
Pd1 Zr7 2.809627 1_565
Pd1 Pd5 2.834109 1_555
Pd1 Pd14 2.839157 1_565
Pd1 Pd8 2.850066 1_456
Pd1 Zr11 2.855085 1_565
Pd1 Zr1 2.874037 1_556
Pd1 Zr3 2.910213 1_555
Pd2 Zr7 2.810211 1_555
Pd2 Zr10 2.815224 1_555
Pd2 Zr6 2.832508 1_655
Pd2 Pd6 2.834113 1_555
Pd2 Zr2 2.905492 1_555
Pd2 Zr0 2.925529 1_556
Pd3 Zr5 2.814364 1_555
Pd3 Zr8 2.824238 1_545
Pd3 Zr9 2.833301 1_555
Pd3 Zr2 2.887428 1_555
Pd3 Zr0 2.915706 1_555
Pd4 Zr8 2.814393 1_555
Pd4 Zr5 2.824492 1_455
Pd4 Zr9 2.833629 1_555
Pd4 Pd7 2.840968 1_555
Pd4 Zr3 2.887469 1_555
Pd4 Zr1 2.915730 1_555
Pd5 Zr6 2.810525 1_555
Pd5 Zr10 2.815233 1_555
Pd5 Zr7 2.832643 1_565
Pd5 Zr3 2.905529 1_555
Pd5 Zr1 2.925576 1_556
Pd6 Zr4 2.779137 1_655
Pd6 Zr7 2.805584 1_555
Pd6 Zr6 2.809532 1_655
Pd6 Pd9 2.839272 1_655
Pd6 Zr11 2.855234 1_655
Pd6 Zr0 2.874250 1_556
Pd6 Zr2 2.910190 1_555
Pd7 Zr4 2.774815 1_564
Pd7 Zr8 2.805682 1_555
Pd7 Zr5 2.820745 1_455
Pd7 Zr12 2.823718 1_455
Pd7 Pd8 2.846004 1_455
Pd7 Zr1 2.881274 1_555
Pd7 Zr3 2.884725 1_555
Pd8 Zr4 2.783860 1_664
Pd8 Zr5 2.799719 1_555
Pd8 Zr6 2.814052 1_654
Pd8 Pd9 2.830483 1_654
Pd8 Zr10 2.839702 1_554
Pd8 Zr1 2.899693 1_655
Pd8 Zr0 2.916747 1_555
Pd9 Zr4 2.783799 1_555
Pd9 Zr6 2.802031 1_555
Pd9 Zr5 2.805053 1_456
Pd9 Zr9 2.853012 1_556
Pd9 Zr0 2.895004 1_456
Pd9 Zr1 2.908798 1_556
Pd10 Zr7 2.787464 1_565
Pd10 Zr8 2.820625 1_555
Pd10 Pd5 2.825914 1_555
Pd10 Zr12 2.838436 1_555
Pd10 Pd4 2.840588 1_555
Pd10 Pd12 2.859471 1_565
Pd10 Zr3 2.908345 1_555
Pd10 Zr2 2.929865 1_565
Pd11 Zr5 2.785374 1_455
Pd11 Zr11 2.812381 1_555
Pd11 Pd4 2.819466 1_555
Pd11 Pd16 2.822514 1_555
Pd11 Zr6 2.829369 1_555
Pd11 Pd5 2.839720 1_555
Pd11 Pd13 2.859581 1_455
Pd11 Zr2 2.897730 1_455
Pd11 Zr3 2.934383 1_555
Pd12 Zr8 2.785223 1_545
Pd12 Zr11 2.812405 1_555
Pd12 Pd3 2.819310 1_555
Pd12 Pd16 2.822398 1_555
Pd12 Zr7 2.829285 1_555
Pd12 Pd2 2.839686 1_555
Pd12 Zr3 2.897591 1_545
Pd12 Zr2 2.934172 1_555
Pd13 Zr6 2.787451 1_655
Pd13 Zr5 2.820584 1_555
Pd13 Pd2 2.825948 1_555
Pd13 Zr12 2.838395 1_555
Pd13 Pd3 2.840595 1_555
Pd13 Zr2 2.908341 1_555
Pd13 Zr3 2.930068 1_655
Pd14 Zr4 2.783765 1_555
Pd14 Zr7 2.802040 1_555
Pd14 Zr8 2.805039 1_546
Pd14 Pd15 2.830370 1_546
Pd14 Pd7 2.839611 1_546
Pd14 Zr9 2.852877 1_556
Pd14 Zr1 2.894766 1_546
Pd14 Zr0 2.908690 1_556
Pd15 Zr4 2.784054 1_664
Pd15 Zr8 2.799782 1_555
Pd15 Zr7 2.813951 1_564
Pd15 Zr10 2.839778 1_554
Pd15 Pd6 2.850083 1_564
Pd15 Zr0 2.899770 1_565
Pd15 Zr1 2.916555 1_555
Pd16 Zr9 2.821645 1_555
Pd16 Pd7 2.823865 1_545
Pd16 Zr12 2.878142 1_445
Pd16 Zr11 2.883378 1_555
Pd16 Zr3 2.887566 1_545
Pd16 Zr2 2.887912 1_455
Au0 Pd10 2.826041 1_555
Au0 Pd13 2.826042 1_555
Au0 Pd1 2.826293 1_655
Au0 Pd6 2.826299 1_565
Au0 Zr10 2.859040 1_555
Au0 Pd16 2.879411 1_665
Au0 Zr11 2.913369 1_665
Au0 Zr12 2.923306 1_555
Au0 Zr3 2.925901 1_655
Au0 Zr2 2.925945 1_565
Au1 Pd14 2.821467 1_555
Au1 Pd9 2.821499 1_555
Au1 Pd2 2.840326 1_555
Au1 Pd5 2.840332 1_555
Au1 Zr11 2.867237 1_555
Au1 Au2 2.927045 1_556
Au1 Zr0 2.937144 1_556
Au1 Zr1 2.937362 1_556
Au1 Zr10 2.950261 1_555
Au1 Zr9 2.992290 1_556
Au2 Pd3 2.826026 1_555
Au2 Pd4 2.826037 1_555
Au2 Pd15 2.827952 1_555
Au2 Pd8 2.828004 1_555
Au2 Zr12 2.871800 1_555
Au2 Zr0 2.936994 1_555
Au2 Zr1 2.937081 1_555
Au2 Zr10 2.953808 1_554
Au2 Zr9 2.997444 1_555
