# generated using pymatgen
data_Ca2Al3Ir2
_symmetry_space_group_name_H-M   'P 1'
_cell_length_a   5.76151004
_cell_length_b   5.76151056
_cell_length_c   7.27101356
_cell_angle_alpha   116.00142591
_cell_angle_beta   116.00142941
_cell_angle_gamma   41.00570526
_symmetry_Int_Tables_number   1
_chemical_formula_structural   Ca2Al3Ir2
_chemical_formula_sum   'Ca2 Al3 Ir2'
_cell_volume   139.94850829
_cell_formula_units_Z   1
loop_
 _symmetry_equiv_pos_site_id
 _symmetry_equiv_pos_as_xyz
  1  'x, y, z'
loop_
 _atom_site_type_symbol
 _atom_site_label
 _atom_site_symmetry_multiplicity
 _atom_site_fract_x
 _atom_site_fract_y
 _atom_site_fract_z
 _atom_site_occupancy
  Ca  Ca0  1  0.85655854  0.85655854  0.22643845  1
  Ca  Ca1  1  0.14344246  0.14344246  0.77356255  1
  Al  Al0  1  0.50000000  0.50000000  0.00000000  1
  Al  Al1  1  0.65497279  0.65497279  0.43643993  1
  Al  Al2  1  0.34502821  0.34502821  0.56356007  1
  Ir  Ir0  1  0.12699005  0.12699005  0.20908380  1
  Ir  Ir1  1  0.87300995  0.87300995  0.79091620  1
loop_
_geom_bond_atom_site_label_1
_geom_bond_atom_site_label_2
_geom_bond_distance
_geom_bond_site_symmetry_2
Ca0 Ir0 2.979940 1_665
Ca0 Ir0 3.151952 1_565
Ca0 Ir0 3.151953 1_655
Ca0 Ir1 3.253580 1_554
Ca0 Ca1 3.621605 1_564
Ca0 Ca1 3.621605 1_654
Ca0 Ca1 3.725942 1_665
Ca1 Ir1 2.979947 1_445
Ca1 Ir1 3.151947 1_545
Ca1 Ir1 3.151947 1_455
Ca1 Ir0 3.253579 1_556
Al0 Ir0 2.512278 1_655
Al0 Ir1 2.512278 1_454
Al0 Ir0 2.512279 1_565
Al0 Ir1 2.512279 1_544
Al0 Al2 2.810571 1_554
Al0 Al1 2.810572 1_555
Al0 Ca0 3.400875 1_455
Al0 Ca0 3.400875 1_545
Al0 Ca1 3.400878 1_654
Al0 Ca1 3.400878 1_564
Al0 Ca1 3.404338 1_554
Al0 Ca0 3.404348 1_555
Al1 Ir0 2.535531 1_565
Al1 Ir0 2.535531 1_655
Al1 Ir1 2.550155 1_555
Al1 Al2 2.712854 1_655
Al1 Al2 2.712855 1_565
Al1 Ca0 3.189851 1_555
Al1 Ca1 3.222084 1_655
Al1 Ca1 3.222084 1_565
Al1 Ca0 3.489100 1_455
Al1 Ca0 3.489101 1_545
Al2 Ir1 2.535533 1_545
Al2 Ir1 2.535533 1_455
Al2 Ir0 2.550160 1_555
Al2 Ca1 3.189857 1_555
Al2 Ca0 3.222078 1_455
Al2 Ca0 3.222078 1_545
Al2 Ca1 3.489100 1_655
Al2 Ca1 3.489101 1_565
Ir0 Ir1 2.992826 1_444
