# generated using pymatgen
data_Cs3Nb2SbSe11
_symmetry_space_group_name_H-M   'P 1'
_cell_length_a   10.56839716
_cell_length_b   10.56839688
_cell_length_c   10.37434836
_cell_angle_alpha   83.92685114
_cell_angle_beta   83.92685040
_cell_angle_gamma   84.00915066
_symmetry_Int_Tables_number   1
_chemical_formula_structural   Cs3Nb2SbSe11
_chemical_formula_sum   'Cs6 Nb4 Sb2 Se22'
_cell_volume   1140.65346556
_cell_formula_units_Z   2
loop_
 _symmetry_equiv_pos_site_id
 _symmetry_equiv_pos_as_xyz
  1  'x, y, z'
loop_
 _atom_site_type_symbol
 _atom_site_label
 _atom_site_symmetry_multiplicity
 _atom_site_fract_x
 _atom_site_fract_y
 _atom_site_fract_z
 _atom_site_occupancy
  Cs  Cs0  1  0.35487996  0.18946165  0.65731871  1
  Cs  Cs1  1  0.18946165  0.35487996  0.15731871  1
  Cs  Cs2  1  0.95549738  0.81894209  0.39577053  1
  Cs  Cs3  1  0.81894209  0.95549738  0.89577053  1
  Cs  Cs4  1  0.56707901  0.71677150  0.56015717  1
  Cs  Cs5  1  0.71677150  0.56707901  0.06015717  1
  Nb  Nb0  1  0.45542666  0.91841564  0.17126908  1
  Nb  Nb1  1  0.20779699  0.80694264  0.98434931  1
  Nb  Nb2  1  0.91841564  0.45542666  0.67126908  1
  Nb  Nb3  1  0.80694264  0.20779699  0.48434931  1
  Sb  Sb0  1  0.58925067  0.25420244  0.21376631  1
  Sb  Sb1  1  0.25420244  0.58925067  0.71376631  1
  Se  Se0  1  0.42837837  0.10421681  0.32863687  1
  Se  Se1  1  0.13345212  0.04751364  0.93052922  1
  Se  Se2  1  0.38313879  0.61361250  0.91150227  1
  Se  Se3  1  0.89269046  0.46938672  0.41933698  1
  Se  Se4  1  0.82103448  0.16418436  0.23327753  1
  Se  Se5  1  0.48639792  0.10063790  0.98347713  1
  Se  Se6  1  0.61361250  0.38313879  0.41150227  1
  Se  Se7  1  0.16418436  0.82103448  0.73327753  1
  Se  Se8  1  0.66365684  0.84273279  0.22466598  1
  Se  Se9  1  0.02892495  0.69726954  0.06693157  1
  Se  Se10  1  0.69726954  0.02892495  0.56693157  1
  Se  Se11  1  0.10063790  0.48639792  0.48347713  1
  Se  Se12  1  0.69636770  0.35101179  0.68504439  1
  Se  Se13  1  0.46938672  0.89269046  0.91933698  1
  Se  Se14  1  0.18400777  0.98500539  0.14472904  1
  Se  Se15  1  0.98500539  0.18400777  0.64472904  1
  Se  Se16  1  0.84273279  0.66365684  0.72466598  1
  Se  Se17  1  0.81849718  0.30741036  0.86669690  1
  Se  Se18  1  0.30741036  0.81849718  0.36669690  1
  Se  Se19  1  0.04751364  0.13345212  0.43052922  1
  Se  Se20  1  0.35101179  0.69636770  0.18504439  1
  Se  Se21  1  0.10421681  0.42837837  0.82863687  1
loop_
_geom_bond_atom_site_label_1
_geom_bond_atom_site_label_2
_geom_bond_distance
_geom_bond_site_symmetry_2
Cs0 Se0 3.603557 1_555
Cs0 Se1 3.766968 1_555
Cs0 Se5 3.783268 1_555
Cs0 Se21 3.887049 1_555
Cs0 Se10 3.897253 1_555
Cs0 Se15 3.931561 1_455
Cs0 Se6 4.093682 1_555
Cs0 Se13 4.097589 1_545
Cs0 Se12 4.199068 1_555
Cs0 Se11 4.288105 1_555
Cs0 Se19 4.330260 1_555
Cs0 Sb1 4.333596 1_555
Cs1 Se21 3.603557 1_554
Cs1 Se19 3.766968 1_555
Cs1 Se11 3.783268 1_555
Cs1 Se0 3.887049 1_555
Cs1 Se9 3.897253 1_555
Cs1 Se14 3.931561 1_545
Cs1 Se2 4.093682 1_554
Cs1 Se3 4.097589 1_455
Cs1 Se20 4.199068 1_555
Cs1 Se5 4.288105 1_554
Cs1 Se1 4.330260 1_554
Cs1 Sb0 4.333596 1_555
Cs2 Se19 3.623029 1_665
Cs2 Se8 3.691771 1_555
Cs2 Se18 3.698974 1_655
Cs2 Se11 3.745076 1_655
Cs2 Se9 3.748829 1_655
Cs2 Se10 3.750974 1_565
Cs2 Se16 3.757492 1_555
Cs2 Se14 3.779132 1_655
Cs2 Se3 3.799233 1_555
Cs2 Se4 4.036954 1_565
Cs2 Se7 4.334184 1_655
Cs3 Se1 3.623029 1_665
Cs3 Se16 3.691771 1_555
Cs3 Se17 3.698974 1_565
Cs3 Se5 3.745076 1_565
Cs3 Se10 3.748829 1_565
Cs3 Se9 3.750974 1_656
Cs3 Se8 3.757492 1_556
Cs3 Se15 3.779132 1_565
Cs3 Se13 3.799233 1_555
Cs3 Se7 4.036954 1_655
Cs3 Se4 4.334184 1_566
Cs4 Se16 3.496090 1_555
Cs4 Se18 3.578833 1_555
Cs4 Se8 3.671422 1_555
Cs4 Se10 3.714593 1_565
Cs4 Sb1 3.827561 1_555
Cs4 Se6 3.959900 1_555
Cs4 Se2 4.044211 1_555
Cs4 Se12 4.086567 1_555
Cs5 Se8 3.496090 1_555
Cs5 Se17 3.578833 1_554
Cs5 Se16 3.671422 1_554
Cs5 Se9 3.714593 1_655
Cs5 Sb0 3.827561 1_555
Cs5 Se2 3.959900 1_554
Cs5 Se6 4.044211 1_555
Cs5 Se20 4.086567 1_555
Nb0 Se8 2.363536 1_555
Nb0 Se5 2.610393 1_564
Nb0 Se18 2.625514 1_555
Nb0 Se13 2.643320 1_554
Nb0 Se0 2.658059 1_565
Nb0 Se20 2.679795 1_555
Nb0 Se14 2.916143 1_555
Nb1 Se9 2.357026 1_556
Nb1 Se1 2.601655 1_565
Nb1 Se14 2.616891 1_556
Nb1 Se7 2.678944 1_555
Nb1 Se2 2.723922 1_555
Nb1 Se20 2.788241 1_556
Nb1 Se13 2.986325 1_555
Nb2 Se16 2.363536 1_555
Nb2 Se11 2.610393 1_655
Nb2 Se17 2.625514 1_555
Nb2 Se3 2.643320 1_555
Nb2 Se21 2.658059 1_655
Nb2 Se12 2.679795 1_555
Nb2 Se15 2.916143 1_555
Nb3 Se10 2.357026 1_555
Nb3 Se19 2.601655 1_655
Nb3 Se15 2.616891 1_555
Nb3 Se4 2.678944 1_555
Nb3 Se6 2.723922 1_555
Nb3 Se12 2.788241 1_555
Nb3 Se3 2.986325 1_555
Sb0 Se4 2.554254 1_555
Sb0 Se0 2.560744 1_555
Sb0 Se6 2.628258 1_555
Sb1 Se7 2.554254 1_555
Sb1 Se21 2.560744 1_555
Sb1 Se2 2.628258 1_555
Se1 Se14 2.350937 1_546
Se12 Se17 2.374131 1_555
Se15 Se19 2.350937 1_655
Se18 Se20 2.374131 1_555
