# generated using pymatgen
data_Cs3H6Rh
_symmetry_space_group_name_H-M   'P 1'
_cell_length_a   6.45822264
_cell_length_b   6.45822293
_cell_length_c   6.45822316
_cell_angle_alpha   59.99999884
_cell_angle_beta   59.99999735
_cell_angle_gamma   59.99999973
_symmetry_Int_Tables_number   1
_chemical_formula_structural   Cs3H6Rh
_chemical_formula_sum   'Cs3 H6 Rh1'
_cell_volume   190.46890336
_cell_formula_units_Z   1
loop_
 _symmetry_equiv_pos_site_id
 _symmetry_equiv_pos_as_xyz
  1  'x, y, z'
loop_
 _atom_site_type_symbol
 _atom_site_label
 _atom_site_symmetry_multiplicity
 _atom_site_fract_x
 _atom_site_fract_y
 _atom_site_fract_z
 _atom_site_occupancy
  Cs  Cs0  1  0.75000000  0.75000000  0.75000000  1
  Cs  Cs1  1  0.25000000  0.25000000  0.25000000  1
  Cs  Cs2  1  0.50000000  0.50000000  0.50000000  1
  H  H0  1  0.81707432  0.81707432  0.18292568  1
  H  H1  1  0.18292568  0.81707432  0.18292568  1
  H  H2  1  0.81707432  0.18292568  0.18292568  1
  H  H3  1  0.18292568  0.18292568  0.81707432  1
  H  H4  1  0.81707432  0.18292568  0.81707432  1
  H  H5  1  0.18292568  0.81707432  0.81707432  1
  Rh  Rh0  1  0.00000000  0.00000000  0.00000000  1
loop_
_geom_bond_atom_site_label_1
_geom_bond_atom_site_label_2
_geom_bond_distance
_geom_bond_site_symmetry_2
Cs0 H5 3.286708 1_555
Cs0 H1 3.286708 1_556
Cs0 H3 3.286708 1_565
Cs0 H5 3.286708 1_655
Cs0 H1 3.286708 1_655
Cs0 H3 3.286708 1_655
Cs0 H2 3.286708 1_556
Cs0 H4 3.286708 1_555
Cs0 H4 3.286708 1_565
Cs0 H2 3.286708 1_565
Cs0 H0 3.286709 1_555
Cs0 H0 3.286709 1_556
Cs1 H4 3.286708 1_554
Cs1 H2 3.286708 1_555
Cs1 H0 3.286708 1_545
Cs1 H2 3.286708 1_455
Cs1 H4 3.286708 1_455
Cs1 H0 3.286708 1_455
Cs1 H5 3.286708 1_554
Cs1 H1 3.286708 1_555
Cs1 H1 3.286708 1_545
Cs1 H5 3.286708 1_545
Cs1 H3 3.286709 1_555
Cs1 H3 3.286709 1_554
Cs2 H0 2.895937 1_555
Cs2 H3 2.895937 1_555
Cs2 H4 2.895937 1_555
Cs2 H1 2.895937 1_555
Cs2 H5 2.895937 1_555
Cs2 H2 2.895937 1_555
H0 Rh0 1.670716 1_665
H1 Rh0 1.670716 1_565
H2 Rh0 1.670716 1_655
H3 Rh0 1.670716 1_556
H4 Rh0 1.670716 1_656
H5 Rh0 1.670716 1_566
