# generated using pymatgen
data_SrCa2(AgPb)3
_symmetry_space_group_name_H-M   'P 1'
_cell_length_a   4.91293691
_cell_length_b   4.91293759
_cell_length_c   11.64088256
_cell_angle_alpha   90.00000000
_cell_angle_beta   90.00000000
_cell_angle_gamma   119.99999543
_symmetry_Int_Tables_number   1
_chemical_formula_structural   SrCa2(AgPb)3
_chemical_formula_sum   'Sr1 Ca2 Ag3 Pb3'
_cell_volume   243.33187032
_cell_formula_units_Z   1
loop_
 _symmetry_equiv_pos_site_id
 _symmetry_equiv_pos_as_xyz
  1  'x, y, z'
loop_
 _atom_site_type_symbol
 _atom_site_label
 _atom_site_symmetry_multiplicity
 _atom_site_fract_x
 _atom_site_fract_y
 _atom_site_fract_z
 _atom_site_occupancy
  Sr  Sr0  1  0.66666700  0.33333300  0.83125275  1
  Ca  Ca0  1  0.66666700  0.33333300  0.49187007  1
  Ca  Ca1  1  0.66666700  0.33333300  0.17354016  1
  Ag  Ag0  1  0.33333300  0.66666700  0.01636306  1
  Ag  Ag1  1  0.00000000  0.00000000  0.65846206  1
  Ag  Ag2  1  0.00000000  0.00000000  0.30076336  1
  Pb  Pb0  1  0.33333300  0.66666700  0.63661562  1
  Pb  Pb1  1  0.33333300  0.66666700  0.35058942  1
  Pb  Pb2  1  0.00000000  0.00000000  0.01844450  1
loop_
_geom_bond_atom_site_label_1
_geom_bond_atom_site_label_2
_geom_bond_distance
_geom_bond_site_symmetry_2
Ca0 Pb1 3.278787 1_655
Ca0 Pb1 3.278788 1_545
Ca0 Pb1 3.278795 1_555
Ca0 Pb0 3.299204 1_655
Ca0 Pb0 3.299204 1_545
Ca0 Pb0 3.299211 1_555
Ca1 Pb2 3.362333 1_655
Ca1 Pb2 3.362337 1_555
Ca1 Pb2 3.362337 1_665
Ca1 Pb1 3.506194 1_655
Ca1 Pb1 3.506194 1_545
Ca1 Pb1 3.506201 1_555
Ag0 Pb2 2.836586 1_565
Ag0 Pb2 2.836590 1_665
Ag0 Pb2 2.836591 1_555
Ag0 Ca1 3.375406 1_455
Ag0 Ca1 3.375406 1_565
Ag0 Ca1 3.375413 1_555
Ag0 Sr0 3.562162 1_454
Ag0 Sr0 3.562163 1_564
Ag0 Sr0 3.562169 1_554
Ag1 Pb0 2.847860 1_545
Ag1 Pb0 2.847865 1_445
Ag1 Pb0 2.847865 1_555
Ag1 Ca0 3.436049 1_455
Ag1 Ca0 3.436053 1_555
Ag1 Ca0 3.436053 1_445
Ag1 Sr0 3.477285 1_455
Ag1 Sr0 3.477288 1_555
Ag1 Sr0 3.477289 1_445
Ag2 Pb1 2.895178 1_545
Ag2 Pb1 2.895182 1_445
Ag2 Pb1 2.895183 1_555
Ag2 Ca1 3.199839 1_455
Ag2 Ca1 3.199842 1_555
Ag2 Ca1 3.199843 1_445
Ag2 Pb2 3.286441 1_555
Ag2 Ca0 3.604817 1_455
Ag2 Ca0 3.604820 1_555
Ag2 Ca0 3.604821 1_445
Pb0 Pb1 3.329597 1_555
Pb0 Sr0 3.630323 1_455
Pb0 Sr0 3.630324 1_565
Pb0 Sr0 3.630330 1_555
Pb2 Sr0 3.576872 1_454
Pb2 Sr0 3.576875 1_554
Pb2 Sr0 3.576875 1_444
