# generated using pymatgen
data_Cs3Bi2(SbSe3)3
_symmetry_space_group_name_H-M   'P 1'
_cell_length_a   14.09976114
_cell_length_b   14.09976023
_cell_length_c   9.82736580
_cell_angle_alpha   84.30255279
_cell_angle_beta   84.30255278
_cell_angle_gamma   139.57886300
_symmetry_Int_Tables_number   1
_chemical_formula_structural   Cs3Bi2(SbSe3)3
_chemical_formula_sum   'Cs6 Bi4 Sb6 Se18'
_cell_volume   1213.35794823
_cell_formula_units_Z   2
loop_
 _symmetry_equiv_pos_site_id
 _symmetry_equiv_pos_as_xyz
  1  'x, y, z'
loop_
 _atom_site_type_symbol
 _atom_site_label
 _atom_site_symmetry_multiplicity
 _atom_site_fract_x
 _atom_site_fract_y
 _atom_site_fract_z
 _atom_site_occupancy
  Cs  Cs0  1  0.41831649  0.58168351  0.50000000  1
  Cs  Cs1  1  0.58168351  0.41831649  0.50000000  1
  Cs  Cs2  1  0.01614350  0.44813875  0.23705145  1
  Cs  Cs3  1  0.44813875  0.01614350  0.23705145  1
  Cs  Cs4  1  0.98385650  0.55186125  0.76294855  1
  Cs  Cs5  1  0.55186125  0.98385650  0.76294855  1
  Bi  Bi0  1  0.42389233  0.57610767  0.00000000  1
  Bi  Bi1  1  0.57610767  0.42389233  1.00000000  1
  Bi  Bi2  1  0.92350427  0.07649573  0.50000000  1
  Bi  Bi3  1  0.07649573  0.92350427  0.50000000  1
  Sb  Sb0  1  0.03604453  0.28376822  0.83770847  1
  Sb  Sb1  1  0.28376822  0.03604453  0.83770847  1
  Sb  Sb2  1  0.96395547  0.71623178  0.16229153  1
  Sb  Sb3  1  0.71623178  0.96395547  0.16229153  1
  Sb  Sb4  1  0.88198577  0.88198577  0.87973300  1
  Sb  Sb5  1  0.11801423  0.11801423  0.12026700  1
  Se  Se0  1  0.13009020  0.13009020  0.62909649  1
  Se  Se1  1  0.86990980  0.86990980  0.37090351  1
  Se  Se2  1  0.80636228  0.19363772  0.00000000  1
  Se  Se3  1  0.19363772  0.80636228  1.00000000  1
  Se  Se4  1  0.24504614  0.56279812  0.84031363  1
  Se  Se5  1  0.56279812  0.24504614  0.84031363  1
  Se  Se6  1  0.75495386  0.43720188  0.15968637  1
  Se  Se7  1  0.43720188  0.75495386  0.15968637  1
  Se  Se8  1  0.99621683  0.31838635  0.59836195  1
  Se  Se9  1  0.31838635  0.99621683  0.59836195  1
  Se  Se10  1  0.00378317  0.68161365  0.40163805  1
  Se  Se11  1  0.68161365  0.00378317  0.40163805  1
  Se  Se12  1  0.36440891  0.36440891  0.87425922  1
  Se  Se13  1  0.63559109  0.63559109  0.12574078  1
  Se  Se14  1  0.69935549  0.85117780  0.77471487  1
  Se  Se15  1  0.85117780  0.69935549  0.77471487  1
  Se  Se16  1  0.30064451  0.14882220  0.22528513  1
  Se  Se17  1  0.14882220  0.30064451  0.22528513  1
loop_
_geom_bond_atom_site_label_1
_geom_bond_atom_site_label_2
_geom_bond_distance
_geom_bond_site_symmetry_2
Cs0 Se7 3.799318 1_555
Cs0 Se4 3.799318 1_555
Cs0 Se11 3.826363 1_565
Cs0 Se8 3.826363 1_455
Cs0 Se0 4.079364 1_555
Cs0 Se1 4.079364 1_555
Cs0 Se12 4.141590 1_555
Cs0 Se13 4.141590 1_555
Cs1 Se5 3.799318 1_555
Cs1 Se6 3.799318 1_555
Cs1 Se9 3.826363 1_545
Cs1 Se10 3.826363 1_655
Cs1 Se1 4.079364 1_555
Cs1 Se0 4.079364 1_555
Cs1 Se13 4.141590 1_555
Cs1 Se12 4.141590 1_555
Cs2 Se8 3.709868 1_455
Cs2 Se17 3.710296 1_555
Cs2 Se6 3.725415 1_455
Cs2 Se7 3.726191 1_555
Cs2 Se2 3.730904 1_455
Cs2 Se3 3.802798 1_554
Cs2 Se10 3.918948 1_555
Cs2 Se11 3.949106 1_455
Cs2 Se4 4.066570 1_554
Cs3 Se9 3.709868 1_545
Cs3 Se16 3.710296 1_555
Cs3 Se7 3.725415 1_545
Cs3 Se6 3.726191 1_555
Cs3 Se3 3.730905 1_544
Cs3 Se2 3.802798 1_555
Cs3 Se11 3.918948 1_555
Cs3 Se10 3.949106 1_545
Cs3 Se5 4.066570 1_554
Cs4 Se10 3.709868 1_655
Cs4 Se15 3.710296 1_555
Cs4 Se4 3.725415 1_655
Cs4 Se5 3.726191 1_555
Cs4 Se3 3.730904 1_655
Cs4 Se2 3.802798 1_556
Cs4 Se8 3.918948 1_555
Cs4 Se9 3.949106 1_655
Cs4 Se6 4.066570 1_556
Cs5 Se11 3.709868 1_565
Cs5 Se14 3.710296 1_555
Cs5 Se5 3.725415 1_565
Cs5 Se4 3.726191 1_555
Cs5 Se2 3.730905 1_566
Cs5 Se3 3.802798 1_555
Cs5 Se9 3.918948 1_555
Cs5 Se8 3.949106 1_565
Cs5 Se7 4.066570 1_556
Bi0 Se12 2.875134 1_554
Bi0 Se13 2.875134 1_555
Bi0 Se17 2.946327 1_555
Bi0 Se14 2.946327 1_554
Bi0 Se7 2.996746 1_555
Bi0 Se4 2.996746 1_554
Bi1 Se13 2.875134 1_556
Bi1 Se12 2.875134 1_555
Bi1 Se15 2.946327 1_555
Bi1 Se16 2.946327 1_556
Bi1 Se5 2.996746 1_555
Bi1 Se6 2.996746 1_556
Bi2 Se1 2.870141 1_545
Bi2 Se0 2.870141 1_655
Bi2 Se14 2.947049 1_545
Bi2 Se17 2.947049 1_655
Bi2 Se8 3.024077 1_555
Bi2 Se11 3.024077 1_555
Bi3 Se0 2.870141 1_565
Bi3 Se1 2.870141 1_455
Bi3 Se16 2.947049 1_565
Bi3 Se15 2.947049 1_455
Bi3 Se10 3.024077 1_555
Bi3 Se9 3.024077 1_555
Sb0 Se8 2.556920 1_455
Sb0 Se4 2.558404 1_555
Sb0 Se2 2.636690 1_456
Sb1 Se9 2.556920 1_545
Sb1 Se5 2.558404 1_555
Sb1 Se3 2.636690 1_545
Sb2 Se10 2.556920 1_655
Sb2 Se6 2.558404 1_555
Sb2 Se3 2.636690 1_654
Sb3 Se11 2.556920 1_565
Sb3 Se7 2.558404 1_555
Sb3 Se2 2.636690 1_565
Sb4 Se15 2.607341 1_555
Sb4 Se14 2.607341 1_555
Sb4 Se13 2.876025 1_556
Sb4 Se0 2.913322 1_665
Sb5 Se17 2.607341 1_555
Sb5 Se16 2.607341 1_555
Sb5 Se12 2.876025 1_554
Sb5 Se1 2.913322 1_445
