# generated using pymatgen
data_NaSr(PtPb2)2
_symmetry_space_group_name_H-M   'P 1'
_cell_length_a   6.20766703
_cell_length_b   6.20766658
_cell_length_c   7.99199855
_cell_angle_alpha   90.00000000
_cell_angle_beta   90.00000000
_cell_angle_gamma   137.34280189
_symmetry_Int_Tables_number   1
_chemical_formula_structural   NaSr(PtPb2)2
_chemical_formula_sum   'Na1 Sr1 Pt2 Pb4'
_cell_volume   208.68551390
_cell_formula_units_Z   1
loop_
 _symmetry_equiv_pos_site_id
 _symmetry_equiv_pos_as_xyz
  1  'x, y, z'
loop_
 _atom_site_type_symbol
 _atom_site_label
 _atom_site_symmetry_multiplicity
 _atom_site_fract_x
 _atom_site_fract_y
 _atom_site_fract_z
 _atom_site_occupancy
  Na  Na0  1  0.93452487  0.06547513  0.75000000  1
  Sr  Sr0  1  0.06459477  0.93540523  0.25000000  1
  Pt  Pt0  1  0.20734201  0.79265799  0.75000000  1
  Pt  Pt1  1  0.78846509  0.21153491  0.25000000  1
  Pb  Pb0  1  0.64657021  0.35342979  0.94935768  1
  Pb  Pb1  1  0.64657021  0.35342979  0.55064232  1
  Pb  Pb2  1  0.35596693  0.64403307  0.04136016  1
  Pb  Pb3  1  0.35596693  0.64403307  0.45863984  1
loop_
_geom_bond_atom_site_label_1
_geom_bond_atom_site_label_2
_geom_bond_distance
_geom_bond_site_symmetry_2
Na0 Pt0 3.155132 1_645
Na0 Pb2 3.368286 1_656
Na0 Pb3 3.368286 1_655
Na0 Pb2 3.368286 1_546
Na0 Pb3 3.368286 1_545
Na0 Pt0 3.464227 1_655
Na0 Pt0 3.464227 1_545
Na0 Pb0 3.691708 1_555
Na0 Pb1 3.691708 1_555
Na0 Pb0 3.694603 1_545
Na0 Pb1 3.694603 1_545
Na0 Pb0 3.694603 1_655
Na0 Pb1 3.694603 1_655
Pt1 Sr0 3.193441 1_645
Pt1 Sr0 3.435263 1_655
Pt1 Sr0 3.435263 1_545
Pb0 Pt0 2.851360 1_545
Pb0 Pt0 2.851360 1_655
Pb0 Pt1 2.909649 1_556
Pb0 Pb1 3.186533 1_555
Pb0 Pb2 3.391598 1_546
Pb0 Pb2 3.391599 1_656
Pb0 Sr0 3.430701 1_656
Pb0 Sr0 3.430701 1_546
Pb0 Pb2 3.440321 1_556
Pb1 Pt0 2.851360 1_545
Pb1 Pt0 2.851360 1_655
Pb1 Pt1 2.909649 1_555
Pb1 Pb3 3.391598 1_545
Pb1 Pb3 3.391599 1_655
Pb1 Sr0 3.430701 1_655
Pb1 Sr0 3.430701 1_545
Pb1 Pb3 3.440321 1_555
Pb2 Pt0 2.894233 1_554
Pb2 Pt1 2.913350 1_565
Pb2 Pt1 2.913350 1_455
Pb2 Pb3 3.334899 1_555
Pb2 Sr0 3.701310 1_545
Pb2 Sr0 3.701310 1_655
Pb2 Sr0 3.759708 1_555
Pb3 Pt0 2.894233 1_555
Pb3 Pt1 2.913350 1_565
Pb3 Pt1 2.913350 1_455
Pb3 Sr0 3.701310 1_545
Pb3 Sr0 3.701310 1_655
Pb3 Sr0 3.759708 1_555
