# generated using pymatgen
data_Ta9(NiS3)2
_symmetry_space_group_name_H-M   'P 1'
_cell_length_a   10.14980840
_cell_length_b   10.14980840
_cell_length_c   3.38631625
_cell_angle_alpha   90.00000000
_cell_angle_beta   90.00000000
_cell_angle_gamma   119.99999389
_symmetry_Int_Tables_number   1
_chemical_formula_structural   Ta9(NiS3)2
_chemical_formula_sum   'Ta9 Ni2 S6'
_cell_volume   302.11609423
_cell_formula_units_Z   1
loop_
 _symmetry_equiv_pos_site_id
 _symmetry_equiv_pos_as_xyz
  1  'x, y, z'
loop_
 _atom_site_type_symbol
 _atom_site_label
 _atom_site_symmetry_multiplicity
 _atom_site_fract_x
 _atom_site_fract_y
 _atom_site_fract_z
 _atom_site_occupancy
  Ta  Ta0  1  0.73718208  0.19878268  0.50000000  1
  Ta  Ta1  1  0.80121732  0.53840140  0.50000000  1
  Ta  Ta2  1  0.46159860  0.26281792  0.50000000  1
  Ta  Ta3  1  0.26281792  0.46159860  0.50000000  1
  Ta  Ta4  1  0.53840140  0.80121732  0.50000000  1
  Ta  Ta5  1  0.19878268  0.73718208  0.50000000  1
  Ta  Ta6  1  -0.00000000  0.45414611  0.00000000  1
  Ta  Ta7  1  0.54585389  0.54585389  0.00000000  1
  Ta  Ta8  1  0.45414611  -0.00000000  -0.00000000  1
  Ni  Ni0  1  0.66666700  0.33333300  0.00000000  1
  Ni  Ni1  1  0.33333300  0.66666700  -0.00000000  1
  S  S0  1  0.00000000  0.70404651  0.00000000  1
  S  S1  1  0.29595349  0.29595349  -0.00000000  1
  S  S2  1  0.70404651  0.00000000  0.00000000  1
  S  S3  1  -0.00000000  0.27151650  0.50000000  1
  S  S4  1  0.72848350  0.72848350  0.50000000  1
  S  S5  1  0.27151650  -0.00000000  0.50000000  1
loop_
_geom_bond_atom_site_label_1
_geom_bond_atom_site_label_2
_geom_bond_distance
_geom_bond_site_symmetry_2
Ni0 Ta0 2.494290 1_555
Ni0 Ta0 2.494290 1_554
Ni0 Ta1 2.494307 1_554
Ni0 Ta1 2.494307 1_555
Ni0 Ta2 2.494311 1_554
Ni0 Ta2 2.494311 1_555
Ni0 Ta6 2.966727 1_655
Ni0 Ta8 2.966728 1_555
Ni0 Ta7 2.966736 1_555
Ni1 Ta5 2.494290 1_555
Ni1 Ta5 2.494290 1_554
Ni1 Ta4 2.494307 1_555
Ni1 Ta4 2.494307 1_554
Ni1 Ta3 2.494311 1_555
Ni1 Ta3 2.494311 1_554
Ni1 Ta8 2.966727 1_565
Ni1 Ta6 2.966728 1_555
Ni1 Ta7 2.966736 1_555
S0 Ta1 2.524290 1_455
S0 Ta1 2.524290 1_454
S0 Ta5 2.524296 1_555
S0 Ta5 2.524296 1_554
S0 Ta6 2.536441 1_555
S1 Ta2 2.524281 1_555
S1 Ta3 2.524281 1_554
S1 Ta3 2.524281 1_555
S1 Ta2 2.524281 1_554
S1 Ta7 2.536441 1_555
S2 Ta4 2.524290 1_544
S2 Ta4 2.524290 1_545
S2 Ta0 2.524296 1_555
S2 Ta0 2.524296 1_554
S2 Ta8 2.536441 1_555
S3 Ta3 2.385691 1_555
S3 Ta0 2.385696 1_455
S3 Ta6 2.510542 1_555
S3 Ta6 2.510542 1_556
S4 Ta1 2.385676 1_555
S4 Ta4 2.385676 1_555
S4 Ta7 2.510543 1_555
S4 Ta7 2.510543 1_556
S5 Ta2 2.385691 1_555
S5 Ta5 2.385696 1_545
S5 Ta8 2.510542 1_556
S5 Ta8 2.510542 1_555
