# generated using pymatgen
data_KBa2Cd2Bi3
_symmetry_space_group_name_H-M   'P 1'
_cell_length_a   5.09846943
_cell_length_b   13.54177484
_cell_length_c   17.21732082
_cell_angle_alpha   90.00000000
_cell_angle_beta   90.00000000
_cell_angle_gamma   90.00000000
_symmetry_Int_Tables_number   1
_chemical_formula_structural   KBa2Cd2Bi3
_chemical_formula_sum   'K4 Ba8 Cd8 Bi12'
_cell_volume   1188.72386138
_cell_formula_units_Z   4
loop_
 _symmetry_equiv_pos_site_id
 _symmetry_equiv_pos_as_xyz
  1  'x, y, z'
loop_
 _atom_site_type_symbol
 _atom_site_label
 _atom_site_symmetry_multiplicity
 _atom_site_fract_x
 _atom_site_fract_y
 _atom_site_fract_z
 _atom_site_occupancy
  K  K0  1  0.25000000  0.39603072  0.55427288  1
  K  K1  1  0.75000000  0.10396928  0.05427288  1
  K  K2  1  0.25000000  0.89603072  0.94572712  1
  K  K3  1  0.75000000  0.60396928  0.44572712  1
  Ba  Ba0  1  0.25000000  0.37006434  0.28734267  1
  Ba  Ba1  1  0.75000000  0.12993566  0.78734267  1
  Ba  Ba2  1  0.25000000  0.87006434  0.21265733  1
  Ba  Ba3  1  0.75000000  0.62993566  0.71265733  1
  Ba  Ba4  1  0.25000000  0.10031427  0.42726484  1
  Ba  Ba5  1  0.75000000  0.39968573  0.92726484  1
  Ba  Ba6  1  0.25000000  0.60031427  0.07273516  1
  Ba  Ba7  1  0.75000000  0.89968573  0.57273516  1
  Cd  Cd0  1  0.25000000  0.30506087  0.08243298  1
  Cd  Cd1  1  0.75000000  0.19493913  0.58243298  1
  Cd  Cd2  1  0.25000000  0.80506087  0.41756702  1
  Cd  Cd3  1  0.75000000  0.69493913  0.91756702  1
  Cd  Cd4  1  0.25000000  0.36183458  0.78403081  1
  Cd  Cd5  1  0.75000000  0.13816542  0.28403081  1
  Cd  Cd6  1  0.25000000  0.86183458  0.71596919  1
  Cd  Cd7  1  0.75000000  0.63816542  0.21596919  1
  Bi  Bi0  1  0.25000000  0.13184067  0.19503827  1
  Bi  Bi1  1  0.75000000  0.36815933  0.69503827  1
  Bi  Bi2  1  0.25000000  0.63184067  0.30496173  1
  Bi  Bi3  1  0.75000000  0.86815933  0.80496173  1
  Bi  Bi4  1  0.25000000  0.71009598  0.57615046  1
  Bi  Bi5  1  0.75000000  0.78990402  0.07615046  1
  Bi  Bi6  1  0.25000000  0.21009598  0.92384954  1
  Bi  Bi7  1  0.75000000  0.28990402  0.42384954  1
  Bi  Bi8  1  0.25000000  0.07873505  0.63479335  1
  Bi  Bi9  1  0.75000000  0.42126495  0.13479335  1
  Bi  Bi10  1  0.25000000  0.57873505  0.86520665  1
  Bi  Bi11  1  0.75000000  0.92126495  0.36520665  1
loop_
_geom_bond_atom_site_label_1
_geom_bond_atom_site_label_2
_geom_bond_distance
_geom_bond_site_symmetry_2
K0 K3 4.233239 1_555
K0 K3 4.233239 1_455
K1 K2 4.233239 1_544
K1 K2 4.233239 1_644
Ba0 Bi2 3.557872 1_555
Ba0 Bi0 3.596186 1_555
Ba0 Bi7 3.633286 1_455
Ba0 Bi7 3.633286 1_555
Ba0 Cd0 3.636154 1_555
Ba0 Bi9 3.725289 1_455
Ba0 Bi9 3.725289 1_555
Ba0 Cd5 4.045179 1_555
Ba0 Cd5 4.045179 1_455
Ba1 Bi3 3.557872 1_545
Ba1 Bi1 3.596186 1_555
Ba1 Bi6 3.633286 1_655
Ba1 Bi6 3.633286 1_555
Ba1 Cd1 3.636154 1_555
Ba1 Bi8 3.725289 1_555
Ba1 Bi8 3.725289 1_655
Ba1 Cd4 4.045179 1_655
Ba1 Cd4 4.045179 1_555
Ba2 Bi0 3.557872 1_565
Ba2 Bi2 3.596186 1_555
Ba2 Bi5 3.633286 1_455
Ba2 Bi5 3.633286 1_555
Ba2 Cd2 3.636154 1_555
Ba2 Bi11 3.725289 1_455
Ba2 Bi11 3.725289 1_555
Ba2 Cd7 4.045179 1_455
Ba2 Cd7 4.045179 1_555
Ba3 Bi1 3.557872 1_555
Ba3 Bi3 3.596186 1_555
Ba3 Bi4 3.633286 1_655
Ba3 Bi4 3.633286 1_555
Ba3 Cd3 3.636154 1_555
Ba3 Bi10 3.725289 1_655
Ba3 Bi10 3.725289 1_555
Ba3 Cd6 4.045179 1_555
Ba3 Cd6 4.045179 1_655
Ba4 Cd5 3.583714 1_555
Ba4 Cd5 3.583714 1_455
Ba4 Bi8 3.585014 1_555
Ba4 Bi7 3.618495 1_555
Ba4 Bi7 3.618495 1_455
Ba4 Bi11 3.676839 1_545
Ba4 Bi11 3.676839 1_445
Ba5 Cd4 3.583714 1_655
Ba5 Cd4 3.583714 1_555
Ba5 Bi9 3.585014 1_556
Ba5 Bi6 3.618495 1_555
Ba5 Bi6 3.618495 1_655
Ba5 Bi10 3.676839 1_655
Ba5 Bi10 3.676839 1_555
Ba6 Cd7 3.583714 1_455
Ba6 Cd7 3.583714 1_555
Ba6 Bi10 3.585014 1_554
Ba6 Bi5 3.618495 1_455
Ba6 Bi5 3.618495 1_555
Ba6 Bi9 3.676839 1_555
Ba6 Bi9 3.676839 1_455
Ba7 Cd6 3.583714 1_555
Ba7 Cd6 3.583714 1_655
Ba7 Bi11 3.585014 1_555
Ba7 Bi4 3.618495 1_655
Ba7 Bi4 3.618495 1_555
Ba7 Bi8 3.676839 1_665
Ba7 Bi8 3.676839 1_565
Cd0 K1 3.761535 1_455
Cd0 K1 3.761535 1_555
Cd1 K0 3.761535 1_555
Cd1 K0 3.761535 1_655
Cd2 K3 3.761535 1_455
Cd2 K3 3.761535 1_555
Cd3 K2 3.761535 1_555
Cd3 K2 3.761535 1_655
Cd4 K0 3.982828 1_555
Cd5 K1 3.982828 1_555
Cd6 K2 3.982828 1_555
Cd7 K3 3.982828 1_555
Bi0 Cd5 2.975502 1_555
Bi0 Cd5 2.975502 1_455
Bi0 Cd0 3.043213 1_555
Bi0 K1 3.537641 1_555
Bi0 K1 3.537641 1_455
Bi1 Cd4 2.975502 1_655
Bi1 Cd4 2.975502 1_555
Bi1 Cd1 3.043213 1_555
Bi1 K0 3.537641 1_655
Bi1 K0 3.537641 1_555
Bi2 Cd7 2.975502 1_455
Bi2 Cd7 2.975502 1_555
Bi2 Cd2 3.043213 1_555
Bi2 K3 3.537641 1_555
Bi2 K3 3.537641 1_455
Bi3 Cd6 2.975502 1_555
Bi3 Cd6 2.975502 1_655
Bi3 Cd3 3.043213 1_555
Bi3 K2 3.537641 1_655
Bi3 K2 3.537641 1_555
Bi4 Cd2 3.018073 1_555
Bi4 Cd6 3.165021 1_555
Bi4 K3 3.688690 1_555
Bi4 K3 3.688690 1_455
Bi5 Cd3 3.018073 1_554
Bi5 Cd7 3.165021 1_555
Bi5 K2 3.688690 1_654
Bi5 K2 3.688690 1_554
Bi6 Cd0 3.018073 1_556
Bi6 Cd4 3.165021 1_555
Bi6 K1 3.688690 1_456
Bi6 K1 3.688690 1_556
Bi7 Cd1 3.018073 1_555
Bi7 Cd5 3.165021 1_555
Bi7 K0 3.688690 1_555
Bi7 K0 3.688690 1_655
Bi8 Cd1 3.128507 1_455
Bi8 Cd1 3.128507 1_555
Bi8 Cd6 3.252786 1_545
Bi9 Cd0 3.128507 1_555
Bi9 Cd0 3.128507 1_655
Bi9 Cd7 3.252786 1_555
Bi10 Cd3 3.128507 1_455
Bi10 Cd3 3.128507 1_555
Bi10 Cd4 3.252786 1_555
Bi11 Cd2 3.128507 1_555
Bi11 Cd2 3.128507 1_655
Bi11 Cd5 3.252786 1_565
