# generated using pymatgen
data_BaSi2(Ni3P)3
_symmetry_space_group_name_H-M   'P 1'
_cell_length_a   6.60040672
_cell_length_b   6.60040708
_cell_length_c   10.60022226
_cell_angle_alpha   90.00000000
_cell_angle_beta   90.00000000
_cell_angle_gamma   120.00000315
_symmetry_Int_Tables_number   1
_chemical_formula_structural   BaSi2(Ni3P)3
_chemical_formula_sum   'Ba2 Si4 Ni18 P6'
_cell_volume   399.93278621
_cell_formula_units_Z   2
loop_
 _symmetry_equiv_pos_site_id
 _symmetry_equiv_pos_as_xyz
  1  'x, y, z'
loop_
 _atom_site_type_symbol
 _atom_site_label
 _atom_site_symmetry_multiplicity
 _atom_site_fract_x
 _atom_site_fract_y
 _atom_site_fract_z
 _atom_site_occupancy
  Ba  Ba0  1  0.00000000  0.00000000  0.50000000  1
  Ba  Ba1  1  0.00000000  0.00000000  0.00000000  1
  Si  Si0  1  0.33333300  0.66666700  0.43560739  1
  Si  Si1  1  0.66666700  0.33333300  0.93560739  1
  Si  Si2  1  0.66666700  0.33333300  0.56439261  1
  Si  Si3  1  0.33333300  0.66666700  0.06439261  1
  Ni  Ni0  1  0.46144124  0.92288147  0.88826998  1
  Ni  Ni1  1  0.92288147  0.46144124  0.11173002  1
  Ni  Ni2  1  0.53855876  0.07711853  0.11173002  1
  Ni  Ni3  1  0.07711853  0.53855876  0.61173002  1
  Ni  Ni4  1  0.20346693  0.40693187  0.25000000  1
  Ni  Ni5  1  0.79653307  0.20346693  0.75000000  1
  Ni  Ni6  1  0.40693187  0.20346693  0.75000000  1
  Ni  Ni7  1  0.59306813  0.79653307  0.25000000  1
  Ni  Ni8  1  0.20346693  0.79653307  0.25000000  1
  Ni  Ni9  1  0.79653307  0.59306813  0.75000000  1
  Ni  Ni10  1  0.46144124  0.92288147  0.61173002  1
  Ni  Ni11  1  0.53855876  0.46144124  0.38826998  1
  Ni  Ni12  1  0.92288147  0.46144124  0.38826998  1
  Ni  Ni13  1  0.07711853  0.53855876  0.88826998  1
  Ni  Ni14  1  0.46144124  0.53855876  0.88826998  1
  Ni  Ni15  1  0.53855876  0.07711853  0.38826998  1
  Ni  Ni16  1  0.53855876  0.46144124  0.11173002  1
  Ni  Ni17  1  0.46144124  0.53855876  0.61173002  1
  P  P0  1  0.17444095  0.34888191  0.75000000  1
  P  P1  1  0.82555905  0.17444095  0.25000000  1
  P  P2  1  0.17444095  0.82555905  0.75000000  1
  P  P3  1  0.82555905  0.65111809  0.25000000  1
  P  P4  1  0.34888191  0.17444095  0.25000000  1
  P  P5  1  0.65111809  0.82555905  0.75000000  1
loop_
_geom_bond_atom_site_label_1
_geom_bond_atom_site_label_2
_geom_bond_distance
_geom_bond_site_symmetry_2
Ba0 P4 3.316599 1_555
Ba0 P5 3.316599 1_445
Ba0 P0 3.316599 1_555
Ba0 P3 3.316599 1_445
Ba0 P1 3.316599 1_455
Ba0 P2 3.316599 1_545
Ba0 Ni6 3.526103 1_555
Ba0 Ni7 3.526103 1_445
Ba0 Ni4 3.526103 1_555
Ba0 Ni9 3.526103 1_445
Ba0 Ni8 3.526111 1_545
Ba0 Ni5 3.526111 1_455
Ba0 Ni10 3.533887 1_445
Ba0 Ni15 3.533887 1_555
Ba0 Ni3 3.533887 1_555
Ba0 Ni12 3.533887 1_445
Ba0 Ni11 3.533889 1_555
Ba0 Ni17 3.533889 1_445
Ba0 Ni17 3.533889 1_555
Ba0 Ni11 3.533889 1_445
Ba0 Ni10 3.533893 1_545
Ba0 Ni15 3.533893 1_455
Ba0 Ni3 3.533893 1_545
Ba0 Ni12 3.533893 1_455
Ba1 P4 3.316599 1_555
Ba1 P5 3.316599 1_444
Ba1 P0 3.316599 1_554
Ba1 P3 3.316599 1_445
Ba1 P1 3.316599 1_455
Ba1 P2 3.316599 1_544
Ba1 Ni6 3.526103 1_554
Ba1 Ni7 3.526103 1_445
Ba1 Ni4 3.526103 1_555
Ba1 Ni9 3.526103 1_444
Ba1 Ni5 3.526111 1_454
Ba1 Ni8 3.526111 1_545
Ba1 Ni2 3.533887 1_555
Ba1 Ni0 3.533887 1_444
Ba1 Ni13 3.533887 1_554
Ba1 Ni1 3.533887 1_445
Ba1 Ni16 3.533889 1_555
Ba1 Ni14 3.533889 1_444
Ba1 Ni14 3.533889 1_554
Ba1 Ni16 3.533889 1_445
Ba1 Ni2 3.533893 1_455
Ba1 Ni0 3.533893 1_544
Ba1 Ni1 3.533893 1_455
Ba1 Ni13 3.533893 1_544
Ni0 P5 2.220915 1_555
Ni0 P2 2.220920 1_555
Ni0 Si3 2.372841 1_556
Ni0 Si1 2.399250 1_565
Ni1 P3 2.220915 1_555
Ni1 P1 2.220920 1_555
Ni1 Si1 2.372841 1_554
Ni1 Si3 2.399249 1_655
Ni2 P4 2.220915 1_555
Ni2 P1 2.220920 1_555
Ni2 Si1 2.372841 1_554
Ni2 Si3 2.399250 1_545
Ni3 P0 2.220915 1_555
Ni3 P2 2.220920 1_555
Ni3 Si0 2.372841 1_555
Ni3 Si2 2.399249 1_455
Ni4 P4 2.179186 1_555
Ni4 P1 2.179196 1_455
Ni4 Si0 2.464801 1_555
Ni4 Si3 2.464801 1_555
Ni5 P0 2.179198 1_655
Ni5 P5 2.179198 1_545
Ni5 Si1 2.464790 1_555
Ni5 Si2 2.464790 1_555
Ni6 P0 2.179186 1_555
Ni6 P2 2.179197 1_545
Ni6 Si1 2.464801 1_555
Ni6 Si2 2.464801 1_555
Ni7 P3 2.179186 1_555
Ni7 P1 2.179197 1_565
Ni7 Si0 2.464801 1_555
Ni7 Si3 2.464801 1_555
Ni8 P3 2.179198 1_455
Ni8 P4 2.179198 1_565
Ni8 Si0 2.464790 1_555
Ni8 Si3 2.464790 1_555
Ni9 P5 2.179186 1_555
Ni9 P2 2.179196 1_655
Ni9 Si1 2.464801 1_555
Ni9 Si2 2.464801 1_555
Ni10 P5 2.220915 1_555
Ni10 P2 2.220920 1_555
Ni10 Si0 2.372841 1_555
Ni10 Si2 2.399250 1_565
Ni11 P3 2.220919 1_555
Ni11 P4 2.220919 1_555
Ni11 Si2 2.372848 1_555
Ni11 Si0 2.399250 1_555
Ni12 P3 2.220915 1_555
Ni12 P1 2.220920 1_555
Ni12 Si2 2.372841 1_555
Ni12 Si0 2.399249 1_655
Ni13 P0 2.220915 1_555
Ni13 P2 2.220920 1_555
Ni13 Si3 2.372841 1_556
Ni13 Si1 2.399249 1_455
Ni14 P0 2.220919 1_555
Ni14 P5 2.220919 1_555
Ni14 Si3 2.372848 1_556
Ni14 Si1 2.399250 1_555
Ni15 P4 2.220915 1_555
Ni15 P1 2.220920 1_555
Ni15 Si2 2.372841 1_555
Ni15 Si0 2.399250 1_545
Ni16 P3 2.220919 1_555
Ni16 P4 2.220919 1_555
Ni16 Si1 2.372848 1_554
Ni16 Si3 2.399250 1_555
Ni17 P0 2.220919 1_555
Ni17 P5 2.220919 1_555
Ni17 Si0 2.372848 1_555
Ni17 Si2 2.399250 1_555
