# generated using pymatgen
data_Cs12MgHgSe8
_symmetry_space_group_name_H-M   'P 1'
_cell_length_a   11.16718115
_cell_length_b   11.16717971
_cell_length_c   8.72181511
_cell_angle_alpha   90.00000000
_cell_angle_beta   90.00000000
_cell_angle_gamma   120.00000135
_symmetry_Int_Tables_number   1
_chemical_formula_structural   Cs12MgHgSe8
_chemical_formula_sum   'Cs12 Mg1 Hg1 Se8'
_cell_volume   941.94288123
_cell_formula_units_Z   1
loop_
 _symmetry_equiv_pos_site_id
 _symmetry_equiv_pos_as_xyz
  1  'x, y, z'
loop_
 _atom_site_type_symbol
 _atom_site_label
 _atom_site_symmetry_multiplicity
 _atom_site_fract_x
 _atom_site_fract_y
 _atom_site_fract_z
 _atom_site_occupancy
  Cs  Cs0  1  0.14711806  0.85288194  0.54758601  1
  Cs  Cs1  1  0.29491024  0.14745512  0.04316931  1
  Cs  Cs2  1  0.85254488  0.70508976  0.04316931  1
  Cs  Cs3  1  0.14711806  0.29423611  0.54758601  1
  Cs  Cs4  1  0.70576389  0.85288194  0.54758601  1
  Cs  Cs5  1  0.85254488  0.14745512  0.04316931  1
  Cs  Cs6  1  0.52804386  0.47195614  0.36189026  1
  Cs  Cs7  1  0.05967159  0.52983580  0.86780670  1
  Cs  Cs8  1  0.47016420  0.94032841  0.86780670  1
  Cs  Cs9  1  0.52804386  0.05608873  0.36189026  1
  Cs  Cs10  1  0.94391127  0.47195614  0.36189026  1
  Cs  Cs11  1  0.47016420  0.52983580  0.86780670  1
  Mg  Mg0  1  0.66666700  0.33333300  0.75004993  1
  Hg  Hg0  1  0.33333300  0.66666700  0.24965187  1
  Se  Se0  1  0.33333300  0.66666700  0.56810762  1
  Se  Se1  1  0.66666700  0.33333300  0.05447634  1
  Se  Se2  1  0.19664426  0.80335574  0.15565066  1
  Se  Se3  1  0.40487152  0.20243726  0.65627182  1
  Se  Se4  1  0.79756274  0.59512848  0.65627182  1
  Se  Se5  1  0.19664426  0.39328552  0.15565066  1
  Se  Se6  1  0.60671448  0.80335574  0.15565066  1
  Se  Se7  1  0.79756274  0.20243726  0.65627182  1
loop_
_geom_bond_atom_site_label_1
_geom_bond_atom_site_label_2
_geom_bond_distance
_geom_bond_site_symmetry_2
Cs0 Se2 3.550074 1_555
Cs0 Se0 3.606237 1_555
Cs0 Se3 3.631177 1_565
Cs0 Se4 3.631177 1_455
Cs1 Se3 3.538052 1_554
Cs1 Se5 3.565869 1_555
Cs1 Se2 3.565900 1_545
Cs1 Se1 3.596635 1_555
Cs2 Se4 3.538052 1_554
Cs2 Se6 3.565869 1_555
Cs2 Se2 3.565900 1_655
Cs2 Se1 3.596635 1_555
Cs3 Se5 3.550066 1_555
Cs3 Se0 3.606246 1_555
Cs3 Se3 3.631154 1_555
Cs3 Se7 3.631186 1_455
Cs4 Se6 3.550066 1_555
Cs4 Se0 3.606247 1_555
Cs4 Se4 3.631154 1_555
Cs4 Se7 3.631185 1_565
Cs5 Se7 3.538061 1_554
Cs5 Se6 3.565892 1_545
Cs5 Se5 3.565892 1_655
Cs5 Se1 3.596625 1_555
Cs6 Se3 3.661015 1_555
Cs6 Se4 3.661015 1_555
Cs6 Se1 3.791841 1_555
Cs6 Se6 3.801590 1_555
Cs6 Se5 3.801591 1_555
Cs7 Se2 3.646911 1_556
Cs7 Se5 3.646932 1_556
Cs7 Se0 3.719819 1_555
Cs7 Se7 3.825835 1_455
Cs7 Se4 3.825855 1_455
Cs8 Se2 3.646911 1_556
Cs8 Se6 3.646932 1_556
Cs8 Se0 3.719818 1_555
Cs8 Se7 3.825836 1_565
Cs8 Se3 3.825855 1_565
Cs9 Se7 3.661016 1_555
Cs9 Se3 3.661029 1_555
Cs9 Se1 3.791827 1_555
Cs9 Se2 3.801602 1_545
Cs9 Se6 3.801629 1_545
Cs10 Se7 3.661016 1_555
Cs10 Se4 3.661029 1_555
Cs10 Se1 3.791828 1_555
Cs10 Se2 3.801602 1_655
Cs10 Se5 3.801629 1_655
Cs11 Se6 3.646911 1_556
Cs11 Se5 3.646911 1_556
Cs11 Se0 3.719825 1_555
Cs11 Se3 3.825826 1_555
Cs11 Se4 3.825826 1_555
Mg0 Se1 2.655151 1_556
Mg0 Se7 2.660640 1_555
Mg0 Se4 2.660677 1_555
Mg0 Se3 2.660677 1_555
Hg0 Se2 2.768053 1_555
Hg0 Se5 2.768090 1_555
Hg0 Se6 2.768090 1_555
Hg0 Se0 2.777512 1_555
