# generated using pymatgen
data_Ca7Sn2PbN2
_symmetry_space_group_name_H-M   'P 1'
_cell_length_a   12.35337304
_cell_length_b   12.35337252
_cell_length_c   4.94612634
_cell_angle_alpha   90.00000000
_cell_angle_beta   90.00000000
_cell_angle_gamma   157.12188180
_symmetry_Int_Tables_number   1
_chemical_formula_structural   Ca7Sn2PbN2
_chemical_formula_sum   'Ca7 Sn2 Pb1 N2'
_cell_volume   293.44816880
_cell_formula_units_Z   1
loop_
 _symmetry_equiv_pos_site_id
 _symmetry_equiv_pos_as_xyz
  1  'x, y, z'
loop_
 _atom_site_type_symbol
 _atom_site_label
 _atom_site_symmetry_multiplicity
 _atom_site_fract_x
 _atom_site_fract_y
 _atom_site_fract_z
 _atom_site_occupancy
  Ca  Ca0  1  0.00037862  0.99962138  0.00000000  1
  Ca  Ca1  1  0.80234885  0.19765215  0.00000000  1
  Ca  Ca2  1  0.59722000  0.40278100  0.00000000  1
  Ca  Ca3  1  0.40364027  0.59636073  0.00000000  1
  Ca  Ca4  1  0.19682263  0.80317837  0.00000000  1
  Ca  Ca5  1  0.90635758  0.09364342  0.49999900  1
  Ca  Ca6  1  0.09464190  0.90535910  0.49999900  1
  Sn  Sn0  1  0.70798782  0.29201318  0.49999900  1
  Sn  Sn1  1  0.49978562  0.50021438  0.49999900  1
  Pb  Pb0  1  0.29145604  0.70854496  0.49999900  1
  N  N0  1  0.89656864  0.10343236  0.00000000  1
  N  N1  1  0.10279802  0.89720298  0.00000000  1
loop_
_geom_bond_atom_site_label_1
_geom_bond_atom_site_label_2
_geom_bond_distance
_geom_bond_site_symmetry_2
Ca0 N1 2.480174 1_555
Ca0 N0 2.513872 1_465
Ca0 Sn1 3.481188 1_565
Ca0 Sn1 3.481188 1_455
Ca0 Sn1 3.481195 1_564
Ca0 Sn1 3.481195 1_454
Ca1 N0 2.281624 1_555
Ca1 Sn0 3.367112 1_555
Ca1 Sn0 3.367119 1_554
Ca1 Pb0 3.491138 1_655
Ca1 Pb0 3.491138 1_545
Ca1 Pb0 3.491145 1_654
Ca1 Pb0 3.491145 1_544
Ca2 N1 2.453710 1_545
Ca2 N1 2.453710 1_655
Ca2 Sn1 3.418048 1_555
Ca2 Sn1 3.418055 1_554
Ca2 Sn0 3.648428 1_555
Ca2 Sn0 3.648434 1_554
Ca3 N0 2.455967 1_565
Ca3 N0 2.455967 1_455
Ca3 Sn1 3.396592 1_555
Ca3 Sn1 3.396599 1_554
Ca3 Pb0 3.673718 1_555
Ca3 Pb0 3.673725 1_554
Ca4 N1 2.276897 1_555
Ca4 Pb0 3.371592 1_555
Ca4 Pb0 3.371599 1_554
Ca4 Sn0 3.491643 1_455
Ca4 Sn0 3.491643 1_565
Ca4 Sn0 3.491650 1_454
Ca4 Sn0 3.491650 1_564
Ca5 N0 2.484393 1_555
Ca5 N0 2.484403 1_556
Ca5 Sn1 3.334843 1_655
Ca5 Sn1 3.334846 1_545
Ca5 Pb0 3.707356 1_655
Ca5 Pb0 3.707357 1_545
Ca6 N1 2.480933 1_555
Ca6 N1 2.480942 1_556
Ca6 Sn1 3.358387 1_565
Ca6 Sn1 3.358391 1_455
Ca6 Sn0 3.679168 1_455
Ca6 Sn0 3.679168 1_565
Pb0 Sn0 3.176154 1_565
Pb0 Sn0 3.176155 1_455
