# generated using pymatgen
data_Ba(TlHg)2
_symmetry_space_group_name_H-M   'P 1'
_cell_length_a   11.09264800
_cell_length_b   11.09264800
_cell_length_c   5.20950800
_cell_angle_alpha   90.00000000
_cell_angle_beta   90.00000000
_cell_angle_gamma   90.00000000
_symmetry_Int_Tables_number   1
_chemical_formula_structural   Ba(TlHg)2
_chemical_formula_sum   'Ba4 Tl8 Hg8'
_cell_volume   641.01349554
_cell_formula_units_Z   4
loop_
 _symmetry_equiv_pos_site_id
 _symmetry_equiv_pos_as_xyz
  1  'x, y, z'
loop_
 _atom_site_type_symbol
 _atom_site_label
 _atom_site_symmetry_multiplicity
 _atom_site_fract_x
 _atom_site_fract_y
 _atom_site_fract_z
 _atom_site_occupancy
  Ba  Ba0  1  0.85205800  0.14794200  0.00000000  1
  Ba  Ba1  1  0.64794200  0.64794200  0.50000000  1
  Ba  Ba2  1  0.35205800  0.35205800  0.50000000  1
  Ba  Ba3  1  0.14794200  0.85205800  0.00000000  1
  Tl  Tl0  1  0.52933200  0.85920500  0.00000000  1
  Tl  Tl1  1  0.47066800  0.14079500  0.00000000  1
  Tl  Tl2  1  0.64079500  0.02933200  0.50000000  1
  Tl  Tl3  1  0.35920500  0.97066800  0.50000000  1
  Tl  Tl4  1  0.85920500  0.52933200  0.00000000  1
  Tl  Tl5  1  0.02933200  0.64079500  0.50000000  1
  Tl  Tl6  1  0.97066800  0.35920500  0.50000000  1
  Tl  Tl7  1  0.14079500  0.47066800  0.00000000  1
  Hg  Hg0  1  0.81246800  0.81246800  0.00000000  1
  Hg  Hg1  1  0.31246800  0.68753200  0.50000000  1
  Hg  Hg2  1  0.68753200  0.31246800  0.50000000  1
  Hg  Hg3  1  0.18753200  0.18753200  0.00000000  1
  Hg  Hg4  1  0.40460900  0.59539100  0.00000000  1
  Hg  Hg5  1  0.09539100  0.09539100  0.50000000  1
  Hg  Hg6  1  0.90460900  0.90460900  0.50000000  1
  Hg  Hg7  1  0.59539100  0.40460900  0.00000000  1
loop_
_geom_bond_atom_site_label_1
_geom_bond_atom_site_label_2
_geom_bond_distance
_geom_bond_site_symmetry_2
Ba0 Hg2 3.666907 1_555
Ba0 Hg2 3.666907 1_554
Ba0 Tl6 3.742678 1_555
Ba0 Tl6 3.742678 1_554
Ba0 Tl2 3.742678 1_555
Ba0 Tl2 3.742678 1_554
Ba0 Hg0 3.747118 1_545
Ba0 Hg3 3.747118 1_655
Ba0 Hg5 3.796086 1_655
Ba0 Hg5 3.796086 1_654
Ba0 Hg6 3.796086 1_544
Ba0 Hg6 3.796086 1_545
Ba0 Hg7 4.026431 1_555
Ba0 Tl4 4.231368 1_555
Ba0 Tl1 4.231368 1_555
Ba1 Hg0 3.666907 1_555
Ba1 Hg0 3.666907 1_556
Ba1 Tl4 3.742678 1_556
Ba1 Tl0 3.742678 1_555
Ba1 Tl0 3.742678 1_556
Ba1 Tl4 3.742678 1_555
Ba1 Hg1 3.747118 1_555
Ba1 Hg2 3.747118 1_555
Ba1 Hg4 3.796086 1_555
Ba1 Hg7 3.796086 1_555
Ba1 Hg4 3.796086 1_556
Ba1 Hg7 3.796086 1_556
Ba1 Hg6 4.026431 1_555
Ba1 Tl2 4.231368 1_565
Ba1 Tl5 4.231368 1_655
Ba2 Hg3 3.666907 1_556
Ba2 Hg3 3.666907 1_555
Ba2 Tl1 3.742678 1_555
Ba2 Tl1 3.742678 1_556
Ba2 Tl7 3.742678 1_556
Ba2 Tl7 3.742678 1_555
Ba2 Hg2 3.747118 1_555
Ba2 Hg1 3.747118 1_555
Ba2 Hg4 3.796086 1_555
Ba2 Hg7 3.796086 1_556
Ba2 Hg7 3.796086 1_555
Ba2 Hg4 3.796086 1_556
Ba2 Hg5 4.026431 1_555
Ba2 Tl3 4.231368 1_545
Ba2 Tl6 4.231368 1_455
Ba3 Hg1 3.666907 1_555
Ba3 Hg1 3.666907 1_554
Ba3 Tl3 3.742678 1_555
Ba3 Tl3 3.742678 1_554
Ba3 Tl5 3.742678 1_554
Ba3 Tl5 3.742678 1_555
Ba3 Hg3 3.747118 1_565
Ba3 Hg0 3.747118 1_455
Ba3 Hg5 3.796086 1_565
Ba3 Hg5 3.796086 1_564
Ba3 Hg6 3.796086 1_454
Ba3 Hg6 3.796086 1_455
Ba3 Hg4 4.026431 1_555
Ba3 Tl0 4.231368 1_555
Ba3 Tl7 4.231368 1_555
Tl0 Tl1 3.190643 1_565
Tl0 Tl2 3.445990 1_565
Tl0 Tl2 3.445990 1_564
Tl0 Tl3 3.445990 1_555
Tl0 Tl3 3.445990 1_554
Tl1 Tl3 3.445990 1_545
Tl1 Tl3 3.445990 1_544
Tl1 Tl2 3.445990 1_555
Tl1 Tl2 3.445990 1_554
Tl2 Tl3 3.190643 1_545
Tl4 Tl7 3.190643 1_655
Tl4 Tl5 3.445990 1_655
Tl4 Tl5 3.445990 1_654
Tl4 Tl6 3.445990 1_555
Tl4 Tl6 3.445990 1_554
Tl5 Tl6 3.190643 1_455
Tl5 Tl7 3.445990 1_556
Tl5 Tl7 3.445990 1_555
Tl6 Tl7 3.445990 1_656
Tl6 Tl7 3.445990 1_655
Hg0 Hg6 2.978938 1_555
Hg0 Hg6 2.978938 1_554
Hg0 Tl0 3.183229 1_555
Hg0 Tl4 3.183229 1_555
Hg1 Hg4 2.978938 1_555
Hg1 Hg4 2.978938 1_556
Hg1 Tl5 3.183229 1_555
Hg1 Tl3 3.183229 1_555
Hg2 Hg7 2.978938 1_556
Hg2 Hg7 2.978938 1_555
Hg2 Tl2 3.183229 1_555
Hg2 Tl6 3.183229 1_555
Hg3 Hg5 2.978938 1_554
Hg3 Hg5 2.978938 1_555
Hg3 Tl7 3.183229 1_555
Hg3 Tl1 3.183229 1_555
Hg4 Hg7 2.992868 1_555
Hg4 Tl0 3.236957 1_555
Hg4 Tl7 3.236957 1_555
Hg5 Hg6 2.992868 1_445
Hg5 Tl6 3.236957 1_455
Hg5 Tl3 3.236957 1_545
Hg6 Tl2 3.236957 1_565
Hg6 Tl5 3.236957 1_655
Hg7 Tl4 3.236957 1_555
Hg7 Tl1 3.236957 1_555
