# generated using pymatgen
data_Cs5Mn2CoS7
_symmetry_space_group_name_H-M   'P 1'
_cell_length_a   10.69188279
_cell_length_b   10.69188294
_cell_length_c   9.08215638
_cell_angle_alpha   77.96122853
_cell_angle_beta   77.96123002
_cell_angle_gamma   71.06356101
_symmetry_Int_Tables_number   1
_chemical_formula_structural   Cs5Mn2CoS7
_chemical_formula_sum   'Cs10 Mn4 Co2 S14'
_cell_volume   949.24613057
_cell_formula_units_Z   2
loop_
 _symmetry_equiv_pos_site_id
 _symmetry_equiv_pos_as_xyz
  1  'x, y, z'
loop_
 _atom_site_type_symbol
 _atom_site_label
 _atom_site_symmetry_multiplicity
 _atom_site_fract_x
 _atom_site_fract_y
 _atom_site_fract_z
 _atom_site_occupancy
  Cs  Cs0  1  0.03925648  0.42059184  0.73238676  1
  Cs  Cs1  1  0.42059184  0.03925648  0.73238676  1
  Cs  Cs2  1  0.96074352  0.57940816  0.26761324  1
  Cs  Cs3  1  0.57940816  0.96074352  0.26761324  1
  Cs  Cs4  1  0.29037135  0.70962865  1.00000000  1
  Cs  Cs5  1  0.70962865  0.29037135  0.00000000  1
  Cs  Cs6  1  0.84592363  0.15407637  0.50000000  1
  Cs  Cs7  1  0.15407637  0.84592363  0.50000000  1
  Cs  Cs8  1  0.42841418  0.42841418  0.69945852  1
  Cs  Cs9  1  0.57158582  0.57158582  0.30054148  1
  Mn  Mn0  1  0.07455451  0.07455451  0.06722794  1
  Mn  Mn1  1  0.92544549  0.92544549  0.93277206  1
  Mn  Mn2  1  0.33084441  0.33084441  0.32589571  1
  Mn  Mn3  1  0.66915559  0.66915559  0.67410429  1
  Co  Co0  1  0.20388915  0.20388915  0.19287554  1
  Co  Co1  1  0.79611085  0.79611085  0.80712446  1
  S  S0  1  0.99803484  0.28348831  0.13144554  1
  S  S1  1  0.28348831  0.99803484  0.13144554  1
  S  S2  1  0.00196516  0.71651169  0.86855446  1
  S  S3  1  0.71651169  0.00196516  0.86855446  1
  S  S4  1  0.20055403  0.20055403  0.43856645  1
  S  S5  1  0.79944597  0.79944597  0.56143355  1
  S  S6  1  0.06000382  0.06000382  0.82198335  1
  S  S7  1  0.93999618  0.93999618  0.17801665  1
  S  S8  1  0.33387521  0.33387521  0.07714165  1
  S  S9  1  0.66612479  0.66612479  0.92285835  1
  S  S10  1  0.25600959  0.53183948  0.39256734  1
  S  S11  1  0.53183948  0.25600959  0.39256734  1
  S  S12  1  0.74399041  0.46816052  0.60743266  1
  S  S13  1  0.46816052  0.74399041  0.60743266  1
loop_
_geom_bond_atom_site_label_1
_geom_bond_atom_site_label_2
_geom_bond_distance
_geom_bond_site_symmetry_2
Cs0 S12 3.424109 1_455
Cs0 S2 3.508088 1_555
Cs0 S0 3.607699 1_456
Cs0 S10 3.685772 1_555
Cs0 S4 3.700781 1_555
Cs0 S6 3.713050 1_555
Cs1 S13 3.424109 1_545
Cs1 S3 3.508088 1_555
Cs1 S1 3.607699 1_546
Cs1 S11 3.685772 1_555
Cs1 S4 3.700781 1_555
Cs1 S6 3.713050 1_555
Cs2 S10 3.424109 1_655
Cs2 S0 3.508088 1_555
Cs2 S2 3.607699 1_654
Cs2 S12 3.685772 1_555
Cs2 S5 3.700781 1_555
Cs2 S7 3.713050 1_555
Cs3 S11 3.424109 1_565
Cs3 S1 3.508088 1_555
Cs3 S3 3.607699 1_564
Cs3 S13 3.685772 1_555
Cs3 S5 3.700781 1_555
Cs3 S7 3.713050 1_555
Cs4 S2 3.505838 1_555
Cs4 S1 3.505838 1_556
Cs4 S10 3.679656 1_556
Cs4 S13 3.679656 1_555
Cs4 S9 3.820542 1_555
Cs4 S8 3.820542 1_556
Cs5 S0 3.505838 1_555
Cs5 S3 3.505838 1_554
Cs5 S12 3.679656 1_554
Cs5 S11 3.679656 1_555
Cs5 S8 3.820542 1_555
Cs5 S9 3.820542 1_554
Cs6 S11 3.459020 1_555
Cs6 S12 3.459020 1_555
Cs6 S3 3.608518 1_555
Cs6 S0 3.608518 1_555
Cs6 S6 3.856598 1_655
Cs6 S7 3.856598 1_545
Cs6 S4 3.893552 1_655
Cs6 S5 3.893553 1_545
Cs7 S13 3.459020 1_555
Cs7 S10 3.459020 1_555
Cs7 S1 3.608518 1_555
Cs7 S2 3.608518 1_555
Cs7 S7 3.856598 1_455
Cs7 S6 3.856598 1_565
Cs7 S5 3.893552 1_455
Cs7 S4 3.893553 1_565
Cs8 S8 3.402939 1_556
Cs8 S12 3.445260 1_555
Cs8 S13 3.445260 1_555
Cs8 S10 3.453096 1_555
Cs8 S11 3.453096 1_555
Cs9 S9 3.402939 1_554
Cs9 S10 3.445260 1_555
Cs9 S11 3.445260 1_555
Cs9 S12 3.453096 1_555
Cs9 S13 3.453096 1_555
Mn0 S1 2.271133 1_545
Mn0 S0 2.271133 1_455
Mn0 S7 2.299501 1_445
Mn0 S6 2.305277 1_554
Mn1 S3 2.271133 1_565
Mn1 S2 2.271133 1_655
Mn1 S6 2.299501 1_665
Mn1 S7 2.305277 1_556
Mn2 S11 2.202234 1_555
Mn2 S10 2.202234 1_555
Mn2 S4 2.235740 1_555
Mn2 S8 2.246284 1_555
Mn3 S13 2.202234 1_555
Mn3 S12 2.202234 1_555
Mn3 S5 2.235740 1_555
Mn3 S9 2.246284 1_555
Co0 S4 2.217238 1_555
Co0 S0 2.231202 1_455
Co0 S1 2.231202 1_545
Co0 S8 2.236689 1_555
Co1 S5 2.217238 1_555
Co1 S2 2.231202 1_655
Co1 S3 2.231202 1_565
Co1 S9 2.236689 1_555
