# generated using pymatgen
data_MnCrAgS4
_symmetry_space_group_name_H-M   'P 1'
_cell_length_a   7.15684746
_cell_length_b   7.15684808
_cell_length_c   7.15684710
_cell_angle_alpha   119.64194566
_cell_angle_beta   119.78780295
_cell_angle_gamma   90.49460830
_symmetry_Int_Tables_number   1
_chemical_formula_structural   MnCrAgS4
_chemical_formula_sum   'Mn2 Cr2 Ag2 S8'
_cell_volume   260.31522268
_cell_formula_units_Z   2
loop_
 _symmetry_equiv_pos_site_id
 _symmetry_equiv_pos_as_xyz
  1  'x, y, z'
loop_
 _atom_site_type_symbol
 _atom_site_label
 _atom_site_symmetry_multiplicity
 _atom_site_fract_x
 _atom_site_fract_y
 _atom_site_fract_z
 _atom_site_occupancy
  Mn  Mn0  1  0.24995118  0.25000000  0.49995118  1
  Mn  Mn1  1  0.25004882  0.75000000  0.00004882  1
  Cr  Cr0  1  0.75000000  0.74983749  0.99983749  1
  Cr  Cr1  1  0.25000000  0.75016251  0.50016251  1
  Ag  Ag0  1  0.87745343  0.12745343  0.75000000  1
  Ag  Ag1  1  0.62254657  0.37254657  0.25000000  1
  S  S0  1  0.48150737  0.51162860  0.96978100  1
  S  S1  1  0.48458210  0.51371638  0.52879486  1
  S  S2  1  0.04184860  0.51172637  0.53021900  1
  S  S3  1  0.48491952  0.95578624  0.97120514  1
  S  S4  1  0.01849263  0.98827363  0.03012223  1
  S  S5  1  0.01541790  0.54421376  0.02913428  1
  S  S6  1  0.45815140  0.98837140  0.46987777  1
  S  S7  1  0.01508048  0.98628362  0.47086572  1
loop_
_geom_bond_atom_site_label_1
_geom_bond_atom_site_label_2
_geom_bond_distance
_geom_bond_site_symmetry_2
Mn0 S7 2.374872 1_545
Mn0 S1 2.374882 1_555
Mn0 S6 2.395995 1_545
Mn0 S0 2.396000 1_555
Mn0 S4 2.396061 1_545
Mn0 S2 2.396061 1_555
Mn1 S3 2.374866 1_554
Mn1 S5 2.374877 1_555
Mn1 S2 2.396000 1_554
Mn1 S4 2.396000 1_555
Mn1 S6 2.396061 1_555
Mn1 S0 2.396066 1_554
Cr0 S7 2.402998 1_656
Cr0 S3 2.403003 1_555
Cr0 S5 2.403264 1_656
Cr0 S1 2.403269 1_555
Cr0 S4 2.411447 1_656
Cr0 S0 2.411451 1_555
Cr1 S1 2.402997 1_555
Cr1 S5 2.402997 1_555
Cr1 S7 2.403260 1_555
Cr1 S3 2.403270 1_555
Cr1 S2 2.411447 1_555
Cr1 S6 2.411452 1_555
Ag0 S5 2.440817 1_656
Ag0 S7 2.440823 1_645
Ag0 S4 2.451996 1_646
Ag0 S6 2.451996 1_545
Ag1 S1 2.440811 1_555
Ag1 S3 2.440817 1_544
Ag1 S0 2.451990 1_554
Ag1 S2 2.451996 1_655
