# generated using pymatgen
data_Na2LiInAs2
_symmetry_space_group_name_H-M   'P 1'
_cell_length_a   9.49974508
_cell_length_b   9.49974637
_cell_length_c   6.05399879
_cell_angle_alpha   90.00000000
_cell_angle_beta   90.00000000
_cell_angle_gamma   98.10689124
_symmetry_Int_Tables_number   1
_chemical_formula_structural   Na2LiInAs2
_chemical_formula_sum   'Na8 Li4 In4 As8'
_cell_volume   540.88436409
_cell_formula_units_Z   4
loop_
 _symmetry_equiv_pos_site_id
 _symmetry_equiv_pos_as_xyz
  1  'x, y, z'
loop_
 _atom_site_type_symbol
 _atom_site_label
 _atom_site_symmetry_multiplicity
 _atom_site_fract_x
 _atom_site_fract_y
 _atom_site_fract_z
 _atom_site_occupancy
  Na  Na0  1  0.42944547  0.07055453  0.25000000  1
  Na  Na1  1  0.07055453  0.42944547  0.75000000  1
  Na  Na2  1  0.57055453  0.92944547  0.75000000  1
  Na  Na3  1  0.32118759  0.67881241  0.27319788  1
  Na  Na4  1  0.82118759  0.17881241  0.22680212  1
  Na  Na5  1  0.67881241  0.32118759  0.72680212  1
  Na  Na6  1  0.17881241  0.82118759  0.77319788  1
  Na  Na7  1  0.92944547  0.57055453  0.25000000  1
  Li  Li0  1  0.38107461  0.38107461  0.50000000  1
  Li  Li1  1  0.11892539  0.11892539  0.00000000  1
  Li  Li2  1  0.61892539  0.61892539  0.50000000  1
  Li  Li3  1  0.88107461  0.88107461  0.00000000  1
  In  In0  1  0.86814684  0.86814684  0.50000000  1
  In  In1  1  0.13185316  0.13185316  0.50000000  1
  In  In2  1  0.63185316  0.63185316  0.00000000  1
  In  In3  1  0.36814684  0.36814684  0.00000000  1
  As  As0  1  0.11072296  0.88927704  0.26115623  1
  As  As1  1  0.61072296  0.38927704  0.23884377  1
  As  As2  1  0.88927704  0.11072296  0.73884377  1
  As  As3  1  0.38927704  0.61072296  0.76115623  1
  As  As4  1  0.13561158  0.36438842  0.25000000  1
  As  As5  1  0.36438842  0.13561158  0.75000000  1
  As  As6  1  0.86438842  0.63561158  0.75000000  1
  As  As7  1  0.63561158  0.86438842  0.25000000  1
loop_
_geom_bond_atom_site_label_1
_geom_bond_atom_site_label_2
_geom_bond_distance
_geom_bond_site_symmetry_2
In0 Li3 3.031276 1_556
In0 Li3 3.031276 1_555
In0 Li2 3.103158 1_555
In0 Na2 3.329611 1_555
In0 Na7 3.329611 1_555
In0 Na6 3.466364 1_655
In0 Na4 3.466365 1_565
In1 Li1 3.031276 1_555
In1 Li1 3.031276 1_556
In1 Li0 3.103158 1_555
In1 Na0 3.329611 1_555
In1 Na1 3.329611 1_555
In1 Na4 3.466364 1_455
In1 Na6 3.466365 1_545
In2 Li2 3.031276 1_554
In2 Li2 3.031276 1_555
In2 Li3 3.103158 1_555
In2 Na7 3.329611 1_555
In2 Na2 3.329611 1_554
In2 Na3 3.466364 1_555
In2 Na5 3.466365 1_554
In3 Li0 3.031276 1_555
In3 Li0 3.031276 1_554
In3 Li1 3.103158 1_555
In3 Na1 3.329611 1_554
In3 Na0 3.329611 1_555
In3 Na5 3.466364 1_554
In3 Na3 3.466365 1_555
As0 Li3 2.686484 1_455
As0 Li1 2.686484 1_565
As0 In0 2.703875 1_455
As0 In1 2.703876 1_565
As0 Na3 3.021198 1_555
As0 Na6 3.111509 1_554
As0 Na6 3.250256 1_555
As0 Na0 3.266042 1_565
As0 Na7 3.266042 1_455
As1 Li0 2.686484 1_555
As1 Li2 2.686484 1_555
As1 In3 2.703875 1_555
As1 In2 2.703876 1_555
As1 Na4 3.021198 1_555
As1 Na5 3.111509 1_555
As1 Na5 3.250256 1_554
As1 Na7 3.266042 1_555
As1 Na0 3.266042 1_555
As2 Li1 2.686484 1_656
As2 Li3 2.686484 1_546
As2 In1 2.703875 1_655
As2 In0 2.703876 1_545
As2 Na5 3.021198 1_555
As2 Na4 3.111509 1_556
As2 Na4 3.250256 1_555
As2 Na2 3.266042 1_545
As2 Na1 3.266042 1_655
As3 Li2 2.686484 1_555
As3 Li0 2.686484 1_555
As3 In2 2.703875 1_556
As3 In3 2.703876 1_556
As3 Na6 3.021198 1_555
As3 Na3 3.111509 1_555
As3 Na3 3.250256 1_556
As3 Na1 3.266042 1_555
As3 Na2 3.266042 1_555
As4 In3 2.673856 1_555
As4 In1 2.673856 1_555
As4 Li0 2.765686 1_555
As4 Li1 2.765686 1_555
As4 Na7 2.958632 1_455
As4 Na1 3.167706 1_555
As4 Na1 3.167706 1_554
As4 Na4 3.250281 1_455
As4 Na3 3.250281 1_555
As5 In1 2.673856 1_555
As5 In3 2.673856 1_556
As5 Li1 2.765686 1_556
As5 Li0 2.765686 1_555
As5 Na2 2.958632 1_545
As5 Na0 3.167706 1_555
As5 Na0 3.167706 1_556
As5 Na5 3.250281 1_555
As5 Na6 3.250281 1_545
As6 In2 2.673856 1_556
As6 In0 2.673856 1_555
As6 Li2 2.765686 1_555
As6 Li3 2.765686 1_556
As6 Na1 2.958632 1_655
As6 Na7 3.167706 1_555
As6 Na7 3.167706 1_556
As6 Na6 3.250281 1_655
As6 Na5 3.250281 1_555
As7 In0 2.673856 1_555
As7 In2 2.673856 1_555
As7 Li3 2.765686 1_555
As7 Li2 2.765686 1_555
As7 Na0 2.958632 1_565
As7 Na2 3.167706 1_554
As7 Na2 3.167706 1_555
As7 Na3 3.250281 1_555
As7 Na4 3.250281 1_565
