# generated using pymatgen
data_Na4AlGa3I16
_symmetry_space_group_name_H-M   'P 1'
_cell_length_a   8.26241527
_cell_length_b   8.24530831
_cell_length_c   14.88541600
_cell_angle_alpha   90.00235042
_cell_angle_beta   90.00000000
_cell_angle_gamma   90.00000000
_symmetry_Int_Tables_number   1
_chemical_formula_structural   Na4AlGa3I16
_chemical_formula_sum   'Na4 Al1 Ga3 I16'
_cell_volume   1014.08624914
_cell_formula_units_Z   1
loop_
 _symmetry_equiv_pos_site_id
 _symmetry_equiv_pos_as_xyz
  1  'x, y, z'
loop_
 _atom_site_type_symbol
 _atom_site_label
 _atom_site_symmetry_multiplicity
 _atom_site_fract_x
 _atom_site_fract_y
 _atom_site_fract_z
 _atom_site_occupancy
  Na  Na0  1  0.25000000  0.45040571  0.15261449  1
  Na  Na1  1  0.75000000  0.94995173  0.34733499  1
  Na  Na2  1  0.75000000  0.54982952  0.84704481  1
  Na  Na3  1  0.25000000  0.05001242  0.65290292  1
  Al  Al0  1  0.25000000  0.19532629  0.39853489  1
  Ga  Ga0  1  0.25000000  0.30451925  0.89845780  1
  Ga  Ga1  1  0.75000000  0.80471126  0.60152945  1
  Ga  Ga2  1  0.75000000  0.69533735  0.10124579  1
  I  I0  1  0.25000000  0.12407480  0.03734235  1
  I  I1  1  0.75000000  0.62395606  0.46282185  1
  I  I2  1  0.75000000  0.87671305  0.96298432  1
  I  I3  1  0.25000000  0.37540835  0.53604835  1
  I  I4  1  0.25000000  0.89882587  0.44726737  1
  I  I5  1  0.75000000  0.39757351  0.05182515  1
  I  I6  1  0.75000000  0.10246361  0.55212092  1
  I  I7  1  0.25000000  0.60246695  0.94756190  1
  I  I8  1  0.99701328  0.75700842  0.20202405  1
  I  I9  1  0.00390079  0.25670423  0.29915628  1
  I  I10  1  0.49716388  0.24258375  0.79798947  1
  I  I11  1  0.50293160  0.74291424  0.70201103  1
  I  I12  1  0.00283612  0.24258375  0.79798947  1
  I  I13  1  0.99706840  0.74291424  0.70201103  1
  I  I14  1  0.50298672  0.75700842  0.20202405  1
  I  I15  1  0.49609921  0.25670423  0.29915628  1
loop_
_geom_bond_atom_site_label_1
_geom_bond_atom_site_label_2
_geom_bond_distance
_geom_bond_site_symmetry_2
Al0 I3 2.528727 1_555
Al0 I4 2.550117 1_545
Al0 I15 2.564974 1_555
Al0 I9 2.564974 1_555
Ga0 I0 2.547119 1_556
Ga0 I7 2.563074 1_555
Ga0 I10 2.582198 1_555
Ga0 I12 2.582198 1_555
Ga1 I1 2.546381 1_555
Ga1 I6 2.562885 1_565
Ga1 I13 2.581487 1_555
Ga1 I11 2.581487 1_555
Ga2 I2 2.544103 1_554
Ga2 I5 2.562969 1_555
Ga2 I8 2.583460 1_555
Ga2 I14 2.583460 1_555
I0 Na0 3.191192 1_555
I1 Na1 3.190701 1_555
I2 Na2 3.200380 1_555
I3 Na3 3.197566 1_555
I4 Na3 3.305025 1_565
I5 Na2 3.296681 1_554
I6 Na1 3.297467 1_545
I7 Na0 3.299818 1_556
I8 Na0 3.361698 1_655
I8 Na1 3.372628 1_555
I9 Na1 3.363417 1_445
I9 Na0 3.382889 1_555
I10 Na2 3.363766 1_555
I10 Na3 3.369794 1_555
I11 Na3 3.363555 1_565
I11 Na2 3.370893 1_555
I12 Na2 3.363766 1_455
I12 Na3 3.369794 1_555
I13 Na3 3.363555 1_665
I13 Na2 3.370893 1_555
I14 Na0 3.361698 1_555
I14 Na1 3.372628 1_555
I15 Na1 3.363417 1_545
I15 Na0 3.382889 1_555
