# generated using pymatgen
data_TaTi3(GeRh5)2
_symmetry_space_group_name_H-M   'P 1'
_cell_length_a   3.95042980
_cell_length_b   5.42030787
_cell_length_c   10.59645637
_cell_angle_alpha   90.24786510
_cell_angle_beta   90.00000000
_cell_angle_gamma   90.00000000
_symmetry_Int_Tables_number   1
_chemical_formula_structural   TaTi3(GeRh5)2
_chemical_formula_sum   'Ta1 Ti3 Ge2 Rh10'
_cell_volume   226.89498371
_cell_formula_units_Z   1
loop_
 _symmetry_equiv_pos_site_id
 _symmetry_equiv_pos_as_xyz
  1  'x, y, z'
loop_
 _atom_site_type_symbol
 _atom_site_label
 _atom_site_symmetry_multiplicity
 _atom_site_fract_x
 _atom_site_fract_y
 _atom_site_fract_z
 _atom_site_occupancy
  Ta  Ta0  1  0.50000000  0.32075850  0.14114965  1
  Ti  Ti0  1  0.50000000  0.68061797  0.85525952  1
  Ti  Ti1  1  0.50000000  0.82221043  0.36259702  1
  Ti  Ti2  1  0.50000000  0.17909787  0.64163074  1
  Ge  Ge0  1  0.00000000  0.99442601  0.99745456  1
  Ge  Ge1  1  0.00000000  0.49978913  0.50076926  1
  Rh  Rh0  1  0.00000000  0.99951651  0.50044009  1
  Rh  Rh1  1  0.00000000  0.50285136  0.99866471  1
  Rh  Rh2  1  0.00000000  0.06679118  0.24403227  1
  Rh  Rh3  1  0.00000000  0.93099376  0.75706099  1
  Rh  Rh4  1  0.00000000  0.56833057  0.25711449  1
  Rh  Rh5  1  0.00000000  0.43061803  0.74246104  1
  Rh  Rh6  1  0.50000000  0.30557793  0.39197047  1
  Rh  Rh7  1  0.50000000  0.69519329  0.60904768  1
  Rh  Rh8  1  0.50000000  0.80689929  0.10902879  1
  Rh  Rh9  1  0.50000000  0.19632716  0.89131672  1
loop_
_geom_bond_atom_site_label_1
_geom_bond_atom_site_label_2
_geom_bond_distance
_geom_bond_site_symmetry_2
Ge0 Rh8 2.518504 1_456
Ge0 Rh8 2.518504 1_556
Ge0 Rh9 2.524812 1_565
Ge0 Rh9 2.524812 1_465
Ge0 Rh3 2.568944 1_555
Ge0 Rh2 2.640449 1_566
Ge0 Rh1 2.664572 1_555
Ge0 Rh1 2.755796 1_565
Ge0 Ti0 3.007128 1_555
Ge0 Ti0 3.007128 1_455
Ge0 Ta0 3.053751 1_466
Ge0 Ta0 3.053751 1_566
Ge1 Rh6 2.515602 1_455
Ge1 Rh6 2.515602 1_555
Ge1 Rh7 2.515793 1_555
Ge1 Rh7 2.515793 1_455
Ge1 Rh5 2.589979 1_555
Ge1 Rh4 2.610060 1_555
Ge1 Rh0 2.708694 1_555
Ge1 Rh0 2.711619 1_545
Ge1 Ti1 3.020181 1_555
Ge1 Ti1 3.020181 1_455
Ge1 Ti2 3.028757 1_455
Ge1 Ti2 3.028757 1_555
Rh0 Ti1 2.635611 1_555
Rh0 Ti1 2.635611 1_455
Rh0 Ti2 2.659837 1_565
Rh0 Ti2 2.659837 1_465
Rh1 Ti0 2.674269 1_455
Rh1 Ti0 2.674269 1_555
Rh1 Ta0 2.677338 1_456
Rh1 Ta0 2.677338 1_556
Rh2 Ta0 2.645364 1_455
Rh2 Ta0 2.645364 1_555
Rh2 Ti1 2.692922 1_445
Rh2 Ti1 2.692922 1_545
Rh3 Ti0 2.614997 1_455
Rh3 Ti0 2.614997 1_555
Rh3 Ti2 2.687061 1_565
Rh3 Ti2 2.687061 1_465
Rh4 Ti1 2.651637 1_455
Rh4 Ti1 2.651637 1_555
Rh4 Ta0 2.682897 1_455
Rh4 Ta0 2.682897 1_555
Rh5 Ti2 2.624705 1_555
Rh5 Ti2 2.624705 1_455
Rh5 Ti0 2.674388 1_455
Rh5 Ti0 2.674388 1_555
Rh6 Ti1 2.637087 1_545
Rh6 Ta0 2.659441 1_555
Rh6 Ti2 2.735769 1_555
Rh6 Ti1 2.818890 1_555
Rh7 Ti0 2.610510 1_555
Rh7 Ti2 2.644057 1_565
Rh7 Ti1 2.703609 1_555
Rh7 Ti2 2.820104 1_555
Rh8 Ta0 2.658384 1_555
Rh8 Ti1 2.687847 1_555
Rh8 Ti0 2.771932 1_554
Rh8 Ta0 2.804533 1_565
Rh9 Ti2 2.647030 1_555
Rh9 Ti0 2.654301 1_555
Rh9 Ta0 2.729079 1_556
Rh9 Ti0 2.819656 1_545
