# generated using pymatgen
data_Li4LuP12Ir19
_symmetry_space_group_name_H-M   'P 1'
_cell_length_a   12.50477510
_cell_length_b   12.50477474
_cell_length_c   3.88932564
_cell_angle_alpha   90.00000000
_cell_angle_beta   90.00000000
_cell_angle_gamma   120.08510698
_symmetry_Int_Tables_number   1
_chemical_formula_structural   Li4LuP12Ir19
_chemical_formula_sum   'Li4 Lu1 P12 Ir19'
_cell_volume   526.23970011
_cell_formula_units_Z   1
loop_
 _symmetry_equiv_pos_site_id
 _symmetry_equiv_pos_as_xyz
  1  'x, y, z'
loop_
 _atom_site_type_symbol
 _atom_site_label
 _atom_site_symmetry_multiplicity
 _atom_site_fract_x
 _atom_site_fract_y
 _atom_site_fract_z
 _atom_site_occupancy
  Li  Li0  1  0.33475853  0.66559085  0.00000000  1
  Li  Li1  1  0.66559085  0.33475853  0.00000000  1
  Li  Li2  1  0.82473607  0.99685057  0.50000000  1
  Li  Li3  1  0.99685057  0.82473607  0.50000000  1
  Lu  Lu0  1  0.17424334  0.17424334  0.50000000  1
  P  P0  1  0.17498132  0.99258471  0.00000000  1
  P  P1  1  0.99258471  0.17498132  0.00000000  1
  P  P2  1  0.81977856  0.81977856  0.00000000  1
  P  P3  1  0.17678337  0.48922075  0.50000000  1
  P  P4  1  0.51194872  0.68983013  0.50000000  1
  P  P5  1  0.31325406  0.82402359  0.50000000  1
  P  P6  1  0.68983013  0.51194872  0.50000000  1
  P  P7  1  0.82402359  0.31325406  0.50000000  1
  P  P8  1  0.48922075  0.17678337  0.50000000  1
  P  P9  1  0.64215722  0.00058608  0.00000000  1
  P  P10  1  0.00058608  0.64215722  0.00000000  1
  P  P11  1  0.35862350  0.35862350  0.00000000  1
  Ir  Ir0  1  0.46083148  0.00510813  0.00000000  1
  Ir  Ir1  1  0.00510813  0.46083148  0.00000000  1
  Ir  Ir2  1  0.54068520  0.54068520  0.00000000  1
  Ir  Ir3  1  0.35997259  0.49224793  0.50000000  1
  Ir  Ir4  1  0.51071319  0.87236312  0.50000000  1
  Ir  Ir5  1  0.13319408  0.64075682  0.50000000  1
  Ir  Ir6  1  0.87236312  0.51071319  0.50000000  1
  Ir  Ir7  1  0.64075682  0.13319408  0.50000000  1
  Ir  Ir8  1  0.49224793  0.35997259  0.50000000  1
  Ir  Ir9  1  0.18002959  0.37112351  0.00000000  1
  Ir  Ir10  1  0.62233883  0.80503741  0.00000000  1
  Ir  Ir11  1  0.19614345  0.81748706  0.00000000  1
  Ir  Ir12  1  0.80503741  0.62233883  0.00000000  1
  Ir  Ir13  1  0.81748706  0.19614345  0.00000000  1
  Ir  Ir14  1  0.37112351  0.18002959  0.00000000  1
  Ir  Ir15  1  0.29037884  0.00122640  0.50000000  1
  Ir  Ir16  1  0.00122640  0.29037884  0.50000000  1
  Ir  Ir17  1  0.70962085  0.70962085  0.50000000  1
  Ir  Ir18  1  0.00079413  0.00079413  0.00000000  1
loop_
_geom_bond_atom_site_label_1
_geom_bond_atom_site_label_2
_geom_bond_distance
_geom_bond_site_symmetry_2
Li0 P4 2.847752 1_554
Li0 P4 2.847752 1_555
Li0 P3 2.860105 1_554
Li0 P3 2.860105 1_555
Li0 P5 2.883256 1_555
Li0 P5 2.883256 1_554
Li1 P6 2.847752 1_555
Li1 P6 2.847752 1_554
Li1 P8 2.860105 1_554
Li1 P8 2.860105 1_555
Li1 P7 2.883256 1_554
Li1 P7 2.883256 1_555
Li2 P1 2.908868 1_566
Li2 P1 2.908868 1_565
Li2 P2 2.924179 1_555
Li2 P2 2.924179 1_556
Li2 P9 3.017184 1_565
Li2 P9 3.017184 1_566
Li3 P0 2.908868 1_656
Li3 P0 2.908868 1_655
Li3 P2 2.924179 1_555
Li3 P2 2.924179 1_556
Li3 P10 3.017184 1_656
Li3 P10 3.017184 1_655
Lu0 P0 2.993824 1_546
Lu0 P0 2.993824 1_545
Lu0 P1 2.993824 1_455
Lu0 P1 2.993824 1_456
Lu0 P11 3.013965 1_555
Lu0 P11 3.013965 1_556
Ir0 P9 2.296305 1_555
Ir0 P8 2.784287 1_554
Ir0 P8 2.784287 1_555
Ir0 P5 2.850498 1_544
Ir0 P5 2.850498 1_545
Ir0 Ir15 2.867667 1_554
Ir0 Ir15 2.867667 1_555
Ir0 Ir14 2.915980 1_555
Ir0 Ir11 2.945204 1_545
Ir1 P10 2.296305 1_555
Ir1 P3 2.784287 1_555
Ir1 P3 2.784287 1_554
Ir1 P7 2.850498 1_454
Ir1 P7 2.850498 1_455
Ir1 Ir16 2.867667 1_555
Ir1 Ir16 2.867667 1_554
Ir1 Ir9 2.915980 1_555
Ir1 Ir13 2.945204 1_455
Ir2 P11 2.273711 1_555
Ir2 Ir8 2.807648 1_554
Ir2 Ir8 2.807648 1_555
Ir2 Ir3 2.807648 1_554
Ir2 Ir3 2.807648 1_555
Ir2 P4 2.839201 1_554
Ir2 P4 2.839201 1_555
Ir2 P6 2.839201 1_555
Ir2 P6 2.839201 1_554
Ir3 P4 2.237987 1_555
Ir3 P3 2.272000 1_555
Ir3 P11 2.558474 1_556
Ir3 P11 2.558474 1_555
Ir3 Ir9 2.778862 1_556
Ir3 Ir9 2.778862 1_555
Ir3 Ir8 2.866167 1_555
Ir3 Li0 3.043826 1_556
Ir3 Li0 3.043826 1_555
Ir3 Lu0 3.456561 1_555
Ir4 P5 2.228419 1_555
Ir4 P4 2.290318 1_555
Ir4 P9 2.532199 1_566
Ir4 P9 2.532199 1_565
Ir4 Li0 3.099146 1_556
Ir4 Li0 3.099146 1_555
Ir5 P3 2.218868 1_555
Ir5 P5 2.269003 1_555
Ir5 P10 2.561420 1_556
Ir5 P10 2.561420 1_555
Ir5 Li0 3.073503 1_555
Ir5 Li0 3.073503 1_556
Ir6 P7 2.228419 1_555
Ir6 P6 2.290318 1_555
Ir6 P10 2.532199 1_655
Ir6 P10 2.532199 1_656
Ir6 Li1 3.099146 1_555
Ir6 Li1 3.099146 1_556
Ir7 P8 2.218868 1_555
Ir7 P7 2.269003 1_555
Ir7 P9 2.561420 1_556
Ir7 P9 2.561420 1_555
Ir7 Li1 3.073502 1_556
Ir7 Li1 3.073502 1_555
Ir8 P6 2.237987 1_555
Ir8 P8 2.272000 1_555
Ir8 P11 2.558474 1_555
Ir8 P11 2.558474 1_556
Ir8 Li1 3.043826 1_555
Ir8 Li1 3.043826 1_556
Ir8 Lu0 3.456561 1_555
Ir9 P11 2.315586 1_555
Ir9 P1 2.397102 1_455
Ir9 P3 2.454453 1_554
Ir9 P3 2.454453 1_555
Ir9 Lu0 3.109584 1_554
Ir9 Lu0 3.109584 1_555
Ir9 Li0 3.187424 1_555
Ir10 P9 2.330946 1_565
Ir10 P2 2.381881 1_555
Ir10 P4 2.401852 1_554
Ir10 P4 2.401852 1_555
Ir10 Ir4 2.759907 1_555
Ir10 Ir4 2.759907 1_554
Ir10 Ir17 2.775286 1_554
Ir10 Ir17 2.775286 1_555
Ir10 Ir2 2.930191 1_555
Ir10 Li0 3.112221 1_555
Ir10 Li2 3.139150 1_554
Ir10 Li2 3.139150 1_555
Ir11 P10 2.326292 1_555
Ir11 P0 2.333472 1_555
Ir11 P5 2.411011 1_555
Ir11 P5 2.411011 1_554
Ir11 Ir5 2.746130 1_554
Ir11 Ir5 2.746130 1_555
Ir11 Ir15 2.781172 1_564
Ir11 Ir15 2.781172 1_565
Ir11 Li0 3.148519 1_555
Ir11 Li3 3.197974 1_455
Ir11 Li3 3.197974 1_454
Ir12 P10 2.330946 1_655
Ir12 P2 2.381881 1_555
Ir12 P6 2.401852 1_555
Ir12 P6 2.401852 1_554
Ir12 Ir6 2.759907 1_555
Ir12 Ir6 2.759907 1_554
Ir12 Ir17 2.775286 1_555
Ir12 Ir17 2.775286 1_554
Ir12 Ir2 2.930191 1_555
Ir12 Li1 3.112221 1_555
Ir12 Li3 3.139150 1_554
Ir12 Li3 3.139150 1_555
Ir13 P9 2.326292 1_555
Ir13 P1 2.333473 1_555
Ir13 P7 2.411011 1_555
Ir13 P7 2.411011 1_554
Ir13 Ir7 2.746130 1_555
Ir13 Ir7 2.746130 1_554
Ir13 Ir16 2.781172 1_655
Ir13 Ir16 2.781172 1_654
Ir13 Li1 3.148519 1_555
Ir13 Li2 3.197974 1_544
Ir13 Li2 3.197974 1_545
Ir14 P11 2.315586 1_555
Ir14 P0 2.397102 1_545
Ir14 P8 2.454453 1_554
Ir14 P8 2.454453 1_555
Ir14 Ir15 2.745367 1_555
Ir14 Ir15 2.745367 1_554
Ir14 Ir8 2.778862 1_555
Ir14 Ir8 2.778862 1_554
Ir14 Lu0 3.109584 1_554
Ir14 Lu0 3.109584 1_555
Ir14 Li1 3.187424 1_555
Ir15 P8 2.351446 1_555
Ir15 P5 2.372222 1_545
Ir15 P0 2.391518 1_545
Ir15 P0 2.391518 1_546
Ir15 Lu0 3.152776 1_555
Ir15 Li3 3.197155 1_445
Ir16 P3 2.351446 1_555
Ir16 P7 2.372222 1_455
Ir16 P1 2.391518 1_456
Ir16 P1 2.391518 1_455
Ir16 Ir9 2.745367 1_555
Ir16 Ir9 2.745367 1_556
Ir16 Lu0 3.152776 1_555
Ir16 Li2 3.197155 1_445
Ir17 P6 2.357533 1_555
Ir17 P4 2.357534 1_555
Ir17 P2 2.382086 1_555
Ir17 P2 2.382086 1_556
Ir17 Ir2 2.869304 1_555
Ir17 Ir2 2.869304 1_556
Ir17 Li2 3.128766 1_555
Ir17 Li3 3.128766 1_555
Ir18 P1 2.231401 1_455
Ir18 P0 2.231401 1_545
Ir18 P2 2.260647 1_445
Ir18 Lu0 2.911002 1_554
Ir18 Lu0 2.911002 1_555
Ir18 Li3 2.919280 1_444
Ir18 Li3 2.919280 1_445
Ir18 Li2 2.919280 1_445
Ir18 Li2 2.919280 1_444
