# generated using pymatgen
data_ScCrH6Ru
_symmetry_space_group_name_H-M   'P 1'
_cell_length_a   4.68981126
_cell_length_b   4.68981172
_cell_length_c   4.68981252
_cell_angle_alpha   60.00000844
_cell_angle_beta   60.00000520
_cell_angle_gamma   60.00001078
_symmetry_Int_Tables_number   1
_chemical_formula_structural   ScCrH6Ru
_chemical_formula_sum   'Sc1 Cr1 H6 Ru1'
_cell_volume   72.93757791
_cell_formula_units_Z   1
loop_
 _symmetry_equiv_pos_site_id
 _symmetry_equiv_pos_as_xyz
  1  'x, y, z'
loop_
 _atom_site_type_symbol
 _atom_site_label
 _atom_site_symmetry_multiplicity
 _atom_site_fract_x
 _atom_site_fract_y
 _atom_site_fract_z
 _atom_site_occupancy
  Sc  Sc0  1  0.25000000  0.25000000  0.25000000  1
  Cr  Cr0  1  0.75000000  0.75000000  0.75000000  1
  H  H0  1  0.74508682  0.74508682  0.25491318  1
  H  H1  1  0.25491318  0.74508682  0.25491318  1
  H  H2  1  0.74508682  0.25491318  0.25491318  1
  H  H3  1  0.25491318  0.25491318  0.74508682  1
  H  H4  1  0.74508682  0.25491318  0.74508682  1
  H  H5  1  0.25491318  0.74508682  0.74508682  1
  Ru  Ru0  1  0.00000000  0.00000000  0.00000000  1
loop_
_geom_bond_atom_site_label_1
_geom_bond_atom_site_label_2
_geom_bond_distance
_geom_bond_site_symmetry_2
Cr0 H5 2.345132 1_555
Cr0 H5 2.345132 1_655
Cr0 H4 2.345132 1_555
Cr0 H4 2.345132 1_565
Cr0 H1 2.345133 1_655
Cr0 H3 2.345133 1_655
Cr0 H3 2.345133 1_565
Cr0 H1 2.345133 1_556
Cr0 H0 2.345133 1_555
Cr0 H0 2.345133 1_556
Cr0 H2 2.345133 1_565
Cr0 H2 2.345133 1_556
H0 Ru0 1.690685 1_665
H0 Sc0 2.345133 1_655
H0 Sc0 2.345133 1_565
H1 Ru0 1.690685 1_565
H1 Sc0 2.345132 1_555
H1 Sc0 2.345132 1_565
H2 Ru0 1.690685 1_655
H2 Sc0 2.345132 1_555
H2 Sc0 2.345132 1_655
H3 Ru0 1.690685 1_556
H3 Sc0 2.345133 1_555
H3 Sc0 2.345133 1_556
H4 Ru0 1.690685 1_656
H4 Sc0 2.345133 1_655
H4 Sc0 2.345133 1_556
H5 Ru0 1.690685 1_566
H5 Sc0 2.345133 1_565
H5 Sc0 2.345133 1_556
