# generated using pymatgen
data_LiCaInN2
_symmetry_space_group_name_H-M   'P 1'
_cell_length_a   3.55391608
_cell_length_b   3.55391603
_cell_length_c   6.07393964
_cell_angle_alpha   90.00000000
_cell_angle_beta   90.00000000
_cell_angle_gamma   120.00000048
_symmetry_Int_Tables_number   1
_chemical_formula_structural   LiCaInN2
_chemical_formula_sum   'Li1 Ca1 In1 N2'
_cell_volume   66.43782879
_cell_formula_units_Z   1
loop_
 _symmetry_equiv_pos_site_id
 _symmetry_equiv_pos_as_xyz
  1  'x, y, z'
loop_
 _atom_site_type_symbol
 _atom_site_label
 _atom_site_symmetry_multiplicity
 _atom_site_fract_x
 _atom_site_fract_y
 _atom_site_fract_z
 _atom_site_occupancy
  Li  Li0  1  0.33333300  0.66666700  0.83250699  1
  Ca  Ca0  1  0.00000000  0.00000000  0.53567026  1
  In  In0  1  0.66666700  0.33333300  0.11276862  1
  N  N0  1  0.66666700  0.33333300  0.75884297  1
  N  N1  1  0.33333300  0.66666700  0.26021216  1
loop_
_geom_bond_atom_site_label_1
_geom_bond_atom_site_label_2
_geom_bond_distance
_geom_bond_site_symmetry_2
Li0 N0 2.100070 1_565
Li0 N0 2.100070 1_455
Li0 N0 2.100076 1_555
Li0 N1 2.597855 1_556
Ca0 N0 2.459183 1_455
Ca0 N0 2.459185 1_445
Ca0 N0 2.459185 1_555
Ca0 N1 2.647530 1_545
Ca0 N1 2.647532 1_555
Ca0 N1 2.647532 1_445
In0 N0 2.149723 1_554
In0 N1 2.238779 1_545
In0 N1 2.238779 1_655
In0 N1 2.238785 1_555
