# generated using pymatgen
data_Y2TaIrRh2
_symmetry_space_group_name_H-M   'P 1'
_cell_length_a   5.20455624
_cell_length_b   5.20455717
_cell_length_c   5.21701167
_cell_angle_alpha   65.86580181
_cell_angle_beta   65.86580014
_cell_angle_gamma   65.58882456
_symmetry_Int_Tables_number   1
_chemical_formula_structural   Y2TaIrRh2
_chemical_formula_sum   'Y2 Ta1 Ir1 Rh2'
_cell_volume   112.43445917
_cell_formula_units_Z   1
loop_
 _symmetry_equiv_pos_site_id
 _symmetry_equiv_pos_as_xyz
  1  'x, y, z'
loop_
 _atom_site_type_symbol
 _atom_site_label
 _atom_site_symmetry_multiplicity
 _atom_site_fract_x
 _atom_site_fract_y
 _atom_site_fract_z
 _atom_site_occupancy
  Y  Y0  1  0.62836505  0.62836505  0.62736429  1
  Y  Y1  1  0.37163495  0.37163495  0.37263571  1
  Ta  Ta0  1  0.00000000  0.00000000  0.00000000  1
  Ir  Ir0  1  0.00000000  0.00000000  0.50000000  1
  Rh  Rh0  1  0.50000000  0.00000000  0.00000000  1
  Rh  Rh1  1  0.00000000  0.50000000  0.00000000  1
loop_
_geom_bond_atom_site_label_1
_geom_bond_atom_site_label_2
_geom_bond_distance
_geom_bond_site_symmetry_2
Ir0 Ta0 2.608506 1_556
Ir0 Ta0 2.608506 1_555
Ir0 Rh0 2.832881 1_555
Ir0 Rh0 2.832881 1_456
Ir0 Rh1 2.832882 1_555
Ir0 Rh1 2.832882 1_546
Ir0 Y0 2.985642 1_445
Ir0 Y1 2.985642 1_555
Ir0 Y1 3.221096 1_455
Ir0 Y0 3.221096 1_545
Ir0 Y1 3.221097 1_545
Ir0 Y0 3.221097 1_455
Rh0 Ta0 2.602278 1_655
Rh0 Ta0 2.602278 1_555
Rh0 Rh1 2.818924 1_555
Rh0 Rh1 2.818924 1_645
Rh0 Y0 2.985207 1_544
Rh0 Y1 2.985207 1_555
Rh0 Y1 3.231557 1_554
Rh0 Y0 3.231557 1_545
Rh0 Y1 3.235078 1_545
Rh0 Y0 3.235078 1_554
Rh1 Ta0 2.602279 1_565
Rh1 Ta0 2.602279 1_555
Rh1 Y0 2.985207 1_454
Rh1 Y1 2.985207 1_555
Rh1 Y0 3.231557 1_455
Rh1 Y1 3.231557 1_554
Rh1 Y1 3.235078 1_455
Rh1 Y0 3.235078 1_554
