# generated using pymatgen
data_Ba2Ga6MoIr
_symmetry_space_group_name_H-M   'P 1'
_cell_length_a   6.94719983
_cell_length_b   6.94650980
_cell_length_c   6.94668170
_cell_angle_alpha   60.00274137
_cell_angle_beta   59.99987276
_cell_angle_gamma   90.00226057
_symmetry_Int_Tables_number   1
_chemical_formula_structural   Ba2Ga6MoIr
_chemical_formula_sum   'Ba2 Ga6 Mo1 Ir1'
_cell_volume   237.05408194
_cell_formula_units_Z   1
loop_
 _symmetry_equiv_pos_site_id
 _symmetry_equiv_pos_as_xyz
  1  'x, y, z'
loop_
 _atom_site_type_symbol
 _atom_site_label
 _atom_site_symmetry_multiplicity
 _atom_site_fract_x
 _atom_site_fract_y
 _atom_site_fract_z
 _atom_site_occupancy
  Ba  Ba0  1  0.74946558  0.24947158  0.50106385  1
  Ba  Ba1  1  0.25053242  0.75052642  0.49893815  1
  Ga  Ga0  1  0.25201252  0.25210059  0.00000100  1
  Ga  Ga1  1  0.74900280  0.25297829  0.00000200  1
  Ga  Ga2  1  0.74798748  0.74789941  0.99999900  1
  Ga  Ga3  1  0.25099920  0.74702271  0.99999800  1
  Ga  Ga4  1  0.25205241  0.25205141  0.49589518  1
  Ga  Ga5  1  0.74794759  0.74794959  0.50410482  1
  Mo  Mo0  1  0.00000000  0.99999900  0.00000000  1
  Ir  Ir0  1  0.50000000  0.50000000  0.00000000  1
loop_
_geom_bond_atom_site_label_1
_geom_bond_atom_site_label_2
_geom_bond_distance
_geom_bond_site_symmetry_2
Ba0 Ga0 3.470116 1_556
Ba0 Ga2 3.470130 1_545
Ba0 Ga1 3.470217 1_555
Ba0 Ga3 3.470321 1_654
Ba0 Ga5 3.473276 1_555
Ba0 Ga5 3.473298 1_545
Ba0 Ga4 3.473675 1_555
Ba0 Ga4 3.473711 1_655
Ba0 Ga1 3.476606 1_556
Ba0 Ga3 3.476676 1_545
Ba0 Ga2 3.476876 1_554
Ba0 Ga0 3.476933 1_655
Ba1 Ga2 3.470123 1_554
Ba1 Ga0 3.470137 1_565
Ba1 Ga3 3.470227 1_555
Ba1 Ga1 3.470297 1_456
Ba1 Ga4 3.473263 1_555
Ba1 Ga4 3.473312 1_565
Ba1 Ga5 3.473682 1_555
Ba1 Ga5 3.473704 1_455
Ba1 Ga3 3.476596 1_554
Ba1 Ga1 3.476700 1_565
Ba1 Ga0 3.476869 1_556
Ba1 Ga2 3.476926 1_455
Ga0 Ir0 2.435827 1_555
Ga0 Mo0 2.476249 1_545
Ga1 Ir0 2.436624 1_555
Ga1 Mo0 2.475684 1_645
Ga2 Ir0 2.435827 1_556
Ga2 Mo0 2.476239 1_656
Ga3 Ir0 2.436619 1_556
Ga3 Mo0 2.475679 1_556
Ga4 Ir0 2.435908 1_555
Ga4 Mo0 2.476235 1_546
Ga5 Ir0 2.435908 1_556
Ga5 Mo0 2.476235 1_655
