# generated using pymatgen
data_SrMo2PbO8
_symmetry_space_group_name_H-M   'P 1'
_cell_length_a   7.13362232
_cell_length_b   7.13362262
_cell_length_c   7.13362238
_cell_angle_alpha   135.23267777
_cell_angle_beta   135.23267841
_cell_angle_gamma   65.16888557
_symmetry_Int_Tables_number   1
_chemical_formula_structural   SrMo2PbO8
_chemical_formula_sum   'Sr1 Mo2 Pb1 O8'
_cell_volume   177.42723806
_cell_formula_units_Z   1
loop_
 _symmetry_equiv_pos_site_id
 _symmetry_equiv_pos_as_xyz
  1  'x, y, z'
loop_
 _atom_site_type_symbol
 _atom_site_label
 _atom_site_symmetry_multiplicity
 _atom_site_fract_x
 _atom_site_fract_y
 _atom_site_fract_z
 _atom_site_occupancy
  Sr  Sr0  1  0.25000000  0.75000000  0.50000000  1
  Mo  Mo0  1  0.00000000  0.00000000  0.00000000  1
  Mo  Mo1  1  0.75000000  0.25000000  0.50000000  1
  Pb  Pb0  1  0.50000000  0.50000000  0.00000000  1
  O  O0  1  0.52950032  0.93451247  0.12588571  1
  O  O1  1  0.94610515  0.84702080  0.62910087  1
  O  O2  1  0.59638540  0.47049968  0.40501315  1
  O  O3  1  0.06548753  0.19137225  0.59498685  1
  O  O4  1  0.68299472  0.05389485  0.90091665  1
  O  O5  1  0.21791993  0.31700528  0.37089913  1
  O  O6  1  0.80862775  0.40361460  0.87411429  1
  O  O7  1  0.15297920  0.78208007  0.09908335  1
loop_
_geom_bond_atom_site_label_1
_geom_bond_atom_site_label_2
_geom_bond_distance
_geom_bond_site_symmetry_2
Mo0 O7 1.774055 1_545
Mo0 O1 1.774059 1_444
Mo0 O5 1.774064 1_555
Mo0 O4 1.774068 1_454
Mo1 O6 1.773570 1_555
Mo1 O2 1.773570 1_555
Mo1 O0 1.773574 1_545
Mo1 O3 1.773577 1_655
O0 Pb0 2.604914 1_555
O0 Sr0 2.619443 1_554
O1 Sr0 2.587766 1_655
O1 Pb0 2.637823 1_555
O2 Pb0 2.604921 1_555
O2 Sr0 2.619440 1_555
O3 Pb0 2.604915 1_556
O3 Sr0 2.619439 1_545
O4 Sr0 2.587758 1_545
O4 Pb0 2.637823 1_556
O5 Sr0 2.587759 1_555
O5 Pb0 2.637825 1_556
O6 Pb0 2.604921 1_556
O6 Sr0 2.619440 1_656
O7 Sr0 2.587773 1_555
O7 Pb0 2.637820 1_555
