# generated using pymatgen
data_PSe3(ClF2)3
_symmetry_space_group_name_H-M   'P 1'
_cell_length_a   7.68360456
_cell_length_b   9.78512670
_cell_length_c   11.12597073
_cell_angle_alpha   77.77362533
_cell_angle_beta   86.88005645
_cell_angle_gamma   77.40572308
_symmetry_Int_Tables_number   1
_chemical_formula_structural   PSe3(ClF2)3
_chemical_formula_sum   'P3 Se9 Cl9 F18'
_cell_volume   797.83249920
_cell_formula_units_Z   3
loop_
 _symmetry_equiv_pos_site_id
 _symmetry_equiv_pos_as_xyz
  1  'x, y, z'
loop_
 _atom_site_type_symbol
 _atom_site_label
 _atom_site_symmetry_multiplicity
 _atom_site_fract_x
 _atom_site_fract_y
 _atom_site_fract_z
 _atom_site_occupancy
  P  P0  1  0.49280830  0.00239196  0.01049044  1
  P  P1  1  0.30986719  0.56754456  0.68976361  1
  P  P2  1  0.69784356  0.42668337  0.29793127  1
  Se  Se0  1  0.19947087  0.64623297  0.31641265  1
  Se  Se1  1  0.79902461  0.35374976  0.68275045  1
  Se  Se2  1  0.27166721  0.67814951  0.07990502  1
  Se  Se3  1  0.71871967  0.33126258  0.91605790  1
  Se  Se4  1  0.54381264  0.90604068  0.67663717  1
  Se  Se5  1  0.47989437  0.10820139  0.35006819  1
  Se  Se6  1  0.91732030  0.74933729  0.32155131  1
  Se  Se7  1  0.08114469  0.24447248  0.68297366  1
  Se  Se8  1  0.55525231  0.12206759  0.57502372  1
  Cl  Cl0  1  0.81067940  0.77923282  0.65832108  1
  Cl  Cl1  1  0.20482580  0.21245819  0.34238563  1
  Cl  Cl2  1  0.01631628  0.79405575  0.01774140  1
  Cl  Cl3  1  0.97229546  0.21506488  0.98328523  1
  Cl  Cl4  1  0.90774341  0.97425506  0.33162823  1
  Cl  Cl5  1  0.08231879  0.01992791  0.68200213  1
  Cl  Cl6  1  0.26151277  0.46738465  0.06147357  1
  Cl  Cl7  1  0.72902175  0.54308786  0.93139160  1
  Cl  Cl8  1  0.45507065  0.89190809  0.39499543  1
  F  F0  1  0.49578834  0.60954184  0.63769505  1
  F  F1  1  0.51713708  0.37312410  0.35753277  1
  F  F2  1  0.42391310  0.43024328  0.78791159  1
  F  F3  1  0.57010554  0.56293124  0.20994932  1
  F  F4  1  0.63063046  0.07669420  0.91457505  1
  F  F5  1  0.35470087  0.92753301  0.10616941  1
  F  F6  1  0.57911647  0.84959455  0.97538940  1
  F  F7  1  0.40696421  0.15465698  0.04689898  1
  F  F8  1  0.32331157  0.46526357  0.59103802  1
  F  F9  1  0.68793717  0.52051929  0.40158092  1
  F  F10  1  0.12819199  0.52051249  0.74466875  1
  F  F11  1  0.87176716  0.48058559  0.23742651  1
  F  F12  1  0.30010930  0.66623093  0.79044217  1
  F  F13  1  0.69971898  0.33238272  0.19489839  1
  F  F14  1  0.34945551  0.03595302  0.90233549  1
  F  F15  1  0.63589669  0.96910392  0.11911835  1
  F  F16  1  0.19983722  0.70040018  0.59317169  1
  F  F17  1  0.81880731  0.29121574  0.38640745  1
loop_
_geom_bond_atom_site_label_1
_geom_bond_atom_site_label_2
_geom_bond_distance
_geom_bond_site_symmetry_2
Se0 Se6 2.185904 1_455
Se0 Se2 2.626402 1_555
Se1 Se7 2.197943 1_655
Se1 Se3 2.609621 1_555
Se4 Se8 2.193681 1_565
Se5 Se8 2.637000 1_555
Cl0 Se4 2.176647 1_555
Cl1 Se5 2.134821 1_555
Cl2 Se2 2.111691 1_555
Cl3 Se3 2.116781 1_555
Cl4 Se6 2.212399 1_555
Cl5 Se7 2.197562 1_555
Cl6 Se2 2.133662 1_555
Cl7 Se3 2.134105 1_555
Cl8 Se5 2.117359 1_565
F0 P1 1.615647 1_555
F1 P2 1.646870 1_555
F2 P1 1.653693 1_555
F3 P2 1.637118 1_555
F4 P0 1.634922 1_556
F5 P0 1.637553 1_565
F6 P0 1.616933 1_566
F7 P0 1.617723 1_555
F8 P1 1.620816 1_555
F9 P2 1.608479 1_555
F10 P1 1.613015 1_555
F11 P2 1.605081 1_555
F12 P1 1.615635 1_555
F13 P2 1.614369 1_555
F14 P0 1.608798 1_556
F15 P0 1.611607 1_565
F16 P1 1.608594 1_555
F17 P2 1.612338 1_555
