# generated using pymatgen
data_CsRbZrSe3
_symmetry_space_group_name_H-M   'P 1'
_cell_length_a   7.87908769
_cell_length_b   8.14317916
_cell_length_c   7.20077553
_cell_angle_alpha   90.00000000
_cell_angle_beta   90.00000000
_cell_angle_gamma   108.47778132
_symmetry_Int_Tables_number   1
_chemical_formula_structural   CsRbZrSe3
_chemical_formula_sum   'Cs2 Rb2 Zr2 Se6'
_cell_volume   438.18962984
_cell_formula_units_Z   2
loop_
 _symmetry_equiv_pos_site_id
 _symmetry_equiv_pos_as_xyz
  1  'x, y, z'
loop_
 _atom_site_type_symbol
 _atom_site_label
 _atom_site_symmetry_multiplicity
 _atom_site_fract_x
 _atom_site_fract_y
 _atom_site_fract_z
 _atom_site_occupancy
  Cs  Cs0  1  0.17336130  0.49092487  0.75000000  1
  Cs  Cs1  1  0.82663870  0.50907513  0.25000000  1
  Rb  Rb0  1  0.50411173  0.81527341  0.25000000  1
  Rb  Rb1  1  0.49588827  0.18472659  0.75000000  1
  Zr  Zr0  1  0.07918598  0.08704751  0.25000000  1
  Zr  Zr1  1  0.92081402  0.91295249  0.75000000  1
  Se  Se0  1  0.67567027  0.63256810  0.75000000  1
  Se  Se1  1  0.32432973  0.36743190  0.25000000  1
  Se  Se2  1  0.84269270  0.11935326  0.49985885  1
  Se  Se3  1  0.84269270  0.11935326  0.00014115  1
  Se  Se4  1  0.15730730  0.88064674  0.50014115  1
  Se  Se5  1  0.15730730  0.88064674  0.99985885  1
loop_
_geom_bond_atom_site_label_1
_geom_bond_atom_site_label_2
_geom_bond_distance
_geom_bond_site_symmetry_2
Cs0 Se5 3.684979 1_555
Cs0 Se4 3.684979 1_555
Cs0 Se0 3.755058 1_555
Cs0 Se3 3.767044 1_456
Cs0 Se2 3.767044 1_455
Cs0 Se1 4.018358 1_555
Cs0 Se1 4.018358 1_556
Cs1 Se2 3.684979 1_555
Cs1 Se3 3.684979 1_555
Cs1 Se1 3.755058 1_555
Cs1 Se4 3.767044 1_655
Cs1 Se5 3.767044 1_654
Cs1 Se0 4.018358 1_555
Cs1 Se0 4.018358 1_554
Rb0 Se4 3.452011 1_555
Rb0 Se5 3.452011 1_554
Rb0 Se1 3.468657 1_555
Rb0 Se2 3.506846 1_565
Rb0 Se3 3.506846 1_565
Rb1 Se3 3.452011 1_556
Rb1 Se2 3.452011 1_555
Rb1 Se0 3.468657 1_555
Rb1 Se5 3.506846 1_545
Rb1 Se4 3.506846 1_545
Se0 Zr1 2.479597 1_555
Se1 Zr0 2.479597 1_555
Se2 Zr0 2.662526 1_655
Se2 Zr1 2.665324 1_545
Se3 Zr0 2.662526 1_655
Se3 Zr1 2.665324 1_544
Se4 Zr1 2.662526 1_455
Se4 Zr0 2.665324 1_565
Se5 Zr1 2.662526 1_455
Se5 Zr0 2.665324 1_566
