# generated using pymatgen
data_Rb2Li14Zr3O14
_symmetry_space_group_name_H-M   'P 1'
_cell_length_a   8.21908163
_cell_length_b   8.21908153
_cell_length_c   8.21908184
_cell_angle_alpha   127.56773860
_cell_angle_beta   123.57017793
_cell_angle_gamma   80.63885864
_symmetry_Int_Tables_number   1
_chemical_formula_structural   Rb2Li14Zr3O14
_chemical_formula_sum   'Rb2 Li14 Zr3 O14'
_cell_volume   353.65899212
_cell_formula_units_Z   1
loop_
 _symmetry_equiv_pos_site_id
 _symmetry_equiv_pos_as_xyz
  1  'x, y, z'
loop_
 _atom_site_type_symbol
 _atom_site_label
 _atom_site_symmetry_multiplicity
 _atom_site_fract_x
 _atom_site_fract_y
 _atom_site_fract_z
 _atom_site_occupancy
  Rb  Rb0  1  0.50000000  0.77182224  0.27182224  1
  Rb  Rb1  1  0.50000000  0.22817776  0.72817776  1
  Li  Li0  1  0.70713635  0.13764440  0.11558777  1
  Li  Li1  1  0.97794336  0.86235560  0.56949094  1
  Li  Li2  1  0.02205664  0.59154858  0.88441223  1
  Li  Li3  1  0.29286365  0.40845142  0.43050906  1
  Li  Li4  1  0.02205664  0.13764440  0.43050906  1
  Li  Li5  1  0.84577995  0.50000000  0.34577995  1
  Li  Li6  1  0.15422005  0.50000000  0.65422005  1
  Li  Li7  1  0.41215114  0.76951854  0.64263360  1
  Li  Li8  1  0.58784886  0.23048146  0.35736640  1
  Li  Li9  1  0.87311506  0.23048146  0.64263360  1
  Li  Li10  1  0.12688494  0.76951854  0.35736640  1
  Li  Li11  1  0.70713635  0.59154858  0.56949094  1
  Li  Li12  1  0.29286365  0.86235560  0.88441223  1
  Li  Li13  1  0.97794336  0.40845142  0.11558777  1
  Zr  Zr0  1  0.00000000  0.00000000  0.00000000  1
  Zr  Zr1  1  0.27133405  0.27133405  0.00000000  1
  Zr  Zr2  1  0.72866595  0.72866595  1.00000000  1
  O  O0  1  0.05218905  0.87238110  0.17980795  1
  O  O1  1  0.41988589  0.63078649  0.78909940  1
  O  O2  1  0.84168809  0.63078649  0.21090060  1
  O  O3  1  0.58011411  0.36921351  0.21090060  1
  O  O4  1  0.15831191  0.36921351  0.78909940  1
  O  O5  1  0.74655296  0.03248172  0.28592876  1
  O  O6  1  0.25344704  0.53937681  0.28592876  1
  O  O7  1  0.25344704  0.96751828  0.71407124  1
  O  O8  1  0.74655296  0.46062319  0.71407124  1
  O  O9  1  0.00000000  0.71188299  0.71188299  1
  O  O10  1  1.00000000  0.28811701  0.28811701  1
  O  O11  1  0.69257416  0.87238110  0.82019205  1
  O  O12  1  0.30742584  0.12761890  0.17980795  1
  O  O13  1  0.94781095  0.12761890  0.82019205  1
loop_
_geom_bond_atom_site_label_1
_geom_bond_atom_site_label_2
_geom_bond_distance
_geom_bond_site_symmetry_2
Li0 O5 1.922259 1_555
Li0 O3 1.940639 1_555
Li0 O11 1.992777 1_544
Li0 O10 2.095100 1_555
Li1 O7 1.922256 1_655
Li1 O2 1.940634 1_555
Li1 O13 1.992777 1_565
Li1 O9 2.095107 1_655
Li2 O8 1.922261 1_455
Li2 O4 1.940633 1_555
Li2 O0 1.992773 1_556
Li2 O9 2.095100 1_555
Li3 O6 1.922274 1_555
Li3 O1 1.940633 1_555
Li3 O12 1.992773 1_555
Li3 O10 2.095097 1_455
Li4 O5 1.922256 1_455
Li4 O4 1.940634 1_555
Li4 O0 1.992777 1_545
Li4 O10 2.095107 1_455
Li5 O3 1.945690 1_555
Li5 O2 1.945693 1_555
Li5 O9 1.950355 1_655
Li5 O10 1.950355 1_555
Li6 O1 1.945690 1_555
Li6 O4 1.945693 1_555
Li6 O10 1.950355 1_455
Li6 O9 1.950355 1_555
Li7 O11 1.888459 1_555
Li7 O7 1.919857 1_555
Li7 O6 1.919861 1_555
Li7 O1 2.078213 1_555
Li8 O12 1.888459 1_555
Li8 O5 1.919857 1_555
Li8 O8 1.919861 1_555
Li8 O3 2.078213 1_555
Li9 O13 1.888445 1_555
Li9 O8 1.919857 1_555
Li9 O5 1.919862 1_555
Li9 O4 2.078209 1_655
Li10 O0 1.888445 1_555
Li10 O6 1.919857 1_555
Li10 O7 1.919862 1_555
Li10 O2 2.078209 1_455
Li11 O8 1.922274 1_555
Li11 O3 1.940633 1_555
Li11 O11 1.992773 1_555
Li11 O9 2.095097 1_655
Li12 O7 1.922259 1_555
Li12 O1 1.940639 1_555
Li12 O12 1.992777 1_566
Li12 O9 2.095100 1_555
Li13 O6 1.922261 1_655
Li13 O2 1.940633 1_555
Li13 O13 1.992773 1_554
Li13 O10 2.095100 1_555
O0 Zr0 2.123928 1_565
O0 Zr2 2.279720 1_454
O1 Zr2 2.047284 1_555
O1 Rb1 3.044605 1_555
O1 Rb0 3.044605 1_556
O2 Zr2 2.047284 1_554
O2 Rb1 3.044608 1_554
O2 Rb0 3.044613 1_555
O3 Zr1 2.047284 1_555
O3 Rb0 3.044605 1_555
O3 Rb1 3.044605 1_554
O4 Zr1 2.047284 1_556
O4 Rb0 3.044608 1_556
O4 Rb1 3.044613 1_555
O5 Zr2 2.088396 1_544
O5 Rb0 3.091810 1_545
O6 Zr1 2.088399 1_555
O6 Rb0 3.091804 1_555
O7 Zr1 2.088396 1_566
O7 Rb1 3.091810 1_565
O8 Zr2 2.088399 1_555
O8 Rb1 3.091804 1_555
O9 Zr0 2.092219 1_566
O10 Zr0 2.092219 1_655
O11 Zr0 2.123921 1_666
O11 Zr2 2.279723 1_555
O12 Zr0 2.123921 1_555
O12 Zr1 2.279723 1_555
O13 Zr0 2.123928 1_656
O13 Zr1 2.279720 1_656
