# generated using pymatgen
data_LiAl2Rh
_symmetry_space_group_name_H-M   'P 1'
_cell_length_a   4.23519075
_cell_length_b   4.23519068
_cell_length_c   4.23519100
_cell_angle_alpha   60.00000529
_cell_angle_beta   60.00000589
_cell_angle_gamma   60.00000784
_symmetry_Int_Tables_number   1
_chemical_formula_structural   LiAl2Rh
_chemical_formula_sum   'Li1 Al2 Rh1'
_cell_volume   53.71604259
_cell_formula_units_Z   1
loop_
 _symmetry_equiv_pos_site_id
 _symmetry_equiv_pos_as_xyz
  1  'x, y, z'
loop_
 _atom_site_type_symbol
 _atom_site_label
 _atom_site_symmetry_multiplicity
 _atom_site_fract_x
 _atom_site_fract_y
 _atom_site_fract_z
 _atom_site_occupancy
  Li  Li0  1  0.00000000  0.00000000  0.00000000  1
  Al  Al0  1  0.25000000  0.25000000  0.25000000  1
  Al  Al1  1  0.75000000  0.75000000  0.75000000  1
  Rh  Rh0  1  0.50000000  0.50000000  0.50000000  1
loop_
_geom_bond_atom_site_label_1
_geom_bond_atom_site_label_2
_geom_bond_distance
_geom_bond_site_symmetry_2
Li0 Rh0 2.994732 1_445
Li0 Rh0 2.994732 1_554
Li0 Rh0 2.994732 1_544
Li0 Rh0 2.994732 1_545
Li0 Rh0 2.994732 1_454
Li0 Rh0 2.994732 1_455
Al0 Li0 2.593514 1_555
Al0 Rh0 2.593514 1_555
Al0 Li0 2.593514 1_565
Al0 Rh0 2.593514 1_545
Al0 Rh0 2.593514 1_455
Al0 Li0 2.593514 1_655
Al0 Li0 2.593514 1_556
Al0 Rh0 2.593514 1_554
Al1 Rh0 2.593514 1_555
Al1 Li0 2.593514 1_666
Al1 Li0 2.593514 1_656
Al1 Rh0 2.593514 1_565
Al1 Li0 2.593514 1_566
Al1 Rh0 2.593514 1_655
Al1 Rh0 2.593514 1_556
Al1 Li0 2.593514 1_665
