# generated using pymatgen
data_Zr3Ga2
_symmetry_space_group_name_H-M   'P 1'
_cell_length_a   7.40839622
_cell_length_b   14.66743678
_cell_length_c   14.66743678
_cell_angle_alpha   90.00000000
_cell_angle_beta   90.00000000
_cell_angle_gamma   90.00000000
_symmetry_Int_Tables_number   1
_chemical_formula_structural   Zr3Ga2
_chemical_formula_sum   'Zr48 Ga32'
_cell_volume   1593.79570243
_cell_formula_units_Z   16
loop_
 _symmetry_equiv_pos_site_id
 _symmetry_equiv_pos_as_xyz
  1  'x, y, z'
loop_
 _atom_site_type_symbol
 _atom_site_label
 _atom_site_symmetry_multiplicity
 _atom_site_fract_x
 _atom_site_fract_y
 _atom_site_fract_z
 _atom_site_occupancy
  Zr  Zr0_0  1  0.00000000  0.00000000  0.00000000  1
  Zr  Zr0_1  1  0.00000000  0.00000000  0.50000000  1
  Zr  Zr0_2  1  0.00000000  0.50000000  0.00000000  1
  Zr  Zr0_3  1  0.00000000  0.50000000  0.50000000  1
  Zr  Zr0_4  1  0.50000000  0.00000000  0.00000000  1
  Zr  Zr0_5  1  0.50000000  0.00000000  0.50000000  1
  Zr  Zr0_6  1  0.50000000  0.50000000  0.00000000  1
  Zr  Zr0_7  1  0.50000000  0.50000000  0.50000000  1
  Zr  Zr1_0  1  0.00000000  0.25000000  0.25000000  1
  Zr  Zr1_1  1  0.00000000  0.25000000  0.75000000  1
  Zr  Zr1_2  1  0.00000000  0.75000000  0.25000000  1
  Zr  Zr1_3  1  0.00000000  0.75000000  0.75000000  1
  Zr  Zr1_4  1  0.50000000  0.25000000  0.25000000  1
  Zr  Zr1_5  1  0.50000000  0.25000000  0.75000000  1
  Zr  Zr1_6  1  0.50000000  0.75000000  0.25000000  1
  Zr  Zr1_7  1  0.50000000  0.75000000  0.75000000  1
  Zr  Zr2_0  1  0.25000000  0.08827060  0.33827060  1
  Zr  Zr2_1  1  0.25000000  0.08827060  0.83827060  1
  Zr  Zr2_2  1  0.25000000  0.58827060  0.33827060  1
  Zr  Zr2_3  1  0.25000000  0.58827060  0.83827060  1
  Zr  Zr2_4  1  0.75000000  0.08827060  0.33827060  1
  Zr  Zr2_5  1  0.75000000  0.08827060  0.83827060  1
  Zr  Zr2_6  1  0.75000000  0.58827060  0.33827060  1
  Zr  Zr2_7  1  0.75000000  0.58827060  0.83827060  1
  Zr  Zr3_0  1  0.25000000  0.16172940  0.08827060  1
  Zr  Zr3_1  1  0.25000000  0.16172940  0.58827060  1
  Zr  Zr3_2  1  0.25000000  0.66172940  0.08827060  1
  Zr  Zr3_3  1  0.25000000  0.66172940  0.58827060  1
  Zr  Zr3_4  1  0.75000000  0.16172940  0.08827060  1
  Zr  Zr3_5  1  0.75000000  0.16172940  0.58827060  1
  Zr  Zr3_6  1  0.75000000  0.66172940  0.08827060  1
  Zr  Zr3_7  1  0.75000000  0.66172940  0.58827060  1
  Zr  Zr4_0  1  0.25000000  0.33827060  0.41172940  1
  Zr  Zr4_1  1  0.25000000  0.33827060  0.91172940  1
  Zr  Zr4_2  1  0.25000000  0.83827060  0.41172940  1
  Zr  Zr4_3  1  0.25000000  0.83827060  0.91172940  1
  Zr  Zr4_4  1  0.75000000  0.33827060  0.41172940  1
  Zr  Zr4_5  1  0.75000000  0.33827060  0.91172940  1
  Zr  Zr4_6  1  0.75000000  0.83827060  0.41172940  1
  Zr  Zr4_7  1  0.75000000  0.83827060  0.91172940  1
  Zr  Zr5_0  1  0.25000000  0.41172940  0.16172940  1
  Zr  Zr5_1  1  0.25000000  0.41172940  0.66172940  1
  Zr  Zr5_2  1  0.25000000  0.91172940  0.16172940  1
  Zr  Zr5_3  1  0.25000000  0.91172940  0.66172940  1
  Zr  Zr5_4  1  0.75000000  0.41172940  0.16172940  1
  Zr  Zr5_5  1  0.75000000  0.41172940  0.66172940  1
  Zr  Zr5_6  1  0.75000000  0.91172940  0.16172940  1
  Zr  Zr5_7  1  0.75000000  0.91172940  0.66172940  1
  Ga  Ga0_0  1  0.00000000  0.18848695  0.43848695  1
  Ga  Ga0_1  1  0.00000000  0.18848695  0.93848695  1
  Ga  Ga0_2  1  0.00000000  0.68848695  0.43848695  1
  Ga  Ga0_3  1  0.00000000  0.68848695  0.93848695  1
  Ga  Ga0_4  1  0.50000000  0.18848695  0.43848695  1
  Ga  Ga0_5  1  0.50000000  0.18848695  0.93848695  1
  Ga  Ga0_6  1  0.50000000  0.68848695  0.43848695  1
  Ga  Ga0_7  1  0.50000000  0.68848695  0.93848695  1
  Ga  Ga1_0  1  0.00000000  0.06151305  0.18848695  1
  Ga  Ga1_1  1  0.00000000  0.06151305  0.68848695  1
  Ga  Ga1_2  1  0.00000000  0.56151305  0.18848695  1
  Ga  Ga1_3  1  0.00000000  0.56151305  0.68848695  1
  Ga  Ga1_4  1  0.50000000  0.06151305  0.18848695  1
  Ga  Ga1_5  1  0.50000000  0.06151305  0.68848695  1
  Ga  Ga1_6  1  0.50000000  0.56151305  0.18848695  1
  Ga  Ga1_7  1  0.50000000  0.56151305  0.68848695  1
  Ga  Ga2_0  1  0.00000000  0.43848695  0.31151305  1
  Ga  Ga2_1  1  0.00000000  0.43848695  0.81151305  1
  Ga  Ga2_2  1  0.00000000  0.93848695  0.31151305  1
  Ga  Ga2_3  1  0.00000000  0.93848695  0.81151305  1
  Ga  Ga2_4  1  0.50000000  0.43848695  0.31151305  1
  Ga  Ga2_5  1  0.50000000  0.43848695  0.81151305  1
  Ga  Ga2_6  1  0.50000000  0.93848695  0.31151305  1
  Ga  Ga2_7  1  0.50000000  0.93848695  0.81151305  1
  Ga  Ga3_0  1  0.00000000  0.31151305  0.06151305  1
  Ga  Ga3_1  1  0.00000000  0.31151305  0.56151305  1
  Ga  Ga3_2  1  0.00000000  0.81151305  0.06151305  1
  Ga  Ga3_3  1  0.00000000  0.81151305  0.56151305  1
  Ga  Ga3_4  1  0.50000000  0.31151305  0.06151305  1
  Ga  Ga3_5  1  0.50000000  0.31151305  0.56151305  1
  Ga  Ga3_6  1  0.50000000  0.81151305  0.06151305  1
  Ga  Ga3_7  1  0.50000000  0.81151305  0.56151305  1
loop_
_geom_bond_atom_site_label_1
_geom_bond_atom_site_label_2
_geom_bond_distance
_geom_bond_site_symmetry_2
Zr0_0 Zr3_0 3.276225 1_555
Zr0_0 Zr3_4 3.276225 1_455
Zr0_0 Zr2_1 3.276225 1_554
Zr0_0 Zr2_5 3.276225 1_454
Zr0_0 Zr5_2 3.276225 1_545
Zr0_0 Zr4_3 3.276225 1_544
Zr0_0 Zr4_7 3.276225 1_444
Zr0_0 Zr5_6 3.276225 1_445
Zr0_0 Zr0_4 3.704198 1_555
Zr0_0 Zr0_4 3.704198 1_455
Zr0_1 Zr3_1 3.276225 1_555
Zr0_1 Zr2_4 3.276225 1_455
Zr0_1 Zr3_5 3.276225 1_455
Zr0_1 Zr2_0 3.276225 1_555
Zr0_1 Zr5_7 3.276225 1_445
Zr0_1 Zr5_3 3.276225 1_545
Zr0_1 Zr4_2 3.276225 1_545
Zr0_1 Zr4_6 3.276225 1_445
Zr0_1 Zr0_5 3.704198 1_555
Zr0_1 Zr0_5 3.704198 1_455
Zr0_2 Zr3_6 3.276225 1_455
Zr0_2 Zr2_3 3.276225 1_554
Zr0_2 Zr3_2 3.276225 1_555
Zr0_2 Zr2_7 3.276225 1_454
Zr0_2 Zr4_1 3.276225 1_554
Zr0_2 Zr4_5 3.276225 1_454
Zr0_2 Zr5_0 3.276225 1_555
Zr0_2 Zr5_4 3.276225 1_455
Zr0_2 Zr0_6 3.704198 1_555
Zr0_2 Zr0_6 3.704198 1_455
Zr0_3 Zr2_2 3.276225 1_555
Zr0_3 Zr3_7 3.276225 1_455
Zr0_3 Zr2_6 3.276225 1_455
Zr0_3 Zr3_3 3.276225 1_555
Zr0_3 Zr5_1 3.276225 1_555
Zr0_3 Zr4_4 3.276225 1_455
Zr0_3 Zr5_5 3.276225 1_455
Zr0_3 Zr4_0 3.276225 1_555
Zr0_3 Zr0_7 3.704198 1_555
Zr0_3 Zr0_7 3.704198 1_455
Zr0_4 Zr3_0 3.276225 1_555
Zr0_4 Zr2_1 3.276225 1_554
Zr0_4 Zr3_4 3.276225 1_555
Zr0_4 Zr2_5 3.276225 1_554
Zr0_4 Zr5_2 3.276225 1_545
Zr0_4 Zr4_3 3.276225 1_544
Zr0_4 Zr5_6 3.276225 1_545
Zr0_4 Zr4_7 3.276225 1_544
Zr0_5 Zr3_1 3.276225 1_555
Zr0_5 Zr2_0 3.276225 1_555
Zr0_5 Zr3_5 3.276225 1_555
Zr0_5 Zr2_4 3.276225 1_555
Zr0_5 Zr5_3 3.276225 1_545
Zr0_5 Zr4_2 3.276225 1_545
Zr0_5 Zr5_7 3.276225 1_545
Zr0_5 Zr4_6 3.276225 1_545
Zr0_6 Zr2_3 3.276225 1_554
Zr0_6 Zr3_2 3.276225 1_555
Zr0_6 Zr2_7 3.276225 1_554
Zr0_6 Zr3_6 3.276225 1_555
Zr0_6 Zr4_1 3.276225 1_554
Zr0_6 Zr5_0 3.276225 1_555
Zr0_6 Zr5_4 3.276225 1_555
Zr0_6 Zr4_5 3.276225 1_554
Zr0_7 Zr2_2 3.276225 1_555
Zr0_7 Zr3_3 3.276225 1_555
Zr0_7 Zr3_7 3.276225 1_555
Zr0_7 Zr2_6 3.276225 1_555
Zr0_7 Zr5_1 3.276225 1_555
Zr0_7 Zr5_5 3.276225 1_555
Zr0_7 Zr4_0 3.276225 1_555
Zr0_7 Zr4_4 3.276225 1_555
Zr1_0 Zr4_0 3.276225 1_555
Zr1_0 Zr4_4 3.276225 1_455
Zr1_0 Zr5_4 3.276225 1_455
Zr1_0 Zr5_0 3.276225 1_555
Zr1_0 Zr3_0 3.276225 1_555
Zr1_0 Zr2_4 3.276225 1_455
Zr1_0 Zr2_0 3.276225 1_555
Zr1_0 Zr3_4 3.276225 1_455
Zr1_0 Zr1_4 3.704198 1_555
Zr1_0 Zr1_4 3.704198 1_455
Zr1_1 Zr5_5 3.276225 1_455
Zr1_1 Zr5_1 3.276225 1_555
Zr1_1 Zr4_1 3.276225 1_555
Zr1_1 Zr4_5 3.276225 1_455
Zr1_1 Zr3_1 3.276225 1_555
Zr1_1 Zr3_5 3.276225 1_455
Zr1_1 Zr2_1 3.276225 1_555
Zr1_1 Zr2_5 3.276225 1_455
Zr1_1 Zr1_5 3.704198 1_555
Zr1_1 Zr1_5 3.704198 1_455
Zr1_2 Zr4_6 3.276225 1_455
Zr1_2 Zr4_2 3.276225 1_555
Zr1_2 Zr5_6 3.276225 1_455
Zr1_2 Zr5_2 3.276225 1_555
Zr1_2 Zr2_6 3.276225 1_455
Zr1_2 Zr2_2 3.276225 1_555
Zr1_2 Zr3_6 3.276225 1_455
Zr1_2 Zr3_2 3.276225 1_555
Zr1_2 Zr1_6 3.704198 1_555
Zr1_2 Zr1_6 3.704198 1_455
Zr1_3 Zr5_3 3.276225 1_555
Zr1_3 Zr5_7 3.276225 1_455
Zr1_3 Zr4_3 3.276225 1_555
Zr1_3 Zr4_7 3.276225 1_455
Zr1_3 Zr3_3 3.276225 1_555
Zr1_3 Zr3_7 3.276225 1_455
Zr1_3 Zr2_3 3.276225 1_555
Zr1_3 Zr2_7 3.276225 1_455
Zr1_3 Zr1_7 3.704198 1_555
Zr1_3 Zr1_7 3.704198 1_455
Zr1_4 Zr4_0 3.276225 1_555
Zr1_4 Zr4_4 3.276225 1_555
Zr1_4 Zr5_4 3.276225 1_555
Zr1_4 Zr5_0 3.276225 1_555
Zr1_4 Zr3_0 3.276225 1_555
Zr1_4 Zr2_0 3.276225 1_555
Zr1_4 Zr2_4 3.276225 1_555
Zr1_4 Zr3_4 3.276225 1_555
Zr1_5 Zr5_1 3.276225 1_555
Zr1_5 Zr5_5 3.276225 1_555
Zr1_5 Zr4_1 3.276225 1_555
Zr1_5 Zr4_5 3.276225 1_555
Zr1_5 Zr3_1 3.276225 1_555
Zr1_5 Zr3_5 3.276225 1_555
Zr1_5 Zr2_1 3.276225 1_555
Zr1_5 Zr2_5 3.276225 1_555
Zr1_6 Zr4_2 3.276225 1_555
Zr1_6 Zr4_6 3.276225 1_555
Zr1_6 Zr5_2 3.276225 1_555
Zr1_6 Zr5_6 3.276225 1_555
Zr1_6 Zr2_2 3.276225 1_555
Zr1_6 Zr2_6 3.276225 1_555
Zr1_6 Zr3_2 3.276225 1_555
Zr1_6 Zr3_6 3.276225 1_555
Zr1_7 Zr5_3 3.276225 1_555
Zr1_7 Zr5_7 3.276225 1_555
Zr1_7 Zr4_3 3.276225 1_555
Zr1_7 Zr4_7 3.276225 1_555
Zr1_7 Zr3_3 3.276225 1_555
Zr1_7 Zr3_7 3.276225 1_555
Zr1_7 Zr2_7 3.276225 1_555
Zr1_7 Zr2_3 3.276225 1_555
Ga0_0 Ga3_1 2.551917 1_555
Ga0_0 Zr2_0 2.784166 1_555
Ga0_0 Zr2_4 2.784166 1_455
Ga0_0 Zr3_1 2.900147 1_555
Ga0_0 Zr3_5 2.900147 1_455
Ga0_0 Zr4_4 2.900147 1_455
Ga0_0 Zr4_0 2.900147 1_555
Ga0_0 Zr1_0 2.908120 1_555
Ga0_0 Zr0_1 2.908120 1_555
Ga0_1 Ga3_0 2.551917 1_556
Ga0_1 Zr2_1 2.784166 1_555
Ga0_1 Zr2_5 2.784166 1_455
Ga0_1 Zr3_4 2.900147 1_456
Ga0_1 Zr3_0 2.900147 1_556
Ga0_1 Zr4_1 2.900147 1_555
Ga0_1 Zr4_5 2.900147 1_455
Ga0_1 Zr0_0 2.908120 1_556
Ga0_1 Zr1_1 2.908120 1_555
Ga0_2 Ga3_3 2.551917 1_555
Ga0_2 Zr2_6 2.784166 1_455
Ga0_2 Zr2_2 2.784166 1_555
Ga0_2 Zr3_7 2.900147 1_455
Ga0_2 Zr3_3 2.900147 1_555
Ga0_2 Zr4_2 2.900147 1_555
Ga0_2 Zr4_6 2.900147 1_455
Ga0_2 Zr1_2 2.908120 1_555
Ga0_2 Zr0_3 2.908120 1_555
Ga0_3 Ga3_2 2.551917 1_556
Ga0_3 Zr2_3 2.784166 1_555
Ga0_3 Zr2_7 2.784166 1_455
Ga0_3 Zr3_2 2.900147 1_556
Ga0_3 Zr3_6 2.900147 1_456
Ga0_3 Zr4_7 2.900147 1_455
Ga0_3 Zr4_3 2.900147 1_555
Ga0_3 Zr1_3 2.908120 1_555
Ga0_3 Zr0_2 2.908120 1_556
Ga0_4 Ga3_5 2.551917 1_555
Ga0_4 Zr2_0 2.784166 1_555
Ga0_4 Zr2_4 2.784166 1_555
Ga0_4 Zr3_1 2.900147 1_555
Ga0_4 Zr3_5 2.900147 1_555
Ga0_4 Zr4_0 2.900147 1_555
Ga0_4 Zr4_4 2.900147 1_555
Ga0_4 Zr1_4 2.908120 1_555
Ga0_4 Zr0_5 2.908120 1_555
Ga0_5 Ga3_4 2.551917 1_556
Ga0_5 Zr2_1 2.784166 1_555
Ga0_5 Zr2_5 2.784166 1_555
Ga0_5 Zr3_4 2.900147 1_556
Ga0_5 Zr3_0 2.900147 1_556
Ga0_5 Zr4_1 2.900147 1_555
Ga0_5 Zr4_5 2.900147 1_555
Ga0_5 Zr0_4 2.908120 1_556
Ga0_5 Zr1_5 2.908120 1_555
Ga0_6 Ga3_7 2.551917 1_555
Ga0_6 Zr2_2 2.784166 1_555
Ga0_6 Zr2_6 2.784166 1_555
Ga0_6 Zr3_3 2.900147 1_555
Ga0_6 Zr3_7 2.900147 1_555
Ga0_6 Zr4_2 2.900147 1_555
Ga0_6 Zr4_6 2.900147 1_555
Ga0_6 Zr1_6 2.908120 1_555
Ga0_6 Zr0_7 2.908120 1_555
Ga0_7 Ga3_6 2.551917 1_556
Ga0_7 Zr2_3 2.784166 1_555
Ga0_7 Zr2_7 2.784166 1_555
Ga0_7 Zr3_6 2.900147 1_556
Ga0_7 Zr3_2 2.900147 1_556
Ga0_7 Zr4_3 2.900147 1_555
Ga0_7 Zr4_7 2.900147 1_555
Ga0_7 Zr1_7 2.908120 1_555
Ga0_7 Zr0_6 2.908120 1_556
Ga1_0 Ga2_2 2.551917 1_545
Ga1_0 Zr3_0 2.784166 1_555
Ga1_0 Zr3_4 2.784166 1_455
Ga1_0 Zr2_4 2.900147 1_455
Ga1_0 Zr2_0 2.900147 1_555
Ga1_0 Zr5_2 2.900147 1_545
Ga1_0 Zr5_6 2.900147 1_445
Ga1_0 Zr1_0 2.908120 1_555
Ga1_0 Zr0_0 2.908120 1_555
Ga1_1 Ga2_3 2.551917 1_545
Ga1_1 Zr3_5 2.784166 1_455
Ga1_1 Zr3_1 2.784166 1_555
Ga1_1 Zr2_1 2.900147 1_555
Ga1_1 Zr2_5 2.900147 1_455
Ga1_1 Zr5_3 2.900147 1_545
Ga1_1 Zr5_7 2.900147 1_445
Ga1_1 Zr1_1 2.908120 1_555
Ga1_1 Zr0_1 2.908120 1_555
Ga1_2 Ga2_0 2.551917 1_555
Ga1_2 Zr3_6 2.784166 1_455
Ga1_2 Zr3_2 2.784166 1_555
Ga1_2 Zr2_2 2.900147 1_555
Ga1_2 Zr2_6 2.900147 1_455
Ga1_2 Zr5_0 2.900147 1_555
Ga1_2 Zr5_4 2.900147 1_455
Ga1_2 Zr1_2 2.908120 1_555
Ga1_2 Zr0_2 2.908120 1_555
Ga1_3 Ga2_1 2.551917 1_555
Ga1_3 Zr3_3 2.784166 1_555
Ga1_3 Zr3_7 2.784166 1_455
Ga1_3 Zr2_3 2.900147 1_555
Ga1_3 Zr2_7 2.900147 1_455
Ga1_3 Zr5_5 2.900147 1_455
Ga1_3 Zr5_1 2.900147 1_555
Ga1_3 Zr1_3 2.908120 1_555
Ga1_3 Zr0_3 2.908120 1_555
Ga1_4 Ga2_6 2.551917 1_545
Ga1_4 Zr3_0 2.784166 1_555
Ga1_4 Zr3_4 2.784166 1_555
Ga1_4 Zr2_0 2.900147 1_555
Ga1_4 Zr2_4 2.900147 1_555
Ga1_4 Zr5_2 2.900147 1_545
Ga1_4 Zr5_6 2.900147 1_545
Ga1_4 Zr1_4 2.908120 1_555
Ga1_4 Zr0_4 2.908120 1_555
Ga1_5 Ga2_7 2.551917 1_545
Ga1_5 Zr3_1 2.784166 1_555
Ga1_5 Zr3_5 2.784166 1_555
Ga1_5 Zr2_1 2.900147 1_555
Ga1_5 Zr2_5 2.900147 1_555
Ga1_5 Zr5_3 2.900147 1_545
Ga1_5 Zr5_7 2.900147 1_545
Ga1_5 Zr1_5 2.908120 1_555
Ga1_5 Zr0_5 2.908120 1_555
Ga1_6 Ga2_4 2.551917 1_555
Ga1_6 Zr3_2 2.784166 1_555
Ga1_6 Zr3_6 2.784166 1_555
Ga1_6 Zr2_2 2.900147 1_555
Ga1_6 Zr2_6 2.900147 1_555
Ga1_6 Zr5_0 2.900147 1_555
Ga1_6 Zr5_4 2.900147 1_555
Ga1_6 Zr1_6 2.908120 1_555
Ga1_6 Zr0_6 2.908120 1_555
Ga1_7 Ga2_5 2.551917 1_555
Ga1_7 Zr3_3 2.784166 1_555
Ga1_7 Zr3_7 2.784166 1_555
Ga1_7 Zr2_3 2.900147 1_555
Ga1_7 Zr2_7 2.900147 1_555
Ga1_7 Zr5_1 2.900147 1_555
Ga1_7 Zr5_5 2.900147 1_555
Ga1_7 Zr1_7 2.908120 1_555
Ga1_7 Zr0_7 2.908120 1_555
Ga2_0 Zr4_0 2.784166 1_555
Ga2_0 Zr4_4 2.784166 1_455
Ga2_0 Zr2_2 2.900147 1_555
Ga2_0 Zr2_6 2.900147 1_455
Ga2_0 Zr5_0 2.900147 1_555
Ga2_0 Zr5_4 2.900147 1_455
Ga2_0 Zr1_0 2.908120 1_555
Ga2_0 Zr0_3 2.908120 1_555
Ga2_1 Zr4_1 2.784166 1_555
Ga2_1 Zr4_5 2.784166 1_455
Ga2_1 Zr2_3 2.900147 1_555
Ga2_1 Zr2_7 2.900147 1_455
Ga2_1 Zr5_1 2.900147 1_555
Ga2_1 Zr5_5 2.900147 1_455
Ga2_1 Zr0_2 2.908120 1_556
Ga2_1 Zr1_1 2.908120 1_555
Ga2_2 Zr4_2 2.784166 1_555
Ga2_2 Zr4_6 2.784166 1_455
Ga2_2 Zr2_0 2.900147 1_565
Ga2_2 Zr2_4 2.900147 1_465
Ga2_2 Zr5_2 2.900147 1_555
Ga2_2 Zr5_6 2.900147 1_455
Ga2_2 Zr0_1 2.908120 1_565
Ga2_2 Zr1_2 2.908120 1_555
Ga2_3 Zr4_3 2.784166 1_555
Ga2_3 Zr4_7 2.784166 1_455
Ga2_3 Zr2_5 2.900147 1_465
Ga2_3 Zr2_1 2.900147 1_565
Ga2_3 Zr5_3 2.900147 1_555
Ga2_3 Zr5_7 2.900147 1_455
Ga2_3 Zr0_0 2.908120 1_566
Ga2_3 Zr1_3 2.908120 1_555
Ga2_4 Zr4_0 2.784166 1_555
Ga2_4 Zr4_4 2.784166 1_555
Ga2_4 Zr2_2 2.900147 1_555
Ga2_4 Zr2_6 2.900147 1_555
Ga2_4 Zr5_0 2.900147 1_555
Ga2_4 Zr5_4 2.900147 1_555
Ga2_4 Zr1_4 2.908120 1_555
Ga2_4 Zr0_7 2.908120 1_555
Ga2_5 Zr4_1 2.784166 1_555
Ga2_5 Zr4_5 2.784166 1_555
Ga2_5 Zr2_3 2.900147 1_555
Ga2_5 Zr2_7 2.900147 1_555
Ga2_5 Zr5_1 2.900147 1_555
Ga2_5 Zr5_5 2.900147 1_555
Ga2_5 Zr0_6 2.908120 1_556
Ga2_5 Zr1_5 2.908120 1_555
Ga2_6 Zr4_2 2.784166 1_555
Ga2_6 Zr4_6 2.784166 1_555
Ga2_6 Zr2_0 2.900147 1_565
Ga2_6 Zr2_4 2.900147 1_565
Ga2_6 Zr5_2 2.900147 1_555
Ga2_6 Zr5_6 2.900147 1_555
Ga2_6 Zr0_5 2.908120 1_565
Ga2_6 Zr1_6 2.908120 1_555
Ga2_7 Zr4_3 2.784166 1_555
Ga2_7 Zr4_7 2.784166 1_555
Ga2_7 Zr2_5 2.900147 1_565
Ga2_7 Zr2_1 2.900147 1_565
Ga2_7 Zr5_3 2.900147 1_555
Ga2_7 Zr5_7 2.900147 1_555
Ga2_7 Zr0_4 2.908120 1_566
Ga2_7 Zr1_7 2.908120 1_555
Ga3_0 Zr5_0 2.784166 1_555
Ga3_0 Zr5_4 2.784166 1_455
Ga3_0 Zr3_4 2.900147 1_455
Ga3_0 Zr3_0 2.900147 1_555
Ga3_0 Zr4_1 2.900147 1_554
Ga3_0 Zr4_5 2.900147 1_454
Ga3_0 Zr1_0 2.908120 1_555
Ga3_0 Zr0_2 2.908120 1_555
Ga3_1 Zr5_1 2.784166 1_555
Ga3_1 Zr5_5 2.784166 1_455
Ga3_1 Zr3_5 2.900147 1_455
Ga3_1 Zr3_1 2.900147 1_555
Ga3_1 Zr4_0 2.900147 1_555
Ga3_1 Zr4_4 2.900147 1_455
Ga3_1 Zr1_1 2.908120 1_555
Ga3_1 Zr0_3 2.908120 1_555
Ga3_2 Zr5_2 2.784166 1_555
Ga3_2 Zr5_6 2.784166 1_455
Ga3_2 Zr3_2 2.900147 1_555
Ga3_2 Zr3_6 2.900147 1_455
Ga3_2 Zr4_3 2.900147 1_554
Ga3_2 Zr4_7 2.900147 1_454
Ga3_2 Zr0_0 2.908120 1_565
Ga3_2 Zr1_2 2.908120 1_555
Ga3_3 Zr5_3 2.784166 1_555
Ga3_3 Zr5_7 2.784166 1_455
Ga3_3 Zr3_7 2.900147 1_455
Ga3_3 Zr3_3 2.900147 1_555
Ga3_3 Zr4_2 2.900147 1_555
Ga3_3 Zr4_6 2.900147 1_455
Ga3_3 Zr0_1 2.908120 1_565
Ga3_3 Zr1_3 2.908120 1_555
Ga3_4 Zr5_0 2.784166 1_555
Ga3_4 Zr5_4 2.784166 1_555
Ga3_4 Zr3_0 2.900147 1_555
Ga3_4 Zr3_4 2.900147 1_555
Ga3_4 Zr4_1 2.900147 1_554
Ga3_4 Zr4_5 2.900147 1_554
Ga3_4 Zr1_4 2.908120 1_555
Ga3_4 Zr0_6 2.908120 1_555
Ga3_5 Zr5_1 2.784166 1_555
Ga3_5 Zr5_5 2.784166 1_555
Ga3_5 Zr3_1 2.900147 1_555
Ga3_5 Zr3_5 2.900147 1_555
Ga3_5 Zr4_0 2.900147 1_555
Ga3_5 Zr4_4 2.900147 1_555
Ga3_5 Zr1_5 2.908120 1_555
Ga3_5 Zr0_7 2.908120 1_555
Ga3_6 Zr5_2 2.784166 1_555
Ga3_6 Zr5_6 2.784166 1_555
Ga3_6 Zr3_2 2.900147 1_555
Ga3_6 Zr3_6 2.900147 1_555
Ga3_6 Zr4_3 2.900147 1_554
Ga3_6 Zr4_7 2.900147 1_554
Ga3_6 Zr0_4 2.908120 1_565
Ga3_6 Zr1_6 2.908120 1_555
Ga3_7 Zr5_3 2.784166 1_555
Ga3_7 Zr5_7 2.784166 1_555
Ga3_7 Zr3_3 2.900147 1_555
Ga3_7 Zr3_7 2.900147 1_555
Ga3_7 Zr4_2 2.900147 1_555
Ga3_7 Zr4_6 2.900147 1_555
Ga3_7 Zr0_5 2.908120 1_565
Ga3_7 Zr1_7 2.908120 1_555
