# generated using pymatgen
data_Hf8Sc6Ga8Ir7
_symmetry_space_group_name_H-M   'P 1'
_cell_length_a   9.05355008
_cell_length_b   9.05354980
_cell_length_c   9.05354983
_cell_angle_alpha   59.99999632
_cell_angle_beta   59.99999735
_cell_angle_gamma   59.99999720
_symmetry_Int_Tables_number   1
_chemical_formula_structural   Hf8Sc6Ga8Ir7
_chemical_formula_sum   'Hf8 Sc6 Ga8 Ir7'
_cell_volume   524.73698009
_cell_formula_units_Z   1
loop_
 _symmetry_equiv_pos_site_id
 _symmetry_equiv_pos_as_xyz
  1  'x, y, z'
loop_
 _atom_site_type_symbol
 _atom_site_label
 _atom_site_symmetry_multiplicity
 _atom_site_fract_x
 _atom_site_fract_y
 _atom_site_fract_z
 _atom_site_occupancy
  Hf  Hf0  1  0.87422724  0.87422724  0.37731927  1
  Hf  Hf1  1  0.87422724  0.37731927  0.87422724  1
  Hf  Hf2  1  0.37731927  0.87422724  0.87422724  1
  Hf  Hf3  1  0.87422724  0.87422724  0.87422724  1
  Hf  Hf4  1  0.12577276  0.12577276  0.62268073  1
  Hf  Hf5  1  0.12577276  0.62268073  0.12577276  1
  Hf  Hf6  1  0.62268073  0.12577276  0.12577276  1
  Hf  Hf7  1  0.12577276  0.12577276  0.12577276  1
  Sc  Sc0  1  0.68827632  0.68827632  0.31172368  1
  Sc  Sc1  1  0.31172368  0.68827632  0.31172368  1
  Sc  Sc2  1  0.68827632  0.31172368  0.31172368  1
  Sc  Sc3  1  0.31172368  0.31172368  0.68827632  1
  Sc  Sc4  1  0.68827632  0.31172368  0.68827632  1
  Sc  Sc5  1  0.31172368  0.68827632  0.68827632  1
  Ga  Ga0  1  0.65363156  0.65363156  0.03910631  1
  Ga  Ga1  1  0.65363156  0.03910631  0.65363156  1
  Ga  Ga2  1  0.03910631  0.65363156  0.65363156  1
  Ga  Ga3  1  0.65363156  0.65363156  0.65363156  1
  Ga  Ga4  1  0.34636844  0.34636844  0.96089369  1
  Ga  Ga5  1  0.34636844  0.96089369  0.34636844  1
  Ga  Ga6  1  0.96089369  0.34636844  0.34636844  1
  Ga  Ga7  1  0.34636844  0.34636844  0.34636844  1
  Ir  Ir0  1  0.00000000  0.00000000  0.00000000  1
  Ir  Ir1  1  0.00000000  0.00000000  0.50000000  1
  Ir  Ir2  1  0.50000000  0.00000000  0.50000000  1
  Ir  Ir3  1  0.00000000  0.50000000  0.50000000  1
  Ir  Ir4  1  0.50000000  0.50000000  0.00000000  1
  Ir  Ir5  1  0.00000000  0.50000000  0.00000000  1
  Ir  Ir6  1  0.50000000  0.00000000  0.00000000  1
loop_
_geom_bond_atom_site_label_1
_geom_bond_atom_site_label_2
_geom_bond_distance
_geom_bond_site_symmetry_2
Hf0 Ir1 2.766400 1_665
Hf0 Ir3 2.766407 1_655
Hf0 Ir2 2.766407 1_565
Hf0 Ir0 2.789217 1_665
Hf1 Ir5 2.766400 1_656
Hf1 Ir3 2.766407 1_655
Hf1 Ir4 2.766407 1_556
Hf1 Ir0 2.789217 1_656
Hf2 Ir6 2.766400 1_566
Hf2 Ir4 2.766407 1_556
Hf2 Ir2 2.766407 1_565
Hf2 Ir0 2.789217 1_566
Hf3 Ir5 2.766407 1_656
Hf3 Ir1 2.766407 1_665
Hf3 Ir6 2.766407 1_566
Hf3 Ir0 2.789209 1_666
Hf4 Ir1 2.766400 1_555
Hf4 Ir3 2.766407 1_555
Hf4 Ir2 2.766407 1_555
Hf4 Ir0 2.789217 1_556
Hf5 Ir5 2.766400 1_555
Hf5 Ir3 2.766407 1_555
Hf5 Ir4 2.766407 1_555
Hf5 Ir0 2.789217 1_565
Hf6 Ir6 2.766400 1_555
Hf6 Ir4 2.766407 1_555
Hf6 Ir2 2.766407 1_555
Hf6 Ir0 2.789217 1_655
Hf7 Ir5 2.766407 1_555
Hf7 Ir1 2.766407 1_555
Hf7 Ir6 2.766407 1_555
Hf7 Ir0 2.789209 1_555
Ga0 Ir6 2.629471 1_565
Ga0 Ir5 2.629471 1_655
Ga0 Ir4 2.629479 1_555
Ga0 Sc0 2.816957 1_555
Ga0 Sc2 2.816962 1_555
Ga0 Sc1 2.816962 1_555
Ga0 Hf1 2.869122 1_554
Ga0 Hf2 2.869122 1_554
Ga0 Hf3 2.869122 1_554
Ga1 Ir6 2.629471 1_556
Ga1 Ir1 2.629471 1_655
Ga1 Ir2 2.629479 1_555
Ga1 Sc4 2.816957 1_555
Ga1 Sc2 2.816962 1_555
Ga1 Sc3 2.816962 1_555
Ga1 Hf0 2.869122 1_545
Ga1 Hf2 2.869122 1_545
Ga1 Hf3 2.869122 1_545
Ga2 Ir1 2.629471 1_565
Ga2 Ir5 2.629471 1_556
Ga2 Ir3 2.629479 1_555
Ga2 Sc5 2.816957 1_555
Ga2 Sc3 2.816962 1_555
Ga2 Sc1 2.816962 1_555
Ga2 Hf1 2.869122 1_455
Ga2 Hf0 2.869122 1_455
Ga2 Hf3 2.869122 1_455
Ga3 Ir2 2.629473 1_565
Ga3 Ir4 2.629473 1_556
Ga3 Ir3 2.629473 1_655
Ga3 Sc4 2.816966 1_555
Ga3 Sc0 2.816966 1_555
Ga3 Sc5 2.816966 1_555
Ga3 Hf1 2.869122 1_555
Ga3 Hf0 2.869122 1_555
Ga3 Hf2 2.869122 1_555
Ga4 Ir6 2.629471 1_556
Ga4 Ir5 2.629471 1_556
Ga4 Ir4 2.629479 1_556
Ga4 Sc3 2.816957 1_555
Ga4 Sc5 2.816962 1_555
Ga4 Sc4 2.816962 1_555
Ga4 Hf5 2.869122 1_556
Ga4 Hf6 2.869122 1_556
Ga4 Hf7 2.869122 1_556
Ga5 Ir6 2.629471 1_565
Ga5 Ir1 2.629471 1_565
Ga5 Ir2 2.629479 1_565
Ga5 Sc1 2.816957 1_555
Ga5 Sc5 2.816962 1_555
Ga5 Sc0 2.816962 1_555
Ga5 Hf4 2.869122 1_565
Ga5 Hf6 2.869122 1_565
Ga5 Hf7 2.869122 1_565
Ga6 Ir1 2.629471 1_655
Ga6 Ir5 2.629471 1_655
Ga6 Ir3 2.629479 1_655
Ga6 Sc2 2.816957 1_555
Ga6 Sc0 2.816962 1_555
Ga6 Sc4 2.816962 1_555
Ga6 Hf5 2.869122 1_655
Ga6 Hf4 2.869122 1_655
Ga6 Hf7 2.869122 1_655
Ga7 Ir2 2.629473 1_555
Ga7 Ir4 2.629473 1_555
Ga7 Ir3 2.629473 1_555
Ga7 Sc1 2.816966 1_555
Ga7 Sc3 2.816966 1_555
Ga7 Sc2 2.816966 1_555
Ga7 Hf5 2.869122 1_555
Ga7 Hf4 2.869122 1_555
Ga7 Hf6 2.869122 1_555
