# generated using pymatgen
data_Sr6Sn8BiCl
_symmetry_space_group_name_H-M   'P 1'
_cell_length_a   8.93621760
_cell_length_b   8.93621728
_cell_length_c   8.93621835
_cell_angle_alpha   120.13681846
_cell_angle_beta   120.13682042
_cell_angle_gamma   89.76318506
_symmetry_Int_Tables_number   1
_chemical_formula_structural   Sr6Sn8BiCl
_chemical_formula_sum   'Sr6 Sn8 Bi1 Cl1'
_cell_volume   503.55063356
_cell_formula_units_Z   1
loop_
 _symmetry_equiv_pos_site_id
 _symmetry_equiv_pos_as_xyz
  1  'x, y, z'
loop_
 _atom_site_type_symbol
 _atom_site_label
 _atom_site_symmetry_multiplicity
 _atom_site_fract_x
 _atom_site_fract_y
 _atom_site_fract_z
 _atom_site_occupancy
  Sr  Sr0  1  0.25997726  0.25997726  0.00000000  1
  Sr  Sr1  1  0.74002274  0.74002274  1.00000000  1
  Sr  Sr2  1  0.16448486  0.66180225  0.82628811  1
  Sr  Sr3  1  0.83551514  0.33819775  0.17371189  1
  Sr  Sr4  1  0.66180225  0.83551514  0.49731638  1
  Sr  Sr5  1  0.33819775  0.16448486  0.50268362  1
  Sn  Sn0  1  0.83297040  0.33090755  0.78476441  1
  Sn  Sn1  1  0.16702960  0.66909245  0.21523559  1
  Sn  Sn2  1  0.54614314  0.04820599  0.21523559  1
  Sn  Sn3  1  0.33090755  0.54614314  0.49793715  1
  Sn  Sn4  1  0.95179401  0.16702960  0.49793715  1
  Sn  Sn5  1  0.45385686  0.95179401  0.78476441  1
  Sn  Sn6  1  0.66909245  0.45385686  0.50206285  1
  Sn  Sn7  1  0.04820599  0.83297040  0.50206285  1
  Bi  Bi0  1  0.00000000  0.00000000  0.00000000  1
  Cl  Cl0  1  0.50000000  0.50000000  0.00000000  1
loop_
_geom_bond_atom_site_label_1
_geom_bond_atom_site_label_2
_geom_bond_distance
_geom_bond_site_symmetry_2
Sn0 Sn6 2.965259 1_555
Sn0 Sn4 2.965259 1_555
Sn0 Sn1 3.116500 1_656
Sn0 Sr3 3.432006 1_556
Sn0 Sr1 3.503348 1_555
Sn0 Sr0 3.535004 1_656
Sn0 Sr5 3.635024 1_555
Sn0 Sr4 3.637008 1_545
Sn0 Sr2 3.940100 1_655
Sn1 Sn3 2.965259 1_555
Sn1 Sn7 2.965259 1_555
Sn1 Sr2 3.432006 1_554
Sn1 Sr0 3.503348 1_555
Sn1 Sr1 3.535004 1_454
Sn1 Sr4 3.635024 1_555
Sn1 Sr5 3.637008 1_565
Sn1 Sr3 3.940100 1_455
Sn2 Sn6 2.965259 1_555
Sn2 Sn4 2.965259 1_555
Sn2 Sn5 3.116501 1_544
Sn2 Sr2 3.432015 1_544
Sn2 Sr1 3.503348 1_544
Sn2 Sr0 3.535004 1_555
Sn2 Sr4 3.635015 1_545
Sn2 Sr5 3.637017 1_555
Sn2 Sr3 3.940112 1_555
Sn3 Sn5 2.965259 1_555
Sn3 Sn6 3.116500 1_555
Sn3 Sr5 3.432019 1_555
Sn3 Sr1 3.503348 1_555
Sn3 Sr0 3.535004 1_555
Sn3 Sr2 3.635031 1_555
Sn3 Sr3 3.637009 1_455
Sn3 Sr4 3.940112 1_555
Sn4 Sn7 3.116500 1_645
Sn4 Sr5 3.432010 1_655
Sn4 Sr0 3.503348 1_656
Sn4 Sr1 3.535004 1_544
Sn4 Sr2 3.635022 1_655
Sn4 Sr3 3.637017 1_555
Sn4 Sr4 3.940099 1_545
Sn5 Sn7 2.965259 1_555
Sn5 Sr3 3.432015 1_566
Sn5 Sr0 3.503348 1_566
Sn5 Sr1 3.535004 1_555
Sn5 Sr5 3.635015 1_565
Sn5 Sr4 3.637017 1_555
Sn5 Sr2 3.940112 1_555
Sn6 Sr4 3.432019 1_555
Sn6 Sr0 3.503348 1_555
Sn6 Sr1 3.535004 1_555
Sn6 Sr3 3.635031 1_555
Sn6 Sr2 3.637009 1_655
Sn6 Sr5 3.940112 1_555
Sn7 Sr4 3.432010 1_455
Sn7 Sr1 3.503348 1_454
Sn7 Sr0 3.535004 1_566
Sn7 Sr3 3.635022 1_455
Sn7 Sr2 3.637017 1_555
Sn7 Sr5 3.940099 1_565
Bi0 Sr0 3.292303 1_555
Bi0 Sr1 3.292303 1_444
Bi0 Sr2 3.353741 1_544
Bi0 Sr3 3.353741 1_455
Bi0 Sr5 3.353749 1_555
Bi0 Sr4 3.353749 1_444
Cl0 Sr1 3.039602 1_554
Cl0 Sr0 3.039602 1_555
Cl0 Sr4 3.321779 1_555
Cl0 Sr5 3.321779 1_554
Cl0 Sr3 3.321782 1_555
Cl0 Sr2 3.321782 1_554
