# generated using pymatgen
data_KBa4(FeP)10
_symmetry_space_group_name_H-M   'P 1'
_cell_length_a   8.63405731
_cell_length_b   8.63405789
_cell_length_c   8.63405757
_cell_angle_alpha   121.40528636
_cell_angle_beta   121.40529206
_cell_angle_gamma   87.58272649
_symmetry_Int_Tables_number   1
_chemical_formula_structural   KBa4(FeP)10
_chemical_formula_sum   'K1 Ba4 Fe10 P10'
_cell_volume   445.02649706
_cell_formula_units_Z   1
loop_
 _symmetry_equiv_pos_site_id
 _symmetry_equiv_pos_as_xyz
  1  'x, y, z'
loop_
 _atom_site_type_symbol
 _atom_site_label
 _atom_site_symmetry_multiplicity
 _atom_site_fract_x
 _atom_site_fract_y
 _atom_site_fract_z
 _atom_site_occupancy
  K  K0  1  0.00000000  0.00000000  0.00000000  1
  Ba  Ba0  1  0.39207709  0.80272294  0.19480204  1
  Ba  Ba1  1  0.80272294  0.60792291  0.41064585  1
  Ba  Ba2  1  0.19727706  0.39207709  0.58935415  1
  Ba  Ba3  1  0.60792291  0.19727706  0.80519796  1
  Fe  Fe0  1  0.94974049  0.64998122  0.10004561  1
  Fe  Fe1  1  0.35001878  0.45006538  0.29975927  1
  Fe  Fe2  1  0.75000000  0.25000000  0.50000000  1
  Fe  Fe3  1  0.15030512  0.05025851  0.70024073  1
  Fe  Fe4  1  0.54993462  0.84969488  0.89995439  1
  Fe  Fe5  1  0.64998122  0.54993462  0.70024073  1
  Fe  Fe6  1  0.05025851  0.35001878  0.89995439  1
  Fe  Fe7  1  0.45006538  0.15030512  0.10004561  1
  Fe  Fe8  1  0.84969488  0.94974149  0.29975927  1
  Fe  Fe9  1  0.25000000  0.75000000  0.50000000  1
  P  P0  1  0.93720982  0.53684999  0.79991623  1
  P  P1  1  0.33723748  0.33723748  0.00000000  1
  P  P2  1  0.73693476  0.13729259  0.20008377  1
  P  P3  1  0.13729259  0.93720982  0.40035983  1
  P  P4  1  0.53684999  0.73693476  0.59964017  1
  P  P5  1  0.66276252  0.66276252  1.00000000  1
  P  P6  1  0.06279018  0.46315001  0.20008377  1
  P  P7  1  0.46315001  0.26306524  0.40035983  1
  P  P8  1  0.86270741  0.06279018  0.59964017  1
  P  P9  1  0.26306524  0.86270741  0.79991623  1
loop_
_geom_bond_atom_site_label_1
_geom_bond_atom_site_label_2
_geom_bond_distance
_geom_bond_site_symmetry_2
K0 P9 3.358037 1_544
K0 P2 3.358037 1_455
K0 P7 3.358044 1_555
K0 P4 3.358044 1_444
K0 P6 3.358046 1_555
K0 P0 3.358046 1_444
K0 P3 3.358047 1_545
K0 P8 3.358047 1_454
Ba0 P0 3.311641 1_454
Ba0 P9 3.311660 1_554
Ba0 P7 3.323120 1_565
Ba0 P3 3.323120 1_555
Ba0 P1 3.389897 1_555
Ba0 P5 3.389911 1_554
Ba0 P4 3.399814 1_555
Ba0 P8 3.399841 1_565
Ba1 P8 3.311640 1_565
Ba1 P4 3.311641 1_555
Ba1 P9 3.323120 1_655
Ba1 P0 3.323124 1_555
Ba1 P1 3.389900 1_555
Ba1 P5 3.389900 1_554
Ba1 P6 3.399836 1_655
Ba1 P2 3.399845 1_555
Ba2 P3 3.311640 1_545
Ba2 P7 3.311641 1_555
Ba2 P2 3.323120 1_455
Ba2 P6 3.323124 1_555
Ba2 P5 3.389900 1_555
Ba2 P1 3.389900 1_556
Ba2 P0 3.399836 1_455
Ba2 P9 3.399845 1_555
Ba3 P6 3.311641 1_656
Ba3 P2 3.311660 1_556
Ba3 P4 3.323120 1_545
Ba3 P8 3.323120 1_555
Ba3 P5 3.389897 1_555
Ba3 P1 3.389911 1_556
Ba3 P7 3.399814 1_555
Ba3 P3 3.399841 1_545
Fe0 P6 2.177502 1_655
Fe0 P5 2.177944 1_554
Fe0 P3 2.181048 1_655
Fe0 P0 2.181657 1_554
Fe1 P4 2.177502 1_555
Fe1 P1 2.177943 1_555
Fe1 P6 2.181048 1_555
Fe1 P7 2.181673 1_555
Fe2 P7 2.178027 1_555
Fe2 P0 2.178029 1_555
Fe2 P8 2.178031 1_555
Fe2 P2 2.178032 1_555
Fe3 P3 2.177498 1_545
Fe3 P1 2.177949 1_556
Fe3 P9 2.181032 1_545
Fe3 P8 2.181651 1_455
Fe4 P9 2.177503 1_555
Fe4 P5 2.177946 1_555
Fe4 P4 2.181056 1_555
Fe4 P2 2.181656 1_566
Fe5 P7 2.177502 1_555
Fe5 P5 2.177943 1_555
Fe5 P0 2.181048 1_555
Fe5 P4 2.181673 1_555
Fe6 P0 2.177500 1_455
Fe6 P1 2.177952 1_556
Fe6 P8 2.181047 1_455
Fe6 P6 2.181653 1_556
Fe7 P2 2.177503 1_555
Fe7 P1 2.177946 1_555
Fe7 P7 2.181056 1_555
Fe7 P9 2.181656 1_544
Fe8 P8 2.177498 1_565
Fe8 P5 2.177949 1_554
Fe8 P2 2.181032 1_565
Fe8 P3 2.181651 1_655
Fe9 P4 2.178027 1_555
Fe9 P6 2.178029 1_555
Fe9 P3 2.178031 1_555
Fe9 P9 2.178032 1_555
