# generated using pymatgen
data_Zr2AlInPt2
_symmetry_space_group_name_H-M   'P 1'
_cell_length_a   7.31307209
_cell_length_b   7.31307232
_cell_length_c   7.20934438
_cell_angle_alpha   90.00000000
_cell_angle_beta   90.00000000
_cell_angle_gamma   119.99999895
_symmetry_Int_Tables_number   1
_chemical_formula_structural   Zr2AlInPt2
_chemical_formula_sum   'Zr6 Al3 In3 Pt6'
_cell_volume   333.90746650
_cell_formula_units_Z   3
loop_
 _symmetry_equiv_pos_site_id
 _symmetry_equiv_pos_as_xyz
  1  'x, y, z'
loop_
 _atom_site_type_symbol
 _atom_site_label
 _atom_site_symmetry_multiplicity
 _atom_site_fract_x
 _atom_site_fract_y
 _atom_site_fract_z
 _atom_site_occupancy
  Zr  Zr0  1  0.38942474  0.41205603  0.74621317  1
  Zr  Zr1  1  0.02263329  0.61057526  0.74621317  1
  Zr  Zr2  1  0.58794397  0.97736671  0.74621317  1
  Zr  Zr3  1  0.61057526  0.02263329  0.25378683  1
  Zr  Zr4  1  0.97736671  0.58794397  0.25378683  1
  Zr  Zr5  1  0.41205603  0.38942474  0.25378683  1
  Al  Al0  1  0.72059251  0.72059251  0.50000000  1
  Al  Al1  1  0.27940749  0.00000000  0.50000000  1
  Al  Al2  1  0.00000000  0.27940749  0.50000000  1
  In  In0  1  0.25481599  0.00000000  0.00000000  1
  In  In1  1  0.74518401  0.74518401  0.00000000  1
  In  In2  1  0.00000000  0.25481599  0.00000000  1
  Pt  Pt0  1  0.66666700  0.33333300  0.96082684  1
  Pt  Pt1  1  0.00000000  0.00000000  0.70930657  1
  Pt  Pt2  1  0.66666700  0.33333300  0.53287041  1
  Pt  Pt3  1  0.33333300  0.66666700  0.46712959  1
  Pt  Pt4  1  0.33333300  0.66666700  0.03917316  1
  Pt  Pt5  1  0.00000000  0.00000000  0.29069343  1
loop_
_geom_bond_atom_site_label_1
_geom_bond_atom_site_label_2
_geom_bond_distance
_geom_bond_site_symmetry_2
Al0 Pt1 2.540109 1_665
Al0 Pt5 2.540109 1_665
Al0 Pt3 2.667465 1_555
Al0 Pt2 2.667465 1_555
Al0 Zr0 2.939846 1_555
Al0 Zr5 2.939846 1_555
Al0 Zr4 3.072385 1_555
Al0 Zr2 3.072385 1_555
Al0 Zr1 3.233301 1_655
Al0 Zr3 3.233301 1_565
Al1 Pt1 2.540109 1_555
Al1 Pt5 2.540109 1_555
Al1 Pt3 2.667458 1_545
Al1 Pt2 2.667462 1_555
Al1 Zr3 2.939840 1_555
Al1 Zr2 2.939852 1_545
Al1 Zr1 3.072394 1_545
Al1 Zr5 3.072396 1_555
Al1 Zr0 3.233289 1_555
Al1 Zr4 3.233292 1_445
Al2 Pt1 2.540109 1_555
Al2 Pt5 2.540109 1_555
Al2 Pt2 2.667458 1_455
Al2 Pt3 2.667462 1_555
Al2 Zr1 2.939840 1_555
Al2 Zr4 2.939852 1_455
Al2 Zr3 3.072394 1_455
Al2 Zr0 3.072396 1_555
Al2 Zr5 3.233289 1_555
Al2 Zr2 3.233292 1_445
In0 Pt4 2.784153 1_545
In0 Pt0 2.784158 1_554
In0 Pt5 2.804386 1_555
In0 Pt1 2.804386 1_554
In0 Zr1 3.083103 1_544
In0 Zr5 3.083104 1_555
In0 Zr3 3.116592 1_555
In0 Zr2 3.116604 1_544
In0 In2 3.227655 1_555
In0 In1 3.227655 1_445
In0 Zr0 3.229671 1_554
In0 Zr4 3.229674 1_445
In1 Pt4 2.784160 1_555
In1 Pt0 2.784161 1_554
In1 Pt5 2.804386 1_665
In1 Pt1 2.804386 1_664
In1 Zr4 3.083093 1_555
In1 Zr2 3.083093 1_554
In1 Zr0 3.116597 1_554
In1 Zr5 3.116597 1_555
In1 In2 3.227655 1_665
In1 Zr1 3.229683 1_654
In1 Zr3 3.229683 1_565
In2 Pt0 2.784153 1_454
In2 Pt4 2.784158 1_555
In2 Pt5 2.804386 1_555
In2 Pt1 2.804386 1_554
In2 Zr3 3.083103 1_455
In2 Zr0 3.083104 1_554
In2 Zr1 3.116592 1_554
In2 Zr4 3.116604 1_455
In2 Zr5 3.229671 1_555
In2 Zr2 3.229674 1_444
Pt0 Zr0 2.829012 1_555
Pt0 Zr1 2.829016 1_655
Pt0 Zr2 2.829018 1_545
Pt0 Zr3 2.976529 1_556
Pt0 Zr4 2.976534 1_556
Pt0 Zr5 2.976544 1_556
Pt0 Pt2 3.085285 1_555
Pt1 Zr2 2.946179 1_445
Pt1 Zr0 2.946186 1_555
Pt1 Zr1 2.946193 1_545
Pt2 Zr0 2.824011 1_555
Pt2 Zr1 2.824016 1_655
Pt2 Zr2 2.824017 1_545
Pt2 Zr3 2.906399 1_555
Pt2 Zr4 2.906404 1_555
Pt2 Zr5 2.906414 1_555
Pt3 Zr5 2.824011 1_555
Pt3 Zr3 2.824016 1_565
Pt3 Zr4 2.824017 1_455
Pt3 Zr1 2.906399 1_555
Pt3 Zr2 2.906404 1_555
Pt3 Zr0 2.906414 1_555
Pt3 Pt4 3.085285 1_555
Pt4 Zr5 2.829012 1_555
Pt4 Zr3 2.829016 1_565
Pt4 Zr4 2.829018 1_455
Pt4 Zr1 2.976529 1_554
Pt4 Zr2 2.976534 1_554
Pt4 Zr0 2.976544 1_554
Pt5 Zr4 2.946179 1_445
Pt5 Zr5 2.946185 1_555
Pt5 Zr3 2.946193 1_455
