# generated using pymatgen
data_Cs2Hg(GeO3)2
_symmetry_space_group_name_H-M   'P 1'
_cell_length_a   6.36614591
_cell_length_b   6.36614620
_cell_length_c   11.25656771
_cell_angle_alpha   90.00000000
_cell_angle_beta   90.00000000
_cell_angle_gamma   66.46164899
_symmetry_Int_Tables_number   1
_chemical_formula_structural   Cs2Hg(GeO3)2
_chemical_formula_sum   'Cs4 Hg2 Ge4 O12'
_cell_volume   418.24471008
_cell_formula_units_Z   2
loop_
 _symmetry_equiv_pos_site_id
 _symmetry_equiv_pos_as_xyz
  1  'x, y, z'
loop_
 _atom_site_type_symbol
 _atom_site_label
 _atom_site_symmetry_multiplicity
 _atom_site_fract_x
 _atom_site_fract_y
 _atom_site_fract_z
 _atom_site_occupancy
  Cs  Cs0  1  0.55901088  0.78338894  0.17336471  1
  Cs  Cs1  1  0.21661106  0.44098812  0.32663529  1
  Cs  Cs2  1  0.44098812  0.21661106  0.67336471  1
  Cs  Cs3  1  0.78338894  0.55901088  0.82663529  1
  Hg  Hg0  1  0.31512629  0.31512629  0.00000000  1
  Hg  Hg1  1  0.68487471  0.68487471  0.50000000  1
  Ge  Ge0  1  0.87337786  0.15924878  0.11455942  1
  Ge  Ge1  1  0.84075022  0.12662114  0.38544158  1
  Ge  Ge2  1  0.12662114  0.84075022  0.61455742  1
  Ge  Ge3  1  0.15924878  0.87337786  0.88544258  1
  O  O0  1  0.94703510  0.94703510  0.00000000  1
  O  O1  1  0.97177240  0.37158916  0.08567004  1
  O  O2  1  0.57779768  0.26539404  0.13649521  1
  O  O3  1  0.99582981  0.00417019  0.25000000  1
  O  O4  1  0.73460596  0.42220232  0.36350579  1
  O  O5  1  0.62841084  0.02822860  0.41432996  1
  O  O6  1  0.05296690  0.05296690  0.50000000  1
  O  O7  1  0.02822860  0.62841084  0.58566904  1
  O  O8  1  0.42220232  0.73460596  0.63649421  1
  O  O9  1  0.00417019  0.99582981  0.75000100  1
  O  O10  1  0.26539404  0.57779768  0.86350579  1
  O  O11  1  0.37158916  0.97177240  0.91432996  1
loop_
_geom_bond_atom_site_label_1
_geom_bond_atom_site_label_2
_geom_bond_distance
_geom_bond_site_symmetry_2
Cs0 O4 3.010767 1_555
Cs0 O1 3.041336 1_555
Cs0 O2 3.145705 1_565
Cs0 O11 3.197046 1_554
Cs0 O5 3.245315 1_565
Cs0 O2 3.278095 1_555
Cs0 O3 3.398388 1_465
Cs1 O2 3.010759 1_555
Cs1 O5 3.041330 1_555
Cs1 O4 3.145704 1_455
Cs1 O7 3.197036 1_555
Cs1 O1 3.245310 1_455
Cs1 O4 3.278099 1_555
Cs1 O3 3.398393 1_465
Cs2 O10 3.010767 1_555
Cs2 O7 3.041333 1_555
Cs2 O8 3.145704 1_545
Cs2 O5 3.197046 1_555
Cs2 O11 3.245310 1_545
Cs2 O8 3.278099 1_555
Cs2 O9 3.398396 1_645
Cs3 O8 3.010767 1_555
Cs3 O11 3.041336 1_555
Cs3 O10 3.145706 1_655
Cs3 O1 3.197046 1_556
Cs3 O7 3.245325 1_655
Cs3 O10 3.278096 1_555
Cs3 O9 3.398385 1_645
Hg0 O10 2.198713 1_554
Hg0 O2 2.198721 1_555
Hg0 O1 2.282437 1_455
Hg0 O11 2.282437 1_544
Hg1 O8 2.198718 1_555
Hg1 O4 2.198718 1_555
Hg1 O7 2.282430 1_655
Hg1 O5 2.282435 1_565
Ge0 O1 1.732565 1_555
Ge0 O2 1.744362 1_555
Ge0 O0 1.789407 1_545
Ge0 O3 1.814400 1_555
Ge1 O5 1.732548 1_555
Ge1 O4 1.744369 1_555
Ge1 O6 1.789412 1_655
Ge1 O3 1.814411 1_555
Ge2 O7 1.732548 1_555
Ge2 O8 1.744370 1_555
Ge2 O6 1.789404 1_565
Ge2 O9 1.814429 1_555
Ge3 O11 1.732561 1_555
Ge3 O10 1.744364 1_555
Ge3 O0 1.789390 1_456
Ge3 O9 1.814410 1_555
