# generated using pymatgen
data_KHfPS5
_symmetry_space_group_name_H-M   'P 1'
_cell_length_a   9.77339130
_cell_length_b   9.77339153
_cell_length_c   6.44850747
_cell_angle_alpha   82.39135553
_cell_angle_beta   82.39135530
_cell_angle_gamma   44.63377068
_symmetry_Int_Tables_number   1
_chemical_formula_structural   KHfPS5
_chemical_formula_sum   'K2 Hf2 P2 S10'
_cell_volume   428.29845875
_cell_formula_units_Z   2
loop_
 _symmetry_equiv_pos_site_id
 _symmetry_equiv_pos_as_xyz
  1  'x, y, z'
loop_
 _atom_site_type_symbol
 _atom_site_label
 _atom_site_symmetry_multiplicity
 _atom_site_fract_x
 _atom_site_fract_y
 _atom_site_fract_z
 _atom_site_occupancy
  K  K0  1  0.77333300  0.77333300  0.73456161  1
  K  K1  1  0.22666700  0.22666700  0.26543839  1
  Hf  Hf0  1  0.77370699  0.22629301  0.50000000  1
  Hf  Hf1  1  0.22629301  0.77370699  0.50000000  1
  P  P0  1  0.36565805  0.36565805  0.71373892  1
  P  P1  1  0.63434195  0.63434195  0.28626108  1
  S  S0  1  0.81275097  0.36670353  0.16340356  1
  S  S1  1  0.74487953  0.74487953  0.24861611  1
  S  S2  1  0.18724903  0.63329647  0.83659644  1
  S  S3  1  0.41267588  0.41267588  0.39760448  1
  S  S4  1  0.63329647  0.18724903  0.83659644  1
  S  S5  1  0.93574086  0.93574086  0.32512036  1
  S  S6  1  0.06425914  0.06425914  0.67487964  1
  S  S7  1  0.58732412  0.58732412  0.60239552  1
  S  S8  1  0.36670353  0.81275097  0.16340356  1
  S  S9  1  0.25512047  0.25512047  0.75138389  1
loop_
_geom_bond_atom_site_label_1
_geom_bond_atom_site_label_2
_geom_bond_distance
_geom_bond_site_symmetry_2
K0 S1 3.247437 1_555
K0 S1 3.281000 1_556
K0 S2 3.355234 1_655
K0 S4 3.355234 1_565
K0 S7 3.586135 1_555
K0 S5 3.657341 1_555
K0 S9 3.726029 1_565
K0 S9 3.726029 1_655
K1 S9 3.247437 1_555
K1 S9 3.281000 1_554
K1 S0 3.355234 1_455
K1 S8 3.355234 1_545
K1 S3 3.586135 1_555
K1 S6 3.657341 1_555
K1 S1 3.726029 1_545
K1 S1 3.726029 1_455
Hf0 S6 2.412108 1_655
Hf0 S5 2.412108 1_545
Hf0 S4 2.545038 1_555
Hf0 S0 2.545038 1_555
Hf0 S3 2.712047 1_555
Hf0 S7 2.712047 1_555
Hf1 S5 2.412108 1_455
Hf1 S6 2.412108 1_565
Hf1 S8 2.545038 1_555
Hf1 S2 2.545038 1_555
Hf1 S7 2.712047 1_555
Hf1 S3 2.712047 1_555
P0 S9 1.978712 1_555
P0 S4 2.049823 1_555
P0 S2 2.049823 1_555
P0 S3 2.093462 1_555
P1 S1 1.978712 1_555
P1 S8 2.049823 1_555
P1 S0 2.049823 1_555
P1 S7 2.093462 1_555
