# generated using pymatgen
data_Ca10LuReN10
_symmetry_space_group_name_H-M   'P 1'
_cell_length_a   7.03511024
_cell_length_b   7.03510961
_cell_length_c   8.85816428
_cell_angle_alpha   81.06563329
_cell_angle_beta   81.06563733
_cell_angle_gamma   59.94867879
_symmetry_Int_Tables_number   1
_chemical_formula_structural   Ca10LuReN10
_chemical_formula_sum   'Ca10 Lu1 Re1 N10'
_cell_volume   373.33363916
_cell_formula_units_Z   1
loop_
 _symmetry_equiv_pos_site_id
 _symmetry_equiv_pos_as_xyz
  1  'x, y, z'
loop_
 _atom_site_type_symbol
 _atom_site_label
 _atom_site_symmetry_multiplicity
 _atom_site_fract_x
 _atom_site_fract_y
 _atom_site_fract_z
 _atom_site_occupancy
  Ca  Ca0  1  0.87971393  0.36436946  0.82763631  1
  Ca  Ca1  1  0.87686339  0.87686339  0.81182318  1
  Ca  Ca2  1  0.73702982  0.73702982  0.53400707  1
  Ca  Ca3  1  0.74496729  0.25997220  0.51675716  1
  Ca  Ca4  1  0.61815420  0.13701245  0.14625494  1
  Ca  Ca5  1  0.36436946  0.87971393  0.82763631  1
  Ca  Ca6  1  0.25997220  0.74496729  0.51675716  1
  Ca  Ca7  1  0.24168341  0.24168341  0.50306986  1
  Ca  Ca8  1  0.13775213  0.13775213  0.16403890  1
  Ca  Ca9  1  0.13701245  0.61815420  0.14625494  1
  Lu  Lu0  1  0.37131560  0.37131560  0.78044599  1
  Re  Re0  1  0.63122464  0.63122464  0.22682485  1
  N  N0  1  0.89736851  0.47485100  0.31508328  1
  N  N1  1  0.98853606  0.98853606  0.03040061  1
  N  N2  1  0.67632113  0.67632113  0.02142207  1
  N  N3  1  0.55234790  0.55234790  0.68673403  1
  N  N4  1  0.47485100  0.89736851  0.31508328  1
  N  N5  1  0.55441528  0.07012319  0.65964678  1
  N  N6  1  0.47777476  0.47777476  0.29157141  1
  N  N7  1  0.30793868  0.30793868  0.02008119  1
  N  N8  1  0.06254897  0.06254897  0.64463290  1
  N  N9  1  0.07012319  0.55441528  0.65964678  1
loop_
_geom_bond_atom_site_label_1
_geom_bond_atom_site_label_2
_geom_bond_distance
_geom_bond_site_symmetry_2
Ca0 N3 2.437323 1_555
Ca0 N9 2.520507 1_655
Ca0 N8 2.544995 1_655
Ca0 N2 2.659422 1_556
Ca0 N1 2.779881 1_546
Ca1 N9 2.470442 1_655
Ca1 N5 2.470442 1_565
Ca1 N8 2.472565 1_665
Ca1 N1 2.558592 1_556
Ca1 N2 2.791851 1_556
Ca2 N5 2.393983 1_565
Ca2 N9 2.393983 1_655
Ca2 N3 2.409395 1_555
Ca2 N4 2.604405 1_555
Ca2 N0 2.604405 1_555
Ca3 N8 2.322368 1_655
Ca3 N3 2.422970 1_555
Ca3 N5 2.433956 1_555
Ca3 N0 2.610697 1_555
Ca3 N6 2.681556 1_555
Ca4 N7 2.273726 1_555
Ca4 N1 2.389609 1_545
Ca4 N4 2.558539 1_545
Ca4 N6 2.563548 1_555
Ca5 N3 2.437323 1_555
Ca5 N5 2.520507 1_565
Ca5 N8 2.544995 1_565
Ca5 N2 2.659422 1_556
Ca5 N1 2.779881 1_456
Ca6 N8 2.322368 1_565
Ca6 N3 2.422970 1_555
Ca6 N9 2.433956 1_555
Ca6 N4 2.610698 1_555
Ca6 N6 2.681556 1_555
Ca7 N8 2.314689 1_555
Ca7 N9 2.447290 1_555
Ca7 N5 2.447290 1_555
Ca7 N0 2.784972 1_455
Ca7 N4 2.784972 1_545
Ca8 N7 2.231671 1_555
Ca8 N1 2.341148 1_445
Ca8 N4 2.557385 1_545
Ca8 N0 2.557385 1_455
Ca9 N7 2.273726 1_555
Ca9 N1 2.389609 1_455
Ca9 N0 2.558539 1_455
Ca9 N6 2.563548 1_555
Lu0 N7 2.124787 1_556
Lu0 N5 2.199223 1_555
Lu0 N9 2.199223 1_555
Lu0 N3 2.213794 1_555
N0 Re0 1.857876 1_555
N2 Re0 1.803904 1_555
N4 Re0 1.857876 1_555
N6 Re0 1.855350 1_555
