# generated using pymatgen
data_Ir2OsO6
_symmetry_space_group_name_H-M   'P 1'
_cell_length_a   4.50129459
_cell_length_b   4.50129456
_cell_length_c   9.55237607
_cell_angle_alpha   90.00000000
_cell_angle_beta   90.00000000
_cell_angle_gamma   89.99974793
_symmetry_Int_Tables_number   1
_chemical_formula_structural   Ir2OsO6
_chemical_formula_sum   'Ir4 Os2 O12'
_cell_volume   193.54692754
_cell_formula_units_Z   2
loop_
 _symmetry_equiv_pos_site_id
 _symmetry_equiv_pos_as_xyz
  1  'x, y, z'
loop_
 _atom_site_type_symbol
 _atom_site_label
 _atom_site_symmetry_multiplicity
 _atom_site_fract_x
 _atom_site_fract_y
 _atom_site_fract_z
 _atom_site_occupancy
  Ir  Ir0  1  0.50000200  0.49999900  0.16703664  1
  Ir  Ir1  1  0.00000000  0.00000000  0.33293551  1
  Ir  Ir2  1  0.00000000  0.00000000  0.66706449  1
  Ir  Ir3  1  0.50000200  0.49999900  0.83296436  1
  Os  Os0  1  0.00000000  0.00000000  0.00000000  1
  Os  Os1  1  0.50000200  0.49999900  0.50000000  1
  O  O0  1  0.69645888  0.30354112  0.00000000  1
  O  O1  1  0.30354012  0.69646088  0.00000000  1
  O  O2  1  0.18870372  0.18877629  0.16470308  1
  O  O3  1  0.81129828  0.81122571  0.16470308  1
  O  O4  1  0.68870364  0.31122508  0.33526928  1
  O  O5  1  0.31129636  0.68877492  0.33526928  1
  O  O6  1  0.80354865  0.80354865  0.50000000  1
  O  O7  1  0.19645235  0.19645235  0.50000000  1
  O  O8  1  0.68877492  0.31129636  0.66473072  1
  O  O9  1  0.31122508  0.68870364  0.66473072  1
  O  O10  1  0.18877529  0.18870172  0.83529692  1
  O  O11  1  0.81122371  0.81129628  0.83529692  1
loop_
_geom_bond_atom_site_label_1
_geom_bond_atom_site_label_2
_geom_bond_distance
_geom_bond_site_symmetry_2
Ir0 O2 1.981549 1_555
Ir0 O3 1.981556 1_555
Ir0 O4 2.006497 1_555
Ir0 O5 2.006509 1_555
Ir0 O0 2.027299 1_555
Ir0 O1 2.027316 1_555
Ir1 O4 1.981542 1_455
Ir1 O5 1.981542 1_545
Ir1 O3 2.006500 1_445
Ir1 O2 2.006507 1_555
Ir1 O6 2.027488 1_445
Ir1 O7 2.027492 1_555
Ir2 O9 1.981542 1_545
Ir2 O8 1.981542 1_455
Ir2 O10 2.006501 1_555
Ir2 O11 2.006507 1_445
Ir2 O6 2.027488 1_445
Ir2 O7 2.027492 1_555
Ir3 O11 1.981543 1_555
Ir3 O10 1.981559 1_555
Ir3 O8 2.006505 1_555
Ir3 O9 2.006516 1_555
Ir3 O0 2.027291 1_556
Ir3 O1 2.027309 1_556
O0 Os0 1.932275 1_655
O1 Os0 1.932266 1_565
O2 Os0 1.979609 1_555
O3 Os0 1.979601 1_665
O4 Os1 1.979807 1_555
O5 Os1 1.979818 1_555
O6 Os1 1.932329 1_555
O7 Os1 1.932329 1_555
O8 Os1 1.979807 1_555
O9 Os1 1.979818 1_555
O10 Os0 1.979603 1_556
O11 Os0 1.979609 1_666
