# generated using pymatgen
data_Ca10Ga4HgBi
_symmetry_space_group_name_H-M   'P 1'
_cell_length_a   9.33735356
_cell_length_b   9.33735392
_cell_length_c   9.33735325
_cell_angle_alpha   128.95793483
_cell_angle_beta   128.95793386
_cell_angle_gamma   75.07826819
_symmetry_Int_Tables_number   1
_chemical_formula_structural   Ca10Ga4HgBi
_chemical_formula_sum   'Ca10 Ga4 Hg1 Bi1'
_cell_volume   479.29970033
_cell_formula_units_Z   1
loop_
 _symmetry_equiv_pos_site_id
 _symmetry_equiv_pos_as_xyz
  1  'x, y, z'
loop_
 _atom_site_type_symbol
 _atom_site_label
 _atom_site_symmetry_multiplicity
 _atom_site_fract_x
 _atom_site_fract_y
 _atom_site_fract_z
 _atom_site_occupancy
  Ca  Ca0  1  0.49689151  0.49689151  0.00000000  1
  Ca  Ca1  1  0.00310849  0.00310849  1.00000000  1
  Ca  Ca2  1  0.53718565  0.03178041  0.84870723  1
  Ca  Ca3  1  0.18307319  0.68847842  0.15129277  1
  Ca  Ca4  1  0.03178041  0.18307319  0.49459477  1
  Ca  Ca5  1  0.68847842  0.53718565  0.50540523  1
  Ca  Ca6  1  0.46821959  0.96281435  0.15129277  1
  Ca  Ca7  1  0.81152158  0.31692681  0.84870723  1
  Ca  Ca8  1  0.96281435  0.81152158  0.49459477  1
  Ca  Ca9  1  0.31692681  0.46821959  0.50540523  1
  Ga  Ga0  1  0.88764583  0.38764583  0.27529266  1
  Ga  Ga1  1  0.11235417  0.61235417  0.72470734  1
  Ga  Ga2  1  0.38764583  0.11235417  0.50000000  1
  Ga  Ga3  1  0.61235417  0.88764583  0.50000000  1
  Hg  Hg0  1  0.75000000  0.75000000  0.00000000  1
  Bi  Bi0  1  0.25000000  0.25000000  0.00000000  1
loop_
_geom_bond_atom_site_label_1
_geom_bond_atom_site_label_2
_geom_bond_distance
_geom_bond_site_symmetry_2
Ca0 Ga2 3.247631 1_554
Ca0 Ga3 3.247631 1_555
Ca0 Ga0 3.247634 1_555
Ca0 Ga1 3.247634 1_554
Ca0 Ca5 3.620776 1_555
Ca0 Ca3 3.620776 1_555
Ca0 Ca4 3.620776 1_554
Ca0 Ca2 3.620776 1_554
Ca0 Ca9 3.625114 1_554
Ca0 Ca7 3.625114 1_554
Ca0 Ca8 3.625114 1_555
Ca0 Ca6 3.625114 1_555
Ca0 Hg0 3.747998 1_555
Ca1 Ga2 3.247631 1_556
Ca1 Ga3 3.247631 1_445
Ca1 Ga1 3.247634 1_545
Ca1 Ga0 3.247634 1_456
Ca1 Ca8 3.620775 1_445
Ca1 Ca6 3.620776 1_546
Ca1 Ca7 3.620776 1_455
Ca1 Ca9 3.620776 1_556
Ca1 Ca4 3.625114 1_556
Ca1 Ca2 3.625114 1_455
Ca1 Ca3 3.625114 1_546
Ca1 Ca5 3.625114 1_445
Ca1 Hg0 3.747998 1_446
Ca2 Ga3 3.127673 1_545
Ca2 Ga2 3.152712 1_555
Ca2 Ga0 3.190749 1_556
Ca2 Hg0 3.364268 1_546
Ca3 Ga2 3.127673 1_565
Ca3 Ga3 3.152712 1_555
Ca3 Ga1 3.190758 1_554
Ca3 Hg0 3.364268 1_455
Ca4 Ga0 3.127666 1_455
Ca4 Ga1 3.152715 1_555
Ca4 Ga2 3.190749 1_555
Ca4 Hg0 3.364268 1_445
Ca5 Ga1 3.127676 1_655
Ca5 Ga0 3.152705 1_555
Ca5 Ga3 3.190749 1_555
Ca5 Hg0 3.364268 1_556
Ca6 Ga3 3.127673 1_555
Ca6 Ga2 3.152712 1_565
Ca6 Ga1 3.190749 1_554
Ca6 Hg0 3.364268 1_555
Ca7 Ga2 3.127673 1_555
Ca7 Ga3 3.152712 1_545
Ca7 Ga0 3.190758 1_556
Ca7 Hg0 3.364268 1_556
Ca8 Ga0 3.127676 1_555
Ca8 Ga1 3.152705 1_655
Ca8 Ga3 3.190749 1_555
Ca8 Hg0 3.364268 1_555
Ca9 Ga1 3.127666 1_555
Ca9 Ga0 3.152715 1_455
Ca9 Ga2 3.190749 1_555
Ca9 Hg0 3.364268 1_556
Ga0 Ga1 2.556845 1_655
Ga2 Ga3 2.556857 1_545
Bi0 Ca9 3.415876 1_555
Bi0 Ca4 3.415876 1_554
Bi0 Ca2 3.415876 1_554
Bi0 Ca7 3.415877 1_454
Bi0 Ca5 3.415877 1_555
Bi0 Ca6 3.415877 1_545
Bi0 Ca8 3.415877 1_444
Bi0 Ca3 3.415877 1_555
Bi0 Ca0 3.655938 1_555
Bi0 Ca1 3.655938 1_554
