# generated using pymatgen
data_Sr(ErS2)2
_symmetry_space_group_name_H-M   'P 1'
_cell_length_a   7.35091225
_cell_length_b   7.35091225
_cell_length_c   7.35091225
_cell_angle_alpha   109.42310417
_cell_angle_beta   109.42310417
_cell_angle_gamma   109.56749648
_symmetry_Int_Tables_number   1
_chemical_formula_structural   Sr(ErS2)2
_chemical_formula_sum   'Sr2 Er4 S8'
_cell_volume   305.77424625
_cell_formula_units_Z   2
loop_
 _symmetry_equiv_pos_site_id
 _symmetry_equiv_pos_as_xyz
  1  'x, y, z'
loop_
 _atom_site_type_symbol
 _atom_site_label
 _atom_site_symmetry_multiplicity
 _atom_site_fract_x
 _atom_site_fract_y
 _atom_site_fract_z
 _atom_site_occupancy
  Sr  Sr0  1  0.75000000  0.25000000  0.50000000  1
  Sr  Sr1  1  0.50000000  0.50000000  0.00000000  1
  Er  Er0  1  0.00686600  0.37500000  0.13186600  1
  Er  Er1  1  0.24313400  0.87500000  0.86813400  1
  Er  Er2  1  0.62500000  0.75686600  0.63186600  1
  Er  Er3  1  0.12500000  0.99313400  0.36813400  1
  S  S0  1  0.50529000  0.10565200  0.74506900  1
  S  S1  1  0.88941700  0.64434800  0.89963800  1
  S  S2  1  0.35565200  0.25529000  0.24506900  1
  S  S3  1  0.23977900  0.49471000  0.60036200  1
  S  S4  1  0.36058300  0.76022000  0.25493100  1
  S  S5  1  0.89434800  0.63941700  0.39963800  1
  S  S6  1  0.74471000  0.98977900  0.10036200  1
  S  S7  1  0.01022000  0.11058300  0.75493100  1
loop_
_geom_bond_atom_site_label_1
_geom_bond_atom_site_label_2
_geom_bond_distance
_geom_bond_site_symmetry_2
Er0 S4 2.719872 1_555
Er0 S6 2.719877 1_445
Er0 S7 2.819867 1_554
Er0 S5 2.819872 1_455
Er0 S3 2.935931 1_555
Er0 S2 2.935931 1_555
Er0 S1 3.161092 1_454
Er0 S0 3.161092 1_454
Er1 S1 2.719877 1_455
Er1 S0 2.719877 1_565
Er1 S2 2.819872 1_566
Er1 S3 2.819872 1_555
Er1 S5 2.935931 1_455
Er1 S7 2.935936 1_565
Er1 S6 3.161092 1_556
Er1 S4 3.161097 1_556
Er2 S7 2.719872 1_665
Er2 S3 2.719877 1_555
Er2 S4 2.819867 1_555
Er2 S1 2.819872 1_555
Er2 S6 2.935931 1_556
Er2 S0 2.935931 1_565
Er2 S2 3.161092 1_555
Er2 S5 3.161092 1_555
Er3 S5 2.719877 1_455
Er3 S2 2.719877 1_565
Er3 S0 2.819872 1_565
Er3 S6 2.819872 1_455
Er3 S1 2.935931 1_454
Er3 S4 2.935936 1_555
Er3 S3 3.161092 1_565
Er3 S7 3.161097 1_565
S0 Sr1 2.903011 1_556
S0 Sr0 3.123319 1_555
S1 Sr0 2.903011 1_555
S1 Sr1 3.123319 1_556
S2 Sr0 2.903011 1_555
S2 Sr1 3.123319 1_555
S3 Sr1 2.903011 1_556
S3 Sr0 3.123319 1_455
S4 Sr1 2.903007 1_555
S4 Sr0 3.123324 1_565
S5 Sr1 2.903011 1_555
S5 Sr0 3.123319 1_555
S6 Sr0 2.903011 1_565
S6 Sr1 3.123319 1_555
S7 Sr0 2.903007 1_455
S7 Sr1 3.123324 1_556
