# generated using pymatgen
data_Rb3NaI2O9
_symmetry_space_group_name_H-M   'P 1'
_cell_length_a   6.14836670
_cell_length_b   6.14836659
_cell_length_c   14.74369606
_cell_angle_alpha   90.00000000
_cell_angle_beta   90.00000000
_cell_angle_gamma   120.00000557
_symmetry_Int_Tables_number   1
_chemical_formula_structural   Rb3NaI2O9
_chemical_formula_sum   'Rb6 Na2 I4 O18'
_cell_volume   482.67687480
_cell_formula_units_Z   2
loop_
 _symmetry_equiv_pos_site_id
 _symmetry_equiv_pos_as_xyz
  1  'x, y, z'
loop_
 _atom_site_type_symbol
 _atom_site_label
 _atom_site_symmetry_multiplicity
 _atom_site_fract_x
 _atom_site_fract_y
 _atom_site_fract_z
 _atom_site_occupancy
  Rb  Rb0  1  0.33333300  0.66666700  0.09216451  1
  Rb  Rb1  1  0.66666700  0.33333300  0.90783549  1
  Rb  Rb2  1  0.66666700  0.33333300  0.59216451  1
  Rb  Rb3  1  0.33333300  0.66666700  0.40783549  1
  Rb  Rb4  1  0.00000000  0.00000000  0.25000000  1
  Rb  Rb5  1  0.00000000  0.00000000  0.75000000  1
  Na  Na0  1  0.00000000  0.00000000  0.00000000  1
  Na  Na1  1  0.00000000  0.00000000  0.50000000  1
  I  I0  1  0.33333300  0.66666700  0.65215894  1
  I  I1  1  0.66666700  0.33333300  0.34784106  1
  I  I2  1  0.66666700  0.33333300  0.15215894  1
  I  I3  1  0.33333300  0.66666700  0.84784106  1
  O  O0  1  0.53343821  0.06687641  0.25000000  1
  O  O1  1  0.46656179  0.93312359  0.75000000  1
  O  O2  1  0.93312359  0.46656179  0.25000000  1
  O  O3  1  0.06687641  0.53343821  0.75000000  1
  O  O4  1  0.53343821  0.46656179  0.25000000  1
  O  O5  1  0.46656179  0.53343821  0.75000000  1
  O  O6  1  0.18442172  0.36884545  0.59377072  1
  O  O7  1  0.81557828  0.63115455  0.40622928  1
  O  O8  1  0.63115455  0.81557828  0.59377072  1
  O  O9  1  0.81557828  0.63115455  0.09377072  1
  O  O10  1  0.36884545  0.18442172  0.40622928  1
  O  O11  1  0.18442172  0.36884545  0.90622928  1
  O  O12  1  0.18442172  0.81557828  0.59377072  1
  O  O13  1  0.36884545  0.18442172  0.09377072  1
  O  O14  1  0.81557828  0.18442172  0.40622928  1
  O  O15  1  0.63115455  0.81557828  0.90622928  1
  O  O16  1  0.81557828  0.18442172  0.09377072  1
  O  O17  1  0.18442172  0.81557828  0.90622928  1
loop_
_geom_bond_atom_site_label_1
_geom_bond_atom_site_label_2
_geom_bond_distance
_geom_bond_site_symmetry_2
Na0 O16 2.401774 1_455
Na0 O17 2.401774 1_544
Na0 O9 2.401782 1_445
Na0 O11 2.401782 1_554
Na0 O13 2.401782 1_555
Na0 O15 2.401782 1_444
Na1 O12 2.401774 1_545
Na1 O14 2.401774 1_455
Na1 O6 2.401782 1_555
Na1 O7 2.401782 1_445
Na1 O8 2.401782 1_445
Na1 O10 2.401782 1_555
I0 O6 1.804388 1_555
I0 O8 1.804388 1_555
I0 O12 1.804393 1_555
I0 O1 2.023332 1_555
I0 O3 2.023332 1_555
I0 O5 2.023336 1_555
I1 O7 1.804388 1_555
I1 O10 1.804388 1_555
I1 O14 1.804393 1_555
I1 O0 2.023332 1_555
I1 O2 2.023332 1_555
I1 O4 2.023336 1_555
I2 O9 1.804388 1_555
I2 O13 1.804388 1_555
I2 O16 1.804393 1_555
I2 O0 2.023332 1_555
I2 O2 2.023332 1_555
I2 O4 2.023336 1_555
I3 O11 1.804388 1_555
I3 O15 1.804388 1_555
I3 O17 1.804393 1_555
I3 O1 2.023332 1_555
I3 O3 2.023332 1_555
I3 O5 2.023336 1_555
O0 Rb4 3.094738 1_555
O0 Rb4 3.094738 1_655
O0 Rb3 3.155366 1_545
O0 Rb0 3.155366 1_545
O1 Rb5 3.094738 1_665
O1 Rb5 3.094738 1_565
O1 Rb1 3.155366 1_565
O1 Rb2 3.155366 1_565
O2 Rb4 3.094738 1_665
O2 Rb4 3.094738 1_655
O2 Rb3 3.155366 1_655
O2 Rb0 3.155366 1_655
O3 Rb5 3.094738 1_555
O3 Rb5 3.094738 1_565
O3 Rb1 3.155366 1_455
O3 Rb2 3.155366 1_455
O4 Rb4 3.094738 1_665
O4 Rb4 3.094738 1_555
O4 Rb3 3.155370 1_555
O4 Rb0 3.155370 1_555
O5 Rb5 3.094738 1_555
O5 Rb5 3.094738 1_665
O5 Rb1 3.155370 1_555
O5 Rb2 3.155370 1_555
O6 Rb5 3.027014 1_555
O6 Rb2 3.080075 1_455
O6 Rb2 3.080094 1_555
O6 Rb3 3.166996 1_555
O7 Rb4 3.027014 1_665
O7 Rb3 3.080075 1_655
O7 Rb3 3.080094 1_555
O7 Rb2 3.166996 1_555
O8 Rb5 3.027014 1_665
O8 Rb2 3.080075 1_565
O8 Rb2 3.080094 1_555
O8 Rb3 3.166996 1_555
O9 Rb4 3.027014 1_665
O9 Rb0 3.080075 1_655
O9 Rb0 3.080094 1_555
O9 Rb1 3.166996 1_554
O10 Rb4 3.027014 1_555
O10 Rb3 3.080075 1_545
O10 Rb3 3.080094 1_555
O10 Rb2 3.166996 1_555
O11 Rb5 3.027014 1_555
O11 Rb1 3.080075 1_455
O11 Rb1 3.080094 1_555
O11 Rb0 3.166996 1_556
O12 Rb5 3.027007 1_565
O12 Rb2 3.080083 1_565
O12 Rb2 3.080083 1_455
O12 Rb3 3.166999 1_555
O13 Rb4 3.027014 1_555
O13 Rb0 3.080075 1_545
O13 Rb0 3.080094 1_555
O13 Rb1 3.166996 1_554
O14 Rb4 3.027007 1_655
O14 Rb3 3.080083 1_545
O14 Rb3 3.080083 1_655
O14 Rb2 3.166999 1_555
O15 Rb5 3.027014 1_665
O15 Rb1 3.080075 1_565
O15 Rb1 3.080094 1_555
O15 Rb0 3.166996 1_556
O16 Rb4 3.027007 1_655
O16 Rb0 3.080083 1_545
O16 Rb0 3.080083 1_655
O16 Rb1 3.166999 1_554
O17 Rb5 3.027007 1_565
O17 Rb1 3.080083 1_565
O17 Rb1 3.080083 1_455
O17 Rb0 3.166999 1_556
