# generated using pymatgen
data_ZrNbV3Os
_symmetry_space_group_name_H-M   'P 1'
_cell_length_a   5.14617115
_cell_length_b   5.14617145
_cell_length_c   5.11902005
_cell_angle_alpha   59.82438229
_cell_angle_beta   59.82437009
_cell_angle_gamma   60.00000966
_symmetry_Int_Tables_number   1
_chemical_formula_structural   ZrNbV3Os
_chemical_formula_sum   'Zr1 Nb1 V3 Os1'
_cell_volume   95.60538794
_cell_formula_units_Z   1
loop_
 _symmetry_equiv_pos_site_id
 _symmetry_equiv_pos_as_xyz
  1  'x, y, z'
loop_
 _atom_site_type_symbol
 _atom_site_label
 _atom_site_symmetry_multiplicity
 _atom_site_fract_x
 _atom_site_fract_y
 _atom_site_fract_z
 _atom_site_occupancy
  Zr  Zr0  1  0.25046276  0.25046276  0.24861172  1
  Nb  Nb0  1  0.99984907  0.99984907  0.00045379  1
  V  V0  1  0.62523626  0.12447653  0.62505194  1
  V  V1  1  0.12447653  0.62523626  0.62505194  1
  V  V2  1  0.62523626  0.62523626  0.62505194  1
  Os  Os0  1  0.62474011  0.62474011  0.12578166  1
loop_
_geom_bond_atom_site_label_1
_geom_bond_atom_site_label_2
_geom_bond_distance
_geom_bond_site_symmetry_2
Nb0 V2 2.996540 1_555
Nb0 V0 2.996541 1_565
Nb0 V1 2.996541 1_655
Nb0 V0 3.011578 1_664
Nb0 V1 3.011579 1_664
Nb0 V2 3.011579 1_654
Nb0 V1 3.011579 1_654
Nb0 V0 3.011580 1_564
Nb0 V2 3.011580 1_564
Nb0 Os0 3.016722 1_555
Nb0 Os0 3.016727 1_565
Nb0 Os0 3.016727 1_655
Nb0 Zr0 3.134078 1_664
Nb0 Zr0 3.146073 1_665
Nb0 Zr0 3.146076 1_565
Nb0 Zr0 3.146077 1_655
V0 V2 2.569176 1_545
V0 V1 2.569176 1_645
V0 V2 2.576995 1_555
V0 V1 2.576996 1_555
V0 Zr0 2.995020 1_556
V0 Zr0 3.013828 1_655
V0 Zr0 3.013833 1_555
V1 V2 2.569176 1_455
V1 V2 2.576995 1_555
V1 Zr0 2.995020 1_556
V1 Zr0 3.013828 1_565
V1 Zr0 3.013833 1_555
V2 Zr0 2.995022 1_556
V2 Zr0 3.013830 1_655
V2 Zr0 3.013831 1_565
Os0 V2 2.558344 1_555
Os0 V1 2.558346 1_555
Os0 V0 2.558346 1_555
Os0 V1 2.560678 1_654
Os0 V0 2.560678 1_564
Os0 V2 2.560681 1_554
Os0 Zr0 3.014937 1_565
Os0 Zr0 3.014937 1_655
Os0 Zr0 3.014945 1_555
