# generated using pymatgen
data_K2GePt2
_symmetry_space_group_name_H-M   'P 1'
_cell_length_a   5.85252206
_cell_length_b   5.85252230
_cell_length_c   7.54299263
_cell_angle_alpha   84.25542782
_cell_angle_beta   84.25542496
_cell_angle_gamma   72.55990484
_symmetry_Int_Tables_number   1
_chemical_formula_structural   K2GePt2
_chemical_formula_sum   'K4 Ge2 Pt4'
_cell_volume   244.57857218
_cell_formula_units_Z   2
loop_
 _symmetry_equiv_pos_site_id
 _symmetry_equiv_pos_as_xyz
  1  'x, y, z'
loop_
 _atom_site_type_symbol
 _atom_site_label
 _atom_site_symmetry_multiplicity
 _atom_site_fract_x
 _atom_site_fract_y
 _atom_site_fract_z
 _atom_site_occupancy
  K  K0  1  0.76003051  0.52033821  0.87862271  1
  K  K1  1  0.47966179  0.23996949  0.62137729  1
  K  K2  1  0.23996949  0.47966179  0.12137729  1
  K  K3  1  0.52033821  0.76003051  0.37862271  1
  Ge  Ge0  1  0.03509102  0.96490898  0.75000000  1
  Ge  Ge1  1  0.96490898  0.03509102  0.25000000  1
  Pt  Pt0  1  0.00795918  0.72247587  0.50799951  1
  Pt  Pt1  1  0.27752413  0.99204082  0.99200049  1
  Pt  Pt2  1  0.99204082  0.27752413  0.49200049  1
  Pt  Pt3  1  0.72247587  0.00795918  0.00799951  1
loop_
_geom_bond_atom_site_label_1
_geom_bond_atom_site_label_2
_geom_bond_distance
_geom_bond_site_symmetry_2
K0 Pt3 3.046887 1_566
K0 Pt3 3.123976 1_556
K0 Pt0 3.297755 1_655
K0 Pt2 3.353836 1_555
K0 Pt1 3.412204 1_555
K0 K2 3.441044 1_656
K0 K2 3.450343 1_556
K0 K1 3.469681 1_555
K0 Pt1 3.720196 1_645
K1 Pt2 3.046887 1_455
K1 Pt2 3.123975 1_555
K1 Pt1 3.297755 1_545
K1 Pt3 3.353836 1_556
K1 Pt0 3.412204 1_555
K1 K3 3.441044 1_545
K1 K3 3.450343 1_555
K1 Pt0 3.720196 1_645
K2 Pt1 3.046887 1_544
K2 Pt1 3.123976 1_554
K2 Pt2 3.297755 1_455
K2 Pt0 3.353836 1_555
K2 Pt3 3.412204 1_555
K2 K3 3.469681 1_555
K2 Pt3 3.720196 1_465
K3 Pt0 3.046887 1_655
K3 Pt0 3.123975 1_555
K3 Pt3 3.297755 1_565
K3 Pt1 3.353836 1_554
K3 Pt2 3.412204 1_555
K3 Pt2 3.720196 1_465
Ge0 Pt0 2.466172 1_555
Ge0 Pt1 2.466172 1_555
Ge0 Pt3 2.511413 1_466
Ge0 Pt2 2.511413 1_465
Ge0 K1 3.358800 1_465
Ge0 K0 3.358800 1_465
Ge0 K1 3.463388 1_565
Ge0 K0 3.463388 1_455
Ge0 K3 3.793260 1_555
Ge0 K2 3.793260 1_556
Ge1 Pt2 2.466172 1_555
Ge1 Pt3 2.466172 1_555
Ge1 Pt1 2.511413 1_644
Ge1 Pt0 2.511413 1_645
Ge1 K3 3.358800 1_645
Ge1 K2 3.358800 1_645
Ge1 K3 3.463388 1_545
Ge1 K2 3.463388 1_655
Ge1 K1 3.793260 1_555
Ge1 K0 3.793260 1_554
Pt0 Pt2 2.648605 1_455
Pt1 Pt3 2.648605 1_566
