# generated using pymatgen
data_Zr6Ti5Sn10Mo
_symmetry_space_group_name_H-M   'P 1'
_cell_length_a   9.54271775
_cell_length_b   9.54819613
_cell_length_c   5.77731077
_cell_angle_alpha   89.99999885
_cell_angle_beta   90.09056054
_cell_angle_gamma   120.01899730
_symmetry_Int_Tables_number   1
_chemical_formula_structural   Zr6Ti5Sn10Mo
_chemical_formula_sum   'Zr6 Ti5 Sn10 Mo1'
_cell_volume   455.79113971
_cell_formula_units_Z   1
loop_
 _symmetry_equiv_pos_site_id
 _symmetry_equiv_pos_as_xyz
  1  'x, y, z'
loop_
 _atom_site_type_symbol
 _atom_site_label
 _atom_site_symmetry_multiplicity
 _atom_site_fract_x
 _atom_site_fract_y
 _atom_site_fract_z
 _atom_site_occupancy
  Zr  Zr0  1  0.85012235  0.69128185  0.75245477  1
  Zr  Zr1  1  0.14987765  0.84115950  0.24754523  1
  Zr  Zr2  1  0.69193935  0.84596918  0.24781635  1
  Zr  Zr3  1  0.30806065  0.15403082  0.75218365  1
  Zr  Zr4  1  0.85012235  0.15884050  0.75245477  1
  Zr  Zr5  1  0.14987765  0.30871815  0.24754523  1
  Ti  Ti0  1  0.50000000  0.00000000  0.50000000  1
  Ti  Ti1  1  0.50000000  0.50000000  0.00000000  1
  Ti  Ti2  1  0.00000000  0.50000000  0.50000000  1
  Ti  Ti3  1  0.50000000  0.00000000  0.00000000  1
  Ti  Ti4  1  0.50000000  0.50000000  0.50000000  1
  Sn  Sn0  1  0.21273689  0.42437481  0.74829738  1
  Sn  Sn1  1  0.78726311  0.21163792  0.25170262  1
  Sn  Sn2  1  0.42099695  0.21049848  0.25147434  1
  Sn  Sn3  1  0.57900305  0.78950152  0.74852566  1
  Sn  Sn4  1  0.21273689  0.78836208  0.74829738  1
  Sn  Sn5  1  0.78726311  0.57562519  0.25170262  1
  Sn  Sn6  1  0.66736792  0.33368296  0.75653284  1
  Sn  Sn7  1  0.33263208  0.66631704  0.24346716  1
  Sn  Sn8  1  0.00000000  0.00000000  0.50000000  1
  Sn  Sn9  1  0.00000000  0.00000000  0.00000000  1
  Mo  Mo0  1  0.00000000  0.50000000  0.00000000  1
loop_
_geom_bond_atom_site_label_1
_geom_bond_atom_site_label_2
_geom_bond_distance
_geom_bond_site_symmetry_2
Ti0 Ti3 2.888655 1_555
Ti0 Ti3 2.888655 1_556
Ti0 Zr3 3.216258 1_555
Ti0 Zr2 3.216258 1_545
Ti0 Zr4 3.241131 1_555
Ti0 Zr1 3.241131 1_545
Ti1 Ti4 2.888655 1_555
Ti1 Ti4 2.888655 1_554
Ti1 Zr2 3.202290 1_555
Ti1 Zr3 3.202290 1_554
Ti1 Zr0 3.233189 1_554
Ti1 Zr5 3.233189 1_555
Ti2 Zr1 3.182584 1_555
Ti2 Zr4 3.182584 1_455
Ti2 Zr5 3.182584 1_555
Ti2 Zr0 3.182584 1_455
Ti3 Zr2 3.202297 1_545
Ti3 Zr3 3.202297 1_554
Ti3 Zr4 3.233189 1_554
Ti3 Zr1 3.233189 1_545
Ti4 Zr2 3.216251 1_555
Ti4 Zr3 3.216251 1_555
Ti4 Zr0 3.241131 1_555
Ti4 Zr5 3.241131 1_555
Sn0 Ti4 2.850544 1_555
Sn0 Ti1 2.856116 1_556
Sn0 Ti2 2.856214 1_555
Sn0 Zr5 3.039940 1_556
Sn0 Zr5 3.046390 1_555
Sn0 Zr4 3.102349 1_455
Sn0 Zr3 3.136943 1_555
Sn1 Ti0 2.850544 1_555
Sn1 Ti3 2.856116 1_555
Sn1 Ti2 2.856214 1_655
Sn1 Zr4 3.039940 1_554
Sn1 Zr4 3.046390 1_555
Sn1 Zr5 3.102349 1_655
Sn1 Zr2 3.136953 1_545
Sn2 Ti4 2.860463 1_555
Sn2 Ti0 2.860463 1_555
Sn2 Ti1 2.870251 1_555
Sn2 Ti3 2.870251 1_555
Sn2 Zr3 3.030119 1_554
Sn2 Zr3 3.041160 1_555
Sn2 Zr1 3.162476 1_545
Sn2 Zr5 3.162476 1_555
Sn3 Ti4 2.860463 1_555
Sn3 Ti0 2.860463 1_565
Sn3 Ti1 2.870251 1_556
Sn3 Ti3 2.870251 1_566
Sn3 Zr2 3.030119 1_556
Sn3 Zr2 3.041160 1_555
Sn3 Zr4 3.162476 1_565
Sn3 Zr0 3.162476 1_555
Sn4 Ti0 2.850544 1_565
Sn4 Ti3 2.856116 1_566
Sn4 Ti2 2.856214 1_555
Sn4 Zr1 3.039940 1_556
Sn4 Zr1 3.046390 1_555
Sn4 Zr0 3.102349 1_455
Sn4 Zr3 3.136953 1_565
Sn5 Ti4 2.850544 1_555
Sn5 Ti1 2.856116 1_555
Sn5 Ti2 2.856214 1_655
Sn5 Zr0 3.039940 1_554
Sn5 Zr0 3.046390 1_555
Sn5 Zr1 3.102349 1_655
Sn5 Zr2 3.136943 1_555
Sn6 Zr4 2.956728 1_555
Sn6 Zr0 2.956744 1_555
Sn6 Zr3 2.968892 1_555
Sn6 Ti3 3.097735 1_556
Sn6 Ti1 3.097750 1_556
Sn6 Ti2 3.124938 1_655
Sn6 Ti0 3.130404 1_555
Sn6 Ti4 3.130418 1_555
Sn7 Zr1 2.956728 1_555
Sn7 Zr5 2.956744 1_555
Sn7 Zr2 2.968892 1_555
Sn7 Ti3 3.097735 1_565
Sn7 Ti1 3.097750 1_555
Sn7 Ti2 3.124938 1_555
Sn7 Ti0 3.130404 1_565
Sn7 Ti4 3.130418 1_555
Sn8 Sn9 2.888655 1_556
Sn8 Sn9 2.888655 1_555
Sn8 Zr3 2.930563 1_555
Sn8 Zr2 2.930563 1_445
Sn8 Zr0 2.941094 1_445
Sn8 Zr5 2.941094 1_555
Sn8 Zr4 2.941094 1_455
Sn8 Zr1 2.941094 1_545
Sn9 Zr3 2.922697 1_554
Sn9 Zr2 2.922697 1_445
Sn9 Zr5 2.924900 1_555
Sn9 Zr0 2.924900 1_444
Sn9 Zr1 2.924900 1_545
Sn9 Zr4 2.924900 1_454
Mo0 Sn4 2.869377 1_554
Mo0 Sn1 2.869377 1_455
Mo0 Sn5 2.869377 1_455
Mo0 Sn0 2.869377 1_554
Mo0 Ti2 2.888655 1_554
Mo0 Ti2 2.888655 1_555
Mo0 Sn7 3.085158 1_555
Mo0 Sn6 3.085158 1_454
Mo0 Zr1 3.167625 1_555
Mo0 Zr4 3.167625 1_454
Mo0 Zr5 3.167625 1_555
Mo0 Zr0 3.167625 1_454
