# generated using pymatgen
data_Sr2Ca(InAs2)2
_symmetry_space_group_name_H-M   'P 1'
_cell_length_a   4.41257861
_cell_length_b   6.76258211
_cell_length_c   16.75267748
_cell_angle_alpha   90.00000000
_cell_angle_beta   90.00000000
_cell_angle_gamma   90.00000000
_symmetry_Int_Tables_number   1
_chemical_formula_structural   Sr2Ca(InAs2)2
_chemical_formula_sum   'Sr4 Ca2 In4 As8'
_cell_volume   499.90701913
_cell_formula_units_Z   2
loop_
 _symmetry_equiv_pos_site_id
 _symmetry_equiv_pos_as_xyz
  1  'x, y, z'
loop_
 _atom_site_type_symbol
 _atom_site_label
 _atom_site_symmetry_multiplicity
 _atom_site_fract_x
 _atom_site_fract_y
 _atom_site_fract_z
 _atom_site_occupancy
  Sr  Sr0  1  0.00000000  0.27673969  0.80424808  1
  Sr  Sr1  1  0.50000000  0.77673969  0.69575192  1
  Sr  Sr2  1  0.00000000  0.72326031  0.19575192  1
  Sr  Sr3  1  0.50000000  0.22326031  0.30424808  1
  Ca  Ca0  1  0.00000000  0.00000000  0.00000000  1
  Ca  Ca1  1  0.50000000  0.50000000  0.50000000  1
  In  In0  1  0.00000000  0.86363212  0.41411636  1
  In  In1  1  0.50000000  0.36363212  0.08588364  1
  In  In2  1  0.00000000  0.13636788  0.58588364  1
  In  In3  1  0.50000000  0.63636788  0.91411636  1
  As  As0  1  0.50000000  0.24367602  0.93414914  1
  As  As1  1  0.50000000  0.75632398  0.06585086  1
  As  As2  1  0.00000000  0.23380433  0.16651573  1
  As  As3  1  0.00000000  0.25632398  0.43414914  1
  As  As4  1  0.50000000  0.73380433  0.33348427  1
  As  As5  1  0.00000000  0.76619567  0.83348427  1
  As  As6  1  0.00000000  0.74367602  0.56585086  1
  As  As7  1  0.50000000  0.26619567  0.66651573  1
loop_
_geom_bond_atom_site_label_1
_geom_bond_atom_site_label_2
_geom_bond_distance
_geom_bond_site_symmetry_2
As0 In1 2.668262 1_556
As0 In3 2.676733 1_555
As0 Ca0 2.966517 1_656
As0 Ca0 2.966517 1_556
As0 Sr0 3.107010 1_555
As0 Sr0 3.107010 1_655
As1 In3 2.668262 1_554
As1 In1 2.676733 1_555
As1 Ca0 2.966517 1_565
As1 Ca0 2.966517 1_665
As1 Sr2 3.107010 1_555
As1 Sr2 3.107010 1_655
As2 In1 2.731889 1_455
As2 In1 2.731889 1_555
As2 Sr3 3.193247 1_455
As2 Sr3 3.193247 1_555
As2 Ca0 3.206513 1_555
As2 Sr2 3.346027 1_555
As2 Sr2 3.487163 1_545
As3 In2 2.668262 1_555
As3 In0 2.676733 1_545
As3 Ca1 2.966517 1_455
As3 Ca1 2.966517 1_555
As3 Sr3 3.107010 1_555
As3 Sr3 3.107010 1_455
As4 In0 2.731889 1_555
As4 In0 2.731889 1_655
As4 Sr2 3.193247 1_555
As4 Sr2 3.193247 1_655
As4 Ca1 3.206513 1_555
As4 Sr3 3.346027 1_565
As4 Sr3 3.487163 1_555
As5 In3 2.731889 1_455
As5 In3 2.731889 1_555
As5 Sr1 3.193247 1_555
As5 Sr1 3.193247 1_455
As5 Ca0 3.206513 1_566
As5 Sr0 3.346027 1_555
As5 Sr0 3.487163 1_565
As6 In0 2.668262 1_555
As6 In2 2.676733 1_565
As6 Ca1 2.966517 1_455
As6 Ca1 2.966517 1_555
As6 Sr1 3.107010 1_455
As6 Sr1 3.107010 1_555
As7 In2 2.731889 1_555
As7 In2 2.731889 1_655
As7 Sr0 3.193247 1_655
As7 Sr0 3.193247 1_555
As7 Ca1 3.206513 1_555
As7 Sr1 3.346027 1_545
As7 Sr1 3.487163 1_555
