# generated using pymatgen
data_K2Rb6HfSb4
_symmetry_space_group_name_H-M   'P 1'
_cell_length_a   11.88329457
_cell_length_b   11.88329409
_cell_length_c   11.88329527
_cell_angle_alpha   59.99999670
_cell_angle_beta   59.99999805
_cell_angle_gamma   60.00000047
_symmetry_Int_Tables_number   1
_chemical_formula_structural   K2Rb6HfSb4
_chemical_formula_sum   'K4 Rb12 Hf2 Sb8'
_cell_volume   1186.57606290
_cell_formula_units_Z   2
loop_
 _symmetry_equiv_pos_site_id
 _symmetry_equiv_pos_as_xyz
  1  'x, y, z'
loop_
 _atom_site_type_symbol
 _atom_site_label
 _atom_site_symmetry_multiplicity
 _atom_site_fract_x
 _atom_site_fract_y
 _atom_site_fract_z
 _atom_site_occupancy
  K  K0  1  0.62500000  0.12500000  0.62500000  1
  K  K1  1  0.62500000  0.62500000  0.12500000  1
  K  K2  1  0.12500000  0.62500000  0.62500000  1
  K  K3  1  0.62500000  0.62500000  0.62500000  1
  Rb  Rb0  1  0.02657317  0.02657317  0.47342683  1
  Rb  Rb1  1  0.77657317  0.22342683  0.22342683  1
  Rb  Rb2  1  0.22342683  0.77657317  0.77657317  1
  Rb  Rb3  1  0.77657317  0.77657317  0.22342683  1
  Rb  Rb4  1  0.77657317  0.22342683  0.77657317  1
  Rb  Rb5  1  0.22342683  0.77657317  0.22342683  1
  Rb  Rb6  1  0.47342683  0.02657317  0.47342683  1
  Rb  Rb7  1  0.47342683  0.02657317  0.02657317  1
  Rb  Rb8  1  0.02657317  0.47342683  0.47342683  1
  Rb  Rb9  1  0.02657317  0.47342683  0.02657317  1
  Rb  Rb10  1  0.22342683  0.22342683  0.77657317  1
  Rb  Rb11  1  0.47342683  0.47342683  0.02657317  1
  Hf  Hf0  1  0.75000000  0.75000000  0.75000000  1
  Hf  Hf1  1  0.50000000  0.50000000  0.50000000  1
  Sb  Sb0  1  0.40206204  0.79381388  0.40206204  1
  Sb  Sb1  1  0.84793796  0.84793796  0.45618612  1
  Sb  Sb2  1  0.45618612  0.84793796  0.84793796  1
  Sb  Sb3  1  0.84793796  0.84793796  0.84793796  1
  Sb  Sb4  1  0.79381388  0.40206204  0.40206204  1
  Sb  Sb5  1  0.40206204  0.40206204  0.40206204  1
  Sb  Sb6  1  0.40206204  0.40206204  0.79381388  1
  Sb  Sb7  1  0.84793796  0.45618612  0.84793796  1
loop_
_geom_bond_atom_site_label_1
_geom_bond_atom_site_label_2
_geom_bond_distance
_geom_bond_site_symmetry_2
K0 Sb4 3.801393 1_555
K0 Sb2 3.801393 1_545
K0 Sb3 3.801393 1_545
K0 Sb5 3.801393 1_555
K0 Sb6 3.801393 1_555
K0 Sb1 3.801393 1_545
K1 Sb3 3.801393 1_554
K1 Sb5 3.801393 1_555
K1 Sb4 3.801393 1_555
K1 Sb2 3.801393 1_554
K1 Sb0 3.801393 1_555
K1 Sb7 3.801393 1_554
K2 Sb0 3.801393 1_555
K2 Sb7 3.801393 1_455
K2 Sb3 3.801393 1_455
K2 Sb5 3.801393 1_555
K2 Sb6 3.801393 1_555
K2 Sb1 3.801393 1_455
K3 Sb1 3.801393 1_555
K3 Sb6 3.801393 1_555
K3 Sb4 3.801393 1_555
K3 Sb2 3.801393 1_555
K3 Sb7 3.801393 1_555
K3 Sb0 3.801393 1_555
Rb0 Sb1 3.798724 1_445
Rb0 Sb3 3.798724 1_445
Rb0 Sb4 3.807800 1_455
Rb0 Sb0 3.807800 1_545
Rb1 Sb5 3.798724 1_555
Rb1 Sb4 3.798724 1_555
Rb1 Sb1 3.807800 1_545
Rb1 Sb7 3.807800 1_554
Rb2 Sb6 3.798724 1_555
Rb2 Sb0 3.798724 1_555
Rb2 Sb3 3.807800 1_455
Rb2 Sb2 3.807800 1_555
Rb3 Sb4 3.798724 1_555
Rb3 Sb0 3.798724 1_555
Rb3 Sb3 3.807800 1_554
Rb3 Sb1 3.807800 1_555
Rb4 Sb6 3.798724 1_555
Rb4 Sb4 3.798724 1_555
Rb4 Sb3 3.807800 1_545
Rb4 Sb7 3.807800 1_555
Rb5 Sb5 3.798724 1_555
Rb5 Sb0 3.798724 1_555
Rb5 Sb1 3.807800 1_455
Rb5 Sb2 3.807800 1_554
Rb6 Sb1 3.798724 1_545
Rb6 Sb2 3.798724 1_545
Rb6 Sb5 3.807800 1_555
Rb6 Sb0 3.807800 1_545
Rb7 Sb3 3.798724 1_544
Rb7 Sb2 3.798724 1_544
Rb7 Sb6 3.807800 1_554
Rb7 Sb0 3.807800 1_545
Rb8 Sb1 3.798724 1_455
Rb8 Sb7 3.798724 1_455
Rb8 Sb5 3.807800 1_555
Rb8 Sb4 3.807800 1_455
Rb9 Sb3 3.798724 1_454
Rb9 Sb7 3.798724 1_454
Rb9 Sb6 3.807800 1_554
Rb9 Sb4 3.807800 1_455
Rb10 Sb6 3.798724 1_555
Rb10 Sb5 3.798724 1_555
Rb10 Sb2 3.807800 1_545
Rb10 Sb7 3.807800 1_455
Rb11 Sb2 3.798724 1_554
Rb11 Sb7 3.798724 1_554
Rb11 Sb6 3.807800 1_554
Rb11 Sb5 3.807800 1_555
Hf0 Sb7 2.850779 1_555
Hf0 Sb2 2.850779 1_555
Hf0 Sb3 2.850779 1_555
Hf0 Sb1 2.850779 1_555
Hf0 K0 3.638501 1_565
Hf0 K2 3.638501 1_655
Hf0 K1 3.638501 1_556
Hf0 K3 3.638501 1_555
Hf1 Sb0 2.850779 1_555
Hf1 Sb4 2.850779 1_555
Hf1 Sb5 2.850779 1_555
Hf1 Sb6 2.850779 1_555
Hf1 K0 3.638501 1_555
Hf1 K2 3.638501 1_555
Hf1 K3 3.638501 1_555
Hf1 K1 3.638501 1_555
