# generated using pymatgen
data_Sc6AlTcNi
_symmetry_space_group_name_H-M   'P 1'
_cell_length_a   7.84721870
_cell_length_b   7.84721895
_cell_length_c   7.84721943
_cell_angle_alpha   113.69484650
_cell_angle_beta   111.03277462
_cell_angle_gamma   103.84125894
_symmetry_Int_Tables_number   1
_chemical_formula_structural   Sc6AlTcNi
_chemical_formula_sum   'Sc12 Al2 Tc2 Ni2'
_cell_volume   369.10500168
_cell_formula_units_Z   2
loop_
 _symmetry_equiv_pos_site_id
 _symmetry_equiv_pos_as_xyz
  1  'x, y, z'
loop_
 _atom_site_type_symbol
 _atom_site_label
 _atom_site_symmetry_multiplicity
 _atom_site_fract_x
 _atom_site_fract_y
 _atom_site_fract_z
 _atom_site_occupancy
  Sc  Sc0  1  0.04984844  0.74535227  0.30449617  1
  Sc  Sc1  1  0.95015156  0.25464773  0.69550383  1
  Sc  Sc2  1  0.55914490  0.25464773  0.30449617  1
  Sc  Sc3  1  0.44085510  0.74535227  0.69550383  1
  Sc  Sc4  1  0.66858813  0.85456256  0.18597343  1
  Sc  Sc5  1  0.33141187  0.51738530  0.18597343  1
  Sc  Sc6  1  0.33141187  0.14543744  0.81402657  1
  Sc  Sc7  1  0.66858813  0.48261470  0.81402657  1
  Sc  Sc8  1  0.18292458  0.21316004  0.39608562  1
  Sc  Sc9  1  0.81707542  0.21316004  0.03023546  1
  Sc  Sc10  1  0.18292458  0.78683996  0.96976454  1
  Sc  Sc11  1  0.81707542  0.78683996  0.60391438  1
  Al  Al0  1  0.00000000  0.50000000  0.50000000  1
  Al  Al1  1  0.50000000  0.00000000  0.50000000  1
  Tc  Tc0  1  0.68348613  0.50000000  0.18348613  1
  Tc  Tc1  1  0.31651387  0.50000000  0.81651387  1
  Ni  Ni0  1  0.87756646  0.87756646  1.00000000  1
  Ni  Ni1  1  0.12243354  0.12243354  0.00000000  1
loop_
_geom_bond_atom_site_label_1
_geom_bond_atom_site_label_2
_geom_bond_distance
_geom_bond_site_symmetry_2
Sc0 Tc0 2.606986 1_455
Sc0 Sc7 3.228087 1_454
Sc0 Sc4 3.228092 1_455
Sc0 Sc8 3.254183 1_565
Sc0 Sc10 3.254186 1_554
Sc0 Sc6 3.313011 1_565
Sc0 Sc5 3.313013 1_555
Sc0 Sc11 3.422510 1_455
Sc0 Sc9 3.422516 1_455
Sc0 Sc3 3.474383 1_555
Sc1 Tc1 2.606986 1_655
Sc1 Sc5 3.228087 1_656
Sc1 Sc6 3.228092 1_655
Sc1 Sc11 3.254183 1_545
Sc1 Sc9 3.254186 1_556
Sc1 Sc4 3.313011 1_545
Sc1 Sc7 3.313013 1_555
Sc1 Sc8 3.422510 1_655
Sc1 Sc10 3.422516 1_655
Sc1 Sc2 3.474383 1_555
Sc2 Tc0 2.606984 1_555
Sc2 Sc6 3.228085 1_554
Sc2 Sc5 3.228092 1_555
Sc2 Sc8 3.254198 1_555
Sc2 Sc4 3.313002 1_545
Sc2 Sc7 3.313016 1_555
Sc2 Sc9 3.422510 1_555
Sc3 Tc1 2.606984 1_555
Sc3 Sc4 3.228085 1_556
Sc3 Sc7 3.228092 1_555
Sc3 Sc9 3.254188 1_566
Sc3 Sc6 3.313002 1_565
Sc3 Sc5 3.313016 1_555
Sc3 Sc8 3.422516 1_555
Sc4 Tc1 2.805174 1_554
Sc4 Tc0 2.805180 1_555
Sc4 Sc7 3.192359 1_554
Sc4 Sc5 3.263731 1_555
Sc4 Sc9 3.603775 1_565
Sc4 Sc8 3.603776 1_665
Sc5 Tc0 2.805172 1_555
Sc5 Tc1 2.805172 1_554
Sc5 Sc6 3.192359 1_554
Sc5 Sc9 3.603781 1_455
Sc5 Sc8 3.603788 1_555
Sc6 Tc0 2.805174 1_556
Sc6 Tc1 2.805180 1_555
Sc6 Sc7 3.263731 1_555
Sc6 Sc9 3.369040 1_556
Sc6 Sc8 3.369041 1_555
Sc7 Tc1 2.805172 1_555
Sc7 Tc0 2.805172 1_556
Sc7 Sc8 3.369040 1_555
Sc7 Sc9 3.369043 1_556
Sc8 Tc1 2.733124 1_555
Sc9 Tc0 2.733129 1_555
Sc10 Tc1 2.733129 1_555
Sc10 Sc2 3.254188 1_566
Sc10 Sc4 3.369040 1_556
Sc10 Sc5 3.369043 1_556
Sc10 Sc3 3.422510 1_555
Sc10 Sc6 3.603775 1_565
Sc10 Sc7 3.603781 1_455
Sc11 Tc0 2.733124 1_555
Sc11 Sc3 3.254198 1_555
Sc11 Sc5 3.369040 1_555
Sc11 Sc4 3.369041 1_555
Sc11 Sc2 3.422516 1_555
Sc11 Sc6 3.603776 1_665
Sc11 Sc7 3.603788 1_555
Al0 Tc1 2.812456 1_555
Al0 Tc0 2.812456 1_455
Al0 Sc3 2.942446 1_555
Al0 Sc2 2.942446 1_455
Al0 Sc1 2.942453 1_455
Al0 Sc0 2.942453 1_555
Al0 Sc11 2.950070 1_455
Al0 Sc8 2.950070 1_555
Al0 Sc9 2.950071 1_455
Al0 Sc10 2.950071 1_555
Al1 Sc1 3.015542 1_555
Al1 Sc0 3.015542 1_545
Al1 Sc2 3.015544 1_555
Al1 Sc3 3.015544 1_545
Al1 Sc6 3.150756 1_555
Al1 Sc4 3.150756 1_545
Al1 Sc5 3.150757 1_545
Al1 Sc7 3.150757 1_555
Al1 Sc11 3.359333 1_545
Al1 Sc8 3.359333 1_555
Al1 Sc10 3.359334 1_544
Al1 Sc9 3.359334 1_556
Ni0 Ni1 2.370211 1_666
Ni0 Sc4 2.576740 1_556
Ni0 Sc7 2.576741 1_555
Ni0 Sc10 2.719115 1_655
Ni0 Sc9 2.719115 1_566
Ni0 Sc8 2.719118 1_666
Ni0 Sc11 2.719123 1_555
Ni0 Sc0 2.993073 1_656
Ni0 Sc3 2.993079 1_555
Ni1 Sc6 2.576740 1_554
Ni1 Sc5 2.576741 1_555
Ni1 Sc9 2.719115 1_455
Ni1 Sc10 2.719115 1_544
Ni1 Sc11 2.719118 1_444
Ni1 Sc8 2.719123 1_555
Ni1 Sc1 2.993073 1_454
Ni1 Sc2 2.993079 1_555
