# generated using pymatgen
data_RbBaSbSe3
_symmetry_space_group_name_H-M   'P 1'
_cell_length_a   9.34285109
_cell_length_b   9.79197806
_cell_length_c   9.56074587
_cell_angle_alpha   72.25987082
_cell_angle_beta   90.00000000
_cell_angle_gamma   90.00000000
_symmetry_Int_Tables_number   1
_chemical_formula_structural   RbBaSbSe3
_chemical_formula_sum   'Rb4 Ba4 Sb4 Se12'
_cell_volume   833.07297717
_cell_formula_units_Z   4
loop_
 _symmetry_equiv_pos_site_id
 _symmetry_equiv_pos_as_xyz
  1  'x, y, z'
loop_
 _atom_site_type_symbol
 _atom_site_label
 _atom_site_symmetry_multiplicity
 _atom_site_fract_x
 _atom_site_fract_y
 _atom_site_fract_z
 _atom_site_occupancy
  Rb  Rb0  1  0.08566133  0.58802171  0.28991585  1
  Rb  Rb1  1  0.58566133  0.41197829  0.21008415  1
  Rb  Rb2  1  0.91433867  0.41197829  0.71008415  1
  Rb  Rb3  1  0.41433867  0.58802171  0.78991585  1
  Ba  Ba0  1  0.71423231  0.91948419  0.03413597  1
  Ba  Ba1  1  0.21423231  0.08051581  0.46586403  1
  Ba  Ba2  1  0.28576769  0.08051581  0.96586403  1
  Ba  Ba3  1  0.78576769  0.91948419  0.53413597  1
  Sb  Sb0  1  0.45260513  0.75485071  0.36478019  1
  Sb  Sb1  1  0.95260513  0.24514929  0.13521981  1
  Sb  Sb2  1  0.54739487  0.24514929  0.63521981  1
  Sb  Sb3  1  0.04739487  0.75485071  0.86478019  1
  Se  Se0  1  0.20639723  0.34817053  0.09854097  1
  Se  Se1  1  0.70639723  0.65182947  0.40145903  1
  Se  Se2  1  0.79360277  0.65182947  0.90145903  1
  Se  Se3  1  0.29360277  0.34817053  0.59854097  1
  Se  Se4  1  0.01275470  0.97205037  0.22057738  1
  Se  Se5  1  0.51275470  0.02794963  0.27942262  1
  Se  Se6  1  0.98724530  0.02794963  0.77942262  1
  Se  Se7  1  0.48724530  0.97205037  0.72057738  1
  Se  Se8  1  0.39887762  0.73827309  0.10846530  1
  Se  Se9  1  0.89887762  0.26172691  0.39153470  1
  Se  Se10  1  0.60112238  0.26172691  0.89153470  1
  Se  Se11  1  0.10112238  0.73827309  0.60846530  1
loop_
_geom_bond_atom_site_label_1
_geom_bond_atom_site_label_2
_geom_bond_distance
_geom_bond_site_symmetry_2
Rb0 Se8 3.490296 1_555
Rb0 Se9 3.507999 1_455
Rb0 Se0 3.571403 1_555
Rb0 Se4 3.677621 1_555
Rb0 Se3 3.711297 1_555
Rb0 Se11 3.767171 1_555
Rb0 Se1 3.806502 1_455
Rb0 Sb3 3.907832 1_554
Rb0 Sb0 3.955592 1_555
Rb1 Se9 3.490296 1_555
Rb1 Se8 3.507999 1_555
Rb1 Se1 3.571403 1_555
Rb1 Se5 3.677621 1_555
Rb1 Se2 3.711297 1_554
Rb1 Se10 3.767171 1_554
Rb1 Se0 3.806502 1_555
Rb1 Sb2 3.907832 1_555
Rb1 Sb1 3.955592 1_555
Rb2 Se10 3.490296 1_555
Rb2 Se11 3.507999 1_655
Rb2 Se2 3.571403 1_555
Rb2 Se6 3.677621 1_555
Rb2 Se1 3.711297 1_555
Rb2 Se9 3.767171 1_555
Rb2 Se3 3.806502 1_655
Rb2 Sb1 3.907832 1_556
Rb2 Sb2 3.955592 1_555
Rb3 Se11 3.490296 1_555
Rb3 Se10 3.507999 1_555
Rb3 Se3 3.571403 1_555
Rb3 Se7 3.677621 1_555
Rb3 Se0 3.711297 1_556
Rb3 Se8 3.767171 1_556
Rb3 Se2 3.806502 1_555
Rb3 Sb0 3.907832 1_555
Rb3 Sb3 3.955592 1_555
Ba0 Se2 3.324740 1_554
Ba0 Se10 3.379641 1_564
Ba0 Se8 3.400864 1_555
Ba0 Se5 3.418894 1_565
Ba0 Se4 3.432237 1_655
Ba0 Se6 3.462436 1_564
Ba0 Se7 3.578982 1_554
Ba0 Se1 3.687628 1_555
Ba1 Se3 3.324740 1_555
Ba1 Se11 3.379641 1_545
Ba1 Se9 3.400864 1_455
Ba1 Se4 3.418894 1_545
Ba1 Se5 3.432237 1_555
Ba1 Se7 3.462436 1_545
Ba1 Se6 3.578982 1_455
Ba1 Se0 3.687628 1_555
Ba2 Se0 3.324740 1_556
Ba2 Se8 3.379641 1_546
Ba2 Se10 3.400864 1_555
Ba2 Se7 3.418894 1_545
Ba2 Se6 3.432237 1_455
Ba2 Se4 3.462436 1_546
Ba2 Se5 3.578982 1_556
Ba2 Se3 3.687628 1_555
Ba3 Se1 3.324740 1_555
Ba3 Se9 3.379641 1_565
Ba3 Se11 3.400864 1_655
Ba3 Se6 3.418894 1_565
Ba3 Se7 3.432237 1_555
Ba3 Se5 3.462436 1_565
Ba3 Se4 3.578982 1_655
Ba3 Se2 3.687628 1_555
Sb0 Se8 2.554602 1_555
Sb0 Se1 2.558779 1_555
Sb0 Se5 2.608276 1_565
Sb1 Se9 2.554602 1_555
Sb1 Se0 2.558779 1_655
Sb1 Se4 2.608276 1_645
Sb2 Se10 2.554602 1_555
Sb2 Se3 2.558779 1_555
Sb2 Se7 2.608276 1_545
Sb3 Se11 2.554602 1_555
Sb3 Se2 2.558779 1_455
Sb3 Se6 2.608276 1_465
