# generated using pymatgen
data_Sr2Si6Ni3Pt7
_symmetry_space_group_name_H-M   'P 1'
_cell_length_a   6.44440153
_cell_length_b   6.44440082
_cell_length_c   12.42639795
_cell_angle_alpha   89.45506909
_cell_angle_beta   90.54493100
_cell_angle_gamma   145.37710458
_symmetry_Int_Tables_number   1
_chemical_formula_structural   Sr2Si6Ni3Pt7
_chemical_formula_sum   'Sr2 Si6 Ni3 Pt7'
_cell_volume   293.20349919
_cell_formula_units_Z   1
loop_
 _symmetry_equiv_pos_site_id
 _symmetry_equiv_pos_as_xyz
  1  'x, y, z'
loop_
 _atom_site_type_symbol
 _atom_site_label
 _atom_site_symmetry_multiplicity
 _atom_site_fract_x
 _atom_site_fract_y
 _atom_site_fract_z
 _atom_site_occupancy
  Sr  Sr0  1  0.15992349  0.84007651  0.25120250  1
  Sr  Sr1  1  0.83799361  0.16200639  0.75037027  1
  Si  Si0  1  0.89052755  0.10947245  0.25133260  1
  Si  Si1  1  0.10620366  0.89379634  0.74344444  1
  Si  Si2  1  0.38600438  0.61399562  0.96061375  1
  Si  Si3  1  0.61337877  0.38662123  0.03202457  1
  Si  Si4  1  0.61400878  0.38599122  0.46910134  1
  Si  Si5  1  0.39046357  0.60953643  0.54358789  1
  Ni  Ni0  1  0.99835527  0.00164473  0.51130415  1
  Ni  Ni1  1  0.99829499  0.00170501  0.99500008  1
  Ni  Ni2  1  0.55328194  0.44671806  0.63907546  1
  Pt  Pt0  1  0.45388724  0.54611276  0.36070001  1
  Pt  Pt1  1  0.45617387  0.54382613  0.14179510  1
  Pt  Pt2  1  0.79918436  0.20081564  0.07112909  1
  Pt  Pt3  1  0.19901738  0.80098262  0.92693406  1
  Pt  Pt4  1  0.19968929  0.80031071  0.57338852  1
  Pt  Pt5  1  0.79977364  0.20022636  0.43194398  1
  Pt  Pt6  1  0.54383422  0.45616578  0.84705118  1
loop_
_geom_bond_atom_site_label_1
_geom_bond_atom_site_label_2
_geom_bond_distance
_geom_bond_site_symmetry_2
Si0 Sr0 3.314922 1_645
Si0 Sr0 3.424769 1_655
Si0 Sr0 3.424770 1_545
Si1 Sr1 3.302292 1_465
Si1 Sr1 3.437248 1_455
Si1 Sr1 3.437249 1_565
Si2 Sr1 3.289542 1_565
Si2 Sr1 3.289543 1_455
Si3 Sr0 3.375235 1_545
Si3 Sr0 3.375235 1_655
Si4 Sr0 3.370255 1_545
Si4 Sr0 3.370255 1_655
Si5 Sr1 3.275646 1_565
Si5 Sr1 3.275646 1_455
Ni0 Si5 2.368837 1_655
Ni0 Si5 2.368838 1_545
Ni0 Si4 2.447949 1_545
Ni0 Si4 2.447949 1_655
Ni0 Ni2 2.575586 1_545
Ni0 Ni2 2.575586 1_655
Ni0 Pt4 2.587403 1_645
Ni0 Pt5 2.625906 1_555
Ni0 Pt0 2.731062 1_655
Ni0 Pt0 2.731063 1_545
Ni1 Si2 2.399440 1_655
Ni1 Si2 2.399441 1_545
Ni1 Si3 2.425149 1_546
Ni1 Si3 2.425150 1_656
Ni1 Pt3 2.618651 1_645
Ni1 Pt2 2.635118 1_556
Ni1 Pt1 2.700416 1_656
Ni1 Pt1 2.700416 1_546
Ni1 Pt6 2.718790 1_545
Ni1 Pt6 2.718790 1_655
Ni2 Si4 2.247456 1_555
Ni2 Si5 2.318293 1_555
Ni2 Si1 2.401370 1_545
Ni2 Si1 2.401370 1_655
Ni2 Pt6 2.588159 1_555
Ni2 Pt4 2.760147 1_545
Ni2 Pt4 2.760147 1_655
Ni2 Sr1 3.561009 1_565
Ni2 Sr1 3.561009 1_455
Ni2 Sr1 3.753625 1_555
Pt0 Si4 2.375641 1_555
Pt0 Si5 2.410245 1_555
Pt0 Si0 2.472051 1_565
Pt0 Si0 2.472051 1_455
Pt0 Sr0 3.467711 1_545
Pt0 Sr0 3.467711 1_655
Pt1 Si3 2.378048 1_555
Pt1 Si2 2.403275 1_554
Pt1 Si0 2.490877 1_565
Pt1 Si0 2.490877 1_455
Pt1 Sr0 3.426872 1_545
Pt1 Sr0 3.426873 1_655
Pt2 Si3 2.332658 1_555
Pt2 Si0 2.495506 1_555
Pt2 Si2 2.594960 1_544
Pt2 Si2 2.594960 1_654
Pt2 Sr0 3.420127 1_655
Pt2 Sr0 3.420128 1_545
Pt3 Si2 2.334515 1_555
Pt3 Si1 2.539953 1_555
Pt3 Si3 2.553536 1_566
Pt3 Si3 2.553537 1_456
Pt3 Sr1 3.389744 1_455
Pt3 Sr1 3.389744 1_565
Pt4 Si5 2.380140 1_555
Pt4 Si1 2.416040 1_555
Pt4 Si4 2.537917 1_565
Pt4 Si4 2.537917 1_455
Pt4 Sr1 3.366845 1_455
Pt4 Sr1 3.366845 1_565
Pt5 Si4 2.336501 1_555
Pt5 Si0 2.516765 1_555
Pt5 Si5 2.610837 1_545
Pt5 Si5 2.610837 1_655
Pt5 Sr0 3.406757 1_655
Pt5 Sr0 3.406757 1_545
Pt6 Si2 2.411996 1_555
Pt6 Si1 2.437936 1_545
Pt6 Si1 2.437936 1_655
Pt6 Si3 2.444678 1_556
Pt6 Sr1 3.387538 1_565
Pt6 Sr1 3.387539 1_455
