# generated using pymatgen
data_Ta2Sn2Pb4O13
_symmetry_space_group_name_H-M   'P 1'
_cell_length_a   7.53288408
_cell_length_b   7.53288496
_cell_length_c   7.53288474
_cell_angle_alpha   120.48184009
_cell_angle_beta   119.97191087
_cell_angle_gamma   89.60806189
_symmetry_Int_Tables_number   1
_chemical_formula_structural   Ta2Sn2Pb4O13
_chemical_formula_sum   'Ta2 Sn2 Pb4 O13'
_cell_volume   301.20017919
_cell_formula_units_Z   1
loop_
 _symmetry_equiv_pos_site_id
 _symmetry_equiv_pos_as_xyz
  1  'x, y, z'
loop_
 _atom_site_type_symbol
 _atom_site_label
 _atom_site_symmetry_multiplicity
 _atom_site_fract_x
 _atom_site_fract_y
 _atom_site_fract_z
 _atom_site_occupancy
  Ta  Ta0  1  0.25111021  0.50157706  0.74953316  1
  Ta  Ta1  1  0.75204290  0.50157706  0.25046684  1
  Sn  Sn0  1  0.25095174  0.50145614  0.25050439  1
  Sn  Sn1  1  0.25095174  0.00044635  0.74949561  1
  Pb  Pb0  1  0.75927843  0.01592849  0.25664905  1
  Pb  Pb1  1  0.75927843  0.50263038  0.74335095  1
  Pb  Pb2  1  0.75049728  0.00279513  0.74770215  1
  Pb  Pb3  1  0.25509398  0.00279513  0.25229785  1
  O  O0  1  0.17185350  0.17185350  0.00000000  1
  O  O1  1  0.55482201  0.55482201  1.00000000  1
  O  O2  1  0.16844761  0.56897889  0.98878008  1
  O  O3  1  0.58019881  0.17966753  0.01121992  1
  O  O4  1  0.16844761  0.17966753  0.59946872  1
  O  O5  1  0.58019881  0.56897889  0.40053128  1
  O  O6  1  0.32748543  0.82748543  0.50000000  1
  O  O7  1  0.93227245  0.43227245  0.50000000  1
  O  O8  1  0.31633254  0.43291587  0.50648580  1
  O  O9  1  0.92643006  0.80984674  0.49351420  1
  O  O10  1  0.31633254  0.80984674  0.88341667  1
  O  O11  1  0.92643006  0.43291587  0.11658333  1
  O  O12  1  0.87654682  0.87654682  1.00000000  1
loop_
_geom_bond_atom_site_label_1
_geom_bond_atom_site_label_2
_geom_bond_distance
_geom_bond_site_symmetry_2
O0 Sn0 2.055239 1_555
O0 Sn1 2.055241 1_554
O0 Pb3 2.623139 1_555
O0 Pb2 2.623139 1_454
O1 Ta1 1.971481 1_556
O1 Ta0 1.971483 1_555
O2 Ta0 2.020428 1_555
O2 Sn0 2.078637 1_556
O2 Pb1 2.560861 1_455
O2 Pb3 2.683094 1_566
O3 Ta1 2.020426 1_555
O3 Sn1 2.078638 1_554
O3 Pb0 2.560854 1_555
O3 Pb2 2.683095 1_554
O4 Ta0 2.020428 1_555
O4 Sn1 2.078644 1_555
O4 Pb0 2.560860 1_455
O4 Pb3 2.683100 1_555
O5 Ta1 2.020421 1_555
O5 Sn0 2.078636 1_555
O5 Pb1 2.560855 1_555
O5 Pb2 2.683095 1_565
O6 Sn1 2.037202 1_565
O6 Sn0 2.037203 1_555
O6 Pb2 2.645061 1_565
O6 Pb3 2.645062 1_565
O7 Ta0 2.021168 1_655
O7 Ta1 2.021169 1_555
O7 Pb0 2.594441 1_555
O7 Pb1 2.594446 1_555
O8 Ta0 1.948198 1_555
O8 Sn0 2.070043 1_555
O8 Pb3 2.687170 1_555
O8 Pb1 2.778057 1_555
O9 Ta1 1.948200 1_555
O9 Sn1 2.070041 1_665
O9 Pb2 2.687168 1_565
O9 Pb0 2.778065 1_565
O10 Ta0 1.948198 1_555
O10 Sn1 2.070036 1_565
O10 Pb3 2.687163 1_566
O10 Pb0 2.778058 1_566
O11 Ta1 1.948205 1_555
O11 Sn0 2.070043 1_655
O11 Pb2 2.687168 1_554
O11 Pb1 2.778064 1_554
O12 Pb1 2.292313 1_555
O12 Pb0 2.292319 1_566
O12 Pb2 2.331590 1_565
O12 Pb3 2.331596 1_666
