# generated using pymatgen
data_TcP2O7
_symmetry_space_group_name_H-M   'P 1'
_cell_length_a   5.09921543
_cell_length_b   6.66598462
_cell_length_c   8.23670492
_cell_angle_alpha   69.37144021
_cell_angle_beta   88.11674200
_cell_angle_gamma   88.16544040
_symmetry_Int_Tables_number   1
_chemical_formula_structural   TcP2O7
_chemical_formula_sum   'Tc2 P4 O14'
_cell_volume   261.82125570
_cell_formula_units_Z   2
loop_
 _symmetry_equiv_pos_site_id
 _symmetry_equiv_pos_as_xyz
  1  'x, y, z'
loop_
 _atom_site_type_symbol
 _atom_site_label
 _atom_site_symmetry_multiplicity
 _atom_site_fract_x
 _atom_site_fract_y
 _atom_site_fract_z
 _atom_site_occupancy
  Tc  Tc0  1  0.75900276  0.79243038  0.26932292  1
  Tc  Tc1  1  0.24099724  0.20756962  0.73067708  1
  P  P0  1  0.27975472  0.45527082  0.30902230  1
  P  P1  1  0.72024528  0.54472918  0.69097770  1
  P  P2  1  0.24130349  0.10950039  0.16710509  1
  P  P3  1  0.75869651  0.89049961  0.83289491  1
  O  O0  1  0.56444070  0.04314747  0.71083950  1
  O  O1  1  0.95985536  0.05780868  0.23028087  1
  O  O2  1  0.04014464  0.94219132  0.76971913  1
  O  O3  1  0.09212703  0.64396065  0.23878530  1
  O  O4  1  0.18621796  0.28868119  0.47769238  1
  O  O5  1  0.28761237  0.34301897  0.16790267  1
  O  O6  1  0.29000492  0.12716116  0.98205849  1
  O  O7  1  0.43555930  0.95685253  0.28916050  1
  O  O8  1  0.81378204  0.71131881  0.52230762  1
  O  O9  1  0.55811327  0.52440347  0.31552439  1
  O  O10  1  0.90787297  0.35603935  0.76121470  1
  O  O11  1  0.70999508  0.87283884  0.01794151  1
  O  O12  1  0.71238763  0.65698103  0.83209733  1
  O  O13  1  0.44188673  0.47559653  0.68447561  1
loop_
_geom_bond_atom_site_label_1
_geom_bond_atom_site_label_2
_geom_bond_distance
_geom_bond_site_symmetry_2
O0 P3 1.519015 1_545
O0 Tc1 1.985181 1_555
O1 P2 1.518369 1_655
O1 Tc0 1.993812 1_545
O2 P3 1.518369 1_455
O2 Tc1 1.993812 1_565
O3 P0 1.509549 1_555
O3 Tc0 1.991968 1_455
O4 P0 1.514621 1_555
O4 Tc1 1.986743 1_555
O5 P2 1.584219 1_555
O5 P0 1.587596 1_555
O6 P2 1.499733 1_556
O6 Tc1 1.969868 1_555
O7 P2 1.519015 1_565
O7 Tc0 1.985181 1_555
O8 P1 1.514621 1_555
O8 Tc0 1.986743 1_555
O9 P0 1.514672 1_555
O9 Tc0 1.999705 1_555
O10 P1 1.509549 1_555
O10 Tc1 1.991968 1_655
O11 P3 1.499733 1_554
O11 Tc0 1.969868 1_555
O12 P3 1.584219 1_555
O12 P1 1.587596 1_555
O13 P1 1.514672 1_555
O13 Tc1 1.999705 1_555
