# generated using pymatgen
data_Ba5Ru2I2O9
_symmetry_space_group_name_H-M   'P 1'
_cell_length_a   5.90639355
_cell_length_b   5.90639385
_cell_length_c   27.05147322
_cell_angle_alpha   90.00000000
_cell_angle_beta   90.00000000
_cell_angle_gamma   120.00000372
_symmetry_Int_Tables_number   1
_chemical_formula_structural   Ba5Ru2I2O9
_chemical_formula_sum   'Ba10 Ru4 I4 O18'
_cell_volume   817.27143891
_cell_formula_units_Z   2
loop_
 _symmetry_equiv_pos_site_id
 _symmetry_equiv_pos_as_xyz
  1  'x, y, z'
loop_
 _atom_site_type_symbol
 _atom_site_label
 _atom_site_symmetry_multiplicity
 _atom_site_fract_x
 _atom_site_fract_y
 _atom_site_fract_z
 _atom_site_occupancy
  Ba  Ba0  1  0.33333300  0.66666700  0.90564692  1
  Ba  Ba1  1  0.66666700  0.33333300  0.40564692  1
  Ba  Ba2  1  0.66666700  0.33333300  0.09435308  1
  Ba  Ba3  1  0.33333300  0.66666700  0.17719021  1
  Ba  Ba4  1  0.66666700  0.33333300  0.67719021  1
  Ba  Ba5  1  0.33333300  0.66666700  0.32280979  1
  Ba  Ba6  1  0.66666700  0.33333300  0.82280979  1
  Ba  Ba7  1  0.66666700  0.33333300  0.25000000  1
  Ba  Ba8  1  0.33333300  0.66666700  0.59435308  1
  Ba  Ba9  1  0.33333300  0.66666700  0.75000000  1
  Ru  Ru0  1  0.00000000  0.00000000  0.80222807  1
  Ru  Ru1  1  0.00000000  0.00000000  0.30222807  1
  Ru  Ru2  1  0.00000000  0.00000000  0.69777193  1
  Ru  Ru3  1  0.00000000  0.00000000  0.19777193  1
  I  I0  1  0.33333300  0.66666700  0.45361911  1
  I  I1  1  0.33333300  0.66666700  0.04638089  1
  I  I2  1  0.66666700  0.33333300  0.54638089  1
  I  I3  1  0.66666700  0.33333300  0.95361911  1
  O  O0  1  0.15914381  0.84085619  0.66308097  1
  O  O1  1  0.68171238  0.84085619  0.83691903  1
  O  O2  1  0.15914381  0.31828762  0.66308097  1
  O  O3  1  0.85002949  0.14997051  0.75000000  1
  O  O4  1  0.29994003  0.14997051  0.75000000  1
  O  O5  1  0.14997051  0.29994003  0.25000000  1
  O  O6  1  0.14997051  0.85002949  0.25000000  1
  O  O7  1  0.70005997  0.85002949  0.25000000  1
  O  O8  1  0.84085619  0.15914381  0.33691903  1
  O  O9  1  0.31828762  0.15914381  0.16308097  1
  O  O10  1  0.85002949  0.70005997  0.75000000  1
  O  O11  1  0.84085619  0.68171238  0.16308097  1
  O  O12  1  0.31828762  0.15914381  0.33691903  1
  O  O13  1  0.84085619  0.15914381  0.16308097  1
  O  O14  1  0.15914381  0.31828762  0.83691903  1
  O  O15  1  0.84085619  0.68171238  0.33691903  1
  O  O16  1  0.68171238  0.84085619  0.66308097  1
  O  O17  1  0.15914381  0.84085619  0.83691903  1
loop_
_geom_bond_atom_site_label_1
_geom_bond_atom_site_label_2
_geom_bond_distance
_geom_bond_site_symmetry_2
Ba0 O17 2.575279 1_555
Ba0 O1 2.575282 1_555
Ba0 O14 2.575283 1_555
Ba0 I3 3.648636 1_455
Ba0 I3 3.648636 1_565
Ba0 I3 3.648646 1_555
Ba0 I1 3.807061 1_556
Ba1 O8 2.575279 1_555
Ba1 O12 2.575282 1_555
Ba1 O15 2.575283 1_555
Ba1 I0 3.648636 1_655
Ba1 I0 3.648636 1_545
Ba1 I0 3.648646 1_555
Ba1 I2 3.807061 1_555
Ba2 O13 2.575279 1_555
Ba2 O9 2.575282 1_555
Ba2 O11 2.575283 1_555
Ba2 I1 3.648636 1_655
Ba2 I1 3.648636 1_545
Ba2 I1 3.648646 1_555
Ba2 I3 3.807061 1_554
Ba3 O6 2.719947 1_555
Ba3 O7 2.719954 1_555
Ba3 O5 2.719954 1_555
Ba3 O11 2.978750 1_455
Ba3 O9 2.978750 1_565
Ba3 O13 2.978753 1_565
Ba3 O13 2.978753 1_455
Ba3 O11 2.978756 1_555
Ba3 O9 2.978756 1_555
Ba3 I1 3.538585 1_555
Ba4 O3 2.719947 1_555
Ba4 O4 2.719954 1_555
Ba4 O10 2.719954 1_555
Ba4 O2 2.978750 1_655
Ba4 O16 2.978750 1_545
Ba4 O0 2.978753 1_545
Ba4 O0 2.978753 1_655
Ba4 O2 2.978756 1_555
Ba4 O16 2.978756 1_555
Ba4 I2 3.538585 1_555
Ba5 O6 2.719947 1_555
Ba5 O7 2.719954 1_555
Ba5 O5 2.719954 1_555
Ba5 O15 2.978750 1_455
Ba5 O12 2.978750 1_565
Ba5 O8 2.978753 1_565
Ba5 O8 2.978753 1_455
Ba5 O15 2.978756 1_555
Ba5 O12 2.978756 1_555
Ba5 I0 3.538585 1_555
Ba6 O3 2.719947 1_555
Ba6 O4 2.719954 1_555
Ba6 O10 2.719954 1_555
Ba6 O14 2.978750 1_655
Ba6 O1 2.978750 1_545
Ba6 O17 2.978753 1_545
Ba6 O17 2.978753 1_655
Ba6 O14 2.978756 1_555
Ba6 O1 2.978756 1_555
Ba6 I3 3.538585 1_555
Ba7 O8 2.950259 1_555
Ba7 O13 2.950259 1_555
Ba7 O12 2.950262 1_555
Ba7 O9 2.950262 1_555
Ba7 O15 2.950262 1_555
Ba7 O11 2.950262 1_555
Ba7 O6 2.958132 1_545
Ba7 O6 2.958132 1_655
Ba7 O5 2.958132 1_555
Ba7 O5 2.958132 1_655
Ba7 O7 2.958132 1_555
Ba7 O7 2.958132 1_545
Ba8 O0 2.575279 1_555
Ba8 O16 2.575282 1_555
Ba8 O2 2.575283 1_555
Ba8 I2 3.648636 1_455
Ba8 I2 3.648636 1_565
Ba8 I2 3.648646 1_555
Ba8 I0 3.807061 1_555
Ba9 O17 2.950259 1_555
Ba9 O0 2.950259 1_555
Ba9 O1 2.950262 1_555
Ba9 O16 2.950262 1_555
Ba9 O14 2.950262 1_555
Ba9 O2 2.950262 1_555
Ba9 O3 2.958132 1_565
Ba9 O3 2.958132 1_455
Ba9 O10 2.958132 1_555
Ba9 O10 2.958132 1_455
Ba9 O4 2.958132 1_555
Ba9 O4 2.958132 1_565
O0 Ru2 1.879170 1_565
O1 Ru0 1.879170 1_665
O2 Ru2 1.879170 1_555
O3 Ru0 2.085660 1_655
O3 Ru2 2.085660 1_655
O4 Ru0 2.085657 1_555
O4 Ru2 2.085657 1_555
O5 Ru1 2.085657 1_555
O5 Ru3 2.085657 1_555
O6 Ru1 2.085660 1_565
O6 Ru3 2.085660 1_565
O7 Ru1 2.085657 1_665
O7 Ru3 2.085657 1_665
O8 Ru1 1.879170 1_655
O9 Ru3 1.879170 1_555
O10 Ru0 2.085657 1_665
O10 Ru2 2.085657 1_665
O11 Ru3 1.879170 1_665
O12 Ru1 1.879170 1_555
O13 Ru3 1.879170 1_655
O14 Ru0 1.879170 1_555
O15 Ru1 1.879170 1_665
O16 Ru2 1.879170 1_665
O17 Ru0 1.879170 1_565
