# generated using pymatgen
data_Y6Sb7AsRh16
_symmetry_space_group_name_H-M   'P 1'
_cell_length_a   9.10353204
_cell_length_b   9.10353159
_cell_length_c   9.10353223
_cell_angle_alpha   60.00000120
_cell_angle_beta   60.00000284
_cell_angle_gamma   59.99999820
_symmetry_Int_Tables_number   1
_chemical_formula_structural   Y6Sb7AsRh16
_chemical_formula_sum   'Y6 Sb7 As1 Rh16'
_cell_volume   533.47586015
_cell_formula_units_Z   1
loop_
 _symmetry_equiv_pos_site_id
 _symmetry_equiv_pos_as_xyz
  1  'x, y, z'
loop_
 _atom_site_type_symbol
 _atom_site_label
 _atom_site_symmetry_multiplicity
 _atom_site_fract_x
 _atom_site_fract_y
 _atom_site_fract_z
 _atom_site_occupancy
  Y  Y0  1  0.71587949  0.28412051  0.28412051  1
  Y  Y1  1  0.28412051  0.71587949  0.71587949  1
  Y  Y2  1  0.28412051  0.71587949  0.28412051  1
  Y  Y3  1  0.71587949  0.28412051  0.71587949  1
  Y  Y4  1  0.28412051  0.28412051  0.71587949  1
  Y  Y5  1  0.71587949  0.71587949  0.28412051  1
  Sb  Sb0  1  0.00000000  0.00000000  0.00000000  1
  Sb  Sb1  1  0.50000000  0.00000000  0.00000000  1
  Sb  Sb2  1  0.00000000  0.50000000  0.50000000  1
  Sb  Sb3  1  0.00000000  0.50000000  0.00000000  1
  Sb  Sb4  1  0.50000000  0.00000000  0.50000000  1
  Sb  Sb5  1  0.00000000  0.00000000  0.50000000  1
  Sb  Sb6  1  0.50000000  0.50000000  0.00000000  1
  As  As0  1  0.50000000  0.50000000  0.50000000  1
  Rh  Rh0  1  0.11997234  0.11997234  0.11997234  1
  Rh  Rh1  1  0.88002766  0.88002766  0.88002766  1
  Rh  Rh2  1  0.11997234  0.11997234  0.64008198  1
  Rh  Rh3  1  0.11997234  0.64008198  0.11997234  1
  Rh  Rh4  1  0.88002766  0.88002766  0.35991802  1
  Rh  Rh5  1  0.88002766  0.35991802  0.88002766  1
  Rh  Rh6  1  0.64008198  0.11997234  0.11997234  1
  Rh  Rh7  1  0.35991802  0.88002766  0.88002766  1
  Rh  Rh8  1  0.33216407  0.33216407  0.33216407  1
  Rh  Rh9  1  0.66783593  0.66783593  0.66783593  1
  Rh  Rh10  1  0.33216407  0.33216407  0.00350880  1
  Rh  Rh11  1  0.33216407  0.00350880  0.33216407  1
  Rh  Rh12  1  0.66783593  0.66783593  0.99649120  1
  Rh  Rh13  1  0.66783593  0.99649120  0.66783593  1
  Rh  Rh14  1  0.00350880  0.33216407  0.33216407  1
  Rh  Rh15  1  0.99649120  0.66783593  0.66783593  1
loop_
_geom_bond_atom_site_label_1
_geom_bond_atom_site_label_2
_geom_bond_distance
_geom_bond_site_symmetry_2
Sb1 Y4 3.248423 1_554
Sb1 Y5 3.248423 1_545
Sb1 Y2 3.248423 1_545
Sb1 Y3 3.248423 1_554
Sb2 Y5 3.248423 1_455
Sb2 Y4 3.248423 1_555
Sb2 Y3 3.248423 1_455
Sb2 Y2 3.248423 1_555
Sb3 Y4 3.248423 1_554
Sb3 Y5 3.248423 1_455
Sb3 Y0 3.248423 1_455
Sb3 Y1 3.248423 1_554
Sb4 Y5 3.248423 1_545
Sb4 Y4 3.248423 1_555
Sb4 Y1 3.248423 1_545
Sb4 Y0 3.248423 1_555
Sb5 Y2 3.248423 1_545
Sb5 Y3 3.248423 1_455
Sb5 Y0 3.248423 1_455
Sb5 Y1 3.248423 1_545
Sb6 Y1 3.248423 1_554
Sb6 Y0 3.248423 1_555
Sb6 Y3 3.248423 1_554
Sb6 Y2 3.248423 1_555
As0 Y2 2.779306 1_555
As0 Y0 2.779306 1_555
As0 Y3 2.779306 1_555
As0 Y1 2.779306 1_555
As0 Y4 2.779306 1_555
As0 Y5 2.779306 1_555
Rh0 Sb0 2.675264 1_555
Rh0 Sb3 2.826723 1_555
Rh0 Sb1 2.826724 1_555
Rh0 Sb5 2.826724 1_555
Rh0 Y2 3.039308 1_545
Rh0 Y0 3.039308 1_455
Rh0 Y4 3.039308 1_554
Rh1 Sb0 2.675264 1_666
Rh1 Sb3 2.826723 1_656
Rh1 Sb1 2.826724 1_566
Rh1 Sb5 2.826724 1_665
Rh1 Y3 3.039308 1_565
Rh1 Y1 3.039308 1_655
Rh1 Y5 3.039308 1_556
Rh2 Sb0 2.675272 1_556
Rh2 Sb5 2.826716 1_555
Rh2 Sb2 2.826723 1_555
Rh2 Sb4 2.826723 1_555
Rh2 Y1 3.039306 1_545
Rh2 Y3 3.039307 1_455
Rh2 Y4 3.039314 1_555
Rh3 Sb0 2.675271 1_565
Rh3 Sb3 2.826716 1_555
Rh3 Sb6 2.826723 1_555
Rh3 Sb2 2.826723 1_555
Rh3 Y5 3.039307 1_455
Rh3 Y1 3.039307 1_554
Rh3 Y2 3.039314 1_555
Rh4 Sb0 2.675272 1_665
Rh4 Sb5 2.826716 1_665
Rh4 Sb2 2.826723 1_655
Rh4 Sb4 2.826723 1_565
Rh4 Y0 3.039306 1_565
Rh4 Y2 3.039307 1_655
Rh4 Y5 3.039314 1_555
Rh5 Sb0 2.675271 1_656
Rh5 Sb3 2.826716 1_656
Rh5 Sb6 2.826723 1_556
Rh5 Sb2 2.826723 1_655
Rh5 Y4 3.039307 1_655
Rh5 Y0 3.039307 1_556
Rh5 Y3 3.039314 1_555
Rh6 Sb0 2.675272 1_655
Rh6 Sb1 2.826716 1_555
Rh6 Sb6 2.826723 1_555
Rh6 Sb4 2.826723 1_555
Rh6 Y5 3.039306 1_545
Rh6 Y3 3.039307 1_554
Rh6 Y0 3.039314 1_555
Rh7 Sb0 2.675272 1_566
Rh7 Sb1 2.826716 1_566
Rh7 Sb6 2.826723 1_556
Rh7 Sb4 2.826723 1_565
Rh7 Y4 3.039306 1_565
Rh7 Y2 3.039307 1_556
Rh7 Y1 3.039314 1_555
Rh8 Sb4 2.628093 1_555
Rh8 Sb2 2.628093 1_555
Rh8 Sb6 2.628093 1_555
Rh8 Y2 3.117770 1_555
Rh8 Y0 3.117770 1_555
Rh8 Y4 3.117770 1_555
Rh9 Sb4 2.628093 1_565
Rh9 Sb2 2.628093 1_655
Rh9 Sb6 2.628093 1_556
Rh9 Y3 3.117770 1_555
Rh9 Y1 3.117770 1_555
Rh9 Y5 3.117770 1_555
Rh10 Sb6 2.628087 1_555
Rh10 Sb1 2.628095 1_555
Rh10 Sb3 2.628095 1_555
Rh10 Y1 3.117773 1_554
Rh10 Y3 3.117773 1_554
Rh10 Y4 3.117779 1_554
Rh11 Sb4 2.628087 1_555
Rh11 Sb5 2.628095 1_555
Rh11 Sb1 2.628096 1_555
Rh11 Y5 3.117773 1_545
Rh11 Y1 3.117773 1_545
Rh11 Y2 3.117779 1_545
Rh12 Sb6 2.628087 1_556
Rh12 Sb1 2.628095 1_566
Rh12 Sb3 2.628095 1_656
Rh12 Y0 3.117773 1_556
Rh12 Y2 3.117773 1_556
Rh12 Y5 3.117779 1_556
Rh13 Sb4 2.628087 1_565
Rh13 Sb5 2.628095 1_665
Rh13 Sb1 2.628096 1_566
Rh13 Y4 3.117773 1_565
Rh13 Y0 3.117773 1_565
Rh13 Y3 3.117779 1_565
Rh14 Sb2 2.628087 1_555
Rh14 Sb5 2.628095 1_555
Rh14 Sb3 2.628095 1_555
Rh14 Y5 3.117773 1_455
Rh14 Y3 3.117773 1_455
Rh14 Y0 3.117779 1_455
Rh15 Sb2 2.628087 1_655
Rh15 Sb5 2.628095 1_665
Rh15 Sb3 2.628095 1_656
Rh15 Y4 3.117773 1_655
Rh15 Y2 3.117773 1_655
Rh15 Y1 3.117779 1_655
