# generated using pymatgen
data_LiScCu4
_symmetry_space_group_name_H-M   'P 1'
_cell_length_a   4.89495174
_cell_length_b   4.89495145
_cell_length_c   4.89495151
_cell_angle_alpha   59.99999959
_cell_angle_beta   60.00000151
_cell_angle_gamma   60.00000291
_symmetry_Int_Tables_number   1
_chemical_formula_structural   LiScCu4
_chemical_formula_sum   'Li1 Sc1 Cu4'
_cell_volume   82.93354171
_cell_formula_units_Z   1
loop_
 _symmetry_equiv_pos_site_id
 _symmetry_equiv_pos_as_xyz
  1  'x, y, z'
loop_
 _atom_site_type_symbol
 _atom_site_label
 _atom_site_symmetry_multiplicity
 _atom_site_fract_x
 _atom_site_fract_y
 _atom_site_fract_z
 _atom_site_occupancy
  Li  Li0  1  0.25000000  0.25000000  0.25000000  1
  Sc  Sc0  1  0.00000000  0.00000000  0.00000000  1
  Cu  Cu0  1  0.62437407  0.62437407  0.62437407  1
  Cu  Cu1  1  0.12687679  0.62437407  0.62437407  1
  Cu  Cu2  1  0.62437407  0.12687679  0.62437407  1
  Cu  Cu3  1  0.62437407  0.62437407  0.12687679  1
loop_
_geom_bond_atom_site_label_1
_geom_bond_atom_site_label_2
_geom_bond_distance
_geom_bond_site_symmetry_2
Li0 Sc0 2.997533 1_555
Li0 Sc0 2.997533 1_556
Li0 Sc0 2.997533 1_565
Li0 Sc0 2.997534 1_655
Cu0 Cu2 2.435225 1_555
Cu0 Cu3 2.435225 1_555
Cu0 Cu1 2.435225 1_555
Cu0 Cu2 2.459726 1_565
Cu0 Cu3 2.459726 1_556
Cu0 Cu1 2.459727 1_655
Cu0 Li0 2.868623 1_556
Cu0 Li0 2.868623 1_565
Cu0 Li0 2.868623 1_655
Cu0 Sc0 2.871236 1_665
Cu0 Sc0 2.871236 1_656
Cu0 Sc0 2.871236 1_566
Cu1 Cu3 2.435225 1_555
Cu1 Cu2 2.435225 1_555
Cu1 Cu3 2.459727 1_456
Cu1 Cu2 2.459727 1_465
Cu1 Li0 2.868621 1_555
Cu1 Li0 2.868625 1_565
Cu1 Li0 2.868625 1_556
Cu1 Sc0 2.871234 1_556
Cu1 Sc0 2.871234 1_565
Cu1 Sc0 2.871238 1_566
Cu2 Cu3 2.435225 1_555
Cu2 Cu3 2.459726 1_546
Cu2 Li0 2.868621 1_555
Cu2 Li0 2.868625 1_556
Cu2 Li0 2.868625 1_655
Cu2 Sc0 2.871234 1_655
Cu2 Sc0 2.871234 1_556
Cu2 Sc0 2.871238 1_656
Cu3 Li0 2.868621 1_555
Cu3 Li0 2.868625 1_565
Cu3 Li0 2.868625 1_655
Cu3 Sc0 2.871234 1_655
Cu3 Sc0 2.871234 1_565
Cu3 Sc0 2.871238 1_665
