# generated using pymatgen
data_Hf(NbSn)6
_symmetry_space_group_name_H-M   'P 1'
_cell_length_a   5.73812804
_cell_length_b   5.73812729
_cell_length_c   9.58295339
_cell_angle_alpha   90.00000000
_cell_angle_beta   90.00000000
_cell_angle_gamma   120.00000436
_symmetry_Int_Tables_number   1
_chemical_formula_structural   Hf(NbSn)6
_chemical_formula_sum   'Hf1 Nb6 Sn6'
_cell_volume   273.25643713
_cell_formula_units_Z   1
loop_
 _symmetry_equiv_pos_site_id
 _symmetry_equiv_pos_as_xyz
  1  'x, y, z'
loop_
 _atom_site_type_symbol
 _atom_site_label
 _atom_site_symmetry_multiplicity
 _atom_site_fract_x
 _atom_site_fract_y
 _atom_site_fract_z
 _atom_site_occupancy
  Hf  Hf0  1  0.00000000  0.00000000  0.00000000  1
  Nb  Nb0  1  0.00000000  0.50000000  0.24705754  1
  Nb  Nb1  1  0.00000000  0.50000000  0.75294246  1
  Nb  Nb2  1  0.50000000  0.50000000  0.24705754  1
  Nb  Nb3  1  0.50000000  0.50000000  0.75294246  1
  Nb  Nb4  1  0.50000000  0.00000000  0.24705754  1
  Nb  Nb5  1  0.50000000  0.00000000  0.75294246  1
  Sn  Sn0  1  0.33333300  0.66666700  0.00000000  1
  Sn  Sn1  1  0.33333300  0.66666700  0.50000000  1
  Sn  Sn2  1  0.00000000  0.00000000  0.32555354  1
  Sn  Sn3  1  0.00000000  0.00000000  0.67444646  1
  Sn  Sn4  1  0.66666700  0.33333300  0.00000000  1
  Sn  Sn5  1  0.66666700  0.33333300  0.50000000  1
loop_
_geom_bond_atom_site_label_1
_geom_bond_atom_site_label_2
_geom_bond_distance
_geom_bond_site_symmetry_2
Hf0 Sn2 3.119764 1_555
Hf0 Sn3 3.119764 1_554
Hf0 Sn4 3.312906 1_455
Hf0 Sn0 3.312906 1_545
Hf0 Sn0 3.312911 1_555
Hf0 Sn4 3.312911 1_445
Hf0 Sn4 3.312911 1_555
Hf0 Sn0 3.312911 1_445
Nb0 Sn0 2.889479 1_555
Nb0 Sn4 2.889479 1_455
Nb0 Sn1 2.935865 1_555
Nb0 Sn5 2.935865 1_455
Nb0 Sn2 2.966035 1_565
Nb0 Sn2 2.966035 1_555
Nb1 Sn0 2.889479 1_556
Nb1 Sn4 2.889479 1_456
Nb1 Sn1 2.935865 1_555
Nb1 Sn5 2.935865 1_455
Nb1 Sn3 2.966035 1_555
Nb1 Sn3 2.966035 1_565
Nb2 Sn0 2.889481 1_555
Nb2 Sn4 2.889481 1_555
Nb2 Sn1 2.935868 1_555
Nb2 Sn5 2.935868 1_555
Nb2 Sn2 2.966035 1_665
Nb2 Sn2 2.966035 1_555
Nb3 Sn0 2.889481 1_556
Nb3 Sn4 2.889481 1_556
Nb3 Sn1 2.935868 1_555
Nb3 Sn5 2.935868 1_555
Nb3 Sn3 2.966035 1_665
Nb3 Sn3 2.966035 1_555
Nb4 Sn4 2.889478 1_555
Nb4 Sn0 2.889478 1_545
Nb4 Sn5 2.935865 1_555
Nb4 Sn1 2.935865 1_545
Nb4 Sn2 2.966036 1_655
Nb4 Sn2 2.966036 1_555
Nb5 Sn4 2.889478 1_556
Nb5 Sn0 2.889478 1_546
Nb5 Sn5 2.935865 1_555
Nb5 Sn1 2.935865 1_545
Nb5 Sn3 2.966036 1_555
Nb5 Sn3 2.966036 1_655
