# generated using pymatgen
data_CsYMnS3
_symmetry_space_group_name_H-M   'P 1'
_cell_length_a   8.00017075
_cell_length_b   8.00016981
_cell_length_c   10.69906622
_cell_angle_alpha   90.00000000
_cell_angle_beta   90.00000000
_cell_angle_gamma   150.48472284
_symmetry_Int_Tables_number   1
_chemical_formula_structural   CsYMnS3
_chemical_formula_sum   'Cs2 Y2 Mn2 S6'
_cell_volume   337.35548148
_cell_formula_units_Z   2
loop_
 _symmetry_equiv_pos_site_id
 _symmetry_equiv_pos_as_xyz
  1  'x, y, z'
loop_
 _atom_site_type_symbol
 _atom_site_label
 _atom_site_symmetry_multiplicity
 _atom_site_fract_x
 _atom_site_fract_y
 _atom_site_fract_z
 _atom_site_occupancy
  Cs  Cs0  1  0.26101797  0.73898003  0.25000000  1
  Cs  Cs1  1  0.73898003  0.26101797  0.75000000  1
  Y  Y0  1  0.00000000  0.00000000  0.00000000  1
  Y  Y1  1  0.00000000  0.00000000  0.50000000  1
  Mn  Mn0  1  0.53896705  0.46103095  0.25000000  1
  Mn  Mn1  1  0.46103095  0.53896705  0.75000000  1
  S  S0  1  0.61349766  0.38650034  0.05773297  1
  S  S1  1  0.95027727  0.04972073  0.25000000  1
  S  S2  1  0.61349766  0.38650034  0.44226603  1
  S  S3  1  0.38650034  0.61349766  0.55773397  1
  S  S4  1  0.04972073  0.95027727  0.75000000  1
  S  S5  1  0.38650034  0.61349766  0.94226603  1
loop_
_geom_bond_atom_site_label_1
_geom_bond_atom_site_label_2
_geom_bond_distance
_geom_bond_site_symmetry_2
Cs0 S1 3.567638 1_455
Cs0 S1 3.567639 1_565
Cs0 S2 3.687055 1_565
Cs0 S2 3.687056 1_455
Cs0 S0 3.687061 1_565
Cs0 S0 3.687062 1_455
Cs0 S3 3.822285 1_555
Cs0 S5 3.822285 1_554
Cs1 S4 3.567638 1_655
Cs1 S4 3.567639 1_545
Cs1 S5 3.687055 1_545
Cs1 S3 3.687055 1_545
Cs1 S5 3.687056 1_655
Cs1 S3 3.687056 1_655
Cs1 S0 3.822276 1_556
Cs1 S2 3.822285 1_555
Mn0 S2 2.358249 1_555
Mn0 S0 2.358259 1_555
Mn0 S1 2.456843 1_565
Mn0 S1 2.456844 1_455
Mn1 S5 2.358249 1_555
Mn1 S3 2.358249 1_555
Mn1 S4 2.456843 1_545
Mn1 S4 2.456844 1_655
S0 Y0 2.760153 1_555
S0 Y0 2.760159 1_665
S1 Y1 2.783205 1_655
S1 Y0 2.783205 1_655
S2 Y1 2.760156 1_555
S2 Y1 2.760161 1_665
S3 Y1 2.760155 1_555
S3 Y1 2.760162 1_665
S4 Y0 2.783205 1_566
S4 Y1 2.783205 1_565
S5 Y0 2.760155 1_556
S5 Y0 2.760162 1_666
