# generated using pymatgen
data_RbCr(PtSe3)2
_symmetry_space_group_name_H-M   'P 1'
_cell_length_a   9.12419059
_cell_length_b   9.12418962
_cell_length_c   9.12418994
_cell_angle_alpha   40.99326646
_cell_angle_beta   40.99327724
_cell_angle_gamma   40.99327765
_symmetry_Int_Tables_number   1
_chemical_formula_structural   RbCr(PtSe3)2
_chemical_formula_sum   'Rb1 Cr1 Pt2 Se6'
_cell_volume   295.07139676
_cell_formula_units_Z   1
loop_
 _symmetry_equiv_pos_site_id
 _symmetry_equiv_pos_as_xyz
  1  'x, y, z'
loop_
 _atom_site_type_symbol
 _atom_site_label
 _atom_site_symmetry_multiplicity
 _atom_site_fract_x
 _atom_site_fract_y
 _atom_site_fract_z
 _atom_site_occupancy
  Rb  Rb0  1  0.99972317  0.99972317  0.99972317  1
  Cr  Cr0  1  0.16624460  0.16624460  0.16624460  1
  Pt  Pt0  1  0.50030977  0.50030977  0.50030977  1
  Pt  Pt1  1  0.83362398  0.83362398  0.83362398  1
  Se  Se0  1  0.55523612  0.22189773  0.88526921  1
  Se  Se1  1  0.88526921  0.55523612  0.22189773  1
  Se  Se2  1  0.22189773  0.88526921  0.55523612  1
  Se  Se3  1  0.77274439  0.11277069  0.45218134  1
  Se  Se4  1  0.11277069  0.45218134  0.77274439  1
  Se  Se5  1  0.45218134  0.77274439  0.11277069  1
loop_
_geom_bond_atom_site_label_1
_geom_bond_atom_site_label_2
_geom_bond_distance
_geom_bond_site_symmetry_2
Rb0 Se1 3.526289 1_556
Rb0 Se2 3.526289 1_655
Rb0 Se0 3.526289 1_565
Rb0 Se4 3.562708 1_665
Rb0 Se3 3.562708 1_566
Rb0 Se5 3.562709 1_656
Cr0 Se2 2.539110 1_545
Cr0 Se1 2.539111 1_455
Cr0 Se0 2.539111 1_554
Cr0 Se4 2.553031 1_554
Cr0 Se5 2.553031 1_545
Cr0 Se3 2.553032 1_455
Pt0 Se5 2.510510 1_555
Pt0 Se3 2.510511 1_555
Pt0 Se4 2.510511 1_555
Pt0 Se0 2.511495 1_555
Pt0 Se2 2.511495 1_555
Pt0 Se1 2.511496 1_555
Pt1 Se3 2.511919 1_565
Pt1 Se4 2.511919 1_655
Pt1 Se5 2.511920 1_556
Pt1 Se1 2.520650 1_556
Pt1 Se0 2.520650 1_565
Pt1 Se2 2.520650 1_655
