# generated using pymatgen
data_K3LiRhO4
_symmetry_space_group_name_H-M   'P 1'
_cell_length_a   7.17735293
_cell_length_b   7.17735318
_cell_length_c   5.84786147
_cell_angle_alpha   79.19184018
_cell_angle_beta   79.19184064
_cell_angle_gamma   83.86043677
_symmetry_Int_Tables_number   1
_chemical_formula_structural   K3LiRhO4
_chemical_formula_sum   'K6 Li2 Rh2 O8'
_cell_volume   289.85025517
_cell_formula_units_Z   2
loop_
 _symmetry_equiv_pos_site_id
 _symmetry_equiv_pos_as_xyz
  1  'x, y, z'
loop_
 _atom_site_type_symbol
 _atom_site_label
 _atom_site_symmetry_multiplicity
 _atom_site_fract_x
 _atom_site_fract_y
 _atom_site_fract_z
 _atom_site_occupancy
  K  K0  1  0.06633818  0.24448666  0.02260140  1
  K  K1  1  0.59547240  0.40452760  0.25000000  1
  K  K2  1  0.24448666  0.06633818  0.52260140  1
  K  K3  1  0.75551334  0.93366182  0.47739860  1
  K  K4  1  0.93366182  0.75551334  0.97739860  1
  K  K5  1  0.40452760  0.59547240  0.75000000  1
  Li  Li0  1  0.73095969  0.26904031  0.75000000  1
  Li  Li1  1  0.26904031  0.73095969  0.25000000  1
  Rh  Rh0  1  0.50000000  0.00000000  0.00000000  1
  Rh  Rh1  1  0.00000000  0.50000000  0.50000000  1
  O  O0  1  0.20529930  0.48044993  0.24126837  1
  O  O1  1  0.91291942  0.26531666  0.46985356  1
  O  O2  1  0.48044993  0.20529930  0.74126837  1
  O  O3  1  0.26531666  0.91291942  0.96985356  1
  O  O4  1  0.08708058  0.73468334  0.53014644  1
  O  O5  1  0.73468334  0.08708058  0.03014644  1
  O  O6  1  0.51955007  0.79470070  0.25873163  1
  O  O7  1  0.79470070  0.51955007  0.75873163  1
loop_
_geom_bond_atom_site_label_1
_geom_bond_atom_site_label_2
_geom_bond_distance
_geom_bond_site_symmetry_2
K0 O1 2.665868 1_455
K0 O0 2.673950 1_555
K0 O3 2.679771 1_544
K0 O5 2.731626 1_455
K0 O7 3.040098 1_454
K0 O2 3.127414 1_554
K1 O0 2.803323 1_555
K1 O6 2.803323 1_555
K1 O1 2.823546 1_555
K1 O5 2.823546 1_555
K1 O7 2.966810 1_554
K1 O2 2.966810 1_555
K2 O3 2.665868 1_545
K2 O2 2.673950 1_555
K2 O1 2.679771 1_455
K2 O4 2.731626 1_545
K2 O6 3.040098 1_545
K2 O0 3.127414 1_555
K3 O5 2.665868 1_565
K3 O6 2.673950 1_555
K3 O4 2.679771 1_655
K3 O1 2.731626 1_565
K3 O2 3.040098 1_565
K3 O7 3.127414 1_555
K4 O4 2.665868 1_655
K4 O7 2.673950 1_555
K4 O5 2.679771 1_566
K4 O3 2.731626 1_655
K4 O0 3.040098 1_656
K4 O6 3.127414 1_556
K5 O7 2.803323 1_555
K5 O2 2.803323 1_555
K5 O4 2.823546 1_555
K5 O3 2.823546 1_555
K5 O0 2.966810 1_556
K5 O6 2.966810 1_555
Li0 O1 1.896508 1_555
Li0 O5 1.896508 1_556
Li0 O2 1.914116 1_555
Li0 O7 1.914116 1_555
Li1 O4 1.896508 1_555
Li1 O3 1.896508 1_554
Li1 O6 1.914116 1_555
Li1 O0 1.914116 1_555
O0 Rh1 1.918180 1_555
O1 Rh1 1.907043 1_655
O2 Rh0 1.918180 1_556
O3 Rh0 1.907043 1_566
O4 Rh1 1.907043 1_555
O5 Rh0 1.907043 1_555
O6 Rh0 1.918180 1_565
O7 Rh1 1.918180 1_655
