# generated using pymatgen
data_Sc4Sn3As3Ir7
_symmetry_space_group_name_H-M   'P 1'
_cell_length_a   7.20850385
_cell_length_b   7.20850478
_cell_length_c   7.30444956
_cell_angle_alpha   109.74107287
_cell_angle_beta   109.74107554
_cell_angle_gamma   109.20002030
_symmetry_Int_Tables_number   1
_chemical_formula_structural   Sc4Sn3As3Ir7
_chemical_formula_sum   'Sc4 Sn3 As3 Ir7'
_cell_volume   291.20494519
_cell_formula_units_Z   1
loop_
 _symmetry_equiv_pos_site_id
 _symmetry_equiv_pos_as_xyz
  1  'x, y, z'
loop_
 _atom_site_type_symbol
 _atom_site_label
 _atom_site_symmetry_multiplicity
 _atom_site_fract_x
 _atom_site_fract_y
 _atom_site_fract_z
 _atom_site_occupancy
  Sc  Sc0  1  1.00000000  1.00000000  0.54898033  1
  Sc  Sc1  1  1.00000000  0.47167503  0.99142583  1
  Sc  Sc2  1  0.47167503  1.00000000  0.99142583  1
  Sc  Sc3  1  0.52832497  0.52832497  0.51975081  1
  Sn  Sn0  1  0.71159344  0.71159344  0.01532464  1
  Sn  Sn1  1  0.28840656  0.00000000  0.30373120  1
  Sn  Sn2  1  1.00000000  0.28840656  0.30373120  1
  As  As0  1  0.33410050  0.33410050  0.00512265  1
  As  As1  1  0.66589950  1.00000000  0.67102214  1
  As  As2  1  0.00000000  0.66589950  0.67102214  1
  Ir  Ir0  1  0.74753206  0.25054028  0.50443197  1
  Ir  Ir1  1  0.74945972  0.49699178  0.25389168  1
  Ir  Ir2  1  0.50300822  0.25246794  0.75689891  1
  Ir  Ir3  1  0.25246794  0.50300822  0.75689891  1
  Ir  Ir4  1  0.25054028  0.74753206  0.50443197  1
  Ir  Ir5  1  0.49699178  0.74945972  0.25389168  1
  Ir  Ir6  1  0.00000000  0.00000000  0.94801710  1
loop_
_geom_bond_atom_site_label_1
_geom_bond_atom_site_label_2
_geom_bond_distance
_geom_bond_site_symmetry_2
Sc0 Sn0 3.169735 1_555
Sc0 Sn1 3.169736 1_665
Sc0 Sn2 3.169736 1_565
Sc1 Sn2 2.997518 1_556
Sc1 Sn0 3.122457 1_556
Sc1 Sn1 3.122458 1_666
Sc2 Sn1 2.997518 1_566
Sc2 Sn2 3.122457 1_566
Sc2 Sn0 3.122457 1_556
Sc3 Sn0 2.997518 1_556
Sc3 Sn2 3.122457 1_455
Sc3 Sn1 3.122458 1_555
As0 Ir1 2.493242 1_555
As0 Ir5 2.493242 1_555
As0 Ir2 2.521518 1_554
As0 Ir3 2.521518 1_554
As0 Ir6 2.569466 1_554
As0 Sc0 2.836413 1_444
As0 Sc1 2.875568 1_454
As0 Sc2 2.875568 1_544
As0 Sc3 3.106616 1_555
As1 Ir2 2.493241 1_565
As1 Ir4 2.493242 1_555
As1 Ir5 2.521512 1_555
As1 Ir0 2.521513 1_565
As1 Ir6 2.569465 1_665
As1 Sc0 2.836413 1_555
As1 Sc1 2.875568 1_565
As1 Sc3 2.875569 1_555
As1 Sc2 3.106616 1_555
As2 Ir3 2.493241 1_555
As2 Ir0 2.493243 1_455
As2 Ir1 2.521512 1_455
As2 Ir4 2.521513 1_555
As2 Ir6 2.569465 1_565
As2 Sc0 2.836414 1_455
As2 Sc3 2.875568 1_455
As2 Sc2 2.875568 1_555
As2 Sc1 3.106616 1_455
Ir0 Sn2 2.698466 1_555
Ir0 Sn1 2.714171 1_555
Ir0 Sc1 2.897393 1_555
Ir0 Sc3 2.927166 1_555
Ir0 Sc0 2.972958 1_545
Ir0 Sc2 3.047950 1_544
Ir1 Sn0 2.698466 1_555
Ir1 Sn2 2.714171 1_555
Ir1 Sc3 2.897394 1_555
Ir1 Sc2 2.927166 1_544
Ir1 Sc0 2.972959 1_555
Ir1 Sc1 3.047950 1_554
Ir2 Sn1 2.698460 1_555
Ir2 Sn0 2.714172 1_556
Ir2 Sc2 2.897400 1_545
Ir2 Sc1 2.927165 1_555
Ir2 Sc0 2.972959 1_445
Ir2 Sc3 3.047945 1_555
Ir3 Sn2 2.698460 1_455
Ir3 Sn0 2.714172 1_556
Ir3 Sc1 2.897400 1_455
Ir3 Sc2 2.927166 1_555
Ir3 Sc0 2.972960 1_445
Ir3 Sc3 3.047944 1_555
Ir4 Sn1 2.698466 1_565
Ir4 Sn2 2.714171 1_455
Ir4 Sc2 2.897394 1_555
Ir4 Sc3 2.927165 1_555
Ir4 Sc0 2.972958 1_455
Ir4 Sc1 3.047950 1_454
Ir5 Sn0 2.698466 1_555
Ir5 Sn1 2.714171 1_565
Ir5 Sc3 2.897394 1_555
Ir5 Sc1 2.927166 1_454
Ir5 Sc0 2.972958 1_555
Ir5 Sc2 3.047950 1_554
Ir6 Sn1 2.724731 1_556
Ir6 Sn2 2.724732 1_456
Ir6 Sn0 2.724732 1_446
Ir6 Sc0 2.914744 1_445
Ir6 Sc2 3.306468 1_545
Ir6 Sc3 3.306469 1_445
Ir6 Sc1 3.306469 1_455
