# generated using pymatgen
data_K8Hf6MnBr20
_symmetry_space_group_name_H-M   'P 1'
_cell_length_a   11.57330758
_cell_length_b   11.57330770
_cell_length_c   11.57330779
_cell_angle_alpha   59.99999699
_cell_angle_beta   59.99999666
_cell_angle_gamma   59.99999494
_symmetry_Int_Tables_number   1
_chemical_formula_structural   K8Hf6MnBr20
_chemical_formula_sum   'K8 Hf6 Mn1 Br20'
_cell_volume   1096.11838842
_cell_formula_units_Z   1
loop_
 _symmetry_equiv_pos_site_id
 _symmetry_equiv_pos_as_xyz
  1  'x, y, z'
loop_
 _atom_site_type_symbol
 _atom_site_label
 _atom_site_symmetry_multiplicity
 _atom_site_fract_x
 _atom_site_fract_y
 _atom_site_fract_z
 _atom_site_occupancy
  K  K0  1  0.35989485  0.35989485  0.35989485  1
  K  K1  1  0.64010515  0.64010515  0.64010515  1
  K  K2  1  0.35989485  0.35989485  0.92031744  1
  K  K3  1  0.35989485  0.92031744  0.35989485  1
  K  K4  1  0.64010515  0.64010515  0.07968256  1
  K  K5  1  0.64010515  0.07968256  0.64010515  1
  K  K6  1  0.92031744  0.35989485  0.35989485  1
  K  K7  1  0.07968256  0.64010515  0.64010515  1
  Hf  Hf0  1  0.85527325  0.14472675  0.14472675  1
  Hf  Hf1  1  0.14472675  0.85527325  0.85527325  1
  Hf  Hf2  1  0.14472675  0.85527325  0.14472675  1
  Hf  Hf3  1  0.85527325  0.14472675  0.85527325  1
  Hf  Hf4  1  0.14472675  0.14472675  0.85527325  1
  Hf  Hf5  1  0.85527325  0.85527325  0.14472675  1
  Mn  Mn0  1  0.00000000  0.00000000  0.00000000  1
  Br  Br0  1  0.33381462  1.00000000  1.00000000  1
  Br  Br1  1  0.66618538  0.00000000  0.00000000  1
  Br  Br2  1  1.00000000  0.33381462  0.66618538  1
  Br  Br3  1  0.00000000  0.66618538  0.33381462  1
  Br  Br4  1  1.00000000  0.33381462  1.00000000  1
  Br  Br5  1  0.66618538  0.00000000  0.33381462  1
  Br  Br6  1  0.00000000  0.66618538  0.00000000  1
  Br  Br7  1  0.33381462  1.00000000  0.66618538  1
  Br  Br8  1  1.00000000  1.00000000  0.33381462  1
  Br  Br9  1  0.00000000  0.00000000  0.66618538  1
  Br  Br10  1  0.66618538  0.33381462  0.00000000  1
  Br  Br11  1  0.33381462  0.66618538  1.00000000  1
  Br  Br12  1  0.68086517  0.31913483  0.31913483  1
  Br  Br13  1  0.31913483  0.68086517  0.68086517  1
  Br  Br14  1  0.31913483  0.68086517  0.31913483  1
  Br  Br15  1  0.68086517  0.31913483  0.68086517  1
  Br  Br16  1  0.31913483  0.31913483  0.68086517  1
  Br  Br17  1  0.68086517  0.68086517  0.31913483  1
  Br  Br18  1  0.25000000  0.25000000  0.25000000  1
  Br  Br19  1  0.75000000  0.75000000  0.75000000  1
loop_
_geom_bond_atom_site_label_1
_geom_bond_atom_site_label_2
_geom_bond_distance
_geom_bond_site_symmetry_2
Hf0 Mn0 2.368761 1_655
Hf1 Mn0 2.368761 1_566
Hf2 Mn0 2.368761 1_565
Hf3 Mn0 2.368761 1_656
Hf4 Mn0 2.368761 1_556
Hf5 Mn0 2.368761 1_665
Br0 Hf4 2.755810 1_565
Br0 Hf2 2.755810 1_556
Br1 Hf5 2.755810 1_545
Br1 Hf3 2.755810 1_554
Br2 Hf4 2.755810 1_655
Br2 Hf3 2.755810 1_555
Br3 Hf5 2.755810 1_455
Br3 Hf2 2.755810 1_555
Br4 Hf4 2.755810 1_655
Br4 Hf0 2.755810 1_556
Br5 Hf5 2.755810 1_545
Br5 Hf0 2.755810 1_555
Br6 Hf5 2.755810 1_455
Br6 Hf1 2.755810 1_554
Br7 Hf4 2.755810 1_565
Br7 Hf1 2.755810 1_555
Br8 Hf0 2.755810 1_565
Br8 Hf2 2.755810 1_655
Br9 Hf3 2.755810 1_455
Br9 Hf1 2.755810 1_545
Br10 Hf3 2.755810 1_554
Br10 Hf0 2.755810 1_555
Br11 Hf2 2.755810 1_556
Br11 Hf1 2.755810 1_555
Br12 Hf0 2.854559 1_555
Br12 K0 3.310868 1_555
Br12 K4 3.310875 1_555
Br12 K5 3.310876 1_555
Br12 K6 3.310890 1_555
Br13 Hf1 2.854559 1_555
Br13 K1 3.310868 1_555
Br13 K2 3.310875 1_555
Br13 K3 3.310876 1_555
Br13 K7 3.310890 1_555
Br14 Hf2 2.854559 1_555
Br14 K0 3.310868 1_555
Br14 K4 3.310875 1_555
Br14 K7 3.310876 1_555
Br14 K3 3.310890 1_555
Br15 Hf3 2.854559 1_555
Br15 K1 3.310868 1_555
Br15 K2 3.310875 1_555
Br15 K6 3.310876 1_555
Br15 K5 3.310890 1_555
Br16 Hf4 2.854559 1_555
Br16 K0 3.310868 1_555
Br16 K5 3.310875 1_555
Br16 K7 3.310875 1_555
Br16 K2 3.310890 1_555
Br17 Hf5 2.854559 1_555
Br17 K1 3.310868 1_555
Br17 K3 3.310875 1_555
Br17 K6 3.310875 1_555
Br17 K4 3.310890 1_555
Br18 K6 3.115357 1_455
Br18 K3 3.115357 1_545
Br18 K2 3.115357 1_554
Br18 K0 3.115376 1_555
Br19 K7 3.115357 1_655
Br19 K5 3.115357 1_565
Br19 K4 3.115357 1_556
Br19 K1 3.115376 1_555
