# generated using pymatgen
data_Y12Ni4SnOs
_symmetry_space_group_name_H-M   'P 1'
_cell_length_a   8.34610407
_cell_length_b   8.34609833
_cell_length_c   8.34610388
_cell_angle_alpha   107.58926828
_cell_angle_beta   109.21413232
_cell_angle_gamma   111.63604946
_symmetry_Int_Tables_number   1
_chemical_formula_structural   Y12Ni4SnOs
_chemical_formula_sum   'Y12 Ni4 Sn1 Os1'
_cell_volume   446.96953164
_cell_formula_units_Z   1
loop_
 _symmetry_equiv_pos_site_id
 _symmetry_equiv_pos_as_xyz
  1  'x, y, z'
loop_
 _atom_site_type_symbol
 _atom_site_label
 _atom_site_symmetry_multiplicity
 _atom_site_fract_x
 _atom_site_fract_y
 _atom_site_fract_z
 _atom_site_occupancy
  Y  Y0  1  0.46025778  0.28190745  0.17835133  1
  Y  Y1  1  0.10355612  0.28190745  0.82164867  1
  Y  Y2  1  0.89644388  0.71809255  0.17835133  1
  Y  Y3  1  0.53974222  0.71809255  0.82164867  1
  Y  Y4  1  0.30694583  0.62960258  0.32265676  1
  Y  Y5  1  0.30694383  0.98428607  0.67734024  1
  Y  Y6  1  0.69305417  0.37039742  0.67734324  1
  Y  Y7  1  0.69305617  0.01571393  0.32265976  1
  Y  Y8  1  0.19077133  0.21771963  0.40849096  1
  Y  Y9  1  0.80922867  0.78228037  0.59150904  1
  Y  Y10  1  0.19077133  0.78228037  0.97305170  1
  Y  Y11  1  0.80922867  0.21771963  0.02694830  1
  Ni  Ni0  1  0.50000000  0.61637554  0.11637454  1
  Ni  Ni1  1  0.50000000  0.38362446  0.88362546  1
  Ni  Ni2  1  0.36135917  1.00000000  0.36135917  1
  Ni  Ni3  1  0.63864083  0.00000000  0.63864083  1
  Sn  Sn0  1  0.00000000  0.50000000  0.50000000  1
  Os  Os0  1  0.00000000  0.00000000  0.00000000  1
loop_
_geom_bond_atom_site_label_1
_geom_bond_atom_site_label_2
_geom_bond_distance
_geom_bond_site_symmetry_2
Ni0 Ni1 2.294862 1_554
Ni0 Y4 2.722968 1_555
Ni0 Y7 2.722980 1_565
Ni0 Y3 2.910819 1_554
Ni0 Y1 2.910822 1_554
Ni0 Y2 2.910823 1_555
Ni0 Y0 2.910826 1_555
Ni0 Y10 3.407823 1_554
Ni0 Y9 3.407831 1_555
Ni1 Y6 2.722968 1_555
Ni1 Y5 2.722980 1_545
Ni1 Y0 2.910819 1_556
Ni1 Y2 2.910822 1_556
Ni1 Y1 2.910823 1_555
Ni1 Y3 2.910826 1_555
Ni1 Y11 3.407823 1_556
Ni1 Y8 3.407831 1_555
Ni2 Ni3 2.680705 1_565
Ni2 Y8 2.707040 1_565
Ni2 Y10 2.707040 1_554
Ni2 Y5 2.851628 1_555
Ni2 Y4 2.851637 1_555
Ni2 Y6 2.851637 1_565
Ni2 Y7 2.851637 1_565
Ni2 Y0 3.181156 1_565
Ni2 Y2 3.181157 1_455
Ni3 Y9 2.707040 1_545
Ni3 Y11 2.707040 1_556
Ni3 Y7 2.851628 1_555
Ni3 Y6 2.851637 1_555
Ni3 Y4 2.851637 1_545
Ni3 Y5 2.851637 1_545
Ni3 Y3 3.181156 1_545
Ni3 Y1 3.181157 1_655
Sn0 Y8 3.338847 1_555
Sn0 Y9 3.338847 1_455
Sn0 Y10 3.338847 1_555
Sn0 Y11 3.338847 1_455
Sn0 Y5 3.368002 1_555
Sn0 Y7 3.368002 1_455
Sn0 Y4 3.368023 1_555
Sn0 Y6 3.368023 1_455
Sn0 Y1 3.721966 1_555
Sn0 Y2 3.721966 1_455
Sn0 Y0 3.721973 1_455
Sn0 Y3 3.721973 1_555
Os0 Y11 2.830152 1_455
Os0 Y10 2.830152 1_544
Os0 Y8 2.830152 1_555
Os0 Y9 2.830152 1_444
Os0 Y0 3.156334 1_555
Os0 Y3 3.156334 1_444
Os0 Y2 3.156341 1_445
Os0 Y1 3.156341 1_554
