# generated using pymatgen
data_Ti3Al2PtC
_symmetry_space_group_name_H-M   'P 1'
_cell_length_a   8.20808613
_cell_length_b   8.20796157
_cell_length_c   8.20803767
_cell_angle_alpha   59.99976419
_cell_angle_beta   60.00029221
_cell_angle_gamma   60.00000502
_symmetry_Int_Tables_number   1
_chemical_formula_structural   Ti3Al2PtC
_chemical_formula_sum   'Ti12 Al8 Pt4 C4'
_cell_volume   391.02251440
_cell_formula_units_Z   4
loop_
 _symmetry_equiv_pos_site_id
 _symmetry_equiv_pos_as_xyz
  1  'x, y, z'
loop_
 _atom_site_type_symbol
 _atom_site_label
 _atom_site_symmetry_multiplicity
 _atom_site_fract_x
 _atom_site_fract_y
 _atom_site_fract_z
 _atom_site_occupancy
  Ti  Ti0  1  0.93489181  0.93494575  0.56508223  1
  Ti  Ti1  1  0.68491742  0.31506805  0.31508255  1
  Ti  Ti2  1  0.31511434  0.68492139  0.68491787  1
  Ti  Ti3  1  0.68491817  0.68493360  0.31508877  1
  Ti  Ti4  1  0.68491839  0.31508172  0.68493151  1
  Ti  Ti5  1  0.31510035  0.68491918  0.31506198  1
  Ti  Ti6  1  0.56508161  0.93491828  0.56506849  1
  Ti  Ti7  1  0.56508258  0.93493195  0.93491745  1
  Ti  Ti8  1  0.93488566  0.56507861  0.56508213  1
  Ti  Ti9  1  0.93489965  0.56508082  0.93493802  1
  Ti  Ti10  1  0.31510819  0.31505425  0.68491777  1
  Ti  Ti11  1  0.56508183  0.56506640  0.93491123  1
  Al  Al0  1  0.91501773  0.25493062  0.91502320  1
  Al  Al1  1  0.33498290  0.33497925  0.99506529  1
  Al  Al2  1  0.99506020  0.33498230  0.33498136  1
  Al  Al3  1  0.33498162  0.33497720  0.33497570  1
  Al  Al4  1  0.25493980  0.91501770  0.91501864  1
  Al  Al5  1  0.91501838  0.91502280  0.91502430  1
  Al  Al6  1  0.91501710  0.91502075  0.25493471  1
  Al  Al7  1  0.33498227  0.99506938  0.33497680  1
  Pt  Pt0  1  0.12500000  0.62500000  0.12500000  1
  Pt  Pt1  1  0.12500000  0.12500000  0.62500000  1
  Pt  Pt2  1  0.62500000  0.12500000  0.12500000  1
  Pt  Pt3  1  0.12500000  0.12500000  0.12500000  1
  C  C0  1  0.62500000  0.12500000  0.62500000  1
  C  C1  1  0.62500000  0.62500000  0.12500000  1
  C  C2  1  0.12500000  0.62500000  0.62500000  1
  C  C3  1  0.62500000  0.62500000  0.62500000  1
loop_
_geom_bond_atom_site_label_1
_geom_bond_atom_site_label_2
_geom_bond_distance
_geom_bond_site_symmetry_2
Al0 Pt2 2.524369 1_556
Al0 Pt1 2.524401 1_655
Al0 Pt3 2.524434 1_656
Al1 Pt2 2.524378 1_556
Al1 Pt0 2.524387 1_556
Al1 Pt3 2.524438 1_556
Al2 Pt0 2.524383 1_655
Al2 Pt1 2.524400 1_655
Al2 Pt3 2.524434 1_655
Al3 Pt2 2.524387 1_555
Al3 Pt0 2.524399 1_555
Al3 Pt1 2.524419 1_555
Al4 Pt0 2.524383 1_556
Al4 Pt1 2.524400 1_565
Al4 Pt3 2.524434 1_566
Al5 Pt2 2.524387 1_566
Al5 Pt0 2.524399 1_656
Al5 Pt1 2.524419 1_665
Al6 Pt2 2.524378 1_565
Al6 Pt0 2.524387 1_655
Al6 Pt3 2.524438 1_665
Al7 Pt2 2.524369 1_565
Al7 Pt1 2.524401 1_565
Al7 Pt3 2.524434 1_565
Pt0 Ti5 3.013167 1_555
Pt0 Ti9 3.013167 1_454
Pt0 Ti2 3.013173 1_554
Pt0 Ti8 3.013173 1_455
Pt0 Ti11 3.013174 1_554
Pt0 Ti3 3.013174 1_455
Pt1 Ti2 3.013114 1_545
Pt1 Ti8 3.013114 1_455
Pt1 Ti10 3.013153 1_555
Pt1 Ti0 3.013153 1_445
Pt1 Ti4 3.013169 1_455
Pt1 Ti6 3.013169 1_545
Pt2 Ti11 3.013023 1_554
Pt2 Ti3 3.013023 1_545
Pt2 Ti1 3.013063 1_555
Pt2 Ti7 3.013063 1_544
Pt2 Ti4 3.013069 1_554
Pt2 Ti6 3.013069 1_545
Pt3 Ti5 3.013129 1_545
Pt3 Ti9 3.013129 1_454
Pt3 Ti0 3.013169 1_445
Pt3 Ti10 3.013169 1_554
Pt3 Ti7 3.013177 1_544
Pt3 Ti1 3.013177 1_455
C0 Ti10 2.166483 1_555
C0 Ti0 2.166483 1_545
C0 Ti7 2.166639 1_545
C0 Ti1 2.166639 1_555
C0 Ti4 2.166745 1_555
C0 Ti6 2.166745 1_545
C1 Ti9 2.166552 1_554
C1 Ti5 2.166552 1_555
C1 Ti7 2.166735 1_554
C1 Ti1 2.166735 1_555
C1 Ti3 2.166820 1_555
C1 Ti11 2.166820 1_554
C2 Ti5 2.166839 1_555
C2 Ti9 2.166839 1_455
C2 Ti0 2.166873 1_455
C2 Ti10 2.166873 1_555
C2 Ti2 2.166953 1_555
C2 Ti8 2.166953 1_455
C3 Ti8 2.166439 1_555
C3 Ti2 2.166439 1_555
C3 Ti11 2.166595 1_555
C3 Ti3 2.166595 1_555
C3 Ti6 2.166627 1_555
C3 Ti4 2.166627 1_555
