# generated using pymatgen
data_Cs2HgPbF6
_symmetry_space_group_name_H-M   'P 1'
_cell_length_a   6.65890865
_cell_length_b   6.65890872
_cell_length_c   6.65890847
_cell_angle_alpha   60.00000123
_cell_angle_beta   60.00000091
_cell_angle_gamma   60.00000640
_symmetry_Int_Tables_number   1
_chemical_formula_structural   Cs2HgPbF6
_chemical_formula_sum   'Cs2 Hg1 Pb1 F6'
_cell_volume   208.78254840
_cell_formula_units_Z   1
loop_
 _symmetry_equiv_pos_site_id
 _symmetry_equiv_pos_as_xyz
  1  'x, y, z'
loop_
 _atom_site_type_symbol
 _atom_site_label
 _atom_site_symmetry_multiplicity
 _atom_site_fract_x
 _atom_site_fract_y
 _atom_site_fract_z
 _atom_site_occupancy
  Cs  Cs0  1  0.75000000  0.75000000  0.75000000  1
  Cs  Cs1  1  0.25000000  0.25000000  0.25000000  1
  Hg  Hg0  1  0.50000000  0.50000000  0.50000000  1
  Pb  Pb0  1  0.00000000  0.00000000  0.00000000  1
  F  F0  1  0.74508932  0.25491068  0.25491068  1
  F  F1  1  0.25491068  0.25491068  0.74508932  1
  F  F2  1  0.25491068  0.74508932  0.74508932  1
  F  F3  1  0.25491068  0.74508932  0.25491068  1
  F  F4  1  0.74508932  0.25491068  0.74508932  1
  F  F5  1  0.74508932  0.74508932  0.25491068  1
loop_
_geom_bond_atom_site_label_1
_geom_bond_atom_site_label_2
_geom_bond_distance
_geom_bond_site_symmetry_2
Cs0 F5 3.329775 1_556
Cs0 F5 3.329775 1_555
Cs0 F2 3.329775 1_555
Cs0 F3 3.329775 1_556
Cs0 F3 3.329775 1_655
Cs0 F2 3.329775 1_655
Cs0 F0 3.329775 1_556
Cs0 F4 3.329775 1_555
Cs0 F4 3.329776 1_565
Cs0 F0 3.329776 1_565
Cs0 F1 3.329776 1_655
Cs0 F1 3.329776 1_565
Cs1 F1 3.329775 1_554
Cs1 F1 3.329775 1_555
Cs1 F0 3.329775 1_555
Cs1 F4 3.329775 1_554
Cs1 F4 3.329775 1_455
Cs1 F0 3.329775 1_455
Cs1 F2 3.329775 1_554
Cs1 F3 3.329775 1_555
Cs1 F3 3.329776 1_545
Cs1 F2 3.329776 1_545
Cs1 F5 3.329776 1_455
Cs1 F5 3.329776 1_545
F0 Hg0 2.308035 1_555
F0 Pb0 2.400524 1_655
F1 Hg0 2.308035 1_555
F1 Pb0 2.400524 1_556
F2 Hg0 2.308035 1_555
F2 Pb0 2.400524 1_566
F3 Hg0 2.308035 1_555
F3 Pb0 2.400524 1_565
F4 Hg0 2.308035 1_555
F4 Pb0 2.400524 1_656
F5 Hg0 2.308035 1_555
F5 Pb0 2.400524 1_665
