# generated using pymatgen
data_MnSiN2
_symmetry_space_group_name_H-M   'P 1'
_cell_length_a   5.12270000
_cell_length_b   5.32169800
_cell_length_c   6.53147900
_cell_angle_alpha   90.00000000
_cell_angle_beta   90.00000000
_cell_angle_gamma   90.00000000
_symmetry_Int_Tables_number   1
_chemical_formula_structural   MnSiN2
_chemical_formula_sum   'Mn4 Si4 N8'
_cell_volume   178.05766881
_cell_formula_units_Z   4
loop_
 _symmetry_equiv_pos_site_id
 _symmetry_equiv_pos_as_xyz
  1  'x, y, z'
loop_
 _atom_site_type_symbol
 _atom_site_label
 _atom_site_symmetry_multiplicity
 _atom_site_fract_x
 _atom_site_fract_y
 _atom_site_fract_z
 _atom_site_occupancy
  Mn  Mn0  1  0.00152100  0.58035000  0.87610200  1
  Mn  Mn1  1  0.50152100  0.41965000  0.12389800  1
  Mn  Mn2  1  0.50152100  0.91965000  0.37610200  1
  Mn  Mn3  1  0.00152100  0.08035000  0.62389800  1
  Si  Si0  1  0.00660500  0.06811400  0.12526300  1
  Si  Si1  1  0.50660500  0.43188600  0.62526300  1
  Si  Si2  1  0.50660500  0.93188600  0.87473700  1
  Si  Si3  1  0.00660500  0.56811400  0.37473700  1
  N  N0  1  0.34732900  0.54809200  0.40760200  1
  N  N1  1  0.84732900  0.45190800  0.59239800  1
  N  N2  1  0.84732900  0.95190800  0.90760200  1
  N  N3  1  0.34732900  0.04809200  0.09239800  1
  N  N4  1  0.41854500  0.61355200  0.84112300  1
  N  N5  1  0.41854500  0.11355200  0.65887700  1
  N  N6  1  0.91854500  0.88644800  0.34112300  1
  N  N7  1  0.91854500  0.38644800  0.15887700  1
loop_
_geom_bond_atom_site_label_1
_geom_bond_atom_site_label_2
_geom_bond_distance
_geom_bond_site_symmetry_2
Mn0 N1 2.127147 1_455
Mn0 N2 2.139166 1_455
Mn0 N4 2.155724 1_555
Mn0 N7 2.157928 1_456
Mn1 N0 2.127147 1_555
Mn1 N3 2.139166 1_555
Mn1 N7 2.155724 1_555
Mn1 N4 2.157928 1_554
Mn2 N3 2.127147 1_565
Mn2 N0 2.139166 1_555
Mn2 N6 2.155724 1_555
Mn2 N5 2.157928 1_565
Mn3 N2 2.127147 1_445
Mn3 N1 2.139166 1_455
Mn3 N5 2.155724 1_555
Mn3 N6 2.157928 1_445
N0 Si1 1.751927 1_555
N0 Si3 1.761802 1_555
N1 Si3 1.751927 1_655
N1 Si1 1.761802 1_555
N2 Si0 1.751927 1_666
N2 Si2 1.761802 1_555
N3 Si2 1.751927 1_544
N3 Si0 1.761802 1_555
N4 Si2 1.766804 1_555
N4 Si1 1.768027 1_555
N5 Si1 1.766804 1_555
N5 Si2 1.768027 1_545
N6 Si3 1.766804 1_655
N6 Si0 1.768027 1_665
N7 Si0 1.766804 1_655
N7 Si3 1.768027 1_655
