# generated using pymatgen
data_NaSc(PS3)2
_symmetry_space_group_name_H-M   'P 1'
_cell_length_a   6.29205312
_cell_length_b   6.29205394
_cell_length_c   13.40239531
_cell_angle_alpha   90.00000000
_cell_angle_beta   90.00000000
_cell_angle_gamma   119.99999057
_symmetry_Int_Tables_number   1
_chemical_formula_structural   NaSc(PS3)2
_chemical_formula_sum   'Na2 Sc2 P4 S12'
_cell_volume   459.51311845
_cell_formula_units_Z   2
loop_
 _symmetry_equiv_pos_site_id
 _symmetry_equiv_pos_as_xyz
  1  'x, y, z'
loop_
 _atom_site_type_symbol
 _atom_site_label
 _atom_site_symmetry_multiplicity
 _atom_site_fract_x
 _atom_site_fract_y
 _atom_site_fract_z
 _atom_site_occupancy
  Na  Na0  1  0.33333300  0.66666700  0.75000000  1
  Na  Na1  1  0.66666700  0.33333300  0.25000000  1
  Sc  Sc0  1  0.00000000  0.00000000  0.75000000  1
  Sc  Sc1  1  0.00000000  0.00000000  0.25000000  1
  P  P0  1  0.66666700  0.33333300  0.66802976  1
  P  P1  1  0.66666700  0.33333300  0.83197024  1
  P  P2  1  0.33333300  0.66666700  0.33197024  1
  P  P3  1  0.33333300  0.66666700  0.16802976  1
  S  S0  1  0.95657485  0.29692002  0.87373427  1
  S  S1  1  0.34034617  0.29692002  0.62626573  1
  S  S2  1  0.95657485  0.65965383  0.62626573  1
  S  S3  1  0.70307998  0.04342515  0.62626573  1
  S  S4  1  0.29692002  0.34034617  0.12626573  1
  S  S5  1  0.65965383  0.95657485  0.12626573  1
  S  S6  1  0.04342515  0.70307998  0.12626573  1
  S  S7  1  0.65965383  0.70307998  0.37373427  1
  S  S8  1  0.04342515  0.34034617  0.37373427  1
  S  S9  1  0.29692002  0.95657485  0.37373427  1
  S  S10  1  0.70307998  0.65965383  0.87373427  1
  S  S11  1  0.34034617  0.04342515  0.87373427  1
loop_
_geom_bond_atom_site_label_1
_geom_bond_atom_site_label_2
_geom_bond_distance
_geom_bond_site_symmetry_2
Na0 S2 2.875253 1_455
Na0 S11 2.875253 1_565
Na0 S0 2.875258 1_455
Na0 S3 2.875258 1_565
Na0 S10 2.875263 1_555
Na0 S1 2.875263 1_555
Na1 S8 2.875253 1_655
Na1 S5 2.875253 1_545
Na1 S6 2.875258 1_655
Na1 S9 2.875258 1_545
Na1 S4 2.875263 1_555
Na1 S7 2.875263 1_555
P0 S1 2.027591 1_555
P0 S3 2.027591 1_555
P0 S2 2.027591 1_555
P0 P1 2.197195 1_555
P1 S0 2.027591 1_555
P1 S10 2.027591 1_555
P1 S11 2.027591 1_555
P2 S7 2.027591 1_555
P2 S9 2.027591 1_555
P2 S8 2.027591 1_555
P2 P3 2.197195 1_555
P3 S6 2.027591 1_555
P3 S4 2.027591 1_555
P3 S5 2.027591 1_555
S0 Sc0 2.612567 1_655
S1 Sc0 2.612570 1_555
S2 Sc0 2.612572 1_665
S3 Sc0 2.612567 1_655
S4 Sc1 2.612570 1_555
S5 Sc1 2.612572 1_665
S6 Sc1 2.612567 1_565
S7 Sc1 2.612570 1_665
S8 Sc1 2.612572 1_555
S9 Sc1 2.612567 1_565
S10 Sc0 2.612570 1_665
S11 Sc0 2.612572 1_555
