# generated using pymatgen
data_Cs12V3GeSe16
_symmetry_space_group_name_H-M   'P 1'
_cell_length_a   10.22133861
_cell_length_b   10.19777552
_cell_length_c   11.94609513
_cell_angle_alpha   90.00000000
_cell_angle_beta   90.00000000
_cell_angle_gamma   90.65001026
_symmetry_Int_Tables_number   1
_chemical_formula_structural   Cs12V3GeSe16
_chemical_formula_sum   'Cs12 V3 Ge1 Se16'
_cell_volume   1245.12009863
_cell_formula_units_Z   1
loop_
 _symmetry_equiv_pos_site_id
 _symmetry_equiv_pos_as_xyz
  1  'x, y, z'
loop_
 _atom_site_type_symbol
 _atom_site_label
 _atom_site_symmetry_multiplicity
 _atom_site_fract_x
 _atom_site_fract_y
 _atom_site_fract_z
 _atom_site_occupancy
  Cs  Cs0  1  0.64533183  0.90927520  0.25000000  1
  Cs  Cs1  1  0.15357222  0.59473052  0.25000000  1
  Cs  Cs2  1  0.85315589  0.41254354  0.75000000  1
  Cs  Cs3  1  0.35615268  0.08721053  0.75000000  1
  Cs  Cs4  1  0.03431470  0.80032138  0.96218589  1
  Cs  Cs5  1  0.54212714  0.70073727  0.54268074  1
  Cs  Cs6  1  0.45786336  0.29007452  0.04101107  1
  Cs  Cs7  1  0.95596799  0.21056003  0.45992572  1
  Cs  Cs8  1  0.95596799  0.21056003  0.04007428  1
  Cs  Cs9  1  0.45786336  0.29007452  0.45898893  1
  Cs  Cs10  1  0.54212714  0.70073727  0.95731926  1
  Cs  Cs11  1  0.03431470  0.80032138  0.53781411  1
  V  V0  1  0.77823782  0.98104684  0.75000000  1
  V  V1  1  0.22010438  0.01828055  0.25000000  1
  V  V2  1  0.72257536  0.48149680  0.25000000  1
  Ge  Ge0  1  0.28476246  0.51016761  0.75000000  1
  Se  Se0  1  0.32701668  0.95050281  0.09308138  1
  Se  Se1  1  0.82994068  0.54790980  0.40731289  1
  Se  Se2  1  0.17175548  0.46180703  0.91616903  1
  Se  Se3  1  0.67147930  0.04397740  0.59177674  1
  Se  Se4  1  0.01089714  0.93567984  0.25000000  1
  Se  Se5  1  0.51556371  0.56471610  0.25000000  1
  Se  Se6  1  0.49546562  0.42345690  0.75000000  1
  Se  Se7  1  0.98552077  0.06952421  0.75000000  1
  Se  Se8  1  0.67147930  0.04397740  0.90822326  1
  Se  Se9  1  0.32701668  0.95050281  0.40691862  1
  Se  Se10  1  0.82994068  0.54790980  0.09268711  1
  Se  Se11  1  0.17175548  0.46180703  0.58383097  1
  Se  Se12  1  0.79014979  0.75828449  0.75000000  1
  Se  Se13  1  0.28543181  0.74245900  0.75000000  1
  Se  Se14  1  0.71132385  0.25817475  0.25000000  1
  Se  Se15  1  0.21082701  0.24117163  0.25000000  1
loop_
_geom_bond_atom_site_label_1
_geom_bond_atom_site_label_2
_geom_bond_distance
_geom_bond_site_symmetry_2
Cs0 Se14 3.613847 1_565
Cs0 Se5 3.741650 1_555
Cs0 Se4 3.743208 1_655
Cs0 Se9 3.782559 1_555
Cs0 Se0 3.782559 1_555
Cs1 Se15 3.659247 1_555
Cs1 Se5 3.716135 1_555
Cs1 Se4 3.785601 1_555
Cs1 Se1 3.829664 1_455
Cs1 Se10 3.829664 1_455
Cs1 Se2 4.216831 1_554
Cs1 Se11 4.216831 1_555
Cs2 Se12 3.591302 1_555
Cs2 Se6 3.659029 1_555
Cs2 Se7 3.764849 1_555
Cs2 Se11 3.841960 1_655
Cs2 Se2 3.841960 1_655
Cs3 Se13 3.581202 1_545
Cs3 Se6 3.697931 1_555
Cs3 Se8 3.766617 1_555
Cs3 Se3 3.766617 1_555
Cs3 Se7 3.790601 1_455
Cs4 Se12 3.579546 1_455
Cs4 Se10 3.646629 1_456
Cs4 Se13 3.660046 1_555
Cs4 Se0 3.692914 1_556
Cs4 Se4 3.713727 1_556
Cs4 Se7 3.773790 1_465
Cs4 Se2 3.781894 1_555
Cs5 Se12 3.587661 1_555
Cs5 Se13 3.636529 1_555
Cs5 Se1 3.715163 1_555
Cs5 Se9 3.752229 1_555
Cs5 Se5 3.770148 1_555
Cs5 Se3 3.773470 1_565
Cs5 Se6 3.785005 1_555
Cs6 Se15 3.581758 1_555
Cs6 Se14 3.615207 1_555
Cs6 Se8 3.702214 1_554
Cs6 Se2 3.736250 1_554
Cs6 Se0 3.749943 1_545
Cs6 Se6 3.751225 1_554
Cs6 Se5 3.793083 1_555
Cs7 Se14 3.578449 1_555
Cs7 Se15 3.626851 1_655
Cs7 Se11 3.673176 1_655
Cs7 Se3 3.702746 1_555
Cs7 Se1 3.740328 1_555
Cs7 Se7 3.765324 1_555
Cs7 Se4 3.807585 1_645
Cs8 Se14 3.578449 1_555
Cs8 Se15 3.626851 1_655
Cs8 Se2 3.673176 1_654
Cs8 Se8 3.702746 1_554
Cs8 Se10 3.740328 1_555
Cs8 Se7 3.765324 1_554
Cs8 Se4 3.807585 1_645
Cs9 Se15 3.581758 1_555
Cs9 Se14 3.615207 1_555
Cs9 Se3 3.702214 1_555
Cs9 Se11 3.736250 1_555
Cs9 Se9 3.749943 1_545
Cs9 Se6 3.751225 1_555
Cs9 Se5 3.793083 1_555
Cs10 Se12 3.587661 1_555
Cs10 Se13 3.636529 1_555
Cs10 Se10 3.715163 1_556
Cs10 Se0 3.752229 1_556
Cs10 Se5 3.770148 1_556
Cs10 Se8 3.773470 1_565
Cs10 Se6 3.785005 1_555
Cs11 Se12 3.579546 1_455
Cs11 Se1 3.646629 1_455
Cs11 Se13 3.660046 1_555
Cs11 Se9 3.692914 1_555
Cs11 Se4 3.713727 1_555
Cs11 Se7 3.773790 1_465
Cs11 Se11 3.781894 1_555
Ge0 Se6 2.337393 1_555
Ge0 Se11 2.346277 1_555
Ge0 Se2 2.346277 1_555
Ge0 Se13 2.368788 1_555
Se0 V1 2.281019 1_565
Se1 V2 2.275483 1_555
Se3 V0 2.278410 1_545
Se4 V1 2.289396 1_565
Se5 V2 2.288698 1_555
Se7 V0 2.293393 1_545
Se8 V0 2.278410 1_545
Se9 V1 2.281019 1_565
Se10 V2 2.275483 1_555
Se12 V0 2.276320 1_555
Se14 V2 2.278987 1_555
Se15 V1 2.276045 1_555
