# generated using pymatgen
data_MgZnCdCu3
_symmetry_space_group_name_H-M   'P 1'
_cell_length_a   5.00294971
_cell_length_b   5.00294878
_cell_length_c   4.94410709
_cell_angle_alpha   59.60551675
_cell_angle_beta   59.60551953
_cell_angle_gamma   60.00000009
_symmetry_Int_Tables_number   1
_chemical_formula_structural   MgZnCdCu3
_chemical_formula_sum   'Mg1 Zn1 Cd1 Cu3'
_cell_volume   86.97804604
_cell_formula_units_Z   1
loop_
 _symmetry_equiv_pos_site_id
 _symmetry_equiv_pos_as_xyz
  1  'x, y, z'
loop_
 _atom_site_type_symbol
 _atom_site_label
 _atom_site_symmetry_multiplicity
 _atom_site_fract_x
 _atom_site_fract_y
 _atom_site_fract_z
 _atom_site_occupancy
  Mg  Mg0  1  0.75230428  0.75230428  0.74308717  1
  Zn  Zn0  1  0.37467821  0.37467821  0.87596538  1
  Cd  Cd0  1  0.99887381  0.99887381  0.00337958  1
  Cu  Cu0  1  0.37503154  0.87408162  0.37585529  1
  Cu  Cu1  1  0.37503154  0.37503154  0.37585529  1
  Cu  Cu2  1  0.87408162  0.37503154  0.37585529  1
loop_
_geom_bond_atom_site_label_1
_geom_bond_atom_site_label_2
_geom_bond_distance
_geom_bond_site_symmetry_2
Mg0 Zn0 2.937253 1_565
Mg0 Zn0 2.937253 1_555
Mg0 Zn0 2.937253 1_655
Cd0 Cu1 2.904150 1_664
Cd0 Cu2 2.904152 1_564
Cd0 Cu0 2.904152 1_654
Cd0 Cu2 2.913966 1_565
Cd0 Cu0 2.913966 1_655
Cd0 Cu1 2.913968 1_655
Cd0 Cu1 2.913968 1_565
Cd0 Cu2 2.913970 1_555
Cd0 Cu0 2.913971 1_555
Cd0 Zn0 2.933350 1_664
Cd0 Zn0 2.933354 1_654
Cd0 Zn0 2.933354 1_564
Cd0 Mg0 2.968157 1_555
Cd0 Mg0 3.071488 1_564
Cd0 Mg0 3.071488 1_654
Cd0 Mg0 3.071492 1_554
Cu0 Zn0 2.470810 1_555
Cu0 Zn0 2.473299 1_564
Cu0 Cu1 2.496722 1_555
Cu0 Cu2 2.496722 1_555
Cu0 Cu1 2.506227 1_565
Cu0 Cu2 2.506227 1_465
Cu0 Mg0 2.903232 1_555
Cu0 Mg0 2.903232 1_455
Cu0 Mg0 2.919701 1_554
Cu1 Zn0 2.470810 1_555
Cu1 Zn0 2.473299 1_554
Cu1 Cu2 2.496722 1_555
Cu1 Cu2 2.506227 1_455
Cu1 Mg0 2.903232 1_545
Cu1 Mg0 2.903232 1_455
Cu1 Mg0 2.919701 1_554
Cu2 Zn0 2.470811 1_555
Cu2 Zn0 2.473300 1_654
Cu2 Mg0 2.903232 1_555
Cu2 Mg0 2.903232 1_545
Cu2 Mg0 2.919701 1_554
