# generated using pymatgen
data_Y4Zn9In2Ag
_symmetry_space_group_name_H-M   'P 1'
_cell_length_a   4.37093047
_cell_length_b   7.02074448
_cell_length_c   10.02044445
_cell_angle_alpha   90.15899811
_cell_angle_beta   90.00000000
_cell_angle_gamma   90.00000000
_symmetry_Int_Tables_number   1
_chemical_formula_structural   Y4Zn9In2Ag
_chemical_formula_sum   'Y4 Zn9 In2 Ag1'
_cell_volume   307.49805839
_cell_formula_units_Z   1
loop_
 _symmetry_equiv_pos_site_id
 _symmetry_equiv_pos_as_xyz
  1  'x, y, z'
loop_
 _atom_site_type_symbol
 _atom_site_label
 _atom_site_symmetry_multiplicity
 _atom_site_fract_x
 _atom_site_fract_y
 _atom_site_fract_z
 _atom_site_occupancy
  Y  Y0  1  0.25000000  0.30757558  0.67644547  1
  Y  Y1  1  0.75000000  0.69709388  0.33096899  1
  Y  Y2  1  0.25000000  0.80196299  0.82488404  1
  Y  Y3  1  0.75000000  0.19733893  0.16681836  1
  Zn  Zn0  1  0.75000000  0.96937898  0.60055845  1
  Zn  Zn1  1  0.75000000  0.29924715  0.46560397  1
  Zn  Zn2  1  0.25000000  0.68988777  0.53981660  1
  Zn  Zn3  1  0.75000000  0.80535835  0.03578849  1
  Zn  Zn4  1  0.25000000  0.18456047  0.95848482  1
  Zn  Zn5  1  0.75000000  0.60023567  0.65038645  1
  Zn  Zn6  1  0.25000000  0.41399868  0.35824223  1
  Zn  Zn7  1  0.75000000  0.09304637  0.84454367  1
  Zn  Zn8  1  0.25000000  0.91426587  0.14315135  1
  In  In0  1  0.25000000  0.52780045  0.09571753  1
  In  In1  1  0.25000000  0.02946738  0.40668743  1
  Ag  Ag0  1  0.75000000  0.46878149  0.90190415  1
loop_
_geom_bond_atom_site_label_1
_geom_bond_atom_site_label_2
_geom_bond_distance
_geom_bond_site_symmetry_2
Y0 Zn4 2.957470 1_555
Y0 Zn5 3.011508 1_555
Y0 Zn5 3.011508 1_455
Y0 Zn2 3.016498 1_555
Y0 Zn1 3.040165 1_555
Y0 Zn1 3.040165 1_455
Y0 Zn7 3.145808 1_555
Y0 Zn7 3.145808 1_455
Y0 Zn6 3.276928 1_555
Y0 Zn0 3.313943 1_445
Y0 Zn0 3.313943 1_545
Y1 Zn6 2.967199 1_655
Y1 Zn6 2.967199 1_555
Y1 Zn2 3.026382 1_555
Y1 Zn2 3.026382 1_655
Y1 Zn3 3.055985 1_555
Y1 Zn1 3.105293 1_555
Y1 Zn8 3.264798 1_555
Y1 Zn8 3.264798 1_655
Y1 Zn5 3.273991 1_555
Y1 Zn0 3.305044 1_555
Y2 Zn2 2.960788 1_555
Y2 Zn4 2.997916 1_565
Y2 Zn7 2.998203 1_465
Y2 Zn7 2.998203 1_565
Y2 Zn3 3.040201 1_456
Y2 Zn3 3.040201 1_556
Y2 Zn5 3.134606 1_455
Y2 Zn5 3.134606 1_555
Y2 Zn8 3.283073 1_556
Y2 Zn0 3.350410 1_455
Y2 Zn0 3.350410 1_555
Y3 Zn8 2.963035 1_545
Y3 Zn8 2.963035 1_645
Y3 Zn4 3.023461 1_554
Y3 Zn4 3.023461 1_654
Y3 Zn3 3.045872 1_545
Y3 Zn1 3.076335 1_555
Y3 Zn6 3.279201 1_555
Y3 Zn6 3.279201 1_655
Y3 Zn7 3.309323 1_554
Zn0 Zn7 2.592161 1_565
Zn0 Zn5 2.640679 1_555
Zn0 Zn1 2.685069 1_565
Zn0 Zn2 2.998411 1_555
Zn0 Zn2 2.998411 1_655
Zn1 Zn6 2.566612 1_655
Zn1 Zn6 2.566612 1_555
Zn1 Zn5 2.805740 1_555
Zn2 Zn5 2.530588 1_455
Zn2 Zn5 2.530588 1_555
Zn2 Zn6 2.653794 1_555
Zn3 Zn8 2.552199 1_655
Zn3 Zn8 2.552199 1_555
Zn3 Zn7 2.788089 1_564
Zn4 Zn7 2.547266 1_555
Zn4 Zn7 2.547266 1_455
Zn4 Zn8 2.654198 1_546
In0 Zn6 2.751391 1_555
In0 Zn8 2.753293 1_555
In0 Zn4 2.771234 1_554
In0 Zn3 2.990094 1_555
In0 Zn3 2.990094 1_455
In0 Y3 3.267389 1_455
In0 Y3 3.267389 1_555
In0 Y2 3.331523 1_554
In0 Y1 3.424963 1_455
In0 Y1 3.424963 1_555
In1 Zn2 2.735175 1_545
In1 Zn6 2.744319 1_555
In1 Zn8 2.759684 1_545
In1 Zn1 2.950599 1_555
In1 Zn1 2.950599 1_455
In1 Zn0 2.955124 1_545
In1 Zn0 2.955124 1_445
In1 Y1 3.284414 1_445
In1 Y1 3.284414 1_545
In1 Y0 3.330134 1_555
In1 Y3 3.458079 1_455
In1 Y3 3.458079 1_555
Ag0 Zn5 2.686387 1_555
Ag0 Zn7 2.698274 1_555
Ag0 Zn3 2.714057 1_556
Ag0 In0 2.952155 1_556
Ag0 In0 2.952155 1_656
Ag0 Zn4 3.014262 1_555
Ag0 Zn4 3.014262 1_655
Ag0 Y3 3.272088 1_556
Ag0 Y2 3.294494 1_555
Ag0 Y2 3.294494 1_655
Ag0 Y0 3.338708 1_655
Ag0 Y0 3.338708 1_555
