# generated using pymatgen
data_Rb2Hg3Bi
_symmetry_space_group_name_H-M   'P 1'
_cell_length_a   6.87361947
_cell_length_b   6.88862304
_cell_length_c   6.88862294
_cell_angle_alpha   135.70589792
_cell_angle_beta   101.08627188
_cell_angle_gamma   95.31141294
_symmetry_Int_Tables_number   1
_chemical_formula_structural   Rb2Hg3Bi
_chemical_formula_sum   'Rb2 Hg3 Bi1'
_cell_volume   210.54240674
_cell_formula_units_Z   1
loop_
 _symmetry_equiv_pos_site_id
 _symmetry_equiv_pos_as_xyz
  1  'x, y, z'
loop_
 _atom_site_type_symbol
 _atom_site_label
 _atom_site_symmetry_multiplicity
 _atom_site_fract_x
 _atom_site_fract_y
 _atom_site_fract_z
 _atom_site_occupancy
  Rb  Rb0  1  0.31536905  0.05646209  0.25890696  1
  Rb  Rb1  1  0.68255711  0.94325637  0.73930074  1
  Hg  Hg0  1  0.90560572  0.34158818  0.56401754  1
  Hg  Hg1  1  0.27096552  0.33525797  0.93570555  1
  Hg  Hg2  1  0.73042345  0.66831891  0.06210554  1
  Bi  Bi0  1  0.09508015  0.65511648  0.43996367  1
loop_
_geom_bond_atom_site_label_1
_geom_bond_atom_site_label_2
_geom_bond_distance
_geom_bond_site_symmetry_2
Rb0 Rb1 4.333132 1_545
Rb0 Rb1 4.430910 1_544
Rb0 Rb1 4.430910 1_555
Rb0 Rb1 4.661401 1_444
Hg0 Hg2 3.053521 1_545
Hg0 Hg2 3.053525 1_556
Hg0 Hg1 3.251424 1_655
Hg0 Rb0 3.687750 1_655
Hg0 Rb0 3.687750 1_666
Hg0 Rb0 3.751116 1_555
Hg0 Rb1 3.963713 1_555
Hg0 Rb1 3.963713 1_544
Hg0 Rb1 4.001732 1_545
Hg1 Hg2 3.276760 1_556
Hg1 Rb0 3.654558 1_555
Hg1 Rb0 3.654565 1_566
Hg1 Rb0 3.834930 1_556
Hg1 Rb1 3.844829 1_545
Hg1 Rb1 3.844836 1_556
Hg1 Rb1 4.015458 1_445
Hg2 Rb1 3.676253 1_555
Hg2 Rb1 3.676257 1_544
Hg2 Rb1 3.808271 1_554
Hg2 Rb0 3.851854 1_565
Hg2 Rb0 3.851857 1_554
Hg2 Rb0 3.984641 1_665
Bi0 Hg1 3.087760 1_565
Bi0 Hg1 3.087769 1_554
Bi0 Hg0 3.104910 1_455
Bi0 Hg2 3.307280 1_455
Bi0 Rb1 3.696404 1_455
Bi0 Rb1 3.696404 1_444
Bi0 Rb1 3.735333 1_555
Bi0 Rb0 3.921001 1_555
Bi0 Rb0 3.921001 1_566
Bi0 Rb0 4.047160 1_565
