# generated using pymatgen
data_NaLiMgSe2
_symmetry_space_group_name_H-M   'P 1'
_cell_length_a   4.25171964
_cell_length_b   4.25172057
_cell_length_c   7.09926234
_cell_angle_alpha   90.00000000
_cell_angle_beta   90.00000000
_cell_angle_gamma   120.00000793
_symmetry_Int_Tables_number   1
_chemical_formula_structural   NaLiMgSe2
_chemical_formula_sum   'Na1 Li1 Mg1 Se2'
_cell_volume   111.14070699
_cell_formula_units_Z   1
loop_
 _symmetry_equiv_pos_site_id
 _symmetry_equiv_pos_as_xyz
  1  'x, y, z'
loop_
 _atom_site_type_symbol
 _atom_site_label
 _atom_site_symmetry_multiplicity
 _atom_site_fract_x
 _atom_site_fract_y
 _atom_site_fract_z
 _atom_site_occupancy
  Na  Na0  1  0.66666700  0.33333300  0.02970337  1
  Li  Li0  1  0.00000000  0.00000000  0.34237927  1
  Mg  Mg0  1  0.33333300  0.66666700  0.62027365  1
  Se  Se0  1  0.00000000  0.00000000  0.74394962  1
  Se  Se1  1  0.33333300  0.66666700  0.26369509  1
loop_
_geom_bond_atom_site_label_1
_geom_bond_atom_site_label_2
_geom_bond_distance
_geom_bond_site_symmetry_2
Na0 Se1 2.963980 1_655
Na0 Se1 2.963980 1_545
Na0 Se1 2.963986 1_555
Na0 Se0 3.184506 1_654
Na0 Se0 3.184509 1_554
Na0 Se0 3.184509 1_664
Li0 Se1 2.517485 1_545
Li0 Se1 2.517488 1_445
Li0 Se1 2.517488 1_555
Li0 Se0 2.850853 1_555
Mg0 Se1 2.531445 1_555
Mg0 Se0 2.607028 1_565
Mg0 Se0 2.607031 1_665
Mg0 Se0 2.607031 1_555
