# generated using pymatgen
data_Th3Pd5
_symmetry_space_group_name_H-M   'P 1'
_cell_length_a   15.40328739
_cell_length_b   15.40328739
_cell_length_c   6.93310400
_cell_angle_alpha   90.00000000
_cell_angle_beta   90.00000000
_cell_angle_gamma   119.99999736
_symmetry_Int_Tables_number   1
_chemical_formula_structural   Th3Pd5
_chemical_formula_sum   'Th24 Pd40'
_cell_volume   1424.57459368
_cell_formula_units_Z   8
loop_
 _symmetry_equiv_pos_site_id
 _symmetry_equiv_pos_as_xyz
  1  'x, y, z'
loop_
 _atom_site_type_symbol
 _atom_site_label
 _atom_site_symmetry_multiplicity
 _atom_site_fract_x
 _atom_site_fract_y
 _atom_site_fract_z
 _atom_site_occupancy
  Th  Th0_0  1  0.36431300  0.00000000  0.00000000  1
  Th  Th0_1  1  0.36431300  0.00000000  0.50000000  1
  Th  Th0_2  1  0.36431300  0.50000000  0.00000000  1
  Th  Th0_3  1  0.36431300  0.50000000  0.50000000  1
  Th  Th0_4  1  0.86431300  0.00000000  0.00000000  1
  Th  Th0_5  1  0.86431300  0.00000000  0.50000000  1
  Th  Th0_6  1  0.86431300  0.50000000  0.00000000  1
  Th  Th0_7  1  0.86431300  0.50000000  0.50000000  1
  Th  Th1_0  1  0.13568700  0.13568700  0.00000000  1
  Th  Th1_1  1  0.13568700  0.13568700  0.50000000  1
  Th  Th1_2  1  0.13568700  0.63568700  0.00000000  1
  Th  Th1_3  1  0.13568700  0.63568700  0.50000000  1
  Th  Th1_4  1  0.63568700  0.13568700  0.00000000  1
  Th  Th1_5  1  0.63568700  0.13568700  0.50000000  1
  Th  Th1_6  1  0.63568700  0.63568700  0.00000000  1
  Th  Th1_7  1  0.63568700  0.63568700  0.50000000  1
  Th  Th2_0  1  0.00000000  0.36431300  0.00000000  1
  Th  Th2_1  1  0.00000000  0.36431300  0.50000000  1
  Th  Th2_2  1  0.00000000  0.86431300  0.00000000  1
  Th  Th2_3  1  0.00000000  0.86431300  0.50000000  1
  Th  Th2_4  1  0.50000000  0.36431300  0.00000000  1
  Th  Th2_5  1  0.50000000  0.36431300  0.50000000  1
  Th  Th2_6  1  0.50000000  0.86431300  0.00000000  1
  Th  Th2_7  1  0.50000000  0.86431300  0.50000000  1
  Pd  Pd0_0  1  0.16666650  0.33333350  0.00000000  1
  Pd  Pd0_1  1  0.16666650  0.33333350  0.50000000  1
  Pd  Pd0_2  1  0.16666650  0.83333350  0.00000000  1
  Pd  Pd0_3  1  0.16666650  0.83333350  0.50000000  1
  Pd  Pd0_4  1  0.66666650  0.33333350  0.00000000  1
  Pd  Pd0_5  1  0.66666650  0.33333350  0.50000000  1
  Pd  Pd0_6  1  0.66666650  0.83333350  0.00000000  1
  Pd  Pd0_7  1  0.66666650  0.83333350  0.50000000  1
  Pd  Pd1_0  1  0.33333350  0.16666650  0.00000000  1
  Pd  Pd1_1  1  0.33333350  0.16666650  0.50000000  1
  Pd  Pd1_2  1  0.33333350  0.66666650  0.00000000  1
  Pd  Pd1_3  1  0.33333350  0.66666650  0.50000000  1
  Pd  Pd1_4  1  0.83333350  0.16666650  0.00000000  1
  Pd  Pd1_5  1  0.83333350  0.16666650  0.50000000  1
  Pd  Pd1_6  1  0.83333350  0.66666650  0.00000000  1
  Pd  Pd1_7  1  0.83333350  0.66666650  0.50000000  1
  Pd  Pd2_0  1  0.17973750  0.00000000  0.25000000  1
  Pd  Pd2_1  1  0.17973750  0.00000000  0.75000000  1
  Pd  Pd2_2  1  0.17973750  0.50000000  0.25000000  1
  Pd  Pd2_3  1  0.17973750  0.50000000  0.75000000  1
  Pd  Pd2_4  1  0.67973750  0.00000000  0.25000000  1
  Pd  Pd2_5  1  0.67973750  0.00000000  0.75000000  1
  Pd  Pd2_6  1  0.67973750  0.50000000  0.25000000  1
  Pd  Pd2_7  1  0.67973750  0.50000000  0.75000000  1
  Pd  Pd3_0  1  0.32026250  0.32026250  0.25000000  1
  Pd  Pd3_1  1  0.32026250  0.32026250  0.75000000  1
  Pd  Pd3_2  1  0.32026250  0.82026250  0.25000000  1
  Pd  Pd3_3  1  0.32026250  0.82026250  0.75000000  1
  Pd  Pd3_4  1  0.82026250  0.32026250  0.25000000  1
  Pd  Pd3_5  1  0.82026250  0.32026250  0.75000000  1
  Pd  Pd3_6  1  0.82026250  0.82026250  0.25000000  1
  Pd  Pd3_7  1  0.82026250  0.82026250  0.75000000  1
  Pd  Pd4_0  1  0.00000000  0.17973750  0.25000000  1
  Pd  Pd4_1  1  0.00000000  0.17973750  0.75000000  1
  Pd  Pd4_2  1  0.00000000  0.67973750  0.25000000  1
  Pd  Pd4_3  1  0.00000000  0.67973750  0.75000000  1
  Pd  Pd4_4  1  0.50000000  0.17973750  0.25000000  1
  Pd  Pd4_5  1  0.50000000  0.17973750  0.75000000  1
  Pd  Pd4_6  1  0.50000000  0.67973750  0.25000000  1
  Pd  Pd4_7  1  0.50000000  0.67973750  0.75000000  1
loop_
_geom_bond_atom_site_label_1
_geom_bond_atom_site_label_2
_geom_bond_distance
_geom_bond_site_symmetry_2
Th0_0 Th0_1 3.466552 1_555
Th0_0 Th0_1 3.466552 1_554
Th0_0 Th2_6 3.620031 1_545
Th0_0 Th1_4 3.620031 1_555
Th0_1 Th2_7 3.620031 1_545
Th0_1 Th1_5 3.620031 1_555
Th0_2 Th0_3 3.466552 1_555
Th0_2 Th0_3 3.466552 1_554
Th0_2 Th2_4 3.620031 1_555
Th0_2 Th1_6 3.620031 1_555
Th0_3 Th2_5 3.620031 1_555
Th0_3 Th1_7 3.620031 1_555
Th0_4 Th0_5 3.466552 1_554
Th0_4 Th0_5 3.466552 1_555
Th0_4 Th2_2 3.620031 1_645
Th0_4 Th1_0 3.620031 1_655
Th0_5 Th2_3 3.620031 1_645
Th0_5 Th1_1 3.620031 1_655
Th0_6 Th0_7 3.466552 1_555
Th0_6 Th0_7 3.466552 1_554
Th0_6 Th2_0 3.620031 1_655
Th0_6 Th1_2 3.620031 1_655
Th0_7 Th2_1 3.620031 1_655
Th0_7 Th1_3 3.620031 1_655
Th1_0 Th1_1 3.466552 1_554
Th1_0 Th1_1 3.466552 1_555
Th1_0 Th2_2 3.620031 1_545
Th1_1 Th2_3 3.620031 1_545
Th1_2 Th1_3 3.466552 1_555
Th1_2 Th1_3 3.466552 1_554
Th1_2 Th2_0 3.620031 1_555
Th1_3 Th2_1 3.620031 1_555
Th1_4 Th1_5 3.466552 1_554
Th1_4 Th1_5 3.466552 1_555
Th1_4 Th2_6 3.620031 1_545
Th1_5 Th2_7 3.620031 1_545
Th1_6 Th1_7 3.466552 1_554
Th1_6 Th1_7 3.466552 1_555
Th1_6 Th2_4 3.620031 1_555
Th1_7 Th2_5 3.620031 1_555
Th2_0 Th2_1 3.466552 1_554
Th2_0 Th2_1 3.466552 1_555
Th2_2 Th2_3 3.466552 1_554
Th2_2 Th2_3 3.466552 1_555
Th2_4 Th2_5 3.466552 1_554
Th2_4 Th2_5 3.466552 1_555
Th2_6 Th2_7 3.466552 1_555
Th2_6 Th2_7 3.466552 1_554
Pd0_0 Th2_0 2.836075 1_555
Pd0_0 Th0_2 2.836080 1_555
Pd0_0 Th1_0 2.836083 1_555
Pd0_0 Pd2_3 3.019683 1_554
Pd0_0 Pd2_2 3.019683 1_555
Pd0_0 Pd4_1 3.019686 1_554
Pd0_0 Pd4_0 3.019686 1_555
Pd0_0 Pd3_1 3.019689 1_554
Pd0_0 Pd3_0 3.019689 1_555
Pd0_1 Th2_1 2.836075 1_555
Pd0_1 Th0_3 2.836080 1_555
Pd0_1 Th1_1 2.836083 1_555
Pd0_1 Pd2_2 3.019683 1_555
Pd0_1 Pd2_3 3.019683 1_555
Pd0_1 Pd4_0 3.019686 1_555
Pd0_1 Pd4_1 3.019686 1_555
Pd0_1 Pd3_0 3.019689 1_555
Pd0_1 Pd3_1 3.019689 1_555
Pd0_2 Th2_2 2.836075 1_555
Pd0_2 Th0_0 2.836080 1_565
Pd0_2 Th1_2 2.836083 1_555
Pd0_2 Pd2_1 3.019683 1_564
Pd0_2 Pd2_0 3.019683 1_565
Pd0_2 Pd4_3 3.019686 1_554
Pd0_2 Pd4_2 3.019686 1_555
Pd0_2 Pd3_3 3.019689 1_554
Pd0_2 Pd3_2 3.019689 1_555
Pd0_3 Th2_3 2.836075 1_555
Pd0_3 Th0_1 2.836080 1_565
Pd0_3 Th1_3 2.836083 1_555
Pd0_3 Pd2_0 3.019683 1_565
Pd0_3 Pd2_1 3.019683 1_565
Pd0_3 Pd4_2 3.019686 1_555
Pd0_3 Pd4_3 3.019686 1_555
Pd0_3 Pd3_2 3.019689 1_555
Pd0_3 Pd3_3 3.019689 1_555
Pd0_4 Th2_4 2.836075 1_555
Pd0_4 Th0_6 2.836080 1_555
Pd0_4 Th1_4 2.836083 1_555
Pd0_4 Pd2_7 3.019683 1_554
Pd0_4 Pd2_6 3.019683 1_555
Pd0_4 Pd4_5 3.019686 1_554
Pd0_4 Pd4_4 3.019686 1_555
Pd0_4 Pd3_5 3.019689 1_554
Pd0_4 Pd3_4 3.019689 1_555
Pd0_5 Th2_5 2.836075 1_555
Pd0_5 Th0_7 2.836080 1_555
Pd0_5 Th1_5 2.836083 1_555
Pd0_5 Pd2_6 3.019683 1_555
Pd0_5 Pd2_7 3.019683 1_555
Pd0_5 Pd4_4 3.019686 1_555
Pd0_5 Pd4_5 3.019686 1_555
Pd0_5 Pd3_4 3.019689 1_555
Pd0_5 Pd3_5 3.019689 1_555
Pd0_6 Th2_6 2.836075 1_555
Pd0_6 Th0_4 2.836080 1_565
Pd0_6 Th1_6 2.836083 1_555
Pd0_6 Pd2_5 3.019683 1_564
Pd0_6 Pd2_4 3.019683 1_565
Pd0_6 Pd4_7 3.019686 1_554
Pd0_6 Pd4_6 3.019686 1_555
Pd0_6 Pd3_7 3.019689 1_554
Pd0_6 Pd3_6 3.019689 1_555
Pd0_7 Th2_7 2.836075 1_555
Pd0_7 Th0_5 2.836080 1_565
Pd0_7 Th1_7 2.836083 1_555
Pd0_7 Pd2_4 3.019683 1_565
Pd0_7 Pd2_5 3.019683 1_565
Pd0_7 Pd4_6 3.019686 1_555
Pd0_7 Pd4_7 3.019686 1_555
Pd0_7 Pd3_6 3.019689 1_555
Pd0_7 Pd3_7 3.019689 1_555
Pd1_0 Th0_0 2.836075 1_555
Pd1_0 Th2_4 2.836080 1_555
Pd1_0 Th1_0 2.836083 1_555
Pd1_0 Pd4_5 3.019683 1_554
Pd1_0 Pd4_4 3.019683 1_555
Pd1_0 Pd2_1 3.019686 1_554
Pd1_0 Pd2_0 3.019686 1_555
Pd1_0 Pd3_1 3.019689 1_554
Pd1_0 Pd3_0 3.019689 1_555
Pd1_1 Th0_1 2.836075 1_555
Pd1_1 Th2_5 2.836080 1_555
Pd1_1 Th1_1 2.836083 1_555
Pd1_1 Pd4_4 3.019683 1_555
Pd1_1 Pd4_5 3.019683 1_555
Pd1_1 Pd2_0 3.019686 1_555
Pd1_1 Pd2_1 3.019686 1_555
Pd1_1 Pd3_0 3.019689 1_555
Pd1_1 Pd3_1 3.019689 1_555
Pd1_2 Th0_2 2.836075 1_555
Pd1_2 Th2_6 2.836080 1_555
Pd1_2 Th1_2 2.836083 1_555
Pd1_2 Pd4_7 3.019683 1_554
Pd1_2 Pd4_6 3.019683 1_555
Pd1_2 Pd2_3 3.019686 1_554
Pd1_2 Pd2_2 3.019686 1_555
Pd1_2 Pd3_3 3.019689 1_554
Pd1_2 Pd3_2 3.019689 1_555
Pd1_3 Th0_3 2.836075 1_555
Pd1_3 Th2_7 2.836080 1_555
Pd1_3 Th1_3 2.836083 1_555
Pd1_3 Pd4_6 3.019683 1_555
Pd1_3 Pd4_7 3.019683 1_555
Pd1_3 Pd2_2 3.019686 1_555
Pd1_3 Pd2_3 3.019686 1_555
Pd1_3 Pd3_2 3.019689 1_555
Pd1_3 Pd3_3 3.019689 1_555
Pd1_4 Th0_4 2.836075 1_555
Pd1_4 Th2_0 2.836080 1_655
Pd1_4 Th1_4 2.836083 1_555
Pd1_4 Pd4_0 3.019683 1_655
Pd1_4 Pd4_1 3.019683 1_654
Pd1_4 Pd2_5 3.019686 1_554
Pd1_4 Pd2_4 3.019686 1_555
Pd1_4 Pd3_5 3.019689 1_554
Pd1_4 Pd3_4 3.019689 1_555
Pd1_5 Th0_5 2.836075 1_555
Pd1_5 Th2_1 2.836080 1_655
Pd1_5 Th1_5 2.836083 1_555
Pd1_5 Pd4_0 3.019683 1_655
Pd1_5 Pd4_1 3.019683 1_655
Pd1_5 Pd2_4 3.019686 1_555
Pd1_5 Pd2_5 3.019686 1_555
Pd1_5 Pd3_4 3.019689 1_555
Pd1_5 Pd3_5 3.019689 1_555
Pd1_6 Th0_6 2.836075 1_555
Pd1_6 Th2_2 2.836080 1_655
Pd1_6 Th1_6 2.836083 1_555
Pd1_6 Pd4_3 3.019683 1_654
Pd1_6 Pd4_2 3.019683 1_655
Pd1_6 Pd2_7 3.019686 1_554
Pd1_6 Pd2_6 3.019686 1_555
Pd1_6 Pd3_7 3.019689 1_554
Pd1_6 Pd3_6 3.019689 1_555
Pd1_7 Th0_7 2.836075 1_555
Pd1_7 Th2_3 2.836080 1_655
Pd1_7 Th1_7 2.836083 1_555
Pd1_7 Pd4_2 3.019683 1_655
Pd1_7 Pd4_3 3.019683 1_655
Pd1_7 Pd2_6 3.019686 1_555
Pd1_7 Pd2_7 3.019686 1_555
Pd1_7 Pd3_6 3.019689 1_555
Pd1_7 Pd3_7 3.019689 1_555
Pd2_0 Th1_1 3.041542 1_555
Pd2_0 Th1_0 3.041542 1_555
Pd2_0 Th2_2 3.041542 1_545
Pd2_0 Th2_3 3.041542 1_545
Pd2_0 Th0_0 3.329758 1_555
Pd2_0 Th0_1 3.329758 1_555
Pd2_1 Th1_0 3.041542 1_556
Pd2_1 Th1_1 3.041542 1_555
Pd2_1 Th2_2 3.041542 1_546
Pd2_1 Th2_3 3.041542 1_545
Pd2_1 Th0_0 3.329758 1_556
Pd2_1 Th0_1 3.329758 1_555
Pd2_2 Th1_3 3.041542 1_555
Pd2_2 Th1_2 3.041542 1_555
Pd2_2 Th2_1 3.041542 1_555
Pd2_2 Th2_0 3.041542 1_555
Pd2_2 Th0_2 3.329758 1_555
Pd2_2 Th0_3 3.329758 1_555
Pd2_3 Th1_2 3.041542 1_556
Pd2_3 Th1_3 3.041542 1_555
Pd2_3 Th2_0 3.041542 1_556
Pd2_3 Th2_1 3.041542 1_555
Pd2_3 Th0_2 3.329758 1_556
Pd2_3 Th0_3 3.329758 1_555
Pd2_4 Th1_5 3.041542 1_555
Pd2_4 Th1_4 3.041542 1_555
Pd2_4 Th2_6 3.041542 1_545
Pd2_4 Th2_7 3.041542 1_545
Pd2_4 Th0_5 3.329758 1_555
Pd2_4 Th0_4 3.329758 1_555
Pd2_5 Th1_4 3.041542 1_556
Pd2_5 Th1_5 3.041542 1_555
Pd2_5 Th2_6 3.041542 1_546
Pd2_5 Th2_7 3.041542 1_545
Pd2_5 Th0_4 3.329758 1_556
Pd2_5 Th0_5 3.329758 1_555
Pd2_6 Th1_6 3.041542 1_555
Pd2_6 Th1_7 3.041542 1_555
Pd2_6 Th2_4 3.041542 1_555
Pd2_6 Th2_5 3.041542 1_555
Pd2_6 Th0_7 3.329758 1_555
Pd2_6 Th0_6 3.329758 1_555
Pd2_7 Th1_6 3.041542 1_556
Pd2_7 Th1_7 3.041542 1_555
Pd2_7 Th2_4 3.041542 1_556
Pd2_7 Th2_5 3.041542 1_555
Pd2_7 Th0_6 3.329758 1_556
Pd2_7 Th0_7 3.329758 1_555
Pd3_0 Th2_4 3.041542 1_555
Pd3_0 Th2_5 3.041542 1_555
Pd3_0 Th0_2 3.041542 1_555
Pd3_0 Th0_3 3.041542 1_555
Pd3_0 Th1_0 3.329758 1_555
Pd3_0 Th1_1 3.329758 1_555
Pd3_1 Th2_4 3.041542 1_556
Pd3_1 Th0_2 3.041542 1_556
Pd3_1 Th2_5 3.041542 1_555
Pd3_1 Th0_3 3.041542 1_555
Pd3_1 Th1_0 3.329758 1_556
Pd3_1 Th1_1 3.329758 1_555
Pd3_2 Th0_0 3.041542 1_565
Pd3_2 Th0_1 3.041542 1_565
Pd3_2 Th2_6 3.041542 1_555
Pd3_2 Th2_7 3.041542 1_555
Pd3_2 Th1_2 3.329758 1_555
Pd3_2 Th1_3 3.329758 1_555
Pd3_3 Th0_0 3.041542 1_566
Pd3_3 Th2_6 3.041542 1_556
Pd3_3 Th0_1 3.041542 1_565
Pd3_3 Th2_7 3.041542 1_555
Pd3_3 Th1_2 3.329758 1_556
Pd3_3 Th1_3 3.329758 1_555
Pd3_4 Th0_6 3.041542 1_555
Pd3_4 Th0_7 3.041542 1_555
Pd3_4 Th2_1 3.041542 1_655
Pd3_4 Th2_0 3.041542 1_655
Pd3_4 Th1_5 3.329758 1_555
Pd3_4 Th1_4 3.329758 1_555
Pd3_5 Th0_6 3.041542 1_556
Pd3_5 Th2_0 3.041542 1_656
Pd3_5 Th0_7 3.041542 1_555
Pd3_5 Th2_1 3.041542 1_655
Pd3_5 Th1_4 3.329758 1_556
Pd3_5 Th1_5 3.329758 1_555
Pd3_6 Th2_3 3.041542 1_655
Pd3_6 Th2_2 3.041542 1_655
Pd3_6 Th0_4 3.041542 1_565
Pd3_6 Th0_5 3.041542 1_565
Pd3_6 Th1_6 3.329758 1_555
Pd3_6 Th1_7 3.329758 1_555
Pd3_7 Th2_2 3.041542 1_656
Pd3_7 Th2_3 3.041542 1_655
Pd3_7 Th0_4 3.041542 1_566
Pd3_7 Th0_5 3.041542 1_565
Pd3_7 Th1_6 3.329758 1_556
Pd3_7 Th1_7 3.329758 1_555
Pd4_0 Th1_0 3.041542 1_555
Pd4_0 Th1_1 3.041542 1_555
Pd4_0 Th0_4 3.041542 1_455
Pd4_0 Th0_5 3.041542 1_455
Pd4_0 Th2_0 3.329758 1_555
Pd4_0 Th2_1 3.329758 1_555
Pd4_1 Th1_0 3.041542 1_556
Pd4_1 Th1_1 3.041542 1_555
Pd4_1 Th0_4 3.041542 1_456
Pd4_1 Th0_5 3.041542 1_455
Pd4_1 Th2_0 3.329758 1_556
Pd4_1 Th2_1 3.329758 1_555
Pd4_2 Th1_2 3.041542 1_555
Pd4_2 Th1_3 3.041542 1_555
Pd4_2 Th0_6 3.041542 1_455
Pd4_2 Th0_7 3.041542 1_455
Pd4_2 Th2_2 3.329758 1_555
Pd4_2 Th2_3 3.329758 1_555
Pd4_3 Th1_2 3.041542 1_556
Pd4_3 Th1_3 3.041542 1_555
Pd4_3 Th0_6 3.041542 1_456
Pd4_3 Th0_7 3.041542 1_455
Pd4_3 Th2_2 3.329758 1_556
Pd4_3 Th2_3 3.329758 1_555
Pd4_4 Th1_5 3.041542 1_555
Pd4_4 Th1_4 3.041542 1_555
Pd4_4 Th0_0 3.041542 1_555
Pd4_4 Th0_1 3.041542 1_555
Pd4_4 Th2_5 3.329758 1_555
Pd4_4 Th2_4 3.329758 1_555
Pd4_5 Th1_4 3.041542 1_556
Pd4_5 Th1_5 3.041542 1_555
Pd4_5 Th0_0 3.041542 1_556
Pd4_5 Th0_1 3.041542 1_555
Pd4_5 Th2_4 3.329758 1_556
Pd4_5 Th2_5 3.329758 1_555
Pd4_6 Th1_6 3.041542 1_555
Pd4_6 Th1_7 3.041542 1_555
Pd4_6 Th0_2 3.041542 1_555
Pd4_6 Th0_3 3.041542 1_555
Pd4_6 Th2_6 3.329758 1_555
Pd4_6 Th2_7 3.329758 1_555
Pd4_7 Th1_6 3.041542 1_556
Pd4_7 Th1_7 3.041542 1_555
Pd4_7 Th0_2 3.041542 1_556
Pd4_7 Th0_3 3.041542 1_555
Pd4_7 Th2_6 3.329758 1_556
Pd4_7 Th2_7 3.329758 1_555
