# generated using pymatgen
data_Hf16Nb2(PtRh)3
_symmetry_space_group_name_H-M   'P 1'
_cell_length_a   8.78266526
_cell_length_b   8.79157277
_cell_length_c   8.71918985
_cell_angle_alpha   60.27197723
_cell_angle_beta   60.23878855
_cell_angle_gamma   60.44185545
_symmetry_Int_Tables_number   1
_chemical_formula_structural   Hf16Nb2(PtRh)3
_chemical_formula_sum   'Hf16 Nb2 Pt3 Rh3'
_cell_volume   479.46855103
_cell_formula_units_Z   1
loop_
 _symmetry_equiv_pos_site_id
 _symmetry_equiv_pos_as_xyz
  1  'x, y, z'
loop_
 _atom_site_type_symbol
 _atom_site_label
 _atom_site_symmetry_multiplicity
 _atom_site_fract_x
 _atom_site_fract_y
 _atom_site_fract_z
 _atom_site_occupancy
  Hf  Hf0  1  0.09356916  0.62949214  0.63846885  1
  Hf  Hf1  1  0.62882463  0.09893425  0.63611956  1
  Hf  Hf2  1  0.64070758  0.63720227  0.08371434  1
  Hf  Hf3  1  0.64070758  0.63720227  0.63837481  1
  Hf  Hf4  1  0.79818293  0.79728083  0.20226862  1
  Hf  Hf5  1  0.18992022  0.19761464  0.80623257  1
  Hf  Hf6  1  0.81242053  0.18984959  0.80703181  1
  Hf  Hf7  1  0.18738409  0.81150343  0.19551674  1
  Hf  Hf8  1  0.18738409  0.81150343  0.80559775  1
  Hf  Hf9  1  0.81242053  0.18984959  0.19069707  1
  Hf  Hf10  1  0.43490306  0.43400778  0.06554558  1
  Hf  Hf11  1  0.06918989  0.06797079  0.43141916  1
  Hf  Hf12  1  0.43475617  0.06020327  0.43390238  1
  Hf  Hf13  1  0.06302706  0.43348758  0.06995469  1
  Hf  Hf14  1  0.06302706  0.43348758  0.43352967  1
  Hf  Hf15  1  0.43475617  0.06020327  0.07113917  1
  Nb  Nb0  1  0.75814010  0.41276486  0.41454802  1
  Nb  Nb1  1  0.41299656  0.75580046  0.41560199  1
  Pt  Pt0  1  0.41444363  0.41516841  0.76100094  1
  Pt  Pt1  1  0.41444363  0.41516841  0.40938801  1
  Pt  Pt2  1  0.44125412  0.85813139  0.85030725  1
  Rh  Rh0  1  0.85784377  0.44095558  0.85060033  1
  Rh  Rh1  1  0.85485072  0.85610859  0.44536483  1
  Rh  Rh2  1  0.85485072  0.85610859  0.84367486  1
loop_
_geom_bond_atom_site_label_1
_geom_bond_atom_site_label_2
_geom_bond_distance
_geom_bond_site_symmetry_2
Hf0 Rh0 2.645399 1_455
Hf0 Rh2 2.693769 1_455
Hf0 Rh1 2.693769 1_455
Hf0 Pt1 2.896072 1_555
Hf0 Pt0 2.896081 1_555
Hf0 Nb1 2.898438 1_555
Hf0 Hf5 3.134128 1_555
Hf0 Hf7 3.188761 1_555
Hf0 Hf8 3.188783 1_555
Hf0 Hf13 3.196885 1_556
Hf0 Hf14 3.196885 1_555
Hf0 Hf11 3.291315 1_565
Hf1 Pt2 2.673730 1_545
Hf1 Rh1 2.706834 1_545
Hf1 Rh2 2.706839 1_545
Hf1 Nb0 2.874294 1_555
Hf1 Pt1 2.874461 1_555
Hf1 Pt0 2.874475 1_555
Hf1 Hf5 3.179986 1_555
Hf1 Hf12 3.206454 1_555
Hf1 Hf15 3.206477 1_556
Hf1 Hf9 3.209052 1_555
Hf1 Hf6 3.209060 1_555
Hf1 Hf11 3.287545 1_655
Hf2 Rh0 2.669910 1_554
Hf2 Pt2 2.691640 1_554
Hf2 Rh2 2.699986 1_554
Hf2 Pt1 2.924115 1_555
Hf2 Nb0 2.928970 1_555
Hf2 Nb1 2.941159 1_555
Hf2 Hf4 3.121613 1_555
Hf2 Hf9 3.243261 1_555
Hf2 Hf7 3.280091 1_555
Hf3 Rh0 2.669916 1_555
Hf3 Pt2 2.691646 1_555
Hf3 Rh1 2.699986 1_555
Hf3 Pt0 2.924110 1_555
Hf3 Nb0 2.928956 1_555
Hf3 Nb1 2.941144 1_555
Hf3 Hf4 3.121599 1_555
Hf3 Hf6 3.243261 1_555
Hf3 Hf8 3.280093 1_555
Hf4 Rh1 2.719623 1_555
Hf4 Rh2 2.719640 1_554
Hf4 Nb0 3.049354 1_555
Hf4 Nb1 3.055266 1_555
Hf4 Hf8 3.452236 1_654
Hf4 Hf7 3.452240 1_655
Hf4 Hf9 3.464849 1_565
Hf4 Hf6 3.464857 1_564
Hf5 Rh0 2.603327 1_455
Hf5 Pt2 2.670711 1_545
Hf5 Pt1 3.146911 1_555
Hf5 Pt0 3.146915 1_555
Hf6 Rh2 2.638116 1_545
Hf6 Rh0 2.651061 1_555
Hf6 Nb0 3.134564 1_555
Hf6 Pt0 3.174149 1_555
Hf7 Rh1 2.613428 1_455
Hf7 Pt2 2.686001 1_554
Hf7 Nb1 3.119941 1_555
Hf7 Pt1 3.160291 1_555
Hf8 Rh2 2.613437 1_455
Hf8 Pt2 2.685991 1_555
Hf8 Nb1 3.119948 1_555
Hf8 Pt0 3.160295 1_555
Hf9 Rh1 2.638116 1_545
Hf9 Rh0 2.651056 1_554
Hf9 Nb0 3.134579 1_555
Hf9 Pt1 3.174155 1_555
Hf10 Pt1 2.837246 1_555
Hf10 Pt0 2.837255 1_554
Hf10 Hf2 3.199073 1_555
Hf10 Hf3 3.199089 1_554
Hf10 Rh0 3.242382 1_554
Hf10 Hf14 3.249383 1_555
Hf10 Hf13 3.249396 1_555
Hf10 Pt2 3.254171 1_554
Hf10 Hf12 3.263047 1_555
Hf10 Hf15 3.263051 1_555
Hf10 Hf9 3.322453 1_555
Hf10 Hf6 3.322466 1_554
Hf10 Hf8 3.345226 1_554
Hf10 Hf7 3.345226 1_555
Hf11 Nb1 2.907681 1_545
Hf11 Nb0 2.908586 1_455
Hf11 Rh2 3.167846 1_445
Hf11 Rh1 3.167846 1_445
Hf11 Hf15 3.188190 1_555
Hf11 Hf12 3.188199 1_555
Hf11 Hf13 3.196200 1_555
Hf11 Hf14 3.196200 1_555
Hf11 Hf7 3.250049 1_545
Hf11 Hf8 3.250070 1_545
Hf11 Hf6 3.274698 1_455
Hf11 Hf9 3.274698 1_455
Hf12 Nb1 2.860471 1_545
Hf12 Pt1 2.939954 1_555
Hf12 Hf15 3.163001 1_555
Hf12 Pt2 3.170190 1_545
Hf12 Hf3 3.204599 1_545
Hf12 Rh1 3.240211 1_545
Hf12 Hf4 3.249759 1_545
Hf12 Hf8 3.266928 1_545
Hf12 Hf14 3.295128 1_555
Hf12 Hf5 3.319454 1_555
Hf12 Hf9 3.338825 1_555
Hf13 Nb0 2.860421 1_455
Hf13 Pt0 2.914470 1_554
Hf13 Hf14 3.170079 1_555
Hf13 Rh0 3.176499 1_454
Hf13 Hf2 3.193228 1_455
Hf13 Hf4 3.259778 1_455
Hf13 Rh2 3.263300 1_454
Hf13 Hf9 3.264229 1_455
Hf13 Hf5 3.276358 1_554
Hf13 Hf15 3.295128 1_555
Hf13 Hf8 3.321919 1_554
Hf14 Nb0 2.860412 1_455
Hf14 Pt1 2.914478 1_555
Hf14 Rh0 3.176507 1_455
Hf14 Hf3 3.193227 1_455
Hf14 Hf4 3.259769 1_455
Hf14 Rh1 3.263300 1_455
Hf14 Hf6 3.264229 1_455
Hf14 Hf5 3.276365 1_555
Hf14 Hf7 3.321920 1_555
Hf15 Nb1 2.860470 1_545
Hf15 Pt0 2.939954 1_554
Hf15 Pt2 3.170198 1_544
Hf15 Hf2 3.204603 1_545
Hf15 Rh2 3.240217 1_544
Hf15 Hf4 3.249759 1_545
Hf15 Hf7 3.266925 1_545
Hf15 Hf5 3.319461 1_554
Hf15 Hf6 3.338825 1_554
Nb0 Pt0 3.030708 1_555
Nb0 Pt1 3.030709 1_555
Nb0 Nb1 3.043737 1_555
Nb1 Pt0 3.015619 1_555
Nb1 Pt1 3.015619 1_555
Pt0 Pt1 3.065780 1_555
