# generated using pymatgen
data_Y2(WO4)3
_symmetry_space_group_name_H-M   'P 1'
_cell_length_a   10.30873700
_cell_length_b   10.40004700
_cell_length_c   14.47027800
_cell_angle_alpha   90.00000000
_cell_angle_beta   90.00000000
_cell_angle_gamma   90.00000000
_symmetry_Int_Tables_number   1
_chemical_formula_structural   Y2(WO4)3
_chemical_formula_sum   'Y8 W12 O48'
_cell_volume   1551.37802928
_cell_formula_units_Z   4
loop_
 _symmetry_equiv_pos_site_id
 _symmetry_equiv_pos_as_xyz
  1  'x, y, z'
loop_
 _atom_site_type_symbol
 _atom_site_label
 _atom_site_symmetry_multiplicity
 _atom_site_fract_x
 _atom_site_fract_y
 _atom_site_fract_z
 _atom_site_occupancy
  Y  Y0  1  0.24966400  0.46875800  0.38344700  1
  Y  Y1  1  0.24966400  0.03124200  0.61655300  1
  Y  Y2  1  0.25033600  0.96875800  0.11655300  1
  Y  Y3  1  0.25033600  0.53124200  0.88344700  1
  Y  Y4  1  0.75033600  0.53124200  0.61655300  1
  Y  Y5  1  0.75033600  0.96875800  0.38344700  1
  Y  Y6  1  0.74966400  0.03124200  0.88344700  1
  Y  Y7  1  0.74966400  0.46875800  0.11655300  1
  W  W0  1  0.97210200  0.25000000  0.50000000  1
  W  W1  1  0.52789800  0.75000000  0.00000000  1
  W  W2  1  0.02789800  0.75000000  0.50000000  1
  W  W3  1  0.47210200  0.25000000  0.00000000  1
  W  W4  1  0.38904200  0.11169600  0.35697500  1
  W  W5  1  0.38904200  0.38830400  0.64302500  1
  W  W6  1  0.11095800  0.61169600  0.14302500  1
  W  W7  1  0.11095800  0.88830400  0.85697500  1
  W  W8  1  0.61095800  0.88830400  0.64302500  1
  W  W9  1  0.61095800  0.61169600  0.35697500  1
  W  W10  1  0.88904200  0.38830400  0.85697500  1
  W  W11  1  0.88904200  0.11169600  0.14302500  1
  O  O0  1  0.85676000  0.28013600  0.15841800  1
  O  O1  1  0.85676000  0.21986400  0.84158200  1
  O  O2  1  0.64324000  0.78013600  0.34158200  1
  O  O3  1  0.64324000  0.71986400  0.65841800  1
  O  O4  1  0.14324000  0.71986400  0.84158200  1
  O  O5  1  0.14324000  0.78013600  0.15841800  1
  O  O6  1  0.35676000  0.21986400  0.65841800  1
  O  O7  1  0.35676000  0.28013600  0.34158200  1
  O  O8  1  0.81994600  0.06083300  0.03540400  1
  O  O9  1  0.81994600  0.43916700  0.96459600  1
  O  O10  1  0.68005400  0.56083300  0.46459600  1
  O  O11  1  0.68005400  0.93916700  0.53540400  1
  O  O12  1  0.18005400  0.93916700  0.96459600  1
  O  O13  1  0.18005400  0.56083300  0.03540400  1
  O  O14  1  0.31994600  0.43916700  0.53540400  1
  O  O15  1  0.31994600  0.06083300  0.46459600  1
  O  O16  1  0.42684300  0.66139500  0.92146400  1
  O  O17  1  0.57315700  0.33860500  0.07853600  1
  O  O18  1  0.92684300  0.83860500  0.42146400  1
  O  O19  1  0.92684300  0.66139500  0.57853600  1
  O  O20  1  0.06110900  0.08510800  0.14053600  1
  O  O21  1  0.06110900  0.41489200  0.85946400  1
  O  O22  1  0.43889100  0.58510800  0.35946400  1
  O  O23  1  0.43889100  0.91489200  0.64053600  1
  O  O24  1  0.93889100  0.91489200  0.85946400  1
  O  O25  1  0.93889100  0.58510800  0.14053600  1
  O  O26  1  0.56110900  0.41489200  0.64053600  1
  O  O27  1  0.56110900  0.08510800  0.35946400  1
  O  O28  1  0.37151500  0.14147500  0.06441400  1
  O  O29  1  0.37151500  0.35852500  0.93558600  1
  O  O30  1  0.12848500  0.64147500  0.43558600  1
  O  O31  1  0.12848500  0.85852500  0.56441400  1
  O  O32  1  0.62848500  0.85852500  0.93558600  1
  O  O33  1  0.62848500  0.64147500  0.06441400  1
  O  O34  1  0.87151500  0.35852500  0.56441400  1
  O  O35  1  0.87151500  0.14147500  0.43558600  1
  O  O36  1  0.31827700  0.02077200  0.26420300  1
  O  O37  1  0.31827700  0.47922800  0.73579700  1
  O  O38  1  0.18172300  0.52077200  0.23579700  1
  O  O39  1  0.18172300  0.97922800  0.76420300  1
  O  O40  1  0.68172300  0.97922800  0.73579700  1
  O  O41  1  0.68172300  0.52077200  0.26420300  1
  O  O42  1  0.81827700  0.47922800  0.76420300  1
  O  O43  1  0.81827700  0.02077200  0.23579700  1
  O  O44  1  0.07315700  0.33860500  0.42146400  1
  O  O45  1  0.07315700  0.16139500  0.57853600  1
  O  O46  1  0.42684300  0.83860500  0.07853600  1
  O  O47  1  0.57315700  0.16139500  0.92146400  1
loop_
_geom_bond_atom_site_label_1
_geom_bond_atom_site_label_2
_geom_bond_distance
_geom_bond_site_symmetry_2
O0 W11 1.796972 1_555
O0 Y7 2.331103 1_555
O1 W10 1.796972 1_555
O1 Y6 2.331103 1_555
O2 W9 1.796972 1_555
O2 Y5 2.331103 1_555
O3 W8 1.796972 1_555
O3 Y4 2.331103 1_555
O4 W7 1.796972 1_555
O4 Y3 2.331103 1_555
O5 W6 1.796972 1_555
O5 Y2 2.331103 1_555
O6 W5 1.796972 1_555
O6 Y1 2.331103 1_555
O7 W4 1.796972 1_555
O7 Y0 2.331103 1_555
O8 W11 1.792311 1_555
O8 Y6 2.335513 1_554
O9 W10 1.792311 1_555
O9 Y7 2.335513 1_556
O10 W9 1.792311 1_555
O10 Y4 2.335513 1_555
O11 W8 1.792311 1_555
O11 Y5 2.335513 1_555
O12 W7 1.792311 1_555
O12 Y2 2.335513 1_556
O13 W6 1.792311 1_555
O13 Y3 2.335513 1_554
O14 W5 1.792311 1_555
O14 Y0 2.335513 1_555
O15 W4 1.792311 1_555
O15 Y1 2.335513 1_555
O16 W1 1.796076 1_556
O16 Y3 2.333595 1_555
O17 W3 1.796076 1_555
O17 Y7 2.333595 1_555
O18 W2 1.796076 1_655
O18 Y5 2.333595 1_555
O19 W2 1.796076 1_655
O19 Y4 2.333595 1_555
O20 W11 1.795578 1_455
O20 Y2 2.321604 1_545
O21 W10 1.795578 1_455
O21 Y3 2.321604 1_555
O22 W9 1.795578 1_555
O22 Y0 2.321604 1_555
O23 W8 1.795578 1_555
O23 Y1 2.321604 1_565
O24 W7 1.795578 1_655
O24 Y6 2.321604 1_565
O25 W6 1.795578 1_655
O25 Y7 2.321604 1_555
O26 W5 1.795578 1_555
O26 Y4 2.321604 1_555
O27 W4 1.795578 1_555
O27 Y5 2.321604 1_545
O28 W3 1.793847 1_555
O28 Y2 2.314367 1_545
O29 W3 1.793847 1_556
O29 Y3 2.314367 1_555
O30 W2 1.793847 1_555
O30 Y0 2.314367 1_555
O31 W2 1.793847 1_555
O31 Y1 2.314367 1_565
O32 W1 1.793847 1_556
O32 Y6 2.314367 1_565
O33 W1 1.793847 1_555
O33 Y7 2.314367 1_555
O34 W0 1.793847 1_555
O34 Y4 2.314367 1_555
O35 W0 1.793847 1_555
O35 Y5 2.314367 1_545
O36 W4 1.796800 1_555
O36 Y2 2.312564 1_545
O37 W5 1.796800 1_555
O37 Y3 2.312564 1_555
O38 W6 1.796800 1_555
O38 Y0 2.312564 1_555
O39 W7 1.796800 1_555
O39 Y1 2.312564 1_565
O40 W8 1.796800 1_555
O40 Y6 2.312564 1_565
O41 W9 1.796800 1_555
O41 Y7 2.312564 1_555
O42 W10 1.796800 1_555
O42 Y4 2.312564 1_555
O43 W11 1.796800 1_555
O43 Y5 2.312564 1_545
O44 W0 1.796076 1_455
O44 Y0 2.333595 1_555
O45 W0 1.796076 1_455
O45 Y1 2.333595 1_555
O46 W1 1.796076 1_555
O46 Y2 2.333595 1_555
O47 W3 1.796076 1_556
O47 Y6 2.333595 1_555
