# generated using pymatgen
data_Ba3YSb3
_symmetry_space_group_name_H-M   'P 1'
_cell_length_a   5.07458060
_cell_length_b   14.45072610
_cell_length_c   16.16785222
_cell_angle_alpha   90.00000000
_cell_angle_beta   90.00000000
_cell_angle_gamma   90.00000000
_symmetry_Int_Tables_number   1
_chemical_formula_structural   Ba3YSb3
_chemical_formula_sum   'Ba12 Y4 Sb12'
_cell_volume   1185.61082376
_cell_formula_units_Z   4
loop_
 _symmetry_equiv_pos_site_id
 _symmetry_equiv_pos_as_xyz
  1  'x, y, z'
loop_
 _atom_site_type_symbol
 _atom_site_label
 _atom_site_symmetry_multiplicity
 _atom_site_fract_x
 _atom_site_fract_y
 _atom_site_fract_z
 _atom_site_occupancy
  Ba  Ba0  1  0.25000000  0.07028441  0.89929794  1
  Ba  Ba1  1  0.75000000  0.92971559  0.10070206  1
  Ba  Ba2  1  0.25000000  0.57028441  0.60070206  1
  Ba  Ba3  1  0.75000000  0.42971559  0.39929794  1
  Ba  Ba4  1  0.25000000  0.84655550  0.49840691  1
  Ba  Ba5  1  0.75000000  0.15344450  0.50159309  1
  Ba  Ba6  1  0.25000000  0.34655550  0.00159309  1
  Ba  Ba7  1  0.75000000  0.65344450  0.99840691  1
  Ba  Ba8  1  0.75000000  0.23255463  0.21101835  1
  Ba  Ba9  1  0.25000000  0.76744537  0.78898165  1
  Ba  Ba10  1  0.75000000  0.73255463  0.28898165  1
  Ba  Ba11  1  0.25000000  0.26744537  0.71101835  1
  Y  Y0  1  0.25000000  0.05144883  0.29699344  1
  Y  Y1  1  0.75000000  0.94855117  0.70300656  1
  Y  Y2  1  0.25000000  0.55144883  0.20300656  1
  Y  Y3  1  0.75000000  0.44855117  0.79699344  1
  Sb  Sb0  1  0.25000000  0.24404783  0.37016451  1
  Sb  Sb1  1  0.75000000  0.75595217  0.62983549  1
  Sb  Sb2  1  0.25000000  0.74404783  0.12983549  1
  Sb  Sb3  1  0.75000000  0.25595217  0.87016451  1
  Sb  Sb4  1  0.25000000  0.10196058  0.11576572  1
  Sb  Sb5  1  0.75000000  0.89803942  0.88423428  1
  Sb  Sb6  1  0.25000000  0.60196058  0.38423428  1
  Sb  Sb7  1  0.75000000  0.39803942  0.61576572  1
  Sb  Sb8  1  0.25000000  0.03986327  0.64155154  1
  Sb  Sb9  1  0.75000000  0.96013673  0.35844846  1
  Sb  Sb10  1  0.25000000  0.53986327  0.85844846  1
  Sb  Sb11  1  0.75000000  0.46013673  0.14155154  1
loop_
_geom_bond_atom_site_label_1
_geom_bond_atom_site_label_2
_geom_bond_distance
_geom_bond_site_symmetry_2
Ba0 Sb4 3.529627 1_556
Ba0 Sb5 3.562668 1_445
Ba0 Sb5 3.562668 1_545
Ba0 Sb3 3.722684 1_455
Ba0 Sb3 3.722684 1_555
Ba1 Sb5 3.529627 1_554
Ba1 Sb4 3.562668 1_565
Ba1 Sb4 3.562668 1_665
Ba1 Sb2 3.722684 1_555
Ba1 Sb2 3.722684 1_655
Ba2 Sb6 3.529627 1_555
Ba2 Sb7 3.562668 1_455
Ba2 Sb7 3.562668 1_555
Ba2 Sb1 3.722684 1_455
Ba2 Sb1 3.722684 1_555
Ba3 Sb7 3.529627 1_555
Ba3 Sb6 3.562668 1_555
Ba3 Sb6 3.562668 1_655
Ba3 Sb0 3.722684 1_555
Ba3 Sb0 3.722684 1_655
Ba4 Sb1 3.559121 1_455
Ba4 Sb1 3.559121 1_555
Ba4 Sb8 3.627598 1_565
Ba4 Sb9 3.775209 1_455
Ba4 Sb9 3.775209 1_555
Ba4 Sb6 3.987563 1_555
Ba5 Sb0 3.559121 1_655
Ba5 Sb0 3.559121 1_555
Ba5 Sb9 3.627598 1_545
Ba5 Sb8 3.775209 1_555
Ba5 Sb8 3.775209 1_655
Ba5 Sb7 3.987563 1_555
Ba6 Sb3 3.559121 1_554
Ba6 Sb3 3.559121 1_454
Ba6 Sb10 3.627598 1_554
Ba6 Sb11 3.775209 1_555
Ba6 Sb11 3.775209 1_455
Ba6 Sb4 3.987563 1_555
Ba7 Sb2 3.559121 1_556
Ba7 Sb2 3.559121 1_656
Ba7 Sb11 3.627598 1_556
Ba7 Sb10 3.775209 1_655
Ba7 Sb10 3.775209 1_555
Ba7 Sb5 3.987563 1_555
Ba8 Sb11 3.475218 1_555
Ba8 Sb4 3.517240 1_655
Ba8 Sb4 3.517240 1_555
Ba8 Sb0 3.617461 1_555
Ba8 Sb0 3.617461 1_655
Ba9 Sb10 3.475218 1_555
Ba9 Sb5 3.517240 1_455
Ba9 Sb5 3.517240 1_555
Ba9 Sb1 3.617461 1_455
Ba9 Sb1 3.617461 1_555
Ba10 Sb9 3.475218 1_555
Ba10 Sb6 3.517240 1_555
Ba10 Sb6 3.517240 1_655
Ba10 Sb2 3.617461 1_555
Ba10 Sb2 3.617461 1_655
Ba11 Sb8 3.475218 1_555
Ba11 Sb7 3.517240 1_555
Ba11 Sb7 3.517240 1_455
Ba11 Sb3 3.617461 1_455
Ba11 Sb3 3.617461 1_555
Sb0 Y0 3.024188 1_555
Sb1 Y1 3.024188 1_555
Sb2 Y2 3.024188 1_555
Sb3 Y3 3.024188 1_555
Sb4 Y0 3.019614 1_555
Sb5 Y1 3.019614 1_555
Sb6 Y2 3.019614 1_555
Sb7 Y3 3.019614 1_555
Sb8 Y1 3.027577 1_445
Sb8 Y1 3.027577 1_545
Sb9 Y0 3.027577 1_565
Sb9 Y0 3.027577 1_665
Sb10 Y3 3.027577 1_555
Sb10 Y3 3.027577 1_455
Sb11 Y2 3.027577 1_655
Sb11 Y2 3.027577 1_555
