# generated using pymatgen
data_Sr2B4OsRh3
_symmetry_space_group_name_H-M   'P 1'
_cell_length_a   7.04812846
_cell_length_b   6.08980809
_cell_length_c   5.60602653
_cell_angle_alpha   73.98503584
_cell_angle_beta   56.14982525
_cell_angle_gamma   50.25130001
_symmetry_Int_Tables_number   1
_chemical_formula_structural   Sr2B4OsRh3
_chemical_formula_sum   'Sr2 B4 Os1 Rh3'
_cell_volume   152.42479314
_cell_formula_units_Z   1
loop_
 _symmetry_equiv_pos_site_id
 _symmetry_equiv_pos_as_xyz
  1  'x, y, z'
loop_
 _atom_site_type_symbol
 _atom_site_label
 _atom_site_symmetry_multiplicity
 _atom_site_fract_x
 _atom_site_fract_y
 _atom_site_fract_z
 _atom_site_occupancy
  Sr  Sr0  1  0.99802494  0.99802247  0.00198297  1
  Sr  Sr1  1  0.25539045  0.25538448  0.24462574  1
  B  B0  1  0.32309064  0.68776846  0.33783054  1
  B  B1  1  0.56424924  0.92670580  0.57973128  1
  B  B2  1  0.68778207  0.32307751  0.65131088  1
  B  B3  1  0.92669626  0.56425796  0.92930515  1
  Os  Os0  1  0.63235210  0.63236111  0.36764736  1
  Rh  Rh0  1  0.87942420  0.87940705  0.62057765  1
  Rh  Rh1  1  0.61621684  0.61623654  0.88377269  1
  Rh  Rh2  1  0.36677326  0.36677862  0.63321574  1
loop_
_geom_bond_atom_site_label_1
_geom_bond_atom_site_label_2
_geom_bond_distance
_geom_bond_site_symmetry_2
B0 Os0 2.080184 1_555
B0 Rh0 2.117688 1_455
B0 Rh1 2.130656 1_554
B0 Rh2 2.161080 1_555
B0 Sr1 3.101797 1_565
B0 Sr0 3.109772 1_455
B0 Sr1 3.174552 1_555
B0 Sr0 3.394715 1_456
B1 Os0 2.072900 1_555
B1 Rh2 2.101805 1_565
B1 Rh1 2.155413 1_555
B1 Rh0 2.186780 1_555
B1 Sr1 3.030386 1_565
B1 Sr0 3.089523 1_456
B1 Sr0 3.149030 1_555
B2 Os0 2.080236 1_555
B2 Rh0 2.117717 1_545
B2 Rh1 2.130680 1_555
B2 Rh2 2.161213 1_555
B2 Sr1 3.101760 1_655
B2 Sr0 3.109781 1_546
B2 Sr1 3.174610 1_556
B2 Sr0 3.394648 1_545
B3 Os0 2.072951 1_556
B3 Rh2 2.101821 1_655
B3 Rh1 2.155428 1_555
B3 Rh0 2.186697 1_555
B3 Sr1 3.030623 1_656
B3 Sr0 3.089548 1_546
B3 Sr0 3.149099 1_556
Os0 Sr1 3.104188 1_565
Os0 Sr1 3.104302 1_655
Os0 Sr0 3.393899 1_456
Os0 Sr0 3.393928 1_545
Rh0 Sr0 3.067106 1_555
Rh0 Sr0 3.067224 1_556
Rh0 Sr1 3.350336 1_655
Rh0 Sr1 3.350469 1_566
Rh1 Sr0 3.083427 1_456
Rh1 Sr0 3.083572 1_546
Rh1 Sr1 3.415280 1_655
Rh1 Sr1 3.415296 1_566
Rh2 Sr1 3.037064 1_555
Rh2 Sr1 3.037300 1_556
Rh2 Sr0 3.380546 1_545
Rh2 Sr0 3.380619 1_456
