# generated using pymatgen
data_Lu2PdPtF14
_symmetry_space_group_name_H-M   'P 1'
_cell_length_a   5.34091917
_cell_length_b   8.54862553
_cell_length_c   11.61608635
_cell_angle_alpha   62.81800955
_cell_angle_beta   89.97517120
_cell_angle_gamma   90.09185956
_symmetry_Int_Tables_number   1
_chemical_formula_structural   Lu2PdPtF14
_chemical_formula_sum   'Lu4 Pd2 Pt2 F28'
_cell_volume   471.78752109
_cell_formula_units_Z   2
loop_
 _symmetry_equiv_pos_site_id
 _symmetry_equiv_pos_as_xyz
  1  'x, y, z'
loop_
 _atom_site_type_symbol
 _atom_site_label
 _atom_site_symmetry_multiplicity
 _atom_site_fract_x
 _atom_site_fract_y
 _atom_site_fract_z
 _atom_site_occupancy
  Lu  Lu0  1  0.26118325  0.81539523  0.26309624  1
  Lu  Lu1  1  0.73881675  0.18460477  0.73690376  1
  Lu  Lu2  1  0.76261165  0.18649896  0.23384733  1
  Lu  Lu3  1  0.23738835  0.81350104  0.76615267  1
  Pd  Pd0  1  0.75919682  0.72877826  0.04294505  1
  Pd  Pd1  1  0.24080318  0.27122174  0.95705495  1
  Pt  Pt0  1  0.25975679  0.27120336  0.45679834  1
  Pt  Pt1  1  0.74024321  0.72879664  0.54320166  1
  F  F0  1  0.93684799  0.70258427  0.41243451  1
  F  F1  1  0.06315201  0.29741573  0.58756549  1
  F  F2  1  0.43556120  0.29688422  0.08529970  1
  F  F3  1  0.56443880  0.70311578  0.91470030  1
  F  F4  1  0.46090885  0.72454754  0.13525015  1
  F  F5  1  0.53909115  0.27545246  0.86474985  1
  F  F6  1  0.95864348  0.27896796  0.36067981  1
  F  F7  1  0.04135652  0.72103204  0.63932019  1
  F  F8  1  0.94697804  0.74731383  0.17685226  1
  F  F9  1  0.05302196  0.25268617  0.82314774  1
  F  F10  1  0.44853450  0.25225714  0.32032939  1
  F  F11  1  0.55146550  0.74774286  0.67967061  1
  F  F12  1  0.77673007  0.47789242  0.14062066  1
  F  F13  1  0.22326993  0.52210758  0.85937934  1
  F  F14  1  0.28015726  0.52575672  0.35613560  1
  F  F15  1  0.71984274  0.47424328  0.64386440  1
  F  F16  1  0.93389510  0.27506329  0.04193633  1
  F  F17  1  0.06610490  0.72493671  0.95806367  1
  F  F18  1  0.42945963  0.72749187  0.45567663  1
  F  F19  1  0.57054037  0.27250813  0.54432337  1
  F  F20  1  0.74755357  0.98317205  0.44804709  1
  F  F21  1  0.25244643  0.01682795  0.55195291  1
  F  F22  1  0.24656355  0.02088469  0.04963634  1
  F  F23  1  0.75343645  0.97911531  0.95036366  1
  F  F24  1  0.58920173  0.96816531  0.23191554  1
  F  F25  1  0.41079827  0.03183469  0.76808446  1
  F  F26  1  0.08875402  0.03245126  0.26697963  1
  F  F27  1  0.91124598  0.96754874  0.73302037  1
loop_
_geom_bond_atom_site_label_1
_geom_bond_atom_site_label_2
_geom_bond_distance
_geom_bond_site_symmetry_2
F0 Pt1 1.941788 1_555
F0 Lu0 2.324558 1_655
F1 Pt0 1.941788 1_555
F1 Lu1 2.324558 1_455
F2 Pd1 1.910111 1_554
F2 Lu2 2.332235 1_555
F3 Pd0 1.910111 1_556
F3 Lu3 2.332235 1_555
F4 Pd0 1.911007 1_555
F4 Lu0 2.236400 1_555
F5 Pd1 1.911007 1_555
F5 Lu1 2.236400 1_555
F6 Pt0 1.942058 1_655
F6 Lu2 2.225842 1_555
F7 Pt1 1.942058 1_455
F7 Lu3 2.225842 1_555
F8 Pd0 1.917421 1_555
F8 Lu0 2.165540 1_655
F9 Pd1 1.917421 1_555
F9 Lu1 2.165540 1_455
F10 Pt0 1.946659 1_555
F10 Lu2 2.157910 1_555
F11 Pt1 1.946659 1_555
F11 Lu3 2.157910 1_555
F12 Pd0 1.916621 1_555
F12 Lu2 2.217719 1_555
F13 Pd1 1.916621 1_555
F13 Lu3 2.217719 1_555
F14 Pt0 1.946498 1_555
F14 Lu0 2.205669 1_555
F15 Pt1 1.946498 1_555
F15 Lu1 2.205669 1_555
F16 Pd1 1.920544 1_654
F16 Lu2 2.198558 1_555
F17 Pd0 1.920544 1_456
F17 Lu3 2.198558 1_555
F18 Pt1 1.949547 1_555
F18 Lu0 2.201091 1_555
F19 Pt0 1.949547 1_555
F19 Lu1 2.201091 1_555
F20 Pt1 1.937952 1_555
F20 Lu2 2.294927 1_565
F21 Pt0 1.937952 1_555
F21 Lu3 2.294927 1_545
F22 Pd1 1.906515 1_554
F22 Lu0 2.293737 1_545
F23 Pd0 1.906515 1_556
F23 Lu1 2.293737 1_565
F24 Lu2 2.091573 1_565
F24 Lu0 2.113273 1_555
F25 Lu3 2.091573 1_545
F25 Lu1 2.113273 1_555
F26 Lu0 2.091664 1_545
F26 Lu2 2.112210 1_455
F27 Lu1 2.091664 1_565
F27 Lu3 2.112210 1_655
