# generated using pymatgen
data_Ta3Zn2GaIr3
_symmetry_space_group_name_H-M   'P 1'
_cell_length_a   14.80117735
_cell_length_b   14.79069229
_cell_length_c   5.81874844
_cell_angle_alpha   90.00000000
_cell_angle_beta   90.00000000
_cell_angle_gamma   119.97656669
_symmetry_Int_Tables_number   1
_chemical_formula_structural   Ta3Zn2GaIr3
_chemical_formula_sum   'Ta24 Zn16 Ga8 Ir24'
_cell_volume   1103.43683876
_cell_formula_units_Z   8
loop_
 _symmetry_equiv_pos_site_id
 _symmetry_equiv_pos_as_xyz
  1  'x, y, z'
loop_
 _atom_site_type_symbol
 _atom_site_label
 _atom_site_symmetry_multiplicity
 _atom_site_fract_x
 _atom_site_fract_y
 _atom_site_fract_z
 _atom_site_occupancy
  Ta  Ta0_0  1  0.18662234  0.00250895  0.25000050  1
  Ta  Ta0_1  1  0.18662234  0.00250895  0.75000050  1
  Ta  Ta0_2  1  0.18662234  0.50250895  0.25000050  1
  Ta  Ta0_3  1  0.18662234  0.50250895  0.75000050  1
  Ta  Ta0_4  1  0.68662234  0.00250895  0.25000050  1
  Ta  Ta0_5  1  0.68662234  0.00250895  0.75000050  1
  Ta  Ta0_6  1  0.68662234  0.50250895  0.25000050  1
  Ta  Ta0_7  1  0.68662234  0.50250895  0.75000050  1
  Ta  Ta1_0  1  0.00000000  0.18052473  0.25000050  1
  Ta  Ta1_1  1  0.00000000  0.18052473  0.75000050  1
  Ta  Ta1_2  1  0.00000000  0.68052473  0.25000050  1
  Ta  Ta1_3  1  0.00000000  0.68052473  0.75000050  1
  Ta  Ta1_4  1  0.50000000  0.18052473  0.25000050  1
  Ta  Ta1_5  1  0.50000000  0.18052473  0.75000050  1
  Ta  Ta1_6  1  0.50000000  0.68052473  0.25000050  1
  Ta  Ta1_7  1  0.50000000  0.68052473  0.75000050  1
  Ta  Ta2_0  1  0.31337766  0.31588711  0.25000050  1
  Ta  Ta2_1  1  0.31337766  0.31588711  0.75000050  1
  Ta  Ta2_2  1  0.31337766  0.81588711  0.25000050  1
  Ta  Ta2_3  1  0.31337766  0.81588711  0.75000050  1
  Ta  Ta2_4  1  0.81337766  0.31588711  0.25000050  1
  Ta  Ta2_5  1  0.81337766  0.31588711  0.75000050  1
  Ta  Ta2_6  1  0.81337766  0.81588711  0.25000050  1
  Ta  Ta2_7  1  0.81337766  0.81588711  0.75000050  1
  Zn  Zn0_0  1  0.35270049  0.49973614  0.00000000  1
  Zn  Zn0_1  1  0.35270049  0.49973614  0.50000000  1
  Zn  Zn0_2  1  0.35270049  0.99973614  0.00000000  1
  Zn  Zn0_3  1  0.35270049  0.99973614  0.50000000  1
  Zn  Zn0_4  1  0.85270049  0.49973614  0.00000000  1
  Zn  Zn0_5  1  0.85270049  0.49973614  0.50000000  1
  Zn  Zn0_6  1  0.85270049  0.99973614  0.00000000  1
  Zn  Zn0_7  1  0.85270049  0.99973614  0.50000000  1
  Zn  Zn1_0  1  0.14729951  0.14703565  0.00000000  1
  Zn  Zn1_1  1  0.14729951  0.14703565  0.50000000  1
  Zn  Zn1_2  1  0.14729951  0.64703565  0.00000000  1
  Zn  Zn1_3  1  0.14729951  0.64703565  0.50000000  1
  Zn  Zn1_4  1  0.64729951  0.14703565  0.00000000  1
  Zn  Zn1_5  1  0.64729951  0.14703565  0.50000000  1
  Zn  Zn1_6  1  0.64729951  0.64703565  0.00000000  1
  Zn  Zn1_7  1  0.64729951  0.64703565  0.50000000  1
  Ga  Ga0_0  1  0.50000000  0.35379538  0.00000000  1
  Ga  Ga0_1  1  0.50000000  0.35379538  0.50000000  1
  Ga  Ga0_2  1  0.50000000  0.85379538  0.00000000  1
  Ga  Ga0_3  1  0.50000000  0.85379538  0.50000000  1
  Ga  Ga0_4  1  1.00000000  0.35379538  0.00000000  1
  Ga  Ga0_5  1  1.00000000  0.35379538  0.50000000  1
  Ga  Ga0_6  1  1.00000000  0.85379538  0.00000000  1
  Ga  Ga0_7  1  1.00000000  0.85379538  0.50000000  1
  Ir  Ir0_0  1  0.33511221  0.16858829  0.00000000  1
  Ir  Ir0_1  1  0.33511221  0.16858829  0.50000000  1
  Ir  Ir0_2  1  0.33511221  0.66858829  0.00000000  1
  Ir  Ir0_3  1  0.33511221  0.66858829  0.50000000  1
  Ir  Ir0_4  1  0.83511221  0.16858829  0.00000000  1
  Ir  Ir0_5  1  0.83511221  0.16858829  0.50000000  1
  Ir  Ir0_6  1  0.83511221  0.66858829  0.00000000  1
  Ir  Ir0_7  1  0.83511221  0.66858829  0.50000000  1
  Ir  Ir1_0  1  0.16488829  0.33347608  0.00000000  1
  Ir  Ir1_1  1  0.16488829  0.33347608  0.50000000  1
  Ir  Ir1_2  1  0.16488829  0.83347608  0.00000000  1
  Ir  Ir1_3  1  0.16488829  0.83347608  0.50000000  1
  Ir  Ir1_4  1  0.66488829  0.33347608  0.00000000  1
  Ir  Ir1_5  1  0.66488829  0.33347608  0.50000000  1
  Ir  Ir1_6  1  0.66488829  0.83347608  0.00000000  1
  Ir  Ir1_7  1  0.66488829  0.83347608  0.50000000  1
  Ir  Ir2_0  1  0.00000000  0.49844914  0.25000050  1
  Ir  Ir2_1  1  0.00000000  0.49844914  0.75000050  1
  Ir  Ir2_2  1  0.00000000  0.99844914  0.25000050  1
  Ir  Ir2_3  1  0.00000000  0.99844914  0.75000050  1
  Ir  Ir2_4  1  0.50000000  0.49844914  0.25000050  1
  Ir  Ir2_5  1  0.50000000  0.49844914  0.75000050  1
  Ir  Ir2_6  1  0.50000000  0.99844914  0.25000050  1
  Ir  Ir2_7  1  0.50000000  0.99844914  0.75000050  1
loop_
_geom_bond_atom_site_label_1
_geom_bond_atom_site_label_2
_geom_bond_distance
_geom_bond_site_symmetry_2
Ta0_0 Zn0_3 2.874203 1_545
Ta0_0 Zn0_2 2.874206 1_545
Ta0_0 Zn1_1 2.875359 1_555
Ta0_0 Zn1_0 2.875362 1_555
Ta0_0 Ta0_1 2.909374 1_555
Ta0_0 Ta0_1 2.909374 1_554
Ta0_1 Zn0_2 2.874203 1_546
Ta0_1 Zn0_3 2.874206 1_545
Ta0_1 Zn1_0 2.875359 1_556
Ta0_1 Zn1_1 2.875362 1_555
Ta0_2 Zn0_1 2.874203 1_555
Ta0_2 Zn0_0 2.874206 1_555
Ta0_2 Zn1_3 2.875359 1_555
Ta0_2 Zn1_2 2.875362 1_555
Ta0_2 Ta0_3 2.909374 1_554
Ta0_2 Ta0_3 2.909374 1_555
Ta0_3 Zn0_0 2.874203 1_556
Ta0_3 Zn0_1 2.874206 1_555
Ta0_3 Zn1_2 2.875359 1_556
Ta0_3 Zn1_3 2.875362 1_555
Ta0_4 Zn0_7 2.874203 1_545
Ta0_4 Zn0_6 2.874206 1_545
Ta0_4 Zn1_5 2.875359 1_555
Ta0_4 Zn1_4 2.875362 1_555
Ta0_4 Ta0_5 2.909374 1_555
Ta0_4 Ta0_5 2.909374 1_554
Ta0_5 Zn0_6 2.874203 1_546
Ta0_5 Zn0_7 2.874206 1_545
Ta0_5 Zn1_4 2.875359 1_556
Ta0_5 Zn1_5 2.875362 1_555
Ta0_6 Zn0_5 2.874203 1_555
Ta0_6 Zn0_4 2.874206 1_555
Ta0_6 Zn1_7 2.875359 1_555
Ta0_6 Zn1_6 2.875362 1_555
Ta0_6 Ta0_7 2.909374 1_555
Ta0_6 Ta0_7 2.909374 1_554
Ta0_7 Zn0_4 2.874203 1_556
Ta0_7 Zn0_5 2.874206 1_555
Ta0_7 Zn1_6 2.875359 1_556
Ta0_7 Zn1_7 2.875362 1_555
Ta1_0 Zn1_1 2.862499 1_555
Ta1_0 Zn0_7 2.862499 1_445
Ta1_0 Zn1_0 2.862502 1_555
Ta1_0 Zn0_6 2.862502 1_445
Ta1_0 Ta1_1 2.909374 1_554
Ta1_0 Ta1_1 2.909374 1_555
Ta1_1 Zn1_0 2.862499 1_556
Ta1_1 Zn0_6 2.862499 1_446
Ta1_1 Zn1_1 2.862502 1_555
Ta1_1 Zn0_7 2.862502 1_445
Ta1_2 Zn1_3 2.862499 1_555
Ta1_2 Zn0_5 2.862499 1_455
Ta1_2 Zn1_2 2.862502 1_555
Ta1_2 Zn0_4 2.862502 1_455
Ta1_2 Ta1_3 2.909374 1_555
Ta1_2 Ta1_3 2.909374 1_554
Ta1_3 Zn1_2 2.862499 1_556
Ta1_3 Zn0_4 2.862499 1_456
Ta1_3 Zn1_3 2.862502 1_555
Ta1_3 Zn0_5 2.862502 1_455
Ta1_4 Zn1_5 2.862499 1_555
Ta1_4 Zn0_3 2.862499 1_545
Ta1_4 Zn1_4 2.862502 1_555
Ta1_4 Zn0_2 2.862502 1_545
Ta1_4 Ta1_5 2.909374 1_555
Ta1_4 Ta1_5 2.909374 1_554
Ta1_5 Zn1_4 2.862499 1_556
Ta1_5 Zn0_2 2.862499 1_546
Ta1_5 Zn1_5 2.862502 1_555
Ta1_5 Zn0_3 2.862502 1_545
Ta1_6 Zn1_7 2.862499 1_555
Ta1_6 Zn0_1 2.862499 1_555
Ta1_6 Zn1_6 2.862502 1_555
Ta1_6 Zn0_0 2.862502 1_555
Ta1_6 Ta1_7 2.909374 1_555
Ta1_6 Ta1_7 2.909374 1_554
Ta1_7 Zn1_6 2.862499 1_556
Ta1_7 Zn0_0 2.862499 1_556
Ta1_7 Zn1_7 2.862502 1_555
Ta1_7 Zn0_1 2.862502 1_555
Ta2_0 Zn1_1 2.874206 1_555
Ta2_0 Zn1_0 2.874209 1_555
Ta2_0 Zn0_1 2.875353 1_555
Ta2_0 Zn0_0 2.875356 1_555
Ta2_0 Ta2_1 2.909374 1_555
Ta2_0 Ta2_1 2.909374 1_554
Ta2_1 Zn1_0 2.874206 1_556
Ta2_1 Zn1_1 2.874209 1_555
Ta2_1 Zn0_0 2.875353 1_556
Ta2_1 Zn0_1 2.875356 1_555
Ta2_2 Zn1_3 2.874206 1_555
Ta2_2 Zn1_2 2.874209 1_555
Ta2_2 Zn0_3 2.875353 1_555
Ta2_2 Zn0_2 2.875356 1_555
Ta2_2 Ta2_3 2.909374 1_555
Ta2_2 Ta2_3 2.909374 1_554
Ta2_3 Zn1_2 2.874206 1_556
Ta2_3 Zn1_3 2.874209 1_555
Ta2_3 Zn0_2 2.875353 1_556
Ta2_3 Zn0_3 2.875356 1_555
Ta2_4 Zn1_5 2.874206 1_555
Ta2_4 Zn1_4 2.874209 1_555
Ta2_4 Zn0_5 2.875353 1_555
Ta2_4 Zn0_4 2.875356 1_555
Ta2_4 Ta2_5 2.909374 1_554
Ta2_4 Ta2_5 2.909374 1_555
Ta2_5 Zn1_4 2.874206 1_556
Ta2_5 Zn1_5 2.874209 1_555
Ta2_5 Zn0_4 2.875353 1_556
Ta2_5 Zn0_5 2.875356 1_555
Ta2_6 Zn1_7 2.874206 1_555
Ta2_6 Zn1_6 2.874209 1_555
Ta2_6 Zn0_7 2.875353 1_555
Ta2_6 Zn0_6 2.875356 1_555
Ta2_6 Ta2_7 2.909374 1_555
Ta2_6 Ta2_7 2.909374 1_554
Ta2_7 Zn1_6 2.874206 1_556
Ta2_7 Zn1_7 2.874209 1_555
Ta2_7 Zn0_6 2.875353 1_556
Ta2_7 Zn0_7 2.875356 1_555
Ga0_0 Ir2_5 2.587217 1_554
Ga0_0 Ir2_4 2.587220 1_555
Ga0_0 Ir0_0 2.603743 1_555
Ga0_0 Ir1_4 2.603750 1_555
Ga0_0 Ga0_1 2.909374 1_554
Ga0_0 Ga0_1 2.909374 1_555
Ga0_0 Ta0_7 2.917658 1_554
Ga0_0 Ta2_1 2.917660 1_554
Ga0_0 Ta0_6 2.917661 1_555
Ga0_0 Ta2_0 2.917663 1_555
Ga0_0 Ta1_5 2.946865 1_554
Ga0_0 Ta1_4 2.946868 1_555
Ga0_1 Ir2_4 2.587217 1_555
Ga0_1 Ir2_5 2.587220 1_555
Ga0_1 Ir0_1 2.603743 1_555
Ga0_1 Ir1_5 2.603750 1_555
Ga0_1 Ta0_6 2.917658 1_555
Ga0_1 Ta2_0 2.917660 1_555
Ga0_1 Ta0_7 2.917661 1_555
Ga0_1 Ta2_1 2.917663 1_555
Ga0_1 Ta1_4 2.946865 1_555
Ga0_1 Ta1_5 2.946868 1_555
Ga0_2 Ir2_7 2.587217 1_554
Ga0_2 Ir2_6 2.587220 1_555
Ga0_2 Ir0_2 2.603743 1_555
Ga0_2 Ir1_6 2.603750 1_555
Ga0_2 Ga0_3 2.909374 1_555
Ga0_2 Ga0_3 2.909374 1_554
Ga0_2 Ta0_5 2.917658 1_564
Ga0_2 Ta2_3 2.917660 1_554
Ga0_2 Ta0_4 2.917661 1_565
Ga0_2 Ta2_2 2.917663 1_555
Ga0_2 Ta1_7 2.946865 1_554
Ga0_2 Ta1_6 2.946868 1_555
Ga0_3 Ir2_6 2.587217 1_555
Ga0_3 Ir2_7 2.587220 1_555
Ga0_3 Ir0_3 2.603743 1_555
Ga0_3 Ir1_7 2.603750 1_555
Ga0_3 Ta0_4 2.917658 1_565
Ga0_3 Ta2_2 2.917660 1_555
Ga0_3 Ta0_5 2.917661 1_565
Ga0_3 Ta2_3 2.917663 1_555
Ga0_3 Ta1_6 2.946865 1_555
Ga0_3 Ta1_7 2.946868 1_555
Ga0_4 Ir2_1 2.587217 1_654
Ga0_4 Ir2_0 2.587220 1_655
Ga0_4 Ir0_4 2.603743 1_555
Ga0_4 Ir1_0 2.603750 1_655
Ga0_4 Ga0_5 2.909374 1_555
Ga0_4 Ga0_5 2.909374 1_554
Ga0_4 Ta0_3 2.917658 1_654
Ga0_4 Ta2_5 2.917660 1_554
Ga0_4 Ta0_2 2.917661 1_655
Ga0_4 Ta2_4 2.917663 1_555
Ga0_4 Ta1_1 2.946865 1_654
Ga0_4 Ta1_0 2.946868 1_655
Ga0_5 Ir2_0 2.587217 1_655
Ga0_5 Ir2_1 2.587220 1_655
Ga0_5 Ir0_5 2.603743 1_555
Ga0_5 Ir1_1 2.603750 1_655
Ga0_5 Ta0_2 2.917658 1_655
Ga0_5 Ta2_4 2.917660 1_555
Ga0_5 Ta0_3 2.917661 1_655
Ga0_5 Ta2_5 2.917663 1_555
Ga0_5 Ta1_0 2.946865 1_655
Ga0_5 Ta1_1 2.946868 1_655
Ga0_6 Ir2_3 2.587217 1_654
Ga0_6 Ir2_2 2.587220 1_655
Ga0_6 Ir0_6 2.603743 1_555
Ga0_6 Ir1_2 2.603750 1_655
Ga0_6 Ga0_7 2.909374 1_555
Ga0_6 Ga0_7 2.909374 1_554
Ga0_6 Ta0_1 2.917658 1_664
Ga0_6 Ta2_7 2.917660 1_554
Ga0_6 Ta0_0 2.917661 1_665
Ga0_6 Ta2_6 2.917663 1_555
Ga0_6 Ta1_3 2.946865 1_654
Ga0_6 Ta1_2 2.946868 1_655
Ga0_7 Ir2_2 2.587217 1_655
Ga0_7 Ir2_3 2.587220 1_655
Ga0_7 Ir0_7 2.603743 1_555
Ga0_7 Ir1_3 2.603750 1_655
Ga0_7 Ta0_0 2.917658 1_665
Ga0_7 Ta2_6 2.917660 1_555
Ga0_7 Ta0_1 2.917661 1_665
Ga0_7 Ta2_7 2.917663 1_555
Ga0_7 Ta1_2 2.946865 1_655
Ga0_7 Ta1_3 2.946868 1_655
Ir0_0 Zn1_0 2.635081 1_555
Ir0_0 Zn0_2 2.637171 1_545
Ir0_0 Ta0_1 2.754198 1_554
Ir0_0 Ta0_0 2.754201 1_555
Ir0_0 Ta2_1 2.768842 1_554
Ir0_0 Ta2_0 2.768845 1_555
Ir0_0 Ta1_5 2.770002 1_554
Ir0_0 Ta1_4 2.770005 1_555
Ir0_1 Zn1_1 2.635081 1_555
Ir0_1 Zn0_3 2.637171 1_545
Ir0_1 Ta0_0 2.754198 1_555
Ir0_1 Ta0_1 2.754201 1_555
Ir0_1 Ta2_0 2.768842 1_555
Ir0_1 Ta2_1 2.768845 1_555
Ir0_1 Ta1_4 2.770002 1_555
Ir0_1 Ta1_5 2.770005 1_555
Ir0_2 Zn1_2 2.635081 1_555
Ir0_2 Zn0_0 2.637171 1_555
Ir0_2 Ta0_3 2.754198 1_554
Ir0_2 Ta0_2 2.754201 1_555
Ir0_2 Ta2_3 2.768842 1_554
Ir0_2 Ta2_2 2.768845 1_555
Ir0_2 Ta1_7 2.770002 1_554
Ir0_2 Ta1_6 2.770005 1_555
Ir0_3 Zn1_3 2.635081 1_555
Ir0_3 Zn0_1 2.637171 1_555
Ir0_3 Ta0_2 2.754198 1_555
Ir0_3 Ta0_3 2.754201 1_555
Ir0_3 Ta2_2 2.768842 1_555
Ir0_3 Ta2_3 2.768845 1_555
Ir0_3 Ta1_6 2.770002 1_555
Ir0_3 Ta1_7 2.770005 1_555
Ir0_4 Zn1_4 2.635081 1_555
Ir0_4 Zn0_6 2.637171 1_545
Ir0_4 Ta0_5 2.754198 1_554
Ir0_4 Ta0_4 2.754201 1_555
Ir0_4 Ta2_5 2.768842 1_554
Ir0_4 Ta2_4 2.768845 1_555
Ir0_4 Ta1_1 2.770002 1_654
Ir0_4 Ta1_0 2.770005 1_655
Ir0_5 Zn1_5 2.635081 1_555
Ir0_5 Zn0_7 2.637171 1_545
Ir0_5 Ta0_4 2.754198 1_555
Ir0_5 Ta0_5 2.754201 1_555
Ir0_5 Ta2_4 2.768842 1_555
Ir0_5 Ta2_5 2.768845 1_555
Ir0_5 Ta1_0 2.770002 1_655
Ir0_5 Ta1_1 2.770005 1_655
Ir0_6 Zn1_6 2.635081 1_555
Ir0_6 Zn0_4 2.637171 1_555
Ir0_6 Ta0_7 2.754198 1_554
Ir0_6 Ta0_6 2.754201 1_555
Ir0_6 Ta2_7 2.768842 1_554
Ir0_6 Ta2_6 2.768845 1_555
Ir0_6 Ta1_3 2.770002 1_654
Ir0_6 Ta1_2 2.770005 1_655
Ir0_7 Zn1_7 2.635081 1_555
Ir0_7 Zn0_5 2.637171 1_555
Ir0_7 Ta0_6 2.754198 1_555
Ir0_7 Ta0_7 2.754201 1_555
Ir0_7 Ta2_6 2.768842 1_555
Ir0_7 Ta2_7 2.768845 1_555
Ir0_7 Ta1_2 2.770002 1_655
Ir0_7 Ta1_3 2.770005 1_655
Ir1_0 Zn0_0 2.635077 1_555
Ir1_0 Zn1_0 2.637168 1_555
Ir1_0 Ta2_1 2.754188 1_554
Ir1_0 Ta2_0 2.754191 1_555
Ir1_0 Ta0_3 2.768838 1_554
Ir1_0 Ta0_2 2.768841 1_555
Ir1_0 Ta1_1 2.770006 1_554
Ir1_0 Ta1_0 2.770009 1_555
Ir1_1 Zn0_1 2.635077 1_555
Ir1_1 Zn1_1 2.637168 1_555
Ir1_1 Ta2_0 2.754188 1_555
Ir1_1 Ta2_1 2.754191 1_555
Ir1_1 Ta0_2 2.768838 1_555
Ir1_1 Ta0_3 2.768841 1_555
Ir1_1 Ta1_0 2.770006 1_555
Ir1_1 Ta1_1 2.770009 1_555
Ir1_2 Zn0_2 2.635077 1_555
Ir1_2 Zn1_2 2.637168 1_555
Ir1_2 Ta2_3 2.754188 1_554
Ir1_2 Ta2_2 2.754191 1_555
Ir1_2 Ta0_1 2.768838 1_564
Ir1_2 Ta0_0 2.768841 1_565
Ir1_2 Ta1_3 2.770006 1_554
Ir1_2 Ta1_2 2.770009 1_555
Ir1_3 Zn0_3 2.635077 1_555
Ir1_3 Zn1_3 2.637168 1_555
Ir1_3 Ta2_2 2.754188 1_555
Ir1_3 Ta2_3 2.754191 1_555
Ir1_3 Ta0_0 2.768838 1_565
Ir1_3 Ta0_1 2.768841 1_565
Ir1_3 Ta1_2 2.770006 1_555
Ir1_3 Ta1_3 2.770009 1_555
Ir1_4 Zn0_4 2.635077 1_555
Ir1_4 Zn1_4 2.637168 1_555
Ir1_4 Ta2_5 2.754188 1_554
Ir1_4 Ta2_4 2.754191 1_555
Ir1_4 Ta0_7 2.768838 1_554
Ir1_4 Ta0_6 2.768841 1_555
Ir1_4 Ta1_5 2.770006 1_554
Ir1_4 Ta1_4 2.770009 1_555
Ir1_5 Zn0_5 2.635077 1_555
Ir1_5 Zn1_5 2.637168 1_555
Ir1_5 Ta2_4 2.754188 1_555
Ir1_5 Ta2_5 2.754191 1_555
Ir1_5 Ta0_6 2.768838 1_555
Ir1_5 Ta0_7 2.768841 1_555
Ir1_5 Ta1_4 2.770006 1_555
Ir1_5 Ta1_5 2.770009 1_555
Ir1_6 Zn0_6 2.635077 1_555
Ir1_6 Zn1_6 2.637168 1_555
Ir1_6 Ta2_7 2.754188 1_554
Ir1_6 Ta2_6 2.754191 1_555
Ir1_6 Ta0_5 2.768838 1_564
Ir1_6 Ta0_4 2.768841 1_565
Ir1_6 Ta1_7 2.770006 1_554
Ir1_6 Ta1_6 2.770009 1_555
Ir1_7 Zn0_7 2.635077 1_555
Ir1_7 Zn1_7 2.637168 1_555
Ir1_7 Ta2_6 2.754188 1_555
Ir1_7 Ta2_7 2.754191 1_555
Ir1_7 Ta0_4 2.768838 1_565
Ir1_7 Ta0_5 2.768841 1_565
Ir1_7 Ta1_6 2.770006 1_555
Ir1_7 Ta1_7 2.770009 1_555
Ir2_0 Zn0_5 2.628924 1_455
Ir2_0 Zn1_3 2.628924 1_555
Ir2_0 Zn0_4 2.628927 1_455
Ir2_0 Zn1_2 2.628927 1_555
Ir2_0 Ta1_2 2.693024 1_555
Ir2_0 Ta2_4 2.732719 1_455
Ir2_0 Ta0_2 2.732723 1_555
Ir2_1 Zn0_4 2.628924 1_456
Ir2_1 Zn1_2 2.628924 1_556
Ir2_1 Zn0_5 2.628927 1_455
Ir2_1 Zn1_3 2.628927 1_555
Ir2_1 Ta1_3 2.693024 1_555
Ir2_1 Ta2_5 2.732719 1_455
Ir2_1 Ta0_3 2.732723 1_555
Ir2_2 Zn0_7 2.628924 1_455
Ir2_2 Zn1_1 2.628924 1_565
Ir2_2 Zn0_6 2.628927 1_455
Ir2_2 Zn1_0 2.628927 1_565
Ir2_2 Ta1_0 2.693024 1_565
Ir2_2 Ta2_6 2.732719 1_455
Ir2_2 Ta0_0 2.732723 1_565
Ir2_3 Zn0_6 2.628924 1_456
Ir2_3 Zn1_0 2.628924 1_566
Ir2_3 Zn0_7 2.628927 1_455
Ir2_3 Zn1_1 2.628927 1_565
Ir2_3 Ta1_1 2.693024 1_565
Ir2_3 Ta2_7 2.732719 1_455
Ir2_3 Ta0_1 2.732723 1_565
Ir2_4 Zn0_1 2.628924 1_555
Ir2_4 Zn1_7 2.628924 1_555
Ir2_4 Zn0_0 2.628927 1_555
Ir2_4 Zn1_6 2.628927 1_555
Ir2_4 Ta1_6 2.693024 1_555
Ir2_4 Ta2_0 2.732719 1_555
Ir2_4 Ta0_6 2.732723 1_555
Ir2_5 Zn0_0 2.628924 1_556
Ir2_5 Zn1_6 2.628924 1_556
Ir2_5 Zn0_1 2.628927 1_555
Ir2_5 Zn1_7 2.628927 1_555
Ir2_5 Ta1_7 2.693024 1_555
Ir2_5 Ta2_1 2.732719 1_555
Ir2_5 Ta0_7 2.732723 1_555
Ir2_6 Zn0_3 2.628924 1_555
Ir2_6 Zn1_5 2.628924 1_565
Ir2_6 Zn0_2 2.628927 1_555
Ir2_6 Zn1_4 2.628927 1_565
Ir2_6 Ta1_4 2.693024 1_565
Ir2_6 Ta2_2 2.732719 1_555
Ir2_6 Ta0_4 2.732723 1_565
Ir2_7 Zn0_2 2.628924 1_556
Ir2_7 Zn1_4 2.628924 1_566
Ir2_7 Zn0_3 2.628927 1_555
Ir2_7 Zn1_5 2.628927 1_565
Ir2_7 Ta1_5 2.693024 1_565
Ir2_7 Ta2_3 2.732719 1_555
Ir2_7 Ta0_5 2.732723 1_565
