# generated using pymatgen
data_TiTcBC
_symmetry_space_group_name_H-M   'P 1'
_cell_length_a   8.74262679
_cell_length_b   8.74262754
_cell_length_c   3.04100711
_cell_angle_alpha   90.00000000
_cell_angle_beta   90.00000000
_cell_angle_gamma   159.82819502
_symmetry_Int_Tables_number   1
_chemical_formula_structural   TiTcBC
_chemical_formula_sum   'Ti2 Tc2 B2 C2'
_cell_volume   80.15200017
_cell_formula_units_Z   2
loop_
 _symmetry_equiv_pos_site_id
 _symmetry_equiv_pos_as_xyz
  1  'x, y, z'
loop_
 _atom_site_type_symbol
 _atom_site_label
 _atom_site_symmetry_multiplicity
 _atom_site_fract_x
 _atom_site_fract_y
 _atom_site_fract_z
 _atom_site_occupancy
  Ti  Ti0  1  0.31031241  0.68968859  0.25000000  1
  Ti  Ti1  1  0.68968859  0.31031141  0.75000000  1
  Tc  Tc0  1  0.06993838  0.93006162  0.25000000  1
  Tc  Tc1  1  0.93006162  0.06993838  0.75000000  1
  B  B0  1  0.53057822  0.46942178  0.75000000  1
  B  B1  1  0.46942178  0.53057822  0.25000000  1
  C  C0  1  0.81137964  0.18862036  0.75000000  1
  C  C1  1  0.18862036  0.81137964  0.25000000  1
loop_
_geom_bond_atom_site_label_1
_geom_bond_atom_site_label_2
_geom_bond_distance
_geom_bond_site_symmetry_2
B0 B1 1.849417 1_556
B0 B1 1.849417 1_555
B0 Tc0 2.261673 1_656
B0 Tc0 2.261673 1_655
B0 Tc0 2.261673 1_546
B0 Tc0 2.261673 1_545
B0 Tc1 2.310494 1_455
B0 Tc1 2.310495 1_565
B0 Ti1 2.739092 1_555
B1 Tc1 2.261673 1_454
B1 Tc1 2.261673 1_455
B1 Tc1 2.261673 1_565
B1 Tc1 2.261673 1_564
B1 Tc0 2.310494 1_655
B1 Tc0 2.310495 1_545
B1 Ti0 2.739083 1_555
C0 Tc1 2.043115 1_555
C0 Ti1 2.094917 1_555
C0 Ti0 2.157863 1_545
C0 Ti0 2.157863 1_546
C0 Ti0 2.157865 1_655
C0 Ti0 2.157865 1_656
C1 Tc0 2.043115 1_555
C1 Ti0 2.094925 1_555
C1 Ti1 2.157864 1_565
C1 Ti1 2.157864 1_564
C1 Ti1 2.157864 1_455
C1 Ti1 2.157864 1_454
