# generated using pymatgen
data_Hf6BiIrPb
_symmetry_space_group_name_H-M   'P 1'
_cell_length_a   15.86924293
_cell_length_b   15.86924106
_cell_length_c   7.16151733
_cell_angle_alpha   90.00000000
_cell_angle_beta   90.00000000
_cell_angle_gamma   119.99999174
_symmetry_Int_Tables_number   1
_chemical_formula_structural   Hf6BiIrPb
_chemical_formula_sum   'Hf48 Bi8 Ir8 Pb8'
_cell_volume   1561.88150123
_cell_formula_units_Z   8
loop_
 _symmetry_equiv_pos_site_id
 _symmetry_equiv_pos_as_xyz
  1  'x, y, z'
loop_
 _atom_site_type_symbol
 _atom_site_label
 _atom_site_symmetry_multiplicity
 _atom_site_fract_x
 _atom_site_fract_y
 _atom_site_fract_z
 _atom_site_occupancy
  Hf  Hf0_0  1  0.30481529  0.00061332  0.25000000  1
  Hf  Hf0_1  1  0.30481529  0.00061332  0.75000000  1
  Hf  Hf0_2  1  0.30481529  0.50061332  0.25000000  1
  Hf  Hf0_3  1  0.30481529  0.50061332  0.75000000  1
  Hf  Hf0_4  1  0.80481529  0.00061332  0.25000000  1
  Hf  Hf0_5  1  0.80481529  0.00061332  0.75000000  1
  Hf  Hf0_6  1  0.80481529  0.50061332  0.25000000  1
  Hf  Hf0_7  1  0.80481529  0.50061332  0.75000000  1
  Hf  Hf1_0  1  0.19579803  0.19518471  0.25000000  1
  Hf  Hf1_1  1  0.19579803  0.19518471  0.75000000  1
  Hf  Hf1_2  1  0.19579803  0.69518471  0.25000000  1
  Hf  Hf1_3  1  0.19579803  0.69518471  0.75000000  1
  Hf  Hf1_4  1  0.69579803  0.19518471  0.25000000  1
  Hf  Hf1_5  1  0.69579803  0.19518471  0.75000000  1
  Hf  Hf1_6  1  0.69579803  0.69518471  0.25000000  1
  Hf  Hf1_7  1  0.69579803  0.69518471  0.75000000  1
  Hf  Hf2_0  1  0.49938668  0.30420197  0.25000000  1
  Hf  Hf2_1  1  0.49938668  0.30420197  0.75000000  1
  Hf  Hf2_2  1  0.49938668  0.80420197  0.25000000  1
  Hf  Hf2_3  1  0.49938668  0.80420197  0.75000000  1
  Hf  Hf2_4  1  0.99938668  0.30420197  0.25000000  1
  Hf  Hf2_5  1  0.99938668  0.30420197  0.75000000  1
  Hf  Hf2_6  1  0.99938668  0.80420197  0.25000000  1
  Hf  Hf2_7  1  0.99938668  0.80420197  0.75000000  1
  Hf  Hf3_0  1  0.12309068  0.49920724  0.00000000  1
  Hf  Hf3_1  1  0.12309068  0.49920724  0.50000000  1
  Hf  Hf3_2  1  0.12309068  0.99920724  0.00000000  1
  Hf  Hf3_3  1  0.12309068  0.99920724  0.50000000  1
  Hf  Hf3_4  1  0.62309068  0.49920724  0.00000000  1
  Hf  Hf3_5  1  0.62309068  0.49920724  0.50000000  1
  Hf  Hf3_6  1  0.62309068  0.99920724  0.00000000  1
  Hf  Hf3_7  1  0.62309068  0.99920724  0.50000000  1
  Hf  Hf4_0  1  0.37611706  0.37690932  0.00000000  1
  Hf  Hf4_1  1  0.37611706  0.37690932  0.50000000  1
  Hf  Hf4_2  1  0.37611706  0.87690932  0.00000000  1
  Hf  Hf4_3  1  0.37611706  0.87690932  0.50000000  1
  Hf  Hf4_4  1  0.87611706  0.37690932  0.00000000  1
  Hf  Hf4_5  1  0.87611706  0.37690932  0.50000000  1
  Hf  Hf4_6  1  0.87611706  0.87690932  0.00000000  1
  Hf  Hf4_7  1  0.87611706  0.87690932  0.50000000  1
  Hf  Hf5_0  1  0.00079276  0.12388294  0.00000000  1
  Hf  Hf5_1  1  0.00079276  0.12388294  0.50000000  1
  Hf  Hf5_2  1  0.00079276  0.62388294  0.00000000  1
  Hf  Hf5_3  1  0.00079276  0.62388294  0.50000000  1
  Hf  Hf5_4  1  0.50079276  0.12388294  0.00000000  1
  Hf  Hf5_5  1  0.50079276  0.12388294  0.50000000  1
  Hf  Hf5_6  1  0.50079276  0.62388294  0.00000000  1
  Hf  Hf5_7  1  0.50079276  0.62388294  0.50000000  1
  Bi  Bi0_0  1  0.33333350  0.16666650  0.00000000  1
  Bi  Bi0_1  1  0.33333350  0.16666650  0.50000000  1
  Bi  Bi0_2  1  0.33333350  0.66666650  0.00000000  1
  Bi  Bi0_3  1  0.33333350  0.66666650  0.50000000  1
  Bi  Bi0_4  1  0.83333350  0.16666650  0.00000000  1
  Bi  Bi0_5  1  0.83333350  0.16666650  0.50000000  1
  Bi  Bi0_6  1  0.83333350  0.66666650  0.00000000  1
  Bi  Bi0_7  1  0.83333350  0.66666650  0.50000000  1
  Ir  Ir0_0  1  0.00000000  0.00000000  0.25000000  1
  Ir  Ir0_1  1  0.00000000  0.00000000  0.75000000  1
  Ir  Ir0_2  1  0.00000000  0.50000000  0.25000000  1
  Ir  Ir0_3  1  0.00000000  0.50000000  0.75000000  1
  Ir  Ir0_4  1  0.50000000  0.00000000  0.25000000  1
  Ir  Ir0_5  1  0.50000000  0.00000000  0.75000000  1
  Ir  Ir0_6  1  0.50000000  0.50000000  0.25000000  1
  Ir  Ir0_7  1  0.50000000  0.50000000  0.75000000  1
  Pb  Pb0_0  1  0.16666650  0.33333350  0.00000000  1
  Pb  Pb0_1  1  0.16666650  0.33333350  0.50000000  1
  Pb  Pb0_2  1  0.16666650  0.83333350  0.00000000  1
  Pb  Pb0_3  1  0.16666650  0.83333350  0.50000000  1
  Pb  Pb0_4  1  0.66666650  0.33333350  0.00000000  1
  Pb  Pb0_5  1  0.66666650  0.33333350  0.50000000  1
  Pb  Pb0_6  1  0.66666650  0.83333350  0.00000000  1
  Pb  Pb0_7  1  0.66666650  0.83333350  0.50000000  1
loop_
_geom_bond_atom_site_label_1
_geom_bond_atom_site_label_2
_geom_bond_distance
_geom_bond_site_symmetry_2
Hf0_0 Pb0_3 3.039556 1_545
Hf0_0 Pb0_2 3.039556 1_545
Hf0_0 Ir0_4 3.102311 1_555
Hf0_0 Hf4_3 3.249727 1_545
Hf0_0 Hf4_2 3.249727 1_545
Hf0_0 Hf5_4 3.258919 1_555
Hf0_0 Hf5_5 3.258919 1_555
Hf0_0 Hf3_3 3.384981 1_545
Hf0_0 Hf3_2 3.384981 1_545
Hf0_0 Hf0_1 3.580759 1_555
Hf0_0 Hf0_1 3.580759 1_554
Hf0_1 Pb0_3 3.039556 1_545
Hf0_1 Pb0_2 3.039556 1_546
Hf0_1 Ir0_5 3.102311 1_555
Hf0_1 Hf4_3 3.249727 1_545
Hf0_1 Hf4_2 3.249727 1_546
Hf0_1 Hf5_5 3.258919 1_555
Hf0_1 Hf5_4 3.258919 1_556
Hf0_1 Hf3_3 3.384981 1_545
Hf0_1 Hf3_2 3.384981 1_546
Hf0_2 Pb0_0 3.039556 1_555
Hf0_2 Pb0_1 3.039556 1_555
Hf0_2 Ir0_6 3.102311 1_555
Hf0_2 Hf4_0 3.249727 1_555
Hf0_2 Hf4_1 3.249727 1_555
Hf0_2 Hf5_7 3.258919 1_555
Hf0_2 Hf5_6 3.258919 1_555
Hf0_2 Hf3_1 3.384981 1_555
Hf0_2 Hf3_0 3.384981 1_555
Hf0_2 Hf0_3 3.580759 1_555
Hf0_2 Hf0_3 3.580759 1_554
Hf0_3 Pb0_1 3.039556 1_555
Hf0_3 Pb0_0 3.039556 1_556
Hf0_3 Ir0_7 3.102311 1_555
Hf0_3 Hf4_1 3.249727 1_555
Hf0_3 Hf4_0 3.249727 1_556
Hf0_3 Hf5_7 3.258919 1_555
Hf0_3 Hf5_6 3.258919 1_556
Hf0_3 Hf3_1 3.384981 1_555
Hf0_3 Hf3_0 3.384981 1_556
Hf0_4 Pb0_6 3.039556 1_545
Hf0_4 Pb0_7 3.039556 1_545
Hf0_4 Ir0_0 3.102311 1_655
Hf0_4 Hf4_7 3.249727 1_545
Hf0_4 Hf4_6 3.249727 1_545
Hf0_4 Hf5_0 3.258919 1_655
Hf0_4 Hf5_1 3.258919 1_655
Hf0_4 Hf3_6 3.384981 1_545
Hf0_4 Hf3_7 3.384981 1_545
Hf0_4 Hf0_5 3.580759 1_555
Hf0_4 Hf0_5 3.580759 1_554
Hf0_5 Pb0_7 3.039556 1_545
Hf0_5 Pb0_6 3.039556 1_546
Hf0_5 Ir0_1 3.102311 1_655
Hf0_5 Hf4_7 3.249727 1_545
Hf0_5 Hf4_6 3.249727 1_546
Hf0_5 Hf5_1 3.258919 1_655
Hf0_5 Hf5_0 3.258919 1_656
Hf0_5 Hf3_7 3.384981 1_545
Hf0_5 Hf3_6 3.384981 1_546
Hf0_6 Pb0_4 3.039556 1_555
Hf0_6 Pb0_5 3.039556 1_555
Hf0_6 Ir0_2 3.102311 1_655
Hf0_6 Hf4_4 3.249727 1_555
Hf0_6 Hf4_5 3.249727 1_555
Hf0_6 Hf5_2 3.258919 1_655
Hf0_6 Hf5_3 3.258919 1_655
Hf0_6 Hf3_4 3.384981 1_555
Hf0_6 Hf3_5 3.384981 1_555
Hf0_6 Hf0_7 3.580759 1_555
Hf0_6 Hf0_7 3.580759 1_554
Hf0_7 Pb0_5 3.039556 1_555
Hf0_7 Pb0_4 3.039556 1_556
Hf0_7 Ir0_3 3.102311 1_655
Hf0_7 Hf4_5 3.249727 1_555
Hf0_7 Hf4_4 3.249727 1_556
Hf0_7 Hf5_3 3.258919 1_655
Hf0_7 Hf5_2 3.258919 1_656
Hf0_7 Hf3_5 3.384981 1_555
Hf0_7 Hf3_4 3.384981 1_556
Hf1_0 Pb0_0 3.039560 1_555
Hf1_0 Pb0_1 3.039560 1_555
Hf1_0 Ir0_0 3.102312 1_555
Hf1_0 Hf5_0 3.249721 1_555
Hf1_0 Hf5_1 3.249721 1_555
Hf1_0 Hf3_2 3.258919 1_545
Hf1_0 Hf3_3 3.258919 1_545
Hf1_0 Hf4_1 3.384984 1_555
Hf1_0 Hf4_0 3.384984 1_555
Hf1_0 Hf1_1 3.580759 1_555
Hf1_0 Hf1_1 3.580759 1_554
Hf1_1 Pb0_1 3.039560 1_555
Hf1_1 Pb0_0 3.039560 1_556
Hf1_1 Ir0_1 3.102312 1_555
Hf1_1 Hf5_1 3.249721 1_555
Hf1_1 Hf5_0 3.249721 1_556
Hf1_1 Hf3_3 3.258919 1_545
Hf1_1 Hf3_2 3.258919 1_546
Hf1_1 Hf4_1 3.384984 1_555
Hf1_1 Hf4_0 3.384984 1_556
Hf1_2 Pb0_3 3.039560 1_555
Hf1_2 Pb0_2 3.039560 1_555
Hf1_2 Ir0_2 3.102312 1_555
Hf1_2 Hf5_2 3.249721 1_555
Hf1_2 Hf5_3 3.249721 1_555
Hf1_2 Hf3_1 3.258919 1_555
Hf1_2 Hf3_0 3.258919 1_555
Hf1_2 Hf4_2 3.384984 1_555
Hf1_2 Hf4_3 3.384984 1_555
Hf1_2 Hf1_3 3.580759 1_555
Hf1_2 Hf1_3 3.580759 1_554
Hf1_3 Pb0_3 3.039560 1_555
Hf1_3 Pb0_2 3.039560 1_556
Hf1_3 Ir0_3 3.102312 1_555
Hf1_3 Hf5_3 3.249721 1_555
Hf1_3 Hf5_2 3.249721 1_556
Hf1_3 Hf3_1 3.258919 1_555
Hf1_3 Hf3_0 3.258919 1_556
Hf1_3 Hf4_3 3.384984 1_555
Hf1_3 Hf4_2 3.384984 1_556
Hf1_4 Pb0_5 3.039560 1_555
Hf1_4 Pb0_4 3.039560 1_555
Hf1_4 Ir0_4 3.102312 1_555
Hf1_4 Hf5_4 3.249721 1_555
Hf1_4 Hf5_5 3.249721 1_555
Hf1_4 Hf3_6 3.258919 1_545
Hf1_4 Hf3_7 3.258919 1_545
Hf1_4 Hf4_5 3.384984 1_555
Hf1_4 Hf4_4 3.384984 1_555
Hf1_4 Hf1_5 3.580759 1_555
Hf1_4 Hf1_5 3.580759 1_554
Hf1_5 Pb0_5 3.039560 1_555
Hf1_5 Pb0_4 3.039560 1_556
Hf1_5 Ir0_5 3.102312 1_555
Hf1_5 Hf5_5 3.249721 1_555
Hf1_5 Hf5_4 3.249721 1_556
Hf1_5 Hf3_7 3.258919 1_545
Hf1_5 Hf3_6 3.258919 1_546
Hf1_5 Hf4_5 3.384984 1_555
Hf1_5 Hf4_4 3.384984 1_556
Hf1_6 Pb0_6 3.039560 1_555
Hf1_6 Pb0_7 3.039560 1_555
Hf1_6 Ir0_6 3.102312 1_555
Hf1_6 Hf5_7 3.249721 1_555
Hf1_6 Hf5_6 3.249721 1_555
Hf1_6 Hf3_5 3.258919 1_555
Hf1_6 Hf3_4 3.258919 1_555
Hf1_6 Hf4_7 3.384984 1_555
Hf1_6 Hf4_6 3.384984 1_555
Hf1_6 Hf1_7 3.580759 1_555
Hf1_6 Hf1_7 3.580759 1_554
Hf1_7 Pb0_7 3.039560 1_555
Hf1_7 Pb0_6 3.039560 1_556
Hf1_7 Ir0_7 3.102312 1_555
Hf1_7 Hf5_7 3.249721 1_555
Hf1_7 Hf5_6 3.249721 1_556
Hf1_7 Hf3_5 3.258919 1_555
Hf1_7 Hf3_4 3.258919 1_556
Hf1_7 Hf4_7 3.384984 1_555
Hf1_7 Hf4_6 3.384984 1_556
Hf2_0 Pb0_4 3.039554 1_555
Hf2_0 Pb0_5 3.039554 1_555
Hf2_0 Ir0_6 3.102311 1_555
Hf2_0 Hf3_4 3.249722 1_555
Hf2_0 Hf3_5 3.249722 1_555
Hf2_0 Hf4_1 3.258913 1_555
Hf2_0 Hf4_0 3.258913 1_555
Hf2_0 Hf5_5 3.384987 1_555
Hf2_0 Hf5_4 3.384987 1_555
Hf2_0 Hf2_1 3.580759 1_555
Hf2_0 Hf2_1 3.580759 1_554
Hf2_1 Pb0_5 3.039554 1_555
Hf2_1 Pb0_4 3.039554 1_556
Hf2_1 Ir0_7 3.102311 1_555
Hf2_1 Hf3_5 3.249722 1_555
Hf2_1 Hf3_4 3.249722 1_556
Hf2_1 Hf4_1 3.258913 1_555
Hf2_1 Hf4_0 3.258913 1_556
Hf2_1 Hf5_5 3.384987 1_555
Hf2_1 Hf5_4 3.384987 1_556
Hf2_2 Pb0_7 3.039554 1_555
Hf2_2 Pb0_6 3.039554 1_555
Hf2_2 Ir0_4 3.102311 1_565
Hf2_2 Hf3_6 3.249722 1_555
Hf2_2 Hf3_7 3.249722 1_555
Hf2_2 Hf4_2 3.258913 1_555
Hf2_2 Hf4_3 3.258913 1_555
Hf2_2 Hf5_6 3.384987 1_555
Hf2_2 Hf5_7 3.384987 1_555
Hf2_2 Hf2_3 3.580759 1_555
Hf2_2 Hf2_3 3.580759 1_554
Hf2_3 Pb0_7 3.039554 1_555
Hf2_3 Pb0_6 3.039554 1_556
Hf2_3 Ir0_5 3.102311 1_565
Hf2_3 Hf3_7 3.249722 1_555
Hf2_3 Hf3_6 3.249722 1_556
Hf2_3 Hf4_3 3.258913 1_555
Hf2_3 Hf4_2 3.258913 1_556
Hf2_3 Hf5_7 3.384987 1_555
Hf2_3 Hf5_6 3.384987 1_556
Hf2_4 Pb0_0 3.039554 1_655
Hf2_4 Pb0_1 3.039554 1_655
Hf2_4 Ir0_2 3.102311 1_655
Hf2_4 Hf3_1 3.249722 1_655
Hf2_4 Hf3_0 3.249722 1_655
Hf2_4 Hf4_4 3.258913 1_555
Hf2_4 Hf4_5 3.258913 1_555
Hf2_4 Hf5_1 3.384987 1_655
Hf2_4 Hf5_0 3.384987 1_655
Hf2_4 Hf2_5 3.580759 1_555
Hf2_4 Hf2_5 3.580759 1_554
Hf2_5 Pb0_1 3.039554 1_655
Hf2_5 Pb0_0 3.039554 1_656
Hf2_5 Ir0_3 3.102311 1_655
Hf2_5 Hf3_1 3.249722 1_655
Hf2_5 Hf3_0 3.249722 1_656
Hf2_5 Hf4_5 3.258913 1_555
Hf2_5 Hf4_4 3.258913 1_556
Hf2_5 Hf5_1 3.384987 1_655
Hf2_5 Hf5_0 3.384987 1_656
Hf2_6 Pb0_2 3.039554 1_655
Hf2_6 Pb0_3 3.039554 1_655
Hf2_6 Ir0_0 3.102311 1_665
Hf2_6 Hf3_2 3.249722 1_655
Hf2_6 Hf3_3 3.249722 1_655
Hf2_6 Hf4_7 3.258913 1_555
Hf2_6 Hf4_6 3.258913 1_555
Hf2_6 Hf5_2 3.384987 1_655
Hf2_6 Hf5_3 3.384987 1_655
Hf2_6 Hf2_7 3.580759 1_555
Hf2_6 Hf2_7 3.580759 1_554
Hf2_7 Pb0_3 3.039554 1_655
Hf2_7 Pb0_2 3.039554 1_656
Hf2_7 Ir0_1 3.102311 1_665
Hf2_7 Hf3_3 3.249722 1_655
Hf2_7 Hf3_2 3.249722 1_656
Hf2_7 Hf4_7 3.258913 1_555
Hf2_7 Hf4_6 3.258913 1_556
Hf2_7 Hf5_3 3.384987 1_655
Hf2_7 Hf5_2 3.384987 1_656
Hf3_0 Ir0_2 2.654391 1_555
Hf3_0 Ir0_3 2.654391 1_554
Hf3_0 Pb0_0 3.037666 1_555
Hf3_1 Ir0_3 2.654391 1_555
Hf3_1 Ir0_2 2.654391 1_555
Hf3_1 Pb0_1 3.037666 1_555
Hf3_2 Ir0_0 2.654391 1_565
Hf3_2 Ir0_1 2.654391 1_564
Hf3_2 Pb0_2 3.037666 1_555
Hf3_3 Ir0_0 2.654391 1_565
Hf3_3 Ir0_1 2.654391 1_565
Hf3_3 Pb0_3 3.037666 1_555
Hf3_4 Ir0_6 2.654391 1_555
Hf3_4 Ir0_7 2.654391 1_554
Hf3_4 Pb0_4 3.037666 1_555
Hf3_5 Ir0_7 2.654391 1_555
Hf3_5 Ir0_6 2.654391 1_555
Hf3_5 Pb0_5 3.037666 1_555
Hf3_6 Ir0_4 2.654391 1_565
Hf3_6 Ir0_5 2.654391 1_564
Hf3_6 Pb0_6 3.037666 1_555
Hf3_7 Ir0_5 2.654391 1_565
Hf3_7 Ir0_4 2.654391 1_565
Hf3_7 Pb0_7 3.037666 1_555
Hf4_0 Ir0_6 2.654388 1_555
Hf4_0 Ir0_7 2.654388 1_554
Hf4_0 Pb0_0 3.037682 1_555
Hf4_1 Ir0_7 2.654388 1_555
Hf4_1 Ir0_6 2.654388 1_555
Hf4_1 Pb0_1 3.037682 1_555
Hf4_2 Ir0_4 2.654388 1_565
Hf4_2 Ir0_5 2.654388 1_564
Hf4_2 Pb0_2 3.037682 1_555
Hf4_3 Ir0_5 2.654388 1_565
Hf4_3 Ir0_4 2.654388 1_565
Hf4_3 Pb0_3 3.037682 1_555
Hf4_4 Ir0_2 2.654388 1_655
Hf4_4 Ir0_3 2.654388 1_654
Hf4_4 Pb0_4 3.037682 1_555
Hf4_5 Ir0_2 2.654388 1_655
Hf4_5 Ir0_3 2.654388 1_655
Hf4_5 Pb0_5 3.037682 1_555
Hf4_6 Ir0_0 2.654388 1_665
Hf4_6 Ir0_1 2.654388 1_664
Hf4_6 Pb0_6 3.037682 1_555
Hf4_7 Ir0_1 2.654388 1_665
Hf4_7 Ir0_0 2.654388 1_665
Hf4_7 Pb0_7 3.037682 1_555
Hf5_0 Ir0_0 2.654385 1_555
Hf5_0 Ir0_1 2.654385 1_554
Hf5_0 Pb0_0 3.037677 1_555
Hf5_1 Ir0_0 2.654385 1_555
Hf5_1 Ir0_1 2.654385 1_555
Hf5_1 Pb0_1 3.037677 1_555
Hf5_2 Ir0_2 2.654385 1_555
Hf5_2 Ir0_3 2.654385 1_554
Hf5_2 Pb0_2 3.037677 1_555
Hf5_3 Ir0_3 2.654385 1_555
Hf5_3 Ir0_2 2.654385 1_555
Hf5_3 Pb0_3 3.037677 1_555
Hf5_4 Ir0_4 2.654385 1_555
Hf5_4 Ir0_5 2.654385 1_554
Hf5_4 Pb0_4 3.037677 1_555
Hf5_5 Ir0_5 2.654385 1_555
Hf5_5 Ir0_4 2.654385 1_555
Hf5_5 Pb0_5 3.037677 1_555
Hf5_6 Ir0_6 2.654385 1_555
Hf5_6 Ir0_7 2.654385 1_554
Hf5_6 Pb0_6 3.037677 1_555
Hf5_7 Ir0_6 2.654385 1_555
Hf5_7 Ir0_7 2.654385 1_555
Hf5_7 Pb0_7 3.037677 1_555
Bi0_0 Hf0_0 3.026823 1_555
Bi0_0 Hf0_1 3.026823 1_554
Bi0_0 Hf2_0 3.026826 1_555
Bi0_0 Hf2_1 3.026826 1_554
Bi0_0 Hf1_0 3.026830 1_555
Bi0_0 Hf1_1 3.026830 1_554
Bi0_0 Hf4_0 3.054058 1_555
Bi0_0 Hf5_4 3.054058 1_555
Bi0_0 Hf3_2 3.054058 1_545
Bi0_1 Hf0_0 3.026823 1_555
Bi0_1 Hf0_1 3.026823 1_555
Bi0_1 Hf2_0 3.026826 1_555
Bi0_1 Hf2_1 3.026826 1_555
Bi0_1 Hf1_0 3.026830 1_555
Bi0_1 Hf1_1 3.026830 1_555
Bi0_1 Hf4_1 3.054058 1_555
Bi0_1 Hf5_5 3.054058 1_555
Bi0_1 Hf3_3 3.054058 1_545
Bi0_2 Hf0_2 3.026823 1_555
Bi0_2 Hf0_3 3.026823 1_554
Bi0_2 Hf2_2 3.026826 1_555
Bi0_2 Hf2_3 3.026826 1_554
Bi0_2 Hf1_2 3.026830 1_555
Bi0_2 Hf1_3 3.026830 1_554
Bi0_2 Hf4_2 3.054058 1_555
Bi0_2 Hf5_6 3.054058 1_555
Bi0_2 Hf3_0 3.054058 1_555
Bi0_3 Hf0_3 3.026823 1_555
Bi0_3 Hf0_2 3.026823 1_555
Bi0_3 Hf2_2 3.026826 1_555
Bi0_3 Hf2_3 3.026826 1_555
Bi0_3 Hf1_2 3.026830 1_555
Bi0_3 Hf1_3 3.026830 1_555
Bi0_3 Hf4_3 3.054058 1_555
Bi0_3 Hf5_7 3.054058 1_555
Bi0_3 Hf3_1 3.054058 1_555
Bi0_4 Hf0_4 3.026823 1_555
Bi0_4 Hf0_5 3.026823 1_554
Bi0_4 Hf2_4 3.026826 1_555
Bi0_4 Hf2_5 3.026826 1_554
Bi0_4 Hf1_4 3.026830 1_555
Bi0_4 Hf1_5 3.026830 1_554
Bi0_4 Hf4_4 3.054058 1_555
Bi0_4 Hf5_0 3.054058 1_655
Bi0_4 Hf3_6 3.054058 1_545
Bi0_5 Hf0_4 3.026823 1_555
Bi0_5 Hf0_5 3.026823 1_555
Bi0_5 Hf2_5 3.026826 1_555
Bi0_5 Hf2_4 3.026826 1_555
Bi0_5 Hf1_4 3.026830 1_555
Bi0_5 Hf1_5 3.026830 1_555
Bi0_5 Hf4_5 3.054058 1_555
Bi0_5 Hf5_1 3.054058 1_655
Bi0_5 Hf3_7 3.054058 1_545
Bi0_6 Hf0_6 3.026823 1_555
Bi0_6 Hf0_7 3.026823 1_554
Bi0_6 Hf2_6 3.026826 1_555
Bi0_6 Hf2_7 3.026826 1_554
Bi0_6 Hf1_6 3.026830 1_555
Bi0_6 Hf1_7 3.026830 1_554
Bi0_6 Hf4_6 3.054058 1_555
Bi0_6 Hf5_2 3.054058 1_655
Bi0_6 Hf3_4 3.054058 1_555
Bi0_7 Hf0_7 3.026823 1_555
Bi0_7 Hf0_6 3.026823 1_555
Bi0_7 Hf2_6 3.026826 1_555
Bi0_7 Hf2_7 3.026826 1_555
Bi0_7 Hf1_7 3.026830 1_555
Bi0_7 Hf1_6 3.026830 1_555
Bi0_7 Hf4_7 3.054058 1_555
Bi0_7 Hf5_3 3.054058 1_655
Bi0_7 Hf3_5 3.054058 1_555
