# generated using pymatgen
data_Zr10Cu2(SnBi)3
_symmetry_space_group_name_H-M   'P 1'
_cell_length_a   8.71504834
_cell_length_b   8.71503960
_cell_length_c   5.88374714
_cell_angle_alpha   90.00000000
_cell_angle_beta   90.00000000
_cell_angle_gamma   119.99983056
_symmetry_Int_Tables_number   1
_chemical_formula_structural   Zr10Cu2(SnBi)3
_chemical_formula_sum   'Zr10 Cu2 Sn3 Bi3'
_cell_volume   387.01209536
_cell_formula_units_Z   1
loop_
 _symmetry_equiv_pos_site_id
 _symmetry_equiv_pos_as_xyz
  1  'x, y, z'
loop_
 _atom_site_type_symbol
 _atom_site_label
 _atom_site_symmetry_multiplicity
 _atom_site_fract_x
 _atom_site_fract_y
 _atom_site_fract_z
 _atom_site_occupancy
  Zr  Zr0  1  0.73515974  0.00000249  0.25000000  1
  Zr  Zr1  1  0.99999831  0.73516683  0.25000000  1
  Zr  Zr2  1  0.26484413  0.26483900  0.25000000  1
  Zr  Zr3  1  0.25262628  0.00000089  0.75000000  1
  Zr  Zr4  1  0.99999563  0.25262690  0.75000000  1
  Zr  Zr5  1  0.74737110  0.74736772  0.75000000  1
  Zr  Zr6  1  0.33333197  0.66666283  0.49477650  1
  Zr  Zr7  1  0.66667402  0.33333819  0.49477617  1
  Zr  Zr8  1  0.66667402  0.33333819  0.00522383  1
  Zr  Zr9  1  0.33333197  0.66666283  0.00522350  1
  Cu  Cu0  1  0.99999888  0.00000069  0.48066664  1
  Cu  Cu1  1  0.99999888  0.00000069  0.01933336  1
  Sn  Sn0  1  0.38283988  0.00000905  0.25000000  1
  Sn  Sn1  1  0.99999310  0.38283203  0.25000000  1
  Sn  Sn2  1  0.61716728  0.61715828  0.25000000  1
  Bi  Bi0  1  0.60903412  0.99999745  0.75000000  1
  Bi  Bi1  1  0.99999937  0.60903627  0.75000000  1
  Bi  Bi2  1  0.39096131  0.39095965  0.75000000  1
loop_
_geom_bond_atom_site_label_1
_geom_bond_atom_site_label_2
_geom_bond_distance
_geom_bond_site_symmetry_2
Cu0 Zr1 2.677494 1_545
Cu0 Zr0 2.677545 1_555
Cu0 Zr2 2.677562 1_655
Cu0 Zr3 2.712664 1_655
Cu0 Zr4 2.712665 1_555
Cu0 Zr5 2.712689 1_545
Cu1 Zr1 2.677494 1_545
Cu1 Zr0 2.677545 1_555
Cu1 Zr2 2.677562 1_655
Cu1 Zr3 2.712664 1_654
Cu1 Zr4 2.712665 1_554
Cu1 Zr5 2.712689 1_544
Sn0 Zr2 2.959351 1_555
Sn0 Zr1 2.959486 1_445
Sn0 Zr0 3.070513 1_555
Sn0 Zr7 3.073452 1_555
Sn0 Zr8 3.073452 1_555
Sn0 Zr6 3.073540 1_545
Sn0 Zr9 3.073540 1_545
Sn0 Zr3 3.153149 1_554
Sn0 Zr3 3.153149 1_555
Sn1 Zr0 2.959390 1_555
Sn1 Zr2 2.959510 1_655
Sn1 Zr1 3.070589 1_555
Sn1 Zr7 3.073376 1_555
Sn1 Zr8 3.073376 1_555
Sn1 Zr6 3.073490 1_655
Sn1 Zr9 3.073490 1_655
Sn1 Zr4 3.153139 1_555
Sn1 Zr4 3.153139 1_554
Sn2 Zr1 2.959379 1_555
Sn2 Zr0 2.959515 1_565
Sn2 Zr2 3.070503 1_555
Sn2 Zr7 3.073393 1_555
Sn2 Zr8 3.073393 1_555
Sn2 Zr6 3.073502 1_555
Sn2 Zr9 3.073502 1_555
Sn2 Zr5 3.153141 1_555
Sn2 Zr5 3.153141 1_554
Bi0 Zr4 2.992507 1_565
Bi0 Zr5 2.992532 1_555
Bi0 Zr9 3.080161 1_556
Bi0 Zr6 3.080161 1_555
Bi0 Zr8 3.080182 1_566
Bi0 Zr7 3.080182 1_565
Bi0 Zr3 3.106127 1_565
Bi0 Zr0 3.140508 1_566
Bi0 Zr0 3.140508 1_565
Bi1 Zr5 2.992484 1_555
Bi1 Zr3 2.992522 1_665
Bi1 Zr8 3.080107 1_556
Bi1 Zr7 3.080107 1_555
Bi1 Zr9 3.080159 1_656
Bi1 Zr6 3.080159 1_655
Bi1 Zr4 3.106106 1_555
Bi1 Zr1 3.140532 1_556
Bi1 Zr1 3.140532 1_555
Bi2 Zr3 2.992475 1_555
Bi2 Zr4 2.992538 1_455
Bi2 Zr9 3.080146 1_556
Bi2 Zr6 3.080146 1_555
Bi2 Zr8 3.080183 1_556
Bi2 Zr7 3.080183 1_555
Bi2 Zr5 3.106127 1_555
Bi2 Zr2 3.140496 1_555
Bi2 Zr2 3.140496 1_556
