# generated using pymatgen
data_Li2Ca3AgSn3
_symmetry_space_group_name_H-M   'P 1'
_cell_length_a   4.86629485
_cell_length_b   4.86629486
_cell_length_c   10.83821258
_cell_angle_alpha   90.00184078
_cell_angle_beta   89.99815922
_cell_angle_gamma   120.00677744
_symmetry_Int_Tables_number   1
_chemical_formula_structural   Li2Ca3AgSn3
_chemical_formula_sum   'Li2 Ca3 Ag1 Sn3'
_cell_volume   222.25701274
_cell_formula_units_Z   1
loop_
 _symmetry_equiv_pos_site_id
 _symmetry_equiv_pos_as_xyz
  1  'x, y, z'
loop_
 _atom_site_type_symbol
 _atom_site_label
 _atom_site_symmetry_multiplicity
 _atom_site_fract_x
 _atom_site_fract_y
 _atom_site_fract_z
 _atom_site_occupancy
  Li  Li0  1  0.66668091  0.33331909  0.48450048  1
  Li  Li1  1  0.33331912  0.66668088  0.18761352  1
  Ca  Ca0  1  0.00002038  0.99997962  0.66284986  1
  Ca  Ca1  1  0.00000355  0.99999645  0.32764368  1
  Ca  Ca2  1  0.99996885  0.00003115  0.99653715  1
  Ag  Ag0  1  0.33333937  0.66666063  0.79950277  1
  Sn  Sn0  1  0.66666317  0.33333683  0.85284383  1
  Sn  Sn1  1  0.66665824  0.33334176  0.14648410  1
  Sn  Sn2  1  0.33334641  0.66665359  0.49802559  1
loop_
_geom_bond_atom_site_label_1
_geom_bond_atom_site_label_2
_geom_bond_distance
_geom_bond_site_symmetry_2
Li0 Sn2 2.813184 1_655
Li0 Sn2 2.813184 1_545
Li0 Sn2 2.813478 1_555
Li1 Sn1 2.844495 1_455
Li1 Sn1 2.844495 1_565
Li1 Sn1 2.844827 1_555
Li1 Sn2 3.364312 1_555
Ca0 Sn2 3.329282 1_455
Ca0 Sn2 3.329282 1_565
Ca0 Sn2 3.329363 1_555
Ca0 Li0 3.410077 1_565
Ca0 Li0 3.410077 1_455
Ca0 Li0 3.410467 1_465
Ca0 Sn0 3.483169 1_565
Ca0 Sn0 3.483169 1_455
Ca0 Sn0 3.483552 1_465
Ca0 Ca2 3.616574 1_465
Ca0 Ca1 3.633036 1_555
Ca1 Li1 3.193170 1_555
Ca1 Li1 3.193188 1_455
Ca1 Li1 3.193188 1_565
Ca1 Li0 3.283766 1_565
Ca1 Li0 3.283766 1_455
Ca1 Li0 3.283816 1_465
Ca1 Sn2 3.361871 1_455
Ca1 Sn2 3.361871 1_565
Ca1 Sn2 3.362298 1_555
Ca1 Sn1 3.427413 1_565
Ca1 Sn1 3.427413 1_455
Ca1 Sn1 3.427863 1_465
Ca1 Ca2 3.588603 1_464
Ca2 Sn0 3.212235 1_655
Ca2 Sn0 3.212235 1_545
Ca2 Sn0 3.212256 1_555
Ca2 Sn1 3.245592 1_556
Ca2 Sn1 3.245670 1_656
Ca2 Sn1 3.245670 1_546
Ca2 Li1 3.490079 1_546
Ca2 Li1 3.490079 1_656
Ca2 Li1 3.490576 1_646
Ag0 Sn0 2.868261 1_455
Ag0 Sn0 2.868261 1_565
Ag0 Sn0 2.868456 1_555
Ag0 Ca0 3.175893 1_655
Ag0 Ca0 3.175893 1_545
Ag0 Ca0 3.176060 1_555
Ag0 Sn2 3.267474 1_555
Ag0 Ca2 3.528772 1_565
Ag0 Ca2 3.528772 1_455
Ag0 Ca2 3.529281 1_465
Sn0 Sn1 3.182536 1_556
