# generated using pymatgen
data_Sc3Ti(GeRh5)2
_symmetry_space_group_name_H-M   'P 1'
_cell_length_a   4.02815012
_cell_length_b   5.43859678
_cell_length_c   10.69780269
_cell_angle_alpha   90.11938752
_cell_angle_beta   90.00000000
_cell_angle_gamma   90.00000000
_symmetry_Int_Tables_number   1
_chemical_formula_structural   Sc3Ti(GeRh5)2
_chemical_formula_sum   'Sc3 Ti1 Ge2 Rh10'
_cell_volume   234.36143536
_cell_formula_units_Z   1
loop_
 _symmetry_equiv_pos_site_id
 _symmetry_equiv_pos_as_xyz
  1  'x, y, z'
loop_
 _atom_site_type_symbol
 _atom_site_label
 _atom_site_symmetry_multiplicity
 _atom_site_fract_x
 _atom_site_fract_y
 _atom_site_fract_z
 _atom_site_occupancy
  Sc  Sc0  1  0.50000000  0.31983273  0.14007684  1
  Sc  Sc1  1  0.50000000  0.67563020  0.86117661  1
  Sc  Sc2  1  0.50000000  0.82231971  0.36038430  1
  Ti  Ti0  1  0.50000000  0.17235980  0.64178343  1
  Ge  Ge0  1  0.00000000  0.00113234  0.99919238  1
  Ge  Ge1  1  0.00000000  0.50546646  0.50019787  1
  Rh  Rh0  1  0.00000000  0.01378899  0.50614386  1
  Rh  Rh1  1  0.00000000  0.49794844  0.99820100  1
  Rh  Rh2  1  0.00000000  0.06824703  0.24787223  1
  Rh  Rh3  1  0.00000000  0.93000686  0.75189583  1
  Rh  Rh4  1  0.00000000  0.56737460  0.25495227  1
  Rh  Rh5  1  0.00000000  0.42094865  0.73858451  1
  Rh  Rh6  1  0.50000000  0.31720622  0.39878748  1
  Rh  Rh7  1  0.50000000  0.68928995  0.60789813  1
  Rh  Rh8  1  0.50000000  0.81611148  0.10690436  1
  Rh  Rh9  1  0.50000000  0.18233755  0.88595091  1
loop_
_geom_bond_atom_site_label_1
_geom_bond_atom_site_label_2
_geom_bond_distance
_geom_bond_site_symmetry_2
Ge0 Rh8 2.530144 1_546
Ge0 Rh8 2.530144 1_446
Ge0 Rh9 2.549561 1_455
Ge0 Rh9 2.549561 1_555
Ge0 Rh3 2.672863 1_545
Ge0 Rh2 2.684498 1_556
Ge0 Rh1 2.702025 1_555
Ge0 Rh1 2.736613 1_545
Ge0 Sc0 3.053096 1_556
Ge0 Sc0 3.053096 1_456
Ge0 Sc1 3.059318 1_545
Ge0 Sc1 3.059318 1_445
Ge1 Rh6 2.505418 1_455
Ge1 Rh6 2.505418 1_555
Ge1 Rh7 2.525598 1_555
Ge1 Rh7 2.525598 1_455
Ge1 Rh5 2.592250 1_555
Ge1 Rh4 2.645801 1_555
Ge1 Rh0 2.674924 1_555
Ge1 Rh0 2.765160 1_565
Ge1 Sc2 3.045308 1_455
Ge1 Sc2 3.045308 1_555
Ge1 Ti0 3.105499 1_555
Ge1 Ti0 3.105499 1_455
Rh0 Ti0 2.626891 1_555
Rh0 Ti0 2.626891 1_455
Rh0 Sc2 2.750550 1_545
Rh0 Sc2 2.750550 1_445
Rh1 Sc1 2.673006 1_555
Rh1 Sc1 2.673006 1_455
Rh1 Sc0 2.702702 1_456
Rh1 Sc0 2.702702 1_556
Rh2 Sc0 2.695377 1_555
Rh2 Sc0 2.695377 1_455
Rh2 Sc2 2.702007 1_545
Rh2 Sc2 2.702007 1_445
Rh3 Ti0 2.681015 1_465
Rh3 Ti0 2.681015 1_565
Rh3 Sc1 2.709961 1_555
Rh3 Sc1 2.709961 1_455
Rh4 Sc2 2.691584 1_455
Rh4 Sc2 2.691584 1_555
Rh4 Sc0 2.715199 1_455
Rh4 Sc0 2.715199 1_555
Rh5 Ti0 2.636452 1_455
Rh5 Ti0 2.636452 1_555
Rh5 Sc1 2.772616 1_555
Rh5 Sc1 2.772616 1_455
Rh6 Ti0 2.717834 1_555
Rh6 Sc2 2.721816 1_545
Rh6 Sc0 2.767702 1_555
Rh6 Sc2 2.778505 1_555
Rh7 Ti0 2.651364 1_565
Rh7 Sc1 2.710696 1_555
Rh7 Sc2 2.746372 1_555
Rh7 Ti0 2.835398 1_555
Rh8 Sc2 2.711818 1_555
Rh8 Sc0 2.723022 1_555
Rh8 Sc1 2.735995 1_554
Rh8 Sc0 2.761692 1_565
Rh9 Ti0 2.612506 1_555
Rh9 Sc1 2.696428 1_555
Rh9 Sc1 2.767942 1_545
Rh9 Sc0 2.818054 1_556
