# generated using pymatgen
data_Rb2Be3VAs4
_symmetry_space_group_name_H-M   'P 1'
_cell_length_a   7.77427143
_cell_length_b   7.77427043
_cell_length_c   5.49341213
_cell_angle_alpha   90.00000000
_cell_angle_beta   90.00000000
_cell_angle_gamma   138.58261947
_symmetry_Int_Tables_number   1
_chemical_formula_structural   Rb2Be3VAs4
_chemical_formula_sum   'Rb2 Be3 V1 As4'
_cell_volume   219.64292926
_cell_formula_units_Z   1
loop_
 _symmetry_equiv_pos_site_id
 _symmetry_equiv_pos_as_xyz
  1  'x, y, z'
loop_
 _atom_site_type_symbol
 _atom_site_label
 _atom_site_symmetry_multiplicity
 _atom_site_fract_x
 _atom_site_fract_y
 _atom_site_fract_z
 _atom_site_occupancy
  Rb  Rb0  1  0.50000000  0.00000000  0.24901351  1
  Rb  Rb1  1  0.00000000  0.50000000  0.75098649  1
  Be  Be0  1  0.50000000  0.50000000  0.50000000  1
  Be  Be1  1  0.50000000  0.50000000  0.00000000  1
  Be  Be2  1  0.00000000  0.00000000  0.50000000  1
  V  V0  1  0.00000000  0.00000000  0.00000000  1
  As  As0  1  0.65342257  0.83621195  0.74506738  1
  As  As1  1  0.16378805  0.34657743  0.25493262  1
  As  As2  1  0.83621195  0.65342257  0.25493262  1
  As  As3  1  0.34657743  0.16378805  0.74506738  1
loop_
_geom_bond_atom_site_label_1
_geom_bond_atom_site_label_2
_geom_bond_distance
_geom_bond_site_symmetry_2
As0 Be0 2.321888 1_555
As0 Be1 2.353724 1_556
As0 Be2 2.355386 1_665
As0 V0 2.386775 1_666
As0 Rb1 3.567058 1_555
As0 Rb0 3.570390 1_565
As0 Rb0 3.603589 1_566
As0 Rb1 3.610713 1_665
As1 Be0 2.321888 1_555
As1 Be1 2.353724 1_555
As1 Be2 2.355385 1_555
As1 V0 2.386775 1_555
As1 Rb0 3.567057 1_565
As1 Rb1 3.570390 1_555
As1 Rb1 3.603589 1_554
As1 Rb0 3.610714 1_455
As2 Be0 2.321888 1_555
As2 Be1 2.353724 1_555
As2 Be2 2.355385 1_665
As2 V0 2.386775 1_665
As2 Rb0 3.567057 1_555
As2 Rb1 3.570390 1_655
As2 Rb1 3.603589 1_654
As2 Rb0 3.610714 1_665
As3 Be0 2.321888 1_555
As3 Be1 2.353724 1_556
As3 Be2 2.355386 1_555
As3 V0 2.386775 1_556
As3 Rb1 3.567058 1_655
As3 Rb0 3.570390 1_555
As3 Rb0 3.603589 1_556
As3 Rb1 3.610713 1_545
