# generated using pymatgen
data_Y5TcMoO12
_symmetry_space_group_name_H-M   'P 1'
_cell_length_a   6.76855566
_cell_length_b   6.76855423
_cell_length_c   7.46414360
_cell_angle_alpha   73.82642758
_cell_angle_beta   73.82642938
_cell_angle_gamma   50.03606880
_symmetry_Int_Tables_number   1
_chemical_formula_structural   Y5TcMoO12
_chemical_formula_sum   'Y5 Tc1 Mo1 O12'
_cell_volume   249.40332469
_cell_formula_units_Z   1
loop_
 _symmetry_equiv_pos_site_id
 _symmetry_equiv_pos_as_xyz
  1  'x, y, z'
loop_
 _atom_site_type_symbol
 _atom_site_label
 _atom_site_symmetry_multiplicity
 _atom_site_fract_x
 _atom_site_fract_y
 _atom_site_fract_z
 _atom_site_occupancy
  Y  Y0  1  0.31569364  0.29450602  0.35996155  1
  Y  Y1  1  0.70549398  0.68430636  0.64003845  1
  Y  Y2  1  0.31760343  0.30947187  0.82467717  1
  Y  Y3  1  0.69052813  0.68239657  0.17532283  1
  Y  Y4  1  0.00794373  0.99205627  0.50000000  1
  Tc  Tc0  1  0.76366056  0.23633943  0.00000000  1
  Mo  Mo0  1  0.20456526  0.79543474  1.00000000  1
  O  O0  1  0.90996195  0.42860408  0.91644205  1
  O  O1  1  0.41455072  0.90192505  0.91796733  1
  O  O2  1  0.09807495  0.58544928  0.08203267  1
  O  O3  1  0.57139592  0.09003805  0.08355795  1
  O  O4  1  0.10598474  0.58940148  0.57142320  1
  O  O5  1  0.59919332  0.08904425  0.57754896  1
  O  O6  1  0.91095575  0.40080668  0.42245104  1
  O  O7  1  0.41059852  0.89401526  0.42857680  1
  O  O8  1  0.99440309  0.00385028  0.79877914  1
  O  O9  1  0.99614972  0.00559691  0.20122086  1
  O  O10  1  0.49200684  0.50876125  0.81950247  1
  O  O11  1  0.49123875  0.50799316  0.18049753  1
loop_
_geom_bond_atom_site_label_1
_geom_bond_atom_site_label_2
_geom_bond_distance
_geom_bond_site_symmetry_2
Mo0 O2 1.870793 1_556
Mo0 O1 1.870793 1_555
Mo0 O9 1.923905 1_466
Mo0 O8 1.923906 1_465
Mo0 O10 2.124124 1_555
Mo0 O11 2.124124 1_556
O0 Tc0 1.980481 1_556
O0 Y2 2.264736 1_655
O0 Y1 2.385722 1_555
O0 Y3 2.421473 1_556
O1 Y2 2.320341 1_565
O1 Y1 2.459959 1_555
O1 Y3 2.496097 1_556
O2 Y3 2.320341 1_455
O2 Y0 2.459958 1_555
O2 Y2 2.496097 1_554
O3 Tc0 1.980481 1_555
O3 Y3 2.264735 1_545
O3 Y0 2.385722 1_555
O3 Y2 2.421473 1_554
O4 Y1 2.279482 1_455
O4 Y4 2.284007 1_555
O4 Y2 2.289474 1_555
O4 Y0 2.314645 1_555
O5 Y2 2.276583 1_555
O5 Y1 2.276643 1_545
O5 Y0 2.302971 1_555
O5 Y4 2.325243 1_645
O6 Y3 2.276583 1_555
O6 Y0 2.276644 1_655
O6 Y1 2.302971 1_555
O6 Y4 2.325243 1_645
O7 Y0 2.279481 1_565
O7 Y4 2.284007 1_555
O7 Y3 2.289474 1_555
O7 Y1 2.314645 1_555
O8 Tc0 2.006002 1_556
O8 Y4 2.228041 1_645
O9 Tc0 2.006002 1_555
O9 Y4 2.228041 1_645
O10 Tc0 2.058320 1_556
O10 Y2 2.281578 1_555
O10 Y1 2.352604 1_555
O11 Tc0 2.058320 1_555
O11 Y3 2.281578 1_555
O11 Y0 2.352604 1_555
