# generated using pymatgen
data_KFeNiP2
_symmetry_space_group_name_H-M   'P 1'
_cell_length_a   7.12650469
_cell_length_b   7.12650477
_cell_length_c   7.12650535
_cell_angle_alpha   150.28299938
_cell_angle_beta   150.28299839
_cell_angle_gamma   42.52614499
_symmetry_Int_Tables_number   1
_chemical_formula_structural   KFeNiP2
_chemical_formula_sum   'K1 Fe1 Ni1 P2'
_cell_volume   88.71925142
_cell_formula_units_Z   1
loop_
 _symmetry_equiv_pos_site_id
 _symmetry_equiv_pos_as_xyz
  1  'x, y, z'
loop_
 _atom_site_type_symbol
 _atom_site_label
 _atom_site_symmetry_multiplicity
 _atom_site_fract_x
 _atom_site_fract_y
 _atom_site_fract_z
 _atom_site_occupancy
  K  K0  1  0.00000000  0.00000000  0.00000000  1
  Fe  Fe0  1  0.25000000  0.75000000  0.50000000  1
  Ni  Ni0  1  0.75000000  0.25000000  0.50000000  1
  P  P0  1  0.34149389  0.34149389  1.00000000  1
  P  P1  1  0.65850611  0.65850611  0.00000000  1
loop_
_geom_bond_atom_site_label_1
_geom_bond_atom_site_label_2
_geom_bond_distance
_geom_bond_site_symmetry_2
K0 P1 3.333463 1_545
K0 P0 3.333463 1_454
K0 P1 3.333463 1_455
K0 P0 3.333463 1_544
K0 P1 3.333463 1_556
K0 P0 3.333463 1_443
K0 P1 3.333464 1_444
K0 P0 3.333464 1_555
Fe0 P0 2.194669 1_565
Fe0 P1 2.194669 1_455
Fe0 P0 2.194669 1_554
Fe0 P1 2.194669 1_556
Ni0 P1 2.194669 1_545
Ni0 P0 2.194669 1_655
Ni0 P1 2.194669 1_556
Ni0 P0 2.194669 1_554
