# generated using pymatgen
data_K4HfSb2F14
_symmetry_space_group_name_H-M   'P 1'
_cell_length_a   6.70471212
_cell_length_b   7.42412871
_cell_length_c   7.58033883
_cell_angle_alpha   92.45669883
_cell_angle_beta   91.83554785
_cell_angle_gamma   115.94758757
_symmetry_Int_Tables_number   1
_chemical_formula_structural   K4HfSb2F14
_chemical_formula_sum   'K4 Hf1 Sb2 F14'
_cell_volume   338.43366611
_cell_formula_units_Z   1
loop_
 _symmetry_equiv_pos_site_id
 _symmetry_equiv_pos_as_xyz
  1  'x, y, z'
loop_
 _atom_site_type_symbol
 _atom_site_label
 _atom_site_symmetry_multiplicity
 _atom_site_fract_x
 _atom_site_fract_y
 _atom_site_fract_z
 _atom_site_occupancy
  K  K0  1  0.28595385  0.55522965  0.14390513  1
  K  K1  1  0.85042138  0.73192293  0.41769664  1
  K  K2  1  0.71404615  0.44477035  0.85609487  1
  K  K3  1  0.14957862  0.26807707  0.58230336  1
  Hf  Hf0  1  0.00000000  0.00000000  0.00000000  1
  Sb  Sb0  1  0.39918893  0.81530661  0.68906453  1
  Sb  Sb1  1  0.60081107  0.18469339  0.31093547  1
  F  F0  1  0.91994787  0.37366035  0.32829326  1
  F  F1  1  0.28304568  0.12673146  0.87725214  1
  F  F2  1  0.42827254  0.66140461  0.48341401  1
  F  F3  1  0.71695432  0.87326854  0.12274786  1
  F  F4  1  0.94020587  0.23297074  0.94416406  1
  F  F5  1  0.27913920  0.93996766  0.49424371  1
  F  F6  1  0.05979413  0.76702926  0.05583594  1
  F  F7  1  0.84709801  0.85974500  0.76940435  1
  F  F8  1  0.08005213  0.62633965  0.67170674  1
  F  F9  1  0.15290199  0.14025500  0.23059565  1
  F  F10  1  0.40214481  0.57232320  0.81297557  1
  F  F11  1  0.59785519  0.42767680  0.18702443  1
  F  F12  1  0.72086080  0.06003234  0.50575629  1
  F  F13  1  0.57172746  0.33859539  0.51658599  1
loop_
_geom_bond_atom_site_label_1
_geom_bond_atom_site_label_2
_geom_bond_distance
_geom_bond_site_symmetry_2
F0 Sb1 1.975631 1_555
F0 K0 2.697991 1_655
F0 K3 2.772707 1_655
F0 K1 2.949877 1_555
F1 Hf0 1.994515 1_556
F1 K3 2.792044 1_555
F1 K2 2.835951 1_555
F2 Sb0 1.958431 1_555
F2 K0 2.676899 1_555
F2 K1 2.710959 1_555
F2 K3 2.843063 1_555
F3 Hf0 1.994515 1_665
F3 K1 2.792044 1_555
F3 K0 2.835951 1_555
F4 Hf0 1.997520 1_656
F4 K2 2.707240 1_555
F4 K0 2.828692 1_656
F4 K3 3.090393 1_655
F5 Sb0 2.092436 1_555
F5 Sb1 2.619664 1_565
F5 K1 2.629795 1_455
F5 K3 2.980498 1_565
F6 Hf0 1.997520 1_565
F6 K0 2.707240 1_555
F6 K2 2.828692 1_454
F6 K1 3.090393 1_455
F7 Hf0 1.996424 1_666
F7 K1 2.795415 1_555
F7 K2 2.919791 1_555
F7 K3 3.238408 1_665
F8 Sb0 1.975631 1_555
F8 K2 2.697991 1_455
F8 K1 2.772707 1_455
F8 K3 2.949877 1_555
F9 Hf0 1.996424 1_555
F9 K3 2.795415 1_555
F9 K0 2.919791 1_555
F9 K1 3.238408 1_445
F10 Sb0 2.076586 1_555
F10 K0 2.642314 1_556
F10 K2 2.663166 1_555
F10 K3 2.674243 1_555
F11 Sb1 2.076586 1_555
F11 K2 2.642314 1_554
F11 K0 2.663166 1_555
F11 K1 2.674243 1_555
F12 Sb1 2.092436 1_555
F12 Sb0 2.619664 1_545
F12 K3 2.629795 1_655
F12 K1 2.980498 1_545
F13 Sb1 1.958431 1_555
F13 K2 2.676899 1_555
F13 K3 2.710959 1_555
F13 K1 2.843063 1_555
