# generated using pymatgen
data_Re4Ge(AsS)4
_symmetry_space_group_name_H-M   'P 1'
_cell_length_a   7.00446969
_cell_length_b   7.00446978
_cell_length_c   7.00447060
_cell_angle_alpha   60.00000536
_cell_angle_beta   60.00000494
_cell_angle_gamma   60.00000638
_symmetry_Int_Tables_number   1
_chemical_formula_structural   Re4Ge(AsS)4
_chemical_formula_sum   'Re4 Ge1 As4 S4'
_cell_volume   243.00258876
_cell_formula_units_Z   1
loop_
 _symmetry_equiv_pos_site_id
 _symmetry_equiv_pos_as_xyz
  1  'x, y, z'
loop_
 _atom_site_type_symbol
 _atom_site_label
 _atom_site_symmetry_multiplicity
 _atom_site_fract_x
 _atom_site_fract_y
 _atom_site_fract_z
 _atom_site_occupancy
  Re  Re0  1  0.40067810  0.40067810  0.40067810  1
  Re  Re1  1  0.40067810  0.40067810  0.79796671  1
  Re  Re2  1  0.40067810  0.79796671  0.40067810  1
  Re  Re3  1  0.79796671  0.40067810  0.40067810  1
  Ge  Ge0  1  0.00000000  0.00000000  0.00000000  1
  As  As0  1  0.14076793  0.14076793  0.14076793  1
  As  As1  1  0.14076793  0.14076793  0.57769721  1
  As  As2  1  0.14076793  0.57769721  0.14076793  1
  As  As3  1  0.57769721  0.14076793  0.14076793  1
  S  S0  1  0.63140540  0.63140540  0.63140540  1
  S  S1  1  0.63140540  0.63140540  0.10578380  1
  S  S2  1  0.63140540  0.10578380  0.63140540  1
  S  S3  1  0.10578380  0.63140540  0.63140540  1
loop_
_geom_bond_atom_site_label_1
_geom_bond_atom_site_label_2
_geom_bond_distance
_geom_bond_site_symmetry_2
Re0 S1 2.329316 1_555
Re0 S3 2.329316 1_555
Re0 S2 2.329316 1_555
Re1 S0 2.329315 1_555
Re1 S3 2.329321 1_555
Re1 S2 2.329321 1_555
Re2 S0 2.329315 1_555
Re2 S3 2.329320 1_555
Re2 S1 2.329321 1_555
Re3 S0 2.329315 1_555
Re3 S2 2.329320 1_555
Re3 S1 2.329321 1_555
As0 Ge0 2.415208 1_555
As0 Re1 2.639278 1_554
As0 Re3 2.639278 1_455
As0 Re2 2.639278 1_545
As1 Ge0 2.415203 1_556
As1 Re0 2.639277 1_555
As1 Re3 2.639278 1_455
As1 Re2 2.639278 1_545
As2 Ge0 2.415203 1_565
As2 Re3 2.639278 1_455
As2 Re0 2.639278 1_555
As2 Re1 2.639278 1_554
As3 Ge0 2.415203 1_655
As3 Re2 2.639278 1_545
As3 Re0 2.639278 1_555
As3 Re1 2.639278 1_554
