# generated using pymatgen
data_Lu4Zr2PbO12
_symmetry_space_group_name_H-M   'P 1'
_cell_length_a   6.25418260
_cell_length_b   6.30513179
_cell_length_c   6.44872169
_cell_angle_alpha   100.09808993
_cell_angle_beta   99.17174536
_cell_angle_gamma   99.54869031
_symmetry_Int_Tables_number   1
_chemical_formula_structural   Lu4Zr2PbO12
_chemical_formula_sum   'Lu4 Zr2 Pb1 O12'
_cell_volume   242.19026252
_cell_formula_units_Z   1
loop_
 _symmetry_equiv_pos_site_id
 _symmetry_equiv_pos_as_xyz
  1  'x, y, z'
loop_
 _atom_site_type_symbol
 _atom_site_label
 _atom_site_symmetry_multiplicity
 _atom_site_fract_x
 _atom_site_fract_y
 _atom_site_fract_z
 _atom_site_occupancy
  Lu  Lu0  1  0.39317839  0.69429467  0.86243247  1
  Lu  Lu1  1  0.69285463  0.86533727  0.39249024  1
  Lu  Lu2  1  0.60682161  0.30570533  0.13756753  1
  Lu  Lu3  1  0.30714537  0.13466273  0.60750976  1
  Zr  Zr0  1  0.84806795  0.39650295  0.67282974  1
  Zr  Zr1  1  0.15193205  0.60349705  0.32717026  1
  Pb  Pb0  1  0.00000000  0.00000000  0.00000000  1
  O  O0  1  0.04332049  0.66973267  0.89340195  1
  O  O1  1  0.67854715  0.92945984  0.06453605  1
  O  O2  1  0.91972327  0.08445163  0.67879746  1
  O  O3  1  0.95667951  0.33026733  0.10659805  1
  O  O4  1  0.32145285  0.07054016  0.93546395  1
  O  O5  1  0.08027673  0.91554837  0.32120254  1
  O  O6  1  0.57844302  0.18495421  0.42730337  1
  O  O7  1  0.17651018  0.42635808  0.57177594  1
  O  O8  1  0.41657486  0.58140904  0.17768024  1
  O  O9  1  0.42155698  0.81504579  0.57269663  1
  O  O10  1  0.82348982  0.57364192  0.42822406  1
  O  O11  1  0.58342514  0.41859096  0.82231976  1
loop_
_geom_bond_atom_site_label_1
_geom_bond_atom_site_label_2
_geom_bond_distance
_geom_bond_site_symmetry_2
Lu0 O9 2.159141 1_555
Lu0 O1 2.187537 1_556
Lu0 O0 2.211170 1_555
Lu0 O8 2.260090 1_556
Lu0 O11 2.265201 1_555
Lu0 O7 2.350294 1_555
Lu0 O4 2.465635 1_565
Lu1 O10 2.165715 1_555
Lu1 O1 2.212627 1_555
Lu1 O9 2.215688 1_555
Lu1 O2 2.225041 1_565
Lu1 O6 2.234844 1_565
Lu1 O8 2.334625 1_555
Lu1 O5 2.516777 1_655
Lu2 O6 2.159141 1_555
Lu2 O4 2.187537 1_554
Lu2 O3 2.211170 1_555
Lu2 O11 2.260090 1_554
Lu2 O8 2.265201 1_555
Lu2 O10 2.350294 1_555
Lu2 O1 2.465635 1_545
Lu3 O7 2.165715 1_555
Lu3 O4 2.212627 1_555
Lu3 O6 2.215688 1_555
Lu3 O5 2.225041 1_545
Lu3 O9 2.234844 1_545
Lu3 O11 2.334625 1_555
Lu3 O2 2.516777 1_455
O0 Zr0 2.090773 1_455
O0 Pb0 2.151009 1_566
O1 Pb0 2.108981 1_665
O2 Zr0 2.094531 1_555
O2 Pb0 2.229353 1_656
O3 Zr1 2.090773 1_655
O3 Pb0 2.151009 1_655
O4 Pb0 2.108981 1_556
O5 Zr1 2.094531 1_555
O5 Pb0 2.229353 1_565
O6 Zr0 2.188987 1_555
O7 Zr1 2.087268 1_555
O7 Zr0 2.240770 1_455
O8 Zr1 2.055775 1_555
O9 Zr1 2.188987 1_555
O10 Zr0 2.087268 1_555
O10 Zr1 2.240770 1_655
O11 Zr0 2.055775 1_555
