# generated using pymatgen
data_NaCaHgBi
_symmetry_space_group_name_H-M   'P 1'
_cell_length_a   5.43108888
_cell_length_b   5.43108869
_cell_length_c   5.43108881
_cell_angle_alpha   59.99999929
_cell_angle_beta   60.00000047
_cell_angle_gamma   59.99999568
_symmetry_Int_Tables_number   1
_chemical_formula_structural   NaCaHgBi
_chemical_formula_sum   'Na1 Ca1 Hg1 Bi1'
_cell_volume   113.27803238
_cell_formula_units_Z   1
loop_
 _symmetry_equiv_pos_site_id
 _symmetry_equiv_pos_as_xyz
  1  'x, y, z'
loop_
 _atom_site_type_symbol
 _atom_site_label
 _atom_site_symmetry_multiplicity
 _atom_site_fract_x
 _atom_site_fract_y
 _atom_site_fract_z
 _atom_site_occupancy
  Na  Na0  1  0.75000000  0.75000000  0.75000000  1
  Ca  Ca0  1  0.25000000  0.25000000  0.25000000  1
  Hg  Hg0  1  0.00000000  0.00000000  0.00000000  1
  Bi  Bi0  1  0.50000000  0.50000000  0.50000000  1
loop_
_geom_bond_atom_site_label_1
_geom_bond_atom_site_label_2
_geom_bond_distance
_geom_bond_site_symmetry_2
Ca0 Hg0 3.325849 1_565
Ca0 Hg0 3.325849 1_655
Ca0 Hg0 3.325849 1_556
Ca0 Hg0 3.325849 1_555
Hg0 Na0 3.325849 1_454
Hg0 Na0 3.325849 1_544
Hg0 Na0 3.325849 1_445
Hg0 Na0 3.325849 1_444
Bi0 Ca0 3.325849 1_565
Bi0 Na0 3.325849 1_545
Bi0 Ca0 3.325849 1_655
Bi0 Na0 3.325849 1_455
Bi0 Ca0 3.325849 1_556
Bi0 Ca0 3.325849 1_555
Bi0 Na0 3.325849 1_555
Bi0 Na0 3.325849 1_554
