# generated using pymatgen
data_TePb3(IO2)2
_symmetry_space_group_name_H-M   'P 1'
_cell_length_a   7.47314746
_cell_length_b   7.47314714
_cell_length_c   5.72818397
_cell_angle_alpha   90.00000000
_cell_angle_beta   90.00000000
_cell_angle_gamma   134.78617809
_symmetry_Int_Tables_number   1
_chemical_formula_structural   TePb3(IO2)2
_chemical_formula_sum   'Te1 Pb3 I2 O4'
_cell_volume   227.05117499
_cell_formula_units_Z   1
loop_
 _symmetry_equiv_pos_site_id
 _symmetry_equiv_pos_as_xyz
  1  'x, y, z'
loop_
 _atom_site_type_symbol
 _atom_site_label
 _atom_site_symmetry_multiplicity
 _atom_site_fract_x
 _atom_site_fract_y
 _atom_site_fract_z
 _atom_site_occupancy
  Te  Te0  1  0.80907720  0.19092280  0.00000000  1
  Pb  Pb0  1  0.15204236  0.84795764  0.00000000  1
  Pb  Pb1  1  0.65449025  0.34550975  0.50000000  1
  Pb  Pb2  1  0.34530216  0.65469784  0.50000000  1
  I  I0  1  0.49036701  0.50963299  0.00000000  1
  I  I1  1  0.00172549  0.99827451  0.50000000  1
  O  O0  1  0.97890641  0.47554365  0.77145430  1
  O  O1  1  0.52445635  0.02109359  0.22854570  1
  O  O2  1  0.52445635  0.02109359  0.77145430  1
  O  O3  1  0.97890641  0.47554365  0.22854570  1
loop_
_geom_bond_atom_site_label_1
_geom_bond_atom_site_label_2
_geom_bond_distance
_geom_bond_site_symmetry_2
I0 Pb2 3.494192 1_555
I0 Pb2 3.494192 1_554
I1 Pb0 3.536202 1_556
I1 Pb0 3.536202 1_555
I1 Pb1 3.563076 1_455
I1 Pb1 3.563076 1_565
I1 Pb2 3.593169 1_565
I1 Pb2 3.593170 1_455
O0 Te0 2.011320 1_556
O0 Pb1 2.433221 1_555
O0 Pb0 2.461735 1_656
O0 Pb2 2.557865 1_655
O1 Te0 2.011320 1_555
O1 Pb1 2.433221 1_555
O1 Pb0 2.461735 1_545
O1 Pb2 2.557865 1_545
O2 Te0 2.011320 1_556
O2 Pb1 2.433221 1_555
O2 Pb0 2.461735 1_546
O2 Pb2 2.557865 1_545
O3 Te0 2.011320 1_555
O3 Pb1 2.433221 1_555
O3 Pb0 2.461735 1_655
O3 Pb2 2.557865 1_655
