# generated using pymatgen
data_CsFeTcAs2
_symmetry_space_group_name_H-M   'P 1'
_cell_length_a   8.41446163
_cell_length_b   8.41446150
_cell_length_c   8.41446178
_cell_angle_alpha   153.63441787
_cell_angle_beta   153.63441410
_cell_angle_gamma   37.63119010
_symmetry_Int_Tables_number   1
_chemical_formula_structural   CsFeTcAs2
_chemical_formula_sum   'Cs1 Fe1 Tc1 As2'
_cell_volume   117.32220227
_cell_formula_units_Z   1
loop_
 _symmetry_equiv_pos_site_id
 _symmetry_equiv_pos_as_xyz
  1  'x, y, z'
loop_
 _atom_site_type_symbol
 _atom_site_label
 _atom_site_symmetry_multiplicity
 _atom_site_fract_x
 _atom_site_fract_y
 _atom_site_fract_z
 _atom_site_occupancy
  Cs  Cs0  1  0.00000000  0.00000000  0.00000000  1
  Fe  Fe0  1  0.25000000  0.75000000  0.50000000  1
  Tc  Tc0  1  0.75000000  0.25000000  0.50000000  1
  As  As0  1  0.65400100  0.65400100  0.00000000  1
  As  As1  1  0.34599900  0.34599900  1.00000000  1
loop_
_geom_bond_atom_site_label_1
_geom_bond_atom_site_label_2
_geom_bond_distance
_geom_bond_site_symmetry_2
Fe0 Tc0 2.713860 1_555
Fe0 Tc0 2.713860 1_465
Fe0 Tc0 2.713861 1_566
Fe0 Tc0 2.713861 1_454
As0 Tc0 2.453783 1_565
As0 Tc0 2.453784 1_554
As0 Fe0 2.453784 1_655
As0 Fe0 2.453784 1_554
As0 Cs0 3.658293 1_655
As0 Cs0 3.658293 1_565
As0 Cs0 3.658294 1_554
As0 Cs0 3.658294 1_666
As1 Fe0 2.453783 1_545
As1 Fe0 2.453784 1_556
As1 Tc0 2.453784 1_455
As1 Tc0 2.453784 1_556
As1 Cs0 3.658293 1_566
As1 Cs0 3.658293 1_656
As1 Cs0 3.658294 1_667
As1 Cs0 3.658294 1_555
