# generated using pymatgen
data_Hf16VNi4Rh3
_symmetry_space_group_name_H-M   'P 1'
_cell_length_a   8.61053584
_cell_length_b   8.53057791
_cell_length_c   8.53057922
_cell_angle_alpha   59.99999490
_cell_angle_beta   60.30670278
_cell_angle_gamma   60.30670664
_symmetry_Int_Tables_number   1
_chemical_formula_structural   Hf16VNi4Rh3
_chemical_formula_sum   'Hf16 V1 Ni4 Rh3'
_cell_volume   445.11269241
_cell_formula_units_Z   1
loop_
 _symmetry_equiv_pos_site_id
 _symmetry_equiv_pos_as_xyz
  1  'x, y, z'
loop_
 _atom_site_type_symbol
 _atom_site_label
 _atom_site_symmetry_multiplicity
 _atom_site_fract_x
 _atom_site_fract_y
 _atom_site_fract_z
 _atom_site_occupancy
  Hf  Hf0  1  0.66490499  0.11169800  0.11169800  1
  Hf  Hf1  1  0.10521000  0.68407885  0.10535458  1
  Hf  Hf2  1  0.10521000  0.10535458  0.68407885  1
  Hf  Hf3  1  0.10521000  0.10535458  0.10535458  1
  Hf  Hf4  1  0.31706769  0.31453820  0.68419755  1
  Hf  Hf5  1  0.69725723  0.67475198  0.31399640  1
  Hf  Hf6  1  0.31706769  0.68419755  0.31453820  1
  Hf  Hf7  1  0.69725723  0.31399640  0.67475198  1
  Hf  Hf8  1  0.69725723  0.31399640  0.31399640  1
  Hf  Hf9  1  0.31706769  0.68419755  0.68419755  1
  Hf  Hf10  1  0.94597920  0.95171878  0.55115201  1
  Hf  Hf11  1  0.55321724  0.55212252  0.94733062  1
  Hf  Hf12  1  0.94597920  0.55115201  0.95171878  1
  Hf  Hf13  1  0.55321724  0.94733062  0.55212252  1
  Hf  Hf14  1  0.55321724  0.94733062  0.94733062  1
  Hf  Hf15  1  0.94597920  0.55115201  0.55115201  1
  V  V0  1  0.00248038  0.33250621  0.33250621  1
  Ni  Ni0  1  0.32367162  0.89211013  0.89211013  1
  Ni  Ni1  1  0.88774345  0.31604942  0.89810407  1
  Ni  Ni2  1  0.88774345  0.89810407  0.31604942  1
  Ni  Ni3  1  0.88774345  0.89810407  0.89810407  1
  Rh  Rh0  1  0.32983952  0.99258477  0.33878736  1
  Rh  Rh1  1  0.32983952  0.33878736  0.99258477  1
  Rh  Rh2  1  0.32983952  0.33878736  0.33878736  1
loop_
_geom_bond_atom_site_label_1
_geom_bond_atom_site_label_2
_geom_bond_distance
_geom_bond_site_symmetry_2
Hf0 Ni3 2.591183 1_544
Hf0 Ni1 2.591194 1_554
Hf0 Ni2 2.591194 1_545
Hf0 Rh0 2.916815 1_545
Hf0 Rh1 2.916815 1_554
Hf0 Rh2 2.916815 1_555
Hf0 Hf14 3.081354 1_544
Hf0 Hf11 3.081368 1_554
Hf0 Hf13 3.081368 1_545
Hf0 Hf5 3.156636 1_545
Hf0 Hf7 3.156637 1_554
Hf0 Hf8 3.156659 1_555
Hf1 Ni3 2.574933 1_454
Hf1 Ni2 2.574951 1_455
Hf1 Ni0 2.585682 1_554
Hf1 V0 2.941191 1_555
Hf1 Rh1 2.947637 1_554
Hf1 Rh2 2.947641 1_555
Hf1 Hf5 3.074812 1_455
Hf1 Hf12 3.112871 1_454
Hf1 Hf15 3.112899 1_455
Hf1 Hf9 3.120980 1_554
Hf1 Hf6 3.121003 1_555
Hf1 Hf11 3.166829 1_554
Hf2 Ni3 2.574933 1_445
Hf2 Ni1 2.574951 1_455
Hf2 Ni0 2.585682 1_545
Hf2 V0 2.941191 1_555
Hf2 Rh0 2.947637 1_545
Hf2 Rh2 2.947641 1_555
Hf2 Hf7 3.074812 1_455
Hf2 Hf9 3.120980 1_545
Hf2 Hf4 3.121002 1_555
Hf3 Ni2 2.574932 1_445
Hf3 Ni1 2.574933 1_454
Hf3 Ni0 2.585659 1_544
Hf3 V0 2.941199 1_555
Hf3 Rh1 2.947644 1_554
Hf3 Rh0 2.947645 1_545
Hf3 Hf8 3.074822 1_455
Hf3 Hf6 3.120987 1_545
Hf3 Hf4 3.120987 1_554
Hf4 Rh1 2.798022 1_555
Hf4 Rh2 2.798039 1_555
Hf4 Ni0 3.104858 1_545
Hf4 Hf6 3.153408 1_555
Hf4 Hf9 3.153408 1_555
Hf4 Ni1 3.207636 1_455
Hf4 Hf8 3.232218 1_555
Hf4 Hf7 3.232222 1_555
Hf5 V0 2.793604 1_655
Hf5 Rh0 2.969375 1_555
Hf5 Hf8 3.077454 1_555
Hf5 Hf7 3.077454 1_555
Hf5 Ni2 3.078745 1_555
Hf5 Ni3 3.078750 1_554
Hf5 Hf9 3.232218 1_555
Hf5 Hf6 3.232222 1_555
Hf6 Rh0 2.798022 1_555
Hf6 Rh2 2.798039 1_555
Hf6 Ni0 3.104859 1_554
Hf6 Hf9 3.153408 1_555
Hf6 Ni2 3.207636 1_455
Hf6 Hf8 3.232218 1_555
Hf7 V0 2.793604 1_655
Hf7 Rh1 2.969375 1_555
Hf7 Hf8 3.077454 1_555
Hf7 Ni1 3.078746 1_555
Hf7 Ni3 3.078750 1_545
Hf7 Hf9 3.232218 1_555
Hf8 V0 2.793590 1_655
Hf8 Rh2 2.969386 1_555
Hf8 Ni2 3.078753 1_545
Hf8 Ni1 3.078753 1_554
Hf9 Rh1 2.798031 1_555
Hf9 Rh0 2.798031 1_555
Hf9 Ni0 3.104866 1_555
Hf9 Ni3 3.207636 1_455
Hf10 Ni3 2.573650 1_555
Hf10 Ni2 2.573658 1_555
Hf10 V0 2.979129 1_665
Hf10 Rh0 2.984272 1_655
Hf10 Hf2 3.112871 1_665
Hf10 Hf3 3.112898 1_665
Hf10 Hf8 3.116626 1_565
Hf10 Hf7 3.116626 1_565
Hf10 Hf9 3.237959 1_655
Hf10 Hf6 3.237963 1_655
Hf10 Hf14 3.396469 1_555
Hf10 Hf13 3.396473 1_555
Hf10 Hf15 3.417066 1_555
Hf10 Hf12 3.417066 1_555
Hf11 Ni0 2.533210 1_555
Hf11 Ni1 2.535607 1_555
Hf11 Rh2 3.031511 1_556
Hf11 Rh1 3.031519 1_555
Hf11 Hf9 3.188380 1_555
Hf11 Hf6 3.188380 1_556
Hf11 Hf7 3.231363 1_555
Hf11 Hf8 3.231370 1_556
Hf11 Hf15 3.396469 1_555
Hf11 Hf12 3.396473 1_555
Hf12 Ni3 2.573650 1_555
Hf12 Ni1 2.573658 1_555
Hf12 V0 2.979129 1_656
Hf12 Rh1 2.984272 1_655
Hf12 Hf3 3.112898 1_656
Hf12 Hf8 3.116626 1_556
Hf12 Hf5 3.116626 1_556
Hf12 Hf9 3.237959 1_655
Hf12 Hf4 3.237963 1_655
Hf12 Hf14 3.396469 1_555
Hf12 Hf15 3.417067 1_555
Hf13 Ni0 2.533210 1_555
Hf13 Ni2 2.535607 1_555
Hf13 Rh2 3.031511 1_565
Hf13 Rh0 3.031519 1_555
Hf13 Hf2 3.166829 1_565
Hf13 Hf9 3.188379 1_555
Hf13 Hf4 3.188380 1_565
Hf13 Hf5 3.231363 1_555
Hf13 Hf8 3.231370 1_565
Hf13 Hf15 3.396469 1_555
Hf14 Ni0 2.533205 1_555
Hf14 Ni3 2.535607 1_555
Hf14 Rh1 3.031504 1_565
Hf14 Rh0 3.031505 1_556
Hf14 Hf3 3.166828 1_566
Hf14 Hf6 3.188379 1_556
Hf14 Hf4 3.188380 1_565
Hf14 Hf7 3.231369 1_565
Hf14 Hf5 3.231370 1_556
Hf15 Ni2 2.573652 1_555
Hf15 Ni1 2.573653 1_555
Hf15 V0 2.979151 1_655
Hf15 Rh2 2.984281 1_655
Hf15 Hf2 3.112899 1_655
Hf15 Hf7 3.116626 1_555
Hf15 Hf5 3.116626 1_555
Hf15 Hf6 3.237959 1_655
Hf15 Hf4 3.237959 1_655
Rh0 V0 2.872831 1_565
Rh0 Rh1 2.953308 1_564
Rh0 Rh2 2.953308 1_565
Rh1 V0 2.872831 1_556
Rh1 Rh2 2.953309 1_556
Rh2 V0 2.872831 1_555
