# generated using pymatgen
data_Y2Al6(GaIr)3
_symmetry_space_group_name_H-M   'P 1'
_cell_length_a   7.47833284
_cell_length_b   7.47833388
_cell_length_c   9.53237642
_cell_angle_alpha   90.00000000
_cell_angle_beta   90.00000000
_cell_angle_gamma   119.73312857
_symmetry_Int_Tables_number   1
_chemical_formula_structural   Y2Al6(GaIr)3
_chemical_formula_sum   'Y4 Al12 Ga6 Ir6'
_cell_volume   462.91694650
_cell_formula_units_Z   2
loop_
 _symmetry_equiv_pos_site_id
 _symmetry_equiv_pos_as_xyz
  1  'x, y, z'
loop_
 _atom_site_type_symbol
 _atom_site_label
 _atom_site_symmetry_multiplicity
 _atom_site_fract_x
 _atom_site_fract_y
 _atom_site_fract_z
 _atom_site_occupancy
  Y  Y0  1  0.99790389  0.66969748  0.25000000  1
  Y  Y1  1  0.00209611  0.33030252  0.75000000  1
  Y  Y2  1  0.66969748  0.99790389  0.25000000  1
  Y  Y3  1  0.33030252  0.00209611  0.75000000  1
  Al  Al0  1  0.00310862  0.33424951  0.07100277  1
  Al  Al1  1  0.99689138  0.66575049  0.92899723  1
  Al  Al2  1  0.99689138  0.66575049  0.57100277  1
  Al  Al3  1  0.33424951  0.00310862  0.42899723  1
  Al  Al4  1  0.00310862  0.33424951  0.42899723  1
  Al  Al5  1  0.66575049  0.99689138  0.57100277  1
  Al  Al6  1  0.66575049  0.99689138  0.92899723  1
  Al  Al7  1  0.33424951  0.00310862  0.07100277  1
  Al  Al8  1  0.33540835  0.33540835  0.55733770  1
  Al  Al9  1  0.66459165  0.66459165  0.44266230  1
  Al  Al10  1  0.66459165  0.66459165  0.05733770  1
  Al  Al11  1  0.33540835  0.33540835  0.94266230  1
  Ga  Ga0  1  0.12907654  0.12907654  0.25000000  1
  Ga  Ga1  1  0.87092346  0.87092346  0.75000000  1
  Ga  Ga2  1  0.33790655  0.54572437  0.25000000  1
  Ga  Ga3  1  0.66209345  0.45427563  0.75000000  1
  Ga  Ga4  1  0.54572437  0.33790655  0.25000000  1
  Ga  Ga5  1  0.45427563  0.66209345  0.75000000  1
  Ir  Ir0  1  0.67157060  0.32842940  0.00000000  1
  Ir  Ir1  1  0.32842940  0.67157060  0.00000000  1
  Ir  Ir2  1  0.32842940  0.67157060  0.50000000  1
  Ir  Ir3  1  0.67157060  0.32842940  0.50000000  1
  Ir  Ir4  1  0.00000000  0.00000000  0.00000000  1
  Ir  Ir5  1  0.00000000  0.00000000  0.50000000  1
loop_
_geom_bond_atom_site_label_1
_geom_bond_atom_site_label_2
_geom_bond_distance
_geom_bond_site_symmetry_2
Al0 Ir0 2.549535 1_455
Al0 Ir4 2.578593 1_555
Al0 Ir1 2.579312 1_555
Al0 Ga0 2.754404 1_555
Al0 Al11 2.766019 1_554
Al0 Ga2 2.784508 1_555
Al0 Al1 2.845114 1_454
Al0 Al6 2.872054 1_444
Al0 Y2 3.038759 1_445
Al0 Y0 3.050042 1_455
Al0 Y1 3.060035 1_554
Al1 Ir1 2.549535 1_656
Al1 Ir4 2.578593 1_666
Al1 Ir0 2.579312 1_556
Al1 Ga1 2.754404 1_555
Al1 Al10 2.766019 1_556
Al1 Ga3 2.784508 1_555
Al1 Al7 2.872054 1_666
Al1 Y3 3.038759 1_665
Al1 Y1 3.050042 1_655
Al1 Y0 3.060035 1_556
Al2 Ir2 2.549535 1_655
Al2 Ir5 2.578593 1_665
Al2 Ir3 2.579312 1_555
Al2 Ga1 2.754404 1_555
Al2 Al9 2.766019 1_555
Al2 Ga3 2.784508 1_555
Al2 Al4 2.845114 1_655
Al2 Al3 2.872054 1_665
Al2 Y3 3.038759 1_665
Al2 Y1 3.050042 1_655
Al2 Y0 3.060035 1_555
Al3 Ir2 2.549536 1_545
Al3 Ir5 2.578592 1_555
Al3 Ir3 2.579312 1_555
Al3 Ga0 2.754404 1_555
Al3 Al8 2.766019 1_555
Al3 Ga4 2.784508 1_555
Al3 Al5 2.845114 1_545
Al3 Y0 3.038759 1_445
Al3 Y2 3.050041 1_545
Al3 Y3 3.060035 1_555
Al4 Ir3 2.549535 1_455
Al4 Ir5 2.578593 1_555
Al4 Ir2 2.579312 1_555
Al4 Ga0 2.754404 1_555
Al4 Al8 2.766019 1_555
Al4 Ga2 2.784508 1_555
Al4 Al5 2.872054 1_445
Al4 Y2 3.038759 1_445
Al4 Y0 3.050042 1_455
Al4 Y1 3.060035 1_555
Al5 Ir3 2.549536 1_565
Al5 Ir5 2.578592 1_665
Al5 Ir2 2.579312 1_555
Al5 Ga1 2.754404 1_555
Al5 Al9 2.766019 1_555
Al5 Ga5 2.784508 1_555
Al5 Y1 3.038759 1_665
Al5 Y3 3.050041 1_565
Al5 Y2 3.060035 1_555
Al6 Ir0 2.549536 1_566
Al6 Ir4 2.578592 1_666
Al6 Ir1 2.579312 1_556
Al6 Ga1 2.754404 1_555
Al6 Ga5 2.784508 1_555
Al6 Al7 2.845114 1_566
Al6 Y1 3.038759 1_665
Al6 Y3 3.050041 1_565
Al6 Y2 3.060035 1_556
Al7 Ir1 2.549536 1_545
Al7 Ir4 2.578592 1_555
Al7 Ir0 2.579312 1_555
Al7 Ga0 2.754404 1_555
Al7 Ga4 2.784508 1_555
Al7 Y0 3.038759 1_445
Al7 Y2 3.050041 1_545
Al7 Y3 3.060035 1_554
Al8 Ir5 2.577034 1_555
Al8 Ir3 2.598358 1_555
Al8 Ir2 2.598358 1_555
Al8 Al9 2.702603 1_555
Al8 Ga3 2.824432 1_555
Al8 Ga5 2.824432 1_555
Al8 Y1 3.081079 1_555
Al8 Y3 3.081079 1_555
Al9 Ir5 2.577034 1_665
Al9 Ir2 2.598358 1_555
Al9 Ir3 2.598358 1_555
Al9 Ga2 2.824432 1_555
Al9 Ga4 2.824432 1_555
Al9 Y0 3.081079 1_555
Al9 Y2 3.081079 1_555
Al10 Ir4 2.577034 1_665
Al10 Ir1 2.598358 1_555
Al10 Ir0 2.598358 1_555
Al10 Al11 2.702603 1_554
Al10 Al6 2.766019 1_554
Al10 Ga2 2.824432 1_555
Al10 Ga4 2.824432 1_555
Al10 Y0 3.081079 1_555
Al10 Y2 3.081079 1_555
Al11 Ir4 2.577034 1_556
Al11 Ir0 2.598358 1_556
Al11 Ir1 2.598358 1_556
Al11 Al7 2.766019 1_556
Al11 Ga3 2.824432 1_555
Al11 Ga5 2.824432 1_555
Al11 Y1 3.081079 1_555
Al11 Y3 3.081079 1_555
Ga0 Ir5 2.572630 1_555
Ga0 Ir4 2.572630 1_555
Ga0 Ga4 2.705666 1_555
Ga0 Ga2 2.705666 1_555
Ga0 Y2 3.069436 1_445
Ga0 Y0 3.069437 1_445
Ga1 Ir5 2.572630 1_665
Ga1 Ir4 2.572630 1_666
Ga1 Ga5 2.705666 1_555
Ga1 Ga3 2.705666 1_555
Ga1 Y3 3.069436 1_665
Ga1 Y1 3.069437 1_665
Ga2 Ir1 2.576049 1_555
Ga2 Ir2 2.576049 1_555
Ga2 Ga4 2.688207 1_555
Ga2 Y2 3.044467 1_555
Ga2 Y0 3.108521 1_455
Ga3 Ir3 2.576049 1_555
Ga3 Ir0 2.576049 1_556
Ga3 Ga5 2.688207 1_555
Ga3 Y3 3.044467 1_555
Ga3 Y1 3.108521 1_655
Ga4 Ir3 2.576049 1_555
Ga4 Ir0 2.576049 1_555
Ga4 Y0 3.044467 1_555
Ga4 Y2 3.108521 1_545
Ga5 Ir2 2.576049 1_555
Ga5 Ir1 2.576049 1_556
Ga5 Y1 3.044467 1_555
Ga5 Y3 3.108521 1_565
