# generated using pymatgen
data_IrPdCl6
_symmetry_space_group_name_H-M   'P 1'
_cell_length_a   11.79098605
_cell_length_b   11.31011242
_cell_length_c   6.09919327
_cell_angle_alpha   79.09878907
_cell_angle_beta   70.37439133
_cell_angle_gamma   30.63241969
_symmetry_Int_Tables_number   1
_chemical_formula_structural   IrPdCl6
_chemical_formula_sum   'Ir2 Pd2 Cl12'
_cell_volume   381.81235757
_cell_formula_units_Z   2
loop_
 _symmetry_equiv_pos_site_id
 _symmetry_equiv_pos_as_xyz
  1  'x, y, z'
loop_
 _atom_site_type_symbol
 _atom_site_label
 _atom_site_symmetry_multiplicity
 _atom_site_fract_x
 _atom_site_fract_y
 _atom_site_fract_z
 _atom_site_occupancy
  Ir  Ir0  1  0.66620677  0.66620677  0.83379323  1
  Ir  Ir1  1  0.58379323  0.58379323  0.41620677  1
  Pd  Pd0  1  0.41678267  0.41678267  0.58321733  1
  Pd  Pd1  1  0.83321733  0.83321733  0.66678267  1
  Cl  Cl0  1  0.72894211  0.28131870  0.27530451  1
  Cl  Cl1  1  0.88230071  0.44137070  0.09645479  1
  Cl  Cl2  1  0.36769929  0.80862930  0.15354521  1
  Cl  Cl3  1  0.44137070  0.88230071  0.57987280  1
  Cl  Cl4  1  0.17579850  0.65210754  0.35293742  1
  Cl  Cl5  1  0.28131870  0.72894211  0.71443467  1
  Cl  Cl6  1  0.52105789  0.96868130  0.97469549  1
  Cl  Cl7  1  0.96868130  0.52105789  0.53556533  1
  Cl  Cl8  1  0.07420150  0.59789246  0.89706258  1
  Cl  Cl9  1  0.80862930  0.36769929  0.67012720  1
  Cl  Cl10  1  0.65210754  0.17579850  0.81915654  1
  Cl  Cl11  1  0.59789246  0.07420150  0.43084346  1
loop_
_geom_bond_atom_site_label_1
_geom_bond_atom_site_label_2
_geom_bond_distance
_geom_bond_site_symmetry_2
Cl0 Ir1 2.327927 1_555
Cl0 Pd0 2.482349 1_555
Cl1 Ir0 2.361347 1_554
Cl1 Ir1 2.367860 1_555
Cl2 Ir1 2.361347 1_555
Cl2 Ir0 2.367860 1_554
Cl3 Ir0 2.361352 1_555
Cl3 Ir1 2.367857 1_555
Cl4 Pd0 2.320054 1_555
Cl4 Pd1 2.495294 1_455
Cl5 Ir1 2.327926 1_555
Cl5 Pd0 2.482349 1_555
Cl6 Ir0 2.327927 1_555
Cl6 Pd1 2.482349 1_555
Cl7 Ir0 2.327926 1_555
Cl7 Pd1 2.482349 1_555
Cl8 Pd1 2.320054 1_455
Cl8 Pd0 2.495294 1_555
Cl9 Ir1 2.361352 1_555
Cl9 Ir0 2.367857 1_555
Cl10 Pd0 2.320054 1_555
Cl10 Pd1 2.495294 1_545
Cl11 Pd1 2.320054 1_545
Cl11 Pd0 2.495294 1_555
