# generated using pymatgen
data_Sr4Sc7SbSe16
_symmetry_space_group_name_H-M   'P 1'
_cell_length_a   3.98377328
_cell_length_b   12.32162776
_cell_length_c   14.43593835
_cell_angle_alpha   90.39968115
_cell_angle_beta   90.00000000
_cell_angle_gamma   90.00000000
_symmetry_Int_Tables_number   1
_chemical_formula_structural   Sr4Sc7SbSe16
_chemical_formula_sum   'Sr4 Sc7 Sb1 Se16'
_cell_volume   708.59347831
_cell_formula_units_Z   1
loop_
 _symmetry_equiv_pos_site_id
 _symmetry_equiv_pos_as_xyz
  1  'x, y, z'
loop_
 _atom_site_type_symbol
 _atom_site_label
 _atom_site_symmetry_multiplicity
 _atom_site_fract_x
 _atom_site_fract_y
 _atom_site_fract_z
 _atom_site_occupancy
  Sr  Sr0  1  0.75000000  0.73855966  0.17177231  1
  Sr  Sr1  1  0.75000000  0.23633755  0.33495456  1
  Sr  Sr2  1  0.25000000  0.25782909  0.82560221  1
  Sr  Sr3  1  0.25000000  0.76421424  0.66847473  1
  Sc  Sc0  1  0.75000000  0.05367473  0.11225261  1
  Sc  Sc1  1  0.75000000  0.55918225  0.39391792  1
  Sc  Sc2  1  0.25000000  0.94415512  0.89077717  1
  Sc  Sc3  1  0.25000000  0.44427881  0.61014466  1
  Sc  Sc4  1  0.75000000  0.08155593  0.59743493  1
  Sc  Sc5  1  0.75000000  0.58579571  0.89765431  1
  Sc  Sc6  1  0.25000000  0.91688860  0.40384664  1
  Sb  Sb0  1  0.25000000  0.41735902  0.09464280  1
  Se  Se0  1  0.75000000  0.29831995  0.65693508  1
  Se  Se1  1  0.75000000  0.79998674  0.83926101  1
  Se  Se2  1  0.25000000  0.70198959  0.34296893  1
  Se  Se3  1  0.25000000  0.19144320  0.16824019  1
  Se  Se4  1  0.75000000  0.38111596  0.95490170  1
  Se  Se5  1  0.75000000  0.87731164  0.52938113  1
  Se  Se6  1  0.25000000  0.62566562  0.02732266  1
  Se  Se7  1  0.25000000  0.12198219  0.47265266  1
  Se  Se8  1  0.75000000  0.47335843  0.22014747  1
  Se  Se9  1  0.75000000  0.96585911  0.28654061  1
  Se  Se10  1  0.25000000  0.53473388  0.78120517  1
  Se  Se11  1  0.25000000  0.02949952  0.71531157  1
  Se  Se12  1  0.75000000  0.08895101  0.92795538  1
  Se  Se13  1  0.75000000  0.59043920  0.57583654  1
  Se  Se14  1  0.25000000  0.90746934  0.07352646  1
  Se  Se15  1  0.25000000  0.41204591  0.42633860  1
loop_
_geom_bond_atom_site_label_1
_geom_bond_atom_site_label_2
_geom_bond_distance
_geom_bond_site_symmetry_2
Sc0 Se12 2.698767 1_554
Sc0 Se3 2.735567 1_555
Sc0 Se3 2.735567 1_655
Sc0 Se14 2.740704 1_645
Sc0 Se14 2.740704 1_545
Sc0 Se9 2.745739 1_545
Sc1 Se13 2.651597 1_555
Sc1 Se8 2.715519 1_555
Sc1 Se15 2.735931 1_555
Sc1 Se15 2.735931 1_655
Sc1 Se2 2.760957 1_655
Sc1 Se2 2.760957 1_555
Sc2 Se14 2.679709 1_556
Sc2 Se12 2.724957 1_465
Sc2 Se12 2.724957 1_565
Sc2 Se11 2.749387 1_565
Sc2 Se1 2.767274 1_455
Sc2 Se1 2.767274 1_555
Sc3 Se15 2.680230 1_555
Sc3 Se10 2.702196 1_555
Sc3 Se13 2.732894 1_555
Sc3 Se13 2.732894 1_455
Sc3 Se0 2.770422 1_555
Sc3 Se0 2.770422 1_455
Sc4 Se5 2.695189 1_545
Sc4 Se11 2.699983 1_555
Sc4 Se11 2.699983 1_655
Sc4 Se7 2.733699 1_655
Sc4 Se7 2.733699 1_555
Sc4 Se0 2.799893 1_555
Sc5 Se4 2.659412 1_555
Sc5 Se10 2.678552 1_655
Sc5 Se10 2.678552 1_555
Sc5 Se6 2.774900 1_656
Sc5 Se6 2.774900 1_556
Sc5 Se1 2.776131 1_555
Sc6 Se9 2.685821 1_555
Sc6 Se9 2.685821 1_455
Sc6 Se7 2.708829 1_565
Sc6 Se5 2.738950 1_555
Sc6 Se5 2.738950 1_455
Sc6 Se2 2.784111 1_555
Sb0 Se6 2.750833 1_555
Sb0 Se8 2.776475 1_455
Sb0 Se8 2.776475 1_555
Sb0 Se4 2.867742 1_554
Sb0 Se4 2.867742 1_454
Sb0 Se3 2.986430 1_555
Se0 Sr2 3.187798 1_555
Se0 Sr2 3.187798 1_655
Se1 Sr3 3.197691 1_555
Se1 Sr3 3.197691 1_655
Se2 Sr0 3.208415 1_555
Se2 Sr0 3.208415 1_455
Se3 Sr1 3.169722 1_455
Se3 Sr1 3.169722 1_555
Se4 Sr2 3.117651 1_655
Se4 Sr2 3.117651 1_555
Se5 Sr3 3.159187 1_555
Se5 Sr3 3.159187 1_655
Se6 Sr0 3.195382 1_555
Se6 Sr0 3.195382 1_455
Se7 Sr1 3.153323 1_455
Se7 Sr1 3.153323 1_555
Se8 Sr0 3.346259 1_555
Se8 Sr1 3.368019 1_555
Se9 Sr0 3.244091 1_555
Se9 Sr1 3.400454 1_565
Se10 Sr3 3.272261 1_555
Se10 Sr2 3.475983 1_555
Se11 Sr2 3.222983 1_555
Se11 Sr3 3.333321 1_545
Se12 Sr2 3.244018 1_555
Se12 Sr2 3.244018 1_655
Se13 Sr3 3.209484 1_555
Se13 Sr3 3.209484 1_655
Se14 Sr0 3.217430 1_455
Se14 Sr0 3.217430 1_555
Se15 Sr1 3.217977 1_455
Se15 Sr1 3.217977 1_555
