# generated using pymatgen
data_Hf12Ga5Pd7N4
_symmetry_space_group_name_H-M   'P 1'
_cell_length_a   8.50579293
_cell_length_b   8.48341009
_cell_length_c   8.50579165
_cell_angle_alpha   59.91267291
_cell_angle_beta   59.99995942
_cell_angle_gamma   59.91266243
_symmetry_Int_Tables_number   1
_chemical_formula_structural   Hf12Ga5Pd7N4
_chemical_formula_sum   'Hf12 Ga5 Pd7 N4'
_cell_volume   433.42138230
_cell_formula_units_Z   1
loop_
 _symmetry_equiv_pos_site_id
 _symmetry_equiv_pos_as_xyz
  1  'x, y, z'
loop_
 _atom_site_type_symbol
 _atom_site_label
 _atom_site_symmetry_multiplicity
 _atom_site_fract_x
 _atom_site_fract_y
 _atom_site_fract_z
 _atom_site_occupancy
  Hf  Hf0  1  0.81060236  0.19156841  0.18722387  1
  Hf  Hf1  1  0.18802525  0.81171127  0.18802525  1
  Hf  Hf2  1  0.81223924  0.81171127  0.18802525  1
  Hf  Hf3  1  0.18802525  0.81171227  0.81223924  1
  Hf  Hf4  1  0.81060336  0.19156841  0.81060336  1
  Hf  Hf5  1  0.18722387  0.19156741  0.81060336  1
  Hf  Hf6  1  0.44019145  0.05846513  0.06115297  1
  Hf  Hf7  1  0.06365120  0.43637472  0.06365120  1
  Hf  Hf8  1  0.43632288  0.43637472  0.06365120  1
  Hf  Hf9  1  0.06365120  0.43637372  0.43632288  1
  Hf  Hf10  1  0.44019045  0.05846513  0.44019145  1
  Hf  Hf11  1  0.06115297  0.05846513  0.44019145  1
  Ga  Ga0  1  0.83162517  0.50512248  0.83162517  1
  Ga  Ga1  1  0.62158077  0.62493772  0.13190074  1
  Ga  Ga2  1  0.62158077  0.62493872  0.62158077  1
  Ga  Ga3  1  0.13190074  0.62493772  0.62158077  1
  Ga  Ga4  1  0.62497667  0.12507100  0.62497667  1
  Pd  Pd0  1  0.41145928  0.40996051  0.76711994  1
  Pd  Pd1  1  0.41146028  0.40996051  0.41146028  1
  Pd  Pd2  1  0.76711994  0.40995951  0.41146028  1
  Pd  Pd3  1  0.41174500  0.76476299  0.41174500  1
  Pd  Pd4  1  0.83852622  0.83647303  0.48647353  1
  Pd  Pd5  1  0.83852722  0.83647403  0.83852722  1
  Pd  Pd6  1  0.48647353  0.83647303  0.83852622  1
  N  N0  1  0.12589019  0.12362120  0.62459943  1
  N  N1  1  0.12589019  0.12362120  0.12588919  1
  N  N2  1  0.62459843  0.12362120  0.12589019  1
  N  N3  1  0.12476315  0.62570956  0.12476315  1
loop_
_geom_bond_atom_site_label_1
_geom_bond_atom_site_label_2
_geom_bond_distance
_geom_bond_site_symmetry_2
Hf0 N2 2.269088 1_555
Hf0 N1 2.269109 1_655
Hf0 Pd4 2.794492 1_545
Hf0 Pd1 3.059017 1_555
Hf0 Pd2 3.059029 1_555
Hf1 N1 2.243943 1_565
Hf1 N3 2.249695 1_555
Hf1 Pd6 2.772670 1_554
Hf1 Pd4 2.772670 1_455
Hf1 Pd1 3.076165 1_555
Hf1 Pd3 3.082545 1_555
Hf2 N2 2.243946 1_565
Hf2 N3 2.249681 1_655
Hf2 Pd4 2.772662 1_555
Hf2 Pd5 2.772663 1_554
Hf2 Pd2 3.076172 1_555
Hf2 Pd3 3.082566 1_555
Hf3 N0 2.243938 1_565
Hf3 N3 2.249683 1_556
Hf3 Pd6 2.772657 1_555
Hf3 Pd5 2.772667 1_455
Hf3 Pd0 3.076172 1_555
Hf3 Pd3 3.082568 1_555
Hf4 N0 2.269098 1_655
Hf4 N2 2.269100 1_556
Hf4 Pd5 2.794477 1_545
Hf4 Pd2 3.059017 1_555
Hf4 Pd0 3.059024 1_555
Hf5 N0 2.269081 1_555
Hf5 N1 2.269096 1_556
Hf5 Pd6 2.794487 1_545
Hf5 Pd1 3.059025 1_555
Hf5 Pd0 3.059032 1_555
Hf6 N2 2.259903 1_555
Hf6 N1 2.259912 1_555
Hf6 Pd3 2.755451 1_545
Hf6 Pd0 2.758531 1_554
Hf6 Pd5 3.061715 1_544
Hf6 Pd6 3.061727 1_544
Hf7 N1 2.250275 1_555
Hf7 N3 2.250494 1_555
Hf7 Pd0 2.757566 1_554
Hf7 Pd2 2.757571 1_455
Hf7 Pd5 3.080184 1_454
Hf8 N2 2.250273 1_555
Hf8 N3 2.250499 1_555
Hf8 Pd0 2.757573 1_554
Hf8 Pd1 2.757576 1_555
Hf8 Pd6 3.080184 1_554
Hf9 N0 2.250269 1_555
Hf9 N3 2.250501 1_555
Hf9 Pd2 2.757568 1_455
Hf9 Pd1 2.757580 1_555
Hf9 Pd4 3.080190 1_455
Hf10 N0 2.259903 1_555
Hf10 N2 2.259909 1_555
Hf10 Pd3 2.755461 1_545
Hf10 Pd1 2.758535 1_555
Hf10 Pd6 3.061715 1_545
Hf10 Pd4 3.061719 1_545
Hf11 N0 2.259911 1_555
Hf11 N1 2.259918 1_555
Hf11 Pd3 2.755450 1_545
Hf11 Pd2 2.758526 1_455
Hf11 Pd5 3.061715 1_445
Hf11 Pd4 3.061727 1_445
Ga0 Ga2 2.639579 1_555
Ga0 Ga1 2.639594 1_556
Ga0 Ga3 2.639595 1_655
Ga0 Hf4 2.850496 1_555
Ga0 Hf0 2.850499 1_556
Ga0 Hf5 2.850503 1_655
Ga0 Pd6 2.871028 1_555
Ga0 Pd4 2.871028 1_555
Ga0 Pd5 2.871051 1_555
Ga0 Hf8 3.117182 1_556
Ga0 Hf9 3.117185 1_655
Ga0 Hf7 3.117198 1_656
Ga1 Pd3 2.591961 1_555
Ga1 Pd1 2.616238 1_555
Ga1 Pd2 2.616244 1_555
Ga1 Pd6 2.660459 1_554
Ga1 Pd5 2.660460 1_554
Ga1 Hf6 3.047757 1_565
Ga1 Hf0 3.068899 1_555
Ga1 Hf1 3.078510 1_555
Ga1 Hf2 3.078519 1_555
Ga1 Hf7 3.122836 1_655
Ga1 Hf8 3.122837 1_555
Ga2 Pd3 2.591978 1_555
Ga2 Pd2 2.616250 1_555
Ga2 Pd0 2.616251 1_555
Ga2 Pd6 2.660444 1_555
Ga2 Pd4 2.660445 1_555
Ga2 Hf10 3.047752 1_565
Ga2 Hf4 3.068903 1_555
Ga2 Hf2 3.078510 1_555
Ga2 Hf3 3.078511 1_555
Ga2 Hf8 3.122836 1_556
Ga2 Hf9 3.122838 1_655
Ga3 Pd3 2.591962 1_555
Ga3 Pd0 2.616237 1_555
Ga3 Pd1 2.616238 1_555
Ga3 Pd4 2.660459 1_455
Ga3 Pd5 2.660460 1_455
Ga3 Hf11 3.047758 1_565
Ga3 Hf5 3.068906 1_555
Ga3 Hf1 3.078510 1_555
Ga3 Hf3 3.078526 1_555
Ga3 Hf7 3.122836 1_556
Ga3 Hf9 3.122844 1_555
Ga4 Pd2 2.633302 1_555
Ga4 Pd0 2.633308 1_555
Ga4 Pd1 2.633309 1_555
Ga4 Pd5 2.640934 1_545
Ga4 Pd4 2.640935 1_545
Ga4 Pd6 2.640936 1_545
Ga4 Hf6 3.084041 1_556
Ga4 Hf11 3.084041 1_655
Ga4 Hf10 3.084050 1_555
Ga4 Hf4 3.095663 1_555
Ga4 Hf0 3.095676 1_555
Ga4 Hf5 3.095678 1_555
