# generated using pymatgen
data_Nb2Fe7(Re7B3)2
_symmetry_space_group_name_H-M   'P 1'
_cell_length_a   7.99206279
_cell_length_b   7.99206279
_cell_length_c   7.99206304
_cell_angle_alpha   59.95552234
_cell_angle_beta   59.95551978
_cell_angle_gamma   59.95551911
_symmetry_Int_Tables_number   1
_chemical_formula_structural   Nb2Fe7(Re7B3)2
_chemical_formula_sum   'Nb2 Fe7 Re14 B6'
_cell_volume   360.59804190
_cell_formula_units_Z   1
loop_
 _symmetry_equiv_pos_site_id
 _symmetry_equiv_pos_as_xyz
  1  'x, y, z'
loop_
 _atom_site_type_symbol
 _atom_site_label
 _atom_site_symmetry_multiplicity
 _atom_site_fract_x
 _atom_site_fract_y
 _atom_site_fract_z
 _atom_site_occupancy
  Nb  Nb0  1  0.24958186  0.24958186  0.24958186  1
  Nb  Nb1  1  0.75041814  0.75041814  0.75041814  1
  Fe  Fe0  1  0.38252720  0.38252720  0.84380467  1
  Fe  Fe1  1  0.38252720  0.84380467  0.38252720  1
  Fe  Fe2  1  0.61747280  0.61747280  0.15619533  1
  Fe  Fe3  1  0.61747280  0.15619533  0.61747280  1
  Fe  Fe4  1  0.84380467  0.38252720  0.38252720  1
  Fe  Fe5  1  0.15619533  0.61747280  0.61747280  1
  Fe  Fe6  1  0.00000000  0.00000000  0.00000000  1
  Re  Re0  1  0.34110872  0.99960844  0.99960844  1
  Re  Re1  1  0.65889128  0.00039156  0.00039156  1
  Re  Re2  1  0.00000000  0.33878641  0.66121359  1
  Re  Re3  1  1.00000000  0.66121359  0.33878641  1
  Re  Re4  1  0.99960844  0.34110872  0.99960844  1
  Re  Re5  1  0.66121359  1.00000000  0.33878641  1
  Re  Re6  1  0.00039156  0.65889128  0.00039156  1
  Re  Re7  1  0.33878641  0.00000000  0.66121359  1
  Re  Re8  1  0.99960844  0.99960844  0.34110872  1
  Re  Re9  1  0.00039156  0.00039156  0.65889128  1
  Re  Re10  1  0.66121359  0.33878641  1.00000000  1
  Re  Re11  1  0.33878641  0.66121359  0.00000000  1
  Re  Re12  1  0.38354878  0.38354878  0.38354878  1
  Re  Re13  1  0.61645122  0.61645122  0.61645122  1
  B  B0  1  0.72517655  0.27649031  0.27649031  1
  B  B1  1  0.27482345  0.72350969  0.72350969  1
  B  B2  1  0.27649031  0.72517655  0.27649031  1
  B  B3  1  0.72350969  0.27482345  0.72350969  1
  B  B4  1  0.27649031  0.27649031  0.72517655  1
  B  B5  1  0.72350969  0.72350969  0.27482345  1
loop_
_geom_bond_atom_site_label_1
_geom_bond_atom_site_label_2
_geom_bond_distance
_geom_bond_site_symmetry_2
Nb0 Re12 2.623481 1_555
Nb1 Re13 2.623481 1_555
Fe0 Nb0 2.646627 1_556
Fe1 Nb0 2.646626 1_565
Fe2 Nb1 2.646627 1_554
Fe3 Nb1 2.646626 1_545
Fe4 Nb0 2.646626 1_655
Fe5 Nb1 2.646626 1_455
Fe6 Re11 2.705782 1_545
Fe6 Re10 2.705782 1_454
Fe6 Re7 2.705782 1_554
Fe6 Re5 2.705782 1_445
Fe6 Re3 2.705782 1_445
Fe6 Re2 2.705782 1_554
Fe6 Re0 2.723032 1_544
Fe6 Re1 2.723032 1_455
Fe6 Re4 2.723032 1_454
Fe6 Re6 2.723032 1_545
Fe6 Re9 2.723032 1_554
Fe6 Re8 2.723032 1_445
B0 Fe4 2.159498 1_555
B0 Fe2 2.224402 1_555
B0 Fe3 2.224402 1_555
B0 Re12 2.230099 1_555
B0 Re8 2.259169 1_545
B0 Re4 2.259169 1_554
B0 Re5 2.273042 1_545
B0 Re10 2.273042 1_554
B1 Fe5 2.159498 1_555
B1 Fe0 2.224402 1_555
B1 Fe1 2.224402 1_555
B1 Re13 2.230099 1_555
B1 Re9 2.259169 1_565
B1 Re6 2.259169 1_556
B1 Re7 2.273042 1_565
B1 Re11 2.273042 1_556
B2 Fe1 2.159498 1_555
B2 Fe2 2.224402 1_555
B2 Fe5 2.224402 1_555
B2 Re12 2.230099 1_555
B2 Re8 2.259169 1_455
B2 Re0 2.259170 1_554
B2 Re3 2.273042 1_455
B2 Re11 2.273042 1_555
B3 Fe3 2.159498 1_555
B3 Fe0 2.224402 1_555
B3 Fe4 2.224402 1_555
B3 Re13 2.230099 1_555
B3 Re9 2.259169 1_655
B3 Re1 2.259170 1_556
B3 Re2 2.273042 1_655
B3 Re10 2.273042 1_555
B4 Fe0 2.159498 1_555
B4 Fe3 2.224402 1_555
B4 Fe5 2.224402 1_555
B4 Re12 2.230099 1_555
B4 Re4 2.259169 1_455
B4 Re0 2.259170 1_545
B4 Re7 2.273042 1_555
B4 Re2 2.273042 1_555
B5 Fe2 2.159498 1_555
B5 Fe1 2.224402 1_555
B5 Fe4 2.224402 1_555
B5 Re13 2.230099 1_555
B5 Re6 2.259169 1_655
B5 Re1 2.259170 1_565
B5 Re5 2.273042 1_555
B5 Re3 2.273042 1_555
