# generated using pymatgen
data_Zr10Sn3Bi3B2
_symmetry_space_group_name_H-M   'P 1'
_cell_length_a   8.61258244
_cell_length_b   8.61258263
_cell_length_c   5.84642152
_cell_angle_alpha   90.00000000
_cell_angle_beta   90.00000000
_cell_angle_gamma   120.00000308
_symmetry_Int_Tables_number   1
_chemical_formula_structural   Zr10Sn3Bi3B2
_chemical_formula_sum   'Zr10 Sn3 Bi3 B2'
_cell_volume   375.56709604
_cell_formula_units_Z   1
loop_
 _symmetry_equiv_pos_site_id
 _symmetry_equiv_pos_as_xyz
  1  'x, y, z'
loop_
 _atom_site_type_symbol
 _atom_site_label
 _atom_site_symmetry_multiplicity
 _atom_site_fract_x
 _atom_site_fract_y
 _atom_site_fract_z
 _atom_site_occupancy
  Zr  Zr0  1  0.66666700  0.33333300  0.00457008  1
  Zr  Zr1  1  0.33333300  0.66666700  0.00457008  1
  Zr  Zr2  1  0.33333300  0.66666700  0.49542992  1
  Zr  Zr3  1  0.66666700  0.33333300  0.49542992  1
  Zr  Zr4  1  0.77241875  0.77241875  0.75000000  1
  Zr  Zr5  1  0.22758125  1.00000000  0.75000000  1
  Zr  Zr6  1  1.00000000  0.22758125  0.75000000  1
  Zr  Zr7  1  0.22986484  0.22986484  0.25000000  1
  Zr  Zr8  1  0.77013516  0.00000000  0.25000000  1
  Zr  Zr9  1  0.00000000  0.77013516  0.25000000  1
  Sn  Sn0  1  0.60260304  0.60260304  0.25000000  1
  Sn  Sn1  1  0.39739696  1.00000000  0.25000000  1
  Sn  Sn2  1  1.00000000  0.39739696  0.25000000  1
  Bi  Bi0  1  0.40196414  0.40196414  0.75000000  1
  Bi  Bi1  1  0.59803586  0.00000000  0.75000000  1
  Bi  Bi2  1  0.00000000  0.59803586  0.75000000  1
  B  B0  1  0.00000000  0.00000000  0.00076477  1
  B  B1  1  0.00000000  0.00000000  0.49923523  1
loop_
_geom_bond_atom_site_label_1
_geom_bond_atom_site_label_2
_geom_bond_distance
_geom_bond_site_symmetry_2
Sn0 Zr9 2.976200 1_655
Sn0 Zr8 2.976200 1_565
Sn0 Zr2 3.003530 1_555
Sn0 Zr1 3.003530 1_555
Sn0 Zr3 3.003530 1_555
Sn0 Zr0 3.003530 1_555
Sn0 Zr7 3.210238 1_555
Sn0 Zr4 3.268672 1_555
Sn0 Zr4 3.268672 1_554
Sn1 Zr9 2.976200 1_555
Sn1 Zr7 2.976200 1_565
Sn1 Zr2 3.003522 1_555
Sn1 Zr1 3.003522 1_555
Sn1 Zr3 3.003525 1_565
Sn1 Zr0 3.003525 1_565
Sn1 Zr8 3.210239 1_565
Sn1 Zr5 3.268672 1_555
Sn1 Zr5 3.268672 1_554
Sn2 Zr8 2.976200 1_555
Sn2 Zr7 2.976200 1_655
Sn2 Zr3 3.003522 1_555
Sn2 Zr0 3.003522 1_555
Sn2 Zr2 3.003525 1_655
Sn2 Zr1 3.003525 1_655
Sn2 Zr9 3.210239 1_655
Sn2 Zr6 3.268672 1_554
Sn2 Zr6 3.268672 1_555
Bi0 Zr6 3.006876 1_455
Bi0 Zr5 3.006876 1_545
Bi0 Zr0 3.018183 1_556
Bi0 Zr3 3.018183 1_555
Bi0 Zr1 3.018183 1_556
Bi0 Zr2 3.018183 1_555
Bi0 Zr4 3.190571 1_555
Bi0 Zr7 3.277520 1_555
Bi0 Zr7 3.277520 1_556
Bi1 Zr6 3.006875 1_555
Bi1 Zr4 3.006876 1_545
Bi1 Zr0 3.018176 1_556
Bi1 Zr3 3.018176 1_555
Bi1 Zr1 3.018178 1_546
Bi1 Zr2 3.018178 1_545
Bi1 Zr5 3.190571 1_545
Bi1 Zr8 3.277520 1_556
Bi1 Zr8 3.277520 1_555
Bi2 Zr5 3.006876 1_555
Bi2 Zr4 3.006876 1_455
Bi2 Zr1 3.018175 1_556
Bi2 Zr2 3.018175 1_555
Bi2 Zr0 3.018178 1_456
Bi2 Zr3 3.018178 1_455
Bi2 Zr6 3.190571 1_455
Bi2 Zr9 3.277520 1_555
Bi2 Zr9 3.277520 1_556
B0 Zr4 2.447698 1_444
B0 Zr5 2.447698 1_544
B0 Zr6 2.447698 1_454
B0 Zr7 2.458164 1_555
B0 Zr8 2.458164 1_455
B0 Zr9 2.458164 1_545
B1 Zr4 2.447698 1_445
B1 Zr5 2.447698 1_545
B1 Zr6 2.447698 1_455
B1 Zr7 2.458164 1_555
B1 Zr8 2.458164 1_455
B1 Zr9 2.458164 1_545
