# generated using pymatgen
data_CsTaH5
_symmetry_space_group_name_H-M   'P 1'
_cell_length_a   11.57272620
_cell_length_b   7.64399239
_cell_length_c   5.13652740
_cell_angle_alpha   90.00000000
_cell_angle_beta   90.00000000
_cell_angle_gamma   90.00000000
_symmetry_Int_Tables_number   1
_chemical_formula_structural   CsTaH5
_chemical_formula_sum   'Cs4 Ta4 H20'
_cell_volume   454.38661841
_cell_formula_units_Z   4
loop_
 _symmetry_equiv_pos_site_id
 _symmetry_equiv_pos_as_xyz
  1  'x, y, z'
loop_
 _atom_site_type_symbol
 _atom_site_label
 _atom_site_symmetry_multiplicity
 _atom_site_fract_x
 _atom_site_fract_y
 _atom_site_fract_z
 _atom_site_occupancy
  Cs  Cs0  1  0.66942360  0.06811578  0.33026740  1
  Cs  Cs1  1  0.16942360  0.43188322  0.33026740  1
  Cs  Cs2  1  0.83057640  0.56811578  0.83026740  1
  Cs  Cs3  1  0.33057640  0.93188422  0.83026740  1
  Ta  Ta0  1  0.51806317  0.55997125  0.30773069  1
  Ta  Ta1  1  0.01806317  0.94002875  0.30773069  1
  Ta  Ta2  1  0.98193683  0.05997025  0.80772969  1
  Ta  Ta3  1  0.48193683  0.44002975  0.80772969  1
  H  H0  1  0.34055450  0.33640273  0.81453761  1
  H  H1  1  0.84055450  0.16359727  0.81453761  1
  H  H2  1  0.97851581  0.70938820  0.31308931  1
  H  H3  1  0.47851581  0.79061080  0.31308931  1
  H  H4  1  0.59414239  0.40177370  0.07550078  1
  H  H5  1  0.09414139  0.09822630  0.07550078  1
  H  H6  1  0.38975219  0.54625487  0.07244874  1
  H  H7  1  0.88975219  0.95374613  0.07244874  1
  H  H8  1  0.95342734  0.14993445  0.45342147  1
  H  H9  1  0.45342734  0.35006655  0.45342147  1
  H  H10  1  0.15944550  0.83640273  0.31453661  1
  H  H11  1  0.65944550  0.66359627  0.31453661  1
  H  H12  1  0.52148519  0.20938820  0.81309131  1
  H  H13  1  0.02148519  0.29061080  0.81309131  1
  H  H14  1  0.90585861  0.90177270  0.57550078  1
  H  H15  1  0.40585861  0.59822730  0.57550078  1
  H  H16  1  0.11024781  0.04625387  0.57244874  1
  H  H17  1  0.61024781  0.45374613  0.57244874  1
  H  H18  1  0.54657266  0.64993445  0.95342347  1
  H  H19  1  0.04657266  0.85006655  0.95342347  1
loop_
_geom_bond_atom_site_label_1
_geom_bond_atom_site_label_2
_geom_bond_distance
_geom_bond_site_symmetry_2
Cs0 H4 2.996068 1_555
Cs0 H7 3.003255 1_545
Cs0 H3 3.064079 1_545
Cs0 H11 3.095354 1_545
Cs0 H12 3.201228 1_555
Cs0 H1 3.262265 1_555
Cs0 H14 3.269597 1_545
Cs0 H17 3.271958 1_555
Cs0 H12 3.339791 1_554
Cs0 H9 3.360581 1_555
Cs0 H1 3.387093 1_554
Cs0 H8 3.404952 1_555
Cs1 H5 2.996064 1_555
Cs1 H6 3.003259 1_555
Cs1 H2 3.064079 1_455
Cs1 H10 3.095354 1_555
Cs1 H13 3.201228 1_555
Cs1 H0 3.262264 1_555
Cs1 H15 3.269600 1_555
Cs1 H16 3.271952 1_555
Cs1 H13 3.339791 1_554
Cs1 H8 3.360571 1_455
Cs1 H0 3.387092 1_554
Cs1 H9 3.404949 1_555
Cs2 H14 2.996064 1_555
Cs2 H17 3.003255 1_555
Cs2 H13 3.064087 1_655
Cs2 H1 3.095346 1_555
Cs2 H2 3.201226 1_556
Cs2 H11 3.262260 1_556
Cs2 H4 3.269585 1_556
Cs2 H7 3.271958 1_556
Cs2 H2 3.339805 1_555
Cs2 H19 3.360583 1_655
Cs2 H11 3.387096 1_555
Cs2 H18 3.404954 1_555
Cs3 H15 2.996064 1_555
Cs3 H16 3.003255 1_565
Cs3 H12 3.064082 1_565
Cs3 H0 3.095346 1_565
Cs3 H3 3.201229 1_556
Cs3 H10 3.262261 1_556
Cs3 H5 3.269594 1_566
Cs3 H6 3.271952 1_556
Cs3 H3 3.339808 1_555
Cs3 H18 3.360578 1_555
Cs3 H10 3.387097 1_555
Cs3 H19 3.404952 1_555
H0 Ta3 1.818176 1_555
H1 Ta2 1.818176 1_555
H2 Ta1 1.821659 1_655
H3 Ta0 1.821651 1_555
H4 Ta0 1.913216 1_555
H4 Ta3 1.914012 1_554
H5 Ta1 1.913211 1_545
H5 Ta2 1.914004 1_454
H6 Ta3 1.909535 1_554
H6 Ta0 1.917419 1_555
H7 Ta2 1.909531 1_564
H7 Ta1 1.917419 1_655
H8 Ta1 1.921983 1_645
H8 Ta2 1.973285 1_555
H9 Ta0 1.921977 1_555
H9 Ta3 1.973282 1_555
H10 Ta1 1.818173 1_555
H11 Ta0 1.818169 1_555
H12 Ta3 1.821669 1_555
H13 Ta2 1.821662 1_455
H14 Ta2 1.913208 1_565
H14 Ta1 1.914001 1_655
H15 Ta3 1.913208 1_555
H15 Ta0 1.914001 1_555
H16 Ta1 1.909531 1_545
H16 Ta2 1.917415 1_455
H17 Ta0 1.909531 1_555
H17 Ta3 1.917415 1_555
H18 Ta3 1.921983 1_555
H18 Ta0 1.973278 1_556
H19 Ta2 1.921976 1_465
H19 Ta1 1.973275 1_556
