# generated using pymatgen
data_CdAg(NO3)4
_symmetry_space_group_name_H-M   'P 1'
_cell_length_a   7.75247914
_cell_length_b   7.25878512
_cell_length_c   8.18964487
_cell_angle_alpha   90.00000000
_cell_angle_beta   87.73255186
_cell_angle_gamma   90.00000000
_symmetry_Int_Tables_number   1
_chemical_formula_structural   CdAg(NO3)4
_chemical_formula_sum   'Cd2 Ag2 N8 O24'
_cell_volume   460.49979926
_cell_formula_units_Z   2
loop_
 _symmetry_equiv_pos_site_id
 _symmetry_equiv_pos_as_xyz
  1  'x, y, z'
loop_
 _atom_site_type_symbol
 _atom_site_label
 _atom_site_symmetry_multiplicity
 _atom_site_fract_x
 _atom_site_fract_y
 _atom_site_fract_z
 _atom_site_occupancy
  Cd  Cd0  1  0.00000000  0.50000000  0.00000000  1
  Cd  Cd1  1  0.00000000  0.00000000  0.50000000  1
  Ag  Ag0  1  0.50000000  0.50000000  0.50000000  1
  Ag  Ag1  1  0.50000000  0.00000000  0.00000000  1
  N  N0  1  0.67547858  0.17281420  0.34740559  1
  N  N1  1  0.67547858  0.32718580  0.84740559  1
  N  N2  1  0.83006914  0.83738713  0.82482380  1
  N  N3  1  0.83006914  0.66261287  0.32482380  1
  N  N4  1  0.16993086  0.16261287  0.17517620  1
  N  N5  1  0.16993086  0.33738713  0.67517620  1
  N  N6  1  0.32452142  0.67281420  0.15259441  1
  N  N7  1  0.32452142  0.82718580  0.65259441  1
  O  O0  1  0.54399764  0.22431768  0.82806858  1
  O  O1  1  0.54399764  0.27568232  0.32806858  1
  O  O2  1  0.70238672  0.45775142  0.75326316  1
  O  O3  1  0.70238672  0.04224858  0.25326316  1
  O  O4  1  0.73220593  0.67945108  0.45128658  1
  O  O5  1  0.73220593  0.82054892  0.95128658  1
  O  O6  1  0.77354320  0.29144276  0.96261478  1
  O  O7  1  0.77354320  0.20855724  0.46261478  1
  O  O8  1  0.79727519  0.95267216  0.71704846  1
  O  O9  1  0.79727519  0.54732784  0.21704846  1
  O  O10  1  0.96119498  0.73611328  0.80963949  1
  O  O11  1  0.96119498  0.76388672  0.30963949  1
  O  O12  1  0.03880502  0.23611328  0.69036051  1
  O  O13  1  0.03880502  0.26388672  0.19036051  1
  O  O14  1  0.20272481  0.45267216  0.78295154  1
  O  O15  1  0.20272481  0.04732784  0.28295154  1
  O  O16  1  0.22645680  0.70855724  0.03738522  1
  O  O17  1  0.22645680  0.79144276  0.53738522  1
  O  O18  1  0.26779407  0.17945108  0.04871342  1
  O  O19  1  0.26779407  0.32054892  0.54871342  1
  O  O20  1  0.29761328  0.54224858  0.24673684  1
  O  O21  1  0.29761328  0.95775142  0.74673684  1
  O  O22  1  0.45600236  0.72431768  0.67193142  1
  O  O23  1  0.45600236  0.77568232  0.17193142  1
loop_
_geom_bond_atom_site_label_1
_geom_bond_atom_site_label_2
_geom_bond_distance
_geom_bond_site_symmetry_2
Cd0 O13 2.344245 1_555
Cd0 O10 2.344245 1_454
Cd0 O16 2.347386 1_555
Cd0 O6 2.347386 1_454
Cd0 O9 2.350880 1_455
Cd0 O14 2.350880 1_554
Cd1 O12 2.344245 1_555
Cd1 O11 2.344245 1_445
Cd1 O17 2.347386 1_545
Cd1 O7 2.347386 1_455
Cd1 O15 2.350880 1_555
Cd1 O8 2.350880 1_445
Ag0 O22 2.170770 1_555
Ag0 O1 2.170770 1_555
Ag0 O4 2.244929 1_555
Ag0 O19 2.244929 1_555
Ag0 O2 2.667462 1_555
Ag0 O20 2.667462 1_555
Ag1 O0 2.170770 1_554
Ag1 O23 2.170770 1_545
Ag1 O5 2.244929 1_544
Ag1 O18 2.244929 1_555
Ag1 O3 2.667462 1_555
Ag1 O21 2.667462 1_544
N0 O3 1.234279 1_555
N0 O7 1.261856 1_555
N0 O1 1.278432 1_555
N1 O2 1.234279 1_555
N1 O6 1.261856 1_555
N1 O0 1.278432 1_555
N2 O8 1.249692 1_555
N2 O10 1.256680 1_555
N2 O5 1.265309 1_555
N3 O9 1.249692 1_555
N3 O11 1.256680 1_555
N3 O4 1.265309 1_555
N4 O15 1.249692 1_555
N4 O13 1.256680 1_555
N4 O18 1.265309 1_555
N5 O14 1.249692 1_555
N5 O12 1.256680 1_555
N5 O19 1.265309 1_555
N6 O20 1.234279 1_555
N6 O16 1.261856 1_555
N6 O23 1.278432 1_555
N7 O21 1.234279 1_555
N7 O17 1.261856 1_555
N7 O22 1.278432 1_555
