# generated using pymatgen
data_Rb2Li2SnS4
_symmetry_space_group_name_H-M   'P 1'
_cell_length_a   9.41496094
_cell_length_b   9.41496110
_cell_length_c   9.41496166
_cell_angle_alpha   144.01389041
_cell_angle_beta   105.70883552
_cell_angle_gamma   85.41670070
_symmetry_Int_Tables_number   1
_chemical_formula_structural   Rb2Li2SnS4
_chemical_formula_sum   'Rb4 Li4 Sn2 S8'
_cell_volume   457.54932150
_cell_formula_units_Z   2
loop_
 _symmetry_equiv_pos_site_id
 _symmetry_equiv_pos_as_xyz
  1  'x, y, z'
loop_
 _atom_site_type_symbol
 _atom_site_label
 _atom_site_symmetry_multiplicity
 _atom_site_fract_x
 _atom_site_fract_y
 _atom_site_fract_z
 _atom_site_occupancy
  Rb  Rb0  1  0.62061238  0.77110538  0.39171675  1
  Rb  Rb1  1  0.87938762  0.27110538  0.15049300  1
  Rb  Rb2  1  0.12061238  0.72889462  0.84950700  1
  Rb  Rb3  1  0.37938762  0.22889462  0.60828325  1
  Li  Li0  1  0.02550835  0.75000000  0.27550835  1
  Li  Li1  1  0.47449165  0.75000000  0.72449165  1
  Li  Li2  1  0.97449165  0.25000000  0.72449165  1
  Li  Li3  1  0.52550835  0.25000000  0.27550835  1
  Sn  Sn0  1  0.75000000  0.75000000  0.00000000  1
  Sn  Sn1  1  0.25000000  0.25000000  0.00000000  1
  S  S0  1  0.72322636  0.63634349  0.65416772  1
  S  S1  1  0.77677364  0.43094136  0.91311713  1
  S  S2  1  0.51782423  0.86365651  0.08688287  1
  S  S3  1  0.98217577  0.06905864  0.34583228  1
  S  S4  1  0.27677364  0.36365651  0.34583228  1
  S  S5  1  0.22322636  0.56905864  0.08688287  1
  S  S6  1  0.01782423  0.93094136  0.65416772  1
  S  S7  1  0.48217577  0.13634349  0.91311713  1
loop_
_geom_bond_atom_site_label_1
_geom_bond_atom_site_label_2
_geom_bond_distance
_geom_bond_site_symmetry_2
Rb0 S1 3.493327 1_554
Rb0 S7 3.493335 1_554
Rb0 S6 3.497686 1_655
Rb0 S0 3.497694 1_555
Rb0 S2 3.512988 1_555
Rb0 S5 3.512996 1_555
Rb0 S1 3.612713 1_565
Rb0 S7 3.612721 1_565
Rb1 S0 3.493333 1_544
Rb1 S6 3.493333 1_644
Rb1 S7 3.497685 1_554
Rb1 S1 3.497685 1_554
Rb1 S4 3.512997 1_655
Rb1 S3 3.512997 1_555
Rb1 S6 3.612714 1_655
Rb1 S0 3.612714 1_555
Rb2 S4 3.493333 1_566
Rb2 S3 3.493333 1_466
Rb2 S2 3.497685 1_556
Rb2 S5 3.497685 1_556
Rb2 S0 3.512997 1_455
Rb2 S6 3.512997 1_555
Rb2 S3 3.612714 1_455
Rb2 S4 3.612714 1_555
Rb3 S5 3.493327 1_556
Rb3 S2 3.493335 1_556
Rb3 S3 3.497686 1_455
Rb3 S4 3.497694 1_555
Rb3 S7 3.512988 1_555
Rb3 S1 3.512996 1_555
Rb3 S5 3.612713 1_545
Rb3 S2 3.612721 1_545
Li0 S5 2.430734 1_555
Li0 S6 2.430734 1_555
Li0 S3 2.521930 1_465
Li0 S1 2.521930 1_454
Li1 S7 2.430734 1_565
Li1 S4 2.430734 1_555
Li1 S0 2.521930 1_555
Li1 S2 2.521930 1_556
Li2 S1 2.430734 1_555
Li2 S3 2.430734 1_555
Li2 S6 2.521930 1_645
Li2 S5 2.521930 1_656
Li3 S2 2.430734 1_545
Li3 S0 2.430734 1_555
Li3 S4 2.521930 1_555
Li3 S7 2.521930 1_554
S0 Sn0 2.402150 1_556
S1 Sn0 2.402149 1_556
S2 Sn0 2.402149 1_555
S3 Sn0 2.402149 1_545
S4 Sn1 2.402150 1_555
S5 Sn1 2.402149 1_555
S6 Sn1 2.402149 1_566
S7 Sn1 2.402149 1_556
