# generated using pymatgen
data_Lu12Cd2Fe2Tc
_symmetry_space_group_name_H-M   'P 1'
_cell_length_a   8.14769331
_cell_length_b   8.14769397
_cell_length_c   8.14769344
_cell_angle_alpha   108.46043556
_cell_angle_beta   108.46042609
_cell_angle_gamma   111.51227831
_symmetry_Int_Tables_number   1
_chemical_formula_structural   Lu12Cd2Fe2Tc
_chemical_formula_sum   'Lu12 Cd2 Fe2 Tc1'
_cell_volume   415.97479239
_cell_formula_units_Z   1
loop_
 _symmetry_equiv_pos_site_id
 _symmetry_equiv_pos_as_xyz
  1  'x, y, z'
loop_
 _atom_site_type_symbol
 _atom_site_label
 _atom_site_symmetry_multiplicity
 _atom_site_fract_x
 _atom_site_fract_y
 _atom_site_fract_z
 _atom_site_occupancy
  Lu  Lu0  1  0.30985306  0.30985306  0.61970713  1
  Lu  Lu1  1  0.69014694  0.69014694  0.38029287  1
  Lu  Lu2  1  0.69014694  0.30985306  0.00000000  1
  Lu  Lu3  1  0.30985306  0.69014694  1.00000000  1
  Lu  Lu4  1  0.19090257  0.43118343  0.24028085  1
  Lu  Lu5  1  0.80909743  0.56881657  0.75971915  1
  Lu  Lu6  1  0.19090257  0.95062072  0.75971915  1
  Lu  Lu7  1  0.95062072  0.19090257  0.75971915  1
  Lu  Lu8  1  0.80909743  0.04937928  0.24028085  1
  Lu  Lu9  1  0.04937928  0.80909743  0.24028085  1
  Lu  Lu10  1  0.43118343  0.19090257  0.24028085  1
  Lu  Lu11  1  0.56881657  0.80909743  0.75971915  1
  Cd  Cd0  1  0.00000000  0.50000000  0.50000000  1
  Cd  Cd1  1  0.50000000  0.00000000  0.50000000  1
  Fe  Fe0  1  0.37708037  0.37708037  1.00000000  1
  Fe  Fe1  1  0.62291963  0.62291963  0.00000000  1
  Tc  Tc0  1  0.00000000  0.00000000  0.00000000  1
loop_
_geom_bond_atom_site_label_1
_geom_bond_atom_site_label_2
_geom_bond_distance
_geom_bond_site_symmetry_2
Lu0 Lu7 3.397323 1_455
Lu0 Lu6 3.397323 1_545
Lu0 Lu5 3.397324 1_555
Lu0 Lu11 3.397324 1_555
Lu0 Lu9 3.494883 1_545
Lu0 Lu8 3.494883 1_455
Lu0 Lu10 3.494887 1_555
Lu0 Lu4 3.494887 1_555
Lu1 Lu9 3.397323 1_655
Lu1 Lu8 3.397323 1_565
Lu1 Lu4 3.397324 1_555
Lu1 Lu10 3.397324 1_555
Lu1 Lu7 3.494883 1_565
Lu1 Lu6 3.494883 1_655
Lu1 Lu11 3.494887 1_555
Lu1 Lu5 3.494887 1_555
Lu2 Lu5 3.397322 1_554
Lu2 Lu6 3.397324 1_544
Lu2 Lu9 3.397324 1_655
Lu2 Lu7 3.494872 1_554
Lu2 Lu8 3.494872 1_555
Lu2 Lu4 3.494880 1_655
Lu3 Lu4 3.397322 1_556
Lu3 Lu8 3.397324 1_566
Lu3 Lu7 3.397324 1_455
Lu3 Lu9 3.494872 1_556
Lu3 Lu6 3.494872 1_555
Lu3 Lu5 3.494880 1_455
Lu4 Tc0 2.881405 1_555
Lu4 Lu7 3.236723 1_454
Lu4 Lu8 3.501027 1_455
Lu4 Lu9 3.662593 1_555
Lu5 Tc0 2.881405 1_666
Lu5 Lu9 3.236723 1_656
Lu5 Lu6 3.501027 1_655
Lu5 Lu7 3.662593 1_555
Lu6 Tc0 2.881406 1_566
Lu6 Lu7 3.236737 1_465
Lu6 Lu9 3.662600 1_555
Lu7 Tc0 2.881406 1_656
Lu7 Lu8 3.662600 1_555
Lu8 Tc0 2.881406 1_655
Lu8 Lu9 3.236737 1_645
Lu9 Tc0 2.881406 1_565
Lu10 Tc0 2.881405 1_555
Lu10 Lu4 3.236723 1_555
Lu10 Lu6 3.236723 1_544
Lu10 Lu2 3.397321 1_555
Lu10 Lu3 3.494880 1_544
Lu10 Lu9 3.501027 1_545
Lu10 Lu8 3.662593 1_555
Lu10 Lu5 3.662598 1_555
Lu11 Tc0 2.881405 1_666
Lu11 Lu5 3.236723 1_555
Lu11 Lu8 3.236723 1_566
Lu11 Lu3 3.397321 1_555
Lu11 Lu2 3.494880 1_566
Lu11 Lu7 3.501027 1_565
Lu11 Lu6 3.662593 1_555
Lu11 Lu4 3.662598 1_555
Cd0 Lu6 3.030554 1_555
Cd0 Lu8 3.030554 1_455
Cd0 Lu5 3.030560 1_455
Cd0 Lu4 3.030560 1_555
Cd0 Lu3 3.462815 1_555
Cd0 Lu2 3.462815 1_455
Cd0 Lu1 3.462816 1_455
Cd0 Lu0 3.462816 1_555
Cd0 Lu11 3.762099 1_555
Cd0 Lu10 3.762099 1_455
Cd0 Lu9 3.762099 1_555
Cd0 Lu7 3.762099 1_455
Cd1 Lu7 3.030554 1_555
Cd1 Lu9 3.030554 1_545
Cd1 Lu11 3.030560 1_545
Cd1 Lu10 3.030560 1_555
Cd1 Lu2 3.462815 1_556
Cd1 Lu3 3.462815 1_544
Cd1 Lu1 3.462816 1_545
Cd1 Lu0 3.462816 1_555
Cd1 Lu8 3.762099 1_555
Cd1 Lu6 3.762099 1_545
Cd1 Lu5 3.762099 1_555
Cd1 Lu4 3.762099 1_545
Fe0 Fe1 2.254268 1_556
Fe0 Lu0 2.798411 1_555
Fe0 Lu1 2.798415 1_556
Fe0 Lu2 2.798419 1_556
Fe0 Lu3 2.798419 1_555
Fe0 Lu4 2.855291 1_556
Fe0 Lu10 2.855292 1_556
Fe0 Lu7 2.855298 1_455
Fe0 Lu6 2.855298 1_545
Fe1 Lu1 2.798411 1_555
Fe1 Lu0 2.798415 1_554
Fe1 Lu3 2.798419 1_554
Fe1 Lu2 2.798419 1_555
Fe1 Lu5 2.855291 1_554
Fe1 Lu11 2.855292 1_554
Fe1 Lu9 2.855298 1_655
Fe1 Lu8 2.855298 1_565
