# generated using pymatgen
data_Ca6Zn12Pd4N
_symmetry_space_group_name_H-M   'P 1'
_cell_length_a   8.08693294
_cell_length_b   8.08693245
_cell_length_c   8.08693294
_cell_angle_alpha   109.47122185
_cell_angle_beta   109.47122062
_cell_angle_gamma   109.47122189
_symmetry_Int_Tables_number   1
_chemical_formula_structural   Ca6Zn12Pd4N
_chemical_formula_sum   'Ca6 Zn12 Pd4 N1'
_cell_volume   407.12670942
_cell_formula_units_Z   1
loop_
 _symmetry_equiv_pos_site_id
 _symmetry_equiv_pos_as_xyz
  1  'x, y, z'
loop_
 _atom_site_type_symbol
 _atom_site_label
 _atom_site_symmetry_multiplicity
 _atom_site_fract_x
 _atom_site_fract_y
 _atom_site_fract_z
 _atom_site_occupancy
  Ca  Ca0  1  0.00000000  0.25708029  0.25708029  1
  Ca  Ca1  1  0.25708029  0.00000000  0.25708029  1
  Ca  Ca2  1  0.74291971  0.00000000  0.74291971  1
  Ca  Ca3  1  0.74291971  0.74291971  1.00000000  1
  Ca  Ca4  1  0.25708029  0.25708029  0.00000000  1
  Ca  Ca5  1  1.00000000  0.74291971  0.74291971  1
  Zn  Zn0  1  0.67971277  0.33985689  0.33985689  1
  Zn  Zn1  1  0.33985689  0.00000000  0.66014311  1
  Zn  Zn2  1  0.33985689  0.67971277  0.33985689  1
  Zn  Zn3  1  0.33985689  0.33985689  0.67971277  1
  Zn  Zn4  1  0.33985689  0.66014311  1.00000000  1
  Zn  Zn5  1  0.00000000  0.33985689  0.66014311  1
  Zn  Zn6  1  1.00000000  0.66014311  0.33985689  1
  Zn  Zn7  1  0.66014311  0.66014311  0.32028723  1
  Zn  Zn8  1  0.66014311  0.00000000  0.33985689  1
  Zn  Zn9  1  0.66014311  0.33985689  0.00000000  1
  Zn  Zn10  1  0.66014311  0.32028723  0.66014311  1
  Zn  Zn11  1  0.32028723  0.66014311  0.66014311  1
  Pd  Pd0  1  0.50000000  0.50000000  0.50000000  1
  Pd  Pd1  1  0.50000000  0.00000000  0.00000000  1
  Pd  Pd2  1  0.00000000  0.50000000  0.00000000  1
  Pd  Pd3  1  0.00000000  0.00000000  0.50000000  1
  N  N0  1  0.00000000  0.00000000  0.00000000  1
loop_
_geom_bond_atom_site_label_1
_geom_bond_atom_site_label_2
_geom_bond_distance
_geom_bond_site_symmetry_2
Ca0 N0 2.400612 1_555
Ca0 Pd3 3.302138 1_555
Ca0 Pd1 3.302138 1_455
Ca0 Pd2 3.302138 1_555
Ca0 Pd0 3.302138 1_555
Ca1 N0 2.400612 1_555
Ca1 Pd2 3.302138 1_545
Ca1 Pd0 3.302138 1_555
Ca1 Pd1 3.302138 1_555
Ca1 Pd3 3.302138 1_555
Ca2 N0 2.400612 1_656
Ca2 Pd0 3.302138 1_545
Ca2 Pd2 3.302138 1_656
Ca2 Pd1 3.302138 1_556
Ca2 Pd3 3.302138 1_655
Ca3 N0 2.400612 1_666
Ca3 Pd3 3.302138 1_666
Ca3 Pd1 3.302138 1_566
Ca3 Pd0 3.302138 1_555
Ca3 Pd2 3.302138 1_656
Ca4 N0 2.400612 1_555
Ca4 Pd3 3.302138 1_554
Ca4 Pd1 3.302138 1_555
Ca4 Pd0 3.302138 1_555
Ca4 Pd2 3.302138 1_555
Ca5 N0 2.400612 1_666
Ca5 Pd3 3.302138 1_665
Ca5 Pd1 3.302138 1_666
Ca5 Pd2 3.302138 1_656
Ca5 Pd0 3.302138 1_555
Pd0 Zn10 2.618770 1_555
Pd0 Zn2 2.618770 1_555
Pd0 Zn3 2.618770 1_555
Pd0 Zn7 2.618770 1_555
Pd0 Zn11 2.618770 1_555
Pd0 Zn0 2.618770 1_555
Pd1 Zn9 2.618777 1_555
Pd1 Zn4 2.618777 1_544
Pd1 Zn1 2.618777 1_554
Pd1 Zn8 2.618777 1_555
Pd1 Zn0 2.618778 1_555
Pd1 Zn11 2.618778 1_544
Pd2 Zn6 2.618777 1_455
Pd2 Zn5 2.618777 1_554
Pd2 Zn4 2.618777 1_554
Pd2 Zn9 2.618777 1_455
Pd2 Zn2 2.618778 1_555
Pd2 Zn10 2.618778 1_454
Pd3 Zn5 2.618777 1_555
Pd3 Zn6 2.618777 1_445
Pd3 Zn8 2.618777 1_455
Pd3 Zn1 2.618777 1_555
Pd3 Zn3 2.618778 1_555
Pd3 Zn7 2.618778 1_445
