# generated using pymatgen
data_BaLiYO3
_symmetry_space_group_name_H-M   'P 1'
_cell_length_a   6.05866190
_cell_length_b   6.05866167
_cell_length_c   8.69594365
_cell_angle_alpha   90.00000000
_cell_angle_beta   90.00000000
_cell_angle_gamma   146.39431146
_symmetry_Int_Tables_number   1
_chemical_formula_structural   BaLiYO3
_chemical_formula_sum   'Ba2 Li2 Y2 O6'
_cell_volume   176.67192880
_cell_formula_units_Z   2
loop_
 _symmetry_equiv_pos_site_id
 _symmetry_equiv_pos_as_xyz
  1  'x, y, z'
loop_
 _atom_site_type_symbol
 _atom_site_label
 _atom_site_symmetry_multiplicity
 _atom_site_fract_x
 _atom_site_fract_y
 _atom_site_fract_z
 _atom_site_occupancy
  Ba  Ba0  1  0.25931487  0.74068713  0.25000000  1
  Ba  Ba1  1  0.74068713  0.25931487  0.75000000  1
  Li  Li0  1  0.53156855  0.46843345  0.25000000  1
  Li  Li1  1  0.46843345  0.53156855  0.75000000  1
  Y  Y0  1  0.00000000  0.00000000  0.00000000  1
  Y  Y1  1  0.00000000  0.00000000  0.50000000  1
  O  O0  1  0.61943740  0.38056460  0.06590338  1
  O  O1  1  0.94510408  0.05489792  0.25000000  1
  O  O2  1  0.61943740  0.38056460  0.43409662  1
  O  O3  1  0.38056460  0.61943740  0.56590338  1
  O  O4  1  0.05489792  0.94510408  0.75000000  1
  O  O5  1  0.38056460  0.61943740  0.93409662  1
loop_
_geom_bond_atom_site_label_1
_geom_bond_atom_site_label_2
_geom_bond_distance
_geom_bond_site_symmetry_2
Ba0 O1 2.777084 1_455
Ba0 O1 2.777084 1_565
Ba0 O2 2.874566 1_565
Ba0 O0 2.874566 1_565
Ba0 O2 2.874567 1_455
Ba0 O0 2.874567 1_455
Ba0 O3 3.086205 1_555
Ba0 O5 3.086205 1_554
Ba1 O4 2.777084 1_655
Ba1 O4 2.777084 1_545
Ba1 O5 2.874566 1_545
Ba1 O3 2.874566 1_545
Ba1 O5 2.874567 1_655
Ba1 O3 2.874567 1_655
Ba1 O0 3.086205 1_556
Ba1 O2 3.086205 1_555
Li0 O2 1.897837 1_555
Li0 O0 1.897837 1_555
Li0 O1 2.018292 1_565
Li0 O1 2.018292 1_455
Li1 O5 1.897837 1_555
Li1 O3 1.897837 1_555
Li1 O4 2.018292 1_545
Li1 O4 2.018292 1_655
O0 Y0 2.305524 1_665
O0 Y0 2.305529 1_555
O1 Y0 2.265333 1_655
O1 Y1 2.265333 1_655
O2 Y1 2.305524 1_665
O2 Y1 2.305529 1_555
O3 Y1 2.305524 1_665
O3 Y1 2.305529 1_555
O4 Y0 2.265333 1_566
O4 Y1 2.265333 1_565
O5 Y0 2.305524 1_666
O5 Y0 2.305529 1_556
