# generated using pymatgen
data_Nb4VB2P
_symmetry_space_group_name_H-M   'P 1'
_cell_length_a   6.10211030
_cell_length_b   6.10211047
_cell_length_c   7.18549509
_cell_angle_alpha   115.12618560
_cell_angle_beta   115.12618815
_cell_angle_gamma   89.99999114
_symmetry_Int_Tables_number   1
_chemical_formula_structural   Nb4VB2P
_chemical_formula_sum   'Nb8 V2 B4 P2'
_cell_volume   213.94669333
_cell_formula_units_Z   2
loop_
 _symmetry_equiv_pos_site_id
 _symmetry_equiv_pos_as_xyz
  1  'x, y, z'
loop_
 _atom_site_type_symbol
 _atom_site_label
 _atom_site_symmetry_multiplicity
 _atom_site_fract_x
 _atom_site_fract_y
 _atom_site_fract_z
 _atom_site_occupancy
  Nb  Nb0  1  0.03299858  0.53299858  0.72451475  1
  Nb  Nb1  1  0.69151717  0.19151717  0.72451475  1
  Nb  Nb2  1  0.19151717  0.03299858  0.72451475  1
  Nb  Nb3  1  0.53299858  0.69151717  0.72451475  1
  Nb  Nb4  1  0.96700142  0.46700142  0.27548525  1
  Nb  Nb5  1  0.30848283  0.80848283  0.27548525  1
  Nb  Nb6  1  0.80848283  0.96700142  0.27548525  1
  Nb  Nb7  1  0.46700142  0.30848283  0.27548525  1
  V  V0  1  0.50000000  0.50000000  0.00000000  1
  V  V1  1  0.00000000  0.00000000  0.00000000  1
  B  B0  1  0.38304324  0.88304324  0.00000000  1
  B  B1  1  0.61695676  0.11695676  1.00000000  1
  B  B2  1  0.11695676  0.38304324  0.00000000  1
  B  B3  1  0.88304324  0.61695676  0.00000000  1
  P  P0  1  0.25000000  0.25000000  0.50000000  1
  P  P1  1  0.75000000  0.75000000  0.50000000  1
loop_
_geom_bond_atom_site_label_1
_geom_bond_atom_site_label_2
_geom_bond_distance
_geom_bond_site_symmetry_2
Nb0 P1 2.605072 1_455
Nb0 P0 2.605072 1_555
Nb0 V0 2.761839 1_556
Nb0 V1 2.761839 1_566
Nb1 P0 2.605074 1_555
Nb1 P1 2.605074 1_545
Nb1 V1 2.761841 1_656
Nb1 V0 2.761841 1_556
Nb2 P0 2.605070 1_555
Nb2 P1 2.605077 1_445
Nb2 V0 2.761837 1_556
Nb2 V1 2.761844 1_556
Nb3 P1 2.605070 1_555
Nb3 P0 2.605077 1_555
Nb3 V1 2.761837 1_666
Nb3 V0 2.761844 1_556
Nb4 P0 2.605072 1_655
Nb4 P1 2.605072 1_555
Nb4 V0 2.761839 1_555
Nb4 V1 2.761839 1_655
Nb5 P1 2.605074 1_555
Nb5 P0 2.605074 1_565
Nb5 V1 2.761841 1_565
Nb5 V0 2.761841 1_555
Nb6 P1 2.605070 1_555
Nb6 P0 2.605077 1_665
Nb6 V0 2.761837 1_555
Nb6 V1 2.761844 1_665
Nb7 P0 2.605070 1_555
Nb7 P1 2.605077 1_555
Nb7 V1 2.761837 1_555
Nb7 V0 2.761844 1_555
B0 B1 2.018601 1_564
B0 Nb6 2.386453 1_555
B0 Nb7 2.386454 1_565
B0 Nb2 2.386457 1_564
B0 Nb3 2.386458 1_554
B0 Nb0 2.421167 1_554
B0 Nb5 2.421174 1_555
B0 V1 2.443901 1_565
B0 V0 2.443901 1_555
B1 Nb2 2.386453 1_555
B1 Nb3 2.386454 1_545
B1 Nb6 2.386457 1_546
B1 Nb7 2.386458 1_556
B1 Nb4 2.421167 1_556
B1 Nb1 2.421174 1_555
B1 V1 2.443901 1_656
B1 V0 2.443901 1_556
B2 B3 2.018600 1_455
B2 Nb1 2.386453 1_454
B2 Nb5 2.386453 1_555
B2 Nb0 2.386458 1_554
B2 Nb4 2.386458 1_455
B2 Nb7 2.421171 1_555
B2 Nb2 2.421171 1_554
B2 V0 2.443901 1_555
B2 V1 2.443901 1_555
B3 Nb5 2.386453 1_655
B3 Nb1 2.386453 1_554
B3 Nb4 2.386458 1_555
B3 Nb0 2.386458 1_654
B3 Nb3 2.421171 1_554
B3 Nb6 2.421171 1_555
B3 V0 2.443901 1_555
B3 V1 2.443901 1_665
P0 V1 2.872867 1_555
P0 V0 2.872867 1_556
P1 V0 2.872867 1_555
P1 V1 2.872867 1_666
