# generated using pymatgen
data_SrTcH9
_symmetry_space_group_name_H-M   'P 1'
_cell_length_a   5.01536867
_cell_length_b   5.01536929
_cell_length_c   9.16346676
_cell_angle_alpha   90.00000000
_cell_angle_beta   90.00000000
_cell_angle_gamma   120.00000241
_symmetry_Int_Tables_number   1
_chemical_formula_structural   SrTcH9
_chemical_formula_sum   'Sr2 Tc2 H18'
_cell_volume   199.61639536
_cell_formula_units_Z   2
loop_
 _symmetry_equiv_pos_site_id
 _symmetry_equiv_pos_as_xyz
  1  'x, y, z'
loop_
 _atom_site_type_symbol
 _atom_site_label
 _atom_site_symmetry_multiplicity
 _atom_site_fract_x
 _atom_site_fract_y
 _atom_site_fract_z
 _atom_site_occupancy
  Sr  Sr0  1  0.00000000  0.00000000  0.00000000  1
  Sr  Sr1  1  0.00000000  0.00000000  0.50000000  1
  Tc  Tc0  1  0.33333300  0.66666700  0.25000000  1
  Tc  Tc1  1  0.66666700  0.33333300  0.75000000  1
  H  H0  1  0.47074276  0.52925724  0.37915504  1
  H  H1  1  0.47074276  0.94148552  0.37915504  1
  H  H2  1  0.05851448  0.52925724  0.37915504  1
  H  H3  1  0.94148552  0.47074276  0.87915504  1
  H  H4  1  0.14484056  0.28968213  0.25000000  1
  H  H5  1  0.85515944  0.14484056  0.75000000  1
  H  H6  1  0.28968213  0.14484056  0.75000000  1
  H  H7  1  0.71031787  0.85515944  0.25000000  1
  H  H8  1  0.14484056  0.85515944  0.25000000  1
  H  H9  1  0.85515944  0.71031787  0.75000000  1
  H  H10  1  0.47074276  0.94148552  0.12084496  1
  H  H11  1  0.52925724  0.47074276  0.62084496  1
  H  H12  1  0.94148552  0.47074276  0.62084496  1
  H  H13  1  0.05851448  0.52925724  0.12084496  1
  H  H14  1  0.47074276  0.52925724  0.12084496  1
  H  H15  1  0.52925724  0.05851448  0.87915504  1
  H  H16  1  0.52925724  0.47074276  0.87915504  1
  H  H17  1  0.52925724  0.05851448  0.62084496  1
loop_
_geom_bond_atom_site_label_1
_geom_bond_atom_site_label_2
_geom_bond_distance
_geom_bond_site_symmetry_2
H0 Tc0 1.680928 1_555
H0 Sr1 2.753056 1_665
H0 Sr1 2.753056 1_555
H1 Tc0 1.680925 1_555
H1 Sr1 2.753056 1_665
H1 Sr1 2.753056 1_565
H2 Tc0 1.680925 1_555
H2 Sr1 2.753056 1_565
H2 Sr1 2.753056 1_555
H3 Tc1 1.680925 1_555
H3 Sr0 2.753056 1_656
H3 Sr0 2.753056 1_666
H4 Tc0 1.637410 1_555
H4 Sr1 2.613652 1_555
H4 Sr0 2.613652 1_555
H5 Tc1 1.637410 1_555
H5 Sr0 2.613650 1_656
H5 Sr1 2.613650 1_655
H6 Tc1 1.637410 1_555
H6 Sr1 2.613652 1_555
H6 Sr0 2.613652 1_556
H7 Tc0 1.637410 1_555
H7 Sr0 2.613652 1_665
H7 Sr1 2.613652 1_665
H8 Tc0 1.637410 1_555
H8 Sr0 2.613650 1_565
H8 Sr1 2.613650 1_565
H9 Tc1 1.637410 1_555
H9 Sr1 2.613652 1_665
H9 Sr0 2.613652 1_666
H10 Tc0 1.680925 1_555
H10 Sr0 2.753056 1_665
H10 Sr0 2.753056 1_565
H11 Tc1 1.680928 1_555
H11 Sr1 2.753056 1_555
H11 Sr1 2.753056 1_665
H12 Tc1 1.680925 1_555
H12 Sr1 2.753056 1_655
H12 Sr1 2.753056 1_665
H13 Tc0 1.680925 1_555
H13 Sr0 2.753056 1_565
H13 Sr0 2.753056 1_555
H14 Tc0 1.680928 1_555
H14 Sr0 2.753056 1_665
H14 Sr0 2.753056 1_555
H15 Tc1 1.680925 1_555
H15 Sr0 2.753056 1_556
H15 Sr0 2.753056 1_656
H16 Tc1 1.680928 1_555
H16 Sr0 2.753056 1_556
H16 Sr0 2.753056 1_666
H17 Tc1 1.680925 1_555
H17 Sr1 2.753056 1_555
H17 Sr1 2.753056 1_655
