# generated using pymatgen
data_Y10Hg2Ru3Pt
_symmetry_space_group_name_H-M   'P 1'
_cell_length_a   8.71474624
_cell_length_b   8.71474660
_cell_length_c   8.68456447
_cell_angle_alpha   127.52791304
_cell_angle_beta   127.52790833
_cell_angle_gamma   77.63865563
_symmetry_Int_Tables_number   1
_chemical_formula_structural   Y10Hg2Ru3Pt
_chemical_formula_sum   'Y10 Hg2 Ru3 Pt1'
_cell_volume   401.69614179
_cell_formula_units_Z   1
loop_
 _symmetry_equiv_pos_site_id
 _symmetry_equiv_pos_as_xyz
  1  'x, y, z'
loop_
 _atom_site_type_symbol
 _atom_site_label
 _atom_site_symmetry_multiplicity
 _atom_site_fract_x
 _atom_site_fract_y
 _atom_site_fract_z
 _atom_site_occupancy
  Y  Y0  1  0.99981514  0.99857430  0.99839044  1
  Y  Y1  1  0.50142570  0.50018486  0.00160956  1
  Y  Y2  1  0.80454109  0.29661235  0.82869047  1
  Y  Y3  1  0.20338765  0.69545891  0.17130953  1
  Y  Y4  1  0.47585062  0.96792189  0.17130953  1
  Y  Y5  1  0.28823252  0.47942108  0.50000000  1
  Y  Y6  1  0.02057892  0.21176748  0.50000000  1
  Y  Y7  1  0.53207811  0.02414938  0.82869047  1
  Y  Y8  1  0.69938604  0.52849208  0.50000000  1
  Y  Y9  1  0.97150792  0.80061396  0.50000000  1
  Hg  Hg0  1  0.25145818  0.24854182  1.00000000  1
  Hg  Hg1  1  0.75145818  0.74854182  1.00000000  1
  Ru  Ru0  1  0.13850453  0.64171563  0.78022117  1
  Ru  Ru1  1  0.85828437  0.36149547  0.21977883  1
  Ru  Ru2  1  0.63818583  0.86181417  0.50000000  1
  Pt  Pt0  1  0.36530520  0.13469480  0.50000000  1
loop_
_geom_bond_atom_site_label_1
_geom_bond_atom_site_label_2
_geom_bond_distance
_geom_bond_site_symmetry_2
Y0 Y7 3.395522 1_565
Y0 Y2 3.395530 1_565
Y0 Y8 3.399341 1_555
Y0 Y9 3.399348 1_555
Y0 Y6 3.432904 1_666
Y0 Y5 3.432911 1_666
Y0 Y3 3.458482 1_656
Y0 Y4 3.458490 1_656
Y1 Y4 3.395522 1_555
Y1 Y3 3.395530 1_555
Y1 Y9 3.399341 1_555
Y1 Y8 3.399348 1_555
Y1 Y5 3.432904 1_554
Y1 Y6 3.432911 1_554
Y1 Y2 3.458482 1_554
Y1 Y7 3.458490 1_554
Hg0 Y2 3.249540 1_455
Hg0 Y3 3.249540 1_556
Hg0 Y9 3.250523 1_445
Hg0 Y8 3.250523 1_556
Hg0 Y7 3.295252 1_555
Hg0 Y4 3.295253 1_546
Hg0 Y5 3.308026 1_556
Hg0 Y6 3.308026 1_555
Hg0 Y0 3.394975 1_445
Hg0 Y1 3.394975 1_556
Hg1 Y4 3.249540 1_556
Hg1 Y7 3.249540 1_565
Hg1 Y8 3.250523 1_555
Hg1 Y9 3.250523 1_556
Hg1 Y3 3.295252 1_656
Hg1 Y2 3.295252 1_555
Hg1 Y6 3.308026 1_666
Hg1 Y5 3.308026 1_555
Hg1 Y1 3.394962 1_556
Hg1 Y0 3.394962 1_555
Ru0 Y3 2.812562 1_556
Ru0 Y4 2.812571 1_556
Ru0 Y6 2.917279 1_555
Ru0 Y5 2.917287 1_555
Ru0 Y0 2.953692 1_455
Ru0 Y8 2.980908 1_455
Ru0 Y9 2.980916 1_455
Ru0 Y1 3.005248 1_556
Ru0 Ru1 3.034631 1_455
Ru1 Y2 2.812562 1_554
Ru1 Y7 2.812571 1_554
Ru1 Y5 2.917279 1_655
Ru1 Y6 2.917287 1_655
Ru1 Y1 2.953693 1_555
Ru1 Y9 2.980908 1_555
Ru1 Y8 2.980916 1_555
Ru1 Y0 3.005248 1_544
Ru2 Y9 2.838855 1_555
Ru2 Y8 2.838855 1_555
Ru2 Y7 2.956459 1_565
Ru2 Y2 2.956459 1_565
Ru2 Y4 2.956459 1_555
Ru2 Y3 2.956459 1_555
Ru2 Y1 2.965089 1_555
Ru2 Y0 2.965089 1_555
Pt0 Y6 2.934694 1_555
Pt0 Y5 2.934694 1_555
Pt0 Y4 2.980807 1_545
Pt0 Y3 2.980807 1_545
Pt0 Y7 2.980807 1_555
Pt0 Y2 2.980808 1_555
Pt0 Ru2 2.981485 1_545
Pt0 Y1 2.991178 1_556
Pt0 Y0 2.991178 1_444
