# generated using pymatgen
data_Rb4P2PdSe8
_symmetry_space_group_name_H-M   'P 1'
_cell_length_a   6.90577643
_cell_length_b   7.33220891
_cell_length_c   9.79896282
_cell_angle_alpha   88.05076372
_cell_angle_beta   81.85152834
_cell_angle_gamma   86.43882308
_symmetry_Int_Tables_number   1
_chemical_formula_structural   Rb4P2PdSe8
_chemical_formula_sum   'Rb4 P2 Pd1 Se8'
_cell_volume   490.04925896
_cell_formula_units_Z   1
loop_
 _symmetry_equiv_pos_site_id
 _symmetry_equiv_pos_as_xyz
  1  'x, y, z'
loop_
 _atom_site_type_symbol
 _atom_site_label
 _atom_site_symmetry_multiplicity
 _atom_site_fract_x
 _atom_site_fract_y
 _atom_site_fract_z
 _atom_site_occupancy
  Rb  Rb0  1  0.27754840  0.33235681  0.14297646  1
  Rb  Rb1  1  0.74461445  0.22524318  0.48029896  1
  Rb  Rb2  1  0.25538555  0.77475682  0.51970104  1
  Rb  Rb3  1  0.72245160  0.66764319  0.85702354  1
  P  P0  1  0.82703337  0.73365115  0.25818950  1
  P  P1  1  0.17296663  0.26634885  0.74181050  1
  Pd  Pd0  1  0.00000000  0.00000000  0.00000000  1
  Se  Se0  1  0.68087272  0.96385341  0.14536881  1
  Se  Se1  1  0.77237095  0.47043734  0.18062662  1
  Se  Se2  1  0.13433822  0.81430024  0.18218819  1
  Se  Se3  1  0.76096891  0.74276635  0.48208630  1
  Se  Se4  1  0.23903109  0.25723365  0.51791370  1
  Se  Se5  1  0.86566178  0.18569976  0.81781181  1
  Se  Se6  1  0.22762905  0.52956266  0.81937338  1
  Se  Se7  1  0.31912728  0.03614659  0.85463119  1
loop_
_geom_bond_atom_site_label_1
_geom_bond_atom_site_label_2
_geom_bond_distance
_geom_bond_site_symmetry_2
Rb0 Se6 3.492957 1_554
Rb0 Se1 3.543097 1_455
Rb0 Se7 3.590663 1_554
Rb0 Se2 3.628128 1_555
Rb0 Se4 3.670954 1_555
Rb0 Se1 3.694660 1_555
Rb0 Se0 3.760062 1_545
Rb0 Se2 3.976679 1_545
Rb1 Se1 3.378742 1_555
Rb1 Se4 3.452594 1_555
Rb1 Se4 3.508654 1_655
Rb1 Se5 3.522681 1_555
Rb1 Se3 3.531931 1_545
Rb1 Se3 3.803982 1_555
Rb1 Se0 3.947219 1_545
Rb2 Se6 3.378742 1_555
Rb2 Se3 3.452594 1_555
Rb2 Se3 3.508654 1_455
Rb2 Se2 3.522681 1_555
Rb2 Se4 3.531931 1_565
Rb2 Se4 3.803982 1_555
Rb2 Se7 3.947219 1_565
Rb3 Se1 3.492957 1_556
Rb3 Se6 3.543097 1_655
Rb3 Se0 3.590663 1_556
Rb3 Se5 3.628128 1_555
Rb3 Se3 3.670954 1_555
Rb3 Se6 3.694660 1_555
Rb3 Se7 3.760062 1_565
Rb3 Se5 3.976679 1_565
P0 Se1 2.171735 1_555
P0 Se3 2.179105 1_555
P0 Se0 2.251154 1_555
P0 Se2 2.255186 1_655
P1 Se6 2.171735 1_555
P1 Se4 2.179105 1_555
P1 Se7 2.251154 1_555
P1 Se5 2.255186 1_455
Pd0 Se2 2.459455 1_545
Pd0 Se5 2.459455 1_454
Pd0 Se7 2.472476 1_554
Pd0 Se0 2.472476 1_445
Pd0 Rb0 3.626129 1_555
Pd0 Rb3 3.626129 1_444
