# generated using pymatgen
data_Y3Mg3RuPt2
_symmetry_space_group_name_H-M   'P 1'
_cell_length_a   7.31588951
_cell_length_b   7.31588900
_cell_length_c   4.05763056
_cell_angle_alpha   90.00000000
_cell_angle_beta   90.00000000
_cell_angle_gamma   119.99998908
_symmetry_Int_Tables_number   1
_chemical_formula_structural   Y3Mg3RuPt2
_chemical_formula_sum   'Y3 Mg3 Ru1 Pt2'
_cell_volume   188.07775297
_cell_formula_units_Z   1
loop_
 _symmetry_equiv_pos_site_id
 _symmetry_equiv_pos_as_xyz
  1  'x, y, z'
loop_
 _atom_site_type_symbol
 _atom_site_label
 _atom_site_symmetry_multiplicity
 _atom_site_fract_x
 _atom_site_fract_y
 _atom_site_fract_z
 _atom_site_occupancy
  Y  Y0  1  0.41742456  0.40530009  0.50000000  1
  Y  Y1  1  0.98787453  0.58257544  0.50000000  1
  Y  Y2  1  0.59469991  0.01212547  0.50000000  1
  Mg  Mg0  1  0.75334870  0.75594068  0.00000000  1
  Mg  Mg1  1  0.24405932  0.99740903  0.00000000  1
  Mg  Mg2  1  0.00259097  0.24665130  0.00000000  1
  Ru  Ru0  1  0.66666700  0.33333300  0.00000000  1
  Pt  Pt0  1  0.33333300  0.66666700  0.00000000  1
  Pt  Pt1  1  0.00000000  0.00000000  0.50000000  1
loop_
_geom_bond_atom_site_label_1
_geom_bond_atom_site_label_2
_geom_bond_distance
_geom_bond_site_symmetry_2
Mg0 Pt1 2.708941 1_665
Mg0 Pt1 2.708941 1_664
Mg0 Pt0 2.803873 1_555
Mg0 Ru0 2.828503 1_555
Mg0 Mg2 3.109148 1_665
Mg0 Mg1 3.109148 1_655
Mg0 Y0 3.229860 1_554
Mg0 Y0 3.229860 1_555
Mg0 Y1 3.293132 1_555
Mg0 Y1 3.293132 1_554
Mg0 Y2 3.339347 1_565
Mg0 Y2 3.339347 1_564
Mg1 Pt1 2.708938 1_565
Mg1 Pt1 2.708938 1_564
Mg1 Pt0 2.803872 1_555
Mg1 Ru0 2.828499 1_565
Mg1 Mg2 3.109148 1_565
Mg1 Y2 3.229860 1_564
Mg1 Y2 3.229860 1_565
Mg1 Y0 3.293132 1_565
Mg1 Y0 3.293132 1_564
Mg1 Y1 3.339348 1_455
Mg1 Y1 3.339348 1_454
Mg2 Pt1 2.708943 1_555
Mg2 Pt1 2.708943 1_554
Mg2 Pt0 2.803873 1_555
Mg2 Ru0 2.828489 1_455
Mg2 Y1 3.229860 1_455
Mg2 Y1 3.229860 1_454
Mg2 Y2 3.293132 1_455
Mg2 Y2 3.293132 1_454
Mg2 Y0 3.339348 1_554
Mg2 Y0 3.339348 1_555
Ru0 Y2 2.945874 1_554
Ru0 Y2 2.945874 1_555
Ru0 Y1 2.945878 1_555
Ru0 Y1 2.945878 1_554
Ru0 Y0 2.945885 1_554
Ru0 Y0 2.945885 1_555
Pt0 Y0 3.054041 1_554
Pt0 Y0 3.054041 1_555
Pt0 Y1 3.054041 1_455
Pt0 Y1 3.054041 1_454
Pt0 Y2 3.054041 1_565
Pt0 Y2 3.054041 1_564
Pt1 Y1 3.010458 1_445
Pt1 Y0 3.010462 1_555
Pt1 Y2 3.010465 1_455
