# generated using pymatgen
data_Mg(RhO2)2
_symmetry_space_group_name_H-M   'P 1'
_cell_length_a   6.04985358
_cell_length_b   6.04986094
_cell_length_c   6.04987654
_cell_angle_alpha   60.00008672
_cell_angle_beta   59.99994804
_cell_angle_gamma   59.99987740
_symmetry_Int_Tables_number   1
_chemical_formula_structural   Mg(RhO2)2
_chemical_formula_sum   'Mg2 Rh4 O8'
_cell_volume   156.57466173
_cell_formula_units_Z   2
loop_
 _symmetry_equiv_pos_site_id
 _symmetry_equiv_pos_as_xyz
  1  'x, y, z'
loop_
 _atom_site_type_symbol
 _atom_site_label
 _atom_site_symmetry_multiplicity
 _atom_site_fract_x
 _atom_site_fract_y
 _atom_site_fract_z
 _atom_site_occupancy
  Mg  Mg0  1  0.74999871  0.74999929  0.74999870  1
  Mg  Mg1  1  0.50000020  0.50000122  0.50000215  1
  Rh  Rh0  1  0.12499963  0.12500032  0.62499976  1
  Rh  Rh1  1  0.12499967  0.62499898  0.12500095  1
  Rh  Rh2  1  0.62499740  0.12500088  0.12500096  1
  Rh  Rh3  1  0.12500010  0.12500075  0.12500091  1
  O  O0  1  0.88504425  0.34487917  0.88503668  1
  O  O1  1  0.36496077  0.36496245  0.90511266  1
  O  O2  1  0.36495896  0.36496049  0.36496298  1
  O  O3  1  0.90511170  0.36496116  0.36496369  1
  O  O4  1  0.88504433  0.88504351  0.88503881  1
  O  O5  1  0.34487842  0.88504260  0.88503783  1
  O  O6  1  0.36496026  0.90511160  0.36496419  1
  O  O7  1  0.88504360  0.88503860  0.34487972  1
loop_
_geom_bond_atom_site_label_1
_geom_bond_atom_site_label_2
_geom_bond_distance
_geom_bond_site_symmetry_2
Mg0 O5 2.001163 1_555
Mg0 O0 2.001168 1_555
Mg0 O7 2.001169 1_555
Mg0 O4 2.001218 1_555
Mg1 O6 2.001120 1_555
Mg1 O3 2.001120 1_555
Mg1 O1 2.001127 1_555
Mg1 O2 2.001175 1_555
O0 Rh0 2.056620 1_655
O0 Rh3 2.056642 1_656
O0 Rh2 2.056664 1_556
O1 Rh3 2.056648 1_556
O1 Rh1 2.056656 1_556
O1 Rh2 2.056659 1_556
O2 Rh0 2.056638 1_555
O2 Rh2 2.056644 1_555
O2 Rh1 2.056646 1_555
O3 Rh3 2.056650 1_655
O3 Rh0 2.056657 1_655
O3 Rh1 2.056664 1_655
O4 Rh0 2.056609 1_665
O4 Rh1 2.056632 1_656
O4 Rh2 2.056638 1_566
O5 Rh0 2.056628 1_565
O5 Rh3 2.056645 1_566
O5 Rh1 2.056652 1_556
O6 Rh3 2.056653 1_565
O6 Rh0 2.056655 1_565
O6 Rh2 2.056666 1_565
O7 Rh1 2.056631 1_655
O7 Rh3 2.056635 1_665
O7 Rh2 2.056663 1_565
