# generated using pymatgen
data_LuVGa4Mo
_symmetry_space_group_name_H-M   'P 1'
_cell_length_a   5.31888037
_cell_length_b   5.31887964
_cell_length_c   5.31887999
_cell_angle_alpha   104.11655142
_cell_angle_beta   104.11656288
_cell_angle_gamma   120.81112306
_symmetry_Int_Tables_number   1
_chemical_formula_structural   LuVGa4Mo
_chemical_formula_sum   'Lu1 V1 Ga4 Mo1'
_cell_volume   112.37615003
_cell_formula_units_Z   1
loop_
 _symmetry_equiv_pos_site_id
 _symmetry_equiv_pos_as_xyz
  1  'x, y, z'
loop_
 _atom_site_type_symbol
 _atom_site_label
 _atom_site_symmetry_multiplicity
 _atom_site_fract_x
 _atom_site_fract_y
 _atom_site_fract_z
 _atom_site_occupancy
  Lu  Lu0  1  0.00000000  0.00000000  0.00000000  1
  V  V0  1  0.75000000  0.25000000  0.50000000  1
  Ga  Ga0  1  0.30520120  0.30520120  0.61040240  1
  Ga  Ga1  1  0.69479880  0.69479880  0.38959760  1
  Ga  Ga2  1  0.69479880  0.30520120  1.00000000  1
  Ga  Ga3  1  0.30520120  0.69479880  0.00000000  1
  Mo  Mo0  1  0.25000000  0.75000000  0.50000000  1
loop_
_geom_bond_atom_site_label_1
_geom_bond_atom_site_label_2
_geom_bond_distance
_geom_bond_site_symmetry_2
Ga0 Ga2 2.548252 1_555
Ga0 Ga3 2.548252 1_556
Ga0 Mo0 2.708015 1_545
Ga0 Mo0 2.708015 1_555
Ga0 V0 2.708015 1_455
Ga0 V0 2.708015 1_555
Ga0 Ga1 2.818298 1_445
Ga0 Ga1 2.818298 1_555
Ga0 Lu0 2.823107 1_555
Ga0 Lu0 3.185390 1_666
Ga0 Lu0 3.185390 1_556
Ga1 Ga3 2.548252 1_555
Ga1 Ga2 2.548252 1_554
Ga1 V0 2.708015 1_565
Ga1 V0 2.708015 1_555
Ga1 Mo0 2.708015 1_655
Ga1 Mo0 2.708015 1_555
Ga1 Lu0 2.823107 1_666
Ga1 Lu0 3.185390 1_555
Ga1 Lu0 3.185390 1_665
Ga2 Mo0 2.708014 1_545
Ga2 Mo0 2.708014 1_656
Ga2 V0 2.708015 1_556
Ga2 V0 2.708015 1_555
Ga2 Ga3 2.818298 1_546
Ga2 Ga3 2.818298 1_656
Ga2 Lu0 2.823108 1_656
Ga2 Lu0 3.185390 1_666
Ga2 Lu0 3.185390 1_556
Ga3 V0 2.708014 1_565
Ga3 V0 2.708014 1_454
Ga3 Mo0 2.708015 1_554
Ga3 Mo0 2.708015 1_555
Ga3 Lu0 2.823108 1_565
Ga3 Lu0 3.185390 1_555
Ga3 Lu0 3.185390 1_665
Mo0 V0 2.626769 1_565
Mo0 V0 2.626769 1_455
