# generated using pymatgen
data_Zr10Ga2Bi4S
_symmetry_space_group_name_H-M   'P 1'
_cell_length_a   8.52960534
_cell_length_b   8.55388852
_cell_length_c   5.83304835
_cell_angle_alpha   90.04968232
_cell_angle_beta   89.97508870
_cell_angle_gamma   120.09421572
_symmetry_Int_Tables_number   1
_chemical_formula_structural   Zr10Ga2Bi4S
_chemical_formula_sum   'Zr10 Ga2 Bi4 S1'
_cell_volume   368.21838926
_cell_formula_units_Z   1
loop_
 _symmetry_equiv_pos_site_id
 _symmetry_equiv_pos_as_xyz
  1  'x, y, z'
loop_
 _atom_site_type_symbol
 _atom_site_label
 _atom_site_symmetry_multiplicity
 _atom_site_fract_x
 _atom_site_fract_y
 _atom_site_fract_z
 _atom_site_occupancy
  Zr  Zr0  1  0.00000000  0.75414643  0.24391583  1
  Zr  Zr1  1  0.24652668  0.24420329  0.23382940  1
  Zr  Zr2  1  0.75347332  0.99767561  0.23382940  1
  Zr  Zr3  1  1.00000000  0.24622619  0.76192269  1
  Zr  Zr4  1  0.73556478  0.75316866  0.75735683  1
  Zr  Zr5  1  0.26443522  0.01760389  0.75735683  1
  Zr  Zr6  1  0.34055595  0.66673469  0.50778815  1
  Zr  Zr7  1  0.65944405  0.32617774  0.50778815  1
  Zr  Zr8  1  0.65924040  0.32632121  0.99137605  1
  Zr  Zr9  1  0.34075960  0.66708181  0.99137605  1
  Ga  Ga0  1  0.39144733  0.39324249  0.75327885  1
  Ga  Ga1  1  0.60855267  0.00179516  0.75327885  1
  Bi  Bi0  1  0.00000000  0.39467524  0.25169596  1
  Bi  Bi1  1  0.60166089  0.59798084  0.24953959  1
  Bi  Bi2  1  0.39833911  0.99631995  0.24953959  1
  Bi  Bi3  1  0.00000000  0.61588795  0.75253048  1
  S  S0  1  1.00000000  0.00075584  0.50359727  1
loop_
_geom_bond_atom_site_label_1
_geom_bond_atom_site_label_2
_geom_bond_distance
_geom_bond_site_symmetry_2
Ga0 Zr5 2.829819 1_555
Ga0 Zr3 2.919135 1_455
Ga0 Zr9 2.934624 1_555
Ga0 Zr6 2.955770 1_555
Ga0 Zr8 2.964688 1_555
Ga0 Zr7 2.985929 1_555
Ga0 Zr4 3.005353 1_555
Ga0 Zr1 3.071369 1_556
Ga0 Zr1 3.278749 1_555
Ga1 Zr4 2.829819 1_545
Ga1 Zr3 2.919135 1_555
Ga1 Zr8 2.934617 1_555
Ga1 Zr7 2.955762 1_555
Ga1 Zr9 2.964683 1_545
Ga1 Zr6 2.985924 1_545
Ga1 Zr5 3.005353 1_555
Ga1 Zr2 3.071371 1_546
Ga1 Zr2 3.278751 1_545
Bi0 Zr1 2.966987 1_555
Bi0 Zr2 2.966994 1_445
Bi0 Zr7 3.050173 1_455
Bi0 Zr6 3.050176 1_555
Bi0 Zr8 3.064900 1_454
Bi0 Zr9 3.064902 1_554
Bi0 Zr0 3.075251 1_555
Bi0 Zr3 3.125357 1_454
Bi0 Zr3 3.236761 1_455
Bi1 Zr0 2.962780 1_655
Bi1 Zr6 2.980636 1_555
Bi1 Zr9 2.982110 1_554
Bi1 Zr2 2.989146 1_555
Bi1 Zr8 3.007737 1_554
Bi1 Zr7 3.012221 1_555
Bi1 Zr1 3.024702 1_555
Bi1 Zr4 3.129241 1_554
Bi1 Zr4 3.211926 1_555
Bi2 Zr0 2.962780 1_555
Bi2 Zr7 2.980632 1_565
Bi2 Zr8 2.982105 1_564
Bi2 Zr1 2.989153 1_565
Bi2 Zr9 3.007730 1_554
Bi2 Zr6 3.012214 1_555
Bi2 Zr2 3.024706 1_555
Bi2 Zr5 3.129241 1_564
Bi2 Zr5 3.211926 1_565
Bi3 Zr4 3.020464 1_455
Bi3 Zr5 3.020464 1_565
Bi3 Zr9 3.050707 1_555
Bi3 Zr8 3.050710 1_455
Bi3 Zr6 3.065219 1_555
Bi3 Zr7 3.065222 1_455
Bi3 Zr0 3.099727 1_556
Bi3 Zr3 3.162568 1_455
Bi3 Zr0 3.194759 1_555
S0 Zr3 2.583386 1_555
S0 Zr0 2.595908 1_645
S0 Zr2 2.616433 1_545
S0 Zr1 2.616436 1_655
S0 Zr5 2.641154 1_655
S0 Zr4 2.641154 1_545
