# generated using pymatgen
data_ZrVI6
_symmetry_space_group_name_H-M   'P 1'
_cell_length_a   7.44157336
_cell_length_b   7.44157304
_cell_length_c   6.81866268
_cell_angle_alpha   90.00000000
_cell_angle_beta   90.00000000
_cell_angle_gamma   119.99999743
_symmetry_Int_Tables_number   1
_chemical_formula_structural   ZrVI6
_chemical_formula_sum   'Zr1 V1 I6'
_cell_volume   327.00874385
_cell_formula_units_Z   1
loop_
 _symmetry_equiv_pos_site_id
 _symmetry_equiv_pos_as_xyz
  1  'x, y, z'
loop_
 _atom_site_type_symbol
 _atom_site_label
 _atom_site_symmetry_multiplicity
 _atom_site_fract_x
 _atom_site_fract_y
 _atom_site_fract_z
 _atom_site_occupancy
  Zr  Zr0  1  0.00000000  0.00000000  0.50000000  1
  V  V0  1  0.00000000  0.00000000  0.00000000  1
  I  I0  1  0.30785579  0.00000000  0.24694950  1
  I  I1  1  0.30785579  0.30785579  0.75305050  1
  I  I2  1  1.00000000  0.69214421  0.75305050  1
  I  I3  1  0.00000000  0.30785579  0.24694950  1
  I  I4  1  0.69214421  0.69214421  0.24694950  1
  I  I5  1  0.69214421  1.00000000  0.75305050  1
loop_
_geom_bond_atom_site_label_1
_geom_bond_atom_site_label_2
_geom_bond_distance
_geom_bond_site_symmetry_2
I0 V0 2.843197 1_555
I0 Zr0 2.868031 1_555
I1 V0 2.843197 1_556
I1 Zr0 2.868031 1_555
I2 V0 2.843197 1_666
I2 Zr0 2.868031 1_665
I3 V0 2.843197 1_555
I3 Zr0 2.868031 1_555
I4 V0 2.843197 1_665
I4 Zr0 2.868031 1_665
I5 V0 2.843197 1_666
I5 Zr0 2.868031 1_665
