# generated using pymatgen
data_Sr4YSc7Se16
_symmetry_space_group_name_H-M   'P 1'
_cell_length_a   3.98586182
_cell_length_b   12.31592537
_cell_length_c   14.41750145
_cell_angle_alpha   90.19090201
_cell_angle_beta   90.00000000
_cell_angle_gamma   90.00000000
_symmetry_Int_Tables_number   1
_chemical_formula_structural   Sr4YSc7Se16
_chemical_formula_sum   'Sr4 Y1 Sc7 Se16'
_cell_volume   707.74511479
_cell_formula_units_Z   1
loop_
 _symmetry_equiv_pos_site_id
 _symmetry_equiv_pos_as_xyz
  1  'x, y, z'
loop_
 _atom_site_type_symbol
 _atom_site_label
 _atom_site_symmetry_multiplicity
 _atom_site_fract_x
 _atom_site_fract_y
 _atom_site_fract_z
 _atom_site_occupancy
  Sr  Sr0  1  0.75000000  0.73699009  0.16963893  1
  Sr  Sr1  1  0.75000000  0.23787126  0.33500077  1
  Sr  Sr2  1  0.25000000  0.25875820  0.82655602  1
  Sr  Sr3  1  0.25000000  0.76316730  0.66812428  1
  Y  Y0  1  0.25000000  0.41434490  0.09539021  1
  Sc  Sc0  1  0.75000000  0.05324178  0.11167332  1
  Sc  Sc1  1  0.75000000  0.55884676  0.39315058  1
  Sc  Sc2  1  0.25000000  0.94341164  0.89001488  1
  Sc  Sc3  1  0.25000000  0.44420146  0.61090294  1
  Sc  Sc4  1  0.75000000  0.08189394  0.59712758  1
  Sc  Sc5  1  0.75000000  0.58594164  0.89978533  1
  Sc  Sc6  1  0.25000000  0.91675392  0.40336526  1
  Se  Se0  1  0.75000000  0.29791713  0.65776179  1
  Se  Se1  1  0.75000000  0.79968394  0.83873914  1
  Se  Se2  1  0.25000000  0.70282691  0.34231483  1
  Se  Se3  1  0.25000000  0.19516279  0.16489800  1
  Se  Se4  1  0.75000000  0.37641912  0.96000276  1
  Se  Se5  1  0.75000000  0.87739413  0.52908599  1
  Se  Se6  1  0.25000000  0.62899386  0.02445117  1
  Se  Se7  1  0.25000000  0.12198517  0.47185377  1
  Se  Se8  1  0.75000000  0.47354526  0.22119843  1
  Se  Se9  1  0.75000000  0.96740570  0.28579738  1
  Se  Se10  1  0.25000000  0.53335636  0.78290124  1
  Se  Se11  1  0.25000000  0.02972552  0.71497523  1
  Se  Se12  1  0.75000000  0.08865974  0.92744334  1
  Se  Se13  1  0.75000000  0.59019760  0.57598359  1
  Se  Se14  1  0.25000000  0.90952072  0.07405364  1
  Se  Se15  1  0.25000000  0.41178716  0.42780857  1
loop_
_geom_bond_atom_site_label_1
_geom_bond_atom_site_label_2
_geom_bond_distance
_geom_bond_site_symmetry_2
Sc0 Se12 2.693149 1_554
Sc0 Se14 2.718944 1_645
Sc0 Se14 2.718944 1_545
Sc0 Se9 2.727184 1_545
Sc0 Se3 2.758043 1_555
Sc0 Se3 2.758043 1_655
Sc1 Se13 2.662850 1_555
Sc1 Se8 2.689307 1_555
Sc1 Se15 2.740044 1_555
Sc1 Se15 2.740044 1_655
Sc1 Se2 2.768036 1_555
Sc1 Se2 2.768036 1_655
Sc2 Se14 2.687382 1_556
Sc2 Se12 2.730673 1_565
Sc2 Se12 2.730673 1_465
Sc2 Se11 2.741651 1_565
Sc2 Se1 2.764591 1_555
Sc2 Se1 2.764591 1_455
Sc3 Se15 2.668464 1_555
Sc3 Se10 2.708662 1_555
Sc3 Se13 2.732096 1_555
Sc3 Se13 2.732096 1_455
Sc3 Se0 2.771671 1_455
Sc3 Se0 2.771671 1_555
Sc4 Se11 2.697905 1_555
Sc4 Se11 2.697905 1_655
Sc4 Se5 2.699860 1_545
Sc4 Se7 2.735624 1_655
Sc4 Se7 2.735624 1_555
Sc4 Se0 2.797698 1_555
Sc5 Se10 2.687704 1_555
Sc5 Se10 2.687704 1_655
Sc5 Se4 2.725338 1_555
Sc5 Se6 2.734429 1_656
Sc5 Se6 2.734429 1_556
Sc5 Se1 2.778450 1_555
Sc6 Se9 2.690933 1_455
Sc6 Se9 2.690933 1_555
Sc6 Se7 2.710575 1_565
Sc6 Se5 2.738258 1_455
Sc6 Se5 2.738258 1_555
Sc6 Se2 2.775064 1_555
Se0 Sr2 3.183481 1_555
Se0 Sr2 3.183481 1_655
Se1 Sr3 3.196479 1_555
Se1 Sr3 3.196479 1_655
Se2 Sr0 3.217712 1_455
Se2 Sr0 3.217712 1_555
Se3 Y0 2.882571 1_555
Se3 Sr1 3.202248 1_455
Se3 Sr1 3.202248 1_555
Se4 Y0 2.827362 1_556
Se4 Y0 2.827362 1_656
Se4 Sr2 3.123259 1_555
Se4 Sr2 3.123259 1_655
Se5 Sr3 3.160386 1_655
Se5 Sr3 3.160386 1_555
Se6 Y0 2.837726 1_555
Se6 Sr0 3.178677 1_555
Se6 Sr0 3.178677 1_455
Se7 Sr1 3.149699 1_455
Se7 Sr1 3.149699 1_555
Se8 Y0 2.790085 1_555
Se8 Y0 2.790085 1_655
Se8 Sr0 3.331046 1_555
Se8 Sr1 3.338943 1_555
Se9 Sr0 3.290289 1_555
Se9 Sr1 3.403421 1_565
Se10 Sr3 3.283345 1_555
Se10 Sr2 3.442060 1_555
Se11 Sr2 3.242585 1_555
Se11 Sr3 3.349477 1_545
Se12 Sr2 3.239825 1_555
Se12 Sr2 3.239825 1_655
Se13 Sr3 3.202462 1_655
Se13 Sr3 3.202462 1_555
Se14 Sr0 3.225762 1_555
Se14 Sr0 3.225762 1_455
Se15 Sr1 3.214181 1_555
Se15 Sr1 3.214181 1_455
