# generated using pymatgen
data_Zr4In(Re5Tc3)3
_symmetry_space_group_name_H-M   'P 1'
_cell_length_a   8.42792970
_cell_length_b   8.42792949
_cell_length_c   8.42792927
_cell_angle_alpha   109.54016750
_cell_angle_beta   109.54017257
_cell_angle_gamma   109.54016037
_symmetry_Int_Tables_number   1
_chemical_formula_structural   Zr4In(Re5Tc3)3
_chemical_formula_sum   'Zr4 In1 Re15 Tc9'
_cell_volume   459.64994003
_cell_formula_units_Z   1
loop_
 _symmetry_equiv_pos_site_id
 _symmetry_equiv_pos_as_xyz
  1  'x, y, z'
loop_
 _atom_site_type_symbol
 _atom_site_label
 _atom_site_symmetry_multiplicity
 _atom_site_fract_x
 _atom_site_fract_y
 _atom_site_fract_z
 _atom_site_occupancy
  Zr  Zr0  1  0.62887071  0.99974214  0.99974214  1
  Zr  Zr1  1  0.99974214  0.62887071  0.99974214  1
  Zr  Zr2  1  0.99974214  0.99974214  0.62887071  1
  Zr  Zr3  1  0.36929554  0.36929554  0.36929554  1
  In  In0  1  0.99898931  0.99898931  0.99898931  1
  Re  Re0  1  0.60529359  0.60529359  0.27932848  1
  Re  Re1  1  0.27932848  0.60529359  0.60529359  1
  Re  Re2  1  0.60529359  0.27932848  0.60529359  1
  Re  Re3  1  0.37779763  0.19566603  0.00093865  1
  Re  Re4  1  0.18140489  0.80555970  0.80555970  1
  Re  Re5  1  0.37779763  0.00093865  0.19566603  1
  Re  Re6  1  0.19566603  0.37779763  0.00093865  1
  Re  Re7  1  0.00093865  0.37779763  0.19566603  1
  Re  Re8  1  0.80555970  0.18140489  0.80555970  1
  Re  Re9  1  0.80555970  0.80555970  0.18140489  1
  Re  Re10  1  0.00093865  0.19566603  0.37779763  1
  Re  Re11  1  0.19566603  0.00093865  0.37779763  1
  Re  Re12  1  0.62144655  0.62144655  0.81569147  1
  Re  Re13  1  0.81569147  0.62144655  0.62144655  1
  Re  Re14  1  0.62144655  0.81569147  0.62144655  1
  Tc  Tc0  1  0.39503573  0.67620591  0.00104366  1
  Tc  Tc1  1  0.72053924  0.32420861  0.32420861  1
  Tc  Tc2  1  0.39503573  0.00104366  0.67620591  1
  Tc  Tc3  1  0.67620591  0.39503573  0.00104366  1
  Tc  Tc4  1  0.00104366  0.39503573  0.67620591  1
  Tc  Tc5  1  0.32420861  0.72053924  0.32420861  1
  Tc  Tc6  1  0.32420861  0.32420861  0.72053924  1
  Tc  Tc7  1  0.00104366  0.67620591  0.39503573  1
  Tc  Tc8  1  0.67620591  0.00104366  0.39503573  1
loop_
_geom_bond_atom_site_label_1
_geom_bond_atom_site_label_2
_geom_bond_distance
_geom_bond_site_symmetry_2
In0 Re8 3.042044 1_565
In0 Re4 3.042044 1_655
In0 Re9 3.042044 1_556
In0 Re14 3.047390 1_555
In0 Re13 3.047390 1_555
In0 Re12 3.047391 1_555
In0 Re11 3.057298 1_666
In0 Re5 3.057298 1_666
In0 Re10 3.057298 1_666
In0 Re7 3.057298 1_666
In0 Re6 3.057299 1_666
In0 Re3 3.057299 1_666
In0 Zr3 3.110277 1_666
In0 Zr2 3.123583 1_555
In0 Zr1 3.123583 1_555
In0 Zr0 3.123583 1_555
Re0 Re9 2.517259 1_555
Re0 Re13 2.762668 1_555
Re0 Re14 2.762668 1_555
Re0 Zr3 2.803266 1_555
Re0 Tc0 2.804276 1_555
Re0 Tc3 2.804276 1_555
Re0 Re6 2.871250 1_555
Re0 Re3 2.871250 1_555
Re0 Tc8 2.921249 1_565
Re0 Tc7 2.921249 1_655
Re0 Tc1 2.931087 1_555
Re0 Tc5 2.931087 1_555
Re0 Zr2 3.207255 1_555
Re1 Re4 2.517259 1_555
Re1 Re12 2.762668 1_555
Re1 Re14 2.762669 1_555
Re1 Zr3 2.803266 1_555
Re1 Tc7 2.804276 1_555
Re1 Tc4 2.804277 1_555
Re1 Re7 2.871250 1_555
Re1 Re10 2.871250 1_555
Re1 Tc0 2.921249 1_556
Re1 Tc2 2.921249 1_565
Re1 Tc6 2.931087 1_555
Re1 Tc5 2.931087 1_555
Re1 Zr0 3.207255 1_555
Re2 Re8 2.517259 1_555
Re2 Zr3 2.803266 1_555
Re2 Tc8 2.804276 1_555
Re2 Tc2 2.804276 1_555
Re2 Re5 2.871250 1_555
Re2 Tc3 2.921249 1_556
Re2 Tc4 2.921249 1_655
Re2 Tc1 2.931087 1_555
Re2 Tc6 2.931087 1_555
Re2 Zr1 3.207255 1_555
Re3 Re6 2.507698 1_555
Re3 Tc3 2.513777 1_555
Re3 Re4 2.678745 1_544
Re3 Re5 2.681124 1_555
Re3 Tc1 2.758311 1_555
Re3 Tc2 2.761202 1_554
Re3 Tc6 2.878921 1_554
Re3 Zr3 2.994054 1_555
Re3 Zr2 3.007498 1_444
Re3 Zr0 3.089445 1_544
Re4 Re5 2.678745 1_566
Re4 Tc0 2.770332 1_556
Re4 Tc2 2.770332 1_565
Re4 Tc7 2.884445 1_555
Re4 Tc4 2.884445 1_555
Re4 Zr2 3.003514 1_455
Re4 Zr1 3.003515 1_455
Re4 Zr0 3.087066 1_555
Re5 Tc8 2.513777 1_555
Re5 Tc1 2.758311 1_555
Re5 Tc0 2.761202 1_545
Re5 Tc5 2.878921 1_545
Re5 Zr3 2.994054 1_555
Re5 Zr1 3.007499 1_444
Re5 Zr0 3.089445 1_544
Re6 Tc0 2.513777 1_555
Re6 Re8 2.678745 1_454
Re6 Re7 2.681124 1_555
Re6 Tc5 2.758311 1_555
Re6 Tc4 2.761202 1_554
Re6 Tc6 2.878921 1_554
Re6 Zr3 2.994054 1_555
Re6 Zr2 3.007498 1_444
Re6 Zr1 3.089444 1_454
Re7 Tc7 2.513777 1_555
Re7 Re8 2.678745 1_454
Re7 Tc5 2.758311 1_555
Re7 Tc3 2.761202 1_455
Re7 Tc1 2.878921 1_455
Re7 Zr3 2.994054 1_555
Re7 Zr0 3.007499 1_444
Re7 Zr1 3.089445 1_454
Re8 Tc3 2.770332 1_556
Re8 Tc4 2.770332 1_655
Re8 Tc8 2.884445 1_555
Re8 Tc2 2.884445 1_555
Re8 Zr2 3.003515 1_545
Re8 Zr0 3.003515 1_545
Re8 Zr1 3.087066 1_555
Re9 Tc7 2.770332 1_655
Re9 Tc8 2.770332 1_565
Re9 Tc0 2.884445 1_555
Re9 Tc3 2.884445 1_555
Re9 Zr0 3.003514 1_554
Re9 Zr1 3.003515 1_554
Re9 Zr2 3.087065 1_555
Re10 Re7 2.507698 1_555
Re10 Tc4 2.513777 1_555
Re10 Re9 2.678745 1_445
Re10 Re11 2.681124 1_555
Re10 Tc6 2.758311 1_555
Re10 Tc8 2.761202 1_455
Re10 Tc1 2.878921 1_455
Re10 Zr3 2.994054 1_555
Re10 Zr0 3.007498 1_444
Re10 Zr2 3.089445 1_445
Re11 Re5 2.507698 1_555
Re11 Tc2 2.513777 1_555
Re11 Re9 2.678745 1_445
Re11 Tc6 2.758311 1_555
Re11 Tc7 2.761202 1_545
Re11 Re2 2.871250 1_555
Re11 Tc5 2.878921 1_545
Re11 Zr3 2.994054 1_555
Re11 Zr1 3.007498 1_444
Re11 Zr2 3.089445 1_445
Re12 Re9 2.511239 1_556
Re12 Tc6 2.511682 1_555
Re12 Re14 2.674481 1_555
Re12 Re13 2.674482 1_555
Re12 Re2 2.762668 1_555
Re12 Tc3 2.897446 1_556
Re12 Tc0 2.897446 1_556
Re12 Zr1 3.011373 1_555
Re12 Zr0 3.011373 1_555
Re12 Zr3 3.077164 1_555
Re13 Re4 2.511239 1_655
Re13 Tc1 2.511682 1_555
Re13 Re14 2.674481 1_555
Re13 Re2 2.762669 1_555
Re13 Tc4 2.897446 1_655
Re13 Tc7 2.897446 1_655
Re13 Zr1 3.011373 1_555
Re13 Zr2 3.011373 1_555
Re13 Zr3 3.077164 1_555
Re14 Re8 2.511239 1_565
Re14 Tc5 2.511682 1_555
Re14 Tc2 2.897446 1_565
Re14 Tc8 2.897446 1_565
Re14 Zr0 3.011373 1_555
Re14 Zr2 3.011373 1_555
Re14 Zr3 3.077164 1_555
Tc0 Zr0 2.785476 1_554
Tc0 Tc6 2.815302 1_554
Tc0 Tc8 2.907238 1_565
Tc0 Tc4 2.907238 1_554
Tc0 Tc5 2.910325 1_555
Tc0 Zr1 3.215863 1_454
Tc1 Zr0 2.779209 1_544
Tc1 Tc4 2.815302 1_655
Tc1 Tc7 2.815303 1_655
Tc1 Tc3 2.910325 1_555
Tc1 Tc8 2.910325 1_555
Tc1 Zr3 3.234230 1_555
Tc2 Zr0 2.785475 1_545
Tc2 Tc5 2.815302 1_545
Tc2 Tc3 2.907238 1_556
Tc2 Tc7 2.907238 1_545
Tc2 Tc6 2.910325 1_555
Tc2 Zr2 3.215863 1_445
Tc3 Zr1 2.785476 1_554
Tc3 Tc6 2.815302 1_554
Tc3 Tc7 2.907238 1_655
Tc3 Zr0 3.215863 1_544
Tc4 Zr1 2.785475 1_455
Tc4 Tc8 2.907238 1_455
Tc4 Tc6 2.910325 1_555
Tc4 Zr2 3.215863 1_445
Tc5 Zr1 2.779209 1_454
Tc5 Tc8 2.815303 1_565
Tc5 Tc7 2.910325 1_555
Tc5 Zr3 3.234230 1_555
Tc6 Zr2 2.779209 1_445
Tc6 Zr3 3.234230 1_555
Tc7 Zr2 2.785475 1_455
Tc7 Zr1 3.215863 1_454
Tc8 Zr2 2.785475 1_545
Tc8 Zr0 3.215863 1_544
