# generated using pymatgen
data_Cs2SbAuS4
_symmetry_space_group_name_H-M   'P 1'
_cell_length_a   7.14161966
_cell_length_b   7.42693306
_cell_length_c   20.87053906
_cell_angle_alpha   90.00000000
_cell_angle_beta   90.00000000
_cell_angle_gamma   90.00000000
_symmetry_Int_Tables_number   1
_chemical_formula_structural   Cs2SbAuS4
_chemical_formula_sum   'Cs8 Sb4 Au4 S16'
_cell_volume   1106.98030321
_cell_formula_units_Z   4
loop_
 _symmetry_equiv_pos_site_id
 _symmetry_equiv_pos_as_xyz
  1  'x, y, z'
loop_
 _atom_site_type_symbol
 _atom_site_label
 _atom_site_symmetry_multiplicity
 _atom_site_fract_x
 _atom_site_fract_y
 _atom_site_fract_z
 _atom_site_occupancy
  Cs  Cs0  1  0.29775159  0.75000000  0.98865296  1
  Cs  Cs1  1  0.89617907  0.25000000  0.33170618  1
  Cs  Cs2  1  0.70224841  0.25000000  0.01134704  1
  Cs  Cs3  1  0.29775159  0.25000000  0.51134704  1
  Cs  Cs4  1  0.10382093  0.75000000  0.66829382  1
  Cs  Cs5  1  0.10382093  0.25000000  0.83170618  1
  Cs  Cs6  1  0.70224841  0.75000000  0.48865296  1
  Cs  Cs7  1  0.89617907  0.75000000  0.16829382  1
  Sb  Sb0  1  0.78924286  0.75000000  0.88676452  1
  Sb  Sb1  1  0.78924286  0.25000000  0.61323548  1
  Sb  Sb2  1  0.21075714  0.25000000  0.11323548  1
  Sb  Sb3  1  0.21075714  0.75000000  0.38676452  1
  Au  Au0  1  0.61433291  0.00000000  0.75000000  1
  Au  Au1  1  0.38566709  0.00000000  0.25000000  1
  Au  Au2  1  0.61433291  0.50000000  0.75000000  1
  Au  Au3  1  0.38566709  0.50000000  0.25000000  1
  S  S0  1  0.61292356  0.51322285  0.64033505  1
  S  S1  1  0.79766253  0.25000000  0.50198174  1
  S  S2  1  0.38707644  0.01322285  0.35966495  1
  S  S3  1  0.07992358  0.25000000  0.66156365  1
  S  S4  1  0.61292356  0.98677715  0.64033505  1
  S  S5  1  0.61292356  0.48677715  0.85966495  1
  S  S6  1  0.20233747  0.25000000  0.00198174  1
  S  S7  1  0.92007642  0.25000000  0.16156365  1
  S  S8  1  0.20233747  0.75000000  0.49801826  1
  S  S9  1  0.38707644  0.48677715  0.35966495  1
  S  S10  1  0.61292356  0.01322285  0.85966495  1
  S  S11  1  0.38707644  0.51322285  0.14033505  1
  S  S12  1  0.92007642  0.75000000  0.33843635  1
  S  S13  1  0.79766253  0.75000000  0.99801826  1
  S  S14  1  0.07992358  0.75000000  0.83843635  1
  S  S15  1  0.38707644  0.98677715  0.14033505  1
loop_
_geom_bond_atom_site_label_1
_geom_bond_atom_site_label_2
_geom_bond_distance
_geom_bond_site_symmetry_2
Cs0 S14 3.499842 1_555
Cs0 S13 3.575520 1_555
Cs0 S13 3.576790 1_455
Cs0 S15 3.677083 1_556
Cs0 S11 3.677083 1_556
Cs0 S6 3.785702 1_556
Cs0 S6 3.785702 1_566
Cs0 S10 4.016863 1_565
Cs0 S5 4.016863 1_555
Cs1 S7 3.555065 1_555
Cs1 S1 3.622719 1_555
Cs1 S12 3.720039 1_555
Cs1 S12 3.720039 1_545
Cs1 S9 3.965294 1_655
Cs1 S2 3.965294 1_655
Cs1 S9 4.080696 1_555
Cs1 S2 4.080696 1_555
Cs2 S7 3.499842 1_555
Cs2 S6 3.575520 1_555
Cs2 S6 3.576790 1_655
Cs2 S5 3.677083 1_554
Cs2 S10 3.677083 1_554
Cs2 S13 3.785702 1_554
Cs2 S13 3.785702 1_544
Cs2 S11 4.016863 1_555
Cs2 S15 4.016863 1_545
Cs3 S3 3.499842 1_555
Cs3 S1 3.575520 1_555
Cs3 S1 3.576790 1_455
Cs3 S9 3.677083 1_555
Cs3 S2 3.677083 1_555
Cs3 S8 3.785702 1_555
Cs3 S8 3.785702 1_545
Cs3 S0 4.016863 1_555
Cs3 S4 4.016863 1_545
Cs4 S14 3.555065 1_555
Cs4 S8 3.622719 1_555
Cs4 S3 3.720039 1_565
Cs4 S3 3.720039 1_555
Cs4 S4 3.965294 1_455
Cs4 S0 3.965294 1_455
Cs4 S4 4.080696 1_555
Cs4 S0 4.080696 1_555
Cs5 S3 3.555065 1_555
Cs5 S6 3.622719 1_556
Cs5 S14 3.720039 1_545
Cs5 S14 3.720039 1_555
Cs5 S5 3.965294 1_455
Cs5 S10 3.965294 1_455
Cs5 S5 4.080696 1_555
Cs5 S10 4.080696 1_555
Cs6 S12 3.499842 1_555
Cs6 S8 3.575520 1_555
Cs6 S8 3.576790 1_655
Cs6 S4 3.677083 1_555
Cs6 S0 3.677083 1_555
Cs6 S1 3.785702 1_565
Cs6 S1 3.785702 1_555
Cs6 S2 4.016863 1_565
Cs6 S9 4.016863 1_555
Cs7 S12 3.555065 1_555
Cs7 S13 3.622719 1_554
Cs7 S7 3.720039 1_565
Cs7 S7 3.720039 1_555
Cs7 S15 3.965294 1_655
Cs7 S11 3.965294 1_655
Cs7 S15 4.080696 1_555
Cs7 S11 4.080696 1_555
Au0 S10 2.290895 1_555
Au0 S4 2.290895 1_545
Au1 S2 2.290895 1_555
Au1 S15 2.290895 1_545
Au2 S5 2.290895 1_555
Au2 S0 2.290895 1_555
Au3 S9 2.290895 1_555
Au3 S11 2.290895 1_555
S0 Sb1 2.393171 1_555
S1 Sb1 2.322704 1_555
S2 Sb3 2.393171 1_545
S3 Sb1 2.307994 1_455
S4 Sb1 2.393171 1_565
S5 Sb0 2.393171 1_555
S6 Sb2 2.322704 1_555
S7 Sb2 2.307994 1_655
S8 Sb3 2.322704 1_555
S9 Sb3 2.393171 1_555
S10 Sb0 2.393171 1_545
S11 Sb2 2.393171 1_555
S12 Sb3 2.307994 1_655
S13 Sb0 2.322704 1_555
S14 Sb0 2.307994 1_455
S15 Sb2 2.393171 1_565
