# generated using pymatgen
data_Rb2BaCaBi2
_symmetry_space_group_name_H-M   'P 1'
_cell_length_a   5.50570691
_cell_length_b   10.63188476
_cell_length_c   8.93724468
_cell_angle_alpha   90.00000000
_cell_angle_beta   90.00000000
_cell_angle_gamma   90.00000000
_symmetry_Int_Tables_number   1
_chemical_formula_structural   Rb2BaCaBi2
_chemical_formula_sum   'Rb4 Ba2 Ca2 Bi4'
_cell_volume   523.15092500
_cell_formula_units_Z   2
loop_
 _symmetry_equiv_pos_site_id
 _symmetry_equiv_pos_as_xyz
  1  'x, y, z'
loop_
 _atom_site_type_symbol
 _atom_site_label
 _atom_site_symmetry_multiplicity
 _atom_site_fract_x
 _atom_site_fract_y
 _atom_site_fract_z
 _atom_site_occupancy
  Rb  Rb0  1  0.00000000  0.34349551  0.16344660  1
  Rb  Rb1  1  0.50000000  0.41458069  0.47356677  1
  Rb  Rb2  1  0.00000000  0.65650449  0.66344660  1
  Rb  Rb3  1  0.50000000  0.58541931  0.97356677  1
  Ba  Ba0  1  0.00000000  0.05156579  0.50240606  1
  Ba  Ba1  1  0.00000000  0.94843421  0.00240606  1
  Ca  Ca0  1  0.50000000  0.82069536  0.34849800  1
  Ca  Ca1  1  0.50000000  0.17930464  0.84849800  1
  Bi  Bi0  1  0.50000000  0.10828862  0.21262441  1
  Bi  Bi1  1  0.00000000  0.68697028  0.25386816  1
  Bi  Bi2  1  0.50000000  0.89171138  0.71262441  1
  Bi  Bi3  1  0.00000000  0.31302972  0.75386816  1
loop_
_geom_bond_atom_site_label_1
_geom_bond_atom_site_label_2
_geom_bond_distance
_geom_bond_site_symmetry_2
Rb0 Rb1 3.978852 1_455
Rb0 Rb1 3.978852 1_555
Rb0 Rb3 4.132039 1_554
Rb0 Rb3 4.132039 1_454
Rb1 Rb2 4.132039 1_555
Rb1 Rb2 4.132039 1_655
Rb2 Rb3 3.978852 1_555
Rb2 Rb3 3.978852 1_455
Ba0 Bi3 3.574675 1_555
Ba0 Bi2 3.741186 1_545
Ba0 Bi2 3.741186 1_445
Ba0 Bi0 3.827430 1_455
Ba0 Bi0 3.827430 1_555
Ba0 Rb0 4.337095 1_555
Ba0 Rb2 4.439993 1_545
Ba1 Bi1 3.574675 1_555
Ba1 Bi0 3.741186 1_465
Ba1 Bi0 3.741186 1_565
Ba1 Bi2 3.827430 1_554
Ba1 Bi2 3.827430 1_454
Ba1 Rb2 4.337095 1_554
Ba1 Rb0 4.439993 1_565
Ca0 Rb3 4.181549 1_554
Ca0 Rb2 4.306793 1_555
Ca0 Rb2 4.306793 1_655
Ca0 Rb1 4.460101 1_555
Ca1 Rb1 4.181549 1_555
Ca1 Rb0 4.306793 1_656
Ca1 Rb0 4.306793 1_556
Ca1 Rb3 4.460101 1_555
Bi0 Ca0 3.289967 1_545
Bi0 Ca1 3.340727 1_554
Bi0 Rb0 3.744975 1_555
Bi0 Rb0 3.744975 1_655
Bi0 Rb1 4.005404 1_555
Bi1 Ca0 3.211671 1_455
Bi1 Ca0 3.211671 1_555
Bi1 Rb2 3.674806 1_555
Bi1 Rb0 3.740132 1_555
Bi1 Rb3 3.875506 1_454
Bi1 Rb3 3.875506 1_554
Bi2 Ca1 3.289967 1_565
Bi2 Ca0 3.340727 1_555
Bi2 Rb2 3.744975 1_655
Bi2 Rb2 3.744975 1_555
Bi2 Rb3 4.005404 1_555
Bi3 Ca1 3.211671 1_455
Bi3 Ca1 3.211671 1_555
Bi3 Rb0 3.674806 1_556
Bi3 Rb2 3.740132 1_555
Bi3 Rb1 3.875506 1_455
Bi3 Rb1 3.875506 1_555
