# generated using pymatgen
data_Li2CdSnSe4
_symmetry_space_group_name_H-M   'P 1'
_cell_length_a   6.87783285
_cell_length_b   7.30592946
_cell_length_c   8.37494607
_cell_angle_alpha   90.00000000
_cell_angle_beta   90.00000000
_cell_angle_gamma   90.00000000
_symmetry_Int_Tables_number   1
_chemical_formula_structural   Li2CdSnSe4
_chemical_formula_sum   'Li4 Cd2 Sn2 Se8'
_cell_volume   420.83234371
_cell_formula_units_Z   2
loop_
 _symmetry_equiv_pos_site_id
 _symmetry_equiv_pos_as_xyz
  1  'x, y, z'
loop_
 _atom_site_type_symbol
 _atom_site_label
 _atom_site_symmetry_multiplicity
 _atom_site_fract_x
 _atom_site_fract_y
 _atom_site_fract_z
 _atom_site_occupancy
  Li  Li0  1  0.48416481  0.82765949  0.74715547  1
  Li  Li1  1  0.98416481  0.17234051  0.24715547  1
  Li  Li2  1  0.98416481  0.17234051  0.75284453  1
  Li  Li3  1  0.48416481  0.82765949  0.25284453  1
  Cd  Cd0  1  0.98047990  0.65588209  0.50000000  1
  Cd  Cd1  1  0.48047990  0.34411791  0.00000000  1
  Sn  Sn0  1  0.48320362  0.33012942  0.50000000  1
  Sn  Sn1  1  0.98320362  0.66987058  0.00000000  1
  Se  Se0  1  0.36905169  0.65953239  0.50000000  1
  Se  Se1  1  0.86905169  0.34046761  0.00000000  1
  Se  Se2  1  0.85226119  0.31323846  0.50000000  1
  Se  Se3  1  0.35226119  0.68676154  0.00000000  1
  Se  Se4  1  0.85583749  0.84094441  0.75717648  1
  Se  Se5  1  0.85583749  0.84094441  0.24282352  1
  Se  Se6  1  0.35583749  0.15905559  0.25717648  1
  Se  Se7  1  0.35583749  0.15905559  0.74282352  1
loop_
_geom_bond_atom_site_label_1
_geom_bond_atom_site_label_2
_geom_bond_distance
_geom_bond_site_symmetry_2
Li0 Se3 2.523239 1_556
Li0 Se0 2.533803 1_555
Li0 Se4 2.559521 1_555
Li0 Se7 2.577270 1_565
Li1 Se2 2.523239 1_555
Li1 Se1 2.533803 1_555
Li1 Se6 2.559521 1_655
Li1 Se5 2.577270 1_545
Li2 Se2 2.523239 1_555
Li2 Se1 2.533803 1_556
Li2 Se7 2.559521 1_655
Li2 Se4 2.577270 1_545
Li3 Se3 2.523239 1_555
Li3 Se0 2.533803 1_555
Li3 Se5 2.559521 1_555
Li3 Se6 2.577270 1_565
Cd0 Se2 2.654120 1_555
Cd0 Se0 2.672665 1_655
Cd0 Se4 2.683650 1_555
Cd0 Se5 2.683650 1_555
Cd1 Se3 2.654120 1_555
Cd1 Se1 2.672665 1_555
Cd1 Se6 2.683650 1_555
Cd1 Se7 2.683650 1_554
Se0 Sn0 2.531424 1_555
Se1 Sn1 2.531424 1_555
Se2 Sn0 2.541314 1_555
Se3 Sn1 2.541314 1_455
Se4 Sn1 2.542672 1_556
Se5 Sn1 2.542672 1_555
Se6 Sn0 2.542672 1_555
Se7 Sn0 2.542672 1_555
