# generated using pymatgen
data_NaSrCuH4
_symmetry_space_group_name_H-M   'P 1'
_cell_length_a   7.16771541
_cell_length_b   7.16771541
_cell_length_c   7.16771541
_cell_angle_alpha   90.00000000
_cell_angle_beta   90.00000000
_cell_angle_gamma   90.00000000
_symmetry_Int_Tables_number   1
_chemical_formula_structural   NaSrCuH4
_chemical_formula_sum   'Na4 Sr4 Cu4 H16'
_cell_volume   368.24958113
_cell_formula_units_Z   4
loop_
 _symmetry_equiv_pos_site_id
 _symmetry_equiv_pos_as_xyz
  1  'x, y, z'
loop_
 _atom_site_type_symbol
 _atom_site_label
 _atom_site_symmetry_multiplicity
 _atom_site_fract_x
 _atom_site_fract_y
 _atom_site_fract_z
 _atom_site_occupancy
  Na  Na0  1  0.83657088  0.33657088  0.16342812  1
  Na  Na1  1  0.16342812  0.83657088  0.33657088  1
  Na  Na2  1  0.66342912  0.66342912  0.66342912  1
  Na  Na3  1  0.33657088  0.16342812  0.83657088  1
  Sr  Sr0  1  0.61963449  0.88036451  0.11963449  1
  Sr  Sr1  1  0.38036451  0.38036451  0.38036451  1
  Sr  Sr2  1  0.88036451  0.11963449  0.61963449  1
  Sr  Sr3  1  0.11963449  0.61963449  0.88036451  1
  Cu  Cu0  1  0.03133336  0.03133336  0.03133336  1
  Cu  Cu1  1  0.96866564  0.53133336  0.46866664  1
  Cu  Cu2  1  0.46866664  0.96866564  0.53133336  1
  Cu  Cu3  1  0.53133336  0.46866664  0.96866564  1
  H  H0  1  0.53986799  0.26158847  0.06681629  1
  H  H1  1  0.40180042  0.59820058  0.09820058  1
  H  H2  1  0.23841153  0.93318271  0.03986799  1
  H  H3  1  0.06681629  0.53986799  0.26158847  1
  H  H4  1  0.93318271  0.03986799  0.23841153  1
  H  H5  1  0.76158747  0.43318371  0.46013301  1
  H  H6  1  0.59820058  0.09820058  0.40180042  1
  H  H7  1  0.46013301  0.76158747  0.43318371  1
  H  H8  1  0.96013301  0.73841253  0.56681529  1
  H  H9  1  0.09820058  0.40180042  0.59820058  1
  H  H10  1  0.26158847  0.06681629  0.53986799  1
  H  H11  1  0.43318371  0.46013301  0.76158747  1
  H  H12  1  0.56681529  0.96013301  0.73841253  1
  H  H13  1  0.73841253  0.56681529  0.96013301  1
  H  H14  1  0.90179942  0.90179942  0.90179942  1
  H  H15  1  0.03986799  0.23841153  0.93318271  1
loop_
_geom_bond_atom_site_label_1
_geom_bond_atom_site_label_2
_geom_bond_distance
_geom_bond_site_symmetry_2
Cu0 H14 1.608144 1_444
Cu0 H4 1.643702 1_455
Cu0 H15 1.643702 1_554
Cu0 H2 1.643702 1_545
Cu1 H9 1.608144 1_655
Cu1 H5 1.643699 1_555
Cu1 H8 1.643702 1_555
Cu1 H3 1.643702 1_655
Cu2 H6 1.608144 1_565
Cu2 H7 1.643699 1_555
Cu2 H12 1.643702 1_555
Cu2 H10 1.643702 1_565
Cu3 H1 1.608144 1_556
Cu3 H11 1.643699 1_555
Cu3 H13 1.643702 1_555
Cu3 H0 1.643702 1_556
H0 Na0 2.300254 1_555
H0 Na3 2.311276 1_554
H0 Sr1 2.661352 1_555
H0 Sr0 2.817233 1_545
H1 Sr0 2.559663 1_555
H1 Sr1 2.559673 1_555
H1 Sr3 2.559683 1_554
H2 Na1 2.300256 1_555
H2 Na3 2.311273 1_564
H2 Sr3 2.661355 1_554
H2 Sr0 2.817226 1_555
H3 Na1 2.300254 1_555
H3 Na0 2.311276 1_455
H3 Sr1 2.661352 1_555
H3 Sr3 2.817233 1_554
H4 Na0 2.300256 1_555
H4 Na1 2.311273 1_645
H4 Sr0 2.661355 1_545
H4 Sr2 2.817226 1_555
H5 Na0 2.300271 1_555
H5 Na2 2.311267 1_555
H5 Sr2 2.661355 1_555
H5 Sr1 2.817230 1_555
H6 Sr2 2.559663 1_555
H6 Sr1 2.559673 1_555
H6 Sr0 2.559683 1_545
H7 Na1 2.300271 1_555
H7 Na2 2.311267 1_555
H7 Sr0 2.661355 1_555
H7 Sr1 2.817230 1_555
H8 Na2 2.300267 1_555
H8 Na1 2.311257 1_655
H8 Sr3 2.661357 1_655
H8 Sr2 2.817223 1_565
H9 Sr3 2.559663 1_555
H9 Sr1 2.559673 1_555
H9 Sr2 2.559683 1_455
H10 Na3 2.300254 1_555
H10 Na1 2.311276 1_545
H10 Sr1 2.661352 1_555
H10 Sr2 2.817233 1_455
H11 Na3 2.300271 1_555
H11 Na2 2.311267 1_555
H11 Sr3 2.661355 1_555
H11 Sr1 2.817230 1_555
H12 Na2 2.300267 1_555
H12 Na3 2.311257 1_565
H12 Sr2 2.661357 1_565
H12 Sr0 2.817223 1_556
H13 Na2 2.300267 1_555
H13 Na0 2.311257 1_556
H13 Sr0 2.661357 1_556
H13 Sr3 2.817223 1_655
H14 Sr0 2.559674 1_556
H14 Sr3 2.559674 1_655
H14 Sr2 2.559674 1_565
H15 Na3 2.300256 1_555
H15 Na0 2.311273 1_456
H15 Sr2 2.661355 1_455
H15 Sr3 2.817226 1_555
