# generated using pymatgen
data_CsRh5Se8
_symmetry_space_group_name_H-M   'P 1'
_cell_length_a   9.73651041
_cell_length_b   9.73651037
_cell_length_c   8.96626549
_cell_angle_alpha   75.06055498
_cell_angle_beta   75.06055574
_cell_angle_gamma   21.95307799
_symmetry_Int_Tables_number   1
_chemical_formula_structural   CsRh5Se8
_chemical_formula_sum   'Cs1 Rh5 Se8'
_cell_volume   306.61720516
_cell_formula_units_Z   1
loop_
 _symmetry_equiv_pos_site_id
 _symmetry_equiv_pos_as_xyz
  1  'x, y, z'
loop_
 _atom_site_type_symbol
 _atom_site_label
 _atom_site_symmetry_multiplicity
 _atom_site_fract_x
 _atom_site_fract_y
 _atom_site_fract_z
 _atom_site_occupancy
  Cs  Cs0  1  0.50000000  0.50000000  0.50000000  1
  Rh  Rh0  1  0.00000000  0.00000000  0.00000000  1
  Rh  Rh1  1  0.66014937  0.66014937  0.02292633  1
  Rh  Rh2  1  0.33985063  0.33985063  0.97707367  1
  Rh  Rh3  1  0.29686330  0.29686330  0.32757278  1
  Rh  Rh4  1  0.70313670  0.70313670  0.67242722  1
  Se  Se0  1  0.57600551  0.57600551  0.85987118  1
  Se  Se1  1  0.42399449  0.42399449  0.14012882  1
  Se  Se2  1  0.91133268  0.91133268  0.83689542  1
  Se  Se3  1  0.08866732  0.08866732  0.16310458  1
  Se  Se4  1  0.82321680  0.82321680  0.48638192  1
  Se  Se5  1  0.17678320  0.17678320  0.51361808  1
  Se  Se6  1  0.23815385  0.23815385  0.84512359  1
  Se  Se7  1  0.76184615  0.76184615  0.15487641  1
loop_
_geom_bond_atom_site_label_1
_geom_bond_atom_site_label_2
_geom_bond_distance
_geom_bond_site_symmetry_2
Cs0 Se2 3.570089 1_545
Cs0 Se3 3.570089 1_565
Cs0 Se2 3.570089 1_455
Cs0 Se3 3.570089 1_655
Cs0 Se0 3.871056 1_555
Cs0 Se1 3.871056 1_555
Cs0 Se5 3.884554 1_565
Cs0 Se4 3.884554 1_545
Cs0 Se5 3.884554 1_655
Cs0 Se4 3.884554 1_455
Rh0 Se0 2.483530 1_454
Rh0 Se1 2.483530 1_545
Rh0 Se0 2.483530 1_544
Rh0 Se1 2.483530 1_455
Rh0 Se3 2.512724 1_555
Rh0 Se2 2.512724 1_444
Rh1 Se0 2.441315 1_554
Rh1 Se3 2.445806 1_655
Rh1 Se3 2.445806 1_565
Rh1 Se7 2.527314 1_555
Rh1 Se6 2.636967 1_564
Rh1 Se6 2.636967 1_654
Rh2 Se1 2.441315 1_556
Rh2 Se2 2.445806 1_455
Rh2 Se2 2.445806 1_545
Rh2 Se6 2.527314 1_555
Rh2 Se7 2.636967 1_546
Rh2 Se7 2.636967 1_456
Rh3 Se5 2.457851 1_555
Rh3 Se4 2.468821 1_545
Rh3 Se4 2.468821 1_455
Rh3 Se1 2.566310 1_555
Rh3 Se7 2.612878 1_455
Rh3 Se7 2.612878 1_545
Rh4 Se4 2.457851 1_555
Rh4 Se5 2.468821 1_565
Rh4 Se5 2.468821 1_655
Rh4 Se0 2.566310 1_555
Rh4 Se6 2.612878 1_655
Rh4 Se6 2.612878 1_565
