# generated using pymatgen
data_Na3UO4
_symmetry_space_group_name_H-M   'P 1'
_cell_length_a   6.68637506
_cell_length_b   6.68637472
_cell_length_c   6.94702990
_cell_angle_alpha   58.70184956
_cell_angle_beta   58.70184523
_cell_angle_gamma   60.30318092
_symmetry_Int_Tables_number   1
_chemical_formula_structural   Na3UO4
_chemical_formula_sum   'Na6 U2 O8'
_cell_volume   215.67665855
_cell_formula_units_Z   2
loop_
 _symmetry_equiv_pos_site_id
 _symmetry_equiv_pos_as_xyz
  1  'x, y, z'
loop_
 _atom_site_type_symbol
 _atom_site_label
 _atom_site_symmetry_multiplicity
 _atom_site_fract_x
 _atom_site_fract_y
 _atom_site_fract_z
 _atom_site_occupancy
  Na  Na0  1  0.00000000  0.50000000  0.00000000  1
  Na  Na1  1  0.50000000  -0.00000000  0.00000000  1
  Na  Na2  1  0.50000000  0.50000000  0.00000000  1
  Na  Na3  1  0.50000000  -0.00000000  0.50000000  1
  Na  Na4  1  0.50000000  0.50000000  0.50000000  1
  Na  Na5  1  0.00000000  0.50000000  0.50000000  1
  U  U0  1  0.00000000  -0.00000000  0.00000000  1
  U  U1  1  0.00000000  -0.00000000  0.50000000  1
  O  O0  1  0.21810714  0.21810714  0.28177547  1
  O  O1  1  0.21587386  0.78395912  0.25008201  1
  O  O2  1  0.21810714  0.21810714  0.78201026  1
  O  O3  1  0.21604088  0.78412614  0.74991799  1
  O  O4  1  0.78395912  0.21587386  0.25008201  1
  O  O5  1  0.78189286  0.78189286  0.21798974  1
  O  O6  1  0.78412614  0.21604088  0.74991799  1
  O  O7  1  0.78189286  0.78189286  0.71822453  1
loop_
_geom_bond_atom_site_label_1
_geom_bond_atom_site_label_2
_geom_bond_distance
_geom_bond_site_symmetry_2
Na0 O3 2.323049 1_554
Na0 O4 2.323049 1_455
Na0 O2 2.433164 1_554
Na0 O5 2.433164 1_455
Na0 O7 2.433164 1_454
Na0 O0 2.433164 1_555
Na1 O1 2.323049 1_545
Na1 O6 2.323049 1_554
Na1 O7 2.433164 1_544
Na1 O0 2.433164 1_555
Na1 O2 2.433164 1_554
Na1 O5 2.433164 1_545
Na2 O6 2.580004 1_554
Na2 O1 2.580004 1_555
Na2 O3 2.580004 1_554
Na2 O4 2.580004 1_555
Na2 O0 2.605813 1_555
Na2 O7 2.605813 1_554
Na3 O3 2.321513 1_545
Na3 O4 2.321513 1_555
Na3 O5 2.434328 1_545
Na3 O2 2.434328 1_555
Na3 O0 2.434328 1_555
Na3 O7 2.434328 1_545
Na4 O4 2.580018 1_555
Na4 O3 2.580018 1_555
Na4 O1 2.580018 1_555
Na4 O6 2.580018 1_555
Na4 O5 2.605813 1_555
Na4 O2 2.605813 1_555
Na5 O1 2.321513 1_555
Na5 O6 2.321513 1_455
Na5 O0 2.434328 1_555
Na5 O7 2.434328 1_455
Na5 O5 2.434328 1_455
Na5 O2 2.434328 1_555
O0 U1 2.016179 1_555
O1 U0 2.262849 1_565
O1 U1 2.262865 1_565
O2 U0 2.016179 1_556
O3 U0 2.262849 1_566
O3 U1 2.262865 1_565
O4 U0 2.262849 1_655
O4 U1 2.262865 1_655
O5 U0 2.016179 1_665
O6 U0 2.262849 1_656
O6 U1 2.262865 1_655
O7 U1 2.016179 1_665
