# generated using pymatgen
data_Y2CdS4
_symmetry_space_group_name_H-M   'P 1'
_cell_length_a   7.95828930
_cell_length_b   7.95828968
_cell_length_c   7.95828949
_cell_angle_alpha   59.99999784
_cell_angle_beta   60.00000081
_cell_angle_gamma   60.00000157
_symmetry_Int_Tables_number   1
_chemical_formula_structural   Y2CdS4
_chemical_formula_sum   'Y4 Cd2 S8'
_cell_volume   356.40533950
_cell_formula_units_Z   2
loop_
 _symmetry_equiv_pos_site_id
 _symmetry_equiv_pos_as_xyz
  1  'x, y, z'
loop_
 _atom_site_type_symbol
 _atom_site_label
 _atom_site_symmetry_multiplicity
 _atom_site_fract_x
 _atom_site_fract_y
 _atom_site_fract_z
 _atom_site_occupancy
  Y  Y0  1  -0.00000000  0.50000000  0.50000000  1
  Y  Y1  1  0.50000000  0.50000000  0.00000000  1
  Y  Y2  1  0.50000000  -0.00000000  0.50000000  1
  Y  Y3  1  0.50000000  0.50000000  0.50000000  1
  Cd  Cd0  1  0.12500000  0.12500000  0.12500000  1
  Cd  Cd1  1  0.87500000  0.87500000  0.87500000  1
  S  S0  1  0.74300903  0.74300903  0.74300903  1
  S  S1  1  0.72902710  0.25699097  0.25699097  1
  S  S2  1  0.25699097  0.25699097  0.72902710  1
  S  S3  1  0.74300903  0.27097290  0.74300903  1
  S  S4  1  0.25699097  0.72902710  0.25699097  1
  S  S5  1  0.74300903  0.74300903  0.27097290  1
  S  S6  1  0.25699097  0.25699097  0.25699097  1
  S  S7  1  0.27097290  0.74300903  0.74300903  1
loop_
_geom_bond_atom_site_label_1
_geom_bond_atom_site_label_2
_geom_bond_distance
_geom_bond_site_symmetry_2
Cd0 S2 2.572999 1_554
Cd0 S1 2.572999 1_455
Cd0 S4 2.572999 1_545
Cd0 S6 2.572999 1_555
Cd1 S5 2.572999 1_556
Cd1 S7 2.572999 1_655
Cd1 S3 2.572999 1_565
Cd1 S0 2.572999 1_555
S0 Y1 2.737261 1_556
S0 Y2 2.737261 1_565
S0 Y0 2.737262 1_655
S1 Y1 2.737261 1_555
S1 Y2 2.737261 1_555
S1 Y3 2.737262 1_555
S2 Y3 2.737261 1_555
S2 Y0 2.737261 1_555
S2 Y2 2.737262 1_555
S3 Y3 2.737261 1_555
S3 Y0 2.737261 1_655
S3 Y1 2.737262 1_556
S4 Y3 2.737261 1_555
S4 Y0 2.737261 1_555
S4 Y1 2.737262 1_555
S5 Y3 2.737261 1_555
S5 Y0 2.737261 1_655
S5 Y2 2.737262 1_565
S6 Y1 2.737261 1_555
S6 Y2 2.737261 1_555
S6 Y0 2.737262 1_555
S7 Y1 2.737261 1_556
S7 Y2 2.737261 1_565
S7 Y3 2.737262 1_555
