# generated using pymatgen
data_Bi4Pt3PbO14
_symmetry_space_group_name_H-M   'P 1'
_cell_length_a   7.43641319
_cell_length_b   7.43641356
_cell_length_c   7.48024443
_cell_angle_alpha   60.19364074
_cell_angle_beta   60.19364146
_cell_angle_gamma   60.00000165
_symmetry_Int_Tables_number   1
_chemical_formula_structural   Bi4Pt3PbO14
_chemical_formula_sum   'Bi4 Pt3 Pb1 O14'
_cell_volume   293.35452544
_cell_formula_units_Z   1
loop_
 _symmetry_equiv_pos_site_id
 _symmetry_equiv_pos_as_xyz
  1  'x, y, z'
loop_
 _atom_site_type_symbol
 _atom_site_label
 _atom_site_symmetry_multiplicity
 _atom_site_fract_x
 _atom_site_fract_y
 _atom_site_fract_z
 _atom_site_occupancy
  Bi  Bi0  1  0.12500000  0.12500000  0.62500000  1
  Bi  Bi1  1  0.12500000  0.62500000  0.12500000  1
  Bi  Bi2  1  0.62500000  0.12500000  0.12500000  1
  Bi  Bi3  1  0.12500000  0.12500000  0.12500000  1
  Pt  Pt0  1  0.62500000  0.12500000  0.62500000  1
  Pt  Pt1  1  0.12500000  0.62500000  0.62500000  1
  Pt  Pt2  1  0.62500000  0.62500000  0.62500000  1
  Pb  Pb0  1  0.62500000  0.62500000  0.12500000  1
  O  O0  1  0.24854690  0.24854690  0.25436029  1
  O  O1  1  0.00145310  0.00145310  0.99563971  1
  O  O2  1  0.53674545  0.95425784  0.55473988  1
  O  O3  1  0.27094848  0.71514866  0.29875420  1
  O  O4  1  0.53485134  0.53485134  0.95124580  1
  O  O5  1  0.95425784  0.53674545  0.55473988  1
  O  O6  1  0.53485134  0.97905152  0.95124580  1
  O  O7  1  0.95425784  0.95425784  0.55473988  1
  O  O8  1  0.97905152  0.53485134  0.95124580  1
  O  O9  1  0.71514866  0.27094848  0.29875420  1
  O  O10  1  0.29574216  0.71325455  0.69526012  1
  O  O11  1  0.71325455  0.29574216  0.69526012  1
  O  O12  1  0.29574216  0.29574216  0.69526012  1
  O  O13  1  0.71514866  0.71514866  0.29875420  1
loop_
_geom_bond_atom_site_label_1
_geom_bond_atom_site_label_2
_geom_bond_distance
_geom_bond_site_symmetry_2
Bi0 O1 2.270320 1_555
Bi0 O0 2.270320 1_555
Bi0 O12 2.537618 1_555
Bi0 O7 2.537618 1_445
Bi0 O2 2.537624 1_545
Bi0 O11 2.537624 1_455
Bi0 O5 2.537624 1_455
Bi0 O10 2.537624 1_545
Bi1 O1 2.288278 1_564
Bi1 O0 2.288278 1_555
Bi1 O4 2.512530 1_554
Bi1 O13 2.512530 1_455
Bi1 O3 2.512530 1_555
Bi1 O8 2.512530 1_454
Bi1 O5 2.656050 1_455
Bi1 O10 2.656050 1_554
Bi2 O1 2.288278 1_654
Bi2 O0 2.288278 1_555
Bi2 O4 2.512530 1_554
Bi2 O13 2.512530 1_545
Bi2 O6 2.512530 1_544
Bi2 O9 2.512530 1_555
Bi2 O2 2.656050 1_545
Bi2 O11 2.656050 1_554
Bi3 O0 2.288284 1_555
Bi3 O1 2.288284 1_554
Bi3 O6 2.512530 1_544
Bi3 O9 2.512530 1_455
Bi3 O3 2.512530 1_545
Bi3 O8 2.512530 1_454
Bi3 O7 2.656049 1_445
Bi3 O12 2.656049 1_554
O2 Pt0 2.039293 1_565
O2 Pt2 2.039300 1_555
O3 Pt1 2.012698 1_555
O3 Pb0 2.184018 1_555
O4 Pt2 2.012698 1_555
O4 Pb0 2.184018 1_556
O5 Pt1 2.039293 1_655
O5 Pt2 2.039300 1_555
O6 Pt0 2.012698 1_565
O6 Pb0 2.184018 1_556
O7 Pt0 2.039299 1_565
O7 Pt1 2.039299 1_655
O8 Pt1 2.012698 1_655
O8 Pb0 2.184018 1_556
O9 Pt0 2.012698 1_555
O9 Pb0 2.184018 1_555
O10 Pt1 2.039293 1_555
O10 Pt2 2.039300 1_555
O11 Pt0 2.039293 1_555
O11 Pt2 2.039300 1_555
O12 Pt0 2.039299 1_555
O12 Pt1 2.039299 1_555
O13 Pt2 2.012698 1_555
O13 Pb0 2.184018 1_555
