# generated using pymatgen
data_KMnAlF6
_symmetry_space_group_name_H-M   'P 1'
_cell_length_a   7.03413427
_cell_length_b   6.99007897
_cell_length_c   9.72096042
_cell_angle_alpha   90.00000000
_cell_angle_beta   90.00000000
_cell_angle_gamma   90.00000000
_symmetry_Int_Tables_number   1
_chemical_formula_structural   KMnAlF6
_chemical_formula_sum   'K4 Mn4 Al4 F24'
_cell_volume   477.97140059
_cell_formula_units_Z   4
loop_
 _symmetry_equiv_pos_site_id
 _symmetry_equiv_pos_as_xyz
  1  'x, y, z'
loop_
 _atom_site_type_symbol
 _atom_site_label
 _atom_site_symmetry_multiplicity
 _atom_site_fract_x
 _atom_site_fract_y
 _atom_site_fract_z
 _atom_site_occupancy
  K  K0  1  0.25000000  0.48259118  0.88044010  1
  K  K1  1  0.75000000  0.01740882  0.38044010  1
  K  K2  1  0.75000000  0.51740882  0.11955990  1
  K  K3  1  0.25000000  0.98259118  0.61955990  1
  Mn  Mn0  1  0.75000000  0.19039516  0.73389894  1
  Mn  Mn1  1  0.75000000  0.69039516  0.76610106  1
  Mn  Mn2  1  0.25000000  0.30960484  0.23389894  1
  Mn  Mn3  1  0.25000000  0.80960484  0.26610106  1
  Al  Al0  1  0.00000000  0.50000000  0.50000000  1
  Al  Al1  1  0.50000000  0.50000000  0.50000000  1
  Al  Al2  1  0.50000000  0.00000000  0.00000000  1
  Al  Al3  1  0.00000000  0.00000000  0.00000000  1
  F  F0  1  0.55363946  0.77065227  0.92590111  1
  F  F1  1  0.05363946  0.22934773  0.07409889  1
  F  F2  1  0.94636054  0.27065227  0.57409889  1
  F  F3  1  0.44636054  0.72934773  0.42590111  1
  F  F4  1  0.44636054  0.22934773  0.07409889  1
  F  F5  1  0.94636054  0.77065227  0.92590111  1
  F  F6  1  0.05363946  0.72934773  0.42590111  1
  F  F7  1  0.55363946  0.27065227  0.57409889  1
  F  F8  1  0.01859267  0.60287432  0.66902410  1
  F  F9  1  0.51859267  0.39712568  0.33097590  1
  F  F10  1  0.48140733  0.10287432  0.83097590  1
  F  F11  1  0.98140733  0.89712568  0.16902410  1
  F  F12  1  0.75000000  0.92568241  0.64548965  1
  F  F13  1  0.25000000  0.07431759  0.35451035  1
  F  F14  1  0.75000000  0.42568241  0.85451035  1
  F  F15  1  0.25000000  0.57431759  0.14548965  1
  F  F16  1  0.75000000  0.06404065  0.00146295  1
  F  F17  1  0.25000000  0.93595935  0.99853705  1
  F  F18  1  0.75000000  0.56404065  0.49853705  1
  F  F19  1  0.25000000  0.43595935  0.50146295  1
  F  F20  1  0.01859267  0.10287432  0.83097590  1
  F  F21  1  0.51859267  0.89712568  0.16902410  1
  F  F22  1  0.48140733  0.60287432  0.66902410  1
  F  F23  1  0.98140733  0.39712568  0.33097590  1
loop_
_geom_bond_atom_site_label_1
_geom_bond_atom_site_label_2
_geom_bond_distance
_geom_bond_site_symmetry_2
Al0 F6 1.797590 1_555
Al0 F2 1.797590 1_455
Al0 F23 1.798307 1_455
Al0 F8 1.798307 1_555
Al0 F18 1.814671 1_455
Al0 F19 1.814671 1_555
Al1 F3 1.797590 1_555
Al1 F7 1.797590 1_555
Al1 F9 1.798307 1_555
Al1 F22 1.798307 1_555
Al1 F18 1.814671 1_555
Al1 F19 1.814671 1_555
Al2 F0 1.797590 1_544
Al2 F4 1.797590 1_555
Al2 F21 1.798307 1_545
Al2 F10 1.798307 1_554
Al2 F16 1.814671 1_555
Al2 F17 1.814671 1_544
Al3 F5 1.797590 1_444
Al3 F1 1.797590 1_555
Al3 F20 1.798307 1_554
Al3 F11 1.798307 1_445
Al3 F16 1.814671 1_455
Al3 F17 1.814671 1_544
F0 Mn1 2.153043 1_555
F0 K2 2.930078 1_556
F0 K0 2.968430 1_555
F1 Mn2 2.153043 1_555
F1 K0 2.930078 1_554
F1 K2 2.968430 1_455
F2 Mn0 2.153043 1_555
F2 K1 2.930078 1_555
F2 K3 2.968430 1_645
F3 Mn3 2.153043 1_555
F3 K3 2.930078 1_555
F3 K1 2.968430 1_565
F4 Mn2 2.153043 1_555
F4 K0 2.930078 1_554
F4 K2 2.968430 1_555
F5 Mn1 2.153043 1_555
F5 K2 2.930078 1_556
F5 K0 2.968430 1_655
F6 Mn3 2.153043 1_555
F6 K3 2.930078 1_555
F6 K1 2.968430 1_465
F7 Mn0 2.153043 1_555
F7 K1 2.930078 1_555
F7 K3 2.968430 1_545
F8 Mn1 2.198710 1_455
F8 K0 2.753217 1_555
F8 K3 3.150528 1_555
F9 Mn2 2.198710 1_555
F9 K2 2.753217 1_555
F9 K1 3.150528 1_555
F10 Mn0 2.198710 1_555
F10 K3 2.753217 1_545
F10 K0 3.150528 1_555
F11 Mn3 2.198710 1_655
F11 K1 2.753217 1_565
F11 K2 3.150528 1_555
F12 Mn1 2.019807 1_555
F12 Mn0 2.040209 1_565
F12 K1 2.655117 1_565
F13 Mn2 2.019807 1_555
F13 Mn3 2.040209 1_545
F13 K3 2.655117 1_545
F14 Mn0 2.019807 1_555
F14 Mn1 2.040209 1_555
F14 K2 2.655117 1_556
F15 Mn3 2.019807 1_555
F15 Mn2 2.040209 1_555
F15 K0 2.655117 1_554
F20 Mn0 2.198710 1_455
F20 K3 2.753217 1_545
F20 K0 3.150528 1_555
F21 Mn3 2.198710 1_555
F21 K1 2.753217 1_565
F21 K2 3.150528 1_555
F22 Mn1 2.198710 1_555
F22 K0 2.753217 1_555
F22 K3 3.150528 1_555
F23 Mn2 2.198710 1_655
F23 K2 2.753217 1_555
F23 K1 3.150528 1_555
