# generated using pymatgen
data_Rb3BrO
_symmetry_space_group_name_H-M   'P 1'
_cell_length_a   5.47741978
_cell_length_b   5.47741978
_cell_length_c   5.47741978
_cell_angle_alpha   90.00000000
_cell_angle_beta   90.00000000
_cell_angle_gamma   90.00000000
_symmetry_Int_Tables_number   1
_chemical_formula_structural   Rb3BrO
_chemical_formula_sum   'Rb3 Br1 O1'
_cell_volume   164.33424632
_cell_formula_units_Z   1
loop_
 _symmetry_equiv_pos_site_id
 _symmetry_equiv_pos_as_xyz
  1  'x, y, z'
loop_
 _atom_site_type_symbol
 _atom_site_label
 _atom_site_symmetry_multiplicity
 _atom_site_fract_x
 _atom_site_fract_y
 _atom_site_fract_z
 _atom_site_occupancy
  Rb  Rb0  1  0.50000000  -0.00000000  0.50000000  1
  Rb  Rb1  1  0.50000000  0.50000000  -0.00000000  1
  Rb  Rb2  1  -0.00000000  0.50000000  0.50000000  1
  Br  Br0  1  0.00000000  0.00000000  0.00000000  1
  O  O0  1  0.50000000  0.50000000  0.50000000  1
loop_
_geom_bond_atom_site_label_1
_geom_bond_atom_site_label_2
_geom_bond_distance
_geom_bond_site_symmetry_2
Br0 Rb1 3.873121 1_445
Br0 Rb2 3.873121 1_554
Br0 Rb1 3.873121 1_545
Br0 Rb0 3.873121 1_554
Br0 Rb0 3.873121 1_455
Br0 Rb2 3.873121 1_544
Br0 Rb2 3.873121 1_545
Br0 Rb2 3.873121 1_555
Br0 Rb0 3.873121 1_555
Br0 Rb1 3.873121 1_455
Br0 Rb1 3.873121 1_555
Br0 Rb0 3.873121 1_454
O0 Rb0 2.738710 1_555
O0 Rb2 2.738710 1_655
O0 Rb1 2.738710 1_555
O0 Rb2 2.738710 1_555
O0 Rb0 2.738710 1_565
O0 Rb1 2.738710 1_556
