# generated using pymatgen
data_Sc22Tc5Ir2Rh
_symmetry_space_group_name_H-M   'P 1'
_cell_length_a   9.49180990
_cell_length_b   9.47528782
_cell_length_c   9.49180998
_cell_angle_alpha   60.05755861
_cell_angle_beta   60.24955157
_cell_angle_gamma   60.05756505
_symmetry_Int_Tables_number   1
_chemical_formula_structural   Sc22Tc5Ir2Rh
_chemical_formula_sum   'Sc22 Tc5 Ir2 Rh1'
_cell_volume   605.29432515
_cell_formula_units_Z   1
loop_
 _symmetry_equiv_pos_site_id
 _symmetry_equiv_pos_as_xyz
  1  'x, y, z'
loop_
 _atom_site_type_symbol
 _atom_site_label
 _atom_site_symmetry_multiplicity
 _atom_site_fract_x
 _atom_site_fract_y
 _atom_site_fract_z
 _atom_site_occupancy
  Sc  Sc0  1  0.80165342  0.80294195  0.19834658  1
  Sc  Sc1  1  0.19642769  0.80357231  0.19642769  1
  Sc  Sc2  1  0.80165342  0.19705805  0.19834658  1
  Sc  Sc3  1  0.19834658  0.19705805  0.80165342  1
  Sc  Sc4  1  0.80357231  0.19642769  0.80357231  1
  Sc  Sc5  1  0.19834658  0.80294195  0.80165342  1
  Sc  Sc6  1  0.61213797  0.61849540  0.15087023  1
  Sc  Sc7  1  0.61715128  0.14873174  0.61715128  1
  Sc  Sc8  1  0.15087023  0.61849540  0.61213797  1
  Sc  Sc9  1  0.61715128  0.61696470  0.61715128  1
  Sc  Sc10  1  0.38786203  0.38150460  0.84912977  1
  Sc  Sc11  1  0.38284872  0.85126826  0.38284872  1
  Sc  Sc12  1  0.84912977  0.38150460  0.38786203  1
  Sc  Sc13  1  0.38284872  0.38303530  0.38284872  1
  Sc  Sc14  1  0.84327977  0.84425102  0.46821620  1
  Sc  Sc15  1  0.84470887  0.46840496  0.84470887  1
  Sc  Sc16  1  0.46821620  0.84425102  0.84327977  1
  Sc  Sc17  1  0.84470887  0.84217630  0.84470887  1
  Sc  Sc18  1  0.15672023  0.15574898  0.53178380  1
  Sc  Sc19  1  0.15529113  0.53159504  0.15529113  1
  Sc  Sc20  1  0.53178380  0.15574898  0.15672023  1
  Sc  Sc21  1  0.15529113  0.15782370  0.15529113  1
  Tc  Tc0  1  0.00000000  0.00000000  0.00000000  1
  Tc  Tc1  1  0.00000000  0.00000000  0.50000000  1
  Tc  Tc2  1  0.00000000  0.50000000  0.50000000  1
  Tc  Tc3  1  0.50000000  0.50000000  0.00000000  1
  Tc  Tc4  1  0.50000000  0.00000000  0.00000000  1
  Ir  Ir0  1  0.50000000  0.50000000  0.50000000  1
  Ir  Ir1  1  0.50000000  0.00000000  0.50000000  1
  Rh  Rh0  1  0.00000000  0.50000000  0.00000000  1
loop_
_geom_bond_atom_site_label_1
_geom_bond_atom_site_label_2
_geom_bond_distance
_geom_bond_site_symmetry_2
Sc0 Tc0 2.656610 1_665
Sc1 Tc0 2.634049 1_565
Sc2 Tc0 2.656611 1_655
Sc3 Tc0 2.656610 1_556
Sc4 Tc0 2.634049 1_656
Sc5 Tc0 2.656611 1_566
Sc6 Tc3 2.958895 1_555
Sc6 Tc4 2.958902 1_565
Sc7 Tc4 2.978207 1_556
Sc7 Tc1 2.978208 1_655
Sc8 Tc2 2.958895 1_555
Sc8 Tc1 2.958902 1_565
Sc9 Tc3 2.978208 1_556
Sc9 Tc2 2.978208 1_655
Sc10 Tc3 2.958895 1_556
Sc10 Tc4 2.958902 1_556
Sc11 Tc4 2.978207 1_565
Sc11 Tc1 2.978208 1_565
Sc12 Tc2 2.958895 1_655
Sc12 Tc1 2.958902 1_655
Sc13 Tc3 2.978208 1_555
Sc13 Tc2 2.978208 1_555
Sc14 Tc2 2.750080 1_655
Sc14 Tc1 2.750096 1_665
Sc15 Tc2 2.764783 1_655
Sc15 Tc3 2.764783 1_556
Sc16 Tc3 2.750080 1_556
Sc16 Tc4 2.750096 1_566
Sc17 Tc1 2.764785 1_665
Sc17 Tc4 2.764785 1_566
Sc18 Tc2 2.750080 1_555
Sc18 Tc1 2.750096 1_555
Sc19 Tc2 2.764783 1_555
Sc19 Tc3 2.764783 1_555
Sc20 Tc3 2.750080 1_555
Sc20 Tc4 2.750096 1_555
Sc21 Tc1 2.764785 1_555
Sc21 Tc4 2.764785 1_555
Ir0 Sc10 2.711720 1_555
Ir0 Sc6 2.711720 1_555
Ir0 Sc12 2.711721 1_555
Ir0 Sc8 2.711721 1_555
Ir0 Sc9 2.718249 1_555
Ir0 Sc13 2.718249 1_555
Ir0 Sc7 2.718257 1_555
Ir0 Sc11 2.718257 1_555
Ir1 Sc16 2.748528 1_545
Ir1 Sc20 2.748528 1_555
Ir1 Sc14 2.748528 1_545
Ir1 Sc18 2.748528 1_555
Ir1 Sc7 2.968992 1_555
Ir1 Sc11 2.968992 1_545
Ir1 Sc13 2.969000 1_555
Ir1 Sc9 2.969000 1_545
Rh0 Sc17 2.733525 1_454
Rh0 Sc21 2.733525 1_555
Rh0 Sc19 2.733532 1_555
Rh0 Sc15 2.733532 1_454
Rh0 Sc12 3.018508 1_455
Rh0 Sc8 3.018508 1_554
Rh0 Sc10 3.018508 1_554
Rh0 Sc6 3.018508 1_455
