# generated using pymatgen
data_K4Ba(SiS3)2
_symmetry_space_group_name_H-M   'P 1'
_cell_length_a   7.26092183
_cell_length_b   7.26092260
_cell_length_c   8.34916900
_cell_angle_alpha   81.51370522
_cell_angle_beta   81.51370770
_cell_angle_gamma   119.55481571
_symmetry_Int_Tables_number   1
_chemical_formula_structural   K4Ba(SiS3)2
_chemical_formula_sum   'K4 Ba1 Si2 S6'
_cell_volume   366.07734089
_cell_formula_units_Z   1
loop_
 _symmetry_equiv_pos_site_id
 _symmetry_equiv_pos_as_xyz
  1  'x, y, z'
loop_
 _atom_site_type_symbol
 _atom_site_label
 _atom_site_symmetry_multiplicity
 _atom_site_fract_x
 _atom_site_fract_y
 _atom_site_fract_z
 _atom_site_occupancy
  K  K0  1  0.50436468  0.49563532  1.00000000  1
  K  K1  1  0.81897199  0.18102801  0.00000000  1
  K  K2  1  0.17687911  0.82312089  1.00000000  1
  K  K3  1  0.66651846  0.33348154  0.50000000  1
  Ba  Ba0  1  0.33531476  0.66468524  0.50000000  1
  Si  Si0  1  0.04800339  0.04915457  0.35206107  1
  Si  Si1  1  0.95084543  0.95199661  0.64793893  1
  S  S0  1  0.79673890  0.80319485  0.26532015  1
  S  S1  1  0.19680515  0.20326110  0.73467985  1
  S  S2  1  0.08304841  0.36236678  0.26690785  1
  S  S3  1  0.35520503  0.07032754  0.26998210  1
  S  S4  1  0.92967246  0.64479497  0.73001790  1
  S  S5  1  0.63763322  0.91695159  0.73309215  1
loop_
_geom_bond_atom_site_label_1
_geom_bond_atom_site_label_2
_geom_bond_distance
_geom_bond_site_symmetry_2
K0 S2 3.113194 1_556
K0 S5 3.113194 1_555
K0 S4 3.117063 1_555
K0 S3 3.117063 1_556
K0 S1 3.545710 1_555
K0 S0 3.545710 1_556
K1 S2 3.164300 1_655
K1 S5 3.164300 1_544
K1 S1 3.181730 1_654
K1 S0 3.181730 1_545
K1 S3 3.408984 1_555
K1 S4 3.408985 1_554
K2 S4 3.121264 1_455
K2 S3 3.121264 1_566
K2 S0 3.202095 1_456
K2 S1 3.202095 1_565
K2 S5 3.424255 1_555
K2 S2 3.424255 1_556
K3 S2 3.239587 1_655
K3 S5 3.239588 1_545
K3 S3 3.248392 1_555
K3 S4 3.248392 1_555
K3 S1 3.265680 1_555
K3 S0 3.265681 1_555
Ba0 S4 3.195790 1_455
Ba0 S3 3.195790 1_565
Ba0 S0 3.198812 1_555
Ba0 S1 3.198812 1_555
Ba0 S5 3.210518 1_555
Ba0 S2 3.210518 1_555
S0 Si0 2.144720 1_665
S1 Si1 2.144720 1_445
S2 Si0 2.154239 1_555
S3 Si0 2.155956 1_555
S4 Si1 2.155956 1_555
S5 Si1 2.154239 1_555
