# generated using pymatgen
data_Sc4Al3Os3Ru2
_symmetry_space_group_name_H-M   'P 1'
_cell_length_a   5.20503548
_cell_length_b   5.16363174
_cell_length_c   8.54792300
_cell_angle_alpha   90.00000000
_cell_angle_beta   90.00000000
_cell_angle_gamma   120.26560082
_symmetry_Int_Tables_number   1
_chemical_formula_structural   Sc4Al3Os3Ru2
_chemical_formula_sum   'Sc4 Al3 Os3 Ru2'
_cell_volume   198.42739137
_cell_formula_units_Z   1
loop_
 _symmetry_equiv_pos_site_id
 _symmetry_equiv_pos_as_xyz
  1  'x, y, z'
loop_
 _atom_site_type_symbol
 _atom_site_label
 _atom_site_symmetry_multiplicity
 _atom_site_fract_x
 _atom_site_fract_y
 _atom_site_fract_z
 _atom_site_occupancy
  Sc  Sc0  1  0.32649817  0.65299634  0.05651044  1
  Sc  Sc1  1  0.66952138  0.33904176  0.56598452  1
  Sc  Sc2  1  0.32649817  0.65299634  0.44348956  1
  Sc  Sc3  1  0.66952138  0.33904176  0.93401548  1
  Al  Al0  1  0.34294103  0.18453782  0.25000000  1
  Al  Al1  1  0.84159879  0.18453782  0.25000000  1
  Al  Al2  1  0.16401698  0.32803596  0.75000000  1
  Os  Os0  1  0.83584543  0.67169087  0.25000000  1
  Os  Os1  1  0.17736728  0.82763508  0.75000000  1
  Os  Os2  1  0.65026581  0.82763508  0.75000000  1
  Ru  Ru0  1  0.99796279  0.99592558  0.49783674  1
  Ru  Ru1  1  0.99796279  0.99592558  0.00216326  1
loop_
_geom_bond_atom_site_label_1
_geom_bond_atom_site_label_2
_geom_bond_distance
_geom_bond_site_symmetry_2
Sc0 Sc3 3.135277 1_454
Sc0 Sc3 3.135281 1_554
Sc0 Sc3 3.233846 1_564
Sc0 Sc2 3.307868 1_555
Sc1 Sc2 3.135277 1_655
Sc1 Sc2 3.135281 1_555
Sc1 Sc3 3.145900 1_555
Sc1 Sc2 3.233846 1_545
Al0 Os0 2.530699 1_555
Al0 Al1 2.595531 1_555
Al0 Al1 2.609504 1_455
Al0 Ru0 2.626398 1_445
Al0 Ru1 2.626398 1_445
Al0 Os0 2.633192 1_445
Al0 Sc2 2.966954 1_555
Al0 Sc0 2.966954 1_555
Al0 Sc1 3.074810 1_555
Al0 Sc3 3.074810 1_554
Al0 Sc2 3.168489 1_545
Al0 Sc0 3.168489 1_545
Al1 Os0 2.530704 1_555
Al1 Ru0 2.626393 1_545
Al1 Ru1 2.626393 1_545
Al1 Os0 2.633187 1_545
Al1 Sc2 2.966949 1_655
Al1 Sc0 2.966949 1_655
Al1 Sc1 3.074812 1_555
Al1 Sc3 3.074812 1_554
Al1 Sc2 3.168494 1_545
Al1 Sc0 3.168494 1_545
Al2 Os2 2.545431 1_555
Al2 Os1 2.545431 1_555
Al2 Ru1 2.615315 1_446
Al2 Ru0 2.615315 1_445
Al2 Os1 2.619596 1_545
Al2 Os2 2.619596 1_445
Al2 Sc0 2.994147 1_556
Al2 Sc2 2.994147 1_555
Al2 Sc3 3.041322 1_455
Al2 Sc1 3.041322 1_455
Al2 Sc3 3.041335 1_555
Al2 Sc1 3.041335 1_555
Os0 Ru0 2.564955 1_555
Os0 Ru1 2.564955 1_555
Os0 Sc1 3.081623 1_555
Os0 Sc3 3.081623 1_554
Os0 Sc2 3.084728 1_555
Os0 Sc0 3.084728 1_555
Os0 Sc2 3.084728 1_655
Os0 Sc0 3.084728 1_655
Os1 Os2 2.461454 1_555
Os1 Ru1 2.662926 1_456
Os1 Ru0 2.662926 1_455
Os1 Os2 2.743582 1_455
Os1 Sc0 2.997643 1_556
Os1 Sc2 2.997643 1_555
Os1 Sc3 3.017311 1_455
Os1 Sc1 3.017311 1_455
Os1 Sc3 3.031641 1_565
Os1 Sc1 3.031641 1_565
Os2 Ru1 2.662931 1_556
Os2 Ru0 2.662931 1_555
Os2 Sc0 2.997639 1_556
Os2 Sc2 2.997639 1_555
Os2 Sc3 3.017319 1_555
Os2 Sc1 3.017319 1_555
Os2 Sc3 3.031634 1_565
Os2 Sc1 3.031634 1_565
Ru0 Sc2 2.967012 1_665
Ru0 Sc1 2.986937 1_555
Ru0 Sc2 3.054175 1_655
Ru0 Sc2 3.054175 1_555
Ru0 Sc1 3.074742 1_565
Ru0 Sc1 3.074747 1_665
Ru1 Sc0 2.967012 1_665
Ru1 Sc3 2.986937 1_554
Ru1 Sc0 3.054175 1_655
Ru1 Sc0 3.054175 1_555
Ru1 Sc3 3.074742 1_564
Ru1 Sc3 3.074747 1_664
