# generated using pymatgen
data_Ba6LuSc(BO3)6
_symmetry_space_group_name_H-M   'P 1'
_cell_length_a   8.05735662
_cell_length_b   8.05735516
_cell_length_c   8.05735642
_cell_angle_alpha   105.72361463
_cell_angle_beta   105.72361546
_cell_angle_gamma   105.72362336
_symmetry_Int_Tables_number   1
_chemical_formula_structural   Ba6LuSc(BO3)6
_chemical_formula_sum   'Ba6 Lu1 Sc1 B6 O18'
_cell_volume   449.94312898
_cell_formula_units_Z   1
loop_
 _symmetry_equiv_pos_site_id
 _symmetry_equiv_pos_as_xyz
  1  'x, y, z'
loop_
 _atom_site_type_symbol
 _atom_site_label
 _atom_site_symmetry_multiplicity
 _atom_site_fract_x
 _atom_site_fract_y
 _atom_site_fract_z
 _atom_site_occupancy
  Ba  Ba0  1  0.34582091  0.73637956  0.83464755  1
  Ba  Ba1  1  0.83464755  0.34582091  0.73637956  1
  Ba  Ba2  1  0.73637956  0.83464755  0.34582091  1
  Ba  Ba3  1  0.65417909  0.26362044  0.16535245  1
  Ba  Ba4  1  0.16535245  0.65417909  0.26362044  1
  Ba  Ba5  1  0.26362044  0.16535245  0.65417909  1
  Lu  Lu0  1  0.00000000  0.00000000  0.00000000  1
  Sc  Sc0  1  0.50000000  0.50000000  0.50000000  1
  B  B0  1  0.36791431  0.05010758  0.29267179  1
  B  B1  1  0.29267179  0.36791431  0.05010758  1
  B  B2  1  0.05010758  0.29267179  0.36791431  1
  B  B3  1  0.70732821  0.63208569  0.94989242  1
  B  B4  1  0.94989242  0.70732821  0.63208569  1
  B  B5  1  0.63208569  0.94989242  0.70732821  1
  O  O0  1  0.42758703  0.48618881  0.22360695  1
  O  O1  1  0.22360695  0.42758703  0.48618881  1
  O  O2  1  0.82121494  0.00782655  0.74027486  1
  O  O3  1  0.00782655  0.74027486  0.82121494  1
  O  O4  1  0.74027486  0.82121494  0.00782655  1
  O  O5  1  0.25972514  0.17878506  0.99217345  1
  O  O6  1  0.17878506  0.99217345  0.25972514  1
  O  O7  1  0.99217345  0.25972514  0.17878506  1
  O  O8  1  0.56042432  0.06614873  0.79683348  1
  O  O9  1  0.06614873  0.79683348  0.56042432  1
  O  O10  1  0.79683348  0.56042432  0.06614873  1
  O  O11  1  0.43957568  0.93385127  0.20316652  1
  O  O12  1  0.93385127  0.20316652  0.43957568  1
  O  O13  1  0.20316652  0.43957568  0.93385127  1
  O  O14  1  0.51381119  0.77639305  0.57241297  1
  O  O15  1  0.77639305  0.57241297  0.51381119  1
  O  O16  1  0.57241297  0.51381119  0.77639305  1
  O  O17  1  0.48618881  0.22360695  0.42758703  1
loop_
_geom_bond_atom_site_label_1
_geom_bond_atom_site_label_2
_geom_bond_distance
_geom_bond_site_symmetry_2
Ba0 O3 2.705125 1_555
Ba0 O11 2.736995 1_556
Ba0 O13 2.779083 1_555
Ba0 O14 2.843106 1_555
Ba0 O8 2.894289 1_565
Ba0 O4 2.901294 1_556
Ba0 O1 2.903526 1_555
Ba0 O16 2.924446 1_555
Ba0 O9 2.945638 1_555
Ba1 O2 2.705124 1_555
Ba1 O13 2.736996 1_655
Ba1 O12 2.779084 1_555
Ba1 O16 2.843106 1_555
Ba1 O10 2.894290 1_556
Ba1 O3 2.901294 1_655
Ba1 O17 2.903527 1_555
Ba1 O15 2.924446 1_555
Ba1 O8 2.945637 1_555
Ba2 O4 2.705125 1_555
Ba2 O12 2.736995 1_565
Ba2 O11 2.779084 1_555
Ba2 O15 2.843106 1_555
Ba2 O9 2.894290 1_655
Ba2 O2 2.901294 1_565
Ba2 O0 2.903526 1_555
Ba2 O14 2.924446 1_555
Ba2 O10 2.945637 1_555
Ba3 O7 2.705125 1_555
Ba3 O8 2.736995 1_554
Ba3 O10 2.779083 1_555
Ba3 O17 2.843106 1_555
Ba3 O11 2.894289 1_545
Ba3 O5 2.901294 1_554
Ba3 O15 2.903526 1_555
Ba3 O0 2.924446 1_555
Ba3 O12 2.945638 1_555
Ba4 O6 2.705124 1_555
Ba4 O10 2.736996 1_455
Ba4 O9 2.779084 1_555
Ba4 O0 2.843106 1_555
Ba4 O13 2.894290 1_554
Ba4 O7 2.901294 1_455
Ba4 O14 2.903527 1_555
Ba4 O1 2.924446 1_555
Ba4 O11 2.945637 1_555
Ba5 O5 2.705125 1_555
Ba5 O9 2.736995 1_545
Ba5 O8 2.779084 1_555
Ba5 O1 2.843106 1_555
Ba5 O12 2.894290 1_455
Ba5 O6 2.901294 1_545
Ba5 O16 2.903526 1_555
Ba5 O17 2.924446 1_555
Ba5 O13 2.945637 1_555
Lu0 O5 2.223818 1_554
Lu0 O4 2.223818 1_445
Lu0 O7 2.223818 1_455
Lu0 O3 2.223818 1_544
Lu0 O2 2.223818 1_454
Lu0 O6 2.223818 1_545
B0 O11 1.372452 1_545
B0 O17 1.391744 1_555
B0 O6 1.392345 1_545
B1 O13 1.372452 1_554
B1 O0 1.391744 1_555
B1 O5 1.392344 1_554
B2 O12 1.372452 1_455
B2 O1 1.391744 1_555
B2 O7 1.392345 1_455
B3 O10 1.372452 1_556
B3 O16 1.391744 1_555
B3 O4 1.392344 1_556
B4 O9 1.372452 1_655
B4 O15 1.391744 1_555
B4 O3 1.392345 1_655
B5 O8 1.372452 1_565
B5 O14 1.391744 1_555
B5 O2 1.392345 1_565
O0 Sc0 2.106791 1_555
O1 Sc0 2.106791 1_555
O14 Sc0 2.106791 1_555
O15 Sc0 2.106791 1_555
O16 Sc0 2.106791 1_555
O17 Sc0 2.106791 1_555
