# generated using pymatgen
data_Ti2Be8ReIr
_symmetry_space_group_name_H-M   'P 1'
_cell_length_a   4.38803307
_cell_length_b   4.38803213
_cell_length_c   7.24266707
_cell_angle_alpha   90.00000000
_cell_angle_beta   90.00000000
_cell_angle_gamma   120.00000711
_symmetry_Int_Tables_number   1
_chemical_formula_structural   Ti2Be8ReIr
_chemical_formula_sum   'Ti2 Be8 Re1 Ir1'
_cell_volume   120.77271062
_cell_formula_units_Z   1
loop_
 _symmetry_equiv_pos_site_id
 _symmetry_equiv_pos_as_xyz
  1  'x, y, z'
loop_
 _atom_site_type_symbol
 _atom_site_label
 _atom_site_symmetry_multiplicity
 _atom_site_fract_x
 _atom_site_fract_y
 _atom_site_fract_z
 _atom_site_occupancy
  Ti  Ti0  1  0.33333300  0.66666700  0.06465379  1
  Ti  Ti1  1  0.66666700  0.33333300  0.56286380  1
  Be  Be0  1  0.00000000  0.00000000  0.99663340  1
  Be  Be1  1  0.00000000  0.00000000  0.50265425  1
  Be  Be2  1  0.83179282  0.66358565  0.25232722  1
  Be  Be3  1  0.16945255  0.83054745  0.74975174  1
  Be  Be4  1  0.66109490  0.83054745  0.74975174  1
  Be  Be5  1  0.33641435  0.16820718  0.25232722  1
  Be  Be6  1  0.83179282  0.16820718  0.25232722  1
  Be  Be7  1  0.16945255  0.33890510  0.74975174  1
  Re  Re0  1  0.33333300  0.66666700  0.43424692  1
  Ir  Ir0  1  0.66666700  0.33333300  0.93270896  1
loop_
_geom_bond_atom_site_label_1
_geom_bond_atom_site_label_2
_geom_bond_distance
_geom_bond_site_symmetry_2
Be0 Be7 2.203609 1_555
Be0 Be4 2.203610 1_445
Be0 Be3 2.203610 1_545
Be0 Be2 2.250316 1_446
Be0 Be5 2.250316 1_556
Be0 Be6 2.250316 1_456
Be0 Ir0 2.575387 1_455
Be0 Ir0 2.575390 1_445
Be0 Ir0 2.575391 1_555
Be0 Ti0 2.580885 1_546
Be0 Ti0 2.580888 1_556
Be0 Ti0 2.580889 1_446
Be1 Be7 2.204878 1_555
Be1 Be4 2.204878 1_445
Be1 Be3 2.204878 1_545
Be1 Be2 2.218437 1_445
Be1 Be5 2.218438 1_555
Be1 Be6 2.218438 1_455
Be1 Ti1 2.570686 1_455
Be1 Ti1 2.570690 1_445
Be1 Ti1 2.570690 1_555
Be1 Re0 2.581421 1_545
Be1 Re0 2.581425 1_555
Be1 Re0 2.581425 1_445
Be2 Be5 2.173737 1_555
Be2 Be6 2.173737 1_555
Be2 Be5 2.214295 1_665
Be2 Be6 2.214295 1_565
Be2 Re0 2.559270 1_655
Be2 Re0 2.559274 1_555
Be2 Ti1 2.575569 1_555
Be2 Ti0 2.580971 1_655
Be2 Ti0 2.580975 1_555
Be2 Ir0 2.633203 1_554
Be3 Be7 2.157342 1_555
Be3 Be4 2.157343 1_555
Be3 Be7 2.230690 1_565
Be3 Be4 2.230690 1_455
Be3 Ir0 2.563209 1_565
Be3 Ir0 2.563209 1_455
Be3 Ti1 2.578042 1_565
Be3 Ti1 2.578042 1_455
Be3 Ti0 2.598673 1_556
Be3 Re0 2.602506 1_555
Be4 Be7 2.157342 1_555
Be4 Be7 2.230690 1_665
Be4 Ir0 2.563207 1_565
Be4 Ir0 2.563211 1_555
Be4 Ti1 2.578040 1_565
Be4 Ti1 2.578044 1_555
Be4 Ti0 2.598675 1_556
Be4 Re0 2.602507 1_555
Be5 Be6 2.173737 1_555
Be5 Be6 2.214296 1_455
Be5 Re0 2.559270 1_545
Be5 Re0 2.559273 1_555
Be5 Ti1 2.575569 1_555
Be5 Ti0 2.580971 1_545
Be5 Ti0 2.580975 1_555
Be5 Ir0 2.633203 1_554
Be6 Re0 2.559271 1_545
Be6 Re0 2.559271 1_655
Be6 Ti1 2.575567 1_555
Be6 Ti0 2.580973 1_545
Be6 Ti0 2.580973 1_655
Be6 Ir0 2.633201 1_554
Be7 Ir0 2.563208 1_455
Be7 Ir0 2.563211 1_555
Be7 Ti1 2.578040 1_455
Be7 Ti1 2.578044 1_555
Be7 Ti0 2.598675 1_556
Be7 Re0 2.602507 1_555
Re0 Ti0 2.676840 1_555
Re0 Ti1 2.699261 1_565
Re0 Ti1 2.699261 1_455
Re0 Ti1 2.699268 1_555
Ir0 Ti1 2.678665 1_555
Ir0 Ti0 2.707673 1_546
Ir0 Ti0 2.707674 1_656
Ir0 Ti0 2.707681 1_556
