# generated using pymatgen
data_Cs2RbInBi2
_symmetry_space_group_name_H-M   'P 1'
_cell_length_a   10.30259140
_cell_length_b   10.30259197
_cell_length_c   10.30259188
_cell_angle_alpha   129.17801529
_cell_angle_beta   134.94810757
_cell_angle_gamma   70.23287862
_symmetry_Int_Tables_number   1
_chemical_formula_structural   Cs2RbInBi2
_chemical_formula_sum   'Cs4 Rb2 In2 Bi4'
_cell_volume   588.20112807
_cell_formula_units_Z   2
loop_
 _symmetry_equiv_pos_site_id
 _symmetry_equiv_pos_as_xyz
  1  'x, y, z'
loop_
 _atom_site_type_symbol
 _atom_site_label
 _atom_site_symmetry_multiplicity
 _atom_site_fract_x
 _atom_site_fract_y
 _atom_site_fract_z
 _atom_site_occupancy
  Cs  Cs0  1  0.67085734  0.45391659  0.78306025  1
  Cs  Cs1  1  0.82914266  0.11220291  0.28306025  1
  Cs  Cs2  1  0.17085734  0.88779709  0.71693975  1
  Cs  Cs3  1  0.32914266  0.54608341  0.21693975  1
  Rb  Rb0  1  0.75000000  0.00000000  0.75000000  1
  Rb  Rb1  1  0.25000000  0.00000000  0.25000000  1
  In  In0  1  0.25000000  0.50000000  0.75000000  1
  In  In1  1  0.75000000  0.50000000  0.25000000  1
  Bi  Bi0  1  0.40690648  0.21705752  0.81015004  1
  Bi  Bi1  1  0.59309352  0.78294248  0.18984996  1
  Bi  Bi2  1  0.09309352  0.40324356  0.31015004  1
  Bi  Bi3  1  0.90690648  0.59675644  0.68984996  1
loop_
_geom_bond_atom_site_label_1
_geom_bond_atom_site_label_2
_geom_bond_distance
_geom_bond_site_symmetry_2
Cs0 In1 3.983318 1_556
Cs0 In0 3.983321 1_555
Cs0 Rb0 4.295507 1_555
Cs0 Rb1 4.295510 1_555
Cs0 Cs3 4.799750 1_656
Cs0 Cs3 4.799764 1_555
Cs0 Cs1 5.163533 1_555
Cs0 Cs1 5.163541 1_566
Cs1 In0 3.983323 1_655
Cs1 In1 3.983324 1_555
Cs1 Rb1 4.295517 1_655
Cs1 Rb0 4.295517 1_554
Cs1 Cs2 4.799748 1_544
Cs1 Cs2 4.799749 1_645
Cs2 In1 3.983323 1_455
Cs2 In0 3.983324 1_555
Cs2 Rb0 4.295517 1_465
Cs2 Rb1 4.295517 1_566
Cs2 Cs3 5.163533 1_555
Cs2 Cs3 5.163541 1_566
Cs3 In0 3.983318 1_554
Cs3 In1 3.983321 1_555
Cs3 Rb1 4.295507 1_565
Cs3 Rb0 4.295510 1_565
Rb0 Rb1 3.946941 1_555
Rb0 Rb1 3.946941 1_656
Bi0 In0 3.028908 1_555
Bi0 In1 3.028913 1_556
Bi0 Rb1 3.725152 1_555
Bi0 Rb0 3.725156 1_555
Bi0 Cs3 3.828147 1_556
Bi0 Cs2 4.063017 1_545
Bi0 Cs1 4.165766 1_455
Bi0 Cs1 4.165774 1_556
Bi0 Cs0 4.455246 1_555
Bi1 In1 3.028908 1_555
Bi1 In0 3.028913 1_554
Bi1 Rb0 3.725152 1_565
Bi1 Rb1 3.725156 1_565
Bi1 Cs0 3.828147 1_554
Bi1 Cs1 4.063017 1_565
Bi1 Cs2 4.165766 1_655
Bi1 Cs2 4.165774 1_554
Bi1 Cs3 4.455246 1_555
Bi2 In1 3.028917 1_455
Bi2 In0 3.028917 1_555
Bi2 Rb0 3.725155 1_454
Bi2 Rb1 3.725155 1_555
Bi2 Cs2 3.828147 1_555
Bi2 Cs3 4.063015 1_555
Bi2 Cs0 4.165761 1_454
Bi2 Cs0 4.165769 1_555
Bi2 Cs1 4.455262 1_455
Bi3 In0 3.028917 1_655
Bi3 In1 3.028917 1_555
Bi3 Rb1 3.725155 1_666
Bi3 Rb0 3.725155 1_565
Bi3 Cs1 3.828147 1_555
Bi3 Cs0 4.063015 1_555
Bi3 Cs3 4.165761 1_656
Bi3 Cs3 4.165769 1_555
Bi3 Cs2 4.455262 1_655
