# generated using pymatgen
data_CaYFeIr3
_symmetry_space_group_name_H-M   'P 1'
_cell_length_a   5.13788659
_cell_length_b   5.46053942
_cell_length_c   5.46053992
_cell_angle_alpha   60.00000297
_cell_angle_beta   57.89994955
_cell_angle_gamma   57.89994911
_symmetry_Int_Tables_number   1
_chemical_formula_structural   CaYFeIr3
_chemical_formula_sum   'Ca1 Y1 Fe1 Ir3'
_cell_volume   104.76102961
_cell_formula_units_Z   1
loop_
 _symmetry_equiv_pos_site_id
 _symmetry_equiv_pos_as_xyz
  1  'x, y, z'
loop_
 _atom_site_type_symbol
 _atom_site_label
 _atom_site_symmetry_multiplicity
 _atom_site_fract_x
 _atom_site_fract_y
 _atom_site_fract_z
 _atom_site_occupancy
  Ca  Ca0  1  0.50134133  0.49955356  0.49955356  1
  Y  Y0  1  0.74794271  0.75068576  0.75068576  1
  Fe  Fe0  1  0.62641313  0.12452929  0.12452929  1
  Ir  Ir0  1  0.12476761  0.12561341  0.12561341  1
  Ir  Ir1  1  0.12476761  0.12561341  0.62400657  1
  Ir  Ir2  1  0.12476761  0.62400657  0.12561341  1
loop_
_geom_bond_atom_site_label_1
_geom_bond_atom_site_label_2
_geom_bond_distance
_geom_bond_site_symmetry_2
Ca0 Ir2 2.977531 1_655
Ca0 Ir1 2.977531 1_655
Ca0 Ir0 2.977534 1_655
Ca0 Y0 3.056489 1_455
Ca0 Ir1 3.128635 1_565
Ca0 Ir2 3.128635 1_556
Ca0 Ir0 3.128638 1_565
Ca0 Ir0 3.128638 1_556
Ca0 Ir1 3.128640 1_555
Ca0 Ir2 3.128640 1_555
Ca0 Fe0 3.193214 1_565
Ca0 Fe0 3.193214 1_556
Ca0 Fe0 3.193219 1_555
Ca0 Y0 3.307569 1_555
Ca0 Y0 3.307579 1_545
Ca0 Y0 3.307579 1_554
Fe0 Ir0 2.566793 1_655
Fe0 Ir2 2.566793 1_645
Fe0 Ir1 2.566793 1_654
Fe0 Ir0 2.571119 1_555
Fe0 Ir2 2.571119 1_555
Fe0 Ir1 2.571119 1_555
Fe0 Y0 3.190962 1_554
Fe0 Y0 3.190963 1_545
Fe0 Y0 3.190967 1_544
Ir0 Ir2 2.721495 1_555
Ir0 Ir1 2.721496 1_555
Ir0 Ir2 2.739044 1_545
Ir0 Ir1 2.739044 1_554
Ir0 Y0 2.982029 1_544
Ir0 Y0 3.129135 1_454
Ir0 Y0 3.129135 1_445
Ir1 Ir2 2.721496 1_555
Ir1 Ir2 2.739044 1_546
Ir1 Y0 2.982026 1_545
Ir1 Y0 3.129133 1_455
Ir1 Y0 3.129137 1_445
Ir2 Y0 2.982026 1_554
Ir2 Y0 3.129133 1_455
Ir2 Y0 3.129138 1_454
