# generated using pymatgen
data_Sc2Hg(SeO3)4
_symmetry_space_group_name_H-M   'P 1'
_cell_length_a   8.41796104
_cell_length_b   8.26097304
_cell_length_c   8.88792076
_cell_angle_alpha   86.99713061
_cell_angle_beta   90.00000000
_cell_angle_gamma   90.00000000
_symmetry_Int_Tables_number   1
_chemical_formula_structural   Sc2Hg(SeO3)4
_chemical_formula_sum   'Sc4 Hg2 Se8 O24'
_cell_volume   617.22222601
_cell_formula_units_Z   2
loop_
 _symmetry_equiv_pos_site_id
 _symmetry_equiv_pos_as_xyz
  1  'x, y, z'
loop_
 _atom_site_type_symbol
 _atom_site_label
 _atom_site_symmetry_multiplicity
 _atom_site_fract_x
 _atom_site_fract_y
 _atom_site_fract_z
 _atom_site_occupancy
  Sc  Sc0  1  0.76160167  0.75788213  0.00240909  1
  Sc  Sc1  1  0.74039155  0.24472665  0.51435406  1
  Sc  Sc2  1  0.23839833  0.25788213  0.00240909  1
  Sc  Sc3  1  0.25960845  0.74472665  0.51435406  1
  Hg  Hg0  1  0.63936900  0.32489190  0.14029764  1
  Hg  Hg1  1  0.36063100  0.82489190  0.14029764  1
  Se  Se0  1  0.07545918  0.53741911  0.21052134  1
  Se  Se1  1  0.92454082  0.03741911  0.21052134  1
  Se  Se2  1  0.56232605  0.46977317  0.80939342  1
  Se  Se3  1  0.33132222  0.16397630  0.39025466  1
  Se  Se4  1  0.04762161  0.43127031  0.68804280  1
  Se  Se5  1  0.43767395  0.96977317  0.80939342  1
  Se  Se6  1  0.66867778  0.66397630  0.39025466  1
  Se  Se7  1  0.95237839  0.93127031  0.68804280  1
  O  O0  1  0.94478592  0.67439411  0.13610021  1
  O  O1  1  0.30699312  0.01678355  0.95273091  1
  O  O2  1  0.13938329  0.28189434  0.79650761  1
  O  O3  1  0.69039761  0.45949218  0.36700757  1
  O  O4  1  0.79283743  0.16806358  0.29115172  1
  O  O5  1  0.18527661  0.49577738  0.05776294  1
  O  O6  1  0.21019167  0.51578463  0.60042091  1
  O  O7  1  0.61334672  0.72494160  0.20826549  1
  O  O8  1  0.68289601  0.35839029  0.70741182  1
  O  O9  1  0.30960239  0.95949218  0.36700757  1
  O  O10  1  0.97226324  0.32029739  0.54819171  1
  O  O11  1  0.46871491  0.32311035  0.92126427  1
  O  O12  1  0.86061671  0.78189434  0.79650761  1
  O  O13  1  0.49669379  0.67183003  0.48381481  1
  O  O14  1  0.31710399  0.85839029  0.70741182  1
  O  O15  1  0.20716257  0.66806358  0.29115172  1
  O  O16  1  0.38665328  0.22494160  0.20826549  1
  O  O17  1  0.05521408  0.17439411  0.13610021  1
  O  O18  1  0.02773676  0.82029739  0.54819171  1
  O  O19  1  0.53128509  0.82311035  0.92126427  1
  O  O20  1  0.69300688  0.51678255  0.95273091  1
  O  O21  1  0.78980833  0.01578463  0.60042091  1
  O  O22  1  0.50330621  0.17183003  0.48381481  1
  O  O23  1  0.81472339  0.99577738  0.05776294  1
loop_
_geom_bond_atom_site_label_1
_geom_bond_atom_site_label_2
_geom_bond_distance
_geom_bond_site_symmetry_2
Hg0 O4 2.227810 1_555
Hg0 O20 2.284516 1_554
Hg0 O16 2.349479 1_555
Hg0 O3 2.390772 1_555
Hg0 O11 2.420075 1_554
Hg1 O15 2.227810 1_555
Hg1 O1 2.284522 1_564
Hg1 O7 2.349479 1_555
Hg1 O9 2.390772 1_555
Hg1 O19 2.420075 1_554
O0 Se0 1.688046 1_655
O0 Sc0 2.044407 1_555
O1 Se5 1.742356 1_545
O1 Sc2 2.141826 1_556
O2 Se4 1.710005 1_555
O2 Sc2 2.011238 1_556
O3 Se6 1.722270 1_555
O3 Sc1 2.190075 1_555
O4 Se1 1.728740 1_555
O4 Sc1 2.159423 1_555
O5 Se0 1.692696 1_555
O5 Sc2 2.098929 1_555
O6 Se4 1.705809 1_555
O6 Sc3 2.045380 1_555
O7 Se6 1.732503 1_555
O7 Sc0 2.219677 1_555
O8 Se2 1.669048 1_555
O8 Sc1 2.056448 1_555
O9 Se3 1.722270 1_565
O9 Sc3 2.190075 1_555
O10 Se4 1.705062 1_655
O10 Sc1 2.075986 1_555
O11 Se2 1.717936 1_555
O11 Sc2 2.128077 1_556
O12 Se7 1.710005 1_555
O12 Sc0 2.011238 1_556
O13 Se6 1.672525 1_555
O13 Sc3 2.106314 1_555
O14 Se5 1.669048 1_555
O14 Sc3 2.056448 1_555
O15 Se0 1.728740 1_555
O15 Sc3 2.159423 1_555
O16 Se3 1.732503 1_555
O16 Sc2 2.219677 1_555
O17 Se1 1.688046 1_455
O17 Sc2 2.044407 1_555
O18 Se7 1.705062 1_455
O18 Sc3 2.075986 1_555
O19 Se5 1.717936 1_555
O19 Sc0 2.128077 1_556
O20 Se2 1.742354 1_555
O20 Sc0 2.141834 1_556
O21 Se7 1.705809 1_545
O21 Sc1 2.045380 1_555
O22 Se3 1.672525 1_555
O22 Sc1 2.106314 1_555
O23 Se1 1.692696 1_565
O23 Sc0 2.098929 1_555
