# generated using pymatgen
data_Nb3Ga3TcIr2
_symmetry_space_group_name_H-M   'P 1'
_cell_length_a   14.87593010
_cell_length_b   14.87592846
_cell_length_c   5.86903091
_cell_angle_alpha   90.00000000
_cell_angle_beta   90.00000000
_cell_angle_gamma   119.99999930
_symmetry_Int_Tables_number   1
_chemical_formula_structural   Nb3Ga3TcIr2
_chemical_formula_sum   'Nb24 Ga24 Tc8 Ir16'
_cell_volume   1124.77393055
_cell_formula_units_Z   8
loop_
 _symmetry_equiv_pos_site_id
 _symmetry_equiv_pos_as_xyz
  1  'x, y, z'
loop_
 _atom_site_type_symbol
 _atom_site_label
 _atom_site_symmetry_multiplicity
 _atom_site_fract_x
 _atom_site_fract_y
 _atom_site_fract_z
 _atom_site_occupancy
  Nb  Nb0_0  1  0.18128968  0.00000000  0.25000050  1
  Nb  Nb0_1  1  0.18128968  0.00000000  0.75000050  1
  Nb  Nb0_2  1  0.18128968  0.50000000  0.25000050  1
  Nb  Nb0_3  1  0.18128968  0.50000000  0.75000050  1
  Nb  Nb0_4  1  0.68128968  0.00000000  0.25000050  1
  Nb  Nb0_5  1  0.68128968  0.00000000  0.75000050  1
  Nb  Nb0_6  1  0.68128968  0.50000000  0.25000050  1
  Nb  Nb0_7  1  0.68128968  0.50000000  0.75000050  1
  Nb  Nb1_0  1  0.50000000  0.18128968  0.25000050  1
  Nb  Nb1_1  1  0.50000000  0.18128968  0.75000050  1
  Nb  Nb1_2  1  0.50000000  0.68128968  0.25000050  1
  Nb  Nb1_3  1  0.50000000  0.68128968  0.75000050  1
  Nb  Nb1_4  1  1.00000000  0.18128968  0.25000050  1
  Nb  Nb1_5  1  1.00000000  0.18128968  0.75000050  1
  Nb  Nb1_6  1  1.00000000  0.68128968  0.25000050  1
  Nb  Nb1_7  1  1.00000000  0.68128968  0.75000050  1
  Nb  Nb2_0  1  0.31871032  0.31871032  0.25000050  1
  Nb  Nb2_1  1  0.31871032  0.31871032  0.75000050  1
  Nb  Nb2_2  1  0.31871032  0.81871032  0.25000050  1
  Nb  Nb2_3  1  0.31871032  0.81871032  0.75000050  1
  Nb  Nb2_4  1  0.81871032  0.31871032  0.25000050  1
  Nb  Nb2_5  1  0.81871032  0.31871032  0.75000050  1
  Nb  Nb2_6  1  0.81871032  0.81871032  0.25000050  1
  Nb  Nb2_7  1  0.81871032  0.81871032  0.75000050  1
  Ga  Ga0_0  1  0.35089660  0.50000000  0.00000000  1
  Ga  Ga0_1  1  0.35089660  0.50000000  0.50000000  1
  Ga  Ga0_2  1  0.35089660  1.00000000  0.00000000  1
  Ga  Ga0_3  1  0.35089660  1.00000000  0.50000000  1
  Ga  Ga0_4  1  0.85089660  0.50000000  0.00000000  1
  Ga  Ga0_5  1  0.85089660  0.50000000  0.50000000  1
  Ga  Ga0_6  1  0.85089660  1.00000000  0.00000000  1
  Ga  Ga0_7  1  0.85089660  1.00000000  0.50000000  1
  Ga  Ga1_0  1  0.14910290  0.14910340  0.00000000  1
  Ga  Ga1_1  1  0.14910290  0.14910340  0.50000000  1
  Ga  Ga1_2  1  0.14910290  0.64910340  0.00000000  1
  Ga  Ga1_3  1  0.14910290  0.64910340  0.50000000  1
  Ga  Ga1_4  1  0.64910290  0.14910340  0.00000000  1
  Ga  Ga1_5  1  0.64910290  0.14910340  0.50000000  1
  Ga  Ga1_6  1  0.64910290  0.64910340  0.00000000  1
  Ga  Ga1_7  1  0.64910290  0.64910340  0.50000000  1
  Ga  Ga2_0  1  0.00000000  0.35089710  0.00000000  1
  Ga  Ga2_1  1  0.00000000  0.35089710  0.50000000  1
  Ga  Ga2_2  1  0.00000000  0.85089710  0.00000000  1
  Ga  Ga2_3  1  0.00000000  0.85089710  0.50000000  1
  Ga  Ga2_4  1  0.50000000  0.35089710  0.00000000  1
  Ga  Ga2_5  1  0.50000000  0.35089710  0.50000000  1
  Ga  Ga2_6  1  0.50000000  0.85089710  0.00000000  1
  Ga  Ga2_7  1  0.50000000  0.85089710  0.50000000  1
  Tc  Tc0_0  1  0.00000000  0.00000000  0.25000050  1
  Tc  Tc0_1  1  0.00000000  0.00000000  0.75000050  1
  Tc  Tc0_2  1  0.00000000  0.50000000  0.25000050  1
  Tc  Tc0_3  1  0.00000000  0.50000000  0.75000050  1
  Tc  Tc0_4  1  0.50000000  0.00000000  0.25000050  1
  Tc  Tc0_5  1  0.50000000  0.00000000  0.75000050  1
  Tc  Tc0_6  1  0.50000000  0.50000000  0.25000050  1
  Tc  Tc0_7  1  0.50000000  0.50000000  0.75000050  1
  Ir  Ir0_0  1  0.33333350  0.16666700  0.00000000  1
  Ir  Ir0_1  1  0.33333350  0.16666700  0.50000000  1
  Ir  Ir0_2  1  0.33333350  0.66666700  0.00000000  1
  Ir  Ir0_3  1  0.33333350  0.66666700  0.50000000  1
  Ir  Ir0_4  1  0.83333350  0.16666700  0.00000000  1
  Ir  Ir0_5  1  0.83333350  0.16666700  0.50000000  1
  Ir  Ir0_6  1  0.83333350  0.66666700  0.00000000  1
  Ir  Ir0_7  1  0.83333350  0.66666700  0.50000000  1
  Ir  Ir1_0  1  0.16666700  0.33333350  0.00000000  1
  Ir  Ir1_1  1  0.16666700  0.33333350  0.50000000  1
  Ir  Ir1_2  1  0.16666700  0.83333350  0.00000000  1
  Ir  Ir1_3  1  0.16666700  0.83333350  0.50000000  1
  Ir  Ir1_4  1  0.66666700  0.33333350  0.00000000  1
  Ir  Ir1_5  1  0.66666700  0.33333350  0.50000000  1
  Ir  Ir1_6  1  0.66666700  0.83333350  0.00000000  1
  Ir  Ir1_7  1  0.66666700  0.83333350  0.50000000  1
loop_
_geom_bond_atom_site_label_1
_geom_bond_atom_site_label_2
_geom_bond_distance
_geom_bond_site_symmetry_2
Nb0_0 Tc0_0 2.696853 1_555
Nb0_0 Nb0_1 2.934515 1_555
Nb0_0 Nb0_1 2.934515 1_554
Nb0_1 Tc0_1 2.696853 1_555
Nb0_2 Tc0_2 2.696853 1_555
Nb0_2 Nb0_3 2.934515 1_554
Nb0_2 Nb0_3 2.934515 1_555
Nb0_3 Tc0_3 2.696853 1_555
Nb0_4 Tc0_4 2.696853 1_555
Nb0_4 Nb0_5 2.934515 1_555
Nb0_4 Nb0_5 2.934515 1_554
Nb0_5 Tc0_5 2.696853 1_555
Nb0_6 Tc0_6 2.696853 1_555
Nb0_6 Nb0_7 2.934515 1_554
Nb0_6 Nb0_7 2.934515 1_555
Nb0_7 Tc0_7 2.696853 1_555
Nb1_0 Tc0_4 2.696852 1_555
Nb1_0 Nb1_1 2.934515 1_555
Nb1_0 Nb1_1 2.934515 1_554
Nb1_1 Tc0_5 2.696852 1_555
Nb1_2 Tc0_6 2.696852 1_555
Nb1_2 Nb1_3 2.934515 1_554
Nb1_2 Nb1_3 2.934515 1_555
Nb1_3 Tc0_7 2.696852 1_555
Nb1_4 Tc0_0 2.696852 1_655
Nb1_4 Nb1_5 2.934515 1_554
Nb1_4 Nb1_5 2.934515 1_555
Nb1_5 Tc0_1 2.696852 1_655
Nb1_6 Tc0_2 2.696852 1_655
Nb1_6 Nb1_7 2.934515 1_555
Nb1_6 Nb1_7 2.934515 1_554
Nb1_7 Tc0_3 2.696852 1_655
Nb2_0 Tc0_6 2.696853 1_555
Nb2_0 Nb2_1 2.934515 1_555
Nb2_0 Nb2_1 2.934515 1_554
Nb2_1 Tc0_7 2.696853 1_555
Nb2_2 Tc0_4 2.696853 1_565
Nb2_2 Nb2_3 2.934515 1_554
Nb2_2 Nb2_3 2.934515 1_555
Nb2_3 Tc0_5 2.696853 1_565
Nb2_4 Tc0_2 2.696853 1_655
Nb2_4 Nb2_5 2.934515 1_554
Nb2_4 Nb2_5 2.934515 1_555
Nb2_5 Tc0_3 2.696853 1_655
Nb2_6 Tc0_0 2.696853 1_665
Nb2_6 Nb2_7 2.934515 1_554
Nb2_6 Nb2_7 2.934515 1_555
Nb2_7 Tc0_1 2.696853 1_665
Ga0_0 Ir1_0 2.619742 1_555
Ga0_0 Ir0_2 2.619749 1_555
Ga0_0 Tc0_7 2.659434 1_554
Ga0_0 Tc0_6 2.659437 1_555
Ga0_0 Nb2_1 2.892031 1_554
Ga0_0 Nb1_3 2.892031 1_554
Ga0_0 Nb2_0 2.892034 1_555
Ga0_0 Nb1_2 2.892034 1_555
Ga0_0 Nb0_3 2.918676 1_554
Ga0_0 Nb0_2 2.918679 1_555
Ga0_0 Ga0_1 2.934515 1_555
Ga0_0 Ga0_1 2.934515 1_554
Ga0_1 Ir1_1 2.619742 1_555
Ga0_1 Ir0_3 2.619749 1_555
Ga0_1 Tc0_6 2.659434 1_555
Ga0_1 Tc0_7 2.659437 1_555
Ga0_1 Nb2_0 2.892031 1_555
Ga0_1 Nb1_2 2.892031 1_555
Ga0_1 Nb2_1 2.892034 1_555
Ga0_1 Nb1_3 2.892034 1_555
Ga0_1 Nb0_2 2.918676 1_555
Ga0_1 Nb0_3 2.918679 1_555
Ga0_2 Ir1_2 2.619742 1_555
Ga0_2 Ir0_0 2.619749 1_565
Ga0_2 Tc0_5 2.659434 1_564
Ga0_2 Tc0_4 2.659437 1_565
Ga0_2 Nb2_3 2.892031 1_554
Ga0_2 Nb1_1 2.892031 1_564
Ga0_2 Nb2_2 2.892034 1_555
Ga0_2 Nb1_0 2.892034 1_565
Ga0_2 Nb0_1 2.918676 1_564
Ga0_2 Nb0_0 2.918679 1_565
Ga0_2 Ga0_3 2.934515 1_554
Ga0_2 Ga0_3 2.934515 1_555
Ga0_3 Ir1_3 2.619742 1_555
Ga0_3 Ir0_1 2.619749 1_565
Ga0_3 Tc0_4 2.659434 1_565
Ga0_3 Tc0_5 2.659437 1_565
Ga0_3 Nb2_2 2.892031 1_555
Ga0_3 Nb1_0 2.892031 1_565
Ga0_3 Nb2_3 2.892034 1_555
Ga0_3 Nb1_1 2.892034 1_565
Ga0_3 Nb0_0 2.918676 1_565
Ga0_3 Nb0_1 2.918679 1_565
Ga0_4 Ir1_4 2.619742 1_555
Ga0_4 Ir0_6 2.619749 1_555
Ga0_4 Tc0_3 2.659434 1_654
Ga0_4 Tc0_2 2.659437 1_655
Ga0_4 Nb2_5 2.892031 1_554
Ga0_4 Nb1_7 2.892031 1_554
Ga0_4 Nb2_4 2.892034 1_555
Ga0_4 Nb1_6 2.892034 1_555
Ga0_4 Nb0_7 2.918676 1_554
Ga0_4 Nb0_6 2.918679 1_555
Ga0_4 Ga0_5 2.934515 1_555
Ga0_4 Ga0_5 2.934515 1_554
Ga0_5 Ir1_5 2.619742 1_555
Ga0_5 Ir0_7 2.619749 1_555
Ga0_5 Tc0_2 2.659434 1_655
Ga0_5 Tc0_3 2.659437 1_655
Ga0_5 Nb2_4 2.892031 1_555
Ga0_5 Nb1_6 2.892031 1_555
Ga0_5 Nb2_5 2.892034 1_555
Ga0_5 Nb1_7 2.892034 1_555
Ga0_5 Nb0_6 2.918676 1_555
Ga0_5 Nb0_7 2.918679 1_555
Ga0_6 Ir1_6 2.619742 1_555
Ga0_6 Ir0_4 2.619749 1_565
Ga0_6 Tc0_1 2.659434 1_664
Ga0_6 Tc0_0 2.659437 1_665
Ga0_6 Nb2_7 2.892031 1_554
Ga0_6 Nb1_5 2.892031 1_564
Ga0_6 Nb2_6 2.892034 1_555
Ga0_6 Nb1_4 2.892034 1_565
Ga0_6 Nb0_5 2.918676 1_564
Ga0_6 Nb0_4 2.918679 1_565
Ga0_6 Ga0_7 2.934515 1_554
Ga0_6 Ga0_7 2.934515 1_555
Ga0_7 Ir1_7 2.619742 1_555
Ga0_7 Ir0_5 2.619749 1_565
Ga0_7 Tc0_0 2.659434 1_665
Ga0_7 Tc0_1 2.659437 1_665
Ga0_7 Nb2_6 2.892031 1_555
Ga0_7 Nb1_4 2.892031 1_565
Ga0_7 Nb2_7 2.892034 1_555
Ga0_7 Nb1_5 2.892034 1_565
Ga0_7 Nb0_4 2.918676 1_565
Ga0_7 Nb0_5 2.918679 1_565
Ga1_0 Ir1_0 2.619743 1_555
Ga1_0 Ir0_0 2.619754 1_555
Ga1_0 Tc0_1 2.659431 1_554
Ga1_0 Tc0_0 2.659434 1_555
Ga1_0 Nb1_5 2.892025 1_454
Ga1_0 Nb1_4 2.892028 1_455
Ga1_0 Nb0_1 2.892035 1_554
Ga1_0 Nb0_0 2.892038 1_555
Ga1_0 Nb2_1 2.918680 1_554
Ga1_0 Nb2_0 2.918682 1_555
Ga1_0 Ga1_1 2.934515 1_555
Ga1_0 Ga1_1 2.934515 1_554
Ga1_1 Ir1_1 2.619743 1_555
Ga1_1 Ir0_1 2.619754 1_555
Ga1_1 Tc0_0 2.659431 1_555
Ga1_1 Tc0_1 2.659434 1_555
Ga1_1 Nb1_4 2.892025 1_455
Ga1_1 Nb1_5 2.892028 1_455
Ga1_1 Nb0_0 2.892035 1_555
Ga1_1 Nb0_1 2.892038 1_555
Ga1_1 Nb2_0 2.918680 1_555
Ga1_1 Nb2_1 2.918682 1_555
Ga1_2 Ir1_2 2.619743 1_555
Ga1_2 Ir0_2 2.619754 1_555
Ga1_2 Tc0_3 2.659431 1_554
Ga1_2 Tc0_2 2.659434 1_555
Ga1_2 Nb1_7 2.892025 1_454
Ga1_2 Nb1_6 2.892028 1_455
Ga1_2 Nb0_3 2.892035 1_554
Ga1_2 Nb0_2 2.892038 1_555
Ga1_2 Nb2_3 2.918680 1_554
Ga1_2 Nb2_2 2.918682 1_555
Ga1_2 Ga1_3 2.934515 1_555
Ga1_2 Ga1_3 2.934515 1_554
Ga1_3 Ir1_3 2.619743 1_555
Ga1_3 Ir0_3 2.619754 1_555
Ga1_3 Tc0_2 2.659431 1_555
Ga1_3 Tc0_3 2.659434 1_555
Ga1_3 Nb1_6 2.892025 1_455
Ga1_3 Nb1_7 2.892028 1_455
Ga1_3 Nb0_2 2.892035 1_555
Ga1_3 Nb0_3 2.892038 1_555
Ga1_3 Nb2_2 2.918680 1_555
Ga1_3 Nb2_3 2.918682 1_555
Ga1_4 Ir1_4 2.619743 1_555
Ga1_4 Ir0_4 2.619754 1_555
Ga1_4 Tc0_5 2.659431 1_554
Ga1_4 Tc0_4 2.659434 1_555
Ga1_4 Nb1_1 2.892025 1_554
Ga1_4 Nb1_0 2.892028 1_555
Ga1_4 Nb0_5 2.892035 1_554
Ga1_4 Nb0_4 2.892038 1_555
Ga1_4 Nb2_5 2.918680 1_554
Ga1_4 Nb2_4 2.918682 1_555
Ga1_4 Ga1_5 2.934515 1_554
Ga1_4 Ga1_5 2.934515 1_555
Ga1_5 Ir1_5 2.619743 1_555
Ga1_5 Ir0_5 2.619754 1_555
Ga1_5 Tc0_4 2.659431 1_555
Ga1_5 Tc0_5 2.659434 1_555
Ga1_5 Nb1_0 2.892025 1_555
Ga1_5 Nb1_1 2.892028 1_555
Ga1_5 Nb0_4 2.892035 1_555
Ga1_5 Nb0_5 2.892038 1_555
Ga1_5 Nb2_4 2.918680 1_555
Ga1_5 Nb2_5 2.918682 1_555
Ga1_6 Ir1_6 2.619743 1_555
Ga1_6 Ir0_6 2.619754 1_555
Ga1_6 Tc0_7 2.659431 1_554
Ga1_6 Tc0_6 2.659434 1_555
Ga1_6 Nb1_3 2.892025 1_554
Ga1_6 Nb1_2 2.892028 1_555
Ga1_6 Nb0_7 2.892035 1_554
Ga1_6 Nb0_6 2.892038 1_555
Ga1_6 Nb2_7 2.918680 1_554
Ga1_6 Nb2_6 2.918682 1_555
Ga1_6 Ga1_7 2.934515 1_554
Ga1_6 Ga1_7 2.934515 1_555
Ga1_7 Ir1_7 2.619743 1_555
Ga1_7 Ir0_7 2.619754 1_555
Ga1_7 Tc0_6 2.659431 1_555
Ga1_7 Tc0_7 2.659434 1_555
Ga1_7 Nb1_2 2.892025 1_555
Ga1_7 Nb1_3 2.892028 1_555
Ga1_7 Nb0_6 2.892035 1_555
Ga1_7 Nb0_7 2.892038 1_555
Ga1_7 Nb2_6 2.918680 1_555
Ga1_7 Nb2_7 2.918682 1_555
Ga2_0 Ir0_4 2.619746 1_455
Ga2_0 Ir1_0 2.619754 1_555
Ga2_0 Tc0_3 2.659428 1_554
Ga2_0 Tc0_2 2.659431 1_555
Ga2_0 Nb0_3 2.892029 1_554
Ga2_0 Nb2_5 2.892029 1_454
Ga2_0 Nb0_2 2.892032 1_555
Ga2_0 Nb2_4 2.892032 1_455
Ga2_0 Nb1_5 2.918683 1_454
Ga2_0 Nb1_4 2.918686 1_455
Ga2_0 Ga2_1 2.934515 1_554
Ga2_0 Ga2_1 2.934515 1_555
Ga2_1 Ir0_5 2.619746 1_455
Ga2_1 Ir1_1 2.619754 1_555
Ga2_1 Tc0_2 2.659428 1_555
Ga2_1 Tc0_3 2.659431 1_555
Ga2_1 Nb0_2 2.892029 1_555
Ga2_1 Nb2_4 2.892029 1_455
Ga2_1 Nb0_3 2.892032 1_555
Ga2_1 Nb2_5 2.892032 1_455
Ga2_1 Nb1_4 2.918683 1_455
Ga2_1 Nb1_5 2.918686 1_455
Ga2_2 Ir0_6 2.619746 1_455
Ga2_2 Ir1_2 2.619754 1_555
Ga2_2 Tc0_1 2.659428 1_564
Ga2_2 Tc0_0 2.659431 1_565
Ga2_2 Nb0_1 2.892029 1_564
Ga2_2 Nb2_7 2.892029 1_454
Ga2_2 Nb0_0 2.892032 1_565
Ga2_2 Nb2_6 2.892032 1_455
Ga2_2 Nb1_7 2.918683 1_454
Ga2_2 Nb1_6 2.918686 1_455
Ga2_2 Ga2_3 2.934515 1_554
Ga2_2 Ga2_3 2.934515 1_555
Ga2_3 Ir0_7 2.619746 1_455
Ga2_3 Ir1_3 2.619754 1_555
Ga2_3 Tc0_0 2.659428 1_565
Ga2_3 Tc0_1 2.659431 1_565
Ga2_3 Nb0_0 2.892029 1_565
Ga2_3 Nb2_6 2.892029 1_455
Ga2_3 Nb0_1 2.892032 1_565
Ga2_3 Nb2_7 2.892032 1_455
Ga2_3 Nb1_6 2.918683 1_455
Ga2_3 Nb1_7 2.918686 1_455
Ga2_4 Ir0_0 2.619746 1_555
Ga2_4 Ir1_4 2.619754 1_555
Ga2_4 Tc0_7 2.659428 1_554
Ga2_4 Tc0_6 2.659431 1_555
Ga2_4 Nb0_7 2.892029 1_554
Ga2_4 Nb2_1 2.892029 1_554
Ga2_4 Nb0_6 2.892032 1_555
Ga2_4 Nb2_0 2.892032 1_555
Ga2_4 Nb1_1 2.918683 1_554
Ga2_4 Nb1_0 2.918686 1_555
Ga2_4 Ga2_5 2.934515 1_555
Ga2_4 Ga2_5 2.934515 1_554
Ga2_5 Ir0_1 2.619746 1_555
Ga2_5 Ir1_5 2.619754 1_555
Ga2_5 Tc0_6 2.659428 1_555
Ga2_5 Tc0_7 2.659431 1_555
Ga2_5 Nb0_6 2.892029 1_555
Ga2_5 Nb2_0 2.892029 1_555
Ga2_5 Nb0_7 2.892032 1_555
Ga2_5 Nb2_1 2.892032 1_555
Ga2_5 Nb1_0 2.918683 1_555
Ga2_5 Nb1_1 2.918686 1_555
Ga2_6 Ir0_2 2.619746 1_555
Ga2_6 Ir1_6 2.619754 1_555
Ga2_6 Tc0_5 2.659428 1_564
Ga2_6 Tc0_4 2.659431 1_565
Ga2_6 Nb0_5 2.892029 1_564
Ga2_6 Nb2_3 2.892029 1_554
Ga2_6 Nb0_4 2.892032 1_565
Ga2_6 Nb2_2 2.892032 1_555
Ga2_6 Nb1_3 2.918683 1_554
Ga2_6 Nb1_2 2.918686 1_555
Ga2_6 Ga2_7 2.934515 1_555
Ga2_6 Ga2_7 2.934515 1_554
Ga2_7 Ir0_3 2.619746 1_555
Ga2_7 Ir1_7 2.619754 1_555
Ga2_7 Tc0_4 2.659428 1_565
Ga2_7 Tc0_5 2.659431 1_565
Ga2_7 Nb0_4 2.892029 1_565
Ga2_7 Nb2_2 2.892029 1_555
Ga2_7 Nb0_5 2.892032 1_565
Ga2_7 Nb2_3 2.892032 1_555
Ga2_7 Nb1_2 2.918683 1_555
Ga2_7 Nb1_3 2.918686 1_555
Ir0_0 Nb2_1 2.794252 1_554
Ir0_0 Nb1_1 2.794255 1_554
Ir0_0 Nb2_0 2.794255 1_555
Ir0_0 Nb1_0 2.794258 1_555
Ir0_0 Nb0_1 2.794259 1_554
Ir0_0 Nb0_0 2.794262 1_555
Ir0_1 Nb2_0 2.794252 1_555
Ir0_1 Nb1_0 2.794255 1_555
Ir0_1 Nb2_1 2.794255 1_555
Ir0_1 Nb1_1 2.794258 1_555
Ir0_1 Nb0_0 2.794259 1_555
Ir0_1 Nb0_1 2.794262 1_555
Ir0_2 Nb2_3 2.794252 1_554
Ir0_2 Nb1_3 2.794255 1_554
Ir0_2 Nb2_2 2.794255 1_555
Ir0_2 Nb1_2 2.794258 1_555
Ir0_2 Nb0_3 2.794259 1_554
Ir0_2 Nb0_2 2.794262 1_555
Ir0_3 Nb2_2 2.794252 1_555
Ir0_3 Nb1_2 2.794255 1_555
Ir0_3 Nb2_3 2.794255 1_555
Ir0_3 Nb1_3 2.794258 1_555
Ir0_3 Nb0_2 2.794259 1_555
Ir0_3 Nb0_3 2.794262 1_555
Ir0_4 Nb2_5 2.794252 1_554
Ir0_4 Nb1_5 2.794255 1_554
Ir0_4 Nb2_4 2.794255 1_555
Ir0_4 Nb1_4 2.794258 1_555
Ir0_4 Nb0_5 2.794259 1_554
Ir0_4 Nb0_4 2.794262 1_555
Ir0_5 Nb2_4 2.794252 1_555
Ir0_5 Nb1_4 2.794255 1_555
Ir0_5 Nb2_5 2.794255 1_555
Ir0_5 Nb1_5 2.794258 1_555
Ir0_5 Nb0_4 2.794259 1_555
Ir0_5 Nb0_5 2.794262 1_555
Ir0_6 Nb2_7 2.794252 1_554
Ir0_6 Nb1_7 2.794255 1_554
Ir0_6 Nb2_6 2.794255 1_555
Ir0_6 Nb1_6 2.794258 1_555
Ir0_6 Nb0_7 2.794259 1_554
Ir0_6 Nb0_6 2.794262 1_555
Ir0_7 Nb2_6 2.794252 1_555
Ir0_7 Nb1_6 2.794255 1_555
Ir0_7 Nb2_7 2.794255 1_555
Ir0_7 Nb1_7 2.794258 1_555
Ir0_7 Nb0_6 2.794259 1_555
Ir0_7 Nb0_7 2.794262 1_555
Ir1_0 Nb2_1 2.794252 1_554
Ir1_0 Nb0_3 2.794255 1_554
Ir1_0 Nb2_0 2.794255 1_555
Ir1_0 Nb0_2 2.794258 1_555
Ir1_0 Nb1_5 2.794259 1_454
Ir1_0 Nb1_4 2.794262 1_455
Ir1_1 Nb2_0 2.794252 1_555
Ir1_1 Nb0_2 2.794255 1_555
Ir1_1 Nb2_1 2.794255 1_555
Ir1_1 Nb0_3 2.794258 1_555
Ir1_1 Nb1_4 2.794259 1_455
Ir1_1 Nb1_5 2.794262 1_455
Ir1_2 Nb2_3 2.794252 1_554
Ir1_2 Nb0_1 2.794255 1_564
Ir1_2 Nb2_2 2.794255 1_555
Ir1_2 Nb0_0 2.794258 1_565
Ir1_2 Nb1_7 2.794259 1_454
Ir1_2 Nb1_6 2.794262 1_455
Ir1_3 Nb2_2 2.794252 1_555
Ir1_3 Nb0_0 2.794255 1_565
Ir1_3 Nb2_3 2.794255 1_555
Ir1_3 Nb0_1 2.794258 1_565
Ir1_3 Nb1_6 2.794259 1_455
Ir1_3 Nb1_7 2.794262 1_455
Ir1_4 Nb2_5 2.794252 1_554
Ir1_4 Nb0_7 2.794255 1_554
Ir1_4 Nb2_4 2.794255 1_555
Ir1_4 Nb0_6 2.794258 1_555
Ir1_4 Nb1_1 2.794259 1_554
Ir1_4 Nb1_0 2.794262 1_555
Ir1_5 Nb2_4 2.794252 1_555
Ir1_5 Nb0_6 2.794255 1_555
Ir1_5 Nb2_5 2.794255 1_555
Ir1_5 Nb0_7 2.794258 1_555
Ir1_5 Nb1_0 2.794259 1_555
Ir1_5 Nb1_1 2.794262 1_555
Ir1_6 Nb2_7 2.794252 1_554
Ir1_6 Nb0_5 2.794255 1_564
Ir1_6 Nb2_6 2.794255 1_555
Ir1_6 Nb0_4 2.794258 1_565
Ir1_6 Nb1_3 2.794259 1_554
Ir1_6 Nb1_2 2.794262 1_555
Ir1_7 Nb2_6 2.794252 1_555
Ir1_7 Nb0_4 2.794255 1_565
Ir1_7 Nb2_7 2.794255 1_555
Ir1_7 Nb0_5 2.794258 1_565
Ir1_7 Nb1_2 2.794259 1_555
Ir1_7 Nb1_3 2.794262 1_555
