# generated using pymatgen
data_NaZrTa2N5
_symmetry_space_group_name_H-M   'P 1'
_cell_length_a   5.61820038
_cell_length_b   5.61820002
_cell_length_c   10.42972164
_cell_angle_alpha   90.00000000
_cell_angle_beta   90.00000000
_cell_angle_gamma   137.78554716
_symmetry_Int_Tables_number   1
_chemical_formula_structural   NaZrTa2N5
_chemical_formula_sum   'Na2 Zr2 Ta4 N10'
_cell_volume   221.19565228
_cell_formula_units_Z   2
loop_
 _symmetry_equiv_pos_site_id
 _symmetry_equiv_pos_as_xyz
  1  'x, y, z'
loop_
 _atom_site_type_symbol
 _atom_site_label
 _atom_site_symmetry_multiplicity
 _atom_site_fract_x
 _atom_site_fract_y
 _atom_site_fract_z
 _atom_site_occupancy
  Na  Na0  1  0.50055773  0.49944327  0.74965588  1
  Na  Na1  1  0.49944327  0.50055673  0.24965588  1
  Zr  Zr0  1  0.14180034  0.85819966  0.55515903  1
  Zr  Zr1  1  0.85819966  0.14180034  0.05515903  1
  Ta  Ta0  1  0.79625753  0.20374247  0.74761520  1
  Ta  Ta1  1  0.86761541  0.13238459  0.44612209  1
  Ta  Ta2  1  0.20374247  0.79625753  0.24761520  1
  Ta  Ta3  1  0.13238459  0.86761541  0.94612209  1
  N  N0  1  0.30618730  0.69381270  0.08118017  1
  N  N1  1  0.96036844  0.03963156  0.87465897  1
  N  N2  1  0.94850473  0.05149527  0.61835646  1
  N  N3  1  0.03963156  0.96036844  0.37465897  1
  N  N4  1  0.31519199  0.68480801  0.42080807  1
  N  N5  1  0.25279875  0.74720125  0.75644514  1
  N  N6  1  0.69381270  0.30618730  0.58118017  1
  N  N7  1  0.74720125  0.25279875  0.25644514  1
  N  N8  1  0.05149527  0.94850473  0.11835646  1
  N  N9  1  0.68480801  0.31519199  0.92080807  1
loop_
_geom_bond_atom_site_label_1
_geom_bond_atom_site_label_2
_geom_bond_distance
_geom_bond_site_symmetry_2
N0 Ta2 2.041193 1_555
N0 Zr1 2.112875 1_455
N0 Zr1 2.112875 1_565
N0 Ta3 2.302932 1_554
N0 Na1 2.681698 1_555
N1 Ta3 1.951137 1_645
N1 Zr1 2.165887 1_556
N1 Ta0 2.171435 1_555
N1 Na0 2.443470 1_545
N1 Na0 2.443473 1_655
N2 Ta1 1.986422 1_555
N2 Ta0 2.089132 1_555
N2 Zr0 2.130739 1_645
N2 Na0 2.503265 1_545
N2 Na0 2.503269 1_655
N3 Ta1 1.951137 1_465
N3 Zr0 2.165887 1_555
N3 Ta2 2.171435 1_555
N3 Na1 2.443471 1_565
N3 Na1 2.443471 1_455
N4 Ta1 2.113056 1_455
N4 Ta1 2.113057 1_565
N4 Ta2 2.151226 1_555
N4 Zr0 2.295014 1_555
N4 Na1 2.629991 1_555
N5 Ta0 2.075893 1_455
N5 Ta0 2.075893 1_565
N5 Ta3 2.346667 1_555
N5 Zr0 2.400237 1_555
N5 Na0 2.598101 1_555
N6 Ta0 2.041193 1_555
N6 Zr0 2.112875 1_655
N6 Zr0 2.112875 1_545
N6 Ta1 2.302932 1_555
N6 Na0 2.681694 1_555
N7 Ta2 2.075893 1_655
N7 Ta2 2.075893 1_545
N7 Ta1 2.346667 1_555
N7 Zr1 2.400237 1_555
N7 Na1 2.598095 1_555
N8 Ta3 1.986422 1_554
N8 Ta2 2.089132 1_555
N8 Zr1 2.130739 1_465
N8 Na1 2.503266 1_565
N8 Na1 2.503266 1_455
N9 Ta3 2.113056 1_655
N9 Ta3 2.113057 1_545
N9 Ta0 2.151226 1_555
N9 Zr1 2.295014 1_556
N9 Na0 2.629988 1_555
