# generated using pymatgen
data_Li10Zn4O9
_symmetry_space_group_name_H-M   'P 1'
_cell_length_a   9.66072755
_cell_length_b   9.66072755
_cell_length_c   4.62300499
_cell_angle_alpha   90.00000000
_cell_angle_beta   90.00000000
_cell_angle_gamma   90.00000000
_symmetry_Int_Tables_number   1
_chemical_formula_structural   Li10Zn4O9
_chemical_formula_sum   'Li20 Zn8 O18'
_cell_volume   431.46346908
_cell_formula_units_Z   2
loop_
 _symmetry_equiv_pos_site_id
 _symmetry_equiv_pos_as_xyz
  1  'x, y, z'
loop_
 _atom_site_type_symbol
 _atom_site_label
 _atom_site_symmetry_multiplicity
 _atom_site_fract_x
 _atom_site_fract_y
 _atom_site_fract_z
 _atom_site_occupancy
  Li  Li0  1  0.64450587  0.18744805  0.29071241  1
  Li  Li1  1  0.35549413  0.81255195  0.29071241  1
  Li  Li2  1  0.31255195  0.14450587  0.79071241  1
  Li  Li3  1  0.68744805  0.85549413  0.79071241  1
  Li  Li4  1  0.18744805  0.64450587  0.70928759  1
  Li  Li5  1  0.14450587  0.31255195  0.20928759  1
  Li  Li6  1  0.85549413  0.68744805  0.20928759  1
  Li  Li7  1  0.81255195  0.35549413  0.70928759  1
  Li  Li8  1  0.18744805  0.35549413  0.70928759  1
  Li  Li9  1  0.81255195  0.64450587  0.70928759  1
  Li  Li10  1  0.31255195  0.85549413  0.79071241  1
  Li  Li11  1  0.35549413  0.18744805  0.29071241  1
  Li  Li12  1  0.64450587  0.81255195  0.29071241  1
  Li  Li13  1  0.68744805  0.14450587  0.79071241  1
  Li  Li14  1  -0.00000000  0.50000000  0.16911818  1
  Li  Li15  1  -0.00000000  0.50000000  0.66911818  1
  Li  Li16  1  0.50000000  -0.00000000  0.33088182  1
  Li  Li17  1  0.50000000  -0.00000000  0.83088182  1
  Li  Li18  1  0.14450587  0.68744805  0.20928759  1
  Li  Li19  1  0.85549413  0.31255195  0.20928759  1
  Zn  Zn0  1  0.66190559  0.50000000  0.23135998  1
  Zn  Zn1  1  0.33809441  0.50000000  0.23135998  1
  Zn  Zn2  1  -0.00000000  0.16190559  0.73135998  1
  Zn  Zn3  1  -0.00000000  0.83809441  0.73135998  1
  Zn  Zn4  1  0.50000000  0.66190559  0.76864002  1
  Zn  Zn5  1  0.16190559  -0.00000000  0.26864002  1
  Zn  Zn6  1  0.83809441  -0.00000000  0.26864002  1
  Zn  Zn7  1  0.50000000  0.33809441  0.76864002  1
  O  O0  1  0.17415350  0.17415350  0.50000000  1
  O  O1  1  0.32584650  0.67415350  0.00000000  1
  O  O2  1  0.82584650  0.17415350  0.50000000  1
  O  O3  1  0.67415350  0.67415350  0.00000000  1
  O  O4  1  0.32584650  0.32584650  0.00000000  1
  O  O5  1  0.17415350  0.82584650  0.50000000  1
  O  O6  1  0.50000000  0.50000000  0.50000000  1
  O  O7  1  -0.00000000  -0.00000000  0.00000000  1
  O  O8  1  0.65740603  -0.00000000  0.06956648  1
  O  O9  1  0.34259397  -0.00000000  0.06956648  1
  O  O10  1  0.50000000  0.15740603  0.56956648  1
  O  O11  1  0.50000000  0.84259397  0.56956648  1
  O  O12  1  -0.00000000  0.65740603  0.93043352  1
  O  O13  1  0.15740603  0.50000000  0.43043352  1
  O  O14  1  0.84259397  0.50000000  0.43043352  1
  O  O15  1  -0.00000000  0.34259397  0.93043352  1
  O  O16  1  0.67415350  0.32584650  0.00000000  1
  O  O17  1  0.82584650  0.82584650  0.50000000  1
loop_
_geom_bond_atom_site_label_1
_geom_bond_atom_site_label_2
_geom_bond_distance
_geom_bond_site_symmetry_2
Li0 O16 1.917270 1_555
Li0 O10 1.922246 1_555
Li0 O2 2.005422 1_555
Li0 O8 2.083279 1_555
Li1 O1 1.917270 1_555
Li1 O11 1.922246 1_555
Li1 O5 2.005422 1_555
Li1 O9 2.083279 1_565
Li2 O0 1.917270 1_555
Li2 O9 1.922246 1_556
Li2 O4 2.005422 1_556
Li2 O10 2.083279 1_555
Li3 O17 1.917270 1_555
Li3 O8 1.922246 1_566
Li3 O3 2.005422 1_556
Li3 O11 2.083279 1_555
Li4 O1 1.917270 1_556
Li4 O13 1.922246 1_555
Li4 O5 2.005422 1_555
Li4 O12 2.083279 1_555
Li5 O0 1.917270 1_555
Li5 O15 1.922246 1_554
Li5 O4 2.005422 1_555
Li5 O13 2.083279 1_555
Li6 O17 1.917270 1_555
Li6 O12 1.922246 1_654
Li6 O3 2.005422 1_555
Li6 O14 2.083279 1_555
Li7 O16 1.917270 1_556
Li7 O14 1.922246 1_555
Li7 O2 2.005422 1_555
Li7 O15 2.083279 1_655
Li8 O4 1.917270 1_556
Li8 O13 1.922246 1_555
Li8 O0 2.005422 1_555
Li8 O15 2.083279 1_555
Li9 O3 1.917270 1_556
Li9 O14 1.922246 1_555
Li9 O17 2.005422 1_555
Li9 O12 2.083279 1_655
Li10 O5 1.917270 1_555
Li10 O9 1.922246 1_566
Li10 O1 2.005422 1_556
Li10 O11 2.083279 1_555
Li11 O4 1.917270 1_555
Li11 O10 1.922246 1_555
Li11 O0 2.005422 1_555
Li11 O9 2.083279 1_555
Li12 O3 1.917270 1_555
Li12 O11 1.922246 1_555
Li12 O17 2.005422 1_555
Li12 O8 2.083279 1_565
Li13 O2 1.917270 1_555
Li13 O8 1.922246 1_556
Li13 O16 2.005422 1_556
Li13 O10 2.083279 1_555
Li14 O15 1.878823 1_554
Li14 O12 1.878823 1_554
Li14 O14 1.942115 1_455
Li14 O13 1.942115 1_555
Li15 O14 1.878823 1_455
Li15 O13 1.878823 1_555
Li15 O12 1.942115 1_555
Li15 O15 1.942115 1_555
Li16 O10 1.878823 1_555
Li16 O11 1.878823 1_545
Li16 O9 1.942115 1_555
Li16 O8 1.942115 1_555
Li17 O9 1.878823 1_556
Li17 O8 1.878823 1_556
Li17 O11 1.942115 1_545
Li17 O10 1.942115 1_555
Li18 O5 1.917270 1_555
Li18 O12 1.922246 1_554
Li18 O1 2.005422 1_555
Li18 O13 2.083279 1_555
Li19 O2 1.917270 1_555
Li19 O15 1.922246 1_654
Li19 O16 2.005422 1_555
Li19 O14 2.083279 1_555
O0 Zn2 1.997157 1_555
O0 Zn5 1.997157 1_555
O1 Zn1 1.997157 1_555
O1 Zn4 1.997157 1_554
O2 Zn2 1.997157 1_655
O2 Zn6 1.997157 1_555
O3 Zn0 1.997157 1_555
O3 Zn4 1.997157 1_554
O4 Zn1 1.997157 1_555
O4 Zn7 1.997157 1_554
O5 Zn5 1.997157 1_565
O5 Zn3 1.997157 1_555
O6 Zn1 1.997214 1_555
O6 Zn7 1.997214 1_555
O6 Zn0 1.997214 1_555
O6 Zn4 1.997214 1_555
O7 Zn5 1.997214 1_555
O7 Zn2 1.997214 1_554
O7 Zn6 1.997214 1_455
O7 Zn3 1.997214 1_544
O8 Zn6 1.973332 1_555
O9 Zn5 1.973332 1_555
O10 Zn7 1.973332 1_555
O11 Zn4 1.973332 1_555
O12 Zn3 1.973332 1_555
O13 Zn1 1.973332 1_555
O14 Zn0 1.973332 1_555
O15 Zn2 1.973332 1_555
O16 Zn7 1.997157 1_554
O16 Zn0 1.997157 1_555
O17 Zn6 1.997157 1_565
O17 Zn3 1.997157 1_655
