# generated using pymatgen
data_Re4As6SeS2
_symmetry_space_group_name_H-M   'P 1'
_cell_length_a   7.05771719
_cell_length_b   7.06780551
_cell_length_c   7.05771497
_cell_angle_alpha   59.84032508
_cell_angle_beta   59.89885461
_cell_angle_gamma   59.84032286
_symmetry_Int_Tables_number   1
_chemical_formula_structural   Re4As6SeS2
_chemical_formula_sum   'Re4 As6 Se1 S2'
_cell_volume   248.14989379
_cell_formula_units_Z   1
loop_
 _symmetry_equiv_pos_site_id
 _symmetry_equiv_pos_as_xyz
  1  'x, y, z'
loop_
 _atom_site_type_symbol
 _atom_site_label
 _atom_site_symmetry_multiplicity
 _atom_site_fract_x
 _atom_site_fract_y
 _atom_site_fract_z
 _atom_site_occupancy
  Re  Re0  1  0.39882005  0.40265593  0.39882005  1
  Re  Re1  1  0.39831670  0.79813146  0.39831670  1
  Re  Re2  1  0.79807137  0.40127035  0.39691816  1
  Re  Re3  1  0.39691816  0.40127035  0.79807137  1
  As  As0  1  0.99833672  0.00387644  0.99833672  1
  As  As1  1  0.14147796  0.14450019  0.14147796  1
  As  As2  1  0.14093176  0.57398960  0.14093176  1
  As  As3  1  0.56805748  0.14467546  0.14239830  1
  As  As4  1  0.14239830  0.14467546  0.56805748  1
  As  As5  1  0.63955987  0.63781781  0.63955987  1
  Se  Se0  1  0.63918403  0.08468375  0.63918403  1
  S  S0  1  0.10806449  0.63122811  0.62986410  1
  S  S1  1  0.62986410  0.63122811  0.10806449  1
loop_
_geom_bond_atom_site_label_1
_geom_bond_atom_site_label_2
_geom_bond_distance
_geom_bond_site_symmetry_2
Re0 S0 2.332235 1_555
Re0 S1 2.332235 1_555
Re0 Se0 2.455859 1_555
Re1 S1 2.322018 1_555
Re1 S0 2.322019 1_555
Re2 S1 2.316556 1_555
Re2 Se0 2.437513 1_555
Re3 S0 2.316557 1_555
Re3 Se0 2.437513 1_555
As0 As1 2.463867 1_656
As0 As2 2.475506 1_646
As0 As4 2.475714 1_655
As0 As3 2.475715 1_556
As1 Re2 2.627337 1_455
As1 Re3 2.627337 1_554
As1 Re1 2.634893 1_545
As2 Re3 2.641345 1_554
As2 Re2 2.641345 1_455
As2 Re0 2.643004 1_555
As3 Re3 2.639746 1_554
As3 Re0 2.643033 1_555
As3 Re1 2.651285 1_545
As4 Re2 2.639747 1_455
As4 Re0 2.643034 1_555
As4 Re1 2.651285 1_545
As5 Re2 2.460725 1_555
As5 Re3 2.460725 1_555
As5 Re1 2.472351 1_555
