# generated using pymatgen
data_SrCuPRh2
_symmetry_space_group_name_H-M   'P 1'
_cell_length_a   5.67812598
_cell_length_b   5.67812651
_cell_length_c   5.67812616
_cell_angle_alpha   136.61078561
_cell_angle_beta   136.61080053
_cell_angle_gamma   63.03744455
_symmetry_Int_Tables_number   1
_chemical_formula_structural   SrCuPRh2
_chemical_formula_sum   'Sr1 Cu1 P1 Rh2'
_cell_volume   85.30157473
_cell_formula_units_Z   1
loop_
 _symmetry_equiv_pos_site_id
 _symmetry_equiv_pos_as_xyz
  1  'x, y, z'
loop_
 _atom_site_type_symbol
 _atom_site_label
 _atom_site_symmetry_multiplicity
 _atom_site_fract_x
 _atom_site_fract_y
 _atom_site_fract_z
 _atom_site_occupancy
  Sr  Sr0  1  0.00892023  0.00892023  1.00000000  1
  Cu  Cu0  1  0.60400818  0.60400818  0.00000000  1
  P  P0  1  0.35940494  0.35940494  1.00000000  1
  Rh  Rh0  1  0.26383383  0.76383383  0.50000000  1
  Rh  Rh1  1  0.76383383  0.26383383  0.50000000  1
loop_
_geom_bond_atom_site_label_1
_geom_bond_atom_site_label_2
_geom_bond_distance
_geom_bond_site_symmetry_2
Cu0 P0 2.367969 1_554
Cu0 Rh0 2.607616 1_655
Cu0 Rh0 2.607616 1_554
Cu0 Rh1 2.607617 1_554
Cu0 Rh1 2.607617 1_565
Cu0 Sr0 3.107852 1_553
Cu0 Sr0 3.107852 1_665
Cu0 Sr0 3.107852 1_564
Cu0 Sr0 3.107853 1_654
P0 Rh1 2.293838 1_455
P0 Rh1 2.293839 1_556
P0 Rh0 2.293839 1_556
P0 Rh0 2.293839 1_545
P0 Sr0 3.302489 1_666
P0 Sr0 3.302489 1_554
P0 Sr0 3.302490 1_655
P0 Sr0 3.302490 1_565
P0 Sr0 3.392992 1_555
Rh0 Sr0 3.167828 1_665
Rh0 Sr0 3.167828 1_564
Rh0 Sr0 3.239696 1_565
Rh0 Sr0 3.239697 1_554
Rh1 Sr0 3.167828 1_654
Rh1 Sr0 3.167828 1_665
Rh1 Sr0 3.239696 1_554
Rh1 Sr0 3.239696 1_655
