# generated using pymatgen
data_Zr6GaSnC2
_symmetry_space_group_name_H-M   'P 1'
_cell_length_a   6.09912229
_cell_length_b   6.09912284
_cell_length_c   9.12751909
_cell_angle_alpha   90.00000000
_cell_angle_beta   90.00000000
_cell_angle_gamma   147.15154932
_symmetry_Int_Tables_number   1
_chemical_formula_structural   Zr6GaSnC2
_chemical_formula_sum   'Zr6 Ga1 Sn1 C2'
_cell_volume   184.17141338
_cell_formula_units_Z   1
loop_
 _symmetry_equiv_pos_site_id
 _symmetry_equiv_pos_as_xyz
  1  'x, y, z'
loop_
 _atom_site_type_symbol
 _atom_site_label
 _atom_site_symmetry_multiplicity
 _atom_site_fract_x
 _atom_site_fract_y
 _atom_site_fract_z
 _atom_site_occupancy
  Zr  Zr0  1  0.62737535  0.37262565  0.05017999  1
  Zr  Zr1  1  0.95192540  0.04807660  0.25000000  1
  Zr  Zr2  1  0.62737535  0.37262565  0.44982001  1
  Zr  Zr3  1  0.37487498  0.62512602  0.53711644  1
  Zr  Zr4  1  0.03996639  0.96003561  0.75000000  1
  Zr  Zr5  1  0.37487498  0.62512602  0.96288356  1
  Ga  Ga0  1  0.25269808  0.74730292  0.25000000  1
  Sn  Sn0  1  0.74832506  0.25167594  0.75000000  1
  C  C0  1  0.00129521  0.99870479  0.00221203  1
  C  C1  1  0.00129521  0.99870479  0.49778797  1
loop_
_geom_bond_atom_site_label_1
_geom_bond_atom_site_label_2
_geom_bond_distance
_geom_bond_site_symmetry_2
Ga0 Zr1 2.899608 1_455
Ga0 Zr1 2.899610 1_565
Ga0 Zr2 2.906982 1_455
Ga0 Zr0 2.906982 1_455
Ga0 Zr2 2.906982 1_565
Ga0 Zr0 2.906982 1_565
Ga0 Zr3 2.985200 1_555
Ga0 Zr5 2.985200 1_554
Sn0 Zr4 2.986185 1_545
Sn0 Zr4 2.986187 1_655
Sn0 Zr5 2.990322 1_655
Sn0 Zr3 2.990322 1_655
Sn0 Zr5 2.990322 1_545
Sn0 Zr3 2.990322 1_545
Sn0 Zr0 3.083789 1_556
Sn0 Zr2 3.083789 1_555
C0 Zr5 2.300168 1_454
C0 Zr5 2.300171 1_564
C0 Zr0 2.311237 1_455
C0 Zr0 2.311239 1_565
C0 Zr1 2.334295 1_465
C0 Zr4 2.346113 1_554
C1 Zr3 2.300168 1_455
C1 Zr3 2.300171 1_565
C1 Zr2 2.311237 1_455
C1 Zr2 2.311239 1_565
C1 Zr1 2.334295 1_465
C1 Zr4 2.346113 1_555
