# generated using pymatgen
data_ScSbBr6
_symmetry_space_group_name_H-M   'P 1'
_cell_length_a   7.67370292
_cell_length_b   7.67370309
_cell_length_c   7.67370234
_cell_angle_alpha   53.91033332
_cell_angle_beta   53.91033046
_cell_angle_gamma   53.91033785
_symmetry_Int_Tables_number   1
_chemical_formula_structural   ScSbBr6
_chemical_formula_sum   'Sc1 Sb1 Br6'
_cell_volume   274.05787437
_cell_formula_units_Z   1
loop_
 _symmetry_equiv_pos_site_id
 _symmetry_equiv_pos_as_xyz
  1  'x, y, z'
loop_
 _atom_site_type_symbol
 _atom_site_label
 _atom_site_symmetry_multiplicity
 _atom_site_fract_x
 _atom_site_fract_y
 _atom_site_fract_z
 _atom_site_occupancy
  Sc  Sc0  1  0.66667918  0.66667918  0.66667918  1
  Sb  Sb0  1  0.33340714  0.33340714  0.33340714  1
  Br  Br0  1  0.73391846  0.44168607  0.06246902  1
  Br  Br1  1  0.57357304  0.90508388  0.28318320  1
  Br  Br2  1  0.06247002  0.73391746  0.44168507  1
  Br  Br3  1  0.90508388  0.28318320  0.57357304  1
  Br  Br4  1  0.44168507  0.06246902  0.73391846  1
  Br  Br5  1  0.28318320  0.57357204  0.90508488  1
loop_
_geom_bond_atom_site_label_1
_geom_bond_atom_site_label_2
_geom_bond_distance
_geom_bond_site_symmetry_2
Br0 Sc0 2.662811 1_554
Br0 Sb0 2.811443 1_555
Br1 Sc0 2.666863 1_555
Br1 Sb0 2.804907 1_565
Br2 Sc0 2.662813 1_455
Br2 Sb0 2.811434 1_555
Br3 Sc0 2.666863 1_555
Br3 Sb0 2.804907 1_655
Br4 Sc0 2.662811 1_545
Br4 Sb0 2.811439 1_555
Br5 Sc0 2.666866 1_555
Br5 Sb0 2.804901 1_556
