# generated using pymatgen
data_Zr6Zn16Au7C
_symmetry_space_group_name_H-M   'P 1'
_cell_length_a   8.73122687
_cell_length_b   8.73989617
_cell_length_c   8.73989613
_cell_angle_alpha   59.99999648
_cell_angle_beta   59.96714594
_cell_angle_gamma   59.96713846
_symmetry_Int_Tables_number   1
_chemical_formula_structural   Zr6Zn16Au7C
_chemical_formula_sum   'Zr6 Zn16 Au7 C1'
_cell_volume   471.36457354
_cell_formula_units_Z   1
loop_
 _symmetry_equiv_pos_site_id
 _symmetry_equiv_pos_as_xyz
  1  'x, y, z'
loop_
 _atom_site_type_symbol
 _atom_site_label
 _atom_site_symmetry_multiplicity
 _atom_site_fract_x
 _atom_site_fract_y
 _atom_site_fract_z
 _atom_site_occupancy
  Zr  Zr0  1  0.69178758  0.30865937  0.30865937  1
  Zr  Zr1  1  0.30839934  0.68939723  0.68939723  1
  Zr  Zr2  1  0.30839934  0.68939723  0.31280720  1
  Zr  Zr3  1  0.69178758  0.30865937  0.69089267  1
  Zr  Zr4  1  0.30839934  0.31280720  0.68939723  1
  Zr  Zr5  1  0.69178758  0.69089267  0.30865937  1
  Zn  Zn0  1  0.36109844  0.87963252  0.87963252  1
  Zn  Zn1  1  0.49848142  0.99845344  0.99845344  1
  Zn  Zn2  1  0.99959839  0.49960433  0.49960433  1
  Zn  Zn3  1  0.99959839  0.49960433  0.00119396  1
  Zn  Zn4  1  0.49848142  0.99845344  0.50461269  1
  Zn  Zn5  1  0.99959839  0.00119396  0.49960433  1
  Zn  Zn6  1  0.49848142  0.50461269  0.99845344  1
  Zn  Zn7  1  0.33290355  0.33260450  0.33260450  1
  Zn  Zn8  1  0.66601554  0.66859588  0.66859588  1
  Zn  Zn9  1  0.33290355  0.33260450  0.00188946  1
  Zn  Zn10  1  0.33290355  0.00188946  0.33260450  1
  Zn  Zn11  1  0.66601554  0.66859588  0.99679069  1
  Zn  Zn12  1  0.66601554  0.99679069  0.66859588  1
  Zn  Zn13  1  0.00455052  0.33181683  0.33181683  1
  Zn  Zn14  1  0.99535794  0.66821369  0.66821369  1
  Zn  Zn15  1  0.99903599  0.00032167  0.00032167  1
  Au  Au0  1  0.12519523  0.11742601  0.11742601  1
  Au  Au1  1  0.87863273  0.87899346  0.87899346  1
  Au  Au2  1  0.12519523  0.11742601  0.63995575  1
  Au  Au3  1  0.12519523  0.63995575  0.11742601  1
  Au  Au4  1  0.87863273  0.87899346  0.36337835  1
  Au  Au5  1  0.87863273  0.36337835  0.87899346  1
  Au  Au6  1  0.63357611  0.12214163  0.12214163  1
  C  C0  1  0.50334462  0.49888546  0.49888546  1
loop_
_geom_bond_atom_site_label_1
_geom_bond_atom_site_label_2
_geom_bond_distance
_geom_bond_site_symmetry_2
Zn0 Zn15 2.579867 1_466
Zn0 Zn6 2.677282 1_555
Zn0 Zn4 2.677282 1_555
Zn0 Zn1 2.677318 1_555
Zn0 Zn8 2.731858 1_555
Zn0 Zn11 2.731868 1_555
Zn0 Zn12 2.731868 1_555
Zn0 Zr1 3.168023 1_555
Zn0 Zr4 3.168060 1_565
Zn0 Zr2 3.168060 1_556
Zn1 Zn11 2.500104 1_555
Zn1 Zn12 2.500104 1_555
Zn1 Zn9 2.537305 1_566
Zn1 Zn10 2.537305 1_566
Zn1 Zr4 3.178171 1_565
Zn1 Zr2 3.178171 1_556
Zn1 Zr5 3.189986 1_556
Zn1 Zr3 3.189986 1_565
Zn2 Zn7 2.521199 1_655
Zn2 Zn8 2.532850 1_555
Zn2 Zr5 3.163064 1_555
Zn2 Zr3 3.163065 1_555
Zn2 Zr4 3.170014 1_655
Zn2 Zr2 3.170015 1_655
Zn3 Zn9 2.521202 1_655
Zn3 Zr5 3.163052 1_555
Zn3 Zr0 3.163062 1_555
Zn3 Zr4 3.170014 1_654
Zn3 Zr1 3.170015 1_654
Zn4 Zn8 2.500096 1_555
Zn4 Zn7 2.537302 1_565
Zn4 Zr4 3.178171 1_565
Zn4 Zr1 3.178171 1_555
Zn4 Zr0 3.189984 1_565
Zn4 Zr5 3.189998 1_555
Zn5 Zr3 3.163052 1_555
Zn5 Zr0 3.163061 1_555
Zn5 Zr1 3.170014 1_645
Zn5 Zr2 3.170014 1_645
Zn6 Zn8 2.500096 1_555
Zn6 Zn9 2.537297 1_556
Zn6 Zn7 2.537302 1_556
Zn6 Zr2 3.178171 1_556
Zn6 Zr1 3.178171 1_555
Zn6 Zr0 3.189984 1_556
Zn6 Zr3 3.189998 1_555
Zn7 Zn9 2.890415 1_555
Zn7 Zr2 2.937579 1_555
Zn7 Zr4 2.937579 1_555
Zn7 Zr0 2.938938 1_555
Zn8 Zr3 2.950763 1_555
Zn8 Zr5 2.950763 1_555
Zn8 Zr1 2.951654 1_555
Zn9 Zr1 2.937583 1_554
Zn9 Zr4 2.937588 1_554
Zn9 Zr3 2.938949 1_554
Zn10 Zn5 2.521202 1_455
Zn10 Zn4 2.537297 1_545
Zn10 Zn13 2.873827 1_555
Zn10 Zn9 2.890415 1_555
Zn10 Zn7 2.890415 1_555
Zn10 Zr1 2.937583 1_545
Zn10 Zr2 2.937588 1_545
Zn10 Zr5 2.938948 1_545
Zn11 Zn6 2.500081 1_555
Zn11 Zn3 2.532858 1_556
Zn11 Zn12 2.868388 1_555
Zn11 Zn8 2.868389 1_555
Zn11 Zn14 2.872219 1_555
Zn11 Zr0 2.950767 1_556
Zn11 Zr5 2.950772 1_556
Zn11 Zr2 2.951665 1_556
Zn12 Zn4 2.500081 1_555
Zn12 Zn5 2.532858 1_565
Zn12 Zn8 2.868389 1_555
Zn12 Zn14 2.872219 1_555
Zn12 Zr0 2.950767 1_565
Zn12 Zr3 2.950772 1_565
Zn12 Zr4 2.951665 1_565
Zn13 Zn3 2.515217 1_455
Zn13 Zn5 2.515217 1_455
Zn13 Zn2 2.515217 1_455
Zn13 Zn9 2.873828 1_555
Zn13 Zn7 2.873832 1_555
Zn13 Zr5 2.947306 1_455
Zn13 Zr3 2.947306 1_455
Zn13 Zr0 2.947316 1_455
Zn14 Zn2 2.531182 1_555
Zn14 Zn3 2.531197 1_556
Zn14 Zn5 2.531197 1_565
Zn14 Zn8 2.872223 1_555
Zn14 Zr4 2.930261 1_655
Zn14 Zr2 2.930261 1_655
Zn14 Zr1 2.930271 1_655
Au0 Zn15 2.571557 1_455
Au0 Zn1 2.661123 1_544
Au0 Zn3 2.728892 1_455
Au0 Zn5 2.728893 1_455
Au0 Zn10 2.743592 1_555
Au0 Zn9 2.743592 1_555
Au0 Zn13 2.773266 1_555
Au0 Zn0 2.937758 1_544
Au0 Zr2 3.134552 1_545
Au0 Zr4 3.134552 1_554
Au0 Zr0 3.168333 1_455
Au1 Zn15 2.590409 1_566
Au1 Zn3 2.707961 1_556
Au1 Zn5 2.707961 1_565
Au1 Zn1 2.710985 1_555
Au1 Zn14 2.731486 1_555
Au1 Zn12 2.738308 1_555
Au1 Zn11 2.738308 1_555
Au1 Zr3 3.137620 1_565
Au1 Zr5 3.137620 1_556
Au1 Zr1 3.141613 1_655
Au2 Zn15 2.571543 1_456
Au2 Zn4 2.661124 1_545
Au2 Zn2 2.728893 1_455
Au2 Zn5 2.728907 1_455
Au2 Zn7 2.743595 1_555
Au2 Zn10 2.743599 1_555
Au2 Zn13 2.773280 1_555
Au2 Zn0 2.937715 1_545
Au2 Zr4 3.134541 1_555
Au2 Zr1 3.134555 1_545
Au2 Zr3 3.168340 1_455
Au3 Zn15 2.571543 1_465
Au3 Zn6 2.661124 1_554
Au3 Zn2 2.728893 1_455
Au3 Zn3 2.728907 1_455
Au3 Zn7 2.743594 1_555
Au3 Zn9 2.743599 1_555
Au3 Zn13 2.773280 1_555
Au3 Zn0 2.937715 1_554
Au3 Zr2 3.134541 1_555
Au3 Zr1 3.134556 1_554
Au3 Zr5 3.168340 1_455
Au4 Zn15 2.590387 1_565
Au4 Zn2 2.707961 1_555
Au4 Zn5 2.707983 1_565
Au4 Zn4 2.710986 1_555
Au4 Zn14 2.731493 1_555
Au4 Zn12 2.738308 1_555
Au4 Zn8 2.738308 1_555
Au4 Zr5 3.137615 1_555
Au4 Zr0 3.137622 1_565
Au4 Zr2 3.141618 1_655
Au5 Zn15 2.590387 1_556
Au5 Zn2 2.707961 1_555
Au5 Zn3 2.707983 1_556
Au5 Zn6 2.710986 1_555
Au5 Zn14 2.731494 1_555
Au5 Zn8 2.738307 1_555
Au5 Zn11 2.738307 1_555
Au5 Zr3 3.137615 1_555
Au5 Zr0 3.137622 1_556
Au5 Zr4 3.141618 1_655
Au6 Zn15 2.604075 1_555
Au6 Zn9 2.715668 1_555
Au6 Zn10 2.715668 1_555
Au6 Zn7 2.715672 1_555
Au6 Zn6 2.729450 1_554
Au6 Zn4 2.729450 1_545
Au6 Zn1 2.729451 1_544
Au6 Zr0 3.144704 1_555
Au6 Zr5 3.144719 1_545
Au6 Zr3 3.144719 1_554
C0 Zr3 2.350105 1_555
C0 Zr5 2.350105 1_555
C0 Zr0 2.350117 1_555
C0 Zr1 2.353837 1_555
C0 Zr2 2.353837 1_555
C0 Zr4 2.353837 1_555
