# generated using pymatgen
data_CsP3I2O13
_symmetry_space_group_name_H-M   'P 1'
_cell_length_a   8.82065014
_cell_length_b   7.79449236
_cell_length_c   9.28307387
_cell_angle_alpha   76.11947706
_cell_angle_beta   90.00000000
_cell_angle_gamma   90.00000000
_symmetry_Int_Tables_number   1
_chemical_formula_structural   CsP3I2O13
_chemical_formula_sum   'Cs2 P6 I4 O26'
_cell_volume   619.59677916
_cell_formula_units_Z   2
loop_
 _symmetry_equiv_pos_site_id
 _symmetry_equiv_pos_as_xyz
  1  'x, y, z'
loop_
 _atom_site_type_symbol
 _atom_site_label
 _atom_site_symmetry_multiplicity
 _atom_site_fract_x
 _atom_site_fract_y
 _atom_site_fract_z
 _atom_site_occupancy
  Cs  Cs0  1  0.84262203  0.50000000  0.75000000  1
  Cs  Cs1  1  0.15737797  0.50000000  0.25000000  1
  P  P0  1  0.45440880  0.82101731  0.84144716  1
  P  P1  1  0.54559120  0.82101731  0.34144716  1
  P  P2  1  0.01982466  0.00000000  0.25000000  1
  P  P3  1  0.98017534  0.00000000  0.75000000  1
  P  P4  1  0.45440880  0.17898269  0.65855284  1
  P  P5  1  0.54559120  0.17898269  0.15855284  1
  I  I0  1  0.75186836  0.80052798  0.04500625  1
  I  I1  1  0.75186836  0.19947202  0.45499375  1
  I  I2  1  0.24813164  0.80052798  0.54500625  1
  I  I3  1  0.24813164  0.19947202  0.95499375  1
  O  O0  1  0.53536024  0.00000000  0.75000000  1
  O  O1  1  0.16473357  0.40758247  0.91415633  1
  O  O2  1  0.34181992  0.13665651  0.55467329  1
  O  O3  1  0.65818008  0.86334349  0.44532671  1
  O  O4  1  0.39551946  0.72322935  0.72703582  1
  O  O5  1  0.60448054  0.72322935  0.22703582  1
  O  O6  1  0.59275855  0.28995964  0.58475973  1
  O  O7  1  0.92955530  0.10207558  0.34132625  1
  O  O8  1  0.16473357  0.59241753  0.58584367  1
  O  O9  1  0.83526643  0.59241753  0.08584367  1
  O  O10  1  0.87948249  0.14150265  0.64978156  1
  O  O11  1  0.92955530  0.89792442  0.15867375  1
  O  O12  1  0.87948249  0.85849735  0.85021844  1
  O  O13  1  0.12051751  0.85849735  0.35021844  1
  O  O14  1  0.07044470  0.89792442  0.65867375  1
  O  O15  1  0.65818008  0.13665651  0.05467329  1
  O  O16  1  0.59275855  0.71004036  0.91524027  1
  O  O17  1  0.12051751  0.14150265  0.14978156  1
  O  O18  1  0.83526643  0.40758247  0.41415633  1
  O  O19  1  0.46463976  0.00000000  0.25000000  1
  O  O20  1  0.34181992  0.86334349  0.94532671  1
  O  O21  1  0.40724145  0.71004036  0.41524027  1
  O  O22  1  0.39551946  0.27677065  0.77296418  1
  O  O23  1  0.40724145  0.28995964  0.08475973  1
  O  O24  1  0.60448054  0.27677065  0.27296418  1
  O  O25  1  0.07044470  0.10207558  0.84132625  1
loop_
_geom_bond_atom_site_label_1
_geom_bond_atom_site_label_2
_geom_bond_distance
_geom_bond_site_symmetry_2
Cs0 O12 3.166492 1_555
Cs0 O10 3.166492 1_555
Cs0 O1 3.222890 1_655
Cs0 O8 3.222890 1_655
Cs0 O16 3.331005 1_555
Cs0 O6 3.331005 1_555
Cs0 O9 3.364588 1_556
Cs0 O18 3.364588 1_555
Cs0 O14 3.621522 1_655
Cs0 O25 3.621522 1_655
Cs0 O3 3.850145 1_555
Cs0 O15 3.850145 1_556
Cs1 O13 3.166492 1_555
Cs1 O17 3.166492 1_555
Cs1 O18 3.222890 1_455
Cs1 O9 3.222890 1_455
Cs1 O21 3.331005 1_555
Cs1 O23 3.331005 1_555
Cs1 O8 3.364588 1_555
Cs1 O1 3.364588 1_554
Cs1 O11 3.621522 1_455
Cs1 O7 3.621522 1_455
Cs1 O20 3.850145 1_554
Cs1 O2 3.850145 1_555
I0 O9 1.738123 1_555
I0 O16 2.079882 1_554
I0 O12 2.085404 1_554
I0 O5 2.102398 1_555
I0 O11 2.128508 1_555
I1 O18 1.738123 1_555
I1 O6 2.079882 1_555
I1 O10 2.085404 1_555
I1 O24 2.102398 1_555
I1 O7 2.128508 1_555
I2 O8 1.738123 1_555
I2 O21 2.079882 1_555
I2 O13 2.085404 1_555
I2 O4 2.102398 1_555
I2 O14 2.128508 1_555
I3 O1 1.738123 1_555
I3 O23 2.079882 1_556
I3 O17 2.085404 1_556
I3 O22 2.102398 1_555
I3 O25 2.128508 1_555
O0 P4 1.615095 1_555
O0 P0 1.615095 1_545
O2 P4 1.475690 1_555
O3 P1 1.475690 1_555
O4 P0 1.538579 1_555
O5 P1 1.538579 1_555
O6 P4 1.556411 1_555
O7 P2 1.519668 1_655
O10 P3 1.542251 1_555
O11 P2 1.519668 1_665
O12 P3 1.542251 1_565
O13 P2 1.542251 1_565
O14 P3 1.519668 1_465
O15 P5 1.475690 1_555
O16 P0 1.556411 1_555
O17 P2 1.542251 1_555
O19 P5 1.615095 1_555
O19 P1 1.615095 1_545
O20 P0 1.475690 1_555
O21 P1 1.556411 1_555
O22 P4 1.538579 1_555
O23 P5 1.556411 1_555
O24 P5 1.538579 1_555
O25 P3 1.519668 1_455
