# generated using pymatgen
data_Sr5PWN7
_symmetry_space_group_name_H-M   'P 1'
_cell_length_a   6.38822524
_cell_length_b   8.94234633
_cell_length_c   9.13155024
_cell_angle_alpha   114.24364636
_cell_angle_beta   97.70183404
_cell_angle_gamma   89.74326395
_symmetry_Int_Tables_number   1
_chemical_formula_structural   Sr5PWN7
_chemical_formula_sum   'Sr10 P2 W2 N14'
_cell_volume   470.61219023
_cell_formula_units_Z   2
loop_
 _symmetry_equiv_pos_site_id
 _symmetry_equiv_pos_as_xyz
  1  'x, y, z'
loop_
 _atom_site_type_symbol
 _atom_site_label
 _atom_site_symmetry_multiplicity
 _atom_site_fract_x
 _atom_site_fract_y
 _atom_site_fract_z
 _atom_site_occupancy
  Sr  Sr0  1  0.85632528  0.58341629  0.34050920  1
  Sr  Sr1  1  0.27674439  0.98409405  0.56714341  1
  Sr  Sr2  1  0.69829650  0.40597580  0.83844954  1
  Sr  Sr3  1  0.30170350  0.59402420  0.16155046  1
  Sr  Sr4  1  0.39835272  0.78423854  0.90590943  1
  Sr  Sr5  1  0.60164728  0.21576146  0.09409057  1
  Sr  Sr6  1  0.14367472  0.41658371  0.65949080  1
  Sr  Sr7  1  0.89323892  0.83510940  0.75116646  1
  Sr  Sr8  1  0.10676108  0.16489060  0.24883354  1
  Sr  Sr9  1  0.72325561  0.01590595  0.43285659  1
  P  P0  1  0.56981587  0.36498768  0.47531171  1
  P  P1  1  0.43018413  0.63501232  0.52468829  1
  W  W0  1  0.11826095  0.21646048  0.91369940  1
  W  W1  1  0.88173905  0.78353952  0.08630060  1
  N  N0  1  0.55474160  0.54768041  0.64611075  1
  N  N1  1  0.44525840  0.45231959  0.35388925  1
  N  N2  1  0.19595174  0.68466224  0.57205918  1
  N  N3  1  0.80404826  0.31533776  0.42794082  1
  N  N4  1  0.42781896  0.22075019  0.48632303  1
  N  N5  1  0.57218104  0.77924981  0.51367697  1
  N  N6  1  0.94429643  0.13094458  0.71011518  1
  N  N7  1  0.05570357  0.86905542  0.28988482  1
  N  N8  1  0.23412901  0.05007173  0.96623141  1
  N  N9  1  0.76587099  0.94992827  0.03376859  1
  N  N10  1  0.35143581  0.33407204  0.90220758  1
  N  N11  1  0.96734728  0.34936076  0.07949416  1
  N  N12  1  0.03265272  0.65063924  0.92050584  1
  N  N13  1  0.64856419  0.66592796  0.09779242  1
loop_
_geom_bond_atom_site_label_1
_geom_bond_atom_site_label_2
_geom_bond_distance
_geom_bond_site_symmetry_2
N0 P1 1.715072 1_555
N0 P0 1.748461 1_555
N0 Sr2 2.630038 1_555
N0 Sr4 2.756094 1_555
N0 Sr6 2.918265 1_555
N0 Sr7 3.109901 1_555
N1 P0 1.715072 1_555
N1 P1 1.748461 1_555
N1 Sr3 2.630038 1_555
N1 Sr5 2.756094 1_555
N1 Sr0 2.918265 1_555
N1 Sr8 3.109901 1_555
N2 P1 1.622669 1_555
N2 Sr0 2.685801 1_455
N2 Sr7 2.691078 1_455
N2 Sr1 2.748702 1_555
N2 Sr6 2.854153 1_555
N2 Sr4 2.912551 1_555
N3 P0 1.622669 1_555
N3 Sr6 2.685801 1_655
N3 Sr8 2.691078 1_655
N3 Sr9 2.748702 1_555
N3 Sr0 2.854153 1_555
N3 Sr5 2.912551 1_555
N4 P0 1.624203 1_555
N4 Sr9 2.576299 1_555
N4 Sr8 2.662044 1_555
N4 Sr6 2.707177 1_555
N4 Sr1 2.728826 1_545
N5 P1 1.624203 1_555
N5 Sr1 2.576299 1_555
N5 Sr7 2.662044 1_555
N5 Sr0 2.707177 1_555
N5 Sr9 2.728826 1_565
N6 W0 1.887384 1_655
N6 Sr9 2.525479 1_555
N6 Sr1 2.692487 1_645
N6 Sr2 2.825555 1_555
N6 Sr7 2.846099 1_545
N6 Sr6 3.084963 1_655
N7 W1 1.887384 1_455
N7 Sr1 2.525479 1_555
N7 Sr9 2.692487 1_465
N7 Sr3 2.825555 1_555
N7 Sr8 2.846099 1_565
N7 Sr0 3.084963 1_455
N8 W0 1.863591 1_555
N8 Sr4 2.472280 1_545
N8 Sr8 2.599051 1_556
N8 Sr5 2.635598 1_556
N8 Sr7 2.843447 1_445
N9 W1 1.863591 1_555
N9 Sr5 2.472280 1_565
N9 Sr7 2.599051 1_554
N9 Sr4 2.635598 1_554
N9 Sr8 2.843447 1_665
N10 W0 1.866156 1_555
N10 Sr2 2.515605 1_555
N10 Sr3 2.605202 1_556
N10 Sr5 2.738780 1_556
N10 Sr6 2.786406 1_555
N11 W0 1.880756 1_654
N11 Sr0 2.628229 1_555
N11 Sr5 2.672453 1_555
N11 Sr8 2.760075 1_655
N11 Sr2 2.819336 1_554
N11 Sr3 2.859554 1_655
N12 W1 1.880756 1_456
N12 Sr6 2.628229 1_555
N12 Sr4 2.672453 1_555
N12 Sr7 2.760075 1_455
N12 Sr3 2.819336 1_556
N12 Sr2 2.859554 1_455
N13 W1 1.866156 1_555
N13 Sr3 2.515605 1_555
N13 Sr2 2.605202 1_554
N13 Sr4 2.738780 1_554
N13 Sr0 2.786406 1_555
