# generated using pymatgen
data_Rb2Pd2PtS4
_symmetry_space_group_name_H-M   'P 1'
_cell_length_a   8.55314240
_cell_length_b   7.42450639
_cell_length_c   6.29623387
_cell_angle_alpha   76.63600775
_cell_angle_beta   57.62256941
_cell_angle_gamma   44.06539222
_symmetry_Int_Tables_number   1
_chemical_formula_structural   Rb2Pd2PtS4
_chemical_formula_sum   'Rb2 Pd2 Pt1 S4'
_cell_volume   226.66631552
_cell_formula_units_Z   1
loop_
 _symmetry_equiv_pos_site_id
 _symmetry_equiv_pos_as_xyz
  1  'x, y, z'
loop_
 _atom_site_type_symbol
 _atom_site_label
 _atom_site_symmetry_multiplicity
 _atom_site_fract_x
 _atom_site_fract_y
 _atom_site_fract_z
 _atom_site_occupancy
  Rb  Rb0  1  0.34284422  0.34284422  0.65715578  1
  Rb  Rb1  1  0.65715578  0.65715578  0.34284422  1
  Pd  Pd0  1  0.50000000  0.50000000  0.00000000  1
  Pd  Pd1  1  0.00000000  0.00000000  0.00000000  1
  Pt  Pt0  1  0.00000000  0.00000000  0.50000000  1
  S  S0  1  0.04992091  0.72390062  0.28932451  1
  S  S1  1  0.95007909  0.27609938  0.71067549  1
  S  S2  1  0.27609938  0.95007909  0.06314603  1
  S  S3  1  0.72390062  0.04992091  0.93685397  1
loop_
_geom_bond_atom_site_label_1
_geom_bond_atom_site_label_2
_geom_bond_distance
_geom_bond_site_symmetry_2
Rb0 S0 3.555822 1_555
Rb0 S3 3.555822 1_555
Rb0 S2 3.570340 1_546
Rb0 S1 3.570340 1_455
Rb0 S3 3.610580 1_465
Rb0 S0 3.610580 1_645
Rb0 S0 3.803007 1_556
Rb0 S3 3.803008 1_554
Rb1 S1 3.555822 1_555
Rb1 S2 3.555822 1_555
Rb1 S3 3.570340 1_564
Rb1 S0 3.570340 1_655
Rb1 S2 3.610580 1_645
Rb1 S1 3.610580 1_465
Rb1 S1 3.803007 1_554
Rb1 S2 3.803008 1_556
Pd0 S2 2.365189 1_555
Pd0 S3 2.365189 1_554
Pd0 S1 2.365190 1_554
Pd0 S0 2.365190 1_555
Pd0 Rb1 3.788629 1_555
Pd0 Rb0 3.788629 1_554
Pd0 Rb0 3.788630 1_555
Pd0 Rb1 3.788630 1_554
Pd1 S1 2.356225 1_454
Pd1 S0 2.356225 1_545
Pd1 S2 2.356225 1_545
Pd1 S3 2.356225 1_454
Pd1 Rb1 3.819980 1_455
Pd1 Rb0 3.819980 1_544
Pd1 Rb0 3.819981 1_455
Pd1 Rb1 3.819981 1_544
Pt0 S1 2.352969 1_455
Pt0 S0 2.352969 1_545
Pt0 S3 2.352970 1_455
Pt0 S2 2.352970 1_545
Pt0 Rb1 3.701091 1_455
Pt0 Rb0 3.701091 1_545
Pt0 Rb1 3.701092 1_545
Pt0 Rb0 3.701092 1_455
