# generated using pymatgen
data_YMgFeB6
_symmetry_space_group_name_H-M   'P 1'
_cell_length_a   3.41131420
_cell_length_b   8.83162363
_cell_length_c   11.19185816
_cell_angle_alpha   90.00000000
_cell_angle_beta   90.00000000
_cell_angle_gamma   90.00000000
_symmetry_Int_Tables_number   1
_chemical_formula_structural   YMgFeB6
_chemical_formula_sum   'Y4 Mg4 Fe4 B24'
_cell_volume   337.18207038
_cell_formula_units_Z   4
loop_
 _symmetry_equiv_pos_site_id
 _symmetry_equiv_pos_as_xyz
  1  'x, y, z'
loop_
 _atom_site_type_symbol
 _atom_site_label
 _atom_site_symmetry_multiplicity
 _atom_site_fract_x
 _atom_site_fract_y
 _atom_site_fract_z
 _atom_site_occupancy
  Y  Y0  1  0.00000000  0.82322834  0.08554211  1
  Y  Y1  1  0.00000000  0.17677166  0.91445789  1
  Y  Y2  1  0.00000000  0.32322834  0.41445789  1
  Y  Y3  1  0.00000000  0.67677166  0.58554211  1
  Mg  Mg0  1  0.00000000  0.44248254  0.13170099  1
  Mg  Mg1  1  0.00000000  0.55751746  0.86829901  1
  Mg  Mg2  1  0.00000000  0.94248254  0.36829901  1
  Mg  Mg3  1  0.00000000  0.05751746  0.63170099  1
  Fe  Fe0  1  0.00000000  0.14173216  0.18279663  1
  Fe  Fe1  1  0.00000000  0.85826784  0.81720337  1
  Fe  Fe2  1  0.00000000  0.64173216  0.31720337  1
  Fe  Fe3  1  0.00000000  0.35826784  0.68279663  1
  B  B0  1  0.50000000  0.05719699  0.06991915  1
  B  B1  1  0.50000000  0.94280301  0.93008085  1
  B  B2  1  0.50000000  0.55719699  0.43008085  1
  B  B3  1  0.50000000  0.44280301  0.56991915  1
  B  B4  1  0.50000000  0.25381707  0.08418099  1
  B  B5  1  0.50000000  0.74618293  0.91581901  1
  B  B6  1  0.50000000  0.75381707  0.41581901  1
  B  B7  1  0.50000000  0.24618293  0.58418099  1
  B  B8  1  0.50000000  0.29223239  0.23601040  1
  B  B9  1  0.50000000  0.70776761  0.76398960  1
  B  B10  1  0.50000000  0.79223239  0.26398960  1
  B  B11  1  0.50000000  0.20776761  0.73601040  1
  B  B12  1  0.50000000  0.12766505  0.31631931  1
  B  B13  1  0.50000000  0.87233495  0.68368069  1
  B  B14  1  0.50000000  0.62766505  0.18368069  1
  B  B15  1  0.50000000  0.37233495  0.81631931  1
  B  B16  1  0.50000000  0.48351394  0.28666698  1
  B  B17  1  0.50000000  0.51648606  0.71333302  1
  B  B18  1  0.50000000  0.98351394  0.21333302  1
  B  B19  1  0.50000000  0.01648606  0.78666698  1
  B  B20  1  0.50000000  0.09235181  0.47512866  1
  B  B21  1  0.50000000  0.90764819  0.52487134  1
  B  B22  1  0.50000000  0.59235181  0.02487134  1
  B  B23  1  0.50000000  0.40764819  0.97512866  1
loop_
_geom_bond_atom_site_label_1
_geom_bond_atom_site_label_2
_geom_bond_distance
_geom_bond_site_symmetry_2
Fe0 Mg0 2.716976 1_555
Fe0 Mg2 2.721543 1_545
Fe1 Mg1 2.716976 1_555
Fe1 Mg3 2.721543 1_565
Fe2 Mg2 2.716976 1_555
Fe2 Mg0 2.721543 1_555
Fe3 Mg3 2.716976 1_555
Fe3 Mg1 2.721543 1_555
B0 B18 1.731966 1_545
B0 B4 1.743795 1_555
B0 B1 1.862809 1_544
B0 Fe0 2.250022 1_555
B0 Fe0 2.250022 1_655
B0 Y1 2.655511 1_654
B0 Y1 2.655511 1_554
B0 Y0 2.685057 1_645
B0 Y0 2.685057 1_545
B1 B19 1.731966 1_565
B1 B5 1.743795 1_555
B1 Fe1 2.250022 1_655
B1 Fe1 2.250022 1_555
B1 Y0 2.655511 1_656
B1 Y0 2.655511 1_556
B1 Y1 2.685057 1_565
B1 Y1 2.685057 1_665
B2 B6 1.743795 1_555
B2 B3 1.862809 1_555
B2 Fe2 2.250022 1_555
B2 Fe2 2.250022 1_655
B2 Y3 2.655511 1_555
B2 Y3 2.655511 1_655
B2 Y2 2.685057 1_655
B2 Y2 2.685057 1_555
B3 B7 1.743795 1_555
B3 Fe3 2.250022 1_555
B3 Fe3 2.250022 1_655
B3 Y2 2.655511 1_655
B3 Y2 2.655511 1_555
B3 Y3 2.685057 1_555
B3 Y3 2.685057 1_655
B4 B8 1.732791 1_555
B4 Fe0 2.259931 1_655
B4 Fe0 2.259931 1_555
B4 Mg0 2.443034 1_655
B4 Mg0 2.443034 1_555
B4 Y1 2.642049 1_654
B4 Y1 2.642049 1_554
B5 B9 1.732791 1_555
B5 Fe1 2.259931 1_555
B5 Fe1 2.259931 1_655
B5 Mg1 2.443034 1_655
B5 Mg1 2.443034 1_555
B5 Y0 2.642049 1_556
B5 Y0 2.642049 1_656
B6 Fe2 2.259931 1_555
B6 Fe2 2.259931 1_655
B6 Mg2 2.443034 1_555
B6 Mg2 2.443034 1_655
B6 Y3 2.642049 1_555
B6 Y3 2.642049 1_655
B7 Fe3 2.259931 1_555
B7 Fe3 2.259931 1_655
B7 Mg3 2.443034 1_555
B7 Mg3 2.443034 1_655
B7 Y2 2.642049 1_655
B7 Y2 2.642049 1_555
B8 Fe0 2.242906 1_555
B8 Fe0 2.242906 1_655
B8 Mg0 2.456202 1_655
B8 Mg0 2.456202 1_555
B8 Y2 2.640615 1_655
B8 Y2 2.640615 1_555
B9 Fe1 2.242906 1_555
B9 Fe1 2.242906 1_655
B9 Mg1 2.456202 1_655
B9 Mg1 2.456202 1_555
B9 Y3 2.640615 1_655
B9 Y3 2.640615 1_555
B10 B14 1.708863 1_555
B10 B6 1.732791 1_555
B10 B18 1.781922 1_555
B10 Fe2 2.242906 1_555
B10 Fe2 2.242906 1_655
B10 Mg2 2.456202 1_655
B10 Mg2 2.456202 1_555
B10 Y0 2.640615 1_655
B10 Y0 2.640615 1_555
B11 B15 1.708863 1_555
B11 B7 1.732791 1_555
B11 B19 1.781922 1_555
B11 Fe3 2.242906 1_555
B11 Fe3 2.242906 1_655
B11 Mg3 2.456202 1_555
B11 Mg3 2.456202 1_655
B11 Y1 2.640615 1_555
B11 Y1 2.640615 1_655
B12 B8 1.708863 1_555
B12 B18 1.717341 1_545
B12 B20 1.804526 1_555
B12 Fe0 2.271086 1_555
B12 Fe0 2.271086 1_655
B12 Mg2 2.433605 1_645
B12 Mg2 2.433605 1_545
B12 Y2 2.664332 1_655
B12 Y2 2.664332 1_555
B13 B9 1.708863 1_555
B13 B19 1.717341 1_565
B13 B21 1.804526 1_555
B13 Fe1 2.271086 1_555
B13 Fe1 2.271086 1_655
B13 Mg3 2.433605 1_665
B13 Mg3 2.433605 1_565
B13 Y3 2.664332 1_555
B13 Y3 2.664332 1_655
B14 B16 1.717341 1_555
B14 B22 1.804526 1_555
B14 Fe2 2.271086 1_655
B14 Fe2 2.271086 1_555
B14 Mg0 2.433605 1_655
B14 Mg0 2.433605 1_555
B14 Y0 2.664332 1_555
B14 Y0 2.664332 1_655
B15 B17 1.717341 1_555
B15 B23 1.804526 1_555
B15 Fe3 2.271086 1_655
B15 Fe3 2.271086 1_555
B15 Mg1 2.433605 1_655
B15 Mg1 2.433605 1_555
B15 Y1 2.664332 1_555
B15 Y1 2.664332 1_655
B16 B2 1.731966 1_555
B16 B8 1.781922 1_555
B16 Fe2 2.231273 1_555
B16 Fe2 2.231273 1_655
B16 Mg0 2.459385 1_655
B16 Mg0 2.459385 1_555
B16 Y2 2.637928 1_655
B16 Y2 2.637928 1_555
B17 B3 1.731966 1_555
B17 B9 1.781922 1_555
B17 Fe3 2.231273 1_655
B17 Fe3 2.231273 1_555
B17 Mg1 2.459385 1_555
B17 Mg1 2.459385 1_655
B17 Y3 2.637928 1_655
B17 Y3 2.637928 1_555
B18 Fe0 2.231273 1_665
B18 Fe0 2.231273 1_565
B18 Mg2 2.459385 1_555
B18 Mg2 2.459385 1_655
B18 Y0 2.637928 1_655
B18 Y0 2.637928 1_555
B19 Fe1 2.231273 1_645
B19 Fe1 2.231273 1_545
B19 Mg3 2.459385 1_555
B19 Mg3 2.459385 1_655
B19 Y1 2.637928 1_555
B19 Y1 2.637928 1_655
B20 B21 1.723615 1_545
B20 B7 1.826295 1_555
B20 Mg3 2.464668 1_655
B20 Mg3 2.464668 1_555
B20 Mg2 2.467928 1_545
B20 Mg2 2.467928 1_645
B20 Y2 2.743704 1_555
B20 Y2 2.743704 1_655
B21 B6 1.826295 1_555
B21 Mg2 2.464668 1_555
B21 Mg2 2.464668 1_655
B21 Mg3 2.467928 1_565
B21 Mg3 2.467928 1_665
B21 Y3 2.743704 1_555
B21 Y3 2.743704 1_655
B22 B23 1.723615 1_554
B22 B5 1.826295 1_554
B22 Mg1 2.464668 1_654
B22 Mg1 2.464668 1_554
B22 Mg0 2.467928 1_655
B22 Mg0 2.467928 1_555
B22 Y0 2.743704 1_555
B22 Y0 2.743704 1_655
B23 B4 1.826295 1_556
B23 Mg0 2.464668 1_656
B23 Mg0 2.464668 1_556
B23 Mg1 2.467928 1_555
B23 Mg1 2.467928 1_655
B23 Y1 2.743704 1_555
B23 Y1 2.743704 1_655
