# generated using pymatgen
data_Li3Mg(Nb2N3)4
_symmetry_space_group_name_H-M   'P 1'
_cell_length_a   5.26006866
_cell_length_b   5.26006841
_cell_length_c   10.36899307
_cell_angle_alpha   90.00000000
_cell_angle_beta   90.00000000
_cell_angle_gamma   119.99998900
_symmetry_Int_Tables_number   1
_chemical_formula_structural   Li3Mg(Nb2N3)4
_chemical_formula_sum   'Li3 Mg1 Nb8 N12'
_cell_volume   248.45633179
_cell_formula_units_Z   1
loop_
 _symmetry_equiv_pos_site_id
 _symmetry_equiv_pos_as_xyz
  1  'x, y, z'
loop_
 _atom_site_type_symbol
 _atom_site_label
 _atom_site_symmetry_multiplicity
 _atom_site_fract_x
 _atom_site_fract_y
 _atom_site_fract_z
 _atom_site_occupancy
  Li  Li0  1  0.33333300  0.66666700  0.00000000  1
  Li  Li1  1  0.33333300  0.66666700  0.50000000  1
  Li  Li2  1  0.66666700  0.33333300  0.50000000  1
  Mg  Mg0  1  0.66666700  0.33333300  0.00000000  1
  Nb  Nb0  1  0.00207160  0.35097860  0.25187288  1
  Nb  Nb1  1  0.64902140  0.99792840  0.74812712  1
  Nb  Nb2  1  0.34890699  0.35097860  0.74812712  1
  Nb  Nb3  1  0.00000000  0.00000000  0.50000000  1
  Nb  Nb4  1  0.00000000  0.00000000  0.00000000  1
  Nb  Nb5  1  0.64902140  0.65109301  0.25187288  1
  Nb  Nb6  1  0.34890699  0.99792840  0.25187288  1
  Nb  Nb7  1  0.00207160  0.65109301  0.74812712  1
  N  N0  1  0.67778461  0.67706297  0.62377186  1
  N  N1  1  0.67676386  0.67341398  0.87731264  1
  N  N2  1  0.32658602  0.32323614  0.12268736  1
  N  N3  1  0.32293703  0.32221539  0.37622814  1
  N  N4  1  0.32658602  0.00334987  0.87731264  1
  N  N5  1  0.32293703  0.00072163  0.62377186  1
  N  N6  1  0.99927837  0.67706297  0.37622814  1
  N  N7  1  0.99665013  0.67341398  0.12268736  1
  N  N8  1  0.67676386  0.00334987  0.12268736  1
  N  N9  1  0.67778461  0.00072163  0.37622814  1
  N  N10  1  0.99665013  0.32323614  0.87731264  1
  N  N11  1  0.99927837  0.32221539  0.62377186  1
loop_
_geom_bond_atom_site_label_1
_geom_bond_atom_site_label_2
_geom_bond_distance
_geom_bond_site_symmetry_2
Li0 N4 2.195180 1_564
Li0 N7 2.195180 1_455
Li0 N10 2.195182 1_454
Li0 N8 2.195182 1_565
Li0 N2 2.195184 1_555
Li0 N1 2.195184 1_554
Li1 N5 2.198578 1_565
Li1 N6 2.198578 1_455
Li1 N11 2.198580 1_455
Li1 N9 2.198580 1_565
Li1 N3 2.198582 1_555
Li1 N0 2.198582 1_555
Li2 N9 2.194032 1_555
Li2 N11 2.194032 1_555
Li2 N6 2.194035 1_555
Li2 N5 2.194035 1_555
Li2 N0 2.194036 1_555
Li2 N3 2.194036 1_555
Mg0 N8 2.173966 1_555
Mg0 N10 2.173966 1_554
Mg0 N7 2.173969 1_555
Mg0 N4 2.173969 1_554
Mg0 N1 2.173970 1_554
Mg0 N2 2.173971 1_555
N0 Nb3 2.127472 1_665
N0 Nb2 2.151760 1_555
N0 Nb1 2.188488 1_555
N0 Nb7 2.196357 1_655
N1 Nb4 2.130599 1_666
N1 Nb2 2.172563 1_555
N1 Nb7 2.221940 1_655
N1 Nb1 2.231244 1_555
N2 Nb4 2.130599 1_555
N2 Nb5 2.172563 1_555
N2 Nb6 2.221940 1_545
N2 Nb0 2.231244 1_555
N3 Nb3 2.127472 1_555
N3 Nb5 2.151760 1_555
N3 Nb0 2.188488 1_555
N3 Nb6 2.196357 1_545
N4 Nb4 2.130599 1_556
N4 Nb1 2.172563 1_545
N4 Nb2 2.221940 1_555
N4 Nb7 2.231245 1_545
N5 Nb3 2.127472 1_555
N5 Nb1 2.151760 1_545
N5 Nb7 2.188488 1_545
N5 Nb2 2.196357 1_555
N6 Nb3 2.127472 1_665
N6 Nb0 2.151760 1_655
N6 Nb6 2.188488 1_655
N6 Nb5 2.196357 1_555
N7 Nb4 2.130599 1_665
N7 Nb0 2.172563 1_655
N7 Nb5 2.221940 1_555
N7 Nb6 2.231245 1_655
N8 Nb4 2.130599 1_655
N8 Nb6 2.172563 1_545
N8 Nb0 2.221940 1_655
N8 Nb5 2.231244 1_545
N9 Nb3 2.127472 1_655
N9 Nb6 2.151760 1_545
N9 Nb5 2.188488 1_545
N9 Nb0 2.196358 1_655
N10 Nb4 2.130599 1_656
N10 Nb7 2.172563 1_655
N10 Nb1 2.221940 1_545
N10 Nb2 2.231245 1_655
N11 Nb3 2.127472 1_655
N11 Nb7 2.151760 1_655
N11 Nb2 2.188488 1_655
N11 Nb1 2.196358 1_545
