# generated using pymatgen
data_Sr2VS4I
_symmetry_space_group_name_H-M   'P 1'
_cell_length_a   7.66626722
_cell_length_b   9.27288800
_cell_length_c   13.37464143
_cell_angle_alpha   90.00000000
_cell_angle_beta   90.00000000
_cell_angle_gamma   90.00000000
_symmetry_Int_Tables_number   1
_chemical_formula_structural   Sr2VS4I
_chemical_formula_sum   'Sr8 V4 S16 I4'
_cell_volume   950.78235898
_cell_formula_units_Z   4
loop_
 _symmetry_equiv_pos_site_id
 _symmetry_equiv_pos_as_xyz
  1  'x, y, z'
loop_
 _atom_site_type_symbol
 _atom_site_label
 _atom_site_symmetry_multiplicity
 _atom_site_fract_x
 _atom_site_fract_y
 _atom_site_fract_z
 _atom_site_occupancy
  Sr  Sr0  1  0.63030693  0.25000000  0.00000000  1
  Sr  Sr1  1  0.36969307  0.75000000  0.00000000  1
  Sr  Sr2  1  0.36969307  0.75000000  0.50000000  1
  Sr  Sr3  1  0.63030693  0.25000000  0.50000000  1
  Sr  Sr4  1  0.16806658  0.05865180  0.25000000  1
  Sr  Sr5  1  0.83193342  0.94134820  0.75000000  1
  Sr  Sr6  1  0.83193342  0.55865180  0.25000000  1
  Sr  Sr7  1  0.16806658  0.44134820  0.75000000  1
  V  V0  1  0.13247284  0.25000000  0.00000000  1
  V  V1  1  0.86752716  0.75000000  0.00000000  1
  V  V2  1  0.86752716  0.75000000  0.50000000  1
  V  V3  1  0.13247284  0.25000000  0.50000000  1
  S  S0  1  0.03231521  0.78264268  0.12716615  1
  S  S1  1  0.96768479  0.21735732  0.87283385  1
  S  S2  1  0.96768479  0.21735732  0.62716615  1
  S  S3  1  0.96768479  0.28264268  0.37283385  1
  S  S4  1  0.03231521  0.78264268  0.37283385  1
  S  S5  1  0.03231521  0.71735732  0.62716615  1
  S  S6  1  0.03231521  0.71735732  0.87283385  1
  S  S7  1  0.96768479  0.28264268  0.12716615  1
  S  S8  1  0.29864119  0.06935070  0.03107373  1
  S  S9  1  0.70135881  0.93064930  0.96892627  1
  S  S10  1  0.70135881  0.93064930  0.53107373  1
  S  S11  1  0.70135881  0.56935070  0.46892627  1
  S  S12  1  0.29864119  0.06935070  0.46892627  1
  S  S13  1  0.29864119  0.43064930  0.53107373  1
  S  S14  1  0.29864119  0.43064930  0.96892627  1
  S  S15  1  0.70135881  0.56935070  0.03107373  1
  I  I0  1  0.50854732  0.30703172  0.25000000  1
  I  I1  1  0.49145268  0.69296828  0.75000000  1
  I  I2  1  0.49145268  0.80703172  0.25000000  1
  I  I3  1  0.50854732  0.19296828  0.75000000  1
loop_
_geom_bond_atom_site_label_1
_geom_bond_atom_site_label_2
_geom_bond_distance
_geom_bond_site_symmetry_2
S0 V1 2.140163 1_455
S0 Sr6 3.061526 1_455
S0 Sr1 3.110299 1_555
S0 Sr4 3.214435 1_565
S1 V0 2.140163 1_656
S1 Sr7 3.061526 1_655
S1 Sr0 3.110299 1_556
S1 Sr5 3.214435 1_545
S2 V3 2.140163 1_655
S2 Sr7 3.061526 1_655
S2 Sr3 3.110299 1_555
S2 Sr5 3.214435 1_545
S3 V3 2.140163 1_655
S3 Sr4 3.061526 1_655
S3 Sr3 3.110299 1_555
S3 Sr6 3.214435 1_555
S4 V2 2.140163 1_455
S4 Sr6 3.061526 1_455
S4 Sr2 3.110299 1_555
S4 Sr4 3.214435 1_565
S5 V2 2.140163 1_455
S5 Sr5 3.061526 1_455
S5 Sr2 3.110299 1_555
S5 Sr7 3.214435 1_555
S6 V1 2.140163 1_456
S6 Sr5 3.061526 1_455
S6 Sr1 3.110299 1_556
S6 Sr7 3.214435 1_555
S7 V0 2.140163 1_655
S7 Sr4 3.061526 1_655
S7 Sr0 3.110299 1_555
S7 Sr6 3.214435 1_555
S8 V0 2.145138 1_555
S8 Sr1 3.039530 1_545
S8 Sr0 3.073081 1_555
S8 Sr4 3.096033 1_555
S9 V1 2.145138 1_556
S9 Sr0 3.039530 1_566
S9 Sr1 3.073081 1_556
S9 Sr5 3.096033 1_555
S10 V2 2.145138 1_555
S10 Sr3 3.039530 1_565
S10 Sr2 3.073081 1_555
S10 Sr5 3.096033 1_555
S11 V2 2.145138 1_555
S11 Sr3 3.039530 1_555
S11 Sr2 3.073081 1_555
S11 Sr6 3.096033 1_555
S12 V3 2.145138 1_555
S12 Sr2 3.039530 1_545
S12 Sr3 3.073081 1_555
S12 Sr4 3.096033 1_555
S13 V3 2.145138 1_555
S13 Sr2 3.039530 1_555
S13 Sr3 3.073081 1_555
S13 Sr7 3.096033 1_555
S14 V0 2.145138 1_556
S14 Sr1 3.039530 1_556
S14 Sr0 3.073081 1_556
S14 Sr7 3.096033 1_555
S15 V1 2.145138 1_555
S15 Sr0 3.039530 1_555
S15 Sr1 3.073081 1_555
S15 Sr6 3.096033 1_555
I0 Sr6 3.404451 1_555
I0 Sr4 3.481085 1_555
I0 Sr3 3.511561 1_555
I0 Sr0 3.511561 1_555
I1 Sr7 3.404451 1_555
I1 Sr5 3.481085 1_555
I1 Sr1 3.511561 1_556
I1 Sr2 3.511561 1_555
I2 Sr4 3.404451 1_565
I2 Sr6 3.481085 1_555
I2 Sr1 3.511561 1_555
I2 Sr2 3.511561 1_555
I3 Sr5 3.404451 1_545
I3 Sr7 3.481085 1_555
I3 Sr0 3.511561 1_556
I3 Sr3 3.511561 1_555
