# generated using pymatgen
data_Cs2Te2Pd
_symmetry_space_group_name_H-M   'P 1'
_cell_length_a   7.35207375
_cell_length_b   7.35207351
_cell_length_c   7.35207475
_cell_angle_alpha   147.65717285
_cell_angle_beta   109.83596429
_cell_angle_gamma   79.38605519
_symmetry_Int_Tables_number   1
_chemical_formula_structural   Cs2Te2Pd
_chemical_formula_sum   'Cs2 Te2 Pd1'
_cell_volume   195.79745947
_cell_formula_units_Z   1
loop_
 _symmetry_equiv_pos_site_id
 _symmetry_equiv_pos_as_xyz
  1  'x, y, z'
loop_
 _atom_site_type_symbol
 _atom_site_label
 _atom_site_symmetry_multiplicity
 _atom_site_fract_x
 _atom_site_fract_y
 _atom_site_fract_z
 _atom_site_occupancy
  Cs  Cs0  1  0.69570729  0.19570729  0.50000000  1
  Cs  Cs1  1  0.30429271  0.80429271  0.50000000  1
  Te  Te0  1  0.20436701  0.50000000  0.70436701  1
  Te  Te1  1  0.79563299  0.50000000  0.29563299  1
  Pd  Pd0  1  0.00000000  0.00000000  0.00000000  1
loop_
_geom_bond_atom_site_label_1
_geom_bond_atom_site_label_2
_geom_bond_distance
_geom_bond_site_symmetry_2
Cs0 Te0 3.851848 1_655
Cs0 Te1 3.851849 1_555
Cs0 Te1 3.916420 1_545
Cs0 Te0 3.916420 1_544
Cs0 Te0 3.916420 1_555
Cs0 Te1 3.916421 1_556
Cs0 Pd0 4.005813 1_666
Cs0 Pd0 4.005814 1_655
Cs1 Te1 3.851848 1_455
Cs1 Te0 3.851849 1_555
Cs1 Te0 3.916420 1_565
Cs1 Te1 3.916420 1_566
Cs1 Te1 3.916420 1_555
Cs1 Te0 3.916421 1_554
Cs1 Pd0 4.005813 1_555
Cs1 Pd0 4.005814 1_566
Pd0 Te1 2.678779 1_455
Pd0 Te0 2.678779 1_544
Pd0 Te1 2.678779 1_444
Pd0 Te0 2.678779 1_555
