# generated using pymatgen
data_HfZr5(InPd)6
_symmetry_space_group_name_H-M   'P 1'
_cell_length_a   7.50247509
_cell_length_b   7.51281335
_cell_length_c   7.15465052
_cell_angle_alpha   90.00000000
_cell_angle_beta   90.00000000
_cell_angle_gamma   120.10180528
_symmetry_Int_Tables_number   1
_chemical_formula_structural   HfZr5(InPd)6
_chemical_formula_sum   'Hf1 Zr5 In6 Pd6'
_cell_volume   348.88297676
_cell_formula_units_Z   1
loop_
 _symmetry_equiv_pos_site_id
 _symmetry_equiv_pos_as_xyz
  1  'x, y, z'
loop_
 _atom_site_type_symbol
 _atom_site_label
 _atom_site_symmetry_multiplicity
 _atom_site_fract_x
 _atom_site_fract_y
 _atom_site_fract_z
 _atom_site_occupancy
  Hf  Hf0  1  0.98266251  0.39125007  0.25000000  1
  Zr  Zr0  1  0.60825898  0.59197973  0.25000000  1
  Zr  Zr1  1  0.01904365  0.41069242  0.75000000  1
  Zr  Zr2  1  0.40861084  0.01704839  0.25000000  1
  Zr  Zr3  1  0.39156940  0.98251444  0.75000000  1
  Zr  Zr4  1  0.59205155  0.60779107  0.75000000  1
  In  In0  1  0.27085922  0.26997738  0.50067045  1
  In  In1  1  0.72879762  0.99832046  0.50053137  1
  In  In2  1  0.00029022  0.73167161  0.49835196  1
  In  In3  1  0.72879762  0.99832046  0.99946863  1
  In  In4  1  0.27085922  0.26997738  0.99932955  1
  In  In5  1  0.00029022  0.73167161  0.00164804  1
  Pd  Pd0  1  0.32969454  0.66369280  0.46275194  1
  Pd  Pd1  1  0.00004113  0.00014471  0.75000000  1
  Pd  Pd2  1  0.00007056  0.00432818  0.25000000  1
  Pd  Pd3  1  0.32969454  0.66369280  0.03724806  1
  Pd  Pd4  1  0.66920510  0.33346374  0.53051742  1
  Pd  Pd5  1  0.66920510  0.33346374  0.96948258  1
loop_
_geom_bond_atom_site_label_1
_geom_bond_atom_site_label_2
_geom_bond_distance
_geom_bond_site_symmetry_2
Hf0 Pd0 2.817745 1_655
Hf0 Pd3 2.817745 1_655
Hf0 Pd4 2.953466 1_555
Hf0 Pd5 2.953466 1_554
Hf0 Pd2 2.974521 1_655
Hf0 In2 3.062093 1_655
Hf0 In5 3.062093 1_655
Hf0 In1 3.148825 1_545
Hf0 In3 3.148825 1_544
Hf0 In0 3.270732 1_655
Hf0 In4 3.270732 1_654
In0 Pd2 2.694418 1_555
In0 Pd1 2.699706 1_555
In0 Pd0 2.776330 1_555
In0 Pd4 2.788348 1_555
In0 Zr4 3.048860 1_555
In0 Zr0 3.055144 1_555
In0 Zr2 3.140896 1_555
In0 Zr1 3.142036 1_555
In0 Zr3 3.260107 1_545
In1 Pd2 2.695355 1_665
In1 Pd1 2.701695 1_665
In1 Pd4 2.777546 1_565
In1 Pd0 2.794301 1_555
In1 Zr3 3.049525 1_555
In1 Zr2 3.056515 1_565
In1 Zr4 3.134829 1_555
In1 Zr0 3.252828 1_555
In1 Zr1 3.280026 1_665
In2 Pd1 2.704378 1_565
In2 Pd2 2.712319 1_565
In2 Pd0 2.774760 1_555
In2 Pd4 2.778314 1_455
In2 Zr1 3.068694 1_555
In2 Zr0 3.132592 1_455
In2 Zr3 3.140294 1_555
In2 Zr2 3.248128 1_565
In2 Zr4 3.260257 1_455
In3 Pd2 2.695355 1_666
In3 Pd1 2.701695 1_665
In3 Pd5 2.777546 1_565
In3 Pd3 2.794301 1_556
In3 Zr3 3.049525 1_555
In3 Zr2 3.056515 1_566
In3 Zr4 3.134829 1_555
In3 Zr0 3.252828 1_556
In3 Zr1 3.280026 1_665
In4 Pd2 2.694418 1_556
In4 Pd1 2.699706 1_555
In4 Pd3 2.776330 1_556
In4 Pd5 2.788348 1_555
In4 Zr4 3.048860 1_555
In4 Zr0 3.055144 1_556
In4 Zr2 3.140896 1_556
In4 Zr1 3.142036 1_555
In4 Zr3 3.260107 1_545
In5 Pd1 2.704378 1_564
In5 Pd2 2.712319 1_565
In5 Pd3 2.774760 1_555
In5 Pd5 2.778314 1_454
In5 Zr1 3.068694 1_554
In5 Zr0 3.132592 1_455
In5 Zr3 3.140294 1_554
In5 Zr2 3.248128 1_565
In5 Zr4 3.260257 1_454
Pd0 Zr0 2.846837 1_555
Pd0 Zr2 2.852778 1_565
Pd0 Zr1 2.970664 1_555
Pd0 Zr3 3.010159 1_555
Pd0 Zr4 3.017213 1_555
Pd0 Pd3 3.044332 1_555
Pd1 Zr4 3.001286 1_445
Pd1 Zr3 3.006046 1_545
Pd1 Zr1 3.015390 1_555
Pd2 Zr0 3.017201 1_445
Pd2 Zr2 3.018267 1_555
Pd3 Zr0 2.846837 1_555
Pd3 Zr2 2.852778 1_565
Pd3 Zr1 2.970664 1_554
Pd3 Zr3 3.010159 1_554
Pd3 Zr4 3.017213 1_554
Pd4 Zr1 2.857243 1_655
Pd4 Zr4 2.871448 1_555
Pd4 Zr3 2.871848 1_545
Pd4 Zr2 2.973133 1_555
Pd4 Zr0 2.983287 1_555
Pd4 Pd5 3.140642 1_555
Pd5 Zr1 2.857243 1_655
Pd5 Zr4 2.871448 1_555
Pd5 Zr3 2.871848 1_545
Pd5 Zr2 2.973133 1_556
Pd5 Zr0 2.983287 1_556
