# generated using pymatgen
data_IrPd(SeO3)4
_symmetry_space_group_name_H-M   'P 1'
_cell_length_a   8.02253085
_cell_length_b   7.90761559
_cell_length_c   7.86050293
_cell_angle_alpha   91.29353264
_cell_angle_beta   90.00000000
_cell_angle_gamma   90.00000000
_symmetry_Int_Tables_number   1
_chemical_formula_structural   IrPd(SeO3)4
_chemical_formula_sum   'Ir2 Pd2 Se8 O24'
_cell_volume   498.53607544
_cell_formula_units_Z   2
loop_
 _symmetry_equiv_pos_site_id
 _symmetry_equiv_pos_as_xyz
  1  'x, y, z'
loop_
 _atom_site_type_symbol
 _atom_site_label
 _atom_site_symmetry_multiplicity
 _atom_site_fract_x
 _atom_site_fract_y
 _atom_site_fract_z
 _atom_site_occupancy
  Ir  Ir0  1  0.00000000  0.50000000  0.00000000  1
  Ir  Ir1  1  0.50000000  0.50000000  0.50000000  1
  Pd  Pd0  1  0.00000000  0.00000000  0.50000000  1
  Pd  Pd1  1  0.50000000  0.00000000  0.00000000  1
  Se  Se0  1  0.34090266  0.67353005  0.17469895  1
  Se  Se1  1  0.84090266  0.32646995  0.32530105  1
  Se  Se2  1  0.68019801  0.83610244  0.66394485  1
  Se  Se3  1  0.18019801  0.16389756  0.83605515  1
  Se  Se4  1  0.65909734  0.32646995  0.82530105  1
  Se  Se5  1  0.15909734  0.67353005  0.67469895  1
  Se  Se6  1  0.31980199  0.16389756  0.33605515  1
  Se  Se7  1  0.81980199  0.83610244  0.16394485  1
  O  O0  1  0.23779929  0.56700837  0.00998206  1
  O  O1  1  0.73779929  0.43299163  0.49001794  1
  O  O2  1  0.75433885  0.99531616  0.53612160  1
  O  O3  1  0.25433885  0.00468384  0.96387840  1
  O  O4  1  0.51468874  0.94761901  0.74957978  1
  O  O5  1  0.45536564  0.50430138  0.24528500  1
  O  O6  1  0.95536564  0.49569862  0.25471500  1
  O  O7  1  0.01468874  0.05238099  0.75042022  1
  O  O8  1  0.99763394  0.24644832  0.45161188  1
  O  O9  1  0.56875911  0.73910865  0.49702947  1
  O  O10  1  0.49763394  0.75355168  0.04838812  1
  O  O11  1  0.06875911  0.26089135  0.00297053  1
  O  O12  1  0.76220071  0.43299163  0.99001794  1
  O  O13  1  0.26220071  0.56700837  0.50998206  1
  O  O14  1  0.24566115  0.00468384  0.46387840  1
  O  O15  1  0.74566115  0.99531616  0.03612160  1
  O  O16  1  0.48531126  0.05238099  0.25042022  1
  O  O17  1  0.54463436  0.49569862  0.75471500  1
  O  O18  1  0.04463436  0.50430138  0.74528500  1
  O  O19  1  0.98531126  0.94761901  0.24957978  1
  O  O20  1  0.00236606  0.75355168  0.54838812  1
  O  O21  1  0.43124089  0.26089135  0.50297053  1
  O  O22  1  0.50236606  0.24644832  0.95161188  1
  O  O23  1  0.93124089  0.73910865  0.99702947  1
loop_
_geom_bond_atom_site_label_1
_geom_bond_atom_site_label_2
_geom_bond_distance
_geom_bond_site_symmetry_2
Ir0 O23 1.970247 1_454
Ir0 O11 1.970247 1_555
Ir0 O0 1.981052 1_555
Ir0 O12 1.981052 1_454
Ir0 O6 2.034996 1_455
Ir0 O18 2.034996 1_554
Ir1 O9 1.970247 1_555
Ir1 O21 1.970247 1_555
Ir1 O1 1.981052 1_555
Ir1 O13 1.981052 1_555
Ir1 O17 2.034996 1_555
Ir1 O5 2.034996 1_555
O0 Se0 1.738062 1_555
O1 Se1 1.738062 1_555
O2 Se2 1.733641 1_555
O2 Pd0 1.991636 1_665
O3 Se3 1.733641 1_555
O3 Pd1 1.991636 1_556
O4 Se2 1.722497 1_555
O4 Pd1 2.005830 1_566
O5 Se0 1.724929 1_555
O6 Se1 1.724929 1_555
O7 Se3 1.722497 1_555
O7 Pd0 2.005830 1_555
O8 Se1 1.730771 1_555
O8 Pd0 1.994089 1_655
O9 Se2 1.750303 1_555
O10 Se0 1.730771 1_555
O10 Pd1 1.994089 1_565
O11 Se3 1.750303 1_554
O12 Se4 1.738062 1_555
O13 Se5 1.738062 1_555
O14 Se6 1.733641 1_555
O14 Pd0 1.991636 1_555
O15 Se7 1.733641 1_555
O15 Pd1 1.991636 1_565
O16 Se6 1.722497 1_555
O16 Pd1 2.005830 1_555
O17 Se4 1.724929 1_555
O18 Se5 1.724929 1_555
O19 Se7 1.722497 1_555
O19 Pd0 2.005830 1_665
O20 Se5 1.730771 1_555
O20 Pd0 1.994089 1_565
O21 Se6 1.750303 1_555
O22 Se4 1.730771 1_555
O22 Pd1 1.994089 1_556
O23 Se7 1.750303 1_556
