# generated using pymatgen
data_Ba4HfSe6
_symmetry_space_group_name_H-M   'P 1'
_cell_length_a   8.93233208
_cell_length_b   8.93233251
_cell_length_c   8.93233348
_cell_angle_alpha   89.43101686
_cell_angle_beta   89.43101304
_cell_angle_gamma   89.43102161
_symmetry_Int_Tables_number   1
_chemical_formula_structural   Ba4HfSe6
_chemical_formula_sum   'Ba8 Hf2 Se12'
_cell_volume   712.57543260
_cell_formula_units_Z   2
loop_
 _symmetry_equiv_pos_site_id
 _symmetry_equiv_pos_as_xyz
  1  'x, y, z'
loop_
 _atom_site_type_symbol
 _atom_site_label
 _atom_site_symmetry_multiplicity
 _atom_site_fract_x
 _atom_site_fract_y
 _atom_site_fract_z
 _atom_site_occupancy
  Ba  Ba0  1  0.87507571  0.62492429  0.25000000  1
  Ba  Ba1  1  0.25000000  0.87507571  0.62492429  1
  Ba  Ba2  1  0.62492429  0.25000000  0.87507571  1
  Ba  Ba3  1  0.75000000  0.12492429  0.37507571  1
  Ba  Ba4  1  0.37507571  0.75000000  0.12492429  1
  Ba  Ba5  1  0.12492429  0.37507571  0.75000000  1
  Ba  Ba6  1  0.25000000  0.25000000  0.25000000  1
  Ba  Ba7  1  0.75000000  0.75000000  0.75000000  1
  Hf  Hf0  1  0.50000000  0.50000000  0.50000000  1
  Hf  Hf1  1  0.00000000  0.00000000  0.00000000  1
  Se  Se0  1  0.21192918  0.56024248  0.42786685  1
  Se  Se1  1  0.42786685  0.21192918  0.56024248  1
  Se  Se2  1  0.56024248  0.42786685  0.21192918  1
  Se  Se3  1  0.92786685  0.06024248  0.71192918  1
  Se  Se4  1  0.71192918  0.92786685  0.06024248  1
  Se  Se5  1  0.06024248  0.71192918  0.92786685  1
  Se  Se6  1  0.78807082  0.43975752  0.57213315  1
  Se  Se7  1  0.57213315  0.78807082  0.43975752  1
  Se  Se8  1  0.43975752  0.57213315  0.78807082  1
  Se  Se9  1  0.07213315  0.93975752  0.28807082  1
  Se  Se10  1  0.28807082  0.07213315  0.93975752  1
  Se  Se11  1  0.93975752  0.28807082  0.07213315  1
loop_
_geom_bond_atom_site_label_1
_geom_bond_atom_site_label_2
_geom_bond_distance
_geom_bond_site_symmetry_2
Ba0 Se2 3.354328 1_555
Ba0 Se9 3.354328 1_655
Ba0 Se5 3.391994 1_654
Ba0 Se6 3.391994 1_555
Ba0 Se0 3.457394 1_655
Ba0 Se11 3.457394 1_555
Ba0 Se7 3.492650 1_555
Ba0 Se4 3.492650 1_555
Ba1 Se0 3.354328 1_555
Ba1 Se10 3.354329 1_565
Ba1 Se7 3.391994 1_555
Ba1 Se3 3.391994 1_465
Ba1 Se1 3.457393 1_565
Ba1 Se9 3.457394 1_555
Ba1 Se5 3.492650 1_555
Ba1 Se8 3.492650 1_555
Ba2 Se11 3.354328 1_556
Ba2 Se1 3.354329 1_555
Ba2 Se8 3.391994 1_555
Ba2 Se4 3.391994 1_546
Ba2 Se10 3.457393 1_555
Ba2 Se2 3.457394 1_556
Ba2 Se3 3.492650 1_555
Ba2 Se6 3.492650 1_555
Ba3 Se6 3.354328 1_555
Ba3 Se4 3.354329 1_545
Ba3 Se1 3.391994 1_555
Ba3 Se9 3.391994 1_645
Ba3 Se7 3.457393 1_545
Ba3 Se3 3.457394 1_555
Ba3 Se11 3.492650 1_555
Ba3 Se2 3.492650 1_555
Ba4 Se5 3.354328 1_554
Ba4 Se7 3.354329 1_555
Ba4 Se2 3.391994 1_555
Ba4 Se10 3.391994 1_564
Ba4 Se4 3.457393 1_555
Ba4 Se8 3.457394 1_554
Ba4 Se9 3.492650 1_555
Ba4 Se0 3.492650 1_555
Ba5 Se8 3.354328 1_555
Ba5 Se3 3.354328 1_455
Ba5 Se11 3.391994 1_456
Ba5 Se0 3.391994 1_555
Ba5 Se6 3.457394 1_455
Ba5 Se5 3.457394 1_555
Ba5 Se1 3.492650 1_555
Ba5 Se10 3.492650 1_555
Ba6 Se2 3.221382 1_555
Ba6 Se9 3.221382 1_545
Ba6 Se11 3.221382 1_455
Ba6 Se0 3.221382 1_555
Ba6 Se10 3.221382 1_554
Ba6 Se1 3.221383 1_555
Ba7 Se8 3.221382 1_555
Ba7 Se3 3.221382 1_565
Ba7 Se5 3.221382 1_655
Ba7 Se6 3.221382 1_555
Ba7 Se4 3.221382 1_556
Ba7 Se7 3.221383 1_555
Hf0 Se7 2.706347 1_555
Hf0 Se1 2.706347 1_555
Hf0 Se6 2.706347 1_555
Hf0 Se0 2.706347 1_555
Hf0 Se8 2.706348 1_555
Hf0 Se2 2.706348 1_555
Hf1 Se10 2.706347 1_554
Hf1 Se4 2.706347 1_445
Hf1 Se11 2.706348 1_455
Hf1 Se5 2.706348 1_544
Hf1 Se9 2.706348 1_545
Hf1 Se3 2.706348 1_454
