# generated using pymatgen
data_CsK2AgSn4
_symmetry_space_group_name_H-M   'P 1'
_cell_length_a   6.75444963
_cell_length_b   7.40504893
_cell_length_c   12.28989299
_cell_angle_alpha   90.00000000
_cell_angle_beta   90.00000000
_cell_angle_gamma   90.00000000
_symmetry_Int_Tables_number   1
_chemical_formula_structural   CsK2AgSn4
_chemical_formula_sum   'Cs2 K4 Ag2 Sn8'
_cell_volume   614.70394656
_cell_formula_units_Z   2
loop_
 _symmetry_equiv_pos_site_id
 _symmetry_equiv_pos_as_xyz
  1  'x, y, z'
loop_
 _atom_site_type_symbol
 _atom_site_label
 _atom_site_symmetry_multiplicity
 _atom_site_fract_x
 _atom_site_fract_y
 _atom_site_fract_z
 _atom_site_occupancy
  Cs  Cs0  1  0.56502151  0.00000000  0.00000000  1
  Cs  Cs1  1  0.43497849  0.50000000  0.50000000  1
  K  K0  1  0.84133038  0.50000000  0.73943125  1
  K  K1  1  0.84133038  0.50000000  0.26056875  1
  K  K2  1  0.15866962  0.00000000  0.76056875  1
  K  K3  1  0.15866962  0.00000000  0.23943125  1
  Ag  Ag0  1  0.69036939  0.50000000  0.00000000  1
  Ag  Ag1  1  0.30963061  0.00000000  0.50000000  1
  Sn  Sn0  1  0.33725960  0.50000000  0.87376150  1
  Sn  Sn1  1  0.33725960  0.50000000  0.12623850  1
  Sn  Sn2  1  0.04815480  0.29105434  0.00000000  1
  Sn  Sn3  1  0.04815480  0.70894566  0.00000000  1
  Sn  Sn4  1  0.95184520  0.79105434  0.50000000  1
  Sn  Sn5  1  0.95184520  0.20894566  0.50000000  1
  Sn  Sn6  1  0.66274040  0.00000000  0.37376150  1
  Sn  Sn7  1  0.66274040  0.00000000  0.62623850  1
loop_
_geom_bond_atom_site_label_1
_geom_bond_atom_site_label_2
_geom_bond_distance
_geom_bond_site_symmetry_2
Cs0 Sn3 3.910795 1_645
Cs0 Sn2 3.910795 1_655
Cs0 K3 4.023940 1_555
Cs0 K2 4.023940 1_554
Cs0 Sn2 4.102844 1_555
Cs0 Sn3 4.102844 1_545
Cs0 Sn1 4.299116 1_555
Cs0 Sn1 4.299116 1_545
Cs0 Sn0 4.299116 1_544
Cs0 Sn0 4.299116 1_554
Cs1 Sn5 3.910795 1_455
Cs1 Sn4 3.910795 1_455
Cs1 K0 4.023940 1_555
Cs1 K1 4.023940 1_555
Cs1 Sn4 4.102844 1_555
Cs1 Sn5 4.102844 1_555
Cs1 Sn7 4.299116 1_565
Cs1 Sn7 4.299116 1_555
Cs1 Sn6 4.299116 1_555
Cs1 Sn6 4.299116 1_565
K0 Sn5 3.723065 1_555
K0 Sn4 3.723065 1_555
K0 Sn0 3.734457 1_655
K0 Sn0 3.783862 1_555
K0 Sn2 3.821084 1_656
K0 Sn3 3.821084 1_656
K0 Sn7 4.135097 1_555
K0 Sn7 4.135097 1_565
K1 Sn5 3.723065 1_555
K1 Sn4 3.723065 1_555
K1 Sn1 3.734457 1_655
K1 Sn1 3.783862 1_555
K1 Sn3 3.821084 1_655
K1 Sn2 3.821084 1_655
K1 Sn6 4.135097 1_555
K1 Sn6 4.135097 1_565
K2 Sn3 3.723065 1_546
K2 Sn2 3.723065 1_556
K2 Sn7 3.734457 1_455
K2 Sn7 3.783862 1_555
K2 Sn4 3.821084 1_445
K2 Sn5 3.821084 1_455
K2 Sn0 4.135097 1_545
K2 Sn0 4.135097 1_555
K3 Sn3 3.723065 1_545
K3 Sn2 3.723065 1_555
K3 Sn6 3.734457 1_455
K3 Sn6 3.783862 1_555
K3 Sn4 3.821084 1_445
K3 Sn5 3.821084 1_455
K3 Sn1 4.135097 1_545
K3 Sn1 4.135097 1_555
Ag0 Sn1 2.845267 1_555
Ag0 Sn0 2.845267 1_554
Ag0 Sn3 2.869522 1_655
Ag0 Sn2 2.869522 1_655
Ag0 K1 3.360778 1_555
Ag0 K0 3.360778 1_554
Ag0 Cs0 3.798093 1_555
Ag0 Cs0 3.798093 1_565
Ag1 Sn7 2.845267 1_555
Ag1 Sn6 2.845267 1_555
Ag1 Sn4 2.869522 1_445
Ag1 Sn5 2.869522 1_455
Ag1 K2 3.360778 1_555
Ag1 K3 3.360778 1_555
Ag1 Cs1 3.798093 1_555
Ag1 Cs1 3.798093 1_545
Sn0 Sn2 2.934999 1_556
Sn0 Sn3 2.934999 1_556
Sn0 Sn1 3.102915 1_556
Sn1 Sn2 2.934999 1_555
Sn1 Sn3 2.934999 1_555
Sn2 Sn3 3.094506 1_555
Sn4 Sn7 2.934999 1_565
Sn4 Sn6 2.934999 1_565
Sn4 Sn5 3.094506 1_565
Sn5 Sn7 2.934999 1_555
Sn5 Sn6 2.934999 1_555
Sn6 Sn7 3.102915 1_555
