# generated using pymatgen
data_Sr2Mg(SiIr)4
_symmetry_space_group_name_H-M   'P 1'
_cell_length_a   6.39390697
_cell_length_b   6.39390623
_cell_length_c   11.21760268
_cell_angle_alpha   90.00000000
_cell_angle_beta   90.00000000
_cell_angle_gamma   113.21164149
_symmetry_Int_Tables_number   1
_chemical_formula_structural   Sr2Mg(SiIr)4
_chemical_formula_sum   'Sr4 Mg2 Si8 Ir8'
_cell_volume   421.47737198
_cell_formula_units_Z   2
loop_
 _symmetry_equiv_pos_site_id
 _symmetry_equiv_pos_as_xyz
  1  'x, y, z'
loop_
 _atom_site_type_symbol
 _atom_site_label
 _atom_site_symmetry_multiplicity
 _atom_site_fract_x
 _atom_site_fract_y
 _atom_site_fract_z
 _atom_site_occupancy
  Sr  Sr0  1  0.20050251  0.79949749  0.50000000  1
  Sr  Sr1  1  0.20050251  0.79949749  0.00000000  1
  Sr  Sr2  1  0.79949749  0.20050251  0.50000000  1
  Sr  Sr3  1  0.79949749  0.20050251  0.00000000  1
  Mg  Mg0  1  0.02766016  0.02766016  0.25000000  1
  Mg  Mg1  1  0.97233984  0.97233984  0.75000000  1
  Si  Si0  1  0.52565335  0.89393012  0.25000000  1
  Si  Si1  1  0.10606988  0.47434665  0.75000000  1
  Si  Si2  1  0.47434665  0.10606988  0.75000000  1
  Si  Si3  1  0.89393012  0.52565335  0.25000000  1
  Si  Si4  1  0.34971075  0.34971075  0.42138390  1
  Si  Si5  1  0.65028925  0.65028925  0.57861610  1
  Si  Si6  1  0.34971075  0.34971075  0.07861610  1
  Si  Si7  1  0.65028925  0.65028925  0.92138390  1
  Ir  Ir0  1  0.50806878  0.24294524  0.25000000  1
  Ir  Ir1  1  0.75705476  0.49193122  0.75000000  1
  Ir  Ir2  1  0.49193122  0.75705476  0.75000000  1
  Ir  Ir3  1  0.24294524  0.50806878  0.25000000  1
  Ir  Ir4  1  0.68795475  0.68795475  0.37495664  1
  Ir  Ir5  1  0.31204525  0.31204525  0.62504336  1
  Ir  Ir6  1  0.68795475  0.68795475  0.12504336  1
  Ir  Ir7  1  0.31204525  0.31204525  0.87495664  1
loop_
_geom_bond_atom_site_label_1
_geom_bond_atom_site_label_2
_geom_bond_distance
_geom_bond_site_symmetry_2
Mg0 Si4 2.972211 1_555
Mg0 Si6 2.972211 1_555
Mg0 Si3 2.978326 1_445
Mg0 Si0 2.978327 1_445
Mg0 Sr0 3.533425 1_545
Mg0 Sr1 3.533425 1_545
Mg0 Sr3 3.533425 1_455
Mg0 Sr2 3.533425 1_455
Mg1 Si7 2.972211 1_555
Mg1 Si5 2.972211 1_555
Mg1 Si1 2.978326 1_665
Mg1 Si2 2.978327 1_665
Mg1 Sr3 3.533425 1_566
Mg1 Sr2 3.533425 1_565
Mg1 Sr0 3.533425 1_655
Mg1 Sr1 3.533425 1_656
Si0 Sr0 3.400283 1_555
Si0 Sr1 3.400283 1_555
Si0 Sr2 3.473811 1_565
Si0 Sr3 3.473811 1_565
Si1 Sr0 3.400283 1_555
Si1 Sr1 3.400283 1_556
Si1 Sr2 3.473811 1_455
Si1 Sr3 3.473811 1_456
Si2 Sr2 3.400283 1_555
Si2 Sr3 3.400283 1_556
Si2 Sr1 3.473811 1_546
Si2 Sr0 3.473811 1_545
Si3 Sr2 3.400283 1_555
Si3 Sr3 3.400283 1_555
Si3 Sr1 3.473811 1_655
Si3 Sr0 3.473811 1_655
Si4 Sr0 3.379155 1_545
Si4 Sr2 3.379155 1_455
Si4 Sr0 3.481575 1_555
Si4 Sr2 3.481576 1_555
Si5 Sr2 3.379155 1_565
Si5 Sr0 3.379155 1_655
Si5 Sr2 3.481575 1_555
Si5 Sr0 3.481576 1_555
Si6 Sr1 3.379155 1_545
Si6 Sr3 3.379155 1_455
Si6 Sr1 3.481575 1_555
Si6 Sr3 3.481576 1_555
Si7 Sr3 3.379155 1_566
Si7 Sr1 3.379155 1_656
Si7 Sr3 3.481575 1_556
Si7 Sr1 3.481576 1_556
Ir0 Si0 2.278228 1_545
Ir0 Si4 2.394187 1_555
Ir0 Si6 2.394187 1_555
Ir0 Si3 2.416397 1_555
Ir0 Mg0 2.827920 1_555
Ir0 Sr2 3.436429 1_555
Ir0 Sr3 3.436429 1_555
Ir1 Si1 2.278228 1_655
Ir1 Si7 2.394187 1_555
Ir1 Si5 2.394187 1_555
Ir1 Si2 2.416397 1_555
Ir1 Mg1 2.827920 1_555
Ir1 Sr2 3.436429 1_555
Ir1 Sr3 3.436429 1_556
Ir2 Si2 2.278228 1_565
Ir2 Si7 2.394187 1_555
Ir2 Si5 2.394187 1_555
Ir2 Si1 2.416397 1_555
Ir2 Mg1 2.827920 1_555
Ir2 Sr1 3.436429 1_556
Ir2 Sr0 3.436429 1_555
Ir3 Si3 2.278228 1_455
Ir3 Si4 2.394187 1_555
Ir3 Si6 2.394187 1_555
Ir3 Si0 2.416397 1_555
Ir3 Mg0 2.827920 1_555
Ir3 Sr0 3.436429 1_555
Ir3 Sr1 3.436429 1_555
Ir4 Si5 2.299901 1_555
Ir4 Si0 2.419394 1_555
Ir4 Si3 2.419394 1_555
Ir4 Si4 2.436983 1_555
Ir4 Mg0 2.771558 1_665
Ir4 Sr2 3.372496 1_565
Ir4 Sr0 3.372497 1_655
Ir5 Si4 2.299901 1_555
Ir5 Si2 2.419394 1_555
Ir5 Si1 2.419394 1_555
Ir5 Si5 2.436983 1_555
Ir5 Mg1 2.771558 1_445
Ir5 Sr0 3.372496 1_545
Ir5 Sr2 3.372497 1_455
Ir6 Si7 2.299901 1_554
Ir6 Si0 2.419394 1_555
Ir6 Si3 2.419394 1_555
Ir6 Si6 2.436983 1_555
Ir6 Mg0 2.771558 1_665
Ir6 Sr3 3.372496 1_565
Ir6 Sr1 3.372497 1_655
Ir7 Si6 2.299901 1_556
Ir7 Si2 2.419394 1_555
Ir7 Si1 2.419394 1_555
Ir7 Si7 2.436983 1_555
Ir7 Mg1 2.771558 1_445
Ir7 Sr1 3.372496 1_546
Ir7 Sr3 3.372497 1_456
