# generated using pymatgen
data_NiHgP2O7
_symmetry_space_group_name_H-M   'P 1'
_cell_length_a   6.35119124
_cell_length_b   6.60852353
_cell_length_c   6.51684270
_cell_angle_alpha   67.26513532
_cell_angle_beta   81.24780611
_cell_angle_gamma   84.44049737
_symmetry_Int_Tables_number   1
_chemical_formula_structural   NiHgP2O7
_chemical_formula_sum   'Ni2 Hg2 P4 O14'
_cell_volume   249.11773266
_cell_formula_units_Z   2
loop_
 _symmetry_equiv_pos_site_id
 _symmetry_equiv_pos_as_xyz
  1  'x, y, z'
loop_
 _atom_site_type_symbol
 _atom_site_label
 _atom_site_symmetry_multiplicity
 _atom_site_fract_x
 _atom_site_fract_y
 _atom_site_fract_z
 _atom_site_occupancy
  Ni  Ni0  1  0.64418853  0.78325951  0.09488018  1
  Ni  Ni1  1  0.35581524  0.21672972  0.90512681  1
  Hg  Hg0  1  0.88767592  0.23254286  0.27305822  1
  Hg  Hg1  1  0.11232105  0.76745262  0.72694550  1
  P  P0  1  0.13880583  0.75909036  0.21675966  1
  P  P1  1  0.38675244  0.33475665  0.35982078  1
  P  P2  1  0.61324997  0.66524672  0.64017486  1
  P  P3  1  0.86119096  0.24091077  0.78324068  1
  O  O0  1  0.32613562  0.87488825  0.04850817  1
  O  O1  1  0.97047501  0.71166073  0.09757067  1
  O  O2  1  0.28852189  0.24616243  0.21595213  1
  O  O3  1  0.59601966  0.45081933  0.23373760  1
  O  O4  1  0.03747179  0.87503973  0.36834943  1
  O  O5  1  0.59187401  0.81561069  0.40324053  1
  O  O6  1  0.22671401  0.53273756  0.38288763  1
  O  O7  1  0.77328495  0.46726313  0.61710933  1
  O  O8  1  0.40812997  0.18439397  0.59675352  1
  O  O9  1  0.96252656  0.12495900  0.63165295  1
  O  O10  1  0.40398118  0.54918779  0.76625697  1
  O  O11  1  0.71148245  0.75383704  0.78404570  1
  O  O12  1  0.02951986  0.28833784  0.90243274  1
  O  O13  1  0.67385910  0.12511727  0.95149194  1
loop_
_geom_bond_atom_site_label_1
_geom_bond_atom_site_label_2
_geom_bond_distance
_geom_bond_site_symmetry_2
Ni0 O3 2.061154 1_555
Ni0 O5 2.075923 1_555
Ni0 O1 2.081660 1_555
Ni0 O0 2.084654 1_555
Ni0 O11 2.085337 1_554
Ni0 O13 2.099940 1_564
Ni1 O10 2.061258 1_555
Ni1 O8 2.075959 1_555
Ni1 O12 2.081724 1_555
Ni1 O13 2.084575 1_555
Ni1 O2 2.085309 1_556
Ni1 O0 2.099848 1_546
Hg0 O3 2.217815 1_555
Hg0 O9 2.276179 1_555
Hg0 O4 2.341531 1_645
Hg0 O12 2.344158 1_654
Hg0 O2 2.521533 1_655
Hg1 O10 2.217795 1_555
Hg1 O4 2.276182 1_555
Hg1 O9 2.341546 1_465
Hg1 O1 2.344164 1_456
Hg1 O11 2.521485 1_455
O0 P0 1.527829 1_555
O1 P0 1.533088 1_655
O2 P1 1.511328 1_555
O3 P1 1.551768 1_555
O4 P0 1.507755 1_555
O5 P2 1.497232 1_555
O6 P0 1.578541 1_555
O6 P1 1.617218 1_555
O7 P3 1.578542 1_555
O7 P2 1.617217 1_555
O8 P1 1.497224 1_555
O9 P3 1.507759 1_555
O10 P2 1.551766 1_555
O11 P2 1.511329 1_555
O12 P3 1.533085 1_455
O13 P3 1.527829 1_555
