# generated using pymatgen
data_Y2Ni2Ag
_symmetry_space_group_name_H-M   'P 1'
_cell_length_a   7.14742264
_cell_length_b   7.14742244
_cell_length_c   3.61881142
_cell_angle_alpha   90.00000000
_cell_angle_beta   90.00000000
_cell_angle_gamma   148.25938047
_symmetry_Int_Tables_number   1
_chemical_formula_structural   Y2Ni2Ag
_chemical_formula_sum   'Y2 Ni2 Ag1'
_cell_volume   97.25507666
_cell_formula_units_Z   1
loop_
 _symmetry_equiv_pos_site_id
 _symmetry_equiv_pos_as_xyz
  1  'x, y, z'
loop_
 _atom_site_type_symbol
 _atom_site_label
 _atom_site_symmetry_multiplicity
 _atom_site_fract_x
 _atom_site_fract_y
 _atom_site_fract_z
 _atom_site_occupancy
  Y  Y0  1  0.36620066  0.63379934  0.50000000  1
  Y  Y1  1  0.63379934  0.36620066  0.50000000  1
  Ni  Ni0  1  0.79988172  0.20011828  0.00000000  1
  Ni  Ni1  1  0.20011828  0.79988172  0.00000000  1
  Ag  Ag0  1  0.00000000  0.00000000  0.00000000  1
loop_
_geom_bond_atom_site_label_1
_geom_bond_atom_site_label_2
_geom_bond_distance
_geom_bond_site_symmetry_2
Ni0 Ni1 2.387867 1_655
Ni0 Ni1 2.387867 1_545
Ni0 Y0 2.815263 1_545
Ni0 Y0 2.815263 1_544
Ni0 Y0 2.815263 1_655
Ni0 Y0 2.815263 1_654
Ni0 Y1 2.913573 1_555
Ni0 Y1 2.913573 1_554
Ni1 Y1 2.815263 1_565
Ni1 Y1 2.815263 1_564
Ni1 Y1 2.815263 1_455
Ni1 Y1 2.815263 1_454
Ni1 Y0 2.913573 1_554
Ni1 Y0 2.913573 1_555
Ag0 Ni0 2.751620 1_455
Ag0 Ni1 2.751620 1_545
Ag0 Y0 3.237099 1_554
Ag0 Y0 3.237099 1_555
Ag0 Y1 3.237099 1_444
Ag0 Y1 3.237099 1_445
Ag0 Y1 3.237099 1_555
Ag0 Y1 3.237099 1_554
Ag0 Y0 3.237099 1_444
Ag0 Y0 3.237099 1_445
