# generated using pymatgen
data_CsMnSn3O8
_symmetry_space_group_name_H-M   'P 1'
_cell_length_a   6.46316338
_cell_length_b   7.60082475
_cell_length_c   7.56896007
_cell_angle_alpha   91.99150966
_cell_angle_beta   76.62588655
_cell_angle_gamma   100.35619502
_symmetry_Int_Tables_number   1
_chemical_formula_structural   CsMnSn3O8
_chemical_formula_sum   'Cs2 Mn2 Sn6 O16'
_cell_volume   355.84202000
_cell_formula_units_Z   2
loop_
 _symmetry_equiv_pos_site_id
 _symmetry_equiv_pos_as_xyz
  1  'x, y, z'
loop_
 _atom_site_type_symbol
 _atom_site_label
 _atom_site_symmetry_multiplicity
 _atom_site_fract_x
 _atom_site_fract_y
 _atom_site_fract_z
 _atom_site_occupancy
  Cs  Cs0  1  0.25883604  0.00078138  0.99468426  1
  Cs  Cs1  1  0.75884839  0.00075872  0.99462423  1
  Mn  Mn0  1  0.32194342  0.81604482  0.51039955  1
  Mn  Mn1  1  0.82194251  0.81604432  0.51039694  1
  Sn  Sn0  1  0.17589916  0.17156198  0.48940088  1
  Sn  Sn1  1  0.67589891  0.17156088  0.48939550  1
  Sn  Sn2  1  0.92068914  0.49653015  0.80796830  1
  Sn  Sn3  1  0.42069075  0.49653248  0.80796724  1
  Sn  Sn4  1  0.57132244  0.51829983  0.19323495  1
  Sn  Sn5  1  0.07132332  0.51830016  0.19323467  1
  O  O0  1  0.22865480  0.62801312  0.69846218  1
  O  O1  1  0.72865759  0.62801752  0.69846430  1
  O  O2  1  0.26399892  0.36909971  0.29329978  1
  O  O3  1  0.76400042  0.36910120  0.29329965  1
  O  O4  1  0.91932008  0.29300102  0.62400647  1
  O  O5  1  0.41932321  0.29300319  0.62400503  1
  O  O6  1  0.56006494  0.70661835  0.38248106  1
  O  O7  1  0.06006669  0.70662173  0.38247889  1
  O  O8  1  0.93190592  0.04391528  0.36225616  1
  O  O9  1  0.43190572  0.04391626  0.36225437  1
  O  O10  1  0.60687188  0.94539779  0.64323229  1
  O  O11  1  0.10687603  0.94539712  0.64323575  1
  O  O12  1  0.38558660  0.64162310  0.05135431  1
  O  O13  1  0.88558714  0.64162106  0.05135426  1
  O  O14  1  0.10489398  0.36911760  0.94925478  1
  O  O15  1  0.60489200  0.36911822  0.94925421  1
loop_
_geom_bond_atom_site_label_1
_geom_bond_atom_site_label_2
_geom_bond_distance
_geom_bond_site_symmetry_2
Cs0 O11 3.033166 1_545
Cs0 O12 3.058664 1_546
Cs0 O8 3.127085 1_456
Cs0 O10 3.131738 1_545
Cs0 O14 3.189503 1_555
Cs0 O9 3.216107 1_556
Cs0 O15 3.227787 1_555
Cs0 O13 3.269694 1_446
Cs1 O10 3.032806 1_545
Cs1 O13 3.058587 1_546
Cs1 O9 3.127481 1_556
Cs1 O11 3.131344 1_645
Cs1 O15 3.189620 1_555
Cs1 O8 3.216507 1_556
Cs1 O14 3.227888 1_655
Cs1 O12 3.269603 1_546
Mn0 O11 1.919844 1_555
Mn0 O6 1.926835 1_555
Mn0 O0 1.966431 1_555
Mn0 O9 2.021394 1_565
Mn0 O7 2.165633 1_555
Mn0 O10 2.346408 1_555
Mn1 O10 1.919862 1_555
Mn1 O7 1.926831 1_655
Mn1 O1 1.966429 1_555
Mn1 O8 2.021375 1_565
Mn1 O6 2.165620 1_555
Mn1 O11 2.346461 1_655
O0 Sn3 2.050757 1_555
O0 Sn2 2.055905 1_455
O1 Sn2 2.050761 1_555
O1 Sn3 2.055912 1_555
O2 Sn0 2.058688 1_555
O2 Sn4 2.087795 1_555
O2 Sn5 2.101005 1_555
O3 Sn1 2.058674 1_555
O3 Sn5 2.087789 1_655
O3 Sn4 2.101006 1_555
O4 Sn2 2.045262 1_555
O4 Sn0 2.084075 1_655
O4 Sn1 2.125877 1_555
O5 Sn3 2.045265 1_555
O5 Sn1 2.084081 1_555
O5 Sn0 2.125860 1_555
O6 Sn4 1.988119 1_555
O7 Sn5 1.988126 1_555
O8 Sn1 2.093032 1_555
O8 Sn0 2.107454 1_655
O9 Sn0 2.093044 1_555
O9 Sn1 2.107432 1_555
O10 Sn1 2.032965 1_565
O11 Sn0 2.032970 1_565
O12 Sn3 2.101599 1_554
O12 Sn5 2.129263 1_555
O12 Sn4 2.131629 1_555
O13 Sn2 2.101593 1_554
O13 Sn4 2.129267 1_555
O13 Sn5 2.131619 1_655
O14 Sn5 2.121460 1_556
O14 Sn2 2.138779 1_455
O14 Sn3 2.144516 1_555
O15 Sn4 2.121462 1_556
O15 Sn3 2.138771 1_555
O15 Sn2 2.144507 1_555
