# generated using pymatgen
data_CaHfNiSb2
_symmetry_space_group_name_H-M   'P 1'
_cell_length_a   7.95300251
_cell_length_b   7.95300231
_cell_length_c   7.95300134
_cell_angle_alpha   31.03026366
_cell_angle_beta   31.03026651
_cell_angle_gamma   31.03025777
_symmetry_Int_Tables_number   1
_chemical_formula_structural   CaHfNiSb2
_chemical_formula_sum   'Ca1 Hf1 Ni1 Sb2'
_cell_volume   118.58664661
_cell_formula_units_Z   1
loop_
 _symmetry_equiv_pos_site_id
 _symmetry_equiv_pos_as_xyz
  1  'x, y, z'
loop_
 _atom_site_type_symbol
 _atom_site_label
 _atom_site_symmetry_multiplicity
 _atom_site_fract_x
 _atom_site_fract_y
 _atom_site_fract_z
 _atom_site_occupancy
  Ca  Ca0  1  0.50541015  0.50541015  0.50541015  1
  Hf  Hf0  1  0.99560875  0.99560875  0.99560875  1
  Ni  Ni0  1  0.37116777  0.37116777  0.37116777  1
  Sb  Sb0  1  0.74523163  0.74523163  0.74523163  1
  Sb  Sb1  1  0.25758171  0.25758171  0.25758171  1
loop_
_geom_bond_atom_site_label_1
_geom_bond_atom_site_label_2
_geom_bond_distance
_geom_bond_site_symmetry_2
Ca0 Ni0 3.046278 1_555
Ca0 Sb1 3.130347 1_556
Ca0 Sb1 3.130348 1_565
Ca0 Sb1 3.130348 1_655
Ca0 Sb0 3.246103 1_554
Ca0 Sb0 3.246103 1_545
Ca0 Sb0 3.246103 1_455
Hf0 Ni0 2.636745 1_656
Hf0 Ni0 2.636745 1_566
Hf0 Ni0 2.636746 1_665
Hf0 Sb1 2.942197 1_665
Hf0 Sb1 2.942198 1_656
Hf0 Sb1 2.942198 1_566
Hf0 Sb0 3.094831 1_556
Hf0 Sb0 3.094832 1_565
Hf0 Sb0 3.094832 1_655
Ni0 Sb1 2.577537 1_555
Ni0 Sb0 2.624606 1_545
Ni0 Sb0 2.624606 1_455
Ni0 Sb0 2.624607 1_554
