# generated using pymatgen
data_Y20Cd3Ni2Hg3
_symmetry_space_group_name_H-M   'P 1'
_cell_length_a   9.72590853
_cell_length_b   9.72590930
_cell_length_c   9.57814550
_cell_angle_alpha   90.00000000
_cell_angle_beta   90.00000000
_cell_angle_gamma   119.99999739
_symmetry_Int_Tables_number   1
_chemical_formula_structural   Y20Cd3Ni2Hg3
_chemical_formula_sum   'Y20 Cd3 Ni2 Hg3'
_cell_volume   784.64365853
_cell_formula_units_Z   1
loop_
 _symmetry_equiv_pos_site_id
 _symmetry_equiv_pos_as_xyz
  1  'x, y, z'
loop_
 _atom_site_type_symbol
 _atom_site_label
 _atom_site_symmetry_multiplicity
 _atom_site_fract_x
 _atom_site_fract_y
 _atom_site_fract_z
 _atom_site_occupancy
  Y  Y0  1  0.00000000  0.00000000  0.51488939  1
  Y  Y1  1  0.00000000  0.00000000  0.98511061  1
  Y  Y2  1  0.54406291  0.45593709  0.25000000  1
  Y  Y3  1  0.54406291  0.08812681  0.25000000  1
  Y  Y4  1  0.91187319  0.45593709  0.25000000  1
  Y  Y5  1  0.45640667  0.54359333  0.75000000  1
  Y  Y6  1  0.45640667  0.91281334  0.75000000  1
  Y  Y7  1  0.08718666  0.54359333  0.75000000  1
  Y  Y8  1  0.20962799  0.79037201  0.43450524  1
  Y  Y9  1  0.20962799  0.41925598  0.43450524  1
  Y  Y10  1  0.58074402  0.79037201  0.43450524  1
  Y  Y11  1  0.79041292  0.20958708  0.56553250  1
  Y  Y12  1  0.79041292  0.58082484  0.56553250  1
  Y  Y13  1  0.41917516  0.20958708  0.56553250  1
  Y  Y14  1  0.79041292  0.20958708  0.93446750  1
  Y  Y15  1  0.79041292  0.58082484  0.93446750  1
  Y  Y16  1  0.41917516  0.20958708  0.93446750  1
  Y  Y17  1  0.20962799  0.79037201  0.06549476  1
  Y  Y18  1  0.20962799  0.41925598  0.06549476  1
  Y  Y19  1  0.58074402  0.79037201  0.06549476  1
  Cd  Cd0  1  0.88683138  0.11316862  0.25000000  1
  Cd  Cd1  1  0.88683138  0.77366376  0.25000000  1
  Cd  Cd2  1  0.22633624  0.11316862  0.25000000  1
  Ni  Ni0  1  0.33333300  0.66666700  0.25000000  1
  Ni  Ni1  1  0.66666700  0.33333300  0.75000000  1
  Hg  Hg0  1  0.12376929  0.87623071  0.75000000  1
  Hg  Hg1  1  0.12376929  0.24753857  0.75000000  1
  Hg  Hg2  1  0.75246143  0.87623071  0.75000000  1
loop_
_geom_bond_atom_site_label_1
_geom_bond_atom_site_label_2
_geom_bond_distance
_geom_bond_site_symmetry_2
Cd0 Y0 3.173568 1_655
Cd0 Y1 3.173568 1_654
Cd0 Y3 3.218876 1_555
Cd0 Y4 3.218876 1_555
Cd0 Cd2 3.301993 1_655
Cd0 Cd1 3.301993 1_545
Cd0 Y11 3.431028 1_555
Cd0 Y14 3.431028 1_554
Cd0 Y9 3.534921 1_655
Cd0 Y18 3.534921 1_655
Cd0 Y10 3.534921 1_545
Cd0 Y19 3.534921 1_545
Cd1 Y0 3.173563 1_665
Cd1 Y1 3.173563 1_664
Cd1 Y2 3.218876 1_555
Cd1 Y4 3.218876 1_555
Cd1 Cd2 3.301993 1_665
Cd1 Y12 3.431036 1_555
Cd1 Y15 3.431036 1_554
Cd1 Y10 3.534916 1_555
Cd1 Y19 3.534916 1_555
Cd1 Y8 3.534924 1_655
Cd1 Y17 3.534924 1_655
Cd2 Y0 3.173563 1_555
Cd2 Y1 3.173563 1_554
Cd2 Y3 3.218876 1_555
Cd2 Y2 3.218876 1_555
Cd2 Y13 3.431036 1_555
Cd2 Y16 3.431036 1_554
Cd2 Y9 3.534916 1_555
Cd2 Y18 3.534916 1_555
Cd2 Y8 3.534925 1_545
Cd2 Y17 3.534925 1_545
Ni0 Y8 2.732348 1_555
Ni0 Y17 2.732348 1_555
Ni0 Y10 2.732354 1_555
Ni0 Y19 2.732354 1_555
Ni0 Y9 2.732354 1_555
Ni0 Y18 2.732354 1_555
Ni1 Y16 2.732640 1_555
Ni1 Y13 2.732640 1_555
Ni1 Y14 2.732640 1_555
Ni1 Y11 2.732640 1_555
Ni1 Y15 2.732640 1_555
Ni1 Y12 2.732640 1_555
Hg0 Y1 3.068931 1_565
Hg0 Y0 3.068931 1_565
Hg0 Y6 3.072789 1_555
Hg0 Y7 3.072790 1_555
Hg0 Y17 3.350157 1_556
Hg0 Y8 3.350157 1_555
Hg0 Y15 3.545862 1_455
Hg0 Y12 3.545862 1_455
Hg0 Y16 3.545862 1_565
Hg0 Y13 3.545862 1_565
Hg1 Y1 3.068931 1_555
Hg1 Y0 3.068931 1_555
Hg1 Y7 3.072790 1_555
Hg1 Y5 3.072790 1_555
Hg1 Y18 3.350157 1_556
Hg1 Y9 3.350157 1_555
Hg1 Y14 3.545858 1_455
Hg1 Y11 3.545858 1_455
Hg1 Y16 3.545867 1_555
Hg1 Y13 3.545867 1_555
Hg2 Y1 3.068931 1_665
Hg2 Y0 3.068931 1_665
Hg2 Y6 3.072789 1_555
Hg2 Y5 3.072790 1_555
Hg2 Y19 3.350157 1_556
Hg2 Y10 3.350157 1_555
Hg2 Y14 3.545858 1_565
Hg2 Y11 3.545858 1_565
Hg2 Y15 3.545867 1_555
Hg2 Y12 3.545867 1_555
