# generated using pymatgen
data_Al(VSe2)4
_symmetry_space_group_name_H-M   'P 1'
_cell_length_a   7.21396253
_cell_length_b   7.21396289
_cell_length_c   7.21396370
_cell_angle_alpha   60.00234714
_cell_angle_beta   60.00234627
_cell_angle_gamma   60.00235035
_symmetry_Int_Tables_number   1
_chemical_formula_structural   Al(VSe2)4
_chemical_formula_sum   'Al1 V4 Se8'
_cell_volume   265.47880799
_cell_formula_units_Z   1
loop_
 _symmetry_equiv_pos_site_id
 _symmetry_equiv_pos_as_xyz
  1  'x, y, z'
loop_
 _atom_site_type_symbol
 _atom_site_label
 _atom_site_symmetry_multiplicity
 _atom_site_fract_x
 _atom_site_fract_y
 _atom_site_fract_z
 _atom_site_occupancy
  Al  Al0  1  0.99996490  0.99996490  0.99996490  1
  V  V0  1  0.60392683  0.18814395  0.60392683  1
  V  V1  1  0.18814395  0.60392683  0.60392683  1
  V  V2  1  0.60392683  0.60392683  0.18814395  1
  V  V3  1  0.60402390  0.60402390  0.60402390  1
  Se  Se0  1  0.36900928  0.36900928  0.36900928  1
  Se  Se1  1  0.36906985  0.89282234  0.36906985  1
  Se  Se2  1  0.89282234  0.36906985  0.36906985  1
  Se  Se3  1  0.36906985  0.36906985  0.89282234  1
  Se  Se4  1  0.86445469  0.86445469  0.86445469  1
  Se  Se5  1  0.86453448  0.40651964  0.86453448  1
  Se  Se6  1  0.40651964  0.86453448  0.86453448  1
  Se  Se7  1  0.86453448  0.86453448  0.40651964  1
loop_
_geom_bond_atom_site_label_1
_geom_bond_atom_site_label_2
_geom_bond_distance
_geom_bond_site_symmetry_2
Al0 Se4 2.394495 1_555
Al0 Se6 2.394750 1_655
Al0 Se5 2.394750 1_565
Al0 Se7 2.394750 1_556
Se0 V2 2.428185 1_555
Se0 V0 2.428185 1_555
Se0 V1 2.428185 1_555
Se1 V1 2.428059 1_555
Se1 V2 2.428059 1_555
Se1 V3 2.428351 1_555
Se2 V0 2.428059 1_555
Se2 V2 2.428059 1_555
Se2 V3 2.428351 1_555
Se3 V1 2.428059 1_555
Se3 V0 2.428059 1_555
Se3 V3 2.428350 1_555
Se4 V2 2.696768 1_556
Se4 V1 2.696769 1_655
Se4 V0 2.696769 1_565
Se5 V3 2.696361 1_555
Se5 V1 2.696479 1_655
Se5 V2 2.696479 1_556
Se6 V3 2.696361 1_555
Se6 V0 2.696479 1_565
Se6 V2 2.696479 1_556
Se7 V3 2.696361 1_555
Se7 V1 2.696479 1_655
Se7 V0 2.696479 1_565
