# generated using pymatgen
data_Ta6Be15(CoNi3)2
_symmetry_space_group_name_H-M   'P 1'
_cell_length_a   7.51836000
_cell_length_b   7.51086518
_cell_length_c   7.51086418
_cell_angle_alpha   59.99999999
_cell_angle_beta   60.03297068
_cell_angle_gamma   60.03297595
_symmetry_Int_Tables_number   1
_chemical_formula_structural   Ta6Be15(CoNi3)2
_chemical_formula_sum   'Ta6 Be15 Co2 Ni6'
_cell_volume   300.05734589
_cell_formula_units_Z   1
loop_
 _symmetry_equiv_pos_site_id
 _symmetry_equiv_pos_as_xyz
  1  'x, y, z'
loop_
 _atom_site_type_symbol
 _atom_site_label
 _atom_site_symmetry_multiplicity
 _atom_site_fract_x
 _atom_site_fract_y
 _atom_site_fract_z
 _atom_site_occupancy
  Ta  Ta0  1  0.70050019  0.29529713  0.29529713  1
  Ta  Ta1  1  0.29949981  0.70470287  0.70470287  1
  Ta  Ta2  1  0.29949981  0.70470287  0.29109445  1
  Ta  Ta3  1  0.70050019  0.29529713  0.70890555  1
  Ta  Ta4  1  0.29949981  0.29109445  0.70470287  1
  Ta  Ta5  1  0.70050019  0.70890555  0.29529713  1
  Be  Be0  1  0.32716231  0.32572186  0.32572186  1
  Be  Be1  1  0.67283769  0.67427814  0.67427814  1
  Be  Be2  1  0.32716231  0.32572186  0.02139196  1
  Be  Be3  1  0.32716231  0.02139196  0.32572186  1
  Be  Be4  1  0.67283769  0.67427814  0.97860804  1
  Be  Be5  1  0.67283769  0.97860804  0.67427814  1
  Be  Be6  1  0.01862538  0.32712454  0.32712454  1
  Be  Be7  1  0.98137462  0.67287546  0.67287546  1
  Be  Be8  1  0.50000000  0.00000000  0.00000000  1
  Be  Be9  1  0.00000000  0.50000000  0.50000000  1
  Be  Be10  1  0.00000000  0.50000000  0.00000000  1
  Be  Be11  1  0.50000000  0.00000000  0.50000000  1
  Be  Be12  1  0.00000000  0.00000000  0.50000000  1
  Be  Be13  1  0.50000000  0.50000000  0.00000000  1
  Be  Be14  1  0.00000000  0.00000000  0.00000000  1
  Co  Co0  1  0.63334813  0.12221796  0.12221796  1
  Co  Co1  1  0.36665187  0.87778204  0.87778204  1
  Ni  Ni0  1  0.12108913  0.12284166  0.12284166  1
  Ni  Ni1  1  0.87891087  0.87715934  0.87715834  1
  Ni  Ni2  1  0.12108913  0.12284166  0.63322756  1
  Ni  Ni3  1  0.12108913  0.63322756  0.12284066  1
  Ni  Ni4  1  0.87891087  0.87715934  0.36677244  1
  Ni  Ni5  1  0.87891087  0.36677244  0.87715834  1
loop_
_geom_bond_atom_site_label_1
_geom_bond_atom_site_label_2
_geom_bond_distance
_geom_bond_site_symmetry_2
Be0 Be13 2.169831 1_555
Be0 Be11 2.169831 1_555
Be0 Be9 2.181167 1_555
Be0 Be2 2.285781 1_555
Be0 Be3 2.285781 1_555
Be0 Co0 2.297373 1_555
Be0 Ni2 2.306750 1_555
Be0 Ni3 2.306754 1_555
Be0 Be6 2.309215 1_555
Be0 Ta0 2.598793 1_555
Be0 Ta4 2.633558 1_555
Be0 Ta2 2.633558 1_555
Be1 Be13 2.169831 1_556
Be1 Be11 2.169831 1_565
Be1 Be9 2.181167 1_655
Be1 Be4 2.285781 1_555
Be1 Be5 2.285781 1_555
Be1 Co1 2.297373 1_555
Be1 Ni5 2.306750 1_555
Be1 Ni4 2.306753 1_555
Be1 Be7 2.309215 1_555
Be1 Ta1 2.598793 1_555
Be1 Ta5 2.633558 1_555
Be1 Ta3 2.633558 1_555
Be2 Be8 2.169826 1_555
Be2 Be3 2.285781 1_555
Be2 Co0 2.297388 1_555
Be2 Ni0 2.306745 1_555
Be2 Ni3 2.306754 1_555
Be2 Be6 2.309219 1_555
Be2 Ta3 2.598786 1_554
Be2 Ta4 2.633543 1_554
Be2 Ta1 2.633552 1_554
Be3 Be8 2.169825 1_555
Be3 Co0 2.297388 1_555
Be3 Ni0 2.306745 1_555
Be3 Ni2 2.306757 1_555
Be3 Be6 2.309219 1_555
Be3 Ta5 2.598787 1_545
Be3 Ta2 2.633543 1_545
Be3 Ta1 2.633552 1_545
Be4 Be8 2.169826 1_566
Be4 Be5 2.285781 1_555
Be4 Co1 2.297388 1_555
Be4 Ni1 2.306751 1_555
Be4 Ni5 2.306757 1_555
Be4 Be7 2.309219 1_555
Be4 Ta2 2.598786 1_556
Be4 Ta5 2.633543 1_556
Be4 Ta0 2.633552 1_556
Be5 Be8 2.169825 1_566
Be5 Co1 2.297388 1_555
Be5 Ni1 2.306747 1_555
Be5 Ni4 2.306753 1_555
Be5 Be7 2.309219 1_555
Be5 Ta4 2.598787 1_565
Be5 Ta3 2.633543 1_565
Be5 Ta0 2.633552 1_565
Be6 Be9 2.171220 1_555
Be6 Ni0 2.300963 1_555
Be6 Ni2 2.300969 1_555
Be6 Ni3 2.300969 1_555
Be6 Ta0 2.652249 1_455
Be6 Ta3 2.652253 1_455
Be6 Ta5 2.652253 1_455
Be7 Be9 2.171220 1_655
Be7 Ni4 2.300969 1_555
Be7 Ni1 2.300969 1_555
Be7 Ni5 2.300969 1_555
Be7 Ta1 2.652249 1_655
Be7 Ta2 2.652253 1_655
Be7 Ta4 2.652253 1_655
Be8 Co0 2.317732 1_555
Be8 Co1 2.317732 1_544
Be8 Ni0 2.327620 1_555
Be8 Ni1 2.327620 1_544
Be8 Ta3 2.677708 1_554
Be8 Ta2 2.677708 1_545
Be8 Ta5 2.677708 1_545
Be8 Ta4 2.677708 1_554
Be9 Ni5 2.313841 1_455
Be9 Ni2 2.313842 1_555
Be9 Ni3 2.313847 1_555
Be9 Ni4 2.313848 1_455
Be9 Ta2 2.722642 1_555
Be9 Ta3 2.722642 1_455
Be9 Ta4 2.722642 1_555
Be9 Ta5 2.722642 1_455
Be10 Be6 2.171213 1_555
Be10 Be7 2.171213 1_454
Be10 Be2 2.181162 1_555
Be10 Be4 2.181162 1_454
Be10 Ni3 2.313835 1_555
Be10 Ni5 2.313841 1_454
Be10 Ni0 2.313842 1_555
Be10 Ni1 2.313848 1_454
Be10 Ta1 2.722642 1_554
Be10 Ta0 2.722642 1_455
Be10 Ta4 2.722642 1_554
Be10 Ta5 2.722642 1_455
Be11 Be5 2.169839 1_545
Be11 Be3 2.169839 1_555
Be11 Co1 2.317719 1_545
Be11 Co0 2.317719 1_555
Be11 Ni2 2.327620 1_555
Be11 Ni4 2.327620 1_545
Be11 Ta0 2.677708 1_555
Be11 Ta1 2.677708 1_545
Be11 Ta5 2.677708 1_545
Be11 Ta4 2.677708 1_555
Be12 Be6 2.171213 1_555
Be12 Be7 2.171213 1_445
Be12 Be3 2.181161 1_555
Be12 Be5 2.181161 1_445
Be12 Ni4 2.313835 1_445
Be12 Ni0 2.313841 1_555
Be12 Ni1 2.313841 1_445
Be12 Ni2 2.313841 1_555
Be12 Ta3 2.722642 1_455
Be12 Ta2 2.722642 1_545
Be12 Ta1 2.722642 1_545
Be12 Ta0 2.722642 1_455
Be13 Be4 2.169839 1_554
Be13 Be2 2.169839 1_555
Be13 Co1 2.317720 1_554
Be13 Co0 2.317720 1_555
Be13 Ni5 2.327620 1_554
Be13 Ni3 2.327620 1_555
Be13 Ta0 2.677708 1_555
Be13 Ta1 2.677708 1_554
Be13 Ta2 2.677708 1_555
Be13 Ta3 2.677708 1_554
Be14 Ni1 2.249641 1_444
Be14 Ni2 2.249647 1_554
Be14 Ni4 2.249647 1_445
Be14 Ni0 2.249647 1_555
Be14 Ni5 2.249647 1_454
Be14 Ni3 2.249647 1_545
Be14 Co1 2.251893 1_544
Be14 Co0 2.251893 1_455
Co0 Ta0 2.576050 1_555
Co0 Ta3 2.576062 1_554
Co0 Ta5 2.576063 1_545
Co0 Ni5 2.604312 1_554
Co0 Ni4 2.604312 1_545
Co0 Ni1 2.604317 1_544
Co1 Ta1 2.576050 1_555
Co1 Ta2 2.576062 1_556
Co1 Ta4 2.576063 1_565
Co1 Ni3 2.604312 1_556
Co1 Ni2 2.604312 1_565
Co1 Ni0 2.604322 1_566
Ni0 Ta4 2.603006 1_554
Ni0 Ta2 2.603007 1_545
Ni0 Ta0 2.617030 1_455
Ni1 Ta3 2.603001 1_565
Ni1 Ta5 2.603007 1_556
Ni1 Ta1 2.617031 1_655
Ni2 Ta4 2.603006 1_555
Ni2 Ta1 2.603007 1_545
Ni2 Ta3 2.617030 1_455
Ni3 Ta1 2.603000 1_554
Ni3 Ta2 2.603013 1_555
Ni3 Ta5 2.617030 1_455
Ni4 Ta0 2.603000 1_565
Ni4 Ta5 2.603013 1_555
Ni4 Ta2 2.617030 1_655
Ni5 Ta0 2.603006 1_556
Ni5 Ta3 2.603006 1_555
Ni5 Ta4 2.617030 1_655
