# generated using pymatgen
data_Sc2AsCl2
_symmetry_space_group_name_H-M   'P 1'
_cell_length_a   3.76984736
_cell_length_b   3.76984662
_cell_length_c   10.87049880
_cell_angle_alpha   90.00000000
_cell_angle_beta   90.00000000
_cell_angle_gamma   120.00001512
_symmetry_Int_Tables_number   1
_chemical_formula_structural   Sc2AsCl2
_chemical_formula_sum   'Sc2 As1 Cl2'
_cell_volume   133.79118000
_cell_formula_units_Z   1
loop_
 _symmetry_equiv_pos_site_id
 _symmetry_equiv_pos_as_xyz
  1  'x, y, z'
loop_
 _atom_site_type_symbol
 _atom_site_label
 _atom_site_symmetry_multiplicity
 _atom_site_fract_x
 _atom_site_fract_y
 _atom_site_fract_z
 _atom_site_occupancy
  Sc  Sc0  1  0.66666700  0.33333300  0.63980800  1
  Sc  Sc1  1  0.33333300  0.66666700  0.36019200  1
  As  As0  1  0.00000000  0.00000000  0.50000000  1
  Cl  Cl0  1  0.66666700  0.33333300  0.21958657  1
  Cl  Cl1  1  0.33333300  0.66666700  0.78041343  1
loop_
_geom_bond_atom_site_label_1
_geom_bond_atom_site_label_2
_geom_bond_distance
_geom_bond_site_symmetry_2
As0 Sc0 2.654615 1_455
As0 Sc1 2.654615 1_545
As0 Sc0 2.654617 1_445
As0 Sc1 2.654617 1_555
As0 Sc0 2.654617 1_555
As0 Sc1 2.654617 1_445
Cl0 Sc1 2.659586 1_545
Cl0 Sc1 2.659587 1_655
Cl0 Sc1 2.659592 1_555
Cl1 Sc0 2.659586 1_565
Cl1 Sc0 2.659587 1_455
Cl1 Sc0 2.659592 1_555
