# generated using pymatgen
data_Mn(SeBr6)2
_symmetry_space_group_name_H-M   'P 1'
_cell_length_a   9.05316402
_cell_length_b   9.05316354
_cell_length_c   6.66834571
_cell_angle_alpha   73.18816337
_cell_angle_beta   73.18816137
_cell_angle_gamma   77.84248088
_symmetry_Int_Tables_number   1
_chemical_formula_structural   Mn(SeBr6)2
_chemical_formula_sum   'Mn1 Se2 Br12'
_cell_volume   495.98719216
_cell_formula_units_Z   1
loop_
 _symmetry_equiv_pos_site_id
 _symmetry_equiv_pos_as_xyz
  1  'x, y, z'
loop_
 _atom_site_type_symbol
 _atom_site_label
 _atom_site_symmetry_multiplicity
 _atom_site_fract_x
 _atom_site_fract_y
 _atom_site_fract_z
 _atom_site_occupancy
  Mn  Mn0  1  0.00000000  0.00000000  0.00000000  1
  Se  Se0  1  0.27415370  0.27415370  0.73385412  1
  Se  Se1  1  0.72584630  0.72584630  0.26614588  1
  Br  Br0  1  0.94828110  0.25165994  0.75034317  1
  Br  Br1  1  0.25165994  0.94828110  0.75034317  1
  Br  Br2  1  0.05171890  0.74834006  0.24965683  1
  Br  Br3  1  0.74834006  0.05171890  0.24965683  1
  Br  Br4  1  0.21147241  0.52653764  0.79725791  1
  Br  Br5  1  0.52653764  0.21147241  0.79725791  1
  Br  Br6  1  0.78852759  0.47346236  0.20274209  1
  Br  Br7  1  0.47346236  0.78852759  0.20274209  1
  Br  Br8  1  0.12431790  0.12431790  0.17641341  1
  Br  Br9  1  0.87568210  0.87568210  0.82358659  1
  Br  Br10  1  0.65316679  0.65316679  0.65097685  1
  Br  Br11  1  0.34683321  0.34683321  0.34902315  1
loop_
_geom_bond_atom_site_label_1
_geom_bond_atom_site_label_2
_geom_bond_distance
_geom_bond_site_symmetry_2
Br0 Mn0 2.447252 1_656
Br0 Se0 2.968090 1_655
Br1 Mn0 2.447252 1_566
Br1 Se0 2.968090 1_565
Br2 Mn0 2.447252 1_565
Br2 Se1 2.968090 1_455
Br3 Mn0 2.447252 1_655
Br3 Se1 2.968090 1_545
Br4 Se0 2.365445 1_555
Br5 Se0 2.365445 1_555
Br6 Se1 2.365445 1_555
Br7 Se1 2.365445 1_555
Br8 Mn0 2.445919 1_555
Br8 Se0 2.921132 1_554
Br9 Mn0 2.445919 1_666
Br9 Se1 2.921132 1_556
Br10 Se1 2.383293 1_555
Br11 Se0 2.383293 1_555
