# generated using pymatgen
data_Na3Cd2AuO6
_symmetry_space_group_name_H-M   'P 1'
_cell_length_a   5.70009315
_cell_length_b   5.70009337
_cell_length_c   5.68008310
_cell_angle_alpha   80.08990370
_cell_angle_beta   80.08990469
_cell_angle_gamma   119.79137725
_symmetry_Int_Tables_number   1
_chemical_formula_structural   Na3Cd2AuO6
_chemical_formula_sum   'Na3 Cd2 Au1 O6'
_cell_volume   150.43820933
_cell_formula_units_Z   1
loop_
 _symmetry_equiv_pos_site_id
 _symmetry_equiv_pos_as_xyz
  1  'x, y, z'
loop_
 _atom_site_type_symbol
 _atom_site_label
 _atom_site_symmetry_multiplicity
 _atom_site_fract_x
 _atom_site_fract_y
 _atom_site_fract_z
 _atom_site_occupancy
  Na  Na0  1  0.50000000  0.50000000  0.00000000  1
  Na  Na1  1  0.83735854  0.16264146  1.00000000  1
  Na  Na2  1  0.16264146  0.83735854  0.00000000  1
  Cd  Cd0  1  0.66717543  0.33282457  0.50000000  1
  Cd  Cd1  1  0.33282457  0.66717543  0.50000000  1
  Au  Au0  1  0.00000000  0.00000000  0.50000000  1
  O  O0  1  0.63286399  0.92792148  0.71998083  1
  O  O1  1  0.36713601  0.07207852  0.28001917  1
  O  O2  1  0.77604758  0.77604758  0.28879503  1
  O  O3  1  0.92792148  0.63286399  0.71998083  1
  O  O4  1  0.07207852  0.36713601  0.28001917  1
  O  O5  1  0.22395242  0.22395242  0.71120497  1
loop_
_geom_bond_atom_site_label_1
_geom_bond_atom_site_label_2
_geom_bond_distance
_geom_bond_site_symmetry_2
Na0 O3 2.338243 1_554
Na0 O4 2.338243 1_555
Na0 O1 2.338243 1_555
Na0 O0 2.338243 1_554
Na0 O2 2.638039 1_555
Na0 O5 2.638039 1_554
Na1 O5 2.337118 1_655
Na1 O2 2.337118 1_546
Na1 O4 2.345098 1_656
Na1 O0 2.345098 1_545
Na1 O1 2.618292 1_556
Na1 O3 2.618293 1_555
Na2 O2 2.337118 1_455
Na2 O5 2.337118 1_564
Na2 O3 2.345098 1_454
Na2 O1 2.345098 1_565
Na2 O0 2.618292 1_554
Na2 O4 2.618293 1_555
Cd0 O5 2.312928 1_555
Cd0 O2 2.312928 1_555
Cd0 O4 2.324011 1_655
Cd0 O0 2.324011 1_545
Cd0 O1 2.354609 1_555
Cd0 O3 2.354609 1_555
Cd1 O2 2.312928 1_555
Cd1 O5 2.312928 1_555
Cd1 O3 2.324011 1_455
Cd1 O1 2.324011 1_565
Cd1 O0 2.354609 1_555
Cd1 O4 2.354609 1_555
Au0 O5 2.033054 1_555
Au0 O2 2.033054 1_445
Au0 O0 2.044110 1_445
Au0 O1 2.044110 1_555
Au0 O4 2.044110 1_555
Au0 O3 2.044110 1_445
