# generated using pymatgen
data_Hf4Re(SiIr)6
_symmetry_space_group_name_H-M   'P 1'
_cell_length_a   6.95352497
_cell_length_b   6.95352581
_cell_length_c   6.95352473
_cell_angle_alpha   109.47121178
_cell_angle_beta   109.47121425
_cell_angle_gamma   109.47122859
_symmetry_Int_Tables_number   1
_chemical_formula_structural   Hf4Re(SiIr)6
_chemical_formula_sum   'Hf4 Re1 Si6 Ir6'
_cell_volume   258.81726387
_cell_formula_units_Z   1
loop_
 _symmetry_equiv_pos_site_id
 _symmetry_equiv_pos_as_xyz
  1  'x, y, z'
loop_
 _atom_site_type_symbol
 _atom_site_label
 _atom_site_symmetry_multiplicity
 _atom_site_fract_x
 _atom_site_fract_y
 _atom_site_fract_z
 _atom_site_occupancy
  Hf  Hf0  1  0.50000000  0.50000000  0.50000000  1
  Hf  Hf1  1  0.00000000  0.00000000  0.50000000  1
  Hf  Hf2  1  0.00000000  0.50000000  0.00000000  1
  Hf  Hf3  1  0.50000000  0.00000000  0.00000000  1
  Re  Re0  1  0.00000000  0.00000000  0.00000000  1
  Si  Si0  1  1.00000000  0.31729388  0.31729388  1
  Si  Si1  1  0.31729388  1.00000000  0.31729388  1
  Si  Si2  1  0.31729388  0.31729388  1.00000000  1
  Si  Si3  1  0.00000000  0.68270612  0.68270612  1
  Si  Si4  1  0.68270612  0.00000000  0.68270612  1
  Si  Si5  1  0.68270612  0.68270612  0.00000000  1
  Ir  Ir0  1  0.50000000  0.75000000  0.25000000  1
  Ir  Ir1  1  0.25000000  0.50000000  0.75000000  1
  Ir  Ir2  1  0.75000000  0.25000000  0.50000000  1
  Ir  Ir3  1  0.75000000  0.50000000  0.25000000  1
  Ir  Ir4  1  0.50000000  0.25000000  0.75000000  1
  Ir  Ir5  1  0.25000000  0.75000000  0.50000000  1
loop_
_geom_bond_atom_site_label_1
_geom_bond_atom_site_label_2
_geom_bond_distance
_geom_bond_site_symmetry_2
Hf0 Ir1 2.838765 1_555
Hf0 Ir3 2.838765 1_555
Hf0 Ir0 2.838765 1_555
Hf0 Ir4 2.838765 1_555
Hf0 Ir2 2.838765 1_555
Hf0 Ir5 2.838765 1_555
Hf0 Si0 2.889728 1_455
Hf0 Si3 2.889728 1_655
Hf0 Si2 2.889728 1_554
Hf0 Si5 2.889728 1_556
Hf0 Si1 2.889729 1_545
Hf0 Si4 2.889729 1_565
Hf1 Ir0 2.838765 1_445
Hf1 Ir4 2.838765 1_555
Hf1 Ir2 2.838765 1_455
Hf1 Ir5 2.838765 1_545
Hf1 Ir3 2.838765 1_445
Hf1 Ir1 2.838765 1_555
Hf1 Si1 2.889728 1_545
Hf1 Si4 2.889728 1_455
Hf1 Si0 2.889728 1_455
Hf1 Si3 2.889728 1_545
Hf1 Si5 2.889729 1_445
Hf1 Si2 2.889729 1_555
Hf2 Ir3 2.838765 1_455
Hf2 Ir1 2.838765 1_554
Hf2 Ir4 2.838765 1_454
Hf2 Ir0 2.838765 1_555
Hf2 Ir2 2.838765 1_454
Hf2 Ir5 2.838765 1_555
Hf2 Si0 2.889728 1_455
Hf2 Si3 2.889728 1_554
Hf2 Si5 2.889728 1_455
Hf2 Si2 2.889728 1_554
Hf2 Si1 2.889729 1_555
Hf2 Si4 2.889729 1_454
Hf3 Ir4 2.838765 1_554
Hf3 Ir0 2.838765 1_545
Hf3 Ir2 2.838765 1_555
Hf3 Ir5 2.838765 1_544
Hf3 Ir3 2.838765 1_555
Hf3 Ir1 2.838765 1_544
Hf3 Si1 2.889728 1_545
Hf3 Si4 2.889728 1_554
Hf3 Si0 2.889728 1_555
Hf3 Si3 2.889728 1_544
Hf3 Si2 2.889729 1_554
Hf3 Si5 2.889729 1_545
Re0 Si2 2.547628 1_554
Re0 Si5 2.547628 1_445
Re0 Si1 2.547629 1_545
Re0 Si4 2.547629 1_454
Re0 Si0 2.547629 1_455
Re0 Si3 2.547629 1_544
Ir0 Si5 2.486233 1_555
Ir0 Si4 2.486233 1_565
Ir0 Si1 2.486233 1_555
Ir0 Si2 2.486234 1_554
Ir1 Si2 2.486233 1_555
Ir1 Si5 2.486233 1_556
Ir1 Si0 2.486233 1_455
Ir1 Si3 2.486233 1_555
Ir2 Si0 2.486233 1_555
Ir2 Si4 2.486233 1_555
Ir2 Si1 2.486233 1_545
Ir2 Si3 2.486233 1_655
Ir3 Si5 2.486233 1_555
Ir3 Si2 2.486233 1_554
Ir3 Si3 2.486233 1_655
Ir3 Si0 2.486233 1_555
Ir4 Si2 2.486233 1_555
Ir4 Si1 2.486233 1_545
Ir4 Si4 2.486233 1_555
Ir4 Si5 2.486234 1_556
Ir5 Si3 2.486233 1_555
Ir5 Si1 2.486233 1_555
Ir5 Si4 2.486233 1_565
Ir5 Si0 2.486233 1_455
