# generated using pymatgen
data_Ta4Be5ZnGa2
_symmetry_space_group_name_H-M   'P 1'
_cell_length_a   4.76861592
_cell_length_b   4.76984583
_cell_length_c   7.75473046
_cell_angle_alpha   90.00000000
_cell_angle_beta   90.00000000
_cell_angle_gamma   120.00853749
_symmetry_Int_Tables_number   1
_chemical_formula_structural   Ta4Be5ZnGa2
_chemical_formula_sum   'Ta4 Be5 Zn1 Ga2'
_cell_volume   152.74136117
_cell_formula_units_Z   1
loop_
 _symmetry_equiv_pos_site_id
 _symmetry_equiv_pos_as_xyz
  1  'x, y, z'
loop_
 _atom_site_type_symbol
 _atom_site_label
 _atom_site_symmetry_multiplicity
 _atom_site_fract_x
 _atom_site_fract_y
 _atom_site_fract_z
 _atom_site_occupancy
  Ta  Ta0  1  0.33118835  0.66559467  0.42956566  1
  Ta  Ta1  1  0.66816699  0.33408299  0.56319521  1
  Ta  Ta2  1  0.66816699  0.33408299  0.93680479  1
  Ta  Ta3  1  0.33118835  0.66559467  0.07043434  1
  Be  Be0  1  0.81898638  0.18150222  0.25000000  1
  Be  Be1  1  0.81898638  0.63748716  0.25000000  1
  Be  Be2  1  0.36458134  0.18229167  0.25000000  1
  Be  Be3  1  0.16803204  0.81721829  0.75000000  1
  Be  Be4  1  0.16803204  0.35081175  0.75000000  1
  Zn  Zn0  1  0.64526272  0.82263036  0.75000000  1
  Ga  Ga0  1  0.00870422  0.00435211  0.49195965  1
  Ga  Ga1  1  0.00870422  0.00435211  0.00804035  1
loop_
_geom_bond_atom_site_label_1
_geom_bond_atom_site_label_2
_geom_bond_distance
_geom_bond_site_symmetry_2
Ta0 Ta3 2.784967 1_555
Ta0 Zn0 2.802977 1_555
Ta0 Ta1 2.927419 1_455
Ta0 Ta1 2.949235 1_565
Ta0 Ta1 2.949243 1_555
Ta1 Zn0 2.792005 1_555
Ta1 Zn0 2.792009 1_545
Ta1 Ta2 2.897242 1_555
Ta2 Zn0 2.792005 1_555
Ta2 Zn0 2.792009 1_545
Ta2 Ta3 2.927419 1_656
Ta2 Ta3 2.949235 1_546
Ta2 Ta3 2.949243 1_556
Ta3 Zn0 2.802977 1_554
Be0 Be2 2.168769 1_555
Be0 Be1 2.174978 1_555
Be0 Ga0 2.411995 1_655
Be0 Ga1 2.411995 1_655
Be0 Be1 2.594868 1_545
Be0 Be2 2.599852 1_655
Be0 Ta1 2.732998 1_555
Be0 Ta2 2.732998 1_554
Be0 Ta0 2.755938 1_655
Be0 Ta3 2.755938 1_655
Be0 Ta0 2.771243 1_545
Be0 Ta3 2.771243 1_545
Be1 Be2 2.168771 1_555
Be1 Ga0 2.411987 1_665
Be1 Ga1 2.411987 1_665
Be1 Be2 2.599849 1_665
Be1 Ta1 2.733006 1_555
Be1 Ta2 2.733006 1_554
Be1 Ta0 2.755942 1_655
Be1 Ta3 2.755942 1_655
Be1 Ta0 2.771239 1_555
Be1 Ta3 2.771239 1_555
Be2 Ga0 2.383319 1_555
Be2 Ga1 2.383319 1_555
Be2 Ta1 2.733198 1_555
Be2 Ta2 2.733198 1_554
Be2 Ta0 2.765117 1_555
Be2 Ta3 2.765117 1_555
Be2 Ta0 2.765121 1_545
Be2 Ta3 2.765121 1_545
Be3 Be4 2.224687 1_555
Be3 Zn0 2.262930 1_555
Be3 Ga1 2.460990 1_566
Be3 Ga0 2.460990 1_565
Be3 Zn0 2.505896 1_455
Be3 Be4 2.545159 1_565
Be3 Ta2 2.756168 1_455
Be3 Ta1 2.756168 1_455
Be3 Ta3 2.804612 1_556
Be3 Ta0 2.804612 1_555
Be3 Ta2 2.825460 1_565
Be3 Ta1 2.825460 1_565
Be4 Zn0 2.262929 1_555
Be4 Ga1 2.460985 1_556
Be4 Ga0 2.460985 1_555
Be4 Zn0 2.505896 1_445
Be4 Ta2 2.756170 1_455
Be4 Ta1 2.756170 1_455
Be4 Ta3 2.804618 1_556
Be4 Ta0 2.804618 1_555
Be4 Ta2 2.825458 1_555
Be4 Ta1 2.825458 1_555
Ga0 Zn0 2.501301 1_445
Ga0 Ta0 2.774037 1_545
Ga0 Ta0 2.774041 1_555
Ga0 Ta1 2.778642 1_555
Ga0 Ta1 2.823196 1_455
Ga0 Ta1 2.823199 1_445
Ga0 Ta0 2.839256 1_445
Ga1 Zn0 2.501301 1_444
Ga1 Ta3 2.774037 1_545
Ga1 Ta3 2.774041 1_555
Ga1 Ta2 2.778642 1_554
Ga1 Ta2 2.823196 1_454
Ga1 Ta2 2.823199 1_444
Ga1 Ta3 2.839256 1_445
