# generated using pymatgen
data_Mn4VSi2Os
_symmetry_space_group_name_H-M   'P 1'
_cell_length_a   6.99879749
_cell_length_b   6.99879822
_cell_length_c   6.99879789
_cell_angle_alpha   33.51244599
_cell_angle_beta   33.51243708
_cell_angle_gamma   33.51245313
_symmetry_Int_Tables_number   1
_chemical_formula_structural   Mn4VSi2Os
_chemical_formula_sum   'Mn4 V1 Si2 Os1'
_cell_volume   93.07761282
_cell_formula_units_Z   1
loop_
 _symmetry_equiv_pos_site_id
 _symmetry_equiv_pos_as_xyz
  1  'x, y, z'
loop_
 _atom_site_type_symbol
 _atom_site_label
 _atom_site_symmetry_multiplicity
 _atom_site_fract_x
 _atom_site_fract_y
 _atom_site_fract_z
 _atom_site_occupancy
  Mn  Mn0  1  0.00310785  0.00310785  0.00310785  1
  Mn  Mn1  1  0.12422077  0.12422077  0.12422077  1
  Mn  Mn2  1  0.87495976  0.87495976  0.87495976  1
  Mn  Mn3  1  0.37518387  0.37518387  0.37518387  1
  V  V0  1  0.49696726  0.49696726  0.49696726  1
  Si  Si0  1  0.24629395  0.24629395  0.24629395  1
  Si  Si1  1  0.75354375  0.75354375  0.75354375  1
  Os  Os0  1  0.62572280  0.62572280  0.62572280  1
loop_
_geom_bond_atom_site_label_1
_geom_bond_atom_site_label_2
_geom_bond_distance
_geom_bond_site_symmetry_2
Mn0 Mn1 2.397891 1_555
Mn0 Mn3 2.452922 1_554
Mn0 Mn3 2.452922 1_455
Mn0 Mn3 2.452923 1_545
Mn0 Os0 2.487796 1_445
Mn0 Os0 2.487796 1_544
Mn0 Os0 2.487797 1_454
Mn0 Mn2 2.537178 1_444
Mn1 Si0 2.416903 1_555
Mn1 Si1 2.444402 1_445
Mn1 Si1 2.444402 1_544
Mn1 Si1 2.444403 1_454
Mn1 V0 2.457105 1_554
Mn1 V0 2.457106 1_455
Mn1 V0 2.457106 1_545
Mn2 Si1 2.403892 1_555
Mn2 Si0 2.448369 1_665
Mn2 Si0 2.448369 1_566
Mn2 Si0 2.448370 1_656
Mn2 V0 2.492038 1_556
Mn2 V0 2.492038 1_655
Mn2 V0 2.492039 1_565
Mn2 Os0 2.863686 1_556
Mn2 Os0 2.863686 1_655
Mn2 Os0 2.863687 1_565
Mn3 V0 2.411165 1_555
Mn3 Si1 2.494628 1_554
Mn3 Si1 2.494628 1_455
Mn3 Si1 2.494629 1_545
Mn3 Si0 2.551866 1_555
Mn3 Os0 2.848775 1_554
Mn3 Os0 2.848775 1_455
Mn3 Os0 2.848776 1_545
Si0 V0 2.847245 1_554
Si0 V0 2.847245 1_455
Si0 V0 2.847246 1_545
Si1 V0 2.781711 1_556
Si1 V0 2.781711 1_655
Si1 V0 2.781712 1_565
Os0 Si0 2.502269 1_556
Os0 Si0 2.502270 1_655
Os0 Si0 2.502270 1_565
Os0 Si1 2.530701 1_555
Os0 V0 2.549205 1_555
