# generated using pymatgen
data_K2Sr2IrO6
_symmetry_space_group_name_H-M   'P 1'
_cell_length_a   6.94151651
_cell_length_b   6.94152176
_cell_length_c   7.04360357
_cell_angle_alpha   92.37048101
_cell_angle_beta   92.37046272
_cell_angle_gamma   88.58337749
_symmetry_Int_Tables_number   1
_chemical_formula_structural   K2Sr2IrO6
_chemical_formula_sum   'K4 Sr4 Ir2 O12'
_cell_volume   338.72320997
_cell_formula_units_Z   2
loop_
 _symmetry_equiv_pos_site_id
 _symmetry_equiv_pos_as_xyz
  1  'x, y, z'
loop_
 _atom_site_type_symbol
 _atom_site_label
 _atom_site_symmetry_multiplicity
 _atom_site_fract_x
 _atom_site_fract_y
 _atom_site_fract_z
 _atom_site_occupancy
  K  K0  1  0.73831240  0.26168760  1.00000000  1
  K  K1  1  0.25296355  0.74703645  0.50000100  1
  K  K2  1  0.75027005  0.60534103  0.35693969  1
  K  K3  1  0.39465997  0.24972995  0.64306031  1
  Sr  Sr0  1  0.10974338  0.89025562  1.00000000  1
  Sr  Sr1  1  0.61369033  0.74891177  0.86244775  1
  Sr  Sr2  1  0.88875818  0.11124182  0.50000000  1
  Sr  Sr3  1  0.25108723  0.38630967  0.13755325  1
  Ir  Ir0  1  0.49825368  0.99496149  0.24991738  1
  Ir  Ir1  1  0.00503851  0.50174632  0.75008262  1
  O  O0  1  0.56340952  0.26032554  0.30906756  1
  O  O1  1  0.42976246  0.05802758  0.98429852  1
  O  O2  1  0.76565333  0.94086180  0.17461024  1
  O  O3  1  0.27146595  0.57705299  0.82157929  1
  O  O4  1  0.94032166  0.77623848  0.69302825  1
  O  O5  1  0.06932438  0.43021120  0.48940105  1
  O  O6  1  0.42294701  0.72853305  0.17841971  1
  O  O7  1  0.56978880  0.93067662  0.51059895  1
  O  O8  1  0.22376152  0.05967934  0.30697175  1
  O  O9  1  0.73967446  0.43658948  0.69093144  1
  O  O10  1  0.05913920  0.23434567  0.82538976  1
  O  O11  1  0.94197242  0.57023754  0.01570148  1
loop_
_geom_bond_atom_site_label_1
_geom_bond_atom_site_label_2
_geom_bond_distance
_geom_bond_site_symmetry_2
K0 O0 2.536557 1_556
K0 O9 2.536560 1_555
K0 O2 2.587396 1_546
K0 O10 2.587401 1_655
K0 O1 2.591393 1_555
K0 O11 2.591394 1_556
K1 O5 2.566005 1_555
K1 O7 2.566008 1_555
K1 O3 2.594000 1_555
K1 O6 2.594018 1_555
K1 O4 2.607481 1_455
K1 O8 2.607497 1_565
K2 O5 2.653885 1_655
K2 O9 2.675515 1_555
K2 O6 2.689135 1_555
K2 O2 2.712221 1_555
K2 O0 2.753629 1_555
K2 O7 2.758815 1_555
K2 O11 2.794152 1_555
K2 O4 2.887632 1_555
K3 O7 2.653877 1_545
K3 O0 2.675514 1_555
K3 O3 2.689137 1_555
K3 O10 2.712219 1_555
K3 O9 2.753618 1_555
K3 O5 2.758814 1_555
K3 O1 2.794152 1_555
K3 O8 2.887631 1_555
Ir0 O0 1.932184 1_565
Ir0 O7 1.948974 1_555
Ir0 O6 1.973880 1_555
Ir0 O2 1.974390 1_555
Ir0 O1 1.975319 1_564
Ir0 O8 1.999979 1_565
Ir1 O9 1.932186 1_455
Ir1 O5 1.948976 1_555
Ir1 O3 1.973871 1_555
Ir1 O10 1.974399 1_555
Ir1 O11 1.975318 1_456
Ir1 O4 1.999979 1_455
O0 Sr3 2.588710 1_555
O0 Sr2 2.779988 1_555
O1 Sr0 2.542065 1_545
O1 Sr1 2.602635 1_545
O1 Sr3 2.768371 1_556
O2 Sr2 2.654357 1_565
O2 Sr1 2.712537 1_554
O2 Sr0 2.739846 1_654
O3 Sr3 2.646783 1_556
O3 Sr1 2.684108 1_555
O3 Sr0 2.708564 1_555
O4 Sr0 2.525598 1_655
O4 Sr1 2.620025 1_555
O4 Sr2 2.750352 1_565
O5 Sr2 2.576356 1_455
O5 Sr3 2.829100 1_555
O6 Sr1 2.646770 1_554
O6 Sr3 2.684106 1_555
O6 Sr0 2.708566 1_554
O7 Sr2 2.576351 1_565
O7 Sr1 2.829114 1_555
O8 Sr0 2.525607 1_544
O8 Sr3 2.620017 1_555
O8 Sr2 2.750349 1_455
O9 Sr1 2.588717 1_555
O9 Sr2 2.779980 1_555
O10 Sr2 2.654358 1_455
O10 Sr3 2.712538 1_556
O10 Sr0 2.739847 1_545
O11 Sr0 2.542057 1_654
O11 Sr3 2.602631 1_655
O11 Sr1 2.768365 1_554
