# generated using pymatgen
data_KCaPt4
_symmetry_space_group_name_H-M   'P 1'
_cell_length_a   5.44473660
_cell_length_b   5.44473643
_cell_length_c   5.44473694
_cell_angle_alpha   60.00000281
_cell_angle_beta   60.00000387
_cell_angle_gamma   60.00000152
_symmetry_Int_Tables_number   1
_chemical_formula_structural   KCaPt4
_chemical_formula_sum   'K1 Ca1 Pt4'
_cell_volume   114.13416526
_cell_formula_units_Z   1
loop_
 _symmetry_equiv_pos_site_id
 _symmetry_equiv_pos_as_xyz
  1  'x, y, z'
loop_
 _atom_site_type_symbol
 _atom_site_label
 _atom_site_symmetry_multiplicity
 _atom_site_fract_x
 _atom_site_fract_y
 _atom_site_fract_z
 _atom_site_occupancy
  K  K0  1  0.00000000  0.00000000  0.00000000  1
  Ca  Ca0  1  0.25000000  0.25000000  0.25000000  1
  Pt  Pt0  1  0.12537174  0.62487642  0.62487642  1
  Pt  Pt1  1  0.62487642  0.62487642  0.62487642  1
  Pt  Pt2  1  0.62487642  0.62487642  0.12537174  1
  Pt  Pt3  1  0.62487642  0.12537174  0.62487642  1
loop_
_geom_bond_atom_site_label_1
_geom_bond_atom_site_label_2
_geom_bond_distance
_geom_bond_site_symmetry_2
K0 Pt2 3.192545 1_445
K0 Pt0 3.192545 1_544
K0 Pt3 3.192545 1_454
K0 Pt1 3.192547 1_454
K0 Pt1 3.192547 1_544
K0 Pt1 3.192547 1_445
K0 Pt2 3.192549 1_455
K0 Pt0 3.192549 1_554
K0 Pt2 3.192549 1_545
K0 Pt3 3.192550 1_554
K0 Pt0 3.192550 1_545
K0 Pt3 3.192550 1_455
Ca0 Pt2 3.191971 1_545
Ca0 Pt0 3.191971 1_545
Ca0 Pt2 3.191971 1_455
Ca0 Pt3 3.191971 1_455
Ca0 Pt0 3.191971 1_554
Ca0 Pt3 3.191971 1_554
Ca0 Pt1 3.191973 1_545
Ca0 Pt1 3.191973 1_455
Ca0 Pt1 3.191974 1_554
Ca0 Pt2 3.191976 1_555
Ca0 Pt0 3.191976 1_555
Ca0 Pt3 3.191976 1_555
Ca0 K0 3.334207 1_555
Ca0 K0 3.334207 1_565
Ca0 K0 3.334207 1_655
Ca0 K0 3.334207 1_556
Pt0 Pt1 2.719671 1_555
Pt0 Pt3 2.719671 1_555
Pt0 Pt2 2.719672 1_555
Pt0 Pt1 2.725065 1_455
Pt0 Pt3 2.725065 1_465
Pt0 Pt2 2.725065 1_456
Pt1 Pt3 2.719671 1_555
Pt1 Pt2 2.719672 1_555
Pt1 Pt3 2.725065 1_565
Pt1 Pt2 2.725065 1_556
Pt2 Pt3 2.719672 1_555
Pt2 Pt3 2.725065 1_564
