# generated using pymatgen
data_Y8Hg3PbAu8
_symmetry_space_group_name_H-M   'P 1'
_cell_length_a   7.90868122
_cell_length_b   7.90868122
_cell_length_c   7.49488999
_cell_angle_alpha   90.00000000
_cell_angle_beta   90.00000000
_cell_angle_gamma   90.00000000
_symmetry_Int_Tables_number   1
_chemical_formula_structural   Y8Hg3PbAu8
_chemical_formula_sum   'Y8 Hg3 Pb1 Au8'
_cell_volume   468.78467288
_cell_formula_units_Z   1
loop_
 _symmetry_equiv_pos_site_id
 _symmetry_equiv_pos_as_xyz
  1  'x, y, z'
loop_
 _atom_site_type_symbol
 _atom_site_label
 _atom_site_symmetry_multiplicity
 _atom_site_fract_x
 _atom_site_fract_y
 _atom_site_fract_z
 _atom_site_occupancy
  Y  Y0  1  0.83567352  0.16605287  0.50208079  1
  Y  Y1  1  0.16432648  0.83394713  0.50208079  1
  Y  Y2  1  0.33394713  0.33567352  0.99791921  1
  Y  Y3  1  0.66605287  0.66432648  0.99791921  1
  Y  Y4  1  0.67767336  0.67500324  0.50242460  1
  Y  Y5  1  0.32232664  0.32499676  0.50242460  1
  Y  Y6  1  0.17500324  0.82232664  0.99757540  1
  Y  Y7  1  0.82499676  0.17767336  0.99757540  1
  Hg  Hg0  1  0.50000000  0.00000000  0.25000000  1
  Hg  Hg1  1  0.00000000  0.50000000  0.75000000  1
  Hg  Hg2  1  0.50000000  0.00000000  0.75000000  1
  Pb  Pb0  1  0.00000000  0.50000000  0.25000000  1
  Au  Au0  1  0.62182439  0.36786040  0.26240409  1
  Au  Au1  1  0.37817561  0.63213960  0.26240409  1
  Au  Au2  1  0.12924903  0.12624282  0.76189266  1
  Au  Au3  1  0.87075097  0.87375718  0.76189266  1
  Au  Au4  1  0.37375718  0.62924903  0.73810734  1
  Au  Au5  1  0.62624282  0.37075097  0.73810734  1
  Au  Au6  1  0.86786040  0.87817561  0.23759591  1
  Au  Au7  1  0.13213960  0.12182439  0.23759591  1
loop_
_geom_bond_atom_site_label_1
_geom_bond_atom_site_label_2
_geom_bond_distance
_geom_bond_site_symmetry_2
Hg0 Y7 3.487143 1_554
Hg0 Y4 3.487143 1_545
Hg0 Y5 3.487143 1_555
Hg0 Y6 3.487143 1_544
Hg0 Y0 3.513088 1_555
Hg0 Y2 3.513088 1_554
Hg0 Y1 3.513088 1_545
Hg0 Y3 3.513088 1_544
Hg1 Y6 3.443394 1_555
Hg1 Y5 3.443394 1_555
Hg1 Y7 3.443394 1_455
Hg1 Y4 3.443394 1_455
Hg1 Y2 3.480937 1_555
Hg1 Y1 3.480937 1_555
Hg1 Y3 3.480937 1_455
Hg1 Y0 3.480937 1_455
Hg2 Y7 3.467559 1_555
Hg2 Y4 3.467559 1_545
Hg2 Y6 3.467559 1_545
Hg2 Y5 3.467559 1_555
Hg2 Y2 3.496413 1_555
Hg2 Y0 3.496413 1_555
Hg2 Y3 3.496413 1_545
Hg2 Y1 3.496413 1_545
Pb0 Y5 3.463114 1_555
Pb0 Y6 3.463114 1_554
Pb0 Y4 3.463114 1_455
Pb0 Y7 3.463114 1_454
Pb0 Y1 3.497686 1_555
Pb0 Y2 3.497686 1_554
Pb0 Y0 3.497686 1_455
Pb0 Y3 3.497686 1_454
Au0 Au1 2.842819 1_555
Au0 Y0 2.938463 1_555
Au0 Y7 2.963776 1_554
Au0 Y5 2.993572 1_555
Au0 Y2 3.029480 1_554
Au0 Y4 3.054788 1_555
Au0 Hg0 3.066087 1_555
Au0 Y3 3.090181 1_554
Au0 Pb0 3.169555 1_655
Au1 Y1 2.938463 1_555
Au1 Y6 2.963776 1_554
Au1 Y4 2.993572 1_555
Au1 Y3 3.029480 1_554
Au1 Y5 3.054788 1_555
Au1 Hg0 3.066087 1_565
Au1 Y2 3.090181 1_554
Au1 Pb0 3.169555 1_555
Au2 Au3 2.857763 1_445
Au2 Y2 2.914369 1_555
Au2 Y5 2.929899 1_555
Au2 Y6 3.004720 1_545
Au2 Y7 3.012579 1_455
Au2 Y1 3.035230 1_545
Au2 Y0 3.046586 1_455
Au2 Hg2 3.098756 1_555
Au2 Hg1 3.128948 1_555
Au3 Y3 2.914369 1_555
Au3 Y4 2.929899 1_555
Au3 Y7 3.004720 1_565
Au3 Y6 3.012579 1_655
Au3 Y0 3.035230 1_565
Au3 Y1 3.046586 1_655
Au3 Hg2 3.098756 1_565
Au3 Hg1 3.128948 1_655
Au4 Au5 2.857763 1_555
Au4 Y1 2.914369 1_555
Au4 Y6 2.929899 1_555
Au4 Y4 3.004720 1_555
Au4 Y5 3.012579 1_555
Au4 Y3 3.035230 1_555
Au4 Y2 3.046586 1_555
Au4 Hg2 3.098756 1_565
Au4 Hg1 3.128948 1_555
Au5 Y0 2.914369 1_555
Au5 Y7 2.929899 1_555
Au5 Y5 3.004720 1_555
Au5 Y4 3.012579 1_555
Au5 Y2 3.035230 1_555
Au5 Y3 3.046586 1_555
Au5 Hg2 3.098756 1_555
Au5 Hg1 3.128948 1_655
Au6 Au7 2.842819 1_665
Au6 Y3 2.938463 1_554
Au6 Y4 2.963776 1_555
Au6 Y7 2.993572 1_564
Au6 Y0 3.029480 1_565
Au6 Y6 3.054788 1_654
Au6 Hg0 3.066087 1_565
Au6 Y1 3.090181 1_655
Au6 Pb0 3.169555 1_655
Au7 Y2 2.938463 1_554
Au7 Y5 2.963776 1_555
Au7 Y6 2.993572 1_544
Au7 Y1 3.029480 1_545
Au7 Y7 3.054788 1_454
Au7 Hg0 3.066087 1_555
Au7 Y0 3.090181 1_455
Au7 Pb0 3.169555 1_555
