# generated using pymatgen
data_Li13(Ga7Cu2)3
_symmetry_space_group_name_H-M   'P 1'
_cell_length_a   11.66028189
_cell_length_b   11.66028189
_cell_length_c   11.66028189
_cell_angle_alpha   109.47122063
_cell_angle_beta   109.47122063
_cell_angle_gamma   109.47122063
_symmetry_Int_Tables_number   1
_chemical_formula_structural   Li13(Ga7Cu2)3
_chemical_formula_sum   'Li26 Ga42 Cu12'
_cell_volume   1220.40859835
_cell_formula_units_Z   2
loop_
 _symmetry_equiv_pos_site_id
 _symmetry_equiv_pos_as_xyz
  1  'x, y, z'
loop_
 _atom_site_type_symbol
 _atom_site_label
 _atom_site_symmetry_multiplicity
 _atom_site_fract_x
 _atom_site_fract_y
 _atom_site_fract_z
 _atom_site_occupancy
  Li  Li0  1  0.79463449  0.29463449  0.50000000  1
  Li  Li1  1  0.50000000  0.20536551  0.70536551  1
  Li  Li2  1  0.29463449  0.50000000  0.79463449  1
  Li  Li3  1  0.50000000  0.79463449  0.29463449  1
  Li  Li4  1  0.70536551  0.50000000  0.20536551  1
  Li  Li5  1  0.20536551  0.70536551  0.50000000  1
  Li  Li6  1  0.00000000  0.00000000  0.62708155  1
  Li  Li7  1  -0.00000000  0.62708155  0.00000000  1
  Li  Li8  1  0.37291845  0.37291845  0.37291845  1
  Li  Li9  1  0.62708155  -0.00000000  -0.00000000  1
  Li  Li10  1  -0.00000000  -0.00000000  0.37291845  1
  Li  Li11  1  0.00000000  0.37291845  -0.00000000  1
  Li  Li12  1  0.62708155  0.62708155  0.62708155  1
  Li  Li13  1  0.37291845  0.00000000  0.00000000  1
  Li  Li14  1  0.58033725  0.69590611  0.88443113  1
  Li  Li15  1  0.88443113  0.18852502  0.30409389  1
  Li  Li16  1  0.69590611  0.11556887  0.81147598  1
  Li  Li17  1  0.11556887  0.81147598  0.69590611  1
  Li  Li18  1  0.30409389  0.11556887  0.41966275  1
  Li  Li19  1  0.88443113  0.58033725  0.69590611  1
  Li  Li20  1  0.69590611  0.88443113  0.58033725  1
  Li  Li21  1  0.30409389  0.88443113  0.18852402  1
  Li  Li22  1  0.11556887  0.41966275  0.30409389  1
  Li  Li23  1  0.81147498  0.69590611  0.11556887  1
  Li  Li24  1  0.41966275  0.30409389  0.11556887  1
  Li  Li25  1  0.18852502  0.30409389  0.88443113  1
  Ga  Ga0  1  0.09322769  0.50000000  0.59322769  1
  Ga  Ga1  1  0.59322769  0.09322769  0.50000000  1
  Ga  Ga2  1  0.50000000  0.40677231  0.90677231  1
  Ga  Ga3  1  0.40677231  0.90677231  0.50000000  1
  Ga  Ga4  1  0.50000000  0.59322769  0.09322769  1
  Ga  Ga5  1  0.90677231  0.50000000  0.40677231  1
  Ga  Ga6  1  0.09695204  0.15936498  0.25631702  1
  Ga  Ga7  1  0.93758607  0.09695204  0.84063502  1
  Ga  Ga8  1  0.84063502  0.74368298  0.90304796  1
  Ga  Ga9  1  0.74368298  0.90304796  0.84063502  1
  Ga  Ga10  1  0.15936498  0.06241393  0.90304796  1
  Ga  Ga11  1  0.25631702  0.09695204  0.15936498  1
  Ga  Ga12  1  0.15936498  0.25631702  0.09695204  1
  Ga  Ga13  1  0.84063502  0.93758607  0.09695204  1
  Ga  Ga14  1  0.06241393  0.90304796  0.15936498  1
  Ga  Ga15  1  0.90304796  0.84063502  0.74368298  1
  Ga  Ga16  1  0.90304796  0.15936498  0.06241393  1
  Ga  Ga17  1  0.09695204  0.84063502  0.93758607  1
  Ga  Ga18  1  0.03048632  0.24632910  0.59471954  1
  Ga  Ga19  1  0.78415722  0.34839144  0.75367090  1
  Ga  Ga20  1  0.43576678  0.40528046  0.65160856  1
  Ga  Ga21  1  0.40528046  0.65160856  0.43576678  1
  Ga  Ga22  1  0.56423322  0.21584278  0.96951368  1
  Ga  Ga23  1  0.59471954  0.03048632  0.24632910  1
  Ga  Ga24  1  0.24632910  0.59471954  0.03048632  1
  Ga  Ga25  1  0.75367090  0.78415722  0.34839144  1
  Ga  Ga26  1  0.21584278  0.96951368  0.56423322  1
  Ga  Ga27  1  0.65160856  0.43576678  0.40528046  1
  Ga  Ga28  1  0.96951368  0.56423322  0.21584278  1
  Ga  Ga29  1  0.34839144  0.75367090  0.78415722  1
  Ga  Ga30  1  0.96951368  0.75367090  0.40528046  1
  Ga  Ga31  1  0.21584278  0.65160856  0.24632910  1
  Ga  Ga32  1  0.56423322  0.59471954  0.34839144  1
  Ga  Ga33  1  0.59471954  0.34839144  0.56423322  1
  Ga  Ga34  1  0.43576678  0.78415722  0.03048632  1
  Ga  Ga35  1  0.40528046  0.96951368  0.75367090  1
  Ga  Ga36  1  0.75367090  0.40528046  0.96951368  1
  Ga  Ga37  1  0.24632910  0.21584278  0.65160856  1
  Ga  Ga38  1  0.78415722  0.03048632  0.43576678  1
  Ga  Ga39  1  0.34839144  0.56423322  0.59471954  1
  Ga  Ga40  1  0.03048632  0.43576678  0.78415722  1
  Ga  Ga41  1  0.65160856  0.24632910  0.21584278  1
  Cu  Cu0  1  0.17799096  0.31762546  0.49561643  1
  Cu  Cu1  1  0.86036650  0.17799096  0.68237454  1
  Cu  Cu2  1  0.68237454  0.50438357  0.82200904  1
  Cu  Cu3  1  0.50438357  0.82200904  0.68237454  1
  Cu  Cu4  1  0.31762546  0.13963350  0.82200904  1
  Cu  Cu5  1  0.49561643  0.17799096  0.31762546  1
  Cu  Cu6  1  0.31762546  0.49561643  0.17799096  1
  Cu  Cu7  1  0.68237454  0.86036650  0.17799096  1
  Cu  Cu8  1  0.13963350  0.82200904  0.31762546  1
  Cu  Cu9  1  0.82200904  0.68237454  0.50438357  1
  Cu  Cu10  1  0.82200904  0.31762546  0.13963350  1
  Cu  Cu11  1  0.17799096  0.68237454  0.86036650  1
loop_
_geom_bond_atom_site_label_1
_geom_bond_atom_site_label_2
_geom_bond_distance
_geom_bond_site_symmetry_2
Li0 Li15 2.901596 1_555
Li0 Li19 2.901596 1_555
Li1 Li18 2.901596 1_555
Li1 Li16 2.901599 1_555
Li2 Li25 2.901596 1_555
Li10 Li6 2.963613 1_555
Li10 Li23 3.118056 1_445
Li10 Li15 3.118056 1_455
Li10 Li18 3.118056 1_555
Li11 Li7 2.963613 1_555
Li11 Li16 3.118056 1_454
Li11 Li25 3.118056 1_554
Li11 Li22 3.118056 1_555
Li12 Li8 2.963613 1_555
Li12 Li14 3.118056 1_555
Li12 Li19 3.118056 1_555
Li12 Li20 3.118056 1_555
Li13 Li9 2.963613 1_555
Li13 Li21 3.118045 1_545
Li13 Li17 3.118056 1_544
Li13 Li24 3.118056 1_555
Li14 Li2 2.901596 1_555
Li14 Li9 3.118056 1_566
Li15 Li9 3.118056 1_555
Li16 Li9 3.118045 1_556
Li17 Li5 2.901599 1_555
Li17 Li6 3.118045 1_565
Li18 Li8 3.118056 1_555
Li19 Li7 3.118056 1_656
Li20 Li3 2.901596 1_555
Li20 Li6 3.118056 1_665
Li21 Li3 2.901599 1_555
Li21 Li7 3.118056 1_555
Li22 Li5 2.901596 1_555
Li22 Li8 3.118056 1_555
Li23 Li4 2.901596 1_555
Li23 Li7 3.118056 1_655
Li24 Li4 2.901596 1_555
Li24 Li8 3.118056 1_555
Li25 Li6 3.118056 1_555
Ga0 Ga5 2.510460 1_455
Ga0 Li2 2.711768 1_555
Ga0 Ga40 2.807971 1_555
Ga0 Ga18 2.807971 1_555
Ga0 Ga29 2.807976 1_555
Ga0 Ga39 2.807983 1_555
Ga0 Li5 3.036644 1_555
Ga0 Li0 3.036644 1_455
Ga1 Ga3 2.510460 1_545
Ga1 Li0 2.711768 1_555
Ga1 Ga38 2.807971 1_555
Ga1 Ga23 2.807971 1_555
Ga1 Ga19 2.807976 1_555
Ga1 Ga33 2.807983 1_555
Ga1 Li1 3.036644 1_555
Ga1 Li3 3.036644 1_545
Ga2 Ga4 2.510460 1_556
Ga2 Li1 2.711768 1_555
Ga2 Ga36 2.807971 1_555
Ga2 Ga22 2.807971 1_555
Ga2 Ga37 2.807976 1_555
Ga2 Ga20 2.807983 1_555
Ga2 Li2 3.036644 1_555
Ga2 Li4 3.036644 1_556
Ga3 Li5 2.711768 1_555
Ga3 Ga35 2.807971 1_555
Ga3 Ga31 2.807976 1_555
Ga3 Li3 3.036644 1_555
Ga3 Li1 3.036644 1_565
Ga4 Li3 2.711768 1_555
Ga4 Li4 3.036644 1_555
Ga4 Li2 3.036644 1_554
Ga5 Li4 2.711768 1_555
Ga5 Li0 3.036644 1_555
Ga5 Li5 3.036644 1_655
Ga6 Li10 2.808577 1_555
Ga6 Li8 2.808577 1_555
Ga6 Li22 2.814690 1_555
Ga6 Li15 2.814691 1_455
Ga6 Li18 2.850642 1_555
Ga7 Ga9 2.610744 1_545
Ga7 Li11 2.808573 1_656
Ga7 Li6 2.808585 1_655
Ga7 Li16 2.814681 1_555
Ga7 Li20 2.814687 1_545
Ga7 Li25 2.850650 1_655
Ga8 Ga9 2.648442 1_555
Ga8 Li7 2.808577 1_656
Ga8 Li12 2.808577 1_555
Ga8 Li14 2.814690 1_555
Ga8 Li23 2.814691 1_556
Ga8 Li19 2.850642 1_555
Ga9 Li12 2.808577 1_555
Ga9 Li9 2.808577 1_566
Ga9 Li16 2.814687 1_565
Ga9 Li20 2.814690 1_555
Ga9 Li14 2.850642 1_555
Ga10 Ga12 2.610744 1_556
Ga10 Ga15 2.648447 1_445
Ga10 Ga11 2.648447 1_556
Ga10 Ga7 2.648447 1_455
Ga10 Ga17 2.648447 1_545
Ga10 Li6 2.808573 1_555
Ga10 Li13 2.808585 1_556
Ga10 Li25 2.814679 1_555
Ga10 Li24 2.814687 1_556
Ga10 Li17 2.850642 1_545
Ga11 Ga14 2.610744 1_545
Ga11 Ga6 2.648442 1_555
Ga11 Ga12 2.648442 1_555
Ga11 Ga17 2.648447 1_544
Ga11 Li8 2.808577 1_555
Ga11 Li13 2.808577 1_555
Ga11 Li21 2.814687 1_545
Ga11 Li18 2.814690 1_555
Ga11 Li24 2.850642 1_555
Ga12 Ga6 2.648442 1_555
Ga12 Ga16 2.648447 1_455
Ga12 Ga7 2.648447 1_454
Ga12 Li8 2.808577 1_555
Ga12 Li11 2.808577 1_555
Ga12 Li24 2.814690 1_555
Ga12 Li25 2.814691 1_554
Ga12 Li22 2.850642 1_555
Ga13 Ga8 2.610744 1_554
Ga13 Ga6 2.648447 1_665
Ga13 Ga9 2.648447 1_554
Ga13 Ga14 2.648447 1_655
Ga13 Ga16 2.648447 1_565
Ga13 Li10 2.808573 1_665
Ga13 Li9 2.808585 1_565
Ga13 Li23 2.814679 1_555
Ga13 Li14 2.814687 1_554
Ga13 Li15 2.850650 1_565
Ga14 Ga8 2.648447 1_454
Ga14 Ga6 2.648447 1_565
Ga14 Ga17 2.648447 1_554
Ga14 Li7 2.808573 1_555
Ga14 Li10 2.808585 1_565
Ga14 Li21 2.814681 1_555
Ga14 Li18 2.814687 1_565
Ga14 Li23 2.850650 1_455
Ga15 Ga17 2.610744 1_655
Ga15 Ga9 2.648442 1_555
Ga15 Ga8 2.648442 1_555
Ga15 Ga7 2.648447 1_565
Ga15 Li12 2.808577 1_555
Ga15 Li6 2.808577 1_665
Ga15 Li17 2.814687 1_655
Ga15 Li19 2.814690 1_555
Ga15 Li20 2.850642 1_555
Ga16 Ga6 2.610744 1_655
Ga16 Ga9 2.648447 1_544
Ga16 Ga7 2.648447 1_554
Ga16 Li9 2.808573 1_555
Ga16 Li11 2.808585 1_655
Ga16 Li15 2.814679 1_555
Ga16 Li22 2.814687 1_655
Ga16 Li16 2.850642 1_554
Ga17 Ga8 2.648447 1_455
Ga17 Li13 2.808573 1_566
Ga17 Li7 2.808585 1_556
Ga17 Li17 2.814681 1_555
Ga17 Li19 2.814687 1_455
Ga17 Li21 2.850642 1_556
Ga18 Ga40 2.550614 1_555
Ga18 Ga38 2.557589 1_455
Ga18 Ga37 2.557589 1_555
Ga18 Li2 2.865794 1_555
Ga18 Li0 2.919351 1_455
Ga18 Li6 2.941085 1_555
Ga18 Li15 2.950086 1_455
Ga18 Li25 2.960868 1_555
Ga18 Li10 2.969706 1_555
Ga19 Ga33 2.550614 1_555
Ga19 Ga40 2.557589 1_655
Ga19 Ga36 2.557589 1_555
Ga19 Li0 2.865793 1_555
Ga19 Li1 2.919353 1_555
Ga19 Li7 2.941079 1_656
Ga19 Li16 2.950103 1_555
Ga19 Li19 2.960858 1_555
Ga19 Li11 2.969712 1_656
Ga20 Ga37 2.550614 1_555
Ga20 Ga39 2.557578 1_555
Ga20 Ga33 2.557578 1_555
Ga20 Li1 2.865799 1_555
Ga20 Li2 2.919358 1_555
Ga20 Li8 2.941074 1_555
Ga20 Li14 2.950090 1_555
Ga20 Li18 2.960864 1_555
Ga20 Li12 2.969698 1_555
Ga21 Ga31 2.550614 1_555
Ga21 Ga32 2.557578 1_555
Ga21 Ga39 2.557578 1_555
Ga21 Ga3 2.807983 1_555
Ga21 Li5 2.865799 1_555
Ga21 Li3 2.919358 1_555
Ga21 Li8 2.941074 1_555
Ga21 Li20 2.950090 1_555
Ga21 Li22 2.960864 1_555
Ga21 Li12 2.969698 1_555
Ga22 Ga36 2.550614 1_555
Ga22 Ga35 2.557589 1_545
Ga22 Ga41 2.557589 1_556
Ga22 Li1 2.865794 1_555
Ga22 Li4 2.919351 1_556
Ga22 Li9 2.941085 1_556
Ga22 Li24 2.950086 1_556
Ga22 Li16 2.960860 1_555
Ga22 Li13 2.969706 1_556
Ga23 Ga38 2.550614 1_555
Ga23 Ga34 2.557589 1_545
Ga23 Ga41 2.557589 1_555
Ga23 Li0 2.865794 1_555
Ga23 Li3 2.919351 1_545
Ga23 Li9 2.941085 1_555
Ga23 Li21 2.950082 1_545
Ga23 Li15 2.960868 1_555
Ga23 Li13 2.969706 1_555
Ga24 Ga34 2.550614 1_555
Ga24 Ga40 2.557589 1_554
Ga24 Ga31 2.557589 1_555
Ga24 Ga4 2.807971 1_555
Ga24 Li3 2.865794 1_555
Ga24 Li2 2.919351 1_554
Ga24 Li7 2.941085 1_555
Ga24 Li25 2.950086 1_554
Ga24 Li21 2.960866 1_555
Ga24 Li11 2.969706 1_555
Ga25 Ga32 2.550614 1_555
Ga25 Ga38 2.557589 1_565
Ga25 Ga30 2.557589 1_555
Ga25 Ga4 2.807976 1_555
Ga25 Li3 2.865793 1_555
Ga25 Li4 2.919353 1_555
Ga25 Li6 2.941079 1_665
Ga25 Li23 2.950096 1_555
Ga25 Li20 2.960858 1_555
Ga25 Li10 2.969712 1_665
Ga26 Ga35 2.550614 1_555
Ga26 Ga30 2.557589 1_455
Ga26 Ga37 2.557589 1_565
Ga26 Ga3 2.807971 1_555
Ga26 Li5 2.865794 1_555
Ga26 Li1 2.919351 1_565
Ga26 Li6 2.941085 1_565
Ga26 Li18 2.950086 1_565
Ga26 Li17 2.960860 1_555
Ga26 Li10 2.969706 1_565
Ga27 Ga41 2.550614 1_555
Ga27 Ga33 2.557578 1_555
Ga27 Ga32 2.557578 1_555
Ga27 Ga5 2.807983 1_555
Ga27 Li4 2.865799 1_555
Ga27 Li0 2.919358 1_555
Ga27 Li8 2.941074 1_555
Ga27 Li19 2.950090 1_555
Ga27 Li24 2.960864 1_555
Ga27 Li12 2.969698 1_555
Ga28 Ga30 2.550614 1_555
Ga28 Ga36 2.557589 1_554
Ga28 Ga31 2.557589 1_655
Ga28 Ga5 2.807971 1_555
Ga28 Li4 2.865794 1_555
Ga28 Li5 2.919351 1_655
Ga28 Li7 2.941085 1_655
Ga28 Li22 2.950086 1_655
Ga28 Li23 2.960868 1_555
Ga28 Li11 2.969706 1_655
Ga29 Ga39 2.550614 1_555
Ga29 Ga34 2.557589 1_556
Ga29 Ga35 2.557589 1_555
Ga29 Li2 2.865793 1_555
Ga29 Li5 2.919353 1_555
Ga29 Li9 2.941079 1_566
Ga29 Li17 2.950103 1_555
Ga29 Li14 2.960858 1_555
Ga29 Li13 2.969712 1_566
Ga30 Ga5 2.807971 1_555
Ga30 Li4 2.865794 1_555
Ga30 Li5 2.919351 1_655
Ga30 Li10 2.941085 1_665
Ga30 Li17 2.950082 1_655
Ga30 Li23 2.960868 1_555
Ga30 Li6 2.969706 1_665
Ga31 Li5 2.865793 1_555
Ga31 Li3 2.919353 1_555
Ga31 Li11 2.941079 1_555
Ga31 Li21 2.950103 1_555
Ga31 Li22 2.960858 1_555
Ga31 Li7 2.969712 1_555
Ga32 Ga4 2.807983 1_555
Ga32 Li3 2.865799 1_555
Ga32 Li4 2.919358 1_555
Ga32 Li12 2.941074 1_555
Ga32 Li24 2.950090 1_555
Ga32 Li20 2.960864 1_555
Ga32 Li8 2.969698 1_555
Ga33 Li0 2.865799 1_555
Ga33 Li1 2.919358 1_555
Ga33 Li12 2.941074 1_555
Ga33 Li18 2.950090 1_555
Ga33 Li19 2.960864 1_555
Ga33 Li8 2.969698 1_555
Ga34 Ga4 2.807971 1_555
Ga34 Li3 2.865794 1_555
Ga34 Li2 2.919351 1_554
Ga34 Li13 2.941085 1_565
Ga34 Li14 2.950086 1_554
Ga34 Li21 2.960860 1_555
Ga34 Li9 2.969706 1_565
Ga35 Li5 2.865794 1_555
Ga35 Li1 2.919351 1_565
Ga35 Li13 2.941085 1_566
Ga35 Li16 2.950082 1_565
Ga35 Li17 2.960866 1_555
Ga35 Li9 2.969706 1_566
Ga36 Li1 2.865794 1_555
Ga36 Li4 2.919351 1_556
Ga36 Li11 2.941085 1_656
Ga36 Li23 2.950086 1_556
Ga36 Li16 2.960866 1_555
Ga36 Li7 2.969706 1_656
Ga37 Li1 2.865793 1_555
Ga37 Li2 2.919353 1_555
Ga37 Li10 2.941079 1_555
Ga37 Li25 2.950096 1_555
Ga37 Li18 2.960858 1_555
Ga37 Li6 2.969712 1_555
Ga38 Li0 2.865794 1_555
Ga38 Li3 2.919351 1_545
Ga38 Li10 2.941085 1_655
Ga38 Li20 2.950086 1_545
Ga38 Li15 2.960868 1_555
Ga38 Li6 2.969706 1_655
Ga39 Li2 2.865799 1_555
Ga39 Li5 2.919358 1_555
Ga39 Li12 2.941074 1_555
Ga39 Li22 2.950090 1_555
Ga39 Li14 2.960864 1_555
Ga39 Li8 2.969698 1_555
Ga40 Li2 2.865794 1_555
Ga40 Li0 2.919351 1_455
Ga40 Li11 2.941085 1_556
Ga40 Li19 2.950086 1_455
Ga40 Li25 2.960868 1_555
Ga40 Li7 2.969706 1_556
Ga41 Ga5 2.807976 1_555
Ga41 Li4 2.865793 1_555
Ga41 Li0 2.919353 1_555
Ga41 Li13 2.941079 1_555
Ga41 Li15 2.950096 1_555
Ga41 Li24 2.960858 1_555
Ga41 Li9 2.969712 1_555
Cu0 Ga6 2.393955 1_555
Cu0 Ga18 2.448856 1_555
Cu0 Ga39 2.448859 1_555
Cu0 Ga37 2.540725 1_555
Cu0 Ga20 2.540731 1_555
Cu0 Ga0 2.707774 1_555
Cu0 Li22 2.863149 1_555
Cu0 Li15 2.863149 1_455
Cu0 Li2 2.914796 1_555
Cu0 Li10 3.071574 1_555
Cu0 Li8 3.071574 1_555
Cu0 Li18 3.206862 1_555
Cu1 Ga7 2.393949 1_555
Cu1 Ga38 2.448853 1_555
Cu1 Ga19 2.448874 1_555
Cu1 Ga18 2.540724 1_655
Cu1 Ga40 2.540731 1_655
Cu1 Ga1 2.707783 1_555
Cu1 Li20 2.863150 1_545
Cu1 Li16 2.863167 1_555
Cu1 Li0 2.914798 1_555
Cu1 Li6 3.071564 1_655
Cu1 Li11 3.071575 1_656
Cu1 Li25 3.206853 1_655
Cu2 Ga8 2.393955 1_555
Cu2 Ga36 2.448856 1_555
Cu2 Ga20 2.448859 1_555
Cu2 Ga19 2.540725 1_555
Cu2 Ga33 2.540731 1_555
Cu2 Ga2 2.707774 1_555
Cu2 Li14 2.863149 1_555
Cu2 Li23 2.863149 1_556
Cu2 Li1 2.914796 1_555
Cu2 Li7 3.071574 1_656
Cu2 Li12 3.071574 1_555
Cu2 Li19 3.206862 1_555
Cu3 Ga9 2.393955 1_555
Cu3 Ga35 2.448856 1_555
Cu3 Ga21 2.448859 1_555
Cu3 Ga29 2.540725 1_555
Cu3 Ga39 2.540731 1_555
Cu3 Ga3 2.707774 1_555
Cu3 Li16 2.863147 1_565
Cu3 Li20 2.863149 1_555
Cu3 Li5 2.914796 1_555
Cu3 Li9 3.071574 1_566
Cu3 Li12 3.071574 1_555
Cu3 Li14 3.206862 1_555
Cu4 Ga10 2.393949 1_555
Cu4 Ga22 2.448853 1_555
Cu4 Ga37 2.448874 1_555
Cu4 Ga35 2.540724 1_545
Cu4 Ga26 2.540731 1_545
Cu4 Ga2 2.707783 1_555
Cu4 Li24 2.863150 1_556
Cu4 Li25 2.863158 1_555
Cu4 Li1 2.914798 1_555
Cu4 Li13 3.071564 1_556
Cu4 Li6 3.071575 1_555
Cu4 Li17 3.206843 1_545
Cu5 Ga11 2.393955 1_555
Cu5 Ga23 2.448856 1_555
Cu5 Ga33 2.448859 1_555
Cu5 Ga41 2.540725 1_555
Cu5 Ga27 2.540731 1_555
Cu5 Ga1 2.707774 1_555
Cu5 Li21 2.863147 1_545
Cu5 Li18 2.863149 1_555
Cu5 Li0 2.914796 1_555
Cu5 Li13 3.071574 1_555
Cu5 Li8 3.071574 1_555
Cu5 Li24 3.206862 1_555
Cu6 Ga12 2.393955 1_555
Cu6 Ga24 2.448856 1_555
Cu6 Ga32 2.448859 1_555
Cu6 Ga31 2.540725 1_555
Cu6 Ga21 2.540731 1_555
Cu6 Ga4 2.707774 1_555
Cu6 Li24 2.863149 1_555
Cu6 Li25 2.863149 1_554
Cu6 Li3 2.914796 1_555
Cu6 Li11 3.071574 1_555
Cu6 Li8 3.071574 1_555
Cu6 Li22 3.206862 1_555
Cu7 Ga13 2.393949 1_555
Cu7 Ga34 2.448853 1_555
Cu7 Ga25 2.448874 1_555
Cu7 Ga23 2.540724 1_565
Cu7 Ga38 2.540731 1_565
Cu7 Ga4 2.707783 1_555
Cu7 Li14 2.863150 1_554
Cu7 Li23 2.863158 1_555
Cu7 Li3 2.914798 1_555
Cu7 Li9 3.071564 1_565
Cu7 Li10 3.071575 1_665
Cu7 Li15 3.206853 1_565
Cu8 Ga14 2.393949 1_555
Cu8 Ga26 2.448853 1_555
Cu8 Ga31 2.448874 1_555
Cu8 Ga30 2.540724 1_455
Cu8 Ga28 2.540731 1_455
Cu8 Ga3 2.707783 1_555
Cu8 Li18 2.863150 1_565
Cu8 Li21 2.863167 1_555
Cu8 Li5 2.914798 1_555
Cu8 Li10 3.071564 1_565
Cu8 Li7 3.071575 1_555
Cu8 Li23 3.206853 1_455
Cu9 Ga15 2.393955 1_555
Cu9 Ga30 2.448856 1_555
Cu9 Ga27 2.448859 1_555
Cu9 Ga25 2.540725 1_555
Cu9 Ga32 2.540731 1_555
Cu9 Ga5 2.707774 1_555
Cu9 Li17 2.863147 1_655
Cu9 Li19 2.863149 1_555
Cu9 Li4 2.914796 1_555
Cu9 Li6 3.071574 1_665
Cu9 Li12 3.071574 1_555
Cu9 Li20 3.206862 1_555
Cu10 Ga16 2.393949 1_555
Cu10 Ga28 2.448853 1_555
Cu10 Ga41 2.448874 1_555
Cu10 Ga36 2.540724 1_554
Cu10 Ga22 2.540731 1_554
Cu10 Ga5 2.707783 1_555
Cu10 Li22 2.863150 1_655
Cu10 Li15 2.863158 1_555
Cu10 Li4 2.914798 1_555
Cu10 Li11 3.071564 1_655
Cu10 Li9 3.071575 1_555
Cu10 Li16 3.206843 1_554
Cu11 Ga17 2.393949 1_555
Cu11 Ga40 2.448853 1_555
Cu11 Ga29 2.448874 1_555
Cu11 Ga24 2.540724 1_556
Cu11 Ga34 2.540731 1_556
Cu11 Ga0 2.707783 1_555
Cu11 Li19 2.863150 1_455
Cu11 Li17 2.863167 1_555
Cu11 Li2 2.914798 1_555
Cu11 Li7 3.071564 1_556
Cu11 Li13 3.071575 1_566
Cu11 Li21 3.206843 1_556
