# generated using pymatgen
data_Y12B3CCl12
_symmetry_space_group_name_H-M   'P 1'
_cell_length_a   9.35910933
_cell_length_b   9.35910898
_cell_length_c   9.35910923
_cell_angle_alpha   109.35781983
_cell_angle_beta   109.35781410
_cell_angle_gamma   109.35781910
_symmetry_Int_Tables_number   1
_chemical_formula_structural   Y12B3CCl12
_chemical_formula_sum   'Y12 B3 C1 Cl12'
_cell_volume   633.71178727
_cell_formula_units_Z   1
loop_
 _symmetry_equiv_pos_site_id
 _symmetry_equiv_pos_as_xyz
  1  'x, y, z'
loop_
 _atom_site_type_symbol
 _atom_site_label
 _atom_site_symmetry_multiplicity
 _atom_site_fract_x
 _atom_site_fract_y
 _atom_site_fract_z
 _atom_site_occupancy
  Y  Y0  1  0.46637494  0.48052960  0.23485613  1
  Y  Y1  1  0.75000000  0.23594714  0.26405286  1
  Y  Y2  1  0.75000000  0.01459460  0.48540540  1
  Y  Y3  1  0.23485613  0.46637494  0.48052960  1
  Y  Y4  1  0.26405286  0.75000000  0.23594714  1
  Y  Y5  1  0.03362506  0.26514387  0.01947040  1
  Y  Y6  1  0.01947040  0.03362506  0.26514387  1
  Y  Y7  1  0.48540540  0.75000000  0.01459460  1
  Y  Y8  1  0.48052960  0.23485613  0.46637494  1
  Y  Y9  1  0.01459460  0.48540540  0.75000000  1
  Y  Y10  1  0.26514387  0.01947040  0.03362506  1
  Y  Y11  1  0.23594714  0.26405286  0.75000000  1
  B  B0  1  0.49889339  0.00110661  0.25000000  1
  B  B1  1  0.00110661  0.25000000  0.49889339  1
  B  B2  1  0.25000000  0.49889339  0.00110661  1
  C  C0  1  0.25000000  0.25000000  0.25000000  1
  Cl  Cl0  1  0.25000000  0.75692626  0.74307374  1
  Cl  Cl1  1  0.51313614  0.50608932  0.75380300  1
  Cl  Cl2  1  0.98686386  0.74619700  0.99391068  1
  Cl  Cl3  1  0.74307374  0.25000000  0.75692626  1
  Cl  Cl4  1  0.99391068  0.98686386  0.74619700  1
  Cl  Cl5  1  0.25000000  0.99380358  0.50619642  1
  Cl  Cl6  1  0.75380300  0.51313614  0.50608932  1
  Cl  Cl7  1  0.50619642  0.25000000  0.99380358  1
  Cl  Cl8  1  0.75692626  0.74307374  0.25000000  1
  Cl  Cl9  1  0.74619700  0.99391068  0.98686386  1
  Cl  Cl10  1  0.99380358  0.50619642  0.25000000  1
  Cl  Cl11  1  0.50608932  0.75380300  0.51313614  1
loop_
_geom_bond_atom_site_label_1
_geom_bond_atom_site_label_2
_geom_bond_distance
_geom_bond_site_symmetry_2
B0 Y8 2.541553 1_555
B0 Y10 2.541553 1_555
B0 Y4 2.559366 1_545
B0 Y1 2.559366 1_555
B0 Y7 2.565057 1_545
B0 Y2 2.565057 1_555
B1 Y6 2.541553 1_555
B1 Y3 2.541553 1_555
B1 Y11 2.559366 1_555
B1 Y1 2.559366 1_455
B1 Y9 2.565057 1_555
B1 Y2 2.565057 1_455
B2 Y5 2.541553 1_555
B2 Y0 2.541553 1_555
B2 Y4 2.559366 1_555
B2 Y11 2.559366 1_554
B2 Y7 2.565057 1_555
B2 Y9 2.565057 1_554
C0 Y10 2.504508 1_555
C0 Y3 2.504508 1_555
C0 Y0 2.504508 1_555
C0 Y6 2.504508 1_555
C0 Y5 2.504508 1_555
C0 Y8 2.504508 1_555
Cl0 Y9 2.794315 1_555
Cl0 Y7 2.794315 1_556
Cl0 Y3 2.921719 1_555
Cl0 Y10 2.921719 1_566
Cl1 Y3 2.788328 1_555
Cl1 Y11 2.802186 1_555
Cl1 Y8 2.861611 1_555
Cl1 Y7 2.890478 1_556
Cl2 Y10 2.788328 1_666
Cl2 Y4 2.802186 1_656
Cl2 Y6 2.861611 1_666
Cl2 Y9 2.890478 1_655
Cl3 Y2 2.794315 1_555
Cl3 Y9 2.794315 1_655
Cl3 Y8 2.921719 1_555
Cl3 Y5 2.921720 1_656
Cl4 Y5 2.788328 1_666
Cl4 Y11 2.802185 1_665
Cl4 Y10 2.861611 1_666
Cl4 Y2 2.890478 1_565
Cl5 Y8 2.783391 1_565
Cl5 Y6 2.783391 1_565
Cl5 Y11 2.866121 1_565
Cl5 Y4 2.866121 1_555
Cl6 Y8 2.788328 1_555
Cl6 Y1 2.802185 1_555
Cl6 Y0 2.861611 1_555
Cl6 Y9 2.890478 1_655
Cl7 Y0 2.783391 1_556
Cl7 Y10 2.783391 1_556
Cl7 Y1 2.866122 1_556
Cl7 Y11 2.866122 1_555
Cl8 Y2 2.794315 1_565
Cl8 Y7 2.794315 1_555
Cl8 Y6 2.921719 1_665
Cl8 Y0 2.921719 1_555
Cl9 Y6 2.788328 1_666
Cl9 Y1 2.802185 1_566
Cl9 Y5 2.861611 1_666
Cl9 Y7 2.890478 1_556
Cl10 Y5 2.783391 1_655
Cl10 Y3 2.783391 1_655
Cl10 Y1 2.866121 1_555
Cl10 Y4 2.866121 1_655
Cl11 Y0 2.788328 1_555
Cl11 Y4 2.802186 1_555
Cl11 Y3 2.861611 1_555
Cl11 Y2 2.890478 1_565
