# generated using pymatgen
data_Sr3MoCl2O5
_symmetry_space_group_name_H-M   'P 1'
_cell_length_a   7.07302050
_cell_length_b   7.07302069
_cell_length_c   11.14141980
_cell_angle_alpha   90.00000000
_cell_angle_beta   90.00000000
_cell_angle_gamma   133.23678600
_symmetry_Int_Tables_number   1
_chemical_formula_structural   Sr3MoCl2O5
_chemical_formula_sum   'Sr6 Mo2 Cl4 O10'
_cell_volume   406.06654641
_cell_formula_units_Z   2
loop_
 _symmetry_equiv_pos_site_id
 _symmetry_equiv_pos_as_xyz
  1  'x, y, z'
loop_
 _atom_site_type_symbol
 _atom_site_label
 _atom_site_symmetry_multiplicity
 _atom_site_fract_x
 _atom_site_fract_y
 _atom_site_fract_z
 _atom_site_occupancy
  Sr  Sr0  1  0.90716922  0.09283078  0.75000000  1
  Sr  Sr1  1  0.65658524  0.34341476  0.54140411  1
  Sr  Sr2  1  0.34341476  0.65658524  0.45859589  1
  Sr  Sr3  1  0.65658524  0.34341476  0.95859589  1
  Sr  Sr4  1  0.34341476  0.65658524  0.04140411  1
  Sr  Sr5  1  0.09283078  0.90716922  0.25000000  1
  Mo  Mo0  1  0.75502431  0.24497569  0.25000000  1
  Mo  Mo1  1  0.24497569  0.75502431  0.75000000  1
  Cl  Cl0  1  0.49656847  0.50343153  0.25000000  1
  Cl  Cl1  1  0.50343153  0.49656847  0.75000000  1
  Cl  Cl2  1  0.00000000  0.00000000  0.50000000  1
  Cl  Cl3  1  0.00000000  0.00000000  0.00000000  1
  O  O0  1  0.11262438  0.88737562  0.75000000  1
  O  O1  1  0.05334256  0.48669066  0.63366797  1
  O  O2  1  0.48669066  0.05334256  0.36633203  1
  O  O3  1  0.51330934  0.94665744  0.63366797  1
  O  O4  1  0.94665744  0.51330934  0.36633203  1
  O  O5  1  0.88737562  0.11262438  0.25000000  1
  O  O6  1  0.05334256  0.48669066  0.86633203  1
  O  O7  1  0.51330934  0.94665744  0.86633203  1
  O  O8  1  0.94665744  0.51330934  0.13366797  1
  O  O9  1  0.48669066  0.05334256  0.13366797  1
loop_
_geom_bond_atom_site_label_1
_geom_bond_atom_site_label_2
_geom_bond_distance
_geom_bond_site_symmetry_2
Mo0 O5 1.718502 1_555
Mo0 O2 1.895994 1_555
Mo0 O9 1.895994 1_555
Mo0 O4 1.895994 1_555
Mo0 O8 1.895994 1_555
Mo1 O0 1.718502 1_555
Mo1 O7 1.895994 1_555
Mo1 O3 1.895994 1_555
Mo1 O6 1.895994 1_555
Mo1 O1 1.895994 1_555
Cl0 Sr2 3.058724 1_555
Cl0 Sr4 3.058724 1_555
Cl0 Sr5 3.072661 1_655
Cl0 Sr5 3.072661 1_545
Cl1 Sr3 3.058724 1_555
Cl1 Sr1 3.058724 1_555
Cl1 Sr0 3.072661 1_455
Cl1 Sr0 3.072661 1_565
Cl2 Sr0 3.034975 1_455
Cl2 Sr5 3.034975 1_545
Cl2 Sr2 3.496503 1_445
Cl2 Sr1 3.496503 1_555
Cl2 Sr2 3.496503 1_555
Cl2 Sr1 3.496503 1_445
Cl3 Sr0 3.034975 1_454
Cl3 Sr5 3.034975 1_545
Cl3 Sr4 3.496503 1_445
Cl3 Sr3 3.496503 1_554
Cl3 Sr4 3.496503 1_555
Cl3 Sr3 3.496503 1_444
O0 Sr0 2.667711 1_465
O1 Sr1 2.462244 1_455
O1 Sr2 2.465835 1_555
O1 Sr0 2.561921 1_455
O2 Sr2 2.462244 1_545
O2 Sr1 2.465835 1_555
O2 Sr5 2.561921 1_545
O3 Sr1 2.462244 1_565
O3 Sr2 2.465835 1_555
O3 Sr0 2.561921 1_565
O4 Sr2 2.462244 1_655
O4 Sr1 2.465835 1_555
O4 Sr5 2.561921 1_655
O5 Sr5 2.667711 1_645
O6 Sr3 2.462244 1_455
O6 Sr4 2.465835 1_556
O6 Sr0 2.561921 1_455
O7 Sr3 2.462244 1_565
O7 Sr4 2.465835 1_556
O7 Sr0 2.561921 1_565
O8 Sr4 2.462244 1_655
O8 Sr3 2.465835 1_554
O8 Sr5 2.561921 1_655
O9 Sr4 2.462244 1_545
O9 Sr3 2.465835 1_554
O9 Sr5 2.561921 1_545
