# generated using pymatgen
data_KRbZrSe3
_symmetry_space_group_name_H-M   'P 1'
_cell_length_a   7.66131664
_cell_length_b   7.85526799
_cell_length_c   7.18820025
_cell_angle_alpha   90.00000000
_cell_angle_beta   90.00000000
_cell_angle_gamma   109.79557049
_symmetry_Int_Tables_number   1
_chemical_formula_structural   KRbZrSe3
_chemical_formula_sum   'K2 Rb2 Zr2 Se6'
_cell_volume   407.03453930
_cell_formula_units_Z   2
loop_
 _symmetry_equiv_pos_site_id
 _symmetry_equiv_pos_as_xyz
  1  'x, y, z'
loop_
 _atom_site_type_symbol
 _atom_site_label
 _atom_site_symmetry_multiplicity
 _atom_site_fract_x
 _atom_site_fract_y
 _atom_site_fract_z
 _atom_site_occupancy
  K  K0  1  0.50052223  0.82668035  0.25000000  1
  K  K1  1  0.49947777  0.17331965  0.75000000  1
  Rb  Rb0  1  0.17315165  0.49380747  0.75000000  1
  Rb  Rb1  1  0.82684835  0.50619253  0.25000000  1
  Zr  Zr0  1  0.08347017  0.09133371  0.25000000  1
  Zr  Zr1  1  0.91652983  0.90866629  0.75000000  1
  Se  Se0  1  0.65888888  0.61731354  0.75000000  1
  Se  Se1  1  0.34111112  0.38268646  0.25000000  1
  Se  Se2  1  0.84038588  0.12471318  0.50002040  1
  Se  Se3  1  0.84038588  0.12471318  0.99997960  1
  Se  Se4  1  0.15961412  0.87528682  0.49997960  1
  Se  Se5  1  0.15961412  0.87528682  0.00002040  1
loop_
_geom_bond_atom_site_label_1
_geom_bond_atom_site_label_2
_geom_bond_distance
_geom_bond_site_symmetry_2
K0 Se1 3.281838 1_555
K0 Se4 3.297215 1_555
K0 Se5 3.297215 1_555
K0 Se2 3.370711 1_565
K0 Se3 3.370711 1_564
K1 Se0 3.281838 1_555
K1 Se3 3.297215 1_555
K1 Se2 3.297215 1_555
K1 Se5 3.370711 1_546
K1 Se4 3.370711 1_545
Rb0 Se0 3.513478 1_555
Rb0 Se5 3.525753 1_556
Rb0 Se4 3.525753 1_555
Rb0 Se3 3.623257 1_455
Rb0 Se2 3.623257 1_455
Rb0 Se1 4.011995 1_556
Rb0 Se1 4.011995 1_555
Rb1 Se1 3.513478 1_555
Rb1 Se2 3.525753 1_555
Rb1 Se3 3.525753 1_554
Rb1 Se4 3.623257 1_655
Rb1 Se5 3.623257 1_655
Rb1 Se0 4.011995 1_554
Rb1 Se0 4.011995 1_555
Se0 Zr1 2.464600 1_555
Se1 Zr0 2.464600 1_555
Se2 Zr0 2.664160 1_655
Se2 Zr1 2.668318 1_545
Se3 Zr0 2.664160 1_656
Se3 Zr1 2.668318 1_545
Se4 Zr1 2.664160 1_455
Se4 Zr0 2.668318 1_565
Se5 Zr1 2.664160 1_454
Se5 Zr0 2.668318 1_565
