# generated using pymatgen
data_Cs5K7(Sn2O5)2
_symmetry_space_group_name_H-M   'P 1'
_cell_length_a   7.79338883
_cell_length_b   9.38416440
_cell_length_c   9.45051207
_cell_angle_alpha   75.78172122
_cell_angle_beta   83.17629210
_cell_angle_gamma   81.84158890
_symmetry_Int_Tables_number   1
_chemical_formula_structural   Cs5K7(Sn2O5)2
_chemical_formula_sum   'Cs5 K7 Sn4 O10'
_cell_volume   660.66153161
_cell_formula_units_Z   1
loop_
 _symmetry_equiv_pos_site_id
 _symmetry_equiv_pos_as_xyz
  1  'x, y, z'
loop_
 _atom_site_type_symbol
 _atom_site_label
 _atom_site_symmetry_multiplicity
 _atom_site_fract_x
 _atom_site_fract_y
 _atom_site_fract_z
 _atom_site_occupancy
  Cs  Cs0  1  0.80757926  0.90115388  0.89575433  1
  Cs  Cs1  1  0.29551619  0.39078803  0.41079825  1
  Cs  Cs2  1  0.54616728  0.65637734  0.64955701  1
  Cs  Cs3  1  0.03664445  0.14273239  0.16374725  1
  Cs  Cs4  1  0.25852971  0.49666754  0.00242981  1
  K  K0  1  0.49128692  0.24088795  0.76631249  1
  K  K1  1  0.98009101  0.73343504  0.27551862  1
  K  K2  1  0.48444751  0.77509536  0.23452149  1
  K  K3  1  0.98263677  0.27241389  0.74090837  1
  K  K4  1  0.73944905  0.48990670  0.02388008  1
  K  K5  1  0.23877525  0.99220130  0.51490158  1
  K  K6  1  0.73736309  0.01447608  0.49054366  1
  Sn  Sn0  1  0.08945626  0.65429011  0.64017911  1
  Sn  Sn1  1  0.58512721  0.14527054  0.14730277  1
  Sn  Sn2  1  0.32397793  0.89173584  0.87510207  1
  Sn  Sn3  1  0.80715713  0.37896373  0.39121456  1
  O  O0  1  0.23163870  0.72983431  0.44717045  1
  O  O1  1  0.72931325  0.22792076  0.95675314  1
  O  O2  1  0.23161566  0.45496540  0.71077134  1
  O  O3  1  0.73444044  0.95181814  0.22524211  1
  O  O4  1  0.49572276  0.71995366  0.96846644  1
  O  O5  1  0.97156429  0.20034730  0.48277057  1
  O  O6  1  0.48007313  0.98455673  0.69793974  1
  O  O7  1  0.96517509  0.47393628  0.21772869  1
  O  O8  1  0.18475624  0.77828599  0.76623820  1
  O  O9  1  0.66540041  0.27408673  0.27634987  1
loop_
_geom_bond_atom_site_label_1
_geom_bond_atom_site_label_2
_geom_bond_distance
_geom_bond_site_symmetry_2
Cs0 O4 3.077764 1_555
Cs0 O8 3.216292 1_655
Cs0 O1 3.218902 1_565
Cs0 O6 3.235768 1_555
Cs0 O3 3.236577 1_556
Cs1 O2 3.010889 1_555
Cs1 O9 3.168697 1_555
Cs1 O5 3.210277 1_455
Cs1 O7 3.226869 1_455
Cs1 O0 3.245922 1_555
Cs2 O8 3.070038 1_555
Cs2 O0 3.182590 1_555
Cs2 O4 3.182608 1_555
Cs2 O6 3.185030 1_555
Cs2 O2 3.218305 1_555
Cs3 O3 3.074942 1_445
Cs3 O9 3.150122 1_455
Cs3 O5 3.162110 1_455
Cs3 O1 3.162956 1_454
Cs3 O7 3.232744 1_455
Cs4 O7 2.869162 1_455
Cs4 O2 2.912904 1_554
Cs4 O4 2.922086 1_554
Cs4 O8 3.045170 1_554
K0 O2 2.643355 1_555
K0 O6 2.654803 1_545
K0 O1 2.704958 1_555
K1 O3 2.591328 1_555
K1 O7 2.643981 1_555
K1 O0 2.680643 1_655
K2 O0 2.641631 1_555
K2 O4 2.677909 1_554
K2 O3 2.712711 1_555
K3 O1 2.662997 1_555
K3 O5 2.700587 1_555
K3 O2 2.711707 1_655
K4 O7 2.651297 1_555
K4 O4 2.657025 1_554
K4 O1 2.699292 1_554
K4 O9 2.785396 1_555
K5 O5 2.636026 1_465
K5 O6 2.684680 1_555
K5 O0 2.701152 1_555
K5 O8 2.740216 1_555
K6 O6 2.626146 1_545
K6 O5 2.681045 1_555
K6 O3 2.715520 1_545
K6 O9 2.794057 1_555
O0 Sn0 2.040822 1_555
O1 Sn1 2.046341 1_556
O2 Sn0 2.036110 1_555
O3 Sn1 2.034580 1_565
O4 Sn2 2.034262 1_555
O5 Sn3 2.035031 1_555
O6 Sn2 2.035231 1_555
O7 Sn3 2.028021 1_555
O8 Sn0 2.112185 1_555
O8 Sn2 2.121396 1_555
O9 Sn1 2.111899 1_555
O9 Sn3 2.117991 1_555
