# generated using pymatgen
data_TiBe9W2
_symmetry_space_group_name_H-M   'P 1'
_cell_length_a   7.41263760
_cell_length_b   7.41263715
_cell_length_c   7.41263705
_cell_angle_alpha   34.76660898
_cell_angle_beta   34.76660988
_cell_angle_gamma   34.76660274
_symmetry_Int_Tables_number   1
_chemical_formula_structural   TiBe9W2
_chemical_formula_sum   'Ti1 Be9 W2'
_cell_volume   118.20792301
_cell_formula_units_Z   1
loop_
 _symmetry_equiv_pos_site_id
 _symmetry_equiv_pos_as_xyz
  1  'x, y, z'
loop_
 _atom_site_type_symbol
 _atom_site_label
 _atom_site_symmetry_multiplicity
 _atom_site_fract_x
 _atom_site_fract_y
 _atom_site_fract_z
 _atom_site_occupancy
  Ti  Ti0  1  0.00000000  0.00000000  0.00000000  1
  Be  Be0  1  0.41474965  0.92206610  0.41474965  1
  Be  Be1  1  0.41474965  0.41474965  0.92206610  1
  Be  Be2  1  0.92206610  0.41474965  0.41474965  1
  Be  Be3  1  0.58525035  0.07793390  0.58525035  1
  Be  Be4  1  0.58525035  0.58525035  0.07793390  1
  Be  Be5  1  0.07793390  0.58525035  0.58525035  1
  Be  Be6  1  0.66560361  0.66560361  0.66560361  1
  Be  Be7  1  0.33439639  0.33439639  0.33439639  1
  Be  Be8  1  0.50000000  0.50000000  0.50000000  1
  W  W0  1  0.85566221  0.85566221  0.85566221  1
  W  W1  1  0.14433779  0.14433779  0.14433779  1
loop_
_geom_bond_atom_site_label_1
_geom_bond_atom_site_label_2
_geom_bond_distance
_geom_bond_site_symmetry_2
Ti0 W1 3.012722 1_555
Ti0 W0 3.012722 1_444
Be0 Be6 2.143489 1_555
Be0 Be7 2.156912 1_565
Be0 Be8 2.178655 1_555
Be0 Be2 2.182213 1_465
Be0 Be1 2.182213 1_564
Be0 Be2 2.247026 1_555
Be0 Be1 2.247026 1_555
Be0 W1 2.549422 1_565
Be0 W0 2.560100 1_554
Be0 W0 2.560100 1_455
Be0 Ti0 2.809378 1_566
Be0 Ti0 2.809379 1_665
Be1 Be6 2.143489 1_555
Be1 Be7 2.156912 1_556
Be1 Be8 2.178655 1_555
Be1 Be2 2.182213 1_456
Be1 Be2 2.247026 1_555
Be1 W1 2.549422 1_556
Be1 W0 2.560099 1_545
Be1 W0 2.560100 1_455
Be1 Ti0 2.809378 1_566
Be1 Ti0 2.809378 1_656
Be2 Be6 2.143489 1_555
Be2 Be7 2.156912 1_655
Be2 Be8 2.178655 1_555
Be2 W1 2.549422 1_655
Be2 W0 2.560100 1_554
Be2 W0 2.560100 1_545
Be2 Ti0 2.809379 1_656
Be2 Ti0 2.809379 1_665
Be3 Be7 2.143489 1_555
Be3 Be6 2.156912 1_545
Be3 Be8 2.178655 1_555
Be3 Be5 2.182213 1_645
Be3 Be4 2.182213 1_546
Be3 Be5 2.247026 1_555
Be3 Be4 2.247026 1_555
Be3 W0 2.549422 1_545
Be3 W1 2.560100 1_556
Be3 W1 2.560100 1_655
Be3 Ti0 2.809378 1_655
Be3 Ti0 2.809379 1_556
Be4 Be7 2.143489 1_555
Be4 Be6 2.156912 1_554
Be4 Be8 2.178655 1_555
Be4 Be5 2.182213 1_654
Be4 Be5 2.247026 1_555
Be4 W0 2.549422 1_554
Be4 W1 2.560099 1_565
Be4 W1 2.560100 1_655
Be4 Ti0 2.809378 1_655
Be4 Ti0 2.809378 1_565
Be5 Be7 2.143489 1_555
Be5 Be6 2.156912 1_455
Be5 Be8 2.178655 1_555
Be5 W0 2.549422 1_455
Be5 W1 2.560100 1_556
Be5 W1 2.560100 1_565
Be5 Ti0 2.809379 1_565
Be5 Ti0 2.809379 1_556
Be6 Ti0 2.557318 1_656
Be6 Ti0 2.557319 1_566
Be6 Ti0 2.557319 1_665
Be7 Ti0 2.557318 1_565
Be7 Ti0 2.557319 1_655
Be7 Ti0 2.557319 1_556
Be8 W0 2.599346 1_545
Be8 W1 2.599346 1_565
Be8 W0 2.599346 1_455
Be8 W1 2.599346 1_655
Be8 W0 2.599347 1_554
Be8 W1 2.599347 1_556
W0 W1 2.721810 1_656
W0 W1 2.721810 1_566
W0 W1 2.721810 1_665
