# generated using pymatgen
data_Cs2Ru(Cl2F)2
_symmetry_space_group_name_H-M   'P 1'
_cell_length_a   7.14612935
_cell_length_b   7.14612996
_cell_length_c   7.14613778
_cell_angle_alpha   120.03762505
_cell_angle_beta   120.03763334
_cell_angle_gamma   89.93477304
_symmetry_Int_Tables_number   1
_chemical_formula_structural   Cs2Ru(Cl2F)2
_chemical_formula_sum   'Cs2 Ru1 Cl4 F2'
_cell_volume   257.89981229
_cell_formula_units_Z   1
loop_
 _symmetry_equiv_pos_site_id
 _symmetry_equiv_pos_as_xyz
  1  'x, y, z'
loop_
 _atom_site_type_symbol
 _atom_site_label
 _atom_site_symmetry_multiplicity
 _atom_site_fract_x
 _atom_site_fract_y
 _atom_site_fract_z
 _atom_site_occupancy
  Cs  Cs0  1  0.75000000  0.25000000  0.50000000  1
  Cs  Cs1  1  0.25000000  0.75000000  0.50000000  1
  Ru  Ru0  1  0.00000000  0.00000000  0.00000000  1
  Cl  Cl0  1  0.76675499  0.23324501  0.00000000  1
  Cl  Cl1  1  0.23324501  0.76675499  1.00000000  1
  Cl  Cl2  1  0.23324301  0.23324301  0.46648701  1
  Cl  Cl3  1  0.76675699  0.76675699  0.53351299  1
  F  F0  1  0.18782158  0.18782158  1.00000000  1
  F  F1  1  0.81217842  0.81217842  0.00000000  1
loop_
_geom_bond_atom_site_label_1
_geom_bond_atom_site_label_2
_geom_bond_distance
_geom_bond_site_symmetry_2
Cs0 F0 3.625962 1_554
Cs0 F0 3.625962 1_655
Cs0 F1 3.625963 1_545
Cs0 F1 3.625963 1_556
Cs1 F1 3.625962 1_556
Cs1 F1 3.625962 1_455
Cs1 F0 3.625963 1_565
Cs1 F0 3.625963 1_554
Cl0 Ru0 2.355868 1_655
Cl0 Cs1 3.577074 1_544
Cl0 Cs1 3.577074 1_655
Cl0 Cs0 3.577074 1_554
Cl0 Cs0 3.577074 1_555
Cl1 Ru0 2.355868 1_566
Cl1 Cs0 3.577074 1_566
Cl1 Cs0 3.577074 1_455
Cl1 Cs1 3.577074 1_556
Cl1 Cs1 3.577074 1_555
Cl2 Ru0 2.355858 1_555
Cl2 Cs0 3.577067 1_455
Cl2 Cs1 3.577068 1_545
Cl2 Cs0 3.577074 1_555
Cl2 Cs1 3.577075 1_555
Cl3 Ru0 2.355858 1_666
Cl3 Cs1 3.577067 1_655
Cl3 Cs0 3.577068 1_565
Cl3 Cs1 3.577074 1_555
Cl3 Cs0 3.577075 1_555
F0 Ru0 1.899234 1_556
F1 Ru0 1.899234 1_665
