# generated using pymatgen
data_Be10VGa5Ir16
_symmetry_space_group_name_H-M   'P 1'
_cell_length_a   8.66510493
_cell_length_b   8.66463257
_cell_length_c   8.66288163
_cell_angle_alpha   141.10533513
_cell_angle_beta   96.48408697
_cell_angle_gamma   96.22867956
_symmetry_Int_Tables_number   1
_chemical_formula_structural   Be10VGa5Ir16
_chemical_formula_sum   'Be10 V1 Ga5 Ir16'
_cell_volume   385.14441035
_cell_formula_units_Z   1
loop_
 _symmetry_equiv_pos_site_id
 _symmetry_equiv_pos_as_xyz
  1  'x, y, z'
loop_
 _atom_site_type_symbol
 _atom_site_label
 _atom_site_symmetry_multiplicity
 _atom_site_fract_x
 _atom_site_fract_y
 _atom_site_fract_z
 _atom_site_occupancy
  Be  Be0  1  0.37391085  0.49863007  0.87508895  1
  Be  Be1  1  0.63125713  0.50317171  0.12811879  1
  Be  Be2  1  0.12505863  0.50314397  0.62187100  1
  Be  Be3  1  0.87455460  0.49921079  0.37455967  1
  Be  Be4  1  0.87620698  0.00146630  0.87502535  1
  Be  Be5  1  0.12489657  0.99681808  0.12812603  1
  Be  Be6  1  0.61869594  0.99678743  0.62187497  1
  Be  Be7  1  0.37545405  0.00068167  0.37533585  1
  Be  Be8  1  0.87666082  0.75011047  0.12654164  1
  Be  Be9  1  0.37379183  0.75035993  0.62350141  1
  V  V0  1  0.12495721  0.74997450  0.37500428  1
  Ga  Ga0  1  0.12494188  0.24994695  0.87500114  1
  Ga  Ga1  1  0.37730309  0.25011490  0.12731042  1
  Ga  Ga2  1  0.87268487  0.24987669  0.62268475  1
  Ga  Ga3  1  0.62493290  0.24994218  0.37499739  1
  Ga  Ga4  1  0.62495505  0.74996417  0.87499008  1
  Ir  Ir0  1  0.12148731  0.37386806  0.25567110  1
  Ir  Ir1  1  0.12143363  0.86598432  0.74782617  1
  Ir  Ir2  1  0.86819424  0.37377773  0.00228294  1
  Ir  Ir3  1  0.36505100  0.86291754  0.99333423  1
  Ir  Ir4  1  0.86820121  0.86578749  0.49439754  1
  Ir  Ir5  1  0.36497065  0.37171131  0.50217116  1
  Ir  Ir6  1  0.61964187  0.86291635  0.24782077  1
  Ir  Ir7  1  0.61955946  0.37176439  0.75671127  1
  Ir  Ir8  1  0.88496577  0.12828594  0.24782790  1
  Ir  Ir9  1  0.88488706  0.63702926  0.75660628  1
  Ir  Ir10  1  0.63043135  0.12822620  0.99332005  1
  Ir  Ir11  1  0.12856091  0.63395768  0.00216711  1
  Ir  Ir12  1  0.63035853  0.63704389  0.50218408  1
  Ir  Ir13  1  0.12852337  0.12614852  0.49439562  1
  Ir  Ir14  1  0.38173249  0.63415794  0.25554707  1
  Ir  Ir15  1  0.38173676  0.12622057  0.74769897  1
loop_
_geom_bond_atom_site_label_1
_geom_bond_atom_site_label_2
_geom_bond_distance
_geom_bond_site_symmetry_2
Be0 Ir7 2.456992 1_555
Be0 Ir5 2.459003 1_555
Be0 Ir6 2.459049 1_556
Be0 Ir3 2.460810 1_555
Be0 Ir14 2.480726 1_556
Be0 Ir15 2.481129 1_555
Be0 Ir11 2.483309 1_556
Be0 Ir13 2.484481 1_555
Be1 Ir2 2.400622 1_555
Be1 Ir4 2.401172 1_555
Be1 Ir7 2.420244 1_554
Be1 Ir6 2.421102 1_555
Be1 Ir12 2.450096 1_555
Be1 Ir10 2.450692 1_554
Be1 Ir14 2.510570 1_555
Be1 Ir15 2.511285 1_554
Be2 Ir0 2.399676 1_555
Be2 Ir1 2.401029 1_555
Be2 Ir5 2.419967 1_555
Be2 Ir3 2.421664 1_555
Be2 Ir9 2.450293 1_455
Be2 Ir8 2.450706 1_455
Be2 Ir11 2.509288 1_556
Be2 Ir13 2.510840 1_555
Be3 Ir2 2.464900 1_555
Be3 Ir0 2.465641 1_655
Be3 Ir4 2.467277 1_555
Be3 Ir1 2.469471 1_655
Be3 Ir8 2.477026 1_555
Be3 Ir10 2.477154 1_554
Be3 Ir9 2.479016 1_555
Be3 Ir12 2.479402 1_555
Be4 Ir10 2.457732 1_555
Be4 Ir8 2.458800 1_556
Be4 Ir12 2.460040 1_545
Be4 Ir9 2.460848 1_545
Be4 Ir4 2.481118 1_545
Be4 Ir2 2.481317 1_556
Be4 Ir1 2.482761 1_645
Be4 Ir0 2.483747 1_656
Be5 Ir13 2.399898 1_565
Be5 Ir11 2.401247 1_555
Be5 Ir8 2.420196 1_465
Be5 Ir9 2.421883 1_454
Be5 Ir3 2.450277 1_554
Be5 Ir5 2.450681 1_565
Be5 Ir1 2.509283 1_554
Be5 Ir0 2.510851 1_565
Be6 Ir15 2.400856 1_565
Be6 Ir14 2.401377 1_555
Be6 Ir10 2.420349 1_565
Be6 Ir12 2.421242 1_555
Be6 Ir6 2.450093 1_555
Be6 Ir7 2.450707 1_565
Be6 Ir4 2.510512 1_555
Be6 Ir2 2.511218 1_566
Be7 Ir15 2.465205 1_555
Be7 Ir13 2.466106 1_555
Be7 Ir14 2.466946 1_545
Be7 Ir11 2.469289 1_545
Be7 Ir7 2.477477 1_555
Be7 Ir5 2.477532 1_555
Be7 Ir3 2.478806 1_544
Be7 Ir6 2.479042 1_545
Be8 Ir11 2.501609 1_655
Be8 Ir13 2.501614 1_665
Be8 Ir4 2.502372 1_555
Be8 Ir2 2.502667 1_555
Be8 Ir9 2.532641 1_554
Be8 Ir8 2.533542 1_565
Be8 Ir6 2.534060 1_555
Be8 Ir7 2.535505 1_554
Be9 Ir14 2.499554 1_555
Be9 Ir15 2.499761 1_565
Be9 Ir1 2.504609 1_555
Be9 Ir0 2.504684 1_555
Be9 Ir12 2.531044 1_555
Be9 Ir10 2.532219 1_565
Be9 Ir3 2.535434 1_555
Be9 Ir5 2.536576 1_555
Ga0 Ir0 2.558554 1_556
Ga0 Ir2 2.558700 1_456
Ga0 Ir13 2.558858 1_555
Ga0 Ir1 2.558917 1_545
Ga0 Ir15 2.558969 1_555
Ga0 Ir11 2.559194 1_556
Ga0 Ir4 2.559862 1_445
Ga0 Ir14 2.560116 1_556
Ga1 Ir10 2.538327 1_554
Ga1 Ir12 2.538344 1_555
Ga1 Ir5 2.538495 1_555
Ga1 Ir3 2.539215 1_544
Ga1 Ir15 2.551590 1_554
Ga1 Ir0 2.552716 1_555
Ga1 Ir14 2.552827 1_555
Ga1 Ir1 2.553707 1_544
Ga2 Ir6 2.538332 1_545
Ga2 Ir7 2.538374 1_555
Ga2 Ir8 2.538388 1_555
Ga2 Ir9 2.539181 1_555
Ga2 Ir2 2.551548 1_556
Ga2 Ir13 2.552739 1_655
Ga2 Ir4 2.552875 1_545
Ga2 Ir11 2.553648 1_656
Ga3 Ir7 2.581305 1_555
Ga3 Ir10 2.581764 1_554
Ga3 Ir6 2.581806 1_545
Ga3 Ir12 2.582190 1_555
Ga3 Ir5 2.582246 1_555
Ga3 Ir3 2.582476 1_544
Ga3 Ir8 2.582662 1_555
Ga3 Ir9 2.582875 1_555
Ga4 Ir6 2.552349 1_556
Ga4 Ir12 2.552466 1_555
Ga4 Ir3 2.553181 1_555
Ga4 Ir7 2.553407 1_555
Ga4 Ir9 2.553459 1_555
Ga4 Ir10 2.553547 1_565
Ga4 Ir5 2.554468 1_555
Ga4 Ir8 2.554754 1_566
Ir0 V0 2.533227 1_555
Ir1 V0 2.533350 1_555
Ir2 V0 2.534066 1_655
Ir4 V0 2.532810 1_655
Ir11 V0 2.533580 1_555
Ir13 V0 2.533349 1_545
Ir14 V0 2.533087 1_555
Ir15 V0 2.534197 1_545
