# generated using pymatgen
data_CsSrWN3
_symmetry_space_group_name_H-M   'P 1'
_cell_length_a   6.80503197
_cell_length_b   6.80503164
_cell_length_c   12.87599362
_cell_angle_alpha   90.12347068
_cell_angle_beta   90.12347359
_cell_angle_gamma   126.31092849
_symmetry_Int_Tables_number   1
_chemical_formula_structural   CsSrWN3
_chemical_formula_sum   'Cs4 Sr4 W4 N12'
_cell_volume   480.47595760
_cell_formula_units_Z   4
loop_
 _symmetry_equiv_pos_site_id
 _symmetry_equiv_pos_as_xyz
  1  'x, y, z'
loop_
 _atom_site_type_symbol
 _atom_site_label
 _atom_site_symmetry_multiplicity
 _atom_site_fract_x
 _atom_site_fract_y
 _atom_site_fract_z
 _atom_site_occupancy
  Cs  Cs0  1  0.97667835  0.54103039  0.36090394  1
  Cs  Cs1  1  0.45896961  0.02332165  0.13909606  1
  Cs  Cs2  1  0.02332165  0.45896961  0.63909606  1
  Cs  Cs3  1  0.54103039  0.97667835  0.86090394  1
  Sr  Sr0  1  0.12706923  0.33615385  0.08015958  1
  Sr  Sr1  1  0.66384615  0.87293077  0.41984042  1
  Sr  Sr2  1  0.87293077  0.66384615  0.91984042  1
  Sr  Sr3  1  0.33615385  0.12706923  0.58015958  1
  W  W0  1  0.77540197  0.71948811  0.16486749  1
  W  W1  1  0.28051189  0.22459803  0.33513251  1
  W  W2  1  0.22459803  0.28051189  0.83513251  1
  W  W3  1  0.71948811  0.77540197  0.66486749  1
  N  N0  1  0.48473410  0.51526590  0.25000000  1
  N  N1  1  0.51526590  0.48473410  0.75000000  1
  N  N2  1  0.90941188  0.56984288  0.11728399  1
  N  N3  1  0.43015712  0.09058812  0.38271601  1
  N  N4  1  0.09058812  0.43015712  0.88271601  1
  N  N5  1  0.56984288  0.90941188  0.61728399  1
  N  N6  1  0.82252328  0.70969739  0.54977731  1
  N  N7  1  0.29030261  0.17747672  0.95022269  1
  N  N8  1  0.17747672  0.29030261  0.45022269  1
  N  N9  1  0.70969739  0.82252328  0.04977731  1
  N  N10  1  0.99622443  0.00377557  0.25000000  1
  N  N11  1  0.00377557  0.99622443  0.75000000  1
loop_
_geom_bond_atom_site_label_1
_geom_bond_atom_site_label_2
_geom_bond_distance
_geom_bond_site_symmetry_2
Cs0 N8 2.977221 1_655
Cs0 N6 3.123642 1_555
Cs0 N3 3.132603 1_555
Cs0 N3 3.148241 1_665
Cs0 N2 3.192265 1_555
Cs1 N9 2.977221 1_545
Cs1 N7 3.123642 1_554
Cs1 N2 3.132603 1_555
Cs1 N2 3.148241 1_445
Cs1 N3 3.192265 1_555
Cs2 N6 2.977221 1_455
Cs2 N8 3.123642 1_555
Cs2 N5 3.132603 1_555
Cs2 N5 3.148241 1_445
Cs2 N4 3.192265 1_555
Cs3 N7 2.977221 1_565
Cs3 N9 3.123642 1_556
Cs3 N4 3.132603 1_555
Cs3 N4 3.148241 1_665
Cs3 N5 3.192265 1_555
N0 W1 1.950830 1_555
N0 W0 1.950830 1_555
N0 Sr1 2.940082 1_555
N0 Sr0 2.940082 1_555
N1 W3 1.950830 1_555
N1 W2 1.950830 1_555
N1 Sr3 2.940082 1_555
N1 Sr2 2.940082 1_555
N2 W0 1.828554 1_555
N2 Sr2 2.669534 1_554
N2 Sr0 2.782208 1_655
N3 W1 1.828554 1_555
N3 Sr3 2.669534 1_555
N3 Sr1 2.782208 1_545
N4 W2 1.828554 1_555
N4 Sr0 2.669534 1_556
N4 Sr2 2.782208 1_455
N5 W3 1.828554 1_555
N5 Sr1 2.669534 1_555
N5 Sr3 2.782208 1_565
N6 W3 1.805681 1_555
N6 Sr1 2.572897 1_555
N6 Sr3 2.944293 1_665
N7 W2 1.805681 1_555
N7 Sr0 2.572897 1_556
N7 Sr2 2.944293 1_445
N8 W1 1.805681 1_555
N8 Sr3 2.572897 1_555
N8 Sr1 2.944293 1_445
N9 W0 1.805681 1_555
N9 Sr2 2.572897 1_554
N9 Sr0 2.944293 1_665
N10 W0 1.934707 1_545
N10 W1 1.934707 1_655
N10 Sr0 2.887153 1_655
N10 Sr1 2.887153 1_545
N11 W2 1.934707 1_565
N11 W3 1.934707 1_455
N11 Sr2 2.887153 1_455
N11 Sr3 2.887153 1_565
