# generated using pymatgen
data_Y2MnGeF14
_symmetry_space_group_name_H-M   'P 1'
_cell_length_a   5.31471419
_cell_length_b   8.61314470
_cell_length_c   11.55507993
_cell_angle_alpha   62.00114498
_cell_angle_beta   90.04973597
_cell_angle_gamma   90.00777525
_symmetry_Int_Tables_number   1
_chemical_formula_structural   Y2MnGeF14
_chemical_formula_sum   'Y4 Mn2 Ge2 F28'
_cell_volume   467.03988281
_cell_formula_units_Z   2
loop_
 _symmetry_equiv_pos_site_id
 _symmetry_equiv_pos_as_xyz
  1  'x, y, z'
loop_
 _atom_site_type_symbol
 _atom_site_label
 _atom_site_symmetry_multiplicity
 _atom_site_fract_x
 _atom_site_fract_y
 _atom_site_fract_z
 _atom_site_occupancy
  Y  Y0  1  0.26106165  0.81128125  0.26388405  1
  Y  Y1  1  0.73893835  0.18871875  0.73611595  1
  Y  Y2  1  0.76112544  0.18951197  0.23569557  1
  Y  Y3  1  0.23887456  0.81048803  0.76430443  1
  Mn  Mn0  1  0.25751458  0.27435522  0.45662642  1
  Mn  Mn1  1  0.74248542  0.72564478  0.54337358  1
  Ge  Ge0  1  0.75688899  0.72562854  0.04307853  1
  Ge  Ge1  1  0.24311101  0.27437146  0.95692147  1
  F  F0  1  0.93110792  0.70790366  0.42043530  1
  F  F1  1  0.06889208  0.29209634  0.57956470  1
  F  F2  1  0.43468061  0.29293559  0.07835711  1
  F  F3  1  0.56531939  0.70706441  0.92164289  1
  F  F4  1  0.47914106  0.72736433  0.13157405  1
  F  F5  1  0.52085894  0.27263567  0.86842595  1
  F  F6  1  0.97555403  0.27277545  0.36966116  1
  F  F7  1  0.02444597  0.72722455  0.63033884  1
  F  F8  1  0.94513547  0.73964805  0.16859027  1
  F  F9  1  0.05486453  0.26035195  0.83140973  1
  F  F10  1  0.44319484  0.26037546  0.32972058  1
  F  F11  1  0.55680516  0.73962454  0.67027942  1
  F  F12  1  0.77013935  0.48988790  0.13711704  1
  F  F13  1  0.22986065  0.51011210  0.86288296  1
  F  F14  1  0.26927907  0.51168869  0.36268697  1
  F  F15  1  0.73072093  0.48831131  0.63731303  1
  F  F16  1  0.95705929  0.28260671  0.03908092  1
  F  F17  1  0.04294071  0.71739329  0.96091908  1
  F  F18  1  0.45426237  0.71861025  0.46132037  1
  F  F19  1  0.54573763  0.28138975  0.53867963  1
  F  F20  1  0.73977285  0.96204670  0.45308715  1
  F  F21  1  0.26022715  0.03795330  0.54691285  1
  F  F22  1  0.23934128  0.03830160  0.04759284  1
  F  F23  1  0.76065872  0.96169840  0.95240716  1
  F  F24  1  0.60749240  0.96398357  0.22619873  1
  F  F25  1  0.39250760  0.03601643  0.77380127  1
  F  F26  1  0.10697195  0.03628747  0.27419161  1
  F  F27  1  0.89302805  0.96371253  0.72580839  1
loop_
_geom_bond_atom_site_label_1
_geom_bond_atom_site_label_2
_geom_bond_distance
_geom_bond_site_symmetry_2
F0 Mn1 1.803503 1_555
F0 Y0 2.373413 1_655
F1 Mn0 1.803503 1_555
F1 Y1 2.373413 1_455
F2 Ge1 1.799797 1_554
F2 Y2 2.362902 1_555
F3 Ge0 1.799797 1_556
F3 Y3 2.362902 1_555
F4 Ge0 1.800522 1_555
F4 Y0 2.289977 1_555
F5 Ge1 1.800522 1_555
F5 Y1 2.289977 1_555
F6 Mn0 1.807161 1_655
F6 Y2 2.290931 1_555
F7 Mn1 1.807161 1_455
F7 Y3 2.290931 1_555
F8 Ge0 1.811291 1_555
F8 Y0 2.246502 1_655
F9 Ge1 1.811291 1_555
F9 Y1 2.246502 1_455
F10 Mn0 1.818522 1_555
F10 Y2 2.243692 1_555
F11 Mn1 1.818522 1_555
F11 Y3 2.243692 1_555
F12 Ge0 1.799126 1_555
F12 Y2 2.286132 1_555
F13 Ge1 1.799126 1_555
F13 Y3 2.286132 1_555
F14 Mn0 1.810413 1_555
F14 Y0 2.279885 1_555
F15 Mn1 1.810413 1_555
F15 Y1 2.279885 1_555
F16 Ge1 1.811998 1_654
F16 Y2 2.276470 1_555
F17 Ge0 1.811998 1_456
F17 Y3 2.276470 1_555
F18 Mn1 1.816727 1_555
F18 Y0 2.276535 1_555
F19 Mn0 1.816727 1_555
F19 Y1 2.276535 1_555
F20 Mn1 1.800020 1_555
F20 Y2 2.353931 1_565
F21 Mn0 1.800020 1_555
F21 Y3 2.353931 1_545
F22 Ge1 1.797855 1_554
F22 Y0 2.343977 1_545
F23 Ge0 1.797855 1_556
F23 Y1 2.343977 1_565
F24 Y2 2.156765 1_565
F24 Y0 2.184590 1_555
F25 Y3 2.156765 1_545
F25 Y1 2.184590 1_555
F26 Y0 2.158255 1_545
F26 Y2 2.183155 1_455
F27 Y1 2.158255 1_565
F27 Y3 2.183155 1_655
