# generated using pymatgen
data_Ca6Cu11Pd5N
_symmetry_space_group_name_H-M   'P 1'
_cell_length_a   7.82746326
_cell_length_b   7.89128623
_cell_length_c   7.89128581
_cell_angle_alpha   109.51694889
_cell_angle_beta   109.61339634
_cell_angle_gamma   109.61340454
_symmetry_Int_Tables_number   1
_chemical_formula_structural   Ca6Cu11Pd5N
_chemical_formula_sum   'Ca6 Cu11 Pd5 N1'
_cell_volume   373.69089482
_cell_formula_units_Z   1
loop_
 _symmetry_equiv_pos_site_id
 _symmetry_equiv_pos_as_xyz
  1  'x, y, z'
loop_
 _atom_site_type_symbol
 _atom_site_label
 _atom_site_symmetry_multiplicity
 _atom_site_fract_x
 _atom_site_fract_y
 _atom_site_fract_z
 _atom_site_occupancy
  Ca  Ca0  1  0.00733894  0.27004999  0.27004999  1
  Ca  Ca1  1  0.27206583  0.00256527  0.26950056  1
  Ca  Ca2  1  0.73380277  0.00053848  0.73326329  1
  Ca  Ca3  1  0.73380277  0.73326329  0.00053848  1
  Ca  Ca4  1  0.27206583  0.26950056  0.00256527  1
  Ca  Ca5  1  0.00733894  0.73728795  0.73728795  1
  Cu  Cu0  1  0.51077945  0.50902672  0.50902672  1
  Cu  Cu1  1  0.51077945  0.00175172  0.00175172  1
  Cu  Cu2  1  0.99124984  0.49562492  0.99562492  1
  Cu  Cu3  1  0.99124984  0.99562492  0.49562492  1
  Cu  Cu4  1  0.98340550  0.32719643  0.65620907  1
  Cu  Cu5  1  0.98340550  0.65620907  0.32719643  1
  Cu  Cu6  1  0.66441560  0.66831753  0.32962561  1
  Cu  Cu7  1  0.66441560  0.99609807  0.33479099  1
  Cu  Cu8  1  0.66441560  0.33479099  0.99609807  1
  Cu  Cu9  1  0.66441560  0.32962561  0.66831753  1
  Cu  Cu10  1  0.33138007  0.66569004  0.66569004  1
  Pd  Pd0  1  0.68189880  0.34094990  0.34094990  1
  Pd  Pd1  1  0.33239868  0.99146153  0.65954099  1
  Pd  Pd2  1  0.33239868  0.67285668  0.34093714  1
  Pd  Pd3  1  0.33239868  0.34093714  0.67285668  1
  Pd  Pd4  1  0.33239868  0.65954099  0.99146153  1
  N  N0  1  0.00218235  0.00109118  0.00109118  1
loop_
_geom_bond_atom_site_label_1
_geom_bond_atom_site_label_2
_geom_bond_distance
_geom_bond_site_symmetry_2
Ca0 N0 2.426131 1_555
Ca0 Cu10 2.963578 1_555
Ca0 Pd0 2.969788 1_455
Ca0 Cu4 3.007692 1_455
Ca0 Cu5 3.007692 1_455
Ca0 Pd2 3.052452 1_555
Ca0 Pd3 3.052452 1_555
Ca0 Cu7 3.146820 1_445
Ca0 Cu8 3.146820 1_454
Ca0 Cu1 3.166709 1_455
Ca0 Cu0 3.207366 1_555
Ca0 Cu2 3.227590 1_454
Ca0 Cu3 3.227590 1_445
Ca1 N0 2.431513 1_555
Ca1 Cu7 2.959773 1_545
Ca1 Cu9 2.959775 1_555
Ca1 Pd1 2.989388 1_545
Ca1 Pd2 2.989396 1_545
Ca1 Pd0 3.125412 1_555
Ca1 Pd3 3.154325 1_555
Ca1 Pd4 3.154330 1_544
Ca1 Cu5 3.187327 1_445
Ca1 Cu0 3.256545 1_555
Ca1 Cu1 3.256551 1_555
Ca1 Cu3 3.261340 1_445
Ca1 Cu2 3.261341 1_444
Ca2 N0 2.426311 1_656
Ca2 Pd2 2.968081 1_545
Ca2 Pd1 2.968083 1_545
Ca2 Cu7 2.991804 1_545
Ca2 Cu9 2.991817 1_555
Ca2 Cu4 3.048847 1_555
Ca2 Cu10 3.087355 1_545
Ca2 Cu6 3.101089 1_545
Ca2 Cu8 3.101103 1_555
Ca2 Cu1 3.165011 1_556
Ca2 Cu0 3.165012 1_545
Ca2 Cu3 3.181174 1_545
Ca2 Cu2 3.181181 1_555
Ca3 N0 2.426311 1_665
Ca3 Pd3 2.968080 1_554
Ca3 Pd4 2.968083 1_554
Ca3 Cu8 2.991804 1_554
Ca3 Cu6 2.991816 1_555
Ca3 Cu5 3.048847 1_555
Ca3 Cu10 3.087355 1_554
Ca3 Cu9 3.101089 1_554
Ca3 Cu7 3.101103 1_555
Ca3 Cu1 3.165011 1_565
Ca3 Cu0 3.165011 1_554
Ca3 Cu2 3.181174 1_554
Ca3 Cu3 3.181181 1_555
Ca4 N0 2.431513 1_555
Ca4 Cu8 2.959773 1_554
Ca4 Cu6 2.959774 1_555
Ca4 Pd4 2.989388 1_554
Ca4 Pd3 2.989396 1_554
Ca4 Pd0 3.125412 1_555
Ca4 Pd2 3.154325 1_555
Ca4 Pd1 3.154330 1_544
Ca4 Cu4 3.187327 1_454
Ca4 Cu0 3.256545 1_555
Ca4 Cu1 3.256551 1_555
Ca4 Cu2 3.261341 1_454
Ca4 Cu3 3.261341 1_444
Ca5 N0 2.426140 1_566
Ca5 Cu10 2.963571 1_555
Ca5 Pd0 2.969776 1_455
Ca5 Cu5 3.007686 1_455
Ca5 Cu4 3.007686 1_455
Ca5 Pd1 3.052455 1_555
Ca5 Pd4 3.052455 1_555
Ca5 Cu9 3.146813 1_455
Ca5 Cu6 3.146813 1_455
Ca5 Cu0 3.166708 1_455
Ca5 Cu1 3.207366 1_566
Ca5 Cu2 3.227590 1_455
Ca5 Cu3 3.227590 1_455
Cu0 Cu10 2.517613 1_555
Cu0 Cu6 2.519458 1_555
Cu0 Cu9 2.519458 1_555
Cu0 Pd3 2.548478 1_555
Cu0 Pd2 2.548478 1_555
Cu0 Pd0 2.553889 1_555
Cu1 Cu10 2.517605 1_544
Cu1 Cu8 2.519468 1_554
Cu1 Cu7 2.519468 1_545
Cu1 Pd4 2.548482 1_544
Cu1 Pd1 2.548482 1_544
Cu1 Pd0 2.553906 1_555
Cu2 Cu8 2.446513 1_555
Cu2 Cu9 2.446515 1_555
Cu2 Cu5 2.529911 1_556
Cu2 Cu4 2.529911 1_555
Cu2 Pd4 2.563848 1_655
Cu2 Pd2 2.563849 1_656
Cu3 Cu7 2.446513 1_555
Cu3 Cu6 2.446515 1_555
Cu3 Cu4 2.529911 1_565
Cu3 Cu5 2.529911 1_555
Cu3 Pd1 2.563848 1_655
Cu3 Pd3 2.563849 1_665
Cu4 Cu7 2.536727 1_545
Cu4 Cu9 2.536729 1_555
Cu4 Pd4 2.653688 1_655
Cu4 Pd3 2.653690 1_655
Cu4 Pd0 2.860315 1_555
Cu5 Cu8 2.536727 1_554
Cu5 Cu6 2.536729 1_555
Cu5 Pd1 2.653688 1_655
Cu5 Pd2 2.653690 1_655
Cu5 Pd0 2.860314 1_555
Cu6 Cu7 2.573279 1_555
Cu6 Pd2 2.641850 1_555
Cu6 Pd0 2.661541 1_555
Cu6 Pd4 2.996627 1_554
Cu7 Pd4 2.641856 1_554
Cu7 Pd0 2.661549 1_565
Cu7 Pd2 2.996626 1_555
Cu8 Cu9 2.573279 1_555
Cu8 Pd1 2.641856 1_545
Cu8 Pd0 2.661549 1_556
Cu8 Pd3 2.996627 1_555
Cu9 Pd3 2.641850 1_555
Cu9 Pd0 2.661541 1_555
Cu9 Pd1 2.996627 1_545
Cu10 Pd2 2.584771 1_555
Cu10 Pd3 2.584771 1_555
Cu10 Pd4 2.584773 1_555
Cu10 Pd1 2.584774 1_555
Pd1 Pd3 2.724508 1_565
Pd1 Pd2 2.901507 1_555
Pd2 Pd4 2.724508 1_554
Pd3 Pd4 2.901507 1_555
