# generated using pymatgen
data_Ag2Te
_symmetry_space_group_name_H-M   'P 1'
_cell_length_a   4.51491896
_cell_length_b   4.51491905
_cell_length_c   9.11108626
_cell_angle_alpha   108.04029370
_cell_angle_beta   108.04029284
_cell_angle_gamma   112.02774629
_symmetry_Int_Tables_number   1
_chemical_formula_structural   Ag2Te
_chemical_formula_sum   'Ag4 Te2'
_cell_volume   143.33138828
_cell_formula_units_Z   2
loop_
 _symmetry_equiv_pos_site_id
 _symmetry_equiv_pos_as_xyz
  1  'x, y, z'
loop_
 _atom_site_type_symbol
 _atom_site_label
 _atom_site_symmetry_multiplicity
 _atom_site_fract_x
 _atom_site_fract_y
 _atom_site_fract_z
 _atom_site_occupancy
  Ag  Ag0  1  0.49962896  0.21571452  0.85767174  1
  Ag  Ag1  1  0.21571452  0.49962896  0.35767174  1
  Ag  Ag2  1  0.78428548  0.50037104  0.64232826  1
  Ag  Ag3  1  0.50037104  0.78428548  0.14232826  1
  Te  Te0  1  -0.00000000  -0.00000000  0.50000000  1
  Te  Te1  1  -0.00000000  -0.00000000  0.00000000  1
loop_
_geom_bond_atom_site_label_1
_geom_bond_atom_site_label_2
_geom_bond_distance
_geom_bond_site_symmetry_2
Ag0 Te1 2.889986 1_656
Ag0 Te0 2.913746 1_555
Ag0 Te1 2.943598 1_556
Ag0 Te1 2.943598 1_666
Ag0 Ag2 3.006257 1_445
Ag0 Ag2 3.006257 1_555
Ag0 Ag3 3.029971 1_556
Ag1 Te0 2.889986 1_565
Ag1 Te1 2.913746 1_555
Ag1 Te0 2.943598 1_665
Ag1 Te0 2.943598 1_555
Ag1 Ag3 3.006257 1_445
Ag1 Ag3 3.006257 1_555
Ag1 Ag2 3.029971 1_555
Ag2 Te0 2.889986 1_655
Ag2 Te1 2.913746 1_666
Ag2 Te0 2.943598 1_555
Ag2 Te0 2.943598 1_665
Ag3 Te1 2.889986 1_565
Ag3 Te0 2.913746 1_665
Ag3 Te1 2.943598 1_665
Ag3 Te1 2.943598 1_555
