# generated using pymatgen
data_Ba3Si2PtRh6
_symmetry_space_group_name_H-M   'P 1'
_cell_length_a   8.66645922
_cell_length_b   8.66645874
_cell_length_c   8.66645911
_cell_angle_alpha   39.28528467
_cell_angle_beta   39.28528804
_cell_angle_gamma   39.28529026
_symmetry_Int_Tables_number   1
_chemical_formula_structural   Ba3Si2PtRh6
_chemical_formula_sum   'Ba3 Si2 Pt1 Rh6'
_cell_volume   234.81631647
_cell_formula_units_Z   1
loop_
 _symmetry_equiv_pos_site_id
 _symmetry_equiv_pos_as_xyz
  1  'x, y, z'
loop_
 _atom_site_type_symbol
 _atom_site_label
 _atom_site_symmetry_multiplicity
 _atom_site_fract_x
 _atom_site_fract_y
 _atom_site_fract_z
 _atom_site_occupancy
  Ba  Ba0  1  0.35747819  0.35747819  0.35747819  1
  Ba  Ba1  1  0.50000000  0.50000000  0.50000000  1
  Ba  Ba2  1  0.64252181  0.64252181  0.64252181  1
  Si  Si0  1  0.17047210  0.17047210  0.17047210  1
  Si  Si1  1  0.82952790  0.82952790  0.82952790  1
  Pt  Pt0  1  0.00000000  0.00000000  0.00000000  1
  Rh  Rh0  1  0.58543751  0.06121735  0.06121635  1
  Rh  Rh1  1  0.06121735  0.58543751  0.06121635  1
  Rh  Rh2  1  0.93878265  0.93878265  0.41456349  1
  Rh  Rh3  1  0.06121735  0.06121735  0.58543651  1
  Rh  Rh4  1  0.93878265  0.41456249  0.93878365  1
  Rh  Rh5  1  0.41456249  0.93878265  0.93878365  1
loop_
_geom_bond_atom_site_label_1
_geom_bond_atom_site_label_2
_geom_bond_distance
_geom_bond_site_symmetry_2
Ba0 Rh5 3.401851 1_554
Ba0 Rh4 3.401852 1_554
Ba0 Rh2 3.401854 1_455
Ba0 Rh2 3.401854 1_545
Ba0 Rh5 3.401856 1_545
Ba0 Rh4 3.401857 1_455
Ba0 Rh3 3.404117 1_555
Ba0 Rh0 3.404120 1_555
Ba0 Rh1 3.404120 1_555
Ba0 Pt0 3.413320 1_556
Ba0 Pt0 3.413320 1_565
Ba0 Pt0 3.413321 1_655
Ba0 Ba1 3.414946 1_555
Ba1 Rh0 3.354120 1_556
Ba1 Rh5 3.354120 1_554
Ba1 Rh1 3.354120 1_556
Ba1 Rh4 3.354120 1_554
Ba1 Rh3 3.354123 1_565
Ba1 Rh2 3.354123 1_545
Ba1 Rh3 3.354123 1_655
Ba1 Rh2 3.354123 1_455
Ba1 Rh0 3.354125 1_565
Ba1 Rh5 3.354125 1_545
Ba1 Rh1 3.354125 1_655
Ba1 Rh4 3.354125 1_455
Ba1 Si0 3.365170 1_556
Ba1 Si1 3.365170 1_554
Ba1 Si0 3.365170 1_565
Ba1 Si1 3.365170 1_545
Ba1 Si0 3.365171 1_655
Ba1 Si1 3.365171 1_455
Ba1 Ba2 3.414946 1_555
Ba2 Rh0 3.401851 1_556
Ba2 Rh1 3.401852 1_556
Ba2 Rh3 3.401854 1_655
Ba2 Rh3 3.401854 1_565
Ba2 Rh0 3.401856 1_565
Ba2 Rh1 3.401857 1_655
Ba2 Rh2 3.404117 1_555
Ba2 Rh5 3.404120 1_555
Ba2 Rh4 3.404120 1_555
Ba2 Pt0 3.413320 1_665
Ba2 Pt0 3.413320 1_656
Ba2 Pt0 3.413321 1_566
Pt0 Rh4 2.829396 1_454
Pt0 Rh1 2.829396 1_545
Pt0 Rh5 2.829396 1_544
Pt0 Rh0 2.829396 1_455
Pt0 Rh2 2.829399 1_445
Pt0 Rh3 2.829399 1_554
Rh0 Si0 2.360453 1_555
Rh0 Si1 2.372575 1_544
Rh1 Si0 2.360452 1_555
Rh1 Si1 2.372575 1_454
Rh2 Si1 2.360449 1_555
Rh2 Si0 2.372578 1_665
Rh3 Si0 2.360449 1_555
Rh3 Si1 2.372578 1_445
Rh4 Si1 2.360452 1_555
Rh4 Si0 2.372575 1_656
Rh5 Si1 2.360453 1_555
Rh5 Si0 2.372575 1_566
