# generated using pymatgen
data_Li2V(PO4)2
_symmetry_space_group_name_H-M   'P 1'
_cell_length_a   12.62441900
_cell_length_b   6.27347400
_cell_length_c   7.55313949
_cell_angle_alpha   82.09833681
_cell_angle_beta   90.00000000
_cell_angle_gamma   90.00000000
_symmetry_Int_Tables_number   1
_chemical_formula_structural   Li2V(PO4)2
_chemical_formula_sum   'Li8 V4 P8 O32'
_cell_volume   592.52119115
_cell_formula_units_Z   4
loop_
 _symmetry_equiv_pos_site_id
 _symmetry_equiv_pos_as_xyz
  1  'x, y, z'
loop_
 _atom_site_type_symbol
 _atom_site_label
 _atom_site_symmetry_multiplicity
 _atom_site_fract_x
 _atom_site_fract_y
 _atom_site_fract_z
 _atom_site_occupancy
  Li  Li0  1  0.88491200  0.54329400  0.55536000  1
  Li  Li1  1  0.72767600  0.19603200  0.90744000  1
  Li  Li2  1  0.61508800  0.04329400  0.55536000  1
  Li  Li3  1  0.11508800  0.45670600  0.44464000  1
  Li  Li4  1  0.77232400  0.69603200  0.90744000  1
  Li  Li5  1  0.27232400  0.80396800  0.09256000  1
  Li  Li6  1  0.22767600  0.30396800  0.09256000  1
  Li  Li7  1  0.38491200  0.95670600  0.44464000  1
  V  V0  1  0.42014500  0.25171400  0.77418500  1
  V  V1  1  0.57985500  0.74828600  0.22581500  1
  V  V2  1  0.07985500  0.75171400  0.77418500  1
  V  V3  1  0.92014500  0.24828600  0.22581500  1
  P  P0  1  0.35769500  0.46199100  0.36076000  1
  P  P1  1  0.47459000  0.74011800  0.82805700  1
  P  P2  1  0.14230500  0.96199100  0.36076000  1
  P  P3  1  0.85769500  0.03800900  0.63924000  1
  P  P4  1  0.02541000  0.24011800  0.82805700  1
  P  P5  1  0.97459000  0.75988200  0.17194300  1
  P  P6  1  0.64230500  0.53800900  0.63924000  1
  P  P7  1  0.52541000  0.25988200  0.17194300  1
  O  O0  1  0.24693300  0.51142900  0.28595200  1
  O  O1  1  0.96198300  0.54555100  0.30008300  1
  O  O2  1  0.40638800  0.33782600  0.20124300  1
  O  O3  1  0.46570900  0.77127300  0.02436000  1
  O  O4  1  0.31768600  0.16925200  0.90302400  1
  O  O5  1  0.57395400  0.34001000  0.62654600  1
  O  O6  1  0.90056600  0.93141700  0.22576800  1
  O  O7  1  0.59361200  0.66217400  0.79875700  1
  O  O8  1  0.74693300  0.98857100  0.71404800  1
  O  O9  1  0.81768600  0.33074800  0.09697600  1
  O  O10  1  0.92604600  0.84001000  0.62654600  1
  O  O11  1  0.59943400  0.43141700  0.22576800  1
  O  O12  1  0.53801700  0.04555100  0.30008300  1
  O  O13  1  0.46198300  0.95444900  0.69991700  1
  O  O14  1  0.03801700  0.45444900  0.69991700  1
  O  O15  1  0.75306700  0.48857100  0.71404800  1
  O  O16  1  0.09361200  0.83782600  0.20124300  1
  O  O17  1  0.14160100  0.78975100  0.52699600  1
  O  O18  1  0.42604600  0.65999000  0.37345400  1
  O  O19  1  0.03429100  0.27127300  0.02436000  1
  O  O20  1  0.64160100  0.71024900  0.47300400  1
  O  O21  1  0.25306700  0.01142900  0.28595200  1
  O  O22  1  0.85839900  0.21024900  0.47300400  1
  O  O23  1  0.18231400  0.66925200  0.90302400  1
  O  O24  1  0.40056600  0.56858300  0.77423200  1
  O  O25  1  0.96570900  0.72872700  0.97564000  1
  O  O26  1  0.53429100  0.22872700  0.97564000  1
  O  O27  1  0.68231400  0.83074800  0.09697600  1
  O  O28  1  0.07395400  0.15999000  0.37345400  1
  O  O29  1  0.90638800  0.16217400  0.79875700  1
  O  O30  1  0.09943400  0.06858300  0.77423200  1
  O  O31  1  0.35839900  0.28975100  0.52699600  1
loop_
_geom_bond_atom_site_label_1
_geom_bond_atom_site_label_2
_geom_bond_distance
_geom_bond_site_symmetry_2
Li0 O15 2.052266 1_555
Li0 O10 2.073380 1_555
Li0 O1 2.158034 1_555
Li0 O14 2.251987 1_655
Li0 O22 2.285103 1_555
Li1 O9 2.094660 1_556
Li1 O8 2.099859 1_545
Li1 O15 2.206234 1_555
Li1 O29 2.420140 1_555
Li1 O26 2.509338 1_555
Li1 O27 2.593614 1_546
Li2 O8 2.052266 1_545
Li2 O5 2.073380 1_555
Li2 O12 2.158034 1_555
Li2 O13 2.251987 1_545
Li2 O20 2.285103 1_545
Li3 O0 2.052266 1_555
Li3 O28 2.073380 1_555
Li3 O14 2.158034 1_555
Li3 O1 2.251987 1_455
Li3 O17 2.285103 1_555
Li4 O27 2.094660 1_556
Li4 O15 2.099859 1_555
Li4 O8 2.206234 1_555
Li4 O7 2.420140 1_555
Li4 O25 2.509338 1_555
Li4 O9 2.593614 1_556
Li5 O23 2.094660 1_554
Li5 O21 2.099859 1_565
Li5 O0 2.206234 1_555
Li5 O16 2.420140 1_555
Li5 O3 2.509338 1_555
Li5 O4 2.593614 1_564
Li6 O4 2.094660 1_554
Li6 O0 2.099859 1_555
Li6 O21 2.206234 1_555
Li6 O2 2.420140 1_555
Li6 O19 2.509338 1_555
Li6 O23 2.593614 1_554
Li7 O21 2.052266 1_565
Li7 O18 2.073380 1_555
Li7 O13 2.158034 1_555
Li7 O12 2.251987 1_565
Li7 O31 2.285103 1_565
O0 P0 1.523986 1_555
O1 P5 1.553132 1_555
O1 V3 2.087838 1_555
O2 P7 1.604864 1_555
O2 P0 1.641449 1_555
O3 P1 1.526060 1_554
O3 V1 2.086227 1_555
O4 V0 1.658105 1_555
O5 P6 1.526249 1_555
O5 V0 2.269564 1_555
O6 P5 1.522141 1_555
O6 V3 2.003226 1_565
O7 P1 1.604864 1_555
O7 P6 1.641449 1_555
O8 P3 1.523986 1_565
O9 V3 1.658105 1_555
O10 P3 1.526249 1_565
O10 V2 2.269564 1_655
O11 P7 1.522141 1_555
O11 V1 2.003226 1_555
O12 P7 1.553132 1_555
O12 V1 2.087838 1_545
O13 P1 1.553132 1_555
O13 V0 2.087838 1_565
O14 P4 1.553132 1_555
O14 V2 2.087838 1_555
O15 P6 1.523986 1_555
O16 P5 1.604864 1_455
O16 P2 1.641449 1_555
O17 P2 1.539858 1_555
O17 V2 2.006979 1_555
O18 P0 1.526249 1_555
O18 V1 2.269564 1_555
O19 P4 1.526060 1_554
O19 V3 2.086227 1_455
O20 P6 1.539858 1_555
O20 V1 2.006979 1_555
O21 P2 1.523986 1_545
O22 P3 1.539858 1_555
O22 V3 2.006979 1_555
O23 V2 1.658105 1_555
O24 P1 1.522141 1_555
O24 V0 2.003226 1_555
O25 P5 1.526060 1_556
O25 V2 2.086227 1_655
O26 P7 1.526060 1_556
O26 V0 2.086227 1_555
O27 V1 1.658105 1_555
O28 P2 1.526249 1_545
O28 V3 2.269564 1_455
O29 P4 1.604864 1_655
O29 P3 1.641449 1_555
O30 P4 1.522141 1_555
O30 V2 2.003226 1_545
O31 P0 1.539858 1_555
O31 V0 2.006979 1_555
