# generated using pymatgen
data_SrY3(AsPt)4
_symmetry_space_group_name_H-M   'P 1'
_cell_length_a   4.27796011
_cell_length_b   4.27795974
_cell_length_c   15.98654843
_cell_angle_alpha   90.00000000
_cell_angle_beta   90.00000000
_cell_angle_gamma   119.99999523
_symmetry_Int_Tables_number   1
_chemical_formula_structural   SrY3(AsPt)4
_chemical_formula_sum   'Sr1 Y3 As4 Pt4'
_cell_volume   253.37209614
_cell_formula_units_Z   1
loop_
 _symmetry_equiv_pos_site_id
 _symmetry_equiv_pos_as_xyz
  1  'x, y, z'
loop_
 _atom_site_type_symbol
 _atom_site_label
 _atom_site_symmetry_multiplicity
 _atom_site_fract_x
 _atom_site_fract_y
 _atom_site_fract_z
 _atom_site_occupancy
  Sr  Sr0  1  0.00000000  0.00000000  0.00000000  1
  Y  Y0  1  0.00000000  0.00000000  0.50000000  1
  Y  Y1  1  0.00000000  0.00000000  0.25573938  1
  Y  Y2  1  0.00000000  0.00000000  0.74426062  1
  As  As0  1  0.33333300  0.66666700  0.86760116  1
  As  As1  1  0.66666700  0.33333300  0.38625151  1
  As  As2  1  0.66666700  0.33333300  0.13239884  1
  As  As3  1  0.33333300  0.66666700  0.61374849  1
  Pt  Pt0  1  0.33333300  0.66666700  0.37442740  1
  Pt  Pt1  1  0.66666700  0.33333300  0.85003147  1
  Pt  Pt2  1  0.66666700  0.33333300  0.62557260  1
  Pt  Pt3  1  0.33333300  0.66666700  0.14996853  1
loop_
_geom_bond_atom_site_label_1
_geom_bond_atom_site_label_2
_geom_bond_distance
_geom_bond_site_symmetry_2
As0 Pt1 2.485799 1_565
As0 Pt1 2.485799 1_455
As0 Pt1 2.485806 1_555
As0 Y2 3.160420 1_565
As0 Y2 3.160423 1_555
As0 Y2 3.160423 1_665
As0 Sr0 3.252737 1_566
As0 Sr0 3.252740 1_556
As0 Sr0 3.252740 1_666
As1 Pt0 2.477102 1_545
As1 Pt0 2.477102 1_655
As1 Pt0 2.477109 1_555
As1 Y0 3.067091 1_655
As1 Y0 3.067094 1_665
As1 Y0 3.067094 1_555
As1 Y1 3.233191 1_655
As1 Y1 3.233194 1_665
As1 Y1 3.233195 1_555
As2 Pt3 2.485799 1_545
As2 Pt3 2.485799 1_655
As2 Pt3 2.485806 1_555
As2 Y1 3.160420 1_655
As2 Y1 3.160423 1_665
As2 Y1 3.160423 1_555
As2 Sr0 3.252737 1_655
As2 Sr0 3.252740 1_665
As2 Sr0 3.252740 1_555
As3 Pt2 2.477102 1_565
As3 Pt2 2.477102 1_455
As3 Pt2 2.477109 1_555
As3 Y0 3.067091 1_565
As3 Y0 3.067094 1_555
As3 Y0 3.067094 1_665
As3 Y2 3.233191 1_565
As3 Y2 3.233194 1_555
As3 Y2 3.233195 1_665
Pt0 Y1 3.114558 1_565
Pt0 Y1 3.114561 1_555
Pt0 Y1 3.114561 1_665
Pt0 Y0 3.182805 1_565
Pt0 Y0 3.182808 1_555
Pt0 Y0 3.182808 1_665
Pt1 Y2 2.993239 1_655
Pt1 Y2 2.993242 1_665
Pt1 Y2 2.993242 1_555
Pt1 Sr0 3.442122 1_656
Pt1 Sr0 3.442125 1_666
Pt1 Sr0 3.442125 1_556
Pt2 Y2 3.114558 1_655
Pt2 Y2 3.114561 1_665
Pt2 Y2 3.114561 1_555
Pt2 Y0 3.182805 1_655
Pt2 Y0 3.182808 1_665
Pt2 Y0 3.182808 1_555
Pt3 Y1 2.993239 1_565
Pt3 Y1 2.993242 1_555
Pt3 Y1 2.993242 1_665
Pt3 Sr0 3.442122 1_565
Pt3 Sr0 3.442125 1_555
Pt3 Sr0 3.442125 1_665
