# generated using pymatgen
data_Na2ReF6
_symmetry_space_group_name_H-M   'P 1'
_cell_length_a   4.99636252
_cell_length_b   4.99636252
_cell_length_c   10.07026177
_cell_angle_alpha   90.00000000
_cell_angle_beta   90.00000000
_cell_angle_gamma   90.00000000
_symmetry_Int_Tables_number   1
_chemical_formula_structural   Na2ReF6
_chemical_formula_sum   'Na4 Re2 F12'
_cell_volume   251.39037382
_cell_formula_units_Z   2
loop_
 _symmetry_equiv_pos_site_id
 _symmetry_equiv_pos_as_xyz
  1  'x, y, z'
loop_
 _atom_site_type_symbol
 _atom_site_label
 _atom_site_symmetry_multiplicity
 _atom_site_fract_x
 _atom_site_fract_y
 _atom_site_fract_z
 _atom_site_occupancy
  Na  Na0  1  0.00000000  0.00000000  0.33554057  1
  Na  Na1  1  0.50000000  0.50000000  0.83554057  1
  Na  Na2  1  0.00000000  0.00000000  0.66445943  1
  Na  Na3  1  0.50000000  0.50000000  0.16445943  1
  Re  Re0  1  0.00000000  0.00000000  0.00000000  1
  Re  Re1  1  0.50000000  0.50000000  0.50000000  1
  F  F0  1  0.68508428  0.68508428  0.64710721  1
  F  F1  1  0.31491572  0.31491572  0.64710721  1
  F  F2  1  0.68508428  0.68508428  0.35289279  1
  F  F3  1  0.18508428  0.81491572  0.14710721  1
  F  F4  1  0.81491572  0.18508428  0.14710721  1
  F  F5  1  0.81491572  0.18508428  0.85289279  1
  F  F6  1  0.27949870  0.27949870  0.00000000  1
  F  F7  1  0.22050130  0.77949870  0.50000000  1
  F  F8  1  0.77949870  0.22050130  0.50000000  1
  F  F9  1  0.72050130  0.72050130  0.00000000  1
  F  F10  1  0.31491572  0.31491572  0.35289279  1
  F  F11  1  0.18508428  0.81491572  0.85289279  1
loop_
_geom_bond_atom_site_label_1
_geom_bond_atom_site_label_2
_geom_bond_distance
_geom_bond_site_symmetry_2
F0 Re1 1.976079 1_555
F0 Na2 2.232021 1_665
F0 Na1 2.304583 1_555
F1 Re1 1.976079 1_555
F1 Na2 2.232021 1_555
F1 Na1 2.304583 1_555
F2 Re1 1.976079 1_555
F2 Na0 2.232021 1_665
F2 Na3 2.304583 1_555
F3 Re0 1.976079 1_565
F3 Na3 2.232021 1_555
F3 Na0 2.304583 1_565
F4 Re0 1.976079 1_655
F4 Na3 2.232021 1_555
F4 Na0 2.304583 1_655
F5 Re0 1.976079 1_656
F5 Na1 2.232021 1_555
F5 Na2 2.304583 1_655
F6 Re0 1.974916 1_555
F6 Na1 2.273837 1_554
F6 Na3 2.273837 1_555
F7 Re1 1.974916 1_555
F7 Na0 2.273837 1_565
F7 Na2 2.273837 1_565
F8 Re1 1.974916 1_555
F8 Na0 2.273837 1_655
F8 Na2 2.273837 1_655
F9 Re0 1.974916 1_665
F9 Na1 2.273837 1_554
F9 Na3 2.273837 1_555
F10 Re1 1.976079 1_555
F10 Na0 2.232021 1_555
F10 Na3 2.304583 1_555
F11 Re0 1.976079 1_566
F11 Na1 2.232021 1_555
F11 Na2 2.304583 1_565
