# generated using pymatgen
data_Lu4Sn2Sb4Rh7
_symmetry_space_group_name_H-M   'P 1'
_cell_length_a   7.48825402
_cell_length_b   7.48825470
_cell_length_c   7.48697511
_cell_angle_alpha   109.45734666
_cell_angle_beta   109.45733528
_cell_angle_gamma   109.50590874
_symmetry_Int_Tables_number   1
_chemical_formula_structural   Lu4Sn2Sb4Rh7
_chemical_formula_sum   'Lu4 Sn2 Sb4 Rh7'
_cell_volume   323.15319501
_cell_formula_units_Z   1
loop_
 _symmetry_equiv_pos_site_id
 _symmetry_equiv_pos_as_xyz
  1  'x, y, z'
loop_
 _atom_site_type_symbol
 _atom_site_label
 _atom_site_symmetry_multiplicity
 _atom_site_fract_x
 _atom_site_fract_y
 _atom_site_fract_z
 _atom_site_occupancy
  Lu  Lu0  1  0.49182298  0.00089929  0.00000000  1
  Lu  Lu1  1  0.99910071  0.50817702  1.00000000  1
  Lu  Lu2  1  0.99833433  0.00166567  0.50000000  1
  Lu  Lu3  1  0.49833433  0.50166567  0.50000000  1
  Sn  Sn0  1  0.99644971  0.30971819  0.30616790  1
  Sn  Sn1  1  0.69028181  0.00355029  0.69383210  1
  Sb  Sb0  1  0.68249806  0.68777131  1.00000000  1
  Sb  Sb1  1  0.99720434  0.67745220  0.67465554  1
  Sb  Sb2  1  0.32254780  0.00279566  0.32534446  1
  Sb  Sb3  1  0.31222869  0.31750194  0.00000000  1
  Rh  Rh0  1  0.00867283  0.99132717  0.00000000  1
  Rh  Rh1  1  0.50148332  0.75066966  0.25215398  1
  Rh  Rh2  1  0.74716952  0.49869918  0.24586870  1
  Rh  Rh3  1  0.25161921  0.74838079  0.50000000  1
  Rh  Rh4  1  0.24933034  0.49851668  0.74784602  1
  Rh  Rh5  1  0.50130082  0.25283048  0.75413130  1
  Rh  Rh6  1  0.75161921  0.24838079  0.50000000  1
loop_
_geom_bond_atom_site_label_1
_geom_bond_atom_site_label_2
_geom_bond_distance
_geom_bond_site_symmetry_2
Lu0 Rh2 3.043649 1_555
Lu0 Rh5 3.043650 1_554
Lu0 Rh3 3.058027 1_544
Lu0 Rh6 3.058027 1_555
Lu0 Rh4 3.071895 1_544
Lu0 Rh1 3.071902 1_545
Lu0 Sb3 3.091687 1_555
Lu0 Sb1 3.096164 1_444
Lu0 Sb2 3.096171 1_555
Lu0 Sn0 3.121462 1_555
Lu0 Sn1 3.121463 1_554
Lu0 Sb0 3.126094 1_544
Lu1 Rh5 3.043649 1_555
Lu1 Rh2 3.043649 1_556
Lu1 Rh6 3.058027 1_555
Lu1 Rh3 3.058027 1_656
Lu1 Rh1 3.071895 1_656
Lu1 Rh4 3.071901 1_655
Lu1 Sb0 3.091687 1_555
Lu1 Sb2 3.096164 1_666
Lu1 Sb1 3.096171 1_555
Lu1 Sn1 3.121462 1_555
Lu1 Sn0 3.121463 1_556
Lu1 Sb3 3.126093 1_656
Lu2 Rh6 3.017544 1_555
Lu2 Rh1 3.037356 1_545
Lu2 Rh4 3.037356 1_655
Lu2 Rh5 3.074756 1_655
Lu2 Rh2 3.074756 1_545
Lu2 Rh3 3.097898 1_645
Lu2 Sb3 3.107944 1_656
Lu2 Sb0 3.107944 1_544
Lu2 Sn1 3.108981 1_555
Lu2 Sn0 3.108981 1_555
Lu2 Sb2 3.116542 1_655
Lu2 Sb1 3.116542 1_545
Lu3 Rh3 3.017544 1_555
Lu3 Rh4 3.037350 1_555
Lu3 Rh1 3.037350 1_555
Lu3 Rh2 3.074756 1_555
Lu3 Rh5 3.074756 1_555
Lu3 Rh6 3.097898 1_555
Lu3 Sb0 3.107944 1_555
Lu3 Sb3 3.107944 1_555
Lu3 Sn0 3.108980 1_455
Lu3 Sn1 3.108981 1_565
Lu3 Sb1 3.116548 1_555
Lu3 Sb2 3.116548 1_555
Rh0 Sb1 2.716003 1_454
Rh0 Sb2 2.716003 1_565
Rh0 Sb0 2.724891 1_454
Rh0 Sb3 2.724891 1_565
Rh0 Sn0 2.755320 1_465
Rh0 Sn1 2.755321 1_464
Rh1 Sb2 2.673841 1_565
Rh1 Sb3 2.676189 1_555
Rh1 Sb0 2.676194 1_554
Rh1 Sn1 2.728653 1_565
Rh2 Sb1 2.657545 1_555
Rh2 Sb3 2.688486 1_555
Rh2 Sb0 2.688487 1_554
Rh2 Sn0 2.705397 1_555
Rh3 Sb1 2.658602 1_455
Rh3 Sb2 2.658602 1_565
Rh3 Sn1 2.707842 1_565
Rh3 Sn0 2.707842 1_455
Rh4 Sb1 2.673841 1_455
Rh4 Sb0 2.676189 1_555
Rh4 Sb3 2.676195 1_556
Rh4 Sn0 2.728654 1_455
Rh5 Sb2 2.657545 1_555
Rh5 Sb0 2.688486 1_555
Rh5 Sb3 2.688486 1_556
Rh5 Sn1 2.705397 1_555
Rh6 Sb2 2.658608 1_555
Rh6 Sb1 2.658609 1_555
Rh6 Sn0 2.707842 1_555
Rh6 Sn1 2.707843 1_555
