# generated using pymatgen
data_RbSrCrN3
_symmetry_space_group_name_H-M   'P 1'
_cell_length_a   6.44771840
_cell_length_b   6.44771861
_cell_length_c   12.34684193
_cell_angle_alpha   90.00000000
_cell_angle_beta   90.00000000
_cell_angle_gamma   127.30825264
_symmetry_Int_Tables_number   1
_chemical_formula_structural   RbSrCrN3
_chemical_formula_sum   'Rb4 Sr4 Cr4 N12'
_cell_volume   408.26868601
_cell_formula_units_Z   4
loop_
 _symmetry_equiv_pos_site_id
 _symmetry_equiv_pos_as_xyz
  1  'x, y, z'
loop_
 _atom_site_type_symbol
 _atom_site_label
 _atom_site_symmetry_multiplicity
 _atom_site_fract_x
 _atom_site_fract_y
 _atom_site_fract_z
 _atom_site_occupancy
  Rb  Rb0  1  0.54079426  0.45920574  0.64168801  1
  Rb  Rb1  1  0.45920574  0.54079426  0.35831199  1
  Rb  Rb2  1  0.95920574  0.04079426  0.14168801  1
  Rb  Rb3  1  0.04079426  0.95920574  0.85831199  1
  Sr  Sr0  1  0.85106053  0.14893947  0.58421956  1
  Sr  Sr1  1  0.14893947  0.85106053  0.41578044  1
  Sr  Sr2  1  0.64893947  0.35106053  0.08421956  1
  Sr  Sr3  1  0.35106053  0.64893947  0.91578044  1
  Cr  Cr0  1  0.72594985  0.27405015  0.83406432  1
  Cr  Cr1  1  0.27405015  0.72594985  0.16593568  1
  Cr  Cr2  1  0.77405015  0.22594985  0.33406432  1
  Cr  Cr3  1  0.22594985  0.77405015  0.66593568  1
  N  N0  1  0.81113505  0.18886495  0.94329128  1
  N  N1  1  0.18886495  0.81113505  0.05670872  1
  N  N2  1  0.68886495  0.31113505  0.44329128  1
  N  N3  1  0.31113505  0.68886495  0.55670872  1
  N  N4  1  0.58767546  0.41232454  0.87636798  1
  N  N5  1  0.41232454  0.58767546  0.12363202  1
  N  N6  1  0.91232454  0.08767546  0.37636798  1
  N  N7  1  0.08767546  0.91232454  0.62363202  1
  N  N8  1  0.51136539  0.98863461  0.75000000  1
  N  N9  1  0.98863461  0.51136539  0.25000000  1
  N  N10  1  0.48863461  0.01136539  0.25000000  1
  N  N11  1  0.01136539  0.48863461  0.75000000  1
loop_
_geom_bond_atom_site_label_1
_geom_bond_atom_site_label_2
_geom_bond_distance
_geom_bond_site_symmetry_2
Cr0 N0 1.669667 1_555
Cr0 N4 1.681100 1_555
Cr0 N11 1.814313 1_655
Cr0 N8 1.814313 1_545
Cr1 N1 1.669667 1_555
Cr1 N5 1.681100 1_555
Cr1 N9 1.814313 1_455
Cr1 N10 1.814313 1_565
Cr2 N2 1.669667 1_555
Cr2 N6 1.681100 1_555
Cr2 N10 1.814313 1_555
Cr2 N9 1.814313 1_555
Cr3 N3 1.669667 1_555
Cr3 N7 1.681100 1_555
Cr3 N8 1.814313 1_555
Cr3 N11 1.814313 1_555
N0 Sr2 2.557497 1_556
N0 Rb3 2.853820 1_645
N0 Sr3 2.918219 1_655
N0 Sr3 2.918219 1_545
N0 Rb2 2.988025 1_556
N1 Sr3 2.557497 1_554
N1 Rb2 2.853820 1_465
N1 Sr2 2.918219 1_455
N1 Sr2 2.918219 1_565
N1 Rb3 2.988025 1_554
N2 Sr0 2.557497 1_555
N2 Rb1 2.853820 1_555
N2 Sr1 2.918219 1_545
N2 Sr1 2.918219 1_655
N2 Rb0 2.988025 1_555
N3 Sr1 2.557497 1_555
N3 Rb0 2.853820 1_555
N3 Sr0 2.918219 1_565
N3 Sr0 2.918219 1_455
N3 Rb1 2.988025 1_555
N4 Sr2 2.662173 1_556
N4 Sr3 2.777287 1_555
N4 Rb3 2.920780 1_545
N4 Rb3 2.920780 1_655
N4 Rb0 2.947768 1_555
N5 Sr3 2.662173 1_554
N5 Sr2 2.777287 1_555
N5 Rb2 2.920780 1_565
N5 Rb2 2.920780 1_455
N5 Rb1 2.947768 1_555
N6 Sr0 2.662173 1_555
N6 Sr1 2.777287 1_645
N6 Rb1 2.920780 1_655
N6 Rb1 2.920780 1_545
N6 Rb2 2.947768 1_555
N7 Sr1 2.662173 1_555
N7 Sr0 2.777287 1_465
N7 Rb0 2.920780 1_455
N7 Rb0 2.920780 1_565
N7 Rb3 2.947768 1_555
N8 Sr0 2.703879 1_565
N8 Sr3 2.703879 1_555
N9 Sr2 2.703879 1_555
N9 Sr1 2.703879 1_655
N10 Sr1 2.703879 1_545
N10 Sr2 2.703879 1_555
N11 Sr3 2.703879 1_555
N11 Sr0 2.703879 1_455
