# generated using pymatgen
data_Lu12In2NiOs2
_symmetry_space_group_name_H-M   'P 1'
_cell_length_a   8.17549867
_cell_length_b   8.17549919
_cell_length_c   8.17549828
_cell_angle_alpha   108.71235462
_cell_angle_beta   108.71235543
_cell_angle_gamma   110.99984736
_symmetry_Int_Tables_number   1
_chemical_formula_structural   Lu12In2NiOs2
_chemical_formula_sum   'Lu12 In2 Ni1 Os2'
_cell_volume   420.42475905
_cell_formula_units_Z   1
loop_
 _symmetry_equiv_pos_site_id
 _symmetry_equiv_pos_as_xyz
  1  'x, y, z'
loop_
 _atom_site_type_symbol
 _atom_site_label
 _atom_site_symmetry_multiplicity
 _atom_site_fract_x
 _atom_site_fract_y
 _atom_site_fract_z
 _atom_site_occupancy
  Lu  Lu0  1  0.29935009  0.29935009  0.61069744  1
  Lu  Lu1  1  0.68865165  0.68865165  0.38930256  1
  Lu  Lu2  1  0.68865165  0.29935009  0.00000000  1
  Lu  Lu3  1  0.29935009  0.68865165  0.00000000  1
  Lu  Lu4  1  0.19038184  0.42933663  0.23895679  1
  Lu  Lu5  1  0.80817421  0.56827921  0.76010500  1
  Lu  Lu6  1  0.19038184  0.95142405  0.76104321  1
  Lu  Lu7  1  0.95142405  0.19038184  0.76104321  1
  Lu  Lu8  1  0.80817421  0.04807121  0.23989500  1
  Lu  Lu9  1  0.04807121  0.80817421  0.23989500  1
  Lu  Lu10  1  0.42933663  0.19038184  0.23895679  1
  Lu  Lu11  1  0.56827921  0.80817421  0.76010500  1
  In  In0  1  0.99886219  0.49886219  0.50000000  1
  In  In1  1  0.49886219  0.99886219  0.50000000  1
  Ni  Ni0  1  0.64604677  0.64604677  0.00000000  1
  Os  Os0  1  0.38830817  0.38830817  1.00000000  1
  Os  Os1  1  0.99769501  0.99769501  0.00000000  1
loop_
_geom_bond_atom_site_label_1
_geom_bond_atom_site_label_2
_geom_bond_distance
_geom_bond_site_symmetry_2
Lu0 Os0 2.799676 1_555
Lu0 Ni0 2.977060 1_556
Lu0 Lu7 3.394874 1_455
Lu0 Lu6 3.394874 1_545
Lu0 Lu8 3.437447 1_455
Lu0 Lu9 3.437447 1_545
Lu0 Lu5 3.477350 1_555
Lu0 Lu11 3.477350 1_555
Lu0 Lu10 3.489004 1_555
Lu0 Lu4 3.489004 1_555
Lu1 Os0 2.799673 1_554
Lu1 Ni0 2.977064 1_555
Lu1 Lu4 3.394860 1_555
Lu1 Lu10 3.394861 1_555
Lu1 Lu11 3.437441 1_555
Lu1 Lu5 3.437441 1_555
Lu1 Lu9 3.477372 1_655
Lu1 Lu8 3.477372 1_565
Lu1 Lu6 3.489021 1_655
Lu1 Lu7 3.489021 1_565
Lu2 Os0 2.799668 1_554
Lu2 Ni0 2.977056 1_555
Lu2 Lu6 3.394863 1_544
Lu2 Lu8 3.437434 1_555
Lu2 Lu5 3.477352 1_554
Lu2 Lu9 3.477356 1_655
Lu2 Lu7 3.489015 1_554
Lu2 Lu4 3.489028 1_655
Lu3 Os0 2.799668 1_554
Lu3 Ni0 2.977056 1_555
Lu3 Lu7 3.394863 1_454
Lu3 Lu4 3.394873 1_555
Lu3 Lu9 3.437433 1_555
Lu3 Lu5 3.437448 1_454
Lu3 Lu8 3.477356 1_565
Lu3 Lu6 3.489015 1_554
Lu4 Os1 2.892873 1_445
Lu4 Os0 2.923068 1_554
Lu4 Lu7 3.220008 1_454
Lu4 Lu8 3.539742 1_455
Lu4 Lu9 3.676881 1_555
Lu5 Ni0 2.734879 1_556
Lu5 Os1 2.881977 1_556
Lu5 Lu9 3.232651 1_656
Lu5 Lu6 3.539756 1_655
Lu5 Lu7 3.676870 1_555
Lu6 Os1 2.892887 1_456
Lu6 Os0 2.923076 1_565
Lu6 Lu7 3.220021 1_465
Lu6 Lu9 3.676879 1_555
Lu7 Os1 2.892887 1_546
Lu7 Os0 2.923076 1_655
Lu7 Lu8 3.676879 1_555
Lu8 Ni0 2.734892 1_545
Lu8 Os1 2.881979 1_545
Lu8 Lu9 3.232678 1_645
Lu9 Ni0 2.734892 1_455
Lu9 Os1 2.881979 1_455
Lu10 Os1 2.892873 1_445
Lu10 Os0 2.923068 1_554
Lu10 Lu4 3.219981 1_555
Lu10 Lu6 3.220008 1_544
Lu10 Lu2 3.394872 1_555
Lu10 Lu3 3.489028 1_545
Lu10 Lu9 3.539742 1_545
Lu10 Lu5 3.676878 1_555
Lu10 Lu8 3.676881 1_555
Lu11 Ni0 2.734879 1_556
Lu11 Os1 2.881977 1_556
Lu11 Lu8 3.232651 1_566
Lu11 Lu5 3.232651 1_555
Lu11 Lu2 3.437448 1_566
Lu11 Lu3 3.477352 1_556
Lu11 Lu7 3.539756 1_565
Lu11 Lu6 3.676870 1_555
Lu11 Lu4 3.676878 1_555
In0 Lu8 3.043226 1_555
In0 Lu5 3.043238 1_555
In0 Lu6 3.054983 1_655
In0 Lu4 3.054991 1_655
In0 Lu0 3.450687 1_655
In0 Lu1 3.450687 1_555
In0 Lu3 3.450688 1_656
In0 Lu2 3.450688 1_555
In0 Lu11 3.787957 1_655
In0 Lu9 3.787958 1_655
In0 Lu7 3.788000 1_555
In0 Lu10 3.788013 1_555
In1 Lu9 3.043226 1_555
In1 Lu11 3.043239 1_555
In1 Lu7 3.054983 1_565
In1 Lu10 3.054991 1_565
In1 Lu0 3.450687 1_565
In1 Lu1 3.450687 1_555
In1 Lu2 3.450688 1_566
In1 Lu3 3.450688 1_555
In1 Lu5 3.787958 1_565
In1 Lu8 3.787958 1_565
In1 Lu6 3.788000 1_555
In1 Lu4 3.788013 1_555
Ni0 Os0 2.387001 1_554
