# generated using pymatgen
data_NaVRhSe4
_symmetry_space_group_name_H-M   'P 1'
_cell_length_a   7.56239964
_cell_length_b   7.56239902
_cell_length_c   5.93545122
_cell_angle_alpha   77.16499311
_cell_angle_beta   77.16499554
_cell_angle_gamma   27.92672657
_symmetry_Int_Tables_number   1
_chemical_formula_structural   NaVRhSe4
_chemical_formula_sum   'Na1 V1 Rh1 Se4'
_cell_volume   154.75646740
_cell_formula_units_Z   1
loop_
 _symmetry_equiv_pos_site_id
 _symmetry_equiv_pos_as_xyz
  1  'x, y, z'
loop_
 _atom_site_type_symbol
 _atom_site_label
 _atom_site_symmetry_multiplicity
 _atom_site_fract_x
 _atom_site_fract_y
 _atom_site_fract_z
 _atom_site_occupancy
  Na  Na0  1  0.24244018  0.24244018  0.70180300  1
  V  V0  1  0.99077881  0.99077881  0.09278085  1
  Rh  Rh0  1  0.49463852  0.49463852  0.50409080  1
  Se  Se0  1  0.90555861  0.90555861  0.74541213  1
  Se  Se1  1  0.37929164  0.37929164  0.25402302  1
  Se  Se2  1  0.58260481  0.58260481  0.82255912  1
  Se  Se3  1  0.10568843  0.10568843  0.31233108  1
loop_
_geom_bond_atom_site_label_1
_geom_bond_atom_site_label_2
_geom_bond_distance
_geom_bond_site_symmetry_2
Na0 Se2 2.928783 1_545
Na0 Se2 2.928783 1_455
Na0 Se1 2.941850 1_555
Na0 Se0 3.068063 1_455
Na0 Se0 3.068064 1_545
Na0 Se3 3.390748 1_555
Rh0 Se1 2.493974 1_555
Rh0 Se0 2.496748 1_545
Rh0 Se0 2.496748 1_455
Rh0 Se2 2.521408 1_555
Rh0 Se3 2.536314 1_565
Rh0 Se3 2.536314 1_655
Se0 V0 2.645054 1_556
Se1 V0 2.491323 1_455
Se1 V0 2.491323 1_545
Se2 V0 2.594094 1_546
Se2 V0 2.594095 1_456
Se3 V0 2.355651 1_445
