# generated using pymatgen
data_Ca10Cu3Hg2Ir
_symmetry_space_group_name_H-M   'P 1'
_cell_length_a   9.12661883
_cell_length_b   9.12661914
_cell_length_c   9.16610965
_cell_angle_alpha   129.59396013
_cell_angle_beta   129.59396359
_cell_angle_gamma   73.72779639
_symmetry_Int_Tables_number   1
_chemical_formula_structural   Ca10Cu3Hg2Ir
_chemical_formula_sum   'Ca10 Cu3 Hg2 Ir1'
_cell_volume   443.03259354
_cell_formula_units_Z   1
loop_
 _symmetry_equiv_pos_site_id
 _symmetry_equiv_pos_as_xyz
  1  'x, y, z'
loop_
 _atom_site_type_symbol
 _atom_site_label
 _atom_site_symmetry_multiplicity
 _atom_site_fract_x
 _atom_site_fract_y
 _atom_site_fract_z
 _atom_site_occupancy
  Ca  Ca0  1  0.53226130  0.02314014  0.83331208  1
  Ca  Ca1  1  0.19894922  0.68982706  0.16668792  1
  Ca  Ca2  1  0.03098260  0.18962018  0.50000000  1
  Ca  Ca3  1  0.68309764  0.54379496  0.50000000  1
  Ca  Ca4  1  0.47685986  0.96773870  0.16668792  1
  Ca  Ca5  1  0.81017294  0.30105078  0.83331208  1
  Ca  Ca6  1  0.95620504  0.81690236  0.50000000  1
  Ca  Ca7  1  0.31037982  0.46901740  0.50000000  1
  Ca  Ca8  1  0.50242561  0.50655150  0.00897811  1
  Ca  Ca9  1  0.99344850  0.99757439  0.99102189  1
  Cu  Cu0  1  0.38521159  0.11478841  0.50000000  1
  Cu  Cu1  1  0.11032079  0.61065452  0.72097431  1
  Cu  Cu2  1  0.88934548  0.38967921  0.27902569  1
  Hg  Hg0  1  0.25326810  0.24673190  0.00000000  1
  Hg  Hg1  1  0.75326810  0.74673190  0.00000000  1
  Ir  Ir0  1  0.61380341  0.88619659  0.50000000  1
loop_
_geom_bond_atom_site_label_1
_geom_bond_atom_site_label_2
_geom_bond_distance
_geom_bond_site_symmetry_2
Ca0 Ir0 2.993268 1_545
Ca0 Cu0 3.039190 1_555
Ca0 Cu2 3.196797 1_556
Ca0 Hg1 3.301513 1_546
Ca0 Hg0 3.324902 1_556
Ca1 Ir0 2.993271 1_555
Ca1 Cu0 3.039197 1_565
Ca1 Cu1 3.196811 1_554
Ca1 Hg0 3.301505 1_555
Ca1 Hg1 3.324903 1_455
Ca2 Cu2 3.026757 1_455
Ca2 Cu1 3.026767 1_555
Ca2 Cu0 3.111402 1_555
Ca2 Hg1 3.329813 1_445
Ca2 Hg0 3.329813 1_556
Ca3 Ir0 3.009629 1_555
Ca3 Cu2 3.060858 1_555
Ca3 Cu1 3.060867 1_655
Ca3 Hg0 3.308818 1_555
Ca3 Hg1 3.308818 1_556
Ca4 Ir0 2.993268 1_555
Ca4 Cu0 3.039190 1_565
Ca4 Cu1 3.196797 1_554
Ca4 Hg1 3.301513 1_555
Ca4 Hg0 3.324902 1_565
Ca5 Ir0 2.993271 1_545
Ca5 Cu0 3.039197 1_555
Ca5 Cu2 3.196811 1_556
Ca5 Hg0 3.301505 1_656
Ca5 Hg1 3.324903 1_556
Ca6 Ir0 3.009629 1_555
Ca6 Cu1 3.060858 1_655
Ca6 Cu2 3.060868 1_555
Ca6 Hg0 3.308818 1_666
Ca6 Hg1 3.308818 1_555
Ca7 Cu1 3.026757 1_555
Ca7 Cu2 3.026766 1_455
Ca7 Cu0 3.111402 1_555
Ca7 Hg1 3.329813 1_556
Ca7 Hg0 3.329813 1_555
Ca8 Ir0 3.091819 1_555
Ca8 Cu2 3.138060 1_555
Ca8 Cu1 3.150824 1_554
Ca8 Cu0 3.195751 1_554
Ca8 Hg0 3.651732 1_555
Ca8 Hg1 3.651747 1_555
Ca9 Ir0 3.091818 1_555
Ca9 Cu1 3.138061 1_655
Ca9 Cu2 3.150824 1_566
Ca9 Cu0 3.195751 1_666
Ca9 Hg0 3.651732 1_666
Ca9 Hg1 3.651747 1_556
Cu0 Ir0 2.503175 1_545
Cu1 Cu2 2.448741 1_455
