# generated using pymatgen
data_Hf2ReMoW2
_symmetry_space_group_name_H-M   'P 1'
_cell_length_a   5.33481683
_cell_length_b   5.32713409
_cell_length_c   5.33481683
_cell_angle_alpha   120.20294393
_cell_angle_beta   119.76110520
_cell_angle_gamma   90.07317924
_symmetry_Int_Tables_number   1
_chemical_formula_structural   Hf2ReMoW2
_chemical_formula_sum   'Hf2 Re1 Mo1 W2'
_cell_volume   107.19373497
_cell_formula_units_Z   1
loop_
 _symmetry_equiv_pos_site_id
 _symmetry_equiv_pos_as_xyz
  1  'x, y, z'
loop_
 _atom_site_type_symbol
 _atom_site_label
 _atom_site_symmetry_multiplicity
 _atom_site_fract_x
 _atom_site_fract_y
 _atom_site_fract_z
 _atom_site_occupancy
  Hf  Hf0  1  0.12575470  0.87682823  0.25107353  1
  Hf  Hf1  1  0.87424530  0.12317177  0.74892647  1
  Re  Re0  1  0.50000000  0.00000000  0.00000000  1
  Mo  Mo0  1  0.50000000  0.50000000  0.50000000  1
  W  W0  1  0.50000000  0.50000000  0.00000000  1
  W  W1  1  0.00000000  0.50000000  0.50000000  1
loop_
_geom_bond_atom_site_label_1
_geom_bond_atom_site_label_2
_geom_bond_distance
_geom_bond_site_symmetry_2
Hf0 Mo0 3.112163 1_565
Hf0 W0 3.112678 1_566
Hf0 W1 3.112678 1_565
Hf0 Re0 3.121944 1_565
Hf0 W1 3.125662 1_554
Hf0 W0 3.125662 1_555
Hf0 W0 3.131530 1_455
Hf0 W1 3.131530 1_555
Hf0 Re0 3.133616 1_566
Hf0 Re0 3.133616 1_465
Hf0 Mo0 3.136809 1_454
Hf0 Mo0 3.136809 1_555
Hf1 Mo0 3.112163 1_545
Hf1 W0 3.112678 1_545
Hf1 W1 3.112678 1_645
Hf1 Re0 3.121944 1_556
Hf1 W1 3.125662 1_656
Hf1 W0 3.125662 1_556
Hf1 W0 3.131530 1_656
Hf1 W1 3.131530 1_655
Hf1 Re0 3.133616 1_555
Hf1 Re0 3.133616 1_656
Hf1 Mo0 3.136809 1_656
Hf1 Mo0 3.136809 1_555
Re0 W1 2.663567 1_655
Re0 W1 2.663567 1_544
Re0 W0 2.663567 1_545
Re0 W0 2.663567 1_555
Mo0 Re0 2.657309 1_566
Mo0 Re0 2.657309 1_555
Mo0 W1 2.667408 1_555
Mo0 W1 2.667408 1_655
Mo0 W0 2.667408 1_555
Mo0 W0 2.667408 1_556
W0 W1 2.677034 1_655
W0 W1 2.677034 1_554
