# generated using pymatgen
data_Rb8Hf6BCl20
_symmetry_space_group_name_H-M   'P 1'
_cell_length_a   11.25739982
_cell_length_b   11.25740002
_cell_length_c   11.25739946
_cell_angle_alpha   59.99999884
_cell_angle_beta   59.99999824
_cell_angle_gamma   59.99999619
_symmetry_Int_Tables_number   1
_chemical_formula_structural   Rb8Hf6BCl20
_chemical_formula_sum   'Rb8 Hf6 B1 Cl20'
_cell_volume   1008.78646454
_cell_formula_units_Z   1
loop_
 _symmetry_equiv_pos_site_id
 _symmetry_equiv_pos_as_xyz
  1  'x, y, z'
loop_
 _atom_site_type_symbol
 _atom_site_label
 _atom_site_symmetry_multiplicity
 _atom_site_fract_x
 _atom_site_fract_y
 _atom_site_fract_z
 _atom_site_occupancy
  Rb  Rb0  1  0.36013466  0.36013466  0.36013466  1
  Rb  Rb1  1  0.63986534  0.63986534  0.63986534  1
  Rb  Rb2  1  0.36013466  0.36013466  0.91959602  1
  Rb  Rb3  1  0.36013466  0.91959602  0.36013466  1
  Rb  Rb4  1  0.63986534  0.63986534  0.08040398  1
  Rb  Rb5  1  0.63986534  0.08040398  0.63986534  1
  Rb  Rb6  1  0.91959602  0.36013466  0.36013466  1
  Rb  Rb7  1  0.08040398  0.63986534  0.63986534  1
  Hf  Hf0  1  0.85916371  0.14083629  0.14083629  1
  Hf  Hf1  1  0.14083629  0.85916371  0.85916371  1
  Hf  Hf2  1  0.14083629  0.85916371  0.14083629  1
  Hf  Hf3  1  0.85916371  0.14083629  0.85916371  1
  Hf  Hf4  1  0.14083629  0.14083629  0.85916371  1
  Hf  Hf5  1  0.85916371  0.85916371  0.14083629  1
  B  B0  1  0.00000000  0.00000000  0.00000000  1
  Cl  Cl0  1  0.32035527  0.00000000  1.00000000  1
  Cl  Cl1  1  0.67964473  1.00000000  0.00000000  1
  Cl  Cl2  1  0.00000000  0.32035527  0.67964473  1
  Cl  Cl3  1  1.00000000  0.67964473  0.32035527  1
  Cl  Cl4  1  0.00000000  0.32035527  1.00000000  1
  Cl  Cl5  1  0.67964473  1.00000000  0.32035527  1
  Cl  Cl6  1  1.00000000  0.67964473  0.00000000  1
  Cl  Cl7  1  0.32035527  0.00000000  0.67964473  1
  Cl  Cl8  1  0.00000000  0.00000000  0.32035527  1
  Cl  Cl9  1  1.00000000  1.00000000  0.67964473  1
  Cl  Cl10  1  0.67964473  0.32035527  1.00000000  1
  Cl  Cl11  1  0.32035527  0.67964473  0.00000000  1
  Cl  Cl12  1  0.69109391  0.30890609  0.30890609  1
  Cl  Cl13  1  0.30890609  0.69109391  0.69109391  1
  Cl  Cl14  1  0.30890609  0.69109391  0.30890609  1
  Cl  Cl15  1  0.69109391  0.30890609  0.69109391  1
  Cl  Cl16  1  0.30890609  0.30890609  0.69109391  1
  Cl  Cl17  1  0.69109391  0.69109391  0.30890609  1
  Cl  Cl18  1  0.25000000  0.25000000  0.25000000  1
  Cl  Cl19  1  0.75000000  0.75000000  0.75000000  1
loop_
_geom_bond_atom_site_label_1
_geom_bond_atom_site_label_2
_geom_bond_distance
_geom_bond_site_symmetry_2
B0 Hf0 2.242165 1_455
B0 Hf1 2.242165 1_544
B0 Hf2 2.242165 1_545
B0 Hf3 2.242165 1_454
B0 Hf4 2.242166 1_554
B0 Hf5 2.242166 1_445
Cl0 Hf4 2.568610 1_555
Cl0 Hf2 2.568610 1_546
Cl1 Hf5 2.568610 1_555
Cl1 Hf3 2.568610 1_564
Cl2 Hf4 2.568610 1_555
Cl2 Hf3 2.568610 1_455
Cl3 Hf5 2.568610 1_555
Cl3 Hf2 2.568610 1_655
Cl4 Hf4 2.568610 1_555
Cl4 Hf0 2.568610 1_456
Cl5 Hf5 2.568610 1_555
Cl5 Hf0 2.568610 1_565
Cl6 Hf5 2.568610 1_555
Cl6 Hf1 2.568610 1_654
Cl7 Hf4 2.568610 1_555
Cl7 Hf1 2.568610 1_545
Cl8 Hf2 2.568610 1_545
Cl8 Hf0 2.568610 1_455
Cl9 Hf3 2.568610 1_565
Cl9 Hf1 2.568610 1_655
Cl10 Hf0 2.568610 1_556
Cl10 Hf3 2.568610 1_555
Cl11 Hf1 2.568610 1_554
Cl11 Hf2 2.568610 1_555
Cl12 Hf0 2.675733 1_555
Cl12 Rb5 3.252940 1_555
Cl12 Rb4 3.252940 1_555
Cl12 Rb0 3.252940 1_555
Cl12 Rb6 3.252940 1_555
Cl13 Hf1 2.675733 1_555
Cl13 Rb3 3.252940 1_555
Cl13 Rb2 3.252940 1_555
Cl13 Rb1 3.252940 1_555
Cl13 Rb7 3.252940 1_555
Cl14 Hf2 2.675733 1_555
Cl14 Rb7 3.252940 1_555
Cl14 Rb4 3.252940 1_555
Cl14 Rb0 3.252940 1_555
Cl14 Rb3 3.252940 1_555
Cl15 Hf3 2.675733 1_555
Cl15 Rb6 3.252940 1_555
Cl15 Rb2 3.252940 1_555
Cl15 Rb1 3.252940 1_555
Cl15 Rb5 3.252940 1_555
Cl16 Hf4 2.675733 1_555
Cl16 Rb5 3.252940 1_555
Cl16 Rb0 3.252940 1_555
Cl16 Rb7 3.252940 1_555
Cl16 Rb2 3.252940 1_555
Cl17 Hf5 2.675733 1_555
Cl17 Rb3 3.252940 1_555
Cl17 Rb1 3.252940 1_555
Cl17 Rb6 3.252940 1_555
Cl17 Rb4 3.252940 1_555
Cl18 Rb2 3.036950 1_554
Cl18 Rb6 3.036951 1_455
Cl18 Rb3 3.036951 1_545
Cl18 Rb0 3.036951 1_555
Cl19 Rb4 3.036950 1_556
Cl19 Rb7 3.036951 1_655
Cl19 Rb5 3.036951 1_565
Cl19 Rb1 3.036951 1_555
