# generated using pymatgen
data_Na8HfBi4
_symmetry_space_group_name_H-M   'P 1'
_cell_length_a   10.61360855
_cell_length_b   10.61361717
_cell_length_c   10.61361542
_cell_angle_alpha   59.98116080
_cell_angle_beta   59.98110616
_cell_angle_gamma   59.98113098
_symmetry_Int_Tables_number   1
_chemical_formula_structural   Na8HfBi4
_chemical_formula_sum   'Na16 Hf2 Bi8'
_cell_volume   845.06281813
_cell_formula_units_Z   2
loop_
 _symmetry_equiv_pos_site_id
 _symmetry_equiv_pos_as_xyz
  1  'x, y, z'
loop_
 _atom_site_type_symbol
 _atom_site_label
 _atom_site_symmetry_multiplicity
 _atom_site_fract_x
 _atom_site_fract_y
 _atom_site_fract_z
 _atom_site_occupancy
  Na  Na0  1  0.62500000  0.62500000  0.12500000  1
  Na  Na1  1  0.62500000  0.12500000  0.62500000  1
  Na  Na2  1  0.12500000  0.62500000  0.62500000  1
  Na  Na3  1  0.62500000  0.62500000  0.62500000  1
  Na  Na4  1  0.02452244  0.47545941  0.47545941  1
  Na  Na5  1  0.77454424  0.22545553  0.22545553  1
  Na  Na6  1  0.47545941  0.02452244  0.47545941  1
  Na  Na7  1  0.47546041  0.47545941  0.02452244  1
  Na  Na8  1  0.02454447  0.02454447  0.47545576  1
  Na  Na9  1  0.02454447  0.47545576  0.02454447  1
  Na  Na10  1  0.47545576  0.02454447  0.02454447  1
  Na  Na11  1  0.77454059  0.22547756  0.77454059  1
  Na  Na12  1  0.22545553  0.77454424  0.22545553  1
  Na  Na13  1  0.22545553  0.22545553  0.77454424  1
  Na  Na14  1  0.77453959  0.77454059  0.22547756  1
  Na  Na15  1  0.22547756  0.77454059  0.77454059  1
  Hf  Hf0  1  0.75000612  0.75000612  0.75000612  1
  Hf  Hf1  1  0.49999388  0.49999388  0.49999388  1
  Bi  Bi0  1  0.86011905  0.86011905  0.41965596  1
  Bi  Bi1  1  0.86011905  0.41965596  0.86011905  1
  Bi  Bi2  1  0.38988095  0.38988095  0.83034404  1
  Bi  Bi3  1  0.38988095  0.83034404  0.38988095  1
  Bi  Bi4  1  0.83034404  0.38988095  0.38988095  1
  Bi  Bi5  1  0.86011892  0.86011892  0.86011892  1
  Bi  Bi6  1  0.41965596  0.86011905  0.86011905  1
  Bi  Bi7  1  0.38988108  0.38988108  0.38988108  1
loop_
_geom_bond_atom_site_label_1
_geom_bond_atom_site_label_2
_geom_bond_distance
_geom_bond_site_symmetry_2
Na0 Na9 3.474699 1_655
Na0 Na12 3.474699 1_555
Na0 Na10 3.474703 1_565
Na0 Na5 3.474703 1_555
Na0 Na14 3.476071 1_555
Na0 Na7 3.476071 1_555
Na1 Na8 3.474699 1_655
Na1 Na13 3.474699 1_555
Na1 Na10 3.474702 1_556
Na1 Na5 3.474702 1_555
Na1 Na11 3.476080 1_555
Na1 Na6 3.476080 1_555
Na2 Na9 3.474703 1_556
Na2 Na8 3.474704 1_565
Na2 Na4 3.476080 1_555
Na3 Na4 3.474401 1_655
Na3 Na7 3.474403 1_556
Na3 Na6 3.474406 1_565
Na5 Na7 3.788032 1_555
Na5 Na6 3.788039 1_555
Na5 Na9 3.788158 1_655
Na5 Na8 3.788159 1_655
Na10 Na14 3.788032 1_545
Na10 Na11 3.788039 1_554
Na10 Na12 3.788158 1_545
Na10 Na13 3.788159 1_554
Na11 Na3 3.474406 1_555
Na11 Na7 3.787481 1_556
Na11 Na4 3.787483 1_655
Na11 Na8 3.788039 1_655
Na12 Na2 3.474703 1_555
Na12 Na7 3.788040 1_555
Na12 Na4 3.788040 1_555
Na12 Na8 3.788158 1_565
Na13 Na2 3.474704 1_555
Na13 Na6 3.788039 1_555
Na13 Na4 3.788041 1_555
Na13 Na9 3.788158 1_556
Na14 Na3 3.474403 1_555
Na14 Na6 3.787481 1_565
Na14 Na4 3.787491 1_655
Na14 Na9 3.788040 1_655
Na15 Na3 3.474401 1_555
Na15 Na2 3.476080 1_555
Na15 Na6 3.787483 1_565
Na15 Na7 3.787491 1_556
Na15 Na9 3.788040 1_556
Na15 Na8 3.788041 1_565
Hf0 Na2 3.248914 1_655
Hf0 Na0 3.248917 1_556
Hf0 Na1 3.248919 1_565
Hf0 Na3 3.250365 1_555
Hf1 Na2 3.248914 1_555
Hf1 Na0 3.248917 1_555
Hf1 Na1 3.248919 1_555
Hf1 Na3 3.250365 1_555
Bi0 Hf0 2.862128 1_555
Bi0 Na12 3.234371 1_655
Bi0 Na5 3.234375 1_565
Bi0 Na14 3.235583 1_555
Bi0 Na6 3.398543 1_565
Bi0 Na4 3.398547 1_655
Bi0 Na8 3.399613 1_665
Bi0 Na1 3.542624 1_565
Bi0 Na2 3.542625 1_655
Bi0 Na3 3.542864 1_555
Bi1 Hf0 2.862129 1_555
Bi1 Na13 3.234371 1_655
Bi1 Na5 3.234374 1_556
Bi1 Na11 3.235575 1_555
Bi1 Na7 3.398534 1_556
Bi1 Na4 3.398546 1_655
Bi1 Na9 3.399613 1_656
Bi1 Na0 3.542624 1_556
Bi1 Na2 3.542624 1_655
Bi1 Na3 3.542865 1_555
Bi2 Hf1 2.862128 1_555
Bi2 Na9 3.234371 1_556
Bi2 Na10 3.234375 1_556
Bi2 Na7 3.235583 1_556
Bi2 Na11 3.398543 1_555
Bi2 Na15 3.398547 1_555
Bi2 Na13 3.399613 1_555
Bi2 Na1 3.542624 1_555
Bi2 Na2 3.542625 1_555
Bi2 Na3 3.542864 1_555
Bi3 Hf1 2.862129 1_555
Bi3 Na8 3.234371 1_565
Bi3 Na10 3.234374 1_565
Bi3 Na6 3.235575 1_565
Bi3 Na14 3.398534 1_555
Bi3 Na15 3.398546 1_555
Bi3 Na12 3.399613 1_555
Bi3 Na0 3.542624 1_555
Bi3 Na2 3.542624 1_555
Bi3 Na3 3.542865 1_555
Bi4 Hf1 2.862125 1_555
Bi4 Na9 3.234373 1_655
Bi4 Na8 3.234375 1_655
Bi4 Na4 3.235575 1_655
Bi4 Na14 3.398546 1_555
Bi4 Na11 3.398547 1_555
Bi4 Na5 3.399613 1_555
Bi4 Na1 3.542625 1_555
Bi4 Na0 3.542626 1_555
Bi4 Na3 3.542864 1_555
Bi5 Hf0 2.863114 1_555
Bi5 Na15 3.234849 1_655
Bi5 Na14 3.234851 1_556
Bi5 Na11 3.234854 1_565
Bi5 Na10 3.398333 1_566
Bi5 Na8 3.398336 1_665
Bi5 Na9 3.398338 1_656
Bi5 Na2 3.542595 1_655
Bi5 Na0 3.542596 1_556
Bi5 Na1 3.542597 1_565
Bi6 Hf0 2.862125 1_555
Bi6 Na12 3.234373 1_556
Bi6 Na13 3.234375 1_565
Bi6 Na15 3.235575 1_555
Bi6 Na7 3.398546 1_556
Bi6 Na6 3.398547 1_565
Bi6 Na10 3.399613 1_566
Bi6 Na1 3.542625 1_565
Bi6 Na0 3.542626 1_556
Bi6 Na3 3.542864 1_555
Bi7 Hf1 2.863114 1_555
Bi7 Na4 3.234849 1_555
Bi7 Na7 3.234851 1_555
Bi7 Na6 3.234854 1_555
Bi7 Na5 3.398333 1_555
Bi7 Na13 3.398336 1_555
Bi7 Na12 3.398338 1_555
Bi7 Na2 3.542595 1_555
Bi7 Na0 3.542596 1_555
Bi7 Na1 3.542597 1_555
