# generated using pymatgen
data_Na4SbRhO6
_symmetry_space_group_name_H-M   'P 1'
_cell_length_a   5.42657030
_cell_length_b   5.42657154
_cell_length_c   5.62174406
_cell_angle_alpha   99.35560527
_cell_angle_beta   99.35559926
_cell_angle_gamma   119.92562686
_symmetry_Int_Tables_number   1
_chemical_formula_structural   Na4SbRhO6
_chemical_formula_sum   'Na4 Sb1 Rh1 O6'
_cell_volume   135.69869663
_cell_formula_units_Z   1
loop_
 _symmetry_equiv_pos_site_id
 _symmetry_equiv_pos_as_xyz
  1  'x, y, z'
loop_
 _atom_site_type_symbol
 _atom_site_label
 _atom_site_symmetry_multiplicity
 _atom_site_fract_x
 _atom_site_fract_y
 _atom_site_fract_z
 _atom_site_occupancy
  Na  Na0  1  0.50124675  0.49875425  0.00000000  1
  Na  Na1  1  0.98944774  0.01055026  0.49999900  1
  Na  Na2  1  0.66078408  0.33921392  0.49999900  1
  Na  Na3  1  0.34492900  0.65506900  0.49999900  1
  Sb  Sb0  1  0.16740907  0.83259193  0.00000000  1
  Rh  Rh0  1  0.83311962  0.16688138  1.00000000  1
  O  O0  1  0.21151890  0.20089998  0.21037936  1
  O  O1  1  0.56135491  0.93049788  0.21015837  1
  O  O2  1  0.94222814  0.58064535  0.21052011  1
  O  O3  1  0.41935565  0.05777186  0.78947989  1
  O  O4  1  0.06950112  0.43864309  0.78984163  1
  O  O5  1  0.79909802  0.78848010  0.78962064  1
loop_
_geom_bond_atom_site_label_1
_geom_bond_atom_site_label_2
_geom_bond_distance
_geom_bond_site_symmetry_2
Na0 O2 2.274169 1_555
Na0 O3 2.274175 1_554
Na0 O5 2.274575 1_554
Na0 O0 2.274587 1_555
Na0 O1 2.281147 1_555
Na0 O4 2.281148 1_554
Na1 O0 2.261164 1_655
Na1 O5 2.261171 1_545
Na1 O1 2.402638 1_545
Na1 O4 2.402642 1_655
Na1 O2 2.487997 1_545
Na1 O3 2.488009 1_655
Na2 O1 2.282649 1_545
Na2 O4 2.282659 1_655
Na2 O0 2.375786 1_555
Na2 O5 2.375796 1_555
Na2 O3 2.490426 1_555
Na2 O2 2.490426 1_555
Na3 O2 2.310074 1_455
Na3 O3 2.310082 1_565
Na3 O0 2.404390 1_555
Na3 O5 2.404394 1_555
Na3 O1 2.435321 1_555
Na3 O4 2.435327 1_555
O0 Sb0 2.027998 1_545
O0 Rh0 2.100135 1_454
O1 Sb0 2.022306 1_555
O1 Rh0 2.094732 1_564
O2 Sb0 2.022976 1_655
O2 Rh0 2.091523 1_554
O3 Sb0 2.022974 1_546
O3 Rh0 2.091521 1_555
O4 Sb0 2.022316 1_556
O4 Rh0 2.094721 1_455
O5 Sb0 2.028006 1_656
O5 Rh0 2.100136 1_565
