# generated using pymatgen
data_Ba3YInO6
_symmetry_space_group_name_H-M   'P 1'
_cell_length_a   7.25923659
_cell_length_b   7.25923636
_cell_length_c   7.25923761
_cell_angle_alpha   92.99637675
_cell_angle_beta   92.99637446
_cell_angle_gamma   92.99638173
_symmetry_Int_Tables_number   1
_chemical_formula_structural   Ba3YInO6
_chemical_formula_sum   'Ba6 Y2 In2 O12'
_cell_volume   380.91053176
_cell_formula_units_Z   2
loop_
 _symmetry_equiv_pos_site_id
 _symmetry_equiv_pos_as_xyz
  1  'x, y, z'
loop_
 _atom_site_type_symbol
 _atom_site_label
 _atom_site_symmetry_multiplicity
 _atom_site_fract_x
 _atom_site_fract_y
 _atom_site_fract_z
 _atom_site_occupancy
  Ba  Ba0  1  0.25000000  0.88736066  0.61263934  1
  Ba  Ba1  1  0.88736066  0.61263934  0.25000000  1
  Ba  Ba2  1  0.75000000  0.11263934  0.38736066  1
  Ba  Ba3  1  0.38736066  0.75000000  0.11263934  1
  Ba  Ba4  1  0.11263934  0.38736066  0.75000000  1
  Ba  Ba5  1  0.61263934  0.25000000  0.88736066  1
  Y  Y0  1  0.75000000  0.75000000  0.75000000  1
  Y  Y1  1  0.25000000  0.25000000  0.25000000  1
  In  In0  1  0.50000000  0.50000000  0.50000000  1
  In  In1  1  0.00000000  0.00000000  0.00000000  1
  O  O0  1  0.59803988  0.78903751  0.46771928  1
  O  O1  1  0.46771928  0.59803988  0.78903751  1
  O  O2  1  0.78903751  0.46771928  0.59803988  1
  O  O3  1  0.90196012  0.03228072  0.71096249  1
  O  O4  1  0.71096249  0.90196012  0.03228072  1
  O  O5  1  0.03228072  0.71096249  0.90196012  1
  O  O6  1  0.40196012  0.21096249  0.53228072  1
  O  O7  1  0.53228072  0.40196012  0.21096249  1
  O  O8  1  0.21096249  0.53228072  0.40196012  1
  O  O9  1  0.09803988  0.96771928  0.28903751  1
  O  O10  1  0.96771928  0.28903751  0.09803988  1
  O  O11  1  0.28903751  0.09803988  0.96771928  1
loop_
_geom_bond_atom_site_label_1
_geom_bond_atom_site_label_2
_geom_bond_distance
_geom_bond_site_symmetry_2
Ba0 O6 2.648595 1_565
Ba0 O9 2.648595 1_555
Ba0 O3 2.896081 1_465
Ba0 O0 2.896081 1_555
Ba0 O8 2.920538 1_555
Ba0 O11 2.920538 1_565
Ba0 O5 2.994207 1_555
Ba0 O1 2.994207 1_555
Ba1 O10 2.648595 1_555
Ba1 O8 2.648595 1_655
Ba1 O5 2.896081 1_654
Ba1 O2 2.896081 1_555
Ba1 O9 2.920538 1_655
Ba1 O7 2.920538 1_555
Ba1 O0 2.994207 1_555
Ba1 O4 2.994207 1_555
Ba2 O0 2.648595 1_545
Ba2 O3 2.648595 1_555
Ba2 O9 2.896081 1_645
Ba2 O6 2.896081 1_555
Ba2 O2 2.920538 1_555
Ba2 O4 2.920538 1_545
Ba2 O10 2.994207 1_555
Ba2 O7 2.994207 1_555
Ba3 O4 2.648595 1_555
Ba3 O1 2.648595 1_554
Ba3 O7 2.896081 1_555
Ba3 O11 2.896081 1_564
Ba3 O5 2.920538 1_554
Ba3 O0 2.920538 1_555
Ba3 O8 2.994207 1_555
Ba3 O9 2.994207 1_555
Ba4 O5 2.648595 1_555
Ba4 O2 2.648595 1_455
Ba4 O10 2.896081 1_456
Ba4 O8 2.896081 1_555
Ba4 O3 2.920538 1_455
Ba4 O1 2.920538 1_555
Ba4 O6 2.994207 1_555
Ba4 O11 2.994207 1_555
Ba5 O11 2.648595 1_555
Ba5 O7 2.648595 1_556
Ba5 O1 2.896081 1_555
Ba5 O4 2.896081 1_546
Ba5 O10 2.920538 1_556
Ba5 O6 2.920538 1_555
Ba5 O2 2.994207 1_555
Ba5 O3 2.994207 1_555
In0 O0 2.208292 1_555
In0 O6 2.208292 1_555
In0 O2 2.208292 1_555
In0 O8 2.208292 1_555
In0 O1 2.208292 1_555
In0 O7 2.208292 1_555
In1 O11 2.208292 1_554
In1 O4 2.208292 1_445
In1 O5 2.208292 1_544
In1 O10 2.208292 1_455
In1 O9 2.208292 1_545
In1 O3 2.208292 1_454
O0 Y0 2.313704 1_555
O1 Y0 2.313703 1_555
O2 Y0 2.313703 1_555
O3 Y0 2.313703 1_545
O4 Y0 2.313704 1_554
O5 Y0 2.313703 1_455
O6 Y1 2.313704 1_555
O7 Y1 2.313703 1_555
O8 Y1 2.313703 1_555
O9 Y1 2.313703 1_565
O10 Y1 2.313703 1_655
O11 Y1 2.313704 1_556
