# generated using pymatgen
data_K2Cu(PPd2)3
_symmetry_space_group_name_H-M   'P 1'
_cell_length_a   6.92263351
_cell_length_b   6.91902595
_cell_length_c   6.92263361
_cell_angle_alpha   128.70242372
_cell_angle_beta   120.79221550
_cell_angle_gamma   82.12875763
_symmetry_Int_Tables_number   1
_chemical_formula_structural   K2Cu(PPd2)3
_chemical_formula_sum   'K2 Cu1 P3 Pd6'
_cell_volume   213.83141242
_cell_formula_units_Z   1
loop_
 _symmetry_equiv_pos_site_id
 _symmetry_equiv_pos_as_xyz
  1  'x, y, z'
loop_
 _atom_site_type_symbol
 _atom_site_label
 _atom_site_symmetry_multiplicity
 _atom_site_fract_x
 _atom_site_fract_y
 _atom_site_fract_z
 _atom_site_occupancy
  K  K0  1  0.01638198  0.01471702  0.99833504  1
  K  K1  1  0.49356154  0.99264514  0.49908460  1
  Cu  Cu0  1  0.34260012  0.34177118  0.99917006  1
  P  P0  1  0.83072543  0.32965176  0.49892632  1
  P  P1  1  0.62075407  0.61963931  0.99888424  1
  P  P2  1  0.19742130  0.69595196  0.49853166  1
  Pd  Pd0  1  0.95939951  0.50288922  0.97041258  1
  Pd  Pd1  1  0.53247564  0.50288922  0.54348971  1
  Pd  Pd2  1  0.95968366  0.98670560  0.45424671  1
  Pd  Pd3  1  0.80494631  0.50571800  0.29612644  1
  Pd  Pd4  1  0.20959155  0.50571800  0.70077069  1
  Pd  Pd5  1  0.53245889  0.98670560  0.02702094  1
loop_
_geom_bond_atom_site_label_1
_geom_bond_atom_site_label_2
_geom_bond_distance
_geom_bond_site_symmetry_2
K0 Pd3 3.300554 1_445
K0 Pd4 3.300555 1_545
K0 Pd4 3.301927 1_556
K0 Pd3 3.301932 1_456
K0 K1 3.428070 1_445
K0 K1 3.428077 1_546
K0 Pd2 3.460149 1_445
K0 Pd5 3.460152 1_546
K0 Pd1 3.460508 1_556
K0 Pd0 3.460512 1_455
K0 Pd0 3.490363 1_445
K0 Pd1 3.490368 1_445
K0 Pd5 3.493813 1_446
K0 Pd2 3.493817 1_446
K0 P2 3.541460 1_556
K0 P2 3.542025 1_545
K0 P0 3.563410 1_445
K0 P0 3.571958 1_456
K1 P2 3.090585 1_555
K1 P1 3.274568 1_565
K1 P1 3.278690 1_554
K1 Pd0 3.383677 1_565
K1 Pd1 3.383679 1_565
K1 Pd2 3.388721 1_555
K1 Pd5 3.388731 1_555
K1 P0 3.518724 1_565
K1 Pd5 3.550818 1_556
K1 Pd2 3.550829 1_455
K1 Pd1 3.552147 1_555
K1 Pd0 3.552151 1_454
K1 Pd3 3.621669 1_566
K1 Pd4 3.621672 1_565
K1 Pd3 3.628146 1_555
K1 Pd4 3.628155 1_554
Cu0 Pd3 2.664316 1_556
Cu0 Pd4 2.664317 1_555
Cu0 Pd0 2.691904 1_455
Cu0 Pd1 2.691910 1_556
Cu0 Pd2 2.692308 1_445
Cu0 Pd5 2.692310 1_546
Cu0 P1 2.902879 1_555
Cu0 K1 3.383146 1_556
Cu0 K1 3.386290 1_545
Cu0 K0 3.404490 1_555
P0 Pd0 2.303612 1_555
P0 Pd1 2.303618 1_555
P0 Pd2 2.303860 1_545
P0 Pd5 2.303862 1_545
P0 Pd3 2.304242 1_555
P0 Pd4 2.304245 1_655
P1 Pd4 2.355407 1_555
P1 Pd3 2.355413 1_556
P1 Pd5 2.437192 1_556
P1 Pd2 2.437193 1_556
P1 Pd1 2.437719 1_555
P1 Pd0 2.437725 1_555
P2 Pd4 2.419292 1_555
P2 Pd3 2.419302 1_455
P2 Pd1 2.488637 1_555
P2 Pd0 2.488648 1_454
P2 Pd5 2.489463 1_556
P2 Pd2 2.489471 1_455
Pd0 Pd2 2.897945 1_556
Pd0 Pd1 2.919974 1_555
Pd0 Pd3 2.938571 1_556
Pd0 Pd2 3.093468 1_545
Pd0 Pd4 3.138399 1_655
Pd1 Pd5 2.897939 1_556
Pd1 Pd4 2.938559 1_555
Pd1 Pd5 3.093474 1_545
Pd1 Pd3 3.138399 1_555
Pd2 Pd5 2.922039 1_555
Pd2 Pd3 2.939616 1_555
Pd2 Pd4 3.133034 1_665
Pd3 Pd5 3.133027 1_545
Pd4 Pd5 2.939616 1_556
