# generated using pymatgen
data_LiCaWN3
_symmetry_space_group_name_H-M   'P 1'
_cell_length_a   5.90554809
_cell_length_b   5.90554847
_cell_length_c   12.11650152
_cell_angle_alpha   90.17111352
_cell_angle_beta   90.17111585
_cell_angle_gamma   119.01097379
_symmetry_Int_Tables_number   1
_chemical_formula_structural   LiCaWN3
_chemical_formula_sum   'Li4 Ca4 W4 N12'
_cell_volume   369.54157866
_cell_formula_units_Z   4
loop_
 _symmetry_equiv_pos_site_id
 _symmetry_equiv_pos_as_xyz
  1  'x, y, z'
loop_
 _atom_site_type_symbol
 _atom_site_label
 _atom_site_symmetry_multiplicity
 _atom_site_fract_x
 _atom_site_fract_y
 _atom_site_fract_z
 _atom_site_occupancy
  Li  Li0  1  0.45590289  0.86422806  0.92052232  1
  Li  Li1  1  0.13577194  0.54409711  0.57947768  1
  Li  Li2  1  0.54409711  0.13577194  0.07947768  1
  Li  Li3  1  0.86422806  0.45590289  0.42052232  1
  Ca  Ca0  1  0.32692927  0.10889297  0.58326028  1
  Ca  Ca1  1  0.89110703  0.67307073  0.91673972  1
  Ca  Ca2  1  0.67307073  0.89110703  0.41673972  1
  Ca  Ca3  1  0.10889297  0.32692927  0.08326028  1
  W  W0  1  0.72814393  0.74310868  0.66157573  1
  W  W1  1  0.25689132  0.27185607  0.83842427  1
  W  W2  1  0.27185607  0.25689132  0.33842427  1
  W  W3  1  0.74310868  0.72814393  0.16157573  1
  N  N0  1  0.56566007  0.43433993  0.75000000  1
  N  N1  1  0.43433993  0.56566007  0.25000000  1
  N  N2  1  0.49563938  0.82563369  0.60298626  1
  N  N3  1  0.17436631  0.50436062  0.89701374  1
  N  N4  1  0.50436062  0.17436631  0.39701374  1
  N  N5  1  0.82563369  0.49563938  0.10298626  1
  N  N6  1  0.69855963  0.89427247  0.04346876  1
  N  N7  1  0.10572753  0.30144037  0.45653124  1
  N  N8  1  0.30144037  0.10572753  0.95653124  1
  N  N9  1  0.89427247  0.69855963  0.54346876  1
  N  N10  1  0.99276123  0.00723877  0.75000000  1
  N  N11  1  0.00723877  0.99276123  0.25000000  1
loop_
_geom_bond_atom_site_label_1
_geom_bond_atom_site_label_2
_geom_bond_distance
_geom_bond_site_symmetry_2
Li0 N3 1.981990 1_555
Li0 N6 2.010778 1_556
Li0 N8 2.077732 1_565
Li1 N2 1.981990 1_555
Li1 N7 2.010778 1_555
Li1 N9 2.077732 1_455
Li2 N5 1.981990 1_555
Li2 N8 2.010778 1_554
Li2 N6 2.077732 1_545
Li3 N4 1.981990 1_555
Li3 N9 2.010778 1_555
Li3 N7 2.077732 1_655
Ca0 N2 2.337862 1_545
Ca0 N4 2.442603 1_555
Ca0 N9 2.571594 1_445
Ca0 N7 2.607007 1_555
Ca0 N0 2.663589 1_555
Ca0 N10 2.686716 1_455
Ca1 N3 2.337862 1_655
Ca1 N5 2.442603 1_556
Ca1 N8 2.571594 1_665
Ca1 N6 2.607007 1_556
Ca1 N0 2.663589 1_555
Ca1 N10 2.686716 1_565
Ca2 N4 2.337862 1_565
Ca2 N2 2.442603 1_555
Ca2 N7 2.571594 1_665
Ca2 N9 2.607007 1_555
Ca2 N1 2.663589 1_555
Ca2 N11 2.686716 1_655
Ca3 N5 2.337862 1_455
Ca3 N3 2.442603 1_554
Ca3 N6 2.571594 1_445
Ca3 N8 2.607007 1_554
Ca3 N1 2.663589 1_555
Ca3 N11 2.686716 1_545
N0 W1 1.927245 1_555
N0 W0 1.927246 1_555
N1 W3 1.927245 1_555
N1 W2 1.927246 1_555
N2 W0 1.808893 1_555
N3 W1 1.808893 1_555
N4 W2 1.808893 1_555
N5 W3 1.808893 1_555
N6 W3 1.826502 1_555
N7 W2 1.826502 1_555
N8 W1 1.826502 1_555
N9 W0 1.826502 1_555
N10 W0 1.907541 1_545
N10 W1 1.907541 1_655
N11 W2 1.907541 1_565
N11 W3 1.907541 1_455
