# generated using pymatgen
data_K4Si2Au7
_symmetry_space_group_name_H-M   'P 1'
_cell_length_a   9.87437023
_cell_length_b   9.87437000
_cell_length_c   9.87437076
_cell_angle_alpha   38.08972905
_cell_angle_beta   38.08973130
_cell_angle_gamma   38.08972975
_symmetry_Int_Tables_number   1
_chemical_formula_structural   K4Si2Au7
_chemical_formula_sum   'K4 Si2 Au7'
_cell_volume   328.94765721
_cell_formula_units_Z   1
loop_
 _symmetry_equiv_pos_site_id
 _symmetry_equiv_pos_as_xyz
  1  'x, y, z'
loop_
 _atom_site_type_symbol
 _atom_site_label
 _atom_site_symmetry_multiplicity
 _atom_site_fract_x
 _atom_site_fract_y
 _atom_site_fract_z
 _atom_site_occupancy
  K  K0  1  0.68203469  0.68203469  0.68203469  1
  K  K1  1  0.31796531  0.31796531  0.31796531  1
  K  K2  1  0.80886238  0.80886238  0.80886238  1
  K  K3  1  0.19113762  0.19113762  0.19113762  1
  Si  Si0  1  0.54390710  0.54390710  0.54390710  1
  Si  Si1  1  0.45609290  0.45609290  0.45609290  1
  Au  Au0  1  0.00000000  0.00000000  0.00000000  1
  Au  Au1  1  0.22794351  0.22794351  0.79373211  1
  Au  Au2  1  0.79373211  0.22794351  0.22794351  1
  Au  Au3  1  0.22794351  0.79373211  0.22794351  1
  Au  Au4  1  0.77205649  0.20626789  0.77205649  1
  Au  Au5  1  0.77205649  0.77205649  0.20626789  1
  Au  Au6  1  0.20626789  0.77205649  0.77205649  1
loop_
_geom_bond_atom_site_label_1
_geom_bond_atom_site_label_2
_geom_bond_distance
_geom_bond_site_symmetry_2
Au0 Au1 2.796914 1_554
Au0 Au5 2.796914 1_445
Au0 Au3 2.796915 1_545
Au0 Au4 2.796915 1_454
Au0 Au2 2.796915 1_455
Au0 Au6 2.796915 1_544
Au0 K0 3.744371 1_454
Au0 K1 3.744371 1_545
Au0 K0 3.744371 1_544
Au0 K1 3.744371 1_455
Au0 K0 3.744371 1_445
Au0 K1 3.744371 1_554
Au1 Si1 2.368367 1_555
Au1 K3 3.373580 1_556
Au1 K1 3.427467 1_555
Au1 K2 3.614116 1_455
Au1 K2 3.614116 1_545
Au2 Si1 2.368367 1_555
Au2 K3 3.373580 1_655
Au2 K1 3.427466 1_555
Au2 K2 3.614116 1_554
Au2 K2 3.614116 1_545
Au3 Si1 2.368367 1_555
Au3 K3 3.373580 1_565
Au3 K1 3.427466 1_555
Au3 K2 3.614116 1_554
Au3 K2 3.614117 1_455
Au4 Si0 2.368367 1_555
Au4 K2 3.373580 1_545
Au4 K0 3.427466 1_555
Au4 K3 3.614116 1_556
Au4 K3 3.614117 1_655
Au5 Si0 2.368367 1_555
Au5 K2 3.373580 1_554
Au5 K0 3.427467 1_555
Au5 K3 3.614116 1_655
Au5 K3 3.614116 1_565
Au6 Si0 2.368367 1_555
Au6 K2 3.373580 1_455
Au6 K0 3.427466 1_555
Au6 K3 3.614116 1_556
Au6 K3 3.614116 1_565
