# generated using pymatgen
data_Zr3Co
_symmetry_space_group_name_H-M   'P 1'
_cell_length_a   6.48813298
_cell_length_b   11.21457675
_cell_length_c   18.17152362
_cell_angle_alpha   90.00000000
_cell_angle_beta   90.00000000
_cell_angle_gamma   106.81440614
_symmetry_Int_Tables_number   1
_chemical_formula_structural   Zr3Co
_chemical_formula_sum   'Zr48 Co16'
_cell_volume   1265.66244515
_cell_formula_units_Z   16
loop_
 _symmetry_equiv_pos_site_id
 _symmetry_equiv_pos_as_xyz
  1  'x, y, z'
loop_
 _atom_site_type_symbol
 _atom_site_label
 _atom_site_symmetry_multiplicity
 _atom_site_fract_x
 _atom_site_fract_y
 _atom_site_fract_z
 _atom_site_occupancy
  Zr  Zr0_0  1  0.20733983  0.41467915  0.37500000  1
  Zr  Zr0_1  1  0.20733983  0.41467915  0.87500000  1
  Zr  Zr0_2  1  0.20733983  0.91467915  0.37500000  1
  Zr  Zr0_3  1  0.20733983  0.91467915  0.87500000  1
  Zr  Zr0_4  1  0.70733983  0.41467915  0.37500000  1
  Zr  Zr0_5  1  0.70733983  0.41467915  0.87500000  1
  Zr  Zr0_6  1  0.70733983  0.91467915  0.37500000  1
  Zr  Zr0_7  1  0.70733983  0.91467915  0.87500000  1
  Zr  Zr1_0  1  0.29266018  0.08532085  0.12500000  1
  Zr  Zr1_1  1  0.29266018  0.08532085  0.62500000  1
  Zr  Zr1_2  1  0.29266018  0.58532085  0.12500000  1
  Zr  Zr1_3  1  0.29266018  0.58532085  0.62500000  1
  Zr  Zr1_4  1  0.79266017  0.08532085  0.12500000  1
  Zr  Zr1_5  1  0.79266017  0.08532085  0.62500000  1
  Zr  Zr1_6  1  0.79266017  0.58532085  0.12500000  1
  Zr  Zr1_7  1  0.79266017  0.58532085  0.62500000  1
  Zr  Zr2_0  1  0.06733789  0.13467627  0.47111674  1
  Zr  Zr2_1  1  0.06733789  0.13467627  0.97111674  1
  Zr  Zr2_2  1  0.06733789  0.63467627  0.47111674  1
  Zr  Zr2_3  1  0.06733789  0.63467627  0.97111674  1
  Zr  Zr2_4  1  0.56733788  0.13467627  0.47111674  1
  Zr  Zr2_5  1  0.56733788  0.13467627  0.97111674  1
  Zr  Zr2_6  1  0.56733788  0.63467627  0.47111674  1
  Zr  Zr2_7  1  0.56733788  0.63467627  0.97111674  1
  Zr  Zr3_0  1  0.43266211  0.36532373  0.02888327  1
  Zr  Zr3_1  1  0.43266211  0.36532373  0.52888327  1
  Zr  Zr3_2  1  0.43266212  0.86532373  0.02888327  1
  Zr  Zr3_3  1  0.43266212  0.86532373  0.52888327  1
  Zr  Zr3_4  1  0.93266211  0.36532373  0.02888327  1
  Zr  Zr3_5  1  0.93266211  0.36532373  0.52888327  1
  Zr  Zr3_6  1  0.93266211  0.86532373  0.02888327  1
  Zr  Zr3_7  1  0.93266211  0.86532373  0.52888327  1
  Zr  Zr4_0  1  0.43266211  0.36532373  0.22111674  1
  Zr  Zr4_1  1  0.43266211  0.36532373  0.72111673  1
  Zr  Zr4_2  1  0.43266212  0.86532373  0.22111674  1
  Zr  Zr4_3  1  0.43266212  0.86532373  0.72111673  1
  Zr  Zr4_4  1  0.93266211  0.36532373  0.22111674  1
  Zr  Zr4_5  1  0.93266211  0.36532373  0.72111673  1
  Zr  Zr4_6  1  0.93266211  0.86532373  0.22111674  1
  Zr  Zr4_7  1  0.93266211  0.86532373  0.72111673  1
  Zr  Zr5_0  1  0.06733789  0.13467627  0.27888326  1
  Zr  Zr5_1  1  0.06733789  0.13467627  0.77888326  1
  Zr  Zr5_2  1  0.06733789  0.63467627  0.27888326  1
  Zr  Zr5_3  1  0.06733789  0.63467627  0.77888326  1
  Zr  Zr5_4  1  0.56733788  0.13467627  0.27888326  1
  Zr  Zr5_5  1  0.56733788  0.13467627  0.77888326  1
  Zr  Zr5_6  1  0.56733788  0.63467627  0.27888326  1
  Zr  Zr5_7  1  0.56733788  0.63467627  0.77888326  1
  Co  Co0_0  1  0.36191012  0.22381975  0.37500000  1
  Co  Co0_1  1  0.36191012  0.22381975  0.87500000  1
  Co  Co0_2  1  0.36191013  0.72381975  0.37500000  1
  Co  Co0_3  1  0.36191013  0.72381975  0.87500000  1
  Co  Co0_4  1  0.86191012  0.22381975  0.37500000  1
  Co  Co0_5  1  0.86191012  0.22381975  0.87500000  1
  Co  Co0_6  1  0.86191012  0.72381975  0.37500000  1
  Co  Co0_7  1  0.86191012  0.72381975  0.87500000  1
  Co  Co1_0  1  0.13808988  0.27618025  0.12500000  1
  Co  Co1_1  1  0.13808988  0.27618025  0.62500000  1
  Co  Co1_2  1  0.13808987  0.77618025  0.12500000  1
  Co  Co1_3  1  0.13808987  0.77618025  0.62500000  1
  Co  Co1_4  1  0.63808988  0.27618025  0.12500000  1
  Co  Co1_5  1  0.63808988  0.27618025  0.62500000  1
  Co  Co1_6  1  0.63808987  0.77618025  0.12500000  1
  Co  Co1_7  1  0.63808987  0.77618025  0.62500000  1
loop_
_geom_bond_atom_site_label_1
_geom_bond_atom_site_label_2
_geom_bond_distance
_geom_bond_site_symmetry_2
Zr0_0 Zr4_4 3.275817 1_455
Zr0_0 Zr3_5 3.275817 1_455
Zr0_0 Zr4_0 3.275817 1_555
Zr0_0 Zr3_1 3.275817 1_555
Zr0_0 Zr2_6 3.355466 1_555
Zr0_0 Zr5_6 3.355466 1_555
Zr0_0 Zr2_2 3.355469 1_555
Zr0_0 Zr5_2 3.355469 1_555
Zr0_1 Zr3_4 3.275817 1_456
Zr0_1 Zr4_5 3.275817 1_455
Zr0_1 Zr3_0 3.275817 1_556
Zr0_1 Zr4_1 3.275817 1_555
Zr0_1 Zr5_7 3.355466 1_555
Zr0_1 Zr2_7 3.355466 1_555
Zr0_1 Zr2_3 3.355469 1_555
Zr0_1 Zr5_3 3.355469 1_555
Zr0_2 Zr4_6 3.275817 1_455
Zr0_2 Zr3_7 3.275817 1_455
Zr0_2 Zr4_2 3.275817 1_555
Zr0_2 Zr3_3 3.275817 1_555
Zr0_2 Zr5_4 3.355466 1_565
Zr0_2 Zr2_4 3.355466 1_565
Zr0_2 Zr5_0 3.355469 1_565
Zr0_2 Zr2_0 3.355469 1_565
Zr0_3 Zr3_6 3.275817 1_456
Zr0_3 Zr4_7 3.275817 1_455
Zr0_3 Zr3_2 3.275817 1_556
Zr0_3 Zr4_3 3.275817 1_555
Zr0_3 Zr2_5 3.355466 1_565
Zr0_3 Zr5_5 3.355466 1_565
Zr0_3 Zr2_1 3.355469 1_565
Zr0_3 Zr5_1 3.355469 1_565
Zr0_4 Zr4_0 3.275817 1_555
Zr0_4 Zr3_1 3.275817 1_555
Zr0_4 Zr4_4 3.275817 1_555
Zr0_4 Zr3_5 3.275817 1_555
Zr0_4 Zr5_2 3.355466 1_655
Zr0_4 Zr2_2 3.355466 1_655
Zr0_4 Zr5_6 3.355469 1_555
Zr0_4 Zr2_6 3.355469 1_555
Zr0_5 Zr3_0 3.275817 1_556
Zr0_5 Zr4_1 3.275817 1_555
Zr0_5 Zr3_4 3.275817 1_556
Zr0_5 Zr4_5 3.275817 1_555
Zr0_5 Zr5_3 3.355466 1_655
Zr0_5 Zr2_3 3.355466 1_655
Zr0_5 Zr5_7 3.355469 1_555
Zr0_5 Zr2_7 3.355469 1_555
Zr0_6 Zr4_2 3.275817 1_555
Zr0_6 Zr3_3 3.275817 1_555
Zr0_6 Zr4_6 3.275817 1_555
Zr0_6 Zr3_7 3.275817 1_555
Zr0_6 Zr2_0 3.355466 1_665
Zr0_6 Zr5_0 3.355466 1_665
Zr0_6 Zr2_4 3.355469 1_565
Zr0_6 Zr5_4 3.355469 1_565
Zr0_7 Zr3_2 3.275817 1_556
Zr0_7 Zr4_3 3.275817 1_555
Zr0_7 Zr3_6 3.275817 1_556
Zr0_7 Zr4_7 3.275817 1_555
Zr0_7 Zr2_1 3.355466 1_665
Zr0_7 Zr5_1 3.355466 1_665
Zr0_7 Zr2_5 3.355469 1_565
Zr0_7 Zr5_5 3.355469 1_565
Zr1_0 Zr2_5 3.275817 1_554
Zr1_0 Zr5_4 3.275817 1_555
Zr1_0 Zr2_1 3.275817 1_554
Zr1_0 Zr5_0 3.275817 1_555
Zr1_0 Zr4_6 3.355466 1_445
Zr1_0 Zr3_6 3.355466 1_445
Zr1_0 Zr4_2 3.355469 1_545
Zr1_0 Zr3_2 3.355469 1_545
Zr1_1 Zr5_5 3.275817 1_555
Zr1_1 Zr2_4 3.275817 1_555
Zr1_1 Zr5_1 3.275817 1_555
Zr1_1 Zr2_0 3.275817 1_555
Zr1_1 Zr4_7 3.355466 1_445
Zr1_1 Zr3_7 3.355466 1_445
Zr1_1 Zr3_3 3.355469 1_545
Zr1_1 Zr4_3 3.355469 1_545
Zr1_2 Zr2_7 3.275817 1_554
Zr1_2 Zr5_6 3.275817 1_555
Zr1_2 Zr2_3 3.275817 1_554
Zr1_2 Zr5_2 3.275817 1_555
Zr1_2 Zr4_4 3.355466 1_455
Zr1_2 Zr3_4 3.355466 1_455
Zr1_2 Zr4_0 3.355469 1_555
Zr1_2 Zr3_0 3.355469 1_555
Zr1_3 Zr5_7 3.275817 1_555
Zr1_3 Zr2_6 3.275817 1_555
Zr1_3 Zr5_3 3.275817 1_555
Zr1_3 Zr2_2 3.275817 1_555
Zr1_3 Zr3_5 3.355466 1_455
Zr1_3 Zr4_5 3.355466 1_455
Zr1_3 Zr4_1 3.355469 1_555
Zr1_3 Zr3_1 3.355469 1_555
Zr1_4 Zr2_1 3.275817 1_654
Zr1_4 Zr5_0 3.275817 1_655
Zr1_4 Zr2_5 3.275817 1_554
Zr1_4 Zr5_4 3.275817 1_555
Zr1_4 Zr3_2 3.355466 1_545
Zr1_4 Zr4_2 3.355466 1_545
Zr1_4 Zr4_6 3.355469 1_545
Zr1_4 Zr3_6 3.355469 1_545
Zr1_5 Zr5_1 3.275817 1_655
Zr1_5 Zr2_0 3.275817 1_655
Zr1_5 Zr5_5 3.275817 1_555
Zr1_5 Zr2_4 3.275817 1_555
Zr1_5 Zr3_3 3.355466 1_545
Zr1_5 Zr4_3 3.355466 1_545
Zr1_5 Zr3_7 3.355469 1_545
Zr1_5 Zr4_7 3.355469 1_545
Zr1_6 Zr2_3 3.275817 1_654
Zr1_6 Zr5_2 3.275817 1_655
Zr1_6 Zr2_7 3.275817 1_554
Zr1_6 Zr5_6 3.275817 1_555
Zr1_6 Zr4_0 3.355466 1_555
Zr1_6 Zr3_0 3.355466 1_555
Zr1_6 Zr3_4 3.355469 1_555
Zr1_6 Zr4_4 3.355469 1_555
Zr1_7 Zr5_3 3.275817 1_655
Zr1_7 Zr2_2 3.275817 1_655
Zr1_7 Zr5_7 3.275817 1_555
Zr1_7 Zr2_6 3.275817 1_555
Zr1_7 Zr3_1 3.355466 1_555
Zr1_7 Zr4_1 3.355466 1_555
Zr1_7 Zr3_5 3.355469 1_555
Zr1_7 Zr4_5 3.355469 1_555
Zr2_0 Zr3_7 3.076172 1_445
Zr2_0 Zr3_5 3.140633 1_455
Zr2_0 Zr3_1 3.140636 1_555
Zr2_0 Zr2_4 3.244066 1_555
Zr2_0 Zr2_4 3.244066 1_455
Zr2_1 Zr3_6 3.076172 1_446
Zr2_1 Zr3_4 3.140633 1_456
Zr2_1 Zr3_0 3.140636 1_556
Zr2_1 Zr2_5 3.244066 1_555
Zr2_1 Zr2_5 3.244066 1_455
Zr2_2 Zr3_5 3.076172 1_455
Zr2_2 Zr3_7 3.140633 1_455
Zr2_2 Zr3_3 3.140636 1_555
Zr2_2 Zr2_6 3.244066 1_555
Zr2_2 Zr2_6 3.244066 1_455
Zr2_3 Zr3_4 3.076172 1_456
Zr2_3 Zr3_6 3.140633 1_456
Zr2_3 Zr3_2 3.140636 1_556
Zr2_3 Zr2_7 3.244066 1_555
Zr2_3 Zr2_7 3.244066 1_455
Zr2_4 Zr3_3 3.076172 1_545
Zr2_4 Zr3_1 3.140633 1_555
Zr2_4 Zr3_5 3.140636 1_555
Zr2_5 Zr3_2 3.076172 1_546
Zr2_5 Zr3_0 3.140633 1_556
Zr2_5 Zr3_4 3.140636 1_556
Zr2_6 Zr3_1 3.076172 1_555
Zr2_6 Zr3_3 3.140633 1_555
Zr2_6 Zr3_7 3.140636 1_555
Zr2_7 Zr3_0 3.076172 1_556
Zr2_7 Zr3_2 3.140633 1_556
Zr2_7 Zr3_6 3.140636 1_556
Zr3_0 Zr3_4 3.244066 1_555
Zr3_0 Zr3_4 3.244066 1_455
Zr3_1 Zr3_5 3.244066 1_455
Zr3_1 Zr3_5 3.244066 1_555
Zr3_2 Zr3_6 3.244066 1_555
Zr3_2 Zr3_6 3.244066 1_455
Zr3_3 Zr3_7 3.244066 1_555
Zr3_3 Zr3_7 3.244066 1_455
Zr4_0 Zr5_6 3.076172 1_555
Zr4_0 Zr5_4 3.140633 1_555
Zr4_0 Zr5_0 3.140636 1_555
Zr4_0 Zr4_4 3.244066 1_455
Zr4_0 Zr4_4 3.244066 1_555
Zr4_1 Zr5_7 3.076172 1_555
Zr4_1 Zr5_5 3.140633 1_555
Zr4_1 Zr5_1 3.140636 1_555
Zr4_1 Zr4_5 3.244066 1_455
Zr4_1 Zr4_5 3.244066 1_555
Zr4_2 Zr5_4 3.076172 1_565
Zr4_2 Zr5_6 3.140633 1_555
Zr4_2 Zr5_2 3.140636 1_555
Zr4_2 Zr4_6 3.244066 1_555
Zr4_2 Zr4_6 3.244066 1_455
Zr4_3 Zr5_5 3.076172 1_565
Zr4_3 Zr5_7 3.140633 1_555
Zr4_3 Zr5_3 3.140636 1_555
Zr4_3 Zr4_7 3.244066 1_555
Zr4_3 Zr4_7 3.244066 1_455
Zr4_4 Zr5_2 3.076172 1_655
Zr4_4 Zr5_0 3.140633 1_655
Zr4_4 Zr5_4 3.140636 1_555
Zr4_5 Zr5_3 3.076172 1_655
Zr4_5 Zr5_1 3.140633 1_655
Zr4_5 Zr5_5 3.140636 1_555
Zr4_6 Zr5_0 3.076172 1_665
Zr4_6 Zr5_2 3.140633 1_655
Zr4_6 Zr5_6 3.140636 1_555
Zr4_7 Zr5_1 3.076172 1_665
Zr4_7 Zr5_3 3.140633 1_655
Zr4_7 Zr5_7 3.140636 1_555
Zr5_0 Zr5_4 3.244066 1_555
Zr5_0 Zr5_4 3.244066 1_455
Zr5_1 Zr5_5 3.244066 1_555
Zr5_1 Zr5_5 3.244066 1_455
Zr5_2 Zr5_6 3.244066 1_555
Zr5_2 Zr5_6 3.244066 1_455
Zr5_3 Zr5_7 3.244066 1_555
Zr5_3 Zr5_7 3.244066 1_455
Co0_0 Zr2_4 2.568527 1_555
Co0_0 Zr5_4 2.568527 1_555
Co0_0 Zr2_0 2.568531 1_555
Co0_0 Zr5_0 2.568531 1_555
Co0_0 Zr0_4 2.613231 1_555
Co0_0 Zr0_0 2.613231 1_555
Co0_0 Zr4_0 3.182264 1_555
Co0_0 Zr3_1 3.182264 1_555
Co0_1 Zr2_5 2.568527 1_555
Co0_1 Zr5_5 2.568527 1_555
Co0_1 Zr2_1 2.568531 1_555
Co0_1 Zr5_1 2.568531 1_555
Co0_1 Zr0_5 2.613231 1_555
Co0_1 Zr0_1 2.613231 1_555
Co0_1 Zr3_0 3.182264 1_556
Co0_1 Zr4_1 3.182264 1_555
Co0_2 Zr5_6 2.568527 1_555
Co0_2 Zr2_6 2.568527 1_555
Co0_2 Zr5_2 2.568531 1_555
Co0_2 Zr2_2 2.568531 1_555
Co0_2 Zr0_6 2.613231 1_555
Co0_2 Zr0_2 2.613231 1_555
Co0_2 Zr4_2 3.182264 1_555
Co0_2 Zr3_3 3.182264 1_555
Co0_3 Zr5_7 2.568527 1_555
Co0_3 Zr2_7 2.568527 1_555
Co0_3 Zr5_3 2.568531 1_555
Co0_3 Zr2_3 2.568531 1_555
Co0_3 Zr0_7 2.613231 1_555
Co0_3 Zr0_3 2.613231 1_555
Co0_3 Zr3_2 3.182264 1_556
Co0_3 Zr4_3 3.182264 1_555
Co0_4 Zr5_0 2.568527 1_655
Co0_4 Zr2_0 2.568527 1_655
Co0_4 Zr5_4 2.568531 1_555
Co0_4 Zr2_4 2.568531 1_555
Co0_4 Zr0_0 2.613231 1_655
Co0_4 Zr0_4 2.613231 1_555
Co0_4 Zr4_4 3.182264 1_555
Co0_4 Zr3_5 3.182264 1_555
Co0_5 Zr5_1 2.568527 1_655
Co0_5 Zr2_1 2.568527 1_655
Co0_5 Zr5_5 2.568531 1_555
Co0_5 Zr2_5 2.568531 1_555
Co0_5 Zr0_1 2.613231 1_655
Co0_5 Zr0_5 2.613231 1_555
Co0_5 Zr3_4 3.182264 1_556
Co0_5 Zr4_5 3.182264 1_555
Co0_6 Zr5_2 2.568527 1_655
Co0_6 Zr2_2 2.568527 1_655
Co0_6 Zr2_6 2.568531 1_555
Co0_6 Zr5_6 2.568531 1_555
Co0_6 Zr0_2 2.613231 1_655
Co0_6 Zr0_6 2.613231 1_555
Co0_6 Zr4_6 3.182264 1_555
Co0_6 Zr3_7 3.182264 1_555
Co0_7 Zr5_3 2.568527 1_655
Co0_7 Zr2_3 2.568527 1_655
Co0_7 Zr5_7 2.568531 1_555
Co0_7 Zr2_7 2.568531 1_555
Co0_7 Zr0_3 2.613231 1_655
Co0_7 Zr0_7 2.613231 1_555
Co0_7 Zr3_6 3.182264 1_556
Co0_7 Zr4_7 3.182264 1_555
Co1_0 Zr3_4 2.568527 1_455
Co1_0 Zr4_4 2.568527 1_455
Co1_0 Zr3_0 2.568531 1_555
Co1_0 Zr4_0 2.568531 1_555
Co1_0 Zr1_4 2.613231 1_455
Co1_0 Zr1_0 2.613231 1_555
Co1_0 Zr2_1 3.182264 1_554
Co1_0 Zr5_0 3.182264 1_555
Co1_1 Zr3_5 2.568527 1_455
Co1_1 Zr4_5 2.568527 1_455
Co1_1 Zr3_1 2.568531 1_555
Co1_1 Zr4_1 2.568531 1_555
Co1_1 Zr1_5 2.613231 1_455
Co1_1 Zr1_1 2.613231 1_555
Co1_1 Zr5_1 3.182264 1_555
Co1_1 Zr2_0 3.182264 1_555
Co1_2 Zr4_6 2.568527 1_455
Co1_2 Zr3_6 2.568527 1_455
Co1_2 Zr3_2 2.568531 1_555
Co1_2 Zr4_2 2.568531 1_555
Co1_2 Zr1_6 2.613231 1_455
Co1_2 Zr1_2 2.613231 1_555
Co1_2 Zr2_3 3.182264 1_554
Co1_2 Zr5_2 3.182264 1_555
Co1_3 Zr4_7 2.568527 1_455
Co1_3 Zr3_7 2.568527 1_455
Co1_3 Zr3_3 2.568531 1_555
Co1_3 Zr4_3 2.568531 1_555
Co1_3 Zr1_7 2.613231 1_455
Co1_3 Zr1_3 2.613231 1_555
Co1_3 Zr5_3 3.182264 1_555
Co1_3 Zr2_2 3.182264 1_555
Co1_4 Zr4_0 2.568527 1_555
Co1_4 Zr3_0 2.568527 1_555
Co1_4 Zr3_4 2.568531 1_555
Co1_4 Zr4_4 2.568531 1_555
Co1_4 Zr1_0 2.613231 1_555
Co1_4 Zr1_4 2.613231 1_555
Co1_4 Zr2_5 3.182264 1_554
Co1_4 Zr5_4 3.182264 1_555
Co1_5 Zr3_1 2.568527 1_555
Co1_5 Zr4_1 2.568527 1_555
Co1_5 Zr3_5 2.568531 1_555
Co1_5 Zr4_5 2.568531 1_555
Co1_5 Zr1_1 2.613231 1_555
Co1_5 Zr1_5 2.613231 1_555
Co1_5 Zr5_5 3.182264 1_555
Co1_5 Zr2_4 3.182264 1_555
Co1_6 Zr4_2 2.568527 1_555
Co1_6 Zr3_2 2.568527 1_555
Co1_6 Zr3_6 2.568531 1_555
Co1_6 Zr4_6 2.568531 1_555
Co1_6 Zr1_2 2.613231 1_555
Co1_6 Zr1_6 2.613231 1_555
Co1_6 Zr2_7 3.182264 1_554
Co1_6 Zr5_6 3.182264 1_555
Co1_7 Zr4_3 2.568527 1_555
Co1_7 Zr3_3 2.568527 1_555
Co1_7 Zr3_7 2.568531 1_555
Co1_7 Zr4_7 2.568531 1_555
Co1_7 Zr1_3 2.613231 1_555
Co1_7 Zr1_7 2.613231 1_555
Co1_7 Zr5_7 3.182264 1_555
Co1_7 Zr2_6 3.182264 1_555
