# generated using pymatgen
data_Rb2Na3P3O10
_symmetry_space_group_name_H-M   'P 1'
_cell_length_a   5.75038337
_cell_length_b   5.75038389
_cell_length_c   18.65548877
_cell_angle_alpha   84.73007624
_cell_angle_beta   84.73007521
_cell_angle_gamma   59.71225666
_symmetry_Int_Tables_number   1
_chemical_formula_structural   Rb2Na3P3O10
_chemical_formula_sum   'Rb4 Na6 P6 O20'
_cell_volume   529.68193241
_cell_formula_units_Z   2
loop_
 _symmetry_equiv_pos_site_id
 _symmetry_equiv_pos_as_xyz
  1  'x, y, z'
loop_
 _atom_site_type_symbol
 _atom_site_label
 _atom_site_symmetry_multiplicity
 _atom_site_fract_x
 _atom_site_fract_y
 _atom_site_fract_z
 _atom_site_occupancy
  Rb  Rb0  1  0.17597070  0.63480733  0.57968262  1
  Rb  Rb1  1  0.36519267  0.82402930  0.92031738  1
  Rb  Rb2  1  0.82402930  0.36519267  0.42031738  1
  Rb  Rb3  1  0.63480733  0.17597070  0.07968262  1
  Na  Na0  1  0.47773908  0.07588514  0.33075906  1
  Na  Na1  1  0.92411486  0.52226092  0.16924094  1
  Na  Na2  1  0.52226092  0.92411486  0.66924094  1
  Na  Na3  1  0.07588514  0.47773908  0.83075906  1
  Na  Na4  1  0.50000000  0.00000000  0.50000000  1
  Na  Na5  1  0.00000000  0.50000000  0.00000000  1
  P  P0  1  0.16602943  0.69903393  0.39848640  1
  P  P1  1  0.30096607  0.83397057  0.10151360  1
  P  P2  1  0.83397057  0.30096607  0.60151360  1
  P  P3  1  0.69903393  0.16602943  0.89848640  1
  P  P4  1  0.09585632  0.90414368  0.25000000  1
  P  P5  1  0.90414368  0.09585632  0.75000000  1
  O  O0  1  0.29862290  0.84630608  0.42302032  1
  O  O1  1  0.15369392  0.70137710  0.07697968  1
  O  O2  1  0.70137710  0.15369392  0.57697968  1
  O  O3  1  0.84630608  0.29862290  0.92302032  1
  O  O4  1  0.29722421  0.40554238  0.42497014  1
  O  O5  1  0.59445762  0.70277579  0.07502986  1
  O  O6  1  0.70277579  0.59445762  0.57502986  1
  O  O7  1  0.40554238  0.29722421  0.92497014  1
  O  O8  1  0.86104097  0.85241213  0.40733895  1
  O  O9  1  0.14758787  0.13895903  0.09266105  1
  O  O10  1  0.13895903  0.14758787  0.59266105  1
  O  O11  1  0.85241213  0.86104097  0.90733895  1
  O  O12  1  0.24029966  0.67229293  0.31119831  1
  O  O13  1  0.32770707  0.75970034  0.18880169  1
  O  O14  1  0.75970034  0.32770707  0.68880169  1
  O  O15  1  0.67229293  0.24029966  0.81119831  1
  O  O16  1  0.08127325  0.16027682  0.26801960  1
  O  O17  1  0.83972318  0.91872675  0.23198040  1
  O  O18  1  0.91872675  0.83972318  0.73198040  1
  O  O19  1  0.16027682  0.08127325  0.76801960  1
loop_
_geom_bond_atom_site_label_1
_geom_bond_atom_site_label_2
_geom_bond_distance
_geom_bond_site_symmetry_2
Na0 O8 2.436130 1_545
Na0 O4 2.460094 1_555
Na0 O16 2.464327 1_555
Na0 O17 2.499830 1_545
Na0 O0 2.528771 1_545
Na1 O9 2.436130 1_655
Na1 O5 2.460094 1_555
Na1 O17 2.464327 1_555
Na1 O16 2.499830 1_655
Na1 O1 2.528771 1_655
Na2 O10 2.436130 1_565
Na2 O6 2.460094 1_555
Na2 O18 2.464327 1_555
Na2 O19 2.499830 1_565
Na2 O2 2.528771 1_565
Na3 O11 2.436130 1_455
Na3 O7 2.460094 1_555
Na3 O19 2.464327 1_555
Na3 O18 2.499830 1_455
Na3 O3 2.528771 1_455
Na4 O6 2.390512 1_545
Na4 O4 2.390512 1_555
Na4 O2 2.399037 1_555
Na4 O0 2.399037 1_545
Na4 O10 2.419028 1_555
Na4 O8 2.419028 1_545
Na5 O7 2.390511 1_554
Na5 O5 2.390511 1_455
Na5 O1 2.399037 1_555
Na5 O3 2.399037 1_454
Na5 O9 2.419029 1_555
Na5 O11 2.419029 1_454
O0 P0 1.514809 1_555
O0 Rb2 2.852612 1_465
O0 Rb2 2.889829 1_555
O0 Rb0 3.217434 1_555
O1 P1 1.514809 1_555
O1 Rb3 2.852612 1_465
O1 Rb3 2.889829 1_555
O1 Rb1 3.217434 1_554
O2 P2 1.514809 1_555
O2 Rb0 2.852612 1_645
O2 Rb0 2.889829 1_555
O2 Rb2 3.217434 1_555
O3 P3 1.514809 1_555
O3 Rb1 2.852612 1_645
O3 Rb1 2.889829 1_555
O3 Rb3 3.217434 1_556
O4 P0 1.514120 1_555
O4 Rb2 2.854719 1_455
O4 Rb2 2.912838 1_555
O4 Rb0 3.155422 1_555
O5 P1 1.514120 1_555
O5 Rb3 2.854719 1_565
O5 Rb3 2.912838 1_555
O5 Rb1 3.155422 1_554
O6 P2 1.514120 1_555
O6 Rb0 2.854719 1_655
O6 Rb0 2.912838 1_555
O6 Rb2 3.155422 1_555
O7 P3 1.514120 1_555
O7 Rb1 2.854719 1_545
O7 Rb1 2.912838 1_555
O7 Rb3 3.155422 1_556
O8 P0 1.514688 1_655
O8 Rb2 2.878770 1_565
O8 Rb2 2.901866 1_555
O9 P1 1.514688 1_545
O9 Rb3 2.878770 1_455
O9 Rb3 2.901866 1_555
O10 P2 1.514688 1_455
O10 Rb0 2.878770 1_545
O10 Rb0 2.901866 1_555
O11 P3 1.514688 1_565
O11 Rb1 2.878770 1_655
O11 Rb1 2.901866 1_555
O12 P4 1.596381 1_555
O12 P0 1.646128 1_555
O13 P4 1.596381 1_555
O13 P1 1.646128 1_555
O14 P5 1.596381 1_555
O14 P2 1.646128 1_555
O15 P5 1.596381 1_555
O15 P3 1.646128 1_555
O16 P4 1.500185 1_545
O16 Rb2 3.119901 1_455
O17 P4 1.500185 1_655
O17 Rb3 3.119901 1_565
O18 P5 1.500185 1_565
O18 Rb0 3.119901 1_655
O19 P5 1.500185 1_455
O19 Rb1 3.119901 1_545
