# generated using pymatgen
data_KSnSb
_symmetry_space_group_name_H-M   'P 1'
_cell_length_a   4.41537884
_cell_length_b   4.41537813
_cell_length_c   13.07731443
_cell_angle_alpha   90.00000000
_cell_angle_beta   90.00000000
_cell_angle_gamma   119.99999753
_symmetry_Int_Tables_number   1
_chemical_formula_structural   KSnSb
_chemical_formula_sum   'K2 Sn2 Sb2'
_cell_volume   220.79288943
_cell_formula_units_Z   2
loop_
 _symmetry_equiv_pos_site_id
 _symmetry_equiv_pos_as_xyz
  1  'x, y, z'
loop_
 _atom_site_type_symbol
 _atom_site_label
 _atom_site_symmetry_multiplicity
 _atom_site_fract_x
 _atom_site_fract_y
 _atom_site_fract_z
 _atom_site_occupancy
  K  K0  1  0.33333300  0.66666700  0.99882082  1
  K  K1  1  0.66666700  0.33333300  0.49882082  1
  Sn  Sn0  1  -0.00000000  0.00000000  0.29717448  1
  Sn  Sn1  1  0.00000000  -0.00000000  0.79717448  1
  Sb  Sb0  1  0.33333300  0.66666700  0.68850371  1
  Sb  Sb1  1  0.66666700  0.33333300  0.18850371  1
loop_
_geom_bond_atom_site_label_1
_geom_bond_atom_site_label_2
_geom_bond_distance
_geom_bond_site_symmetry_2
K0 Sb1 3.556909 1_566
K0 Sb1 3.556909 1_456
K0 Sb1 3.556915 1_556
K0 Sn1 3.667729 1_565
K0 Sn1 3.667732 1_555
K0 Sn1 3.667732 1_665
K1 Sb0 3.556909 1_545
K1 Sb0 3.556909 1_655
K1 Sb0 3.556915 1_555
K1 Sn0 3.667729 1_655
K1 Sn0 3.667732 1_665
K1 Sn0 3.667732 1_555
Sb0 Sn1 2.918578 1_565
Sb0 Sn1 2.918581 1_555
Sb0 Sn1 2.918581 1_665
Sb1 Sn0 2.918578 1_655
Sb1 Sn0 2.918581 1_665
Sb1 Sn0 2.918581 1_555
