# generated using pymatgen
data_Fe3Co(SiTc)6
_symmetry_space_group_name_H-M   'P 1'
_cell_length_a   6.92483294
_cell_length_b   6.92483225
_cell_length_c   4.73689944
_cell_angle_alpha   90.00015899
_cell_angle_beta   90.00001424
_cell_angle_gamma   119.99999246
_symmetry_Int_Tables_number   1
_chemical_formula_structural   Fe3Co(SiTc)6
_chemical_formula_sum   'Fe3 Co1 Si6 Tc6'
_cell_volume   196.71767740
_cell_formula_units_Z   1
loop_
 _symmetry_equiv_pos_site_id
 _symmetry_equiv_pos_as_xyz
  1  'x, y, z'
loop_
 _atom_site_type_symbol
 _atom_site_label
 _atom_site_symmetry_multiplicity
 _atom_site_fract_x
 _atom_site_fract_y
 _atom_site_fract_z
 _atom_site_occupancy
  Fe  Fe0  1  0.66666771  0.33334141  0.99999844  1
  Fe  Fe1  1  0.66666640  0.33334027  0.50000141  1
  Fe  Fe2  1  0.33330900  0.66666354  0.00000151  1
  Co  Co0  1  0.33332060  0.66666587  0.50000256  1
  Si  Si0  1  0.40166286  0.99753040  0.75074226  1
  Si  Si1  1  0.40165595  0.40412860  0.24925314  1
  Si  Si2  1  0.00245719  0.59832145  0.24925711  1
  Si  Si3  1  0.00245472  0.40412719  0.75074438  1
  Si  Si4  1  0.59587590  0.59832461  0.75074443  1
  Si  Si5  1  0.59588050  0.99755565  0.24925600  1
  Tc  Tc0  1  0.00003792  0.75911221  0.74848055  1
  Tc  Tc1  1  0.00003013  0.24092372  0.25151830  1
  Tc  Tc2  1  0.75911993  0.75910695  0.25152156  1
  Tc  Tc3  1  0.75910827  0.99999849  0.74848193  1
  Tc  Tc4  1  0.24088146  0.24089335  0.74847808  1
  Tc  Tc5  1  0.24087148  0.99996630  0.25151834  1
loop_
_geom_bond_atom_site_label_1
_geom_bond_atom_site_label_2
_geom_bond_distance
_geom_bond_site_symmetry_2
Fe0 Fe1 2.368436 1_555
Fe0 Fe1 2.368464 1_556
Fe0 Si4 2.429196 1_555
Fe0 Si2 2.429254 1_656
Fe0 Si5 2.429277 1_546
Fe0 Si3 2.429278 1_655
Fe0 Si1 2.429346 1_556
Fe0 Si0 2.429381 1_545
Fe0 Tc2 2.938469 1_556
Fe0 Tc3 2.938591 1_545
Fe0 Tc0 2.938600 1_655
Fe0 Tc4 2.938603 1_555
Fe0 Tc1 2.938624 1_656
Fe0 Tc5 2.938720 1_546
Fe1 Si4 2.432629 1_555
Fe1 Si2 2.432695 1_655
Fe1 Si5 2.432700 1_545
Fe1 Si3 2.432717 1_655
Fe1 Si1 2.432790 1_555
Fe1 Si0 2.432807 1_545
Fe1 Tc2 2.932664 1_555
Fe1 Tc4 2.932783 1_555
Fe1 Tc3 2.932793 1_545
Fe1 Tc0 2.932794 1_655
Fe1 Tc1 2.932824 1_655
Fe1 Tc5 2.932904 1_545
Fe2 Si2 2.404758 1_555
Fe2 Si3 2.404819 1_554
Fe2 Si0 2.404834 1_554
Fe2 Si1 2.404918 1_555
Fe2 Si5 2.405031 1_555
Fe2 Si4 2.405085 1_554
Fe2 Tc0 2.938192 1_554
Fe2 Tc1 2.938287 1_555
Fe2 Tc5 2.938330 1_555
Fe2 Tc4 2.938547 1_554
Fe2 Tc3 2.938654 1_554
Fe2 Tc2 2.938764 1_555
Co0 Fe2 2.368445 1_556
Co0 Fe2 2.368455 1_555
Co0 Si0 2.408288 1_555
Co0 Si2 2.408293 1_555
Co0 Si3 2.408336 1_555
Co0 Si1 2.408372 1_555
Co0 Si5 2.408483 1_555
Co0 Si4 2.408487 1_555
Co0 Tc0 2.932438 1_555
Co0 Tc1 2.932518 1_555
Co0 Tc5 2.932574 1_555
Co0 Tc4 2.932721 1_555
Co0 Tc3 2.932785 1_555
Co0 Tc2 2.932892 1_555
Si0 Tc0 2.422638 1_555
Si0 Tc4 2.440518 1_565
Si0 Tc3 2.466772 1_555
Si0 Tc5 2.617441 1_555
Si0 Tc5 2.624086 1_556
Si0 Si5 2.717506 1_556
Si0 Si5 2.729751 1_555
Si1 Tc1 2.422645 1_555
Si1 Tc5 2.440630 1_545
Si1 Tc2 2.466841 1_555
Si1 Tc4 2.617436 1_555
Si1 Tc4 2.624066 1_554
Si1 Si4 2.717500 1_554
Si1 Si4 2.729778 1_555
Si2 Tc5 2.422746 1_555
Si2 Tc2 2.440377 1_455
Si2 Tc1 2.466582 1_555
Si2 Tc0 2.617409 1_555
Si2 Tc0 2.624064 1_554
Si2 Si3 2.717458 1_554
Si2 Si3 2.729717 1_555
Si3 Tc4 2.422844 1_555
Si3 Tc3 2.440418 1_445
Si3 Tc0 2.466646 1_555
Si3 Tc1 2.617393 1_555
Si3 Tc1 2.624025 1_556
Si4 Tc3 2.422929 1_555
Si4 Tc0 2.440626 1_655
Si4 Tc4 2.466781 1_555
Si4 Tc2 2.617452 1_555
Si4 Tc2 2.624100 1_556
Si5 Tc2 2.423014 1_555
Si5 Tc1 2.440552 1_665
Si5 Tc5 2.466790 1_555
Si5 Tc3 2.617441 1_555
Si5 Tc3 2.624069 1_554
Tc0 Tc5 2.884994 1_555
Tc0 Tc2 2.885263 1_455
Tc0 Tc4 2.889281 1_565
Tc0 Tc3 2.889489 1_455
Tc0 Tc5 2.908516 1_556
Tc0 Tc2 2.908817 1_456
Tc1 Tc4 2.885071 1_555
Tc1 Tc3 2.885319 1_445
Tc1 Tc5 2.889386 1_545
Tc1 Tc2 2.889494 1_445
Tc1 Tc4 2.908620 1_554
Tc1 Tc3 2.908827 1_444
Tc2 Tc3 2.885193 1_555
Tc2 Tc5 2.889103 1_655
Tc2 Tc3 2.908744 1_554
Tc3 Tc4 2.889233 1_665
Tc4 Tc5 2.885290 1_545
Tc4 Tc5 2.908844 1_546
