# generated using pymatgen
data_CsMg2H8Rh
_symmetry_space_group_name_H-M   'P 1'
_cell_length_a   5.14132946
_cell_length_b   5.14132946
_cell_length_c   11.08393466
_cell_angle_alpha   90.00000000
_cell_angle_beta   90.00000000
_cell_angle_gamma   90.00000000
_symmetry_Int_Tables_number   1
_chemical_formula_structural   CsMg2H8Rh
_chemical_formula_sum   'Cs2 Mg4 H16 Rh2'
_cell_volume   292.98462216
_cell_formula_units_Z   2
loop_
 _symmetry_equiv_pos_site_id
 _symmetry_equiv_pos_as_xyz
  1  'x, y, z'
loop_
 _atom_site_type_symbol
 _atom_site_label
 _atom_site_symmetry_multiplicity
 _atom_site_fract_x
 _atom_site_fract_y
 _atom_site_fract_z
 _atom_site_occupancy
  Cs  Cs0  1  0.50000000  0.00000000  0.00000000  1
  Cs  Cs1  1  0.00000000  0.50000000  0.50000000  1
  Mg  Mg0  1  0.50000000  0.00000000  0.63384379  1
  Mg  Mg1  1  0.00000000  0.50000000  0.13384379  1
  Mg  Mg2  1  0.50000000  0.00000000  0.36615621  1
  Mg  Mg3  1  0.00000000  0.50000000  0.86615621  1
  H  H0  1  0.22852963  0.22852963  0.75000000  1
  H  H1  1  0.77147037  0.77147037  0.75000000  1
  H  H2  1  0.77147037  0.22852963  0.25000000  1
  H  H3  1  0.22852963  0.77147037  0.25000000  1
  H  H4  1  0.77147037  0.77147037  0.25000000  1
  H  H5  1  0.22852963  0.22852963  0.25000000  1
  H  H6  1  0.22852963  0.77147037  0.75000000  1
  H  H7  1  0.77147037  0.22852963  0.75000000  1
  H  H8  1  0.50000000  0.23529364  0.50000000  1
  H  H9  1  0.50000000  0.76470636  0.50000000  1
  H  H10  1  0.76470636  0.50000000  0.00000000  1
  H  H11  1  0.23529364  0.50000000  0.00000000  1
  H  H12  1  0.00000000  0.00000000  0.60252858  1
  H  H13  1  0.00000000  0.00000000  0.10252858  1
  H  H14  1  0.00000000  0.00000000  0.39747142  1
  H  H15  1  0.00000000  0.00000000  0.89747142  1
  Rh  Rh0  1  0.00000000  0.00000000  0.75000000  1
  Rh  Rh1  1  0.00000000  0.00000000  0.25000000  1
loop_
_geom_bond_atom_site_label_1
_geom_bond_atom_site_label_2
_geom_bond_distance
_geom_bond_site_symmetry_2
Cs0 H13 2.810653 1_555
Cs0 H13 2.810653 1_655
Cs0 H15 2.810653 1_654
Cs0 H15 2.810653 1_554
Cs0 H10 2.908691 1_545
Cs0 H10 2.908691 1_555
Cs0 H11 2.908691 1_545
Cs0 H11 2.908691 1_555
Cs1 H12 2.810653 1_565
Cs1 H12 2.810653 1_555
Cs1 H14 2.810653 1_555
Cs1 H14 2.810653 1_565
Cs1 H9 2.908691 1_455
Cs1 H9 2.908691 1_555
Cs1 H8 2.908691 1_555
Cs1 H8 2.908691 1_455
H0 Rh0 1.661625 1_555
H0 Mg3 2.232958 1_555
H0 Mg0 2.232958 1_555
H1 Rh0 1.661625 1_665
H1 Mg3 2.232958 1_655
H1 Mg0 2.232958 1_565
H2 Rh1 1.661625 1_655
H2 Mg2 2.232958 1_555
H2 Mg1 2.232958 1_655
H3 Rh1 1.661625 1_565
H3 Mg2 2.232958 1_565
H3 Mg1 2.232958 1_555
H4 Rh1 1.661625 1_665
H4 Mg2 2.232958 1_565
H4 Mg1 2.232958 1_655
H5 Rh1 1.661625 1_555
H5 Mg2 2.232958 1_555
H5 Mg1 2.232958 1_555
H6 Rh0 1.661625 1_565
H6 Mg3 2.232958 1_555
H6 Mg0 2.232958 1_565
H7 Rh0 1.661625 1_655
H7 Mg0 2.232958 1_555
H7 Mg3 2.232958 1_655
H8 Mg0 1.914222 1_555
H8 Mg2 1.914222 1_555
H9 Mg0 1.914222 1_565
H9 Mg2 1.914222 1_565
H10 Mg1 1.914222 1_655
H10 Mg3 1.914222 1_654
H11 Mg1 1.914222 1_555
H11 Mg3 1.914222 1_554
H12 Rh0 1.634564 1_555
H13 Rh1 1.634564 1_555
H14 Rh1 1.634564 1_555
H15 Rh0 1.634564 1_555
