# generated using pymatgen
data_TaGaTcIr
_symmetry_space_group_name_H-M   'P 1'
_cell_length_a   4.39245023
_cell_length_b   4.39244974
_cell_length_c   4.39244941
_cell_angle_alpha   60.00000247
_cell_angle_beta   60.00000617
_cell_angle_gamma   59.99999616
_symmetry_Int_Tables_number   1
_chemical_formula_structural   TaGaTcIr
_chemical_formula_sum   'Ta1 Ga1 Tc1 Ir1'
_cell_volume   59.92464048
_cell_formula_units_Z   1
loop_
 _symmetry_equiv_pos_site_id
 _symmetry_equiv_pos_as_xyz
  1  'x, y, z'
loop_
 _atom_site_type_symbol
 _atom_site_label
 _atom_site_symmetry_multiplicity
 _atom_site_fract_x
 _atom_site_fract_y
 _atom_site_fract_z
 _atom_site_occupancy
  Ta  Ta0  1  0.50000000  0.50000000  0.50000000  1
  Ga  Ga0  1  0.00000000  0.00000000  0.00000000  1
  Tc  Tc0  1  0.75000000  0.75000000  0.75000000  1
  Ir  Ir0  1  0.25000100  0.25000100  0.25000100  1
loop_
_geom_bond_atom_site_label_1
_geom_bond_atom_site_label_2
_geom_bond_distance
_geom_bond_site_symmetry_2
Ta0 Tc0 2.689815 1_545
Ta0 Tc0 2.689815 1_554
Ta0 Tc0 2.689815 1_555
Ta0 Tc0 2.689815 1_455
Ga0 Ir0 2.689811 1_545
Ga0 Ir0 2.689812 1_554
Ga0 Ir0 2.689812 1_455
Ga0 Tc0 2.689815 1_454
Ga0 Tc0 2.689815 1_444
Ga0 Tc0 2.689815 1_445
Ga0 Tc0 2.689815 1_544
Ga0 Ir0 2.689826 1_555
Ir0 Ta0 2.689804 1_555
Ir0 Ta0 2.689819 1_545
Ir0 Ta0 2.689819 1_554
Ir0 Ta0 2.689819 1_455
