# generated using pymatgen
data_BaMg(Al2Pt)2
_symmetry_space_group_name_H-M   'P 1'
_cell_length_a   6.91761910
_cell_length_b   6.91761974
_cell_length_c   6.91762043
_cell_angle_alpha   144.57057365
_cell_angle_beta   115.58078162
_cell_angle_gamma   75.72279608
_symmetry_Int_Tables_number   1
_chemical_formula_structural   BaMg(Al2Pt)2
_chemical_formula_sum   'Ba1 Mg1 Al4 Pt2'
_cell_volume   169.54816422
_cell_formula_units_Z   1
loop_
 _symmetry_equiv_pos_site_id
 _symmetry_equiv_pos_as_xyz
  1  'x, y, z'
loop_
 _atom_site_type_symbol
 _atom_site_label
 _atom_site_symmetry_multiplicity
 _atom_site_fract_x
 _atom_site_fract_y
 _atom_site_fract_z
 _atom_site_occupancy
  Ba  Ba0  1  0.00000000  0.00000000  0.00000000  1
  Mg  Mg0  1  0.50000000  0.00000000  0.50000000  1
  Al  Al0  1  0.50733114  0.32177279  0.18555836  1
  Al  Al1  1  0.86378557  0.67822721  0.18555836  1
  Al  Al2  1  0.13621543  0.32177379  0.81444264  1
  Al  Al3  1  0.49266886  0.67822721  0.81444264  1
  Pt  Pt0  1  0.73131739  0.23131739  0.50000000  1
  Pt  Pt1  1  0.26868261  0.76868261  0.50000000  1
loop_
_geom_bond_atom_site_label_1
_geom_bond_atom_site_label_2
_geom_bond_distance
_geom_bond_site_symmetry_2
Ba0 Pt1 3.611579 1_555
Ba0 Pt0 3.611579 1_444
Ba0 Pt1 3.611579 1_544
Ba0 Pt0 3.611579 1_455
Ba0 Mg0 3.687217 1_454
Ba0 Mg0 3.687217 1_555
Mg0 Pt0 2.526654 1_555
Mg0 Pt1 2.526654 1_545
Al0 Pt0 2.520552 1_555
Al0 Pt1 2.576679 1_555
Al0 Pt1 2.576680 1_544
Al0 Ba0 3.687456 1_655
Al0 Ba0 3.687457 1_666
Al0 Ba0 3.771674 1_555
Al1 Pt1 2.520552 1_655
Al1 Pt0 2.576679 1_565
Al1 Pt0 2.576680 1_554
Al1 Ba0 3.687457 1_655
Al1 Ba0 3.687457 1_666
Al1 Ba0 3.771674 1_665
Al2 Pt0 2.520557 1_455
Al2 Pt1 2.576677 1_556
Al2 Pt1 2.576680 1_545
Al2 Ba0 3.687455 1_566
Al2 Ba0 3.687458 1_555
Al2 Ba0 3.771678 1_556
Al3 Pt1 2.520557 1_555
Al3 Pt0 2.576677 1_566
Al3 Pt0 2.576680 1_555
Al3 Ba0 3.687455 1_566
Al3 Ba0 3.687458 1_555
Al3 Ba0 3.771677 1_666
