# generated using pymatgen
data_KHfRhSe4
_symmetry_space_group_name_H-M   'P 1'
_cell_length_a   3.79076269
_cell_length_b   8.34138676
_cell_length_c   6.18760220
_cell_angle_alpha   71.15514037
_cell_angle_beta   90.00000000
_cell_angle_gamma   90.00000000
_symmetry_Int_Tables_number   1
_chemical_formula_structural   KHfRhSe4
_chemical_formula_sum   'K1 Hf1 Rh1 Se4'
_cell_volume   185.16565542
_cell_formula_units_Z   1
loop_
 _symmetry_equiv_pos_site_id
 _symmetry_equiv_pos_as_xyz
  1  'x, y, z'
loop_
 _atom_site_type_symbol
 _atom_site_label
 _atom_site_symmetry_multiplicity
 _atom_site_fract_x
 _atom_site_fract_y
 _atom_site_fract_z
 _atom_site_occupancy
  K  K0  1  0.50000000  0.50461129  0.65125767  1
  Hf  Hf0  1  0.00000000  0.99322743  0.96668604  1
  Rh  Rh0  1  0.50000000  0.00407031  0.52375560  1
  Se  Se0  1  0.00000000  0.83914432  0.43089836  1
  Se  Se1  1  0.50000000  0.78418853  0.93083915  1
  Se  Se2  1  0.00000000  0.20249661  0.55976030  1
  Se  Se3  1  0.50000000  0.17138149  0.10376187  1
loop_
_geom_bond_atom_site_label_1
_geom_bond_atom_site_label_2
_geom_bond_distance
_geom_bond_site_symmetry_2
K0 Se3 3.246229 1_556
K0 Se0 3.283346 1_555
K0 Se0 3.283346 1_655
K0 Se1 3.322263 1_555
K0 Se2 3.344452 1_555
K0 Se2 3.344452 1_655
Hf0 Se2 2.558812 1_565
Hf0 Se1 2.632854 1_555
Hf0 Se1 2.632854 1_455
Hf0 Se3 2.708222 1_466
Hf0 Se3 2.708222 1_566
Hf0 Se0 2.741797 1_556
Rh0 Se0 2.515116 1_645
Rh0 Se0 2.515116 1_545
Rh0 Se3 2.521558 1_555
Rh0 Se2 2.572904 1_555
Rh0 Se2 2.572904 1_655
Rh0 Se1 2.593102 1_545
