# generated using pymatgen
data_Na2ScGaB28
_symmetry_space_group_name_H-M   'P 1'
_cell_length_a   7.32952281
_cell_length_b   7.32952278
_cell_length_c   7.40152377
_cell_angle_alpha   132.81124148
_cell_angle_beta   111.92902759
_cell_angle_gamma   86.36571519
_symmetry_Int_Tables_number   1
_chemical_formula_structural   Na2ScGaB28
_chemical_formula_sum   'Na2 Sc1 Ga1 B28'
_cell_volume   259.78276548
_cell_formula_units_Z   1
loop_
 _symmetry_equiv_pos_site_id
 _symmetry_equiv_pos_as_xyz
  1  'x, y, z'
loop_
 _atom_site_type_symbol
 _atom_site_label
 _atom_site_symmetry_multiplicity
 _atom_site_fract_x
 _atom_site_fract_y
 _atom_site_fract_z
 _atom_site_occupancy
  Na  Na0  1  0.89803249  0.25208777  0.65012026  1
  Na  Na1  1  0.10196751  0.74791223  0.34987974  1
  Sc  Sc0  1  0.50000000  0.00000000  0.00000000  1
  Ga  Ga0  1  0.50000000  0.50000000  0.50000000  1
  B  B0  1  0.72431835  0.71972213  0.32046599  1
  B  B1  1  0.74368100  0.37836030  0.38835029  1
  B  B2  1  0.88469730  0.67902283  0.71165279  1
  B  B3  1  0.12462559  0.83094402  0.79888551  1
  B  B4  1  0.53205851  0.82573908  0.20111449  1
  B  B5  1  0.46737004  0.67304550  0.28834721  1
  B  B6  1  0.11530270  0.32097717  0.28834721  1
  B  B7  1  0.87537441  0.16905598  0.20111449  1
  B  B8  1  0.46794149  0.17426092  0.79888551  1
  B  B9  1  0.53262996  0.32695450  0.71165279  1
  B  B10  1  0.10168564  0.77848780  0.00317928  1
  B  B11  1  0.89925514  0.90385236  0.67953401  1
  B  B12  1  0.89831436  0.22151220  0.99682072  1
  B  B13  1  0.27530853  0.59850737  0.99682072  1
  B  B14  1  0.10074486  0.09614764  0.32046599  1
  B  B15  1  0.50998999  0.14466929  0.38835029  1
  B  B16  1  0.27568165  0.28027787  0.67953401  1
  B  B17  1  0.72469147  0.40149263  0.00317928  1
  B  B18  1  0.75236876  0.91962400  0.83137253  1
  B  B19  1  0.24763124  0.08037600  0.16862747  1
  B  B20  1  0.41174953  0.57900378  0.83137253  1
  B  B21  1  0.58825047  0.42099622  0.16862747  1
  B  B22  1  0.86289822  0.83448169  0.02838022  1
  B  B23  1  0.13710178  0.16551831  0.97161978  1
  B  B24  1  0.69389853  0.66548300  0.02838022  1
  B  B25  1  0.30610147  0.33451700  0.97161978  1
  B  B26  1  0.49001001  0.85533071  0.61164971  1
  B  B27  1  0.25631900  0.62163970  0.61164971  1
loop_
_geom_bond_atom_site_label_1
_geom_bond_atom_site_label_2
_geom_bond_distance
_geom_bond_site_symmetry_2
B0 B21 1.773936 1_555
B0 B4 1.798422 1_555
B0 B11 1.824201 1_555
B0 B5 1.832251 1_555
B0 B24 1.834272 1_555
B0 B17 1.874686 1_555
B0 Na1 2.704277 1_655
B0 Na0 2.858191 1_565
B1 B2 1.710211 1_555
B1 B7 1.768473 1_555
B1 B21 1.817168 1_555
B1 Ga0 2.137046 1_555
B1 Sc0 2.258731 1_555
B1 Na0 2.560797 1_555
B2 B3 1.781102 1_655
B2 B22 1.856225 1_556
B2 Ga0 2.549944 1_555
B2 Na0 2.840158 1_555
B3 Sc0 2.487402 1_566
B3 Na1 2.879945 1_555
B4 B5 1.781089 1_555
B4 Sc0 2.487409 1_565
B4 Na0 2.879948 1_565
B5 Ga0 2.549951 1_555
B5 Na1 2.840157 1_555
B6 B7 1.781102 1_455
B6 Ga0 2.549944 1_555
B6 Na1 2.840158 1_555
B7 Sc0 2.487402 1_555
B7 Na0 2.879945 1_555
B8 B9 1.781089 1_555
B8 Sc0 2.487409 1_556
B8 Na1 2.879948 1_545
B9 Ga0 2.549951 1_555
B9 Na0 2.840157 1_555
B10 B13 1.763348 1_554
B10 B2 1.778343 1_454
B10 B19 1.782899 1_565
B10 B22 1.820754 1_455
B10 B3 1.857623 1_554
B10 B14 1.874680 1_565
B10 Na1 2.722639 1_555
B10 Na0 2.838318 1_454
B11 B18 1.773927 1_555
B11 B3 1.798432 1_655
B11 B2 1.832251 1_555
B11 B23 1.834272 1_665
B11 B12 1.874680 1_565
B11 Na0 2.704278 1_565
B11 Na1 2.858197 1_655
B12 B17 1.763348 1_556
B12 B6 1.778343 1_656
B12 B18 1.782899 1_545
B12 B23 1.820754 1_655
B12 B7 1.857623 1_556
B12 Na0 2.722639 1_555
B12 Na1 2.838318 1_656
B13 B5 1.778343 1_556
B13 B20 1.782902 1_555
B13 B25 1.820769 1_555
B13 B4 1.857617 1_556
B13 B16 1.874686 1_555
B13 Na0 2.722642 1_455
B13 Na1 2.838320 1_556
B14 B19 1.773927 1_555
B14 B7 1.798432 1_455
B14 B16 1.824201 1_555
B14 B6 1.832251 1_555
B14 B22 1.834272 1_445
B14 Na1 2.704278 1_545
B14 Na0 2.858197 1_455
B15 B9 1.710212 1_555
B15 B4 1.768479 1_545
B15 B19 1.817167 1_555
B15 Ga0 2.137046 1_555
B15 Sc0 2.258731 1_555
B15 Na0 2.560797 1_555
B16 B20 1.773936 1_555
B16 B8 1.798422 1_555
B16 B9 1.832251 1_555
B16 B25 1.834272 1_555
B16 Na0 2.704277 1_455
B16 Na1 2.858191 1_545
B17 B9 1.778343 1_554
B17 B21 1.782902 1_555
B17 B24 1.820769 1_555
B17 B8 1.857617 1_554
B17 Na1 2.722642 1_655
B17 Na0 2.838320 1_554
B18 B2 1.771157 1_555
B18 B7 1.791756 1_566
B18 B26 1.817167 1_555
B18 B22 1.860739 1_556
B18 Sc0 2.431712 1_566
B18 Ga0 2.444668 1_555
B19 B6 1.771157 1_555
B19 B3 1.791756 1_544
B19 B23 1.860739 1_554
B19 Sc0 2.431712 1_555
B19 Ga0 2.444668 1_555
B20 B9 1.771157 1_555
B20 B4 1.791756 1_556
B20 B27 1.817168 1_555
B20 B24 1.860733 1_556
B20 Sc0 2.431711 1_566
B20 Ga0 2.444663 1_555
B21 B5 1.771157 1_555
B21 B8 1.791756 1_554
B21 B25 1.860733 1_554
B21 Sc0 2.431711 1_555
B21 Ga0 2.444663 1_555
B22 B24 1.806430 1_555
B22 B7 1.826568 1_565
B22 Na1 2.816435 1_655
B23 B25 1.806430 1_555
B23 B3 1.826568 1_545
B23 B6 1.856225 1_556
B23 Na0 2.816435 1_455
B24 B4 1.826566 1_555
B24 B9 1.856232 1_554
B24 Na1 2.816438 1_655
B25 B8 1.826566 1_555
B25 B5 1.856232 1_556
B25 Na0 2.816438 1_455
B26 B5 1.710212 1_555
B26 B8 1.768479 1_565
B26 Ga0 2.137046 1_555
B26 Sc0 2.258731 1_566
B26 Na1 2.560797 1_555
B27 B6 1.710211 1_555
B27 B3 1.768473 1_555
B27 Ga0 2.137046 1_555
B27 Sc0 2.258731 1_566
B27 Na1 2.560797 1_555
