# generated using pymatgen
data_Ca6Ta4Al12Ir7
_symmetry_space_group_name_H-M   'P 1'
_cell_length_a   8.99627605
_cell_length_b   8.99627731
_cell_length_c   8.99627677
_cell_angle_alpha   60.00000198
_cell_angle_beta   59.99999735
_cell_angle_gamma   60.00000286
_symmetry_Int_Tables_number   1
_chemical_formula_structural   Ca6Ta4Al12Ir7
_chemical_formula_sum   'Ca6 Ta4 Al12 Ir7'
_cell_volume   514.84135554
_cell_formula_units_Z   1
loop_
 _symmetry_equiv_pos_site_id
 _symmetry_equiv_pos_as_xyz
  1  'x, y, z'
loop_
 _atom_site_type_symbol
 _atom_site_label
 _atom_site_symmetry_multiplicity
 _atom_site_fract_x
 _atom_site_fract_y
 _atom_site_fract_z
 _atom_site_occupancy
  Ca  Ca0  1  0.70174785  0.70174785  0.29825215  1
  Ca  Ca1  1  0.29825215  0.70174785  0.29825215  1
  Ca  Ca2  1  0.70174785  0.29825215  0.29825215  1
  Ca  Ca3  1  0.29825215  0.29825215  0.70174785  1
  Ca  Ca4  1  0.70174785  0.29825215  0.70174785  1
  Ca  Ca5  1  0.29825215  0.70174785  0.70174785  1
  Ta  Ta0  1  0.87996742  0.87996742  0.36009875  1
  Ta  Ta1  1  0.87996742  0.36009875  0.87996742  1
  Ta  Ta2  1  0.36009875  0.87996742  0.87996742  1
  Ta  Ta3  1  0.87996742  0.87996742  0.87996742  1
  Al  Al0  1  0.12134615  0.12134615  0.63596055  1
  Al  Al1  1  0.12134615  0.63596055  0.12134615  1
  Al  Al2  1  0.63596055  0.12134615  0.12134615  1
  Al  Al3  1  0.12134615  0.12134615  0.12134615  1
  Al  Al4  1  0.67140171  0.67140171  0.98579588  1
  Al  Al5  1  0.67140171  0.98579588  0.67140171  1
  Al  Al6  1  0.98579588  0.67140171  0.67140171  1
  Al  Al7  1  0.67140171  0.67140171  0.67140171  1
  Al  Al8  1  0.32649198  0.32649198  0.02052607  1
  Al  Al9  1  0.32649198  0.02052607  0.32649198  1
  Al  Al10  1  0.02052607  0.32649198  0.32649198  1
  Al  Al11  1  0.32649198  0.32649198  0.32649198  1
  Ir  Ir0  1  0.00000000  0.00000000  0.00000000  1
  Ir  Ir1  1  0.99692841  0.99692841  0.50307159  1
  Ir  Ir2  1  0.50307159  0.99692841  0.50307159  1
  Ir  Ir3  1  0.99692841  0.50307159  0.50307159  1
  Ir  Ir4  1  0.50307159  0.50307159  0.99692841  1
  Ir  Ir5  1  0.99692841  0.50307159  0.99692841  1
  Ir  Ir6  1  0.50307159  0.99692841  0.99692841  1
loop_
_geom_bond_atom_site_label_1
_geom_bond_atom_site_label_2
_geom_bond_distance
_geom_bond_site_symmetry_2
Ca0 Ta3 3.131373 1_554
Ca0 Ta0 3.131379 1_555
Ca0 Ir3 3.239602 1_555
Ca0 Ir5 3.239602 1_554
Ca0 Ir2 3.239602 1_555
Ca0 Ir6 3.239602 1_554
Ca1 Ta0 3.131371 1_455
Ca1 Ta2 3.131371 1_554
Ca1 Ir3 3.239602 1_455
Ca1 Ir6 3.239602 1_554
Ca1 Ir4 3.239602 1_554
Ca1 Ir1 3.239602 1_455
Ca2 Ta1 3.131371 1_554
Ca2 Ta0 3.131371 1_545
Ca2 Ir5 3.239602 1_554
Ca2 Ir2 3.239602 1_545
Ca2 Ir4 3.239602 1_554
Ca2 Ir1 3.239602 1_545
Ca3 Ta1 3.131371 1_455
Ca3 Ta2 3.131371 1_545
Ca3 Ir3 3.239602 1_455
Ca3 Ir5 3.239602 1_455
Ca3 Ir2 3.239602 1_545
Ca3 Ir6 3.239602 1_545
Ca4 Ta3 3.131373 1_545
Ca4 Ta1 3.131379 1_555
Ca4 Ir3 3.239602 1_555
Ca4 Ir6 3.239602 1_545
Ca4 Ir4 3.239602 1_555
Ca4 Ir1 3.239602 1_545
Ca5 Ta3 3.131372 1_455
Ca5 Ta2 3.131379 1_555
Ca5 Ir5 3.239602 1_455
Ca5 Ir2 3.239602 1_555
Ca5 Ir4 3.239602 1_555
Ca5 Ir1 3.239602 1_455
Al0 Ir0 2.674026 1_556
Al0 Al9 2.773597 1_555
Al0 Al10 2.773597 1_555
Al0 Al11 2.773610 1_555
Al0 Ir1 2.804275 1_445
Al0 Ir2 2.804282 1_545
Al0 Ir3 2.804283 1_455
Al0 Ta3 3.071070 1_445
Al0 Ta1 3.071082 1_455
Al0 Ta2 3.071082 1_545
Al0 Ca4 3.135701 1_455
Al0 Ca5 3.135702 1_545
Al0 Ca3 3.135709 1_555
Al1 Ir0 2.674026 1_565
Al1 Al10 2.773597 1_555
Al1 Al8 2.773597 1_555
Al1 Al11 2.773610 1_555
Al1 Ir5 2.804275 1_454
Al1 Ir4 2.804282 1_554
Al1 Ir3 2.804282 1_455
Al1 Ta3 3.071070 1_454
Al1 Ta2 3.071082 1_554
Al1 Ta0 3.071082 1_455
Al1 Ca0 3.135701 1_455
Al1 Ca5 3.135701 1_554
Al1 Ca1 3.135709 1_555
Al2 Ir0 2.674026 1_655
Al2 Al9 2.773596 1_555
Al2 Al8 2.773597 1_555
Al2 Ir6 2.804275 1_544
Al2 Ir2 2.804282 1_545
Al2 Ir4 2.804283 1_554
Al2 Ta3 3.071070 1_544
Al2 Ta1 3.071082 1_554
Al2 Ta0 3.071082 1_545
Al2 Ca4 3.135701 1_554
Al2 Ca0 3.135702 1_545
Al2 Ca2 3.135709 1_555
Al3 Ir0 2.674019 1_555
Al3 Al8 2.773619 1_555
Al3 Al9 2.773619 1_555
Al3 Ir6 2.804282 1_544
Al3 Ir1 2.804282 1_445
Al3 Ir5 2.804283 1_454
Al3 Ta0 3.071069 1_445
Al3 Ta1 3.071070 1_454
Al3 Ta2 3.071070 1_544
Al3 Ca2 3.135703 1_455
Al3 Ca3 3.135703 1_554
Al3 Ca1 3.135703 1_545
Al4 Ir5 2.566394 1_555
Al4 Ir6 2.566394 1_555
Al4 Ir4 2.566402 1_555
Al4 Ta3 2.809868 1_555
Al4 Ta2 2.809868 1_555
Al4 Ta1 2.809868 1_555
Al4 Ca0 3.108019 1_556
Al4 Ca1 3.108024 1_556
Al4 Ca2 3.108024 1_556
Al5 Ir1 2.566394 1_555
Al5 Ir6 2.566394 1_555
Al5 Ir2 2.566402 1_555
Al5 Ta2 2.809868 1_555
Al5 Ta3 2.809868 1_555
Al5 Ta0 2.809868 1_555
Al5 Ca4 3.108019 1_565
Al5 Ca3 3.108024 1_565
Al5 Ca2 3.108024 1_565
Al6 Ir5 2.566394 1_555
Al6 Ir1 2.566394 1_555
Al6 Ir3 2.566402 1_555
Al6 Ta3 2.809868 1_555
Al6 Ta0 2.809868 1_555
Al6 Ta1 2.809868 1_555
Al6 Ca5 3.108018 1_655
Al6 Ca1 3.108024 1_655
Al6 Ca3 3.108024 1_655
Al7 Ir3 2.566397 1_555
Al7 Ir4 2.566397 1_555
Al7 Ir2 2.566397 1_555
Al7 Ta0 2.809868 1_555
Al7 Ta2 2.809868 1_555
Al7 Ta1 2.809868 1_555
Al7 Ca5 3.108027 1_555
Al7 Ca0 3.108028 1_555
Al7 Ca4 3.108028 1_555
Al8 Ir4 2.634607 1_554
Al8 Ir5 2.634622 1_454
Al8 Ir6 2.634623 1_544
Al8 Al9 2.752554 1_555
Al8 Ca4 3.142466 1_554
Al8 Ca5 3.142467 1_554
Al8 Ca3 3.142477 1_554
Al9 Ir2 2.634607 1_545
Al9 Ir1 2.634622 1_445
Al9 Ir6 2.634622 1_544
Al9 Ca0 3.142467 1_545
Al9 Ca5 3.142467 1_545
Al9 Ca1 3.142477 1_545
Al10 Ir3 2.634607 1_455
Al10 Ir5 2.634622 1_454
Al10 Ir1 2.634623 1_445
Al10 Al11 2.752554 1_555
Al10 Al8 2.752554 1_555
Al10 Al9 2.752554 1_555
Al10 Al3 2.773619 1_555
Al10 Ca4 3.142466 1_455
Al10 Ca0 3.142467 1_455
Al10 Ca2 3.142477 1_455
Al11 Ir3 2.634616 1_455
Al11 Ir4 2.634616 1_554
Al11 Ir2 2.634616 1_545
Al11 Al8 2.752554 1_555
Al11 Al9 2.752554 1_555
Al11 Al2 2.773610 1_555
Al11 Ca2 3.142459 1_555
Al11 Ca3 3.142459 1_555
Al11 Ca1 3.142459 1_555
Ir0 Ta3 2.645073 1_444
Ir0 Ta2 2.645080 1_544
Ir0 Ta0 2.645080 1_445
Ir0 Ta1 2.645080 1_454
Ir1 Ta0 2.771749 1_555
Ir1 Ta3 2.771757 1_555
Ir2 Ta0 2.771756 1_555
Ir2 Ta2 2.771756 1_555
Ir3 Ta1 2.771756 1_555
Ir3 Ta0 2.771757 1_555
Ir4 Ta1 2.771756 1_555
Ir4 Ta2 2.771757 1_555
Ir5 Ta1 2.771749 1_555
Ir5 Ta3 2.771757 1_555
Ir6 Ta2 2.771749 1_555
Ir6 Ta3 2.771756 1_555
