# generated using pymatgen
data_Cd3InP7N12
_symmetry_space_group_name_H-M   'P 1'
_cell_length_a   7.31446825
_cell_length_b   7.34881283
_cell_length_c   7.34881285
_cell_angle_alpha   109.56569154
_cell_angle_beta   109.37657456
_cell_angle_gamma   109.37658824
_symmetry_Int_Tables_number   1
_chemical_formula_structural   Cd3InP7N12
_chemical_formula_sum   'Cd3 In1 P7 N12'
_cell_volume   304.43961676
_cell_formula_units_Z   1
loop_
 _symmetry_equiv_pos_site_id
 _symmetry_equiv_pos_as_xyz
  1  'x, y, z'
loop_
 _atom_site_type_symbol
 _atom_site_label
 _atom_site_symmetry_multiplicity
 _atom_site_fract_x
 _atom_site_fract_y
 _atom_site_fract_z
 _atom_site_occupancy
  Cd  Cd0  1  0.99861381  0.00000000  0.67266689  1
  Cd  Cd1  1  0.99861381  0.67266689  0.00000000  1
  Cd  Cd2  1  0.32594692  0.32733311  0.32733311  1
  In  In0  1  0.65708458  1.00000000  1.00000000  1
  P  P0  1  0.25063443  0.74842178  0.49947609  1
  P  P1  1  0.75115834  0.24894568  0.50052391  1
  P  P2  1  0.75115834  0.50052391  0.24894568  1
  P  P3  1  0.25063443  0.49947609  0.74842178  1
  P  P4  1  0.50221266  0.75105432  0.25157822  1
  P  P5  1  0.50221266  0.25157822  0.75105432  1
  P  P6  1  0.98930684  1.00000000  1.00000000  1
  N  N0  1  0.70780883  0.28086547  0.28086547  1
  N  N1  1  0.28846032  0.71412881  0.28779350  1
  N  N2  1  0.29840779  0.58070802  0.58070802  1
  N  N3  1  0.57433151  0.57366369  0.28587119  1
  N  N4  1  0.42694336  0.71913453  1.00000000  1
  N  N5  1  0.00066782  0.71220650  0.42633631  1
  N  N6  1  0.57433151  0.28587119  0.57366369  1
  N  N7  1  0.71769977  1.00000000  0.41929198  1
  N  N8  1  0.42694336  0.00000000  0.71913453  1
  N  N9  1  0.71769977  0.41929198  1.00000000  1
  N  N10  1  0.28846032  0.28779350  0.71412881  1
  N  N11  1  0.00066782  0.42633631  0.71220650  1
loop_
_geom_bond_atom_site_label_1
_geom_bond_atom_site_label_2
_geom_bond_distance
_geom_bond_site_symmetry_2
Cd0 N7 2.269429 1_545
Cd0 N10 2.285831 1_655
Cd0 N5 2.285832 1_645
Cd0 P6 2.428945 1_545
Cd1 N9 2.269428 1_554
Cd1 N1 2.285831 1_655
Cd1 N11 2.285832 1_654
Cd1 P6 2.428945 1_554
Cd2 N2 2.269429 1_555
Cd2 N3 2.285826 1_555
Cd2 N6 2.285827 1_555
Cd2 P6 2.428945 1_444
In0 N4 2.188242 1_555
In0 N8 2.188242 1_565
In0 N0 2.188242 1_566
In0 P6 2.430029 1_555
N0 P2 1.650646 1_555
N0 P1 1.650646 1_555
N1 P0 1.621507 1_555
N1 P4 1.622315 1_555
N2 P3 1.624088 1_555
N2 P0 1.624088 1_555
N3 P4 1.621514 1_555
N3 P2 1.622311 1_555
N4 P3 1.650646 1_555
N4 P4 1.650646 1_556
N5 P2 1.621512 1_455
N5 P0 1.622309 1_555
N6 P5 1.621514 1_555
N6 P1 1.622311 1_555
N7 P4 1.624088 1_555
N7 P1 1.624088 1_565
N8 P5 1.650646 1_555
N8 P0 1.650646 1_545
N9 P5 1.624088 1_555
N9 P2 1.624088 1_556
N10 P3 1.621507 1_555
N10 P5 1.622315 1_555
N11 P1 1.621512 1_455
N11 P3 1.622308 1_555
