# generated using pymatgen
data_Tb2Te4O11
_symmetry_space_group_name_H-M   'P 1'
_cell_length_a   6.70928270
_cell_length_b   6.70928270
_cell_length_c   16.11952613
_cell_angle_alpha   75.48933364
_cell_angle_beta   75.48933364
_cell_angle_gamma   44.93651573
_symmetry_Int_Tables_number   1
_chemical_formula_structural   Tb2Te4O11
_chemical_formula_sum   'Tb4 Te8 O22'
_cell_volume   493.31711468
_cell_formula_units_Z   2
loop_
 _symmetry_equiv_pos_site_id
 _symmetry_equiv_pos_as_xyz
  1  'x, y, z'
loop_
 _atom_site_type_symbol
 _atom_site_label
 _atom_site_symmetry_multiplicity
 _atom_site_fract_x
 _atom_site_fract_y
 _atom_site_fract_z
 _atom_site_occupancy
  Tb  Tb0  1  0.13349796  0.62961686  0.53659247  1
  Tb  Tb1  1  0.37038314  0.86650204  0.96340753  1
  Tb  Tb2  1  0.86650204  0.37038314  0.46340753  1
  Tb  Tb3  1  0.62961686  0.13349796  0.03659247  1
  Te  Te0  1  0.59964191  0.15728356  0.69937040  1
  Te  Te1  1  0.84271644  0.40035809  0.80062960  1
  Te  Te2  1  0.40035809  0.84271644  0.30062960  1
  Te  Te3  1  0.15728356  0.59964191  0.19937040  1
  Te  Te4  1  0.15296097  0.59052663  0.87333698  1
  Te  Te5  1  0.40947337  0.84703903  0.62666302  1
  Te  Te6  1  0.84703903  0.40947337  0.12666302  1
  Te  Te7  1  0.59052663  0.15296097  0.37333698  1
  O  O0  1  0.85020595  0.14979405  0.75000000  1
  O  O1  1  0.14979405  0.85020595  0.25000000  1
  O  O2  1  0.20305998  0.09108583  0.83208787  1
  O  O3  1  0.90891417  0.79694002  0.66791213  1
  O  O4  1  0.79694002  0.90891417  0.16791213  1
  O  O5  1  0.09108583  0.20305998  0.33208787  1
  O  O6  1  0.60767498  0.44036356  0.90341761  1
  O  O7  1  0.55963644  0.39232502  0.59658239  1
  O  O8  1  0.39232502  0.55963644  0.09658239  1
  O  O9  1  0.44036356  0.60767498  0.40341761  1
  O  O10  1  0.04028851  0.81823269  0.95472124  1
  O  O11  1  0.18176731  0.95971149  0.54527876  1
  O  O12  1  0.68240261  0.81200023  0.37287031  1
  O  O13  1  0.18799977  0.31759739  0.12712969  1
  O  O14  1  0.31759739  0.18799977  0.62712969  1
  O  O15  1  0.81200023  0.68240261  0.87287031  1
  O  O16  1  0.24871912  0.33542483  0.44604706  1
  O  O17  1  0.66457517  0.75128088  0.05395294  1
  O  O18  1  0.75128088  0.66457517  0.55395294  1
  O  O19  1  0.33542483  0.24871912  0.94604706  1
  O  O20  1  0.81823269  0.04028851  0.45472124  1
  O  O21  1  0.95971149  0.18176731  0.04527876  1
loop_
_geom_bond_atom_site_label_1
_geom_bond_atom_site_label_2
_geom_bond_distance
_geom_bond_site_symmetry_2
O0 Te1 2.010494 1_555
O0 Te0 2.010494 1_555
O1 Te2 2.010494 1_555
O1 Te3 2.010494 1_555
O2 Te1 1.841855 1_455
O2 Tb1 2.282366 1_545
O3 Te0 1.841855 1_565
O3 Tb0 2.282366 1_655
O4 Te3 1.841855 1_655
O4 Tb3 2.282366 1_565
O5 Te2 1.841855 1_545
O5 Tb2 2.282366 1_455
O6 Te1 1.902207 1_555
O6 Tb1 2.411165 1_555
O6 Tb3 2.526527 1_556
O6 Te4 2.588909 1_555
O7 Te0 1.902207 1_555
O7 Tb0 2.411165 1_555
O7 Tb2 2.526527 1_555
O7 Te5 2.588909 1_555
O8 Te3 1.902207 1_555
O8 Tb3 2.411165 1_555
O8 Tb1 2.526527 1_554
O8 Te6 2.588909 1_555
O9 Te2 1.902207 1_555
O9 Tb2 2.411165 1_555
O9 Tb0 2.526527 1_555
O9 Te7 2.588909 1_555
O10 Te4 1.870503 1_555
O10 Tb3 2.265601 1_466
O10 Tb1 2.494583 1_555
O11 Te5 1.870503 1_555
O11 Tb2 2.265601 1_465
O11 Tb0 2.494583 1_555
O12 Te7 1.903424 1_565
O12 Te2 2.326207 1_555
O12 Tb2 2.447358 1_555
O13 Te6 1.903424 1_455
O13 Te3 2.326207 1_555
O13 Tb3 2.447358 1_555
O14 Te5 1.903424 1_545
O14 Te0 2.326207 1_555
O14 Tb0 2.447358 1_555
O15 Te4 1.903424 1_655
O15 Te1 2.326207 1_555
O15 Tb1 2.447358 1_555
O16 Te7 1.878535 1_555
O16 Tb0 2.311237 1_555
O16 Tb2 2.351852 1_455
O17 Te6 1.878535 1_555
O17 Tb1 2.311237 1_554
O17 Tb3 2.351852 1_565
O18 Te5 1.878535 1_555
O18 Tb2 2.311237 1_555
O18 Tb0 2.351852 1_655
O19 Te4 1.878535 1_555
O19 Tb3 2.311237 1_556
O19 Tb1 2.351852 1_545
O20 Te7 1.870503 1_555
O20 Tb0 2.265601 1_645
O20 Tb2 2.494583 1_555
O21 Te6 1.870503 1_555
O21 Tb1 2.265601 1_644
O21 Tb3 2.494583 1_555
