# generated using pymatgen
data_GaHgI4
_symmetry_space_group_name_H-M   'P 1'
_cell_length_a   7.43061099
_cell_length_b   7.55936550
_cell_length_c   10.64449133
_cell_angle_alpha   82.97183035
_cell_angle_beta   75.74870464
_cell_angle_gamma   60.44719842
_symmetry_Int_Tables_number   1
_chemical_formula_structural   GaHgI4
_chemical_formula_sum   'Ga2 Hg2 I8'
_cell_volume   504.11470965
_cell_formula_units_Z   2
loop_
 _symmetry_equiv_pos_site_id
 _symmetry_equiv_pos_as_xyz
  1  'x, y, z'
loop_
 _atom_site_type_symbol
 _atom_site_label
 _atom_site_symmetry_multiplicity
 _atom_site_fract_x
 _atom_site_fract_y
 _atom_site_fract_z
 _atom_site_occupancy
  Ga  Ga0  1  0.38583483  0.84961286  0.77078495  1
  Ga  Ga1  1  0.61310189  0.14875344  0.23019907  1
  Hg  Hg0  1  0.96174341  0.50836672  0.88494638  1
  Hg  Hg1  1  0.04604948  0.50025735  0.11200097  1
  I  I0  1  0.76629388  0.53814727  0.68166415  1
  I  I1  1  0.23260047  0.46004085  0.32115587  1
  I  I2  1  0.32178929  0.82993112  0.01467121  1
  I  I3  1  0.66956677  0.17090342  0.98616786  1
  I  I4  1  0.13368799  0.80221306  0.67200157  1
  I  I5  1  0.86634176  0.19589502  0.32748691  1
  I  I6  1  0.40125016  0.17393556  0.68568893  1
  I  I7  1  0.60174107  0.82194333  0.31323212  1
loop_
_geom_bond_atom_site_label_1
_geom_bond_atom_site_label_2
_geom_bond_distance
_geom_bond_site_symmetry_2
Ga0 I2 2.520936 1_556
Ga0 I4 2.543393 1_555
Ga0 I6 2.554760 1_565
Ga0 I0 2.663799 1_555
Ga1 I3 2.525432 1_554
Ga1 I5 2.539989 1_555
Ga1 I7 2.554646 1_545
Ga1 I1 2.667459 1_555
Hg0 Hg1 2.628461 1_656
Hg0 I0 2.819146 1_555
Hg0 I6 3.363440 1_655
Hg0 I4 3.441802 1_655
Hg1 I1 2.812238 1_555
Hg1 I7 3.357772 1_455
