# generated using pymatgen
data_Rb2CoSi3O8
_symmetry_space_group_name_H-M   'P 1'
_cell_length_a   5.20916317
_cell_length_b   6.85593295
_cell_length_c   6.95735326
_cell_angle_alpha   79.49677994
_cell_angle_beta   68.72353510
_cell_angle_gamma   67.49768067
_symmetry_Int_Tables_number   1
_chemical_formula_structural   Rb2CoSi3O8
_chemical_formula_sum   'Rb2 Co1 Si3 O8'
_cell_volume   213.63639715
_cell_formula_units_Z   1
loop_
 _symmetry_equiv_pos_site_id
 _symmetry_equiv_pos_as_xyz
  1  'x, y, z'
loop_
 _atom_site_type_symbol
 _atom_site_label
 _atom_site_symmetry_multiplicity
 _atom_site_fract_x
 _atom_site_fract_y
 _atom_site_fract_z
 _atom_site_occupancy
  Rb  Rb0  1  0.96754632  0.28606424  0.82114103  1
  Rb  Rb1  1  0.03567443  0.69866416  0.20217240  1
  Co  Co0  1  0.68933410  0.88221920  0.77634547  1
  Si  Si0  1  0.31078679  0.08759751  0.25282571  1
  Si  Si1  1  0.64226997  0.28236577  0.40962881  1
  Si  Si2  1  0.36140937  0.71129608  0.59644513  1
  O  O0  1  0.98348942  0.27175864  0.28197808  1
  O  O1  1  0.65507982  0.67130662  0.64557746  1
  O  O2  1  0.53863836  0.20351892  0.24735625  1
  O  O3  1  0.07986237  0.71695421  0.79424416  1
  O  O4  1  0.27378659  0.93600139  0.46090403  1
  O  O5  1  0.60528764  0.15663860  0.62628692  1
  O  O6  1  0.41643760  0.96564233  0.05077591  1
  O  O7  1  0.44039622  0.53197333  0.43231864  1
loop_
_geom_bond_atom_site_label_1
_geom_bond_atom_site_label_2
_geom_bond_distance
_geom_bond_site_symmetry_2
Co0 O1 1.935315 1_555
Co0 O6 1.949207 1_556
Co0 O3 1.950861 1_655
Co0 O5 1.951005 1_565
O0 Si1 1.652993 1_555
O0 Si0 1.654326 1_655
O0 Rb1 2.975827 1_655
O0 Rb0 3.220037 1_554
O1 Si2 1.598917 1_555
O1 Rb0 2.844868 1_555
O1 Rb1 3.019530 1_655
O2 Si0 1.649267 1_555
O2 Si1 1.657236 1_555
O2 Rb0 3.106948 1_554
O3 Si2 1.599205 1_555
O3 Rb1 2.746226 1_556
O3 Rb0 3.185330 1_455
O4 Si0 1.617221 1_565
O4 Si2 1.647855 1_555
O4 Rb0 3.308653 1_465
O5 Si1 1.579534 1_555
O5 Rb0 2.928353 1_455
O5 Rb0 3.124593 1_555
O6 Si0 1.578887 1_565
O6 Rb1 2.992273 1_555
O6 Rb0 3.216514 1_464
O7 Si1 1.630898 1_555
O7 Si2 1.663829 1_555
O7 Rb1 2.872842 1_555
