# generated using pymatgen
data_Rb2TiZn3P4
_symmetry_space_group_name_H-M   'P 1'
_cell_length_a   7.66800237
_cell_length_b   7.66800138
_cell_length_c   5.70876541
_cell_angle_alpha   90.00000000
_cell_angle_beta   90.00000000
_cell_angle_gamma   136.26998037
_symmetry_Int_Tables_number   1
_chemical_formula_structural   Rb2TiZn3P4
_chemical_formula_sum   'Rb2 Ti1 Zn3 P4'
_cell_volume   232.03245843
_cell_formula_units_Z   1
loop_
 _symmetry_equiv_pos_site_id
 _symmetry_equiv_pos_as_xyz
  1  'x, y, z'
loop_
 _atom_site_type_symbol
 _atom_site_label
 _atom_site_symmetry_multiplicity
 _atom_site_fract_x
 _atom_site_fract_y
 _atom_site_fract_z
 _atom_site_occupancy
  Rb  Rb0  1  0.50000000  0.00000000  0.25515914  1
  Rb  Rb1  1  0.00000000  0.50000000  0.74484086  1
  Ti  Ti0  1  0.00000000  0.00000000  0.00000000  1
  Zn  Zn0  1  0.50000000  0.50000000  0.50000000  1
  Zn  Zn1  1  0.50000000  0.50000000  0.00000000  1
  Zn  Zn2  1  0.00000000  0.00000000  0.50000000  1
  P  P0  1  0.66080491  0.85265659  0.75712304  1
  P  P1  1  0.14734341  0.33919509  0.24287696  1
  P  P2  1  0.85265659  0.66080491  0.24287696  1
  P  P3  1  0.33919509  0.14734341  0.75712304  1
loop_
_geom_bond_atom_site_label_1
_geom_bond_atom_site_label_2
_geom_bond_distance
_geom_bond_site_symmetry_2
P0 Ti0 2.391019 1_666
P0 Zn1 2.436500 1_556
P0 Zn2 2.439080 1_665
P0 Zn0 2.483681 1_555
P0 Rb1 3.570831 1_665
P0 Rb0 3.590813 1_566
P0 Rb0 3.608593 1_565
P0 Rb1 3.631799 1_555
P1 Ti0 2.391019 1_555
P1 Zn1 2.436500 1_555
P1 Zn2 2.439080 1_555
P1 Zn0 2.483681 1_555
P1 Rb0 3.570831 1_455
P1 Rb1 3.590813 1_554
P1 Rb1 3.608593 1_555
P1 Rb0 3.631798 1_565
P2 Ti0 2.391019 1_665
P2 Zn1 2.436500 1_555
P2 Zn2 2.439080 1_665
P2 Zn0 2.483681 1_555
P2 Rb0 3.570831 1_665
P2 Rb1 3.590813 1_654
P2 Rb1 3.608593 1_655
P2 Rb0 3.631798 1_555
P3 Ti0 2.391019 1_556
P3 Zn1 2.436500 1_556
P3 Zn2 2.439080 1_555
P3 Zn0 2.483681 1_555
P3 Rb1 3.570831 1_545
P3 Rb0 3.590813 1_556
P3 Rb0 3.608593 1_555
P3 Rb1 3.631799 1_655
