# generated using pymatgen
data_Zr6Sn6Ir5Au
_symmetry_space_group_name_H-M   'P 1'
_cell_length_a   7.30906493
_cell_length_b   7.30906492
_cell_length_c   7.59263625
_cell_angle_alpha   90.00000000
_cell_angle_beta   90.00000000
_cell_angle_gamma   120.00000441
_symmetry_Int_Tables_number   1
_chemical_formula_structural   Zr6Sn6Ir5Au
_chemical_formula_sum   'Zr6 Sn6 Ir5 Au1'
_cell_volume   351.27467919
_cell_formula_units_Z   1
loop_
 _symmetry_equiv_pos_site_id
 _symmetry_equiv_pos_as_xyz
  1  'x, y, z'
loop_
 _atom_site_type_symbol
 _atom_site_label
 _atom_site_symmetry_multiplicity
 _atom_site_fract_x
 _atom_site_fract_y
 _atom_site_fract_z
 _atom_site_occupancy
  Zr  Zr0  1  0.39961573  0.01249799  0.24177783  1
  Zr  Zr1  1  0.58778023  0.62224041  0.75569504  1
  Zr  Zr2  1  0.61288427  0.60038427  0.24177783  1
  Zr  Zr3  1  0.98750201  0.38711573  0.24177783  1
  Zr  Zr4  1  0.03445917  0.41221977  0.75569504  1
  Zr  Zr5  1  0.37775959  0.96554083  0.75569504  1
  Sn  Sn0  1  0.26447628  0.26638351  0.49504467  1
  Sn  Sn1  1  0.26871935  0.26439653  0.99736768  1
  Sn  Sn2  1  0.73560347  0.00432282  0.99736768  1
  Sn  Sn3  1  0.00190823  0.73552372  0.49504467  1
  Sn  Sn4  1  0.73361649  0.99809177  0.49504467  1
  Sn  Sn5  1  0.99567718  0.73128065  0.99736768  1
  Ir  Ir0  1  0.66666700  0.33333300  0.97313023  1
  Ir  Ir1  1  0.33333300  0.66666700  0.04151734  1
  Ir  Ir2  1  0.33333300  0.66666700  0.46768490  1
  Ir  Ir3  1  0.00000000  0.00000000  0.74636113  1
  Ir  Ir4  1  0.00000000  0.00000000  0.24543176  1
  Au  Au0  1  0.66666700  0.33333300  0.55622094  1
loop_
_geom_bond_atom_site_label_1
_geom_bond_atom_site_label_2
_geom_bond_distance
_geom_bond_site_symmetry_2
Zr1 Zr4 3.536137 1_555
Zr1 Zr5 3.536138 1_555
Zr4 Zr5 3.536137 1_555
Sn0 Zr4 3.109863 1_555
Sn0 Zr2 3.150486 1_555
Sn0 Zr0 3.154337 1_555
Sn0 Zr1 3.181099 1_555
Sn0 Zr3 3.218883 1_455
Sn0 Zr5 3.355270 1_545
Sn1 Zr4 3.052217 1_555
Sn1 Zr0 3.083878 1_556
Sn1 Zr1 3.089787 1_555
Sn1 Zr2 3.102382 1_556
Sn1 Zr3 3.211961 1_456
Sn1 Zr5 3.242601 1_545
Sn1 Sn5 3.374869 1_445
Sn1 Sn2 3.374869 1_455
Sn2 Zr1 3.052211 1_545
Sn2 Zr3 3.083869 1_556
Sn2 Zr5 3.089789 1_545
Sn2 Zr0 3.102376 1_556
Sn2 Zr2 3.211973 1_546
Sn2 Zr4 3.242605 1_655
Sn2 Sn5 3.374869 1_545
Sn3 Zr5 3.109854 1_555
Sn3 Zr3 3.150489 1_455
Sn3 Zr2 3.154331 1_455
Sn3 Zr4 3.181093 1_555
Sn3 Zr0 3.218887 1_565
Sn3 Zr1 3.355282 1_455
Sn4 Zr1 3.109852 1_555
Sn4 Zr0 3.150483 1_565
Sn4 Zr3 3.154332 1_565
Sn4 Zr5 3.181104 1_555
Sn4 Zr2 3.218888 1_555
Sn4 Zr4 3.355278 1_665
Sn5 Zr5 3.052212 1_655
Sn5 Zr2 3.083867 1_556
Sn5 Zr4 3.089783 1_655
Sn5 Zr3 3.102387 1_556
Sn5 Zr0 3.211970 1_666
Sn5 Zr1 3.242607 1_555
Ir0 Sn2 2.698566 1_555
Ir0 Sn5 2.698571 1_555
Ir0 Sn1 2.698573 1_555
Ir0 Zr4 2.955412 1_655
Ir0 Zr5 2.955416 1_545
Ir0 Zr1 2.955424 1_555
Ir0 Zr2 2.981991 1_556
Ir0 Zr0 2.981994 1_556
Ir0 Zr3 2.981996 1_556
Ir1 Sn5 2.755303 1_454
Ir1 Sn2 2.755308 1_564
Ir1 Sn1 2.755311 1_554
Ir1 Zr0 2.776929 1_565
Ir1 Zr3 2.776935 1_455
Ir1 Zr2 2.776947 1_555
Ir1 Zr4 2.979533 1_554
Ir1 Zr5 2.979533 1_554
Ir1 Zr1 2.979533 1_554
Ir1 Ir2 3.235735 1_555
Ir2 Sn3 2.717284 1_555
Ir2 Sn4 2.717293 1_555
Ir2 Sn0 2.717298 1_555
Ir2 Zr0 2.888150 1_565
Ir2 Zr3 2.888156 1_455
Ir2 Zr2 2.888168 1_555
Ir2 Zr4 2.991654 1_555
Ir2 Zr5 2.991654 1_555
Ir2 Zr1 2.991654 1_555
Ir3 Sn4 2.721205 1_445
Ir3 Sn0 2.721208 1_555
Ir3 Sn3 2.721210 1_545
Ir3 Sn1 2.725557 1_555
Ir3 Sn5 2.725557 1_445
Ir3 Sn2 2.725557 1_455
Ir3 Zr5 2.896097 1_545
Ir3 Zr1 2.896101 1_445
Ir3 Zr4 2.896104 1_555
Ir4 Sn1 2.709982 1_554
Ir4 Sn5 2.709982 1_444
Ir4 Sn2 2.709982 1_454
Ir4 Sn4 2.712151 1_445
Ir4 Sn0 2.712153 1_555
Ir4 Sn3 2.712156 1_545
Ir4 Zr3 2.876350 1_455
Ir4 Zr2 2.876358 1_445
Ir4 Zr0 2.876365 1_555
Au0 Sn3 2.767345 1_655
Au0 Sn0 2.767345 1_555
Au0 Sn4 2.767345 1_545
Au0 Zr4 2.881455 1_655
Au0 Zr5 2.881459 1_545
Au0 Zr1 2.881467 1_555
Au0 Ir0 3.165441 1_555
Au0 Zr2 3.229806 1_555
Au0 Zr0 3.229809 1_555
Au0 Zr3 3.229810 1_555
