# generated using pymatgen
data_Hf8Nb2GaSn7
_symmetry_space_group_name_H-M   'P 1'
_cell_length_a   5.78229482
_cell_length_b   8.60599942
_cell_length_c   8.60708989
_cell_angle_alpha   119.99581609
_cell_angle_beta   90.00193324
_cell_angle_gamma   89.99612483
_symmetry_Int_Tables_number   1
_chemical_formula_structural   Hf8Nb2GaSn7
_chemical_formula_sum   'Hf8 Nb2 Ga1 Sn7'
_cell_volume   370.94269387
_cell_formula_units_Z   1
loop_
 _symmetry_equiv_pos_site_id
 _symmetry_equiv_pos_as_xyz
  1  'x, y, z'
loop_
 _atom_site_type_symbol
 _atom_site_label
 _atom_site_symmetry_multiplicity
 _atom_site_fract_x
 _atom_site_fract_y
 _atom_site_fract_z
 _atom_site_occupancy
  Hf  Hf0  1  0.00000000  0.66665072  0.33330443  1
  Hf  Hf1  1  1.00000000  0.33334628  0.66669557  1
  Hf  Hf2  1  0.73706343  0.27507849  1.00000000  1
  Hf  Hf3  1  0.73707587  0.72489275  0.72494736  1
  Hf  Hf4  1  0.73707587  0.99994538  0.27505264  1
  Hf  Hf5  1  0.26293357  0.72492551  0.00000000  1
  Hf  Hf6  1  0.26292613  0.27510625  0.27505064  1
  Hf  Hf7  1  0.26292613  0.00005562  0.72494936  1
  Nb  Nb0  1  0.50000000  0.33336119  0.66672437  1
  Nb  Nb1  1  0.50000000  0.66663681  0.33327563  1
  Ga  Ga0  1  0.50000100  0.00000000  0.00000000  1
  Sn  Sn0  1  0.75268524  0.61109198  1.00000000  1
  Sn  Sn1  1  0.75274549  0.38888764  0.38890076  1
  Sn  Sn2  1  0.75274549  0.99998689  0.61109924  1
  Sn  Sn3  1  0.24731276  0.38891102  0.00000000  1
  Sn  Sn4  1  0.24725551  0.61111036  0.61109824  1
  Sn  Sn5  1  0.24725551  0.00001211  0.38890176  1
  Sn  Sn6  1  0.99999700  0.00000200  0.00000000  1
loop_
_geom_bond_atom_site_label_1
_geom_bond_atom_site_label_2
_geom_bond_distance
_geom_bond_site_symmetry_2
Hf0 Nb1 2.891147 1_455
Hf0 Nb1 2.891147 1_555
Hf0 Sn1 3.021822 1_455
Hf0 Sn5 3.021837 1_565
Hf0 Sn3 3.021876 1_555
Hf0 Sn4 3.021881 1_555
Hf0 Sn2 3.021890 1_455
Hf0 Sn0 3.021899 1_454
Hf1 Nb0 2.891147 1_555
Hf1 Nb0 2.891147 1_655
Hf1 Sn2 3.021822 1_545
Hf1 Sn4 3.021837 1_655
Hf1 Sn3 3.021877 1_656
Hf1 Sn5 3.021880 1_655
Hf1 Sn1 3.021890 1_555
Hf1 Sn0 3.021898 1_555
Hf2 Sn6 2.813388 1_556
Hf2 Sn0 2.893148 1_555
Hf2 Sn2 2.982262 1_545
Hf2 Sn1 2.982262 1_556
Hf2 Sn3 2.996479 1_556
Hf2 Sn3 3.108862 1_656
Hf3 Sn6 2.813764 1_566
Hf3 Sn1 2.893620 1_555
Hf3 Sn0 2.981635 1_555
Hf3 Sn2 2.982097 1_555
Hf3 Sn4 2.996947 1_555
Hf3 Sn4 3.108379 1_655
Hf4 Sn6 2.813764 1_565
Hf4 Sn2 2.893621 1_555
Hf4 Sn0 2.981635 1_554
Hf4 Sn1 2.982096 1_565
Hf4 Sn5 2.996947 1_565
Hf4 Sn5 3.108379 1_665
Hf5 Sn6 2.813398 1_465
Hf5 Sn3 2.893157 1_555
Hf5 Sn5 2.982258 1_565
Hf5 Sn4 2.982258 1_554
Hf5 Sn0 2.996487 1_554
Hf5 Sn0 3.108859 1_454
Hf6 Sn6 2.813763 1_455
Hf6 Sn4 2.893620 1_555
Hf6 Sn3 2.981644 1_555
Hf6 Sn5 2.982116 1_555
Hf6 Sn1 2.996941 1_555
Hf6 Sn1 3.108384 1_455
Hf7 Sn6 2.813763 1_456
Hf7 Sn5 2.893621 1_555
Hf7 Sn3 2.981644 1_556
Hf7 Sn4 2.982115 1_545
Hf7 Sn2 2.996941 1_545
Hf7 Sn2 3.108384 1_445
Nb0 Sn3 3.036594 1_556
Nb0 Sn0 3.036602 1_555
Nb0 Sn2 3.036837 1_545
Nb0 Sn4 3.036839 1_555
Nb0 Sn5 3.037282 1_555
Nb0 Sn1 3.037292 1_555
Nb1 Sn3 3.036594 1_555
Nb1 Sn0 3.036602 1_554
Nb1 Sn1 3.036837 1_555
Nb1 Sn5 3.036839 1_565
Nb1 Sn4 3.037282 1_555
Nb1 Sn2 3.037292 1_555
Ga0 Hf5 2.735613 1_545
Ga0 Hf2 2.735629 1_554
Ga0 Hf6 2.735803 1_555
Ga0 Hf7 2.735804 1_554
Ga0 Hf3 2.735815 1_544
Ga0 Hf4 2.735815 1_545
Ga0 Sn6 2.891124 1_555
Ga0 Sn6 2.891171 1_455
