# generated using pymatgen
data_Rb2Hg7
_symmetry_space_group_name_H-M   'P 1'
_cell_length_a   7.08437429
_cell_length_b   7.08437464
_cell_length_c   6.57971253
_cell_angle_alpha   90.00000000
_cell_angle_beta   90.00000000
_cell_angle_gamma   119.99999840
_symmetry_Int_Tables_number   1
_chemical_formula_structural   Rb2Hg7
_chemical_formula_sum   'Rb2 Hg7'
_cell_volume   285.98323628
_cell_formula_units_Z   1
loop_
 _symmetry_equiv_pos_site_id
 _symmetry_equiv_pos_as_xyz
  1  'x, y, z'
loop_
 _atom_site_type_symbol
 _atom_site_label
 _atom_site_symmetry_multiplicity
 _atom_site_fract_x
 _atom_site_fract_y
 _atom_site_fract_z
 _atom_site_occupancy
  Rb  Rb0  1  0.33333300  0.66666700  0.84567499  1
  Rb  Rb1  1  0.66666700  0.33333300  0.15432501  1
  Hg  Hg0  1  0.18053010  0.36106120  0.33587729  1
  Hg  Hg1  1  0.63893880  0.81946990  0.33587729  1
  Hg  Hg2  1  0.18053010  0.81946990  0.33587729  1
  Hg  Hg3  1  0.81946990  0.63893880  0.66412271  1
  Hg  Hg4  1  0.81946990  0.18053010  0.66412271  1
  Hg  Hg5  1  0.36106120  0.18053010  0.66412271  1
  Hg  Hg6  1  0.00000000  0.00000000  -0.00000000  1
loop_
_geom_bond_atom_site_label_1
_geom_bond_atom_site_label_2
_geom_bond_distance
_geom_bond_site_symmetry_2
Hg0 Hg4 3.093808 1_455
Hg0 Hg5 3.093817 1_555
Hg0 Hg6 3.129074 1_555
Hg0 Hg1 3.247539 1_555
Hg0 Hg2 3.247539 1_555
Hg0 Rb0 3.730770 1_554
Hg0 Rb1 3.742053 1_455
Hg0 Rb1 3.742066 1_555
Hg0 Rb0 3.842783 1_555
Hg1 Hg4 3.093808 1_565
Hg1 Hg3 3.093817 1_555
Hg1 Hg6 3.129074 1_665
Hg1 Hg2 3.247539 1_555
Hg1 Rb0 3.730770 1_554
Hg1 Rb1 3.742053 1_565
Hg1 Rb1 3.742066 1_555
Hg1 Rb0 3.842783 1_555
Hg2 Hg3 3.093808 1_455
Hg2 Hg5 3.093808 1_565
Hg2 Hg6 3.129070 1_565
Hg2 Rb0 3.730770 1_554
Hg2 Rb1 3.742059 1_455
Hg2 Rb1 3.742059 1_565
Hg2 Rb0 3.842783 1_555
Hg3 Hg6 3.129074 1_666
Hg3 Hg5 3.247539 1_555
Hg3 Hg4 3.247539 1_555
Hg3 Rb1 3.730770 1_556
Hg3 Rb0 3.742053 1_655
Hg3 Rb0 3.742066 1_555
Hg3 Rb1 3.842783 1_555
Hg4 Hg6 3.129070 1_656
Hg4 Hg5 3.247539 1_555
Hg4 Rb1 3.730770 1_556
Hg4 Rb0 3.742059 1_655
Hg4 Rb0 3.742059 1_545
Hg4 Rb1 3.842783 1_555
Hg5 Hg6 3.129074 1_556
Hg5 Rb1 3.730770 1_556
Hg5 Rb0 3.742053 1_545
Hg5 Rb0 3.742066 1_555
Hg5 Rb1 3.842783 1_555
