# generated using pymatgen
data_Mg2Pt3Pb3O14
_symmetry_space_group_name_H-M   'P 1'
_cell_length_a   7.09964504
_cell_length_b   7.09964544
_cell_length_c   7.09964539
_cell_angle_alpha   60.54569879
_cell_angle_beta   60.54570226
_cell_angle_gamma   60.54569415
_symmetry_Int_Tables_number   1
_chemical_formula_structural   Mg2Pt3Pb3O14
_chemical_formula_sum   'Mg2 Pt3 Pb3 O14'
_cell_volume   256.16314703
_cell_formula_units_Z   1
loop_
 _symmetry_equiv_pos_site_id
 _symmetry_equiv_pos_as_xyz
  1  'x, y, z'
loop_
 _atom_site_type_symbol
 _atom_site_label
 _atom_site_symmetry_multiplicity
 _atom_site_fract_x
 _atom_site_fract_y
 _atom_site_fract_z
 _atom_site_occupancy
  Mg  Mg0  1  0.50000000  0.50000000  0.50000000  1
  Mg  Mg1  1  0.00000000  0.00000000  0.00000000  1
  Pt  Pt0  1  0.50000000  0.00000000  0.00000000  1
  Pt  Pt1  1  0.00000000  0.00000000  0.50000000  1
  Pt  Pt2  1  0.00000000  0.50000000  0.00000000  1
  Pb  Pb0  1  0.00000000  0.50000000  0.50000000  1
  Pb  Pb1  1  0.50000000  0.50000000  0.00000000  1
  Pb  Pb2  1  0.50000000  0.00000000  0.50000000  1
  O  O0  1  0.38312701  0.38312701  0.38312701  1
  O  O1  1  0.61687299  0.61687299  0.61687299  1
  O  O2  1  0.90075685  0.33651186  0.33651186  1
  O  O3  1  0.35304558  0.90354625  0.90354625  1
  O  O4  1  0.33651186  0.33651186  0.90075685  1
  O  O5  1  0.90354625  0.90354625  0.35304558  1
  O  O6  1  0.90354625  0.35304558  0.90354625  1
  O  O7  1  0.33651186  0.90075685  0.33651186  1
  O  O8  1  0.09924315  0.66348814  0.66348814  1
  O  O9  1  0.64695442  0.09645375  0.09645375  1
  O  O10  1  0.66348814  0.66348814  0.09924315  1
  O  O11  1  0.09645375  0.09645375  0.64695442  1
  O  O12  1  0.09645375  0.64695442  0.09645375  1
  O  O13  1  0.66348814  0.09924315  0.66348814  1
loop_
_geom_bond_atom_site_label_1
_geom_bond_atom_site_label_2
_geom_bond_distance
_geom_bond_site_symmetry_2
Mg0 O1 2.024058 1_555
Mg0 O0 2.024058 1_555
Mg0 O2 2.370459 1_555
Mg0 O8 2.370459 1_555
Mg0 O7 2.370459 1_555
Mg0 O13 2.370459 1_555
Mg0 O10 2.370459 1_555
Mg0 O4 2.370459 1_555
Mg1 O3 2.074976 1_544
Mg1 O9 2.074976 1_455
Mg1 O6 2.074976 1_454
Mg1 O12 2.074976 1_545
Mg1 O5 2.074976 1_445
Mg1 O11 2.074976 1_554
O0 Pb0 2.239094 1_555
O0 Pb2 2.239094 1_555
O0 Pb1 2.239094 1_555
O1 Pb0 2.239094 1_655
O1 Pb2 2.239094 1_565
O1 Pb1 2.239094 1_556
O2 Pt1 1.993279 1_655
O2 Pt2 1.993279 1_655
O2 Pb0 2.474769 1_655
O3 Pt0 1.973029 1_566
O3 Pb1 2.366288 1_556
O3 Pb2 2.366289 1_565
O4 Pt2 1.993279 1_556
O4 Pt0 1.993279 1_556
O4 Pb1 2.474769 1_556
O5 Pt1 1.973029 1_665
O5 Pb2 2.366288 1_565
O5 Pb0 2.366289 1_655
O6 Pt2 1.973029 1_656
O6 Pb1 2.366288 1_556
O6 Pb0 2.366289 1_655
O7 Pt1 1.993279 1_565
O7 Pt0 1.993279 1_565
O7 Pb2 2.474769 1_565
O8 Pt1 1.993279 1_565
O8 Pt2 1.993279 1_556
O8 Pb0 2.474769 1_555
O9 Pt0 1.973029 1_555
O9 Pb1 2.366288 1_555
O9 Pb2 2.366289 1_555
O10 Pt2 1.993279 1_655
O10 Pt0 1.993279 1_565
O10 Pb1 2.474769 1_555
O11 Pt1 1.973029 1_555
O11 Pb2 2.366288 1_555
O11 Pb0 2.366289 1_555
O12 Pt2 1.973029 1_555
O12 Pb1 2.366288 1_555
O12 Pb0 2.366289 1_555
O13 Pt1 1.993279 1_655
O13 Pt0 1.993279 1_556
O13 Pb2 2.474769 1_555
