# generated using pymatgen
data_Ba2NbTcF14
_symmetry_space_group_name_H-M   'P 1'
_cell_length_a   7.51441339
_cell_length_b   4.99120510
_cell_length_c   6.95412014
_cell_angle_alpha   85.68221117
_cell_angle_beta   90.00000000
_cell_angle_gamma   90.00000000
_symmetry_Int_Tables_number   1
_chemical_formula_structural   Ba2NbTcF14
_chemical_formula_sum   'Ba2 Nb1 Tc1 F14'
_cell_volume   260.08081949
_cell_formula_units_Z   1
loop_
 _symmetry_equiv_pos_site_id
 _symmetry_equiv_pos_as_xyz
  1  'x, y, z'
loop_
 _atom_site_type_symbol
 _atom_site_label
 _atom_site_symmetry_multiplicity
 _atom_site_fract_x
 _atom_site_fract_y
 _atom_site_fract_z
 _atom_site_occupancy
  Ba  Ba0  1  0.25000000  0.04192532  0.69445610  1
  Ba  Ba1  1  0.75000000  0.97017867  0.30444430  1
  Nb  Nb0  1  0.25000000  0.45610033  0.21801982  1
  Tc  Tc0  1  0.75000000  0.54979266  0.77524002  1
  F  F0  1  0.25000000  0.61067781  0.94746766  1
  F  F1  1  0.46370619  0.67332924  0.20886279  1
  F  F2  1  0.95375714  0.31967105  0.79363693  1
  F  F3  1  0.57615705  0.79582487  0.64665431  1
  F  F4  1  0.75000000  0.42724728  0.51584724  1
  F  F5  1  0.25000000  0.58144742  0.48649755  1
  F  F6  1  0.75000000  0.39749000  0.04143415  1
  F  F7  1  0.92384295  0.79582487  0.64665431  1
  F  F8  1  0.42370266  0.19859993  0.35932338  1
  F  F9  1  0.25000000  0.14370897  0.06490982  1
  F  F10  1  0.07629734  0.19859993  0.35932338  1
  F  F11  1  0.54624286  0.31967105  0.79363693  1
  F  F12  1  0.75000000  0.84658234  0.93472954  1
  F  F13  1  0.03629381  0.67332924  0.20886279  1
loop_
_geom_bond_atom_site_label_1
_geom_bond_atom_site_label_2
_geom_bond_distance
_geom_bond_site_symmetry_2
Ba0 F9 2.663054 1_556
Ba0 F0 2.675538 1_545
Ba0 F10 2.733553 1_555
Ba0 F8 2.733553 1_555
Ba0 F11 2.738056 1_555
Ba0 F2 2.738056 1_455
Ba0 F3 2.772654 1_545
Ba0 F7 2.772654 1_445
Ba0 F5 2.806110 1_545
Ba0 F5 2.959144 1_555
Ba1 F12 2.688798 1_554
Ba1 F6 2.703091 1_565
Ba1 F13 2.722786 1_655
Ba1 F1 2.722786 1_555
Ba1 F8 2.742801 1_565
Ba1 F10 2.742801 1_665
Ba1 F7 2.795580 1_555
Ba1 F3 2.795580 1_555
Ba1 F4 2.805477 1_565
Ba1 F4 2.984098 1_555
F0 Nb0 1.979026 1_556
F1 Nb0 1.935991 1_555
F2 Tc0 1.912538 1_555
F3 Tc0 1.961815 1_555
F4 Tc0 1.947850 1_555
F5 Nb0 2.013228 1_555
F6 Tc0 1.947489 1_554
F7 Tc0 1.961815 1_555
F8 Nb0 2.032484 1_555
F9 Nb0 1.953151 1_555
F10 Nb0 2.032484 1_555
F11 Tc0 1.912538 1_555
F12 Tc0 1.916215 1_555
F13 Nb0 1.935991 1_555
