# generated using pymatgen
data_Ti8VReBi4
_symmetry_space_group_name_H-M   'P 1'
_cell_length_a   7.91964745
_cell_length_b   7.91964878
_cell_length_c   7.91964690
_cell_angle_alpha   96.07366526
_cell_angle_beta   96.07367617
_cell_angle_gamma   142.03490614
_symmetry_Int_Tables_number   1
_chemical_formula_structural   Ti8VReBi4
_chemical_formula_sum   'Ti8 V1 Re1 Bi4'
_cell_volume   288.95905750
_cell_formula_units_Z   1
loop_
 _symmetry_equiv_pos_site_id
 _symmetry_equiv_pos_as_xyz
  1  'x, y, z'
loop_
 _atom_site_type_symbol
 _atom_site_label
 _atom_site_symmetry_multiplicity
 _atom_site_fract_x
 _atom_site_fract_y
 _atom_site_fract_z
 _atom_site_occupancy
  Ti  Ti0  1  0.58640727  0.70242871  0.28092596  1
  Ti  Ti1  1  0.91359273  0.19451869  0.11602143  1
  Ti  Ti2  1  0.30548131  0.58640727  0.88397857  1
  Ti  Ti3  1  0.79757129  0.91359273  0.71907404  1
  Ti  Ti4  1  0.70242871  0.42150275  0.11602143  1
  Ti  Ti5  1  0.07849725  0.79757129  0.88397857  1
  Ti  Ti6  1  0.42150275  0.30548131  0.71907404  1
  Ti  Ti7  1  0.19451869  0.07849725  0.28092596  1
  V  V0  1  0.75000000  0.75000000  0.00000000  1
  Re  Re0  1  0.25000000  0.25000000  0.00000000  1
  Bi  Bi0  1  0.35915777  0.85915777  0.21831555  1
  Bi  Bi1  1  0.14084223  0.35915777  0.50000000  1
  Bi  Bi2  1  0.64084223  0.14084223  0.78168445  1
  Bi  Bi3  1  0.85915777  0.64084223  0.50000000  1
loop_
_geom_bond_atom_site_label_1
_geom_bond_atom_site_label_2
_geom_bond_distance
_geom_bond_site_symmetry_2
Ti0 V0 2.605399 1_555
Ti1 V0 2.605400 1_545
Ti2 V0 2.605399 1_556
Ti3 V0 2.605399 1_556
Ti4 V0 2.605400 1_555
Ti5 V0 2.605400 1_456
Ti6 V0 2.605400 1_556
Ti7 V0 2.605399 1_445
Re0 V0 2.576104 1_445
Re0 V0 2.576104 1_555
Re0 Ti4 2.625470 1_555
Re0 Ti7 2.625470 1_555
Re0 Ti6 2.625470 1_554
Re0 Ti3 2.625470 1_444
Re0 Ti1 2.625470 1_455
Re0 Ti2 2.625470 1_554
Re0 Ti0 2.625471 1_555
Re0 Ti5 2.625471 1_544
Bi0 Ti0 2.913648 1_555
Bi0 Ti7 2.913648 1_565
Bi0 Ti5 2.993542 1_554
Bi0 Ti2 2.993543 1_554
Bi0 Ti1 3.132140 1_565
Bi0 Ti4 3.132140 1_455
Bi0 Ti4 3.165482 1_565
Bi0 Ti1 3.165482 1_455
Bi1 Ti1 2.913648 1_455
Bi1 Ti2 2.913648 1_555
Bi1 Ti6 2.993543 1_555
Bi1 Ti7 2.993543 1_555
Bi1 Ti3 3.132140 1_555
Bi1 Ti0 3.132141 1_445
Bi1 Ti0 3.165482 1_555
Bi1 Ti3 3.165482 1_445
Bi2 Ti6 2.913648 1_555
Bi2 Ti3 2.913648 1_545
Bi2 Ti1 2.993542 1_556
Bi2 Ti4 2.993543 1_556
Bi2 Ti2 3.132140 1_545
Bi2 Ti5 3.132141 1_655
Bi2 Ti5 3.165482 1_545
Bi2 Ti2 3.165482 1_655
Bi3 Ti5 2.913648 1_655
Bi3 Ti4 2.913648 1_555
Bi3 Ti0 2.993543 1_555
Bi3 Ti3 2.993543 1_555
Bi3 Ti6 3.132140 1_555
Bi3 Ti7 3.132140 1_665
Bi3 Ti7 3.165482 1_555
Bi3 Ti6 3.165482 1_665
