# generated using pymatgen
data_Cu2Sn3RuS8
_symmetry_space_group_name_H-M   'P 1'
_cell_length_a   7.32433195
_cell_length_b   7.32433227
_cell_length_c   7.32433220
_cell_angle_alpha   59.67257824
_cell_angle_beta   59.67257170
_cell_angle_gamma   59.67258414
_symmetry_Int_Tables_number   1
_chemical_formula_structural   Cu2Sn3RuS8
_chemical_formula_sum   'Cu2 Sn3 Ru1 S8'
_cell_volume   275.76965131
_cell_formula_units_Z   1
loop_
 _symmetry_equiv_pos_site_id
 _symmetry_equiv_pos_as_xyz
  1  'x, y, z'
loop_
 _atom_site_type_symbol
 _atom_site_label
 _atom_site_symmetry_multiplicity
 _atom_site_fract_x
 _atom_site_fract_y
 _atom_site_fract_z
 _atom_site_occupancy
  Cu  Cu0  1  0.37916734  0.37916734  0.37916734  1
  Cu  Cu1  1  0.62083266  0.62083266  0.62083266  1
  Sn  Sn0  1  0.50000000  0.00000000  0.00000000  1
  Sn  Sn1  1  0.00000000  0.00000000  0.50000000  1
  Sn  Sn2  1  0.00000000  0.50000000  0.00000000  1
  Ru  Ru0  1  0.00000000  0.00000000  0.00000000  1
  S  S0  1  0.25172591  0.25172591  0.25172591  1
  S  S1  1  0.77164523  0.23268342  0.23268342  1
  S  S2  1  0.23268342  0.23268342  0.77164523  1
  S  S3  1  0.23268342  0.77164523  0.23268342  1
  S  S4  1  0.74827409  0.74827409  0.74827409  1
  S  S5  1  0.22835477  0.76731658  0.76731658  1
  S  S6  1  0.76731658  0.76731658  0.22835477  1
  S  S7  1  0.76731658  0.22835477  0.76731658  1
loop_
_geom_bond_atom_site_label_1
_geom_bond_atom_site_label_2
_geom_bond_distance
_geom_bond_site_symmetry_2
Cu0 S0 2.292052 1_555
Cu0 S2 2.344975 1_555
Cu0 S1 2.344975 1_555
Cu0 S3 2.344976 1_555
Cu1 S4 2.292052 1_555
Cu1 S6 2.344975 1_555
Cu1 S5 2.344975 1_555
Cu1 S7 2.344976 1_555
Ru0 S2 2.404644 1_554
Ru0 S6 2.404644 1_445
Ru0 S1 2.404644 1_455
Ru0 S5 2.404644 1_544
Ru0 S3 2.404644 1_545
Ru0 S7 2.404644 1_454
S0 Sn1 2.601270 1_555
S0 Sn0 2.601270 1_555
S0 Sn2 2.601271 1_555
S1 Sn2 2.567882 1_655
S1 Sn1 2.567883 1_655
S2 Sn2 2.567883 1_556
S2 Sn0 2.567883 1_556
S3 Sn0 2.567882 1_565
S3 Sn1 2.567883 1_565
S4 Sn1 2.601270 1_665
S4 Sn0 2.601270 1_566
S4 Sn2 2.601271 1_656
S5 Sn2 2.567882 1_556
S5 Sn1 2.567883 1_565
S6 Sn2 2.567883 1_655
S6 Sn0 2.567883 1_565
S7 Sn0 2.567882 1_556
S7 Sn1 2.567883 1_655
