# generated using pymatgen
data_NaY2(B3Ir4)2
_symmetry_space_group_name_H-M   'P 1'
_cell_length_a   9.86592383
_cell_length_b   9.02499856
_cell_length_c   5.57847775
_cell_angle_alpha   81.29833931
_cell_angle_beta   64.72048152
_cell_angle_gamma   33.98116732
_symmetry_Int_Tables_number   1
_chemical_formula_structural   NaY2(B3Ir4)2
_chemical_formula_sum   'Na1 Y2 B6 Ir8'
_cell_volume   229.93312162
_cell_formula_units_Z   1
loop_
 _symmetry_equiv_pos_site_id
 _symmetry_equiv_pos_as_xyz
  1  'x, y, z'
loop_
 _atom_site_type_symbol
 _atom_site_label
 _atom_site_symmetry_multiplicity
 _atom_site_fract_x
 _atom_site_fract_y
 _atom_site_fract_z
 _atom_site_occupancy
  Na  Na0  1  0.18468471  0.18468471  0.81531529  1
  Y  Y0  1  0.00820597  0.00820597  0.99179403  1
  Y  Y1  1  0.82063667  0.82063667  0.17936333  1
  B  B0  1  0.82646855  0.51752913  0.48247087  1
  B  B1  1  0.16973067  0.47957323  0.52042677  1
  B  B2  1  0.47957323  0.16973067  0.83026933  1
  B  B3  1  0.66800759  0.33041179  0.66958821  1
  B  B4  1  0.51752913  0.82646855  0.17353145  1
  B  B5  1  0.33041179  0.66800759  0.33199241  1
  Ir  Ir0  1  0.41237267  0.41237267  0.58762733  1
  Ir  Ir1  1  0.58577391  0.58577391  0.91422609  1
  Ir  Ir2  1  0.08577391  0.08577391  0.41422609  1
  Ir  Ir3  1  0.91459730  0.91459730  0.58540270  1
  Ir  Ir4  1  0.58510110  0.58510110  0.41489890  1
  Ir  Ir5  1  0.24826675  0.24826675  0.25173325  1
  Ir  Ir6  1  0.41459730  0.41459730  0.08540270  1
  Ir  Ir7  1  0.74826675  0.74826675  0.75173325  1
loop_
_geom_bond_atom_site_label_1
_geom_bond_atom_site_label_2
_geom_bond_distance
_geom_bond_site_symmetry_2
Na0 Y0 3.032844 1_555
Y0 Y1 3.223439 1_446
B0 Ir4 2.115022 1_555
B0 Ir5 2.116611 1_655
B0 Ir7 2.116611 1_555
B0 Ir2 2.226629 1_655
B0 Ir1 2.226629 1_555
B0 Y1 2.961094 1_555
B0 Na0 3.147615 1_565
B0 Na0 3.147615 1_654
B1 Ir7 2.115948 1_455
B1 Ir5 2.115949 1_555
B1 Ir0 2.128119 1_555
B1 Ir3 2.267897 1_455
B1 Ir6 2.267897 1_555
B1 Na0 2.835872 1_555
B1 Y1 3.142904 1_545
B1 Y1 3.142905 1_456
B2 Ir7 2.115949 1_545
B2 Ir5 2.115949 1_556
B2 Ir0 2.128119 1_555
B2 Ir3 2.267897 1_545
B2 Ir6 2.267897 1_556
B2 Na0 2.835872 1_555
B2 Y1 3.142904 1_456
B2 Y1 3.142905 1_545
B3 Ir3 2.153708 1_545
B3 Ir6 2.153708 1_556
B3 Ir2 2.176496 1_655
B3 Ir1 2.176496 1_555
B3 Ir4 2.203952 1_555
B3 Ir0 2.214868 1_555
B3 Y0 3.212366 1_565
B3 Y0 3.212366 1_654
B3 Y0 3.215023 1_655
B4 Ir4 2.115022 1_555
B4 Ir5 2.116611 1_565
B4 Ir7 2.116611 1_554
B4 Ir2 2.226629 1_565
B4 Ir1 2.226630 1_554
B4 Y1 2.961094 1_555
B4 Na0 3.147615 1_654
B4 Na0 3.147615 1_565
B5 Ir3 2.153708 1_455
B5 Ir6 2.153709 1_555
B5 Ir2 2.176496 1_565
B5 Ir1 2.176496 1_554
B5 Ir4 2.203952 1_555
B5 Ir0 2.214868 1_555
B5 Y0 3.212366 1_654
B5 Y0 3.212366 1_565
B5 Y0 3.215023 1_564
Ir0 Y1 3.178391 1_456
Ir0 Y1 3.178391 1_545
Ir0 Y0 3.213898 1_654
Ir0 Y0 3.213898 1_565
Ir1 Y0 3.091411 1_655
Ir1 Y0 3.091411 1_565
Ir1 Na0 3.266377 1_565
Ir1 Na0 3.266377 1_655
Ir2 Y0 3.091411 1_555
Ir2 Y0 3.091411 1_554
Ir2 Na0 3.266377 1_554
Ir2 Na0 3.266377 1_555
Ir3 Y0 3.219899 1_664
Ir3 Y0 3.219900 1_665
Ir3 Y1 3.222926 1_556
Ir3 Y1 3.222926 1_555
Ir4 Y0 3.059911 1_565
Ir4 Y0 3.059911 1_654
Ir4 Na0 3.247397 1_654
Ir4 Na0 3.247397 1_565
Ir5 Na0 2.995630 1_555
Ir5 Na0 2.995630 1_554
Ir5 Y1 3.053955 1_455
Ir5 Y1 3.053955 1_545
Ir6 Y0 3.219899 1_564
Ir6 Y0 3.219899 1_654
Ir6 Y1 3.222925 1_545
Ir6 Y1 3.222925 1_455
Ir7 Na0 2.995629 1_655
Ir7 Na0 2.995629 1_565
Ir7 Y1 3.053955 1_555
Ir7 Y1 3.053956 1_556
