# generated using pymatgen
data_UMo13P9
_symmetry_space_group_name_H-M   'P 1'
_cell_length_a   10.88371776
_cell_length_b   10.88371776
_cell_length_c   3.31508700
_cell_angle_alpha   90.00000000
_cell_angle_beta   90.00000000
_cell_angle_gamma   119.99999855
_symmetry_Int_Tables_number   1
_chemical_formula_structural   UMo13P9
_chemical_formula_sum   'U1 Mo13 P9'
_cell_volume   340.07923146
_cell_formula_units_Z   1
loop_
 _symmetry_equiv_pos_site_id
 _symmetry_equiv_pos_as_xyz
  1  'x, y, z'
loop_
 _atom_site_type_symbol
 _atom_site_label
 _atom_site_symmetry_multiplicity
 _atom_site_fract_x
 _atom_site_fract_y
 _atom_site_fract_z
 _atom_site_occupancy
  U  U0  1  0.66666700  0.33333300  0.00000000  1
  Mo  Mo0  1  0.24090000  0.48179900  0.50000000  1
  Mo  Mo1  1  0.24090000  0.75910000  0.50000000  1
  Mo  Mo2  1  0.52632700  0.05265500  0.50000000  1
  Mo  Mo3  1  0.52632700  0.47367300  0.50000000  1
  Mo  Mo4  1  0.94734500  0.47367300  0.50000000  1
  Mo  Mo5  1  0.99484500  0.27922100  0.00000000  1
  Mo  Mo6  1  0.72077900  0.71562400  0.00000000  1
  Mo  Mo7  1  0.72077900  0.00515500  0.00000000  1
  Mo  Mo8  1  0.99484500  0.71562400  0.00000000  1
  Mo  Mo9  1  0.28437600  0.27922100  0.00000000  1
  Mo  Mo10  1  0.00000000  0.00000000  0.00000000  1
  Mo  Mo11  1  0.51820100  0.75910000  0.50000000  1
  Mo  Mo12  1  0.28437600  0.00515500  0.00000000  1
  P  P0  1  0.41232500  0.20616200  0.50000000  1
  P  P1  1  0.13229300  0.56614700  0.00000000  1
  P  P2  1  0.43385300  0.56614700  0.00000000  1
  P  P3  1  0.43385300  0.86770700  0.00000000  1
  P  P4  1  0.80631000  0.90315500  0.50000000  1
  P  P5  1  0.09684500  0.90315500  0.50000000  1
  P  P6  1  0.09684500  0.19369000  0.50000000  1
  P  P7  1  0.79383800  0.20616200  0.50000000  1
  P  P8  1  0.79383800  0.58767500  0.50000000  1
loop_
_geom_bond_atom_site_label_1
_geom_bond_atom_site_label_2
_geom_bond_distance
_geom_bond_site_symmetry_2
Mo0 P2 2.464248 1_555
Mo0 P2 2.464248 1_556
Mo0 P1 2.464263 1_555
Mo0 P1 2.464263 1_556
Mo0 P6 2.715593 1_555
Mo1 P3 2.464250 1_556
Mo1 P3 2.464250 1_555
Mo1 P1 2.464250 1_556
Mo1 P1 2.464250 1_555
Mo1 P5 2.715603 1_555
Mo2 P3 2.405482 1_545
Mo2 P3 2.405482 1_546
Mo2 P0 2.530575 1_555
Mo2 P7 2.530593 1_555
Mo2 U0 3.121922 1_556
Mo2 U0 3.121922 1_555
Mo3 P2 2.405481 1_556
Mo3 P2 2.405481 1_555
Mo3 P0 2.530594 1_555
Mo3 P8 2.530594 1_555
Mo3 U0 3.121938 1_556
Mo3 U0 3.121938 1_555
Mo4 P1 2.405482 1_655
Mo4 P1 2.405482 1_656
Mo4 P8 2.530575 1_555
Mo4 P7 2.530593 1_555
Mo4 U0 3.121922 1_556
Mo4 U0 3.121922 1_555
Mo5 P6 2.424840 1_654
Mo5 P6 2.424840 1_655
Mo5 P7 2.534996 1_555
Mo5 P7 2.534996 1_554
Mo5 P1 2.705235 1_655
Mo6 P4 2.424840 1_554
Mo6 P4 2.424840 1_555
Mo6 P8 2.535004 1_555
Mo6 P8 2.535004 1_554
Mo6 P2 2.705235 1_555
Mo7 P4 2.424840 1_545
Mo7 P4 2.424840 1_544
Mo7 P7 2.534996 1_555
Mo7 P7 2.534996 1_554
Mo7 P3 2.705235 1_545
Mo8 P5 2.424840 1_655
Mo8 P5 2.424840 1_654
Mo8 P8 2.534998 1_554
Mo8 P8 2.534998 1_555
Mo8 P1 2.705226 1_655
Mo9 P6 2.424840 1_555
Mo9 P6 2.424840 1_554
Mo9 P0 2.535004 1_554
Mo9 P0 2.535004 1_555
Mo9 P2 2.705235 1_555
Mo10 P5 2.465849 1_545
Mo10 P5 2.465849 1_544
Mo10 P6 2.465849 1_554
Mo10 P6 2.465849 1_555
Mo10 P4 2.465849 1_445
Mo10 P4 2.465849 1_444
Mo11 P2 2.464248 1_556
Mo11 P2 2.464248 1_555
Mo11 P3 2.464263 1_555
Mo11 P3 2.464263 1_556
Mo11 P4 2.715593 1_555
Mo12 P5 2.424840 1_544
Mo12 P5 2.424840 1_545
Mo12 P0 2.534998 1_554
Mo12 P0 2.534998 1_555
Mo12 P3 2.705226 1_545
P0 U0 2.914549 1_555
P0 U0 2.914549 1_556
P7 U0 2.914548 1_556
P7 U0 2.914548 1_555
P8 U0 2.914549 1_556
P8 U0 2.914549 1_555
