# generated using pymatgen
data_K2LuTeO6
_symmetry_space_group_name_H-M   'P 1'
_cell_length_a   5.77961888
_cell_length_b   5.77958678
_cell_length_c   5.77938315
_cell_angle_alpha   119.99864536
_cell_angle_beta   119.99928871
_cell_angle_gamma   60.00369864
_symmetry_Int_Tables_number   1
_chemical_formula_structural   K2LuTeO6
_chemical_formula_sum   'K2 Lu1 Te1 O6'
_cell_volume   136.51532245
_cell_formula_units_Z   1
loop_
 _symmetry_equiv_pos_site_id
 _symmetry_equiv_pos_as_xyz
  1  'x, y, z'
loop_
 _atom_site_type_symbol
 _atom_site_label
 _atom_site_symmetry_multiplicity
 _atom_site_fract_x
 _atom_site_fract_y
 _atom_site_fract_z
 _atom_site_occupancy
  K  K0  1  0.74999624  0.75000468  0.25000526  1
  K  K1  1  0.24999692  0.25000023  0.74999928  1
  Lu  Lu0  1  0.50002091  0.49997774  0.49998672  1
  Te  Te0  1  0.00000111  0.99999864  0.00000098  1
  O  O0  1  0.76566924  0.23433264  0.23433919  1
  O  O1  1  0.23432491  0.76567749  0.23433715  1
  O  O2  1  0.23433447  0.23433685  0.23433686  1
  O  O3  1  0.76567099  0.23432807  0.76566223  1
  O  O4  1  0.23432192  0.76567712  0.76566809  1
  O  O5  1  0.76566227  0.76566555  0.76566324  1
loop_
_geom_bond_atom_site_label_1
_geom_bond_atom_site_label_2
_geom_bond_distance
_geom_bond_site_symmetry_2
K0 O5 2.892494 1_555
K0 O5 2.892558 1_554
K0 O3 2.892572 1_565
K0 O4 2.892576 1_655
K0 O0 2.892608 1_565
K0 O1 2.892633 1_655
K0 O0 2.892653 1_555
K0 O1 2.892660 1_555
K0 O4 2.892660 1_554
K0 O3 2.892703 1_554
K0 O2 2.892780 1_565
K0 O2 2.892815 1_655
K1 O2 2.892523 1_555
K1 O2 2.892529 1_556
K1 O0 2.892573 1_455
K1 O1 2.892586 1_545
K1 O4 2.892594 1_545
K1 O3 2.892600 1_455
K1 O0 2.892661 1_556
K1 O4 2.892668 1_555
K1 O1 2.892691 1_556
K1 O3 2.892691 1_555
K1 O5 2.892798 1_545
K1 O5 2.892798 1_455
Lu0 O0 2.171331 1_555
Lu0 O2 2.171400 1_555
Lu0 O5 2.171407 1_555
Lu0 O3 2.171424 1_555
Lu0 O1 2.171522 1_555
Lu0 O4 2.171676 1_555
O0 Te0 1.915388 1_645
O1 Te0 1.915312 1_555
O2 Te0 1.915342 1_545
O3 Te0 1.915357 1_646
O4 Te0 1.915321 1_556
O5 Te0 1.915343 1_656
