# generated using pymatgen
data_Bi4RuRh3O14
_symmetry_space_group_name_H-M   'P 1'
_cell_length_a   7.29777674
_cell_length_b   7.29777648
_cell_length_c   7.29777557
_cell_angle_alpha   59.57348913
_cell_angle_beta   59.57348954
_cell_angle_gamma   59.57348520
_symmetry_Int_Tables_number   1
_chemical_formula_structural   Bi4RuRh3O14
_chemical_formula_sum   'Bi4 Ru1 Rh3 O14'
_cell_volume   272.16063124
_cell_formula_units_Z   1
loop_
 _symmetry_equiv_pos_site_id
 _symmetry_equiv_pos_as_xyz
  1  'x, y, z'
loop_
 _atom_site_type_symbol
 _atom_site_label
 _atom_site_symmetry_multiplicity
 _atom_site_fract_x
 _atom_site_fract_y
 _atom_site_fract_z
 _atom_site_occupancy
  Bi  Bi0  1  0.12500000  0.12500000  0.62500000  1
  Bi  Bi1  1  0.12500000  0.62500000  0.12500000  1
  Bi  Bi2  1  0.62500000  0.12500000  0.12500000  1
  Bi  Bi3  1  0.12500000  0.12500000  0.12500000  1
  Ru  Ru0  1  0.62500000  0.62500000  0.62500000  1
  Rh  Rh0  1  0.62500000  0.62500000  0.12500000  1
  Rh  Rh1  1  0.62500000  0.12500000  0.62500000  1
  Rh  Rh2  1  0.12500000  0.62500000  0.62500000  1
  O  O0  1  0.24885740  0.24885740  0.24885740  1
  O  O1  1  0.00114260  0.00114260  0.00114260  1
  O  O2  1  0.54640524  0.95139431  0.54640524  1
  O  O3  1  0.29237053  0.70605783  0.29237053  1
  O  O4  1  0.54640524  0.54640524  0.95139431  1
  O  O5  1  0.95139431  0.54640524  0.54640524  1
  O  O6  1  0.54394217  0.95762947  0.95762947  1
  O  O7  1  0.95762947  0.95762947  0.54394217  1
  O  O8  1  0.95762947  0.54394217  0.95762947  1
  O  O9  1  0.70605783  0.29237053  0.29237053  1
  O  O10  1  0.29860569  0.70359476  0.70359476  1
  O  O11  1  0.70359476  0.29860569  0.70359476  1
  O  O12  1  0.29237053  0.29237053  0.70605783  1
  O  O13  1  0.70359476  0.70359476  0.29860569  1
loop_
_geom_bond_atom_site_label_1
_geom_bond_atom_site_label_2
_geom_bond_distance
_geom_bond_site_symmetry_2
Bi0 O1 2.229440 1_556
Bi0 O0 2.229440 1_555
Bi0 O12 2.511664 1_555
Bi0 O7 2.511664 1_445
Bi0 O5 2.528788 1_455
Bi0 O10 2.528788 1_545
Bi0 O2 2.528788 1_545
Bi0 O11 2.528788 1_455
Bi1 O1 2.229441 1_565
Bi1 O0 2.229441 1_555
Bi1 O3 2.511664 1_555
Bi1 O8 2.511664 1_454
Bi1 O5 2.528788 1_455
Bi1 O10 2.528788 1_554
Bi1 O13 2.528788 1_455
Bi1 O4 2.528788 1_554
Bi2 O1 2.229441 1_655
Bi2 O0 2.229441 1_555
Bi2 O9 2.511664 1_555
Bi2 O6 2.511664 1_544
Bi2 O2 2.528788 1_545
Bi2 O11 2.528788 1_554
Bi2 O4 2.528788 1_554
Bi2 O13 2.528788 1_545
Bi3 O0 2.221163 1_555
Bi3 O1 2.221163 1_555
Bi3 O12 2.505490 1_554
Bi3 O7 2.505490 1_445
Bi3 O8 2.505490 1_454
Bi3 O3 2.505490 1_545
Bi3 O6 2.505490 1_544
Bi3 O9 2.505490 1_455
O2 Ru0 1.974157 1_555
O2 Rh1 2.017012 1_565
O3 Rh2 2.002161 1_555
O3 Rh0 2.002161 1_555
O4 Ru0 1.974157 1_555
O4 Rh0 2.017012 1_556
O5 Ru0 1.974157 1_555
O5 Rh2 2.017012 1_655
O6 Rh1 2.002161 1_565
O6 Rh0 2.002161 1_556
O7 Rh2 2.002161 1_655
O7 Rh1 2.002161 1_565
O8 Rh2 2.002161 1_655
O8 Rh0 2.002161 1_556
O9 Rh1 2.002161 1_555
O9 Rh0 2.002161 1_555
O10 Ru0 1.974157 1_555
O10 Rh2 2.017012 1_555
O11 Ru0 1.974157 1_555
O11 Rh1 2.017012 1_555
O12 Rh2 2.002161 1_555
O12 Rh1 2.002161 1_555
O13 Ru0 1.974157 1_555
O13 Rh0 2.017012 1_555
