# generated using pymatgen
data_Rb4NiSbCl12
_symmetry_space_group_name_H-M   'P 1'
_cell_length_a   7.08197486
_cell_length_b   7.08197486
_cell_length_c   10.14579214
_cell_angle_alpha   90.00000000
_cell_angle_beta   90.00000000
_cell_angle_gamma   87.95114940
_symmetry_Int_Tables_number   1
_chemical_formula_structural   Rb4NiSbCl12
_chemical_formula_sum   'Rb4 Ni1 Sb1 Cl12'
_cell_volume   508.53048445
_cell_formula_units_Z   1
loop_
 _symmetry_equiv_pos_site_id
 _symmetry_equiv_pos_as_xyz
  1  'x, y, z'
loop_
 _atom_site_type_symbol
 _atom_site_label
 _atom_site_symmetry_multiplicity
 _atom_site_fract_x
 _atom_site_fract_y
 _atom_site_fract_z
 _atom_site_occupancy
  Rb  Rb0  1  0.50000000  0.00000000  0.78461359  1
  Rb  Rb1  1  0.00000000  0.50000000  0.21538641  1
  Rb  Rb2  1  0.50000000  0.00000000  0.21538641  1
  Rb  Rb3  1  0.00000000  0.50000000  0.78461359  1
  Ni  Ni0  1  0.00000000  0.00000000  0.00000000  1
  Sb  Sb0  1  0.50000000  0.50000000  0.50000000  1
  Cl  Cl0  1  0.00000000  0.00000000  0.77573029  1
  Cl  Cl1  1  0.50000000  0.50000000  0.26418323  1
  Cl  Cl2  1  0.73503644  0.73503644  0.50000000  1
  Cl  Cl3  1  0.24387464  0.24387464  0.00000000  1
  Cl  Cl4  1  0.74294046  0.25705954  0.50000000  1
  Cl  Cl5  1  0.22668210  0.77331790  0.00000000  1
  Cl  Cl6  1  0.00000000  0.00000000  0.22426971  1
  Cl  Cl7  1  0.50000000  0.50000000  0.73581677  1
  Cl  Cl8  1  0.26496356  0.26496356  0.50000000  1
  Cl  Cl9  1  0.75612536  0.75612536  0.00000000  1
  Cl  Cl10  1  0.25705954  0.74294046  0.50000000  1
  Cl  Cl11  1  0.77331790  0.22668210  0.00000000  1
loop_
_geom_bond_atom_site_label_1
_geom_bond_atom_site_label_2
_geom_bond_distance
_geom_bond_site_symmetry_2
Cl0 Ni0 2.275394 1_556
Cl0 Rb3 3.542134 1_545
Cl0 Rb0 3.542134 1_455
Cl0 Rb0 3.542134 1_555
Cl0 Rb3 3.542134 1_555
Cl1 Sb0 2.392548 1_555
Cl1 Rb1 3.575430 1_655
Cl1 Rb2 3.575430 1_565
Cl1 Rb1 3.575430 1_555
Cl1 Rb2 3.575430 1_555
Cl2 Sb0 2.395700 1_555
Cl2 Rb0 3.795633 1_565
Cl2 Rb3 3.795633 1_655
Cl2 Rb1 3.795633 1_655
Cl2 Rb2 3.795633 1_565
Cl3 Ni0 2.485786 1_555
Cl3 Rb1 3.290052 1_555
Cl3 Rb2 3.290052 1_555
Cl3 Rb0 3.290052 1_554
Cl3 Rb3 3.290052 1_554
Cl4 Sb0 2.389262 1_555
Cl4 Rb0 3.851839 1_555
Cl4 Rb3 3.851839 1_655
Cl4 Rb2 3.851839 1_555
Cl4 Rb1 3.851839 1_655
Cl5 Ni0 2.229364 1_565
Cl5 Rb1 3.364730 1_555
Cl5 Rb3 3.364730 1_554
Cl5 Rb2 3.364730 1_565
Cl5 Rb0 3.364730 1_564
Cl6 Ni0 2.275394 1_555
Cl6 Rb2 3.542134 1_455
Cl6 Rb1 3.542134 1_545
Cl6 Rb1 3.542134 1_555
Cl6 Rb2 3.542134 1_555
Cl7 Sb0 2.392548 1_555
Cl7 Rb0 3.575430 1_565
Cl7 Rb3 3.575430 1_555
Cl7 Rb3 3.575430 1_655
Cl7 Rb0 3.575430 1_555
Cl8 Sb0 2.395700 1_555
Cl8 Rb0 3.795633 1_555
Cl8 Rb3 3.795633 1_555
Cl8 Rb1 3.795633 1_555
Cl8 Rb2 3.795633 1_555
Cl9 Ni0 2.485786 1_665
Cl9 Rb2 3.290052 1_565
Cl9 Rb1 3.290052 1_655
Cl9 Rb3 3.290052 1_654
Cl9 Rb0 3.290052 1_564
Cl10 Sb0 2.389262 1_555
Cl10 Rb3 3.851839 1_555
Cl10 Rb0 3.851839 1_565
Cl10 Rb1 3.851839 1_555
Cl10 Rb2 3.851839 1_565
Cl11 Ni0 2.229364 1_655
Cl11 Rb2 3.364730 1_555
Cl11 Rb0 3.364730 1_554
Cl11 Rb1 3.364730 1_655
Cl11 Rb3 3.364730 1_654
