# generated using pymatgen
data_NaY(Si7Ir3)2
_symmetry_space_group_name_H-M   'P 1'
_cell_length_a   7.95663201
_cell_length_b   7.95663179
_cell_length_c   7.95663163
_cell_angle_alpha   57.07610819
_cell_angle_beta   57.07610667
_cell_angle_gamma   57.07610686
_symmetry_Int_Tables_number   1
_chemical_formula_structural   NaY(Si7Ir3)2
_chemical_formula_sum   'Na1 Y1 Si14 Ir6'
_cell_volume   332.17852952
_cell_formula_units_Z   1
loop_
 _symmetry_equiv_pos_site_id
 _symmetry_equiv_pos_as_xyz
  1  'x, y, z'
loop_
 _atom_site_type_symbol
 _atom_site_label
 _atom_site_symmetry_multiplicity
 _atom_site_fract_x
 _atom_site_fract_y
 _atom_site_fract_z
 _atom_site_occupancy
  Na  Na0  1  0.00000000  0.00000000  0.00000000  1
  Y  Y0  1  0.50000000  0.50000000  0.50000000  1
  Si  Si0  1  0.75004304  0.75004304  0.75004304  1
  Si  Si1  1  0.24995696  0.24995696  0.24995696  1
  Si  Si2  1  0.85286562  0.06311450  0.67712669  1
  Si  Si3  1  0.67712669  0.85286562  0.06311450  1
  Si  Si4  1  0.06311450  0.67712669  0.85286562  1
  Si  Si5  1  0.65256740  0.82736574  0.43432422  1
  Si  Si6  1  0.43432422  0.65256740  0.82736574  1
  Si  Si7  1  0.82736574  0.43432422  0.65256740  1
  Si  Si8  1  0.17263426  0.56567578  0.34743260  1
  Si  Si9  1  0.56567578  0.34743260  0.17263426  1
  Si  Si10  1  0.34743260  0.17263426  0.56567578  1
  Si  Si11  1  0.93688550  0.32287331  0.14713438  1
  Si  Si12  1  0.32287331  0.14713438  0.93688550  1
  Si  Si13  1  0.14713438  0.93688550  0.32287331  1
  Ir  Ir0  1  0.07394295  0.43212838  0.74693719  1
  Ir  Ir1  1  0.25306281  0.92605705  0.56787162  1
  Ir  Ir2  1  0.56787162  0.25306281  0.92605705  1
  Ir  Ir3  1  0.92605705  0.56787162  0.25306281  1
  Ir  Ir4  1  0.43212838  0.74693719  0.07394295  1
  Ir  Ir5  1  0.74693719  0.07394295  0.43212838  1
loop_
_geom_bond_atom_site_label_1
_geom_bond_atom_site_label_2
_geom_bond_distance
_geom_bond_site_symmetry_2
Na0 Si11 3.074120 1_455
Na0 Si4 3.074120 1_544
Na0 Si13 3.074120 1_545
Na0 Si2 3.074120 1_454
Na0 Si12 3.074121 1_554
Na0 Si3 3.074121 1_445
Na0 Si9 3.170788 1_455
Na0 Si6 3.170788 1_544
Na0 Si10 3.170788 1_554
Na0 Si5 3.170788 1_445
Na0 Si8 3.170788 1_545
Na0 Si7 3.170788 1_454
Si0 Si3 2.709122 1_556
Si0 Si2 2.709122 1_565
Si0 Si4 2.709122 1_655
Si1 Si12 2.709122 1_554
Si1 Si13 2.709122 1_545
Si1 Si11 2.709122 1_455
Si2 Si3 2.544691 1_546
Si2 Si4 2.544691 1_645
Si2 Si7 2.750864 1_555
Si2 Y0 3.212330 1_555
Si3 Si4 2.544691 1_654
Si3 Si5 2.750864 1_555
Si3 Y0 3.212330 1_555
Si4 Si6 2.750864 1_555
Si4 Y0 3.212330 1_555
Si5 Y0 3.130383 1_555
Si6 Y0 3.130383 1_555
Si7 Y0 3.130383 1_555
Si8 Y0 3.130383 1_555
Si9 Y0 3.130383 1_555
Si10 Si12 2.750864 1_555
Si10 Y0 3.130383 1_555
Si11 Si12 2.544691 1_654
Si11 Si13 2.544691 1_645
Si11 Si9 2.750864 1_555
Si11 Si4 2.789750 1_654
Si11 Y0 3.212330 1_555
Si12 Si13 2.544691 1_546
Si12 Si3 2.789750 1_546
Si12 Y0 3.212330 1_555
Si13 Si8 2.750864 1_555
Si13 Si2 2.789750 1_465
Si13 Y0 3.212330 1_555
Ir0 Si0 2.439900 1_455
Ir0 Si7 2.441947 1_455
Ir0 Si12 2.448556 1_555
Ir0 Si10 2.453496 1_555
Ir0 Si4 2.458109 1_555
Ir0 Si11 2.516141 1_456
Ir0 Si8 2.524262 1_555
Ir0 Y0 3.039776 1_555
Ir0 Na0 3.099632 1_556
Ir1 Si1 2.439900 1_565
Ir1 Si10 2.441947 1_565
Ir1 Si4 2.448556 1_555
Ir1 Si6 2.453496 1_555
Ir1 Si13 2.458109 1_555
Ir1 Si2 2.516141 1_465
Ir1 Si5 2.524262 1_555
Ir1 Y0 3.039776 1_555
Ir1 Na0 3.099632 1_566
Ir2 Si1 2.439900 1_556
Ir2 Si9 2.441947 1_556
Ir2 Si2 2.448556 1_555
Ir2 Si7 2.453496 1_555
Ir2 Si12 2.458109 1_555
Ir2 Si3 2.516141 1_546
Ir2 Si6 2.524262 1_555
Ir2 Y0 3.039776 1_555
Ir2 Na0 3.099632 1_656
Ir3 Si1 2.439900 1_655
Ir3 Si8 2.441947 1_655
Ir3 Si3 2.448556 1_555
Ir3 Si5 2.453496 1_555
Ir3 Si11 2.458109 1_555
Ir3 Si4 2.516141 1_654
Ir3 Si7 2.524262 1_555
Ir3 Y0 3.039776 1_555
Ir3 Na0 3.099632 1_665
Ir4 Si0 2.439900 1_554
Ir4 Si6 2.441947 1_554
Ir4 Si13 2.448556 1_555
Ir4 Si8 2.453496 1_555
Ir4 Si3 2.458109 1_555
Ir4 Si12 2.516141 1_564
Ir4 Si9 2.524262 1_555
Ir4 Y0 3.039776 1_555
Ir4 Na0 3.099632 1_565
Ir5 Si0 2.439900 1_545
Ir5 Si5 2.441947 1_545
Ir5 Si11 2.448556 1_555
Ir5 Si9 2.453496 1_555
Ir5 Si2 2.458109 1_555
Ir5 Si13 2.516141 1_645
Ir5 Si10 2.524262 1_555
Ir5 Y0 3.039776 1_555
Ir5 Na0 3.099632 1_655
