# generated using pymatgen
data_BaSr(SiOs)4
_symmetry_space_group_name_H-M   'P 1'
_cell_length_a   8.01970415
_cell_length_b   6.91661140
_cell_length_c   6.05258386
_cell_angle_alpha   76.06889632
_cell_angle_beta   56.83345151
_cell_angle_gamma   47.09764032
_symmetry_Int_Tables_number   1
_chemical_formula_structural   BaSr(SiOs)4
_chemical_formula_sum   'Ba1 Sr1 Si4 Os4'
_cell_volume   201.06081888
_cell_formula_units_Z   1
loop_
 _symmetry_equiv_pos_site_id
 _symmetry_equiv_pos_as_xyz
  1  'x, y, z'
loop_
 _atom_site_type_symbol
 _atom_site_label
 _atom_site_symmetry_multiplicity
 _atom_site_fract_x
 _atom_site_fract_y
 _atom_site_fract_z
 _atom_site_occupancy
  Ba  Ba0  1  0.75000100  0.75000000  0.75000000  1
  Sr  Sr0  1  0.50000000  0.50000100  0.50000000  1
  Si  Si0  1  0.07252724  0.42747276  0.07252624  1
  Si  Si1  1  0.17831401  0.82168599  0.17831401  1
  Si  Si2  1  0.42747376  0.07252624  0.42747276  1
  Si  Si3  1  0.82168599  0.17831401  0.82168599  1
  Os  Os0  1  0.37481310  0.37481110  0.12518790  1
  Os  Os1  1  0.87676747  0.87676847  0.12323153  1
  Os  Os2  1  0.12518890  0.12518690  0.37481110  1
  Os  Os3  1  0.12323153  0.12323253  0.87676747  1
loop_
_geom_bond_atom_site_label_1
_geom_bond_atom_site_label_2
_geom_bond_distance
_geom_bond_site_symmetry_2
Ba0 Si0 3.324052 1_656
Ba0 Si2 3.324063 1_565
Ba0 Os1 3.403770 1_556
Ba0 Os3 3.403775 1_655
Ba0 Os1 3.403785 1_555
Ba0 Os3 3.403790 1_565
Ba0 Os0 3.525865 1_566
Ba0 Os2 3.525867 1_566
Ba0 Os0 3.525871 1_655
Ba0 Os2 3.525879 1_655
Ba0 Si3 3.536338 1_565
Ba0 Si1 3.536339 1_655
Ba0 Si3 3.536348 1_555
Ba0 Si1 3.536350 1_556
Ba0 Si2 3.663926 1_566
Ba0 Si0 3.663931 1_566
Ba0 Si2 3.663931 1_655
Ba0 Si0 3.663936 1_655
Si0 Sr0 3.538162 1_455
Si0 Sr0 3.538167 1_554
Si1 Sr0 3.315393 1_555
Si2 Sr0 3.538156 1_545
Si2 Sr0 3.538173 1_555
Si3 Sr0 3.315393 1_555
Os0 Si3 2.330811 1_554
Os0 Si1 2.330819 1_555
Os0 Si2 2.387156 1_555
Os0 Si0 2.387164 1_555
Os0 Sr0 3.394937 1_555
Os0 Sr0 3.394939 1_554
Os1 Si2 2.346421 1_565
Os1 Si0 2.346428 1_655
Os1 Si3 2.381405 1_564
Os1 Si1 2.381413 1_655
Os1 Sr0 3.517465 1_654
Os1 Sr0 3.517472 1_565
Os2 Si1 2.330811 1_545
Os2 Si3 2.330819 1_455
Os2 Si2 2.387160 1_555
Os2 Si0 2.387160 1_555
Os2 Sr0 3.394928 1_545
Os2 Sr0 3.394937 1_455
Os3 Si0 2.346424 1_556
Os3 Si2 2.346425 1_555
Os3 Si3 2.381405 1_455
Os3 Si1 2.381413 1_546
Os3 Sr0 3.517461 1_545
Os3 Sr0 3.517466 1_456
