# generated using pymatgen
data_HfSc2P3
_symmetry_space_group_name_H-M   'P 1'
_cell_length_a   6.47387568
_cell_length_b   6.47387562
_cell_length_c   6.47387479
_cell_angle_alpha   146.49980227
_cell_angle_beta   131.90328126
_cell_angle_gamma   59.88355894
_symmetry_Int_Tables_number   1
_chemical_formula_structural   HfSc2P3
_chemical_formula_sum   'Hf1 Sc2 P3'
_cell_volume   110.44972121
_cell_formula_units_Z   1
loop_
 _symmetry_equiv_pos_site_id
 _symmetry_equiv_pos_as_xyz
  1  'x, y, z'
loop_
 _atom_site_type_symbol
 _atom_site_label
 _atom_site_symmetry_multiplicity
 _atom_site_fract_x
 _atom_site_fract_y
 _atom_site_fract_z
 _atom_site_occupancy
  Hf  Hf0  1  0.00000000  0.00000000  0.00000000  1
  Sc  Sc0  1  0.66753299  0.66753299  0.00000000  1
  Sc  Sc1  1  0.33246701  0.33246701  1.00000000  1
  P  P0  1  0.50000000  0.00000000  0.50000000  1
  P  P1  1  0.16417966  0.66417966  0.50000000  1
  P  P2  1  0.83582034  0.33582034  0.50000000  1
loop_
_geom_bond_atom_site_label_1
_geom_bond_atom_site_label_2
_geom_bond_distance
_geom_bond_site_symmetry_2
Hf0 P1 2.621861 1_544
Hf0 P2 2.621861 1_455
Hf0 P1 2.621862 1_555
Hf0 P2 2.621862 1_444
Hf0 P0 2.638153 1_454
Hf0 P0 2.638153 1_555
P0 Sc0 2.648430 1_545
P0 Sc1 2.648430 1_555
P0 Sc0 2.648430 1_556
P0 Sc1 2.648430 1_544
P1 Sc0 2.638421 1_455
P1 Sc0 2.638421 1_556
P1 Sc1 2.654443 1_554
P1 Sc1 2.654444 1_565
P2 Sc1 2.638421 1_655
P2 Sc1 2.638421 1_554
P2 Sc0 2.654443 1_556
P2 Sc0 2.654444 1_545
