# generated using pymatgen
data_Al20FeNi2Rh5
_symmetry_space_group_name_H-M   'P 1'
_cell_length_a   7.80520747
_cell_length_b   7.80175733
_cell_length_c   7.68768178
_cell_angle_alpha   90.00000000
_cell_angle_beta   90.00000000
_cell_angle_gamma   120.01463393
_symmetry_Int_Tables_number   1
_chemical_formula_structural   Al20FeNi2Rh5
_chemical_formula_sum   'Al20 Fe1 Ni2 Rh5'
_cell_volume   405.35810271
_cell_formula_units_Z   1
loop_
 _symmetry_equiv_pos_site_id
 _symmetry_equiv_pos_as_xyz
  1  'x, y, z'
loop_
 _atom_site_type_symbol
 _atom_site_label
 _atom_site_symmetry_multiplicity
 _atom_site_fract_x
 _atom_site_fract_y
 _atom_site_fract_z
 _atom_site_occupancy
  Al  Al0  1  0.00165136  0.00330373  0.00389260  1
  Al  Al1  1  0.00165136  0.00330373  0.49610740  1
  Al  Al2  1  0.47394702  0.94789304  0.25000000  1
  Al  Al3  1  0.52600308  0.47258387  0.75000000  1
  Al  Al4  1  0.94658078  0.47258387  0.75000000  1
  Al  Al5  1  0.06131792  0.52391488  0.25000000  1
  Al  Al6  1  0.46259696  0.52391488  0.25000000  1
  Al  Al7  1  0.52857228  0.05714456  0.75000000  1
  Al  Al8  1  0.19573090  0.39145980  0.94827338  1
  Al  Al9  1  0.81176271  0.19768547  0.43383016  1
  Al  Al10  1  0.38592176  0.19768547  0.43383016  1
  Al  Al11  1  0.60850431  0.80511116  0.93843609  1
  Al  Al12  1  0.19660886  0.80511116  0.93843609  1
  Al  Al13  1  0.80340276  0.60680552  0.06234728  1
  Al  Al14  1  0.81176271  0.19768547  0.06616984  1
  Al  Al15  1  0.80340276  0.60680552  0.43765272  1
  Al  Al16  1  0.38592176  0.19768547  0.06616984  1
  Al  Al17  1  0.60850431  0.80511116  0.56156391  1
  Al  Al18  1  0.19573090  0.39145980  0.55172662  1
  Al  Al19  1  0.19660886  0.80511116  0.56156391  1
  Fe  Fe0  1  0.12790764  0.25581627  0.25000000  1
  Ni  Ni0  1  0.33119811  0.66239821  0.75000000  1
  Ni  Ni1  1  0.66567519  0.33134938  0.25000000  1
  Rh  Rh0  1  0.87020600  0.12923876  0.75000000  1
  Rh  Rh1  1  0.25903375  0.12923876  0.75000000  1
  Rh  Rh2  1  0.74036196  0.86892614  0.25000000  1
  Rh  Rh3  1  0.12856318  0.86892614  0.25000000  1
  Rh  Rh4  1  0.87087382  0.74174664  0.75000000  1
loop_
_geom_bond_atom_site_label_1
_geom_bond_atom_site_label_2
_geom_bond_distance
_geom_bond_site_symmetry_2
Al0 Fe0 2.547467 1_555
Al0 Rh2 2.588231 1_445
Al0 Rh3 2.588232 1_545
Al0 Rh0 2.614592 1_454
Al0 Rh1 2.614601 1_554
Al0 Rh4 2.632837 1_444
Al1 Fe0 2.547467 1_555
Al1 Rh2 2.588231 1_445
Al1 Rh3 2.588232 1_545
Al1 Rh0 2.614592 1_455
Al1 Rh1 2.614601 1_555
Al1 Rh4 2.632837 1_445
Al2 Rh2 2.446471 1_555
Al2 Rh3 2.446486 1_555
Al2 Ni1 2.590448 1_565
Al3 Rh1 2.435821 1_555
Al3 Rh4 2.449567 1_555
Al3 Ni0 2.599537 1_555
Al4 Rh0 2.435823 1_555
Al4 Rh4 2.449562 1_555
Al4 Ni0 2.599524 1_655
Al5 Fe0 2.394306 1_555
Al5 Rh3 2.471296 1_555
Al5 Ni1 2.674291 1_455
Al6 Fe0 2.394311 1_555
Al6 Rh2 2.471293 1_555
Al6 Ni1 2.674298 1_555
Al7 Rh1 2.434376 1_555
Al7 Rh0 2.434384 1_555
Al7 Ni0 2.666718 1_545
Al8 Ni0 2.381908 1_555
Al8 Fe0 2.494018 1_556
Al8 Rh1 2.786394 1_555
Al8 Rh0 2.786398 1_455
Al9 Ni1 2.361020 1_555
Al9 Rh0 2.577756 1_555
Al9 Fe0 2.678103 1_655
Al9 Rh2 2.730652 1_545
Al10 Ni1 2.361031 1_555
Al10 Rh1 2.577751 1_555
Al10 Fe0 2.678103 1_555
Al10 Rh3 2.730652 1_545
Al11 Ni0 2.368973 1_555
Al11 Rh2 2.555672 1_556
Al11 Rh0 2.738235 1_565
Al11 Rh4 2.747623 1_555
Al12 Ni0 2.368952 1_555
Al12 Rh3 2.555679 1_556
Al12 Rh1 2.738237 1_565
Al12 Rh4 2.747629 1_455
Al13 Ni1 2.354549 1_555
Al13 Rh4 2.568443 1_554
Al13 Rh3 2.740791 1_655
Al13 Rh2 2.740795 1_555
Al14 Ni1 2.361020 1_555
Al14 Rh0 2.577756 1_554
Al14 Fe0 2.678103 1_655
Al14 Rh2 2.730652 1_545
Al15 Ni1 2.354549 1_555
Al15 Rh4 2.568443 1_555
Al15 Rh3 2.740791 1_655
Al15 Rh2 2.740795 1_555
Al16 Ni1 2.361031 1_555
Al16 Rh1 2.577751 1_554
Al16 Fe0 2.678103 1_555
Al16 Rh3 2.730652 1_545
Al17 Ni0 2.368973 1_555
Al17 Rh2 2.555672 1_555
Al17 Rh0 2.738235 1_565
Al17 Rh4 2.747623 1_555
Al18 Ni0 2.381908 1_555
Al18 Fe0 2.494018 1_555
Al18 Rh1 2.786394 1_555
Al18 Rh0 2.786398 1_455
Al19 Ni0 2.368952 1_555
Al19 Rh3 2.555679 1_555
Al19 Rh1 2.738237 1_565
Al19 Rh4 2.747629 1_455
Fe0 Rh2 3.020985 1_445
Fe0 Rh3 3.020986 1_545
