# generated using pymatgen
data_Hf3Zr3(PN)2
_symmetry_space_group_name_H-M   'P 1'
_cell_length_a   5.78998666
_cell_length_b   5.78998764
_cell_length_c   8.30444788
_cell_angle_alpha   89.98609297
_cell_angle_beta   90.01390801
_cell_angle_gamma   145.71616679
_symmetry_Int_Tables_number   1
_chemical_formula_structural   Hf3Zr3(PN)2
_chemical_formula_sum   'Hf3 Zr3 P2 N2'
_cell_volume   156.81956705
_cell_formula_units_Z   1
loop_
 _symmetry_equiv_pos_site_id
 _symmetry_equiv_pos_as_xyz
  1  'x, y, z'
loop_
 _atom_site_type_symbol
 _atom_site_label
 _atom_site_symmetry_multiplicity
 _atom_site_fract_x
 _atom_site_fract_y
 _atom_site_fract_z
 _atom_site_occupancy
  Hf  Hf0  1  0.93637888  0.06362112  0.25045246  1
  Hf  Hf1  1  0.06285149  0.93714851  0.75026456  1
  Hf  Hf2  1  0.36533224  0.63466776  0.94182940  1
  Zr  Zr0  1  0.63604497  0.36395503  0.44070756  1
  Zr  Zr1  1  0.36493497  0.63506503  0.55948886  1
  Zr  Zr2  1  0.63548293  0.36451707  0.05840589  1
  P  P0  1  0.26085012  0.73914988  0.24734484  1
  P  P1  1  0.74143172  0.25856828  0.75281669  1
  N  N0  1  0.00056852  0.99943148  0.50040296  1
  N  N1  1  0.99612216  0.00387784  0.99828578  1
loop_
_geom_bond_atom_site_label_1
_geom_bond_atom_site_label_2
_geom_bond_distance
_geom_bond_site_symmetry_2
Hf0 N0 2.193696 1_645
Hf0 N1 2.196138 1_554
Hf0 P0 2.585640 1_545
Hf0 P0 2.585641 1_655
Hf1 N0 2.186261 1_555
Hf1 N1 2.188214 1_465
Hf1 P1 2.611060 1_565
Hf1 P1 2.611061 1_455
Hf2 N1 2.286112 1_565
Hf2 N1 2.286113 1_455
Hf2 P1 2.693453 1_455
Hf2 P1 2.693453 1_565
Hf2 P0 2.788413 1_556
P0 Zr2 2.701392 1_455
P0 Zr2 2.701392 1_565
P0 Zr0 2.720141 1_455
P0 Zr0 2.720141 1_565
P0 Zr1 2.836273 1_555
P1 Zr1 2.712681 1_655
P1 Zr1 2.712682 1_545
P1 Zr2 2.795741 1_556
P1 Zr0 2.841886 1_555
N0 Zr0 2.325032 1_565
N0 Zr0 2.325033 1_455
N0 Zr1 2.325079 1_455
N0 Zr1 2.325080 1_565
N1 Zr2 2.353558 1_656
N1 Zr2 2.353558 1_546
