# generated using pymatgen
data_Na12In8PdAu3
_symmetry_space_group_name_H-M   'P 1'
_cell_length_a   9.51790830
_cell_length_b   9.51796922
_cell_length_c   9.52033800
_cell_angle_alpha   60.14708756
_cell_angle_beta   60.14735453
_cell_angle_gamma   60.14013722
_symmetry_Int_Tables_number   1
_chemical_formula_structural   Na12In8PdAu3
_chemical_formula_sum   'Na12 In8 Pd1 Au3'
_cell_volume   611.85132383
_cell_formula_units_Z   1
loop_
 _symmetry_equiv_pos_site_id
 _symmetry_equiv_pos_as_xyz
  1  'x, y, z'
loop_
 _atom_site_type_symbol
 _atom_site_label
 _atom_site_symmetry_multiplicity
 _atom_site_fract_x
 _atom_site_fract_y
 _atom_site_fract_z
 _atom_site_occupancy
  Na  Na0  1  0.45441720  0.04570492  0.04533698  1
  Na  Na1  1  0.79603238  0.20626279  0.79139096  1
  Na  Na2  1  0.45460245  0.45460245  0.04490729  1
  Na  Na3  1  0.79539755  0.79539755  0.20509271  1
  Na  Na4  1  0.20626379  0.79603238  0.79138996  1
  Na  Na5  1  0.04373621  0.45396762  0.45861004  1
  Na  Na6  1  0.04388691  0.04388591  0.45850480  1
  Na  Na7  1  0.20611309  0.20611409  0.79149520  1
  Na  Na8  1  0.45396762  0.04373721  0.45860904  1
  Na  Na9  1  0.79558280  0.20429508  0.20466302  1
  Na  Na10  1  0.04570192  0.45441920  0.04533698  1
  Na  Na11  1  0.20429808  0.79558080  0.20466302  1
  In  In0  1  0.42122135  0.42122235  0.40899622  1
  In  In1  1  0.74886106  0.42081228  0.40943684  1
  In  In2  1  0.82877865  0.82877765  0.84100378  1
  In  In3  1  0.41760223  0.41760323  0.74749844  1
  In  In4  1  0.83239777  0.83239677  0.50250156  1
  In  In5  1  0.42081128  0.74886106  0.40943584  1
  In  In6  1  0.82918872  0.50113894  0.84056416  1
  In  In7  1  0.50113894  0.82918772  0.84056316  1
  Pd  Pd0  1  0.62500000  0.62500000  0.12500000  1
  Au  Au0  1  0.62500000  0.12500000  0.62500000  1
  Au  Au1  1  0.12500000  0.62500000  0.62500000  1
  Au  Au2  1  0.62500000  0.62500000  0.62500000  1
loop_
_geom_bond_atom_site_label_1
_geom_bond_atom_site_label_2
_geom_bond_distance
_geom_bond_site_symmetry_2
Na0 Pd0 3.312716 1_545
Na2 Pd0 3.305089 1_555
Na3 Pd0 3.305089 1_555
Na9 Pd0 3.312716 1_555
Na10 Pd0 3.312675 1_455
Na11 Pd0 3.312675 1_555
In0 Pd0 2.852796 1_555
In0 Na2 3.181908 1_555
In0 Na11 3.242754 1_555
In0 Na9 3.242791 1_555
In0 Na5 3.251304 1_555
In0 Na8 3.251325 1_555
In0 Na7 3.312626 1_555
In1 Pd0 2.856068 1_555
In1 Na10 3.185353 1_655
In1 Na9 3.235639 1_555
In1 Na3 3.240626 1_555
In1 Na5 3.245421 1_655
In1 Na6 3.252704 1_655
In1 Na1 3.303683 1_555
In2 Pd0 2.852796 1_556
In2 Na3 3.181908 1_556
In2 Na10 3.242754 1_656
In2 Na0 3.242791 1_566
In2 Na4 3.251304 1_655
In2 Na1 3.251325 1_565
In2 Na6 3.312626 1_665
In3 Na2 3.220853 1_556
In3 Na0 3.233320 1_556
In3 Na10 3.233332 1_556
In3 Na7 3.261177 1_555
In3 Na1 3.262106 1_555
In3 Na4 3.262117 1_555
In4 Na3 3.220853 1_555
In4 Na9 3.233320 1_565
In4 Na11 3.233332 1_655
In4 Na6 3.261177 1_665
In4 Na8 3.262106 1_565
In4 Na5 3.262117 1_655
In5 Pd0 2.856076 1_555
In5 Na0 3.185355 1_565
In5 Na11 3.235588 1_555
In5 Na3 3.240623 1_555
In5 Na8 3.245454 1_565
In5 Na6 3.252686 1_565
In5 Na4 3.303696 1_555
In6 Pd0 2.856076 1_556
In6 Na9 3.185355 1_556
In6 Na10 3.235588 1_656
In6 Na2 3.240623 1_556
In6 Na1 3.245454 1_555
In6 Na7 3.252686 1_655
In6 Na5 3.303696 1_655
In7 Pd0 2.856068 1_556
In7 Na11 3.185353 1_556
In7 Na0 3.235639 1_566
In7 Na2 3.240626 1_556
In7 Na4 3.245421 1_555
In7 Na7 3.252704 1_565
In7 Na8 3.303683 1_565
Au0 In3 2.912090 1_555
Au0 In4 2.912090 1_545
Au0 In1 2.944967 1_555
Au0 In7 2.944967 1_545
Au0 In2 2.948441 1_545
Au0 In0 2.948441 1_555
Au0 Na1 3.286078 1_555
Au0 Na8 3.286078 1_555
Au0 Na6 3.296356 1_655
Au0 Na7 3.296356 1_555
Au0 Na0 3.311315 1_556
Au0 Na9 3.311315 1_555
Au1 In3 2.912060 1_555
Au1 In4 2.912060 1_455
Au1 In5 2.944954 1_555
Au1 In6 2.944954 1_455
Au1 In2 2.948448 1_455
Au1 In0 2.948448 1_555
Au1 Na4 3.286083 1_555
Au1 Na5 3.286083 1_555
Au1 Na6 3.296363 1_565
Au1 Na7 3.296363 1_555
Au1 Na10 3.311307 1_556
Au1 Na11 3.311307 1_555
Au2 In4 2.906851 1_555
Au2 In3 2.906851 1_555
Au2 In6 2.942636 1_555
Au2 In5 2.942636 1_555
Au2 In7 2.942641 1_555
Au2 In1 2.942641 1_555
Au2 Na5 3.296223 1_655
Au2 Na4 3.296223 1_555
Au2 Na8 3.296237 1_565
Au2 Na1 3.296237 1_555
Au2 Na2 3.309356 1_556
Au2 Na3 3.309356 1_555
