# generated using pymatgen
data_Cs2Ag2SnS4
_symmetry_space_group_name_H-M   'P 1'
_cell_length_a   14.08777364
_cell_length_b   12.51322841
_cell_length_c   7.89331687
_cell_angle_alpha   84.06671610
_cell_angle_beta   62.06441974
_cell_angle_gamma   33.86886490
_symmetry_Int_Tables_number   1
_chemical_formula_structural   Cs2Ag2SnS4
_chemical_formula_sum   'Cs4 Ag4 Sn2 S8'
_cell_volume   558.04040883
_cell_formula_units_Z   2
loop_
 _symmetry_equiv_pos_site_id
 _symmetry_equiv_pos_as_xyz
  1  'x, y, z'
loop_
 _atom_site_type_symbol
 _atom_site_label
 _atom_site_symmetry_multiplicity
 _atom_site_fract_x
 _atom_site_fract_y
 _atom_site_fract_z
 _atom_site_occupancy
  Cs  Cs0  1  0.18344874  0.18344874  0.81655126  1
  Cs  Cs1  1  0.06655126  0.06655126  0.43344874  1
  Cs  Cs2  1  0.81655126  0.81655126  0.18344874  1
  Cs  Cs3  1  0.43344874  0.43344874  0.06655126  1
  Ag  Ag0  1  0.43718213  0.43718213  0.56281787  1
  Ag  Ag1  1  0.68718213  0.68718213  0.81281787  1
  Ag  Ag2  1  0.81281787  0.81281787  0.68718213  1
  Ag  Ag3  1  0.56281787  0.56281787  0.43718213  1
  Sn  Sn0  1  0.25000000  0.25000000  0.25000000  1
  Sn  Sn1  1  0.00000000  0.00000000  0.00000000  1
  S  S0  1  0.04847263  0.83523557  0.75003865  1
  S  S1  1  0.88374885  0.49996135  0.41476443  1
  S  S2  1  0.75003865  0.36625115  0.04847263  1
  S  S3  1  0.49996135  0.88374885  0.20152737  1
  S  S4  1  0.41476443  0.20152737  0.88374885  1
  S  S5  1  0.20152737  0.41476443  0.49996135  1
  S  S6  1  0.36625115  0.75003865  0.83523557  1
  S  S7  1  0.83523557  0.04847263  0.36625115  1
loop_
_geom_bond_atom_site_label_1
_geom_bond_atom_site_label_2
_geom_bond_distance
_geom_bond_site_symmetry_2
Cs0 S6 3.614370 1_545
Cs0 S2 3.614374 1_456
Cs0 S3 3.636805 1_545
Cs0 S1 3.636819 1_456
Cs0 S5 3.717558 1_555
Cs0 S4 3.717567 1_555
Cs1 S1 3.614370 1_455
Cs1 S3 3.614374 1_545
Cs1 S2 3.636805 1_456
Cs1 S6 3.636819 1_544
Cs1 S0 3.717558 1_545
Cs1 S7 3.717567 1_455
Cs2 S7 3.614348 1_565
Cs2 S0 3.614356 1_654
Cs2 S5 3.636809 1_565
Cs2 S4 3.636812 1_654
Cs2 S3 3.717539 1_555
Cs2 S1 3.717547 1_555
Cs3 S4 3.614348 1_554
Cs3 S5 3.614356 1_555
Cs3 S0 3.636809 1_644
Cs3 S7 3.636812 1_465
Cs3 S2 3.717539 1_555
Cs3 S6 3.717547 1_554
Ag0 S7 2.371722 1_555
Ag0 S0 2.371726 1_555
Ag1 S1 2.371718 1_555
Ag1 S3 2.371732 1_556
Ag2 S4 2.371722 1_565
Ag2 S5 2.371726 1_655
Ag3 S6 2.371718 1_555
Ag3 S2 2.371732 1_555
S0 Sn1 2.418780 1_566
S1 Sn0 2.418757 1_655
S2 Sn1 2.418762 1_655
S3 Sn0 2.418762 1_565
S4 Sn0 2.418768 1_556
S5 Sn0 2.418780 1_555
S6 Sn1 2.418757 1_566
S7 Sn1 2.418768 1_655
