# generated using pymatgen
data_Cs3RbSnI6
_symmetry_space_group_name_H-M   'P 1'
_cell_length_a   10.39407372
_cell_length_b   10.39407357
_cell_length_c   10.39408428
_cell_angle_alpha   90.51188650
_cell_angle_beta   90.51188513
_cell_angle_gamma   90.51201543
_symmetry_Int_Tables_number   1
_chemical_formula_structural   Cs3RbSnI6
_chemical_formula_sum   'Cs6 Rb2 Sn2 I12'
_cell_volume   1122.80798625
_cell_formula_units_Z   2
loop_
 _symmetry_equiv_pos_site_id
 _symmetry_equiv_pos_as_xyz
  1  'x, y, z'
loop_
 _atom_site_type_symbol
 _atom_site_label
 _atom_site_symmetry_multiplicity
 _atom_site_fract_x
 _atom_site_fract_y
 _atom_site_fract_z
 _atom_site_occupancy
  Cs  Cs0  1  0.75000074  0.12960597  0.37039399  1
  Cs  Cs1  1  0.37039403  0.74999926  0.12960601  1
  Cs  Cs2  1  0.12960496  0.37039504  0.75000000  1
  Cs  Cs3  1  0.24999926  0.87039403  0.62960601  1
  Cs  Cs4  1  0.62960597  0.25000074  0.87039399  1
  Cs  Cs5  1  0.87039504  0.62960496  0.25000000  1
  Rb  Rb0  1  0.24999952  0.25000048  0.25000000  1
  Rb  Rb1  1  0.75000048  0.74999952  0.75000000  1
  Sn  Sn0  1  0.00000000  0.00000000  0.00000000  1
  Sn  Sn1  1  0.50000000  0.50000000  0.50000000  1
  I  I0  1  0.44707995  0.57529525  0.79504426  1
  I  I1  1  0.79504757  0.44708141  0.57529576  1
  I  I2  1  0.57529811  0.79504311  0.44708042  1
  I  I3  1  0.05291859  0.70495243  0.92470424  1
  I  I4  1  0.92470475  0.05292005  0.70495574  1
  I  I5  1  0.70495689  0.92470189  0.05291958  1
  I  I6  1  0.55292005  0.42470475  0.20495574  1
  I  I7  1  0.20495243  0.55291859  0.42470424  1
  I  I8  1  0.42470189  0.20495689  0.55291958  1
  I  I9  1  0.94708141  0.29504757  0.07529576  1
  I  I10  1  0.29504311  0.07529811  0.94708042  1
  I  I11  1  0.07529525  0.94707995  0.29504426  1
loop_
_geom_bond_atom_site_label_1
_geom_bond_atom_site_label_2
_geom_bond_distance
_geom_bond_site_symmetry_2
Cs0 I1 3.933602 1_555
Cs0 I5 3.933605 1_545
Cs0 I11 3.972430 1_645
Cs0 I8 3.972468 1_555
Cs0 I2 3.998509 1_545
Cs0 I4 3.998511 1_555
Cs0 I6 4.087173 1_555
Cs0 I9 4.087180 1_555
Cs1 I3 3.933602 1_554
Cs1 I2 3.933605 1_555
Cs1 I6 3.972430 1_555
Cs1 I10 3.972468 1_564
Cs1 I5 3.998509 1_555
Cs1 I0 3.998511 1_554
Cs1 I11 4.087173 1_555
Cs1 I7 4.087180 1_555
Cs2 I4 3.933582 1_455
Cs2 I0 3.933582 1_555
Cs2 I9 3.972422 1_456
Cs2 I7 3.972422 1_555
Cs2 I3 3.998473 1_555
Cs2 I1 3.998473 1_455
Cs2 I8 4.087156 1_555
Cs2 I10 4.087156 1_555
Cs3 I7 3.933602 1_555
Cs3 I10 3.933605 1_565
Cs3 I4 3.972430 1_465
Cs3 I2 3.972468 1_555
Cs3 I8 3.998509 1_565
Cs3 I11 3.998511 1_555
Cs3 I0 4.087173 1_555
Cs3 I3 4.087180 1_555
Cs4 I9 3.933602 1_556
Cs4 I8 3.933605 1_555
Cs4 I0 3.972430 1_555
Cs4 I5 3.972468 1_546
Cs4 I10 3.998509 1_555
Cs4 I6 3.998511 1_556
Cs4 I4 4.087173 1_555
Cs4 I1 4.087180 1_555
Cs5 I11 3.933582 1_655
Cs5 I6 3.933582 1_555
Cs5 I3 3.972422 1_654
Cs5 I1 3.972422 1_555
Cs5 I9 3.998473 1_555
Cs5 I7 3.998473 1_655
Cs5 I2 4.087156 1_555
Cs5 I5 4.087156 1_555
I0 Sn1 3.211659 1_555
I0 Rb1 3.656439 1_555
I1 Sn1 3.211688 1_555
I1 Rb1 3.656427 1_555
I2 Sn1 3.211649 1_555
I2 Rb1 3.656427 1_555
I3 Sn0 3.211688 1_566
I3 Rb1 3.656427 1_455
I4 Sn0 3.211659 1_656
I4 Rb1 3.656439 1_545
I5 Sn0 3.211649 1_665
I5 Rb1 3.656427 1_554
I6 Sn1 3.211659 1_555
I6 Rb0 3.656439 1_555
I7 Sn1 3.211688 1_555
I7 Rb0 3.656427 1_555
I8 Sn1 3.211649 1_555
I8 Rb0 3.656427 1_555
I9 Sn0 3.211688 1_655
I9 Rb0 3.656427 1_655
I10 Sn0 3.211649 1_556
I10 Rb0 3.656427 1_556
I11 Sn0 3.211659 1_565
I11 Rb0 3.656439 1_565
