# generated using pymatgen
data_PdClO2F5
_symmetry_space_group_name_H-M   'P 1'
_cell_length_a   8.39371241
_cell_length_b   8.39371214
_cell_length_c   8.98303367
_cell_angle_alpha   90.00000000
_cell_angle_beta   90.00000000
_cell_angle_gamma   125.81124060
_symmetry_Int_Tables_number   1
_chemical_formula_structural   PdClO2F5
_chemical_formula_sum   'Pd4 Cl4 O8 F20'
_cell_volume   513.24502588
_cell_formula_units_Z   4
loop_
 _symmetry_equiv_pos_site_id
 _symmetry_equiv_pos_as_xyz
  1  'x, y, z'
loop_
 _atom_site_type_symbol
 _atom_site_label
 _atom_site_symmetry_multiplicity
 _atom_site_fract_x
 _atom_site_fract_y
 _atom_site_fract_z
 _atom_site_occupancy
  Pd  Pd0  1  0.99913874  0.77098541  0.93308648  1
  Pd  Pd1  1  0.00086126  0.22901459  0.43308648  1
  Pd  Pd2  1  0.77098541  0.99913874  0.06691352  1
  Pd  Pd3  1  0.22901459  0.00086126  0.56691352  1
  Cl  Cl0  1  0.38666188  0.61333812  0.75000000  1
  Cl  Cl1  1  0.27594599  0.72405401  0.25000000  1
  Cl  Cl2  1  0.61333812  0.38666188  0.25000000  1
  Cl  Cl3  1  0.72405401  0.27594599  0.75000000  1
  O  O0  1  0.65642726  0.52413652  0.36147282  1
  O  O1  1  0.34357274  0.47586348  0.86147282  1
  O  O2  1  0.25032872  0.60281290  0.13041854  1
  O  O3  1  0.47586348  0.34357274  0.13852718  1
  O  O4  1  0.39718710  0.74967128  0.36958146  1
  O  O5  1  0.60281290  0.25032872  0.86958146  1
  O  O6  1  0.74967128  0.39718710  0.63041854  1
  O  O7  1  0.52413652  0.65642726  0.63852718  1
  F  F0  1  0.91848502  0.26214097  0.99457496  1
  F  F1  1  0.41454419  0.96579766  0.64858456  1
  F  F2  1  0.01304296  0.01304296  0.50000000  1
  F  F3  1  0.08151498  0.73785903  0.49457496  1
  F  F4  1  0.37497202  0.26421508  0.63763641  1
  F  F5  1  0.96579766  0.41454419  0.35141544  1
  F  F6  1  0.58545581  0.03420234  0.14858456  1
  F  F7  1  0.62502798  0.73578492  0.13763641  1
  F  F8  1  0.91686953  0.63299823  0.11768788  1
  F  F9  1  0.03420234  0.58545581  0.85141544  1
  F  F10  1  0.98695704  0.98695704  0.00000000  1
  F  F11  1  0.07420772  0.92579228  0.75000000  1
  F  F12  1  0.26421508  0.37497202  0.36236359  1
  F  F13  1  0.73578492  0.62502798  0.86236359  1
  F  F14  1  0.73785903  0.08151498  0.50542504  1
  F  F15  1  0.63299823  0.91686953  0.88231212  1
  F  F16  1  0.08313047  0.36700177  0.61768788  1
  F  F17  1  0.36700177  0.08313047  0.38231212  1
  F  F18  1  0.26214097  0.91848502  0.00542504  1
  F  F19  1  0.92579228  0.07420772  0.25000000  1
loop_
_geom_bond_atom_site_label_1
_geom_bond_atom_site_label_2
_geom_bond_distance
_geom_bond_site_symmetry_2
Cl0 O1 1.405946 1_555
Cl0 O7 1.405946 1_555
Cl1 O2 1.407024 1_555
Cl1 O4 1.407024 1_555
Cl2 O0 1.405946 1_555
Cl2 O3 1.405946 1_555
Cl3 O6 1.407024 1_555
Cl3 O5 1.407024 1_555
F0 Pd2 1.905266 1_546
F1 Pd3 1.893766 1_565
F2 Pd1 1.968484 1_555
F2 Pd3 1.968484 1_555
F3 Pd3 1.905266 1_565
F4 Pd3 1.903089 1_555
F5 Pd1 1.893766 1_655
F6 Pd2 1.893766 1_545
F7 Pd2 1.903089 1_555
F8 Pd0 1.905852 1_554
F9 Pd0 1.893766 1_455
F10 Pd0 1.968484 1_554
F10 Pd2 1.968484 1_555
F11 Pd0 1.957623 1_455
F11 Pd3 1.957623 1_565
F12 Pd1 1.903089 1_555
F13 Pd0 1.903089 1_555
F14 Pd1 1.905266 1_655
F15 Pd2 1.905852 1_556
F16 Pd1 1.905852 1_555
F17 Pd3 1.905852 1_555
F18 Pd0 1.905266 1_454
F19 Pd1 1.957623 1_655
F19 Pd2 1.957623 1_545
