# generated using pymatgen
data_TiZnPdPt5
_symmetry_space_group_name_H-M   'P 1'
_cell_length_a   3.91720621
_cell_length_b   3.91720621
_cell_length_c   7.75387771
_cell_angle_alpha   90.00000000
_cell_angle_beta   90.00000000
_cell_angle_gamma   90.00000000
_symmetry_Int_Tables_number   1
_chemical_formula_structural   TiZnPdPt5
_chemical_formula_sum   'Ti1 Zn1 Pd1 Pt5'
_cell_volume   118.97941141
_cell_formula_units_Z   1
loop_
 _symmetry_equiv_pos_site_id
 _symmetry_equiv_pos_as_xyz
  1  'x, y, z'
loop_
 _atom_site_type_symbol
 _atom_site_label
 _atom_site_symmetry_multiplicity
 _atom_site_fract_x
 _atom_site_fract_y
 _atom_site_fract_z
 _atom_site_occupancy
  Ti  Ti0  1  0.00000000  0.00000000  0.50000000  1
  Zn  Zn0  1  0.00000000  0.00000000  0.00000000  1
  Pd  Pd0  1  0.50000000  0.50000000  0.00000000  1
  Pt  Pt0  1  0.50000000  0.50000000  0.50000000  1
  Pt  Pt1  1  0.50000000  0.00000000  0.25294105  1
  Pt  Pt2  1  0.50000000  0.00000000  0.74705895  1
  Pt  Pt3  1  0.00000000  0.50000000  0.25294105  1
  Pt  Pt4  1  0.00000000  0.50000000  0.74705895  1
loop_
_geom_bond_atom_site_label_1
_geom_bond_atom_site_label_2
_geom_bond_distance
_geom_bond_site_symmetry_2
Pd0 Zn0 2.769883 1_565
Pd0 Zn0 2.769883 1_665
Pd0 Zn0 2.769883 1_555
Pd0 Zn0 2.769883 1_655
Pd0 Pt1 2.771772 1_555
Pd0 Pt3 2.771772 1_555
Pd0 Pt3 2.771772 1_655
Pd0 Pt1 2.771772 1_565
Pd0 Pt2 2.771772 1_564
Pd0 Pt4 2.771772 1_554
Pd0 Pt4 2.771772 1_654
Pd0 Pt2 2.771772 1_554
Pt0 Pt4 2.739689 1_655
Pt0 Pt2 2.739689 1_555
Pt0 Pt2 2.739689 1_565
Pt0 Pt4 2.739689 1_555
Pt0 Pt1 2.739689 1_565
Pt0 Pt3 2.739689 1_555
Pt0 Pt1 2.739689 1_555
Pt0 Pt3 2.739689 1_655
Pt0 Ti0 2.769883 1_555
Pt0 Ti0 2.769883 1_565
Pt0 Ti0 2.769883 1_655
Pt0 Ti0 2.769883 1_665
Pt1 Ti0 2.739689 1_555
Pt1 Ti0 2.739689 1_655
Pt1 Pt3 2.769883 1_555
Pt1 Pt3 2.769883 1_545
Pt1 Pt3 2.769883 1_645
Pt1 Pt3 2.769883 1_655
Pt1 Zn0 2.771772 1_555
Pt1 Zn0 2.771772 1_655
Pt2 Ti0 2.739689 1_555
Pt2 Ti0 2.739689 1_655
Pt2 Pt4 2.769883 1_655
Pt2 Pt4 2.769883 1_545
Pt2 Pt4 2.769883 1_645
Pt2 Pt4 2.769883 1_555
Pt2 Zn0 2.771772 1_656
Pt2 Zn0 2.771772 1_556
Pt3 Ti0 2.739689 1_555
Pt3 Ti0 2.739689 1_565
Pt3 Zn0 2.771772 1_565
Pt3 Zn0 2.771772 1_555
Pt4 Ti0 2.739689 1_555
Pt4 Ti0 2.739689 1_565
Pt4 Zn0 2.771772 1_556
Pt4 Zn0 2.771772 1_566
