# generated using pymatgen
data_HfBi8Os3O22
_symmetry_space_group_name_H-M   'P 1'
_cell_length_a   6.57421600
_cell_length_b   7.58104103
_cell_length_c   9.91730289
_cell_angle_alpha   101.38992730
_cell_angle_beta   90.94836189
_cell_angle_gamma   89.96917831
_symmetry_Int_Tables_number   1
_chemical_formula_structural   HfBi8Os3O22
_chemical_formula_sum   'Hf1 Bi8 Os3 O22'
_cell_volume   484.46993826
_cell_formula_units_Z   1
loop_
 _symmetry_equiv_pos_site_id
 _symmetry_equiv_pos_as_xyz
  1  'x, y, z'
loop_
 _atom_site_type_symbol
 _atom_site_label
 _atom_site_symmetry_multiplicity
 _atom_site_fract_x
 _atom_site_fract_y
 _atom_site_fract_z
 _atom_site_occupancy
  Hf  Hf0  1  0.92572398  0.70564821  0.80952943  1
  Bi  Bi0  1  0.75446752  0.37369397  0.47882882  1
  Bi  Bi1  1  0.24515657  0.62870782  0.52012157  1
  Bi  Bi2  1  0.75233509  0.87287599  0.47914896  1
  Bi  Bi3  1  0.24865675  0.12722446  0.52376180  1
  Bi  Bi4  1  0.46034434  0.95136838  0.81999512  1
  Bi  Bi5  1  0.53463393  0.04209733  0.17817396  1
  Bi  Bi6  1  0.39615430  0.46211224  0.83158123  1
  Bi  Bi7  1  0.59891386  0.53958243  0.16882602  1
  Os  Os0  1  0.07000239  0.29523159  0.19018409  1
  Os  Os1  1  0.92367764  0.20504234  0.81352057  1
  Os  Os2  1  0.07586979  0.79453718  0.19359664  1
  O  O0  1  0.23071095  0.72670782  0.75429277  1
  O  O1  1  0.77552359  0.27587213  0.23176507  1
  O  O2  1  0.62435263  0.67087837  0.83458583  1
  O  O3  1  0.36621481  0.32250916  0.17091008  1
  O  O4  1  0.63623905  0.25837977  0.85038200  1
  O  O5  1  0.36936978  0.75662103  0.16502306  1
  O  O6  1  0.88263933  0.17194288  0.61364856  1
  O  O7  1  0.11288598  0.83870273  0.39625595  1
  O  O8  1  0.21388973  0.14671223  0.76268872  1
  O  O9  1  0.78218113  0.83875071  0.23288783  1
  O  O10  1  0.90661547  0.63632543  0.58908251  1
  O  O11  1  0.09304617  0.35494684  0.39394331  1
  O  O12  1  0.02644990  0.54638845  0.18775145  1
  O  O13  1  0.99168633  0.44621939  0.81228478  1
  O  O14  1  0.01829202  0.77526523  0.00532832  1
  O  O15  1  0.00177159  0.22939739  0.99848660  1
  O  O16  1  0.58615267  0.60448535  0.38655038  1
  O  O17  1  0.41727555  0.39438512  0.61273912  1
  O  O18  1  0.14629755  0.04935659  0.20721274  1
  O  O19  1  0.83303300  0.95826036  0.79107689  1
  O  O20  1  0.53850929  0.08969608  0.39368437  1
  O  O21  1  0.46092532  0.91007399  0.60215245  1
loop_
_geom_bond_atom_site_label_1
_geom_bond_atom_site_label_2
_geom_bond_distance
_geom_bond_site_symmetry_2
Hf0 O14 1.993971 1_656
Hf0 O13 2.019105 1_555
Hf0 O2 2.024705 1_555
Hf0 O19 2.050795 1_555
Hf0 O0 2.101677 1_655
Hf0 O10 2.146809 1_555
Bi0 O10 2.294845 1_555
Bi0 O6 2.367714 1_555
Bi0 O11 2.387028 1_655
Bi0 O16 2.391649 1_555
Bi0 O1 2.421996 1_555
Bi0 O20 2.570930 1_555
Bi0 O17 2.591746 1_555
Bi1 O0 2.297832 1_555
Bi1 O10 2.336492 1_455
Bi1 O7 2.352683 1_555
Bi1 O11 2.410021 1_555
Bi1 O17 2.426437 1_555
Bi1 O21 2.550208 1_555
Bi1 O16 2.610714 1_555
Bi2 O21 2.275687 1_555
Bi2 O16 2.325516 1_555
Bi2 O9 2.415834 1_555
Bi2 O20 2.429948 1_565
Bi2 O10 2.483337 1_555
Bi2 O7 2.518166 1_655
Bi2 O6 2.534409 1_565
Bi3 O20 2.304788 1_555
Bi3 O17 2.318128 1_555
Bi3 O8 2.359719 1_555
Bi3 O21 2.393527 1_545
Bi3 O7 2.460136 1_545
Bi3 O11 2.552807 1_555
Bi3 O6 2.578861 1_455
Bi4 O21 2.120976 1_555
Bi4 O0 2.266336 1_555
Bi4 O8 2.332518 1_565
Bi4 O2 2.412263 1_555
Bi4 O19 2.473350 1_555
Bi4 O4 2.561139 1_565
Bi5 O20 2.095812 1_555
Bi5 O1 2.352546 1_555
Bi5 O9 2.370206 1_545
Bi5 O5 2.401583 1_545
Bi5 O3 2.409467 1_555
Bi5 O18 2.573274 1_555
Bi6 O17 2.136113 1_555
Bi6 O2 2.176887 1_555
Bi6 O4 2.238947 1_555
Bi6 O0 2.524187 1_555
Bi6 O8 2.636382 1_555
Bi6 O13 2.663856 1_455
Bi7 O16 2.120796 1_555
Bi7 O5 2.237397 1_555
Bi7 O3 2.250796 1_555
Bi7 O1 2.490155 1_555
Bi7 O9 2.531325 1_555
O1 Os0 1.997547 1_655
O3 Os0 1.974815 1_555
O4 Os1 1.957474 1_555
O5 Os2 1.967575 1_555
O6 Os1 1.962334 1_555
O7 Os2 1.982137 1_555
O8 Os1 2.008160 1_455
O9 Os2 1.991153 1_655
O11 Os0 1.984921 1_555
O12 Os2 1.898655 1_555
O12 Os0 1.930084 1_555
O13 Os1 1.884917 1_555
O14 Os2 1.876077 1_555
O15 Os1 1.870220 1_455
O15 Os0 1.913588 1_556
O18 Os2 1.964767 1_545
O18 Os0 1.968522 1_555
O19 Os1 1.933166 1_565
