# generated using pymatgen
data_Ti3AlH
_symmetry_space_group_name_H-M   'P 1'
_cell_length_a   4.06609241
_cell_length_b   4.06609241
_cell_length_c   4.06609241
_cell_angle_alpha   90.00000000
_cell_angle_beta   90.00000000
_cell_angle_gamma   90.00000000
_symmetry_Int_Tables_number   1
_chemical_formula_structural   Ti3AlH
_chemical_formula_sum   'Ti3 Al1 H1'
_cell_volume   67.22514280
_cell_formula_units_Z   1
loop_
 _symmetry_equiv_pos_site_id
 _symmetry_equiv_pos_as_xyz
  1  'x, y, z'
loop_
 _atom_site_type_symbol
 _atom_site_label
 _atom_site_symmetry_multiplicity
 _atom_site_fract_x
 _atom_site_fract_y
 _atom_site_fract_z
 _atom_site_occupancy
  Ti  Ti0  1  0.49999900  0.49999900  0.00000000  1
  Ti  Ti1  1  0.49999900  0.00000000  0.49999900  1
  Ti  Ti2  1  0.00000000  0.49999900  0.49999900  1
  Al  Al0  1  0.00000000  0.00000000  0.00000000  1
  H  H0  1  0.49999900  0.49999900  0.49999900  1
loop_
_geom_bond_atom_site_label_1
_geom_bond_atom_site_label_2
_geom_bond_distance
_geom_bond_site_symmetry_2
Al0 Ti0 2.875156 1_555
Al0 Ti1 2.875156 1_555
Al0 Ti2 2.875156 1_555
Al0 Ti1 2.875162 1_554
Al0 Ti0 2.875162 1_455
Al0 Ti2 2.875162 1_545
Al0 Ti2 2.875162 1_554
Al0 Ti0 2.875162 1_545
Al0 Ti1 2.875162 1_455
Al0 Ti1 2.875167 1_454
Al0 Ti2 2.875167 1_544
Al0 Ti0 2.875167 1_445
H0 Ti2 2.033042 1_555
H0 Ti1 2.033042 1_555
H0 Ti0 2.033042 1_555
H0 Ti1 2.033050 1_565
H0 Ti0 2.033050 1_556
H0 Ti2 2.033050 1_655
