# generated using pymatgen
data_Ca8Ta3VN12
_symmetry_space_group_name_H-M   'P 1'
_cell_length_a   6.05239164
_cell_length_b   6.07307303
_cell_length_c   11.95001833
_cell_angle_alpha   88.67742888
_cell_angle_beta   88.03235415
_cell_angle_gamma   122.45651208
_symmetry_Int_Tables_number   1
_chemical_formula_structural   Ca8Ta3VN12
_chemical_formula_sum   'Ca8 Ta3 V1 N12'
_cell_volume   369.96467751
_cell_formula_units_Z   1
loop_
 _symmetry_equiv_pos_site_id
 _symmetry_equiv_pos_as_xyz
  1  'x, y, z'
loop_
 _atom_site_type_symbol
 _atom_site_label
 _atom_site_symmetry_multiplicity
 _atom_site_fract_x
 _atom_site_fract_y
 _atom_site_fract_z
 _atom_site_occupancy
  Ca  Ca0  1  0.60791134  0.84154547  0.08167944  1
  Ca  Ca1  1  0.47130791  0.05233000  0.35687199  1
  Ca  Ca2  1  0.06221844  0.47142624  0.86707441  1
  Ca  Ca3  1  0.53130079  0.93773019  0.63514674  1
  Ca  Ca4  1  0.40173210  0.16606326  0.92614489  1
  Ca  Ca5  1  0.83297077  0.59690383  0.56998060  1
  Ca  Ca6  1  0.16746792  0.39397989  0.41923206  1
  Ca  Ca7  1  0.94520083  0.54954536  0.14341608  1
  Ta  Ta0  1  0.76793103  0.77411226  0.83815630  1
  Ta  Ta1  1  0.22423791  0.22837920  0.65998570  1
  Ta  Ta2  1  0.23262555  0.23137258  0.16699646  1
  V  V0  1  0.76756804  0.76375136  0.33942757  1
  N  N0  1  0.10207322  0.89588975  0.74879989  1
  N  N1  1  0.89225764  0.08215891  0.25616247  1
  N  N2  1  0.48048052  0.51573935  0.74927783  1
  N  N3  1  0.51312157  0.49913791  0.25511348  1
  N  N4  1  0.32766343  0.99201218  0.12177879  1
  N  N5  1  0.00122189  0.68375294  0.37222310  1
  N  N6  1  0.69173216  0.02728683  0.88149254  1
  N  N7  1  0.97560589  0.30713008  0.61135591  1
  N  N8  1  0.79501870  0.60710001  0.96760476  1
  N  N9  1  0.60673309  0.78226436  0.45988163  1
  N  N10  1  0.20368967  0.40218527  0.03969017  1
  N  N11  1  0.39793058  0.19820377  0.53250819  1
loop_
_geom_bond_atom_site_label_1
_geom_bond_atom_site_label_2
_geom_bond_distance
_geom_bond_site_symmetry_2
Ca0 N4 2.360006 1_555
Ca0 N6 2.535837 1_564
Ca0 N10 2.548798 1_555
Ca0 N8 2.623384 1_554
Ca0 N1 2.670668 1_565
Ca0 N3 2.718027 1_555
Ca1 N11 2.414820 1_555
Ca1 N5 2.499725 1_545
Ca1 N9 2.509202 1_545
Ca1 N1 2.693740 1_555
Ca1 N3 2.827595 1_555
Ca1 N4 2.942106 1_545
Ca2 N10 2.373321 1_556
Ca2 N6 2.406960 1_455
Ca2 N8 2.465751 1_455
Ca2 N2 2.732942 1_555
Ca2 N0 2.800336 1_555
Ca3 N7 2.405818 1_565
Ca3 N9 2.444328 1_555
Ca3 N11 2.450968 1_565
Ca3 N2 2.736123 1_555
Ca3 N0 2.773313 1_555
Ca4 N6 2.370638 1_555
Ca4 N4 2.467604 1_546
Ca4 N8 2.526800 1_555
Ca4 N10 2.675275 1_556
Ca4 N0 2.775483 1_545
Ca4 N2 2.800233 1_555
Ca5 N7 2.388815 1_555
Ca5 N5 2.469946 1_655
Ca5 N11 2.506865 1_555
Ca5 N9 2.565723 1_555
Ca5 N0 2.785668 1_655
Ca5 N2 2.809593 1_555
Ca6 N7 2.449766 1_455
Ca6 N9 2.505473 1_555
Ca6 N5 2.513688 1_555
Ca6 N3 2.618638 1_555
Ca6 N11 2.650848 1_555
Ca6 N1 2.676876 1_455
Ca7 N8 2.408446 1_554
Ca7 N4 2.428262 1_655
Ca7 N10 2.491123 1_655
Ca7 N3 2.756150 1_555
Ca7 N5 2.850493 1_655
Ca7 N1 2.965209 1_555
N0 Ta0 1.996757 1_455
N0 Ta1 1.998785 1_565
N1 V0 1.895294 1_545
N1 Ta2 2.000337 1_655
N2 Ta1 1.970792 1_555
N2 Ta0 1.972495 1_555
N3 V0 1.869311 1_555
N3 Ta2 1.968248 1_555
N4 Ta2 1.910058 1_565
N5 V0 1.776566 1_455
N6 Ta0 1.904304 1_545
N7 Ta1 1.910655 1_655
N8 Ta0 1.889983 1_555
N9 V0 1.749540 1_555
N10 Ta2 1.887224 1_555
N11 Ta1 1.889189 1_555
