# generated using pymatgen
data_NaSi2Pd2Pt
_symmetry_space_group_name_H-M   'P 1'
_cell_length_a   6.69449392
_cell_length_b   6.70798750
_cell_length_c   6.69449345
_cell_angle_alpha   129.46592108
_cell_angle_beta   116.80368687
_cell_angle_gamma   84.97107296
_symmetry_Int_Tables_number   1
_chemical_formula_structural   NaSi2Pd2Pt
_chemical_formula_sum   'Na2 Si4 Pd4 Pt2'
_cell_volume   198.32528266
_cell_formula_units_Z   2
loop_
 _symmetry_equiv_pos_site_id
 _symmetry_equiv_pos_as_xyz
  1  'x, y, z'
loop_
 _atom_site_type_symbol
 _atom_site_label
 _atom_site_symmetry_multiplicity
 _atom_site_fract_x
 _atom_site_fract_y
 _atom_site_fract_z
 _atom_site_occupancy
  Na  Na0  1  0.99978619  0.95894239  0.95915720  1
  Na  Na1  1  0.50041278  0.02001988  0.51960810  1
  Si  Si0  1  0.31441793  0.38424456  0.06982663  1
  Si  Si1  1  0.83807751  0.27719818  0.43912067  1
  Si  Si2  1  0.68544193  0.75493376  0.06949084  1
  Si  Si3  1  0.16264140  0.60104516  0.43840375  1
  Pd  Pd0  1  0.04899898  0.99757105  0.54589379  1
  Pd  Pd1  1  0.72431686  0.50006550  0.22451414  1
  Pd  Pd2  1  0.27555136  0.50006550  0.77574763  1
  Pd  Pd3  1  0.45167826  0.99757105  0.94857207  1
  Pt  Pt0  1  0.95249999  0.49667299  0.95049418  1
  Pt  Pt1  1  0.54617781  0.49667299  0.54417300  1
loop_
_geom_bond_atom_site_label_1
_geom_bond_atom_site_label_2
_geom_bond_distance
_geom_bond_site_symmetry_2
Na0 Pd0 3.094837 1_655
Na0 Pd3 3.094841 1_655
Na0 Pt0 3.105811 1_555
Na0 Pt1 3.105819 1_555
Na0 Si2 3.168343 1_556
Na0 Si1 3.172602 1_566
Na0 Si0 3.175487 1_666
Na0 Si3 3.183643 1_666
Na0 Pd2 3.260995 1_655
Na0 Pd1 3.260999 1_555
Na0 Si1 3.381613 1_555
Na0 Na1 3.524650 1_565
Na0 Na1 3.524650 1_666
Na1 Pd3 3.127150 1_545
Na1 Pd0 3.127157 1_545
Na1 Pt0 3.130819 1_555
Na1 Pt1 3.130821 1_555
Na1 Si2 3.153537 1_545
Na1 Si0 3.167057 1_545
Na1 Pd1 3.167706 1_556
Na1 Pd2 3.167709 1_555
Na1 Pd1 3.362931 1_545
Na1 Pd2 3.362939 1_544
Na1 Si1 3.367514 1_555
Na1 Si3 3.372041 1_545
Na1 Pd0 3.590940 1_645
Na1 Pd3 3.590946 1_544
Na1 Pt1 3.597938 1_545
Na1 Pt0 3.597942 1_444
Si0 Si3 2.583781 1_555
Si1 Si2 2.601445 1_545
Pd0 Si0 2.410257 1_566
Pd0 Si2 2.416463 1_455
Pd0 Si3 2.424331 1_555
Pd0 Si1 2.520501 1_465
Pd1 Si0 2.448284 1_555
Pd1 Si2 2.449821 1_555
Pd1 Si1 2.534378 1_555
Pd1 Si3 2.538842 1_655
Pd2 Si0 2.448290 1_556
Pd2 Si2 2.449816 1_556
Pd2 Si1 2.534378 1_455
Pd2 Si3 2.538835 1_555
Pd3 Si0 2.410260 1_566
Pd3 Si2 2.416454 1_556
Pd3 Si3 2.424332 1_555
Pd3 Si1 2.520497 1_566
Pt0 Si0 2.403568 1_656
Pt0 Si2 2.412302 1_556
Pt0 Si1 2.428879 1_555
Pt0 Si3 2.501893 1_656
Pt1 Si0 2.403568 1_555
Pt1 Si2 2.412296 1_556
Pt1 Si1 2.428885 1_555
Pt1 Si3 2.501887 1_555
