# generated using pymatgen
data_Y6TcB14Ru
_symmetry_space_group_name_H-M   'P 1'
_cell_length_a   8.07545456
_cell_length_b   8.07545442
_cell_length_c   9.33886830
_cell_angle_alpha   90.00000000
_cell_angle_beta   90.00000000
_cell_angle_gamma   154.72768865
_symmetry_Int_Tables_number   1
_chemical_formula_structural   Y6TcB14Ru
_chemical_formula_sum   'Y6 Tc1 B14 Ru1'
_cell_volume   260.00136233
_cell_formula_units_Z   1
loop_
 _symmetry_equiv_pos_site_id
 _symmetry_equiv_pos_as_xyz
  1  'x, y, z'
loop_
 _atom_site_type_symbol
 _atom_site_label
 _atom_site_symmetry_multiplicity
 _atom_site_fract_x
 _atom_site_fract_y
 _atom_site_fract_z
 _atom_site_occupancy
  Y  Y0  1  0.89484112  0.10515888  0.44104938  1
  Y  Y1  1  0.10489538  0.89510462  0.56124822  1
  Y  Y2  1  0.89484112  0.10515888  0.05895062  1
  Y  Y3  1  0.10489538  0.89510462  0.93875178  1
  Y  Y4  1  0.24263892  0.75736108  0.25000000  1
  Y  Y5  1  0.75802837  0.24197163  0.75000000  1
  Tc  Tc0  1  0.94668423  0.05331577  0.75000000  1
  B  B0  1  0.72687789  0.27312211  0.46440607  1
  B  B1  1  0.27250715  0.72749285  0.53409121  1
  B  B2  1  0.72687789  0.27312211  0.03559393  1
  B  B3  1  0.27250715  0.72749285  0.96590879  1
  B  B4  1  0.63086364  0.36913636  0.15163002  1
  B  B5  1  0.36863495  0.63136505  0.84884905  1
  B  B6  1  0.63086364  0.36913636  0.34836998  1
  B  B7  1  0.36863495  0.63136505  0.65115095  1
  B  B8  1  0.52083501  0.47916499  0.09706681  1
  B  B9  1  0.47930583  0.52069417  0.90351089  1
  B  B10  1  0.52083501  0.47916499  0.40293319  1
  B  B11  1  0.47930583  0.52069417  0.59648911  1
  B  B12  1  0.45806124  0.54193876  0.25000000  1
  B  B13  1  0.54272515  0.45727485  0.75000000  1
  Ru  Ru0  1  0.05434413  0.94565587  0.25000000  1
loop_
_geom_bond_atom_site_label_1
_geom_bond_atom_site_label_2
_geom_bond_distance
_geom_bond_site_symmetry_2
B0 B6 1.861165 1_555
B0 B1 2.015298 1_545
B0 B1 2.015298 1_655
B0 Y0 2.656025 1_555
B0 Y4 2.681742 1_545
B0 Y4 2.681742 1_655
B0 Y5 2.711929 1_555
B0 Y1 2.763040 1_655
B0 Y1 2.763040 1_545
B1 B7 1.868198 1_555
B1 Y1 2.653661 1_555
B1 Y5 2.690448 1_565
B1 Y5 2.690448 1_455
B1 Y4 2.694524 1_555
B1 Y0 2.755500 1_455
B1 Y0 2.755501 1_565
B2 B4 1.861165 1_555
B2 B3 2.015298 1_544
B2 B3 2.015298 1_654
B2 Y2 2.656025 1_555
B2 Y4 2.681742 1_545
B2 Y4 2.681742 1_655
B2 Y5 2.711929 1_554
B2 Y3 2.763040 1_654
B2 Y3 2.763040 1_544
B3 B5 1.868198 1_555
B3 Y3 2.653661 1_555
B3 Y5 2.690448 1_565
B3 Y5 2.690448 1_455
B3 Y4 2.694524 1_556
B3 Y2 2.755500 1_456
B3 Y2 2.755501 1_566
B4 B8 1.807339 1_555
B4 B6 1.837328 1_555
B4 Ru0 2.327875 1_655
B4 Ru0 2.327875 1_545
B4 Y4 2.658532 1_545
B4 Y4 2.658532 1_655
B4 Y3 2.690836 1_654
B4 Y3 2.690836 1_544
B5 B9 1.817311 1_555
B5 B7 1.846277 1_555
B5 Tc0 2.342215 1_455
B5 Tc0 2.342215 1_565
B5 Y5 2.647920 1_565
B5 Y5 2.647920 1_455
B5 Y2 2.672312 1_456
B5 Y2 2.672312 1_566
B6 Ru0 2.327875 1_655
B6 Ru0 2.327875 1_545
B6 Y4 2.658532 1_545
B6 Y4 2.658532 1_655
B6 Y1 2.690836 1_655
B6 Y1 2.690836 1_545
B7 Tc0 2.342215 1_455
B7 Tc0 2.342215 1_565
B7 Y5 2.647920 1_565
B7 Y5 2.647920 1_455
B7 Y0 2.672312 1_455
B7 Y0 2.672312 1_565
B8 B9 1.922433 1_554
B8 Ru0 2.332274 1_545
B8 Ru0 2.332275 1_655
B8 Y3 2.657390 1_544
B8 Y3 2.657390 1_654
B8 Y2 2.681460 1_565
B8 Y2 2.681460 1_455
B9 Tc0 2.332459 1_565
B9 Tc0 2.332459 1_455
B9 Y2 2.645745 1_566
B9 Y2 2.645745 1_456
B9 Y3 2.673306 1_545
B9 Y3 2.673306 1_655
B10 B12 1.737391 1_555
B10 B6 1.807339 1_555
B10 B11 1.922433 1_555
B10 Ru0 2.332274 1_545
B10 Ru0 2.332275 1_655
B10 Y1 2.657390 1_545
B10 Y1 2.657390 1_655
B10 Y0 2.681460 1_565
B10 Y0 2.681460 1_455
B11 B13 1.747627 1_555
B11 B7 1.817311 1_555
B11 Tc0 2.332459 1_565
B11 Tc0 2.332459 1_455
B11 Y0 2.645745 1_565
B11 Y0 2.645745 1_455
B11 Y1 2.673306 1_545
B11 Y1 2.673306 1_655
B12 B8 1.737391 1_555
B12 Ru0 2.328793 1_545
B12 Ru0 2.328793 1_655
B12 Y0 2.701257 1_565
B12 Y2 2.701257 1_565
B12 Y0 2.701258 1_455
B12 Y2 2.701258 1_455
B13 B9 1.747627 1_555
B13 Tc0 2.326310 1_565
B13 Tc0 2.326310 1_455
B13 Y1 2.681042 1_545
B13 Y3 2.681042 1_545
B13 Y1 2.681043 1_655
B13 Y3 2.681043 1_655
Ru0 Y4 2.967472 1_555
Ru0 Y3 3.013906 1_554
Ru0 Y1 3.013906 1_555
Ru0 Y0 3.082550 1_465
Ru0 Y2 3.082550 1_465
