# generated using pymatgen
data_Zn8Pd3RhO16
_symmetry_space_group_name_H-M   'P 1'
_cell_length_a   6.02406591
_cell_length_b   6.02871504
_cell_length_c   8.45580207
_cell_angle_alpha   89.94971361
_cell_angle_beta   90.00000000
_cell_angle_gamma   90.00000000
_symmetry_Int_Tables_number   1
_chemical_formula_structural   Zn8Pd3RhO16
_chemical_formula_sum   'Zn8 Pd3 Rh1 O16'
_cell_volume   307.09243158
_cell_formula_units_Z   1
loop_
 _symmetry_equiv_pos_site_id
 _symmetry_equiv_pos_as_xyz
  1  'x, y, z'
loop_
 _atom_site_type_symbol
 _atom_site_label
 _atom_site_symmetry_multiplicity
 _atom_site_fract_x
 _atom_site_fract_y
 _atom_site_fract_z
 _atom_site_occupancy
  Zn  Zn0  1  0.99936831  0.23722803  0.00097397  1
  Zn  Zn1  1  0.99936831  0.76277197  0.49902603  1
  Zn  Zn2  1  0.25151825  0.24936635  0.62387810  1
  Zn  Zn3  1  0.25151825  0.75063365  0.87612190  1
  Zn  Zn4  1  0.23628332  0.00000000  0.25000000  1
  Zn  Zn5  1  0.76076680  0.00000000  0.75000000  1
  Zn  Zn6  1  0.74895994  0.25378693  0.37603997  1
  Zn  Zn7  1  0.74895994  0.74621307  0.12396003  1
  Pd  Pd0  1  0.24879207  0.50000000  0.25000000  1
  Pd  Pd1  1  0.50035780  0.75127337  0.50018866  1
  Pd  Pd2  1  0.50035780  0.24872663  0.99981134  1
  Rh  Rh0  1  0.75438920  0.50000000  0.75000000  1
  O  O0  1  0.51843589  0.73651993  0.73715016  1
  O  O1  1  0.51843589  0.26348007  0.76284984  1
  O  O2  1  0.73832057  0.98372088  0.50848233  1
  O  O3  1  0.73832057  0.01627912  0.99151767  1
  O  O4  1  0.74541212  0.52192496  0.51087437  1
  O  O5  1  0.74541212  0.47807504  0.98912563  1
  O  O6  1  0.97978465  0.73522113  0.74747683  1
  O  O7  1  0.97978465  0.26477887  0.75252317  1
  O  O8  1  0.01923387  0.73905071  0.25347850  1
  O  O9  1  0.01923387  0.26094929  0.24652150  1
  O  O10  1  0.25734804  0.51880895  0.48702592  1
  O  O11  1  0.25734804  0.48119105  0.01297408  1
  O  O12  1  0.26012265  0.97974130  0.49651501  1
  O  O13  1  0.26012265  0.02025870  0.00348499  1
  O  O14  1  0.48102120  0.74453135  0.26258910  1
  O  O15  1  0.48102120  0.25546865  0.23741090  1
loop_
_geom_bond_atom_site_label_1
_geom_bond_atom_site_label_2
_geom_bond_distance
_geom_bond_site_symmetry_2
O0 Zn3 1.993428 1_555
O0 Pd1 2.008549 1_555
O0 Rh0 2.016217 1_555
O0 Zn5 2.160171 1_565
O1 Zn2 1.993428 1_555
O1 Pd2 2.008549 1_555
O1 Rh0 2.016217 1_555
O1 Zn5 2.160171 1_555
O2 Zn6 1.976354 1_565
O2 Pd1 2.005949 1_555
O2 Zn5 2.049135 1_565
O2 Zn1 2.062493 1_555
O3 Zn7 1.976354 1_546
O3 Pd2 2.005949 1_555
O3 Zn5 2.049135 1_555
O3 Zn0 2.062493 1_556
O4 Zn6 1.979080 1_555
O4 Pd1 2.024592 1_555
O4 Rh0 2.026920 1_555
O4 Zn1 2.111520 1_555
O5 Zn7 1.979080 1_556
O5 Pd2 2.024592 1_555
O5 Rh0 2.026920 1_555
O5 Zn0 2.111520 1_556
O6 Rh0 1.963407 1_555
O6 Zn3 1.967661 1_655
O6 Zn5 2.071080 1_565
O6 Zn1 2.110561 1_555
O7 Rh0 1.963407 1_555
O7 Zn2 1.967661 1_655
O7 Zn5 2.071080 1_555
O7 Zn0 2.110561 1_556
O8 Zn7 1.962670 1_455
O8 Pd0 1.997560 1_555
O8 Zn4 2.045805 1_565
O8 Zn1 2.084783 1_455
O9 Zn6 1.962670 1_455
O9 Pd0 1.997560 1_555
O9 Zn4 2.045805 1_555
O9 Zn0 2.084783 1_455
O10 Zn2 1.993912 1_555
O10 Pd0 2.008210 1_555
O10 Pd1 2.029724 1_555
O10 Zn1 2.142183 1_455
O11 Zn3 1.993912 1_554
O11 Pd0 2.008210 1_555
O11 Pd2 2.029724 1_554
O11 Zn0 2.142183 1_455
O12 Zn2 1.951364 1_565
O12 Pd1 1.998099 1_555
O12 Zn1 2.044212 1_455
O12 Zn4 2.092883 1_565
O13 Zn3 1.951364 1_544
O13 Pd2 1.998099 1_554
O13 Zn0 2.044212 1_455
O13 Zn4 2.092883 1_555
O14 Zn7 1.994853 1_555
O14 Pd1 2.012915 1_555
O14 Pd0 2.035191 1_555
O14 Zn4 2.134645 1_565
O15 Zn6 1.994853 1_555
O15 Pd2 2.012915 1_554
O15 Pd0 2.035191 1_555
O15 Zn4 2.134645 1_555
