# generated using pymatgen
data_KP12Ir3Os
_symmetry_space_group_name_H-M   'P 1'
_cell_length_a   7.01775974
_cell_length_b   7.01776059
_cell_length_c   7.01775975
_cell_angle_alpha   109.49464688
_cell_angle_beta   109.49464868
_cell_angle_gamma   109.49464414
_symmetry_Int_Tables_number   1
_chemical_formula_structural   KP12Ir3Os
_chemical_formula_sum   'K1 P12 Ir3 Os1'
_cell_volume   265.82535551
_cell_formula_units_Z   1
loop_
 _symmetry_equiv_pos_site_id
 _symmetry_equiv_pos_as_xyz
  1  'x, y, z'
loop_
 _atom_site_type_symbol
 _atom_site_label
 _atom_site_symmetry_multiplicity
 _atom_site_fract_x
 _atom_site_fract_y
 _atom_site_fract_z
 _atom_site_occupancy
  K  K0  1  0.00000000  0.00000000  0.00000000  1
  P  P0  1  0.14030950  0.78303751  0.64240173  1
  P  P1  1  0.14334259  0.49749398  0.35828971  1
  P  P2  1  0.85665741  0.50250602  0.64171029  1
  P  P3  1  0.35828971  0.14334259  0.49749398  1
  P  P4  1  0.78303751  0.64240173  0.14030950  1
  P  P5  1  0.85969050  0.21696249  0.35759827  1
  P  P6  1  0.64240173  0.14030950  0.78303751  1
  P  P7  1  0.50250602  0.64171029  0.85665741  1
  P  P8  1  0.64171029  0.85665741  0.50250602  1
  P  P9  1  0.49749398  0.35828971  0.14334259  1
  P  P10  1  0.35759827  0.85969050  0.21696249  1
  P  P11  1  0.21696249  0.35759827  0.85969050  1
  Ir  Ir0  1  0.50000000  0.00000000  0.00000000  1
  Ir  Ir1  1  0.00000000  0.50000000  0.00000000  1
  Ir  Ir2  1  0.00000000  0.00000000  0.50000000  1
  Os  Os0  1  0.50000000  0.50000000  0.50000000  1
loop_
_geom_bond_atom_site_label_1
_geom_bond_atom_site_label_2
_geom_bond_distance
_geom_bond_site_symmetry_2
K0 P3 3.103528 1_555
K0 P8 3.103528 1_444
K0 P9 3.103528 1_555
K0 P7 3.103528 1_444
K0 P1 3.103528 1_555
K0 P2 3.103528 1_444
K0 P10 3.112113 1_545
K0 P6 3.112113 1_454
K0 P5 3.112113 1_455
K0 P0 3.112113 1_544
K0 P4 3.112113 1_445
K0 P11 3.112113 1_554
P0 P2 2.282513 1_455
P0 P1 2.319796 1_555
P1 P5 2.282513 1_455
P2 P5 2.319796 1_555
P3 P6 2.319796 1_555
P4 P7 2.282513 1_554
P4 P9 2.319796 1_555
P6 P8 2.282513 1_545
P10 P3 2.282513 1_565
P10 P8 2.319796 1_555
P11 P9 2.282513 1_556
P11 P7 2.319796 1_555
Ir0 P5 2.375776 1_555
Ir0 P0 2.375776 1_544
Ir0 P10 2.376123 1_545
Ir0 P6 2.376123 1_554
Ir0 P9 2.384857 1_555
Ir0 P7 2.384857 1_544
Ir1 P10 2.375776 1_555
Ir1 P6 2.375776 1_454
Ir1 P11 2.376123 1_554
Ir1 P4 2.376123 1_455
Ir1 P1 2.384857 1_555
Ir1 P2 2.384857 1_454
Ir2 P11 2.375776 1_555
Ir2 P4 2.375776 1_445
Ir2 P0 2.376123 1_545
Ir2 P5 2.376123 1_455
Ir2 P3 2.384857 1_555
Ir2 P8 2.384857 1_445
Os0 P1 2.356185 1_555
Os0 P2 2.356185 1_555
Os0 P9 2.356185 1_555
Os0 P7 2.356185 1_555
Os0 P8 2.356185 1_555
Os0 P3 2.356185 1_555
