# generated using pymatgen
data_Cs4Si2Au7
_symmetry_space_group_name_H-M   'P 1'
_cell_length_a   10.20134771
_cell_length_b   10.20134793
_cell_length_c   10.20134781
_cell_angle_alpha   37.85583936
_cell_angle_beta   37.85583587
_cell_angle_gamma   37.85583801
_symmetry_Int_Tables_number   1
_chemical_formula_structural   Cs4Si2Au7
_chemical_formula_sum   'Cs4 Si2 Au7'
_cell_volume   358.79121344
_cell_formula_units_Z   1
loop_
 _symmetry_equiv_pos_site_id
 _symmetry_equiv_pos_as_xyz
  1  'x, y, z'
loop_
 _atom_site_type_symbol
 _atom_site_label
 _atom_site_symmetry_multiplicity
 _atom_site_fract_x
 _atom_site_fract_y
 _atom_site_fract_z
 _atom_site_occupancy
  Cs  Cs0  1  0.68292620  0.68292620  0.68292620  1
  Cs  Cs1  1  0.31707380  0.31707380  0.31707380  1
  Cs  Cs2  1  0.81055556  0.81055556  0.81055556  1
  Cs  Cs3  1  0.18944444  0.18944444  0.18944444  1
  Si  Si0  1  0.54521782  0.54521782  0.54521782  1
  Si  Si1  1  0.45478218  0.45478218  0.45478218  1
  Au  Au0  1  0.00000000  0.00000000  0.00000000  1
  Au  Au1  1  0.22697138  0.22697138  0.79236775  1
  Au  Au2  1  0.79236775  0.22697138  0.22697138  1
  Au  Au3  1  0.22697138  0.79236775  0.22697138  1
  Au  Au4  1  0.77302862  0.20763225  0.77302862  1
  Au  Au5  1  0.77302862  0.77302862  0.20763225  1
  Au  Au6  1  0.20763225  0.77302862  0.77302862  1
loop_
_geom_bond_atom_site_label_1
_geom_bond_atom_site_label_2
_geom_bond_distance
_geom_bond_site_symmetry_2
Au0 Au2 2.861043 1_455
Au0 Au6 2.861043 1_544
Au0 Au1 2.861043 1_554
Au0 Au5 2.861043 1_445
Au0 Au3 2.861043 1_545
Au0 Au4 2.861043 1_454
Au0 Cs1 3.848770 1_455
Au0 Cs0 3.848770 1_544
Au0 Cs0 3.848771 1_445
Au0 Cs1 3.848771 1_554
Au0 Cs0 3.848771 1_454
Au0 Cs1 3.848771 1_545
Au1 Si1 2.431827 1_555
Au1 Cs3 3.469197 1_556
Au1 Cs1 3.529572 1_555
Au1 Cs2 3.753183 1_545
Au1 Cs2 3.753183 1_455
Au1 Cs0 3.808343 1_545
Au1 Cs0 3.808343 1_455
Au2 Si1 2.431827 1_555
Au2 Cs3 3.469197 1_655
Au2 Cs1 3.529572 1_555
Au2 Cs2 3.753183 1_545
Au2 Cs2 3.753183 1_554
Au2 Cs0 3.808343 1_545
Au2 Cs0 3.808343 1_554
Au3 Si1 2.431827 1_555
Au3 Cs3 3.469197 1_565
Au3 Cs1 3.529572 1_555
Au3 Cs2 3.753183 1_554
Au3 Cs2 3.753183 1_455
Au3 Cs0 3.808343 1_455
Au3 Cs0 3.808343 1_554
Au4 Si0 2.431827 1_555
Au4 Cs2 3.469197 1_545
Au4 Cs0 3.529572 1_555
Au4 Cs3 3.753183 1_556
Au4 Cs3 3.753183 1_655
Au4 Cs1 3.808343 1_655
Au4 Cs1 3.808343 1_556
Au5 Si0 2.431827 1_555
Au5 Cs2 3.469197 1_554
Au5 Cs0 3.529572 1_555
Au5 Cs3 3.753183 1_565
Au5 Cs3 3.753183 1_655
Au5 Cs1 3.808343 1_565
Au5 Cs1 3.808343 1_655
Au6 Si0 2.431827 1_555
Au6 Cs2 3.469197 1_455
Au6 Cs0 3.529572 1_555
Au6 Cs3 3.753183 1_565
Au6 Cs3 3.753183 1_556
Au6 Cs1 3.808343 1_565
Au6 Cs1 3.808343 1_556
