# generated using pymatgen
data_K4InGePt4
_symmetry_space_group_name_H-M   'P 1'
_cell_length_a   5.98115178
_cell_length_b   5.98114726
_cell_length_c   7.75678997
_cell_angle_alpha   83.08115233
_cell_angle_beta   83.08124445
_cell_angle_gamma   69.67172992
_symmetry_Int_Tables_number   1
_chemical_formula_structural   K4InGePt4
_chemical_formula_sum   'K4 In1 Ge1 Pt4'
_cell_volume   257.39200582
_cell_formula_units_Z   1
loop_
 _symmetry_equiv_pos_site_id
 _symmetry_equiv_pos_as_xyz
  1  'x, y, z'
loop_
 _atom_site_type_symbol
 _atom_site_label
 _atom_site_symmetry_multiplicity
 _atom_site_fract_x
 _atom_site_fract_y
 _atom_site_fract_z
 _atom_site_occupancy
  K  K0  1  0.51385678  0.76127089  0.37741031  1
  K  K1  1  0.23873011  0.48614322  0.12259069  1
  K  K2  1  0.47788210  0.23639177  0.62524015  1
  K  K3  1  0.76360723  0.52211890  0.87475885  1
  In  In0  1  0.05198870  0.94801130  0.75000000  1
  Ge  Ge0  1  0.96229652  0.03770448  0.25000000  1
  Pt  Pt0  1  0.28653573  0.99804332  0.01010129  1
  Pt  Pt1  1  0.00195568  0.71346527  0.48989871  1
  Pt  Pt2  1  0.71499255  0.01184441  0.02898694  1
  Pt  Pt3  1  0.98815559  0.28500745  0.47101306  1
loop_
_geom_bond_atom_site_label_1
_geom_bond_atom_site_label_2
_geom_bond_distance
_geom_bond_site_symmetry_2
K0 Pt1 3.056072 1_655
K0 Pt1 3.181506 1_555
K0 Pt2 3.239017 1_565
K0 Pt0 3.255015 1_555
K0 Pt3 3.327562 1_555
K0 K2 3.537395 1_555
K0 K2 3.550928 1_565
K0 Pt3 3.658012 1_465
K1 Pt0 3.056080 1_545
K1 Pt0 3.181498 1_555
K1 Pt3 3.239015 1_455
K1 Pt1 3.255016 1_555
K1 Pt2 3.327562 1_555
K1 K3 3.537398 1_554
K1 K3 3.550946 1_454
K1 Pt2 3.658015 1_465
K2 Pt3 3.203770 1_455
K2 Pt3 3.237853 1_555
K2 Pt0 3.396941 1_546
K2 Pt1 3.420825 1_555
K2 Pt2 3.515167 1_556
K2 K3 3.634582 1_555
K2 Pt1 3.727816 1_645
K3 Pt2 3.203770 1_566
K3 Pt2 3.237855 1_556
K3 Pt1 3.396935 1_655
K3 Pt0 3.420817 1_556
K3 Pt3 3.515167 1_555
K3 Pt0 3.727829 1_646
In0 Pt1 2.692046 1_555
In0 Pt0 2.692047 1_556
In0 Pt3 2.739537 1_465
In0 Pt2 2.739541 1_466
In0 K2 3.462082 1_465
In0 K3 3.462085 1_465
In0 K3 3.529475 1_455
In0 K2 3.529478 1_565
Ge0 Pt3 2.446344 1_555
Ge0 Pt2 2.446350 1_555
Ge0 Pt1 2.489428 1_645
Ge0 Pt0 2.489431 1_645
Ge0 K2 3.832513 1_555
Ge0 K3 3.832514 1_554
Pt0 Pt2 2.614548 1_565
Pt1 Pt3 2.614550 1_455
