# generated using pymatgen
data_Zr4VTe8
_symmetry_space_group_name_H-M   'P 1'
_cell_length_a   7.84632162
_cell_length_b   7.84632122
_cell_length_c   9.63896584
_cell_angle_alpha   53.29899967
_cell_angle_beta   53.29900248
_cell_angle_gamma   61.54558096
_symmetry_Int_Tables_number   1
_chemical_formula_structural   Zr4VTe8
_chemical_formula_sum   'Zr4 V1 Te8'
_cell_volume   374.84167833
_cell_formula_units_Z   1
loop_
 _symmetry_equiv_pos_site_id
 _symmetry_equiv_pos_as_xyz
  1  'x, y, z'
loop_
 _atom_site_type_symbol
 _atom_site_label
 _atom_site_symmetry_multiplicity
 _atom_site_fract_x
 _atom_site_fract_y
 _atom_site_fract_z
 _atom_site_occupancy
  Zr  Zr0  1  0.73764232  0.26235768  0.50000000  1
  Zr  Zr1  1  0.26235768  0.73764232  0.50000000  1
  Zr  Zr2  1  0.74571932  0.74571932  0.00884799  1
  Zr  Zr3  1  0.25428068  0.25428068  0.99115201  1
  V  V0  1  0.00000000  0.00000000  0.00000000  1
  Te  Te0  1  0.44946191  0.44946191  0.33177794  1
  Te  Te1  1  0.55053809  0.55053809  0.66822206  1
  Te  Te2  1  0.54757251  0.05052324  0.16857908  1
  Te  Te3  1  0.45242749  0.94947676  0.83142092  1
  Te  Te4  1  0.94947676  0.45242749  0.83142092  1
  Te  Te5  1  0.05052324  0.54757251  0.16857908  1
  Te  Te6  1  0.95568423  0.95568423  0.33320756  1
  Te  Te7  1  0.04431577  0.04431577  0.66679244  1
loop_
_geom_bond_atom_site_label_1
_geom_bond_atom_site_label_2
_geom_bond_distance
_geom_bond_site_symmetry_2
Te0 Zr1 2.875955 1_555
Te0 Zr0 2.875955 1_555
Te0 Zr2 2.889257 1_555
Te1 Zr0 2.875955 1_555
Te1 Zr1 2.875955 1_555
Te1 Zr3 2.889257 1_555
Te2 V0 2.816642 1_655
Te2 Zr2 2.916205 1_545
Te2 Zr1 2.925123 1_545
Te2 Zr3 2.950725 1_554
Te3 V0 2.816642 1_566
Te3 Zr3 2.916205 1_565
Te3 Zr0 2.925123 1_565
Te3 Zr2 2.950725 1_556
Te4 V0 2.816642 1_656
Te4 Zr3 2.916205 1_655
Te4 Zr1 2.925123 1_655
Te4 Zr2 2.950725 1_556
Te5 V0 2.816642 1_565
Te5 Zr2 2.916205 1_455
Te5 Zr0 2.925123 1_455
Te5 Zr3 2.950725 1_554
Te6 V0 2.828921 1_665
Te6 Zr3 2.934847 1_664
Te6 Zr0 2.952158 1_565
Te6 Zr1 2.952158 1_655
Te7 V0 2.828921 1_556
Te7 Zr2 2.934847 1_446
Te7 Zr1 2.952158 1_545
Te7 Zr0 2.952158 1_455
