# generated using pymatgen
data_SmTaO4
_symmetry_space_group_name_H-M   'P 1'
_cell_length_a   5.10577169
_cell_length_b   5.45083222
_cell_length_c   6.61626195
_cell_angle_alpha   111.99019313
_cell_angle_beta   110.23277885
_cell_angle_gamma   95.56028762
_symmetry_Int_Tables_number   1
_chemical_formula_structural   SmTaO4
_chemical_formula_sum   'Sm2 Ta2 O8'
_cell_volume   154.68497945
_cell_formula_units_Z   2
loop_
 _symmetry_equiv_pos_site_id
 _symmetry_equiv_pos_as_xyz
  1  'x, y, z'
loop_
 _atom_site_type_symbol
 _atom_site_label
 _atom_site_symmetry_multiplicity
 _atom_site_fract_x
 _atom_site_fract_y
 _atom_site_fract_z
 _atom_site_occupancy
  Sm  Sm0  1  0.38176521  0.63175590  0.26355042  1
  Sm  Sm1  1  0.61823414  0.36824258  0.73644932  1
  Ta  Ta0  1  0.84980738  0.09972308  0.19971370  1
  Ta  Ta1  1  0.15018697  0.90027648  0.80028569  1
  O  O0  1  0.99959760  0.79344098  0.06289351  1
  O  O1  1  0.56334012  0.26941417  0.06294124  1
  O  O2  1  0.00040430  0.20655714  0.93710606  1
  O  O3  1  0.43666505  0.73058850  0.93706012  1
  O  O4  1  0.20037347  0.36079877  0.41553094  1
  O  O5  1  0.71518099  0.05461788  0.41555874  1
  O  O6  1  0.79962698  0.63920229  0.58447050  1
  O  O7  1  0.28481679  0.94538124  0.58444176  1
loop_
_geom_bond_atom_site_label_1
_geom_bond_atom_site_label_2
_geom_bond_distance
_geom_bond_site_symmetry_2
O0 Ta0 1.945781 1_565
O0 Ta1 2.354594 1_654
O0 Sm0 2.400912 1_655
O0 Sm1 2.509135 1_554
O1 Ta0 1.946090 1_555
O1 Ta1 2.354079 1_544
O1 Sm0 2.400991 1_555
O1 Sm1 2.509183 1_554
O2 Ta1 1.945751 1_545
O2 Ta0 2.354611 1_456
O2 Sm1 2.400921 1_455
O2 Sm0 2.509131 1_556
O3 Ta1 1.946118 1_555
O3 Ta0 2.354038 1_566
O3 Sm1 2.400990 1_555
O3 Sm0 2.509196 1_556
O4 Ta0 1.866729 1_455
O4 Sm0 2.354037 1_555
O4 Sm1 2.418102 1_555
O5 Ta0 1.865883 1_555
O5 Sm0 2.354064 1_545
O5 Sm1 2.418215 1_555
O6 Ta1 1.866705 1_655
O6 Sm1 2.354041 1_555
O6 Sm0 2.418106 1_555
O7 Ta1 1.865886 1_555
O7 Sm1 2.354067 1_565
O7 Sm0 2.418225 1_555
