# generated using pymatgen
data_BeV6Si5W4
_symmetry_space_group_name_H-M   'P 1'
_cell_length_a   7.08921616
_cell_length_b   7.08924624
_cell_length_c   7.08837723
_cell_angle_alpha   96.32448719
_cell_angle_beta   96.30871434
_cell_angle_gamma   141.27352588
_symmetry_Int_Tables_number   1
_chemical_formula_structural   BeV6Si5W4
_chemical_formula_sum   'Be1 V6 Si5 W4'
_cell_volume   210.23784970
_cell_formula_units_Z   1
loop_
 _symmetry_equiv_pos_site_id
 _symmetry_equiv_pos_as_xyz
  1  'x, y, z'
loop_
 _atom_site_type_symbol
 _atom_site_label
 _atom_site_symmetry_multiplicity
 _atom_site_fract_x
 _atom_site_fract_y
 _atom_site_fract_z
 _atom_site_occupancy
  Be  Be0  1  0.74939404  0.74926321  0.00002181  1
  V  V0  1  0.72670313  0.57882822  0.29668262  1
  V  V1  1  0.28275103  0.43057295  0.70323132  1
  V  V2  1  0.74887661  0.24895982  0.49998737  1
  V  V3  1  0.24895736  0.74894480  0.50005408  1
  V  V4  1  0.57921643  0.28236429  0.85221870  1
  V  V5  1  0.43040622  0.72724243  0.14760842  1
  Si  Si0  1  0.25807779  0.25811524  0.00001311  1
  Si  Si1  1  0.33548438  0.16761082  0.50603995  1
  Si  Si2  1  0.82953056  0.33564023  0.16794797  1
  Si  Si3  1  0.16747707  0.66151628  0.83206050  1
  Si  Si4  1  0.66161869  0.82944978  0.49392101  1
  W  W0  1  0.77199565  0.06835212  0.85012632  1
  W  W1  1  0.92245907  0.77243385  0.70370022  1
  W  W2  1  0.06836604  0.21834505  0.29637031  1
  W  W3  1  0.21868994  0.92235992  0.15001427  1
loop_
_geom_bond_atom_site_label_1
_geom_bond_atom_site_label_2
_geom_bond_distance
_geom_bond_site_symmetry_2
Be0 Si0 2.309239 1_555
Be0 Si0 2.391714 1_665
Be0 V1 2.497137 1_554
Be0 V4 2.497317 1_554
Be0 V5 2.497537 1_555
Be0 V0 2.497713 1_555
Be0 W2 2.503734 1_665
Be0 W3 2.503992 1_655
Be0 W1 2.504400 1_554
Be0 W0 2.504623 1_564
V0 W3 2.697811 1_655
V0 W1 2.721983 1_555
V0 W3 2.769395 1_545
V1 W0 2.694003 1_565
V1 W2 2.720994 1_555
V1 W0 2.774721 1_455
V2 V3 2.350474 1_655
V2 V3 2.350479 1_545
V2 W1 2.945295 1_555
V2 W2 2.945602 1_655
V2 W3 2.957884 1_545
V2 W0 2.960452 1_555
V3 W0 2.945049 1_565
V3 W3 2.946265 1_555
V3 W1 2.958319 1_455
V3 W2 2.959086 1_555
V4 W1 2.697758 1_555
V4 W0 2.721122 1_555
V4 W1 2.770736 1_445
V5 W2 2.694911 1_665
V5 W3 2.721411 1_555
V5 W2 2.774947 1_555
Si0 V0 2.500861 1_555
Si0 V5 2.502162 1_555
Si0 V4 2.502652 1_554
Si0 V1 2.502948 1_554
Si0 W1 2.540467 1_444
Si0 W3 2.541637 1_545
Si0 W0 2.541751 1_454
Si0 W2 2.541836 1_555
Si1 V4 2.470601 1_555
Si1 V1 2.489355 1_555
Si1 V3 2.512591 1_545
Si1 V2 2.513772 1_555
Si1 W3 2.530845 1_545
Si1 W2 2.546780 1_555
Si1 W1 2.686945 1_555
Si1 W1 2.711529 1_445
Si1 V0 2.715003 1_445
Si1 V0 2.763192 1_555
Si2 V0 2.469170 1_555
Si2 V4 2.489083 1_554
Si2 V2 2.512021 1_555
Si2 V3 2.513272 1_655
Si2 W2 2.532128 1_655
Si2 W0 2.546338 1_554
Si2 W3 2.686468 1_655
Si2 W3 2.711728 1_545
Si2 V5 2.713193 1_545
Si2 V5 2.764942 1_655
Si3 V1 2.470703 1_555
Si3 V5 2.488652 1_556
Si3 V2 2.511375 1_455
Si3 V3 2.513514 1_555
Si3 W1 2.530742 1_455
Si3 W3 2.546615 1_556
Si3 W0 2.685770 1_565
Si3 W0 2.713310 1_455
Si3 V4 2.713388 1_455
Si3 V4 2.763496 1_565
Si4 V5 2.471532 1_555
Si4 V0 2.489552 1_555
Si4 V3 2.512806 1_555
Si4 V2 2.514910 1_565
Si4 W0 2.532151 1_565
Si4 W1 2.547198 1_555
Si4 W2 2.685241 1_665
Si4 W2 2.712522 1_555
Si4 V1 2.713141 1_555
Si4 V1 2.764751 1_665
