# generated using pymatgen
data_Sr3Ga3Si2IrO14
_symmetry_space_group_name_H-M   'P 1'
_cell_length_a   8.23842819
_cell_length_b   8.24895629
_cell_length_c   5.12993905
_cell_angle_alpha   90.00004913
_cell_angle_beta   90.19541762
_cell_angle_gamma   120.04233882
_symmetry_Int_Tables_number   1
_chemical_formula_structural   Sr3Ga3Si2IrO14
_chemical_formula_sum   'Sr3 Ga3 Si2 Ir1 O14'
_cell_volume   301.78481651
_cell_formula_units_Z   1
loop_
 _symmetry_equiv_pos_site_id
 _symmetry_equiv_pos_as_xyz
  1  'x, y, z'
loop_
 _atom_site_type_symbol
 _atom_site_label
 _atom_site_symmetry_multiplicity
 _atom_site_fract_x
 _atom_site_fract_y
 _atom_site_fract_z
 _atom_site_occupancy
  Sr  Sr0  1  0.43092764  0.00087764  0.99715794  1
  Sr  Sr1  1  1.00000000  0.43056118  0.00000000  1
  Sr  Sr2  1  0.56907236  0.56995000  0.00284206  1
  Ga  Ga0  1  0.75235335  0.00148194  0.49950660  1
  Ga  Ga1  1  1.00000000  0.75413767  0.50000000  1
  Ga  Ga2  1  0.24764565  0.24912759  0.50049340  1
  Si  Si0  1  0.66673188  0.33415843  0.46620953  1
  Si  Si1  1  0.33326712  0.66742555  0.53379147  1
  Ir  Ir0  1  0.00000100  0.99776059  1.00000000  1
  O  O0  1  0.33320439  0.66693571  0.22176599  1
  O  O1  1  0.12898182  0.90734485  0.22522092  1
  O  O2  1  0.09199066  0.21978260  0.22689661  1
  O  O3  1  0.78231229  0.86932039  0.23697703  1
  O  O4  1  0.47110996  0.30372854  0.33365221  1
  O  O5  1  0.69689924  0.16934528  0.33337374  1
  O  O6  1  0.83191531  0.52900967  0.33446575  1
  O  O7  1  0.16808369  0.69709337  0.66553425  1
  O  O8  1  0.30309876  0.47244504  0.66662626  1
  O  O9  1  0.52889004  0.83261858  0.66634879  1
  O  O10  1  0.21768871  0.08700810  0.76302497  1
  O  O11  1  0.90801134  0.12779294  0.77309839  1
  O  O12  1  0.87102018  0.77836303  0.77478208  1
  O  O13  1  0.66679561  0.33373032  0.77823401  1
loop_
_geom_bond_atom_site_label_1
_geom_bond_atom_site_label_2
_geom_bond_distance
_geom_bond_site_symmetry_2
Ga0 O3 1.826169 1_545
Ga0 O11 1.830250 1_555
Ga0 O5 1.866332 1_555
Ga0 O9 1.872205 1_545
Ga1 O1 1.838172 1_655
Ga1 O12 1.838173 1_555
Ga1 O6 1.872021 1_555
Ga1 O7 1.872021 1_655
Ga2 O10 1.826176 1_555
Ga2 O2 1.830258 1_555
Ga2 O8 1.866333 1_555
Ga2 O4 1.872208 1_555
Ir0 O12 1.950745 1_455
Ir0 O1 1.950752 1_556
Ir0 O2 1.971700 1_566
Ir0 O11 1.971717 1_465
Ir0 O10 1.982175 1_565
Ir0 O3 1.982186 1_456
O0 Si1 1.600674 1_555
O0 Sr2 2.692352 1_555
O0 Sr1 2.692761 1_455
O0 Sr0 2.711043 1_564
O1 Sr0 2.500029 1_564
O2 Sr1 2.503122 1_455
O3 Sr2 2.503794 1_555
O4 Si0 1.646268 1_555
O4 Sr2 2.566836 1_555
O4 Sr0 2.915200 1_554
O5 Si0 1.647404 1_555
O5 Sr0 2.575385 1_554
O5 Sr1 2.905987 1_555
O6 Si0 1.645692 1_555
O6 Sr1 2.581313 1_555
O6 Sr2 2.899013 1_555
O7 Si1 1.645691 1_555
O7 Sr1 2.581307 1_456
O7 Sr0 2.899017 1_565
O8 Si1 1.647400 1_555
O8 Sr2 2.575396 1_556
O8 Sr1 2.905977 1_456
O9 Si1 1.646275 1_555
O9 Sr0 2.566832 1_565
O9 Sr2 2.915200 1_556
O10 Sr0 2.503785 1_555
O11 Sr1 2.503127 1_556
O12 Sr2 2.500032 1_556
O13 Si0 1.600669 1_555
O13 Sr0 2.692346 1_555
O13 Sr1 2.692761 1_556
O13 Sr2 2.711050 1_556
