# generated using pymatgen
data_GePd(SeO3)4
_symmetry_space_group_name_H-M   'P 1'
_cell_length_a   6.84658125
_cell_length_b   5.10825003
_cell_length_c   8.87772763
_cell_angle_alpha   55.91493541
_cell_angle_beta   89.29501098
_cell_angle_gamma   89.39339506
_symmetry_Int_Tables_number   1
_chemical_formula_structural   GePd(SeO3)4
_chemical_formula_sum   'Ge1 Pd1 Se4 O12'
_cell_volume   257.12786650
_cell_formula_units_Z   1
loop_
 _symmetry_equiv_pos_site_id
 _symmetry_equiv_pos_as_xyz
  1  'x, y, z'
loop_
 _atom_site_type_symbol
 _atom_site_label
 _atom_site_symmetry_multiplicity
 _atom_site_fract_x
 _atom_site_fract_y
 _atom_site_fract_z
 _atom_site_occupancy
  Ge  Ge0  1  0.50000000  0.00000000  0.50000000  1
  Pd  Pd0  1  0.00000000  0.00000000  0.00000000  1
  Se  Se0  1  0.82385387  0.32052917  0.19735095  1
  Se  Se1  1  0.67644341  0.31371290  0.69872765  1
  Se  Se2  1  0.17614613  0.67947083  0.80264905  1
  Se  Se3  1  0.32355659  0.68628710  0.30127235  1
  O  O0  1  0.83338552  0.32036567  0.00142507  1
  O  O1  1  0.66051961  0.28592915  0.51325645  1
  O  O2  1  0.16661448  0.67963433  0.99857493  1
  O  O3  1  0.33948039  0.71407085  0.48674355  1
  O  O4  1  0.58632272  0.19259694  0.25732692  1
  O  O5  1  0.91871793  0.19948361  0.74307410  1
  O  O6  1  0.41367728  0.80740306  0.74267308  1
  O  O7  1  0.08128207  0.80051639  0.25692590  1
  O  O8  1  0.76786501  0.71679991  0.08805371  1
  O  O9  1  0.71486650  0.71393419  0.58184602  1
  O  O10  1  0.23213499  0.28320009  0.91194629  1
  O  O11  1  0.28513350  0.28606581  0.41815398  1
loop_
_geom_bond_atom_site_label_1
_geom_bond_atom_site_label_2
_geom_bond_distance
_geom_bond_site_symmetry_2
Ge0 O6 1.887826 1_545
Ge0 O4 1.887826 1_555
Ge0 O1 1.893372 1_555
Ge0 O3 1.893372 1_545
Ge0 O9 1.902148 1_545
Ge0 O11 1.902148 1_555
O0 Se0 1.740266 1_555
O0 Pd0 1.990710 1_655
O1 Se1 1.734899 1_555
O2 Se2 1.740266 1_555
O2 Pd0 1.990710 1_566
O3 Se3 1.734899 1_555
O4 Se0 1.722364 1_555
O5 Se1 1.727724 1_555
O5 Pd0 1.991164 1_656
O6 Se2 1.722364 1_555
O7 Se3 1.727724 1_555
O7 Pd0 1.991164 1_565
O8 Se0 1.725470 1_555
O8 Pd0 1.995105 1_665
O9 Se1 1.718291 1_555
O10 Se2 1.725470 1_555
O10 Pd0 1.995105 1_556
O11 Se3 1.718291 1_555
