# generated using pymatgen
data_Ba2Ir2Cl
_symmetry_space_group_name_H-M   'P 1'
_cell_length_a   4.37967193
_cell_length_b   4.37967255
_cell_length_c   17.93765589
_cell_angle_alpha   90.00000000
_cell_angle_beta   90.00000000
_cell_angle_gamma   120.00000267
_symmetry_Int_Tables_number   1
_chemical_formula_structural   Ba2Ir2Cl
_chemical_formula_sum   'Ba4 Ir4 Cl2'
_cell_volume   297.97479509
_cell_formula_units_Z   2
loop_
 _symmetry_equiv_pos_site_id
 _symmetry_equiv_pos_as_xyz
  1  'x, y, z'
loop_
 _atom_site_type_symbol
 _atom_site_label
 _atom_site_symmetry_multiplicity
 _atom_site_fract_x
 _atom_site_fract_y
 _atom_site_fract_z
 _atom_site_occupancy
  Ba  Ba0  1  0.00000000  0.00000000  0.12232027  1
  Ba  Ba1  1  0.00000000  0.00000000  0.37767973  1
  Ba  Ba2  1  0.00000000  0.00000000  0.62232027  1
  Ba  Ba3  1  0.00000000  0.00000000  0.87767973  1
  Ir  Ir0  1  0.33333400  0.66666700  0.00052541  1
  Ir  Ir1  1  0.33333400  0.66666700  0.49947459  1
  Ir  Ir2  1  0.66666600  0.33333400  0.50052541  1
  Ir  Ir3  1  0.66666600  0.33333400  0.99947459  1
  Cl  Cl0  1  0.66666600  0.33333400  0.25000000  1
  Cl  Cl1  1  0.33333400  0.66666700  0.75000000  1
loop_
_geom_bond_atom_site_label_1
_geom_bond_atom_site_label_2
_geom_bond_distance
_geom_bond_site_symmetry_2
Ba0 Ir0 3.341677 1_445
Ba0 Ir0 3.341680 1_545
Ba0 Ir0 3.341680 1_555
Ba0 Ir3 3.354031 1_554
Ba0 Ir3 3.354031 1_444
Ba0 Ir3 3.354037 1_454
Ba0 Cl0 3.411626 1_555
Ba0 Cl0 3.411626 1_445
Ba0 Cl0 3.411631 1_455
Ba1 Ir1 3.341677 1_445
Ba1 Ir1 3.341680 1_545
Ba1 Ir1 3.341680 1_555
Ba1 Ir2 3.354031 1_555
Ba1 Ir2 3.354031 1_445
Ba1 Ir2 3.354037 1_455
Ba1 Cl0 3.411626 1_555
Ba1 Cl0 3.411626 1_445
Ba1 Cl0 3.411631 1_455
Ba2 Ir2 3.341677 1_555
Ba2 Ir2 3.341677 1_445
Ba2 Ir2 3.341683 1_455
Ba2 Ir1 3.354031 1_445
Ba2 Ir1 3.354034 1_545
Ba2 Ir1 3.354034 1_555
Ba2 Cl1 3.411626 1_445
Ba2 Cl1 3.411629 1_545
Ba2 Cl1 3.411629 1_555
Ba3 Ir3 3.341677 1_555
Ba3 Ir3 3.341677 1_445
Ba3 Ir3 3.341683 1_455
Ba3 Ir0 3.354031 1_446
Ba3 Ir0 3.354034 1_546
Ba3 Ir0 3.354034 1_556
Ba3 Cl1 3.411626 1_445
Ba3 Cl1 3.411629 1_545
Ba3 Cl1 3.411629 1_555
Ir0 Ir3 2.528669 1_554
Ir0 Ir3 2.528677 1_564
Ir0 Ir3 2.528680 1_454
Ir1 Ir2 2.528669 1_555
Ir1 Ir2 2.528677 1_565
Ir1 Ir2 2.528680 1_455
