# generated using pymatgen
data_YNi(Sn2Ru)3
_symmetry_space_group_name_H-M   'P 1'
_cell_length_a   6.78857605
_cell_length_b   6.78857602
_cell_length_c   6.95325595
_cell_angle_alpha   120.21856645
_cell_angle_beta   120.21857029
_cell_angle_gamma   89.07730253
_symmetry_Int_Tables_number   1
_chemical_formula_structural   YNi(Sn2Ru)3
_chemical_formula_sum   'Y1 Ni1 Sn6 Ru3'
_cell_volume   226.87391778
_cell_formula_units_Z   1
loop_
 _symmetry_equiv_pos_site_id
 _symmetry_equiv_pos_as_xyz
  1  'x, y, z'
loop_
 _atom_site_type_symbol
 _atom_site_label
 _atom_site_symmetry_multiplicity
 _atom_site_fract_x
 _atom_site_fract_y
 _atom_site_fract_z
 _atom_site_occupancy
  Y  Y0  1  0.01532255  0.01532255  0.03157260  1
  Ni  Ni0  1  0.75515872  0.75515872  0.35282906  1
  Sn  Sn0  1  0.50611894  0.99366217  0.50347948  1
  Sn  Sn1  1  0.99366217  0.50611894  0.50347948  1
  Sn  Sn2  1  0.46642439  0.46642439  0.34222634  1
  Sn  Sn3  1  0.11356569  0.11356569  0.64655790  1
  Sn  Sn4  1  0.53331660  0.87345691  0.99506032  1
  Sn  Sn5  1  0.87345691  0.53331660  0.99506032  1
  Ru  Ru0  1  0.39043083  0.39043083  0.62812720  1
  Ru  Ru1  1  0.25655876  0.59598241  0.00080314  1
  Ru  Ru2  1  0.59598241  0.25655876  0.00080314  1
loop_
_geom_bond_atom_site_label_1
_geom_bond_atom_site_label_2
_geom_bond_distance
_geom_bond_site_symmetry_2
Ni0 Sn3 2.489489 1_665
Ni0 Sn1 2.562076 1_555
Ni0 Sn0 2.562076 1_555
Ni0 Sn4 2.702273 1_554
Ni0 Sn5 2.702273 1_554
Ni0 Sn2 2.742663 1_555
Ni0 Ru1 2.780548 1_555
Ni0 Ru2 2.780548 1_555
Ni0 Y0 3.439751 1_666
Sn0 Sn2 3.134922 1_555
Sn0 Y0 3.369650 1_565
Sn0 Y0 3.485708 1_666
Sn1 Sn2 3.134922 1_555
Sn1 Y0 3.369650 1_655
Sn1 Y0 3.485708 1_666
Sn2 Y0 3.225950 1_555
Sn2 Y0 3.903163 1_666
Sn3 Y0 3.415446 1_556
Sn3 Y0 3.667143 1_555
Sn4 Y0 3.273832 1_666
Sn4 Y0 3.728374 1_566
Sn5 Y0 3.273832 1_666
Sn5 Y0 3.728374 1_656
Ru0 Sn2 2.560745 1_555
Ru0 Sn1 2.624888 1_455
Ru0 Sn0 2.624888 1_545
Ru0 Sn5 2.718933 1_555
Ru0 Sn4 2.718933 1_555
Ru0 Sn3 2.771336 1_555
Ru0 Ru2 2.859696 1_556
Ru0 Ru1 2.859696 1_556
Ru0 Y0 3.019731 1_555
Ru1 Sn5 2.619216 1_454
Ru1 Sn0 2.657737 1_555
Ru1 Sn2 2.663837 1_555
Ru1 Sn1 2.685989 1_454
Ru1 Sn3 2.703746 1_554
Ru1 Sn4 2.710134 1_554
Ru1 Y0 3.228153 1_565
Ru1 Ru2 3.232291 1_555
Ru2 Sn4 2.619216 1_544
Ru2 Sn1 2.657736 1_555
Ru2 Sn2 2.663838 1_555
Ru2 Sn0 2.685989 1_544
Ru2 Sn3 2.703745 1_554
Ru2 Sn5 2.710134 1_554
Ru2 Y0 3.228153 1_655
