# generated using pymatgen
data_Mg2CuReN4
_symmetry_space_group_name_H-M   'P 1'
_cell_length_a   6.62228140
_cell_length_b   5.66370791
_cell_length_c   5.32554429
_cell_angle_alpha   90.00000000
_cell_angle_beta   90.00000000
_cell_angle_gamma   90.00000000
_symmetry_Int_Tables_number   1
_chemical_formula_structural   Mg2CuReN4
_chemical_formula_sum   'Mg4 Cu2 Re2 N8'
_cell_volume   199.74341923
_cell_formula_units_Z   2
loop_
 _symmetry_equiv_pos_site_id
 _symmetry_equiv_pos_as_xyz
  1  'x, y, z'
loop_
 _atom_site_type_symbol
 _atom_site_label
 _atom_site_symmetry_multiplicity
 _atom_site_fract_x
 _atom_site_fract_y
 _atom_site_fract_z
 _atom_site_occupancy
  Mg  Mg0  1  0.25147310  0.82718021  0.72676809  1
  Mg  Mg1  1  0.24852690  0.17281979  0.22676809  1
  Mg  Mg2  1  0.74852690  0.82718021  0.72676809  1
  Mg  Mg3  1  0.75147310  0.17281979  0.22676809  1
  Cu  Cu0  1  0.00000000  0.32687361  0.73251999  1
  Cu  Cu1  1  0.50000000  0.67312639  0.23251999  1
  Re  Re0  1  0.00000000  0.66896761  0.22942519  1
  Re  Re1  1  0.50000000  0.33103239  0.72942519  1
  N  N0  1  0.76971510  0.81977345  0.11967996  1
  N  N1  1  0.73028490  0.18022655  0.61967996  1
  N  N2  1  0.23028490  0.81977345  0.11967996  1
  N  N3  1  0.26971510  0.18022655  0.61967996  1
  N  N4  1  0.00000000  0.36413937  0.11314002  1
  N  N5  1  0.50000000  0.63586063  0.61314002  1
  N  N6  1  0.00000000  0.67069121  0.57127871  1
  N  N7  1  0.50000000  0.32930879  0.07127871  1
loop_
_geom_bond_atom_site_label_1
_geom_bond_atom_site_label_2
_geom_bond_distance
_geom_bond_site_symmetry_2
Mg0 N6 2.060229 1_555
Mg0 N5 2.061318 1_555
Mg0 N3 2.082797 1_565
Mg0 N2 2.097588 1_556
Mg1 N7 2.060229 1_555
Mg1 N4 2.061318 1_555
Mg1 N2 2.082797 1_545
Mg1 N3 2.097588 1_555
Mg2 N6 2.060229 1_655
Mg2 N5 2.061318 1_555
Mg2 N1 2.082797 1_565
Mg2 N0 2.097588 1_556
Mg3 N7 2.060229 1_555
Mg3 N4 2.061318 1_655
Mg3 N0 2.082797 1_545
Mg3 N1 2.097588 1_555
Cu0 N4 2.037968 1_556
Cu0 N3 2.059422 1_555
Cu0 N1 2.059422 1_455
Cu0 N6 2.128208 1_555
Cu1 N5 2.037968 1_555
Cu1 N0 2.059422 1_555
Cu1 N2 2.059422 1_555
Cu1 N7 2.128208 1_555
N0 Re0 1.843032 1_655
N1 Re1 1.843032 1_555
N2 Re0 1.843032 1_555
N3 Re1 1.843032 1_555
N4 Re0 1.834167 1_555
N5 Re1 1.834167 1_555
N6 Re0 1.820582 1_555
N7 Re1 1.820582 1_554
