# generated using pymatgen
data_Cs3SeO4F
_symmetry_space_group_name_H-M   'P 1'
_cell_length_a   8.40419354
_cell_length_b   8.40419420
_cell_length_c   8.40419427
_cell_angle_alpha   122.44350333
_cell_angle_beta   122.44350413
_cell_angle_gamma   85.81739521
_symmetry_Int_Tables_number   1
_chemical_formula_structural   Cs3SeO4F
_chemical_formula_sum   'Cs6 Se2 O8 F2'
_cell_volume   403.06025227
_cell_formula_units_Z   2
loop_
 _symmetry_equiv_pos_site_id
 _symmetry_equiv_pos_as_xyz
  1  'x, y, z'
loop_
 _atom_site_type_symbol
 _atom_site_label
 _atom_site_symmetry_multiplicity
 _atom_site_fract_x
 _atom_site_fract_y
 _atom_site_fract_z
 _atom_site_occupancy
  Cs  Cs0  1  0.75000000  0.75000000  0.00000000  1
  Cs  Cs1  1  0.25000000  0.25000000  0.00000000  1
  Cs  Cs2  1  0.80964199  0.30964199  0.11928398  1
  Cs  Cs3  1  0.30964199  0.19035801  0.50000000  1
  Cs  Cs4  1  0.69035801  0.80964199  0.50000000  1
  Cs  Cs5  1  0.19035801  0.69035801  0.88071602  1
  Se  Se0  1  0.25000000  0.75000000  0.50000000  1
  Se  Se1  1  0.75000000  0.25000000  0.50000000  1
  O  O0  1  0.55362407  0.05362407  0.26452368  1
  O  O1  1  0.21089961  0.71089961  0.26452368  1
  O  O2  1  0.44637593  0.94637593  0.73547632  1
  O  O3  1  0.94637593  0.21089961  0.50000000  1
  O  O4  1  0.71089961  0.44637593  0.50000000  1
  O  O5  1  0.05362407  0.78910039  0.50000000  1
  O  O6  1  0.28910039  0.55362407  0.50000000  1
  O  O7  1  0.78910039  0.28910039  0.73547632  1
  F  F0  1  0.50000000  0.50000000  0.00000000  1
  F  F1  1  0.00000000  0.00000000  0.00000000  1
loop_
_geom_bond_atom_site_label_1
_geom_bond_atom_site_label_2
_geom_bond_distance
_geom_bond_site_symmetry_2
Cs0 F1 3.077782 1_665
Cs0 F0 3.077782 1_555
Cs0 O6 3.378314 1_554
Cs0 O1 3.378314 1_655
Cs0 O3 3.378314 1_565
Cs0 O2 3.378314 1_554
Cs0 O0 3.378314 1_565
Cs0 O5 3.378314 1_655
Cs0 O7 3.378314 1_554
Cs0 O4 3.378314 1_554
Cs1 F0 3.077782 1_555
Cs1 F1 3.077782 1_555
Cs1 O4 3.378314 1_555
Cs1 O7 3.378314 1_454
Cs1 O5 3.378314 1_544
Cs1 O0 3.378314 1_555
Cs1 O2 3.378314 1_544
Cs1 O3 3.378314 1_454
Cs1 O1 3.378314 1_555
Cs1 O6 3.378314 1_555
Cs2 F0 2.941210 1_555
Cs2 F1 2.941210 1_655
Cs2 O2 3.045238 1_544
Cs2 O7 3.045239 1_554
Cs2 O6 3.318353 1_655
Cs2 O5 3.318353 1_655
Cs2 O4 3.318353 1_555
Cs2 O3 3.318353 1_555
Cs3 F1 2.941210 1_555
Cs3 F0 2.941210 1_556
Cs3 O3 3.045238 1_455
Cs3 O6 3.045239 1_555
Cs3 O7 3.318353 1_555
Cs3 O0 3.318353 1_555
Cs3 O1 3.318353 1_545
Cs3 O2 3.318353 1_545
Cs4 F1 2.941210 1_666
Cs4 F0 2.941210 1_555
Cs4 O5 3.045238 1_655
Cs4 O4 3.045239 1_555
Cs4 O1 3.318353 1_555
Cs4 O2 3.318353 1_555
Cs4 O7 3.318353 1_565
Cs4 O0 3.318353 1_565
Cs5 F0 2.941210 1_556
Cs5 F1 2.941210 1_566
Cs5 O0 3.045238 1_566
Cs5 O1 3.045239 1_556
Cs5 O4 3.318353 1_455
Cs5 O3 3.318353 1_455
Cs5 O6 3.318353 1_555
Cs5 O5 3.318353 1_555
O0 Se1 1.659106 1_555
O1 Se0 1.659106 1_555
O2 Se0 1.659106 1_555
O3 Se1 1.659106 1_555
O4 Se1 1.659106 1_555
O5 Se0 1.659106 1_555
O6 Se0 1.659106 1_555
O7 Se1 1.659106 1_555
