# generated using pymatgen
data_Hf16TaPt7
_symmetry_space_group_name_H-M   'P 1'
_cell_length_a   8.83541460
_cell_length_b   8.83541511
_cell_length_c   8.83541490
_cell_angle_alpha   59.67607632
_cell_angle_beta   59.67608464
_cell_angle_gamma   59.67607690
_symmetry_Int_Tables_number   1
_chemical_formula_structural   Hf16TaPt7
_chemical_formula_sum   'Hf16 Ta1 Pt7'
_cell_volume   484.12564840
_cell_formula_units_Z   1
loop_
 _symmetry_equiv_pos_site_id
 _symmetry_equiv_pos_as_xyz
  1  'x, y, z'
loop_
 _atom_site_type_symbol
 _atom_site_label
 _atom_site_symmetry_multiplicity
 _atom_site_fract_x
 _atom_site_fract_y
 _atom_site_fract_z
 _atom_site_occupancy
  Hf  Hf0  1  0.16518210  0.60916555  0.60916555  1
  Hf  Hf1  1  0.60916555  0.16518210  0.60916555  1
  Hf  Hf2  1  0.60916555  0.60916555  0.16518210  1
  Hf  Hf3  1  0.62839701  0.62839701  0.62839701  1
  Hf  Hf4  1  0.81359151  0.81359151  0.17368775  1
  Hf  Hf5  1  0.18210077  0.18210077  0.81529313  1
  Hf  Hf6  1  0.81359151  0.17368775  0.81359151  1
  Hf  Hf7  1  0.18210077  0.81529313  0.18210077  1
  Hf  Hf8  1  0.17368775  0.81359151  0.81359151  1
  Hf  Hf9  1  0.81529313  0.18210077  0.18210077  1
  Hf  Hf10  1  0.44143244  0.44143244  0.05594716  1
  Hf  Hf11  1  0.05160695  0.05160695  0.45308407  1
  Hf  Hf12  1  0.44143244  0.05594716  0.44143244  1
  Hf  Hf13  1  0.05160695  0.45308407  0.05160695  1
  Hf  Hf14  1  0.05594716  0.44143244  0.44143244  1
  Hf  Hf15  1  0.45308407  0.05160695  0.05160695  1
  Ta  Ta0  1  0.83045003  0.83045003  0.83045003  1
  Pt  Pt0  1  0.80140388  0.40642601  0.40642601  1
  Pt  Pt1  1  0.40642601  0.80140388  0.40642601  1
  Pt  Pt2  1  0.40642601  0.40642601  0.80140388  1
  Pt  Pt3  1  0.39386184  0.39386184  0.39386184  1
  Pt  Pt4  1  0.47059205  0.85172428  0.85172428  1
  Pt  Pt5  1  0.85172428  0.47059205  0.85172428  1
  Pt  Pt6  1  0.85172428  0.85172428  0.47059205  1
loop_
_geom_bond_atom_site_label_1
_geom_bond_atom_site_label_2
_geom_bond_distance
_geom_bond_site_symmetry_2
Hf0 Pt3 2.685455 1_555
Hf0 Pt2 2.713840 1_555
Hf0 Pt1 2.713840 1_555
Hf0 Pt6 2.922889 1_455
Hf0 Pt5 2.922890 1_455
Hf0 Ta0 2.928170 1_455
Hf0 Hf8 3.177832 1_555
Hf0 Hf11 3.191063 1_565
Hf0 Hf13 3.191063 1_556
Hf0 Hf7 3.216069 1_555
Hf0 Hf5 3.216069 1_555
Hf0 Hf14 3.229624 1_555
Hf1 Pt3 2.685454 1_555
Hf1 Pt0 2.713840 1_555
Hf1 Pt2 2.713840 1_555
Hf1 Pt4 2.922890 1_545
Hf1 Pt6 2.922890 1_545
Hf1 Ta0 2.928169 1_545
Hf1 Hf6 3.177832 1_555
Hf1 Hf11 3.191063 1_655
Hf1 Hf15 3.191063 1_556
Hf1 Hf5 3.216070 1_555
Hf1 Hf9 3.216070 1_555
Hf1 Hf12 3.229624 1_555
Hf2 Pt3 2.685455 1_555
Hf2 Pt0 2.713840 1_555
Hf2 Pt1 2.713840 1_555
Hf2 Pt4 2.922889 1_554
Hf2 Pt5 2.922890 1_554
Hf2 Ta0 2.928170 1_554
Hf2 Hf4 3.177832 1_555
Hf2 Hf7 3.216069 1_555
Hf2 Hf9 3.216069 1_555
Hf3 Pt1 2.803355 1_555
Hf3 Pt2 2.803356 1_555
Hf3 Pt0 2.803356 1_555
Hf3 Pt5 2.847168 1_555
Hf3 Pt6 2.847168 1_555
Hf3 Pt4 2.847168 1_555
Hf3 Hf6 3.304977 1_555
Hf3 Hf8 3.304977 1_555
Hf3 Hf4 3.304977 1_555
Hf4 Ta0 2.889889 1_554
Hf4 Pt6 3.001359 1_555
Hf4 Pt0 3.143181 1_555
Hf4 Pt1 3.143181 1_555
Hf4 Hf6 3.166010 1_564
Hf4 Hf8 3.166010 1_654
Hf4 Hf7 3.301786 1_655
Hf4 Hf9 3.301786 1_565
Hf5 Pt4 2.736408 1_545
Hf5 Pt5 2.736408 1_455
Hf5 Pt3 3.214205 1_555
Hf5 Hf7 3.225017 1_546
Hf5 Hf9 3.225017 1_456
Hf5 Hf6 3.301786 1_455
Hf5 Hf8 3.301786 1_545
Hf5 Pt2 3.368576 1_555
Hf6 Ta0 2.889889 1_545
Hf6 Pt5 3.001359 1_555
Hf6 Pt2 3.143181 1_555
Hf6 Pt0 3.143181 1_555
Hf6 Hf8 3.166010 1_645
Hf6 Hf9 3.301786 1_556
Hf7 Pt6 2.736409 1_455
Hf7 Pt4 2.736409 1_554
Hf7 Pt3 3.214204 1_555
Hf7 Hf9 3.225017 1_465
Hf7 Hf8 3.301786 1_554
Hf7 Pt1 3.368576 1_555
Hf8 Ta0 2.889889 1_455
Hf8 Pt4 3.001359 1_555
Hf8 Pt2 3.143181 1_555
Hf8 Pt1 3.143181 1_555
Hf9 Pt6 2.736408 1_545
Hf9 Pt5 2.736408 1_554
Hf9 Pt3 3.214205 1_555
Hf9 Pt0 3.368576 1_555
Hf10 Pt2 2.598215 1_554
Hf10 Pt3 2.628940 1_555
Hf10 Hf3 3.143368 1_554
Hf10 Pt4 3.214369 1_554
Hf10 Pt5 3.214369 1_554
Hf10 Hf2 3.229624 1_555
Hf10 Hf9 3.301505 1_555
Hf10 Hf7 3.301505 1_555
Hf10 Hf8 3.338282 1_554
Hf10 Hf6 3.338283 1_554
Hf10 Hf13 3.412683 1_555
Hf10 Hf15 3.412683 1_555
Hf11 Pt0 2.739000 1_455
Hf11 Pt1 2.739000 1_545
Hf11 Pt6 2.976484 1_445
Hf11 Ta0 3.074273 1_445
Hf11 Hf8 3.185355 1_545
Hf11 Hf6 3.185355 1_455
Hf11 Hf9 3.354220 1_455
Hf11 Hf7 3.354220 1_545
Hf11 Hf12 3.412683 1_555
Hf11 Hf14 3.412683 1_555
Hf11 Hf13 3.529835 1_555
Hf11 Hf15 3.529836 1_555
Hf12 Pt1 2.598215 1_545
Hf12 Pt3 2.628940 1_555
Hf12 Hf3 3.143368 1_545
Hf12 Pt6 3.214369 1_545
Hf12 Pt4 3.214369 1_545
Hf12 Hf9 3.301505 1_555
Hf12 Hf5 3.301505 1_555
Hf12 Hf8 3.338283 1_545
Hf12 Hf4 3.338283 1_545
Hf12 Hf15 3.412683 1_555
Hf13 Pt2 2.739000 1_554
Hf13 Pt0 2.739000 1_455
Hf13 Pt5 2.976484 1_454
Hf13 Ta0 3.074272 1_454
Hf13 Hf8 3.185355 1_554
Hf13 Hf4 3.185355 1_455
Hf13 Hf2 3.191063 1_455
Hf13 Hf9 3.354220 1_455
Hf13 Hf5 3.354220 1_554
Hf13 Hf14 3.412683 1_555
Hf13 Hf15 3.529835 1_555
Hf14 Pt0 2.598215 1_455
Hf14 Pt3 2.628940 1_555
Hf14 Hf3 3.143368 1_455
Hf14 Pt6 3.214369 1_455
Hf14 Pt5 3.214369 1_455
Hf14 Hf5 3.301505 1_555
Hf14 Hf7 3.301505 1_555
Hf14 Hf4 3.338282 1_455
Hf14 Hf6 3.338283 1_455
Hf15 Pt2 2.739000 1_554
Hf15 Pt1 2.739000 1_545
Hf15 Pt4 2.976484 1_544
Hf15 Ta0 3.074273 1_544
Hf15 Hf4 3.185355 1_545
Hf15 Hf6 3.185355 1_554
Hf15 Hf2 3.191063 1_545
Hf15 Hf5 3.354220 1_554
Hf15 Hf7 3.354220 1_545
Pt4 Ta0 3.001426 1_555
Pt4 Pt5 3.350961 1_555
Pt4 Pt6 3.350961 1_555
Pt5 Ta0 3.001427 1_555
Pt5 Pt6 3.350961 1_555
Pt6 Ta0 3.001426 1_555
