# generated using pymatgen
data_Cs10Mg3Ti3Se14
_symmetry_space_group_name_H-M   'P 1'
_cell_length_a   11.48959084
_cell_length_b   11.48958464
_cell_length_c   9.64197482
_cell_angle_alpha   76.14677514
_cell_angle_beta   76.14693927
_cell_angle_gamma   69.56897631
_symmetry_Int_Tables_number   1
_chemical_formula_structural   Cs10Mg3Ti3Se14
_chemical_formula_sum   'Cs10 Mg3 Ti3 Se14'
_cell_volume   1140.96075862
_cell_formula_units_Z   1
loop_
 _symmetry_equiv_pos_site_id
 _symmetry_equiv_pos_as_xyz
  1  'x, y, z'
loop_
 _atom_site_type_symbol
 _atom_site_label
 _atom_site_symmetry_multiplicity
 _atom_site_fract_x
 _atom_site_fract_y
 _atom_site_fract_z
 _atom_site_occupancy
  Cs  Cs0  1  0.02958505  0.42723374  0.73196645  1
  Cs  Cs1  1  0.42723374  0.02958405  0.73196645  1
  Cs  Cs2  1  0.97429907  0.56450042  0.27085825  1
  Cs  Cs3  1  0.56450042  0.97430007  0.27085825  1
  Cs  Cs4  1  0.29156958  0.71243994  0.00601251  1
  Cs  Cs5  1  0.71243994  0.29156958  0.00601251  1
  Cs  Cs6  1  0.85517458  0.15432966  0.49130591  1
  Cs  Cs7  1  0.15432966  0.85517458  0.49130591  1
  Cs  Cs8  1  0.42816259  0.42815959  0.70179266  1
  Cs  Cs9  1  0.57249658  0.57249958  0.30411186  1
  Mg  Mg0  1  0.20932347  0.20932247  0.18315846  1
  Mg  Mg1  1  0.78845998  0.78846098  0.81250511  1
  Mg  Mg2  1  0.07168877  0.07168877  0.05956607  1
  Ti  Ti0  1  0.92784711  0.92784711  0.93465646  1
  Ti  Ti1  1  0.34356885  0.34356885  0.33716429  1
  Ti  Ti2  1  0.65660842  0.65660842  0.66796237  1
  Se  Se0  1  0.98691240  0.29266456  0.12215663  1
  Se  Se1  1  0.29266456  0.98691240  0.12215663  1
  Se  Se2  1  0.01159461  0.71743037  0.87653708  1
  Se  Se3  1  0.71743037  0.01159461  0.87653708  1
  Se  Se4  1  0.21293263  0.21293263  0.45388462  1
  Se  Se5  1  0.78725897  0.78725897  0.54701240  1
  Se  Se6  1  0.05494362  0.05494362  0.79748405  1
  Se  Se7  1  0.92747465  0.92747465  0.18153786  1
  Se  Se8  1  0.35558096  0.35558196  0.08149691  1
  Se  Se9  1  0.64666534  0.64666434  0.92381189  1
  Se  Se10  1  0.25260464  0.54721172  0.40286783  1
  Se  Se11  1  0.54721172  0.25260464  0.40286783  1
  Se  Se12  1  0.74685535  0.45258138  0.60522332  1
  Se  Se13  1  0.45258138  0.74685535  0.60522332  1
loop_
_geom_bond_atom_site_label_1
_geom_bond_atom_site_label_2
_geom_bond_distance
_geom_bond_site_symmetry_2
Cs0 Se12 3.633278 1_455
Cs0 Se0 3.693984 1_456
Cs0 Se4 3.811144 1_555
Cs0 Se2 3.835295 1_555
Cs0 Se10 3.874650 1_555
Cs0 Se6 4.087135 1_555
Cs1 Se13 3.633269 1_545
Cs1 Se1 3.693987 1_546
Cs1 Se4 3.811138 1_555
Cs1 Se3 3.835297 1_555
Cs1 Se11 3.874653 1_555
Cs1 Se6 4.087136 1_555
Cs2 Se10 3.642635 1_655
Cs2 Se0 3.682461 1_555
Cs2 Se2 3.777945 1_654
Cs2 Se5 3.865479 1_555
Cs2 Se12 3.899072 1_555
Cs2 Se7 3.919065 1_555
Cs3 Se11 3.642625 1_565
Cs3 Se1 3.682463 1_555
Cs3 Se3 3.777948 1_564
Cs3 Se5 3.865472 1_555
Cs3 Se13 3.899075 1_555
Cs3 Se7 3.919068 1_555
Cs4 Se1 3.595119 1_555
Cs4 Se2 3.697239 1_554
Cs4 Se9 3.798769 1_554
Cs4 Se8 3.821498 1_555
Cs4 Se10 3.839356 1_555
Cs4 Se13 3.855886 1_554
Cs5 Se0 3.595118 1_555
Cs5 Se3 3.697240 1_554
Cs5 Se9 3.798754 1_554
Cs5 Se8 3.821512 1_555
Cs5 Se11 3.839360 1_555
Cs5 Se12 3.855882 1_554
Cs6 Se12 3.559293 1_555
Cs6 Se11 3.566025 1_555
Cs6 Se0 3.725147 1_555
Cs6 Se3 3.882124 1_555
Cs6 Se6 3.884335 1_655
Cs6 Se7 4.175260 1_545
Cs7 Se13 3.559290 1_555
Cs7 Se10 3.566027 1_555
Cs7 Se1 3.725147 1_555
Cs7 Se2 3.882124 1_555
Cs7 Se6 3.884342 1_565
Cs7 Se7 4.175254 1_455
Cs8 Se8 3.515105 1_556
Cs8 Se11 3.635460 1_555
Cs8 Se10 3.635474 1_555
Cs8 Se12 3.648690 1_555
Cs8 Se13 3.648707 1_555
Cs9 Se9 3.523122 1_554
Cs9 Se13 3.644623 1_555
Cs9 Se12 3.644637 1_555
Cs9 Se10 3.665656 1_555
Cs9 Se11 3.665672 1_555
Mg0 Se1 2.556293 1_545
Mg0 Se0 2.556303 1_455
Mg0 Se4 2.631002 1_555
Mg0 Se8 2.646242 1_555
Mg1 Se5 2.566576 1_555
Mg1 Se9 2.576568 1_555
Mg1 Se3 2.583754 1_565
Mg1 Se2 2.583763 1_655
Mg2 Se1 2.546520 1_545
Mg2 Se0 2.546521 1_455
Mg2 Se7 2.631469 1_445
Mg2 Se6 2.636508 1_554
Se2 Ti0 2.418915 1_455
Se3 Ti0 2.418914 1_545
Se4 Ti1 2.393189 1_555
Se5 Ti2 2.400694 1_555
Se6 Ti0 2.377644 1_445
Se7 Ti0 2.378384 1_554
Se8 Ti1 2.408827 1_555
Se9 Ti2 2.418855 1_555
Se10 Ti1 2.377746 1_555
Se11 Ti1 2.377744 1_555
Se12 Ti2 2.370233 1_555
Se13 Ti2 2.370232 1_555
