# generated using pymatgen
data_Sc22IrOs3Rh4
_symmetry_space_group_name_H-M   'P 1'
_cell_length_a   9.48133549
_cell_length_b   9.45124219
_cell_length_c   9.48133513
_cell_angle_alpha   60.10493895
_cell_angle_beta   59.89570877
_cell_angle_gamma   60.10494434
_symmetry_Int_Tables_number   1
_chemical_formula_structural   Sc22IrOs3Rh4
_chemical_formula_sum   'Sc22 Ir1 Os3 Rh4'
_cell_volume   601.25044622
_cell_formula_units_Z   1
loop_
 _symmetry_equiv_pos_site_id
 _symmetry_equiv_pos_as_xyz
  1  'x, y, z'
loop_
 _atom_site_type_symbol
 _atom_site_label
 _atom_site_symmetry_multiplicity
 _atom_site_fract_x
 _atom_site_fract_y
 _atom_site_fract_z
 _atom_site_occupancy
  Sc  Sc0  1  0.80324812  0.80417447  0.19675188  1
  Sc  Sc1  1  0.19635424  0.80364576  0.19635424  1
  Sc  Sc2  1  0.80324812  0.19582553  0.19675188  1
  Sc  Sc3  1  0.19675188  0.19582553  0.80324812  1
  Sc  Sc4  1  0.80364576  0.19635424  0.80364576  1
  Sc  Sc5  1  0.19675188  0.80417447  0.80324812  1
  Sc  Sc6  1  0.61752107  0.61520758  0.15206176  1
  Sc  Sc7  1  0.61388652  0.15080196  0.61388652  1
  Sc  Sc8  1  0.15206176  0.61520758  0.61752107  1
  Sc  Sc9  1  0.61388652  0.62142399  0.61388652  1
  Sc  Sc10  1  0.38247893  0.38479242  0.84793824  1
  Sc  Sc11  1  0.38611348  0.84919804  0.38611348  1
  Sc  Sc12  1  0.84793824  0.38479242  0.38247893  1
  Sc  Sc13  1  0.38611348  0.37857601  0.38611348  1
  Sc  Sc14  1  0.84323899  0.84377603  0.46920795  1
  Sc  Sc15  1  0.84351694  0.46994853  0.84351694  1
  Sc  Sc16  1  0.46920795  0.84377603  0.84323899  1
  Sc  Sc17  1  0.84351694  0.84301760  0.84351694  1
  Sc  Sc18  1  0.15676101  0.15622397  0.53079205  1
  Sc  Sc19  1  0.15648306  0.53005147  0.15648306  1
  Sc  Sc20  1  0.53079205  0.15622397  0.15676101  1
  Sc  Sc21  1  0.15648306  0.15698240  0.15648306  1
  Ir  Ir0  1  0.00000000  0.50000000  0.00000000  1
  Os  Os0  1  0.00000000  0.00000000  0.00000000  1
  Os  Os1  1  0.50000000  0.50000000  0.50000000  1
  Os  Os2  1  0.50000000  0.00000000  0.50000000  1
  Rh  Rh0  1  0.00000000  0.00000000  0.50000000  1
  Rh  Rh1  1  0.00000000  0.50000000  0.50000000  1
  Rh  Rh2  1  0.50000000  0.50000000  0.00000000  1
  Rh  Rh3  1  0.50000000  0.00000000  0.00000000  1
loop_
_geom_bond_atom_site_label_1
_geom_bond_atom_site_label_2
_geom_bond_distance
_geom_bond_site_symmetry_2
Ir0 Sc19 2.744365 1_555
Ir0 Sc15 2.744365 1_454
Ir0 Sc17 2.744365 1_454
Ir0 Sc21 2.744365 1_555
Ir0 Sc12 2.966315 1_455
Ir0 Sc8 2.966315 1_554
Ir0 Sc10 2.966315 1_554
Ir0 Sc6 2.966315 1_455
Os0 Sc3 2.625729 1_554
Os0 Sc0 2.625729 1_445
Os0 Sc2 2.625730 1_455
Os0 Sc5 2.625730 1_544
Os0 Sc1 2.639080 1_545
Os0 Sc4 2.639080 1_454
Os1 Sc10 2.692839 1_555
Os1 Sc6 2.692839 1_555
Os1 Sc12 2.692840 1_555
Os1 Sc8 2.692840 1_555
Os1 Sc13 2.699825 1_555
Os1 Sc9 2.699825 1_555
Os1 Sc11 2.699833 1_555
Os1 Sc7 2.699833 1_555
Os2 Sc20 2.746442 1_555
Os2 Sc16 2.746442 1_545
Os2 Sc14 2.746443 1_545
Os2 Sc18 2.746443 1_555
Os2 Sc7 2.932774 1_555
Os2 Sc11 2.932774 1_545
Os2 Sc9 2.932782 1_545
Os2 Sc13 2.932782 1_555
Rh0 Sc18 2.743535 1_555
Rh0 Sc14 2.743535 1_445
Rh0 Sc17 2.745976 1_445
Rh0 Sc21 2.745976 1_555
Rh0 Sc8 2.981900 1_545
Rh0 Sc12 2.981900 1_455
Rh0 Sc7 2.994467 1_455
Rh0 Sc11 2.994467 1_545
Rh1 Sc14 2.743527 1_455
Rh1 Sc18 2.743527 1_555
Rh1 Sc15 2.745976 1_455
Rh1 Sc19 2.745976 1_555
Rh1 Sc8 2.981885 1_555
Rh1 Sc12 2.981885 1_455
Rh1 Sc13 2.994467 1_555
Rh1 Sc9 2.994467 1_455
Rh2 Sc16 2.743527 1_554
Rh2 Sc20 2.743527 1_555
Rh2 Sc15 2.745976 1_554
Rh2 Sc19 2.745976 1_555
Rh2 Sc6 2.981885 1_555
Rh2 Sc10 2.981885 1_554
Rh2 Sc9 2.994467 1_554
Rh2 Sc13 2.994467 1_555
Rh3 Sc20 2.743535 1_555
Rh3 Sc16 2.743535 1_544
Rh3 Sc17 2.745976 1_544
Rh3 Sc21 2.745976 1_555
Rh3 Sc10 2.981900 1_554
Rh3 Sc6 2.981900 1_545
Rh3 Sc7 2.994466 1_554
Rh3 Sc11 2.994466 1_545
