# generated using pymatgen
data_Cs6Ti2Se6S
_symmetry_space_group_name_H-M   'P 1'
_cell_length_a   11.95100460
_cell_length_b   8.89698078
_cell_length_c   14.53276361
_cell_angle_alpha   54.20718653
_cell_angle_beta   90.00000000
_cell_angle_gamma   90.00000000
_symmetry_Int_Tables_number   1
_chemical_formula_structural   Cs6Ti2Se6S
_chemical_formula_sum   'Cs12 Ti4 Se12 S2'
_cell_volume   1253.39969867
_cell_formula_units_Z   2
loop_
 _symmetry_equiv_pos_site_id
 _symmetry_equiv_pos_as_xyz
  1  'x, y, z'
loop_
 _atom_site_type_symbol
 _atom_site_label
 _atom_site_symmetry_multiplicity
 _atom_site_fract_x
 _atom_site_fract_y
 _atom_site_fract_z
 _atom_site_occupancy
  Cs  Cs0  1  0.79551264  0.56662445  0.29789883  1
  Cs  Cs1  1  0.65049931  0.94373201  0.91711116  1
  Cs  Cs2  1  0.52693069  0.17938223  0.57619104  1
  Cs  Cs3  1  0.02693069  0.82061777  0.92380896  1
  Cs  Cs4  1  0.29551264  0.43337555  0.20210117  1
  Cs  Cs5  1  0.15049931  0.05626799  0.58288884  1
  Cs  Cs6  1  0.84950069  0.94373201  0.41711116  1
  Cs  Cs7  1  0.70448736  0.56662445  0.79789883  1
  Cs  Cs8  1  0.97306931  0.17938223  0.07619104  1
  Cs  Cs9  1  0.47306931  0.82061777  0.42380896  1
  Cs  Cs10  1  0.34950069  0.05626799  0.08288884  1
  Cs  Cs11  1  0.20448736  0.43337555  0.70210117  1
  Ti  Ti0  1  0.86237716  0.32323015  0.63362650  1
  Ti  Ti1  1  0.36237716  0.67676985  0.86637350  1
  Ti  Ti2  1  0.63762284  0.32323015  0.13362650  1
  Ti  Ti3  1  0.13762284  0.67676985  0.36637350  1
  Se  Se0  1  0.08465046  0.73613553  0.19181910  1
  Se  Se1  1  0.30173417  0.49469890  0.42882102  1
  Se  Se2  1  0.33547488  0.95760528  0.84998190  1
  Se  Se3  1  0.83547488  0.04239472  0.65001810  1
  Se  Se4  1  0.80173417  0.50530110  0.07117898  1
  Se  Se5  1  0.58465046  0.26386447  0.30818090  1
  Se  Se6  1  0.41534954  0.73613553  0.69181910  1
  Se  Se7  1  0.19826583  0.49469890  0.92882102  1
  Se  Se8  1  0.16452512  0.95760528  0.34998190  1
  Se  Se9  1  0.66452512  0.04239472  0.15001810  1
  Se  Se10  1  0.69826583  0.50530110  0.57117898  1
  Se  Se11  1  0.91534954  0.26386447  0.80818090  1
  S  S0  1  0.00000000  0.50000000  0.50000000  1
  S  S1  1  0.50000000  0.50000000  0.00000000  1
loop_
_geom_bond_atom_site_label_1
_geom_bond_atom_site_label_2
_geom_bond_distance
_geom_bond_site_symmetry_2
Cs0 S0 3.593565 1_655
Cs0 Se5 3.627360 1_555
Cs0 Se4 3.641714 1_555
Cs0 Se0 3.724504 1_655
Cs0 Se9 3.787608 1_565
Cs0 Se10 3.858334 1_555
Cs1 Se4 3.644103 1_556
Cs1 S1 3.835245 1_556
Cs1 Se2 3.873020 1_555
Cs1 Se11 3.919560 1_565
Cs1 Se9 3.966205 1_566
Cs1 Se3 4.091305 1_565
Cs2 Se10 3.515573 1_555
Cs2 Se6 3.521682 1_545
Cs2 Se1 3.559811 1_555
Cs2 Se5 3.575870 1_555
Cs2 Se3 3.834580 1_555
Cs2 Se2 3.972048 1_545
Cs3 Se7 3.515573 1_555
Cs3 Se11 3.521682 1_465
Cs3 Se4 3.559811 1_456
Cs3 Se0 3.575870 1_556
Cs3 Se2 3.834580 1_555
Cs3 Se3 3.972048 1_465
Cs4 S1 3.593565 1_555
Cs4 Se0 3.627360 1_555
Cs4 Se1 3.641714 1_555
Cs4 Se5 3.724504 1_555
Cs4 Se8 3.787608 1_545
Cs4 Se7 3.858334 1_554
Cs5 Se1 3.644103 1_555
Cs5 S0 3.835245 1_555
Cs5 Se3 3.873020 1_455
Cs5 Se6 3.919560 1_545
Cs5 Se8 3.966205 1_545
Cs5 Se2 4.091305 1_545
Cs6 Se10 3.644103 1_555
Cs6 S0 3.835245 1_655
Cs6 Se8 3.873020 1_655
Cs6 Se5 3.919560 1_565
Cs6 Se3 3.966205 1_565
Cs6 Se9 4.091305 1_565
Cs7 S1 3.593565 1_556
Cs7 Se11 3.627360 1_555
Cs7 Se10 3.641714 1_555
Cs7 Se6 3.724504 1_555
Cs7 Se3 3.787608 1_565
Cs7 Se4 3.858334 1_556
Cs8 Se4 3.515573 1_555
Cs8 Se0 3.521682 1_645
Cs8 Se7 3.559811 1_654
Cs8 Se11 3.575870 1_554
Cs8 Se9 3.834580 1_555
Cs8 Se8 3.972048 1_645
Cs9 Se1 3.515573 1_555
Cs9 Se5 3.521682 1_565
Cs9 Se10 3.559811 1_555
Cs9 Se6 3.575870 1_555
Cs9 Se8 3.834580 1_555
Cs9 Se9 3.972048 1_565
Cs10 Se7 3.644103 1_554
Cs10 S1 3.835245 1_555
Cs10 Se9 3.873020 1_555
Cs10 Se0 3.919560 1_545
Cs10 Se2 3.966205 1_544
Cs10 Se8 4.091305 1_545
Cs11 S0 3.593565 1_555
Cs11 Se6 3.627360 1_555
Cs11 Se7 3.641714 1_555
Cs11 Se11 3.724504 1_455
Cs11 Se2 3.787608 1_545
Cs11 Se1 3.858334 1_555
Se0 Ti3 2.355345 1_555
Se1 Ti3 2.361085 1_555
Se2 Ti1 2.388899 1_555
Se3 Ti0 2.388899 1_555
Se4 Ti2 2.361085 1_555
Se5 Ti2 2.355345 1_555
Se6 Ti1 2.355345 1_555
Se7 Ti1 2.361085 1_555
Se8 Ti3 2.388899 1_555
Se9 Ti2 2.388899 1_555
Se10 Ti0 2.361085 1_555
Se11 Ti0 2.355345 1_555
S0 Ti3 2.318904 1_555
S0 Ti0 2.318904 1_455
S1 Ti2 2.318904 1_555
S1 Ti1 2.318904 1_554
