# generated using pymatgen
data_Cs4Cd(SnAu3)2
_symmetry_space_group_name_H-M   'P 1'
_cell_length_a   10.77031874
_cell_length_b   10.77031907
_cell_length_c   10.77031849
_cell_angle_alpha   38.10393445
_cell_angle_beta   38.10393209
_cell_angle_gamma   38.10393583
_symmetry_Int_Tables_number   1
_chemical_formula_structural   Cs4Cd(SnAu3)2
_chemical_formula_sum   'Cs4 Cd1 Sn2 Au6'
_cell_volume   427.14001025
_cell_formula_units_Z   1
loop_
 _symmetry_equiv_pos_site_id
 _symmetry_equiv_pos_as_xyz
  1  'x, y, z'
loop_
 _atom_site_type_symbol
 _atom_site_label
 _atom_site_symmetry_multiplicity
 _atom_site_fract_x
 _atom_site_fract_y
 _atom_site_fract_z
 _atom_site_occupancy
  Cs  Cs0  1  0.81043768  0.81043768  0.81043768  1
  Cs  Cs1  1  0.68446127  0.68446127  0.68446127  1
  Cs  Cs2  1  0.31553873  0.31553873  0.31553873  1
  Cs  Cs3  1  0.18956232  0.18956232  0.18956232  1
  Cd  Cd0  1  0.00000000  0.00000000  0.00000000  1
  Sn  Sn0  1  0.44799477  0.44799477  0.44799477  1
  Sn  Sn1  1  0.55200523  0.55200523  0.55200523  1
  Au  Au0  1  0.78845436  0.78845436  0.18543697  1
  Au  Au1  1  0.21154564  0.81456303  0.21154564  1
  Au  Au2  1  0.78845436  0.18543697  0.78845436  1
  Au  Au3  1  0.81456303  0.21154564  0.21154564  1
  Au  Au4  1  0.18543697  0.78845436  0.78845436  1
  Au  Au5  1  0.21154564  0.21154564  0.81456303  1
loop_
_geom_bond_atom_site_label_1
_geom_bond_atom_site_label_2
_geom_bond_distance
_geom_bond_site_symmetry_2
Au0 Sn1 2.667938 1_555
Au0 Au4 2.791350 1_654
Au0 Au2 2.791350 1_564
Au0 Cd0 2.866711 1_665
Au0 Cs0 3.674618 1_554
Au0 Cs1 3.797675 1_555
Au0 Cs2 3.989279 1_655
Au0 Cs2 3.989279 1_565
Au0 Cs3 4.033293 1_565
Au0 Cs3 4.033293 1_655
Au1 Sn0 2.667938 1_555
Au1 Au5 2.791350 1_564
Au1 Au3 2.791350 1_465
Au1 Cd0 2.866711 1_565
Au1 Cs3 3.674618 1_565
Au1 Cs2 3.797676 1_555
Au1 Cs1 3.989279 1_554
Au1 Cs1 3.989279 1_455
Au1 Cs0 4.033292 1_455
Au1 Cs0 4.033292 1_554
Au2 Sn1 2.667938 1_555
Au2 Au4 2.791350 1_645
Au2 Cd0 2.866711 1_656
Au2 Cs0 3.674618 1_545
Au2 Cs1 3.797676 1_555
Au2 Cs2 3.989279 1_556
Au2 Cs2 3.989279 1_655
Au2 Cs3 4.033292 1_655
Au2 Cs3 4.033292 1_556
Au3 Sn0 2.667938 1_555
Au3 Au5 2.791350 1_654
Au3 Cd0 2.866711 1_655
Au3 Cs3 3.674618 1_655
Au3 Cs2 3.797675 1_555
Au3 Cs1 3.989279 1_554
Au3 Cs1 3.989279 1_545
Au3 Cs0 4.033292 1_545
Au3 Cs0 4.033293 1_554
Au4 Sn1 2.667938 1_555
Au4 Cd0 2.866711 1_566
Au4 Cs0 3.674618 1_455
Au4 Cs1 3.797675 1_555
Au4 Cs2 3.989279 1_556
Au4 Cs2 3.989279 1_565
Au4 Cs3 4.033292 1_565
Au4 Cs3 4.033293 1_556
Au5 Sn0 2.667938 1_555
Au5 Cd0 2.866711 1_556
Au5 Cs3 3.674618 1_556
Au5 Cs2 3.797675 1_555
Au5 Cs1 3.989279 1_455
Au5 Cs1 3.989279 1_545
Au5 Cs0 4.033293 1_545
Au5 Cs0 4.033293 1_455
