# generated using pymatgen
data_Ti3Al2PdN
_symmetry_space_group_name_H-M   'P 1'
_cell_length_a   8.15587860
_cell_length_b   8.15587920
_cell_length_c   8.15587942
_cell_angle_alpha   60.00000310
_cell_angle_beta   60.00000066
_cell_angle_gamma   59.99999826
_symmetry_Int_Tables_number   1
_chemical_formula_structural   Ti3Al2PdN
_chemical_formula_sum   'Ti12 Al8 Pd4 N4'
_cell_volume   383.61655631
_cell_formula_units_Z   4
loop_
 _symmetry_equiv_pos_site_id
 _symmetry_equiv_pos_as_xyz
  1  'x, y, z'
loop_
 _atom_site_type_symbol
 _atom_site_label
 _atom_site_symmetry_multiplicity
 _atom_site_fract_x
 _atom_site_fract_y
 _atom_site_fract_z
 _atom_site_occupancy
  Ti  Ti0  1  0.81874013  0.81874013  0.18125987  1
  Ti  Ti1  1  0.06874013  0.43125987  0.43125987  1
  Ti  Ti2  1  0.43125987  0.06874013  0.06874013  1
  Ti  Ti3  1  0.06874013  0.06874013  0.43125987  1
  Ti  Ti4  1  0.06874013  0.43125987  0.06874013  1
  Ti  Ti5  1  0.43125987  0.06874013  0.43125987  1
  Ti  Ti6  1  0.18125987  0.81874013  0.18125987  1
  Ti  Ti7  1  0.18125987  0.81874013  0.81874013  1
  Ti  Ti8  1  0.81874013  0.18125987  0.18125987  1
  Ti  Ti9  1  0.81874013  0.18125987  0.81874013  1
  Ti  Ti10  1  0.43125987  0.43125987  0.06874013  1
  Ti  Ti11  1  0.18125987  0.18125987  0.81874013  1
  Al  Al0  1  0.41565484  0.75303449  0.41565484  1
  Al  Al1  1  0.83434516  0.83434516  0.49696551  1
  Al  Al2  1  0.49696551  0.83434516  0.83434516  1
  Al  Al3  1  0.83434516  0.83434516  0.83434516  1
  Al  Al4  1  0.75303449  0.41565484  0.41565484  1
  Al  Al5  1  0.41565484  0.41565484  0.41565484  1
  Al  Al6  1  0.41565484  0.41565484  0.75303449  1
  Al  Al7  1  0.83434516  0.49696551  0.83434516  1
  Pd  Pd0  1  0.62500000  0.12500000  0.62500000  1
  Pd  Pd1  1  0.62500000  0.62500000  0.12500000  1
  Pd  Pd2  1  0.12500000  0.62500000  0.62500000  1
  Pd  Pd3  1  0.62500000  0.62500000  0.62500000  1
  N  N0  1  0.12500000  0.62500000  0.12500000  1
  N  N1  1  0.12500000  0.12500000  0.62500000  1
  N  N2  1  0.62500000  0.12500000  0.12500000  1
  N  N3  1  0.12500000  0.12500000  0.12500000  1
loop_
_geom_bond_atom_site_label_1
_geom_bond_atom_site_label_2
_geom_bond_distance
_geom_bond_site_symmetry_2
Al0 Pd2 2.504024 1_555
Al0 Pd1 2.504024 1_555
Al0 Pd3 2.504030 1_555
Al1 Pd2 2.504024 1_655
Al1 Pd0 2.504024 1_565
Al1 Pd3 2.504030 1_555
Al2 Pd1 2.504024 1_556
Al2 Pd0 2.504024 1_565
Al2 Pd3 2.504031 1_555
Al3 Pd2 2.504028 1_655
Al3 Pd0 2.504028 1_565
Al3 Pd1 2.504028 1_556
Al4 Pd1 2.504024 1_555
Al4 Pd0 2.504024 1_555
Al4 Pd3 2.504031 1_555
Al5 Pd2 2.504028 1_555
Al5 Pd0 2.504028 1_555
Al5 Pd1 2.504028 1_555
Al6 Pd2 2.504024 1_555
Al6 Pd0 2.504024 1_555
Al6 Pd3 2.504030 1_555
Al7 Pd2 2.504024 1_655
Al7 Pd1 2.504024 1_556
Al7 Pd3 2.504030 1_555
Pd0 Ti3 3.025056 1_655
Pd0 Ti11 3.025056 1_555
Pd0 Ti9 3.025056 1_555
Pd0 Ti5 3.025056 1_555
Pd0 Ti2 3.025056 1_556
Pd0 Ti8 3.025056 1_555
Pd1 Ti4 3.025056 1_655
Pd1 Ti6 3.025056 1_555
Pd1 Ti0 3.025056 1_555
Pd1 Ti10 3.025056 1_555
Pd1 Ti2 3.025056 1_565
Pd1 Ti8 3.025056 1_555
Pd2 Ti7 3.025056 1_555
Pd2 Ti1 3.025056 1_555
Pd2 Ti3 3.025056 1_565
Pd2 Ti11 3.025056 1_555
Pd2 Ti4 3.025056 1_556
Pd2 Ti6 3.025056 1_555
Pd3 Ti1 3.025056 1_655
Pd3 Ti7 3.025056 1_555
Pd3 Ti5 3.025056 1_565
Pd3 Ti9 3.025056 1_555
Pd3 Ti10 3.025056 1_556
Pd3 Ti0 3.025056 1_555
N0 Ti10 2.139739 1_555
N0 Ti0 2.139739 1_455
N0 Ti6 2.139739 1_555
N0 Ti4 2.139739 1_555
N0 Ti1 2.139739 1_555
N0 Ti7 2.139739 1_554
N1 Ti5 2.139739 1_555
N1 Ti9 2.139739 1_455
N1 Ti11 2.139739 1_555
N1 Ti3 2.139739 1_555
N1 Ti1 2.139739 1_555
N1 Ti7 2.139739 1_545
N2 Ti8 2.139739 1_555
N2 Ti2 2.139739 1_555
N2 Ti10 2.139739 1_555
N2 Ti0 2.139739 1_545
N2 Ti9 2.139739 1_554
N2 Ti5 2.139739 1_555
N3 Ti2 2.139739 1_555
N3 Ti8 2.139739 1_455
N3 Ti4 2.139739 1_555
N3 Ti6 2.139739 1_545
N3 Ti3 2.139739 1_555
N3 Ti11 2.139739 1_554
