# generated using pymatgen
data_YTa3(NbBr6)3
_symmetry_space_group_name_H-M   'P 1'
_cell_length_a   10.63098355
_cell_length_b   10.63130893
_cell_length_c   10.63792805
_cell_angle_alpha   55.59956910
_cell_angle_beta   55.60492357
_cell_angle_gamma   55.58280327
_symmetry_Int_Tables_number   1
_chemical_formula_structural   YTa3(NbBr6)3
_chemical_formula_sum   'Y1 Ta3 Nb3 Br18'
_cell_volume   763.26265997
_cell_formula_units_Z   1
loop_
 _symmetry_equiv_pos_site_id
 _symmetry_equiv_pos_as_xyz
  1  'x, y, z'
loop_
 _atom_site_type_symbol
 _atom_site_label
 _atom_site_symmetry_multiplicity
 _atom_site_fract_x
 _atom_site_fract_y
 _atom_site_fract_z
 _atom_site_occupancy
  Y  Y0  1  0.00009441  0.99949837  0.00082899  1
  Ta  Ta0  1  0.41434935  0.30676619  0.64378198  1
  Ta  Ta1  1  0.35625938  0.58589087  0.69291047  1
  Ta  Ta2  1  0.69339354  0.35616795  0.58532802  1
  Nb  Nb0  1  0.30477432  0.64543130  0.41324705  1
  Nb  Nb1  1  0.64520026  0.41382818  0.30450193  1
  Nb  Nb2  1  0.58636687  0.69545961  0.35431568  1
  Br  Br0  1  0.57032637  0.15922398  0.44205025  1
  Br  Br1  1  0.22319455  0.36710402  0.91104725  1
  Br  Br2  1  0.91271229  0.22134882  0.36870184  1
  Br  Br3  1  0.36542981  0.91435233  0.22145384  1
  Br  Br4  1  0.77869316  0.63416500  0.08595895  1
  Br  Br5  1  0.08774762  0.77720947  0.63567547  1
  Br  Br6  1  0.69606441  0.96762290  0.15852671  1
  Br  Br7  1  0.96384750  0.15834004  0.69668913  1
  Br  Br8  1  0.16106959  0.69458024  0.96455088  1
  Br  Br9  1  0.30494636  0.03522005  0.84146884  1
  Br  Br10  1  0.03160564  0.84160357  0.30498087  1
  Br  Br11  1  0.84331264  0.30310964  0.03264720  1
  Br  Br12  1  0.56089444  0.42812780  0.83846977  1
  Br  Br13  1  0.16067227  0.43686285  0.57407226  1
  Br  Br14  1  0.43886573  0.57183753  0.15920064  1
  Br  Br15  1  0.42638716  0.83931400  0.56280342  1
  Br  Br16  1  0.84080660  0.55806819  0.42958171  1
  Br  Br17  1  0.63298776  0.08886708  0.77720884  1
loop_
_geom_bond_atom_site_label_1
_geom_bond_atom_site_label_2
_geom_bond_distance
_geom_bond_site_symmetry_2
Br0 Ta0 2.580377 1_555
Br0 Nb1 2.597239 1_555
Br1 Ta0 2.585384 1_555
Br1 Ta1 2.590002 1_555
Br2 Ta2 2.585573 1_555
Br2 Nb1 2.603519 1_555
Br3 Nb0 2.599774 1_555
Br3 Nb2 2.604832 1_555
Br4 Nb2 2.599261 1_555
Br4 Nb1 2.604402 1_555
Br5 Ta1 2.580136 1_555
Br5 Nb0 2.609347 1_555
Br6 Y0 2.801017 1_655
Br6 Nb2 2.886305 1_555
Br7 Y0 2.822667 1_646
Br7 Ta2 2.879344 1_555
Br8 Y0 2.825309 1_556
Br8 Ta1 2.877380 1_555
Br9 Y0 2.824541 1_546
Br9 Ta0 2.877777 1_555
Br10 Y0 2.801895 1_555
Br10 Nb0 2.885773 1_555
Br11 Y0 2.797632 1_645
Br11 Nb1 2.889186 1_555
Br12 Ta2 2.577845 1_555
Br12 Ta1 2.586511 1_555
Br13 Ta0 2.572904 1_555
Br13 Nb0 2.604386 1_555
Br14 Nb0 2.593028 1_555
Br14 Nb1 2.598838 1_555
Br15 Ta1 2.573233 1_555
Br15 Nb2 2.604080 1_555
Br16 Ta2 2.580495 1_555
Br16 Nb2 2.598154 1_555
Br17 Ta2 2.584975 1_555
Br17 Ta0 2.590148 1_555
