# generated using pymatgen
data_ScHg3
_symmetry_space_group_name_H-M   'P 1'
_cell_length_a   6.42978910
_cell_length_b   6.42978837
_cell_length_c   4.83471501
_cell_angle_alpha   90.00000000
_cell_angle_beta   90.00000000
_cell_angle_gamma   119.99999843
_symmetry_Int_Tables_number   1
_chemical_formula_structural   ScHg3
_chemical_formula_sum   'Sc2 Hg6'
_cell_volume   173.09914561
_cell_formula_units_Z   2
loop_
 _symmetry_equiv_pos_site_id
 _symmetry_equiv_pos_as_xyz
  1  'x, y, z'
loop_
 _atom_site_type_symbol
 _atom_site_label
 _atom_site_symmetry_multiplicity
 _atom_site_fract_x
 _atom_site_fract_y
 _atom_site_fract_z
 _atom_site_occupancy
  Sc  Sc0  1  0.66666700  0.33333300  0.75000000  1
  Sc  Sc1  1  0.33333300  0.66666700  0.25000000  1
  Hg  Hg0  1  0.66140179  0.83070140  0.75000000  1
  Hg  Hg1  1  0.33859821  0.16929860  0.25000000  1
  Hg  Hg2  1  0.83070140  0.16929860  0.25000000  1
  Hg  Hg3  1  0.16929860  0.33859821  0.75000000  1
  Hg  Hg4  1  0.16929860  0.83070140  0.75000000  1
  Hg  Hg5  1  0.83070140  0.66140179  0.25000000  1
loop_
_geom_bond_atom_site_label_1
_geom_bond_atom_site_label_2
_geom_bond_distance
_geom_bond_site_symmetry_2
Hg0 Sc1 3.029989 1_555
Hg0 Sc1 3.029989 1_556
Hg0 Hg2 3.065692 1_565
Hg0 Hg2 3.065692 1_566
Hg0 Hg5 3.065699 1_556
Hg0 Hg5 3.065699 1_555
Hg0 Hg3 3.164120 1_555
Hg0 Hg4 3.164120 1_555
Hg0 Sc0 3.215021 1_565
Hg0 Sc0 3.215034 1_555
Hg0 Hg3 3.265669 1_665
Hg0 Hg4 3.265669 1_655
Hg1 Sc0 3.029989 1_555
Hg1 Sc0 3.029989 1_554
Hg1 Hg4 3.065692 1_545
Hg1 Hg4 3.065692 1_544
Hg1 Hg3 3.065699 1_555
Hg1 Hg3 3.065699 1_554
Hg1 Hg5 3.164120 1_555
Hg1 Hg2 3.164120 1_555
Hg1 Sc1 3.215021 1_545
Hg1 Sc1 3.215034 1_555
Hg1 Hg5 3.265669 1_445
Hg1 Hg2 3.265669 1_455
Hg2 Sc0 3.029989 1_555
Hg2 Sc0 3.029989 1_554
Hg2 Hg3 3.065692 1_654
Hg2 Hg3 3.065692 1_655
Hg2 Hg5 3.164119 1_555
Hg2 Sc1 3.215028 1_545
Hg2 Sc1 3.215028 1_655
Hg2 Hg5 3.265669 1_545
Hg3 Sc1 3.029989 1_556
Hg3 Sc1 3.029989 1_555
Hg3 Hg4 3.164119 1_555
Hg3 Sc0 3.215022 1_455
Hg3 Sc0 3.215035 1_555
Hg3 Hg4 3.265669 1_545
Hg4 Sc1 3.029989 1_555
Hg4 Sc1 3.029989 1_556
Hg4 Hg5 3.065692 1_455
Hg4 Hg5 3.065692 1_456
Hg4 Sc0 3.215028 1_565
Hg4 Sc0 3.215028 1_455
Hg5 Sc0 3.029989 1_555
Hg5 Sc0 3.029989 1_554
Hg5 Sc1 3.215022 1_655
Hg5 Sc1 3.215035 1_555
