# generated using pymatgen
data_Ca8Mn2CuN8
_symmetry_space_group_name_H-M   'P 1'
_cell_length_a   9.22489810
_cell_length_b   9.22489816
_cell_length_c   7.09787490
_cell_angle_alpha   75.10960534
_cell_angle_beta   75.10960777
_cell_angle_gamma   31.26787643
_symmetry_Int_Tables_number   1
_chemical_formula_structural   Ca8Mn2CuN8
_chemical_formula_sum   'Ca8 Mn2 Cu1 N8'
_cell_volume   302.14274786
_cell_formula_units_Z   1
loop_
 _symmetry_equiv_pos_site_id
 _symmetry_equiv_pos_as_xyz
  1  'x, y, z'
loop_
 _atom_site_type_symbol
 _atom_site_label
 _atom_site_symmetry_multiplicity
 _atom_site_fract_x
 _atom_site_fract_y
 _atom_site_fract_z
 _atom_site_occupancy
  Ca  Ca0  1  0.40767468  0.40767468  0.97332360  1
  Ca  Ca1  1  0.33632663  0.33632663  0.46644164  1
  Ca  Ca2  1  0.97233677  0.97233677  0.25096385  1
  Ca  Ca3  1  0.20113498  0.20113498  0.18926912  1
  Ca  Ca4  1  0.79886502  0.79886502  0.81073088  1
  Ca  Ca5  1  0.02766323  0.02766323  0.74903615  1
  Ca  Ca6  1  0.66367337  0.66367337  0.53355836  1
  Ca  Ca7  1  0.59232532  0.59232532  0.02667640  1
  Mn  Mn0  1  0.81140749  0.81140749  0.21192022  1
  Mn  Mn1  1  0.18859251  0.18859251  0.78807978  1
  Cu  Cu0  1  0.50000000  0.50000000  0.50000000  1
  N  N0  1  0.28160030  0.28160030  0.82313857  1
  N  N1  1  0.82564938  0.82564938  0.44145731  1
  N  N2  1  0.10652117  0.10652117  0.99483483  1
  N  N3  1  0.89347883  0.89347883  0.00516517  1
  N  N4  1  0.17435062  0.17435062  0.55854269  1
  N  N5  1  0.47142142  0.47142142  0.26747897  1
  N  N6  1  0.71839970  0.71839970  0.17686143  1
  N  N7  1  0.52857858  0.52857858  0.73252103  1
loop_
_geom_bond_atom_site_label_1
_geom_bond_atom_site_label_2
_geom_bond_distance
_geom_bond_site_symmetry_2
Ca0 N7 2.361420 1_555
Ca0 N3 2.502912 1_546
Ca0 N3 2.502912 1_456
Ca0 N5 2.627556 1_556
Ca0 N0 2.725481 1_555
Ca1 N5 2.438557 1_555
Ca1 N0 2.457966 1_555
Ca1 N1 2.503136 1_455
Ca1 N1 2.503136 1_545
Ca1 N4 2.775861 1_555
Ca2 N5 2.488631 1_655
Ca2 N5 2.488631 1_565
Ca2 N3 2.512247 1_555
Ca2 N2 2.583751 1_664
Ca2 N1 2.596139 1_555
Ca3 N2 2.443061 1_554
Ca3 N6 2.503543 1_455
Ca3 N6 2.503543 1_545
Ca3 N4 2.535889 1_555
Ca3 N0 2.610475 1_554
Ca4 N3 2.443061 1_556
Ca4 N0 2.503543 1_655
Ca4 N0 2.503543 1_565
Ca4 N1 2.535889 1_555
Ca4 N6 2.610475 1_556
Ca5 N7 2.488631 1_455
Ca5 N7 2.488631 1_545
Ca5 N2 2.512247 1_555
Ca5 N3 2.583751 1_446
Ca5 N4 2.596139 1_555
Ca6 N7 2.438557 1_555
Ca6 N6 2.457966 1_555
Ca6 N4 2.503136 1_655
Ca6 N4 2.503136 1_565
Ca6 N1 2.775861 1_555
Ca7 N5 2.361420 1_555
Ca7 N2 2.502912 1_564
Ca7 N2 2.502912 1_654
Ca7 N7 2.627556 1_554
Ca7 N6 2.725481 1_555
Mn0 N1 1.714182 1_555
Mn0 N6 1.735540 1_555
Mn0 N3 1.771402 1_555
Mn1 N4 1.714182 1_555
Mn1 N0 1.735540 1_555
Mn1 N2 1.771402 1_555
Cu0 N7 1.851728 1_555
Cu0 N5 1.851728 1_555
