# generated using pymatgen
data_CsK2As2Pd3
_symmetry_space_group_name_H-M   'P 1'
_cell_length_a   7.93473884
_cell_length_b   7.93473802
_cell_length_c   7.93473906
_cell_angle_alpha   42.97225775
_cell_angle_beta   42.97226433
_cell_angle_gamma   42.97226170
_symmetry_Int_Tables_number   1
_chemical_formula_structural   CsK2As2Pd3
_chemical_formula_sum   'Cs1 K2 As2 Pd3'
_cell_volume   210.38239548
_cell_formula_units_Z   1
loop_
 _symmetry_equiv_pos_site_id
 _symmetry_equiv_pos_as_xyz
  1  'x, y, z'
loop_
 _atom_site_type_symbol
 _atom_site_label
 _atom_site_symmetry_multiplicity
 _atom_site_fract_x
 _atom_site_fract_y
 _atom_site_fract_z
 _atom_site_occupancy
  Cs  Cs0  1  0.50000000  0.50000000  0.50000000  1
  K  K0  1  0.08340534  0.08340534  0.08340534  1
  K  K1  1  0.91659466  0.91659466  0.91659466  1
  As  As0  1  0.74924406  0.74924406  0.74924406  1
  As  As1  1  0.25075594  0.25075594  0.25075594  1
  Pd  Pd0  1  0.50000000  0.50000000  0.00000000  1
  Pd  Pd1  1  0.50000000  0.00000000  0.50000000  1
  Pd  Pd2  1  0.00000000  0.50000000  0.50000000  1
loop_
_geom_bond_atom_site_label_1
_geom_bond_atom_site_label_2
_geom_bond_distance
_geom_bond_site_symmetry_2
Cs0 K1 3.806268 1_554
Cs0 K0 3.806268 1_556
Cs0 K1 3.806268 1_545
Cs0 K0 3.806268 1_565
Cs0 K1 3.806269 1_455
Cs0 K0 3.806269 1_655
Cs0 Pd1 3.967369 1_555
Cs0 Pd1 3.967369 1_565
Cs0 Pd2 3.967369 1_555
Cs0 Pd2 3.967369 1_655
Cs0 Pd0 3.967370 1_556
Cs0 Pd0 3.967370 1_555
K0 Pd2 3.418086 1_545
K0 Pd0 3.418086 1_545
K0 Pd2 3.418086 1_554
K0 Pd0 3.418086 1_455
K0 Pd1 3.418086 1_455
K0 Pd1 3.418086 1_554
K1 Pd2 3.418086 1_665
K1 Pd0 3.418086 1_566
K1 Pd2 3.418086 1_656
K1 Pd0 3.418086 1_656
K1 Pd1 3.418086 1_665
K1 Pd1 3.418086 1_566
As0 Pd0 2.447100 1_556
As0 Pd1 2.447101 1_565
As0 Pd2 2.447101 1_655
As0 K0 3.355958 1_656
As0 K0 3.355959 1_665
As0 K0 3.355959 1_566
As0 K1 3.609817 1_555
As0 Cs0 3.814727 1_565
As0 Cs0 3.814728 1_556
As0 Cs0 3.814728 1_655
As1 Pd0 2.447100 1_555
As1 Pd1 2.447101 1_555
As1 Pd2 2.447101 1_555
As1 K1 3.355958 1_454
As1 K1 3.355959 1_445
As1 K1 3.355959 1_544
As1 K0 3.609817 1_555
As1 Cs0 3.814727 1_545
As1 Cs0 3.814728 1_554
As1 Cs0 3.814728 1_455
Pd0 Pd1 2.906304 1_564
Pd0 Pd1 2.906304 1_555
Pd0 Pd2 2.906305 1_555
Pd0 Pd2 2.906305 1_654
Pd1 Pd2 2.906304 1_555
Pd1 Pd2 2.906304 1_645
