# generated using pymatgen
data_Cs6GeWSe8
_symmetry_space_group_name_H-M   'P 1'
_cell_length_a   10.27261621
_cell_length_b   10.39544481
_cell_length_c   11.85268678
_cell_angle_alpha   90.00000000
_cell_angle_beta   90.00000000
_cell_angle_gamma   90.00000000
_symmetry_Int_Tables_number   1
_chemical_formula_structural   Cs6GeWSe8
_chemical_formula_sum   'Cs12 Ge2 W2 Se16'
_cell_volume   1265.72963326
_cell_formula_units_Z   2
loop_
 _symmetry_equiv_pos_site_id
 _symmetry_equiv_pos_as_xyz
  1  'x, y, z'
loop_
 _atom_site_type_symbol
 _atom_site_label
 _atom_site_symmetry_multiplicity
 _atom_site_fract_x
 _atom_site_fract_y
 _atom_site_fract_z
 _atom_site_occupancy
  Cs  Cs0  1  0.54198453  0.20244441  0.05342349  1
  Cs  Cs1  1  0.04198453  0.29755559  0.44657651  1
  Cs  Cs2  1  0.45404295  0.79468147  0.52423602  1
  Cs  Cs3  1  0.95404295  0.70531853  0.97576398  1
  Cs  Cs4  1  0.45404295  0.79468147  0.97576398  1
  Cs  Cs5  1  0.95404295  0.70531853  0.52423602  1
  Cs  Cs6  1  0.54198453  0.20244441  0.44657651  1
  Cs  Cs7  1  0.04198453  0.29755559  0.05342349  1
  Cs  Cs8  1  0.65066364  0.41252935  0.75000000  1
  Cs  Cs9  1  0.15066364  0.08747065  0.75000000  1
  Cs  Cs10  1  0.35829729  0.58272646  0.25000000  1
  Cs  Cs11  1  0.85829729  0.91727354  0.25000000  1
  Ge  Ge0  1  0.27558339  0.02373561  0.25000000  1
  Ge  Ge1  1  0.77558339  0.47626439  0.25000000  1
  W  W0  1  0.72253389  0.98080840  0.75000000  1
  W  W1  1  0.22253389  0.51919160  0.75000000  1
  Se  Se0  1  0.83310163  0.04659175  0.58974976  1
  Se  Se1  1  0.33310163  0.45340825  0.91025024  1
  Se  Se2  1  0.16613355  0.96139590  0.08118561  1
  Se  Se3  1  0.66613355  0.53860410  0.41881439  1
  Se  Se4  1  0.16613355  0.96139590  0.41881439  1
  Se  Se5  1  0.66613355  0.53860410  0.08118561  1
  Se  Se6  1  0.83310163  0.04659175  0.91025024  1
  Se  Se7  1  0.33310163  0.45340825  0.58974976  1
  Se  Se8  1  0.51338237  0.06911166  0.75000000  1
  Se  Se9  1  0.01338237  0.43088834  0.75000000  1
  Se  Se10  1  0.48710241  0.92984283  0.25000000  1
  Se  Se11  1  0.98710241  0.57015717  0.25000000  1
  Se  Se12  1  0.70869678  0.75790642  0.75000000  1
  Se  Se13  1  0.20869678  0.74209358  0.75000000  1
  Se  Se14  1  0.29321492  0.25132808  0.25000000  1
  Se  Se15  1  0.79321492  0.24867192  0.25000000  1
loop_
_geom_bond_atom_site_label_1
_geom_bond_atom_site_label_2
_geom_bond_distance
_geom_bond_site_symmetry_2
Cs0 Se14 3.495369 1_555
Cs0 Se15 3.510006 1_555
Cs0 Se10 3.711748 1_545
Cs0 Se5 3.734500 1_555
Cs0 Se1 3.780261 1_554
Cs0 Se6 3.801049 1_554
Cs0 Se8 3.865417 1_554
Cs1 Se15 3.495369 1_455
Cs1 Se14 3.510006 1_555
Cs1 Se11 3.711748 1_455
Cs1 Se4 3.734500 1_545
Cs1 Se0 3.780261 1_455
Cs1 Se7 3.801049 1_555
Cs1 Se9 3.865417 1_555
Cs2 Se10 3.557366 1_555
Cs2 Se4 3.648583 1_555
Cs2 Se3 3.659866 1_555
Cs2 Se13 3.716382 1_555
Cs2 Se12 3.761634 1_555
Cs2 Se7 3.838304 1_555
Cs2 Se8 3.958620 1_565
Cs3 Se11 3.557366 1_556
Cs3 Se5 3.648583 1_556
Cs3 Se2 3.659866 1_656
Cs3 Se12 3.716382 1_555
Cs3 Se13 3.761634 1_655
Cs3 Se6 3.838304 1_565
Cs3 Se9 3.958620 1_655
Cs4 Se10 3.557366 1_556
Cs4 Se2 3.648583 1_556
Cs4 Se5 3.659866 1_556
Cs4 Se13 3.716382 1_555
Cs4 Se12 3.761634 1_555
Cs4 Se1 3.838304 1_555
Cs4 Se8 3.958620 1_565
Cs5 Se11 3.557366 1_555
Cs5 Se3 3.648583 1_555
Cs5 Se4 3.659866 1_655
Cs5 Se12 3.716382 1_555
Cs5 Se13 3.761634 1_655
Cs5 Se0 3.838304 1_565
Cs5 Se9 3.958620 1_655
Cs6 Se14 3.495369 1_555
Cs6 Se15 3.510006 1_555
Cs6 Se10 3.711748 1_545
Cs6 Se3 3.734500 1_555
Cs6 Se7 3.780261 1_555
Cs6 Se0 3.801049 1_555
Cs6 Se8 3.865417 1_555
Cs7 Se15 3.495369 1_455
Cs7 Se14 3.510006 1_555
Cs7 Se11 3.711748 1_455
Cs7 Se2 3.734500 1_545
Cs7 Se6 3.780261 1_454
Cs7 Se1 3.801049 1_554
Cs7 Se9 3.865417 1_554
Cs8 Se12 3.639505 1_555
Cs8 Se9 3.730955 1_655
Cs8 Se1 3.798709 1_555
Cs8 Se7 3.798709 1_555
Cs8 Se8 3.838427 1_555
Cs8 Se5 4.141498 1_556
Cs8 Se3 4.141498 1_555
Cs9 Se13 3.639505 1_545
Cs9 Se8 3.730955 1_555
Cs9 Se6 3.798709 1_455
Cs9 Se0 3.798709 1_455
Cs9 Se9 3.838427 1_555
Cs9 Se2 4.141498 1_546
Cs9 Se4 4.141498 1_545
Cs10 Se14 3.509307 1_555
Cs10 Se3 3.770150 1_555
Cs10 Se5 3.770150 1_555
Cs10 Se11 3.815381 1_455
Cs10 Se10 3.843375 1_555
Cs10 Se7 4.253292 1_555
Cs10 Se1 4.253292 1_554
Cs11 Se15 3.509307 1_565
Cs11 Se4 3.770150 1_655
Cs11 Se2 3.770150 1_655
Cs11 Se10 3.815381 1_555
Cs11 Se11 3.843375 1_555
Cs11 Se0 4.253292 1_565
Cs11 Se6 4.253292 1_564
Ge0 Se14 2.372848 1_555
Ge0 Se10 2.382012 1_545
Ge0 Se4 2.384893 1_545
Ge0 Se2 2.384893 1_545
Ge1 Se15 2.372848 1_555
Ge1 Se11 2.382012 1_555
Ge1 Se3 2.384893 1_555
Ge1 Se5 2.384893 1_555
Se0 W0 2.316342 1_545
Se1 W1 2.316342 1_555
Se6 W0 2.316342 1_545
Se7 W1 2.316342 1_555
Se8 W0 2.336414 1_545
Se9 W1 2.336414 1_555
Se12 W0 2.321521 1_555
Se13 W1 2.321521 1_555
