# generated using pymatgen
data_ScCd3
_symmetry_space_group_name_H-M   'P 1'
_cell_length_a   6.35416496
_cell_length_b   6.35416669
_cell_length_c   4.84749721
_cell_angle_alpha   90.00000000
_cell_angle_beta   90.00000000
_cell_angle_gamma   120.00000710
_symmetry_Int_Tables_number   1
_chemical_formula_structural   ScCd3
_chemical_formula_sum   'Sc2 Cd6'
_cell_volume   169.49826510
_cell_formula_units_Z   2
loop_
 _symmetry_equiv_pos_site_id
 _symmetry_equiv_pos_as_xyz
  1  'x, y, z'
loop_
 _atom_site_type_symbol
 _atom_site_label
 _atom_site_symmetry_multiplicity
 _atom_site_fract_x
 _atom_site_fract_y
 _atom_site_fract_z
 _atom_site_occupancy
  Sc  Sc0  1  0.33333300  0.66666700  0.25000000  1
  Sc  Sc1  1  0.66666700  0.33333300  0.75000000  1
  Cd  Cd0  1  0.83410479  0.66820857  0.25000000  1
  Cd  Cd1  1  0.16589521  0.83410479  0.75000000  1
  Cd  Cd2  1  0.66820857  0.83410479  0.75000000  1
  Cd  Cd3  1  0.33179143  0.16589521  0.25000000  1
  Cd  Cd4  1  0.83410479  0.16589521  0.25000000  1
  Cd  Cd5  1  0.16589521  0.33179143  0.75000000  1
loop_
_geom_bond_atom_site_label_1
_geom_bond_atom_site_label_2
_geom_bond_distance
_geom_bond_site_symmetry_2
Cd0 Cd1 3.034485 1_654
Cd0 Cd1 3.034485 1_655
Cd0 Cd2 3.034492 1_554
Cd0 Cd2 3.034492 1_555
Cd0 Sc1 3.044730 1_555
Cd0 Sc1 3.044730 1_554
Cd0 Cd3 3.162383 1_665
Cd0 Cd4 3.162384 1_565
Cd0 Sc0 3.177087 1_655
Cd0 Sc0 3.177100 1_555
Cd0 Cd3 3.191782 1_555
Cd0 Cd4 3.191783 1_555
Cd1 Cd3 3.034485 1_566
Cd1 Cd3 3.034485 1_565
Cd1 Sc0 3.044730 1_555
Cd1 Sc0 3.044730 1_556
Cd1 Cd2 3.162383 1_455
Cd1 Cd5 3.162384 1_565
Cd1 Sc1 3.177094 1_565
Cd1 Sc1 3.177094 1_455
Cd1 Cd2 3.191782 1_555
Cd1 Cd5 3.191783 1_555
Cd2 Cd4 3.034485 1_566
Cd2 Cd4 3.034485 1_565
Cd2 Sc0 3.044730 1_555
Cd2 Sc0 3.044730 1_556
Cd2 Cd5 3.162383 1_665
Cd2 Sc1 3.177088 1_565
Cd2 Sc1 3.177101 1_555
Cd2 Cd5 3.191782 1_555
Cd3 Cd5 3.034492 1_555
Cd3 Cd5 3.034492 1_554
Cd3 Sc1 3.044730 1_554
Cd3 Sc1 3.044730 1_555
Cd3 Cd4 3.162383 1_455
Cd3 Sc0 3.177088 1_545
Cd3 Sc0 3.177101 1_555
Cd3 Cd4 3.191782 1_555
Cd4 Cd5 3.034485 1_654
Cd4 Cd5 3.034485 1_655
Cd4 Sc1 3.044730 1_554
Cd4 Sc1 3.044730 1_555
Cd4 Sc0 3.177094 1_545
Cd4 Sc0 3.177094 1_655
Cd5 Sc0 3.044730 1_555
Cd5 Sc0 3.044730 1_556
Cd5 Sc1 3.177087 1_455
Cd5 Sc1 3.177100 1_555
