# generated using pymatgen
data_Lu2ScBe2Rh5
_symmetry_space_group_name_H-M   'P 1'
_cell_length_a   19.33850126
_cell_length_b   19.33850126
_cell_length_c   6.36354702
_cell_angle_alpha   90.00000000
_cell_angle_beta   90.00000000
_cell_angle_gamma   90.00000000
_symmetry_Int_Tables_number   1
_chemical_formula_structural   Lu2ScBe2Rh5
_chemical_formula_sum   'Lu32 Sc16 Be32 Rh80'
_cell_volume   2379.82424115
_cell_formula_units_Z   16
loop_
 _symmetry_equiv_pos_site_id
 _symmetry_equiv_pos_as_xyz
  1  'x, y, z'
loop_
 _atom_site_type_symbol
 _atom_site_label
 _atom_site_symmetry_multiplicity
 _atom_site_fract_x
 _atom_site_fract_y
 _atom_site_fract_z
 _atom_site_occupancy
  Lu  Lu0_0  1  0.41249989  0.16249989  0.00000000  1
  Lu  Lu0_1  1  0.41249989  0.16249989  0.50000000  1
  Lu  Lu0_2  1  0.41249989  0.66249989  0.00000000  1
  Lu  Lu0_3  1  0.41249989  0.66249989  0.50000000  1
  Lu  Lu0_4  1  0.91249989  0.16249989  0.00000000  1
  Lu  Lu0_5  1  0.91249989  0.16249989  0.50000000  1
  Lu  Lu0_6  1  0.91249989  0.66249989  0.00000000  1
  Lu  Lu0_7  1  0.91249989  0.66249989  0.50000000  1
  Lu  Lu1_0  1  0.16249989  0.08750011  0.00000000  1
  Lu  Lu1_1  1  0.16249989  0.08750011  0.50000000  1
  Lu  Lu1_2  1  0.16249989  0.58750011  0.00000000  1
  Lu  Lu1_3  1  0.16249989  0.58750011  0.50000000  1
  Lu  Lu1_4  1  0.66249989  0.08750011  0.00000000  1
  Lu  Lu1_5  1  0.66249989  0.08750011  0.50000000  1
  Lu  Lu1_6  1  0.66249989  0.58750011  0.00000000  1
  Lu  Lu1_7  1  0.66249989  0.58750011  0.50000000  1
  Lu  Lu2_0  1  0.33750011  0.41249989  0.00000000  1
  Lu  Lu2_1  1  0.33750011  0.41249989  0.50000000  1
  Lu  Lu2_2  1  0.33750011  0.91249989  0.00000000  1
  Lu  Lu2_3  1  0.33750011  0.91249989  0.50000000  1
  Lu  Lu2_4  1  0.83750011  0.41249989  0.00000000  1
  Lu  Lu2_5  1  0.83750011  0.41249989  0.50000000  1
  Lu  Lu2_6  1  0.83750011  0.91249989  0.00000000  1
  Lu  Lu2_7  1  0.83750011  0.91249989  0.50000000  1
  Lu  Lu3_0  1  0.08750011  0.33750011  0.00000000  1
  Lu  Lu3_1  1  0.08750011  0.33750011  0.50000000  1
  Lu  Lu3_2  1  0.08750011  0.83750011  0.00000000  1
  Lu  Lu3_3  1  0.08750011  0.83750011  0.50000000  1
  Lu  Lu3_4  1  0.58750011  0.33750011  0.00000000  1
  Lu  Lu3_5  1  0.58750011  0.33750011  0.50000000  1
  Lu  Lu3_6  1  0.58750011  0.83750011  0.00000000  1
  Lu  Lu3_7  1  0.58750011  0.83750011  0.50000000  1
  Sc  Sc0_0  1  0.00000000  0.00000000  0.00000000  1
  Sc  Sc0_1  1  0.00000000  0.00000000  0.50000000  1
  Sc  Sc0_2  1  0.00000000  0.50000000  0.00000000  1
  Sc  Sc0_3  1  0.00000000  0.50000000  0.50000000  1
  Sc  Sc0_4  1  0.50000000  0.00000000  0.00000000  1
  Sc  Sc0_5  1  0.50000000  0.00000000  0.50000000  1
  Sc  Sc0_6  1  0.50000000  0.50000000  0.00000000  1
  Sc  Sc0_7  1  0.50000000  0.50000000  0.50000000  1
  Sc  Sc1_0  1  0.25000000  0.25000000  0.00000000  1
  Sc  Sc1_1  1  0.25000000  0.25000000  0.50000000  1
  Sc  Sc1_2  1  0.25000000  0.75000000  0.00000000  1
  Sc  Sc1_3  1  0.25000000  0.75000000  0.50000000  1
  Sc  Sc1_4  1  0.75000000  0.25000000  0.00000000  1
  Sc  Sc1_5  1  0.75000000  0.25000000  0.50000000  1
  Sc  Sc1_6  1  0.75000000  0.75000000  0.00000000  1
  Sc  Sc1_7  1  0.75000000  0.75000000  0.50000000  1
  Be  Be0_0  1  0.31082387  0.06082387  0.00000000  1
  Be  Be0_1  1  0.31082387  0.06082387  0.50000000  1
  Be  Be0_2  1  0.31082387  0.56082387  0.00000000  1
  Be  Be0_3  1  0.31082387  0.56082387  0.50000000  1
  Be  Be0_4  1  0.81082387  0.06082387  0.00000000  1
  Be  Be0_5  1  0.81082387  0.06082387  0.50000000  1
  Be  Be0_6  1  0.81082387  0.56082387  0.00000000  1
  Be  Be0_7  1  0.81082387  0.56082387  0.50000000  1
  Be  Be1_0  1  0.06082387  0.18917613  0.00000000  1
  Be  Be1_1  1  0.06082387  0.18917613  0.50000000  1
  Be  Be1_2  1  0.06082387  0.68917613  0.00000000  1
  Be  Be1_3  1  0.06082387  0.68917613  0.50000000  1
  Be  Be1_4  1  0.56082387  0.18917613  0.00000000  1
  Be  Be1_5  1  0.56082387  0.18917613  0.50000000  1
  Be  Be1_6  1  0.56082387  0.68917613  0.00000000  1
  Be  Be1_7  1  0.56082387  0.68917613  0.50000000  1
  Be  Be2_0  1  0.43917613  0.31082387  0.00000000  1
  Be  Be2_1  1  0.43917613  0.31082387  0.50000000  1
  Be  Be2_2  1  0.43917613  0.81082387  0.00000000  1
  Be  Be2_3  1  0.43917613  0.81082387  0.50000000  1
  Be  Be2_4  1  0.93917613  0.31082387  0.00000000  1
  Be  Be2_5  1  0.93917613  0.31082387  0.50000000  1
  Be  Be2_6  1  0.93917613  0.81082387  0.00000000  1
  Be  Be2_7  1  0.93917613  0.81082387  0.50000000  1
  Be  Be3_0  1  0.18917613  0.43917613  0.00000000  1
  Be  Be3_1  1  0.18917613  0.43917613  0.50000000  1
  Be  Be3_2  1  0.18917613  0.93917613  0.00000000  1
  Be  Be3_3  1  0.18917613  0.93917613  0.50000000  1
  Be  Be3_4  1  0.68917613  0.43917613  0.00000000  1
  Be  Be3_5  1  0.68917613  0.43917613  0.50000000  1
  Be  Be3_6  1  0.68917613  0.93917613  0.00000000  1
  Be  Be3_7  1  0.68917613  0.93917613  0.50000000  1
  Rh  Rh0_0  1  0.03534538  0.10790885  0.25000000  1
  Rh  Rh0_1  1  0.03534538  0.10790885  0.75000000  1
  Rh  Rh0_2  1  0.03534538  0.60790885  0.25000000  1
  Rh  Rh0_3  1  0.03534538  0.60790885  0.75000000  1
  Rh  Rh0_4  1  0.53534538  0.10790885  0.25000000  1
  Rh  Rh0_5  1  0.53534538  0.10790885  0.75000000  1
  Rh  Rh0_6  1  0.53534538  0.60790885  0.25000000  1
  Rh  Rh0_7  1  0.53534538  0.60790885  0.75000000  1
  Rh  Rh1_0  1  0.10790885  0.46465462  0.25000000  1
  Rh  Rh1_1  1  0.10790885  0.46465462  0.75000000  1
  Rh  Rh1_2  1  0.10790885  0.96465462  0.25000000  1
  Rh  Rh1_3  1  0.10790885  0.96465462  0.75000000  1
  Rh  Rh1_4  1  0.60790885  0.46465462  0.25000000  1
  Rh  Rh1_5  1  0.60790885  0.46465462  0.75000000  1
  Rh  Rh1_6  1  0.60790885  0.96465462  0.25000000  1
  Rh  Rh1_7  1  0.60790885  0.96465462  0.75000000  1
  Rh  Rh2_0  1  0.39209115  0.03534538  0.25000000  1
  Rh  Rh2_1  1  0.39209115  0.03534538  0.75000000  1
  Rh  Rh2_2  1  0.39209115  0.53534538  0.25000000  1
  Rh  Rh2_3  1  0.39209115  0.53534538  0.75000000  1
  Rh  Rh2_4  1  0.89209115  0.03534538  0.25000000  1
  Rh  Rh2_5  1  0.89209115  0.03534538  0.75000000  1
  Rh  Rh2_6  1  0.89209115  0.53534538  0.25000000  1
  Rh  Rh2_7  1  0.89209115  0.53534538  0.75000000  1
  Rh  Rh3_0  1  0.46465462  0.39209115  0.25000000  1
  Rh  Rh3_1  1  0.46465462  0.39209115  0.75000000  1
  Rh  Rh3_2  1  0.46465462  0.89209115  0.25000000  1
  Rh  Rh3_3  1  0.46465462  0.89209115  0.75000000  1
  Rh  Rh3_4  1  0.96465462  0.39209115  0.25000000  1
  Rh  Rh3_5  1  0.96465462  0.39209115  0.75000000  1
  Rh  Rh3_6  1  0.96465462  0.89209115  0.25000000  1
  Rh  Rh3_7  1  0.96465462  0.89209115  0.75000000  1
  Rh  Rh4_0  1  0.21465462  0.35790885  0.25000000  1
  Rh  Rh4_1  1  0.21465462  0.35790885  0.75000000  1
  Rh  Rh4_2  1  0.21465462  0.85790885  0.25000000  1
  Rh  Rh4_3  1  0.21465462  0.85790885  0.75000000  1
  Rh  Rh4_4  1  0.71465462  0.35790885  0.25000000  1
  Rh  Rh4_5  1  0.71465462  0.35790885  0.75000000  1
  Rh  Rh4_6  1  0.71465462  0.85790885  0.25000000  1
  Rh  Rh4_7  1  0.71465462  0.85790885  0.75000000  1
  Rh  Rh5_0  1  0.28534538  0.14209115  0.25000000  1
  Rh  Rh5_1  1  0.28534538  0.14209115  0.75000000  1
  Rh  Rh5_2  1  0.28534538  0.64209115  0.25000000  1
  Rh  Rh5_3  1  0.28534538  0.64209115  0.75000000  1
  Rh  Rh5_4  1  0.78534538  0.14209115  0.25000000  1
  Rh  Rh5_5  1  0.78534538  0.14209115  0.75000000  1
  Rh  Rh5_6  1  0.78534538  0.64209115  0.25000000  1
  Rh  Rh5_7  1  0.78534538  0.64209115  0.75000000  1
  Rh  Rh6_0  1  0.35790885  0.28534538  0.25000000  1
  Rh  Rh6_1  1  0.35790885  0.28534538  0.75000000  1
  Rh  Rh6_2  1  0.35790885  0.78534538  0.25000000  1
  Rh  Rh6_3  1  0.35790885  0.78534538  0.75000000  1
  Rh  Rh6_4  1  0.85790885  0.28534538  0.25000000  1
  Rh  Rh6_5  1  0.85790885  0.28534538  0.75000000  1
  Rh  Rh6_6  1  0.85790885  0.78534538  0.25000000  1
  Rh  Rh6_7  1  0.85790885  0.78534538  0.75000000  1
  Rh  Rh7_0  1  0.14209115  0.21465462  0.25000000  1
  Rh  Rh7_1  1  0.14209115  0.21465462  0.75000000  1
  Rh  Rh7_2  1  0.14209115  0.71465462  0.25000000  1
  Rh  Rh7_3  1  0.14209115  0.71465462  0.75000000  1
  Rh  Rh7_4  1  0.64209115  0.21465462  0.25000000  1
  Rh  Rh7_5  1  0.64209115  0.21465462  0.75000000  1
  Rh  Rh7_6  1  0.64209115  0.71465462  0.25000000  1
  Rh  Rh7_7  1  0.64209115  0.71465462  0.75000000  1
  Rh  Rh8_0  1  0.25000000  0.00000000  0.25000000  1
  Rh  Rh8_1  1  0.25000000  0.00000000  0.75000000  1
  Rh  Rh8_2  1  0.25000000  0.50000000  0.25000000  1
  Rh  Rh8_3  1  0.25000000  0.50000000  0.75000000  1
  Rh  Rh8_4  1  0.75000000  0.00000000  0.25000000  1
  Rh  Rh8_5  1  0.75000000  0.00000000  0.75000000  1
  Rh  Rh8_6  1  0.75000000  0.50000000  0.25000000  1
  Rh  Rh8_7  1  0.75000000  0.50000000  0.75000000  1
  Rh  Rh9_0  1  0.00000000  0.25000000  0.25000000  1
  Rh  Rh9_1  1  0.00000000  0.25000000  0.75000000  1
  Rh  Rh9_2  1  0.00000000  0.75000000  0.25000000  1
  Rh  Rh9_3  1  0.00000000  0.75000000  0.75000000  1
  Rh  Rh9_4  1  0.50000000  0.25000000  0.25000000  1
  Rh  Rh9_5  1  0.50000000  0.25000000  0.75000000  1
  Rh  Rh9_6  1  0.50000000  0.75000000  0.25000000  1
  Rh  Rh9_7  1  0.50000000  0.75000000  0.75000000  1
loop_
_geom_bond_atom_site_label_1
_geom_bond_atom_site_label_2
_geom_bond_distance
_geom_bond_site_symmetry_2
Lu0_0 Rh9_5 2.873581 1_554
Lu0_0 Rh9_4 2.873581 1_555
Lu0_0 Rh5_0 2.955209 1_555
Lu0_0 Rh5_1 2.955209 1_554
Lu0_0 Rh2_0 2.955209 1_555
Lu0_0 Rh2_1 2.955209 1_554
Lu0_0 Rh6_1 3.047810 1_554
Lu0_0 Rh0_5 3.047810 1_554
Lu0_0 Rh0_4 3.047810 1_555
Lu0_0 Rh6_0 3.047810 1_555
Lu0_0 Lu0_1 3.181774 1_554
Lu0_0 Lu0_1 3.181774 1_555
Lu0_1 Rh9_5 2.873581 1_555
Lu0_1 Rh9_4 2.873581 1_555
Lu0_1 Rh2_1 2.955209 1_555
Lu0_1 Rh5_0 2.955209 1_555
Lu0_1 Rh5_1 2.955209 1_555
Lu0_1 Rh2_0 2.955209 1_555
Lu0_1 Rh0_4 3.047810 1_555
Lu0_1 Rh6_0 3.047810 1_555
Lu0_1 Rh0_5 3.047810 1_555
Lu0_1 Rh6_1 3.047810 1_555
Lu0_2 Rh9_7 2.873581 1_554
Lu0_2 Rh9_6 2.873581 1_555
Lu0_2 Rh2_2 2.955209 1_555
Lu0_2 Rh2_3 2.955209 1_554
Lu0_2 Rh5_2 2.955209 1_555
Lu0_2 Rh5_3 2.955209 1_554
Lu0_2 Rh6_3 3.047810 1_554
Lu0_2 Rh6_2 3.047810 1_555
Lu0_2 Rh0_6 3.047810 1_555
Lu0_2 Rh0_7 3.047810 1_554
Lu0_2 Lu0_3 3.181774 1_554
Lu0_2 Lu0_3 3.181774 1_555
Lu0_3 Rh9_6 2.873581 1_555
Lu0_3 Rh9_7 2.873581 1_555
Lu0_3 Rh2_2 2.955209 1_555
Lu0_3 Rh2_3 2.955209 1_555
Lu0_3 Rh5_2 2.955209 1_555
Lu0_3 Rh5_3 2.955209 1_555
Lu0_3 Rh6_2 3.047810 1_555
Lu0_3 Rh6_3 3.047810 1_555
Lu0_3 Rh0_7 3.047810 1_555
Lu0_3 Rh0_6 3.047810 1_555
Lu0_4 Rh9_1 2.873581 1_654
Lu0_4 Rh9_0 2.873581 1_655
Lu0_4 Rh5_5 2.955209 1_554
Lu0_4 Rh5_4 2.955209 1_555
Lu0_4 Rh2_4 2.955209 1_555
Lu0_4 Rh2_5 2.955209 1_554
Lu0_4 Rh0_1 3.047810 1_654
Lu0_4 Rh6_5 3.047810 1_554
Lu0_4 Rh0_0 3.047810 1_655
Lu0_4 Rh6_4 3.047810 1_555
Lu0_4 Lu0_5 3.181774 1_555
Lu0_4 Lu0_5 3.181774 1_554
Lu0_5 Rh9_1 2.873581 1_655
Lu0_5 Rh9_0 2.873581 1_655
Lu0_5 Rh5_5 2.955209 1_555
Lu0_5 Rh5_4 2.955209 1_555
Lu0_5 Rh2_4 2.955209 1_555
Lu0_5 Rh2_5 2.955209 1_555
Lu0_5 Rh6_5 3.047810 1_555
Lu0_5 Rh0_1 3.047810 1_655
Lu0_5 Rh0_0 3.047810 1_655
Lu0_5 Rh6_4 3.047810 1_555
Lu0_6 Rh9_3 2.873581 1_654
Lu0_6 Rh9_2 2.873581 1_655
Lu0_6 Rh5_7 2.955209 1_554
Lu0_6 Rh2_6 2.955209 1_555
Lu0_6 Rh2_7 2.955209 1_554
Lu0_6 Rh5_6 2.955209 1_555
Lu0_6 Rh6_7 3.047810 1_554
Lu0_6 Rh6_6 3.047810 1_555
Lu0_6 Rh0_3 3.047810 1_654
Lu0_6 Rh0_2 3.047810 1_655
Lu0_6 Lu0_7 3.181774 1_555
Lu0_6 Lu0_7 3.181774 1_554
Lu0_7 Rh9_2 2.873581 1_655
Lu0_7 Rh9_3 2.873581 1_655
Lu0_7 Rh2_6 2.955209 1_555
Lu0_7 Rh2_7 2.955209 1_555
Lu0_7 Rh5_6 2.955209 1_555
Lu0_7 Rh5_7 2.955209 1_555
Lu0_7 Rh6_6 3.047810 1_555
Lu0_7 Rh6_7 3.047810 1_555
Lu0_7 Rh0_3 3.047810 1_655
Lu0_7 Rh0_2 3.047810 1_655
Lu1_0 Rh8_0 2.873581 1_555
Lu1_0 Rh8_1 2.873581 1_554
Lu1_0 Rh7_1 2.955209 1_554
Lu1_0 Rh7_0 2.955209 1_555
Lu1_0 Rh0_0 2.955209 1_555
Lu1_0 Rh0_1 2.955209 1_554
Lu1_0 Rh5_0 3.047810 1_555
Lu1_0 Rh5_1 3.047810 1_554
Lu1_0 Rh1_2 3.047810 1_545
Lu1_0 Rh1_3 3.047810 1_544
Lu1_0 Lu1_1 3.181774 1_554
Lu1_0 Lu1_1 3.181774 1_555
Lu1_1 Rh8_0 2.873581 1_555
Lu1_1 Rh8_1 2.873581 1_555
Lu1_1 Rh7_1 2.955209 1_555
Lu1_1 Rh7_0 2.955209 1_555
Lu1_1 Rh0_0 2.955209 1_555
Lu1_1 Rh0_1 2.955209 1_555
Lu1_1 Rh5_0 3.047810 1_555
Lu1_1 Rh5_1 3.047810 1_555
Lu1_1 Rh1_3 3.047810 1_545
Lu1_1 Rh1_2 3.047810 1_545
Lu1_2 Rh8_2 2.873581 1_555
Lu1_2 Rh8_3 2.873581 1_554
Lu1_2 Rh7_3 2.955209 1_554
Lu1_2 Rh7_2 2.955209 1_555
Lu1_2 Rh0_2 2.955209 1_555
Lu1_2 Rh0_3 2.955209 1_554
Lu1_2 Rh5_2 3.047810 1_555
Lu1_2 Rh5_3 3.047810 1_554
Lu1_2 Rh1_0 3.047810 1_555
Lu1_2 Rh1_1 3.047810 1_554
Lu1_2 Lu1_3 3.181774 1_555
Lu1_2 Lu1_3 3.181774 1_554
Lu1_3 Rh8_2 2.873581 1_555
Lu1_3 Rh8_3 2.873581 1_555
Lu1_3 Rh7_3 2.955209 1_555
Lu1_3 Rh7_2 2.955209 1_555
Lu1_3 Rh0_2 2.955209 1_555
Lu1_3 Rh0_3 2.955209 1_555
Lu1_3 Rh5_3 3.047810 1_555
Lu1_3 Rh5_2 3.047810 1_555
Lu1_3 Rh1_1 3.047810 1_555
Lu1_3 Rh1_0 3.047810 1_555
Lu1_4 Rh8_4 2.873581 1_555
Lu1_4 Rh8_5 2.873581 1_554
Lu1_4 Rh7_5 2.955209 1_554
Lu1_4 Rh7_4 2.955209 1_555
Lu1_4 Rh0_5 2.955209 1_554
Lu1_4 Rh0_4 2.955209 1_555
Lu1_4 Rh5_4 3.047810 1_555
Lu1_4 Rh5_5 3.047810 1_554
Lu1_4 Rh1_6 3.047810 1_545
Lu1_4 Rh1_7 3.047810 1_544
Lu1_4 Lu1_5 3.181774 1_555
Lu1_4 Lu1_5 3.181774 1_554
Lu1_5 Rh8_5 2.873581 1_555
Lu1_5 Rh8_4 2.873581 1_555
Lu1_5 Rh7_5 2.955209 1_555
Lu1_5 Rh7_4 2.955209 1_555
Lu1_5 Rh0_5 2.955209 1_555
Lu1_5 Rh0_4 2.955209 1_555
Lu1_5 Rh5_4 3.047810 1_555
Lu1_5 Rh5_5 3.047810 1_555
Lu1_5 Rh1_6 3.047810 1_545
Lu1_5 Rh1_7 3.047810 1_545
Lu1_6 Rh8_6 2.873581 1_555
Lu1_6 Rh8_7 2.873581 1_554
Lu1_6 Rh7_7 2.955209 1_554
Lu1_6 Rh7_6 2.955209 1_555
Lu1_6 Rh0_6 2.955209 1_555
Lu1_6 Rh0_7 2.955209 1_554
Lu1_6 Rh5_6 3.047810 1_555
Lu1_6 Rh5_7 3.047810 1_554
Lu1_6 Rh1_4 3.047810 1_555
Lu1_6 Rh1_5 3.047810 1_554
Lu1_6 Lu1_7 3.181774 1_555
Lu1_6 Lu1_7 3.181774 1_554
Lu1_7 Rh8_6 2.873581 1_555
Lu1_7 Rh8_7 2.873581 1_555
Lu1_7 Rh7_7 2.955209 1_555
Lu1_7 Rh7_6 2.955209 1_555
Lu1_7 Rh0_6 2.955209 1_555
Lu1_7 Rh0_7 2.955209 1_555
Lu1_7 Rh5_6 3.047810 1_555
Lu1_7 Rh5_7 3.047810 1_555
Lu1_7 Rh1_4 3.047810 1_555
Lu1_7 Rh1_5 3.047810 1_555
Lu2_0 Rh8_2 2.873581 1_555
Lu2_0 Rh8_3 2.873581 1_554
Lu2_0 Rh3_1 2.955209 1_554
Lu2_0 Rh3_0 2.955209 1_555
Lu2_0 Rh6_0 2.955209 1_555
Lu2_0 Rh6_1 2.955209 1_554
Lu2_0 Rh2_2 3.047810 1_555
Lu2_0 Rh2_3 3.047810 1_554
Lu2_0 Rh4_1 3.047810 1_554
Lu2_0 Rh4_0 3.047810 1_555
Lu2_0 Lu2_1 3.181774 1_555
Lu2_0 Lu2_1 3.181774 1_554
Lu2_1 Rh8_2 2.873581 1_555
Lu2_1 Rh8_3 2.873581 1_555
Lu2_1 Rh3_0 2.955209 1_555
Lu2_1 Rh3_1 2.955209 1_555
Lu2_1 Rh6_0 2.955209 1_555
Lu2_1 Rh6_1 2.955209 1_555
Lu2_1 Rh2_2 3.047810 1_555
Lu2_1 Rh2_3 3.047810 1_555
Lu2_1 Rh4_1 3.047810 1_555
Lu2_1 Rh4_0 3.047810 1_555
Lu2_2 Rh8_0 2.873581 1_565
Lu2_2 Rh8_1 2.873581 1_564
Lu2_2 Rh3_3 2.955209 1_554
Lu2_2 Rh3_2 2.955209 1_555
Lu2_2 Rh6_2 2.955209 1_555
Lu2_2 Rh6_3 2.955209 1_554
Lu2_2 Rh2_1 3.047810 1_564
Lu2_2 Rh2_0 3.047810 1_565
Lu2_2 Rh4_3 3.047810 1_554
Lu2_2 Rh4_2 3.047810 1_555
Lu2_2 Lu2_3 3.181774 1_554
Lu2_2 Lu2_3 3.181774 1_555
Lu2_3 Rh8_0 2.873581 1_565
Lu2_3 Rh8_1 2.873581 1_565
Lu2_3 Rh3_3 2.955209 1_555
Lu2_3 Rh3_2 2.955209 1_555
Lu2_3 Rh6_2 2.955209 1_555
Lu2_3 Rh6_3 2.955209 1_555
Lu2_3 Rh2_0 3.047810 1_565
Lu2_3 Rh2_1 3.047810 1_565
Lu2_3 Rh4_3 3.047810 1_555
Lu2_3 Rh4_2 3.047810 1_555
Lu2_4 Rh8_6 2.873581 1_555
Lu2_4 Rh8_7 2.873581 1_554
Lu2_4 Rh3_5 2.955209 1_554
Lu2_4 Rh3_4 2.955209 1_555
Lu2_4 Rh6_4 2.955209 1_555
Lu2_4 Rh6_5 2.955209 1_554
Lu2_4 Rh2_6 3.047810 1_555
Lu2_4 Rh2_7 3.047810 1_554
Lu2_4 Rh4_4 3.047810 1_555
Lu2_4 Rh4_5 3.047810 1_554
Lu2_4 Lu2_5 3.181774 1_554
Lu2_4 Lu2_5 3.181774 1_555
Lu2_5 Rh8_6 2.873581 1_555
Lu2_5 Rh8_7 2.873581 1_555
Lu2_5 Rh3_5 2.955209 1_555
Lu2_5 Rh3_4 2.955209 1_555
Lu2_5 Rh6_4 2.955209 1_555
Lu2_5 Rh6_5 2.955209 1_555
Lu2_5 Rh2_6 3.047810 1_555
Lu2_5 Rh2_7 3.047810 1_555
Lu2_5 Rh4_4 3.047810 1_555
Lu2_5 Rh4_5 3.047810 1_555
Lu2_6 Rh8_4 2.873581 1_565
Lu2_6 Rh8_5 2.873581 1_564
Lu2_6 Rh3_7 2.955209 1_554
Lu2_6 Rh3_6 2.955209 1_555
Lu2_6 Rh6_6 2.955209 1_555
Lu2_6 Rh6_7 2.955209 1_554
Lu2_6 Rh2_5 3.047810 1_564
Lu2_6 Rh2_4 3.047810 1_565
Lu2_6 Rh4_7 3.047810 1_554
Lu2_6 Rh4_6 3.047810 1_555
Lu2_6 Lu2_7 3.181774 1_555
Lu2_6 Lu2_7 3.181774 1_554
Lu2_7 Rh8_5 2.873581 1_565
Lu2_7 Rh8_4 2.873581 1_565
Lu2_7 Rh3_7 2.955209 1_555
Lu2_7 Rh3_6 2.955209 1_555
Lu2_7 Rh6_6 2.955209 1_555
Lu2_7 Rh6_7 2.955209 1_555
Lu2_7 Rh2_4 3.047810 1_565
Lu2_7 Rh2_5 3.047810 1_565
Lu2_7 Rh4_7 3.047810 1_555
Lu2_7 Rh4_6 3.047810 1_555
Lu3_0 Rh9_1 2.873581 1_554
Lu3_0 Rh9_0 2.873581 1_555
Lu3_0 Rh4_1 2.955209 1_554
Lu3_0 Rh1_0 2.955209 1_555
Lu3_0 Rh1_1 2.955209 1_554
Lu3_0 Rh4_0 2.955209 1_555
Lu3_0 Rh3_4 3.047810 1_455
Lu3_0 Rh3_5 3.047810 1_454
Lu3_0 Rh7_1 3.047810 1_554
Lu3_0 Rh7_0 3.047810 1_555
Lu3_0 Lu3_1 3.181774 1_554
Lu3_0 Lu3_1 3.181774 1_555
Lu3_1 Rh9_0 2.873581 1_555
Lu3_1 Rh9_1 2.873581 1_555
Lu3_1 Rh4_1 2.955209 1_555
Lu3_1 Rh1_0 2.955209 1_555
Lu3_1 Rh1_1 2.955209 1_555
Lu3_1 Rh4_0 2.955209 1_555
Lu3_1 Rh3_4 3.047810 1_455
Lu3_1 Rh3_5 3.047810 1_455
Lu3_1 Rh7_0 3.047810 1_555
Lu3_1 Rh7_1 3.047810 1_555
Lu3_2 Rh9_2 2.873581 1_555
Lu3_2 Rh9_3 2.873581 1_554
Lu3_2 Rh4_2 2.955209 1_555
Lu3_2 Rh4_3 2.955209 1_554
Lu3_2 Rh1_2 2.955209 1_555
Lu3_2 Rh1_3 2.955209 1_554
Lu3_2 Rh3_7 3.047810 1_454
Lu3_2 Rh3_6 3.047810 1_455
Lu3_2 Rh7_3 3.047810 1_554
Lu3_2 Rh7_2 3.047810 1_555
Lu3_2 Lu3_3 3.181774 1_555
Lu3_2 Lu3_3 3.181774 1_554
Lu3_3 Rh9_2 2.873581 1_555
Lu3_3 Rh9_3 2.873581 1_555
Lu3_3 Rh4_3 2.955209 1_555
Lu3_3 Rh4_2 2.955209 1_555
Lu3_3 Rh1_3 2.955209 1_555
Lu3_3 Rh1_2 2.955209 1_555
Lu3_3 Rh3_7 3.047810 1_455
Lu3_3 Rh3_6 3.047810 1_455
Lu3_3 Rh7_3 3.047810 1_555
Lu3_3 Rh7_2 3.047810 1_555
Lu3_4 Rh9_5 2.873581 1_554
Lu3_4 Rh9_4 2.873581 1_555
Lu3_4 Rh4_5 2.955209 1_554
Lu3_4 Rh4_4 2.955209 1_555
Lu3_4 Rh1_4 2.955209 1_555
Lu3_4 Rh1_5 2.955209 1_554
Lu3_4 Rh3_0 3.047810 1_555
Lu3_4 Rh3_1 3.047810 1_554
Lu3_4 Rh7_5 3.047810 1_554
Lu3_4 Rh7_4 3.047810 1_555
Lu3_4 Lu3_5 3.181774 1_555
Lu3_4 Lu3_5 3.181774 1_554
Lu3_5 Rh9_5 2.873581 1_555
Lu3_5 Rh9_4 2.873581 1_555
Lu3_5 Rh4_5 2.955209 1_555
Lu3_5 Rh4_4 2.955209 1_555
Lu3_5 Rh1_4 2.955209 1_555
Lu3_5 Rh1_5 2.955209 1_555
Lu3_5 Rh3_0 3.047810 1_555
Lu3_5 Rh3_1 3.047810 1_555
Lu3_5 Rh7_5 3.047810 1_555
Lu3_5 Rh7_4 3.047810 1_555
Lu3_6 Rh9_7 2.873581 1_554
Lu3_6 Rh9_6 2.873581 1_555
Lu3_6 Rh4_6 2.955209 1_555
Lu3_6 Rh4_7 2.955209 1_554
Lu3_6 Rh1_7 2.955209 1_554
Lu3_6 Rh1_6 2.955209 1_555
Lu3_6 Rh3_2 3.047810 1_555
Lu3_6 Rh3_3 3.047810 1_554
Lu3_6 Rh7_6 3.047810 1_555
Lu3_6 Rh7_7 3.047810 1_554
Lu3_6 Lu3_7 3.181774 1_554
Lu3_6 Lu3_7 3.181774 1_555
Lu3_7 Rh9_6 2.873581 1_555
Lu3_7 Rh9_7 2.873581 1_555
Lu3_7 Rh4_7 2.955209 1_555
Lu3_7 Rh4_6 2.955209 1_555
Lu3_7 Rh1_7 2.955209 1_555
Lu3_7 Rh1_6 2.955209 1_555
Lu3_7 Rh3_3 3.047810 1_555
Lu3_7 Rh3_2 3.047810 1_555
Lu3_7 Rh7_7 3.047810 1_555
Lu3_7 Rh7_6 3.047810 1_555
Be0_0 Rh2_1 2.289886 1_554
Be0_0 Rh2_0 2.289886 1_555
Be0_0 Rh5_0 2.289886 1_555
Be0_0 Rh5_1 2.289886 1_554
Be0_0 Rh8_0 2.301741 1_555
Be0_0 Rh8_1 2.301741 1_554
Be0_0 Lu0_0 2.780714 1_555
Be0_0 Lu2_2 2.914385 1_545
Be0_0 Lu1_0 2.914385 1_555
Be0_1 Rh2_0 2.289886 1_555
Be0_1 Rh2_1 2.289886 1_555
Be0_1 Rh5_0 2.289886 1_555
Be0_1 Rh5_1 2.289886 1_555
Be0_1 Rh8_1 2.301741 1_555
Be0_1 Rh8_0 2.301741 1_555
Be0_1 Lu0_1 2.780714 1_555
Be0_1 Lu2_3 2.914385 1_545
Be0_1 Lu1_1 2.914385 1_555
Be0_2 Rh5_3 2.289886 1_554
Be0_2 Rh5_2 2.289886 1_555
Be0_2 Rh2_3 2.289886 1_554
Be0_2 Rh2_2 2.289886 1_555
Be0_2 Rh8_3 2.301741 1_554
Be0_2 Rh8_2 2.301741 1_555
Be0_2 Lu0_2 2.780714 1_555
Be0_2 Lu2_0 2.914385 1_555
Be0_2 Lu1_2 2.914385 1_555
Be0_3 Rh5_2 2.289886 1_555
Be0_3 Rh5_3 2.289886 1_555
Be0_3 Rh2_3 2.289886 1_555
Be0_3 Rh2_2 2.289886 1_555
Be0_3 Rh8_3 2.301741 1_555
Be0_3 Rh8_2 2.301741 1_555
Be0_3 Lu0_3 2.780714 1_555
Be0_3 Lu2_1 2.914385 1_555
Be0_3 Lu1_3 2.914385 1_555
Be0_4 Rh2_4 2.289886 1_555
Be0_4 Rh2_5 2.289886 1_554
Be0_4 Rh5_4 2.289886 1_555
Be0_4 Rh5_5 2.289886 1_554
Be0_4 Rh8_5 2.301741 1_554
Be0_4 Rh8_4 2.301741 1_555
Be0_4 Lu0_4 2.780714 1_555
Be0_4 Lu2_6 2.914385 1_545
Be0_4 Lu1_4 2.914385 1_555
Be0_5 Rh2_4 2.289886 1_555
Be0_5 Rh2_5 2.289886 1_555
Be0_5 Rh5_4 2.289886 1_555
Be0_5 Rh5_5 2.289886 1_555
Be0_5 Rh8_5 2.301741 1_555
Be0_5 Rh8_4 2.301741 1_555
Be0_5 Lu0_5 2.780714 1_555
Be0_5 Lu2_7 2.914385 1_545
Be0_5 Lu1_5 2.914385 1_555
Be0_6 Rh2_6 2.289886 1_555
Be0_6 Rh2_7 2.289886 1_554
Be0_6 Rh5_6 2.289886 1_555
Be0_6 Rh5_7 2.289886 1_554
Be0_6 Rh8_7 2.301741 1_554
Be0_6 Rh8_6 2.301741 1_555
Be0_6 Lu0_6 2.780714 1_555
Be0_6 Lu2_4 2.914385 1_555
Be0_6 Lu1_6 2.914385 1_555
Be0_7 Rh2_6 2.289886 1_555
Be0_7 Rh2_7 2.289886 1_555
Be0_7 Rh5_6 2.289886 1_555
Be0_7 Rh5_7 2.289886 1_555
Be0_7 Rh8_6 2.301741 1_555
Be0_7 Rh8_7 2.301741 1_555
Be0_7 Lu0_7 2.780714 1_555
Be0_7 Lu2_5 2.914385 1_555
Be0_7 Lu1_7 2.914385 1_555
Be1_0 Rh7_1 2.289886 1_554
Be1_0 Rh7_0 2.289886 1_555
Be1_0 Rh0_0 2.289886 1_555
Be1_0 Rh0_1 2.289886 1_554
Be1_0 Rh9_1 2.301741 1_554
Be1_0 Rh9_0 2.301741 1_555
Be1_0 Lu1_0 2.780714 1_555
Be1_0 Lu0_4 2.914385 1_455
Be1_0 Lu3_0 2.914385 1_555
Be1_1 Rh7_0 2.289886 1_555
Be1_1 Rh0_0 2.289886 1_555
Be1_1 Rh0_1 2.289886 1_555
Be1_1 Rh7_1 2.289886 1_555
Be1_1 Rh9_0 2.301741 1_555
Be1_1 Rh9_1 2.301741 1_555
Be1_1 Lu1_1 2.780714 1_555
Be1_1 Lu0_5 2.914385 1_455
Be1_1 Lu3_1 2.914385 1_555
Be1_2 Rh7_2 2.289886 1_555
Be1_2 Rh7_3 2.289886 1_554
Be1_2 Rh0_3 2.289886 1_554
Be1_2 Rh0_2 2.289886 1_555
Be1_2 Rh9_2 2.301741 1_555
Be1_2 Rh9_3 2.301741 1_554
Be1_2 Lu1_2 2.780714 1_555
Be1_2 Lu0_6 2.914385 1_455
Be1_2 Lu3_2 2.914385 1_555
Be1_3 Rh7_2 2.289886 1_555
Be1_3 Rh7_3 2.289886 1_555
Be1_3 Rh0_3 2.289886 1_555
Be1_3 Rh0_2 2.289886 1_555
Be1_3 Rh9_2 2.301741 1_555
Be1_3 Rh9_3 2.301741 1_555
Be1_3 Lu1_3 2.780714 1_555
Be1_3 Lu0_7 2.914385 1_455
Be1_3 Lu3_3 2.914385 1_555
Be1_4 Rh7_5 2.289886 1_554
Be1_4 Rh7_4 2.289886 1_555
Be1_4 Rh0_4 2.289886 1_555
Be1_4 Rh0_5 2.289886 1_554
Be1_4 Rh9_5 2.301741 1_554
Be1_4 Rh9_4 2.301741 1_555
Be1_4 Lu1_4 2.780714 1_555
Be1_4 Lu0_0 2.914385 1_555
Be1_4 Lu3_4 2.914385 1_555
Be1_5 Rh7_4 2.289886 1_555
Be1_5 Rh7_5 2.289886 1_555
Be1_5 Rh0_4 2.289886 1_555
Be1_5 Rh0_5 2.289886 1_555
Be1_5 Rh9_4 2.301741 1_555
Be1_5 Rh9_5 2.301741 1_555
Be1_5 Lu1_5 2.780714 1_555
Be1_5 Lu0_1 2.914385 1_555
Be1_5 Lu3_5 2.914385 1_555
Be1_6 Rh7_7 2.289886 1_554
Be1_6 Rh7_6 2.289886 1_555
Be1_6 Rh0_6 2.289886 1_555
Be1_6 Rh0_7 2.289886 1_554
Be1_6 Rh9_6 2.301741 1_555
Be1_6 Rh9_7 2.301741 1_554
Be1_6 Lu1_6 2.780714 1_555
Be1_6 Lu0_2 2.914385 1_555
Be1_6 Lu3_6 2.914385 1_555
Be1_7 Rh7_7 2.289886 1_555
Be1_7 Rh7_6 2.289886 1_555
Be1_7 Rh0_7 2.289886 1_555
Be1_7 Rh0_6 2.289886 1_555
Be1_7 Rh9_6 2.301741 1_555
Be1_7 Rh9_7 2.301741 1_555
Be1_7 Lu1_7 2.780714 1_555
Be1_7 Lu0_3 2.914385 1_555
Be1_7 Lu3_7 2.914385 1_555
Be2_0 Rh6_1 2.289886 1_554
Be2_0 Rh3_0 2.289886 1_555
Be2_0 Rh3_1 2.289886 1_554
Be2_0 Rh6_0 2.289886 1_555
Be2_0 Rh9_5 2.301741 1_554
Be2_0 Rh9_4 2.301741 1_555
Be2_0 Lu2_0 2.780714 1_555
Be2_0 Lu0_0 2.914385 1_555
Be2_0 Lu3_4 2.914385 1_555
Be2_1 Rh6_1 2.289886 1_555
Be2_1 Rh3_1 2.289886 1_555
Be2_1 Rh3_0 2.289886 1_555
Be2_1 Rh6_0 2.289886 1_555
Be2_1 Rh9_4 2.301741 1_555
Be2_1 Rh9_5 2.301741 1_555
Be2_1 Lu2_1 2.780714 1_555
Be2_1 Lu0_1 2.914385 1_555
Be2_1 Lu3_5 2.914385 1_555
Be2_2 Rh3_2 2.289886 1_555
Be2_2 Rh3_3 2.289886 1_554
Be2_2 Rh6_2 2.289886 1_555
Be2_2 Rh6_3 2.289886 1_554
Be2_2 Rh9_7 2.301741 1_554
Be2_2 Rh9_6 2.301741 1_555
Be2_2 Lu2_2 2.780714 1_555
Be2_2 Lu0_2 2.914385 1_555
Be2_2 Lu3_6 2.914385 1_555
Be2_3 Rh3_3 2.289886 1_555
Be2_3 Rh3_2 2.289886 1_555
Be2_3 Rh6_2 2.289886 1_555
Be2_3 Rh6_3 2.289886 1_555
Be2_3 Rh9_6 2.301741 1_555
Be2_3 Rh9_7 2.301741 1_555
Be2_3 Lu2_3 2.780714 1_555
Be2_3 Lu0_3 2.914385 1_555
Be2_3 Lu3_7 2.914385 1_555
Be2_4 Rh3_4 2.289886 1_555
Be2_4 Rh3_5 2.289886 1_554
Be2_4 Rh6_5 2.289886 1_554
Be2_4 Rh6_4 2.289886 1_555
Be2_4 Rh9_0 2.301741 1_655
Be2_4 Rh9_1 2.301741 1_654
Be2_4 Lu2_4 2.780714 1_555
Be2_4 Lu0_4 2.914385 1_555
Be2_4 Lu3_0 2.914385 1_655
Be2_5 Rh3_4 2.289886 1_555
Be2_5 Rh3_5 2.289886 1_555
Be2_5 Rh6_4 2.289886 1_555
Be2_5 Rh6_5 2.289886 1_555
Be2_5 Rh9_0 2.301741 1_655
Be2_5 Rh9_1 2.301741 1_655
Be2_5 Lu2_5 2.780714 1_555
Be2_5 Lu0_5 2.914385 1_555
Be2_5 Lu3_1 2.914385 1_655
Be2_6 Rh3_7 2.289886 1_554
Be2_6 Rh3_6 2.289886 1_555
Be2_6 Rh6_6 2.289886 1_555
Be2_6 Rh6_7 2.289886 1_554
Be2_6 Rh9_3 2.301741 1_654
Be2_6 Rh9_2 2.301741 1_655
Be2_6 Lu2_6 2.780714 1_555
Be2_6 Lu0_6 2.914385 1_555
Be2_6 Lu3_2 2.914385 1_655
Be2_7 Rh3_6 2.289886 1_555
Be2_7 Rh3_7 2.289886 1_555
Be2_7 Rh6_6 2.289886 1_555
Be2_7 Rh6_7 2.289886 1_555
Be2_7 Rh9_3 2.301741 1_655
Be2_7 Rh9_2 2.301741 1_655
Be2_7 Lu2_7 2.780714 1_555
Be2_7 Lu0_7 2.914385 1_555
Be2_7 Lu3_3 2.914385 1_655
Be3_0 Rh4_0 2.289886 1_555
Be3_0 Rh4_1 2.289886 1_554
Be3_0 Rh1_0 2.289886 1_555
Be3_0 Rh1_1 2.289886 1_554
Be3_0 Rh8_3 2.301741 1_554
Be3_0 Rh8_2 2.301741 1_555
Be3_0 Lu3_0 2.780714 1_555
Be3_0 Lu1_2 2.914385 1_555
Be3_0 Lu2_0 2.914385 1_555
Be3_1 Rh4_0 2.289886 1_555
Be3_1 Rh4_1 2.289886 1_555
Be3_1 Rh1_0 2.289886 1_555
Be3_1 Rh1_1 2.289886 1_555
Be3_1 Rh8_2 2.301741 1_555
Be3_1 Rh8_3 2.301741 1_555
Be3_1 Lu3_1 2.780714 1_555
Be3_1 Lu1_3 2.914385 1_555
Be3_1 Lu2_1 2.914385 1_555
Be3_2 Rh1_3 2.289886 1_554
Be3_2 Rh1_2 2.289886 1_555
Be3_2 Rh4_3 2.289886 1_554
Be3_2 Rh4_2 2.289886 1_555
Be3_2 Rh8_0 2.301741 1_565
Be3_2 Rh8_1 2.301741 1_564
Be3_2 Lu3_2 2.780714 1_555
Be3_2 Lu1_0 2.914385 1_565
Be3_2 Lu2_2 2.914385 1_555
Be3_3 Rh1_3 2.289886 1_555
Be3_3 Rh1_2 2.289886 1_555
Be3_3 Rh4_3 2.289886 1_555
Be3_3 Rh4_2 2.289886 1_555
Be3_3 Rh8_0 2.301741 1_565
Be3_3 Rh8_1 2.301741 1_565
Be3_3 Lu3_3 2.780714 1_555
Be3_3 Lu1_1 2.914385 1_565
Be3_3 Lu2_3 2.914385 1_555
Be3_4 Rh4_4 2.289886 1_555
Be3_4 Rh4_5 2.289886 1_554
Be3_4 Rh1_5 2.289886 1_554
Be3_4 Rh1_4 2.289886 1_555
Be3_4 Rh8_6 2.301741 1_555
Be3_4 Rh8_7 2.301741 1_554
Be3_4 Lu3_4 2.780714 1_555
Be3_4 Lu1_6 2.914385 1_555
Be3_4 Lu2_4 2.914385 1_555
Be3_5 Rh4_5 2.289886 1_555
Be3_5 Rh4_4 2.289886 1_555
Be3_5 Rh1_5 2.289886 1_555
Be3_5 Rh1_4 2.289886 1_555
Be3_5 Rh8_6 2.301741 1_555
Be3_5 Rh8_7 2.301741 1_555
Be3_5 Lu3_5 2.780714 1_555
Be3_5 Lu1_7 2.914385 1_555
Be3_5 Lu2_5 2.914385 1_555
Be3_6 Rh1_7 2.289886 1_554
Be3_6 Rh4_6 2.289886 1_555
Be3_6 Rh4_7 2.289886 1_554
Be3_6 Rh1_6 2.289886 1_555
Be3_6 Rh8_4 2.301741 1_565
Be3_6 Rh8_5 2.301741 1_564
Be3_6 Lu3_6 2.780714 1_555
Be3_6 Lu1_4 2.914385 1_565
Be3_6 Lu2_6 2.914385 1_555
Be3_7 Rh1_7 2.289886 1_555
Be3_7 Rh4_6 2.289886 1_555
Be3_7 Rh4_7 2.289886 1_555
Be3_7 Rh1_6 2.289886 1_555
Be3_7 Rh8_4 2.301741 1_565
Be3_7 Rh8_5 2.301741 1_565
Be3_7 Lu3_7 2.780714 1_555
Be3_7 Lu1_5 2.914385 1_565
Be3_7 Lu2_7 2.914385 1_555
Rh0_0 Sc0_0 2.711613 1_555
Rh0_0 Sc0_1 2.711613 1_555
Rh0_1 Sc0_0 2.711613 1_556
Rh0_1 Sc0_1 2.711613 1_555
Rh0_2 Sc0_3 2.711613 1_555
Rh0_2 Sc0_2 2.711613 1_555
Rh0_3 Sc0_3 2.711613 1_555
Rh0_3 Sc0_2 2.711613 1_556
Rh0_4 Sc0_4 2.711613 1_555
Rh0_4 Sc0_5 2.711613 1_555
Rh0_5 Sc0_4 2.711613 1_556
Rh0_5 Sc0_5 2.711613 1_555
Rh0_6 Sc0_7 2.711613 1_555
Rh0_6 Sc0_6 2.711613 1_555
Rh0_7 Sc0_6 2.711613 1_556
Rh0_7 Sc0_7 2.711613 1_555
Rh1_0 Sc0_2 2.711613 1_555
Rh1_0 Sc0_3 2.711613 1_555
Rh1_1 Sc0_2 2.711613 1_556
Rh1_1 Sc0_3 2.711613 1_555
Rh1_2 Sc0_0 2.711613 1_565
Rh1_2 Sc0_1 2.711613 1_565
Rh1_3 Sc0_0 2.711613 1_566
Rh1_3 Sc0_1 2.711613 1_565
Rh1_4 Sc0_6 2.711613 1_555
Rh1_4 Sc0_7 2.711613 1_555
Rh1_5 Sc0_6 2.711613 1_556
Rh1_5 Sc0_7 2.711613 1_555
Rh1_6 Sc0_4 2.711613 1_565
Rh1_6 Sc0_5 2.711613 1_565
Rh1_7 Sc0_4 2.711613 1_566
Rh1_7 Sc0_5 2.711613 1_565
Rh2_0 Sc0_4 2.711613 1_555
Rh2_0 Sc0_5 2.711613 1_555
Rh2_1 Sc0_4 2.711613 1_556
Rh2_1 Sc0_5 2.711613 1_555
Rh2_2 Sc0_6 2.711613 1_555
Rh2_2 Sc0_7 2.711613 1_555
Rh2_3 Sc0_6 2.711613 1_556
Rh2_3 Sc0_7 2.711613 1_555
Rh2_4 Sc0_0 2.711613 1_655
Rh2_4 Sc0_1 2.711613 1_655
Rh2_5 Sc0_0 2.711613 1_656
Rh2_5 Sc0_1 2.711613 1_655
Rh2_6 Sc0_2 2.711613 1_655
Rh2_6 Sc0_3 2.711613 1_655
Rh2_7 Sc0_3 2.711613 1_655
Rh2_7 Sc0_2 2.711613 1_656
Rh3_0 Sc0_6 2.711613 1_555
Rh3_0 Sc0_7 2.711613 1_555
Rh3_1 Sc0_6 2.711613 1_556
Rh3_1 Sc0_7 2.711613 1_555
Rh3_2 Sc0_4 2.711613 1_565
Rh3_2 Sc0_5 2.711613 1_565
Rh3_3 Sc0_4 2.711613 1_566
Rh3_3 Sc0_5 2.711613 1_565
Rh3_4 Sc0_2 2.711613 1_655
Rh3_4 Sc0_3 2.711613 1_655
Rh3_5 Sc0_2 2.711613 1_656
Rh3_5 Sc0_3 2.711613 1_655
Rh3_6 Sc0_1 2.711613 1_665
Rh3_6 Sc0_0 2.711613 1_665
Rh3_7 Sc0_1 2.711613 1_665
Rh3_7 Sc0_0 2.711613 1_666
Rh4_0 Sc1_1 2.711613 1_555
Rh4_0 Sc1_0 2.711613 1_555
Rh4_1 Sc1_1 2.711613 1_555
Rh4_1 Sc1_0 2.711613 1_556
Rh4_2 Sc1_2 2.711613 1_555
Rh4_2 Sc1_3 2.711613 1_555
Rh4_3 Sc1_2 2.711613 1_556
Rh4_3 Sc1_3 2.711613 1_555
Rh4_4 Sc1_4 2.711613 1_555
Rh4_4 Sc1_5 2.711613 1_555
Rh4_5 Sc1_4 2.711613 1_556
Rh4_5 Sc1_5 2.711613 1_555
Rh4_6 Sc1_7 2.711613 1_555
Rh4_6 Sc1_6 2.711613 1_555
Rh4_7 Sc1_6 2.711613 1_556
Rh4_7 Sc1_7 2.711613 1_555
Rh5_0 Sc1_1 2.711613 1_555
Rh5_0 Sc1_0 2.711613 1_555
Rh5_1 Sc1_0 2.711613 1_556
Rh5_1 Sc1_1 2.711613 1_555
Rh5_2 Sc1_2 2.711613 1_555
Rh5_2 Sc1_3 2.711613 1_555
Rh5_3 Sc1_2 2.711613 1_556
Rh5_3 Sc1_3 2.711613 1_555
Rh5_4 Sc1_4 2.711613 1_555
Rh5_4 Sc1_5 2.711613 1_555
Rh5_5 Sc1_4 2.711613 1_556
Rh5_5 Sc1_5 2.711613 1_555
Rh5_6 Sc1_6 2.711613 1_555
Rh5_6 Sc1_7 2.711613 1_555
Rh5_7 Sc1_6 2.711613 1_556
Rh5_7 Sc1_7 2.711613 1_555
Rh6_0 Sc1_1 2.711613 1_555
Rh6_0 Sc1_0 2.711613 1_555
Rh6_1 Sc1_0 2.711613 1_556
Rh6_1 Sc1_1 2.711613 1_555
Rh6_2 Sc1_2 2.711613 1_555
Rh6_2 Sc1_3 2.711613 1_555
Rh6_3 Sc1_2 2.711613 1_556
Rh6_3 Sc1_3 2.711613 1_555
Rh6_4 Sc1_4 2.711613 1_555
Rh6_4 Sc1_5 2.711613 1_555
Rh6_5 Sc1_4 2.711613 1_556
Rh6_5 Sc1_5 2.711613 1_555
Rh6_6 Sc1_6 2.711613 1_555
Rh6_6 Sc1_7 2.711613 1_555
Rh6_7 Sc1_6 2.711613 1_556
Rh6_7 Sc1_7 2.711613 1_555
Rh7_0 Sc1_0 2.711613 1_555
Rh7_0 Sc1_1 2.711613 1_555
Rh7_1 Sc1_0 2.711613 1_556
Rh7_1 Sc1_1 2.711613 1_555
Rh7_2 Sc1_2 2.711613 1_555
Rh7_2 Sc1_3 2.711613 1_555
Rh7_3 Sc1_2 2.711613 1_556
Rh7_3 Sc1_3 2.711613 1_555
Rh7_4 Sc1_4 2.711613 1_555
Rh7_4 Sc1_5 2.711613 1_555
Rh7_5 Sc1_4 2.711613 1_556
Rh7_5 Sc1_5 2.711613 1_555
Rh7_6 Sc1_6 2.711613 1_555
Rh7_6 Sc1_7 2.711613 1_555
Rh7_7 Sc1_7 2.711613 1_555
Rh7_7 Sc1_6 2.711613 1_556
