# generated using pymatgen
data_Hf5ZnSnSb2
_symmetry_space_group_name_H-M   'P 1'
_cell_length_a   8.54774651
_cell_length_b   8.55467860
_cell_length_c   5.75754527
_cell_angle_alpha   90.00000000
_cell_angle_beta   90.00000000
_cell_angle_gamma   120.02682846
_symmetry_Int_Tables_number   1
_chemical_formula_structural   Hf5ZnSnSb2
_chemical_formula_sum   'Hf10 Zn2 Sn2 Sb4'
_cell_volume   364.50698435
_cell_formula_units_Z   2
loop_
 _symmetry_equiv_pos_site_id
 _symmetry_equiv_pos_as_xyz
  1  'x, y, z'
loop_
 _atom_site_type_symbol
 _atom_site_label
 _atom_site_symmetry_multiplicity
 _atom_site_fract_x
 _atom_site_fract_y
 _atom_site_fract_z
 _atom_site_occupancy
  Hf  Hf0  1  0.73293746  0.73363317  0.25000000  1
  Hf  Hf1  1  0.73293746  0.99930529  0.75000000  1
  Hf  Hf2  1  0.99976260  0.26749261  0.25000000  1
  Hf  Hf3  1  0.99976260  0.73226999  0.75000000  1
  Hf  Hf4  1  0.26669053  0.26666649  0.75000000  1
  Hf  Hf5  1  0.26669053  0.00002403  0.25000000  1
  Hf  Hf6  1  0.33339859  0.66669930  0.50000000  1
  Hf  Hf7  1  0.66767585  0.33383793  0.00000000  1
  Hf  Hf8  1  0.66767585  0.33383793  0.50000000  1
  Hf  Hf9  1  0.33339859  0.66669930  0.00000000  1
  Zn  Zn0  1  0.00112896  0.00056448  0.00000000  1
  Zn  Zn1  1  0.00112896  0.00056448  0.50000000  1
  Sn  Sn0  1  0.38578273  0.00040148  0.75000000  1
  Sn  Sn1  1  0.38578273  0.38538125  0.25000000  1
  Sb  Sb0  1  0.00058127  0.61443925  0.25000000  1
  Sb  Sb1  1  0.00058127  0.38614103  0.75000000  1
  Sb  Sb2  1  0.61204300  0.61143665  0.75000000  1
  Sb  Sb3  1  0.61204300  0.00060535  0.25000000  1
loop_
_geom_bond_atom_site_label_1
_geom_bond_atom_site_label_2
_geom_bond_distance
_geom_bond_site_symmetry_2
Hf0 Zn0 2.702307 1_665
Hf0 Zn1 2.702307 1_665
Hf0 Sb0 2.933966 1_655
Hf0 Sb3 2.940389 1_565
Hf0 Sn1 2.972099 1_555
Hf0 Sb2 3.060529 1_555
Hf0 Sb2 3.060529 1_554
Hf1 Zn0 2.702311 1_666
Hf1 Zn1 2.702311 1_665
Hf1 Sb1 2.933954 1_665
Hf1 Sb2 2.940405 1_555
Hf1 Sn0 2.972094 1_565
Hf1 Sb3 3.060526 1_566
Hf1 Sb3 3.060526 1_565
Hf2 Zn0 2.704249 1_655
Hf2 Zn1 2.704249 1_655
Hf2 Sn1 2.928156 1_655
Hf2 Sb3 2.936565 1_555
Hf2 Sb0 2.964521 1_655
Hf2 Sb1 3.051310 1_655
Hf2 Sb1 3.051310 1_654
Hf3 Zn0 2.704249 1_666
Hf3 Zn1 2.704249 1_665
Hf3 Sn0 2.928157 1_665
Hf3 Sb2 2.936563 1_555
Hf3 Sb1 2.964530 1_655
Hf3 Sb0 3.051313 1_655
Hf3 Sb0 3.051313 1_656
Hf4 Zn1 2.689804 1_555
Hf4 Zn0 2.689804 1_556
Hf4 Sb1 2.923233 1_555
Hf4 Sn0 2.923237 1_555
Hf4 Sb2 2.949496 1_555
Hf4 Sn1 3.052919 1_555
Hf4 Sn1 3.052919 1_556
Hf5 Zn0 2.689804 1_555
Hf5 Zn1 2.689804 1_555
Hf5 Sn1 2.923237 1_555
Hf5 Sb0 2.923240 1_545
Hf5 Sb3 2.949500 1_555
Hf5 Sn0 3.052919 1_554
Hf5 Sn0 3.052919 1_555
Hf6 Sb0 3.015284 1_555
Hf6 Sb1 3.015287 1_555
Hf6 Sb3 3.015808 1_565
Hf6 Sb2 3.015812 1_555
Hf6 Sn1 3.023647 1_555
Hf6 Sn0 3.023647 1_565
Hf7 Sb2 3.011261 1_554
Hf7 Sb3 3.011268 1_555
Hf7 Sb0 3.015817 1_655
Hf7 Sb1 3.015820 1_654
Hf7 Sn1 3.022501 1_555
Hf7 Sn0 3.022501 1_554
Hf8 Sb2 3.011261 1_555
Hf8 Sb3 3.011268 1_555
Hf8 Sb0 3.015817 1_655
Hf8 Sb1 3.015820 1_655
Hf8 Sn1 3.022501 1_555
Hf8 Sn0 3.022501 1_555
Hf9 Sb0 3.015284 1_555
Hf9 Sb1 3.015287 1_554
Hf9 Sb3 3.015808 1_565
Hf9 Sb2 3.015812 1_554
Hf9 Sn1 3.023647 1_555
Hf9 Sn0 3.023647 1_564
