# generated using pymatgen
data_HfMnBr6
_symmetry_space_group_name_H-M   'P 1'
_cell_length_a   6.71481390
_cell_length_b   6.71481404
_cell_length_c   12.87107206
_cell_angle_alpha   90.00000000
_cell_angle_beta   90.00000000
_cell_angle_gamma   119.99999929
_symmetry_Int_Tables_number   1
_chemical_formula_structural   HfMnBr6
_chemical_formula_sum   'Hf2 Mn2 Br12'
_cell_volume   502.58940278
_cell_formula_units_Z   2
loop_
 _symmetry_equiv_pos_site_id
 _symmetry_equiv_pos_as_xyz
  1  'x, y, z'
loop_
 _atom_site_type_symbol
 _atom_site_label
 _atom_site_symmetry_multiplicity
 _atom_site_fract_x
 _atom_site_fract_y
 _atom_site_fract_z
 _atom_site_occupancy
  Hf  Hf0  1  0.33333300  0.66666700  0.25000000  1
  Hf  Hf1  1  0.66666700  0.33333300  0.75000000  1
  Mn  Mn0  1  0.00000000  0.00000000  0.25000000  1
  Mn  Mn1  1  0.00000000  0.00000000  0.75000000  1
  Br  Br0  1  0.65768906  0.97406266  0.13189640  1
  Br  Br1  1  0.02593734  0.68362540  0.13189640  1
  Br  Br2  1  0.31637460  0.34231094  0.13189640  1
  Br  Br3  1  0.02593734  0.34231094  0.36810360  1
  Br  Br4  1  0.34231094  0.31637460  0.63189640  1
  Br  Br5  1  0.68362540  0.02593734  0.63189640  1
  Br  Br6  1  0.97406266  0.65768906  0.63189640  1
  Br  Br7  1  0.68362540  0.65768906  0.86810360  1
  Br  Br8  1  0.97406266  0.31637460  0.86810360  1
  Br  Br9  1  0.34231094  0.02593734  0.86810360  1
  Br  Br10  1  0.65768906  0.68362540  0.36810360  1
  Br  Br11  1  0.31637460  0.97406266  0.36810360  1
loop_
_geom_bond_atom_site_label_1
_geom_bond_atom_site_label_2
_geom_bond_distance
_geom_bond_site_symmetry_2
Br0 Hf0 2.611386 1_555
Br0 Mn0 2.687773 1_665
Br1 Hf0 2.611380 1_555
Br1 Mn0 2.687778 1_565
Br2 Hf0 2.611391 1_555
Br2 Mn0 2.687775 1_555
Br3 Hf0 2.611386 1_555
Br3 Mn0 2.687773 1_555
Br4 Hf1 2.611391 1_555
Br4 Mn1 2.687775 1_555
Br5 Hf1 2.611380 1_555
Br5 Mn1 2.687778 1_655
Br6 Hf1 2.611386 1_555
Br6 Mn1 2.687773 1_665
Br7 Hf1 2.611391 1_555
Br7 Mn1 2.687775 1_665
Br8 Hf1 2.611380 1_555
Br8 Mn1 2.687778 1_655
Br9 Hf1 2.611386 1_555
Br9 Mn1 2.687773 1_555
Br10 Hf0 2.611391 1_555
Br10 Mn0 2.687775 1_665
Br11 Hf0 2.611380 1_555
Br11 Mn0 2.687778 1_565
