# generated using pymatgen
data_Hf2HRh6
_symmetry_space_group_name_H-M   'P 1'
_cell_length_a   5.56396286
_cell_length_b   5.56391455
_cell_length_c   5.56361991
_cell_angle_alpha   60.00231219
_cell_angle_beta   60.00145856
_cell_angle_gamma   59.99623330
_symmetry_Int_Tables_number   1
_chemical_formula_structural   Hf2HRh6
_chemical_formula_sum   'Hf2 H1 Rh6'
_cell_volume   121.78874068
_cell_formula_units_Z   1
loop_
 _symmetry_equiv_pos_site_id
 _symmetry_equiv_pos_as_xyz
  1  'x, y, z'
loop_
 _atom_site_type_symbol
 _atom_site_label
 _atom_site_symmetry_multiplicity
 _atom_site_fract_x
 _atom_site_fract_y
 _atom_site_fract_z
 _atom_site_occupancy
  Hf  Hf0  1  0.25000000  0.25000000  0.25000000  1
  Hf  Hf1  1  0.75000000  0.75000000  0.75000000  1
  H  H0  1  0.00000000  0.00000000  0.00000000  1
  Rh  Rh0  1  0.74802780  0.25197220  0.25197220  1
  Rh  Rh1  1  0.25197219  0.74802781  0.25197219  1
  Rh  Rh2  1  0.74802437  0.74802437  0.25197563  1
  Rh  Rh3  1  0.25197563  0.25197563  0.74802437  1
  Rh  Rh4  1  0.74802781  0.25197219  0.74802781  1
  Rh  Rh5  1  0.25197220  0.74802780  0.74802780  1
loop_
_geom_bond_atom_site_label_1
_geom_bond_atom_site_label_2
_geom_bond_distance
_geom_bond_site_symmetry_2
Hf0 Rh3 2.781853 1_554
Hf0 Rh3 2.781853 1_555
Hf0 Rh2 2.781854 1_545
Hf0 Rh2 2.781854 1_455
Hf0 Rh4 2.782000 1_554
Hf0 Rh4 2.782000 1_455
Hf0 Rh1 2.782001 1_555
Hf0 Rh1 2.782001 1_545
Hf0 Rh5 2.782024 1_554
Hf0 Rh5 2.782024 1_545
Hf0 Rh0 2.782025 1_555
Hf0 Rh0 2.782025 1_455
Hf1 Rh2 2.781853 1_556
Hf1 Rh2 2.781853 1_555
Hf1 Rh3 2.781854 1_565
Hf1 Rh3 2.781854 1_655
Hf1 Rh1 2.782000 1_556
Hf1 Rh1 2.782000 1_655
Hf1 Rh4 2.782001 1_555
Hf1 Rh4 2.782001 1_565
Hf1 Rh0 2.782024 1_556
Hf1 Rh0 2.782024 1_565
Hf1 Rh5 2.782025 1_555
Hf1 Rh5 2.782025 1_655
H0 Rh0 1.982537 1_455
H0 Rh5 1.982537 1_544
H0 Rh1 1.982572 1_545
H0 Rh4 1.982572 1_454
H0 Rh3 1.982808 1_554
H0 Rh2 1.982808 1_445
