# generated using pymatgen
data_K3Rb13(TiSb4)2
_symmetry_space_group_name_H-M   'P 1'
_cell_length_a   11.84989222
_cell_length_b   11.84989202
_cell_length_c   11.84989259
_cell_angle_alpha   59.70522027
_cell_angle_beta   59.70522292
_cell_angle_gamma   59.70521953
_symmetry_Int_Tables_number   1
_chemical_formula_structural   K3Rb13(TiSb4)2
_chemical_formula_sum   'K3 Rb13 Ti2 Sb8'
_cell_volume   1168.72017646
_cell_formula_units_Z   1
loop_
 _symmetry_equiv_pos_site_id
 _symmetry_equiv_pos_as_xyz
  1  'x, y, z'
loop_
 _atom_site_type_symbol
 _atom_site_label
 _atom_site_symmetry_multiplicity
 _atom_site_fract_x
 _atom_site_fract_y
 _atom_site_fract_z
 _atom_site_occupancy
  K  K0  1  0.62500000  0.12500000  0.62500000  1
  K  K1  1  0.62500000  0.62500000  0.12500000  1
  K  K2  1  0.12500000  0.62500000  0.62500000  1
  Rb  Rb0  1  0.62500000  0.62500000  0.62500000  1
  Rb  Rb1  1  0.02650731  0.02650731  0.47312787  1
  Rb  Rb2  1  0.77687213  0.22349269  0.22349269  1
  Rb  Rb3  1  0.22280919  0.77647125  0.77647125  1
  Rb  Rb4  1  0.77647125  0.77647125  0.22280919  1
  Rb  Rb5  1  0.77647125  0.22280919  0.77647125  1
  Rb  Rb6  1  0.22349269  0.77687213  0.22349269  1
  Rb  Rb7  1  0.47352875  0.02719081  0.47352875  1
  Rb  Rb8  1  0.47312787  0.02650731  0.02650731  1
  Rb  Rb9  1  0.02719081  0.47352875  0.47352875  1
  Rb  Rb10  1  0.02650731  0.47312787  0.02650731  1
  Rb  Rb11  1  0.22349269  0.22349269  0.77687213  1
  Rb  Rb12  1  0.47352875  0.47352875  0.02719081  1
  Ti  Ti0  1  0.75059487  0.75059487  0.75059487  1
  Ti  Ti1  1  0.49940513  0.49940513  0.49940513  1
  Sb  Sb0  1  0.40290132  0.78724527  0.40290132  1
  Sb  Sb1  1  0.84709868  0.84709868  0.46275473  1
  Sb  Sb2  1  0.46275473  0.84709868  0.84709868  1
  Sb  Sb3  1  0.84577694  0.84577694  0.84577694  1
  Sb  Sb4  1  0.78724527  0.40290132  0.40290132  1
  Sb  Sb5  1  0.40422306  0.40422306  0.40422306  1
  Sb  Sb6  1  0.40290132  0.40290132  0.78724527  1
  Sb  Sb7  1  0.84709868  0.46275473  0.84709868  1
loop_
_geom_bond_atom_site_label_1
_geom_bond_atom_site_label_2
_geom_bond_distance
_geom_bond_site_symmetry_2
K0 Ti1 3.609031 1_555
K0 Ti0 3.609031 1_545
K0 Sb6 3.742467 1_555
K0 Sb1 3.742467 1_545
K0 Sb4 3.742467 1_555
K0 Sb2 3.742467 1_545
K0 Sb3 3.751713 1_545
K0 Sb5 3.751713 1_555
K1 Ti1 3.609031 1_555
K1 Ti0 3.609031 1_554
K1 Sb4 3.742466 1_555
K1 Sb2 3.742466 1_554
K1 Sb0 3.742467 1_555
K1 Sb7 3.742467 1_554
K1 Sb3 3.751713 1_554
K1 Sb5 3.751713 1_555
K2 Ti1 3.609031 1_555
K2 Ti0 3.609031 1_455
K2 Sb6 3.742466 1_555
K2 Sb1 3.742466 1_455
K2 Sb0 3.742467 1_555
K2 Sb7 3.742467 1_455
K2 Sb3 3.751713 1_455
K2 Sb5 3.751713 1_555
Rb0 Ti0 3.653641 1_555
Rb0 Ti1 3.653641 1_555
Rb0 Sb7 3.785215 1_555
Rb0 Sb0 3.785215 1_555
Rb0 Sb1 3.785215 1_555
Rb0 Sb6 3.785215 1_555
Rb0 Sb2 3.785215 1_555
Rb0 Sb4 3.785215 1_555
Rb1 Sb1 3.760573 1_445
Rb1 Sb3 3.770647 1_445
Rb1 Sb4 3.808158 1_455
Rb1 Sb0 3.808158 1_545
Rb2 Sb4 3.760573 1_555
Rb2 Sb5 3.770647 1_555
Rb2 Sb1 3.808158 1_545
Rb2 Sb7 3.808159 1_554
Rb3 Sb6 3.786871 1_555
Rb3 Sb0 3.786871 1_555
Rb3 Sb3 3.819269 1_455
Rb3 Sb2 3.872178 1_555
Rb4 Sb4 3.786871 1_555
Rb4 Sb0 3.786871 1_555
Rb4 Sb3 3.819269 1_554
Rb4 Sb1 3.872178 1_555
Rb5 Sb6 3.786871 1_555
Rb5 Sb4 3.786871 1_555
Rb5 Sb3 3.819268 1_545
Rb5 Sb7 3.872178 1_555
Rb6 Sb0 3.760573 1_555
Rb6 Sb5 3.770647 1_555
Rb6 Sb1 3.808159 1_455
Rb6 Sb2 3.808159 1_554
Rb7 Sb1 3.786871 1_545
Rb7 Sb2 3.786871 1_545
Rb7 Sb5 3.819268 1_555
Rb7 Sb0 3.872178 1_545
Rb8 Sb2 3.760573 1_544
Rb8 Sb3 3.770647 1_544
Rb8 Sb6 3.808158 1_554
Rb8 Sb0 3.808159 1_545
Rb9 Sb1 3.786871 1_455
Rb9 Sb7 3.786871 1_455
Rb9 Sb5 3.819269 1_555
Rb9 Sb4 3.872178 1_455
Rb10 Sb7 3.760573 1_454
Rb10 Sb3 3.770647 1_454
Rb10 Sb6 3.808159 1_554
Rb10 Sb4 3.808159 1_455
Rb11 Sb6 3.760573 1_555
Rb11 Sb5 3.770647 1_555
Rb11 Sb2 3.808158 1_545
Rb11 Sb7 3.808158 1_455
Rb12 Sb2 3.786871 1_554
Rb12 Sb7 3.786871 1_554
Rb12 Sb5 3.819269 1_555
Rb12 Sb6 3.872178 1_554
Sb0 Ti1 2.774598 1_555
Sb1 Ti0 2.774599 1_555
Sb2 Ti0 2.774599 1_555
Sb3 Ti0 2.768912 1_555
Sb4 Ti1 2.774599 1_555
Sb5 Ti1 2.768912 1_555
Sb6 Ti1 2.774599 1_555
Sb7 Ti0 2.774598 1_555
