# generated using pymatgen
data_In4P6N13
_symmetry_space_group_name_H-M   'P 1'
_cell_length_a   7.28562612
_cell_length_b   7.28562693
_cell_length_c   7.28562629
_cell_angle_alpha   109.47122424
_cell_angle_beta   109.47122650
_cell_angle_gamma   109.47121252
_symmetry_Int_Tables_number   1
_chemical_formula_structural   In4P6N13
_chemical_formula_sum   'In4 P6 N13'
_cell_volume   297.69997789
_cell_formula_units_Z   1
loop_
 _symmetry_equiv_pos_site_id
 _symmetry_equiv_pos_as_xyz
  1  'x, y, z'
loop_
 _atom_site_type_symbol
 _atom_site_label
 _atom_site_symmetry_multiplicity
 _atom_site_fract_x
 _atom_site_fract_y
 _atom_site_fract_z
 _atom_site_occupancy
  In  In0  1  0.30199888  0.30199888  0.30199888  1
  In  In1  1  0.00000000  0.69800112  0.00000000  1
  In  In2  1  0.69800112  0.00000000  1.00000000  1
  In  In3  1  1.00000000  1.00000000  0.69800112  1
  P  P0  1  0.50000000  0.25000000  0.75000000  1
  P  P1  1  0.50000000  0.75000000  0.25000000  1
  P  P2  1  0.75000000  0.25000000  0.50000000  1
  P  P3  1  0.25000000  0.50000000  0.75000000  1
  P  P4  1  0.75000000  0.50000000  0.25000000  1
  P  P5  1  0.25000000  0.75000000  0.50000000  1
  N  N0  1  0.00000000  0.00000000  0.00000000  1
  N  N1  1  0.00000000  0.71887897  0.42960423  1
  N  N2  1  0.28112103  0.71072426  0.28112103  1
  N  N3  1  0.28927574  0.57039577  0.57039577  1
  N  N4  1  0.57039577  0.57039577  0.28927574  1
  N  N5  1  0.57039577  0.28927574  0.57039577  1
  N  N6  1  0.71887897  1.00000000  0.42960423  1
  N  N7  1  0.42960423  1.00000000  0.71887897  1
  N  N8  1  0.71887897  0.42960423  1.00000000  1
  N  N9  1  0.28112103  0.28112103  0.71072426  1
  N  N10  1  0.71072426  0.28112103  0.28112103  1
  N  N11  1  1.00000000  0.42960423  0.71887897  1
  N  N12  1  0.42960423  0.71887897  0.00000000  1
loop_
_geom_bond_atom_site_label_1
_geom_bond_atom_site_label_2
_geom_bond_distance
_geom_bond_site_symmetry_2
In0 N0 2.200251 1_555
In0 N5 2.312704 1_555
In0 N3 2.312704 1_555
In0 N4 2.312704 1_555
In1 N0 2.200251 1_565
In1 N11 2.312708 1_454
In1 N8 2.312709 1_454
In1 N2 2.312712 1_555
In2 N0 2.200251 1_656
In2 N7 2.312708 1_545
In2 N12 2.312709 1_546
In2 N10 2.312712 1_556
In3 N0 2.200251 1_666
In3 N6 2.312708 1_555
In3 N1 2.312708 1_655
In3 N9 2.312713 1_665
N1 P5 1.629834 1_555
N1 P4 1.629834 1_455
N2 P5 1.629833 1_555
N2 P1 1.629833 1_555
N3 P3 1.629836 1_555
N3 P5 1.629836 1_555
N4 P4 1.629836 1_555
N4 P1 1.629836 1_555
N5 P2 1.629836 1_555
N5 P0 1.629836 1_555
N6 P1 1.629834 1_555
N6 P2 1.629834 1_565
N7 P5 1.629834 1_555
N7 P0 1.629834 1_565
N8 P0 1.629834 1_555
N8 P4 1.629834 1_556
N9 P0 1.629833 1_555
N9 P3 1.629833 1_555
N10 P2 1.629833 1_555
N10 P4 1.629833 1_555
N11 P2 1.629834 1_555
N11 P3 1.629834 1_655
N12 P1 1.629834 1_555
N12 P3 1.629834 1_554
