# generated using pymatgen
data_CaCd(CuO2)4
_symmetry_space_group_name_H-M   'P 1'
_cell_length_a   6.18262635
_cell_length_b   6.18262655
_cell_length_c   6.18262578
_cell_angle_alpha   125.28862911
_cell_angle_beta   125.28862565
_cell_angle_gamma   81.06051238
_symmetry_Int_Tables_number   1
_chemical_formula_structural   CaCd(CuO2)4
_chemical_formula_sum   'Ca1 Cd1 Cu4 O8'
_cell_volume   151.71345433
_cell_formula_units_Z   1
loop_
 _symmetry_equiv_pos_site_id
 _symmetry_equiv_pos_as_xyz
  1  'x, y, z'
loop_
 _atom_site_type_symbol
 _atom_site_label
 _atom_site_symmetry_multiplicity
 _atom_site_fract_x
 _atom_site_fract_y
 _atom_site_fract_z
 _atom_site_occupancy
  Ca  Ca0  1  0.00000000  0.00000000  0.00000000  1
  Cd  Cd0  1  0.75000000  0.25000000  0.50000000  1
  Cu  Cu0  1  0.87464206  0.62556287  0.25013388  1
  Cu  Cu1  1  0.37542899  0.62450919  0.74986612  1
  Cu  Cu2  1  0.37549081  0.12535794  0.75091980  1
  Cu  Cu3  1  0.37443713  0.62457101  0.24908020  1
  O  O0  1  0.02243013  0.94339613  0.36817663  1
  O  O1  1  0.05660387  0.42478150  0.07903400  1
  O  O2  1  0.34574650  0.97756987  0.92096600  1
  O  O3  1  0.17278813  0.58935683  0.86252539  1
  O  O4  1  0.41064317  0.27316856  0.58343130  1
  O  O5  1  0.68973726  0.82721187  0.41656870  1
  O  O6  1  0.57521850  0.65425350  0.63182337  1
  O  O7  1  0.72683144  0.31026274  0.13747461  1
loop_
_geom_bond_atom_site_label_1
_geom_bond_atom_site_label_2
_geom_bond_distance
_geom_bond_site_symmetry_2
Ca0 O0 2.421535 1_545
Ca0 O2 2.421536 1_544
Ca0 O6 2.421540 1_444
Ca0 O1 2.421542 1_555
Ca0 O5 2.454053 1_444
Ca0 O4 2.454053 1_555
Ca0 O7 2.454053 1_455
Ca0 O3 2.454053 1_544
Cd0 O7 2.400072 1_555
Cd0 O4 2.400072 1_555
Cd0 O5 2.400073 1_545
Cd0 O3 2.400073 1_655
Cd0 O1 2.429680 1_656
Cd0 O2 2.429682 1_544
Cd0 O0 2.429682 1_645
Cd0 O6 2.429685 1_555
Cu0 O1 1.830138 1_655
Cu0 O5 1.831404 1_555
Cu0 O0 1.832890 1_655
Cu0 O7 1.835700 1_555
Cu1 O2 1.830135 1_555
Cu1 O4 1.831409 1_555
Cu1 O6 1.832881 1_555
Cu1 O3 1.835703 1_555
Cu2 O0 1.830135 1_545
Cu2 O7 1.831409 1_556
Cu2 O2 1.832892 1_545
Cu2 O4 1.835698 1_555
Cu3 O6 1.830135 1_555
Cu3 O3 1.831409 1_554
Cu3 O1 1.832884 1_555
Cu3 O5 1.835703 1_555
