# generated using pymatgen
data_AlZnRhS4
_symmetry_space_group_name_H-M   'P 1'
_cell_length_a   7.03580872
_cell_length_b   7.03580754
_cell_length_c   7.03580729
_cell_angle_alpha   120.38275198
_cell_angle_beta   119.31854019
_cell_angle_gamma   90.26134129
_symmetry_Int_Tables_number   1
_chemical_formula_structural   AlZnRhS4
_chemical_formula_sum   'Al2 Zn2 Rh2 S8'
_cell_volume   246.80546579
_cell_formula_units_Z   2
loop_
 _symmetry_equiv_pos_site_id
 _symmetry_equiv_pos_as_xyz
  1  'x, y, z'
loop_
 _atom_site_type_symbol
 _atom_site_label
 _atom_site_symmetry_multiplicity
 _atom_site_fract_x
 _atom_site_fract_y
 _atom_site_fract_z
 _atom_site_occupancy
  Al  Al0  1  0.00000000  0.50000000  0.00000000  1
  Al  Al1  1  0.00000000  0.00000000  0.50000000  1
  Zn  Zn0  1  0.37862737  0.12862737  0.25000000  1
  Zn  Zn1  1  0.62137263  0.87137263  0.75000000  1
  Rh  Rh0  1  0.50000000  0.50000000  0.00000000  1
  Rh  Rh1  1  0.00000000  0.50000000  0.50000000  1
  S  S0  1  0.76032388  0.73665987  0.47633699  1
  S  S1  1  0.76032388  0.28398689  0.02366301  1
  S  S2  1  0.21994144  0.73941090  0.48053154  1
  S  S3  1  0.75887836  0.73941090  0.01946846  1
  S  S4  1  0.23967612  0.26334013  0.52366301  1
  S  S5  1  0.23967612  0.71601311  0.97633699  1
  S  S6  1  0.78005856  0.26058910  0.51946846  1
  S  S7  1  0.24112164  0.26058910  0.98053154  1
loop_
_geom_bond_atom_site_label_1
_geom_bond_atom_site_label_2
_geom_bond_distance
_geom_bond_site_symmetry_2
Al0 S5 2.385115 1_554
Al0 S1 2.385115 1_455
Al0 S2 2.398837 1_555
Al0 S6 2.398837 1_454
Al0 S7 2.398842 1_554
Al0 S3 2.398842 1_455
Al1 S4 2.385120 1_555
Al1 S0 2.385120 1_445
Al1 S6 2.398832 1_455
Al1 S2 2.398832 1_545
Al1 S7 2.398837 1_555
Al1 S3 2.398837 1_445
Rh0 S3 2.380752 1_555
Rh0 S7 2.380752 1_554
Rh0 S0 2.382231 1_555
Rh0 S4 2.382231 1_554
Rh0 S1 2.382231 1_555
Rh0 S5 2.382231 1_554
Rh1 S2 2.380752 1_555
Rh1 S6 2.380752 1_455
Rh1 S4 2.382226 1_555
Rh1 S0 2.382226 1_455
Rh1 S5 2.382231 1_555
Rh1 S1 2.382231 1_455
S0 Zn1 2.359518 1_555
S1 Zn1 2.359518 1_544
S2 Zn1 2.320577 1_555
S3 Zn1 2.320570 1_554
S4 Zn0 2.359518 1_555
S5 Zn0 2.359518 1_566
S6 Zn0 2.320577 1_555
S7 Zn0 2.320570 1_556
