# generated using pymatgen
data_Ta3Al2CoN
_symmetry_space_group_name_H-M   'P 1'
_cell_length_a   8.11466327
_cell_length_b   8.11466409
_cell_length_c   8.11466349
_cell_angle_alpha   60.00000243
_cell_angle_beta   59.99999910
_cell_angle_gamma   60.00000273
_symmetry_Int_Tables_number   1
_chemical_formula_structural   Ta3Al2CoN
_chemical_formula_sum   'Ta12 Al8 Co4 N4'
_cell_volume   377.83012369
_cell_formula_units_Z   4
loop_
 _symmetry_equiv_pos_site_id
 _symmetry_equiv_pos_as_xyz
  1  'x, y, z'
loop_
 _atom_site_type_symbol
 _atom_site_label
 _atom_site_symmetry_multiplicity
 _atom_site_fract_x
 _atom_site_fract_y
 _atom_site_fract_z
 _atom_site_occupancy
  Ta  Ta0  1  0.56124494  0.93875506  0.56124494  1
  Ta  Ta1  1  0.31124494  0.68875506  0.68875506  1
  Ta  Ta2  1  0.68875506  0.31124494  0.31124494  1
  Ta  Ta3  1  0.31124494  0.68875506  0.31124494  1
  Ta  Ta4  1  0.68875506  0.68875506  0.31124494  1
  Ta  Ta5  1  0.31124494  0.31124494  0.68875506  1
  Ta  Ta6  1  0.56124494  0.56124494  0.93875506  1
  Ta  Ta7  1  0.93875506  0.56124494  0.56124494  1
  Ta  Ta8  1  0.56124494  0.93875506  0.93875506  1
  Ta  Ta9  1  0.93875506  0.93875506  0.56124494  1
  Ta  Ta10  1  0.68875506  0.31124494  0.68875506  1
  Ta  Ta11  1  0.93875506  0.56124494  0.93875506  1
  Al  Al0  1  0.91827518  0.91827518  0.91827518  1
  Al  Al1  1  0.00482353  0.33172482  0.33172482  1
  Al  Al2  1  0.33172482  0.00482353  0.33172482  1
  Al  Al3  1  0.33172482  0.33172482  0.00482353  1
  Al  Al4  1  0.91827518  0.24517647  0.91827518  1
  Al  Al5  1  0.91827518  0.91827518  0.24517647  1
  Al  Al6  1  0.24517647  0.91827518  0.91827518  1
  Al  Al7  1  0.33172482  0.33172482  0.33172482  1
  Co  Co0  1  0.12500000  0.12500000  0.12500000  1
  Co  Co1  1  0.62500000  0.12500000  0.12500000  1
  Co  Co2  1  0.12500000  0.62500000  0.12500000  1
  Co  Co3  1  0.12500000  0.12500000  0.62500000  1
  N  N0  1  0.62500000  0.62500000  0.62500000  1
  N  N1  1  0.12500000  0.62500000  0.62500000  1
  N  N2  1  0.62500000  0.12500000  0.62500000  1
  N  N3  1  0.62500000  0.62500000  0.12500000  1
loop_
_geom_bond_atom_site_label_1
_geom_bond_atom_site_label_2
_geom_bond_distance
_geom_bond_site_symmetry_2
Al0 Co3 2.474124 1_665
Al0 Co1 2.474124 1_566
Al0 Co2 2.474125 1_656
Al0 Al6 2.652694 1_655
Al0 Al5 2.652694 1_556
Al0 Al4 2.652694 1_565
Al0 Ta8 2.741087 1_555
Al0 Ta9 2.741087 1_555
Al0 Ta11 2.741087 1_555
Al0 Ta1 2.949038 1_655
Al0 Ta4 2.949038 1_556
Al0 Ta10 2.949039 1_565
Al1 Co0 2.474120 1_555
Al1 Co3 2.474133 1_555
Al1 Co2 2.474133 1_555
Al1 Al3 2.652694 1_555
Al1 Al7 2.652694 1_555
Al1 Al2 2.652694 1_555
Al1 Ta2 2.741071 1_455
Al1 Ta10 2.741080 1_455
Al1 Ta4 2.741080 1_455
Al1 Ta11 2.949032 1_454
Al1 Ta9 2.949032 1_445
Al1 Ta7 2.949046 1_455
Al2 Co0 2.474120 1_555
Al2 Co1 2.474133 1_555
Al2 Co3 2.474133 1_555
Al2 Al3 2.652694 1_555
Al2 Al7 2.652694 1_555
Al2 Ta3 2.741071 1_545
Al2 Ta4 2.741080 1_545
Al2 Ta1 2.741080 1_545
Al2 Ta9 2.949032 1_445
Al2 Ta8 2.949032 1_544
Al2 Ta0 2.949046 1_545
Al3 Co0 2.474120 1_555
Al3 Co1 2.474133 1_555
Al3 Co2 2.474133 1_555
Al3 Al7 2.652694 1_555
Al3 Ta5 2.741071 1_554
Al3 Ta10 2.741080 1_554
Al3 Ta1 2.741080 1_554
Al3 Ta11 2.949032 1_454
Al3 Ta8 2.949032 1_544
Al3 Ta6 2.949046 1_554
Al4 Co0 2.474120 1_656
Al4 Co1 2.474133 1_556
Al4 Co3 2.474133 1_655
Al4 Al6 2.652694 1_645
Al4 Al5 2.652694 1_546
Al4 Ta11 2.741071 1_555
Al4 Ta6 2.741080 1_555
Al4 Ta7 2.741080 1_555
Al4 Ta5 2.949032 1_655
Al4 Ta2 2.949032 1_556
Al4 Ta10 2.949046 1_555
Al5 Co0 2.474120 1_665
Al5 Co1 2.474133 1_565
Al5 Co2 2.474133 1_655
Al5 Al6 2.652694 1_654
Al5 Ta9 2.741071 1_555
Al5 Ta0 2.741080 1_555
Al5 Ta7 2.741080 1_555
Al5 Ta3 2.949032 1_655
Al5 Ta2 2.949032 1_565
Al5 Ta4 2.949046 1_555
Al6 Co0 2.474120 1_566
Al6 Co3 2.474133 1_565
Al6 Co2 2.474133 1_556
Al6 Ta8 2.741071 1_555
Al6 Ta0 2.741080 1_555
Al6 Ta6 2.741080 1_555
Al6 Ta3 2.949032 1_556
Al6 Ta5 2.949032 1_565
Al6 Ta1 2.949046 1_555
Al7 Co3 2.474124 1_555
Al7 Co1 2.474124 1_555
Al7 Co2 2.474125 1_555
Al7 Ta2 2.741087 1_555
Al7 Ta5 2.741087 1_555
Al7 Ta3 2.741087 1_555
Al7 Ta7 2.949038 1_455
Al7 Ta6 2.949038 1_554
Al7 Ta0 2.949039 1_545
Co0 Ta8 2.946800 1_544
Co0 Ta2 2.946800 1_455
Co0 Ta9 2.946800 1_445
Co0 Ta5 2.946800 1_554
Co0 Ta11 2.946800 1_454
Co0 Ta3 2.946800 1_545
Co1 Ta2 2.946800 1_555
Co1 Ta8 2.946800 1_544
Co1 Ta0 2.946800 1_545
Co1 Ta10 2.946800 1_554
Co1 Ta6 2.946800 1_554
Co1 Ta4 2.946800 1_545
Co2 Ta6 2.946800 1_554
Co2 Ta4 2.946800 1_455
Co2 Ta7 2.946800 1_455
Co2 Ta1 2.946800 1_554
Co2 Ta3 2.946800 1_555
Co2 Ta11 2.946800 1_454
Co3 Ta0 2.946800 1_545
Co3 Ta10 2.946800 1_455
Co3 Ta5 2.946800 1_555
Co3 Ta9 2.946800 1_445
Co3 Ta7 2.946800 1_455
Co3 Ta1 2.946800 1_545
N0 Ta7 2.156569 1_555
N0 Ta1 2.156569 1_555
N0 Ta6 2.156569 1_555
N0 Ta4 2.156569 1_555
N0 Ta0 2.156569 1_555
N0 Ta10 2.156569 1_555
N1 Ta11 2.156569 1_455
N1 Ta3 2.156569 1_555
N1 Ta1 2.156569 1_555
N1 Ta7 2.156569 1_455
N1 Ta9 2.156569 1_455
N1 Ta5 2.156569 1_555
N2 Ta9 2.156569 1_545
N2 Ta5 2.156569 1_555
N2 Ta10 2.156569 1_555
N2 Ta0 2.156569 1_545
N2 Ta8 2.156569 1_545
N2 Ta2 2.156569 1_555
N3 Ta11 2.156569 1_554
N3 Ta3 2.156569 1_555
N3 Ta4 2.156569 1_555
N3 Ta6 2.156569 1_554
N3 Ta8 2.156569 1_554
N3 Ta2 2.156569 1_555
