# generated using pymatgen
data_Li6Hg3(SbS3)4
_symmetry_space_group_name_H-M   'P 1'
_cell_length_a   8.93676037
_cell_length_b   8.93675987
_cell_length_c   8.93676107
_cell_angle_alpha   107.32056141
_cell_angle_beta   107.32056136
_cell_angle_gamma   107.32055520
_symmetry_Int_Tables_number   1
_chemical_formula_structural   Li6Hg3(SbS3)4
_chemical_formula_sum   'Li6 Hg3 Sb4 S12'
_cell_volume   589.13483207
_cell_formula_units_Z   1
loop_
 _symmetry_equiv_pos_site_id
 _symmetry_equiv_pos_as_xyz
  1  'x, y, z'
loop_
 _atom_site_type_symbol
 _atom_site_label
 _atom_site_symmetry_multiplicity
 _atom_site_fract_x
 _atom_site_fract_y
 _atom_site_fract_z
 _atom_site_occupancy
  Li  Li0  1  0.23130292  0.70092802  0.08133681  1
  Li  Li1  1  0.70092802  0.08133681  0.23130292  1
  Li  Li2  1  0.08133681  0.23130292  0.70092802  1
  Li  Li3  1  0.18187396  0.45891247  0.39963584  1
  Li  Li4  1  0.45891247  0.39963584  0.18187396  1
  Li  Li5  1  0.39963584  0.18187396  0.45891247  1
  Hg  Hg0  1  0.92229973  0.78290818  0.31171712  1
  Hg  Hg1  1  0.78290818  0.31171712  0.92229973  1
  Hg  Hg2  1  0.31171712  0.92229973  0.78290818  1
  Sb  Sb0  1  0.62030539  0.83544980  0.55603050  1
  Sb  Sb1  1  0.83544980  0.55603050  0.62030539  1
  Sb  Sb2  1  0.55603050  0.62030539  0.83544980  1
  Sb  Sb3  1  0.98009986  0.98009986  0.98009986  1
  S  S0  1  0.81608357  0.99383075  0.45604109  1
  S  S1  1  0.99383075  0.45604109  0.81608357  1
  S  S2  1  0.45604109  0.81608357  0.99383075  1
  S  S3  1  0.05555829  0.65185765  0.51073075  1
  S  S4  1  0.65185765  0.51073075  0.05555829  1
  S  S5  1  0.51073075  0.05555829  0.65185765  1
  S  S6  1  0.14682299  0.92893636  0.21667303  1
  S  S7  1  0.92893636  0.21667303  0.14682299  1
  S  S8  1  0.21667303  0.14682299  0.92893636  1
  S  S9  1  0.36894964  0.62001296  0.30070133  1
  S  S10  1  0.62001296  0.30070133  0.36894964  1
  S  S11  1  0.30070133  0.36894964  0.62001296  1
loop_
_geom_bond_atom_site_label_1
_geom_bond_atom_site_label_2
_geom_bond_distance
_geom_bond_site_symmetry_2
Li0 S9 2.411871 1_555
Li0 S2 2.426548 1_554
Li0 S1 2.462249 1_454
Li0 S6 2.485381 1_555
Li1 S10 2.411871 1_555
Li1 S0 2.426548 1_545
Li1 S2 2.462249 1_544
Li1 S7 2.485381 1_555
Li2 S11 2.411871 1_555
Li2 S1 2.426548 1_455
Li2 S0 2.462249 1_445
Li2 S8 2.485381 1_555
Li3 S9 2.419606 1_555
Li3 S11 2.420476 1_555
Li3 S7 2.456354 1_455
Li3 S3 2.457690 1_555
Li4 S10 2.419606 1_555
Li4 S9 2.420476 1_555
Li4 S8 2.456354 1_554
Li4 S4 2.457690 1_555
Li5 S11 2.419606 1_555
Li5 S10 2.420476 1_555
Li5 S6 2.456354 1_545
Li5 S5 2.457690 1_555
Hg0 S0 2.542526 1_555
Hg0 S6 2.562473 1_655
Hg0 S3 2.600510 1_655
Hg0 S4 2.624494 1_555
Hg1 S1 2.542526 1_555
Hg1 S7 2.562473 1_556
Hg1 S4 2.600510 1_556
Hg1 S5 2.624494 1_555
Hg2 S2 2.542526 1_555
Hg2 S8 2.562473 1_565
Hg2 S5 2.600510 1_565
Hg2 S3 2.624494 1_555
S0 Sb0 2.464249 1_555
S1 Sb1 2.464249 1_555
S2 Sb2 2.464249 1_555
S3 Sb1 2.490955 1_455
S4 Sb2 2.490955 1_554
S5 Sb0 2.490955 1_545
S6 Sb3 2.450403 1_454
S7 Sb3 2.450402 1_544
S8 Sb3 2.450403 1_445
S9 Sb0 2.390893 1_555
S10 Sb1 2.390893 1_555
S11 Sb2 2.390893 1_555
