# generated using pymatgen
data_Hf8TaPt3O2
_symmetry_space_group_name_H-M   'P 1'
_cell_length_a   8.80337575
_cell_length_b   8.80337614
_cell_length_c   8.67529508
_cell_angle_alpha   60.48012766
_cell_angle_beta   60.48012623
_cell_angle_gamma   60.61857230
_symmetry_Int_Tables_number   1
_chemical_formula_structural   Hf8TaPt3O2
_chemical_formula_sum   'Hf16 Ta2 Pt6 O4'
_cell_volume   481.06098174
_cell_formula_units_Z   2
loop_
 _symmetry_equiv_pos_site_id
 _symmetry_equiv_pos_as_xyz
  1  'x, y, z'
loop_
 _atom_site_type_symbol
 _atom_site_label
 _atom_site_symmetry_multiplicity
 _atom_site_fract_x
 _atom_site_fract_y
 _atom_site_fract_z
 _atom_site_occupancy
  Hf  Hf0  1  0.11091985  0.62276214  0.63315901  1
  Hf  Hf1  1  0.62276214  0.11091985  0.63315901  1
  Hf  Hf2  1  0.63626361  0.63626361  0.08949781  1
  Hf  Hf3  1  0.63626361  0.63626361  0.63797597  1
  Hf  Hf4  1  0.79216725  0.79216725  0.20783275  1
  Hf  Hf5  1  0.18646365  0.18646365  0.81353635  1
  Hf  Hf6  1  0.81077635  0.18817711  0.80755301  1
  Hf  Hf7  1  0.18817711  0.81077635  0.19349353  1
  Hf  Hf8  1  0.18817711  0.81077635  0.80755301  1
  Hf  Hf9  1  0.81077635  0.18817711  0.19349353  1
  Hf  Hf10  1  0.43444683  0.43444683  0.06555317  1
  Hf  Hf11  1  0.06616751  0.06616751  0.43383249  1
  Hf  Hf12  1  0.43170878  0.06076700  0.43232357  1
  Hf  Hf13  1  0.06076700  0.43170878  0.07520064  1
  Hf  Hf14  1  0.06076700  0.43170878  0.43232357  1
  Hf  Hf15  1  0.43170878  0.06076700  0.07520064  1
  Ta  Ta0  1  0.75283037  0.41851107  0.41432878  1
  Ta  Ta1  1  0.41851107  0.75283037  0.41432878  1
  Pt  Pt0  1  0.41862297  0.41862297  0.75876936  1
  Pt  Pt1  1  0.41862297  0.41862297  0.40398471  1
  Pt  Pt2  1  0.44626580  0.85862197  0.84755612  1
  Pt  Pt3  1  0.85862197  0.44626580  0.84755612  1
  Pt  Pt4  1  0.85218898  0.85218898  0.45594720  1
  Pt  Pt5  1  0.85218898  0.85218898  0.83967584  1
  O  O0  1  0.61445665  0.14273406  0.12140514  1
  O  O1  1  0.14273406  0.61445665  0.12140514  1
  O  O2  1  0.12832213  0.12832213  0.62555678  1
  O  O3  1  0.12832213  0.12832213  0.11779796  1
loop_
_geom_bond_atom_site_label_1
_geom_bond_atom_site_label_2
_geom_bond_distance
_geom_bond_site_symmetry_2
Hf0 Pt3 2.697071 1_455
Hf0 Pt4 2.739984 1_455
Hf0 Pt5 2.739989 1_455
Hf0 Pt0 2.820834 1_555
Hf0 Pt1 2.820834 1_555
Hf0 Ta1 2.842882 1_555
Hf1 Pt2 2.697071 1_545
Hf1 Pt4 2.739984 1_545
Hf1 Pt5 2.739989 1_545
Hf1 Pt0 2.820834 1_555
Hf1 Pt1 2.820834 1_555
Hf1 Ta0 2.842882 1_555
Hf2 Pt3 2.689413 1_554
Hf2 Pt2 2.689413 1_554
Hf2 Pt5 2.711034 1_554
Hf2 Pt1 2.843408 1_555
Hf2 Ta1 2.874889 1_555
Hf2 Ta0 2.874889 1_555
Hf3 Pt3 2.689406 1_555
Hf3 Pt2 2.689406 1_555
Hf3 Pt4 2.711034 1_555
Hf3 Pt0 2.843411 1_555
Hf3 Ta1 2.874903 1_555
Hf3 Ta0 2.874903 1_555
Hf4 O1 2.583056 1_655
Hf4 O0 2.583056 1_565
Hf4 Pt5 2.776154 1_554
Hf4 Pt4 2.776162 1_555
Hf4 Ta1 2.974708 1_555
Hf4 Ta0 2.974708 1_555
Hf5 O3 2.255115 1_556
Hf5 O2 2.255123 1_555
Hf5 Pt3 2.645075 1_455
Hf5 Pt2 2.645075 1_545
Hf5 Pt0 3.280966 1_555
Hf5 Pt1 3.280966 1_555
Hf6 O0 2.351216 1_556
Hf6 O2 2.368576 1_655
Hf6 Pt5 2.681241 1_545
Hf6 Pt3 2.705583 1_555
Hf6 Ta0 3.145216 1_555
Hf6 Pt0 3.151885 1_555
Hf7 O1 2.351210 1_555
Hf7 O3 2.368574 1_565
Hf7 Pt4 2.681245 1_455
Hf7 Pt2 2.705583 1_554
Hf7 Ta1 3.145209 1_555
Hf7 Pt1 3.151885 1_555
Hf8 O1 2.351216 1_556
Hf8 O2 2.368576 1_565
Hf8 Pt5 2.681241 1_455
Hf8 Pt2 2.705582 1_555
Hf8 Ta1 3.145216 1_555
Hf8 Pt0 3.151885 1_555
Hf9 O0 2.351210 1_555
Hf9 O3 2.368574 1_655
Hf9 Pt4 2.681245 1_545
Hf9 Pt3 2.705583 1_554
Hf9 Ta0 3.145209 1_555
Hf9 Pt1 3.151885 1_555
Hf10 O1 2.208655 1_555
Hf10 O0 2.208655 1_555
Hf10 Pt0 2.805677 1_554
Hf10 Pt1 2.805677 1_555
Hf11 O2 2.335105 1_555
Hf11 O3 2.335114 1_555
Hf11 Ta1 2.967473 1_545
Hf11 Ta0 2.967473 1_455
Hf12 O2 2.304108 1_555
Hf12 O0 2.308504 1_555
Hf12 Ta1 2.851441 1_545
Hf12 Pt1 2.984447 1_555
Hf13 O3 2.304111 1_555
Hf13 O1 2.308510 1_555
Hf13 Ta0 2.851437 1_455
Hf13 Pt0 2.984447 1_554
Hf14 O2 2.304108 1_555
Hf14 O1 2.308504 1_555
Hf14 Ta0 2.851441 1_455
Hf14 Pt1 2.984446 1_555
Hf15 O3 2.304111 1_555
Hf15 O0 2.308510 1_555
Hf15 Ta1 2.851437 1_545
Hf15 Pt0 2.984447 1_554
Ta0 Ta1 2.970613 1_555
Pt0 Ta0 2.986904 1_555
Pt0 Ta1 2.986905 1_555
Pt1 Ta0 2.986900 1_555
Pt1 Ta1 2.986900 1_555
