# generated using pymatgen
data_TaAg2OsF12
_symmetry_space_group_name_H-M   'P 1'
_cell_length_a   4.97555521
_cell_length_b   4.97555521
_cell_length_c   9.31055293
_cell_angle_alpha   90.00000000
_cell_angle_beta   90.00000000
_cell_angle_gamma   92.16035981
_symmetry_Int_Tables_number   1
_chemical_formula_structural   TaAg2OsF12
_chemical_formula_sum   'Ta1 Ag2 Os1 F12'
_cell_volume   230.32961534
_cell_formula_units_Z   1
loop_
 _symmetry_equiv_pos_site_id
 _symmetry_equiv_pos_as_xyz
  1  'x, y, z'
loop_
 _atom_site_type_symbol
 _atom_site_label
 _atom_site_symmetry_multiplicity
 _atom_site_fract_x
 _atom_site_fract_y
 _atom_site_fract_z
 _atom_site_occupancy
  Ta  Ta0  1  0.00000000  0.00000000  0.50000000  1
  Ag  Ag0  1  0.50000000  0.50000000  0.23684016  1
  Ag  Ag1  1  0.50000000  0.50000000  0.76315984  1
  Os  Os0  1  0.00000000  0.00000000  0.00000000  1
  F  F0  1  0.81008038  0.18991962  0.85717769  1
  F  F1  1  0.18991962  0.81008038  0.85717769  1
  F  F2  1  0.18991962  0.81008038  0.14282231  1
  F  F3  1  0.19746301  0.19746301  0.35571223  1
  F  F4  1  0.72290478  0.72290478  0.00000000  1
  F  F5  1  0.26676084  0.73323916  0.50000000  1
  F  F6  1  0.73323916  0.26676084  0.50000000  1
  F  F7  1  0.27709522  0.27709522  0.00000000  1
  F  F8  1  0.81008038  0.18991962  0.14282231  1
  F  F9  1  0.80253699  0.80253699  0.64428777  1
  F  F10  1  0.19746301  0.19746301  0.64428777  1
  F  F11  1  0.80253699  0.80253699  0.35571223  1
loop_
_geom_bond_atom_site_label_1
_geom_bond_atom_site_label_2
_geom_bond_distance
_geom_bond_site_symmetry_2
Ag0 F11 2.363448 1_555
Ag0 F3 2.363448 1_555
Ag0 F2 2.388788 1_555
Ag0 F8 2.388788 1_555
Ag0 F4 2.688844 1_555
Ag0 F7 2.688844 1_555
Ag1 F9 2.363448 1_555
Ag1 F10 2.363448 1_555
Ag1 F1 2.388788 1_555
Ag1 F0 2.388788 1_555
Ag1 F4 2.688844 1_556
Ag1 F7 2.688844 1_556
F0 Os0 1.903011 1_656
F1 Os0 1.903011 1_566
F2 Os0 1.903011 1_565
F3 Ta0 1.913769 1_555
F4 Os0 1.912677 1_665
F5 Ta0 1.912114 1_565
F6 Ta0 1.912114 1_655
F7 Os0 1.912677 1_555
F8 Os0 1.903011 1_655
F9 Ta0 1.913769 1_665
F10 Ta0 1.913769 1_555
F11 Ta0 1.913769 1_665
