# generated using pymatgen
data_Cs12YScSe8
_symmetry_space_group_name_H-M   'P 1'
_cell_length_a   11.51193317
_cell_length_b   11.51193459
_cell_length_c   8.68716528
_cell_angle_alpha   90.00000000
_cell_angle_beta   90.00000000
_cell_angle_gamma   119.99999871
_symmetry_Int_Tables_number   1
_chemical_formula_structural   Cs12YScSe8
_chemical_formula_sum   'Cs12 Y1 Sc1 Se8'
_cell_volume   997.02327013
_cell_formula_units_Z   1
loop_
 _symmetry_equiv_pos_site_id
 _symmetry_equiv_pos_as_xyz
  1  'x, y, z'
loop_
 _atom_site_type_symbol
 _atom_site_label
 _atom_site_symmetry_multiplicity
 _atom_site_fract_x
 _atom_site_fract_y
 _atom_site_fract_z
 _atom_site_occupancy
  Cs  Cs0  1  0.13383852  0.86616148  0.55288508  1
  Cs  Cs1  1  0.26765890  0.13382945  0.04727579  1
  Cs  Cs2  1  0.86617055  0.73234110  0.04727579  1
  Cs  Cs3  1  0.13383852  0.26767804  0.55288508  1
  Cs  Cs4  1  0.73232196  0.86616148  0.55288508  1
  Cs  Cs5  1  0.86617055  0.13382945  0.04727579  1
  Cs  Cs6  1  0.53331816  0.46668184  0.35609289  1
  Cs  Cs7  1  0.05800113  0.52900056  0.85765487  1
  Cs  Cs8  1  0.47099944  0.94199887  0.85765487  1
  Cs  Cs9  1  0.53331816  0.06663632  0.35609289  1
  Cs  Cs10  1  0.93336368  0.46668184  0.35609289  1
  Cs  Cs11  1  0.47099944  0.52900056  0.85765487  1
  Y  Y0  1  0.33333300  0.66666700  0.25805878  1
  Sc  Sc0  1  0.66666700  0.33333300  0.75613972  1
  Se  Se0  1  0.33333300  0.66666700  0.57197160  1
  Se  Se1  1  0.66666700  0.33333300  0.05498324  1
  Se  Se2  1  0.20433522  0.79566478  0.15503570  1
  Se  Se3  1  0.42163191  0.21081596  0.65714089  1
  Se  Se4  1  0.78918404  0.57836809  0.65714089  1
  Se  Se5  1  0.20433522  0.40867143  0.15503570  1
  Se  Se6  1  0.59132857  0.79566478  0.15503570  1
  Se  Se7  1  0.78918404  0.21081596  0.65714089  1
loop_
_geom_bond_atom_site_label_1
_geom_bond_atom_site_label_2
_geom_bond_distance
_geom_bond_site_symmetry_2
Cs0 Se2 3.731094 1_555
Cs0 Se4 3.793912 1_455
Cs0 Se3 3.793912 1_565
Cs0 Se0 3.981225 1_555
Cs1 Se2 3.704698 1_545
Cs1 Se5 3.704709 1_555
Cs1 Se3 3.720596 1_554
Cs1 Se1 3.978525 1_555
Cs2 Se2 3.704697 1_655
Cs2 Se6 3.704708 1_555
Cs2 Se4 3.720596 1_554
Cs2 Se1 3.978526 1_555
Cs3 Se5 3.731094 1_555
Cs3 Se7 3.793908 1_455
Cs3 Se3 3.793919 1_555
Cs3 Se0 3.981226 1_555
Cs4 Se6 3.731094 1_555
Cs4 Se7 3.793908 1_565
Cs4 Se4 3.793919 1_555
Cs4 Se0 3.981225 1_555
Cs5 Se5 3.704701 1_655
Cs5 Se6 3.704701 1_545
Cs5 Se7 3.720596 1_554
Cs5 Se1 3.978515 1_555
Cs6 Se4 3.658081 1_555
Cs6 Se3 3.658082 1_555
Cs6 Se1 3.729876 1_555
Cs6 Se5 3.912876 1_555
Cs6 Se6 3.912876 1_555
Cs7 Se0 3.700541 1_555
Cs7 Se5 3.710005 1_556
Cs7 Se2 3.710012 1_556
Cs7 Se4 3.833077 1_455
Cs7 Se7 3.833077 1_455
Cs8 Se0 3.700541 1_555
Cs8 Se6 3.710005 1_556
Cs8 Se2 3.710012 1_556
Cs8 Se7 3.833077 1_565
Cs8 Se3 3.833077 1_565
Cs9 Se7 3.658081 1_555
Cs9 Se3 3.658081 1_555
Cs9 Se1 3.729869 1_555
Cs9 Se6 3.912866 1_545
Cs9 Se2 3.912872 1_545
Cs10 Se4 3.658081 1_555
Cs10 Se7 3.658082 1_555
Cs10 Se1 3.729869 1_555
Cs10 Se5 3.912865 1_655
Cs10 Se2 3.912872 1_655
Cs11 Se0 3.700549 1_555
Cs11 Se5 3.710013 1_556
Cs11 Se6 3.710013 1_556
Cs11 Se4 3.833077 1_555
Cs11 Se3 3.833077 1_555
Sc0 Se7 2.589862 1_555
Sc0 Se3 2.589871 1_555
Sc0 Se4 2.589872 1_555
Sc0 Se1 2.596103 1_556
Se0 Y0 2.727013 1_555
Se2 Y0 2.723378 1_555
Se5 Y0 2.723378 1_555
Se6 Y0 2.723378 1_555
