# generated using pymatgen
data_Ta6Co15Si7Rh
_symmetry_space_group_name_H-M   'P 1'
_cell_length_a   7.88541721
_cell_length_b   7.88541673
_cell_length_c   7.88541712
_cell_angle_alpha   59.90657141
_cell_angle_beta   59.90657308
_cell_angle_gamma   59.90657802
_symmetry_Int_Tables_number   1
_chemical_formula_structural   Ta6Co15Si7Rh
_chemical_formula_sum   'Ta6 Co15 Si7 Rh1'
_cell_volume   345.96929949
_cell_formula_units_Z   1
loop_
 _symmetry_equiv_pos_site_id
 _symmetry_equiv_pos_as_xyz
  1  'x, y, z'
loop_
 _atom_site_type_symbol
 _atom_site_label
 _atom_site_symmetry_multiplicity
 _atom_site_fract_x
 _atom_site_fract_y
 _atom_site_fract_z
 _atom_site_occupancy
  Ta  Ta0  1  0.20166556  0.79637493  0.79637493  1
  Ta  Ta1  1  0.20053095  0.80156788  0.20053095  1
  Ta  Ta2  1  0.80156788  0.20053095  0.20053095  1
  Ta  Ta3  1  0.79637493  0.20166556  0.79637493  1
  Ta  Ta4  1  0.79637493  0.79637493  0.20166556  1
  Ta  Ta5  1  0.20053095  0.20053095  0.80156788  1
  Co  Co0  1  0.51169879  0.82986064  0.82986064  1
  Co  Co1  1  0.62045297  0.62045297  0.14487596  1
  Co  Co2  1  0.16216820  0.16216820  0.50819102  1
  Co  Co3  1  0.82986064  0.82986064  0.51169879  1
  Co  Co4  1  0.16597532  0.16597532  0.16597532  1
  Co  Co5  1  0.82916092  0.82916092  0.82916092  1
  Co  Co6  1  0.38065477  0.38065477  0.85754119  1
  Co  Co7  1  0.82986064  0.51169879  0.82986064  1
  Co  Co8  1  0.61915103  0.61915103  0.61915103  1
  Co  Co9  1  0.38065477  0.85754119  0.38065477  1
  Co  Co10  1  0.14487596  0.62045297  0.62045297  1
  Co  Co11  1  0.62045297  0.14487596  0.62045297  1
  Co  Co12  1  0.16216820  0.50819102  0.16216820  1
  Co  Co13  1  0.85754119  0.38065477  0.38065477  1
  Co  Co14  1  0.50819102  0.16216820  0.16216820  1
  Si  Si0  1  0.00114315  0.00114315  0.49779491  1
  Si  Si1  1  0.49961376  0.99412142  0.49961376  1
  Si  Si2  1  0.50427440  0.50427440  0.50427440  1
  Si  Si3  1  0.00114315  0.49779491  0.00114315  1
  Si  Si4  1  0.49961376  0.49961376  0.99412142  1
  Si  Si5  1  0.49779491  0.00114315  0.00114315  1
  Si  Si6  1  0.99412142  0.49961376  0.49961376  1
  Rh  Rh0  1  0.38238484  0.38238484  0.38238484  1
loop_
_geom_bond_atom_site_label_1
_geom_bond_atom_site_label_2
_geom_bond_distance
_geom_bond_site_symmetry_2
Co0 Si5 2.278774 1_566
Co0 Si4 2.282723 1_555
Co0 Si1 2.282723 1_555
Co0 Co8 2.486804 1_555
Co0 Co11 2.497058 1_565
Co0 Co1 2.497058 1_556
Co0 Co5 2.497800 1_555
Co0 Co3 2.505295 1_555
Co0 Co7 2.505295 1_555
Co0 Ta1 2.704915 1_556
Co0 Ta5 2.704915 1_565
Co0 Ta0 2.735110 1_555
Co1 Si2 2.311829 1_555
Co1 Si5 2.450960 1_565
Co1 Si3 2.450960 1_655
Co1 Co5 2.472546 1_554
Co1 Co7 2.497058 1_554
Co1 Si4 2.532084 1_554
Co1 Co9 2.634851 1_555
Co1 Co13 2.634851 1_555
Co1 Rh0 2.652994 1_555
Co1 Ta4 2.687939 1_555
Co1 Ta2 2.761444 1_555
Co1 Ta1 2.761444 1_555
Co2 Si0 2.248741 1_555
Co2 Si6 2.283492 1_455
Co2 Si1 2.283492 1_545
Co2 Co9 2.506915 1_545
Co2 Rh0 2.565907 1_555
Co2 Ta0 2.610864 1_545
Co2 Ta3 2.610864 1_455
Co2 Ta5 2.651450 1_555
Co2 Co4 2.668745 1_555
Co3 Si0 2.278774 1_665
Co3 Si6 2.282723 1_555
Co3 Si1 2.282723 1_555
Co3 Co8 2.486804 1_555
Co3 Co5 2.497800 1_555
Co3 Co7 2.505295 1_555
Co3 Ta2 2.704915 1_565
Co3 Ta1 2.704915 1_655
Co3 Ta4 2.735110 1_555
Co4 Si0 2.257929 1_555
Co4 Si3 2.257929 1_555
Co4 Si5 2.257930 1_555
Co4 Co6 2.502558 1_554
Co4 Co9 2.502558 1_545
Co4 Ta1 2.628609 1_545
Co4 Ta5 2.628609 1_554
Co4 Ta2 2.628609 1_455
Co5 Si0 2.289770 1_665
Co5 Si3 2.289770 1_656
Co5 Si5 2.289770 1_566
Co5 Co7 2.497800 1_555
Co5 Ta3 2.702901 1_565
Co5 Ta4 2.702901 1_556
Co5 Ta0 2.702901 1_655
Co6 Si2 2.273108 1_555
Co6 Si4 2.414206 1_555
Co6 Si5 2.443302 1_556
Co6 Si3 2.443302 1_556
Co6 Co8 2.657754 1_555
Co6 Ta0 2.725452 1_555
Co6 Ta3 2.725452 1_555
Co6 Ta5 2.740447 1_555
Co7 Si3 2.278774 1_656
Co7 Si6 2.282723 1_555
Co7 Si4 2.282723 1_555
Co7 Co8 2.486804 1_555
Co7 Ta2 2.704915 1_556
Co7 Ta5 2.704915 1_655
Co7 Ta3 2.735110 1_555
Co8 Si2 2.220436 1_555
Co8 Si1 2.412624 1_555
Co8 Si4 2.412624 1_555
Co8 Si6 2.412624 1_555
Co8 Co9 2.657754 1_555
Co8 Ta4 2.734014 1_555
Co8 Ta3 2.734014 1_555
Co8 Ta0 2.734014 1_555
Co9 Si2 2.273108 1_555
Co9 Si1 2.414206 1_555
Co9 Si5 2.443302 1_565
Co9 Si0 2.443302 1_565
Co9 Ta0 2.725452 1_555
Co9 Ta4 2.725452 1_555
Co9 Ta1 2.740447 1_555
Co10 Si2 2.311829 1_555
Co10 Si3 2.450960 1_556
Co10 Si0 2.450960 1_565
Co10 Co5 2.472546 1_455
Co10 Co7 2.497058 1_455
Co10 Co3 2.497058 1_455
Co10 Si6 2.532084 1_455
Co10 Co9 2.634851 1_555
Co10 Co6 2.634851 1_555
Co10 Rh0 2.652994 1_555
Co10 Ta0 2.687939 1_555
Co10 Ta5 2.761444 1_555
Co10 Ta1 2.761444 1_555
Co11 Si2 2.311829 1_555
Co11 Si5 2.450960 1_556
Co11 Si0 2.450960 1_655
Co11 Co5 2.472546 1_545
Co11 Co3 2.497058 1_545
Co11 Si1 2.532084 1_545
Co11 Co13 2.634851 1_555
Co11 Co6 2.634851 1_555
Co11 Rh0 2.652994 1_555
Co11 Ta3 2.687939 1_555
Co11 Ta2 2.761444 1_555
Co11 Ta5 2.761444 1_555
Co12 Si3 2.248741 1_555
Co12 Si6 2.283492 1_455
Co12 Si4 2.283492 1_554
Co12 Co13 2.506914 1_455
Co12 Co6 2.506915 1_554
Co12 Rh0 2.565907 1_555
Co12 Ta0 2.610864 1_554
Co12 Ta4 2.610864 1_455
Co12 Ta1 2.651450 1_555
Co12 Co4 2.668745 1_555
Co13 Si2 2.273108 1_555
Co13 Si6 2.414206 1_555
Co13 Si3 2.443302 1_655
Co13 Si0 2.443302 1_655
Co13 Co4 2.502558 1_655
Co13 Co2 2.506915 1_655
Co13 Co8 2.657754 1_555
Co13 Ta4 2.725451 1_555
Co13 Ta3 2.725452 1_555
Co13 Ta2 2.740447 1_555
Co14 Si5 2.248741 1_555
Co14 Si4 2.283492 1_554
Co14 Si1 2.283492 1_545
Co14 Co9 2.506914 1_545
Co14 Co6 2.506915 1_554
Co14 Rh0 2.565907 1_555
Co14 Ta3 2.610864 1_554
Co14 Ta4 2.610864 1_545
Co14 Ta2 2.651450 1_555
Co14 Co4 2.668745 1_555
Si0 Ta1 2.822300 1_545
Si0 Ta2 2.822300 1_455
Si0 Ta3 2.830431 1_455
Si0 Ta0 2.830431 1_545
Si1 Ta0 2.815771 1_555
Si1 Ta4 2.815771 1_555
Si1 Ta2 2.878575 1_565
Si1 Ta5 2.878575 1_565
Si3 Ta2 2.822300 1_455
Si3 Ta5 2.822300 1_554
Si3 Ta0 2.830430 1_554
Si3 Ta4 2.830431 1_455
Si4 Ta3 2.815771 1_555
Si4 Ta0 2.815771 1_555
Si4 Ta1 2.878575 1_556
Si4 Ta2 2.878575 1_556
Si5 Ta1 2.822300 1_545
Si5 Ta5 2.822300 1_554
Si5 Ta3 2.830430 1_554
Si5 Ta4 2.830431 1_545
Si6 Ta3 2.815771 1_555
Si6 Ta4 2.815771 1_555
Si6 Ta1 2.878575 1_655
Si6 Ta5 2.878575 1_655
Rh0 Si2 2.355988 1_555
Rh0 Si1 2.502633 1_545
Rh0 Si4 2.502633 1_554
Rh0 Si6 2.502633 1_455
Rh0 Ta5 2.755722 1_555
Rh0 Ta1 2.755722 1_555
Rh0 Ta2 2.755722 1_555
