# generated using pymatgen
data_Ba13Sr7(Bi2As)4
_symmetry_space_group_name_H-M   'P 1'
_cell_length_a   9.12697790
_cell_length_b   10.39459721
_cell_length_c   13.79119284
_cell_angle_alpha   89.83871300
_cell_angle_beta   90.04386031
_cell_angle_gamma   89.96786610
_symmetry_Int_Tables_number   1
_chemical_formula_structural   Ba13Sr7(Bi2As)4
_chemical_formula_sum   'Ba13 Sr7 Bi8 As4'
_cell_volume   1308.38205320
_cell_formula_units_Z   1
loop_
 _symmetry_equiv_pos_site_id
 _symmetry_equiv_pos_as_xyz
  1  'x, y, z'
loop_
 _atom_site_type_symbol
 _atom_site_label
 _atom_site_symmetry_multiplicity
 _atom_site_fract_x
 _atom_site_fract_y
 _atom_site_fract_z
 _atom_site_occupancy
  Ba  Ba0  1  0.85567480  0.74730842  0.79992705  1
  Ba  Ba1  1  0.14496545  0.25172763  0.20034581  1
  Ba  Ba2  1  0.35488402  0.25461616  0.69972180  1
  Ba  Ba3  1  0.64338960  0.74638102  0.30093964  1
  Ba  Ba4  1  0.31134973  0.03303939  0.42864997  1
  Ba  Ba5  1  0.81718024  0.53607956  0.07368597  1
  Ba  Ba6  1  0.68715725  0.96681921  0.57263303  1
  Ba  Ba7  1  0.81304381  0.96730790  0.07252903  1
  Ba  Ba8  1  0.18721380  0.03514057  0.92495476  1
  Ba  Ba9  1  0.32731843  0.74677519  0.71549186  1
  Ba  Ba10  1  0.67061814  0.25226892  0.28674779  1
  Ba  Ba11  1  0.82628615  0.25242762  0.78342802  1
  Ba  Ba12  1  0.17459639  0.74840691  0.21596218  1
  Sr  Sr0  1  0.04236278  0.74415671  0.50238375  1
  Sr  Sr1  1  0.95734172  0.25558229  0.49891846  1
  Sr  Sr2  1  0.54106294  0.25298016  0.99797490  1
  Sr  Sr3  1  0.45489799  0.74772319  0.00112751  1
  Sr  Sr4  1  0.68302490  0.53551663  0.57328941  1
  Sr  Sr5  1  0.31606476  0.46456498  0.42688056  1
  Sr  Sr6  1  0.18631300  0.46509283  0.92562938  1
  Bi  Bi0  1  0.55832807  0.50933593  0.83166470  1
  Bi  Bi1  1  0.43608219  0.48944891  0.16934223  1
  Bi  Bi2  1  0.05838411  0.49040897  0.66917057  1
  Bi  Bi3  1  0.43658586  0.00938927  0.16776760  1
  Bi  Bi4  1  0.94103582  0.50949964  0.33480470  1
  Bi  Bi5  1  0.56381614  0.99171731  0.83253410  1
  Bi  Bi6  1  0.93537346  0.99071359  0.33375334  1
  Bi  Bi7  1  0.06390166  0.00862181  0.66524684  1
  As  As0  1  0.08817667  0.74296094  0.98300660  1
  As  As1  1  0.92421707  0.25398857  0.01105988  1
  As  As2  1  0.58156521  0.26078614  0.51568051  1
  As  As3  1  0.41778484  0.73921163  0.48474804  1
loop_
_geom_bond_atom_site_label_1
_geom_bond_atom_site_label_2
_geom_bond_distance
_geom_bond_site_symmetry_2
Ba0 Bi0 3.698486 1_555
Ba0 Bi5 3.708499 1_555
Ba0 Bi2 3.719185 1_655
Ba0 Bi7 3.797705 1_665
Ba1 Bi1 3.653989 1_555
Ba1 Bi3 3.692173 1_555
Ba1 Bi4 3.756320 1_455
Ba1 Bi6 3.793231 1_445
Ba2 Bi2 3.673285 1_555
Ba2 Bi0 3.714401 1_555
Ba2 Bi7 3.718886 1_555
Ba2 Bi5 3.797324 1_545
Ba3 Bi4 3.693919 1_555
Ba3 Bi6 3.710678 1_555
Ba3 Bi1 3.746222 1_555
Ba3 Bi3 3.790829 1_565
Ba4 Bi6 3.698621 1_445
Ba4 Bi3 3.784526 1_555
Ba4 Bi7 3.977330 1_555
Ba5 Bi1 3.752195 1_555
Ba5 Bi4 3.782885 1_555
Ba5 Bi0 4.097976 1_554
Ba6 Bi7 3.693482 1_665
Ba6 Bi5 3.767341 1_555
Ba6 Bi6 4.006841 1_555
Ba7 Bi3 3.705472 1_565
Ba7 Bi6 3.779356 1_555
Ba7 Bi5 4.022014 1_554
Ba8 Bi5 3.694746 1_545
Ba8 Bi7 3.764418 1_555
Ba8 Bi3 4.055630 1_556
Ba9 Bi0 3.615319 1_555
Ba9 Bi2 3.680864 1_555
Ba9 Bi7 3.694316 1_565
Ba9 Bi5 3.710945 1_555
Ba10 Bi1 3.639825 1_555
Ba10 Bi6 3.692057 1_545
Ba10 Bi3 3.694970 1_555
Ba10 Bi4 3.700660 1_555
Ba11 Bi2 3.616453 1_655
Ba11 Bi5 3.679777 1_545
Ba11 Bi0 3.682425 1_555
Ba11 Bi7 3.715473 1_655
Ba12 Bi1 3.655079 1_555
Ba12 Bi4 3.658659 1_455
Ba12 Bi3 3.676732 1_565
Ba12 Bi6 3.711084 1_455
Bi0 Sr2 3.514659 1_555
Bi0 Sr3 3.539307 1_556
Bi0 Sr6 3.663947 1_555
Bi0 Sr4 3.750676 1_555
Bi1 Sr2 3.546663 1_554
Bi1 Sr3 3.547505 1_555
Bi1 Sr5 3.725977 1_555
Bi1 Sr6 4.068352 1_554
Bi2 Sr0 3.497729 1_555
Bi2 Sr1 3.514697 1_455
Bi2 Sr4 3.700391 1_455
Bi2 Sr6 3.732306 1_555
Bi2 Sr5 4.096966 1_555
Bi3 Sr3 3.569692 1_545
Bi3 Sr2 3.574422 1_554
Bi4 Sr1 3.475121 1_555
Bi4 Sr0 3.489563 1_655
Bi4 Sr5 3.678990 1_655
Bi4 Sr4 4.056119 1_555
Bi5 Sr2 3.557958 1_565
Bi5 Sr3 3.577697 1_556
Bi6 Sr1 3.583858 1_565
Bi6 Sr0 3.590324 1_655
Bi7 Sr0 3.560231 1_545
Bi7 Sr1 3.571851 1_455
As0 Sr6 3.127603 1_555
As0 Ba8 3.266869 1_565
As0 Ba0 3.297148 1_455
As0 Ba12 3.308201 1_556
As0 Sr3 3.356587 1_556
As0 Ba5 3.507354 1_456
As0 Ba7 3.644539 1_456
As1 Ba5 3.211012 1_555
As1 Ba7 3.258633 1_545
As1 Ba11 3.263506 1_554
As1 Ba1 3.296359 1_655
As1 Sr6 3.452720 1_654
As1 Sr2 3.501577 1_554
As1 Ba8 3.515711 1_654
As2 Sr4 3.107804 1_555
As2 Ba10 3.262229 1_555
As2 Ba2 3.276277 1_555
As2 Ba6 3.296186 1_545
As2 Sr1 3.438068 1_555
As2 Sr5 3.440004 1_555
As2 Ba4 3.625644 1_555
As3 Sr5 3.108634 1_555
As3 Ba3 3.267784 1_555
As3 Ba9 3.289362 1_555
As3 Ba4 3.294346 1_565
As3 Sr0 3.435642 1_555
As3 Sr4 3.436535 1_555
As3 Ba6 3.623406 1_555
