# generated using pymatgen
data_ScAl2(VGa)2
_symmetry_space_group_name_H-M   'P 1'
_cell_length_a   5.29366784
_cell_length_b   5.29366807
_cell_length_c   5.24952483
_cell_angle_alpha   103.73412421
_cell_angle_beta   103.73412580
_cell_angle_gamma   121.94641996
_symmetry_Int_Tables_number   1
_chemical_formula_structural   ScAl2(VGa)2
_chemical_formula_sum   'Sc1 Al2 V2 Ga2'
_cell_volume   108.86337496
_cell_formula_units_Z   1
loop_
 _symmetry_equiv_pos_site_id
 _symmetry_equiv_pos_as_xyz
  1  'x, y, z'
loop_
 _atom_site_type_symbol
 _atom_site_label
 _atom_site_symmetry_multiplicity
 _atom_site_fract_x
 _atom_site_fract_y
 _atom_site_fract_z
 _atom_site_occupancy
  Sc  Sc0  1  0.00000000  0.00000000  0.00000000  1
  Al  Al0  1  0.30449334  0.30449334  0.60898867  1
  Al  Al1  1  0.69550666  0.69550666  0.39101133  1
  V  V0  1  0.25000000  0.75000000  0.50000000  1
  V  V1  1  0.75000000  0.25000000  0.50000000  1
  Ga  Ga0  1  0.70039451  0.29960549  1.00000000  1
  Ga  Ga1  1  0.29960549  0.70039451  0.00000000  1
loop_
_geom_bond_atom_site_label_1
_geom_bond_atom_site_label_2
_geom_bond_distance
_geom_bond_site_symmetry_2
Al0 Ga0 2.578010 1_555
Al0 Ga1 2.578010 1_556
Al0 V1 2.693453 1_455
Al0 V0 2.693453 1_545
Al0 V1 2.693458 1_555
Al0 V0 2.693458 1_555
Al0 Al1 2.755625 1_445
Al0 Al1 2.755644 1_555
Al0 Sc0 2.788070 1_555
Al0 Sc0 3.130840 1_556
Al0 Sc0 3.130849 1_666
Al1 Ga1 2.578010 1_555
Al1 Ga0 2.578010 1_554
Al1 V0 2.693453 1_655
Al1 V1 2.693453 1_565
Al1 V0 2.693458 1_555
Al1 V1 2.693458 1_555
Al1 Sc0 2.788070 1_666
Al1 Sc0 3.130840 1_665
Al1 Sc0 3.130849 1_555
V0 V1 2.568586 1_455
V0 V1 2.568586 1_565
Ga0 V1 2.664632 1_556
Ga0 V1 2.664632 1_555
Ga0 V0 2.664632 1_656
Ga0 V0 2.664632 1_545
Ga0 Ga1 2.727851 1_656
Ga0 Ga1 2.727851 1_546
Ga0 Sc0 2.773595 1_656
Ga0 Sc0 3.168472 1_556
Ga0 Sc0 3.168472 1_666
Ga1 V0 2.664632 1_554
Ga1 V0 2.664632 1_555
Ga1 V1 2.664632 1_454
Ga1 V1 2.664632 1_565
Ga1 Sc0 2.773595 1_565
Ga1 Sc0 3.168472 1_665
Ga1 Sc0 3.168472 1_555
