# generated using pymatgen
data_Zr3Nb2ZnSn3
_symmetry_space_group_name_H-M   'P 1'
_cell_length_a   8.53401800
_cell_length_b   8.53401824
_cell_length_c   5.74310354
_cell_angle_alpha   90.00000000
_cell_angle_beta   90.00000000
_cell_angle_gamma   119.99999526
_symmetry_Int_Tables_number   1
_chemical_formula_structural   Zr3Nb2ZnSn3
_chemical_formula_sum   'Zr6 Nb4 Zn2 Sn6'
_cell_volume   362.23000357
_cell_formula_units_Z   2
loop_
 _symmetry_equiv_pos_site_id
 _symmetry_equiv_pos_as_xyz
  1  'x, y, z'
loop_
 _atom_site_type_symbol
 _atom_site_label
 _atom_site_symmetry_multiplicity
 _atom_site_fract_x
 _atom_site_fract_y
 _atom_site_fract_z
 _atom_site_occupancy
  Zr  Zr0  1  0.73009727  0.73009727  0.75000000  1
  Zr  Zr1  1  0.26990273  0.00000000  0.75000000  1
  Zr  Zr2  1  0.00000000  0.26990273  0.75000000  1
  Zr  Zr3  1  0.26990273  0.26990273  0.25000000  1
  Zr  Zr4  1  0.73009727  1.00000000  0.25000000  1
  Zr  Zr5  1  1.00000000  0.73009727  0.25000000  1
  Nb  Nb0  1  0.66666700  0.33333300  0.00000000  1
  Nb  Nb1  1  0.33333300  0.66666700  0.00000000  1
  Nb  Nb2  1  0.33333300  0.66666700  0.50000000  1
  Nb  Nb3  1  0.66666700  0.33333300  0.50000000  1
  Zn  Zn0  1  0.00000000  0.00000000  0.00000000  1
  Zn  Zn1  1  0.00000000  0.00000000  0.50000000  1
  Sn  Sn0  1  0.38726222  0.38726222  0.75000000  1
  Sn  Sn1  1  0.61273778  0.00000000  0.75000000  1
  Sn  Sn2  1  0.00000000  0.61273778  0.75000000  1
  Sn  Sn3  1  0.61273778  0.61273778  0.25000000  1
  Sn  Sn4  1  0.38726222  1.00000000  0.25000000  1
  Sn  Sn5  1  1.00000000  0.38726222  0.25000000  1
loop_
_geom_bond_atom_site_label_1
_geom_bond_atom_site_label_2
_geom_bond_distance
_geom_bond_site_symmetry_2
Nb0 Nb3 2.871552 1_555
Nb0 Nb3 2.871552 1_554
Nb0 Sn5 3.009353 1_555
Nb0 Sn1 3.009353 1_554
Nb0 Sn2 3.009355 1_654
Nb0 Sn4 3.009355 1_545
Nb0 Sn0 3.009360 1_554
Nb0 Sn3 3.009360 1_555
Nb1 Nb2 2.871552 1_555
Nb1 Nb2 2.871552 1_554
Nb1 Sn2 3.009353 1_554
Nb1 Sn4 3.009353 1_555
Nb1 Sn5 3.009355 1_455
Nb1 Sn1 3.009355 1_564
Nb1 Sn3 3.009360 1_555
Nb1 Sn0 3.009360 1_554
Nb2 Sn2 3.009353 1_555
Nb2 Sn4 3.009353 1_555
Nb2 Sn5 3.009355 1_455
Nb2 Sn1 3.009355 1_565
Nb2 Sn3 3.009360 1_555
Nb2 Sn0 3.009360 1_555
Nb3 Sn5 3.009353 1_555
Nb3 Sn1 3.009353 1_555
Nb3 Sn2 3.009355 1_655
Nb3 Sn4 3.009355 1_545
Nb3 Sn0 3.009360 1_555
Nb3 Sn3 3.009360 1_555
Zn0 Zr1 2.714203 1_554
Zn0 Zr4 2.714203 1_445
Zn0 Zr2 2.714203 1_554
Zn0 Zr5 2.714203 1_445
Zn0 Zr3 2.714203 1_555
Zn0 Zr0 2.714203 1_444
Zn0 Zn1 2.871552 1_555
Zn0 Zn1 2.871552 1_554
Zn1 Zr1 2.714203 1_555
Zn1 Zr4 2.714203 1_445
Zn1 Zr2 2.714203 1_555
Zn1 Zr5 2.714203 1_445
Zn1 Zr3 2.714203 1_555
Zn1 Zr0 2.714203 1_445
Sn0 Zr0 2.925761 1_555
Sn0 Zr2 2.935211 1_555
Sn0 Zr1 2.935211 1_555
Sn0 Zr3 3.041202 1_555
Sn0 Zr3 3.041202 1_556
Sn1 Zr1 2.925760 1_555
Sn1 Zr0 2.935211 1_545
Sn1 Zr2 2.935211 1_655
Sn1 Zr4 3.041202 1_546
Sn1 Zr4 3.041202 1_545
Sn2 Zr2 2.925761 1_555
Sn2 Zr0 2.935211 1_455
Sn2 Zr1 2.935211 1_565
Sn2 Zr5 3.041202 1_455
Sn2 Zr5 3.041202 1_456
Sn3 Zr3 2.925761 1_555
Sn3 Zr5 2.935211 1_555
Sn3 Zr4 2.935211 1_555
Sn3 Zr0 3.041202 1_555
Sn3 Zr0 3.041202 1_554
Sn4 Zr4 2.925760 1_555
Sn4 Zr3 2.935211 1_565
Sn4 Zr5 2.935211 1_455
Sn4 Zr1 3.041202 1_565
Sn4 Zr1 3.041202 1_564
Sn5 Zr5 2.925761 1_555
Sn5 Zr3 2.935211 1_655
Sn5 Zr4 2.935211 1_545
Sn5 Zr2 3.041202 1_655
Sn5 Zr2 3.041202 1_654
