# generated using pymatgen
data_Ba4TaVO8
_symmetry_space_group_name_H-M   'P 1'
_cell_length_a   7.30110538
_cell_length_b   7.30110593
_cell_length_c   5.75290264
_cell_angle_alpha   90.00000000
_cell_angle_beta   90.00000000
_cell_angle_gamma   133.35073311
_symmetry_Int_Tables_number   1
_chemical_formula_structural   Ba4TaVO8
_chemical_formula_sum   'Ba4 Ta1 V1 O8'
_cell_volume   222.99615875
_cell_formula_units_Z   1
loop_
 _symmetry_equiv_pos_site_id
 _symmetry_equiv_pos_as_xyz
  1  'x, y, z'
loop_
 _atom_site_type_symbol
 _atom_site_label
 _atom_site_symmetry_multiplicity
 _atom_site_fract_x
 _atom_site_fract_y
 _atom_site_fract_z
 _atom_site_occupancy
  Ba  Ba0  1  0.64694213  0.35305787  0.00000000  1
  Ba  Ba1  1  0.14391875  0.85608125  0.50000000  1
  Ba  Ba2  1  0.85608125  0.14391875  0.50000000  1
  Ba  Ba3  1  0.35305787  0.64694213  0.00000000  1
  Ta  Ta0  1  0.50000000  0.50000000  0.50000000  1
  V  V0  1  0.00000000  0.00000000  0.00000000  1
  O  O0  1  0.74442596  0.74442596  0.74494274  1
  O  O1  1  0.25557404  0.25557404  0.25505726  1
  O  O2  1  0.25557404  0.25557404  0.74494274  1
  O  O3  1  0.74442596  0.74442596  0.25505726  1
  O  O4  1  0.84979619  0.15020381  0.00000000  1
  O  O5  1  0.34909125  0.65090875  0.50000000  1
  O  O6  1  0.65090875  0.34909125  0.50000000  1
  O  O7  1  0.15020381  0.84979619  0.00000000  1
loop_
_geom_bond_atom_site_label_1
_geom_bond_atom_site_label_2
_geom_bond_distance
_geom_bond_site_symmetry_2
Ba0 O4 2.720042 1_555
Ba0 O2 2.834127 1_554
Ba0 O1 2.834127 1_555
Ba0 O0 2.834127 1_554
Ba0 O3 2.834127 1_555
Ba0 O6 2.876943 1_555
Ba0 O6 2.876943 1_554
Ba0 O7 2.891133 1_655
Ba0 O7 2.891133 1_545
Ba1 O5 2.751130 1_555
Ba1 O3 2.809469 1_455
Ba1 O0 2.809469 1_455
Ba1 O1 2.809469 1_565
Ba1 O2 2.809469 1_565
Ba1 O7 2.877686 1_556
Ba1 O7 2.877686 1_555
Ba1 O6 2.892321 1_565
Ba1 O6 2.892321 1_455
Ba2 O6 2.751130 1_555
Ba2 O1 2.809469 1_655
Ba2 O2 2.809469 1_655
Ba2 O3 2.809469 1_545
Ba2 O0 2.809469 1_545
Ba2 O4 2.877686 1_556
Ba2 O4 2.877686 1_555
Ba2 O5 2.892321 1_545
Ba2 O5 2.892321 1_655
Ba3 O7 2.720042 1_555
Ba3 O0 2.834127 1_554
Ba3 O3 2.834127 1_555
Ba3 O2 2.834127 1_554
Ba3 O1 2.834127 1_555
Ba3 O5 2.876943 1_554
Ba3 O5 2.876943 1_555
Ba3 O4 2.891133 1_455
Ba3 O4 2.891133 1_565
O0 Ta0 1.995674 1_555
O0 V0 2.082405 1_666
O1 Ta0 1.995674 1_555
O1 V0 2.082405 1_555
O2 Ta0 1.995674 1_555
O2 V0 2.082405 1_556
O3 Ta0 1.995674 1_555
O3 V0 2.082405 1_665
O4 V0 2.014062 1_655
O5 Ta0 2.023515 1_555
O6 Ta0 2.023515 1_555
O7 V0 2.014062 1_565
