# generated using pymatgen
data_NaP5
_symmetry_space_group_name_H-M   'P 1'
_cell_length_a   6.52865109
_cell_length_b   7.00711307
_cell_length_c   10.99345085
_cell_angle_alpha   90.00000000
_cell_angle_beta   90.00000000
_cell_angle_gamma   90.00000000
_symmetry_Int_Tables_number   1
_chemical_formula_structural   NaP5
_chemical_formula_sum   'Na4 P20'
_cell_volume   502.91735626
_cell_formula_units_Z   4
loop_
 _symmetry_equiv_pos_site_id
 _symmetry_equiv_pos_as_xyz
  1  'x, y, z'
loop_
 _atom_site_type_symbol
 _atom_site_label
 _atom_site_symmetry_multiplicity
 _atom_site_fract_x
 _atom_site_fract_y
 _atom_site_fract_z
 _atom_site_occupancy
  Na  Na0  1  0.25000000  0.09297248  0.42581468  1
  Na  Na1  1  0.75000000  0.90702752  0.57418532  1
  Na  Na2  1  0.75000000  0.59297248  0.07418532  1
  Na  Na3  1  0.25000000  0.40702752  0.92581468  1
  P  P0  1  0.01272769  0.09224748  0.08230042  1
  P  P1  1  0.51272769  0.90775252  0.91769958  1
  P  P2  1  0.98727231  0.59224748  0.41769958  1
  P  P3  1  0.48727231  0.40775252  0.58230042  1
  P  P4  1  0.98727231  0.90775252  0.91769958  1
  P  P5  1  0.48727231  0.09224748  0.08230042  1
  P  P6  1  0.01272769  0.40775252  0.58230042  1
  P  P7  1  0.51272769  0.59224748  0.41769958  1
  P  P8  1  0.25000000  0.63310432  0.14085440  1
  P  P9  1  0.75000000  0.36689568  0.85914560  1
  P  P10  1  0.75000000  0.13310432  0.35914560  1
  P  P11  1  0.25000000  0.86689568  0.64085440  1
  P  P12  1  0.25000000  0.47970436  0.31075075  1
  P  P13  1  0.75000000  0.52029564  0.68924925  1
  P  P14  1  0.75000000  0.97970436  0.18924925  1
  P  P15  1  0.25000000  0.02029564  0.81075075  1
  P  P16  1  0.25000000  0.56509140  0.68577858  1
  P  P17  1  0.75000000  0.43490860  0.31422142  1
  P  P18  1  0.75000000  0.06509140  0.81422142  1
  P  P19  1  0.25000000  0.93490860  0.18577858  1
loop_
_geom_bond_atom_site_label_1
_geom_bond_atom_site_label_2
_geom_bond_distance
_geom_bond_site_symmetry_2
Na0 P11 2.845725 1_545
Na0 P19 2.861837 1_545
Na0 P12 2.990571 1_555
Na0 P3 3.197533 1_555
Na0 P6 3.197533 1_555
Na0 P10 3.357391 1_455
Na0 P10 3.357391 1_555
Na1 P10 2.845725 1_565
Na1 P18 2.861837 1_565
Na1 P13 2.990571 1_555
Na1 P2 3.197533 1_555
Na1 P7 3.197533 1_555
Na1 P11 3.357391 1_555
Na1 P11 3.357391 1_655
Na2 P9 2.845725 1_554
Na2 P17 2.861837 1_555
Na2 P14 2.990571 1_555
Na2 P4 3.197533 1_554
Na2 P1 3.197533 1_554
Na2 P8 3.357391 1_555
Na2 P8 3.357391 1_655
Na3 P8 2.845725 1_556
Na3 P16 2.861837 1_555
Na3 P15 2.990571 1_555
Na3 P5 3.197533 1_556
Na3 P0 3.197533 1_556
Na3 P9 3.357391 1_555
Na3 P9 3.357391 1_455
P0 P19 2.215670 1_545
P0 P14 2.224041 1_445
P0 P4 2.230088 1_444
P1 P18 2.215670 1_565
P1 P15 2.224041 1_565
P1 P5 2.230088 1_566
P2 P6 2.230088 1_655
P3 P7 2.230088 1_555
P10 P14 2.154964 1_545
P10 P17 2.171679 1_555
P11 P15 2.154964 1_565
P11 P16 2.171679 1_555
P12 P8 2.154964 1_555
P12 P7 2.224041 1_555
P12 P2 2.224041 1_455
P13 P9 2.154964 1_555
P13 P6 2.224041 1_655
P13 P3 2.224041 1_555
P14 P5 2.224041 1_565
P15 P4 2.224041 1_445
P16 P6 2.215670 1_555
P16 P3 2.215670 1_555
P17 P7 2.215670 1_555
P17 P2 2.215670 1_555
P18 P9 2.171679 1_555
P18 P4 2.215670 1_545
P19 P8 2.171679 1_555
P19 P5 2.215670 1_565
