# generated using pymatgen
data_Ta3Ga2PdC
_symmetry_space_group_name_H-M   'P 1'
_cell_length_a   8.30246930
_cell_length_b   8.30246925
_cell_length_c   8.30247362
_cell_angle_alpha   59.99995910
_cell_angle_beta   59.99995934
_cell_angle_gamma   59.99991167
_symmetry_Int_Tables_number   1
_chemical_formula_structural   Ta3Ga2PdC
_chemical_formula_sum   'Ta12 Ga8 Pd4 C4'
_cell_volume   404.67511895
_cell_formula_units_Z   4
loop_
 _symmetry_equiv_pos_site_id
 _symmetry_equiv_pos_as_xyz
  1  'x, y, z'
loop_
 _atom_site_type_symbol
 _atom_site_label
 _atom_site_symmetry_multiplicity
 _atom_site_fract_x
 _atom_site_fract_y
 _atom_site_fract_z
 _atom_site_occupancy
  Ta  Ta0  1  0.56849464  0.93150536  0.56849464  1
  Ta  Ta1  1  0.31849464  0.68150536  0.68150536  1
  Ta  Ta2  1  0.68150536  0.31849464  0.31849464  1
  Ta  Ta3  1  0.31849464  0.68150536  0.31849464  1
  Ta  Ta4  1  0.68150536  0.68150536  0.31849364  1
  Ta  Ta5  1  0.31849464  0.31849464  0.68150536  1
  Ta  Ta6  1  0.56849464  0.56849464  0.93150636  1
  Ta  Ta7  1  0.93150536  0.56849464  0.56849464  1
  Ta  Ta8  1  0.56849464  0.93150536  0.93150536  1
  Ta  Ta9  1  0.93150536  0.93150536  0.56849464  1
  Ta  Ta10  1  0.68150536  0.31849464  0.68150536  1
  Ta  Ta11  1  0.93150536  0.56849464  0.93150536  1
  Ga  Ga0  1  0.91468625  0.91468625  0.91468525  1
  Ga  Ga1  1  0.99405674  0.33531375  0.33531475  1
  Ga  Ga2  1  0.33531375  0.99405674  0.33531475  1
  Ga  Ga3  1  0.33531375  0.33531375  0.99405674  1
  Ga  Ga4  1  0.91468625  0.25594326  0.91468525  1
  Ga  Ga5  1  0.91468625  0.91468625  0.25594326  1
  Ga  Ga6  1  0.25594326  0.91468625  0.91468525  1
  Ga  Ga7  1  0.33531375  0.33531375  0.33531475  1
  Pd  Pd0  1  0.12500000  0.12500000  0.12500000  1
  Pd  Pd1  1  0.62500000  0.12500000  0.12500000  1
  Pd  Pd2  1  0.12500000  0.62500000  0.12500000  1
  Pd  Pd3  1  0.12500000  0.12500000  0.62500000  1
  C  C0  1  0.62500000  0.62500000  0.62500000  1
  C  C1  1  0.12500000  0.62500000  0.62500000  1
  C  C2  1  0.62500000  0.12500000  0.62500000  1
  C  C3  1  0.62500000  0.62500000  0.12500000  1
loop_
_geom_bond_atom_site_label_1
_geom_bond_atom_site_label_2
_geom_bond_distance
_geom_bond_site_symmetry_2
Ga0 Pd3 2.555807 1_665
Ga0 Pd2 2.555812 1_656
Ga0 Pd1 2.555812 1_566
Ga0 Ta9 2.741719 1_555
Ga0 Ta11 2.741722 1_555
Ga0 Ta8 2.741722 1_555
Ga1 Pd3 2.555811 1_655
Ga1 Pd0 2.555811 1_655
Ga1 Pd2 2.555818 1_655
Ga1 Ta10 2.741714 1_555
Ga1 Ta2 2.741715 1_555
Ga1 Ta4 2.741715 1_555
Ga2 Pd3 2.555811 1_565
Ga2 Pd0 2.555811 1_565
Ga2 Pd1 2.555818 1_565
Ga2 Ta1 2.741714 1_555
Ga2 Ta3 2.741715 1_555
Ga2 Ta4 2.741715 1_555
Ga3 Pd0 2.555805 1_556
Ga3 Pd2 2.555816 1_556
Ga3 Pd1 2.555816 1_556
Ga3 Ta5 2.741711 1_555
Ga3 Ta1 2.741718 1_555
Ga3 Ta10 2.741718 1_555
Ga4 Pd3 2.555811 1_655
Ga4 Pd0 2.555811 1_656
Ga4 Pd1 2.555818 1_556
Ga4 Ta7 2.741714 1_555
Ga4 Ta11 2.741715 1_555
Ga4 Ta6 2.741715 1_555
Ga5 Pd0 2.555805 1_665
Ga5 Pd2 2.555816 1_655
Ga5 Pd1 2.555816 1_565
Ga5 Ta9 2.741711 1_555
Ga5 Ta7 2.741718 1_555
Ga5 Ta0 2.741718 1_555
Ga6 Pd3 2.555811 1_565
Ga6 Pd0 2.555811 1_566
Ga6 Pd2 2.555818 1_556
Ga6 Ta0 2.741714 1_555
Ga6 Ta8 2.741715 1_555
Ga6 Ta6 2.741715 1_555
Ga7 Pd3 2.555807 1_555
Ga7 Pd2 2.555812 1_555
Ga7 Pd1 2.555812 1_555
Ga7 Ta5 2.741719 1_555
Ga7 Ta3 2.741722 1_555
Ga7 Ta2 2.741722 1_555
Pd0 Ta11 3.077295 1_454
Pd0 Ta3 3.077295 1_545
Pd0 Ta8 3.077295 1_544
Pd0 Ta2 3.077295 1_455
Pd0 Ta5 3.077298 1_554
Pd0 Ta9 3.077298 1_445
Pd1 Ta6 3.077296 1_554
Pd1 Ta4 3.077296 1_545
Pd1 Ta0 3.077299 1_545
Pd1 Ta10 3.077299 1_554
Pd1 Ta2 3.077300 1_555
Pd1 Ta8 3.077300 1_544
Pd2 Ta6 3.077297 1_554
Pd2 Ta4 3.077297 1_455
Pd2 Ta7 3.077299 1_455
Pd2 Ta1 3.077299 1_554
Pd2 Ta3 3.077300 1_555
Pd2 Ta11 3.077300 1_454
Pd3 Ta7 3.077295 1_455
Pd3 Ta1 3.077295 1_545
Pd3 Ta0 3.077295 1_545
Pd3 Ta10 3.077295 1_455
Pd3 Ta5 3.077300 1_555
Pd3 Ta9 3.077300 1_445
C0 Ta0 2.179072 1_555
C0 Ta10 2.179072 1_555
C0 Ta7 2.179072 1_555
C0 Ta1 2.179072 1_555
C0 Ta6 2.179082 1_555
C0 Ta4 2.179082 1_555
C1 Ta9 2.179071 1_455
C1 Ta5 2.179071 1_555
C1 Ta3 2.179073 1_555
C1 Ta11 2.179073 1_455
C1 Ta1 2.179074 1_555
C1 Ta7 2.179074 1_455
C2 Ta5 2.179071 1_555
C2 Ta9 2.179071 1_545
C2 Ta2 2.179073 1_555
C2 Ta8 2.179073 1_545
C2 Ta10 2.179074 1_555
C2 Ta0 2.179074 1_545
C3 Ta4 2.179067 1_555
C3 Ta6 2.179067 1_554
C3 Ta8 2.179072 1_554
C3 Ta2 2.179072 1_555
C3 Ta11 2.179072 1_554
C3 Ta3 2.179072 1_555
