# generated using pymatgen
data_Cs3P5RuSe10
_symmetry_space_group_name_H-M   'P 1'
_cell_length_a   7.44204259
_cell_length_b   11.84086277
_cell_length_c   13.10816036
_cell_angle_alpha   89.75489801
_cell_angle_beta   90.00000000
_cell_angle_gamma   90.00000000
_symmetry_Int_Tables_number   1
_chemical_formula_structural   Cs3P5RuSe10
_chemical_formula_sum   'Cs6 P10 Ru2 Se20'
_cell_volume   1155.08320927
_cell_formula_units_Z   2
loop_
 _symmetry_equiv_pos_site_id
 _symmetry_equiv_pos_as_xyz
  1  'x, y, z'
loop_
 _atom_site_type_symbol
 _atom_site_label
 _atom_site_symmetry_multiplicity
 _atom_site_fract_x
 _atom_site_fract_y
 _atom_site_fract_z
 _atom_site_occupancy
  Cs  Cs0  1  0.25000000  0.99286387  0.61840186  1
  Cs  Cs1  1  0.75000000  0.00713613  0.38159814  1
  Cs  Cs2  1  0.25000000  0.10153242  0.06628306  1
  Cs  Cs3  1  0.25000000  0.49449707  0.61611626  1
  Cs  Cs4  1  0.75000000  0.89846758  0.93371694  1
  Cs  Cs5  1  0.75000000  0.50550293  0.38388374  1
  P  P0  1  0.75000000  0.27275943  0.60368675  1
  P  P1  1  0.51901385  0.47240258  0.91979455  1
  P  P2  1  0.48098615  0.52759742  0.08020545  1
  P  P3  1  0.25000000  0.85762467  0.26980641  1
  P  P4  1  0.25000000  0.72724057  0.39631325  1
  P  P5  1  0.75000000  0.14237533  0.73019359  1
  P  P6  1  0.25000000  0.70949470  0.94584876  1
  P  P7  1  0.98098615  0.47240258  0.91979455  1
  P  P8  1  0.01901385  0.52759742  0.08020545  1
  P  P9  1  0.75000000  0.29050530  0.05415124  1
  Ru  Ru0  1  0.25000000  0.64844595  0.11108977  1
  Ru  Ru1  1  0.75000000  0.35155405  0.88891023  1
  Se  Se0  1  0.25000000  0.87950691  0.88603414  1
  Se  Se1  1  0.75000000  0.97692681  0.66736032  1
  Se  Se2  1  0.25000000  0.37883956  0.88584986  1
  Se  Se3  1  0.99332806  0.25259454  0.51723177  1
  Se  Se4  1  0.47394855  0.80869467  0.16822871  1
  Se  Se5  1  0.48878289  0.64276391  0.84631006  1
  Se  Se6  1  0.01121711  0.64276391  0.84631006  1
  Se  Se7  1  0.50667194  0.25259454  0.51723177  1
  Se  Se8  1  0.25000000  0.02307319  0.33263968  1
  Se  Se9  1  0.51121711  0.35723609  0.15368994  1
  Se  Se10  1  0.75000000  0.62116044  0.11415014  1
  Se  Se11  1  0.52605145  0.19130533  0.83177129  1
  Se  Se12  1  0.25000000  0.56979063  0.30055255  1
  Se  Se13  1  0.97394855  0.19130533  0.83177129  1
  Se  Se14  1  0.49332806  0.74740546  0.48276823  1
  Se  Se15  1  0.98878289  0.35723609  0.15368994  1
  Se  Se16  1  0.75000000  0.12049309  0.11396586  1
  Se  Se17  1  0.02605145  0.80869467  0.16822871  1
  Se  Se18  1  0.00667194  0.74740546  0.48276823  1
  Se  Se19  1  0.75000000  0.43020937  0.69944745  1
loop_
_geom_bond_atom_site_label_1
_geom_bond_atom_site_label_2
_geom_bond_distance
_geom_bond_site_symmetry_2
Cs0 Se0 3.750809 1_555
Cs0 Se8 3.761334 1_565
Cs0 Se1 3.780532 1_555
Cs0 Se1 3.780532 1_455
Cs0 Se7 3.851080 1_565
Cs0 Se3 3.851080 1_465
Cs0 Se14 3.864164 1_555
Cs0 Se18 3.864164 1_555
Cs0 Se13 4.197672 1_465
Cs0 Se11 4.197672 1_565
Cs1 Se16 3.750809 1_555
Cs1 Se1 3.761334 1_545
Cs1 Se8 3.780532 1_655
Cs1 Se8 3.780532 1_555
Cs1 Se18 3.851080 1_645
Cs1 Se14 3.851080 1_545
Cs1 Se3 3.864164 1_555
Cs1 Se7 3.864164 1_555
Cs1 Se17 4.197672 1_645
Cs1 Se4 4.197672 1_545
Cs2 Se0 3.542195 1_544
Cs2 Se8 3.609089 1_555
Cs2 Se16 3.779983 1_455
Cs2 Se16 3.779983 1_555
Cs2 Se9 3.780051 1_555
Cs2 Se15 3.780051 1_455
Cs2 Se13 3.843446 1_454
Cs2 Se11 3.843446 1_554
Cs3 Se7 3.683072 1_555
Cs3 Se3 3.683072 1_455
Cs3 Se2 3.786201 1_555
Cs3 Se14 3.906109 1_555
Cs3 Se18 3.906109 1_555
Cs3 Se5 3.923026 1_555
Cs3 Se6 3.923026 1_555
Cs3 Se19 3.951140 1_455
Cs3 Se19 3.951140 1_555
Cs3 P4 3.978486 1_555
Cs3 Se12 4.227717 1_555
Cs4 Se16 3.542195 1_566
Cs4 Se1 3.609089 1_555
Cs4 Se0 3.779983 1_555
Cs4 Se0 3.779983 1_655
Cs4 Se6 3.780051 1_655
Cs4 Se5 3.780051 1_555
Cs4 Se4 3.843446 1_556
Cs4 Se17 3.843446 1_656
Cs5 Se18 3.683072 1_655
Cs5 Se14 3.683072 1_555
Cs5 Se10 3.786201 1_555
Cs5 Se3 3.906109 1_555
Cs5 Se7 3.906109 1_555
Cs5 Se15 3.923026 1_555
Cs5 Se9 3.923026 1_555
Cs5 Se12 3.951140 1_555
Cs5 Se12 3.951140 1_655
Cs5 P0 3.978486 1_555
Cs5 Se19 4.227717 1_555
P0 Se3 2.150075 1_555
P0 Se7 2.150075 1_555
P0 Se19 2.251986 1_555
P0 P5 2.260855 1_555
P1 P2 2.222677 1_556
P1 Se5 2.242996 1_555
P1 Ru1 2.274085 1_555
P1 Se2 2.331871 1_555
P2 Se9 2.242996 1_555
P2 Ru0 2.274085 1_555
P2 Se10 2.331871 1_555
P3 Se8 2.128393 1_565
P3 Se17 2.211974 1_555
P3 Se4 2.211974 1_555
P3 P4 2.260855 1_555
P4 Se14 2.150075 1_555
P4 Se18 2.150075 1_555
P4 Se12 2.251986 1_555
P5 Se1 2.128393 1_545
P5 Se13 2.211974 1_555
P5 Se11 2.211974 1_555
P6 Se0 2.157263 1_555
P6 Ru0 2.280510 1_556
P6 Se5 2.343806 1_555
P6 Se6 2.343806 1_555
P7 P8 2.222677 1_656
P7 Se6 2.242996 1_655
P7 Ru1 2.274085 1_555
P7 Se2 2.331871 1_655
P8 Se15 2.242996 1_455
P8 Ru0 2.274085 1_555
P8 Se10 2.331871 1_455
P9 Se16 2.157263 1_555
P9 Ru1 2.280510 1_554
P9 Se15 2.343806 1_555
P9 Se9 2.343806 1_555
Ru0 Se4 2.636523 1_555
Ru0 Se17 2.636523 1_555
Ru0 Se12 2.648666 1_555
Ru1 Se11 2.636523 1_555
Ru1 Se13 2.636523 1_555
Ru1 Se19 2.648666 1_555
