# generated using pymatgen
data_Nb12ZnCu11N2
_symmetry_space_group_name_H-M   'P 1'
_cell_length_a   8.01346820
_cell_length_b   8.01346909
_cell_length_c   8.01346913
_cell_angle_alpha   60.00452067
_cell_angle_beta   60.00451827
_cell_angle_gamma   60.00452831
_symmetry_Int_Tables_number   1
_chemical_formula_structural   Nb12ZnCu11N2
_chemical_formula_sum   'Nb12 Zn1 Cu11 N2'
_cell_volume   363.90764602
_cell_formula_units_Z   1
loop_
 _symmetry_equiv_pos_site_id
 _symmetry_equiv_pos_as_xyz
  1  'x, y, z'
loop_
 _atom_site_type_symbol
 _atom_site_label
 _atom_site_symmetry_multiplicity
 _atom_site_fract_x
 _atom_site_fract_y
 _atom_site_fract_z
 _atom_site_occupancy
  Nb  Nb0  1  0.19332624  0.80706850  0.19332624  1
  Nb  Nb1  1  0.44258790  0.05783977  0.44258790  1
  Nb  Nb2  1  0.44293150  0.05667376  0.05667376  1
  Nb  Nb3  1  0.44258790  0.44258790  0.05783977  1
  Nb  Nb4  1  0.19216023  0.80741210  0.80741210  1
  Nb  Nb5  1  0.05667376  0.44293150  0.05667376  1
  Nb  Nb6  1  0.80741210  0.80741210  0.19216023  1
  Nb  Nb7  1  0.05783977  0.44258790  0.44258790  1
  Nb  Nb8  1  0.19332624  0.19332624  0.80706850  1
  Nb  Nb9  1  0.80706850  0.19332624  0.19332624  1
  Nb  Nb10  1  0.80741210  0.19216023  0.80741210  1
  Nb  Nb11  1  0.05667376  0.05667376  0.44293150  1
  Zn  Zn0  1  0.62500000  0.62500000  0.62500000  1
  Cu  Cu0  1  0.83152759  0.50859964  0.83152759  1
  Cu  Cu1  1  0.41847241  0.41847241  0.74140036  1
  Cu  Cu2  1  0.74140036  0.41847241  0.41847241  1
  Cu  Cu3  1  0.41998456  0.41998456  0.41998456  1
  Cu  Cu4  1  0.83152759  0.83152759  0.50859964  1
  Cu  Cu5  1  0.41847241  0.74140036  0.41847241  1
  Cu  Cu6  1  0.83001544  0.83001544  0.83001544  1
  Cu  Cu7  1  0.50859964  0.83152759  0.83152759  1
  Cu  Cu8  1  0.62500000  0.12500000  0.62500000  1
  Cu  Cu9  1  0.62500000  0.62500000  0.12500000  1
  Cu  Cu10  1  0.12500000  0.62500000  0.62500000  1
  N  N0  1  0.00016408  0.00016408  0.00016408  1
  N  N1  1  0.24983592  0.24983592  0.24983592  1
loop_
_geom_bond_atom_site_label_1
_geom_bond_atom_site_label_2
_geom_bond_distance
_geom_bond_site_symmetry_2
Cu0 Cu10 2.428569 1_655
Cu0 Cu9 2.428569 1_556
Cu0 Zn0 2.449435 1_555
Cu0 Cu6 2.563597 1_555
Cu0 Cu4 2.587950 1_555
Cu0 Cu7 2.587950 1_555
Cu0 Nb9 2.725830 1_556
Cu0 Nb8 2.725830 1_655
Cu0 Nb10 2.742651 1_555
Cu0 Nb5 2.853650 1_656
Cu0 Nb3 2.884547 1_556
Cu0 Nb7 2.884548 1_655
Cu1 Cu10 2.428569 1_555
Cu1 Cu8 2.428569 1_555
Cu1 Zn0 2.449435 1_555
Cu1 Cu3 2.563597 1_555
Cu1 Cu2 2.587950 1_555
Cu1 Cu5 2.587950 1_555
Cu1 Nb5 2.725829 1_556
Cu1 Nb2 2.725830 1_556
Cu1 Nb3 2.742651 1_556
Cu1 Nb8 2.853649 1_555
Cu1 Nb10 2.884548 1_555
Cu1 Nb4 2.884548 1_555
Cu2 Cu8 2.428569 1_555
Cu2 Cu9 2.428569 1_555
Cu2 Zn0 2.449435 1_555
Cu2 Cu3 2.563597 1_555
Cu2 Cu5 2.587950 1_555
Cu2 Nb5 2.725830 1_655
Cu2 Nb11 2.725830 1_655
Cu2 Nb7 2.742651 1_655
Cu2 Nb9 2.853650 1_555
Cu2 Nb6 2.884548 1_555
Cu2 Nb10 2.884548 1_555
Cu3 Cu9 2.432822 1_555
Cu3 Cu8 2.432822 1_555
Cu3 Cu5 2.563597 1_555
Cu3 Nb7 2.732961 1_555
Cu3 Nb3 2.732962 1_555
Cu3 Nb1 2.732962 1_555
Cu3 Nb8 2.872595 1_555
Cu3 Nb9 2.872595 1_555
Cu3 Nb0 2.872595 1_555
Cu4 Cu8 2.428569 1_565
Cu4 Zn0 2.449435 1_555
Cu4 Cu6 2.563597 1_555
Cu4 Cu7 2.587950 1_555
Cu4 Nb0 2.725829 1_655
Cu4 Nb9 2.725830 1_565
Cu4 Nb6 2.742651 1_555
Cu4 Nb11 2.853649 1_665
Cu4 Nb1 2.884548 1_565
Cu4 Nb7 2.884548 1_655
Cu5 Cu9 2.428569 1_555
Cu5 Zn0 2.449435 1_555
Cu5 Nb2 2.725830 1_565
Cu5 Nb11 2.725830 1_565
Cu5 Nb1 2.742651 1_565
Cu5 Nb0 2.853650 1_555
Cu5 Nb6 2.884547 1_555
Cu5 Nb4 2.884548 1_555
Cu6 Cu9 2.432822 1_556
Cu6 Cu8 2.432822 1_565
Cu6 Cu7 2.563597 1_555
Cu6 Nb4 2.732961 1_655
Cu6 Nb6 2.732962 1_556
Cu6 Nb10 2.732962 1_565
Cu6 Nb11 2.872595 1_665
Cu6 Nb2 2.872595 1_566
Cu6 Nb5 2.872595 1_656
Cu7 Cu8 2.428569 1_565
Cu7 Cu9 2.428569 1_556
Cu7 Zn0 2.449435 1_555
Cu7 Nb0 2.725830 1_556
Cu7 Nb8 2.725830 1_565
Cu7 Nb4 2.742651 1_555
Cu7 Nb2 2.853650 1_566
Cu7 Nb3 2.884548 1_556
Cu7 Nb1 2.884548 1_565
Cu8 Nb11 2.872847 1_655
Cu8 Nb8 2.872847 1_555
Cu8 Nb2 2.872847 1_556
Cu8 Nb9 2.872847 1_555
Cu8 Nb10 2.876230 1_555
Cu8 Nb1 2.876230 1_555
Cu9 Nb5 2.872847 1_655
Cu9 Nb0 2.872847 1_555
Cu9 Nb2 2.872848 1_565
Cu9 Nb9 2.872848 1_555
Cu9 Nb3 2.876230 1_555
Cu9 Nb6 2.876230 1_555
Cu10 Cu5 2.428569 1_555
Cu10 Cu4 2.428569 1_455
Cu10 Cu6 2.432822 1_455
Cu10 Cu3 2.432822 1_555
Cu10 Nb5 2.872848 1_556
Cu10 Nb0 2.872848 1_555
Cu10 Nb11 2.872848 1_565
Cu10 Nb8 2.872848 1_555
Cu10 Nb4 2.876230 1_555
Cu10 Nb7 2.876230 1_555
N0 Nb6 2.184493 1_445
N0 Nb10 2.184494 1_454
N0 Nb4 2.184494 1_544
N0 Nb8 2.189134 1_554
N0 Nb0 2.189135 1_545
N0 Nb9 2.189135 1_455
N1 Nb3 2.184493 1_555
N1 Nb1 2.184494 1_555
N1 Nb7 2.184494 1_555
N1 Nb11 2.189134 1_555
N1 Nb5 2.189135 1_555
N1 Nb2 2.189135 1_555
