# generated using pymatgen
data_Ca3TaAs3O
_symmetry_space_group_name_H-M   'P 1'
_cell_length_a   6.11738256
_cell_length_b   10.33024701
_cell_length_c   12.44141600
_cell_angle_alpha   90.00000000
_cell_angle_beta   90.00000000
_cell_angle_gamma   90.00000000
_symmetry_Int_Tables_number   1
_chemical_formula_structural   Ca3TaAs3O
_chemical_formula_sum   'Ca12 Ta4 As12 O4'
_cell_volume   786.22374993
_cell_formula_units_Z   4
loop_
 _symmetry_equiv_pos_site_id
 _symmetry_equiv_pos_as_xyz
  1  'x, y, z'
loop_
 _atom_site_type_symbol
 _atom_site_label
 _atom_site_symmetry_multiplicity
 _atom_site_fract_x
 _atom_site_fract_y
 _atom_site_fract_z
 _atom_site_occupancy
  Ca  Ca0  1  0.24693095  0.04172836  0.62580340  1
  Ca  Ca1  1  0.74693095  0.45827164  0.87419660  1
  Ca  Ca2  1  0.75306905  0.54172836  0.37419660  1
  Ca  Ca3  1  0.25306905  0.95827164  0.12580340  1
  Ca  Ca4  1  0.24693095  0.45827164  0.62580340  1
  Ca  Ca5  1  0.75306905  0.95827164  0.37419660  1
  Ca  Ca6  1  0.76876891  0.25000000  0.12612518  1
  Ca  Ca7  1  0.26876891  0.25000000  0.37387482  1
  Ca  Ca8  1  0.23123109  0.75000000  0.87387482  1
  Ca  Ca9  1  0.73123109  0.75000000  0.62612518  1
  Ca  Ca10  1  0.25306905  0.54172836  0.12580340  1
  Ca  Ca11  1  0.74693095  0.04172836  0.87419660  1
  Ta  Ta0  1  0.34357568  0.25000000  0.94961435  1
  Ta  Ta1  1  0.84357568  0.25000000  0.55038565  1
  Ta  Ta2  1  0.65642432  0.75000000  0.05038565  1
  Ta  Ta3  1  0.15642432  0.75000000  0.44961435  1
  As  As0  1  0.23768794  0.75000000  0.64033608  1
  As  As1  1  0.73768794  0.75000000  0.85966392  1
  As  As2  1  0.76231206  0.25000000  0.35966392  1
  As  As3  1  0.26231206  0.25000000  0.14033608  1
  As  As4  1  0.23538463  0.45832086  0.87254184  1
  As  As5  1  0.73538463  0.04167914  0.62745816  1
  As  As6  1  0.23538463  0.04167914  0.87254184  1
  As  As7  1  0.73538463  0.45832086  0.62745816  1
  As  As8  1  0.76461537  0.54167914  0.12745816  1
  As  As9  1  0.26461537  0.54167914  0.37254184  1
  As  As10  1  0.26461537  0.95832086  0.37254184  1
  As  As11  1  0.76461537  0.95832086  0.12745816  1
  O  O0  1  0.65208164  0.25000000  0.94355962  1
  O  O1  1  0.15208164  0.25000000  0.55644038  1
  O  O2  1  0.34791836  0.75000000  0.05644038  1
  O  O3  1  0.84791836  0.75000000  0.44355962  1
loop_
_geom_bond_atom_site_label_1
_geom_bond_atom_site_label_2
_geom_bond_distance
_geom_bond_site_symmetry_2
Ca0 O1 2.389630 1_555
Ca1 O0 2.389630 1_555
Ca2 O3 2.389630 1_555
Ca3 O2 2.389630 1_555
Ca4 O1 2.389630 1_555
Ca5 O3 2.389630 1_555
Ca6 O0 2.380899 1_554
Ca7 O1 2.380899 1_555
Ca8 O2 2.380899 1_556
Ca9 O3 2.380899 1_555
Ca10 O2 2.389630 1_555
Ca11 O0 2.389630 1_555
As0 Ta3 2.424363 1_555
As0 Ca8 2.905821 1_555
As0 Ca0 3.019574 1_565
As0 Ca4 3.019574 1_555
As0 Ca9 3.024365 1_555
As0 Ca9 3.103231 1_455
As1 Ta2 2.424363 1_556
As1 Ca9 2.905821 1_555
As1 Ca11 3.019574 1_565
As1 Ca1 3.019574 1_555
As1 Ca8 3.024365 1_655
As1 Ca8 3.103231 1_555
As2 Ta1 2.424363 1_555
As2 Ca6 2.905821 1_555
As2 Ca2 3.019574 1_555
As2 Ca5 3.019574 1_545
As2 Ca7 3.024365 1_555
As2 Ca7 3.103231 1_655
As3 Ta0 2.424363 1_554
As3 Ca7 2.905821 1_555
As3 Ca10 3.019574 1_555
As3 Ca3 3.019574 1_545
As3 Ca6 3.024365 1_455
As3 Ca6 3.103231 1_555
As4 Ta0 2.447170 1_555
As4 Ca1 2.988129 1_455
As4 Ca8 3.013270 1_555
As4 Ca4 3.070588 1_555
As4 Ca1 3.129392 1_555
As4 Ca10 3.268404 1_556
As5 Ta1 2.447170 1_555
As5 Ca0 2.988129 1_555
As5 Ca9 3.013270 1_545
As5 Ca11 3.070588 1_555
As5 Ca0 3.129392 1_655
As5 Ca5 3.268404 1_545
As6 Ta0 2.447170 1_555
As6 Ca11 2.988129 1_455
As6 Ca8 3.013270 1_545
As6 Ca0 3.070588 1_555
As6 Ca11 3.129392 1_555
As6 Ca3 3.268404 1_546
As7 Ta1 2.447170 1_555
As7 Ca4 2.988129 1_555
As7 Ca9 3.013270 1_555
As7 Ca1 3.070588 1_555
As7 Ca4 3.129392 1_655
As7 Ca2 3.268404 1_555
As8 Ta2 2.447170 1_555
As8 Ca10 2.988129 1_655
As8 Ca6 3.013270 1_555
As8 Ca2 3.070588 1_555
As8 Ca10 3.129392 1_555
As8 Ca1 3.268404 1_554
As9 Ta3 2.447170 1_555
As9 Ca2 2.988129 1_555
As9 Ca7 3.013270 1_555
As9 Ca10 3.070588 1_555
As9 Ca2 3.129392 1_455
As9 Ca4 3.268404 1_555
As10 Ta3 2.447170 1_555
As10 Ca5 2.988129 1_555
As10 Ca7 3.013270 1_565
As10 Ca3 3.070588 1_555
As10 Ca5 3.129392 1_455
As10 Ca0 3.268404 1_565
As11 Ta2 2.447170 1_555
As11 Ca3 2.988129 1_655
As11 Ca6 3.013270 1_565
As11 Ca5 3.070588 1_555
As11 Ca3 3.129392 1_555
As11 Ca11 3.268404 1_564
O0 Ta0 1.888752 1_555
O1 Ta1 1.888752 1_455
O2 Ta2 1.888752 1_555
O3 Ta3 1.888752 1_655
