# generated using pymatgen
data_NaGaO2
_symmetry_space_group_name_H-M   'P 1'
_cell_length_a   5.28496640
_cell_length_b   5.52109355
_cell_length_c   7.18927209
_cell_angle_alpha   90.00000000
_cell_angle_beta   90.00000000
_cell_angle_gamma   90.00000000
_symmetry_Int_Tables_number   1
_chemical_formula_structural   NaGaO2
_chemical_formula_sum   'Na4 Ga4 O8'
_cell_volume   209.77428863
_cell_formula_units_Z   4
loop_
 _symmetry_equiv_pos_site_id
 _symmetry_equiv_pos_as_xyz
  1  'x, y, z'
loop_
 _atom_site_type_symbol
 _atom_site_label
 _atom_site_symmetry_multiplicity
 _atom_site_fract_x
 _atom_site_fract_y
 _atom_site_fract_z
 _atom_site_occupancy
  Na  Na0  1  0.01507145  0.06791084  0.62239594  1
  Na  Na1  1  0.51507145  0.43208916  0.12239594  1
  Na  Na2  1  0.51507145  0.93208916  0.37760406  1
  Na  Na3  1  0.01507145  0.56791084  0.87760406  1
  Ga  Ga0  1  0.99992212  0.06444107  0.12606117  1
  Ga  Ga1  1  0.49992212  0.93555893  0.87393883  1
  Ga  Ga2  1  0.49992212  0.43555893  0.62606117  1
  Ga  Ga3  1  0.99992212  0.56444107  0.37393883  1
  O  O0  1  0.15306205  0.46014690  0.58995152  1
  O  O1  1  0.65306205  0.53985310  0.41004848  1
  O  O2  1  0.65306205  0.03985310  0.08995152  1
  O  O3  1  0.15306205  0.96014690  0.91004848  1
  O  O4  1  0.08144638  0.88857404  0.33751740  1
  O  O5  1  0.08144638  0.38857404  0.16248260  1
  O  O6  1  0.58144638  0.61142596  0.83751740  1
  O  O7  1  0.58144638  0.11142596  0.66248260  1
loop_
_geom_bond_atom_site_label_1
_geom_bond_atom_site_label_2
_geom_bond_distance
_geom_bond_site_symmetry_2
Na0 O3 2.272116 1_545
Na0 O0 2.296944 1_555
Na0 O4 2.301740 1_545
Na0 O7 2.322205 1_455
Na1 O1 2.272116 1_555
Na1 O2 2.296944 1_555
Na1 O6 2.301740 1_554
Na1 O5 2.322205 1_555
Na2 O2 2.272116 1_565
Na2 O1 2.296944 1_555
Na2 O7 2.301740 1_565
Na2 O4 2.322205 1_555
Na3 O0 2.272116 1_555
Na3 O3 2.296944 1_555
Na3 O5 2.301740 1_556
Na3 O6 2.322205 1_455
Ga0 O3 1.843455 1_644
Ga0 O4 1.854586 1_645
Ga0 O2 1.856405 1_555
Ga0 O5 1.859234 1_655
Ga1 O2 1.843455 1_566
Ga1 O7 1.854586 1_565
Ga1 O3 1.856405 1_555
Ga1 O6 1.859234 1_555
Ga2 O1 1.843455 1_555
Ga2 O6 1.854586 1_555
Ga2 O0 1.856405 1_555
Ga2 O7 1.859234 1_555
Ga3 O0 1.843455 1_655
Ga3 O5 1.854586 1_655
Ga3 O1 1.856405 1_555
Ga3 O4 1.859234 1_655
