# generated using pymatgen
data_Al20FeNi2Rh5
_symmetry_space_group_name_H-M   'P 1'
_cell_length_a   7.80520747
_cell_length_b   7.80175733
_cell_length_c   7.68768178
_cell_angle_alpha   90.00000000
_cell_angle_beta   90.00000000
_cell_angle_gamma   120.01463393
_symmetry_Int_Tables_number   1
_chemical_formula_structural   Al20FeNi2Rh5
_chemical_formula_sum   'Al20 Fe1 Ni2 Rh5'
_cell_volume   405.35810271
_cell_formula_units_Z   1
loop_
 _symmetry_equiv_pos_site_id
 _symmetry_equiv_pos_as_xyz
  1  'x, y, z'
loop_
 _atom_site_type_symbol
 _atom_site_label
 _atom_site_symmetry_multiplicity
 _atom_site_fract_x
 _atom_site_fract_y
 _atom_site_fract_z
 _atom_site_occupancy
  Al  Al0  1  0.00165136  0.00330373  0.00389260  1
  Al  Al1  1  0.00165136  0.00330373  0.49610740  1
  Al  Al2  1  0.47394702  0.94789304  0.25000000  1
  Al  Al3  1  0.52600308  0.47258387  0.75000000  1
  Al  Al4  1  0.94658078  0.47258387  0.75000000  1
  Al  Al5  1  0.06131792  0.52391488  0.25000000  1
  Al  Al6  1  0.46259696  0.52391488  0.25000000  1
  Al  Al7  1  0.52857228  0.05714456  0.75000000  1
  Al  Al8  1  0.19573090  0.39145980  0.94827338  1
  Al  Al9  1  0.81176271  0.19768547  0.43383016  1
  Al  Al10  1  0.38592176  0.19768547  0.43383016  1
  Al  Al11  1  0.60850431  0.80511116  0.93843609  1
  Al  Al12  1  0.19660886  0.80511116  0.93843609  1
  Al  Al13  1  0.80340276  0.60680552  0.06234728  1
  Al  Al14  1  0.81176271  0.19768547  0.06616984  1
  Al  Al15  1  0.80340276  0.60680552  0.43765272  1
  Al  Al16  1  0.38592176  0.19768547  0.06616984  1
  Al  Al17  1  0.60850431  0.80511116  0.56156391  1
  Al  Al18  1  0.19573090  0.39145980  0.55172662  1
  Al  Al19  1  0.19660886  0.80511116  0.56156391  1
  Fe  Fe0  1  0.12790764  0.25581627  0.25000000  1
  Ni  Ni0  1  0.33119811  0.66239821  0.75000000  1
  Ni  Ni1  1  0.66567519  0.33134938  0.25000000  1
  Rh  Rh0  1  0.87020600  0.12923876  0.75000000  1
  Rh  Rh1  1  0.25903375  0.12923876  0.75000000  1
  Rh  Rh2  1  0.74036196  0.86892614  0.25000000  1
  Rh  Rh3  1  0.12856318  0.86892614  0.25000000  1
  Rh  Rh4  1  0.87087382  0.74174664  0.75000000  1
loop_
_geom_bond_atom_site_label_1
_geom_bond_atom_site_label_2
_geom_bond_distance
_geom_bond_site_symmetry_2
Al0 Fe0 2.547467 1_555
Al0 Rh2 2.588231 1_445
Al0 Rh3 2.588232 1_545
Al0 Rh0 2.614592 1_454
Al0 Rh1 2.614601 1_554
Al0 Rh4 2.632837 1_444
Al0 Al16 2.640906 1_555
Al0 Al14 2.640907 1_455
Al0 Al8 2.656830 1_554
Al0 Al11 2.704342 1_444
Al0 Al12 2.704362 1_544
Al0 Al13 2.715988 1_445
Al1 Fe0 2.547467 1_555
Al1 Rh2 2.588231 1_445
Al1 Rh3 2.588232 1_545
Al1 Rh0 2.614592 1_455
Al1 Rh1 2.614601 1_555
Al1 Rh4 2.632837 1_445
Al1 Al10 2.640906 1_555
Al1 Al9 2.640907 1_455
Al1 Al18 2.656830 1_555
Al1 Al17 2.704342 1_445
Al1 Al19 2.704362 1_545
Al1 Al15 2.715988 1_445
Al2 Rh2 2.446471 1_555
Al2 Rh3 2.446486 1_555
Al2 Ni1 2.590448 1_565
Al2 Al9 2.758014 1_565
Al3 Rh1 2.435821 1_555
Al3 Rh4 2.449567 1_555
Al3 Ni0 2.599537 1_555
Al3 Al8 2.781539 1_555
Al4 Rh0 2.435823 1_555
Al4 Rh4 2.449562 1_555
Al4 Ni0 2.599524 1_655
Al4 Al8 2.781552 1_655
Al4 Al9 3.058931 1_555
Al5 Fe0 2.394306 1_555
Al5 Rh3 2.471296 1_555
Al5 Ni1 2.674291 1_455
Al5 Al9 2.703585 1_455
Al5 Al8 2.938299 1_554
Al6 Fe0 2.394311 1_555
Al6 Rh2 2.471293 1_555
Al6 Ni1 2.674298 1_555
Al6 Al8 2.938291 1_554
Al7 Rh1 2.434376 1_555
Al7 Rh0 2.434384 1_555
Al7 Ni0 2.666718 1_545
Al7 Al9 3.093728 1_555
Al8 Ni0 2.381908 1_555
Al8 Fe0 2.494018 1_556
Al8 Rh1 2.786394 1_555
Al8 Rh0 2.786398 1_455
Al9 Ni1 2.361020 1_555
Al9 Rh0 2.577756 1_555
Al9 Fe0 2.678103 1_655
Al9 Rh2 2.730652 1_545
Al10 Ni1 2.361031 1_555
Al10 Rh1 2.577751 1_555
Al10 Fe0 2.678103 1_555
Al10 Al6 2.703583 1_555
Al10 Rh3 2.730652 1_545
Al10 Al18 2.748787 1_555
Al10 Al2 2.758024 1_545
Al10 Al16 2.826456 1_555
Al10 Al19 2.828530 1_545
Al10 Al3 3.058931 1_555
Al10 Al7 3.093732 1_555
Al11 Ni0 2.368973 1_555
Al11 Rh2 2.555672 1_556
Al11 Rh0 2.738235 1_565
Al11 Rh4 2.747623 1_555
Al11 Al3 2.751777 1_555
Al11 Al7 2.753438 1_565
Al11 Al13 2.823073 1_556
Al11 Al14 2.828530 1_566
Al11 Al17 2.897273 1_555
Al11 Al2 3.041603 1_556
Al11 Al6 3.057337 1_556
Al12 Ni0 2.368952 1_555
Al12 Rh3 2.555679 1_556
Al12 Rh1 2.738237 1_565
Al12 Rh4 2.747629 1_455
Al12 Al4 2.751780 1_455
Al12 Al7 2.753429 1_565
Al12 Al13 2.823085 1_456
Al12 Al16 2.828530 1_566
Al12 Al19 2.897273 1_555
Al12 Al2 3.041599 1_556
Al12 Al5 3.057336 1_556
Al13 Ni1 2.354549 1_555
Al13 Rh4 2.568443 1_554
Al13 Rh3 2.740791 1_655
Al13 Rh2 2.740795 1_555
Al13 Al6 2.802546 1_555
Al13 Al5 2.802546 1_655
Al13 Al15 2.885229 1_555
Al13 Al3 3.046651 1_554
Al13 Al4 3.046651 1_554
Al14 Ni1 2.361020 1_555
Al14 Rh0 2.577756 1_554
Al14 Fe0 2.678103 1_655
Al14 Al5 2.703585 1_655
Al14 Rh2 2.730652 1_545
Al14 Al8 2.748806 1_654
Al14 Al2 2.758014 1_545
Al14 Al9 2.826456 1_555
Al14 Al4 3.058931 1_554
Al14 Al7 3.093728 1_554
Al15 Ni1 2.354549 1_555
Al15 Rh4 2.568443 1_555
Al15 Rh3 2.740791 1_655
Al15 Rh2 2.740795 1_555
Al15 Al6 2.802546 1_555
Al15 Al5 2.802546 1_655
Al15 Al17 2.823073 1_555
Al15 Al19 2.823085 1_655
Al15 Al3 3.046651 1_555
Al15 Al4 3.046651 1_555
Al16 Ni1 2.361031 1_555
Al16 Rh1 2.577751 1_554
Al16 Fe0 2.678103 1_555
Al16 Al6 2.703583 1_555
Al16 Rh3 2.730652 1_545
Al16 Al8 2.748787 1_554
Al16 Al2 2.758024 1_545
Al16 Al3 3.058931 1_554
Al16 Al7 3.093732 1_554
Al17 Ni0 2.368973 1_555
Al17 Rh2 2.555672 1_555
Al17 Rh0 2.738235 1_565
Al17 Rh4 2.747623 1_555
Al17 Al3 2.751777 1_555
Al17 Al7 2.753438 1_565
Al17 Al9 2.828530 1_565
Al17 Al2 3.041603 1_555
Al17 Al6 3.057337 1_555
Al18 Ni0 2.381908 1_555
Al18 Fe0 2.494018 1_555
Al18 Al9 2.748806 1_455
Al18 Al3 2.781539 1_555
Al18 Al4 2.781552 1_455
Al18 Rh1 2.786394 1_555
Al18 Rh0 2.786398 1_455
Al18 Al6 2.938291 1_555
Al18 Al5 2.938299 1_555
Al19 Ni0 2.368952 1_555
Al19 Rh3 2.555679 1_555
Al19 Rh1 2.738237 1_565
Al19 Rh4 2.747629 1_455
Al19 Al4 2.751780 1_455
Al19 Al7 2.753429 1_565
Al19 Al2 3.041599 1_555
Al19 Al5 3.057336 1_555
Fe0 Rh2 3.020985 1_445
Fe0 Rh3 3.020986 1_545
Rh0 Rh4 3.025730 1_545
Rh0 Rh1 3.034881 1_655
Rh1 Rh4 3.025730 1_445
Rh2 Rh3 3.029991 1_655
