# generated using pymatgen
data_NaAlPtO4
_symmetry_space_group_name_H-M   'P 1'
_cell_length_a   6.32622818
_cell_length_b   5.76191965
_cell_length_c   8.53921021
_cell_angle_alpha   90.00000000
_cell_angle_beta   90.00000000
_cell_angle_gamma   90.00000000
_symmetry_Int_Tables_number   1
_chemical_formula_structural   NaAlPtO4
_chemical_formula_sum   'Na4 Al4 Pt4 O16'
_cell_volume   311.26461679
_cell_formula_units_Z   4
loop_
 _symmetry_equiv_pos_site_id
 _symmetry_equiv_pos_as_xyz
  1  'x, y, z'
loop_
 _atom_site_type_symbol
 _atom_site_label
 _atom_site_symmetry_multiplicity
 _atom_site_fract_x
 _atom_site_fract_y
 _atom_site_fract_z
 _atom_site_occupancy
  Na  Na0  1  0.49992359  0.50000000  0.10285355  1
  Na  Na1  1  0.99992359  0.50000000  0.39714645  1
  Na  Na2  1  0.00007641  0.00000000  0.60285255  1
  Na  Na3  1  0.50007641  0.00000000  0.89714645  1
  Al  Al0  1  0.00000000  0.25000000  0.00000000  1
  Al  Al1  1  0.00000000  0.75000000  0.00000000  1
  Al  Al2  1  0.50000100  0.25000000  0.50000000  1
  Al  Al3  1  0.50000100  0.75000000  0.50000000  1
  Pt  Pt0  1  0.74984554  0.00000000  0.24998859  1
  Pt  Pt1  1  0.24984454  0.00000000  0.25000941  1
  Pt  Pt2  1  0.75015546  0.50000000  0.74998859  1
  Pt  Pt3  1  0.25015546  0.50000000  0.75000941  1
  O  O0  1  0.80156222  0.00000000  0.01277940  1
  O  O1  1  0.19842141  0.00000000  0.01258941  1
  O  O2  1  0.99994359  0.22177942  0.22581603  1
  O  O3  1  0.99994359  0.77822058  0.22581603  1
  O  O4  1  0.49994359  0.22177942  0.27418397  1
  O  O5  1  0.49994359  0.77822058  0.27418397  1
  O  O6  1  0.69842241  0.00000000  0.48740859  1
  O  O7  1  0.30156322  0.00000000  0.48721960  1
  O  O8  1  0.69843878  0.50000000  0.51277840  1
  O  O9  1  0.30157759  0.50000000  0.51258941  1
  O  O10  1  0.50005541  0.27822058  0.72581603  1
  O  O11  1  0.50005541  0.72177942  0.72581603  1
  O  O12  1  0.00005641  0.27822058  0.77418197  1
  O  O13  1  0.00005641  0.72177942  0.77418197  1
  O  O14  1  0.80157859  0.50000000  0.98740959  1
  O  O15  1  0.19843778  0.50000000  0.98721960  1
loop_
_geom_bond_atom_site_label_1
_geom_bond_atom_site_label_2
_geom_bond_distance
_geom_bond_site_symmetry_2
Na0 O15 2.147714 1_554
Na0 O14 2.147919 1_554
Na0 O5 2.170329 1_555
Na0 O4 2.170329 1_555
Na1 O8 2.147700 1_555
Na1 O9 2.147910 1_655
Na1 O3 2.170329 1_555
Na1 O2 2.170329 1_555
Na2 O7 2.147716 1_555
Na2 O6 2.147914 1_455
Na2 O12 2.170323 1_555
Na2 O13 2.170323 1_545
Na3 O0 2.147710 1_556
Na3 O1 2.147915 1_556
Na3 O10 2.170329 1_555
Na3 O11 2.170329 1_545
Al0 O1 1.913691 1_555
Al0 O14 1.913692 1_454
Al0 O0 1.913851 1_455
Al0 O15 1.913852 1_554
Al0 O2 1.935134 1_455
Al0 O12 1.935151 1_554
Al1 O1 1.913691 1_565
Al1 O14 1.913692 1_454
Al1 O0 1.913851 1_465
Al1 O15 1.913852 1_554
Al1 O3 1.935134 1_455
Al1 O13 1.935151 1_554
Al2 O6 1.913692 1_555
Al2 O9 1.913700 1_555
Al2 O8 1.913851 1_555
Al2 O7 1.913852 1_555
Al2 O10 1.935134 1_555
Al2 O4 1.935134 1_555
Al3 O6 1.913692 1_565
Al3 O9 1.913700 1_555
Al3 O8 1.913851 1_555
Al3 O7 1.913852 1_565
Al3 O11 1.935134 1_555
Al3 O5 1.935134 1_555
O0 Pt0 2.051831 1_555
O1 Pt1 2.053314 1_555
O2 Pt1 2.043278 1_655
O2 Pt0 2.044225 1_555
O3 Pt1 2.043278 1_665
O3 Pt0 2.044225 1_565
O4 Pt0 2.043285 1_555
O4 Pt1 2.044232 1_555
O5 Pt0 2.043285 1_565
O5 Pt1 2.044232 1_565
O6 Pt0 2.053314 1_555
O7 Pt1 2.051842 1_555
O8 Pt2 2.051840 1_555
O9 Pt3 2.053313 1_555
O10 Pt3 2.043273 1_555
O10 Pt2 2.044235 1_555
O11 Pt3 2.043273 1_555
O11 Pt2 2.044235 1_555
O12 Pt2 2.043278 1_455
O12 Pt3 2.044230 1_555
O13 Pt2 2.043278 1_455
O13 Pt3 2.044230 1_555
O14 Pt2 2.053322 1_555
O15 Pt3 2.051841 1_555
