# generated using pymatgen
data_HfCu4Pd
_symmetry_space_group_name_H-M   'P 1'
_cell_length_a   4.82552676
_cell_length_b   4.82552747
_cell_length_c   4.82552706
_cell_angle_alpha   59.99999619
_cell_angle_beta   59.99999133
_cell_angle_gamma   60.00000292
_symmetry_Int_Tables_number   1
_chemical_formula_structural   HfCu4Pd
_chemical_formula_sum   'Hf1 Cu4 Pd1'
_cell_volume   79.45463677
_cell_formula_units_Z   1
loop_
 _symmetry_equiv_pos_site_id
 _symmetry_equiv_pos_as_xyz
  1  'x, y, z'
loop_
 _atom_site_type_symbol
 _atom_site_label
 _atom_site_symmetry_multiplicity
 _atom_site_fract_x
 _atom_site_fract_y
 _atom_site_fract_z
 _atom_site_occupancy
  Hf  Hf0  1  0.00000000  0.00000000  0.00000000  1
  Cu  Cu0  1  0.62460725  0.62460725  0.12617824  1
  Cu  Cu1  1  0.62460725  0.12617824  0.62460725  1
  Cu  Cu2  1  0.12617824  0.62460725  0.62460725  1
  Cu  Cu3  1  0.62460725  0.62460725  0.62460725  1
  Pd  Pd0  1  0.25000000  0.25000000  0.25000000  1
loop_
_geom_bond_atom_site_label_1
_geom_bond_atom_site_label_2
_geom_bond_distance
_geom_bond_site_symmetry_2
Hf0 Pd0 2.955019 1_554
Hf0 Pd0 2.955019 1_455
Hf0 Pd0 2.955020 1_555
Hf0 Pd0 2.955020 1_545
Cu0 Cu2 2.405182 1_555
Cu0 Cu1 2.405183 1_555
Cu0 Cu3 2.405183 1_555
Cu0 Cu2 2.420344 1_654
Cu0 Cu1 2.420344 1_564
Cu0 Cu3 2.420344 1_554
Cu0 Pd0 2.828412 1_555
Cu0 Pd0 2.828412 1_655
Cu0 Pd0 2.828412 1_565
Cu0 Hf0 2.830028 1_665
Cu0 Hf0 2.830028 1_565
Cu0 Hf0 2.830028 1_655
Cu1 Cu2 2.405183 1_555
Cu1 Cu3 2.405183 1_555
Cu1 Cu2 2.420344 1_645
Cu1 Cu3 2.420345 1_545
Cu1 Pd0 2.828411 1_655
Cu1 Pd0 2.828411 1_556
Cu1 Pd0 2.828412 1_555
Cu1 Hf0 2.830027 1_556
Cu1 Hf0 2.830028 1_655
Cu1 Hf0 2.830028 1_656
Cu2 Cu3 2.405183 1_555
Cu2 Cu3 2.420344 1_455
Cu2 Pd0 2.828412 1_556
Cu2 Pd0 2.828412 1_565
Cu2 Pd0 2.828412 1_555
Cu2 Hf0 2.830028 1_565
Cu2 Hf0 2.830028 1_556
Cu2 Hf0 2.830028 1_566
Cu3 Pd0 2.828411 1_556
Cu3 Pd0 2.828411 1_655
Cu3 Pd0 2.828412 1_565
Cu3 Hf0 2.830027 1_665
Cu3 Hf0 2.830028 1_566
Cu3 Hf0 2.830028 1_656
