# generated using pymatgen
data_LiCr4AgSe8
_symmetry_space_group_name_H-M   'P 1'
_cell_length_a   7.49761604
_cell_length_b   7.49761634
_cell_length_c   7.49761720
_cell_angle_alpha   60.00000492
_cell_angle_beta   60.00000356
_cell_angle_gamma   60.00000625
_symmetry_Int_Tables_number   1
_chemical_formula_structural   LiCr4AgSe8
_chemical_formula_sum   'Li1 Cr4 Ag1 Se8'
_cell_volume   298.02639080
_cell_formula_units_Z   1
loop_
 _symmetry_equiv_pos_site_id
 _symmetry_equiv_pos_as_xyz
  1  'x, y, z'
loop_
 _atom_site_type_symbol
 _atom_site_label
 _atom_site_symmetry_multiplicity
 _atom_site_fract_x
 _atom_site_fract_y
 _atom_site_fract_z
 _atom_site_occupancy
  Li  Li0  1  0.00000000  0.00000000  0.00000000  1
  Cr  Cr0  1  0.37254380  0.37254380  0.37254380  1
  Cr  Cr1  1  0.37254380  0.37254380  0.88236859  1
  Cr  Cr2  1  0.37254380  0.88236859  0.37254380  1
  Cr  Cr3  1  0.88236859  0.37254380  0.37254380  1
  Ag  Ag0  1  0.75000000  0.75000000  0.75000000  1
  Se  Se0  1  0.13531479  0.13531479  0.13531479  1
  Se  Se1  1  0.13531479  0.13531479  0.59405464  1
  Se  Se2  1  0.13531479  0.59405464  0.13531479  1
  Se  Se3  1  0.59405464  0.13531479  0.13531479  1
  Se  Se4  1  0.61167112  0.61167112  0.61167112  1
  Se  Se5  1  0.61167112  0.61167112  0.16498765  1
  Se  Se6  1  0.61167112  0.16498765  0.61167112  1
  Se  Se7  1  0.16498765  0.61167112  0.61167112  1
loop_
_geom_bond_atom_site_label_1
_geom_bond_atom_site_label_2
_geom_bond_distance
_geom_bond_site_symmetry_2
Li0 Se0 2.485101 1_555
Li0 Se3 2.485107 1_455
Li0 Se2 2.485108 1_545
Li0 Se1 2.485108 1_554
Cr0 Se1 2.518153 1_555
Cr0 Se2 2.518153 1_555
Cr0 Se3 2.518153 1_555
Cr0 Se5 2.546547 1_555
Cr0 Se6 2.546547 1_555
Cr0 Se7 2.546548 1_555
Cr1 Se2 2.518148 1_556
Cr1 Se3 2.518148 1_556
Cr1 Se0 2.518153 1_556
Cr1 Se6 2.546542 1_555
Cr1 Se7 2.546542 1_555
Cr1 Se4 2.546547 1_555
Cr2 Se3 2.518148 1_565
Cr2 Se1 2.518148 1_565
Cr2 Se0 2.518153 1_565
Cr2 Se7 2.546542 1_555
Cr2 Se5 2.546542 1_555
Cr2 Se4 2.546547 1_555
Cr3 Se2 2.518148 1_655
Cr3 Se1 2.518148 1_655
Cr3 Se0 2.518153 1_655
Cr3 Se6 2.546542 1_555
Cr3 Se5 2.546542 1_555
Cr3 Se4 2.546547 1_555
Ag0 Se4 2.540456 1_555
Ag0 Se7 2.540462 1_655
Ag0 Se6 2.540463 1_565
Ag0 Se5 2.540463 1_556
