# generated using pymatgen
data_Ta6Re5Si6Ru
_symmetry_space_group_name_H-M   'P 1'
_cell_length_a   7.49674080
_cell_length_b   7.48163704
_cell_length_c   7.51469790
_cell_angle_alpha   127.47252532
_cell_angle_beta   123.84199033
_cell_angle_gamma   80.59965383
_symmetry_Int_Tables_number   1
_chemical_formula_structural   Ta6Re5Si6Ru
_chemical_formula_sum   'Ta6 Re5 Si6 Ru1'
_cell_volume   267.80952968
_cell_formula_units_Z   1
loop_
 _symmetry_equiv_pos_site_id
 _symmetry_equiv_pos_as_xyz
  1  'x, y, z'
loop_
 _atom_site_type_symbol
 _atom_site_label
 _atom_site_symmetry_multiplicity
 _atom_site_fract_x
 _atom_site_fract_y
 _atom_site_fract_z
 _atom_site_occupancy
  Ta  Ta0  1  0.94294432  0.90908899  0.46692020  1
  Ta  Ta1  1  0.05234116  0.50374384  0.95479584  1
  Ta  Ta2  1  0.53460940  0.50457817  0.46329270  1
  Ta  Ta3  1  0.46858123  0.93679175  0.97092034  1
  Ta  Ta4  1  0.75142816  0.08181169  0.83920977  1
  Ta  Ta5  1  0.24982037  0.09491962  0.33964636  1
  Re  Re0  1  0.47371250  0.75360157  0.22742432  1
  Re  Re1  1  0.02053851  0.75248891  0.77599097  1
  Re  Re2  1  0.90078507  0.24987500  0.40707103  1
  Re  Re3  1  0.09352985  0.50180484  0.34272059  1
  Re  Re4  1  0.34104867  0.25169326  0.84528178  1
  Si  Si0  1  0.72746540  0.48619598  0.25630088  1
  Si  Si1  1  0.28252777  0.51104312  0.73223624  1
  Si  Si2  1  0.66723942  0.17569733  0.51080748  1
  Si  Si3  1  0.32656271  0.83789454  0.49819888  1
  Si  Si4  1  0.16669837  0.17165474  0.00337279  1
  Si  Si5  1  0.83628930  0.83230584  0.00856129  1
  Ru  Ru0  1  0.66387579  0.50261081  0.91504652  1
loop_
_geom_bond_atom_site_label_1
_geom_bond_atom_site_label_2
_geom_bond_distance
_geom_bond_site_symmetry_2
Re0 Si1 2.426357 1_554
Re0 Si3 2.542928 1_555
Re0 Si2 2.546623 1_565
Re0 Si0 2.548266 1_555
Re0 Ta5 2.757809 1_565
Re0 Ta1 2.780509 1_554
Re0 Re4 2.873055 1_554
Re0 Ru0 2.925457 1_554
Re0 Ta0 2.950327 1_555
Re0 Ta3 2.951277 1_554
Re0 Ta4 2.961957 1_565
Re0 Ta2 3.108095 1_555
Re1 Si1 2.463006 1_555
Re1 Si0 2.540454 1_455
Re1 Si5 2.543304 1_456
Re1 Si4 2.544032 1_566
Re1 Ta5 2.754029 1_566
Re1 Ta1 2.804736 1_555
Re1 Re2 2.877170 1_455
Re1 Ta4 2.895856 1_465
Re1 Re3 2.938849 1_555
Re1 Ta0 2.947715 1_455
Re1 Ta3 2.983982 1_555
Re1 Ta2 3.098735 1_455
Re2 Si0 2.478972 1_555
Re2 Si1 2.491428 1_655
Re2 Si2 2.518948 1_555
Re2 Si5 2.541447 1_545
Re2 Ta0 2.788640 1_545
Re2 Ta1 2.797091 1_655
Re2 Ta3 2.834964 1_544
Re2 Ta5 2.866790 1_655
Re2 Re3 2.941322 1_655
Re2 Re4 3.097127 1_655
Re2 Ta4 3.107082 1_554
Re2 Ta2 3.154182 1_555
Re3 Si1 2.397224 1_555
Re3 Si0 2.448244 1_455
Re3 Si3 2.515277 1_555
Re3 Si4 2.521154 1_555
Re3 Ta1 2.764234 1_554
Re3 Ta0 2.831968 1_455
Re3 Ta4 2.850493 1_454
Re3 Ta2 2.901361 1_555
Re3 Ru0 3.031665 1_454
Re3 Ta5 3.069161 1_555
Re3 Ta3 3.208421 1_555
Re4 Si1 2.447772 1_555
Re4 Si0 2.471998 1_556
Re4 Si4 2.515779 1_556
Re4 Si3 2.523575 1_545
Re4 Ta1 2.771309 1_555
Re4 Ta0 2.782321 1_445
Re4 Ta5 2.868101 1_555
Re4 Ta3 2.884688 1_545
Re4 Ru0 2.920541 1_555
Re4 Ta4 3.144976 1_555
Re4 Ta2 3.154839 1_556
Si0 Ta2 2.590048 1_555
Si0 Ta0 2.802447 1_555
Si0 Ta4 2.814419 1_554
Si1 Ta5 2.593117 1_555
Si1 Ta3 2.649877 1_555
Si2 Ta0 2.640367 1_545
Si2 Ta5 2.645929 1_555
Si2 Ta2 2.654221 1_555
Si2 Ta1 2.666965 1_655
Si2 Ta3 2.681223 1_544
Si2 Ta4 2.685433 1_555
Si3 Ta1 2.656746 1_554
Si3 Ta2 2.666345 1_555
Si3 Ta5 2.666708 1_565
Si3 Ta3 2.673362 1_555
Si3 Ta4 2.675736 1_565
Si3 Ta0 2.740205 1_455
Si4 Ta0 2.613976 1_444
Si4 Ta2 2.628413 1_555
Si4 Ta5 2.645387 1_555
Si4 Ta4 2.657542 1_454
Si4 Ta3 2.657659 1_544
Si4 Ta1 2.664678 1_554
Si5 Ta3 2.643228 1_554
Si5 Ta1 2.655011 1_654
Si5 Ta4 2.666419 1_564
Si5 Ta5 2.666858 1_665
Si5 Ta2 2.679876 1_554
Si5 Ta0 2.740139 1_555
Ru0 Si1 2.395096 1_555
Ru0 Si0 2.412686 1_556
Ru0 Si5 2.483859 1_556
Ru0 Si2 2.497092 1_555
Ru0 Ta1 2.757976 1_655
Ru0 Ta0 2.809459 1_556
Ru0 Ta4 2.868047 1_555
Ru0 Ta2 2.975880 1_555
Ru0 Ta5 3.119494 1_555
Ru0 Ta3 3.216110 1_555
