# generated using pymatgen
data_LiAlI4
_symmetry_space_group_name_H-M   'P 1'
_cell_length_a   7.58381424
_cell_length_b   8.13292945
_cell_length_c   15.14909049
_cell_angle_alpha   86.91777879
_cell_angle_beta   90.00000000
_cell_angle_gamma   90.00000000
_symmetry_Int_Tables_number   1
_chemical_formula_structural   LiAlI4
_chemical_formula_sum   'Li4 Al4 I16'
_cell_volume   933.02342511
_cell_formula_units_Z   4
loop_
 _symmetry_equiv_pos_site_id
 _symmetry_equiv_pos_as_xyz
  1  'x, y, z'
loop_
 _atom_site_type_symbol
 _atom_site_label
 _atom_site_symmetry_multiplicity
 _atom_site_fract_x
 _atom_site_fract_y
 _atom_site_fract_z
 _atom_site_occupancy
  Li  Li0  1  0.50660331  0.15132929  0.11385887  1
  Li  Li1  1  0.00660331  0.84867071  0.38614113  1
  Li  Li2  1  0.99339669  0.15132929  0.61385887  1
  Li  Li3  1  0.49339669  0.84867071  0.88614113  1
  Al  Al0  1  0.33287972  0.29251191  0.90153150  1
  Al  Al1  1  0.83287972  0.70748809  0.59846850  1
  Al  Al2  1  0.16712028  0.29251191  0.40153150  1
  Al  Al3  1  0.66712028  0.70748809  0.09846850  1
  I  I0  1  0.81248393  0.93448889  0.18479640  1
  I  I1  1  0.68458137  0.69127315  0.44882922  1
  I  I2  1  0.64932345  0.18907021  0.93158195  1
  I  I3  1  0.81541863  0.69127315  0.94882922  1
  I  I4  1  0.18458137  0.30872685  0.05117078  1
  I  I5  1  0.82272941  0.43693501  0.68970956  1
  I  I6  1  0.32272941  0.56306499  0.81029044  1
  I  I7  1  0.17727059  0.56306499  0.31029044  1
  I  I8  1  0.35067655  0.81092979  0.06841805  1
  I  I9  1  0.85067655  0.18907021  0.43158195  1
  I  I10  1  0.67727059  0.43693501  0.18970956  1
  I  I11  1  0.68751607  0.93448889  0.68479640  1
  I  I12  1  0.18751607  0.06551111  0.81520360  1
  I  I13  1  0.14932345  0.81092979  0.56841805  1
  I  I14  1  0.31541863  0.30872685  0.55117078  1
  I  I15  1  0.31248393  0.06551111  0.31520360  1
loop_
_geom_bond_atom_site_label_1
_geom_bond_atom_site_label_2
_geom_bond_distance
_geom_bond_site_symmetry_2
Al0 I6 2.535961 1_555
Al0 I4 2.540324 1_556
Al0 I12 2.567810 1_555
Al0 I2 2.575480 1_555
Al1 I5 2.535961 1_555
Al1 I1 2.540324 1_555
Al1 I11 2.567810 1_555
Al1 I13 2.575480 1_655
Al2 I7 2.535961 1_555
Al2 I14 2.540324 1_555
Al2 I15 2.567810 1_555
Al2 I9 2.575480 1_455
Al3 I10 2.535961 1_555
Al3 I3 2.540324 1_554
Al3 I0 2.567810 1_555
Al3 I8 2.575480 1_555
I0 Li0 3.072840 1_565
I1 Li1 2.893773 1_655
I2 Li0 2.966398 1_556
I2 Li3 3.121131 1_545
I3 Li3 2.893773 1_555
I4 Li0 2.893773 1_555
I5 Li2 2.945857 1_555
I6 Li3 2.945857 1_555
I7 Li1 2.945857 1_555
I8 Li3 2.966398 1_554
I8 Li0 3.121131 1_565
I9 Li2 2.966398 1_555
I9 Li1 3.121131 1_645
I10 Li0 2.945857 1_555
I11 Li2 3.072840 1_565
I12 Li3 3.072840 1_545
I13 Li1 2.966398 1_555
I13 Li2 3.121131 1_465
I14 Li2 2.893773 1_455
I15 Li1 3.072840 1_545
