# generated using pymatgen
data_Ti8Al15Pd2Rh5
_symmetry_space_group_name_H-M   'P 1'
_cell_length_a   8.61587223
_cell_length_b   8.60102935
_cell_length_c   8.61587299
_cell_angle_alpha   119.97858842
_cell_angle_beta   119.88927332
_cell_angle_gamma   90.16409426
_symmetry_Int_Tables_number   1
_chemical_formula_structural   Ti8Al15Pd2Rh5
_chemical_formula_sum   'Ti8 Al15 Pd2 Rh5'
_cell_volume   451.72841488
_cell_formula_units_Z   1
loop_
 _symmetry_equiv_pos_site_id
 _symmetry_equiv_pos_as_xyz
  1  'x, y, z'
loop_
 _atom_site_type_symbol
 _atom_site_label
 _atom_site_symmetry_multiplicity
 _atom_site_fract_x
 _atom_site_fract_y
 _atom_site_fract_z
 _atom_site_occupancy
  Ti  Ti0  1  0.78969092  0.29019819  0.07389157  1
  Ti  Ti1  1  0.21630662  0.29019819  0.50050727  1
  Ti  Ti2  1  0.20972541  0.70950477  0.49977936  1
  Ti  Ti3  1  0.21354738  0.71478924  0.92331872  1
  Ti  Ti4  1  0.79147053  0.71478924  0.50124286  1
  Ti  Ti5  1  0.78375678  0.28449169  0.50073492  1
  Ti  Ti6  1  0.38340609  0.12746707  0.74406098  1
  Ti  Ti7  1  0.37892315  0.63562482  0.25670068  1
  Al  Al0  1  0.99701476  0.49576272  0.49874796  1
  Al  Al1  1  0.15338085  0.34403716  0.19065531  1
  Al  Al2  1  0.15483714  0.96747476  0.81263762  1
  Al  Al3  1  0.15115330  0.34732463  0.80682820  1
  Al  Al4  1  0.54049543  0.34732463  0.19617133  1
  Al  Al5  1  0.84408488  0.65314907  0.80906519  1
  Al  Al6  1  0.84694563  0.03726640  0.19032078  1
  Al  Al7  1  0.84117598  0.65247652  0.18375773  1
  Al  Al8  1  0.46871879  0.65247652  0.81130053  1
  Al  Al9  1  0.37697477  0.12376472  0.26122989  1
  Al  Al10  1  0.86253583  0.12376472  0.74678895  1
  Al  Al11  1  0.61896086  0.87518403  0.25622317  1
  Al  Al12  1  0.62233434  0.36536787  0.74303253  1
  Al  Al13  1  0.62379974  0.87625655  0.74088253  1
  Al  Al14  1  0.13537202  0.87625655  0.25245581  1
  Pd  Pd0  1  0.99934000  0.99922632  0.49928300  1
  Pd  Pd1  1  0.49994333  0.99922632  0.99988632  1
  Rh  Rh0  1  0.49720462  0.49780641  0.00060180  1
  Rh  Rh1  1  0.49767003  0.50003455  0.49774672  1
  Rh  Rh2  1  0.00228684  0.50003455  0.00236452  1
  Rh  Rh3  1  0.00020222  0.99971390  0.99951169  1
  Rh  Rh4  1  0.49873677  0.99900688  0.50027011  1
loop_
_geom_bond_atom_site_label_1
_geom_bond_atom_site_label_2
_geom_bond_distance
_geom_bond_site_symmetry_2
Ti0 Ti6 2.893251 1_554
Ti1 Ti6 2.893251 1_555
Ti2 Ti7 2.938260 1_555
Ti2 Ti6 2.976793 1_565
Ti3 Ti7 2.936911 1_556
Ti4 Ti7 2.936918 1_555
Al0 Ti2 2.585863 1_655
Al0 Ti4 2.588858 1_555
Al0 Ti3 2.588858 1_655
Al0 Ti1 2.591035 1_655
Al0 Ti0 2.591035 1_555
Al0 Ti5 2.592621 1_555
Al1 Rh3 2.482329 1_544
Al1 Rh2 2.491432 1_555
Al1 Rh1 2.491438 1_555
Al1 Ti0 2.725745 1_455
Al1 Ti1 2.725751 1_555
Al1 Ti2 2.747033 1_555
Al1 Al10 2.770387 1_454
Al1 Al9 2.770390 1_555
Al1 Ti7 2.798865 1_555
Al2 Rh3 2.477543 1_555
Al2 Pd1 2.508488 1_555
Al2 Pd0 2.508488 1_455
Al2 Ti4 2.735958 1_455
Al2 Ti3 2.735958 1_555
Al2 Ti2 2.777083 1_555
Al2 Al9 2.798027 1_566
Al2 Ti6 2.842122 1_565
Al3 Rh2 2.482021 1_556
Al3 Rh0 2.491871 1_556
Al3 Pd0 2.508226 1_445
Al3 Ti5 2.740979 1_455
Al3 Ti3 2.750996 1_555
Al3 Ti1 2.775653 1_555
Al3 Ti7 2.794579 1_556
Al3 Ti6 2.819720 1_555
Al4 Rh1 2.482008 1_555
Al4 Rh0 2.491873 1_555
Al4 Pd1 2.508227 1_544
Al4 Ti5 2.740981 1_555
Al4 Ti4 2.750999 1_555
Al4 Ti0 2.775662 1_555
Al4 Ti7 2.794579 1_555
Al4 Al9 2.800919 1_555
Al4 Ti6 2.819722 1_554
Al5 Rh3 2.505260 1_655
Al5 Rh2 2.511098 1_656
Al5 Rh1 2.511108 1_555
Al5 Ti5 2.752803 1_555
Al5 Ti4 2.780078 1_555
Al5 Ti3 2.780080 1_655
Al6 Rh3 2.487144 1_644
Al6 Pd1 2.511281 1_544
Al6 Pd0 2.511281 1_545
Al6 Ti1 2.770589 1_655
Al6 Ti0 2.770589 1_555
Al6 Ti5 2.783042 1_555
Al7 Rh2 2.492644 1_655
Al7 Rh0 2.502279 1_555
Al7 Pd0 2.514790 1_555
Al7 Ti0 2.725437 1_555
Al7 Ti4 2.767105 1_555
Al7 Ti2 2.788672 1_655
Al8 Rh1 2.492651 1_555
Al8 Rh0 2.502279 1_556
Al8 Pd1 2.514790 1_555
Al8 Ti1 2.725437 1_555
Al8 Ti3 2.767096 1_555
Al8 Ti2 2.788672 1_555
Al9 Rh4 2.560335 1_545
Al9 Rh1 2.643055 1_555
Al9 Rh3 2.653562 1_544
Al9 Pd1 2.704409 1_544
Al9 Ti1 2.849909 1_555
Al9 Ti5 2.892430 1_555
Al9 Ti3 2.912706 1_544
Al10 Rh4 2.560342 1_545
Al10 Rh2 2.643055 1_656
Al10 Rh3 2.653568 1_645
Al10 Pd0 2.704395 1_545
Al10 Al2 2.798020 1_645
Al10 Al3 2.800912 1_655
Al10 Ti0 2.849923 1_556
Al10 Ti5 2.892422 1_555
Al10 Ti4 2.912704 1_545
Al10 Al13 2.920229 1_545
Al10 Al12 2.937241 1_555
Al10 Al11 2.990481 1_545
Al11 Rh4 2.562730 1_555
Al11 Rh0 2.649590 1_555
Al11 Pd0 2.677951 1_555
Al11 Pd1 2.677951 1_554
Al11 Al7 2.782410 1_555
Al11 Al8 2.782411 1_554
Al11 Al6 2.830414 1_565
Al11 Ti3 2.892034 1_554
Al11 Ti4 2.892040 1_555
Al11 Ti5 2.902807 1_565
Al11 Ti7 2.918084 1_555
Al11 Al9 2.990487 1_565
Al12 Rh4 2.571474 1_545
Al12 Rh2 2.674428 1_656
Al12 Rh1 2.674429 1_555
Al12 Rh0 2.692568 1_556
Al12 Al8 2.745694 1_555
Al12 Al7 2.745699 1_556
Al12 Al5 2.753711 1_555
Al12 Ti5 2.867805 1_555
Al12 Ti1 2.893753 1_555
Al12 Ti0 2.893761 1_556
Al12 Ti6 2.904631 1_555
Al12 Al9 2.937230 1_555
Al13 Rh4 2.557521 1_555
Al13 Rh1 2.641405 1_555
Al13 Rh3 2.650200 1_655
Al13 Pd1 2.694133 1_555
Al13 Al5 2.768736 1_555
Al13 Al6 2.795467 1_566
Al13 Al8 2.796115 1_555
Al13 Ti4 2.897818 1_555
Al13 Ti0 2.937015 1_566
Al13 Ti2 2.950788 1_555
Al13 Ti7 2.951647 1_555
Al13 Ti6 2.997023 1_565
Al14 Rh4 2.557535 1_555
Al14 Rh2 2.641405 1_555
Al14 Rh3 2.650193 1_554
Al14 Pd0 2.694126 1_455
Al14 Al5 2.768721 1_454
Al14 Al6 2.795453 1_465
Al14 Al7 2.796107 1_455
Al14 Ti3 2.897829 1_554
Al14 Al9 2.920223 1_565
Al14 Ti1 2.937013 1_565
Al14 Ti2 2.950793 1_555
Al14 Ti7 2.951653 1_555
Al14 Ti6 2.997029 1_565
Pd0 Ti6 2.704317 1_665
Pd0 Ti4 3.039628 1_555
Pd0 Ti2 3.086116 1_655
Pd0 Ti1 3.112084 1_665
Pd1 Ti6 2.704317 1_565
Pd1 Ti3 3.039622 1_555
Pd1 Ti2 3.086116 1_555
Pd1 Ti0 3.112084 1_566
Rh0 Ti6 2.603692 1_554
Rh0 Ti7 2.635636 1_555
Rh0 Ti0 3.082926 1_555
Rh0 Ti1 3.082926 1_554
Rh0 Ti3 3.089561 1_554
Rh0 Ti4 3.089567 1_555
Rh1 Ti7 2.651338 1_555
Rh1 Ti1 3.034783 1_555
Rh1 Ti2 3.072213 1_555
Rh1 Ti4 3.108387 1_555
Rh2 Ti7 2.651338 1_555
Rh2 Ti0 3.034777 1_455
Rh2 Ti2 3.072212 1_555
Rh2 Ti3 3.108399 1_554
Rh3 Ti4 3.071826 1_455
Rh3 Ti3 3.071831 1_555
Rh3 Ti0 3.086576 1_466
Rh3 Ti1 3.086576 1_566
Rh4 Ti6 2.527320 1_565
Rh4 Ti7 2.550649 1_555
