# generated using pymatgen
data_Sr6Sn8SbCl
_symmetry_space_group_name_H-M   'P 1'
_cell_length_a   8.91888582
_cell_length_b   8.91888528
_cell_length_c   8.91888558
_cell_angle_alpha   120.12110226
_cell_angle_beta   120.12110306
_cell_angle_gamma   89.79037306
_symmetry_Int_Tables_number   1
_chemical_formula_structural   Sr6Sn8SbCl
_chemical_formula_sum   'Sr6 Sn8 Sb1 Cl1'
_cell_volume   500.74651114
_cell_formula_units_Z   1
loop_
 _symmetry_equiv_pos_site_id
 _symmetry_equiv_pos_as_xyz
  1  'x, y, z'
loop_
 _atom_site_type_symbol
 _atom_site_label
 _atom_site_symmetry_multiplicity
 _atom_site_fract_x
 _atom_site_fract_y
 _atom_site_fract_z
 _atom_site_occupancy
  Sr  Sr0  1  0.25749586  0.25749586  0.00000000  1
  Sr  Sr1  1  0.74250414  0.74250414  1.00000000  1
  Sr  Sr2  1  0.16213504  0.66610052  0.82823657  1
  Sr  Sr3  1  0.83786496  0.33389948  0.17176343  1
  Sr  Sr4  1  0.66610052  0.83786496  0.50396548  1
  Sr  Sr5  1  0.33389948  0.16213504  0.49603452  1
  Sn  Sn0  1  0.83227657  0.33145966  0.78434495  1
  Sn  Sn1  1  0.16772343  0.66854034  0.21565505  1
  Sn  Sn2  1  0.54711571  0.04793162  0.21565505  1
  Sn  Sn3  1  0.33145966  0.54711571  0.49918409  1
  Sn  Sn4  1  0.95206838  0.16772343  0.49918409  1
  Sn  Sn5  1  0.45288429  0.95206838  0.78434495  1
  Sn  Sn6  1  0.66854034  0.45288429  0.50081591  1
  Sn  Sn7  1  0.04793162  0.83227657  0.50081591  1
  Sb  Sb0  1  0.00000000  0.00000000  0.00000000  1
  Cl  Cl0  1  0.50000000  0.50000000  0.00000000  1
loop_
_geom_bond_atom_site_label_1
_geom_bond_atom_site_label_2
_geom_bond_distance
_geom_bond_site_symmetry_2
Sn0 Sn4 2.954774 1_555
Sn0 Sn6 2.954781 1_555
Sn0 Sn1 3.113631 1_656
Sn0 Sr3 3.419654 1_556
Sn0 Sr1 3.496798 1_555
Sn0 Sr0 3.528678 1_656
Sn0 Sr4 3.620673 1_545
Sn0 Sr5 3.651097 1_555
Sn0 Sr2 3.930919 1_655
Sn1 Sn7 2.954774 1_555
Sn1 Sn3 2.954781 1_555
Sn1 Sr2 3.419654 1_554
Sn1 Sr0 3.496798 1_555
Sn1 Sr1 3.528678 1_454
Sn1 Sr5 3.620673 1_565
Sn1 Sr4 3.651097 1_555
Sn1 Sr3 3.930919 1_455
Sn2 Sn6 2.954774 1_555
Sn2 Sn4 2.954774 1_555
Sn2 Sn5 3.113625 1_544
Sn2 Sr2 3.419667 1_544
Sn2 Sr1 3.496791 1_544
Sn2 Sr0 3.528682 1_555
Sn2 Sr5 3.620681 1_555
Sn2 Sr4 3.651097 1_545
Sn2 Sr3 3.930925 1_555
Sn3 Sn5 2.954774 1_555
Sn3 Sn6 3.113642 1_555
Sn3 Sr5 3.419667 1_555
Sn3 Sr1 3.496795 1_555
Sn3 Sr0 3.528686 1_555
Sn3 Sr3 3.620673 1_455
Sn3 Sr2 3.651098 1_555
Sn3 Sr4 3.930925 1_555
Sn4 Sn7 3.113625 1_645
Sn4 Sr5 3.419667 1_655
Sn4 Sr0 3.496791 1_656
Sn4 Sr1 3.528682 1_544
Sn4 Sr3 3.620688 1_555
Sn4 Sr2 3.651097 1_655
Sn4 Sr4 3.930918 1_545
Sn5 Sn7 2.954774 1_555
Sn5 Sr3 3.419667 1_566
Sn5 Sr0 3.496791 1_566
Sn5 Sr1 3.528682 1_555
Sn5 Sr4 3.620681 1_555
Sn5 Sr5 3.651097 1_565
Sn5 Sr2 3.930925 1_555
Sn6 Sr4 3.419667 1_555
Sn6 Sr0 3.496795 1_555
Sn6 Sr1 3.528686 1_555
Sn6 Sr2 3.620673 1_655
Sn6 Sr3 3.651098 1_555
Sn6 Sr5 3.930925 1_555
Sn7 Sr4 3.419667 1_455
Sn7 Sr1 3.496791 1_454
Sn7 Sr0 3.528682 1_566
Sn7 Sr2 3.620688 1_555
Sn7 Sr3 3.651097 1_455
Sn7 Sr5 3.930918 1_565
Sb0 Sr0 3.253785 1_555
Sb0 Sr1 3.253785 1_444
Sb0 Sr2 3.304473 1_544
Sb0 Sr3 3.304473 1_455
Sb0 Sr5 3.304475 1_555
Sb0 Sr4 3.304475 1_444
Cl0 Sr1 3.064346 1_554
Cl0 Sr0 3.064346 1_555
Cl0 Sr3 3.351690 1_555
Cl0 Sr2 3.351690 1_554
Cl0 Sr4 3.351692 1_555
Cl0 Sr5 3.351692 1_554
