# generated using pymatgen
data_K2Os(Cl2F)2
_symmetry_space_group_name_H-M   'P 1'
_cell_length_a   6.57275691
_cell_length_b   6.57275759
_cell_length_c   6.57276312
_cell_angle_alpha   115.87746228
_cell_angle_beta   115.87745911
_cell_angle_gamma   97.30224237
_symmetry_Int_Tables_number   1
_chemical_formula_structural   K2Os(Cl2F)2
_chemical_formula_sum   'K2 Os1 Cl4 F2'
_cell_volume   211.43342470
_cell_formula_units_Z   1
loop_
 _symmetry_equiv_pos_site_id
 _symmetry_equiv_pos_as_xyz
  1  'x, y, z'
loop_
 _atom_site_type_symbol
 _atom_site_label
 _atom_site_symmetry_multiplicity
 _atom_site_fract_x
 _atom_site_fract_y
 _atom_site_fract_z
 _atom_site_occupancy
  K  K0  1  0.75000000  0.25000000  0.50000000  1
  K  K1  1  0.25000000  0.75000000  0.50000000  1
  Os  Os0  1  0.00000000  0.00000000  0.00000000  1
  Cl  Cl0  1  0.76110135  0.76110135  0.52220171  1
  Cl  Cl1  1  0.23889865  0.23889865  0.47779829  1
  Cl  Cl2  1  0.23890065  0.76109935  1.00000000  1
  Cl  Cl3  1  0.76109935  0.23890065  0.00000000  1
  F  F0  1  0.77916923  0.77916923  1.00000000  1
  F  F1  1  0.22083077  0.22083077  0.00000000  1
loop_
_geom_bond_atom_site_label_1
_geom_bond_atom_site_label_2
_geom_bond_distance
_geom_bond_site_symmetry_2
Cl0 Os0 2.357544 1_666
Cl0 K1 3.288201 1_655
Cl0 K0 3.288201 1_565
Cl0 K1 3.288207 1_555
Cl0 K0 3.288207 1_555
Cl1 Os0 2.357544 1_555
Cl1 K0 3.288201 1_455
Cl1 K1 3.288201 1_545
Cl1 K0 3.288207 1_555
Cl1 K1 3.288207 1_555
Cl2 Os0 2.357555 1_566
Cl2 K1 3.288206 1_555
Cl2 K1 3.288206 1_556
Cl2 K0 3.288206 1_566
Cl2 K0 3.288206 1_455
Cl3 Os0 2.357555 1_655
Cl3 K0 3.288206 1_555
Cl3 K0 3.288206 1_554
Cl3 K1 3.288206 1_544
Cl3 K1 3.288206 1_655
F0 Os0 1.917801 1_666
F1 Os0 1.917801 1_555
