# generated using pymatgen
data_Y4Si10(OsRu)3
_symmetry_space_group_name_H-M   'P 1'
_cell_length_a   8.19710481
_cell_length_b   8.24881117
_cell_length_c   8.24881122
_cell_angle_alpha   140.26151775
_cell_angle_beta   108.33365683
_cell_angle_gamma   85.29282159
_symmetry_Int_Tables_number   1
_chemical_formula_structural   Y4Si10(OsRu)3
_chemical_formula_sum   'Y4 Si10 Os3 Ru3'
_cell_volume   326.51634142
_cell_formula_units_Z   1
loop_
 _symmetry_equiv_pos_site_id
 _symmetry_equiv_pos_as_xyz
  1  'x, y, z'
loop_
 _atom_site_type_symbol
 _atom_site_label
 _atom_site_symmetry_multiplicity
 _atom_site_fract_x
 _atom_site_fract_y
 _atom_site_fract_z
 _atom_site_occupancy
  Y  Y0  1  0.86710564  0.63198252  0.23512511  1
  Y  Y1  1  0.13261395  0.36766313  0.76495182  1
  Y  Y2  1  0.40897455  0.13812344  0.27085111  1
  Y  Y3  1  0.59072147  0.86168387  0.72903760  1
  Si  Si0  1  0.49951753  0.75045901  0.25019708  1
  Si  Si1  1  0.49951753  0.24932145  0.74905852  1
  Si  Si2  1  0.21371698  0.94170439  0.73971049  1
  Si  Si3  1  0.78724719  0.52834590  0.73038177  1
  Si  Si4  1  0.78724719  0.05686443  0.25890130  1
  Si  Si5  1  0.21371698  0.47400748  0.27201359  1
  Si  Si6  1  0.07460823  0.90886352  0.16574471  1
  Si  Si7  1  0.92631317  0.09114210  0.83517007  1
  Si  Si8  1  0.72948110  0.40083201  0.32865109  1
  Si  Si9  1  0.26972790  0.59888912  0.67083778  1
  Os  Os0  1  0.74530010  0.14369889  0.60160122  1
  Os  Os1  1  0.43735733  0.35005835  0.08729998  1
  Os  Os2  1  0.56189120  0.65035943  0.91153177  1
  Ru  Ru0  1  0.99964940  0.74833099  0.74837619  1
  Ru  Ru1  1  0.99964940  0.25127421  0.25131842  1
  Ru  Ru2  1  0.25564215  0.85639876  0.39924339  1
loop_
_geom_bond_atom_site_label_1
_geom_bond_atom_site_label_2
_geom_bond_distance
_geom_bond_site_symmetry_2
Si0 Y1 3.095936 1_554
Si0 Y0 3.100834 1_555
Si0 Y2 3.107691 1_565
Si0 Y3 3.111856 1_555
Si1 Y1 3.095936 1_555
Si1 Y0 3.100839 1_556
Si1 Y2 3.107686 1_555
Si1 Y3 3.111864 1_545
Si2 Si9 2.451604 1_555
Si2 Si7 2.624370 1_465
Si2 Y0 3.053099 1_455
Si2 Y2 3.078841 1_566
Si2 Y3 3.121005 1_555
Si2 Y1 3.377817 1_565
Si3 Si8 2.458829 1_555
Si3 Si6 2.617898 1_656
Si3 Y1 3.051275 1_655
Si3 Y3 3.076433 1_555
Si3 Y2 3.134189 1_555
Si3 Y0 3.376027 1_556
Si4 Si8 2.458843 1_555
Si4 Si6 2.617896 1_645
Si4 Y1 3.051277 1_655
Si4 Y3 3.076437 1_544
Si4 Y2 3.134190 1_555
Si4 Y0 3.376014 1_545
Si5 Si9 2.451598 1_555
Si5 Si7 2.624377 1_454
Si5 Y0 3.053100 1_455
Si5 Y2 3.078844 1_555
Si5 Y3 3.121004 1_555
Si5 Y1 3.377818 1_554
Si6 Y2 2.945228 1_565
Si6 Y1 3.004601 1_554
Si6 Y1 3.004607 1_565
Si6 Y0 3.420131 1_455
Si7 Y3 2.950827 1_545
Si7 Y0 3.006453 1_545
Si7 Y0 3.006469 1_556
Si7 Y1 3.417485 1_655
Si8 Y0 2.943852 1_555
Si8 Y3 2.999560 1_555
Si8 Y3 2.999571 1_544
Si8 Y2 3.222277 1_555
Si9 Y1 2.946505 1_555
Si9 Y2 3.000956 1_555
Si9 Y2 3.000962 1_566
Si9 Y3 3.223950 1_555
Os0 Si7 2.341405 1_555
Os0 Si1 2.433384 1_555
Os0 Si0 2.433385 1_545
Os0 Si4 2.465656 1_555
Os0 Si3 2.465661 1_555
Os0 Y0 3.087933 1_545
Os0 Y0 3.087944 1_556
Os0 Y1 3.122706 1_655
Os0 Y2 3.184676 1_555
Os1 Si8 2.399179 1_555
Os1 Si5 2.404425 1_555
Os1 Si2 2.404426 1_544
Os1 Si0 2.448246 1_555
Os1 Si1 2.448253 1_554
Os1 Y1 3.112409 1_554
Os1 Y3 3.120769 1_555
Os1 Y3 3.120773 1_544
Os1 Y2 3.124418 1_555
Os2 Si9 2.395181 1_555
Os2 Si4 2.403458 1_566
Os2 Si3 2.403461 1_555
Os2 Si1 2.455407 1_555
Os2 Si0 2.455414 1_556
Os2 Y3 3.112516 1_555
Os2 Y2 3.116654 1_566
Os2 Y2 3.116654 1_555
Os2 Y0 3.125080 1_556
Ru0 Si7 2.397592 1_565
Ru0 Si6 2.403169 1_656
Ru0 Si9 2.461740 1_655
Ru0 Si8 2.462379 1_555
Ru0 Si3 2.507579 1_555
Ru0 Si2 2.518373 1_655
Ru0 Y0 3.324784 1_555
Ru0 Y1 3.327375 1_655
Ru0 Y3 3.393285 1_555
Ru1 Si7 2.397591 1_554
Ru1 Si6 2.403176 1_645
Ru1 Si9 2.461737 1_655
Ru1 Si8 2.462383 1_555
Ru1 Si4 2.507591 1_555
Ru1 Si5 2.518367 1_655
Ru1 Y0 3.324781 1_555
Ru1 Y1 3.327383 1_655
Ru1 Y3 3.393287 1_544
Ru2 Si6 2.340441 1_555
Ru2 Si0 2.424587 1_555
Ru2 Si1 2.424591 1_565
Ru2 Si5 2.455364 1_555
Ru2 Si2 2.455367 1_555
Ru2 Y1 3.090766 1_554
Ru2 Y1 3.090771 1_565
Ru2 Y0 3.131131 1_455
Ru2 Y3 3.175428 1_555
