# generated using pymatgen
data_Rb4Sb4PdPt
_symmetry_space_group_name_H-M   'P 1'
_cell_length_a   8.27266629
_cell_length_b   8.27266594
_cell_length_c   6.64188976
_cell_angle_alpha   89.70230936
_cell_angle_beta   90.29769364
_cell_angle_gamma   127.29092391
_symmetry_Int_Tables_number   1
_chemical_formula_structural   Rb4Sb4PdPt
_chemical_formula_sum   'Rb4 Sb4 Pd1 Pt1'
_cell_volume   361.62084891
_cell_formula_units_Z   1
loop_
 _symmetry_equiv_pos_site_id
 _symmetry_equiv_pos_as_xyz
  1  'x, y, z'
loop_
 _atom_site_type_symbol
 _atom_site_label
 _atom_site_symmetry_multiplicity
 _atom_site_fract_x
 _atom_site_fract_y
 _atom_site_fract_z
 _atom_site_occupancy
  Rb  Rb0  1  0.59746030  0.40253970  0.75219728  1
  Rb  Rb1  1  0.40253970  0.59746030  0.24780272  1
  Rb  Rb2  1  0.19784234  0.80215766  0.75153351  1
  Rb  Rb3  1  0.80215766  0.19784234  0.24846649  1
  Sb  Sb0  1  0.70400721  0.91351025  0.74954862  1
  Sb  Sb1  1  0.91351025  0.70400721  0.25045138  1
  Sb  Sb2  1  0.29599279  0.08648975  0.25045138  1
  Sb  Sb3  1  0.08648975  0.29599279  0.74954862  1
  Pd  Pd0  1  0.00000000  0.00000000  0.50000000  1
  Pt  Pt0  1  0.00000000  0.00000000  0.00000000  1
loop_
_geom_bond_atom_site_label_1
_geom_bond_atom_site_label_2
_geom_bond_distance
_geom_bond_site_symmetry_2
Rb0 Sb0 3.759011 1_555
Rb0 Sb3 3.759011 1_555
Rb0 Sb1 4.012757 1_556
Rb0 Sb2 4.012757 1_556
Rb0 Sb2 4.032937 1_555
Rb0 Sb1 4.032937 1_555
Rb1 Sb2 3.759011 1_555
Rb1 Sb1 3.759011 1_555
Rb1 Sb3 4.012757 1_554
Rb1 Sb0 4.012757 1_554
Rb1 Sb0 4.032937 1_555
Rb1 Sb3 4.032937 1_555
Rb2 Sb3 3.702563 1_555
Rb2 Sb0 3.702563 1_555
Rb2 Sb1 3.860180 1_455
Rb2 Sb2 3.860180 1_565
Rb2 Sb2 3.861583 1_566
Rb2 Sb1 3.861583 1_456
Rb3 Sb1 3.702563 1_555
Rb3 Sb2 3.702563 1_555
Rb3 Sb3 3.860180 1_655
Rb3 Sb0 3.860180 1_545
Rb3 Sb0 3.861583 1_544
Rb3 Sb3 3.861583 1_654
Sb0 Sb3 2.809287 1_665
Sb1 Sb2 2.809287 1_665
Pd0 Sb3 2.676181 1_555
Pd0 Sb1 2.676181 1_445
Pd0 Sb0 2.676181 1_445
Pd0 Sb2 2.676181 1_555
Pd0 Rb3 3.367139 1_455
Pd0 Rb2 3.367139 1_545
Pt0 Sb2 2.668716 1_555
Pt0 Sb0 2.668716 1_444
Pt0 Sb3 2.668716 1_554
Pt0 Sb1 2.668716 1_445
Pt0 Rb2 3.373861 1_544
Pt0 Rb3 3.373861 1_455
