# generated using pymatgen
data_NaYGePt3
_symmetry_space_group_name_H-M   'P 1'
_cell_length_a   5.51646011
_cell_length_b   5.51645963
_cell_length_c   5.15674080
_cell_angle_alpha   57.66433047
_cell_angle_beta   57.66433121
_cell_angle_gamma   59.99999132
_symmetry_Int_Tables_number   1
_chemical_formula_structural   NaYGePt3
_chemical_formula_sum   'Na1 Y1 Ge1 Pt3'
_cell_volume   106.88351945
_cell_formula_units_Z   1
loop_
 _symmetry_equiv_pos_site_id
 _symmetry_equiv_pos_as_xyz
  1  'x, y, z'
loop_
 _atom_site_type_symbol
 _atom_site_label
 _atom_site_symmetry_multiplicity
 _atom_site_fract_x
 _atom_site_fract_y
 _atom_site_fract_z
 _atom_site_occupancy
  Na  Na0  1  0.75183622  0.75183622  0.74449033  1
  Y  Y0  1  0.50233579  0.50233579  0.49299363  1
  Ge  Ge0  1  0.12323091  0.12323091  0.63030728  1
  Pt  Pt0  1  0.12353790  0.12353790  0.12740292  1
  Pt  Pt1  1  0.62552128  0.12353790  0.12740292  1
  Pt  Pt2  1  0.12353790  0.62552128  0.12740292  1
loop_
_geom_bond_atom_site_label_1
_geom_bond_atom_site_label_2
_geom_bond_distance
_geom_bond_site_symmetry_2
Na0 Pt1 2.962986 1_565
Na0 Pt2 2.962986 1_655
Na0 Pt0 2.962989 1_665
Na0 Y0 3.035659 1_556
Na0 Pt1 3.165364 1_556
Na0 Pt2 3.165364 1_556
Na0 Pt0 3.165366 1_656
Na0 Pt0 3.165366 1_566
Na0 Pt1 3.165368 1_566
Na0 Pt2 3.165368 1_656
Na0 Y0 3.344263 1_555
Na0 Y0 3.344272 1_565
Na0 Y0 3.344272 1_655
Ge0 Pt0 2.565206 1_556
Ge0 Pt2 2.565206 1_546
Ge0 Pt1 2.565206 1_456
Ge0 Pt0 2.591537 1_555
Ge0 Pt2 2.591537 1_555
Ge0 Pt1 2.591537 1_555
Ge0 Na0 3.218418 1_455
Ge0 Na0 3.218418 1_545
Ge0 Na0 3.218423 1_445
Ge0 Y0 3.233248 1_545
Ge0 Y0 3.233249 1_455
Ge0 Y0 3.233254 1_555
Pt0 Pt2 2.747289 1_545
Pt0 Pt1 2.747289 1_455
Pt0 Pt2 2.769171 1_555
Pt0 Pt1 2.769171 1_555
Pt0 Y0 3.029209 1_554
Pt0 Y0 3.131498 1_545
Pt0 Y0 3.131498 1_455
Pt1 Pt2 2.747288 1_645
Pt1 Pt2 2.769171 1_555
Pt1 Y0 3.029206 1_554
Pt1 Y0 3.131496 1_545
Pt1 Y0 3.131501 1_555
Pt2 Y0 3.029206 1_554
Pt2 Y0 3.131496 1_455
Pt2 Y0 3.131501 1_555
