# generated using pymatgen
data_Sr4AsOs3O16
_symmetry_space_group_name_H-M   'P 1'
_cell_length_a   5.21493333
_cell_length_b   5.44367923
_cell_length_c   12.49988375
_cell_angle_alpha   90.00000000
_cell_angle_beta   90.00000000
_cell_angle_gamma   90.84656701
_symmetry_Int_Tables_number   1
_chemical_formula_structural   Sr4AsOs3O16
_chemical_formula_sum   'Sr4 As1 Os3 O16'
_cell_volume   354.81326966
_cell_formula_units_Z   1
loop_
 _symmetry_equiv_pos_site_id
 _symmetry_equiv_pos_as_xyz
  1  'x, y, z'
loop_
 _atom_site_type_symbol
 _atom_site_label
 _atom_site_symmetry_multiplicity
 _atom_site_fract_x
 _atom_site_fract_y
 _atom_site_fract_z
 _atom_site_occupancy
  Sr  Sr0  1  0.75000000  0.00000000  0.64091683  1
  Sr  Sr1  1  0.25000000  0.50000000  0.86219673  1
  Sr  Sr2  1  0.25000000  0.00000000  0.36256288  1
  Sr  Sr3  1  0.75000000  0.50000000  0.13863277  1
  As  As0  1  0.75000000  0.00000000  0.89729032  1
  Os  Os0  1  0.75000000  0.50000000  0.41770913  1
  Os  Os1  1  0.25000000  0.00000000  0.08422983  1
  Os  Os2  1  0.25000000  0.50000000  0.58039133  1
  O  O0  1  0.09528729  0.31228814  0.68142798  1
  O  O1  1  0.59024290  0.19399443  0.81711772  1
  O  O2  1  0.90975710  0.80600557  0.81711772  1
  O  O3  1  0.40471271  0.68771186  0.68142798  1
  O  O4  1  0.92675710  0.66824466  0.31457465  1
  O  O5  1  0.45915890  0.87212622  0.18373556  1
  O  O6  1  0.04084110  0.12787378  0.18373556  1
  O  O7  1  0.57324290  0.33175534  0.31457465  1
  O  O8  1  0.49583157  0.28579598  0.52659714  1
  O  O9  1  0.96240637  0.17395803  0.97340435  1
  O  O10  1  0.53759363  0.82604197  0.97340435  1
  O  O11  1  0.00416843  0.71420402  0.52659714  1
  O  O12  1  0.51092938  0.72100470  0.46995711  1
  O  O13  1  0.08692705  0.72824090  0.04121908  1
  O  O14  1  0.41307295  0.27175910  0.04121908  1
  O  O15  1  0.98907062  0.27899530  0.46995711  1
loop_
_geom_bond_atom_site_label_1
_geom_bond_atom_site_label_2
_geom_bond_distance
_geom_bond_site_symmetry_2
As0 O1 1.685117 1_555
As0 O2 1.685117 1_545
As0 O9 1.731450 1_555
As0 O10 1.731450 1_545
O0 Os2 1.807149 1_555
O0 Sr0 2.509641 1_455
O0 Sr1 2.603170 1_555
O1 Sr1 2.515557 1_555
O1 Sr0 2.585785 1_555
O2 Sr1 2.515557 1_655
O2 Sr0 2.585785 1_565
O3 Os2 1.807149 1_555
O3 Sr0 2.509641 1_565
O3 Sr1 2.603170 1_555
O4 Os0 1.823595 1_555
O4 Sr2 2.524468 1_665
O4 Sr3 2.549560 1_555
O5 Os1 1.801054 1_565
O5 Sr2 2.587159 1_565
O5 Sr3 2.610110 1_555
O6 Os1 1.801054 1_555
O6 Sr2 2.587159 1_555
O6 Sr3 2.610110 1_455
O7 Os0 1.823595 1_555
O7 Sr2 2.524468 1_555
O7 Sr3 2.549560 1_555
O8 Os2 1.870702 1_555
O8 Os0 2.218886 1_555
O8 Sr0 2.506044 1_555
O8 Sr2 2.865172 1_555
O9 Os1 2.259898 1_656
O9 Sr1 2.693171 1_655
O9 Sr3 2.949717 1_556
O10 Os1 2.259898 1_566
O10 Sr1 2.693171 1_555
O10 Sr3 2.949717 1_556
O11 Os2 1.870702 1_555
O11 Os0 2.218886 1_455
O11 Sr0 2.506044 1_465
O11 Sr2 2.865172 1_565
O12 Os0 1.863493 1_555
O12 Os2 2.270716 1_555
O12 Sr2 2.453847 1_565
O12 Sr0 2.893390 1_565
O13 Os1 1.778653 1_565
O13 Sr3 2.459502 1_455
O13 Sr1 2.702910 1_554
O14 Os1 1.778653 1_555
O14 Sr3 2.459502 1_555
O14 Sr1 2.702910 1_554
O15 Os0 1.863493 1_555
O15 Os2 2.270716 1_655
O15 Sr2 2.453847 1_655
O15 Sr0 2.893390 1_555
