# generated using pymatgen
data_Ho3(AlNi3)2
_symmetry_space_group_name_H-M   'P 1'
_cell_length_a   7.64181588
_cell_length_b   7.64183184
_cell_length_c   7.64181863
_cell_angle_alpha   109.46970319
_cell_angle_beta   109.46873426
_cell_angle_gamma   109.46974727
_symmetry_Int_Tables_number   1
_chemical_formula_structural   Ho3(AlNi3)2
_chemical_formula_sum   'Ho6 Al4 Ni12'
_cell_volume   343.55655100
_cell_formula_units_Z   2
loop_
 _symmetry_equiv_pos_site_id
 _symmetry_equiv_pos_as_xyz
  1  'x, y, z'
loop_
 _atom_site_type_symbol
 _atom_site_label
 _atom_site_symmetry_multiplicity
 _atom_site_fract_x
 _atom_site_fract_y
 _atom_site_fract_z
 _atom_site_occupancy
  Ho  Ho0  1  0.29387386  -0.00000605  0.29387915  1
  Ho  Ho1  1  0.70611493  -0.00000714  0.70611914  1
  Ho  Ho2  1  0.70612649  0.70612501  0.00000008  1
  Ho  Ho3  1  0.29387538  0.29387670  0.00000336  1
  Ho  Ho4  1  0.00000262  0.70612891  0.70612447  1
  Ho  Ho5  1  0.00000599  0.29388181  0.29387536  1
  Al  Al0  1  0.00000161  -0.00000375  0.49999925  1
  Al  Al1  1  0.49999803  -0.00000179  -0.00000369  1
  Al  Al2  1  0.00000288  0.50000307  0.00000706  1
  Al  Al3  1  0.49999711  0.50000356  0.49999959  1
  Ni  Ni0  1  0.66558612  0.33441527  0.00000164  1
  Ni  Ni1  1  0.66558901  -0.00000083  0.33441071  1
  Ni  Ni2  1  -0.00000053  0.66558524  0.33441498  1
  Ni  Ni3  1  0.66881953  0.33440991  0.33440641  1
  Ni  Ni4  1  0.33118153  0.66558967  0.66559277  1
  Ni  Ni5  1  0.33440580  0.33440953  0.66881822  1
  Ni  Ni6  1  0.33440835  -0.00000220  0.66558701  1
  Ni  Ni7  1  0.66559274  0.66559130  0.33118186  1
  Ni  Ni8  1  0.00000553  0.33441733  0.66558741  1
  Ni  Ni9  1  0.33440453  0.66881198  0.33440729  1
  Ni  Ni10  1  0.33441240  0.66558343  -0.00000540  1
  Ni  Ni11  1  0.66559409  0.33118703  0.66559632  1
loop_
_geom_bond_atom_site_label_1
_geom_bond_atom_site_label_2
_geom_bond_distance
_geom_bond_site_symmetry_2
Ho0 Ni6 2.752809 1_555
Ho0 Ni9 2.752834 1_545
Ho0 Ni1 2.752864 1_555
Ho0 Ni11 2.753154 1_555
Ho0 Ni2 2.972465 1_545
Ho0 Ni5 2.972523 1_555
Ho0 Ni10 2.972528 1_545
Ho0 Ni3 2.972573 1_555
Ho1 Ni6 2.752828 1_555
Ho1 Ni1 2.752858 1_555
Ho1 Ni11 2.752883 1_555
Ho1 Ni9 2.753088 1_545
Ho1 Ni4 2.972467 1_545
Ho1 Ni7 2.972498 1_545
Ho1 Ni0 2.972531 1_556
Ho1 Ni8 2.972585 1_655
Ho2 Ni0 2.752828 1_555
Ho2 Ni10 2.752832 1_555
Ho2 Ni7 2.752848 1_555
Ho2 Ni5 2.753126 1_554
Ho2 Ni11 2.972471 1_554
Ho2 Ni1 2.972482 1_565
Ho2 Ni4 2.972539 1_554
Ho2 Ni2 2.972543 1_655
Ho3 Ni10 2.752832 1_555
Ho3 Ni0 2.752833 1_555
Ho3 Ni5 2.752862 1_554
Ho3 Ni7 2.753108 1_555
Ho3 Ni9 2.972471 1_555
Ho3 Ni6 2.972506 1_554
Ho3 Ni3 2.972526 1_555
Ho3 Ni8 2.972540 1_554
Ho4 Ni2 2.752801 1_555
Ho4 Ni4 2.752836 1_555
Ho4 Ni8 2.752852 1_555
Ho4 Ni3 2.753131 1_455
Ho4 Ni6 2.972436 1_565
Ho4 Ni11 2.972523 1_455
Ho4 Ni7 2.972528 1_455
Ho4 Ni10 2.972535 1_556
Ho5 Ni2 2.752796 1_555
Ho5 Ni8 2.752846 1_555
Ho5 Ni3 2.752859 1_455
Ho5 Ni4 2.753083 1_555
Ho5 Ni9 2.972412 1_555
Ho5 Ni5 2.972529 1_555
Ho5 Ni1 2.972534 1_455
Ho5 Ni0 2.972539 1_455
Al0 Ni6 2.444610 1_555
Al0 Ni2 2.444615 1_545
Al0 Ni1 2.444668 1_455
Al0 Ni8 2.444680 1_555
Al0 Ni7 2.444722 1_445
Al0 Ni5 2.444734 1_555
Al0 Ho0 3.143598 1_555
Al0 Ho4 3.143615 1_545
Al0 Ho1 3.143691 1_455
Al0 Ho5 3.143728 1_555
Al0 Ho2 3.143902 1_445
Al0 Ho3 3.143934 1_556
Al1 Ni6 2.444635 1_554
Al1 Ni10 2.444643 1_545
Al1 Ni0 2.444647 1_555
Al1 Ni1 2.444668 1_555
Al1 Ni4 2.444717 1_544
Al1 Ni3 2.444750 1_555
Al1 Ho1 3.143609 1_554
Al1 Ho3 3.143672 1_555
Al1 Ho2 3.143675 1_545
Al1 Ho0 3.143694 1_555
Al1 Ho4 3.143876 1_544
Al1 Ho5 3.143959 1_655
Al2 Ni2 2.444610 1_555
Al2 Ni0 2.444640 1_455
Al2 Ni10 2.444653 1_555
Al2 Ni8 2.444690 1_554
Al2 Ni9 2.444704 1_555
Al2 Ni11 2.444765 1_454
Al2 Ho5 3.143596 1_555
Al2 Ho2 3.143652 1_455
Al2 Ho3 3.143657 1_555
Al2 Ho4 3.143720 1_554
Al2 Ho0 3.143839 1_565
Al2 Ho1 3.143966 1_454
Al3 Ni9 2.444525 1_555
Al3 Ni4 2.444529 1_555
Al3 Ni7 2.444558 1_555
Al3 Ni5 2.444572 1_555
Al3 Ni3 2.444604 1_555
Al3 Ni11 2.444614 1_555
Al3 Ho1 3.143757 1_565
Al3 Ho5 3.143775 1_555
Al3 Ho3 3.143810 1_555
Al3 Ho2 3.143838 1_556
Al3 Ho4 3.143870 1_655
Al3 Ho0 3.143890 1_555
Ni0 Ni3 2.547346 1_555
Ni0 Ni11 2.547369 1_554
Ni0 Ni2 2.547602 1_655
Ni0 Ni6 2.547635 1_554
Ni1 Ni7 2.547380 1_545
Ni1 Ni3 2.547400 1_555
Ni1 Ni10 2.547632 1_545
Ni1 Ni8 2.547639 1_655
Ni2 Ni7 2.547362 1_455
Ni2 Ni9 2.547369 1_555
Ni2 Ni6 2.547594 1_565
Ni3 Ni7 2.547371 1_555
Ni4 Ni5 2.547357 1_555
Ni4 Ni9 2.547382 1_555
Ni4 Ni6 2.547393 1_565
Ni5 Ni8 2.547323 1_555
Ni5 Ni6 2.547401 1_555
Ni7 Ni9 2.547404 1_555
Ni10 Ni4 2.547332 1_554
Ni10 Ni9 2.547424 1_555
Ni10 Ni8 2.547560 1_554
Ni11 Ni5 2.547400 1_555
Ni11 Ni8 2.547412 1_655
Ni11 Ni3 2.547423 1_555
