# generated using pymatgen
data_K4InSnPt4
_symmetry_space_group_name_H-M   'P 1'
_cell_length_a   6.09502891
_cell_length_b   6.09503061
_cell_length_c   7.94007125
_cell_angle_alpha   82.02864010
_cell_angle_beta   82.02863746
_cell_angle_gamma   67.93300292
_symmetry_Int_Tables_number   1
_chemical_formula_structural   K4InSnPt4
_chemical_formula_sum   'K4 In1 Sn1 Pt4'
_cell_volume   269.51233215
_cell_formula_units_Z   1
loop_
 _symmetry_equiv_pos_site_id
 _symmetry_equiv_pos_as_xyz
  1  'x, y, z'
loop_
 _atom_site_type_symbol
 _atom_site_label
 _atom_site_symmetry_multiplicity
 _atom_site_fract_x
 _atom_site_fract_y
 _atom_site_fract_z
 _atom_site_occupancy
  K  K0  1  0.51896357  0.76053475  0.37201234  1
  K  K1  1  0.23946525  0.48103643  0.12798766  1
  K  K2  1  0.48146286  0.23392255  0.62912508  1
  K  K3  1  0.76607745  0.51853714  0.87087492  1
  In  In0  1  0.05485711  0.94514289  0.75000000  1
  Sn  Sn0  1  0.94367290  0.05632710  0.25000000  1
  Pt  Pt0  1  0.29122898  0.99318367  0.99706921  1
  Pt  Pt1  1  0.00681633  0.70877102  0.50293079  1
  Pt  Pt2  1  0.70500048  0.00754294  0.01424917  1
  Pt  Pt3  1  0.99245706  0.29499952  0.48575083  1
loop_
_geom_bond_atom_site_label_1
_geom_bond_atom_site_label_2
_geom_bond_distance
_geom_bond_site_symmetry_2
K0 Pt1 3.175389 1_655
K0 Pt1 3.266994 1_555
K0 Pt2 3.290115 1_565
K0 Pt3 3.324864 1_555
K0 Pt0 3.361063 1_554
K0 Pt3 3.725976 1_465
K1 Pt0 3.175390 1_544
K1 Pt0 3.266995 1_554
K1 Pt3 3.290115 1_455
K1 Pt2 3.324864 1_555
K1 Pt1 3.361063 1_555
K1 Pt2 3.725976 1_465
K2 Pt3 3.210575 1_455
K2 Pt3 3.302279 1_555
K2 Pt0 3.344014 1_545
K2 Pt1 3.385002 1_555
K2 Pt2 3.418149 1_556
K2 Pt1 3.714960 1_645
K3 Pt2 3.210576 1_566
K3 Pt2 3.302280 1_556
K3 Pt1 3.344014 1_655
K3 Pt0 3.385002 1_555
K3 Pt3 3.418149 1_555
K3 Pt0 3.714961 1_645
In0 Pt0 2.696286 1_555
In0 Pt1 2.696287 1_555
In0 Pt2 2.732219 1_466
In0 Pt3 2.732220 1_465
Pt0 Pt2 2.578967 1_566
Pt0 Sn0 2.662826 1_466
Pt1 Pt3 2.578967 1_455
Pt1 Sn0 2.662827 1_465
Pt2 Sn0 2.634990 1_555
Pt3 Sn0 2.634990 1_555
