# generated using pymatgen
data_K2YIO6
_symmetry_space_group_name_H-M   'P 1'
_cell_length_a   5.81006095
_cell_length_b   5.81006091
_cell_length_c   5.81006095
_cell_angle_alpha   120.00000027
_cell_angle_beta   90.00000000
_cell_angle_gamma   120.00000027
_symmetry_Int_Tables_number   1
_chemical_formula_structural   K2YIO6
_chemical_formula_sum   'K2 Y1 I1 O6'
_cell_volume   138.68422410
_cell_formula_units_Z   1
loop_
 _symmetry_equiv_pos_site_id
 _symmetry_equiv_pos_as_xyz
  1  'x, y, z'
loop_
 _atom_site_type_symbol
 _atom_site_label
 _atom_site_symmetry_multiplicity
 _atom_site_fract_x
 _atom_site_fract_y
 _atom_site_fract_z
 _atom_site_occupancy
  K  K0  1  0.74999700  0.49999800  0.24999900  1
  K  K1  1  0.24999900  0.49999800  0.75000000  1
  Y  Y0  1  0.50000000  0.00000000  0.50000000  1
  I  I0  1  0.00000000  0.00000000  0.00000000  1
  O  O0  1  0.22813050  0.45626200  0.22813050  1
  O  O1  1  0.77186850  0.00000000  0.22813050  1
  O  O2  1  0.22813150  0.00000000  0.22813150  1
  O  O3  1  0.77186950  0.00000000  0.77186950  1
  O  O4  1  0.77186850  0.54373800  0.77186850  1
  O  O5  1  0.22813050  0.00000000  0.77186850  1
loop_
_geom_bond_atom_site_label_1
_geom_bond_atom_site_label_2
_geom_bond_distance
_geom_bond_site_symmetry_2
K0 O2 2.910570 1_555
K0 O5 2.910573 1_554
K0 O0 2.910573 1_555
K0 O1 2.910580 1_555
K0 O4 2.910580 1_555
K0 O3 2.910583 1_565
K0 O3 2.910583 1_554
K0 O1 2.910586 1_565
K0 O4 2.910586 1_554
K0 O5 2.910591 1_665
K0 O0 2.910591 1_655
K0 O2 2.910593 1_665
K1 O5 2.910571 1_555
K1 O0 2.910573 1_556
K1 O3 2.910574 1_455
K1 O2 2.910580 1_555
K1 O4 2.910580 1_555
K1 O1 2.910583 1_566
K1 O1 2.910583 1_455
K1 O2 2.910585 1_566
K1 O4 2.910586 1_455
K1 O0 2.910591 1_555
K1 O3 2.910591 1_565
K1 O5 2.910594 1_565
I0 O3 1.874472 1_454
I0 O0 1.874476 1_555
I0 O4 1.874476 1_444
I0 O1 1.874476 1_455
I0 O5 1.874476 1_554
I0 O2 1.874481 1_555
O0 Y0 2.233857 1_565
O1 Y0 2.233857 1_555
O2 Y0 2.233853 1_555
O3 Y0 2.233861 1_555
O4 Y0 2.233857 1_555
O5 Y0 2.233857 1_555
