# generated using pymatgen
data_LiLu4Bi3C
_symmetry_space_group_name_H-M   'P 1'
_cell_length_a   8.76602841
_cell_length_b   8.76602893
_cell_length_c   6.34892542
_cell_angle_alpha   90.00000000
_cell_angle_beta   90.00000000
_cell_angle_gamma   120.00000172
_symmetry_Int_Tables_number   1
_chemical_formula_structural   LiLu4Bi3C
_chemical_formula_sum   'Li2 Lu8 Bi6 C2'
_cell_volume   422.50964050
_cell_formula_units_Z   2
loop_
 _symmetry_equiv_pos_site_id
 _symmetry_equiv_pos_as_xyz
  1  'x, y, z'
loop_
 _atom_site_type_symbol
 _atom_site_label
 _atom_site_symmetry_multiplicity
 _atom_site_fract_x
 _atom_site_fract_y
 _atom_site_fract_z
 _atom_site_occupancy
  Li  Li0  1  0.66666700  0.33333300  0.50000000  1
  Li  Li1  1  0.33333300  0.66666700  0.50000000  1
  Lu  Lu0  1  0.33333300  0.66666700  0.00000000  1
  Lu  Lu1  1  0.66666700  0.33333300  0.00000000  1
  Lu  Lu2  1  0.79234154  0.79234154  0.25103550  1
  Lu  Lu3  1  0.20765846  1.00000000  0.25103550  1
  Lu  Lu4  1  0.00000000  0.20765846  0.25103550  1
  Lu  Lu5  1  0.20765846  0.20765846  0.74896450  1
  Lu  Lu6  1  0.79234154  0.00000000  0.74896450  1
  Lu  Lu7  1  1.00000000  0.79234154  0.74896450  1
  Bi  Bi0  1  0.40493833  0.40493833  0.25810360  1
  Bi  Bi1  1  0.59506167  0.00000000  0.25810360  1
  Bi  Bi2  1  1.00000000  0.59506167  0.25810360  1
  Bi  Bi3  1  0.59506167  0.59506167  0.74189640  1
  Bi  Bi4  1  0.40493833  1.00000000  0.74189640  1
  Bi  Bi5  1  0.00000000  0.40493833  0.74189640  1
  C  C0  1  0.00000000  0.00000000  0.50000000  1
  C  C1  1  0.00000000  0.00000000  0.00000000  1
loop_
_geom_bond_atom_site_label_1
_geom_bond_atom_site_label_2
_geom_bond_distance
_geom_bond_site_symmetry_2
Li0 Lu1 3.174463 1_555
Li0 Lu1 3.174463 1_556
Li1 Lu0 3.174463 1_556
Li1 Lu0 3.174463 1_555
Bi0 Lu4 3.074795 1_555
Bi0 Lu3 3.074795 1_545
Bi0 Li0 3.075170 1_555
Bi0 Li1 3.075170 1_555
Bi0 Lu1 3.127829 1_555
Bi0 Lu0 3.127829 1_555
Bi0 Lu2 3.396284 1_555
Bi0 Lu5 3.564110 1_555
Bi0 Lu5 3.666014 1_554
Bi1 Lu4 3.074795 1_655
Bi1 Lu2 3.074795 1_545
Bi1 Li0 3.075162 1_555
Bi1 Li1 3.075165 1_545
Bi1 Lu1 3.127822 1_555
Bi1 Lu0 3.127824 1_545
Bi1 Lu3 3.396284 1_545
Bi1 Lu6 3.564110 1_555
Bi1 Lu6 3.666014 1_554
Bi2 Lu2 3.074795 1_555
Bi2 Lu3 3.074795 1_655
Bi2 Li1 3.075162 1_655
Bi2 Li0 3.075165 1_555
Bi2 Lu0 3.127822 1_655
Bi2 Lu1 3.127824 1_555
Bi2 Lu4 3.396284 1_655
Bi2 Lu7 3.564110 1_555
Bi2 Lu7 3.666014 1_554
Bi3 Lu7 3.074795 1_555
Bi3 Lu6 3.074795 1_565
Bi3 Li1 3.075170 1_555
Bi3 Li0 3.075170 1_555
Bi3 Lu0 3.127829 1_556
Bi3 Lu1 3.127829 1_556
Bi3 Lu5 3.396284 1_555
Bi3 Lu2 3.564110 1_555
Bi3 Lu2 3.666014 1_556
Bi4 Lu7 3.074795 1_455
Bi4 Lu5 3.074795 1_565
Bi4 Li1 3.075162 1_555
Bi4 Li0 3.075165 1_565
Bi4 Lu0 3.127822 1_556
Bi4 Lu1 3.127824 1_566
Bi4 Lu6 3.396284 1_565
Bi4 Lu3 3.564110 1_555
Bi4 Lu3 3.666014 1_556
Bi5 Lu5 3.074795 1_555
Bi5 Lu6 3.074795 1_455
Bi5 Li0 3.075162 1_455
Bi5 Li1 3.075165 1_555
Bi5 Lu1 3.127822 1_456
Bi5 Lu0 3.127824 1_556
Bi5 Lu7 3.396284 1_455
Bi5 Lu4 3.564110 1_555
Bi5 Lu4 3.666014 1_556
C0 Lu3 2.410833 1_545
C0 Lu6 2.410833 1_455
C0 Lu5 2.410833 1_555
C0 Lu2 2.410833 1_445
C0 Lu4 2.410833 1_555
C0 Lu7 2.410833 1_445
C1 Lu3 2.419474 1_545
C1 Lu6 2.419474 1_454
C1 Lu2 2.419474 1_445
C1 Lu5 2.419474 1_554
C1 Lu4 2.419474 1_555
C1 Lu7 2.419474 1_444
