# generated using pymatgen
data_YAgAuO4
_symmetry_space_group_name_H-M   'P 1'
_cell_length_a   6.47432722
_cell_length_b   6.47432723
_cell_length_c   6.63288677
_cell_angle_alpha   126.57623657
_cell_angle_beta   125.16007043
_cell_angle_gamma   78.43666949
_symmetry_Int_Tables_number   1
_chemical_formula_structural   YAgAuO4
_chemical_formula_sum   'Y2 Ag2 Au2 O8'
_cell_volume   178.17474226
_cell_formula_units_Z   2
loop_
 _symmetry_equiv_pos_site_id
 _symmetry_equiv_pos_as_xyz
  1  'x, y, z'
loop_
 _atom_site_type_symbol
 _atom_site_label
 _atom_site_symmetry_multiplicity
 _atom_site_fract_x
 _atom_site_fract_y
 _atom_site_fract_z
 _atom_site_occupancy
  Y  Y0  1  0.75001449  0.25001449  0.50000000  1
  Y  Y1  1  0.99998551  0.99998551  0.00000000  1
  Ag  Ag0  1  0.37500000  0.62500000  0.25000000  1
  Ag  Ag1  1  0.37500000  0.12500000  0.75000000  1
  Au  Au0  1  0.37500000  0.62500000  0.75000000  1
  Au  Au1  1  0.87500000  0.62500000  0.25000000  1
  O  O0  1  0.13071813  0.59179175  0.82987815  1
  O  O1  1  0.76191361  0.30084098  0.17012185  1
  O  O2  1  0.36510638  0.00707691  0.99018444  1
  O  O3  1  0.73310653  0.87507907  0.49018444  1
  O  O4  1  0.01689347  0.37492093  0.00981556  1
  O  O5  1  0.38489362  0.24292309  0.50981556  1
  O  O6  1  0.98808639  0.94915902  0.32987815  1
  O  O7  1  0.61928187  0.65820825  0.67012185  1
loop_
_geom_bond_atom_site_label_1
_geom_bond_atom_site_label_2
_geom_bond_distance
_geom_bond_site_symmetry_2
Ag0 O7 2.158521 1_555
Ag0 O0 2.158521 1_554
Ag0 O3 2.170646 1_555
Ag0 O4 2.170646 1_555
Ag1 O1 2.158520 1_556
Ag1 O6 2.158520 1_445
Ag1 O5 2.170649 1_555
Ag1 O2 2.170649 1_555
Au0 O2 2.004645 1_565
Au0 O5 2.004645 1_555
Au0 O7 2.016293 1_555
Au0 O0 2.016293 1_555
Au1 O4 2.004652 1_655
Au1 O3 2.004652 1_555
Au1 O6 2.016286 1_555
Au1 O1 2.016286 1_555
O0 Y1 2.371323 1_456
O0 Y0 2.442158 1_455
O1 Y1 2.371326 1_545
O1 Y0 2.442163 1_555
O2 Y0 2.376152 1_556
O2 Y1 2.412209 1_446
O3 Y1 2.376154 1_556
O3 Y0 2.412204 1_565
O4 Y0 2.376154 1_454
O4 Y1 2.412204 1_445
O5 Y1 2.376152 1_445
O5 Y0 2.412209 1_555
O6 Y0 2.371326 1_565
O6 Y1 2.442163 1_555
O7 Y0 2.371323 1_555
O7 Y1 2.442158 1_556
