# generated using pymatgen
data_Rb3Na2SiP3
_symmetry_space_group_name_H-M   'P 1'
_cell_length_a   10.40554163
_cell_length_b   10.40554117
_cell_length_c   15.05256906
_cell_angle_alpha   90.00000000
_cell_angle_beta   90.00000000
_cell_angle_gamma   142.49932542
_symmetry_Int_Tables_number   1
_chemical_formula_structural   Rb3Na2SiP3
_chemical_formula_sum   'Rb12 Na8 Si4 P12'
_cell_volume   992.18757177
_cell_formula_units_Z   4
loop_
 _symmetry_equiv_pos_site_id
 _symmetry_equiv_pos_as_xyz
  1  'x, y, z'
loop_
 _atom_site_type_symbol
 _atom_site_label
 _atom_site_symmetry_multiplicity
 _atom_site_fract_x
 _atom_site_fract_y
 _atom_site_fract_z
 _atom_site_occupancy
  Rb  Rb0  1  0.93785357  0.61018779  0.82736250  1
  Rb  Rb1  1  0.56214643  0.88981221  0.32736250  1
  Rb  Rb2  1  0.38981221  0.06214643  0.17263750  1
  Rb  Rb3  1  0.06214643  0.38981221  0.17263750  1
  Rb  Rb4  1  0.88981221  0.56214643  0.32736250  1
  Rb  Rb5  1  0.43785357  0.11018779  0.67263750  1
  Rb  Rb6  1  0.61018779  0.93785357  0.82736250  1
  Rb  Rb7  1  0.26332220  0.26332220  0.31740228  1
  Rb  Rb8  1  0.76332220  0.76332220  0.18259772  1
  Rb  Rb9  1  0.23667780  0.23667780  0.81740228  1
  Rb  Rb10  1  0.73667780  0.73667780  0.68259772  1
  Rb  Rb11  1  0.11018779  0.43785357  0.67263750  1
  Na  Na0  1  0.92218084  0.07781916  0.00000000  1
  Na  Na1  1  0.57781916  0.42218084  0.50000000  1
  Na  Na2  1  0.07781916  0.92218084  0.00000000  1
  Na  Na3  1  0.42218084  0.57781916  0.50000000  1
  Na  Na4  1  0.75633396  0.24366604  0.00000000  1
  Na  Na5  1  0.74366604  0.25633396  0.50000000  1
  Na  Na6  1  0.24366604  0.75633396  0.00000000  1
  Na  Na7  1  0.25633396  0.74366604  0.50000000  1
  Si  Si0  1  0.58441078  0.41558922  0.00000000  1
  Si  Si1  1  0.91558922  0.08441078  0.50000000  1
  Si  Si2  1  0.41558922  0.58441078  0.00000000  1
  Si  Si3  1  0.08441078  0.91558922  0.50000000  1
  P  P0  1  0.85071208  0.54910935  0.08902044  1
  P  P1  1  0.45089065  0.14928792  0.91097956  1
  P  P2  1  0.64928792  0.95089065  0.58902044  1
  P  P3  1  0.95089065  0.64928792  0.58902044  1
  P  P4  1  0.14928792  0.45089065  0.91097956  1
  P  P5  1  0.54910935  0.85071208  0.08902044  1
  P  P6  1  0.35071208  0.04910935  0.41097956  1
  P  P7  1  0.18009545  0.18009545  0.57710631  1
  P  P8  1  0.68009545  0.68009545  0.92289369  1
  P  P9  1  0.31990455  0.31990455  0.07710631  1
  P  P10  1  0.04910935  0.35071208  0.41097956  1
  P  P11  1  0.81990455  0.81990455  0.42289369  1
loop_
_geom_bond_atom_site_label_1
_geom_bond_atom_site_label_2
_geom_bond_distance
_geom_bond_site_symmetry_2
Na0 P4 2.809637 1_654
Na0 P5 2.809637 1_545
Na0 P8 2.877265 1_544
Na0 P9 2.877265 1_655
Na1 P6 2.809637 1_555
Na1 P3 2.809637 1_555
Na1 P11 2.877265 1_555
Na1 P7 2.877265 1_555
Na2 P0 2.809637 1_455
Na2 P1 2.809637 1_564
Na2 P9 2.877265 1_565
Na2 P8 2.877265 1_454
Na3 P2 2.809637 1_555
Na3 P10 2.809637 1_555
Na3 P7 2.877265 1_555
Na3 P11 2.877265 1_555
Na4 P0 2.812314 1_555
Na4 P1 2.812314 1_554
Na4 P5 3.028964 1_545
Na4 P4 3.028964 1_654
Na5 P2 2.812314 1_545
Na5 P10 2.812314 1_655
Na5 P3 3.028964 1_555
Na5 P6 3.028964 1_555
Na6 P4 2.812314 1_554
Na6 P5 2.812314 1_555
Na6 P1 3.028964 1_564
Na6 P0 3.028964 1_455
Na7 P6 2.812314 1_565
Na7 P3 2.812314 1_455
Na7 P10 3.028964 1_555
Na7 P2 3.028964 1_555
P0 Si0 2.301248 1_555
P0 Rb8 3.315951 1_555
P0 Rb2 3.420778 1_555
P0 Rb4 3.601065 1_555
P0 Rb2 3.746320 1_665
P0 Rb3 3.867623 1_655
P1 Si0 2.301248 1_556
P1 Rb9 3.315951 1_555
P1 Rb0 3.420778 1_555
P1 Rb5 3.601065 1_555
P1 Rb0 3.746320 1_445
P1 Rb6 3.867623 1_545
P2 Si1 2.301248 1_565
P2 Rb10 3.315951 1_555
P2 Rb11 3.420778 1_665
P2 Rb6 3.601065 1_555
P2 Rb11 3.746320 1_555
P2 Rb5 3.867623 1_565
P3 Si3 2.301248 1_655
P3 Rb10 3.315951 1_555
P3 Rb5 3.420778 1_665
P3 Rb0 3.601065 1_555
P3 Rb5 3.746320 1_555
P3 Rb11 3.867623 1_655
P4 Si2 2.301248 1_556
P4 Rb9 3.315951 1_555
P4 Rb6 3.420778 1_555
P4 Rb11 3.601065 1_555
P4 Rb6 3.746320 1_445
P4 Rb0 3.867623 1_455
P5 Si2 2.301248 1_555
P5 Rb8 3.315951 1_555
P5 Rb3 3.420778 1_555
P5 Rb1 3.601065 1_555
P5 Rb3 3.746320 1_665
P5 Rb2 3.867623 1_565
P6 Si3 2.301248 1_545
P6 Rb7 3.315951 1_555
P6 Rb4 3.420778 1_445
P6 Rb2 3.601065 1_555
P6 Rb4 3.746320 1_555
P6 Rb1 3.867623 1_545
P7 Si3 2.359161 1_545
P7 Si1 2.359161 1_455
P7 Rb10 3.364578 1_445
P7 Rb11 3.589763 1_555
P7 Rb5 3.589763 1_555
P7 Rb9 3.636823 1_555
P8 Si0 2.359161 1_556
P8 Si2 2.359161 1_556
P8 Rb9 3.364578 1_555
P8 Rb6 3.589763 1_555
P8 Rb0 3.589763 1_555
P8 Rb10 3.636823 1_555
P9 Si2 2.359161 1_555
P9 Si0 2.359161 1_555
P9 Rb8 3.364578 1_555
P9 Rb2 3.589763 1_555
P9 Rb3 3.589763 1_555
P9 Rb7 3.636823 1_555
P10 Si1 2.301248 1_455
P10 Rb7 3.315951 1_555
P10 Rb1 3.420778 1_445
P10 Rb3 3.601065 1_555
P10 Rb1 3.746320 1_555
P10 Rb4 3.867623 1_455
P11 Si1 2.359161 1_565
P11 Si3 2.359161 1_655
P11 Rb7 3.364578 1_665
P11 Rb4 3.589763 1_555
P11 Rb1 3.589763 1_555
P11 Rb8 3.636823 1_555
