# generated using pymatgen
data_Dy3S2Cl5
_symmetry_space_group_name_H-M   'P 1'
_cell_length_a   6.38704200
_cell_length_b   6.81623600
_cell_length_c   21.81445800
_cell_angle_alpha   90.00000000
_cell_angle_beta   90.00000000
_cell_angle_gamma   90.00000000
_symmetry_Int_Tables_number   1
_chemical_formula_structural   Dy3S2Cl5
_chemical_formula_sum   'Dy12 S8 Cl20'
_cell_volume   949.70520388
_cell_formula_units_Z   4
loop_
 _symmetry_equiv_pos_site_id
 _symmetry_equiv_pos_as_xyz
  1  'x, y, z'
loop_
 _atom_site_type_symbol
 _atom_site_label
 _atom_site_symmetry_multiplicity
 _atom_site_fract_x
 _atom_site_fract_y
 _atom_site_fract_z
 _atom_site_occupancy
  Dy  Dy0  1  0.04911200  0.38001500  0.40190100  1
  Dy  Dy1  1  0.54911200  0.11998500  0.59809900  1
  Dy  Dy2  1  0.45088800  0.88001500  0.09809900  1
  Dy  Dy3  1  0.95088800  0.61998500  0.90190100  1
  Dy  Dy4  1  0.95088800  0.61998500  0.59809900  1
  Dy  Dy5  1  0.45088800  0.88001500  0.40190100  1
  Dy  Dy6  1  0.54911200  0.11998500  0.90190100  1
  Dy  Dy7  1  0.04911200  0.38001500  0.09809900  1
  Dy  Dy8  1  0.55040800  0.53746400  0.75000000  1
  Dy  Dy9  1  0.05040800  0.96253600  0.25000000  1
  Dy  Dy10  1  0.94959200  0.03746400  0.75000000  1
  Dy  Dy11  1  0.44959200  0.46253600  0.25000000  1
  S  S0  1  0.80829400  0.32856900  0.67233000  1
  S  S1  1  0.30829400  0.17143100  0.17233000  1
  S  S2  1  0.80829400  0.32856900  0.82767000  1
  S  S3  1  0.19170600  0.67143100  0.32767000  1
  S  S4  1  0.69170600  0.82856900  0.67233000  1
  S  S5  1  0.69170600  0.82856900  0.82767000  1
  S  S6  1  0.19170600  0.67143100  0.17233000  1
  S  S7  1  0.30829400  0.17143100  0.32767000  1
  Cl  Cl0  1  0.15454400  0.68238500  0.75000000  1
  Cl  Cl1  1  0.65454400  0.81761500  0.25000000  1
  Cl  Cl2  1  0.34545600  0.18238600  0.75000000  1
  Cl  Cl3  1  0.84545600  0.31761500  0.25000000  1
  Cl  Cl4  1  0.83489100  0.03873300  0.11738700  1
  Cl  Cl5  1  0.83489100  0.03873300  0.38261300  1
  Cl  Cl6  1  0.33489100  0.46126700  0.88261300  1
  Cl  Cl7  1  0.66510900  0.53873300  0.38261300  1
  Cl  Cl8  1  0.16510900  0.96126700  0.61738700  1
  Cl  Cl9  1  0.16510900  0.96126700  0.88261300  1
  Cl  Cl10  1  0.66510900  0.53873300  0.11738700  1
  Cl  Cl11  1  0.33489100  0.46126700  0.61738700  1
  Cl  Cl12  1  0.32332900  0.16762700  0.02018500  1
  Cl  Cl13  1  0.82332900  0.33237300  0.97981500  1
  Cl  Cl14  1  0.17667100  0.66762700  0.47981500  1
  Cl  Cl15  1  0.67667100  0.83237300  0.52018500  1
  Cl  Cl16  1  0.67667100  0.83237300  0.97981500  1
  Cl  Cl17  1  0.17667100  0.66762700  0.02018500  1
  Cl  Cl18  1  0.82332900  0.33237300  0.52018500  1
  Cl  Cl19  1  0.32332900  0.16762700  0.47981500  1
loop_
_geom_bond_atom_site_label_1
_geom_bond_atom_site_label_2
_geom_bond_distance
_geom_bond_site_symmetry_2
Dy0 S7 2.717338 1_555
Dy0 S3 2.719791 1_555
Dy1 S0 2.717338 1_555
Dy1 S4 2.719791 1_545
Dy2 S6 2.717338 1_555
Dy2 S1 2.719791 1_565
Dy3 S5 2.717338 1_555
Dy3 S2 2.719791 1_555
Dy4 S4 2.717338 1_555
Dy4 S0 2.719791 1_555
Dy5 S3 2.717338 1_555
Dy5 S7 2.719791 1_565
Dy6 S2 2.717338 1_555
Dy6 S5 2.719791 1_545
Dy7 S1 2.717338 1_555
Dy7 S6 2.719791 1_555
Dy8 S0 2.758842 1_555
Dy8 S2 2.758842 1_555
Dy8 S4 2.760874 1_555
Dy8 S5 2.760874 1_555
Dy9 S1 2.758842 1_565
Dy9 S7 2.758842 1_565
Dy9 S6 2.760874 1_555
Dy9 S3 2.760874 1_555
Dy10 S5 2.758842 1_545
Dy10 S4 2.758842 1_545
Dy10 S2 2.760874 1_555
Dy10 S0 2.760874 1_555
Dy11 S6 2.758842 1_555
Dy11 S3 2.758842 1_555
Dy11 S1 2.760874 1_555
Dy11 S7 2.760874 1_555
Cl0 Dy8 2.714514 1_555
Cl0 Dy10 2.751625 1_465
Cl1 Dy9 2.714514 1_655
Cl1 Dy11 2.751625 1_555
Cl2 Dy10 2.714517 1_455
Cl2 Dy8 2.751619 1_555
Cl3 Dy11 2.714514 1_555
Cl3 Dy9 2.751625 1_645
Cl4 Dy2 2.713469 1_545
Cl4 Dy7 2.731409 1_655
Cl4 Dy9 3.245506 1_645
Cl5 Dy5 2.713469 1_545
Cl5 Dy0 2.731409 1_655
Cl5 Dy9 3.245506 1_645
Cl6 Dy3 2.713469 1_455
Cl6 Dy6 2.731409 1_555
Cl6 Dy8 3.245506 1_555
Cl7 Dy0 2.713469 1_655
Cl7 Dy5 2.731409 1_555
Cl7 Dy11 3.245506 1_555
Cl8 Dy1 2.713469 1_565
Cl8 Dy4 2.731409 1_455
Cl8 Dy10 3.245506 1_465
Cl9 Dy6 2.713469 1_565
Cl9 Dy3 2.731409 1_455
Cl9 Dy10 3.245506 1_465
Cl10 Dy7 2.713469 1_655
Cl10 Dy2 2.731409 1_555
Cl10 Dy11 3.245506 1_555
Cl11 Dy4 2.713469 1_455
Cl11 Dy1 2.731409 1_555
Cl11 Dy8 3.245506 1_555
Cl12 Dy2 2.719537 1_545
Cl12 Dy7 2.837629 1_555
Cl12 Dy6 2.973722 1_554
Cl13 Dy3 2.719537 1_555
Cl13 Dy6 2.837629 1_555
Cl13 Dy7 2.973722 1_656
Cl14 Dy0 2.719537 1_555
Cl14 Dy5 2.837629 1_555
Cl14 Dy4 2.973722 1_455
Cl15 Dy1 2.719537 1_565
Cl15 Dy4 2.837629 1_555
Cl15 Dy5 2.973722 1_555
Cl16 Dy6 2.719537 1_565
Cl16 Dy3 2.837629 1_555
Cl16 Dy2 2.973722 1_556
Cl17 Dy7 2.719537 1_555
Cl17 Dy2 2.837629 1_555
Cl17 Dy3 2.973722 1_454
Cl18 Dy4 2.719537 1_555
Cl18 Dy1 2.837629 1_555
Cl18 Dy0 2.973722 1_655
Cl19 Dy5 2.719537 1_545
Cl19 Dy0 2.837629 1_555
Cl19 Dy1 2.973722 1_555
