# generated using pymatgen
data_Ti2Be8ReRu
_symmetry_space_group_name_H-M   'P 1'
_cell_length_a   4.40895092
_cell_length_b   4.40895091
_cell_length_c   7.18753779
_cell_angle_alpha   90.00000000
_cell_angle_beta   90.00000000
_cell_angle_gamma   120.00000754
_symmetry_Int_Tables_number   1
_chemical_formula_structural   Ti2Be8ReRu
_chemical_formula_sum   'Ti2 Be8 Re1 Ru1'
_cell_volume   120.99885691
_cell_formula_units_Z   1
loop_
 _symmetry_equiv_pos_site_id
 _symmetry_equiv_pos_as_xyz
  1  'x, y, z'
loop_
 _atom_site_type_symbol
 _atom_site_label
 _atom_site_symmetry_multiplicity
 _atom_site_fract_x
 _atom_site_fract_y
 _atom_site_fract_z
 _atom_site_occupancy
  Ti  Ti0  1  0.33333300  0.66666700  0.06330530  1
  Ti  Ti1  1  0.66666700  0.33333300  0.56653760  1
  Be  Be0  1  0.00000000  0.00000000  0.99504614  1
  Be  Be1  1  0.00000000  0.00000000  0.49719653  1
  Be  Be2  1  0.83069788  0.66139675  0.25095600  1
  Be  Be3  1  0.16997956  0.83002044  0.74961851  1
  Be  Be4  1  0.66003989  0.83002044  0.74961851  1
  Be  Be5  1  0.33860325  0.16930212  0.25095600  1
  Be  Be6  1  0.83069788  0.16930212  0.25095600  1
  Be  Be7  1  0.16997956  0.33996011  0.74961851  1
  Re  Re0  1  0.33333300  0.66666700  0.43844681  1
  Ru  Ru0  1  0.66666700  0.33333300  0.93774006  1
loop_
_geom_bond_atom_site_label_1
_geom_bond_atom_site_label_2
_geom_bond_distance
_geom_bond_site_symmetry_2
Be0 Be3 2.190139 1_545
Be0 Be7 2.190142 1_555
Be0 Be4 2.190142 1_445
Be0 Be2 2.248284 1_446
Be0 Be5 2.248284 1_556
Be0 Be6 2.248286 1_456
Be0 Ru0 2.578615 1_455
Be0 Ru0 2.578619 1_445
Be0 Ru0 2.578619 1_555
Be0 Ti0 2.592355 1_546
Be0 Ti0 2.592359 1_556
Be0 Ti0 2.592359 1_446
Be1 Be2 2.191790 1_445
Be1 Be5 2.191790 1_555
Be1 Be6 2.191793 1_455
Be1 Be3 2.230829 1_545
Be1 Be7 2.230832 1_555
Be1 Be4 2.230832 1_445
Be1 Re0 2.580293 1_545
Be1 Re0 2.580296 1_555
Be1 Re0 2.580296 1_445
Be1 Ti1 2.593838 1_455
Be1 Ti1 2.593842 1_445
Be1 Ti1 2.593842 1_555
Be2 Be5 2.169621 1_555
Be2 Be6 2.169621 1_555
Be2 Be5 2.239330 1_665
Be2 Be6 2.239330 1_565
Be2 Ru0 2.576281 1_554
Be2 Re0 2.583822 1_655
Be2 Re0 2.583822 1_555
Be2 Ti0 2.584421 1_655
Be2 Ti0 2.584421 1_555
Be2 Ti1 2.591152 1_555
Be3 Be7 2.160652 1_555
Be3 Be4 2.160652 1_555
Be3 Be7 2.248299 1_565
Be3 Be4 2.248299 1_455
Be3 Re0 2.560924 1_555
Be3 Ti1 2.567479 1_565
Be3 Ti1 2.567479 1_455
Be3 Ti0 2.576727 1_556
Be3 Ru0 2.586234 1_565
Be3 Ru0 2.586234 1_455
Be4 Be7 2.160652 1_555
Be4 Be7 2.248299 1_665
Be4 Re0 2.560924 1_555
Be4 Ti1 2.567475 1_565
Be4 Ti1 2.567483 1_555
Be4 Ti0 2.576727 1_556
Be4 Ru0 2.586231 1_565
Be4 Ru0 2.586238 1_555
Be5 Be6 2.169621 1_555
Be5 Be6 2.239330 1_455
Be5 Ru0 2.576281 1_554
Be5 Re0 2.583822 1_545
Be5 Re0 2.583822 1_555
Be5 Ti0 2.584421 1_545
Be5 Ti0 2.584421 1_555
Be5 Ti1 2.591152 1_555
Be6 Ru0 2.576277 1_554
Be6 Re0 2.583822 1_545
Be6 Re0 2.583822 1_655
Be6 Ti0 2.584421 1_545
Be6 Ti0 2.584421 1_655
Be6 Ti1 2.591149 1_555
Be7 Re0 2.560924 1_555
Be7 Ti1 2.567475 1_455
Be7 Ti1 2.567483 1_555
Be7 Ti0 2.576727 1_556
Be7 Ru0 2.586231 1_455
Be7 Ru0 2.586238 1_555
Re0 Ti0 2.696344 1_555
Re0 Ti1 2.706882 1_565
Re0 Ti1 2.706882 1_455
Re0 Ti1 2.706890 1_555
Ru0 Ti1 2.668032 1_555
Ru0 Ti0 2.700762 1_546
Ru0 Ti0 2.700762 1_656
Ru0 Ti0 2.700770 1_556
