# generated using pymatgen
data_Ti3BeSi2Ir3
_symmetry_space_group_name_H-M   'P 1'
_cell_length_a   7.26250983
_cell_length_b   7.26251065
_cell_length_c   7.26250986
_cell_angle_alpha   128.16488433
_cell_angle_beta   121.09836429
_cell_angle_gamma   82.27402229
_symmetry_Int_Tables_number   1
_chemical_formula_structural   Ti3BeSi2Ir3
_chemical_formula_sum   'Ti6 Be2 Si4 Ir6'
_cell_volume   247.98920531
_cell_formula_units_Z   2
loop_
 _symmetry_equiv_pos_site_id
 _symmetry_equiv_pos_as_xyz
  1  'x, y, z'
loop_
 _atom_site_type_symbol
 _atom_site_label
 _atom_site_symmetry_multiplicity
 _atom_site_fract_x
 _atom_site_fract_y
 _atom_site_fract_z
 _atom_site_occupancy
  Ti  Ti0  1  0.46752241  0.44080157  0.47327916  1
  Ti  Ti1  1  0.53247759  0.00575676  0.97327916  1
  Ti  Ti2  1  0.05440599  0.00949170  0.45508571  1
  Ti  Ti3  1  0.94559401  0.40068072  0.95508571  1
  Ti  Ti4  1  0.25356364  0.59328050  0.83971787  1
  Ti  Ti5  1  0.74643636  0.58615423  0.33971787  1
  Be  Be0  1  0.27746694  0.02241973  0.24495279  1
  Be  Be1  1  0.72253306  0.96748584  0.74495279  1
  Si  Si0  1  0.16321594  0.67170582  0.50018717  1
  Si  Si1  1  0.83678406  0.33697123  0.50849088  1
  Si  Si2  1  0.67151865  0.67170582  0.00849088  1
  Si  Si3  1  0.32848135  0.33697123  0.00018717  1
  Ir  Ir0  1  1.00000000  0.24921853  0.24921853  1
  Ir  Ir1  1  0.50000000  0.24921853  0.74921853  1
  Ir  Ir2  1  0.34525623  0.75548101  0.34784412  1
  Ir  Ir3  1  0.65474377  0.00258889  0.41022478  1
  Ir  Ir4  1  0.90763688  0.75548101  0.91022478  1
  Ir  Ir5  1  0.09236312  0.00258889  0.84784412  1
loop_
_geom_bond_atom_site_label_1
_geom_bond_atom_site_label_2
_geom_bond_distance
_geom_bond_site_symmetry_2
Be0 Ir3 2.383085 1_555
Be0 Ir5 2.383091 1_554
Be0 Ir4 2.390141 1_444
Be0 Ir2 2.390141 1_545
Be0 Ir1 2.425624 1_555
Be0 Ir0 2.425624 1_455
Be0 Ti0 2.534515 1_555
Be0 Ti4 2.585916 1_544
Be1 Ir2 2.383087 1_555
Be1 Ir4 2.383087 1_555
Be1 Ir5 2.390141 1_665
Be1 Ir3 2.390146 1_565
Be1 Ir0 2.425624 1_566
Be1 Ir1 2.425624 1_565
Be1 Ti1 2.534515 1_565
Be1 Ti5 2.585912 1_555
Si0 Ti0 2.603698 1_555
Si0 Ti3 2.605255 1_454
Si0 Ti4 2.607521 1_555
Si0 Ti1 2.609991 1_565
Si0 Ti5 2.621623 1_455
Si0 Ti2 2.637092 1_565
Si1 Ti1 2.603701 1_554
Si1 Ti2 2.605254 1_655
Si1 Ti5 2.607521 1_555
Si1 Ti0 2.609989 1_555
Si1 Ti4 2.621621 1_655
Si1 Ti3 2.637081 1_555
Si2 Ti0 2.603703 1_554
Si2 Ti3 2.605251 1_554
Si2 Ti4 2.607514 1_554
Si2 Ti1 2.609994 1_564
Si2 Ti5 2.621616 1_555
Si2 Ti2 2.637091 1_665
Si3 Ti1 2.603698 1_554
Si3 Ti2 2.605254 1_554
Si3 Ti5 2.607515 1_555
Si3 Ti0 2.609991 1_555
Si3 Ti4 2.621616 1_554
Si3 Ti3 2.637093 1_454
Ir0 Si0 2.444644 1_655
Ir0 Si1 2.444650 1_555
Ir0 Ir4 2.720214 1_544
Ir0 Ir5 2.720214 1_654
Ir0 Ti2 2.800778 1_655
Ir0 Ti3 2.800784 1_554
Ir0 Ti4 2.803933 1_655
Ir0 Ti5 2.803933 1_555
Ir0 Ti0 2.979439 1_655
Ir0 Ti1 2.979439 1_554
Ir1 Si2 2.444642 1_556
Ir1 Si3 2.444644 1_556
Ir1 Ir3 2.720213 1_555
Ir1 Ir2 2.720214 1_545
Ir1 Ti2 2.800778 1_555
Ir1 Ti3 2.800779 1_555
Ir1 Ti4 2.803928 1_555
Ir1 Ti5 2.803933 1_556
Ir1 Ti0 2.979439 1_555
Ir1 Ti1 2.979439 1_555
Ir2 Si0 2.429271 1_555
Ir2 Si3 2.434256 1_555
Ir2 Ti2 2.710658 1_565
Ir2 Ti3 2.752363 1_454
Ir2 Ti4 2.783739 1_554
Ir2 Ti0 2.834240 1_555
Ir2 Ti5 3.021464 1_555
Ir3 Si1 2.429260 1_555
Ir3 Si2 2.434253 1_545
Ir3 Ti3 2.710658 1_555
Ir3 Ti2 2.752366 1_655
Ir3 Ti5 2.783749 1_545
Ir3 Ti1 2.834235 1_554
Ir3 Ti4 3.021468 1_544
Ir4 Si2 2.429276 1_556
Ir4 Si1 2.434254 1_555
Ir4 Ti2 2.710658 1_666
Ir4 Ti3 2.752359 1_555
Ir4 Ti4 2.783743 1_655
Ir4 Ti0 2.834240 1_555
Ir4 Ti5 3.021464 1_555
Ir5 Si3 2.429265 1_556
Ir5 Si0 2.434258 1_545
Ir5 Ti3 2.710658 1_455
Ir5 Ti2 2.752362 1_555
Ir5 Ti5 2.783745 1_445
Ir5 Ti1 2.834240 1_555
Ir5 Ti4 3.021477 1_545
