# generated using pymatgen
data_LiLuS2
_symmetry_space_group_name_H-M   'P 1'
_cell_length_a   6.50998244
_cell_length_b   6.50998179
_cell_length_c   6.50998218
_cell_angle_alpha   34.00629287
_cell_angle_beta   34.00630389
_cell_angle_gamma   34.00630140
_symmetry_Int_Tables_number   1
_chemical_formula_structural   LiLuS2
_chemical_formula_sum   'Li1 Lu1 S2'
_cell_volume   76.92540842
_cell_formula_units_Z   1
loop_
 _symmetry_equiv_pos_site_id
 _symmetry_equiv_pos_as_xyz
  1  'x, y, z'
loop_
 _atom_site_type_symbol
 _atom_site_label
 _atom_site_symmetry_multiplicity
 _atom_site_fract_x
 _atom_site_fract_y
 _atom_site_fract_z
 _atom_site_occupancy
  Li  Li0  1  0.00000000  0.00000000  0.00000000  1
  Lu  Lu0  1  0.50000000  0.50000000  0.50000000  1
  S  S0  1  0.24849489  0.24849489  0.24849489  1
  S  S1  1  0.75150511  0.75150511  0.75150511  1
loop_
_geom_bond_atom_site_label_1
_geom_bond_atom_site_label_2
_geom_bond_distance
_geom_bond_site_symmetry_2
Li0 S1 2.695229 1_454
Li0 S0 2.695229 1_545
Li0 S1 2.695229 1_445
Li0 S0 2.695229 1_554
Li0 S1 2.695229 1_544
Li0 S0 2.695229 1_455
Lu0 S0 2.663591 1_565
Lu0 S1 2.663591 1_545
Lu0 S0 2.663591 1_556
Lu0 S1 2.663591 1_554
Lu0 S0 2.663592 1_655
Lu0 S1 2.663592 1_455
