# generated using pymatgen
data_CsRb2AsSe3
_symmetry_space_group_name_H-M   'P 1'
_cell_length_a   10.28400959
_cell_length_b   10.28400959
_cell_length_c   10.28400959
_cell_angle_alpha   90.00000000
_cell_angle_beta   90.00000000
_cell_angle_gamma   90.00000000
_symmetry_Int_Tables_number   1
_chemical_formula_structural   CsRb2AsSe3
_chemical_formula_sum   'Cs4 Rb8 As4 Se12'
_cell_volume   1087.64562982
_cell_formula_units_Z   4
loop_
 _symmetry_equiv_pos_site_id
 _symmetry_equiv_pos_as_xyz
  1  'x, y, z'
loop_
 _atom_site_type_symbol
 _atom_site_label
 _atom_site_symmetry_multiplicity
 _atom_site_fract_x
 _atom_site_fract_y
 _atom_site_fract_z
 _atom_site_occupancy
  Cs  Cs0  1  0.92738266  0.42738266  0.07261734  1
  Cs  Cs1  1  0.42738266  0.07261734  0.92738266  1
  Cs  Cs2  1  0.07261734  0.92738266  0.42738266  1
  Cs  Cs3  1  0.57261734  0.57261734  0.57261734  1
  Rb  Rb0  1  0.18691993  0.68691993  0.81308007  1
  Rb  Rb1  1  0.68691993  0.81308007  0.18691993  1
  Rb  Rb2  1  0.81308007  0.18691993  0.68691993  1
  Rb  Rb3  1  0.31308007  0.31308007  0.31308007  1
  Rb  Rb4  1  0.69160761  0.19160761  0.30839239  1
  Rb  Rb5  1  0.19160761  0.30839239  0.69160761  1
  Rb  Rb6  1  0.30839239  0.69160761  0.19160761  1
  Rb  Rb7  1  0.80839239  0.80839239  0.80839239  1
  As  As0  1  0.48228952  0.98228952  0.51771048  1
  As  As1  1  0.98228952  0.51771048  0.48228952  1
  As  As2  1  0.51771048  0.48228952  0.98228952  1
  As  As3  1  0.01771048  0.01771048  0.01771048  1
  Se  Se0  1  0.00573713  0.79407769  0.08664813  1
  Se  Se1  1  0.91335187  0.50573713  0.70592231  1
  Se  Se2  1  0.29407769  0.41335187  0.99426287  1
  Se  Se3  1  0.50573713  0.70592231  0.91335187  1
  Se  Se4  1  0.41335187  0.99426287  0.29407769  1
  Se  Se5  1  0.79407769  0.08664813  0.00573713  1
  Se  Se6  1  0.99426287  0.29407769  0.41335187  1
  Se  Se7  1  0.08664813  0.00573713  0.79407769  1
  Se  Se8  1  0.70592231  0.91335187  0.50573713  1
  Se  Se9  1  0.49426287  0.20592231  0.58664813  1
  Se  Se10  1  0.58664813  0.49426287  0.20592231  1
  Se  Se11  1  0.20592231  0.58664813  0.49426287  1
loop_
_geom_bond_atom_site_label_1
_geom_bond_atom_site_label_2
_geom_bond_distance
_geom_bond_site_symmetry_2
Cs0 Se6 3.825087 1_555
Cs0 Se5 3.825087 1_555
Cs0 Se10 3.825087 1_555
Cs0 Se2 3.858923 1_654
Cs0 Se0 3.858923 1_655
Cs0 Se1 3.858923 1_554
Cs1 Se2 3.825087 1_555
Cs1 Se7 3.825087 1_555
Cs1 Se9 3.825087 1_555
Cs1 Se4 3.858923 1_546
Cs1 Se5 3.858923 1_556
Cs1 Se3 3.858923 1_545
Cs2 Se4 3.825087 1_555
Cs2 Se11 3.825087 1_555
Cs2 Se0 3.825087 1_555
Cs2 Se6 3.858923 1_465
Cs2 Se8 3.858923 1_455
Cs2 Se7 3.858923 1_565
Cs3 Se8 3.825087 1_555
Cs3 Se1 3.825087 1_555
Cs3 Se3 3.825087 1_555
Cs3 Se9 3.858923 1_555
Cs3 Se10 3.858923 1_555
Cs3 Se11 3.858923 1_555
Rb0 Se7 3.442609 1_565
Rb0 Se11 3.442609 1_555
Rb0 Se3 3.442609 1_555
Rb0 Se1 3.549838 1_455
Rb0 Se0 3.549838 1_556
Rb0 Se2 3.549838 1_555
Rb1 Se0 3.442609 1_655
Rb1 Se10 3.442609 1_555
Rb1 Se8 3.442609 1_555
Rb1 Se3 3.549838 1_554
Rb1 Se5 3.549838 1_565
Rb1 Se4 3.549838 1_555
Rb2 Se5 3.442609 1_556
Rb2 Se9 3.442609 1_555
Rb2 Se1 3.442609 1_555
Rb2 Se8 3.549838 1_545
Rb2 Se7 3.549838 1_655
Rb2 Se6 3.549838 1_555
Rb3 Se6 3.442609 1_455
Rb3 Se2 3.442609 1_554
Rb3 Se4 3.442609 1_545
Rb3 Se9 3.549838 1_555
Rb3 Se10 3.549838 1_555
Rb3 Se11 3.549838 1_555
Rb4 Se5 3.458805 1_555
Rb4 Se10 3.458805 1_555
Rb4 Se6 3.458805 1_555
Rb4 Se4 3.511295 1_545
Rb4 Se8 3.511295 1_545
Rb4 Se9 3.511295 1_555
Rb5 Se7 3.458805 1_555
Rb5 Se9 3.458805 1_555
Rb5 Se2 3.458805 1_555
Rb5 Se1 3.511295 1_455
Rb5 Se11 3.511295 1_555
Rb5 Se6 3.511295 1_455
Rb6 Se11 3.458805 1_555
Rb6 Se0 3.458805 1_555
Rb6 Se4 3.458805 1_555
Rb6 Se2 3.511295 1_554
Rb6 Se10 3.511295 1_555
Rb6 Se3 3.511295 1_554
Rb7 Se8 3.458805 1_555
Rb7 Se1 3.458805 1_555
Rb7 Se3 3.458805 1_555
Rb7 Se0 3.511295 1_656
Rb7 Se5 3.511295 1_566
Rb7 Se7 3.511295 1_665
As0 Se9 2.409783 1_565
As0 Se4 2.409783 1_555
As0 Se8 2.409783 1_555
As1 Se11 2.409783 1_655
As1 Se6 2.409783 1_555
As1 Se1 2.409783 1_555
As2 Se2 2.409783 1_555
As2 Se10 2.409783 1_556
As2 Se3 2.409783 1_555
As3 Se5 2.409783 1_455
As3 Se7 2.409783 1_554
As3 Se0 2.409783 1_545
