# generated using pymatgen
data_Ca20(Si3Pb)3
_symmetry_space_group_name_H-M   'P 1'
_cell_length_a   7.75420124
_cell_length_b   7.75420124
_cell_length_c   15.10704151
_cell_angle_alpha   90.00000000
_cell_angle_beta   90.00000000
_cell_angle_gamma   90.00000000
_symmetry_Int_Tables_number   1
_chemical_formula_structural   Ca20(Si3Pb)3
_chemical_formula_sum   'Ca20 Si9 Pb3'
_cell_volume   908.35070646
_cell_formula_units_Z   1
loop_
 _symmetry_equiv_pos_site_id
 _symmetry_equiv_pos_as_xyz
  1  'x, y, z'
loop_
 _atom_site_type_symbol
 _atom_site_label
 _atom_site_symmetry_multiplicity
 _atom_site_fract_x
 _atom_site_fract_y
 _atom_site_fract_z
 _atom_site_occupancy
  Ca  Ca0  1  0.68645258  0.17281594  0.11192683  1
  Ca  Ca1  1  0.18046172  0.67704531  0.61706306  1
  Ca  Ca2  1  0.31354742  0.82718406  0.11192683  1
  Ca  Ca3  1  0.81953828  0.32295469  0.61706306  1
  Ca  Ca4  1  0.82718406  0.68645258  0.11192683  1
  Ca  Ca5  1  0.32295469  0.18046172  0.61706306  1
  Ca  Ca6  1  0.17281594  0.31354742  0.11192683  1
  Ca  Ca7  1  0.67704531  0.81953828  0.61706306  1
  Ca  Ca8  1  0.82718406  0.31354742  0.88807317  1
  Ca  Ca9  1  0.32295469  0.81953828  0.38293694  1
  Ca  Ca10  1  0.17281594  0.68645258  0.88807317  1
  Ca  Ca11  1  0.67704531  0.18046172  0.38293694  1
  Ca  Ca12  1  0.68645258  0.82718406  0.88807317  1
  Ca  Ca13  1  0.18046172  0.32295469  0.38293694  1
  Ca  Ca14  1  0.31354742  0.17281594  0.88807317  1
  Ca  Ca15  1  0.81953828  0.67704531  0.38293694  1
  Ca  Ca16  1  0.50000000  0.50000000  0.75820681  1
  Ca  Ca17  1  0.00000000  0.00000000  0.25072506  1
  Ca  Ca18  1  0.00000000  0.00000000  0.74927494  1
  Ca  Ca19  1  0.50000000  0.50000000  0.24179319  1
  Si  Si0  1  0.61182517  0.11183826  0.75277241  1
  Si  Si1  1  0.11183826  0.61182517  0.24722759  1
  Si  Si2  1  0.88816174  0.38817483  0.24722759  1
  Si  Si3  1  0.38817483  0.88816174  0.75277241  1
  Si  Si4  1  0.88816174  0.61182517  0.75277241  1
  Si  Si5  1  0.38817483  0.11183826  0.24722759  1
  Si  Si6  1  0.11183826  0.38817483  0.75277241  1
  Si  Si7  1  0.61182517  0.88816174  0.24722759  1
  Si  Si8  1  0.00000000  0.00000000  0.00000000  1
  Pb  Pb0  1  0.50000000  0.50000000  0.50000000  1
  Pb  Pb1  1  0.50000000  0.50000000  0.00000000  1
  Pb  Pb2  1  0.00000000  0.00000000  0.50000000  1
loop_
_geom_bond_atom_site_label_1
_geom_bond_atom_site_label_2
_geom_bond_distance
_geom_bond_site_symmetry_2
Ca0 Si7 3.063462 1_545
Ca0 Si2 3.068059 1_555
Ca0 Si5 3.122662 1_555
Ca0 Si8 3.250552 1_655
Ca0 Pb1 3.374319 1_555
Ca1 Si3 3.078518 1_555
Ca1 Si6 3.082816 1_555
Ca1 Si4 3.097775 1_455
Ca1 Pb0 3.339390 1_555
Ca1 Pb2 3.370007 1_565
Ca2 Si5 3.063462 1_565
Ca2 Si1 3.068059 1_555
Ca2 Si7 3.122662 1_555
Ca2 Si8 3.250552 1_565
Ca2 Pb1 3.374319 1_555
Ca3 Si0 3.078518 1_555
Ca3 Si4 3.082816 1_555
Ca3 Si6 3.097775 1_655
Ca3 Pb0 3.339390 1_555
Ca3 Pb2 3.370007 1_655
Ca4 Si1 3.063462 1_655
Ca4 Si7 3.068059 1_555
Ca4 Si2 3.122662 1_555
Ca4 Si8 3.250552 1_665
Ca4 Pb1 3.374319 1_555
Ca5 Si6 3.078518 1_555
Ca5 Si0 3.082816 1_555
Ca5 Si3 3.097775 1_545
Ca5 Pb0 3.339390 1_555
Ca5 Pb2 3.370007 1_555
Ca6 Si2 3.063462 1_455
Ca6 Si5 3.068059 1_555
Ca6 Si1 3.122662 1_555
Ca6 Si8 3.250552 1_555
Ca6 Pb1 3.374319 1_555
Ca7 Si4 3.078518 1_555
Ca7 Si3 3.082816 1_555
Ca7 Si0 3.097775 1_565
Ca7 Pb0 3.339390 1_555
Ca7 Pb2 3.370007 1_665
Ca8 Si6 3.063462 1_655
Ca8 Si0 3.068059 1_555
Ca8 Si4 3.122662 1_555
Ca8 Si8 3.250552 1_656
Ca8 Pb1 3.374319 1_556
Ca9 Si1 3.078518 1_555
Ca9 Si7 3.082816 1_555
Ca9 Si5 3.097775 1_565
Ca9 Pb0 3.339390 1_555
Ca9 Pb2 3.370007 1_565
Ca10 Si4 3.063462 1_455
Ca10 Si3 3.068059 1_555
Ca10 Si6 3.122662 1_555
Ca10 Si8 3.250552 1_566
Ca10 Pb1 3.374319 1_556
Ca11 Si2 3.078518 1_555
Ca11 Si5 3.082816 1_555
Ca11 Si7 3.097775 1_545
Ca11 Pb0 3.339390 1_555
Ca11 Pb2 3.370007 1_655
Ca12 Si0 3.063462 1_565
Ca12 Si4 3.068059 1_555
Ca12 Si3 3.122662 1_555
Ca12 Si8 3.250552 1_666
Ca12 Pb1 3.374319 1_556
Ca13 Si5 3.078518 1_555
Ca13 Si1 3.082816 1_555
Ca13 Si2 3.097775 1_455
Ca13 Pb0 3.339390 1_555
Ca13 Pb2 3.370007 1_555
Ca14 Si3 3.063462 1_545
Ca14 Si6 3.068059 1_555
Ca14 Si0 3.122662 1_555
Ca14 Si8 3.250552 1_556
Ca14 Pb1 3.374319 1_556
Ca15 Si7 3.078518 1_555
Ca15 Si2 3.082816 1_555
Ca15 Si1 3.097775 1_655
Ca15 Pb0 3.339390 1_555
Ca15 Pb2 3.370007 1_665
Ca16 Si4 3.133374 1_555
Ca16 Si3 3.133374 1_555
Ca16 Si0 3.133374 1_555
Ca16 Si6 3.133374 1_555
Ca16 Pb1 3.652780 1_556
Ca17 Si5 3.132869 1_555
Ca17 Si2 3.132869 1_455
Ca17 Si1 3.132869 1_545
Ca17 Si7 3.132869 1_445
Ca17 Pb2 3.765807 1_555
Ca18 Si6 3.132869 1_555
Ca18 Si3 3.132869 1_545
Ca18 Si0 3.132869 1_455
Ca18 Si4 3.132869 1_445
Ca18 Pb2 3.765807 1_555
Ca19 Si7 3.133374 1_555
Ca19 Si2 3.133374 1_555
Ca19 Si1 3.133374 1_555
Ca19 Si5 3.133374 1_555
Ca19 Pb1 3.652780 1_555
Si0 Si3 2.452715 1_545
Si1 Si2 2.452715 1_455
Si4 Si6 2.452715 1_655
Si5 Si7 2.452715 1_545
