# generated using pymatgen
data_CaFe3NiAs12
_symmetry_space_group_name_H-M   'P 1'
_cell_length_a   7.16734326
_cell_length_b   7.16734302
_cell_length_c   7.16734379
_cell_angle_alpha   109.41352395
_cell_angle_beta   109.41352924
_cell_angle_gamma   109.41352266
_symmetry_Int_Tables_number   1
_chemical_formula_structural   CaFe3NiAs12
_chemical_formula_sum   'Ca1 Fe3 Ni1 As12'
_cell_volume   284.03835309
_cell_formula_units_Z   1
loop_
 _symmetry_equiv_pos_site_id
 _symmetry_equiv_pos_as_xyz
  1  'x, y, z'
loop_
 _atom_site_type_symbol
 _atom_site_label
 _atom_site_symmetry_multiplicity
 _atom_site_fract_x
 _atom_site_fract_y
 _atom_site_fract_z
 _atom_site_occupancy
  Ca  Ca0  1  0.00000000  0.00000000  0.00000000  1
  Fe  Fe0  1  0.50000000  0.00000000  0.00000000  1
  Fe  Fe1  1  0.00000000  0.50000000  0.00000000  1
  Fe  Fe2  1  0.00000000  0.00000000  0.50000000  1
  Ni  Ni0  1  0.50000000  0.50000000  0.50000000  1
  As  As0  1  0.85234425  0.65809752  0.50197119  1
  As  As1  1  0.14765575  0.34190248  0.49802881  1
  As  As2  1  0.15552406  0.65878126  0.81329942  1
  As  As3  1  0.84447594  0.34121874  0.18670058  1
  As  As4  1  0.65809752  0.50197119  0.85234425  1
  As  As5  1  0.34190248  0.49802881  0.14765575  1
  As  As6  1  0.65878126  0.81329942  0.15552406  1
  As  As7  1  0.34121874  0.18670058  0.84447594  1
  As  As8  1  0.50197119  0.85234425  0.65809752  1
  As  As9  1  0.49802881  0.14765575  0.34190248  1
  As  As10  1  0.18670058  0.84447594  0.34121874  1
  As  As11  1  0.81329942  0.15552406  0.65878126  1
loop_
_geom_bond_atom_site_label_1
_geom_bond_atom_site_label_2
_geom_bond_distance
_geom_bond_site_symmetry_2
As0 Fe2 2.331149 1_665
As0 Ni0 2.392708 1_555
As0 As2 2.542317 1_655
As0 As3 2.585724 1_555
As0 Ca0 3.133142 1_666
As1 Fe2 2.331149 1_555
As1 Ni0 2.392708 1_555
As1 As3 2.542317 1_455
As1 As2 2.585724 1_555
As1 Ca0 3.133142 1_555
As2 Fe0 2.341318 1_566
As2 Fe1 2.342851 1_556
As2 Ca0 3.105253 1_566
As3 Fe0 2.341318 1_555
As3 Fe1 2.342851 1_655
As3 Ca0 3.105253 1_655
As4 Fe1 2.331149 1_656
As4 Ni0 2.392708 1_555
As4 As6 2.542317 1_556
As4 As7 2.585724 1_555
As4 Ca0 3.133141 1_666
As5 Fe1 2.331149 1_555
As5 Ni0 2.392708 1_555
As5 As7 2.542317 1_554
As5 As6 2.585724 1_555
As5 Ca0 3.133141 1_555
As6 Fe2 2.341318 1_665
As6 Fe0 2.342851 1_565
As6 Ca0 3.105253 1_665
As7 Fe2 2.341318 1_555
As7 Fe0 2.342851 1_556
As7 Ca0 3.105253 1_556
As8 Fe0 2.331149 1_566
As8 Ni0 2.392708 1_555
As8 Ca0 3.133141 1_666
As9 Fe0 2.331149 1_555
As9 Ni0 2.392708 1_555
As9 Ca0 3.133141 1_555
As10 Fe1 2.341318 1_555
As10 Fe2 2.342851 1_565
As10 As9 2.542317 1_565
As10 As8 2.585724 1_555
As10 Ca0 3.105253 1_565
As11 Fe1 2.341318 1_656
As11 Fe2 2.342851 1_655
As11 As8 2.542317 1_545
As11 As9 2.585724 1_555
As11 Ca0 3.105253 1_656
