# generated using pymatgen
data_TaSCl9
_symmetry_space_group_name_H-M   'P 1'
_cell_length_a   7.49463601
_cell_length_b   7.49463614
_cell_length_c   13.93549520
_cell_angle_alpha   74.03300978
_cell_angle_beta   74.03300890
_cell_angle_gamma   63.95605027
_symmetry_Int_Tables_number   1
_chemical_formula_structural   TaSCl9
_chemical_formula_sum   'Ta2 S2 Cl18'
_cell_volume   665.26092501
_cell_formula_units_Z   2
loop_
 _symmetry_equiv_pos_site_id
 _symmetry_equiv_pos_as_xyz
  1  'x, y, z'
loop_
 _atom_site_type_symbol
 _atom_site_label
 _atom_site_symmetry_multiplicity
 _atom_site_fract_x
 _atom_site_fract_y
 _atom_site_fract_z
 _atom_site_occupancy
  Ta  Ta0  1  0.00000000  0.00000000  0.00000000  1
  Ta  Ta1  1  0.50000000  0.50000000  0.50000000  1
  S  S0  1  0.84576033  0.84576033  0.71908963  1
  S  S1  1  0.15423967  0.15423967  0.28091037  1
  Cl  Cl0  1  0.03503443  0.42415884  0.19655985  1
  Cl  Cl1  1  0.26412670  0.68647889  0.38956952  1
  Cl  Cl2  1  0.31352111  0.73587330  0.61043048  1
  Cl  Cl3  1  0.42415884  0.03503443  0.19655985  1
  Cl  Cl4  1  0.68647889  0.26412670  0.38956952  1
  Cl  Cl5  1  0.69340604  0.69340604  0.41499225  1
  Cl  Cl6  1  0.21630389  0.21630389  0.39516699  1
  Cl  Cl7  1  0.57584116  0.96496557  0.80344015  1
  Cl  Cl8  1  0.70677172  0.29322828  1.00000000  1
  Cl  Cl9  1  0.73587330  0.31352111  0.61043048  1
  Cl  Cl10  1  0.96496557  0.57584116  0.80344015  1
  Cl  Cl11  1  0.78369611  0.78369611  0.60483301  1
  Cl  Cl12  1  0.80338913  0.80338913  0.03926170  1
  Cl  Cl13  1  0.97405279  0.97405279  0.17631015  1
  Cl  Cl14  1  0.30659396  0.30659396  0.58500775  1
  Cl  Cl15  1  0.19661087  0.19661087  0.96073830  1
  Cl  Cl16  1  0.29322828  0.70677172  0.00000000  1
  Cl  Cl17  1  0.02594721  0.02594721  0.82368985  1
loop_
_geom_bond_atom_site_label_1
_geom_bond_atom_site_label_2
_geom_bond_distance
_geom_bond_site_symmetry_2
Cl0 S1 1.988639 1_555
Cl1 Ta1 2.364414 1_555
Cl2 Ta1 2.364414 1_555
Cl3 S1 1.988639 1_555
Cl4 Ta1 2.364414 1_555
Cl5 Ta1 2.358192 1_555
Cl6 S1 1.993194 1_555
Cl7 S0 1.988639 1_555
Cl8 Ta0 2.327713 1_656
Cl9 Ta1 2.364414 1_555
Cl10 S0 1.988639 1_555
Cl11 S0 1.993194 1_555
Cl12 Ta0 2.379382 1_665
Cl13 Ta0 2.370613 1_665
Cl14 Ta1 2.358192 1_555
Cl15 Ta0 2.379382 1_556
Cl16 Ta0 2.327713 1_565
Cl17 Ta0 2.370613 1_556
