# generated using pymatgen
data_Zr6Zn16SbPd7
_symmetry_space_group_name_H-M   'P 1'
_cell_length_a   8.80042017
_cell_length_b   8.80041959
_cell_length_c   8.80041977
_cell_angle_alpha   60.00000295
_cell_angle_beta   60.00000515
_cell_angle_gamma   60.00000334
_symmetry_Int_Tables_number   1
_chemical_formula_structural   Zr6Zn16SbPd7
_chemical_formula_sum   'Zr6 Zn16 Sb1 Pd7'
_cell_volume   481.94248688
_cell_formula_units_Z   1
loop_
 _symmetry_equiv_pos_site_id
 _symmetry_equiv_pos_as_xyz
  1  'x, y, z'
loop_
 _atom_site_type_symbol
 _atom_site_label
 _atom_site_symmetry_multiplicity
 _atom_site_fract_x
 _atom_site_fract_y
 _atom_site_fract_z
 _atom_site_occupancy
  Zr  Zr0  1  0.72847090  0.27152910  0.27152910  1
  Zr  Zr1  1  0.27152910  0.72847090  0.72847090  1
  Zr  Zr2  1  0.27152910  0.72847090  0.27152910  1
  Zr  Zr3  1  0.72847090  0.27152910  0.72847090  1
  Zr  Zr4  1  0.27152910  0.27152910  0.72847090  1
  Zr  Zr5  1  0.72847090  0.72847090  0.27152910  1
  Zn  Zn0  1  0.12529533  0.12529533  0.12529533  1
  Zn  Zn1  1  0.87470467  0.87470467  0.87470467  1
  Zn  Zn2  1  0.12529533  0.12529533  0.62411401  1
  Zn  Zn3  1  0.12529533  0.62411401  0.12529533  1
  Zn  Zn4  1  0.87470467  0.87470467  0.37588599  1
  Zn  Zn5  1  0.87470467  0.37588599  0.87470467  1
  Zn  Zn6  1  0.62411401  0.12529533  0.12529533  1
  Zn  Zn7  1  0.37588599  0.87470467  0.87470467  1
  Zn  Zn8  1  0.34317539  0.34317539  0.34317539  1
  Zn  Zn9  1  0.65682461  0.65682461  0.65682461  1
  Zn  Zn10  1  0.34317539  0.34317539  0.97047684  1
  Zn  Zn11  1  0.34317539  0.97047684  0.34317539  1
  Zn  Zn12  1  0.65682461  0.65682461  0.02952316  1
  Zn  Zn13  1  0.65682461  0.02952316  0.65682461  1
  Zn  Zn14  1  0.97047684  0.34317539  0.34317539  1
  Zn  Zn15  1  0.02952316  0.65682461  0.65682461  1
  Sb  Sb0  1  0.50000000  0.50000000  0.50000000  1
  Pd  Pd0  1  0.50000000  0.00000000  0.00000000  1
  Pd  Pd1  1  0.00000000  0.50000000  0.50000000  1
  Pd  Pd2  1  0.00000000  0.50000000  0.00000000  1
  Pd  Pd3  1  0.50000000  0.00000000  0.50000000  1
  Pd  Pd4  1  0.00000000  0.00000000  0.50000000  1
  Pd  Pd5  1  0.50000000  0.50000000  0.00000000  1
  Pd  Pd6  1  0.00000000  0.00000000  0.00000000  1
loop_
_geom_bond_atom_site_label_1
_geom_bond_atom_site_label_2
_geom_bond_distance
_geom_bond_site_symmetry_2
Zn0 Zr2 2.859315 1_545
Zn0 Zr4 2.859315 1_554
Zn0 Zr0 2.859315 1_455
Zn1 Zr3 2.859315 1_565
Zn1 Zr5 2.859315 1_556
Zn1 Zr1 2.859315 1_655
Zn2 Zr4 2.859315 1_555
Zn2 Zr1 2.859315 1_545
Zn2 Zr3 2.859315 1_455
Zn3 Zr2 2.859315 1_555
Zn3 Zr1 2.859315 1_554
Zn3 Zr5 2.859315 1_455
Zn4 Zr5 2.859315 1_555
Zn4 Zr0 2.859315 1_565
Zn4 Zr2 2.859315 1_655
Zn5 Zr3 2.859315 1_555
Zn5 Zr0 2.859315 1_556
Zn5 Zr4 2.859315 1_655
Zn6 Zr0 2.859315 1_555
Zn6 Zr5 2.859315 1_545
Zn6 Zr3 2.859315 1_554
Zn7 Zr1 2.859315 1_555
Zn7 Zr4 2.859315 1_565
Zn7 Zr2 2.859315 1_556
Zn8 Zr2 2.900699 1_555
Zn8 Zr4 2.900699 1_555
Zn8 Zr0 2.900699 1_555
Zn9 Zr3 2.900699 1_555
Zn9 Zr5 2.900699 1_555
Zn9 Zr1 2.900699 1_555
Zn10 Zr1 2.900706 1_555
Zn10 Zr3 2.900706 1_555
Zn10 Zr4 2.900724 1_555
Zn11 Zr1 2.900706 1_555
Zn11 Zr5 2.900706 1_555
Zn11 Zr2 2.900724 1_555
Zn12 Zr0 2.900706 1_555
Zn12 Zr2 2.900706 1_555
Zn12 Zr5 2.900724 1_555
Zn13 Zr0 2.900706 1_555
Zn13 Zr4 2.900706 1_555
Zn13 Zr3 2.900724 1_555
Zn14 Zr5 2.900706 1_555
Zn14 Zr3 2.900706 1_555
Zn14 Zr0 2.900724 1_555
Zn15 Zr4 2.900706 1_555
Zn15 Zr2 2.900706 1_555
Zn15 Zr1 2.900724 1_555
Sb0 Zr1 2.843474 1_555
Sb0 Zr3 2.843474 1_555
Sb0 Zr0 2.843474 1_555
Sb0 Zr2 2.843474 1_555
Sb0 Zr5 2.843474 1_555
Sb0 Zr4 2.843474 1_555
Pd0 Zn10 2.549312 1_554
Pd0 Zn12 2.549312 1_545
Pd0 Zn11 2.549312 1_545
Pd0 Zn13 2.549312 1_554
Pd0 Zn6 2.692452 1_555
Pd0 Zn7 2.692452 1_544
Pd0 Zn1 2.692452 1_544
Pd0 Zn0 2.692452 1_555
Pd0 Zr5 3.122934 1_545
Pd0 Zr4 3.122934 1_554
Pd0 Zr3 3.122934 1_554
Pd0 Zr2 3.122934 1_545
Pd1 Zn15 2.549289 1_555
Pd1 Zn14 2.549289 1_455
Pd1 Zn8 2.549306 1_555
Pd1 Zn9 2.549306 1_455
Pd1 Zn4 2.692452 1_455
Pd1 Zn2 2.692452 1_555
Pd1 Zn5 2.692452 1_455
Pd1 Zn3 2.692452 1_555
Pd1 Zr4 3.122934 1_555
Pd1 Zr5 3.122934 1_455
Pd1 Zr2 3.122934 1_555
Pd1 Zr3 3.122934 1_455
Pd2 Zn14 2.549312 1_455
Pd2 Zn15 2.549312 1_554
Pd2 Zn10 2.549312 1_554
Pd2 Zn12 2.549312 1_455
Pd2 Zn3 2.692452 1_555
Pd2 Zn5 2.692452 1_454
Pd2 Zn1 2.692452 1_454
Pd2 Zn0 2.692452 1_555
Pd2 Zr5 3.122934 1_455
Pd2 Zr4 3.122934 1_554
Pd2 Zr1 3.122934 1_554
Pd2 Zr0 3.122934 1_455
Pd3 Zn13 2.549289 1_555
Pd3 Zn11 2.549289 1_545
Pd3 Zn8 2.549306 1_555
Pd3 Zn9 2.549306 1_545
Pd3 Zn7 2.692452 1_545
Pd3 Zn6 2.692452 1_555
Pd3 Zn4 2.692452 1_545
Pd3 Zn2 2.692452 1_555
Pd3 Zr4 3.122934 1_555
Pd3 Zr5 3.122934 1_545
Pd3 Zr0 3.122934 1_555
Pd3 Zr1 3.122934 1_545
Pd4 Zn14 2.549312 1_455
Pd4 Zn15 2.549312 1_545
Pd4 Zn11 2.549312 1_545
Pd4 Zn13 2.549312 1_455
Pd4 Zn2 2.692452 1_555
Pd4 Zn4 2.692452 1_445
Pd4 Zn1 2.692452 1_445
Pd4 Zn0 2.692452 1_555
Pd4 Zr3 3.122934 1_455
Pd4 Zr2 3.122934 1_545
Pd4 Zr1 3.122934 1_545
Pd4 Zr0 3.122934 1_455
Pd5 Zn12 2.549289 1_555
Pd5 Zn10 2.549289 1_554
Pd5 Zn8 2.549306 1_555
Pd5 Zn9 2.549306 1_554
Pd5 Zn7 2.692452 1_554
Pd5 Zn6 2.692452 1_555
Pd5 Zn5 2.692452 1_554
Pd5 Zn3 2.692452 1_555
Pd5 Zr0 3.122934 1_555
Pd5 Zr1 3.122934 1_554
Pd5 Zr2 3.122934 1_555
Pd5 Zr3 3.122934 1_554
Pd6 Zn0 2.700933 1_555
Pd6 Zn1 2.700933 1_444
Pd6 Zn5 2.700934 1_454
Pd6 Zn3 2.700934 1_545
Pd6 Zn4 2.700934 1_445
Pd6 Zn2 2.700934 1_554
Pd6 Zn7 2.700934 1_544
Pd6 Zn6 2.700934 1_455
