# generated using pymatgen
data_Cs5LiBi2
_symmetry_space_group_name_H-M   'P 1'
_cell_length_a   11.06420424
_cell_length_b   11.06420528
_cell_length_c   11.06420442
_cell_angle_alpha   34.94242280
_cell_angle_beta   34.94241673
_cell_angle_gamma   34.94241624
_symmetry_Int_Tables_number   1
_chemical_formula_structural   Cs5LiBi2
_chemical_formula_sum   'Cs5 Li1 Bi2'
_cell_volume   396.68514849
_cell_formula_units_Z   1
loop_
 _symmetry_equiv_pos_site_id
 _symmetry_equiv_pos_as_xyz
  1  'x, y, z'
loop_
 _atom_site_type_symbol
 _atom_site_label
 _atom_site_symmetry_multiplicity
 _atom_site_fract_x
 _atom_site_fract_y
 _atom_site_fract_z
 _atom_site_occupancy
  Cs  Cs0  1  0.21678825  0.21678825  0.21678825  1
  Cs  Cs1  1  0.36531380  0.36531380  0.36531380  1
  Cs  Cs2  1  0.50000000  0.50000000  0.50000000  1
  Cs  Cs3  1  0.63468620  0.63468620  0.63468620  1
  Cs  Cs4  1  0.78321175  0.78321175  0.78321175  1
  Li  Li0  1  0.00000000  0.00000000  0.00000000  1
  Bi  Bi0  1  0.08688641  0.08688641  0.08688641  1
  Bi  Bi1  1  0.91311359  0.91311359  0.91311359  1
loop_
_geom_bond_atom_site_label_1
_geom_bond_atom_site_label_2
_geom_bond_distance
_geom_bond_site_symmetry_2
Cs0 Cs2 4.140934 1_455
Cs0 Cs2 4.140934 1_554
Cs0 Cs2 4.140935 1_545
Cs0 Cs1 4.624228 1_555
Cs0 Cs3 4.652323 1_455
Cs0 Cs3 4.652323 1_545
Cs0 Cs3 4.652323 1_554
Cs1 Li0 3.962774 1_655
Cs1 Li0 3.962774 1_565
Cs1 Li0 3.962775 1_556
Cs1 Cs2 4.193351 1_555
Cs1 Cs3 4.321777 1_455
Cs1 Cs3 4.321777 1_554
Cs1 Cs3 4.321778 1_545
Cs1 Cs4 4.652323 1_455
Cs1 Cs4 4.652323 1_545
Cs1 Cs4 4.652323 1_554
Cs2 Cs4 4.140934 1_455
Cs2 Cs4 4.140934 1_554
Cs2 Cs4 4.140935 1_545
Cs2 Cs3 4.193351 1_555
Cs3 Li0 3.962774 1_566
Cs3 Li0 3.962774 1_656
Cs3 Li0 3.962775 1_665
Cs3 Cs4 4.624228 1_555
Bi0 Li0 2.705141 1_555
Bi0 Cs4 3.945231 1_544
Bi0 Cs4 3.945232 1_445
Bi0 Cs4 3.945232 1_454
Bi0 Cs0 4.044393 1_555
Bi0 Cs1 4.199335 1_455
Bi0 Cs1 4.199336 1_554
Bi0 Cs1 4.199336 1_545
Bi1 Li0 2.705141 1_666
Bi1 Cs0 3.945231 1_566
Bi1 Cs0 3.945232 1_665
Bi1 Cs0 3.945232 1_656
Bi1 Cs4 4.044393 1_555
Bi1 Cs3 4.199335 1_655
Bi1 Cs3 4.199336 1_556
Bi1 Cs3 4.199336 1_565
