# generated using pymatgen
data_Ag(AuS)2
_symmetry_space_group_name_H-M   'P 1'
_cell_length_a   4.45403200
_cell_length_b   7.17251800
_cell_length_c   7.28849548
_cell_angle_alpha   89.06450805
_cell_angle_beta   90.00000000
_cell_angle_gamma   90.00000000
_symmetry_Int_Tables_number   1
_chemical_formula_structural   Ag(AuS)2
_chemical_formula_sum   'Ag2 Au4 S4'
_cell_volume   232.81179417
_cell_formula_units_Z   2
loop_
 _symmetry_equiv_pos_site_id
 _symmetry_equiv_pos_as_xyz
  1  'x, y, z'
loop_
 _atom_site_type_symbol
 _atom_site_label
 _atom_site_symmetry_multiplicity
 _atom_site_fract_x
 _atom_site_fract_y
 _atom_site_fract_z
 _atom_site_occupancy
  Ag  Ag0  1  0.76309600  0.35399600  0.59785800  1
  Ag  Ag1  1  0.23690400  0.85399600  0.59785800  1
  Au  Au0  1  0.89595700  0.00007500  0.24701300  1
  Au  Au1  1  0.10404300  0.50007500  0.24701300  1
  Au  Au2  1  0.49900800  0.25553700  0.00821200  1
  Au  Au3  1  0.50099200  0.75553700  0.00821200  1
  S  S0  1  0.17042300  0.00561200  0.97254000  1
  S  S1  1  0.26408200  0.50978000  0.54937700  1
  S  S2  1  0.73591800  0.00978000  0.54937700  1
  S  S3  1  0.82957700  0.50561200  0.97254000  1
loop_
_geom_bond_atom_site_label_1
_geom_bond_atom_site_label_2
_geom_bond_distance
_geom_bond_site_symmetry_2
Ag0 S2 2.502687 1_555
Ag0 S1 2.510085 1_555
Ag0 S1 2.517866 1_655
Ag0 S3 2.970670 1_555
Ag0 Au1 3.139322 1_655
Ag0 Au2 3.280029 1_556
Ag1 S1 2.502687 1_555
Ag1 S2 2.510085 1_565
Ag1 S2 2.517866 1_465
Ag1 S0 2.970670 1_565
Ag1 Au0 3.139322 1_465
Ag1 Au3 3.280029 1_556
Au0 S2 2.318320 1_555
Au0 S0 2.344232 1_654
Au0 Au3 3.049609 1_545
Au0 Au2 3.067321 1_555
Au1 S1 2.318320 1_555
Au1 S3 2.344232 1_454
Au1 Au2 3.049609 1_555
Au1 Au3 3.067321 1_555
Au2 S3 2.331839 1_554
Au2 S0 2.331977 1_554
Au3 S0 2.331839 1_564
Au3 S3 2.331977 1_554
