# generated using pymatgen
data_GaIrSeS2
_symmetry_space_group_name_H-M   'P 1'
_cell_length_a   3.69700666
_cell_length_b   9.66316013
_cell_length_c   12.29329099
_cell_angle_alpha   90.00000000
_cell_angle_beta   90.00000000
_cell_angle_gamma   90.00000000
_symmetry_Int_Tables_number   1
_chemical_formula_structural   GaIrSeS2
_chemical_formula_sum   'Ga4 Ir4 Se4 S8'
_cell_volume   439.17496087
_cell_formula_units_Z   4
loop_
 _symmetry_equiv_pos_site_id
 _symmetry_equiv_pos_as_xyz
  1  'x, y, z'
loop_
 _atom_site_type_symbol
 _atom_site_label
 _atom_site_symmetry_multiplicity
 _atom_site_fract_x
 _atom_site_fract_y
 _atom_site_fract_z
 _atom_site_occupancy
  Ga  Ga0  1  0.75000000  0.23134345  0.78501177  1
  Ga  Ga1  1  0.25000000  0.76865655  0.21498823  1
  Ga  Ga2  1  0.75000000  0.73134345  0.71498823  1
  Ga  Ga3  1  0.25000000  0.26865655  0.28501177  1
  Ir  Ir0  1  0.25000000  0.39457036  0.59812749  1
  Ir  Ir1  1  0.75000000  0.60542964  0.40187251  1
  Ir  Ir2  1  0.25000000  0.89457036  0.90187251  1
  Ir  Ir3  1  0.75000000  0.10542964  0.09812749  1
  Se  Se0  1  0.25000000  0.28190023  0.08871744  1
  Se  Se1  1  0.75000000  0.71809977  0.91128256  1
  Se  Se2  1  0.25000000  0.78190023  0.41128256  1
  Se  Se3  1  0.75000000  0.21809977  0.58871744  1
  S  S0  1  0.25000000  0.94840347  0.09115729  1
  S  S1  1  0.75000000  0.05159653  0.90884271  1
  S  S2  1  0.25000000  0.44840347  0.40884271  1
  S  S3  1  0.75000000  0.55159653  0.59115729  1
  S  S4  1  0.75000000  0.12579834  0.29234903  1
  S  S5  1  0.25000000  0.87420166  0.70765097  1
  S  S6  1  0.75000000  0.62579834  0.20765097  1
  S  S7  1  0.25000000  0.37420166  0.79234903  1
loop_
_geom_bond_atom_site_label_1
_geom_bond_atom_site_label_2
_geom_bond_distance
_geom_bond_site_symmetry_2
Ga0 S7 2.308847 1_555
Ga0 S7 2.308847 1_655
Ga0 S1 2.309604 1_555
Ga0 Se3 2.416494 1_555
Ga1 S6 2.308847 1_555
Ga1 S6 2.308847 1_455
Ga1 S0 2.309604 1_555
Ga1 Se2 2.416494 1_555
Ga2 S5 2.308847 1_655
Ga2 S5 2.308847 1_555
Ga2 S3 2.309604 1_555
Ga2 Se1 2.416494 1_555
Ga3 S4 2.308847 1_455
Ga3 S4 2.308847 1_555
Ga3 S2 2.309604 1_555
Ga3 Se0 2.416494 1_555
Ir0 S2 2.384370 1_555
Ir0 S3 2.393056 1_555
Ir0 S3 2.393056 1_455
Ir0 S7 2.395721 1_555
Ir0 Se3 2.517592 1_455
Ir0 Se3 2.517592 1_555
Ir1 S3 2.384370 1_555
Ir1 S2 2.393056 1_655
Ir1 S2 2.393056 1_555
Ir1 S6 2.395721 1_555
Ir1 Se2 2.517592 1_555
Ir1 Se2 2.517592 1_655
Ir2 S0 2.384370 1_556
Ir2 S1 2.393056 1_565
Ir2 S1 2.393056 1_465
Ir2 S5 2.395721 1_555
Ir2 Se1 2.517592 1_555
Ir2 Se1 2.517592 1_455
Ir3 S1 2.384370 1_554
Ir3 S0 2.393056 1_645
Ir3 S0 2.393056 1_545
Ir3 S4 2.395721 1_555
Ir3 Se0 2.517592 1_655
Ir3 Se0 2.517592 1_555
