# generated using pymatgen
data_Cs2HfSb2
_symmetry_space_group_name_H-M   'P 1'
_cell_length_a   9.57590516
_cell_length_b   9.57590583
_cell_length_c   9.57590662
_cell_angle_alpha   135.47318918
_cell_angle_beta   128.15384536
_cell_angle_gamma   70.68888225
_symmetry_Int_Tables_number   1
_chemical_formula_structural   Cs2HfSb2
_chemical_formula_sum   'Cs4 Hf2 Sb4'
_cell_volume   474.51877363
_cell_formula_units_Z   2
loop_
 _symmetry_equiv_pos_site_id
 _symmetry_equiv_pos_as_xyz
  1  'x, y, z'
loop_
 _atom_site_type_symbol
 _atom_site_label
 _atom_site_symmetry_multiplicity
 _atom_site_fract_x
 _atom_site_fract_y
 _atom_site_fract_z
 _atom_site_occupancy
  Cs  Cs0  1  0.69704628  0.34919977  0.34784551  1
  Cs  Cs1  1  0.00135526  0.84919977  0.15215449  1
  Cs  Cs2  1  0.99864474  0.15080023  0.84784551  1
  Cs  Cs3  1  0.30295372  0.65080023  0.65215449  1
  Hf  Hf0  1  0.50000000  0.75000000  0.25000000  1
  Hf  Hf1  1  0.50000000  0.25000000  0.75000000  1
  Sb  Sb0  1  0.22286865  0.40246240  0.82040625  1
  Sb  Sb1  1  0.77713135  0.59753760  0.17959375  1
  Sb  Sb2  1  0.41794385  0.09753760  0.32040625  1
  Sb  Sb3  1  0.58205615  0.90246240  0.67959375  1
loop_
_geom_bond_atom_site_label_1
_geom_bond_atom_site_label_2
_geom_bond_distance
_geom_bond_site_symmetry_2
Cs0 Sb2 3.938162 1_555
Cs0 Sb3 3.979814 1_544
Cs0 Sb3 3.979820 1_555
Cs0 Sb0 4.043048 1_655
Cs0 Sb1 4.127346 1_555
Cs1 Sb1 3.938161 1_455
Cs1 Sb0 3.979811 1_554
Cs1 Sb0 3.979817 1_565
Cs1 Sb3 4.043056 1_454
Cs1 Sb2 4.127342 1_565
Cs2 Sb0 3.938161 1_655
Cs2 Sb1 3.979811 1_556
Cs2 Sb1 3.979817 1_545
Cs2 Sb2 4.043056 1_656
Cs2 Sb3 4.127342 1_545
Cs3 Sb3 3.938162 1_555
Cs3 Sb2 3.979814 1_566
Cs3 Sb2 3.979820 1_555
Cs3 Sb1 4.043048 1_455
Cs3 Sb0 4.127346 1_555
Hf0 Sb1 2.805930 1_555
Hf0 Sb0 2.805930 1_554
Hf0 Sb2 2.805930 1_565
Hf0 Sb3 2.805930 1_555
Hf1 Sb0 2.805930 1_555
Hf1 Sb1 2.805930 1_556
Hf1 Sb3 2.805930 1_545
Hf1 Sb2 2.805930 1_555
