# generated using pymatgen
data_Sb4As3PIr4
_symmetry_space_group_name_H-M   'P 1'
_cell_length_a   6.30934418
_cell_length_b   6.34773950
_cell_length_c   6.40023666
_cell_angle_alpha   113.30129156
_cell_angle_beta   89.55648230
_cell_angle_gamma   90.32379011
_symmetry_Int_Tables_number   1
_chemical_formula_structural   Sb4As3PIr4
_chemical_formula_sum   'Sb4 As3 P1 Ir4'
_cell_volume   235.41503786
_cell_formula_units_Z   1
loop_
 _symmetry_equiv_pos_site_id
 _symmetry_equiv_pos_as_xyz
  1  'x, y, z'
loop_
 _atom_site_type_symbol
 _atom_site_label
 _atom_site_symmetry_multiplicity
 _atom_site_fract_x
 _atom_site_fract_y
 _atom_site_fract_z
 _atom_site_occupancy
  Sb  Sb0  1  0.12822958  0.84701175  0.13008443  1
  Sb  Sb1  1  0.62752875  0.15484805  0.36880043  1
  Sb  Sb2  1  0.87096937  0.15275162  0.87003218  1
  Sb  Sb3  1  0.37727611  0.84135836  0.63436867  1
  As  As0  1  0.86323207  0.65367624  0.32334063  1
  As  As1  1  0.36467285  0.34982531  0.17745647  1
  As  As2  1  0.13617847  0.34618155  0.67700143  1
  P  P0  1  0.63597532  0.64901293  0.82415681  1
  Ir  Ir0  1  0.51112709  0.71605294  0.19607698  1
  Ir  Ir1  1  0.00774452  0.28564008  0.29578228  1
  Ir  Ir2  1  0.49519071  0.29112569  0.79496260  1
  Ir  Ir3  1  0.98187316  0.71251447  0.70793609  1
loop_
_geom_bond_atom_site_label_1
_geom_bond_atom_site_label_2
_geom_bond_distance
_geom_bond_site_symmetry_2
As0 Ir1 2.452726 1_655
As0 Ir0 2.459392 1_555
As0 Ir3 2.461067 1_555
As0 Sb0 2.641432 1_655
As1 Ir1 2.453220 1_555
As1 Ir0 2.455726 1_555
As1 Ir2 2.461814 1_554
As1 Sb1 2.652506 1_555
As2 Ir1 2.458188 1_555
As2 Ir3 2.460247 1_455
As2 Ir2 2.463152 1_555
As2 Sb2 2.641723 1_455
P0 Sb3 2.618567 1_555
Ir0 P0 2.375108 1_554
Ir0 Sb0 2.649898 1_555
Ir0 Sb1 2.659530 1_565
Ir0 Sb3 2.724070 1_555
Ir1 Sb1 2.632405 1_455
Ir1 Sb2 2.662904 1_454
Ir1 Sb0 2.670258 1_545
Ir2 P0 2.372513 1_555
Ir2 Sb1 2.644089 1_555
Ir2 Sb2 2.645498 1_555
Ir2 Sb3 2.725300 1_545
Ir3 P0 2.383429 1_555
Ir3 Sb0 2.662025 1_656
Ir3 Sb2 2.663166 1_565
Ir3 Sb3 2.716195 1_655
