# generated using pymatgen
data_NbBi3O7
_symmetry_space_group_name_H-M   'P 1'
_cell_length_a   3.84864500
_cell_length_b   3.84849377
_cell_length_c   12.85538851
_cell_angle_alpha   82.09902647
_cell_angle_beta   81.79275173
_cell_angle_gamma   62.30288737
_symmetry_Int_Tables_number   1
_chemical_formula_structural   NbBi3O7
_chemical_formula_sum   'Nb1 Bi3 O7'
_cell_volume   166.31306227
_cell_formula_units_Z   1
loop_
 _symmetry_equiv_pos_site_id
 _symmetry_equiv_pos_as_xyz
  1  'x, y, z'
loop_
 _atom_site_type_symbol
 _atom_site_label
 _atom_site_symmetry_multiplicity
 _atom_site_fract_x
 _atom_site_fract_y
 _atom_site_fract_z
 _atom_site_occupancy
  Nb  Nb0  1  0.53465600  0.44848300  0.49441000  1
  Bi  Bi0  1  0.94905800  0.02530900  0.00265700  1
  Bi  Bi1  1  0.70103500  0.79795800  0.72595900  1
  Bi  Bi2  1  0.19016700  0.28188000  0.26285200  1
  O  O0  1  0.37422600  0.48937500  0.64913200  1
  O  O1  1  0.98903300  0.11433400  0.81062400  1
  O  O2  1  0.11465300  0.23940600  0.45473900  1
  O  O3  1  0.74147100  0.86841000  0.53457800  1
  O  O4  1  0.87683800  0.97650100  0.18523600  1
  O  O5  1  0.49567100  0.60361700  0.34076800  1
  O  O6  1  0.28469300  0.35822700  0.01654500  1
loop_
_geom_bond_atom_site_label_1
_geom_bond_atom_site_label_2
_geom_bond_distance
_geom_bond_site_symmetry_2
Nb0 O5 1.989280 1_555
Nb0 O0 2.001814 1_555
Nb0 O2 2.002098 1_655
Nb0 O3 2.008099 1_545
Nb0 O3 2.248215 1_555
Nb0 O2 2.253364 1_555
Nb0 O2 2.715298 1_565
Nb0 O3 2.718562 1_455
Bi0 O6 2.238136 1_655
Bi0 O6 2.257965 1_555
Bi0 O6 2.269003 1_645
Bi0 O4 2.315728 1_545
Bi0 O1 2.437902 1_554
Bi1 O0 2.414549 1_655
Bi1 O1 2.420528 1_565
Bi1 O3 2.428418 1_555
Bi1 O0 2.456305 1_555
Bi1 O0 2.481705 1_565
Bi1 O1 2.486224 1_555
Bi1 O1 2.566573 1_465
Bi2 O4 2.411290 1_445
Bi2 O2 2.434095 1_555
Bi2 O5 2.439148 1_555
Bi2 O5 2.442080 1_545
Bi2 O4 2.458299 1_545
Bi2 O5 2.486102 1_455
Bi2 O4 2.491892 1_455
