# generated using pymatgen
data_Ca3GaO4F
_symmetry_space_group_name_H-M   'P 1'
_cell_length_a   5.14145099
_cell_length_b   7.48161914
_cell_length_c   12.97359793
_cell_angle_alpha   90.00000000
_cell_angle_beta   90.00000000
_cell_angle_gamma   90.00000000
_symmetry_Int_Tables_number   1
_chemical_formula_structural   Ca3GaO4F
_chemical_formula_sum   'Ca12 Ga4 O16 F4'
_cell_volume   499.04732346
_cell_formula_units_Z   4
loop_
 _symmetry_equiv_pos_site_id
 _symmetry_equiv_pos_as_xyz
  1  'x, y, z'
loop_
 _atom_site_type_symbol
 _atom_site_label
 _atom_site_symmetry_multiplicity
 _atom_site_fract_x
 _atom_site_fract_y
 _atom_site_fract_z
 _atom_site_occupancy
  Ca  Ca0  1  0.24018514  0.25000000  0.41202306  1
  Ca  Ca1  1  0.75981486  0.75000000  0.58797694  1
  Ca  Ca2  1  0.25981486  0.75000000  0.91202306  1
  Ca  Ca3  1  0.74018514  0.25000000  0.08797694  1
  Ca  Ca4  1  0.25824118  0.00777116  0.16942630  1
  Ca  Ca5  1  0.74175882  0.99222884  0.83057370  1
  Ca  Ca6  1  0.24175882  0.99222884  0.66942630  1
  Ca  Ca7  1  0.74175882  0.50777116  0.83057370  1
  Ca  Ca8  1  0.75824118  0.00777116  0.33057370  1
  Ca  Ca9  1  0.25824118  0.49222884  0.16942630  1
  Ca  Ca10  1  0.75824118  0.49222884  0.33057370  1
  Ca  Ca11  1  0.24175882  0.50777116  0.66942630  1
  Ga  Ga0  1  0.69845587  0.25000000  0.58350515  1
  Ga  Ga1  1  0.30154413  0.75000000  0.41649485  1
  Ga  Ga2  1  0.80154413  0.75000000  0.08350515  1
  Ga  Ga3  1  0.19845587  0.25000000  0.91649485  1
  O  O0  1  0.33001420  0.25000000  0.58335671  1
  O  O1  1  0.66998580  0.75000000  0.41664329  1
  O  O2  1  0.16998580  0.75000000  0.08335671  1
  O  O3  1  0.83001420  0.25000000  0.91664329  1
  O  O4  1  0.21862580  0.54142599  0.34678457  1
  O  O5  1  0.78137420  0.45857401  0.65321543  1
  O  O6  1  0.28137420  0.45857401  0.84678457  1
  O  O7  1  0.78137420  0.04142599  0.65321543  1
  O  O8  1  0.71862580  0.54142599  0.15321543  1
  O  O9  1  0.21862580  0.95857401  0.34678457  1
  O  O10  1  0.71862580  0.95857401  0.15321543  1
  O  O11  1  0.28137420  0.04142599  0.84678457  1
  O  O12  1  0.27879667  0.25000000  0.05577821  1
  O  O13  1  0.72120333  0.75000000  0.94422179  1
  O  O14  1  0.22120333  0.75000000  0.55577821  1
  O  O15  1  0.77879667  0.25000000  0.44422179  1
  F  F0  1  0.99832066  0.25000000  0.24288180  1
  F  F1  1  0.00167934  0.75000000  0.75711820  1
  F  F2  1  0.50167934  0.75000000  0.74288180  1
  F  F3  1  0.49832066  0.25000000  0.25711820  1
loop_
_geom_bond_atom_site_label_1
_geom_bond_atom_site_label_2
_geom_bond_distance
_geom_bond_site_symmetry_2
Ca0 O0 2.270288 1_555
Ca0 O4 2.341478 1_555
Ca0 O9 2.341478 1_545
Ca0 F3 2.408365 1_555
Ca0 O15 2.408706 1_455
Ca0 F0 2.522229 1_455
Ca0 O15 2.800575 1_555
Ca1 O1 2.270288 1_555
Ca1 O7 2.341478 1_565
Ca1 O5 2.341478 1_555
Ca1 F2 2.408365 1_555
Ca1 O14 2.408706 1_655
Ca1 F1 2.522229 1_655
Ca1 O14 2.800575 1_555
Ca2 O2 2.270288 1_556
Ca2 O11 2.341478 1_565
Ca2 O6 2.341478 1_555
Ca2 F1 2.408365 1_555
Ca2 O13 2.408706 1_555
Ca2 F2 2.522229 1_555
Ca2 O13 2.800575 1_455
Ca3 O3 2.270288 1_554
Ca3 O8 2.341478 1_555
Ca3 O10 2.341478 1_545
Ca3 F0 2.408365 1_555
Ca3 O12 2.408706 1_555
Ca3 F3 2.522229 1_555
Ca3 O12 2.800575 1_655
Ca4 O2 2.274215 1_545
Ca4 O12 2.338674 1_555
Ca4 O9 2.339113 1_545
Ca4 O10 2.404706 1_545
Ca4 F0 2.445068 1_455
Ca4 F3 2.470274 1_555
Ca4 O10 2.806606 1_445
Ca5 O3 2.274215 1_565
Ca5 O13 2.338674 1_555
Ca5 O7 2.339113 1_565
Ca5 O11 2.404706 1_565
Ca5 F1 2.445068 1_655
Ca5 F2 2.470274 1_555
Ca5 O11 2.806606 1_665
Ca6 O0 2.274215 1_565
Ca6 O14 2.338674 1_555
Ca6 O11 2.339113 1_565
Ca6 O7 2.404706 1_465
Ca6 F2 2.445068 1_555
Ca6 F1 2.470274 1_555
Ca6 O7 2.806606 1_565
Ca7 O3 2.274215 1_555
Ca7 O13 2.338674 1_555
Ca7 O5 2.339113 1_555
Ca7 O6 2.404706 1_555
Ca7 F1 2.445068 1_655
Ca7 F2 2.470274 1_555
Ca7 O6 2.806606 1_655
Ca8 O1 2.274215 1_545
Ca8 O15 2.338674 1_555
Ca8 O10 2.339113 1_545
Ca8 O9 2.404706 1_645
Ca8 F3 2.445068 1_555
Ca8 F0 2.470274 1_555
Ca8 O9 2.806606 1_545
Ca9 O2 2.274215 1_555
Ca9 O12 2.338674 1_555
Ca9 O4 2.339113 1_555
Ca9 O8 2.404706 1_555
Ca9 F0 2.445068 1_455
Ca9 F3 2.470274 1_555
Ca9 O8 2.806606 1_455
Ca10 O1 2.274215 1_555
Ca10 O15 2.338674 1_555
Ca10 O8 2.339113 1_555
Ca10 O4 2.404706 1_655
Ca10 F3 2.445068 1_555
Ca10 F0 2.470274 1_555
Ca10 O4 2.806606 1_555
Ca11 O0 2.274215 1_555
Ca11 O14 2.338674 1_555
Ca11 O6 2.339113 1_555
Ca11 O5 2.404706 1_455
Ca11 F2 2.445068 1_555
Ca11 F1 2.470274 1_555
Ca11 O5 2.806606 1_555
Ga0 O5 1.853307 1_555
Ga0 O7 1.853307 1_555
Ga0 O15 1.853617 1_555
Ga0 O0 1.894326 1_555
Ga1 O9 1.853307 1_555
Ga1 O4 1.853307 1_555
Ga1 O14 1.853617 1_555
Ga1 O1 1.894326 1_555
Ga2 O10 1.853307 1_555
Ga2 O8 1.853307 1_555
Ga2 O13 1.853617 1_554
Ga2 O2 1.894326 1_655
Ga3 O6 1.853307 1_555
Ga3 O11 1.853307 1_555
Ga3 O12 1.853617 1_556
Ga3 O3 1.894326 1_455
