# generated using pymatgen
data_YAlSi2Rh
_symmetry_space_group_name_H-M   'P 1'
_cell_length_a   5.99676320
_cell_length_b   5.99676356
_cell_length_c   5.99676231
_cell_angle_alpha   141.68121780
_cell_angle_beta   141.68122303
_cell_angle_gamma   55.30928069
_symmetry_Int_Tables_number   1
_chemical_formula_structural   YAlSi2Rh
_chemical_formula_sum   'Y1 Al1 Si2 Rh1'
_cell_volume   82.29948963
_cell_formula_units_Z   1
loop_
 _symmetry_equiv_pos_site_id
 _symmetry_equiv_pos_as_xyz
  1  'x, y, z'
loop_
 _atom_site_type_symbol
 _atom_site_label
 _atom_site_symmetry_multiplicity
 _atom_site_fract_x
 _atom_site_fract_y
 _atom_site_fract_z
 _atom_site_occupancy
  Y  Y0  1  0.00000000  0.00000000  0.00000000  1
  Al  Al0  1  0.25000000  0.75000000  0.50000000  1
  Si  Si0  1  0.61026629  0.61026629  0.00000000  1
  Si  Si1  1  0.38973371  0.38973371  1.00000000  1
  Rh  Rh0  1  0.75000000  0.25000000  0.50000000  1
loop_
_geom_bond_atom_site_label_1
_geom_bond_atom_site_label_2
_geom_bond_distance
_geom_bond_site_symmetry_2
Al0 Si0 2.465174 1_556
Al0 Si1 2.465174 1_554
Al0 Si0 2.465174 1_455
Al0 Si1 2.465175 1_565
Al0 Rh0 2.783343 1_454
Al0 Rh0 2.783343 1_566
Al0 Rh0 2.783343 1_465
Al0 Rh0 2.783343 1_555
Al0 Y0 3.305607 1_565
Al0 Y0 3.305607 1_566
Al0 Y0 3.305608 1_666
Al0 Y0 3.305608 1_555
Si0 Si1 2.342806 1_554
Si0 Y0 3.019798 1_666
Si0 Y0 3.019799 1_554
Si0 Y0 3.019799 1_565
Si0 Y0 3.019799 1_655
Si1 Y0 3.019798 1_555
Si1 Y0 3.019799 1_667
Si1 Y0 3.019799 1_656
Si1 Y0 3.019799 1_566
Rh0 Si1 2.465174 1_554
Rh0 Si0 2.465174 1_556
Rh0 Si1 2.465174 1_655
Rh0 Si0 2.465175 1_545
Rh0 Y0 3.305607 1_656
Rh0 Y0 3.305607 1_655
Rh0 Y0 3.305608 1_555
Rh0 Y0 3.305608 1_666
