# generated using pymatgen
data_Zr2V2ReMo
_symmetry_space_group_name_H-M   'P 1'
_cell_length_a   5.24383838
_cell_length_b   5.26919663
_cell_length_c   5.24383862
_cell_angle_alpha   120.11879635
_cell_angle_beta   119.43485353
_cell_angle_gamma   90.24777810
_symmetry_Int_Tables_number   1
_chemical_formula_structural   Zr2V2ReMo
_chemical_formula_sum   'Zr2 V2 Re1 Mo1'
_cell_volume   102.91825394
_cell_formula_units_Z   1
loop_
 _symmetry_equiv_pos_site_id
 _symmetry_equiv_pos_as_xyz
  1  'x, y, z'
loop_
 _atom_site_type_symbol
 _atom_site_label
 _atom_site_symmetry_multiplicity
 _atom_site_fract_x
 _atom_site_fract_y
 _atom_site_fract_z
 _atom_site_occupancy
  Zr  Zr0  1  0.37501701  0.12599543  0.25097842  1
  Zr  Zr1  1  0.62498299  0.87400457  0.74902158  1
  V  V0  1  0.50000000  0.50000000  0.00000000  1
  V  V1  1  0.00000000  0.50000000  0.50000000  1
  Re  Re0  1  0.00000000  0.50000000  0.00000000  1
  Mo  Mo0  1  0.00000000  0.00000000  0.50000000  1
loop_
_geom_bond_atom_site_label_1
_geom_bond_atom_site_label_2
_geom_bond_distance
_geom_bond_site_symmetry_2
Zr0 Zr1 3.210635 1_544
Zr0 Zr1 3.214607 1_555
Zr0 Zr1 3.229937 1_444
Zr0 Zr1 3.229938 1_545
V0 V1 2.644284 1_554
V0 V1 2.644284 1_655
V0 Zr1 3.070982 1_555
V0 Zr0 3.070982 1_554
V0 Zr1 3.079747 1_554
V0 Zr0 3.079747 1_555
V0 Zr0 3.090544 1_565
V0 Zr1 3.090544 1_544
V1 Zr0 3.070982 1_555
V1 Zr1 3.070982 1_455
V1 Zr1 3.079746 1_555
V1 Zr0 3.079746 1_455
V1 Zr0 3.090544 1_566
V1 Zr1 3.090544 1_444
Re0 V0 2.621919 1_555
Re0 V0 2.621919 1_455
Re0 V1 2.621919 1_554
Re0 V1 2.621919 1_555
Re0 Zr0 3.085903 1_565
Re0 Zr1 3.085903 1_444
Re0 Zr1 3.094457 1_555
Re0 Zr0 3.094457 1_454
Re0 Zr0 3.094457 1_555
Re0 Zr1 3.094457 1_454
Mo0 Re0 2.623561 1_545
Mo0 Re0 2.623561 1_556
Mo0 V0 2.634598 1_556
Mo0 V0 2.634598 1_445
Mo0 V1 2.634598 1_555
Mo0 V1 2.634598 1_545
Mo0 Zr0 3.065271 1_555
Mo0 Zr1 3.065271 1_445
Mo0 Zr0 3.093426 1_556
Mo0 Zr1 3.093426 1_444
Mo0 Zr1 3.093426 1_545
Mo0 Zr0 3.093426 1_455
