# generated using pymatgen
data_Ca3Lu(NbN3)2
_symmetry_space_group_name_H-M   'P 1'
_cell_length_a   5.64269756
_cell_length_b   5.64269761
_cell_length_c   5.87994539
_cell_angle_alpha   99.23196166
_cell_angle_beta   99.23196103
_cell_angle_gamma   119.98945497
_symmetry_Int_Tables_number   1
_chemical_formula_structural   Ca3Lu(NbN3)2
_chemical_formula_sum   'Ca3 Lu1 Nb2 N6'
_cell_volume   153.58154767
_cell_formula_units_Z   1
loop_
 _symmetry_equiv_pos_site_id
 _symmetry_equiv_pos_as_xyz
  1  'x, y, z'
loop_
 _atom_site_type_symbol
 _atom_site_label
 _atom_site_symmetry_multiplicity
 _atom_site_fract_x
 _atom_site_fract_y
 _atom_site_fract_z
 _atom_site_occupancy
  Ca  Ca0  1  0.83373567  0.16626433  0.50000000  1
  Ca  Ca1  1  0.16626433  0.83373567  0.50000000  1
  Ca  Ca2  1  0.50000000  0.50000000  0.50000000  1
  Lu  Lu0  1  0.00000000  0.00000000  0.00000000  1
  Nb  Nb0  1  0.33320593  0.66679407  0.00000000  1
  Nb  Nb1  1  0.66679407  0.33320593  1.00000000  1
  N  N0  1  0.41968073  0.07165308  0.21420384  1
  N  N1  1  0.92834692  0.58031927  0.78579616  1
  N  N2  1  0.58031927  0.92834692  0.78579616  1
  N  N3  1  0.07165308  0.41968073  0.21420384  1
  N  N4  1  0.72335369  0.72335369  0.21413304  1
  N  N5  1  0.27664631  0.27664631  0.78586696  1
loop_
_geom_bond_atom_site_label_1
_geom_bond_atom_site_label_2
_geom_bond_distance
_geom_bond_site_symmetry_2
Ca0 N0 2.402733 1_555
Ca0 N1 2.402733 1_555
Ca0 N5 2.493870 1_655
Ca0 N4 2.493870 1_545
Ca0 N2 2.499367 1_545
Ca0 N3 2.499367 1_655
Ca1 N2 2.402733 1_555
Ca1 N3 2.402733 1_555
Ca1 N4 2.493870 1_455
Ca1 N5 2.493870 1_565
Ca1 N0 2.499367 1_565
Ca1 N1 2.499367 1_455
Ca2 N5 2.402860 1_555
Ca2 N4 2.402860 1_555
Ca2 N3 2.495733 1_555
Ca2 N1 2.495733 1_555
Ca2 N2 2.495733 1_555
Ca2 N0 2.495733 1_555
Lu0 N0 2.297885 1_555
Lu0 N2 2.297885 1_444
Lu0 N3 2.297885 1_555
Lu0 N1 2.297885 1_444
Lu0 N5 2.298740 1_554
Lu0 N4 2.298740 1_445
N0 Nb0 2.192848 1_545
N0 Nb1 2.193520 1_554
N1 Nb0 2.192848 1_656
N1 Nb1 2.193520 1_555
N2 Nb1 2.192848 1_565
N2 Nb0 2.193520 1_556
N3 Nb1 2.192848 1_454
N3 Nb0 2.193520 1_555
N4 Nb0 2.193855 1_555
N4 Nb1 2.193855 1_554
N5 Nb1 2.193855 1_555
N5 Nb0 2.193855 1_556
