# generated using pymatgen
data_Zr6TaPt10
_symmetry_space_group_name_H-M   'P 1'
_cell_length_a   8.09392364
_cell_length_b   8.09392390
_cell_length_c   9.67954600
_cell_angle_alpha   90.00000000
_cell_angle_beta   90.00000000
_cell_angle_gamma   106.42650688
_symmetry_Int_Tables_number   1
_chemical_formula_structural   Zr6TaPt10
_chemical_formula_sum   'Zr12 Ta2 Pt20'
_cell_volume   608.23974378
_cell_formula_units_Z   2
loop_
 _symmetry_equiv_pos_site_id
 _symmetry_equiv_pos_as_xyz
  1  'x, y, z'
loop_
 _atom_site_type_symbol
 _atom_site_label
 _atom_site_symmetry_multiplicity
 _atom_site_fract_x
 _atom_site_fract_y
 _atom_site_fract_z
 _atom_site_occupancy
  Zr  Zr0  1  0.68921197  0.31078803  0.00000000  1
  Zr  Zr1  1  0.31078803  0.68921197  0.00000000  1
  Zr  Zr2  1  0.81078803  0.18921197  0.50000000  1
  Zr  Zr3  1  0.18921197  0.81078803  0.50000000  1
  Zr  Zr4  1  0.00102764  0.50102764  0.25000000  1
  Zr  Zr5  1  0.99897236  0.49897236  0.75000000  1
  Zr  Zr6  1  0.49897236  0.99897236  0.75000000  1
  Zr  Zr7  1  0.50102764  0.00102764  0.25000000  1
  Zr  Zr8  1  0.31741570  0.31741570  0.18319649  1
  Zr  Zr9  1  0.68258430  0.68258430  0.81680351  1
  Zr  Zr10  1  0.18258430  0.18258430  0.68319649  1
  Zr  Zr11  1  0.81741570  0.81741570  0.31680351  1
  Ta  Ta0  1  0.00000000  0.00000000  0.00000000  1
  Ta  Ta1  1  0.50000000  0.50000000  0.50000000  1
  Pt  Pt0  1  0.85476214  0.14289951  0.20502591  1
  Pt  Pt1  1  0.14523786  0.85710049  0.79497409  1
  Pt  Pt2  1  0.64523786  0.35710049  0.70502591  1
  Pt  Pt3  1  0.64289951  0.35476214  0.29497409  1
  Pt  Pt4  1  0.35476214  0.64289951  0.29497409  1
  Pt  Pt5  1  0.35710049  0.64523786  0.70502591  1
  Pt  Pt6  1  0.85710049  0.14523786  0.79497409  1
  Pt  Pt7  1  0.14289951  0.85476214  0.20502591  1
  Pt  Pt8  1  0.93815988  0.65029755  0.99931642  1
  Pt  Pt9  1  0.06184012  0.34970245  0.00068358  1
  Pt  Pt10  1  0.56184012  0.84970245  0.49931642  1
  Pt  Pt11  1  0.15029755  0.43815988  0.50068358  1
  Pt  Pt12  1  0.43815988  0.15029755  0.50068358  1
  Pt  Pt13  1  0.84970245  0.56184012  0.49931642  1
  Pt  Pt14  1  0.34970245  0.06184012  0.00068358  1
  Pt  Pt15  1  0.65029755  0.93815988  0.99931642  1
  Pt  Pt16  1  0.10720167  0.10720167  0.39268625  1
  Pt  Pt17  1  0.89279833  0.89279833  0.60731375  1
  Pt  Pt18  1  0.39279833  0.39279833  0.89268625  1
  Pt  Pt19  1  0.60720167  0.60720167  0.10731375  1
loop_
_geom_bond_atom_site_label_1
_geom_bond_atom_site_label_2
_geom_bond_distance
_geom_bond_site_symmetry_2
Pt0 Ta0 2.725274 1_655
Pt0 Zr11 2.784223 1_545
Pt0 Zr7 2.801075 1_555
Pt0 Pt16 2.809217 1_655
Pt0 Pt15 2.810450 1_544
Pt0 Pt9 2.817186 1_655
Pt0 Zr4 2.837686 1_655
Pt0 Pt3 2.881355 1_555
Pt0 Zr2 2.914602 1_555
Pt0 Zr0 2.934329 1_555
Pt1 Ta0 2.725274 1_566
Pt1 Zr10 2.784223 1_565
Pt1 Zr6 2.801075 1_555
Pt1 Pt17 2.809217 1_455
Pt1 Pt14 2.810450 1_566
Pt1 Pt8 2.817186 1_455
Pt1 Zr5 2.837686 1_455
Pt1 Pt5 2.881355 1_555
Pt1 Zr3 2.914602 1_555
Pt1 Zr1 2.934329 1_556
Pt2 Ta1 2.725274 1_555
Pt2 Zr9 2.784223 1_555
Pt2 Zr5 2.801075 1_555
Pt2 Zr6 2.837686 1_545
Pt2 Pt6 2.881355 1_555
Pt2 Zr0 2.914602 1_556
Pt2 Zr2 2.934329 1_555
Pt3 Ta1 2.725274 1_555
Pt3 Zr8 2.784223 1_555
Pt3 Zr7 2.801075 1_555
Pt3 Zr4 2.837686 1_655
Pt3 Zr0 2.914602 1_555
Pt3 Zr2 2.934329 1_555
Pt4 Ta1 2.725274 1_555
Pt4 Zr8 2.784223 1_555
Pt4 Zr4 2.801075 1_555
Pt4 Zr7 2.837686 1_565
Pt4 Pt7 2.881355 1_555
Pt4 Zr1 2.914602 1_555
Pt4 Zr3 2.934329 1_555
Pt5 Ta1 2.725274 1_555
Pt5 Zr9 2.784223 1_555
Pt5 Zr6 2.801075 1_555
Pt5 Zr5 2.837686 1_455
Pt5 Zr1 2.914602 1_556
Pt5 Zr3 2.934329 1_555
Pt6 Ta0 2.725274 1_656
Pt6 Zr10 2.784223 1_655
Pt6 Zr5 2.801075 1_555
Pt6 Pt9 2.810450 1_656
Pt6 Zr6 2.837686 1_545
Pt6 Zr2 2.914602 1_555
Pt6 Zr0 2.934329 1_556
Pt7 Ta0 2.725274 1_565
Pt7 Zr11 2.784223 1_455
Pt7 Zr4 2.801075 1_555
Pt7 Pt8 2.810450 1_454
Pt7 Zr7 2.837686 1_565
Pt7 Zr3 2.914602 1_555
Pt7 Zr1 2.934329 1_555
Pt8 Ta0 2.731455 1_666
Pt8 Zr9 2.788225 1_555
Pt8 Zr5 2.811988 1_555
Pt8 Zr4 2.820326 1_656
Pt8 Pt9 2.880840 1_656
Pt8 Zr0 2.912017 1_556
Pt8 Zr1 2.942513 1_656
Pt9 Ta0 2.731455 1_555
Pt9 Zr8 2.788225 1_555
Pt9 Zr4 2.811988 1_555
Pt9 Zr5 2.820326 1_454
Pt9 Zr1 2.912017 1_555
Pt9 Zr0 2.942513 1_455
Pt10 Ta1 2.731455 1_555
Pt10 Zr11 2.788225 1_555
Pt10 Pt17 2.803873 1_555
Pt10 Pt5 2.810450 1_555
Pt10 Zr7 2.811988 1_565
Pt10 Pt4 2.817186 1_555
Pt10 Zr6 2.820326 1_555
Pt10 Pt12 2.880840 1_565
Pt10 Zr2 2.912017 1_565
Pt10 Zr3 2.942513 1_555
Pt11 Ta1 2.731455 1_555
Pt11 Zr10 2.788225 1_555
Pt11 Pt16 2.803873 1_555
Pt11 Pt4 2.810450 1_555
Pt11 Zr5 2.811988 1_455
Pt11 Pt5 2.817186 1_555
Pt11 Zr4 2.820326 1_555
Pt11 Pt13 2.880840 1_455
Pt11 Zr2 2.912017 1_455
Pt11 Zr3 2.942513 1_555
Pt12 Ta1 2.731455 1_555
Pt12 Zr10 2.788225 1_555
Pt12 Pt16 2.803873 1_555
Pt12 Pt3 2.810450 1_555
Pt12 Zr6 2.811988 1_545
Pt12 Pt2 2.817186 1_555
Pt12 Zr7 2.820326 1_555
Pt12 Zr3 2.912017 1_545
Pt12 Zr2 2.942513 1_555
Pt13 Ta1 2.731455 1_555
Pt13 Zr11 2.788225 1_555
Pt13 Pt17 2.803873 1_555
Pt13 Pt2 2.810450 1_555
Pt13 Zr4 2.811988 1_655
Pt13 Pt3 2.817186 1_555
Pt13 Zr5 2.820326 1_555
Pt13 Zr3 2.912017 1_655
Pt13 Zr2 2.942513 1_555
Pt14 Ta0 2.731455 1_555
Pt14 Zr8 2.788225 1_555
Pt14 Pt18 2.803873 1_554
Pt14 Zr7 2.811988 1_555
Pt14 Pt7 2.817186 1_545
Pt14 Zr6 2.820326 1_544
Pt14 Pt15 2.880840 1_544
Pt14 Zr0 2.912017 1_555
Pt14 Zr1 2.942513 1_545
Pt15 Ta0 2.731455 1_666
Pt15 Zr9 2.788225 1_555
Pt15 Pt19 2.803873 1_556
Pt15 Zr6 2.811988 1_555
Pt15 Pt6 2.817186 1_565
Pt15 Zr7 2.820326 1_566
Pt15 Zr1 2.912017 1_556
Pt15 Zr0 2.942513 1_566
Pt16 Pt7 2.809217 1_545
Pt16 Zr2 2.859407 1_455
Pt16 Zr3 2.859407 1_545
Pt16 Zr8 2.874794 1_555
Pt16 Zr11 2.903596 1_445
Pt16 Zr10 2.905406 1_555
Pt16 Pt17 2.938667 1_445
Pt17 Pt6 2.809217 1_565
Pt17 Zr3 2.859407 1_655
Pt17 Zr2 2.859407 1_565
Pt17 Zr9 2.874794 1_555
Pt17 Zr10 2.903596 1_665
Pt17 Zr11 2.905406 1_555
Pt18 Pt9 2.803873 1_556
Pt18 Pt2 2.809217 1_555
Pt18 Pt5 2.809217 1_555
Pt18 Zr0 2.859407 1_556
Pt18 Zr1 2.859407 1_556
Pt18 Zr10 2.874794 1_555
Pt18 Zr9 2.903596 1_555
Pt18 Zr8 2.905406 1_556
Pt18 Pt19 2.938667 1_556
Pt19 Pt8 2.803873 1_554
Pt19 Pt4 2.809217 1_555
Pt19 Pt3 2.809217 1_555
Pt19 Zr1 2.859407 1_555
Pt19 Zr0 2.859407 1_555
Pt19 Zr11 2.874794 1_555
Pt19 Zr8 2.903596 1_555
Pt19 Zr9 2.905406 1_554
