# generated using pymatgen
data_Rb4ScCuTe4
_symmetry_space_group_name_H-M   'P 1'
_cell_length_a   9.03179135
_cell_length_b   9.03179059
_cell_length_c   9.03179072
_cell_angle_alpha   134.83804064
_cell_angle_beta   129.03155093
_cell_angle_gamma   70.43637126
_symmetry_Int_Tables_number   1
_chemical_formula_structural   Rb4ScCuTe4
_chemical_formula_sum   'Rb4 Sc1 Cu1 Te4'
_cell_volume   397.77324381
_cell_formula_units_Z   1
loop_
 _symmetry_equiv_pos_site_id
 _symmetry_equiv_pos_as_xyz
  1  'x, y, z'
loop_
 _atom_site_type_symbol
 _atom_site_label
 _atom_site_symmetry_multiplicity
 _atom_site_fract_x
 _atom_site_fract_y
 _atom_site_fract_z
 _atom_site_occupancy
  Rb  Rb0  1  0.47209564  0.13799177  0.32068823  1
  Rb  Rb1  1  0.81730354  0.65140641  0.17931177  1
  Rb  Rb2  1  0.52790436  0.84859359  0.66589612  1
  Rb  Rb3  1  0.18269646  0.36200823  0.83410388  1
  Sc  Sc0  1  0.00000000  0.25000000  0.25000000  1
  Cu  Cu0  1  0.00000000  0.75000000  0.75000000  1
  Te  Te0  1  0.08688917  0.88910384  0.18339972  1
  Te  Te1  1  0.91311083  0.09650955  0.80221268  1
  Te  Te2  1  0.29429688  0.61089616  0.69778732  1
  Te  Te3  1  0.70570312  0.40349045  0.31660028  1
loop_
_geom_bond_atom_site_label_1
_geom_bond_atom_site_label_2
_geom_bond_distance
_geom_bond_site_symmetry_2
Rb0 Te2 3.586748 1_544
Rb0 Te3 3.716765 1_555
Rb0 Te2 3.768601 1_555
Rb0 Sc0 3.768952 1_555
Rb0 Te1 3.794766 1_555
Rb0 Te0 3.816832 1_545
Rb0 Te1 4.071059 1_454
Rb1 Te1 3.586742 1_565
Rb1 Te0 3.716772 1_655
Rb1 Te1 3.768602 1_554
Rb1 Sc0 3.768943 1_655
Rb1 Te2 3.794764 1_554
Rb1 Te3 3.816821 1_555
Rb1 Te2 4.071064 1_655
Rb2 Te3 3.586748 1_555
Rb2 Te2 3.716780 1_555
Rb2 Te3 3.768601 1_566
Rb2 Sc0 3.768949 1_666
Rb2 Te0 3.794766 1_555
Rb2 Te1 3.816832 1_565
Rb2 Te0 4.071059 1_656
Rb3 Te0 3.586753 1_556
Rb3 Te1 3.716758 1_455
Rb3 Te0 3.768600 1_545
Rb3 Sc0 3.768952 1_555
Rb3 Te3 3.794764 1_556
Rb3 Te2 3.816821 1_555
Rb3 Te3 4.071064 1_455
Sc0 Te0 2.778266 1_545
Sc0 Te2 2.778271 1_555
Sc0 Te3 2.778275 1_455
Sc0 Te1 2.778279 1_454
Cu0 Te1 2.715273 1_465
Cu0 Te0 2.715273 1_556
Cu0 Te2 2.715274 1_555
Cu0 Te3 2.715274 1_455
Cu0 Rb1 3.725888 1_455
Cu0 Rb3 3.725893 1_555
Cu0 Rb2 3.725893 1_455
Cu0 Rb0 3.725893 1_566
