# generated using pymatgen
data_Cs4NaScTe4
_symmetry_space_group_name_H-M   'P 1'
_cell_length_a   9.53565771
_cell_length_b   9.53565741
_cell_length_c   9.53565828
_cell_angle_alpha   133.21383610
_cell_angle_beta   129.55582824
_cell_angle_gamma   71.24313638
_symmetry_Int_Tables_number   1
_chemical_formula_structural   Cs4NaScTe4
_chemical_formula_sum   'Cs4 Na1 Sc1 Te4'
_cell_volume   476.99126082
_cell_formula_units_Z   1
loop_
 _symmetry_equiv_pos_site_id
 _symmetry_equiv_pos_as_xyz
  1  'x, y, z'
loop_
 _atom_site_type_symbol
 _atom_site_label
 _atom_site_symmetry_multiplicity
 _atom_site_fract_x
 _atom_site_fract_y
 _atom_site_fract_z
 _atom_site_occupancy
  Cs  Cs0  1  0.97914918  0.62888587  0.31461775  1
  Cs  Cs1  1  0.68573288  0.87111413  0.85026331  1
  Cs  Cs2  1  0.31426712  0.16453143  0.18538225  1
  Cs  Cs3  1  0.02085082  0.33546857  0.64973669  1
  Na  Na0  1  0.50000000  0.25000000  0.75000000  1
  Sc  Sc0  1  0.50000000  0.75000000  0.25000000  1
  Te  Te0  1  0.58910741  0.42452491  0.22101977  1
  Te  Te1  1  0.20350514  0.86808764  0.27898023  1
  Te  Te2  1  0.79649486  0.07547509  0.66458250  1
  Te  Te3  1  0.41089259  0.63191236  0.83541750  1
loop_
_geom_bond_atom_site_label_1
_geom_bond_atom_site_label_2
_geom_bond_distance
_geom_bond_site_symmetry_2
Cs0 Te1 3.875675 1_655
Cs0 Te3 3.930970 1_655
Cs0 Te2 3.934022 1_565
Cs0 Te0 4.059391 1_555
Cs0 Te2 4.082723 1_554
Cs0 Te3 4.334364 1_554
Cs1 Te3 3.875683 1_555
Cs1 Te1 3.930965 1_656
Cs1 Te0 3.934018 1_555
Cs1 Te2 4.059384 1_565
Cs1 Te0 4.082727 1_566
Cs1 Te1 4.334366 1_555
Cs2 Te0 3.875683 1_555
Cs2 Te2 3.930965 1_454
Cs2 Te3 3.934025 1_544
Cs2 Te1 4.059385 1_545
Cs2 Te3 4.082720 1_555
Cs2 Te2 4.334367 1_555
Cs3 Te2 3.875675 1_455
Cs3 Te0 3.930970 1_455
Cs3 Te1 3.934022 1_556
Cs3 Te3 4.059391 1_555
Cs3 Te1 4.082723 1_545
Cs3 Te0 4.334364 1_556
Na0 Te3 3.078524 1_555
Na0 Te1 3.078524 1_545
Na0 Te2 3.078524 1_555
Na0 Te0 3.078524 1_556
Sc0 Te0 2.803458 1_555
Sc0 Te2 2.803458 1_565
Sc0 Te1 2.803458 1_555
Sc0 Te3 2.803459 1_554
