# generated using pymatgen
data_MoIrSeBr12
_symmetry_space_group_name_H-M   'P 1'
_cell_length_a   8.93170636
_cell_length_b   8.93170641
_cell_length_c   6.74568049
_cell_angle_alpha   71.04923548
_cell_angle_beta   71.04922789
_cell_angle_gamma   79.29534014
_symmetry_Int_Tables_number   1
_chemical_formula_structural   MoIrSeBr12
_chemical_formula_sum   'Mo1 Ir1 Se1 Br12'
_cell_volume   479.44121118
_cell_formula_units_Z   1
loop_
 _symmetry_equiv_pos_site_id
 _symmetry_equiv_pos_as_xyz
  1  'x, y, z'
loop_
 _atom_site_type_symbol
 _atom_site_label
 _atom_site_symmetry_multiplicity
 _atom_site_fract_x
 _atom_site_fract_y
 _atom_site_fract_z
 _atom_site_occupancy
  Mo  Mo0  1  0.25089219  0.25089219  0.74966141  1
  Ir  Ir0  1  0.01277310  0.01277310  0.98770016  1
  Se  Se0  1  0.72480577  0.72480577  0.27517969  1
  Br  Br0  1  0.96163470  0.27265837  0.72261566  1
  Br  Br1  1  0.27265837  0.96163470  0.72261566  1
  Br  Br2  1  0.05503243  0.74939561  0.24795089  1
  Br  Br3  1  0.74939561  0.05503243  0.24795089  1
  Br  Br4  1  0.20440963  0.51527355  0.79158353  1
  Br  Br5  1  0.51527355  0.20440963  0.79158353  1
  Br  Br6  1  0.78094161  0.46638225  0.22316977  1
  Br  Br7  1  0.46638225  0.78094161  0.22316977  1
  Br  Br8  1  0.13515706  0.13515706  0.17475697  1
  Br  Br9  1  0.88077085  0.88077085  0.82466780  1
  Br  Br10  1  0.64374756  0.64374756  0.66767123  1
  Br  Br11  1  0.34612731  0.34612731  0.34972605  1
loop_
_geom_bond_atom_site_label_1
_geom_bond_atom_site_label_2
_geom_bond_distance
_geom_bond_site_symmetry_2
Br0 Ir0 2.496983 1_655
Br0 Mo0 2.615798 1_655
Br1 Ir0 2.496982 1_565
Br1 Mo0 2.615798 1_565
Br2 Ir0 2.485256 1_564
Br2 Se0 2.940072 1_455
Br3 Ir0 2.485255 1_654
Br3 Se0 2.940072 1_545
Br4 Mo0 2.412822 1_555
Br5 Mo0 2.412822 1_555
Br6 Se0 2.384092 1_555
Br7 Se0 2.384092 1_555
Br8 Ir0 2.493502 1_554
Br8 Mo0 2.627999 1_554
Br9 Ir0 2.488038 1_665
Br9 Se0 2.887599 1_556
Br10 Se0 2.400608 1_555
Br11 Mo0 2.452179 1_555
