# generated using pymatgen
data_CaZr8(In2Ir)7
_symmetry_space_group_name_H-M   'P 1'
_cell_length_a   9.65052917
_cell_length_b   9.65052882
_cell_length_c   9.65052839
_cell_angle_alpha   60.00000147
_cell_angle_beta   60.00000268
_cell_angle_gamma   59.99999670
_symmetry_Int_Tables_number   1
_chemical_formula_structural   CaZr8(In2Ir)7
_chemical_formula_sum   'Ca1 Zr8 In14 Ir7'
_cell_volume   635.53333797
_cell_formula_units_Z   1
loop_
 _symmetry_equiv_pos_site_id
 _symmetry_equiv_pos_as_xyz
  1  'x, y, z'
loop_
 _atom_site_type_symbol
 _atom_site_label
 _atom_site_symmetry_multiplicity
 _atom_site_fract_x
 _atom_site_fract_y
 _atom_site_fract_z
 _atom_site_occupancy
  Ca  Ca0  1  0.50000000  0.50000000  0.50000000  1
  Zr  Zr0  1  0.12407266  0.62778402  0.12407266  1
  Zr  Zr1  1  0.37221598  0.87592734  0.87592734  1
  Zr  Zr2  1  0.87592734  0.87592734  0.87592734  1
  Zr  Zr3  1  0.62778402  0.12407266  0.12407266  1
  Zr  Zr4  1  0.87592734  0.87592734  0.37221598  1
  Zr  Zr5  1  0.12407266  0.12407266  0.12407266  1
  Zr  Zr6  1  0.87592734  0.37221598  0.87592734  1
  Zr  Zr7  1  0.12407266  0.12407266  0.62778402  1
  In  In0  1  0.50000000  0.84724468  0.15275532  1
  In  In1  1  0.50000000  0.84724468  0.50000000  1
  In  In2  1  0.50000000  0.15275532  0.50000000  1
  In  In3  1  0.50000000  0.50000000  0.84724468  1
  In  In4  1  0.15275532  0.50000000  0.50000000  1
  In  In5  1  0.84724468  0.15275532  0.50000000  1
  In  In6  1  0.15275532  0.84724468  0.50000000  1
  In  In7  1  0.50000000  0.15275532  0.84724468  1
  In  In8  1  0.15275532  0.50000000  0.84724468  1
  In  In9  1  0.50000000  0.50000000  0.15275532  1
  In  In10  1  0.84724468  0.50000000  0.50000000  1
  In  In11  1  0.84724468  0.50000000  0.15275532  1
  In  In12  1  0.25000000  0.25000000  0.25000000  1
  In  In13  1  0.75000000  0.75000000  0.75000000  1
  Ir  Ir0  1  0.77967766  0.77967766  0.22032234  1
  Ir  Ir1  1  0.00000000  0.00000000  0.00000000  1
  Ir  Ir2  1  0.22032234  0.77967766  0.22032234  1
  Ir  Ir3  1  0.22032234  0.77967766  0.77967766  1
  Ir  Ir4  1  0.22032234  0.22032234  0.77967766  1
  Ir  Ir5  1  0.77967766  0.22032234  0.77967766  1
  Ir  Ir6  1  0.77967766  0.22032234  0.22032234  1
loop_
_geom_bond_atom_site_label_1
_geom_bond_atom_site_label_2
_geom_bond_distance
_geom_bond_site_symmetry_2
Ca0 In3 3.351095 1_555
Ca0 In9 3.351095 1_555
Ca0 In6 3.351095 1_555
Ca0 In5 3.351095 1_555
Ca0 In1 3.351095 1_555
Ca0 In7 3.351095 1_555
Ca0 In0 3.351095 1_555
Ca0 In2 3.351095 1_555
Ca0 In10 3.351095 1_555
Ca0 In11 3.351095 1_555
Ca0 In8 3.351095 1_555
Ca0 In4 3.351095 1_555
In0 Ir0 2.776685 1_555
In0 Ir2 2.776685 1_555
In1 Ir0 2.776685 1_555
In1 Ir3 2.776685 1_555
In2 Ir4 2.776685 1_555
In2 Ir6 2.776685 1_555
In3 Ir3 2.776685 1_555
In3 Ir5 2.776685 1_555
In4 Ir4 2.776685 1_555
In4 Ir2 2.776685 1_555
In5 Ir5 2.776685 1_555
In5 Ir6 2.776685 1_555
In6 Ir2 2.776685 1_555
In6 Ir3 2.776685 1_555
In7 Ir4 2.776685 1_555
In7 Ir5 2.776685 1_555
In8 Ir4 2.776685 1_555
In8 Ir3 2.776685 1_555
In9 Ir6 2.776685 1_555
In9 Ir2 2.776685 1_555
In10 Ir0 2.776685 1_555
In10 Ir5 2.776685 1_555
In11 Ir0 2.776685 1_555
In11 Ir6 2.776685 1_555
In12 Zr5 2.976780 1_555
In12 Zr0 2.976796 1_555
In12 Zr7 2.976796 1_555
In12 Zr3 2.976796 1_555
In13 Zr2 2.976780 1_555
In13 Zr6 2.976796 1_555
In13 Zr4 2.976796 1_555
In13 Zr1 2.976796 1_555
Ir0 Zr4 2.731340 1_555
Ir0 Zr3 2.731355 1_565
Ir0 Zr0 2.731355 1_655
Ir0 Zr2 2.731357 1_554
Ir1 Zr6 2.932922 1_454
Ir1 Zr0 2.932922 1_545
Ir1 Zr4 2.932922 1_445
Ir1 Zr7 2.932922 1_554
Ir1 Zr1 2.932922 1_544
Ir1 Zr3 2.932922 1_455
Ir1 Zr5 2.932938 1_555
Ir1 Zr2 2.932938 1_444
Ir2 Zr0 2.731340 1_555
Ir2 Zr1 2.731355 1_554
Ir2 Zr4 2.731355 1_455
Ir2 Zr5 2.731357 1_565
Ir3 Zr1 2.731340 1_555
Ir3 Zr7 2.731355 1_565
Ir3 Zr0 2.731355 1_556
Ir3 Zr2 2.731357 1_455
Ir4 Zr7 2.731340 1_555
Ir4 Zr1 2.731355 1_545
Ir4 Zr6 2.731355 1_455
Ir4 Zr5 2.731357 1_556
Ir5 Zr6 2.731340 1_555
Ir5 Zr3 2.731355 1_556
Ir5 Zr7 2.731355 1_655
Ir5 Zr2 2.731357 1_545
Ir6 Zr3 2.731340 1_555
Ir6 Zr4 2.731355 1_545
Ir6 Zr6 2.731355 1_554
Ir6 Zr5 2.731357 1_655
