# generated using pymatgen
data_Ta5Pb2WS12
_symmetry_space_group_name_H-M   'P 1'
_cell_length_a   5.76399548
_cell_length_b   5.76399187
_cell_length_c   15.01194520
_cell_angle_alpha   90.00000000
_cell_angle_beta   90.00000000
_cell_angle_gamma   119.99969400
_symmetry_Int_Tables_number   1
_chemical_formula_structural   Ta5Pb2WS12
_chemical_formula_sum   'Ta5 Pb2 W1 S12'
_cell_volume   431.93254925
_cell_formula_units_Z   1
loop_
 _symmetry_equiv_pos_site_id
 _symmetry_equiv_pos_as_xyz
  1  'x, y, z'
loop_
 _atom_site_type_symbol
 _atom_site_label
 _atom_site_symmetry_multiplicity
 _atom_site_fract_x
 _atom_site_fract_y
 _atom_site_fract_z
 _atom_site_occupancy
  Ta  Ta0  1  0.33311149  0.66643561  0.00000000  1
  Ta  Ta1  1  0.99975533  0.99974328  0.00000000  1
  Ta  Ta2  1  0.00021712  0.00023218  0.50000000  1
  Ta  Ta3  1  0.66685814  0.33353853  0.50000000  1
  Ta  Ta4  1  0.33351230  0.66687115  0.50000000  1
  Pb  Pb0  1  0.00004452  0.00004521  0.25460627  1
  Pb  Pb1  1  0.00004452  0.00004521  0.74539373  1
  W  W0  1  0.66649717  0.33314426  0.00000000  1
  S  S0  1  0.99527405  0.65915589  0.10267772  1
  S  S1  1  0.66368215  0.00430469  0.10266813  1
  S  S2  1  0.34048382  0.33593152  0.10266127  1
  S  S3  1  0.66325844  0.66329768  0.39622779  1
  S  S4  1  0.33708262  0.00017682  0.39622297  1
  S  S5  1  0.00019712  0.33710918  0.39622327  1
  S  S6  1  0.33708262  0.00017682  0.60377703  1
  S  S7  1  0.00019712  0.33710918  0.60377673  1
  S  S8  1  0.66325844  0.66329768  0.60377221  1
  S  S9  1  0.34048382  0.33593152  0.89733873  1
  S  S10  1  0.99527405  0.65915589  0.89732128  1
  S  S11  1  0.66368215  0.00430469  0.89733087  1
loop_
_geom_bond_atom_site_label_1
_geom_bond_atom_site_label_2
_geom_bond_distance
_geom_bond_site_symmetry_2
Pb0 S3 2.878876 1_445
Pb0 S4 2.879616 1_555
Pb0 S5 2.879678 1_555
Pb0 S2 3.000454 1_555
Pb0 S0 3.001547 1_445
Pb0 S1 3.001593 1_455
Pb1 S8 2.878876 1_445
Pb1 S6 2.879616 1_555
Pb1 S7 2.879678 1_555
Pb1 S9 3.000454 1_555
Pb1 S10 3.001535 1_445
Pb1 S11 3.001581 1_455
S0 W0 2.436648 1_555
S0 Ta0 2.467366 1_655
S0 Ta1 2.485916 1_555
S1 W0 2.436720 1_555
S1 Ta0 2.467384 1_545
S1 Ta1 2.485864 1_545
S2 W0 2.436543 1_555
S2 Ta0 2.467184 1_555
S2 Ta1 2.486278 1_445
S3 Ta4 2.465537 1_555
S3 Ta3 2.465654 1_555
S3 Ta2 2.489744 1_665
S4 Ta4 2.465527 1_545
S4 Ta3 2.465750 1_555
S4 Ta2 2.489542 1_555
S5 Ta4 2.465611 1_555
S5 Ta3 2.465673 1_455
S5 Ta2 2.489511 1_555
S6 Ta4 2.465527 1_545
S6 Ta3 2.465750 1_555
S6 Ta2 2.489542 1_555
S7 Ta4 2.465611 1_555
S7 Ta3 2.465673 1_455
S7 Ta2 2.489511 1_555
S8 Ta4 2.465537 1_555
S8 Ta3 2.465654 1_555
S8 Ta2 2.489744 1_665
S9 W0 2.436543 1_556
S9 Ta0 2.467184 1_556
S9 Ta1 2.486278 1_446
S10 W0 2.436658 1_556
S10 Ta0 2.467375 1_656
S10 Ta1 2.485926 1_556
S11 W0 2.436730 1_556
S11 Ta0 2.467393 1_546
S11 Ta1 2.485873 1_546
