# generated using pymatgen
data_Ti6In4CBr18
_symmetry_space_group_name_H-M   'P 1'
_cell_length_a   9.86142203
_cell_length_b   10.24359837
_cell_length_c   10.19972511
_cell_angle_alpha   117.59920211
_cell_angle_beta   99.84955175
_cell_angle_gamma   104.83023667
_symmetry_Int_Tables_number   1
_chemical_formula_structural   Ti6In4CBr18
_chemical_formula_sum   'Ti6 In4 C1 Br18'
_cell_volume   830.70175206
_cell_formula_units_Z   1
loop_
 _symmetry_equiv_pos_site_id
 _symmetry_equiv_pos_as_xyz
  1  'x, y, z'
loop_
 _atom_site_type_symbol
 _atom_site_label
 _atom_site_symmetry_multiplicity
 _atom_site_fract_x
 _atom_site_fract_y
 _atom_site_fract_z
 _atom_site_occupancy
  Ti  Ti0  1  0.35556777  0.44828418  0.78278764  1
  Ti  Ti1  1  0.36728232  0.61695684  0.12569880  1
  Ti  Ti2  1  0.64093509  0.72462970  0.04065746  1
  Ti  Ti3  1  0.64443223  0.55171582  0.21721236  1
  Ti  Ti4  1  0.35906491  0.27537030  0.95934254  1
  Ti  Ti5  1  0.63271768  0.38304316  0.87430120  1
  In  In0  1  0.18574206  0.72533783  0.56245743  1
  In  In1  1  0.84807556  0.96039327  0.76923104  1
  In  In2  1  0.15192444  0.03960673  0.23076896  1
  In  In3  1  0.81425794  0.27466217  0.43754257  1
  C  C0  1  0.50000000  0.50000000  0.00000000  1
  Br  Br0  1  0.81874254  0.42528833  0.10831820  1
  Br  Br1  1  0.51557201  0.69543494  0.39979405  1
  Br  Br2  1  0.17259427  0.98268445  0.90423995  1
  Br  Br3  1  0.18125746  0.57471167  0.89168180  1
  Br  Br4  1  0.82993739  0.82438821  0.30304265  1
  Br  Br5  1  0.50239923  0.30021689  0.20750844  1
  Br  Br6  1  0.79952016  0.23442490  0.71572720  1
  Br  Br7  1  0.17006261  0.17561179  0.69695735  1
  Br  Br8  1  0.50931148  0.89631793  0.18968644  1
  Br  Br9  1  0.81769161  0.62749243  0.90385931  1
  Br  Br10  1  0.20047984  0.76557510  0.28427280  1
  Br  Br11  1  0.16043102  0.37874436  0.49927455  1
  Br  Br12  1  0.49760077  0.69978311  0.79249156  1
  Br  Br13  1  0.82740573  0.01731555  0.09576005  1
  Br  Br14  1  0.48442799  0.30456506  0.60020595  1
  Br  Br15  1  0.18230839  0.37250757  0.09614069  1
  Br  Br16  1  0.83956898  0.62125564  0.50072545  1
  Br  Br17  1  0.49068852  0.10368207  0.81031356  1
loop_
_geom_bond_atom_site_label_1
_geom_bond_atom_site_label_2
_geom_bond_distance
_geom_bond_site_symmetry_2
C0 Ti3 2.159727 1_555
C0 Ti0 2.159727 1_554
C0 Ti2 2.163290 1_555
C0 Ti4 2.163290 1_554
C0 Ti1 2.178429 1_555
C0 Ti5 2.178429 1_554
Br0 Ti3 2.515078 1_555
Br0 Ti5 2.527522 1_554
Br1 Ti3 2.545044 1_555
Br1 Ti1 2.552983 1_555
Br2 Ti4 2.819409 1_565
Br2 In2 3.157140 1_566
Br2 In1 3.164914 1_455
Br2 In0 3.306585 1_555
Br3 Ti0 2.515078 1_555
Br3 Ti1 2.527522 1_556
Br4 Ti2 2.542621 1_555
Br4 Ti3 2.546625 1_555
Br5 Ti4 2.542566 1_554
Br5 Ti3 2.545153 1_555
Br6 Ti5 2.747733 1_555
Br6 In3 3.071796 1_555
Br6 In1 3.228744 1_545
Br7 Ti4 2.542621 1_555
Br7 Ti0 2.546625 1_555
Br8 Ti2 2.540667 1_555
Br8 Ti1 2.545924 1_555
Br9 Ti2 2.531559 1_556
Br9 Ti5 2.542166 1_555
Br10 Ti1 2.747733 1_555
Br10 In0 3.071796 1_555
Br10 In2 3.228744 1_565
Br11 Ti0 2.838757 1_555
Br11 In3 3.156952 1_455
Br11 In0 3.233267 1_555
Br11 In2 3.245418 1_555
Br12 Ti2 2.542566 1_556
Br12 Ti0 2.545153 1_555
Br13 Ti2 2.819409 1_545
Br13 In1 3.157140 1_544
Br13 In2 3.164914 1_655
Br13 In3 3.306585 1_555
Br14 Ti0 2.545044 1_555
Br14 Ti5 2.552983 1_555
Br15 Ti4 2.531559 1_554
Br15 Ti1 2.542166 1_555
Br16 Ti3 2.838757 1_555
Br16 In0 3.156952 1_655
Br16 In3 3.233267 1_555
Br16 In1 3.245418 1_555
Br17 Ti4 2.540667 1_555
Br17 Ti5 2.545924 1_555
