# generated using pymatgen
data_Nb4Tc(NiP)4
_symmetry_space_group_name_H-M   'P 1'
_cell_length_a   7.14488418
_cell_length_b   7.14488422
_cell_length_c   7.14488422
_cell_angle_alpha   93.56270970
_cell_angle_beta   93.56271286
_cell_angle_gamma   151.13008124
_symmetry_Int_Tables_number   1
_chemical_formula_structural   Nb4Tc(NiP)4
_chemical_formula_sum   'Nb4 Tc1 Ni4 P4'
_cell_volume   170.54618872
_cell_formula_units_Z   1
loop_
 _symmetry_equiv_pos_site_id
 _symmetry_equiv_pos_as_xyz
  1  'x, y, z'
loop_
 _atom_site_type_symbol
 _atom_site_label
 _atom_site_symmetry_multiplicity
 _atom_site_fract_x
 _atom_site_fract_y
 _atom_site_fract_z
 _atom_site_occupancy
  Nb  Nb0  1  0.80551434  0.12869347  0.93420781  1
  Nb  Nb1  1  0.12869347  0.19448566  0.32317913  1
  Nb  Nb2  1  0.87130653  0.80551434  0.67682087  1
  Nb  Nb3  1  0.19448566  0.87130653  0.06579219  1
  Tc  Tc0  1  0.50000000  0.50000000  0.00000000  1
  Ni  Ni0  1  0.91422660  0.39123195  0.30545855  1
  Ni  Ni1  1  0.08577340  0.60876805  0.69454145  1
  Ni  Ni2  1  0.60876805  0.91422660  0.52299365  1
  Ni  Ni3  1  0.39123195  0.08577340  0.47700635  1
  P  P0  1  0.55577115  0.24282848  0.79860064  1
  P  P1  1  0.24282848  0.44422885  0.68705633  1
  P  P2  1  0.75717152  0.55577115  0.31294367  1
  P  P3  1  0.44422885  0.75717152  0.20139936  1
loop_
_geom_bond_atom_site_label_1
_geom_bond_atom_site_label_2
_geom_bond_distance
_geom_bond_site_symmetry_2
Nb0 P3 2.568127 1_546
Nb0 P3 2.568129 1_656
Nb0 P1 2.608982 1_545
Nb0 P1 2.608985 1_655
Nb0 P0 2.686951 1_555
Nb0 Ni0 2.780586 1_556
Nb0 Ni1 2.798905 1_545
Nb0 Ni1 2.798905 1_655
Nb0 Ni2 2.847967 1_545
Nb0 Tc0 2.894825 1_656
Nb0 Tc0 2.894825 1_546
Nb1 P2 2.568132 1_555
Nb1 P2 2.568134 1_445
Nb1 P3 2.608980 1_445
Nb1 P3 2.608983 1_555
Nb1 P1 2.686947 1_555
Nb1 Ni3 2.780588 1_555
Nb1 Ni2 2.798900 1_445
Nb1 Ni2 2.798902 1_555
Nb1 Ni0 2.847960 1_455
Nb1 Tc0 2.894824 1_445
Nb1 Tc0 2.894825 1_555
Nb2 P1 2.568132 1_555
Nb2 P1 2.568134 1_665
Nb2 P0 2.608980 1_665
Nb2 P0 2.608983 1_555
Nb2 P2 2.686947 1_555
Nb2 Ni2 2.780588 1_555
Nb2 Ni3 2.798900 1_665
Nb2 Ni3 2.798902 1_555
Nb2 Ni1 2.847960 1_655
Nb2 Tc0 2.894824 1_666
Nb2 Tc0 2.894825 1_556
Nb3 P0 2.568127 1_564
Nb3 P0 2.568129 1_454
Nb3 P2 2.608982 1_565
Nb3 P2 2.608985 1_455
Nb3 P3 2.686951 1_555
Nb3 Ni1 2.780586 1_554
Nb3 Ni0 2.798905 1_565
Nb3 Ni0 2.798905 1_455
Nb3 Ni3 2.847967 1_565
Nb3 Tc0 2.894825 1_455
Nb3 Tc0 2.894825 1_565
Ni0 P2 2.225819 1_555
Ni0 P3 2.231449 1_545
Ni0 P3 2.231452 1_655
Ni1 P1 2.225819 1_555
Ni1 P0 2.231449 1_565
Ni1 P0 2.231452 1_455
Ni2 P3 2.225819 1_555
Ni2 P1 2.231448 1_665
Ni2 P1 2.231448 1_555
Ni3 P0 2.225819 1_555
Ni3 P2 2.231448 1_445
Ni3 P2 2.231448 1_555
P0 Tc0 2.575021 1_556
P1 Tc0 2.575030 1_556
P2 Tc0 2.575030 1_555
P3 Tc0 2.575021 1_555
