# generated using pymatgen
data_Y6B14MoRu
_symmetry_space_group_name_H-M   'P 1'
_cell_length_a   8.12277504
_cell_length_b   8.12277588
_cell_length_c   9.39187290
_cell_angle_alpha   90.00000000
_cell_angle_beta   90.00000000
_cell_angle_gamma   155.06144253
_symmetry_Int_Tables_number   1
_chemical_formula_structural   Y6B14MoRu
_chemical_formula_sum   'Y6 B14 Mo1 Ru1'
_cell_volume   261.28182984
_cell_formula_units_Z   1
loop_
 _symmetry_equiv_pos_site_id
 _symmetry_equiv_pos_as_xyz
  1  'x, y, z'
loop_
 _atom_site_type_symbol
 _atom_site_label
 _atom_site_symmetry_multiplicity
 _atom_site_fract_x
 _atom_site_fract_y
 _atom_site_fract_z
 _atom_site_occupancy
  Y  Y0  1  0.25784669  0.74215331  0.25000000  1
  Y  Y1  1  0.74347653  0.25652347  0.75000000  1
  Y  Y2  1  0.60553274  0.39446726  0.06155470  1
  Y  Y3  1  0.39392783  0.60607217  0.94094275  1
  Y  Y4  1  0.39392783  0.60607217  0.55905725  1
  Y  Y5  1  0.60553274  0.39446726  0.43844530  1
  B  B0  1  0.97874576  0.02125424  0.09735445  1
  B  B1  1  0.01935972  0.98064028  0.90778114  1
  B  B2  1  0.01935972  0.98064028  0.59221886  1
  B  B3  1  0.97874576  0.02125424  0.40264555  1
  B  B4  1  0.77343051  0.22656949  0.03580731  1
  B  B5  1  0.22786171  0.77213829  0.96782441  1
  B  B6  1  0.22786171  0.77213829  0.53217559  1
  B  B7  1  0.77343051  0.22656949  0.46419269  1
  B  B8  1  0.86908964  0.13091036  0.15195798  1
  B  B9  1  0.13407957  0.86592043  0.85265545  1
  B  B10  1  0.13407957  0.86592043  0.64734455  1
  B  B11  1  0.86908964  0.13091036  0.34804202  1
  B  B12  1  0.04087482  0.95912518  0.25000000  1
  B  B13  1  0.95512087  0.04487913  0.75000000  1
  Mo  Mo0  1  0.55317988  0.44682012  0.75000000  1
  Ru  Ru0  1  0.44544028  0.55455972  0.25000000  1
loop_
_geom_bond_atom_site_label_1
_geom_bond_atom_site_label_2
_geom_bond_distance
_geom_bond_site_symmetry_2
B0 B12 1.739691 1_645
B0 B8 1.813427 1_555
B0 B1 1.893418 1_644
B0 Ru0 2.326014 1_545
B0 Ru0 2.326014 1_655
B0 Y3 2.654060 1_544
B0 Y3 2.654061 1_654
B0 Y2 2.689549 1_655
B0 Y2 2.689550 1_545
B1 B13 1.798396 1_465
B1 B9 1.891944 1_555
B1 Mo0 2.357892 1_565
B1 Mo0 2.357892 1_455
B1 Y2 2.651444 1_566
B1 Y2 2.651445 1_456
B1 Y3 2.670512 1_455
B1 Y3 2.670512 1_565
B2 B3 1.893418 1_465
B2 Mo0 2.357892 1_565
B2 Mo0 2.357892 1_455
B2 Y5 2.651444 1_565
B2 Y5 2.651445 1_455
B2 Y4 2.670512 1_455
B2 Y4 2.670512 1_565
B3 Ru0 2.326014 1_545
B3 Ru0 2.326014 1_655
B3 Y4 2.654060 1_545
B3 Y4 2.654061 1_655
B3 Y5 2.689549 1_655
B3 Y5 2.689550 1_545
B4 B8 1.868807 1_555
B4 B5 2.001523 1_544
B4 B5 2.001523 1_654
B4 Y2 2.674209 1_555
B4 Y0 2.680275 1_545
B4 Y0 2.680275 1_655
B4 Y1 2.725994 1_554
B4 Y3 2.742825 1_654
B4 Y3 2.742825 1_544
B5 B9 1.839277 1_555
B5 Y3 2.646270 1_555
B5 Y0 2.692501 1_556
B5 Y1 2.706014 1_565
B5 Y1 2.706014 1_455
B5 Y2 2.759733 1_456
B5 Y2 2.759734 1_566
B6 B7 2.001523 1_565
B6 B7 2.001523 1_455
B6 Y4 2.646270 1_555
B6 Y0 2.692501 1_555
B6 Y1 2.706014 1_565
B6 Y1 2.706014 1_455
B6 Y5 2.759733 1_455
B6 Y5 2.759734 1_565
B7 Y5 2.674209 1_555
B7 Y0 2.680275 1_545
B7 Y0 2.680275 1_655
B7 Y1 2.725994 1_555
B7 Y4 2.742825 1_655
B7 Y4 2.742825 1_545
B8 Ru0 2.321762 1_655
B8 Ru0 2.321763 1_545
B8 Y0 2.652836 1_545
B8 Y0 2.652837 1_655
B8 Y3 2.675597 1_654
B8 Y3 2.675597 1_544
B9 Mo0 2.377444 1_455
B9 Mo0 2.377445 1_565
B9 Y1 2.648911 1_565
B9 Y1 2.648911 1_455
B9 Y2 2.670255 1_456
B9 Y2 2.670255 1_566
B10 B6 1.839277 1_555
B10 B2 1.891944 1_555
B10 B9 1.928254 1_555
B10 Mo0 2.377444 1_455
B10 Mo0 2.377445 1_565
B10 Y1 2.648911 1_565
B10 Y1 2.648911 1_455
B10 Y5 2.670255 1_455
B10 Y5 2.670255 1_565
B11 B3 1.813427 1_555
B11 B8 1.841596 1_555
B11 B7 1.868807 1_555
B11 Ru0 2.321762 1_655
B11 Ru0 2.321763 1_545
B11 Y0 2.652836 1_545
B11 Y0 2.652837 1_655
B11 Y4 2.675597 1_655
B11 Y4 2.675597 1_545
B12 B3 1.739691 1_465
B12 Ru0 2.316805 1_455
B12 Ru0 2.316806 1_565
B12 Y2 2.694483 1_565
B12 Y5 2.694483 1_565
B12 Y2 2.694484 1_455
B12 Y5 2.694484 1_455
B13 B2 1.798396 1_645
B13 Mo0 2.344218 1_655
B13 Mo0 2.344219 1_545
B13 Y3 2.689628 1_545
B13 Y4 2.689628 1_545
B13 Y3 2.689628 1_655
B13 Y4 2.689628 1_655
B13 Y1 3.357176 1_555
