# generated using pymatgen
data_Ti11Nb3P8
_symmetry_space_group_name_H-M   'P 1'
_cell_length_a   7.57811937
_cell_length_b   7.57811978
_cell_length_c   13.59032176
_cell_angle_alpha   75.62299451
_cell_angle_beta   75.62299336
_cell_angle_gamma   26.01029354
_symmetry_Int_Tables_number   1
_chemical_formula_structural   Ti11Nb3P8
_chemical_formula_sum   'Ti11 Nb3 P8'
_cell_volume   330.95866071
_cell_formula_units_Z   1
loop_
 _symmetry_equiv_pos_site_id
 _symmetry_equiv_pos_as_xyz
  1  'x, y, z'
loop_
 _atom_site_type_symbol
 _atom_site_label
 _atom_site_symmetry_multiplicity
 _atom_site_fract_x
 _atom_site_fract_y
 _atom_site_fract_z
 _atom_site_occupancy
  Ti  Ti0  1  0.66111308  0.66111308  0.03272204  1
  Ti  Ti1  1  0.33888692  0.33888692  0.96727796  1
  Ti  Ti2  1  0.99599604  0.99599604  0.66267328  1
  Ti  Ti3  1  0.00400396  0.00400396  0.33732672  1
  Ti  Ti4  1  0.82184669  0.82184669  0.54091420  1
  Ti  Ti5  1  0.17815331  0.17815331  0.45908580  1
  Ti  Ti6  1  0.20553162  0.20553162  0.20536961  1
  Ti  Ti7  1  0.79446838  0.79446838  0.79463039  1
  Ti  Ti8  1  0.19712797  0.19712797  0.69211395  1
  Ti  Ti9  1  0.80287203  0.80287203  0.30788605  1
  Ti  Ti10  1  0.00000000  0.00000000  0.00000000  1
  Nb  Nb0  1  0.42682493  0.42682493  0.16988982  1
  Nb  Nb1  1  0.57317507  0.57317507  0.83011018  1
  Nb  Nb2  1  0.50000000  0.50000000  0.50000000  1
  P  P0  1  0.06300146  0.06300146  0.15099348  1
  P  P1  1  0.93699854  0.93699854  0.84900652  1
  P  P2  1  0.36784024  0.36784024  0.66038552  1
  P  P3  1  0.63215976  0.63215976  0.33961448  1
  P  P4  1  0.37238978  0.37238978  0.39337243  1
  P  P5  1  0.62761022  0.62761022  0.60662757  1
  P  P6  1  0.18166065  0.18166065  0.89183532  1
  P  P7  1  0.81833935  0.81833935  0.10816468  1
loop_
_geom_bond_atom_site_label_1
_geom_bond_atom_site_label_2
_geom_bond_distance
_geom_bond_site_symmetry_2
Nb0 P0 2.599053 1_655
Nb0 P0 2.599053 1_565
Nb0 P7 2.619834 1_455
Nb0 P7 2.619834 1_545
Nb0 P4 2.937076 1_555
Nb1 P1 2.599053 1_455
Nb1 P1 2.599053 1_545
Nb1 P6 2.619834 1_655
Nb1 P6 2.619834 1_565
Nb1 P5 2.937076 1_555
Nb2 P2 2.528217 1_555
Nb2 P3 2.528217 1_555
Nb2 P5 2.653864 1_555
Nb2 P4 2.653864 1_555
P0 Ti6 2.401895 1_555
P0 Ti3 2.459120 1_555
P0 Ti10 2.459585 1_555
P0 Ti0 2.530633 1_545
P0 Ti0 2.530633 1_455
P1 Ti7 2.401895 1_555
P1 Ti2 2.459120 1_555
P1 Ti10 2.459585 1_666
P1 Ti1 2.530633 1_565
P1 Ti1 2.530633 1_655
P2 Ti8 2.446892 1_555
P2 Ti7 2.530477 1_455
P2 Ti7 2.530477 1_545
P2 Ti2 2.553613 1_545
P2 Ti2 2.553614 1_455
P2 Ti4 2.562797 1_455
P2 Ti4 2.562797 1_545
P3 Ti9 2.446892 1_555
P3 Ti6 2.530477 1_655
P3 Ti6 2.530477 1_565
P3 Ti3 2.553613 1_565
P3 Ti3 2.553614 1_655
P3 Ti5 2.562797 1_655
P3 Ti5 2.562797 1_565
P4 Ti9 2.433071 1_455
P4 Ti9 2.433071 1_545
P4 Ti3 2.551770 1_655
P4 Ti3 2.551770 1_565
P4 Ti4 2.592910 1_455
P4 Ti4 2.592910 1_545
P4 Ti5 2.778412 1_555
P5 Ti8 2.433071 1_655
P5 Ti8 2.433071 1_565
P5 Ti2 2.551770 1_455
P5 Ti2 2.551770 1_545
P5 Ti5 2.592910 1_655
P5 Ti5 2.592910 1_565
P5 Ti4 2.778412 1_555
P6 Ti7 2.511369 1_545
P6 Ti7 2.511369 1_455
P6 Ti0 2.523946 1_456
P6 Ti0 2.523946 1_546
P6 Ti8 2.665237 1_555
P6 Ti10 2.710662 1_556
P6 Ti1 2.766848 1_555
P7 Ti6 2.511369 1_565
P7 Ti6 2.511369 1_655
P7 Ti1 2.523946 1_654
P7 Ti1 2.523946 1_564
P7 Ti9 2.665237 1_555
P7 Ti10 2.710662 1_665
P7 Ti0 2.766848 1_555
