# generated using pymatgen
data_Sr5HgPt2
_symmetry_space_group_name_H-M   'P 1'
_cell_length_a   8.20922409
_cell_length_b   8.20917252
_cell_length_c   9.67211626
_cell_angle_alpha   115.10329386
_cell_angle_beta   115.11116793
_cell_angle_gamma   90.00000794
_symmetry_Int_Tables_number   1
_chemical_formula_structural   Sr5HgPt2
_chemical_formula_sum   'Sr10 Hg2 Pt4'
_cell_volume   521.41603873
_cell_formula_units_Z   2
loop_
 _symmetry_equiv_pos_site_id
 _symmetry_equiv_pos_as_xyz
  1  'x, y, z'
loop_
 _atom_site_type_symbol
 _atom_site_label
 _atom_site_symmetry_multiplicity
 _atom_site_fract_x
 _atom_site_fract_y
 _atom_site_fract_z
 _atom_site_occupancy
  Sr  Sr0  1  0.00000000  0.00000000  0.00000000  1
  Sr  Sr1  1  0.50000000  0.50000000  0.00000000  1
  Sr  Sr2  1  0.46409453  0.30312272  0.26720655  1
  Sr  Sr3  1  0.96411039  0.46412006  0.26721900  1
  Sr  Sr4  1  0.30311303  0.80312272  0.26720655  1
  Sr  Sr5  1  0.80310760  0.96411906  0.26721900  1
  Sr  Sr6  1  0.19689240  0.03588094  0.73278100  1
  Sr  Sr7  1  0.69688797  0.19687728  0.73279345  1
  Sr  Sr8  1  0.03588961  0.53588194  0.73278100  1
  Sr  Sr9  1  0.53590747  0.69687828  0.73279345  1
  Hg  Hg0  1  0.25000524  0.25000000  0.50000000  1
  Hg  Hg1  1  0.74999476  0.75000000  0.50000000  1
  Pt  Pt0  1  0.62349486  0.12350022  0.99998990  1
  Pt  Pt1  1  0.12350695  0.37649978  0.00001010  1
  Pt  Pt2  1  0.87649405  0.62349922  0.99998990  1
  Pt  Pt3  1  0.37650414  0.87650078  0.00001010  1
loop_
_geom_bond_atom_site_label_1
_geom_bond_atom_site_label_2
_geom_bond_distance
_geom_bond_site_symmetry_2
Hg0 Sr6 3.541203 1_555
Hg0 Sr3 3.541213 1_455
Hg0 Sr7 3.541268 1_555
Hg0 Sr2 3.541268 1_555
Hg0 Sr8 3.541471 1_555
Hg0 Sr5 3.541473 1_445
Hg0 Sr4 3.541493 1_545
Hg0 Sr9 3.541502 1_555
Hg0 Sr0 3.868592 1_555
Hg0 Sr1 3.868592 1_556
Hg1 Sr8 3.541200 1_655
Hg1 Sr5 3.541203 1_555
Hg1 Sr9 3.541252 1_555
Hg1 Sr4 3.541261 1_555
Hg1 Sr3 3.541464 1_555
Hg1 Sr6 3.541473 1_665
Hg1 Sr2 3.541490 1_555
Hg1 Sr7 3.541490 1_565
Hg1 Sr0 3.868592 1_666
Hg1 Sr1 3.868592 1_555
Pt0 Pt3 2.867621 1_546
Pt0 Sr7 3.169732 1_555
Pt0 Sr3 3.170407 1_556
Pt0 Sr5 3.193945 1_546
Pt0 Sr6 3.194056 1_555
Pt0 Sr2 3.194264 1_556
Pt0 Sr9 3.194441 1_545
Pt0 Sr1 3.252746 1_556
Pt0 Sr0 3.252818 1_656
Pt1 Pt2 2.867633 1_454
Pt1 Sr2 3.169723 1_555
Pt1 Sr6 3.170399 1_554
Pt1 Sr8 3.193951 1_554
Pt1 Sr3 3.194074 1_455
Pt1 Sr7 3.194276 1_454
Pt1 Sr4 3.194444 1_555
Pt1 Sr0 3.252751 1_555
Pt1 Sr1 3.252803 1_555
Pt2 Sr9 3.169727 1_555
Pt2 Sr5 3.170408 1_556
Pt2 Sr3 3.193933 1_556
Pt2 Sr8 3.194071 1_655
Pt2 Sr4 3.194277 1_656
Pt2 Sr7 3.194438 1_555
Pt2 Sr0 3.252756 1_666
Pt2 Sr1 3.252808 1_556
Pt3 Sr4 3.169727 1_555
Pt3 Sr8 3.170398 1_554
Pt3 Sr6 3.193938 1_564
Pt3 Sr5 3.194063 1_555
Pt3 Sr9 3.194283 1_554
Pt3 Sr2 3.194438 1_565
Pt3 Sr1 3.252757 1_555
Pt3 Sr0 3.252808 1_565
