# generated using pymatgen
data_K16TiSnAs8
_symmetry_space_group_name_H-M   'P 1'
_cell_length_a   10.89624472
_cell_length_b   10.89624426
_cell_length_c   10.89624493
_cell_angle_alpha   59.99999794
_cell_angle_beta   59.99999935
_cell_angle_gamma   59.99999986
_symmetry_Int_Tables_number   1
_chemical_formula_structural   K16TiSnAs8
_chemical_formula_sum   'K16 Ti1 Sn1 As8'
_cell_volume   914.77761445
_cell_formula_units_Z   1
loop_
 _symmetry_equiv_pos_site_id
 _symmetry_equiv_pos_as_xyz
  1  'x, y, z'
loop_
 _atom_site_type_symbol
 _atom_site_label
 _atom_site_symmetry_multiplicity
 _atom_site_fract_x
 _atom_site_fract_y
 _atom_site_fract_z
 _atom_site_occupancy
  K  K0  1  0.62477653  0.12566940  0.62477653  1
  K  K1  1  0.62477653  0.62477653  0.12566940  1
  K  K2  1  0.12566940  0.62477653  0.62477653  1
  K  K3  1  0.62477653  0.62477653  0.62477653  1
  K  K4  1  0.02285208  0.02285208  0.47714792  1
  K  K5  1  0.77727437  0.22272563  0.22272563  1
  K  K6  1  0.22272563  0.77727437  0.77727437  1
  K  K7  1  0.77727437  0.77727437  0.22272563  1
  K  K8  1  0.77727437  0.22272563  0.77727437  1
  K  K9  1  0.22272563  0.77727437  0.22272563  1
  K  K10  1  0.47714792  0.02285208  0.47714792  1
  K  K11  1  0.47714792  0.02285208  0.02285208  1
  K  K12  1  0.02285208  0.47714792  0.47714792  1
  K  K13  1  0.02285208  0.47714792  0.02285208  1
  K  K14  1  0.22272563  0.22272563  0.77727437  1
  K  K15  1  0.47714792  0.47714792  0.02285208  1
  Ti  Ti0  1  0.75000000  0.75000000  0.75000000  1
  Sn  Sn0  1  0.50000000  0.50000000  0.50000000  1
  As  As0  1  0.39826316  0.80520852  0.39826316  1
  As  As1  1  0.84592917  0.84592917  0.46221248  1
  As  As2  1  0.46221248  0.84592917  0.84592917  1
  As  As3  1  0.84592917  0.84592917  0.84592917  1
  As  As4  1  0.80520852  0.39826316  0.39826316  1
  As  As5  1  0.39826316  0.39826316  0.39826316  1
  As  As6  1  0.39826316  0.39826316  0.80520852  1
  As  As7  1  0.84592917  0.46221248  0.84592917  1
loop_
_geom_bond_atom_site_label_1
_geom_bond_atom_site_label_2
_geom_bond_distance
_geom_bond_site_symmetry_2
K0 Sn0 3.330324 1_555
K0 Ti0 3.342235 1_545
K1 Sn0 3.330324 1_555
K1 Ti0 3.342235 1_554
K2 Sn0 3.330324 1_555
K2 Ti0 3.342235 1_455
K3 Sn0 3.330316 1_555
K3 Ti0 3.342244 1_555
As0 Sn0 2.715363 1_555
As0 K11 3.452128 1_565
As0 K4 3.452128 1_565
As0 K10 3.452144 1_565
As0 K9 3.497467 1_555
As0 K7 3.497485 1_555
As0 K6 3.497485 1_555
As0 K2 3.526406 1_555
As0 K1 3.526406 1_555
As0 K3 3.526415 1_555
As1 Ti0 2.560373 1_555
As1 K12 3.435568 1_655
As1 K4 3.435568 1_665
As1 K10 3.435568 1_565
As1 K0 3.467148 1_565
As1 K2 3.467148 1_655
As1 K3 3.467157 1_555
As1 K5 3.520317 1_565
As1 K9 3.520318 1_655
As1 K7 3.520318 1_555
As2 Ti0 2.560373 1_555
As2 K15 3.435568 1_556
As2 K10 3.435568 1_565
As2 K11 3.435568 1_566
As2 K0 3.467148 1_565
As2 K1 3.467149 1_556
As2 K3 3.467157 1_555
As2 K14 3.520317 1_565
As2 K6 3.520318 1_555
As2 K9 3.520318 1_556
As3 Ti0 2.560373 1_555
As3 K13 3.435568 1_656
As3 K4 3.435568 1_665
As3 K11 3.435568 1_566
As3 K1 3.467155 1_556
As3 K0 3.467155 1_565
As3 K2 3.467155 1_655
As3 K8 3.520317 1_565
As3 K6 3.520318 1_655
As3 K7 3.520318 1_556
As4 Sn0 2.715363 1_555
As4 K4 3.452128 1_655
As4 K13 3.452128 1_655
As4 K12 3.452144 1_655
As4 K5 3.497467 1_555
As4 K7 3.497485 1_555
As4 K8 3.497485 1_555
As4 K0 3.526406 1_555
As4 K1 3.526406 1_555
As4 K3 3.526415 1_555
As5 Sn0 2.715381 1_555
As5 K10 3.452123 1_555
As5 K12 3.452123 1_555
As5 K15 3.452123 1_555
As5 K9 3.497480 1_555
As5 K14 3.497480 1_555
As5 K5 3.497480 1_555
As5 K1 3.526413 1_555
As5 K0 3.526413 1_555
As5 K2 3.526413 1_555
As6 Sn0 2.715363 1_555
As6 K11 3.452128 1_556
As6 K13 3.452128 1_556
As6 K15 3.452144 1_556
As6 K14 3.497467 1_555
As6 K6 3.497485 1_555
As6 K8 3.497485 1_555
As6 K0 3.526406 1_555
As6 K2 3.526406 1_555
As6 K3 3.526414 1_555
As7 Ti0 2.560373 1_555
As7 K15 3.435568 1_556
As7 K13 3.435568 1_656
As7 K12 3.435568 1_655
As7 K2 3.467148 1_655
As7 K1 3.467149 1_556
As7 K3 3.467157 1_555
As7 K8 3.520317 1_555
As7 K5 3.520317 1_556
As7 K14 3.520318 1_655
