# generated using pymatgen
data_Lu10GaCu3Sb2
_symmetry_space_group_name_H-M   'P 1'
_cell_length_a   8.28769663
_cell_length_b   8.28769777
_cell_length_c   8.32937851
_cell_angle_alpha   124.53715980
_cell_angle_beta   124.53716299
_cell_angle_gamma   81.97623390
_symmetry_Int_Tables_number   1
_chemical_formula_structural   Lu10GaCu3Sb2
_chemical_formula_sum   'Lu10 Ga1 Cu3 Sb2'
_cell_volume   374.02393966
_cell_formula_units_Z   1
loop_
 _symmetry_equiv_pos_site_id
 _symmetry_equiv_pos_as_xyz
  1  'x, y, z'
loop_
 _atom_site_type_symbol
 _atom_site_label
 _atom_site_symmetry_multiplicity
 _atom_site_fract_x
 _atom_site_fract_y
 _atom_site_fract_z
 _atom_site_occupancy
  Lu  Lu0  1  0.99850413  0.00093235  0.99943648  1
  Lu  Lu1  1  0.50093235  0.49850413  0.99943648  1
  Lu  Lu2  1  0.79422899  0.29422899  0.80977482  1
  Lu  Lu3  1  0.21144334  0.71144334  0.20536353  1
  Lu  Lu4  1  0.49392219  0.99392219  0.20536353  1
  Lu  Lu5  1  0.29454993  0.47734581  0.49272449  1
  Lu  Lu6  1  0.01537969  0.19817457  0.49272449  1
  Lu  Lu7  1  0.51554483  0.01554483  0.80977482  1
  Lu  Lu8  1  0.69817457  0.51537969  0.49272449  1
  Lu  Lu9  1  0.97734581  0.79454993  0.49272449  1
  Ga  Ga0  1  0.13771648  0.63771648  0.77543197  1
  Cu  Cu0  1  0.86659373  0.36659373  0.23318746  1
  Cu  Cu1  1  0.63105897  0.86911646  0.50017543  1
  Cu  Cu2  1  0.36911646  0.13105897  0.50017543  1
  Sb  Sb0  1  0.24774527  0.24774527  0.99549153  1
  Sb  Sb1  1  0.74774527  0.74774527  0.99549153  1
loop_
_geom_bond_atom_site_label_1
_geom_bond_atom_site_label_2
_geom_bond_distance
_geom_bond_site_symmetry_2
Lu0 Sb0 3.128063 1_655
Lu0 Sb1 3.128075 1_545
Lu1 Sb1 3.128063 1_555
Lu1 Sb0 3.128075 1_555
Lu2 Sb0 3.216724 1_655
Lu2 Sb1 3.216724 1_555
Lu3 Sb1 3.251333 1_454
Lu3 Sb0 3.251334 1_554
Lu4 Sb1 3.251318 1_554
Lu4 Sb0 3.251318 1_564
Lu5 Sb0 3.220696 1_554
Lu5 Sb1 3.246573 1_555
Lu6 Sb1 3.220702 1_444
Lu6 Sb0 3.246580 1_555
Lu7 Sb0 3.216724 1_555
Lu7 Sb1 3.216724 1_545
Lu8 Sb0 3.220702 1_554
Lu8 Sb1 3.246580 1_555
Lu9 Sb1 3.220696 1_554
Lu9 Sb0 3.246574 1_665
Ga0 Lu5 2.905235 1_555
Ga0 Lu9 2.905235 1_455
Ga0 Lu8 2.905242 1_455
Ga0 Lu6 2.905242 1_555
Ga0 Lu3 2.951746 1_556
Ga0 Lu4 2.951753 1_556
Ga0 Lu1 2.996116 1_555
Ga0 Lu0 2.996116 1_465
Cu0 Lu8 2.839093 1_555
Cu0 Lu6 2.839093 1_655
Cu0 Lu5 2.839094 1_655
Cu0 Lu9 2.839094 1_555
Cu0 Lu2 2.908820 1_554
Cu0 Lu7 2.908827 1_554
Cu0 Ga0 2.981943 1_655
Cu0 Lu1 2.994684 1_554
Cu0 Lu0 2.994684 1_554
Cu1 Lu3 2.789044 1_555
Cu1 Lu4 2.789061 1_555
Cu1 Lu2 2.822366 1_565
Cu1 Lu7 2.822373 1_565
Cu1 Lu8 2.878455 1_555
Cu1 Lu9 2.878462 1_555
Cu1 Lu0 3.029644 1_565
Cu1 Lu1 3.048239 1_554
Cu2 Lu3 2.789045 1_545
Cu2 Lu4 2.789061 1_545
Cu2 Lu2 2.822365 1_555
Cu2 Lu7 2.822373 1_555
Cu2 Lu6 2.878454 1_555
Cu2 Lu5 2.878463 1_555
Cu2 Lu1 3.029644 1_555
Cu2 Lu0 3.048239 1_454
