# generated using pymatgen
data_Pr2CdSe4
_symmetry_space_group_name_H-M   'P 1'
_cell_length_a   7.81400464
_cell_length_b   7.81400464
_cell_length_c   7.81400464
_cell_angle_alpha   110.87031612
_cell_angle_beta   110.87031612
_cell_angle_gamma   106.70787024
_symmetry_Int_Tables_number   1
_chemical_formula_structural   Pr2CdSe4
_chemical_formula_sum   'Pr4 Cd2 Se8'
_cell_volume   366.64469951
_cell_formula_units_Z   2
loop_
 _symmetry_equiv_pos_site_id
 _symmetry_equiv_pos_as_xyz
  1  'x, y, z'
loop_
 _atom_site_type_symbol
 _atom_site_label
 _atom_site_symmetry_multiplicity
 _atom_site_fract_x
 _atom_site_fract_y
 _atom_site_fract_z
 _atom_site_occupancy
  Pr  Pr0  1  0.74088900  0.12500000  0.11588900  1
  Pr  Pr1  1  0.37500000  0.25911100  0.38411100  1
  Pr  Pr2  1  0.00911100  0.62500000  0.88411100  1
  Pr  Pr3  1  0.87500000  0.99088900  0.61588900  1
  Cd  Cd0  1  0.50000000  0.50000000  0.00000000  1
  Cd  Cd1  1  0.25000000  0.75000000  0.50000000  1
  Se  Se0  1  0.25925200  0.99567400  0.87583600  1
  Se  Se1  1  0.49074800  0.86658400  0.23642200  1
  Se  Se2  1  0.61658400  0.74074800  0.73642200  1
  Se  Se3  1  0.13341600  0.36983800  0.62416400  1
  Se  Se4  1  0.63016200  0.25432600  0.76357800  1
  Se  Se5  1  0.00432600  0.88016200  0.26357800  1
  Se  Se6  1  0.11983800  0.38341600  0.12416400  1
  Se  Se7  1  0.74567400  0.50925200  0.37583600  1
loop_
_geom_bond_atom_site_label_1
_geom_bond_atom_site_label_2
_geom_bond_distance
_geom_bond_site_symmetry_2
Pr0 Se2 2.945916 1_544
Pr0 Se7 2.945916 1_555
Pr0 Se6 3.030238 1_655
Pr0 Se1 3.030238 1_545
Pr0 Se4 3.183775 1_554
Pr0 Se0 3.183775 1_544
Pr0 Se3 3.372589 1_655
Pr0 Se5 3.372589 1_645
Pr1 Se4 2.945916 1_555
Pr1 Se6 2.945916 1_555
Pr1 Se7 3.030238 1_555
Pr1 Se5 3.030238 1_545
Pr1 Se3 3.183775 1_555
Pr1 Se2 3.183775 1_555
Pr1 Se0 3.372589 1_544
Pr1 Se1 3.372589 1_545
Pr2 Se5 2.945916 1_556
Pr2 Se3 2.945916 1_555
Pr2 Se0 3.030238 1_555
Pr2 Se4 3.030238 1_455
Pr2 Se1 3.183775 1_556
Pr2 Se6 3.183775 1_556
Pr2 Se7 3.372589 1_455
Pr2 Se2 3.372589 1_455
Pr3 Se0 2.945916 1_655
Pr3 Se1 2.945916 1_555
Pr3 Se2 3.030238 1_555
Pr3 Se3 3.030238 1_665
Pr3 Se5 3.183775 1_655
Pr3 Se7 3.183775 1_555
Pr3 Se6 3.372589 1_666
Pr3 Se4 3.372589 1_565
Cd0 Se1 2.840275 1_555
Cd0 Se4 2.840275 1_554
Cd0 Se7 2.840275 1_555
Cd0 Se3 2.840275 1_554
Cd1 Se0 2.840275 1_555
Cd1 Se6 2.840275 1_555
Cd1 Se5 2.840275 1_555
Cd1 Se2 2.840275 1_555
