# generated using pymatgen
data_Ba2HfZr3H14
_symmetry_space_group_name_H-M   'P 1'
_cell_length_a   6.87038314
_cell_length_b   6.87038360
_cell_length_c   6.87038240
_cell_angle_alpha   60.23014072
_cell_angle_beta   60.23013875
_cell_angle_gamma   60.23014063
_symmetry_Int_Tables_number   1
_chemical_formula_structural   Ba2HfZr3H14
_chemical_formula_sum   'Ba2 Hf1 Zr3 H14'
_cell_volume   230.50733707
_cell_formula_units_Z   1
loop_
 _symmetry_equiv_pos_site_id
 _symmetry_equiv_pos_as_xyz
  1  'x, y, z'
loop_
 _atom_site_type_symbol
 _atom_site_label
 _atom_site_symmetry_multiplicity
 _atom_site_fract_x
 _atom_site_fract_y
 _atom_site_fract_z
 _atom_site_occupancy
  Ba  Ba0  1  0.25052275  0.25052275  0.25052275  1
  Ba  Ba1  1  0.99947725  0.99947725  0.99947725  1
  Hf  Hf0  1  0.62500000  0.62500000  0.62500000  1
  Zr  Zr0  1  0.62500000  0.62500000  0.12500000  1
  Zr  Zr1  1  0.62500000  0.12500000  0.62500000  1
  Zr  Zr2  1  0.12500000  0.62500000  0.62500000  1
  H  H0  1  0.73185713  0.27239655  0.73185713  1
  H  H1  1  0.98422729  0.51721835  0.98422729  1
  H  H2  1  0.73185713  0.73185713  0.27239655  1
  H  H3  1  0.27239655  0.73185713  0.73185713  1
  H  H4  1  0.73278165  0.26577271  0.26577271  1
  H  H5  1  0.26577271  0.26577271  0.73278165  1
  H  H6  1  0.50086648  0.50086648  0.50086648  1
  H  H7  1  0.74913352  0.74913352  0.74913352  1
  H  H8  1  0.26577271  0.73278165  0.26577271  1
  H  H9  1  0.51721835  0.98422729  0.98422729  1
  H  H10  1  0.97760345  0.51814287  0.51814287  1
  H  H11  1  0.51814287  0.97760345  0.51814287  1
  H  H12  1  0.98422729  0.98422729  0.51721835  1
  H  H13  1  0.51814287  0.51814287  0.97760345  1
loop_
_geom_bond_atom_site_label_1
_geom_bond_atom_site_label_2
_geom_bond_distance
_geom_bond_site_symmetry_2
Ba0 H1 2.591893 1_454
Ba0 H9 2.591893 1_544
Ba0 H12 2.591894 1_445
Ba0 H11 2.605205 1_545
Ba0 H10 2.605205 1_455
Ba0 H13 2.605205 1_554
Ba1 H8 2.591893 1_656
Ba1 H4 2.591893 1_566
Ba1 H5 2.591894 1_665
Ba1 H0 2.605205 1_565
Ba1 H3 2.605205 1_655
Ba1 H2 2.605205 1_556
H0 Hf0 1.987353 1_555
H0 Zr1 2.028601 1_555
H1 Zr2 2.025068 1_655
H1 Zr0 2.025068 1_556
H2 Hf0 1.987352 1_555
H2 Zr0 2.028601 1_555
H3 Hf0 1.987352 1_555
H3 Zr2 2.028601 1_555
H4 Zr1 2.025068 1_555
H4 Zr0 2.025068 1_555
H5 Zr1 2.025068 1_555
H5 Zr2 2.025068 1_555
H6 Hf0 2.085394 1_555
H6 Zr0 2.114587 1_555
H6 Zr2 2.114587 1_555
H6 Zr1 2.114587 1_555
H7 Hf0 2.085394 1_555
H7 Zr0 2.114587 1_556
H7 Zr2 2.114587 1_655
H7 Zr1 2.114587 1_565
H8 Zr2 2.025068 1_555
H8 Zr0 2.025068 1_555
H9 Zr1 2.025068 1_565
H9 Zr0 2.025068 1_556
H10 Hf0 1.987352 1_555
H10 Zr2 2.028601 1_655
H11 Hf0 1.987353 1_555
H11 Zr1 2.028601 1_565
H12 Zr1 2.025068 1_565
H12 Zr2 2.025068 1_655
H13 Hf0 1.987352 1_555
H13 Zr0 2.028601 1_556
