# generated using pymatgen
data_Ta4SiB2W
_symmetry_space_group_name_H-M   'P 1'
_cell_length_a   7.22560955
_cell_length_b   7.22560993
_cell_length_c   7.22561462
_cell_angle_alpha   129.53321268
_cell_angle_beta   129.53321190
_cell_angle_gamma   74.15424096
_symmetry_Int_Tables_number   1
_chemical_formula_structural   Ta4SiB2W
_chemical_formula_sum   'Ta8 Si2 B4 W2'
_cell_volume   218.79397778
_cell_formula_units_Z   2
loop_
 _symmetry_equiv_pos_site_id
 _symmetry_equiv_pos_as_xyz
  1  'x, y, z'
loop_
 _atom_site_type_symbol
 _atom_site_label
 _atom_site_symmetry_multiplicity
 _atom_site_fract_x
 _atom_site_fract_y
 _atom_site_fract_z
 _atom_site_occupancy
  Ta  Ta0  1  0.80701907  0.97190434  0.50000100  1
  Ta  Ta1  1  0.30701807  0.80701807  0.83511474  1
  Ta  Ta2  1  0.19298093  0.02809566  0.49999900  1
  Ta  Ta3  1  0.52809566  0.69298093  0.49999900  1
  Ta  Ta4  1  0.02809666  0.52809666  0.83511474  1
  Ta  Ta5  1  0.69298193  0.19298193  0.16488526  1
  Ta  Ta6  1  0.97190334  0.47190334  0.16488526  1
  Ta  Ta7  1  0.47190434  0.30701907  0.50000100  1
  Si  Si0  1  0.75000000  0.75000000  0.00000000  1
  Si  Si1  1  0.25000000  0.25000000  0.00000000  1
  B  B0  1  0.38112025  0.88112025  0.26224049  1
  B  B1  1  0.88112025  0.61887975  0.50000000  1
  B  B2  1  0.61887975  0.11887975  0.73775951  1
  B  B3  1  0.11887975  0.38112025  0.50000000  1
  W  W0  1  0.00000000  0.00000000  0.00000000  1
  W  W1  1  0.50000000  0.50000000  0.00000000  1
loop_
_geom_bond_atom_site_label_1
_geom_bond_atom_site_label_2
_geom_bond_distance
_geom_bond_site_symmetry_2
Ta0 W1 2.800988 1_555
Ta0 W0 2.800989 1_666
Ta1 W0 2.800990 1_566
Ta1 W1 2.800990 1_556
Ta2 W1 2.800988 1_556
Ta2 W0 2.800989 1_555
Ta3 W0 2.800988 1_666
Ta3 W1 2.800989 1_555
Ta4 W1 2.800988 1_556
Ta4 W0 2.800988 1_566
Ta5 W0 2.800990 1_655
Ta5 W1 2.800990 1_555
Ta6 W1 2.800988 1_555
Ta6 W0 2.800988 1_655
Ta7 W0 2.800988 1_555
Ta7 W1 2.800989 1_556
Si0 Ta2 2.623802 1_665
Si0 Ta7 2.623802 1_554
Si0 Ta1 2.623814 1_554
Si0 Ta5 2.623814 1_565
Si0 Ta0 2.623816 1_555
Si0 Ta3 2.623816 1_554
Si0 Ta4 2.623816 1_654
Si0 Ta6 2.623816 1_555
Si0 W0 2.882385 1_665
Si0 W1 2.882385 1_555
Si1 Ta0 2.623802 1_444
Si1 Ta3 2.623802 1_555
Si1 Ta5 2.623814 1_555
Si1 Ta1 2.623814 1_544
Si1 Ta2 2.623816 1_554
Si1 Ta7 2.623816 1_555
Si1 Ta6 2.623816 1_455
Si1 Ta4 2.623816 1_554
Si1 W0 2.882385 1_555
Si1 W1 2.882385 1_555
B0 B2 2.071472 1_565
B0 Ta0 2.406097 1_555
B0 Ta7 2.406097 1_565
B0 Ta2 2.406098 1_565
B0 Ta3 2.406098 1_555
B0 Ta4 2.459153 1_554
B0 Ta1 2.459161 1_554
B0 W0 2.459522 1_565
B0 W1 2.459522 1_555
B1 B3 2.071477 1_655
B1 Ta1 2.406089 1_655
B1 Ta5 2.406090 1_555
B1 Ta6 2.406096 1_555
B1 Ta4 2.406096 1_655
B1 Ta3 2.459164 1_555
B1 Ta0 2.459164 1_555
B1 W1 2.459519 1_555
B1 W0 2.459519 1_666
B2 Ta2 2.406097 1_555
B2 Ta3 2.406097 1_545
B2 Ta0 2.406098 1_545
B2 Ta7 2.406098 1_555
B2 Ta6 2.459153 1_556
B2 Ta5 2.459161 1_556
B2 W0 2.459522 1_656
B2 W1 2.459522 1_556
B3 Ta5 2.406089 1_455
B3 Ta1 2.406090 1_555
B3 Ta4 2.406096 1_555
B3 Ta6 2.406096 1_455
B3 Ta7 2.459164 1_555
B3 Ta2 2.459164 1_555
B3 W1 2.459519 1_556
B3 W0 2.459519 1_555
