# generated using pymatgen
data_Hf3TiMnRe
_symmetry_space_group_name_H-M   'P 1'
_cell_length_a   8.51721982
_cell_length_b   8.51721981
_cell_length_c   8.51722028
_cell_angle_alpha   60.00000210
_cell_angle_beta   60.00000213
_cell_angle_gamma   60.00000366
_symmetry_Int_Tables_number   1
_chemical_formula_structural   Hf3TiMnRe
_chemical_formula_sum   'Hf12 Ti4 Mn4 Re4'
_cell_volume   436.89655442
_cell_formula_units_Z   4
loop_
 _symmetry_equiv_pos_site_id
 _symmetry_equiv_pos_as_xyz
  1  'x, y, z'
loop_
 _atom_site_type_symbol
 _atom_site_label
 _atom_site_symmetry_multiplicity
 _atom_site_fract_x
 _atom_site_fract_y
 _atom_site_fract_z
 _atom_site_occupancy
  Hf  Hf0  1  0.43062119  0.81937881  0.81937881  1
  Hf  Hf1  1  0.81937881  0.43062119  0.43062119  1
  Hf  Hf2  1  0.81937881  0.43062119  0.81937881  1
  Hf  Hf3  1  0.43062119  0.81937881  0.43062119  1
  Hf  Hf4  1  0.81937881  0.81937881  0.43062119  1
  Hf  Hf5  1  0.43062119  0.43062119  0.81937881  1
  Hf  Hf6  1  0.56600443  0.18399557  0.18399557  1
  Hf  Hf7  1  0.18399557  0.56600443  0.56600443  1
  Hf  Hf8  1  0.18399557  0.56600443  0.18399557  1
  Hf  Hf9  1  0.56600443  0.18399557  0.56600443  1
  Hf  Hf10  1  0.18399557  0.18399557  0.56600443  1
  Hf  Hf11  1  0.56600443  0.56600443  0.18399557  1
  Ti  Ti0  1  0.99617619  0.99617619  0.51147144  1
  Ti  Ti1  1  0.99617619  0.51147144  0.99617619  1
  Ti  Ti2  1  0.51147144  0.99617619  0.99617619  1
  Ti  Ti3  1  0.99617619  0.99617619  0.99617619  1
  Mn  Mn0  1  0.79139656  0.79139656  0.12581133  1
  Mn  Mn1  1  0.79139656  0.12581133  0.79139656  1
  Mn  Mn2  1  0.12581133  0.79139656  0.79139656  1
  Mn  Mn3  1  0.79139656  0.79139656  0.79139656  1
  Re  Re0  1  0.20968980  0.20968980  0.87092859  1
  Re  Re1  1  0.20968980  0.87092859  0.20968980  1
  Re  Re2  1  0.87092859  0.20968980  0.20968980  1
  Re  Re3  1  0.20968980  0.20968980  0.20968980  1
loop_
_geom_bond_atom_site_label_1
_geom_bond_atom_site_label_2
_geom_bond_distance
_geom_bond_site_symmetry_2
Hf0 Mn2 2.854433 1_555
Hf0 Mn3 2.854441 1_555
Hf0 Re0 3.027033 1_565
Hf0 Re1 3.027033 1_556
Hf0 Ti2 3.057871 1_555
Hf0 Ti3 3.057871 1_455
Hf0 Hf9 3.165707 1_565
Hf0 Hf8 3.165707 1_556
Hf0 Hf10 3.165708 1_565
Hf0 Hf11 3.165708 1_556
Hf0 Hf5 3.311134 1_555
Hf0 Hf3 3.311134 1_555
Hf0 Hf2 3.311134 1_555
Hf0 Hf4 3.311134 1_555
Hf1 Mn0 2.854438 1_555
Hf1 Mn1 2.854438 1_555
Hf1 Re3 3.027040 1_655
Hf1 Re2 3.027048 1_555
Hf1 Ti0 3.057871 1_545
Hf1 Ti1 3.057871 1_554
Hf1 Hf9 3.165707 1_555
Hf1 Hf8 3.165707 1_655
Hf1 Hf11 3.165707 1_555
Hf1 Hf10 3.165707 1_655
Hf1 Hf4 3.311134 1_555
Hf1 Hf2 3.311134 1_555
Hf1 Hf3 3.311134 1_555
Hf1 Hf5 3.311134 1_555
Hf2 Mn1 2.854433 1_555
Hf2 Mn3 2.854441 1_555
Hf2 Re0 3.027033 1_655
Hf2 Re2 3.027033 1_556
Hf2 Ti1 3.057871 1_555
Hf2 Ti3 3.057871 1_545
Hf2 Hf7 3.165707 1_655
Hf2 Hf6 3.165707 1_556
Hf2 Hf5 3.311134 1_555
Hf2 Hf4 3.311134 1_555
Hf3 Mn0 2.854438 1_555
Hf3 Mn2 2.854438 1_555
Hf3 Re3 3.027040 1_565
Hf3 Re1 3.027048 1_555
Hf3 Ti0 3.057871 1_455
Hf3 Ti2 3.057871 1_554
Hf3 Hf7 3.165707 1_555
Hf3 Hf6 3.165707 1_565
Hf3 Hf4 3.311134 1_555
Hf3 Hf5 3.311134 1_555
Hf4 Mn0 2.854433 1_555
Hf4 Mn3 2.854442 1_555
Hf4 Re2 3.027033 1_565
Hf4 Re1 3.027033 1_655
Hf4 Ti0 3.057871 1_555
Hf4 Ti3 3.057871 1_554
Hf4 Hf9 3.165707 1_565
Hf4 Hf7 3.165707 1_655
Hf4 Hf6 3.165708 1_565
Hf4 Hf8 3.165708 1_655
Hf5 Mn2 2.854438 1_555
Hf5 Mn1 2.854438 1_555
Hf5 Re3 3.027040 1_556
Hf5 Re0 3.027048 1_555
Hf5 Ti2 3.057871 1_545
Hf5 Ti1 3.057871 1_455
Hf5 Hf9 3.165707 1_555
Hf5 Hf7 3.165707 1_555
Hf5 Hf6 3.165708 1_556
Hf5 Hf8 3.165708 1_556
Hf6 Re2 2.832906 1_555
Hf6 Re3 2.832923 1_555
Hf6 Ti2 3.062493 1_544
Hf6 Ti3 3.062493 1_544
Hf6 Mn0 3.065739 1_545
Hf6 Mn1 3.065739 1_554
Hf7 Re0 2.832916 1_555
Hf7 Re1 2.832916 1_555
Hf7 Ti0 3.062493 1_455
Hf7 Ti1 3.062493 1_455
Hf7 Mn3 3.065742 1_455
Hf7 Mn2 3.065746 1_555
Hf8 Re1 2.832906 1_555
Hf8 Re3 2.832923 1_555
Hf8 Ti1 3.062493 1_454
Hf8 Ti3 3.062493 1_454
Hf8 Mn0 3.065739 1_455
Hf8 Mn2 3.065739 1_554
Hf9 Re0 2.832916 1_555
Hf9 Re2 2.832916 1_555
Hf9 Ti0 3.062493 1_545
Hf9 Ti2 3.062493 1_545
Hf9 Mn3 3.065742 1_545
Hf9 Mn1 3.065746 1_555
Hf10 Re0 2.832906 1_555
Hf10 Re3 2.832923 1_555
Hf10 Ti0 3.062493 1_445
Hf10 Ti3 3.062493 1_445
Hf10 Mn2 3.065739 1_545
Hf10 Mn1 3.065739 1_455
Hf10 Hf3 3.165707 1_545
Hf10 Hf2 3.165708 1_455
Hf11 Re2 2.832916 1_555
Hf11 Re1 2.832916 1_555
Hf11 Ti2 3.062493 1_554
Hf11 Ti1 3.062493 1_554
Hf11 Mn3 3.065742 1_554
Hf11 Mn0 3.065746 1_555
Hf11 Hf3 3.165707 1_555
Hf11 Hf2 3.165708 1_554
Mn0 Ti3 2.548287 1_554
Mn0 Ti1 2.548294 1_554
Mn0 Ti2 2.548294 1_554
Mn0 Mn3 2.848284 1_554
Mn0 Mn1 2.848284 1_564
Mn0 Mn2 2.848284 1_654
Mn1 Ti3 2.548287 1_545
Mn1 Ti2 2.548294 1_545
Mn1 Ti0 2.548294 1_545
Mn1 Mn3 2.848284 1_545
Mn1 Mn2 2.848284 1_645
Mn2 Ti3 2.548287 1_455
Mn2 Ti1 2.548294 1_455
Mn2 Ti0 2.548294 1_455
Mn2 Mn3 2.848284 1_455
Mn3 Ti0 2.548290 1_555
Mn3 Ti1 2.548290 1_555
Mn3 Ti2 2.548290 1_555
Re0 Ti3 2.679434 1_445
Re0 Ti1 2.679448 1_455
Re0 Ti2 2.679448 1_545
Re0 Re3 2.885304 1_556
Re0 Re1 2.885304 1_546
Re0 Re2 2.885304 1_456
Re1 Ti3 2.679434 1_454
Re1 Ti2 2.679448 1_554
Re1 Ti0 2.679448 1_455
Re1 Re3 2.885304 1_565
Re1 Re2 2.885304 1_465
Re2 Ti3 2.679434 1_544
Re2 Ti1 2.679448 1_554
Re2 Ti0 2.679448 1_545
Re2 Re3 2.885304 1_655
Re3 Ti0 2.679439 1_445
Re3 Ti1 2.679439 1_454
Re3 Ti2 2.679439 1_544
