# generated using pymatgen
data_Sr6Ag16N
_symmetry_space_group_name_H-M   'P 1'
_cell_length_a   8.70094280
_cell_length_b   8.70094190
_cell_length_c   8.70094207
_cell_angle_alpha   109.47122328
_cell_angle_beta   109.47122119
_cell_angle_gamma   109.47121899
_symmetry_Int_Tables_number   1
_chemical_formula_structural   Sr6Ag16N
_chemical_formula_sum   'Sr6 Ag16 N1'
_cell_volume   507.08055916
_cell_formula_units_Z   1
loop_
 _symmetry_equiv_pos_site_id
 _symmetry_equiv_pos_as_xyz
  1  'x, y, z'
loop_
 _atom_site_type_symbol
 _atom_site_label
 _atom_site_symmetry_multiplicity
 _atom_site_fract_x
 _atom_site_fract_y
 _atom_site_fract_z
 _atom_site_occupancy
  Sr  Sr0  1  0.00000000  0.26324111  0.26324111  1
  Sr  Sr1  1  0.26324111  0.00000000  0.26324111  1
  Sr  Sr2  1  0.73675889  0.00000000  0.73675889  1
  Sr  Sr3  1  0.73675889  0.73675889  0.00000000  1
  Sr  Sr4  1  0.26324111  0.26324111  0.00000000  1
  Sr  Sr5  1  0.00000000  0.73675889  0.73675889  1
  Ag  Ag0  1  0.50000000  0.50000000  0.50000000  1
  Ag  Ag1  1  0.50000000  0.00000000  0.00000000  1
  Ag  Ag2  1  0.00000000  0.50000000  0.00000000  1
  Ag  Ag3  1  0.00000000  0.00000000  0.50000000  1
  Ag  Ag4  1  0.67909003  0.33954501  0.33954501  1
  Ag  Ag5  1  0.33954501  0.00000000  0.66045499  1
  Ag  Ag6  1  0.33954501  0.67909003  0.33954501  1
  Ag  Ag7  1  0.33954501  0.33954501  0.67909003  1
  Ag  Ag8  1  0.33954501  0.66045499  0.00000000  1
  Ag  Ag9  1  0.00000000  0.33954501  0.66045499  1
  Ag  Ag10  1  0.00000000  0.66045499  0.33954501  1
  Ag  Ag11  1  0.66045499  0.66045499  0.32090997  1
  Ag  Ag12  1  0.66045499  1.00000000  0.33954501  1
  Ag  Ag13  1  0.66045499  0.33954501  1.00000000  1
  Ag  Ag14  1  0.66045499  0.32090997  0.66045499  1
  Ag  Ag15  1  0.32090997  0.66045499  0.66045499  1
  N  N0  1  0.00000000  0.00000000  0.00000000  1
loop_
_geom_bond_atom_site_label_1
_geom_bond_atom_site_label_2
_geom_bond_distance
_geom_bond_site_symmetry_2
Ag0 Ag14 2.815605 1_555
Ag0 Ag6 2.815605 1_555
Ag0 Ag15 2.815605 1_555
Ag0 Ag4 2.815605 1_555
Ag0 Ag11 2.815605 1_555
Ag0 Ag7 2.815605 1_555
Ag0 Sr1 3.554635 1_555
Ag0 Sr2 3.554635 1_565
Ag0 Sr4 3.554635 1_555
Ag0 Sr3 3.554635 1_556
Ag0 Sr0 3.554635 1_555
Ag0 Sr5 3.554635 1_655
Ag1 Ag4 2.815605 1_555
Ag1 Ag15 2.815605 1_544
Ag1 Ag12 2.815605 1_545
Ag1 Ag5 2.815605 1_554
Ag1 Ag13 2.815605 1_554
Ag1 Ag8 2.815605 1_545
Ag1 Sr3 3.554635 1_545
Ag1 Sr4 3.554635 1_555
Ag1 Sr1 3.554635 1_555
Ag1 Sr2 3.554635 1_554
Ag1 Sr0 3.554635 1_655
Ag1 Sr5 3.554635 1_544
Ag2 Ag9 2.815605 1_554
Ag2 Ag6 2.815605 1_555
Ag2 Ag8 2.815605 1_555
Ag2 Sr2 3.554635 1_454
Ag2 Sr1 3.554635 1_565
Ag2 Sr0 3.554635 1_555
Ag2 Sr5 3.554635 1_554
Ag2 Sr3 3.554635 1_455
Ag2 Sr4 3.554635 1_555
Ag3 Ag9 2.815605 1_555
Ag3 Ag7 2.815605 1_555
Ag3 Ag5 2.815605 1_555
Ag3 Sr4 3.554635 1_556
Ag3 Sr3 3.554635 1_445
Ag3 Sr0 3.554635 1_555
Ag3 Sr5 3.554635 1_545
Ag3 Sr1 3.554635 1_555
Ag3 Sr2 3.554635 1_455
Ag4 Ag9 3.224177 1_655
Ag4 Sr5 3.294834 1_655
Ag4 Sr0 3.294834 1_655
Ag4 Sr4 3.496481 1_555
Ag4 Sr1 3.496482 1_555
Ag5 Ag7 2.904340 1_555
Ag5 Ag6 3.224177 1_545
Ag5 Sr1 3.294834 1_555
Ag5 Sr2 3.294834 1_555
Ag5 Sr4 3.496481 1_556
Ag5 Sr5 3.496482 1_545
Ag6 Ag8 2.904340 1_555
Ag6 Sr1 3.294834 1_565
Ag6 Sr2 3.294834 1_565
Ag6 Sr4 3.496481 1_555
Ag6 Sr0 3.496481 1_555
Ag7 Ag9 2.904340 1_555
Ag7 Ag8 3.224177 1_556
Ag7 Sr3 3.294834 1_556
Ag7 Sr4 3.294834 1_556
Ag7 Sr1 3.496481 1_555
Ag7 Sr0 3.496481 1_555
Ag8 Ag9 2.904340 1_554
Ag8 Sr4 3.294834 1_555
Ag8 Sr3 3.294834 1_555
Ag8 Sr1 3.496481 1_565
Ag8 Sr5 3.496481 1_554
Ag9 Sr5 3.294834 1_555
Ag9 Sr0 3.294834 1_555
Ag9 Sr4 3.496481 1_556
Ag9 Sr2 3.496481 1_455
Ag10 Ag3 2.815605 1_565
Ag10 Ag2 2.815605 1_555
Ag10 Ag13 2.904340 1_454
Ag10 Ag5 2.904340 1_565
Ag10 Ag11 2.904340 1_455
Ag10 Ag6 2.904340 1_555
Ag10 Ag15 3.224177 1_555
Ag10 Ag4 3.224177 1_455
Ag10 Sr0 3.294834 1_555
Ag10 Sr5 3.294834 1_555
Ag10 Sr3 3.496481 1_455
Ag10 Sr1 3.496481 1_565
Ag11 Ag3 2.815605 1_665
Ag11 Ag12 2.904340 1_555
Ag11 Ag4 2.904340 1_555
Ag11 Ag6 2.904340 1_555
Ag11 Ag13 3.224177 1_554
Ag11 Ag8 3.224177 1_555
Ag11 Sr4 3.294834 1_555
Ag11 Sr3 3.294834 1_555
Ag11 Sr2 3.496481 1_565
Ag11 Sr5 3.496481 1_655
Ag12 Ag3 2.815605 1_665
Ag12 Ag4 2.904340 1_565
Ag12 Ag8 2.904340 1_555
Ag12 Ag9 2.904340 1_665
Ag12 Ag14 3.224177 1_565
Ag12 Ag6 3.224177 1_555
Ag12 Sr2 3.294834 1_565
Ag12 Sr1 3.294834 1_565
Ag12 Sr3 3.496481 1_555
Ag12 Sr0 3.496482 1_665
Ag13 Ag2 2.815605 1_656
Ag13 Ag5 2.904340 1_555
Ag13 Ag14 2.904340 1_555
Ag13 Ag4 2.904340 1_556
Ag13 Ag7 3.224177 1_555
Ag13 Sr3 3.294834 1_556
Ag13 Sr4 3.294834 1_556
Ag13 Sr2 3.496481 1_555
Ag13 Sr0 3.496481 1_656
Ag14 Ag2 2.815605 1_656
Ag14 Ag4 2.904340 1_555
Ag14 Ag7 2.904340 1_555
Ag14 Ag9 2.904340 1_655
Ag14 Ag5 3.224177 1_555
Ag14 Sr2 3.294834 1_555
Ag14 Sr1 3.294834 1_555
Ag14 Sr3 3.496481 1_556
Ag14 Sr5 3.496481 1_655
Ag15 Ag5 2.904340 1_565
Ag15 Ag7 2.904340 1_555
Ag15 Ag8 2.904340 1_556
Ag15 Ag6 2.904340 1_555
Ag15 Ag9 3.224177 1_555
Ag15 Sr0 3.294834 1_555
Ag15 Sr5 3.294834 1_555
Ag15 Sr3 3.496481 1_556
Ag15 Sr2 3.496482 1_565
N0 Sr0 2.644779 1_555
N0 Sr5 2.644779 1_544
N0 Sr1 2.644779 1_555
N0 Sr2 2.644779 1_454
N0 Sr4 2.644779 1_555
N0 Sr3 2.644779 1_445
