# generated using pymatgen
data_Hf2TaNb11P8
_symmetry_space_group_name_H-M   'P 1'
_cell_length_a   7.70705962
_cell_length_b   7.70705926
_cell_length_c   13.97757898
_cell_angle_alpha   76.29936145
_cell_angle_beta   76.29936299
_cell_angle_gamma   26.17207791
_symmetry_Int_Tables_number   1
_chemical_formula_structural   Hf2TaNb11P8
_chemical_formula_sum   'Hf2 Ta1 Nb11 P8'
_cell_volume   355.20624730
_cell_formula_units_Z   1
loop_
 _symmetry_equiv_pos_site_id
 _symmetry_equiv_pos_as_xyz
  1  'x, y, z'
loop_
 _atom_site_type_symbol
 _atom_site_label
 _atom_site_symmetry_multiplicity
 _atom_site_fract_x
 _atom_site_fract_y
 _atom_site_fract_z
 _atom_site_occupancy
  Hf  Hf0  1  0.65947583  0.65947583  0.03091811  1
  Hf  Hf1  1  0.34052417  0.34052417  0.96908189  1
  Ta  Ta0  1  0.50000000  0.50000000  0.50000000  1
  Nb  Nb0  1  0.99734089  0.99734089  0.66304355  1
  Nb  Nb1  1  0.00265911  0.00265911  0.33695645  1
  Nb  Nb2  1  0.82659026  0.82659026  0.53905396  1
  Nb  Nb3  1  0.17340974  0.17340974  0.46094604  1
  Nb  Nb4  1  0.20844341  0.20844341  0.20513804  1
  Nb  Nb5  1  0.79155659  0.79155659  0.79486196  1
  Nb  Nb6  1  0.19665115  0.19665115  0.68627788  1
  Nb  Nb7  1  0.80334885  0.80334885  0.31372212  1
  Nb  Nb8  1  0.42930433  0.42930433  0.17431285  1
  Nb  Nb9  1  0.57069567  0.57069567  0.82568715  1
  Nb  Nb10  1  0.00000000  0.00000000  0.00000000  1
  P  P0  1  0.06093938  0.06093938  0.15391458  1
  P  P1  1  0.93906062  0.93906062  0.84608542  1
  P  P2  1  0.37087032  0.37087032  0.66157365  1
  P  P3  1  0.62912968  0.62912968  0.33842635  1
  P  P4  1  0.37438253  0.37438253  0.39750324  1
  P  P5  1  0.62561747  0.62561747  0.60249676  1
  P  P6  1  0.17682153  0.17682153  0.88688152  1
  P  P7  1  0.82317847  0.82317847  0.11311848  1
loop_
_geom_bond_atom_site_label_1
_geom_bond_atom_site_label_2
_geom_bond_distance
_geom_bond_site_symmetry_2
Hf0 P6 2.628901 1_564
Hf0 P6 2.628901 1_654
Hf0 P0 2.636728 1_655
Hf0 P0 2.636728 1_565
Hf0 P7 2.955379 1_555
Hf1 P7 2.628901 1_546
Hf1 P7 2.628901 1_456
Hf1 P1 2.636728 1_455
Hf1 P1 2.636728 1_545
Hf1 P6 2.955379 1_555
Nb0 P1 2.494541 1_555
Nb0 P2 2.582604 1_655
Nb0 P2 2.582604 1_565
Nb0 P5 2.584126 1_565
Nb0 P5 2.584126 1_655
Nb1 P0 2.494541 1_555
Nb1 P3 2.582604 1_455
Nb1 P3 2.582604 1_545
Nb1 P4 2.584126 1_545
Nb1 P4 2.584126 1_455
Nb2 P4 2.604615 1_565
Nb2 P4 2.604615 1_655
Nb2 P2 2.640719 1_565
Nb2 P2 2.640719 1_655
Nb2 P5 2.930806 1_555
Nb3 P5 2.604615 1_545
Nb3 P5 2.604615 1_455
Nb3 P3 2.640719 1_545
Nb3 P3 2.640719 1_455
Nb3 P4 2.930806 1_555
Nb4 P0 2.487611 1_555
Nb4 P7 2.566940 1_455
Nb4 P7 2.566940 1_545
Nb4 P3 2.618207 1_545
Nb4 P3 2.618207 1_455
Nb5 P1 2.487611 1_555
Nb5 P6 2.566940 1_655
Nb5 P6 2.566940 1_565
Nb5 P2 2.618207 1_565
Nb5 P2 2.618207 1_655
Nb6 P5 2.482162 1_545
Nb6 P5 2.482162 1_455
Nb6 P2 2.553792 1_555
Nb6 P6 2.746782 1_555
Nb7 P4 2.482162 1_565
Nb7 P4 2.482162 1_655
Nb7 P3 2.553792 1_555
Nb7 P7 2.746782 1_555
Nb8 P0 2.599648 1_565
Nb8 P0 2.599649 1_655
Nb8 P7 2.641625 1_545
Nb8 P7 2.641626 1_455
Nb8 P4 3.026745 1_555
Nb9 P1 2.599648 1_545
Nb9 P1 2.599649 1_455
Nb9 P6 2.641625 1_565
Nb9 P6 2.641626 1_655
Nb9 P5 3.026745 1_555
Nb10 P0 2.534301 1_555
Nb10 P1 2.534301 1_444
Nb10 P6 2.739777 1_554
Nb10 P7 2.739777 1_445
P2 Ta0 2.594172 1_555
P3 Ta0 2.594172 1_555
P4 Ta0 2.631264 1_555
P5 Ta0 2.631264 1_555
