# generated using pymatgen
data_Rb3Y(IO3)6
_symmetry_space_group_name_H-M   'P 1'
_cell_length_a   7.12938849
_cell_length_b   7.11854293
_cell_length_c   10.82875519
_cell_angle_alpha   87.41608295
_cell_angle_beta   107.78008999
_cell_angle_gamma   107.99070974
_symmetry_Int_Tables_number   1
_chemical_formula_structural   Rb3Y(IO3)6
_chemical_formula_sum   'Rb3 Y1 I6 O18'
_cell_volume   496.99599211
_cell_formula_units_Z   1
loop_
 _symmetry_equiv_pos_site_id
 _symmetry_equiv_pos_as_xyz
  1  'x, y, z'
loop_
 _atom_site_type_symbol
 _atom_site_label
 _atom_site_symmetry_multiplicity
 _atom_site_fract_x
 _atom_site_fract_y
 _atom_site_fract_z
 _atom_site_occupancy
  Rb  Rb0  1  0.00000000  0.00000000  0.00000000  1
  Rb  Rb1  1  0.83593040  0.02314310  0.60357185  1
  Rb  Rb2  1  0.16406960  0.97685690  0.39642815  1
  Y  Y0  1  0.50000000  0.50000000  0.00000000  1
  I  I0  1  0.04333176  0.47829418  0.19267501  1
  I  I1  1  0.95666824  0.52170582  0.80732499  1
  I  I2  1  0.56472870  0.97188651  0.19357267  1
  I  I3  1  0.43527130  0.02811349  0.80642733  1
  I  I4  1  0.40416146  0.54787917  0.62880140  1
  I  I5  1  0.59583854  0.45212083  0.37119860  1
  O  O0  1  0.84369543  0.53978566  0.05656572  1
  O  O1  1  0.15630457  0.46021434  0.94343428  1
  O  O2  1  0.96666891  0.54947888  0.32269638  1
  O  O3  1  0.03333109  0.45052112  0.67730362  1
  O  O4  1  0.93432221  0.21165951  0.18682666  1
  O  O5  1  0.06567779  0.78834049  0.81317334  1
  O  O6  1  0.57445457  0.82525484  0.06049213  1
  O  O7  1  0.42554543  0.17474516  0.93950787  1
  O  O8  1  0.29759434  0.85866471  0.18833609  1
  O  O9  1  0.70240566  0.14133529  0.81166391  1
  O  O10  1  0.69532632  0.85191594  0.32754808  1
  O  O11  1  0.30467368  0.14808406  0.67245192  1
  O  O12  1  0.51353726  0.59355255  0.80554606  1
  O  O13  1  0.48646274  0.40644745  0.19445394  1
  O  O14  1  0.65658188  0.56482723  0.61059584  1
  O  O15  1  0.34341812  0.43517277  0.38940416  1
  O  O16  1  0.40477052  0.79765407  0.59455851  1
  O  O17  1  0.59522948  0.20234593  0.40544149  1
loop_
_geom_bond_atom_site_label_1
_geom_bond_atom_site_label_2
_geom_bond_distance
_geom_bond_site_symmetry_2
I0 O2 1.800910 1_455
I0 O4 1.811123 1_455
I0 O0 1.853435 1_455
I1 O3 1.800910 1_655
I1 O5 1.811123 1_655
I1 O1 1.853435 1_655
I2 O10 1.804311 1_555
I2 O8 1.808291 1_555
I2 O6 1.847284 1_555
I2 O4 2.681386 1_565
I3 O11 1.804311 1_555
I3 O9 1.808291 1_555
I3 O7 1.847284 1_555
I3 O5 2.681386 1_545
I4 O16 1.798802 1_555
I4 O12 1.834364 1_555
I4 O14 1.836411 1_555
I5 O17 1.798802 1_555
I5 O13 1.834364 1_555
I5 O15 1.836411 1_555
O0 Y0 2.264922 1_555
O0 Rb0 3.214085 1_665
O1 Y0 2.264922 1_556
O1 Rb0 3.214085 1_556
O2 Rb2 2.960012 1_655
O3 Rb1 2.960012 1_455
O4 Rb0 2.805628 1_655
O4 Rb2 3.115593 1_645
O5 Rb0 2.805628 1_566
O5 Rb1 3.115593 1_465
O6 Y0 2.288419 1_555
O6 Rb0 3.160679 1_665
O7 Y0 2.288419 1_556
O7 Rb0 3.160679 1_556
O8 Rb0 2.857272 1_565
O8 Rb2 2.944074 1_555
O9 Rb0 2.857272 1_656
O9 Rb1 2.944074 1_555
O10 Rb1 3.027948 1_565
O10 Rb2 3.035921 1_655
O11 Rb2 3.027948 1_545
O11 Rb1 3.035921 1_455
O12 Y0 2.201076 1_556
O13 Y0 2.201076 1_555
O14 Rb1 3.121697 1_565
O15 Rb2 3.121697 1_545
O16 Rb2 2.834122 1_555
O16 Rb1 2.969499 1_565
O17 Rb1 2.834122 1_555
O17 Rb2 2.969499 1_545
