# generated using pymatgen
data_LuRu(SeO3)4
_symmetry_space_group_name_H-M   'P 1'
_cell_length_a   8.22590491
_cell_length_b   8.59670762
_cell_length_c   8.30283148
_cell_angle_alpha   91.38164566
_cell_angle_beta   90.00000000
_cell_angle_gamma   90.00000000
_symmetry_Int_Tables_number   1
_chemical_formula_structural   LuRu(SeO3)4
_chemical_formula_sum   'Lu2 Ru2 Se8 O24'
_cell_volume   586.96983261
_cell_formula_units_Z   2
loop_
 _symmetry_equiv_pos_site_id
 _symmetry_equiv_pos_as_xyz
  1  'x, y, z'
loop_
 _atom_site_type_symbol
 _atom_site_label
 _atom_site_symmetry_multiplicity
 _atom_site_fract_x
 _atom_site_fract_y
 _atom_site_fract_z
 _atom_site_occupancy
  Lu  Lu0  1  0.00000000  0.50000000  0.00000000  1
  Lu  Lu1  1  0.50000000  0.50000000  0.50000000  1
  Ru  Ru0  1  0.00000000  0.00000000  0.50000000  1
  Ru  Ru1  1  0.50000000  0.00000000  0.00000000  1
  Se  Se0  1  0.34325084  0.69476785  0.16785759  1
  Se  Se1  1  0.84325084  0.30523215  0.33214241  1
  Se  Se2  1  0.69833832  0.84534205  0.69122367  1
  Se  Se3  1  0.19833832  0.15465795  0.80877633  1
  Se  Se4  1  0.65674916  0.30523215  0.83214241  1
  Se  Se5  1  0.15674916  0.69476785  0.66785759  1
  Se  Se6  1  0.30166168  0.15465795  0.30877633  1
  Se  Se7  1  0.80166168  0.84534205  0.19122367  1
  O  O0  1  0.24682225  0.57197148  0.04181275  1
  O  O1  1  0.74682225  0.42802852  0.45818725  1
  O  O2  1  0.76826570  0.98060609  0.55161896  1
  O  O3  1  0.26826570  0.01939391  0.94838104  1
  O  O4  1  0.55069462  0.97315139  0.77085893  1
  O  O5  1  0.47961620  0.58159295  0.25689023  1
  O  O6  1  0.97961620  0.41840705  0.24310977  1
  O  O7  1  0.05069462  0.02684861  0.72914107  1
  O  O8  1  0.97891737  0.22115153  0.47583864  1
  O  O9  1  0.58258445  0.73396125  0.57387042  1
  O  O10  1  0.47891737  0.77884847  0.02416136  1
  O  O11  1  0.08258445  0.26603875  0.92612958  1
  O  O12  1  0.75317775  0.42802852  0.95818725  1
  O  O13  1  0.25317775  0.57197148  0.54181275  1
  O  O14  1  0.23173430  0.01939391  0.44838104  1
  O  O15  1  0.73173430  0.98060609  0.05161896  1
  O  O16  1  0.44930538  0.02684861  0.22914107  1
  O  O17  1  0.52038380  0.41840705  0.74310977  1
  O  O18  1  0.02038380  0.58159295  0.75689023  1
  O  O19  1  0.94930538  0.97315139  0.27085893  1
  O  O20  1  0.02108263  0.77884847  0.52416136  1
  O  O21  1  0.41741555  0.26603875  0.42612958  1
  O  O22  1  0.52108263  0.22115153  0.97583864  1
  O  O23  1  0.91741555  0.73396125  0.07387042  1
loop_
_geom_bond_atom_site_label_1
_geom_bond_atom_site_label_2
_geom_bond_distance
_geom_bond_site_symmetry_2
Lu0 O0 2.148311 1_555
Lu0 O12 2.148311 1_454
Lu0 O6 2.159337 1_455
Lu0 O18 2.159337 1_554
Lu0 O23 2.196246 1_455
Lu0 O11 2.196246 1_554
Lu1 O1 2.148311 1_555
Lu1 O13 2.148311 1_555
Lu1 O17 2.159337 1_555
Lu1 O5 2.159337 1_555
Lu1 O9 2.196246 1_555
Lu1 O21 2.196246 1_555
O0 Se0 1.668987 1_555
O1 Se1 1.668987 1_555
O2 Se2 1.758289 1_555
O2 Ru0 1.961789 1_665
O3 Se3 1.758289 1_555
O3 Ru1 1.961789 1_556
O4 Se2 1.756245 1_555
O4 Ru1 1.955908 1_566
O5 Se0 1.669133 1_555
O6 Se1 1.669133 1_555
O7 Se3 1.756245 1_555
O7 Ru0 1.955908 1_555
O8 Se1 1.798031 1_555
O8 Ru0 1.924364 1_655
O9 Se2 1.651625 1_555
O10 Se0 1.798031 1_555
O10 Ru1 1.924364 1_565
O11 Se3 1.651625 1_555
O12 Se4 1.668987 1_555
O13 Se5 1.668987 1_555
O14 Se6 1.758289 1_555
O14 Ru0 1.961789 1_555
O15 Se7 1.758289 1_555
O15 Ru1 1.961789 1_565
O16 Se6 1.756245 1_555
O16 Ru1 1.955908 1_555
O17 Se4 1.669133 1_555
O18 Se5 1.669133 1_555
O19 Se7 1.756245 1_555
O19 Ru0 1.955908 1_665
O20 Se5 1.798031 1_555
O20 Ru0 1.924364 1_565
O21 Se6 1.651625 1_555
O22 Se4 1.798031 1_555
O22 Ru1 1.924364 1_556
O23 Se7 1.651625 1_555
