# generated using pymatgen
data_Cs2Li2TiSe4
_symmetry_space_group_name_H-M   'P 1'
_cell_length_a   6.24907838
_cell_length_b   6.24907838
_cell_length_c   14.08232489
_cell_angle_alpha   90.00000000
_cell_angle_beta   90.00000000
_cell_angle_gamma   90.00000000
_symmetry_Int_Tables_number   1
_chemical_formula_structural   Cs2Li2TiSe4
_chemical_formula_sum   'Cs4 Li4 Ti2 Se8'
_cell_volume   549.92859678
_cell_formula_units_Z   2
loop_
 _symmetry_equiv_pos_site_id
 _symmetry_equiv_pos_as_xyz
  1  'x, y, z'
loop_
 _atom_site_type_symbol
 _atom_site_label
 _atom_site_symmetry_multiplicity
 _atom_site_fract_x
 _atom_site_fract_y
 _atom_site_fract_z
 _atom_site_occupancy
  Cs  Cs0  1  0.76639299  0.76639299  0.00000000  1
  Cs  Cs1  1  0.23360701  0.76639299  0.50000000  1
  Cs  Cs2  1  0.76639299  0.23360701  0.50000000  1
  Cs  Cs3  1  0.23360701  0.23360701  0.00000000  1
  Li  Li0  1  0.00000000  0.50000000  0.75000000  1
  Li  Li1  1  0.50000000  0.00000000  0.75000000  1
  Li  Li2  1  0.00000000  0.50000000  0.25000000  1
  Li  Li3  1  0.50000000  0.00000000  0.25000000  1
  Ti  Ti0  1  0.50000000  0.50000000  0.75000000  1
  Ti  Ti1  1  0.50000000  0.50000000  0.25000000  1
  Se  Se0  1  0.72405176  0.72405176  0.65517177  1
  Se  Se1  1  0.27594824  0.27594824  0.65517177  1
  Se  Se2  1  0.72405176  0.72405176  0.34482823  1
  Se  Se3  1  0.72405176  0.27594824  0.15517177  1
  Se  Se4  1  0.27594824  0.72405176  0.84482823  1
  Se  Se5  1  0.27594824  0.27594824  0.34482823  1
  Se  Se6  1  0.27594824  0.72405176  0.15517177  1
  Se  Se7  1  0.72405176  0.27594824  0.84482823  1
loop_
_geom_bond_atom_site_label_1
_geom_bond_atom_site_label_2
_geom_bond_distance
_geom_bond_site_symmetry_2
Cs0 Se3 3.773352 1_555
Cs0 Se6 3.773352 1_555
Cs0 Se7 3.773352 1_554
Cs0 Se4 3.773352 1_554
Cs0 Se3 3.870978 1_565
Cs0 Se6 3.870978 1_655
Cs0 Se4 3.870978 1_654
Cs0 Se7 3.870978 1_564
Cs1 Se1 3.773352 1_555
Cs1 Se0 3.773352 1_555
Cs1 Se2 3.773352 1_555
Cs1 Se5 3.773352 1_555
Cs1 Se1 3.870978 1_565
Cs1 Se0 3.870978 1_455
Cs1 Se5 3.870978 1_565
Cs1 Se2 3.870978 1_455
Cs2 Se1 3.773352 1_555
Cs2 Se0 3.773352 1_555
Cs2 Se2 3.773352 1_555
Cs2 Se5 3.773352 1_555
Cs2 Se1 3.870978 1_655
Cs2 Se0 3.870978 1_545
Cs2 Se5 3.870978 1_655
Cs2 Se2 3.870978 1_545
Cs3 Se6 3.773352 1_555
Cs3 Se3 3.773352 1_555
Cs3 Se7 3.773352 1_554
Cs3 Se4 3.773352 1_554
Cs3 Se6 3.870978 1_545
Cs3 Se3 3.870978 1_455
Cs3 Se7 3.870978 1_454
Cs3 Se4 3.870978 1_544
Li0 Se4 2.591767 1_555
Li0 Se7 2.591767 1_455
Li0 Se1 2.591767 1_555
Li0 Se0 2.591767 1_455
Li1 Se7 2.591767 1_555
Li1 Se4 2.591767 1_545
Li1 Se1 2.591767 1_555
Li1 Se0 2.591767 1_545
Li2 Se5 2.591767 1_555
Li2 Se2 2.591767 1_455
Li2 Se6 2.591767 1_555
Li2 Se3 2.591767 1_455
Li3 Se5 2.591767 1_555
Li3 Se2 2.591767 1_545
Li3 Se3 2.591767 1_555
Li3 Se6 2.591767 1_545
Se0 Ti0 2.388295 1_555
Se1 Ti0 2.388295 1_555
Se2 Ti1 2.388295 1_555
Se3 Ti1 2.388295 1_555
Se4 Ti0 2.388295 1_555
Se5 Ti1 2.388295 1_555
Se6 Ti1 2.388295 1_555
Se7 Ti0 2.388295 1_555
