# generated using pymatgen
data_Rb2Si2PbSe6
_symmetry_space_group_name_H-M   'P 1'
_cell_length_a   9.14231102
_cell_length_b   9.14231088
_cell_length_c   9.31684645
_cell_angle_alpha   90.20723022
_cell_angle_beta   90.20723218
_cell_angle_gamma   114.39311586
_symmetry_Int_Tables_number   1
_chemical_formula_structural   Rb2Si2PbSe6
_chemical_formula_sum   'Rb4 Si4 Pb2 Se12'
_cell_volume   709.18974592
_cell_formula_units_Z   2
loop_
 _symmetry_equiv_pos_site_id
 _symmetry_equiv_pos_as_xyz
  1  'x, y, z'
loop_
 _atom_site_type_symbol
 _atom_site_label
 _atom_site_symmetry_multiplicity
 _atom_site_fract_x
 _atom_site_fract_y
 _atom_site_fract_z
 _atom_site_occupancy
  Rb  Rb0  1  0.25824050  0.53904200  0.52245673  1
  Rb  Rb1  1  0.74175950  0.46095800  0.47754327  1
  Rb  Rb2  1  0.46095800  0.74175950  0.97754327  1
  Rb  Rb3  1  0.53904200  0.25824050  0.02245673  1
  Si  Si0  1  0.97845341  0.65351567  0.04939324  1
  Si  Si1  1  0.02154659  0.34648433  0.95060676  1
  Si  Si2  1  0.34648433  0.02154659  0.45060676  1
  Si  Si3  1  0.65351567  0.97845341  0.54939324  1
  Pb  Pb0  1  0.00074268  0.99925732  0.25000000  1
  Pb  Pb1  1  0.99925732  0.00074268  0.75000000  1
  Se  Se0  1  0.65660533  0.76067587  0.65385136  1
  Se  Se1  1  0.91981227  0.51053474  0.83446098  1
  Se  Se2  1  0.23932413  0.34339467  0.84614864  1
  Se  Se3  1  0.51053474  0.91981227  0.33446098  1
  Se  Se4  1  0.34339467  0.23932413  0.34614864  1
  Se  Se5  1  0.90166632  0.17125192  0.52312267  1
  Se  Se6  1  0.82874808  0.09833368  0.97687733  1
  Se  Se7  1  0.17125192  0.90166632  0.02312267  1
  Se  Se8  1  0.08018773  0.48946526  0.16553902  1
  Se  Se9  1  0.48946526  0.08018773  0.66553902  1
  Se  Se10  1  0.09833368  0.82874808  0.47687733  1
  Se  Se11  1  0.76067587  0.65660533  0.15385136  1
loop_
_geom_bond_atom_site_label_1
_geom_bond_atom_site_label_2
_geom_bond_distance
_geom_bond_site_symmetry_2
Rb0 Se2 3.480159 1_555
Rb0 Se10 3.540398 1_555
Rb0 Se4 3.542772 1_555
Rb0 Se0 3.566884 1_555
Rb0 Se5 3.588805 1_455
Rb0 Se8 3.640559 1_555
Rb0 Se3 3.734617 1_555
Rb1 Se11 3.480159 1_555
Rb1 Se5 3.540398 1_555
Rb1 Se0 3.542772 1_555
Rb1 Se4 3.566884 1_555
Rb1 Se10 3.588805 1_655
Rb1 Se1 3.640559 1_555
Rb1 Se9 3.734617 1_555
Rb2 Se0 3.480159 1_555
Rb2 Se7 3.540398 1_556
Rb2 Se11 3.542772 1_556
Rb2 Se2 3.566884 1_555
Rb2 Se6 3.588805 1_565
Rb2 Se3 3.640559 1_556
Rb2 Se8 3.734618 1_556
Rb3 Se4 3.480159 1_555
Rb3 Se6 3.540398 1_554
Rb3 Se2 3.542772 1_554
Rb3 Se11 3.566884 1_555
Rb3 Se7 3.588805 1_545
Rb3 Se9 3.640559 1_554
Rb3 Se1 3.734618 1_554
Pb0 Se10 2.975417 1_555
Pb0 Se7 2.975417 1_555
Pb0 Se11 3.117581 1_455
Pb0 Se4 3.117581 1_565
Pb0 Se6 3.306411 1_464
Pb0 Se5 3.306412 1_465
Pb1 Se5 2.975417 1_555
Pb1 Se6 2.975417 1_555
Pb1 Se2 3.117581 1_655
Pb1 Se0 3.117581 1_545
Pb1 Se7 3.306411 1_646
Pb1 Se10 3.306412 1_645
Se0 Si3 2.229858 1_555
Se1 Si0 2.323908 1_556
Se1 Si1 2.332830 1_655
Se2 Si1 2.229858 1_555
Se3 Si3 2.323908 1_555
Se3 Si2 2.332830 1_565
Se4 Si2 2.229858 1_555
Se5 Si3 2.240039 1_545
Se6 Si1 2.240039 1_655
Se7 Si0 2.240039 1_455
Se8 Si1 2.323908 1_554
Se8 Si0 2.332830 1_455
Se9 Si2 2.323908 1_555
Se9 Si3 2.332830 1_545
Se10 Si2 2.240039 1_565
Se11 Si0 2.229858 1_555
