# generated using pymatgen
data_Zr12Cd12S3N
_symmetry_space_group_name_H-M   'P 1'
_cell_length_a   9.20550239
_cell_length_b   9.20550218
_cell_length_c   9.20550299
_cell_angle_alpha   60.89028623
_cell_angle_beta   60.89028480
_cell_angle_gamma   60.89028870
_symmetry_Int_Tables_number   1
_chemical_formula_structural   Zr12Cd12S3N
_chemical_formula_sum   'Zr12 Cd12 S3 N1'
_cell_volume   562.67395670
_cell_formula_units_Z   1
loop_
 _symmetry_equiv_pos_site_id
 _symmetry_equiv_pos_as_xyz
  1  'x, y, z'
loop_
 _atom_site_type_symbol
 _atom_site_label
 _atom_site_symmetry_multiplicity
 _atom_site_fract_x
 _atom_site_fract_y
 _atom_site_fract_z
 _atom_site_occupancy
  Zr  Zr0  1  0.83725065  0.18057974  0.18057974  1
  Zr  Zr1  1  0.18057974  0.83725065  0.18057974  1
  Zr  Zr2  1  0.81163540  0.81163540  0.18605624  1
  Zr  Zr3  1  0.18605624  0.81163540  0.81163540  1
  Zr  Zr4  1  0.81163540  0.18605624  0.81163540  1
  Zr  Zr5  1  0.18057974  0.18057974  0.83725065  1
  Zr  Zr6  1  0.41274935  0.06942026  0.06942026  1
  Zr  Zr7  1  0.06942026  0.41274935  0.06942026  1
  Zr  Zr8  1  0.43836460  0.43836460  0.06394376  1
  Zr  Zr9  1  0.06394376  0.43836460  0.43836460  1
  Zr  Zr10  1  0.43836460  0.06394376  0.43836460  1
  Zr  Zr11  1  0.06942026  0.06942026  0.41274935  1
  Cd  Cd0  1  0.41208092  0.41208092  0.76124929  1
  Cd  Cd1  1  0.41413264  0.41413264  0.41413264  1
  Cd  Cd2  1  0.76124929  0.41208092  0.41208092  1
  Cd  Cd3  1  0.41208092  0.76124929  0.41208092  1
  Cd  Cd4  1  0.83791908  0.83791908  0.48875071  1
  Cd  Cd5  1  0.83586736  0.83586736  0.83586736  1
  Cd  Cd6  1  0.48875071  0.83791908  0.83791908  1
  Cd  Cd7  1  0.83791908  0.48875071  0.83791908  1
  Cd  Cd8  1  0.62500000  0.62500000  0.12500000  1
  Cd  Cd9  1  0.62500000  0.62500000  0.62500000  1
  Cd  Cd10  1  0.12500000  0.62500000  0.62500000  1
  Cd  Cd11  1  0.62500000  0.12500000  0.62500000  1
  S  S0  1  0.12500000  0.12500000  0.62500000  1
  S  S1  1  0.62500000  0.12500000  0.12500000  1
  S  S2  1  0.12500000  0.62500000  0.12500000  1
  N  N0  1  0.12500000  0.12500000  0.12500000  1
loop_
_geom_bond_atom_site_label_1
_geom_bond_atom_site_label_2
_geom_bond_distance
_geom_bond_site_symmetry_2
Cd0 Cd11 2.862195 1_555
Cd0 Cd10 2.862195 1_555
Cd0 Cd9 2.865415 1_555
Cd0 Zr8 3.041433 1_556
Cd0 Zr7 3.047845 1_556
Cd0 Zr6 3.047845 1_556
Cd0 Cd1 3.177120 1_555
Cd0 Cd2 3.257426 1_555
Cd0 Cd3 3.257426 1_555
Cd0 Zr5 3.330157 1_555
Cd0 Zr3 3.368623 1_555
Cd0 Zr4 3.368623 1_555
Cd1 Cd8 2.869251 1_555
Cd1 Cd10 2.869251 1_555
Cd1 Cd11 2.869251 1_555
Cd1 Zr10 3.023348 1_555
Cd1 Zr9 3.023348 1_555
Cd1 Zr8 3.023349 1_555
Cd1 Cd3 3.177120 1_555
Cd1 Cd2 3.177120 1_555
Cd1 Zr5 3.552144 1_555
Cd1 Zr0 3.552145 1_555
Cd1 Zr1 3.552145 1_555
Cd2 Cd8 2.862195 1_555
Cd2 Cd9 2.865415 1_555
Cd2 Zr9 3.041433 1_655
Cd2 Zr7 3.047845 1_655
Cd2 Zr11 3.047845 1_655
Cd2 Cd3 3.257426 1_555
Cd2 Zr0 3.330157 1_555
Cd2 Zr2 3.368622 1_555
Cd2 Zr4 3.368623 1_555
Cd3 Cd8 2.862195 1_555
Cd3 Cd9 2.865415 1_555
Cd3 Zr10 3.041433 1_565
Cd3 Zr11 3.047845 1_565
Cd3 Zr6 3.047845 1_565
Cd3 Zr1 3.330157 1_555
Cd3 Zr2 3.368623 1_555
Cd3 Zr3 3.368623 1_555
Cd4 Cd9 2.865415 1_555
Cd4 Zr2 3.041433 1_555
Cd4 Zr1 3.047845 1_655
Cd4 Zr0 3.047845 1_565
Cd4 Cd5 3.177120 1_555
Cd4 Cd6 3.257426 1_555
Cd4 Cd7 3.257426 1_555
Cd4 Zr11 3.330157 1_665
Cd4 Zr9 3.368623 1_655
Cd4 Zr10 3.368623 1_565
Cd5 Cd8 2.869251 1_556
Cd5 Zr4 3.023348 1_565
Cd5 Zr3 3.023348 1_655
Cd5 Zr2 3.023349 1_556
Cd5 Cd7 3.177120 1_555
Cd5 Cd6 3.177120 1_555
Cd5 Zr11 3.552144 1_665
Cd5 Zr6 3.552145 1_566
Cd5 Zr7 3.552145 1_656
Cd6 Cd8 2.862195 1_556
Cd6 Cd9 2.865415 1_555
Cd6 Zr3 3.041433 1_555
Cd6 Zr1 3.047845 1_556
Cd6 Zr5 3.047845 1_565
Cd6 Cd7 3.257426 1_555
Cd6 Zr6 3.330157 1_566
Cd6 Zr8 3.368622 1_556
Cd6 Zr10 3.368623 1_565
Cd7 Cd8 2.862195 1_556
Cd7 Cd9 2.865415 1_555
Cd7 Zr4 3.041433 1_555
Cd7 Zr5 3.047845 1_655
Cd7 Zr0 3.047845 1_556
Cd7 Zr7 3.330157 1_656
Cd7 Zr8 3.368623 1_556
Cd7 Zr9 3.368623 1_655
Cd8 Zr2 3.312177 1_555
Cd8 Zr8 3.312177 1_555
Cd8 Zr6 3.460525 1_565
Cd8 Zr0 3.460525 1_555
Cd8 Zr7 3.460525 1_655
Cd8 Zr1 3.460525 1_555
Cd9 Zr3 3.404949 1_555
Cd9 Zr9 3.404949 1_655
Cd9 Zr10 3.404949 1_565
Cd9 Zr4 3.404949 1_555
Cd9 Zr8 3.404949 1_556
Cd9 Zr2 3.404949 1_555
Cd10 Cd3 2.862195 1_555
Cd10 Cd7 2.862195 1_455
Cd10 Cd4 2.862195 1_455
Cd10 Cd5 2.869251 1_455
Cd10 Zr3 3.312177 1_555
Cd10 Zr9 3.312177 1_555
Cd10 Zr11 3.460525 1_565
Cd10 Zr5 3.460525 1_555
Cd10 Zr7 3.460525 1_556
Cd10 Zr1 3.460525 1_555
Cd11 Cd2 2.862195 1_555
Cd11 Cd6 2.862195 1_545
Cd11 Cd4 2.862195 1_545
Cd11 Cd5 2.869251 1_545
Cd11 Zr4 3.312177 1_555
Cd11 Zr10 3.312177 1_555
Cd11 Zr11 3.460525 1_655
Cd11 Zr5 3.460525 1_555
Cd11 Zr6 3.460525 1_556
Cd11 Zr0 3.460525 1_555
S0 Zr10 2.475675 1_555
S0 Zr4 2.475675 1_455
S0 Zr9 2.475675 1_555
S0 Zr3 2.475675 1_545
S0 Zr5 2.557573 1_555
S0 Zr11 2.557573 1_555
S1 Zr8 2.475676 1_555
S1 Zr2 2.475676 1_545
S1 Zr10 2.475676 1_555
S1 Zr4 2.475676 1_554
S1 Zr0 2.557573 1_555
S1 Zr6 2.557573 1_555
S2 Zr8 2.475676 1_555
S2 Zr2 2.475676 1_455
S2 Zr9 2.475676 1_555
S2 Zr3 2.475676 1_554
S2 Zr1 2.557573 1_555
S2 Zr7 2.557573 1_555
N0 Zr7 2.271020 1_555
N0 Zr1 2.271020 1_545
N0 Zr6 2.271020 1_555
N0 Zr0 2.271020 1_455
N0 Zr11 2.271020 1_555
N0 Zr5 2.271020 1_554
