# generated using pymatgen
data_Mg3Cd
_symmetry_space_group_name_H-M   'P 1'
_cell_length_a   6.30025307
_cell_length_b   6.30026164
_cell_length_c   4.94693497
_cell_angle_alpha   90.00000000
_cell_angle_beta   90.00000000
_cell_angle_gamma   120.00004016
_symmetry_Int_Tables_number   1
_chemical_formula_structural   Mg3Cd
_chemical_formula_sum   'Mg6 Cd2'
_cell_volume   170.05258462
_cell_formula_units_Z   2
loop_
 _symmetry_equiv_pos_site_id
 _symmetry_equiv_pos_as_xyz
  1  'x, y, z'
loop_
 _atom_site_type_symbol
 _atom_site_label
 _atom_site_symmetry_multiplicity
 _atom_site_fract_x
 _atom_site_fract_y
 _atom_site_fract_z
 _atom_site_occupancy
  Mg  Mg0  1  0.16752753  0.33505306  0.75000000  1
  Mg  Mg1  1  0.83247247  0.16752753  0.25000000  1
  Mg  Mg2  1  0.83247247  0.66494694  0.25000000  1
  Mg  Mg3  1  0.16752753  0.83247247  0.75000000  1
  Mg  Mg4  1  0.66494694  0.83247247  0.75000000  1
  Mg  Mg5  1  0.33505306  0.16752753  0.25000000  1
  Cd  Cd0  1  0.66666600  0.33333300  0.75000000  1
  Cd  Cd1  1  0.33333400  0.66666700  0.25000000  1
loop_
_geom_bond_atom_site_label_1
_geom_bond_atom_site_label_2
_geom_bond_distance
_geom_bond_site_symmetry_2
Mg0 Mg5 3.075710 1_556
Mg0 Mg5 3.075710 1_555
Mg0 Mg1 3.075722 1_455
Mg0 Mg1 3.075722 1_456
Mg0 Mg4 3.133868 1_555
Mg0 Mg3 3.133872 1_555
Mg0 Mg4 3.166385 1_445
Mg0 Mg3 3.166389 1_545
Mg1 Mg4 3.075723 1_544
Mg1 Mg4 3.075723 1_545
Mg1 Mg5 3.133868 1_555
Mg1 Mg2 3.133872 1_555
Mg1 Mg5 3.166385 1_655
Mg1 Mg2 3.166389 1_545
Mg2 Mg4 3.075710 1_554
Mg2 Mg4 3.075710 1_555
Mg2 Mg3 3.075722 1_655
Mg2 Mg3 3.075722 1_654
Mg2 Mg5 3.133868 1_555
Mg2 Mg5 3.166385 1_665
Mg3 Mg5 3.075723 1_565
Mg3 Mg5 3.075723 1_566
Mg3 Mg4 3.133868 1_555
Mg3 Mg4 3.166385 1_455
Cd0 Mg1 3.064594 1_556
Cd0 Mg1 3.064594 1_555
Cd0 Mg5 3.064596 1_556
Cd0 Mg5 3.064596 1_555
Cd0 Mg2 3.064601 1_555
Cd0 Mg2 3.064601 1_556
Cd0 Mg0 3.150131 1_555
Cd0 Mg3 3.150138 1_545
Cd0 Mg4 3.150138 1_555
Cd0 Mg3 3.150144 1_655
Cd0 Mg0 3.150150 1_655
Cd0 Mg4 3.150151 1_545
Cd1 Mg3 3.064594 1_555
Cd1 Mg3 3.064594 1_554
Cd1 Mg4 3.064596 1_554
Cd1 Mg4 3.064596 1_555
Cd1 Mg0 3.064601 1_555
Cd1 Mg0 3.064601 1_554
Cd1 Mg2 3.150131 1_555
Cd1 Mg1 3.150138 1_565
Cd1 Mg5 3.150138 1_555
Cd1 Mg1 3.150144 1_455
Cd1 Mg2 3.150150 1_455
Cd1 Mg5 3.150151 1_565
