# generated using pymatgen
data_Y2BeRu2
_symmetry_space_group_name_H-M   'P 1'
_cell_length_a   5.53499162
_cell_length_b   5.53499105
_cell_length_c   5.53499230
_cell_angle_alpha   143.88307769
_cell_angle_beta   111.18723941
_cell_angle_gamma   80.25678272
_symmetry_Int_Tables_number   1
_chemical_formula_structural   Y2BeRu2
_chemical_formula_sum   'Y2 Be1 Ru2'
_cell_volume   90.84142141
_cell_formula_units_Z   1
loop_
 _symmetry_equiv_pos_site_id
 _symmetry_equiv_pos_as_xyz
  1  'x, y, z'
loop_
 _atom_site_type_symbol
 _atom_site_label
 _atom_site_symmetry_multiplicity
 _atom_site_fract_x
 _atom_site_fract_y
 _atom_site_fract_z
 _atom_site_occupancy
  Y  Y0  1  0.70395724  0.20395724  0.50000000  1
  Y  Y1  1  0.29604276  0.79604276  0.50000000  1
  Be  Be0  1  0.00000000  0.00000000  0.00000000  1
  Ru  Ru0  1  0.75696919  0.50000000  0.25696919  1
  Ru  Ru1  1  0.24303081  0.50000000  0.74303081  1
loop_
_geom_bond_atom_site_label_1
_geom_bond_atom_site_label_2
_geom_bond_distance
_geom_bond_site_symmetry_2
Be0 Ru1 2.292359 1_544
Be0 Ru0 2.292359 1_455
Be0 Ru1 2.292360 1_555
Be0 Ru0 2.292360 1_444
Be0 Y1 3.036881 1_555
Be0 Y0 3.036881 1_444
Be0 Y1 3.036882 1_544
Be0 Y0 3.036882 1_455
Ru0 Y0 2.916810 1_565
Ru0 Y1 2.916810 1_555
Ru0 Y1 2.916810 1_544
Ru0 Y0 2.916811 1_554
Ru0 Y0 2.930833 1_555
Ru0 Y1 2.930833 1_655
Ru1 Y1 2.916810 1_545
Ru1 Y0 2.916810 1_555
Ru1 Y0 2.916810 1_566
Ru1 Y1 2.916811 1_556
Ru1 Y1 2.930833 1_555
Ru1 Y0 2.930833 1_455
