# generated using pymatgen
data_NaSr3AuO6
_symmetry_space_group_name_H-M   'P 1'
_cell_length_a   6.79729282
_cell_length_b   6.79729266
_cell_length_c   6.79729328
_cell_angle_alpha   90.87179540
_cell_angle_beta   90.87179376
_cell_angle_gamma   90.87180017
_symmetry_Int_Tables_number   1
_chemical_formula_structural   NaSr3AuO6
_chemical_formula_sum   'Na2 Sr6 Au2 O12'
_cell_volume   313.94644136
_cell_formula_units_Z   2
loop_
 _symmetry_equiv_pos_site_id
 _symmetry_equiv_pos_as_xyz
  1  'x, y, z'
loop_
 _atom_site_type_symbol
 _atom_site_label
 _atom_site_symmetry_multiplicity
 _atom_site_fract_x
 _atom_site_fract_y
 _atom_site_fract_z
 _atom_site_occupancy
  Na  Na0  1  0.75000000  0.75000000  0.75000000  1
  Na  Na1  1  0.25000000  0.25000000  0.25000000  1
  Sr  Sr0  1  0.25000000  0.89071052  0.60928948  1
  Sr  Sr1  1  0.60928948  0.25000000  0.89071052  1
  Sr  Sr2  1  0.89071052  0.60928948  0.25000000  1
  Sr  Sr3  1  0.75000000  0.10928948  0.39071052  1
  Sr  Sr4  1  0.39071052  0.75000000  0.10928948  1
  Sr  Sr5  1  0.10928948  0.39071052  0.75000000  1
  Au  Au0  1  0.50000000  0.50000000  0.50000000  1
  Au  Au1  1  0.00000000  0.00000000  0.00000000  1
  O  O0  1  0.94472414  0.28293431  0.07755562  1
  O  O1  1  0.07755562  0.94472414  0.28293431  1
  O  O2  1  0.28293431  0.07755562  0.94472414  1
  O  O3  1  0.55527586  0.42244438  0.21706569  1
  O  O4  1  0.21706569  0.55527586  0.42244438  1
  O  O5  1  0.42244438  0.21706569  0.55527586  1
  O  O6  1  0.05527586  0.71706569  0.92244438  1
  O  O7  1  0.92244438  0.05527586  0.71706569  1
  O  O8  1  0.71706569  0.92244438  0.05527586  1
  O  O9  1  0.44472414  0.57755562  0.78293431  1
  O  O10  1  0.57755562  0.78293431  0.44472414  1
  O  O11  1  0.78293431  0.44472414  0.57755562  1
loop_
_geom_bond_atom_site_label_1
_geom_bond_atom_site_label_2
_geom_bond_distance
_geom_bond_site_symmetry_2
Na0 O7 2.382855 1_565
Na0 O9 2.382855 1_555
Na0 O11 2.382855 1_555
Na0 O6 2.382855 1_655
Na0 O8 2.382855 1_556
Na0 O10 2.382855 1_555
Na1 O1 2.382855 1_545
Na1 O3 2.382855 1_555
Na1 O4 2.382855 1_555
Na1 O0 2.382855 1_455
Na1 O2 2.382855 1_554
Na1 O5 2.382855 1_555
Au0 O10 2.028519 1_555
Au0 O5 2.028519 1_555
Au0 O11 2.028519 1_555
Au0 O4 2.028519 1_555
Au0 O9 2.028519 1_555
Au0 O3 2.028519 1_555
Au1 O2 2.028519 1_554
Au1 O8 2.028519 1_445
Au1 O0 2.028519 1_455
Au1 O6 2.028519 1_544
Au1 O1 2.028519 1_545
Au1 O7 2.028519 1_454
O0 Sr2 2.527547 1_555
O0 Sr1 2.597967 1_554
O0 Sr5 2.616428 1_654
O0 Sr3 2.791176 1_555
O1 Sr0 2.527547 1_555
O1 Sr2 2.597967 1_455
O1 Sr3 2.616428 1_465
O1 Sr4 2.791176 1_555
O2 Sr1 2.527547 1_555
O2 Sr0 2.597967 1_545
O2 Sr4 2.616428 1_546
O2 Sr5 2.791176 1_555
O3 Sr1 2.527547 1_554
O3 Sr2 2.597967 1_555
O3 Sr4 2.616428 1_555
O3 Sr3 2.791176 1_555
O4 Sr2 2.527547 1_455
O4 Sr0 2.597967 1_555
O4 Sr5 2.616428 1_555
O4 Sr4 2.791176 1_555
O5 Sr0 2.527547 1_545
O5 Sr1 2.597967 1_555
O5 Sr3 2.616428 1_555
O5 Sr5 2.791176 1_555
O6 Sr5 2.527547 1_555
O6 Sr4 2.597967 1_556
O6 Sr2 2.616428 1_456
O6 Sr0 2.791176 1_555
O7 Sr3 2.527547 1_555
O7 Sr5 2.597967 1_655
O7 Sr0 2.616428 1_645
O7 Sr1 2.791176 1_555
O8 Sr4 2.527547 1_555
O8 Sr3 2.597967 1_565
O8 Sr1 2.616428 1_564
O8 Sr2 2.791176 1_555
O9 Sr4 2.527547 1_556
O9 Sr5 2.597967 1_555
O9 Sr1 2.616428 1_555
O9 Sr0 2.791176 1_555
O10 Sr3 2.527547 1_565
O10 Sr4 2.597967 1_555
O10 Sr0 2.616428 1_555
O10 Sr2 2.791176 1_555
O11 Sr5 2.527547 1_655
O11 Sr3 2.597967 1_555
O11 Sr2 2.616428 1_555
O11 Sr1 2.791176 1_555
