# generated using pymatgen
data_Re3TcSe8
_symmetry_space_group_name_H-M   'P 1'
_cell_length_a   6.64706949
_cell_length_b   6.76167661
_cell_length_c   7.44668986
_cell_angle_alpha   66.41807702
_cell_angle_beta   77.40952390
_cell_angle_gamma   61.07779524
_symmetry_Int_Tables_number   1
_chemical_formula_structural   Re3TcSe8
_chemical_formula_sum   'Re3 Tc1 Se8'
_cell_volume   268.36015280
_cell_formula_units_Z   1
loop_
 _symmetry_equiv_pos_site_id
 _symmetry_equiv_pos_as_xyz
  1  'x, y, z'
loop_
 _atom_site_type_symbol
 _atom_site_label
 _atom_site_symmetry_multiplicity
 _atom_site_fract_x
 _atom_site_fract_y
 _atom_site_fract_z
 _atom_site_occupancy
  Re  Re0  1  0.51125987  0.29149398  0.50272749  1
  Re  Re1  1  0.48928131  0.70940627  0.49775274  1
  Re  Re2  1  0.93129489  0.31325179  0.50852519  1
  Tc  Tc0  1  0.06725230  0.68711463  0.49090488  1
  Se  Se0  1  0.32224981  0.17465265  0.31681910  1
  Se  Se1  1  0.67858685  0.82630114  0.68380451  1
  Se  Se2  1  0.86109770  0.15304136  0.29115248  1
  Se  Se3  1  0.13912478  0.84606440  0.70820263  1
  Se  Se4  1  0.36521308  0.67535371  0.22626427  1
  Se  Se5  1  0.63434192  0.32491036  0.77572396  1
  Se  Se6  1  0.82584437  0.70625221  0.25650196  1
  Se  Se7  1  0.17445312  0.29215750  0.74162179  1
loop_
_geom_bond_atom_site_label_1
_geom_bond_atom_site_label_2
_geom_bond_distance
_geom_bond_site_symmetry_2
Re0 Se4 2.465016 1_555
Re0 Se5 2.474790 1_555
Re0 Se2 2.498686 1_555
Re0 Se7 2.537172 1_555
Re0 Se0 2.590878 1_555
Re0 Se1 2.612593 1_545
Re1 Se4 2.470496 1_555
Re1 Se5 2.472482 1_555
Re1 Se3 2.493059 1_555
Re1 Se6 2.542665 1_555
Re1 Se1 2.593435 1_555
Re1 Se0 2.612831 1_565
Re2 Se6 2.420021 1_555
Re2 Se5 2.474715 1_555
Re2 Se2 2.496534 1_555
Re2 Se7 2.539245 1_655
Re2 Se0 2.601343 1_655
Re2 Se3 2.648524 1_645
Se1 Tc0 2.595302 1_655
Se2 Tc0 2.641796 1_645
Se3 Tc0 2.495385 1_555
Se4 Tc0 2.466589 1_555
Se6 Tc0 2.545205 1_655
Se7 Tc0 2.423925 1_555
