# generated using pymatgen
data_Y4B16Mo3W
_symmetry_space_group_name_H-M   'P 1'
_cell_length_a   3.62232965
_cell_length_b   6.03029402
_cell_length_c   11.64734850
_cell_angle_alpha   89.99780022
_cell_angle_beta   90.00000000
_cell_angle_gamma   90.00000000
_symmetry_Int_Tables_number   1
_chemical_formula_structural   Y4B16Mo3W
_chemical_formula_sum   'Y4 B16 Mo3 W1'
_cell_volume   254.42133542
_cell_formula_units_Z   1
loop_
 _symmetry_equiv_pos_site_id
 _symmetry_equiv_pos_as_xyz
  1  'x, y, z'
loop_
 _atom_site_type_symbol
 _atom_site_label
 _atom_site_symmetry_multiplicity
 _atom_site_fract_x
 _atom_site_fract_y
 _atom_site_fract_z
 _atom_site_occupancy
  Y  Y0  1  0.00000000  0.12721295  0.14934874  1
  Y  Y1  1  0.00000000  0.87267462  0.85036078  1
  Y  Y2  1  0.00000000  0.62756701  0.35043645  1
  Y  Y3  1  0.00000000  0.37279789  0.64971041  1
  B  B0  1  0.50000000  0.02337751  0.69323950  1
  B  B1  1  0.50000000  0.97572683  0.30670391  1
  B  B2  1  0.50000000  0.52367810  0.80677159  1
  B  B3  1  0.50000000  0.47666149  0.19307127  1
  B  B4  1  0.50000000  0.11342606  0.54754147  1
  B  B5  1  0.50000000  0.88608811  0.45287556  1
  B  B6  1  0.50000000  0.61371005  0.95258899  1
  B  B7  1  0.50000000  0.38633205  0.04731407  1
  B  B8  1  0.50000000  0.28689196  0.31374904  1
  B  B9  1  0.50000000  0.71381390  0.68591717  1
  B  B10  1  0.50000000  0.78597853  0.18565997  1
  B  B11  1  0.50000000  0.21382881  0.81414383  1
  B  B12  1  0.50000000  0.36636553  0.46838860  1
  B  B13  1  0.50000000  0.63422714  0.53218278  1
  B  B14  1  0.50000000  0.86613223  0.03182689  1
  B  B15  1  0.50000000  0.13381505  0.96810141  1
  Mo  Mo0  1  0.00000000  0.87056626  0.58349348  1
  Mo  Mo1  1  0.00000000  0.62864300  0.08296068  1
  Mo  Mo2  1  0.00000000  0.37125963  0.91710678  1
  W  W0  1  0.00000000  0.12922428  0.41650864  1
loop_
_geom_bond_atom_site_label_1
_geom_bond_atom_site_label_2
_geom_bond_distance
_geom_bond_site_symmetry_2
B0 B4 1.781739 1_555
B0 B11 1.817194 1_555
B0 B9 1.868710 1_545
B0 Mo0 2.400727 1_545
B0 Mo0 2.400727 1_645
B0 Y1 2.730411 1_645
B0 Y1 2.730411 1_545
B0 Y3 2.824391 1_555
B0 Y3 2.824391 1_655
B1 B5 1.786244 1_555
B1 B10 1.815780 1_555
B1 B8 1.878214 1_565
B1 W0 2.402682 1_565
B1 W0 2.402682 1_665
B1 Y0 2.733812 1_565
B1 Y0 2.733812 1_665
B1 Y2 2.819152 1_655
B1 Y2 2.819152 1_555
B2 B6 1.783072 1_555
B2 B9 1.815473 1_555
B2 Mo2 2.403443 1_655
B2 Mo2 2.403443 1_555
B2 Y3 2.730345 1_555
B2 Y3 2.730345 1_655
B2 Y1 2.822640 1_555
B2 Y1 2.822640 1_655
B3 B7 1.782952 1_555
B3 B8 1.812483 1_555
B3 Mo1 2.401038 1_555
B3 Mo1 2.401038 1_655
B3 Y2 2.732770 1_555
B3 Y2 2.732770 1_655
B3 Y0 2.824952 1_555
B3 Y0 2.824952 1_655
B4 B5 1.759336 1_545
B4 Mo0 2.366522 1_645
B4 Mo0 2.366522 1_545
B4 W0 2.370364 1_655
B4 W0 2.370364 1_555
B4 Y3 2.672625 1_655
B4 Y3 2.672625 1_555
B5 Mo0 2.367189 1_555
B5 Mo0 2.367189 1_655
B5 W0 2.368413 1_665
B5 W0 2.368413 1_565
B5 Y2 2.671031 1_555
B5 Y2 2.671031 1_655
B6 B7 1.759891 1_556
B6 Mo2 2.364052 1_555
B6 Mo2 2.364052 1_655
B6 Mo1 2.365213 1_656
B6 Mo1 2.365213 1_556
B6 Y1 2.671443 1_655
B6 Y1 2.671443 1_555
B7 Mo1 2.363868 1_655
B7 Mo1 2.363868 1_555
B7 Mo2 2.364016 1_554
B7 Mo2 2.364016 1_654
B7 Y0 2.670984 1_655
B7 Y0 2.670984 1_555
B8 W0 2.369965 1_555
B8 W0 2.369965 1_655
B8 Y2 2.771898 1_555
B8 Y2 2.771898 1_655
B8 Y0 2.806105 1_655
B8 Y0 2.806105 1_555
B9 Mo0 2.365780 1_555
B9 Mo0 2.365780 1_655
B9 Y3 2.772565 1_555
B9 Y3 2.772565 1_655
B9 Y1 2.804759 1_655
B9 Y1 2.804759 1_555
B10 B14 1.855780 1_555
B10 B3 1.867266 1_555
B10 Mo1 2.368844 1_655
B10 Mo1 2.368844 1_555
B10 Y0 2.773703 1_565
B10 Y0 2.773703 1_665
B10 Y2 2.806435 1_655
B10 Y2 2.806435 1_555
B11 B15 1.856961 1_555
B11 B2 1.870451 1_555
B11 Mo2 2.370626 1_555
B11 Mo2 2.370626 1_655
B11 Y1 2.773177 1_645
B11 Y1 2.773177 1_545
B11 Y3 2.804851 1_555
B11 Y3 2.804851 1_655
B12 B13 1.778014 1_555
B12 B4 1.782237 1_555
B12 B8 1.863828 1_555
B12 W0 2.385479 1_655
B12 W0 2.385479 1_555
B12 Y2 2.765605 1_555
B12 Y2 2.765605 1_655
B12 Y3 2.782450 1_555
B12 Y3 2.782450 1_655
B13 B5 1.777608 1_555
B13 B9 1.853818 1_555
B13 Mo0 2.380909 1_555
B13 Mo0 2.380909 1_655
B13 Y3 2.763935 1_655
B13 Y3 2.763935 1_555
B13 Y2 2.786224 1_655
B13 Y2 2.786224 1_555
B14 B15 1.776648 1_564
B14 B6 1.780142 1_554
B14 Mo1 2.384524 1_655
B14 Mo1 2.384524 1_555
B14 Y0 2.762763 1_565
B14 Y0 2.762763 1_665
B14 Y1 2.783733 1_654
B14 Y1 2.783733 1_554
B15 B7 1.780478 1_556
B15 Mo2 2.383958 1_655
B15 Mo2 2.383958 1_555
B15 Y1 2.764232 1_645
B15 Y1 2.764232 1_545
B15 Y0 2.781804 1_556
B15 Y0 2.781804 1_656
Mo0 W0 2.493080 1_565
Mo0 Y2 3.084812 1_555
Mo0 Y3 3.099160 1_555
Mo0 Y1 3.108323 1_555
Mo0 Y3 3.125293 1_565
Mo1 Mo2 2.478089 1_554
Mo1 Y1 3.082996 1_554
Mo1 Y0 3.104395 1_565
Mo1 Y2 3.115390 1_555
Mo1 Y0 3.121044 1_555
Mo2 Y0 3.079376 1_556
Mo2 Y1 3.105524 1_545
Mo2 Y3 3.114472 1_555
Mo2 Y1 3.121992 1_555
W0 Y3 3.087942 1_555
W0 Y2 3.102096 1_555
W0 Y0 3.111729 1_555
W0 Y2 3.121520 1_545
