# generated using pymatgen
data_Rb2NaLuAs2
_symmetry_space_group_name_H-M   'P 1'
_cell_length_a   9.33217459
_cell_length_b   9.33217530
_cell_length_c   9.33217502
_cell_angle_alpha   135.45684583
_cell_angle_beta   135.88330410
_cell_angle_gamma   64.49144878
_symmetry_Int_Tables_number   1
_chemical_formula_structural   Rb2NaLuAs2
_chemical_formula_sum   'Rb4 Na2 Lu2 As4'
_cell_volume   391.34886542
_cell_formula_units_Z   2
loop_
 _symmetry_equiv_pos_site_id
 _symmetry_equiv_pos_as_xyz
  1  'x, y, z'
loop_
 _atom_site_type_symbol
 _atom_site_label
 _atom_site_symmetry_multiplicity
 _atom_site_fract_x
 _atom_site_fract_y
 _atom_site_fract_z
 _atom_site_occupancy
  Rb  Rb0  1  0.68107951  0.39719464  0.71611513  1
  Rb  Rb1  1  0.81892049  0.03503662  0.21611513  1
  Rb  Rb2  1  0.18107951  0.96496338  0.78388487  1
  Rb  Rb3  1  0.31892049  0.60280536  0.28388487  1
  Na  Na0  1  0.75000000  0.00000000  0.75000000  1
  Na  Na1  1  0.25000000  0.00000000  0.25000000  1
  Lu  Lu0  1  0.25000000  0.50000000  0.75000000  1
  Lu  Lu1  1  0.75000000  0.50000000  0.25000000  1
  As  As0  1  0.40632173  0.18734450  0.78102277  1
  As  As1  1  0.59367827  0.81265550  0.21897723  1
  As  As2  1  0.09367827  0.37470104  0.28102277  1
  As  As3  1  0.90632173  0.62529896  0.71897723  1
loop_
_geom_bond_atom_site_label_1
_geom_bond_atom_site_label_2
_geom_bond_distance
_geom_bond_site_symmetry_2
As0 Lu1 2.767107 1_556
As0 Lu0 2.767107 1_555
As0 Na0 3.034665 1_555
As0 Na1 3.034665 1_555
As0 Rb2 3.555672 1_545
As0 Rb3 3.777589 1_545
As0 Rb1 3.794371 1_556
As0 Rb1 3.794378 1_455
As0 Rb3 3.815311 1_556
As1 Lu0 2.767107 1_554
As1 Lu1 2.767107 1_555
As1 Na1 3.034665 1_565
As1 Na0 3.034665 1_565
As1 Rb1 3.555672 1_565
As1 Rb0 3.777589 1_565
As1 Rb2 3.794371 1_554
As1 Rb2 3.794378 1_655
As1 Rb0 3.815311 1_554
As2 Lu1 2.767107 1_455
As2 Lu0 2.767107 1_555
As2 Na0 3.034665 1_454
As2 Na1 3.034665 1_555
As2 Rb3 3.555664 1_555
As2 Rb2 3.777589 1_544
As2 Rb0 3.794378 1_555
As2 Rb0 3.794378 1_454
As2 Rb2 3.815305 1_555
As3 Lu0 2.767107 1_655
As3 Lu1 2.767107 1_555
As3 Na1 3.034665 1_666
As3 Na0 3.034665 1_565
As3 Rb0 3.555664 1_555
As3 Rb1 3.777589 1_566
As3 Rb3 3.794378 1_555
As3 Rb3 3.794378 1_656
As3 Rb1 3.815305 1_555
