# generated using pymatgen
data_Lu4As6Rh7
_symmetry_space_group_name_H-M   'P 1'
_cell_length_a   7.15538702
_cell_length_b   7.15538748
_cell_length_c   7.15538721
_cell_angle_alpha   109.47121988
_cell_angle_beta   109.47122116
_cell_angle_gamma   109.47122273
_symmetry_Int_Tables_number   1
_chemical_formula_structural   Lu4As6Rh7
_chemical_formula_sum   'Lu4 As6 Rh7'
_cell_volume   282.01845244
_cell_formula_units_Z   1
loop_
 _symmetry_equiv_pos_site_id
 _symmetry_equiv_pos_as_xyz
  1  'x, y, z'
loop_
 _atom_site_type_symbol
 _atom_site_label
 _atom_site_symmetry_multiplicity
 _atom_site_fract_x
 _atom_site_fract_y
 _atom_site_fract_z
 _atom_site_occupancy
  Lu  Lu0  1  0.50000000  0.50000000  0.50000000  1
  Lu  Lu1  1  0.00000000  0.50000000  0.00000000  1
  Lu  Lu2  1  0.50000000  0.00000000  0.00000000  1
  Lu  Lu3  1  0.00000000  0.00000000  0.50000000  1
  As  As0  1  0.68310262  1.00000000  0.68310262  1
  As  As1  1  0.68310262  0.68310262  1.00000000  1
  As  As2  1  0.31689738  0.31689738  0.00000000  1
  As  As3  1  1.00000000  0.68310262  0.68310262  1
  As  As4  1  0.00000000  0.31689738  0.31689738  1
  As  As5  1  0.31689738  0.00000000  0.31689738  1
  Rh  Rh0  1  0.75000000  0.50000000  0.25000000  1
  Rh  Rh1  1  0.50000000  0.25000000  0.75000000  1
  Rh  Rh2  1  0.75000000  0.25000000  0.50000000  1
  Rh  Rh3  1  0.25000000  0.75000000  0.50000000  1
  Rh  Rh4  1  0.25000000  0.50000000  0.75000000  1
  Rh  Rh5  1  0.50000000  0.75000000  0.25000000  1
  Rh  Rh6  1  0.00000000  0.00000000  0.00000000  1
loop_
_geom_bond_atom_site_label_1
_geom_bond_atom_site_label_2
_geom_bond_distance
_geom_bond_site_symmetry_2
Lu0 Rh4 2.921175 1_555
Lu0 Rh0 2.921175 1_555
Lu0 Rh1 2.921175 1_555
Lu0 Rh5 2.921175 1_555
Lu0 Rh3 2.921175 1_555
Lu0 Rh2 2.921175 1_555
Lu1 Rh1 2.921174 1_454
Lu1 Rh5 2.921174 1_555
Lu1 Rh3 2.921175 1_555
Lu1 Rh2 2.921175 1_454
Lu1 Rh0 2.921175 1_455
Lu1 Rh4 2.921175 1_554
Lu2 Rh3 2.921175 1_544
Lu2 Rh2 2.921175 1_555
Lu2 Rh5 2.921175 1_545
Lu2 Rh1 2.921175 1_554
Lu2 Rh4 2.921175 1_544
Lu2 Rh0 2.921175 1_555
Lu3 Rh1 2.921174 1_555
Lu3 Rh5 2.921174 1_445
Lu3 Rh4 2.921175 1_555
Lu3 Rh0 2.921175 1_445
Lu3 Rh2 2.921175 1_455
Lu3 Rh3 2.921175 1_545
As0 Rh3 2.560343 1_555
As0 Rh5 2.560343 1_555
As0 Rh2 2.560343 1_565
As0 Rh1 2.560343 1_565
As0 Rh6 2.618311 1_666
As0 Lu3 2.973007 1_665
As0 Lu2 2.973007 1_566
As0 Lu1 2.973007 1_666
As0 Lu0 2.973007 1_555
As1 Rh4 2.560343 1_555
As1 Rh5 2.560343 1_556
As1 Rh0 2.560343 1_556
As1 Rh1 2.560343 1_555
As1 Rh6 2.618311 1_666
As1 Lu3 2.973007 1_666
As1 Lu0 2.973007 1_555
As1 Lu1 2.973007 1_656
As1 Lu2 2.973007 1_566
As2 Rh0 2.560343 1_555
As2 Rh1 2.560343 1_554
As2 Rh4 2.560343 1_554
As2 Rh5 2.560343 1_555
As2 Rh6 2.618311 1_555
As2 Lu3 2.973007 1_554
As2 Lu0 2.973007 1_555
As2 Lu1 2.973007 1_555
As2 Lu2 2.973007 1_555
As3 Rh0 2.560343 1_555
As3 Rh3 2.560343 1_655
As3 Rh2 2.560343 1_555
As3 Rh4 2.560343 1_655
As3 Rh6 2.618311 1_666
As3 Lu2 2.973007 1_666
As3 Lu0 2.973007 1_555
As3 Lu1 2.973007 1_656
As3 Lu3 2.973007 1_665
As4 Rh4 2.560343 1_555
As4 Rh2 2.560343 1_455
As4 Rh3 2.560343 1_555
As4 Rh0 2.560343 1_455
As4 Rh6 2.618311 1_555
As4 Lu2 2.973007 1_455
As4 Lu0 2.973007 1_555
As4 Lu1 2.973007 1_555
As4 Lu3 2.973007 1_555
As5 Rh2 2.560343 1_555
As5 Rh1 2.560343 1_555
As5 Rh3 2.560343 1_545
As5 Rh5 2.560343 1_545
As5 Rh6 2.618311 1_555
As5 Lu3 2.973007 1_555
As5 Lu2 2.973007 1_555
As5 Lu1 2.973007 1_545
As5 Lu0 2.973007 1_555
