# generated using pymatgen
data_Ir3Pd(Pb2O7)2
_symmetry_space_group_name_H-M   'P 1'
_cell_length_a   7.27976350
_cell_length_b   7.29597654
_cell_length_c   7.29597657
_cell_angle_alpha   59.99999982
_cell_angle_beta   59.92629933
_cell_angle_gamma   59.92629464
_symmetry_Int_Tables_number   1
_chemical_formula_structural   Ir3Pd(Pb2O7)2
_chemical_formula_sum   'Ir3 Pd1 Pb4 O14'
_cell_volume   273.70606403
_cell_formula_units_Z   1
loop_
 _symmetry_equiv_pos_site_id
 _symmetry_equiv_pos_as_xyz
  1  'x, y, z'
loop_
 _atom_site_type_symbol
 _atom_site_label
 _atom_site_symmetry_multiplicity
 _atom_site_fract_x
 _atom_site_fract_y
 _atom_site_fract_z
 _atom_site_occupancy
  Ir  Ir0  1  0.62500000  0.12500000  0.62500000  1
  Ir  Ir1  1  0.62500000  0.62500000  0.12500000  1
  Ir  Ir2  1  0.62500000  0.62500000  0.62500000  1
  Pd  Pd0  1  0.12500000  0.62500000  0.62500000  1
  Pb  Pb0  1  0.62500000  0.12500000  0.12500000  1
  Pb  Pb1  1  0.12500000  0.62500000  0.12500000  1
  Pb  Pb2  1  0.12500000  0.12500000  0.62500000  1
  Pb  Pb3  1  0.12500000  0.12500000  0.12500000  1
  O  O0  1  0.70438424  0.70724797  0.29418439  1
  O  O1  1  0.29752365  0.28965244  0.70641146  1
  O  O2  1  0.70438424  0.29418439  0.70724797  1
  O  O3  1  0.29752365  0.70641146  0.28965244  1
  O  O4  1  0.29752365  0.70641146  0.70641146  1
  O  O5  1  0.70438424  0.29418439  0.29418439  1
  O  O6  1  0.54561576  0.54275203  0.95581561  1
  O  O7  1  0.95247635  0.96034756  0.54358854  1
  O  O8  1  0.54561576  0.95581561  0.54275203  1
  O  O9  1  0.95247635  0.54358854  0.96034756  1
  O  O10  1  0.95247635  0.54358854  0.54358854  1
  O  O11  1  0.54561576  0.95581561  0.95581561  1
  O  O12  1  0.24715323  0.25094926  0.25094926  1
  O  O13  1  0.00284677  0.99905074  0.99905074  1
loop_
_geom_bond_atom_site_label_1
_geom_bond_atom_site_label_2
_geom_bond_distance
_geom_bond_site_symmetry_2
Ir0 O7 1.975680 1_545
Ir0 O1 1.975680 1_555
Ir0 O11 2.005218 1_545
Ir0 O5 2.005218 1_555
Ir0 O2 2.005223 1_555
Ir0 O8 2.005223 1_545
Ir1 O9 1.975680 1_554
Ir1 O3 1.975680 1_555
Ir1 O5 2.005218 1_555
Ir1 O11 2.005218 1_554
Ir1 O0 2.005223 1_555
Ir1 O6 2.005223 1_554
Ir2 O10 1.975681 1_555
Ir2 O4 1.975681 1_555
Ir2 O8 2.005217 1_555
Ir2 O2 2.005217 1_555
Ir2 O6 2.005217 1_555
Ir2 O0 2.005217 1_555
O0 Pb0 2.516895 1_565
O0 Pb1 2.524017 1_655
O1 Pd0 2.032515 1_555
O1 Pb2 2.519247 1_555
O1 Pb3 2.519252 1_556
O2 Pb0 2.516895 1_556
O2 Pb2 2.524017 1_655
O3 Pd0 2.032515 1_555
O3 Pb1 2.519247 1_555
O3 Pb3 2.519252 1_565
O4 Pd0 2.032510 1_555
O4 Pb2 2.519253 1_565
O4 Pb1 2.519253 1_556
O5 Pb0 2.516902 1_555
O5 Pb3 2.524018 1_655
O6 Pb0 2.516895 1_556
O6 Pb1 2.524017 1_556
O7 Pd0 2.032515 1_655
O7 Pb2 2.519247 1_665
O7 Pb3 2.519252 1_665
O8 Pb0 2.516895 1_565
O8 Pb2 2.524017 1_565
O9 Pd0 2.032515 1_655
O9 Pb1 2.519247 1_656
O9 Pb3 2.519252 1_656
O10 Pd0 2.032510 1_655
O10 Pb2 2.519253 1_655
O10 Pb1 2.519253 1_655
O11 Pb0 2.516902 1_566
O11 Pb3 2.524018 1_566
O12 Pb1 2.227539 1_555
O12 Pb2 2.227539 1_555
O12 Pb3 2.227545 1_555
O12 Pb0 2.243379 1_555
O13 Pb1 2.227539 1_556
O13 Pb2 2.227539 1_565
O13 Pb3 2.227545 1_566
O13 Pb0 2.243379 1_466
