# generated using pymatgen
data_BaTa2MoS6
_symmetry_space_group_name_H-M   'P 1'
_cell_length_a   5.75219405
_cell_length_b   5.75219330
_cell_length_c   16.02486819
_cell_angle_alpha   90.00000000
_cell_angle_beta   90.00000000
_cell_angle_gamma   119.99999860
_symmetry_Int_Tables_number   1
_chemical_formula_structural   BaTa2MoS6
_chemical_formula_sum   'Ba2 Ta4 Mo2 S12'
_cell_volume   459.18966433
_cell_formula_units_Z   2
loop_
 _symmetry_equiv_pos_site_id
 _symmetry_equiv_pos_as_xyz
  1  'x, y, z'
loop_
 _atom_site_type_symbol
 _atom_site_label
 _atom_site_symmetry_multiplicity
 _atom_site_fract_x
 _atom_site_fract_y
 _atom_site_fract_z
 _atom_site_occupancy
  Ba  Ba0  1  0.00000000  0.00000000  0.50000000  1
  Ba  Ba1  1  0.00000000  0.00000000  0.00000000  1
  Ta  Ta0  1  0.33333300  0.66666700  0.25000000  1
  Ta  Ta1  1  0.66666700  0.33333300  0.75000000  1
  Ta  Ta2  1  0.66666700  0.33333300  0.25000000  1
  Ta  Ta3  1  0.33333300  0.66666700  0.75000000  1
  Mo  Mo0  1  0.00000000  0.00000000  0.25000000  1
  Mo  Mo1  1  0.00000000  0.00000000  0.75000000  1
  S  S0  1  0.33502433  1.00000000  0.15358398  1
  S  S1  1  0.00000000  0.33502433  0.15358398  1
  S  S2  1  0.66497567  0.66497567  0.15358398  1
  S  S3  1  0.33502433  0.33502433  0.65358398  1
  S  S4  1  0.66497567  0.66497567  0.34641602  1
  S  S5  1  0.66497567  0.00000000  0.65358398  1
  S  S6  1  1.00000000  0.66497567  0.65358398  1
  S  S7  1  1.00000000  0.66497567  0.84641602  1
  S  S8  1  0.33502433  0.33502433  0.84641602  1
  S  S9  1  0.00000000  0.33502433  0.34641602  1
  S  S10  1  0.33502433  1.00000000  0.34641602  1
  S  S11  1  0.66497567  0.00000000  0.84641602  1
loop_
_geom_bond_atom_site_label_1
_geom_bond_atom_site_label_2
_geom_bond_distance
_geom_bond_site_symmetry_2
Ba0 S6 3.125881 1_445
Ba0 S9 3.125881 1_555
Ba0 S3 3.125881 1_555
Ba0 S4 3.125881 1_445
Ba0 S5 3.125881 1_455
Ba0 S10 3.125881 1_545
Ba1 S1 3.125881 1_555
Ba1 S7 3.125881 1_444
Ba1 S2 3.125881 1_445
Ba1 S8 3.125881 1_554
Ba1 S0 3.125881 1_545
Ba1 S11 3.125881 1_454
Mo0 S9 2.470021 1_555
Mo0 S1 2.470021 1_555
Mo0 S4 2.470021 1_445
Mo0 S2 2.470021 1_445
Mo0 S10 2.470021 1_545
Mo0 S0 2.470021 1_545
Mo1 S7 2.470021 1_445
Mo1 S6 2.470021 1_445
Mo1 S8 2.470021 1_555
Mo1 S3 2.470021 1_555
Mo1 S11 2.470021 1_455
Mo1 S5 2.470021 1_455
S0 Ta0 2.458666 1_555
S0 Ta2 2.458669 1_565
S1 Ta2 2.458666 1_455
S1 Ta0 2.458669 1_555
S2 Ta2 2.458671 1_555
S2 Ta0 2.458671 1_555
S3 Ta3 2.458671 1_555
S3 Ta1 2.458671 1_555
S4 Ta2 2.458671 1_555
S4 Ta0 2.458671 1_555
S5 Ta1 2.458666 1_555
S5 Ta3 2.458669 1_545
S6 Ta3 2.458666 1_655
S6 Ta1 2.458669 1_555
S7 Ta3 2.458666 1_655
S7 Ta1 2.458669 1_555
S8 Ta3 2.458671 1_555
S8 Ta1 2.458671 1_555
S9 Ta2 2.458666 1_455
S9 Ta0 2.458669 1_555
S10 Ta0 2.458666 1_555
S10 Ta2 2.458669 1_565
S11 Ta1 2.458666 1_555
S11 Ta3 2.458669 1_545
