# generated using pymatgen
data_Y2H6RuPt
_symmetry_space_group_name_H-M   'P 1'
_cell_length_a   5.99500013
_cell_length_b   5.99499931
_cell_length_c   4.68088599
_cell_angle_alpha   90.00000000
_cell_angle_beta   90.00000000
_cell_angle_gamma   142.82646698
_symmetry_Int_Tables_number   1
_chemical_formula_structural   Y2H6RuPt
_chemical_formula_sum   'Y2 H6 Ru1 Pt1'
_cell_volume   101.65048976
_cell_formula_units_Z   1
loop_
 _symmetry_equiv_pos_site_id
 _symmetry_equiv_pos_as_xyz
  1  'x, y, z'
loop_
 _atom_site_type_symbol
 _atom_site_label
 _atom_site_symmetry_multiplicity
 _atom_site_fract_x
 _atom_site_fract_y
 _atom_site_fract_z
 _atom_site_occupancy
  Y  Y0  1  0.63072382  0.36927618  0.25000000  1
  Y  Y1  1  0.37123341  0.62876659  0.75000000  1
  H  H0  1  0.18615246  0.81384654  0.00800008  1
  H  H1  1  0.41963006  0.58036894  0.25000000  1
  H  H2  1  0.18615246  0.81384654  0.49199992  1
  H  H3  1  0.81272138  0.18727762  0.50281600  1
  H  H4  1  0.58108958  0.41890942  0.75000000  1
  H  H5  1  0.81272138  0.18727762  0.99718400  1
  Ru  Ru0  1  0.91788353  0.08211547  0.25000000  1
  Pt  Pt0  1  0.08168793  0.91831107  0.75000000  1
loop_
_geom_bond_atom_site_label_1
_geom_bond_atom_site_label_2
_geom_bond_distance
_geom_bond_site_symmetry_2
H0 Pt0 1.693490 1_554
H0 Y0 2.308966 1_455
H0 Y0 2.308969 1_565
H0 Y1 2.425413 1_554
H1 Ru0 1.910952 1_565
H1 Ru0 1.910952 1_455
H1 Y0 2.398996 1_555
H1 Y1 2.404203 1_555
H1 Y1 2.404203 1_554
H2 Pt0 1.693490 1_555
H2 Y0 2.308966 1_455
H2 Y0 2.308969 1_565
H2 Y1 2.425413 1_555
H3 Ru0 1.681896 1_555
H3 Y1 2.330719 1_545
H3 Y1 2.330722 1_655
H3 Y0 2.382954 1_555
H4 Pt0 1.910861 1_545
H4 Pt0 1.910861 1_655
H4 Y1 2.384943 1_555
H4 Y0 2.407457 1_555
H4 Y0 2.407457 1_556
H5 Ru0 1.681896 1_556
H5 Y1 2.330719 1_545
H5 Y1 2.330722 1_655
H5 Y0 2.382954 1_556
