# generated using pymatgen
data_Sr2Ga3PRh4
_symmetry_space_group_name_H-M   'P 1'
_cell_length_a   8.32367700
_cell_length_b   7.22961352
_cell_length_c   5.94450970
_cell_angle_alpha   77.69295578
_cell_angle_beta   57.31171724
_cell_angle_gamma   44.24730491
_symmetry_Int_Tables_number   1
_chemical_formula_structural   Sr2Ga3PRh4
_chemical_formula_sum   'Sr2 Ga3 P1 Rh4'
_cell_volume   200.66948204
_cell_formula_units_Z   1
loop_
 _symmetry_equiv_pos_site_id
 _symmetry_equiv_pos_as_xyz
  1  'x, y, z'
loop_
 _atom_site_type_symbol
 _atom_site_label
 _atom_site_symmetry_multiplicity
 _atom_site_fract_x
 _atom_site_fract_y
 _atom_site_fract_z
 _atom_site_occupancy
  Sr  Sr0  1  0.50237294  0.49762706  0.50237294  1
  Sr  Sr1  1  0.75141737  0.74858263  0.75141737  1
  Ga  Ga0  1  0.18066426  0.81933574  0.18066426  1
  Ga  Ga1  1  0.43220249  0.06779751  0.43220249  1
  Ga  Ga2  1  0.07149339  0.42850661  0.07149339  1
  P  P0  1  0.82251491  0.17748509  0.82251491  1
  Rh  Rh0  1  0.09408043  0.13208391  0.88968094  1
  Rh  Rh1  1  0.88968094  0.88415472  0.09408043  1
  Rh  Rh2  1  0.11161458  0.13801310  0.39395768  1
  Rh  Rh3  1  0.39395768  0.35641464  0.11161458  1
loop_
_geom_bond_atom_site_label_1
_geom_bond_atom_site_label_2
_geom_bond_distance
_geom_bond_site_symmetry_2
Ga0 Rh3 2.409785 1_555
Ga0 Rh2 2.409785 1_565
Ga0 Rh0 2.443042 1_564
Ga0 Rh1 2.443042 1_455
Ga0 Sr0 3.309049 1_555
Ga0 Sr0 3.500087 1_554
Ga0 Sr0 3.500087 1_465
Ga0 Sr1 3.650136 1_455
Ga0 Sr1 3.650136 1_554
Ga1 Rh0 2.435212 1_555
Ga1 Rh1 2.435212 1_545
Ga1 Rh3 2.468906 1_555
Ga1 Rh2 2.468907 1_555
Ga1 Sr1 3.283398 1_545
Ga1 Sr1 3.513594 1_544
Ga1 Sr1 3.513595 1_455
Ga1 Sr0 3.686159 1_545
Ga1 Sr0 3.686159 1_555
Ga2 Rh1 2.446764 1_455
Ga2 Rh0 2.446764 1_554
Ga2 Rh2 2.483366 1_555
Ga2 Rh3 2.483366 1_555
Ga2 Sr1 3.292256 1_454
Ga2 Sr1 3.508914 1_455
Ga2 Sr1 3.508915 1_544
Ga2 Sr0 3.646825 1_554
Ga2 Sr0 3.646825 1_455
P0 Rh2 2.250909 1_655
P0 Rh3 2.250909 1_556
P0 Rh1 2.287505 1_546
P0 Rh0 2.287505 1_655
P0 Sr0 3.292934 1_555
P0 Sr0 3.508557 1_556
P0 Sr0 3.508557 1_645
P0 Sr1 3.688038 1_555
P0 Sr1 3.688038 1_545
Rh0 Sr0 3.253716 1_456
Rh0 Sr1 3.381367 1_455
Rh0 Sr0 3.406956 1_545
Rh0 Sr1 3.560898 1_545
Rh1 Sr0 3.253716 1_654
Rh1 Sr1 3.381368 1_554
Rh1 Sr0 3.406956 1_565
Rh1 Sr1 3.560897 1_555
Rh2 Sr1 3.338549 1_455
Rh2 Sr0 3.344621 1_455
Rh2 Sr0 3.441995 1_545
Rh2 Sr1 3.465415 1_544
Rh3 Sr1 3.338549 1_544
Rh3 Sr0 3.344620 1_554
Rh3 Sr0 3.441995 1_555
Rh3 Sr1 3.465415 1_455
