# generated using pymatgen
data_Fe2CoO4
_symmetry_space_group_name_H-M   'P 1'
_cell_length_a   5.96010801
_cell_length_b   5.96010801
_cell_length_c   5.96010801
_cell_angle_alpha   119.97186973
_cell_angle_beta   119.80660374
_cell_angle_gamma   90.19201429
_symmetry_Int_Tables_number   1
_chemical_formula_structural   Fe2CoO4
_chemical_formula_sum   'Fe4 Co2 O8'
_cell_volume   149.95816171
_cell_formula_units_Z   2
loop_
 _symmetry_equiv_pos_site_id
 _symmetry_equiv_pos_as_xyz
  1  'x, y, z'
loop_
 _atom_site_type_symbol
 _atom_site_label
 _atom_site_symmetry_multiplicity
 _atom_site_fract_x
 _atom_site_fract_y
 _atom_site_fract_z
 _atom_site_occupancy
  Fe  Fe0  1  0.62253000  0.87253000  0.75000000  1
  Fe  Fe1  1  0.37747000  0.12747000  0.25000000  1
  Fe  Fe2  1  0.00000000  0.50000000  0.50000000  1
  Fe  Fe3  1  0.50000000  0.50000000  0.00000000  1
  Co  Co0  1  0.00000000  0.00000000  0.50000000  1
  Co  Co1  1  0.00000000  0.50000000  0.00000000  1
  O  O0  1  0.23127700  0.25378800  0.52251100  1
  O  O1  1  0.78983600  0.25594600  0.53388900  1
  O  O2  1  0.23127700  0.70876600  0.97748900  1
  O  O3  1  0.22205700  0.25594600  0.96611100  1
  O  O4  1  0.77794300  0.74405400  0.03388900  1
  O  O5  1  0.76872300  0.29123400  0.02251100  1
  O  O6  1  0.21016400  0.74405400  0.46611100  1
  O  O7  1  0.76872300  0.74621200  0.47748900  1
loop_
_geom_bond_atom_site_label_1
_geom_bond_atom_site_label_2
_geom_bond_distance
_geom_bond_site_symmetry_2
Fe0 O4 2.012065 1_556
Fe0 O6 2.012070 1_555
Fe0 O7 2.038034 1_555
Fe0 O5 2.038034 1_566
Fe1 O3 2.012065 1_554
Fe1 O1 2.012070 1_555
Fe1 O2 2.038034 1_544
Fe1 O0 2.038034 1_555
Fe2 O2 2.024330 1_555
Fe2 O0 2.024330 1_555
Fe2 O5 2.024330 1_455
Fe2 O7 2.024330 1_455
Fe2 O1 2.063611 1_455
Fe2 O6 2.063611 1_555
Fe3 O5 2.024330 1_555
Fe3 O7 2.024330 1_555
Fe3 O0 2.024330 1_554
Fe3 O2 2.024330 1_554
Fe3 O4 2.063615 1_555
Fe3 O3 2.063615 1_554
Co0 O0 1.950757 1_555
Co0 O7 1.950757 1_445
Co0 O6 1.973151 1_545
Co0 O1 1.973151 1_455
Co0 O3 1.973155 1_555
Co0 O4 1.973155 1_445
Co1 O2 1.950757 1_554
Co1 O5 1.950757 1_455
Co1 O3 1.973155 1_554
Co1 O4 1.973155 1_455
Co1 O6 1.973155 1_555
Co1 O1 1.973155 1_454
