# generated using pymatgen
data_Rb5As2Au
_symmetry_space_group_name_H-M   'P 1'
_cell_length_a   5.99638233
_cell_length_b   5.99638190
_cell_length_c   19.80368654
_cell_angle_alpha   90.00000000
_cell_angle_beta   90.00000000
_cell_angle_gamma   120.00000240
_symmetry_Int_Tables_number   1
_chemical_formula_structural   Rb5As2Au
_chemical_formula_sum   'Rb10 As4 Au2'
_cell_volume   616.67346971
_cell_formula_units_Z   2
loop_
 _symmetry_equiv_pos_site_id
 _symmetry_equiv_pos_as_xyz
  1  'x, y, z'
loop_
 _atom_site_type_symbol
 _atom_site_label
 _atom_site_symmetry_multiplicity
 _atom_site_fract_x
 _atom_site_fract_y
 _atom_site_fract_z
 _atom_site_occupancy
  Rb  Rb0  1  0.33333300  0.66666700  0.54901429  1
  Rb  Rb1  1  0.66666700  0.33333300  0.04901429  1
  Rb  Rb2  1  0.66666700  0.33333300  0.45098571  1
  Rb  Rb3  1  0.33333300  0.66666700  0.95098571  1
  Rb  Rb4  1  0.00000000  0.00000000  0.14953132  1
  Rb  Rb5  1  0.00000000  0.00000000  0.64953132  1
  Rb  Rb6  1  0.00000000  0.00000000  0.85046868  1
  Rb  Rb7  1  0.00000000  0.00000000  0.35046868  1
  Rb  Rb8  1  0.33333300  0.66666700  0.75000000  1
  Rb  Rb9  1  0.66666700  0.33333300  0.25000000  1
  As  As0  1  0.33333300  0.66666700  0.37609772  1
  As  As1  1  0.66666700  0.33333300  0.87609772  1
  As  As2  1  0.66666700  0.33333300  0.62390228  1
  As  As3  1  0.33333300  0.66666700  0.12390228  1
  Au  Au0  1  0.33333300  0.66666700  0.25000000  1
  Au  Au1  1  0.66666700  0.33333300  0.75000000  1
loop_
_geom_bond_atom_site_label_1
_geom_bond_atom_site_label_2
_geom_bond_distance
_geom_bond_site_symmetry_2
As0 Au0 2.497200 1_555
As0 Rb0 3.424385 1_555
As0 Rb7 3.499016 1_565
As0 Rb7 3.499021 1_555
As0 Rb7 3.499022 1_665
As0 Rb2 3.766294 1_565
As0 Rb2 3.766294 1_455
As0 Rb2 3.766304 1_555
As1 Au1 2.497200 1_555
As1 Rb1 3.424385 1_556
As1 Rb6 3.499016 1_655
As1 Rb6 3.499021 1_665
As1 Rb6 3.499022 1_555
As1 Rb3 3.766294 1_545
As1 Rb3 3.766294 1_655
As1 Rb3 3.766304 1_555
As2 Au1 2.497200 1_555
As2 Rb2 3.424385 1_555
As2 Rb5 3.499016 1_655
As2 Rb5 3.499021 1_665
As2 Rb5 3.499022 1_555
As2 Rb0 3.766294 1_545
As2 Rb0 3.766294 1_655
As2 Rb0 3.766304 1_555
As3 Au0 2.497200 1_555
As3 Rb3 3.424385 1_554
As3 Rb4 3.499016 1_565
As3 Rb4 3.499021 1_555
As3 Rb4 3.499022 1_665
As3 Rb1 3.766294 1_565
As3 Rb1 3.766294 1_455
As3 Rb1 3.766304 1_555
Au0 Rb9 3.462009 1_565
Au0 Rb9 3.462009 1_455
Au0 Rb9 3.462020 1_555
Au1 Rb8 3.462009 1_545
Au1 Rb8 3.462009 1_655
Au1 Rb8 3.462020 1_555
