# generated using pymatgen
data_LiCdH6Ir
_symmetry_space_group_name_H-M   'P 1'
_cell_length_a   6.80872494
_cell_length_b   6.80872494
_cell_length_c   6.80872494
_cell_angle_alpha   90.00000000
_cell_angle_beta   90.00000000
_cell_angle_gamma   90.00000000
_symmetry_Int_Tables_number   1
_chemical_formula_structural   LiCdH6Ir
_chemical_formula_sum   'Li4 Cd4 H24 Ir4'
_cell_volume   315.64387731
_cell_formula_units_Z   4
loop_
 _symmetry_equiv_pos_site_id
 _symmetry_equiv_pos_as_xyz
  1  'x, y, z'
loop_
 _atom_site_type_symbol
 _atom_site_label
 _atom_site_symmetry_multiplicity
 _atom_site_fract_x
 _atom_site_fract_y
 _atom_site_fract_z
 _atom_site_occupancy
  Li  Li0  1  0.00000000  0.00000000  0.50000000  1
  Li  Li1  1  0.00000000  0.50000000  0.00000000  1
  Li  Li2  1  0.50000000  0.00000000  0.00000000  1
  Li  Li3  1  0.00000000  0.00000000  0.00000000  1
  Cd  Cd0  1  0.50000000  0.50000000  0.50000000  1
  Cd  Cd1  1  0.00000000  0.50000000  0.50000000  1
  Cd  Cd2  1  0.50000000  0.00000000  0.50000000  1
  Cd  Cd3  1  0.50000000  0.50000000  0.00000000  1
  H  H0  1  0.76229725  0.76229725  0.49608859  1
  H  H1  1  0.23770275  0.23770275  0.49608859  1
  H  H2  1  0.01091941  0.75839830  0.75839830  1
  H  H3  1  0.24160170  0.98908059  0.75839830  1
  H  H4  1  0.75839830  0.01091941  0.75839830  1
  H  H5  1  0.98908059  0.24160170  0.75839830  1
  H  H6  1  0.76229725  0.49608859  0.76229725  1
  H  H7  1  0.49608859  0.76229725  0.76229725  1
  H  H8  1  0.50391141  0.23770275  0.76229725  1
  H  H9  1  0.23770275  0.50391141  0.76229725  1
  H  H10  1  0.24160170  0.75839830  0.98908059  1
  H  H11  1  0.75839830  0.24160170  0.98908059  1
  H  H12  1  0.75839830  0.75839830  0.01091941  1
  H  H13  1  0.24160170  0.24160170  0.01091941  1
  H  H14  1  0.23770275  0.49608859  0.23770275  1
  H  H15  1  0.50391141  0.76229725  0.23770275  1
  H  H16  1  0.49608859  0.23770275  0.23770275  1
  H  H17  1  0.76229725  0.50391141  0.23770275  1
  H  H18  1  0.98908059  0.75839830  0.24160170  1
  H  H19  1  0.75839830  0.98908059  0.24160170  1
  H  H20  1  0.24160170  0.01091941  0.24160170  1
  H  H21  1  0.01091941  0.24160170  0.24160170  1
  H  H22  1  0.23770275  0.76229725  0.50391141  1
  H  H23  1  0.76229725  0.23770275  0.50391141  1
  Ir  Ir0  1  0.25283119  0.74716881  0.74716881  1
  Ir  Ir1  1  0.74716881  0.25283119  0.74716881  1
  Ir  Ir2  1  0.74716881  0.74716881  0.25283119  1
  Ir  Ir3  1  0.25283119  0.25283119  0.25283119  1
loop_
_geom_bond_atom_site_label_1
_geom_bond_atom_site_label_2
_geom_bond_distance
_geom_bond_site_symmetry_2
Cd1 H9 2.410305 1_555
Cd1 H22 2.410305 1_555
Cd1 H0 2.410305 1_455
Cd1 H6 2.410305 1_455
Cd1 H14 2.410305 1_555
Cd1 H1 2.410305 1_555
Cd1 H17 2.410305 1_455
Cd1 H23 2.410305 1_455
Cd1 H2 2.489225 1_555
Cd1 H5 2.489225 1_455
Cd1 H18 2.489225 1_455
Cd1 H21 2.489225 1_555
Cd2 H8 2.410305 1_555
Cd2 H23 2.410305 1_555
Cd2 H0 2.410305 1_545
Cd2 H7 2.410305 1_545
Cd2 H16 2.410305 1_555
Cd2 H1 2.410305 1_555
Cd2 H15 2.410305 1_545
Cd2 H22 2.410305 1_545
Cd2 H4 2.489225 1_555
Cd2 H3 2.489225 1_545
Cd2 H19 2.489225 1_545
Cd2 H20 2.489225 1_555
Cd3 H17 2.410305 1_555
Cd3 H15 2.410305 1_555
Cd3 H6 2.410305 1_554
Cd3 H7 2.410305 1_554
Cd3 H16 2.410305 1_555
Cd3 H14 2.410305 1_555
Cd3 H8 2.410305 1_554
Cd3 H9 2.410305 1_554
Cd3 H12 2.489225 1_555
Cd3 H11 2.489225 1_554
Cd3 H10 2.489225 1_554
Cd3 H13 2.489225 1_555
H0 Ir2 1.662666 1_555
H0 Li0 2.288993 1_665
H1 Ir3 1.662666 1_555
H1 Li0 2.288993 1_555
H2 Ir0 1.650656 1_555
H2 Li3 2.327568 1_566
H3 Ir0 1.650656 1_555
H3 Li3 2.327568 1_566
H4 Ir1 1.650656 1_555
H4 Li3 2.327568 1_656
H5 Ir1 1.650656 1_555
H5 Li3 2.327568 1_656
H6 Ir1 1.662666 1_555
H6 Li1 2.288993 1_656
H7 Ir0 1.662666 1_555
H7 Li2 2.288993 1_566
H8 Ir1 1.662666 1_555
H8 Li2 2.288993 1_556
H9 Ir0 1.662666 1_555
H9 Li1 2.288993 1_556
H10 Ir0 1.650656 1_555
H10 Li3 2.327568 1_566
H11 Ir1 1.650656 1_555
H11 Li3 2.327568 1_656
H12 Ir2 1.650656 1_555
H12 Li3 2.327568 1_665
H13 Ir3 1.650656 1_555
H13 Li3 2.327568 1_555
H14 Ir3 1.662666 1_555
H14 Li1 2.288993 1_555
H15 Ir2 1.662666 1_555
H15 Li2 2.288993 1_565
H16 Ir3 1.662666 1_555
H16 Li2 2.288993 1_555
H17 Ir2 1.662666 1_555
H17 Li1 2.288993 1_655
H18 Ir2 1.650656 1_555
H18 Li3 2.327568 1_665
H19 Ir2 1.650656 1_555
H19 Li3 2.327568 1_665
H20 Ir3 1.650656 1_555
H20 Li3 2.327568 1_555
H21 Ir3 1.650656 1_555
H21 Li3 2.327568 1_555
H22 Ir0 1.662666 1_555
H22 Li0 2.288993 1_565
H23 Ir1 1.662666 1_555
H23 Li0 2.288993 1_655
