# generated using pymatgen
data_RbLiPdSe5
_symmetry_space_group_name_H-M   'P 1'
_cell_length_a   7.55321654
_cell_length_b   6.31013165
_cell_length_c   9.22263746
_cell_angle_alpha   78.81037901
_cell_angle_beta   90.00000000
_cell_angle_gamma   90.00000000
_symmetry_Int_Tables_number   1
_chemical_formula_structural   RbLiPdSe5
_chemical_formula_sum   'Rb2 Li2 Pd2 Se10'
_cell_volume   431.21138248
_cell_formula_units_Z   2
loop_
 _symmetry_equiv_pos_site_id
 _symmetry_equiv_pos_as_xyz
  1  'x, y, z'
loop_
 _atom_site_type_symbol
 _atom_site_label
 _atom_site_symmetry_multiplicity
 _atom_site_fract_x
 _atom_site_fract_y
 _atom_site_fract_z
 _atom_site_occupancy
  Rb  Rb0  1  0.75000000  0.74077622  0.04308835  1
  Rb  Rb1  1  0.25000000  0.25922378  0.95691165  1
  Li  Li0  1  0.75000000  0.88040256  0.59841911  1
  Li  Li1  1  0.25000000  0.11959744  0.40158089  1
  Pd  Pd0  1  0.50000000  0.50000000  0.50000000  1
  Pd  Pd1  1  0.00000000  0.50000000  0.50000000  1
  Se  Se0  1  0.25000000  0.93285366  0.67830050  1
  Se  Se1  1  0.98375530  0.32782366  0.28090318  1
  Se  Se2  1  0.75000000  0.28337214  0.62042553  1
  Se  Se3  1  0.25000000  0.71662786  0.37957447  1
  Se  Se4  1  0.51624470  0.32782366  0.28090318  1
  Se  Se5  1  0.25000000  0.71085680  0.12600781  1
  Se  Se6  1  0.75000000  0.28914320  0.87399219  1
  Se  Se7  1  0.75000000  0.06714634  0.32169950  1
  Se  Se8  1  0.01624470  0.67217634  0.71909682  1
  Se  Se9  1  0.48375530  0.67217634  0.71909682  1
loop_
_geom_bond_atom_site_label_1
_geom_bond_atom_site_label_2
_geom_bond_distance
_geom_bond_site_symmetry_2
Rb0 Se6 3.504102 1_554
Rb0 Se6 3.508724 1_564
Rb0 Se1 3.535506 1_555
Rb0 Se4 3.535506 1_555
Rb0 Se7 3.591320 1_565
Rb0 Se8 3.696215 1_654
Rb0 Se9 3.696215 1_554
Rb0 Se5 3.850610 1_555
Rb0 Se5 3.850610 1_655
Rb1 Se5 3.504102 1_556
Rb1 Se5 3.508724 1_546
Rb1 Se9 3.535506 1_555
Rb1 Se8 3.535506 1_555
Rb1 Se0 3.591320 1_545
Rb1 Se4 3.696215 1_556
Rb1 Se1 3.696215 1_456
Rb1 Se6 3.850610 1_555
Rb1 Se6 3.850610 1_455
Li0 Se8 2.538049 1_655
Li0 Se9 2.538049 1_555
Li0 Se2 2.589841 1_565
Li0 Se7 2.595097 1_565
Li1 Se4 2.538049 1_555
Li1 Se1 2.538049 1_455
Li1 Se3 2.589841 1_545
Li1 Se0 2.595097 1_545
Pd0 Se3 2.465469 1_555
Pd0 Se2 2.465469 1_555
Pd0 Se9 2.475987 1_555
Pd0 Se4 2.475987 1_555
Pd1 Se3 2.465469 1_555
Pd1 Se2 2.465469 1_455
Pd1 Se8 2.475987 1_555
Pd1 Se1 2.475987 1_455
Se0 Se9 2.392581 1_555
Se0 Se8 2.392581 1_555
Se1 Se7 2.392581 1_555
Se2 Se6 2.345892 1_555
Se3 Se5 2.345892 1_555
Se4 Se7 2.392581 1_555
