# generated using pymatgen
data_Ba2SnO4
_symmetry_space_group_name_H-M   'P 1'
_cell_length_a   4.17178727
_cell_length_b   4.17178703
_cell_length_c   7.31943990
_cell_angle_alpha   106.55763022
_cell_angle_beta   106.55764445
_cell_angle_gamma   89.99999889
_symmetry_Int_Tables_number   1
_chemical_formula_structural   Ba2SnO4
_chemical_formula_sum   'Ba2 Sn1 O4'
_cell_volume   116.58253493
_cell_formula_units_Z   1
loop_
 _symmetry_equiv_pos_site_id
 _symmetry_equiv_pos_as_xyz
  1  'x, y, z'
loop_
 _atom_site_type_symbol
 _atom_site_label
 _atom_site_symmetry_multiplicity
 _atom_site_fract_x
 _atom_site_fract_y
 _atom_site_fract_z
 _atom_site_occupancy
  Ba  Ba0  1  0.64604746  0.64604746  0.29209592  1
  Ba  Ba1  1  0.35395254  0.35395254  0.70790408  1
  Sn  Sn0  1  -0.00000000  -0.00000000  0.00000000  1
  O  O0  1  0.84533587  0.84533587  0.69067074  1
  O  O1  1  0.15466413  0.15466413  0.30932926  1
  O  O2  1  0.50000000  -0.00000000  0.00000000  1
  O  O3  1  -0.00000000  0.50000000  0.00000000  1
loop_
_geom_bond_atom_site_label_1
_geom_bond_atom_site_label_2
_geom_bond_distance
_geom_bond_site_symmetry_2
Ba0 O0 2.669925 1_555
Ba0 O3 2.859974 1_555
Ba0 O2 2.859974 1_555
Ba0 O2 2.859976 1_565
Ba0 O3 2.859977 1_655
Ba0 O1 2.952157 1_655
Ba0 O1 2.952157 1_555
Ba0 O1 2.952157 1_565
Ba0 O1 2.952157 1_665
Ba1 O1 2.669925 1_555
Ba1 O3 2.859974 1_656
Ba1 O2 2.859974 1_566
Ba1 O2 2.859976 1_556
Ba1 O3 2.859977 1_556
Ba1 O0 2.952157 1_455
Ba1 O0 2.952157 1_555
Ba1 O0 2.952157 1_545
Ba1 O0 2.952157 1_445
O0 Sn0 2.072098 1_666
O1 Sn0 2.072098 1_555
O2 Sn0 2.085894 1_555
O2 Sn0 2.085894 1_655
O3 Sn0 2.085894 1_565
O3 Sn0 2.085894 1_555
