# generated using pymatgen
data_Zr6Al16CoPd6
_symmetry_space_group_name_H-M   'P 1'
_cell_length_a   8.69666475
_cell_length_b   8.69666506
_cell_length_c   8.69666434
_cell_angle_alpha   59.99999901
_cell_angle_beta   59.99999785
_cell_angle_gamma   59.99999973
_symmetry_Int_Tables_number   1
_chemical_formula_structural   Zr6Al16CoPd6
_chemical_formula_sum   'Zr6 Al16 Co1 Pd6'
_cell_volume   465.09660776
_cell_formula_units_Z   1
loop_
 _symmetry_equiv_pos_site_id
 _symmetry_equiv_pos_as_xyz
  1  'x, y, z'
loop_
 _atom_site_type_symbol
 _atom_site_label
 _atom_site_symmetry_multiplicity
 _atom_site_fract_x
 _atom_site_fract_y
 _atom_site_fract_z
 _atom_site_occupancy
  Zr  Zr0  1  0.68808093  0.31191907  0.31191907  1
  Zr  Zr1  1  0.68808093  0.31191907  0.68808093  1
  Zr  Zr2  1  0.68808093  0.68808093  0.31191907  1
  Zr  Zr3  1  0.31191907  0.68808093  0.68808093  1
  Zr  Zr4  1  0.31191907  0.68808093  0.31191907  1
  Zr  Zr5  1  0.31191907  0.31191907  0.68808093  1
  Al  Al0  1  0.65139466  0.11620245  0.11620245  1
  Al  Al1  1  0.11620245  0.65139466  0.11620245  1
  Al  Al2  1  0.11620245  0.11620245  0.65139466  1
  Al  Al3  1  0.11620245  0.11620245  0.11620245  1
  Al  Al4  1  0.34860534  0.88379755  0.88379755  1
  Al  Al5  1  0.88379755  0.34860534  0.88379755  1
  Al  Al6  1  0.88379755  0.88379755  0.34860534  1
  Al  Al7  1  0.88379755  0.88379755  0.88379755  1
  Al  Al8  1  0.00262013  0.33246029  0.33246029  1
  Al  Al9  1  0.33246029  0.00262013  0.33246029  1
  Al  Al10  1  0.33246029  0.33246029  0.00262013  1
  Al  Al11  1  0.33246029  0.33246029  0.33246029  1
  Al  Al12  1  0.99737987  0.66753971  0.66753971  1
  Al  Al13  1  0.66753971  0.99737987  0.66753971  1
  Al  Al14  1  0.66753971  0.66753971  0.99737987  1
  Al  Al15  1  0.66753971  0.66753971  0.66753971  1
  Co  Co0  1  0.00000000  0.00000000  0.00000000  1
  Pd  Pd0  1  0.50000000  0.00000000  0.00000000  1
  Pd  Pd1  1  0.50000000  0.00000000  0.50000000  1
  Pd  Pd2  1  0.50000000  0.50000000  0.00000000  1
  Pd  Pd3  1  0.00000000  0.50000000  0.50000000  1
  Pd  Pd4  1  0.00000000  0.50000000  0.00000000  1
  Pd  Pd5  1  0.00000000  0.00000000  0.50000000  1
loop_
_geom_bond_atom_site_label_1
_geom_bond_atom_site_label_2
_geom_bond_distance
_geom_bond_site_symmetry_2
Zr0 Zr5 3.271353 1_555
Zr0 Zr1 3.271353 1_555
Zr0 Zr4 3.271354 1_555
Zr0 Zr2 3.271354 1_555
Zr1 Zr2 3.271354 1_555
Zr1 Zr5 3.271354 1_555
Zr1 Zr3 3.271354 1_555
Zr2 Zr3 3.271353 1_555
Zr2 Zr4 3.271354 1_555
Zr3 Zr4 3.271353 1_555
Zr3 Zr5 3.271354 1_555
Zr4 Zr5 3.271354 1_555
Al0 Co0 2.475376 1_655
Al0 Pd1 2.730991 1_555
Al0 Pd2 2.730991 1_555
Al0 Pd0 2.731005 1_555
Al0 Al11 2.805633 1_555
Al0 Al9 2.805638 1_555
Al0 Al10 2.805638 1_555
Al0 Al6 2.858309 1_545
Al0 Al5 2.858310 1_554
Al0 Al7 2.858334 1_544
Al0 Zr0 3.143109 1_555
Al0 Zr1 3.143123 1_554
Al0 Zr2 3.143124 1_545
Al1 Co0 2.475376 1_565
Al1 Pd3 2.730991 1_555
Al1 Pd2 2.730991 1_555
Al1 Pd4 2.731005 1_555
Al1 Al11 2.805633 1_555
Al1 Al8 2.805638 1_555
Al1 Al10 2.805638 1_555
Al1 Al6 2.858309 1_455
Al1 Al4 2.858310 1_554
Al1 Al7 2.858334 1_454
Al1 Zr4 3.143109 1_555
Al1 Zr3 3.143123 1_554
Al1 Zr2 3.143124 1_455
Al2 Co0 2.475376 1_556
Al2 Pd1 2.730991 1_555
Al2 Pd3 2.730991 1_555
Al2 Pd5 2.731005 1_555
Al2 Al9 2.805638 1_555
Al2 Al8 2.805638 1_555
Al2 Al5 2.858309 1_455
Al2 Al4 2.858309 1_545
Al2 Al7 2.858334 1_445
Al2 Zr5 3.143109 1_555
Al2 Zr1 3.143124 1_455
Al2 Zr3 3.143124 1_545
Al3 Co0 2.475390 1_555
Al3 Pd5 2.730990 1_555
Al3 Pd0 2.730990 1_555
Al3 Pd4 2.730990 1_555
Al3 Al9 2.805630 1_555
Al3 Al8 2.805630 1_555
Al3 Al5 2.858334 1_454
Al3 Al4 2.858334 1_544
Al3 Al6 2.858334 1_445
Al3 Zr5 3.143120 1_554
Al3 Zr0 3.143120 1_455
Al3 Zr4 3.143120 1_545
Al4 Co0 2.475376 1_566
Al4 Pd1 2.730991 1_565
Al4 Pd2 2.730991 1_556
Al4 Pd0 2.731005 1_566
Al4 Zr3 3.143109 1_555
Al4 Zr4 3.143123 1_556
Al4 Zr5 3.143124 1_565
Al5 Co0 2.475376 1_656
Al5 Pd3 2.730991 1_655
Al5 Pd2 2.730991 1_556
Al5 Pd4 2.731005 1_656
Al5 Zr1 3.143109 1_555
Al5 Zr0 3.143123 1_556
Al5 Zr5 3.143124 1_655
Al6 Co0 2.475376 1_665
Al6 Pd1 2.730991 1_565
Al6 Pd3 2.730991 1_655
Al6 Pd5 2.731005 1_665
Al6 Zr2 3.143109 1_555
Al6 Zr4 3.143124 1_655
Al6 Zr0 3.143124 1_565
Al7 Co0 2.475390 1_666
Al7 Pd5 2.730990 1_665
Al7 Pd0 2.730990 1_566
Al7 Pd4 2.730990 1_656
Al7 Zr2 3.143120 1_556
Al7 Zr3 3.143120 1_655
Al7 Zr1 3.143120 1_565
Al8 Pd3 2.510575 1_555
Al8 Pd4 2.510582 1_555
Al8 Pd5 2.510582 1_555
Al8 Al9 2.868509 1_555
Al8 Zr1 2.925008 1_455
Al8 Zr2 2.925008 1_455
Al8 Zr0 2.925013 1_455
Al9 Pd1 2.510575 1_555
Al9 Pd0 2.510582 1_555
Al9 Pd5 2.510582 1_555
Al9 Zr3 2.925008 1_545
Al9 Zr2 2.925008 1_545
Al9 Zr4 2.925013 1_545
Al10 Pd2 2.510575 1_555
Al10 Pd4 2.510582 1_555
Al10 Pd0 2.510582 1_555
Al10 Al3 2.805631 1_555
Al10 Al8 2.868509 1_555
Al10 Al11 2.868509 1_555
Al10 Al9 2.868509 1_555
Al10 Zr1 2.925008 1_554
Al10 Zr3 2.925008 1_554
Al10 Zr5 2.925013 1_554
Al11 Pd2 2.510580 1_555
Al11 Pd3 2.510580 1_555
Al11 Pd1 2.510580 1_555
Al11 Al2 2.805633 1_555
Al11 Al8 2.868509 1_555
Al11 Al9 2.868509 1_555
Al11 Zr5 2.925004 1_555
Al11 Zr0 2.925004 1_555
Al11 Zr4 2.925004 1_555
Al12 Pd3 2.510575 1_655
Al12 Pd4 2.510582 1_656
Al12 Pd5 2.510582 1_665
Al12 Al7 2.805630 1_555
Al12 Al6 2.805638 1_555
Al12 Al5 2.805638 1_555
Al12 Al14 2.868509 1_555
Al12 Al15 2.868509 1_555
Al12 Al13 2.868509 1_555
Al12 Zr4 2.925008 1_655
Al12 Zr5 2.925008 1_655
Al12 Zr3 2.925013 1_655
Al13 Pd1 2.510575 1_565
Al13 Pd0 2.510582 1_566
Al13 Pd5 2.510582 1_665
Al13 Al7 2.805630 1_555
Al13 Al6 2.805638 1_555
Al13 Al4 2.805638 1_555
Al13 Al14 2.868509 1_555
Al13 Al15 2.868509 1_555
Al13 Zr0 2.925008 1_565
Al13 Zr5 2.925008 1_565
Al13 Zr1 2.925013 1_565
Al14 Pd2 2.510575 1_556
Al14 Pd4 2.510582 1_656
Al14 Pd0 2.510582 1_566
Al14 Al7 2.805631 1_555
Al14 Al4 2.805638 1_555
Al14 Al5 2.805638 1_555
Al14 Al15 2.868509 1_555
Al14 Zr4 2.925008 1_556
Al14 Zr0 2.925008 1_556
Al14 Zr2 2.925013 1_556
Al15 Pd2 2.510580 1_556
Al15 Pd3 2.510580 1_655
Al15 Pd1 2.510580 1_565
Al15 Al6 2.805633 1_555
Al15 Al4 2.805633 1_555
Al15 Al5 2.805633 1_555
Al15 Zr2 2.925004 1_555
Al15 Zr3 2.925004 1_555
Al15 Zr1 2.925004 1_555
Pd0 Zr2 3.167639 1_545
Pd0 Zr5 3.167639 1_554
Pd0 Zr1 3.167639 1_554
Pd0 Zr4 3.167639 1_545
Pd1 Zr2 3.167639 1_545
Pd1 Zr5 3.167639 1_555
Pd1 Zr0 3.167639 1_555
Pd1 Zr3 3.167639 1_545
Pd2 Zr0 3.167639 1_555
Pd2 Zr4 3.167639 1_555
Pd2 Zr3 3.167639 1_554
Pd2 Zr1 3.167639 1_554
Pd3 Zr5 3.167639 1_555
Pd3 Zr2 3.167639 1_455
Pd3 Zr4 3.167639 1_555
Pd3 Zr1 3.167639 1_455
Pd4 Zr5 3.167639 1_554
Pd4 Zr2 3.167639 1_455
Pd4 Zr3 3.167639 1_554
Pd4 Zr0 3.167639 1_455
Pd5 Zr3 3.167639 1_545
Pd5 Zr0 3.167639 1_455
Pd5 Zr1 3.167639 1_455
Pd5 Zr4 3.167639 1_545
