# generated using pymatgen
data_Lu5TcRuO12
_symmetry_space_group_name_H-M   'P 1'
_cell_length_a   6.63832835
_cell_length_b   6.63832875
_cell_length_c   7.22887046
_cell_angle_alpha   73.99954438
_cell_angle_beta   73.99954463
_cell_angle_gamma   49.53363945
_symmetry_Int_Tables_number   1
_chemical_formula_structural   Lu5TcRuO12
_chemical_formula_sum   'Lu5 Tc1 Ru1 O12'
_cell_volume   230.91781325
_cell_formula_units_Z   1
loop_
 _symmetry_equiv_pos_site_id
 _symmetry_equiv_pos_as_xyz
  1  'x, y, z'
loop_
 _atom_site_type_symbol
 _atom_site_label
 _atom_site_symmetry_multiplicity
 _atom_site_fract_x
 _atom_site_fract_y
 _atom_site_fract_z
 _atom_site_occupancy
  Lu  Lu0  1  0.69874192  0.69876737  0.63978631  1
  Lu  Lu1  1  0.30123263  0.30125808  0.36021369  1
  Lu  Lu2  1  0.68822593  0.68606149  0.17566591  1
  Lu  Lu3  1  0.31393851  0.31177407  0.82433409  1
  Lu  Lu4  1  0.99891155  0.00108845  0.50000000  1
  Tc  Tc0  1  0.21792805  0.78207195  1.00000000  1
  Ru  Ru0  1  0.77405515  0.22594485  0.00000000  1
  O  O0  1  0.00467445  0.00093924  0.20479803  1
  O  O1  1  0.99906076  0.99532555  0.79520197  1
  O  O2  1  0.57746870  0.08775695  0.08827524  1
  O  O3  1  0.42501732  0.91124838  0.91240669  1
  O  O4  1  0.91224305  0.42253130  0.91172476  1
  O  O5  1  0.08875162  0.57498268  0.08759331  1
  O  O6  1  0.49900277  0.50004938  0.18281535  1
  O  O7  1  0.49995062  0.50099723  0.81718465  1
  O  O8  1  0.40449175  0.90059434  0.42797739  1
  O  O9  1  0.59597045  0.09906992  0.57111997  1
  O  O10  1  0.09940566  0.59550825  0.57202261  1
  O  O11  1  0.90093008  0.40402955  0.42888003  1
loop_
_geom_bond_atom_site_label_1
_geom_bond_atom_site_label_2
_geom_bond_distance
_geom_bond_site_symmetry_2
Lu0 O9 2.208988 1_565
Lu0 O10 2.210068 1_655
Lu0 O11 2.249843 1_555
Lu0 O8 2.252968 1_555
Lu0 O3 2.325214 1_555
Lu0 O4 2.326148 1_555
Lu0 O7 2.344630 1_555
Lu1 O11 2.208987 1_455
Lu1 O8 2.210068 1_545
Lu1 O9 2.249843 1_555
Lu1 O10 2.252969 1_555
Lu1 O5 2.325214 1_555
Lu1 O2 2.326148 1_555
Lu1 O6 2.344630 1_555
Lu2 O5 2.190705 1_655
Lu2 O2 2.198381 1_565
Lu2 O11 2.225697 1_555
Lu2 O8 2.226850 1_555
Lu2 O6 2.246688 1_555
Lu2 O3 2.404940 1_554
Lu2 O4 2.410689 1_554
Lu3 O3 2.190705 1_545
Lu3 O4 2.198381 1_455
Lu3 O9 2.225697 1_555
Lu3 O10 2.226850 1_555
Lu3 O7 2.246688 1_555
Lu3 O5 2.404940 1_556
Lu3 O2 2.410689 1_556
Lu4 O1 2.124013 1_545
Lu4 O0 2.124013 1_655
Lu4 O9 2.238341 1_555
Lu4 O11 2.238341 1_555
Lu4 O8 2.247737 1_645
Lu4 O10 2.247737 1_645
O0 Tc0 1.915055 1_544
O0 Ru0 1.956734 1_455
O1 Tc0 1.915055 1_655
O1 Ru0 1.956734 1_566
O2 Ru0 1.929721 1_555
O3 Tc0 1.943470 1_555
O4 Ru0 1.929721 1_556
O5 Tc0 1.943470 1_554
O6 Ru0 2.018476 1_555
O6 Tc0 2.047965 1_554
O7 Ru0 2.018476 1_556
O7 Tc0 2.047965 1_555
