# generated using pymatgen
data_Lu2As2Br2O5
_symmetry_space_group_name_H-M   'P 1'
_cell_length_a   6.82775012
_cell_length_b   7.55208291
_cell_length_c   9.56615977
_cell_angle_alpha   110.47600375
_cell_angle_beta   101.48247182
_cell_angle_gamma   101.73761783
_symmetry_Int_Tables_number   1
_chemical_formula_structural   Lu2As2Br2O5
_chemical_formula_sum   'Lu4 As4 Br4 O10'
_cell_volume   432.35765499
_cell_formula_units_Z   2
loop_
 _symmetry_equiv_pos_site_id
 _symmetry_equiv_pos_as_xyz
  1  'x, y, z'
loop_
 _atom_site_type_symbol
 _atom_site_label
 _atom_site_symmetry_multiplicity
 _atom_site_fract_x
 _atom_site_fract_y
 _atom_site_fract_z
 _atom_site_occupancy
  Lu  Lu0  1  0.40214500  0.69748406  0.51552633  1
  Lu  Lu1  1  0.59785500  0.30251594  0.48447367  1
  Lu  Lu2  1  0.86126439  0.77071685  0.34683788  1
  Lu  Lu3  1  0.13873561  0.22928315  0.65316212  1
  As  As0  1  0.87306063  0.84600422  0.73197786  1
  As  As1  1  0.12693937  0.15399578  0.26802214  1
  As  As2  1  0.68743392  0.22942815  0.78439205  1
  As  As3  1  0.31256608  0.77057185  0.21560795  1
  Br  Br0  1  0.24832817  0.64916397  0.75189091  1
  Br  Br1  1  0.75167183  0.35083603  0.24810909  1
  Br  Br2  1  0.79342870  0.72647445  0.04527697  1
  Br  Br3  1  0.20657130  0.27352555  0.95472303  1
  O  O0  1  0.83275151  0.27389820  0.65605525  1
  O  O1  1  0.16724849  0.72610180  0.34394475  1
  O  O2  1  0.54728299  0.78409155  0.34970674  1
  O  O3  1  0.45271701  0.21590845  0.65029326  1
  O  O4  1  0.64845880  0.95937408  0.70549179  1
  O  O5  1  0.35154120  0.04062592  0.29450821  1
  O  O6  1  0.69103935  0.61928083  0.58226946  1
  O  O7  1  0.30896065  0.38071917  0.41773054  1
  O  O8  1  0.98765724  0.91877323  0.60069625  1
  O  O9  1  0.01234276  0.08122677  0.39930375  1
loop_
_geom_bond_atom_site_label_1
_geom_bond_atom_site_label_2
_geom_bond_distance
_geom_bond_site_symmetry_2
Lu0 O7 2.140278 1_555
Lu0 O1 2.157356 1_555
Lu0 O6 2.209884 1_555
Lu0 O4 2.226609 1_555
Lu0 O2 2.239205 1_555
Lu1 O6 2.140278 1_555
Lu1 O0 2.157356 1_555
Lu1 O7 2.209884 1_555
Lu1 O5 2.226609 1_555
Lu1 O3 2.239205 1_555
Lu2 O2 2.171718 1_555
Lu2 O8 2.183033 1_555
Lu2 O1 2.186749 1_655
Lu2 O9 2.191173 1_665
Lu3 O3 2.171718 1_555
Lu3 O9 2.183033 1_555
Lu3 O0 2.186749 1_455
Lu3 O8 2.191173 1_445
As0 O8 1.786209 1_555
As0 O6 1.799248 1_555
As0 O4 1.918387 1_555
As1 O9 1.786209 1_555
As1 O7 1.799248 1_555
As1 O5 1.918387 1_555
As2 O0 1.800645 1_555
As2 O3 1.802113 1_555
As2 O4 1.849916 1_545
As3 O1 1.800645 1_555
As3 O2 1.802113 1_555
As3 O5 1.849916 1_565
Br0 Lu0 2.777679 1_555
Br0 Lu3 2.857439 1_555
Br1 Lu1 2.777679 1_555
Br1 Lu2 2.857439 1_555
Br2 Lu2 2.716402 1_555
Br3 Lu3 2.716402 1_555
