# generated using pymatgen
data_Na10SrSn12
_symmetry_space_group_name_H-M   'P 1'
_cell_length_a   9.74953114
_cell_length_b   9.74953114
_cell_length_c   9.74953114
_cell_angle_alpha   109.47122063
_cell_angle_beta   109.47122063
_cell_angle_gamma   109.47122063
_symmetry_Int_Tables_number   1
_chemical_formula_structural   Na10SrSn12
_chemical_formula_sum   'Na10 Sr1 Sn12'
_cell_volume   713.39375287
_cell_formula_units_Z   1
loop_
 _symmetry_equiv_pos_site_id
 _symmetry_equiv_pos_as_xyz
  1  'x, y, z'
loop_
 _atom_site_type_symbol
 _atom_site_label
 _atom_site_symmetry_multiplicity
 _atom_site_fract_x
 _atom_site_fract_y
 _atom_site_fract_z
 _atom_site_occupancy
  Na  Na0  1  0.25000000  0.50000000  0.75000000  1
  Na  Na1  1  0.38780429  0.38780429  0.38780429  1
  Na  Na2  1  0.00000000  0.61219571  0.00000000  1
  Na  Na3  1  0.61219571  0.00000000  0.00000000  1
  Na  Na4  1  0.00000000  0.00000000  0.61219571  1
  Na  Na5  1  0.75000000  0.50000000  0.25000000  1
  Na  Na6  1  0.25000000  0.75000000  0.50000000  1
  Na  Na7  1  0.75000000  0.25000000  0.50000000  1
  Na  Na8  1  0.50000000  0.25000000  0.75000000  1
  Na  Na9  1  0.50000000  0.75000000  0.25000000  1
  Sr  Sr0  1  0.00000000  0.00000000  0.00000000  1
  Sn  Sn0  1  0.62850219  0.62850219  0.81669586  1
  Sn  Sn1  1  -0.00000000  0.18819366  0.37149781  1
  Sn  Sn2  1  0.18819366  -0.00000000  0.37149781  1
  Sn  Sn3  1  0.81180634  0.18330414  0.81180634  1
  Sn  Sn4  1  0.18330414  0.81180634  0.81180634  1
  Sn  Sn5  1  0.81669586  0.62850219  0.62850219  1
  Sn  Sn6  1  -0.00000000  0.37149781  0.18819366  1
  Sn  Sn7  1  0.37149781  -0.00000000  0.18819366  1
  Sn  Sn8  1  0.62850219  0.81669586  0.62850219  1
  Sn  Sn9  1  0.18819366  0.37149781  0.00000000  1
  Sn  Sn10  1  0.37149781  0.18819366  0.00000000  1
  Sn  Sn11  1  0.81180634  0.81180634  0.18330414  1
loop_
_geom_bond_atom_site_label_1
_geom_bond_atom_site_label_2
_geom_bond_distance
_geom_bond_site_symmetry_2
Na0 Sn0 3.222601 1_555
Na0 Sn9 3.222601 1_556
Na0 Sn1 3.222601 1_555
Na0 Sn4 3.222601 1_555
Na1 Sn8 3.426941 1_555
Na1 Sn5 3.426941 1_555
Na1 Sn0 3.426941 1_555
Na1 Sn1 3.549018 1_555
Na1 Sn2 3.549018 1_555
Na1 Sn6 3.549018 1_555
Na1 Sn7 3.549018 1_555
Na1 Sn9 3.549018 1_555
Na1 Sn10 3.549018 1_555
Na2 Sn9 3.426941 1_555
Na2 Sn6 3.426941 1_555
Na2 Sn3 3.426941 1_454
Na2 Sn11 3.549018 1_455
Na2 Sn4 3.549018 1_554
Na2 Sn5 3.549018 1_454
Na2 Sn0 3.549018 1_454
Na2 Sn2 3.549018 1_565
Na2 Sn7 3.549018 1_565
Na3 Sn10 3.426941 1_555
Na3 Sn7 3.426941 1_555
Na3 Sn4 3.426941 1_544
Na3 Sn11 3.549018 1_545
Na3 Sn3 3.549018 1_554
Na3 Sn8 3.549018 1_544
Na3 Sn0 3.549018 1_544
Na3 Sn1 3.549018 1_655
Na3 Sn6 3.549018 1_655
Na4 Sn1 3.426941 1_555
Na4 Sn2 3.426941 1_555
Na4 Sn11 3.426941 1_445
Na4 Sn4 3.549018 1_545
Na4 Sn3 3.549018 1_455
Na4 Sn8 3.549018 1_445
Na4 Sn5 3.549018 1_445
Na4 Sn9 3.549018 1_556
Na4 Sn10 3.549018 1_556
Na5 Sn5 3.222601 1_555
Na5 Sn10 3.222601 1_555
Na5 Sn6 3.222601 1_655
Na5 Sn11 3.222601 1_555
Na6 Sn8 3.222601 1_555
Na6 Sn6 3.222601 1_555
Na6 Sn2 3.222601 1_565
Na6 Sn4 3.222601 1_555
Na7 Sn5 3.222601 1_555
Na7 Sn1 3.222601 1_655
Na7 Sn7 3.222601 1_555
Na7 Sn3 3.222601 1_555
Na8 Sn0 3.222601 1_555
Na8 Sn10 3.222601 1_556
Na8 Sn2 3.222601 1_555
Na8 Sn3 3.222601 1_555
Na9 Sn8 3.222601 1_555
Na9 Sn7 3.222601 1_565
Na9 Sn9 3.222601 1_555
Na9 Sn11 3.222601 1_555
Sn0 Sn11 2.918370 1_556
Sn0 Sn8 2.996216 1_555
Sn0 Sn5 2.996216 1_555
Sn0 Sr0 3.471962 1_666
Sn1 Sn6 2.918370 1_555
Sn1 Sn2 2.996216 1_555
Sn1 Sn11 2.996216 1_445
Sn1 Sr0 3.471962 1_555
Sn2 Sn7 2.918370 1_555
Sn2 Sr0 3.471962 1_555
Sn3 Sn8 2.918370 1_545
Sn3 Sn9 2.996216 1_656
Sn3 Sn6 2.996216 1_656
Sn3 Sr0 3.471962 1_656
Sn4 Sn5 2.918370 1_455
Sn4 Sn7 2.996216 1_566
Sn4 Sr0 3.471962 1_566
Sn5 Sn8 2.996216 1_555
Sn5 Sr0 3.471962 1_666
Sn6 Sn9 2.996216 1_555
Sn6 Sr0 3.471962 1_555
Sn7 Sr0 3.471962 1_555
Sn8 Sr0 3.471962 1_666
Sn9 Sr0 3.471962 1_555
Sn10 Sn9 2.918370 1_555
Sn10 Sn7 2.996216 1_555
Sn10 Sn4 2.996216 1_544
Sn10 Sr0 3.471962 1_555
Sn11 Sn2 2.996216 1_665
Sn11 Sr0 3.471962 1_665
