# generated using pymatgen
data_Mg32Al36Ag13
_symmetry_space_group_name_H-M   'P 1'
_cell_length_a   12.58802219
_cell_length_b   12.58802219
_cell_length_c   12.58802219
_cell_angle_alpha   109.47122063
_cell_angle_beta   109.47122063
_cell_angle_gamma   109.47122063
_symmetry_Int_Tables_number   1
_chemical_formula_structural   Mg32Al36Ag13
_chemical_formula_sum   'Mg32 Al36 Ag13'
_cell_volume   1535.50278574
_cell_formula_units_Z   1
loop_
 _symmetry_equiv_pos_site_id
 _symmetry_equiv_pos_as_xyz
  1  'x, y, z'
loop_
 _atom_site_type_symbol
 _atom_site_label
 _atom_site_symmetry_multiplicity
 _atom_site_fract_x
 _atom_site_fract_y
 _atom_site_fract_z
 _atom_site_occupancy
  Mg  Mg0  1  0.37582100  0.37582100  0.37582100  1
  Mg  Mg1  1  0.40282700  0.50000000  0.90282700  1
  Mg  Mg2  1  0.50000000  0.90282700  0.40282700  1
  Mg  Mg3  1  0.90282700  0.40282700  0.50000000  1
  Mg  Mg4  1  0.50000000  0.09717300  0.59717300  1
  Mg  Mg5  1  0.09717300  0.59717300  0.50000000  1
  Mg  Mg6  1  0.59717300  0.50000000  0.09717300  1
  Mg  Mg7  1  0.19733200  0.50000000  0.69733200  1
  Mg  Mg8  1  0.50000000  0.69733200  0.19733200  1
  Mg  Mg9  1  0.69733200  0.19733200  0.50000000  1
  Mg  Mg10  1  0.50000000  0.30266800  0.80266800  1
  Mg  Mg11  1  0.30266800  0.80266800  0.50000000  1
  Mg  Mg12  1  0.80266800  0.50000000  0.30266800  1
  Mg  Mg13  1  0.00000000  0.62417900  0.00000000  1
  Mg  Mg14  1  0.62417900  0.00000000  0.00000000  1
  Mg  Mg15  1  0.00000000  0.00000000  0.62417900  1
  Mg  Mg16  1  0.30510500  0.42150600  0.11640100  1
  Mg  Mg17  1  0.00000000  0.37582100  0.00000000  1
  Mg  Mg18  1  0.37582100  0.00000000  0.00000000  1
  Mg  Mg19  1  0.00000000  0.00000000  0.37582100  1
  Mg  Mg20  1  0.62417900  0.62417900  0.62417900  1
  Mg  Mg21  1  0.69489500  0.81129500  0.11640100  1
  Mg  Mg22  1  0.30510500  0.18870500  0.88359900  1
  Mg  Mg23  1  0.18870500  0.88359900  0.30510500  1
  Mg  Mg24  1  0.11640100  0.69489500  0.81129500  1
  Mg  Mg25  1  0.88359900  0.30510500  0.18870500  1
  Mg  Mg26  1  0.42150600  0.11640100  0.30510500  1
  Mg  Mg27  1  0.11640100  0.30510500  0.42150600  1
  Mg  Mg28  1  0.81129500  0.11640100  0.69489500  1
  Mg  Mg29  1  0.88359900  0.69489500  0.57849400  1
  Mg  Mg30  1  0.57849400  0.88359900  0.69489500  1
  Mg  Mg31  1  0.69489500  0.57849400  0.88359900  1
  Al  Al0  1  0.64976000  0.40613200  0.43557900  1
  Al  Al1  1  0.35024000  0.78581900  0.75637100  1
  Al  Al2  1  0.97055200  0.21418100  0.56442100  1
  Al  Al3  1  0.21418100  0.56442100  0.97055200  1
  Al  Al4  1  0.75637100  0.35024000  0.78581900  1
  Al  Al5  1  0.56442100  0.97055200  0.21418100  1
  Al  Al6  1  0.40613200  0.43557900  0.64976000  1
  Al  Al7  1  0.43557900  0.64976000  0.40613200  1
  Al  Al8  1  0.78581900  0.75637100  0.35024000  1
  Al  Al9  1  0.24362900  0.02944800  0.59386800  1
  Al  Al10  1  0.59386800  0.24362900  0.02944800  1
  Al  Al11  1  0.02944800  0.59386800  0.24362900  1
  Al  Al12  1  0.35024000  0.59386800  0.56442100  1
  Al  Al13  1  0.90149800  0.05937900  0.15788100  1
  Al  Al14  1  0.09850200  0.94062100  0.84211900  1
  Al  Al15  1  0.94062100  0.84211900  0.09850200  1
  Al  Al16  1  0.15788100  0.90149800  0.05937900  1
  Al  Al17  1  0.84211900  0.09850200  0.94062100  1
  Al  Al18  1  0.25638300  0.15788100  0.09850200  1
  Al  Al19  1  0.15788100  0.09850200  0.25638300  1
  Al  Al20  1  0.05937900  0.15788100  0.90149800  1
  Al  Al21  1  0.84211900  0.90149800  0.74361700  1
  Al  Al22  1  0.74361700  0.84211900  0.90149800  1
  Al  Al23  1  0.90149800  0.74361700  0.84211900  1
  Al  Al24  1  0.09850200  0.25638300  0.15788100  1
  Al  Al25  1  0.97055200  0.40613200  0.75637100  1
  Al  Al26  1  0.40613200  0.75637100  0.97055200  1
  Al  Al27  1  0.75637100  0.97055200  0.40613200  1
  Al  Al28  1  0.64976000  0.21418100  0.24362900  1
  Al  Al29  1  0.56442100  0.35024000  0.59386800  1
  Al  Al30  1  0.59386800  0.56442100  0.35024000  1
  Al  Al31  1  0.43557900  0.02944800  0.78581900  1
  Al  Al32  1  0.24362900  0.64976000  0.21418100  1
  Al  Al33  1  0.78581900  0.43557900  0.02944800  1
  Al  Al34  1  0.02944800  0.78581900  0.43557900  1
  Al  Al35  1  0.21418100  0.24362900  0.64976000  1
  Ag  Ag0  1  0.17625300  0.49098700  0.31473400  1
  Ag  Ag1  1  0.82374700  0.13848200  0.31473400  1
  Ag  Ag2  1  0.17625300  0.86151800  0.68526600  1
  Ag  Ag3  1  0.86151800  0.68526600  0.17625300  1
  Ag  Ag4  1  0.31473400  0.82374700  0.13848200  1
  Ag  Ag5  1  0.68526600  0.17625300  0.86151800  1
  Ag  Ag6  1  0.49098700  0.31473400  0.17625300  1
  Ag  Ag7  1  0.31473400  0.17625300  0.49098700  1
  Ag  Ag8  1  0.13848200  0.31473400  0.82374700  1
  Ag  Ag9  1  0.68526600  0.82374700  0.50901300  1
  Ag  Ag10  1  0.50901300  0.68526600  0.82374700  1
  Ag  Ag11  1  0.82374700  0.50901300  0.68526600  1
  Ag  Ag12  1  0.00000000  0.00000000  0.00000000  1
loop_
_geom_bond_atom_site_label_1
_geom_bond_atom_site_label_2
_geom_bond_distance
_geom_bond_site_symmetry_2
Mg0 Mg20 3.126336 1_555
Mg0 Mg27 3.382675 1_555
Mg0 Mg26 3.382675 1_555
Mg0 Mg16 3.382675 1_555
Mg1 Mg6 2.824896 1_556
Mg1 Mg7 2.986951 1_555
Mg1 Mg8 3.197209 1_556
Mg1 Mg10 3.197209 1_555
Mg2 Mg4 2.824896 1_565
Mg2 Mg8 2.986951 1_555
Mg2 Mg9 3.197209 1_565
Mg3 Mg5 2.824896 1_655
Mg3 Mg9 2.986951 1_555
Mg3 Mg7 3.197209 1_655
Mg4 Mg9 3.197209 1_555
Mg5 Mg7 3.197209 1_555
Mg6 Mg8 3.197209 1_555
Mg10 Mg4 2.986951 1_555
Mg10 Mg22 3.067409 1_555
Mg10 Mg31 3.067412 1_555
Mg10 Mg6 3.197209 1_556
Mg11 Mg5 2.986951 1_555
Mg11 Mg23 3.067409 1_555
Mg11 Mg30 3.067412 1_555
Mg11 Mg2 3.197209 1_555
Mg11 Mg4 3.197209 1_565
Mg12 Mg6 2.986951 1_555
Mg12 Mg25 3.067409 1_555
Mg12 Mg29 3.067412 1_555
Mg12 Mg3 3.197209 1_555
Mg12 Mg5 3.197209 1_655
Mg13 Mg17 3.126336 1_555
Mg13 Mg31 3.382675 1_454
Mg13 Mg23 3.382675 1_555
Mg13 Mg24 3.382687 1_554
Mg14 Mg18 3.126336 1_555
Mg14 Mg30 3.382675 1_544
Mg14 Mg25 3.382675 1_555
Mg14 Mg21 3.382687 1_545
Mg15 Mg19 3.126336 1_555
Mg15 Mg29 3.382675 1_445
Mg15 Mg22 3.382675 1_555
Mg15 Mg28 3.382687 1_455
Mg16 Mg8 3.067412 1_555
Mg16 Mg17 3.382675 1_555
Mg16 Mg22 3.383862 1_554
Mg17 Mg28 3.382675 1_454
Mg17 Mg25 3.382687 1_455
Mg18 Mg26 3.382675 1_555
Mg18 Mg24 3.382675 1_544
Mg18 Mg22 3.382687 1_554
Mg19 Mg27 3.382675 1_555
Mg19 Mg21 3.382675 1_445
Mg19 Mg23 3.382687 1_545
Mg20 Mg30 3.382675 1_555
Mg20 Mg31 3.382675 1_555
Mg20 Mg29 3.382675 1_555
Mg21 Mg8 3.067409 1_555
Mg21 Mg31 3.383862 1_554
Mg23 Mg26 3.383862 1_565
Mg24 Mg7 3.067409 1_555
Mg24 Mg29 3.383862 1_455
Mg25 Mg27 3.383862 1_655
Mg26 Mg9 3.067412 1_555
Mg27 Mg7 3.067412 1_555
Mg28 Mg9 3.067409 1_555
Mg28 Mg30 3.383862 1_545
Al0 Al30 2.734406 1_555
Al0 Al29 2.734406 1_555
Al0 Al28 2.790077 1_555
Al0 Mg3 3.032508 1_555
Al0 Mg0 3.131253 1_555
Al0 Mg12 3.138302 1_555
Al0 Mg20 3.166783 1_555
Al0 Mg9 3.173503 1_555
Al0 Mg29 3.176615 1_555
Al0 Mg26 3.182642 1_555
Al1 Al26 2.734413 1_555
Al1 Al31 2.734413 1_565
Al1 Al12 2.790077 1_555
Al1 Mg5 3.032503 1_555
Al1 Mg14 3.131257 1_566
Al1 Mg7 3.138307 1_555
Al1 Mg18 3.166791 1_566
Al1 Mg11 3.173491 1_555
Al1 Mg24 3.176615 1_555
Al1 Mg30 3.182634 1_555
Al2 Al27 2.734413 1_545
Al2 Al35 2.734413 1_655
Al2 Al25 2.790077 1_555
Al2 Mg3 3.032503 1_555
Al2 Mg15 3.131257 1_655
Al2 Mg7 3.138307 1_655
Al2 Mg19 3.166791 1_655
Al2 Mg9 3.173491 1_555
Al2 Mg27 3.176623 1_655
Al2 Mg28 3.182642 1_555
Al3 Al32 2.734413 1_556
Al3 Mg1 3.032503 1_555
Al3 Mg13 3.131257 1_556
Al3 Mg8 3.138307 1_556
Al3 Mg17 3.166791 1_556
Al3 Mg7 3.173491 1_555
Al3 Mg16 3.176623 1_556
Al3 Mg24 3.182642 1_555
Al4 Mg4 3.032503 1_555
Al4 Mg13 3.131257 1_656
Al4 Mg9 3.138307 1_555
Al4 Mg17 3.166791 1_656
Al4 Mg10 3.173491 1_555
Al4 Mg28 3.176615 1_555
Al4 Mg31 3.182634 1_555
Al5 Mg2 3.032503 1_555
Al5 Mg14 3.131257 1_565
Al5 Mg9 3.138307 1_565
Al5 Mg18 3.166791 1_565
Al5 Mg8 3.173491 1_555
Al5 Mg26 3.176623 1_565
Al5 Mg21 3.182642 1_555
Al6 Mg1 3.032508 1_555
Al6 Mg0 3.131253 1_555
Al6 Mg10 3.138302 1_555
Al6 Mg20 3.166783 1_555
Al6 Mg7 3.173503 1_555
Al6 Mg31 3.176615 1_555
Al6 Mg27 3.182642 1_555
Al7 Mg2 3.032508 1_555
Al7 Mg0 3.131253 1_555
Al7 Mg11 3.138302 1_555
Al7 Mg20 3.166783 1_555
Al7 Mg8 3.173503 1_555
Al7 Mg30 3.176615 1_555
Al7 Mg16 3.182642 1_555
Al8 Mg6 3.032503 1_555
Al8 Mg15 3.131257 1_665
Al8 Mg8 3.138307 1_555
Al8 Mg19 3.166791 1_665
Al8 Mg12 3.173491 1_555
Al8 Mg21 3.176615 1_555
Al8 Mg29 3.182634 1_555
Al9 Mg4 3.032497 1_555
Al9 Mg15 3.131263 1_555
Al9 Mg11 3.138305 1_545
Al9 Mg19 3.166785 1_555
Al9 Mg10 3.173493 1_555
Al9 Mg23 3.176617 1_545
Al9 Mg22 3.182647 1_555
Al10 Al28 2.734413 1_555
Al10 Al31 2.734413 1_554
Al10 Al33 2.790077 1_555
Al10 Mg6 3.032497 1_555
Al10 Mg14 3.131263 1_555
Al10 Mg10 3.138305 1_554
Al10 Mg18 3.166785 1_555
Al10 Mg12 3.173493 1_555
Al10 Mg22 3.176617 1_554
Al10 Mg25 3.182647 1_555
Al11 Al32 2.734413 1_555
Al11 Al33 2.734413 1_455
Al11 Al34 2.790077 1_555
Al11 Mg5 3.032497 1_555
Al11 Mg13 3.131263 1_555
Al11 Mg12 3.138305 1_455
Al11 Mg17 3.166785 1_555
Al11 Mg11 3.173493 1_555
Al11 Mg25 3.176617 1_455
Al11 Mg23 3.182647 1_555
Al12 Al7 2.734406 1_555
Al12 Al6 2.734406 1_555
Al12 Mg5 3.032508 1_555
Al12 Mg20 3.131253 1_555
Al12 Mg7 3.138302 1_555
Al12 Mg0 3.166783 1_555
Al12 Mg11 3.173503 1_555
Al12 Mg27 3.176615 1_555
Al12 Mg30 3.182642 1_555
Al13 Al15 2.839240 1_545
Al13 Al22 2.839240 1_544
Al13 Al19 2.839240 1_655
Al13 Al17 2.839240 1_554
Al13 Al24 2.863531 1_655
Al13 Mg19 3.056100 1_655
Al13 Mg14 3.056100 1_555
Al13 Mg21 3.062992 1_545
Al13 Mg25 3.080910 1_555
Al13 Mg27 3.080912 1_655
Al14 Al16 2.839240 1_556
Al14 Al21 2.839240 1_455
Al14 Al18 2.839240 1_566
Al14 Al20 2.839240 1_565
Al14 Al23 2.863531 1_455
Al14 Mg18 3.056100 1_566
Al14 Mg15 3.056100 1_565
Al14 Mg22 3.062992 1_565
Al14 Mg24 3.080910 1_555
Al14 Mg29 3.080912 1_455
Al15 Al23 2.839240 1_554
Al15 Al19 2.839240 1_665
Al15 Al16 2.839240 1_655
Al15 Al22 2.863531 1_554
Al15 Mg19 3.056100 1_665
Al15 Mg13 3.056100 1_655
Al15 Mg23 3.062992 1_655
Al15 Mg21 3.080910 1_555
Al15 Mg31 3.080912 1_554
Al16 Al23 2.839240 1_454
Al16 Al18 2.839240 1_565
Al16 Al19 2.863531 1_565
Al16 Mg18 3.056100 1_565
Al16 Mg13 3.056100 1_555
Al16 Mg24 3.062992 1_554
Al16 Mg23 3.080910 1_555
Al16 Mg26 3.080912 1_565
Al17 Al20 2.839240 1_655
Al17 Al22 2.839240 1_545
Al17 Al24 2.839240 1_656
Al17 Al21 2.863531 1_545
Al17 Mg17 3.056100 1_656
Al17 Mg14 3.056100 1_556
Al17 Mg25 3.062992 1_556
Al17 Mg28 3.080910 1_555
Al17 Mg30 3.080912 1_545
Al18 Al19 2.839240 1_555
Al18 Al24 2.839240 1_555
Al18 Al20 2.863531 1_554
Al18 Mg18 3.056100 1_555
Al18 Mg0 3.056100 1_555
Al18 Mg26 3.062984 1_555
Al18 Mg16 3.080912 1_555
Al18 Mg22 3.080917 1_554
Al19 Al24 2.839240 1_555
Al19 Mg0 3.056100 1_555
Al19 Mg19 3.056100 1_555
Al19 Mg27 3.062984 1_555
Al19 Mg26 3.080912 1_555
Al19 Mg23 3.080917 1_545
Al20 Al21 2.839240 1_445
Al20 Al24 2.839240 1_556
Al20 Mg17 3.056100 1_556
Al20 Mg15 3.056100 1_555
Al20 Mg28 3.062992 1_455
Al20 Mg22 3.080910 1_555
Al20 Mg16 3.080912 1_556
Al21 Al23 2.839240 1_555
Al21 Al22 2.839240 1_555
Al21 Mg20 3.056100 1_555
Al21 Mg15 3.056100 1_665
Al21 Mg29 3.062984 1_555
Al21 Mg30 3.080912 1_555
Al21 Mg28 3.080917 1_565
Al22 Al23 2.839240 1_555
Al22 Mg20 3.056100 1_555
Al22 Mg14 3.056100 1_566
Al22 Mg30 3.062984 1_555
Al22 Mg31 3.080912 1_555
Al22 Mg21 3.080917 1_556
Al23 Mg20 3.056100 1_555
Al23 Mg13 3.056100 1_656
Al23 Mg31 3.062984 1_555
Al23 Mg29 3.080912 1_555
Al23 Mg24 3.080917 1_655
Al24 Mg17 3.056100 1_555
Al24 Mg0 3.056100 1_555
Al24 Mg16 3.062984 1_555
Al24 Mg27 3.080912 1_555
Al24 Mg25 3.080917 1_455
Al25 Al4 2.734413 1_555
Al25 Al3 2.734413 1_655
Al25 Mg3 3.032497 1_555
Al25 Mg17 3.131263 1_656
Al25 Mg7 3.138305 1_655
Al25 Mg13 3.166785 1_656
Al25 Mg9 3.173493 1_555
Al25 Mg24 3.176617 1_655
Al25 Mg28 3.182647 1_555
Al26 Al5 2.734413 1_556
Al26 Al3 2.790077 1_555
Al26 Mg1 3.032497 1_555
Al26 Mg18 3.131263 1_566
Al26 Mg8 3.138305 1_556
Al26 Mg14 3.166785 1_566
Al26 Mg7 3.173493 1_555
Al26 Mg21 3.176617 1_556
Al26 Mg24 3.182647 1_555
Al27 Al8 2.734413 1_555
Al27 Al5 2.790077 1_555
Al27 Mg2 3.032497 1_555
Al27 Mg19 3.131263 1_665
Al27 Mg9 3.138305 1_565
Al27 Mg15 3.166785 1_665
Al27 Mg8 3.173493 1_555
Al27 Mg28 3.176617 1_565
Al27 Mg21 3.182647 1_555
Al28 Al5 2.734413 1_545
Al28 Mg3 3.032503 1_555
Al28 Mg18 3.131257 1_555
Al28 Mg12 3.138307 1_555
Al28 Mg14 3.166791 1_555
Al28 Mg9 3.173491 1_555
Al28 Mg25 3.176615 1_555
Al28 Mg26 3.182634 1_555
Al29 Al6 2.734406 1_555
Al29 Al4 2.790077 1_555
Al29 Mg4 3.032508 1_555
Al29 Mg20 3.131253 1_555
Al29 Mg9 3.138302 1_555
Al29 Mg0 3.166783 1_555
Al29 Mg10 3.173503 1_555
Al29 Mg26 3.176615 1_555
Al29 Mg31 3.182642 1_555
Al30 Al7 2.734406 1_555
Al30 Al8 2.790077 1_555
Al30 Mg6 3.032508 1_555
Al30 Mg20 3.131253 1_555
Al30 Mg8 3.138302 1_555
Al30 Mg0 3.166783 1_555
Al30 Mg12 3.173503 1_555
Al30 Mg16 3.176615 1_555
Al30 Mg29 3.182642 1_555
Al31 Al9 2.790077 1_555
Al31 Mg4 3.032503 1_555
Al31 Mg18 3.131257 1_556
Al31 Mg11 3.138307 1_545
Al31 Mg14 3.166791 1_556
Al31 Mg10 3.173491 1_555
Al31 Mg30 3.176623 1_545
Al31 Mg22 3.182642 1_555
Al32 Al7 2.790077 1_555
Al32 Mg2 3.032503 1_555
Al32 Mg17 3.131257 1_555
Al32 Mg11 3.138307 1_555
Al32 Mg13 3.166791 1_555
Al32 Mg8 3.173491 1_555
Al32 Mg23 3.176615 1_555
Al32 Mg16 3.182634 1_555
Al33 Al4 2.734413 1_554
Al33 Mg6 3.032503 1_555
Al33 Mg17 3.131257 1_655
Al33 Mg10 3.138307 1_554
Al33 Mg13 3.166791 1_655
Al33 Mg12 3.173491 1_555
Al33 Mg31 3.176623 1_554
Al33 Mg25 3.182642 1_555
Al34 Al9 2.734413 1_565
Al34 Al8 2.734413 1_455
Al34 Mg5 3.032503 1_555
Al34 Mg19 3.131257 1_565
Al34 Mg12 3.138307 1_455
Al34 Mg15 3.166791 1_565
Al34 Mg11 3.173491 1_555
Al34 Mg29 3.176623 1_455
Al34 Mg23 3.182642 1_555
Al35 Al9 2.734413 1_555
Al35 Al6 2.790077 1_555
Al35 Mg1 3.032503 1_555
Al35 Mg19 3.131257 1_555
Al35 Mg10 3.138307 1_555
Al35 Mg15 3.166791 1_555
Al35 Mg7 3.173491 1_555
Al35 Mg22 3.176615 1_555
Al35 Mg27 3.182634 1_555
Ag0 Al24 2.544653 1_555
Ag0 Al11 2.675627 1_555
Ag0 Al12 2.675640 1_555
Ag0 Al7 2.754664 1_555
Ag0 Al32 2.754667 1_555
Ag0 Mg5 2.927976 1_555
Ag0 Mg27 3.073370 1_555
Ag0 Mg25 3.073371 1_455
Ag0 Mg11 3.260087 1_555
Ag0 Mg17 3.299581 1_555
Ag0 Mg0 3.299581 1_555
Ag0 Mg16 3.437823 1_555
Ag1 Al13 2.544656 1_555
Ag1 Al28 2.675628 1_555
Ag1 Al2 2.675641 1_555
Ag1 Al5 2.754670 1_545
Ag1 Al27 2.754687 1_545
Ag1 Mg3 2.927967 1_555
Ag1 Mg25 3.073349 1_555
Ag1 Mg27 3.073368 1_655
Ag1 Mg9 3.260085 1_555
Ag1 Mg14 3.299580 1_555
Ag1 Mg19 3.299592 1_655
Ag1 Mg21 3.437843 1_545
Ag2 Al14 2.544656 1_555
Ag2 Al1 2.675628 1_555
Ag2 Al34 2.675641 1_555
Ag2 Al31 2.754670 1_565
Ag2 Al9 2.754687 1_565
Ag2 Mg5 2.927967 1_555
Ag2 Mg24 3.073349 1_555
Ag2 Mg29 3.073368 1_455
Ag2 Mg11 3.260085 1_555
Ag2 Mg18 3.299580 1_566
Ag2 Mg15 3.299592 1_565
Ag2 Mg22 3.437843 1_565
Ag3 Al15 2.544656 1_555
Ag3 Al8 2.675628 1_555
Ag3 Al33 2.675641 1_555
Ag3 Al34 2.754670 1_655
Ag3 Al11 2.754687 1_655
Ag3 Mg6 2.927967 1_555
Ag3 Mg21 3.073349 1_555
Ag3 Mg31 3.073368 1_554
Ag3 Mg12 3.260085 1_555
Ag3 Mg19 3.299580 1_665
Ag3 Mg13 3.299592 1_655
Ag3 Mg23 3.437843 1_655
Ag4 Al16 2.544656 1_555
Ag4 Al32 2.675628 1_555
Ag4 Al5 2.675641 1_555
Ag4 Al3 2.754670 1_554
Ag4 Al26 2.754687 1_554
Ag4 Mg2 2.927967 1_555
Ag4 Mg23 3.073349 1_555
Ag4 Mg26 3.073368 1_565
Ag4 Mg8 3.260085 1_555
Ag4 Mg13 3.299580 1_555
Ag4 Mg18 3.299592 1_565
Ag4 Mg24 3.437843 1_554
Ag5 Al17 2.544656 1_555
Ag5 Al4 2.675628 1_555
Ag5 Al31 2.675641 1_555
Ag5 Al33 2.754670 1_556
Ag5 Al10 2.754687 1_556
Ag5 Mg4 2.927967 1_555
Ag5 Mg28 3.073349 1_555
Ag5 Mg30 3.073368 1_545
Ag5 Mg10 3.260085 1_555
Ag5 Mg17 3.299580 1_656
Ag5 Mg14 3.299592 1_556
Ag5 Mg25 3.437843 1_556
Ag6 Al18 2.544653 1_555
Ag6 Al10 2.675627 1_555
Ag6 Al30 2.675640 1_555
Ag6 Al0 2.754664 1_555
Ag6 Al28 2.754667 1_555
Ag6 Mg6 2.927976 1_555
Ag6 Mg16 3.073370 1_555
Ag6 Mg22 3.073371 1_554
Ag6 Mg12 3.260087 1_555
Ag6 Mg18 3.299581 1_555
Ag6 Mg0 3.299581 1_555
Ag6 Mg26 3.437823 1_555
Ag7 Al19 2.544653 1_555
Ag7 Al9 2.675627 1_555
Ag7 Al29 2.675640 1_555
Ag7 Al6 2.754664 1_555
Ag7 Al35 2.754667 1_555
Ag7 Mg4 2.927976 1_555
Ag7 Mg26 3.073370 1_555
Ag7 Mg23 3.073371 1_545
Ag7 Mg10 3.260087 1_555
Ag7 Mg19 3.299581 1_555
Ag7 Mg0 3.299581 1_555
Ag7 Mg27 3.437823 1_555
Ag8 Al20 2.544656 1_555
Ag8 Al35 2.675628 1_555
Ag8 Al3 2.675641 1_555
Ag8 Al2 2.754670 1_455
Ag8 Al25 2.754687 1_455
Ag8 Mg1 2.927967 1_555
Ag8 Mg22 3.073349 1_555
Ag8 Mg16 3.073368 1_556
Ag8 Mg7 3.260085 1_555
Ag8 Mg15 3.299580 1_555
Ag8 Mg17 3.299592 1_556
Ag8 Mg28 3.437843 1_455
Ag9 Al21 2.544653 1_555
Ag9 Al27 2.675627 1_555
Ag9 Al7 2.675640 1_555
Ag9 Al30 2.754664 1_555
Ag9 Al8 2.754667 1_555
Ag9 Mg2 2.927976 1_555
Ag9 Mg30 3.073370 1_555
Ag9 Mg28 3.073371 1_565
Ag9 Mg8 3.260087 1_555
Ag9 Mg15 3.299581 1_665
Ag9 Mg20 3.299581 1_555
Ag9 Mg29 3.437823 1_555
Ag10 Al22 2.544653 1_555
Ag10 Al26 2.675627 1_555
Ag10 Al6 2.675640 1_555
Ag10 Al12 2.754664 1_555
Ag10 Al1 2.754667 1_555
Ag10 Mg1 2.927976 1_555
Ag10 Mg31 3.073370 1_555
Ag10 Mg21 3.073371 1_556
Ag10 Mg7 3.260087 1_555
Ag10 Mg20 3.299581 1_555
Ag10 Mg14 3.299581 1_566
Ag10 Mg30 3.437823 1_555
Ag11 Al23 2.544653 1_555
Ag11 Al25 2.675627 1_555
Ag11 Al0 2.675640 1_555
Ag11 Al29 2.754664 1_555
Ag11 Al4 2.754667 1_555
Ag11 Mg3 2.927976 1_555
Ag11 Mg29 3.073370 1_555
Ag11 Mg24 3.073371 1_655
Ag11 Mg9 3.260087 1_555
Ag11 Mg13 3.299581 1_656
Ag11 Mg20 3.299581 1_555
Ag11 Mg31 3.437823 1_555
Ag12 Al15 2.704875 1_445
Ag12 Al14 2.704875 1_544
Ag12 Al19 2.704875 1_555
Ag12 Al24 2.704875 1_555
Ag12 Al18 2.704875 1_555
Ag12 Al17 2.704875 1_454
Ag12 Al22 2.704875 1_444
Ag12 Al23 2.704875 1_444
Ag12 Al21 2.704875 1_444
Ag12 Al13 2.704875 1_455
Ag12 Al16 2.704875 1_545
Ag12 Al20 2.704875 1_554
