# generated using pymatgen
data_Lu16MgIn3Pt4
_symmetry_space_group_name_H-M   'P 1'
_cell_length_a   9.48622876
_cell_length_b   9.48622823
_cell_length_c   9.48622880
_cell_angle_alpha   59.75844904
_cell_angle_beta   59.75844837
_cell_angle_gamma   59.75844804
_symmetry_Int_Tables_number   1
_chemical_formula_structural   Lu16MgIn3Pt4
_chemical_formula_sum   'Lu16 Mg1 In3 Pt4'
_cell_volume   600.31219888
_cell_formula_units_Z   1
loop_
 _symmetry_equiv_pos_site_id
 _symmetry_equiv_pos_as_xyz
  1  'x, y, z'
loop_
 _atom_site_type_symbol
 _atom_site_label
 _atom_site_symmetry_multiplicity
 _atom_site_fract_x
 _atom_site_fract_y
 _atom_site_fract_z
 _atom_site_occupancy
  Lu  Lu0  1  0.60201704  0.60201704  0.60201704  1
  Lu  Lu1  1  0.60000612  0.60000612  0.19864175  1
  Lu  Lu2  1  0.60000612  0.19864175  0.60000612  1
  Lu  Lu3  1  0.19864175  0.60000612  0.60000612  1
  Lu  Lu4  1  0.05941162  0.44109662  0.44109662  1
  Lu  Lu5  1  0.44048138  0.06129524  0.06129524  1
  Lu  Lu6  1  0.44109662  0.05941162  0.44109662  1
  Lu  Lu7  1  0.06129524  0.44048138  0.06129524  1
  Lu  Lu8  1  0.44109662  0.44109662  0.05941162  1
  Lu  Lu9  1  0.06129524  0.06129524  0.44048138  1
  Lu  Lu10  1  0.18614191  0.81355862  0.81355862  1
  Lu  Lu11  1  0.81191375  0.18738605  0.18738605  1
  Lu  Lu12  1  0.81355862  0.18614191  0.81355862  1
  Lu  Lu13  1  0.18738605  0.81191375  0.18738605  1
  Lu  Lu14  1  0.81355862  0.81355862  0.18614191  1
  Lu  Lu15  1  0.18738605  0.18738605  0.81191375  1
  Mg  Mg0  1  0.82723685  0.82723685  0.82723685  1
  In  In0  1  0.83451587  0.83451587  0.49798059  1
  In  In1  1  0.83451587  0.49798059  0.83451587  1
  In  In2  1  0.49798059  0.83451587  0.83451587  1
  Pt  Pt0  1  0.39219614  0.39219614  0.39219614  1
  Pt  Pt1  1  0.39308196  0.39308196  0.82209499  1
  Pt  Pt2  1  0.39308196  0.82209499  0.39308196  1
  Pt  Pt3  1  0.82209499  0.39308196  0.39308196  1
loop_
_geom_bond_atom_site_label_1
_geom_bond_atom_site_label_2
_geom_bond_distance
_geom_bond_site_symmetry_2
Lu0 Pt3 2.799315 1_555
Lu0 Pt1 2.799315 1_555
Lu0 Pt2 2.799315 1_555
Lu0 Lu12 3.424187 1_555
Lu0 Lu10 3.424187 1_555
Lu0 Lu14 3.424187 1_555
Lu1 Pt0 2.786780 1_555
Lu1 Pt2 2.792039 1_555
Lu1 Pt3 2.792039 1_555
Lu1 Mg0 3.329644 1_554
Lu1 Lu14 3.445541 1_555
Lu2 Pt0 2.786780 1_555
Lu2 Pt1 2.792039 1_555
Lu2 Pt3 2.792039 1_555
Lu2 Mg0 3.329644 1_545
Lu3 Pt0 2.786780 1_555
Lu3 Pt2 2.792039 1_555
Lu3 Pt1 2.792039 1_555
Lu3 Mg0 3.329644 1_455
Lu4 Pt0 2.768171 1_555
Lu4 Pt3 2.785267 1_455
Lu5 Pt1 2.768664 1_554
Lu5 Pt2 2.768664 1_545
Lu5 Mg0 3.446024 1_544
Lu6 Pt0 2.768171 1_555
Lu6 Pt2 2.785267 1_545
Lu7 Pt1 2.768664 1_554
Lu7 Pt3 2.768664 1_455
Lu7 Mg0 3.446024 1_454
Lu8 Pt0 2.768171 1_555
Lu8 Pt1 2.785267 1_554
Lu9 Pt3 2.768664 1_455
Lu9 Pt2 2.768664 1_545
Lu9 Mg0 3.446024 1_445
Lu10 Mg0 3.279074 1_455
Lu10 Pt1 3.423115 1_555
Lu10 Pt2 3.423116 1_555
Lu10 Lu3 3.445541 1_555
Lu10 Lu12 3.521498 1_465
Lu10 Lu14 3.521498 1_456
Lu10 Lu7 3.534308 1_556
Lu10 Lu9 3.534308 1_565
Lu10 Lu8 3.542059 1_556
Lu10 Lu6 3.542059 1_565
Lu10 Lu15 3.544325 1_565
Lu10 Lu13 3.544325 1_556
Lu11 Pt0 3.408866 1_555
Lu11 Pt3 3.440817 1_555
Lu11 Lu14 3.544325 1_545
Lu11 Lu12 3.544325 1_554
Lu12 Mg0 3.279074 1_545
Lu12 Pt1 3.423116 1_555
Lu12 Pt3 3.423116 1_555
Lu12 Lu2 3.445541 1_555
Lu12 Lu14 3.521498 1_546
Lu12 Lu9 3.534308 1_655
Lu12 Lu5 3.534308 1_556
Lu12 Lu8 3.542059 1_556
Lu12 Lu4 3.542059 1_655
Lu12 Lu15 3.544325 1_655
Lu13 Pt0 3.408866 1_555
Lu13 Pt2 3.440817 1_555
Lu13 Lu14 3.544325 1_455
Lu14 Mg0 3.279074 1_554
Lu14 Pt3 3.423115 1_555
Lu14 Pt2 3.423116 1_555
Lu14 Lu7 3.534308 1_655
Lu14 Lu5 3.534308 1_565
Lu14 Lu6 3.542059 1_565
Lu14 Lu4 3.542059 1_655
Lu15 Pt0 3.408866 1_555
Lu15 Pt1 3.440817 1_555
In0 Mg0 3.055401 1_555
In0 Lu11 3.148168 1_565
In0 Lu13 3.148168 1_655
In0 Lu14 3.170872 1_555
In0 In1 3.180788 1_555
In0 In2 3.180788 1_555
In0 Lu0 3.349262 1_555
In0 Lu2 3.357890 1_565
In0 Lu3 3.357890 1_655
In0 Lu4 3.408781 1_655
In0 Lu6 3.408781 1_565
In0 Lu9 3.442579 1_665
In1 Mg0 3.055401 1_555
In1 Lu15 3.148168 1_655
In1 Lu11 3.148168 1_556
In1 Lu12 3.170871 1_555
In1 In2 3.180788 1_555
In1 Lu0 3.349262 1_555
In1 Lu1 3.357890 1_556
In1 Lu3 3.357890 1_655
In1 Lu8 3.408781 1_556
In1 Lu4 3.408781 1_655
In1 Lu7 3.442579 1_656
In2 Mg0 3.055401 1_555
In2 Lu15 3.148168 1_565
In2 Lu13 3.148168 1_556
In2 Lu10 3.170871 1_555
In2 Lu0 3.349262 1_555
In2 Lu2 3.357890 1_565
In2 Lu1 3.357890 1_556
In2 Lu8 3.408781 1_556
In2 Lu6 3.408781 1_565
In2 Lu5 3.442579 1_566
