# generated using pymatgen
data_Sr3LuBi3
_symmetry_space_group_name_H-M   'P 1'
_cell_length_a   8.53572720
_cell_length_b   8.72507359
_cell_length_c   8.53572709
_cell_angle_alpha   109.85939121
_cell_angle_beta   108.73471527
_cell_angle_gamma   109.85939231
_symmetry_Int_Tables_number   1
_chemical_formula_structural   Sr3LuBi3
_chemical_formula_sum   'Sr6 Lu2 Bi6'
_cell_volume   489.07206181
_cell_formula_units_Z   2
loop_
 _symmetry_equiv_pos_site_id
 _symmetry_equiv_pos_as_xyz
  1  'x, y, z'
loop_
 _atom_site_type_symbol
 _atom_site_label
 _atom_site_symmetry_multiplicity
 _atom_site_fract_x
 _atom_site_fract_y
 _atom_site_fract_z
 _atom_site_occupancy
  Sr  Sr0  1  0.35798449  0.35313770  0.35546686  1
  Sr  Sr1  1  0.99869967  0.13880266  0.49690879  1
  Sr  Sr2  1  0.85546686  0.85313770  0.85798449  1
  Sr  Sr3  1  0.99690879  0.63880266  0.49869967  1
  Sr  Sr4  1  0.50597716  0.00548012  0.14054381  1
  Sr  Sr5  1  0.64054381  0.50548012  0.00597716  1
  Lu  Lu0  1  0.50271754  0.00722610  0.64238998  1
  Lu  Lu1  1  0.14238998  0.50722610  0.00271754  1
  Bi  Bi0  1  0.87762041  0.25359929  0.10062038  1
  Bi  Bi1  1  0.14207213  0.86464892  0.25676443  1
  Bi  Bi2  1  0.36871352  0.62710421  0.75352184  1
  Bi  Bi3  1  0.25352184  0.12710421  0.86871352  1
  Bi  Bi4  1  0.75676443  0.36464892  0.64207213  1
  Bi  Bi5  1  0.60062038  0.75359929  0.37762041  1
loop_
_geom_bond_atom_site_label_1
_geom_bond_atom_site_label_2
_geom_bond_distance
_geom_bond_site_symmetry_2
Bi0 Lu1 3.126442 1_655
Bi0 Sr2 3.304001 1_544
Bi0 Sr4 3.375737 1_555
Bi0 Sr3 3.401709 1_555
Bi0 Lu0 3.425385 1_554
Bi0 Sr5 3.571436 1_555
Bi0 Sr0 3.586889 1_655
Bi0 Sr1 3.777956 1_555
Bi1 Lu1 3.137278 1_555
Bi1 Lu0 3.156827 1_565
Bi1 Sr1 3.419072 1_465
Bi1 Sr2 3.439895 1_454
Bi1 Sr4 3.515228 1_565
Bi1 Sr3 3.525974 1_455
Bi1 Sr5 3.629030 1_455
Bi1 Sr0 3.673949 1_565
Bi2 Sr4 3.265069 1_566
Bi2 Sr3 3.278720 1_455
Bi2 Sr5 3.341861 1_556
Bi2 Sr0 3.376364 1_555
Bi2 Lu1 3.482635 1_556
Bi2 Sr2 3.578416 1_555
Bi2 Sr1 3.605238 1_455
Bi2 Lu0 3.669468 1_565
Bi3 Sr5 3.265069 1_556
Bi3 Sr1 3.278720 1_455
Bi3 Sr4 3.341861 1_556
Bi3 Sr2 3.376364 1_445
Bi3 Lu0 3.482635 1_555
Bi3 Sr0 3.578416 1_556
Bi3 Sr3 3.605238 1_445
Bi3 Lu1 3.669468 1_556
Bi4 Lu0 3.137277 1_555
Bi4 Lu1 3.156827 1_656
Bi4 Sr3 3.419072 1_555
Bi4 Sr0 3.439895 1_555
Bi4 Sr5 3.515228 1_556
Bi4 Sr1 3.525974 1_555
Bi4 Sr4 3.629030 1_555
Bi4 Sr2 3.673949 1_555
Bi5 Lu0 3.126442 1_565
Bi5 Sr0 3.304001 1_555
Bi5 Sr5 3.375737 1_555
Bi5 Sr1 3.401709 1_565
Bi5 Lu1 3.425385 1_555
Bi5 Sr4 3.571436 1_565
Bi5 Sr2 3.586889 1_555
Bi5 Sr3 3.777956 1_555
