# generated using pymatgen
data_Sc2H6Ru
_symmetry_space_group_name_H-M   'P 1'
_cell_length_a   4.75084104
_cell_length_b   4.75084125
_cell_length_c   4.75084145
_cell_angle_alpha   59.99999861
_cell_angle_beta   59.99999713
_cell_angle_gamma   59.99999957
_symmetry_Int_Tables_number   1
_chemical_formula_structural   Sc2H6Ru
_chemical_formula_sum   'Sc2 H6 Ru1'
_cell_volume   75.82222810
_cell_formula_units_Z   1
loop_
 _symmetry_equiv_pos_site_id
 _symmetry_equiv_pos_as_xyz
  1  'x, y, z'
loop_
 _atom_site_type_symbol
 _atom_site_label
 _atom_site_symmetry_multiplicity
 _atom_site_fract_x
 _atom_site_fract_y
 _atom_site_fract_z
 _atom_site_occupancy
  Sc  Sc0  1  0.75000000  0.75000000  0.75000000  1
  Sc  Sc1  1  0.25000000  0.25000000  0.25000000  1
  H  H0  1  0.74485747  0.74485747  0.25514253  1
  H  H1  1  0.25514253  0.74485747  0.25514253  1
  H  H2  1  0.74485747  0.25514253  0.25514253  1
  H  H3  1  0.25514253  0.25514253  0.74485747  1
  H  H4  1  0.74485747  0.25514253  0.74485747  1
  H  H5  1  0.25514253  0.74485747  0.74485747  1
  Ru  Ru0  1  0.00000000  0.00000000  0.00000000  1
loop_
_geom_bond_atom_site_label_1
_geom_bond_atom_site_label_2
_geom_bond_distance
_geom_bond_site_symmetry_2
H0 Ru0 1.714227 1_665
H0 Sc1 2.375672 1_655
H0 Sc1 2.375672 1_565
H0 Sc0 2.375672 1_554
H0 Sc0 2.375672 1_555
H1 Ru0 1.714227 1_565
H1 Sc0 2.375672 1_455
H1 Sc0 2.375672 1_554
H1 Sc1 2.375672 1_565
H1 Sc1 2.375672 1_555
H2 Ru0 1.714227 1_655
H2 Sc1 2.375672 1_655
H2 Sc1 2.375672 1_555
H2 Sc0 2.375672 1_545
H2 Sc0 2.375672 1_554
H3 Ru0 1.714227 1_556
H3 Sc0 2.375672 1_455
H3 Sc0 2.375672 1_545
H3 Sc1 2.375672 1_556
H3 Sc1 2.375672 1_555
H4 Ru0 1.714227 1_656
H4 Sc1 2.375672 1_655
H4 Sc1 2.375672 1_556
H4 Sc0 2.375672 1_545
H4 Sc0 2.375672 1_555
H5 Ru0 1.714227 1_566
H5 Sc0 2.375672 1_455
H5 Sc0 2.375672 1_555
H5 Sc1 2.375672 1_565
H5 Sc1 2.375672 1_556
