# generated using pymatgen
data_Y7Sn23RuRh5
_symmetry_space_group_name_H-M   'P 1'
_cell_length_a   9.84432505
_cell_length_b   9.84278059
_cell_length_c   9.97830900
_cell_angle_alpha   89.88377409
_cell_angle_beta   90.00000000
_cell_angle_gamma   120.00519078
_symmetry_Int_Tables_number   1
_chemical_formula_structural   Y7Sn23RuRh5
_chemical_formula_sum   'Y7 Sn23 Ru1 Rh5'
_cell_volume   837.27364226
_cell_formula_units_Z   1
loop_
 _symmetry_equiv_pos_site_id
 _symmetry_equiv_pos_as_xyz
  1  'x, y, z'
loop_
 _atom_site_type_symbol
 _atom_site_label
 _atom_site_symmetry_multiplicity
 _atom_site_fract_x
 _atom_site_fract_y
 _atom_site_fract_z
 _atom_site_occupancy
  Y  Y0  1  0.99793003  0.99585906  0.00208728  1
  Y  Y1  1  0.03980962  0.52080630  0.30681238  1
  Y  Y2  1  0.47995408  0.95991016  0.30737911  1
  Y  Y3  1  0.48099568  0.52080630  0.30681238  1
  Y  Y4  1  0.95841052  0.47906893  0.69260388  1
  Y  Y5  1  0.52022547  0.04045294  0.69228216  1
  Y  Y6  1  0.52065941  0.47906893  0.69260388  1
  Sn  Sn0  1  0.99999248  0.99998696  0.50081963  1
  Sn  Sn1  1  0.11674738  0.88270680  0.28122196  1
  Sn  Sn2  1  0.76595843  0.88270680  0.28122196  1
  Sn  Sn3  1  0.11712297  0.23424695  0.28195098  1
  Sn  Sn4  1  0.88313423  0.11725958  0.71827796  1
  Sn  Sn5  1  0.23412635  0.11725958  0.71827796  1
  Sn  Sn6  1  0.88271867  0.76543533  0.71744500  1
  Sn  Sn7  1  0.35140493  0.00002308  0.00010874  1
  Sn  Sn8  1  0.65010417  0.64841609  0.00022028  1
  Sn  Sn9  1  0.00052972  0.35191457  0.00004898  1
  Sn  Sn10  1  0.35138585  0.35191457  0.00004898  1
  Sn  Sn11  1  0.99831192  0.64841609  0.00022028  1
  Sn  Sn12  1  0.64861815  0.00002308  0.00010874  1
  Sn  Sn13  1  0.77855134  0.55710067  0.45598441  1
  Sn  Sn14  1  0.77773483  0.22235485  0.45611985  1
  Sn  Sn15  1  0.44461902  0.22235485  0.45611985  1
  Sn  Sn16  1  0.22248884  0.44497768  0.54380918  1
  Sn  Sn17  1  0.22217813  0.77792119  0.54346671  1
  Sn  Sn18  1  0.55574205  0.77792119  0.54346671  1
  Sn  Sn19  1  0.66815450  0.33630699  0.17628421  1
  Sn  Sn20  1  0.33323704  0.66647608  0.82387364  1
  Sn  Sn21  1  0.66569685  0.33139270  0.88189706  1
  Sn  Sn22  1  0.33288397  0.66576794  0.11782284  1
  Ru  Ru0  1  0.83191079  0.66382157  0.19922217  1
  Rh  Rh0  1  0.16904417  0.83085833  0.80109499  1
  Rh  Rh1  1  0.66181416  0.83085833  0.80109499  1
  Rh  Rh2  1  0.16909975  0.33819950  0.80113494  1
  Rh  Rh3  1  0.83099370  0.16870651  0.19902747  1
  Rh  Rh4  1  0.33771281  0.16870651  0.19902747  1
loop_
_geom_bond_atom_site_label_1
_geom_bond_atom_site_label_2
_geom_bond_distance
_geom_bond_site_symmetry_2
Sn0 Sn6 2.940922 1_555
Sn0 Sn4 2.949975 1_565
Sn0 Sn5 2.949993 1_665
Sn0 Sn3 2.955702 1_665
Sn0 Sn2 2.965174 1_555
Sn0 Sn1 2.965180 1_655
Sn1 Y1 3.259664 1_555
Sn1 Y2 3.273117 1_555
Sn1 Y0 3.414194 1_455
Sn2 Y3 3.259664 1_555
Sn2 Y2 3.273127 1_555
Sn2 Y0 3.414204 1_555
Sn3 Y1 3.278131 1_555
Sn3 Y3 3.278131 1_555
Sn3 Y0 3.457423 1_445
Sn4 Y4 3.264026 1_555
Sn4 Y5 3.271352 1_555
Sn4 Y0 3.472987 1_546
Sn5 Y6 3.264026 1_555
Sn5 Y5 3.271323 1_555
Sn5 Y0 3.472987 1_446
Sn6 Y4 3.265707 1_555
Sn6 Y6 3.265713 1_555
Sn6 Y0 3.456971 1_556
Sn7 Y2 3.413609 1_545
Sn7 Y5 3.418859 1_554
Sn7 Y0 3.459464 1_445
Sn8 Y3 3.406064 1_555
Sn8 Y0 3.421780 1_555
Sn8 Y6 3.423500 1_554
Sn9 Y4 3.413654 1_454
Sn9 Y1 3.414720 1_555
Sn9 Y0 3.491866 1_445
Sn10 Y6 3.413654 1_554
Sn10 Y3 3.414717 1_555
Sn10 Y0 3.491866 1_445
Sn11 Y1 3.406061 1_655
Sn11 Y0 3.421775 1_555
Sn11 Y4 3.423502 1_554
Sn12 Y2 3.413617 1_545
Sn12 Y5 3.418867 1_554
Sn12 Y0 3.459474 1_545
Sn13 Y1 3.143091 1_655
Sn13 Y3 3.143116 1_555
Sn13 Y4 3.263782 1_555
Sn13 Y6 3.263788 1_555
Sn14 Y1 3.147604 1_655
Sn14 Y2 3.148163 1_545
Sn14 Y5 3.260123 1_555
Sn14 Y4 3.262768 1_555
Sn15 Y3 3.147604 1_555
Sn15 Y2 3.148158 1_545
Sn15 Y5 3.260118 1_555
Sn15 Y6 3.262765 1_555
Sn16 Y4 3.154326 1_455
Sn16 Y6 3.154334 1_555
Sn16 Y3 3.273955 1_555
Sn16 Y1 3.273961 1_555
Sn17 Y5 3.150188 1_565
Sn17 Y4 3.154775 1_455
Sn17 Y2 3.261041 1_555
Sn17 Y1 3.268646 1_555
Sn18 Y5 3.150193 1_565
Sn18 Y6 3.154782 1_555
Sn18 Y2 3.261046 1_555
Sn18 Y3 3.268646 1_555
Sn19 Y1 3.427045 1_655
Sn19 Y3 3.427069 1_555
Sn19 Y2 3.461865 1_545
Sn20 Y5 3.444651 1_565
Sn20 Y4 3.454858 1_455
Sn20 Y6 3.454881 1_555
Sn21 Y5 3.122745 1_555
Sn21 Y4 3.127876 1_555
Sn21 Y6 3.127876 1_555
Sn22 Y3 3.128547 1_555
Sn22 Y1 3.128553 1_555
Sn22 Y2 3.144151 1_555
Ru0 Sn8 2.626605 1_555
Ru0 Sn11 2.626605 1_555
Ru0 Sn1 2.671843 1_655
Ru0 Sn2 2.671850 1_555
Ru0 Sn13 2.716738 1_555
Ru0 Sn19 2.801522 1_555
Ru0 Y1 3.193436 1_655
Ru0 Y3 3.193445 1_555
Ru0 Y0 3.442843 1_555
Rh0 Sn7 2.638656 1_566
Rh0 Sn11 2.639007 1_456
Rh0 Sn5 2.687791 1_565
Rh0 Sn6 2.691310 1_455
Rh0 Sn17 2.726093 1_555
Rh0 Sn20 2.810041 1_555
Rh0 Y5 3.200688 1_565
Rh0 Y4 3.208625 1_455
Rh0 Y0 3.499545 1_456
Rh1 Sn12 2.638656 1_566
Rh1 Sn8 2.639007 1_556
Rh1 Sn4 2.687794 1_565
Rh1 Sn6 2.691328 1_555
Rh1 Sn18 2.726096 1_555
Rh1 Sn20 2.810058 1_555
Rh1 Y5 3.200703 1_565
Rh1 Y6 3.208626 1_555
Rh1 Y0 3.499552 1_556
Rh2 Sn9 2.633761 1_556
Rh2 Sn10 2.633768 1_556
Rh2 Sn4 2.687391 1_455
Rh2 Sn5 2.687397 1_555
Rh2 Sn16 2.722199 1_555
Rh2 Sn20 2.807829 1_555
Rh2 Y4 3.204272 1_455
Rh2 Y6 3.204280 1_555
Rh2 Y0 3.536657 1_446
Rh3 Sn12 2.636613 1_555
Rh3 Sn9 2.637184 1_655
Rh3 Sn2 2.682359 1_545
Rh3 Sn3 2.686946 1_655
Rh3 Sn14 2.723440 1_555
Rh3 Sn19 2.825946 1_555
Rh3 Y2 3.197270 1_545
Rh3 Y1 3.206704 1_655
Rh3 Y0 3.502387 1_545
Rh4 Sn7 2.636613 1_555
Rh4 Sn10 2.637181 1_555
Rh4 Sn1 2.682362 1_545
Rh4 Sn3 2.686955 1_555
Rh4 Sn15 2.723437 1_555
Rh4 Sn19 2.825962 1_555
Rh4 Y2 3.197256 1_545
Rh4 Y3 3.206705 1_555
Rh4 Y0 3.502380 1_445
