# generated using pymatgen
data_Sr4VOs3O16
_symmetry_space_group_name_H-M   'P 1'
_cell_length_a   5.22742514
_cell_length_b   5.44020002
_cell_length_c   12.49931683
_cell_angle_alpha   90.00000000
_cell_angle_beta   90.00000000
_cell_angle_gamma   90.75119968
_symmetry_Int_Tables_number   1
_chemical_formula_structural   Sr4VOs3O16
_chemical_formula_sum   'Sr4 V1 Os3 O16'
_cell_volume   355.42800090
_cell_formula_units_Z   1
loop_
 _symmetry_equiv_pos_site_id
 _symmetry_equiv_pos_as_xyz
  1  'x, y, z'
loop_
 _atom_site_type_symbol
 _atom_site_label
 _atom_site_symmetry_multiplicity
 _atom_site_fract_x
 _atom_site_fract_y
 _atom_site_fract_z
 _atom_site_occupancy
  Sr  Sr0  1  0.75000000  0.00000000  0.63961976  1
  Sr  Sr1  1  0.25000000  0.50000000  0.86421261  1
  Sr  Sr2  1  0.25000000  0.00000000  0.36108707  1
  Sr  Sr3  1  0.75000000  0.50000000  0.14059285  1
  V  V0  1  0.75000000  0.00000000  0.89782880  1
  Os  Os0  1  0.75000000  0.50000000  0.41920142  1
  Os  Os1  1  0.25000000  0.00000000  0.08189184  1
  Os  Os2  1  0.25000000  0.50000000  0.58162545  1
  O  O0  1  0.09702657  0.31080084  0.68271028  1
  O  O1  1  0.59770655  0.19379497  0.81475041  1
  O  O2  1  0.90229345  0.80620503  0.81475041  1
  O  O3  1  0.40297343  0.68919916  0.68271028  1
  O  O4  1  0.92208208  0.67254779  0.31629522  1
  O  O5  1  0.45160791  0.86299845  0.18249975  1
  O  O6  1  0.04839209  0.13700155  0.18249975  1
  O  O7  1  0.57791792  0.32745221  0.31629522  1
  O  O8  1  0.49682799  0.28669444  0.52809266  1
  O  O9  1  0.97752237  0.17553831  0.97161971  1
  O  O10  1  0.52247763  0.82446169  0.97161971  1
  O  O11  1  0.00317201  0.71330556  0.52809266  1
  O  O12  1  0.50893372  0.72056416  0.47081997  1
  O  O13  1  0.07302703  0.73420896  0.04017962  1
  O  O14  1  0.42697297  0.26579104  0.04017962  1
  O  O15  1  0.99106628  0.27943584  0.47081997  1
loop_
_geom_bond_atom_site_label_1
_geom_bond_atom_site_label_2
_geom_bond_distance
_geom_bond_site_symmetry_2
O0 Os2 1.809337 1_555
O0 Sr0 2.521771 1_455
O0 Sr1 2.612295 1_555
O1 V0 1.686898 1_555
O1 Sr1 2.557395 1_555
O1 Sr0 2.561070 1_555
O2 V0 1.686898 1_565
O2 Sr1 2.557395 1_655
O2 Sr0 2.561070 1_565
O3 Os2 1.809337 1_555
O3 Sr0 2.521771 1_565
O3 Sr1 2.612295 1_555
O4 Os0 1.822813 1_555
O4 Sr2 2.518959 1_665
O4 Sr3 2.547804 1_555
O5 Os1 1.807805 1_565
O5 Sr2 2.582553 1_565
O5 Sr3 2.586109 1_555
O6 Os1 1.807805 1_555
O6 Sr2 2.582553 1_555
O6 Sr3 2.586109 1_455
O7 Os0 1.822813 1_555
O7 Sr2 2.518959 1_555
O7 Sr3 2.547804 1_555
O8 Os2 1.870396 1_555
O8 Os0 2.215921 1_555
O8 Sr0 2.486256 1_555
O8 Sr2 2.898638 1_555
O9 V0 1.774104 1_555
O9 Os1 2.208211 1_656
O9 Sr1 2.623151 1_655
O9 Sr3 3.007669 1_556
O10 V0 1.774104 1_565
O10 Os1 2.208211 1_566
O10 Sr1 2.623151 1_555
O10 Sr3 3.007669 1_556
O11 Os2 1.870396 1_555
O11 Os0 2.215921 1_455
O11 Sr0 2.486256 1_465
O11 Sr2 2.898638 1_565
O12 Os0 1.866470 1_555
O12 Os2 2.268816 1_555
O12 Sr2 2.465418 1_565
O12 Sr0 2.881030 1_565
O13 Os1 1.784203 1_565
O13 Sr3 2.448196 1_455
O13 Sr1 2.710690 1_554
O14 Os1 1.784203 1_555
O14 Sr3 2.448196 1_555
O14 Sr1 2.710690 1_554
O15 Os0 1.866470 1_555
O15 Os2 2.268816 1_655
O15 Sr2 2.465418 1_655
O15 Sr0 2.881030 1_555
