# generated using pymatgen
data_Ta5Ti6Nb3P8
_symmetry_space_group_name_H-M   'P 1'
_cell_length_a   7.54342566
_cell_length_b   7.54342584
_cell_length_c   13.77473048
_cell_angle_alpha   76.17295582
_cell_angle_beta   76.17295516
_cell_angle_gamma   26.18713431
_symmetry_Int_Tables_number   1
_chemical_formula_structural   Ta5Ti6Nb3P8
_chemical_formula_sum   'Ta5 Ti6 Nb3 P8'
_cell_volume   335.33175154
_cell_formula_units_Z   1
loop_
 _symmetry_equiv_pos_site_id
 _symmetry_equiv_pos_as_xyz
  1  'x, y, z'
loop_
 _atom_site_type_symbol
 _atom_site_label
 _atom_site_symmetry_multiplicity
 _atom_site_fract_x
 _atom_site_fract_y
 _atom_site_fract_z
 _atom_site_occupancy
  Ta  Ta0  1  0.66276544  0.66276544  0.02897404  1
  Ta  Ta1  1  0.33723456  0.33723456  0.97102596  1
  Ta  Ta2  1  0.99918339  0.99918339  0.66506224  1
  Ta  Ta3  1  0.00081661  0.00081661  0.33493776  1
  Ta  Ta4  1  0.00000000  0.00000000  0.00000000  1
  Ti  Ti0  1  0.82387293  0.82387293  0.54375254  1
  Ti  Ti1  1  0.17612707  0.17612707  0.45624746  1
  Ti  Ti2  1  0.20869951  0.20869951  0.20251208  1
  Ti  Ti3  1  0.79130049  0.79130049  0.79748792  1
  Ti  Ti4  1  0.19737943  0.19737943  0.69098293  1
  Ti  Ti5  1  0.80262057  0.80262057  0.30901707  1
  Nb  Nb0  1  0.42878227  0.42878227  0.17183661  1
  Nb  Nb1  1  0.57121773  0.57121773  0.82816339  1
  Nb  Nb2  1  0.50000000  0.50000000  0.50000000  1
  P  P0  1  0.06600665  0.06600665  0.15183644  1
  P  P1  1  0.93399335  0.93399335  0.84816356  1
  P  P2  1  0.36858041  0.36858041  0.66396340  1
  P  P3  1  0.63141959  0.63141959  0.33603660  1
  P  P4  1  0.36664582  0.36664582  0.40037559  1
  P  P5  1  0.63335418  0.63335418  0.59962441  1
  P  P6  1  0.18034559  0.18034559  0.88648833  1
  P  P7  1  0.81965441  0.81965441  0.11351167  1
loop_
_geom_bond_atom_site_label_1
_geom_bond_atom_site_label_2
_geom_bond_distance
_geom_bond_site_symmetry_2
Nb0 P7 2.601839 1_455
Nb0 P7 2.601839 1_545
Nb0 P0 2.605712 1_655
Nb0 P0 2.605712 1_565
Nb0 P4 3.055062 1_555
Nb1 P6 2.601839 1_655
Nb1 P6 2.601839 1_565
Nb1 P1 2.605712 1_455
Nb1 P1 2.605712 1_545
Nb1 P5 3.055062 1_555
Nb2 P2 2.586504 1_555
Nb2 P3 2.586504 1_555
Nb2 P5 2.653840 1_555
Nb2 P4 2.653840 1_555
P0 Ti2 2.366894 1_555
P0 Ta3 2.468466 1_555
P0 Ta4 2.512116 1_555
P0 Ta0 2.573963 1_545
P0 Ta0 2.573963 1_455
P1 Ti3 2.366894 1_555
P1 Ta2 2.468466 1_555
P1 Ta4 2.512116 1_666
P1 Ta1 2.573963 1_565
P1 Ta1 2.573963 1_655
P2 Ti4 2.451110 1_555
P2 Ti3 2.562777 1_455
P2 Ti3 2.562777 1_545
P2 Ta2 2.572549 1_545
P2 Ta2 2.572549 1_455
P2 Ti0 2.574433 1_455
P2 Ti0 2.574433 1_545
P3 Ti5 2.451110 1_555
P3 Ti2 2.562777 1_655
P3 Ti2 2.562777 1_565
P3 Ta3 2.572549 1_565
P3 Ta3 2.572549 1_655
P3 Ti1 2.574433 1_655
P3 Ti1 2.574433 1_565
P4 Ti5 2.443398 1_455
P4 Ti5 2.443398 1_545
P4 Ti0 2.570363 1_455
P4 Ti0 2.570363 1_545
P4 Ta3 2.597668 1_655
P4 Ta3 2.597668 1_565
P4 Ti1 2.715273 1_555
P5 Ti4 2.443398 1_655
P5 Ti4 2.443398 1_565
P5 Ti1 2.570363 1_655
P5 Ti1 2.570363 1_565
P5 Ta2 2.597668 1_455
P5 Ta2 2.597668 1_545
P5 Ti0 2.715273 1_555
P6 Ti3 2.469966 1_545
P6 Ti3 2.469966 1_455
P6 Ta0 2.567189 1_456
P6 Ta0 2.567189 1_546
P6 Ti4 2.642780 1_555
P6 Ta4 2.726612 1_556
P6 Ta1 2.826386 1_555
P7 Ti2 2.469966 1_565
P7 Ti2 2.469966 1_655
P7 Ta1 2.567189 1_654
P7 Ta1 2.567189 1_564
P7 Ti5 2.642780 1_555
P7 Ta4 2.726612 1_665
P7 Ta0 2.826386 1_555
