# generated using pymatgen
data_Sr(NbS2)2
_symmetry_space_group_name_H-M   'P 1'
_cell_length_a   5.90736387
_cell_length_b   6.81198958
_cell_length_c   14.88133356
_cell_angle_alpha   90.00000000
_cell_angle_beta   90.00000000
_cell_angle_gamma   90.00000000
_symmetry_Int_Tables_number   1
_chemical_formula_structural   Sr(NbS2)2
_chemical_formula_sum   'Sr4 Nb8 S16'
_cell_volume   598.83827221
_cell_formula_units_Z   4
loop_
 _symmetry_equiv_pos_site_id
 _symmetry_equiv_pos_as_xyz
  1  'x, y, z'
loop_
 _atom_site_type_symbol
 _atom_site_label
 _atom_site_symmetry_multiplicity
 _atom_site_fract_x
 _atom_site_fract_y
 _atom_site_fract_z
 _atom_site_occupancy
  Sr  Sr0  1  0.31198232  0.25000000  0.00285028  1
  Sr  Sr1  1  0.31198232  0.75000000  0.49714972  1
  Sr  Sr2  1  0.68801768  0.25000000  0.50285028  1
  Sr  Sr3  1  0.68801768  0.75000000  0.99714972  1
  Nb  Nb0  1  0.16276431  0.00000000  0.25000000  1
  Nb  Nb1  1  0.16276431  0.50000000  0.25000000  1
  Nb  Nb2  1  0.33317272  0.25000000  0.75026087  1
  Nb  Nb3  1  0.33317272  0.75000000  0.74973913  1
  Nb  Nb4  1  0.66682728  0.25000000  0.25026087  1
  Nb  Nb5  1  0.66682728  0.75000000  0.24973913  1
  Nb  Nb6  1  0.83723569  0.00000000  0.75000000  1
  Nb  Nb7  1  0.83723569  0.50000000  0.75000000  1
  S  S0  1  0.00890253  0.25000000  0.64551944  1
  S  S1  1  0.00890253  0.75000000  0.85448056  1
  S  S2  1  0.99670458  0.25000000  0.85488221  1
  S  S3  1  0.99670458  0.75000000  0.64511779  1
  S  S4  1  0.49876008  0.50088950  0.14489377  1
  S  S5  1  0.49876008  0.99911050  0.14489377  1
  S  S6  1  0.49876008  0.00088950  0.35510623  1
  S  S7  1  0.49876008  0.49911050  0.35510623  1
  S  S8  1  0.50123992  0.50088950  0.64489377  1
  S  S9  1  0.50123992  0.00088950  0.85510623  1
  S  S10  1  0.50123992  0.49911050  0.85510623  1
  S  S11  1  0.50123992  0.99911050  0.64489377  1
  S  S12  1  0.00329542  0.75000000  0.14511779  1
  S  S13  1  0.00329542  0.25000000  0.35488221  1
  S  S14  1  0.99109747  0.25000000  0.14551944  1
  S  S15  1  0.99109747  0.75000000  0.35448056  1
loop_
_geom_bond_atom_site_label_1
_geom_bond_atom_site_label_2
_geom_bond_distance
_geom_bond_site_symmetry_2
Nb0 S13 2.494734 1_555
Nb0 S12 2.494734 1_545
Nb0 S15 2.519133 1_445
Nb0 S14 2.519133 1_455
Nb0 S6 2.527081 1_555
Nb0 S5 2.527081 1_545
Nb1 S13 2.494734 1_555
Nb1 S12 2.494734 1_555
Nb1 S15 2.519133 1_455
Nb1 S14 2.519133 1_455
Nb1 S7 2.527081 1_555
Nb1 S4 2.527081 1_555
Nb2 S0 2.469610 1_555
Nb2 S10 2.509913 1_555
Nb2 S9 2.509913 1_555
Nb2 S8 2.522940 1_555
Nb2 S11 2.522940 1_545
Nb2 S2 2.524810 1_455
Nb3 S1 2.469610 1_555
Nb3 S11 2.509913 1_555
Nb3 S8 2.509913 1_555
Nb3 S9 2.522940 1_565
Nb3 S10 2.522940 1_555
Nb3 S3 2.524810 1_455
Nb4 S14 2.469610 1_555
Nb4 S7 2.509913 1_555
Nb4 S6 2.509913 1_555
Nb4 S4 2.522940 1_555
Nb4 S5 2.522940 1_545
Nb4 S13 2.524810 1_655
Nb5 S15 2.469610 1_555
Nb5 S5 2.509913 1_555
Nb5 S4 2.509913 1_555
Nb5 S6 2.522940 1_565
Nb5 S7 2.522940 1_555
Nb5 S12 2.524810 1_655
Nb6 S2 2.494734 1_555
Nb6 S3 2.494734 1_545
Nb6 S1 2.519133 1_645
Nb6 S0 2.519133 1_655
Nb6 S9 2.527081 1_555
Nb6 S11 2.527081 1_545
Nb7 S2 2.494734 1_555
Nb7 S3 2.494734 1_555
Nb7 S1 2.519133 1_655
Nb7 S0 2.519133 1_655
Nb7 S10 2.527081 1_555
Nb7 S8 2.527081 1_555
S0 Sr2 2.846194 1_455
S1 Sr3 2.846194 1_455
S2 Sr0 2.883990 1_656
S3 Sr1 2.883990 1_655
S4 Sr0 2.933671 1_555
S4 Sr3 2.993914 1_554
S5 Sr0 2.933671 1_565
S5 Sr3 2.993914 1_554
S6 Sr1 2.933671 1_545
S6 Sr2 2.993914 1_555
S7 Sr1 2.933671 1_555
S7 Sr2 2.993914 1_555
S8 Sr2 2.933671 1_555
S8 Sr1 2.993914 1_555
S9 Sr3 2.933671 1_545
S9 Sr0 2.993914 1_556
S10 Sr3 2.933671 1_555
S10 Sr0 2.993914 1_556
S11 Sr2 2.933671 1_565
S11 Sr1 2.993914 1_555
S12 Sr3 2.883990 1_454
S13 Sr2 2.883990 1_455
S14 Sr0 2.846194 1_655
S15 Sr1 2.846194 1_655
