# generated using pymatgen
data_YGa6
_symmetry_space_group_name_H-M   'P 1'
_cell_length_a   5.92390433
_cell_length_b   5.92390433
_cell_length_c   7.51347226
_cell_angle_alpha   90.00000000
_cell_angle_beta   90.00000000
_cell_angle_gamma   90.00000000
_symmetry_Int_Tables_number   1
_chemical_formula_structural   YGa6
_chemical_formula_sum   'Y2 Ga12'
_cell_volume   263.66759604
_cell_formula_units_Z   2
loop_
 _symmetry_equiv_pos_site_id
 _symmetry_equiv_pos_as_xyz
  1  'x, y, z'
loop_
 _atom_site_type_symbol
 _atom_site_label
 _atom_site_symmetry_multiplicity
 _atom_site_fract_x
 _atom_site_fract_y
 _atom_site_fract_z
 _atom_site_occupancy
  Y  Y0  1  0.25000000  0.75000000  0.00000000  1
  Y  Y1  1  0.75000000  0.25000000  0.00000000  1
  Ga  Ga0  1  0.25000000  0.25000000  0.16126064  1
  Ga  Ga1  1  0.25000000  0.25000000  0.83873936  1
  Ga  Ga2  1  0.75000000  0.75000000  0.83873936  1
  Ga  Ga3  1  0.75000000  0.75000000  0.16126064  1
  Ga  Ga4  1  0.93549680  0.43549680  0.34977762  1
  Ga  Ga5  1  0.06450320  0.93549680  0.34977762  1
  Ga  Ga6  1  0.43549680  0.56450320  0.34977762  1
  Ga  Ga7  1  0.93549680  0.06450320  0.65022238  1
  Ga  Ga8  1  0.56450320  0.43549680  0.65022238  1
  Ga  Ga9  1  0.56450320  0.06450320  0.34977762  1
  Ga  Ga10  1  0.43549680  0.93549680  0.65022238  1
  Ga  Ga11  1  0.06450320  0.56450320  0.65022238  1
loop_
_geom_bond_atom_site_label_1
_geom_bond_atom_site_label_2
_geom_bond_distance
_geom_bond_site_symmetry_2
Ga0 Ga1 2.423255 1_554
Ga0 Ga9 2.585505 1_555
Ga0 Ga5 2.585505 1_545
Ga0 Ga4 2.585505 1_455
Ga0 Ga6 2.585505 1_555
Ga0 Y0 3.200188 1_555
Ga0 Y0 3.200188 1_545
Ga0 Y1 3.200188 1_555
Ga0 Y1 3.200188 1_455
Ga1 Ga8 2.585505 1_555
Ga1 Ga11 2.585505 1_555
Ga1 Ga7 2.585505 1_455
Ga1 Ga10 2.585505 1_545
Ga1 Y1 3.200188 1_556
Ga1 Y0 3.200188 1_546
Ga1 Y0 3.200188 1_556
Ga1 Y1 3.200188 1_456
Ga2 Ga3 2.423255 1_556
Ga2 Ga8 2.585505 1_555
Ga2 Ga7 2.585505 1_565
Ga2 Y0 3.200188 1_656
Ga2 Y1 3.200188 1_556
Ga2 Y1 3.200188 1_566
Ga2 Y0 3.200188 1_556
Ga3 Ga4 2.585505 1_555
Ga3 Ga6 2.585505 1_555
Ga3 Ga9 2.585505 1_565
Ga3 Ga5 2.585505 1_655
Ga3 Y0 3.200188 1_555
Ga3 Y1 3.200188 1_565
Ga3 Y0 3.200188 1_655
Ga3 Y1 3.200188 1_555
Ga4 Y1 3.053134 1_555
Ga5 Ga7 2.502768 1_465
Ga5 Y0 3.053134 1_555
Ga6 Ga8 2.502768 1_555
Ga6 Y0 3.053134 1_555
Ga7 Y1 3.053134 1_556
Ga8 Y1 3.053134 1_556
Ga9 Y1 3.053134 1_555
Ga10 Ga9 2.502768 1_565
Ga10 Ga2 2.585505 1_555
Ga10 Y0 3.053134 1_556
Ga11 Ga4 2.502768 1_455
Ga11 Ga2 2.585505 1_455
Ga11 Y0 3.053134 1_556
