# generated using pymatgen
data_Ga2ReSi2Tc
_symmetry_space_group_name_H-M   'P 1'
_cell_length_a   3.18131167
_cell_length_b   3.18131167
_cell_length_c   8.04353899
_cell_angle_alpha   90.00000000
_cell_angle_beta   90.00000000
_cell_angle_gamma   90.00000000
_symmetry_Int_Tables_number   1
_chemical_formula_structural   Ga2ReSi2Tc
_chemical_formula_sum   'Ga2 Re1 Si2 Tc1'
_cell_volume   81.40659854
_cell_formula_units_Z   1
loop_
 _symmetry_equiv_pos_site_id
 _symmetry_equiv_pos_as_xyz
  1  'x, y, z'
loop_
 _atom_site_type_symbol
 _atom_site_label
 _atom_site_symmetry_multiplicity
 _atom_site_fract_x
 _atom_site_fract_y
 _atom_site_fract_z
 _atom_site_occupancy
  Ga  Ga0  1  0.75000100  0.75000100  0.08739739  1
  Ga  Ga1  1  0.25000100  0.25000100  0.91404558  1
  Re  Re0  1  0.75000100  0.75000100  0.72910299  1
  Si  Si0  1  0.75000100  0.75000100  0.41460908  1
  Si  Si1  1  0.25000100  0.25000100  0.58433889  1
  Tc  Tc0  1  0.25000100  0.25000100  0.27050806  1
loop_
_geom_bond_atom_site_label_1
_geom_bond_atom_site_label_2
_geom_bond_distance
_geom_bond_site_symmetry_2
Ga0 Si0 2.631940 1_555
Ga0 Ga1 2.646624 1_564
Ga0 Ga1 2.646624 1_554
Ga0 Ga1 2.646624 1_664
Ga0 Ga1 2.646624 1_654
Ga0 Tc0 2.688807 1_555
Ga0 Tc0 2.688807 1_565
Ga0 Tc0 2.688807 1_655
Ga0 Tc0 2.688807 1_665
Ga0 Re0 2.881955 1_554
Ga1 Si1 2.652009 1_555
Ga1 Re0 2.696907 1_455
Ga1 Re0 2.696907 1_545
Ga1 Re0 2.696907 1_445
Ga1 Re0 2.696907 1_555
Ga1 Tc0 2.867220 1_556
Re0 Si0 2.529644 1_555
Re0 Si1 2.533029 1_555
Re0 Si1 2.533029 1_655
Re0 Si1 2.533029 1_565
Re0 Si1 2.533029 1_665
Si0 Tc0 2.530582 1_565
Si0 Tc0 2.530582 1_655
Si0 Tc0 2.530582 1_665
Si0 Tc0 2.530582 1_555
Si0 Si1 2.631391 1_555
Si0 Si1 2.631391 1_655
Si0 Si1 2.631391 1_565
Si0 Si1 2.631391 1_665
Si1 Tc0 2.524311 1_555
