# generated using pymatgen
data_Hf2Zr3ZnSb3
_symmetry_space_group_name_H-M   'P 1'
_cell_length_a   8.60421991
_cell_length_b   8.60422006
_cell_length_c   5.81086278
_cell_angle_alpha   90.00000000
_cell_angle_beta   90.00000000
_cell_angle_gamma   119.99999941
_symmetry_Int_Tables_number   1
_chemical_formula_structural   Hf2Zr3ZnSb3
_chemical_formula_sum   'Hf4 Zr6 Zn2 Sb6'
_cell_volume   372.55831927
_cell_formula_units_Z   2
loop_
 _symmetry_equiv_pos_site_id
 _symmetry_equiv_pos_as_xyz
  1  'x, y, z'
loop_
 _atom_site_type_symbol
 _atom_site_label
 _atom_site_symmetry_multiplicity
 _atom_site_fract_x
 _atom_site_fract_y
 _atom_site_fract_z
 _atom_site_occupancy
  Hf  Hf0  1  0.33333300  0.66666700  0.50000000  1
  Hf  Hf1  1  0.66666700  0.33333300  0.00000000  1
  Hf  Hf2  1  0.66666700  0.33333300  0.50000000  1
  Hf  Hf3  1  0.33333300  0.66666700  0.00000000  1
  Zr  Zr0  1  0.73117969  0.73117969  0.25000000  1
  Zr  Zr1  1  0.73117969  0.00000000  0.75000000  1
  Zr  Zr2  1  0.00000000  0.26882031  0.25000000  1
  Zr  Zr3  1  1.00000000  0.73117969  0.75000000  1
  Zr  Zr4  1  0.26882031  0.26882031  0.75000000  1
  Zr  Zr5  1  0.26882031  0.00000000  0.25000000  1
  Zn  Zn0  1  0.00000000  0.00000000  0.00000000  1
  Zn  Zn1  1  0.00000000  0.00000000  0.50000000  1
  Sb  Sb0  1  0.38578248  0.00000000  0.75000000  1
  Sb  Sb1  1  0.38578248  0.38578248  0.25000000  1
  Sb  Sb2  1  0.00000000  0.61421752  0.25000000  1
  Sb  Sb3  1  0.00000000  0.38578248  0.75000000  1
  Sb  Sb4  1  0.61421752  0.61421752  0.75000000  1
  Sb  Sb5  1  0.61421752  0.00000000  0.25000000  1
loop_
_geom_bond_atom_site_label_1
_geom_bond_atom_site_label_2
_geom_bond_distance
_geom_bond_site_symmetry_2
Hf0 Sb2 3.040649 1_555
Hf0 Sb0 3.040649 1_565
Hf0 Sb3 3.040652 1_555
Hf0 Sb5 3.040652 1_565
Hf0 Sb4 3.040657 1_555
Hf0 Sb1 3.040657 1_555
Hf1 Sb3 3.040649 1_654
Hf1 Sb5 3.040649 1_555
Hf1 Sb2 3.040652 1_655
Hf1 Sb0 3.040652 1_554
Hf1 Sb1 3.040657 1_555
Hf1 Sb4 3.040657 1_554
Hf2 Sb3 3.040649 1_655
Hf2 Sb5 3.040649 1_555
Hf2 Sb2 3.040652 1_655
Hf2 Sb0 3.040652 1_555
Hf2 Sb1 3.040657 1_555
Hf2 Sb4 3.040657 1_555
Hf3 Sb2 3.040649 1_555
Hf3 Sb0 3.040649 1_564
Hf3 Sb3 3.040652 1_554
Hf3 Sb5 3.040652 1_565
Hf3 Sb4 3.040657 1_554
Hf3 Sb1 3.040657 1_555
Zn0 Zr5 2.731355 1_555
Zn0 Zr1 2.731355 1_454
Zn0 Zr4 2.731355 1_554
Zn0 Zr2 2.731355 1_555
Zn0 Zr0 2.731355 1_445
Zn0 Zr3 2.731355 1_444
Zn1 Zr5 2.731355 1_555
Zn1 Zr1 2.731355 1_455
Zn1 Zr4 2.731355 1_555
Zn1 Zr2 2.731355 1_555
Zn1 Zr0 2.731355 1_445
Zn1 Zr3 2.731355 1_445
Sb0 Zr4 2.947951 1_555
Sb0 Zr3 2.947951 1_445
Sb0 Zr1 2.971873 1_555
Sb0 Zr5 3.074786 1_556
Sb0 Zr5 3.074786 1_555
Sb1 Zr2 2.947951 1_555
Sb1 Zr5 2.947951 1_555
Sb1 Zr0 2.971874 1_555
Sb1 Zr4 3.074786 1_555
Sb1 Zr4 3.074786 1_554
Sb2 Zr0 2.947951 1_455
Sb2 Zr5 2.947951 1_565
Sb2 Zr2 2.971874 1_555
Sb2 Zr3 3.074786 1_455
Sb2 Zr3 3.074786 1_454
Sb3 Zr4 2.947951 1_555
Sb3 Zr1 2.947951 1_455
Sb3 Zr3 2.971874 1_455
Sb3 Zr2 3.074786 1_556
Sb3 Zr2 3.074786 1_555
Sb4 Zr3 2.947951 1_555
Sb4 Zr1 2.947951 1_565
Sb4 Zr4 2.971874 1_555
Sb4 Zr0 3.074786 1_555
Sb4 Zr0 3.074786 1_556
Sb5 Zr2 2.947951 1_655
Sb5 Zr0 2.947951 1_545
Sb5 Zr5 2.971873 1_555
Sb5 Zr1 3.074786 1_554
Sb5 Zr1 3.074786 1_555
