# generated using pymatgen
data_Ti4MnCoIr2
_symmetry_space_group_name_H-M   'P 1'
_cell_length_a   6.07743754
_cell_length_b   4.31245951
_cell_length_c   8.61497292
_cell_angle_alpha   90.00000000
_cell_angle_beta   89.99979690
_cell_angle_gamma   90.00000000
_symmetry_Int_Tables_number   1
_chemical_formula_structural   Ti4MnCoIr2
_chemical_formula_sum   'Ti8 Mn2 Co2 Ir4'
_cell_volume   225.78726938
_cell_formula_units_Z   2
loop_
 _symmetry_equiv_pos_site_id
 _symmetry_equiv_pos_as_xyz
  1  'x, y, z'
loop_
 _atom_site_type_symbol
 _atom_site_label
 _atom_site_symmetry_multiplicity
 _atom_site_fract_x
 _atom_site_fract_y
 _atom_site_fract_z
 _atom_site_occupancy
  Ti  Ti0  1  0.00136187  0.74999900  0.12292837  1
  Ti  Ti1  1  0.49865710  0.74999900  0.12293660  1
  Ti  Ti2  1  0.99867018  0.24999900  0.37703413  1
  Ti  Ti3  1  0.50134418  0.24999900  0.37703621  1
  Ti  Ti4  1  0.50045804  0.74999900  0.62676679  1
  Ti  Ti5  1  0.99951830  0.74999900  0.62676899  1
  Ti  Ti6  1  0.49949925  0.24999900  0.87325554  1
  Ti  Ti7  1  0.00049305  0.24999900  0.87325597  1
  Mn  Mn0  1  0.74998294  0.24999900  0.62484383  1
  Mn  Mn1  1  0.25000501  0.74999900  0.87519731  1
  Co  Co0  1  0.74999464  0.24999900  0.12486205  1
  Co  Co1  1  0.25001226  0.74999900  0.37512052  1
  Ir  Ir0  1  0.25001720  0.24999900  0.12543501  1
  Ir  Ir1  1  0.74999908  0.74999900  0.37455607  1
  Ir  Ir2  1  0.24999604  0.24999900  0.62454216  1
  Ir  Ir3  1  0.74998687  0.74999900  0.87546145  1
loop_
_geom_bond_atom_site_label_1
_geom_bond_atom_site_label_2
_geom_bond_distance
_geom_bond_site_symmetry_2
Mn0 Ti3 2.615533 1_555
Mn0 Ti2 2.615710 1_555
Mn0 Ti6 2.626258 1_555
Mn0 Ti7 2.626362 1_655
Mn0 Ti4 2.636150 1_545
Mn0 Ti4 2.636150 1_555
Mn0 Ti5 2.636187 1_545
Mn0 Ti5 2.636187 1_555
Mn1 Ti0 2.615002 1_556
Mn1 Ti1 2.615100 1_556
Mn1 Ti4 2.626282 1_555
Mn1 Ti5 2.626394 1_455
Mn1 Ti6 2.636044 1_555
Mn1 Ti6 2.636044 1_565
Mn1 Ti7 2.636106 1_565
Mn1 Ti7 2.636106 1_555
Co0 Ti1 2.642503 1_545
Co0 Ti1 2.642503 1_555
Co0 Ti0 2.642608 1_655
Co0 Ti0 2.642608 1_645
Co0 Ti3 2.646359 1_555
Co0 Ti2 2.646440 1_555
Co0 Ti7 2.648782 1_654
Co0 Ti6 2.648783 1_554
Co1 Ti3 2.642483 1_555
Co1 Ti3 2.642483 1_565
Co1 Ti2 2.642518 1_455
Co1 Ti2 2.642518 1_465
Co1 Ti1 2.646408 1_555
Co1 Ti0 2.646495 1_555
Co1 Ti4 2.648890 1_555
Co1 Ti5 2.649065 1_455
Ir0 Ti1 2.633096 1_545
Ir0 Ti1 2.633096 1_555
Ir0 Ti0 2.633150 1_545
Ir0 Ti0 2.633150 1_555
Ir0 Ti6 2.649286 1_554
Ir0 Ti7 2.649438 1_554
Ir0 Ti3 2.651654 1_555
Ir0 Ti2 2.651700 1_455
Ir1 Ti3 2.633147 1_565
Ir1 Ti3 2.633147 1_555
Ir1 Ti2 2.633203 1_555
Ir1 Ti2 2.633203 1_565
Ir1 Ti5 2.649660 1_555
Ir1 Ti4 2.649712 1_555
Ir1 Ti1 2.651835 1_555
Ir1 Ti0 2.651957 1_655
Ir2 Ti2 2.622904 1_455
Ir2 Ti3 2.622959 1_555
Ir2 Ti7 2.624931 1_555
Ir2 Ti6 2.624938 1_555
Ir2 Ti4 2.639448 1_555
Ir2 Ti4 2.639448 1_545
Ir2 Ti5 2.639503 1_445
Ir2 Ti5 2.639503 1_455
Ir3 Ti1 2.622678 1_556
Ir3 Ti0 2.622790 1_656
Ir3 Ti5 2.624881 1_555
Ir3 Ti4 2.624896 1_555
Ir3 Ti6 2.639537 1_555
Ir3 Ti6 2.639537 1_565
Ir3 Ti7 2.639602 1_655
Ir3 Ti7 2.639602 1_665
