# generated using pymatgen
data_Cs2TiTc11Se14
_symmetry_space_group_name_H-M   'P 1'
_cell_length_a   9.76152205
_cell_length_b   9.73229384
_cell_length_c   9.76120444
_cell_angle_alpha   61.17791375
_cell_angle_beta   60.96516667
_cell_angle_gamma   61.51752553
_symmetry_Int_Tables_number   1
_chemical_formula_structural   Cs2TiTc11Se14
_chemical_formula_sum   'Cs2 Ti1 Tc11 Se14'
_cell_volume   673.68883237
_cell_formula_units_Z   1
loop_
 _symmetry_equiv_pos_site_id
 _symmetry_equiv_pos_as_xyz
  1  'x, y, z'
loop_
 _atom_site_type_symbol
 _atom_site_label
 _atom_site_symmetry_multiplicity
 _atom_site_fract_x
 _atom_site_fract_y
 _atom_site_fract_z
 _atom_site_occupancy
  Cs  Cs0  1  0.38312759  0.38286060  0.38148064  1
  Cs  Cs1  1  0.61822330  0.61807787  0.61795033  1
  Ti  Ti0  1  0.29967293  0.12548134  0.00237141  1
  Tc  Tc0  1  0.19401970  0.88536451  0.06108759  1
  Tc  Tc1  1  0.89026496  0.06057903  0.19316503  1
  Tc  Tc2  1  0.94001304  0.80748299  0.10740586  1
  Tc  Tc3  1  0.81079621  0.11029328  0.93719801  1
  Tc  Tc4  1  0.11033237  0.94089050  0.80846606  1
  Tc  Tc5  1  0.99946097  0.29867069  0.12315003  1
  Tc  Tc6  1  0.87438956  0.00521727  0.69759509  1
  Tc  Tc7  1  0.12636771  0.99552265  0.29741258  1
  Tc  Tc8  1  0.00255810  0.69907479  0.87224111  1
  Tc  Tc9  1  0.69715093  0.87419791  0.00648441  1
  Tc  Tc10  1  0.05933976  0.19669147  0.88484941  1
  Se  Se0  1  0.98421359  0.23679554  0.64612706  1
  Se  Se1  1  0.23424722  0.64732605  0.98088372  1
  Se  Se2  1  0.64930348  0.98282591  0.23446280  1
  Se  Se3  1  0.01511703  0.76231101  0.35149236  1
  Se  Se4  1  0.76510095  0.35241869  0.01505004  1
  Se  Se5  1  0.34977455  0.01612348  0.76194589  1
  Se  Se6  1  0.16431063  0.42001835  0.82043832  1
  Se  Se7  1  0.41461408  0.81138583  0.17520389  1
  Se  Se8  1  0.82467414  0.16635853  0.41469804  1
  Se  Se9  1  0.82904244  0.58635003  0.18192911  1
  Se  Se10  1  0.59060616  0.17901015  0.83085180  1
  Se  Se11  1  0.18000574  0.83315713  0.58621623  1
  Se  Se12  1  0.77544142  0.77984489  0.77941910  1
  Se  Se13  1  0.21783245  0.22566751  0.23042208  1
loop_
_geom_bond_atom_site_label_1
_geom_bond_atom_site_label_2
_geom_bond_distance
_geom_bond_site_symmetry_2
Cs0 Se5 3.713705 1_555
Cs0 Se4 3.715719 1_555
Cs0 Se3 3.735460 1_555
Cs0 Se13 3.735893 1_555
Cs0 Se7 3.750636 1_555
Cs0 Se6 3.863386 1_555
Cs0 Se8 3.893352 1_555
Cs0 Se0 3.978941 1_455
Cs0 Se2 4.010897 1_545
Cs0 Se1 4.033830 1_554
Cs1 Se1 3.707539 1_555
Cs1 Se2 3.717302 1_555
Cs1 Se0 3.732873 1_555
Cs1 Se12 3.789860 1_555
Cs1 Se9 3.821499 1_555
Cs1 Se10 3.826726 1_555
Cs1 Se11 3.859635 1_555
Cs1 Se3 3.953591 1_655
Cs1 Se5 3.980210 1_565
Cs1 Se4 3.995143 1_556
Tc0 Tc1 2.635978 1_465
Tc0 Tc7 2.671597 1_555
Tc0 Tc10 2.690472 1_564
Tc0 Ti0 2.699397 1_565
Tc0 Tc4 2.699904 1_554
Tc0 Tc2 2.701985 1_455
Tc5 Ti0 2.582644 1_655
Tc7 Ti0 2.560319 1_565
Tc10 Ti0 2.755928 1_556
Se0 Tc3 2.529881 1_555
Se0 Tc4 2.536186 1_645
Se0 Tc10 2.574662 1_655
Se0 Tc6 2.677913 1_555
Se1 Tc2 2.519349 1_456
Se1 Tc4 2.549922 1_555
Se1 Tc0 2.591654 1_556
Se1 Tc8 2.687012 1_555
Se2 Tc3 2.529442 1_564
Se2 Tc2 2.551223 1_555
Se2 Tc1 2.598243 1_565
Se2 Tc9 2.660165 1_555
Se3 Tc1 2.535490 1_465
Se3 Tc0 2.536887 1_555
Se3 Tc2 2.604922 1_455
Se3 Tc7 2.692339 1_555
Se4 Tc10 2.514723 1_654
Se4 Tc1 2.563893 1_555
Se4 Tc3 2.593122 1_554
Se4 Tc5 2.700054 1_555
Se5 Tc0 2.531914 1_546
Se5 Tc4 2.546922 1_545
Se5 Tc10 2.558226 1_555
Se5 Ti0 2.770797 1_556
Se6 Tc10 2.520024 1_555
Se6 Tc5 2.558852 1_456
Se6 Tc8 2.565885 1_555
Se6 Ti0 2.621744 1_556
Se7 Tc0 2.544084 1_555
Se7 Tc7 2.558389 1_555
Se7 Tc9 2.630753 1_555
Se7 Ti0 2.653902 1_565
Se8 Tc1 2.513899 1_555
Se8 Tc5 2.552860 1_555
Se8 Tc7 2.576900 1_645
Se8 Tc6 2.592256 1_555
Se9 Tc2 2.506675 1_555
Se9 Tc9 2.552017 1_555
Se9 Tc8 2.610595 1_654
Se9 Tc5 2.667475 1_555
Se10 Tc3 2.504024 1_555
Se10 Tc6 2.526128 1_555
Se10 Tc9 2.589499 1_546
Se10 Ti0 2.663565 1_556
Se11 Tc4 2.519745 1_555
Se11 Tc8 2.539082 1_555
Se11 Tc6 2.593903 1_465
Se11 Tc7 2.658350 1_555
Se12 Tc8 2.440264 1_655
Se12 Tc6 2.442234 1_565
Se12 Tc9 2.447178 1_556
Se13 Tc5 2.479899 1_455
Se13 Ti0 2.483505 1_555
Se13 Tc7 2.483967 1_545
