# generated using pymatgen
data_BeV8InSe16
_symmetry_space_group_name_H-M   'P 1'
_cell_length_a   7.27264211
_cell_length_b   7.27264211
_cell_length_c   10.33615363
_cell_angle_alpha   90.00000000
_cell_angle_beta   90.00000000
_cell_angle_gamma   90.00000000
_symmetry_Int_Tables_number   1
_chemical_formula_structural   BeV8InSe16
_chemical_formula_sum   'Be1 V8 In1 Se16'
_cell_volume   546.69284291
_cell_formula_units_Z   1
loop_
 _symmetry_equiv_pos_site_id
 _symmetry_equiv_pos_as_xyz
  1  'x, y, z'
loop_
 _atom_site_type_symbol
 _atom_site_label
 _atom_site_symmetry_multiplicity
 _atom_site_fract_x
 _atom_site_fract_y
 _atom_site_fract_z
 _atom_site_occupancy
  Be  Be0  1  0.50000000  0.50000000  0.50000000  1
  V  V0  1  0.00000000  0.77857637  0.60456164  1
  V  V1  1  0.50000000  0.28826275  0.12096174  1
  V  V2  1  0.77857637  0.00000000  0.39543836  1
  V  V3  1  0.28826275  0.50000000  0.87903826  1
  V  V4  1  0.22142363  0.00000000  0.39543836  1
  V  V5  1  0.71173725  0.50000000  0.87903826  1
  V  V6  1  0.00000000  0.22142363  0.60456164  1
  V  V7  1  0.50000000  0.71173725  0.12096174  1
  In  In0  1  0.00000000  0.00000000  0.00000000  1
  Se  Se0  1  0.00000000  0.25335685  0.37024166  1
  Se  Se1  1  0.50000000  0.75962317  0.87806252  1
  Se  Se2  1  0.25335685  0.00000000  0.62975834  1
  Se  Se3  1  0.75962317  0.50000000  0.12193748  1
  Se  Se4  1  0.74664315  0.00000000  0.62975834  1
  Se  Se5  1  0.24037683  0.50000000  0.12193748  1
  Se  Se6  1  0.00000000  0.74664315  0.37024166  1
  Se  Se7  1  0.50000000  0.24037683  0.87806252  1
  Se  Se8  1  0.00000000  0.28219929  0.85315079  1
  Se  Se9  1  0.50000000  0.76025454  0.37578401  1
  Se  Se10  1  0.76025454  0.50000000  0.62421599  1
  Se  Se11  1  0.28219929  0.00000000  0.14684921  1
  Se  Se12  1  0.23974546  0.50000000  0.62421599  1
  Se  Se13  1  0.71780071  0.00000000  0.14684921  1
  Se  Se14  1  0.00000000  0.71780071  0.85315079  1
  Se  Se15  1  0.50000000  0.23974546  0.37578401  1
loop_
_geom_bond_atom_site_label_1
_geom_bond_atom_site_label_2
_geom_bond_distance
_geom_bond_site_symmetry_2
Be0 Se10 2.287115 1_555
Be0 Se12 2.287115 1_555
Be0 Se9 2.287115 1_555
Be0 Se15 2.287115 1_555
In0 Se13 2.552639 1_455
In0 Se11 2.552639 1_555
In0 Se8 2.552639 1_554
In0 Se14 2.552639 1_544
Se0 V6 2.433076 1_555
Se0 V4 2.460911 1_555
Se0 V2 2.460911 1_455
Se1 V5 2.436485 1_555
Se1 V3 2.436485 1_555
Se1 V7 2.534682 1_556
Se2 V4 2.433076 1_555
Se2 V6 2.460911 1_555
Se2 V0 2.460911 1_545
Se3 V7 2.436485 1_555
Se3 V1 2.436485 1_555
Se3 V5 2.534682 1_554
Se4 V2 2.433076 1_555
Se4 V6 2.460911 1_655
Se4 V0 2.460911 1_645
Se5 V7 2.436485 1_555
Se5 V1 2.436485 1_555
Se5 V3 2.534682 1_554
Se6 V0 2.433076 1_555
Se6 V4 2.460911 1_565
Se6 V2 2.460911 1_465
Se7 V5 2.436485 1_555
Se7 V3 2.436485 1_555
Se7 V1 2.534682 1_556
Se8 V6 2.607195 1_555
Se8 V3 2.641143 1_555
Se8 V5 2.641143 1_455
Se9 V7 2.657412 1_555
Se9 V2 2.680666 1_565
Se9 V4 2.680666 1_565
Se10 V5 2.657412 1_555
Se10 V0 2.680666 1_655
Se10 V6 2.680666 1_655
Se11 V4 2.607195 1_555
Se11 V1 2.641143 1_555
Se11 V7 2.641143 1_545
Se12 V3 2.657412 1_555
Se12 V0 2.680666 1_555
Se12 V6 2.680666 1_555
Se13 V2 2.607195 1_555
Se13 V1 2.641143 1_555
Se13 V7 2.641143 1_545
Se14 V0 2.607195 1_555
Se14 V3 2.641143 1_555
Se14 V5 2.641143 1_455
Se15 V1 2.657412 1_555
Se15 V2 2.680666 1_555
Se15 V4 2.680666 1_555
