# generated using pymatgen
data_Y20Cd6RuRh
_symmetry_space_group_name_H-M   'P 1'
_cell_length_a   9.69003155
_cell_length_b   9.69003061
_cell_length_c   9.78525717
_cell_angle_alpha   90.00000000
_cell_angle_beta   90.00000000
_cell_angle_gamma   119.99999976
_symmetry_Int_Tables_number   1
_chemical_formula_structural   Y20Cd6RuRh
_chemical_formula_sum   'Y20 Cd6 Ru1 Rh1'
_cell_volume   795.70707014
_cell_formula_units_Z   1
loop_
 _symmetry_equiv_pos_site_id
 _symmetry_equiv_pos_as_xyz
  1  'x, y, z'
loop_
 _atom_site_type_symbol
 _atom_site_label
 _atom_site_symmetry_multiplicity
 _atom_site_fract_x
 _atom_site_fract_y
 _atom_site_fract_z
 _atom_site_occupancy
  Y  Y0  1  0.00000000  0.00000000  0.49984864  1
  Y  Y1  1  0.00000000  0.00000000  0.00015136  1
  Y  Y2  1  0.20958180  0.79041820  0.43958850  1
  Y  Y3  1  0.20958180  0.41916360  0.43958850  1
  Y  Y4  1  0.58083640  0.79041820  0.43958850  1
  Y  Y5  1  0.78982512  0.21017488  0.56094509  1
  Y  Y6  1  0.78982512  0.57964825  0.56094509  1
  Y  Y7  1  0.42035175  0.21017488  0.56094509  1
  Y  Y8  1  0.78982512  0.21017488  0.93905491  1
  Y  Y9  1  0.78982512  0.57964825  0.93905491  1
  Y  Y10  1  0.42035175  0.21017488  0.93905491  1
  Y  Y11  1  0.20958180  0.79041820  0.06041150  1
  Y  Y12  1  0.20958180  0.41916360  0.06041150  1
  Y  Y13  1  0.58083640  0.79041820  0.06041150  1
  Y  Y14  1  0.54235323  0.45764677  0.25000000  1
  Y  Y15  1  0.54235323  0.08470746  0.25000000  1
  Y  Y16  1  0.91529254  0.45764677  0.25000000  1
  Y  Y17  1  0.45859198  0.54140802  0.75000000  1
  Y  Y18  1  0.45859198  0.91718495  0.75000000  1
  Y  Y19  1  0.08281505  0.54140802  0.75000000  1
  Cd  Cd0  1  0.88513200  0.11486800  0.25000000  1
  Cd  Cd1  1  0.88513200  0.77026601  0.25000000  1
  Cd  Cd2  1  0.22973399  0.11486800  0.25000000  1
  Cd  Cd3  1  0.11503682  0.88496318  0.75000000  1
  Cd  Cd4  1  0.11503682  0.23007163  0.75000000  1
  Cd  Cd5  1  0.76992837  0.88496318  0.75000000  1
  Ru  Ru0  1  0.66666700  0.33333300  0.75000000  1
  Rh  Rh0  1  0.33333300  0.66666700  0.25000000  1
loop_
_geom_bond_atom_site_label_1
_geom_bond_atom_site_label_2
_geom_bond_distance
_geom_bond_site_symmetry_2
Cd0 Y0 3.113521 1_655
Cd0 Y1 3.113521 1_655
Cd0 Y16 3.185480 1_555
Cd0 Y15 3.185480 1_555
Cd0 Cd1 3.339204 1_545
Cd0 Cd2 3.339204 1_655
Cd0 Y5 3.437527 1_555
Cd0 Y8 3.437527 1_554
Cd0 Y4 3.570728 1_545
Cd0 Y13 3.570728 1_545
Cd0 Y3 3.570728 1_655
Cd0 Y12 3.570728 1_655
Cd1 Y0 3.113511 1_665
Cd1 Y1 3.113511 1_665
Cd1 Y14 3.185484 1_555
Cd1 Y16 3.185489 1_555
Cd1 Cd2 3.339204 1_665
Cd1 Y6 3.437543 1_555
Cd1 Y9 3.437543 1_554
Cd1 Y4 3.570719 1_555
Cd1 Y13 3.570719 1_555
Cd1 Y2 3.570736 1_655
Cd1 Y11 3.570736 1_655
Cd2 Y0 3.113511 1_555
Cd2 Y1 3.113511 1_555
Cd2 Y14 3.185484 1_555
Cd2 Y15 3.185489 1_555
Cd2 Y7 3.437543 1_555
Cd2 Y10 3.437543 1_554
Cd2 Y3 3.570719 1_555
Cd2 Y12 3.570719 1_555
Cd2 Y2 3.570735 1_545
Cd2 Y11 3.570735 1_545
Cd3 Y1 3.117602 1_566
Cd3 Y0 3.117602 1_565
Cd3 Y19 3.184446 1_555
Cd3 Y18 3.184446 1_555
Cd3 Cd4 3.344111 1_565
Cd3 Cd5 3.344112 1_455
Cd3 Y11 3.426967 1_556
Cd3 Y2 3.426967 1_555
Cd3 Y10 3.575287 1_565
Cd3 Y7 3.575287 1_565
Cd3 Y9 3.575287 1_455
Cd3 Y6 3.575287 1_455
Cd4 Y1 3.117591 1_556
Cd4 Y0 3.117591 1_555
Cd4 Y17 3.184458 1_555
Cd4 Y19 3.184475 1_555
Cd4 Cd5 3.344112 1_445
Cd4 Y12 3.426974 1_556
Cd4 Y3 3.426974 1_555
Cd4 Y10 3.575288 1_555
Cd4 Y7 3.575288 1_555
Cd4 Y8 3.575288 1_455
Cd4 Y5 3.575288 1_455
Cd5 Y1 3.117591 1_666
Cd5 Y0 3.117591 1_665
Cd5 Y17 3.184458 1_555
Cd5 Y18 3.184475 1_555
Cd5 Y13 3.426974 1_556
Cd5 Y4 3.426974 1_555
Cd5 Y8 3.575287 1_565
Cd5 Y5 3.575287 1_565
Cd5 Y9 3.575287 1_555
Cd5 Y6 3.575287 1_555
Ru0 Y9 2.773975 1_555
Ru0 Y6 2.773975 1_555
Ru0 Y10 2.773975 1_555
Ru0 Y7 2.773975 1_555
Ru0 Y8 2.773981 1_555
Ru0 Y5 2.773981 1_555
Ru0 Y18 3.492236 1_545
Ru0 Y19 3.492237 1_655
Ru0 Y17 3.492253 1_555
Rh0 Y2 2.784882 1_555
Rh0 Y11 2.784882 1_555
Rh0 Y3 2.784888 1_555
Rh0 Y12 2.784888 1_555
Rh0 Y4 2.784888 1_555
Rh0 Y13 2.784888 1_555
Rh0 Y15 3.508117 1_565
Rh0 Y14 3.508117 1_555
Rh0 Y16 3.508118 1_455
