# generated using pymatgen
data_Cs8Sb4Pb
_symmetry_space_group_name_H-M   'P 1'
_cell_length_a   12.57192366
_cell_length_b   12.57192376
_cell_length_c   12.57192360
_cell_angle_alpha   60.00000044
_cell_angle_beta   60.00000018
_cell_angle_gamma   60.00000187
_symmetry_Int_Tables_number   1
_chemical_formula_structural   Cs8Sb4Pb
_chemical_formula_sum   'Cs16 Sb8 Pb2'
_cell_volume   1405.04494693
_cell_formula_units_Z   2
loop_
 _symmetry_equiv_pos_site_id
 _symmetry_equiv_pos_as_xyz
  1  'x, y, z'
loop_
 _atom_site_type_symbol
 _atom_site_label
 _atom_site_symmetry_multiplicity
 _atom_site_fract_x
 _atom_site_fract_y
 _atom_site_fract_z
 _atom_site_occupancy
  Cs  Cs0  1  0.62500000  0.12500000  0.62500000  1
  Cs  Cs1  1  0.62500000  0.62500000  0.12500000  1
  Cs  Cs2  1  0.12500000  0.62500000  0.62500000  1
  Cs  Cs3  1  0.62500000  0.62500000  0.62500000  1
  Cs  Cs4  1  0.02268030  0.02268030  0.47731970  1
  Cs  Cs5  1  0.77268030  0.22731970  0.22731970  1
  Cs  Cs6  1  0.22731970  0.77268030  0.77268030  1
  Cs  Cs7  1  0.77268030  0.77268030  0.22731970  1
  Cs  Cs8  1  0.77268030  0.22731970  0.77268030  1
  Cs  Cs9  1  0.22731970  0.77268030  0.22731970  1
  Cs  Cs10  1  0.47731970  0.02268030  0.47731970  1
  Cs  Cs11  1  0.47731970  0.02268030  0.02268030  1
  Cs  Cs12  1  0.02268030  0.47731970  0.47731970  1
  Cs  Cs13  1  0.02268030  0.47731970  0.02268030  1
  Cs  Cs14  1  0.22731970  0.22731970  0.77268030  1
  Cs  Cs15  1  0.47731970  0.47731970  0.02268030  1
  Sb  Sb0  1  0.40083403  0.79749892  0.40083403  1
  Sb  Sb1  1  0.84916597  0.84916597  0.45250108  1
  Sb  Sb2  1  0.45250108  0.84916597  0.84916597  1
  Sb  Sb3  1  0.84916597  0.84916597  0.84916597  1
  Sb  Sb4  1  0.79749892  0.40083403  0.40083403  1
  Sb  Sb5  1  0.40083403  0.40083403  0.40083403  1
  Sb  Sb6  1  0.40083403  0.40083403  0.79749892  1
  Sb  Sb7  1  0.84916597  0.45250108  0.84916597  1
  Pb  Pb0  1  0.75000000  0.75000000  0.75000000  1
  Pb  Pb1  1  0.50000000  0.50000000  0.50000000  1
loop_
_geom_bond_atom_site_label_1
_geom_bond_atom_site_label_2
_geom_bond_distance
_geom_bond_site_symmetry_2
Cs0 Pb1 3.849350 1_555
Cs0 Pb0 3.849350 1_545
Cs0 Sb3 4.038120 1_545
Cs0 Sb5 4.038120 1_555
Cs0 Sb4 4.038128 1_555
Cs0 Sb2 4.038128 1_545
Cs0 Sb6 4.038128 1_555
Cs0 Sb1 4.038128 1_545
Cs1 Pb1 3.849350 1_555
Cs1 Pb0 3.849350 1_554
Cs1 Sb3 4.038120 1_554
Cs1 Sb5 4.038120 1_555
Cs1 Sb0 4.038128 1_555
Cs1 Sb7 4.038128 1_554
Cs1 Sb4 4.038128 1_555
Cs1 Sb2 4.038128 1_554
Cs2 Pb1 3.849350 1_555
Cs2 Pb0 3.849350 1_455
Cs2 Sb3 4.038120 1_455
Cs2 Sb5 4.038120 1_555
Cs2 Sb0 4.038128 1_555
Cs2 Sb7 4.038128 1_455
Cs2 Sb6 4.038128 1_555
Cs2 Sb1 4.038128 1_455
Cs3 Pb1 3.849350 1_555
Cs3 Pb0 3.849350 1_555
Cs3 Sb1 4.038118 1_555
Cs3 Sb6 4.038118 1_555
Cs3 Sb7 4.038118 1_555
Cs3 Sb0 4.038118 1_555
Cs3 Sb2 4.038118 1_555
Cs3 Sb4 4.038118 1_555
Cs4 Sb3 3.966636 1_445
Cs4 Sb1 3.966644 1_445
Cs4 Sb0 4.028975 1_545
Cs4 Sb4 4.028975 1_455
Cs5 Sb5 3.966636 1_555
Cs5 Sb4 3.966644 1_555
Cs5 Sb7 4.028975 1_554
Cs5 Sb1 4.028975 1_545
Cs6 Sb0 3.966633 1_555
Cs6 Sb6 3.966633 1_555
Cs6 Sb2 4.028966 1_555
Cs6 Sb3 4.028978 1_455
Cs7 Sb0 3.966633 1_555
Cs7 Sb4 3.966633 1_555
Cs7 Sb1 4.028966 1_555
Cs7 Sb3 4.028978 1_554
Cs8 Sb4 3.966633 1_555
Cs8 Sb6 3.966633 1_555
Cs8 Sb7 4.028966 1_555
Cs8 Sb3 4.028978 1_545
Cs9 Sb5 3.966636 1_555
Cs9 Sb0 3.966644 1_555
Cs9 Sb2 4.028975 1_554
Cs9 Sb1 4.028975 1_455
Cs10 Sb2 3.966633 1_545
Cs10 Sb1 3.966633 1_545
Cs10 Sb0 4.028966 1_545
Cs10 Sb5 4.028978 1_555
Cs11 Sb3 3.966636 1_544
Cs11 Sb2 3.966644 1_544
Cs11 Sb0 4.028975 1_545
Cs11 Sb6 4.028975 1_554
Cs12 Sb7 3.966633 1_455
Cs12 Sb1 3.966633 1_455
Cs12 Sb4 4.028966 1_455
Cs12 Sb5 4.028978 1_555
Cs13 Sb3 3.966636 1_454
Cs13 Sb7 3.966644 1_454
Cs13 Sb4 4.028975 1_455
Cs13 Sb6 4.028975 1_554
Cs14 Sb5 3.966636 1_555
Cs14 Sb6 3.966644 1_555
Cs14 Sb7 4.028975 1_455
Cs14 Sb2 4.028975 1_545
Cs15 Sb7 3.966633 1_554
Cs15 Sb2 3.966633 1_554
Cs15 Sb6 4.028966 1_554
Cs15 Sb5 4.028978 1_555
Pb0 Sb3 3.053796 1_555
Pb0 Sb1 3.053806 1_555
Pb0 Sb2 3.053806 1_555
Pb0 Sb7 3.053806 1_555
Pb1 Sb5 3.053796 1_555
Pb1 Sb6 3.053806 1_555
Pb1 Sb4 3.053806 1_555
Pb1 Sb0 3.053806 1_555
