# generated using pymatgen
data_FeCuPt2
_symmetry_space_group_name_H-M   'P 1'
_cell_length_a   3.53956901
_cell_length_b   3.94450198
_cell_length_c   3.94449572
_cell_angle_alpha   90.00000000
_cell_angle_beta   90.00000000
_cell_angle_gamma   90.00000000
_symmetry_Int_Tables_number   1
_chemical_formula_structural   FeCuPt2
_chemical_formula_sum   'Fe1 Cu1 Pt2'
_cell_volume   55.07240616
_cell_formula_units_Z   1
loop_
 _symmetry_equiv_pos_site_id
 _symmetry_equiv_pos_as_xyz
  1  'x, y, z'
loop_
 _atom_site_type_symbol
 _atom_site_label
 _atom_site_symmetry_multiplicity
 _atom_site_fract_x
 _atom_site_fract_y
 _atom_site_fract_z
 _atom_site_occupancy
  Fe  Fe0  1  -0.00000000  0.50000000  0.50000000  1
  Cu  Cu0  1  0.00000000  0.00000000  0.00000000  1
  Pt  Pt0  1  0.50000000  0.00000000  0.50000000  1
  Pt  Pt1  1  0.50000000  0.50000000  0.00000000  1
loop_
_geom_bond_atom_site_label_1
_geom_bond_atom_site_label_2
_geom_bond_distance
_geom_bond_site_symmetry_2
Fe0 Pt1 2.649887 1_555
Fe0 Pt1 2.649887 1_455
Fe0 Pt1 2.649887 1_556
Fe0 Pt1 2.649887 1_456
Fe0 Pt0 2.649889 1_555
Fe0 Pt0 2.649889 1_455
Fe0 Pt0 2.649889 1_565
Fe0 Pt0 2.649889 1_465
Cu0 Pt0 2.649887 1_454
Cu0 Pt0 2.649887 1_455
Cu0 Pt0 2.649887 1_555
Cu0 Pt0 2.649887 1_554
Cu0 Pt1 2.649889 1_445
Cu0 Pt1 2.649889 1_455
Cu0 Pt1 2.649889 1_555
Cu0 Pt1 2.649889 1_545
Cu0 Fe0 2.789182 1_544
Cu0 Fe0 2.789182 1_545
Cu0 Fe0 2.789182 1_555
Cu0 Fe0 2.789182 1_554
Pt0 Pt1 2.789182 1_555
Pt0 Pt1 2.789182 1_556
Pt0 Pt1 2.789182 1_546
Pt0 Pt1 2.789182 1_545
