# generated using pymatgen
data_Y3CS2
_symmetry_space_group_name_H-M   'P 1'
_cell_length_a   6.71362213
_cell_length_b   6.71362223
_cell_length_c   6.71362202
_cell_angle_alpha   147.63247489
_cell_angle_beta   132.54470702
_cell_angle_gamma   58.61428868
_symmetry_Int_Tables_number   1
_chemical_formula_structural   Y3CS2
_chemical_formula_sum   'Y3 C1 S2'
_cell_volume   118.37621846
_cell_formula_units_Z   1
loop_
 _symmetry_equiv_pos_site_id
 _symmetry_equiv_pos_as_xyz
  1  'x, y, z'
loop_
 _atom_site_type_symbol
 _atom_site_label
 _atom_site_symmetry_multiplicity
 _atom_site_fract_x
 _atom_site_fract_y
 _atom_site_fract_z
 _atom_site_occupancy
  Y  Y0  1  0.85785966  0.35785966  0.50000000  1
  Y  Y1  1  0.50000000  0.00000000  0.50000000  1
  Y  Y2  1  0.14214034  0.64214034  0.50000000  1
  C  C0  1  0.00000000  0.00000000  0.00000000  1
  S  S0  1  0.67238473  0.67238473  0.00000000  1
  S  S1  1  0.32761527  0.32761527  0.00000000  1
loop_
_geom_bond_atom_site_label_1
_geom_bond_atom_site_label_2
_geom_bond_distance
_geom_bond_site_symmetry_2
C0 Y2 2.504246 1_544
C0 Y0 2.504246 1_455
C0 Y2 2.504246 1_555
C0 Y0 2.504246 1_444
C0 Y1 2.701491 1_454
C0 Y1 2.701491 1_555
S0 Y2 2.724602 1_554
S0 Y2 2.724602 1_655
S0 Y1 2.752337 1_565
S0 Y1 2.752337 1_554
S0 Y0 2.866630 1_554
S0 Y0 2.866630 1_565
S1 Y0 2.724602 1_555
S1 Y0 2.724602 1_454
S1 Y1 2.752337 1_554
S1 Y1 2.752337 1_565
S1 Y2 2.866630 1_555
S1 Y2 2.866630 1_544
