# generated using pymatgen
data_Lu6ZnAg5C2
_symmetry_space_group_name_H-M   'P 1'
_cell_length_a   9.07479567
_cell_length_b   9.06305408
_cell_length_c   9.06305505
_cell_angle_alpha   59.88653555
_cell_angle_beta   59.95713278
_cell_angle_gamma   59.95713087
_symmetry_Int_Tables_number   1
_chemical_formula_structural   Lu6ZnAg5C2
_chemical_formula_sum   'Lu12 Zn2 Ag10 C4'
_cell_volume   526.27898401
_cell_formula_units_Z   2
loop_
 _symmetry_equiv_pos_site_id
 _symmetry_equiv_pos_as_xyz
  1  'x, y, z'
loop_
 _atom_site_type_symbol
 _atom_site_label
 _atom_site_symmetry_multiplicity
 _atom_site_fract_x
 _atom_site_fract_y
 _atom_site_fract_z
 _atom_site_occupancy
  Lu  Lu0  1  0.44244183  0.44322547  0.05712169  1
  Lu  Lu1  1  0.05721101  0.44322547  0.05712169  1
  Lu  Lu2  1  0.44259694  0.05740306  0.05740306  1
  Lu  Lu3  1  0.05721101  0.05712169  0.44322547  1
  Lu  Lu4  1  0.44244183  0.05712169  0.44322547  1
  Lu  Lu5  1  0.05749066  0.44250934  0.44250934  1
  Lu  Lu6  1  0.80755817  0.80677453  0.19287831  1
  Lu  Lu7  1  0.19278899  0.80677453  0.19287831  1
  Lu  Lu8  1  0.80740306  0.19259694  0.19259694  1
  Lu  Lu9  1  0.19278899  0.19287831  0.80677453  1
  Lu  Lu10  1  0.80755817  0.19287831  0.80677453  1
  Lu  Lu11  1  0.19250934  0.80749066  0.80749066  1
  Zn  Zn0  1  0.62500000  0.62500000  0.12500000  1
  Zn  Zn1  1  0.62500000  0.12500000  0.62500000  1
  Ag  Ag0  1  0.82851957  0.84031703  0.50264482  1
  Ag  Ag1  1  0.82851957  0.50264482  0.84031703  1
  Ag  Ag2  1  0.50317345  0.83572106  0.83572106  1
  Ag  Ag3  1  0.82538644  0.83572106  0.83572106  1
  Ag  Ag4  1  0.42148043  0.40968297  0.74735518  1
  Ag  Ag5  1  0.42148043  0.74735518  0.40968297  1
  Ag  Ag6  1  0.74682655  0.41427894  0.41427894  1
  Ag  Ag7  1  0.42461356  0.41427894  0.41427894  1
  Ag  Ag8  1  0.12500000  0.62500000  0.62500000  1
  Ag  Ag9  1  0.62500000  0.62500000  0.62500000  1
  C  C0  1  0.12500000  0.12500000  0.62500000  1
  C  C1  1  0.12500000  0.62500000  0.12500000  1
  C  C2  1  0.62500000  0.12500000  0.12500000  1
  C  C3  1  0.12500000  0.12500000  0.12500000  1
loop_
_geom_bond_atom_site_label_1
_geom_bond_atom_site_label_2
_geom_bond_distance
_geom_bond_site_symmetry_2
Lu0 Zn0 3.256886 1_555
Lu1 Zn0 3.256885 1_455
Lu2 Zn0 3.253312 1_545
Lu2 Zn1 3.253312 1_554
Lu3 Zn1 3.256885 1_455
Lu4 Zn1 3.256886 1_555
Lu6 Zn0 3.256886 1_555
Lu7 Zn0 3.256885 1_555
Lu8 Zn0 3.253312 1_555
Lu8 Zn1 3.253312 1_555
Lu9 Zn1 3.256885 1_555
Lu10 Zn1 3.256886 1_555
Ag0 Zn1 2.710438 1_565
Ag0 Ag8 2.799185 1_655
Ag0 Ag9 2.799192 1_555
Ag0 Ag2 2.983969 1_555
Ag0 Ag3 2.983973 1_555
Ag0 Lu8 3.008411 1_565
Ag0 Ag1 3.055092 1_555
Ag0 Lu7 3.075587 1_655
Ag0 Lu6 3.075592 1_555
Ag0 Lu3 3.218721 1_665
Ag0 Lu4 3.218729 1_565
Ag0 Lu5 3.309041 1_655
Ag1 Zn0 2.710439 1_556
Ag1 Ag8 2.799185 1_655
Ag1 Ag9 2.799193 1_555
Ag1 Ag2 2.983969 1_555
Ag1 Ag3 2.983973 1_555
Ag1 Lu8 3.008412 1_556
Ag1 Lu9 3.075587 1_655
Ag1 Lu10 3.075592 1_555
Ag1 Lu1 3.218721 1_656
Ag1 Lu0 3.218729 1_556
Ag1 Lu5 3.309041 1_655
Ag2 Zn1 2.739907 1_565
Ag2 Zn0 2.739907 1_556
Ag2 Ag9 2.819273 1_555
Ag2 Ag3 2.924017 1_555
Ag2 Lu9 3.039543 1_565
Ag2 Lu7 3.039543 1_556
Ag2 Lu11 3.096620 1_555
Ag2 Lu2 3.195921 1_566
Ag2 Lu0 3.267606 1_556
Ag2 Lu4 3.267606 1_565
Ag3 Zn1 2.739916 1_565
Ag3 Zn0 2.739916 1_556
Ag3 Ag8 2.819268 1_655
Ag3 Lu10 3.039535 1_565
Ag3 Lu6 3.039535 1_556
Ag3 Lu11 3.096601 1_655
Ag3 Lu2 3.195929 1_566
Ag3 Lu1 3.267598 1_656
Ag3 Lu3 3.267599 1_665
Ag4 Zn1 2.710438 1_555
Ag4 Ag8 2.799185 1_555
Ag4 Ag9 2.799192 1_555
Ag4 Ag6 2.983969 1_555
Ag4 Ag7 2.983973 1_555
Ag4 Lu2 3.008411 1_556
Ag4 Ag5 3.055092 1_555
Ag4 Lu1 3.075587 1_556
Ag4 Lu0 3.075592 1_556
Ag4 Lu9 3.218721 1_555
Ag4 Lu10 3.218729 1_555
Ag4 Lu11 3.309041 1_555
Ag5 Zn0 2.710439 1_555
Ag5 Ag8 2.799185 1_555
Ag5 Ag9 2.799193 1_555
Ag5 Ag6 2.983969 1_555
Ag5 Ag7 2.983973 1_555
Ag5 Lu2 3.008412 1_565
Ag5 Lu3 3.075587 1_565
Ag5 Lu4 3.075592 1_565
Ag5 Lu7 3.218721 1_555
Ag5 Lu6 3.218729 1_555
Ag5 Lu11 3.309041 1_555
Ag6 Zn1 2.739907 1_555
Ag6 Zn0 2.739907 1_555
Ag6 Ag9 2.819273 1_555
Ag6 Ag7 2.924017 1_555
Ag6 Lu3 3.039543 1_655
Ag6 Lu1 3.039543 1_655
Ag6 Lu5 3.096620 1_655
Ag6 Lu8 3.195921 1_555
Ag6 Lu6 3.267606 1_555
Ag6 Lu10 3.267606 1_555
Ag7 Zn1 2.739916 1_555
Ag7 Zn0 2.739916 1_555
Ag7 Ag8 2.819268 1_555
Ag7 Lu4 3.039535 1_555
Ag7 Lu0 3.039535 1_555
Ag7 Lu5 3.096601 1_555
Ag7 Lu8 3.195929 1_555
Ag7 Lu7 3.267598 1_555
Ag7 Lu9 3.267599 1_555
Ag8 Lu3 3.249400 1_565
Ag8 Lu9 3.249400 1_555
Ag8 Lu1 3.249401 1_556
Ag8 Lu7 3.249401 1_555
Ag8 Lu11 3.258865 1_555
Ag8 Lu5 3.258865 1_555
Ag9 Lu4 3.249400 1_565
Ag9 Lu10 3.249400 1_555
Ag9 Lu0 3.249401 1_556
Ag9 Lu6 3.249401 1_555
Ag9 Lu5 3.258865 1_655
Ag9 Lu11 3.258865 1_555
C0 Lu5 2.421796 1_555
C0 Lu11 2.421796 1_545
C0 Lu4 2.425195 1_555
C0 Lu10 2.425195 1_455
C0 Lu9 2.425195 1_555
C0 Lu3 2.425195 1_555
C1 Lu5 2.421796 1_555
C1 Lu11 2.421796 1_554
C1 Lu0 2.425195 1_555
C1 Lu6 2.425195 1_455
C1 Lu1 2.425195 1_555
C1 Lu7 2.425195 1_555
C2 Lu0 2.428370 1_555
C2 Lu6 2.428370 1_545
C2 Lu4 2.428370 1_555
C2 Lu10 2.428370 1_554
C2 Lu8 2.428570 1_555
C2 Lu2 2.428570 1_555
C3 Lu7 2.428370 1_545
C3 Lu1 2.428370 1_555
C3 Lu3 2.428370 1_555
C3 Lu9 2.428370 1_554
C3 Lu2 2.428570 1_555
C3 Lu8 2.428570 1_455
