# generated using pymatgen
data_Ag3Rh(NO3)8
_symmetry_space_group_name_H-M   'P 1'
_cell_length_a   7.70252640
_cell_length_b   7.70252589
_cell_length_c   7.70252612
_cell_angle_alpha   89.09400702
_cell_angle_beta   90.90599486
_cell_angle_gamma   90.90598345
_symmetry_Int_Tables_number   1
_chemical_formula_structural   Ag3Rh(NO3)8
_chemical_formula_sum   'Ag3 Rh1 N8 O24'
_cell_volume   456.81286749
_cell_formula_units_Z   1
loop_
 _symmetry_equiv_pos_site_id
 _symmetry_equiv_pos_as_xyz
  1  'x, y, z'
loop_
 _atom_site_type_symbol
 _atom_site_label
 _atom_site_symmetry_multiplicity
 _atom_site_fract_x
 _atom_site_fract_y
 _atom_site_fract_z
 _atom_site_occupancy
  Ag  Ag0  1  0.50000000  0.50000000  0.50000000  1
  Ag  Ag1  1  0.50000000  0.00000000  0.00000000  1
  Ag  Ag2  1  0.00000000  0.50000000  0.00000000  1
  Rh  Rh0  1  0.00000000  0.00000000  0.50000000  1
  N  N0  1  0.68809692  0.13230089  0.31215778  1
  N  N1  1  0.67107282  0.32892718  0.82892718  1
  N  N2  1  0.86769911  0.81215778  0.81190308  1
  N  N3  1  0.81215778  0.68809692  0.36769911  1
  N  N4  1  0.13230089  0.18784222  0.18809692  1
  N  N5  1  0.18784222  0.31190308  0.63230089  1
  N  N6  1  0.32892718  0.67107282  0.17107282  1
  N  N7  1  0.31190308  0.86769911  0.68784222  1
  O  O0  1  0.54676546  0.22280070  0.81136910  1
  O  O1  1  0.56505625  0.23162837  0.29548566  1
  O  O2  1  0.68863090  0.45323454  0.72280070  1
  O  O3  1  0.72304749  0.02155494  0.20058822  1
  O  O4  1  0.70058822  0.72304749  0.47844506  1
  O  O5  1  0.76837163  0.79548566  0.93494375  1
  O  O6  1  0.77719930  0.31136910  0.95323454  1
  O  O7  1  0.78376298  0.14309355  0.45101160  1
  O  O8  1  0.85690645  0.95101160  0.71623702  1
  O  O9  1  0.79548566  0.56505625  0.26837163  1
  O  O10  1  0.97844506  0.70058822  0.77695251  1
  O  O11  1  0.95101160  0.78376298  0.35690645  1
  O  O12  1  0.04898840  0.21623702  0.64309355  1
  O  O13  1  0.02155494  0.29941178  0.22304749  1
  O  O14  1  0.20451434  0.43494375  0.73162837  1
  O  O15  1  0.14309355  0.04898840  0.28376298  1
  O  O16  1  0.22280070  0.68863090  0.04676546  1
  O  O17  1  0.21623702  0.85690645  0.54898840  1
  O  O18  1  0.23162837  0.20451434  0.06505625  1
  O  O19  1  0.29941178  0.27695251  0.52155494  1
  O  O20  1  0.31136910  0.54676546  0.27719930  1
  O  O21  1  0.27695251  0.97844506  0.79941178  1
  O  O22  1  0.43494375  0.76837163  0.70451434  1
  O  O23  1  0.45323454  0.77719930  0.18863090  1
loop_
_geom_bond_atom_site_label_1
_geom_bond_atom_site_label_2
_geom_bond_distance
_geom_bond_site_symmetry_2
Ag0 O2 2.259207 1_555
Ag0 O20 2.259207 1_555
Ag0 O4 2.298146 1_555
Ag0 O19 2.298146 1_555
Ag0 O22 2.677006 1_555
Ag0 O1 2.677006 1_555
Ag1 O0 2.259207 1_554
Ag1 O23 2.259207 1_545
Ag1 O3 2.298146 1_555
Ag1 O21 2.298146 1_544
Ag1 O5 2.677005 1_544
Ag1 O18 2.677005 1_555
Ag2 O16 2.259208 1_555
Ag2 O6 2.259208 1_454
Ag2 O13 2.298146 1_555
Ag2 O10 2.298146 1_454
Ag2 O9 2.677006 1_455
Ag2 O14 2.677006 1_554
N0 O1 1.231252 1_555
N0 O3 1.255546 1_555
N0 O7 1.292178 1_555
N1 O6 1.256153 1_555
N1 O2 1.256153 1_555
N1 O0 1.256153 1_555
N2 O5 1.231252 1_555
N2 O10 1.255546 1_555
N2 O8 1.292178 1_555
N3 O9 1.231252 1_555
N3 O4 1.255546 1_555
N3 O11 1.292178 1_555
N4 O18 1.231252 1_555
N4 O13 1.255546 1_555
N4 O15 1.292178 1_555
N5 O14 1.231252 1_555
N5 O19 1.255546 1_555
N5 O12 1.292178 1_555
N6 O16 1.256153 1_555
N6 O20 1.256153 1_555
N6 O23 1.256153 1_555
N7 O22 1.231252 1_555
N7 O21 1.255546 1_555
N7 O17 1.292178 1_555
O7 Rh0 2.038710 1_655
O8 Rh0 2.038711 1_665
O11 Rh0 2.038711 1_665
O12 Rh0 2.038711 1_555
O15 Rh0 2.038711 1_555
O17 Rh0 2.038710 1_565
