# generated using pymatgen
data_Mn2InGeRh4
_symmetry_space_group_name_H-M   'P 1'
_cell_length_a   7.51968965
_cell_length_b   7.51968977
_cell_length_c   7.51969027
_cell_angle_alpha   33.62514426
_cell_angle_beta   33.62514172
_cell_angle_gamma   33.62514142
_symmetry_Int_Tables_number   1
_chemical_formula_structural   Mn2InGeRh4
_chemical_formula_sum   'Mn2 In1 Ge1 Rh4'
_cell_volume   116.15279633
_cell_formula_units_Z   1
loop_
 _symmetry_equiv_pos_site_id
 _symmetry_equiv_pos_as_xyz
  1  'x, y, z'
loop_
 _atom_site_type_symbol
 _atom_site_label
 _atom_site_symmetry_multiplicity
 _atom_site_fract_x
 _atom_site_fract_y
 _atom_site_fract_z
 _atom_site_occupancy
  Mn  Mn0  1  0.25119360  0.25119360  0.25119360  1
  Mn  Mn1  1  0.74880640  0.74880640  0.74880640  1
  In  In0  1  0.00000000  0.00000000  0.00000000  1
  Ge  Ge0  1  0.50000000  0.50000000  0.50000000  1
  Rh  Rh0  1  0.61916104  0.61916104  0.61916104  1
  Rh  Rh1  1  0.12927429  0.12927429  0.12927429  1
  Rh  Rh2  1  0.87072571  0.87072571  0.87072571  1
  Rh  Rh3  1  0.38083896  0.38083896  0.38083896  1
loop_
_geom_bond_atom_site_label_1
_geom_bond_atom_site_label_2
_geom_bond_distance
_geom_bond_site_symmetry_2
Mn0 Rh1 2.592452 1_555
Mn0 Rh0 2.617233 1_455
Mn0 Rh0 2.617233 1_554
Mn0 Rh0 2.617233 1_545
Mn0 Rh2 2.704083 1_544
Mn0 Rh2 2.704083 1_445
Mn0 Rh2 2.704083 1_454
Mn0 Rh3 2.756736 1_555
Mn1 Rh2 2.592452 1_555
Mn1 Rh3 2.617233 1_655
Mn1 Rh3 2.617233 1_556
Mn1 Rh3 2.617233 1_565
Mn1 Rh1 2.704083 1_566
Mn1 Rh1 2.704083 1_665
Mn1 Rh1 2.704083 1_656
Mn1 Rh0 2.756736 1_555
In0 Rh3 2.707017 1_455
In0 Rh0 2.707017 1_544
In0 Rh3 2.707017 1_554
In0 Rh0 2.707017 1_445
In0 Rh3 2.707017 1_545
In0 Rh0 2.707017 1_454
In0 Rh1 2.748846 1_555
In0 Rh2 2.748846 1_444
Ge0 Rh0 2.533801 1_555
Ge0 Rh3 2.533801 1_555
Ge0 Rh2 2.634337 1_455
Ge0 Rh1 2.634337 1_655
Ge0 Rh2 2.634338 1_554
Ge0 Rh1 2.634338 1_556
Ge0 Rh2 2.634338 1_545
Ge0 Rh1 2.634338 1_565
