# generated using pymatgen
data_Zr3In3TcPd2
_symmetry_space_group_name_H-M   'P 1'
_cell_length_a   7.70704362
_cell_length_b   7.70695430
_cell_length_c   3.40946680
_cell_angle_alpha   90.00000000
_cell_angle_beta   90.00000000
_cell_angle_gamma   119.99924268
_symmetry_Int_Tables_number   1
_chemical_formula_structural   Zr3In3TcPd2
_chemical_formula_sum   'Zr3 In3 Tc1 Pd2'
_cell_volume   175.38442074
_cell_formula_units_Z   1
loop_
 _symmetry_equiv_pos_site_id
 _symmetry_equiv_pos_as_xyz
  1  'x, y, z'
loop_
 _atom_site_type_symbol
 _atom_site_label
 _atom_site_symmetry_multiplicity
 _atom_site_fract_x
 _atom_site_fract_y
 _atom_site_fract_z
 _atom_site_occupancy
  Zr  Zr0  1  0.02626835  0.61522561  0.50000000  1
  Zr  Zr1  1  0.38478053  0.41104568  0.50000000  1
  Zr  Zr2  1  0.58895654  0.97374614  0.50000000  1
  In  In0  1  0.73202406  0.72085616  0.00000000  1
  In  In1  1  0.98884716  0.26797193  0.00000000  1
  In  In2  1  0.27913059  0.01117173  0.00000000  1
  Tc  Tc0  1  0.33333413  0.66667180  0.00000000  1
  Pd  Pd0  1  0.99998457  0.99998462  0.50000000  1
  Pd  Pd1  1  0.66667509  0.33332633  0.00000000  1
loop_
_geom_bond_atom_site_label_1
_geom_bond_atom_site_label_2
_geom_bond_distance
_geom_bond_site_symmetry_2
In0 Pd0 2.712251 1_554
In0 Pd0 2.712251 1_555
In0 Pd1 2.769420 1_555
In0 Tc0 2.886671 1_555
In0 Zr1 3.062599 1_555
In0 Zr1 3.062599 1_554
In0 Zr2 3.173253 1_554
In0 Zr2 3.173253 1_555
In0 Zr0 3.249258 1_654
In0 Zr0 3.249258 1_655
In1 Pd0 2.712287 1_544
In1 Pd0 2.712287 1_545
In1 Pd1 2.769399 1_555
In1 Tc0 2.886666 1_655
In1 Zr0 3.062657 1_655
In1 Zr0 3.062657 1_654
In1 Zr1 3.173139 1_655
In1 Zr1 3.173139 1_654
In1 Zr2 3.249330 1_545
In1 Zr2 3.249330 1_544
In2 Pd0 2.712295 1_444
In2 Pd0 2.712295 1_445
In2 Pd1 2.769468 1_555
In2 Tc0 2.886676 1_545
In2 Zr2 3.062651 1_544
In2 Zr2 3.062651 1_545
In2 Zr0 3.173191 1_544
In2 Zr0 3.173191 1_545
In2 Zr1 3.249211 1_554
In2 Zr1 3.249211 1_555
Tc0 Zr0 2.779508 1_555
Tc0 Zr0 2.779508 1_554
Tc0 Zr1 2.779522 1_554
Tc0 Zr1 2.779522 1_555
Tc0 Zr2 2.779548 1_554
Tc0 Zr2 2.779548 1_555
Pd0 Zr0 3.071617 1_655
Pd0 Zr2 3.071700 1_555
Pd0 Zr1 3.071874 1_665
Pd1 Zr2 3.047117 1_544
Pd1 Zr2 3.047117 1_545
Pd1 Zr0 3.047284 1_655
Pd1 Zr0 3.047284 1_654
Pd1 Zr1 3.047338 1_555
Pd1 Zr1 3.047338 1_554
