# generated using pymatgen
data_Ta3Fe(PO4)6
_symmetry_space_group_name_H-M   'P 1'
_cell_length_a   8.63599283
_cell_length_b   8.63606393
_cell_length_c   8.91299789
_cell_angle_alpha   89.99433919
_cell_angle_beta   61.03874462
_cell_angle_gamma   119.99860037
_symmetry_Int_Tables_number   1
_chemical_formula_structural   Ta3Fe(PO4)6
_chemical_formula_sum   'Ta3 Fe1 P6 O24'
_cell_volume   477.27518713
_cell_formula_units_Z   1
loop_
 _symmetry_equiv_pos_site_id
 _symmetry_equiv_pos_as_xyz
  1  'x, y, z'
loop_
 _atom_site_type_symbol
 _atom_site_label
 _atom_site_symmetry_multiplicity
 _atom_site_fract_x
 _atom_site_fract_y
 _atom_site_fract_z
 _atom_site_occupancy
  Ta  Ta0  1  0.78396171  0.64190168  0.57419018  1
  Ta  Ta1  1  0.21894008  0.35957968  0.42141994  1
  Ta  Ta2  1  0.21613740  0.85820093  0.92565088  1
  Fe  Fe0  1  0.78404853  0.14183549  0.07409172  1
  P  P0  1  0.28928627  0.03398474  0.24713940  1
  P  P1  1  0.71876966  0.75526808  0.24701126  1
  P  P2  1  0.27649982  0.25092261  0.75544407  1
  P  P3  1  0.71919389  0.96827635  0.75531428  1
  P  P4  1  0.99398976  0.52571604  0.75515405  1
  P  P5  1  0.99725610  0.46333563  0.24740074  1
  O  O0  1  0.47636620  0.04379607  0.22459480  1
  O  O1  1  0.84057136  0.35330889  0.91573048  1
  O  O2  1  0.91710726  0.13436394  0.58182135  1
  O  O3  1  0.86693905  0.58061233  0.72067138  1
  O  O4  1  0.15024606  0.64449698  0.08523693  1
  O  O5  1  0.07859949  0.87073438  0.41687642  1
  O  O6  1  0.14285129  0.42808284  0.27257072  1
  O  O7  1  0.14995210  0.69874621  0.78101969  1
  O  O8  1  0.13516430  0.50133574  0.58134143  1
  O  O9  1  0.29878921  0.21441525  0.27328136  1
  O  O10  1  0.27039096  0.00666620  0.08481735  1
  O  O11  1  0.73066139  0.93229523  0.22568815  1
  O  O12  1  0.51244104  0.58428922  0.27287893  1
  O  O13  1  0.28361947  0.28334069  0.58216078  1
  O  O14  1  0.87544323  0.50410903  0.41752979  1
  O  O15  1  0.09717655  0.24337707  0.91668662  1
  O  O16  1  0.90876937  0.76485176  0.08402440  1
  O  O17  1  0.51996128  0.95082114  0.78165555  1
  O  O18  1  0.71272990  0.70720908  0.41636422  1
  O  O19  1  0.49306219  0.41277195  0.72042155  1
  O  O20  1  0.26849119  0.06943606  0.78065572  1
  O  O21  1  0.73107730  0.98648965  0.91597167  1
  O  O22  1  0.69937598  0.78679168  0.71992236  1
  O  O23  1  0.84213261  0.29863740  0.22526380  1
loop_
_geom_bond_atom_site_label_1
_geom_bond_atom_site_label_2
_geom_bond_distance
_geom_bond_site_symmetry_2
Fe0 O11 1.968464 1_545
Fe0 O0 1.968494 1_555
Fe0 O23 1.968880 1_555
Fe0 O15 2.001061 1_654
Fe0 O21 2.001582 1_544
Fe0 O1 2.001677 1_554
O0 P0 1.485429 1_555
O1 P4 1.487025 1_555
O2 P3 1.535699 1_545
O2 Ta1 1.985507 1_655
O3 P4 1.539411 1_555
O3 Ta0 1.945096 1_555
O4 P5 1.538059 1_455
O4 Ta2 1.979540 1_554
O5 P0 1.534827 1_565
O5 Ta0 1.965181 1_455
O6 P5 1.542695 1_455
O6 Ta1 1.942861 1_555
O7 P4 1.545445 1_455
O7 Ta2 1.952337 1_555
O8 P4 1.535693 1_455
O8 Ta1 1.985235 1_555
O9 P0 1.542647 1_555
O9 Ta1 1.942557 1_555
O10 P0 1.538068 1_555
O10 Ta2 1.979741 1_544
O11 P1 1.485932 1_555
O12 P1 1.542592 1_555
O12 Ta1 1.942781 1_555
O13 P2 1.535674 1_555
O13 Ta1 1.985104 1_555
O14 P5 1.534822 1_555
O14 Ta0 1.965201 1_555
O15 P2 1.487152 1_555
O16 P1 1.537955 1_555
O16 Ta2 1.979832 1_654
O17 P3 1.545200 1_555
O17 Ta2 1.952277 1_555
O18 P1 1.534724 1_555
O18 Ta0 1.964722 1_555
O19 P2 1.539297 1_555
O19 Ta0 1.945028 1_555
O20 P2 1.545407 1_555
O20 Ta2 1.952265 1_545
O21 P3 1.487259 1_555
O22 P3 1.539292 1_555
O22 Ta0 1.944713 1_555
O23 P5 1.485705 1_555
