# generated using pymatgen
data_Er6Zn23
_symmetry_space_group_name_H-M   'P 1'
_cell_length_a   8.82349290
_cell_length_b   8.82349369
_cell_length_c   8.82349352
_cell_angle_alpha   59.99999682
_cell_angle_beta   59.99999386
_cell_angle_gamma   59.99999668
_symmetry_Int_Tables_number   1
_chemical_formula_structural   Er6Zn23
_chemical_formula_sum   'Er6 Zn23'
_cell_volume   485.74311327
_cell_formula_units_Z   1
loop_
 _symmetry_equiv_pos_site_id
 _symmetry_equiv_pos_as_xyz
  1  'x, y, z'
loop_
 _atom_site_type_symbol
 _atom_site_label
 _atom_site_symmetry_multiplicity
 _atom_site_fract_x
 _atom_site_fract_y
 _atom_site_fract_z
 _atom_site_occupancy
  Er  Er0  1  0.20639865  0.79360135  0.79360135  1
  Er  Er1  1  0.20639865  0.79360135  0.20639865  1
  Er  Er2  1  0.79360135  0.20639865  0.79360135  1
  Er  Er3  1  0.20639865  0.20639865  0.79360135  1
  Er  Er4  1  0.79360135  0.79360135  0.20639865  1
  Er  Er5  1  0.79360135  0.20639865  0.20639865  1
  Zn  Zn0  1  0.82843226  0.82843226  0.82843226  1
  Zn  Zn1  1  0.17156774  0.17156774  0.48529379  1
  Zn  Zn2  1  0.17156774  0.48529379  0.17156774  1
  Zn  Zn3  1  0.48529379  0.17156774  0.17156774  1
  Zn  Zn4  1  0.82843226  0.51470621  0.82843226  1
  Zn  Zn5  1  0.51470621  0.82843226  0.82843226  1
  Zn  Zn6  1  0.50000000  0.50000000  0.50000000  1
  Zn  Zn7  1  0.50000000  0.00000000  0.00000000  1
  Zn  Zn8  1  -0.00000000  0.00000000  0.50000000  1
  Zn  Zn9  1  0.50000000  0.50000000  0.00000000  1
  Zn  Zn10  1  -0.00000000  0.50000000  0.50000000  1
  Zn  Zn11  1  -0.00000000  0.50000000  0.00000000  1
  Zn  Zn12  1  0.50000000  0.00000000  0.50000000  1
  Zn  Zn13  1  0.37712054  0.37712054  0.37712054  1
  Zn  Zn14  1  0.62287946  0.62287946  0.13136263  1
  Zn  Zn15  1  0.13136263  0.62287946  0.62287946  1
  Zn  Zn16  1  0.62287946  0.13136263  0.62287946  1
  Zn  Zn17  1  0.86863737  0.37712054  0.37712054  1
  Zn  Zn18  1  0.37712054  0.86863737  0.37712054  1
  Zn  Zn19  1  0.37712054  0.37712054  0.86863737  1
  Zn  Zn20  1  0.62287946  0.62287946  0.62287946  1
  Zn  Zn21  1  0.17156774  0.17156774  0.17156774  1
  Zn  Zn22  1  0.82843226  0.82843226  0.51470621  1
loop_
_geom_bond_atom_site_label_1
_geom_bond_atom_site_label_2
_geom_bond_distance
_geom_bond_site_symmetry_2
Er0 Zn15 3.039804 1_555
Er0 Zn20 3.039810 1_555
Er0 Zn18 3.039811 1_555
Er0 Zn19 3.039812 1_555
Er0 Zn0 3.058691 1_455
Er0 Zn2 3.058701 1_556
Er0 Zn1 3.058701 1_565
Er0 Zn5 3.058717 1_555
Er0 Zn12 3.166665 1_565
Er0 Zn9 3.166665 1_556
Er0 Zn11 3.166665 1_556
Er0 Zn8 3.166665 1_565
Er0 Er4 3.642314 1_456
Er0 Er2 3.642314 1_465
Er0 Er1 3.642314 1_556
Er0 Er3 3.642314 1_565
Er1 Zn18 3.039804 1_555
Er1 Zn13 3.039810 1_555
Er1 Zn14 3.039811 1_555
Er1 Zn15 3.039811 1_555
Er1 Zn21 3.058691 1_565
Er1 Zn22 3.058701 1_455
Er1 Zn5 3.058701 1_554
Er1 Zn2 3.058717 1_555
Er1 Zn7 3.166665 1_565
Er1 Zn10 3.166665 1_555
Er1 Zn9 3.166665 1_555
Er1 Zn8 3.166665 1_565
Er1 Er5 3.642314 1_465
Er1 Er4 3.642314 1_455
Er1 Er3 3.642314 1_564
Er2 Zn16 3.039804 1_555
Er2 Zn20 3.039810 1_555
Er2 Zn19 3.039811 1_555
Er2 Zn17 3.039811 1_555
Er2 Zn0 3.058691 1_545
Er2 Zn1 3.058701 1_655
Er2 Zn3 3.058701 1_556
Er2 Zn4 3.058717 1_555
Er2 Zn7 3.166665 1_556
Er2 Zn10 3.166665 1_655
Er2 Zn9 3.166665 1_556
Er2 Zn8 3.166665 1_655
Er2 Er3 3.642314 1_655
Er2 Er4 3.642314 1_546
Er2 Er5 3.642314 1_556
Er3 Zn19 3.039804 1_555
Er3 Zn13 3.039810 1_555
Er3 Zn16 3.039811 1_555
Er3 Zn15 3.039812 1_555
Er3 Zn21 3.058691 1_556
Er3 Zn4 3.058701 1_455
Er3 Zn5 3.058701 1_545
Er3 Zn1 3.058717 1_555
Er3 Zn12 3.166665 1_555
Er3 Zn7 3.166665 1_556
Er3 Zn10 3.166665 1_555
Er3 Zn11 3.166665 1_556
Er3 Er5 3.642314 1_456
Er4 Zn14 3.039804 1_555
Er4 Zn20 3.039810 1_555
Er4 Zn18 3.039811 1_555
Er4 Zn17 3.039812 1_555
Er4 Zn0 3.058691 1_554
Er4 Zn2 3.058701 1_655
Er4 Zn3 3.058701 1_565
Er4 Zn22 3.058717 1_555
Er4 Zn12 3.166665 1_565
Er4 Zn7 3.166665 1_565
Er4 Zn10 3.166665 1_655
Er4 Zn11 3.166665 1_655
Er4 Er5 3.642314 1_565
Er5 Zn17 3.039804 1_555
Er5 Zn13 3.039810 1_555
Er5 Zn16 3.039811 1_555
Er5 Zn14 3.039812 1_555
Er5 Zn21 3.058691 1_655
Er5 Zn4 3.058701 1_554
Er5 Zn22 3.058701 1_545
Er5 Zn3 3.058717 1_555
Er5 Zn12 3.166665 1_555
Er5 Zn9 3.166665 1_555
Er5 Zn11 3.166665 1_655
Er5 Zn8 3.166665 1_655
Zn0 Zn7 2.549325 1_566
Zn0 Zn8 2.549325 1_665
Zn0 Zn11 2.549325 1_656
Zn0 Zn15 2.705034 1_655
Zn0 Zn14 2.705034 1_556
Zn0 Zn16 2.705035 1_565
Zn0 Zn5 2.768160 1_555
Zn0 Zn22 2.768160 1_555
Zn0 Zn4 2.768160 1_555
Zn1 Zn8 2.549310 1_555
Zn1 Zn12 2.549333 1_555
Zn1 Zn10 2.549333 1_555
Zn1 Zn17 2.705026 1_455
Zn1 Zn18 2.705026 1_545
Zn1 Zn13 2.705040 1_555
Zn1 Zn3 2.768159 1_555
Zn1 Zn2 2.768160 1_555
Zn1 Zn21 2.768160 1_555
Zn2 Zn9 2.549333 1_555
Zn2 Zn3 2.768160 1_555
Zn2 Zn21 2.768160 1_555
Zn3 Zn7 2.549311 1_555
Zn3 Zn9 2.549333 1_555
Zn4 Zn9 2.549333 1_556
Zn4 Zn5 2.768160 1_555
Zn5 Zn7 2.549311 1_566
Zn5 Zn9 2.549333 1_556
Zn10 Zn2 2.549333 1_555
Zn10 Zn4 2.549333 1_455
Zn10 Zn22 2.549333 1_455
Zn10 Zn20 2.717252 1_455
Zn10 Zn13 2.717252 1_555
Zn10 Zn17 2.717260 1_455
Zn10 Zn15 2.717260 1_555
Zn11 Zn4 2.549310 1_454
Zn11 Zn2 2.549310 1_555
Zn11 Zn21 2.549325 1_555
Zn11 Zn14 2.717253 1_455
Zn11 Zn19 2.717253 1_554
Zn11 Zn15 2.717253 1_554
Zn11 Zn17 2.717253 1_455
Zn12 Zn22 2.549333 1_545
Zn12 Zn3 2.549333 1_555
Zn12 Zn5 2.549333 1_545
Zn12 Zn20 2.717253 1_545
Zn12 Zn13 2.717253 1_555
Zn12 Zn18 2.717260 1_545
Zn12 Zn16 2.717260 1_555
Zn13 Zn6 2.655801 1_555
Zn13 Zn2 2.705040 1_555
Zn13 Zn3 2.705040 1_555
Zn13 Zn9 2.717253 1_555
Zn13 Zn14 3.066654 1_555
Zn13 Zn16 3.066654 1_555
Zn13 Zn15 3.066654 1_555
Zn14 Zn6 2.655793 1_555
Zn14 Zn4 2.705026 1_554
Zn14 Zn5 2.705026 1_554
Zn14 Zn7 2.717253 1_565
Zn14 Zn9 2.717260 1_555
Zn14 Zn18 3.066642 1_555
Zn14 Zn17 3.066642 1_555
Zn15 Zn6 2.655793 1_555
Zn15 Zn4 2.705025 1_455
Zn15 Zn22 2.705026 1_455
Zn15 Zn8 2.717253 1_565
Zn15 Zn18 3.066642 1_555
Zn15 Zn19 3.066642 1_555
Zn16 Zn6 2.655793 1_555
Zn16 Zn5 2.705026 1_545
Zn16 Zn22 2.705026 1_545
Zn16 Zn8 2.717253 1_655
Zn16 Zn7 2.717253 1_556
Zn16 Zn17 3.066642 1_555
Zn16 Zn19 3.066642 1_555
Zn17 Zn6 2.655793 1_555
Zn17 Zn2 2.705025 1_655
Zn17 Zn21 2.705034 1_655
Zn17 Zn8 2.717253 1_655
Zn17 Zn20 3.066654 1_555
Zn18 Zn6 2.655793 1_555
Zn18 Zn3 2.705026 1_565
Zn18 Zn21 2.705035 1_565
Zn18 Zn8 2.717253 1_565
Zn18 Zn7 2.717253 1_565
Zn18 Zn20 3.066654 1_555
Zn19 Zn6 2.655793 1_555
Zn19 Zn2 2.705026 1_556
Zn19 Zn3 2.705026 1_556
Zn19 Zn21 2.705034 1_556
Zn19 Zn7 2.717253 1_556
Zn19 Zn9 2.717260 1_556
Zn19 Zn20 3.066654 1_555
Zn20 Zn6 2.655801 1_555
Zn20 Zn22 2.705040 1_555
Zn20 Zn4 2.705040 1_555
Zn20 Zn5 2.705040 1_555
Zn20 Zn9 2.717253 1_556
Zn21 Zn7 2.549325 1_555
Zn21 Zn8 2.549325 1_555
Zn21 Zn3 2.768160 1_555
Zn22 Zn8 2.549310 1_665
Zn22 Zn5 2.768159 1_555
Zn22 Zn4 2.768160 1_555
