# generated using pymatgen
data_LiSnIrRh
_symmetry_space_group_name_H-M   'P 1'
_cell_length_a   4.35710623
_cell_length_b   4.35710687
_cell_length_c   4.35710701
_cell_angle_alpha   60.00000636
_cell_angle_beta   60.00000151
_cell_angle_gamma   60.00000585
_symmetry_Int_Tables_number   1
_chemical_formula_structural   LiSnIrRh
_chemical_formula_sum   'Li1 Sn1 Ir1 Rh1'
_cell_volume   58.48973243
_cell_formula_units_Z   1
loop_
 _symmetry_equiv_pos_site_id
 _symmetry_equiv_pos_as_xyz
  1  'x, y, z'
loop_
 _atom_site_type_symbol
 _atom_site_label
 _atom_site_symmetry_multiplicity
 _atom_site_fract_x
 _atom_site_fract_y
 _atom_site_fract_z
 _atom_site_occupancy
  Li  Li0  1  0.50000000  0.50000000  0.50000000  1
  Sn  Sn0  1  0.00000000  0.00000000  0.00000000  1
  Ir  Ir0  1  0.75000000  0.75000000  0.75000000  1
  Rh  Rh0  1  0.25000000  0.25000000  0.25000000  1
loop_
_geom_bond_atom_site_label_1
_geom_bond_atom_site_label_2
_geom_bond_distance
_geom_bond_site_symmetry_2
Li0 Rh0 2.668172 1_655
Li0 Rh0 2.668172 1_555
Li0 Rh0 2.668172 1_556
Li0 Rh0 2.668172 1_565
Li0 Sn0 3.080940 1_665
Li0 Sn0 3.080940 1_556
Li0 Sn0 3.080940 1_565
Li0 Sn0 3.080940 1_656
Li0 Sn0 3.080940 1_655
Li0 Sn0 3.080940 1_566
Ir0 Li0 2.668172 1_655
Ir0 Sn0 2.668172 1_566
Ir0 Li0 2.668172 1_555
Ir0 Sn0 2.668172 1_666
Ir0 Sn0 2.668172 1_665
Ir0 Li0 2.668172 1_556
Ir0 Li0 2.668172 1_565
Ir0 Sn0 2.668172 1_656
Rh0 Sn0 2.668172 1_655
Rh0 Sn0 2.668172 1_555
Rh0 Sn0 2.668172 1_556
Rh0 Sn0 2.668172 1_565
