# generated using pymatgen
data_Rb3Sc(IO3)6
_symmetry_space_group_name_H-M   'P 1'
_cell_length_a   7.05215389
_cell_length_b   7.05168189
_cell_length_c   10.68960272
_cell_angle_alpha   87.70106936
_cell_angle_beta   108.15238697
_cell_angle_gamma   107.46362894
_symmetry_Int_Tables_number   1
_chemical_formula_structural   Rb3Sc(IO3)6
_chemical_formula_sum   'Rb3 Sc1 I6 O18'
_cell_volume   481.01350653
_cell_formula_units_Z   1
loop_
 _symmetry_equiv_pos_site_id
 _symmetry_equiv_pos_as_xyz
  1  'x, y, z'
loop_
 _atom_site_type_symbol
 _atom_site_label
 _atom_site_symmetry_multiplicity
 _atom_site_fract_x
 _atom_site_fract_y
 _atom_site_fract_z
 _atom_site_occupancy
  Rb  Rb0  1  0.00000000  0.00000000  0.00000000  1
  Rb  Rb1  1  0.83526958  0.02153645  0.60223565  1
  Rb  Rb2  1  0.16473042  0.97846355  0.39776435  1
  Sc  Sc0  1  0.50000000  0.50000000  0.00000000  1
  I  I0  1  0.03436491  0.47461856  0.19028159  1
  I  I1  1  0.96563509  0.52538144  0.80971841  1
  I  I2  1  0.55809580  0.96194554  0.19034256  1
  I  I3  1  0.44190420  0.03805446  0.80965744  1
  I  I4  1  0.40371685  0.54770616  0.63486929  1
  I  I5  1  0.59628315  0.45229384  0.36513071  1
  O  O0  1  0.82739379  0.53635481  0.05359367  1
  O  O1  1  0.17260621  0.46364519  0.94640633  1
  O  O2  1  0.96458663  0.54999646  0.32474981  1
  O  O3  1  0.03541337  0.45000354  0.67525019  1
  O  O4  1  0.92562319  0.20655804  0.18711892  1
  O  O5  1  0.07437681  0.79344196  0.81288108  1
  O  O6  1  0.56807370  0.81048747  0.05623945  1
  O  O7  1  0.43192630  0.18951253  0.94376055  1
  O  O8  1  0.29003353  0.84871817  0.18747930  1
  O  O9  1  0.70996647  0.15128183  0.81252070  1
  O  O10  1  0.69386606  0.84477681  0.32777952  1
  O  O11  1  0.30613394  0.15522319  0.67222048  1
  O  O12  1  0.51200227  0.58782648  0.81507207  1
  O  O13  1  0.48799773  0.41217352  0.18492793  1
  O  O14  1  0.65823245  0.56588840  0.61622868  1
  O  O15  1  0.34176755  0.43411160  0.38377132  1
  O  O16  1  0.40664800  0.80183617  0.60435165  1
  O  O17  1  0.59335200  0.19816383  0.39564835  1
loop_
_geom_bond_atom_site_label_1
_geom_bond_atom_site_label_2
_geom_bond_distance
_geom_bond_site_symmetry_2
I0 O2 1.802736 1_455
I0 O4 1.811437 1_455
I0 O0 1.859131 1_455
I0 O8 2.717256 1_555
I1 O3 1.802736 1_655
I1 O5 1.811437 1_655
I1 O1 1.859131 1_655
I1 O9 2.717256 1_555
I2 O10 1.805205 1_555
I2 O8 1.808893 1_555
I2 O6 1.852399 1_555
I2 O4 2.657410 1_565
I2 O17 2.712497 1_565
I3 O11 1.805205 1_555
I3 O9 1.808893 1_555
I3 O7 1.852399 1_555
I3 O5 2.657410 1_545
I3 O16 2.712497 1_545
I4 O16 1.803701 1_555
I4 O14 1.833146 1_555
I4 O12 1.836108 1_555
I4 O3 2.647228 1_555
I5 O17 1.803701 1_555
I5 O15 1.833146 1_555
I5 O13 1.836108 1_555
I5 O2 2.647228 1_555
O0 Sc0 2.134709 1_555
O0 Rb0 3.224124 1_665
O1 Sc0 2.134709 1_556
O1 Rb0 3.224124 1_556
O2 Rb2 2.945077 1_655
O3 Rb1 2.945077 1_455
O4 Rb0 2.782744 1_655
O4 Rb2 3.077690 1_645
O5 Rb0 2.782744 1_566
O5 Rb1 3.077690 1_465
O6 Sc0 2.163450 1_555
O6 Rb0 3.171571 1_665
O7 Sc0 2.163450 1_556
O7 Rb0 3.171571 1_556
O8 Rb0 2.814586 1_565
O8 Rb2 2.925532 1_555
O9 Rb0 2.814586 1_656
O9 Rb1 2.925532 1_555
O10 Rb1 2.979903 1_565
O10 Rb2 3.017394 1_655
O11 Rb2 2.979903 1_545
O11 Rb1 3.017394 1_455
O12 Sc0 2.067139 1_556
O13 Sc0 2.067139 1_555
O14 Rb1 3.094368 1_565
O15 Rb2 3.094368 1_545
O16 Rb2 2.836520 1_555
O16 Rb1 2.960834 1_565
O17 Rb1 2.836520 1_555
O17 Rb2 2.960834 1_545
