# generated using pymatgen
data_TiAl2Os4W
_symmetry_space_group_name_H-M   'P 1'
_cell_length_a   4.32513525
_cell_length_b   4.32511669
_cell_length_c   7.48339719
_cell_angle_alpha   73.21127470
_cell_angle_beta   90.00003877
_cell_angle_gamma   120.00007521
_symmetry_Int_Tables_number   1
_chemical_formula_structural   TiAl2Os4W
_chemical_formula_sum   'Ti1 Al2 Os4 W1'
_cell_volume   114.29276151
_cell_formula_units_Z   1
loop_
 _symmetry_equiv_pos_site_id
 _symmetry_equiv_pos_as_xyz
  1  'x, y, z'
loop_
 _atom_site_type_symbol
 _atom_site_label
 _atom_site_symmetry_multiplicity
 _atom_site_fract_x
 _atom_site_fract_y
 _atom_site_fract_z
 _atom_site_occupancy
  Ti  Ti0  1  0.37499900  0.75000000  0.87500000  1
  Al  Al0  1  0.62744180  0.25488261  0.11767511  1
  Al  Al1  1  0.12255920  0.24511839  0.63232389  1
  Os  Os0  1  0.99876755  0.99753711  0.00374527  1
  Os  Os1  1  0.75123145  0.50246289  0.74625473  1
  Os  Os2  1  0.50123851  0.00247602  0.49620369  1
  Os  Os3  1  0.24876349  0.49752498  0.25379631  1
  W  W0  1  0.87500300  0.75000000  0.37500000  1
loop_
_geom_bond_atom_site_label_1
_geom_bond_atom_site_label_2
_geom_bond_distance
_geom_bond_site_symmetry_2
Al0 Os1 2.620334 1_554
Al0 Os0 2.623152 1_545
Al0 Os0 2.623164 1_445
Al0 Os0 2.623527 1_555
Al0 Os2 2.670482 1_555
Al0 Os3 2.675351 1_545
Al0 Os3 2.675428 1_555
Al0 Os3 2.675432 1_655
Al0 W0 3.087022 1_555
Al0 W0 3.087392 1_445
Al0 W0 3.087402 1_545
Al1 Os0 2.620341 1_446
Al1 Os1 2.623159 1_455
Al1 Os1 2.623160 1_555
Al1 Os1 2.623530 1_445
Al1 Os3 2.670475 1_555
Al1 Os2 2.675351 1_565
Al1 Os2 2.675425 1_455
Al1 Os2 2.675428 1_555
Al1 W0 3.087019 1_445
Al1 W0 3.087381 1_455
Al1 W0 3.087404 1_555
Os0 W0 2.619165 1_555
Os0 Ti0 2.657160 1_654
Os0 Ti0 2.657161 1_554
Os0 Ti0 2.657187 1_664
Os1 W0 2.619165 1_555
Os1 Ti0 2.657157 1_655
Os1 Ti0 2.657163 1_555
Os1 Ti0 2.657187 1_545
Os2 W0 2.639285 1_445
Os2 W0 2.639302 1_545
Os2 W0 2.639781 1_555
Os2 Ti0 2.672370 1_545
Os3 W0 2.639285 1_455
Os3 W0 2.639300 1_555
Os3 W0 2.639784 1_445
Os3 Ti0 2.672370 1_554
