# generated using pymatgen
data_Ti2Cr2GaC3
_symmetry_space_group_name_H-M   'P 1'
_cell_length_a   3.01897937
_cell_length_b   3.01897904
_cell_length_c   22.45375431
_cell_angle_alpha   90.00000000
_cell_angle_beta   90.00000000
_cell_angle_gamma   119.99999256
_symmetry_Int_Tables_number   1
_chemical_formula_structural   Ti2Cr2GaC3
_chemical_formula_sum   'Ti4 Cr4 Ga2 C6'
_cell_volume   177.23107607
_cell_formula_units_Z   2
loop_
 _symmetry_equiv_pos_site_id
 _symmetry_equiv_pos_as_xyz
  1  'x, y, z'
loop_
 _atom_site_type_symbol
 _atom_site_label
 _atom_site_symmetry_multiplicity
 _atom_site_fract_x
 _atom_site_fract_y
 _atom_site_fract_z
 _atom_site_occupancy
  Ti  Ti0  1  0.33333300  0.66666700  0.44540260  1
  Ti  Ti1  1  0.66666700  0.33333300  0.55459740  1
  Ti  Ti2  1  0.66666700  0.33333300  0.94540260  1
  Ti  Ti3  1  0.33333300  0.66666700  0.05459740  1
  Cr  Cr0  1  0.00000000  0.00000000  0.34263793  1
  Cr  Cr1  1  0.00000000  0.00000000  0.65736207  1
  Cr  Cr2  1  0.00000000  0.00000000  0.84263793  1
  Cr  Cr3  1  0.00000000  0.00000000  0.15736207  1
  Ga  Ga0  1  0.33333300  0.66666700  0.25000000  1
  Ga  Ga1  1  0.66666700  0.33333300  0.75000000  1
  C  C0  1  0.00000000  0.00000000  0.50000000  1
  C  C1  1  0.00000000  0.00000000  0.00000000  1
  C  C2  1  0.66666700  0.33333300  0.38481994  1
  C  C3  1  0.33333300  0.66666700  0.61518006  1
  C  C4  1  0.33333300  0.66666700  0.88481994  1
  C  C5  1  0.66666700  0.33333300  0.11518006  1
loop_
_geom_bond_atom_site_label_1
_geom_bond_atom_site_label_2
_geom_bond_distance
_geom_bond_site_symmetry_2
Cr0 Ga0 2.713809 1_545
Cr0 Ga0 2.713811 1_555
Cr0 Ga0 2.713811 1_445
Cr1 Ga1 2.713809 1_455
Cr1 Ga1 2.713811 1_445
Cr1 Ga1 2.713811 1_555
Cr2 Ga1 2.713809 1_455
Cr2 Ga1 2.713811 1_445
Cr2 Ga1 2.713811 1_555
Cr3 Ga0 2.713809 1_545
Cr3 Ga0 2.713811 1_555
Cr3 Ga0 2.713811 1_445
C0 Ti0 2.130949 1_545
C0 Ti1 2.130949 1_455
C0 Ti0 2.130951 1_555
C0 Ti1 2.130951 1_445
C0 Ti1 2.130951 1_555
C0 Ti0 2.130951 1_445
C1 Ti2 2.130949 1_454
C1 Ti3 2.130949 1_545
C1 Ti3 2.130951 1_555
C1 Ti2 2.130951 1_444
C1 Ti2 2.130951 1_554
C1 Ti3 2.130951 1_445
C2 Cr0 1.983722 1_655
C2 Cr0 1.983725 1_665
C2 Cr0 1.983725 1_555
C2 Ti0 2.210998 1_545
C2 Ti0 2.210998 1_655
C2 Ti0 2.211002 1_555
C3 Cr1 1.983722 1_565
C3 Cr1 1.983725 1_555
C3 Cr1 1.983725 1_665
C3 Ti1 2.210998 1_565
C3 Ti1 2.210998 1_455
C3 Ti1 2.211002 1_555
C4 Cr2 1.983722 1_565
C4 Cr2 1.983725 1_555
C4 Cr2 1.983725 1_665
C4 Ti2 2.210998 1_565
C4 Ti2 2.210998 1_455
C4 Ti2 2.211002 1_555
C5 Cr3 1.983722 1_655
C5 Cr3 1.983725 1_665
C5 Cr3 1.983725 1_555
C5 Ti3 2.210998 1_545
C5 Ti3 2.210998 1_655
C5 Ti3 2.211002 1_555
