# generated using pymatgen
data_Sr2Pt3Rh
_symmetry_space_group_name_H-M   'P 1'
_cell_length_a   5.49901756
_cell_length_b   5.51265099
_cell_length_c   5.51265216
_cell_angle_alpha   59.99999303
_cell_angle_beta   59.91794618
_cell_angle_gamma   59.91794275
_symmetry_Int_Tables_number   1
_chemical_formula_structural   Sr2Pt3Rh
_chemical_formula_sum   'Sr2 Pt3 Rh1'
_cell_volume   118.01886048
_cell_formula_units_Z   1
loop_
 _symmetry_equiv_pos_site_id
 _symmetry_equiv_pos_as_xyz
  1  'x, y, z'
loop_
 _atom_site_type_symbol
 _atom_site_label
 _atom_site_symmetry_multiplicity
 _atom_site_fract_x
 _atom_site_fract_y
 _atom_site_fract_z
 _atom_site_occupancy
  Sr  Sr0  1  0.24877260  0.25040913  0.25040913  1
  Sr  Sr1  1  0.00122740  0.99959087  0.99959087  1
  Pt  Pt0  1  0.62500000  0.12500000  0.62500000  1
  Pt  Pt1  1  0.62500000  0.62500000  0.12500000  1
  Pt  Pt2  1  0.62500000  0.62500000  0.62500000  1
  Rh  Rh0  1  0.12500000  0.62500000  0.62500000  1
loop_
_geom_bond_atom_site_label_1
_geom_bond_atom_site_label_2
_geom_bond_distance
_geom_bond_site_symmetry_2
Pt0 Rh0 2.749508 1_555
Pt0 Rh0 2.749508 1_645
Pt0 Pt1 2.756325 1_555
Pt0 Pt2 2.756325 1_555
Pt0 Pt2 2.756325 1_545
Pt0 Pt1 2.756325 1_546
Pt0 Sr0 3.218208 1_655
Pt0 Sr1 3.218208 1_545
Pt0 Sr0 3.231681 1_556
Pt0 Sr1 3.231681 1_644
Pt0 Sr1 3.231681 1_645
Pt0 Sr0 3.231681 1_555
Pt1 Rh0 2.749509 1_555
Pt1 Rh0 2.749509 1_654
Pt1 Pt2 2.756326 1_555
Pt1 Pt2 2.756326 1_554
Pt1 Sr0 3.218208 1_655
Pt1 Sr1 3.218208 1_554
Pt1 Sr0 3.231680 1_565
Pt1 Sr1 3.231680 1_644
Pt1 Sr1 3.231681 1_654
Pt1 Sr0 3.231681 1_555
Pt2 Rh0 2.749509 1_555
Pt2 Rh0 2.749509 1_655
Pt2 Sr1 3.218208 1_555
Pt2 Sr0 3.218208 1_655
Pt2 Sr1 3.231680 1_645
Pt2 Sr0 3.231680 1_565
Pt2 Sr1 3.231681 1_654
Pt2 Sr0 3.231681 1_556
Rh0 Sr0 3.230765 1_565
Rh0 Sr1 3.230765 1_545
Rh0 Sr0 3.230765 1_556
Rh0 Sr1 3.230765 1_554
Rh0 Sr1 3.230765 1_555
Rh0 Sr0 3.230765 1_555
