# generated using pymatgen
data_Na16HfSiAs8
_symmetry_space_group_name_H-M   'P 1'
_cell_length_a   9.73283998
_cell_length_b   9.73283925
_cell_length_c   9.73284005
_cell_angle_alpha   60.00000054
_cell_angle_beta   60.00000302
_cell_angle_gamma   60.00000142
_symmetry_Int_Tables_number   1
_chemical_formula_structural   Na16HfSiAs8
_chemical_formula_sum   'Na16 Hf1 Si1 As8'
_cell_volume   651.93416070
_cell_formula_units_Z   1
loop_
 _symmetry_equiv_pos_site_id
 _symmetry_equiv_pos_as_xyz
  1  'x, y, z'
loop_
 _atom_site_type_symbol
 _atom_site_label
 _atom_site_symmetry_multiplicity
 _atom_site_fract_x
 _atom_site_fract_y
 _atom_site_fract_z
 _atom_site_occupancy
  Na  Na0  1  0.62947386  0.62947386  0.11158042  1
  Na  Na1  1  0.62947386  0.11158042  0.62947386  1
  Na  Na2  1  0.11158042  0.62947386  0.62947386  1
  Na  Na3  1  0.62947386  0.62947386  0.62947386  1
  Na  Na4  1  0.03050346  0.46949654  0.46949654  1
  Na  Na5  1  0.77234207  0.22765793  0.22765793  1
  Na  Na6  1  0.46949654  0.03050346  0.46949654  1
  Na  Na7  1  0.46949654  0.46949654  0.03050346  1
  Na  Na8  1  0.03050346  0.03050346  0.46949654  1
  Na  Na9  1  0.03050346  0.46949654  0.03050346  1
  Na  Na10  1  0.46949654  0.03050346  0.03050346  1
  Na  Na11  1  0.77234207  0.22765793  0.77234207  1
  Na  Na12  1  0.22765793  0.77234207  0.22765793  1
  Na  Na13  1  0.22765793  0.22765793  0.77234207  1
  Na  Na14  1  0.77234207  0.77234207  0.22765793  1
  Na  Na15  1  0.22765793  0.77234207  0.77234207  1
  Hf  Hf0  1  0.50000000  0.50000000  0.50000000  1
  Si  Si0  1  0.75000000  0.75000000  0.75000000  1
  As  As0  1  0.85251226  0.85251226  0.44246422  1
  As  As1  1  0.85251226  0.44246422  0.85251226  1
  As  As2  1  0.39185010  0.39185010  0.82444770  1
  As  As3  1  0.39185010  0.82444770  0.39185010  1
  As  As4  1  0.82444770  0.39185010  0.39185010  1
  As  As5  1  0.85251226  0.85251226  0.85251226  1
  As  As6  1  0.44246422  0.85251226  0.85251226  1
  As  As7  1  0.39185010  0.39185010  0.39185010  1
loop_
_geom_bond_atom_site_label_1
_geom_bond_atom_site_label_2
_geom_bond_distance
_geom_bond_site_symmetry_2
Na0 Si0 2.873418 1_554
Na0 Na14 3.196694 1_555
Na0 Na5 3.196710 1_555
Na0 Na12 3.196710 1_555
Na0 Na10 3.217606 1_565
Na0 Na9 3.217606 1_655
Na0 Na7 3.217622 1_555
Na1 Si0 2.873418 1_545
Na1 Na11 3.196694 1_555
Na1 Na5 3.196710 1_555
Na1 Na13 3.196710 1_555
Na1 Na8 3.217606 1_655
Na1 Na10 3.217606 1_556
Na1 Na6 3.217622 1_555
Na2 Si0 2.873418 1_455
Na2 Na8 3.217606 1_565
Na2 Na9 3.217606 1_556
Na2 Na4 3.217622 1_555
Na3 Si0 2.873402 1_555
Na3 Na6 3.217608 1_565
Na3 Na7 3.217608 1_556
Na3 Na4 3.217608 1_655
Na11 Na3 3.196709 1_555
Na12 Na2 3.196710 1_555
Na13 Na2 3.196710 1_555
Na14 Na3 3.196709 1_555
Na15 Na2 3.196694 1_555
Na15 Na3 3.196709 1_555
Hf0 Na1 3.086704 1_555
Hf0 Na0 3.086705 1_555
Hf0 Na2 3.086705 1_555
Hf0 Na3 3.086720 1_555
As0 Si0 2.443935 1_555
As0 Na5 3.075719 1_565
As0 Na12 3.075719 1_655
As0 Na14 3.075726 1_555
As0 Na3 3.089933 1_555
As0 Na1 3.089940 1_565
As0 Na2 3.089940 1_655
As0 Na8 3.159748 1_665
As0 Na4 3.159756 1_655
As0 Na6 3.159756 1_565
As1 Si0 2.443935 1_555
As1 Na5 3.075719 1_556
As1 Na13 3.075719 1_655
As1 Na11 3.075726 1_555
As1 Na3 3.089933 1_555
As1 Na2 3.089940 1_655
As1 Na0 3.089940 1_556
As1 Na9 3.159748 1_656
As1 Na7 3.159756 1_556
As1 Na4 3.159756 1_655
As2 Hf0 2.578331 1_555
As2 Na10 2.960832 1_556
As2 Na9 2.960832 1_556
As2 Na7 2.960846 1_556
As2 Na13 3.088592 1_555
As2 Na15 3.088608 1_555
As2 Na11 3.088609 1_555
As2 Na1 3.296935 1_555
As2 Na2 3.296935 1_555
As2 Na3 3.296964 1_555
As3 Hf0 2.578331 1_555
As3 Na10 2.960832 1_565
As3 Na8 2.960832 1_565
As3 Na6 2.960846 1_565
As3 Na12 3.088592 1_555
As3 Na14 3.088609 1_555
As3 Na15 3.088609 1_555
As3 Na2 3.296935 1_555
As3 Na0 3.296935 1_555
As3 Na3 3.296964 1_555
As4 Hf0 2.578331 1_555
As4 Na8 2.960832 1_655
As4 Na9 2.960832 1_655
As4 Na4 2.960846 1_655
As4 Na5 3.088592 1_555
As4 Na14 3.088608 1_555
As4 Na11 3.088609 1_555
As4 Na1 3.296935 1_555
As4 Na0 3.296935 1_555
As4 Na3 3.296964 1_555
As5 Si0 2.443943 1_555
As5 Na11 3.075717 1_565
As5 Na15 3.075717 1_655
As5 Na14 3.075717 1_556
As5 Na0 3.089934 1_556
As5 Na1 3.089934 1_565
As5 Na2 3.089934 1_655
As5 Na9 3.159754 1_656
As5 Na8 3.159754 1_665
As5 Na10 3.159754 1_566
As6 Si0 2.443935 1_555
As6 Na13 3.075719 1_565
As6 Na12 3.075719 1_556
As6 Na15 3.075726 1_555
As6 Na3 3.089933 1_555
As6 Na1 3.089940 1_565
As6 Na0 3.089940 1_556
As6 Na10 3.159748 1_566
As6 Na7 3.159756 1_556
As6 Na6 3.159756 1_565
As7 Hf0 2.578347 1_555
As7 Na6 2.960827 1_555
As7 Na4 2.960828 1_555
As7 Na7 2.960828 1_555
As7 Na12 3.088605 1_555
As7 Na13 3.088605 1_555
As7 Na5 3.088605 1_555
As7 Na0 3.296959 1_555
As7 Na1 3.296959 1_555
As7 Na2 3.296960 1_555
