# generated using pymatgen
data_NaCo3Sb12Ru
_symmetry_space_group_name_H-M   'P 1'
_cell_length_a   7.94755510
_cell_length_b   7.88457586
_cell_length_c   7.94755392
_cell_angle_alpha   109.31077715
_cell_angle_beta   109.63119134
_cell_angle_gamma   109.31076868
_symmetry_Int_Tables_number   1
_chemical_formula_structural   NaCo3Sb12Ru
_chemical_formula_sum   'Na1 Co3 Sb12 Ru1'
_cell_volume   384.13122198
_cell_formula_units_Z   1
loop_
 _symmetry_equiv_pos_site_id
 _symmetry_equiv_pos_as_xyz
  1  'x, y, z'
loop_
 _atom_site_type_symbol
 _atom_site_label
 _atom_site_symmetry_multiplicity
 _atom_site_fract_x
 _atom_site_fract_y
 _atom_site_fract_z
 _atom_site_occupancy
  Na  Na0  1  0.00000000  0.00000000  0.00000000  1
  Co  Co0  1  0.50000000  0.50000000  0.50000000  1
  Co  Co1  1  0.00000000  0.00000000  0.50000000  1
  Co  Co2  1  0.50000000  0.00000000  0.00000000  1
  Sb  Sb0  1  0.66442006  0.84068533  0.50437733  1
  Sb  Sb1  1  0.33557994  0.15931467  0.49562267  1
  Sb  Sb2  1  0.83995727  0.17626527  0.33557994  1
  Sb  Sb3  1  0.82063136  0.66718448  0.16302180  1
  Sb  Sb4  1  0.83697820  0.50416268  0.65760956  1
  Sb  Sb5  1  0.17936864  0.33281552  0.83697820  1
  Sb  Sb6  1  0.16004273  0.82373473  0.66442006  1
  Sb  Sb7  1  0.50437733  0.66369200  0.83995727  1
  Sb  Sb8  1  0.49562267  0.33630800  0.16004273  1
  Sb  Sb9  1  0.16302180  0.49583732  0.34239044  1
  Sb  Sb10  1  0.34239044  0.84655312  0.17936864  1
  Sb  Sb11  1  0.65760956  0.15344688  0.82063136  1
  Ru  Ru0  1  0.00000000  0.50000000  0.00000000  1
loop_
_geom_bond_atom_site_label_1
_geom_bond_atom_site_label_2
_geom_bond_distance
_geom_bond_site_symmetry_2
Na0 Sb10 3.407685 1_545
Na0 Sb11 3.407685 1_454
Na0 Sb9 3.407685 1_555
Na0 Sb4 3.407685 1_444
Na0 Sb5 3.407685 1_554
Na0 Sb3 3.407685 1_445
Na0 Sb1 3.414602 1_555
Na0 Sb0 3.414602 1_444
Na0 Sb2 3.414602 1_455
Na0 Sb6 3.414602 1_544
Na0 Sb8 3.414603 1_555
Na0 Sb7 3.414603 1_444
Co0 Sb4 2.530450 1_555
Co0 Sb9 2.530450 1_555
Co0 Sb0 2.551538 1_555
Co0 Sb1 2.551538 1_555
Co0 Sb7 2.562749 1_555
Co0 Sb8 2.562749 1_555
Co1 Sb5 2.530450 1_555
Co1 Sb3 2.530450 1_445
Co1 Sb6 2.551538 1_545
Co1 Sb2 2.551538 1_455
Co1 Sb1 2.562750 1_555
Co1 Sb0 2.562750 1_445
Co2 Sb11 2.530450 1_554
Co2 Sb10 2.530450 1_545
Co2 Sb8 2.551538 1_555
Co2 Sb7 2.551538 1_544
Co2 Sb2 2.562750 1_555
Co2 Sb6 2.562750 1_544
Sb0 Sb11 2.912353 1_565
Sb0 Sb10 2.989940 1_555
Sb1 Sb10 2.912353 1_545
Sb1 Sb11 2.989940 1_555
Sb2 Sb9 2.912354 1_655
Sb2 Sb4 2.989940 1_555
Sb3 Sb7 2.912353 1_554
Sb3 Sb8 2.989941 1_555
Sb4 Sb6 2.912354 1_655
Sb5 Sb8 2.912353 1_556
Sb5 Sb7 2.989941 1_555
Sb6 Sb9 2.989940 1_555
Ru0 Sb9 2.608199 1_555
Ru0 Sb4 2.608199 1_454
Ru0 Sb3 2.608199 1_455
Ru0 Sb5 2.608199 1_554
Ru0 Sb10 2.608200 1_555
Ru0 Sb11 2.608200 1_454
