# generated using pymatgen
data_RbBiS2
_symmetry_space_group_name_H-M   'P 1'
_cell_length_a   8.07833732
_cell_length_b   8.07833732
_cell_length_c   8.07833709
_cell_angle_alpha   29.80793370
_cell_angle_beta   29.80793370
_cell_angle_gamma   29.80794354
_symmetry_Int_Tables_number   1
_chemical_formula_structural   RbBiS2
_chemical_formula_sum   'Rb1 Bi1 S2'
_cell_volume   115.35776209
_cell_formula_units_Z   1
loop_
 _symmetry_equiv_pos_site_id
 _symmetry_equiv_pos_as_xyz
  1  'x, y, z'
loop_
 _atom_site_type_symbol
 _atom_site_label
 _atom_site_symmetry_multiplicity
 _atom_site_fract_x
 _atom_site_fract_y
 _atom_site_fract_z
 _atom_site_occupancy
  Rb  Rb0  1  0.50000000  0.50000000  0.50000000  1
  Bi  Bi0  1  0.00000000  0.00000000  0.00000000  1
  S  S0  1  0.73384964  0.73384964  0.73384964  1
  S  S1  1  0.26615036  0.26615036  0.26615036  1
loop_
_geom_bond_atom_site_label_1
_geom_bond_atom_site_label_2
_geom_bond_distance
_geom_bond_site_symmetry_2
Rb0 S1 3.325086 1_556
Rb0 S0 3.325086 1_554
Rb0 S1 3.325086 1_565
Rb0 S1 3.325086 1_655
Rb0 S0 3.325086 1_455
Rb0 S0 3.325086 1_545
Bi0 S0 2.858878 1_445
Bi0 S1 2.858878 1_554
Bi0 S0 2.858879 1_544
Bi0 S0 2.858879 1_454
Bi0 S1 2.858879 1_545
Bi0 S1 2.858879 1_455
