# generated using pymatgen
data_Mg3TeO6
_symmetry_space_group_name_H-M   'P 1'
_cell_length_a   6.03576828
_cell_length_b   6.03576808
_cell_length_c   6.03576806
_cell_angle_alpha   90.71429111
_cell_angle_beta   90.71428142
_cell_angle_gamma   90.71426651
_symmetry_Int_Tables_number   1
_chemical_formula_structural   Mg3TeO6
_chemical_formula_sum   'Mg6 Te2 O12'
_cell_volume   219.83434368
_cell_formula_units_Z   2
loop_
 _symmetry_equiv_pos_site_id
 _symmetry_equiv_pos_as_xyz
  1  'x, y, z'
loop_
 _atom_site_type_symbol
 _atom_site_label
 _atom_site_symmetry_multiplicity
 _atom_site_fract_x
 _atom_site_fract_y
 _atom_site_fract_z
 _atom_site_occupancy
  Mg  Mg0  1  0.44657687  0.75187758  0.93704174  1
  Mg  Mg1  1  0.93704174  0.44657687  0.75187758  1
  Mg  Mg2  1  0.24812242  0.06295826  0.55342313  1
  Mg  Mg3  1  0.06295826  0.55342313  0.24812242  1
  Mg  Mg4  1  0.55342313  0.24812242  0.06295826  1
  Mg  Mg5  1  0.75187758  0.93704174  0.44657687  1
  Te  Te0  1  -0.00000000  0.00000000  0.00000000  1
  Te  Te1  1  0.50000000  0.50000000  0.50000000  1
  O  O0  1  0.40981868  0.54504459  0.19879840  1
  O  O1  1  0.54504459  0.19879840  0.40981868  1
  O  O2  1  0.19879840  0.40981868  0.54504459  1
  O  O3  1  0.59018132  0.45495541  0.80120160  1
  O  O4  1  0.45495541  0.80120160  0.59018132  1
  O  O5  1  0.80120160  0.59018132  0.45495541  1
  O  O6  1  0.93007524  0.07318342  0.69917501  1
  O  O7  1  0.07318342  0.69917501  0.93007524  1
  O  O8  1  0.30082499  0.06992476  0.92681658  1
  O  O9  1  0.92681658  0.30082499  0.06992476  1
  O  O10  1  0.06992476  0.92681658  0.30082499  1
  O  O11  1  0.69917501  0.93007524  0.07318342  1
loop_
_geom_bond_atom_site_label_1
_geom_bond_atom_site_label_2
_geom_bond_distance
_geom_bond_site_symmetry_2
Mg0 O11 2.015533 1_556
Mg0 O0 2.038337 1_556
Mg0 O4 2.119439 1_555
Mg0 O8 2.122856 1_565
Mg0 O3 2.157577 1_555
Mg0 O7 2.271921 1_555
Mg1 O7 2.015533 1_655
Mg1 O2 2.038337 1_655
Mg1 O3 2.119439 1_555
Mg1 O9 2.122857 1_556
Mg1 O5 2.157577 1_555
Mg1 O6 2.271920 1_555
Mg2 O10 2.015533 1_545
Mg2 O4 2.038337 1_545
Mg2 O2 2.119439 1_555
Mg2 O6 2.122857 1_455
Mg2 O1 2.157578 1_555
Mg2 O8 2.271920 1_555
Mg3 O9 2.015533 1_455
Mg3 O5 2.038337 1_455
Mg3 O0 2.119439 1_555
Mg3 O7 2.122857 1_554
Mg3 O2 2.157577 1_555
Mg3 O10 2.271920 1_555
Mg4 O8 2.015533 1_554
Mg4 O3 2.038337 1_554
Mg4 O1 2.119439 1_555
Mg4 O11 2.122856 1_545
Mg4 O0 2.157577 1_555
Mg4 O9 2.271921 1_555
Mg5 O6 2.015533 1_565
Mg5 O1 2.038337 1_565
Mg5 O5 2.119439 1_555
Mg5 O10 2.122857 1_655
Mg5 O4 2.157578 1_555
Mg5 O11 2.271920 1_555
O0 Te1 1.914836 1_555
O1 Te1 1.914836 1_555
O2 Te1 1.914837 1_555
O3 Te1 1.914836 1_555
O4 Te1 1.914836 1_555
O5 Te1 1.914837 1_555
O6 Te0 1.917181 1_656
O7 Te0 1.917180 1_566
O8 Te0 1.917181 1_556
O9 Te0 1.917180 1_655
O10 Te0 1.917181 1_565
O11 Te0 1.917181 1_665
