# generated using pymatgen
data_Hf3ZnIr2N
_symmetry_space_group_name_H-M   'P 1'
_cell_length_a   8.42372170
_cell_length_b   8.42372083
_cell_length_c   8.42372164
_cell_angle_alpha   60.00000065
_cell_angle_beta   60.00000407
_cell_angle_gamma   60.00000373
_symmetry_Int_Tables_number   1
_chemical_formula_structural   Hf3ZnIr2N
_chemical_formula_sum   'Hf12 Zn4 Ir8 N4'
_cell_volume   422.66570712
_cell_formula_units_Z   4
loop_
 _symmetry_equiv_pos_site_id
 _symmetry_equiv_pos_as_xyz
  1  'x, y, z'
loop_
 _atom_site_type_symbol
 _atom_site_label
 _atom_site_symmetry_multiplicity
 _atom_site_fract_x
 _atom_site_fract_y
 _atom_site_fract_z
 _atom_site_occupancy
  Hf  Hf0  1  0.80791233  0.19208767  0.19208767  1
  Hf  Hf1  1  0.19208767  0.80791233  0.19208767  1
  Hf  Hf2  1  0.80791233  0.80791233  0.19208767  1
  Hf  Hf3  1  0.19208767  0.80791233  0.80791233  1
  Hf  Hf4  1  0.80791233  0.19208767  0.80791233  1
  Hf  Hf5  1  0.19208767  0.19208767  0.80791233  1
  Hf  Hf6  1  0.44208767  0.05791233  0.05791233  1
  Hf  Hf7  1  0.05791233  0.44208767  0.05791233  1
  Hf  Hf8  1  0.44208767  0.44208767  0.05791233  1
  Hf  Hf9  1  0.05791233  0.44208767  0.44208767  1
  Hf  Hf10  1  0.44208767  0.05791233  0.44208767  1
  Hf  Hf11  1  0.05791233  0.05791233  0.44208767  1
  Zn  Zn0  1  0.62500000  0.62500000  0.12500000  1
  Zn  Zn1  1  0.62500000  0.62500000  0.62500000  1
  Zn  Zn2  1  0.12500000  0.62500000  0.62500000  1
  Zn  Zn3  1  0.62500000  0.12500000  0.62500000  1
  Ir  Ir0  1  0.41382799  0.41382799  0.75851502  1
  Ir  Ir1  1  0.41382799  0.41382799  0.41382799  1
  Ir  Ir2  1  0.75851502  0.41382799  0.41382799  1
  Ir  Ir3  1  0.41382799  0.75851502  0.41382799  1
  Ir  Ir4  1  0.83617201  0.83617201  0.49148498  1
  Ir  Ir5  1  0.83617201  0.83617201  0.83617201  1
  Ir  Ir6  1  0.49148498  0.83617201  0.83617201  1
  Ir  Ir7  1  0.83617201  0.49148498  0.83617201  1
  N  N0  1  0.12500000  0.12500000  0.62500000  1
  N  N1  1  0.12500000  0.12500000  0.12500000  1
  N  N2  1  0.62500000  0.12500000  0.12500000  1
  N  N3  1  0.12500000  0.62500000  0.12500000  1
loop_
_geom_bond_atom_site_label_1
_geom_bond_atom_site_label_2
_geom_bond_distance
_geom_bond_site_symmetry_2
Hf0 N2 2.252483 1_555
Hf0 N1 2.252484 1_655
Hf0 Ir4 2.780542 1_545
Hf0 Ir7 2.780542 1_554
Hf0 Ir2 3.014229 1_555
Hf0 Ir1 3.014233 1_555
Hf0 Zn0 3.030361 1_555
Hf0 Zn3 3.030361 1_555
Hf1 N1 2.252483 1_565
Hf1 N3 2.252483 1_555
Hf1 Ir6 2.780542 1_554
Hf1 Ir4 2.780542 1_455
Hf1 Ir3 3.014229 1_555
Hf1 Ir1 3.014233 1_555
Hf1 Zn2 3.030361 1_555
Hf1 Zn0 3.030361 1_555
Hf2 N2 2.252483 1_565
Hf2 N3 2.252484 1_655
Hf2 Ir5 2.780539 1_554
Hf2 Ir4 2.780547 1_555
Hf2 Ir2 3.014236 1_555
Hf2 Ir3 3.014236 1_555
Hf2 Zn0 3.030361 1_555
Hf2 Zn1 3.030361 1_555
Hf3 N0 2.252483 1_565
Hf3 N3 2.252483 1_556
Hf3 Ir5 2.780539 1_455
Hf3 Ir6 2.780547 1_555
Hf3 Ir0 3.014236 1_555
Hf3 Ir3 3.014236 1_555
Hf3 Zn2 3.030361 1_555
Hf3 Zn1 3.030361 1_555
Hf4 N2 2.252484 1_556
Hf4 N0 2.252484 1_655
Hf4 Ir5 2.780538 1_545
Hf4 Ir7 2.780547 1_555
Hf4 Ir2 3.014236 1_555
Hf4 Ir0 3.014236 1_555
Hf4 Zn1 3.030361 1_555
Hf4 Zn3 3.030361 1_555
Hf5 N0 2.252483 1_555
Hf5 N1 2.252484 1_556
Hf5 Ir6 2.780542 1_545
Hf5 Ir7 2.780542 1_455
Hf5 Ir0 3.014229 1_555
Hf5 Ir1 3.014233 1_555
Hf5 Zn2 3.030361 1_555
Hf5 Zn3 3.030361 1_555
Hf6 N2 2.252483 1_555
Hf6 N1 2.252484 1_555
Hf6 Ir0 2.780542 1_554
Hf6 Ir3 2.780542 1_545
Hf6 Ir6 3.014229 1_544
Hf6 Ir5 3.014233 1_544
Hf6 Zn0 3.030361 1_545
Hf6 Zn3 3.030361 1_554
Hf7 N1 2.252483 1_555
Hf7 N3 2.252483 1_555
Hf7 Ir2 2.780542 1_455
Hf7 Ir0 2.780542 1_554
Hf7 Ir7 3.014229 1_454
Hf7 Ir5 3.014233 1_454
Hf7 Zn2 3.030361 1_554
Hf7 Zn0 3.030361 1_455
Hf8 N2 2.252483 1_555
Hf8 N3 2.252484 1_555
Hf8 Ir1 2.780539 1_555
Hf8 Ir0 2.780547 1_554
Hf8 Ir6 3.014236 1_554
Hf8 Ir7 3.014236 1_554
Hf8 Zn0 3.030361 1_555
Hf8 Zn1 3.030361 1_554
Hf9 N0 2.252483 1_555
Hf9 N3 2.252483 1_555
Hf9 Ir1 2.780539 1_555
Hf9 Ir2 2.780547 1_455
Hf9 Ir4 3.014236 1_455
Hf9 Ir7 3.014236 1_455
Hf9 Zn2 3.030361 1_555
Hf9 Zn1 3.030361 1_455
Hf10 N2 2.252484 1_555
Hf10 N0 2.252484 1_555
Hf10 Ir1 2.780538 1_555
Hf10 Ir3 2.780547 1_545
Hf10 Ir6 3.014236 1_545
Hf10 Ir4 3.014236 1_545
Hf10 Zn1 3.030361 1_545
Hf10 Zn3 3.030361 1_555
Hf11 N0 2.252483 1_555
Hf11 N1 2.252484 1_555
Hf11 Ir2 2.780542 1_455
Hf11 Ir3 2.780542 1_545
Hf11 Ir4 3.014229 1_445
Hf11 Ir5 3.014233 1_445
Hf11 Zn2 3.030361 1_545
Hf11 Zn3 3.030361 1_455
Ir0 Zn3 2.599334 1_555
Ir0 Zn2 2.599334 1_555
Ir0 Zn1 2.599340 1_555
Ir1 Zn0 2.599338 1_555
Ir1 Zn3 2.599338 1_555
Ir1 Zn2 2.599338 1_555
Ir2 Zn3 2.599333 1_555
Ir2 Zn0 2.599334 1_555
Ir2 Zn1 2.599340 1_555
Ir3 Zn2 2.599334 1_555
Ir3 Zn0 2.599334 1_555
Ir3 Zn1 2.599340 1_555
Ir4 Zn3 2.599334 1_565
Ir4 Zn2 2.599334 1_655
Ir4 Zn1 2.599340 1_555
Ir5 Zn0 2.599338 1_556
Ir5 Zn3 2.599338 1_565
Ir5 Zn2 2.599338 1_655
Ir6 Zn3 2.599333 1_565
Ir6 Zn0 2.599334 1_556
Ir6 Zn1 2.599340 1_555
Ir7 Zn2 2.599334 1_655
Ir7 Zn0 2.599334 1_556
Ir7 Zn1 2.599340 1_555
