# generated using pymatgen
data_Zr2Nb4Si7Ni16
_symmetry_space_group_name_H-M   'P 1'
_cell_length_a   7.94987540
_cell_length_b   7.96166166
_cell_length_c   7.96166242
_cell_angle_alpha   59.83026914
_cell_angle_beta   60.04896264
_cell_angle_gamma   60.04895974
_symmetry_Int_Tables_number   1
_chemical_formula_structural   Zr2Nb4Si7Ni16
_chemical_formula_sum   'Zr2 Nb4 Si7 Ni16'
_cell_volume   356.13347623
_cell_formula_units_Z   1
loop_
 _symmetry_equiv_pos_site_id
 _symmetry_equiv_pos_as_xyz
  1  'x, y, z'
loop_
 _atom_site_type_symbol
 _atom_site_label
 _atom_site_symmetry_multiplicity
 _atom_site_fract_x
 _atom_site_fract_y
 _atom_site_fract_z
 _atom_site_occupancy
  Zr  Zr0  1  0.79437141  0.79264376  0.20735624  1
  Zr  Zr1  1  0.79437141  0.20735624  0.79264376  1
  Nb  Nb0  1  0.20483358  0.79751424  0.20248576  1
  Nb  Nb1  1  0.79492271  0.20709790  0.20709790  1
  Nb  Nb2  1  0.20911751  0.79290210  0.79290210  1
  Nb  Nb3  1  0.20483358  0.20248576  0.79751424  1
  Si  Si0  1  0.50366864  0.50000000  0.50000000  1
  Si  Si1  1  0.49746703  0.00356221  0.50156216  1
  Si  Si2  1  0.00259241  0.49843784  0.99643779  1
  Si  Si3  1  0.00259241  0.99643779  0.49843784  1
  Si  Si4  1  0.49566447  0.00000000  0.00000000  1
  Si  Si5  1  0.00678878  0.50000000  0.50000000  1
  Si  Si6  1  0.49746703  0.50156216  0.00356221  1
  Ni  Ni0  1  0.16833540  0.16867545  0.49388279  1
  Ni  Ni1  1  0.49294178  0.16896438  0.16896438  1
  Ni  Ni2  1  0.16832071  0.16900236  0.16900236  1
  Ni  Ni3  1  0.50632442  0.83099764  0.83099764  1
  Ni  Ni4  1  0.83086954  0.83103562  0.83103562  1
  Ni  Ni5  1  0.83089264  0.83132455  0.50611721  1
  Ni  Ni6  1  0.16833540  0.49388279  0.16867545  1
  Ni  Ni7  1  0.61558210  0.14811310  0.61595268  1
  Ni  Ni8  1  0.37964789  0.38404732  0.85188690  1
  Ni  Ni9  1  0.85455140  0.37994027  0.37994027  1
  Ni  Ni10  1  0.38383441  0.38364267  0.38364267  1
  Ni  Ni11  1  0.15111976  0.61635733  0.61635733  1
  Ni  Ni12  1  0.61443094  0.62005973  0.62005973  1
  Ni  Ni13  1  0.61558210  0.61595268  0.14811310  1
  Ni  Ni14  1  0.37964789  0.85188690  0.38404732  1
  Ni  Ni15  1  0.83089264  0.50611721  0.83132455  1
loop_
_geom_bond_atom_site_label_1
_geom_bond_atom_site_label_2
_geom_bond_distance
_geom_bond_site_symmetry_2
Nb0 Ni3 2.707505 1_554
Nb0 Ni2 2.707507 1_565
Nb0 Ni6 2.726348 1_555
Nb0 Ni5 2.726353 1_455
Nb0 Ni13 2.728375 1_555
Nb0 Ni14 2.728375 1_555
Nb0 Ni10 2.748343 1_555
Nb0 Ni11 2.748343 1_555
Nb0 Si4 2.816253 1_565
Nb0 Si5 2.839163 1_555
Nb0 Si6 2.840921 1_555
Nb0 Si3 2.840922 1_555
Nb0 Nb3 3.215971 1_564
Nb0 Nb1 3.262607 1_465
Nb0 Nb2 3.262611 1_554
Nb0 Zr0 3.263352 1_455
Nb1 Ni9 2.686674 1_555
Nb1 Ni2 2.700041 1_655
Nb1 Ni13 2.710583 1_555
Nb1 Ni7 2.710583 1_555
Nb1 Ni5 2.714167 1_545
Nb1 Ni15 2.714168 1_554
Nb1 Ni10 2.728377 1_555
Nb1 Ni1 2.737882 1_555
Nb1 Si2 2.840346 1_654
Nb1 Si3 2.840346 1_645
Nb1 Si6 2.861170 1_555
Nb1 Si1 2.861170 1_555
Nb1 Nb3 3.262607 1_654
Nb2 Ni12 2.686674 1_555
Nb2 Ni3 2.700041 1_555
Nb2 Ni8 2.710583 1_555
Nb2 Ni14 2.710583 1_555
Nb2 Ni0 2.714167 1_565
Nb2 Ni6 2.714167 1_556
Nb2 Ni11 2.728372 1_555
Nb2 Ni4 2.737882 1_455
Nb2 Si6 2.840346 1_556
Nb2 Si1 2.840346 1_565
Nb2 Si2 2.861158 1_555
Nb2 Si3 2.861159 1_555
Nb2 Nb3 3.262610 1_565
Nb3 Ni3 2.707504 1_545
Nb3 Ni2 2.707508 1_556
Nb3 Ni0 2.726349 1_555
Nb3 Ni15 2.726353 1_455
Nb3 Ni8 2.728375 1_555
Nb3 Ni7 2.728375 1_555
Nb3 Ni11 2.748343 1_555
Nb3 Ni10 2.748343 1_555
Nb3 Si4 2.816253 1_556
Nb3 Si5 2.839163 1_555
Nb3 Si1 2.840921 1_555
Nb3 Si2 2.840922 1_555
Nb3 Zr1 3.263352 1_455
Si1 Zr0 2.890169 1_545
Si2 Zr0 2.890168 1_456
Si3 Zr1 2.890168 1_465
Si4 Zr1 2.889744 1_554
Si4 Zr0 2.889744 1_545
Si5 Zr1 2.872704 1_455
Si5 Zr0 2.872704 1_455
Si6 Zr1 2.890169 1_554
Ni0 Si1 2.285300 1_555
Ni0 Si5 2.300898 1_555
Ni0 Si3 2.307474 1_545
Ni0 Ni9 2.532028 1_455
Ni0 Ni14 2.543105 1_545
Ni0 Ni10 2.559504 1_555
Ni0 Ni6 2.582546 1_555
Ni0 Ni2 2.585340 1_555
Ni0 Ni1 2.585644 1_555
Ni0 Zr1 2.711498 1_455
Ni1 Si6 2.300073 1_555
Ni1 Si1 2.300073 1_555
Ni1 Si4 2.319609 1_555
Ni1 Ni14 2.549845 1_545
Ni1 Ni8 2.549845 1_554
Ni1 Ni10 2.563339 1_555
Ni1 Ni2 2.580395 1_555
Ni1 Ni6 2.585644 1_555
Ni1 Zr0 2.730282 1_545
Ni1 Zr1 2.730282 1_554
Ni2 Si4 2.284766 1_555
Ni2 Si2 2.288607 1_554
Ni2 Si3 2.288608 1_545
Ni2 Ni9 2.516343 1_455
Ni2 Ni8 2.533804 1_554
Ni2 Ni6 2.585339 1_555
Ni3 Si4 2.284770 1_566
Ni3 Si6 2.288607 1_556
Ni3 Si1 2.288608 1_565
Ni3 Ni7 2.533808 1_565
Ni3 Ni4 2.580395 1_555
Ni3 Ni5 2.585340 1_555
Ni4 Si2 2.300078 1_655
Ni4 Si3 2.300078 1_655
Ni4 Si4 2.319605 1_566
Ni4 Ni7 2.549841 1_565
Ni4 Ni5 2.585644 1_555
Ni4 Zr1 2.730285 1_565
Ni4 Zr0 2.730285 1_556
Ni5 Si3 2.285314 1_655
Ni5 Si5 2.300898 1_655
Ni5 Si1 2.307474 1_565
Ni5 Ni7 2.543105 1_565
Ni5 Zr0 2.711493 1_555
Ni6 Si6 2.285300 1_555
Ni6 Si5 2.300898 1_555
Ni6 Si2 2.307474 1_554
Ni6 Ni9 2.532028 1_455
Ni6 Ni8 2.543105 1_554
Ni6 Zr0 2.711498 1_455
Ni7 Si0 2.285697 1_555
Ni7 Si1 2.454007 1_555
Ni7 Si4 2.497279 1_556
Ni7 Si3 2.520131 1_645
Ni7 Ni9 2.645277 1_555
Ni7 Ni8 2.661863 1_555
Ni7 Zr1 2.748557 1_555
Ni8 Si0 2.285697 1_555
Ni8 Si2 2.454000 1_555
Ni8 Si4 2.497279 1_556
Ni8 Si6 2.520125 1_556
Ni8 Zr1 2.748557 1_555
Ni9 Si0 2.280802 1_555
Ni9 Si3 2.494613 1_645
Ni9 Si2 2.494613 1_654
Ni9 Si5 2.553591 1_655
Ni9 Zr0 2.731691 1_555
Ni9 Zr1 2.731692 1_555
Ni10 Si0 2.291091 1_555
Ni10 Si5 2.453237 1_555
Ni10 Si1 2.473115 1_555
Ni10 Si6 2.473116 1_555
Ni10 Ni6 2.559504 1_555
Ni10 Ni13 2.607367 1_555
Ni10 Ni7 2.607367 1_555
Ni10 Ni11 2.625539 1_555
Ni11 Si0 2.291091 1_555
Ni11 Si5 2.453237 1_555
Ni11 Si3 2.473115 1_555
Ni11 Si2 2.473115 1_555
Ni11 Ni5 2.559511 1_455
Ni11 Ni15 2.559511 1_455
Ni11 Ni4 2.563341 1_455
Ni11 Ni14 2.607367 1_555
Ni11 Ni8 2.607367 1_555
Ni12 Si0 2.280796 1_555
Ni12 Si1 2.494613 1_565
Ni12 Si6 2.494613 1_556
Ni12 Ni3 2.516343 1_555
Ni12 Ni5 2.532028 1_555
Ni12 Ni15 2.532028 1_555
Ni12 Si5 2.553598 1_655
Ni12 Ni8 2.645271 1_555
Ni12 Ni14 2.645271 1_555
Ni12 Ni9 2.709082 1_555
Ni12 Zr1 2.731693 1_555
Ni12 Zr0 2.731693 1_555
Ni13 Si0 2.285697 1_555
Ni13 Si6 2.454007 1_555
Ni13 Si4 2.497279 1_565
Ni13 Si2 2.520131 1_654
Ni13 Ni3 2.533808 1_554
Ni13 Ni15 2.543105 1_554
Ni13 Ni4 2.549841 1_554
Ni13 Ni9 2.645277 1_555
Ni13 Ni14 2.661863 1_555
Ni13 Zr0 2.748557 1_555
Ni14 Si0 2.285697 1_555
Ni14 Si3 2.454000 1_555
Ni14 Si4 2.497279 1_565
Ni14 Si1 2.520125 1_565
Ni14 Ni2 2.533804 1_565
Ni14 Zr0 2.748557 1_555
Ni15 Si2 2.285314 1_655
Ni15 Si5 2.300898 1_655
Ni15 Si6 2.307474 1_556
Ni15 Ni5 2.582546 1_555
Ni15 Ni3 2.585339 1_555
Ni15 Ni4 2.585643 1_555
Ni15 Zr1 2.711493 1_555
