# generated using pymatgen
data_Cs3GaGe2O7
_symmetry_space_group_name_H-M   'P 1'
_cell_length_a   9.91894504
_cell_length_b   9.91894522
_cell_length_c   7.68476781
_cell_angle_alpha   73.11533656
_cell_angle_beta   73.11533719
_cell_angle_gamma   121.47727668
_symmetry_Int_Tables_number   1
_chemical_formula_structural   Cs3GaGe2O7
_chemical_formula_sum   'Cs6 Ga2 Ge4 O14'
_cell_volume   518.62893886
_cell_formula_units_Z   2
loop_
 _symmetry_equiv_pos_site_id
 _symmetry_equiv_pos_as_xyz
  1  'x, y, z'
loop_
 _atom_site_type_symbol
 _atom_site_label
 _atom_site_symmetry_multiplicity
 _atom_site_fract_x
 _atom_site_fract_y
 _atom_site_fract_z
 _atom_site_occupancy
  Cs  Cs0  1  0.59065053  0.98211591  0.73142258  1
  Cs  Cs1  1  0.01143002  0.98856998  0.75000000  1
  Cs  Cs2  1  0.98211591  0.59065053  0.23142258  1
  Cs  Cs3  1  0.98856998  0.01143002  0.25000000  1
  Cs  Cs4  1  0.01788409  0.40934947  0.76857742  1
  Cs  Cs5  1  0.40934947  0.01788409  0.26857742  1
  Ga  Ga0  1  0.44117613  0.55882387  0.75000000  1
  Ga  Ga1  1  0.55882387  0.44117613  0.25000000  1
  Ge  Ge0  1  0.76516990  0.56543656  0.75893674  1
  Ge  Ge1  1  0.43456344  0.23483010  0.74106326  1
  Ge  Ge2  1  0.56543656  0.76516990  0.25893674  1
  Ge  Ge3  1  0.23483010  0.43456344  0.24106326  1
  O  O0  1  0.66257633  0.66737648  0.74130045  1
  O  O1  1  0.66737648  0.66257633  0.24130045  1
  O  O2  1  0.51672610  0.26489115  0.48302280  1
  O  O3  1  0.33262352  0.33742367  0.75869955  1
  O  O4  1  0.00239699  0.27604655  0.44484139  1
  O  O5  1  0.48327390  0.73510885  0.51697720  1
  O  O6  1  0.27604655  0.00239699  0.94484139  1
  O  O7  1  0.26489115  0.51672610  0.98302280  1
  O  O8  1  0.35798266  0.64201734  0.25000000  1
  O  O9  1  0.33742367  0.33262352  0.25869955  1
  O  O10  1  0.72395345  0.99760301  0.05515861  1
  O  O11  1  0.64201734  0.35798266  0.75000000  1
  O  O12  1  0.99760301  0.72395345  0.55515861  1
  O  O13  1  0.73510885  0.48327390  0.01697720  1
loop_
_geom_bond_atom_site_label_1
_geom_bond_atom_site_label_2
_geom_bond_distance
_geom_bond_site_symmetry_2
Cs0 O4 2.939488 1_665
Cs0 O10 3.143552 1_556
Cs0 O6 3.215952 1_565
Cs0 O5 3.239252 1_555
Cs0 O7 3.331287 1_555
Cs0 O8 3.362345 1_556
Cs0 O2 3.449540 1_565
Cs0 O0 3.532796 1_555
Cs0 O11 3.542199 1_565
Cs1 O10 3.184768 1_456
Cs1 O4 3.184768 1_565
Cs1 O1 3.202544 1_456
Cs1 O9 3.202544 1_565
Cs1 O0 3.297469 1_455
Cs1 O3 3.297469 1_565
Cs1 O6 3.343076 1_565
Cs1 O12 3.343076 1_455
Cs2 O6 2.939488 1_664
Cs2 O12 3.143552 1_555
Cs2 O4 3.215952 1_655
Cs2 O13 3.239252 1_555
Cs2 O2 3.331287 1_555
Cs2 O11 3.362345 1_555
Cs2 O7 3.449540 1_654
Cs2 O1 3.532796 1_555
Cs2 O8 3.542199 1_655
Cs3 O6 3.184768 1_654
Cs3 O12 3.184768 1_545
Cs3 O3 3.202544 1_654
Cs3 O0 3.202544 1_545
Cs3 O9 3.297469 1_655
Cs3 O1 3.297469 1_545
Cs3 O10 3.343076 1_545
Cs3 O4 3.343076 1_655
Cs4 O10 2.939488 1_446
Cs4 O4 3.143552 1_555
Cs4 O12 3.215952 1_455
Cs4 O7 3.239252 1_555
Cs4 O5 3.331287 1_555
Cs4 O8 3.362345 1_555
Cs4 O13 3.449540 1_456
Cs4 O3 3.532796 1_555
Cs4 O11 3.542199 1_455
Cs5 O12 2.939488 1_445
Cs5 O6 3.143552 1_554
Cs5 O10 3.215952 1_545
Cs5 O2 3.239252 1_555
Cs5 O13 3.331287 1_555
Cs5 O11 3.362345 1_554
Cs5 O5 3.449540 1_545
Cs5 O9 3.532796 1_555
Cs5 O8 3.542199 1_545
Ga0 O0 1.841202 1_555
Ga0 O3 1.841202 1_555
Ga0 O7 1.850076 1_555
Ga0 O5 1.850076 1_555
Ga1 O9 1.841202 1_555
Ga1 O1 1.841202 1_555
Ga1 O13 1.850076 1_555
Ga1 O2 1.850076 1_555
Ge0 O12 1.710742 1_555
Ge0 O13 1.774626 1_556
Ge0 O0 1.775214 1_555
Ge0 O11 1.799147 1_555
Ge1 O6 1.710742 1_555
Ge1 O2 1.774626 1_555
Ge1 O3 1.775214 1_555
Ge1 O11 1.799147 1_555
Ge2 O10 1.710742 1_555
Ge2 O5 1.774626 1_555
Ge2 O1 1.775214 1_555
Ge2 O8 1.799147 1_555
Ge3 O4 1.710742 1_555
Ge3 O7 1.774626 1_554
Ge3 O9 1.775214 1_555
Ge3 O8 1.799147 1_555
