# generated using pymatgen
data_Cd3P7PbN12
_symmetry_space_group_name_H-M   'P 1'
_cell_length_a   7.40612101
_cell_length_b   7.40927523
_cell_length_c   7.40927593
_cell_angle_alpha   109.47983617
_cell_angle_beta   109.46260004
_cell_angle_gamma   109.46260117
_symmetry_Int_Tables_number   1
_chemical_formula_structural   Cd3P7PbN12
_chemical_formula_sum   'Cd3 P7 Pb1 N12'
_cell_volume   313.01605692
_cell_formula_units_Z   1
loop_
 _symmetry_equiv_pos_site_id
 _symmetry_equiv_pos_as_xyz
  1  'x, y, z'
loop_
 _atom_site_type_symbol
 _atom_site_label
 _atom_site_symmetry_multiplicity
 _atom_site_fract_x
 _atom_site_fract_y
 _atom_site_fract_z
 _atom_site_occupancy
  Cd  Cd0  1  0.99254642  0.00000000  0.65574921  1
  Cd  Cd1  1  0.99254642  0.65574921  0.00000000  1
  Cd  Cd2  1  0.33679621  0.34425079  0.34425079  1
  P  P0  1  0.24505168  0.74935083  0.49807167  1
  P  P1  1  0.74698001  0.25127916  0.50192833  1
  P  P2  1  0.74698001  0.50192833  0.25127916  1
  P  P3  1  0.24505168  0.49807167  0.74935083  1
  P  P4  1  0.49570086  0.74872084  0.25064917  1
  P  P5  1  0.49570086  0.25064917  0.74872084  1
  P  P6  1  0.05415343  0.00000000  0.00000000  1
  Pb  Pb0  1  0.68032817  1.00000000  1.00000000  1
  N  N0  1  0.70841271  0.29225246  0.29225246  1
  N  N1  1  0.28508692  0.70659448  0.28843701  1
  N  N2  1  0.29209191  0.58465162  0.58465162  1
  N  N3  1  0.57849244  0.58184253  0.29340552  1
  N  N4  1  0.41616024  0.70774754  1.00000000  1
  N  N5  1  0.99664991  0.71156299  0.41815747  1
  N  N6  1  0.57849244  0.29340552  0.58184253  1
  N  N7  1  0.70744030  1.00000000  0.41534838  1
  N  N8  1  0.41616024  0.00000000  0.70774754  1
  N  N9  1  0.70744030  0.41534838  1.00000000  1
  N  N10  1  0.28508692  0.28843701  0.70659448  1
  N  N11  1  0.99664991  0.41815747  0.71156299  1
loop_
_geom_bond_atom_site_label_1
_geom_bond_atom_site_label_2
_geom_bond_distance
_geom_bond_site_symmetry_2
Cd0 N7 2.263829 1_545
Cd0 N10 2.288424 1_655
Cd0 N5 2.288424 1_545
Cd0 P6 2.436897 1_656
Cd1 N9 2.263829 1_554
Cd1 N1 2.288424 1_655
Cd1 N11 2.288424 1_554
Cd1 P6 2.436897 1_665
Cd2 N2 2.263824 1_555
Cd2 N3 2.288428 1_555
Cd2 N6 2.288428 1_555
Cd2 P6 2.436896 1_555
P6 Pb0 2.768595 1_444
N0 P2 1.632142 1_555
N0 P1 1.632142 1_555
N0 Pb0 2.386103 1_544
N1 P4 1.622886 1_555
N1 P0 1.625468 1_555
N2 P0 1.636612 1_555
N2 P3 1.636612 1_555
N3 P2 1.622886 1_555
N3 P4 1.625468 1_555
N4 P3 1.632142 1_555
N4 P4 1.632142 1_556
N4 Pb0 2.386102 1_555
N5 P0 1.622886 1_655
N5 P2 1.625468 1_555
N6 P1 1.622886 1_555
N6 P5 1.625468 1_555
N7 P4 1.636612 1_555
N7 P1 1.636612 1_565
N8 P5 1.632142 1_555
N8 P0 1.632142 1_545
N8 Pb0 2.386102 1_545
N9 P5 1.636612 1_555
N9 P2 1.636612 1_556
N10 P5 1.622886 1_555
N10 P3 1.625468 1_555
N11 P3 1.622886 1_655
N11 P1 1.625468 1_555
