# generated using pymatgen
data_Rb2Mg(GeO3)2
_symmetry_space_group_name_H-M   'P 1'
_cell_length_a   5.96285922
_cell_length_b   5.96285953
_cell_length_c   11.00496382
_cell_angle_alpha   90.00000000
_cell_angle_beta   90.00000000
_cell_angle_gamma   112.19244158
_symmetry_Int_Tables_number   1
_chemical_formula_structural   Rb2Mg(GeO3)2
_chemical_formula_sum   'Rb4 Mg2 Ge4 O12'
_cell_volume   362.30257126
_cell_formula_units_Z   2
loop_
 _symmetry_equiv_pos_site_id
 _symmetry_equiv_pos_as_xyz
  1  'x, y, z'
loop_
 _atom_site_type_symbol
 _atom_site_label
 _atom_site_symmetry_multiplicity
 _atom_site_fract_x
 _atom_site_fract_y
 _atom_site_fract_z
 _atom_site_occupancy
  Rb  Rb0  1  0.77988199  0.42900746  0.92285832  1
  Rb  Rb1  1  0.57099254  0.22011801  0.57714168  1
  Rb  Rb2  1  0.22011801  0.57099254  0.42285832  1
  Rb  Rb3  1  0.42900746  0.77988199  0.07714168  1
  Mg  Mg0  1  0.69016634  0.30983366  0.25000000  1
  Mg  Mg1  1  0.30983366  0.69016634  0.75000000  1
  Ge  Ge0  1  0.82951186  0.86402486  0.36115579  1
  Ge  Ge1  1  0.13597514  0.17048814  0.13884421  1
  Ge  Ge2  1  0.17048814  0.13597514  0.86115579  1
  Ge  Ge3  1  0.86402486  0.82951186  0.63884421  1
  O  O0  1  0.62418585  0.99771408  0.33042253  1
  O  O1  1  0.55091697  0.70943194  0.62722256  1
  O  O2  1  0.70943194  0.55091697  0.37277744  1
  O  O3  1  0.37581415  0.00228592  0.83042253  1
  O  O4  1  0.98929830  0.98929830  0.50000000  1
  O  O5  1  0.44908303  0.29056806  0.12722256  1
  O  O6  1  0.06346172  0.93653828  0.25000000  1
  O  O7  1  0.29056806  0.44908303  0.87277744  1
  O  O8  1  0.01070170  0.01070170  0.00000000  1
  O  O9  1  0.93653828  0.06346172  0.75000000  1
  O  O10  1  0.00228592  0.37581415  0.16957747  1
  O  O11  1  0.99771408  0.62418585  0.66957747  1
loop_
_geom_bond_atom_site_label_1
_geom_bond_atom_site_label_2
_geom_bond_distance
_geom_bond_site_symmetry_2
Mg0 O5 1.944381 1_555
Mg0 O2 1.944381 1_555
Mg0 O10 1.961819 1_655
Mg0 O0 1.961819 1_545
Mg1 O1 1.944381 1_555
Mg1 O7 1.944381 1_555
Mg1 O11 1.961819 1_455
Mg1 O3 1.961819 1_565
Ge0 O0 1.728052 1_555
Ge0 O2 1.733469 1_555
Ge0 O6 1.781494 1_655
Ge0 O4 1.806333 1_555
Ge1 O10 1.728052 1_555
Ge1 O5 1.733469 1_555
Ge1 O6 1.781494 1_545
Ge1 O8 1.806333 1_555
Ge2 O3 1.728052 1_555
Ge2 O7 1.733469 1_555
Ge2 O9 1.781494 1_455
Ge2 O8 1.806333 1_556
Ge3 O11 1.728052 1_555
Ge3 O1 1.733469 1_555
Ge3 O9 1.781494 1_565
Ge3 O4 1.806333 1_555
O0 Rb2 2.946702 1_555
O0 Rb1 3.090152 1_565
O0 Rb3 3.109492 1_555
O1 Rb2 2.898318 1_555
O1 Rb1 3.015787 1_555
O1 Rb1 3.052153 1_565
O2 Rb1 2.898318 1_555
O2 Rb2 3.015787 1_555
O2 Rb2 3.052153 1_655
O3 Rb0 2.946702 1_555
O3 Rb3 3.090152 1_546
O3 Rb1 3.109492 1_555
O4 Rb1 3.322579 1_665
O4 Rb2 3.322579 1_665
O4 Rb1 3.380826 1_565
O4 Rb2 3.380826 1_655
O5 Rb0 2.898318 1_554
O5 Rb3 3.015787 1_555
O5 Rb3 3.052153 1_545
O6 Rb3 3.283375 1_555
O6 Rb2 3.283375 1_555
O7 Rb3 2.898318 1_556
O7 Rb0 3.015787 1_555
O7 Rb0 3.052153 1_455
O8 Rb3 3.322579 1_445
O8 Rb0 3.322579 1_444
O8 Rb3 3.380826 1_545
O8 Rb0 3.380826 1_454
O9 Rb1 3.283375 1_555
O9 Rb0 3.283375 1_555
O10 Rb3 2.946702 1_555
O10 Rb0 3.090152 1_454
O10 Rb2 3.109492 1_555
O11 Rb1 2.946702 1_555
O11 Rb2 3.090152 1_655
O11 Rb0 3.109492 1_555
