# generated using pymatgen
data_KBa3IrO6
_symmetry_space_group_name_H-M   'P 1'
_cell_length_a   7.22668661
_cell_length_b   7.22668600
_cell_length_c   7.22668631
_cell_angle_alpha   89.32503991
_cell_angle_beta   89.32504253
_cell_angle_gamma   89.32503751
_symmetry_Int_Tables_number   1
_chemical_formula_structural   KBa3IrO6
_chemical_formula_sum   'K2 Ba6 Ir2 O12'
_cell_volume   377.33570502
_cell_formula_units_Z   2
loop_
 _symmetry_equiv_pos_site_id
 _symmetry_equiv_pos_as_xyz
  1  'x, y, z'
loop_
 _atom_site_type_symbol
 _atom_site_label
 _atom_site_symmetry_multiplicity
 _atom_site_fract_x
 _atom_site_fract_y
 _atom_site_fract_z
 _atom_site_occupancy
  K  K0  1  0.25000000  0.25000000  0.25000000  1
  K  K1  1  0.75000000  0.75000000  0.75000000  1
  Ba  Ba0  1  0.10823453  0.75000000  0.39176547  1
  Ba  Ba1  1  0.39176547  0.10823453  0.75000000  1
  Ba  Ba2  1  0.89176547  0.25000000  0.60823453  1
  Ba  Ba3  1  0.60823453  0.89176547  0.25000000  1
  Ba  Ba4  1  0.75000000  0.39176547  0.10823453  1
  Ba  Ba5  1  0.25000000  0.60823453  0.89176547  1
  Ir  Ir0  1  0.00000000  0.00000000  0.00000000  1
  Ir  Ir1  1  0.50000000  0.50000000  0.50000000  1
  O  O0  1  0.43637938  0.76270035  0.57222353  1
  O  O1  1  0.57222353  0.43637938  0.76270035  1
  O  O2  1  0.76270035  0.57222353  0.43637938  1
  O  O3  1  0.06362062  0.92777647  0.73729965  1
  O  O4  1  0.73729965  0.06362062  0.92777647  1
  O  O5  1  0.92777647  0.73729965  0.06362062  1
  O  O6  1  0.56362062  0.23729965  0.42777647  1
  O  O7  1  0.42777647  0.56362062  0.23729965  1
  O  O8  1  0.23729965  0.42777647  0.56362062  1
  O  O9  1  0.93637938  0.07222353  0.26270035  1
  O  O10  1  0.07222353  0.26270035  0.93637938  1
  O  O11  1  0.26270035  0.93637938  0.07222353  1
loop_
_geom_bond_atom_site_label_1
_geom_bond_atom_site_label_2
_geom_bond_distance
_geom_bond_site_symmetry_2
K0 O11 2.618517 1_545
K0 O10 2.618517 1_554
K0 O8 2.618517 1_555
K0 O7 2.618517 1_555
K0 O6 2.618517 1_555
K0 O9 2.618517 1_455
K1 O4 2.618517 1_565
K1 O5 2.618517 1_556
K1 O2 2.618517 1_555
K1 O1 2.618517 1_555
K1 O0 2.618517 1_555
K1 O3 2.618517 1_655
Ba0 O5 2.722771 1_455
Ba0 O0 2.722771 1_555
Ba0 O9 2.782585 1_465
Ba0 O8 2.782585 1_555
Ba0 O3 2.834906 1_555
Ba0 O2 2.834906 1_455
Ba0 O7 2.879962 1_555
Ba0 O11 2.879962 1_555
Ba1 O1 2.722771 1_555
Ba1 O3 2.722771 1_545
Ba1 O11 2.782585 1_546
Ba1 O6 2.782585 1_555
Ba1 O0 2.834906 1_545
Ba1 O4 2.834906 1_555
Ba1 O8 2.879961 1_555
Ba1 O10 2.879962 1_555
Ba2 O10 2.722771 1_655
Ba2 O6 2.722771 1_555
Ba2 O3 2.782585 1_645
Ba2 O2 2.782585 1_555
Ba2 O9 2.834906 1_555
Ba2 O8 2.834906 1_655
Ba2 O1 2.879962 1_555
Ba2 O4 2.879962 1_555
Ba3 O7 2.722771 1_555
Ba3 O9 2.722771 1_565
Ba3 O4 2.782585 1_564
Ba3 O0 2.782585 1_555
Ba3 O6 2.834906 1_565
Ba3 O11 2.834906 1_555
Ba3 O2 2.879961 1_555
Ba3 O5 2.879962 1_555
Ba4 O4 2.722771 1_554
Ba4 O2 2.722771 1_555
Ba4 O7 2.782585 1_555
Ba4 O10 2.782585 1_654
Ba4 O1 2.834906 1_554
Ba4 O5 2.834906 1_555
Ba4 O9 2.879961 1_555
Ba4 O6 2.879962 1_555
Ba5 O11 2.722771 1_556
Ba5 O8 2.722771 1_555
Ba5 O1 2.782585 1_555
Ba5 O5 2.782585 1_456
Ba5 O7 2.834906 1_556
Ba5 O10 2.834906 1_555
Ba5 O3 2.879961 1_555
Ba5 O0 2.879962 1_555
Ir0 O10 2.021152 1_554
Ir0 O5 2.021152 1_445
Ir0 O3 2.021152 1_544
Ir0 O9 2.021152 1_455
Ir0 O11 2.021152 1_545
Ir0 O4 2.021152 1_454
Ir1 O0 2.021152 1_555
Ir1 O6 2.021152 1_555
Ir1 O1 2.021152 1_555
Ir1 O7 2.021152 1_555
Ir1 O2 2.021152 1_555
Ir1 O8 2.021152 1_555
