# generated using pymatgen
data_Ti13Al9(Ir3Os)2
_symmetry_space_group_name_H-M   'P 1'
_cell_length_a   8.71605143
_cell_length_b   8.71605032
_cell_length_c   8.71605134
_cell_angle_alpha   59.63145910
_cell_angle_beta   59.63145899
_cell_angle_gamma   59.63146746
_symmetry_Int_Tables_number   1
_chemical_formula_structural   Ti13Al9(Ir3Os)2
_chemical_formula_sum   'Ti13 Al9 Ir6 Os2'
_cell_volume   464.29267990
_cell_formula_units_Z   1
loop_
 _symmetry_equiv_pos_site_id
 _symmetry_equiv_pos_as_xyz
  1  'x, y, z'
loop_
 _atom_site_type_symbol
 _atom_site_label
 _atom_site_symmetry_multiplicity
 _atom_site_fract_x
 _atom_site_fract_y
 _atom_site_fract_z
 _atom_site_occupancy
  Ti  Ti0  1  0.21301493  0.21301493  0.78951361  1
  Ti  Ti1  1  0.78951361  0.21301493  0.21301493  1
  Ti  Ti2  1  0.21301493  0.78951361  0.21301493  1
  Ti  Ti3  1  0.79784200  0.79784200  0.18293935  1
  Ti  Ti4  1  0.18293935  0.79784200  0.79784200  1
  Ti  Ti5  1  0.79784200  0.18293935  0.79784200  1
  Ti  Ti6  1  0.37862607  0.37862607  0.37862607  1
  Ti  Ti7  1  0.37980636  0.86617963  0.37980636  1
  Ti  Ti8  1  0.86617963  0.37980636  0.37980636  1
  Ti  Ti9  1  0.37980636  0.37980636  0.86617963  1
  Ti  Ti10  1  0.84655932  0.46336850  0.84655932  1
  Ti  Ti11  1  0.46336850  0.84655932  0.84655932  1
  Ti  Ti12  1  0.84655932  0.84655932  0.46336850  1
  Al  Al0  1  0.15272317  0.15272317  0.15272317  1
  Al  Al1  1  0.15687974  0.53691963  0.15687974  1
  Al  Al2  1  0.53691963  0.15687974  0.15687974  1
  Al  Al3  1  0.15687974  0.15687974  0.53691963  1
  Al  Al4  1  0.61938174  0.61938174  0.61938174  1
  Al  Al5  1  0.61973690  0.14261315  0.61973690  1
  Al  Al6  1  0.14261315  0.61973690  0.61973690  1
  Al  Al7  1  0.61973690  0.61973690  0.14261315  1
  Al  Al8  1  0.82719787  0.82719787  0.82719787  1
  Ir  Ir0  1  0.00444960  0.00444960  0.49941120  1
  Ir  Ir1  1  0.49941120  0.00444960  0.00444960  1
  Ir  Ir2  1  0.00444960  0.49941120  0.00444960  1
  Ir  Ir3  1  0.49955359  0.49955359  0.00165839  1
  Ir  Ir4  1  0.00165839  0.49955359  0.49955359  1
  Ir  Ir5  1  0.49955359  0.00165839  0.49955359  1
  Os  Os0  1  0.50044601  0.50044601  0.50044601  1
  Os  Os1  1  0.00333377  0.00333377  0.00333377  1
loop_
_geom_bond_atom_site_label_1
_geom_bond_atom_site_label_2
_geom_bond_distance
_geom_bond_site_symmetry_2
Al0 Ir0 2.502579 1_555
Al0 Ir2 2.502579 1_555
Al0 Ir1 2.502579 1_555
Al1 Ir4 2.496677 1_555
Al1 Ir3 2.496677 1_555
Al1 Ir2 2.510043 1_555
Al2 Ir3 2.496676 1_555
Al2 Ir5 2.496677 1_555
Al2 Ir1 2.510042 1_555
Al3 Ir4 2.496677 1_555
Al3 Ir5 2.496677 1_555
Al3 Ir0 2.510042 1_555
Al4 Os0 2.546313 1_555
Al4 Ir5 2.710926 1_565
Al4 Ir3 2.710926 1_556
Al4 Ir4 2.710926 1_655
Al5 Os0 2.534735 1_555
Al5 Ir5 2.723240 1_555
Al5 Ir1 2.726200 1_556
Al5 Ir0 2.726200 1_655
Al6 Os0 2.534735 1_555
Al6 Ir4 2.723240 1_555
Al6 Ir0 2.726200 1_565
Al6 Ir2 2.726200 1_556
Al7 Os0 2.534735 1_555
Al7 Ir3 2.723240 1_555
Al7 Ir1 2.726200 1_565
Al7 Ir2 2.726200 1_655
Al8 Ir0 2.534473 1_665
Al8 Ir2 2.534473 1_656
Al8 Ir1 2.534473 1_566
Ir0 Ti12 2.583724 1_445
Ir0 Ti8 2.660421 1_455
Ir0 Ti7 2.660422 1_545
Ir0 Ti5 2.991959 1_455
Ir0 Ti4 2.991959 1_545
Ir0 Ti2 3.121246 1_545
Ir0 Ti1 3.121246 1_455
Ir1 Ti11 2.583724 1_544
Ir1 Ti9 2.660421 1_554
Ir1 Ti7 2.660421 1_545
Ir1 Ti5 2.991958 1_554
Ir1 Ti3 2.991959 1_545
Ir1 Ti2 3.121246 1_545
Ir1 Ti0 3.121246 1_554
Ir2 Ti10 2.583724 1_454
Ir2 Ti8 2.660421 1_455
Ir2 Ti9 2.660422 1_554
Ir2 Ti4 2.991958 1_554
Ir2 Ti3 2.991959 1_455
Ir2 Ti1 3.121246 1_455
Ir2 Ti0 3.121246 1_554
Ir3 Ti11 2.531227 1_554
Ir3 Ti10 2.531228 1_554
Ir3 Ti6 2.671612 1_555
Ir3 Ti9 2.677110 1_554
Ir4 Ti12 2.531228 1_455
Ir4 Ti10 2.531228 1_455
Ir4 Ti6 2.671612 1_555
Ir4 Ti8 2.677110 1_455
Ir5 Ti11 2.531228 1_545
Ir5 Ti12 2.531228 1_545
Ir5 Ti6 2.671612 1_555
Ir5 Ti7 2.677110 1_545
Os0 Ti7 2.590874 1_555
Os0 Ti9 2.590874 1_555
Os0 Ti8 2.590874 1_555
Os0 Ti6 2.608061 1_555
Os1 Ti3 2.537742 1_445
Os1 Ti4 2.537742 1_544
Os1 Ti5 2.537742 1_454
Os1 Ti0 2.577377 1_554
Os1 Ti1 2.577378 1_455
Os1 Ti2 2.577378 1_545
