# generated using pymatgen
data_Sc6NiI10
_symmetry_space_group_name_H-M   'P 1'
_cell_length_a   7.28813264
_cell_length_b   9.26653864
_cell_length_c   9.26899611
_cell_angle_alpha   107.00600917
_cell_angle_beta   96.80282068
_cell_angle_gamma   104.38892562
_symmetry_Int_Tables_number   1
_chemical_formula_structural   Sc6NiI10
_chemical_formula_sum   'Sc6 Ni1 I10'
_cell_volume   567.36032954
_cell_formula_units_Z   1
loop_
 _symmetry_equiv_pos_site_id
 _symmetry_equiv_pos_as_xyz
  1  'x, y, z'
loop_
 _atom_site_type_symbol
 _atom_site_label
 _atom_site_symmetry_multiplicity
 _atom_site_fract_x
 _atom_site_fract_y
 _atom_site_fract_z
 _atom_site_occupancy
  Sc  Sc0  1  0.33552425  0.11791372  0.15706275  1
  Sc  Sc1  1  0.66447575  0.88208628  0.84293725  1
  Sc  Sc2  1  0.96830695  0.27148994  0.07918134  1
  Sc  Sc3  1  0.03169305  0.72851006  0.92081866  1
  Sc  Sc4  1  0.89092685  0.96181397  0.23175285  1
  Sc  Sc5  1  0.10907315  0.03818603  0.76824715  1
  Ni  Ni0  1  0.00000000  0.00000000  0.00000000  1
  I  I0  1  0.34521993  0.44433244  0.26952536  1
  I  I1  1  0.65478007  0.55566756  0.73047464  1
  I  I2  1  0.78066721  0.25630902  0.34300531  1
  I  I3  1  0.21933279  0.74369098  0.65699469  1
  I  I4  1  0.54495275  0.18320769  0.90517598  1
  I  I5  1  0.45504725  0.81679231  0.09482402  1
  I  I6  1  0.74202590  0.91275379  0.54358611  1
  I  I7  1  0.25797410  0.08724621  0.45641389  1
  I  I8  1  0.91366480  0.63339968  0.17977819  1
  I  I9  1  0.08633520  0.36660032  0.82022181  1
loop_
_geom_bond_atom_site_label_1
_geom_bond_atom_site_label_2
_geom_bond_distance
_geom_bond_site_symmetry_2
Ni0 Sc4 2.465950 1_445
Ni0 Sc5 2.465950 1_554
Ni0 Sc2 2.483958 1_455
Ni0 Sc3 2.483958 1_544
Ni0 Sc0 2.488211 1_555
Ni0 Sc1 2.488211 1_444
I0 Sc2 2.869881 1_455
I0 Sc0 2.876251 1_555
I1 Sc3 2.869881 1_655
I1 Sc1 2.876251 1_555
I2 Sc2 2.961035 1_555
I2 Sc4 2.965877 1_545
I2 Sc0 3.233413 1_555
I3 Sc3 2.961035 1_555
I3 Sc5 2.965877 1_565
I3 Sc1 3.233413 1_555
I4 Sc1 3.043550 1_545
I4 Sc0 3.059144 1_556
I4 Sc5 3.071465 1_555
I4 Sc2 3.096026 1_556
I5 Sc0 3.043550 1_565
I5 Sc1 3.059144 1_554
I5 Sc4 3.071465 1_555
I5 Sc3 3.096026 1_554
I6 Sc5 2.926187 1_665
I6 Sc1 2.975233 1_555
I6 Sc4 3.317406 1_555
I7 Sc4 2.926187 1_445
I7 Sc0 2.975233 1_555
I7 Sc5 3.317406 1_555
I8 Sc3 2.937334 1_654
I8 Sc4 2.988809 1_555
I8 Sc2 3.346281 1_555
I9 Sc2 2.937334 1_456
I9 Sc5 2.988809 1_555
I9 Sc3 3.346281 1_555
