# generated using pymatgen
data_VNi2PdPt5
_symmetry_space_group_name_H-M   'P 1'
_cell_length_a   5.96188807
_cell_length_b   5.96188739
_cell_length_c   6.09485720
_cell_angle_alpha   95.86941423
_cell_angle_beta   95.86940932
_cell_angle_gamma   142.27113518
_symmetry_Int_Tables_number   1
_chemical_formula_structural   VNi2PdPt5
_chemical_formula_sum   'V1 Ni2 Pd1 Pt5'
_cell_volume   125.76032173
_cell_formula_units_Z   1
loop_
 _symmetry_equiv_pos_site_id
 _symmetry_equiv_pos_as_xyz
  1  'x, y, z'
loop_
 _atom_site_type_symbol
 _atom_site_label
 _atom_site_symmetry_multiplicity
 _atom_site_fract_x
 _atom_site_fract_y
 _atom_site_fract_z
 _atom_site_occupancy
  V  V0  1  0.99872891  0.00127109  0.00000000  1
  Ni  Ni0  1  0.33627376  0.33566954  0.67194331  1
  Ni  Ni1  1  0.66433046  0.66372624  0.32805669  1
  Pd  Pd0  1  0.65772365  0.34227635  0.00000000  1
  Pt  Pt0  1  0.34591367  0.65408632  1.00000000  1
  Pt  Pt1  1  0.01042965  0.32320255  0.33363219  1
  Pt  Pt2  1  0.98926363  0.67946118  0.66872481  1
  Pt  Pt3  1  0.67679745  0.98957035  0.66636781  1
  Pt  Pt4  1  0.32053882  0.01073637  0.33127519  1
loop_
_geom_bond_atom_site_label_1
_geom_bond_atom_site_label_2
_geom_bond_distance
_geom_bond_site_symmetry_2
Ni0 Pt0 2.575371 1_555
Ni0 Pd0 2.598642 1_556
Ni0 Pt2 2.599827 1_445
Ni0 Pt2 2.599828 1_555
Ni0 Pt3 2.615837 1_555
Ni0 Pt3 2.615837 1_445
Ni0 Pt4 2.631115 1_555
Ni0 Pt1 2.636679 1_555
Ni0 V0 2.704461 1_456
Ni0 V0 2.704461 1_566
Ni0 Ni1 2.769367 1_555
Ni0 Ni1 2.769368 1_445
Ni1 Pt0 2.575371 1_554
Ni1 Pd0 2.598642 1_555
Ni1 Pt4 2.599827 1_555
Ni1 Pt4 2.599828 1_665
Ni1 Pt1 2.615837 1_665
Ni1 Pt1 2.615837 1_555
Ni1 Pt2 2.631116 1_555
Ni1 Pt3 2.636678 1_555
Ni1 V0 2.704461 1_565
Ni1 V0 2.704461 1_455
Pd0 V0 2.633296 1_565
Pd0 V0 2.633297 1_455
Pd0 Pt2 2.717673 1_554
Pd0 Pt4 2.717673 1_555
Pd0 Pt4 2.717674 1_665
Pd0 Pt2 2.717674 1_444
Pd0 Pt3 2.849662 1_544
Pd0 Pt1 2.849662 1_655
Pd0 Pt0 2.867876 1_544
Pd0 Pt0 2.867877 1_654
Pt0 V0 2.586298 1_456
Pt0 V0 2.586299 1_566
Pt0 Pt3 2.727233 1_555
Pt0 Pt1 2.727233 1_556
Pt0 Pt1 2.727234 1_666
Pt0 Pt3 2.727234 1_445
Pt0 Pt4 2.883398 1_566
Pt0 Pt2 2.883398 1_455
Pt1 V0 2.604710 1_455
Pt1 Pt3 2.723445 1_445
Pt1 Pt3 2.723446 1_555
Pt1 Pt4 2.872274 1_565
Pt1 Pt4 2.872275 1_455
Pt1 Pt2 2.878859 1_455
Pt2 V0 2.602693 1_566
Pt2 Pt4 2.742767 1_665
Pt2 Pt4 2.742768 1_555
Pt2 Pt3 2.872274 1_545
Pt2 Pt3 2.872275 1_655
Pt3 V0 2.604710 1_566
Pt3 Pt4 2.878859 1_565
Pt4 V0 2.602693 1_455
