# generated using pymatgen
data_Ba4Na(BeP)10
_symmetry_space_group_name_H-M   'P 1'
_cell_length_a   8.78013894
_cell_length_b   8.77780901
_cell_length_c   8.78442236
_cell_angle_alpha   123.75351197
_cell_angle_beta   123.84027677
_cell_angle_gamma   83.48787633
_symmetry_Int_Tables_number   1
_chemical_formula_structural   Ba4Na(BeP)10
_chemical_formula_sum   'Ba4 Na1 Be10 P10'
_cell_volume   448.31272531
_cell_formula_units_Z   1
loop_
 _symmetry_equiv_pos_site_id
 _symmetry_equiv_pos_as_xyz
  1  'x, y, z'
loop_
 _atom_site_type_symbol
 _atom_site_label
 _atom_site_symmetry_multiplicity
 _atom_site_fract_x
 _atom_site_fract_y
 _atom_site_fract_z
 _atom_site_occupancy
  Ba  Ba0  1  0.38423395  0.80398462  0.18822496  1
  Ba  Ba1  1  0.80392805  0.61565372  0.41962062  1
  Ba  Ba2  1  0.19607078  0.38434702  0.58037884  1
  Ba  Ba3  1  0.61576646  0.19601421  0.81177472  1
  Na  Na0  1  0.99999974  0.99999913  0.00000057  1
  Be  Be0  1  0.94992656  0.64996870  0.09977749  1
  Be  Be1  1  0.35032012  0.45011378  0.30017412  1
  Be  Be2  1  0.74994253  0.25004571  0.49985728  1
  Be  Be3  1  0.14975253  0.05016969  0.69959750  1
  Be  Be4  1  0.54993676  0.85019233  0.90000375  1
  Be  Be5  1  0.64968012  0.54988532  0.69982673  1
  Be  Be6  1  0.05007387  0.35003202  0.90022329  1
  Be  Be7  1  0.45006266  0.14980723  0.09999632  1
  Be  Be8  1  0.85024859  0.94983077  0.30040308  1
  Be  Be9  1  0.25005714  0.74995415  0.50014296  1
  P  P0  1  0.94425157  0.54651772  0.79991208  1
  P  P1  1  0.34585972  0.34581241  0.99991156  1
  P  P2  1  0.74658858  0.14431165  0.19997438  1
  P  P3  1  0.14430472  0.94428543  0.39765535  1
  P  P4  1  0.54664930  0.74662834  0.60226450  1
  P  P5  1  0.65414112  0.65418539  0.00008679  1
  P  P6  1  0.05575053  0.45348598  0.20008819  1
  P  P7  1  0.45335004  0.25337060  0.39773516  1
  P  P8  1  0.85569560  0.05571507  0.60234550  1
  P  P9  1  0.25341094  0.85568800  0.80002525  1
loop_
_geom_bond_atom_site_label_1
_geom_bond_atom_site_label_2
_geom_bond_distance
_geom_bond_site_symmetry_2
Ba0 P9 3.223846 1_554
Ba0 P0 3.225518 1_454
Ba0 P7 3.247641 1_565
Ba0 P3 3.247977 1_555
Ba0 P5 3.364051 1_555
Ba0 P1 3.364236 1_554
Ba0 P4 3.407474 1_555
Ba0 P8 3.409126 1_565
Ba1 P4 3.224360 1_555
Ba1 P8 3.224864 1_565
Ba1 P0 3.247350 1_555
Ba1 P9 3.248842 1_655
Ba1 P5 3.363329 1_555
Ba1 P1 3.364607 1_554
Ba1 P2 3.407878 1_555
Ba1 P6 3.408593 1_655
Ba2 P7 3.224363 1_555
Ba2 P3 3.224869 1_545
Ba2 P6 3.247368 1_555
Ba2 P2 3.248840 1_455
Ba2 P1 3.363333 1_555
Ba2 P5 3.364612 1_556
Ba2 P9 3.407869 1_555
Ba2 P0 3.408573 1_455
Ba3 P2 3.223842 1_556
Ba3 P6 3.225539 1_656
Ba3 P4 3.247640 1_545
Ba3 P8 3.247969 1_555
Ba3 P1 3.364039 1_555
Ba3 P5 3.364230 1_556
Ba3 P7 3.407473 1_555
Ba3 P3 3.409124 1_545
Na0 P3 3.297746 1_655
Na0 P8 3.297763 1_564
Na0 P4 3.298707 1_554
Na0 P7 3.298707 1_665
Na0 P2 3.298805 1_565
Na0 P9 3.298815 1_654
Na0 P0 3.298918 1_554
Na0 P6 3.298964 1_665
Be0 P3 2.224447 1_655
Be0 P0 2.229751 1_554
Be0 P5 2.234742 1_555
Be0 P6 2.242268 1_655
Be1 P6 2.223080 1_555
Be1 P7 2.227580 1_555
Be1 P1 2.237510 1_554
Be1 P4 2.243991 1_555
Be2 P7 2.235409 1_555
Be2 P8 2.235777 1_555
Be2 P2 2.237114 1_555
Be2 P0 2.237572 1_555
Be3 P9 2.224357 1_545
Be3 P8 2.226949 1_455
Be3 P1 2.237307 1_555
Be3 P3 2.242905 1_545
Be4 P4 2.224331 1_555
Be4 P2 2.230265 1_566
Be4 P5 2.235654 1_556
Be4 P9 2.241422 1_555
Be5 P0 2.223093 1_555
Be5 P4 2.227586 1_555
Be5 P5 2.237489 1_556
Be5 P7 2.243995 1_555
Be6 P8 2.224448 1_455
Be6 P6 2.229732 1_556
Be6 P1 2.234753 1_555
Be6 P0 2.242294 1_455
Be7 P7 2.224329 1_555
Be7 P9 2.230265 1_544
Be7 P1 2.235647 1_554
Be7 P2 2.241424 1_555
Be8 P2 2.224357 1_565
Be8 P3 2.226942 1_655
Be8 P5 2.237323 1_555
Be8 P8 2.242911 1_565
Be9 P4 2.235408 1_555
Be9 P3 2.235778 1_555
Be9 P9 2.237111 1_555
Be9 P6 2.237547 1_555
