# generated using pymatgen
data_Mn2CrPd8Au5
_symmetry_space_group_name_H-M   'P 1'
_cell_length_a   6.89139645
_cell_length_b   6.89139678
_cell_length_c   6.89139612
_cell_angle_alpha   108.66585327
_cell_angle_beta   108.59002207
_cell_angle_gamma   111.17128519
_symmetry_Int_Tables_number   1
_chemical_formula_structural   Mn2CrPd8Au5
_chemical_formula_sum   'Mn2 Cr1 Pd8 Au5'
_cell_volume   251.77454760
_cell_formula_units_Z   1
loop_
 _symmetry_equiv_pos_site_id
 _symmetry_equiv_pos_as_xyz
  1  'x, y, z'
loop_
 _atom_site_type_symbol
 _atom_site_label
 _atom_site_symmetry_multiplicity
 _atom_site_fract_x
 _atom_site_fract_y
 _atom_site_fract_z
 _atom_site_occupancy
  Mn  Mn0  1  0.00000000  0.50000000  0.50000000  1
  Mn  Mn1  1  0.50000000  0.50000000  0.00000000  1
  Cr  Cr0  1  0.00000000  0.00000000  0.00000000  1
  Pd  Pd0  1  0.50077660  0.25225219  0.24852341  1
  Pd  Pd1  1  0.49922340  0.74774781  0.75147659  1
  Pd  Pd2  1  0.00372878  0.25225219  0.75147659  1
  Pd  Pd3  1  0.24847747  0.00155288  0.75307540  1
  Pd  Pd4  1  0.99627122  0.74774781  0.24852341  1
  Pd  Pd5  1  0.75152253  0.99844712  0.24692460  1
  Pd  Pd6  1  0.24847747  0.49540307  0.24692460  1
  Pd  Pd7  1  0.75152253  0.50459693  0.75307540  1
  Au  Au0  1  0.50000000  0.00000000  0.50000000  1
  Au  Au1  1  0.24777674  0.25159743  0.49937516  1
  Au  Au2  1  0.75222326  0.74840257  0.50062484  1
  Au  Au3  1  0.24777674  0.74840257  0.99617931  1
  Au  Au4  1  0.75222326  0.25159743  0.00382069  1
loop_
_geom_bond_atom_site_label_1
_geom_bond_atom_site_label_2
_geom_bond_distance
_geom_bond_site_symmetry_2
Mn0 Pd1 2.795750 1_555
Mn0 Pd0 2.795750 1_455
Mn0 Pd4 2.795755 1_455
Mn0 Pd2 2.795755 1_555
Mn0 Pd6 2.807629 1_555
Mn0 Pd7 2.807629 1_455
Mn0 Pd3 2.807630 1_565
Mn0 Pd5 2.807630 1_445
Mn1 Pd4 2.778616 1_555
Mn1 Pd2 2.778616 1_554
Mn1 Pd0 2.778616 1_555
Mn1 Pd1 2.778616 1_554
Mn1 Pd7 2.788646 1_554
Mn1 Pd6 2.788646 1_555
Mn1 Pd5 2.788647 1_555
Mn1 Pd3 2.788647 1_554
Cr0 Pd3 2.772032 1_554
Cr0 Pd5 2.772032 1_445
Cr0 Pd6 2.772038 1_555
Cr0 Pd7 2.772038 1_444
Cr0 Pd2 2.803100 1_554
Cr0 Pd4 2.803100 1_445
Cr0 Pd0 2.803106 1_555
Cr0 Pd1 2.803106 1_444
Pd0 Pd3 2.816902 1_554
Pd0 Pd6 2.816913 1_555
Pd0 Pd5 2.868489 1_545
Pd0 Pd7 2.868495 1_555
Pd1 Pd5 2.816902 1_556
Pd1 Pd7 2.816913 1_555
Pd1 Pd3 2.868489 1_565
Pd1 Pd6 2.868495 1_555
Pd2 Pd6 2.816902 1_556
Pd2 Pd3 2.816902 1_555
Pd2 Pd7 2.868489 1_455
Pd2 Pd5 2.868495 1_445
Pd3 Pd4 2.868495 1_445
Pd4 Pd7 2.816902 1_554
Pd4 Pd5 2.816902 1_555
Pd4 Pd6 2.868489 1_655
Au0 Pd1 2.820090 1_545
Au0 Pd0 2.820090 1_555
Au0 Pd2 2.820090 1_655
Au0 Pd4 2.820090 1_445
Au0 Pd7 2.824029 1_555
Au0 Pd6 2.824029 1_545
Au0 Pd5 2.824034 1_545
Au0 Pd3 2.824034 1_555
Au0 Au4 2.864331 1_556
Au0 Au3 2.864331 1_544
Au0 Au1 2.864331 1_555
Au0 Au2 2.864331 1_545
Au1 Pd2 2.776747 1_555
Au1 Pd1 2.776753 1_555
Au1 Pd5 2.778509 1_445
Au1 Pd6 2.778520 1_555
Au1 Pd4 2.819457 1_445
Au1 Pd0 2.819468 1_555
Au1 Pd3 2.820469 1_555
Au1 Pd7 2.820475 1_555
Au1 Mn0 2.820882 1_555
Au1 Cr0 2.839115 1_555
Au1 Mn1 2.846259 1_556
Au2 Pd4 2.776747 1_555
Au2 Pd0 2.776753 1_555
Au2 Pd3 2.778509 1_665
Au2 Pd7 2.778520 1_555
Au2 Pd2 2.819457 1_665
Au2 Pd1 2.819468 1_555
Au2 Pd5 2.820469 1_555
Au2 Pd6 2.820475 1_555
Au2 Mn0 2.820882 1_655
Au2 Cr0 2.839115 1_666
Au2 Mn1 2.846259 1_555
Au3 Pd1 2.776747 1_555
Au3 Pd2 2.776753 1_555
Au3 Pd7 2.778509 1_455
Au3 Pd3 2.778509 1_565
Au3 Pd4 2.819457 1_456
Au3 Pd0 2.819457 1_566
Au3 Pd6 2.820469 1_556
Au3 Pd5 2.820475 1_556
Au3 Mn0 2.820882 1_555
Au3 Cr0 2.839109 1_566
Au3 Mn1 2.846265 1_556
Au4 Pd0 2.776747 1_555
Au4 Pd4 2.776753 1_555
Au4 Pd6 2.778509 1_655
Au4 Pd5 2.778509 1_545
Au4 Pd2 2.819457 1_654
Au4 Pd1 2.819457 1_544
Au4 Pd7 2.820469 1_554
Au4 Pd3 2.820475 1_554
Au4 Mn0 2.820882 1_655
Au4 Cr0 2.839109 1_655
Au4 Mn1 2.846265 1_555
