# generated using pymatgen
data_Cs2Mn3As4Ru
_symmetry_space_group_name_H-M   'P 1'
_cell_length_a   8.08311844
_cell_length_b   8.08311755
_cell_length_c   5.83693018
_cell_angle_alpha   90.00000000
_cell_angle_beta   90.00000000
_cell_angle_gamma   137.63463399
_symmetry_Int_Tables_number   1
_chemical_formula_structural   Cs2Mn3As4Ru
_chemical_formula_sum   'Cs2 Mn3 As4 Ru1'
_cell_volume   256.98593873
_cell_formula_units_Z   1
loop_
 _symmetry_equiv_pos_site_id
 _symmetry_equiv_pos_as_xyz
  1  'x, y, z'
loop_
 _atom_site_type_symbol
 _atom_site_label
 _atom_site_symmetry_multiplicity
 _atom_site_fract_x
 _atom_site_fract_y
 _atom_site_fract_z
 _atom_site_occupancy
  Cs  Cs0  1  0.50000000  0.00000000  0.24939600  1
  Cs  Cs1  1  0.00000000  0.50000000  0.75060400  1
  Mn  Mn0  1  0.50000000  0.50000000  0.50000000  1
  Mn  Mn1  1  0.50000000  0.50000000  0.00000000  1
  Mn  Mn2  1  0.00000000  0.00000000  0.50000000  1
  As  As0  1  0.66441539  0.84893132  0.75649878  1
  As  As1  1  0.15106868  0.33558461  0.24350122  1
  As  As2  1  0.84893132  0.66441539  0.24350122  1
  As  As3  1  0.33558461  0.15106868  0.75649878  1
  Ru  Ru0  1  0.00000000  0.00000000  0.00000000  1
loop_
_geom_bond_atom_site_label_1
_geom_bond_atom_site_label_2
_geom_bond_distance
_geom_bond_site_symmetry_2
Mn1 Ru0 2.920776 1_555
Mn1 Ru0 2.920776 1_665
Mn2 Ru0 2.918465 1_556
Mn2 Ru0 2.918465 1_555
As0 Ru0 2.444280 1_666
As0 Mn2 2.489160 1_665
As0 Mn1 2.490427 1_556
As0 Mn0 2.534489 1_555
As0 Cs0 3.732638 1_566
As0 Cs1 3.736283 1_665
As0 Cs1 3.796743 1_555
As0 Cs0 3.796915 1_565
As1 Ru0 2.444280 1_555
As1 Mn2 2.489160 1_555
As1 Mn1 2.490427 1_555
As1 Mn0 2.534490 1_555
As1 Cs1 3.732638 1_554
As1 Cs0 3.736284 1_455
As1 Cs0 3.796742 1_565
As1 Cs1 3.796915 1_555
As2 Ru0 2.444280 1_665
As2 Mn2 2.489160 1_665
As2 Mn1 2.490427 1_555
As2 Mn0 2.534490 1_555
As2 Cs1 3.732638 1_654
As2 Cs0 3.736284 1_665
As2 Cs0 3.796742 1_555
As2 Cs1 3.796915 1_655
As3 Ru0 2.444280 1_556
As3 Mn2 2.489160 1_555
As3 Mn1 2.490427 1_556
As3 Mn0 2.534489 1_555
As3 Cs0 3.732638 1_556
As3 Cs1 3.736283 1_545
As3 Cs1 3.796743 1_655
As3 Cs0 3.796915 1_555
