# generated using pymatgen
data_Hf16Ir5Au3N4
_symmetry_space_group_name_H-M   'P 1'
_cell_length_a   8.73189552
_cell_length_b   8.73188075
_cell_length_c   8.73187567
_cell_angle_alpha   59.98668219
_cell_angle_beta   59.98682129
_cell_angle_gamma   59.98678527
_symmetry_Int_Tables_number   1
_chemical_formula_structural   Hf16Ir5Au3N4
_chemical_formula_sum   'Hf16 Ir5 Au3 N4'
_cell_volume   470.62880227
_cell_formula_units_Z   1
loop_
 _symmetry_equiv_pos_site_id
 _symmetry_equiv_pos_as_xyz
  1  'x, y, z'
loop_
 _atom_site_type_symbol
 _atom_site_label
 _atom_site_symmetry_multiplicity
 _atom_site_fract_x
 _atom_site_fract_y
 _atom_site_fract_z
 _atom_site_occupancy
  Hf  Hf0  1  0.12109308  0.62351996  0.62352196  1
  Hf  Hf1  1  0.62351996  0.12109408  0.62351996  1
  Hf  Hf2  1  0.62352196  0.62352096  0.12109308  1
  Hf  Hf3  1  0.63061449  0.63061349  0.63061449  1
  Hf  Hf4  1  0.81862879  0.81862779  0.18075272  1
  Hf  Hf5  1  0.18141003  0.18140903  0.81795902  1
  Hf  Hf6  1  0.81862879  0.18075272  0.81862879  1
  Hf  Hf7  1  0.18141003  0.81795902  0.18141003  1
  Hf  Hf8  1  0.18075272  0.81862779  0.81862879  1
  Hf  Hf9  1  0.81795902  0.18141003  0.18140903  1
  Hf  Hf10  1  0.43397216  0.43397216  0.07231199  1
  Hf  Hf11  1  0.06450926  0.06450826  0.43539495  1
  Hf  Hf12  1  0.43397216  0.07231099  0.43397316  1
  Hf  Hf13  1  0.06450926  0.43539595  0.06450926  1
  Hf  Hf14  1  0.07231099  0.43397216  0.43397316  1
  Hf  Hf15  1  0.43539495  0.06450926  0.06450826  1
  Ir  Ir0  1  0.40259721  0.40260021  0.40259821  1
  Ir  Ir1  1  0.47554261  0.84323016  0.84322716  1
  Ir  Ir2  1  0.84322816  0.47554561  0.84322716  1
  Ir  Ir3  1  0.84322816  0.84322816  0.47554361  1
  Ir  Ir4  1  0.83964348  0.83964248  0.83964248  1
  Au  Au0  1  0.77605356  0.40967879  0.40967879  1
  Au  Au1  1  0.40967979  0.77605056  0.40967979  1
  Au  Au2  1  0.40967879  0.40967979  0.77605256  1
  N  N0  1  0.62424329  0.12408186  0.12408186  1
  N  N1  1  0.12408286  0.62424229  0.12408286  1
  N  N2  1  0.12408186  0.12408286  0.62424129  1
  N  N3  1  0.12573356  0.12573356  0.12573356  1
loop_
_geom_bond_atom_site_label_1
_geom_bond_atom_site_label_2
_geom_bond_distance
_geom_bond_site_symmetry_2
Hf0 Ir2 2.690110 1_455
Hf0 Ir3 2.690128 1_455
Hf0 Ir4 2.728696 1_455
Hf0 Ir0 2.778510 1_555
Hf1 Ir1 2.690115 1_545
Hf1 Ir3 2.690126 1_545
Hf1 Ir4 2.728710 1_545
Hf1 Ir0 2.778513 1_555
Hf2 Ir2 2.690121 1_554
Hf2 Ir1 2.690137 1_554
Hf2 Ir4 2.728695 1_554
Hf2 Ir0 2.778519 1_555
Hf3 Ir2 2.673038 1_555
Hf3 Ir3 2.673049 1_555
Hf3 Ir1 2.673053 1_555
Hf4 N0 2.287070 1_565
Hf4 N1 2.287075 1_655
Hf4 Ir3 2.805459 1_555
Hf4 Ir4 2.806980 1_554
Hf5 N2 2.303737 1_555
Hf5 N3 2.305956 1_556
Hf5 Ir1 2.773591 1_545
Hf5 Ir2 2.773623 1_455
Hf6 N0 2.287065 1_556
Hf6 N2 2.287074 1_655
Hf6 Ir2 2.805467 1_555
Hf6 Ir4 2.806985 1_545
Hf7 N1 2.303729 1_555
Hf7 N3 2.305955 1_565
Hf7 Ir1 2.773612 1_554
Hf7 Ir3 2.773613 1_455
Hf8 N1 2.287067 1_556
Hf8 N2 2.287078 1_565
Hf8 Ir1 2.805460 1_555
Hf8 Ir4 2.806982 1_455
Hf9 N0 2.303728 1_555
Hf9 N3 2.305963 1_655
Hf9 Ir3 2.773607 1_545
Hf9 Ir2 2.773611 1_554
Hf10 N1 2.305830 1_555
Hf10 N0 2.305834 1_555
Hf10 Ir0 2.638551 1_555
Hf11 N2 2.290699 1_555
Hf11 N3 2.297064 1_555
Hf11 Ir4 3.187489 1_445
Hf12 N2 2.305832 1_555
Hf12 N0 2.305840 1_555
Hf12 Ir0 2.638569 1_555
Hf13 N1 2.290700 1_555
Hf13 N3 2.297075 1_555
Hf13 Ir4 3.187487 1_454
Hf14 N2 2.305818 1_555
Hf14 N1 2.305828 1_555
Hf14 Ir0 2.638559 1_555
Hf15 N0 2.290712 1_555
Hf15 N3 2.297071 1_555
Hf15 Ir4 3.187504 1_544
Au0 Hf2 2.787983 1_555
Au0 Hf1 2.787989 1_555
Au0 Hf13 2.787990 1_655
Au0 Hf11 2.787995 1_655
Au0 Hf3 2.806703 1_555
Au0 Hf14 2.815132 1_655
Au1 Hf2 2.787984 1_555
Au1 Hf0 2.787991 1_555
Au1 Hf11 2.788004 1_565
Au1 Hf15 2.788004 1_565
Au1 Hf3 2.806698 1_555
Au1 Hf12 2.815144 1_565
Au2 Hf0 2.787982 1_555
Au2 Hf15 2.787988 1_556
Au2 Hf1 2.787993 1_555
Au2 Hf13 2.787996 1_556
Au2 Hf3 2.806699 1_555
Au2 Hf10 2.815134 1_556
