# generated using pymatgen
data_Lu3HfIr2O
_symmetry_space_group_name_H-M   'P 1'
_cell_length_a   8.88941039
_cell_length_b   8.88941073
_cell_length_c   8.88940997
_cell_angle_alpha   59.99999917
_cell_angle_beta   59.99999793
_cell_angle_gamma   59.99999566
_symmetry_Int_Tables_number   1
_chemical_formula_structural   Lu3HfIr2O
_chemical_formula_sum   'Lu12 Hf4 Ir8 O4'
_cell_volume   496.71107526
_cell_formula_units_Z   4
loop_
 _symmetry_equiv_pos_site_id
 _symmetry_equiv_pos_as_xyz
  1  'x, y, z'
loop_
 _atom_site_type_symbol
 _atom_site_label
 _atom_site_symmetry_multiplicity
 _atom_site_fract_x
 _atom_site_fract_y
 _atom_site_fract_z
 _atom_site_occupancy
  Lu  Lu0  1  0.81410068  0.81410068  0.18589932  1
  Lu  Lu1  1  0.18589932  0.18589932  0.81410068  1
  Lu  Lu2  1  0.81410068  0.18589932  0.81410068  1
  Lu  Lu3  1  0.18589932  0.81410068  0.18589932  1
  Lu  Lu4  1  0.18589932  0.81410068  0.81410068  1
  Lu  Lu5  1  0.81410068  0.18589932  0.18589932  1
  Lu  Lu6  1  0.43589932  0.43589932  0.06410068  1
  Lu  Lu7  1  0.06410068  0.06410068  0.43589932  1
  Lu  Lu8  1  0.43589932  0.06410068  0.43589932  1
  Lu  Lu9  1  0.06410068  0.43589932  0.06410068  1
  Lu  Lu10  1  0.06410068  0.43589932  0.43589932  1
  Lu  Lu11  1  0.43589932  0.06410068  0.06410068  1
  Hf  Hf0  1  0.12500000  0.62500000  0.62500000  1
  Hf  Hf1  1  0.62500000  0.12500000  0.62500000  1
  Hf  Hf2  1  0.62500000  0.62500000  0.12500000  1
  Hf  Hf3  1  0.62500000  0.62500000  0.62500000  1
  Ir  Ir0  1  0.75484302  0.41505233  0.41505233  1
  Ir  Ir1  1  0.41505233  0.75484302  0.41505233  1
  Ir  Ir2  1  0.41505233  0.41505233  0.75484302  1
  Ir  Ir3  1  0.41505233  0.41505233  0.41505233  1
  Ir  Ir4  1  0.49515698  0.83494767  0.83494767  1
  Ir  Ir5  1  0.83494767  0.49515698  0.83494767  1
  Ir  Ir6  1  0.83494767  0.83494767  0.49515698  1
  Ir  Ir7  1  0.83494767  0.83494767  0.83494767  1
  O  O0  1  0.62500000  0.12500000  0.12500000  1
  O  O1  1  0.12500000  0.62500000  0.12500000  1
  O  O2  1  0.12500000  0.12500000  0.62500000  1
  O  O3  1  0.12500000  0.12500000  0.12500000  1
loop_
_geom_bond_atom_site_label_1
_geom_bond_atom_site_label_2
_geom_bond_distance
_geom_bond_site_symmetry_2
Lu0 O1 2.350530 1_655
Lu0 O0 2.350530 1_565
Lu1 O3 2.350530 1_556
Lu1 O2 2.350530 1_555
Lu2 O0 2.350530 1_556
Lu2 O2 2.350530 1_655
Lu3 O3 2.350530 1_565
Lu3 O1 2.350530 1_555
Lu4 O1 2.350530 1_556
Lu4 O2 2.350530 1_565
Lu5 O3 2.350530 1_655
Lu5 O0 2.350530 1_555
Lu6 O1 2.350530 1_555
Lu6 O0 2.350530 1_555
Lu7 O3 2.350530 1_555
Lu7 O2 2.350530 1_555
Lu8 O0 2.350530 1_555
Lu8 O2 2.350530 1_555
Lu9 O3 2.350530 1_555
Lu9 O1 2.350530 1_555
Lu10 O1 2.350530 1_555
Lu10 O2 2.350530 1_555
Lu11 O3 2.350530 1_555
Lu11 O0 2.350530 1_555
Hf0 Ir7 2.733733 1_455
Hf0 Ir3 2.733733 1_555
Hf0 Ir2 2.733733 1_555
Hf0 Ir6 2.733733 1_455
Hf0 Ir1 2.733733 1_555
Hf0 Ir5 2.733733 1_455
Hf1 Ir7 2.733733 1_545
Hf1 Ir3 2.733733 1_555
Hf1 Ir2 2.733733 1_555
Hf1 Ir6 2.733733 1_545
Hf1 Ir0 2.733733 1_555
Hf1 Ir4 2.733733 1_545
Hf2 Ir1 2.733733 1_555
Hf2 Ir5 2.733733 1_554
Hf2 Ir0 2.733733 1_555
Hf2 Ir4 2.733733 1_554
Hf2 Ir7 2.733733 1_554
Hf2 Ir3 2.733733 1_555
Hf3 Ir5 2.733733 1_555
Hf3 Ir1 2.733733 1_555
Hf3 Ir4 2.733733 1_555
Hf3 Ir0 2.733733 1_555
Hf3 Ir6 2.733733 1_555
Hf3 Ir2 2.733733 1_555
Ir0 Lu9 2.946116 1_655
Ir0 Lu7 2.946116 1_655
Ir0 Lu10 2.946116 1_655
Ir1 Lu7 2.946116 1_565
Ir1 Lu11 2.946116 1_565
Ir1 Lu8 2.946116 1_565
Ir2 Lu9 2.946116 1_556
Ir2 Lu6 2.946116 1_556
Ir2 Lu11 2.946116 1_556
Ir3 Lu6 2.946116 1_555
Ir3 Lu10 2.946116 1_555
Ir3 Lu8 2.946116 1_555
Ir4 Lu3 2.946116 1_556
Ir4 Lu1 2.946116 1_565
Ir4 Lu4 2.946116 1_555
Ir5 Lu1 2.946116 1_655
Ir5 Lu5 2.946116 1_556
Ir5 Lu2 2.946116 1_555
Ir6 Lu3 2.946116 1_655
Ir6 Lu0 2.946116 1_555
Ir6 Lu5 2.946116 1_565
Ir7 Lu0 2.946116 1_556
Ir7 Lu4 2.946116 1_655
Ir7 Lu2 2.946116 1_565
