# generated using pymatgen
data_Y4Al4CuIr3
_symmetry_space_group_name_H-M   'P 1'
_cell_length_a   4.32507468
_cell_length_b   6.81325607
_cell_length_c   7.77070119
_cell_angle_alpha   90.21851100
_cell_angle_beta   90.00000000
_cell_angle_gamma   90.00000000
_symmetry_Int_Tables_number   1
_chemical_formula_structural   Y4Al4CuIr3
_chemical_formula_sum   'Y4 Al4 Cu1 Ir3'
_cell_volume   228.98412397
_cell_formula_units_Z   1
loop_
 _symmetry_equiv_pos_site_id
 _symmetry_equiv_pos_as_xyz
  1  'x, y, z'
loop_
 _atom_site_type_symbol
 _atom_site_label
 _atom_site_symmetry_multiplicity
 _atom_site_fract_x
 _atom_site_fract_y
 _atom_site_fract_z
 _atom_site_occupancy
  Y  Y0  1  0.25000000  0.02586150  0.67906303  1
  Y  Y1  1  0.25000000  0.53566763  0.81907414  1
  Y  Y2  1  0.75000000  0.97130905  0.32108981  1
  Y  Y3  1  0.75000000  0.47312564  0.18310112  1
  Al  Al0  1  0.25000000  0.14150827  0.06196772  1
  Al  Al1  1  0.25000000  0.64121026  0.43816806  1
  Al  Al2  1  0.75000000  0.85415177  0.93924426  1
  Al  Al3  1  0.75000000  0.36170942  0.55839875  1
  Cu  Cu0  1  0.75000000  0.22216883  0.87822931  1
  Ir  Ir0  1  0.25000000  0.27072351  0.38148228  1
  Ir  Ir1  1  0.25000000  0.77194374  0.11817044  1
  Ir  Ir2  1  0.75000000  0.73062138  0.62200908  1
loop_
_geom_bond_atom_site_label_1
_geom_bond_atom_site_label_2
_geom_bond_distance
_geom_bond_site_symmetry_2
Al0 Ir1 2.557173 1_545
Al0 Ir0 2.631149 1_555
Al0 Cu0 2.650116 1_554
Al0 Cu0 2.650116 1_454
Al0 Y0 3.075091 1_554
Al0 Y2 3.177027 1_545
Al0 Y2 3.177027 1_445
Al0 Y3 3.263623 1_555
Al0 Y3 3.263623 1_455
Al0 Y1 3.288328 1_554
Al1 Ir0 2.560711 1_555
Al1 Ir1 2.644520 1_555
Al1 Ir2 2.661175 1_555
Al1 Ir2 2.661175 1_455
Al1 Y1 3.048668 1_555
Al1 Y3 3.146310 1_455
Al1 Y3 3.146310 1_555
Al1 Y0 3.214792 1_565
Al1 Y2 3.252398 1_555
Al1 Y2 3.252398 1_455
Al2 Cu0 2.553604 1_565
Al2 Ir2 2.601817 1_555
Al2 Ir1 2.632373 1_656
Al2 Ir1 2.632373 1_556
Al2 Y2 3.069758 1_556
Al2 Y0 3.186050 1_565
Al2 Y0 3.186050 1_665
Al2 Y1 3.200255 1_555
Al2 Y1 3.200255 1_655
Al2 Y3 3.219888 1_556
Al3 Ir2 2.559784 1_555
Al3 Ir0 2.635211 1_555
Al3 Ir0 2.635211 1_655
Al3 Cu0 2.664330 1_555
Al3 Y3 3.016303 1_555
Al3 Y1 3.188446 1_555
Al3 Y1 3.188446 1_655
Al3 Y2 3.230819 1_545
Al3 Y0 3.287561 1_655
Al3 Y0 3.287561 1_555
Cu0 Y3 2.916353 1_556
Cu0 Y0 2.974041 1_555
Cu0 Y0 2.974041 1_655
Cu0 Y1 3.075326 1_555
Cu0 Y1 3.075326 1_655
Ir0 Y0 2.856557 1_555
Ir0 Y3 2.995143 1_555
Ir0 Y3 2.995143 1_455
Ir0 Y2 3.008496 1_545
Ir0 Y2 3.008496 1_445
Ir1 Y1 2.822197 1_554
Ir1 Y2 2.998610 1_455
Ir1 Y2 2.998610 1_555
Ir1 Y3 3.013962 1_455
Ir1 Y3 3.013962 1_555
Ir2 Y2 2.861173 1_555
Ir2 Y1 2.966710 1_555
Ir2 Y1 2.966710 1_655
Ir2 Y0 2.985405 1_665
Ir2 Y0 2.985405 1_565
