# generated using pymatgen
data_RbCr2(Sb6Os)2
_symmetry_space_group_name_H-M   'P 1'
_cell_length_a   8.28399359
_cell_length_b   8.28399370
_cell_length_c   8.19196977
_cell_angle_alpha   109.40539829
_cell_angle_beta   109.10464167
_cell_angle_gamma   110.35171875
_symmetry_Int_Tables_number   1
_chemical_formula_structural   RbCr2(Sb6Os)2
_chemical_formula_sum   'Rb1 Cr2 Sb12 Os2'
_cell_volume   430.30735316
_cell_formula_units_Z   1
loop_
 _symmetry_equiv_pos_site_id
 _symmetry_equiv_pos_as_xyz
  1  'x, y, z'
loop_
 _atom_site_type_symbol
 _atom_site_label
 _atom_site_symmetry_multiplicity
 _atom_site_fract_x
 _atom_site_fract_y
 _atom_site_fract_z
 _atom_site_occupancy
  Rb  Rb0  1  0.00000000  0.00000000  0.00000000  1
  Cr  Cr0  1  0.00000000  0.00000000  0.50000000  1
  Cr  Cr1  1  0.50000000  0.50000000  0.50000000  1
  Sb  Sb0  1  0.35412734  0.19048663  0.85353742  1
  Sb  Sb1  1  0.64587266  0.80951337  0.14646258  1
  Sb  Sb2  1  0.66305079  0.49940908  0.85353742  1
  Sb  Sb3  1  0.33694921  0.50059092  0.14646258  1
  Sb  Sb4  1  0.19145072  0.83877765  0.34040400  1
  Sb  Sb5  1  0.80854928  0.16122235  0.65959600  1
  Sb  Sb6  1  0.49837266  0.85104573  0.65959600  1
  Sb  Sb7  1  0.50162734  0.14895427  0.34040400  1
  Sb  Sb8  1  0.84495162  0.33792289  0.18287451  1
  Sb  Sb9  1  0.15504838  0.66207711  0.81712549  1
  Sb  Sb10  1  0.84851029  0.64711368  0.49562197  1
  Sb  Sb11  1  0.15148971  0.35288632  0.50437803  1
  Os  Os0  1  0.50000000  0.00000000  0.00000000  1
  Os  Os1  1  0.00000000  0.50000000  0.00000000  1
loop_
_geom_bond_atom_site_label_1
_geom_bond_atom_site_label_2
_geom_bond_distance
_geom_bond_site_symmetry_2
Rb0 Sb8 3.564291 1_455
Rb0 Sb9 3.564291 1_544
Rb0 Sb0 3.588561 1_554
Rb0 Sb1 3.588561 1_445
Rb0 Sb3 3.588567 1_555
Rb0 Sb2 3.588567 1_444
Rb0 Sb4 3.623310 1_545
Rb0 Sb5 3.623310 1_454
Rb0 Sb7 3.623314 1_555
Rb0 Sb6 3.623314 1_444
Rb0 Sb11 3.636013 1_555
Rb0 Sb10 3.636013 1_444
Cr0 Sb10 2.733318 1_445
Cr0 Sb11 2.733318 1_555
Cr0 Sb0 2.768673 1_555
Cr0 Sb1 2.768673 1_445
Cr0 Sb5 2.771045 1_455
Cr0 Sb4 2.771045 1_545
Cr1 Sb11 2.733335 1_555
Cr1 Sb10 2.733335 1_555
Cr1 Sb2 2.768678 1_555
Cr1 Sb3 2.768678 1_555
Cr1 Sb6 2.771042 1_555
Cr1 Sb7 2.771042 1_555
Sb0 Sb2 2.922815 1_555
Sb0 Sb3 2.959610 1_556
Sb1 Sb3 2.922815 1_555
Sb1 Sb2 2.959610 1_554
Sb4 Sb6 2.933237 1_555
Sb4 Sb7 2.934676 1_565
Sb5 Sb7 2.933237 1_555
Sb5 Sb6 2.934676 1_545
Sb10 Sb9 2.930280 1_655
Sb10 Sb8 2.943248 1_555
Sb11 Sb8 2.930280 1_455
Sb11 Sb9 2.943248 1_555
Os0 Sb7 2.641265 1_555
Os0 Sb6 2.641265 1_544
Os0 Sb1 2.650516 1_545
Os0 Sb0 2.650516 1_554
Os0 Sb8 2.663339 1_555
Os0 Sb9 2.663339 1_544
Os1 Sb4 2.641268 1_555
Os1 Sb5 2.641268 1_454
Os1 Sb3 2.650512 1_555
Os1 Sb2 2.650512 1_454
Os1 Sb9 2.663339 1_554
Os1 Sb8 2.663339 1_455
