# generated using pymatgen
data_Ca3Mg3HgAs2
_symmetry_space_group_name_H-M   'P 1'
_cell_length_a   7.29674356
_cell_length_b   7.29674543
_cell_length_c   4.50390952
_cell_angle_alpha   90.00000000
_cell_angle_beta   90.00000000
_cell_angle_gamma   119.99999597
_symmetry_Int_Tables_number   1
_chemical_formula_structural   Ca3Mg3HgAs2
_chemical_formula_sum   'Ca3 Mg3 Hg1 As2'
_cell_volume   207.67230557
_cell_formula_units_Z   1
loop_
 _symmetry_equiv_pos_site_id
 _symmetry_equiv_pos_as_xyz
  1  'x, y, z'
loop_
 _atom_site_type_symbol
 _atom_site_label
 _atom_site_symmetry_multiplicity
 _atom_site_fract_x
 _atom_site_fract_y
 _atom_site_fract_z
 _atom_site_occupancy
  Ca  Ca0  1  0.42481637  0.00000000  0.00000000  1
  Ca  Ca1  1  0.00000000  0.42481637  0.00000000  1
  Ca  Ca2  1  0.57518363  0.57518363  0.00000000  1
  Mg  Mg0  1  0.75654190  1.00000000  0.50000000  1
  Mg  Mg1  1  0.24345910  0.24345910  0.50000000  1
  Mg  Mg2  1  0.00000000  0.75654090  0.50000000  1
  Hg  Hg0  1  0.00000000  0.00000000  0.00000000  1
  As  As0  1  0.66666700  0.33333400  0.50000000  1
  As  As1  1  0.33333300  0.66666600  0.50000000  1
loop_
_geom_bond_atom_site_label_1
_geom_bond_atom_site_label_2
_geom_bond_distance
_geom_bond_site_symmetry_2
Ca0 Hg0 3.099776 1_555
Ca1 Hg0 3.099777 1_555
Ca2 Hg0 3.099777 1_665
Hg0 Mg0 2.868289 1_445
Hg0 Mg0 2.868289 1_444
Hg0 Mg1 2.868293 1_555
Hg0 Mg1 2.868293 1_554
Hg0 Mg2 2.868293 1_545
Hg0 Mg2 2.868293 1_544
As0 Mg2 2.817962 1_655
As0 Mg1 2.817967 1_555
As0 Mg0 2.817974 1_545
As0 Ca2 3.131951 1_556
As0 Ca2 3.131951 1_555
As0 Ca1 3.131952 1_655
As0 Ca1 3.131952 1_656
As0 Ca0 3.131956 1_555
As0 Ca0 3.131956 1_556
As1 Mg1 2.817963 1_555
As1 Mg2 2.817967 1_555
As1 Mg0 2.817974 1_555
As1 Ca1 3.131951 1_556
As1 Ca1 3.131951 1_555
As1 Ca2 3.131952 1_555
As1 Ca2 3.131952 1_556
As1 Ca0 3.131956 1_565
As1 Ca0 3.131956 1_566
