# generated using pymatgen
data_K12In2As5P
_symmetry_space_group_name_H-M   'P 1'
_cell_length_a   9.10458851
_cell_length_b   9.11238703
_cell_length_c   10.07416181
_cell_angle_alpha   81.65574353
_cell_angle_beta   107.35746828
_cell_angle_gamma   119.45356596
_symmetry_Int_Tables_number   1
_chemical_formula_structural   K12In2As5P
_chemical_formula_sum   'K12 In2 As5 P1'
_cell_volume   694.63235174
_cell_formula_units_Z   1
loop_
 _symmetry_equiv_pos_site_id
 _symmetry_equiv_pos_as_xyz
  1  'x, y, z'
loop_
 _atom_site_type_symbol
 _atom_site_label
 _atom_site_symmetry_multiplicity
 _atom_site_fract_x
 _atom_site_fract_y
 _atom_site_fract_z
 _atom_site_occupancy
  K  K0  1  0.73648182  0.12839587  0.61994741  1
  K  K1  1  0.25933042  0.85462023  0.39414489  1
  K  K2  1  0.97021417  0.82183257  0.62597271  1
  K  K3  1  0.02515901  0.19923285  0.39555616  1
  K  K4  1  0.62599026  0.45082648  0.39870565  1
  K  K5  1  0.39953756  0.56088055  0.59493435  1
  K  K6  1  0.86904619  0.48730151  0.13415939  1
  K  K7  1  0.11539813  0.50047441  0.84704977  1
  K  K8  1  0.75188576  0.09513914  0.98757209  1
  K  K9  1  0.23114125  0.86967913  0.00324868  1
  K  K10  1  0.56296740  0.61880029  0.94814689  1
  K  K11  1  0.24007777  0.19967316  0.10749852  1
  In  In0  1  0.58758154  0.83011620  0.25552094  1
  In  In1  1  0.41560513  0.17643700  0.75175671  1
  As  As0  1  0.28817390  0.55033834  0.22839460  1
  As  As1  1  0.71810234  0.44644372  0.76465865  1
  As  As2  1  0.59715068  0.12194730  0.26017035  1
  As  As3  1  0.38826226  0.87314498  0.74215705  1
  As  As4  1  0.87138563  0.82912046  0.24288575  1
  P  P0  1  0.15589078  0.20233681  0.75890045  1
loop_
_geom_bond_atom_site_label_1
_geom_bond_atom_site_label_2
_geom_bond_distance
_geom_bond_site_symmetry_2
K0 P0 3.398374 1_655
K2 P0 3.302389 1_665
K3 P0 3.494761 1_555
K5 P0 3.437483 1_555
K7 P0 3.191516 1_555
K11 P0 3.362816 1_554
In0 K8 3.510129 1_564
In0 K9 3.617189 1_555
In1 P0 2.511466 1_555
In1 K9 3.594406 1_546
In1 K8 3.598114 1_555
As0 In0 2.632191 1_555
As0 K11 3.364657 1_555
As0 K6 3.410871 1_455
As0 K3 3.480551 1_555
As0 K4 3.516878 1_555
As0 K5 3.527844 1_555
As0 K9 3.570661 1_555
As0 K1 3.587024 1_555
As0 K7 3.692936 1_554
As1 In1 2.621233 1_555
As1 K7 3.254437 1_655
As1 K2 3.424402 1_555
As1 K5 3.452710 1_555
As1 K0 3.521580 1_555
As1 K4 3.527306 1_555
As1 K10 3.529968 1_555
As1 K6 3.567960 1_556
As1 K8 3.722251 1_555
As2 In0 2.624388 1_545
As2 K4 3.349537 1_555
As2 K6 3.371476 1_555
As2 K1 3.371948 1_545
As2 K3 3.456909 1_655
As2 K0 3.463306 1_555
As2 K9 3.483575 1_545
As2 K11 3.521515 1_555
As2 K8 3.525275 1_554
As3 In1 2.663838 1_565
As3 K7 3.323967 1_555
As3 K9 3.338004 1_556
As3 K8 3.338663 1_565
As3 K1 3.349528 1_555
As3 K0 3.350069 1_565
As3 K2 3.438889 1_455
As3 K5 3.451085 1_555
As3 K10 3.531028 1_555
As4 In0 2.629175 1_555
As4 K1 3.306935 1_655
As4 K3 3.358164 1_665
As4 K10 3.429111 1_554
As4 K6 3.437025 1_555
As4 K4 3.505240 1_555
As4 K8 3.576275 1_564
As4 K2 3.690597 1_555
As4 K11 3.844226 1_665
