# generated using pymatgen
data_CaPd(S2O7)2
_symmetry_space_group_name_H-M   'P 1'
_cell_length_a   5.65898040
_cell_length_b   6.86860922
_cell_length_c   8.83862087
_cell_angle_alpha   109.08700878
_cell_angle_beta   91.83471353
_cell_angle_gamma   102.25673240
_symmetry_Int_Tables_number   1
_chemical_formula_structural   CaPd(S2O7)2
_chemical_formula_sum   'Ca1 Pd1 S4 O14'
_cell_volume   315.34377943
_cell_formula_units_Z   1
loop_
 _symmetry_equiv_pos_site_id
 _symmetry_equiv_pos_as_xyz
  1  'x, y, z'
loop_
 _atom_site_type_symbol
 _atom_site_label
 _atom_site_symmetry_multiplicity
 _atom_site_fract_x
 _atom_site_fract_y
 _atom_site_fract_z
 _atom_site_occupancy
  Ca  Ca0  1  0.50000000  0.00000000  0.00000000  1
  Pd  Pd0  1  0.50000000  0.50000000  0.50000000  1
  S  S0  1  0.92965227  0.71582583  0.76060885  1
  S  S1  1  0.07034773  0.28417417  0.23939115  1
  S  S2  1  0.64993375  0.30322092  0.73678572  1
  S  S3  1  0.35006625  0.69677908  0.26321428  1
  O  O0  1  0.85120057  0.64525836  0.58698791  1
  O  O1  1  0.14879943  0.35474164  0.41301209  1
  O  O2  1  0.46079878  0.39968921  0.69017452  1
  O  O3  1  0.53920122  0.60031079  0.30982548  1
  O  O4  1  0.18705340  0.80140889  0.79278445  1
  O  O5  1  0.81294660  0.19859111  0.20721555  1
  O  O6  1  0.78499574  0.84580938  0.85825415  1
  O  O7  1  0.21500426  0.15419062  0.14174585  1
  O  O8  1  0.59132914  0.25477958  0.87922943  1
  O  O9  1  0.40867086  0.74522042  0.12077057  1
  O  O10  1  0.89258450  0.50749722  0.80994389  1
  O  O11  1  0.10741550  0.49250278  0.19005611  1
  O  O12  1  0.72894727  0.15206974  0.61069148  1
  O  O13  1  0.27105273  0.84793026  0.38930852  1
loop_
_geom_bond_atom_site_label_1
_geom_bond_atom_site_label_2
_geom_bond_distance
_geom_bond_site_symmetry_2
Ca0 O6 2.297640 1_544
Ca0 O7 2.297640 1_555
Ca0 O9 2.311275 1_545
Ca0 O8 2.311275 1_554
Ca0 O5 2.341812 1_555
Ca0 O4 2.341812 1_544
O0 S0 1.471561 1_555
O0 Pd0 2.023621 1_555
O1 S1 1.471561 1_555
O1 Pd0 2.023621 1_555
O2 S2 1.485174 1_555
O2 Pd0 2.016355 1_555
O3 S3 1.485174 1_555
O3 Pd0 2.016355 1_555
O4 S0 1.431356 1_455
O5 S1 1.431356 1_655
O6 S0 1.436556 1_555
O7 S1 1.436556 1_555
O8 S2 1.435144 1_555
O9 S3 1.435144 1_555
O10 S0 1.602557 1_555
O10 S2 1.674544 1_555
O11 S1 1.602557 1_555
O11 S3 1.674544 1_555
O12 S2 1.411443 1_555
O13 S3 1.411443 1_555
