# generated using pymatgen
data_Hf13Zr(Pt9Au)2
_symmetry_space_group_name_H-M   'P 1'
_cell_length_a   8.12778881
_cell_length_b   8.12778890
_cell_length_c   9.60981442
_cell_angle_alpha   90.10150666
_cell_angle_beta   90.10150586
_cell_angle_gamma   107.27300788
_symmetry_Int_Tables_number   1
_chemical_formula_structural   Hf13Zr(Pt9Au)2
_chemical_formula_sum   'Hf13 Zr1 Pt18 Au2'
_cell_volume   606.20028913
_cell_formula_units_Z   1
loop_
 _symmetry_equiv_pos_site_id
 _symmetry_equiv_pos_as_xyz
  1  'x, y, z'
loop_
 _atom_site_type_symbol
 _atom_site_label
 _atom_site_symmetry_multiplicity
 _atom_site_fract_x
 _atom_site_fract_y
 _atom_site_fract_z
 _atom_site_occupancy
  Hf  Hf0  1  0.30265686  0.69734314  0.00000000  1
  Hf  Hf1  1  0.80974776  0.19025224  0.50000000  1
  Hf  Hf2  1  0.19032969  0.80967031  0.50000000  1
  Hf  Hf3  1  0.99951055  0.00048945  0.00000000  1
  Hf  Hf4  1  0.49998270  0.50001730  0.50000000  1
  Hf  Hf5  1  0.00014538  0.50138851  0.25108652  1
  Hf  Hf6  1  0.00028674  0.49897171  0.74905886  1
  Hf  Hf7  1  0.49861149  0.99985462  0.74891348  1
  Hf  Hf8  1  0.50102829  0.99971326  0.25094114  1
  Hf  Hf9  1  0.31007395  0.31013210  0.19078113  1
  Hf  Hf10  1  0.68986790  0.68992605  0.80921887  1
  Hf  Hf11  1  0.17572108  0.17553862  0.67523262  1
  Hf  Hf12  1  0.82446138  0.82427892  0.32476738  1
  Zr  Zr0  1  0.69640263  0.30359737  1.00000000  1
  Pt  Pt0  1  0.85104377  0.14194924  0.20882573  1
  Pt  Pt1  1  0.14899105  0.85723322  0.79131724  1
  Pt  Pt2  1  0.65036009  0.35864595  0.70704963  1
  Pt  Pt3  1  0.64135405  0.34963991  0.29295037  1
  Pt  Pt4  1  0.34930475  0.64080150  0.29178672  1
  Pt  Pt5  1  0.35919850  0.65069525  0.70821328  1
  Pt  Pt6  1  0.85805076  0.14895623  0.79117427  1
  Pt  Pt7  1  0.14276678  0.85100895  0.20868276  1
  Pt  Pt8  1  0.93621776  0.64606502  0.99657648  1
  Pt  Pt9  1  0.06578323  0.35603302  0.00406837  1
  Pt  Pt10  1  0.56317464  0.85454975  0.49776835  1
  Pt  Pt11  1  0.14545025  0.43682536  0.50223165  1
  Pt  Pt12  1  0.43674177  0.14475021  0.50205939  1
  Pt  Pt13  1  0.85524979  0.56325823  0.49794061  1
  Pt  Pt14  1  0.35393498  0.06378224  0.00342352  1
  Pt  Pt15  1  0.64396698  0.93421677  0.99593163  1
  Pt  Pt16  1  0.10669343  0.10627302  0.39314268  1
  Pt  Pt17  1  0.89372698  0.89330657  0.60685732  1
  Au  Au0  1  0.39091628  0.39175323  0.88947097  1
  Au  Au1  1  0.60824677  0.60908372  0.11052903  1
loop_
_geom_bond_atom_site_label_1
_geom_bond_atom_site_label_2
_geom_bond_distance
_geom_bond_site_symmetry_2
Hf0 Pt15 2.869276 1_554
Hf0 Pt9 2.869276 1_555
Hf0 Pt7 2.869603 1_555
Hf0 Pt1 2.869603 1_554
Hf0 Pt8 2.882316 1_454
Hf0 Pt14 2.882316 1_565
Hf0 Pt5 2.884740 1_554
Hf0 Pt4 2.884740 1_555
Hf1 Pt0 2.859023 1_555
Hf1 Pt6 2.859023 1_555
Hf1 Pt11 2.866010 1_655
Hf1 Pt10 2.866010 1_545
Hf1 Pt16 2.886176 1_655
Hf1 Pt17 2.886176 1_545
Hf1 Pt2 2.926236 1_555
Hf1 Pt3 2.926236 1_555
Hf1 Pt12 2.943273 1_555
Hf1 Pt13 2.943273 1_555
Hf2 Pt1 2.859404 1_555
Hf2 Pt7 2.859404 1_555
Hf2 Pt13 2.861692 1_455
Hf2 Pt12 2.861692 1_565
Hf2 Pt17 2.882298 1_455
Hf2 Pt16 2.882298 1_565
Hf2 Pt4 2.934207 1_555
Hf2 Pt5 2.934207 1_555
Hf2 Pt10 2.942904 1_555
Hf2 Pt11 2.942904 1_555
Hf3 Pt0 2.762165 1_555
Hf3 Pt6 2.762165 1_554
Hf3 Pt14 2.771939 1_655
Hf3 Pt8 2.771939 1_544
Hf3 Pt1 2.773787 1_644
Hf3 Pt7 2.773787 1_645
Hf3 Pt15 2.778069 1_544
Hf3 Pt9 2.778069 1_655
Hf4 Pt3 2.758001 1_555
Hf4 Pt2 2.758001 1_555
Hf4 Pt5 2.764845 1_555
Hf4 Pt4 2.764845 1_555
Hf4 Pt11 2.772910 1_555
Hf4 Pt10 2.772910 1_555
Hf4 Pt13 2.778722 1_555
Hf4 Pt12 2.778722 1_555
Hf5 Pt4 2.752353 1_555
Hf5 Pt13 2.761268 1_455
Hf5 Pt7 2.763030 1_555
Hf5 Pt9 2.772025 1_555
Hf5 Pt11 2.803096 1_555
Hf5 Pt8 2.828983 1_454
Hf5 Pt3 2.838514 1_455
Hf5 Pt0 2.839011 1_455
Hf6 Pt2 2.760584 1_455
Hf6 Pt11 2.762788 1_555
Hf6 Pt6 2.765164 1_455
Hf6 Pt8 2.778893 1_455
Hf6 Pt13 2.801135 1_455
Hf6 Pt1 2.829983 1_555
Hf6 Pt9 2.830417 1_556
Hf6 Pt5 2.837972 1_555
Hf7 Pt5 2.752353 1_555
Hf7 Pt12 2.761268 1_565
Hf7 Pt1 2.763030 1_555
Hf7 Pt15 2.772025 1_555
Hf7 Pt10 2.803096 1_555
Hf7 Pt14 2.828983 1_566
Hf7 Pt2 2.838514 1_565
Hf7 Pt6 2.839011 1_565
Hf8 Pt3 2.760584 1_565
Hf8 Pt10 2.762788 1_555
Hf8 Pt0 2.765164 1_565
Hf8 Pt14 2.778893 1_565
Hf8 Pt12 2.801135 1_565
Hf8 Pt7 2.829983 1_555
Hf8 Pt15 2.830417 1_554
Hf8 Pt4 2.837972 1_555
Hf9 Pt16 2.766928 1_555
Hf9 Pt9 2.780402 1_555
Hf9 Pt4 2.783491 1_555
Hf9 Pt14 2.791290 1_555
Hf9 Pt3 2.791616 1_555
Hf10 Pt17 2.766928 1_555
Hf10 Pt15 2.780402 1_555
Hf10 Pt5 2.783491 1_555
Hf10 Pt8 2.791290 1_555
Hf10 Pt2 2.791616 1_555
Hf11 Pt6 2.763032 1_455
Hf11 Pt11 2.766919 1_555
Hf11 Pt12 2.767529 1_555
Hf11 Pt1 2.768057 1_545
Hf11 Pt16 2.789615 1_555
Hf11 Pt17 2.795373 1_445
Hf12 Pt0 2.763032 1_565
Hf12 Pt10 2.766919 1_555
Hf12 Pt13 2.767529 1_555
Hf12 Pt7 2.768057 1_655
Hf12 Pt17 2.789615 1_555
Hf12 Pt16 2.795373 1_665
Pt0 Zr0 2.883430 1_554
Pt2 Zr0 2.892358 1_555
Pt3 Zr0 2.892358 1_554
Pt6 Zr0 2.883430 1_555
Pt8 Zr0 2.885627 1_555
Pt9 Zr0 2.904537 1_454
Pt14 Zr0 2.885627 1_554
Pt15 Zr0 2.904537 1_565
Au0 Pt9 2.799338 1_556
Au0 Pt5 2.804204 1_555
Au0 Pt14 2.816211 1_556
Au0 Pt2 2.817902 1_555
Au0 Hf11 2.921507 1_555
Au0 Zr0 2.975963 1_555
Au0 Hf0 2.977137 1_556
Au0 Hf10 2.981334 1_555
Au0 Hf9 3.001774 1_556
Au1 Pt15 2.799338 1_554
Au1 Pt4 2.804204 1_555
Au1 Pt8 2.816211 1_554
Au1 Pt3 2.817902 1_555
Au1 Hf12 2.921507 1_555
Au1 Zr0 2.975963 1_554
Au1 Hf0 2.977137 1_555
Au1 Hf9 2.981334 1_555
Au1 Hf10 3.001774 1_554
