# generated using pymatgen
data_Lu4As6Ru7
_symmetry_space_group_name_H-M   'P 1'
_cell_length_a   7.11827241
_cell_length_b   7.11827154
_cell_length_c   7.11827280
_cell_angle_alpha   109.47122422
_cell_angle_beta   109.47122176
_cell_angle_gamma   109.47121412
_symmetry_Int_Tables_number   1
_chemical_formula_structural   Lu4As6Ru7
_chemical_formula_sum   'Lu4 As6 Ru7'
_cell_volume   277.65270029
_cell_formula_units_Z   1
loop_
 _symmetry_equiv_pos_site_id
 _symmetry_equiv_pos_as_xyz
  1  'x, y, z'
loop_
 _atom_site_type_symbol
 _atom_site_label
 _atom_site_symmetry_multiplicity
 _atom_site_fract_x
 _atom_site_fract_y
 _atom_site_fract_z
 _atom_site_occupancy
  Lu  Lu0  1  0.00000000  0.00000000  0.50000000  1
  Lu  Lu1  1  0.00000000  0.50000000  0.00000000  1
  Lu  Lu2  1  0.50000000  0.00000000  0.00000000  1
  Lu  Lu3  1  0.50000000  0.50000000  0.50000000  1
  As  As0  1  0.68531829  0.68531829  1.00000000  1
  As  As1  1  0.31468171  1.00000000  0.31468171  1
  As  As2  1  1.00000000  0.31468171  0.31468171  1
  As  As3  1  0.31468171  0.31468171  0.00000000  1
  As  As4  1  0.68531829  0.00000000  0.68531829  1
  As  As5  1  0.00000000  0.68531829  0.68531829  1
  Ru  Ru0  1  0.75000000  0.25000000  0.50000000  1
  Ru  Ru1  1  0.75000000  0.50000000  0.25000000  1
  Ru  Ru2  1  0.50000000  0.25000000  0.75000000  1
  Ru  Ru3  1  0.25000000  0.50000000  0.75000000  1
  Ru  Ru4  1  0.25000000  0.75000000  0.50000000  1
  Ru  Ru5  1  0.50000000  0.75000000  0.25000000  1
  Ru  Ru6  1  0.00000000  0.00000000  0.00000000  1
loop_
_geom_bond_atom_site_label_1
_geom_bond_atom_site_label_2
_geom_bond_distance
_geom_bond_site_symmetry_2
Lu0 Ru4 2.906022 1_545
Lu0 Ru0 2.906022 1_455
Lu0 Ru3 2.906022 1_555
Lu0 Ru1 2.906022 1_445
Lu0 Ru5 2.906023 1_445
Lu0 Ru2 2.906023 1_555
Lu1 Ru3 2.906023 1_554
Lu1 Ru1 2.906023 1_455
Lu1 Ru4 2.906023 1_555
Lu1 Ru0 2.906023 1_454
Lu1 Ru2 2.906023 1_454
Lu1 Ru5 2.906023 1_555
Lu2 Ru3 2.906022 1_544
Lu2 Ru1 2.906022 1_555
Lu2 Ru2 2.906023 1_554
Lu2 Ru5 2.906023 1_545
Lu2 Ru0 2.906023 1_555
Lu2 Ru4 2.906023 1_544
Lu3 Ru0 2.906022 1_555
Lu3 Ru4 2.906022 1_555
Lu3 Ru2 2.906023 1_555
Lu3 Ru5 2.906023 1_555
Lu3 Ru1 2.906023 1_555
Lu3 Ru3 2.906023 1_555
As0 Ru2 2.557866 1_555
As0 Ru1 2.557866 1_556
As0 Ru5 2.557866 1_556
As0 Ru3 2.557866 1_555
As0 Ru6 2.586518 1_666
As0 Lu2 2.954254 1_566
As0 Lu1 2.954254 1_656
As0 Lu0 2.954254 1_666
As0 Lu3 2.954254 1_555
As1 Ru5 2.557866 1_555
As1 Ru4 2.557866 1_555
As1 Ru2 2.557866 1_565
As1 Ru0 2.557866 1_565
As1 Ru6 2.586518 1_565
As1 Lu3 2.954254 1_565
As1 Lu1 2.954254 1_555
As1 Lu0 2.954254 1_565
As1 Lu2 2.954254 1_565
As2 Ru1 2.557866 1_555
As2 Ru4 2.557866 1_655
As2 Ru0 2.557866 1_555
As2 Ru3 2.557866 1_655
As2 Ru6 2.586518 1_655
As2 Lu0 2.954254 1_655
As2 Lu1 2.954254 1_655
As2 Lu3 2.954254 1_655
As2 Lu2 2.954254 1_555
As3 Ru5 2.557866 1_555
As3 Ru3 2.557866 1_554
As3 Ru2 2.557866 1_554
As3 Ru1 2.557866 1_555
As3 Ru6 2.586518 1_555
As3 Lu2 2.954254 1_555
As3 Lu1 2.954254 1_555
As3 Lu0 2.954254 1_554
As3 Lu3 2.954254 1_555
As4 Ru2 2.557866 1_555
As4 Ru0 2.557866 1_555
As4 Ru5 2.557866 1_545
As4 Ru4 2.557866 1_545
As4 Ru6 2.586518 1_656
As4 Lu3 2.954254 1_545
As4 Lu1 2.954254 1_656
As4 Lu0 2.954254 1_655
As4 Lu2 2.954254 1_556
As5 Ru3 2.557866 1_555
As5 Ru0 2.557866 1_455
As5 Ru4 2.557866 1_555
As5 Ru1 2.557866 1_455
As5 Ru6 2.586518 1_566
As5 Lu0 2.954254 1_565
As5 Lu1 2.954254 1_556
As5 Lu3 2.954254 1_455
As5 Lu2 2.954254 1_566
