# generated using pymatgen
data_SrAlIO6
_symmetry_space_group_name_H-M   'P 1'
_cell_length_a   5.02610474
_cell_length_b   5.02610400
_cell_length_c   5.42699125
_cell_angle_alpha   90.04271393
_cell_angle_beta   90.04272065
_cell_angle_gamma   119.97434427
_symmetry_Int_Tables_number   1
_chemical_formula_structural   SrAlIO6
_chemical_formula_sum   'Sr1 Al1 I1 O6'
_cell_volume   118.75844247
_cell_formula_units_Z   1
loop_
 _symmetry_equiv_pos_site_id
 _symmetry_equiv_pos_as_xyz
  1  'x, y, z'
loop_
 _atom_site_type_symbol
 _atom_site_label
 _atom_site_symmetry_multiplicity
 _atom_site_fract_x
 _atom_site_fract_y
 _atom_site_fract_z
 _atom_site_occupancy
  Sr  Sr0  1  0.99981317  0.00018783  0.50000000  1
  Al  Al0  1  0.33331721  0.66668279  0.00000000  1
  I  I0  1  0.66669999  0.33330001  0.00000000  1
  O  O0  1  0.99603174  0.37898110  0.19486481  1
  O  O1  1  0.62203308  0.61752621  0.19466241  1
  O  O2  1  0.38356080  0.00495768  0.19507639  1
  O  O3  1  0.99504232  0.61643820  0.80492261  1
  O  O4  1  0.38247579  0.37796892  0.80533859  1
  O  O5  1  0.62101990  0.00397026  0.80513619  1
loop_
_geom_bond_atom_site_label_1
_geom_bond_atom_site_label_2
_geom_bond_distance
_geom_bond_site_symmetry_2
Al0 O0 1.907529 1_455
Al0 O5 1.907533 1_564
Al0 O4 1.907656 1_554
Al0 O1 1.907662 1_555
Al0 O2 1.908708 1_565
Al0 O3 1.908709 1_454
I0 O4 1.877697 1_554
I0 O1 1.877703 1_555
I0 O2 1.878187 1_555
I0 O3 1.878188 1_554
I0 O5 1.878350 1_554
I0 O0 1.878360 1_555
O0 Sr0 2.531414 1_555
O1 Sr0 2.528189 1_565
O2 Sr0 2.533320 1_455
O3 Sr0 2.533322 1_565
O4 Sr0 2.528196 1_455
O5 Sr0 2.531420 1_555
