# generated using pymatgen
data_Cs3KHgCl6
_symmetry_space_group_name_H-M   'P 1'
_cell_length_a   9.16099644
_cell_length_b   9.16099709
_cell_length_c   9.16099591
_cell_angle_alpha   91.66163694
_cell_angle_beta   91.66164415
_cell_angle_gamma   91.66164019
_symmetry_Int_Tables_number   1
_chemical_formula_structural   Cs3KHgCl6
_chemical_formula_sum   'Cs6 K2 Hg2 Cl12'
_cell_volume   767.83709684
_cell_formula_units_Z   2
loop_
 _symmetry_equiv_pos_site_id
 _symmetry_equiv_pos_as_xyz
  1  'x, y, z'
loop_
 _atom_site_type_symbol
 _atom_site_label
 _atom_site_symmetry_multiplicity
 _atom_site_fract_x
 _atom_site_fract_y
 _atom_site_fract_z
 _atom_site_occupancy
  Cs  Cs0  1  0.74764989  0.37255106  0.12312518  1
  Cs  Cs1  1  0.62312518  0.87255106  0.24764889  1
  Cs  Cs2  1  0.12312618  0.74764889  0.37255206  1
  Cs  Cs3  1  0.87255206  0.24764889  0.62312618  1
  Cs  Cs4  1  0.37255206  0.12312618  0.74764889  1
  Cs  Cs5  1  0.24764889  0.62312518  0.87255106  1
  K  K0  1  0.24800593  0.24800593  0.24800593  1
  K  K1  1  0.74800593  0.74800593  0.74800593  1
  Hg  Hg0  1  0.49789743  0.49789743  0.49789743  1
  Hg  Hg1  1  0.99789843  0.99789743  0.99789843  1
  Cl  Cl0  1  0.91753802  0.71460420  0.04461877  1
  Cl  Cl1  1  0.28098200  0.95100794  0.07831957  1
  Cl  Cl2  1  0.41753902  0.54461777  0.21460420  1
  Cl  Cl3  1  0.95100794  0.07831957  0.28098100  1
  Cl  Cl4  1  0.54461777  0.21460420  0.41753902  1
  Cl  Cl5  1  0.78098100  0.57831957  0.45100794  1
  Cl  Cl6  1  0.21460420  0.41753902  0.54461777  1
  Cl  Cl7  1  0.45100794  0.78098100  0.57831957  1
  Cl  Cl8  1  0.04461877  0.91753902  0.71460320  1
  Cl  Cl9  1  0.57831957  0.45100794  0.78098200  1
  Cl  Cl10  1  0.71460420  0.04461777  0.91753902  1
  Cl  Cl11  1  0.07832057  0.28098100  0.95100794  1
loop_
_geom_bond_atom_site_label_1
_geom_bond_atom_site_label_2
_geom_bond_distance
_geom_bond_site_symmetry_2
Cl0 Hg1 2.726235 1_554
Cl0 K1 3.117737 1_554
Cl0 Cs2 3.500008 1_655
Cl0 Cs0 3.559685 1_555
Cl0 Cs5 3.560806 1_654
Cl0 Cs1 3.631628 1_555
Cl1 Hg1 2.724849 1_454
Cl1 K0 3.120910 1_565
Cl1 Cs5 3.500586 1_554
Cl1 Cs1 3.558162 1_555
Cl1 Cs4 3.565682 1_564
Cl1 Cs2 3.631594 1_555
Cl2 Hg0 2.726230 1_555
Cl2 K0 3.117734 1_555
Cl2 Cs1 3.499999 1_555
Cl2 Cs5 3.559694 1_554
Cl2 Cs0 3.560802 1_555
Cl2 Cs2 3.631636 1_555
Cl3 Hg1 2.724844 1_544
Cl3 K0 3.120908 1_655
Cl3 Cs1 3.500586 1_545
Cl3 Cs3 3.558176 1_555
Cl3 Cs2 3.565685 1_645
Cl3 Cs0 3.631582 1_555
Cl4 Hg0 2.726230 1_555
Cl4 K0 3.117734 1_555
Cl4 Cs3 3.500011 1_555
Cl4 Cs1 3.559695 1_545
Cl4 Cs4 3.560788 1_555
Cl4 Cs0 3.631644 1_555
Cl5 Hg0 2.724851 1_555
Cl5 K1 3.120908 1_555
Cl5 Cs0 3.500585 1_555
Cl5 Cs2 3.558176 1_655
Cl5 Cs3 3.565685 1_555
Cl5 Cs1 3.631587 1_555
Cl6 Hg0 2.726230 1_555
Cl6 K0 3.117734 1_555
Cl6 Cs5 3.499999 1_555
Cl6 Cs3 3.559689 1_455
Cl6 Cs2 3.560788 1_555
Cl6 Cs4 3.631636 1_555
Cl7 Hg0 2.724851 1_555
Cl7 K1 3.120908 1_555
Cl7 Cs2 3.500573 1_555
Cl7 Cs4 3.558176 1_565
Cl7 Cs1 3.565678 1_555
Cl7 Cs5 3.631587 1_555
Cl8 Hg1 2.726247 1_455
Cl8 K1 3.117743 1_455
Cl8 Cs4 3.500004 1_565
Cl8 Cs2 3.559678 1_555
Cl8 Cs3 3.560790 1_465
Cl8 Cs5 3.631638 1_555
Cl9 Hg0 2.724860 1_555
Cl9 K1 3.120910 1_555
Cl9 Cs4 3.500574 1_555
Cl9 Cs0 3.558166 1_556
Cl9 Cs5 3.565676 1_555
Cl9 Cs3 3.631594 1_555
Cl10 Hg1 2.726241 1_545
Cl10 K1 3.117734 1_545
Cl10 Cs0 3.500000 1_556
Cl10 Cs4 3.559688 1_555
Cl10 Cs1 3.560794 1_546
Cl10 Cs3 3.631636 1_555
Cl11 Hg1 2.724853 1_445
Cl11 K0 3.120904 1_556
Cl11 Cs3 3.500578 1_455
Cl11 Cs5 3.558166 1_555
Cl11 Cs0 3.565678 1_456
Cl11 Cs4 3.631583 1_555
