# generated using pymatgen
data_Ag2AsOsF12
_symmetry_space_group_name_H-M   'P 1'
_cell_length_a   5.21161178
_cell_length_b   5.78583028
_cell_length_c   7.76557364
_cell_angle_alpha   99.32555284
_cell_angle_beta   89.54193462
_cell_angle_gamma   90.39185559
_symmetry_Int_Tables_number   1
_chemical_formula_structural   Ag2AsOsF12
_chemical_formula_sum   'Ag2 As1 Os1 F12'
_cell_volume   231.05344938
_cell_formula_units_Z   1
loop_
 _symmetry_equiv_pos_site_id
 _symmetry_equiv_pos_as_xyz
  1  'x, y, z'
loop_
 _atom_site_type_symbol
 _atom_site_label
 _atom_site_symmetry_multiplicity
 _atom_site_fract_x
 _atom_site_fract_y
 _atom_site_fract_z
 _atom_site_occupancy
  Ag  Ag0  1  0.00000000  0.00000000  0.00000000  1
  Ag  Ag1  1  0.50000000  0.50000000  0.50000000  1
  As  As0  1  0.50000000  0.50000000  0.00000000  1
  Os  Os0  1  0.00000000  0.00000000  0.50000000  1
  F  F0  1  0.82860016  0.98814934  0.71618861  1
  F  F1  1  0.12018830  0.30925672  0.58402700  1
  F  F2  1  0.23185925  0.62776970  0.92035152  1
  F  F3  1  0.34029852  0.49610988  0.19847458  1
  F  F4  1  0.37679172  0.22173841  0.92023480  1
  F  F5  1  0.29730670  0.87082238  0.58891862  1
  F  F6  1  0.70269330  0.12917762  0.41108138  1
  F  F7  1  0.62320828  0.77826159  0.07976520  1
  F  F8  1  0.65970148  0.50389012  0.80152542  1
  F  F9  1  0.76814075  0.37223030  0.07964848  1
  F  F10  1  0.87981170  0.69074328  0.41597300  1
  F  F11  1  0.17139984  0.01185066  0.28381139  1
loop_
_geom_bond_atom_site_label_1
_geom_bond_atom_site_label_2
_geom_bond_distance
_geom_bond_site_symmetry_2
Ag0 F11 2.375232 1_555
Ag0 F0 2.375232 1_444
Ag0 F9 2.464324 1_455
Ag0 F2 2.464324 1_544
Ag0 F4 2.467660 1_554
Ag0 F7 2.467660 1_445
Ag1 F6 2.394814 1_555
Ag1 F5 2.394814 1_555
Ag1 F10 2.396817 1_555
Ag1 F1 2.396817 1_555
Ag1 F8 2.487924 1_555
Ag1 F3 2.487924 1_555
As0 F7 1.748437 1_555
As0 F4 1.748437 1_554
As0 F9 1.748728 1_555
As0 F2 1.748728 1_554
As0 F8 1.749062 1_554
As0 F3 1.749062 1_555
F0 Os0 1.906197 1_665
F1 Os0 1.905927 1_555
F5 Os0 1.906933 1_565
F6 Os0 1.906933 1_655
F10 Os0 1.905927 1_665
F11 Os0 1.906197 1_555
