# generated using pymatgen
data_Ga12MoIr2Ru
_symmetry_space_group_name_H-M   'P 1'
_cell_length_a   6.51896743
_cell_length_b   6.50898999
_cell_length_c   6.82708691
_cell_angle_alpha   90.00000000
_cell_angle_beta   90.00000000
_cell_angle_gamma   89.61195019
_symmetry_Int_Tables_number   1
_chemical_formula_structural   Ga12MoIr2Ru
_chemical_formula_sum   'Ga12 Mo1 Ir2 Ru1'
_cell_volume   289.67958210
_cell_formula_units_Z   1
loop_
 _symmetry_equiv_pos_site_id
 _symmetry_equiv_pos_as_xyz
  1  'x, y, z'
loop_
 _atom_site_type_symbol
 _atom_site_label
 _atom_site_symmetry_multiplicity
 _atom_site_fract_x
 _atom_site_fract_y
 _atom_site_fract_z
 _atom_site_occupancy
  Ga  Ga0  1  0.99979992  0.50175556  0.50000000  1
  Ga  Ga1  1  0.49950625  0.00105610  0.00000000  1
  Ga  Ga2  1  0.49939070  0.99822176  0.50000000  1
  Ga  Ga3  1  0.00322704  0.49358236  0.00000000  1
  Ga  Ga4  1  0.34361421  0.65071055  0.23579870  1
  Ga  Ga5  1  0.64869037  0.34626174  0.23269910  1
  Ga  Ga6  1  0.16254396  0.15469337  0.73540712  1
  Ga  Ga7  1  0.84819991  0.84038080  0.73330463  1
  Ga  Ga8  1  0.64869037  0.34626174  0.76730090  1
  Ga  Ga9  1  0.34361421  0.65071055  0.76420130  1
  Ga  Ga10  1  0.84819991  0.84038080  0.26669537  1
  Ga  Ga11  1  0.16254396  0.15469337  0.26459288  1
  Mo  Mo0  1  0.15579084  0.84565123  0.50000000  1
  Ir  Ir0  1  0.83038195  0.17029225  0.50000000  1
  Ir  Ir1  1  0.66263222  0.66236681  0.00000000  1
  Ru  Ru0  1  0.34317217  0.34298100  0.00000000  1
loop_
_geom_bond_atom_site_label_1
_geom_bond_atom_site_label_2
_geom_bond_distance
_geom_bond_site_symmetry_2
Ga0 Ir0 2.430393 1_555
Ga0 Mo0 2.464835 1_655
Ga0 Ga7 2.888297 1_555
Ga0 Ga10 2.888297 1_555
Ga0 Ga6 2.962971 1_655
Ga0 Ga11 2.962971 1_655
Ga0 Ga9 3.040784 1_655
Ga0 Ga4 3.040784 1_655
Ga0 Ga8 3.102400 1_555
Ga0 Ga5 3.102400 1_555
Ga1 Ir1 2.441111 1_545
Ga1 Ru0 2.441546 1_555
Ga1 Ga5 2.923692 1_555
Ga1 Ga8 2.923692 1_554
Ga1 Ga4 2.975884 1_545
Ga1 Ga9 2.975884 1_544
Ga1 Ga11 3.009755 1_555
Ga1 Ga6 3.009755 1_554
Ga1 Ga10 3.089303 1_545
Ga1 Ga7 3.089303 1_544
Ga2 Ir0 2.437808 1_565
Ga2 Mo0 2.456331 1_555
Ga2 Ga6 2.900319 1_565
Ga2 Ga7 2.954889 1_555
Ga2 Ga9 3.071187 1_555
Ga2 Ga4 3.071187 1_555
Ga2 Ga8 3.072350 1_565
Ga2 Ga5 3.072350 1_565
Ga3 Ru0 2.417137 1_555
Ga3 Ir1 2.470580 1_455
Ga3 Ga4 2.931229 1_555
Ga3 Ga9 2.931229 1_554
Ga3 Ga5 2.969017 1_455
Ga3 Ga8 2.969017 1_454
Ga3 Ga6 3.029251 1_554
Ga3 Ga7 3.066109 1_454
Ga4 Mo0 2.518252 1_555
Ga4 Ru0 2.569756 1_555
Ga4 Ir1 2.631431 1_555
Ga4 Ga5 2.798083 1_555
Ga5 Ir0 2.454922 1_555
Ga5 Ru0 2.547859 1_555
Ga5 Ir1 2.601544 1_555
Ga6 Ru0 2.484181 1_556
Ga6 Mo0 2.575344 1_545
Ga6 Ir0 2.697962 1_455
Ga6 Ga7 2.905467 1_445
Ga7 Ir1 2.477920 1_556
Ga7 Mo0 2.561214 1_655
Ga7 Ir0 2.675515 1_565
Ga8 Ir0 2.454922 1_555
Ga8 Ru0 2.547859 1_556
Ga8 Ir1 2.601544 1_556
Ga8 Ga9 2.798083 1_555
Ga9 Mo0 2.518252 1_555
Ga9 Ru0 2.569756 1_556
Ga9 Ir1 2.631431 1_556
Ga10 Ir1 2.477920 1_555
Ga10 Mo0 2.561214 1_655
Ga10 Ir0 2.675515 1_565
Ga10 Ga11 2.905467 1_665
Ga10 Ga2 2.954889 1_555
Ga10 Ga3 3.066109 1_655
Ga11 Ru0 2.484181 1_555
Ga11 Mo0 2.575344 1_545
Ga11 Ir0 2.697962 1_455
Ga11 Ga2 2.900319 1_545
Ga11 Ga3 3.029251 1_555
