# generated using pymatgen
data_BaCaAs2O7
_symmetry_space_group_name_H-M   'P 1'
_cell_length_a   5.95917683
_cell_length_b   7.33932245
_cell_length_c   7.81129124
_cell_angle_alpha   100.70233158
_cell_angle_beta   90.61148657
_cell_angle_gamma   96.68619213
_symmetry_Int_Tables_number   1
_chemical_formula_structural   BaCaAs2O7
_chemical_formula_sum   'Ba2 Ca2 As4 O14'
_cell_volume   333.22869789
_cell_formula_units_Z   2
loop_
 _symmetry_equiv_pos_site_id
 _symmetry_equiv_pos_as_xyz
  1  'x, y, z'
loop_
 _atom_site_type_symbol
 _atom_site_label
 _atom_site_symmetry_multiplicity
 _atom_site_fract_x
 _atom_site_fract_y
 _atom_site_fract_z
 _atom_site_occupancy
  Ba  Ba0  1  0.70645733  0.27345652  0.93323199  1
  Ba  Ba1  1  0.29354267  0.72654348  0.06676801  1
  Ca  Ca0  1  0.31108802  0.83562114  0.60287504  1
  Ca  Ca1  1  0.68891198  0.16437886  0.39712496  1
  As  As0  1  0.81029336  0.77558795  0.81479441  1
  As  As1  1  0.18970664  0.22441205  0.18520559  1
  As  As2  1  0.78772161  0.66893702  0.39561952  1
  As  As3  1  0.21227839  0.33106298  0.60438048  1
  O  O0  1  0.94918848  0.23242941  0.62820581  1
  O  O1  1  0.05081152  0.76757059  0.37179419  1
  O  O2  1  0.78443821  0.64210388  0.96709255  1
  O  O3  1  0.21556179  0.35789612  0.03290745  1
  O  O4  1  0.77984736  0.61834812  0.61067893  1
  O  O5  1  0.22015264  0.38165188  0.38932107  1
  O  O6  1  0.59323945  0.90416746  0.81984094  1
  O  O7  1  0.40676055  0.09583254  0.18015906  1
  O  O8  1  0.59388455  0.82028296  0.38760203  1
  O  O9  1  0.40611545  0.17971704  0.61239797  1
  O  O10  1  0.28561459  0.54584751  0.71958792  1
  O  O11  1  0.71438541  0.45415249  0.28041208  1
  O  O12  1  0.06655534  0.89868518  0.82377208  1
  O  O13  1  0.93344466  0.10131482  0.17622792  1
loop_
_geom_bond_atom_site_label_1
_geom_bond_atom_site_label_2
_geom_bond_distance
_geom_bond_site_symmetry_2
Ba0 O2 2.654261 1_555
Ba0 O6 2.693589 1_545
Ba0 O11 2.786112 1_556
Ba0 O0 2.787203 1_555
Ba0 O13 2.874461 1_556
Ba0 O9 2.989062 1_555
Ba0 O7 3.012425 1_556
Ba0 O3 3.086588 1_656
Ba0 O3 3.136783 1_556
Ba1 O3 2.654261 1_555
Ba1 O7 2.693589 1_565
Ba1 O10 2.786112 1_554
Ba1 O1 2.787203 1_555
Ba1 O12 2.874461 1_554
Ba1 O8 2.989062 1_555
Ba1 O6 3.012425 1_554
Ba1 O2 3.086588 1_454
Ba1 O2 3.136783 1_554
Ca0 O12 2.286727 1_555
Ca0 O1 2.310484 1_555
Ca0 O6 2.319049 1_555
Ca0 O8 2.390541 1_555
Ca0 O10 2.454617 1_555
Ca0 O9 2.510044 1_565
Ca1 O13 2.286727 1_555
Ca1 O0 2.310484 1_555
Ca1 O7 2.319049 1_555
Ca1 O9 2.390541 1_555
Ca1 O11 2.454617 1_555
Ca1 O8 2.510044 1_545
As0 O2 1.673442 1_555
As0 O12 1.675147 1_655
As0 O6 1.684237 1_555
As0 O4 1.780031 1_555
As1 O3 1.673442 1_555
As1 O13 1.675147 1_455
As1 O7 1.684237 1_555
As1 O5 1.780031 1_555
As2 O11 1.670356 1_555
As2 O1 1.675902 1_655
As2 O8 1.701498 1_555
As2 O4 1.786443 1_555
As3 O10 1.670356 1_555
As3 O0 1.675902 1_455
As3 O9 1.701498 1_555
As3 O5 1.786443 1_555
