# generated using pymatgen
data_TaV(Ag3Se4)2
_symmetry_space_group_name_H-M   'P 1'
_cell_length_a   8.75666582
_cell_length_b   8.75666582
_cell_length_c   6.19604609
_cell_angle_alpha   90.00000000
_cell_angle_beta   90.00000000
_cell_angle_gamma   90.00000000
_symmetry_Int_Tables_number   1
_chemical_formula_structural   TaV(Ag3Se4)2
_chemical_formula_sum   'Ta1 V1 Ag6 Se8'
_cell_volume   475.10783483
_cell_formula_units_Z   1
loop_
 _symmetry_equiv_pos_site_id
 _symmetry_equiv_pos_as_xyz
  1  'x, y, z'
loop_
 _atom_site_type_symbol
 _atom_site_label
 _atom_site_symmetry_multiplicity
 _atom_site_fract_x
 _atom_site_fract_y
 _atom_site_fract_z
 _atom_site_occupancy
  Ta  Ta0  1  0.00000000  0.00000000  0.00000000  1
  V  V0  1  0.50000000  0.50000000  0.00000000  1
  Ag  Ag0  1  0.25125416  0.74874584  0.00000000  1
  Ag  Ag1  1  0.74874584  0.25125416  0.00000000  1
  Ag  Ag2  1  0.25125416  0.25125416  0.00000000  1
  Ag  Ag3  1  0.74874584  0.74874584  0.00000000  1
  Ag  Ag4  1  0.00000000  0.00000000  0.50000000  1
  Ag  Ag5  1  0.50000000  0.50000000  0.50000000  1
  Se  Se0  1  0.50000000  0.27857033  0.77766848  1
  Se  Se1  1  0.00000000  0.76957459  0.77018223  1
  Se  Se2  1  0.50000000  0.72142967  0.77766848  1
  Se  Se3  1  0.00000000  0.23042541  0.77018223  1
  Se  Se4  1  0.76957459  0.00000000  0.22981777  1
  Se  Se5  1  0.27857033  0.50000000  0.22233152  1
  Se  Se6  1  0.23042541  0.00000000  0.22981777  1
  Se  Se7  1  0.72142967  0.50000000  0.22233152  1
loop_
_geom_bond_atom_site_label_1
_geom_bond_atom_site_label_2
_geom_bond_distance
_geom_bond_site_symmetry_2
Ag0 Se5 2.588324 1_555
Ag0 Se2 2.588324 1_554
Ag0 Se1 2.627087 1_554
Ag0 Se6 2.627087 1_565
Ag1 Se0 2.588324 1_554
Ag1 Se7 2.588324 1_555
Ag1 Se4 2.627087 1_555
Ag1 Se3 2.627087 1_654
Ag2 Se5 2.588324 1_555
Ag2 Se0 2.588324 1_554
Ag2 Se6 2.627087 1_555
Ag2 Se3 2.627087 1_554
Ag3 Se7 2.588324 1_555
Ag3 Se2 2.588324 1_554
Ag3 Se4 2.627087 1_565
Ag3 Se1 2.627087 1_654
Ag4 Se3 2.621799 1_555
Ag4 Se6 2.621799 1_555
Ag4 Se1 2.621799 1_545
Ag4 Se4 2.621799 1_455
Ag5 Se2 2.592219 1_555
Ag5 Se7 2.592219 1_555
Ag5 Se0 2.592219 1_555
Ag5 Se5 2.592219 1_555
Se0 V0 2.378525 1_556
Se1 Ta0 2.469618 1_566
Se2 V0 2.378525 1_556
Se3 Ta0 2.469618 1_556
Se4 Ta0 2.469618 1_655
Se5 V0 2.378525 1_555
Se6 Ta0 2.469618 1_555
Se7 V0 2.378525 1_555
