# generated using pymatgen
data_RbNa3(Ga2Se3)2
_symmetry_space_group_name_H-M   'P 1'
_cell_length_a   7.02204849
_cell_length_b   7.02204916
_cell_length_c   8.76540688
_cell_angle_alpha   82.17071284
_cell_angle_beta   82.17071476
_cell_angle_gamma   120.12126492
_symmetry_Int_Tables_number   1
_chemical_formula_structural   RbNa3(Ga2Se3)2
_chemical_formula_sum   'Rb1 Na3 Ga4 Se6'
_cell_volume   359.65570443
_cell_formula_units_Z   1
loop_
 _symmetry_equiv_pos_site_id
 _symmetry_equiv_pos_as_xyz
  1  'x, y, z'
loop_
 _atom_site_type_symbol
 _atom_site_label
 _atom_site_symmetry_multiplicity
 _atom_site_fract_x
 _atom_site_fract_y
 _atom_site_fract_z
 _atom_site_occupancy
  Rb  Rb0  1  0.50000000  0.50000000  0.50000000  1
  Na  Na0  1  0.65662312  0.34337688  1.00000000  1
  Na  Na1  1  0.34337688  0.65662312  0.00000000  1
  Na  Na2  1  0.00000000  0.00000000  0.00000000  1
  Ga  Ga0  1  0.88097215  0.21486011  0.35466246  1
  Ga  Ga1  1  0.78513989  0.11902785  0.64533754  1
  Ga  Ga2  1  0.21486011  0.88097215  0.35466246  1
  Ga  Ga3  1  0.11902785  0.78513989  0.64533754  1
  Se  Se0  1  0.40905746  0.04231764  0.77113255  1
  Se  Se1  1  0.04231764  0.40905746  0.77113255  1
  Se  Se2  1  0.95768236  0.59094254  0.22886745  1
  Se  Se3  1  0.77392231  0.77392231  0.77148088  1
  Se  Se4  1  0.59094254  0.95768236  0.22886745  1
  Se  Se5  1  0.22607769  0.22607769  0.22851912  1
loop_
_geom_bond_atom_site_label_1
_geom_bond_atom_site_label_2
_geom_bond_distance
_geom_bond_site_symmetry_2
Rb0 Se1 3.439564 1_555
Rb0 Se2 3.439564 1_555
Rb0 Se0 3.439564 1_555
Rb0 Se4 3.439564 1_555
Rb0 Se3 3.441373 1_555
Rb0 Se5 3.441373 1_555
Na0 Se1 2.930258 1_655
Na0 Se4 2.930258 1_546
Na0 Se5 3.038481 1_556
Na0 Se3 3.038481 1_555
Na0 Se2 3.151639 1_556
Na0 Se0 3.151640 1_555
Na1 Se2 2.930258 1_455
Na1 Se0 2.930258 1_564
Na1 Se3 3.038481 1_554
Na1 Se5 3.038481 1_555
Na1 Se1 3.151639 1_554
Na1 Se4 3.151640 1_555
Na2 Se5 2.873321 1_555
Na2 Se3 2.873321 1_444
Na2 Se4 3.126432 1_445
Na2 Se0 3.126432 1_554
Na2 Se2 3.126432 1_445
Na2 Se1 3.126432 1_554
Ga0 Se4 2.467351 1_545
Ga0 Se2 2.469264 1_555
Ga0 Se5 2.481141 1_655
Ga1 Se1 2.467351 1_655
Ga1 Se0 2.469264 1_555
Ga1 Se3 2.481141 1_545
Ga2 Se2 2.467351 1_455
Ga2 Se4 2.469264 1_555
Ga2 Se5 2.481141 1_565
Ga3 Se0 2.467351 1_565
Ga3 Se1 2.469264 1_555
Ga3 Se3 2.481141 1_455
