# generated using pymatgen
data_Ba10VTcN10
_symmetry_space_group_name_H-M   'P 1'
_cell_length_a   8.05809092
_cell_length_b   8.05809065
_cell_length_c   9.53025281
_cell_angle_alpha   76.21270383
_cell_angle_beta   76.21270550
_cell_angle_gamma   96.51204479
_symmetry_Int_Tables_number   1
_chemical_formula_structural   Ba10VTcN10
_chemical_formula_sum   'Ba10 V1 Tc1 N10'
_cell_volume   574.09738161
_cell_formula_units_Z   1
loop_
 _symmetry_equiv_pos_site_id
 _symmetry_equiv_pos_as_xyz
  1  'x, y, z'
loop_
 _atom_site_type_symbol
 _atom_site_label
 _atom_site_symmetry_multiplicity
 _atom_site_fract_x
 _atom_site_fract_y
 _atom_site_fract_z
 _atom_site_occupancy
  Ba  Ba0  1  0.38815252  0.39192489  0.38312764  1
  Ba  Ba1  1  0.60807511  0.61184748  0.61687236  1
  Ba  Ba2  1  0.66329654  0.66678533  0.00809485  1
  Ba  Ba3  1  0.33321467  0.33670346  0.99190515  1
  Ba  Ba4  1  0.92871942  0.91601982  0.20267077  1
  Ba  Ba5  1  0.08398018  0.07128058  0.79732923  1
  Ba  Ba6  1  0.55528313  0.08865508  0.75473806  1
  Ba  Ba7  1  0.91134492  0.44471687  0.24526194  1
  Ba  Ba8  1  0.42786895  0.89675681  0.24561610  1
  Ba  Ba9  1  0.10324319  0.57213105  0.75438390  1
  V  V0  1  0.24268588  0.75731412  1.00000000  1
  Tc  Tc0  1  0.75733439  0.24266561  0.00000000  1
  N  N0  1  0.65268137  0.65212342  0.30994541  1
  N  N1  1  0.34787658  0.34731863  0.69005459  1
  N  N2  1  0.71585948  0.02118960  0.98976468  1
  N  N3  1  0.97881040  0.28414052  0.01023532  1
  N  N4  1  0.28377437  0.98198156  0.00833626  1
  N  N5  1  0.01801844  0.71622563  0.99166374  1
  N  N6  1  0.39084730  0.73116688  0.83217446  1
  N  N7  1  0.26883312  0.60915270  0.16782454  1
  N  N8  1  0.60872186  0.26862385  0.16476403  1
  N  N9  1  0.73137615  0.39127814  0.83523497  1
loop_
_geom_bond_atom_site_label_1
_geom_bond_atom_site_label_2
_geom_bond_distance
_geom_bond_site_symmetry_2
Ba0 N0 2.647064 1_555
Ba0 N7 2.794443 1_555
Ba0 N1 2.794747 1_555
Ba0 N8 2.846074 1_555
Ba1 N1 2.647064 1_555
Ba1 N6 2.794437 1_555
Ba1 N0 2.794747 1_555
Ba1 N9 2.846067 1_555
Ba2 N2 2.796107 1_564
Ba2 N5 2.802179 1_654
Ba2 N0 2.831108 1_555
Ba2 N6 3.081891 1_554
Ba2 N9 3.087435 1_554
Ba2 N7 3.107814 1_555
Ba2 N8 3.130555 1_555
Ba3 N3 2.796107 1_456
Ba3 N4 2.802179 1_546
Ba3 N1 2.831108 1_555
Ba3 N7 3.081884 1_556
Ba3 N8 3.087429 1_556
Ba3 N6 3.107816 1_555
Ba3 N9 3.130557 1_555
Ba4 N0 2.705898 1_555
Ba4 N5 2.875740 1_654
Ba4 N4 2.925501 1_655
Ba4 N2 2.991030 1_564
Ba4 N3 3.017974 1_565
Ba5 N1 2.705898 1_555
Ba5 N4 2.875740 1_546
Ba5 N5 2.925501 1_545
Ba5 N3 2.991030 1_456
Ba5 N2 3.017974 1_455
Ba6 N4 2.725736 1_546
Ba6 N2 2.819111 1_555
Ba6 N1 2.861206 1_555
Ba6 N6 2.872886 1_545
Ba6 N9 3.028905 1_555
Ba7 N5 2.725736 1_654
Ba7 N3 2.819111 1_555
Ba7 N0 2.861206 1_555
Ba7 N7 2.872885 1_655
Ba7 N8 3.028910 1_555
Ba8 N4 2.761459 1_555
Ba8 N2 2.818882 1_564
Ba8 N7 2.856756 1_555
Ba8 N0 2.882166 1_555
Ba8 N8 3.011726 1_565
Ba9 N5 2.761459 1_555
Ba9 N3 2.818882 1_456
Ba9 N6 2.856750 1_555
Ba9 N1 2.882166 1_555
Ba9 N9 3.011727 1_455
N2 Tc0 1.808175 1_556
N3 Tc0 1.808175 1_555
N4 V0 1.827178 1_554
N5 V0 1.827178 1_555
N6 V0 1.826322 1_555
N7 V0 1.826315 1_554
N8 Tc0 1.805713 1_555
N9 Tc0 1.805720 1_556
