# generated using pymatgen
data_Ca10Si4Pb2F
_symmetry_space_group_name_H-M   'P 1'
_cell_length_a   9.24715592
_cell_length_b   9.24716358
_cell_length_c   9.24566689
_cell_angle_alpha   129.75198329
_cell_angle_beta   129.75205409
_cell_angle_gamma   73.79076912
_symmetry_Int_Tables_number   1
_chemical_formula_structural   Ca10Si4Pb2F
_chemical_formula_sum   'Ca10 Si4 Pb2 F1'
_cell_volume   455.90680736
_cell_formula_units_Z   1
loop_
 _symmetry_equiv_pos_site_id
 _symmetry_equiv_pos_as_xyz
  1  'x, y, z'
loop_
 _atom_site_type_symbol
 _atom_site_label
 _atom_site_symmetry_multiplicity
 _atom_site_fract_x
 _atom_site_fract_y
 _atom_site_fract_z
 _atom_site_occupancy
  Ca  Ca0  1  0.76777707  0.44089520  0.00001184  1
  Ca  Ca1  1  0.44089620  0.76777807  0.00001284  1
  Ca  Ca2  1  0.93735761  0.93735761  0.64242424  1
  Ca  Ca3  1  0.29504495  0.29504595  0.35770130  1
  Ca  Ca4  1  0.70463586  0.06287838  0.99998220  1
  Ca  Ca5  1  0.06287838  0.70463486  0.99998120  1
  Ca  Ca6  1  0.55885463  0.55885463  0.32631928  1
  Ca  Ca7  1  0.23251993  0.23252093  0.67365681  1
  Ca  Ca8  1  0.24999533  0.75002615  0.49999283  1
  Ca  Ca9  1  0.75002715  0.24999533  0.49999283  1
  Si  Si0  1  0.13636177  0.35842880  0.00001192  1
  Si  Si1  1  0.35842880  0.13636277  0.00001192  1
  Si  Si2  1  0.86352132  0.86352132  0.22182997  1
  Si  Si3  1  0.64168021  0.64167821  0.77818733  1
  Pb  Pb0  1  0.00000627  0.49998588  0.49996642  1
  Pb  Pb1  1  0.49998788  0.00000827  0.49996742  1
  F  F0  1  0.50002765  0.50002765  0.99995067  1
loop_
_geom_bond_atom_site_label_1
_geom_bond_atom_site_label_2
_geom_bond_distance
_geom_bond_site_symmetry_2
Ca0 F0 2.381584 1_554
Ca0 Si3 3.100964 1_554
Ca0 Si2 3.101938 1_555
Ca0 Si0 3.278317 1_655
Ca0 Pb0 3.317591 1_655
Ca0 Pb1 3.319064 1_554
Ca1 F0 2.381591 1_554
Ca1 Si3 3.100975 1_554
Ca1 Si2 3.101926 1_555
Ca1 Si1 3.278324 1_565
Ca1 Pb1 3.317586 1_565
Ca1 Pb0 3.319084 1_554
Ca2 Si1 3.038642 1_666
Ca2 Si0 3.038644 1_666
Ca2 Si2 3.085944 1_555
Ca2 Pb1 3.358980 1_565
Ca2 Pb0 3.358997 1_655
Ca3 Si0 3.037432 1_555
Ca3 Si1 3.037441 1_555
Ca3 Si3 3.086147 1_555
Ca3 Pb1 3.358570 1_555
Ca3 Pb0 3.358570 1_555
Ca4 Si2 3.038724 1_546
Ca4 Si3 3.039499 1_545
Ca4 Si1 3.081763 1_556
Ca4 Pb1 3.358443 1_555
Ca4 Pb0 3.359484 1_656
Ca5 Si2 3.038730 1_456
Ca5 Si3 3.039481 1_455
Ca5 Si0 3.081762 1_556
Ca5 Pb0 3.358432 1_555
Ca5 Pb1 3.359500 1_566
Ca6 F0 2.379848 1_554
Ca6 Si1 3.101181 1_555
Ca6 Si0 3.101184 1_555
Ca6 Si3 3.281815 1_555
Ca6 Pb0 3.319203 1_655
Ca6 Pb1 3.319220 1_565
Ca7 F0 2.380589 1_555
Ca7 Si1 3.100183 1_556
Ca7 Si0 3.100187 1_556
Ca7 Si2 3.282829 1_445
Ca7 Pb0 3.318709 1_555
Ca7 Pb1 3.318728 1_555
Ca8 Si1 3.176376 1_566
Ca8 Si0 3.176384 1_555
Ca8 Si2 3.176605 1_455
Ca8 Si3 3.177011 1_555
Ca8 Pb1 3.697630 1_565
Ca8 Pb0 3.697651 1_555
Ca9 Si0 3.176366 1_656
Ca9 Si1 3.176385 1_555
Ca9 Si2 3.176604 1_545
Ca9 Si3 3.177001 1_555
Ca9 Pb0 3.697600 1_655
Ca9 Pb1 3.697636 1_555
Si0 Si1 2.465643 1_555
Si2 Si3 2.463253 1_554
