# generated using pymatgen
data_PAuBr4
_symmetry_space_group_name_H-M   'P 1'
_cell_length_a   15.49085055
_cell_length_b   6.44738174
_cell_length_c   7.82955253
_cell_angle_alpha   82.70619768
_cell_angle_beta   90.00000000
_cell_angle_gamma   90.00000000
_symmetry_Int_Tables_number   1
_chemical_formula_structural   PAuBr4
_chemical_formula_sum   'P4 Au4 Br16'
_cell_volume   775.65226261
_cell_formula_units_Z   4
loop_
 _symmetry_equiv_pos_site_id
 _symmetry_equiv_pos_as_xyz
  1  'x, y, z'
loop_
 _atom_site_type_symbol
 _atom_site_label
 _atom_site_symmetry_multiplicity
 _atom_site_fract_x
 _atom_site_fract_y
 _atom_site_fract_z
 _atom_site_occupancy
  P  P0  1  0.86993260  0.48417117  0.74453712  1
  P  P1  1  0.63006740  0.98417117  0.74453712  1
  P  P2  1  0.13006740  0.51582883  0.25546288  1
  P  P3  1  0.36993260  0.01582883  0.25546288  1
  Au  Au0  1  0.73062909  0.00124244  0.54157849  1
  Au  Au1  1  0.23062909  0.49875756  0.45842151  1
  Au  Au2  1  0.26937091  0.99875756  0.45842151  1
  Au  Au3  1  0.76937091  0.50124244  0.54157849  1
  Br  Br0  1  0.51301082  0.17279892  0.68709509  1
  Br  Br1  1  0.98698918  0.67279892  0.68709509  1
  Br  Br2  1  0.48698918  0.82720108  0.31290491  1
  Br  Br3  1  0.01301082  0.32720108  0.31290491  1
  Br  Br4  1  0.65857745  0.50623308  0.32234689  1
  Br  Br5  1  0.15857745  0.99376692  0.67765311  1
  Br  Br6  1  0.34142255  0.49376692  0.67765311  1
  Br  Br7  1  0.84142255  0.00623308  0.32234689  1
  Br  Br8  1  0.82398095  0.58171424  0.98614900  1
  Br  Br9  1  0.32398095  0.91828576  0.01385100  1
  Br  Br10  1  0.17601905  0.41828576  0.01385100  1
  Br  Br11  1  0.67601905  0.08171424  0.98614900  1
  Br  Br12  1  0.92130196  0.16831792  0.81727665  1
  Br  Br13  1  0.42130196  0.33168208  0.18272335  1
  Br  Br14  1  0.07869804  0.83168208  0.18272335  1
  Br  Br15  1  0.57869804  0.66831792  0.81727665  1
loop_
_geom_bond_atom_site_label_1
_geom_bond_atom_site_label_2
_geom_bond_distance
_geom_bond_site_symmetry_2
Au0 P1 2.218009 1_545
Au0 Br7 2.424658 1_555
Au1 P2 2.218009 1_555
Au1 Br6 2.424658 1_555
Au2 P3 2.218009 1_565
Au2 Br5 2.424658 1_555
Au3 P0 2.218009 1_555
Au3 Br4 2.424658 1_555
Br0 P1 2.197840 1_545
Br1 P0 2.197840 1_555
Br2 P3 2.197840 1_565
Br3 P2 2.197840 1_555
Br8 P0 2.186978 1_555
Br9 P3 2.186978 1_565
Br10 P2 2.186978 1_555
Br11 P1 2.186978 1_545
Br12 P0 2.193200 1_555
Br13 P3 2.193200 1_555
Br14 P2 2.193200 1_555
Br15 P1 2.193200 1_555
