# generated using pymatgen
data_Mg(FeO2)2
_symmetry_space_group_name_H-M   'P 1'
_cell_length_a   6.03800077
_cell_length_b   6.03800077
_cell_length_c   20.01395315
_cell_angle_alpha   81.23445120
_cell_angle_beta   81.23445120
_cell_angle_gamma   60.02425219
_symmetry_Int_Tables_number   1
_chemical_formula_structural   Mg(FeO2)2
_chemical_formula_sum   'Mg8 Fe16 O32'
_cell_volume   622.19156714
_cell_formula_units_Z   8
loop_
 _symmetry_equiv_pos_site_id
 _symmetry_equiv_pos_as_xyz
  1  'x, y, z'
loop_
 _atom_site_type_symbol
 _atom_site_label
 _atom_site_symmetry_multiplicity
 _atom_site_fract_x
 _atom_site_fract_y
 _atom_site_fract_z
 _atom_site_occupancy
  Mg  Mg0  1  0.84635000  0.84635000  0.96950400  1
  Mg  Mg1  1  0.37615600  0.37615600  0.87508000  1
  Mg  Mg2  1  0.59669100  0.59669100  0.71839900  1
  Mg  Mg3  1  0.12563000  0.12563000  0.62459600  1
  Mg  Mg4  1  0.87497900  0.87497900  0.37517500  1
  Mg  Mg5  1  0.99986500  0.99986500  0.50035000  1
  Mg  Mg6  1  0.62533000  0.62533000  0.12566300  1
  Mg  Mg7  1  0.74977800  0.74977800  0.25047800  1
  Fe  Fe0  1  0.37781200  0.86649200  0.87524400  1
  Fe  Fe1  1  0.25026900  0.25026900  0.74699800  1
  Fe  Fe2  1  0.86649200  0.37781200  0.87524400  1
  Fe  Fe3  1  0.34778300  0.34778300  0.46720900  1
  Fe  Fe4  1  0.12553900  0.62181400  0.62497100  1
  Fe  Fe5  1  0.90247700  0.90247700  0.78078100  1
  Fe  Fe6  1  0.09752200  0.09752200  0.21841100  1
  Fe  Fe7  1  0.62181400  0.12553900  0.62497100  1
  Fe  Fe8  1  0.87484600  0.37484700  0.37530000  1
  Fe  Fe9  1  0.65199700  0.65199700  0.53279100  1
  Fe  Fe10  1  0.37484700  0.87484600  0.37530000  1
  Fe  Fe11  1  0.12002300  0.62700000  0.12560300  1
  Fe  Fe12  1  0.62700000  0.12002300  0.12560300  1
  Fe  Fe13  1  0.40224600  0.40224600  0.28252900  1
  Fe  Fe14  1  0.49997900  0.49997900  0.99721700  1
  Fe  Fe15  1  0.15264200  0.15264200  0.03044900  1
  O  O0  1  0.67996400  0.21537200  0.93617300  1
  O  O1  1  0.56415100  0.56415100  0.81974500  1
  O  O2  1  0.21537200  0.67996400  0.93617300  1
  O  O3  1  0.67666700  0.67666700  0.93538100  1
  O  O4  1  0.07045400  0.07045400  0.81441700  1
  O  O5  1  0.42952400  0.96770500  0.68561100  1
  O  O6  1  0.54314500  0.06848200  0.81395300  1
  O  O7  1  0.31379300  0.31379300  0.56604900  1
  O  O8  1  0.96770500  0.42952400  0.68561100  1
  O  O9  1  0.18710000  0.18710000  0.93268500  1
  O  O10  1  0.42573000  0.42573000  0.68488600  1
  O  O11  1  0.06848200  0.54314500  0.81395300  1
  O  O12  1  0.18513200  0.70490900  0.43490700  1
  O  O13  1  0.81878800  0.81878800  0.56573900  1
  O  O14  1  0.29668400  0.81432800  0.56523700  1
  O  O15  1  0.06325800  0.06325800  0.31762500  1
  O  O16  1  0.70490900  0.18513200  0.43490700  1
  O  O17  1  0.93712900  0.93712900  0.68290900  1
  O  O18  1  0.18023600  0.18023600  0.43438400  1
  O  O19  1  0.81432800  0.29668400  0.56523700  1
  O  O20  1  0.56956600  0.56956600  0.31519900  1
  O  O21  1  0.93570400  0.45242400  0.18525500  1
  O  O22  1  0.04616000  0.56472200  0.31466200  1
  O  O23  1  0.81353800  0.81353800  0.07146200  1
  O  O24  1  0.45242400  0.93570400  0.18525500  1
  O  O25  1  0.68670800  0.68670800  0.43229500  1
  O  O26  1  0.93144600  0.93144600  0.18478900  1
  O  O27  1  0.56472200  0.04616000  0.31466200  1
  O  O28  1  0.32118500  0.32118500  0.06397400  1
  O  O29  1  0.79254300  0.31882000  0.06349200  1
  O  O30  1  0.43656400  0.43656400  0.18201700  1
  O  O31  1  0.31882000  0.79254300  0.06349200  1
loop_
_geom_bond_atom_site_label_1
_geom_bond_atom_site_label_2
_geom_bond_distance
_geom_bond_site_symmetry_2
Mg0 O2 1.983272 1_655
Mg0 O0 1.983272 1_565
Mg0 O23 2.008798 1_556
Mg0 O3 2.010281 1_555
Mg1 O1 2.079594 1_555
Mg1 O2 2.084413 1_555
Mg1 O0 2.084413 1_555
Mg1 O6 2.099879 1_555
Mg1 O11 2.099879 1_555
Mg1 O9 2.105994 1_555
Mg2 O8 1.990524 1_555
Mg2 O5 1.990524 1_555
Mg2 O1 1.996746 1_555
Mg2 O10 2.016888 1_555
Mg3 O8 2.084947 1_455
Mg3 O5 2.084947 1_545
Mg3 O14 2.092330 1_545
Mg3 O19 2.092330 1_455
Mg3 O7 2.105454 1_555
Mg3 O17 2.106584 1_445
Mg4 O12 2.092179 1_655
Mg4 O16 2.092179 1_565
Mg4 O25 2.095374 1_555
Mg4 O15 2.098731 1_665
Mg4 O22 2.102281 1_655
Mg4 O27 2.102281 1_565
Mg5 O16 2.100533 1_565
Mg5 O12 2.100533 1_655
Mg5 O14 2.100744 1_655
Mg5 O19 2.100744 1_565
Mg5 O18 2.103328 1_665
Mg5 O13 2.103758 1_555
Mg6 O23 2.073300 1_555
Mg6 O24 2.090714 1_555
Mg6 O21 2.090714 1_555
Mg6 O30 2.093979 1_555
Mg6 O31 2.108206 1_555
Mg6 O29 2.108206 1_555
Mg7 O27 2.089545 1_565
Mg7 O22 2.089545 1_655
Mg7 O20 2.090418 1_555
Mg7 O24 2.107461 1_555
Mg7 O21 2.107461 1_555
Mg7 O26 2.111428 1_555
Fe0 O1 2.004227 1_555
Fe0 O2 2.009521 1_555
Fe0 O3 2.047740 1_555
Fe0 O6 2.091932 1_565
Fe0 O4 2.095377 1_565
Fe0 O9 2.107693 1_565
Fe1 O8 1.995016 1_455
Fe1 O5 1.995016 1_545
Fe1 O10 2.027042 1_555
Fe1 O6 2.112347 1_555
Fe1 O11 2.112347 1_555
Fe1 O4 2.112624 1_555
Fe2 O1 2.004227 1_555
Fe2 O0 2.009521 1_555
Fe2 O3 2.047740 1_555
Fe2 O11 2.091932 1_655
Fe2 O4 2.095377 1_655
Fe2 O9 2.107693 1_655
Fe3 O12 1.919550 1_555
Fe3 O16 1.919550 1_555
Fe3 O7 1.947318 1_555
Fe3 O18 1.976428 1_555
Fe4 O8 2.013173 1_455
Fe4 O10 2.051915 1_555
Fe4 O14 2.061194 1_555
Fe4 O13 2.070897 1_455
Fe4 O7 2.071015 1_555
Fe4 O17 2.090459 1_455
Fe5 O17 1.928314 1_555
Fe5 O11 1.934810 1_655
Fe5 O6 1.934810 1_565
Fe5 O4 1.988645 1_665
Fe6 O24 1.912853 1_545
Fe6 O21 1.912853 1_455
Fe6 O15 1.954693 1_555
Fe6 O26 1.969775 1_445
Fe7 O5 2.013173 1_545
Fe7 O10 2.051915 1_555
Fe7 O19 2.061194 1_555
Fe7 O13 2.070897 1_545
Fe7 O7 2.071015 1_555
Fe7 O17 2.090459 1_545
Fe8 O16 2.042822 1_555
Fe8 O22 2.058045 1_655
Fe8 O18 2.062797 1_655
Fe8 O25 2.063881 1_555
Fe8 O15 2.071017 1_655
Fe8 O20 2.075093 1_555
Fe9 O19 1.911325 1_555
Fe9 O14 1.911325 1_555
Fe9 O13 1.970166 1_555
Fe9 O25 1.979951 1_555
Fe10 O12 2.042822 1_555
Fe10 O27 2.058045 1_565
Fe10 O18 2.062797 1_565
Fe10 O25 2.063881 1_555
Fe10 O15 2.071017 1_565
Fe10 O20 2.075093 1_555
Fe11 O23 2.005912 1_455
Fe11 O21 2.039305 1_455
Fe11 O26 2.059079 1_455
Fe11 O30 2.077468 1_555
Fe11 O31 2.085812 1_555
Fe11 O28 2.098252 1_555
Fe12 O23 2.005912 1_545
Fe12 O24 2.039305 1_545
Fe12 O26 2.059079 1_545
Fe12 O30 2.077468 1_555
Fe12 O29 2.085812 1_555
Fe12 O28 2.098252 1_555
Fe13 O22 1.913599 1_555
Fe13 O27 1.913599 1_555
Fe13 O20 1.972671 1_555
Fe13 O30 1.980251 1_555
Fe14 O0 1.998952 1_555
Fe14 O2 1.998952 1_555
Fe14 O3 2.034802 1_555
Fe14 O28 2.097940 1_556
Fe14 O31 2.101785 1_556
Fe14 O29 2.101785 1_556
Fe15 O9 1.926172 1_554
Fe15 O31 1.937929 1_545
Fe15 O29 1.937929 1_455
Fe15 O28 1.993132 1_555
