# generated using pymatgen
data_Sr3Te2(BrO3)2
_symmetry_space_group_name_H-M   'P 1'
_cell_length_a   8.93633518
_cell_length_b   8.93632752
_cell_length_c   11.17218282
_cell_angle_alpha   74.83530276
_cell_angle_beta   74.83528839
_cell_angle_gamma   37.29995274
_symmetry_Int_Tables_number   1
_chemical_formula_structural   Sr3Te2(BrO3)2
_chemical_formula_sum   'Sr6 Te4 Br4 O12'
_cell_volume   519.64056120
_cell_formula_units_Z   2
loop_
 _symmetry_equiv_pos_site_id
 _symmetry_equiv_pos_as_xyz
  1  'x, y, z'
loop_
 _atom_site_type_symbol
 _atom_site_label
 _atom_site_symmetry_multiplicity
 _atom_site_fract_x
 _atom_site_fract_y
 _atom_site_fract_z
 _atom_site_occupancy
  Sr  Sr0  1  0.66727160  0.66727912  0.60607172  1
  Sr  Sr1  1  0.74397803  0.74398701  0.21134821  1
  Sr  Sr2  1  0.33271988  0.33272940  0.39392828  1
  Sr  Sr3  1  0.98049267  0.98047402  0.18669819  1
  Sr  Sr4  1  0.01952598  0.01950833  0.81330181  1
  Sr  Sr5  1  0.25601299  0.25602097  0.78865179  1
  Te  Te0  1  0.39722633  0.39720001  0.05541231  1
  Te  Te1  1  0.87674003  0.87676082  0.57286200  1
  Te  Te2  1  0.12324018  0.12325797  0.42713900  1
  Te  Te3  1  0.60279999  0.60277667  0.94458769  1
  Br  Br0  1  0.17964858  0.17967805  0.09988950  1
  Br  Br1  1  0.53254970  0.53251449  0.30029155  1
  Br  Br2  1  0.46748551  0.46745030  0.69970845  1
  Br  Br3  1  0.82032195  0.82035042  0.90011050  1
  O  O0  1  0.55715145  0.04154697  0.60105615  1
  O  O1  1  0.89614805  0.89616616  0.40128977  1
  O  O2  1  0.40564457  0.86507691  0.81631515  1
  O  O3  1  0.44281458  0.95847074  0.39893626  1
  O  O4  1  0.13492409  0.59435543  0.18368485  1
  O  O5  1  0.04152826  0.55718542  0.60106374  1
  O  O6  1  0.86509053  0.40563073  0.81631253  1
  O  O7  1  0.59437027  0.13490847  0.18368747  1
  O  O8  1  0.28668847  0.71331253  1.00000000  1
  O  O9  1  0.10383484  0.10385095  0.59871123  1
  O  O10  1  0.95845303  0.44284855  0.39894385  1
  O  O11  1  0.71333844  0.28666256  0.00000000  1
loop_
_geom_bond_atom_site_label_1
_geom_bond_atom_site_label_2
_geom_bond_distance
_geom_bond_site_symmetry_2
Br0 Sr3 3.242074 1_445
Br0 Sr5 3.358594 1_554
Br0 Sr1 3.413511 1_455
Br0 Sr1 3.413613 1_545
Br1 Sr2 3.253983 1_555
Br1 Sr3 3.342356 1_545
Br1 Sr3 3.342441 1_455
Br1 Sr1 3.441561 1_555
Br2 Sr0 3.253983 1_555
Br2 Sr4 3.342361 1_655
Br2 Sr4 3.342443 1_565
Br2 Sr5 3.441569 1_555
Br3 Sr4 3.242090 1_665
Br3 Sr1 3.358594 1_556
Br3 Sr5 3.413515 1_565
Br3 Sr5 3.413609 1_655
O0 Te1 1.872235 1_545
O0 Sr5 2.500591 1_555
O0 Sr0 2.617682 1_545
O0 Sr2 2.668951 1_555
O1 Te1 1.853219 1_555
O1 Sr3 2.428277 1_555
O1 Sr2 3.061991 1_565
O1 Sr2 3.062034 1_655
O2 Te3 1.909304 1_555
O2 Sr4 2.504425 1_565
O2 Sr5 2.511568 1_565
O2 Sr0 2.613821 1_555
O3 Te2 1.872121 1_565
O3 Sr1 2.500593 1_555
O3 Sr2 2.617764 1_565
O3 Sr0 2.669078 1_555
O4 Te0 1.909309 1_555
O4 Sr3 2.504421 1_455
O4 Sr1 2.511588 1_455
O4 Sr2 2.613817 1_555
O5 Te1 1.872123 1_455
O5 Sr5 2.500597 1_555
O5 Sr0 2.617756 1_455
O5 Sr2 2.669076 1_555
O6 Te3 1.909286 1_555
O6 Sr4 2.504427 1_655
O6 Sr5 2.511500 1_655
O6 Sr0 2.613858 1_555
O7 Te0 1.909286 1_555
O7 Sr3 2.504436 1_545
O7 Sr1 2.511498 1_545
O7 Sr2 2.613863 1_555
O8 Te0 2.074738 1_556
O8 Te3 2.074741 1_555
O8 Sr3 2.600748 1_456
O8 Sr4 2.600752 1_565
O9 Te2 1.853219 1_555
O9 Sr4 2.428266 1_555
O9 Sr0 3.061987 1_455
O9 Sr0 3.062036 1_545
O10 Te2 1.872245 1_655
O10 Sr1 2.500592 1_555
O10 Sr2 2.617682 1_655
O10 Sr0 2.668947 1_555
O11 Te0 2.074739 1_555
O11 Te3 2.074748 1_554
O11 Sr4 2.600721 1_654
O11 Sr3 2.600723 1_545
