# generated using pymatgen
data_KFe(Sb4Ru)3
_symmetry_space_group_name_H-M   'P 1'
_cell_length_a   8.12127386
_cell_length_b   8.12127259
_cell_length_c   8.09330842
_cell_angle_alpha   109.40148628
_cell_angle_beta   109.40148313
_cell_angle_gamma   109.54087119
_symmetry_Int_Tables_number   1
_chemical_formula_structural   KFe(Sb4Ru)3
_chemical_formula_sum   'K1 Fe1 Sb12 Ru3'
_cell_volume   411.26851555
_cell_formula_units_Z   1
loop_
 _symmetry_equiv_pos_site_id
 _symmetry_equiv_pos_as_xyz
  1  'x, y, z'
loop_
 _atom_site_type_symbol
 _atom_site_label
 _atom_site_symmetry_multiplicity
 _atom_site_fract_x
 _atom_site_fract_y
 _atom_site_fract_z
 _atom_site_occupancy
  K  K0  1  0.00000000  0.00000000  0.00000000  1
  Fe  Fe0  1  0.00000000  0.00000000  0.50000000  1
  Sb  Sb0  1  0.84042367  0.65200416  0.49856944  1
  Sb  Sb1  1  0.15957633  0.34799584  0.50143056  1
  Sb  Sb2  1  0.15885487  0.65989550  0.81751604  1
  Sb  Sb3  1  0.84114513  0.34010450  0.18248396  1
  Sb  Sb4  1  0.65989550  0.50104164  0.84238047  1
  Sb  Sb5  1  0.34010450  0.49895836  0.15761953  1
  Sb  Sb6  1  0.65200416  0.81158149  0.15343471  1
  Sb  Sb7  1  0.34799584  0.18841851  0.84656529  1
  Sb  Sb8  1  0.50104164  0.84114513  0.65866117  1
  Sb  Sb9  1  0.49895836  0.15885487  0.34133883  1
  Sb  Sb10  1  0.18841851  0.84042367  0.34185522  1
  Sb  Sb11  1  0.81158149  0.15957633  0.65814478  1
  Ru  Ru0  1  0.50000000  0.50000000  0.50000000  1
  Ru  Ru1  1  0.50000000  0.00000000  0.00000000  1
  Ru  Ru2  1  0.00000000  0.50000000  0.00000000  1
loop_
_geom_bond_atom_site_label_1
_geom_bond_atom_site_label_2
_geom_bond_distance
_geom_bond_site_symmetry_2
K0 Sb9 3.523362 1_555
K0 Sb8 3.523362 1_444
K0 Sb5 3.523364 1_555
K0 Sb4 3.523364 1_444
K0 Sb3 3.523368 1_455
K0 Sb2 3.523368 1_544
K0 Sb7 3.545684 1_554
K0 Sb6 3.545684 1_445
K0 Sb1 3.545686 1_555
K0 Sb0 3.545686 1_444
K0 Sb11 3.545690 1_454
K0 Sb10 3.545690 1_545
Fe0 Sb11 2.680482 1_455
Fe0 Sb10 2.680482 1_545
Fe0 Sb0 2.680493 1_445
Fe0 Sb1 2.680493 1_555
Fe0 Sb7 2.680495 1_555
Fe0 Sb6 2.680495 1_445
Sb0 Sb3 2.945390 1_555
Sb0 Sb2 2.949465 1_655
Sb1 Sb2 2.945390 1_555
Sb1 Sb3 2.949465 1_455
Sb4 Sb7 2.945395 1_555
Sb4 Sb6 2.949460 1_556
Sb5 Sb6 2.945395 1_555
Sb5 Sb7 2.949460 1_554
Sb10 Sb8 2.945395 1_555
Sb10 Sb9 2.949469 1_565
Sb11 Sb9 2.945395 1_555
Sb11 Sb8 2.949469 1_545
Ru0 Sb0 2.629665 1_555
Ru0 Sb1 2.629665 1_555
Ru0 Sb8 2.634073 1_555
Ru0 Sb9 2.634073 1_555
Ru0 Sb4 2.636511 1_555
Ru0 Sb5 2.636511 1_555
Ru1 Sb6 2.629658 1_545
Ru1 Sb7 2.629658 1_554
Ru1 Sb3 2.634077 1_555
Ru1 Sb2 2.634077 1_544
Ru1 Sb9 2.636512 1_555
Ru1 Sb8 2.636512 1_544
Ru2 Sb10 2.629670 1_555
Ru2 Sb11 2.629670 1_454
Ru2 Sb5 2.634081 1_555
Ru2 Sb4 2.634081 1_454
Ru2 Sb2 2.636508 1_554
Ru2 Sb3 2.636508 1_455
