# generated using pymatgen
data_Cs6MoP4
_symmetry_space_group_name_H-M   'P 1'
_cell_length_a   10.78731975
_cell_length_b   10.78731950
_cell_length_c   8.76312599
_cell_angle_alpha   90.00000000
_cell_angle_beta   90.00000000
_cell_angle_gamma   119.99999774
_symmetry_Int_Tables_number   1
_chemical_formula_structural   Cs6MoP4
_chemical_formula_sum   'Cs12 Mo2 P8'
_cell_volume   883.11404454
_cell_formula_units_Z   2
loop_
 _symmetry_equiv_pos_site_id
 _symmetry_equiv_pos_as_xyz
  1  'x, y, z'
loop_
 _atom_site_type_symbol
 _atom_site_label
 _atom_site_symmetry_multiplicity
 _atom_site_fract_x
 _atom_site_fract_y
 _atom_site_fract_z
 _atom_site_occupancy
  Cs  Cs0  1  0.14713345  0.29426890  0.28744337  1
  Cs  Cs1  1  0.85286655  0.14713345  0.78744337  1
  Cs  Cs2  1  0.53667990  0.46332010  0.10156387  1
  Cs  Cs3  1  0.07335879  0.53667990  0.60156387  1
  Cs  Cs4  1  0.46332010  0.92664121  0.60156387  1
  Cs  Cs5  1  0.53667990  0.07335879  0.10156387  1
  Cs  Cs6  1  0.92664121  0.46332010  0.10156387  1
  Cs  Cs7  1  0.46332010  0.53667990  0.60156387  1
  Cs  Cs8  1  0.14713345  0.85286655  0.28744337  1
  Cs  Cs9  1  0.70573110  0.85286655  0.28744337  1
  Cs  Cs10  1  0.85286655  0.70573110  0.78744337  1
  Cs  Cs11  1  0.29426890  0.14713345  0.78744337  1
  Mo  Mo0  1  0.66666700  0.33333300  0.49886327  1
  Mo  Mo1  1  0.33333300  0.66666700  0.99886327  1
  P  P0  1  0.78453229  0.56906357  0.41551249  1
  P  P1  1  0.43093643  0.21546771  0.41551249  1
  P  P2  1  0.33333300  0.66666700  0.26247752  1
  P  P3  1  0.66666700  0.33333300  0.76247752  1
  P  P4  1  0.78453229  0.21546771  0.41551249  1
  P  P5  1  0.21546771  0.78453229  0.91551249  1
  P  P6  1  0.21546771  0.43093643  0.91551249  1
  P  P7  1  0.56906357  0.78453229  0.91551249  1
loop_
_geom_bond_atom_site_label_1
_geom_bond_atom_site_label_2
_geom_bond_distance
_geom_bond_site_symmetry_2
Cs0 P2 3.485850 1_555
Cs0 P6 3.500429 1_554
Cs0 P4 3.735897 1_455
Cs0 P1 3.735927 1_555
Cs1 P3 3.485859 1_555
Cs1 P4 3.500433 1_555
Cs1 P7 3.735907 1_545
Cs1 P6 3.735907 1_655
Cs2 P1 3.601218 1_555
Cs2 P0 3.601218 1_555
Cs2 P7 3.684578 1_554
Cs2 P6 3.684578 1_554
Cs2 P3 3.837728 1_554
Cs2 P2 4.052607 1_555
Cs3 P6 3.601218 1_555
Cs3 P5 3.601218 1_555
Cs3 P0 3.684559 1_455
Cs3 P4 3.684570 1_455
Cs3 P2 3.837728 1_555
Cs3 P3 4.052589 1_455
Cs4 P7 3.601218 1_555
Cs4 P5 3.601218 1_555
Cs4 P1 3.684559 1_565
Cs4 P4 3.684570 1_565
Cs4 P2 3.837728 1_555
Cs4 P3 4.052589 1_565
Cs5 P1 3.601218 1_555
Cs5 P4 3.601218 1_555
Cs5 P7 3.684559 1_544
Cs5 P5 3.684570 1_544
Cs5 P3 3.837728 1_554
Cs5 P2 4.052589 1_545
Cs6 P0 3.601218 1_555
Cs6 P4 3.601218 1_555
Cs6 P6 3.684559 1_654
Cs6 P5 3.684570 1_654
Cs6 P3 3.837728 1_554
Cs6 P2 4.052589 1_655
Cs7 P7 3.601218 1_555
Cs7 P6 3.601218 1_555
Cs7 P1 3.684578 1_555
Cs7 P0 3.684578 1_555
Cs7 P2 3.837728 1_555
Cs7 P3 4.052607 1_555
Cs8 P2 3.485859 1_555
Cs8 P5 3.500433 1_554
Cs8 P1 3.735907 1_565
Cs8 P0 3.735907 1_455
Cs9 P2 3.485850 1_555
Cs9 P7 3.500429 1_554
Cs9 P4 3.735897 1_565
Cs9 P0 3.735927 1_555
Cs10 P3 3.485850 1_555
Cs10 P0 3.500429 1_555
Cs10 P5 3.735897 1_655
Cs10 P7 3.735927 1_555
Cs11 P3 3.485850 1_555
Cs11 P1 3.500429 1_555
Cs11 P5 3.735897 1_545
Cs11 P6 3.735927 1_555
Mo0 P3 2.310085 1_555
Mo0 P4 2.320186 1_555
Mo0 P0 2.320186 1_555
Mo0 P1 2.320186 1_555
Mo1 P2 2.310085 1_556
Mo1 P5 2.320186 1_555
Mo1 P6 2.320186 1_555
Mo1 P7 2.320186 1_555
