# generated using pymatgen
data_KFe(Sb4Ir)3
_symmetry_space_group_name_H-M   'P 1'
_cell_length_a   8.05806456
_cell_length_b   8.05806471
_cell_length_c   8.05806363
_cell_angle_alpha   109.40227240
_cell_angle_beta   109.40227891
_cell_angle_gamma   109.40227535
_symmetry_Int_Tables_number   1
_chemical_formula_structural   KFe(Sb4Ir)3
_chemical_formula_sum   'K1 Fe1 Sb12 Ir3'
_cell_volume   403.80710278
_cell_formula_units_Z   1
loop_
 _symmetry_equiv_pos_site_id
 _symmetry_equiv_pos_as_xyz
  1  'x, y, z'
loop_
 _atom_site_type_symbol
 _atom_site_label
 _atom_site_symmetry_multiplicity
 _atom_site_fract_x
 _atom_site_fract_y
 _atom_site_fract_z
 _atom_site_occupancy
  K  K0  1  0.00000000  0.00000000  0.00000000  1
  Fe  Fe0  1  0.50000000  0.50000000  0.50000000  1
  Sb  Sb0  1  0.83437955  0.65551665  0.50364683  1
  Sb  Sb1  1  0.16562045  0.34448335  0.49635317  1
  Sb  Sb2  1  0.15449737  0.65600319  0.81023618  1
  Sb  Sb3  1  0.84550263  0.34399681  0.18976382  1
  Sb  Sb4  1  0.65551665  0.50364683  0.83437955  1
  Sb  Sb5  1  0.34448335  0.49635317  0.16562045  1
  Sb  Sb6  1  0.65600319  0.81023618  0.15449737  1
  Sb  Sb7  1  0.34399681  0.18976382  0.84550263  1
  Sb  Sb8  1  0.50364683  0.83437955  0.65551665  1
  Sb  Sb9  1  0.49635317  0.16562045  0.34448335  1
  Sb  Sb10  1  0.18976382  0.84550263  0.34399681  1
  Sb  Sb11  1  0.81023618  0.15449737  0.65600319  1
  Ir  Ir0  1  0.50000000  0.00000000  0.00000000  1
  Ir  Ir1  1  0.00000000  0.50000000  0.00000000  1
  Ir  Ir2  1  0.00000000  0.00000000  0.50000000  1
loop_
_geom_bond_atom_site_label_1
_geom_bond_atom_site_label_2
_geom_bond_distance
_geom_bond_site_symmetry_2
K0 Sb1 3.478428 1_555
K0 Sb0 3.478428 1_444
K0 Sb9 3.478428 1_555
K0 Sb8 3.478428 1_444
K0 Sb5 3.478429 1_555
K0 Sb4 3.478429 1_444
K0 Sb10 3.509027 1_545
K0 Sb11 3.509027 1_454
K0 Sb7 3.509027 1_554
K0 Sb6 3.509027 1_445
K0 Sb3 3.509028 1_455
K0 Sb2 3.509028 1_544
Fe0 Sb4 2.551643 1_555
Fe0 Sb5 2.551643 1_555
Fe0 Sb0 2.551643 1_555
Fe0 Sb1 2.551643 1_555
Fe0 Sb8 2.551643 1_555
Fe0 Sb9 2.551643 1_555
Sb0 Sb2 2.917231 1_655
Sb0 Sb3 2.964529 1_555
Sb1 Sb3 2.917231 1_455
Sb1 Sb2 2.964529 1_555
Sb4 Sb6 2.917231 1_556
Sb4 Sb7 2.964529 1_555
Sb5 Sb7 2.917231 1_554
Sb5 Sb6 2.964529 1_555
Sb10 Sb9 2.917231 1_565
Sb10 Sb8 2.964529 1_555
Sb11 Sb8 2.917231 1_545
Sb11 Sb9 2.964529 1_555
Ir0 Sb7 2.640179 1_554
Ir0 Sb6 2.640179 1_545
Ir0 Sb3 2.645946 1_555
Ir0 Sb2 2.645946 1_544
Ir0 Sb8 2.665770 1_544
Ir0 Sb9 2.665770 1_555
Ir1 Sb2 2.640179 1_554
Ir1 Sb3 2.640179 1_455
Ir1 Sb10 2.645946 1_555
Ir1 Sb11 2.645946 1_454
Ir1 Sb5 2.665770 1_555
Ir1 Sb4 2.665770 1_454
Ir2 Sb11 2.640180 1_455
Ir2 Sb10 2.640180 1_545
Ir2 Sb6 2.645946 1_445
Ir2 Sb7 2.645946 1_555
Ir2 Sb1 2.665770 1_555
Ir2 Sb0 2.665770 1_445
