# generated using pymatgen
data_Ba3(BN2)2
_symmetry_space_group_name_H-M   'P 1'
_cell_length_a   4.28334874
_cell_length_b   11.11685963
_cell_length_c   14.87802664
_cell_angle_alpha   89.99991316
_cell_angle_beta   90.00000903
_cell_angle_gamma   90.00000258
_symmetry_Int_Tables_number   1
_chemical_formula_structural   Ba3(BN2)2
_chemical_formula_sum   'Ba12 B8 N16'
_cell_volume   708.45274768
_cell_formula_units_Z   4
loop_
 _symmetry_equiv_pos_site_id
 _symmetry_equiv_pos_as_xyz
  1  'x, y, z'
loop_
 _atom_site_type_symbol
 _atom_site_label
 _atom_site_symmetry_multiplicity
 _atom_site_fract_x
 _atom_site_fract_y
 _atom_site_fract_z
 _atom_site_occupancy
  Ba  Ba0  1  0.85143559  0.03752805  0.82974746  1
  Ba  Ba1  1  0.35143609  0.46247164  0.17025193  1
  Ba  Ba2  1  0.14856554  0.53752916  0.67025150  1
  Ba  Ba3  1  0.64856506  0.96247071  0.32974918  1
  Ba  Ba4  1  0.72622426  0.84509597  0.59299613  1
  Ba  Ba5  1  0.22622224  0.65490419  0.40700639  1
  Ba  Ba6  1  0.27377529  0.34509546  0.90700314  1
  Ba  Ba7  1  0.77377796  0.15490456  0.09299474  1
  Ba  Ba8  1  0.59944412  0.68804583  0.88585479  1
  Ba  Ba9  1  0.09944264  0.81195377  0.11414265  1
  Ba  Ba10  1  0.40055613  0.18804620  0.61414440  1
  Ba  Ba11  1  0.90055642  0.31195368  0.38585767  1
  B  B0  1  0.59362685  0.50034325  0.52082602  1
  B  B1  1  0.09362653  0.99965651  0.47917687  1
  B  B2  1  0.90637483  0.49965751  0.02082345  1
  B  B3  1  0.40637455  0.00034248  0.97917393  1
  B  B4  1  0.23430806  0.85866568  0.73845073  1
  B  B5  1  0.73430849  0.64133447  0.26154962  1
  B  B6  1  0.76569016  0.35866753  0.76154795  1
  B  B7  1  0.26568983  0.14133247  0.23845153  1
  N  N0  1  0.35139272  0.96656980  0.71615415  1
  N  N1  1  0.85139360  0.53343047  0.28384653  1
  N  N2  1  0.64860907  0.46657056  0.78384441  1
  N  N3  1  0.14860817  0.03342955  0.21615507  1
  N  N4  1  0.93052710  0.09980200  0.49536383  1
  N  N5  1  0.43052671  0.40019751  0.50464029  1
  N  N6  1  0.06947247  0.59980464  0.00463707  1
  N  N7  1  0.56947353  0.90019563  0.99535951  1
  N  N8  1  0.78706519  0.38926478  0.03640452  1
  N  N9  1  0.28706524  0.11073545  0.96359338  1
  N  N10  1  0.71293514  0.61073657  0.53640693  1
  N  N11  1  0.21293585  0.88926372  0.46359572  1
  N  N12  1  0.59262351  0.74554524  0.24240969  1
  N  N13  1  0.09262273  0.75445491  0.75758979  1
  N  N14  1  0.40737391  0.24554493  0.25759110  1
  N  N15  1  0.90737443  0.25445512  0.74240896  1
loop_
_geom_bond_atom_site_label_1
_geom_bond_atom_site_label_2
_geom_bond_distance
_geom_bond_site_symmetry_2
Ba0 N15 2.749812 1_555
Ba0 N0 2.839805 1_645
Ba0 N0 2.840082 1_545
Ba0 N9 2.847744 1_655
Ba1 N14 2.749813 1_555
Ba1 N1 2.839819 1_555
Ba1 N1 2.840094 1_455
Ba1 N8 2.847756 1_555
Ba2 N13 2.749803 1_555
Ba2 N2 2.839799 1_455
Ba2 N2 2.840080 1_555
Ba2 N10 2.847730 1_455
Ba3 N12 2.749808 1_555
Ba3 N3 2.839812 1_565
Ba3 N3 2.840091 1_665
Ba3 N11 2.847746 1_555
Ba4 N10 2.738595 1_555
Ba4 N0 2.785471 1_555
Ba4 N11 2.963339 1_555
Ba5 N11 2.738597 1_555
Ba5 N1 2.785481 1_455
Ba5 N10 2.963336 1_455
Ba6 N9 2.738604 1_555
Ba6 N2 2.785488 1_555
Ba6 N8 2.963357 1_556
Ba7 N8 2.738606 1_555
Ba7 N3 2.785494 1_655
Ba7 N9 2.963349 1_654
Ba8 N6 2.852859 1_656
Ba8 N7 2.869332 1_555
Ba8 N2 2.899965 1_555
Ba8 N13 2.940956 1_655
Ba8 N13 2.983207 1_555
Ba8 N6 3.039505 1_556
Ba9 N7 2.852877 1_554
Ba9 N6 2.869333 1_555
Ba9 N3 2.899986 1_565
Ba9 N12 2.940980 1_555
Ba9 N12 2.983218 1_455
Ba9 N7 3.039506 1_454
Ba10 N4 2.852858 1_455
Ba10 N5 2.869337 1_555
Ba10 N0 2.899966 1_545
Ba10 N15 2.940962 1_455
Ba10 N15 2.983194 1_555
Ba10 N4 3.039500 1_555
Ba11 N5 2.852878 1_555
Ba11 N4 2.869358 1_555
Ba11 N1 2.899981 1_555
Ba11 N14 2.940983 1_555
Ba11 N14 2.983210 1_655
Ba11 N5 3.039514 1_655
B0 N5 1.336228 1_555
B0 N10 1.349439 1_555
B1 N4 1.336227 1_465
B1 N11 1.349436 1_555
B2 N6 1.336236 1_655
B2 N8 1.349435 1_555
B3 N7 1.336234 1_545
B3 N9 1.349435 1_555
B4 N13 1.338473 1_555
B4 N0 1.341824 1_555
B5 N12 1.338475 1_555
B5 N1 1.341825 1_555
B6 N15 1.338487 1_555
B6 N2 1.341808 1_555
B7 N14 1.338489 1_555
B7 N3 1.341808 1_555
