# generated using pymatgen
data_ScTi(SnRu2)2
_symmetry_space_group_name_H-M   'P 1'
_cell_length_a   7.74745438
_cell_length_b   7.74745396
_cell_length_c   7.74745393
_cell_angle_alpha   33.54957372
_cell_angle_beta   33.54958099
_cell_angle_gamma   33.54955865
_symmetry_Int_Tables_number   1
_chemical_formula_structural   ScTi(SnRu2)2
_chemical_formula_sum   'Sc1 Ti1 Sn2 Ru4'
_cell_volume   126.51083945
_cell_formula_units_Z   1
loop_
 _symmetry_equiv_pos_site_id
 _symmetry_equiv_pos_as_xyz
  1  'x, y, z'
loop_
 _atom_site_type_symbol
 _atom_site_label
 _atom_site_symmetry_multiplicity
 _atom_site_fract_x
 _atom_site_fract_y
 _atom_site_fract_z
 _atom_site_occupancy
  Sc  Sc0  1  0.00000000  0.00000000  0.00000000  1
  Ti  Ti0  1  0.50000000  0.50000000  0.50000000  1
  Sn  Sn0  1  0.25054524  0.25054524  0.25054524  1
  Sn  Sn1  1  0.74945476  0.74945476  0.74945476  1
  Ru  Ru0  1  0.62227226  0.62227226  0.62227226  1
  Ru  Ru1  1  0.12721066  0.12721066  0.12721066  1
  Ru  Ru2  1  0.87278934  0.87278934  0.87278934  1
  Ru  Ru3  1  0.37772774  0.37772774  0.37772774  1
loop_
_geom_bond_atom_site_label_1
_geom_bond_atom_site_label_2
_geom_bond_distance
_geom_bond_site_symmetry_2
Ru0 Ti0 2.679440 1_555
Ru0 Sn0 2.715530 1_565
Ru0 Sn0 2.715531 1_655
Ru0 Sn0 2.715532 1_556
Ru0 Sc0 2.759106 1_656
Ru0 Sc0 2.759107 1_566
Ru0 Sc0 2.759108 1_665
Ru0 Sn1 2.787042 1_555
Ru1 Sn0 2.702720 1_555
Ru1 Ti0 2.722833 1_545
Ru1 Ti0 2.722833 1_455
Ru1 Ti0 2.722834 1_554
Ru1 Sn1 2.759324 1_454
Ru1 Sn1 2.759324 1_544
Ru1 Sn1 2.759326 1_445
Ru1 Sc0 2.787659 1_555
Ru2 Sn1 2.702720 1_555
Ru2 Ti0 2.722833 1_565
Ru2 Ti0 2.722833 1_655
Ru2 Ti0 2.722834 1_556
Ru2 Sn0 2.759324 1_656
Ru2 Sn0 2.759324 1_566
Ru2 Sn0 2.759326 1_665
Ru2 Sc0 2.787659 1_666
Ru3 Ti0 2.679440 1_555
Ru3 Sn1 2.715530 1_545
Ru3 Sn1 2.715531 1_455
Ru3 Sn1 2.715532 1_554
Ru3 Sc0 2.759106 1_565
Ru3 Sc0 2.759107 1_655
Ru3 Sc0 2.759108 1_556
Ru3 Sn0 2.787042 1_555
