# generated using pymatgen
data_CsRb2AsSe4
_symmetry_space_group_name_H-M   'P 1'
_cell_length_a   10.01886062
_cell_length_b   10.22974128
_cell_length_c   11.35857505
_cell_angle_alpha   90.00000000
_cell_angle_beta   90.00000000
_cell_angle_gamma   90.00000000
_symmetry_Int_Tables_number   1
_chemical_formula_structural   CsRb2AsSe4
_chemical_formula_sum   'Cs4 Rb8 As4 Se16'
_cell_volume   1164.14435612
_cell_formula_units_Z   4
loop_
 _symmetry_equiv_pos_site_id
 _symmetry_equiv_pos_as_xyz
  1  'x, y, z'
loop_
 _atom_site_type_symbol
 _atom_site_label
 _atom_site_symmetry_multiplicity
 _atom_site_fract_x
 _atom_site_fract_y
 _atom_site_fract_z
 _atom_site_occupancy
  Cs  Cs0  1  0.65566838  0.90857273  0.25000000  1
  Cs  Cs1  1  0.15566838  0.59142727  0.25000000  1
  Cs  Cs2  1  0.84433162  0.40857273  0.75000000  1
  Cs  Cs3  1  0.34433162  0.09142727  0.75000000  1
  Rb  Rb0  1  0.05165931  0.80088604  0.95549402  1
  Rb  Rb1  1  0.55165931  0.69911396  0.54450598  1
  Rb  Rb2  1  0.44834069  0.30088604  0.04450598  1
  Rb  Rb3  1  0.94834069  0.19911396  0.45549402  1
  Rb  Rb4  1  0.94834069  0.19911396  0.04450598  1
  Rb  Rb5  1  0.44834069  0.30088604  0.45549402  1
  Rb  Rb6  1  0.55165931  0.69911396  0.95549402  1
  Rb  Rb7  1  0.05165931  0.80088604  0.54450598  1
  As  As0  1  0.77275599  0.97532124  0.75000000  1
  As  As1  1  0.22724401  0.02467876  0.25000000  1
  As  As2  1  0.72724401  0.47532124  0.25000000  1
  As  As3  1  0.27275599  0.52467876  0.75000000  1
  Se  Se0  1  0.34172998  0.96541175  0.08018078  1
  Se  Se1  1  0.84172998  0.53458825  0.41981922  1
  Se  Se2  1  0.15827002  0.46541175  0.91981922  1
  Se  Se3  1  0.65827002  0.03458825  0.58018078  1
  Se  Se4  1  0.01645927  0.92640131  0.25000000  1
  Se  Se5  1  0.51645927  0.57359869  0.25000000  1
  Se  Se6  1  0.48354073  0.42640131  0.75000000  1
  Se  Se7  1  0.98354073  0.07359869  0.75000000  1
  Se  Se8  1  0.65827002  0.03458825  0.91981922  1
  Se  Se9  1  0.34172998  0.96541175  0.41981922  1
  Se  Se10  1  0.84172998  0.53458825  0.08018078  1
  Se  Se11  1  0.15827002  0.46541175  0.58018078  1
  Se  Se12  1  0.80206829  0.75017426  0.75000000  1
  Se  Se13  1  0.30206829  0.74982574  0.75000000  1
  Se  Se14  1  0.69793171  0.25017426  0.25000000  1
  Se  Se15  1  0.19793171  0.24982574  0.25000000  1
loop_
_geom_bond_atom_site_label_1
_geom_bond_atom_site_label_2
_geom_bond_distance
_geom_bond_site_symmetry_2
Cs0 Se14 3.520055 1_565
Cs0 Se4 3.619312 1_655
Cs0 Se5 3.699661 1_555
Cs0 Se9 3.735197 1_555
Cs0 Se0 3.735197 1_555
Cs0 Se3 3.965835 1_565
Cs0 Se8 3.965835 1_564
Cs1 Se15 3.520055 1_555
Cs1 Se5 3.619312 1_555
Cs1 Se4 3.699661 1_555
Cs1 Se1 3.735197 1_455
Cs1 Se10 3.735197 1_455
Cs1 Se11 3.965835 1_555
Cs1 Se2 3.965835 1_554
Cs2 Se12 3.520055 1_555
Cs2 Se6 3.619312 1_555
Cs2 Se7 3.699661 1_555
Cs2 Se2 3.735197 1_655
Cs2 Se11 3.735197 1_655
Cs2 Se10 3.965835 1_556
Cs2 Se1 3.965835 1_555
Cs3 Se13 3.520055 1_545
Cs3 Se7 3.619312 1_455
Cs3 Se6 3.699661 1_555
Cs3 Se8 3.735197 1_555
Cs3 Se3 3.735197 1_555
Cs3 Se0 3.965835 1_546
Cs3 Se9 3.965835 1_545
Rb0 Se12 3.459815 1_455
Rb0 Se13 3.466278 1_555
Rb0 Se4 3.600437 1_556
Rb0 Se2 3.616964 1_555
Rb0 Se0 3.644770 1_556
Rb0 Se7 3.700912 1_465
Rb0 Se10 3.721627 1_456
Rb1 Se13 3.459815 1_555
Rb1 Se12 3.466278 1_555
Rb1 Se5 3.600437 1_555
Rb1 Se3 3.616964 1_565
Rb1 Se1 3.644770 1_555
Rb1 Se6 3.700912 1_555
Rb1 Se9 3.721627 1_555
Rb2 Se14 3.459815 1_555
Rb2 Se15 3.466278 1_555
Rb2 Se6 3.600437 1_554
Rb2 Se0 3.616964 1_545
Rb2 Se2 3.644770 1_554
Rb2 Se5 3.700912 1_555
Rb2 Se8 3.721627 1_554
Rb3 Se15 3.459815 1_655
Rb3 Se14 3.466278 1_555
Rb3 Se7 3.600437 1_555
Rb3 Se1 3.616964 1_555
Rb3 Se3 3.644770 1_555
Rb3 Se4 3.700912 1_645
Rb3 Se11 3.721627 1_655
Rb4 Se15 3.459815 1_655
Rb4 Se14 3.466278 1_555
Rb4 Se7 3.600437 1_554
Rb4 Se10 3.616964 1_555
Rb4 Se8 3.644770 1_554
Rb4 Se4 3.700912 1_645
Rb4 Se2 3.721627 1_654
Rb5 Se14 3.459815 1_555
Rb5 Se15 3.466278 1_555
Rb5 Se6 3.600437 1_555
Rb5 Se9 3.616964 1_545
Rb5 Se11 3.644770 1_555
Rb5 Se5 3.700912 1_555
Rb5 Se3 3.721627 1_555
Rb6 Se13 3.459815 1_555
Rb6 Se12 3.466278 1_555
Rb6 Se5 3.600437 1_556
Rb6 Se8 3.616964 1_565
Rb6 Se10 3.644770 1_556
Rb6 Se6 3.700912 1_555
Rb6 Se0 3.721627 1_556
Rb7 Se12 3.459815 1_455
Rb7 Se13 3.466278 1_555
Rb7 Se4 3.600437 1_555
Rb7 Se11 3.616964 1_555
Rb7 Se9 3.644770 1_555
Rb7 Se7 3.700912 1_465
Rb7 Se1 3.721627 1_455
As0 Se12 2.321843 1_555
As0 Se8 2.324631 1_565
As0 Se3 2.324631 1_565
As0 Se7 2.338917 1_565
As1 Se15 2.321843 1_555
As1 Se9 2.324631 1_545
As1 Se0 2.324631 1_545
As1 Se4 2.338917 1_545
As2 Se14 2.321843 1_555
As2 Se1 2.324631 1_555
As2 Se10 2.324631 1_555
As2 Se5 2.338917 1_555
As3 Se13 2.321843 1_555
As3 Se2 2.324631 1_555
As3 Se11 2.324631 1_555
As3 Se6 2.338917 1_555
