# generated using pymatgen
data_V2SnPbO8
_symmetry_space_group_name_H-M   'P 1'
_cell_length_a   5.18942507
_cell_length_b   5.18942518
_cell_length_c   7.32124058
_cell_angle_alpha   91.06516024
_cell_angle_beta   91.06515745
_cell_angle_gamma   67.20867866
_symmetry_Int_Tables_number   1
_chemical_formula_structural   V2SnPbO8
_chemical_formula_sum   'V2 Sn1 Pb1 O8'
_cell_volume   181.72265812
_cell_formula_units_Z   1
loop_
 _symmetry_equiv_pos_site_id
 _symmetry_equiv_pos_as_xyz
  1  'x, y, z'
loop_
 _atom_site_type_symbol
 _atom_site_label
 _atom_site_symmetry_multiplicity
 _atom_site_fract_x
 _atom_site_fract_y
 _atom_site_fract_z
 _atom_site_occupancy
  V  V0  1  0.63311804  0.63311804  0.27782188  1
  V  V1  1  0.36688096  0.36688096  0.72217812  1
  Sn  Sn0  1  0.00000000  0.00000000  0.50000000  1
  Pb  Pb0  1  0.00000000  0.00000000  0.00000000  1
  O  O0  1  0.71217992  0.71217992  0.07358085  1
  O  O1  1  0.77812081  0.26463155  0.29500382  1
  O  O2  1  0.26463155  0.77812081  0.29500382  1
  O  O3  1  0.76729186  0.76729186  0.45072701  1
  O  O4  1  0.23270814  0.23270814  0.54927299  1
  O  O5  1  0.73536745  0.22187819  0.70499618  1
  O  O6  1  0.22187819  0.73536745  0.70499618  1
  O  O7  1  0.28781908  0.28781908  0.92641915  1
loop_
_geom_bond_atom_site_label_1
_geom_bond_atom_site_label_2
_geom_bond_distance
_geom_bond_site_symmetry_2
O0 V0 1.657896 1_555
O0 Pb0 2.557388 1_665
O1 V0 1.768984 1_555
O1 Sn0 2.061914 1_655
O1 Pb0 2.575563 1_655
O2 V0 1.768984 1_555
O2 Sn0 2.061914 1_565
O2 Pb0 2.575563 1_565
O3 V0 1.697689 1_555
O3 Sn0 2.035755 1_665
O4 V1 1.697683 1_555
O4 Sn0 2.035755 1_555
O5 V1 1.768984 1_555
O5 Sn0 2.061914 1_655
O5 Pb0 2.575563 1_656
O6 V1 1.768984 1_555
O6 Sn0 2.061915 1_565
O6 Pb0 2.575563 1_566
O7 V1 1.657896 1_555
O7 Pb0 2.557379 1_556
