# generated using pymatgen
data_LuNb6Sn5Bi
_symmetry_space_group_name_H-M   'P 1'
_cell_length_a   5.80053025
_cell_length_b   5.80053100
_cell_length_c   9.60432886
_cell_angle_alpha   90.00000000
_cell_angle_beta   90.00000000
_cell_angle_gamma   120.00000138
_symmetry_Int_Tables_number   1
_chemical_formula_structural   LuNb6Sn5Bi
_chemical_formula_sum   'Lu1 Nb6 Sn5 Bi1'
_cell_volume   279.85501642
_cell_formula_units_Z   1
loop_
 _symmetry_equiv_pos_site_id
 _symmetry_equiv_pos_as_xyz
  1  'x, y, z'
loop_
 _atom_site_type_symbol
 _atom_site_label
 _atom_site_symmetry_multiplicity
 _atom_site_fract_x
 _atom_site_fract_y
 _atom_site_fract_z
 _atom_site_occupancy
  Lu  Lu0  1  0.00000000  0.00000000  0.98990806  1
  Nb  Nb0  1  0.00000000  0.50000000  0.75617027  1
  Nb  Nb1  1  0.50000000  0.50000000  0.75617027  1
  Nb  Nb2  1  0.50000000  0.00000000  0.75617027  1
  Nb  Nb3  1  0.00000000  0.50000000  0.25210619  1
  Nb  Nb4  1  0.50000000  0.50000000  0.25210619  1
  Nb  Nb5  1  0.50000000  0.00000000  0.25210619  1
  Sn  Sn0  1  0.66666700  0.33333300  0.50240110  1
  Sn  Sn1  1  0.33333300  0.66666700  0.50240110  1
  Sn  Sn2  1  0.66666700  0.33333300  0.00360925  1
  Sn  Sn3  1  0.33333300  0.66666700  0.00360925  1
  Sn  Sn4  1  0.00000000  0.00000000  0.32004910  1
  Bi  Bi0  1  0.00000000  0.00000000  0.65319274  1
loop_
_geom_bond_atom_site_label_1
_geom_bond_atom_site_label_2
_geom_bond_distance
_geom_bond_site_symmetry_2
Lu0 Sn4 3.170783 1_556
Lu0 Sn2 3.351519 1_456
Lu0 Sn3 3.351519 1_546
Lu0 Sn2 3.351524 1_556
Lu0 Sn3 3.351524 1_446
Lu0 Sn3 3.351524 1_556
Lu0 Sn2 3.351524 1_446
Nb0 Sn3 2.907150 1_556
Nb0 Sn2 2.907150 1_456
Nb0 Sn1 2.957057 1_555
Nb0 Sn0 2.957057 1_455
Nb1 Sn3 2.907153 1_556
Nb1 Sn2 2.907153 1_556
Nb1 Sn0 2.957060 1_555
Nb1 Sn1 2.957060 1_555
Nb2 Sn2 2.907150 1_556
Nb2 Sn3 2.907150 1_546
Nb2 Sn0 2.957057 1_555
Nb2 Sn1 2.957057 1_545
Nb3 Sn3 2.915462 1_555
Nb3 Sn2 2.915462 1_455
Nb3 Sn1 2.929615 1_555
Nb3 Sn0 2.929615 1_455
Nb3 Sn4 2.972769 1_555
Nb3 Sn4 2.972769 1_565
Nb4 Sn2 2.915465 1_555
Nb4 Sn3 2.915465 1_555
Nb4 Sn1 2.929618 1_555
Nb4 Sn0 2.929618 1_555
Nb4 Sn4 2.972769 1_665
Nb4 Sn4 2.972769 1_555
Nb5 Sn2 2.915463 1_555
Nb5 Sn3 2.915463 1_545
Nb5 Sn0 2.929615 1_555
Nb5 Sn1 2.929615 1_545
Nb5 Sn4 2.972769 1_555
Nb5 Sn4 2.972769 1_655
Bi0 Nb2 3.064265 1_555
Bi0 Nb2 3.064265 1_455
Bi0 Nb1 3.064265 1_555
Bi0 Nb1 3.064265 1_445
Bi0 Nb0 3.064265 1_545
Bi0 Nb0 3.064265 1_555
Bi0 Sn4 3.199621 1_555
Bi0 Lu0 3.233925 1_555
