# generated using pymatgen
data_Mn2AlCo4As
_symmetry_space_group_name_H-M   'P 1'
_cell_length_a   6.96475045
_cell_length_b   6.96475068
_cell_length_c   6.96475048
_cell_angle_alpha   33.59415790
_cell_angle_beta   33.59415478
_cell_angle_gamma   33.59416749
_symmetry_Int_Tables_number   1
_chemical_formula_structural   Mn2AlCo4As
_chemical_formula_sum   'Mn2 Al1 Co4 As1'
_cell_volume   92.13353583
_cell_formula_units_Z   1
loop_
 _symmetry_equiv_pos_site_id
 _symmetry_equiv_pos_as_xyz
  1  'x, y, z'
loop_
 _atom_site_type_symbol
 _atom_site_label
 _atom_site_symmetry_multiplicity
 _atom_site_fract_x
 _atom_site_fract_y
 _atom_site_fract_z
 _atom_site_occupancy
  Mn  Mn0  1  0.25313113  0.25313113  0.25313113  1
  Mn  Mn1  1  0.74686887  0.74686887  0.74686887  1
  Al  Al0  1  0.00000000  0.00000000  0.00000000  1
  Co  Co0  1  0.37710452  0.37710452  0.37710452  1
  Co  Co1  1  0.87331317  0.87331317  0.87331317  1
  Co  Co2  1  0.62289548  0.62289548  0.62289548  1
  Co  Co3  1  0.12668683  0.12668683  0.12668683  1
  As  As0  1  0.50000000  0.50000000  0.50000000  1
loop_
_geom_bond_atom_site_label_1
_geom_bond_atom_site_label_2
_geom_bond_distance
_geom_bond_site_symmetry_2
Al0 Co0 2.478820 1_554
Al0 Co2 2.478820 1_445
Al0 Co0 2.478820 1_455
Al0 Co2 2.478820 1_544
Al0 Co0 2.478820 1_545
Al0 Co2 2.478820 1_454
Al0 Co3 2.495308 1_555
Al0 Co1 2.495308 1_444
Co0 Mn1 2.432315 1_554
Co0 Mn1 2.432316 1_455
Co0 Mn1 2.432316 1_545
Co0 Mn0 2.441862 1_555
Co1 Mn1 2.490531 1_555
Co1 Mn0 2.497911 1_665
Co1 Mn0 2.497912 1_566
Co1 Mn0 2.497912 1_656
Co2 Mn0 2.432315 1_556
Co2 Mn0 2.432316 1_655
Co2 Mn0 2.432316 1_565
Co2 Mn1 2.441862 1_555
Co3 Mn0 2.490531 1_555
Co3 Mn1 2.497911 1_445
Co3 Mn1 2.497912 1_544
Co3 Mn1 2.497912 1_454
As0 Co2 2.420631 1_555
As0 Co0 2.420631 1_555
As0 Co1 2.453846 1_554
As0 Co3 2.453846 1_556
As0 Co1 2.453846 1_455
As0 Co3 2.453846 1_655
As0 Co1 2.453846 1_545
As0 Co3 2.453846 1_565
