# generated using pymatgen
data_Al(MoS2)4
_symmetry_space_group_name_H-M   'P 1'
_cell_length_a   6.93850933
_cell_length_b   6.93850933
_cell_length_c   6.93850933
_cell_angle_alpha   60.00000000
_cell_angle_beta   60.00000000
_cell_angle_gamma   60.00000000
_symmetry_Int_Tables_number   1
_chemical_formula_structural   Al(MoS2)4
_chemical_formula_sum   'Al1 Mo4 S8'
_cell_volume   236.20197921
_cell_formula_units_Z   1
loop_
 _symmetry_equiv_pos_site_id
 _symmetry_equiv_pos_as_xyz
  1  'x, y, z'
loop_
 _atom_site_type_symbol
 _atom_site_label
 _atom_site_symmetry_multiplicity
 _atom_site_fract_x
 _atom_site_fract_y
 _atom_site_fract_z
 _atom_site_occupancy
  Al  Al0  1  0.00000000  0.00000000  0.00000000  1
  Mo  Mo0  1  0.39762200  0.39762200  0.39762200  1
  Mo  Mo1  1  0.39762200  0.39762200  0.80713300  1
  Mo  Mo2  1  0.80713300  0.39762200  0.39762200  1
  Mo  Mo3  1  0.39762200  0.80713300  0.39762200  1
  S  S0  1  0.13453300  0.13453300  0.13453300  1
  S  S1  1  0.13453300  0.13453300  0.59640000  1
  S  S2  1  0.59640000  0.13453300  0.13453300  1
  S  S3  1  0.63345900  0.09962200  0.63345900  1
  S  S4  1  0.09962200  0.63345900  0.63345900  1
  S  S5  1  0.63345900  0.63345900  0.09962200  1
  S  S6  1  0.63345900  0.63345900  0.63345900  1
  S  S7  1  0.13453300  0.59640000  0.13453300  1
loop_
_geom_bond_atom_site_label_1
_geom_bond_atom_site_label_2
_geom_bond_distance
_geom_bond_site_symmetry_2
Al0 S0 2.286497 1_555
Al0 S1 2.286503 1_554
Al0 S2 2.286503 1_455
Al0 S7 2.286503 1_545
Mo0 S3 2.354011 1_555
Mo0 S5 2.354011 1_555
Mo0 S4 2.354011 1_555
Mo0 S1 2.619851 1_555
Mo0 S2 2.619851 1_555
Mo0 S7 2.619851 1_555
Mo1 S6 2.354011 1_555
Mo1 S3 2.354011 1_555
Mo1 S4 2.354011 1_555
Mo1 S7 2.619851 1_556
Mo1 S2 2.619851 1_556
Mo1 S0 2.619851 1_556
Mo2 S6 2.354011 1_555
Mo2 S3 2.354011 1_555
Mo2 S5 2.354011 1_555
Mo2 S7 2.619851 1_655
Mo2 S1 2.619851 1_655
Mo2 S0 2.619851 1_655
Mo3 S6 2.354011 1_555
Mo3 S5 2.354011 1_555
Mo3 S4 2.354011 1_555
Mo3 S1 2.619851 1_565
Mo3 S2 2.619851 1_565
Mo3 S0 2.619851 1_565
