# generated using pymatgen
data_NaCu(Sb4Ru)3
_symmetry_space_group_name_H-M   'P 1'
_cell_length_a   8.08500417
_cell_length_b   8.08500464
_cell_length_c   8.12772217
_cell_angle_alpha   109.57829050
_cell_angle_beta   109.57829169
_cell_angle_gamma   109.36394347
_symmetry_Int_Tables_number   1
_chemical_formula_structural   NaCu(Sb4Ru)3
_chemical_formula_sum   'Na1 Cu1 Sb12 Ru3'
_cell_volume   408.44338944
_cell_formula_units_Z   1
loop_
 _symmetry_equiv_pos_site_id
 _symmetry_equiv_pos_as_xyz
  1  'x, y, z'
loop_
 _atom_site_type_symbol
 _atom_site_label
 _atom_site_symmetry_multiplicity
 _atom_site_fract_x
 _atom_site_fract_y
 _atom_site_fract_z
 _atom_site_occupancy
  Na  Na0  1  0.00000000  0.00000000  0.00000000  1
  Cu  Cu0  1  0.00000000  0.00000000  0.50000000  1
  Sb  Sb0  1  0.15790695  0.81042437  0.65924243  1
  Sb  Sb1  1  0.84209305  0.18957563  0.34075757  1
  Sb  Sb2  1  0.84294312  0.50492215  0.66358841  1
  Sb  Sb3  1  0.15705688  0.49507785  0.33641159  1
  Sb  Sb4  1  0.81042437  0.65251742  0.15118295  1
  Sb  Sb5  1  0.18957563  0.34748258  0.84881705  1
  Sb  Sb6  1  0.50492215  0.66197903  0.84133474  1
  Sb  Sb7  1  0.49507785  0.33802097  0.15866526  1
  Sb  Sb8  1  0.66197903  0.15705688  0.82064429  1
  Sb  Sb9  1  0.33802097  0.84294312  0.17935571  1
  Sb  Sb10  1  0.65251742  0.84209305  0.50133548  1
  Sb  Sb11  1  0.34748258  0.15790695  0.49866452  1
  Ru  Ru0  1  0.50000000  0.00000000  0.00000000  1
  Ru  Ru1  1  0.00000000  0.50000000  0.00000000  1
  Ru  Ru2  1  0.50000000  0.50000000  0.50000000  1
loop_
_geom_bond_atom_site_label_1
_geom_bond_atom_site_label_2
_geom_bond_distance
_geom_bond_site_symmetry_2
Na0 Sb3 3.475346 1_555
Na0 Sb2 3.475346 1_444
Na0 Sb7 3.475348 1_555
Na0 Sb6 3.475348 1_444
Na0 Sb8 3.475348 1_454
Na0 Sb9 3.475348 1_545
Na0 Sb11 3.531585 1_555
Na0 Sb10 3.531585 1_444
Na0 Sb1 3.531585 1_455
Na0 Sb0 3.531585 1_544
Na0 Sb4 3.531591 1_445
Na0 Sb5 3.531591 1_554
Cu0 Sb5 2.678428 1_555
Cu0 Sb4 2.678428 1_445
Cu0 Sb10 2.678433 1_445
Cu0 Sb11 2.678433 1_555
Cu0 Sb0 2.678433 1_545
Cu0 Sb1 2.678433 1_455
Sb0 Sb2 2.921377 1_455
Sb0 Sb3 2.979599 1_555
Sb1 Sb3 2.921377 1_655
Sb1 Sb2 2.979599 1_555
Sb4 Sb6 2.921377 1_554
Sb4 Sb7 2.979590 1_555
Sb5 Sb7 2.921377 1_556
Sb5 Sb6 2.979590 1_555
Sb10 Sb8 2.921372 1_565
Sb10 Sb9 2.979594 1_555
Sb11 Sb9 2.921372 1_545
Sb11 Sb8 2.979594 1_555
Ru0 Sb8 2.621022 1_554
Ru0 Sb9 2.621022 1_545
Ru0 Sb7 2.622580 1_555
Ru0 Sb6 2.622580 1_544
Ru0 Sb1 2.622918 1_555
Ru0 Sb0 2.622918 1_544
Ru1 Sb3 2.621015 1_555
Ru1 Sb2 2.621015 1_454
Ru1 Sb9 2.622580 1_555
Ru1 Sb8 2.622580 1_454
Ru1 Sb5 2.622922 1_554
Ru1 Sb4 2.622922 1_455
Ru2 Sb6 2.621022 1_555
Ru2 Sb7 2.621022 1_555
Ru2 Sb2 2.622581 1_555
Ru2 Sb3 2.622581 1_555
Ru2 Sb10 2.622918 1_555
Ru2 Sb11 2.622918 1_555
