# generated using pymatgen
data_Ca21MgGa13Sb
_symmetry_space_group_name_H-M   'P 1'
_cell_length_a   11.31678538
_cell_length_b   11.28360337
_cell_length_c   11.31678613
_cell_angle_alpha   60.09695005
_cell_angle_beta   59.80610055
_cell_angle_gamma   60.09695239
_symmetry_Int_Tables_number   1
_chemical_formula_structural   Ca21MgGa13Sb
_chemical_formula_sum   'Ca21 Mg1 Ga13 Sb1'
_cell_volume   1021.81333352
_cell_formula_units_Z   1
loop_
 _symmetry_equiv_pos_site_id
 _symmetry_equiv_pos_as_xyz
  1  'x, y, z'
loop_
 _atom_site_type_symbol
 _atom_site_label
 _atom_site_symmetry_multiplicity
 _atom_site_fract_x
 _atom_site_fract_y
 _atom_site_fract_z
 _atom_site_occupancy
  Ca  Ca0  1  0.99884238  0.00115762  0.99884238  1
  Ca  Ca1  1  0.12723921  0.13549047  0.12723921  1
  Ca  Ca2  1  0.38996888  0.87276079  0.86450953  1
  Ca  Ca3  1  0.87093842  0.38967939  0.87093842  1
  Ca  Ca4  1  0.86450953  0.87276079  0.38996888  1
  Ca  Ca5  1  0.12723921  0.61003112  0.12723921  1
  Ca  Ca6  1  0.13155724  0.12906158  0.61032061  1
  Ca  Ca7  1  0.61032061  0.12906158  0.13155724  1
  Ca  Ca8  1  0.87093842  0.86844276  0.87093842  1
  Ca  Ca9  1  0.49984939  0.82844620  0.49984939  1
  Ca  Ca10  1  0.82942786  0.50065250  0.49934750  1
  Ca  Ca11  1  0.50586940  0.82777390  0.17222610  1
  Ca  Ca12  1  0.17155380  0.50015061  0.82814497  1
  Ca  Ca13  1  0.82814497  0.50015061  0.17155380  1
  Ca  Ca14  1  0.49934750  0.50065250  0.82942786  1
  Ca  Ca15  1  0.17222610  0.82777390  0.50586940  1
  Ca  Ca16  1  0.49934750  0.17057214  0.82942786  1
  Ca  Ca17  1  0.50586940  0.49413060  0.17222610  1
  Ca  Ca18  1  0.82942786  0.17057214  0.49934750  1
  Ca  Ca19  1  0.17222610  0.49413060  0.50586940  1
  Ca  Ca20  1  0.49984939  0.17185503  0.49984939  1
  Mg  Mg0  1  0.50094326  0.49905674  0.50094326  1
  Ga  Ga0  1  0.21511165  0.78488835  0.78475758  1
  Ga  Ga1  1  0.78475758  0.21524242  0.21511165  1
  Ga  Ga2  1  0.78475758  0.78488835  0.21511165  1
  Ga  Ga3  1  0.21511165  0.21524242  0.78475758  1
  Ga  Ga4  1  0.78232250  0.21767750  0.78232250  1
  Ga  Ga5  1  0.30776195  0.31012166  0.30776095  1
  Ga  Ga6  1  0.92564455  0.69223905  0.68987834  1
  Ga  Ga7  1  0.69156883  0.92677704  0.69156883  1
  Ga  Ga8  1  0.68987834  0.69223905  0.92564455  1
  Ga  Ga9  1  0.30776095  0.07435545  0.30776095  1
  Ga  Ga10  1  0.30991471  0.30843117  0.07322296  1
  Ga  Ga11  1  0.07322296  0.30843117  0.30991471  1
  Ga  Ga12  1  0.69156883  0.69008529  0.69156783  1
  Sb  Sb0  1  0.21498450  0.78501550  0.21498450  1
loop_
_geom_bond_atom_site_label_1
_geom_bond_atom_site_label_2
_geom_bond_distance
_geom_bond_site_symmetry_2
Ca0 Ga3 3.433716 1_655
Ca0 Ga2 3.433716 1_546
Ca0 Ga1 3.433716 1_556
Ca0 Ga0 3.433716 1_645
Ca0 Sb0 3.469328 1_646
Ca0 Ga4 3.475392 1_555
Ca1 Ga10 3.164986 1_555
Ca1 Ga11 3.164986 1_555
Ca1 Ga9 3.195416 1_555
Ca1 Ga1 3.218442 1_455
Ca1 Ga3 3.218442 1_554
Ca1 Sb0 3.282089 1_545
Ca2 Ga7 3.164986 1_555
Ca2 Ga12 3.164991 1_555
Ca2 Ga8 3.195426 1_555
Ca2 Ga0 3.218442 1_555
Ca2 Ga3 3.218442 1_565
Ca2 Sb0 3.282089 1_556
Ca3 Ga6 3.177035 1_555
Ca3 Ga8 3.177035 1_555
Ca3 Ga12 3.186594 1_555
Ca3 Ga3 3.231883 1_655
Ca3 Ga1 3.231883 1_556
Ca3 Ga4 3.266642 1_555
Ca4 Ga12 3.164981 1_555
Ca4 Ga7 3.164986 1_555
Ca4 Ga6 3.195426 1_555
Ca4 Ga2 3.218442 1_555
Ca4 Ga1 3.218442 1_565
Ca4 Sb0 3.282089 1_655
Ca5 Ga11 3.164986 1_555
Ca5 Ga10 3.164987 1_555
Ca5 Ga5 3.195426 1_555
Ca5 Ga2 3.218442 1_455
Ca5 Ga0 3.218442 1_554
Ca5 Sb0 3.282089 1_555
Ca6 Ga5 3.177030 1_555
Ca6 Ga9 3.177035 1_555
Ca6 Ga11 3.186594 1_555
Ca6 Ga3 3.231875 1_555
Ca6 Ga0 3.231883 1_545
Ca6 Ga4 3.266650 1_455
Ca7 Ga5 3.177020 1_555
Ca7 Ga9 3.177035 1_555
Ca7 Ga10 3.186594 1_555
Ca7 Ga1 3.231874 1_555
Ca7 Ga2 3.231883 1_545
Ca7 Ga4 3.266650 1_554
Ca8 Ga8 3.177015 1_555
Ca8 Ga6 3.177015 1_555
Ca8 Ga7 3.186584 1_555
Ca8 Ga0 3.231885 1_655
Ca8 Ga2 3.231885 1_556
Ca8 Ga4 3.266652 1_565
Ca9 Ga12 3.135652 1_555
Ca9 Ga9 3.142478 1_565
Ca9 Ga0 3.251049 1_555
Ca9 Ga2 3.251049 1_555
Ca9 Mg0 3.704399 1_555
Ca10 Ga12 3.103595 1_555
Ca10 Ga11 3.103604 1_655
Ca10 Ga4 3.243353 1_555
Ca10 Ga2 3.259041 1_555
Ca10 Mg0 3.717328 1_555
Ca11 Ga8 3.113990 1_554
Ca11 Ga9 3.113990 1_565
Ca11 Ga2 3.196023 1_555
Ca11 Sb0 3.324452 1_555
Ca11 Mg0 3.720113 1_555
Ca12 Ga10 3.135661 1_556
Ca12 Ga6 3.142471 1_455
Ca12 Ga0 3.251049 1_555
Ca12 Ga3 3.251049 1_555
Ca12 Mg0 3.704398 1_555
Ca13 Ga11 3.135661 1_655
Ca13 Ga8 3.142471 1_554
Ca13 Ga1 3.251049 1_555
Ca13 Ga2 3.251049 1_555
Ca13 Mg0 3.704398 1_555
Ca14 Ga12 3.103602 1_555
Ca14 Ga10 3.103604 1_556
Ca14 Ga4 3.243353 1_555
Ca14 Ga0 3.259041 1_555
Ca14 Mg0 3.717328 1_555
Ca15 Ga6 3.113989 1_455
Ca15 Ga9 3.113990 1_565
Ca15 Ga0 3.196023 1_555
Ca15 Sb0 3.324452 1_555
Ca15 Mg0 3.720113 1_555
Ca16 Ga10 3.103604 1_556
Ca16 Ga7 3.103604 1_545
Ca16 Ga4 3.243353 1_555
Ca16 Ga3 3.259041 1_555
Ca16 Mg0 3.717328 1_555
Ca17 Ga5 3.113989 1_555
Ca17 Ga8 3.113996 1_554
Ca17 Ga1 3.196023 1_555
Ca17 Sb0 3.324452 1_555
Ca17 Mg0 3.720113 1_555
Ca18 Ga11 3.103604 1_655
Ca18 Ga7 3.103604 1_545
Ca18 Ga4 3.243353 1_555
Ca18 Ga1 3.259041 1_555
Ca18 Mg0 3.717328 1_555
Ca19 Ga6 3.113996 1_455
Ca19 Ga5 3.113996 1_555
Ca19 Ga3 3.196023 1_555
Ca19 Sb0 3.324452 1_555
Ca19 Mg0 3.720113 1_555
Ca20 Ga7 3.135661 1_545
Ca20 Ga5 3.142471 1_555
Ca20 Ga1 3.251049 1_555
Ca20 Ga3 3.251049 1_555
Ca20 Mg0 3.704399 1_555
Ga5 Ga9 2.660298 1_555
Ga6 Ga7 2.651565 1_555
Ga6 Ga8 2.660292 1_555
Ga7 Ga8 2.651565 1_555
Ga10 Ga5 2.651565 1_555
Ga10 Ga9 2.651565 1_555
Ga10 Ga11 2.670736 1_555
Ga11 Ga9 2.651565 1_555
Ga11 Ga5 2.651570 1_555
Ga12 Ga6 2.651576 1_555
Ga12 Ga8 2.651582 1_555
Ga12 Ga7 2.670741 1_555
