# generated using pymatgen
data_KZrCrS4
_symmetry_space_group_name_H-M   'P 1'
_cell_length_a   3.66561844
_cell_length_b   7.86987528
_cell_length_c   6.13505285
_cell_angle_alpha   75.14061322
_cell_angle_beta   90.00000000
_cell_angle_gamma   90.00000000
_symmetry_Int_Tables_number   1
_chemical_formula_structural   KZrCrS4
_chemical_formula_sum   'K1 Zr1 Cr1 S4'
_cell_volume   171.06508578
_cell_formula_units_Z   1
loop_
 _symmetry_equiv_pos_site_id
 _symmetry_equiv_pos_as_xyz
  1  'x, y, z'
loop_
 _atom_site_type_symbol
 _atom_site_label
 _atom_site_symmetry_multiplicity
 _atom_site_fract_x
 _atom_site_fract_y
 _atom_site_fract_z
 _atom_site_occupancy
  K  K0  1  0.50000000  0.49475253  0.64700176  1
  Zr  Zr0  1  0.00000000  0.99912013  0.00366816  1
  Cr  Cr0  1  0.50000000  0.00215342  0.50377756  1
  S  S0  1  0.00000000  0.82243999  0.41411164  1
  S  S1  1  0.50000000  0.81181102  0.88829017  1
  S  S2  1  0.00000000  0.18059713  0.59321570  1
  S  S3  1  0.50000000  0.18824578  0.11689401  1
loop_
_geom_bond_atom_site_label_1
_geom_bond_atom_site_label_2
_geom_bond_distance
_geom_bond_site_symmetry_2
K0 S2 3.162135 1_555
K0 S2 3.162135 1_655
K0 S0 3.187681 1_555
K0 S0 3.187681 1_655
K0 S1 3.211215 1_555
K0 S3 3.250013 1_556
Cr0 S3 2.448609 1_555
Cr0 S1 2.448753 1_545
Cr0 S2 2.455124 1_555
Cr0 S2 2.455124 1_655
Cr0 S0 2.461942 1_545
Cr0 S0 2.461942 1_645
S0 Zr0 2.545260 1_555
S1 Zr0 2.562886 1_556
S1 Zr0 2.562886 1_656
S2 Zr0 2.556607 1_546
S3 Zr0 2.566580 1_645
S3 Zr0 2.566580 1_545
