# generated using pymatgen
data_KTc2Te7W4
_symmetry_space_group_name_H-M   'P 1'
_cell_length_a   10.38225060
_cell_length_b   10.35513088
_cell_length_c   10.33310691
_cell_angle_alpha   60.41136563
_cell_angle_beta   60.25919007
_cell_angle_gamma   60.08565085
_symmetry_Int_Tables_number   1
_chemical_formula_structural   KTc2Te7W4
_chemical_formula_sum   'K2 Tc4 Te14 W8'
_cell_volume   789.99990747
_cell_formula_units_Z   2
loop_
 _symmetry_equiv_pos_site_id
 _symmetry_equiv_pos_as_xyz
  1  'x, y, z'
loop_
 _atom_site_type_symbol
 _atom_site_label
 _atom_site_symmetry_multiplicity
 _atom_site_fract_x
 _atom_site_fract_y
 _atom_site_fract_z
 _atom_site_occupancy
  K  K0  1  0.62650549  0.62665503  0.62734036  1
  K  K1  1  0.37790312  0.37271337  0.37490227  1
  Tc  Tc0  1  0.71525647  0.87624503  0.00892102  1
  Tc  Tc1  1  0.01014229  0.71331335  0.87719741  1
  Tc  Tc2  1  0.87638303  0.00846774  0.71494384  1
  Tc  Tc3  1  0.28528621  0.12428188  0.99177541  1
  Te  Te0  1  0.43068644  0.81055679  0.15670384  1
  Te  Te1  1  0.16587186  0.42730288  0.80241117  1
  Te  Te2  1  0.80032994  0.16453691  0.43229418  1
  Te  Te3  1  0.57385331  0.18600105  0.84208778  1
  Te  Te4  1  0.83953289  0.57602843  0.18732650  1
  Te  Te5  1  0.18690147  0.83835606  0.57652668  1
  Te  Te6  1  0.63108727  0.96570385  0.26137401  1
  Te  Te7  1  0.26060910  0.63105150  0.96714461  1
  Te  Te8  1  0.96430045  0.26043330  0.63225858  1
  Te  Te9  1  0.36793843  0.03167807  0.73698771  1
  Te  Te10  1  0.73620955  0.36932229  0.02883858  1
  Te  Te11  1  0.03316768  0.73521231  0.36662483  1
  Te  Te12  1  0.78406461  0.77987427  0.78013735  1
  Te  Te13  1  0.22352677  0.22254160  0.22183032  1
  W  W0  1  0.99222847  0.28339874  0.12432539  1
  W  W1  1  0.12147412  0.99484903  0.28406071  1
  W  W2  1  0.94789777  0.80901190  0.10767558  1
  W  W3  1  0.10498322  0.94812515  0.81046961  1
  W  W4  1  0.80750596  0.10630568  0.95008784  1
  W  W5  1  0.05189786  0.19047991  0.89421825  1
  W  W6  1  0.89338146  0.05184544  0.19141370  1
  W  W7  1  0.19107275  0.89571144  0.05012549  1
loop_
_geom_bond_atom_site_label_1
_geom_bond_atom_site_label_2
_geom_bond_distance
_geom_bond_site_symmetry_2
K0 Te8 3.661238 1_555
K0 Te6 3.675019 1_555
K0 Te7 3.676053 1_555
K0 Te12 3.912929 1_555
K0 Te10 4.043948 1_556
K0 Te9 4.065169 1_565
K0 Te11 4.099430 1_655
K0 Te4 4.130300 1_555
K0 Te5 4.144120 1_555
K0 Te3 4.162841 1_555
K1 Te9 3.662332 1_555
K1 Te10 3.663683 1_555
K1 Te11 3.673463 1_555
K1 Te13 3.862514 1_555
K1 Te2 4.015175 1_555
K1 Te1 4.031927 1_555
K1 Te6 4.101479 1_545
K1 Te0 4.134916 1_555
K1 Te7 4.135526 1_554
K1 Te8 4.178493 1_455
Tc0 Tc2 2.652571 1_564
Tc0 Te12 2.652930 1_554
Tc0 Tc1 2.655895 1_654
Tc0 W4 2.688889 1_564
Tc0 W2 2.725150 1_555
Tc0 Te4 2.725313 1_555
Tc0 Te6 2.782802 1_555
Tc0 Te3 2.787322 1_564
Tc0 Te0 2.833011 1_555
Tc1 Te12 2.651340 1_455
Tc1 Tc2 2.664027 1_465
Tc1 W2 2.690051 1_456
Tc1 W3 2.723227 1_555
Tc1 Te5 2.727173 1_555
Tc1 Te7 2.785374 1_555
Tc1 Te4 2.794426 1_456
Tc1 Te1 2.868322 1_555
Tc2 Te12 2.650151 1_545
Tc2 W3 2.689569 1_645
Tc2 W4 2.725077 1_555
Tc2 Te3 2.739141 1_555
Tc2 Te8 2.787641 1_555
Tc2 Te5 2.791245 1_645
Tc2 Te2 2.849470 1_555
Tc3 W0 2.634763 1_456
Tc3 W1 2.643928 1_546
Tc3 W7 2.690193 1_546
Tc3 Te13 2.706109 1_556
Tc3 W5 2.727978 1_555
Tc3 Te1 2.770408 1_555
Tc3 Te0 2.816138 1_546
Tc3 Te9 2.831642 1_555
Tc3 Te3 2.848277 1_555
Te0 W7 2.783957 1_555
Te0 W1 2.803168 1_555
Te1 W5 2.792360 1_555
Te1 W0 2.893117 1_456
Te2 W6 2.801527 1_555
Te2 W0 2.810453 1_555
Te2 W1 2.880628 1_645
Te3 W4 2.755150 1_555
Te4 W2 2.755243 1_555
Te4 W0 2.872626 1_555
Te5 W3 2.751079 1_555
Te5 W1 2.884958 1_555
Te6 W4 2.830304 1_564
Te6 W2 2.830677 1_555
Te6 W6 2.926936 1_565
Te7 W2 2.836010 1_456
Te7 W3 2.840176 1_555
Te7 W7 2.915525 1_556
Te8 W3 2.838874 1_645
Te8 W4 2.844967 1_555
Te8 W5 2.920263 1_655
Te9 W7 2.829956 1_546
Te9 W5 2.842112 1_555
Te9 W3 2.903254 1_545
Te10 W5 2.841392 1_654
Te10 W0 2.864726 1_555
Te10 W6 2.864926 1_555
Te10 W4 2.864990 1_554
Te11 W6 2.851852 1_465
Te11 W7 2.859368 1_555
Te11 W2 2.860682 1_455
Te11 W1 2.866040 1_555
Te13 W1 2.722818 1_545
Te13 W0 2.728192 1_455
W0 W1 2.604022 1_645
W0 W5 2.677026 1_654
W0 W6 2.718464 1_555
W1 W6 2.677694 1_465
W1 W7 2.719738 1_555
W2 W3 2.677972 1_654
W2 W4 2.679962 1_564
W2 W6 2.763214 1_565
W2 W7 2.788857 1_655
W3 W4 2.677719 1_465
W3 W7 2.758775 1_556
W3 W5 2.764552 1_565
W4 W6 2.765287 1_556
W4 W5 2.790476 1_655
W5 W7 2.656035 1_546
W5 W6 2.681156 1_456
W6 W7 2.677309 1_645
