# generated using pymatgen
data_Zr12Al9Pt3C4
_symmetry_space_group_name_H-M   'P 1'
_cell_length_a   8.69120721
_cell_length_b   8.69120741
_cell_length_c   8.69119929
_cell_angle_alpha   59.85839203
_cell_angle_beta   59.85845036
_cell_angle_gamma   59.85845280
_symmetry_Int_Tables_number   1
_chemical_formula_structural   Zr12Al9Pt3C4
_chemical_formula_sum   'Zr12 Al9 Pt3 C4'
_cell_volume   462.72982105
_cell_formula_units_Z   1
loop_
 _symmetry_equiv_pos_site_id
 _symmetry_equiv_pos_as_xyz
  1  'x, y, z'
loop_
 _atom_site_type_symbol
 _atom_site_label
 _atom_site_symmetry_multiplicity
 _atom_site_fract_x
 _atom_site_fract_y
 _atom_site_fract_z
 _atom_site_occupancy
  Zr  Zr0  1  0.43938935  0.43938835  0.06351620  1
  Zr  Zr1  1  0.06127259  0.43941365  0.06127259  1
  Zr  Zr2  1  0.43941465  0.06127259  0.06127259  1
  Zr  Zr3  1  0.06127259  0.06127259  0.43941365  1
  Zr  Zr4  1  0.43938935  0.06351620  0.43938835  1
  Zr  Zr5  1  0.06351620  0.43938835  0.43938935  1
  Zr  Zr6  1  0.81061065  0.81061165  0.18648380  1
  Zr  Zr7  1  0.18872741  0.81058635  0.18872741  1
  Zr  Zr8  1  0.81058535  0.18872741  0.18872741  1
  Zr  Zr9  1  0.18872741  0.18872741  0.81058635  1
  Zr  Zr10  1  0.81061065  0.18648380  0.81061165  1
  Zr  Zr11  1  0.18648380  0.81061165  0.81061065  1
  Al  Al0  1  0.83613455  0.83613455  0.50867031  1
  Al  Al1  1  0.83613455  0.50867031  0.83613455  1
  Al  Al2  1  0.50867031  0.83613455  0.83613455  1
  Al  Al3  1  0.83158936  0.83159036  0.83159036  1
  Al  Al4  1  0.41386545  0.41386545  0.74132969  1
  Al  Al5  1  0.41386545  0.74132969  0.41386545  1
  Al  Al6  1  0.74132969  0.41386545  0.41386545  1
  Al  Al7  1  0.41841064  0.41840964  0.41840964  1
  Al  Al8  1  0.62500000  0.62500000  0.62500000  1
  Pt  Pt0  1  0.62500000  0.62500000  0.12500000  1
  Pt  Pt1  1  0.62500000  0.12500000  0.62500000  1
  Pt  Pt2  1  0.12500000  0.62500000  0.62500000  1
  C  C0  1  0.12500000  0.12500000  0.62500000  1
  C  C1  1  0.12500000  0.62500000  0.12500000  1
  C  C2  1  0.62500000  0.12500000  0.12500000  1
  C  C3  1  0.12500000  0.12500000  0.12500000  1
loop_
_geom_bond_atom_site_label_1
_geom_bond_atom_site_label_2
_geom_bond_distance
_geom_bond_site_symmetry_2
Al0 Pt2 2.598429 1_655
Al0 Pt1 2.598431 1_565
Al0 Al8 2.722500 1_555
Al0 Al3 2.767457 1_555
Al0 Al1 2.839964 1_555
Al0 Al2 2.839967 1_555
Al0 Zr8 2.924278 1_565
Al0 Zr7 2.924280 1_655
Al0 Zr6 3.039165 1_555
Al0 Zr3 3.082092 1_665
Al0 Zr4 3.194475 1_565
Al0 Zr5 3.194479 1_655
Al1 Pt0 2.598429 1_556
Al1 Pt2 2.598430 1_655
Al1 Al8 2.722499 1_555
Al1 Al3 2.767460 1_555
Al1 Al2 2.839968 1_555
Al1 Zr8 2.924277 1_556
Al1 Zr9 2.924281 1_655
Al1 Zr10 3.039167 1_555
Al1 Zr1 3.082090 1_656
Al1 Zr5 3.194473 1_655
Al1 Zr0 3.194475 1_556
Al2 Pt0 2.598427 1_556
Al2 Pt1 2.598429 1_565
Al2 Al8 2.722500 1_555
Al2 Al3 2.767456 1_555
Al2 Zr7 2.924279 1_556
Al2 Zr9 2.924281 1_565
Al2 Zr11 3.039167 1_555
Al2 Zr2 3.082096 1_566
Al2 Zr4 3.194474 1_565
Al2 Zr0 3.194477 1_556
Al3 Pt1 2.644190 1_565
Al3 Pt0 2.644190 1_556
Al3 Pt2 2.644200 1_655
Al3 Zr6 2.912751 1_556
Al3 Zr10 2.912754 1_565
Al3 Zr11 2.912759 1_655
Al3 Zr2 3.150091 1_566
Al3 Zr3 3.150099 1_665
Al3 Zr1 3.150100 1_656
Al4 Pt2 2.598429 1_555
Al4 Pt1 2.598431 1_555
Al4 Al8 2.722500 1_555
Al4 Al7 2.767457 1_555
Al4 Al5 2.839964 1_555
Al4 Al6 2.839967 1_555
Al4 Zr2 2.924278 1_556
Al4 Zr1 2.924280 1_556
Al4 Zr0 3.039165 1_556
Al4 Zr9 3.082092 1_555
Al4 Zr10 3.194475 1_555
Al4 Zr11 3.194479 1_555
Al5 Pt0 2.598429 1_555
Al5 Pt2 2.598430 1_555
Al5 Al8 2.722499 1_555
Al5 Al7 2.767460 1_555
Al5 Al6 2.839968 1_555
Al5 Zr2 2.924277 1_565
Al5 Zr3 2.924281 1_565
Al5 Zr4 3.039167 1_565
Al5 Zr7 3.082090 1_555
Al5 Zr11 3.194473 1_555
Al5 Zr6 3.194475 1_555
Al6 Pt0 2.598427 1_555
Al6 Pt1 2.598429 1_555
Al6 Al8 2.722500 1_555
Al6 Al7 2.767456 1_555
Al6 Zr1 2.924279 1_655
Al6 Zr3 2.924281 1_655
Al6 Zr5 3.039167 1_655
Al6 Zr8 3.082096 1_555
Al6 Zr10 3.194474 1_555
Al6 Zr6 3.194477 1_555
Al7 Pt1 2.644190 1_555
Al7 Pt0 2.644190 1_555
Al7 Pt2 2.644200 1_555
Al7 Zr0 2.912751 1_555
Al7 Zr4 2.912754 1_555
Al7 Zr5 2.912759 1_555
Al7 Zr8 3.150091 1_555
Al7 Zr9 3.150099 1_555
Al7 Zr7 3.150100 1_555
Al8 Zr0 3.161436 1_556
Al8 Zr6 3.161436 1_555
Al8 Zr4 3.161438 1_565
Al8 Zr10 3.161438 1_555
Al8 Zr5 3.161441 1_655
Al8 Zr11 3.161441 1_555
Pt0 Zr6 3.136115 1_555
Pt0 Zr0 3.136115 1_555
Pt0 Zr2 3.151457 1_565
Pt0 Zr8 3.151457 1_555
Pt0 Zr1 3.151458 1_655
Pt0 Zr7 3.151458 1_555
Pt1 Zr10 3.136114 1_555
Pt1 Zr4 3.136114 1_555
Pt1 Zr2 3.151454 1_556
Pt1 Zr8 3.151454 1_555
Pt1 Zr3 3.151458 1_655
Pt1 Zr9 3.151458 1_555
Pt2 Zr11 3.136114 1_555
Pt2 Zr5 3.136114 1_555
Pt2 Zr1 3.151453 1_556
Pt2 Zr7 3.151453 1_555
Pt2 Zr3 3.151456 1_565
Pt2 Zr9 3.151456 1_555
C0 Zr9 2.306008 1_555
C0 Zr3 2.306008 1_555
C0 Zr5 2.307946 1_555
C0 Zr11 2.307946 1_545
C0 Zr4 2.307956 1_555
C0 Zr10 2.307956 1_455
C1 Zr7 2.306009 1_555
C1 Zr1 2.306009 1_555
C1 Zr5 2.307952 1_555
C1 Zr11 2.307952 1_554
C1 Zr0 2.307956 1_555
C1 Zr6 2.307956 1_455
C2 Zr8 2.306000 1_555
C2 Zr2 2.306000 1_555
C2 Zr4 2.307945 1_555
C2 Zr10 2.307945 1_554
C2 Zr0 2.307947 1_555
C2 Zr6 2.307947 1_545
C3 Zr3 2.312772 1_555
C3 Zr9 2.312772 1_554
C3 Zr1 2.312775 1_555
C3 Zr7 2.312775 1_545
C3 Zr2 2.312784 1_555
C3 Zr8 2.312784 1_455
