# generated using pymatgen
data_Li3GaN2
_symmetry_space_group_name_H-M   'P 1'
_cell_length_a   8.28699076
_cell_length_b   8.28700506
_cell_length_c   8.28699120
_cell_angle_alpha   109.47035236
_cell_angle_beta   109.47043865
_cell_angle_gamma   109.47038533
_symmetry_Int_Tables_number   1
_chemical_formula_structural   Li3GaN2
_chemical_formula_sum   'Li24 Ga8 N16'
_cell_volume   438.10959718
_cell_formula_units_Z   8
loop_
 _symmetry_equiv_pos_site_id
 _symmetry_equiv_pos_as_xyz
  1  'x, y, z'
loop_
 _atom_site_type_symbol
 _atom_site_label
 _atom_site_symmetry_multiplicity
 _atom_site_fract_x
 _atom_site_fract_y
 _atom_site_fract_z
 _atom_site_occupancy
  Li  Li0  1  0.73907813  0.76297881  0.23101334  1
  Li  Li1  1  0.03197206  0.50807185  0.26898020  1
  Li  Li2  1  0.76091999  0.99194845  0.02390147  1
  Li  Li3  1  0.26898077  0.03197148  0.50806899  1
  Li  Li4  1  0.76298046  0.23101544  0.73907744  1
  Li  Li5  1  0.73701425  0.47609235  0.46803898  1
  Li  Li6  1  0.47609104  0.46803727  0.73701342  1
  Li  Li7  1  0.50806996  0.26897894  0.03197211  1
  Li  Li8  1  0.02390247  0.76092003  0.99194823  1
  Li  Li9  1  0.99194814  0.02390067  0.76091983  1
  Li  Li10  1  0.23101465  0.73907721  0.76298035  1
  Li  Li11  1  0.46803751  0.73701181  0.47609232  1
  Li  Li12  1  0.26092288  0.23702089  0.76898552  1
  Li  Li13  1  0.96802950  0.49193032  0.73101980  1
  Li  Li14  1  0.23908212  0.00805312  0.97609951  1
  Li  Li15  1  0.73101974  0.96802555  0.49192888  1
  Li  Li16  1  0.23701907  0.76898312  0.26092180  1
  Li  Li17  1  0.26298730  0.52390868  0.53196305  1
  Li  Li18  1  0.52390776  0.53196383  0.26298766  1
  Li  Li19  1  0.53196252  0.26298705  0.52390702  1
  Li  Li20  1  0.97609881  0.23908113  0.00805340  1
  Li  Li21  1  0.00805225  0.97609785  0.23908058  1
  Li  Li22  1  0.76898484  0.26092395  0.23702071  1
  Li  Li23  1  0.49193091  0.73102141  0.96803007  1
  Ga  Ga0  1  0.50000114  0.00000240  0.23602613  1
  Ga  Ga1  1  0.00000280  0.23602644  0.50000214  1
  Ga  Ga2  1  0.26397897  0.26397869  0.26397927  1
  Ga  Ga3  1  0.23602689  0.50000178  0.00000287  1
  Ga  Ga4  1  0.49999777  -0.00000319  0.76397374  1
  Ga  Ga5  1  -0.00000192  0.76397447  0.49999917  1
  Ga  Ga6  1  0.73602142  0.73602070  0.73602071  1
  Ga  Ga7  1  0.76397379  0.49999811  -0.00000339  1
  N  N0  1  0.77233273  0.52233215  0.24999965  1
  N  N1  1  0.00000011  -0.00000040  0.49999947  1
  N  N2  1  0.50000045  0.50000060  0.50000031  1
  N  N3  1  -0.00000254  0.49999859  -0.00000127  1
  N  N4  1  0.47766588  0.74999902  0.22766586  1
  N  N5  1  0.22766640  0.47766600  0.74999910  1
  N  N6  1  0.25000295  0.27233434  0.02233105  1
  N  N7  1  0.27233081  0.02233084  0.24999850  1
  N  N8  1  0.97766476  0.74999768  0.72766615  1
  N  N9  1  0.25000209  0.77233599  0.52233502  1
  N  N10  1  0.72766700  0.97766904  0.74999921  1
  N  N11  1  0.74999912  0.72766691  0.97766877  1
  N  N12  1  0.74999574  0.22766612  0.47766625  1
  N  N13  1  0.52233238  0.25000140  0.77233469  1
  N  N14  1  0.02233286  0.25000175  0.27233210  1
  N  N15  1  0.49999927  -0.00000162  -0.00000222  1
loop_
_geom_bond_atom_site_label_1
_geom_bond_atom_site_label_2
_geom_bond_distance
_geom_bond_site_symmetry_2
Li0 N11 2.058236 1_554
Li0 N4 2.123181 1_555
Li0 N1 2.130508 1_665
Li0 N0 2.150425 1_555
Li1 N9 2.058339 1_555
Li1 N14 2.123224 1_555
Li1 N3 2.130343 1_555
Li1 N0 2.150464 1_455
Li2 N11 2.058375 1_554
Li2 N14 2.123232 1_665
Li2 N15 2.130361 1_565
Li2 N10 2.150413 1_554
Li3 N13 2.058333 1_555
Li3 N7 2.123214 1_555
Li3 N1 2.130353 1_555
Li3 N9 2.150460 1_545
Li4 N10 2.058254 1_545
Li4 N12 2.123155 1_555
Li4 N3 2.130490 1_656
Li4 N13 2.150442 1_555
Li5 N0 2.058325 1_555
Li5 N12 2.123119 1_555
Li5 N2 2.130366 1_555
Li5 N8 2.150521 1_555
Li6 N13 2.058314 1_555
Li6 N5 2.123119 1_555
Li6 N2 2.130371 1_555
Li6 N11 2.150547 1_555
Li7 N0 2.058325 1_555
Li7 N6 2.123201 1_555
Li7 N15 2.130348 1_555
Li7 N13 2.150462 1_554
Li8 N8 2.058363 1_455
Li8 N7 2.123211 1_566
Li8 N3 2.130370 1_556
Li8 N11 2.150422 1_455
Li9 N10 2.058370 1_545
Li9 N6 2.123238 1_656
Li9 N1 2.130370 1_655
Li9 N8 2.150411 1_545
Li10 N8 2.058273 1_455
Li10 N5 2.123170 1_555
Li10 N15 2.130495 1_566
Li10 N9 2.150429 1_555
Li11 N9 2.058321 1_555
Li11 N4 2.123138 1_555
Li11 N2 2.130353 1_555
Li11 N10 2.150545 1_555
Li12 N6 2.058237 1_556
Li12 N13 2.123151 1_555
Li12 N1 2.130511 1_555
Li12 N5 2.150419 1_555
Li13 N12 2.058341 1_555
Li13 N8 2.123216 1_555
Li13 N3 2.130350 1_656
Li13 N5 2.150460 1_655
Li14 N6 2.058374 1_556
Li14 N8 2.123258 1_445
Li14 N15 2.130358 1_556
Li14 N7 2.150400 1_556
Li15 N4 2.058325 1_555
Li15 N10 2.123214 1_555
Li15 N1 2.130343 1_665
Li15 N12 2.150495 1_565
Li16 N7 2.058273 1_565
Li16 N9 2.123166 1_555
Li16 N3 2.130509 1_555
Li16 N4 2.150422 1_555
Li17 N5 2.058316 1_555
Li17 N9 2.123141 1_555
Li17 N2 2.130365 1_555
Li17 N14 2.150545 1_555
Li18 N4 2.058312 1_555
Li18 N0 2.123137 1_555
Li18 N2 2.130360 1_555
Li18 N6 2.150538 1_555
Li19 N12 2.058286 1_555
Li19 N13 2.123148 1_555
Li19 N2 2.130365 1_555
Li19 N7 2.150555 1_555
Li20 N14 2.058347 1_655
Li20 N10 2.123235 1_544
Li20 N3 2.130363 1_655
Li20 N6 2.150433 1_655
Li21 N7 2.058355 1_565
Li21 N11 2.123228 1_454
Li21 N1 2.130357 1_565
Li21 N14 2.150430 1_565
Li22 N14 2.058269 1_655
Li22 N0 2.123152 1_555
Li22 N15 2.130522 1_555
Li22 N12 2.150432 1_555
Li23 N5 2.058343 1_555
Li23 N11 2.123213 1_555
Li23 N15 2.130338 1_566
Li23 N4 2.150457 1_556
Ga0 N15 1.955949 1_555
Ga0 N7 1.992829 1_555
Ga0 N4 1.992852 1_545
Ga0 N12 1.992879 1_555
Ga1 N1 1.955941 1_555
Ga1 N14 1.992841 1_555
Ga1 N12 1.992877 1_455
Ga1 N5 1.992886 1_555
Ga2 N2 1.955989 1_555
Ga2 N14 1.992841 1_555
Ga2 N7 1.992848 1_555
Ga2 N6 1.992870 1_555
Ga3 N3 1.955953 1_555
Ga3 N6 1.992818 1_555
Ga3 N5 1.992849 1_554
Ga3 N4 1.992884 1_555
Ga4 N15 1.955921 1_556
Ga4 N10 1.992824 1_545
Ga4 N13 1.992861 1_555
Ga4 N9 1.992873 1_545
Ga5 N1 1.955935 1_565
Ga5 N8 1.992830 1_455
Ga5 N9 1.992848 1_555
Ga5 N0 1.992906 1_455
Ga6 N2 1.955981 1_555
Ga6 N8 1.992824 1_555
Ga6 N11 1.992859 1_555
Ga6 N10 1.992865 1_555
Ga7 N3 1.955919 1_655
Ga7 N11 1.992824 1_554
Ga7 N0 1.992852 1_555
Ga7 N13 1.992887 1_554
