# generated using pymatgen
data_Zr6GaPC2
_symmetry_space_group_name_H-M   'P 1'
_cell_length_a   5.89785202
_cell_length_b   5.89785230
_cell_length_c   8.80790281
_cell_angle_alpha   90.00000000
_cell_angle_beta   90.00000000
_cell_angle_gamma   145.77441735
_symmetry_Int_Tables_number   1
_chemical_formula_structural   Zr6GaPC2
_chemical_formula_sum   'Zr6 Ga1 P1 C2'
_cell_volume   172.32417898
_cell_formula_units_Z   1
loop_
 _symmetry_equiv_pos_site_id
 _symmetry_equiv_pos_as_xyz
  1  'x, y, z'
loop_
 _atom_site_type_symbol
 _atom_site_label
 _atom_site_symmetry_multiplicity
 _atom_site_fract_x
 _atom_site_fract_y
 _atom_site_fract_z
 _atom_site_occupancy
  Zr  Zr0  1  0.37125313  0.62874787  0.04576814  1
  Zr  Zr1  1  0.05291877  0.94708223  0.25000000  1
  Zr  Zr2  1  0.37125313  0.62874787  0.45423186  1
  Zr  Zr3  1  0.63172752  0.36827348  0.55913449  1
  Zr  Zr4  1  0.93323489  0.06676611  0.74999900  1
  Zr  Zr5  1  0.63172752  0.36827348  0.94086551  1
  Ga  Ga0  1  0.75062573  0.24937527  0.25000000  1
  P  P0  1  0.25391096  0.74609004  0.74999900  1
  C  C0  1  0.00167667  0.99832333  0.99578755  1
  C  C1  1  0.00167667  0.99832333  0.50421245  1
loop_
_geom_bond_atom_site_label_1
_geom_bond_atom_site_label_2
_geom_bond_distance
_geom_bond_site_symmetry_2
Ga0 Zr1 2.824816 1_545
Ga0 Zr1 2.824816 1_655
Ga0 Zr2 2.845526 1_655
Ga0 Zr0 2.845526 1_655
Ga0 Zr2 2.845526 1_545
Ga0 Zr0 2.845526 1_545
Ga0 Zr3 3.034872 1_555
Ga0 Zr5 3.034872 1_554
P0 Zr4 2.664343 1_565
P0 Zr4 2.664343 1_455
P0 Zr3 2.781242 1_455
P0 Zr3 2.781242 1_565
P0 Zr5 2.781253 1_455
P0 Zr5 2.781253 1_565
P0 Zr2 2.921717 1_555
P0 Zr0 2.921732 1_556
C0 Zr4 2.298272 1_465
C0 Zr1 2.312396 1_556
C0 Zr0 2.316788 1_456
C0 Zr0 2.316791 1_566
C0 Zr5 2.322790 1_455
C0 Zr5 2.322792 1_565
C1 Zr4 2.298255 1_465
C1 Zr1 2.312396 1_555
C1 Zr2 2.316788 1_455
C1 Zr2 2.316791 1_565
C1 Zr3 2.322790 1_455
C1 Zr3 2.322792 1_565
