# generated using pymatgen
data_Sr5HgPd2
_symmetry_space_group_name_H-M   'P 1'
_cell_length_a   9.73976774
_cell_length_b   9.73976610
_cell_length_c   9.73976611
_cell_angle_alpha   129.69547707
_cell_angle_beta   129.69547401
_cell_angle_gamma   73.89406648
_symmetry_Int_Tables_number   1
_chemical_formula_structural   Sr5HgPd2
_chemical_formula_sum   'Sr10 Hg2 Pd4'
_cell_volume   533.56335152
_cell_formula_units_Z   2
loop_
 _symmetry_equiv_pos_site_id
 _symmetry_equiv_pos_as_xyz
  1  'x, y, z'
loop_
 _atom_site_type_symbol
 _atom_site_label
 _atom_site_symmetry_multiplicity
 _atom_site_fract_x
 _atom_site_fract_y
 _atom_site_fract_z
 _atom_site_occupancy
  Sr  Sr0  1  0.53365422  0.03365422  0.84007137  1
  Sr  Sr1  1  0.19358285  0.69358285  0.15992863  1
  Sr  Sr2  1  0.03365422  0.19358285  0.50000000  1
  Sr  Sr3  1  0.69358285  0.53365422  0.50000000  1
  Sr  Sr4  1  0.46634578  0.96634578  0.15992863  1
  Sr  Sr5  1  0.80641715  0.30641715  0.84007137  1
  Sr  Sr6  1  0.96634578  0.80641715  0.50000000  1
  Sr  Sr7  1  0.30641715  0.46634578  0.50000000  1
  Sr  Sr8  1  0.50000000  0.50000000  0.00000000  1
  Sr  Sr9  1  0.00000000  0.00000000  0.00000000  1
  Hg  Hg0  1  0.25000000  0.25000000  0.00000000  1
  Hg  Hg1  1  0.75000000  0.75000000  0.00000000  1
  Pd  Pd0  1  0.62064223  0.87935777  0.50000000  1
  Pd  Pd1  1  0.37935777  0.12064223  0.50000000  1
  Pd  Pd2  1  0.12064223  0.62064223  0.74128546  1
  Pd  Pd3  1  0.87935777  0.37935777  0.25871454  1
loop_
_geom_bond_atom_site_label_1
_geom_bond_atom_site_label_2
_geom_bond_distance
_geom_bond_site_symmetry_2
Hg0 Sr7 3.545928 1_555
Hg0 Sr1 3.545928 1_555
Hg0 Sr2 3.545928 1_554
Hg0 Sr4 3.545928 1_545
Hg0 Sr6 3.545928 1_444
Hg0 Sr0 3.545928 1_554
Hg0 Sr3 3.545928 1_555
Hg0 Sr5 3.545928 1_454
Hg0 Sr8 3.891970 1_555
Hg0 Sr9 3.891970 1_555
Hg1 Sr3 3.545928 1_554
Hg1 Sr5 3.545928 1_554
Hg1 Sr6 3.545928 1_555
Hg1 Sr0 3.545928 1_564
Hg1 Sr2 3.545928 1_665
Hg1 Sr4 3.545928 1_555
Hg1 Sr7 3.545928 1_554
Hg1 Sr1 3.545928 1_655
Hg1 Sr8 3.891970 1_555
Hg1 Sr9 3.891970 1_665
Pd0 Pd1 2.825125 1_565
Pd0 Sr4 3.235250 1_555
Pd0 Sr0 3.235250 1_565
Pd0 Sr5 3.235250 1_565
Pd0 Sr1 3.235251 1_555
Pd0 Sr3 3.242637 1_555
Pd0 Sr6 3.242638 1_555
Pd0 Sr8 3.295812 1_555
Pd0 Sr9 3.295813 1_666
Pd1 Sr0 3.235250 1_555
Pd1 Sr4 3.235250 1_545
Pd1 Sr1 3.235250 1_545
Pd1 Sr5 3.235251 1_555
Pd1 Sr7 3.242637 1_555
Pd1 Sr2 3.242638 1_555
Pd1 Sr8 3.295812 1_556
Pd1 Sr9 3.295813 1_555
Pd2 Pd3 2.825136 1_455
Pd2 Sr2 3.235248 1_555
Pd2 Sr3 3.235249 1_455
Pd2 Sr6 3.235258 1_455
Pd2 Sr7 3.235258 1_555
Pd2 Sr1 3.242628 1_556
Pd2 Sr4 3.242639 1_556
Pd2 Sr9 3.295810 1_566
Pd2 Sr8 3.295810 1_556
Pd3 Sr6 3.235248 1_555
Pd3 Sr7 3.235249 1_655
Pd3 Sr2 3.235258 1_655
Pd3 Sr3 3.235258 1_555
Pd3 Sr5 3.242628 1_554
Pd3 Sr0 3.242639 1_554
Pd3 Sr9 3.295810 1_655
Pd3 Sr8 3.295810 1_555
