# generated using pymatgen
data_MgSc6NiI12
_symmetry_space_group_name_H-M   'P 1'
_cell_length_a   9.32249801
_cell_length_b   9.32249802
_cell_length_c   9.32249642
_cell_angle_alpha   107.29811566
_cell_angle_beta   107.29811402
_cell_angle_gamma   107.29812790
_symmetry_Int_Tables_number   1
_chemical_formula_structural   MgSc6NiI12
_chemical_formula_sum   'Mg1 Sc6 Ni1 I12'
_cell_volume   669.18630960
_cell_formula_units_Z   1
loop_
 _symmetry_equiv_pos_site_id
 _symmetry_equiv_pos_as_xyz
  1  'x, y, z'
loop_
 _atom_site_type_symbol
 _atom_site_label
 _atom_site_symmetry_multiplicity
 _atom_site_fract_x
 _atom_site_fract_y
 _atom_site_fract_z
 _atom_site_occupancy
  Mg  Mg0  1  0.50000000  0.50000000  0.50000000  1
  Sc  Sc0  1  0.09357025  0.02760964  0.28865117  1
  Sc  Sc1  1  0.02760964  0.28865117  0.09357025  1
  Sc  Sc2  1  0.28865117  0.09357025  0.02760964  1
  Sc  Sc3  1  0.90642875  0.97239036  0.71134883  1
  Sc  Sc4  1  0.97239036  0.71134883  0.90642875  1
  Sc  Sc5  1  0.71134883  0.90642875  0.97239036  1
  Ni  Ni0  1  0.00000000  0.00000000  0.00000000  1
  I  I0  1  0.07408624  0.68665099  0.22393610  1
  I  I1  1  0.68665099  0.22393610  0.07408624  1
  I  I2  1  0.22393610  0.07408624  0.68665099  1
  I  I3  1  0.92591376  0.31334901  0.77606390  1
  I  I4  1  0.31334901  0.77606390  0.92591376  1
  I  I5  1  0.77606390  0.92591376  0.31334901  1
  I  I6  1  0.45768608  0.15671639  0.38410270  1
  I  I7  1  0.15671639  0.38410270  0.45768608  1
  I  I8  1  0.38410270  0.45768608  0.15671639  1
  I  I9  1  0.54231392  0.84328361  0.61589730  1
  I  I10  1  0.84328361  0.61589730  0.54231392  1
  I  I11  1  0.61589730  0.54231392  0.84328361  1
loop_
_geom_bond_atom_site_label_1
_geom_bond_atom_site_label_2
_geom_bond_distance
_geom_bond_site_symmetry_2
Ni0 Sc3 2.475284 1_444
Ni0 Sc0 2.475284 1_555
Ni0 Sc5 2.475285 1_444
Ni0 Sc2 2.475285 1_555
Ni0 Sc4 2.475285 1_444
Ni0 Sc1 2.475285 1_555
I0 Sc4 2.929075 1_454
I0 Sc0 2.991899 1_565
I0 Sc1 3.388314 1_555
I1 Sc5 2.929075 1_544
I1 Sc1 2.991899 1_655
I1 Sc2 3.388314 1_555
I2 Sc3 2.929075 1_445
I2 Sc2 2.991898 1_556
I2 Sc0 3.388314 1_555
I3 Sc1 2.929066 1_656
I3 Sc3 2.991896 1_545
I3 Sc4 3.388314 1_555
I4 Sc2 2.929067 1_566
I4 Sc4 2.991896 1_455
I4 Sc5 3.388314 1_555
I5 Sc0 2.929066 1_665
I5 Sc5 2.991896 1_554
I5 Sc3 3.388314 1_555
I6 Mg0 2.916194 1_555
I6 Sc0 2.983295 1_555
I6 Sc2 3.007529 1_555
I7 Mg0 2.916194 1_555
I7 Sc1 2.983295 1_555
I7 Sc0 3.007529 1_555
I8 Mg0 2.916194 1_555
I8 Sc2 2.983295 1_555
I8 Sc1 3.007529 1_555
I9 Mg0 2.916194 1_555
I9 Sc3 2.983286 1_555
I9 Sc5 3.007532 1_555
I10 Mg0 2.916194 1_555
I10 Sc4 2.983286 1_555
I10 Sc3 3.007532 1_555
I11 Mg0 2.916194 1_555
I11 Sc5 2.983286 1_555
I11 Sc4 3.007532 1_555
