# generated using pymatgen
data_Hf7Nb3Sn7Au
_symmetry_space_group_name_H-M   'P 1'
_cell_length_a   5.76756585
_cell_length_b   8.61761659
_cell_length_c   8.61760515
_cell_angle_alpha   119.99994446
_cell_angle_beta   90.00002745
_cell_angle_gamma   89.99996290
_symmetry_Int_Tables_number   1
_chemical_formula_structural   Hf7Nb3Sn7Au
_chemical_formula_sum   'Hf7 Nb3 Sn7 Au1'
_cell_volume   370.93447189
_cell_formula_units_Z   1
loop_
 _symmetry_equiv_pos_site_id
 _symmetry_equiv_pos_as_xyz
  1  'x, y, z'
loop_
 _atom_site_type_symbol
 _atom_site_label
 _atom_site_symmetry_multiplicity
 _atom_site_fract_x
 _atom_site_fract_y
 _atom_site_fract_z
 _atom_site_occupancy
  Hf  Hf0  1  0.99999776  0.33333503  0.66666825  1
  Hf  Hf1  1  0.74567541  0.28101189  0.00017008  1
  Hf  Hf2  1  0.74567697  0.71915814  0.71898714  1
  Hf  Hf3  1  0.74566607  0.99983018  0.28084235  1
  Hf  Hf4  1  0.25433084  0.71916882  0.00017125  1
  Hf  Hf5  1  0.25433020  0.28100073  0.28083143  1
  Hf  Hf6  1  0.25432333  0.99982798  0.71899981  1
  Nb  Nb0  1  0.50000302  0.33333269  0.66666515  1
  Nb  Nb1  1  0.49999480  0.66666724  0.33333186  1
  Nb  Nb2  1  0.99998813  0.66666707  0.33333034  1
  Sn  Sn0  1  0.74921844  0.61519387  0.00140757  1
  Sn  Sn1  1  0.74921871  0.38621789  0.38480665  1
  Sn  Sn2  1  0.74921236  0.99858989  0.61378456  1
  Sn  Sn3  1  0.25078373  0.38622771  0.00141144  1
  Sn  Sn4  1  0.25078555  0.61518307  0.61377637  1
  Sn  Sn5  1  0.25077774  0.99859042  0.38481710  1
  Sn  Sn6  1  0.00001266  0.99999889  0.00000299  1
  Au  Au0  1  0.50000128  0.99999750  0.99999665  1
loop_
_geom_bond_atom_site_label_1
_geom_bond_atom_site_label_2
_geom_bond_distance
_geom_bond_site_symmetry_2
Hf0 Nb0 2.883753 1_555
Hf0 Nb0 2.883813 1_655
Hf0 Sn4 3.050633 1_655
Hf0 Sn0 3.050637 1_556
Hf0 Sn5 3.050643 1_645
Hf0 Sn3 3.050647 1_656
Hf0 Sn1 3.050664 1_555
Hf0 Sn2 3.050690 1_545
Hf1 Sn6 2.830684 1_645
Hf1 Sn0 2.874608 1_555
Hf1 Sn1 2.967175 1_555
Hf1 Sn2 2.984455 1_544
Hf1 Sn3 2.993272 1_555
Hf1 Sn3 3.049515 1_655
Hf1 Nb0 3.430273 1_554
Hf2 Sn6 2.830673 1_656
Hf2 Sn1 2.874583 1_555
Hf2 Sn2 2.967166 1_555
Hf2 Sn0 2.984444 1_556
Hf2 Sn4 2.993266 1_555
Hf2 Sn4 3.049510 1_655
Hf2 Nb0 3.430277 1_555
Hf3 Sn6 2.830669 1_655
Hf3 Sn2 2.874596 1_555
Hf3 Sn0 2.967188 1_555
Hf3 Sn1 2.984474 1_565
Hf3 Sn5 2.993253 1_555
Hf3 Sn5 3.049530 1_655
Hf3 Nb0 3.430234 1_565
Hf4 Sn6 2.830515 1_555
Hf4 Sn3 2.874590 1_555
Hf4 Sn5 2.967216 1_555
Hf4 Sn4 2.984481 1_554
Hf4 Sn0 2.993244 1_555
Hf4 Sn0 3.049532 1_455
Hf4 Nb0 3.430331 1_554
Hf5 Sn6 2.830521 1_545
Hf5 Sn4 2.874612 1_555
Hf5 Sn3 2.967216 1_555
Hf5 Sn5 2.984493 1_545
Hf5 Sn1 2.993258 1_555
Hf5 Sn1 3.049534 1_455
Hf5 Nb0 3.430303 1_555
Hf6 Sn6 2.830517 1_556
Hf6 Sn5 2.874610 1_555
Hf6 Sn4 2.967211 1_555
Hf6 Sn3 2.984521 1_566
Hf6 Sn2 2.993261 1_555
Hf6 Sn2 3.049531 1_455
Hf6 Nb0 3.430359 1_565
Nb0 Sn4 3.046351 1_555
Nb0 Sn2 3.046380 1_545
Nb0 Sn5 3.046383 1_545
Nb0 Sn1 3.046389 1_555
Nb0 Sn3 3.046391 1_556
Nb0 Sn0 3.046392 1_556
Nb1 Nb2 2.883744 1_555
Nb1 Nb2 2.883821 1_455
Nb1 Sn3 3.029103 1_555
Nb1 Sn5 3.029128 1_555
Nb1 Sn4 3.029149 1_555
Nb1 Sn2 3.029170 1_555
Nb1 Sn1 3.029182 1_555
Nb1 Sn0 3.029185 1_555
Nb2 Sn0 3.033415 1_555
Nb2 Sn1 3.033429 1_555
Nb2 Sn5 3.033441 1_655
Nb2 Sn3 3.033442 1_655
Nb2 Sn2 3.033449 1_555
Nb2 Sn4 3.033515 1_655
Au0 Hf6 2.804997 1_555
Au0 Hf4 2.805008 1_556
Au0 Hf5 2.805032 1_566
Au0 Hf2 2.805085 1_555
Au0 Hf3 2.805087 1_556
Au0 Hf1 2.805106 1_566
Au0 Sn6 2.883717 1_556
Au0 Sn6 2.883849 1_656
