# generated using pymatgen
data_Cs2TaS6
_symmetry_space_group_name_H-M   'P 1'
_cell_length_a   8.03994868
_cell_length_b   8.03994868
_cell_length_c   4.82740900
_cell_angle_alpha   90.00000000
_cell_angle_beta   90.00000000
_cell_angle_gamma   120.00000561
_symmetry_Int_Tables_number   1
_chemical_formula_structural   Cs2TaS6
_chemical_formula_sum   'Cs2 Ta1 S6'
_cell_volume   270.24101058
_cell_formula_units_Z   1
loop_
 _symmetry_equiv_pos_site_id
 _symmetry_equiv_pos_as_xyz
  1  'x, y, z'
loop_
 _atom_site_type_symbol
 _atom_site_label
 _atom_site_symmetry_multiplicity
 _atom_site_fract_x
 _atom_site_fract_y
 _atom_site_fract_z
 _atom_site_occupancy
  Cs  Cs0  1  0.33333300  0.66666700  0.72463700  1
  Cs  Cs1  1  0.66666700  0.33333300  0.27536300  1
  Ta  Ta0  1  0.00000000  0.00000000  0.50000000  1
  S  S0  1  0.13951900  0.86048100  0.20360200  1
  S  S1  1  0.13951900  0.27903900  0.20360200  1
  S  S2  1  0.27903900  0.13951900  0.79639800  1
  S  S3  1  0.72096100  0.86048100  0.20360200  1
  S  S4  1  0.86048100  0.72096100  0.79639800  1
  S  S5  1  0.86048100  0.13951900  0.79639800  1
loop_
_geom_bond_atom_site_label_1
_geom_bond_atom_site_label_2
_geom_bond_distance
_geom_bond_site_symmetry_2
Cs0 S1 3.553949 1_556
Cs0 S3 3.553949 1_556
Cs0 S0 3.553949 1_556
Cs0 S1 3.689302 1_555
Cs0 S3 3.689302 1_555
Cs0 S0 3.689302 1_555
Cs0 S2 4.052536 1_565
Cs0 S4 4.052536 1_455
Cs0 S5 4.052545 1_565
Cs0 S5 4.052545 1_455
Cs0 S4 4.052552 1_555
Cs0 S2 4.052552 1_555
Cs1 S4 3.553949 1_554
Cs1 S2 3.553949 1_554
Cs1 S5 3.553949 1_554
Cs1 S4 3.689302 1_555
Cs1 S2 3.689302 1_555
Cs1 S5 3.689302 1_555
Cs1 S1 4.052536 1_655
Cs1 S3 4.052536 1_545
Cs1 S0 4.052545 1_655
Cs1 S0 4.052545 1_545
Cs1 S3 4.052552 1_555
Cs1 S1 4.052552 1_555
S0 Ta0 2.412901 1_565
S1 Ta0 2.412907 1_555
S2 Ta0 2.412907 1_555
S3 Ta0 2.412907 1_665
S4 Ta0 2.412907 1_665
S5 Ta0 2.412901 1_655
