# generated using pymatgen
data_Y7Sn22HgRh6
_symmetry_space_group_name_H-M   'P 1'
_cell_length_a   9.83428076
_cell_length_b   9.83428190
_cell_length_c   9.99405060
_cell_angle_alpha   90.00000000
_cell_angle_beta   90.00000000
_cell_angle_gamma   120.00000288
_symmetry_Int_Tables_number   1
_chemical_formula_structural   Y7Sn22HgRh6
_chemical_formula_sum   'Y7 Sn22 Hg1 Rh6'
_cell_volume   837.06160016
_cell_formula_units_Z   1
loop_
 _symmetry_equiv_pos_site_id
 _symmetry_equiv_pos_as_xyz
  1  'x, y, z'
loop_
 _atom_site_type_symbol
 _atom_site_label
 _atom_site_symmetry_multiplicity
 _atom_site_fract_x
 _atom_site_fract_y
 _atom_site_fract_z
 _atom_site_occupancy
  Y  Y0  1  0.00000000  0.00000000  0.00000000  1
  Y  Y1  1  0.04130949  0.52065525  0.30856820  1
  Y  Y2  1  0.47934475  0.95869051  0.30856820  1
  Y  Y3  1  0.47934475  0.52065525  0.30856820  1
  Y  Y4  1  0.95869051  0.47934475  0.69143180  1
  Y  Y5  1  0.52065525  0.04130949  0.69143180  1
  Y  Y6  1  0.52065525  0.47934475  0.69143180  1
  Sn  Sn0  1  0.11516455  0.88483545  0.27897277  1
  Sn  Sn1  1  0.76967091  0.88483545  0.27897277  1
  Sn  Sn2  1  0.11516455  0.23032909  0.27897277  1
  Sn  Sn3  1  0.88483545  0.11516455  0.72102723  1
  Sn  Sn4  1  0.23032909  0.11516455  0.72102723  1
  Sn  Sn5  1  0.88483545  0.76967091  0.72102723  1
  Sn  Sn6  1  0.35101076  0.00000000  0.00000000  1
  Sn  Sn7  1  0.64898924  0.64898924  0.00000000  1
  Sn  Sn8  1  1.00000000  0.35101076  0.00000000  1
  Sn  Sn9  1  0.35101076  0.35101076  0.00000000  1
  Sn  Sn10  1  0.00000000  0.64898924  0.00000000  1
  Sn  Sn11  1  0.64898924  1.00000000  0.00000000  1
  Sn  Sn12  1  0.77872851  0.55745701  0.45723622  1
  Sn  Sn13  1  0.77872851  0.22127149  0.45723622  1
  Sn  Sn14  1  0.44254299  0.22127149  0.45723622  1
  Sn  Sn15  1  0.22127149  0.44254299  0.54276378  1
  Sn  Sn16  1  0.22127149  0.77872851  0.54276378  1
  Sn  Sn17  1  0.55745701  0.77872851  0.54276378  1
  Sn  Sn18  1  0.66666700  0.33333300  0.17612539  1
  Sn  Sn19  1  0.33333300  0.66666700  0.82387461  1
  Sn  Sn20  1  0.66666700  0.33333300  0.88041179  1
  Sn  Sn21  1  0.33333300  0.66666700  0.11958821  1
  Hg  Hg0  1  0.00000000  0.00000000  0.50000000  1
  Rh  Rh0  1  0.16966897  0.83033103  0.80134041  1
  Rh  Rh1  1  0.66066105  0.83033103  0.80134041  1
  Rh  Rh2  1  0.16966897  0.33933895  0.80134041  1
  Rh  Rh3  1  0.83033103  0.16966897  0.19865959  1
  Rh  Rh4  1  0.33933895  0.16966897  0.19865959  1
  Rh  Rh5  1  0.83033103  0.66066105  0.19865959  1
loop_
_geom_bond_atom_site_label_1
_geom_bond_atom_site_label_2
_geom_bond_distance
_geom_bond_site_symmetry_2
Sn0 Sn16 3.196385 1_555
Sn0 Y2 3.292499 1_555
Sn0 Y1 3.292500 1_555
Sn0 Sn1 3.397681 1_455
Sn0 Sn2 3.397682 1_565
Sn0 Y0 3.409018 1_565
Sn0 Sn6 3.436378 1_565
Sn0 Sn10 3.436378 1_555
Sn1 Sn17 3.196385 1_555
Sn1 Y3 3.292503 1_555
Sn1 Y2 3.292509 1_555
Sn1 Sn2 3.397681 1_665
Sn1 Y0 3.409018 1_665
Sn1 Sn11 3.436378 1_555
Sn1 Sn7 3.436378 1_555
Sn2 Y3 3.292502 1_555
Sn2 Y1 3.292509 1_555
Sn2 Y0 3.409018 1_555
Sn2 Sn9 3.436378 1_555
Sn2 Sn8 3.436378 1_455
Sn3 Y5 3.292499 1_555
Sn3 Y4 3.292500 1_555
Sn3 Sn4 3.397681 1_655
Sn3 Sn5 3.397682 1_545
Sn3 Y0 3.409018 1_656
Sn3 Sn8 3.436378 1_556
Sn4 Y6 3.292503 1_555
Sn4 Y5 3.292509 1_555
Sn4 Sn5 3.397681 1_445
Sn4 Y0 3.409018 1_556
Sn4 Sn6 3.436378 1_556
Sn4 Sn9 3.436378 1_556
Sn5 Y6 3.292502 1_555
Sn5 Y4 3.292509 1_555
Sn5 Y0 3.409018 1_666
Sn5 Sn7 3.436378 1_556
Sn6 Y2 3.432301 1_545
Sn6 Y5 3.432305 1_554
Sn6 Y0 3.451938 1_555
Sn7 Sn9 2.930404 1_555
Sn7 Y3 3.432304 1_555
Sn7 Y6 3.432304 1_554
Sn7 Y0 3.451938 1_665
Sn8 Y4 3.432301 1_554
Sn8 Y1 3.432305 1_655
Sn8 Y0 3.451939 1_655
Sn9 Y6 3.432304 1_554
Sn9 Y3 3.432304 1_555
Sn9 Y0 3.451938 1_555
Sn10 Sn8 2.930404 1_455
Sn10 Sn21 3.410959 1_555
Sn10 Sn20 3.410963 1_454
Sn10 Y1 3.432301 1_555
Sn10 Y4 3.432305 1_454
Sn10 Sn5 3.436378 1_454
Sn10 Y0 3.451939 1_565
Sn11 Sn6 2.930404 1_565
Sn11 Sn20 3.410960 1_564
Sn11 Sn21 3.410963 1_555
Sn11 Y5 3.432301 1_564
Sn11 Y2 3.432305 1_555
Sn11 Sn3 3.436378 1_564
Sn11 Y0 3.451938 1_665
Sn12 Y1 3.152999 1_655
Sn12 Y3 3.153008 1_555
Sn12 Sn5 3.196385 1_555
Sn12 Y6 3.249613 1_555
Sn12 Y4 3.249620 1_555
Sn12 Sn14 3.306143 1_555
Sn12 Sn13 3.306143 1_555
Sn12 Sn18 3.396538 1_555
Sn13 Y2 3.153004 1_545
Sn13 Y1 3.153004 1_655
Sn13 Sn3 3.196385 1_555
Sn13 Y5 3.249615 1_555
Sn13 Y4 3.249615 1_555
Sn13 Sn14 3.306143 1_555
Sn13 Sn18 3.396533 1_555
Sn14 Y2 3.152999 1_545
Sn14 Y3 3.153008 1_555
Sn14 Sn4 3.196385 1_555
Sn14 Y6 3.249614 1_555
Sn14 Y5 3.249620 1_555
Sn14 Sn18 3.396538 1_555
Sn15 Y4 3.152999 1_455
Sn15 Y6 3.153008 1_555
Sn15 Sn2 3.196385 1_555
Sn15 Y3 3.249613 1_555
Sn15 Y1 3.249620 1_555
Sn15 Sn17 3.306143 1_555
Sn15 Sn16 3.306143 1_555
Sn15 Sn19 3.396538 1_555
Sn16 Y5 3.153004 1_565
Sn16 Y4 3.153004 1_455
Sn16 Y2 3.249615 1_555
Sn16 Y1 3.249615 1_555
Sn16 Sn17 3.306143 1_555
Sn16 Sn19 3.396533 1_555
Sn17 Y5 3.152999 1_565
Sn17 Y6 3.153008 1_555
Sn17 Y3 3.249614 1_555
Sn17 Y2 3.249620 1_555
Sn17 Sn19 3.396538 1_555
Sn18 Sn20 2.955377 1_554
Sn18 Y1 3.454387 1_655
Sn18 Y2 3.454387 1_545
Sn18 Y3 3.454403 1_555
Sn19 Sn21 2.955377 1_556
Sn19 Y4 3.454387 1_455
Sn19 Y5 3.454387 1_565
Sn19 Y6 3.454403 1_555
Sn20 Y4 3.122931 1_555
Sn20 Y6 3.122931 1_555
Sn20 Y5 3.122931 1_555
Sn20 Sn8 3.410959 1_556
Sn20 Sn6 3.410963 1_556
Sn20 Sn9 3.410968 1_556
Sn20 Sn7 3.410969 1_556
Sn21 Y1 3.122931 1_555
Sn21 Y3 3.122931 1_555
Sn21 Y2 3.122931 1_555
Sn21 Sn6 3.410960 1_565
Sn21 Sn8 3.410963 1_455
Sn21 Sn7 3.410968 1_555
Sn21 Sn9 3.410969 1_555
Hg0 Sn4 2.954246 1_555
Hg0 Sn1 2.954246 1_445
Hg0 Sn3 2.954247 1_455
Hg0 Sn0 2.954247 1_545
Hg0 Sn5 2.954247 1_445
Hg0 Sn2 2.954247 1_555
Rh0 Sn6 2.632626 1_566
Rh0 Sn10 2.632626 1_556
Rh0 Sn5 2.678704 1_455
Rh0 Sn4 2.678705 1_565
Rh0 Sn16 2.729620 1_555
Rh0 Sn19 2.796849 1_555
Rh0 Y5 3.203747 1_565
Rh0 Y4 3.203748 1_455
Rh0 Y0 3.506319 1_566
Rh1 Sn11 2.632623 1_556
Rh1 Sn7 2.632629 1_556
Rh1 Sn3 2.678707 1_565
Rh1 Sn5 2.678714 1_555
Rh1 Sn17 2.729617 1_555
Rh1 Sn19 2.796849 1_555
Rh1 Y5 3.203733 1_565
Rh1 Y6 3.203750 1_555
Rh1 Y0 3.506325 1_666
Rh2 Sn8 2.632623 1_456
Rh2 Sn9 2.632629 1_556
Rh2 Sn3 2.678707 1_455
Rh2 Sn4 2.678714 1_555
Rh2 Sn15 2.729617 1_555
Rh2 Sn19 2.796849 1_555
Rh2 Y4 3.203733 1_455
Rh2 Y6 3.203749 1_555
Rh2 Y0 3.506326 1_556
Rh3 Sn11 2.632626 1_545
Rh3 Sn8 2.632626 1_555
Rh3 Sn2 2.678704 1_655
Rh3 Sn1 2.678705 1_545
Rh3 Sn13 2.729620 1_555
Rh3 Sn18 2.796849 1_555
Rh3 Y2 3.203747 1_545
Rh3 Y1 3.203748 1_655
Rh3 Y0 3.506319 1_655
Rh4 Sn6 2.632623 1_555
Rh4 Sn9 2.632629 1_555
Rh4 Sn0 2.678707 1_545
Rh4 Sn2 2.678714 1_555
Rh4 Sn14 2.729617 1_555
Rh4 Sn18 2.796849 1_555
Rh4 Y2 3.203733 1_545
Rh4 Y3 3.203750 1_555
Rh4 Y0 3.506325 1_555
Rh5 Sn10 2.632623 1_655
Rh5 Sn7 2.632629 1_555
Rh5 Sn0 2.678707 1_655
Rh5 Sn1 2.678714 1_555
Rh5 Sn12 2.729617 1_555
Rh5 Sn18 2.796849 1_555
Rh5 Y1 3.203733 1_655
Rh5 Y3 3.203749 1_555
Rh5 Y0 3.506326 1_665
