# generated using pymatgen
data_Li3BiPtO6
_symmetry_space_group_name_H-M   'P 1'
_cell_length_a   5.48165121
_cell_length_b   5.48168265
_cell_length_c   5.08695457
_cell_angle_alpha   95.89575116
_cell_angle_beta   95.89653416
_cell_angle_gamma   122.83812661
_symmetry_Int_Tables_number   1
_chemical_formula_structural   Li3BiPtO6
_chemical_formula_sum   'Li3 Bi1 Pt1 O6'
_cell_volume   125.43493943
_cell_formula_units_Z   1
loop_
 _symmetry_equiv_pos_site_id
 _symmetry_equiv_pos_as_xyz
  1  'x, y, z'
loop_
 _atom_site_type_symbol
 _atom_site_label
 _atom_site_symmetry_multiplicity
 _atom_site_fract_x
 _atom_site_fract_y
 _atom_site_fract_z
 _atom_site_occupancy
  Li  Li0  1  0.48813488  0.51187189  0.99999853  1
  Li  Li1  1  0.72256704  0.27743709  0.49999438  1
  Li  Li2  1  0.38912427  0.61087284  0.49999387  1
  Bi  Bi0  1  0.14927634  0.85073777  0.99999931  1
  Pt  Pt0  1  0.82534643  0.17464650  0.00001297  1
  O  O0  1  0.19394657  0.23818397  0.20970647  1
  O  O1  1  0.54332627  0.91284936  0.22741479  1
  O  O2  1  0.87222273  0.52642458  0.22165959  1
  O  O3  1  0.47357571  0.12777555  0.77831745  1
  O  O4  1  0.08715469  0.45667279  0.77255800  1
  O  O5  1  0.76181407  0.80604967  0.79027265  1
loop_
_geom_bond_atom_site_label_1
_geom_bond_atom_site_label_2
_geom_bond_distance
_geom_bond_site_symmetry_2
Li0 O0 2.011905 1_556
Li0 O5 2.011925 1_555
Li0 O1 2.223889 1_556
Li0 O4 2.223907 1_555
Li0 O2 2.241036 1_556
Li0 O3 2.241123 1_555
Li1 O4 1.975637 1_655
Li1 O1 1.975697 1_545
Li1 O3 1.990417 1_555
Li1 O2 1.990450 1_555
Li2 O5 2.045455 1_555
Li2 O0 2.045494 1_555
Li2 O4 2.138177 1_555
Li2 O1 2.138258 1_555
Bi0 O2 2.138670 1_456
Bi0 O3 2.138680 1_565
Bi0 O0 2.150716 1_566
Bi0 O5 2.150761 1_455
Bi0 O1 2.174411 1_556
Bi0 O4 2.174537 1_555
O0 Pt0 2.014780 1_455
O1 Pt0 2.022356 1_565
O2 Pt0 2.003046 1_555
O3 Pt0 2.003115 1_556
O4 Pt0 2.022588 1_456
O5 Pt0 2.014896 1_566
