# generated using pymatgen
data_Y16MgHg3Pd4
_symmetry_space_group_name_H-M   'P 1'
_cell_length_a   9.68438187
_cell_length_b   9.70817415
_cell_length_c   9.70818373
_cell_angle_alpha   60.04937701
_cell_angle_beta   59.95646885
_cell_angle_gamma   59.95662235
_symmetry_Int_Tables_number   1
_chemical_formula_structural   Y16MgHg3Pd4
_chemical_formula_sum   'Y16 Mg1 Hg3 Pd4'
_cell_volume   645.22097886
_cell_formula_units_Z   1
loop_
 _symmetry_equiv_pos_site_id
 _symmetry_equiv_pos_as_xyz
  1  'x, y, z'
loop_
 _atom_site_type_symbol
 _atom_site_label
 _atom_site_symmetry_multiplicity
 _atom_site_fract_x
 _atom_site_fract_y
 _atom_site_fract_z
 _atom_site_occupancy
  Y  Y0  1  0.35604256  0.35193229  0.35192929  1
  Y  Y1  1  0.35662802  0.35183218  0.93925770  1
  Y  Y2  1  0.35662702  0.93925670  0.35183218  1
  Y  Y3  1  0.91790149  0.36065647  0.36065747  1
  Y  Y4  1  0.80879556  0.19098081  0.19097981  1
  Y  Y5  1  0.18776892  0.81205725  0.81205625  1
  Y  Y6  1  0.18785125  0.81199312  0.18864284  1
  Y  Y7  1  0.80910634  0.19081378  0.80954642  1
  Y  Y8  1  0.18785125  0.18864584  0.81199112  1
  Y  Y9  1  0.80910434  0.80954542  0.19081578  1
  Y  Y10  1  0.93392366  0.56471423  0.56471523  1
  Y  Y11  1  0.56397156  0.93535618  0.93535818  1
  Y  Y12  1  0.56397236  0.93536920  0.56534946  1
  Y  Y13  1  0.93372525  0.56491471  0.93700569  1
  Y  Y14  1  0.56397336  0.56534746  0.93537120  1
  Y  Y15  1  0.93372625  0.93700469  0.56491471  1
  Mg  Mg0  1  0.29089577  0.56950171  0.56950171  1
  Hg  Hg0  1  0.58282701  0.59106927  0.59106827  1
  Hg  Hg1  1  0.58289508  0.59119016  0.23471345  1
  Hg  Hg2  1  0.58289308  0.23471545  0.59118916  1
  Pd  Pd0  1  0.14076616  0.14744862  0.14745062  1
  Pd  Pd1  1  0.14051426  0.14707644  0.56455806  1
  Pd  Pd2  1  0.14051626  0.56455906  0.14707744  1
  Pd  Pd3  1  0.56772021  0.14401897  0.14401597  1
loop_
_geom_bond_atom_site_label_1
_geom_bond_atom_site_label_2
_geom_bond_distance
_geom_bond_site_symmetry_2
Hg0 Mg0 3.051197 1_555
Hg0 Y12 3.141551 1_555
Hg0 Y14 3.141575 1_555
Hg0 Y10 3.164678 1_555
Hg0 Y3 3.316173 1_555
Hg0 Y1 3.385262 1_555
Hg0 Y2 3.385264 1_555
Hg0 Y5 3.464255 1_555
Hg0 Y9 3.506848 1_555
Hg0 Y7 3.506884 1_555
Hg1 Mg0 3.051963 1_555
Hg1 Y14 3.138315 1_554
Hg1 Y11 3.141299 1_554
Hg1 Y13 3.161896 1_554
Hg1 Y3 3.316427 1_555
Hg1 Y2 3.382315 1_555
Hg1 Y0 3.388762 1_555
Hg1 Y6 3.460618 1_555
Hg1 Y4 3.502559 1_555
Hg1 Y9 3.505363 1_555
Hg2 Mg0 3.051950 1_555
Hg2 Y12 3.138329 1_545
Hg2 Y11 3.141332 1_545
Hg2 Y15 3.161930 1_545
Hg2 Y3 3.316419 1_555
Hg2 Y1 3.382320 1_555
Hg2 Y0 3.388767 1_555
Hg2 Y8 3.460591 1_555
Hg2 Y4 3.502561 1_555
Hg2 Y7 3.505399 1_555
Pd0 Y4 2.854897 1_455
Pd0 Y2 2.882775 1_545
Pd0 Y1 2.882787 1_554
Pd0 Y6 2.892910 1_545
Pd0 Y8 2.892933 1_554
Pd0 Y3 2.925456 1_455
Pd1 Y7 2.852750 1_455
Pd1 Y0 2.883755 1_555
Pd1 Y2 2.884464 1_545
Pd1 Y5 2.892832 1_545
Pd1 Y8 2.898118 1_555
Pd1 Y3 2.926489 1_455
Pd2 Y9 2.852772 1_455
Pd2 Y0 2.883722 1_555
Pd2 Y1 2.884471 1_554
Pd2 Y5 2.892843 1_554
Pd2 Y6 2.898088 1_555
Pd2 Y3 2.926509 1_455
Pd3 Y0 2.851736 1_555
Pd3 Y1 2.852325 1_554
Pd3 Y2 2.852351 1_545
Pd3 Y7 2.864356 1_554
Pd3 Y9 2.864379 1_545
Pd3 Y4 2.864543 1_555
