# generated using pymatgen
data_YZn5
_symmetry_space_group_name_H-M   'P 1'
_cell_length_a   5.24561156
_cell_length_b   5.24561072
_cell_length_c   4.17258454
_cell_angle_alpha   90.00000000
_cell_angle_beta   90.00000000
_cell_angle_gamma   120.00000529
_symmetry_Int_Tables_number   1
_chemical_formula_structural   YZn5
_chemical_formula_sum   'Y1 Zn5'
_cell_volume   99.43240389
_cell_formula_units_Z   1
loop_
 _symmetry_equiv_pos_site_id
 _symmetry_equiv_pos_as_xyz
  1  'x, y, z'
loop_
 _atom_site_type_symbol
 _atom_site_label
 _atom_site_symmetry_multiplicity
 _atom_site_fract_x
 _atom_site_fract_y
 _atom_site_fract_z
 _atom_site_occupancy
  Y  Y0  1  0.00000000  -0.00000000  0.00000000  1
  Zn  Zn0  1  0.00000000  0.50000000  0.50000000  1
  Zn  Zn1  1  0.33333300  0.66666700  0.00000000  1
  Zn  Zn2  1  0.66666700  0.33333300  0.00000000  1
  Zn  Zn3  1  0.50000000  -0.00000000  0.50000000  1
  Zn  Zn4  1  0.50000000  0.50000000  0.50000000  1
loop_
_geom_bond_atom_site_label_1
_geom_bond_atom_site_label_2
_geom_bond_distance
_geom_bond_site_symmetry_2
Y0 Zn1 3.028552 1_545
Y0 Zn2 3.028552 1_455
Y0 Zn1 3.028556 1_555
Y0 Zn2 3.028556 1_445
Y0 Zn2 3.028557 1_555
Y0 Zn1 3.028557 1_445
Y0 Zn4 3.351376 1_445
Y0 Zn0 3.351376 1_545
Y0 Zn4 3.351376 1_555
Y0 Zn0 3.351376 1_554
Y0 Zn4 3.351376 1_444
Y0 Zn0 3.351376 1_544
Y0 Zn0 3.351376 1_555
Y0 Zn4 3.351376 1_554
Y0 Zn3 3.351377 1_554
Y0 Zn3 3.351377 1_454
Y0 Zn3 3.351377 1_455
Y0 Zn3 3.351377 1_555
Zn0 Zn1 2.577915 1_556
Zn0 Zn2 2.577915 1_455
Zn0 Zn2 2.577915 1_456
Zn0 Zn1 2.577915 1_555
Zn0 Zn3 2.622805 1_565
Zn0 Zn3 2.622805 1_455
Zn0 Zn4 2.622806 1_555
Zn0 Zn4 2.622806 1_455
Zn1 Zn3 2.577915 1_565
Zn1 Zn3 2.577915 1_564
Zn1 Zn4 2.577918 1_555
Zn1 Zn4 2.577918 1_554
Zn2 Zn3 2.577915 1_555
Zn2 Zn3 2.577915 1_554
Zn2 Zn4 2.577918 1_555
Zn2 Zn4 2.577918 1_554
Zn3 Zn4 2.622805 1_545
Zn3 Zn4 2.622805 1_555
