# generated using pymatgen
data_Zr10CuSiSb6
_symmetry_space_group_name_H-M   'P 1'
_cell_length_a   8.62613166
_cell_length_b   8.62613220
_cell_length_c   5.82838282
_cell_angle_alpha   90.00000000
_cell_angle_beta   90.00000000
_cell_angle_gamma   119.99999410
_symmetry_Int_Tables_number   1
_chemical_formula_structural   Zr10CuSiSb6
_chemical_formula_sum   'Zr10 Cu1 Si1 Sb6'
_cell_volume   375.58731762
_cell_formula_units_Z   1
loop_
 _symmetry_equiv_pos_site_id
 _symmetry_equiv_pos_as_xyz
  1  'x, y, z'
loop_
 _atom_site_type_symbol
 _atom_site_label
 _atom_site_symmetry_multiplicity
 _atom_site_fract_x
 _atom_site_fract_y
 _atom_site_fract_z
 _atom_site_occupancy
  Zr  Zr0  1  0.66666700  0.33333300  0.00000000  1
  Zr  Zr1  1  0.33333300  0.66666700  0.00000000  1
  Zr  Zr2  1  0.33333300  0.66666700  0.50000000  1
  Zr  Zr3  1  0.66666700  0.33333300  0.50000000  1
  Zr  Zr4  1  0.73791230  0.73791230  0.74834838  1
  Zr  Zr5  1  0.26208770  0.00000000  0.74834838  1
  Zr  Zr6  1  0.00000000  0.26208770  0.74834838  1
  Zr  Zr7  1  0.26208770  0.26208770  0.25165162  1
  Zr  Zr8  1  0.73791230  1.00000000  0.25165162  1
  Zr  Zr9  1  1.00000000  0.73791230  0.25165162  1
  Cu  Cu0  1  0.00000000  0.00000000  0.00000000  1
  Si  Si0  1  0.00000000  0.00000000  0.50000000  1
  Sb  Sb0  1  0.38927839  0.38927839  0.75265690  1
  Sb  Sb1  1  0.61072161  1.00000000  0.75265690  1
  Sb  Sb2  1  1.00000000  0.61072161  0.75265690  1
  Sb  Sb3  1  0.61072161  0.61072161  0.24734310  1
  Sb  Sb4  1  0.38927839  0.00000000  0.24734310  1
  Sb  Sb5  1  0.00000000  0.38927839  0.24734310  1
loop_
_geom_bond_atom_site_label_1
_geom_bond_atom_site_label_2
_geom_bond_distance
_geom_bond_site_symmetry_2
Cu0 Zr5 2.694903 1_554
Cu0 Zr8 2.694903 1_445
Cu0 Zr6 2.694903 1_554
Cu0 Zr9 2.694903 1_445
Cu0 Zr7 2.694903 1_555
Cu0 Zr4 2.694903 1_444
Si0 Zr5 2.684473 1_555
Si0 Zr8 2.684473 1_445
Si0 Zr6 2.684474 1_555
Si0 Zr9 2.684474 1_445
Si0 Zr7 2.684474 1_555
Si0 Zr4 2.684474 1_445
Sb0 Zr6 2.965822 1_555
Sb0 Zr5 2.965822 1_555
Sb0 Zr4 3.007467 1_555
Sb0 Zr0 3.031720 1_556
Sb0 Zr1 3.031720 1_556
Sb0 Zr3 3.046569 1_555
Sb0 Zr2 3.046569 1_555
Sb0 Zr7 3.108402 1_556
Sb0 Zr7 3.119369 1_555
Sb1 Zr4 2.965822 1_555
Sb1 Zr6 2.965822 1_665
Sb1 Zr5 3.007467 1_565
Sb1 Zr0 3.031713 1_566
Sb1 Zr1 3.031715 1_556
Sb1 Zr3 3.046561 1_565
Sb1 Zr2 3.046564 1_555
Sb1 Zr8 3.108402 1_556
Sb1 Zr8 3.119369 1_555
Sb2 Zr4 2.965822 1_555
Sb2 Zr5 2.965822 1_665
Sb2 Zr6 3.007467 1_655
Sb2 Zr1 3.031712 1_656
Sb2 Zr0 3.031715 1_556
Sb2 Zr2 3.046561 1_655
Sb2 Zr3 3.046564 1_555
Sb2 Zr9 3.108402 1_556
Sb2 Zr9 3.119369 1_555
Sb3 Zr9 2.965822 1_555
Sb3 Zr8 2.965822 1_555
Sb3 Zr7 3.007467 1_555
Sb3 Zr1 3.031720 1_555
Sb3 Zr0 3.031720 1_555
Sb3 Zr2 3.046569 1_555
Sb3 Zr3 3.046569 1_555
Sb3 Zr4 3.108402 1_554
Sb3 Zr4 3.119369 1_555
Sb4 Zr7 2.965822 1_555
Sb4 Zr9 2.965822 1_445
Sb4 Zr8 3.007467 1_545
Sb4 Zr1 3.031713 1_545
Sb4 Zr0 3.031715 1_555
Sb4 Zr2 3.046561 1_545
Sb4 Zr3 3.046564 1_555
Sb4 Zr5 3.108402 1_554
Sb4 Zr5 3.119369 1_555
Sb5 Zr7 2.965822 1_555
Sb5 Zr8 2.965822 1_445
Sb5 Zr9 3.007467 1_455
Sb5 Zr0 3.031712 1_455
Sb5 Zr1 3.031715 1_555
Sb5 Zr3 3.046561 1_455
Sb5 Zr2 3.046564 1_555
Sb5 Zr6 3.108402 1_554
Sb5 Zr6 3.119369 1_555
