# generated using pymatgen
data_Lu3GaSn3Ir2
_symmetry_space_group_name_H-M   'P 1'
_cell_length_a   7.30399248
_cell_length_b   7.30399302
_cell_length_c   4.04002946
_cell_angle_alpha   90.00000000
_cell_angle_beta   90.00000000
_cell_angle_gamma   119.99999754
_symmetry_Int_Tables_number   1
_chemical_formula_structural   Lu3GaSn3Ir2
_chemical_formula_sum   'Lu3 Ga1 Sn3 Ir2'
_cell_volume   186.65337265
_cell_formula_units_Z   1
loop_
 _symmetry_equiv_pos_site_id
 _symmetry_equiv_pos_as_xyz
  1  'x, y, z'
loop_
 _atom_site_type_symbol
 _atom_site_label
 _atom_site_symmetry_multiplicity
 _atom_site_fract_x
 _atom_site_fract_y
 _atom_site_fract_z
 _atom_site_occupancy
  Lu  Lu0  1  0.98334979  0.39366525  0.50000000  1
  Lu  Lu1  1  0.60633475  0.58968454  0.50000000  1
  Lu  Lu2  1  0.41031546  0.01665021  0.50000000  1
  Ga  Ga0  1  0.33333300  0.66666700  0.00000000  1
  Sn  Sn0  1  0.99708551  0.74185036  0.00000000  1
  Sn  Sn1  1  0.25814964  0.25523614  0.00000000  1
  Sn  Sn2  1  0.74476386  0.00291449  0.00000000  1
  Ir  Ir0  1  0.66666700  0.33333300  0.00000000  1
  Ir  Ir1  1  0.00000000  0.00000000  0.50000000  1
loop_
_geom_bond_atom_site_label_1
_geom_bond_atom_site_label_2
_geom_bond_distance
_geom_bond_site_symmetry_2
Lu0 Sn2 3.207683 1_555
Lu0 Sn2 3.207683 1_556
Lu0 Sn0 3.209821 1_555
Lu0 Sn0 3.209821 1_556
Lu0 Sn1 3.340768 1_656
Lu0 Sn1 3.340768 1_655
Lu1 Sn0 3.207682 1_555
Lu1 Sn0 3.207682 1_556
Lu1 Sn1 3.209819 1_555
Lu1 Sn1 3.209819 1_556
Lu1 Sn2 3.340774 1_565
Lu1 Sn2 3.340774 1_566
Lu2 Sn1 3.207687 1_556
Lu2 Sn1 3.207687 1_555
Lu2 Sn2 3.209815 1_555
Lu2 Sn2 3.209815 1_556
Lu2 Sn0 3.340773 1_445
Lu2 Sn0 3.340773 1_446
Ga0 Sn0 2.771623 1_455
Ga0 Sn2 2.771624 1_565
Ga0 Sn1 2.771624 1_555
Ga0 Lu2 3.081204 1_565
Ga0 Lu2 3.081204 1_564
Ga0 Lu0 3.081206 1_455
Ga0 Lu0 3.081206 1_454
Ga0 Lu1 3.081209 1_555
Ga0 Lu1 3.081209 1_554
Ir0 Sn2 2.743426 1_555
Ir0 Sn0 2.743436 1_555
Ir0 Sn1 2.743441 1_555
Ir0 Lu0 2.933523 1_554
Ir0 Lu0 2.933523 1_555
Ir0 Lu2 2.933525 1_555
Ir0 Lu2 2.933525 1_554
Ir0 Lu1 2.933528 1_555
Ir0 Lu1 2.933528 1_554
Ir1 Sn0 2.756079 1_446
Ir1 Sn0 2.756079 1_445
Ir1 Sn1 2.756082 1_555
Ir1 Sn1 2.756082 1_556
Ir1 Sn2 2.756084 1_455
Ir1 Sn2 2.756084 1_456
Ir1 Lu2 2.938023 1_555
Ir1 Lu0 2.938023 1_455
Ir1 Lu1 2.938023 1_445
