# generated using pymatgen
data_KPb3F13
_symmetry_space_group_name_H-M   'P 1'
_cell_length_a   6.76734614
_cell_length_b   8.07398178
_cell_length_c   9.90298589
_cell_angle_alpha   90.00000000
_cell_angle_beta   90.00000000
_cell_angle_gamma   90.00000000
_symmetry_Int_Tables_number   1
_chemical_formula_structural   KPb3F13
_chemical_formula_sum   'K2 Pb6 F26'
_cell_volume   541.09349816
_cell_formula_units_Z   2
loop_
 _symmetry_equiv_pos_site_id
 _symmetry_equiv_pos_as_xyz
  1  'x, y, z'
loop_
 _atom_site_type_symbol
 _atom_site_label
 _atom_site_symmetry_multiplicity
 _atom_site_fract_x
 _atom_site_fract_y
 _atom_site_fract_z
 _atom_site_occupancy
  K  K0  1  0.33697650  0.50000000  0.22720475  1
  K  K1  1  0.66302350  0.50000000  0.72720475  1
  Pb  Pb0  1  0.79821915  0.27182638  0.07336147  1
  Pb  Pb1  1  0.79821915  0.72817362  0.07336147  1
  Pb  Pb2  1  0.20178085  0.72817362  0.57336147  1
  Pb  Pb3  1  0.20178085  0.27182638  0.57336147  1
  Pb  Pb4  1  0.70416240  0.00000000  0.55258181  1
  Pb  Pb5  1  0.29583760  0.00000000  0.05258181  1
  F  F0  1  0.89411488  0.20333535  0.61437260  1
  F  F1  1  0.89411488  0.79666465  0.61437260  1
  F  F2  1  0.10588512  0.79666465  0.11437260  1
  F  F3  1  0.10588512  0.20333535  0.11437260  1
  F  F4  1  0.49923624  0.19460979  0.00531145  1
  F  F5  1  0.49923624  0.80539021  0.00531145  1
  F  F6  1  0.50076376  0.80539021  0.50531145  1
  F  F7  1  0.50076376  0.19460979  0.50531145  1
  F  F8  1  0.67773222  0.29656797  0.25578874  1
  F  F9  1  0.67773222  0.70343203  0.25578874  1
  F  F10  1  0.32226778  0.70343203  0.75578874  1
  F  F11  1  0.32226778  0.29656797  0.75578874  1
  F  F12  1  0.12630485  0.28517306  0.37890099  1
  F  F13  1  0.12630485  0.71482694  0.37890099  1
  F  F14  1  0.87369515  0.71482694  0.87890099  1
  F  F15  1  0.87369515  0.28517306  0.87890099  1
  F  F16  1  0.96871696  0.50000000  0.11838378  1
  F  F17  1  0.03128304  0.50000000  0.61838378  1
  F  F18  1  0.62248641  0.50000000  0.02267871  1
  F  F19  1  0.37751359  0.50000000  0.52267871  1
  F  F20  1  0.80210618  0.00000000  0.07839028  1
  F  F21  1  0.19789382  0.00000000  0.57839028  1
  F  F22  1  0.84028409  0.00000000  0.37573525  1
  F  F23  1  0.15971591  0.00000000  0.87573525  1
  F  F24  1  0.40182331  0.00000000  0.24003293  1
  F  F25  1  0.59817669  0.00000000  0.74003293  1
loop_
_geom_bond_atom_site_label_1
_geom_bond_atom_site_label_2
_geom_bond_distance
_geom_bond_site_symmetry_2
F0 Pb4 2.173050 1_555
F0 Pb3 2.192217 1_655
F0 K1 3.071079 1_555
F1 Pb4 2.173050 1_565
F1 Pb2 2.192217 1_655
F1 K1 3.071079 1_555
F2 Pb5 2.173050 1_565
F2 Pb1 2.192217 1_455
F2 K0 3.071079 1_555
F3 Pb5 2.173050 1_555
F3 Pb0 2.192217 1_455
F3 K0 3.071079 1_555
F4 Pb5 2.140726 1_555
F4 Pb0 2.221857 1_555
F5 Pb5 2.140726 1_565
F5 Pb1 2.221857 1_555
F6 Pb4 2.140726 1_565
F6 Pb2 2.221857 1_555
F7 Pb4 2.140726 1_555
F7 Pb3 2.221857 1_555
F8 Pb0 1.992099 1_555
F8 K0 2.845285 1_555
F9 Pb1 1.992099 1_555
F9 K0 2.845285 1_555
F10 Pb2 1.992099 1_555
F10 K1 2.845285 1_555
F11 Pb3 1.992099 1_555
F11 K1 2.845285 1_555
F12 Pb3 1.995238 1_555
F12 K0 2.701453 1_555
F13 Pb2 1.995238 1_555
F13 K0 2.701453 1_555
F14 Pb1 1.995238 1_556
F14 K1 2.701453 1_555
F15 Pb0 1.995238 1_556
F15 K1 2.701453 1_555
F16 Pb1 2.219018 1_555
F16 Pb0 2.219018 1_555
F16 K0 2.715160 1_655
F17 Pb2 2.219018 1_555
F17 Pb3 2.219018 1_555
F17 K1 2.715160 1_455
F18 Pb1 2.249483 1_555
F18 Pb0 2.249483 1_555
F18 K0 2.799197 1_555
F18 K1 2.938906 1_554
F19 Pb2 2.249483 1_555
F19 Pb3 2.249483 1_555
F19 K1 2.799197 1_555
F19 K0 2.938906 1_555
F20 Pb0 2.195444 1_555
F20 Pb1 2.195444 1_545
F21 Pb3 2.195444 1_555
F21 Pb2 2.195444 1_545
F22 Pb4 1.978803 1_555
F23 Pb5 1.978803 1_556
F24 Pb5 1.990071 1_555
F25 Pb4 1.990071 1_555
