# generated using pymatgen
data_KGaSiSe4
_symmetry_space_group_name_H-M   'P 1'
_cell_length_a   16.68011570
_cell_length_b   7.16457373
_cell_length_c   7.49495224
_cell_angle_alpha   68.84645207
_cell_angle_beta   90.00000000
_cell_angle_gamma   90.00000000
_symmetry_Int_Tables_number   1
_chemical_formula_structural   KGaSiSe4
_chemical_formula_sum   'K4 Ga4 Si4 Se16'
_cell_volume   835.33650851
_cell_formula_units_Z   4
loop_
 _symmetry_equiv_pos_site_id
 _symmetry_equiv_pos_as_xyz
  1  'x, y, z'
loop_
 _atom_site_type_symbol
 _atom_site_label
 _atom_site_symmetry_multiplicity
 _atom_site_fract_x
 _atom_site_fract_y
 _atom_site_fract_z
 _atom_site_occupancy
  K  K0  1  0.39387191  0.96721976  0.18756924  1
  K  K1  1  0.89387191  0.03278024  0.81243076  1
  K  K2  1  0.60227292  0.51237824  0.82472230  1
  K  K3  1  0.10227292  0.48762176  0.17527770  1
  Ga  Ga0  1  0.58438949  0.15451415  0.48124111  1
  Ga  Ga1  1  0.08438949  0.84548585  0.51875889  1
  Ga  Ga2  1  0.27384912  0.59361777  0.70931575  1
  Ga  Ga3  1  0.77384912  0.40638223  0.29068425  1
  Si  Si0  1  0.42181032  0.32312531  0.53674949  1
  Si  Si1  1  0.92181032  0.67687469  0.46325051  1
  Si  Si2  1  0.72515658  0.90853721  0.26724889  1
  Si  Si3  1  0.22515658  0.09146279  0.73275111  1
  Se  Se0  1  0.59650052  0.87546962  0.37559086  1
  Se  Se1  1  0.09650052  0.12453038  0.62440914  1
  Se  Se2  1  0.41388339  0.59740781  0.62159176  1
  Se  Se3  1  0.91388339  0.40259219  0.37840824  1
  Se  Se4  1  0.80049918  0.77845564  0.54313999  1
  Se  Se5  1  0.30049918  0.22154436  0.45686001  1
  Se  Se6  1  0.20147860  0.72741084  0.42024302  1
  Se  Se7  1  0.70147860  0.27258916  0.57975698  1
  Se  Se8  1  0.76227832  0.22292536  0.07677392  1
  Se  Se9  1  0.26227832  0.77707464  0.92322608  1
  Se  Se10  1  0.23778938  0.26359586  0.93268237  1
  Se  Se11  1  0.73778938  0.73640414  0.06731763  1
  Se  Se12  1  0.99375422  0.92290153  0.24301104  1
  Se  Se13  1  0.49375422  0.07709847  0.75698896  1
  Se  Se14  1  0.99246504  0.60501279  0.74036482  1
  Se  Se15  1  0.49246504  0.39498721  0.25963518  1
loop_
_geom_bond_atom_site_label_1
_geom_bond_atom_site_label_2
_geom_bond_distance
_geom_bond_site_symmetry_2
K0 Se2 3.390101 1_555
K0 Se13 3.460713 1_564
K0 Se10 3.465360 1_564
K0 Se5 3.531822 1_565
K0 Se9 3.542205 1_554
K0 Se0 3.629452 1_555
K0 Se15 3.685626 1_565
K0 Se6 3.758883 1_555
K1 Se3 3.390101 1_555
K1 Se12 3.460713 1_546
K1 Se11 3.465360 1_546
K1 Se4 3.531822 1_545
K1 Se8 3.542205 1_556
K1 Se1 3.629452 1_655
K1 Se14 3.685626 1_545
K1 Se7 3.758883 1_555
K2 Se7 3.367068 1_555
K2 Se0 3.433337 1_555
K2 Se2 3.448770 1_555
K2 Se8 3.487833 1_556
K2 Se15 3.564942 1_556
K2 Se11 3.619119 1_556
K2 Se13 3.795058 1_555
K3 Se6 3.367068 1_555
K3 Se1 3.433337 1_555
K3 Se3 3.448770 1_455
K3 Se9 3.487833 1_554
K3 Se14 3.564942 1_454
K3 Se10 3.619119 1_554
K3 Se12 3.795058 1_455
Ga0 Se7 2.350766 1_555
Ga0 Se0 2.409841 1_545
Ga0 Se15 2.452089 1_555
Ga0 Se13 2.457068 1_555
Ga1 Se6 2.350766 1_555
Ga1 Se1 2.409841 1_565
Ga1 Se14 2.452089 1_455
Ga1 Se12 2.457068 1_455
Ga2 Se6 2.360347 1_555
Ga2 Se9 2.419956 1_555
Ga2 Se2 2.424056 1_555
Ga2 Se10 2.428629 1_555
Ga3 Se7 2.360347 1_555
Ga3 Se8 2.419956 1_555
Ga3 Se3 2.424056 1_555
Ga3 Se11 2.428629 1_555
Se0 Si2 2.276392 1_555
Se1 Si3 2.276392 1_555
Se2 Si0 2.277148 1_555
Se3 Si1 2.277148 1_555
Se4 Si1 2.301563 1_555
Se4 Si2 2.309288 1_555
Se5 Si0 2.301563 1_555
Se5 Si3 2.309288 1_555
Se8 Si2 2.274683 1_545
Se9 Si3 2.274683 1_565
Se10 Si3 2.268157 1_555
Se11 Si2 2.268157 1_555
Se12 Si1 2.274178 1_555
Se13 Si0 2.274178 1_555
Se14 Si1 2.279470 1_555
Se15 Si0 2.279470 1_555
