# generated using pymatgen
data_Li4AlZnPd6
_symmetry_space_group_name_H-M   'P 1'
_cell_length_a   4.22154555
_cell_length_b   4.22154610
_cell_length_c   10.32399699
_cell_angle_alpha   90.00000000
_cell_angle_beta   90.00000000
_cell_angle_gamma   120.00001077
_symmetry_Int_Tables_number   1
_chemical_formula_structural   Li4AlZnPd6
_chemical_formula_sum   'Li4 Al1 Zn1 Pd6'
_cell_volume   159.33877327
_cell_formula_units_Z   1
loop_
 _symmetry_equiv_pos_site_id
 _symmetry_equiv_pos_as_xyz
  1  'x, y, z'
loop_
 _atom_site_type_symbol
 _atom_site_label
 _atom_site_symmetry_multiplicity
 _atom_site_fract_x
 _atom_site_fract_y
 _atom_site_fract_z
 _atom_site_occupancy
  Li  Li0  1  0.00000000  0.00000000  0.49671717  1
  Li  Li1  1  0.33333300  0.66666700  0.16435855  1
  Li  Li2  1  0.66666700  0.33333300  0.83789974  1
  Li  Li3  1  0.00000000  0.00000000  0.99987006  1
  Al  Al0  1  0.33333300  0.66666700  0.66911639  1
  Zn  Zn0  1  0.66666700  0.33333300  0.33165889  1
  Pd  Pd0  1  0.33333300  0.66666700  0.42112372  1
  Pd  Pd1  1  0.66666700  0.33333300  0.08268805  1
  Pd  Pd2  1  0.00000000  0.00000000  0.74659219  1
  Pd  Pd3  1  0.00000000  0.00000000  0.24989648  1
  Pd  Pd4  1  0.33333300  0.66666700  0.91350686  1
  Pd  Pd5  1  0.66666700  0.33333300  0.58657191  1
loop_
_geom_bond_atom_site_label_1
_geom_bond_atom_site_label_2
_geom_bond_distance
_geom_bond_site_symmetry_2
Li0 Pd3 2.548176 1_555
Li0 Pd0 2.559206 1_545
Li0 Pd0 2.559209 1_445
Li0 Pd0 2.559210 1_555
Li0 Pd2 2.579709 1_555
Li0 Pd5 2.607877 1_455
Li0 Pd5 2.607880 1_555
Li0 Pd5 2.607881 1_445
Li1 Pd1 2.579030 1_455
Li1 Pd1 2.579031 1_565
Li1 Pd1 2.579038 1_555
Li1 Pd4 2.589792 1_554
Li1 Pd3 2.592359 1_565
Li1 Pd3 2.592362 1_665
Li1 Pd3 2.592362 1_555
Li1 Pd0 2.650843 1_555
Li2 Pd1 2.527194 1_556
Li2 Pd4 2.559249 1_655
Li2 Pd4 2.559249 1_545
Li2 Pd4 2.559256 1_555
Li2 Pd5 2.594708 1_555
Li2 Pd2 2.613250 1_655
Li2 Pd2 2.613253 1_555
Li2 Pd2 2.613254 1_665
Li3 Pd3 2.581272 1_556
Li3 Pd1 2.582928 1_456
Li3 Pd1 2.582931 1_556
Li3 Pd1 2.582932 1_446
Li3 Pd4 2.595274 1_545
Li3 Pd4 2.595277 1_445
Li3 Pd4 2.595277 1_555
Li3 Pd2 2.614840 1_555
Al0 Pd4 2.523087 1_555
Al0 Pd0 2.560275 1_555
Al0 Pd2 2.565199 1_565
Al0 Pd2 2.565202 1_665
Al0 Pd2 2.565203 1_555
Al0 Pd5 2.581994 1_455
Al0 Pd5 2.581995 1_565
Al0 Pd5 2.582002 1_555
Pd0 Zn0 2.606448 1_455
Pd0 Zn0 2.606448 1_565
Pd0 Zn0 2.606455 1_555
Pd1 Zn0 2.570374 1_555
Pd3 Zn0 2.579341 1_455
Pd3 Zn0 2.579344 1_555
Pd3 Zn0 2.579345 1_445
Pd5 Zn0 2.631721 1_555
