# generated using pymatgen
data_Be17Ru3
_symmetry_space_group_name_H-M   'P 1'
_cell_length_a   9.76088474
_cell_length_b   9.76088556
_cell_length_c   9.76088582
_cell_angle_alpha   109.47123028
_cell_angle_beta   109.47122085
_cell_angle_gamma   109.47121162
_symmetry_Int_Tables_number   1
_chemical_formula_structural   Be17Ru3
_chemical_formula_sum   'Be68 Ru12'
_cell_volume   715.88908738
_cell_formula_units_Z   4
loop_
 _symmetry_equiv_pos_site_id
 _symmetry_equiv_pos_as_xyz
  1  'x, y, z'
loop_
 _atom_site_type_symbol
 _atom_site_label
 _atom_site_symmetry_multiplicity
 _atom_site_fract_x
 _atom_site_fract_y
 _atom_site_fract_z
 _atom_site_occupancy
  Be  Be0  1  0.00000000  0.40266318  0.40266318  1
  Be  Be1  1  0.59733682  0.59733682  0.00000000  1
  Be  Be2  1  0.59733682  0.00000000  0.59733682  1
  Be  Be3  1  0.40266318  0.40266318  -0.00000000  1
  Be  Be4  1  0.40266318  -0.00000000  0.40266318  1
  Be  Be5  1  -0.00000000  0.59733682  0.59733682  1
  Be  Be6  1  0.50000000  0.69365853  0.19365853  1
  Be  Be7  1  0.30634147  0.80634147  0.50000000  1
  Be  Be8  1  0.80634147  0.50000000  0.30634147  1
  Be  Be9  1  0.69365853  0.19365853  0.50000000  1
  Be  Be10  1  0.19365853  0.50000000  0.69365853  1
  Be  Be11  1  0.50000000  0.30634147  0.80634147  1
  Be  Be12  1  0.33111309  0.33111309  0.33111209  1
  Be  Be13  1  0.00000000  0.66888691  -0.00000000  1
  Be  Be14  1  -0.00000000  -0.00000000  0.66888791  1
  Be  Be15  1  0.66888691  0.00000000  0.00000000  1
  Be  Be16  1  0.66888691  0.66888691  0.66888791  1
  Be  Be17  1  -0.00000000  0.33111309  0.00000000  1
  Be  Be18  1  0.00000000  0.00000000  0.33111209  1
  Be  Be19  1  0.33111309  -0.00000000  -0.00000000  1
  Be  Be20  1  0.32381643  0.09337525  0.23044218  1
  Be  Be21  1  0.09337525  0.76955782  0.86293208  1
  Be  Be22  1  0.23044218  0.13706692  0.90662475  1
  Be  Be23  1  0.90662475  0.76955782  0.67618357  1
  Be  Be24  1  0.76955782  0.86293308  0.09337525  1
  Be  Be25  1  0.90662475  0.23044218  0.13706692  1
  Be  Be26  1  0.76955782  0.67618357  0.90662475  1
  Be  Be27  1  0.23044218  0.32381643  0.09337525  1
  Be  Be28  1  0.09337525  0.23044218  0.32381643  1
  Be  Be29  1  0.86293308  0.09337525  0.76955782  1
  Be  Be30  1  0.13706692  0.90662475  0.23044218  1
  Be  Be31  1  0.67618357  0.90662475  0.76955782  1
  Be  Be32  1  0.75310759  0.34835092  0.40475666  1
  Be  Be33  1  0.34835092  0.59524334  0.94359426  1
  Be  Be34  1  0.40475666  0.05640574  0.65164908  1
  Be  Be35  1  0.65164908  0.59524334  0.24689241  1
  Be  Be36  1  0.59524334  0.94359426  0.34835092  1
  Be  Be37  1  0.65164908  0.40475666  0.05640574  1
  Be  Be38  1  0.59524334  0.24689241  0.65164908  1
  Be  Be39  1  0.40475666  0.75310759  0.34835092  1
  Be  Be40  1  0.34835092  0.40475666  0.75310759  1
  Be  Be41  1  0.94359426  0.34835092  0.59524334  1
  Be  Be42  1  0.05640574  0.65164908  0.40475666  1
  Be  Be43  1  0.24689241  0.65164908  0.59524334  1
  Be  Be44  1  0.45548778  0.54274199  0.31561622  1
  Be  Be45  1  0.13987056  0.68438378  0.22712578  1
  Be  Be46  1  0.91274679  0.77287422  0.45725801  1
  Be  Be47  1  0.86012944  0.08725421  0.54451222  1
  Be  Be48  1  0.68438378  0.22712578  0.13987156  1
  Be  Be49  1  0.45725801  0.91274579  0.77287422  1
  Be  Be50  1  0.08725321  0.54451222  0.86012844  1
  Be  Be51  1  0.31561622  0.45548778  0.54274199  1
  Be  Be52  1  0.54274199  0.31561622  0.45548778  1
  Be  Be53  1  0.22712578  0.13987056  0.68438378  1
  Be  Be54  1  0.77287422  0.45725801  0.91274679  1
  Be  Be55  1  0.54451222  0.86012944  0.08725321  1
  Be  Be56  1  0.54451222  0.45725801  0.68438378  1
  Be  Be57  1  0.86012944  0.31561622  0.77287422  1
  Be  Be58  1  0.08725321  0.22712578  0.54274199  1
  Be  Be59  1  0.13987056  0.91274579  0.45548778  1
  Be  Be60  1  0.31561622  0.77287422  0.86012844  1
  Be  Be61  1  0.54274199  0.08725421  0.22712578  1
  Be  Be62  1  0.91274679  0.45548778  0.13987156  1
  Be  Be63  1  0.68438378  0.54451222  0.45725801  1
  Be  Be64  1  0.45725801  0.68438378  0.54451222  1
  Be  Be65  1  0.77287422  0.86012944  0.31561622  1
  Be  Be66  1  0.22712578  0.54274199  0.08725321  1
  Be  Be67  1  0.45548778  0.13987056  0.91274679  1
  Ru  Ru0  1  0.49002108  0.30160714  0.18841294  1
  Ru  Ru1  1  0.30160714  0.81158706  0.11319421  1
  Ru  Ru2  1  0.18841294  0.88680579  0.69839286  1
  Ru  Ru3  1  0.69839286  0.81158706  0.50997892  1
  Ru  Ru4  1  0.81158706  0.11319421  0.30160714  1
  Ru  Ru5  1  0.69839286  0.18841294  0.88680579  1
  Ru  Ru6  1  0.81158706  0.50997892  0.69839286  1
  Ru  Ru7  1  0.18841294  0.49002108  0.30160714  1
  Ru  Ru8  1  0.30160714  0.18841294  0.49002108  1
  Ru  Ru9  1  0.11319421  0.30160714  0.81158706  1
  Ru  Ru10  1  0.88680579  0.69839286  0.18841294  1
  Ru  Ru11  1  0.50997892  0.69839286  0.81158706  1
loop_
_geom_bond_atom_site_label_1
_geom_bond_atom_site_label_2
_geom_bond_distance
_geom_bond_site_symmetry_2
Be0 Be5 2.194147 1_555
Be0 Be25 2.208032 1_455
Be0 Be28 2.208035 1_555
Be0 Be32 2.297251 1_455
Be0 Be43 2.297251 1_555
Be0 Be42 2.297252 1_555
Be0 Be41 2.297252 1_455
Be0 Ru4 2.409753 1_455
Be0 Ru7 2.409756 1_555
Be0 Be8 2.442903 1_455
Be0 Be10 2.442903 1_555
Be1 Be3 2.194147 1_555
Be1 Be24 2.208033 1_555
Be1 Be26 2.208035 1_554
Be1 Be33 2.297251 1_554
Be1 Be40 2.297251 1_554
Be1 Be35 2.297251 1_555
Be1 Be37 2.297251 1_555
Be1 Ru10 2.409753 1_555
Be1 Ru11 2.409756 1_554
Be1 Be6 2.442903 1_555
Be1 Be11 2.442903 1_554
Be2 Be4 2.194147 1_555
Be2 Be29 2.208033 1_555
Be2 Be31 2.208035 1_545
Be2 Be34 2.297251 1_555
Be2 Be38 2.297251 1_555
Be2 Be39 2.297251 1_545
Be2 Be36 2.297251 1_545
Be2 Ru5 2.409753 1_555
Be2 Ru3 2.409755 1_545
Be2 Be7 2.442903 1_545
Be2 Be9 2.442903 1_555
Be3 Be37 2.297251 1_555
Be3 Be35 2.297251 1_555
Be3 Be40 2.297251 1_554
Be3 Be33 2.297251 1_554
Be3 Ru9 2.409753 1_554
Be3 Ru0 2.409756 1_555
Be3 Be6 2.442903 1_555
Be4 Ru1 2.409753 1_545
Be4 Ru8 2.409755 1_555
Be4 Be9 2.442903 1_555
Be4 Be7 2.442903 1_545
Be5 Ru2 2.409753 1_555
Be5 Ru6 2.409756 1_455
Be5 Be8 2.442903 1_455
Be6 Be66 2.205219 1_555
Be6 Be65 2.205222 1_555
Be6 Ru3 2.601273 1_555
Be6 Ru1 2.601280 1_555
Be7 Ru7 2.601272 1_555
Be7 Ru2 2.601280 1_555
Be8 Ru0 2.601273 1_555
Be8 Ru10 2.601281 1_555
Be9 Ru6 2.601272 1_555
Be9 Ru4 2.601280 1_555
Be10 Be41 2.037603 1_455
Be10 Be43 2.037603 1_555
Be10 Be40 2.047492 1_555
Be10 Be33 2.047493 1_555
Be10 Be58 2.205219 1_555
Be10 Be60 2.205220 1_555
Be10 Be51 2.205220 1_555
Be10 Be50 2.205228 1_555
Be10 Be5 2.442903 1_555
Be10 Ru11 2.601273 1_555
Be10 Ru9 2.601281 1_555
Be11 Be40 2.037602 1_555
Be11 Be37 2.037603 1_556
Be11 Be38 2.047492 1_555
Be11 Be34 2.047492 1_555
Be11 Be54 2.205219 1_555
Be11 Be56 2.205221 1_555
Be11 Be53 2.205222 1_555
Be11 Be67 2.205236 1_555
Be11 Be3 2.442903 1_556
Be11 Ru8 2.601273 1_555
Be11 Ru5 2.601280 1_555
Be12 Be44 2.103003 1_555
Be12 Be52 2.103011 1_555
Be12 Be51 2.103016 1_555
Be12 Be27 2.162979 1_555
Be12 Be20 2.162987 1_555
Be12 Be28 2.162993 1_555
Be12 Ru0 2.428903 1_555
Be12 Ru7 2.428909 1_555
Be12 Ru8 2.428920 1_555
Be13 Be50 2.103000 1_554
Be13 Be45 2.103006 1_555
Be13 Be54 2.103011 1_454
Be13 Be30 2.162993 1_555
Be13 Be26 2.162998 1_454
Be13 Be21 2.163002 1_554
Be13 Ru6 2.428902 1_454
Be13 Ru1 2.428902 1_555
Be13 Ru10 2.428902 1_455
Be14 Be47 2.103007 1_455
Be14 Be53 2.103011 1_555
Be14 Be46 2.103016 1_445
Be14 Be29 2.162987 1_455
Be14 Be22 2.162988 1_555
Be14 Be23 2.162993 1_445
Be14 Ru3 2.428902 1_445
Be14 Ru2 2.428902 1_545
Be14 Ru9 2.428902 1_555
Be15 Be55 2.102995 1_545
Be15 Be48 2.103008 1_555
Be15 Be49 2.103008 1_544
Be15 Be24 2.162993 1_545
Be15 Be25 2.162993 1_555
Be15 Be31 2.162998 1_544
Be15 Ru11 2.428902 1_544
Be15 Ru4 2.428902 1_555
Be15 Ru5 2.428903 1_554
Be16 Be56 2.103003 1_555
Be16 Be64 2.103011 1_555
Be16 Be63 2.103016 1_555
Be16 Be26 2.162979 1_555
Be16 Be31 2.162987 1_555
Be16 Be23 2.162993 1_555
Be16 Ru11 2.428903 1_555
Be16 Ru6 2.428909 1_555
Be16 Ru3 2.428920 1_555
Be17 Be62 2.103000 1_455
Be17 Be57 2.103006 1_454
Be17 Be66 2.103011 1_555
Be17 Be29 2.162993 1_454
Be17 Be25 2.162993 1_455
Be17 Be27 2.162998 1_555
Be17 Ru7 2.428902 1_555
Be17 Ru5 2.428902 1_454
Be17 Ru9 2.428902 1_554
Be18 Be59 2.103007 1_545
Be18 Be65 2.103011 1_445
Be18 Be58 2.103016 1_555
Be18 Be30 2.162987 1_545
Be18 Be24 2.162988 1_445
Be18 Be28 2.162993 1_555
Be18 Ru8 2.428902 1_555
Be18 Ru4 2.428902 1_455
Be18 Ru10 2.428902 1_445
Be19 Be67 2.102995 1_554
Be19 Be60 2.103008 1_544
Be19 Be61 2.103008 1_555
Be19 Be21 2.162992 1_544
Be19 Be22 2.162993 1_554
Be19 Be20 2.162998 1_555
Be19 Ru0 2.428902 1_555
Be19 Ru2 2.428902 1_544
Be19 Ru1 2.428903 1_545
Be20 Be30 2.104841 1_545
Be20 Be52 2.168157 1_555
Be20 Be61 2.168163 1_555
Be20 Be4 2.208035 1_555
Be20 Ru0 2.394299 1_555
Be20 Ru8 2.502113 1_555
Be20 Ru1 2.502114 1_545
Be21 Be23 2.104835 1_455
Be21 Be60 2.168150 1_555
Be21 Be50 2.168154 1_555
Be21 Be5 2.208025 1_555
Be21 Ru1 2.394296 1_556
Be21 Ru2 2.502101 1_555
Be21 Ru6 2.502115 1_455
Be22 Be27 2.104840 1_556
Be22 Be53 2.168150 1_555
Be22 Be67 2.168154 1_555
Be22 Be3 2.208033 1_556
Be22 Ru2 2.394290 1_545
Be22 Ru9 2.502110 1_555
Be22 Ru0 2.502114 1_556
Be23 Be63 2.168157 1_555
Be23 Be46 2.168167 1_555
Be23 Be5 2.208035 1_655
Be23 Ru3 2.394298 1_555
Be23 Ru6 2.502114 1_555
Be23 Ru2 2.502114 1_655
Be24 Be26 2.104840 1_554
Be24 Be65 2.168150 1_555
Be24 Be55 2.168154 1_555
Be24 Ru4 2.394290 1_565
Be24 Ru10 2.502110 1_555
Be24 Ru11 2.502114 1_554
Be25 Be28 2.104841 1_655
Be25 Be62 2.168151 1_555
Be25 Be48 2.168154 1_555
Be25 Ru5 2.394290 1_554
Be25 Ru4 2.502110 1_555
Be25 Ru7 2.502114 1_655
Be26 Be56 2.168157 1_555
Be26 Be54 2.168167 1_555
Be26 Ru6 2.394298 1_555
Be26 Ru11 2.502113 1_555
Be26 Ru10 2.502114 1_556
Be27 Be44 2.168157 1_555
Be27 Be66 2.168167 1_555
Be27 Be3 2.208035 1_555
Be27 Ru7 2.394298 1_555
Be27 Ru0 2.502113 1_555
Be27 Ru9 2.502114 1_554
Be28 Be51 2.168157 1_555
Be28 Be58 2.168167 1_555
Be28 Ru8 2.394298 1_555
Be28 Ru7 2.502114 1_555
Be28 Ru4 2.502114 1_455
Be29 Be31 2.104841 1_545
Be29 Be57 2.168150 1_555
Be29 Be47 2.168157 1_555
Be29 Ru9 2.394290 1_655
Be29 Ru5 2.502110 1_555
Be29 Ru3 2.502114 1_545
Be30 Be45 2.168150 1_555
Be30 Be59 2.168157 1_555
Be30 Be4 2.208033 1_565
Be30 Ru10 2.394290 1_455
Be30 Ru1 2.502110 1_555
Be30 Ru8 2.502114 1_565
Be31 Be64 2.168157 1_555
Be31 Be49 2.168163 1_555
Be31 Ru11 2.394299 1_555
Be31 Ru3 2.502113 1_555
Be31 Ru5 2.502114 1_565
Be32 Be8 2.037603 1_555
Be32 Be9 2.047493 1_555
Be32 Be41 2.146956 1_555
Be32 Be63 2.193171 1_555
Be32 Be48 2.193171 1_555
Be32 Be52 2.215740 1_555
Be32 Be61 2.215740 1_555
Be32 Be5 2.297251 1_655
Be32 Ru0 2.494648 1_555
Be32 Ru6 2.514763 1_555
Be32 Ru4 2.514764 1_555
Be33 Be6 2.037603 1_556
Be33 Be40 2.146956 1_555
Be33 Be66 2.193162 1_556
Be33 Be55 2.193178 1_556
Be33 Be60 2.215740 1_555
Be33 Be50 2.215749 1_555
Be33 Ru1 2.494655 1_556
Be33 Ru11 2.514759 1_555
Be33 Ru9 2.514765 1_555
Be34 Be7 2.037603 1_545
Be34 Be38 2.146956 1_555
Be34 Be49 2.193171 1_545
Be34 Be59 2.193177 1_545
Be34 Be53 2.215734 1_555
Be34 Be67 2.215750 1_555
Be34 Be4 2.297251 1_555
Be34 Ru2 2.494655 1_545
Be34 Ru8 2.514758 1_555
Be34 Ru5 2.514765 1_555
Be35 Be6 2.037602 1_555
Be35 Be8 2.047492 1_555
Be35 Be37 2.146956 1_555
Be35 Be44 2.193171 1_555
Be35 Be65 2.193180 1_555
Be35 Be63 2.215740 1_555
Be35 Be46 2.215746 1_555
Be35 Ru3 2.494648 1_555
Be35 Ru0 2.514763 1_555
Be35 Ru10 2.514765 1_555
Be36 Be9 2.037603 1_565
Be36 Be6 2.047492 1_555
Be36 Be39 2.146956 1_555
Be36 Be61 2.193171 1_565
Be36 Be47 2.193177 1_565
Be36 Be65 2.215734 1_555
Be36 Be55 2.215750 1_555
Be36 Be4 2.297251 1_565
Be36 Ru4 2.494655 1_565
Be36 Ru3 2.514758 1_555
Be36 Ru1 2.514765 1_555
Be37 Be8 2.047493 1_555
Be37 Be54 2.193162 1_554
Be37 Be67 2.193178 1_554
Be37 Be48 2.215740 1_555
Be37 Be62 2.215749 1_555
Be37 Ru5 2.494655 1_554
Be37 Ru0 2.514759 1_555
Be37 Ru10 2.514765 1_555
Be38 Be9 2.037603 1_555
Be38 Be52 2.193171 1_555
Be38 Be57 2.193179 1_555
Be38 Be56 2.215740 1_555
Be38 Be54 2.215746 1_555
Be38 Be4 2.297251 1_555
Be38 Ru6 2.494648 1_555
Be38 Ru8 2.514763 1_555
Be38 Ru5 2.514765 1_555
Be39 Be7 2.037603 1_555
Be39 Be6 2.047492 1_555
Be39 Be64 2.193171 1_555
Be39 Be45 2.193179 1_555
Be39 Be44 2.215740 1_555
Be39 Be66 2.215746 1_555
Be39 Be4 2.297251 1_565
Be39 Ru7 2.494648 1_555
Be39 Ru3 2.514763 1_555
Be39 Ru1 2.514765 1_555
Be40 Be56 2.193171 1_555
Be40 Be53 2.193180 1_555
Be40 Be51 2.215740 1_555
Be40 Be58 2.215746 1_555
Be40 Ru8 2.494648 1_555
Be40 Ru11 2.514763 1_555
Be40 Ru9 2.514765 1_555
Be41 Be9 2.047493 1_555
Be41 Be58 2.193162 1_655
Be41 Be50 2.193171 1_655
Be41 Be57 2.215734 1_555
Be41 Be47 2.215741 1_555
Be41 Be5 2.297252 1_655
Be41 Ru9 2.494655 1_655
Be41 Ru6 2.514758 1_555
Be41 Ru4 2.514765 1_555
Be42 Be8 2.037603 1_455
Be42 Be7 2.047493 1_555
Be42 Be43 2.146956 1_555
Be42 Be46 2.193162 1_455
Be42 Be62 2.193171 1_455
Be42 Be45 2.215734 1_555
Be42 Be59 2.215741 1_555
Be42 Be5 2.297252 1_555
Be42 Ru10 2.494655 1_455
Be42 Ru7 2.514758 1_555
Be42 Ru2 2.514765 1_555
Be43 Be7 2.047493 1_555
Be43 Be51 2.193171 1_555
Be43 Be60 2.193171 1_555
Be43 Be64 2.215740 1_555
Be43 Be49 2.215740 1_555
Be43 Be5 2.297251 1_555
Be43 Ru11 2.494648 1_555
Be43 Ru7 2.514763 1_555
Be43 Ru2 2.514764 1_555
Be44 Be64 2.191475 1_555
Be44 Be63 2.191475 1_555
Be44 Be6 2.205221 1_555
Be44 Ru3 2.375155 1_555
Be44 Ru7 2.429089 1_555
Be44 Ru0 2.460642 1_555
Be45 Be62 2.191465 1_455
Be45 Be66 2.191489 1_555
Be45 Be7 2.205222 1_555
Be45 Ru7 2.375150 1_555
Be45 Ru10 2.429078 1_455
Be45 Ru1 2.460642 1_555
Be46 Be59 2.191460 1_655
Be46 Be65 2.191489 1_555
Be46 Be8 2.205219 1_555
Be46 Ru10 2.375152 1_555
Be46 Ru3 2.429093 1_555
Be46 Ru2 2.460630 1_655
Be47 Be58 2.191460 1_655
Be47 Be65 2.191467 1_545
Be47 Be9 2.205228 1_555
Be47 Ru4 2.375155 1_555
Be47 Ru9 2.429084 1_655
Be47 Ru3 2.460634 1_545
Be48 Be67 2.191467 1_554
Be48 Be61 2.191476 1_555
Be48 Be8 2.205220 1_555
Be48 Ru0 2.375146 1_555
Be48 Ru5 2.429088 1_554
Be48 Ru4 2.460636 1_555
Be49 Be67 2.191470 1_565
Be49 Be60 2.191476 1_555
Be49 Be7 2.205220 1_555
Be49 Ru2 2.375156 1_555
Be49 Ru11 2.429084 1_555
Be49 Ru5 2.460636 1_565
Be50 Be57 2.191465 1_455
Be50 Be66 2.191470 1_556
Be50 Ru9 2.375161 1_555
Be50 Ru1 2.429089 1_556
Be50 Ru6 2.460624 1_455
Be51 Be56 2.191475 1_555
Be51 Be64 2.191476 1_555
Be51 Ru11 2.375155 1_555
Be51 Ru8 2.429089 1_555
Be51 Ru7 2.460642 1_555
Be52 Be56 2.191475 1_555
Be52 Be63 2.191476 1_555
Be52 Be9 2.205220 1_555
Be52 Ru6 2.375155 1_555
Be52 Ru0 2.429090 1_555
Be52 Ru8 2.460642 1_555
Be53 Be59 2.191467 1_545
Be53 Be58 2.191489 1_555
Be53 Ru8 2.375150 1_555
Be53 Ru2 2.429078 1_545
Be53 Ru9 2.460642 1_555
Be54 Be62 2.191470 1_556
Be54 Be57 2.191489 1_555
Be54 Ru5 2.375153 1_555
Be54 Ru6 2.429093 1_555
Be54 Ru10 2.460630 1_556
Be55 Be60 2.191467 1_554
Be55 Be61 2.191470 1_565
Be55 Be6 2.205236 1_555
Be55 Ru1 2.375160 1_555
Be55 Ru4 2.429086 1_565
Be55 Ru11 2.460626 1_554
Be56 Ru8 2.375155 1_555
Be56 Ru6 2.429089 1_555
Be56 Ru11 2.460642 1_555
Be57 Be9 2.205222 1_555
Be57 Ru6 2.375150 1_555
Be57 Ru9 2.429078 1_655
Be57 Ru5 2.460642 1_555
Be58 Ru9 2.375152 1_555
Be58 Ru8 2.429093 1_555
Be58 Ru4 2.460630 1_455
Be59 Be7 2.205228 1_555
Be59 Ru2 2.375155 1_555
Be59 Ru10 2.429084 1_455
Be59 Ru8 2.460634 1_565
Be60 Ru11 2.375146 1_555
Be60 Ru1 2.429088 1_556
Be60 Ru2 2.460636 1_555
Be61 Be9 2.205220 1_555
Be61 Ru4 2.375156 1_555
Be61 Ru0 2.429084 1_555
Be61 Ru1 2.460636 1_545
Be62 Be8 2.205228 1_555
Be62 Ru10 2.375161 1_555
Be62 Ru5 2.429089 1_554
Be62 Ru7 2.460624 1_655
Be63 Be8 2.205220 1_555
Be63 Ru0 2.375155 1_555
Be63 Ru3 2.429089 1_555
Be63 Ru6 2.460642 1_555
Be64 Be7 2.205220 1_555
Be64 Ru7 2.375155 1_555
Be64 Ru11 2.429090 1_555
Be64 Ru3 2.460642 1_555
Be65 Ru3 2.375150 1_555
Be65 Ru4 2.429078 1_565
Be65 Ru10 2.460642 1_555
Be66 Ru1 2.375153 1_555
Be66 Ru7 2.429093 1_555
Be66 Ru9 2.460630 1_554
Be67 Ru5 2.375160 1_555
Be67 Ru2 2.429086 1_545
Be67 Ru0 2.460626 1_556
