# generated using pymatgen
data_Hf3NbRe2N
_symmetry_space_group_name_H-M   'P 1'
_cell_length_a   8.65440053
_cell_length_b   8.65439981
_cell_length_c   8.65439920
_cell_angle_alpha   59.99999856
_cell_angle_beta   60.00000132
_cell_angle_gamma   60.00000029
_symmetry_Int_Tables_number   1
_chemical_formula_structural   Hf3NbRe2N
_chemical_formula_sum   'Hf12 Nb4 Re8 N4'
_cell_volume   458.34856028
_cell_formula_units_Z   4
loop_
 _symmetry_equiv_pos_site_id
 _symmetry_equiv_pos_as_xyz
  1  'x, y, z'
loop_
 _atom_site_type_symbol
 _atom_site_label
 _atom_site_symmetry_multiplicity
 _atom_site_fract_x
 _atom_site_fract_y
 _atom_site_fract_z
 _atom_site_occupancy
  Hf  Hf0  1  0.81390368  0.81390368  0.18609632  1
  Hf  Hf1  1  0.18609632  0.18609632  0.81390368  1
  Hf  Hf2  1  0.81390368  0.18609632  0.81390368  1
  Hf  Hf3  1  0.18609632  0.81390368  0.18609632  1
  Hf  Hf4  1  0.18609632  0.81390368  0.81390368  1
  Hf  Hf5  1  0.81390368  0.18609632  0.18609632  1
  Hf  Hf6  1  0.43609632  0.43609632  0.06390368  1
  Hf  Hf7  1  0.06390368  0.06390368  0.43609632  1
  Hf  Hf8  1  0.43609632  0.06390368  0.43609632  1
  Hf  Hf9  1  0.06390368  0.43609632  0.06390368  1
  Hf  Hf10  1  0.06390368  0.43609632  0.43609632  1
  Hf  Hf11  1  0.43609632  0.06390368  0.06390368  1
  Nb  Nb0  1  0.12500000  0.62500000  0.62500000  1
  Nb  Nb1  1  0.62500000  0.12500000  0.62500000  1
  Nb  Nb2  1  0.62500000  0.62500000  0.12500000  1
  Nb  Nb3  1  0.62500000  0.62500000  0.62500000  1
  Re  Re0  1  0.74780145  0.41739985  0.41739985  1
  Re  Re1  1  0.41739985  0.74780145  0.41739985  1
  Re  Re2  1  0.41739985  0.41739985  0.74780145  1
  Re  Re3  1  0.41739985  0.41739985  0.41739985  1
  Re  Re4  1  0.50219855  0.83260015  0.83260015  1
  Re  Re5  1  0.83260015  0.50219855  0.83260015  1
  Re  Re6  1  0.83260015  0.83260015  0.50219855  1
  Re  Re7  1  0.83260015  0.83260015  0.83260015  1
  N  N0  1  0.62500000  0.12500000  0.12500000  1
  N  N1  1  0.12500000  0.62500000  0.12500000  1
  N  N2  1  0.12500000  0.12500000  0.62500000  1
  N  N3  1  0.12500000  0.12500000  0.12500000  1
loop_
_geom_bond_atom_site_label_1
_geom_bond_atom_site_label_2
_geom_bond_distance
_geom_bond_site_symmetry_2
Hf0 N0 2.289175 1_565
Hf0 N1 2.289175 1_655
Hf0 Re6 2.906503 1_555
Hf0 Re7 2.906512 1_554
Hf0 Nb3 3.166484 1_555
Hf0 Nb2 3.166484 1_555
Hf0 Re0 3.171498 1_555
Hf0 Re1 3.171498 1_555
Hf1 N3 2.289175 1_556
Hf1 N2 2.289175 1_555
Hf1 Re4 2.906509 1_545
Hf1 Re5 2.906509 1_455
Hf1 Nb0 3.166484 1_555
Hf1 Nb1 3.166484 1_555
Hf1 Re3 3.171501 1_555
Hf1 Re2 3.171506 1_555
Hf2 N0 2.289175 1_556
Hf2 N2 2.289175 1_655
Hf2 Re5 2.906504 1_555
Hf2 Re7 2.906512 1_545
Hf2 Nb3 3.166484 1_555
Hf2 Nb1 3.166484 1_555
Hf2 Re0 3.171498 1_555
Hf2 Re2 3.171498 1_555
Hf3 N3 2.289175 1_565
Hf3 N1 2.289175 1_555
Hf3 Re4 2.906508 1_554
Hf3 Re6 2.906509 1_455
Hf3 Nb0 3.166484 1_555
Hf3 Nb2 3.166484 1_555
Hf3 Re3 3.171501 1_555
Hf3 Re1 3.171505 1_555
Hf4 N1 2.289175 1_556
Hf4 N2 2.289175 1_565
Hf4 Re4 2.906504 1_555
Hf4 Re7 2.906513 1_455
Hf4 Nb0 3.166484 1_555
Hf4 Nb3 3.166484 1_555
Hf4 Re1 3.171498 1_555
Hf4 Re2 3.171498 1_555
Hf5 N0 2.289175 1_555
Hf5 N3 2.289175 1_655
Hf5 Re5 2.906508 1_554
Hf5 Re6 2.906508 1_545
Hf5 Nb1 3.166484 1_555
Hf5 Nb2 3.166484 1_555
Hf5 Re3 3.171502 1_555
Hf5 Re0 3.171505 1_555
Hf6 N0 2.289175 1_555
Hf6 N1 2.289175 1_555
Hf6 Re2 2.906503 1_554
Hf6 Re3 2.906512 1_555
Hf6 Nb3 3.166484 1_554
Hf6 Nb2 3.166484 1_555
Hf6 Re4 3.171498 1_554
Hf6 Re5 3.171498 1_554
Hf7 N3 2.289175 1_555
Hf7 N2 2.289175 1_555
Hf7 Re0 2.906509 1_455
Hf7 Re1 2.906509 1_545
Hf7 Nb0 3.166484 1_545
Hf7 Nb1 3.166484 1_455
Hf7 Re7 3.171501 1_445
Hf7 Re6 3.171506 1_445
Hf8 N0 2.289175 1_555
Hf8 N2 2.289175 1_555
Hf8 Re1 2.906504 1_545
Hf8 Re3 2.906512 1_555
Hf8 Nb3 3.166484 1_545
Hf8 Nb1 3.166484 1_555
Hf8 Re4 3.171498 1_545
Hf8 Re6 3.171498 1_545
Hf9 N3 2.289175 1_555
Hf9 N1 2.289175 1_555
Hf9 Re0 2.906508 1_455
Hf9 Re2 2.906509 1_554
Hf9 Nb0 3.166484 1_554
Hf9 Nb2 3.166484 1_455
Hf9 Re7 3.171501 1_454
Hf9 Re5 3.171505 1_454
Hf10 N1 2.289175 1_555
Hf10 N2 2.289175 1_555
Hf10 Re0 2.906504 1_455
Hf10 Re3 2.906513 1_555
Hf10 Nb0 3.166484 1_555
Hf10 Nb3 3.166484 1_455
Hf10 Re5 3.171498 1_455
Hf10 Re6 3.171498 1_455
Hf11 N0 2.289175 1_555
Hf11 N3 2.289175 1_555
Hf11 Re1 2.906508 1_545
Hf11 Re2 2.906508 1_554
Hf11 Nb1 3.166484 1_554
Hf11 Nb2 3.166484 1_545
Hf11 Re7 3.171502 1_544
Hf11 Re4 3.171505 1_544
Nb0 Re7 2.644718 1_455
Nb0 Re3 2.644718 1_555
Nb0 Re2 2.644722 1_555
Nb0 Re6 2.644722 1_455
Nb0 Re1 2.644723 1_555
Nb0 Re5 2.644723 1_455
Nb1 Re7 2.644718 1_545
Nb1 Re3 2.644718 1_555
Nb1 Re2 2.644722 1_555
Nb1 Re6 2.644722 1_545
Nb1 Re0 2.644722 1_555
Nb1 Re4 2.644722 1_545
Nb2 Re7 2.644718 1_554
Nb2 Re3 2.644718 1_555
Nb2 Re0 2.644722 1_555
Nb2 Re4 2.644722 1_554
Nb2 Re1 2.644722 1_555
Nb2 Re5 2.644722 1_554
Nb3 Re4 2.644715 1_555
Nb3 Re0 2.644715 1_555
Nb3 Re5 2.644715 1_555
Nb3 Re1 2.644715 1_555
Nb3 Re6 2.644715 1_555
Nb3 Re2 2.644715 1_555
Re0 Re2 2.859428 1_555
Re0 Re1 2.859428 1_555
Re0 Re3 2.859428 1_555
Re1 Re2 2.859427 1_555
Re1 Re3 2.859428 1_555
Re2 Re3 2.859427 1_555
Re4 Re6 2.859428 1_555
Re4 Re5 2.859428 1_555
Re4 Re7 2.859428 1_555
Re5 Re6 2.859427 1_555
Re5 Re7 2.859428 1_555
Re6 Re7 2.859427 1_555
