# generated using pymatgen
data_CsK2SbSe3
_symmetry_space_group_name_H-M   'P 1'
_cell_length_a   10.11261707
_cell_length_b   10.11261707
_cell_length_c   10.11261707
_cell_angle_alpha   90.00000000
_cell_angle_beta   90.00000000
_cell_angle_gamma   90.00000000
_symmetry_Int_Tables_number   1
_chemical_formula_structural   CsK2SbSe3
_chemical_formula_sum   'Cs4 K8 Sb4 Se12'
_cell_volume   1034.16702600
_cell_formula_units_Z   4
loop_
 _symmetry_equiv_pos_site_id
 _symmetry_equiv_pos_as_xyz
  1  'x, y, z'
loop_
 _atom_site_type_symbol
 _atom_site_label
 _atom_site_symmetry_multiplicity
 _atom_site_fract_x
 _atom_site_fract_y
 _atom_site_fract_z
 _atom_site_occupancy
  Cs  Cs0  1  0.92568765  0.42568765  0.07431235  1
  Cs  Cs1  1  0.42568765  0.07431235  0.92568765  1
  Cs  Cs2  1  0.07431235  0.92568765  0.42568765  1
  Cs  Cs3  1  0.57431235  0.57431235  0.57431235  1
  K  K0  1  0.18611929  0.68611929  0.81388071  1
  K  K1  1  0.68611929  0.81388071  0.18611929  1
  K  K2  1  0.81388071  0.18611929  0.68611929  1
  K  K3  1  0.31388071  0.31388071  0.31388071  1
  K  K4  1  0.68942594  0.18942594  0.31057406  1
  K  K5  1  0.18942594  0.31057406  0.68942594  1
  K  K6  1  0.31057406  0.68942594  0.18942594  1
  K  K7  1  0.81057406  0.81057406  0.81057406  1
  Sb  Sb0  1  0.47612185  0.97612185  0.52387815  1
  Sb  Sb1  1  0.97612185  0.52387815  0.47612185  1
  Sb  Sb2  1  0.52387815  0.47612185  0.97612185  1
  Sb  Sb3  1  0.02387815  0.02387815  0.02387815  1
  Se  Se0  1  0.00394602  0.77908460  0.08895976  1
  Se  Se1  1  0.91104024  0.50394602  0.72091540  1
  Se  Se2  1  0.27908460  0.41104024  0.99605398  1
  Se  Se3  1  0.50394602  0.72091540  0.91104024  1
  Se  Se4  1  0.41104024  0.99605398  0.27908460  1
  Se  Se5  1  0.77908460  0.08895976  0.00394602  1
  Se  Se6  1  0.99605398  0.27908460  0.41104024  1
  Se  Se7  1  0.08895976  0.00394602  0.77908460  1
  Se  Se8  1  0.72091540  0.91104024  0.50394602  1
  Se  Se9  1  0.49605398  0.22091540  0.58895976  1
  Se  Se10  1  0.58895976  0.49605398  0.22091540  1
  Se  Se11  1  0.22091540  0.58895976  0.49605398  1
loop_
_geom_bond_atom_site_label_1
_geom_bond_atom_site_label_2
_geom_bond_distance
_geom_bond_site_symmetry_2
Cs0 Se0 3.663341 1_655
Cs0 Se2 3.663341 1_654
Cs0 Se1 3.663341 1_554
Cs0 Se6 3.781491 1_555
Cs0 Se10 3.781491 1_555
Cs0 Se5 3.781491 1_555
Cs1 Se4 3.663341 1_546
Cs1 Se5 3.663341 1_556
Cs1 Se3 3.663341 1_545
Cs1 Se2 3.781491 1_555
Cs1 Se9 3.781491 1_555
Cs1 Se7 3.781491 1_555
Cs2 Se7 3.663341 1_565
Cs2 Se6 3.663341 1_465
Cs2 Se8 3.663341 1_455
Cs2 Se4 3.781491 1_555
Cs2 Se0 3.781491 1_555
Cs2 Se11 3.781491 1_555
Cs3 Se9 3.663341 1_555
Cs3 Se10 3.663341 1_555
Cs3 Se11 3.663341 1_555
Cs3 Se3 3.781491 1_555
Cs3 Se8 3.781491 1_555
Cs3 Se1 3.781491 1_555
K0 Se7 3.379257 1_565
K0 Se11 3.379257 1_555
K0 Se3 3.379257 1_555
K0 Se0 3.466403 1_556
K0 Se1 3.466403 1_455
K0 Se2 3.466403 1_555
K1 Se0 3.379257 1_655
K1 Se10 3.379257 1_555
K1 Se8 3.379257 1_555
K1 Se5 3.466403 1_565
K1 Se3 3.466403 1_554
K1 Se4 3.466403 1_555
K2 Se5 3.379257 1_556
K2 Se9 3.379257 1_555
K2 Se1 3.379257 1_555
K2 Se7 3.466403 1_655
K2 Se8 3.466403 1_545
K2 Se6 3.466403 1_555
K3 Se6 3.379257 1_455
K3 Se2 3.379257 1_554
K3 Se4 3.379257 1_545
K3 Se11 3.466403 1_555
K3 Se9 3.466403 1_555
K3 Se10 3.466403 1_555
K4 Se6 3.386638 1_555
K4 Se10 3.386638 1_555
K4 Se5 3.386638 1_555
K4 Se9 3.442494 1_555
K4 Se8 3.442494 1_545
K4 Se4 3.442494 1_545
K5 Se2 3.386638 1_555
K5 Se9 3.386638 1_555
K5 Se7 3.386638 1_555
K5 Se11 3.442494 1_555
K5 Se1 3.442494 1_455
K5 Se6 3.442494 1_455
K6 Se4 3.386638 1_555
K6 Se11 3.386638 1_555
K6 Se0 3.386638 1_555
K6 Se10 3.442494 1_555
K6 Se3 3.442494 1_554
K6 Se2 3.442494 1_554
K7 Se3 3.386638 1_555
K7 Se8 3.386638 1_555
K7 Se1 3.386638 1_555
K7 Se5 3.442494 1_566
K7 Se7 3.442494 1_665
K7 Se0 3.442494 1_656
Sb0 Se8 2.569417 1_555
Sb0 Se9 2.569417 1_565
Sb0 Se4 2.569417 1_555
Sb1 Se11 2.569417 1_655
Sb1 Se1 2.569417 1_555
Sb1 Se6 2.569417 1_555
Sb2 Se10 2.569417 1_556
Sb2 Se2 2.569417 1_555
Sb2 Se3 2.569417 1_555
Sb3 Se0 2.569417 1_545
Sb3 Se5 2.569417 1_455
Sb3 Se7 2.569417 1_554
