# generated using pymatgen
data_Zr6Ta5Ga11Os7
_symmetry_space_group_name_H-M   'P 1'
_cell_length_a   8.85336482
_cell_length_b   8.85336523
_cell_length_c   8.81580306
_cell_angle_alpha   59.85895077
_cell_angle_beta   59.85895136
_cell_angle_gamma   59.99999535
_symmetry_Int_Tables_number   1
_chemical_formula_structural   Zr6Ta5Ga11Os7
_chemical_formula_sum   'Zr6 Ta5 Ga11 Os7'
_cell_volume   487.56712469
_cell_formula_units_Z   1
loop_
 _symmetry_equiv_pos_site_id
 _symmetry_equiv_pos_as_xyz
  1  'x, y, z'
loop_
 _atom_site_type_symbol
 _atom_site_label
 _atom_site_symmetry_multiplicity
 _atom_site_fract_x
 _atom_site_fract_y
 _atom_site_fract_z
 _atom_site_occupancy
  Zr  Zr0  1  0.70389430  0.70389430  0.29945280  1
  Zr  Zr1  1  0.29275761  0.70389430  0.29945280  1
  Zr  Zr2  1  0.70389430  0.29275761  0.29945280  1
  Zr  Zr3  1  0.30523237  0.30523237  0.70327032  1
  Zr  Zr4  1  0.68626494  0.30523237  0.70327032  1
  Zr  Zr5  1  0.30523237  0.68626494  0.70327032  1
  Ta  Ta0  1  0.87784629  0.87784629  0.36646113  1
  Ta  Ta1  1  0.87427838  0.37172030  0.87972295  1
  Ta  Ta2  1  0.37172030  0.87427838  0.87972295  1
  Ta  Ta3  1  0.87427838  0.87427838  0.87972295  1
  Ta  Ta4  1  0.12661085  0.12661085  0.62016744  1
  Ga  Ga0  1  0.11948305  0.64157932  0.11945458  1
  Ga  Ga1  1  0.64157932  0.11948305  0.11945458  1
  Ga  Ga2  1  0.11948305  0.11948305  0.11945458  1
  Ga  Ga3  1  0.65384831  0.65384831  0.03845407  1
  Ga  Ga4  1  0.65683706  0.03151229  0.65481458  1
  Ga  Ga5  1  0.03151229  0.65683706  0.65481458  1
  Ga  Ga6  1  0.65683706  0.65683706  0.65481458  1
  Ga  Ga7  1  0.33724077  0.33724077  0.98827670  1
  Ga  Ga8  1  0.34182251  0.97829831  0.33805767  1
  Ga  Ga9  1  0.97829831  0.34182251  0.33805767  1
  Ga  Ga10  1  0.34182251  0.34182251  0.33805767  1
  Os  Os0  1  0.00509458  0.00509458  0.98471627  1
  Os  Os1  1  0.99821680  0.99821680  0.50621714  1
  Os  Os2  1  0.49734927  0.99821680  0.50621714  1
  Os  Os3  1  0.99821680  0.49734927  0.50621714  1
  Os  Os4  1  0.50210480  0.50210480  0.99964975  1
  Os  Os5  1  0.99613965  0.50210480  0.99964975  1
  Os  Os6  1  0.50210480  0.99613965  0.99964975  1
loop_
_geom_bond_atom_site_label_1
_geom_bond_atom_site_label_2
_geom_bond_distance
_geom_bond_site_symmetry_2
Ta0 Zr1 3.048205 1_655
Ta0 Zr2 3.048205 1_565
Ta0 Zr0 3.048213 1_555
Ta1 Zr2 3.050790 1_556
Ta1 Zr3 3.168090 1_655
Ta1 Zr4 3.168090 1_555
Ta2 Zr1 3.050790 1_556
Ta2 Zr3 3.168090 1_565
Ta2 Zr5 3.168091 1_555
Ta3 Zr0 3.050791 1_556
Ta3 Zr5 3.168090 1_655
Ta3 Zr4 3.168090 1_565
Ta4 Zr4 3.219662 1_455
Ta4 Zr5 3.219662 1_545
Ta4 Zr3 3.219662 1_555
Ga0 Os0 2.627524 1_564
Ga0 Os4 2.765710 1_554
Ga0 Os5 2.765717 1_454
Ga0 Os3 2.780474 1_455
Ga0 Ga7 2.830139 1_554
Ga0 Ga9 2.842742 1_455
Ga0 Ga10 2.842747 1_555
Ga0 Ta0 3.019100 1_455
Ga0 Ta3 3.030877 1_454
Ga0 Ta2 3.030877 1_554
Ga0 Zr1 3.057111 1_555
Ga0 Zr0 3.057119 1_455
Ga0 Zr5 3.075054 1_554
Ga1 Os0 2.627524 1_654
Ga1 Os4 2.765710 1_554
Ga1 Os6 2.765717 1_544
Ga1 Os2 2.780474 1_545
Ga1 Ga7 2.830139 1_554
Ga1 Ga8 2.842742 1_545
Ga1 Ga10 2.842747 1_555
Ga1 Ta0 3.019099 1_545
Ga1 Ta1 3.030877 1_554
Ga1 Ta3 3.030877 1_544
Ga1 Zr2 3.057111 1_555
Ga1 Zr0 3.057119 1_545
Ga1 Zr4 3.075054 1_554
Ga2 Os0 2.627524 1_554
Ga2 Os6 2.765709 1_544
Ga2 Os5 2.765709 1_454
Ga2 Os1 2.780474 1_445
Ga2 Ga7 2.830132 1_554
Ga2 Ga8 2.842749 1_545
Ga2 Ga9 2.842749 1_455
Ga2 Ta0 3.019100 1_445
Ga2 Ta1 3.030877 1_454
Ga2 Ta2 3.030877 1_544
Ga2 Zr2 3.057117 1_455
Ga2 Zr1 3.057117 1_545
Ga2 Zr3 3.075053 1_554
Ga3 Os5 2.540590 1_554
Ga3 Os6 2.540590 1_554
Ga3 Os4 2.540591 1_554
Ga3 Ta2 2.810462 1_554
Ga3 Ta1 2.810462 1_554
Ga3 Ta3 2.810469 1_554
Ga3 Zr1 2.816166 1_555
Ga3 Zr2 2.816166 1_555
Ga3 Zr0 2.816166 1_555
Ga4 Os1 2.541332 1_545
Ga4 Os2 2.541340 1_545
Ga4 Os6 2.550878 1_545
Ga4 Zr2 2.777344 1_555
Ga4 Zr4 2.811707 1_555
Ga4 Zr3 2.811712 1_555
Ga4 Ta3 2.820748 1_545
Ga4 Ta2 2.820755 1_545
Ga4 Ta0 2.820901 1_545
Ga5 Os1 2.541332 1_455
Ga5 Os3 2.541340 1_455
Ga5 Os5 2.550878 1_455
Ga5 Zr1 2.777344 1_555
Ga5 Zr5 2.811707 1_555
Ga5 Zr3 2.811712 1_555
Ga5 Ta3 2.820748 1_455
Ga5 Ta1 2.820755 1_455
Ga5 Ta0 2.820901 1_455
Ga6 Os3 2.541334 1_555
Ga6 Os2 2.541334 1_555
Ga6 Os4 2.550882 1_555
Ga6 Zr0 2.777350 1_555
Ga6 Zr5 2.811715 1_555
Ga6 Zr4 2.811716 1_555
Ga6 Ta1 2.820749 1_555
Ga6 Ta2 2.820749 1_555
Ga6 Ta0 2.820896 1_555
Ga7 Os5 2.587527 1_455
Ga7 Os6 2.587527 1_545
Ga7 Os4 2.587527 1_555
Ga7 Zr3 2.825592 1_555
Ga7 Zr4 2.825597 1_555
Ga7 Zr5 2.825597 1_555
Ga8 Os6 2.537384 1_554
Ga8 Os2 2.584578 1_555
Ga8 Os1 2.584585 1_455
Ga8 Ta4 2.749297 1_565
Ga8 Zr0 2.870633 1_555
Ga8 Zr1 2.870645 1_555
Ga8 Zr5 2.930200 1_555
Ga9 Os5 2.537384 1_554
Ga9 Os3 2.584578 1_555
Ga9 Os1 2.584585 1_545
Ga9 Ta4 2.749297 1_655
Ga9 Zr0 2.870633 1_555
Ga9 Zr2 2.870644 1_555
Ga9 Zr4 2.930200 1_555
Ga10 Os4 2.537379 1_554
Ga10 Os3 2.584583 1_455
Ga10 Os2 2.584583 1_545
Ga10 Ta4 2.749302 1_555
Ga10 Zr2 2.870627 1_555
Ga10 Zr1 2.870627 1_555
Ga10 Zr3 2.930197 1_555
Os0 Ta4 2.618441 1_555
Os0 Ta2 2.652149 1_545
Os0 Ta1 2.652149 1_455
Os0 Ta3 2.652149 1_445
Os0 Ta0 2.741955 1_446
Os1 Ta4 2.679382 1_665
Os1 Ta3 2.682790 1_555
Os1 Ta0 2.749943 1_555
Os1 Zr2 3.180249 1_565
Os1 Zr1 3.180249 1_655
Os1 Zr5 3.232714 1_655
Os1 Zr4 3.232714 1_565
Os2 Ta4 2.679381 1_565
Os2 Ta2 2.682790 1_555
Os2 Ta0 2.749943 1_555
Os2 Zr2 3.180243 1_565
Os2 Zr0 3.180250 1_555
Os2 Zr5 3.232714 1_555
Os2 Zr3 3.232714 1_565
Os3 Ta4 2.679381 1_655
Os3 Ta1 2.682790 1_555
Os3 Ta0 2.749943 1_555
Os3 Zr1 3.180243 1_655
Os3 Zr0 3.180250 1_555
Os3 Zr3 3.232714 1_655
Os3 Zr4 3.232714 1_555
Os4 Ta1 2.689023 1_555
Os4 Ta2 2.689023 1_555
Os4 Zr5 3.158584 1_555
Os4 Zr4 3.158584 1_555
Os4 Zr2 3.181749 1_556
Os4 Zr1 3.181749 1_556
Os5 Ta1 2.689016 1_555
Os5 Ta3 2.689024 1_555
Os5 Zr3 3.158585 1_655
Os5 Zr5 3.158590 1_655
Os5 Zr2 3.181749 1_556
Os5 Zr0 3.181749 1_556
Os6 Ta2 2.689016 1_555
Os6 Ta3 2.689023 1_555
Os6 Zr3 3.158585 1_565
Os6 Zr4 3.158590 1_565
Os6 Zr0 3.181749 1_556
Os6 Zr1 3.181749 1_556
