# generated using pymatgen
data_Na2Nb5TcS12
_symmetry_space_group_name_H-M   'P 1'
_cell_length_a   5.77196330
_cell_length_b   5.77196302
_cell_length_c   14.68431850
_cell_angle_alpha   90.00000000
_cell_angle_beta   90.00000000
_cell_angle_gamma   120.00000736
_symmetry_Int_Tables_number   1
_chemical_formula_structural   Na2Nb5TcS12
_chemical_formula_sum   'Na2 Nb5 Tc1 S12'
_cell_volume   423.67369128
_cell_formula_units_Z   1
loop_
 _symmetry_equiv_pos_site_id
 _symmetry_equiv_pos_as_xyz
  1  'x, y, z'
loop_
 _atom_site_type_symbol
 _atom_site_label
 _atom_site_symmetry_multiplicity
 _atom_site_fract_x
 _atom_site_fract_y
 _atom_site_fract_z
 _atom_site_occupancy
  Na  Na0  1  0.33333300  0.66666700  0.25097350  1
  Na  Na1  1  0.66666700  0.33333300  0.75102041  1
  Nb  Nb0  1  0.00000000  0.00000000  0.99937681  1
  Nb  Nb1  1  0.66666700  0.33333300  0.99985512  1
  Nb  Nb2  1  0.33333300  0.66666700  0.50087455  1
  Nb  Nb3  1  0.00000000  0.00000000  0.50054950  1
  Nb  Nb4  1  0.66666700  0.33333300  0.49991342  1
  Tc  Tc0  1  0.33333300  0.66666700  0.99885312  1
  S  S0  1  0.66821490  0.66716118  0.39367813  1
  S  S1  1  0.66695349  0.66785214  0.60713835  1
  S  S2  1  0.01007746  0.66775051  0.89492698  1
  S  S3  1  0.65767305  0.98992254  0.89492698  1
  S  S4  1  0.65802420  0.99077460  0.10378406  1
  S  S5  1  0.33283882  0.00105472  0.39367813  1
  S  S6  1  0.00089765  0.33304651  0.60713835  1
  S  S7  1  0.33214786  0.99910235  0.60713835  1
  S  S8  1  0.00922540  0.66724960  0.10378406  1
  S  S9  1  0.33224949  0.34232695  0.89492698  1
  S  S10  1  0.99894528  0.33178510  0.39367813  1
  S  S11  1  0.33275040  0.34197580  0.10378406  1
loop_
_geom_bond_atom_site_label_1
_geom_bond_atom_site_label_2
_geom_bond_distance
_geom_bond_site_symmetry_2
Na0 S10 2.849895 1_455
Na0 S5 2.849895 1_565
Na0 S0 2.849895 1_555
Na0 S8 2.859634 1_555
Na0 S4 2.859636 1_555
Na0 S11 2.859638 1_555
Na1 S6 2.861616 1_655
Na1 S7 2.861619 1_545
Na1 S1 2.861623 1_555
Na1 S3 2.879967 1_545
Na1 S2 2.879969 1_655
Na1 S9 2.879971 1_555
Nb0 S11 2.478799 1_556
Nb0 S8 2.478799 1_546
Nb0 S4 2.478799 1_446
Nb0 S9 2.478929 1_555
Nb0 S2 2.478929 1_545
Nb0 S3 2.478929 1_445
Nb1 S4 2.478380 1_546
Nb1 S8 2.478382 1_656
Nb1 S11 2.478385 1_556
Nb1 S3 2.490539 1_545
Nb1 S2 2.490541 1_655
Nb1 S9 2.490543 1_555
Nb2 S6 2.475857 1_555
Nb2 S7 2.475857 1_555
Nb2 S1 2.475857 1_555
Nb2 S10 2.491688 1_455
Nb2 S5 2.491688 1_565
Nb2 S0 2.491688 1_555
Nb3 S7 2.476935 1_545
Nb3 S1 2.476937 1_445
Nb3 S6 2.476940 1_555
Nb3 S5 2.478286 1_555
Nb3 S0 2.478288 1_445
Nb3 S10 2.478291 1_455
Nb4 S10 2.475707 1_555
Nb4 S5 2.475711 1_555
Nb4 S0 2.475716 1_555
Nb4 S6 2.490784 1_655
Nb4 S7 2.490789 1_545
Nb4 S1 2.490793 1_555
S2 Tc0 2.412866 1_555
S3 Tc0 2.412868 1_555
S4 Tc0 2.424903 1_554
S8 Tc0 2.424901 1_554
S9 Tc0 2.412871 1_555
S11 Tc0 2.424905 1_554
