# generated using pymatgen
data_Cs3SbTe3
_symmetry_space_group_name_H-M   'P 1'
_cell_length_a   11.53712112
_cell_length_b   11.53712190
_cell_length_c   10.71192389
_cell_angle_alpha   81.02426227
_cell_angle_beta   81.02426323
_cell_angle_gamma   77.72212284
_symmetry_Int_Tables_number   1
_chemical_formula_structural   Cs3SbTe3
_chemical_formula_sum   'Cs12 Sb4 Te12'
_cell_volume   1364.94939143
_cell_formula_units_Z   4
loop_
 _symmetry_equiv_pos_site_id
 _symmetry_equiv_pos_as_xyz
  1  'x, y, z'
loop_
 _atom_site_type_symbol
 _atom_site_label
 _atom_site_symmetry_multiplicity
 _atom_site_fract_x
 _atom_site_fract_y
 _atom_site_fract_z
 _atom_site_occupancy
  Cs  Cs0  1  0.60207242  0.39792758  0.25000000  1
  Cs  Cs1  1  0.39792758  0.60207242  0.75000000  1
  Cs  Cs2  1  0.92035904  0.07964096  0.25000000  1
  Cs  Cs3  1  0.07964096  0.92035904  0.75000000  1
  Cs  Cs4  1  0.79093405  0.40195795  0.85001677  1
  Cs  Cs5  1  0.59804205  0.20906595  0.64998323  1
  Cs  Cs6  1  0.20906595  0.59804205  0.14998323  1
  Cs  Cs7  1  0.40195795  0.79093405  0.35001677  1
  Cs  Cs8  1  0.75080398  0.80441142  0.67982992  1
  Cs  Cs9  1  0.19558858  0.24919602  0.82017008  1
  Cs  Cs10  1  0.24919602  0.19558858  0.32017008  1
  Cs  Cs11  1  0.80441142  0.75080398  0.17982992  1
  Sb  Sb0  1  0.92485629  0.43780959  0.41669810  1
  Sb  Sb1  1  0.56219041  0.07514371  0.08330190  1
  Sb  Sb2  1  0.07514371  0.56219041  0.58330190  1
  Sb  Sb3  1  0.43780959  0.92485629  0.91669810  1
  Te  Te0  1  0.05941197  0.59236601  0.84206826  1
  Te  Te1  1  0.40763399  0.94058803  0.65793174  1
  Te  Te2  1  0.94058803  0.40763399  0.15793174  1
  Te  Te3  1  0.59236601  0.05941197  0.34206826  1
  Te  Te4  1  0.05205327  0.78668620  0.43867793  1
  Te  Te5  1  0.21331380  0.94794673  0.06132207  1
  Te  Te6  1  0.94794673  0.21331380  0.56132207  1
  Te  Te7  1  0.78668620  0.05205327  0.93867793  1
  Te  Te8  1  0.68904224  0.54597680  0.50555501  1
  Te  Te9  1  0.45402320  0.31095776  0.99444499  1
  Te  Te10  1  0.31095776  0.45402320  0.49444499  1
  Te  Te11  1  0.54597680  0.68904224  0.00555501  1
loop_
_geom_bond_atom_site_label_1
_geom_bond_atom_site_label_2
_geom_bond_distance
_geom_bond_site_symmetry_2
Cs0 Te9 3.803032 1_554
Cs0 Te8 3.803033 1_555
Cs0 Te2 3.897149 1_555
Cs0 Te3 3.897149 1_555
Cs0 Te10 3.926293 1_555
Cs0 Te11 3.926293 1_555
Cs1 Te11 3.803032 1_556
Cs1 Te10 3.803033 1_555
Cs1 Te0 3.897149 1_555
Cs1 Te1 3.897149 1_555
Cs1 Te8 3.926293 1_555
Cs1 Te9 3.926293 1_555
Cs2 Te5 3.802552 1_645
Cs2 Te4 3.802552 1_645
Cs2 Te3 3.806019 1_555
Cs2 Te2 3.806019 1_555
Cs2 Te7 3.968087 1_554
Cs2 Te6 3.968087 1_555
Cs3 Te7 3.802552 1_465
Cs3 Te6 3.802552 1_465
Cs3 Te1 3.806019 1_555
Cs3 Te0 3.806019 1_555
Cs3 Te5 3.968087 1_556
Cs3 Te4 3.968087 1_555
Cs4 Te2 3.969510 1_556
Cs4 Te7 4.009264 1_555
Cs4 Te6 4.031994 1_555
Cs4 Te8 4.045659 1_555
Cs4 Te0 4.144945 1_655
Cs4 Te9 4.237543 1_555
Cs4 Te11 4.243183 1_556
Cs5 Te3 3.969510 1_555
Cs5 Te6 4.009263 1_555
Cs5 Te7 4.031994 1_555
Cs5 Te9 4.045659 1_555
Cs5 Te1 4.144946 1_545
Cs5 Te8 4.237543 1_555
Cs5 Te10 4.243183 1_555
Cs6 Te0 3.969510 1_554
Cs6 Te5 4.009264 1_555
Cs6 Te4 4.031994 1_555
Cs6 Te10 4.045659 1_555
Cs6 Te2 4.144945 1_455
Cs6 Te11 4.237543 1_555
Cs6 Te9 4.243183 1_554
Cs7 Te1 3.969510 1_555
Cs7 Te4 4.009263 1_555
Cs7 Te5 4.031994 1_555
Cs7 Te11 4.045659 1_555
Cs7 Te3 4.144946 1_565
Cs7 Te10 4.237543 1_555
Cs7 Te8 4.243183 1_555
Cs8 Te1 3.965834 1_555
Cs8 Te4 3.981872 1_655
Cs8 Te8 3.992253 1_555
Cs8 Te11 4.104376 1_556
Cs8 Sb3 4.185177 1_555
Cs8 Sb2 4.257657 1_655
Cs8 Te0 4.310623 1_655
Cs8 Te7 4.399497 1_565
Cs9 Te0 3.965834 1_555
Cs9 Te5 3.981872 1_546
Cs9 Te9 3.992253 1_555
Cs9 Te10 4.104376 1_555
Cs9 Sb2 4.185177 1_555
Cs9 Sb3 4.257657 1_545
Cs9 Te1 4.310623 1_545
Cs9 Te6 4.399496 1_455
Cs10 Te3 3.965834 1_555
Cs10 Te6 3.981872 1_455
Cs10 Te10 3.992253 1_555
Cs10 Te9 4.104376 1_554
Cs10 Sb1 4.185177 1_555
Cs10 Sb0 4.257657 1_455
Cs10 Te2 4.310623 1_455
Cs10 Te5 4.399497 1_545
Cs11 Te2 3.965834 1_555
Cs11 Te7 3.981872 1_564
Cs11 Te11 3.992253 1_555
Cs11 Te8 4.104376 1_555
Cs11 Sb0 4.185177 1_555
Cs11 Sb1 4.257657 1_565
Cs11 Te3 4.310623 1_565
Cs11 Te4 4.399496 1_655
Sb0 Te6 2.786139 1_555
Sb0 Te2 2.820417 1_555
Sb0 Te8 2.825545 1_555
Sb1 Te7 2.786139 1_554
Sb1 Te3 2.820417 1_555
Sb1 Te9 2.825545 1_554
Sb2 Te4 2.786139 1_555
Sb2 Te0 2.820417 1_555
Sb2 Te10 2.825545 1_555
Sb3 Te5 2.786139 1_556
Sb3 Te1 2.820417 1_555
Sb3 Te11 2.825545 1_556
