# generated using pymatgen
data_Hf4Sc4IrRu7
_symmetry_space_group_name_H-M   'P 1'
_cell_length_a   6.42360113
_cell_length_b   4.53903267
_cell_length_c   9.08326847
_cell_angle_alpha   90.00000000
_cell_angle_beta   90.00011735
_cell_angle_gamma   90.00000000
_symmetry_Int_Tables_number   1
_chemical_formula_structural   Hf4Sc4IrRu7
_chemical_formula_sum   'Hf4 Sc4 Ir1 Ru7'
_cell_volume   264.84027187
_cell_formula_units_Z   1
loop_
 _symmetry_equiv_pos_site_id
 _symmetry_equiv_pos_as_xyz
  1  'x, y, z'
loop_
 _atom_site_type_symbol
 _atom_site_label
 _atom_site_symmetry_multiplicity
 _atom_site_fract_x
 _atom_site_fract_y
 _atom_site_fract_z
 _atom_site_occupancy
  Hf  Hf0  1  0.75316677  0.25000000  0.12501775  1
  Hf  Hf1  1  0.24846907  0.75000000  0.37698440  1
  Hf  Hf2  1  0.74999855  0.25000000  0.62503166  1
  Hf  Hf3  1  0.24843024  0.75000000  0.87298451  1
  Sc  Sc0  1  0.24863890  0.25000000  0.12498811  1
  Sc  Sc1  1  0.75053768  0.75000000  0.37657366  1
  Sc  Sc2  1  0.25028407  0.25000000  0.62500115  1
  Sc  Sc3  1  0.75048994  0.75000000  0.87345461  1
  Ir  Ir0  1  0.50014240  0.75000000  0.12499242  1
  Ru  Ru0  1  0.00025802  0.75000000  0.12497002  1
  Ru  Ru1  1  0.50002844  0.25000000  0.37415473  1
  Ru  Ru2  1  0.00001049  0.25000000  0.37456943  1
  Ru  Ru3  1  0.99972386  0.75000000  0.62498969  1
  Ru  Ru4  1  0.49983955  0.75000000  0.62498827  1
  Ru  Ru5  1  0.99998504  0.25000000  0.87544794  1
  Ru  Ru6  1  0.49999997  0.25000000  0.87585365  1
loop_
_geom_bond_atom_site_label_1
_geom_bond_atom_site_label_2
_geom_bond_distance
_geom_bond_site_symmetry_2
Hf0 Ru2 2.766284 1_655
Hf0 Ru5 2.766330 1_554
Hf0 Ru0 2.769469 1_645
Hf0 Ru0 2.769469 1_655
Hf0 Ru1 2.786603 1_555
Hf0 Ru6 2.786904 1_554
Hf0 Ir0 2.791486 1_555
Hf0 Ir0 2.791486 1_545
Hf1 Ru3 2.761840 1_455
Hf1 Ru4 2.771614 1_555
Hf1 Ru2 2.774599 1_555
Hf1 Ru2 2.774599 1_565
Hf1 Ru1 2.786136 1_565
Hf1 Ru1 2.786136 1_555
Hf1 Ru0 2.789654 1_555
Hf1 Ir0 2.802264 1_555
Hf2 Ru3 2.779201 1_555
Hf2 Ru3 2.779201 1_545
Hf2 Ru4 2.780810 1_545
Hf2 Ru4 2.780810 1_555
Hf2 Ru5 2.784317 1_555
Hf2 Ru2 2.784757 1_655
Hf2 Ru6 2.787378 1_555
Hf2 Ru1 2.787675 1_555
Hf3 Ru3 2.761613 1_455
Hf3 Ru4 2.771709 1_555
Hf3 Ru5 2.774553 1_465
Hf3 Ru5 2.774553 1_455
Hf3 Ru6 2.786178 1_565
Hf3 Ru6 2.786178 1_555
Hf3 Ru0 2.789301 1_556
Hf3 Ir0 2.802520 1_556
Ir0 Sc0 2.785809 1_555
Ir0 Sc0 2.785809 1_565
Ir0 Sc3 2.793985 1_554
Ir0 Sc1 2.794478 1_555
Ru0 Sc0 2.774225 1_555
Ru0 Sc0 2.774225 1_565
Ru0 Sc3 2.791672 1_454
Ru0 Sc1 2.792157 1_455
Ru1 Sc0 2.780276 1_555
Ru1 Sc1 2.782197 1_555
Ru1 Sc1 2.782197 1_545
Ru1 Sc2 2.786619 1_555
Ru2 Sc0 2.773096 1_555
Ru2 Sc1 2.778324 1_455
Ru2 Sc1 2.778324 1_445
Ru2 Sc2 2.785495 1_555
Ru3 Sc1 2.766516 1_555
Ru3 Sc3 2.767061 1_555
Ru3 Sc2 2.782300 1_665
Ru3 Sc2 2.782300 1_655
Ru4 Sc1 2.772142 1_555
Ru4 Sc3 2.772341 1_555
Ru4 Sc2 2.778571 1_565
Ru4 Sc2 2.778571 1_555
Ru5 Sc0 2.772880 1_656
Ru5 Sc3 2.778406 1_555
Ru5 Sc3 2.778406 1_545
Ru5 Sc2 2.785707 1_655
Ru6 Sc0 2.779938 1_556
Ru6 Sc3 2.782124 1_555
Ru6 Sc3 2.782124 1_545
Ru6 Sc2 2.786554 1_555
