# generated using pymatgen
data_NaHfScSe4
_symmetry_space_group_name_H-M   'P 1'
_cell_length_a   3.85081598
_cell_length_b   6.65366633
_cell_length_c   7.42684957
_cell_angle_alpha   71.86379992
_cell_angle_beta   90.00000000
_cell_angle_gamma   90.00000000
_symmetry_Int_Tables_number   1
_chemical_formula_structural   NaHfScSe4
_chemical_formula_sum   'Na1 Hf1 Sc1 Se4'
_cell_volume   180.83726891
_cell_formula_units_Z   1
loop_
 _symmetry_equiv_pos_site_id
 _symmetry_equiv_pos_as_xyz
  1  'x, y, z'
loop_
 _atom_site_type_symbol
 _atom_site_label
 _atom_site_symmetry_multiplicity
 _atom_site_fract_x
 _atom_site_fract_y
 _atom_site_fract_z
 _atom_site_occupancy
  Na  Na0  1  0.00000000  0.50000000  0.50000000  1
  Hf  Hf0  1  0.50000000  0.50000000  0.00000000  1
  Sc  Sc0  1  0.00000000  0.00000000  0.00000000  1
  Se  Se0  1  0.50000000  0.75497404  0.21618821  1
  Se  Se1  1  0.00000000  0.26103431  0.21612125  1
  Se  Se2  1  0.50000000  0.24502596  0.78381179  1
  Se  Se3  1  0.00000000  0.73896569  0.78387875  1
loop_
_geom_bond_atom_site_label_1
_geom_bond_atom_site_label_2
_geom_bond_distance
_geom_bond_site_symmetry_2
Na0 Se2 2.966827 1_455
Na0 Se2 2.966827 1_555
Na0 Se0 2.966827 1_455
Na0 Se0 2.966827 1_555
Na0 Se3 3.009995 1_555
Na0 Se1 3.009995 1_555
Hf0 Se0 2.674300 1_555
Hf0 Se2 2.674300 1_554
Hf0 Se1 2.687529 1_555
Hf0 Se1 2.687529 1_655
Hf0 Se3 2.687529 1_654
Hf0 Se3 2.687529 1_554
Sc0 Se0 2.704342 1_445
Sc0 Se0 2.704342 1_545
Sc0 Se2 2.704342 1_454
Sc0 Se2 2.704342 1_554
Sc0 Se1 2.707119 1_555
Sc0 Se3 2.707119 1_544
