# generated using pymatgen
data_Ba3Sr(BeP)8
_symmetry_space_group_name_H-M   'P 1'
_cell_length_a   6.93627978
_cell_length_b   8.36994766
_cell_length_c   7.48205386
_cell_angle_alpha   63.39613800
_cell_angle_beta   74.34501216
_cell_angle_gamma   96.84135224
_symmetry_Int_Tables_number   1
_chemical_formula_structural   Ba3Sr(BeP)8
_chemical_formula_sum   'Ba3 Sr1 Be8 P8'
_cell_volume   359.16266020
_cell_formula_units_Z   1
loop_
 _symmetry_equiv_pos_site_id
 _symmetry_equiv_pos_as_xyz
  1  'x, y, z'
loop_
 _atom_site_type_symbol
 _atom_site_label
 _atom_site_symmetry_multiplicity
 _atom_site_fract_x
 _atom_site_fract_y
 _atom_site_fract_z
 _atom_site_occupancy
  Ba  Ba0  1  0.00021458  0.49819754  0.75078613  1
  Ba  Ba1  1  0.00000000  0.00000000  0.50000000  1
  Ba  Ba2  1  0.99978542  0.50180246  0.24921387  1
  Sr  Sr0  1  0.00000000  0.00000000  0.00000000  1
  Be  Be0  1  0.49645994  0.62440552  0.31388118  1
  Be  Be1  1  0.49783593  0.62601172  0.81362678  1
  Be  Be2  1  0.50150486  0.12522812  0.05990211  1
  Be  Be3  1  0.50399693  0.12320072  0.56368734  1
  Be  Be4  1  0.50354006  0.37559448  0.68611882  1
  Be  Be5  1  0.50216407  0.37398828  0.18637322  1
  Be  Be6  1  0.49600307  0.87679928  0.43631266  1
  Be  Be7  1  0.49849514  0.87477188  0.94009789  1
  P  P0  1  0.30944830  0.32315910  0.51307688  1
  P  P1  1  0.30888233  0.32604456  0.00745643  1
  P  P2  1  0.30319813  0.82876901  0.25763280  1
  P  P3  1  0.30536293  0.82918166  0.76168258  1
  P  P4  1  0.69055170  0.67684090  0.48692312  1
  P  P5  1  0.69111767  0.67395544  0.99254357  1
  P  P6  1  0.69463707  0.17081834  0.23831742  1
  P  P7  1  0.69680187  0.17123099  0.74236720  1
loop_
_geom_bond_atom_site_label_1
_geom_bond_atom_site_label_2
_geom_bond_distance
_geom_bond_site_symmetry_2
Ba0 P7 3.282742 1_455
Ba0 P6 3.286091 1_456
Ba0 P1 3.289947 1_556
Ba0 P0 3.306656 1_555
Ba0 P2 3.312519 1_555
Ba0 P3 3.325620 1_555
Ba0 P5 3.327814 1_455
Ba0 P4 3.340157 1_455
Ba1 P7 3.279172 1_455
Ba1 P2 3.279172 1_545
Ba1 P3 3.288813 1_545
Ba1 P6 3.288813 1_455
Ba1 P0 3.301512 1_555
Ba1 P4 3.301512 1_445
Ba1 P1 3.310148 1_555
Ba1 P5 3.310148 1_445
Ba2 P2 3.282742 1_655
Ba2 P3 3.286091 1_654
Ba2 P5 3.289947 1_554
Ba2 P4 3.306656 1_555
Ba2 P7 3.312519 1_555
Ba2 P6 3.325620 1_555
Ba2 P1 3.327814 1_655
Ba2 P0 3.340157 1_655
Be0 P4 2.233875 1_555
Be0 P5 2.235421 1_554
Be0 P0 2.252364 1_555
Be0 P2 2.259637 1_555
Be1 P1 2.248048 1_556
Be1 P3 2.248141 1_555
Be1 P5 2.252097 1_555
Be1 P4 2.261120 1_555
Be2 P7 2.224250 1_554
Be2 P1 2.234169 1_555
Be2 P6 2.240922 1_555
Be2 P2 2.244674 1_545
Be3 P3 2.230361 1_545
Be3 P0 2.238680 1_555
Be3 P7 2.248460 1_555
Be3 P6 2.258760 1_555
Be4 P0 2.233875 1_555
Be4 P1 2.235421 1_556
Be4 P4 2.252364 1_555
Be4 P7 2.259637 1_555
Be5 P5 2.248048 1_554
Be5 P6 2.248141 1_555
Be5 P1 2.252097 1_555
Be5 P0 2.261120 1_555
Be6 P6 2.230361 1_565
Be6 P4 2.238680 1_555
Be6 P2 2.248460 1_555
Be6 P3 2.258760 1_555
Be7 P2 2.224250 1_556
Be7 P5 2.234169 1_555
Be7 P3 2.240922 1_555
Be7 P7 2.244674 1_565
P0 Sr0 3.281280 1_556
P1 Sr0 3.293724 1_555
P2 Sr0 3.259487 1_565
P3 Sr0 3.267477 1_566
P4 Sr0 3.281280 1_665
P5 Sr0 3.293724 1_666
P6 Sr0 3.267477 1_655
P7 Sr0 3.259487 1_656
