# generated using pymatgen
data_AlCd3P7N12
_symmetry_space_group_name_H-M   'P 1'
_cell_length_a   7.20928408
_cell_length_b   7.26176524
_cell_length_c   7.26176539
_cell_angle_alpha   109.61714615
_cell_angle_beta   109.32488529
_cell_angle_gamma   109.32489984
_symmetry_Int_Tables_number   1
_chemical_formula_structural   AlCd3P7N12
_chemical_formula_sum   'Al1 Cd3 P7 N12'
_cell_volume   293.18098290
_cell_formula_units_Z   1
loop_
 _symmetry_equiv_pos_site_id
 _symmetry_equiv_pos_as_xyz
  1  'x, y, z'
loop_
 _atom_site_type_symbol
 _atom_site_label
 _atom_site_symmetry_multiplicity
 _atom_site_fract_x
 _atom_site_fract_y
 _atom_site_fract_z
 _atom_site_occupancy
  Al  Al0  1  0.62104226  1.00000000  1.00000000  1
  Cd  Cd0  1  0.00249656  0.00000000  0.69065757  1
  Cd  Cd1  1  0.00249656  0.69065757  0.00000000  1
  Cd  Cd2  1  0.31183899  0.30934243  0.30934243  1
  P  P0  1  0.25727876  0.74845133  0.50293613  1
  P  P1  1  0.75434263  0.24551520  0.49706387  1
  P  P2  1  0.75434263  0.49706387  0.24551520  1
  P  P3  1  0.25727876  0.50293613  0.74845133  1
  P  P4  1  0.50882743  0.75448480  0.25154867  1
  P  P5  1  0.50882743  0.25154867  0.75448480  1
  P  P6  1  0.94313813  1.00000000  1.00000000  1
  N  N0  1  0.70081599  0.26380659  0.26380659  1
  N  N1  1  0.29424255  0.72594317  0.29029635  1
  N  N2  1  0.30817260  0.57711850  0.57711850  1
  N  N3  1  0.56829939  0.56435318  0.27405683  1
  N  N4  1  0.43701040  0.73619341  0.00000000  1
  N  N5  1  0.00394620  0.70970365  0.43564682  1
  N  N6  1  0.56829939  0.27405683  0.56435318  1
  N  N7  1  0.73105310  1.00000000  0.42288150  1
  N  N8  1  0.43701040  0.00000000  0.73619341  1
  N  N9  1  0.73105310  0.42288150  1.00000000  1
  N  N10  1  0.29424255  0.29029635  0.72594317  1
  N  N11  1  0.00394620  0.43564682  0.70970365  1
loop_
_geom_bond_atom_site_label_1
_geom_bond_atom_site_label_2
_geom_bond_distance
_geom_bond_site_symmetry_2
Al0 N4 1.935967 1_556
Al0 N8 1.935967 1_565
Al0 N0 1.935970 1_566
Al0 P6 2.322081 1_555
Cd0 N7 2.256586 1_445
Cd0 N10 2.297704 1_555
Cd0 N5 2.297705 1_545
Cd0 P6 2.421889 1_445
Cd1 N9 2.256586 1_454
Cd1 N1 2.297704 1_555
Cd1 N11 2.297705 1_554
Cd1 P6 2.421889 1_454
Cd2 N2 2.256582 1_555
Cd2 N3 2.297704 1_555
Cd2 N6 2.297704 1_555
Cd2 P6 2.421889 1_444
N0 P2 1.669761 1_555
N0 P1 1.669761 1_555
N1 P0 1.616724 1_555
N1 P4 1.621849 1_555
N2 P3 1.610637 1_555
N2 P0 1.610637 1_555
N3 P4 1.616724 1_555
N3 P2 1.621849 1_555
N4 P4 1.669761 1_555
N4 P3 1.669761 1_554
N5 P2 1.616724 1_455
N5 P0 1.621849 1_555
N6 P5 1.616724 1_555
N6 P1 1.621849 1_555
N7 P4 1.610634 1_555
N7 P1 1.610635 1_565
N8 P5 1.669761 1_555
N8 P0 1.669761 1_545
N9 P5 1.610635 1_555
N9 P2 1.610635 1_556
N10 P3 1.616724 1_555
N10 P5 1.621849 1_555
N11 P1 1.616724 1_455
N11 P3 1.621849 1_555
