# generated using pymatgen
data_RbHfRhSe4
_symmetry_space_group_name_H-M   'P 1'
_cell_length_a   6.27760934
_cell_length_b   7.54953139
_cell_length_c   16.72690037
_cell_angle_alpha   90.00000000
_cell_angle_beta   90.00000000
_cell_angle_gamma   90.00000000
_symmetry_Int_Tables_number   1
_chemical_formula_structural   RbHfRhSe4
_chemical_formula_sum   'Rb4 Hf4 Rh4 Se16'
_cell_volume   792.73813611
_cell_formula_units_Z   4
loop_
 _symmetry_equiv_pos_site_id
 _symmetry_equiv_pos_as_xyz
  1  'x, y, z'
loop_
 _atom_site_type_symbol
 _atom_site_label
 _atom_site_symmetry_multiplicity
 _atom_site_fract_x
 _atom_site_fract_y
 _atom_site_fract_z
 _atom_site_occupancy
  Rb  Rb0  1  0.37680190  0.00000000  0.00000000  1
  Rb  Rb1  1  0.62319810  0.50000000  0.50000000  1
  Rb  Rb2  1  0.02442362  0.00000000  0.50000000  1
  Rb  Rb3  1  0.97557638  0.50000000  0.00000000  1
  Hf  Hf0  1  0.04570498  0.00000000  0.24718361  1
  Hf  Hf1  1  0.04570498  0.00000000  0.75281639  1
  Hf  Hf2  1  0.95429502  0.50000000  0.25281639  1
  Hf  Hf3  1  0.95429502  0.50000000  0.74718361  1
  Rh  Rh0  1  0.50000000  0.25000000  0.25000000  1
  Rh  Rh1  1  0.50000000  0.75000000  0.75000000  1
  Rh  Rh2  1  0.50000000  0.75000000  0.25000000  1
  Rh  Rh3  1  0.50000000  0.25000000  0.75000000  1
  Se  Se0  1  0.82552494  0.24207908  0.34142024  1
  Se  Se1  1  0.82552494  0.75792092  0.65857976  1
  Se  Se2  1  0.17447506  0.74207908  0.15857976  1
  Se  Se3  1  0.17447506  0.25792092  0.84142024  1
  Se  Se4  1  0.17447506  0.25792092  0.15857976  1
  Se  Se5  1  0.17447506  0.74207908  0.84142024  1
  Se  Se6  1  0.82552494  0.75792092  0.34142024  1
  Se  Se7  1  0.82552494  0.24207908  0.65857976  1
  Se  Se8  1  0.66686129  0.00000000  0.17051851  1
  Se  Se9  1  0.66686129  0.00000000  0.82948149  1
  Se  Se10  1  0.33313871  0.50000000  0.32948149  1
  Se  Se11  1  0.33313871  0.50000000  0.67051851  1
  Se  Se12  1  0.37247987  0.00000000  0.34118984  1
  Se  Se13  1  0.37247987  0.00000000  0.65881016  1
  Se  Se14  1  0.62752013  0.50000000  0.15881016  1
  Se  Se15  1  0.62752013  0.50000000  0.84118984  1
loop_
_geom_bond_atom_site_label_1
_geom_bond_atom_site_label_2
_geom_bond_distance
_geom_bond_site_symmetry_2
Rb0 Se8 3.383919 1_555
Rb0 Se9 3.383919 1_554
Rb0 Se4 3.527146 1_555
Rb0 Se2 3.527146 1_545
Rb0 Se3 3.527146 1_554
Rb0 Se5 3.527146 1_544
Rb1 Se11 3.383919 1_555
Rb1 Se10 3.383919 1_555
Rb1 Se1 3.527146 1_555
Rb1 Se7 3.527146 1_555
Rb1 Se6 3.527146 1_555
Rb1 Se0 3.527146 1_555
Rb2 Se13 3.439553 1_555
Rb2 Se12 3.439553 1_555
Rb2 Se7 3.454721 1_455
Rb2 Se1 3.454721 1_445
Rb2 Se0 3.454721 1_455
Rb2 Se6 3.454721 1_445
Rb3 Se14 3.439553 1_555
Rb3 Se15 3.439553 1_554
Rb3 Se2 3.454721 1_655
Rb3 Se4 3.454721 1_655
Rb3 Se5 3.454721 1_654
Rb3 Se3 3.454721 1_654
Hf0 Se4 2.577111 1_555
Hf0 Se2 2.577111 1_545
Hf0 Se12 2.584694 1_555
Hf0 Se8 2.701937 1_455
Hf0 Se0 2.781228 1_455
Hf0 Se6 2.781228 1_445
Hf1 Se3 2.577111 1_555
Hf1 Se5 2.577111 1_545
Hf1 Se13 2.584694 1_555
Hf1 Se9 2.701937 1_455
Hf1 Se7 2.781228 1_455
Hf1 Se1 2.781228 1_445
Hf2 Se6 2.577111 1_555
Hf2 Se0 2.577111 1_555
Hf2 Se14 2.584694 1_555
Hf2 Se10 2.701937 1_655
Hf2 Se2 2.781228 1_655
Hf2 Se4 2.781228 1_655
Hf3 Se1 2.577111 1_555
Hf3 Se7 2.577111 1_555
Hf3 Se15 2.584694 1_555
Hf3 Se11 2.701937 1_655
Hf3 Se5 2.781228 1_655
Hf3 Se3 2.781228 1_655
Rh0 Se10 2.535146 1_555
Rh0 Se8 2.535146 1_555
Rh0 Se0 2.553023 1_555
Rh0 Se4 2.553023 1_555
Rh0 Se12 2.555320 1_555
Rh0 Se14 2.555320 1_555
Rh1 Se9 2.535146 1_565
Rh1 Se11 2.535146 1_555
Rh1 Se5 2.553023 1_555
Rh1 Se1 2.553023 1_555
Rh1 Se15 2.555320 1_555
Rh1 Se13 2.555320 1_565
Rh2 Se10 2.535146 1_555
Rh2 Se8 2.535146 1_565
Rh2 Se6 2.553023 1_555
Rh2 Se2 2.553023 1_555
Rh2 Se12 2.555320 1_565
Rh2 Se14 2.555320 1_555
Rh3 Se9 2.535146 1_555
Rh3 Se11 2.535146 1_555
Rh3 Se3 2.553023 1_555
Rh3 Se7 2.553023 1_555
Rh3 Se15 2.555320 1_555
Rh3 Se13 2.555320 1_555
