# generated using pymatgen
data_Sr3Os6PbO19
_symmetry_space_group_name_H-M   'P 1'
_cell_length_a   7.99111584
_cell_length_b   7.99111588
_cell_length_c   7.99111503
_cell_angle_alpha   109.58382630
_cell_angle_beta   109.58382642
_cell_angle_gamma   109.58381726
_symmetry_Int_Tables_number   1
_chemical_formula_structural   Sr3Os6PbO19
_chemical_formula_sum   'Sr3 Os6 Pb1 O19'
_cell_volume   391.17984637
_cell_formula_units_Z   1
loop_
 _symmetry_equiv_pos_site_id
 _symmetry_equiv_pos_as_xyz
  1  'x, y, z'
loop_
 _atom_site_type_symbol
 _atom_site_label
 _atom_site_symmetry_multiplicity
 _atom_site_fract_x
 _atom_site_fract_y
 _atom_site_fract_z
 _atom_site_occupancy
  Sr  Sr0  1  0.30602855  0.99941623  0.00086062  1
  Sr  Sr1  1  0.00086062  0.30602855  0.99941623  1
  Sr  Sr2  1  0.99941623  0.00086062  0.30602955  1
  Os  Os0  1  0.63790495  0.50066952  0.13886613  1
  Os  Os1  1  0.49765017  0.86043334  0.36033162  1
  Os  Os2  1  0.86043534  0.36033262  0.49765017  1
  Os  Os3  1  0.13886713  0.63790495  0.50066952  1
  Os  Os4  1  0.50066952  0.13886613  0.63790495  1
  Os  Os5  1  0.36033262  0.49765017  0.86043434  1
  Pb  Pb0  1  0.71732264  0.71732264  0.71732364  1
  O  O0  1  0.99267800  0.99267800  0.99267800  1
  O  O1  1  0.33302610  0.33199144  0.99873434  1
  O  O2  1  0.66455407  0.66788518  0.00151643  1
  O  O3  1  0.34544830  0.70324224  0.06226355  1
  O  O4  1  0.93573086  0.64499946  0.28851793  1
  O  O5  1  0.64389487  0.35637306  0.29043386  1
  O  O6  1  0.33199144  0.99873434  0.33302610  1
  O  O7  1  0.99873434  0.33302710  0.33199144  1
  O  O8  1  0.70324224  0.06226555  0.34544730  1
  O  O9  1  0.64895613  0.71617894  0.35408452  1
  O  O10  1  0.29043286  0.64389287  0.35637306  1
  O  O11  1  0.28851793  0.93573186  0.64500046  1
  O  O12  1  0.35637206  0.29043386  0.64389487  1
  O  O13  1  0.71617794  0.35408252  0.64895613  1
  O  O14  1  0.66788518  0.00151643  0.66455307  1
  O  O15  1  0.00151643  0.66455407  0.66788618  1
  O  O16  1  0.06226455  0.34544830  0.70324124  1
  O  O17  1  0.35408352  0.64895713  0.71617894  1
  O  O18  1  0.64500046  0.28851793  0.93573186  1
loop_
_geom_bond_atom_site_label_1
_geom_bond_atom_site_label_2
_geom_bond_distance
_geom_bond_site_symmetry_2
O0 Pb0 2.188133 1_555
O0 Sr0 2.464708 1_656
O0 Sr1 2.464708 1_665
O0 Sr2 2.464715 1_566
O1 Os0 1.991047 1_556
O1 Os5 1.992548 1_555
O1 Sr1 2.594233 1_555
O1 Sr0 2.599670 1_546
O2 Os5 1.987267 1_554
O2 Os0 1.996165 1_555
O2 Pb0 2.573549 1_554
O2 Sr2 2.585176 1_565
O3 Os1 1.938711 1_555
O3 Os5 1.948804 1_554
O3 Sr0 2.667628 1_555
O4 Os0 1.936967 1_555
O4 Os3 1.947734 1_655
O4 Sr2 2.660955 1_565
O5 Os0 1.932172 1_555
O5 Os2 1.935091 1_555
O5 Sr0 2.646678 1_545
O6 Os4 1.991046 1_565
O6 Os1 1.992554 1_555
O6 Sr0 2.594233 1_555
O6 Sr2 2.599672 1_465
O7 Os3 1.991040 1_655
O7 Os2 1.992541 1_555
O7 Sr2 2.594243 1_555
O7 Sr1 2.599668 1_654
O8 Os2 1.938705 1_555
O8 Os1 1.948818 1_545
O8 Sr2 2.667630 1_555
O9 Os1 1.931194 1_555
O9 Os0 1.934469 1_555
O9 Pb0 2.764042 1_555
O10 Os3 1.932158 1_555
O10 Os1 1.935100 1_555
O10 Sr1 2.646670 1_554
O11 Os3 1.936974 1_555
O11 Os4 1.947731 1_565
O11 Sr0 2.660951 1_556
O12 Os4 1.932178 1_555
O12 Os5 1.935082 1_555
O12 Sr2 2.646671 1_455
O13 Os2 1.931214 1_555
O13 Os4 1.934456 1_555
O13 Pb0 2.764045 1_555
O14 Os1 1.987266 1_545
O14 Os4 1.996165 1_555
O14 Pb0 2.573564 1_545
O14 Sr1 2.585177 1_655
O15 Os2 1.987268 1_455
O15 Os3 1.996178 1_555
O15 Pb0 2.573557 1_455
O15 Sr0 2.585171 1_556
O16 Os5 1.938712 1_555
O16 Os2 1.948799 1_455
O16 Sr1 2.667640 1_555
O17 Os5 1.931208 1_555
O17 Os3 1.934456 1_555
O17 Pb0 2.764040 1_555
O18 Os4 1.936973 1_555
O18 Os0 1.947730 1_556
O18 Sr1 2.660951 1_655
