# generated using pymatgen
data_BaLi2SnSe4
_symmetry_space_group_name_H-M   'P 1'
_cell_length_a   6.81232364
_cell_length_b   6.81232310
_cell_length_c   16.92110767
_cell_angle_alpha   90.00000000
_cell_angle_beta   90.00000000
_cell_angle_gamma   120.00000262
_symmetry_Int_Tables_number   1
_chemical_formula_structural   BaLi2SnSe4
_chemical_formula_sum   'Ba3 Li6 Sn3 Se12'
_cell_volume   680.06421031
_cell_formula_units_Z   3
loop_
 _symmetry_equiv_pos_site_id
 _symmetry_equiv_pos_as_xyz
  1  'x, y, z'
loop_
 _atom_site_type_symbol
 _atom_site_label
 _atom_site_symmetry_multiplicity
 _atom_site_fract_x
 _atom_site_fract_y
 _atom_site_fract_z
 _atom_site_occupancy
  Ba  Ba0  1  0.44113552  0.44113552  0.50000000  1
  Ba  Ba1  1  1.00000000  0.55886448  0.16666700  1
  Ba  Ba2  1  0.55886448  0.00000000  0.83333300  1
  Li  Li0  1  0.34066940  0.41387322  0.74430634  1
  Li  Li1  1  0.92679618  0.58612678  0.92236066  1
  Li  Li2  1  0.41387322  0.34066940  0.25569366  1
  Li  Li3  1  0.07320382  0.65933060  0.41097234  1
  Li  Li4  1  0.58612678  0.92679618  0.07763934  1
  Li  Li5  1  0.65933060  0.07320382  0.58902766  1
  Sn  Sn0  1  0.71132700  0.00000000  0.33333300  1
  Sn  Sn1  1  1.00000000  0.71132700  0.66666700  1
  Sn  Sn2  1  0.28867300  0.28867300  0.00000000  1
  Se  Se0  1  0.75960897  0.65408368  0.32986008  1
  Se  Se1  1  0.89447471  0.24039103  0.99652708  1
  Se  Se2  1  0.34591632  0.10552529  0.66319408  1
  Se  Se3  1  0.10552529  0.34591632  0.33680592  1
  Se  Se4  1  0.24039103  0.89447471  0.00347292  1
  Se  Se5  1  0.65408368  0.75960897  0.67013992  1
  Se  Se6  1  0.95483221  0.46970769  0.54747055  1
  Se  Se7  1  0.51487648  0.04516779  0.21413755  1
  Se  Se8  1  0.04516779  0.51487648  0.78586245  1
  Se  Se9  1  0.46970769  0.95483221  0.45252945  1
  Se  Se10  1  0.48512352  0.53029231  0.11919645  1
  Se  Se11  1  0.53029231  0.48512352  0.88080355  1
loop_
_geom_bond_atom_site_label_1
_geom_bond_atom_site_label_2
_geom_bond_distance
_geom_bond_site_symmetry_2
Ba0 Se2 3.433701 1_555
Ba0 Se3 3.433701 1_555
Ba0 Se5 3.457233 1_555
Ba0 Se0 3.457233 1_555
Ba0 Se9 3.499747 1_555
Ba0 Se6 3.499748 1_555
Ba0 Se9 3.507554 1_545
Ba0 Se6 3.507555 1_455
Ba1 Se0 3.433687 1_555
Ba1 Se4 3.433701 1_655
Ba1 Se3 3.457219 1_655
Ba1 Se1 3.457233 1_554
Ba1 Se10 3.499741 1_655
Ba1 Se7 3.499744 1_555
Ba1 Se7 3.507558 1_665
Ba1 Se10 3.507561 1_555
Ba2 Se5 3.433687 1_545
Ba2 Se1 3.433701 1_555
Ba2 Se2 3.457219 1_555
Ba2 Se4 3.457233 1_546
Ba2 Se11 3.499741 1_555
Ba2 Se8 3.499744 1_545
Ba2 Se8 3.507558 1_655
Ba2 Se11 3.507561 1_545
Li0 Se2 2.524385 1_555
Li0 Se8 2.530887 1_555
Li0 Se11 2.571363 1_555
Li0 Se5 2.579172 1_555
Li1 Se4 2.524385 1_656
Li1 Se11 2.530885 1_555
Li1 Se8 2.571376 1_655
Li1 Se1 2.579172 1_555
Li2 Se3 2.524385 1_555
Li2 Se7 2.530887 1_555
Li2 Se10 2.571363 1_555
Li2 Se0 2.579172 1_555
Li3 Se0 2.524385 1_455
Li3 Se9 2.530887 1_555
Li3 Se6 2.571378 1_455
Li3 Se3 2.579172 1_555
Li4 Se1 2.524385 1_564
Li4 Se10 2.530885 1_555
Li4 Se7 2.571376 1_565
Li4 Se4 2.579172 1_555
Li5 Se5 2.524385 1_545
Li5 Se6 2.530887 1_555
Li5 Se9 2.571378 1_545
Li5 Se2 2.579172 1_555
Se0 Sn0 2.537672 1_565
Se1 Sn2 2.537672 1_656
Se2 Sn1 2.537672 1_445
Se3 Sn0 2.537672 1_455
Se4 Sn2 2.537672 1_565
Se5 Sn1 2.537672 1_555
Se6 Sn1 2.522998 1_555
Se7 Sn0 2.522981 1_555
Se8 Sn1 2.522981 1_455
Se9 Sn0 2.522998 1_565
Se10 Sn2 2.522997 1_555
Se11 Sn2 2.522997 1_556
