# generated using pymatgen
data_Hf7Sc2(In2Co)7
_symmetry_space_group_name_H-M   'P 1'
_cell_length_a   9.35591540
_cell_length_b   9.33530610
_cell_length_c   9.35591414
_cell_angle_alpha   59.92694490
_cell_angle_beta   60.00000102
_cell_angle_gamma   59.92694256
_symmetry_Int_Tables_number   1
_chemical_formula_structural   Hf7Sc2(In2Co)7
_chemical_formula_sum   'Hf7 Sc2 In14 Co7'
_cell_volume   577.17250035
_cell_formula_units_Z   1
loop_
 _symmetry_equiv_pos_site_id
 _symmetry_equiv_pos_as_xyz
  1  'x, y, z'
loop_
 _atom_site_type_symbol
 _atom_site_label
 _atom_site_symmetry_multiplicity
 _atom_site_fract_x
 _atom_site_fract_y
 _atom_site_fract_z
 _atom_site_occupancy
  Hf  Hf0  1  0.35612637  0.87904566  0.88241398  1
  Hf  Hf1  1  0.88241398  0.87904566  0.88241398  1
  Hf  Hf2  1  0.64200739  0.11897282  0.11950990  1
  Hf  Hf3  1  0.88241398  0.87904566  0.35612637  1
  Hf  Hf4  1  0.11950990  0.11897282  0.11950990  1
  Hf  Hf5  1  0.88056537  0.35830389  0.88056537  1
  Hf  Hf6  1  0.11950990  0.11897282  0.64200739  1
  Sc  Sc0  1  0.12132422  0.63602733  0.12132422  1
  Sc  Sc1  1  0.49934495  0.50196614  0.49934495  1
  In  In0  1  0.50009515  0.84264340  0.15716630  1
  In  In1  1  0.50009515  0.84264340  0.50009515  1
  In  In2  1  0.50032400  0.15784436  0.50032400  1
  In  In3  1  0.49948893  0.50052305  0.84210637  1
  In  In4  1  0.15788165  0.50052305  0.49948893  1
  In  In5  1  0.84150863  0.15784436  0.50032400  1
  In  In6  1  0.15716630  0.84264340  0.50009515  1
  In  In7  1  0.50032400  0.15784436  0.84150863  1
  In  In8  1  0.15788165  0.50052305  0.84210637  1
  In  In9  1  0.49948893  0.50052305  0.15788165  1
  In  In10  1  0.84210637  0.50052305  0.49948893  1
  In  In11  1  0.84210637  0.50052305  0.15788165  1
  In  In12  1  0.25163097  0.24510609  0.25163097  1
  In  In13  1  0.74913316  0.75260152  0.74913316  1
  Co  Co0  1  0.77399083  0.78215154  0.22192831  1
  Co  Co1  1  0.99982224  0.00053227  0.99982224  1
  Co  Co2  1  0.22192831  0.78215154  0.22192831  1
  Co  Co3  1  0.22192831  0.78215154  0.77399083  1
  Co  Co4  1  0.21975161  0.22011704  0.78006568  1
  Co  Co5  1  0.78006568  0.22011704  0.78006568  1
  Co  Co6  1  0.78006568  0.22011704  0.21975161  1
loop_
_geom_bond_atom_site_label_1
_geom_bond_atom_site_label_2
_geom_bond_distance
_geom_bond_site_symmetry_2
Hf0 In13 3.001409 1_555
Hf0 In9 3.241512 1_556
Hf0 In3 3.241512 1_555
Hf0 In1 3.265851 1_555
Hf0 In0 3.265851 1_556
Hf0 In2 3.277934 1_565
Hf0 In7 3.277939 1_565
Hf1 In13 3.001401 1_555
Hf1 In8 3.241512 1_655
Hf1 In11 3.241512 1_556
Hf1 In6 3.265851 1_655
Hf1 In0 3.265851 1_556
Hf1 In5 3.277931 1_565
Hf1 In7 3.277932 1_565
Hf2 In12 2.981262 1_555
Hf2 In1 3.255052 1_545
Hf2 In0 3.255053 1_545
Hf2 In3 3.261418 1_554
Hf2 In9 3.261418 1_555
Hf2 In7 3.267045 1_554
Hf2 In2 3.267053 1_555
Hf3 In13 3.001408 1_555
Hf3 In4 3.241512 1_655
Hf3 In10 3.241512 1_555
Hf3 In6 3.265851 1_655
Hf3 In1 3.265851 1_555
Hf3 In2 3.277934 1_565
Hf3 In5 3.277939 1_565
Hf4 In12 2.981254 1_555
Hf4 In6 3.255052 1_545
Hf4 In0 3.255053 1_545
Hf4 In11 3.261418 1_455
Hf4 In8 3.261418 1_554
Hf4 In5 3.267052 1_455
Hf4 In7 3.267052 1_554
Hf5 In13 3.002110 1_555
Hf5 In10 3.265542 1_555
Hf5 In11 3.265542 1_556
Hf5 In9 3.265542 1_556
Hf5 In4 3.265542 1_655
Hf5 In3 3.265542 1_555
Hf5 In8 3.265542 1_655
Hf6 In12 2.981261 1_555
Hf6 In6 3.255052 1_545
Hf6 In1 3.255053 1_545
Hf6 In10 3.261418 1_455
Hf6 In4 3.261418 1_555
Hf6 In5 3.267045 1_455
Hf6 In2 3.267054 1_555
In0 In7 2.944640 1_564
In0 Sc1 3.187381 1_555
In0 In11 3.193293 1_555
In0 In9 3.193293 1_555
In1 In2 2.944645 1_565
In1 Sc1 3.187376 1_555
In1 In3 3.193292 1_555
In1 In10 3.193293 1_555
In2 In7 3.192094 1_555
In2 In5 3.192094 1_555
In2 In9 3.197910 1_555
In2 In4 3.197910 1_555
In2 Sc1 3.203328 1_555
In3 In9 2.954366 1_556
In3 In8 3.196049 1_555
In3 In7 3.197905 1_555
In3 Sc1 3.200789 1_555
In3 Sc0 3.244408 1_556
In4 In6 3.193293 1_555
In4 In9 3.196049 1_555
In4 Sc1 3.200799 1_555
In4 In8 3.205499 1_555
In4 Sc0 3.244408 1_555
In5 In6 2.944640 1_645
In5 In7 3.192094 1_555
In5 Sc1 3.203328 1_555
In6 Sc1 3.187381 1_555
In6 In8 3.193292 1_555
In7 In8 3.197910 1_555
In7 Sc1 3.203328 1_555
In8 Sc1 3.200794 1_555
In8 Sc0 3.244408 1_556
In9 Sc1 3.200799 1_555
In9 Sc0 3.244408 1_555
In10 In4 2.954367 1_655
In10 In11 3.196048 1_555
In10 In5 3.197905 1_555
In10 Sc1 3.200790 1_555
In10 In3 3.205500 1_555
In10 Sc0 3.244408 1_655
In11 In8 2.954367 1_654
In11 In5 3.197910 1_555
In11 Sc1 3.200794 1_555
In11 In9 3.205500 1_555
In11 Sc0 3.244408 1_655
In12 Sc0 2.976403 1_555
Co0 Hf2 2.569463 1_565
Co0 Hf1 2.599027 1_554
Co0 Hf3 2.599035 1_555
Co0 In0 2.648040 1_555
Co0 In1 2.648046 1_555
Co0 Sc0 2.663130 1_655
Co0 In11 2.682372 1_555
Co0 In10 2.682377 1_555
Co1 Hf1 2.720870 1_545
Co1 Hf3 2.720878 1_546
Co1 Hf0 2.720878 1_645
Co1 Hf5 2.724008 1_555
Co1 Hf6 2.732393 1_655
Co1 Hf2 2.732393 1_556
Co1 Hf4 2.732401 1_656
Co1 Sc0 2.775274 1_646
Co2 Hf4 2.569464 1_565
Co2 Hf0 2.599028 1_554
Co2 Hf3 2.599028 1_455
Co2 In6 2.648049 1_555
Co2 In0 2.648049 1_555
Co2 Sc0 2.663122 1_555
Co2 In9 2.682375 1_555
Co2 In4 2.682375 1_555
Co3 Hf6 2.569463 1_565
Co3 Hf1 2.599028 1_455
Co3 Hf0 2.599035 1_555
Co3 In6 2.648040 1_555
Co3 In1 2.648046 1_555
Co3 Sc0 2.663129 1_556
Co3 In8 2.682372 1_555
Co3 In3 2.682377 1_555
Co4 Hf5 2.597638 1_455
Co4 Hf4 2.600128 1_556
Co4 Hf6 2.600128 1_555
Co4 Hf0 2.603352 1_545
Co4 In4 2.681867 1_555
Co4 In8 2.681867 1_555
Co4 In2 2.683983 1_555
Co4 In7 2.683989 1_555
Co5 Hf5 2.597638 1_555
Co5 Hf2 2.600128 1_556
Co5 Hf6 2.600128 1_655
Co5 Hf1 2.603352 1_545
Co5 In10 2.681867 1_555
Co5 In3 2.681867 1_555
Co5 In5 2.683979 1_555
Co5 In7 2.683980 1_555
Co6 Hf5 2.597637 1_554
Co6 Hf2 2.600128 1_555
Co6 Hf4 2.600128 1_655
Co6 Hf3 2.603352 1_545
Co6 In9 2.681867 1_555
Co6 In11 2.681867 1_555
Co6 In2 2.683983 1_555
Co6 In5 2.683988 1_555
