# generated using pymatgen
data_AgIr2PbO7
_symmetry_space_group_name_H-M   'P 1'
_cell_length_a   7.19672409
_cell_length_b   7.19672445
_cell_length_c   7.16126281
_cell_angle_alpha   60.16287038
_cell_angle_beta   60.16286876
_cell_angle_gamma   60.69267784
_symmetry_Int_Tables_number   1
_chemical_formula_structural   AgIr2PbO7
_chemical_formula_sum   'Ag2 Ir4 Pb2 O14'
_cell_volume   264.26667832
_cell_formula_units_Z   2
loop_
 _symmetry_equiv_pos_site_id
 _symmetry_equiv_pos_as_xyz
  1  'x, y, z'
loop_
 _atom_site_type_symbol
 _atom_site_label
 _atom_site_symmetry_multiplicity
 _atom_site_fract_x
 _atom_site_fract_y
 _atom_site_fract_z
 _atom_site_occupancy
  Ag  Ag0  1  0.12500000  0.12500000  0.62500000  1
  Ag  Ag1  1  0.12500000  0.12500000  0.12500000  1
  Ir  Ir0  1  0.12500000  0.62500000  0.62500000  1
  Ir  Ir1  1  0.62500000  0.12500000  0.62500000  1
  Ir  Ir2  1  0.62500000  0.62500000  0.12500000  1
  Ir  Ir3  1  0.62500000  0.62500000  0.62500000  1
  Pb  Pb0  1  0.62500000  0.12500000  0.12500000  1
  Pb  Pb1  1  0.12500000  0.62500000  0.12500000  1
  O  O0  1  0.70848555  0.70848555  0.29151445  1
  O  O1  1  0.30538197  0.30538197  0.69461803  1
  O  O2  1  0.69301782  0.30020690  0.71052735  1
  O  O3  1  0.30020690  0.69301782  0.29624793  1
  O  O4  1  0.30020690  0.69301782  0.71052735  1
  O  O5  1  0.69301782  0.30020690  0.29624793  1
  O  O6  1  0.54151445  0.54151445  0.95848555  1
  O  O7  1  0.94461803  0.94461803  0.55538197  1
  O  O8  1  0.55698218  0.94979310  0.53947265  1
  O  O9  1  0.94979310  0.55698218  0.95375207  1
  O  O10  1  0.94979310  0.55698218  0.53947265  1
  O  O11  1  0.55698218  0.94979310  0.95375207  1
  O  O12  1  0.23358044  0.23358044  0.26641956  1
  O  O13  1  0.01641956  0.01641956  0.98358044  1
loop_
_geom_bond_atom_site_label_1
_geom_bond_atom_site_label_2
_geom_bond_distance
_geom_bond_site_symmetry_2
Ag0 O13 2.102296 1_555
Ag0 O12 2.102296 1_555
Ag0 O1 2.560629 1_555
Ag0 O7 2.560629 1_445
Ag0 O8 2.581887 1_545
Ag0 O2 2.581887 1_455
Ag0 O10 2.581887 1_455
Ag0 O4 2.581887 1_545
Ag1 O12 2.102296 1_555
Ag1 O13 2.102296 1_554
Ag1 O1 2.560629 1_554
Ag1 O7 2.560629 1_445
Ag1 O11 2.581887 1_544
Ag1 O5 2.581887 1_455
Ag1 O9 2.581887 1_454
Ag1 O3 2.581887 1_545
Ir0 O7 1.950464 1_455
Ir0 O1 1.950464 1_555
Ir0 O4 1.968689 1_555
Ir0 O10 1.968689 1_455
Ir0 O9 1.968690 1_455
Ir0 O3 1.968690 1_555
Ir1 O1 1.950464 1_555
Ir1 O7 1.950464 1_545
Ir1 O2 1.968690 1_555
Ir1 O8 1.968690 1_545
Ir1 O11 1.968690 1_545
Ir1 O5 1.968690 1_555
Ir2 O9 1.957549 1_554
Ir2 O3 1.957549 1_555
Ir2 O11 1.957550 1_554
Ir2 O5 1.957550 1_555
Ir2 O0 1.980699 1_555
Ir2 O6 1.980699 1_554
Ir3 O10 1.957549 1_555
Ir3 O4 1.957549 1_555
Ir3 O8 1.957550 1_555
Ir3 O2 1.957550 1_555
Ir3 O6 1.980699 1_555
Ir3 O0 1.980699 1_555
O0 Pb1 2.482164 1_655
O0 Pb0 2.482164 1_565
O2 Pb0 2.464503 1_556
O3 Pb1 2.464502 1_555
O4 Pb1 2.464503 1_556
O5 Pb0 2.464502 1_555
O6 Pb1 2.482164 1_556
O6 Pb0 2.482164 1_556
O8 Pb0 2.464503 1_565
O9 Pb1 2.464502 1_656
O10 Pb1 2.464503 1_655
O11 Pb0 2.464502 1_566
O12 Pb0 2.316279 1_555
O12 Pb1 2.316279 1_555
O13 Pb0 2.316279 1_456
O13 Pb1 2.316279 1_546
