# generated using pymatgen
data_KRb(InSb)3
_symmetry_space_group_name_H-M   'P 1'
_cell_length_a   4.67260071
_cell_length_b   7.83921468
_cell_length_c   30.31724288
_cell_angle_alpha   90.00000000
_cell_angle_beta   90.00000000
_cell_angle_gamma   90.00000000
_symmetry_Int_Tables_number   1
_chemical_formula_structural   KRb(InSb)3
_chemical_formula_sum   'K4 Rb4 In12 Sb12'
_cell_volume   1110.50605633
_cell_formula_units_Z   4
loop_
 _symmetry_equiv_pos_site_id
 _symmetry_equiv_pos_as_xyz
  1  'x, y, z'
loop_
 _atom_site_type_symbol
 _atom_site_label
 _atom_site_symmetry_multiplicity
 _atom_site_fract_x
 _atom_site_fract_y
 _atom_site_fract_z
 _atom_site_occupancy
  K  K0  1  0.25000000  0.24195665  0.81311503  1
  K  K1  1  0.75000000  0.75804335  0.18688497  1
  K  K2  1  0.75000000  0.74195665  0.68688497  1
  K  K3  1  0.25000000  0.25804335  0.31311503  1
  Rb  Rb0  1  0.25000000  0.22407502  0.49551796  1
  Rb  Rb1  1  0.75000000  0.77592498  0.50448204  1
  Rb  Rb2  1  0.75000000  0.72407502  0.00448204  1
  Rb  Rb3  1  0.25000000  0.27592498  0.99551796  1
  In  In0  1  0.25000000  0.55305161  0.61720339  1
  In  In1  1  0.75000000  0.44694839  0.38279661  1
  In  In2  1  0.75000000  0.05305161  0.88279661  1
  In  In3  1  0.25000000  0.94694839  0.11720339  1
  In  In4  1  0.25000000  0.08814901  0.20630273  1
  In  In5  1  0.75000000  0.91185099  0.79369727  1
  In  In6  1  0.75000000  0.58814901  0.29369727  1
  In  In7  1  0.25000000  0.41185099  0.70630273  1
  In  In8  1  0.75000000  0.39387637  0.12599589  1
  In  In9  1  0.25000000  0.60612363  0.87400411  1
  In  In10  1  0.25000000  0.89387637  0.37400411  1
  In  In11  1  0.75000000  0.10612363  0.62599589  1
  Sb  Sb0  1  0.75000000  0.19351056  0.72047799  1
  Sb  Sb1  1  0.25000000  0.80648944  0.27952201  1
  Sb  Sb2  1  0.25000000  0.69351056  0.77952201  1
  Sb  Sb3  1  0.75000000  0.30648944  0.22047799  1
  Sb  Sb4  1  0.25000000  0.91583859  0.59768368  1
  Sb  Sb5  1  0.75000000  0.08416141  0.40231632  1
  Sb  Sb6  1  0.75000000  0.41583859  0.90231632  1
  Sb  Sb7  1  0.25000000  0.58416141  0.09768368  1
  Sb  Sb8  1  0.75000000  0.41176423  0.57651126  1
  Sb  Sb9  1  0.25000000  0.58823577  0.42348874  1
  Sb  Sb10  1  0.25000000  0.91176423  0.92348874  1
  Sb  Sb11  1  0.75000000  0.08823577  0.07651126  1
loop_
_geom_bond_atom_site_label_1
_geom_bond_atom_site_label_2
_geom_bond_distance
_geom_bond_site_symmetry_2
K0 Sb0 3.672901 1_455
K0 Sb0 3.672901 1_555
K0 Sb2 3.683425 1_555
K0 Sb6 3.824889 1_455
K0 Sb6 3.824889 1_555
K1 Sb1 3.672901 1_555
K1 Sb1 3.672901 1_655
K1 Sb3 3.683425 1_555
K1 Sb7 3.824889 1_655
K1 Sb7 3.824889 1_555
K2 Sb2 3.672901 1_555
K2 Sb2 3.672901 1_655
K2 Sb0 3.683425 1_565
K2 Sb4 3.824889 1_555
K2 Sb4 3.824889 1_655
K3 Sb3 3.672901 1_555
K3 Sb3 3.672901 1_455
K3 Sb1 3.683425 1_545
K3 Sb5 3.824889 1_455
K3 Sb5 3.824889 1_555
Rb0 Sb9 3.594186 1_555
Rb0 Sb8 3.694939 1_455
Rb0 Sb8 3.694939 1_555
Rb0 Sb5 3.826932 1_555
Rb0 Sb5 3.826932 1_455
Rb0 Sb4 3.928414 1_545
Rb1 Sb8 3.594186 1_555
Rb1 Sb9 3.694939 1_555
Rb1 Sb9 3.694939 1_655
Rb1 Sb4 3.826932 1_555
Rb1 Sb4 3.826932 1_655
Rb1 Sb5 3.928414 1_565
Rb2 Sb11 3.594186 1_565
Rb2 Sb10 3.694939 1_654
Rb2 Sb10 3.694939 1_554
Rb2 Sb7 3.826932 1_655
Rb2 Sb7 3.826932 1_555
Rb2 Sb6 3.928414 1_554
Rb3 Sb10 3.594186 1_545
Rb3 Sb11 3.694939 1_456
Rb3 Sb11 3.694939 1_556
Rb3 Sb6 3.826932 1_455
Rb3 Sb6 3.826932 1_555
Rb3 Sb7 3.928414 1_556
In0 Sb8 2.864784 1_455
In0 Sb8 2.864784 1_555
In0 Sb4 2.904883 1_555
In0 In7 2.919240 1_555
In0 K2 3.480538 1_555
In0 K2 3.480538 1_455
In1 Sb9 2.864784 1_555
In1 Sb9 2.864784 1_655
In1 Sb5 2.904883 1_555
In1 In6 2.919240 1_555
In1 K3 3.480538 1_555
In1 K3 3.480538 1_655
In2 Sb10 2.864784 1_645
In2 Sb10 2.864784 1_545
In2 Sb6 2.904883 1_555
In2 In5 2.919240 1_545
In2 K0 3.480538 1_555
In2 K0 3.480538 1_655
In3 Sb11 2.864784 1_465
In3 Sb11 2.864784 1_565
In3 Sb7 2.904883 1_555
In3 In4 2.919240 1_565
In3 K1 3.480538 1_455
In3 K1 3.480538 1_555
In4 Sb3 2.927904 1_555
In4 Sb3 2.927904 1_455
In4 Sb1 3.130936 1_545
In4 K3 3.501440 1_555
In4 K1 3.535733 1_445
In4 K1 3.535733 1_545
In5 Sb2 2.927904 1_555
In5 Sb2 2.927904 1_655
In5 Sb0 3.130936 1_565
In5 K2 3.501440 1_555
In5 K0 3.535733 1_565
In5 K0 3.535733 1_665
In6 Sb1 2.927904 1_555
In6 Sb1 2.927904 1_655
In6 Sb3 3.130936 1_555
In6 K1 3.501440 1_555
In6 K3 3.535733 1_555
In6 K3 3.535733 1_655
In7 Sb0 2.927904 1_455
In7 Sb0 2.927904 1_555
In7 Sb2 3.130936 1_555
In7 K0 3.501440 1_555
In7 K2 3.535733 1_455
In7 K2 3.535733 1_555
In8 Sb11 2.826914 1_555
In8 Sb7 2.901756 1_555
In8 Sb7 2.901756 1_655
In8 Sb3 2.945214 1_555
In8 K1 3.399627 1_555
In9 Sb10 2.826914 1_555
In9 Sb6 2.901756 1_455
In9 Sb6 2.901756 1_555
In9 Sb2 2.945214 1_555
In9 K0 3.399627 1_555
In10 Sb9 2.826914 1_555
In10 Sb5 2.901756 1_465
In10 Sb5 2.901756 1_565
In10 Sb1 2.945214 1_555
In10 K3 3.399627 1_565
In11 Sb8 2.826914 1_555
In11 Sb4 2.901756 1_545
In11 Sb4 2.901756 1_645
In11 Sb0 2.945214 1_555
In11 K2 3.399627 1_545
