# generated using pymatgen
data_Lu6NbBiTe
_symmetry_space_group_name_H-M   'P 1'
_cell_length_a   8.04213737
_cell_length_b   8.04213702
_cell_length_c   4.36306876
_cell_angle_alpha   90.00000000
_cell_angle_beta   90.00000000
_cell_angle_gamma   120.00000951
_symmetry_Int_Tables_number   1
_chemical_formula_structural   Lu6NbBiTe
_chemical_formula_sum   'Lu6 Nb1 Bi1 Te1'
_cell_volume   244.37996734
_cell_formula_units_Z   1
loop_
 _symmetry_equiv_pos_site_id
 _symmetry_equiv_pos_as_xyz
  1  'x, y, z'
loop_
 _atom_site_type_symbol
 _atom_site_label
 _atom_site_symmetry_multiplicity
 _atom_site_fract_x
 _atom_site_fract_y
 _atom_site_fract_z
 _atom_site_occupancy
  Lu  Lu0  1  0.23799532  0.99977879  0.50000000  1
  Lu  Lu1  1  0.00022121  0.23821653  0.50000000  1
  Lu  Lu2  1  0.76178347  0.76200468  0.50000000  1
  Lu  Lu3  1  0.61206087  0.00267339  0.00000000  1
  Lu  Lu4  1  0.99732661  0.60938748  0.00000000  1
  Lu  Lu5  1  0.39061252  0.38793913  0.00000000  1
  Nb  Nb0  1  0.00000000  0.00000000  0.00000000  1
  Bi  Bi0  1  0.66666700  0.33333300  0.50000000  1
  Te  Te0  1  0.33333300  0.66666700  0.50000000  1
loop_
_geom_bond_atom_site_label_1
_geom_bond_atom_site_label_2
_geom_bond_distance
_geom_bond_site_symmetry_2
Lu0 Nb0 2.902734 1_565
Lu0 Nb0 2.902734 1_566
Lu0 Te0 3.133451 1_555
Lu1 Nb0 2.902734 1_555
Lu1 Nb0 2.902734 1_556
Lu1 Te0 3.133456 1_555
Lu2 Nb0 2.902733 1_666
Lu2 Nb0 2.902733 1_665
Lu2 Te0 3.133459 1_555
Lu3 Nb0 3.130665 1_655
Lu3 Te0 3.320914 1_544
Lu3 Te0 3.320914 1_545
Lu4 Nb0 3.130665 1_665
Lu4 Te0 3.320912 1_655
Lu4 Te0 3.320912 1_654
Lu5 Nb0 3.130665 1_555
Lu5 Te0 3.320918 1_554
Lu5 Te0 3.320918 1_555
Bi0 Lu1 3.135733 1_655
Bi0 Lu0 3.135738 1_545
Bi0 Lu2 3.135741 1_555
Bi0 Lu3 3.294776 1_555
Bi0 Lu3 3.294776 1_556
Bi0 Lu4 3.294778 1_555
Bi0 Lu4 3.294778 1_556
Bi0 Lu5 3.294782 1_555
Bi0 Lu5 3.294782 1_556
