# generated using pymatgen
data_Lu12In2Fe2Tc
_symmetry_space_group_name_H-M   'P 1'
_cell_length_a   8.17069891
_cell_length_b   8.17069950
_cell_length_c   8.17069942
_cell_angle_alpha   108.78172070
_cell_angle_beta   108.78171685
_cell_angle_gamma   110.85919560
_symmetry_Int_Tables_number   1
_chemical_formula_structural   Lu12In2Fe2Tc
_chemical_formula_sum   'Lu12 In2 Fe2 Tc1'
_cell_volume   419.72430567
_cell_formula_units_Z   1
loop_
 _symmetry_equiv_pos_site_id
 _symmetry_equiv_pos_as_xyz
  1  'x, y, z'
loop_
 _atom_site_type_symbol
 _atom_site_label
 _atom_site_symmetry_multiplicity
 _atom_site_fract_x
 _atom_site_fract_y
 _atom_site_fract_z
 _atom_site_occupancy
  Lu  Lu0  1  0.30878540  0.30878540  0.61757179  1
  Lu  Lu1  1  0.69121460  0.69121460  0.38242821  1
  Lu  Lu2  1  0.69121460  0.30878540  0.00000000  1
  Lu  Lu3  1  0.30878540  0.69121460  0.00000000  1
  Lu  Lu4  1  0.19072938  0.43071283  0.23998344  1
  Lu  Lu5  1  0.80927062  0.56928717  0.76001656  1
  Lu  Lu6  1  0.19072938  0.95074494  0.76001656  1
  Lu  Lu7  1  0.95074494  0.19072938  0.76001656  1
  Lu  Lu8  1  0.80927062  0.04925506  0.23998344  1
  Lu  Lu9  1  0.04925506  0.80927062  0.23998344  1
  Lu  Lu10  1  0.43071283  0.19072938  0.23998344  1
  Lu  Lu11  1  0.56928717  0.80927062  0.76001656  1
  In  In0  1  0.00000000  0.50000000  0.50000000  1
  In  In1  1  0.50000000  0.00000000  0.50000000  1
  Fe  Fe0  1  0.37727539  0.37727539  0.00000000  1
  Fe  Fe1  1  0.62272461  0.62272461  1.00000000  1
  Tc  Tc0  1  0.00000000  0.00000000  0.00000000  1
loop_
_geom_bond_atom_site_label_1
_geom_bond_atom_site_label_2
_geom_bond_distance
_geom_bond_site_symmetry_2
Lu0 Lu7 3.427690 1_455
Lu0 Lu6 3.427690 1_545
Lu0 Lu5 3.427691 1_555
Lu0 Lu11 3.427691 1_555
Lu0 Lu8 3.491176 1_455
Lu0 Lu9 3.491177 1_545
Lu0 Lu10 3.491180 1_555
Lu0 Lu4 3.491180 1_555
Lu1 Lu9 3.427690 1_655
Lu1 Lu8 3.427690 1_565
Lu1 Lu4 3.427691 1_555
Lu1 Lu10 3.427691 1_555
Lu1 Lu6 3.491176 1_655
Lu1 Lu7 3.491177 1_565
Lu1 Lu11 3.491180 1_555
Lu1 Lu5 3.491180 1_555
Lu2 Lu5 3.427689 1_554
Lu2 Lu6 3.427691 1_544
Lu2 Lu9 3.427691 1_655
Lu2 Lu7 3.491165 1_554
Lu2 Lu8 3.491166 1_555
Lu2 Lu4 3.491173 1_655
Lu3 Lu4 3.427689 1_555
Lu3 Lu8 3.427691 1_565
Lu3 Lu7 3.427691 1_454
Lu3 Lu9 3.491165 1_555
Lu3 Lu6 3.491166 1_554
Lu3 Lu5 3.491173 1_454
Lu4 Tc0 2.888180 1_555
Lu4 Lu7 3.229215 1_454
Lu4 Lu8 3.537038 1_455
Lu4 Lu9 3.667368 1_555
Lu5 Tc0 2.888180 1_666
Lu5 Lu9 3.229215 1_656
Lu5 Lu6 3.537038 1_655
Lu5 Lu7 3.667368 1_555
Lu6 Tc0 2.888181 1_566
Lu6 Lu7 3.229229 1_465
Lu6 Lu9 3.667376 1_555
Lu7 Tc0 2.888181 1_656
Lu7 Lu8 3.667376 1_555
Lu8 Tc0 2.888181 1_655
Lu8 Lu9 3.229229 1_645
Lu9 Tc0 2.888181 1_565
Lu10 Tc0 2.888180 1_555
Lu10 Lu4 3.229215 1_555
Lu10 Lu6 3.229215 1_544
Lu10 Lu2 3.427689 1_555
Lu10 Lu3 3.491173 1_545
Lu10 Lu9 3.537038 1_545
Lu10 Lu8 3.667368 1_555
Lu10 Lu5 3.667373 1_555
Lu11 Tc0 2.888180 1_666
Lu11 Lu5 3.229215 1_555
Lu11 Lu8 3.229215 1_566
Lu11 Lu3 3.427689 1_556
Lu11 Lu2 3.491173 1_566
Lu11 Lu7 3.537038 1_565
Lu11 Lu6 3.667368 1_555
Lu11 Lu4 3.667373 1_555
In0 Lu8 3.041112 1_455
In0 Lu6 3.041112 1_555
In0 Lu5 3.041118 1_455
In0 Lu4 3.041118 1_555
In0 Lu3 3.455747 1_556
In0 Lu2 3.455747 1_455
In0 Lu0 3.455749 1_555
In0 Lu1 3.455749 1_455
In0 Lu11 3.787393 1_555
In0 Lu10 3.787393 1_455
In0 Lu7 3.787393 1_455
In0 Lu9 3.787393 1_555
In1 Lu7 3.041112 1_555
In1 Lu9 3.041112 1_545
In1 Lu11 3.041118 1_545
In1 Lu10 3.041118 1_555
In1 Lu3 3.455747 1_545
In1 Lu2 3.455747 1_556
In1 Lu0 3.455749 1_555
In1 Lu1 3.455749 1_545
In1 Lu6 3.787393 1_545
In1 Lu8 3.787393 1_555
In1 Lu5 3.787393 1_555
In1 Lu4 3.787393 1_545
Fe0 Fe1 2.275906 1_554
Fe0 Lu0 2.813384 1_554
Fe0 Lu1 2.813388 1_555
Fe0 Lu2 2.813392 1_555
Fe0 Lu3 2.813392 1_555
Fe0 Lu4 2.864592 1_555
Fe0 Lu10 2.864592 1_555
Fe0 Lu7 2.864598 1_454
Fe0 Lu6 2.864599 1_544
Fe1 Lu1 2.813384 1_556
Fe1 Lu0 2.813388 1_555
Fe1 Lu3 2.813392 1_556
Fe1 Lu2 2.813392 1_556
Fe1 Lu5 2.864592 1_555
Fe1 Lu11 2.864592 1_555
Fe1 Lu9 2.864598 1_656
Fe1 Lu8 2.864599 1_566
