# generated using pymatgen
data_NaLuSe2
_symmetry_space_group_name_H-M   'P 1'
_cell_length_a   7.28491071
_cell_length_b   7.28491110
_cell_length_c   7.28491035
_cell_angle_alpha   32.14718360
_cell_angle_beta   32.14718027
_cell_angle_gamma   32.14719255
_symmetry_Int_Tables_number   1
_chemical_formula_structural   NaLuSe2
_chemical_formula_sum   'Na1 Lu1 Se2'
_cell_volume   97.27651759
_cell_formula_units_Z   1
loop_
 _symmetry_equiv_pos_site_id
 _symmetry_equiv_pos_as_xyz
  1  'x, y, z'
loop_
 _atom_site_type_symbol
 _atom_site_label
 _atom_site_symmetry_multiplicity
 _atom_site_fract_x
 _atom_site_fract_y
 _atom_site_fract_z
 _atom_site_occupancy
  Na  Na0  1  0.50000000  0.50000000  0.50000000  1
  Lu  Lu0  1  0.00000000  0.00000000  0.00000000  1
  Se  Se0  1  0.74225342  0.74225342  0.74225342  1
  Se  Se1  1  0.25774658  0.25774658  0.25774658  1
loop_
_geom_bond_atom_site_label_1
_geom_bond_atom_site_label_2
_geom_bond_distance
_geom_bond_site_symmetry_2
Na0 Se1 2.996920 1_556
Na0 Se0 2.996920 1_554
Na0 Se1 2.996920 1_655
Na0 Se0 2.996920 1_455
Na0 Se1 2.996921 1_565
Na0 Se0 2.996921 1_545
Lu0 Se0 2.806111 1_445
Lu0 Se1 2.806111 1_554
Lu0 Se0 2.806111 1_544
Lu0 Se1 2.806111 1_455
Lu0 Se0 2.806112 1_454
Lu0 Se1 2.806112 1_545
