# generated using pymatgen
data_LaCo13
_symmetry_space_group_name_H-M   'P 1'
_cell_length_a   7.92313293
_cell_length_b   7.92311607
_cell_length_c   7.92310010
_cell_angle_alpha   59.99902251
_cell_angle_beta   59.99919188
_cell_angle_gamma   59.99907037
_symmetry_Int_Tables_number   1
_chemical_formula_structural   LaCo13
_chemical_formula_sum   'La2 Co26'
_cell_volume   351.69338010
_cell_formula_units_Z   2
loop_
 _symmetry_equiv_pos_site_id
 _symmetry_equiv_pos_as_xyz
  1  'x, y, z'
loop_
 _atom_site_type_symbol
 _atom_site_label
 _atom_site_symmetry_multiplicity
 _atom_site_fract_x
 _atom_site_fract_y
 _atom_site_fract_z
 _atom_site_occupancy
  La  La0  1  0.25001479  0.25000350  0.24999738  1
  La  La1  1  0.74999950  0.74999862  0.75000003  1
  Co  Co0  1  0.50000625  0.50000504  0.49999161  1
  Co  Co1  1  -0.00000565  -0.00000364  0.00000717  1
  Co  Co2  1  0.20362382  0.79637037  0.44017870  1
  Co  Co3  1  0.94017858  0.29637664  0.70361793  1
  Co  Co4  1  0.70362264  0.05983010  0.94016992  1
  Co  Co5  1  0.94017537  0.05982739  0.29637713  1
  Co  Co6  1  0.05982799  0.94017539  0.70361812  1
  Co  Co7  1  0.05983332  0.29637712  0.94017035  1
  Co  Co8  1  0.70362394  0.94017819  0.29637352  1
  Co  Co9  1  0.44017000  0.79637007  0.55982889  1
  Co  Co10  1  0.55982060  0.79637393  0.20363006  1
  Co  Co11  1  0.79637049  0.55982200  0.44017839  1
  Co  Co12  1  0.55981973  0.20362641  0.44017863  1
  Co  Co13  1  0.79636810  0.44017109  0.20363317  1
  Co  Co14  1  0.44017213  0.20362671  0.79637466  1
  Co  Co15  1  0.20362508  0.55982434  0.79637452  1
  Co  Co16  1  0.20362494  0.44017205  0.55982845  1
  Co  Co17  1  0.70362260  0.29637824  0.05982555  1
  Co  Co18  1  0.29637919  0.94017708  0.05982199  1
  Co  Co19  1  0.29638081  0.05983264  0.70361711  1
  Co  Co20  1  0.94017848  0.70362274  0.05981998  1
  Co  Co21  1  0.05982883  0.70362390  0.29637691  1
  Co  Co22  1  0.29637775  0.70362381  0.94017036  1
  Co  Co23  1  0.44017090  0.55982193  0.20363155  1
  Co  Co24  1  0.79636978  0.20362492  0.55982882  1
  Co  Co25  1  0.55982203  0.44017039  0.79637707  1
loop_
_geom_bond_atom_site_label_1
_geom_bond_atom_site_label_2
_geom_bond_distance
_geom_bond_site_symmetry_2
Co0 Co13 2.395443 1_555
Co0 Co10 2.395454 1_555
Co0 Co11 2.395496 1_555
Co0 Co9 2.395519 1_555
Co0 Co24 2.395526 1_555
Co0 Co23 2.395527 1_555
Co0 Co2 2.395531 1_555
Co0 Co25 2.395577 1_555
Co0 Co12 2.395582 1_555
Co0 Co15 2.395594 1_555
Co0 Co14 2.395596 1_555
Co0 Co16 2.395630 1_555
Co1 Co8 2.395489 1_445
Co1 Co21 2.395521 1_545
Co1 Co17 2.395558 1_455
Co1 Co20 2.395560 1_445
Co1 Co5 2.395578 1_455
Co1 Co22 2.395579 1_544
Co1 Co4 2.395582 1_454
Co1 Co3 2.395607 1_454
Co1 Co18 2.395624 1_545
Co1 Co6 2.395634 1_544
Co1 Co7 2.395649 1_554
Co1 Co19 2.395666 1_554
Co2 Co6 2.377999 1_555
Co2 Co5 2.378031 1_465
Co2 Co21 2.471589 1_555
Co2 Co9 2.487579 1_555
Co2 Co23 2.650495 1_555
Co2 La1 3.267148 1_455
Co2 La0 3.267277 1_565
Co3 Co6 2.487591 1_645
Co3 Co7 2.487652 1_655
Co3 Co4 2.650537 1_555
Co3 La0 3.267135 1_655
Co3 La1 3.267167 1_555
Co4 Co8 2.487603 1_546
Co4 Co6 2.487604 1_645
Co4 La0 3.267089 1_556
Co4 La1 3.267206 1_545
Co5 Co7 2.487601 1_654
Co5 Co8 2.487632 1_545
Co5 La1 3.267149 1_545
Co5 La0 3.267299 1_655
Co6 Co9 2.471540 1_555
Co6 La0 3.267164 1_565
Co6 La1 3.267214 1_455
Co7 La1 3.267148 1_455
Co7 La0 3.267255 1_556
Co8 Co9 2.378088 1_555
Co8 La0 3.267063 1_565
Co8 La1 3.267169 1_555
Co9 La0 3.267149 1_565
Co9 La1 3.267223 1_555
Co10 Co18 2.378019 1_555
Co10 Co4 2.378080 1_564
Co10 Co8 2.471645 1_555
Co10 Co20 2.471648 1_555
Co10 Co9 2.487556 1_555
Co10 Co2 2.487558 1_555
Co10 Co13 2.487576 1_555
Co10 Co23 2.487614 1_555
Co10 Co11 2.650506 1_555
Co10 La0 3.267144 1_565
Co10 La1 3.267199 1_554
Co11 Co3 2.377985 1_555
Co11 Co21 2.378112 1_655
Co11 Co8 2.471630 1_555
Co11 Co20 2.471637 1_555
Co11 Co25 2.487555 1_555
Co11 Co24 2.487561 1_555
Co11 Co9 2.487564 1_555
Co11 Co13 2.487584 1_555
Co11 La1 3.267197 1_555
Co11 La0 3.267218 1_655
Co12 Co19 2.377926 1_555
Co12 Co8 2.378049 1_545
Co12 Co17 2.471605 1_555
Co12 Co5 2.471626 1_555
Co12 Co23 2.487527 1_555
Co12 Co16 2.487530 1_555
Co12 Co14 2.487552 1_555
Co12 Co24 2.487602 1_555
Co12 Co13 2.650484 1_555
Co12 La0 3.267083 1_555
Co12 La1 3.267148 1_545
Co13 Co20 2.378089 1_555
Co13 Co7 2.378095 1_654
Co13 Co5 2.471549 1_555
Co13 Co17 2.471608 1_555
Co13 Co24 2.487531 1_555
Co13 Co23 2.487570 1_555
Co13 La1 3.267184 1_554
Co13 La0 3.267306 1_655
Co14 Co18 2.377990 1_546
Co14 Co4 2.378024 1_555
Co14 Co7 2.471522 1_555
Co14 Co19 2.471581 1_555
Co14 Co15 2.487548 1_555
Co14 Co24 2.487551 1_555
Co14 Co25 2.487571 1_555
Co14 Co16 2.650479 1_555
Co14 La0 3.267175 1_556
Co14 La1 3.267176 1_545
Co15 Co7 2.377986 1_555
Co15 Co20 2.377989 1_456
Co15 Co6 2.471590 1_555
Co15 Co22 2.471617 1_555
Co15 Co2 2.487532 1_555
Co15 Co25 2.487566 1_555
Co15 Co16 2.487588 1_555
Co15 Co9 2.650471 1_555
Co15 La0 3.267161 1_556
Co15 La1 3.267179 1_455
Co16 Co3 2.378013 1_455
Co16 Co21 2.378014 1_555
Co16 Co19 2.471512 1_555
Co16 Co7 2.471524 1_555
Co16 Co23 2.487537 1_555
Co16 Co2 2.487565 1_555
Co16 La0 3.267142 1_555
Co16 La1 3.267150 1_455
Co17 Co23 2.378016 1_555
Co17 Co25 2.378041 1_554
Co17 Co8 2.487560 1_545
Co17 Co3 2.487624 1_554
Co17 Co4 2.487625 1_554
Co17 Co7 2.487658 1_654
Co17 Co5 2.650540 1_555
Co17 La0 3.267057 1_555
Co17 La1 3.267128 1_554
Co18 Co23 2.471614 1_555
Co18 Co2 2.471625 1_555
Co18 Co7 2.487551 1_564
Co18 Co19 2.487599 1_564
Co18 Co5 2.487601 1_465
Co18 Co22 2.487646 1_554
Co18 Co21 2.650543 1_555
Co18 La1 3.267131 1_554
Co18 La0 3.267252 1_565
Co19 Co9 2.378082 1_545
Co19 Co3 2.487574 1_455
Co19 Co22 2.487627 1_545
Co19 Co6 2.487670 1_545
Co19 Co7 2.650507 1_555
Co19 La0 3.267097 1_555
Co19 La1 3.267148 1_545
Co20 Co6 2.487575 1_654
Co20 Co22 2.487588 1_654
Co20 Co4 2.487611 1_564
Co20 Co21 2.487662 1_655
Co20 Co8 2.650570 1_555
Co20 La0 3.267164 1_655
Co20 La1 3.267179 1_554
Co21 Co23 2.471546 1_555
Co21 Co5 2.487603 1_465
Co21 Co22 2.487605 1_554
Co21 Co8 2.487612 1_455
Co21 La0 3.267139 1_555
Co21 La1 3.267147 1_455
Co22 Co25 2.378009 1_555
Co22 Co23 2.378074 1_556
Co22 Co9 2.471531 1_555
Co22 Co6 2.650527 1_555
Co22 La0 3.267097 1_556
Co22 La1 3.267161 1_555
Co23 La0 3.267073 1_555
Co23 La1 3.267188 1_554
Co24 Co6 2.378025 1_645
Co24 Co5 2.378029 1_555
Co24 Co4 2.471526 1_555
Co24 Co3 2.471629 1_555
Co24 Co25 2.650485 1_555
Co24 La1 3.267167 1_545
Co24 La0 3.267303 1_655
Co25 Co4 2.471520 1_555
Co25 Co3 2.471634 1_555
Co25 Co9 2.487554 1_555
Co25 La0 3.267049 1_556
Co25 La1 3.267233 1_555
