# generated using pymatgen
data_Sb12Ru2PtAu
_symmetry_space_group_name_H-M   'P 1'
_cell_length_a   8.17489911
_cell_length_b   8.17286552
_cell_length_c   9.43673740
_cell_angle_alpha   54.43534738
_cell_angle_beta   54.74285222
_cell_angle_gamma   70.45544179
_symmetry_Int_Tables_number   1
_chemical_formula_structural   Sb12Ru2PtAu
_chemical_formula_sum   'Sb12 Ru2 Pt1 Au1'
_cell_volume   418.80046702
_cell_formula_units_Z   1
loop_
 _symmetry_equiv_pos_site_id
 _symmetry_equiv_pos_as_xyz
  1  'x, y, z'
loop_
 _atom_site_type_symbol
 _atom_site_label
 _atom_site_symmetry_multiplicity
 _atom_site_fract_x
 _atom_site_fract_y
 _atom_site_fract_z
 _atom_site_occupancy
  Sb  Sb0  1  0.15505809  0.15402105  0.17625481  1
  Sb  Sb1  1  0.84494191  0.84597895  0.82374519  1
  Sb  Sb2  1  0.84365768  0.85386441  0.50353904  1
  Sb  Sb3  1  0.15634232  0.14613559  0.49646096  1
  Sb  Sb4  1  0.80792476  0.50194639  0.33501564  1
  Sb  Sb5  1  0.19207524  0.49805361  0.66498436  1
  Sb  Sb6  1  0.50741757  0.81488515  0.33461623  1
  Sb  Sb7  1  0.49258243  0.18511485  0.66538377  1
  Sb  Sb8  1  0.64577040  0.33516547  0.85695142  1
  Sb  Sb9  1  0.35422960  0.66483453  0.14304858  1
  Sb  Sb10  1  0.66643274  0.34319083  0.14854863  1
  Sb  Sb11  1  0.33356726  0.65680917  0.85145137  1
  Ru  Ru0  1  0.00000000  0.50000000  0.00000000  1
  Ru  Ru1  1  0.50000000  0.00000000  0.00000000  1
  Pt  Pt0  1  0.50000000  0.00000000  0.50000000  1
  Au  Au0  1  0.00000000  0.50000000  0.50000000  1
loop_
_geom_bond_atom_site_label_1
_geom_bond_atom_site_label_2
_geom_bond_distance
_geom_bond_site_symmetry_2
Sb0 Sb2 2.885336 1_445
Sb0 Sb3 2.990750 1_555
Sb1 Sb3 2.885336 1_665
Sb1 Sb2 2.990750 1_555
Sb4 Sb6 2.893430 1_555
Sb4 Sb7 2.977793 1_555
Sb5 Sb7 2.893430 1_555
Sb5 Sb6 2.977793 1_555
Sb10 Sb8 2.891159 1_554
Sb10 Sb9 2.988670 1_555
Sb11 Sb9 2.891159 1_556
Sb11 Sb8 2.988670 1_555
Ru0 Sb5 2.602177 1_554
Ru0 Sb4 2.602177 1_455
Ru0 Sb11 2.622725 1_554
Ru0 Sb10 2.622725 1_455
Ru0 Sb0 2.633211 1_555
Ru0 Sb1 2.633211 1_454
Ru1 Sb8 2.602186 1_554
Ru1 Sb9 2.602186 1_545
Ru1 Sb6 2.620319 1_545
Ru1 Sb7 2.620319 1_554
Ru1 Sb0 2.635977 1_555
Ru1 Sb1 2.635977 1_544
Pt0 Sb2 2.671524 1_545
Pt0 Sb3 2.671524 1_555
Pt0 Sb10 2.690851 1_555
Pt0 Sb11 2.690851 1_545
Pt0 Sb7 2.702652 1_555
Pt0 Sb6 2.702652 1_545
Au0 Sb2 2.754762 1_455
Au0 Sb3 2.754762 1_555
Au0 Sb9 2.759917 1_555
Au0 Sb8 2.759917 1_455
Au0 Sb4 2.768858 1_455
Au0 Sb5 2.768858 1_555
