# generated using pymatgen
data_Mn3CdP6N13
_symmetry_space_group_name_H-M   'P 1'
_cell_length_a   7.07227827
_cell_length_b   7.03198044
_cell_length_c   7.02546413
_cell_angle_alpha   108.30337996
_cell_angle_beta   109.57327285
_cell_angle_gamma   109.87501164
_symmetry_Int_Tables_number   1
_chemical_formula_structural   Mn3CdP6N13
_chemical_formula_sum   'Mn3 Cd1 P6 N13'
_cell_volume   271.09357740
_cell_formula_units_Z   1
loop_
 _symmetry_equiv_pos_site_id
 _symmetry_equiv_pos_as_xyz
  1  'x, y, z'
loop_
 _atom_site_type_symbol
 _atom_site_label
 _atom_site_symmetry_multiplicity
 _atom_site_fract_x
 _atom_site_fract_y
 _atom_site_fract_z
 _atom_site_occupancy
  Mn  Mn0  1  0.69713930  0.99123263  0.98961320  1
  Mn  Mn1  1  0.99585061  0.98710593  0.69854246  1
  Mn  Mn2  1  0.99562520  0.69767412  0.98476079  1
  Cd  Cd0  1  0.27019550  0.27278783  0.27412153  1
  P  P0  1  0.25386707  0.75556463  0.50327668  1
  P  P1  1  0.75378298  0.25250102  0.50379391  1
  P  P2  1  0.75371702  0.50411948  0.25269012  1
  P  P3  1  0.25456750  0.50367241  0.75594083  1
  P  P4  1  0.50421600  0.75520311  0.25484547  1
  P  P5  1  0.50453606  0.25541578  0.75577376  1
  N  N0  1  0.96387621  0.96728619  0.96923815  1
  N  N1  1  0.72587360  0.27298268  0.27280294  1
  N  N2  1  0.27372500  0.72949124  0.27294826  1
  N  N3  1  0.28659381  0.55880364  0.55868974  1
  N  N4  1  0.55711375  0.55686828  0.28449439  1
  N  N5  1  0.45165402  0.73529126  0.00300683  1
  N  N6  1  0.00291032  0.73368354  0.45019698  1
  N  N7  1  0.55814431  0.28571151  0.55773465  1
  N  N8  1  0.73392580  0.00231349  0.45554469  1
  N  N9  1  0.45056401  0.00316336  0.73496847  1
  N  N10  1  0.73464837  0.45621945  0.00248511  1
  N  N11  1  0.27433194  0.27362402  0.73062326  1
  N  N12  1  0.00314163  0.44928439  0.73390775  1
loop_
_geom_bond_atom_site_label_1
_geom_bond_atom_site_label_2
_geom_bond_distance
_geom_bond_site_symmetry_2
Mn0 N0 1.997316 1_555
Mn0 N9 2.086146 1_565
Mn0 N5 2.086498 1_556
Mn0 N1 2.214604 1_566
Mn1 N0 2.029890 1_555
Mn1 N6 2.094832 1_655
Mn1 N8 2.118436 1_565
Mn1 N11 2.169880 1_665
Mn2 N0 2.014865 1_555
Mn2 N12 2.086157 1_655
Mn2 N10 2.112102 1_556
Mn2 N2 2.183060 1_656
Cd0 N0 2.175438 1_444
Cd0 N4 2.273045 1_555
Cd0 N7 2.273150 1_555
Cd0 N3 2.283858 1_555
N1 P1 1.626271 1_555
N1 P2 1.626585 1_555
N2 P0 1.629485 1_555
N2 P4 1.630654 1_555
N3 P3 1.615558 1_555
N3 P0 1.617165 1_555
N4 P4 1.616638 1_555
N4 P2 1.620988 1_555
N5 P4 1.629873 1_555
N5 P3 1.633435 1_554
N6 P0 1.627144 1_555
N6 P2 1.630163 1_455
N7 P5 1.615418 1_555
N7 P1 1.621098 1_555
N8 P4 1.629017 1_545
N8 P1 1.629524 1_555
N9 P5 1.628786 1_555
N9 P0 1.634646 1_545
N10 P5 1.629991 1_554
N10 P2 1.630926 1_555
N11 P3 1.630275 1_555
N11 P5 1.631387 1_555
N12 P3 1.627285 1_555
N12 P1 1.632121 1_455
