# generated using pymatgen
data_Cs4Zr6SiBr18
_symmetry_space_group_name_H-M   'P 1'
_cell_length_a   10.62398846
_cell_length_b   11.12617923
_cell_length_c   11.20545634
_cell_angle_alpha   117.76165932
_cell_angle_beta   100.72703224
_cell_angle_gamma   105.24165993
_symmetry_Int_Tables_number   1
_chemical_formula_structural   Cs4Zr6SiBr18
_chemical_formula_sum   'Cs4 Zr6 Si1 Br18'
_cell_volume   1054.39493299
_cell_formula_units_Z   1
loop_
 _symmetry_equiv_pos_site_id
 _symmetry_equiv_pos_as_xyz
  1  'x, y, z'
loop_
 _atom_site_type_symbol
 _atom_site_label
 _atom_site_symmetry_multiplicity
 _atom_site_fract_x
 _atom_site_fract_y
 _atom_site_fract_z
 _atom_site_occupancy
  Cs  Cs0  1  0.67801680  0.54387742  0.23570172  1
  Cs  Cs1  1  0.32198320  0.45612258  0.76429828  1
  Cs  Cs2  1  0.70887360  0.22867801  0.56822382  1
  Cs  Cs3  1  0.29112640  0.77132199  0.43177618  1
  Zr  Zr0  1  0.15718471  0.05920358  0.23299729  1
  Zr  Zr1  1  0.84281529  0.94079642  0.76700271  1
  Zr  Zr2  1  0.85441339  0.11815803  0.12625479  1
  Zr  Zr3  1  0.14558661  0.88184197  0.87374521  1
  Zr  Zr4  1  0.15282412  0.24298846  0.04836498  1
  Zr  Zr5  1  0.84717588  0.75701154  0.95163502  1
  Si  Si0  1  0.00000000  0.00000000  0.00000000  1
  Br  Br0  1  0.00663820  0.39303032  0.18718045  1
  Br  Br1  1  0.99336180  0.60696968  0.81281955  1
  Br  Br2  1  0.33466700  0.33001554  0.30719890  1
  Br  Br3  1  0.66533300  0.66998446  0.69280110  1
  Br  Br4  1  0.32196857  0.51375014  0.10446541  1
  Br  Br5  1  0.67803143  0.48624986  0.89553459  1
  Br  Br6  1  0.00215108  0.80109843  0.20373424  1
  Br  Br7  1  0.99784892  0.19890157  0.79626576  1
  Br  Br8  1  0.69839571  0.24956008  0.26534083  1
  Br  Br9  1  0.30160429  0.75043992  0.73465917  1
  Br  Br10  1  0.32223459  0.13635454  0.91466919  1
  Br  Br11  1  0.67776541  0.86364546  0.08533081  1
  Br  Br12  1  0.01432364  0.19484490  0.39352900  1
  Br  Br13  1  0.98567636  0.80515510  0.60647100  1
  Br  Br14  1  0.32361440  0.93311971  0.11558633  1
  Br  Br15  1  0.67638560  0.06688029  0.88441367  1
  Br  Br16  1  0.33324928  0.12543797  0.49130525  1
  Br  Br17  1  0.66675072  0.87456203  0.50869475  1
loop_
_geom_bond_atom_site_label_1
_geom_bond_atom_site_label_2
_geom_bond_distance
_geom_bond_site_symmetry_2
Si0 Zr1 2.497105 1_444
Si0 Zr0 2.497105 1_555
Si0 Zr4 2.497695 1_555
Si0 Zr5 2.497695 1_444
Si0 Zr3 2.504625 1_544
Si0 Zr2 2.504625 1_455
Br0 Zr4 2.731646 1_555
Br0 Zr2 2.734601 1_455
Br0 Cs3 3.720636 1_555
Br0 Cs0 4.270695 1_455
Br1 Zr5 2.731646 1_555
Br1 Zr3 2.734601 1_655
Br1 Cs2 3.720636 1_555
Br1 Cs1 4.270695 1_655
Br2 Zr4 2.719600 1_555
Br2 Zr0 2.724113 1_555
Br2 Cs0 4.232015 1_555
Br3 Zr5 2.719600 1_555
Br3 Zr1 2.724113 1_555
Br3 Cs1 4.232015 1_555
Br4 Zr4 2.769241 1_555
Br4 Cs1 3.558632 1_554
Br4 Cs3 3.594618 1_555
Br4 Cs0 3.658791 1_555
Br5 Zr5 2.769241 1_555
Br5 Cs0 3.558632 1_556
Br5 Cs2 3.594618 1_555
Br5 Cs1 3.658791 1_555
Br6 Zr5 2.735783 1_454
Br6 Zr0 2.738973 1_565
Br6 Cs3 3.803653 1_555
Br6 Cs0 4.050880 1_455
Br7 Zr4 2.735783 1_656
Br7 Zr1 2.738973 1_545
Br7 Cs2 3.803653 1_555
Br7 Cs1 4.050880 1_655
Br8 Zr2 2.725244 1_555
Br8 Cs2 3.491815 1_555
Br8 Cs0 3.498504 1_555
Br9 Zr3 2.725244 1_555
Br9 Cs3 3.491815 1_555
Br9 Cs1 3.498504 1_555
Br10 Zr4 2.713294 1_556
Br10 Zr3 2.725224 1_545
Br10 Cs0 4.303338 1_556
Br11 Zr5 2.713294 1_554
Br11 Zr2 2.725224 1_565
Br11 Cs1 4.303338 1_554
Br12 Zr0 2.740184 1_555
Br12 Zr2 2.747188 1_455
Br12 Cs1 3.884958 1_555
Br12 Cs2 4.101811 1_455
Br13 Zr1 2.740184 1_555
Br13 Zr3 2.747188 1_655
Br13 Cs0 3.884958 1_555
Br13 Cs3 4.101811 1_655
Br14 Zr0 2.697399 1_565
Br14 Zr3 2.707553 1_554
Br15 Zr1 2.697399 1_545
Br15 Zr2 2.707553 1_556
Br16 Zr0 2.773525 1_555
Br16 Cs3 3.561174 1_545
Br16 Cs1 3.576550 1_555
Br16 Cs2 3.657127 1_555
Br17 Zr1 2.773525 1_555
Br17 Cs2 3.561174 1_565
Br17 Cs0 3.576550 1_555
Br17 Cs3 3.657127 1_555
