# generated using pymatgen
data_Ta3Cd4SbO14
_symmetry_space_group_name_H-M   'P 1'
_cell_length_a   7.33172345
_cell_length_b   7.33172313
_cell_length_c   7.33172442
_cell_angle_alpha   60.23838140
_cell_angle_beta   60.23838726
_cell_angle_gamma   60.23838381
_symmetry_Int_Tables_number   1
_chemical_formula_structural   Ta3Cd4SbO14
_chemical_formula_sum   'Ta3 Cd4 Sb1 O14'
_cell_volume   280.18228415
_cell_formula_units_Z   1
loop_
 _symmetry_equiv_pos_site_id
 _symmetry_equiv_pos_as_xyz
  1  'x, y, z'
loop_
 _atom_site_type_symbol
 _atom_site_label
 _atom_site_symmetry_multiplicity
 _atom_site_fract_x
 _atom_site_fract_y
 _atom_site_fract_z
 _atom_site_occupancy
  Ta  Ta0  1  0.12500000  0.62500000  0.62500000  1
  Ta  Ta1  1  0.62500000  0.12500000  0.62500000  1
  Ta  Ta2  1  0.62500000  0.62500000  0.12500000  1
  Cd  Cd0  1  0.62500000  0.12500000  0.12500000  1
  Cd  Cd1  1  0.12500000  0.62500000  0.12500000  1
  Cd  Cd2  1  0.12500000  0.12500000  0.62500000  1
  Cd  Cd3  1  0.12500000  0.12500000  0.12500000  1
  Sb  Sb0  1  0.62500000  0.62500000  0.62500000  1
  O  O0  1  0.69513149  0.69513149  0.30623815  1
  O  O1  1  0.30784361  0.30784361  0.69132020  1
  O  O2  1  0.69513149  0.30623815  0.69513149  1
  O  O3  1  0.30784361  0.69132020  0.30784361  1
  O  O4  1  0.30623815  0.69513149  0.69513149  1
  O  O5  1  0.69132020  0.30784361  0.30784361  1
  O  O6  1  0.55486851  0.55486851  0.94376185  1
  O  O7  1  0.94215639  0.94215639  0.55867980  1
  O  O8  1  0.55486851  0.94376185  0.55486851  1
  O  O9  1  0.94215639  0.55867980  0.94215639  1
  O  O10  1  0.94376185  0.55486851  0.55486851  1
  O  O11  1  0.55867980  0.94215639  0.94215639  1
  O  O12  1  0.24926664  0.24926664  0.24926664  1
  O  O13  1  0.00073336  0.00073336  0.00073336  1
loop_
_geom_bond_atom_site_label_1
_geom_bond_atom_site_label_2
_geom_bond_distance
_geom_bond_site_symmetry_2
Cd0 O13 2.256007 1_655
Cd0 O12 2.256007 1_555
Cd0 O6 2.622002 1_554
Cd0 O0 2.622002 1_545
Cd0 O8 2.622003 1_545
Cd0 O2 2.622003 1_554
Cd0 O5 2.628502 1_555
Cd0 O11 2.628502 1_544
Cd1 O13 2.256006 1_565
Cd1 O12 2.256006 1_555
Cd1 O6 2.622003 1_554
Cd1 O0 2.622003 1_455
Cd1 O10 2.622003 1_455
Cd1 O4 2.622003 1_554
Cd1 O3 2.628502 1_555
Cd1 O9 2.628502 1_454
Cd2 O13 2.256007 1_556
Cd2 O12 2.256007 1_555
Cd2 O10 2.622002 1_455
Cd2 O4 2.622002 1_545
Cd2 O8 2.622003 1_545
Cd2 O2 2.622003 1_455
Cd2 O1 2.628502 1_555
Cd2 O7 2.628502 1_445
Cd3 O12 2.227673 1_555
Cd3 O13 2.227673 1_555
Cd3 O9 2.650450 1_454
Cd3 O3 2.650450 1_545
Cd3 O11 2.650450 1_544
Cd3 O5 2.650450 1_455
Cd3 O7 2.650450 1_445
Cd3 O1 2.650450 1_554
O0 Sb0 1.966502 1_555
O0 Ta2 1.978271 1_555
O1 Ta0 1.967353 1_555
O1 Ta1 1.967353 1_555
O2 Sb0 1.966502 1_555
O2 Ta1 1.978270 1_555
O3 Ta2 1.967353 1_555
O3 Ta0 1.967354 1_555
O4 Sb0 1.966502 1_555
O4 Ta0 1.978270 1_555
O5 Ta2 1.967353 1_555
O5 Ta1 1.967353 1_555
O6 Sb0 1.966502 1_555
O6 Ta2 1.978271 1_556
O7 Ta0 1.967353 1_655
O7 Ta1 1.967353 1_565
O8 Sb0 1.966502 1_555
O8 Ta1 1.978270 1_565
O9 Ta2 1.967353 1_556
O9 Ta0 1.967354 1_655
O10 Sb0 1.966502 1_555
O10 Ta0 1.978270 1_655
O11 Ta2 1.967353 1_556
O11 Ta1 1.967353 1_565
