# generated using pymatgen
data_Rb3NaCdBr6
_symmetry_space_group_name_H-M   'P 1'
_cell_length_a   9.11119334
_cell_length_b   9.11119377
_cell_length_c   9.11119303
_cell_angle_alpha   92.92045455
_cell_angle_beta   92.92045963
_cell_angle_gamma   92.92045226
_symmetry_Int_Tables_number   1
_chemical_formula_structural   Rb3NaCdBr6
_chemical_formula_sum   'Rb6 Na2 Cd2 Br12'
_cell_volume   753.30392770
_cell_formula_units_Z   2
loop_
 _symmetry_equiv_pos_site_id
 _symmetry_equiv_pos_as_xyz
  1  'x, y, z'
loop_
 _atom_site_type_symbol
 _atom_site_label
 _atom_site_symmetry_multiplicity
 _atom_site_fract_x
 _atom_site_fract_y
 _atom_site_fract_z
 _atom_site_occupancy
  Rb  Rb0  1  0.36866845  0.13133155  0.75000000  1
  Rb  Rb1  1  0.13133155  0.75000000  0.36866845  1
  Rb  Rb2  1  0.75000000  0.36866845  0.13133155  1
  Rb  Rb3  1  0.63133155  0.86866845  0.25000000  1
  Rb  Rb4  1  0.25000000  0.63133155  0.86866845  1
  Rb  Rb5  1  0.86866845  0.25000000  0.63133155  1
  Na  Na0  1  0.25000000  0.25000000  0.25000000  1
  Na  Na1  1  0.75000000  0.75000000  0.75000000  1
  Cd  Cd0  1  0.00000000  0.00000000  0.00000000  1
  Cd  Cd1  1  0.50000000  0.50000000  0.50000000  1
  Br  Br0  1  0.95983466  0.08483731  0.29453731  1
  Br  Br1  1  0.08483731  0.29453731  0.95983466  1
  Br  Br2  1  0.29453731  0.95983466  0.08483731  1
  Br  Br3  1  0.58483731  0.45983466  0.79453731  1
  Br  Br4  1  0.79453731  0.58483731  0.45983466  1
  Br  Br5  1  0.45983466  0.79453731  0.58483731  1
  Br  Br6  1  0.20546269  0.41516269  0.54016534  1
  Br  Br7  1  0.41516269  0.54016534  0.20546269  1
  Br  Br8  1  0.54016534  0.20546269  0.41516269  1
  Br  Br9  1  0.91516269  0.70546269  0.04016534  1
  Br  Br10  1  0.04016534  0.91516269  0.70546269  1
  Br  Br11  1  0.70546269  0.04016534  0.91516269  1
loop_
_geom_bond_atom_site_label_1
_geom_bond_atom_site_label_2
_geom_bond_distance
_geom_bond_site_symmetry_2
Br0 Cd0 2.801886 1_655
Br0 Na0 3.030635 1_655
Br0 Rb3 3.492320 1_545
Br0 Rb5 3.505326 1_555
Br0 Rb1 3.576743 1_645
Br0 Rb2 3.627654 1_555
Br1 Cd0 2.801886 1_556
Br1 Na0 3.030635 1_556
Br1 Rb5 3.492320 1_455
Br1 Rb4 3.505326 1_555
Br1 Rb2 3.576743 1_456
Br1 Rb0 3.627654 1_555
Br2 Cd0 2.801886 1_565
Br2 Na0 3.030635 1_565
Br2 Rb4 3.492320 1_554
Br2 Rb3 3.505326 1_555
Br2 Rb0 3.576743 1_564
Br2 Rb1 3.627654 1_555
Br3 Cd1 2.801886 1_555
Br3 Na1 3.030635 1_555
Br3 Rb0 3.492321 1_555
Br3 Rb2 3.505326 1_556
Br3 Rb4 3.576743 1_555
Br3 Rb5 3.627654 1_555
Br4 Cd1 2.801886 1_555
Br4 Na1 3.030635 1_555
Br4 Rb2 3.492320 1_555
Br4 Rb1 3.505326 1_655
Br4 Rb5 3.576743 1_555
Br4 Rb3 3.627654 1_555
Br5 Cd1 2.801886 1_555
Br5 Na1 3.030635 1_555
Br5 Rb1 3.492320 1_555
Br5 Rb0 3.505326 1_565
Br5 Rb3 3.576743 1_555
Br5 Rb4 3.627654 1_555
Br6 Cd1 2.801886 1_555
Br6 Na0 3.030635 1_555
Br6 Rb4 3.492320 1_555
Br6 Rb5 3.505326 1_455
Br6 Rb1 3.576743 1_555
Br6 Rb0 3.627654 1_555
Br7 Cd1 2.801886 1_555
Br7 Na0 3.030635 1_555
Br7 Rb3 3.492321 1_555
Br7 Rb4 3.505326 1_554
Br7 Rb2 3.576743 1_555
Br7 Rb1 3.627654 1_555
Br8 Cd1 2.801886 1_555
Br8 Na0 3.030635 1_555
Br8 Rb5 3.492320 1_555
Br8 Rb3 3.505326 1_545
Br8 Rb0 3.576743 1_555
Br8 Rb2 3.627654 1_555
Br9 Cd0 2.801886 1_665
Br9 Na1 3.030635 1_554
Br9 Rb1 3.492320 1_655
Br9 Rb2 3.505326 1_555
Br9 Rb4 3.576743 1_654
Br9 Rb3 3.627654 1_555
Br10 Cd0 2.801886 1_566
Br10 Na1 3.030635 1_455
Br10 Rb0 3.492320 1_565
Br10 Rb1 3.505326 1_555
Br10 Rb5 3.576743 1_465
Br10 Rb4 3.627654 1_555
Br11 Cd0 2.801886 1_656
Br11 Na1 3.030635 1_545
Br11 Rb2 3.492320 1_556
Br11 Rb0 3.505326 1_555
Br11 Rb3 3.576743 1_546
Br11 Rb5 3.627654 1_555
