# generated using pymatgen
data_CaFe3As12Ir
_symmetry_space_group_name_H-M   'P 1'
_cell_length_a   7.24013852
_cell_length_b   7.24013684
_cell_length_c   7.24013859
_cell_angle_alpha   109.49784218
_cell_angle_beta   109.49784021
_cell_angle_gamma   109.49784531
_symmetry_Int_Tables_number   1
_chemical_formula_structural   CaFe3As12Ir
_chemical_formula_sum   'Ca1 Fe3 As12 Ir1'
_cell_volume   291.87025433
_cell_formula_units_Z   1
loop_
 _symmetry_equiv_pos_site_id
 _symmetry_equiv_pos_as_xyz
  1  'x, y, z'
loop_
 _atom_site_type_symbol
 _atom_site_label
 _atom_site_symmetry_multiplicity
 _atom_site_fract_x
 _atom_site_fract_y
 _atom_site_fract_z
 _atom_site_occupancy
  Ca  Ca0  1  0.00000000  0.00000000  0.00000000  1
  Fe  Fe0  1  0.50000000  0.00000000  0.00000000  1
  Fe  Fe1  1  0.00000000  0.50000000  0.00000000  1
  Fe  Fe2  1  0.00000000  0.00000000  0.50000000  1
  As  As0  1  0.85917975  0.66098814  0.50289488  1
  As  As1  1  0.14082025  0.33901186  0.49710512  1
  As  As2  1  0.15477449  0.65882194  0.81197330  1
  As  As3  1  0.84522551  0.34117806  0.18802670  1
  As  As4  1  0.66098814  0.50289488  0.85917975  1
  As  As5  1  0.33901186  0.49710512  0.14082025  1
  As  As6  1  0.65882194  0.81197330  0.15477449  1
  As  As7  1  0.34117806  0.18802670  0.84522551  1
  As  As8  1  0.50289488  0.85917975  0.66098814  1
  As  As9  1  0.49710512  0.14082025  0.33901186  1
  As  As10  1  0.18802670  0.84522551  0.34117806  1
  As  As11  1  0.81197330  0.15477449  0.65882194  1
  Ir  Ir0  1  0.50000000  0.50000000  0.50000000  1
loop_
_geom_bond_atom_site_label_1
_geom_bond_atom_site_label_2
_geom_bond_distance
_geom_bond_site_symmetry_2
As0 Fe2 2.332928 1_665
As0 Ir0 2.458778 1_555
As0 As2 2.537116 1_655
As0 As3 2.595192 1_555
As0 Ca0 3.162355 1_666
As1 Fe2 2.332928 1_555
As1 Ir0 2.458778 1_555
As1 As3 2.537116 1_455
As1 As2 2.595192 1_555
As1 Ca0 3.162355 1_555
As2 Fe0 2.358965 1_566
As2 Fe1 2.373680 1_556
As2 Ca0 3.135616 1_566
As3 Fe0 2.358965 1_555
As3 Fe1 2.373680 1_655
As3 Ca0 3.135616 1_655
As4 Fe1 2.332928 1_656
As4 Ir0 2.458778 1_555
As4 As6 2.537116 1_556
As4 As7 2.595192 1_555
As4 Ca0 3.162354 1_666
As5 Fe1 2.332928 1_555
As5 Ir0 2.458778 1_555
As5 As7 2.537116 1_554
As5 As6 2.595192 1_555
As5 Ca0 3.162354 1_555
As6 Fe2 2.358966 1_665
As6 Fe0 2.373680 1_565
As6 Ca0 3.135616 1_665
As7 Fe2 2.358966 1_555
As7 Fe0 2.373680 1_556
As7 Ca0 3.135616 1_556
As8 Fe0 2.332928 1_566
As8 Ir0 2.458777 1_555
As8 Ca0 3.162355 1_666
As9 Fe0 2.332928 1_555
As9 Ir0 2.458777 1_555
As9 Ca0 3.162355 1_555
As10 Fe1 2.358965 1_555
As10 Fe2 2.373680 1_565
As10 As9 2.537116 1_565
As10 As8 2.595192 1_555
As10 Ca0 3.135616 1_565
As11 Fe1 2.358965 1_656
As11 Fe2 2.373680 1_655
As11 As8 2.537116 1_545
As11 As9 2.595192 1_555
As11 Ca0 3.135616 1_656
