# generated using pymatgen
data_BaSm4Si3SeO12
_symmetry_space_group_name_H-M   'P 1'
_cell_length_a   10.04316609
_cell_length_b   10.04316609
_cell_length_c   6.97645700
_cell_angle_alpha   90.00000000
_cell_angle_beta   90.00000000
_cell_angle_gamma   120.00000063
_symmetry_Int_Tables_number   1
_chemical_formula_structural   BaSm4Si3SeO12
_chemical_formula_sum   'Ba2 Sm8 Si6 Se2 O24'
_cell_volume   609.40616168
_cell_formula_units_Z   2
loop_
 _symmetry_equiv_pos_site_id
 _symmetry_equiv_pos_as_xyz
  1  'x, y, z'
loop_
 _atom_site_type_symbol
 _atom_site_label
 _atom_site_symmetry_multiplicity
 _atom_site_fract_x
 _atom_site_fract_y
 _atom_site_fract_z
 _atom_site_occupancy
  Ba  Ba0  1  0.33333300  0.66666700  0.50304700  1
  Ba  Ba1  1  0.66666700  0.33333300  0.00304700  1
  Sm  Sm0  1  0.01535900  0.75779000  0.24682900  1
  Sm  Sm1  1  0.33333300  0.66666700  0.99712700  1
  Sm  Sm2  1  0.24221000  0.25756900  0.24682900  1
  Sm  Sm3  1  0.74243100  0.98464100  0.24682900  1
  Sm  Sm4  1  0.25756900  0.01535900  0.74682900  1
  Sm  Sm5  1  0.75779000  0.74243100  0.74682900  1
  Sm  Sm6  1  0.66666700  0.33333300  0.49712700  1
  Sm  Sm7  1  0.98464100  0.24221000  0.74682900  1
  Si  Si0  1  0.02771300  0.40449200  0.25149000  1
  Si  Si1  1  0.37677900  0.97228700  0.25149000  1
  Si  Si2  1  0.40449200  0.37677900  0.75149000  1
  Si  Si3  1  0.59550800  0.62322100  0.25149000  1
  Si  Si4  1  0.62322100  0.02771300  0.75149000  1
  Si  Si5  1  0.97228700  0.59550800  0.75149000  1
  Se  Se0  1  0.00000000  0.00000000  0.99920300  1
  Se  Se1  1  0.00000000  0.00000000  0.49920300  1
  O  O0  1  0.25691100  0.89853400  0.43506200  1
  O  O1  1  0.26401100  0.91532700  0.06054800  1
  O  O2  1  0.15691100  0.67110000  0.77924300  1
  O  O3  1  0.11707300  0.59479900  0.22703500  1
  O  O4  1  0.08467300  0.34868300  0.06054800  1
  O  O5  1  0.10146600  0.35837700  0.43506200  1
  O  O6  1  0.47772600  0.88292700  0.22703500  1
  O  O7  1  0.51418900  0.84308900  0.77924300  1
  O  O8  1  0.32890000  0.48581100  0.77924300  1
  O  O9  1  0.40520100  0.52227400  0.22703500  1
  O  O10  1  0.34868300  0.26401100  0.56054800  1
  O  O11  1  0.35837700  0.25691100  0.93506200  1
  O  O12  1  0.65131700  0.73598900  0.06054800  1
  O  O13  1  0.64162300  0.74308900  0.43506200  1
  O  O14  1  0.59479900  0.47772600  0.72703500  1
  O  O15  1  0.67110000  0.51418900  0.27924300  1
  O  O16  1  0.48581100  0.15691100  0.27924300  1
  O  O17  1  0.52227400  0.11707300  0.72703500  1
  O  O18  1  0.91532700  0.65131700  0.56054800  1
  O  O19  1  0.89853400  0.64162300  0.93506200  1
  O  O20  1  0.88292700  0.40520100  0.72703500  1
  O  O21  1  0.84308900  0.32890000  0.27924300  1
  O  O22  1  0.74308900  0.10146600  0.93506200  1
  O  O23  1  0.73598900  0.08467300  0.56054800  1
loop_
_geom_bond_atom_site_label_1
_geom_bond_atom_site_label_2
_geom_bond_distance
_geom_bond_site_symmetry_2
Ba0 O2 2.633077 1_555
Ba0 O7 2.633080 1_555
Ba0 O8 2.633084 1_555
Ba0 O3 2.716337 1_555
Ba0 O6 2.716339 1_555
Ba0 O9 2.716344 1_555
Ba0 O0 2.832683 1_555
Ba0 O5 2.832689 1_555
Ba0 O13 2.832692 1_555
Ba1 O21 2.633077 1_555
Ba1 O16 2.633080 1_555
Ba1 O15 2.633084 1_555
Ba1 O20 2.716337 1_554
Ba1 O17 2.716339 1_554
Ba1 O14 2.716344 1_554
Ba1 O22 2.832683 1_554
Ba1 O19 2.832689 1_554
Ba1 O11 2.832692 1_554
Se0 Sm2 3.049719 1_556
Se0 Sm3 3.049719 1_446
Se0 Sm0 3.049719 1_546
Se0 Sm5 3.068604 1_445
Se0 Sm4 3.068604 1_555
Se0 Sm7 3.068604 1_455
Se1 Sm5 3.049719 1_445
Se1 Sm4 3.049719 1_555
Se1 Sm7 3.049719 1_455
Se1 Sm2 3.068604 1_555
Se1 Sm3 3.068604 1_445
Se1 Sm0 3.068604 1_545
O0 Si1 1.657214 1_555
O0 Sm4 2.469749 1_565
O0 Sm0 2.485684 1_555
O1 Si1 1.654243 1_555
O1 Sm4 2.422531 1_564
O1 Sm0 2.545068 1_555
O2 Si5 1.626117 1_455
O2 Sm1 2.351775 1_555
O2 Sm4 3.087369 1_565
O3 Si0 1.665008 1_555
O3 Sm0 2.326881 1_555
O3 Sm1 2.498648 1_554
O4 Si0 1.654248 1_555
O4 Sm7 2.422529 1_454
O4 Sm2 2.545061 1_555
O5 Si0 1.657214 1_555
O5 Sm7 2.469749 1_455
O5 Sm2 2.485684 1_555
O6 Si1 1.665008 1_555
O6 Sm3 2.326881 1_555
O6 Sm1 2.498649 1_554
O7 Si4 1.626117 1_565
O7 Sm1 2.351779 1_555
O7 Sm5 3.087369 1_555
O8 Si2 1.626117 1_555
O8 Sm1 2.351783 1_555
O8 Sm7 3.087369 1_455
O9 Si3 1.665008 1_555
O9 Sm2 2.326881 1_555
O9 Sm1 2.498655 1_554
O10 Si2 1.654243 1_555
O10 Sm2 2.422527 1_555
O10 Sm4 2.545069 1_555
O11 Si2 1.657214 1_555
O11 Sm2 2.469749 1_556
O11 Sm4 2.485684 1_555
O12 Si3 1.654243 1_555
O12 Sm5 2.422527 1_554
O12 Sm3 2.545069 1_555
O13 Si3 1.657214 1_555
O13 Sm5 2.469749 1_555
O13 Sm3 2.485684 1_555
O14 Si2 1.665008 1_555
O14 Sm5 2.326881 1_555
O14 Sm6 2.498655 1_555
O15 Si3 1.626117 1_555
O15 Sm6 2.351783 1_555
O15 Sm0 3.087369 1_655
O16 Si1 1.626117 1_545
O16 Sm6 2.351779 1_555
O16 Sm2 3.087369 1_555
O17 Si4 1.665008 1_555
O17 Sm4 2.326881 1_555
O17 Sm6 2.498649 1_555
O18 Si5 1.654248 1_555
O18 Sm0 2.422529 1_655
O18 Sm5 2.545061 1_555
O19 Si5 1.657214 1_555
O19 Sm0 2.469749 1_656
O19 Sm5 2.485684 1_555
O20 Si5 1.665008 1_555
O20 Sm7 2.326881 1_555
O20 Sm6 2.498648 1_555
O21 Si0 1.626117 1_655
O21 Sm6 2.351775 1_555
O21 Sm3 3.087369 1_545
O22 Si4 1.657214 1_555
O22 Sm3 2.469749 1_546
O22 Sm7 2.485684 1_555
O23 Si4 1.654243 1_555
O23 Sm3 2.422531 1_545
O23 Sm7 2.545068 1_555
