# generated using pymatgen
data_Rb2Ti2Pb2O7
_symmetry_space_group_name_H-M   'P 1'
_cell_length_a   6.02327440
_cell_length_b   6.02327416
_cell_length_c   8.23451754
_cell_angle_alpha   90.00000000
_cell_angle_beta   90.00000000
_cell_angle_gamma   120.00000132
_symmetry_Int_Tables_number   1
_chemical_formula_structural   Rb2Ti2Pb2O7
_chemical_formula_sum   'Rb2 Ti2 Pb2 O7'
_cell_volume   258.72241974
_cell_formula_units_Z   1
loop_
 _symmetry_equiv_pos_site_id
 _symmetry_equiv_pos_as_xyz
  1  'x, y, z'
loop_
 _atom_site_type_symbol
 _atom_site_label
 _atom_site_symmetry_multiplicity
 _atom_site_fract_x
 _atom_site_fract_y
 _atom_site_fract_z
 _atom_site_occupancy
  Rb  Rb0  1  0.66666700  0.33333300  0.91346247  1
  Rb  Rb1  1  0.33333300  0.66666700  0.08653753  1
  Ti  Ti0  1  0.00000000  0.00000000  0.27530286  1
  Ti  Ti1  1  0.00000000  0.00000000  0.72469714  1
  Pb  Pb0  1  0.33333300  0.66666700  0.63251339  1
  Pb  Pb1  1  0.66666700  0.33333300  0.36748661  1
  O  O0  1  0.82140145  0.15145618  0.20694136  1
  O  O1  1  0.17859855  0.84854382  0.79305864  1
  O  O2  1  0.33005472  0.17859855  0.20694136  1
  O  O3  1  0.00000000  0.00000000  0.50000000  1
  O  O4  1  0.15145618  0.33005472  0.79305864  1
  O  O5  1  0.84854382  0.66994528  0.20694136  1
  O  O6  1  0.66994528  0.82140145  0.79305864  1
loop_
_geom_bond_atom_site_label_1
_geom_bond_atom_site_label_2
_geom_bond_distance
_geom_bond_site_symmetry_2
O0 Ti0 1.813203 1_655
O0 Pb1 2.199426 1_555
O0 Rb0 2.988308 1_554
O0 Rb1 3.093150 1_545
O0 Rb1 3.248430 1_655
O1 Ti1 1.813203 1_565
O1 Pb0 2.199426 1_555
O1 Rb1 2.988308 1_556
O1 Rb0 3.093150 1_565
O1 Rb0 3.248430 1_455
O2 Ti0 1.813203 1_555
O2 Pb1 2.199430 1_555
O2 Rb0 2.988311 1_554
O2 Rb1 3.093153 1_555
O2 Rb1 3.248428 1_545
O3 Ti1 1.850273 1_555
O3 Ti0 1.850273 1_555
O4 Ti1 1.813203 1_555
O4 Pb0 2.199430 1_555
O4 Rb1 2.988311 1_556
O4 Rb0 3.093148 1_455
O4 Rb0 3.248433 1_555
O5 Ti0 1.813203 1_665
O5 Pb1 2.199430 1_555
O5 Rb0 2.988311 1_554
O5 Rb1 3.093148 1_655
O5 Rb1 3.248433 1_555
O6 Ti1 1.813203 1_665
O6 Pb0 2.199430 1_555
O6 Rb1 2.988311 1_556
O6 Rb0 3.093153 1_555
O6 Rb0 3.248428 1_565
