# generated using pymatgen
data_Hf16IrPt7
_symmetry_space_group_name_H-M   'P 1'
_cell_length_a   8.78471118
_cell_length_b   8.78471039
_cell_length_c   8.78471109
_cell_angle_alpha   59.93272132
_cell_angle_beta   59.93272268
_cell_angle_gamma   59.93272007
_symmetry_Int_Tables_number   1
_chemical_formula_structural   Hf16IrPt7
_chemical_formula_sum   'Hf16 Ir1 Pt7'
_cell_volume   478.63469159
_cell_formula_units_Z   1
loop_
 _symmetry_equiv_pos_site_id
 _symmetry_equiv_pos_as_xyz
  1  'x, y, z'
loop_
 _atom_site_type_symbol
 _atom_site_label
 _atom_site_symmetry_multiplicity
 _atom_site_fract_x
 _atom_site_fract_y
 _atom_site_fract_z
 _atom_site_occupancy
  Hf  Hf0  1  0.11764353  0.62891086  0.62891086  1
  Hf  Hf1  1  0.62891086  0.11764353  0.62891086  1
  Hf  Hf2  1  0.62891086  0.62891086  0.11764353  1
  Hf  Hf3  1  0.62299206  0.62299206  0.62299206  1
  Hf  Hf4  1  0.81380052  0.81380052  0.18392515  1
  Hf  Hf5  1  0.18711609  0.18711609  0.81354575  1
  Hf  Hf6  1  0.81380052  0.18392515  0.81380052  1
  Hf  Hf7  1  0.18711609  0.81354575  0.18711609  1
  Hf  Hf8  1  0.18392515  0.81380052  0.81380052  1
  Hf  Hf9  1  0.81354575  0.18711609  0.18711609  1
  Hf  Hf10  1  0.43727158  0.43727158  0.06402567  1
  Hf  Hf11  1  0.06323460  0.06323460  0.43819097  1
  Hf  Hf12  1  0.43727158  0.06402567  0.43727158  1
  Hf  Hf13  1  0.06323460  0.43819097  0.06323460  1
  Hf  Hf14  1  0.06402567  0.43727158  0.43727158  1
  Hf  Hf15  1  0.43819097  0.06323460  0.06323460  1
  Ir  Ir0  1  0.85167239  0.85167239  0.85167239  1
  Pt  Pt0  1  0.79484084  0.40034122  0.40034122  1
  Pt  Pt1  1  0.40034122  0.79484084  0.40034122  1
  Pt  Pt2  1  0.40034122  0.40034122  0.79484084  1
  Pt  Pt3  1  0.40272319  0.40272319  0.40272319  1
  Pt  Pt4  1  0.45553993  0.84677490  0.84677490  1
  Pt  Pt5  1  0.84677490  0.45553993  0.84677490  1
  Pt  Pt6  1  0.84677490  0.84677490  0.45553993  1
loop_
_geom_bond_atom_site_label_1
_geom_bond_atom_site_label_2
_geom_bond_distance
_geom_bond_site_symmetry_2
Hf0 Pt6 2.791378 1_455
Hf0 Pt5 2.791378 1_455
Hf0 Ir0 2.791444 1_455
Hf0 Pt2 2.832263 1_555
Hf0 Pt1 2.832263 1_555
Hf0 Pt3 2.855123 1_555
Hf0 Hf8 3.186498 1_555
Hf0 Hf11 3.187867 1_565
Hf0 Hf13 3.187867 1_556
Hf0 Hf14 3.212356 1_555
Hf0 Hf5 3.221255 1_555
Hf0 Hf7 3.221255 1_555
Hf1 Pt6 2.791378 1_545
Hf1 Pt4 2.791378 1_545
Hf1 Ir0 2.791444 1_545
Hf1 Pt2 2.832263 1_555
Hf1 Pt0 2.832263 1_555
Hf1 Pt3 2.855123 1_555
Hf1 Hf6 3.186498 1_555
Hf1 Hf15 3.187867 1_556
Hf1 Hf11 3.187867 1_655
Hf1 Hf12 3.212356 1_555
Hf1 Hf9 3.221255 1_555
Hf1 Hf5 3.221255 1_555
Hf2 Pt5 2.791378 1_554
Hf2 Pt4 2.791378 1_554
Hf2 Ir0 2.791444 1_554
Hf2 Pt1 2.832263 1_555
Hf2 Pt0 2.832263 1_555
Hf2 Pt3 2.855123 1_555
Hf2 Hf4 3.186498 1_555
Hf2 Hf9 3.221255 1_555
Hf2 Hf7 3.221255 1_555
Hf3 Pt0 2.801109 1_555
Hf3 Pt2 2.801109 1_555
Hf3 Pt1 2.801109 1_555
Hf3 Pt4 2.823162 1_555
Hf3 Pt6 2.823162 1_555
Hf3 Pt5 2.823162 1_555
Hf3 Hf6 3.217907 1_555
Hf3 Hf8 3.217908 1_555
Hf3 Hf4 3.217908 1_555
Hf4 Ir0 2.627795 1_554
Hf4 Pt6 2.707456 1_555
Hf4 Pt0 3.194378 1_555
Hf4 Pt1 3.194379 1_555
Hf4 Hf6 3.248131 1_564
Hf4 Hf8 3.248131 1_654
Hf4 Hf9 3.292477 1_565
Hf4 Hf7 3.292478 1_655
Hf5 Pt4 2.708365 1_545
Hf5 Pt5 2.708365 1_455
Hf5 Pt2 3.153261 1_555
Hf5 Pt3 3.177301 1_555
Hf5 Hf7 3.278370 1_546
Hf5 Hf9 3.278370 1_456
Hf5 Hf8 3.292477 1_545
Hf5 Hf6 3.292478 1_455
Hf6 Ir0 2.627795 1_545
Hf6 Pt5 2.707456 1_555
Hf6 Pt2 3.194379 1_555
Hf6 Pt0 3.194379 1_555
Hf6 Hf8 3.248131 1_645
Hf6 Hf9 3.292478 1_556
Hf7 Pt6 2.708365 1_455
Hf7 Pt4 2.708365 1_554
Hf7 Pt1 3.153262 1_555
Hf7 Pt3 3.177301 1_555
Hf7 Hf9 3.278370 1_465
Hf7 Hf8 3.292478 1_554
Hf8 Ir0 2.627795 1_455
Hf8 Pt4 2.707456 1_555
Hf8 Pt2 3.194378 1_555
Hf8 Pt1 3.194379 1_555
Hf9 Pt6 2.708365 1_545
Hf9 Pt5 2.708365 1_554
Hf9 Pt0 3.153261 1_555
Hf9 Pt3 3.177301 1_555
Hf10 Pt3 2.705473 1_555
Hf10 Pt2 2.728603 1_554
Hf10 Pt4 3.162472 1_554
Hf10 Pt5 3.162473 1_554
Hf10 Hf2 3.212356 1_555
Hf10 Hf3 3.214605 1_554
Hf10 Hf12 3.275522 1_555
Hf10 Hf14 3.275523 1_555
Hf10 Hf15 3.285250 1_555
Hf10 Hf13 3.285251 1_555
Hf10 Hf7 3.293369 1_555
Hf10 Hf9 3.293369 1_555
Hf10 Hf8 3.311485 1_554
Hf10 Hf6 3.311485 1_554
Hf11 Pt0 2.691068 1_455
Hf11 Pt1 2.691068 1_545
Hf11 Ir0 3.167663 1_445
Hf11 Pt6 3.208942 1_445
Hf11 Hf8 3.278062 1_545
Hf11 Hf6 3.278062 1_455
Hf11 Hf14 3.285250 1_555
Hf11 Hf12 3.285251 1_555
Hf11 Hf13 3.290533 1_555
Hf11 Hf15 3.290533 1_555
Hf11 Hf7 3.303172 1_545
Hf11 Hf9 3.303172 1_455
Hf12 Pt3 2.705473 1_555
Hf12 Pt1 2.728602 1_545
Hf12 Pt6 3.162473 1_545
Hf12 Pt4 3.162473 1_545
Hf12 Hf3 3.214604 1_545
Hf12 Hf14 3.275522 1_555
Hf12 Hf15 3.285251 1_555
Hf12 Hf5 3.293369 1_555
Hf12 Hf9 3.293370 1_555
Hf12 Hf4 3.311485 1_545
Hf12 Hf8 3.311485 1_545
Hf13 Pt2 2.691068 1_554
Hf13 Pt0 2.691068 1_455
Hf13 Ir0 3.167662 1_454
Hf13 Hf2 3.187867 1_455
Hf13 Pt5 3.208942 1_454
Hf13 Hf4 3.278062 1_455
Hf13 Hf8 3.278062 1_554
Hf13 Hf14 3.285251 1_555
Hf13 Hf15 3.290533 1_555
Hf13 Hf5 3.303172 1_554
Hf13 Hf9 3.303172 1_455
Hf14 Pt3 2.705473 1_555
Hf14 Pt0 2.728603 1_455
Hf14 Pt6 3.162472 1_455
Hf14 Pt5 3.162473 1_455
Hf14 Hf3 3.214605 1_455
Hf14 Hf7 3.293369 1_555
Hf14 Hf5 3.293369 1_555
Hf14 Hf4 3.311485 1_455
Hf14 Hf6 3.311485 1_455
Hf15 Pt2 2.691068 1_554
Hf15 Pt1 2.691068 1_545
Hf15 Ir0 3.167663 1_544
Hf15 Hf2 3.187867 1_545
Hf15 Pt4 3.208942 1_544
Hf15 Hf4 3.278062 1_545
Hf15 Hf6 3.278062 1_554
Hf15 Hf7 3.303172 1_545
Hf15 Hf5 3.303172 1_554
