# generated using pymatgen
data_Hf6HgPbC4
_symmetry_space_group_name_H-M   'P 1'
_cell_length_a   3.31970026
_cell_length_b   3.31969981
_cell_length_c   19.84901718
_cell_angle_alpha   90.00000000
_cell_angle_beta   90.00000000
_cell_angle_gamma   120.00000449
_symmetry_Int_Tables_number   1
_chemical_formula_structural   Hf6HgPbC4
_chemical_formula_sum   'Hf6 Hg1 Pb1 C4'
_cell_volume   189.43809009
_cell_formula_units_Z   1
loop_
 _symmetry_equiv_pos_site_id
 _symmetry_equiv_pos_as_xyz
  1  'x, y, z'
loop_
 _atom_site_type_symbol
 _atom_site_label
 _atom_site_symmetry_multiplicity
 _atom_site_fract_x
 _atom_site_fract_y
 _atom_site_fract_z
 _atom_site_occupancy
  Hf  Hf0  1  0.00000000  0.00000000  0.99914096  1
  Hf  Hf1  1  0.33333300  0.66666600  0.12584544  1
  Hf  Hf2  1  0.33333300  0.66666600  0.37415456  1
  Hf  Hf3  1  0.00000000  0.00000000  0.50085904  1
  Hf  Hf4  1  0.66666500  0.33333300  0.62840546  1
  Hf  Hf5  1  0.66666500  0.33333300  0.87159454  1
  Hg  Hg0  1  0.00000000  0.00000000  0.75000000  1
  Pb  Pb0  1  0.00000000  0.00000000  0.25000000  1
  C  C0  1  0.66666500  0.33333300  0.06860995  1
  C  C1  1  0.66666500  0.33333300  0.43139005  1
  C  C2  1  0.33333300  0.66666600  0.57033428  1
  C  C3  1  0.33333300  0.66666600  0.92966572  1
loop_
_geom_bond_atom_site_label_1
_geom_bond_atom_site_label_2
_geom_bond_distance
_geom_bond_site_symmetry_2
Hf1 Pb0 3.121933 1_555
Hf1 Pb0 3.121934 1_665
Hf1 Pb0 3.121934 1_565
Hf2 Pb0 3.121933 1_555
Hf2 Pb0 3.121934 1_665
Hf2 Pb0 3.121934 1_565
Hf4 Hg0 3.081978 1_555
Hf4 Hg0 3.081981 1_665
Hf4 Hg0 3.081983 1_655
Hf5 Hg0 3.081978 1_555
Hf5 Hg0 3.081981 1_665
Hf5 Hg0 3.081983 1_655
C0 Hf1 2.228026 1_555
C0 Hf1 2.228031 1_545
C0 Hf1 2.228034 1_655
C0 Hf0 2.361100 1_554
C0 Hf0 2.361104 1_664
C0 Hf0 2.361107 1_654
C1 Hf2 2.228026 1_555
C1 Hf2 2.228031 1_545
C1 Hf2 2.228034 1_655
C1 Hf3 2.361100 1_555
C1 Hf3 2.361104 1_665
C1 Hf3 2.361107 1_655
C2 Hf4 2.236530 1_555
C2 Hf4 2.236535 1_565
C2 Hf4 2.236538 1_455
C2 Hf3 2.361174 1_555
C2 Hf3 2.361177 1_665
C2 Hf3 2.361177 1_565
C3 Hf5 2.236530 1_555
C3 Hf5 2.236535 1_565
C3 Hf5 2.236538 1_455
C3 Hf0 2.361174 1_555
C3 Hf0 2.361177 1_665
C3 Hf0 2.361177 1_565
