# generated using pymatgen
data_Ti3P
_symmetry_space_group_name_H-M   'P 1'
_cell_length_a   4.97516196
_cell_length_b   9.93869416
_cell_length_c   9.93869416
_cell_angle_alpha   90.00000000
_cell_angle_beta   90.00000000
_cell_angle_gamma   90.00000000
_symmetry_Int_Tables_number   1
_chemical_formula_structural   Ti3P
_chemical_formula_sum   'Ti24 P8'
_cell_volume   491.43476537
_cell_formula_units_Z   8
loop_
 _symmetry_equiv_pos_site_id
 _symmetry_equiv_pos_as_xyz
  1  'x, y, z'
loop_
 _atom_site_type_symbol
 _atom_site_label
 _atom_site_symmetry_multiplicity
 _atom_site_fract_x
 _atom_site_fract_y
 _atom_site_fract_z
 _atom_site_occupancy
  Ti  Ti0  1  0.53154537  0.11035523  0.22155339  1
  Ti  Ti1  1  0.03154537  0.77844661  0.61035523  1
  Ti  Ti2  1  0.03154537  0.72155339  0.88964477  1
  Ti  Ti3  1  0.53154537  0.38964477  0.27844661  1
  Ti  Ti4  1  0.46845463  0.88964477  0.77844661  1
  Ti  Ti5  1  0.96845463  0.22155339  0.38964477  1
  Ti  Ti6  1  0.96845463  0.27844661  0.11035523  1
  Ti  Ti7  1  0.46845463  0.61035523  0.72155339  1
  Ti  Ti8  1  0.26002030  0.53365515  0.06879980  1
  Ti  Ti9  1  0.76002030  0.93120020  0.03365515  1
  Ti  Ti10  1  0.76002030  0.56879980  0.46634485  1
  Ti  Ti11  1  0.26002030  0.96634485  0.43120020  1
  Ti  Ti12  1  0.73997970  0.46634485  0.93120020  1
  Ti  Ti13  1  0.23997970  0.06879980  0.96634485  1
  Ti  Ti14  1  0.23997970  0.43120020  0.53365515  1
  Ti  Ti15  1  0.73997970  0.03365515  0.56879980  1
  Ti  Ti16  1  0.78500170  0.64310223  0.16685062  1
  Ti  Ti17  1  0.28500170  0.83314938  0.14310223  1
  Ti  Ti18  1  0.28500170  0.66685062  0.35689777  1
  Ti  Ti19  1  0.78500170  0.85689777  0.33314938  1
  Ti  Ti20  1  0.21499830  0.35689777  0.83314938  1
  Ti  Ti21  1  0.71499830  0.16685062  0.85689777  1
  Ti  Ti22  1  0.71499830  0.33314938  0.64310223  1
  Ti  Ti23  1  0.21499830  0.14310223  0.66685062  1
  P  P0  1  0.96361761  0.54341920  0.70863877  1
  P  P1  1  0.46361761  0.29136123  0.04341920  1
  P  P2  1  0.46361761  0.20863877  0.45658080  1
  P  P3  1  0.96361761  0.95658080  0.79136123  1
  P  P4  1  0.03638239  0.45658080  0.29136123  1
  P  P5  1  0.53638239  0.70863877  0.95658080  1
  P  P6  1  0.53638239  0.79136123  0.54341920  1
  P  P7  1  0.03638239  0.04341920  0.20863877  1
loop_
_geom_bond_atom_site_label_1
_geom_bond_atom_site_label_2
_geom_bond_distance
_geom_bond_site_symmetry_2
P0 Ti14 2.481712 1_655
P0 Ti22 2.514264 1_555
P0 Ti2 2.546541 1_655
P0 Ti1 2.554337 1_655
P0 Ti7 2.554986 1_555
P0 Ti20 2.555775 1_655
P0 Ti12 2.591824 1_555
P0 Ti7 2.601424 1_655
P0 Ti10 2.624601 1_555
P1 Ti12 2.481712 1_554
P1 Ti20 2.514264 1_554
P1 Ti0 2.546541 1_555
P1 Ti3 2.554337 1_555
P1 Ti6 2.554986 1_455
P1 Ti21 2.555775 1_554
P1 Ti13 2.591824 1_554
P1 Ti6 2.601424 1_555
P1 Ti8 2.624601 1_555
P2 Ti15 2.481712 1_555
P2 Ti23 2.514264 1_555
P2 Ti3 2.546541 1_555
P2 Ti0 2.554337 1_555
P2 Ti5 2.554986 1_455
P2 Ti22 2.555775 1_555
P2 Ti14 2.591824 1_555
P2 Ti5 2.601424 1_555
P2 Ti11 2.624601 1_545
P3 Ti13 2.481712 1_665
P3 Ti21 2.514264 1_565
P3 Ti1 2.546541 1_655
P3 Ti2 2.554337 1_655
P3 Ti4 2.554986 1_555
P3 Ti23 2.555775 1_665
P3 Ti15 2.591824 1_565
P3 Ti4 2.601424 1_655
P3 Ti9 2.624601 1_556
P4 Ti10 2.481712 1_455
P4 Ti18 2.514264 1_555
P4 Ti6 2.546541 1_455
P4 Ti5 2.554337 1_455
P4 Ti3 2.554986 1_555
P4 Ti16 2.555775 1_455
P4 Ti8 2.591824 1_555
P4 Ti3 2.601424 1_455
P4 Ti14 2.624601 1_555
P5 Ti8 2.481712 1_556
P5 Ti16 2.514264 1_556
P5 Ti4 2.546541 1_555
P5 Ti7 2.554337 1_555
P5 Ti2 2.554986 1_655
P5 Ti17 2.555775 1_556
P5 Ti9 2.591824 1_556
P5 Ti2 2.601424 1_555
P5 Ti12 2.624601 1_555
P6 Ti11 2.481712 1_555
P6 Ti19 2.514264 1_555
P6 Ti7 2.546541 1_555
P6 Ti4 2.554337 1_555
P6 Ti1 2.554986 1_655
P6 Ti18 2.555775 1_555
P6 Ti10 2.591824 1_555
P6 Ti1 2.601424 1_555
P6 Ti15 2.624601 1_565
P7 Ti9 2.481712 1_445
P7 Ti17 2.514264 1_545
P7 Ti5 2.546541 1_455
P7 Ti6 2.554337 1_455
P7 Ti0 2.554986 1_555
P7 Ti19 2.555775 1_445
P7 Ti11 2.591824 1_545
P7 Ti0 2.601424 1_455
P7 Ti13 2.624601 1_554
