# generated using pymatgen
data_Sr(CeSe2)2
_symmetry_space_group_name_H-M   'P 1'
_cell_length_a   7.85390050
_cell_length_b   7.85390050
_cell_length_c   7.85390050
_cell_angle_alpha   109.45282412
_cell_angle_beta   109.45282412
_cell_angle_gamma   109.50801993
_symmetry_Int_Tables_number   1
_chemical_formula_structural   Sr(CeSe2)2
_chemical_formula_sum   'Sr2 Ce4 Se8'
_cell_volume   372.93587216
_cell_formula_units_Z   2
loop_
 _symmetry_equiv_pos_site_id
 _symmetry_equiv_pos_as_xyz
  1  'x, y, z'
loop_
 _atom_site_type_symbol
 _atom_site_label
 _atom_site_symmetry_multiplicity
 _atom_site_fract_x
 _atom_site_fract_y
 _atom_site_fract_z
 _atom_site_occupancy
  Sr  Sr0  1  0.75000000  0.25000000  0.50000000  1
  Sr  Sr1  1  0.50000000  0.50000000  0.00000000  1
  Ce  Ce0  1  0.99823100  0.37500000  0.12323100  1
  Ce  Ce1  1  0.25176900  0.87500000  0.87676900  1
  Ce  Ce2  1  0.62500000  0.74823100  0.62323100  1
  Ce  Ce3  1  0.12500000  0.00176900  0.37676900  1
  Se  Se0  1  0.51988000  0.11534400  0.74905000  1
  Se  Se1  1  0.02083100  0.11629400  0.75095000  1
  Se  Se2  1  0.36534400  0.26988000  0.24905000  1
  Se  Se3  1  0.22916900  0.48012000  0.59546400  1
  Se  Se4  1  0.36629400  0.77083100  0.25095000  1
  Se  Se5  1  0.88370600  0.63465600  0.90453600  1
  Se  Se6  1  0.88465600  0.63370600  0.40453600  1
  Se  Se7  1  0.73012000  0.97916900  0.09546400  1
loop_
_geom_bond_atom_site_label_1
_geom_bond_atom_site_label_2
_geom_bond_distance
_geom_bond_site_symmetry_2
Ce0 Se4 3.002797 1_655
Ce0 Se7 3.002798 1_545
Ce0 Se6 3.055882 1_555
Ce0 Se1 3.055887 1_654
Ce0 Se3 3.194817 1_655
Ce0 Se2 3.194817 1_655
Ce0 Se5 3.232201 1_554
Ce0 Se0 3.232201 1_554
Ce1 Se5 3.002792 1_455
Ce1 Se0 3.002792 1_565
Ce1 Se3 3.055878 1_555
Ce1 Se2 3.055882 1_566
Ce1 Se1 3.194812 1_565
Ce1 Se6 3.194817 1_455
Ce1 Se4 3.232196 1_556
Ce1 Se7 3.232203 1_556
Ce2 Se1 3.002797 1_665
Ce2 Se3 3.002798 1_555
Ce2 Se5 3.055882 1_555
Ce2 Se4 3.055887 1_555
Ce2 Se7 3.194817 1_556
Ce2 Se0 3.194817 1_565
Ce2 Se2 3.232201 1_555
Ce2 Se6 3.232201 1_555
Ce3 Se6 3.002792 1_445
Ce3 Se2 3.002792 1_555
Ce3 Se7 3.055878 1_445
Ce3 Se0 3.055882 1_555
Ce3 Se4 3.194812 1_545
Ce3 Se5 3.194817 1_444
Ce3 Se1 3.232196 1_555
Ce3 Se3 3.232203 1_555
Se0 Sr1 3.096738 1_556
Se0 Sr0 3.266012 1_555
Se1 Sr0 3.096743 1_455
Se1 Sr1 3.266007 1_556
Se2 Sr0 3.096738 1_555
Se2 Sr1 3.266012 1_555
Se3 Sr1 3.096741 1_556
Se3 Sr0 3.266005 1_455
Se4 Sr1 3.096743 1_555
Se4 Sr0 3.266007 1_565
Se5 Sr0 3.096738 1_555
Se5 Sr1 3.266012 1_556
Se6 Sr1 3.096738 1_555
Se6 Sr0 3.266012 1_555
Se7 Sr0 3.096741 1_565
Se7 Sr1 3.266005 1_555
