# generated using pymatgen
data_KBaCoF6
_symmetry_space_group_name_H-M   'P 1'
_cell_length_a   5.67522883
_cell_length_b   5.67522874
_cell_length_c   5.67522914
_cell_angle_alpha   59.99999214
_cell_angle_beta   59.99999267
_cell_angle_gamma   59.99999458
_symmetry_Int_Tables_number   1
_chemical_formula_structural   KBaCoF6
_chemical_formula_sum   'K1 Ba1 Co1 F6'
_cell_volume   129.25134867
_cell_formula_units_Z   1
loop_
 _symmetry_equiv_pos_site_id
 _symmetry_equiv_pos_as_xyz
  1  'x, y, z'
loop_
 _atom_site_type_symbol
 _atom_site_label
 _atom_site_symmetry_multiplicity
 _atom_site_fract_x
 _atom_site_fract_y
 _atom_site_fract_z
 _atom_site_occupancy
  K  K0  1  0.25000000  0.25000000  0.25000000  1
  Ba  Ba0  1  0.75000000  0.75000000  0.75000000  1
  Co  Co0  1  0.00000000  0.00000000  0.00000000  1
  F  F0  1  0.77074188  0.77074188  0.22925812  1
  F  F1  1  0.22925812  0.77074188  0.22925812  1
  F  F2  1  0.77074188  0.22925812  0.22925812  1
  F  F3  1  0.22925812  0.22925812  0.77074188  1
  F  F4  1  0.77074188  0.22925812  0.77074188  1
  F  F5  1  0.22925812  0.77074188  0.77074188  1
loop_
_geom_bond_atom_site_label_1
_geom_bond_atom_site_label_2
_geom_bond_distance
_geom_bond_site_symmetry_2
Ba0 F2 2.842493 1_556
Ba0 F2 2.842493 1_565
Ba0 F3 2.842493 1_655
Ba0 F3 2.842493 1_565
Ba0 F1 2.842493 1_556
Ba0 F1 2.842493 1_655
Ba0 F4 2.842493 1_555
Ba0 F5 2.842493 1_555
Ba0 F4 2.842493 1_565
Ba0 F5 2.842494 1_655
Ba0 F0 2.842494 1_555
Ba0 F0 2.842494 1_556
Co0 F3 1.840022 1_554
Co0 F0 1.840022 1_445
Co0 F1 1.840022 1_545
Co0 F2 1.840022 1_455
Co0 F4 1.840022 1_454
Co0 F5 1.840022 1_544
F0 K0 2.842493 1_655
F0 K0 2.842493 1_565
F1 K0 2.842493 1_555
F1 K0 2.842493 1_565
F2 K0 2.842493 1_555
F2 K0 2.842494 1_655
F3 K0 2.842494 1_555
F3 K0 2.842494 1_556
F4 K0 2.842493 1_556
F4 K0 2.842493 1_655
F5 K0 2.842493 1_556
F5 K0 2.842493 1_565
