# generated using pymatgen
data_Ba2V3O9
_symmetry_space_group_name_H-M   'P 1'
_cell_length_a   5.96825600
_cell_length_b   8.51145900
_cell_length_c   9.47349095
_cell_angle_alpha   65.72294200
_cell_angle_beta   90.00000000
_cell_angle_gamma   90.00000000
_symmetry_Int_Tables_number   1
_chemical_formula_structural   Ba2V3O9
_chemical_formula_sum   'Ba4 V6 O18'
_cell_volume   438.68275328
_cell_formula_units_Z   2
loop_
 _symmetry_equiv_pos_site_id
 _symmetry_equiv_pos_as_xyz
  1  'x, y, z'
loop_
 _atom_site_type_symbol
 _atom_site_label
 _atom_site_symmetry_multiplicity
 _atom_site_fract_x
 _atom_site_fract_y
 _atom_site_fract_z
 _atom_site_occupancy
  Ba  Ba0  1  0.25037300  0.79891000  0.09038200  1
  Ba  Ba1  1  0.75037300  0.20109000  0.90961800  1
  Ba  Ba2  1  0.24797400  0.20861500  0.26396600  1
  Ba  Ba3  1  0.74797400  0.79138500  0.73603400  1
  V  V0  1  0.01947800  0.51313100  0.49355900  1
  V  V1  1  0.51947800  0.48686900  0.50644100  1
  V  V2  1  0.25013800  0.48295300  0.82041800  1
  V  V3  1  0.24994900  0.08233200  0.68934900  1
  V  V4  1  0.75013800  0.51704700  0.17958200  1
  V  V5  1  0.74994900  0.91766800  0.31065100  1
  O  O0  1  0.75372000  0.67986100  0.42532600  1
  O  O1  1  0.01844500  0.01176400  0.80745900  1
  O  O2  1  0.51844500  0.98823600  0.19254100  1
  O  O3  1  0.97873900  0.98933500  0.18966300  1
  O  O4  1  0.74830200  0.34873700  0.57162700  1
  O  O5  1  0.47873900  0.01066500  0.81033700  1
  O  O6  1  0.25372000  0.32013900  0.57467400  1
  O  O7  1  0.49683900  0.52231100  0.70369700  1
  O  O8  1  0.24973900  0.61376800  0.91635000  1
  O  O9  1  0.75268800  0.01631000  0.43350200  1
  O  O10  1  0.24830200  0.65126300  0.42837300  1
  O  O11  1  0.25268800  0.98369000  0.56649800  1
  O  O12  1  0.50374300  0.47909300  0.29625800  1
  O  O13  1  0.25073100  0.27249400  0.95133400  1
  O  O14  1  0.00374300  0.52090700  0.70374200  1
  O  O15  1  0.74973900  0.38623200  0.08365000  1
  O  O16  1  0.75073100  0.72750600  0.04866600  1
  O  O17  1  0.99683900  0.47768900  0.29630300  1
loop_
_geom_bond_atom_site_label_1
_geom_bond_atom_site_label_2
_geom_bond_distance
_geom_bond_site_symmetry_2
Ba0 O8 2.708839 1_554
Ba0 O2 2.715797 1_555
Ba0 O3 2.719070 1_455
Ba0 O5 2.865759 1_564
Ba0 O1 2.896406 1_564
Ba0 O10 2.919438 1_555
Ba0 O12 3.022385 1_555
Ba0 O17 3.030596 1_455
Ba0 O16 3.100857 1_455
Ba0 O16 3.104967 1_555
Ba1 O15 2.708839 1_556
Ba1 O1 2.715797 1_655
Ba1 O5 2.719070 1_555
Ba1 O3 2.865759 1_546
Ba1 O2 2.896406 1_546
Ba1 O4 2.919438 1_555
Ba1 O14 3.022385 1_655
Ba1 O7 3.030596 1_555
Ba1 O13 3.100857 1_555
Ba1 O13 3.104967 1_655
Ba2 O11 2.714442 1_545
Ba2 O2 2.761470 1_545
Ba2 O3 2.764278 1_445
Ba2 O13 2.782715 1_554
Ba2 O17 2.856983 1_455
Ba2 O12 2.881466 1_555
Ba3 O9 2.714442 1_565
Ba3 O1 2.761470 1_665
Ba3 O5 2.764278 1_565
Ba3 O16 2.782715 1_556
Ba3 O7 2.856983 1_555
Ba3 O14 2.881466 1_655
O0 V5 1.862651 1_555
O0 V0 2.047722 1_655
O0 V1 2.050674 1_555
O1 V3 1.723115 1_555
O2 V5 1.723115 1_555
O3 V5 1.724942 1_555
O4 V1 1.741176 1_555
O4 V0 2.067184 1_655
O5 V3 1.724942 1_555
O6 V3 1.862651 1_555
O6 V1 2.047722 1_555
O6 V0 2.050674 1_555
O7 V2 1.788353 1_555
O7 V1 2.016148 1_555
O8 V2 1.702275 1_555
O9 V5 1.692089 1_545
O10 V0 1.741176 1_555
O10 V1 2.067184 1_555
O11 V3 1.692089 1_565
O12 V4 1.787457 1_555
O12 V1 2.021463 1_555
O13 V2 1.708840 1_555
O14 V2 1.787457 1_555
O14 V0 2.021463 1_555
O15 V4 1.702275 1_555
O16 V4 1.708840 1_555
O17 V4 1.788353 1_555
O17 V0 2.016148 1_655
