# generated using pymatgen
data_Ti3V(ZnC)2
_symmetry_space_group_name_H-M   'P 1'
_cell_length_a   16.46292607
_cell_length_b   16.46292900
_cell_length_c   8.33839775
_cell_angle_alpha   90.00000000
_cell_angle_beta   90.00000000
_cell_angle_gamma   158.82766017
_symmetry_Int_Tables_number   1
_chemical_formula_structural   Ti3V(ZnC)2
_chemical_formula_sum   'Ti24 V8 Zn16 C16'
_cell_volume   816.23224370
_cell_formula_units_Z   8
loop_
 _symmetry_equiv_pos_site_id
 _symmetry_equiv_pos_as_xyz
  1  'x, y, z'
loop_
 _atom_site_type_symbol
 _atom_site_label
 _atom_site_symmetry_multiplicity
 _atom_site_fract_x
 _atom_site_fract_y
 _atom_site_fract_z
 _atom_site_occupancy
  Ti  Ti0_0  1  0.10612499  0.39387501  0.37500000  1
  Ti  Ti0_1  1  0.10612499  0.39387501  0.87500000  1
  Ti  Ti0_2  1  0.10612499  0.89387501  0.37500000  1
  Ti  Ti0_3  1  0.10612499  0.89387501  0.87500000  1
  Ti  Ti0_4  1  0.60612499  0.39387501  0.37500000  1
  Ti  Ti0_5  1  0.60612499  0.39387501  0.87500000  1
  Ti  Ti0_6  1  0.60612499  0.89387501  0.37500000  1
  Ti  Ti0_7  1  0.60612499  0.89387501  0.87500000  1
  Ti  Ti1_0  1  0.30544031  0.19455969  0.12500000  1
  Ti  Ti1_1  1  0.30544031  0.19455969  0.62500000  1
  Ti  Ti1_2  1  0.30544031  0.69455969  0.12500000  1
  Ti  Ti1_3  1  0.30544031  0.69455969  0.62500000  1
  Ti  Ti1_4  1  0.80544031  0.19455969  0.12500000  1
  Ti  Ti1_5  1  0.80544031  0.19455969  0.62500000  1
  Ti  Ti1_6  1  0.80544031  0.69455969  0.12500000  1
  Ti  Ti1_7  1  0.80544031  0.69455969  0.62500000  1
  Ti  Ti2_0  1  0.19469937  0.30530063  0.37500000  1
  Ti  Ti2_1  1  0.19469937  0.30530063  0.87500000  1
  Ti  Ti2_2  1  0.19469937  0.80530063  0.37500000  1
  Ti  Ti2_3  1  0.19469937  0.80530063  0.87500000  1
  Ti  Ti2_4  1  0.69469937  0.30530063  0.37500000  1
  Ti  Ti2_5  1  0.69469937  0.30530063  0.87500000  1
  Ti  Ti2_6  1  0.69469937  0.80530063  0.37500000  1
  Ti  Ti2_7  1  0.69469937  0.80530063  0.87500000  1
  V  V0_0  1  0.39283503  0.10716497  0.12500000  1
  V  V0_1  1  0.39283503  0.10716497  0.62500000  1
  V  V0_2  1  0.39283503  0.60716497  0.12500000  1
  V  V0_3  1  0.39283503  0.60716497  0.62500000  1
  V  V0_4  1  0.89283503  0.10716497  0.12500000  1
  V  V0_5  1  0.89283503  0.10716497  0.62500000  1
  V  V0_6  1  0.89283503  0.60716497  0.12500000  1
  V  V0_7  1  0.89283503  0.60716497  0.62500000  1
  Zn  Zn0_0  1  0.47854211  0.02145789  0.12500000  1
  Zn  Zn0_1  1  0.47854211  0.02145789  0.62500000  1
  Zn  Zn0_2  1  0.47854211  0.52145789  0.12500000  1
  Zn  Zn0_3  1  0.47854211  0.52145789  0.62500000  1
  Zn  Zn0_4  1  0.97854211  0.02145789  0.12500000  1
  Zn  Zn0_5  1  0.97854211  0.02145789  0.62500000  1
  Zn  Zn0_6  1  0.97854211  0.52145789  0.12500000  1
  Zn  Zn0_7  1  0.97854211  0.52145789  0.62500000  1
  Zn  Zn1_0  1  0.02065703  0.47934297  0.37500000  1
  Zn  Zn1_1  1  0.02065703  0.47934297  0.87500000  1
  Zn  Zn1_2  1  0.02065703  0.97934297  0.37500000  1
  Zn  Zn1_3  1  0.02065703  0.97934297  0.87500000  1
  Zn  Zn1_4  1  0.52065703  0.47934297  0.37500000  1
  Zn  Zn1_5  1  0.52065703  0.47934297  0.87500000  1
  Zn  Zn1_6  1  0.52065703  0.97934297  0.37500000  1
  Zn  Zn1_7  1  0.52065703  0.97934297  0.87500000  1
  C  C0_0  1  0.10065419  0.39934581  0.12500000  1
  C  C0_1  1  0.10065419  0.39934581  0.62500000  1
  C  C0_2  1  0.10065419  0.89934581  0.12500000  1
  C  C0_3  1  0.10065419  0.89934581  0.62500000  1
  C  C0_4  1  0.60065419  0.39934581  0.12500000  1
  C  C0_5  1  0.60065419  0.39934581  0.62500000  1
  C  C0_6  1  0.60065419  0.89934581  0.12500000  1
  C  C0_7  1  0.60065419  0.89934581  0.62500000  1
  C  C1_0  1  0.40104697  0.09895303  0.37500000  1
  C  C1_1  1  0.40104697  0.09895303  0.87500000  1
  C  C1_2  1  0.40104697  0.59895303  0.37500000  1
  C  C1_3  1  0.40104697  0.59895303  0.87500000  1
  C  C1_4  1  0.90104697  0.09895303  0.37500000  1
  C  C1_5  1  0.90104697  0.09895303  0.87500000  1
  C  C1_6  1  0.90104697  0.59895303  0.37500000  1
  C  C1_7  1  0.90104697  0.59895303  0.87500000  1
loop_
_geom_bond_atom_site_label_1
_geom_bond_atom_site_label_2
_geom_bond_distance
_geom_bond_site_symmetry_2
Ti0_0 Zn1_0 2.766209 1_555
Ti0_1 Zn1_1 2.766209 1_555
Ti0_2 Zn1_2 2.766209 1_555
Ti0_3 Zn1_3 2.766209 1_555
Ti0_4 Zn1_4 2.766209 1_555
Ti0_5 Zn1_5 2.766209 1_555
Ti0_6 Zn1_6 2.766209 1_555
Ti0_7 Zn1_7 2.766209 1_555
Ti1_0 Zn1_3 2.810655 1_544
Ti1_0 Zn1_2 2.810655 1_545
Ti1_0 Zn1_5 2.810656 1_554
Ti1_0 Zn1_4 2.810656 1_555
Ti1_0 Zn0_4 2.912250 1_455
Ti1_0 Zn0_2 2.912251 1_555
Ti1_1 Zn1_2 2.810655 1_545
Ti1_1 Zn1_3 2.810655 1_545
Ti1_1 Zn1_4 2.810656 1_555
Ti1_1 Zn1_5 2.810656 1_555
Ti1_1 Zn0_5 2.912250 1_455
Ti1_1 Zn0_3 2.912251 1_555
Ti1_2 Zn1_0 2.810655 1_555
Ti1_2 Zn1_1 2.810655 1_554
Ti1_2 Zn1_7 2.810656 1_554
Ti1_2 Zn1_6 2.810656 1_555
Ti1_2 Zn0_6 2.912250 1_455
Ti1_2 Zn0_0 2.912251 1_565
Ti1_3 Zn1_0 2.810655 1_555
Ti1_3 Zn1_1 2.810655 1_555
Ti1_3 Zn1_6 2.810656 1_555
Ti1_3 Zn1_7 2.810656 1_555
Ti1_3 Zn0_7 2.912250 1_455
Ti1_3 Zn0_1 2.912251 1_565
Ti1_4 Zn1_7 2.810655 1_544
Ti1_4 Zn1_6 2.810655 1_545
Ti1_4 Zn1_0 2.810656 1_655
Ti1_4 Zn1_1 2.810656 1_654
Ti1_4 Zn0_0 2.912250 1_555
Ti1_4 Zn0_6 2.912251 1_555
Ti1_5 Zn1_6 2.810655 1_545
Ti1_5 Zn1_7 2.810655 1_545
Ti1_5 Zn1_0 2.810656 1_655
Ti1_5 Zn1_1 2.810656 1_655
Ti1_5 Zn0_1 2.912250 1_555
Ti1_5 Zn0_7 2.912251 1_555
Ti1_6 Zn1_5 2.810655 1_554
Ti1_6 Zn1_4 2.810655 1_555
Ti1_6 Zn1_3 2.810656 1_654
Ti1_6 Zn1_2 2.810656 1_655
Ti1_6 Zn0_2 2.912250 1_555
Ti1_6 Zn0_4 2.912251 1_565
Ti1_7 Zn1_4 2.810655 1_555
Ti1_7 Zn1_5 2.810655 1_555
Ti1_7 Zn1_2 2.810656 1_655
Ti1_7 Zn1_3 2.810656 1_655
Ti1_7 Zn0_3 2.912250 1_555
Ti1_7 Zn0_5 2.912251 1_565
Ti2_0 Zn0_3 2.798601 1_555
Ti2_0 Zn0_2 2.798601 1_555
Ti2_0 Zn0_5 2.798602 1_455
Ti2_0 Zn0_4 2.798602 1_455
Ti2_0 Zn1_4 2.886278 1_555
Ti2_0 Zn1_2 2.886280 1_545
Ti2_1 Zn0_2 2.798601 1_556
Ti2_1 Zn0_3 2.798601 1_555
Ti2_1 Zn0_4 2.798602 1_456
Ti2_1 Zn0_5 2.798602 1_455
Ti2_1 Zn1_5 2.886278 1_555
Ti2_1 Zn1_3 2.886280 1_545
Ti2_2 Zn0_1 2.798601 1_565
Ti2_2 Zn0_0 2.798601 1_565
Ti2_2 Zn0_7 2.798602 1_455
Ti2_2 Zn0_6 2.798602 1_455
Ti2_2 Zn1_6 2.886278 1_555
Ti2_2 Zn1_0 2.886280 1_555
Ti2_3 Zn0_0 2.798601 1_566
Ti2_3 Zn0_1 2.798601 1_565
Ti2_3 Zn0_6 2.798602 1_456
Ti2_3 Zn0_7 2.798602 1_455
Ti2_3 Zn1_7 2.886278 1_555
Ti2_3 Zn1_1 2.886280 1_555
Ti2_4 Zn0_7 2.798601 1_555
Ti2_4 Zn0_6 2.798601 1_555
Ti2_4 Zn0_1 2.798602 1_555
Ti2_4 Zn0_0 2.798602 1_555
Ti2_4 Zn1_0 2.886278 1_655
Ti2_4 Zn1_6 2.886280 1_545
Ti2_5 Zn0_6 2.798601 1_556
Ti2_5 Zn0_7 2.798601 1_555
Ti2_5 Zn0_0 2.798602 1_556
Ti2_5 Zn0_1 2.798602 1_555
Ti2_5 Zn1_1 2.886278 1_655
Ti2_5 Zn1_7 2.886280 1_545
Ti2_6 Zn0_5 2.798601 1_565
Ti2_6 Zn0_4 2.798601 1_565
Ti2_6 Zn0_3 2.798602 1_555
Ti2_6 Zn0_2 2.798602 1_555
Ti2_6 Zn1_2 2.886278 1_655
Ti2_6 Zn1_4 2.886280 1_555
Ti2_7 Zn0_4 2.798601 1_566
Ti2_7 Zn0_5 2.798601 1_565
Ti2_7 Zn0_2 2.798602 1_556
Ti2_7 Zn0_3 2.798602 1_555
Ti2_7 Zn1_3 2.886278 1_655
Ti2_7 Zn1_5 2.886280 1_555
V0_0 Zn0_0 2.773948 1_555
V0_1 Zn0_1 2.773948 1_555
V0_2 Zn0_2 2.773948 1_555
V0_3 Zn0_3 2.773948 1_555
V0_4 Zn0_4 2.773948 1_555
V0_5 Zn0_5 2.773948 1_555
V0_6 Zn0_6 2.773948 1_555
V0_7 Zn0_7 2.773948 1_555
Zn0_0 Zn1_7 2.490685 1_544
Zn0_0 Zn1_6 2.490685 1_545
Zn0_0 Zn0_6 3.024472 1_555
Zn0_0 Zn0_6 3.024472 1_445
Zn0_1 Zn1_6 2.490685 1_545
Zn0_1 Zn1_7 2.490685 1_545
Zn0_1 Zn0_7 3.024472 1_555
Zn0_1 Zn0_7 3.024472 1_445
Zn0_2 Zn1_5 2.490685 1_554
Zn0_2 Zn1_4 2.490685 1_555
Zn0_2 Zn0_4 3.024472 1_455
Zn0_2 Zn0_4 3.024472 1_565
Zn0_3 Zn1_4 2.490685 1_555
Zn0_3 Zn1_5 2.490685 1_555
Zn0_3 Zn0_5 3.024472 1_565
Zn0_3 Zn0_5 3.024472 1_455
Zn0_4 Zn1_3 2.490685 1_644
Zn0_4 Zn1_2 2.490685 1_645
Zn0_5 Zn1_2 2.490685 1_645
Zn0_5 Zn1_3 2.490685 1_645
Zn0_6 Zn1_0 2.490685 1_655
Zn0_6 Zn1_1 2.490685 1_654
Zn0_7 Zn1_0 2.490685 1_655
Zn0_7 Zn1_1 2.490685 1_655
Zn1_0 Zn1_6 3.024472 1_445
Zn1_0 Zn1_6 3.024472 1_555
Zn1_1 Zn1_7 3.024472 1_445
Zn1_1 Zn1_7 3.024472 1_555
Zn1_2 Zn1_4 3.024472 1_455
Zn1_2 Zn1_4 3.024472 1_565
Zn1_3 Zn1_5 3.024472 1_455
Zn1_3 Zn1_5 3.024472 1_565
C0_0 V0_2 2.037310 1_555
C0_0 V0_4 2.037311 1_455
C0_0 Ti0_1 2.092106 1_554
C0_0 Ti0_0 2.092106 1_555
C0_0 Ti1_4 2.104353 1_455
C0_0 Ti1_2 2.104354 1_555
C0_1 V0_3 2.037310 1_555
C0_1 V0_5 2.037311 1_455
C0_1 Ti0_0 2.092106 1_555
C0_1 Ti0_1 2.092106 1_555
C0_1 Ti1_5 2.104353 1_455
C0_1 Ti1_3 2.104354 1_555
C0_2 V0_0 2.037310 1_565
C0_2 V0_6 2.037311 1_455
C0_2 Ti0_3 2.092106 1_554
C0_2 Ti0_2 2.092106 1_555
C0_2 Ti1_6 2.104353 1_455
C0_2 Ti1_0 2.104354 1_565
C0_3 V0_1 2.037310 1_565
C0_3 V0_7 2.037311 1_455
C0_3 Ti0_2 2.092106 1_555
C0_3 Ti0_3 2.092106 1_555
C0_3 Ti1_7 2.104353 1_455
C0_3 Ti1_1 2.104354 1_565
C0_4 V0_6 2.037310 1_555
C0_4 V0_0 2.037311 1_555
C0_4 Ti0_4 2.092106 1_555
C0_4 Ti0_5 2.092106 1_554
C0_4 Ti1_0 2.104353 1_555
C0_4 Ti1_6 2.104354 1_555
C0_5 V0_7 2.037310 1_555
C0_5 V0_1 2.037311 1_555
C0_5 Ti0_4 2.092106 1_555
C0_5 Ti0_5 2.092106 1_555
C0_5 Ti1_1 2.104353 1_555
C0_5 Ti1_7 2.104354 1_555
C0_6 V0_4 2.037310 1_565
C0_6 V0_2 2.037311 1_555
C0_6 Ti0_6 2.092106 1_555
C0_6 Ti0_7 2.092106 1_554
C0_6 Ti1_2 2.104353 1_555
C0_6 Ti1_4 2.104354 1_565
C0_7 V0_5 2.037310 1_565
C0_7 V0_3 2.037311 1_555
C0_7 Ti0_6 2.092106 1_555
C0_7 Ti0_7 2.092106 1_555
C0_7 Ti1_3 2.104353 1_555
C0_7 Ti1_5 2.104354 1_565
C1_0 Ti2_4 2.069527 1_555
C1_0 Ti2_2 2.069528 1_545
C1_0 Ti0_2 2.097794 1_545
C1_0 Ti0_4 2.097795 1_555
C1_0 V0_1 2.101475 1_555
C1_0 V0_0 2.101475 1_555
C1_1 Ti2_5 2.069527 1_555
C1_1 Ti2_3 2.069528 1_545
C1_1 Ti0_3 2.097794 1_545
C1_1 Ti0_5 2.097795 1_555
C1_1 V0_0 2.101475 1_556
C1_1 V0_1 2.101475 1_555
C1_2 Ti2_6 2.069527 1_555
C1_2 Ti2_0 2.069528 1_555
C1_2 Ti0_0 2.097794 1_555
C1_2 Ti0_6 2.097795 1_555
C1_2 V0_3 2.101475 1_555
C1_2 V0_2 2.101475 1_555
C1_3 Ti2_7 2.069527 1_555
C1_3 Ti2_1 2.069528 1_555
C1_3 Ti0_1 2.097794 1_555
C1_3 Ti0_7 2.097795 1_555
C1_3 V0_2 2.101475 1_556
C1_3 V0_3 2.101475 1_555
C1_4 Ti2_0 2.069527 1_655
C1_4 Ti2_6 2.069528 1_545
C1_4 Ti0_6 2.097794 1_545
C1_4 Ti0_0 2.097795 1_655
C1_4 V0_5 2.101475 1_555
C1_4 V0_4 2.101475 1_555
C1_5 Ti2_1 2.069527 1_655
C1_5 Ti2_7 2.069528 1_545
C1_5 Ti0_7 2.097794 1_545
C1_5 Ti0_1 2.097795 1_655
C1_5 V0_4 2.101475 1_556
C1_5 V0_5 2.101475 1_555
C1_6 Ti2_2 2.069527 1_655
C1_6 Ti2_4 2.069528 1_555
C1_6 Ti0_4 2.097794 1_555
C1_6 Ti0_2 2.097795 1_655
C1_6 V0_7 2.101475 1_555
C1_6 V0_6 2.101475 1_555
C1_7 Ti2_3 2.069527 1_655
C1_7 Ti2_5 2.069528 1_555
C1_7 Ti0_5 2.097794 1_555
C1_7 Ti0_3 2.097795 1_655
C1_7 V0_6 2.101475 1_556
C1_7 V0_7 2.101475 1_555
