# generated using pymatgen
data_RbSc6(CBr6)2
_symmetry_space_group_name_H-M   'P 1'
_cell_length_a   8.44033269
_cell_length_b   8.45036393
_cell_length_c   8.86133495
_cell_angle_alpha   72.86685250
_cell_angle_beta   71.87598866
_cell_angle_gamma   72.98578198
_symmetry_Int_Tables_number   1
_chemical_formula_structural   RbSc6(CBr6)2
_chemical_formula_sum   'Rb1 Sc6 C2 Br12'
_cell_volume   559.78170131
_cell_formula_units_Z   1
loop_
 _symmetry_equiv_pos_site_id
 _symmetry_equiv_pos_as_xyz
  1  'x, y, z'
loop_
 _atom_site_type_symbol
 _atom_site_label
 _atom_site_symmetry_multiplicity
 _atom_site_fract_x
 _atom_site_fract_y
 _atom_site_fract_z
 _atom_site_occupancy
  Rb  Rb0  1  0.00000761  0.49999608  0.99999102  1
  Sc  Sc0  1  0.46933584  0.11306690  0.18462897  1
  Sc  Sc1  1  0.77025893  0.03156706  0.40738827  1
  Sc  Sc2  1  0.59015568  0.73221176  0.47924941  1
  Sc  Sc3  1  0.40984864  0.26778417  0.52075473  1
  Sc  Sc4  1  0.22974039  0.96844291  0.59260388  1
  Sc  Sc5  1  0.53067420  0.88691312  0.81536881  1
  C  C0  1  0.49085999  0.02572114  0.41964726  1
  C  C1  1  0.50914308  0.97427510  0.58034886  1
  Br  Br0  1  0.79022425  0.15287111  0.08232760  1
  Br  Br1  1  0.57522699  0.78603688  0.13821463  1
  Br  Br2  1  0.34959062  0.42872538  0.22240926  1
  Br  Br3  1  0.13264957  0.06803326  0.29725524  1
  Br  Br4  1  0.91566968  0.72274155  0.35581661  1
  Br  Br5  1  0.70884112  0.35915462  0.43413116  1
  Br  Br6  1  0.29115469  0.64086118  0.56587397  1
  Br  Br7  1  0.08433403  0.27726033  0.64418119  1
  Br  Br8  1  0.86733627  0.93198968  0.70273751  1
  Br  Br9  1  0.65038561  0.57123919  0.77761257  1
  Br  Br10  1  0.42479632  0.21397099  0.86178913  1
  Br  Br11  1  0.20976848  0.84713556  0.91766991  1
loop_
_geom_bond_atom_site_label_1
_geom_bond_atom_site_label_2
_geom_bond_distance
_geom_bond_site_symmetry_2
C0 C1 1.404769 1_545
C0 Sc0 2.041118 1_555
C0 Sc3 2.309663 1_555
C0 Sc2 2.328118 1_545
C0 Sc1 2.341170 1_555
C0 Sc4 2.350801 1_545
C1 Sc5 2.041155 1_555
C1 Sc2 2.309625 1_555
C1 Sc3 2.328112 1_565
C1 Sc4 2.341176 1_555
C1 Sc1 2.350819 1_565
Br0 Sc0 2.663895 1_555
Br0 Sc1 2.726847 1_555
Br0 Rb0 3.639612 1_654
Br1 Sc0 2.756911 1_565
Br1 Sc5 2.845586 1_554
Br1 Sc2 2.957852 1_555
Br1 Rb0 3.760026 1_654
Br2 Sc0 2.643232 1_555
Br2 Sc3 2.722311 1_555
Br2 Rb0 3.851233 1_554
Br3 Sc0 2.803744 1_555
Br3 Sc4 2.804009 1_545
Br3 Sc1 2.986682 1_455
Br3 Rb0 3.910808 1_554
Br4 Sc2 2.608543 1_555
Br4 Sc1 2.646684 1_565
Br4 Rb0 3.912538 1_654
Br5 Sc3 2.672047 1_555
Br5 Sc1 2.730987 1_555
Br5 Sc2 3.121974 1_555
Br5 Rb0 3.922742 1_654
Br6 Sc2 2.672033 1_555
Br6 Sc4 2.730905 1_555
Br6 Sc3 3.122136 1_555
Br6 Rb0 3.922572 1_555
Br7 Sc3 2.608535 1_555
Br7 Sc4 2.646634 1_545
Br7 Rb0 3.912380 1_555
Br8 Sc5 2.803671 1_555
Br8 Sc1 2.803965 1_565
Br8 Sc4 2.986757 1_655
Br8 Rb0 3.910986 1_655
Br9 Sc5 2.643275 1_555
Br9 Sc2 2.722410 1_555
Br9 Rb0 3.851326 1_655
Br10 Sc5 2.757155 1_545
Br10 Sc0 2.845487 1_556
Br10 Sc3 2.957915 1_555
Br10 Rb0 3.759968 1_555
Br11 Sc5 2.663961 1_555
Br11 Sc4 2.726885 1_555
Br11 Rb0 3.639622 1_555
