# generated using pymatgen
data_Hf3CdC2
_symmetry_space_group_name_H-M   'P 1'
_cell_length_a   6.57085565
_cell_length_b   6.57085626
_cell_length_c   40.64917146
_cell_angle_alpha   90.00000000
_cell_angle_beta   90.00000000
_cell_angle_gamma   120.00000681
_symmetry_Int_Tables_number   1
_chemical_formula_structural   Hf3CdC2
_chemical_formula_sum   'Hf48 Cd16 C32'
_cell_volume   1519.93912005
_cell_formula_units_Z   16
loop_
 _symmetry_equiv_pos_site_id
 _symmetry_equiv_pos_as_xyz
  1  'x, y, z'
loop_
 _atom_site_type_symbol
 _atom_site_label
 _atom_site_symmetry_multiplicity
 _atom_site_fract_x
 _atom_site_fract_y
 _atom_site_fract_z
 _atom_site_occupancy
  Hf  Hf0_0  1  0.00000000  0.00000000  0.00000000  1
  Hf  Hf0_1  1  0.00000000  0.00000000  0.50000000  1
  Hf  Hf0_2  1  0.00000000  0.50000000  0.00000000  1
  Hf  Hf0_3  1  0.00000000  0.50000000  0.50000000  1
  Hf  Hf0_4  1  0.50000000  0.00000000  0.00000000  1
  Hf  Hf0_5  1  0.50000000  0.00000000  0.50000000  1
  Hf  Hf0_6  1  0.50000000  0.50000000  0.00000000  1
  Hf  Hf0_7  1  0.50000000  0.50000000  0.50000000  1
  Hf  Hf1_0  1  0.16666650  0.33333350  0.06256962  1
  Hf  Hf1_1  1  0.16666650  0.33333350  0.56256962  1
  Hf  Hf1_2  1  0.16666650  0.83333350  0.06256962  1
  Hf  Hf1_3  1  0.16666650  0.83333350  0.56256962  1
  Hf  Hf1_4  1  0.66666650  0.33333350  0.06256962  1
  Hf  Hf1_5  1  0.66666650  0.33333350  0.56256962  1
  Hf  Hf1_6  1  0.66666650  0.83333350  0.06256962  1
  Hf  Hf1_7  1  0.66666650  0.83333350  0.56256962  1
  Hf  Hf2_0  1  0.16666650  0.33333350  0.18743038  1
  Hf  Hf2_1  1  0.16666650  0.33333350  0.68743038  1
  Hf  Hf2_2  1  0.16666650  0.83333350  0.18743038  1
  Hf  Hf2_3  1  0.16666650  0.83333350  0.68743038  1
  Hf  Hf2_4  1  0.66666650  0.33333350  0.18743038  1
  Hf  Hf2_5  1  0.66666650  0.33333350  0.68743038  1
  Hf  Hf2_6  1  0.66666650  0.83333350  0.18743038  1
  Hf  Hf2_7  1  0.66666650  0.83333350  0.68743038  1
  Hf  Hf3_0  1  0.00000000  0.00000000  0.25000000  1
  Hf  Hf3_1  1  0.00000000  0.00000000  0.75000000  1
  Hf  Hf3_2  1  0.00000000  0.50000000  0.25000000  1
  Hf  Hf3_3  1  0.00000000  0.50000000  0.75000000  1
  Hf  Hf3_4  1  0.50000000  0.00000000  0.25000000  1
  Hf  Hf3_5  1  0.50000000  0.00000000  0.75000000  1
  Hf  Hf3_6  1  0.50000000  0.50000000  0.25000000  1
  Hf  Hf3_7  1  0.50000000  0.50000000  0.75000000  1
  Hf  Hf4_0  1  0.33333300  0.16666650  0.31256962  1
  Hf  Hf4_1  1  0.33333300  0.16666650  0.81256962  1
  Hf  Hf4_2  1  0.33333300  0.66666650  0.31256962  1
  Hf  Hf4_3  1  0.33333300  0.66666650  0.81256962  1
  Hf  Hf4_4  1  0.83333300  0.16666650  0.31256962  1
  Hf  Hf4_5  1  0.83333300  0.16666650  0.81256962  1
  Hf  Hf4_6  1  0.83333300  0.66666650  0.31256962  1
  Hf  Hf4_7  1  0.83333300  0.66666650  0.81256962  1
  Hf  Hf5_0  1  0.33333300  0.16666650  0.43743038  1
  Hf  Hf5_1  1  0.33333300  0.16666650  0.93743038  1
  Hf  Hf5_2  1  0.33333300  0.66666650  0.43743038  1
  Hf  Hf5_3  1  0.33333300  0.66666650  0.93743038  1
  Hf  Hf5_4  1  0.83333300  0.16666650  0.43743038  1
  Hf  Hf5_5  1  0.83333300  0.16666650  0.93743038  1
  Hf  Hf5_6  1  0.83333300  0.66666650  0.43743038  1
  Hf  Hf5_7  1  0.83333300  0.66666650  0.93743038  1
  Cd  Cd0_0  1  0.00000000  0.00000000  0.12500000  1
  Cd  Cd0_1  1  0.00000000  0.00000000  0.62500000  1
  Cd  Cd0_2  1  0.00000000  0.50000000  0.12500000  1
  Cd  Cd0_3  1  0.00000000  0.50000000  0.62500000  1
  Cd  Cd0_4  1  0.50000000  0.00000000  0.12500000  1
  Cd  Cd0_5  1  0.50000000  0.00000000  0.62500000  1
  Cd  Cd0_6  1  0.50000000  0.50000000  0.12500000  1
  Cd  Cd0_7  1  0.50000000  0.50000000  0.62500000  1
  Cd  Cd1_0  1  0.00000000  0.00000000  0.37500000  1
  Cd  Cd1_1  1  0.00000000  0.00000000  0.87500000  1
  Cd  Cd1_2  1  0.00000000  0.50000000  0.37500000  1
  Cd  Cd1_3  1  0.00000000  0.50000000  0.87500000  1
  Cd  Cd1_4  1  0.50000000  0.00000000  0.37500000  1
  Cd  Cd1_5  1  0.50000000  0.00000000  0.87500000  1
  Cd  Cd1_6  1  0.50000000  0.50000000  0.37500000  1
  Cd  Cd1_7  1  0.50000000  0.50000000  0.87500000  1
  C  C0_0  1  0.33333300  0.16666650  0.03409079  1
  C  C0_1  1  0.33333300  0.16666650  0.53409079  1
  C  C0_2  1  0.33333300  0.66666650  0.03409079  1
  C  C0_3  1  0.33333300  0.66666650  0.53409079  1
  C  C0_4  1  0.83333300  0.16666650  0.03409079  1
  C  C0_5  1  0.83333300  0.16666650  0.53409079  1
  C  C0_6  1  0.83333300  0.66666650  0.03409079  1
  C  C0_7  1  0.83333300  0.66666650  0.53409079  1
  C  C1_0  1  0.33333300  0.16666650  0.21590921  1
  C  C1_1  1  0.33333300  0.16666650  0.71590921  1
  C  C1_2  1  0.33333300  0.66666650  0.21590921  1
  C  C1_3  1  0.33333300  0.66666650  0.71590921  1
  C  C1_4  1  0.83333300  0.16666650  0.21590921  1
  C  C1_5  1  0.83333300  0.16666650  0.71590921  1
  C  C1_6  1  0.83333300  0.66666650  0.21590921  1
  C  C1_7  1  0.83333300  0.66666650  0.71590921  1
  C  C2_0  1  0.16666650  0.33333350  0.28409079  1
  C  C2_1  1  0.16666650  0.33333350  0.78409079  1
  C  C2_2  1  0.16666650  0.83333350  0.28409079  1
  C  C2_3  1  0.16666650  0.83333350  0.78409079  1
  C  C2_4  1  0.66666650  0.33333350  0.28409079  1
  C  C2_5  1  0.66666650  0.33333350  0.78409079  1
  C  C2_6  1  0.66666650  0.83333350  0.28409079  1
  C  C2_7  1  0.66666650  0.83333350  0.78409079  1
  C  C3_0  1  0.16666650  0.33333350  0.46590921  1
  C  C3_1  1  0.16666650  0.33333350  0.96590921  1
  C  C3_2  1  0.16666650  0.83333350  0.46590921  1
  C  C3_3  1  0.16666650  0.83333350  0.96590921  1
  C  C3_4  1  0.66666650  0.33333350  0.46590921  1
  C  C3_5  1  0.66666650  0.33333350  0.96590921  1
  C  C3_6  1  0.66666650  0.83333350  0.46590921  1
  C  C3_7  1  0.66666650  0.83333350  0.96590921  1
loop_
_geom_bond_atom_site_label_1
_geom_bond_atom_site_label_2
_geom_bond_distance
_geom_bond_site_symmetry_2
Cd0_0 Hf1_2 3.168303 1_545
Cd0_0 Hf2_2 3.168303 1_545
Cd0_0 Hf1_6 3.168305 1_445
Cd0_0 Hf2_6 3.168305 1_445
Cd0_0 Hf1_0 3.168305 1_555
Cd0_0 Hf2_0 3.168305 1_555
Cd0_0 Cd0_6 3.285428 1_555
Cd0_0 Cd0_6 3.285428 1_445
Cd0_0 Cd0_4 3.285428 1_455
Cd0_0 Cd0_4 3.285428 1_555
Cd0_0 Cd0_2 3.285428 1_555
Cd0_0 Cd0_2 3.285428 1_545
Cd0_1 Hf2_3 3.168303 1_545
Cd0_1 Hf1_3 3.168303 1_545
Cd0_1 Hf2_7 3.168305 1_445
Cd0_1 Hf1_7 3.168305 1_445
Cd0_1 Hf1_1 3.168305 1_555
Cd0_1 Hf2_1 3.168305 1_555
Cd0_1 Cd0_7 3.285428 1_555
Cd0_1 Cd0_7 3.285428 1_445
Cd0_1 Cd0_5 3.285428 1_455
Cd0_1 Cd0_5 3.285428 1_555
Cd0_1 Cd0_3 3.285428 1_545
Cd0_1 Cd0_3 3.285428 1_555
Cd0_2 Hf1_0 3.168303 1_555
Cd0_2 Hf2_0 3.168303 1_555
Cd0_2 Hf1_4 3.168305 1_455
Cd0_2 Hf2_4 3.168305 1_455
Cd0_2 Hf2_2 3.168305 1_555
Cd0_2 Hf1_2 3.168305 1_555
Cd0_2 Cd0_4 3.285428 1_455
Cd0_2 Cd0_4 3.285428 1_565
Cd0_2 Cd0_6 3.285428 1_455
Cd0_2 Cd0_6 3.285428 1_555
Cd0_3 Hf1_1 3.168303 1_555
Cd0_3 Hf2_1 3.168303 1_555
Cd0_3 Hf1_5 3.168305 1_455
Cd0_3 Hf2_5 3.168305 1_455
Cd0_3 Hf1_3 3.168305 1_555
Cd0_3 Hf2_3 3.168305 1_555
Cd0_3 Cd0_5 3.285428 1_565
Cd0_3 Cd0_5 3.285428 1_455
Cd0_3 Cd0_7 3.285428 1_555
Cd0_3 Cd0_7 3.285428 1_455
Cd0_4 Hf1_6 3.168303 1_545
Cd0_4 Hf2_6 3.168303 1_545
Cd0_4 Hf1_2 3.168305 1_545
Cd0_4 Hf2_2 3.168305 1_545
Cd0_4 Hf1_4 3.168305 1_555
Cd0_4 Hf2_4 3.168305 1_555
Cd0_4 Cd0_6 3.285428 1_545
Cd0_4 Cd0_6 3.285428 1_555
Cd0_5 Hf1_7 3.168303 1_545
Cd0_5 Hf2_7 3.168303 1_545
Cd0_5 Hf2_3 3.168305 1_545
Cd0_5 Hf1_3 3.168305 1_545
Cd0_5 Hf2_5 3.168305 1_555
Cd0_5 Hf1_5 3.168305 1_555
Cd0_5 Cd0_7 3.285428 1_545
Cd0_5 Cd0_7 3.285428 1_555
Cd0_6 Hf1_4 3.168303 1_555
Cd0_6 Hf2_4 3.168303 1_555
Cd0_6 Hf1_0 3.168305 1_555
Cd0_6 Hf2_0 3.168305 1_555
Cd0_6 Hf1_6 3.168305 1_555
Cd0_6 Hf2_6 3.168305 1_555
Cd0_7 Hf1_5 3.168303 1_555
Cd0_7 Hf2_5 3.168303 1_555
Cd0_7 Hf2_1 3.168305 1_555
Cd0_7 Hf1_1 3.168305 1_555
Cd0_7 Hf1_7 3.168305 1_555
Cd0_7 Hf2_7 3.168305 1_555
Cd1_0 Hf4_0 3.168303 1_555
Cd1_0 Hf5_0 3.168303 1_555
Cd1_0 Hf5_6 3.168305 1_445
Cd1_0 Hf4_6 3.168305 1_445
Cd1_0 Hf4_4 3.168305 1_455
Cd1_0 Hf5_4 3.168305 1_455
Cd1_0 Cd1_6 3.285428 1_445
Cd1_0 Cd1_6 3.285428 1_555
Cd1_0 Cd1_4 3.285428 1_455
Cd1_0 Cd1_4 3.285428 1_555
Cd1_0 Cd1_2 3.285428 1_545
Cd1_0 Cd1_2 3.285428 1_555
Cd1_1 Hf4_1 3.168303 1_555
Cd1_1 Hf5_1 3.168303 1_555
Cd1_1 Hf4_7 3.168305 1_445
Cd1_1 Hf5_7 3.168305 1_445
Cd1_1 Hf4_5 3.168305 1_455
Cd1_1 Hf5_5 3.168305 1_455
Cd1_1 Cd1_7 3.285428 1_555
Cd1_1 Cd1_7 3.285428 1_445
Cd1_1 Cd1_5 3.285428 1_555
Cd1_1 Cd1_5 3.285428 1_455
Cd1_1 Cd1_3 3.285428 1_545
Cd1_1 Cd1_3 3.285428 1_555
Cd1_2 Hf5_2 3.168303 1_555
Cd1_2 Hf4_2 3.168303 1_555
Cd1_2 Hf5_4 3.168305 1_455
Cd1_2 Hf4_4 3.168305 1_455
Cd1_2 Hf4_6 3.168305 1_455
Cd1_2 Hf5_6 3.168305 1_455
Cd1_2 Cd1_4 3.285428 1_565
Cd1_2 Cd1_4 3.285428 1_455
Cd1_2 Cd1_6 3.285428 1_455
Cd1_2 Cd1_6 3.285428 1_555
Cd1_3 Hf4_3 3.168303 1_555
Cd1_3 Hf5_3 3.168303 1_555
Cd1_3 Hf4_5 3.168305 1_455
Cd1_3 Hf5_5 3.168305 1_455
Cd1_3 Hf4_7 3.168305 1_455
Cd1_3 Hf5_7 3.168305 1_455
Cd1_3 Cd1_5 3.285428 1_455
Cd1_3 Cd1_5 3.285428 1_565
Cd1_3 Cd1_7 3.285428 1_555
Cd1_3 Cd1_7 3.285428 1_455
Cd1_4 Hf5_4 3.168303 1_555
Cd1_4 Hf4_4 3.168303 1_555
Cd1_4 Hf5_2 3.168305 1_545
Cd1_4 Hf4_2 3.168305 1_545
Cd1_4 Hf5_0 3.168305 1_555
Cd1_4 Hf4_0 3.168305 1_555
Cd1_4 Cd1_6 3.285428 1_555
Cd1_4 Cd1_6 3.285428 1_545
Cd1_5 Hf4_5 3.168303 1_555
Cd1_5 Hf5_5 3.168303 1_555
Cd1_5 Hf4_3 3.168305 1_545
Cd1_5 Hf5_3 3.168305 1_545
Cd1_5 Hf4_1 3.168305 1_555
Cd1_5 Hf5_1 3.168305 1_555
Cd1_5 Cd1_7 3.285428 1_545
Cd1_5 Cd1_7 3.285428 1_555
Cd1_6 Hf4_6 3.168303 1_555
Cd1_6 Hf5_6 3.168303 1_555
Cd1_6 Hf5_0 3.168305 1_555
Cd1_6 Hf4_0 3.168305 1_555
Cd1_6 Hf5_2 3.168305 1_555
Cd1_6 Hf4_2 3.168305 1_555
Cd1_7 Hf4_7 3.168303 1_555
Cd1_7 Hf5_7 3.168303 1_555
Cd1_7 Hf4_1 3.168305 1_555
Cd1_7 Hf5_1 3.168305 1_555
Cd1_7 Hf4_3 3.168305 1_555
Cd1_7 Hf5_3 3.168305 1_555
C0_0 Hf1_2 2.222192 1_545
C0_0 Hf1_4 2.222194 1_555
C0_0 Hf1_0 2.222194 1_555
C0_0 Hf0_0 2.349115 1_555
C0_0 Hf0_6 2.349118 1_555
C0_0 Hf0_4 2.349118 1_555
C0_1 Hf1_3 2.222192 1_545
C0_1 Hf1_5 2.222194 1_555
C0_1 Hf1_1 2.222194 1_555
C0_1 Hf0_1 2.349115 1_555
C0_1 Hf0_7 2.349118 1_555
C0_1 Hf0_5 2.349118 1_555
C0_2 Hf1_0 2.222192 1_555
C0_2 Hf1_6 2.222194 1_555
C0_2 Hf1_2 2.222194 1_555
C0_2 Hf0_2 2.349115 1_555
C0_2 Hf0_4 2.349118 1_565
C0_2 Hf0_6 2.349118 1_555
C0_3 Hf1_1 2.222192 1_555
C0_3 Hf1_7 2.222194 1_555
C0_3 Hf1_3 2.222194 1_555
C0_3 Hf0_3 2.349115 1_555
C0_3 Hf0_5 2.349118 1_565
C0_3 Hf0_7 2.349118 1_555
C0_4 Hf1_6 2.222192 1_545
C0_4 Hf1_0 2.222194 1_655
C0_4 Hf1_4 2.222194 1_555
C0_4 Hf0_4 2.349115 1_555
C0_4 Hf0_2 2.349118 1_655
C0_4 Hf0_0 2.349118 1_655
C0_5 Hf1_7 2.222192 1_545
C0_5 Hf1_1 2.222194 1_655
C0_5 Hf1_5 2.222194 1_555
C0_5 Hf0_5 2.349115 1_555
C0_5 Hf0_3 2.349118 1_655
C0_5 Hf0_1 2.349118 1_655
C0_6 Hf1_4 2.222192 1_555
C0_6 Hf1_2 2.222194 1_655
C0_6 Hf1_6 2.222194 1_555
C0_6 Hf0_6 2.349115 1_555
C0_6 Hf0_0 2.349118 1_665
C0_6 Hf0_2 2.349118 1_655
C0_7 Hf1_5 2.222192 1_555
C0_7 Hf1_3 2.222194 1_655
C0_7 Hf1_7 2.222194 1_555
C0_7 Hf0_7 2.349115 1_555
C0_7 Hf0_1 2.349118 1_665
C0_7 Hf0_3 2.349118 1_655
C1_0 Hf2_2 2.222192 1_545
C1_0 Hf2_4 2.222194 1_555
C1_0 Hf2_0 2.222194 1_555
C1_0 Hf3_0 2.349115 1_555
C1_0 Hf3_6 2.349118 1_555
C1_0 Hf3_4 2.349118 1_555
C1_1 Hf2_3 2.222192 1_545
C1_1 Hf2_5 2.222194 1_555
C1_1 Hf2_1 2.222194 1_555
C1_1 Hf3_1 2.349115 1_555
C1_1 Hf3_7 2.349118 1_555
C1_1 Hf3_5 2.349118 1_555
C1_2 Hf2_0 2.222192 1_555
C1_2 Hf2_6 2.222194 1_555
C1_2 Hf2_2 2.222194 1_555
C1_2 Hf3_2 2.349115 1_555
C1_2 Hf3_4 2.349118 1_565
C1_2 Hf3_6 2.349118 1_555
C1_3 Hf2_1 2.222192 1_555
C1_3 Hf2_7 2.222194 1_555
C1_3 Hf2_3 2.222194 1_555
C1_3 Hf3_3 2.349115 1_555
C1_3 Hf3_5 2.349118 1_565
C1_3 Hf3_7 2.349118 1_555
C1_4 Hf2_6 2.222192 1_545
C1_4 Hf2_0 2.222194 1_655
C1_4 Hf2_4 2.222194 1_555
C1_4 Hf3_4 2.349115 1_555
C1_4 Hf3_2 2.349118 1_655
C1_4 Hf3_0 2.349118 1_655
C1_5 Hf2_7 2.222192 1_545
C1_5 Hf2_1 2.222194 1_655
C1_5 Hf2_5 2.222194 1_555
C1_5 Hf3_5 2.349115 1_555
C1_5 Hf3_3 2.349118 1_655
C1_5 Hf3_1 2.349118 1_655
C1_6 Hf2_4 2.222192 1_555
C1_6 Hf2_2 2.222194 1_655
C1_6 Hf2_6 2.222194 1_555
C1_6 Hf3_6 2.349115 1_555
C1_6 Hf3_0 2.349118 1_665
C1_6 Hf3_2 2.349118 1_655
C1_7 Hf2_5 2.222192 1_555
C1_7 Hf2_3 2.222194 1_655
C1_7 Hf2_7 2.222194 1_555
C1_7 Hf3_7 2.349115 1_555
C1_7 Hf3_1 2.349118 1_665
C1_7 Hf3_3 2.349118 1_655
C2_0 Hf4_2 2.222192 1_555
C2_0 Hf4_4 2.222194 1_455
C2_0 Hf4_0 2.222194 1_555
C2_0 Hf3_2 2.349115 1_555
C2_0 Hf3_6 2.349117 1_555
C2_0 Hf3_0 2.349118 1_555
C2_1 Hf4_3 2.222192 1_555
C2_1 Hf4_5 2.222194 1_455
C2_1 Hf4_1 2.222194 1_555
C2_1 Hf3_3 2.349115 1_555
C2_1 Hf3_7 2.349117 1_555
C2_1 Hf3_1 2.349118 1_555
C2_2 Hf4_0 2.222192 1_565
C2_2 Hf4_6 2.222194 1_455
C2_2 Hf4_2 2.222194 1_555
C2_2 Hf3_0 2.349115 1_565
C2_2 Hf3_4 2.349117 1_565
C2_2 Hf3_2 2.349118 1_555
C2_3 Hf4_1 2.222192 1_565
C2_3 Hf4_7 2.222194 1_455
C2_3 Hf4_3 2.222194 1_555
C2_3 Hf3_1 2.349115 1_565
C2_3 Hf3_5 2.349117 1_565
C2_3 Hf3_3 2.349118 1_555
C2_4 Hf4_6 2.222192 1_555
C2_4 Hf4_0 2.222194 1_555
C2_4 Hf4_4 2.222194 1_555
C2_4 Hf3_6 2.349115 1_555
C2_4 Hf3_2 2.349117 1_655
C2_4 Hf3_4 2.349118 1_555
C2_5 Hf4_7 2.222192 1_555
C2_5 Hf4_1 2.222194 1_555
C2_5 Hf4_5 2.222194 1_555
C2_5 Hf3_7 2.349115 1_555
C2_5 Hf3_3 2.349117 1_655
C2_5 Hf3_5 2.349118 1_555
C2_6 Hf4_4 2.222192 1_565
C2_6 Hf4_2 2.222194 1_555
C2_6 Hf4_6 2.222194 1_555
C2_6 Hf3_4 2.349115 1_565
C2_6 Hf3_0 2.349117 1_665
C2_6 Hf3_6 2.349118 1_555
C2_7 Hf4_5 2.222192 1_565
C2_7 Hf4_3 2.222194 1_555
C2_7 Hf4_7 2.222194 1_555
C2_7 Hf3_5 2.349115 1_565
C2_7 Hf3_1 2.349117 1_665
C2_7 Hf3_7 2.349118 1_555
C3_0 Hf5_2 2.222192 1_555
C3_0 Hf5_4 2.222194 1_455
C3_0 Hf5_0 2.222194 1_555
C3_0 Hf0_3 2.349115 1_555
C3_0 Hf0_7 2.349117 1_555
C3_0 Hf0_1 2.349118 1_555
C3_1 Hf5_3 2.222192 1_555
C3_1 Hf5_5 2.222194 1_455
C3_1 Hf5_1 2.222194 1_555
C3_1 Hf0_2 2.349115 1_556
C3_1 Hf0_6 2.349117 1_556
C3_1 Hf0_0 2.349118 1_556
C3_2 Hf5_0 2.222192 1_565
C3_2 Hf5_6 2.222194 1_455
C3_2 Hf5_2 2.222194 1_555
C3_2 Hf0_1 2.349115 1_565
C3_2 Hf0_5 2.349117 1_565
C3_2 Hf0_3 2.349118 1_555
C3_3 Hf5_1 2.222192 1_565
C3_3 Hf5_7 2.222194 1_455
C3_3 Hf5_3 2.222194 1_555
C3_3 Hf0_0 2.349115 1_566
C3_3 Hf0_4 2.349117 1_566
C3_3 Hf0_2 2.349118 1_556
C3_4 Hf5_6 2.222192 1_555
C3_4 Hf5_0 2.222194 1_555
C3_4 Hf5_4 2.222194 1_555
C3_4 Hf0_7 2.349115 1_555
C3_4 Hf0_3 2.349117 1_655
C3_4 Hf0_5 2.349118 1_555
C3_5 Hf5_7 2.222192 1_555
C3_5 Hf5_1 2.222194 1_555
C3_5 Hf5_5 2.222194 1_555
C3_5 Hf0_6 2.349115 1_556
C3_5 Hf0_2 2.349117 1_656
C3_5 Hf0_4 2.349118 1_556
C3_6 Hf5_4 2.222192 1_565
C3_6 Hf5_2 2.222194 1_555
C3_6 Hf5_6 2.222194 1_555
C3_6 Hf0_5 2.349115 1_565
C3_6 Hf0_1 2.349117 1_665
C3_6 Hf0_7 2.349118 1_555
C3_7 Hf5_5 2.222192 1_565
C3_7 Hf5_3 2.222194 1_555
C3_7 Hf5_7 2.222194 1_555
C3_7 Hf0_4 2.349115 1_566
C3_7 Hf0_0 2.349117 1_666
C3_7 Hf0_6 2.349118 1_556
