# generated using pymatgen
data_CaHf5(Be2Ir5)2
_symmetry_space_group_name_H-M   'P 1'
_cell_length_a   19.19210859
_cell_length_b   19.19210859
_cell_length_c   6.45456590
_cell_angle_alpha   90.00000000
_cell_angle_beta   90.00000000
_cell_angle_gamma   89.61500186
_symmetry_Int_Tables_number   1
_chemical_formula_structural   CaHf5(Be2Ir5)2
_chemical_formula_sum   'Ca8 Hf40 Be32 Ir80'
_cell_volume   2377.40197475
_cell_formula_units_Z   8
loop_
 _symmetry_equiv_pos_site_id
 _symmetry_equiv_pos_as_xyz
  1  'x, y, z'
loop_
 _atom_site_type_symbol
 _atom_site_label
 _atom_site_symmetry_multiplicity
 _atom_site_fract_x
 _atom_site_fract_y
 _atom_site_fract_z
 _atom_site_occupancy
  Ca  Ca0_0  1  0.08791331  0.33791331  0.00000000  1
  Ca  Ca0_1  1  0.08791331  0.33791331  0.50000000  1
  Ca  Ca0_2  1  0.08791331  0.83791331  0.00000000  1
  Ca  Ca0_3  1  0.08791331  0.83791331  0.50000000  1
  Ca  Ca0_4  1  0.58791331  0.33791331  0.00000000  1
  Ca  Ca0_5  1  0.58791331  0.33791331  0.50000000  1
  Ca  Ca0_6  1  0.58791331  0.83791331  0.00000000  1
  Ca  Ca0_7  1  0.58791331  0.83791331  0.50000000  1
  Hf  Hf0_0  1  0.16210382  0.08748721  0.00000000  1
  Hf  Hf0_1  1  0.16210382  0.08748721  0.50000000  1
  Hf  Hf0_2  1  0.16210382  0.58748721  0.00000000  1
  Hf  Hf0_3  1  0.16210382  0.58748721  0.50000000  1
  Hf  Hf0_4  1  0.66210382  0.08748721  0.00000000  1
  Hf  Hf0_5  1  0.66210382  0.08748721  0.50000000  1
  Hf  Hf0_6  1  0.66210382  0.58748721  0.00000000  1
  Hf  Hf0_7  1  0.66210382  0.58748721  0.50000000  1
  Hf  Hf1_0  1  0.41237967  0.16237967  0.00000000  1
  Hf  Hf1_1  1  0.41237967  0.16237967  0.50000000  1
  Hf  Hf1_2  1  0.41237967  0.66237967  0.00000000  1
  Hf  Hf1_3  1  0.41237967  0.66237967  0.50000000  1
  Hf  Hf1_4  1  0.91237967  0.16237967  0.00000000  1
  Hf  Hf1_5  1  0.91237967  0.16237967  0.50000000  1
  Hf  Hf1_6  1  0.91237967  0.66237967  0.00000000  1
  Hf  Hf1_7  1  0.91237967  0.66237967  0.50000000  1
  Hf  Hf2_0  1  0.24815510  0.25042902  0.00000000  1
  Hf  Hf2_1  1  0.24815510  0.25042902  0.50000000  1
  Hf  Hf2_2  1  0.24815510  0.75042902  0.00000000  1
  Hf  Hf2_3  1  0.24815510  0.75042902  0.50000000  1
  Hf  Hf2_4  1  0.74815510  0.25042902  0.00000000  1
  Hf  Hf2_5  1  0.74815510  0.25042902  0.50000000  1
  Hf  Hf2_6  1  0.74815510  0.75042902  0.00000000  1
  Hf  Hf2_7  1  0.74815510  0.75042902  0.50000000  1
  Hf  Hf3_0  1  0.33748721  0.41210382  0.00000000  1
  Hf  Hf3_1  1  0.33748721  0.41210382  0.50000000  1
  Hf  Hf3_2  1  0.33748721  0.91210382  0.00000000  1
  Hf  Hf3_3  1  0.33748721  0.91210382  0.50000000  1
  Hf  Hf3_4  1  0.83748721  0.41210382  0.00000000  1
  Hf  Hf3_5  1  0.83748721  0.41210382  0.50000000  1
  Hf  Hf3_6  1  0.83748721  0.91210382  0.00000000  1
  Hf  Hf3_7  1  0.83748721  0.91210382  0.50000000  1
  Hf  Hf4_0  1  0.00042902  0.49815510  0.00000000  1
  Hf  Hf4_1  1  0.00042902  0.49815510  0.50000000  1
  Hf  Hf4_2  1  0.00042902  0.99815510  0.00000000  1
  Hf  Hf4_3  1  0.00042902  0.99815510  0.50000000  1
  Hf  Hf4_4  1  0.50042902  0.49815510  0.00000000  1
  Hf  Hf4_5  1  0.50042902  0.49815510  0.50000000  1
  Hf  Hf4_6  1  0.50042902  0.99815510  0.00000000  1
  Hf  Hf4_7  1  0.50042902  0.99815510  0.50000000  1
  Be  Be0_0  1  0.19158044  0.44158044  0.00000000  1
  Be  Be0_1  1  0.19158044  0.44158044  0.50000000  1
  Be  Be0_2  1  0.19158044  0.94158044  0.00000000  1
  Be  Be0_3  1  0.19158044  0.94158044  0.50000000  1
  Be  Be0_4  1  0.69158044  0.44158044  0.00000000  1
  Be  Be0_5  1  0.69158044  0.44158044  0.50000000  1
  Be  Be0_6  1  0.69158044  0.94158044  0.00000000  1
  Be  Be0_7  1  0.69158044  0.94158044  0.50000000  1
  Be  Be1_0  1  0.05813032  0.18889943  0.00000000  1
  Be  Be1_1  1  0.05813032  0.18889943  0.50000000  1
  Be  Be1_2  1  0.05813032  0.68889943  0.00000000  1
  Be  Be1_3  1  0.05813032  0.68889943  0.50000000  1
  Be  Be1_4  1  0.55813032  0.18889943  0.00000000  1
  Be  Be1_5  1  0.55813032  0.18889943  0.50000000  1
  Be  Be1_6  1  0.55813032  0.68889943  0.00000000  1
  Be  Be1_7  1  0.55813032  0.68889943  0.50000000  1
  Be  Be2_0  1  0.43889943  0.30813032  0.00000000  1
  Be  Be2_1  1  0.43889943  0.30813032  0.50000000  1
  Be  Be2_2  1  0.43889943  0.80813032  0.00000000  1
  Be  Be2_3  1  0.43889943  0.80813032  0.50000000  1
  Be  Be2_4  1  0.93889943  0.30813032  0.00000000  1
  Be  Be2_5  1  0.93889943  0.30813032  0.50000000  1
  Be  Be2_6  1  0.93889943  0.80813032  0.00000000  1
  Be  Be2_7  1  0.93889943  0.80813032  0.50000000  1
  Be  Be3_0  1  0.31113019  0.06113019  0.00000000  1
  Be  Be3_1  1  0.31113019  0.06113019  0.50000000  1
  Be  Be3_2  1  0.31113019  0.56113019  0.00000000  1
  Be  Be3_3  1  0.31113019  0.56113019  0.50000000  1
  Be  Be3_4  1  0.81113019  0.06113019  0.00000000  1
  Be  Be3_5  1  0.81113019  0.06113019  0.50000000  1
  Be  Be3_6  1  0.81113019  0.56113019  0.00000000  1
  Be  Be3_7  1  0.81113019  0.56113019  0.50000000  1
  Ir  Ir0_0  1  0.11234630  0.47291554  0.25000000  1
  Ir  Ir0_1  1  0.11234630  0.47291554  0.75000000  1
  Ir  Ir0_2  1  0.11234630  0.97291554  0.25000000  1
  Ir  Ir0_3  1  0.11234630  0.97291554  0.75000000  1
  Ir  Ir0_4  1  0.61234630  0.47291554  0.25000000  1
  Ir  Ir0_5  1  0.61234630  0.47291554  0.75000000  1
  Ir  Ir0_6  1  0.61234630  0.97291554  0.25000000  1
  Ir  Ir0_7  1  0.61234630  0.97291554  0.75000000  1
  Ir  Ir1_0  1  0.45717015  0.39187414  0.25000000  1
  Ir  Ir1_1  1  0.45717015  0.39187414  0.75000000  1
  Ir  Ir1_2  1  0.45717015  0.89187414  0.25000000  1
  Ir  Ir1_3  1  0.45717015  0.89187414  0.75000000  1
  Ir  Ir1_4  1  0.95717015  0.39187414  0.25000000  1
  Ir  Ir1_5  1  0.95717015  0.39187414  0.75000000  1
  Ir  Ir1_6  1  0.95717015  0.89187414  0.25000000  1
  Ir  Ir1_7  1  0.95717015  0.89187414  0.75000000  1
  Ir  Ir2_0  1  0.22291554  0.36234630  0.25000000  1
  Ir  Ir2_1  1  0.22291554  0.36234630  0.75000000  1
  Ir  Ir2_2  1  0.22291554  0.86234630  0.25000000  1
  Ir  Ir2_3  1  0.22291554  0.86234630  0.75000000  1
  Ir  Ir2_4  1  0.72291554  0.36234630  0.25000000  1
  Ir  Ir2_5  1  0.72291554  0.36234630  0.75000000  1
  Ir  Ir2_6  1  0.72291554  0.86234630  0.25000000  1
  Ir  Ir2_7  1  0.72291554  0.86234630  0.75000000  1
  Ir  Ir3_0  1  0.28702149  0.14286210  0.25000000  1
  Ir  Ir3_1  1  0.28702149  0.14286210  0.75000000  1
  Ir  Ir3_2  1  0.28702149  0.64286210  0.25000000  1
  Ir  Ir3_3  1  0.28702149  0.64286210  0.75000000  1
  Ir  Ir3_4  1  0.78702149  0.14286210  0.25000000  1
  Ir  Ir3_5  1  0.78702149  0.14286210  0.75000000  1
  Ir  Ir3_6  1  0.78702149  0.64286210  0.25000000  1
  Ir  Ir3_7  1  0.78702149  0.64286210  0.75000000  1
  Ir  Ir4_0  1  0.35635405  0.28371227  0.25000000  1
  Ir  Ir4_1  1  0.35635405  0.28371227  0.75000000  1
  Ir  Ir4_2  1  0.35635405  0.78371227  0.25000000  1
  Ir  Ir4_3  1  0.35635405  0.78371227  0.75000000  1
  Ir  Ir4_4  1  0.85635405  0.28371227  0.25000000  1
  Ir  Ir4_5  1  0.85635405  0.28371227  0.75000000  1
  Ir  Ir4_6  1  0.85635405  0.78371227  0.25000000  1
  Ir  Ir4_7  1  0.85635405  0.78371227  0.75000000  1
  Ir  Ir5_0  1  0.14187414  0.20717015  0.25000000  1
  Ir  Ir5_1  1  0.14187414  0.20717015  0.75000000  1
  Ir  Ir5_2  1  0.14187414  0.70717015  0.25000000  1
  Ir  Ir5_3  1  0.14187414  0.70717015  0.75000000  1
  Ir  Ir5_4  1  0.64187414  0.20717015  0.25000000  1
  Ir  Ir5_5  1  0.64187414  0.20717015  0.75000000  1
  Ir  Ir5_6  1  0.64187414  0.70717015  0.25000000  1
  Ir  Ir5_7  1  0.64187414  0.70717015  0.75000000  1
  Ir  Ir6_0  1  0.03371227  0.10635405  0.25000000  1
  Ir  Ir6_1  1  0.03371227  0.10635405  0.75000000  1
  Ir  Ir6_2  1  0.03371227  0.60635405  0.25000000  1
  Ir  Ir6_3  1  0.03371227  0.60635405  0.75000000  1
  Ir  Ir6_4  1  0.53371227  0.10635405  0.25000000  1
  Ir  Ir6_5  1  0.53371227  0.10635405  0.75000000  1
  Ir  Ir6_6  1  0.53371227  0.60635405  0.25000000  1
  Ir  Ir6_7  1  0.53371227  0.60635405  0.75000000  1
  Ir  Ir7_0  1  0.49491352  0.24491352  0.25000000  1
  Ir  Ir7_1  1  0.49491352  0.24491352  0.75000000  1
  Ir  Ir7_2  1  0.49491352  0.74491352  0.25000000  1
  Ir  Ir7_3  1  0.49491352  0.74491352  0.75000000  1
  Ir  Ir7_4  1  0.99491352  0.24491352  0.25000000  1
  Ir  Ir7_5  1  0.99491352  0.24491352  0.75000000  1
  Ir  Ir7_6  1  0.99491352  0.74491352  0.25000000  1
  Ir  Ir7_7  1  0.99491352  0.74491352  0.75000000  1
  Ir  Ir8_0  1  0.25262343  0.00262343  0.25000000  1
  Ir  Ir8_1  1  0.25262343  0.00262343  0.75000000  1
  Ir  Ir8_2  1  0.25262343  0.50262343  0.25000000  1
  Ir  Ir8_3  1  0.25262343  0.50262343  0.75000000  1
  Ir  Ir8_4  1  0.75262343  0.00262343  0.25000000  1
  Ir  Ir8_5  1  0.75262343  0.00262343  0.75000000  1
  Ir  Ir8_6  1  0.75262343  0.50262343  0.25000000  1
  Ir  Ir8_7  1  0.75262343  0.50262343  0.75000000  1
  Ir  Ir9_0  1  0.39286210  0.03702149  0.25000000  1
  Ir  Ir9_1  1  0.39286210  0.03702149  0.75000000  1
  Ir  Ir9_2  1  0.39286210  0.53702149  0.25000000  1
  Ir  Ir9_3  1  0.39286210  0.53702149  0.75000000  1
  Ir  Ir9_4  1  0.89286210  0.03702149  0.25000000  1
  Ir  Ir9_5  1  0.89286210  0.03702149  0.75000000  1
  Ir  Ir9_6  1  0.89286210  0.53702149  0.25000000  1
  Ir  Ir9_7  1  0.89286210  0.53702149  0.75000000  1
loop_
_geom_bond_atom_site_label_1
_geom_bond_atom_site_label_2
_geom_bond_distance
_geom_bond_site_symmetry_2
Ca0_0 Ir7_5 3.003018 1_454
Ca0_0 Ir7_4 3.003018 1_455
Ca0_0 Ir0_1 3.090828 1_554
Ca0_0 Ir2_1 3.090828 1_554
Ca0_0 Ir2_0 3.090828 1_555
Ca0_0 Ir0_0 3.090828 1_555
Ca0_0 Ir1_5 3.152412 1_454
Ca0_0 Ir1_4 3.152412 1_455
Ca0_0 Ir5_1 3.152412 1_554
Ca0_0 Ir5_0 3.152412 1_555
Ca0_0 Ca0_1 3.227283 1_555
Ca0_0 Ca0_1 3.227283 1_554
Ca0_1 Ir7_4 3.003018 1_455
Ca0_1 Ir7_5 3.003018 1_455
Ca0_1 Ir2_0 3.090828 1_555
Ca0_1 Ir0_0 3.090828 1_555
Ca0_1 Ir0_1 3.090828 1_555
Ca0_1 Ir2_1 3.090828 1_555
Ca0_1 Ir1_5 3.152412 1_455
Ca0_1 Ir1_4 3.152412 1_455
Ca0_1 Ir5_0 3.152412 1_555
Ca0_1 Ir5_1 3.152412 1_555
Ca0_2 Ir7_7 3.003018 1_454
Ca0_2 Ir7_6 3.003018 1_455
Ca0_2 Ir2_3 3.090828 1_554
Ca0_2 Ir2_2 3.090828 1_555
Ca0_2 Ir0_3 3.090828 1_554
Ca0_2 Ir0_2 3.090828 1_555
Ca0_2 Ir1_7 3.152412 1_454
Ca0_2 Ir1_6 3.152412 1_455
Ca0_2 Ir5_3 3.152412 1_554
Ca0_2 Ir5_2 3.152412 1_555
Ca0_2 Ca0_3 3.227283 1_554
Ca0_2 Ca0_3 3.227283 1_555
Ca0_3 Ir7_6 3.003018 1_455
Ca0_3 Ir7_7 3.003018 1_455
Ca0_3 Ir2_2 3.090828 1_555
Ca0_3 Ir2_3 3.090828 1_555
Ca0_3 Ir0_2 3.090828 1_555
Ca0_3 Ir0_3 3.090828 1_555
Ca0_3 Ir1_6 3.152412 1_455
Ca0_3 Ir1_7 3.152412 1_455
Ca0_3 Ir5_2 3.152412 1_555
Ca0_3 Ir5_3 3.152412 1_555
Ca0_4 Ir7_1 3.003018 1_554
Ca0_4 Ir7_0 3.003018 1_555
Ca0_4 Ir0_5 3.090828 1_554
Ca0_4 Ir0_4 3.090828 1_555
Ca0_4 Ir2_5 3.090828 1_554
Ca0_4 Ir2_4 3.090828 1_555
Ca0_4 Ir1_1 3.152412 1_554
Ca0_4 Ir1_0 3.152412 1_555
Ca0_4 Ir5_5 3.152412 1_554
Ca0_4 Ir5_4 3.152412 1_555
Ca0_4 Ca0_5 3.227283 1_555
Ca0_4 Ca0_5 3.227283 1_554
Ca0_5 Ir7_0 3.003018 1_555
Ca0_5 Ir7_1 3.003018 1_555
Ca0_5 Ir0_4 3.090828 1_555
Ca0_5 Ir0_5 3.090828 1_555
Ca0_5 Ir2_4 3.090828 1_555
Ca0_5 Ir2_5 3.090828 1_555
Ca0_5 Ir1_0 3.152412 1_555
Ca0_5 Ir1_1 3.152412 1_555
Ca0_5 Ir5_5 3.152412 1_555
Ca0_5 Ir5_4 3.152412 1_555
Ca0_6 Ir7_3 3.003018 1_554
Ca0_6 Ir7_2 3.003018 1_555
Ca0_6 Ir2_7 3.090828 1_554
Ca0_6 Ir2_6 3.090828 1_555
Ca0_6 Ir0_7 3.090828 1_554
Ca0_6 Ir0_6 3.090828 1_555
Ca0_6 Ir1_3 3.152412 1_554
Ca0_6 Ir1_2 3.152412 1_555
Ca0_6 Ir5_7 3.152412 1_554
Ca0_6 Ir5_6 3.152412 1_555
Ca0_6 Ca0_7 3.227283 1_554
Ca0_6 Ca0_7 3.227283 1_555
Ca0_7 Ir7_2 3.003018 1_555
Ca0_7 Ir7_3 3.003018 1_555
Ca0_7 Ir2_6 3.090828 1_555
Ca0_7 Ir0_6 3.090828 1_555
Ca0_7 Ir2_7 3.090828 1_555
Ca0_7 Ir0_7 3.090828 1_555
Ca0_7 Ir1_2 3.152412 1_555
Ca0_7 Ir1_3 3.152412 1_555
Ca0_7 Ir5_6 3.152412 1_555
Ca0_7 Ir5_7 3.152412 1_555
Hf0_0 Ir5_1 2.831723 1_554
Hf0_0 Ir5_0 2.831723 1_555
Hf0_0 Ir8_1 2.869949 1_554
Hf0_0 Ir8_0 2.869949 1_555
Hf0_0 Ir0_3 2.894655 1_544
Hf0_0 Ir0_2 2.894655 1_545
Hf0_0 Ir6_1 2.965598 1_554
Hf0_0 Ir6_0 2.965598 1_555
Hf0_0 Ir3_1 3.084676 1_554
Hf0_0 Ir3_0 3.084676 1_555
Hf0_0 Hf0_1 3.227283 1_555
Hf0_0 Hf0_1 3.227283 1_554
Hf0_1 Ir5_0 2.831723 1_555
Hf0_1 Ir5_1 2.831723 1_555
Hf0_1 Ir8_0 2.869949 1_555
Hf0_1 Ir8_1 2.869949 1_555
Hf0_1 Ir0_2 2.894655 1_545
Hf0_1 Ir0_3 2.894655 1_545
Hf0_1 Ir6_0 2.965598 1_555
Hf0_1 Ir6_1 2.965598 1_555
Hf0_1 Ir3_1 3.084676 1_555
Hf0_1 Ir3_0 3.084676 1_555
Hf0_2 Ir5_3 2.831723 1_554
Hf0_2 Ir5_2 2.831723 1_555
Hf0_2 Ir8_3 2.869949 1_554
Hf0_2 Ir8_2 2.869949 1_555
Hf0_2 Ir0_1 2.894655 1_554
Hf0_2 Ir0_0 2.894655 1_555
Hf0_2 Ir6_3 2.965598 1_554
Hf0_2 Ir6_2 2.965598 1_555
Hf0_2 Ir3_3 3.084676 1_554
Hf0_2 Ir3_2 3.084676 1_555
Hf0_2 Hf0_3 3.227283 1_554
Hf0_2 Hf0_3 3.227283 1_555
Hf0_3 Ir5_2 2.831723 1_555
Hf0_3 Ir5_3 2.831723 1_555
Hf0_3 Ir8_3 2.869949 1_555
Hf0_3 Ir8_2 2.869949 1_555
Hf0_3 Ir0_0 2.894655 1_555
Hf0_3 Ir0_1 2.894655 1_555
Hf0_3 Ir6_2 2.965598 1_555
Hf0_3 Ir6_3 2.965598 1_555
Hf0_3 Ir3_2 3.084676 1_555
Hf0_3 Ir3_3 3.084676 1_555
Hf0_4 Ir5_5 2.831723 1_554
Hf0_4 Ir5_4 2.831723 1_555
Hf0_4 Ir8_5 2.869949 1_554
Hf0_4 Ir8_4 2.869949 1_555
Hf0_4 Ir0_7 2.894655 1_544
Hf0_4 Ir0_6 2.894655 1_545
Hf0_4 Ir6_5 2.965598 1_554
Hf0_4 Ir6_4 2.965598 1_555
Hf0_4 Ir3_5 3.084676 1_554
Hf0_4 Ir3_4 3.084676 1_555
Hf0_4 Hf0_5 3.227283 1_555
Hf0_4 Hf0_5 3.227283 1_554
Hf0_5 Ir5_5 2.831723 1_555
Hf0_5 Ir5_4 2.831723 1_555
Hf0_5 Ir8_4 2.869949 1_555
Hf0_5 Ir8_5 2.869949 1_555
Hf0_5 Ir0_6 2.894655 1_545
Hf0_5 Ir0_7 2.894655 1_545
Hf0_5 Ir6_4 2.965598 1_555
Hf0_5 Ir6_5 2.965598 1_555
Hf0_5 Ir3_4 3.084676 1_555
Hf0_5 Ir3_5 3.084676 1_555
Hf0_6 Ir5_7 2.831723 1_554
Hf0_6 Ir5_6 2.831723 1_555
Hf0_6 Ir8_7 2.869949 1_554
Hf0_6 Ir8_6 2.869949 1_555
Hf0_6 Ir0_5 2.894655 1_554
Hf0_6 Ir0_4 2.894655 1_555
Hf0_6 Ir6_7 2.965598 1_554
Hf0_6 Ir6_6 2.965598 1_555
Hf0_6 Ir3_6 3.084676 1_555
Hf0_6 Ir3_7 3.084676 1_554
Hf0_6 Hf0_7 3.227283 1_555
Hf0_6 Hf0_7 3.227283 1_554
Hf0_7 Ir5_6 2.831723 1_555
Hf0_7 Ir5_7 2.831723 1_555
Hf0_7 Ir8_6 2.869949 1_555
Hf0_7 Ir8_7 2.869949 1_555
Hf0_7 Ir0_4 2.894655 1_555
Hf0_7 Ir0_5 2.894655 1_555
Hf0_7 Ir6_6 2.965598 1_555
Hf0_7 Ir6_7 2.965598 1_555
Hf0_7 Ir3_6 3.084676 1_555
Hf0_7 Ir3_7 3.084676 1_555
Hf1_0 Ir7_1 2.766886 1_554
Hf1_0 Ir7_0 2.766886 1_555
Hf1_0 Ir3_1 2.923108 1_554
Hf1_0 Ir3_0 2.923108 1_555
Hf1_0 Ir9_1 2.923108 1_554
Hf1_0 Ir9_0 2.923108 1_555
Hf1_0 Ir6_5 3.024709 1_554
Hf1_0 Ir6_4 3.024709 1_555
Hf1_0 Ir4_1 3.024709 1_554
Hf1_0 Ir4_0 3.024709 1_555
Hf1_0 Hf1_1 3.227283 1_555
Hf1_0 Hf1_1 3.227283 1_554
Hf1_1 Ir7_0 2.766886 1_555
Hf1_1 Ir7_1 2.766886 1_555
Hf1_1 Ir3_0 2.923108 1_555
Hf1_1 Ir3_1 2.923108 1_555
Hf1_1 Ir9_0 2.923108 1_555
Hf1_1 Ir9_1 2.923108 1_555
Hf1_1 Ir6_4 3.024709 1_555
Hf1_1 Ir6_5 3.024709 1_555
Hf1_1 Ir4_0 3.024709 1_555
Hf1_1 Ir4_1 3.024709 1_555
Hf1_2 Ir7_3 2.766886 1_554
Hf1_2 Ir7_2 2.766886 1_555
Hf1_2 Ir9_3 2.923108 1_554
Hf1_2 Ir9_2 2.923108 1_555
Hf1_2 Ir3_3 2.923108 1_554
Hf1_2 Ir3_2 2.923108 1_555
Hf1_2 Ir6_7 3.024709 1_554
Hf1_2 Ir6_6 3.024709 1_555
Hf1_2 Ir4_2 3.024709 1_555
Hf1_2 Ir4_3 3.024709 1_554
Hf1_2 Hf1_3 3.227283 1_555
Hf1_2 Hf1_3 3.227283 1_554
Hf1_3 Ir7_2 2.766886 1_555
Hf1_3 Ir7_3 2.766886 1_555
Hf1_3 Ir9_2 2.923108 1_555
Hf1_3 Ir9_3 2.923108 1_555
Hf1_3 Ir3_2 2.923108 1_555
Hf1_3 Ir3_3 2.923108 1_555
Hf1_3 Ir6_6 3.024709 1_555
Hf1_3 Ir6_7 3.024709 1_555
Hf1_3 Ir4_2 3.024709 1_555
Hf1_3 Ir4_3 3.024709 1_555
Hf1_4 Ir7_5 2.766886 1_554
Hf1_4 Ir7_4 2.766886 1_555
Hf1_4 Ir9_5 2.923108 1_554
Hf1_4 Ir9_4 2.923108 1_555
Hf1_4 Ir3_5 2.923108 1_554
Hf1_4 Ir3_4 2.923108 1_555
Hf1_4 Ir6_1 3.024709 1_654
Hf1_4 Ir6_0 3.024709 1_655
Hf1_4 Ir4_5 3.024709 1_554
Hf1_4 Ir4_4 3.024709 1_555
Hf1_4 Hf1_5 3.227283 1_555
Hf1_4 Hf1_5 3.227283 1_554
Hf1_5 Ir7_5 2.766886 1_555
Hf1_5 Ir7_4 2.766886 1_555
Hf1_5 Ir9_4 2.923108 1_555
Hf1_5 Ir9_5 2.923108 1_555
Hf1_5 Ir3_4 2.923108 1_555
Hf1_5 Ir3_5 2.923108 1_555
Hf1_5 Ir6_0 3.024709 1_655
Hf1_5 Ir6_1 3.024709 1_655
Hf1_5 Ir4_4 3.024709 1_555
Hf1_5 Ir4_5 3.024709 1_555
Hf1_6 Ir7_7 2.766886 1_554
Hf1_6 Ir7_6 2.766886 1_555
Hf1_6 Ir9_6 2.923108 1_555
Hf1_6 Ir9_7 2.923108 1_554
Hf1_6 Ir3_7 2.923108 1_554
Hf1_6 Ir3_6 2.923108 1_555
Hf1_6 Ir6_3 3.024709 1_654
Hf1_6 Ir6_2 3.024709 1_655
Hf1_6 Ir4_7 3.024709 1_554
Hf1_6 Ir4_6 3.024709 1_555
Hf1_6 Hf1_7 3.227283 1_555
Hf1_6 Hf1_7 3.227283 1_554
Hf1_7 Ir7_6 2.766886 1_555
Hf1_7 Ir7_7 2.766886 1_555
Hf1_7 Ir9_6 2.923108 1_555
Hf1_7 Ir9_7 2.923108 1_555
Hf1_7 Ir3_7 2.923108 1_555
Hf1_7 Ir3_6 2.923108 1_555
Hf1_7 Ir6_2 3.024709 1_655
Hf1_7 Ir6_3 3.024709 1_655
Hf1_7 Ir4_7 3.024709 1_555
Hf1_7 Ir4_6 3.024709 1_555
Hf2_0 Ir4_1 2.709580 1_554
Hf2_0 Ir4_0 2.709580 1_555
Hf2_0 Ir3_1 2.720560 1_554
Hf2_0 Ir3_0 2.720560 1_555
Hf2_0 Ir2_1 2.727287 1_554
Hf2_0 Ir2_0 2.727287 1_555
Hf2_0 Ir5_1 2.734315 1_554
Hf2_0 Ir5_0 2.734315 1_555
Hf2_1 Ir4_0 2.709580 1_555
Hf2_1 Ir4_1 2.709580 1_555
Hf2_1 Ir3_0 2.720560 1_555
Hf2_1 Ir3_1 2.720560 1_555
Hf2_1 Ir2_0 2.727287 1_555
Hf2_1 Ir2_1 2.727287 1_555
Hf2_1 Ir5_0 2.734315 1_555
Hf2_1 Ir5_1 2.734315 1_555
Hf2_2 Ir4_3 2.709580 1_554
Hf2_2 Ir4_2 2.709580 1_555
Hf2_2 Ir3_3 2.720560 1_554
Hf2_2 Ir3_2 2.720560 1_555
Hf2_2 Ir2_3 2.727287 1_554
Hf2_2 Ir2_2 2.727287 1_555
Hf2_2 Ir5_3 2.734315 1_554
Hf2_2 Ir5_2 2.734315 1_555
Hf2_3 Ir4_2 2.709580 1_555
Hf2_3 Ir4_3 2.709580 1_555
Hf2_3 Ir3_2 2.720560 1_555
Hf2_3 Ir3_3 2.720560 1_555
Hf2_3 Ir2_2 2.727287 1_555
Hf2_3 Ir2_3 2.727287 1_555
Hf2_3 Ir5_2 2.734315 1_555
Hf2_3 Ir5_3 2.734315 1_555
Hf2_4 Ir4_5 2.709580 1_554
Hf2_4 Ir4_4 2.709580 1_555
Hf2_4 Ir3_5 2.720560 1_554
Hf2_4 Ir3_4 2.720560 1_555
Hf2_4 Ir2_5 2.727287 1_554
Hf2_4 Ir2_4 2.727287 1_555
Hf2_4 Ir5_5 2.734315 1_554
Hf2_4 Ir5_4 2.734315 1_555
Hf2_5 Ir4_4 2.709580 1_555
Hf2_5 Ir4_5 2.709580 1_555
Hf2_5 Ir3_4 2.720560 1_555
Hf2_5 Ir3_5 2.720560 1_555
Hf2_5 Ir2_4 2.727287 1_555
Hf2_5 Ir2_5 2.727287 1_555
Hf2_5 Ir5_4 2.734315 1_555
Hf2_5 Ir5_5 2.734315 1_555
Hf2_6 Ir4_7 2.709580 1_554
Hf2_6 Ir4_6 2.709580 1_555
Hf2_6 Ir3_7 2.720560 1_554
Hf2_6 Ir3_6 2.720560 1_555
Hf2_6 Ir2_7 2.727287 1_554
Hf2_6 Ir2_6 2.727287 1_555
Hf2_6 Ir5_7 2.734315 1_554
Hf2_6 Ir5_6 2.734315 1_555
Hf2_7 Ir4_6 2.709580 1_555
Hf2_7 Ir4_7 2.709580 1_555
Hf2_7 Ir3_7 2.720560 1_555
Hf2_7 Ir3_6 2.720560 1_555
Hf2_7 Ir2_6 2.727287 1_555
Hf2_7 Ir2_7 2.727287 1_555
Hf2_7 Ir5_6 2.734315 1_555
Hf2_7 Ir5_7 2.734315 1_555
Hf3_0 Ir1_1 2.831723 1_554
Hf3_0 Ir1_0 2.831723 1_555
Hf3_0 Ir8_3 2.869949 1_554
Hf3_0 Ir8_2 2.869949 1_555
Hf3_0 Ir2_1 2.894655 1_554
Hf3_0 Ir2_0 2.894655 1_555
Hf3_0 Ir4_1 2.965598 1_554
Hf3_0 Ir4_0 2.965598 1_555
Hf3_0 Ir9_3 3.084676 1_554
Hf3_0 Ir9_2 3.084676 1_555
Hf3_0 Hf3_1 3.227283 1_555
Hf3_0 Hf3_1 3.227283 1_554
Hf3_1 Ir1_0 2.831723 1_555
Hf3_1 Ir1_1 2.831723 1_555
Hf3_1 Ir8_2 2.869949 1_555
Hf3_1 Ir8_3 2.869949 1_555
Hf3_1 Ir2_0 2.894655 1_555
Hf3_1 Ir2_1 2.894655 1_555
Hf3_1 Ir4_0 2.965598 1_555
Hf3_1 Ir4_1 2.965598 1_555
Hf3_1 Ir9_2 3.084676 1_555
Hf3_1 Ir9_3 3.084676 1_555
Hf3_2 Ir1_3 2.831723 1_554
Hf3_2 Ir1_2 2.831723 1_555
Hf3_2 Ir8_0 2.869949 1_565
Hf3_2 Ir8_1 2.869949 1_564
Hf3_2 Ir2_3 2.894655 1_554
Hf3_2 Ir2_2 2.894655 1_555
Hf3_2 Ir4_3 2.965598 1_554
Hf3_2 Ir4_2 2.965598 1_555
Hf3_2 Ir9_1 3.084676 1_564
Hf3_2 Ir9_0 3.084676 1_565
Hf3_2 Hf3_3 3.227283 1_554
Hf3_2 Hf3_3 3.227283 1_555
Hf3_3 Ir1_2 2.831723 1_555
Hf3_3 Ir1_3 2.831723 1_555
Hf3_3 Ir8_0 2.869949 1_565
Hf3_3 Ir8_1 2.869949 1_565
Hf3_3 Ir2_2 2.894655 1_555
Hf3_3 Ir2_3 2.894655 1_555
Hf3_3 Ir4_2 2.965598 1_555
Hf3_3 Ir4_3 2.965598 1_555
Hf3_3 Ir9_0 3.084676 1_565
Hf3_3 Ir9_1 3.084676 1_565
Hf3_4 Ir1_5 2.831723 1_554
Hf3_4 Ir1_4 2.831723 1_555
Hf3_4 Ir8_7 2.869949 1_554
Hf3_4 Ir8_6 2.869949 1_555
Hf3_4 Ir2_5 2.894655 1_554
Hf3_4 Ir2_4 2.894655 1_555
Hf3_4 Ir4_5 2.965598 1_554
Hf3_4 Ir4_4 2.965598 1_555
Hf3_4 Ir9_6 3.084676 1_555
Hf3_4 Ir9_7 3.084676 1_554
Hf3_4 Hf3_5 3.227283 1_555
Hf3_4 Hf3_5 3.227283 1_554
Hf3_5 Ir1_4 2.831723 1_555
Hf3_5 Ir1_5 2.831723 1_555
Hf3_5 Ir8_6 2.869949 1_555
Hf3_5 Ir8_7 2.869949 1_555
Hf3_5 Ir2_4 2.894655 1_555
Hf3_5 Ir2_5 2.894655 1_555
Hf3_5 Ir4_4 2.965598 1_555
Hf3_5 Ir4_5 2.965598 1_555
Hf3_5 Ir9_6 3.084676 1_555
Hf3_5 Ir9_7 3.084676 1_555
Hf3_6 Ir1_7 2.831723 1_554
Hf3_6 Ir1_6 2.831723 1_555
Hf3_6 Ir8_5 2.869949 1_564
Hf3_6 Ir8_4 2.869949 1_565
Hf3_6 Ir2_7 2.894655 1_554
Hf3_6 Ir2_6 2.894655 1_555
Hf3_6 Ir4_7 2.965598 1_554
Hf3_6 Ir4_6 2.965598 1_555
Hf3_6 Ir9_4 3.084676 1_565
Hf3_6 Ir9_5 3.084676 1_564
Hf3_6 Hf3_7 3.227283 1_554
Hf3_6 Hf3_7 3.227283 1_555
Hf3_7 Ir1_6 2.831723 1_555
Hf3_7 Ir1_7 2.831723 1_555
Hf3_7 Ir8_4 2.869949 1_565
Hf3_7 Ir8_5 2.869949 1_565
Hf3_7 Ir2_6 2.894655 1_555
Hf3_7 Ir2_7 2.894655 1_555
Hf3_7 Ir4_6 2.965598 1_555
Hf3_7 Ir4_7 2.965598 1_555
Hf3_7 Ir9_4 3.084676 1_565
Hf3_7 Ir9_5 3.084676 1_565
Hf4_0 Ir6_3 2.709580 1_554
Hf4_0 Ir6_2 2.709580 1_555
Hf4_0 Ir9_7 2.720560 1_454
Hf4_0 Ir9_6 2.720560 1_455
Hf4_0 Ir0_1 2.727287 1_554
Hf4_0 Ir0_0 2.727287 1_555
Hf4_0 Ir1_5 2.734315 1_454
Hf4_0 Ir1_4 2.734315 1_455
Hf4_1 Ir6_2 2.709580 1_555
Hf4_1 Ir6_3 2.709580 1_555
Hf4_1 Ir9_6 2.720560 1_455
Hf4_1 Ir9_7 2.720560 1_455
Hf4_1 Ir0_0 2.727287 1_555
Hf4_1 Ir0_1 2.727287 1_555
Hf4_1 Ir1_4 2.734315 1_455
Hf4_1 Ir1_5 2.734315 1_455
Hf4_2 Ir6_1 2.709580 1_564
Hf4_2 Ir6_0 2.709580 1_565
Hf4_2 Ir9_5 2.720560 1_464
Hf4_2 Ir9_4 2.720560 1_465
Hf4_2 Ir0_3 2.727287 1_554
Hf4_2 Ir0_2 2.727287 1_555
Hf4_2 Ir1_7 2.734315 1_454
Hf4_2 Ir1_6 2.734315 1_455
Hf4_3 Ir6_0 2.709580 1_565
Hf4_3 Ir6_1 2.709580 1_565
Hf4_3 Ir9_4 2.720560 1_465
Hf4_3 Ir9_5 2.720560 1_465
Hf4_3 Ir0_2 2.727287 1_555
Hf4_3 Ir0_3 2.727287 1_555
Hf4_3 Ir1_7 2.734315 1_455
Hf4_3 Ir1_6 2.734315 1_455
Hf4_4 Ir6_7 2.709580 1_554
Hf4_4 Ir6_6 2.709580 1_555
Hf4_4 Ir9_3 2.720560 1_554
Hf4_4 Ir9_2 2.720560 1_555
Hf4_4 Ir0_5 2.727287 1_554
Hf4_4 Ir0_4 2.727287 1_555
Hf4_4 Ir1_1 2.734315 1_554
Hf4_4 Ir1_0 2.734315 1_555
Hf4_5 Ir6_6 2.709580 1_555
Hf4_5 Ir6_7 2.709580 1_555
Hf4_5 Ir9_2 2.720560 1_555
Hf4_5 Ir9_3 2.720560 1_555
Hf4_5 Ir0_4 2.727287 1_555
Hf4_5 Ir0_5 2.727287 1_555
Hf4_5 Ir1_0 2.734315 1_555
Hf4_5 Ir1_1 2.734315 1_555
Hf4_6 Ir6_5 2.709580 1_564
Hf4_6 Ir6_4 2.709580 1_565
Hf4_6 Ir9_1 2.720560 1_564
Hf4_6 Ir9_0 2.720560 1_565
Hf4_6 Ir0_7 2.727287 1_554
Hf4_6 Ir0_6 2.727287 1_555
Hf4_6 Ir1_3 2.734315 1_554
Hf4_6 Ir1_2 2.734315 1_555
Hf4_7 Ir6_4 2.709580 1_565
Hf4_7 Ir6_5 2.709580 1_565
Hf4_7 Ir9_0 2.720560 1_565
Hf4_7 Ir9_1 2.720560 1_565
Hf4_7 Ir0_6 2.727287 1_555
Hf4_7 Ir0_7 2.727287 1_555
Hf4_7 Ir1_2 2.734315 1_555
Hf4_7 Ir1_3 2.734315 1_555
Be0_0 Ir0_1 2.294701 1_554
Be0_0 Ir2_1 2.294701 1_554
Be0_0 Ir0_0 2.294701 1_555
Be0_0 Ir2_0 2.294701 1_555
Be0_0 Ir8_3 2.316746 1_554
Be0_0 Ir8_2 2.316746 1_555
Be0_0 Ca0_0 2.823144 1_555
Be0_0 Hf0_2 2.853103 1_555
Be0_0 Hf3_0 2.853103 1_555
Be0_1 Ir0_0 2.294701 1_555
Be0_1 Ir2_0 2.294701 1_555
Be0_1 Ir0_1 2.294701 1_555
Be0_1 Ir2_1 2.294701 1_555
Be0_1 Ir8_2 2.316746 1_555
Be0_1 Ir8_3 2.316746 1_555
Be0_1 Ca0_1 2.823144 1_555
Be0_1 Hf0_3 2.853103 1_555
Be0_1 Hf3_1 2.853103 1_555
Be0_2 Ir0_3 2.294701 1_554
Be0_2 Ir2_3 2.294701 1_554
Be0_2 Ir0_2 2.294701 1_555
Be0_2 Ir2_2 2.294701 1_555
Be0_2 Ir8_1 2.316746 1_564
Be0_2 Ir8_0 2.316746 1_565
Be0_2 Ca0_2 2.823144 1_555
Be0_2 Hf0_0 2.853103 1_565
Be0_2 Hf3_2 2.853103 1_555
Be0_3 Ir0_2 2.294701 1_555
Be0_3 Ir0_3 2.294701 1_555
Be0_3 Ir2_2 2.294701 1_555
Be0_3 Ir2_3 2.294701 1_555
Be0_3 Ir8_0 2.316746 1_565
Be0_3 Ir8_1 2.316746 1_565
Be0_3 Ca0_3 2.823144 1_555
Be0_3 Hf0_1 2.853103 1_565
Be0_3 Hf3_3 2.853103 1_555
Be0_4 Ir0_5 2.294701 1_554
Be0_4 Ir0_4 2.294701 1_555
Be0_4 Ir2_5 2.294701 1_554
Be0_4 Ir2_4 2.294701 1_555
Be0_4 Ir8_7 2.316746 1_554
Be0_4 Ir8_6 2.316746 1_555
Be0_4 Ca0_4 2.823144 1_555
Be0_4 Hf0_6 2.853103 1_555
Be0_4 Hf3_4 2.853103 1_555
Be0_5 Ir0_4 2.294701 1_555
Be0_5 Ir0_5 2.294701 1_555
Be0_5 Ir2_4 2.294701 1_555
Be0_5 Ir2_5 2.294701 1_555
Be0_5 Ir8_6 2.316746 1_555
Be0_5 Ir8_7 2.316746 1_555
Be0_5 Ca0_5 2.823144 1_555
Be0_5 Hf0_7 2.853103 1_555
Be0_5 Hf3_5 2.853103 1_555
Be0_6 Ir0_7 2.294701 1_554
Be0_6 Ir0_6 2.294701 1_555
Be0_6 Ir2_7 2.294701 1_554
Be0_6 Ir2_6 2.294701 1_555
Be0_6 Ir8_5 2.316746 1_564
Be0_6 Ir8_4 2.316746 1_565
Be0_6 Ca0_6 2.823144 1_555
Be0_6 Hf0_4 2.853103 1_565
Be0_6 Hf3_6 2.853103 1_555
Be0_7 Ir0_6 2.294701 1_555
Be0_7 Ir0_7 2.294701 1_555
Be0_7 Ir2_6 2.294701 1_555
Be0_7 Ir2_7 2.294701 1_555
Be0_7 Ir8_4 2.316746 1_565
Be0_7 Ir8_5 2.316746 1_565
Be0_7 Ca0_7 2.823144 1_555
Be0_7 Hf0_5 2.853103 1_565
Be0_7 Hf3_7 2.853103 1_555
Be1_0 Ir7_5 2.283420 1_454
Be1_0 Ir7_4 2.283420 1_455
Be1_0 Ir5_1 2.305977 1_554
Be1_0 Ir5_0 2.305977 1_555
Be1_0 Ir6_1 2.311533 1_554
Be1_0 Ir6_0 2.311533 1_555
Be1_0 Hf0_0 2.778102 1_555
Be1_0 Hf1_4 2.846552 1_455
Be1_0 Ca0_0 2.920217 1_555
Be1_1 Ir7_4 2.283420 1_455
Be1_1 Ir7_5 2.283420 1_455
Be1_1 Ir5_0 2.305977 1_555
Be1_1 Ir5_1 2.305977 1_555
Be1_1 Ir6_0 2.311533 1_555
Be1_1 Ir6_1 2.311533 1_555
Be1_1 Hf0_1 2.778102 1_555
Be1_1 Hf1_5 2.846552 1_455
Be1_1 Ca0_1 2.920217 1_555
Be1_2 Ir7_7 2.283420 1_454
Be1_2 Ir7_6 2.283420 1_455
Be1_2 Ir5_3 2.305977 1_554
Be1_2 Ir5_2 2.305977 1_555
Be1_2 Ir6_3 2.311533 1_554
Be1_2 Ir6_2 2.311533 1_555
Be1_2 Hf0_2 2.778102 1_555
Be1_2 Hf1_6 2.846552 1_455
Be1_2 Ca0_2 2.920217 1_555
Be1_3 Ir7_6 2.283420 1_455
Be1_3 Ir7_7 2.283420 1_455
Be1_3 Ir5_2 2.305977 1_555
Be1_3 Ir5_3 2.305977 1_555
Be1_3 Ir6_2 2.311533 1_555
Be1_3 Ir6_3 2.311533 1_555
Be1_3 Hf0_3 2.778102 1_555
Be1_3 Hf1_7 2.846552 1_455
Be1_3 Ca0_3 2.920217 1_555
Be1_4 Ir7_1 2.283420 1_554
Be1_4 Ir7_0 2.283420 1_555
Be1_4 Ir5_5 2.305977 1_554
Be1_4 Ir5_4 2.305977 1_555
Be1_4 Ir6_5 2.311533 1_554
Be1_4 Ir6_4 2.311533 1_555
Be1_4 Hf0_4 2.778102 1_555
Be1_4 Hf1_0 2.846552 1_555
Be1_4 Ca0_4 2.920217 1_555
Be1_5 Ir7_0 2.283420 1_555
Be1_5 Ir7_1 2.283420 1_555
Be1_5 Ir5_5 2.305977 1_555
Be1_5 Ir5_4 2.305977 1_555
Be1_5 Ir6_4 2.311533 1_555
Be1_5 Ir6_5 2.311533 1_555
Be1_5 Hf0_5 2.778102 1_555
Be1_5 Hf1_1 2.846552 1_555
Be1_5 Ca0_5 2.920217 1_555
Be1_6 Ir7_3 2.283420 1_554
Be1_6 Ir7_2 2.283420 1_555
Be1_6 Ir5_7 2.305977 1_554
Be1_6 Ir5_6 2.305977 1_555
Be1_6 Ir6_7 2.311533 1_554
Be1_6 Ir6_6 2.311533 1_555
Be1_6 Hf0_6 2.778102 1_555
Be1_6 Hf1_2 2.846552 1_555
Be1_6 Ca0_6 2.920217 1_555
Be1_7 Ir7_2 2.283420 1_555
Be1_7 Ir7_3 2.283420 1_555
Be1_7 Ir5_6 2.305977 1_555
Be1_7 Ir5_7 2.305977 1_555
Be1_7 Ir6_6 2.311533 1_555
Be1_7 Ir6_7 2.311533 1_555
Be1_7 Hf0_7 2.778102 1_555
Be1_7 Hf1_3 2.846552 1_555
Be1_7 Ca0_7 2.920217 1_555
Be2_0 Ir7_1 2.283420 1_554
Be2_0 Ir7_0 2.283420 1_555
Be2_0 Ir1_1 2.305977 1_554
Be2_0 Ir1_0 2.305977 1_555
Be2_0 Ir4_1 2.311533 1_554
Be2_0 Ir4_0 2.311533 1_555
Be2_0 Hf3_0 2.778102 1_555
Be2_0 Hf1_0 2.846552 1_555
Be2_0 Ca0_4 2.920217 1_555
Be2_1 Ir7_0 2.283420 1_555
Be2_1 Ir7_1 2.283420 1_555
Be2_1 Ir1_0 2.305977 1_555
Be2_1 Ir1_1 2.305977 1_555
Be2_1 Ir4_0 2.311533 1_555
Be2_1 Ir4_1 2.311533 1_555
Be2_1 Hf3_1 2.778102 1_555
Be2_1 Hf1_1 2.846552 1_555
Be2_1 Ca0_5 2.920217 1_555
Be2_2 Ir7_3 2.283420 1_554
Be2_2 Ir7_2 2.283420 1_555
Be2_2 Ir1_3 2.305977 1_554
Be2_2 Ir1_2 2.305977 1_555
Be2_2 Ir4_3 2.311533 1_554
Be2_2 Ir4_2 2.311533 1_555
Be2_2 Hf3_2 2.778102 1_555
Be2_2 Hf1_2 2.846552 1_555
Be2_2 Ca0_6 2.920217 1_555
Be2_3 Ir7_2 2.283420 1_555
Be2_3 Ir7_3 2.283420 1_555
Be2_3 Ir1_2 2.305977 1_555
Be2_3 Ir1_3 2.305977 1_555
Be2_3 Ir4_2 2.311533 1_555
Be2_3 Ir4_3 2.311533 1_555
Be2_3 Hf3_3 2.778102 1_555
Be2_3 Hf1_3 2.846552 1_555
Be2_3 Ca0_7 2.920217 1_555
Be2_4 Ir7_5 2.283420 1_554
Be2_4 Ir7_4 2.283420 1_555
Be2_4 Ir1_5 2.305977 1_554
Be2_4 Ir1_4 2.305977 1_555
Be2_4 Ir4_5 2.311533 1_554
Be2_4 Ir4_4 2.311533 1_555
Be2_4 Hf3_4 2.778102 1_555
Be2_4 Hf1_4 2.846552 1_555
Be2_4 Ca0_0 2.920217 1_655
Be2_5 Ir7_4 2.283420 1_555
Be2_5 Ir7_5 2.283420 1_555
Be2_5 Ir1_4 2.305977 1_555
Be2_5 Ir1_5 2.305977 1_555
Be2_5 Ir4_4 2.311533 1_555
Be2_5 Ir4_5 2.311533 1_555
Be2_5 Hf3_5 2.778102 1_555
Be2_5 Hf1_5 2.846552 1_555
Be2_5 Ca0_1 2.920217 1_655
Be2_6 Ir7_7 2.283420 1_554
Be2_6 Ir7_6 2.283420 1_555
Be2_6 Ir1_7 2.305977 1_554
Be2_6 Ir1_6 2.305977 1_555
Be2_6 Ir4_7 2.311533 1_554
Be2_6 Ir4_6 2.311533 1_555
Be2_6 Hf3_6 2.778102 1_555
Be2_6 Hf1_6 2.846552 1_555
Be2_6 Ca0_2 2.920217 1_655
Be2_7 Ir7_6 2.283420 1_555
Be2_7 Ir7_7 2.283420 1_555
Be2_7 Ir1_6 2.305977 1_555
Be2_7 Ir1_7 2.305977 1_555
Be2_7 Ir4_6 2.311533 1_555
Be2_7 Ir4_7 2.311533 1_555
Be2_7 Hf3_7 2.778102 1_555
Be2_7 Hf1_7 2.846552 1_555
Be2_7 Ca0_3 2.920217 1_655
Be3_0 Ir8_1 2.267697 1_554
Be3_0 Ir8_0 2.267697 1_555
Be3_0 Ir3_1 2.295366 1_554
Be3_0 Ir9_1 2.295366 1_554
Be3_0 Ir3_0 2.295366 1_555
Be3_0 Ir9_0 2.295366 1_555
Be3_0 Hf1_0 2.757304 1_555
Be3_0 Hf0_0 2.901169 1_555
Be3_0 Hf3_2 2.901169 1_545
Be3_1 Ir8_0 2.267697 1_555
Be3_1 Ir8_1 2.267697 1_555
Be3_1 Ir3_0 2.295366 1_555
Be3_1 Ir3_1 2.295366 1_555
Be3_1 Ir9_0 2.295366 1_555
Be3_1 Ir9_1 2.295366 1_555
Be3_1 Hf1_1 2.757304 1_555
Be3_1 Hf0_1 2.901169 1_555
Be3_1 Hf3_3 2.901169 1_545
Be3_2 Ir8_3 2.267697 1_554
Be3_2 Ir8_2 2.267697 1_555
Be3_2 Ir3_3 2.295366 1_554
Be3_2 Ir3_2 2.295366 1_555
Be3_2 Ir9_3 2.295366 1_554
Be3_2 Ir9_2 2.295366 1_555
Be3_2 Hf1_2 2.757304 1_555
Be3_2 Hf0_2 2.901169 1_555
Be3_2 Hf3_0 2.901169 1_555
Be3_3 Ir8_2 2.267697 1_555
Be3_3 Ir8_3 2.267697 1_555
Be3_3 Ir3_2 2.295366 1_555
Be3_3 Ir3_3 2.295366 1_555
Be3_3 Ir9_2 2.295366 1_555
Be3_3 Ir9_3 2.295366 1_555
Be3_3 Hf1_3 2.757304 1_555
Be3_3 Hf0_3 2.901169 1_555
Be3_3 Hf3_1 2.901169 1_555
Be3_4 Ir8_5 2.267697 1_554
Be3_4 Ir8_4 2.267697 1_555
Be3_4 Ir9_5 2.295366 1_554
Be3_4 Ir3_5 2.295366 1_554
Be3_4 Ir9_4 2.295366 1_555
Be3_4 Ir3_4 2.295366 1_555
Be3_4 Hf1_4 2.757304 1_555
Be3_4 Hf0_4 2.901169 1_555
Be3_4 Hf3_6 2.901169 1_545
Be3_5 Ir8_4 2.267697 1_555
Be3_5 Ir8_5 2.267697 1_555
Be3_5 Ir9_4 2.295366 1_555
Be3_5 Ir3_4 2.295366 1_555
Be3_5 Ir9_5 2.295366 1_555
Be3_5 Ir3_5 2.295366 1_555
Be3_5 Hf1_5 2.757304 1_555
Be3_5 Hf0_5 2.901169 1_555
Be3_5 Hf3_7 2.901169 1_545
Be3_6 Ir8_7 2.267697 1_554
Be3_6 Ir8_6 2.267697 1_555
Be3_6 Ir3_7 2.295366 1_554
Be3_6 Ir3_6 2.295366 1_555
Be3_6 Ir9_7 2.295366 1_554
Be3_6 Ir9_6 2.295366 1_555
Be3_6 Hf1_6 2.757304 1_555
Be3_6 Hf0_6 2.901169 1_555
Be3_6 Hf3_4 2.901169 1_555
Be3_7 Ir8_6 2.267697 1_555
Be3_7 Ir8_7 2.267697 1_555
Be3_7 Ir3_6 2.295366 1_555
Be3_7 Ir3_7 2.295366 1_555
Be3_7 Ir9_6 2.295366 1_555
Be3_7 Ir9_7 2.295366 1_555
Be3_7 Hf1_7 2.757304 1_555
Be3_7 Hf0_7 2.901169 1_555
Be3_7 Hf3_5 2.901169 1_555
