# generated using pymatgen
data_Ba(HS)2
_symmetry_space_group_name_H-M   'P 1'
_cell_length_a   8.19689504
_cell_length_b   7.16240402
_cell_length_c   8.19335167
_cell_angle_alpha   76.51015548
_cell_angle_beta   90.00000000
_cell_angle_gamma   90.00000000
_symmetry_Int_Tables_number   1
_chemical_formula_structural   Ba(HS)2
_chemical_formula_sum   'Ba4 H8 S8'
_cell_volume   467.75643839
_cell_formula_units_Z   4
loop_
 _symmetry_equiv_pos_site_id
 _symmetry_equiv_pos_as_xyz
  1  'x, y, z'
loop_
 _atom_site_type_symbol
 _atom_site_label
 _atom_site_symmetry_multiplicity
 _atom_site_fract_x
 _atom_site_fract_y
 _atom_site_fract_z
 _atom_site_occupancy
  Ba  Ba0  1  0.54690862  0.68618357  0.70056252  1
  Ba  Ba1  1  0.04690862  0.31381643  0.79943748  1
  Ba  Ba2  1  0.45309138  0.31381643  0.29943748  1
  Ba  Ba3  1  0.95309138  0.68618357  0.20056252  1
  H  H0  1  0.97133667  0.84266765  0.74008148  1
  H  H1  1  0.47133667  0.15733235  0.75991852  1
  H  H2  1  0.02866333  0.15733235  0.25991852  1
  H  H3  1  0.52866333  0.84266765  0.24008148  1
  H  H4  1  0.26745387  0.77402005  0.91698720  1
  H  H5  1  0.76745387  0.22597995  0.58301280  1
  H  H6  1  0.73254613  0.22597995  0.08301280  1
  H  H7  1  0.23254613  0.77402005  0.41698720  1
  S  S0  1  0.85042527  0.91548198  0.81720479  1
  S  S1  1  0.35042527  0.08451802  0.68279521  1
  S  S2  1  0.14957473  0.08451802  0.18279521  1
  S  S3  1  0.64957473  0.91548198  0.31720479  1
  S  S4  1  0.25850625  0.58335868  0.98583243  1
  S  S5  1  0.75850625  0.41664132  0.51416757  1
  S  S6  1  0.74149375  0.41664132  0.01416757  1
  S  S7  1  0.24149375  0.58335868  0.48583243  1
loop_
_geom_bond_atom_site_label_1
_geom_bond_atom_site_label_2
_geom_bond_distance
_geom_bond_site_symmetry_2
Ba0 H4 3.050866 1_555
Ba0 S5 3.231607 1_555
Ba0 S7 3.241841 1_555
Ba0 S0 3.245377 1_555
Ba0 S6 3.249460 1_556
Ba0 S1 3.249784 1_565
Ba0 S4 3.284944 1_555
Ba0 S3 3.296139 1_555
Ba1 H5 3.050866 1_455
Ba1 S4 3.231607 1_555
Ba1 S6 3.241841 1_456
Ba1 S1 3.245377 1_555
Ba1 S7 3.249460 1_555
Ba1 S0 3.249784 1_445
Ba1 S5 3.284944 1_455
Ba1 S2 3.296139 1_556
Ba2 H6 3.050866 1_555
Ba2 S7 3.231607 1_555
Ba2 S5 3.241841 1_555
Ba2 S2 3.245377 1_555
Ba2 S4 3.249460 1_554
Ba2 S3 3.249784 1_545
Ba2 S6 3.284944 1_555
Ba2 S1 3.296139 1_555
Ba3 H7 3.050866 1_655
Ba3 S6 3.231607 1_555
Ba3 S4 3.241841 1_654
Ba3 S3 3.245377 1_555
Ba3 S5 3.249460 1_555
Ba3 S2 3.249784 1_665
Ba3 S7 3.284944 1_655
Ba3 S0 3.296139 1_554
H0 S0 1.344363 1_555
H1 S1 1.344363 1_555
H2 S2 1.344363 1_555
H3 S3 1.344363 1_555
H4 S4 1.352415 1_555
H5 S5 1.352415 1_555
H6 S6 1.352415 1_555
H7 S7 1.352415 1_555
