# generated using pymatgen
data_LiYPt3Rh
_symmetry_space_group_name_H-M   'P 1'
_cell_length_a   5.29465519
_cell_length_b   5.26616078
_cell_length_c   5.29465400
_cell_angle_alpha   59.82084372
_cell_angle_beta   59.99999519
_cell_angle_gamma   59.82084886
_symmetry_Int_Tables_number   1
_chemical_formula_structural   LiYPt3Rh
_chemical_formula_sum   'Li1 Y1 Pt3 Rh1'
_cell_volume   104.10534215
_cell_formula_units_Z   1
loop_
 _symmetry_equiv_pos_site_id
 _symmetry_equiv_pos_as_xyz
  1  'x, y, z'
loop_
 _atom_site_type_symbol
 _atom_site_label
 _atom_site_symmetry_multiplicity
 _atom_site_fract_x
 _atom_site_fract_y
 _atom_site_fract_z
 _atom_site_occupancy
  Li  Li0  1  0.25137391  0.24587826  0.25137391  1
  Y  Y0  1  0.99917827  0.00246620  0.99917827  1
  Pt  Pt0  1  0.62430780  0.62503728  0.12634611  1
  Pt  Pt1  1  0.12634611  0.62503728  0.62430780  1
  Pt  Pt2  1  0.62430780  0.62503728  0.62430780  1
  Rh  Rh0  1  0.62448510  0.12654269  0.62448510  1
loop_
_geom_bond_atom_site_label_1
_geom_bond_atom_site_label_2
_geom_bond_distance
_geom_bond_site_symmetry_2
Li0 Pt2 3.066697 1_545
Li0 Pt1 3.066699 1_545
Li0 Pt0 3.066699 1_545
Li0 Rh0 3.099400 1_555
Li0 Rh0 3.099409 1_554
Li0 Rh0 3.099409 1_455
Li0 Pt1 3.106743 1_555
Li0 Pt0 3.106743 1_555
Li0 Pt2 3.106745 1_554
Li0 Pt2 3.106745 1_455
Li0 Pt1 3.106747 1_554
Li0 Pt0 3.106748 1_455
Li0 Y0 3.230157 1_454
Li0 Y0 3.230161 1_455
Li0 Y0 3.230162 1_554
Li0 Y0 3.244341 1_464
Pt0 Rh0 2.624206 1_555
Pt0 Pt2 2.636535 1_555
Pt0 Pt1 2.636535 1_555
Pt0 Rh0 2.641954 1_564
Pt0 Pt2 2.658119 1_554
Pt0 Pt1 2.658119 1_654
Pt0 Y0 3.079331 1_554
Pt0 Y0 3.102865 1_464
Pt0 Y0 3.102874 1_564
Pt1 Rh0 2.624207 1_555
Pt1 Pt2 2.636535 1_555
Pt1 Rh0 2.641955 1_465
Pt1 Pt2 2.658120 1_455
Pt1 Y0 3.079331 1_455
Pt1 Y0 3.102864 1_464
Pt1 Y0 3.102874 1_465
Pt2 Rh0 2.624209 1_555
Pt2 Rh0 2.641952 1_565
Pt2 Y0 3.079335 1_555
Pt2 Y0 3.102869 1_564
Pt2 Y0 3.102869 1_465
Rh0 Y0 3.102823 1_554
Rh0 Y0 3.102823 1_455
Rh0 Y0 3.102837 1_555
