# generated using pymatgen
data_Ta9(FeS3)2
_symmetry_space_group_name_H-M   'P 1'
_cell_length_a   10.38314948
_cell_length_b   10.38314183
_cell_length_c   6.57049595
_cell_angle_alpha   90.00004295
_cell_angle_beta   90.00003929
_cell_angle_gamma   119.99993274
_symmetry_Int_Tables_number   1
_chemical_formula_structural   Ta9(FeS3)2
_chemical_formula_sum   'Ta18 Fe4 S12'
_cell_volume   613.46101746
_cell_formula_units_Z   2
loop_
 _symmetry_equiv_pos_site_id
 _symmetry_equiv_pos_as_xyz
  1  'x, y, z'
loop_
 _atom_site_type_symbol
 _atom_site_label
 _atom_site_symmetry_multiplicity
 _atom_site_fract_x
 _atom_site_fract_y
 _atom_site_fract_z
 _atom_site_occupancy
  Ta  Ta0  1  0.78208590  0.52640988  0.00001981  1
  Ta  Ta1  1  0.74431553  0.21790513  0.00002256  1
  Ta  Ta2  1  0.47358570  0.25567240  0.00002053  1
  Ta  Ta3  1  0.25570100  0.47359922  0.00001139  1
  Ta  Ta4  1  0.52640560  0.78210463  0.00001135  1
  Ta  Ta5  1  0.21791156  0.74430820  0.00000511  1
  Ta  Ta6  1  0.73421623  0.19050373  0.49998160  1
  Ta  Ta7  1  0.80949009  0.54371080  0.49997453  1
  Ta  Ta8  1  0.45628320  0.26577308  0.49997543  1
  Ta  Ta9  1  0.26578989  0.45629760  0.50000321  1
  Ta  Ta10  1  0.54370033  0.80949298  0.50000226  1
  Ta  Ta11  1  0.19051503  0.73421384  0.50000080  1
  Ta  Ta12  1  0.45973497  0.00000511  0.75375065  1
  Ta  Ta13  1  0.54028302  0.54027519  0.24624080  1
  Ta  Ta14  1  -0.00000964  0.45971705  0.24624159  1
  Ta  Ta15  1  -0.00000335  0.45972724  0.75375349  1
  Ta  Ta16  1  0.54027273  0.54027183  0.75375521  1
  Ta  Ta17  1  0.45972724  0.00000941  0.24624213  1
  Fe  Fe0  1  0.66665925  0.33331987  0.28440654  1
  Fe  Fe1  1  0.66665810  0.33332144  0.71557697  1
  Fe  Fe2  1  0.33334334  0.66667832  0.71557362  1
  Fe  Fe3  1  0.33334279  0.66667764  0.28442718  1
  S  S0  1  0.70077465  0.00000630  0.76593358  1
  S  S1  1  0.29923619  0.29923506  0.23407009  1
  S  S2  1  -0.00000021  0.70076492  0.23406812  1
  S  S3  1  -0.00000727  0.70077060  0.76593242  1
  S  S4  1  0.29923095  0.29922350  0.76593201  1
  S  S5  1  0.70076249  0.00000125  0.23406900  1
  S  S6  1  -0.00001850  0.27936521  0.49999335  1
  S  S7  1  0.72063406  0.72061782  0.49999387  1
  S  S8  1  0.27937884  0.00001549  0.49999414  1
  S  S9  1  -0.00002228  0.27630336  0.00000390  1
  S  S10  1  0.72369561  0.72367725  0.00000563  1
  S  S11  1  0.27632392  0.00002165  0.00000614  1
loop_
_geom_bond_atom_site_label_1
_geom_bond_atom_site_label_2
_geom_bond_distance
_geom_bond_site_symmetry_2
Fe0 Ta6 2.395294 1_555
Fe0 Ta8 2.395313 1_555
Fe0 Ta7 2.395402 1_555
Fe0 Ta1 2.558114 1_555
Fe0 Ta2 2.558148 1_555
Fe0 Ta0 2.558248 1_555
Fe1 Ta6 2.395392 1_555
Fe1 Ta8 2.395426 1_555
Fe1 Ta7 2.395531 1_555
Fe1 Ta2 2.558418 1_556
Fe1 Ta1 2.558427 1_556
Fe1 Ta0 2.558506 1_556
Fe2 Ta10 2.395180 1_555
Fe2 Ta11 2.395247 1_555
Fe2 Ta9 2.395341 1_555
Fe2 Ta5 2.558303 1_556
Fe2 Ta4 2.558332 1_556
Fe2 Ta3 2.558438 1_556
Fe3 Ta10 2.395196 1_555
Fe3 Ta11 2.395251 1_555
Fe3 Ta9 2.395361 1_555
Fe3 Ta4 2.558234 1_555
Fe3 Ta5 2.558258 1_555
Fe3 Ta3 2.558326 1_555
S0 Ta12 2.504025 1_555
S0 Ta6 2.529750 1_555
S0 Ta10 2.529779 1_545
S0 Ta1 2.581864 1_556
S0 Ta4 2.581870 1_546
S1 Ta13 2.504069 1_555
S1 Ta8 2.529569 1_555
S1 Ta9 2.529735 1_555
S1 Ta2 2.581761 1_555
S1 Ta3 2.581766 1_555
S2 Ta14 2.504063 1_555
S2 Ta7 2.529600 1_455
S2 Ta11 2.529774 1_555
S2 Ta0 2.581780 1_455
S2 Ta5 2.581865 1_555
S3 Ta15 2.504087 1_555
S3 Ta7 2.529811 1_455
S3 Ta11 2.529839 1_555
S3 Ta0 2.581914 1_456
S3 Ta5 2.581974 1_556
S4 Ta16 2.504087 1_555
S4 Ta9 2.529777 1_555
S4 Ta8 2.529787 1_555
S4 Ta2 2.581893 1_556
S4 Ta3 2.581912 1_556
S5 Ta17 2.504025 1_555
S5 Ta6 2.529575 1_555
S5 Ta10 2.529736 1_545
S5 Ta1 2.581708 1_555
S5 Ta4 2.581727 1_545
S6 Ta6 2.433100 1_455
S6 Ta9 2.433495 1_555
S6 Ta14 2.507257 1_555
S6 Ta15 2.507347 1_555
S7 Ta7 2.433086 1_555
S7 Ta10 2.433499 1_555
S7 Ta13 2.507258 1_555
S7 Ta16 2.507350 1_555
S8 Ta8 2.433040 1_555
S8 Ta11 2.433450 1_545
S8 Ta17 2.507291 1_555
S8 Ta12 2.507385 1_555
S9 Ta1 2.409323 1_455
S9 Ta3 2.409853 1_555
S9 Ta14 2.498827 1_555
S9 Ta15 2.498939 1_554
S10 Ta0 2.409299 1_555
S10 Ta4 2.409790 1_555
S10 Ta13 2.498821 1_555
S10 Ta16 2.498936 1_554
S11 Ta2 2.409236 1_555
S11 Ta5 2.409797 1_545
S11 Ta17 2.498837 1_555
S11 Ta12 2.499000 1_554
