# generated using pymatgen
data_RbTiTc2Te3
_symmetry_space_group_name_H-M   'P 1'
_cell_length_a   10.14778545
_cell_length_b   9.95195668
_cell_length_c   4.52112833
_cell_angle_alpha   90.00000000
_cell_angle_beta   90.00000000
_cell_angle_gamma   120.49844692
_symmetry_Int_Tables_number   1
_chemical_formula_structural   RbTiTc2Te3
_chemical_formula_sum   'Rb2 Ti2 Tc4 Te6'
_cell_volume   393.41771407
_cell_formula_units_Z   2
loop_
 _symmetry_equiv_pos_site_id
 _symmetry_equiv_pos_as_xyz
  1  'x, y, z'
loop_
 _atom_site_type_symbol
 _atom_site_label
 _atom_site_symmetry_multiplicity
 _atom_site_fract_x
 _atom_site_fract_y
 _atom_site_fract_z
 _atom_site_occupancy
  Rb  Rb0  1  0.34240697  0.67123464  0.25000000  1
  Rb  Rb1  1  0.66870884  0.32936392  0.75000000  1
  Ti  Ti0  1  0.97226246  0.14214607  0.75000000  1
  Ti  Ti1  1  0.85456722  0.83102657  0.75000000  1
  Tc  Tc0  1  0.83183119  0.97334209  0.25000000  1
  Tc  Tc1  1  0.13534113  0.16100015  0.25000000  1
  Tc  Tc2  1  0.02398422  0.86427085  0.25000000  1
  Tc  Tc3  1  0.15469228  0.02417190  0.75000000  1
  Te  Te0  1  0.33704381  0.05350167  0.25000000  1
  Te  Te1  1  0.95281696  0.29342154  0.25000000  1
  Te  Te2  1  0.71338648  0.65414922  0.25000000  1
  Te  Te3  1  0.64678493  0.94614370  0.75000000  1
  Te  Te4  1  0.30331975  0.34356534  0.75000000  1
  Te  Te5  1  0.06285575  0.71266033  0.75000000  1
loop_
_geom_bond_atom_site_label_1
_geom_bond_atom_site_label_2
_geom_bond_distance
_geom_bond_site_symmetry_2
Rb0 Te3 3.682140 1_555
Rb0 Te3 3.682140 1_554
Rb0 Te5 3.809830 1_554
Rb0 Te5 3.809830 1_555
Rb0 Te4 3.819475 1_554
Rb0 Te4 3.819475 1_555
Rb0 Te1 3.831319 1_455
Rb0 Te0 3.832213 1_565
Rb0 Te2 3.853701 1_555
Rb1 Te3 3.705841 1_545
Rb1 Te2 3.778317 1_555
Rb1 Te2 3.778317 1_556
Rb1 Te4 3.781579 1_555
Rb1 Te0 3.820476 1_556
Rb1 Te0 3.820476 1_555
Rb1 Te1 3.820595 1_556
Rb1 Te1 3.820595 1_555
Rb1 Te5 3.880992 1_655
Ti0 Ti1 2.694372 1_545
Tc0 Tc2 2.669995 1_655
Tc0 Tc1 2.671226 1_665
Tc0 Ti1 2.738800 1_555
Tc0 Ti1 2.738800 1_554
Tc0 Ti0 2.744656 1_565
Tc0 Ti0 2.744656 1_564
Tc0 Te2 2.767659 1_555
Tc0 Te1 2.772108 1_565
Tc0 Te3 2.862458 1_554
Tc0 Te3 2.862458 1_555
Tc1 Tc2 2.571035 1_545
Tc1 Tc3 2.697106 1_555
Tc1 Tc3 2.697106 1_554
Tc1 Te0 2.748947 1_555
Tc1 Ti0 2.751150 1_454
Tc1 Ti0 2.751150 1_455
Tc1 Te1 2.764972 1_455
Tc1 Te4 2.858895 1_554
Tc1 Te4 2.858895 1_555
Tc2 Tc3 2.694318 1_564
Tc2 Tc3 2.694318 1_565
Tc2 Te0 2.750694 1_565
Tc2 Ti1 2.756436 1_455
Tc2 Ti1 2.756436 1_454
Tc2 Te2 2.759911 1_455
Tc2 Te5 2.854191 1_555
Tc2 Te5 2.854191 1_554
Tc3 Ti0 2.647978 1_455
Tc3 Ti1 2.651092 1_445
Tc3 Te4 2.740819 1_555
Tc3 Te5 2.747156 1_545
Tc3 Te0 2.841007 1_555
Tc3 Te0 2.841007 1_556
Te1 Ti0 2.777971 1_554
Te1 Ti0 2.777971 1_555
Te2 Ti1 2.775152 1_555
Te2 Ti1 2.775152 1_554
Te3 Ti0 2.859093 1_565
Te3 Ti1 2.865365 1_555
Te4 Ti0 2.910143 1_455
Te5 Ti1 2.895252 1_455
