# generated using pymatgen
data_RbGa9Ir2
_symmetry_space_group_name_H-M   'P 1'
_cell_length_a   16.41124455
_cell_length_b   16.41124549
_cell_length_c   7.88144399
_cell_angle_alpha   90.00000000
_cell_angle_beta   90.00000000
_cell_angle_gamma   120.00000202
_symmetry_Int_Tables_number   1
_chemical_formula_structural   RbGa9Ir2
_chemical_formula_sum   'Rb8 Ga72 Ir16'
_cell_volume   1838.31307152
_cell_formula_units_Z   8
loop_
 _symmetry_equiv_pos_site_id
 _symmetry_equiv_pos_as_xyz
  1  'x, y, z'
loop_
 _atom_site_type_symbol
 _atom_site_label
 _atom_site_symmetry_multiplicity
 _atom_site_fract_x
 _atom_site_fract_y
 _atom_site_fract_z
 _atom_site_occupancy
  Rb  Rb0_0  1  0.00000000  0.00000000  0.00000000  1
  Rb  Rb0_1  1  0.00000000  0.00000000  0.50000000  1
  Rb  Rb0_2  1  0.00000000  0.50000000  0.00000000  1
  Rb  Rb0_3  1  0.00000000  0.50000000  0.50000000  1
  Rb  Rb0_4  1  0.50000000  0.00000000  0.00000000  1
  Rb  Rb0_5  1  0.50000000  0.00000000  0.50000000  1
  Rb  Rb0_6  1  0.50000000  0.50000000  0.00000000  1
  Rb  Rb0_7  1  0.50000000  0.50000000  0.50000000  1
  Ga  Ga0_0  1  0.25000000  0.00000000  0.00000000  1
  Ga  Ga0_1  1  0.25000000  0.00000000  0.50000000  1
  Ga  Ga0_2  1  0.25000000  0.50000000  0.00000000  1
  Ga  Ga0_3  1  0.25000000  0.50000000  0.50000000  1
  Ga  Ga0_4  1  0.75000000  0.00000000  0.00000000  1
  Ga  Ga0_5  1  0.75000000  0.00000000  0.50000000  1
  Ga  Ga0_6  1  0.75000000  0.50000000  0.00000000  1
  Ga  Ga0_7  1  0.75000000  0.50000000  0.50000000  1
  Ga  Ga1_0  1  0.00000000  0.25000000  0.00000000  1
  Ga  Ga1_1  1  0.00000000  0.25000000  0.50000000  1
  Ga  Ga1_2  1  0.00000000  0.75000000  0.00000000  1
  Ga  Ga1_3  1  0.00000000  0.75000000  0.50000000  1
  Ga  Ga1_4  1  0.50000000  0.25000000  0.00000000  1
  Ga  Ga1_5  1  0.50000000  0.25000000  0.50000000  1
  Ga  Ga1_6  1  0.50000000  0.75000000  0.00000000  1
  Ga  Ga1_7  1  0.50000000  0.75000000  0.50000000  1
  Ga  Ga2_0  1  0.25000000  0.25000000  0.00000000  1
  Ga  Ga2_1  1  0.25000000  0.25000000  0.50000000  1
  Ga  Ga2_2  1  0.25000000  0.75000000  0.00000000  1
  Ga  Ga2_3  1  0.25000000  0.75000000  0.50000000  1
  Ga  Ga2_4  1  0.75000000  0.25000000  0.00000000  1
  Ga  Ga2_5  1  0.75000000  0.25000000  0.50000000  1
  Ga  Ga2_6  1  0.75000000  0.75000000  0.00000000  1
  Ga  Ga2_7  1  0.75000000  0.75000000  0.50000000  1
  Ga  Ga3_0  1  0.20529844  0.10264897  0.24999950  1
  Ga  Ga3_1  1  0.20529844  0.10264897  0.74999950  1
  Ga  Ga3_2  1  0.20529844  0.60264897  0.24999950  1
  Ga  Ga3_3  1  0.20529844  0.60264897  0.74999950  1
  Ga  Ga3_4  1  0.70529844  0.10264897  0.24999950  1
  Ga  Ga3_5  1  0.70529844  0.10264897  0.74999950  1
  Ga  Ga3_6  1  0.70529844  0.60264897  0.24999950  1
  Ga  Ga3_7  1  0.70529844  0.60264897  0.74999950  1
  Ga  Ga4_0  1  0.39735103  0.10264897  0.24999950  1
  Ga  Ga4_1  1  0.39735103  0.10264897  0.74999950  1
  Ga  Ga4_2  1  0.39735103  0.60264897  0.24999950  1
  Ga  Ga4_3  1  0.39735103  0.60264897  0.74999950  1
  Ga  Ga4_4  1  0.89735103  0.10264897  0.24999950  1
  Ga  Ga4_5  1  0.89735103  0.10264897  0.74999950  1
  Ga  Ga4_6  1  0.89735103  0.60264897  0.24999950  1
  Ga  Ga4_7  1  0.89735103  0.60264897  0.74999950  1
  Ga  Ga5_0  1  0.10264897  0.20529794  0.24999950  1
  Ga  Ga5_1  1  0.10264897  0.20529794  0.74999950  1
  Ga  Ga5_2  1  0.10264897  0.70529794  0.24999950  1
  Ga  Ga5_3  1  0.10264897  0.70529794  0.74999950  1
  Ga  Ga5_4  1  0.60264897  0.20529794  0.24999950  1
  Ga  Ga5_5  1  0.60264897  0.20529794  0.74999950  1
  Ga  Ga5_6  1  0.60264897  0.70529794  0.24999950  1
  Ga  Ga5_7  1  0.60264897  0.70529794  0.74999950  1
  Ga  Ga6_0  1  0.39735103  0.29470156  0.24999950  1
  Ga  Ga6_1  1  0.39735103  0.29470156  0.74999950  1
  Ga  Ga6_2  1  0.39735103  0.79470156  0.24999950  1
  Ga  Ga6_3  1  0.39735103  0.79470156  0.74999950  1
  Ga  Ga6_4  1  0.89735103  0.29470156  0.24999950  1
  Ga  Ga6_5  1  0.89735103  0.29470156  0.74999950  1
  Ga  Ga6_6  1  0.89735103  0.79470156  0.24999950  1
  Ga  Ga6_7  1  0.89735103  0.79470156  0.74999950  1
  Ga  Ga7_0  1  0.10264897  0.39735153  0.24999950  1
  Ga  Ga7_1  1  0.10264897  0.39735153  0.74999950  1
  Ga  Ga7_2  1  0.10264897  0.89735153  0.24999950  1
  Ga  Ga7_3  1  0.10264897  0.89735153  0.74999950  1
  Ga  Ga7_4  1  0.60264897  0.39735153  0.24999950  1
  Ga  Ga7_5  1  0.60264897  0.39735153  0.74999950  1
  Ga  Ga7_6  1  0.60264897  0.89735153  0.24999950  1
  Ga  Ga7_7  1  0.60264897  0.89735153  0.74999950  1
  Ga  Ga8_0  1  0.29470156  0.39735153  0.24999950  1
  Ga  Ga8_1  1  0.29470156  0.39735153  0.74999950  1
  Ga  Ga8_2  1  0.29470156  0.89735153  0.24999950  1
  Ga  Ga8_3  1  0.29470156  0.89735153  0.74999950  1
  Ga  Ga8_4  1  0.79470156  0.39735153  0.24999950  1
  Ga  Ga8_5  1  0.79470156  0.39735153  0.74999950  1
  Ga  Ga8_6  1  0.79470156  0.89735153  0.24999950  1
  Ga  Ga8_7  1  0.79470156  0.89735153  0.74999950  1
  Ir  Ir0_0  1  0.33333350  0.16666700  0.00000000  1
  Ir  Ir0_1  1  0.33333350  0.16666700  0.50000000  1
  Ir  Ir0_2  1  0.33333350  0.66666700  0.00000000  1
  Ir  Ir0_3  1  0.33333350  0.66666700  0.50000000  1
  Ir  Ir0_4  1  0.83333350  0.16666700  0.00000000  1
  Ir  Ir0_5  1  0.83333350  0.16666700  0.50000000  1
  Ir  Ir0_6  1  0.83333350  0.66666700  0.00000000  1
  Ir  Ir0_7  1  0.83333350  0.66666700  0.50000000  1
  Ir  Ir1_0  1  0.16666650  0.33333350  0.00000000  1
  Ir  Ir1_1  1  0.16666650  0.33333350  0.50000000  1
  Ir  Ir1_2  1  0.16666650  0.83333350  0.00000000  1
  Ir  Ir1_3  1  0.16666650  0.83333350  0.50000000  1
  Ir  Ir1_4  1  0.66666650  0.33333350  0.00000000  1
  Ir  Ir1_5  1  0.66666650  0.33333350  0.50000000  1
  Ir  Ir1_6  1  0.66666650  0.83333350  0.00000000  1
  Ir  Ir1_7  1  0.66666650  0.83333350  0.50000000  1
loop_
_geom_bond_atom_site_label_1
_geom_bond_atom_site_label_2
_geom_bond_distance
_geom_bond_site_symmetry_2
Rb0_0 Rb0_1 3.940722 1_555
Rb0_0 Rb0_1 3.940722 1_554
Rb0_2 Rb0_3 3.940722 1_554
Rb0_2 Rb0_3 3.940722 1_555
Rb0_4 Rb0_5 3.940722 1_555
Rb0_4 Rb0_5 3.940722 1_554
Rb0_6 Rb0_7 3.940722 1_554
Rb0_6 Rb0_7 3.940722 1_555
Ga0_0 Ir1_2 2.368757 1_545
Ga0_0 Ir0_0 2.368764 1_555
Ga0_0 Ga8_2 2.914474 1_545
Ga0_0 Ga8_3 2.914479 1_544
Ga0_0 Ga3_0 2.914480 1_555
Ga0_0 Ga7_2 2.914483 1_545
Ga0_0 Ga4_0 2.914484 1_555
Ga0_0 Ga3_1 2.914485 1_554
Ga0_0 Ga7_3 2.914488 1_544
Ga0_0 Ga4_1 2.914489 1_554
Ga0_1 Ir1_3 2.368757 1_545
Ga0_1 Ir0_1 2.368764 1_555
Ga0_1 Ga8_3 2.914474 1_545
Ga0_1 Ga8_2 2.914479 1_545
Ga0_1 Ga3_1 2.914480 1_555
Ga0_1 Ga7_3 2.914483 1_545
Ga0_1 Ga4_1 2.914484 1_555
Ga0_1 Ga3_0 2.914485 1_555
Ga0_1 Ga7_2 2.914488 1_545
Ga0_1 Ga4_0 2.914489 1_555
Ga0_2 Ir1_0 2.368757 1_555
Ga0_2 Ir0_2 2.368764 1_555
Ga0_2 Ga8_0 2.914474 1_555
Ga0_2 Ga8_1 2.914479 1_554
Ga0_2 Ga3_2 2.914480 1_555
Ga0_2 Ga7_0 2.914483 1_555
Ga0_2 Ga4_2 2.914484 1_555
Ga0_2 Ga3_3 2.914485 1_554
Ga0_2 Ga7_1 2.914488 1_554
Ga0_2 Ga4_3 2.914489 1_554
Ga0_3 Ir1_1 2.368757 1_555
Ga0_3 Ir0_3 2.368764 1_555
Ga0_3 Ga8_1 2.914474 1_555
Ga0_3 Ga8_0 2.914479 1_555
Ga0_3 Ga3_3 2.914480 1_555
Ga0_3 Ga7_1 2.914483 1_555
Ga0_3 Ga4_3 2.914484 1_555
Ga0_3 Ga3_2 2.914485 1_555
Ga0_3 Ga7_0 2.914488 1_555
Ga0_3 Ga4_2 2.914489 1_555
Ga0_4 Ir1_6 2.368757 1_545
Ga0_4 Ir0_4 2.368764 1_555
Ga0_4 Ga8_6 2.914474 1_545
Ga0_4 Ga8_7 2.914479 1_544
Ga0_4 Ga3_4 2.914480 1_555
Ga0_4 Ga7_6 2.914483 1_545
Ga0_4 Ga4_4 2.914484 1_555
Ga0_4 Ga3_5 2.914485 1_554
Ga0_4 Ga7_7 2.914488 1_544
Ga0_4 Ga4_5 2.914489 1_554
Ga0_5 Ir1_7 2.368757 1_545
Ga0_5 Ir0_5 2.368764 1_555
Ga0_5 Ga8_7 2.914474 1_545
Ga0_5 Ga8_6 2.914479 1_545
Ga0_5 Ga3_5 2.914480 1_555
Ga0_5 Ga7_7 2.914483 1_545
Ga0_5 Ga4_5 2.914484 1_555
Ga0_5 Ga3_4 2.914485 1_555
Ga0_5 Ga7_6 2.914488 1_545
Ga0_5 Ga4_4 2.914489 1_555
Ga0_6 Ir1_4 2.368757 1_555
Ga0_6 Ir0_6 2.368764 1_555
Ga0_6 Ga8_4 2.914474 1_555
Ga0_6 Ga8_5 2.914479 1_554
Ga0_6 Ga3_6 2.914480 1_555
Ga0_6 Ga7_4 2.914483 1_555
Ga0_6 Ga4_6 2.914484 1_555
Ga0_6 Ga3_7 2.914485 1_554
Ga0_6 Ga7_5 2.914488 1_554
Ga0_6 Ga4_7 2.914489 1_554
Ga0_7 Ir1_5 2.368757 1_555
Ga0_7 Ir0_7 2.368764 1_555
Ga0_7 Ga8_5 2.914474 1_555
Ga0_7 Ga8_4 2.914479 1_555
Ga0_7 Ga3_7 2.914480 1_555
Ga0_7 Ga7_5 2.914483 1_555
Ga0_7 Ga4_7 2.914484 1_555
Ga0_7 Ga3_6 2.914485 1_555
Ga0_7 Ga7_4 2.914488 1_555
Ga0_7 Ga4_6 2.914489 1_555
Ga1_0 Ir1_0 2.368757 1_555
Ga1_0 Ir0_4 2.368757 1_455
Ga1_0 Ga6_4 2.914480 1_455
Ga1_0 Ga4_4 2.914484 1_455
Ga1_0 Ga5_0 2.914484 1_555
Ga1_0 Ga6_5 2.914485 1_454
Ga1_0 Ga7_0 2.914488 1_555
Ga1_0 Ga4_5 2.914489 1_454
Ga1_0 Ga5_1 2.914489 1_554
Ga1_0 Ga7_1 2.914494 1_554
Ga1_1 Ir1_1 2.368757 1_555
Ga1_1 Ir0_5 2.368757 1_455
Ga1_1 Ga6_5 2.914480 1_455
Ga1_1 Ga4_5 2.914484 1_455
Ga1_1 Ga5_1 2.914484 1_555
Ga1_1 Ga6_4 2.914485 1_455
Ga1_1 Ga7_1 2.914488 1_555
Ga1_1 Ga4_4 2.914489 1_455
Ga1_1 Ga5_0 2.914489 1_555
Ga1_1 Ga7_0 2.914494 1_555
Ga1_2 Ir1_2 2.368757 1_555
Ga1_2 Ir0_6 2.368757 1_455
Ga1_2 Ga6_6 2.914480 1_455
Ga1_2 Ga4_6 2.914484 1_455
Ga1_2 Ga5_2 2.914484 1_555
Ga1_2 Ga6_7 2.914485 1_454
Ga1_2 Ga7_2 2.914488 1_555
Ga1_2 Ga4_7 2.914489 1_454
Ga1_2 Ga5_3 2.914489 1_554
Ga1_2 Ga7_3 2.914494 1_554
Ga1_3 Ir1_3 2.368757 1_555
Ga1_3 Ir0_7 2.368757 1_455
Ga1_3 Ga6_7 2.914480 1_455
Ga1_3 Ga4_7 2.914484 1_455
Ga1_3 Ga5_3 2.914484 1_555
Ga1_3 Ga6_6 2.914485 1_455
Ga1_3 Ga7_3 2.914488 1_555
Ga1_3 Ga4_6 2.914489 1_455
Ga1_3 Ga5_2 2.914489 1_555
Ga1_3 Ga7_2 2.914494 1_555
Ga1_4 Ir1_4 2.368757 1_555
Ga1_4 Ir0_0 2.368757 1_555
Ga1_4 Ga6_0 2.914480 1_555
Ga1_4 Ga4_0 2.914484 1_555
Ga1_4 Ga5_4 2.914484 1_555
Ga1_4 Ga6_1 2.914485 1_554
Ga1_4 Ga7_4 2.914488 1_555
Ga1_4 Ga4_1 2.914489 1_554
Ga1_4 Ga5_5 2.914489 1_554
Ga1_4 Ga7_5 2.914494 1_554
Ga1_5 Ir1_5 2.368757 1_555
Ga1_5 Ir0_1 2.368757 1_555
Ga1_5 Ga6_1 2.914480 1_555
Ga1_5 Ga4_1 2.914484 1_555
Ga1_5 Ga5_5 2.914484 1_555
Ga1_5 Ga6_0 2.914485 1_555
Ga1_5 Ga7_5 2.914488 1_555
Ga1_5 Ga4_0 2.914489 1_555
Ga1_5 Ga5_4 2.914489 1_555
Ga1_5 Ga7_4 2.914494 1_555
Ga1_6 Ir1_6 2.368757 1_555
Ga1_6 Ir0_2 2.368757 1_555
Ga1_6 Ga6_2 2.914480 1_555
Ga1_6 Ga4_2 2.914484 1_555
Ga1_6 Ga5_6 2.914484 1_555
Ga1_6 Ga6_3 2.914485 1_554
Ga1_6 Ga7_6 2.914488 1_555
Ga1_6 Ga4_3 2.914489 1_554
Ga1_6 Ga5_7 2.914489 1_554
Ga1_6 Ga7_7 2.914494 1_554
Ga1_7 Ir1_7 2.368757 1_555
Ga1_7 Ir0_3 2.368757 1_555
Ga1_7 Ga6_3 2.914480 1_555
Ga1_7 Ga4_3 2.914484 1_555
Ga1_7 Ga5_7 2.914484 1_555
Ga1_7 Ga6_2 2.914485 1_555
Ga1_7 Ga7_7 2.914488 1_555
Ga1_7 Ga4_2 2.914489 1_555
Ga1_7 Ga5_6 2.914489 1_555
Ga1_7 Ga7_6 2.914494 1_555
Ga2_0 Ir0_0 2.368757 1_555
Ga2_0 Ir1_0 2.368764 1_555
Ga2_0 Ga5_0 2.914484 1_555
Ga2_0 Ga6_0 2.914485 1_555
Ga2_0 Ga3_0 2.914485 1_555
Ga2_0 Ga5_1 2.914489 1_554
Ga2_0 Ga6_1 2.914491 1_554
Ga2_0 Ga3_1 2.914491 1_554
Ga2_0 Ga8_0 2.914491 1_555
Ga2_0 Ga8_1 2.914496 1_554
Ga2_1 Ir0_1 2.368757 1_555
Ga2_1 Ir1_1 2.368764 1_555
Ga2_1 Ga5_1 2.914484 1_555
Ga2_1 Ga6_1 2.914485 1_555
Ga2_1 Ga3_1 2.914485 1_555
Ga2_1 Ga5_0 2.914489 1_555
Ga2_1 Ga6_0 2.914491 1_555
Ga2_1 Ga3_0 2.914491 1_555
Ga2_1 Ga8_1 2.914491 1_555
Ga2_1 Ga8_0 2.914496 1_555
Ga2_2 Ir0_2 2.368757 1_555
Ga2_2 Ir1_2 2.368764 1_555
Ga2_2 Ga5_2 2.914484 1_555
Ga2_2 Ga6_2 2.914485 1_555
Ga2_2 Ga3_2 2.914485 1_555
Ga2_2 Ga5_3 2.914489 1_554
Ga2_2 Ga6_3 2.914491 1_554
Ga2_2 Ga3_3 2.914491 1_554
Ga2_2 Ga8_2 2.914491 1_555
Ga2_2 Ga8_3 2.914496 1_554
Ga2_3 Ir0_3 2.368757 1_555
Ga2_3 Ir1_3 2.368764 1_555
Ga2_3 Ga5_3 2.914484 1_555
Ga2_3 Ga6_3 2.914485 1_555
Ga2_3 Ga3_3 2.914485 1_555
Ga2_3 Ga5_2 2.914489 1_555
Ga2_3 Ga6_2 2.914491 1_555
Ga2_3 Ga3_2 2.914491 1_555
Ga2_3 Ga8_3 2.914491 1_555
Ga2_3 Ga8_2 2.914496 1_555
Ga2_4 Ir0_4 2.368757 1_555
Ga2_4 Ir1_4 2.368764 1_555
Ga2_4 Ga5_4 2.914484 1_555
Ga2_4 Ga6_4 2.914485 1_555
Ga2_4 Ga3_4 2.914485 1_555
Ga2_4 Ga5_5 2.914489 1_554
Ga2_4 Ga6_5 2.914491 1_554
Ga2_4 Ga3_5 2.914491 1_554
Ga2_4 Ga8_4 2.914491 1_555
Ga2_4 Ga8_5 2.914496 1_554
Ga2_5 Ir0_5 2.368757 1_555
Ga2_5 Ir1_5 2.368764 1_555
Ga2_5 Ga5_5 2.914484 1_555
Ga2_5 Ga6_5 2.914485 1_555
Ga2_5 Ga3_5 2.914485 1_555
Ga2_5 Ga5_4 2.914489 1_555
Ga2_5 Ga6_4 2.914491 1_555
Ga2_5 Ga3_4 2.914491 1_555
Ga2_5 Ga8_5 2.914491 1_555
Ga2_5 Ga8_4 2.914496 1_555
Ga2_6 Ir0_6 2.368757 1_555
Ga2_6 Ir1_6 2.368764 1_555
Ga2_6 Ga5_6 2.914484 1_555
Ga2_6 Ga6_6 2.914485 1_555
Ga2_6 Ga3_6 2.914485 1_555
Ga2_6 Ga5_7 2.914489 1_554
Ga2_6 Ga6_7 2.914491 1_554
Ga2_6 Ga3_7 2.914491 1_554
Ga2_6 Ga8_6 2.914491 1_555
Ga2_6 Ga8_7 2.914496 1_554
Ga2_7 Ir0_7 2.368757 1_555
Ga2_7 Ir1_7 2.368764 1_555
Ga2_7 Ga5_7 2.914484 1_555
Ga2_7 Ga6_7 2.914485 1_555
Ga2_7 Ga3_7 2.914485 1_555
Ga2_7 Ga5_6 2.914489 1_555
Ga2_7 Ga6_6 2.914491 1_555
Ga2_7 Ga3_6 2.914491 1_555
Ga2_7 Ga8_7 2.914491 1_555
Ga2_7 Ga8_6 2.914496 1_555
Ga3_0 Ir0_0 2.682095 1_555
Ga3_0 Ir0_1 2.682101 1_555
Ga3_0 Ga7_2 2.917801 1_545
Ga3_0 Ga5_0 2.917815 1_555
Ga3_0 Ga6_0 3.151822 1_555
Ga3_0 Ga4_0 3.151822 1_555
Ga3_0 Rb0_0 3.520789 1_555
Ga3_0 Rb0_1 3.520793 1_555
Ga3_1 Ir0_1 2.682095 1_555
Ga3_1 Ir0_0 2.682101 1_556
Ga3_1 Ga7_3 2.917801 1_545
Ga3_1 Ga5_1 2.917815 1_555
Ga3_1 Ga6_1 3.151822 1_555
Ga3_1 Ga4_1 3.151822 1_555
Ga3_1 Rb0_1 3.520789 1_555
Ga3_1 Rb0_0 3.520793 1_556
Ga3_2 Ir0_2 2.682095 1_555
Ga3_2 Ir0_3 2.682101 1_555
Ga3_2 Ga7_0 2.917801 1_555
Ga3_2 Ga5_2 2.917815 1_555
Ga3_2 Ga6_2 3.151822 1_555
Ga3_2 Ga4_2 3.151822 1_555
Ga3_2 Rb0_2 3.520789 1_555
Ga3_2 Rb0_3 3.520793 1_555
Ga3_3 Ir0_3 2.682095 1_555
Ga3_3 Ir0_2 2.682101 1_556
Ga3_3 Ga7_1 2.917801 1_555
Ga3_3 Ga5_3 2.917815 1_555
Ga3_3 Ga6_3 3.151822 1_555
Ga3_3 Ga4_3 3.151822 1_555
Ga3_3 Rb0_3 3.520789 1_555
Ga3_3 Rb0_2 3.520793 1_556
Ga3_4 Ir0_4 2.682095 1_555
Ga3_4 Ir0_5 2.682101 1_555
Ga3_4 Ga7_6 2.917801 1_545
Ga3_4 Ga5_4 2.917815 1_555
Ga3_4 Ga6_4 3.151822 1_555
Ga3_4 Ga4_4 3.151822 1_555
Ga3_4 Rb0_4 3.520789 1_555
Ga3_4 Rb0_5 3.520793 1_555
Ga3_5 Ir0_5 2.682095 1_555
Ga3_5 Ir0_4 2.682101 1_556
Ga3_5 Ga7_7 2.917801 1_545
Ga3_5 Ga5_5 2.917815 1_555
Ga3_5 Ga6_5 3.151822 1_555
Ga3_5 Ga4_5 3.151822 1_555
Ga3_5 Rb0_5 3.520789 1_555
Ga3_5 Rb0_4 3.520793 1_556
Ga3_6 Ir0_6 2.682095 1_555
Ga3_6 Ir0_7 2.682101 1_555
Ga3_6 Ga7_4 2.917801 1_555
Ga3_6 Ga5_6 2.917815 1_555
Ga3_6 Ga6_6 3.151822 1_555
Ga3_6 Ga4_6 3.151822 1_555
Ga3_6 Rb0_6 3.520789 1_555
Ga3_6 Rb0_7 3.520793 1_555
Ga3_7 Ir0_7 2.682095 1_555
Ga3_7 Ir0_6 2.682101 1_556
Ga3_7 Ga7_5 2.917801 1_555
Ga3_7 Ga5_7 2.917815 1_555
Ga3_7 Ga6_7 3.151822 1_555
Ga3_7 Ga4_7 3.151822 1_555
Ga3_7 Rb0_7 3.520789 1_555
Ga3_7 Rb0_6 3.520793 1_556
Ga4_0 Ir0_0 2.682100 1_555
Ga4_0 Ir0_1 2.682106 1_555
Ga4_0 Ga8_2 2.917801 1_545
Ga4_0 Ga5_4 2.917808 1_555
Ga4_0 Ga6_0 3.151822 1_555
Ga4_0 Rb0_4 3.520783 1_555
Ga4_0 Rb0_5 3.520787 1_555
Ga4_1 Ir0_1 2.682100 1_555
Ga4_1 Ir0_0 2.682106 1_556
Ga4_1 Ga8_3 2.917801 1_545
Ga4_1 Ga5_5 2.917808 1_555
Ga4_1 Ga6_1 3.151822 1_555
Ga4_1 Rb0_5 3.520783 1_555
Ga4_1 Rb0_4 3.520787 1_556
Ga4_2 Ir0_2 2.682100 1_555
Ga4_2 Ir0_3 2.682106 1_555
Ga4_2 Ga8_0 2.917801 1_555
Ga4_2 Ga5_6 2.917808 1_555
Ga4_2 Ga6_2 3.151822 1_555
Ga4_2 Rb0_6 3.520783 1_555
Ga4_2 Rb0_7 3.520787 1_555
Ga4_3 Ir0_3 2.682100 1_555
Ga4_3 Ir0_2 2.682106 1_556
Ga4_3 Ga8_1 2.917801 1_555
Ga4_3 Ga5_7 2.917808 1_555
Ga4_3 Ga6_3 3.151822 1_555
Ga4_3 Rb0_7 3.520783 1_555
Ga4_3 Rb0_6 3.520787 1_556
Ga4_4 Ir0_4 2.682100 1_555
Ga4_4 Ir0_5 2.682106 1_555
Ga4_4 Ga8_6 2.917801 1_545
Ga4_4 Ga5_0 2.917808 1_655
Ga4_4 Ga6_4 3.151822 1_555
Ga4_4 Rb0_0 3.520783 1_655
Ga4_4 Rb0_1 3.520787 1_655
Ga4_5 Ir0_5 2.682100 1_555
Ga4_5 Ir0_4 2.682106 1_556
Ga4_5 Ga8_7 2.917801 1_545
Ga4_5 Ga5_1 2.917808 1_655
Ga4_5 Ga6_5 3.151822 1_555
Ga4_5 Rb0_1 3.520783 1_655
Ga4_5 Rb0_0 3.520787 1_656
Ga4_6 Ir0_6 2.682100 1_555
Ga4_6 Ir0_7 2.682106 1_555
Ga4_6 Ga8_4 2.917801 1_555
Ga4_6 Ga5_2 2.917808 1_655
Ga4_6 Ga6_6 3.151822 1_555
Ga4_6 Rb0_2 3.520783 1_655
Ga4_6 Rb0_3 3.520787 1_655
Ga4_7 Ir0_7 2.682100 1_555
Ga4_7 Ir0_6 2.682106 1_556
Ga4_7 Ga8_5 2.917801 1_555
Ga4_7 Ga5_3 2.917808 1_655
Ga4_7 Ga6_7 3.151822 1_555
Ga4_7 Rb0_3 3.520783 1_655
Ga4_7 Rb0_2 3.520787 1_656
Ga5_0 Ir1_0 2.682100 1_555
Ga5_0 Ir1_1 2.682106 1_555
Ga5_0 Ga8_0 3.151830 1_555
Ga5_0 Ga7_0 3.151839 1_555
Ga5_0 Rb0_0 3.520783 1_555
Ga5_0 Rb0_1 3.520787 1_555
Ga5_1 Ir1_1 2.682100 1_555
Ga5_1 Ir1_0 2.682106 1_556
Ga5_1 Ga8_1 3.151830 1_555
Ga5_1 Ga7_1 3.151839 1_555
Ga5_1 Rb0_1 3.520783 1_555
Ga5_1 Rb0_0 3.520787 1_556
Ga5_2 Ir1_2 2.682100 1_555
Ga5_2 Ir1_3 2.682106 1_555
Ga5_2 Ga8_2 3.151830 1_555
Ga5_2 Ga7_2 3.151839 1_555
Ga5_2 Rb0_2 3.520783 1_555
Ga5_2 Rb0_3 3.520787 1_555
Ga5_3 Ir1_3 2.682100 1_555
Ga5_3 Ir1_2 2.682106 1_556
Ga5_3 Ga8_3 3.151830 1_555
Ga5_3 Ga7_3 3.151839 1_555
Ga5_3 Rb0_3 3.520783 1_555
Ga5_3 Rb0_2 3.520787 1_556
Ga5_4 Ir1_4 2.682100 1_555
Ga5_4 Ir1_5 2.682106 1_555
Ga5_4 Ga8_4 3.151830 1_555
Ga5_4 Ga7_4 3.151839 1_555
Ga5_4 Rb0_4 3.520783 1_555
Ga5_4 Rb0_5 3.520787 1_555
Ga5_5 Ir1_5 2.682100 1_555
Ga5_5 Ir1_4 2.682106 1_556
Ga5_5 Ga8_5 3.151830 1_555
Ga5_5 Ga7_5 3.151839 1_555
Ga5_5 Rb0_5 3.520783 1_555
Ga5_5 Rb0_4 3.520787 1_556
Ga5_6 Ir1_6 2.682100 1_555
Ga5_6 Ir1_7 2.682106 1_555
Ga5_6 Ga8_6 3.151830 1_555
Ga5_6 Ga7_6 3.151839 1_555
Ga5_6 Rb0_6 3.520783 1_555
Ga5_6 Rb0_7 3.520787 1_555
Ga5_7 Ir1_7 2.682100 1_555
Ga5_7 Ir1_6 2.682106 1_556
Ga5_7 Ga8_7 3.151830 1_555
Ga5_7 Ga7_7 3.151839 1_555
Ga5_7 Rb0_7 3.520783 1_555
Ga5_7 Rb0_6 3.520787 1_556
Ga6_0 Ir0_0 2.682090 1_555
Ga6_0 Ir0_1 2.682096 1_555
Ga6_0 Ga7_4 2.917808 1_555
Ga6_0 Ga8_0 2.917830 1_555
Ga6_0 Rb0_6 3.520789 1_555
Ga6_0 Rb0_7 3.520793 1_555
Ga6_1 Ir0_1 2.682090 1_555
Ga6_1 Ir0_0 2.682096 1_556
Ga6_1 Ga7_5 2.917808 1_555
Ga6_1 Ga8_1 2.917830 1_555
Ga6_1 Rb0_7 3.520789 1_555
Ga6_1 Rb0_6 3.520793 1_556
Ga6_2 Ir0_2 2.682090 1_555
Ga6_2 Ir0_3 2.682096 1_555
Ga6_2 Ga7_6 2.917808 1_555
Ga6_2 Ga8_2 2.917830 1_555
Ga6_2 Rb0_4 3.520789 1_565
Ga6_2 Rb0_5 3.520793 1_565
Ga6_3 Ir0_3 2.682090 1_555
Ga6_3 Ir0_2 2.682096 1_556
Ga6_3 Ga7_7 2.917808 1_555
Ga6_3 Ga8_3 2.917830 1_555
Ga6_3 Rb0_5 3.520789 1_565
Ga6_3 Rb0_4 3.520793 1_566
Ga6_4 Ir0_4 2.682090 1_555
Ga6_4 Ir0_5 2.682096 1_555
Ga6_4 Ga7_0 2.917808 1_655
Ga6_4 Ga8_4 2.917830 1_555
Ga6_4 Rb0_2 3.520789 1_655
Ga6_4 Rb0_3 3.520793 1_655
Ga6_5 Ir0_5 2.682090 1_555
Ga6_5 Ir0_4 2.682096 1_556
Ga6_5 Ga7_1 2.917808 1_655
Ga6_5 Ga8_5 2.917830 1_555
Ga6_5 Rb0_3 3.520789 1_655
Ga6_5 Rb0_2 3.520793 1_656
Ga6_6 Ir0_6 2.682090 1_555
Ga6_6 Ir0_7 2.682096 1_555
Ga6_6 Ga7_2 2.917808 1_655
Ga6_6 Ga8_6 2.917830 1_555
Ga6_6 Rb0_0 3.520789 1_665
Ga6_6 Rb0_1 3.520793 1_665
Ga6_7 Ir0_7 2.682090 1_555
Ga6_7 Ir0_6 2.682096 1_556
Ga6_7 Ga7_3 2.917808 1_655
Ga6_7 Ga8_7 2.917830 1_555
Ga6_7 Rb0_1 3.520789 1_665
Ga6_7 Rb0_0 3.520793 1_666
Ga7_0 Ir1_0 2.682100 1_555
Ga7_0 Ir1_1 2.682106 1_555
Ga7_0 Ga8_0 3.151822 1_555
Ga7_0 Rb0_2 3.520777 1_555
Ga7_0 Rb0_3 3.520781 1_555
Ga7_1 Ir1_1 2.682100 1_555
Ga7_1 Ir1_0 2.682106 1_556
Ga7_1 Ga8_1 3.151822 1_555
Ga7_1 Rb0_3 3.520777 1_555
Ga7_1 Rb0_2 3.520781 1_556
Ga7_2 Ir1_2 2.682100 1_555
Ga7_2 Ir1_3 2.682106 1_555
Ga7_2 Ga8_2 3.151822 1_555
Ga7_2 Rb0_0 3.520777 1_565
Ga7_2 Rb0_1 3.520781 1_565
Ga7_3 Ir1_3 2.682100 1_555
Ga7_3 Ir1_2 2.682106 1_556
Ga7_3 Ga8_3 3.151822 1_555
Ga7_3 Rb0_1 3.520777 1_565
Ga7_3 Rb0_0 3.520781 1_566
Ga7_4 Ir1_4 2.682100 1_555
Ga7_4 Ir1_5 2.682106 1_555
Ga7_4 Ga8_4 3.151822 1_555
Ga7_4 Rb0_6 3.520777 1_555
Ga7_4 Rb0_7 3.520781 1_555
Ga7_5 Ir1_5 2.682100 1_555
Ga7_5 Ir1_4 2.682106 1_556
Ga7_5 Ga8_5 3.151822 1_555
Ga7_5 Rb0_7 3.520777 1_555
Ga7_5 Rb0_6 3.520781 1_556
Ga7_6 Ir1_6 2.682100 1_555
Ga7_6 Ir1_7 2.682106 1_555
Ga7_6 Ga8_6 3.151822 1_555
Ga7_6 Rb0_4 3.520777 1_565
Ga7_6 Rb0_5 3.520781 1_565
Ga7_7 Ir1_7 2.682100 1_555
Ga7_7 Ir1_6 2.682106 1_556
Ga7_7 Ga8_7 3.151822 1_555
Ga7_7 Rb0_5 3.520777 1_565
Ga7_7 Rb0_4 3.520781 1_566
Ga8_0 Ir1_0 2.682095 1_555
Ga8_0 Ir1_1 2.682101 1_555
Ga8_0 Rb0_6 3.520789 1_555
Ga8_0 Rb0_7 3.520793 1_555
Ga8_1 Ir1_1 2.682095 1_555
Ga8_1 Ir1_0 2.682101 1_556
Ga8_1 Rb0_7 3.520789 1_555
Ga8_1 Rb0_6 3.520793 1_556
Ga8_2 Ir1_2 2.682095 1_555
Ga8_2 Ir1_3 2.682101 1_555
Ga8_2 Rb0_4 3.520789 1_565
Ga8_2 Rb0_5 3.520793 1_565
Ga8_3 Ir1_3 2.682095 1_555
Ga8_3 Ir1_2 2.682101 1_556
Ga8_3 Rb0_5 3.520789 1_565
Ga8_3 Rb0_4 3.520793 1_566
Ga8_4 Ir1_4 2.682095 1_555
Ga8_4 Ir1_5 2.682101 1_555
Ga8_4 Rb0_2 3.520789 1_655
Ga8_4 Rb0_3 3.520793 1_655
Ga8_5 Ir1_5 2.682095 1_555
Ga8_5 Ir1_4 2.682101 1_556
Ga8_5 Rb0_3 3.520789 1_655
Ga8_5 Rb0_2 3.520793 1_656
Ga8_6 Ir1_6 2.682095 1_555
Ga8_6 Ir1_7 2.682101 1_555
Ga8_6 Rb0_0 3.520789 1_665
Ga8_6 Rb0_1 3.520793 1_665
Ga8_7 Ir1_7 2.682095 1_555
Ga8_7 Ir1_6 2.682101 1_556
Ga8_7 Rb0_1 3.520789 1_665
Ga8_7 Rb0_0 3.520793 1_666
