# generated using pymatgen
data_Th5Sn3
_symmetry_space_group_name_H-M   'P 1'
_cell_length_a   9.45500252
_cell_length_b   9.45500166
_cell_length_c   6.48479883
_cell_angle_alpha   90.00000000
_cell_angle_beta   90.00000000
_cell_angle_gamma   119.99999314
_symmetry_Int_Tables_number   1
_chemical_formula_structural   Th5Sn3
_chemical_formula_sum   'Th10 Sn6'
_cell_volume   502.05399593
_cell_formula_units_Z   2
loop_
 _symmetry_equiv_pos_site_id
 _symmetry_equiv_pos_as_xyz
  1  'x, y, z'
loop_
 _atom_site_type_symbol
 _atom_site_label
 _atom_site_symmetry_multiplicity
 _atom_site_fract_x
 _atom_site_fract_y
 _atom_site_fract_z
 _atom_site_occupancy
  Th  Th0  1  0.33333400  0.66666700  0.00000000  1
  Th  Th1  1  0.66666600  0.33333300  0.50000000  1
  Th  Th2  1  0.66666600  0.33333300  0.00000000  1
  Th  Th3  1  0.33333400  0.66666700  0.50000000  1
  Th  Th4  1  0.25479744  -0.00000000  0.25000000  1
  Th  Th5  1  0.25479744  0.25479744  0.75000000  1
  Th  Th6  1  0.00000000  0.74520256  0.75000000  1
  Th  Th7  1  -0.00000000  0.25479744  0.25000000  1
  Th  Th8  1  0.74520256  0.74520256  0.25000000  1
  Th  Th9  1  0.74520256  0.00000000  0.75000000  1
  Sn  Sn0  1  0.61411853  0.00000000  0.25000000  1
  Sn  Sn1  1  0.61411853  0.61411853  0.75000000  1
  Sn  Sn2  1  -0.00000000  0.38588147  0.75000000  1
  Sn  Sn3  1  0.00000000  0.61411853  0.25000000  1
  Sn  Sn4  1  0.38588147  0.38588147  0.25000000  1
  Sn  Sn5  1  0.38588147  -0.00000000  0.75000000  1
loop_
_geom_bond_atom_site_label_1
_geom_bond_atom_site_label_2
_geom_bond_distance
_geom_bond_site_symmetry_2
Sn0 Th8 3.213374 1_545
Sn0 Th7 3.213375 1_655
Sn0 Th3 3.352945 1_545
Sn0 Th0 3.352945 1_545
Sn0 Th1 3.352948 1_555
Sn0 Th2 3.352948 1_555
Sn0 Th4 3.397382 1_555
Sn0 Th9 3.471205 1_555
Sn0 Th9 3.471205 1_554
Sn1 Th9 3.213374 1_565
Sn1 Th6 3.213375 1_655
Sn1 Th3 3.352945 1_555
Sn1 Th0 3.352945 1_556
Sn1 Th1 3.352948 1_555
Sn1 Th2 3.352948 1_556
Sn1 Th5 3.397382 1_555
Sn1 Th8 3.471205 1_555
Sn1 Th8 3.471205 1_556
Sn2 Th5 3.213374 1_555
Sn2 Th9 3.213375 1_455
Sn2 Th1 3.352953 1_455
Sn2 Th2 3.352953 1_456
Sn2 Th0 3.352953 1_556
Sn2 Th3 3.352953 1_555
Sn2 Th6 3.397382 1_555
Sn2 Th7 3.471205 1_556
Sn2 Th7 3.471205 1_555
Sn3 Th8 3.213374 1_455
Sn3 Th4 3.213375 1_565
Sn3 Th0 3.352953 1_555
Sn3 Th3 3.352953 1_555
Sn3 Th1 3.352953 1_455
Sn3 Th2 3.352953 1_455
Sn3 Th7 3.397382 1_555
Sn3 Th6 3.471205 1_555
Sn3 Th6 3.471205 1_554
Sn4 Th4 3.213374 1_555
Sn4 Th7 3.213375 1_555
Sn4 Th1 3.352945 1_555
Sn4 Th2 3.352945 1_555
Sn4 Th0 3.352948 1_555
Sn4 Th3 3.352948 1_555
Sn4 Th8 3.397382 1_555
Sn4 Th5 3.471205 1_555
Sn4 Th5 3.471205 1_554
Sn5 Th5 3.213374 1_555
Sn5 Th6 3.213375 1_545
Sn5 Th1 3.352945 1_555
Sn5 Th2 3.352945 1_556
Sn5 Th3 3.352948 1_545
Sn5 Th0 3.352948 1_546
Sn5 Th9 3.397382 1_555
Sn5 Th4 3.471205 1_555
Sn5 Th4 3.471205 1_556
