# generated using pymatgen
data_TbCd3
_symmetry_space_group_name_H-M   'P 1'
_cell_length_a   4.99528200
_cell_length_b   6.66790378
_cell_length_c   6.66790378
_cell_angle_alpha   119.99999782
_cell_angle_beta   90.00000000
_cell_angle_gamma   90.00000000
_symmetry_Int_Tables_number   1
_chemical_formula_structural   TbCd3
_chemical_formula_sum   'Tb2 Cd6'
_cell_volume   192.33986205
_cell_formula_units_Z   2
loop_
 _symmetry_equiv_pos_site_id
 _symmetry_equiv_pos_as_xyz
  1  'x, y, z'
loop_
 _atom_site_type_symbol
 _atom_site_label
 _atom_site_symmetry_multiplicity
 _atom_site_fract_x
 _atom_site_fract_y
 _atom_site_fract_z
 _atom_site_occupancy
  Tb  Tb0  1  0.75000000  0.33333300  0.66666700  1
  Tb  Tb1  1  0.25000000  0.66666700  0.33333300  1
  Cd  Cd0  1  0.75000000  0.32445100  0.16222600  1
  Cd  Cd1  1  0.25000000  0.16222600  0.83777400  1
  Cd  Cd2  1  0.25000000  0.16222600  0.32445100  1
  Cd  Cd3  1  0.75000000  0.83777400  0.67554900  1
  Cd  Cd4  1  0.75000000  0.83777400  0.16222600  1
  Cd  Cd5  1  0.25000000  0.67554900  0.83777400  1
loop_
_geom_bond_atom_site_label_1
_geom_bond_atom_site_label_2
_geom_bond_distance
_geom_bond_site_symmetry_2
Cd0 Cd2 3.122249 1_555
Cd0 Cd2 3.122249 1_655
Cd0 Cd1 3.122256 1_654
Cd0 Cd1 3.122256 1_554
Cd0 Tb1 3.184868 1_655
Cd0 Tb1 3.184868 1_555
Cd0 Cd4 3.245115 1_545
Cd0 Cd3 3.245116 1_544
Cd0 Tb0 3.334346 1_554
Cd0 Tb0 3.334346 1_555
Cd0 Cd4 3.422788 1_555
Cd0 Cd3 3.422788 1_555
Cd1 Cd3 3.122256 1_445
Cd1 Cd3 3.122256 1_545
Cd1 Tb0 3.184861 1_555
Cd1 Tb0 3.184861 1_455
Cd1 Cd2 3.245115 1_556
Cd1 Cd5 3.245115 1_545
Cd1 Tb1 3.334346 1_545
Cd1 Tb1 3.334346 1_556
Cd1 Cd2 3.422788 1_555
Cd1 Cd5 3.422788 1_555
Cd2 Cd4 3.122256 1_545
Cd2 Cd4 3.122256 1_445
Cd2 Tb0 3.184868 1_555
Cd2 Tb0 3.184868 1_455
Cd2 Cd5 3.245116 1_544
Cd2 Tb1 3.334346 1_545
Cd2 Tb1 3.334346 1_555
Cd2 Cd5 3.422788 1_555
Cd3 Cd5 3.122249 1_555
Cd3 Cd5 3.122249 1_655
Cd3 Tb1 3.184868 1_555
Cd3 Tb1 3.184868 1_655
Cd3 Cd4 3.245115 1_556
Cd3 Tb0 3.334346 1_565
Cd3 Tb0 3.334346 1_555
Cd3 Cd4 3.422788 1_555
Cd4 Cd5 3.122256 1_654
Cd4 Cd5 3.122256 1_554
Cd4 Tb1 3.184861 1_555
Cd4 Tb1 3.184861 1_655
Cd4 Tb0 3.334346 1_554
Cd4 Tb0 3.334346 1_565
Cd5 Tb0 3.184868 1_555
Cd5 Tb0 3.184868 1_455
Cd5 Tb1 3.334346 1_556
Cd5 Tb1 3.334346 1_555
