# generated using pymatgen
data_BaBeAsF
_symmetry_space_group_name_H-M   'P 1'
_cell_length_a   4.06247524
_cell_length_b   4.06247524
_cell_length_c   9.58670176
_cell_angle_alpha   90.00000000
_cell_angle_beta   90.00000000
_cell_angle_gamma   90.00000000
_symmetry_Int_Tables_number   1
_chemical_formula_structural   BaBeAsF
_chemical_formula_sum   'Ba2 Be2 As2 F2'
_cell_volume   158.21609873
_cell_formula_units_Z   2
loop_
 _symmetry_equiv_pos_site_id
 _symmetry_equiv_pos_as_xyz
  1  'x, y, z'
loop_
 _atom_site_type_symbol
 _atom_site_label
 _atom_site_symmetry_multiplicity
 _atom_site_fract_x
 _atom_site_fract_y
 _atom_site_fract_z
 _atom_site_occupancy
  Ba  Ba0  1  0.25000300  0.25000300  0.17288249  1
  Ba  Ba1  1  0.75000100  0.75000100  0.82711851  1
  Be  Be0  1  0.75000100  0.25000300  0.49999900  1
  Be  Be1  1  0.25000300  0.75000100  0.49999900  1
  As  As0  1  0.75000100  0.75000100  0.36877112  1
  As  As1  1  0.25000300  0.25000300  0.63122688  1
  F  F0  1  0.75000100  0.25000300  0.00000000  1
  F  F1  1  0.25000300  0.75000100  0.00000000  1
loop_
_geom_bond_atom_site_label_1
_geom_bond_atom_site_label_2
_geom_bond_distance
_geom_bond_site_symmetry_2
Ba0 F0 2.621598 1_555
Ba0 F1 2.621598 1_555
Ba0 F1 2.621611 1_545
Ba0 F0 2.621611 1_455
Ba1 F0 2.621592 1_556
Ba1 F1 2.621592 1_556
Ba1 F1 2.621605 1_656
Ba1 F0 2.621605 1_566
As0 Be0 2.389260 1_555
As0 Be1 2.389260 1_555
As0 Be1 2.389274 1_655
As0 Be0 2.389274 1_565
As0 Ba0 3.431966 1_555
As0 Ba0 3.431976 1_655
As0 Ba0 3.431976 1_565
As0 Ba0 3.431985 1_665
As1 Be1 2.389260 1_555
As1 Be0 2.389260 1_555
As1 Be0 2.389274 1_455
As1 Be1 2.389274 1_545
As1 Ba1 3.431982 1_555
As1 Ba1 3.431992 1_545
As1 Ba1 3.431992 1_455
As1 Ba1 3.432001 1_445
