# generated using pymatgen
data_TaTi(CoP)2
_symmetry_space_group_name_H-M   'P 1'
_cell_length_a   3.55183010
_cell_length_b   6.04036155
_cell_length_c   6.85743323
_cell_angle_alpha   90.00000000
_cell_angle_beta   90.00000000
_cell_angle_gamma   90.00000000
_symmetry_Int_Tables_number   1
_chemical_formula_structural   TaTi(CoP)2
_chemical_formula_sum   'Ta2 Ti2 Co4 P4'
_cell_volume   147.12168982
_cell_formula_units_Z   2
loop_
 _symmetry_equiv_pos_site_id
 _symmetry_equiv_pos_as_xyz
  1  'x, y, z'
loop_
 _atom_site_type_symbol
 _atom_site_label
 _atom_site_symmetry_multiplicity
 _atom_site_fract_x
 _atom_site_fract_y
 _atom_site_fract_z
 _atom_site_occupancy
  Ta  Ta0  1  0.25000000  0.97442450  0.32556338  1
  Ta  Ta1  1  0.25000000  0.47442450  0.17443662  1
  Ti  Ti0  1  0.75000000  0.02248204  0.67721893  1
  Ti  Ti1  1  0.75000000  0.52248204  0.82278107  1
  Co  Co0  1  0.25000000  0.85820619  0.93527422  1
  Co  Co1  1  0.25000000  0.35820619  0.56472578  1
  Co  Co2  1  0.75000000  0.14245521  0.06103041  1
  Co  Co3  1  0.75000000  0.64245521  0.43896959  1
  P  P0  1  0.25000000  0.22811452  0.87535353  1
  P  P1  1  0.25000000  0.72811452  0.62464647  1
  P  P2  1  0.75000000  0.77431854  0.11617338  1
  P  P3  1  0.75000000  0.27431854  0.38382662  1
loop_
_geom_bond_atom_site_label_1
_geom_bond_atom_site_label_2
_geom_bond_distance
_geom_bond_site_symmetry_2
Co0 P2 2.224743 1_456
Co0 P2 2.224743 1_556
Co0 P1 2.270429 1_555
Co0 P0 2.271848 1_565
Co1 P3 2.224743 1_455
Co1 P3 2.224743 1_555
Co1 P0 2.270429 1_555
Co1 P1 2.271848 1_555
Co2 P0 2.245618 1_554
Co2 P0 2.245618 1_654
Co2 P2 2.255601 1_545
Co2 P3 2.352495 1_555
Co3 P1 2.245618 1_555
Co3 P1 2.245618 1_655
Co3 P3 2.255601 1_555
Co3 P2 2.352495 1_555
P0 Ta1 2.533756 1_556
P0 Ti1 2.538786 1_555
P0 Ti1 2.538786 1_455
P0 Ti0 2.557875 1_455
P0 Ti0 2.557875 1_555
P1 Ta0 2.533756 1_555
P1 Ti0 2.538786 1_465
P1 Ti0 2.538786 1_565
P1 Ti1 2.557875 1_555
P1 Ti1 2.557875 1_455
P2 Ti1 2.522264 1_554
P2 Ta1 2.568058 1_655
P2 Ta1 2.568058 1_555
P2 Ta0 2.583913 1_655
P2 Ta0 2.583913 1_555
P3 Ti0 2.522264 1_555
P3 Ta0 2.568058 1_545
P3 Ta0 2.568058 1_645
P3 Ta1 2.583913 1_655
P3 Ta1 2.583913 1_555
