# generated using pymatgen
data_Bi6Sb(RuO9)2
_symmetry_space_group_name_H-M   'P 1'
_cell_length_a   9.10902255
_cell_length_b   9.10902227
_cell_length_c   5.28125803
_cell_angle_alpha   90.00000000
_cell_angle_beta   90.00000000
_cell_angle_gamma   119.99999755
_symmetry_Int_Tables_number   1
_chemical_formula_structural   Bi6Sb(RuO9)2
_chemical_formula_sum   'Bi6 Sb1 Ru2 O18'
_cell_volume   379.49981618
_cell_formula_units_Z   1
loop_
 _symmetry_equiv_pos_site_id
 _symmetry_equiv_pos_as_xyz
  1  'x, y, z'
loop_
 _atom_site_type_symbol
 _atom_site_label
 _atom_site_symmetry_multiplicity
 _atom_site_fract_x
 _atom_site_fract_y
 _atom_site_fract_z
 _atom_site_occupancy
  Bi  Bi0  1  0.00013422  0.38099465  0.50223212  1
  Bi  Bi1  1  0.27873695  0.28365874  0.00522198  1
  Bi  Bi2  1  0.00492179  0.72126305  0.00522198  1
  Bi  Bi3  1  0.61900535  0.61913957  0.50223212  1
  Bi  Bi4  1  0.38086043  0.99986578  0.50223212  1
  Bi  Bi5  1  0.71634126  0.99507821  0.00522198  1
  Sb  Sb0  1  0.66666700  0.33333300  0.99814455  1
  Ru  Ru0  1  0.00000000  0.00000000  0.48927973  1
  Ru  Ru1  1  0.33333300  0.66666700  0.01063421  1
  O  O0  1  0.08327633  0.19909657  0.69592122  1
  O  O1  1  0.22611562  0.46671582  0.22272153  1
  O  O2  1  0.13473557  0.59795385  0.80394296  1
  O  O3  1  0.40204615  0.53678172  0.80394296  1
  O  O4  1  0.24060221  0.77388438  0.22272153  1
  O  O5  1  0.11582025  0.91672367  0.69592122  1
  O  O6  1  0.53328418  0.75939779  0.22272153  1
  O  O7  1  0.19650146  0.06591595  0.27361616  1
  O  O8  1  0.46321828  0.86526443  0.80394296  1
  O  O9  1  0.80090343  0.88417975  0.69592122  1
  O  O10  1  0.45748452  0.22962760  0.78332460  1
  O  O11  1  0.59974252  0.13047993  0.21366694  1
  O  O12  1  0.53073741  0.40025748  0.21366694  1
  O  O13  1  0.77037240  0.22785793  0.78332460  1
  O  O14  1  0.93408405  0.13058551  0.27361616  1
  O  O15  1  0.77214207  0.54251548  0.78332460  1
  O  O16  1  0.86952007  0.46926259  0.21366694  1
  O  O17  1  0.86941449  0.80349854  0.27361616  1
loop_
_geom_bond_atom_site_label_1
_geom_bond_atom_site_label_2
_geom_bond_distance
_geom_bond_site_symmetry_2
Bi0 O16 2.311097 1_455
Bi0 O1 2.327820 1_555
Bi0 O2 2.350503 1_555
Bi0 O13 2.368634 1_455
Bi0 O0 2.370686 1_555
Bi0 O14 2.377031 1_455
Bi1 O7 2.240209 1_555
Bi1 O0 2.249492 1_554
Bi1 O10 2.251227 1_554
Bi1 O3 2.262313 1_554
Bi1 O1 2.264714 1_555
Bi1 O12 2.274010 1_555
Bi2 O17 2.240209 1_455
Bi2 O5 2.249492 1_554
Bi2 O15 2.251232 1_454
Bi2 O2 2.262313 1_554
Bi2 O4 2.264729 1_555
Bi2 O16 2.274010 1_455
Bi3 O12 2.311097 1_555
Bi3 O6 2.327807 1_555
Bi3 O3 2.350503 1_555
Bi3 O15 2.368629 1_555
Bi3 O9 2.370686 1_555
Bi3 O17 2.377031 1_555
Bi4 O11 2.311097 1_565
Bi4 O4 2.327818 1_555
Bi4 O8 2.350503 1_555
Bi4 O10 2.368636 1_565
Bi4 O5 2.370686 1_555
Bi4 O7 2.377031 1_565
Bi5 O14 2.240209 1_565
Bi5 O9 2.249492 1_554
Bi5 O13 2.251234 1_564
Bi5 O8 2.262313 1_554
Bi5 O6 2.264724 1_555
Bi5 O11 2.274010 1_565
O0 Ru0 1.918269 1_555
O1 Ru1 1.935707 1_555
O2 Ru1 1.929670 1_556
O3 Ru1 1.929677 1_556
O4 Ru1 1.935688 1_555
O5 Ru0 1.918269 1_565
O6 Ru1 1.935708 1_555
O7 Ru0 1.946001 1_555
O8 Ru1 1.929671 1_556
O9 Ru0 1.918269 1_665
O10 Sb0 2.002561 1_555
O11 Sb0 1.988741 1_554
O12 Sb0 1.988749 1_554
O13 Sb0 2.002547 1_555
O14 Ru0 1.946001 1_655
O15 Sb0 2.002560 1_555
O16 Sb0 1.988743 1_554
O17 Ru0 1.946001 1_665
