# generated using pymatgen
data_RbSc3(CuTe3)2
_symmetry_space_group_name_H-M   'P 1'
_cell_length_a   18.33339739
_cell_length_b   18.33339838
_cell_length_c   20.74204994
_cell_angle_alpha   66.70696045
_cell_angle_beta   66.70695881
_cell_angle_gamma   26.30025737
_symmetry_Int_Tables_number   1
_chemical_formula_structural   RbSc3(CuTe3)2
_chemical_formula_sum   'Rb8 Sc24 Cu16 Te48'
_cell_volume   2822.82218156
_cell_formula_units_Z   8
loop_
 _symmetry_equiv_pos_site_id
 _symmetry_equiv_pos_as_xyz
  1  'x, y, z'
loop_
 _atom_site_type_symbol
 _atom_site_label
 _atom_site_symmetry_multiplicity
 _atom_site_fract_x
 _atom_site_fract_y
 _atom_site_fract_z
 _atom_site_occupancy
  Rb  Rb0_0  1  0.00000000  0.00000000  0.00000000  1
  Rb  Rb0_1  1  0.00000000  0.00000000  0.50000000  1
  Rb  Rb0_2  1  0.00000000  0.50000000  0.00000000  1
  Rb  Rb0_3  1  1.00000000  0.50000000  0.50000000  1
  Rb  Rb0_4  1  0.50000000  0.00000000  0.00000000  1
  Rb  Rb0_5  1  0.50000000  0.00000000  0.50000000  1
  Rb  Rb0_6  1  0.50000000  0.50000000  0.00000000  1
  Rb  Rb0_7  1  0.50000000  0.50000000  0.50000000  1
  Sc  Sc0_0  1  0.14338337  0.14338337  0.31830797  1
  Sc  Sc0_1  1  0.14338337  0.14338337  0.81830797  1
  Sc  Sc0_2  1  0.14338337  0.64338337  0.31830797  1
  Sc  Sc0_3  1  0.14338337  0.64338337  0.81830797  1
  Sc  Sc0_4  1  0.64338337  0.14338337  0.31830797  1
  Sc  Sc0_5  1  0.64338337  0.14338337  0.81830797  1
  Sc  Sc0_6  1  0.64338337  0.64338337  0.31830797  1
  Sc  Sc0_7  1  0.64338337  0.64338337  0.81830797  1
  Sc  Sc1_0  1  0.35661663  0.35661663  0.18169203  1
  Sc  Sc1_1  1  0.35661663  0.35661663  0.68169203  1
  Sc  Sc1_2  1  0.35661663  0.85661663  0.18169203  1
  Sc  Sc1_3  1  0.35661663  0.85661663  0.68169203  1
  Sc  Sc1_4  1  0.85661663  0.35661663  0.18169203  1
  Sc  Sc1_5  1  0.85661663  0.35661663  0.68169203  1
  Sc  Sc1_6  1  0.85661663  0.85661663  0.18169203  1
  Sc  Sc1_7  1  0.85661663  0.85661663  0.68169203  1
  Sc  Sc2_0  1  0.00000000  0.00000000  0.25000000  1
  Sc  Sc2_1  1  0.00000000  0.00000000  0.75000000  1
  Sc  Sc2_2  1  0.00000000  0.50000000  0.25000000  1
  Sc  Sc2_3  1  0.00000000  0.50000000  0.75000000  1
  Sc  Sc2_4  1  0.50000000  0.00000000  0.25000000  1
  Sc  Sc2_5  1  0.50000000  0.00000000  0.75000000  1
  Sc  Sc2_6  1  0.50000000  0.50000000  0.25000000  1
  Sc  Sc2_7  1  0.50000000  0.50000000  0.75000000  1
  Cu  Cu0_0  1  0.13664018  0.13664018  0.45852536  1
  Cu  Cu0_1  1  0.13664018  0.13664018  0.95852536  1
  Cu  Cu0_2  1  0.13664018  0.63664018  0.45852536  1
  Cu  Cu0_3  1  0.13664018  0.63664018  0.95852536  1
  Cu  Cu0_4  1  0.63664018  0.13664018  0.45852536  1
  Cu  Cu0_5  1  0.63664018  0.13664018  0.95852536  1
  Cu  Cu0_6  1  0.63664018  0.63664018  0.45852536  1
  Cu  Cu0_7  1  0.63664018  0.63664018  0.95852536  1
  Cu  Cu1_0  1  0.36335982  0.36335982  0.04147464  1
  Cu  Cu1_1  1  0.36335982  0.36335982  0.54147464  1
  Cu  Cu1_2  1  0.36335982  0.86335982  0.04147464  1
  Cu  Cu1_3  1  0.36335982  0.86335982  0.54147464  1
  Cu  Cu1_4  1  0.86335982  0.36335982  0.04147464  1
  Cu  Cu1_5  1  0.86335982  0.36335982  0.54147464  1
  Cu  Cu1_6  1  0.86335982  0.86335982  0.04147464  1
  Cu  Cu1_7  1  0.86335982  0.86335982  0.54147464  1
  Te  Te0_0  1  0.28717030  0.28717030  0.14306589  1
  Te  Te0_1  1  0.28717030  0.28717030  0.64306589  1
  Te  Te0_2  1  0.28717030  0.78717030  0.14306589  1
  Te  Te0_3  1  0.28717030  0.78717030  0.64306589  1
  Te  Te0_4  1  0.78717030  0.28717030  0.14306589  1
  Te  Te0_5  1  0.78717030  0.28717030  0.64306589  1
  Te  Te0_6  1  0.78717030  0.78717030  0.14306589  1
  Te  Te0_7  1  0.78717030  0.78717030  0.64306589  1
  Te  Te1_0  1  0.07027283  0.07027283  0.28749001  1
  Te  Te1_1  1  0.07027283  0.07027283  0.78749001  1
  Te  Te1_2  1  0.07027283  0.57027283  0.28749001  1
  Te  Te1_3  1  0.07027283  0.57027283  0.78749001  1
  Te  Te1_4  1  0.57027283  0.07027283  0.28749001  1
  Te  Te1_5  1  0.57027283  0.07027283  0.78749001  1
  Te  Te1_6  1  0.57027283  0.57027283  0.28749001  1
  Te  Te1_7  1  0.57027283  0.57027283  0.78749001  1
  Te  Te2_0  1  0.34966588  0.34966588  0.42782838  1
  Te  Te2_1  1  0.34966588  0.34966588  0.92782838  1
  Te  Te2_2  1  0.34966588  0.84966588  0.42782838  1
  Te  Te2_3  1  0.34966588  0.84966588  0.92782838  1
  Te  Te2_4  1  0.84966588  0.34966588  0.42782838  1
  Te  Te2_5  1  0.84966588  0.34966588  0.92782838  1
  Te  Te2_6  1  0.84966588  0.84966588  0.42782838  1
  Te  Te2_7  1  0.84966588  0.84966588  0.92782838  1
  Te  Te3_0  1  0.42972717  0.42972717  0.21250999  1
  Te  Te3_1  1  0.42972717  0.42972717  0.71250999  1
  Te  Te3_2  1  0.42972717  0.92972717  0.21250999  1
  Te  Te3_3  1  0.42972717  0.92972717  0.71250999  1
  Te  Te3_4  1  0.92972717  0.42972717  0.21250999  1
  Te  Te3_5  1  0.92972717  0.42972717  0.71250999  1
  Te  Te3_6  1  0.92972717  0.92972717  0.21250999  1
  Te  Te3_7  1  0.92972717  0.92972717  0.71250999  1
  Te  Te4_0  1  0.21282970  0.21282970  0.35693411  1
  Te  Te4_1  1  0.21282970  0.21282970  0.85693411  1
  Te  Te4_2  1  0.21282970  0.71282970  0.35693411  1
  Te  Te4_3  1  0.21282970  0.71282970  0.85693411  1
  Te  Te4_4  1  0.71282970  0.21282970  0.35693411  1
  Te  Te4_5  1  0.71282970  0.21282970  0.85693411  1
  Te  Te4_6  1  0.71282970  0.71282970  0.35693411  1
  Te  Te4_7  1  0.71282970  0.71282970  0.85693411  1
  Te  Te5_0  1  0.15033412  0.15033412  0.07217162  1
  Te  Te5_1  1  0.15033412  0.15033412  0.57217162  1
  Te  Te5_2  1  0.15033412  0.65033412  0.07217162  1
  Te  Te5_3  1  0.15033412  0.65033412  0.57217162  1
  Te  Te5_4  1  0.65033412  0.15033412  0.07217162  1
  Te  Te5_5  1  0.65033412  0.15033412  0.57217162  1
  Te  Te5_6  1  0.65033412  0.65033412  0.07217162  1
  Te  Te5_7  1  0.65033412  0.65033412  0.57217162  1
loop_
_geom_bond_atom_site_label_1
_geom_bond_atom_site_label_2
_geom_bond_distance
_geom_bond_site_symmetry_2
Rb0_0 Te2_3 3.863570 1_544
Rb0_0 Te5_4 3.863570 1_455
Rb0_0 Te2_5 3.863570 1_454
Rb0_0 Te5_2 3.863570 1_545
Rb0_0 Te1_1 4.091785 1_554
Rb0_0 Te3_6 4.091785 1_445
Rb0_0 Rb0_6 4.170910 1_545
Rb0_0 Rb0_6 4.170910 1_455
Rb0_0 Te0_2 4.256179 1_545
Rb0_0 Te4_5 4.256179 1_454
Rb0_0 Te0_4 4.256179 1_455
Rb0_0 Te4_3 4.256179 1_544
Rb0_1 Te2_2 3.863570 1_545
Rb0_1 Te5_5 3.863570 1_455
Rb0_1 Te2_4 3.863570 1_455
Rb0_1 Te5_3 3.863570 1_545
Rb0_1 Te1_0 4.091785 1_555
Rb0_1 Te3_7 4.091785 1_445
Rb0_1 Rb0_7 4.170910 1_545
Rb0_1 Rb0_7 4.170910 1_455
Rb0_1 Te0_3 4.256179 1_545
Rb0_1 Te4_4 4.256179 1_455
Rb0_1 Te0_5 4.256179 1_455
Rb0_1 Te4_2 4.256179 1_545
Rb0_2 Te2_1 3.863570 1_554
Rb0_2 Te5_6 3.863570 1_455
Rb0_2 Te2_7 3.863570 1_454
Rb0_2 Te5_0 3.863570 1_555
Rb0_2 Te1_3 4.091785 1_554
Rb0_2 Te3_4 4.091785 1_455
Rb0_2 Rb0_4 4.170910 1_555
Rb0_2 Rb0_4 4.170910 1_465
Rb0_2 Te0_0 4.256179 1_555
Rb0_2 Te4_7 4.256179 1_454
Rb0_2 Te0_6 4.256179 1_455
Rb0_2 Te4_1 4.256179 1_554
Rb0_3 Te2_0 3.863570 1_655
Rb0_3 Te5_7 3.863570 1_555
Rb0_3 Te2_6 3.863570 1_555
Rb0_3 Te5_1 3.863570 1_655
Rb0_3 Te1_2 4.091785 1_655
Rb0_3 Te3_5 4.091785 1_555
Rb0_3 Rb0_5 4.170910 1_565
Rb0_3 Rb0_5 4.170910 1_655
Rb0_3 Te0_1 4.256179 1_655
Rb0_3 Te4_6 4.256179 1_555
Rb0_3 Te0_7 4.256179 1_555
Rb0_3 Te4_0 4.256179 1_655
Rb0_4 Te2_7 3.863570 1_544
Rb0_4 Te5_0 3.863570 1_555
Rb0_4 Te2_1 3.863570 1_554
Rb0_4 Te5_6 3.863570 1_545
Rb0_4 Te1_5 4.091785 1_554
Rb0_4 Te3_2 4.091785 1_545
Rb0_4 Te0_6 4.256179 1_545
Rb0_4 Te4_1 4.256179 1_554
Rb0_4 Te0_0 4.256179 1_555
Rb0_4 Te4_7 4.256179 1_544
Rb0_5 Te2_6 3.863570 1_545
Rb0_5 Te5_1 3.863570 1_555
Rb0_5 Te2_0 3.863570 1_555
Rb0_5 Te5_7 3.863570 1_545
Rb0_5 Te1_4 4.091785 1_555
Rb0_5 Te3_3 4.091785 1_545
Rb0_5 Te0_7 4.256179 1_545
Rb0_5 Te4_0 4.256179 1_555
Rb0_5 Te0_1 4.256179 1_555
Rb0_5 Te4_6 4.256179 1_545
Rb0_6 Te2_5 3.863570 1_554
Rb0_6 Te5_2 3.863570 1_555
Rb0_6 Te2_3 3.863570 1_554
Rb0_6 Te5_4 3.863570 1_555
Rb0_6 Te1_7 4.091785 1_554
Rb0_6 Te3_0 4.091785 1_555
Rb0_6 Te0_4 4.256179 1_555
Rb0_6 Te4_3 4.256179 1_554
Rb0_6 Te0_2 4.256179 1_555
Rb0_6 Te4_5 4.256179 1_554
Rb0_7 Te2_4 3.863570 1_555
Rb0_7 Te5_3 3.863570 1_555
Rb0_7 Te2_2 3.863570 1_555
Rb0_7 Te5_5 3.863570 1_555
Rb0_7 Te1_6 4.091785 1_555
Rb0_7 Te3_1 4.091785 1_555
Rb0_7 Te0_5 4.256179 1_555
Rb0_7 Te4_2 4.256179 1_555
Rb0_7 Te0_3 4.256179 1_555
Rb0_7 Te4_4 4.256179 1_555
Sc0_0 Te4_0 2.898928 1_555
Sc0_0 Te3_2 2.921635 1_545
Sc0_0 Te3_4 2.921636 1_455
Sc0_0 Te1_0 2.928857 1_555
Sc0_0 Te2_4 3.011027 1_455
Sc0_0 Te2_2 3.011027 1_545
Sc0_1 Te4_1 2.898928 1_555
Sc0_1 Te3_3 2.921635 1_545
Sc0_1 Te3_5 2.921636 1_455
Sc0_1 Te1_1 2.928857 1_555
Sc0_1 Te2_5 3.011027 1_455
Sc0_1 Te2_3 3.011027 1_545
Sc0_2 Te4_2 2.898928 1_555
Sc0_2 Te3_0 2.921635 1_555
Sc0_2 Te3_6 2.921636 1_455
Sc0_2 Te1_2 2.928857 1_555
Sc0_2 Te2_6 3.011027 1_455
Sc0_2 Te2_0 3.011027 1_555
Sc0_3 Te4_3 2.898928 1_555
Sc0_3 Te3_1 2.921635 1_555
Sc0_3 Te3_7 2.921636 1_455
Sc0_3 Te1_3 2.928857 1_555
Sc0_3 Te2_7 3.011027 1_455
Sc0_3 Te2_1 3.011027 1_555
Sc0_4 Te4_4 2.898928 1_555
Sc0_4 Te3_6 2.921635 1_545
Sc0_4 Te3_0 2.921636 1_555
Sc0_4 Te1_4 2.928857 1_555
Sc0_4 Te2_0 3.011027 1_555
Sc0_4 Te2_6 3.011027 1_545
Sc0_5 Te4_5 2.898928 1_555
Sc0_5 Te3_7 2.921635 1_545
Sc0_5 Te3_1 2.921636 1_555
Sc0_5 Te1_5 2.928857 1_555
Sc0_5 Te2_1 3.011027 1_555
Sc0_5 Te2_7 3.011027 1_545
Sc0_6 Te4_6 2.898928 1_555
Sc0_6 Te3_4 2.921635 1_555
Sc0_6 Te3_2 2.921636 1_555
Sc0_6 Te1_6 2.928857 1_555
Sc0_6 Te2_2 3.011027 1_555
Sc0_6 Te2_4 3.011027 1_555
Sc0_7 Te4_7 2.898928 1_555
Sc0_7 Te3_5 2.921635 1_555
Sc0_7 Te3_3 2.921636 1_555
Sc0_7 Te1_7 2.928857 1_555
Sc0_7 Te2_3 3.011027 1_555
Sc0_7 Te2_5 3.011027 1_555
Sc1_0 Te0_0 2.898928 1_555
Sc1_0 Te1_2 2.921635 1_555
Sc1_0 Te1_4 2.921636 1_555
Sc1_0 Te3_0 2.928857 1_555
Sc1_0 Te5_4 3.011027 1_555
Sc1_0 Te5_2 3.011027 1_555
Sc1_1 Te0_1 2.898928 1_555
Sc1_1 Te1_3 2.921635 1_555
Sc1_1 Te1_5 2.921636 1_555
Sc1_1 Te3_1 2.928857 1_555
Sc1_1 Te5_5 3.011027 1_555
Sc1_1 Te5_3 3.011027 1_555
Sc1_2 Te0_2 2.898928 1_555
Sc1_2 Te1_0 2.921635 1_565
Sc1_2 Te1_6 2.921636 1_555
Sc1_2 Te3_2 2.928857 1_555
Sc1_2 Te5_6 3.011027 1_555
Sc1_2 Te5_0 3.011027 1_565
Sc1_3 Te0_3 2.898928 1_555
Sc1_3 Te1_1 2.921635 1_565
Sc1_3 Te1_7 2.921636 1_555
Sc1_3 Te3_3 2.928857 1_555
Sc1_3 Te5_7 3.011027 1_555
Sc1_3 Te5_1 3.011027 1_565
Sc1_4 Te0_4 2.898928 1_555
Sc1_4 Te1_6 2.921635 1_555
Sc1_4 Te1_0 2.921636 1_655
Sc1_4 Te3_4 2.928857 1_555
Sc1_4 Te5_0 3.011027 1_655
Sc1_4 Te5_6 3.011027 1_555
Sc1_5 Te0_5 2.898928 1_555
Sc1_5 Te1_7 2.921635 1_555
Sc1_5 Te1_1 2.921636 1_655
Sc1_5 Te3_5 2.928857 1_555
Sc1_5 Te5_1 3.011027 1_655
Sc1_5 Te5_7 3.011027 1_555
Sc1_6 Te0_6 2.898928 1_555
Sc1_6 Te1_4 2.921635 1_565
Sc1_6 Te1_2 2.921636 1_655
Sc1_6 Te3_6 2.928857 1_555
Sc1_6 Te5_2 3.011027 1_655
Sc1_6 Te5_4 3.011027 1_565
Sc1_7 Te0_7 2.898928 1_555
Sc1_7 Te1_5 2.921635 1_565
Sc1_7 Te1_3 2.921636 1_655
Sc1_7 Te3_7 2.928857 1_555
Sc1_7 Te5_3 3.011027 1_655
Sc1_7 Te5_5 3.011027 1_565
Sc2_0 Te1_0 2.912899 1_555
Sc2_0 Te3_6 2.912899 1_445
Sc2_0 Te4_4 2.939286 1_455
Sc2_0 Te0_2 2.939286 1_545
Sc2_0 Te4_2 2.939286 1_545
Sc2_0 Te0_4 2.939286 1_455
Sc2_1 Te1_1 2.912899 1_555
Sc2_1 Te3_7 2.912899 1_445
Sc2_1 Te4_5 2.939286 1_455
Sc2_1 Te0_3 2.939286 1_545
Sc2_1 Te4_3 2.939286 1_545
Sc2_1 Te0_5 2.939286 1_455
Sc2_2 Te1_2 2.912899 1_555
Sc2_2 Te3_4 2.912899 1_455
Sc2_2 Te4_6 2.939286 1_455
Sc2_2 Te0_0 2.939286 1_555
Sc2_2 Te4_0 2.939286 1_555
Sc2_2 Te0_6 2.939286 1_455
Sc2_3 Te1_3 2.912899 1_555
Sc2_3 Te3_5 2.912899 1_455
Sc2_3 Te4_7 2.939286 1_455
Sc2_3 Te0_1 2.939286 1_555
Sc2_3 Te4_1 2.939286 1_555
Sc2_3 Te0_7 2.939286 1_455
Sc2_4 Te1_4 2.912899 1_555
Sc2_4 Te3_2 2.912899 1_545
Sc2_4 Te4_0 2.939286 1_555
Sc2_4 Te0_6 2.939286 1_545
Sc2_4 Te4_6 2.939286 1_545
Sc2_4 Te0_0 2.939286 1_555
Sc2_5 Te1_5 2.912899 1_555
Sc2_5 Te3_3 2.912899 1_545
Sc2_5 Te4_1 2.939286 1_555
Sc2_5 Te0_7 2.939286 1_545
Sc2_5 Te4_7 2.939286 1_545
Sc2_5 Te0_1 2.939286 1_555
Sc2_6 Te1_6 2.912899 1_555
Sc2_6 Te3_0 2.912899 1_555
Sc2_6 Te4_2 2.939286 1_555
Sc2_6 Te0_4 2.939286 1_555
Sc2_6 Te4_4 2.939286 1_555
Sc2_6 Te0_2 2.939286 1_555
Sc2_7 Te1_7 2.912899 1_555
Sc2_7 Te3_1 2.912899 1_555
Sc2_7 Te4_3 2.939286 1_555
Sc2_7 Te0_5 2.939286 1_555
Sc2_7 Te4_5 2.939286 1_555
Sc2_7 Te0_3 2.939286 1_555
Cu0_0 Te5_1 2.594572 1_555
Cu0_0 Cu1_5 2.615108 1_455
Cu0_0 Cu1_3 2.615108 1_545
Cu0_0 Te2_4 2.679570 1_455
Cu0_0 Te2_2 2.679570 1_545
Cu0_0 Te4_0 2.680503 1_555
Cu0_0 Sc0_0 2.819223 1_555
Cu0_1 Te5_0 2.594572 1_556
Cu0_1 Cu1_4 2.615108 1_456
Cu0_1 Cu1_2 2.615108 1_546
Cu0_1 Te2_5 2.679570 1_455
Cu0_1 Te2_3 2.679570 1_545
Cu0_1 Te4_1 2.680503 1_555
Cu0_1 Sc0_1 2.819223 1_555
Cu0_2 Te5_3 2.594572 1_555
Cu0_2 Cu1_7 2.615108 1_455
Cu0_2 Cu1_1 2.615108 1_555
Cu0_2 Te2_6 2.679570 1_455
Cu0_2 Te2_0 2.679570 1_555
Cu0_2 Te4_2 2.680503 1_555
Cu0_2 Sc0_2 2.819223 1_555
Cu0_3 Te5_2 2.594572 1_556
Cu0_3 Cu1_6 2.615108 1_456
Cu0_3 Cu1_0 2.615108 1_556
Cu0_3 Te2_7 2.679570 1_455
Cu0_3 Te2_1 2.679570 1_555
Cu0_3 Te4_3 2.680503 1_555
Cu0_3 Sc0_3 2.819223 1_555
Cu0_4 Te5_5 2.594572 1_555
Cu0_4 Cu1_1 2.615108 1_555
Cu0_4 Cu1_7 2.615108 1_545
Cu0_4 Te2_0 2.679570 1_555
Cu0_4 Te2_6 2.679570 1_545
Cu0_4 Te4_4 2.680503 1_555
Cu0_4 Sc0_4 2.819223 1_555
Cu0_5 Te5_4 2.594572 1_556
Cu0_5 Cu1_0 2.615108 1_556
Cu0_5 Cu1_6 2.615108 1_546
Cu0_5 Te2_1 2.679570 1_555
Cu0_5 Te2_7 2.679570 1_545
Cu0_5 Te4_5 2.680503 1_555
Cu0_5 Sc0_5 2.819223 1_555
Cu0_6 Te5_7 2.594572 1_555
Cu0_6 Cu1_3 2.615108 1_555
Cu0_6 Cu1_5 2.615108 1_555
Cu0_6 Te2_2 2.679570 1_555
Cu0_6 Te2_4 2.679570 1_555
Cu0_6 Te4_6 2.680503 1_555
Cu0_6 Sc0_6 2.819223 1_555
Cu0_7 Te5_6 2.594572 1_556
Cu0_7 Cu1_2 2.615108 1_556
Cu0_7 Cu1_4 2.615108 1_556
Cu0_7 Te2_3 2.679570 1_555
Cu0_7 Te2_5 2.679570 1_555
Cu0_7 Te4_7 2.680503 1_555
Cu0_7 Sc0_7 2.819223 1_555
Cu1_0 Te2_1 2.594572 1_554
Cu1_0 Te5_4 2.679570 1_555
Cu1_0 Te5_2 2.679570 1_555
Cu1_0 Te0_0 2.680503 1_555
Cu1_0 Sc1_0 2.819223 1_555
Cu1_1 Te2_0 2.594572 1_555
Cu1_1 Te5_5 2.679570 1_555
Cu1_1 Te5_3 2.679570 1_555
Cu1_1 Te0_1 2.680503 1_555
Cu1_1 Sc1_1 2.819223 1_555
Cu1_2 Te2_3 2.594572 1_554
Cu1_2 Te5_6 2.679570 1_555
Cu1_2 Te5_0 2.679570 1_565
Cu1_2 Te0_2 2.680503 1_555
Cu1_2 Sc1_2 2.819223 1_555
Cu1_3 Te2_2 2.594572 1_555
Cu1_3 Te5_7 2.679570 1_555
Cu1_3 Te5_1 2.679570 1_565
Cu1_3 Te0_3 2.680503 1_555
Cu1_3 Sc1_3 2.819223 1_555
Cu1_4 Te2_5 2.594572 1_554
Cu1_4 Te5_0 2.679570 1_655
Cu1_4 Te5_6 2.679570 1_555
Cu1_4 Te0_4 2.680503 1_555
Cu1_4 Sc1_4 2.819223 1_555
Cu1_5 Te2_4 2.594572 1_555
Cu1_5 Te5_1 2.679570 1_655
Cu1_5 Te5_7 2.679570 1_555
Cu1_5 Te0_5 2.680503 1_555
Cu1_5 Sc1_5 2.819223 1_555
Cu1_6 Te2_7 2.594572 1_554
Cu1_6 Te5_2 2.679570 1_655
Cu1_6 Te5_4 2.679570 1_565
Cu1_6 Te0_6 2.680503 1_555
Cu1_6 Sc1_6 2.819223 1_555
Cu1_7 Te2_6 2.594572 1_555
Cu1_7 Te5_3 2.679570 1_655
Cu1_7 Te5_5 2.679570 1_565
Cu1_7 Te0_7 2.680503 1_555
Cu1_7 Sc1_7 2.819223 1_555
