# generated using pymatgen
data_Sc5(AlTe)2
_symmetry_space_group_name_H-M   'P 1'
_cell_length_a   8.22423969
_cell_length_b   8.22424036
_cell_length_c   7.50553515
_cell_angle_alpha   90.00000000
_cell_angle_beta   90.00000000
_cell_angle_gamma   125.76229331
_symmetry_Int_Tables_number   1
_chemical_formula_structural   Sc5(AlTe)2
_chemical_formula_sum   'Sc10 Al4 Te4'
_cell_volume   411.94025736
_cell_formula_units_Z   2
loop_
 _symmetry_equiv_pos_site_id
 _symmetry_equiv_pos_as_xyz
  1  'x, y, z'
loop_
 _atom_site_type_symbol
 _atom_site_label
 _atom_site_symmetry_multiplicity
 _atom_site_fract_x
 _atom_site_fract_y
 _atom_site_fract_z
 _atom_site_occupancy
  Sc  Sc0  1  0.00000000  0.00000000  0.00000000  1
  Sc  Sc1  1  0.50000000  0.50000000  0.50000000  1
  Sc  Sc2  1  0.79437665  0.53868478  0.16778186  1
  Sc  Sc3  1  0.46131522  0.20562335  0.83221814  1
  Sc  Sc4  1  0.96131522  0.70562335  0.66778186  1
  Sc  Sc5  1  0.29437665  0.03868478  0.33221814  1
  Sc  Sc6  1  0.20562335  0.46131522  0.83221814  1
  Sc  Sc7  1  0.53868478  0.79437665  0.16778186  1
  Sc  Sc8  1  0.03868478  0.29437665  0.33221814  1
  Sc  Sc9  1  0.70562335  0.96131522  0.66778186  1
  Al  Al0  1  0.87248814  0.87248814  0.37451077  1
  Al  Al1  1  0.12751186  0.12751186  0.62548923  1
  Al  Al2  1  0.62751186  0.62751186  0.87451077  1
  Al  Al3  1  0.37248814  0.37248814  0.12548923  1
  Te  Te0  1  0.20544117  0.79455883  0.00000000  1
  Te  Te1  1  0.70544117  0.29455883  0.50000000  1
  Te  Te2  1  0.79455883  0.20544117  0.00000000  1
  Te  Te3  1  0.29455883  0.70544117  0.50000000  1
loop_
_geom_bond_atom_site_label_1
_geom_bond_atom_site_label_2
_geom_bond_distance
_geom_bond_site_symmetry_2
Sc0 Te2 3.007696 1_455
Sc0 Te0 3.007696 1_545
Sc1 Te3 3.007696 1_555
Sc1 Te1 3.007696 1_555
Sc2 Te1 3.011144 1_555
Sc2 Te2 3.016939 1_555
Sc2 Te0 3.021229 1_655
Sc3 Te1 3.011143 1_555
Sc3 Te2 3.016939 1_556
Sc3 Te0 3.021230 1_546
Sc4 Te0 3.011143 1_656
Sc4 Te3 3.016939 1_655
Sc4 Te1 3.021230 1_555
Sc5 Te0 3.011144 1_545
Sc5 Te3 3.016939 1_545
Sc5 Te1 3.021229 1_555
Sc6 Te3 3.011144 1_555
Sc6 Te0 3.016939 1_556
Sc6 Te2 3.021229 1_456
Sc7 Te3 3.011143 1_555
Sc7 Te0 3.016939 1_555
Sc7 Te2 3.021230 1_565
Sc8 Te2 3.011143 1_455
Sc8 Te1 3.016939 1_455
Sc8 Te3 3.021230 1_555
Sc9 Te2 3.011144 1_566
Sc9 Te1 3.016939 1_565
Sc9 Te3 3.021229 1_555
Al0 Al1 2.684150 1_665
Al0 Sc7 2.880169 1_555
Al0 Sc2 2.880169 1_555
Al0 Sc9 2.904117 1_555
Al0 Sc4 2.904117 1_555
Al0 Sc5 2.909400 1_665
Al0 Sc8 2.909400 1_665
Al0 Sc1 2.947398 1_555
Al0 Sc0 2.969046 1_665
Al1 Sc3 2.880169 1_555
Al1 Sc6 2.880169 1_555
Al1 Sc5 2.904117 1_555
Al1 Sc8 2.904117 1_555
Al1 Sc9 2.909400 1_445
Al1 Sc4 2.909400 1_445
Al1 Sc1 2.947398 1_555
Al1 Sc0 2.969046 1_556
Al2 Al3 2.684150 1_556
Al2 Sc4 2.880169 1_555
Al2 Sc9 2.880169 1_555
Al2 Sc2 2.904117 1_556
Al2 Sc7 2.904117 1_556
Al2 Sc6 2.909400 1_555
Al2 Sc3 2.909400 1_555
Al2 Sc0 2.947398 1_666
Al2 Sc1 2.969046 1_555
Al3 Sc8 2.880169 1_555
Al3 Sc5 2.880169 1_555
Al3 Sc6 2.904117 1_554
Al3 Sc3 2.904117 1_554
Al3 Sc2 2.909400 1_555
Al3 Sc7 2.909400 1_555
Al3 Sc0 2.947398 1_555
Al3 Sc1 2.969046 1_555
