# generated using pymatgen
data_Zr10SnB2Sb5
_symmetry_space_group_name_H-M   'P 1'
_cell_length_a   8.50732572
_cell_length_b   8.50575734
_cell_length_c   5.78846256
_cell_angle_alpha   90.00000000
_cell_angle_beta   90.00000000
_cell_angle_gamma   119.99390719
_symmetry_Int_Tables_number   1
_chemical_formula_structural   Zr10SnB2Sb5
_chemical_formula_sum   'Zr10 Sn1 B2 Sb5'
_cell_volume   362.76599521
_cell_formula_units_Z   1
loop_
 _symmetry_equiv_pos_site_id
 _symmetry_equiv_pos_as_xyz
  1  'x, y, z'
loop_
 _atom_site_type_symbol
 _atom_site_label
 _atom_site_symmetry_multiplicity
 _atom_site_fract_x
 _atom_site_fract_y
 _atom_site_fract_z
 _atom_site_occupancy
  Zr  Zr0  1  0.66483600  0.33296774  0.00029469  1
  Zr  Zr1  1  0.33516400  0.66813274  0.00029469  1
  Zr  Zr2  1  0.33516400  0.66813274  0.49970531  1
  Zr  Zr3  1  0.66483600  0.33296774  0.49970531  1
  Zr  Zr4  1  0.76774150  0.76669460  0.75000000  1
  Zr  Zr5  1  0.23225850  0.99895310  0.75000000  1
  Zr  Zr6  1  1.00000000  0.23145427  0.75000000  1
  Zr  Zr7  1  0.23276519  0.23362198  0.25000000  1
  Zr  Zr8  1  0.76723481  0.00085679  0.25000000  1
  Zr  Zr9  1  0.00000000  0.76709963  0.25000000  1
  Sn  Sn0  1  1.00000000  0.40010416  0.25000000  1
  B  B0  1  1.00000000  0.99993379  0.00025193  1
  B  B1  1  1.00000000  0.99993379  0.49974807  1
  Sb  Sb0  1  0.39804089  0.39917441  0.75000000  1
  Sb  Sb1  1  0.60195911  0.00113352  0.75000000  1
  Sb  Sb2  1  1.00000000  0.59704761  0.75000000  1
  Sb  Sb3  1  0.60150158  0.60164699  0.25000000  1
  Sb  Sb4  1  0.39849842  0.00014542  0.25000000  1
loop_
_geom_bond_atom_site_label_1
_geom_bond_atom_site_label_2
_geom_bond_distance
_geom_bond_site_symmetry_2
Sn0 Zr8 2.954660 1_555
Sn0 Zr7 2.954661 1_655
Sn0 Zr3 2.986226 1_555
Sn0 Zr0 2.986226 1_555
Sn0 Zr2 2.986228 1_655
Sn0 Zr1 2.986228 1_655
Sn0 Zr9 3.121574 1_655
Sn0 Zr6 3.230225 1_554
Sn0 Zr6 3.230225 1_555
B0 Zr6 2.444655 1_564
B0 Zr9 2.451944 1_655
B0 Zr4 2.453383 1_554
B0 Zr5 2.453384 1_654
B0 Zr7 2.454946 1_665
B0 Zr8 2.454946 1_565
B1 Zr6 2.444655 1_565
B1 Zr9 2.451944 1_655
B1 Zr4 2.453383 1_555
B1 Zr5 2.453384 1_655
B1 Zr7 2.454946 1_665
B1 Zr8 2.454946 1_565
Sb0 Zr6 2.944830 1_455
Sb0 Zr5 2.962659 1_545
Sb0 Zr1 2.973593 1_556
Sb0 Zr2 2.973593 1_555
Sb0 Zr0 2.974177 1_556
Sb0 Zr3 2.974177 1_555
Sb0 Zr4 3.135933 1_555
Sb0 Zr7 3.218210 1_555
Sb0 Zr7 3.218210 1_556
Sb1 Zr6 2.944830 1_555
Sb1 Zr4 2.962659 1_545
Sb1 Zr0 2.973586 1_556
Sb1 Zr3 2.973586 1_555
Sb1 Zr1 2.974172 1_546
Sb1 Zr2 2.974172 1_545
Sb1 Zr5 3.135933 1_545
Sb1 Zr8 3.218210 1_555
Sb1 Zr8 3.218210 1_556
Sb2 Zr5 2.972710 1_655
Sb2 Zr4 2.972710 1_555
Sb2 Zr1 2.978448 1_656
Sb2 Zr2 2.978448 1_655
Sb2 Zr0 2.978451 1_556
Sb2 Zr3 2.978451 1_555
Sb2 Zr6 3.109648 1_555
Sb2 Zr9 3.235538 1_655
Sb2 Zr9 3.235538 1_656
Sb3 Zr9 2.950180 1_655
Sb3 Zr8 2.954863 1_565
Sb3 Zr2 2.970533 1_555
Sb3 Zr1 2.970533 1_555
Sb3 Zr3 2.972092 1_555
Sb3 Zr0 2.972092 1_555
Sb3 Zr7 3.133940 1_555
Sb3 Zr4 3.219078 1_555
Sb3 Zr4 3.219078 1_554
Sb4 Zr9 2.950180 1_545
Sb4 Zr7 2.954863 1_555
Sb4 Zr3 2.970528 1_555
Sb4 Zr0 2.970528 1_555
Sb4 Zr2 2.972085 1_545
Sb4 Zr1 2.972085 1_545
Sb4 Zr8 3.133940 1_555
Sb4 Zr5 3.219078 1_545
Sb4 Zr5 3.219078 1_544
