# generated using pymatgen
data_CeAgSn
_symmetry_space_group_name_H-M   'P 1'
_cell_length_a   4.79883642
_cell_length_b   4.79883642
_cell_length_c   7.77038017
_cell_angle_alpha   90.00000000
_cell_angle_beta   90.00000000
_cell_angle_gamma   120.00001317
_symmetry_Int_Tables_number   1
_chemical_formula_structural   CeAgSn
_chemical_formula_sum   'Ce2 Ag2 Sn2'
_cell_volume   154.96896519
_cell_formula_units_Z   2
loop_
 _symmetry_equiv_pos_site_id
 _symmetry_equiv_pos_as_xyz
  1  'x, y, z'
loop_
 _atom_site_type_symbol
 _atom_site_label
 _atom_site_symmetry_multiplicity
 _atom_site_fract_x
 _atom_site_fract_y
 _atom_site_fract_z
 _atom_site_occupancy
  Ce  Ce0  1  0.00000000  -0.00000000  0.73165095  1
  Ce  Ce1  1  0.00000000  -0.00000000  0.23165197  1
  Ag  Ag0  1  0.66666700  0.33333300  0.53204687  1
  Ag  Ag1  1  0.33333300  0.66666700  0.03203255  1
  Sn  Sn0  1  0.33333300  0.66666700  0.45429902  1
  Sn  Sn1  1  0.66666700  0.33333300  0.95431864  1
loop_
_geom_bond_atom_site_label_1
_geom_bond_atom_site_label_2
_geom_bond_distance
_geom_bond_site_symmetry_2
Ce0 Sn1 3.266481 1_455
Ce0 Sn1 3.266484 1_445
Ce0 Sn1 3.266484 1_555
Ce0 Sn0 3.510107 1_545
Ce0 Sn0 3.510109 1_445
Ce0 Sn0 3.510109 1_555
Ce1 Sn0 3.266396 1_545
Ce1 Sn0 3.266399 1_445
Ce1 Sn0 3.266399 1_555
Ce1 Sn1 3.510018 1_454
Ce1 Sn1 3.510021 1_444
Ce1 Sn1 3.510021 1_554
Ag0 Sn0 2.835707 1_545
Ag0 Sn0 2.835707 1_655
Ag0 Sn0 2.835715 1_555
Ag0 Ce0 3.175195 1_655
Ag0 Ce0 3.175198 1_665
Ag0 Ce0 3.175198 1_555
Ag0 Sn1 3.281212 1_555
Ag0 Ce1 3.622799 1_655
Ag0 Ce1 3.622802 1_665
Ag0 Ce1 3.622802 1_555
Ag1 Sn1 2.835651 1_454
Ag1 Sn1 2.835651 1_564
Ag1 Sn1 2.835659 1_554
Ag1 Ce1 3.175253 1_565
Ag1 Ce1 3.175256 1_555
Ag1 Ce1 3.175256 1_665
Ag1 Sn0 3.281171 1_555
Ag1 Ce0 3.622732 1_564
Ag1 Ce0 3.622735 1_664
Ag1 Ce0 3.622735 1_554
