# generated using pymatgen
data_RbCoRhF6
_symmetry_space_group_name_H-M   'P 1'
_cell_length_a   7.32932577
_cell_length_b   7.32932580
_cell_length_c   7.32932538
_cell_angle_alpha   120.38816259
_cell_angle_beta   120.82135951
_cell_angle_gamma   88.95609434
_symmetry_Int_Tables_number   1
_chemical_formula_structural   RbCoRhF6
_chemical_formula_sum   'Rb2 Co2 Rh2 F12'
_cell_volume   275.80543861
_cell_formula_units_Z   2
loop_
 _symmetry_equiv_pos_site_id
 _symmetry_equiv_pos_as_xyz
  1  'x, y, z'
loop_
 _atom_site_type_symbol
 _atom_site_label
 _atom_site_symmetry_multiplicity
 _atom_site_fract_x
 _atom_site_fract_y
 _atom_site_fract_z
 _atom_site_occupancy
  Rb  Rb0  1  0.36023143  0.61023143  0.75000000  1
  Rb  Rb1  1  0.63976857  0.38976857  0.25000000  1
  Co  Co0  1  0.00000000  0.00000000  0.50000000  1
  Co  Co1  1  0.00000000  0.50000000  0.00000000  1
  Rh  Rh0  1  0.00000000  0.00000000  0.00000000  1
  Rh  Rh1  1  0.50000000  0.00000000  0.50000000  1
  F  F0  1  0.32982208  0.07982208  0.25000000  1
  F  F1  1  0.92852394  0.67852394  0.25000000  1
  F  F2  1  0.33103813  0.67529397  0.25286873  1
  F  F3  1  0.92242624  0.07816939  0.24713127  1
  F  F4  1  0.33103813  0.07816939  0.65574316  1
  F  F5  1  0.92242624  0.67529397  0.84425684  1
  F  F6  1  0.67017792  0.92017792  0.75000000  1
  F  F7  1  0.07147606  0.32147606  0.75000000  1
  F  F8  1  0.66896187  0.32470603  0.74713127  1
  F  F9  1  0.07757376  0.92183061  0.75286873  1
  F  F10  1  0.66896187  0.92183061  0.34425684  1
  F  F11  1  0.07757376  0.32470603  0.15574316  1
loop_
_geom_bond_atom_site_label_1
_geom_bond_atom_site_label_2
_geom_bond_distance
_geom_bond_site_symmetry_2
Co0 F7 1.969010 1_555
Co0 F1 1.969010 1_445
Co0 F3 2.017188 1_455
Co0 F9 2.017188 1_545
Co0 F4 2.017188 1_555
Co0 F10 2.017188 1_445
Co1 F1 1.969010 1_455
Co1 F7 1.969010 1_554
Co1 F5 2.017181 1_454
Co1 F11 2.017181 1_555
Co1 F2 2.017186 1_555
Co1 F8 2.017186 1_454
F0 Rh1 1.992848 1_555
F0 Rh0 1.992848 1_555
F0 Rb1 3.241800 1_555
F1 Rb1 3.020158 1_555
F2 Rh1 1.981387 1_565
F2 Rb1 3.054794 1_555
F3 Rh0 1.981382 1_655
F3 Rb1 3.054799 1_555
F4 Rh1 1.981382 1_555
F4 Rb1 3.054799 1_556
F5 Rh0 1.981389 1_666
F5 Rb1 3.054799 1_555
F6 Rh1 1.992848 1_565
F6 Rh0 1.992848 1_666
F6 Rb0 3.241800 1_555
F7 Rb0 3.020158 1_555
F8 Rh1 1.981387 1_555
F8 Rb0 3.054794 1_555
F9 Rh0 1.981382 1_566
F9 Rb0 3.054799 1_555
F10 Rh1 1.981382 1_565
F10 Rb0 3.054799 1_554
F11 Rh0 1.981389 1_555
F11 Rb0 3.054799 1_555
