# generated using pymatgen
data_Ca10InReN10
_symmetry_space_group_name_H-M   'P 1'
_cell_length_a   6.97367775
_cell_length_b   6.97367683
_cell_length_c   8.75716319
_cell_angle_alpha   82.85148648
_cell_angle_beta   82.85148886
_cell_angle_gamma   60.40222721
_symmetry_Int_Tables_number   1
_chemical_formula_structural   Ca10InReN10
_chemical_formula_sum   'Ca10 In1 Re1 N10'
_cell_volume   366.44989271
_cell_formula_units_Z   1
loop_
 _symmetry_equiv_pos_site_id
 _symmetry_equiv_pos_as_xyz
  1  'x, y, z'
loop_
 _atom_site_type_symbol
 _atom_site_label
 _atom_site_symmetry_multiplicity
 _atom_site_fract_x
 _atom_site_fract_y
 _atom_site_fract_z
 _atom_site_occupancy
  Ca  Ca0  1  0.90275247  0.37265796  0.83558402  1
  Ca  Ca1  1  0.88910217  0.88910217  0.80690718  1
  Ca  Ca2  1  0.73926263  0.73926263  0.53530080  1
  Ca  Ca3  1  0.74576581  0.26438614  0.52356216  1
  Ca  Ca4  1  0.60520544  0.12014200  0.13393299  1
  Ca  Ca5  1  0.37265796  0.90275247  0.83558402  1
  Ca  Ca6  1  0.26438614  0.74576581  0.52356216  1
  Ca  Ca7  1  0.24702997  0.24702997  0.50615276  1
  Ca  Ca8  1  0.12330336  0.12330336  0.17564195  1
  Ca  Ca9  1  0.12014200  0.60520544  0.13393299  1
  In  In0  1  0.37979982  0.37979982  0.78117984  1
  Re  Re0  1  0.62764770  0.62764770  0.22617385  1
  N  N0  1  0.89359062  0.47047420  0.31863356  1
  N  N1  1  0.97703200  0.97703200  0.03959246  1
  N  N2  1  0.68616903  0.68616903  0.02447170  1
  N  N3  1  0.56051134  0.56051134  0.69181741  1
  N  N4  1  0.47047420  0.89359062  0.31863356  1
  N  N5  1  0.56527253  0.07166248  0.65522209  1
  N  N6  1  0.47262007  0.47262007  0.27526807  1
  N  N7  1  0.27786852  0.27786852  0.00035703  1
  N  N8  1  0.07003174  0.07003174  0.64907431  1
  N  N9  1  0.07166248  0.56527253  0.65522209  1
loop_
_geom_bond_atom_site_label_1
_geom_bond_atom_site_label_2
_geom_bond_distance
_geom_bond_site_symmetry_2
Ca0 N3 2.499259 1_555
Ca0 N9 2.501668 1_655
Ca0 N8 2.536558 1_655
Ca0 N2 2.610308 1_556
Ca0 N7 2.890691 1_656
Ca0 N1 2.943430 1_546
Ca1 N8 2.408093 1_665
Ca1 N1 2.428469 1_556
Ca1 N9 2.443522 1_655
Ca1 N5 2.443522 1_565
Ca1 N2 2.876063 1_556
Ca2 N5 2.336413 1_565
Ca2 N9 2.336413 1_655
Ca2 N3 2.381374 1_555
Ca2 N0 2.579939 1_555
Ca2 N4 2.579939 1_555
Ca3 N8 2.319256 1_655
Ca3 N5 2.375753 1_555
Ca3 N3 2.398490 1_555
Ca3 N0 2.590362 1_555
Ca3 N6 2.824447 1_555
Ca4 N1 2.349029 1_545
Ca4 N7 2.377636 1_555
Ca4 N4 2.539121 1_545
Ca4 N6 2.579961 1_555
Ca4 N2 3.048943 1_545
Ca5 N3 2.499259 1_555
Ca5 N5 2.501669 1_565
Ca5 N8 2.536558 1_565
Ca5 N2 2.610308 1_556
Ca5 N7 2.890690 1_566
Ca5 N1 2.943430 1_456
Ca6 N8 2.319256 1_565
Ca6 N9 2.375753 1_555
Ca6 N3 2.398490 1_555
Ca6 N4 2.590362 1_555
Ca6 N6 2.824447 1_555
Ca7 N8 2.312925 1_555
Ca7 N9 2.401623 1_555
Ca7 N5 2.401623 1_555
Ca7 N4 2.788621 1_545
Ca7 N0 2.788621 1_455
Ca7 N6 3.146331 1_555
Ca8 N7 2.236964 1_555
Ca8 N1 2.265659 1_445
Ca8 N0 2.533749 1_455
Ca8 N4 2.533749 1_545
Ca9 N1 2.349029 1_455
Ca9 N7 2.377635 1_555
Ca9 N0 2.539121 1_455
Ca9 N6 2.579961 1_555
Ca9 N2 3.048944 1_455
In0 N7 2.124749 1_556
In0 N3 2.206048 1_555
In0 N5 2.235288 1_555
In0 N9 2.235288 1_555
N0 Re0 1.855089 1_555
N2 Re0 1.805204 1_555
N4 Re0 1.855089 1_555
N6 Re0 1.856246 1_555
