# generated using pymatgen
data_Cs5RbGaBi3
_symmetry_space_group_name_H-M   'P 1'
_cell_length_a   6.60206769
_cell_length_b   11.20458200
_cell_length_c   13.13853910
_cell_angle_alpha   78.09954214
_cell_angle_beta   90.00000000
_cell_angle_gamma   90.00000000
_symmetry_Int_Tables_number   1
_chemical_formula_structural   Cs5RbGaBi3
_chemical_formula_sum   'Cs10 Rb2 Ga2 Bi6'
_cell_volume   951.01375017
_cell_formula_units_Z   2
loop_
 _symmetry_equiv_pos_site_id
 _symmetry_equiv_pos_as_xyz
  1  'x, y, z'
loop_
 _atom_site_type_symbol
 _atom_site_label
 _atom_site_symmetry_multiplicity
 _atom_site_fract_x
 _atom_site_fract_y
 _atom_site_fract_z
 _atom_site_occupancy
  Cs  Cs0  1  0.75000000  0.12886048  0.32228747  1
  Cs  Cs1  1  0.25000000  0.87113952  0.67771253  1
  Cs  Cs2  1  0.75000000  0.13542699  0.97614095  1
  Cs  Cs3  1  0.25000000  0.86457301  0.02385905  1
  Cs  Cs4  1  0.75000000  0.44056906  0.45389421  1
  Cs  Cs5  1  0.25000000  0.55943094  0.54610579  1
  Cs  Cs6  1  0.75000000  0.45652399  0.07939601  1
  Cs  Cs7  1  0.25000000  0.54347601  0.92060399  1
  Cs  Cs8  1  0.75000000  0.75115266  0.22321337  1
  Cs  Cs9  1  0.25000000  0.24884734  0.77678663  1
  Rb  Rb0  1  0.75000000  0.07553499  0.62466724  1
  Rb  Rb1  1  0.25000000  0.92446501  0.37533276  1
  Ga  Ga0  1  0.75000000  0.68171014  0.71635469  1
  Ga  Ga1  1  0.25000000  0.31828986  0.28364531  1
  Bi  Bi0  1  0.75000000  0.43580326  0.76952911  1
  Bi  Bi1  1  0.25000000  0.56419674  0.23047089  1
  Bi  Bi2  1  0.75000000  0.79024481  0.50996827  1
  Bi  Bi3  1  0.25000000  0.20975519  0.49003173  1
  Bi  Bi4  1  0.75000000  0.81917010  0.87087758  1
  Bi  Bi5  1  0.25000000  0.18082990  0.12912242  1
loop_
_geom_bond_atom_site_label_1
_geom_bond_atom_site_label_2
_geom_bond_distance
_geom_bond_site_symmetry_2
Cs0 Rb0 3.893761 1_555
Cs0 Ga1 3.900650 1_555
Cs0 Ga1 3.900650 1_655
Cs0 Rb1 3.996140 1_645
Cs0 Rb1 3.996140 1_545
Cs0 Cs4 4.204583 1_555
Cs0 Cs6 4.339434 1_555
Cs0 Cs2 4.533259 1_554
Cs0 Cs8 4.677252 1_545
Cs1 Rb1 3.893761 1_555
Cs1 Ga0 3.900650 1_555
Cs1 Ga0 3.900650 1_455
Cs1 Rb0 3.996140 1_465
Cs1 Rb0 3.996140 1_565
Cs1 Cs5 4.204583 1_555
Cs1 Cs7 4.339434 1_555
Cs1 Cs3 4.533259 1_556
Cs1 Cs9 4.677252 1_565
Cs2 Cs6 4.098443 1_556
Cs2 Cs9 4.242567 1_555
Cs2 Cs9 4.242567 1_655
Cs2 Cs3 4.440183 1_646
Cs2 Cs3 4.440183 1_546
Cs2 Rb0 4.801347 1_555
Cs2 Cs8 4.828222 1_546
Cs3 Cs7 4.098443 1_554
Cs3 Cs8 4.242567 1_555
Cs3 Cs8 4.242567 1_455
Cs3 Rb1 4.801347 1_555
Cs3 Cs9 4.828222 1_564
Cs4 Cs5 3.847564 1_655
Cs4 Cs5 3.847564 1_555
Cs4 Cs8 4.116558 1_555
Cs4 Rb0 4.240047 1_555
Cs4 Ga1 4.363630 1_555
Cs4 Ga1 4.363630 1_655
Cs4 Cs6 4.886627 1_555
Cs5 Cs9 4.116558 1_555
Cs5 Rb1 4.240047 1_555
Cs5 Ga0 4.363630 1_555
Cs5 Ga0 4.363630 1_455
Cs5 Cs7 4.886627 1_555
Cs6 Cs7 3.919228 1_654
Cs6 Cs7 3.919228 1_554
Cs6 Cs8 4.128058 1_555
Cs6 Ga1 4.333930 1_555
Cs6 Ga1 4.333930 1_655
Cs7 Cs9 4.128058 1_555
Cs7 Ga0 4.333930 1_455
Cs7 Ga0 4.333930 1_555
Cs8 Rb1 4.501438 1_555
Cs8 Rb1 4.501438 1_655
Cs9 Rb0 4.501438 1_455
Cs9 Rb0 4.501438 1_555
Bi0 Ga0 2.699220 1_555
Bi0 Cs2 3.863698 1_555
Bi0 Cs9 3.900201 1_655
Bi0 Cs9 3.900201 1_555
Bi0 Cs6 4.125334 1_556
Bi0 Cs4 4.136300 1_555
Bi0 Cs7 4.156891 1_655
Bi0 Cs7 4.156891 1_555
Bi0 Cs5 4.444716 1_555
Bi0 Cs5 4.444716 1_655
Bi1 Ga1 2.699220 1_555
Bi1 Cs3 3.863698 1_555
Bi1 Cs8 3.900201 1_555
Bi1 Cs8 3.900201 1_455
Bi1 Cs7 4.125334 1_554
Bi1 Cs5 4.136300 1_555
Bi1 Cs6 4.156891 1_455
Bi1 Cs6 4.156891 1_555
Bi1 Cs4 4.444716 1_555
Bi1 Cs4 4.444716 1_455
Bi2 Ga0 2.733447 1_555
Bi2 Rb0 3.804689 1_565
Bi2 Cs8 3.881599 1_555
Bi2 Rb1 3.897486 1_555
Bi2 Rb1 3.897486 1_655
Bi2 Cs0 4.076366 1_565
Bi2 Cs4 4.133246 1_555
Bi2 Cs5 4.159823 1_555
Bi2 Cs5 4.159823 1_655
Bi2 Cs1 4.171267 1_655
Bi2 Cs1 4.171267 1_555
Bi3 Ga1 2.733447 1_555
Bi3 Rb1 3.804689 1_545
Bi3 Cs9 3.881599 1_555
Bi3 Rb0 3.897486 1_555
Bi3 Rb0 3.897486 1_455
Bi3 Cs1 4.076366 1_545
Bi3 Cs5 4.133246 1_555
Bi3 Cs4 4.159823 1_555
Bi3 Cs4 4.159823 1_455
Bi3 Cs0 4.171267 1_555
Bi3 Cs0 4.171267 1_455
Bi4 Ga0 2.789891 1_555
Bi4 Rb0 3.857852 1_565
Bi4 Cs3 3.951865 1_556
Bi4 Cs3 3.951865 1_656
Bi4 Cs2 4.060845 1_565
Bi4 Cs1 4.131268 1_655
Bi4 Cs1 4.131268 1_555
Bi4 Cs6 4.407366 1_556
Bi4 Cs7 4.475877 1_555
Bi4 Cs7 4.475877 1_655
Bi4 Cs8 4.533772 1_556
Bi5 Ga1 2.789891 1_555
Bi5 Rb1 3.857852 1_545
Bi5 Cs2 3.951865 1_554
Bi5 Cs2 3.951865 1_454
Bi5 Cs3 4.060845 1_545
Bi5 Cs0 4.131268 1_455
Bi5 Cs0 4.131268 1_555
Bi5 Cs7 4.407366 1_554
Bi5 Cs6 4.475877 1_455
Bi5 Cs6 4.475877 1_555
Bi5 Cs9 4.533772 1_554
