# generated using pymatgen
data_Sm3Sb5O12
_symmetry_space_group_name_H-M   'P 1'
_cell_length_a   9.45650663
_cell_length_b   9.45650686
_cell_length_c   9.45650789
_cell_angle_alpha   109.47120317
_cell_angle_beta   109.47120394
_cell_angle_gamma   109.47120253
_symmetry_Int_Tables_number   1
_chemical_formula_structural   Sm3Sb5O12
_chemical_formula_sum   'Sm6 Sb10 O24'
_cell_volume   650.98450551
_cell_formula_units_Z   2
loop_
 _symmetry_equiv_pos_site_id
 _symmetry_equiv_pos_as_xyz
  1  'x, y, z'
loop_
 _atom_site_type_symbol
 _atom_site_label
 _atom_site_symmetry_multiplicity
 _atom_site_fract_x
 _atom_site_fract_y
 _atom_site_fract_z
 _atom_site_occupancy
  Sm  Sm0  1  0.74999879  0.49999878  0.24999921  1
  Sm  Sm1  1  0.24999923  0.74999899  0.49999905  1
  Sm  Sm2  1  0.74999882  0.24999917  0.49999879  1
  Sm  Sm3  1  0.49999906  0.24999925  0.74999909  1
  Sm  Sm4  1  0.49999897  0.74999891  0.24999917  1
  Sm  Sm5  1  0.24999926  0.49999910  0.74999902  1
  Sb  Sb0  1  0.51109706  0.51109713  0.51109708  1
  Sb  Sb1  1  -0.00000041  0.48890324  -0.00000047  1
  Sb  Sb2  1  0.48890304  -0.00000064  -0.00000064  1
  Sb  Sb3  1  -0.00000066  -0.00000055  0.48890334  1
  Sb  Sb4  1  0.00000063  0.72037824  0.72037813  1
  Sb  Sb5  1  -0.00000031  0.27962195  0.27962209  1
  Sb  Sb6  1  0.27962183  -0.00000036  0.27962191  1
  Sb  Sb7  1  0.72037799  0.00000043  0.72037785  1
  Sb  Sb8  1  0.27962164  0.27962164  -0.00000053  1
  Sb  Sb9  1  0.72037806  0.72037790  0.00000056  1
  O  O0  1  0.52621309  0.00000094  0.80263733  1
  O  O1  1  0.19736277  0.19736289  0.72357489  1
  O  O2  1  0.00000093  0.80263733  0.52621327  1
  O  O3  1  0.27642493  0.47378782  0.47378781  1
  O  O4  1  0.80263732  0.52621313  0.00000092  1
  O  O5  1  0.47378793  0.27642508  0.47378784  1
  O  O6  1  0.19736284  0.72357485  0.19736292  1
  O  O7  1  0.52621307  0.80263726  0.00000093  1
  O  O8  1  0.47378790  0.47378787  0.27642502  1
  O  O9  1  0.00000099  0.52621322  0.80263737  1
  O  O10  1  0.72357464  0.19736285  0.19736286  1
  O  O11  1  0.80263716  0.00000088  0.52621318  1
  O  O12  1  0.49126380  -0.00000015  0.29309731  1
  O  O13  1  0.70690304  0.70690293  0.19816736  1
  O  O14  1  -0.00000016  0.29309733  0.49126394  1
  O  O15  1  0.80183369  0.50873653  0.50873645  1
  O  O16  1  0.29309726  -0.00000001  0.49126389  1
  O  O17  1  0.19816741  0.70690305  0.70690308  1
  O  O18  1  -0.00000014  0.49126385  0.29309739  1
  O  O19  1  0.50873633  0.50873631  0.80183361  1
  O  O20  1  0.49126369  0.29309722  -0.00000023  1
  O  O21  1  0.70690307  0.19816729  0.70690299  1
  O  O22  1  0.50873620  0.80183358  0.50873630  1
  O  O23  1  0.29309722  0.49126377  -0.00000005  1
loop_
_geom_bond_atom_site_label_1
_geom_bond_atom_site_label_2
_geom_bond_distance
_geom_bond_site_symmetry_2
O0 Sb2 2.011660 1_556
O0 Sb7 2.220057 1_555
O0 Sm3 2.644090 1_555
O0 Sm1 2.644112 1_545
O1 Sb3 2.011662 1_555
O1 Sb8 2.220061 1_556
O1 Sm5 2.644091 1_555
O1 Sm3 2.644092 1_555
O2 Sb3 2.011660 1_565
O2 Sb4 2.220054 1_555
O2 Sm1 2.644091 1_555
O2 Sm0 2.644114 1_455
O3 Sb0 2.011661 1_555
O3 Sb5 2.220065 1_555
O3 Sm1 2.644091 1_555
O3 Sm5 2.644091 1_555
O4 Sb1 2.011661 1_655
O4 Sb9 2.220054 1_555
O4 Sm0 2.644092 1_555
O4 Sm3 2.644111 1_554
O5 Sb0 2.011660 1_555
O5 Sb6 2.220067 1_555
O5 Sm2 2.644090 1_555
O5 Sm3 2.644093 1_555
O6 Sb1 2.011662 1_555
O6 Sb6 2.220062 1_565
O6 Sm1 2.644091 1_555
O6 Sm4 2.644091 1_555
O7 Sb2 2.011661 1_565
O7 Sb9 2.220056 1_555
O7 Sm4 2.644090 1_555
O7 Sm5 2.644111 1_554
O8 Sb0 2.011661 1_555
O8 Sb8 2.220069 1_555
O8 Sm0 2.644089 1_555
O8 Sm4 2.644091 1_555
O9 Sb1 2.011661 1_556
O9 Sb4 2.220056 1_555
O9 Sm5 2.644090 1_555
O9 Sm2 2.644114 1_455
O10 Sb2 2.011663 1_555
O10 Sb5 2.220064 1_655
O10 Sm0 2.644088 1_555
O10 Sm2 2.644089 1_555
O11 Sb3 2.011660 1_655
O11 Sb7 2.220053 1_555
O11 Sm2 2.644091 1_555
O11 Sm4 2.644112 1_545
O12 Sb6 1.962597 1_555
O12 Sm2 2.296150 1_555
O12 Sm4 2.296160 1_545
O13 Sb9 1.962597 1_555
O13 Sm4 2.296158 1_555
O13 Sm0 2.296158 1_555
O14 Sb5 1.962596 1_555
O14 Sm5 2.296151 1_555
O14 Sm2 2.296160 1_455
O15 Sb4 1.962599 1_655
O15 Sm0 2.296159 1_555
O15 Sm2 2.296161 1_555
O16 Sb6 1.962597 1_555
O16 Sm3 2.296151 1_555
O16 Sm1 2.296161 1_545
O17 Sb4 1.962598 1_555
O17 Sm5 2.296157 1_555
O17 Sm1 2.296157 1_555
O18 Sb5 1.962597 1_555
O18 Sm1 2.296151 1_555
O18 Sm0 2.296160 1_455
O19 Sb9 1.962598 1_556
O19 Sm3 2.296160 1_555
O19 Sm5 2.296160 1_555
O20 Sb8 1.962597 1_555
O20 Sm0 2.296151 1_555
O20 Sm3 2.296159 1_554
O21 Sb7 1.962597 1_555
O21 Sm3 2.296158 1_555
O21 Sm2 2.296158 1_555
O22 Sb7 1.962598 1_565
O22 Sm1 2.296159 1_555
O22 Sm4 2.296161 1_555
O23 Sb8 1.962597 1_555
O23 Sm4 2.296150 1_555
O23 Sm5 2.296161 1_554
