# generated using pymatgen
data_Ca5GeSb2
_symmetry_space_group_name_H-M   'P 1'
_cell_length_a   8.04344272
_cell_length_b   9.38719936
_cell_length_c   12.94703909
_cell_angle_alpha   90.00000000
_cell_angle_beta   90.00000000
_cell_angle_gamma   90.00000000
_symmetry_Int_Tables_number   1
_chemical_formula_structural   Ca5GeSb2
_chemical_formula_sum   'Ca20 Ge4 Sb8'
_cell_volume   977.57136972
_cell_formula_units_Z   4
loop_
 _symmetry_equiv_pos_site_id
 _symmetry_equiv_pos_as_xyz
  1  'x, y, z'
loop_
 _atom_site_type_symbol
 _atom_site_label
 _atom_site_symmetry_multiplicity
 _atom_site_fract_x
 _atom_site_fract_y
 _atom_site_fract_z
 _atom_site_occupancy
  Ca  Ca0  1  0.33381202  0.97524791  0.08416401  1
  Ca  Ca1  1  0.83381202  0.02475209  0.41583599  1
  Ca  Ca2  1  0.66618798  0.47524791  0.91583599  1
  Ca  Ca3  1  0.16618798  0.52475209  0.58416401  1
  Ca  Ca4  1  0.66618798  0.02475209  0.91583599  1
  Ca  Ca5  1  0.16618798  0.97524791  0.58416401  1
  Ca  Ca6  1  0.33381202  0.52475209  0.08416401  1
  Ca  Ca7  1  0.83381202  0.47524791  0.41583599  1
  Ca  Ca8  1  0.68013033  0.75000000  0.21462680  1
  Ca  Ca9  1  0.18013033  0.25000000  0.28537320  1
  Ca  Ca10  1  0.31986967  0.25000000  0.78537320  1
  Ca  Ca11  1  0.81986967  0.75000000  0.71462680  1
  Ca  Ca12  1  0.15716611  0.75000000  0.30788921  1
  Ca  Ca13  1  0.65716611  0.25000000  0.19211079  1
  Ca  Ca14  1  0.84283389  0.25000000  0.69211079  1
  Ca  Ca15  1  0.34283389  0.75000000  0.80788921  1
  Ca  Ca16  1  0.55331447  0.75000000  0.49974027  1
  Ca  Ca17  1  0.05331447  0.25000000  0.00025973  1
  Ca  Ca18  1  0.44668553  0.25000000  0.50025973  1
  Ca  Ca19  1  0.94668553  0.75000000  0.99974027  1
  Ge  Ge0  1  0.55212136  0.75000000  0.99461845  1
  Ge  Ge1  1  0.05212136  0.25000000  0.50538155  1
  Ge  Ge2  1  0.44787864  0.25000000  0.00538155  1
  Ge  Ge3  1  0.94787864  0.75000000  0.49461845  1
  Sb  Sb0  1  0.95687486  0.00504499  0.16986926  1
  Sb  Sb1  1  0.45687486  0.99495501  0.33013074  1
  Sb  Sb2  1  0.04312514  0.50504499  0.83013074  1
  Sb  Sb3  1  0.54312514  0.49495501  0.66986926  1
  Sb  Sb4  1  0.04312514  0.99495501  0.83013074  1
  Sb  Sb5  1  0.54312514  0.00504499  0.66986926  1
  Sb  Sb6  1  0.95687486  0.49495501  0.16986926  1
  Sb  Sb7  1  0.45687486  0.50504499  0.33013074  1
loop_
_geom_bond_atom_site_label_1
_geom_bond_atom_site_label_2
_geom_bond_distance
_geom_bond_site_symmetry_2
Ca0 Ge2 2.921337 1_565
Ca0 Ge0 2.983013 1_554
Ca0 Sb0 3.240643 1_465
Ca0 Sb1 3.339959 1_555
Ca1 Ge3 2.921337 1_545
Ca1 Ge1 2.983013 1_655
Ca1 Sb1 3.240643 1_545
Ca1 Sb0 3.339959 1_555
Ca2 Ge0 2.921337 1_555
Ca2 Ge2 2.983013 1_556
Ca2 Sb2 3.240643 1_655
Ca2 Sb3 3.339959 1_555
Ca3 Ge1 2.921337 1_555
Ca3 Ge3 2.983013 1_455
Ca3 Sb3 3.240643 1_555
Ca3 Sb2 3.339959 1_555
Ca4 Ge0 2.921337 1_545
Ca4 Ge2 2.983013 1_556
Ca4 Sb4 3.240643 1_645
Ca4 Sb5 3.339959 1_555
Ca5 Ge1 2.921337 1_565
Ca5 Ge3 2.983013 1_455
Ca5 Sb5 3.240643 1_565
Ca5 Sb4 3.339959 1_555
Ca6 Ge2 2.921337 1_555
Ca6 Ge0 2.983013 1_554
Ca6 Sb6 3.240643 1_455
Ca6 Sb7 3.339959 1_555
Ca7 Ge3 2.921337 1_555
Ca7 Ge1 2.983013 1_655
Ca7 Sb7 3.240643 1_555
Ca7 Sb6 3.339959 1_555
Ca8 Ge0 3.028836 1_554
Ca8 Sb1 3.278482 1_555
Ca8 Sb7 3.278482 1_555
Ca8 Sb0 3.320056 1_565
Ca8 Sb6 3.320056 1_555
Ca9 Ge1 3.028836 1_555
Ca9 Sb6 3.278482 1_455
Ca9 Sb0 3.278482 1_455
Ca9 Sb7 3.320056 1_555
Ca9 Sb1 3.320056 1_545
Ca10 Ge2 3.028836 1_556
Ca10 Sb3 3.278482 1_555
Ca10 Sb5 3.278482 1_555
Ca10 Sb2 3.320056 1_555
Ca10 Sb4 3.320056 1_545
Ca11 Ge3 3.028836 1_555
Ca11 Sb4 3.278482 1_655
Ca11 Sb2 3.278482 1_655
Ca11 Sb5 3.320056 1_565
Ca11 Sb3 3.320056 1_555
Ca12 Ge3 2.945938 1_455
Ca12 Sb1 3.343917 1_555
Ca12 Sb7 3.343917 1_555
Ca12 Sb0 3.394202 1_465
Ca12 Sb6 3.394202 1_455
Ca13 Ge2 2.945938 1_555
Ca13 Sb6 3.343917 1_555
Ca13 Sb0 3.343917 1_555
Ca13 Sb7 3.394202 1_555
Ca13 Sb1 3.394202 1_545
Ca14 Ge1 2.945938 1_655
Ca14 Sb3 3.343917 1_555
Ca14 Sb5 3.343917 1_555
Ca14 Sb2 3.394202 1_655
Ca14 Sb4 3.394202 1_645
Ca15 Ge0 2.945938 1_555
Ca15 Sb4 3.343917 1_555
Ca15 Sb2 3.343917 1_555
Ca15 Sb5 3.394202 1_565
Ca15 Sb3 3.394202 1_555
Ca16 Ge3 3.174347 1_555
Ca16 Sb5 3.254297 1_565
Ca16 Sb3 3.254297 1_555
Ca16 Sb1 3.272814 1_555
Ca16 Sb7 3.272814 1_555
Ca17 Ge2 3.174347 1_555
Ca17 Sb2 3.254297 1_554
Ca17 Sb4 3.254297 1_544
Ca17 Sb6 3.272814 1_455
Ca17 Sb0 3.272814 1_455
Ca18 Ge1 3.174347 1_555
Ca18 Sb7 3.254297 1_555
Ca18 Sb1 3.254297 1_545
Ca18 Sb3 3.272814 1_555
Ca18 Sb5 3.272814 1_555
Ca19 Ge0 3.174347 1_555
Ca19 Sb0 3.254297 1_566
Ca19 Sb6 3.254297 1_556
Ca19 Sb4 3.272814 1_655
Ca19 Sb2 3.272814 1_655
