# generated using pymatgen
data_Hf12TaAl4Rh7
_symmetry_space_group_name_H-M   'P 1'
_cell_length_a   8.49429385
_cell_length_b   8.49429326
_cell_length_c   8.49429393
_cell_angle_alpha   59.81049149
_cell_angle_beta   59.81049580
_cell_angle_gamma   59.81049834
_symmetry_Int_Tables_number   1
_chemical_formula_structural   Hf12TaAl4Rh7
_chemical_formula_sum   'Hf12 Ta1 Al4 Rh7'
_cell_volume   431.51372139
_cell_formula_units_Z   1
loop_
 _symmetry_equiv_pos_site_id
 _symmetry_equiv_pos_as_xyz
  1  'x, y, z'
loop_
 _atom_site_type_symbol
 _atom_site_label
 _atom_site_symmetry_multiplicity
 _atom_site_fract_x
 _atom_site_fract_y
 _atom_site_fract_z
 _atom_site_occupancy
  Hf  Hf0  1  0.80564823  0.80564823  0.18711794  1
  Hf  Hf1  1  0.19317583  0.19317583  0.80689391  1
  Hf  Hf2  1  0.80564823  0.18711794  0.80564823  1
  Hf  Hf3  1  0.19317583  0.80689391  0.19317583  1
  Hf  Hf4  1  0.18711794  0.80564823  0.80564823  1
  Hf  Hf5  1  0.80689391  0.19317583  0.19317583  1
  Hf  Hf6  1  0.44521182  0.44521182  0.05438133  1
  Hf  Hf7  1  0.05854973  0.05854973  0.44366907  1
  Hf  Hf8  1  0.44521182  0.05438133  0.44521182  1
  Hf  Hf9  1  0.05854973  0.44366907  0.05854973  1
  Hf  Hf10  1  0.05438133  0.44521182  0.44521182  1
  Hf  Hf11  1  0.44366907  0.05854973  0.05854973  1
  Ta  Ta0  1  0.82852644  0.82852644  0.82852644  1
  Al  Al0  1  0.14088503  0.61726914  0.61726914  1
  Al  Al1  1  0.61726914  0.14088503  0.61726914  1
  Al  Al2  1  0.61726914  0.61726914  0.14088503  1
  Al  Al3  1  0.62774642  0.62774642  0.62774642  1
  Rh  Rh0  1  0.76897077  0.41423146  0.41423146  1
  Rh  Rh1  1  0.41423146  0.76897077  0.41423146  1
  Rh  Rh2  1  0.41423146  0.41423146  0.76897077  1
  Rh  Rh3  1  0.40948300  0.40948300  0.40948300  1
  Rh  Rh4  1  0.47996896  0.84209137  0.84209137  1
  Rh  Rh5  1  0.84209137  0.47996896  0.84209137  1
  Rh  Rh6  1  0.84209137  0.84209137  0.47996896  1
loop_
_geom_bond_atom_site_label_1
_geom_bond_atom_site_label_2
_geom_bond_distance
_geom_bond_site_symmetry_2
Hf0 Rh6 2.832826 1_555
Hf0 Ta0 2.863715 1_554
Hf0 Rh0 2.976505 1_555
Hf0 Rh1 2.976505 1_555
Hf0 Hf9 3.104232 1_655
Hf0 Hf11 3.104232 1_565
Hf0 Hf10 3.169573 1_655
Hf0 Hf8 3.169573 1_565
Hf0 Hf2 3.231030 1_564
Hf0 Hf4 3.231030 1_654
Hf0 Hf5 3.323321 1_565
Hf0 Hf3 3.323321 1_655
Hf1 Rh4 2.728887 1_545
Hf1 Rh5 2.728887 1_455
Hf1 Rh3 3.011104 1_555
Hf1 Rh2 3.079722 1_555
Hf1 Hf10 3.146637 1_555
Hf1 Hf8 3.146637 1_555
Hf1 Hf9 3.173858 1_556
Hf1 Hf11 3.173858 1_556
Hf1 Hf3 3.271789 1_546
Hf1 Hf5 3.271789 1_456
Hf1 Hf4 3.323321 1_545
Hf1 Hf2 3.323321 1_455
Hf2 Rh5 2.832826 1_555
Hf2 Ta0 2.863715 1_545
Hf2 Rh0 2.976505 1_555
Hf2 Rh2 2.976505 1_555
Hf2 Hf7 3.104232 1_655
Hf2 Hf6 3.169573 1_556
Hf2 Hf4 3.231030 1_645
Hf2 Hf5 3.323321 1_556
Hf3 Rh4 2.728887 1_554
Hf3 Rh6 2.728887 1_455
Hf3 Rh3 3.011104 1_555
Hf3 Rh1 3.079722 1_555
Hf3 Hf6 3.146637 1_555
Hf3 Hf7 3.173858 1_565
Hf3 Hf5 3.271789 1_465
Hf3 Hf4 3.323321 1_554
Hf4 Rh4 2.832826 1_555
Hf4 Ta0 2.863715 1_455
Hf4 Rh2 2.976505 1_555
Hf4 Rh1 2.976505 1_555
Hf4 Hf9 3.104232 1_556
Hf4 Hf7 3.104232 1_565
Hf4 Hf8 3.169572 1_565
Hf4 Hf6 3.169573 1_556
Hf5 Rh6 2.728887 1_545
Hf5 Rh5 2.728887 1_554
Hf5 Rh3 3.011104 1_555
Hf5 Rh0 3.079722 1_555
Hf5 Hf8 3.146637 1_555
Hf5 Hf6 3.146637 1_555
Hf5 Hf9 3.173858 1_655
Hf5 Hf7 3.173858 1_655
Hf6 Rh2 2.714581 1_554
Hf6 Rh3 2.744777 1_555
Hf6 Rh4 3.009249 1_554
Hf6 Rh5 3.009250 1_554
Hf6 Hf9 3.273333 1_555
Hf6 Hf8 3.310315 1_555
Hf7 Rh0 2.761463 1_455
Hf7 Rh1 2.761463 1_545
Hf7 Rh6 3.019285 1_445
Hf7 Ta0 3.051858 1_445
Hf7 Hf9 3.261942 1_555
Hf7 Hf8 3.273333 1_555
Hf8 Rh1 2.714581 1_545
Hf8 Rh3 2.744777 1_555
Hf8 Rh4 3.009250 1_545
Hf8 Rh6 3.009250 1_545
Hf9 Rh0 2.761463 1_455
Hf9 Rh2 2.761463 1_554
Hf9 Rh5 3.019285 1_454
Hf9 Ta0 3.051858 1_454
Hf10 Rh0 2.714581 1_455
Hf10 Rh3 2.744777 1_555
Hf10 Rh6 3.009250 1_455
Hf10 Rh5 3.009250 1_455
Hf10 Hf3 3.146637 1_555
Hf10 Hf2 3.169572 1_455
Hf10 Hf7 3.273333 1_555
Hf10 Hf9 3.273333 1_555
Hf10 Hf8 3.310315 1_555
Hf10 Hf6 3.310315 1_555
Hf11 Rh2 2.761463 1_554
Hf11 Rh1 2.761463 1_545
Hf11 Rh4 3.019285 1_544
Hf11 Ta0 3.051858 1_544
Hf11 Hf2 3.104232 1_554
Hf11 Hf3 3.173858 1_545
Hf11 Hf9 3.261942 1_555
Hf11 Hf7 3.261942 1_555
Hf11 Hf6 3.273333 1_555
Hf11 Hf8 3.273333 1_555
Al0 Rh3 2.543421 1_555
Al0 Rh1 2.602440 1_555
Al0 Rh2 2.602440 1_555
Al0 Ta0 2.672409 1_455
Al0 Rh5 2.703916 1_455
Al0 Rh6 2.703916 1_455
Al0 Hf1 3.007237 1_555
Al0 Hf3 3.007237 1_555
Al0 Hf4 3.018989 1_555
Al0 Hf10 3.019970 1_555
Al0 Hf7 3.091201 1_565
Al0 Hf9 3.091201 1_556
Al1 Rh3 2.543420 1_555
Al1 Rh0 2.602440 1_555
Al1 Rh2 2.602440 1_555
Al1 Ta0 2.672409 1_545
Al1 Rh4 2.703915 1_545
Al1 Rh6 2.703916 1_545
Al1 Hf5 3.007237 1_555
Al1 Hf1 3.007237 1_555
Al1 Hf2 3.018989 1_555
Al1 Hf8 3.019970 1_555
Al1 Hf11 3.091201 1_556
Al1 Hf7 3.091202 1_655
Al2 Rh3 2.543420 1_555
Al2 Rh0 2.602440 1_555
Al2 Rh1 2.602440 1_555
Al2 Ta0 2.672409 1_554
Al2 Rh4 2.703916 1_554
Al2 Rh5 2.703916 1_554
Al2 Hf5 3.007237 1_555
Al2 Hf3 3.007237 1_555
Al2 Hf0 3.018989 1_555
Al2 Hf6 3.019970 1_555
Al2 Hf11 3.091201 1_565
Al2 Hf9 3.091202 1_655
Al3 Rh6 2.634862 1_555
Al3 Rh5 2.634863 1_555
Al3 Rh4 2.634863 1_555
Al3 Rh2 2.636229 1_555
Al3 Rh1 2.636229 1_555
Al3 Rh0 2.636229 1_555
Al3 Hf8 3.009450 1_565
Al3 Hf6 3.009451 1_556
Al3 Hf10 3.009451 1_655
Al3 Hf2 3.081536 1_555
Al3 Hf0 3.081536 1_555
Al3 Hf4 3.081536 1_555
Rh0 Rh1 3.004625 1_555
Rh0 Rh2 3.004625 1_555
Rh0 Rh3 3.094685 1_555
Rh1 Rh2 3.004624 1_555
Rh1 Rh3 3.094684 1_555
Rh2 Rh3 3.094685 1_555
Rh4 Ta0 2.849515 1_555
Rh4 Rh5 3.067159 1_555
Rh4 Rh6 3.067159 1_555
Rh5 Ta0 2.849515 1_555
Rh5 Rh6 3.067159 1_555
Rh6 Ta0 2.849515 1_555
