# generated using pymatgen
data_Zr6Sc7Al9Ir7
_symmetry_space_group_name_H-M   'P 1'
_cell_length_a   9.03903986
_cell_length_b   9.03903926
_cell_length_c   9.03903929
_cell_angle_alpha   59.50437461
_cell_angle_beta   59.50437930
_cell_angle_gamma   59.50437896
_symmetry_Int_Tables_number   1
_chemical_formula_structural   Zr6Sc7Al9Ir7
_chemical_formula_sum   'Zr6 Sc7 Al9 Ir7'
_cell_volume   516.33184403
_cell_formula_units_Z   1
loop_
 _symmetry_equiv_pos_site_id
 _symmetry_equiv_pos_as_xyz
  1  'x, y, z'
loop_
 _atom_site_type_symbol
 _atom_site_label
 _atom_site_symmetry_multiplicity
 _atom_site_fract_x
 _atom_site_fract_y
 _atom_site_fract_z
 _atom_site_occupancy
  Zr  Zr0  1  0.67720038  0.67720038  0.32502393  1
  Zr  Zr1  1  0.31835247  0.68743968  0.31835247  1
  Zr  Zr2  1  0.68743968  0.31835247  0.31835247  1
  Zr  Zr3  1  0.31835247  0.31835247  0.68743968  1
  Zr  Zr4  1  0.67720038  0.32502393  0.67720038  1
  Zr  Zr5  1  0.32502393  0.67720038  0.67720038  1
  Sc  Sc0  1  0.88025633  0.88025633  0.36533012  1
  Sc  Sc1  1  0.88025633  0.36533012  0.88025633  1
  Sc  Sc2  1  0.36533012  0.88025633  0.88025633  1
  Sc  Sc3  1  0.87706206  0.87706206  0.87706206  1
  Sc  Sc4  1  0.12185694  0.12185694  0.63188378  1
  Sc  Sc5  1  0.12185694  0.63188378  0.12185694  1
  Sc  Sc6  1  0.63188378  0.12185694  0.12185694  1
  Al  Al0  1  0.12054578  0.12054578  0.12054578  1
  Al  Al1  1  0.66164675  0.66164675  0.01541579  1
  Al  Al2  1  0.66164675  0.01541579  0.66164675  1
  Al  Al3  1  0.01541579  0.66164675  0.66164675  1
  Al  Al4  1  0.66259642  0.66259642  0.66259642  1
  Al  Al5  1  0.33297373  0.33297373  0.99047090  1
  Al  Al6  1  0.33297373  0.99047090  0.33297373  1
  Al  Al7  1  0.99047090  0.33297373  0.33297373  1
  Al  Al8  1  0.34058760  0.34058760  0.34058760  1
  Ir  Ir0  1  0.00220234  0.00220234  0.00220234  1
  Ir  Ir1  1  0.00048682  0.00048682  0.49727202  1
  Ir  Ir2  1  0.49980901  0.99900071  0.49980901  1
  Ir  Ir3  1  0.99900071  0.49980901  0.49980901  1
  Ir  Ir4  1  0.49980901  0.49980901  0.99900071  1
  Ir  Ir5  1  0.00048682  0.49727202  0.00048682  1
  Ir  Ir6  1  0.49727202  0.00048682  0.00048682  1
loop_
_geom_bond_atom_site_label_1
_geom_bond_atom_site_label_2
_geom_bond_distance
_geom_bond_site_symmetry_2
Zr0 Zr4 3.159460 1_555
Zr0 Zr5 3.159460 1_555
Zr0 Zr2 3.228246 1_555
Zr0 Zr1 3.228246 1_555
Zr1 Zr5 3.228246 1_555
Zr1 Zr3 3.311170 1_555
Zr1 Zr2 3.311170 1_555
Zr2 Zr4 3.228246 1_555
Zr2 Zr3 3.311170 1_555
Zr3 Zr5 3.228246 1_555
Zr3 Zr4 3.228246 1_555
Zr4 Zr5 3.159460 1_555
Sc0 Sc6 3.132632 1_565
Sc0 Sc5 3.132632 1_655
Sc0 Zr2 3.307397 1_565
Sc0 Zr1 3.307398 1_655
Sc0 Zr0 3.412754 1_555
Sc1 Sc6 3.132632 1_556
Sc1 Sc4 3.132632 1_655
Sc1 Zr2 3.307397 1_556
Sc1 Zr3 3.307398 1_655
Sc1 Zr4 3.412754 1_555
Sc2 Sc4 3.132632 1_565
Sc2 Sc5 3.132632 1_556
Sc2 Zr3 3.307397 1_565
Sc2 Zr1 3.307397 1_556
Sc2 Zr5 3.412754 1_555
Sc3 Sc5 3.117497 1_656
Sc3 Sc4 3.117497 1_665
Sc3 Sc6 3.117497 1_566
Sc3 Zr4 3.374408 1_565
Sc3 Zr0 3.374408 1_556
Sc3 Zr5 3.374408 1_655
Sc4 Zr5 3.360933 1_545
Sc4 Zr4 3.360933 1_455
Sc4 Zr3 3.402022 1_555
Sc5 Zr5 3.360933 1_554
Sc5 Zr0 3.360933 1_455
Sc5 Zr1 3.402022 1_555
Sc6 Zr0 3.360933 1_545
Sc6 Zr4 3.360933 1_554
Sc6 Zr2 3.402022 1_555
Al0 Ir0 2.630018 1_555
Al0 Ir5 2.764970 1_555
Al0 Ir1 2.764970 1_555
Al0 Ir6 2.764970 1_555
Al0 Al6 2.813477 1_545
Al0 Al5 2.813477 1_554
Al0 Al7 2.813477 1_455
Al0 Sc1 3.059992 1_454
Al0 Sc0 3.059992 1_445
Al0 Sc2 3.059993 1_544
Al0 Zr1 3.279625 1_545
Al0 Zr3 3.279625 1_554
Al0 Zr2 3.279625 1_455
Al1 Ir6 2.602268 1_565
Al1 Ir5 2.602268 1_655
Al1 Ir4 2.629534 1_554
Al1 Sc3 2.837577 1_554
Al1 Sc1 2.840845 1_554
Al1 Sc2 2.840845 1_554
Al1 Zr2 2.910510 1_555
Al1 Zr1 2.910511 1_555
Al1 Zr0 2.947913 1_555
Al2 Ir6 2.602268 1_556
Al2 Ir1 2.602268 1_655
Al2 Ir2 2.629534 1_545
Al2 Sc3 2.837577 1_545
Al2 Sc0 2.840845 1_545
Al2 Sc2 2.840845 1_545
Al2 Zr2 2.910510 1_555
Al2 Zr3 2.910511 1_555
Al2 Zr4 2.947913 1_555
Al3 Ir1 2.602268 1_565
Al3 Ir5 2.602268 1_556
Al3 Ir3 2.629534 1_455
Al3 Sc3 2.837577 1_455
Al3 Sc0 2.840845 1_455
Al3 Sc1 2.840845 1_455
Al3 Zr3 2.910511 1_555
Al3 Zr1 2.910511 1_555
Al3 Zr5 2.947913 1_555
Al4 Ir2 2.586832 1_555
Al4 Ir4 2.586832 1_555
Al4 Ir3 2.586832 1_555
Al4 Sc1 2.856435 1_555
Al4 Sc0 2.856435 1_555
Al4 Sc2 2.856435 1_555
Al4 Zr4 2.923274 1_555
Al4 Zr0 2.923274 1_555
Al4 Zr5 2.923274 1_555
Al5 Ir6 2.564422 1_556
Al5 Ir5 2.564422 1_556
Al5 Ir4 2.664286 1_555
Al5 Sc5 2.841753 1_556
Al5 Sc6 2.841753 1_556
Al5 Zr3 2.879275 1_555
Al5 Zr5 2.956694 1_555
Al5 Zr4 2.956694 1_555
Al6 Ir6 2.564422 1_565
Al6 Ir1 2.564422 1_565
Al6 Ir2 2.664286 1_555
Al6 Sc4 2.841753 1_565
Al6 Sc6 2.841753 1_565
Al6 Zr1 2.879275 1_555
Al6 Zr5 2.956694 1_555
Al6 Zr0 2.956694 1_555
Al7 Ir1 2.564422 1_655
Al7 Ir5 2.564422 1_655
Al7 Ir3 2.664286 1_555
Al7 Sc4 2.841753 1_655
Al7 Sc5 2.841753 1_655
Al7 Zr2 2.879275 1_555
Al7 Zr0 2.956694 1_555
Al7 Zr4 2.956694 1_555
Al8 Ir2 2.599620 1_545
Al8 Ir4 2.599620 1_554
Al8 Ir3 2.599621 1_455
Al8 Sc5 2.854999 1_555
Al8 Sc4 2.854999 1_555
Al8 Sc6 2.854999 1_555
Al8 Zr1 2.944866 1_555
Al8 Zr3 2.944866 1_555
Al8 Zr2 2.944866 1_555
Ir0 Sc1 2.663205 1_454
Ir0 Sc0 2.663205 1_445
Ir0 Sc2 2.663205 1_544
Ir0 Sc5 2.717076 1_545
Ir0 Sc4 2.717076 1_554
Ir0 Sc6 2.717076 1_455
Ir0 Sc3 2.781068 1_444
Ir1 Sc0 2.759378 1_445
Ir1 Sc3 2.786269 1_445
Ir1 Sc4 2.796215 1_555
Ir1 Zr2 3.248780 1_455
Ir1 Zr1 3.248780 1_545
Ir1 Zr5 3.332877 1_545
Ir1 Zr4 3.332877 1_455
Ir2 Sc6 2.772234 1_565
Ir2 Sc4 2.772234 1_565
Ir2 Sc2 2.791210 1_555
Ir2 Sc0 2.791210 1_555
Ir2 Zr5 3.299596 1_555
Ir2 Zr0 3.299596 1_555
Ir2 Zr2 3.352531 1_565
Ir2 Zr3 3.352531 1_565
Ir3 Sc4 2.772234 1_655
Ir3 Sc5 2.772234 1_655
Ir3 Sc0 2.791210 1_555
Ir3 Sc1 2.791210 1_555
Ir3 Zr0 3.299596 1_555
Ir3 Zr4 3.299596 1_555
Ir3 Zr3 3.352531 1_655
Ir3 Zr1 3.352531 1_655
Ir4 Sc6 2.772234 1_556
Ir4 Sc5 2.772234 1_556
Ir4 Sc2 2.791210 1_555
Ir4 Sc1 2.791210 1_555
Ir4 Zr5 3.299596 1_555
Ir4 Zr4 3.299596 1_555
Ir4 Zr2 3.352531 1_556
Ir4 Zr1 3.352531 1_556
Ir5 Sc1 2.759378 1_454
Ir5 Sc3 2.786269 1_454
Ir5 Sc5 2.796215 1_555
Ir5 Zr2 3.248780 1_455
Ir5 Zr3 3.248780 1_554
Ir5 Zr5 3.332877 1_554
Ir5 Zr0 3.332877 1_455
Ir6 Sc2 2.759378 1_544
Ir6 Sc3 2.786269 1_544
Ir6 Sc6 2.796215 1_555
Ir6 Zr3 3.248780 1_554
Ir6 Zr1 3.248780 1_545
Ir6 Zr0 3.332877 1_545
Ir6 Zr4 3.332877 1_554
