# generated using pymatgen
data_BaCaHgAs2
_symmetry_space_group_name_H-M   'P 1'
_cell_length_a   9.22894588
_cell_length_b   9.22894528
_cell_length_c   7.16494561
_cell_angle_alpha   90.00000000
_cell_angle_beta   90.00000000
_cell_angle_gamma   152.07698532
_symmetry_Int_Tables_number   1
_chemical_formula_structural   BaCaHgAs2
_chemical_formula_sum   'Ba2 Ca2 Hg2 As4'
_cell_volume   285.77688675
_cell_formula_units_Z   2
loop_
 _symmetry_equiv_pos_site_id
 _symmetry_equiv_pos_as_xyz
  1  'x, y, z'
loop_
 _atom_site_type_symbol
 _atom_site_label
 _atom_site_symmetry_multiplicity
 _atom_site_fract_x
 _atom_site_fract_y
 _atom_site_fract_z
 _atom_site_occupancy
  Ba  Ba0  1  0.30254778  0.69745222  0.95326337  1
  Ba  Ba1  1  0.69745222  0.30254778  0.45326337  1
  Ca  Ca0  1  0.47522879  0.52477121  0.27185430  1
  Ca  Ca1  1  0.52477121  0.47522879  0.77185430  1
  Hg  Hg0  1  0.09686091  0.90313909  0.10477095  1
  Hg  Hg1  1  0.90313909  0.09686091  0.60477095  1
  As  As0  1  0.05615517  0.94384483  0.48432757  1
  As  As1  1  0.94384483  0.05615517  0.98432757  1
  As  As2  1  0.33261539  0.66738461  0.48133381  1
  As  As3  1  0.66738461  0.33261539  0.98133381  1
loop_
_geom_bond_atom_site_label_1
_geom_bond_atom_site_label_2
_geom_bond_distance
_geom_bond_site_symmetry_2
Ba0 Hg1 3.799918 1_455
Ba0 Hg1 3.799918 1_565
Ba0 Hg0 3.840979 1_556
Ba1 Hg0 3.799918 1_655
Ba1 Hg0 3.799918 1_545
Ba1 Hg1 3.840979 1_555
Ca0 Hg0 3.337386 1_545
Ca0 Hg0 3.337386 1_655
Ca0 Hg1 3.509322 1_565
Ca0 Hg1 3.509322 1_455
Ca1 Hg1 3.337386 1_565
Ca1 Hg1 3.337386 1_455
Ca1 Hg0 3.509322 1_546
Ca1 Hg0 3.509322 1_656
As0 Hg0 2.815555 1_555
As0 Hg1 2.873560 1_465
As0 Ca0 3.062184 1_565
As0 Ca0 3.062185 1_455
As0 Ca1 3.085150 1_565
As0 Ca1 3.085150 1_455
As0 Ba1 3.378393 1_455
As0 Ba1 3.378394 1_565
As1 Hg1 2.815555 1_555
As1 Hg0 2.873560 1_646
As1 Ca1 3.062184 1_545
As1 Ca1 3.062185 1_655
As1 Ca0 3.085150 1_546
As1 Ca0 3.085150 1_656
As1 Ba0 3.378393 1_655
As1 Ba0 3.378394 1_545
As2 Hg1 2.708520 1_455
As2 Hg1 2.708520 1_565
As2 Ca0 2.962870 1_555
As2 Ba1 3.295503 1_565
As2 Ba1 3.295504 1_455
As2 Ba0 3.423975 1_555
As2 Ba0 3.821737 1_554
As3 Hg0 2.708520 1_656
As3 Hg0 2.708520 1_546
As3 Ca1 2.962870 1_555
As3 Ba0 3.295503 1_545
As3 Ba0 3.295504 1_655
As3 Ba1 3.423975 1_556
As3 Ba1 3.821737 1_555
