# generated using pymatgen
data_YZnIO6
_symmetry_space_group_name_H-M   'P 1'
_cell_length_a   5.18026042
_cell_length_b   5.18026071
_cell_length_c   4.81752534
_cell_angle_alpha   90.00000000
_cell_angle_beta   90.00000000
_cell_angle_gamma   120.00000427
_symmetry_Int_Tables_number   1
_chemical_formula_structural   YZnIO6
_chemical_formula_sum   'Y1 Zn1 I1 O6'
_cell_volume   111.95869591
_cell_formula_units_Z   1
loop_
 _symmetry_equiv_pos_site_id
 _symmetry_equiv_pos_as_xyz
  1  'x, y, z'
loop_
 _atom_site_type_symbol
 _atom_site_label
 _atom_site_symmetry_multiplicity
 _atom_site_fract_x
 _atom_site_fract_y
 _atom_site_fract_z
 _atom_site_occupancy
  Y  Y0  1  0.66666700  0.33333300  0.00000000  1
  Zn  Zn0  1  0.00000000  0.00000000  0.50000100  1
  I  I0  1  0.33333300  0.66666600  0.50000100  1
  O  O0  1  0.32478974  0.36414158  0.27913771  1
  O  O1  1  0.03935284  0.67520926  0.27913771  1
  O  O2  1  0.63585642  0.96064716  0.27913771  1
  O  O3  1  0.03935184  0.36414158  0.72086129  1
  O  O4  1  0.63585742  0.67520926  0.72086129  1
  O  O5  1  0.32478974  0.96064716  0.72086129  1
loop_
_geom_bond_atom_site_label_1
_geom_bond_atom_site_label_2
_geom_bond_distance
_geom_bond_site_symmetry_2
I0 O3 1.876346 1_555
I0 O4 1.876346 1_555
I0 O5 1.876346 1_555
I0 O1 1.876350 1_555
I0 O2 1.876352 1_555
I0 O0 1.876354 1_555
O0 Zn0 2.085055 1_555
O0 Y0 2.291935 1_555
O1 Zn0 2.085062 1_565
O1 Y0 2.291933 1_455
O2 Zn0 2.085062 1_665
O2 Y0 2.291932 1_565
O3 Zn0 2.085048 1_555
O3 Y0 2.291934 1_456
O4 Zn0 2.085052 1_665
O4 Y0 2.291936 1_556
O5 Zn0 2.085050 1_565
O5 Y0 2.291938 1_566
