# generated using pymatgen
data_LuZr11(TcIr)6
_symmetry_space_group_name_H-M   'P 1'
_cell_length_a   4.63999267
_cell_length_b   6.57081838
_cell_length_c   13.92376915
_cell_angle_alpha   90.00000000
_cell_angle_beta   89.99994273
_cell_angle_gamma   90.00000000
_symmetry_Int_Tables_number   1
_chemical_formula_structural   LuZr11(TcIr)6
_chemical_formula_sum   'Lu1 Zr11 Tc6 Ir6'
_cell_volume   424.51551935
_cell_formula_units_Z   1
loop_
 _symmetry_equiv_pos_site_id
 _symmetry_equiv_pos_as_xyz
  1  'x, y, z'
loop_
 _atom_site_type_symbol
 _atom_site_label
 _atom_site_symmetry_multiplicity
 _atom_site_fract_x
 _atom_site_fract_y
 _atom_site_fract_z
 _atom_site_occupancy
  Lu  Lu0  1  0.50000000  0.24875957  0.00000000  1
  Zr  Zr0  1  0.50000000  0.74938234  0.00000000  1
  Zr  Zr1  1  0.99999473  0.24997713  0.16610116  1
  Zr  Zr2  1  0.99999335  0.74987358  0.16652780  1
  Zr  Zr3  1  0.49999502  0.25080830  0.33329719  1
  Zr  Zr4  1  0.49999662  0.75035072  0.33347993  1
  Zr  Zr5  1  0.00000000  0.25008776  0.50000000  1
  Zr  Zr6  1  0.00000000  0.75041230  0.50000000  1
  Zr  Zr7  1  0.50000498  0.25080830  0.66670181  1
  Zr  Zr8  1  0.50000338  0.75035072  0.66651907  1
  Zr  Zr9  1  0.00000527  0.24997713  0.83389884  1
  Zr  Zr10  1  0.00000665  0.74987358  0.83347220  1
  Tc  Tc0  1  0.00000000  0.99280755  0.00000000  1
  Tc  Tc1  1  0.49999562  0.50248802  0.16968129  1
  Tc  Tc2  1  0.99999696  0.00070738  0.33396650  1
  Tc  Tc3  1  0.50000000  0.50018696  0.50000000  1
  Tc  Tc4  1  0.00000304  0.00070738  0.66603350  1
  Tc  Tc5  1  0.50000438  0.50248802  0.83031871  1
  Ir  Ir0  1  0.00000000  0.50263745  0.00000000  1
  Ir  Ir1  1  0.49999361  0.99827007  0.16887576  1
  Ir  Ir2  1  0.99999437  0.50007800  0.33395259  1
  Ir  Ir3  1  0.50000000  0.00062167  0.50000000  1
  Ir  Ir4  1  0.00000563  0.50007800  0.66604741  1
  Ir  Ir5  1  0.50000639  0.99827007  0.83112424  1
loop_
_geom_bond_atom_site_label_1
_geom_bond_atom_site_label_2
_geom_bond_distance
_geom_bond_site_symmetry_2
Lu0 Tc0 2.865464 1_545
Lu0 Tc0 2.865464 1_645
Lu0 Tc1 2.891619 1_555
Lu0 Tc5 2.891619 1_554
Tc0 Zr10 2.815038 1_554
Tc0 Zr2 2.815038 1_455
Tc0 Zr0 2.817941 1_555
Tc0 Zr0 2.817941 1_455
Tc0 Zr1 2.864316 1_465
Tc0 Zr9 2.864316 1_564
Tc1 Zr4 2.802517 1_555
Tc1 Zr3 2.815107 1_555
Tc1 Zr2 2.833125 1_555
Tc1 Zr2 2.833142 1_455
Tc1 Zr1 2.852684 1_555
Tc1 Zr1 2.852690 1_455
Tc1 Zr0 2.865963 1_555
Tc2 Zr5 2.833654 1_655
Tc2 Zr6 2.837134 1_645
Tc2 Zr3 2.843077 1_655
Tc2 Zr3 2.843091 1_555
Tc2 Zr4 2.844047 1_645
Tc2 Zr4 2.844050 1_545
Tc2 Zr1 2.854084 1_555
Tc2 Zr2 2.855141 1_545
Tc3 Zr7 2.841244 1_555
Tc3 Zr3 2.841256 1_555
Tc3 Zr8 2.842146 1_555
Tc3 Zr4 2.842158 1_555
Tc3 Zr5 2.843062 1_655
Tc3 Zr5 2.843062 1_555
Tc3 Zr6 2.843541 1_555
Tc3 Zr6 2.843541 1_655
Tc4 Zr5 2.833654 1_555
Tc4 Zr6 2.837134 1_545
Tc4 Zr7 2.843077 1_455
Tc4 Zr7 2.843091 1_555
Tc4 Zr8 2.844047 1_445
Tc4 Zr8 2.844050 1_545
Tc4 Zr9 2.854084 1_555
Tc4 Zr10 2.855141 1_545
Tc5 Zr8 2.802529 1_555
Tc5 Zr7 2.815119 1_555
Tc5 Zr10 2.833125 1_555
Tc5 Zr10 2.833142 1_655
Tc5 Zr9 2.852684 1_555
Tc5 Zr9 2.852690 1_655
Tc5 Zr0 2.865963 1_556
Ir0 Zr0 2.830380 1_555
Ir0 Zr0 2.830380 1_455
Ir0 Zr10 2.831164 1_554
Ir0 Zr2 2.831164 1_455
Ir0 Zr1 2.846936 1_455
Ir0 Zr9 2.846936 1_554
Ir0 Lu0 2.857486 1_555
Ir0 Lu0 2.857486 1_455
Ir1 Zr4 2.811868 1_555
Ir1 Zr3 2.827499 1_565
Ir1 Zr2 2.836797 1_555
Ir1 Zr2 2.836799 1_455
Ir1 Zr1 2.849440 1_465
Ir1 Zr1 2.849448 1_565
Ir1 Zr0 2.864182 1_555
Ir1 Lu0 2.870205 1_565
Ir2 Zr5 2.836131 1_655
Ir2 Zr6 2.837441 1_655
Ir2 Zr3 2.839927 1_555
Ir2 Zr3 2.839932 1_655
Ir2 Zr4 2.843721 1_555
Ir2 Zr4 2.843738 1_655
Ir2 Zr2 2.851050 1_555
Ir2 Zr1 2.857063 1_555
Ir3 Zr5 2.840660 1_655
Ir3 Zr5 2.840660 1_555
Ir3 Zr8 2.842554 1_545
Ir3 Zr4 2.842565 1_545
Ir3 Zr6 2.843481 1_645
Ir3 Zr6 2.843481 1_545
Ir3 Zr7 2.844309 1_555
Ir3 Zr3 2.844321 1_555
Ir4 Zr5 2.836131 1_555
Ir4 Zr6 2.837441 1_555
Ir4 Zr7 2.839927 1_555
Ir4 Zr7 2.839932 1_455
Ir4 Zr8 2.843721 1_555
Ir4 Zr8 2.843738 1_455
Ir4 Zr10 2.851050 1_555
Ir4 Zr9 2.857063 1_555
Ir5 Zr8 2.811880 1_555
Ir5 Zr7 2.827510 1_565
Ir5 Zr10 2.836797 1_555
Ir5 Zr10 2.836799 1_655
Ir5 Zr9 2.849440 1_665
Ir5 Zr9 2.849448 1_565
Ir5 Zr0 2.864182 1_556
Ir5 Lu0 2.870205 1_566
