# generated using pymatgen
data_Na3Al2Ag
_symmetry_space_group_name_H-M   'P 1'
_cell_length_a   9.25452793
_cell_length_b   9.25452805
_cell_length_c   9.25452715
_cell_angle_alpha   59.99999974
_cell_angle_beta   59.99999931
_cell_angle_gamma   60.00000399
_symmetry_Int_Tables_number   1
_chemical_formula_structural   Na3Al2Ag
_chemical_formula_sum   'Na12 Al8 Ag4'
_cell_volume   560.46409125
_cell_formula_units_Z   4
loop_
 _symmetry_equiv_pos_site_id
 _symmetry_equiv_pos_as_xyz
  1  'x, y, z'
loop_
 _atom_site_type_symbol
 _atom_site_label
 _atom_site_symmetry_multiplicity
 _atom_site_fract_x
 _atom_site_fract_y
 _atom_site_fract_z
 _atom_site_occupancy
  Na  Na0  1  0.04913894  0.45086106  0.04913894  1
  Na  Na1  1  0.79913894  0.20086106  0.20086106  1
  Na  Na2  1  0.20086106  0.79913894  0.79913894  1
  Na  Na3  1  0.79913894  0.20086106  0.79913894  1
  Na  Na4  1  0.20086106  0.20086106  0.79913894  1
  Na  Na5  1  0.79913894  0.79913894  0.20086106  1
  Na  Na6  1  0.04913894  0.04913894  0.45086106  1
  Na  Na7  1  0.45086106  0.04913894  0.04913894  1
  Na  Na8  1  0.04913894  0.45086106  0.45086106  1
  Na  Na9  1  0.45086106  0.45086106  0.04913894  1
  Na  Na10  1  0.20086106  0.79913894  0.20086106  1
  Na  Na11  1  0.45086106  0.04913894  0.45086106  1
  Al  Al0  1  0.82472254  0.82472254  0.82472254  1
  Al  Al1  1  0.72416863  0.42527746  0.42527746  1
  Al  Al2  1  0.42527746  0.72416863  0.42527746  1
  Al  Al3  1  0.42527746  0.42527746  0.72416863  1
  Al  Al4  1  0.82472254  0.52583137  0.82472254  1
  Al  Al5  1  0.82472254  0.82472254  0.52583137  1
  Al  Al6  1  0.52583137  0.82472254  0.82472254  1
  Al  Al7  1  0.42527746  0.42527746  0.42527746  1
  Ag  Ag0  1  0.62500000  0.62500000  0.62500000  1
  Ag  Ag1  1  0.12500000  0.62500000  0.62500000  1
  Ag  Ag2  1  0.62500000  0.12500000  0.62500000  1
  Ag  Ag3  1  0.62500000  0.62500000  0.12500000  1
loop_
_geom_bond_atom_site_label_1
_geom_bond_atom_site_label_2
_geom_bond_distance
_geom_bond_site_symmetry_2
Na0 Na4 3.396028 1_554
Na0 Na2 3.396028 1_554
Na0 Na1 3.396028 1_455
Na0 Na5 3.396028 1_455
Na0 Na8 3.717748 1_555
Na0 Na6 3.717748 1_555
Na0 Na9 3.717749 1_555
Na0 Na7 3.717749 1_555
Na1 Na11 3.396028 1_555
Na1 Na6 3.396028 1_655
Na1 Na9 3.396028 1_555
Na1 Na3 3.717748 1_554
Na1 Na4 3.717748 1_654
Na1 Na5 3.717749 1_545
Na1 Na10 3.717749 1_645
Na2 Na6 3.396028 1_565
Na2 Na9 3.396028 1_556
Na2 Na5 3.717748 1_456
Na2 Na4 3.717749 1_565
Na2 Na3 3.717749 1_465
Na3 Na8 3.396028 1_655
Na3 Na6 3.396028 1_655
Na3 Na7 3.396028 1_556
Na3 Na9 3.396028 1_556
Na3 Na5 3.717748 1_546
Na3 Na4 3.717749 1_655
Na4 Na8 3.396028 1_555
Na4 Na7 3.396028 1_556
Na5 Na8 3.396028 1_655
Na5 Na7 3.396028 1_565
Na6 Na7 3.717748 1_555
Na6 Na8 3.717749 1_555
Na7 Na9 3.717749 1_555
Na8 Na9 3.717748 1_555
Na10 Na6 3.396028 1_565
Na10 Na8 3.396028 1_555
Na10 Na7 3.396028 1_565
Na10 Na9 3.396028 1_555
Na10 Na2 3.717748 1_554
Na10 Na4 3.717748 1_564
Na10 Na5 3.717749 1_455
Na11 Na2 3.396028 1_545
Na11 Na4 3.396028 1_555
Na11 Na5 3.396028 1_545
Na11 Na7 3.717748 1_555
Na11 Na9 3.717748 1_555
Na11 Na6 3.717749 1_555
Na11 Na8 3.717749 1_555
Al0 Al5 2.766096 1_555
Al0 Al6 2.766097 1_555
Al0 Al4 2.766097 1_555
Al0 Na6 3.246470 1_665
Al0 Na7 3.246470 1_566
Al0 Na0 3.246470 1_656
Al0 Na5 3.261453 1_556
Al0 Na2 3.261454 1_655
Al0 Na3 3.261454 1_565
Al1 Al3 2.766097 1_555
Al1 Al7 2.766097 1_555
Al1 Al2 2.766097 1_555
Al1 Na3 3.246466 1_555
Al1 Na5 3.246466 1_555
Al1 Na1 3.246474 1_555
Al1 Na8 3.261444 1_655
Al1 Na0 3.261449 1_655
Al1 Na6 3.261450 1_655
Al2 Al3 2.766097 1_555
Al2 Al7 2.766097 1_555
Al2 Na2 3.246466 1_555
Al2 Na5 3.246466 1_555
Al2 Na10 3.246474 1_555
Al2 Na11 3.261444 1_565
Al2 Na7 3.261449 1_565
Al2 Na6 3.261450 1_565
Al3 Al7 2.766096 1_555
Al3 Na3 3.246467 1_555
Al3 Na2 3.246467 1_555
Al3 Na4 3.246474 1_555
Al3 Na9 3.261444 1_556
Al3 Na0 3.261450 1_556
Al3 Na7 3.261450 1_556
Al4 Al5 2.766097 1_555
Al4 Al6 2.766097 1_555
Al4 Na8 3.246466 1_655
Al4 Na9 3.246466 1_556
Al4 Na0 3.246474 1_656
Al4 Na3 3.261444 1_555
Al4 Na1 3.261449 1_556
Al4 Na4 3.261450 1_655
Al5 Al6 2.766097 1_555
Al5 Na11 3.246467 1_565
Al5 Na8 3.246467 1_655
Al5 Na6 3.246474 1_665
Al5 Na5 3.261444 1_555
Al5 Na10 3.261450 1_655
Al5 Na1 3.261450 1_565
Al6 Na11 3.246466 1_565
Al6 Na9 3.246466 1_556
Al6 Na7 3.246474 1_566
Al6 Na2 3.261444 1_555
Al6 Na10 3.261449 1_556
Al6 Na4 3.261450 1_565
Al7 Na4 3.246470 1_555
Al7 Na1 3.246470 1_555
Al7 Na10 3.246470 1_555
Al7 Na9 3.261453 1_555
Al7 Na8 3.261454 1_555
Al7 Na11 3.261454 1_555
Ag0 Al4 2.774650 1_555
Ag0 Al2 2.774650 1_555
Ag0 Al6 2.774650 1_555
Ag0 Al1 2.774650 1_555
Ag0 Al5 2.774650 1_555
Ag0 Al3 2.774650 1_555
Ag0 Na9 3.247650 1_556
Ag0 Na5 3.247650 1_555
Ag0 Na8 3.247650 1_655
Ag0 Na2 3.247650 1_555
Ag0 Na11 3.247650 1_565
Ag0 Na3 3.247650 1_555
Ag1 Al0 2.774653 1_455
Ag1 Al7 2.774653 1_555
Ag1 Al2 2.774658 1_555
Ag1 Al4 2.774658 1_455
Ag1 Al3 2.774658 1_555
Ag1 Al5 2.774658 1_455
Ag1 Na0 3.247650 1_556
Ag1 Na10 3.247650 1_555
Ag1 Na2 3.247650 1_555
Ag1 Na8 3.247650 1_555
Ag1 Na6 3.247650 1_565
Ag1 Na4 3.247650 1_555
Ag2 Al7 2.774653 1_555
Ag2 Al0 2.774653 1_545
Ag2 Al1 2.774658 1_555
Ag2 Al6 2.774658 1_545
Ag2 Al3 2.774658 1_555
Ag2 Al5 2.774658 1_545
Ag2 Na7 3.247650 1_556
Ag2 Na1 3.247650 1_555
Ag2 Na3 3.247650 1_555
Ag2 Na11 3.247650 1_555
Ag2 Na6 3.247650 1_655
Ag2 Na4 3.247650 1_555
Ag3 Al7 2.774653 1_555
Ag3 Al0 2.774653 1_554
Ag3 Al2 2.774658 1_555
Ag3 Al4 2.774658 1_554
Ag3 Al6 2.774658 1_554
Ag3 Al1 2.774658 1_555
Ag3 Na5 3.247650 1_555
Ag3 Na9 3.247650 1_555
Ag3 Na0 3.247650 1_655
Ag3 Na10 3.247650 1_555
Ag3 Na7 3.247650 1_565
Ag3 Na1 3.247650 1_555
