# generated using pymatgen
data_In3HgAsSe4
_symmetry_space_group_name_H-M   'P 1'
_cell_length_a   5.97035227
_cell_length_b   7.33195682
_cell_length_c   7.27228128
_cell_angle_alpha   80.83534795
_cell_angle_beta   65.78195961
_cell_angle_gamma   65.91863906
_symmetry_Int_Tables_number   1
_chemical_formula_structural   In3HgAsSe4
_chemical_formula_sum   'In3 Hg1 As1 Se4'
_cell_volume   265.04251854
_cell_formula_units_Z   1
loop_
 _symmetry_equiv_pos_site_id
 _symmetry_equiv_pos_as_xyz
  1  'x, y, z'
loop_
 _atom_site_type_symbol
 _atom_site_label
 _atom_site_symmetry_multiplicity
 _atom_site_fract_x
 _atom_site_fract_y
 _atom_site_fract_z
 _atom_site_occupancy
  In  In0  1  0.39540620  0.39500451  0.80375303  1
  In  In1  1  0.61359599  0.60165148  0.20227717  1
  In  In2  1  0.80281596  0.80142821  0.59647353  1
  Hg  Hg0  1  0.99831837  0.99373606  0.99517543  1
  As  As0  1  0.45504721  0.69593620  0.90161835  1
  Se  Se0  1  0.60500549  0.92432349  0.31748739  1
  Se  Se1  1  0.86658426  0.11082425  0.66853458  1
  Se  Se2  1  0.06132422  0.29499723  0.12465907  1
  Se  Se3  1  0.25190431  0.48209958  0.49002247  1
loop_
_geom_bond_atom_site_label_1
_geom_bond_atom_site_label_2
_geom_bond_distance
_geom_bond_site_symmetry_2
In0 Se2 2.606110 1_556
In0 Se1 2.611854 1_555
In0 Se3 2.653365 1_555
In1 Se2 2.604027 1_655
In1 Se0 2.607458 1_555
In1 Se3 2.657711 1_555
In2 Se1 2.610122 1_565
In2 Se0 2.614958 1_555
In2 Se3 2.649809 1_655
Hg0 Se1 2.707467 1_565
Hg0 Se0 2.710499 1_556
Hg0 Se2 2.745606 1_666
As0 Hg0 2.599678 1_455
As0 In2 2.611012 1_555
As0 In1 2.614791 1_556
As0 In0 2.617417 1_555
