# generated using pymatgen
data_Na3SrReN4
_symmetry_space_group_name_H-M   'P 1'
_cell_length_a   6.08686969
_cell_length_b   5.94777113
_cell_length_c   8.97185442
_cell_angle_alpha   72.01609664
_cell_angle_beta   78.96238687
_cell_angle_gamma   66.90297138
_symmetry_Int_Tables_number   1
_chemical_formula_structural   Na3SrReN4
_chemical_formula_sum   'Na6 Sr2 Re2 N8'
_cell_volume   283.25766575
_cell_formula_units_Z   2
loop_
 _symmetry_equiv_pos_site_id
 _symmetry_equiv_pos_as_xyz
  1  'x, y, z'
loop_
 _atom_site_type_symbol
 _atom_site_label
 _atom_site_symmetry_multiplicity
 _atom_site_fract_x
 _atom_site_fract_y
 _atom_site_fract_z
 _atom_site_occupancy
  Na  Na0  1  0.72069517  0.61668029  0.15533033  1
  Na  Na1  1  0.27930483  0.38331971  0.84466967  1
  Na  Na2  1  0.76332393  0.24600421  0.97062490  1
  Na  Na3  1  0.23667607  0.75399579  0.02937510  1
  Na  Na4  1  0.70995130  0.48628939  0.56471146  1
  Na  Na5  1  0.29004870  0.51371061  0.43528854  1
  Sr  Sr0  1  0.20802781  0.97977372  0.63483122  1
  Sr  Sr1  1  0.79197219  0.02022628  0.36516878  1
  Re  Re0  1  0.73225217  0.83235300  0.75170135  1
  Re  Re1  1  0.26774783  0.16764700  0.24829865  1
  N  N0  1  0.97747020  0.68802164  0.61726191  1
  N  N1  1  0.02252980  0.31197836  0.38273809  1
  N  N2  1  0.86832358  0.85820814  0.90730244  1
  N  N3  1  0.13167642  0.14179186  0.09269756  1
  N  N4  1  0.53317049  0.65017868  0.81247580  1
  N  N5  1  0.46682951  0.34982132  0.18752420  1
  N  N6  1  0.44649511  0.85642056  0.36857789  1
  N  N7  1  0.55350489  0.14357944  0.63142211  1
loop_
_geom_bond_atom_site_label_1
_geom_bond_atom_site_label_2
_geom_bond_distance
_geom_bond_site_symmetry_2
N0 Re0 1.834226 1_555
N0 Na5 2.380866 1_655
N0 Na4 2.547483 1_555
N0 Sr1 2.600453 1_565
N0 Sr0 2.677635 1_655
N0 Na1 2.713345 1_655
N1 Re1 1.834226 1_555
N1 Na4 2.380866 1_455
N1 Na5 2.547483 1_555
N1 Sr0 2.600453 1_545
N1 Sr1 2.677635 1_455
N1 Na0 2.713345 1_455
N2 Re0 1.825865 1_555
N2 Na2 2.358988 1_565
N2 Na3 2.457944 1_656
N2 Na0 2.469036 1_556
N2 Sr0 2.986689 1_655
N3 Re1 1.825865 1_555
N3 Na3 2.358988 1_545
N3 Na2 2.457944 1_454
N3 Na1 2.469036 1_554
N3 Sr1 2.986689 1_455
N4 Re0 1.830875 1_555
N4 Na2 2.401534 1_555
N4 Na3 2.438872 1_556
N4 Na1 2.541804 1_555
N4 Sr0 2.556276 1_555
N4 Na4 2.578478 1_555
N5 Re1 1.830875 1_555
N5 Na3 2.401534 1_555
N5 Na2 2.438872 1_554
N5 Na0 2.541804 1_555
N5 Sr1 2.556276 1_555
N5 Na5 2.578478 1_555
N6 Re1 1.846830 1_565
N6 Na5 2.443622 1_555
N6 Na4 2.536355 1_555
N6 Sr1 2.633750 1_565
N6 Na0 2.659700 1_555
N6 Sr0 2.696387 1_555
N7 Re0 1.846830 1_545
N7 Na4 2.443622 1_555
N7 Na5 2.536355 1_555
N7 Sr0 2.633750 1_545
N7 Na1 2.659700 1_555
N7 Sr1 2.696387 1_555
