# generated using pymatgen
data_Rb2Ca(NbBr3)6
_symmetry_space_group_name_H-M   'P 1'
_cell_length_a   10.75423790
_cell_length_b   10.75423752
_cell_length_c   10.75423817
_cell_angle_alpha   54.91261677
_cell_angle_beta   54.91262035
_cell_angle_gamma   54.91262183
_symmetry_Int_Tables_number   1
_chemical_formula_structural   Rb2Ca(NbBr3)6
_chemical_formula_sum   'Rb2 Ca1 Nb6 Br18'
_cell_volume   775.33695066
_cell_formula_units_Z   1
loop_
 _symmetry_equiv_pos_site_id
 _symmetry_equiv_pos_as_xyz
  1  'x, y, z'
loop_
 _atom_site_type_symbol
 _atom_site_label
 _atom_site_symmetry_multiplicity
 _atom_site_fract_x
 _atom_site_fract_y
 _atom_site_fract_z
 _atom_site_occupancy
  Rb  Rb0  1  0.27764346  0.27764346  0.27764246  1
  Rb  Rb1  1  0.72235654  0.72235654  0.72235654  1
  Ca  Ca0  1  0.00000000  0.00000000  0.00000000  1
  Nb  Nb0  1  0.64352678  0.42082970  0.30290354  1
  Nb  Nb1  1  0.57917130  0.69709646  0.35647322  1
  Nb  Nb2  1  0.30290354  0.64352778  0.42082970  1
  Nb  Nb3  1  0.69709546  0.35647322  0.57917030  1
  Nb  Nb4  1  0.42082870  0.30290454  0.64352678  1
  Nb  Nb5  1  0.35647322  0.57917030  0.69709646  1
  Br  Br0  1  0.83551265  0.31916148  0.02827696  1
  Br  Br1  1  0.77352079  0.64376805  0.08352263  1
  Br  Br2  1  0.43363806  0.57828362  0.16120947  1
  Br  Br3  1  0.68083952  0.97172204  0.16448735  1
  Br  Br4  1  0.35623195  0.91647637  0.22647921  1
  Br  Br5  1  0.02827696  0.83551165  0.31916148  1
  Br  Br6  1  0.91647637  0.22647921  0.35623295  1
  Br  Br7  1  0.83879053  0.56636194  0.42171638  1
  Br  Br8  1  0.57828362  0.16120847  0.43363906  1
  Br  Br9  1  0.42171638  0.83879053  0.56636094  1
  Br  Br10  1  0.16120847  0.43363906  0.57828362  1
  Br  Br11  1  0.08352263  0.77352179  0.64376705  1
  Br  Br12  1  0.97172304  0.16448835  0.68083852  1
  Br  Br13  1  0.64376905  0.08352263  0.77351979  1
  Br  Br14  1  0.31916048  0.02827696  0.83551165  1
  Br  Br15  1  0.56636094  0.42171538  0.83879153  1
  Br  Br16  1  0.22647821  0.35623295  0.91647737  1
  Br  Br17  1  0.16448835  0.68083852  0.97172304  1
loop_
_geom_bond_atom_site_label_1
_geom_bond_atom_site_label_2
_geom_bond_distance
_geom_bond_site_symmetry_2
Br0 Nb0 2.878832 1_555
Br0 Ca0 2.933239 1_655
Br0 Rb1 3.638989 1_554
Br1 Nb1 2.611093 1_555
Br1 Nb0 2.612904 1_555
Br1 Rb1 3.775110 1_554
Br2 Nb2 2.620986 1_555
Br2 Nb0 2.622587 1_555
Br2 Rb0 3.741921 1_555
Br2 Rb1 3.820005 1_554
Br3 Nb1 2.878822 1_555
Br3 Ca0 2.933234 1_665
Br3 Rb0 3.638997 1_565
Br4 Nb2 2.611076 1_555
Br4 Nb1 2.612911 1_555
Br4 Rb0 3.775113 1_565
Br5 Nb2 2.878833 1_555
Br5 Ca0 2.933238 1_565
Br5 Rb1 3.638987 1_455
Br6 Nb0 2.611089 1_555
Br6 Nb3 2.612897 1_555
Br6 Rb0 3.775110 1_655
Br7 Nb1 2.620970 1_555
Br7 Nb3 2.622595 1_555
Br7 Rb1 3.741917 1_555
Br7 Rb0 3.820007 1_655
Br8 Nb0 2.620987 1_555
Br8 Nb4 2.622592 1_555
Br8 Rb0 3.741928 1_555
Br8 Rb1 3.819995 1_545
Br9 Nb5 2.620978 1_555
Br9 Nb1 2.622577 1_555
Br9 Rb1 3.741925 1_555
Br9 Rb0 3.820005 1_565
Br10 Nb4 2.620980 1_555
Br10 Nb2 2.622595 1_555
Br10 Rb0 3.741930 1_555
Br10 Rb1 3.819996 1_455
Br11 Nb5 2.611098 1_555
Br11 Nb2 2.612897 1_555
Br11 Rb1 3.775111 1_455
Br12 Nb3 2.878841 1_555
Br12 Ca0 2.933238 1_656
Br12 Rb0 3.638992 1_655
Br13 Nb3 2.611084 1_555
Br13 Nb4 2.612914 1_555
Br13 Rb1 3.775108 1_545
Br14 Nb4 2.878841 1_555
Br14 Ca0 2.933228 1_556
Br14 Rb1 3.638992 1_545
Br15 Nb3 2.620984 1_555
Br15 Nb5 2.622584 1_555
Br15 Rb1 3.741930 1_555
Br15 Rb0 3.819988 1_556
Br16 Nb4 2.611093 1_555
Br16 Nb5 2.612902 1_555
Br16 Rb0 3.775101 1_556
Br17 Nb5 2.878833 1_555
Br17 Ca0 2.933238 1_566
Br17 Rb0 3.638983 1_556
