# generated using pymatgen
data_Ta8BeSiSb4
_symmetry_space_group_name_H-M   'P 1'
_cell_length_a   7.73981641
_cell_length_b   7.73981787
_cell_length_c   7.73981717
_cell_angle_alpha   95.60843198
_cell_angle_beta   95.60842627
_cell_angle_gamma   143.56598142
_symmetry_Int_Tables_number   1
_chemical_formula_structural   Ta8BeSiSb4
_chemical_formula_sum   'Ta8 Be1 Si1 Sb4'
_cell_volume   261.56005979
_cell_formula_units_Z   1
loop_
 _symmetry_equiv_pos_site_id
 _symmetry_equiv_pos_as_xyz
  1  'x, y, z'
loop_
 _atom_site_type_symbol
 _atom_site_label
 _atom_site_symmetry_multiplicity
 _atom_site_fract_x
 _atom_site_fract_y
 _atom_site_fract_z
 _atom_site_occupancy
  Ta  Ta0  1  0.92087957  0.80343522  0.71537591  1
  Ta  Ta1  1  0.80343522  0.08805930  0.88255665  1
  Ta  Ta2  1  0.41194070  0.69656478  0.11744335  1
  Ta  Ta3  1  0.57912043  0.29449635  0.88255665  1
  Ta  Ta4  1  0.69656478  0.57912043  0.28462409  1
  Ta  Ta5  1  0.29449635  0.41194070  0.71537591  1
  Ta  Ta6  1  0.20550365  0.92087957  0.11744335  1
  Ta  Ta7  1  0.08805930  0.20550365  0.28462409  1
  Be  Be0  1  0.25000000  0.25000000  0.00000000  1
  Si  Si0  1  0.75000000  0.75000000  0.00000000  1
  Sb  Sb0  1  0.64065230  0.85934770  0.50000000  1
  Sb  Sb1  1  0.14065230  0.64065230  0.78130361  1
  Sb  Sb2  1  0.85934770  0.35934770  0.21869539  1
  Sb  Sb3  1  0.35934770  0.14065230  0.50000000  1
loop_
_geom_bond_atom_site_label_1
_geom_bond_atom_site_label_2
_geom_bond_distance
_geom_bond_site_symmetry_2
Be0 Si0 2.419598 1_445
Be0 Si0 2.419598 1_555
Be0 Ta3 2.556544 1_554
Be0 Ta6 2.556545 1_545
Be0 Ta1 2.556546 1_454
Be0 Ta2 2.556547 1_555
Be0 Ta7 2.556548 1_555
Be0 Ta4 2.556548 1_555
Be0 Ta5 2.556548 1_554
Be0 Ta0 2.556548 1_444
Si0 Ta2 2.576933 1_555
Si0 Ta1 2.576933 1_564
Si0 Ta6 2.576935 1_655
Si0 Ta3 2.576936 1_554
Si0 Ta0 2.576936 1_554
Si0 Ta5 2.576937 1_554
Si0 Ta4 2.576937 1_555
Si0 Ta7 2.576937 1_665
Sb0 Ta2 2.854058 1_555
Sb0 Ta1 2.854058 1_565
Sb0 Ta0 2.935103 1_555
Sb0 Ta4 2.935103 1_555
Sb0 Ta5 2.968432 1_665
Sb0 Ta7 2.968432 1_555
Sb0 Ta7 3.003484 1_665
Sb0 Ta5 3.003484 1_555
Sb1 Ta0 2.854049 1_455
Sb1 Ta5 2.854049 1_555
Sb1 Ta2 2.935103 1_556
Sb1 Ta6 2.935103 1_556
Sb1 Ta3 2.968432 1_565
Sb1 Ta1 2.968440 1_455
Sb1 Ta1 3.003484 1_565
Sb1 Ta3 3.003491 1_455
Sb2 Ta7 2.854050 1_655
Sb2 Ta4 2.854050 1_555
Sb2 Ta3 2.935097 1_554
Sb2 Ta1 2.935097 1_554
Sb2 Ta6 2.968432 1_545
Sb2 Ta2 2.968435 1_655
Sb2 Ta2 3.003485 1_545
Sb2 Ta6 3.003488 1_655
Sb3 Ta3 2.854058 1_555
Sb3 Ta6 2.854058 1_545
Sb3 Ta7 2.935103 1_555
Sb3 Ta5 2.935103 1_555
Sb3 Ta0 2.968432 1_445
Sb3 Ta4 2.968432 1_555
Sb3 Ta4 3.003484 1_445
Sb3 Ta0 3.003485 1_555
