# generated using pymatgen
data_Sc57Rh13
_symmetry_space_group_name_H-M   'P 1'
_cell_length_a   14.44288800
_cell_length_b   14.44288800
_cell_length_c   14.44288800
_cell_angle_alpha   90.00000000
_cell_angle_beta   90.00000000
_cell_angle_gamma   90.00000000
_symmetry_Int_Tables_number   1
_chemical_formula_structural   Sc57Rh13
_chemical_formula_sum   'Sc114 Rh26'
_cell_volume   3012.74330717
_cell_formula_units_Z   2
loop_
 _symmetry_equiv_pos_site_id
 _symmetry_equiv_pos_as_xyz
  1  'x, y, z'
loop_
 _atom_site_type_symbol
 _atom_site_label
 _atom_site_symmetry_multiplicity
 _atom_site_fract_x
 _atom_site_fract_y
 _atom_site_fract_z
 _atom_site_occupancy
  Sc  Sc0  1  0.37538500  0.00000000  0.00000000  1
  Sc  Sc1  1  0.00000000  0.37538500  0.00000000  1
  Sc  Sc2  1  0.00000000  0.00000000  0.37538500  1
  Sc  Sc3  1  0.00000000  0.62461500  0.00000000  1
  Sc  Sc4  1  0.00000000  0.00000000  0.62461500  1
  Sc  Sc5  1  0.62461500  0.00000000  0.00000000  1
  Sc  Sc6  1  0.22964100  0.50000000  0.00000000  1
  Sc  Sc7  1  0.00000000  0.22964100  0.50000000  1
  Sc  Sc8  1  0.50000000  0.00000000  0.22964100  1
  Sc  Sc9  1  0.00000000  0.77035900  0.50000000  1
  Sc  Sc10  1  0.50000000  0.00000000  0.77035900  1
  Sc  Sc11  1  0.77035900  0.50000000  0.00000000  1
  Sc  Sc12  1  0.86194100  0.50000000  0.50000000  1
  Sc  Sc13  1  0.50000000  0.86194100  0.50000000  1
  Sc  Sc14  1  0.50000000  0.50000000  0.86194100  1
  Sc  Sc15  1  0.50000000  0.13805900  0.50000000  1
  Sc  Sc16  1  0.50000000  0.50000000  0.13805900  1
  Sc  Sc17  1  0.13805900  0.50000000  0.50000000  1
  Sc  Sc18  1  0.00000000  0.39327200  0.36795200  1
  Sc  Sc19  1  0.36795200  0.00000000  0.39327200  1
  Sc  Sc20  1  0.39327200  0.36795200  0.00000000  1
  Sc  Sc21  1  0.60672800  0.63204800  0.00000000  1
  Sc  Sc22  1  0.36795200  0.00000000  0.60672800  1
  Sc  Sc23  1  0.60672800  0.36795200  0.00000000  1
  Sc  Sc24  1  0.63204800  0.00000000  0.39327200  1
  Sc  Sc25  1  0.63204800  0.00000000  0.60672800  1
  Sc  Sc26  1  0.39327200  0.63204800  0.00000000  1
  Sc  Sc27  1  0.00000000  0.60672800  0.63204800  1
  Sc  Sc28  1  0.00000000  0.39327200  0.63204800  1
  Sc  Sc29  1  0.00000000  0.60672800  0.36795200  1
  Sc  Sc30  1  0.00000000  0.17849100  0.10717800  1
  Sc  Sc31  1  0.10717800  0.00000000  0.17849100  1
  Sc  Sc32  1  0.17849100  0.10717800  0.00000000  1
  Sc  Sc33  1  0.82150900  0.89282200  0.00000000  1
  Sc  Sc34  1  0.10717800  0.00000000  0.82150900  1
  Sc  Sc35  1  0.82150900  0.10717800  0.00000000  1
  Sc  Sc36  1  0.89282200  0.00000000  0.17849100  1
  Sc  Sc37  1  0.89282200  0.00000000  0.82150900  1
  Sc  Sc38  1  0.17849100  0.89282200  0.00000000  1
  Sc  Sc39  1  0.00000000  0.82150900  0.89282200  1
  Sc  Sc40  1  0.00000000  0.17849100  0.89282200  1
  Sc  Sc41  1  0.00000000  0.82150900  0.10717800  1
  Sc  Sc42  1  0.50000000  0.82565600  0.89687400  1
  Sc  Sc43  1  0.89687400  0.50000000  0.82565600  1
  Sc  Sc44  1  0.82565600  0.89687400  0.50000000  1
  Sc  Sc45  1  0.17434400  0.10312600  0.50000000  1
  Sc  Sc46  1  0.89687400  0.50000000  0.17434400  1
  Sc  Sc47  1  0.17434400  0.89687400  0.50000000  1
  Sc  Sc48  1  0.10312600  0.50000000  0.82565600  1
  Sc  Sc49  1  0.10312600  0.50000000  0.17434400  1
  Sc  Sc50  1  0.82565600  0.10312600  0.50000000  1
  Sc  Sc51  1  0.50000000  0.17434400  0.10312600  1
  Sc  Sc52  1  0.50000000  0.82565600  0.10312600  1
  Sc  Sc53  1  0.50000000  0.17434400  0.89687400  1
  Sc  Sc54  1  0.50000000  0.67485300  0.60879900  1
  Sc  Sc55  1  0.60879900  0.50000000  0.67485300  1
  Sc  Sc56  1  0.67485300  0.60879900  0.50000000  1
  Sc  Sc57  1  0.32514700  0.39120100  0.50000000  1
  Sc  Sc58  1  0.60879900  0.50000000  0.32514700  1
  Sc  Sc59  1  0.32514700  0.60879900  0.50000000  1
  Sc  Sc60  1  0.39120100  0.50000000  0.67485300  1
  Sc  Sc61  1  0.39120100  0.50000000  0.32514700  1
  Sc  Sc62  1  0.67485300  0.39120100  0.50000000  1
  Sc  Sc63  1  0.50000000  0.32514700  0.39120100  1
  Sc  Sc64  1  0.50000000  0.67485300  0.39120100  1
  Sc  Sc65  1  0.50000000  0.32514700  0.60879900  1
  Sc  Sc66  1  0.11098400  0.18952500  0.29678000  1
  Sc  Sc67  1  0.29678000  0.11098400  0.18952500  1
  Sc  Sc68  1  0.18952500  0.29678000  0.11098400  1
  Sc  Sc69  1  0.81047500  0.70322000  0.11098400  1
  Sc  Sc70  1  0.29678000  0.88901600  0.81047500  1
  Sc  Sc71  1  0.81047500  0.29678000  0.88901600  1
  Sc  Sc72  1  0.70322000  0.88901600  0.18952500  1
  Sc  Sc73  1  0.70322000  0.11098400  0.81047500  1
  Sc  Sc74  1  0.18952500  0.70322000  0.88901600  1
  Sc  Sc75  1  0.11098400  0.81047500  0.70322000  1
  Sc  Sc76  1  0.88901600  0.18952500  0.70322000  1
  Sc  Sc77  1  0.88901600  0.81047500  0.29678000  1
  Sc  Sc78  1  0.88901600  0.81047500  0.70322000  1
  Sc  Sc79  1  0.70322000  0.88901600  0.81047500  1
  Sc  Sc80  1  0.81047500  0.70322000  0.88901600  1
  Sc  Sc81  1  0.18952500  0.29678000  0.88901600  1
  Sc  Sc82  1  0.70322000  0.11098400  0.18952500  1
  Sc  Sc83  1  0.18952500  0.70322000  0.11098400  1
  Sc  Sc84  1  0.29678000  0.11098400  0.81047500  1
  Sc  Sc85  1  0.29678000  0.88901600  0.18952500  1
  Sc  Sc86  1  0.81047500  0.29678000  0.11098400  1
  Sc  Sc87  1  0.88901600  0.18952500  0.29678000  1
  Sc  Sc88  1  0.11098400  0.81047500  0.29678000  1
  Sc  Sc89  1  0.11098400  0.18952500  0.70322000  1
  Sc  Sc90  1  0.61466500  0.67893600  0.79191700  1
  Sc  Sc91  1  0.79191700  0.61466500  0.67893600  1
  Sc  Sc92  1  0.67893600  0.79191700  0.61466500  1
  Sc  Sc93  1  0.32106400  0.20808300  0.61466500  1
  Sc  Sc94  1  0.79191700  0.38533500  0.32106400  1
  Sc  Sc95  1  0.32106400  0.79191700  0.38533500  1
  Sc  Sc96  1  0.20808300  0.38533500  0.67893600  1
  Sc  Sc97  1  0.20808300  0.61466500  0.32106400  1
  Sc  Sc98  1  0.67893600  0.20808300  0.38533500  1
  Sc  Sc99  1  0.61466500  0.32106400  0.20808300  1
  Sc  Sc100  1  0.38533500  0.67893600  0.20808300  1
  Sc  Sc101  1  0.38533500  0.32106400  0.79191700  1
  Sc  Sc102  1  0.38533500  0.32106400  0.20808300  1
  Sc  Sc103  1  0.20808300  0.38533500  0.32106400  1
  Sc  Sc104  1  0.32106400  0.20808300  0.38533500  1
  Sc  Sc105  1  0.67893600  0.79191700  0.38533500  1
  Sc  Sc106  1  0.20808300  0.61466500  0.67893600  1
  Sc  Sc107  1  0.67893600  0.20808300  0.61466500  1
  Sc  Sc108  1  0.79191700  0.61466500  0.32106400  1
  Sc  Sc109  1  0.79191700  0.38533500  0.67893600  1
  Sc  Sc110  1  0.32106400  0.79191700  0.61466500  1
  Sc  Sc111  1  0.38533500  0.67893600  0.79191700  1
  Sc  Sc112  1  0.61466500  0.32106400  0.79191700  1
  Sc  Sc113  1  0.61466500  0.67893600  0.20808300  1
  Rh  Rh0  1  0.00000000  0.00000000  0.00000000  1
  Rh  Rh1  1  0.50000000  0.50000000  0.50000000  1
  Rh  Rh2  1  0.00000000  0.33288900  0.20221200  1
  Rh  Rh3  1  0.20221200  0.00000000  0.33288900  1
  Rh  Rh4  1  0.33288900  0.20221200  0.00000000  1
  Rh  Rh5  1  0.66711100  0.79778800  0.00000000  1
  Rh  Rh6  1  0.20221200  0.00000000  0.66711100  1
  Rh  Rh7  1  0.66711100  0.20221200  0.00000000  1
  Rh  Rh8  1  0.79778800  0.00000000  0.33288900  1
  Rh  Rh9  1  0.79778800  0.00000000  0.66711100  1
  Rh  Rh10  1  0.33288900  0.79778800  0.00000000  1
  Rh  Rh11  1  0.00000000  0.66711100  0.79778800  1
  Rh  Rh12  1  0.00000000  0.33288900  0.79778800  1
  Rh  Rh13  1  0.00000000  0.66711100  0.20221200  1
  Rh  Rh14  1  0.50000000  0.83193900  0.70036700  1
  Rh  Rh15  1  0.70036700  0.50000000  0.83193900  1
  Rh  Rh16  1  0.83193900  0.70036700  0.50000000  1
  Rh  Rh17  1  0.16806100  0.29963300  0.50000000  1
  Rh  Rh18  1  0.70036700  0.50000000  0.16806100  1
  Rh  Rh19  1  0.16806100  0.70036700  0.50000000  1
  Rh  Rh20  1  0.29963300  0.50000000  0.83193900  1
  Rh  Rh21  1  0.29963300  0.50000000  0.16806100  1
  Rh  Rh22  1  0.83193900  0.29963300  0.50000000  1
  Rh  Rh23  1  0.50000000  0.16806100  0.29963300  1
  Rh  Rh24  1  0.50000000  0.83193900  0.29963300  1
  Rh  Rh25  1  0.50000000  0.16806100  0.70036700  1
loop_
_geom_bond_atom_site_label_1
_geom_bond_atom_site_label_2
_geom_bond_distance
_geom_bond_site_symmetry_2
Rh0 Sc41 3.006972 1_545
Rh0 Sc33 3.006972 1_445
Rh0 Sc34 3.006972 1_554
Rh0 Sc39 3.006972 1_544
Rh0 Sc35 3.006972 1_455
Rh0 Sc37 3.006972 1_454
Rh0 Sc32 3.006972 1_555
Rh0 Sc36 3.006972 1_455
Rh0 Sc30 3.006972 1_555
Rh0 Sc38 3.006972 1_545
Rh0 Sc40 3.006972 1_554
Rh0 Sc31 3.006972 1_555
Rh1 Sc59 2.974351 1_555
Rh1 Sc65 2.974351 1_555
Rh1 Sc57 2.974351 1_555
Rh1 Sc63 2.974351 1_555
Rh1 Sc58 2.974351 1_555
Rh1 Sc61 2.974351 1_555
Rh1 Sc54 2.974351 1_555
Rh1 Sc55 2.974351 1_555
Rh1 Sc64 2.974351 1_555
Rh1 Sc62 2.974351 1_555
Rh1 Sc56 2.974351 1_555
Rh1 Sc60 2.974351 1_555
Rh2 Sc18 2.547680 1_555
Rh2 Sc30 2.618516 1_555
Rh2 Sc49 2.864563 1_555
Rh2 Sc46 2.864563 1_455
Rh2 Sc66 2.953343 1_555
Rh2 Sc87 2.953343 1_455
Rh2 Sc1 2.984322 1_555
Rh2 Sc68 3.082335 1_555
Rh2 Sc86 3.082335 1_455
Rh3 Sc19 2.547680 1_555
Rh3 Sc31 2.618516 1_555
Rh3 Sc45 2.864563 1_555
Rh3 Sc47 2.864563 1_545
Rh3 Sc67 2.953343 1_555
Rh3 Sc85 2.953343 1_545
Rh3 Sc2 2.984322 1_555
Rh3 Sc66 3.082335 1_555
Rh3 Sc88 3.082335 1_545
Rh4 Sc20 2.547680 1_555
Rh4 Sc32 2.618516 1_555
Rh4 Sc51 2.864563 1_555
Rh4 Sc53 2.864563 1_554
Rh4 Sc68 2.953343 1_555
Rh4 Sc81 2.953343 1_554
Rh4 Sc0 2.984322 1_555
Rh4 Sc67 3.082335 1_555
Rh4 Sc84 3.082335 1_554
Rh5 Sc21 2.547680 1_555
Rh5 Sc33 2.618516 1_555
Rh5 Sc52 2.864563 1_555
Rh5 Sc42 2.864563 1_554
Rh5 Sc69 2.953343 1_555
Rh5 Sc80 2.953343 1_554
Rh5 Sc5 2.984322 1_565
Rh5 Sc72 3.082335 1_555
Rh5 Sc79 3.082335 1_554
Rh6 Sc22 2.547680 1_555
Rh6 Sc34 2.618516 1_555
Rh6 Sc45 2.864563 1_555
Rh6 Sc47 2.864563 1_545
Rh6 Sc84 2.953343 1_555
Rh6 Sc70 2.953343 1_545
Rh6 Sc4 2.984322 1_555
Rh6 Sc89 3.082335 1_555
Rh6 Sc75 3.082335 1_545
Rh7 Sc23 2.547680 1_555
Rh7 Sc35 2.618516 1_555
Rh7 Sc51 2.864563 1_555
Rh7 Sc53 2.864563 1_554
Rh7 Sc71 2.953343 1_554
Rh7 Sc86 2.953343 1_555
Rh7 Sc5 2.984322 1_555
Rh7 Sc82 3.082335 1_555
Rh7 Sc73 3.082335 1_554
Rh8 Sc24 2.547680 1_555
Rh8 Sc36 2.618516 1_555
Rh8 Sc50 2.864563 1_555
Rh8 Sc44 2.864563 1_545
Rh8 Sc82 2.953343 1_555
Rh8 Sc72 2.953343 1_545
Rh8 Sc2 2.984322 1_655
Rh8 Sc87 3.082335 1_555
Rh8 Sc77 3.082335 1_545
Rh9 Sc25 2.547680 1_555
Rh9 Sc37 2.618516 1_555
Rh9 Sc50 2.864563 1_555
Rh9 Sc44 2.864563 1_545
Rh9 Sc73 2.953343 1_555
Rh9 Sc79 2.953343 1_545
Rh9 Sc4 2.984322 1_655
Rh9 Sc76 3.082335 1_555
Rh9 Sc78 3.082335 1_545
Rh10 Sc26 2.547680 1_555
Rh10 Sc38 2.618516 1_555
Rh10 Sc52 2.864563 1_555
Rh10 Sc42 2.864563 1_554
Rh10 Sc74 2.953343 1_554
Rh10 Sc83 2.953343 1_555
Rh10 Sc0 2.984322 1_565
Rh10 Sc85 3.082335 1_555
Rh10 Sc70 3.082335 1_554
Rh11 Sc27 2.547680 1_555
Rh11 Sc39 2.618516 1_555
Rh11 Sc48 2.864563 1_555
Rh11 Sc43 2.864563 1_455
Rh11 Sc78 2.953343 1_455
Rh11 Sc75 2.953343 1_555
Rh11 Sc3 2.984322 1_556
Rh11 Sc74 3.082335 1_555
Rh11 Sc80 3.082335 1_455
Rh12 Sc28 2.547680 1_555
Rh12 Sc40 2.618516 1_555
Rh12 Sc48 2.864563 1_555
Rh12 Sc43 2.864563 1_455
Rh12 Sc89 2.953343 1_555
Rh12 Sc76 2.953343 1_455
Rh12 Sc1 2.984322 1_556
Rh12 Sc81 3.082335 1_555
Rh12 Sc71 3.082335 1_455
Rh13 Sc29 2.547680 1_555
Rh13 Sc41 2.618516 1_555
Rh13 Sc49 2.864563 1_555
Rh13 Sc46 2.864563 1_455
Rh13 Sc88 2.953343 1_555
Rh13 Sc77 2.953343 1_455
Rh13 Sc3 2.984322 1_555
Rh13 Sc83 3.082335 1_555
Rh13 Sc69 3.082335 1_455
Rh14 Sc54 2.626093 1_555
Rh14 Sc10 2.629374 1_565
Rh14 Sc42 2.839579 1_555
Rh14 Sc92 2.923202 1_555
Rh14 Sc110 2.923202 1_555
Rh14 Sc13 2.926140 1_555
Rh14 Sc111 3.061735 1_555
Rh14 Sc90 3.061735 1_555
Rh14 Sc22 3.370162 1_565
Rh14 Sc25 3.370162 1_565
Rh14 Sc79 3.438497 1_555
Rh14 Sc70 3.438497 1_555
Rh15 Sc55 2.626093 1_555
Rh15 Sc11 2.629374 1_556
Rh15 Sc43 2.839579 1_555
Rh15 Sc112 2.923202 1_555
Rh15 Sc90 2.923202 1_555
Rh15 Sc14 2.926140 1_555
Rh15 Sc109 3.061735 1_555
Rh15 Sc91 3.061735 1_555
Rh15 Sc23 3.370162 1_556
Rh15 Sc21 3.370162 1_556
Rh15 Sc80 3.438497 1_555
Rh15 Sc71 3.438497 1_555
Rh16 Sc56 2.626093 1_555
Rh16 Sc9 2.629374 1_655
Rh16 Sc44 2.839579 1_555
Rh16 Sc91 2.923202 1_555
Rh16 Sc108 2.923202 1_555
Rh16 Sc12 2.926140 1_555
Rh16 Sc105 3.061735 1_555
Rh16 Sc92 3.061735 1_555
Rh16 Sc29 3.370162 1_655
Rh16 Sc27 3.370162 1_655
Rh16 Sc78 3.438497 1_555
Rh16 Sc77 3.438497 1_555
Rh17 Sc57 2.626093 1_555
Rh17 Sc7 2.629374 1_555
Rh17 Sc45 2.839579 1_555
Rh17 Sc96 2.923202 1_555
Rh17 Sc103 2.923202 1_555
Rh17 Sc17 2.926140 1_555
Rh17 Sc93 3.061735 1_555
Rh17 Sc104 3.061735 1_555
Rh17 Sc18 3.370162 1_555
Rh17 Sc28 3.370162 1_555
Rh17 Sc89 3.438497 1_555
Rh17 Sc66 3.438497 1_555
Rh18 Sc58 2.626093 1_555
Rh18 Sc11 2.629374 1_555
Rh18 Sc46 2.839579 1_555
Rh18 Sc113 2.923202 1_555
Rh18 Sc99 2.923202 1_555
Rh18 Sc16 2.926140 1_555
Rh18 Sc94 3.061735 1_555
Rh18 Sc108 3.061735 1_555
Rh18 Sc23 3.370162 1_555
Rh18 Sc21 3.370162 1_555
Rh18 Sc69 3.438497 1_555
Rh18 Sc86 3.438497 1_555
Rh19 Sc59 2.626093 1_555
Rh19 Sc9 2.629374 1_555
Rh19 Sc47 2.839579 1_555
Rh19 Sc97 2.923202 1_555
Rh19 Sc106 2.923202 1_555
Rh19 Sc17 2.926140 1_555
Rh19 Sc110 3.061735 1_555
Rh19 Sc95 3.061735 1_555
Rh19 Sc29 3.370162 1_555
Rh19 Sc27 3.370162 1_555
Rh19 Sc75 3.438497 1_555
Rh19 Sc88 3.438497 1_555
Rh20 Sc60 2.626093 1_555
Rh20 Sc6 2.629374 1_556
Rh20 Sc48 2.839579 1_555
Rh20 Sc101 2.923202 1_555
Rh20 Sc111 2.923202 1_555
Rh20 Sc14 2.926140 1_555
Rh20 Sc96 3.061735 1_555
Rh20 Sc106 3.061735 1_555
Rh20 Sc20 3.370162 1_556
Rh20 Sc26 3.370162 1_556
Rh20 Sc74 3.438497 1_555
Rh20 Sc81 3.438497 1_555
Rh21 Sc61 2.626093 1_555
Rh21 Sc6 2.629374 1_555
Rh21 Sc49 2.839579 1_555
Rh21 Sc102 2.923202 1_555
Rh21 Sc100 2.923202 1_555
Rh21 Sc16 2.926140 1_555
Rh21 Sc103 3.061735 1_555
Rh21 Sc97 3.061735 1_555
Rh21 Sc20 3.370162 1_555
Rh21 Sc26 3.370162 1_555
Rh21 Sc83 3.438497 1_555
Rh21 Sc68 3.438497 1_555
Rh22 Sc62 2.626093 1_555
Rh22 Sc7 2.629374 1_655
Rh22 Sc50 2.839579 1_555
Rh22 Sc109 2.923202 1_555
Rh22 Sc94 2.923202 1_555
Rh22 Sc12 2.926140 1_555
Rh22 Sc107 3.061735 1_555
Rh22 Sc98 3.061735 1_555
Rh22 Sc18 3.370162 1_655
Rh22 Sc28 3.370162 1_655
Rh22 Sc76 3.438497 1_555
Rh22 Sc87 3.438497 1_555
Rh23 Sc63 2.626093 1_555
Rh23 Sc8 2.629374 1_555
Rh23 Sc51 2.839579 1_555
Rh23 Sc104 2.923202 1_555
Rh23 Sc98 2.923202 1_555
Rh23 Sc15 2.926140 1_555
Rh23 Sc102 3.061735 1_555
Rh23 Sc99 3.061735 1_555
Rh23 Sc19 3.370162 1_555
Rh23 Sc24 3.370162 1_555
Rh23 Sc82 3.438497 1_555
Rh23 Sc67 3.438497 1_555
Rh24 Sc64 2.626093 1_555
Rh24 Sc8 2.629374 1_565
Rh24 Sc52 2.839579 1_555
Rh24 Sc95 2.923202 1_555
Rh24 Sc105 2.923202 1_555
Rh24 Sc13 2.926140 1_555
Rh24 Sc100 3.061735 1_555
Rh24 Sc113 3.061735 1_555
Rh24 Sc19 3.370162 1_565
Rh24 Sc24 3.370162 1_565
Rh24 Sc72 3.438497 1_555
Rh24 Sc85 3.438497 1_555
Rh25 Sc65 2.626093 1_555
Rh25 Sc10 2.629374 1_555
Rh25 Sc53 2.839579 1_555
Rh25 Sc93 2.923202 1_555
Rh25 Sc107 2.923202 1_555
Rh25 Sc15 2.926140 1_555
Rh25 Sc112 3.061735 1_555
Rh25 Sc101 3.061735 1_555
Rh25 Sc22 3.370162 1_555
Rh25 Sc25 3.370162 1_555
Rh25 Sc73 3.438497 1_555
Rh25 Sc84 3.438497 1_555
