# generated using pymatgen
data_Sc4V2TcOs5
_symmetry_space_group_name_H-M   'P 1'
_cell_length_a   5.06187243
_cell_length_b   5.20495186
_cell_length_c   8.64348856
_cell_angle_alpha   90.00000000
_cell_angle_beta   90.00000000
_cell_angle_gamma   119.90899005
_symmetry_Int_Tables_number   1
_chemical_formula_structural   Sc4V2TcOs5
_chemical_formula_sum   'Sc4 V2 Tc1 Os5'
_cell_volume   197.39909499
_cell_formula_units_Z   1
loop_
 _symmetry_equiv_pos_site_id
 _symmetry_equiv_pos_as_xyz
  1  'x, y, z'
loop_
 _atom_site_type_symbol
 _atom_site_label
 _atom_site_symmetry_multiplicity
 _atom_site_fract_x
 _atom_site_fract_y
 _atom_site_fract_z
 _atom_site_occupancy
  Sc  Sc0  1  0.33692073  0.67131049  0.43537938  1
  Sc  Sc1  1  0.66289484  0.32990965  0.55985248  1
  Sc  Sc2  1  0.66289484  0.32990965  0.94014752  1
  Sc  Sc3  1  0.33692073  0.67131049  0.06462062  1
  V  V0  1  0.16810411  0.82807180  0.75000000  1
  V  V1  1  0.33904841  0.16900651  0.25000000  1
  Tc  Tc0  1  0.17057395  0.34560179  0.75000000  1
  Os  Os0  1  0.82675646  0.65286217  0.25000000  1
  Os  Os1  1  0.64866375  0.82356010  0.75000000  1
  Os  Os2  1  0.00837527  0.00279464  0.99839821  1
  Os  Os3  1  0.83046965  0.17286606  0.25000000  1
  Os  Os4  1  0.00837527  0.00279464  0.50160179  1
loop_
_geom_bond_atom_site_label_1
_geom_bond_atom_site_label_2
_geom_bond_distance
_geom_bond_site_symmetry_2
Sc0 V1 3.041438 1_565
Sc0 V1 3.071007 1_555
Sc0 V0 3.080021 1_555
Sc0 Tc0 3.091073 1_555
Sc0 Sc1 3.147970 1_455
Sc0 Sc1 3.156232 1_555
Sc0 Sc1 3.160767 1_565
Sc0 Sc3 3.204649 1_555
Sc1 Tc0 3.017032 1_655
Sc1 Tc0 3.020143 1_555
Sc1 V1 3.031879 1_555
Sc1 V0 3.045129 1_545
Sc1 V0 3.058038 1_655
Sc1 Sc2 3.287076 1_555
Sc2 Tc0 3.017032 1_655
Sc2 Tc0 3.020143 1_555
Sc2 V1 3.031879 1_556
Sc2 V0 3.045129 1_545
Sc2 V0 3.058038 1_655
Sc2 Sc3 3.147970 1_656
Sc2 Sc3 3.156232 1_556
Sc2 Sc3 3.160767 1_546
Sc3 V1 3.041438 1_565
Sc3 V1 3.071007 1_555
Sc3 V0 3.080021 1_554
Sc3 Tc0 3.091073 1_554
Tc0 V0 2.517490 1_555
Tc0 V0 2.687507 1_545
Os0 V1 2.497381 1_555
Os0 Os3 2.507782 1_555
Os0 V1 2.644697 1_665
Os0 Os4 2.687406 1_665
Os0 Os2 2.687406 1_664
Os0 Os3 2.697272 1_565
Os0 Sc0 2.993651 1_555
Os0 Sc3 2.993651 1_555
Os0 Sc0 2.999683 1_655
Os0 Sc3 2.999683 1_655
Os0 Sc1 3.048926 1_555
Os0 Sc2 3.048926 1_554
Os1 V0 2.444326 1_555
Os1 Tc0 2.457964 1_555
Os1 V0 2.617711 1_655
Os1 Os2 2.664851 1_665
Os1 Os4 2.664851 1_665
Os1 Tc0 2.684000 1_665
Os1 Sc3 3.044055 1_556
Os1 Sc0 3.044055 1_555
Os1 Sc2 3.076210 1_565
Os1 Sc1 3.076210 1_565
Os1 Sc2 3.081062 1_555
Os1 Sc1 3.081062 1_555
Os2 V0 2.612233 1_545
Os2 V1 2.614468 1_556
Os2 Tc0 2.646998 1_555
Os2 Os3 2.668133 1_456
Os2 Sc2 2.916093 1_555
Os2 Sc3 2.988598 1_546
Os2 Sc3 3.001402 1_446
Os2 Sc2 3.029841 1_455
Os2 Sc3 3.070851 1_556
Os2 Sc2 3.077356 1_445
Os3 V1 2.477556 1_555
Os3 V1 2.584436 1_655
Os3 Os4 2.668133 1_655
Os3 Sc0 3.019926 1_545
Os3 Sc3 3.019926 1_545
Os3 Sc0 3.039346 1_655
Os3 Sc3 3.039346 1_655
Os3 Sc1 3.041694 1_555
Os3 Sc2 3.041694 1_554
Os4 V0 2.612233 1_545
Os4 V1 2.614468 1_555
Os4 Tc0 2.646998 1_555
Os4 Sc1 2.916093 1_555
Os4 Sc0 2.988598 1_545
Os4 Sc0 3.001402 1_445
Os4 Sc1 3.029841 1_455
Os4 Sc0 3.070851 1_555
Os4 Sc1 3.077356 1_445
