# generated using pymatgen
data_BaScTc4N7
_symmetry_space_group_name_H-M   'P 1'
_cell_length_a   6.29515067
_cell_length_b   6.29515121
_cell_length_c   10.23516922
_cell_angle_alpha   90.00000000
_cell_angle_beta   90.00000000
_cell_angle_gamma   119.99993239
_symmetry_Int_Tables_number   1
_chemical_formula_structural   BaScTc4N7
_chemical_formula_sum   'Ba2 Sc2 Tc8 N14'
_cell_volume   351.26772691
_cell_formula_units_Z   2
loop_
 _symmetry_equiv_pos_site_id
 _symmetry_equiv_pos_as_xyz
  1  'x, y, z'
loop_
 _atom_site_type_symbol
 _atom_site_label
 _atom_site_symmetry_multiplicity
 _atom_site_fract_x
 _atom_site_fract_y
 _atom_site_fract_z
 _atom_site_occupancy
  Ba  Ba0  1  0.66666614  0.33333267  0.56560469  1
  Ba  Ba1  1  0.33333386  0.66666733  0.06560469  1
  Sc  Sc0  1  0.66666580  0.33333325  0.94462694  1
  Sc  Sc1  1  0.33333420  0.66666675  0.44462694  1
  Tc  Tc0  1  0.16442750  0.32885508  0.75991045  1
  Tc  Tc1  1  0.83557240  0.16442718  0.25990999  1
  Tc  Tc2  1  0.32885471  0.16442695  0.25991002  1
  Tc  Tc3  1  0.67114529  0.83557305  0.75991002  1
  Tc  Tc4  1  0.16442760  0.83557282  0.75990999  1
  Tc  Tc5  1  0.83557250  0.67114492  0.25991045  1
  Tc  Tc6  1  0.00000131  0.00000202  0.06618767  1
  Tc  Tc7  1  0.99999869  0.99999798  0.56618767  1
  N  N0  1  0.99999907  0.00000049  0.84527145  1
  N  N1  1  0.00000093  0.99999951  0.34527145  1
  N  N2  1  0.82775328  0.65550810  0.07039718  1
  N  N3  1  0.17224766  0.82775312  0.57039566  1
  N  N4  1  0.65550697  0.82775299  0.57039718  1
  N  N5  1  0.34449303  0.17224701  0.07039718  1
  N  N6  1  0.82775234  0.17224688  0.07039566  1
  N  N7  1  0.17224672  0.34449190  0.57039718  1
  N  N8  1  0.49459378  0.50540715  0.82006996  1
  N  N9  1  0.98918806  0.49459500  0.32006983  1
  N  N10  1  0.50540447  0.01081164  0.32006998  1
  N  N11  1  0.49459553  0.98918836  0.82006998  1
  N  N12  1  0.50540622  0.49459285  0.32006996  1
  N  N13  1  0.01081194  0.50540500  0.82006983  1
loop_
_geom_bond_atom_site_label_1
_geom_bond_atom_site_label_2
_geom_bond_distance
_geom_bond_site_symmetry_2
Ba0 N12 3.067123 1_555
Ba0 N10 3.067127 1_555
Ba0 N9 3.067131 1_555
Ba0 N7 3.148539 1_555
Ba0 N3 3.148542 1_545
Ba0 N4 3.148545 1_555
Ba0 N4 3.148546 1_545
Ba0 N7 3.148551 1_655
Ba0 N3 3.148555 1_655
Ba0 N11 3.209906 1_545
Ba0 N13 3.209910 1_655
Ba0 N8 3.209913 1_555
Ba1 N8 3.067123 1_554
Ba1 N11 3.067127 1_554
Ba1 N13 3.067131 1_554
Ba1 N2 3.148539 1_555
Ba1 N6 3.148542 1_565
Ba1 N5 3.148545 1_555
Ba1 N5 3.148546 1_565
Ba1 N2 3.148551 1_455
Ba1 N6 3.148555 1_455
Ba1 N10 3.209906 1_565
Ba1 N9 3.209910 1_455
Ba1 N12 3.209913 1_555
N0 Tc3 1.994388 1_545
N0 Tc0 1.994390 1_655
N0 Tc4 1.994398 1_645
N0 Tc6 2.261115 1_656
N1 Tc2 1.994388 1_565
N1 Tc5 1.994390 1_455
N1 Tc1 1.994398 1_465
N1 Tc7 2.261115 1_455
N2 Tc6 1.878594 1_665
N2 Tc5 1.941573 1_555
N2 Sc0 2.177638 1_554
N3 Tc7 1.878591 1_455
N3 Tc4 1.941584 1_555
N3 Sc1 2.177618 1_555
N4 Tc7 1.878582 1_555
N4 Tc3 1.941569 1_555
N4 Sc1 2.177628 1_555
N5 Tc6 1.878582 1_555
N5 Tc2 1.941569 1_555
N5 Sc0 2.177628 1_554
N6 Tc6 1.878591 1_655
N6 Tc1 1.941584 1_555
N6 Sc0 2.177618 1_554
N7 Tc7 1.878594 1_445
N7 Tc0 1.941573 1_555
N7 Sc1 2.177638 1_555
N8 Tc3 1.903762 1_555
N8 Tc0 1.903762 1_555
N8 Sc0 2.268348 1_555
N9 Tc5 1.903756 1_555
N9 Tc1 1.903771 1_555
N9 Sc1 2.268351 1_655
N10 Tc2 1.903756 1_555
N10 Tc1 1.903772 1_555
N10 Sc1 2.268345 1_545
N11 Tc3 1.903756 1_555
N11 Tc4 1.903772 1_555
N11 Sc0 2.268345 1_565
N12 Tc2 1.903762 1_555
N12 Tc5 1.903762 1_555
N12 Sc1 2.268348 1_555
N13 Tc0 1.903756 1_555
N13 Tc4 1.903771 1_555
N13 Sc0 2.268351 1_455
