# generated using pymatgen
data_BaSb12Ru3Pt
_symmetry_space_group_name_H-M   'P 1'
_cell_length_a   8.13865436
_cell_length_b   8.13865392
_cell_length_c   8.15146187
_cell_angle_alpha   109.50310766
_cell_angle_beta   109.50310657
_cell_angle_gamma   109.43931353
_symmetry_Int_Tables_number   1
_chemical_formula_structural   BaSb12Ru3Pt
_chemical_formula_sum   'Ba1 Sb12 Ru3 Pt1'
_cell_volume   415.47773075
_cell_formula_units_Z   1
loop_
 _symmetry_equiv_pos_site_id
 _symmetry_equiv_pos_as_xyz
  1  'x, y, z'
loop_
 _atom_site_type_symbol
 _atom_site_label
 _atom_site_symmetry_multiplicity
 _atom_site_fract_x
 _atom_site_fract_y
 _atom_site_fract_z
 _atom_site_occupancy
  Ba  Ba0  1  0.00000000  0.00000000  0.00000000  1
  Sb  Sb0  1  0.15986108  0.80987009  0.65898278  1
  Sb  Sb1  1  0.15886164  0.49980226  0.34006527  1
  Sb  Sb2  1  0.50019774  0.65905938  0.84026301  1
  Sb  Sb3  1  0.34094062  0.84113836  0.18120363  1
  Sb  Sb4  1  0.80987009  0.65000900  0.15088730  1
  Sb  Sb5  1  0.65000900  0.84013892  0.49912170  1
  Sb  Sb6  1  0.19012991  0.34999100  0.84911270  1
  Sb  Sb7  1  0.65905938  0.15886164  0.81879637  1
  Sb  Sb8  1  0.34999100  0.15986108  0.50087830  1
  Sb  Sb9  1  0.49980226  0.34094062  0.15973699  1
  Sb  Sb10  1  0.84113836  0.50019774  0.65993473  1
  Sb  Sb11  1  0.84013892  0.19012991  0.34101722  1
  Ru  Ru0  1  0.50000000  0.50000000  0.50000000  1
  Ru  Ru1  1  0.50000000  0.00000000  0.00000000  1
  Ru  Ru2  1  0.00000000  0.50000000  0.00000000  1
  Pt  Pt0  1  0.00000000  0.00000000  0.50000000  1
loop_
_geom_bond_atom_site_label_1
_geom_bond_atom_site_label_2
_geom_bond_distance
_geom_bond_site_symmetry_2
Ba0 Sb1 3.532609 1_555
Ba0 Sb10 3.532609 1_444
Ba0 Sb3 3.532609 1_545
Ba0 Sb7 3.532609 1_454
Ba0 Sb9 3.532610 1_555
Ba0 Sb2 3.532610 1_444
Ba0 Sb8 3.563317 1_555
Ba0 Sb5 3.563317 1_444
Ba0 Sb11 3.563317 1_455
Ba0 Sb0 3.563317 1_544
Ba0 Sb6 3.563317 1_554
Ba0 Sb4 3.563317 1_445
Sb0 Sb1 2.952668 1_555
Sb0 Sb10 2.959003 1_455
Sb1 Sb11 2.959003 1_455
Sb2 Sb6 2.952668 1_555
Sb2 Sb4 2.959002 1_556
Sb3 Sb5 2.952668 1_555
Sb3 Sb8 2.959002 1_565
Sb4 Sb9 2.952668 1_555
Sb5 Sb7 2.959002 1_565
Sb6 Sb9 2.959002 1_556
Sb7 Sb8 2.952668 1_555
Sb10 Sb11 2.952668 1_555
Ru0 Sb5 2.631235 1_555
Ru0 Sb8 2.631235 1_555
Ru0 Sb2 2.639517 1_555
Ru0 Sb9 2.639517 1_555
Ru0 Sb10 2.643262 1_555
Ru0 Sb1 2.643262 1_555
Ru1 Sb11 2.631234 1_555
Ru1 Sb0 2.631234 1_544
Ru1 Sb3 2.639518 1_545
Ru1 Sb7 2.639518 1_554
Ru1 Sb9 2.643262 1_555
Ru1 Sb2 2.643262 1_544
Ru2 Sb4 2.631234 1_455
Ru2 Sb6 2.631234 1_554
Ru2 Sb1 2.639517 1_555
Ru2 Sb10 2.639517 1_454
Ru2 Sb3 2.643262 1_555
Ru2 Sb7 2.643262 1_454
Pt0 Sb6 2.705528 1_555
Pt0 Sb4 2.705528 1_445
Pt0 Sb0 2.705528 1_545
Pt0 Sb11 2.705528 1_455
Pt0 Sb8 2.705529 1_555
Pt0 Sb5 2.705529 1_445
