# generated using pymatgen
data_Rb2Cr(CuSe2)2
_symmetry_space_group_name_H-M   'P 1'
_cell_length_a   5.84437263
_cell_length_b   5.84437263
_cell_length_c   13.55432844
_cell_angle_alpha   90.00000000
_cell_angle_beta   90.00000000
_cell_angle_gamma   90.00000000
_symmetry_Int_Tables_number   1
_chemical_formula_structural   Rb2Cr(CuSe2)2
_chemical_formula_sum   'Rb4 Cr2 Cu4 Se8'
_cell_volume   462.97101438
_cell_formula_units_Z   2
loop_
 _symmetry_equiv_pos_site_id
 _symmetry_equiv_pos_as_xyz
  1  'x, y, z'
loop_
 _atom_site_type_symbol
 _atom_site_label
 _atom_site_symmetry_multiplicity
 _atom_site_fract_x
 _atom_site_fract_y
 _atom_site_fract_z
 _atom_site_occupancy
  Rb  Rb0  1  0.75660109  0.75660109  0.00000000  1
  Rb  Rb1  1  0.24339891  0.75660109  0.50000000  1
  Rb  Rb2  1  0.75660109  0.24339891  0.50000000  1
  Rb  Rb3  1  0.24339891  0.24339891  0.00000000  1
  Cr  Cr0  1  0.50000000  0.50000000  0.25000000  1
  Cr  Cr1  1  0.50000000  0.50000000  0.75000000  1
  Cu  Cu0  1  0.00000000  0.50000000  0.75000000  1
  Cu  Cu1  1  0.50000000  0.00000000  0.75000000  1
  Cu  Cu2  1  0.50000000  0.00000000  0.25000000  1
  Cu  Cu3  1  0.00000000  0.50000000  0.25000000  1
  Se  Se0  1  0.73593885  0.26406115  0.15393950  1
  Se  Se1  1  0.73593885  0.73593885  0.34606050  1
  Se  Se2  1  0.26406115  0.26406115  0.65393950  1
  Se  Se3  1  0.73593885  0.73593885  0.65393950  1
  Se  Se4  1  0.26406115  0.26406115  0.34606050  1
  Se  Se5  1  0.73593885  0.26406115  0.84606050  1
  Se  Se6  1  0.26406115  0.73593885  0.84606050  1
  Se  Se7  1  0.26406115  0.73593885  0.15393950  1
loop_
_geom_bond_atom_site_label_1
_geom_bond_atom_site_label_2
_geom_bond_distance
_geom_bond_site_symmetry_2
Rb0 Se0 3.557319 1_555
Rb0 Se7 3.557319 1_555
Rb0 Se5 3.557319 1_554
Rb0 Se6 3.557319 1_554
Rb0 Se7 3.628242 1_655
Rb0 Se0 3.628242 1_565
Rb0 Se5 3.628242 1_564
Rb0 Se6 3.628242 1_654
Rb1 Se2 3.557319 1_555
Rb1 Se3 3.557319 1_555
Rb1 Se4 3.557319 1_555
Rb1 Se1 3.557319 1_555
Rb1 Se3 3.628242 1_455
Rb1 Se2 3.628242 1_565
Rb1 Se1 3.628242 1_455
Rb1 Se4 3.628242 1_565
Rb2 Se2 3.557319 1_555
Rb2 Se3 3.557319 1_555
Rb2 Se4 3.557319 1_555
Rb2 Se1 3.557319 1_555
Rb2 Se3 3.628242 1_545
Rb2 Se2 3.628242 1_655
Rb2 Se1 3.628242 1_545
Rb2 Se4 3.628242 1_655
Rb3 Se0 3.557319 1_555
Rb3 Se7 3.557319 1_555
Rb3 Se6 3.557319 1_554
Rb3 Se5 3.557319 1_554
Rb3 Se0 3.628242 1_455
Rb3 Se7 3.628242 1_545
Rb3 Se5 3.628242 1_454
Rb3 Se6 3.628242 1_544
Cr0 Se1 2.344804 1_555
Cr0 Se4 2.344804 1_555
Cr0 Se0 2.344804 1_555
Cr0 Se7 2.344804 1_555
Cr1 Se6 2.344804 1_555
Cr1 Se5 2.344804 1_555
Cr1 Se3 2.344804 1_555
Cr1 Se2 2.344804 1_555
Cu0 Se6 2.445075 1_555
Cu0 Se5 2.445075 1_455
Cu0 Se3 2.445075 1_455
Cu0 Se2 2.445075 1_555
Cu1 Se5 2.445075 1_555
Cu1 Se6 2.445075 1_545
Cu1 Se3 2.445075 1_545
Cu1 Se2 2.445075 1_555
Cu2 Se4 2.445075 1_555
Cu2 Se1 2.445075 1_545
Cu2 Se0 2.445075 1_555
Cu2 Se7 2.445075 1_545
Cu3 Se1 2.445075 1_455
Cu3 Se4 2.445075 1_555
Cu3 Se7 2.445075 1_555
Cu3 Se0 2.445075 1_455
