# generated using pymatgen
data_Ag2HgF8
_symmetry_space_group_name_H-M   'P 1'
_cell_length_a   5.54924118
_cell_length_b   5.54924118
_cell_length_c   10.62794876
_cell_angle_alpha   90.00000000
_cell_angle_beta   90.00000000
_cell_angle_gamma   90.00000000
_symmetry_Int_Tables_number   1
_chemical_formula_structural   Ag2HgF8
_chemical_formula_sum   'Ag4 Hg2 F16'
_cell_volume   327.27787945
_cell_formula_units_Z   2
loop_
 _symmetry_equiv_pos_site_id
 _symmetry_equiv_pos_as_xyz
  1  'x, y, z'
loop_
 _atom_site_type_symbol
 _atom_site_label
 _atom_site_symmetry_multiplicity
 _atom_site_fract_x
 _atom_site_fract_y
 _atom_site_fract_z
 _atom_site_occupancy
  Ag  Ag0  1  0.50000000  0.00000000  0.50000000  1
  Ag  Ag1  1  0.00000000  0.50000000  0.50000000  1
  Ag  Ag2  1  0.50000000  0.00000000  0.00000000  1
  Ag  Ag3  1  0.00000000  0.50000000  0.00000000  1
  Hg  Hg0  1  0.00000000  0.00000000  0.75000000  1
  Hg  Hg1  1  0.00000000  0.00000000  0.25000000  1
  F  F0  1  0.68837993  0.83153352  0.62507299  1
  F  F1  1  0.31162007  0.16846648  0.62507299  1
  F  F2  1  0.83153352  0.68837993  0.87492701  1
  F  F3  1  0.83153352  0.31162007  0.62507299  1
  F  F4  1  0.16846648  0.68837993  0.62507299  1
  F  F5  1  0.31162007  0.83153352  0.87492701  1
  F  F6  1  0.83153352  0.68837993  0.12507299  1
  F  F7  1  0.31162007  0.83153352  0.12507299  1
  F  F8  1  0.68837993  0.16846648  0.12507299  1
  F  F9  1  0.83153352  0.31162007  0.37492701  1
  F  F10  1  0.16846648  0.68837993  0.37492701  1
  F  F11  1  0.16846648  0.31162007  0.12507299  1
  F  F12  1  0.68837993  0.83153352  0.37492701  1
  F  F13  1  0.31162007  0.16846648  0.37492701  1
  F  F14  1  0.16846648  0.31162007  0.87492701  1
  F  F15  1  0.68837993  0.16846648  0.87492701  1
loop_
_geom_bond_atom_site_label_1
_geom_bond_atom_site_label_2
_geom_bond_distance
_geom_bond_site_symmetry_2
Ag0 F0 1.932281 1_545
Ag0 F1 1.932281 1_555
Ag0 F12 1.932281 1_545
Ag0 F13 1.932281 1_555
Ag1 F4 1.932281 1_555
Ag1 F3 1.932281 1_455
Ag1 F10 1.932281 1_555
Ag1 F9 1.932281 1_455
Ag2 F8 1.932281 1_555
Ag2 F7 1.932281 1_545
Ag2 F15 1.932281 1_554
Ag2 F5 1.932281 1_544
Ag3 F6 1.932281 1_455
Ag3 F11 1.932281 1_555
Ag3 F2 1.932281 1_454
Ag3 F14 1.932281 1_554
F0 Hg0 2.372156 1_665
F1 Hg0 2.372156 1_555
F2 Hg0 2.372156 1_665
F3 Hg0 2.372156 1_655
F4 Hg0 2.372156 1_565
F5 Hg0 2.372156 1_565
F6 Hg1 2.372156 1_665
F7 Hg1 2.372156 1_565
F8 Hg1 2.372156 1_655
F9 Hg1 2.372156 1_655
F10 Hg1 2.372156 1_565
F11 Hg1 2.372156 1_555
F12 Hg1 2.372156 1_665
F13 Hg1 2.372156 1_555
F14 Hg0 2.372156 1_555
F15 Hg0 2.372156 1_655
