# generated using pymatgen
data_Y20Ir5Ru4Rh3
_symmetry_space_group_name_H-M   'P 1'
_cell_length_a   10.80630489
_cell_length_b   10.80630489
_cell_length_c   6.46491308
_cell_angle_alpha   90.01225422
_cell_angle_beta   90.01225422
_cell_angle_gamma   90.09724709
_symmetry_Int_Tables_number   1
_chemical_formula_structural   Y20Ir5Ru4Rh3
_chemical_formula_sum   'Y20 Ir5 Ru4 Rh3'
_cell_volume   754.94702511
_cell_formula_units_Z   1
loop_
 _symmetry_equiv_pos_site_id
 _symmetry_equiv_pos_as_xyz
  1  'x, y, z'
loop_
 _atom_site_type_symbol
 _atom_site_label
 _atom_site_symmetry_multiplicity
 _atom_site_fract_x
 _atom_site_fract_y
 _atom_site_fract_z
 _atom_site_occupancy
  Y  Y0  1  0.29355303  0.08576615  0.38388872  1
  Y  Y1  1  0.29396497  0.91102121  0.88491518  1
  Y  Y2  1  0.70484225  0.08815548  0.88376305  1
  Y  Y3  1  0.70463684  0.91125567  0.38267996  1
  Y  Y4  1  0.58581832  0.79308624  0.88532988  1
  Y  Y5  1  0.58559112  0.20622252  0.38387284  1
  Y  Y6  1  0.41237796  0.79316356  0.38438898  1
  Y  Y7  1  0.41312905  0.20600181  0.88337762  1
  Y  Y8  1  0.20691376  0.41418168  0.61467012  1
  Y  Y9  1  0.20683644  0.58762204  0.11561102  1
  Y  Y10  1  0.79377748  0.41440888  0.11612716  1
  Y  Y11  1  0.79399819  0.58687095  0.61662238  1
  Y  Y12  1  0.91423385  0.70644697  0.11611128  1
  Y  Y13  1  0.91184452  0.29515775  0.61623695  1
  Y  Y14  1  0.08897879  0.70603503  0.61508482  1
  Y  Y15  1  0.08874433  0.29536316  0.11732004  1
  Y  Y16  1  0.99912621  0.99999411  0.49991449  1
  Y  Y17  1  0.00000589  0.00087379  0.00008551  1
  Y  Y18  1  0.50016275  0.49913770  0.00011865  1
  Y  Y19  1  0.50086230  0.49983725  0.49988135  1
  Ir  Ir0  1  0.15144945  0.84855055  0.25000000  1
  Ir  Ir1  1  0.65299591  0.34700409  0.75000000  1
  Ir  Ir2  1  0.65359983  0.65220832  0.24952357  1
  Ir  Ir3  1  0.34779168  0.34640017  0.25047643  1
  Ir  Ir4  1  0.34814361  0.65185639  0.75000000  1
  Ru  Ru0  1  0.50012456  0.00007799  0.13281791  1
  Ru  Ru1  1  0.50036622  0.99980851  0.63323489  1
  Ru  Ru2  1  0.00019149  0.49963378  0.86676511  1
  Ru  Ru3  1  0.99992201  0.49987544  0.36718209  1
  Rh  Rh0  1  0.84854569  0.15145431  0.25000000  1
  Rh  Rh1  1  0.84690317  0.84943068  0.75061760  1
  Rh  Rh2  1  0.15056932  0.15309683  0.74938240  1
loop_
_geom_bond_atom_site_label_1
_geom_bond_atom_site_label_2
_geom_bond_distance
_geom_bond_site_symmetry_2
Ir0 Y17 2.829721 1_565
Ir0 Y16 2.829721 1_455
Ir0 Y1 2.897754 1_554
Ir0 Y14 2.897754 1_555
Ir0 Y6 3.011400 1_555
Ir0 Y9 3.011400 1_555
Ir0 Y0 3.108633 1_565
Ir0 Y12 3.108633 1_455
Ir1 Y18 2.838009 1_556
Ir1 Y19 2.838009 1_555
Ir1 Y10 2.905436 1_556
Ir1 Y5 2.905436 1_555
Ir1 Y2 2.981976 1_555
Ir1 Y13 2.981976 1_555
Ir1 Y7 3.126049 1_555
Ir1 Y11 3.126049 1_555
Ir2 Y19 2.836929 1_555
Ir2 Y18 2.841403 1_555
Ir2 Y4 2.898668 1_554
Ir2 Y11 2.904403 1_555
Ir2 Y3 2.979108 1_555
Ir2 Y12 3.002618 1_555
Ir2 Y10 3.107202 1_555
Ir2 Y6 3.144711 1_555
Ir3 Y18 2.836929 1_555
Ir3 Y19 2.841403 1_555
Ir3 Y8 2.898668 1_555
Ir3 Y7 2.904403 1_554
Ir3 Y15 2.979108 1_555
Ir3 Y0 3.002618 1_555
Ir3 Y5 3.107202 1_555
Ir3 Y9 3.144711 1_555
Ir4 Y19 2.836570 1_555
Ir4 Y18 2.836570 1_556
Ir4 Y9 2.898109 1_556
Ir4 Y6 2.898109 1_555
Ir4 Y1 2.991941 1_555
Ir4 Y14 2.991941 1_555
Ir4 Y4 3.110693 1_555
Ir4 Y8 3.110693 1_555
Ru0 Y2 2.896107 1_554
Ru0 Y3 2.901920 1_545
Ru0 Y4 2.902926 1_544
Ru0 Y5 2.905268 1_555
Ru0 Y7 2.905880 1_554
Ru0 Y1 2.906621 1_544
Ru0 Y0 2.912562 1_555
Ru0 Y6 2.922134 1_545
Ru1 Y2 2.899623 1_565
Ru1 Y5 2.901329 1_565
Ru1 Y3 2.901761 1_555
Ru1 Y0 2.908993 1_565
Ru1 Y6 2.910224 1_555
Ru1 Y7 2.911176 1_565
Ru1 Y4 2.916694 1_555
Ru1 Y1 2.921950 1_555
Ru2 Y13 2.899623 1_455
Ru2 Y10 2.901329 1_456
Ru2 Y15 2.901761 1_556
Ru2 Y12 2.908993 1_456
Ru2 Y9 2.910224 1_556
Ru2 Y11 2.911176 1_455
Ru2 Y8 2.916694 1_555
Ru2 Y14 2.921950 1_555
Ru3 Y13 2.896107 1_555
Ru3 Y15 2.901920 1_655
Ru3 Y8 2.902926 1_655
Ru3 Y10 2.905268 1_555
Ru3 Y11 2.905880 1_555
Ru3 Y14 2.906621 1_655
Ru3 Y12 2.912562 1_555
Ru3 Y9 2.922134 1_655
Rh0 Y16 2.818894 1_545
Rh0 Y17 2.818894 1_655
Rh0 Y13 2.911956 1_555
Rh0 Y2 2.911956 1_554
Rh0 Y5 3.029913 1_555
Rh0 Y10 3.029913 1_555
Rh0 Y3 3.143157 1_545
Rh0 Y15 3.143157 1_655
Rh1 Y16 2.823695 1_555
Rh1 Y17 2.829342 1_666
Rh1 Y3 2.910433 1_555
Rh1 Y12 2.916278 1_556
Rh1 Y4 3.014089 1_555
Rh1 Y11 3.020062 1_555
Rh1 Y2 3.125013 1_565
Rh1 Y14 3.166425 1_655
Rh2 Y17 2.823695 1_556
Rh2 Y16 2.829342 1_445
Rh2 Y15 2.910433 1_556
Rh2 Y0 2.916278 1_555
Rh2 Y8 3.014089 1_555
Rh2 Y7 3.020062 1_555
Rh2 Y13 3.125013 1_455
Rh2 Y1 3.166425 1_545
