# generated using pymatgen
data_TiAl(MoC)2
_symmetry_space_group_name_H-M   'P 1'
_cell_length_a   2.98857048
_cell_length_b   2.98857111
_cell_length_c   18.76339480
_cell_angle_alpha   90.00000000
_cell_angle_beta   90.00000000
_cell_angle_gamma   120.00001499
_symmetry_Int_Tables_number   1
_chemical_formula_structural   TiAl(MoC)2
_chemical_formula_sum   'Ti2 Al2 Mo4 C4'
_cell_volume   145.13397131
_cell_formula_units_Z   2
loop_
 _symmetry_equiv_pos_site_id
 _symmetry_equiv_pos_as_xyz
  1  'x, y, z'
loop_
 _atom_site_type_symbol
 _atom_site_label
 _atom_site_symmetry_multiplicity
 _atom_site_fract_x
 _atom_site_fract_y
 _atom_site_fract_z
 _atom_site_occupancy
  Ti  Ti0  1  0.00000000  0.00000000  0.50000000  1
  Ti  Ti1  1  0.00000000  0.00000000  0.00000000  1
  Al  Al0  1  0.00000000  0.00000000  0.75000000  1
  Al  Al1  1  0.00000000  0.00000000  0.25000000  1
  Mo  Mo0  1  0.66666700  0.33333300  0.36643030  1
  Mo  Mo1  1  0.33333300  0.66666700  0.86643030  1
  Mo  Mo2  1  0.33333300  0.66666700  0.63356970  1
  Mo  Mo3  1  0.66666700  0.33333300  0.13356970  1
  C  C0  1  0.33333300  0.66666700  0.43160960  1
  C  C1  1  0.66666700  0.33333300  0.93160960  1
  C  C2  1  0.33333300  0.66666700  0.06839040  1
  C  C3  1  0.66666700  0.33333300  0.56839040  1
loop_
_geom_bond_atom_site_label_1
_geom_bond_atom_site_label_2
_geom_bond_distance
_geom_bond_site_symmetry_2
Al0 Mo1 2.783842 1_545
Al0 Mo2 2.783842 1_545
Al0 Mo1 2.783844 1_445
Al0 Mo2 2.783844 1_445
Al0 Mo1 2.783844 1_555
Al0 Mo2 2.783844 1_555
Al1 Mo0 2.783842 1_455
Al1 Mo3 2.783842 1_455
Al1 Mo0 2.783844 1_555
Al1 Mo3 2.783844 1_555
Al1 Mo0 2.783844 1_445
Al1 Mo3 2.783844 1_445
C0 Mo0 2.114916 1_455
C0 Mo0 2.114916 1_565
C0 Mo0 2.114921 1_555
C0 Ti0 2.150320 1_565
C0 Ti0 2.150321 1_665
C0 Ti0 2.150322 1_555
C1 Mo1 2.114916 1_655
C1 Mo1 2.114916 1_545
C1 Mo1 2.114921 1_555
C1 Ti1 2.150320 1_656
C1 Ti1 2.150321 1_556
C1 Ti1 2.150322 1_666
C2 Mo3 2.114916 1_455
C2 Mo3 2.114916 1_565
C2 Mo3 2.114921 1_555
C2 Ti1 2.150320 1_565
C2 Ti1 2.150321 1_665
C2 Ti1 2.150322 1_555
C3 Mo2 2.114916 1_655
C3 Mo2 2.114916 1_545
C3 Mo2 2.114921 1_555
C3 Ti0 2.150320 1_655
C3 Ti0 2.150321 1_555
C3 Ti0 2.150322 1_665
