# generated using pymatgen
data_Sr2Rh2I
_symmetry_space_group_name_H-M   'P 1'
_cell_length_a   4.34781194
_cell_length_b   4.34781131
_cell_length_c   18.12294442
_cell_angle_alpha   90.00000000
_cell_angle_beta   90.00000000
_cell_angle_gamma   119.99999749
_symmetry_Int_Tables_number   1
_chemical_formula_structural   Sr2Rh2I
_chemical_formula_sum   'Sr4 Rh4 I2'
_cell_volume   296.68858636
_cell_formula_units_Z   2
loop_
 _symmetry_equiv_pos_site_id
 _symmetry_equiv_pos_as_xyz
  1  'x, y, z'
loop_
 _atom_site_type_symbol
 _atom_site_label
 _atom_site_symmetry_multiplicity
 _atom_site_fract_x
 _atom_site_fract_y
 _atom_site_fract_z
 _atom_site_occupancy
  Sr  Sr0  1  0.00000000  0.00000000  0.11066618  1
  Sr  Sr1  1  0.00000000  0.00000000  0.88933382  1
  Sr  Sr2  1  0.00000000  0.00000000  0.61066618  1
  Sr  Sr3  1  0.00000000  0.00000000  0.38933382  1
  Rh  Rh0  1  0.33333300  0.66666700  0.50097382  1
  Rh  Rh1  1  0.66666700  0.33333300  0.49902618  1
  Rh  Rh2  1  0.66666700  0.33333300  0.00097382  1
  Rh  Rh3  1  0.33333300  0.66666700  0.99902618  1
  I  I0  1  0.33333300  0.66666700  0.25000000  1
  I  I1  1  0.66666700  0.33333300  0.75000000  1
loop_
_geom_bond_atom_site_label_1
_geom_bond_atom_site_label_2
_geom_bond_distance
_geom_bond_site_symmetry_2
Rh0 Rh1 2.510456 1_565
Rh0 Rh1 2.510456 1_455
Rh0 Rh1 2.510463 1_555
Rh0 Sr2 3.202043 1_565
Rh0 Sr2 3.202046 1_555
Rh0 Sr2 3.202047 1_665
Rh0 Sr3 3.224076 1_565
Rh0 Sr3 3.224079 1_555
Rh0 Sr3 3.224079 1_665
Rh1 Sr3 3.202043 1_655
Rh1 Sr3 3.202046 1_665
Rh1 Sr3 3.202047 1_555
Rh1 Sr2 3.224076 1_655
Rh1 Sr2 3.224079 1_665
Rh1 Sr2 3.224079 1_555
Rh2 Rh3 2.510456 1_544
Rh2 Rh3 2.510456 1_654
Rh2 Rh3 2.510463 1_554
Rh2 Sr0 3.202043 1_655
Rh2 Sr0 3.202046 1_665
Rh2 Sr0 3.202047 1_555
Rh2 Sr1 3.224076 1_654
Rh2 Sr1 3.224079 1_664
Rh2 Sr1 3.224079 1_554
Rh3 Sr1 3.202043 1_565
Rh3 Sr1 3.202046 1_555
Rh3 Sr1 3.202047 1_665
Rh3 Sr0 3.224076 1_566
Rh3 Sr0 3.224079 1_556
Rh3 Sr0 3.224079 1_666
I0 Sr3 3.560543 1_565
I0 Sr0 3.560543 1_565
I0 Sr3 3.560546 1_555
I0 Sr0 3.560546 1_555
I0 Sr3 3.560546 1_665
I0 Sr0 3.560546 1_665
I1 Sr1 3.560543 1_655
I1 Sr2 3.560543 1_655
I1 Sr1 3.560546 1_665
I1 Sr2 3.560546 1_665
I1 Sr1 3.560546 1_555
I1 Sr2 3.560546 1_555
