# generated using pymatgen
data_KGePIr2
_symmetry_space_group_name_H-M   'P 1'
_cell_length_a   7.27141107
_cell_length_b   7.27141097
_cell_length_c   7.27141139
_cell_angle_alpha   148.07636582
_cell_angle_beta   148.07637970
_cell_angle_gamma   45.77264105
_symmetry_Int_Tables_number   1
_chemical_formula_structural   KGePIr2
_chemical_formula_sum   'K1 Ge1 P1 Ir2'
_cell_volume   107.14247829
_cell_formula_units_Z   1
loop_
 _symmetry_equiv_pos_site_id
 _symmetry_equiv_pos_as_xyz
  1  'x, y, z'
loop_
 _atom_site_type_symbol
 _atom_site_label
 _atom_site_symmetry_multiplicity
 _atom_site_fract_x
 _atom_site_fract_y
 _atom_site_fract_z
 _atom_site_occupancy
  K  K0  1  0.00772431  0.00772431  0.00000000  1
  Ge  Ge0  1  0.35178476  0.35178476  1.00000000  1
  P  P0  1  0.65567335  0.65567335  0.00000000  1
  Ir  Ir0  1  0.74240829  0.24240829  0.50000000  1
  Ir  Ir1  1  0.24240829  0.74240829  0.50000000  1
loop_
_geom_bond_atom_site_label_1
_geom_bond_atom_site_label_2
_geom_bond_distance
_geom_bond_site_symmetry_2
K0 P0 3.453418 1_556
K0 P0 3.453419 1_455
K0 P0 3.453419 1_545
K0 P0 3.453419 1_444
Ge0 Ir0 2.479097 1_455
Ge0 Ir0 2.479097 1_556
Ge0 Ir1 2.479097 1_545
Ge0 Ir1 2.479098 1_556
Ge0 K0 3.515961 1_667
Ge0 K0 3.515961 1_566
Ge0 K0 3.515961 1_656
Ge0 K0 3.515961 1_555
Ir0 P0 2.312763 1_545
Ir0 P0 2.312763 1_556
Ir1 P0 2.312762 1_455
Ir1 P0 2.312762 1_556
