# generated using pymatgen
data_Cs2TaNbBr12
_symmetry_space_group_name_H-M   'P 1'
_cell_length_a   7.27802126
_cell_length_b   7.27933438
_cell_length_c   13.09939779
_cell_angle_alpha   79.48918346
_cell_angle_beta   79.52898784
_cell_angle_gamma   55.32686999
_symmetry_Int_Tables_number   1
_chemical_formula_structural   Cs2TaNbBr12
_chemical_formula_sum   'Cs2 Ta1 Nb1 Br12'
_cell_volume   558.55794115
_cell_formula_units_Z   1
loop_
 _symmetry_equiv_pos_site_id
 _symmetry_equiv_pos_as_xyz
  1  'x, y, z'
loop_
 _atom_site_type_symbol
 _atom_site_label
 _atom_site_symmetry_multiplicity
 _atom_site_fract_x
 _atom_site_fract_y
 _atom_site_fract_z
 _atom_site_occupancy
  Cs  Cs0  1  0.89253904  0.10771352  0.75001922  1
  Cs  Cs1  1  0.10746096  0.89228648  0.24998078  1
  Ta  Ta0  1  0.00000000  0.50000000  0.00000000  1
  Nb  Nb0  1  0.50000000  0.00000000  0.50000000  1
  Br  Br0  1  0.46674212  0.68779427  0.60479978  1
  Br  Br1  1  0.53325788  0.31220573  0.39520022  1
  Br  Br2  1  0.30947387  0.53382333  0.89595808  1
  Br  Br3  1  0.69052613  0.46617667  0.10404192  1
  Br  Br4  1  0.37007577  0.20183648  0.66341379  1
  Br  Br5  1  0.62992423  0.79816352  0.33658621  1
  Br  Br6  1  0.79883819  0.62976259  0.83761847  1
  Br  Br7  1  0.20116181  0.37023741  0.16238153  1
  Br  Br8  1  0.79141696  0.90252035  0.03872657  1
  Br  Br9  1  0.20858304  0.09747965  0.96127343  1
  Br  Br10  1  0.09434325  0.21004047  0.46135310  1
  Br  Br11  1  0.90565675  0.78995953  0.53864690  1
loop_
_geom_bond_atom_site_label_1
_geom_bond_atom_site_label_2
_geom_bond_distance
_geom_bond_site_symmetry_2
Br0 Nb0 2.544598 1_565
Br0 Cs0 3.889008 1_465
Br0 Cs0 3.921223 1_555
Br1 Nb0 2.544598 1_555
Br1 Cs1 3.889008 1_645
Br1 Cs1 3.921223 1_555
Br2 Ta0 2.526652 1_556
Br2 Cs0 3.884067 1_465
Br2 Cs0 3.939798 1_555
Br3 Ta0 2.526652 1_655
Br3 Cs1 3.884067 1_645
Br3 Cs1 3.939798 1_555
Br4 Nb0 2.542845 1_555
Br4 Cs0 3.812558 1_555
Br4 Cs0 3.850761 1_455
Br5 Nb0 2.542845 1_565
Br5 Cs1 3.812558 1_555
Br5 Cs1 3.850761 1_655
Br6 Ta0 2.526989 1_656
Br6 Cs0 3.818507 1_555
Br6 Cs0 3.852915 1_565
Br7 Ta0 2.526989 1_555
Br7 Cs1 3.818507 1_555
Br7 Cs1 3.852915 1_545
Br8 Ta0 2.519660 1_655
Br8 Cs1 3.872695 1_655
Br8 Cs0 3.905577 1_564
Br9 Ta0 2.519660 1_556
Br9 Cs0 3.872695 1_455
Br9 Cs1 3.905577 1_546
Br10 Nb0 2.536802 1_555
Br10 Cs1 3.874928 1_545
Br10 Cs0 3.899886 1_455
Br11 Nb0 2.536802 1_565
Br11 Cs0 3.874928 1_565
Br11 Cs1 3.899886 1_655
