# generated using pymatgen
data_Ta8Be3Si3W2
_symmetry_space_group_name_H-M   'P 1'
_cell_length_a   7.39796110
_cell_length_b   7.38352877
_cell_length_c   6.34458420
_cell_angle_alpha   64.69938976
_cell_angle_beta   64.46396584
_cell_angle_gamma   50.83666263
_symmetry_Int_Tables_number   1
_chemical_formula_structural   Ta8Be3Si3W2
_chemical_formula_sum   'Ta8 Be3 Si3 W2'
_cell_volume   236.42124297
_cell_formula_units_Z   1
loop_
 _symmetry_equiv_pos_site_id
 _symmetry_equiv_pos_as_xyz
  1  'x, y, z'
loop_
 _atom_site_type_symbol
 _atom_site_label
 _atom_site_symmetry_multiplicity
 _atom_site_fract_x
 _atom_site_fract_y
 _atom_site_fract_z
 _atom_site_occupancy
  Ta  Ta0  1  0.52323526  0.18885574  0.46942478  1
  Ta  Ta1  1  0.18151478  0.53057522  0.81114426  1
  Ta  Ta2  1  0.02725198  0.68926518  0.31073482  1
  Ta  Ta3  1  0.69277333  0.01520947  0.98479053  1
  Ta  Ta4  1  0.46942478  0.81848522  0.52323526  1
  Ta  Ta5  1  0.81114426  0.47676474  0.18151478  1
  Ta  Ta6  1  0.98479053  0.30722667  0.69277333  1
  Ta  Ta7  1  0.31073482  0.97274802  0.02725198  1
  Be  Be0  1  0.87785750  0.12214250  0.12332230  1
  Be  Be1  1  0.12332230  0.87667770  0.87785750  1
  Be  Be2  1  0.37451354  0.62548646  0.37451354  1
  Si  Si0  1  0.62523017  0.37476983  0.62523017  1
  Si  Si1  1  0.24756894  0.25243106  0.24756894  1
  Si  Si2  1  0.74756894  0.75243106  0.74756894  1
  W  W0  1  0.49923822  0.50076178  0.00383265  1
  W  W1  1  0.00383265  0.99616735  0.49923822  1
loop_
_geom_bond_atom_site_label_1
_geom_bond_atom_site_label_2
_geom_bond_distance
_geom_bond_site_symmetry_2
Ta0 W0 2.860463 1_555
Ta0 W1 2.943090 1_645
Ta1 W1 2.860463 1_555
Ta1 W0 2.943097 1_556
Ta2 W1 2.870039 1_555
Ta2 W0 2.870039 1_555
Ta3 W0 2.941966 1_556
Ta3 W1 2.941966 1_645
Ta4 W1 2.860466 1_555
Ta4 W0 2.943092 1_556
Ta5 W0 2.860458 1_555
Ta5 W1 2.943093 1_645
Ta6 W1 2.941966 1_645
Ta6 W0 2.941966 1_556
Ta7 W0 2.870039 1_555
Ta7 W1 2.870039 1_555
Be0 Be1 2.196613 1_644
Be0 Ta3 2.503381 1_554
Be0 Ta6 2.503381 1_554
Be0 Ta5 2.504533 1_555
Be0 Ta0 2.504537 1_555
Be0 Ta2 2.504747 1_645
Be0 Ta7 2.504747 1_645
Be0 W1 2.519403 1_645
Be0 W0 2.522799 1_555
Be1 Ta6 2.503382 1_465
Be1 Ta3 2.503382 1_465
Be1 Ta4 2.504537 1_555
Be1 Ta1 2.504540 1_555
Be1 Ta7 2.504747 1_556
Be1 Ta2 2.504747 1_556
Be1 W0 2.519403 1_556
Be1 W1 2.522799 1_555
Be2 Si0 2.255532 1_555
Be2 W0 2.477400 1_555
Be2 W1 2.477401 1_555
Be2 Ta7 2.488121 1_555
Be2 Ta2 2.488121 1_555
Be2 Ta0 2.529478 1_555
Be2 Ta5 2.529479 1_555
Be2 Ta1 2.529480 1_555
Be2 Ta4 2.529485 1_555
Si0 W0 2.527568 1_556
Si0 W1 2.527569 1_645
Si0 Ta0 2.557733 1_555
Si0 Ta5 2.557738 1_555
Si0 Ta1 2.557739 1_555
Si0 Ta4 2.557740 1_555
Si0 Ta3 2.575381 1_555
Si0 Ta6 2.575381 1_555
Si1 Ta4 2.657376 1_545
Si1 Ta0 2.657380 1_555
Si1 Ta7 2.668693 1_545
Si1 Ta2 2.668694 1_555
Si1 Ta1 2.676181 1_554
Si1 Ta5 2.676183 1_455
Si1 Ta6 2.677800 1_455
Si1 Ta3 2.677800 1_554
Si1 W1 2.936966 1_545
Si1 W0 2.936966 1_555
Si2 Ta1 2.657373 1_655
Si2 Ta5 2.657375 1_556
Si2 Ta2 2.668694 1_655
Si2 Ta7 2.668694 1_556
Si2 Ta4 2.676176 1_555
Si2 Ta0 2.676180 1_565
Si2 Ta3 2.677799 1_565
Si2 Ta6 2.677800 1_555
Si2 W0 2.936966 1_556
Si2 W1 2.936966 1_655
