# generated using pymatgen
data_Ba4InPdO8
_symmetry_space_group_name_H-M   'P 1'
_cell_length_a   7.26659403
_cell_length_b   7.26659437
_cell_length_c   5.89675696
_cell_angle_alpha   90.00000000
_cell_angle_beta   90.00000000
_cell_angle_gamma   132.23491970
_symmetry_Int_Tables_number   1
_chemical_formula_structural   Ba4InPdO8
_chemical_formula_sum   'Ba4 In1 Pd1 O8'
_cell_volume   230.53589816
_cell_formula_units_Z   1
loop_
 _symmetry_equiv_pos_site_id
 _symmetry_equiv_pos_as_xyz
  1  'x, y, z'
loop_
 _atom_site_type_symbol
 _atom_site_label
 _atom_site_symmetry_multiplicity
 _atom_site_fract_x
 _atom_site_fract_y
 _atom_site_fract_z
 _atom_site_occupancy
  Ba  Ba0  1  0.35740327  0.64259673  0.00000000  1
  Ba  Ba1  1  0.85702073  0.14297927  0.50000000  1
  Ba  Ba2  1  0.14297927  0.85702073  0.50000000  1
  Ba  Ba3  1  0.64259673  0.35740327  0.00000000  1
  In  In0  1  0.00000000  0.00000000  0.00000000  1
  Pd  Pd0  1  0.50000000  0.50000000  0.50000000  1
  O  O0  1  0.25927365  0.25927365  0.73702299  1
  O  O1  1  0.74072635  0.74072635  0.26297701  1
  O  O2  1  0.74072635  0.74072635  0.73702299  1
  O  O3  1  0.25927365  0.25927365  0.26297701  1
  O  O4  1  0.15887489  0.84112511  0.00000000  1
  O  O5  1  0.65239012  0.34760988  0.50000000  1
  O  O6  1  0.34760988  0.65239012  0.50000000  1
  O  O7  1  0.84112511  0.15887489  0.00000000  1
loop_
_geom_bond_atom_site_label_1
_geom_bond_atom_site_label_2
_geom_bond_distance
_geom_bond_site_symmetry_2
Ba0 O4 2.638208 1_555
Ba0 O2 2.828739 1_554
Ba0 O1 2.828739 1_555
Ba0 O0 2.828739 1_554
Ba0 O3 2.828739 1_555
Ba0 O7 2.949917 1_455
Ba0 O7 2.949917 1_565
Ba0 O6 2.951249 1_554
Ba0 O6 2.951249 1_555
Ba1 O5 2.719299 1_555
Ba1 O3 2.809071 1_655
Ba1 O0 2.809071 1_655
Ba1 O2 2.809072 1_545
Ba1 O1 2.809072 1_545
Ba1 O6 2.944632 1_545
Ba1 O6 2.944632 1_655
Ba1 O7 2.955936 1_556
Ba1 O7 2.955936 1_555
Ba2 O6 2.719299 1_555
Ba2 O1 2.809071 1_455
Ba2 O2 2.809071 1_455
Ba2 O3 2.809072 1_565
Ba2 O0 2.809072 1_565
Ba2 O5 2.944632 1_565
Ba2 O5 2.944632 1_455
Ba2 O4 2.955936 1_556
Ba2 O4 2.955936 1_555
Ba3 O7 2.638208 1_555
Ba3 O3 2.828739 1_555
Ba3 O0 2.828739 1_554
Ba3 O1 2.828739 1_555
Ba3 O2 2.828739 1_554
Ba3 O4 2.949917 1_655
Ba3 O4 2.949917 1_545
Ba3 O5 2.951249 1_555
Ba3 O5 2.951249 1_554
In0 O4 2.111260 1_545
In0 O7 2.111260 1_455
In0 O0 2.175320 1_554
In0 O3 2.175320 1_555
In0 O2 2.175320 1_444
In0 O1 2.175320 1_445
O0 Pd0 1.989905 1_555
O1 Pd0 1.989905 1_555
O2 Pd0 1.989905 1_555
O3 Pd0 1.989905 1_555
O5 Pd0 2.025085 1_555
O6 Pd0 2.025085 1_555
