# generated using pymatgen
data_Sr4Zn5CuAu12
_symmetry_space_group_name_H-M   'P 1'
_cell_length_a   8.71648248
_cell_length_b   8.71575502
_cell_length_c   8.71648300
_cell_angle_alpha   58.12091506
_cell_angle_beta   58.10969371
_cell_angle_gamma   58.12091516
_symmetry_Int_Tables_number   1
_chemical_formula_structural   Sr4Zn5CuAu12
_chemical_formula_sum   'Sr4 Zn5 Cu1 Au12'
_cell_volume   448.03377694
_cell_formula_units_Z   1
loop_
 _symmetry_equiv_pos_site_id
 _symmetry_equiv_pos_as_xyz
  1  'x, y, z'
loop_
 _atom_site_type_symbol
 _atom_site_label
 _atom_site_symmetry_multiplicity
 _atom_site_fract_x
 _atom_site_fract_y
 _atom_site_fract_z
 _atom_site_occupancy
  Sr  Sr0  1  0.90740098  0.90689762  0.90752494  1
  Sr  Sr1  1  0.40808272  0.40852661  0.40723003  1
  Sr  Sr2  1  0.09276997  0.09147339  0.09191728  1
  Sr  Sr3  1  0.59247506  0.59310238  0.59259902  1
  Zn  Zn0  1  0.93105154  0.56689992  0.75256363  1
  Zn  Zn1  1  0.74743637  0.93310008  0.56894846  1
  Zn  Zn2  1  0.43321764  0.25000000  0.06678236  1
  Zn  Zn3  1  0.06511138  0.43536249  0.24955179  1
  Zn  Zn4  1  0.25044821  0.06463751  0.43488862  1
  Cu  Cu0  1  0.57479357  0.75000000  0.92520643  1
  Au  Au0  1  0.47836630  0.85962149  0.20490102  1
  Au  Au1  1  0.20685654  0.47778035  0.86066991  1
  Au  Au2  1  0.86057831  0.20673554  0.47770783  1
  Au  Au3  1  0.70339870  0.36420630  0.97941829  1
  Au  Au4  1  0.97844809  0.70609106  0.36210208  1
  Au  Au5  1  0.36208159  0.97686405  0.70771586  1
  Au  Au6  1  0.52058171  0.13579370  0.79660130  1
  Au  Au7  1  0.79228414  0.52313595  0.13791841  1
  Au  Au8  1  0.13789792  0.79390894  0.52155191  1
  Au  Au9  1  0.29509898  0.64037851  0.02163370  1
  Au  Au10  1  0.02229217  0.29326446  0.63942169  1
  Au  Au11  1  0.63933009  0.02221965  0.29314346  1
loop_
_geom_bond_atom_site_label_1
_geom_bond_atom_site_label_2
_geom_bond_distance
_geom_bond_site_symmetry_2
Cu0 Zn0 2.611326 1_555
Cu0 Zn1 2.611326 1_555
Au0 Zn4 2.642819 1_565
Au0 Cu0 2.647634 1_554
Au0 Zn2 2.817888 1_565
Au0 Au7 2.841367 1_555
Au0 Au8 2.867795 1_555
Au0 Au11 2.993371 1_565
Au0 Au6 3.016408 1_564
Au0 Sr2 3.251354 1_565
Au0 Sr3 3.259559 1_555
Au0 Sr0 3.336344 1_554
Au0 Sr1 3.608598 1_555
Au1 Zn2 2.627277 1_556
Au1 Zn0 2.630358 1_455
Au1 Zn3 2.808365 1_556
Au1 Au6 2.865210 1_555
Au1 Au8 2.866314 1_555
Au1 Au9 2.993371 1_556
Au1 Au7 3.054149 1_456
Au1 Sr3 3.249213 1_555
Au1 Sr2 3.261664 1_556
Au1 Sr0 3.338211 1_455
Au1 Sr1 3.624793 1_555
Au2 Zn3 2.631455 1_655
Au2 Zn1 2.635379 1_545
Au2 Zn4 2.814988 1_655
Au2 Au7 2.869327 1_555
Au2 Au6 2.882318 1_555
Au2 Au8 3.045044 1_645
Au2 Sr3 3.252859 1_555
Au2 Sr2 3.262371 1_655
Au2 Sr0 3.343597 1_545
Au2 Sr1 3.621999 1_555
Au3 Zn0 2.614523 1_555
Au3 Zn2 2.626294 1_556
Au3 Cu0 2.772409 1_555
Au3 Au7 2.951893 1_556
Au3 Au9 3.016408 1_556
Au3 Sr3 3.253510 1_555
Au3 Sr2 3.265540 1_656
Au3 Sr1 3.318123 1_556
Au3 Sr0 3.662765 1_545
Au4 Zn3 2.623008 1_655
Au4 Zn1 2.635125 1_555
Au4 Zn0 2.812198 1_555
Au4 Au9 2.867795 1_655
Au4 Au8 2.955907 1_655
Au4 Sr2 3.243743 1_665
Au4 Sr3 3.254669 1_555
Au4 Sr1 3.335469 1_655
Au4 Sr0 3.642732 1_554
Au5 Cu0 2.612164 1_555
Au5 Zn4 2.631438 1_565
Au5 Zn1 2.780696 1_555
Au5 Au9 2.841367 1_556
Au5 Au6 2.951893 1_565
Au5 Sr2 3.236321 1_566
Au5 Sr3 3.247809 1_555
Au5 Sr1 3.354234 1_565
Au5 Sr0 3.640071 1_455
Au6 Zn1 2.614523 1_545
Au6 Zn2 2.626294 1_556
Au6 Cu0 2.772409 1_545
Au6 Sr0 3.253509 1_545
Au6 Sr1 3.265540 1_555
Au6 Sr2 3.318123 1_556
Au6 Sr3 3.662765 1_555
Au7 Cu0 2.612164 1_554
Au7 Zn3 2.631438 1_655
Au7 Zn0 2.780696 1_554
Au7 Sr1 3.236321 1_555
Au7 Sr0 3.247809 1_554
Au7 Sr2 3.354234 1_655
Au7 Sr3 3.640071 1_555
Au8 Zn4 2.623008 1_565
Au8 Zn0 2.635125 1_455
Au8 Zn1 2.812198 1_455
Au8 Sr1 3.243743 1_555
Au8 Sr0 3.254670 1_455
Au8 Sr2 3.335469 1_565
Au8 Sr3 3.642732 1_555
Au9 Zn3 2.642819 1_555
Au9 Cu0 2.647634 1_554
Au9 Zn2 2.817888 1_555
Au9 Sr1 3.251354 1_555
Au9 Sr0 3.259559 1_454
Au9 Sr3 3.336345 1_554
Au9 Sr2 3.608599 1_565
Au10 Zn4 2.631455 1_555
Au10 Zn0 2.635379 1_455
Au10 Zn3 2.814988 1_555
Au10 Au5 2.869326 1_545
Au10 Au3 2.882318 1_455
Au10 Au2 2.981213 1_455
Au10 Au4 3.045044 1_455
Au10 Sr0 3.252859 1_445
Au10 Sr1 3.262370 1_555
Au10 Sr3 3.343597 1_455
Au10 Sr2 3.621999 1_556
Au11 Zn2 2.627277 1_555
Au11 Zn1 2.630358 1_545
Au11 Zn4 2.808365 1_555
Au11 Au3 2.865210 1_554
Au11 Au4 2.866314 1_545
Au11 Au5 3.054149 1_545
Au11 Sr0 3.249213 1_544
Au11 Sr1 3.261664 1_555
Au11 Sr3 3.338211 1_545
Au11 Sr2 3.624793 1_655
