# generated using pymatgen
data_Sc22TcRu5Rh2
_symmetry_space_group_name_H-M   'P 1'
_cell_length_a   9.47390540
_cell_length_b   9.46041818
_cell_length_c   9.43544319
_cell_angle_alpha   60.18178645
_cell_angle_beta   60.03978738
_cell_angle_gamma   60.01730500
_symmetry_Int_Tables_number   1
_chemical_formula_structural   Sc22TcRu5Rh2
_chemical_formula_sum   'Sc22 Tc1 Ru5 Rh2'
_cell_volume   599.05614201
_cell_formula_units_Z   1
loop_
 _symmetry_equiv_pos_site_id
 _symmetry_equiv_pos_as_xyz
  1  'x, y, z'
loop_
 _atom_site_type_symbol
 _atom_site_label
 _atom_site_symmetry_multiplicity
 _atom_site_fract_x
 _atom_site_fract_y
 _atom_site_fract_z
 _atom_site_occupancy
  Sc  Sc0  1  0.80195726  0.80195726  0.19804274  1
  Sc  Sc1  1  0.19949632  0.80050368  0.19381428  1
  Sc  Sc2  1  0.80079389  0.19920611  0.19360839  1
  Sc  Sc3  1  0.19804274  0.19804274  0.80195726  1
  Sc  Sc4  1  0.80050368  0.19949632  0.80618572  1
  Sc  Sc5  1  0.19920611  0.80079389  0.80639161  1
  Sc  Sc6  1  0.61437849  0.61672953  0.14996896  1
  Sc  Sc7  1  0.61739333  0.15283741  0.61628449  1
  Sc  Sc8  1  0.15283741  0.61739333  0.61348677  1
  Sc  Sc9  1  0.61672953  0.61437849  0.61892402  1
  Sc  Sc10  1  0.38562151  0.38327047  0.85003104  1
  Sc  Sc11  1  0.38260667  0.84716259  0.38371551  1
  Sc  Sc12  1  0.84716259  0.38260667  0.38651323  1
  Sc  Sc13  1  0.38327047  0.38562151  0.38107598  1
  Sc  Sc14  1  0.84710900  0.84466809  0.46633056  1
  Sc  Sc15  1  0.84780315  0.47059367  0.83946377  1
  Sc  Sc16  1  0.47059367  0.84780315  0.84213842  1
  Sc  Sc17  1  0.84466809  0.84710900  0.84189034  1
  Sc  Sc18  1  0.15289100  0.15533191  0.53366944  1
  Sc  Sc19  1  0.15219685  0.52940633  0.16053623  1
  Sc  Sc20  1  0.52940633  0.15219685  0.15786158  1
  Sc  Sc21  1  0.15533191  0.15289100  0.15810966  1
  Tc  Tc0  1  0.50000000  0.50000000  0.00000000  1
  Ru  Ru0  1  0.00000000  0.00000000  0.00000000  1
  Ru  Ru1  1  0.50000000  0.50000000  0.50000000  1
  Ru  Ru2  1  0.00000000  0.00000000  0.50000000  1
  Ru  Ru3  1  0.00000000  0.50000000  0.50000000  1
  Ru  Ru4  1  0.50000000  0.00000000  0.00000000  1
  Rh  Rh0  1  0.50000000  0.00000000  0.50000000  1
  Rh  Rh1  1  0.00000000  0.50000000  0.00000000  1
loop_
_geom_bond_atom_site_label_1
_geom_bond_atom_site_label_2
_geom_bond_distance
_geom_bond_site_symmetry_2
Sc6 Tc0 2.945767 1_555
Sc9 Tc0 2.945759 1_556
Sc10 Tc0 2.945767 1_556
Sc13 Tc0 2.945759 1_555
Sc15 Tc0 2.783335 1_556
Sc16 Tc0 2.783334 1_556
Sc19 Tc0 2.783335 1_555
Sc20 Tc0 2.783334 1_555
Ru0 Sc2 2.622209 1_455
Ru0 Sc5 2.622209 1_544
Ru0 Sc1 2.633040 1_545
Ru0 Sc4 2.633040 1_454
Ru0 Sc3 2.655597 1_554
Ru0 Sc0 2.655597 1_445
Ru1 Sc11 2.685463 1_555
Ru1 Sc7 2.685463 1_555
Ru1 Sc12 2.685464 1_555
Ru1 Sc8 2.685464 1_555
Ru1 Sc10 2.701086 1_555
Ru1 Sc6 2.701086 1_555
Ru1 Sc9 2.701095 1_555
Ru1 Sc13 2.701095 1_555
Ru2 Sc17 2.722074 1_445
Ru2 Sc21 2.722074 1_555
Ru2 Sc18 2.722087 1_555
Ru2 Sc14 2.722087 1_445
Ru2 Sc12 2.966575 1_455
Ru2 Sc8 2.966575 1_545
Ru2 Sc11 2.966575 1_545
Ru2 Sc7 2.966575 1_455
Ru3 Sc15 2.705096 1_455
Ru3 Sc19 2.705096 1_555
Ru3 Sc14 2.745914 1_455
Ru3 Sc18 2.745914 1_555
Ru3 Sc8 2.969036 1_555
Ru3 Sc12 2.969036 1_455
Ru3 Sc13 2.970794 1_555
Ru3 Sc9 2.970794 1_455
Ru4 Sc20 2.705105 1_555
Ru4 Sc16 2.705105 1_544
Ru4 Sc17 2.745918 1_544
Ru4 Sc21 2.745918 1_555
Ru4 Sc11 2.969021 1_545
Ru4 Sc7 2.969021 1_554
Ru4 Sc10 2.970794 1_554
Ru4 Sc6 2.970794 1_545
Rh0 Sc16 2.729887 1_545
Rh0 Sc20 2.729887 1_555
Rh0 Sc14 2.768642 1_545
Rh0 Sc18 2.768642 1_555
Rh0 Sc13 2.987820 1_555
Rh0 Sc9 2.987820 1_545
Rh0 Sc7 2.989178 1_555
Rh0 Sc11 2.989178 1_545
Rh1 Sc19 2.729895 1_555
Rh1 Sc15 2.729895 1_454
Rh1 Sc17 2.768645 1_454
Rh1 Sc21 2.768645 1_555
Rh1 Sc10 2.987820 1_554
Rh1 Sc6 2.987820 1_455
Rh1 Sc12 2.989163 1_455
Rh1 Sc8 2.989163 1_554
