# generated using pymatgen
data_Rb6C5
_symmetry_space_group_name_H-M   'P 1'
_cell_length_a   7.83713388
_cell_length_b   7.83713388
_cell_length_c   7.93109000
_cell_angle_alpha   90.00000000
_cell_angle_beta   90.00000000
_cell_angle_gamma   119.99999900
_symmetry_Int_Tables_number   1
_chemical_formula_structural   Rb6C5
_chemical_formula_sum   'Rb6 C5'
_cell_volume   421.86942011
_cell_formula_units_Z   1
loop_
 _symmetry_equiv_pos_site_id
 _symmetry_equiv_pos_as_xyz
  1  'x, y, z'
loop_
 _atom_site_type_symbol
 _atom_site_label
 _atom_site_symmetry_multiplicity
 _atom_site_fract_x
 _atom_site_fract_y
 _atom_site_fract_z
 _atom_site_occupancy
  Rb  Rb0  1  0.00000000  0.61850200  0.50000000  1
  Rb  Rb1  1  0.38149800  0.38149800  0.50000000  1
  Rb  Rb2  1  0.00000000  0.36173100  0.00000000  1
  Rb  Rb3  1  0.63826900  0.63826900  0.00000000  1
  Rb  Rb4  1  0.36173100  0.00000000  0.00000000  1
  Rb  Rb5  1  0.61850200  0.00000000  0.50000000  1
  C  C0  1  0.33333300  0.66666700  0.75705000  1
  C  C1  1  0.00000000  0.00000000  0.50000000  1
  C  C2  1  0.66666700  0.33333300  0.24295000  1
  C  C3  1  0.66666700  0.33333300  0.75705000  1
  C  C4  1  0.33333300  0.66666700  0.24295000  1
loop_
_geom_bond_atom_site_label_1
_geom_bond_atom_site_label_2
_geom_bond_distance
_geom_bond_site_symmetry_2
C0 Rb4 3.163133 1_566
C0 Rb2 3.163136 1_556
C0 Rb3 3.163140 1_556
C0 Rb0 3.183886 1_555
C0 Rb5 3.183888 1_565
C0 Rb1 3.183892 1_555
C1 Rb0 2.989851 1_545
C1 Rb5 2.989851 1_455
C1 Rb1 2.989851 1_555
C2 Rb2 3.163133 1_655
C2 Rb4 3.163136 1_555
C2 Rb3 3.163140 1_555
C2 Rb5 3.183886 1_555
C2 Rb0 3.183888 1_655
C2 Rb1 3.183892 1_555
C3 Rb2 3.163133 1_656
C3 Rb4 3.163136 1_556
C3 Rb3 3.163140 1_556
C3 Rb5 3.183886 1_555
C3 Rb0 3.183888 1_655
C3 Rb1 3.183892 1_555
C4 Rb4 3.163133 1_565
C4 Rb2 3.163136 1_555
C4 Rb3 3.163140 1_555
C4 Rb0 3.183886 1_555
C4 Rb5 3.183888 1_565
C4 Rb1 3.183892 1_555
