# generated using pymatgen
data_Ba2Hf3ZrH14
_symmetry_space_group_name_H-M   'P 1'
_cell_length_a   6.81202957
_cell_length_b   6.84241165
_cell_length_c   6.81202922
_cell_angle_alpha   60.14677115
_cell_angle_beta   59.99999692
_cell_angle_gamma   60.14677493
_symmetry_Int_Tables_number   1
_chemical_formula_structural   Ba2Hf3ZrH14
_chemical_formula_sum   'Ba2 Hf3 Zr1 H14'
_cell_volume   225.01275339
_cell_formula_units_Z   1
loop_
 _symmetry_equiv_pos_site_id
 _symmetry_equiv_pos_as_xyz
  1  'x, y, z'
loop_
 _atom_site_type_symbol
 _atom_site_label
 _atom_site_symmetry_multiplicity
 _atom_site_fract_x
 _atom_site_fract_y
 _atom_site_fract_z
 _atom_site_occupancy
  Ba  Ba0  1  0.24954341  0.25136977  0.24954341  1
  Ba  Ba1  1  0.00045659  0.99863023  0.00045659  1
  Hf  Hf0  1  0.62500000  0.62500000  0.12500000  1
  Hf  Hf1  1  0.12500000  0.62500000  0.62500000  1
  Hf  Hf2  1  0.62500000  0.62500000  0.62500000  1
  Zr  Zr0  1  0.62500000  0.12500000  0.62500000  1
  H  H0  1  0.73321449  0.27121052  0.73321449  1
  H  H1  1  0.98112384  0.52054817  0.98112384  1
  H  H2  1  0.73279485  0.72945183  0.26887616  1
  H  H3  1  0.26887616  0.72945183  0.73279485  1
  H  H4  1  0.73321449  0.27121052  0.26236050  1
  H  H5  1  0.26236050  0.27121052  0.73321449  1
  H  H6  1  0.49923886  0.50228243  0.49923886  1
  H  H7  1  0.75076114  0.74771757  0.75076114  1
  H  H8  1  0.26887616  0.72945183  0.26887616  1
  H  H9  1  0.51678551  0.97878948  0.98763950  1
  H  H10  1  0.98112384  0.52054817  0.51720515  1
  H  H11  1  0.51678551  0.97878948  0.51678551  1
  H  H12  1  0.98763950  0.97878948  0.51678551  1
  H  H13  1  0.51720515  0.52054817  0.98112384  1
loop_
_geom_bond_atom_site_label_1
_geom_bond_atom_site_label_2
_geom_bond_distance
_geom_bond_site_symmetry_2
Ba0 H12 2.580756 1_445
Ba0 H11 2.580756 1_545
Ba0 H9 2.580756 1_544
Ba0 H1 2.591675 1_454
Ba0 H13 2.591680 1_554
Ba0 H10 2.591680 1_455
Ba1 H5 2.580756 1_564
Ba1 H0 2.580756 1_464
Ba1 H4 2.580756 1_465
Ba1 H8 2.591675 1_555
Ba1 H2 2.591680 1_455
Ba1 H3 2.591680 1_554
H0 Hf2 1.984241 1_555
H0 Zr0 2.024720 1_555
H1 Hf1 1.987489 1_655
H1 Hf0 1.987489 1_556
H2 Hf0 1.987484 1_555
H2 Hf2 1.987489 1_555
H3 Hf1 1.987484 1_555
H3 Hf2 1.987490 1_555
H4 Hf0 1.984241 1_555
H4 Zr0 2.024720 1_555
H5 Hf1 1.984241 1_555
H5 Zr0 2.024720 1_555
H6 Hf0 2.083050 1_555
H6 Hf1 2.083051 1_555
H6 Hf2 2.083056 1_555
H6 Zr0 2.112468 1_555
H7 Hf0 2.083050 1_556
H7 Hf1 2.083051 1_655
H7 Hf2 2.083056 1_555
H7 Zr0 2.112468 1_565
H8 Hf1 1.987489 1_555
H8 Hf0 1.987489 1_555
H9 Hf0 1.984241 1_556
H9 Zr0 2.024720 1_565
H10 Hf1 1.987484 1_655
H10 Hf2 1.987490 1_555
H11 Hf2 1.984241 1_555
H11 Zr0 2.024720 1_565
H12 Hf1 1.984241 1_655
H12 Zr0 2.024720 1_565
H13 Hf0 1.987484 1_556
H13 Hf2 1.987489 1_555
