# generated using pymatgen
data_Y7BeI12
_symmetry_space_group_name_H-M   'P 1'
_cell_length_a   9.66208260
_cell_length_b   9.66208161
_cell_length_c   9.66208197
_cell_angle_alpha   107.60131417
_cell_angle_beta   107.60131552
_cell_angle_gamma   107.60130688
_symmetry_Int_Tables_number   1
_chemical_formula_structural   Y7BeI12
_chemical_formula_sum   'Y7 Be1 I12'
_cell_volume   738.53546911
_cell_formula_units_Z   1
loop_
 _symmetry_equiv_pos_site_id
 _symmetry_equiv_pos_as_xyz
  1  'x, y, z'
loop_
 _atom_site_type_symbol
 _atom_site_label
 _atom_site_symmetry_multiplicity
 _atom_site_fract_x
 _atom_site_fract_y
 _atom_site_fract_z
 _atom_site_occupancy
  Y  Y0  1  0.70024531  0.97164297  0.90144892  1
  Y  Y1  1  0.97164297  0.90144892  0.70024531  1
  Y  Y2  1  0.50000000  0.50000000  0.50000000  1
  Y  Y3  1  0.09855108  0.29975469  0.02835703  1
  Y  Y4  1  0.29975469  0.02835703  0.09855108  1
  Y  Y5  1  0.90144892  0.70024531  0.97164297  1
  Y  Y6  1  0.02835703  0.09855108  0.29975469  1
  Be  Be0  1  0.00000000  0.00000000  0.00000000  1
  I  I0  1  0.07598702  0.22876526  0.68150015  1
  I  I1  1  0.38943563  0.15614317  0.46917926  1
  I  I2  1  0.61056437  0.84385683  0.53082074  1
  I  I3  1  0.22876526  0.68150015  0.07598702  1
  I  I4  1  0.77123474  0.31849985  0.92401298  1
  I  I5  1  0.68150015  0.07598702  0.22876526  1
  I  I6  1  0.53082074  0.61056437  0.84385683  1
  I  I7  1  0.84385683  0.53082074  0.61056437  1
  I  I8  1  0.92401298  0.77123474  0.31849985  1
  I  I9  1  0.31849985  0.92401298  0.77123474  1
  I  I10  1  0.46917926  0.38943563  0.15614317  1
  I  I11  1  0.15614317  0.46917926  0.38943563  1
loop_
_geom_bond_atom_site_label_1
_geom_bond_atom_site_label_2
_geom_bond_distance
_geom_bond_site_symmetry_2
Be0 Y6 2.657905 1_555
Be0 Y1 2.657905 1_444
Be0 Y3 2.657905 1_555
Be0 Y5 2.657905 1_444
Be0 Y4 2.657906 1_555
Be0 Y0 2.657906 1_444
I0 Y1 3.095083 1_445
I0 Y3 3.134814 1_556
I0 Y6 3.349045 1_555
I1 Y2 3.054635 1_555
I1 Y4 3.146654 1_555
I1 Y6 3.159419 1_555
I2 Y2 3.054635 1_555
I2 Y0 3.146654 1_555
I2 Y1 3.159419 1_555
I3 Y5 3.095083 1_454
I3 Y4 3.134814 1_565
I3 Y3 3.349045 1_555
I4 Y3 3.095083 1_656
I4 Y0 3.134814 1_545
I4 Y5 3.349045 1_555
I5 Y0 3.095083 1_544
I5 Y6 3.134814 1_655
I5 Y4 3.349045 1_555
I6 Y2 3.054635 1_555
I6 Y5 3.146654 1_555
I6 Y0 3.159419 1_555
I7 Y2 3.054635 1_555
I7 Y1 3.146654 1_555
I7 Y5 3.159419 1_555
I8 Y6 3.095083 1_665
I8 Y5 3.134814 1_554
I8 Y1 3.349045 1_555
I9 Y4 3.095083 1_566
I9 Y1 3.134814 1_455
I9 Y0 3.349045 1_555
I10 Y2 3.054635 1_555
I10 Y3 3.146654 1_555
I10 Y4 3.159419 1_555
I11 Y2 3.054635 1_555
I11 Y6 3.146654 1_555
I11 Y3 3.159419 1_555
