# generated using pymatgen
data_EuTl2
_symmetry_space_group_name_H-M   'P 1'
_cell_length_a   5.09348316
_cell_length_b   5.09348597
_cell_length_c   8.04054981
_cell_angle_alpha   90.00000000
_cell_angle_beta   90.00000000
_cell_angle_gamma   120.00000186
_symmetry_Int_Tables_number   1
_chemical_formula_structural   EuTl2
_chemical_formula_sum   'Eu2 Tl4'
_cell_volume   180.65349124
_cell_formula_units_Z   2
loop_
 _symmetry_equiv_pos_site_id
 _symmetry_equiv_pos_as_xyz
  1  'x, y, z'
loop_
 _atom_site_type_symbol
 _atom_site_label
 _atom_site_symmetry_multiplicity
 _atom_site_fract_x
 _atom_site_fract_y
 _atom_site_fract_z
 _atom_site_occupancy
  Eu  Eu0  1  -0.00000000  -0.00000000  0.24999900  1
  Eu  Eu1  1  -0.00000000  -0.00000000  0.75000100  1
  Tl  Tl0  1  0.33333300  0.66666700  0.45265901  1
  Tl  Tl1  1  0.66666700  0.33333300  0.95265901  1
  Tl  Tl2  1  0.66666700  0.33333300  0.54734099  1
  Tl  Tl3  1  0.33333300  0.66666700  0.04734099  1
loop_
_geom_bond_atom_site_label_1
_geom_bond_atom_site_label_2
_geom_bond_distance
_geom_bond_site_symmetry_2
Eu0 Tl3 3.362002 1_545
Eu0 Tl3 3.362005 1_445
Eu0 Tl3 3.362006 1_555
Eu0 Tl0 3.362010 1_545
Eu0 Tl0 3.362013 1_445
Eu0 Tl0 3.362014 1_555
Eu0 Tl1 3.789942 1_454
Eu0 Tl1 3.789945 1_554
Eu0 Tl1 3.789946 1_444
Eu0 Tl2 3.789952 1_455
Eu0 Tl2 3.789955 1_555
Eu0 Tl2 3.789956 1_445
Eu0 Eu1 4.020259 1_554
Eu0 Eu1 4.020291 1_555
Eu1 Tl1 3.362002 1_455
Eu1 Tl1 3.362005 1_555
Eu1 Tl1 3.362006 1_445
Eu1 Tl2 3.362010 1_455
Eu1 Tl2 3.362013 1_555
Eu1 Tl2 3.362014 1_445
Eu1 Tl3 3.789942 1_546
Eu1 Tl3 3.789945 1_446
Eu1 Tl3 3.789946 1_556
Eu1 Tl0 3.789952 1_545
Eu1 Tl0 3.789955 1_445
Eu1 Tl0 3.789956 1_555
Tl0 Tl2 3.037665 1_455
Tl0 Tl2 3.037667 1_565
Tl0 Tl2 3.037675 1_555
Tl0 Tl3 3.258980 1_555
Tl1 Tl3 3.037665 1_656
Tl1 Tl3 3.037667 1_546
Tl1 Tl3 3.037675 1_556
Tl1 Tl2 3.258980 1_555
