# generated using pymatgen
data_LiCd2(P3Pd10)2
_symmetry_space_group_name_H-M   'P 1'
_cell_length_a   8.51687941
_cell_length_b   8.51687837
_cell_length_c   8.51687964
_cell_angle_alpha   59.99999508
_cell_angle_beta   59.99999909
_cell_angle_gamma   59.99999319
_symmetry_Int_Tables_number   1
_chemical_formula_structural   LiCd2(P3Pd10)2
_chemical_formula_sum   'Li1 Cd2 P6 Pd20'
_cell_volume   436.84403870
_cell_formula_units_Z   1
loop_
 _symmetry_equiv_pos_site_id
 _symmetry_equiv_pos_as_xyz
  1  'x, y, z'
loop_
 _atom_site_type_symbol
 _atom_site_label
 _atom_site_symmetry_multiplicity
 _atom_site_fract_x
 _atom_site_fract_y
 _atom_site_fract_z
 _atom_site_occupancy
  Li  Li0  1  0.00000000  0.00000000  0.00000000  1
  Cd  Cd0  1  0.25000000  0.25000000  0.25000000  1
  Cd  Cd1  1  0.75000000  0.75000000  0.75000000  1
  P  P0  1  0.73701548  0.73701548  0.26298452  1
  P  P1  1  0.26298452  0.26298452  0.73701548  1
  P  P2  1  0.26298452  0.73701548  0.73701548  1
  P  P3  1  0.73701548  0.26298452  0.73701548  1
  P  P4  1  0.26298452  0.73701548  0.26298452  1
  P  P5  1  0.73701548  0.26298452  0.26298452  1
  Pd  Pd0  1  0.61622415  0.61622415  0.61622415  1
  Pd  Pd1  1  0.38377585  0.84867144  0.38377585  1
  Pd  Pd2  1  0.65689942  0.34310058  1.00000000  1
  Pd  Pd3  1  1.00000000  0.34310058  0.65689942  1
  Pd  Pd4  1  0.65689942  0.00000000  0.00000000  1
  Pd  Pd5  1  0.61622415  0.61622415  0.15132856  1
  Pd  Pd6  1  0.00000000  0.00000000  0.65689942  1
  Pd  Pd7  1  1.00000000  0.34310058  1.00000000  1
  Pd  Pd8  1  0.65689942  0.00000000  0.34310058  1
  Pd  Pd9  1  0.34310058  1.00000000  1.00000000  1
  Pd  Pd10  1  0.00000000  0.65689942  0.00000000  1
  Pd  Pd11  1  0.34310058  1.00000000  0.65689942  1
  Pd  Pd12  1  0.00000000  0.65689942  0.34310058  1
  Pd  Pd13  1  0.34310058  0.65689942  0.00000000  1
  Pd  Pd14  1  0.15132856  0.61622415  0.61622415  1
  Pd  Pd15  1  0.38377585  0.38377585  0.38377585  1
  Pd  Pd16  1  0.84867144  0.38377585  0.38377585  1
  Pd  Pd17  1  0.38377585  0.38377585  0.84867144  1
  Pd  Pd18  1  0.61622415  0.15132856  0.61622415  1
  Pd  Pd19  1  0.00000000  0.00000000  0.34310058  1
loop_
_geom_bond_atom_site_label_1
_geom_bond_atom_site_label_2
_geom_bond_distance
_geom_bond_site_symmetry_2
Li0 Pd2 2.922146 1_454
Li0 Pd13 2.922146 1_545
Li0 Pd7 2.922146 1_454
Li0 Pd10 2.922146 1_545
Li0 Pd3 2.922146 1_454
Li0 Pd12 2.922146 1_545
Li0 Pd9 2.922146 1_544
Li0 Pd4 2.922146 1_455
Li0 Pd11 2.922146 1_544
Li0 Pd8 2.922146 1_455
Li0 Pd19 2.922146 1_555
Li0 Pd6 2.922146 1_554
Cd0 Pd15 2.790833 1_555
Cd0 Pd1 2.790839 1_545
Cd0 Pd16 2.790840 1_455
Cd0 Pd17 2.790840 1_554
Cd0 Pd10 3.294364 1_555
Cd0 Pd12 3.294364 1_555
Cd0 Pd13 3.294364 1_555
Cd0 Pd4 3.294364 1_555
Cd0 Pd8 3.294364 1_555
Cd0 Pd6 3.294364 1_555
Cd0 Pd19 3.294364 1_555
Cd0 Pd11 3.294364 1_545
Cd0 Pd9 3.294364 1_544
Cd0 Pd2 3.294364 1_554
Cd0 Pd3 3.294364 1_455
Cd0 Pd7 3.294364 1_454
Cd1 Pd0 2.790833 1_555
Cd1 Pd18 2.790839 1_565
Cd1 Pd14 2.790840 1_655
Cd1 Pd5 2.790840 1_556
Cd1 Pd7 3.294364 1_555
Cd1 Pd3 3.294364 1_555
Cd1 Pd2 3.294364 1_555
Cd1 Pd9 3.294364 1_555
Cd1 Pd11 3.294364 1_555
Cd1 Pd6 3.294364 1_665
Cd1 Pd19 3.294364 1_665
Cd1 Pd8 3.294364 1_565
Cd1 Pd4 3.294364 1_566
Cd1 Pd13 3.294364 1_556
Cd1 Pd12 3.294364 1_655
Cd1 Pd10 3.294364 1_656
P0 Pd4 2.341436 1_565
P0 Pd8 2.341436 1_565
P0 Pd10 2.341436 1_655
P0 Pd12 2.341436 1_655
P0 Pd5 2.456833 1_555
P0 Pd16 2.456840 1_555
P0 Pd0 2.456840 1_555
P0 Pd1 2.456840 1_555
P1 Pd9 2.341436 1_545
P1 Pd11 2.341436 1_545
P1 Pd7 2.341436 1_455
P1 Pd3 2.341436 1_455
P1 Pd17 2.456833 1_555
P1 Pd14 2.456840 1_555
P1 Pd15 2.456840 1_555
P1 Pd18 2.456840 1_555
P2 Pd6 2.341436 1_565
P2 Pd11 2.341436 1_555
P2 Pd10 2.341436 1_556
P2 Pd13 2.341436 1_556
P2 Pd14 2.456833 1_555
P2 Pd17 2.456840 1_555
P2 Pd0 2.456840 1_555
P2 Pd1 2.456840 1_555
P3 Pd6 2.341436 1_655
P3 Pd4 2.341436 1_556
P3 Pd3 2.341436 1_555
P3 Pd2 2.341436 1_555
P3 Pd18 2.456833 1_555
P3 Pd0 2.456840 1_555
P3 Pd17 2.456840 1_555
P3 Pd16 2.456840 1_555
P4 Pd19 2.341436 1_565
P4 Pd9 2.341436 1_554
P4 Pd12 2.341436 1_555
P4 Pd13 2.341436 1_555
P4 Pd1 2.456833 1_555
P4 Pd15 2.456840 1_555
P4 Pd5 2.456840 1_555
P4 Pd14 2.456840 1_555
P5 Pd19 2.341436 1_655
P5 Pd8 2.341436 1_555
P5 Pd7 2.341436 1_554
P5 Pd2 2.341436 1_554
P5 Pd16 2.456833 1_555
P5 Pd5 2.456840 1_555
P5 Pd15 2.456840 1_555
P5 Pd18 2.456840 1_555
Pd0 Pd11 2.989624 1_555
Pd0 Pd8 2.989624 1_565
Pd0 Pd3 2.989624 1_555
Pd0 Pd2 2.989624 1_555
Pd0 Pd12 2.989624 1_655
Pd0 Pd13 2.989624 1_556
Pd1 Pd19 2.989623 1_565
Pd1 Pd9 2.989623 1_554
Pd1 Pd6 2.989626 1_565
Pd1 Pd4 2.989626 1_565
Pd1 Pd8 2.989631 1_565
Pd1 Pd11 2.989631 1_555
Pd2 Pd4 2.922146 1_556
Pd2 Pd8 2.922146 1_556
Pd2 Pd7 2.922146 1_555
Pd2 Pd3 2.922146 1_555
Pd2 Pd5 2.989630 1_556
Pd3 Pd6 2.922146 1_655
Pd3 Pd7 2.922146 1_555
Pd4 Pd9 2.672587 1_544
Pd4 Pd6 2.922146 1_654
Pd4 Pd8 2.922146 1_555
Pd4 Pd5 2.989622 1_545
Pd5 Pd9 2.989626 1_554
Pd5 Pd7 2.989626 1_554
Pd7 Pd9 2.922146 1_645
Pd10 Pd7 2.672586 1_454
Pd10 Pd4 2.922146 1_465
Pd10 Pd6 2.922146 1_564
Pd10 Pd13 2.922146 1_555
Pd10 Pd12 2.922146 1_555
Pd10 Pd5 2.989623 1_455
Pd10 Pd14 2.989623 1_554
Pd10 Pd17 2.989626 1_554
Pd10 Pd16 2.989626 1_455
Pd11 Pd8 2.672587 1_565
Pd11 Pd3 2.922146 1_465
Pd11 Pd13 2.922146 1_556
Pd11 Pd6 2.922146 1_565
Pd11 Pd9 2.922146 1_555
Pd11 Pd15 2.989624 1_565
Pd11 Pd18 2.989631 1_565
Pd12 Pd3 2.672586 1_455
Pd12 Pd8 2.922146 1_465
Pd12 Pd19 2.922146 1_565
Pd12 Pd13 2.922146 1_555
Pd12 Pd15 2.989624 1_555
Pd12 Pd16 2.989631 1_455
Pd12 Pd14 2.989631 1_555
Pd13 Pd2 2.672586 1_554
Pd13 Pd9 2.922146 1_554
Pd13 Pd15 2.989624 1_555
Pd13 Pd17 2.989630 1_554
Pd13 Pd5 2.989631 1_555
Pd14 Pd6 2.989622 1_565
Pd14 Pd19 2.989626 1_565
Pd14 Pd7 2.989626 1_455
Pd14 Pd3 2.989631 1_455
Pd15 Pd8 2.989624 1_555
Pd15 Pd3 2.989624 1_455
Pd15 Pd2 2.989624 1_554
Pd16 Pd19 2.989622 1_655
Pd16 Pd7 2.989623 1_554
Pd16 Pd6 2.989626 1_655
Pd16 Pd3 2.989631 1_555
Pd17 Pd9 2.989622 1_545
Pd17 Pd7 2.989623 1_455
Pd17 Pd4 2.989626 1_556
Pd17 Pd2 2.989631 1_555
Pd18 Pd6 2.989623 1_655
Pd18 Pd4 2.989623 1_556
Pd18 Pd19 2.989626 1_655
Pd18 Pd9 2.989626 1_545
Pd18 Pd8 2.989631 1_555
Pd19 Pd6 2.672587 1_555
Pd19 Pd7 2.922146 1_454
Pd19 Pd8 2.922146 1_455
Pd19 Pd9 2.922146 1_544
