# generated using pymatgen
data_Ca2VH9
_symmetry_space_group_name_H-M   'P 1'
_cell_length_a   8.40385949
_cell_length_b   8.40385973
_cell_length_c   4.87284582
_cell_angle_alpha   90.00000000
_cell_angle_beta   90.00000000
_cell_angle_gamma   119.99999905
_symmetry_Int_Tables_number   1
_chemical_formula_structural   Ca2VH9
_chemical_formula_sum   'Ca6 V3 H27'
_cell_volume   298.03748039
_cell_formula_units_Z   3
loop_
 _symmetry_equiv_pos_site_id
 _symmetry_equiv_pos_as_xyz
  1  'x, y, z'
loop_
 _atom_site_type_symbol
 _atom_site_label
 _atom_site_symmetry_multiplicity
 _atom_site_fract_x
 _atom_site_fract_y
 _atom_site_fract_z
 _atom_site_occupancy
  Ca  Ca0  1  0.26693405  0.00000000  0.50000000  1
  Ca  Ca1  1  1.00000000  0.26693405  0.50000000  1
  Ca  Ca2  1  0.73306595  0.73306595  0.50000000  1
  Ca  Ca3  1  0.60157789  0.00000000  0.00000000  1
  Ca  Ca4  1  1.00000000  0.60157789  0.00000000  1
  Ca  Ca5  1  0.39842211  0.39842211  0.00000000  1
  V  V0  1  0.00000000  0.00000000  0.00000000  1
  V  V1  1  0.33333300  0.66666700  0.50000000  1
  V  V2  1  0.66666700  0.33333300  0.50000000  1
  H  H0  1  0.85362585  0.00000000  0.24288276  1
  H  H1  1  1.00000000  0.85362585  0.24288276  1
  H  H2  1  0.85362585  0.00000000  0.75711724  1
  H  H3  1  1.00000000  0.85362585  0.75711724  1
  H  H4  1  0.14637415  0.14637415  0.24288276  1
  H  H5  1  0.14637415  0.14637415  0.75711724  1
  H  H6  1  0.20124717  0.00000000  0.00000000  1
  H  H7  1  1.00000000  0.20124717  0.00000000  1
  H  H8  1  0.79875283  0.79875283  0.00000000  1
  H  H9  1  0.19141769  0.52266450  0.24570909  1
  H  H10  1  0.47733550  0.66875219  0.24570909  1
  H  H11  1  0.19141769  0.52266450  0.75429091  1
  H  H12  1  0.52266450  0.19141769  0.75429091  1
  H  H13  1  0.33124781  0.80858231  0.24570909  1
  H  H14  1  0.47733550  0.66875219  0.75429091  1
  H  H15  1  0.66875219  0.47733550  0.75429091  1
  H  H16  1  0.52266450  0.19141769  0.24570909  1
  H  H17  1  0.33124781  0.80858231  0.75429091  1
  H  H18  1  0.66875219  0.47733550  0.24570909  1
  H  H19  1  0.80858231  0.33124781  0.75429091  1
  H  H20  1  0.80858231  0.33124781  0.24570909  1
  H  H21  1  0.32773816  0.46497682  0.50000000  1
  H  H22  1  0.53502318  0.86276233  0.50000000  1
  H  H23  1  0.46497682  0.32773816  0.50000000  1
  H  H24  1  0.13723767  0.67226184  0.50000000  1
  H  H25  1  0.86276233  0.53502318  0.50000000  1
  H  H26  1  0.67226184  0.13723767  0.50000000  1
loop_
_geom_bond_atom_site_label_1
_geom_bond_atom_site_label_2
_geom_bond_distance
_geom_bond_site_symmetry_2
Ca0 H12 2.298851 1_555
Ca0 H16 2.298851 1_555
Ca0 H17 2.298855 1_545
Ca0 H13 2.298855 1_545
Ca0 H5 2.314243 1_555
Ca0 H4 2.314243 1_555
Ca0 H3 2.314243 1_445
Ca0 H1 2.314243 1_445
Ca0 H24 2.402490 1_545
Ca0 H23 2.402491 1_555
Ca0 H6 2.498177 1_555
Ca0 H6 2.498177 1_556
Ca1 H11 2.298851 1_655
Ca1 H9 2.298851 1_655
Ca1 H19 2.298855 1_555
Ca1 H20 2.298855 1_555
Ca1 H5 2.314243 1_655
Ca1 H4 2.314243 1_655
Ca1 H2 2.314243 1_555
Ca1 H0 2.314243 1_555
Ca1 H26 2.402490 1_555
Ca1 H21 2.402491 1_655
Ca1 H7 2.498177 1_556
Ca1 H7 2.498177 1_555
Ca2 H14 2.298849 1_555
Ca2 H10 2.298849 1_555
Ca2 H15 2.298849 1_555
Ca2 H18 2.298849 1_555
Ca2 H3 2.314243 1_555
Ca2 H1 2.314243 1_555
Ca2 H2 2.314243 1_565
Ca2 H0 2.314243 1_565
Ca2 H22 2.402498 1_555
Ca2 H25 2.402498 1_555
Ca2 H8 2.498177 1_556
Ca2 H8 2.498177 1_555
Ca3 H13 2.351144 1_545
Ca3 H17 2.351144 1_544
Ca3 H16 2.351149 1_555
Ca3 H12 2.351149 1_554
Ca3 H0 2.426399 1_555
Ca3 H2 2.426399 1_554
Ca4 H20 2.351144 1_555
Ca4 H19 2.351144 1_554
Ca4 H9 2.351149 1_655
Ca4 H11 2.351149 1_654
Ca4 H1 2.426399 1_555
Ca4 H3 2.426399 1_554
Ca5 H18 2.351142 1_555
Ca5 H15 2.351142 1_554
Ca5 H10 2.351142 1_555
Ca5 H14 2.351142 1_554
Ca5 H4 2.426399 1_555
Ca5 H5 2.426399 1_554
H0 V0 1.707018 1_655
H1 V0 1.707018 1_665
H2 V0 1.707018 1_656
H3 V0 1.707018 1_666
H4 V0 1.707018 1_555
H5 V0 1.707018 1_556
H6 V0 1.691253 1_555
H7 V0 1.691253 1_655
H8 V0 1.691253 1_665
H9 V1 1.725986 1_555
H10 V1 1.725992 1_555
H11 V1 1.725986 1_555
H12 V2 1.725986 1_555
H13 V1 1.725980 1_555
H14 V1 1.725992 1_555
H15 V2 1.725992 1_555
H16 V2 1.725986 1_555
H17 V1 1.725980 1_555
H18 V2 1.725992 1_555
H19 V2 1.725980 1_555
H20 V2 1.725980 1_555
H21 V1 1.671963 1_555
H22 V1 1.671963 1_555
H23 V2 1.671963 1_555
H24 V1 1.671963 1_555
H25 V2 1.671963 1_555
H26 V2 1.671963 1_555
