# generated using pymatgen
data_Ir3Rh5Se16
_symmetry_space_group_name_H-M   'P 1'
_cell_length_a   3.74269881
_cell_length_b   5.99326099
_cell_length_c   21.16460184
_cell_angle_alpha   89.97993675
_cell_angle_beta   90.00000000
_cell_angle_gamma   90.00000000
_symmetry_Int_Tables_number   1
_chemical_formula_structural   Ir3Rh5Se16
_chemical_formula_sum   'Ir3 Rh5 Se16'
_cell_volume   474.74253647
_cell_formula_units_Z   1
loop_
 _symmetry_equiv_pos_site_id
 _symmetry_equiv_pos_as_xyz
  1  'x, y, z'
loop_
 _atom_site_type_symbol
 _atom_site_label
 _atom_site_symmetry_multiplicity
 _atom_site_fract_x
 _atom_site_fract_y
 _atom_site_fract_z
 _atom_site_occupancy
  Ir  Ir0  1  0.25000000  0.07228571  0.57649089  1
  Ir  Ir1  1  0.25000000  0.42815186  0.07613595  1
  Ir  Ir2  1  0.75000000  0.92759504  0.42366202  1
  Rh  Rh0  1  0.75000000  0.57318727  0.92406285  1
  Rh  Rh1  1  0.25000000  0.05579047  0.80516854  1
  Rh  Rh2  1  0.25000000  0.44449222  0.30451482  1
  Rh  Rh3  1  0.75000000  0.94414178  0.19487725  1
  Rh  Rh4  1  0.75000000  0.55484674  0.69571188  1
  Se  Se0  1  0.25000000  0.42907438  0.85979954  1
  Se  Se1  1  0.25000000  0.07122619  0.36077066  1
  Se  Se2  1  0.75000000  0.57131421  0.13893526  1
  Se  Se3  1  0.75000000  0.92852937  0.63957149  1
  Se  Se4  1  0.75000000  0.17998368  0.73749566  1
  Se  Se5  1  0.75000000  0.31917933  0.23704376  1
  Se  Se6  1  0.25000000  0.81931367  0.26244529  1
  Se  Se7  1  0.25000000  0.67967878  0.76343821  1
  Se  Se8  1  0.75000000  0.95082756  0.87807163  1
  Se  Se9  1  0.75000000  0.55078838  0.37742741  1
  Se  Se10  1  0.25000000  0.05057717  0.12180106  1
  Se  Se11  1  0.25000000  0.44920419  0.62267766  1
  Se  Se12  1  0.75000000  0.22376374  0.50813007  1
  Se  Se13  1  0.75000000  0.27645391  0.00785167  1
  Se  Se14  1  0.25000000  0.77596684  0.49201351  1
  Se  Se15  1  0.25000000  0.72362751  0.99190391  1
loop_
_geom_bond_atom_site_label_1
_geom_bond_atom_site_label_2
_geom_bond_distance
_geom_bond_site_symmetry_2
Ir0 Se3 2.454765 1_545
Ir0 Se3 2.454765 1_445
Ir0 Se11 2.461717 1_555
Ir0 Se14 2.520475 1_545
Ir0 Se12 2.533482 1_455
Ir0 Se12 2.533482 1_555
Ir1 Se2 2.450611 1_455
Ir1 Se2 2.450611 1_555
Ir1 Se10 2.460344 1_555
Ir1 Se15 2.512349 1_554
Ir1 Se13 2.533393 1_455
Ir1 Se13 2.533393 1_555
Ir2 Se1 2.452326 1_565
Ir2 Se1 2.452326 1_665
Ir2 Se9 2.461505 1_555
Ir2 Se12 2.519701 1_565
Ir2 Se14 2.533692 1_555
Ir2 Se14 2.533692 1_655
Rh0 Se8 2.463422 1_555
Rh0 Se0 2.469545 1_655
Rh0 Se0 2.469545 1_555
Rh0 Se13 2.511035 1_556
Rh0 Se15 2.525350 1_555
Rh0 Se15 2.525350 1_655
Rh1 Se7 2.421275 1_545
Rh1 Se4 2.471156 1_555
Rh1 Se4 2.471156 1_455
Rh1 Se8 2.505542 1_445
Rh1 Se8 2.505542 1_545
Rh1 Se0 2.518674 1_555
Rh2 Se6 2.416135 1_555
Rh2 Se5 2.471018 1_455
Rh2 Se5 2.471018 1_555
Rh2 Se9 2.507956 1_455
Rh2 Se9 2.507956 1_555
Rh2 Se1 2.533825 1_555
Rh3 Se5 2.418676 1_565
Rh3 Se6 2.471020 1_555
Rh3 Se6 2.471020 1_655
Rh3 Se10 2.510025 1_665
Rh3 Se10 2.510025 1_565
Rh3 Se2 2.529123 1_555
Rh4 Se4 2.414147 1_555
Rh4 Se7 2.473271 1_555
Rh4 Se7 2.473271 1_655
Rh4 Se11 2.508549 1_555
Rh4 Se11 2.508549 1_655
Rh4 Se3 2.534884 1_555
Se0 Se7 2.532395 1_555
Se1 Se6 2.571432 1_545
Se2 Se5 2.567646 1_555
Se3 Se4 2.562947 1_565
