# generated using pymatgen
data_KHgAsO4
_symmetry_space_group_name_H-M   'P 1'
_cell_length_a   10.01195271
_cell_length_b   5.42678871
_cell_length_c   8.67930833
_cell_angle_alpha   92.14684440
_cell_angle_beta   90.00000000
_cell_angle_gamma   90.00000000
_symmetry_Int_Tables_number   1
_chemical_formula_structural   KHgAsO4
_chemical_formula_sum   'K4 Hg4 As4 O16'
_cell_volume   471.23971094
_cell_formula_units_Z   4
loop_
 _symmetry_equiv_pos_site_id
 _symmetry_equiv_pos_as_xyz
  1  'x, y, z'
loop_
 _atom_site_type_symbol
 _atom_site_label
 _atom_site_symmetry_multiplicity
 _atom_site_fract_x
 _atom_site_fract_y
 _atom_site_fract_z
 _atom_site_occupancy
  K  K0  1  0.26761295  0.27817131  0.74932785  1
  K  K1  1  0.76761295  0.72182869  0.25067215  1
  K  K2  1  0.32436110  0.27086432  0.25298740  1
  K  K3  1  0.82436110  0.72913568  0.74701260  1
  Hg  Hg0  1  0.13637707  0.74411234  0.43528380  1
  Hg  Hg1  1  0.63637707  0.25588766  0.56471620  1
  Hg  Hg2  1  0.97900775  0.22902649  0.04057356  1
  Hg  Hg3  1  0.47900775  0.77097351  0.95942644  1
  As  As0  1  0.44522425  0.72206426  0.53658379  1
  As  As1  1  0.94522425  0.27793574  0.46341621  1
  As  As2  1  0.14456088  0.72817688  0.00790993  1
  As  As3  1  0.64456088  0.27182312  0.99209007  1
  O  O0  1  0.44601956  0.40225569  0.51959038  1
  O  O1  1  0.94601956  0.59774431  0.48040962  1
  O  O2  1  0.37418734  0.81679891  0.70393721  1
  O  O3  1  0.87418734  0.18320109  0.29606279  1
  O  O4  1  0.34087668  0.80603111  0.38791690  1
  O  O5  1  0.84087668  0.19396889  0.61208310  1
  O  O6  1  0.10319129  0.17980284  0.49099846  1
  O  O7  1  0.60319129  0.82019716  0.50900154  1
  O  O8  1  0.30141925  0.60066160  0.01970990  1
  O  O9  1  0.80141925  0.39933840  0.98029010  1
  O  O10  1  0.16442972  0.04670339  0.02483651  1
  O  O11  1  0.66442972  0.95329661  0.97516349  1
  O  O12  1  0.06146098  0.62979506  0.16475318  1
  O  O13  1  0.56146098  0.37020494  0.83524682  1
  O  O14  1  0.06973117  0.63176637  0.84495655  1
  O  O15  1  0.56973117  0.36823363  0.15504345  1
loop_
_geom_bond_atom_site_label_1
_geom_bond_atom_site_label_2
_geom_bond_distance
_geom_bond_site_symmetry_2
K0 O2 2.736548 1_545
K0 O0 2.778566 1_555
K0 O6 2.816436 1_555
K0 O14 2.859505 1_555
K0 O8 2.894270 1_556
K0 O10 2.930542 1_556
K0 O13 3.071312 1_555
K0 O2 3.150245 1_555
K1 O3 2.736548 1_565
K1 O1 2.778566 1_555
K1 O7 2.816436 1_555
K1 O15 2.859505 1_555
K1 O9 2.894270 1_554
K1 O11 2.930542 1_554
K1 O12 3.071312 1_655
K1 O3 3.150245 1_555
K2 O15 2.659052 1_555
K2 O0 2.687506 1_555
K2 O8 2.761662 1_555
K2 O10 2.790057 1_555
K2 O4 2.825491 1_545
K2 O6 3.080813 1_555
K2 O4 3.094928 1_555
K3 O14 2.659052 1_655
K3 O1 2.687506 1_555
K3 O9 2.761662 1_555
K3 O11 2.790057 1_555
K3 O5 2.825491 1_565
K3 O7 3.080813 1_555
K3 O5 3.094928 1_555
Hg0 O1 2.107106 1_455
Hg0 O4 2.117613 1_555
Hg0 O6 2.418461 1_565
Hg0 O12 2.520220 1_555
Hg1 O0 2.107106 1_555
Hg1 O5 2.117613 1_555
Hg1 O7 2.418461 1_545
Hg1 O13 2.520220 1_555
Hg2 O9 2.079791 1_554
Hg2 O10 2.105672 1_655
Hg2 O3 2.474205 1_555
Hg2 O12 2.529353 1_655
Hg3 O8 2.079791 1_556
Hg3 O11 2.105672 1_555
Hg3 O2 2.474205 1_555
Hg3 O13 2.529353 1_555
As0 O2 1.680470 1_555
As0 O7 1.688726 1_555
As0 O4 1.734380 1_555
As0 O0 1.736294 1_555
As1 O3 1.680470 1_555
As1 O6 1.688726 1_655
As1 O5 1.734380 1_555
As1 O1 1.736294 1_555
As2 O14 1.667301 1_554
As2 O12 1.698477 1_555
As2 O8 1.720756 1_555
As2 O10 1.740719 1_565
As3 O15 1.667301 1_556
As3 O13 1.698477 1_555
As3 O9 1.720756 1_555
As3 O11 1.740719 1_545
