# generated using pymatgen
data_Sc4Ni2As6Ru5
_symmetry_space_group_name_H-M   'P 1'
_cell_length_a   6.99325455
_cell_length_b   6.99325387
_cell_length_c   6.93402146
_cell_angle_alpha   109.66831833
_cell_angle_beta   109.66831364
_cell_angle_gamma   109.42377672
_symmetry_Int_Tables_number   1
_chemical_formula_structural   Sc4Ni2As6Ru5
_chemical_formula_sum   'Sc4 Ni2 As6 Ru5'
_cell_volume   259.92463862
_cell_formula_units_Z   1
loop_
 _symmetry_equiv_pos_site_id
 _symmetry_equiv_pos_as_xyz
  1  'x, y, z'
loop_
 _atom_site_type_symbol
 _atom_site_label
 _atom_site_symmetry_multiplicity
 _atom_site_fract_x
 _atom_site_fract_y
 _atom_site_fract_z
 _atom_site_occupancy
  Sc  Sc0  1  0.00828819  0.00828819  0.51266483  1
  Sc  Sc1  1  0.49733827  0.99733827  0.99467653  1
  Sc  Sc2  1  0.99733827  0.49733827  0.99467653  1
  Sc  Sc3  1  0.50437764  0.50437764  0.51266483  1
  Ni  Ni0  1  0.74908465  0.50093594  0.25002059  1
  Ni  Ni1  1  0.50093594  0.74908465  0.25002059  1
  As  As0  1  0.31147851  0.00046989  0.31194840  1
  As  As1  1  0.00046989  0.31147851  0.31194840  1
  As  As2  1  0.99720844  0.68174099  0.67894943  1
  As  As3  1  0.32250941  0.32250941  0.01085515  1
  As  As4  1  0.68834574  0.68834574  0.01085515  1
  As  As5  1  0.68174099  0.99720844  0.67894943  1
  Ru  Ru0  1  0.50208174  0.25192670  0.75400844  1
  Ru  Ru1  1  0.74484100  0.24484100  0.48968100  1
  Ru  Ru2  1  0.24484100  0.74484100  0.48968100  1
  Ru  Ru3  1  0.25192670  0.50208174  0.75400844  1
  Ru  Ru4  1  0.99719462  0.99719462  0.99438924  1
loop_
_geom_bond_atom_site_label_1
_geom_bond_atom_site_label_2
_geom_bond_distance
_geom_bond_site_symmetry_2
Ni0 Ru0 2.795336 1_554
Ni0 Ru1 2.823335 1_555
Ni0 Ru2 2.823341 1_655
Ni0 Ni1 2.833013 1_555
Ni0 Sc1 2.866671 1_544
Ni0 Sc2 2.866671 1_554
Ni0 Sc3 2.888189 1_555
Ni0 Sc0 2.888194 1_665
Ni1 Ru3 2.795336 1_554
Ni1 Ru2 2.823335 1_555
Ni1 Ru1 2.823341 1_565
Ni1 Sc2 2.866671 1_454
Ni1 Sc1 2.866671 1_554
Ni1 Sc3 2.888189 1_555
Ni1 Sc0 2.888194 1_665
As0 Ru2 2.499465 1_545
As0 Ru1 2.499472 1_555
As0 Ru0 2.515363 1_555
As0 Ru4 2.520826 1_444
As0 Ni1 2.540546 1_545
As0 Sc2 2.905351 1_444
As0 Sc1 2.905351 1_544
As0 Sc0 2.906536 1_555
As0 Sc3 2.906541 1_555
As1 Ru1 2.499465 1_455
As1 Ru2 2.499472 1_555
As1 Ru3 2.515363 1_555
As1 Ru4 2.520826 1_444
As1 Ni0 2.540546 1_455
As1 Sc1 2.905351 1_444
As1 Sc2 2.905351 1_454
As1 Sc0 2.906536 1_555
As1 Sc3 2.906541 1_555
As2 Ni0 2.447614 1_555
As2 Ru3 2.515378 1_655
As2 Ru1 2.515455 1_555
As2 Ru2 2.515462 1_655
As2 Ru4 2.530410 1_555
As2 Sc3 2.874941 1_555
As2 Sc0 2.874947 1_665
As2 Sc1 2.890630 1_655
As2 Sc2 2.890630 1_555
As3 Ni1 2.451017 1_555
As3 Ni0 2.451017 1_555
As3 Ru0 2.513682 1_554
As3 Ru3 2.513682 1_554
As3 Ru4 2.563651 1_444
As3 Sc0 2.856474 1_554
As3 Sc3 2.882472 1_555
As3 Sc1 2.906587 1_544
As3 Sc2 2.906587 1_454
As4 Ni0 2.451017 1_555
As4 Ni1 2.451017 1_555
As4 Ru0 2.513682 1_554
As4 Ru3 2.513682 1_554
As4 Ru4 2.563651 1_554
As4 Sc3 2.856476 1_554
As4 Sc0 2.882474 1_665
As4 Sc1 2.906587 1_554
As4 Sc2 2.906587 1_554
As5 Ni1 2.447614 1_555
As5 Ru0 2.515378 1_565
As5 Ru2 2.515456 1_555
As5 Ru1 2.515462 1_565
As5 Ru4 2.530410 1_555
As5 Sc3 2.874941 1_555
As5 Sc0 2.874947 1_665
As5 Sc2 2.890630 1_565
As5 Sc1 2.890630 1_555
Ru0 Sc0 2.811693 1_555
Ru0 Sc3 2.811698 1_555
Ru0 Sc2 2.820250 1_555
Ru0 Sc1 2.820250 1_545
Ru1 Sc1 2.789634 1_544
Ru1 Sc2 2.845939 1_555
Ru1 Sc3 2.857129 1_555
Ru1 Sc0 2.857129 1_655
Ru2 Sc2 2.789634 1_454
Ru2 Sc1 2.845939 1_555
Ru2 Sc0 2.857129 1_565
Ru2 Sc3 2.857129 1_555
Ru3 Sc0 2.811692 1_555
Ru3 Sc3 2.811698 1_555
Ru3 Sc1 2.820250 1_555
Ru3 Sc2 2.820251 1_455
