# generated using pymatgen
data_LiScNi4
_symmetry_space_group_name_H-M   'P 1'
_cell_length_a   4.74302402
_cell_length_b   4.74302440
_cell_length_c   4.74302511
_cell_angle_alpha   60.00000870
_cell_angle_beta   60.00000607
_cell_angle_gamma   60.00001062
_symmetry_Int_Tables_number   1
_chemical_formula_structural   LiScNi4
_chemical_formula_sum   'Li1 Sc1 Ni4'
_cell_volume   75.44860126
_cell_formula_units_Z   1
loop_
 _symmetry_equiv_pos_site_id
 _symmetry_equiv_pos_as_xyz
  1  'x, y, z'
loop_
 _atom_site_type_symbol
 _atom_site_label
 _atom_site_symmetry_multiplicity
 _atom_site_fract_x
 _atom_site_fract_y
 _atom_site_fract_z
 _atom_site_occupancy
  Li  Li0  1  0.25000000  0.25000000  0.25000000  1
  Sc  Sc0  1  0.00000000  0.00000000  0.00000000  1
  Ni  Ni0  1  0.62455279  0.62455279  0.12634162  1
  Ni  Ni1  1  0.62455279  0.12634162  0.62455279  1
  Ni  Ni2  1  0.12634162  0.62455279  0.62455279  1
  Ni  Ni3  1  0.62455279  0.62455279  0.62455279  1
loop_
_geom_bond_atom_site_label_1
_geom_bond_atom_site_label_2
_geom_bond_distance
_geom_bond_site_symmetry_2
Li0 Ni0 2.779945 1_555
Li0 Ni1 2.779945 1_455
Li0 Ni1 2.779945 1_555
Li0 Ni0 2.779945 1_455
Li0 Ni2 2.779945 1_545
Li0 Ni2 2.779945 1_555
Li0 Ni0 2.779945 1_545
Li0 Ni3 2.779945 1_455
Li0 Ni3 2.779945 1_554
Li0 Ni3 2.779945 1_545
Li0 Ni1 2.779945 1_554
Li0 Ni2 2.779945 1_554
Li0 Sc0 2.904497 1_555
Li0 Sc0 2.904497 1_655
Li0 Sc0 2.904498 1_565
Li0 Sc0 2.904498 1_556
Ni0 Ni2 2.363028 1_555
Ni0 Ni3 2.363028 1_555
Ni0 Ni1 2.363028 1_555
Ni0 Ni2 2.379997 1_654
Ni0 Ni3 2.379997 1_554
Ni0 Ni1 2.379997 1_564
Ni0 Sc0 2.781753 1_665
Ni0 Sc0 2.781754 1_565
Ni0 Sc0 2.781754 1_655
Ni1 Ni3 2.363028 1_555
Ni1 Ni2 2.363028 1_555
Ni1 Ni3 2.379997 1_545
Ni1 Ni2 2.379997 1_645
Ni1 Sc0 2.781754 1_556
Ni1 Sc0 2.781754 1_656
Ni1 Sc0 2.781754 1_655
Ni2 Ni3 2.363028 1_555
Ni2 Ni3 2.379996 1_455
Ni2 Sc0 2.781754 1_556
Ni2 Sc0 2.781754 1_566
Ni2 Sc0 2.781754 1_565
Ni3 Sc0 2.781754 1_566
Ni3 Sc0 2.781754 1_665
Ni3 Sc0 2.781754 1_656
