# generated using pymatgen
data_K4Sr2SiP4
_symmetry_space_group_name_H-M   'P 1'
_cell_length_a   9.87056968
_cell_length_b   9.87056915
_cell_length_c   7.49545260
_cell_angle_alpha   88.37337395
_cell_angle_beta   88.37336287
_cell_angle_gamma   119.21258909
_symmetry_Int_Tables_number   1
_chemical_formula_structural   K4Sr2SiP4
_chemical_formula_sum   'K8 Sr4 Si2 P8'
_cell_volume   636.38476613
_cell_formula_units_Z   2
loop_
 _symmetry_equiv_pos_site_id
 _symmetry_equiv_pos_as_xyz
  1  'x, y, z'
loop_
 _atom_site_type_symbol
 _atom_site_label
 _atom_site_symmetry_multiplicity
 _atom_site_fract_x
 _atom_site_fract_y
 _atom_site_fract_z
 _atom_site_occupancy
  K  K0  1  0.05055320  0.52250824  0.61327116  1
  K  K1  1  0.52250824  0.05055320  0.11327116  1
  K  K2  1  0.27326427  0.13386038  0.83081267  1
  K  K3  1  0.87109589  0.72586849  0.77262590  1
  K  K4  1  0.85984893  0.14937215  0.80703128  1
  K  K5  1  0.72586849  0.87109589  0.27262590  1
  K  K6  1  0.13386038  0.27326427  0.33081267  1
  K  K7  1  0.14937215  0.85984893  0.30703128  1
  Sr  Sr0  1  0.47403950  0.94839866  0.61326659  1
  Sr  Sr1  1  0.47216305  0.52156295  0.61456927  1
  Sr  Sr2  1  0.94839866  0.47403950  0.11326659  1
  Sr  Sr3  1  0.52156295  0.47216305  0.11456927  1
  Si  Si0  1  0.66642437  0.33685694  0.50185561  1
  Si  Si1  1  0.33685694  0.66642437  0.00185561  1
  P  P0  1  0.66281649  0.34513464  0.81124659  1
  P  P1  1  0.34513464  0.66281649  0.31124659  1
  P  P2  1  0.58776960  0.78501758  0.87720538  1
  P  P3  1  0.21055284  0.40964981  0.92217505  1
  P  P4  1  0.20479640  0.78844560  0.90468649  1
  P  P5  1  0.40964981  0.21055284  0.42217505  1
  P  P6  1  0.78501758  0.58776960  0.37720538  1
  P  P7  1  0.78844560  0.20479640  0.40468649  1
loop_
_geom_bond_atom_site_label_1
_geom_bond_atom_site_label_2
_geom_bond_distance
_geom_bond_site_symmetry_2
K0 P4 3.254661 1_555
K0 P3 3.297646 1_555
K0 P1 3.318901 1_555
K0 P7 3.400108 1_455
K0 Si0 3.451971 1_455
K0 P6 3.501709 1_455
K0 P0 3.592243 1_455
K1 P7 3.254661 1_555
K1 P5 3.297645 1_555
K1 P0 3.318901 1_554
K1 P4 3.400108 1_544
K1 Si1 3.451970 1_545
K1 P2 3.501708 1_544
K1 P1 3.592243 1_545
K2 P3 3.160540 1_555
K2 P4 3.163874 1_545
K2 P5 3.225890 1_555
K2 P0 3.358404 1_555
K3 P2 3.204918 1_555
K3 P4 3.231791 1_655
K3 P6 3.256726 1_555
K3 P0 3.285787 1_555
K4 P7 3.208452 1_555
K4 P2 3.287526 1_545
K4 P3 3.307993 1_655
K4 P0 3.344427 1_555
K5 P6 3.204918 1_555
K5 P7 3.231791 1_565
K5 P2 3.256726 1_554
K5 P1 3.285787 1_555
K6 P5 3.160540 1_555
K6 P7 3.163874 1_455
K6 P3 3.225890 1_554
K6 P1 3.358404 1_555
K7 P4 3.208451 1_554
K7 P6 3.287527 1_455
K7 P5 3.307993 1_565
K7 P1 3.344427 1_555
Si0 Sr1 3.334983 1_555
Si1 Sr3 3.334983 1_555
P0 Si0 2.322656 1_555
P0 Sr3 3.220764 1_556
P0 Sr2 3.422639 1_556
P0 Sr1 3.458012 1_555
P1 Si1 2.322656 1_555
P1 Sr1 3.220765 1_555
P1 Sr0 3.422639 1_555
P1 Sr3 3.458012 1_555
P2 Si1 2.313805 1_556
P2 Sr1 3.075943 1_555
P2 Sr0 3.080056 1_555
P2 Sr3 3.283408 1_556
P3 Si1 2.319191 1_556
P3 Sr1 3.152350 1_555
P3 Sr3 3.215150 1_556
P3 Sr2 3.255420 1_456
P4 Si1 2.284028 1_556
P4 Sr0 3.115407 1_555
P4 Sr2 3.211488 1_456
P5 Si0 2.319191 1_555
P5 Sr3 3.152350 1_555
P5 Sr1 3.215150 1_555
P5 Sr0 3.255420 1_545
P6 Si0 2.313805 1_555
P6 Sr3 3.075944 1_555
P6 Sr2 3.080056 1_555
P6 Sr1 3.283408 1_555
P7 Si0 2.284028 1_555
P7 Sr2 3.115407 1_555
P7 Sr0 3.211488 1_545
