# generated using pymatgen
data_RbBa4Nb5O15
_symmetry_space_group_name_H-M   'P 1'
_cell_length_a   9.21403381
_cell_length_b   9.21403294
_cell_length_c   7.14123833
_cell_angle_alpha   75.03977727
_cell_angle_beta   75.03977793
_cell_angle_gamma   36.89353109
_symmetry_Int_Tables_number   1
_chemical_formula_structural   RbBa4Nb5O15
_chemical_formula_sum   'Rb1 Ba4 Nb5 O15'
_cell_volume   350.23183300
_cell_formula_units_Z   1
loop_
 _symmetry_equiv_pos_site_id
 _symmetry_equiv_pos_as_xyz
  1  'x, y, z'
loop_
 _atom_site_type_symbol
 _atom_site_label
 _atom_site_symmetry_multiplicity
 _atom_site_fract_x
 _atom_site_fract_y
 _atom_site_fract_z
 _atom_site_occupancy
  Rb  Rb0  1  0.00000000  0.00000000  0.00000000  1
  Ba  Ba0  1  0.59908162  0.59908162  0.60359977  1
  Ba  Ba1  1  0.19883299  0.19883299  0.19919401  1
  Ba  Ba2  1  0.80116701  0.80116701  0.80080599  1
  Ba  Ba3  1  0.40091838  0.40091838  0.39640023  1
  Nb  Nb0  1  0.19922246  0.19922346  0.70149818  1
  Nb  Nb1  1  0.80077754  0.80077654  0.29850182  1
  Nb  Nb2  1  0.40100550  0.40100550  0.90005464  1
  Nb  Nb3  1  0.00000000  0.00000000  0.50000000  1
  Nb  Nb4  1  0.59899450  0.59899450  0.09994536  1
  O  O0  1  0.40454847  0.89928442  0.89884839  1
  O  O1  1  0.00000000  0.50000000  0.50000000  1
  O  O2  1  0.59545153  0.10071558  0.10115161  1
  O  O3  1  0.20237487  0.69646901  0.69649560  1
  O  O4  1  0.79762513  0.30353099  0.30350440  1
  O  O5  1  0.29998869  0.29998869  0.79943305  1
  O  O6  1  0.89870125  0.89870125  0.40432824  1
  O  O7  1  0.50000000  0.50000000  0.00000000  1
  O  O8  1  0.10129875  0.10129875  0.59567176  1
  O  O9  1  0.70001131  0.70001131  0.20056695  1
  O  O10  1  0.50000000  0.00000000  0.50000000  1
  O  O11  1  0.10071558  0.59545153  0.10115161  1
  O  O12  1  0.69646901  0.20237487  0.69649560  1
  O  O13  1  0.30353099  0.79762513  0.30350440  1
  O  O14  1  0.89928442  0.40454847  0.89884839  1
loop_
_geom_bond_atom_site_label_1
_geom_bond_atom_site_label_2
_geom_bond_distance
_geom_bond_site_symmetry_2
Ba0 O7 2.888743 1_556
Ba0 O4 2.894092 1_555
Ba0 O13 2.894092 1_555
Ba0 O12 2.900917 1_555
Ba0 O3 2.900917 1_555
Ba0 O0 2.905005 1_555
Ba0 O14 2.905005 1_555
Ba0 O8 2.916138 1_565
Ba0 O8 2.916138 1_655
Ba0 O10 2.927524 1_565
Ba0 O1 2.927525 1_655
Ba0 O9 2.938187 1_555
Ba1 O8 2.880306 1_555
Ba1 O11 2.895488 1_555
Ba1 O2 2.895488 1_555
Ba1 O13 2.897674 1_545
Ba1 O4 2.897674 1_455
Ba1 O0 2.898358 1_544
Ba1 O14 2.898358 1_454
Ba1 O9 2.915644 1_455
Ba1 O9 2.915644 1_545
Ba1 O5 2.920487 1_554
Ba1 O1 2.930077 1_555
Ba1 O10 2.930077 1_555
Ba2 O6 2.880306 1_555
Ba2 O14 2.895488 1_555
Ba2 O0 2.895488 1_555
Ba2 O12 2.897674 1_565
Ba2 O3 2.897674 1_655
Ba2 O2 2.898358 1_566
Ba2 O11 2.898358 1_656
Ba2 O5 2.915644 1_655
Ba2 O5 2.915644 1_565
Ba2 O9 2.920487 1_556
Ba2 O1 2.930077 1_655
Ba2 O10 2.930077 1_565
Ba3 O7 2.888743 1_555
Ba3 O3 2.894092 1_555
Ba3 O12 2.894092 1_555
Ba3 O13 2.900917 1_555
Ba3 O4 2.900917 1_555
Ba3 O2 2.905005 1_555
Ba3 O11 2.905005 1_555
Ba3 O6 2.916138 1_545
Ba3 O6 2.916138 1_455
Ba3 O10 2.927524 1_555
Ba3 O1 2.927525 1_555
Ba3 O5 2.938187 1_555
Nb0 O8 2.050757 1_555
Nb0 O14 2.050810 1_455
Nb0 O0 2.050814 1_545
Nb0 O5 2.064591 1_555
Nb0 O1 2.070842 1_555
Nb0 O10 2.070846 1_555
Nb1 O6 2.050757 1_555
Nb1 O11 2.050810 1_655
Nb1 O2 2.050814 1_565
Nb1 O9 2.064591 1_555
Nb1 O1 2.070842 1_655
Nb1 O10 2.070846 1_565
Nb2 O7 2.043633 1_556
Nb2 O3 2.057922 1_555
Nb2 O12 2.057922 1_555
Nb2 O2 2.067775 1_556
Nb2 O11 2.067776 1_556
Nb2 O5 2.079744 1_555
Nb3 O3 2.061822 1_545
Nb3 O4 2.061822 1_455
Nb3 O12 2.061822 1_455
Nb3 O13 2.061822 1_545
Nb3 O6 2.064237 1_445
Nb3 O8 2.064237 1_555
Nb4 O7 2.043633 1_555
Nb4 O4 2.057922 1_555
Nb4 O13 2.057922 1_555
Nb4 O0 2.067775 1_554
Nb4 O14 2.067776 1_554
Nb4 O9 2.079744 1_555
O0 Rb0 2.949649 1_566
O2 Rb0 2.949649 1_655
O3 Rb0 2.949226 1_566
O4 Rb0 2.949226 1_655
O6 Rb0 2.947891 1_665
O7 Rb0 2.915536 1_655
O7 Rb0 2.915536 1_565
O8 Rb0 2.947891 1_556
O11 Rb0 2.949648 1_565
O12 Rb0 2.949226 1_656
O13 Rb0 2.949226 1_565
O14 Rb0 2.949648 1_656
