# generated using pymatgen
data_NaScSnI6
_symmetry_space_group_name_H-M   'P 1'
_cell_length_a   8.40174290
_cell_length_b   8.40170584
_cell_length_c   8.39965198
_cell_angle_alpha   54.64873943
_cell_angle_beta   54.64019781
_cell_angle_gamma   54.62650472
_symmetry_Int_Tables_number   1
_chemical_formula_structural   NaScSnI6
_chemical_formula_sum   'Na1 Sc1 Sn1 I6'
_cell_volume   366.88253910
_cell_formula_units_Z   1
loop_
 _symmetry_equiv_pos_site_id
 _symmetry_equiv_pos_as_xyz
  1  'x, y, z'
loop_
 _atom_site_type_symbol
 _atom_site_label
 _atom_site_symmetry_multiplicity
 _atom_site_fract_x
 _atom_site_fract_y
 _atom_site_fract_z
 _atom_site_occupancy
  Na  Na0  1  0.66798807  0.66787971  0.66800393  1
  Sc  Sc0  1  0.99978826  0.99982481  0.99983821  1
  Sn  Sn0  1  0.33229865  0.33232579  0.33222405  1
  I  I0  1  0.22782743  0.61536261  0.91691254  1
  I  I1  1  0.61541826  0.91694533  0.22762869  1
  I  I2  1  0.91700467  0.22773199  0.61537442  1
  I  I3  1  0.77092052  0.38359604  0.08536136  1
  I  I4  1  0.38353099  0.08534860  0.77098014  1
  I  I5  1  0.08522515  0.77098712  0.38367764  1
loop_
_geom_bond_atom_site_label_1
_geom_bond_atom_site_label_2
_geom_bond_distance
_geom_bond_site_symmetry_2
I0 Sc0 2.912623 1_455
I0 Na0 3.180369 1_555
I0 Sn0 3.181609 1_556
I1 Sc0 2.912884 1_554
I1 Na0 3.181251 1_555
I1 Sn0 3.182335 1_565
I2 Sc0 2.912254 1_545
I2 Na0 3.179814 1_555
I2 Sn0 3.182754 1_655
I3 Sc0 2.917695 1_544
I3 Sn0 3.166353 1_555
I3 Na0 3.189131 1_554
I4 Sc0 2.918383 1_445
I4 Sn0 3.166362 1_555
I4 Na0 3.189793 1_545
I5 Sc0 2.917942 1_454
I5 Sn0 3.166357 1_555
I5 Na0 3.189793 1_455
