# generated using pymatgen
data_Sr2NiPtI
_symmetry_space_group_name_H-M   'P 1'
_cell_length_a   4.27646521
_cell_length_b   4.27646516
_cell_length_c   18.09394070
_cell_angle_alpha   90.00000000
_cell_angle_beta   90.00000000
_cell_angle_gamma   120.00001515
_symmetry_Int_Tables_number   1
_chemical_formula_structural   Sr2NiPtI
_chemical_formula_sum   'Sr4 Ni2 Pt2 I2'
_cell_volume   286.57190413
_cell_formula_units_Z   2
loop_
 _symmetry_equiv_pos_site_id
 _symmetry_equiv_pos_as_xyz
  1  'x, y, z'
loop_
 _atom_site_type_symbol
 _atom_site_label
 _atom_site_symmetry_multiplicity
 _atom_site_fract_x
 _atom_site_fract_y
 _atom_site_fract_z
 _atom_site_occupancy
  Sr  Sr0  1  0.00000000  0.00000000  0.39067684  1
  Sr  Sr1  1  0.00000000  0.00000000  0.89067684  1
  Sr  Sr2  1  0.00000000  0.00000000  0.60908970  1
  Sr  Sr3  1  0.00000000  0.00000000  0.10908970  1
  Ni  Ni0  1  0.33333300  0.66666700  0.50115566  1
  Ni  Ni1  1  0.66666700  0.33333300  0.00115566  1
  Pt  Pt0  1  0.66666700  0.33333300  0.49891297  1
  Pt  Pt1  1  0.33333300  0.66666700  0.99891297  1
  I  I0  1  0.33333300  0.66666700  0.25016584  1
  I  I1  1  0.66666700  0.33333300  0.75016584  1
loop_
_geom_bond_atom_site_label_1
_geom_bond_atom_site_label_2
_geom_bond_distance
_geom_bond_site_symmetry_2
Ni0 Pt0 2.469349 1_565
Ni0 Pt0 2.469349 1_455
Ni0 Pt0 2.469357 1_555
Ni0 Sr2 3.148025 1_565
Ni0 Sr2 3.148028 1_555
Ni0 Sr2 3.148028 1_665
Ni0 Sr0 3.176796 1_565
Ni0 Sr0 3.176798 1_555
Ni0 Sr0 3.176798 1_665
Ni1 Pt1 2.469349 1_544
Ni1 Pt1 2.469349 1_654
Ni1 Pt1 2.469357 1_554
Ni1 Sr3 3.148025 1_655
Ni1 Sr3 3.148028 1_665
Ni1 Sr3 3.148028 1_555
Ni1 Sr1 3.176796 1_654
Ni1 Sr1 3.176798 1_664
Ni1 Sr1 3.176798 1_554
Pt0 Sr0 3.151419 1_655
Pt0 Sr0 3.151421 1_665
Pt0 Sr0 3.151421 1_555
Pt0 Sr2 3.173359 1_655
Pt0 Sr2 3.173361 1_665
Pt0 Sr2 3.173361 1_555
Pt1 Sr1 3.151419 1_565
Pt1 Sr1 3.151421 1_555
Pt1 Sr1 3.151421 1_665
Pt1 Sr3 3.173359 1_566
Pt1 Sr3 3.173361 1_556
Pt1 Sr3 3.173361 1_666
I0 Sr0 3.543985 1_565
I0 Sr0 3.543987 1_555
I0 Sr0 3.543987 1_665
I0 Sr3 3.551327 1_565
I0 Sr3 3.551329 1_555
I0 Sr3 3.551329 1_665
I1 Sr1 3.543985 1_655
I1 Sr1 3.543987 1_665
I1 Sr1 3.543987 1_555
I1 Sr2 3.551327 1_655
I1 Sr2 3.551329 1_665
I1 Sr2 3.551329 1_555
