# generated using pymatgen
data_Zr6Zn20Pt3C
_symmetry_space_group_name_H-M   'P 1'
_cell_length_a   8.64211996
_cell_length_b   8.66103726
_cell_length_c   8.64211939
_cell_angle_alpha   60.07223183
_cell_angle_beta   60.00000587
_cell_angle_gamma   60.07222561
_symmetry_Int_Tables_number   1
_chemical_formula_structural   Zr6Zn20Pt3C
_chemical_formula_sum   'Zr6 Zn20 Pt3 C1'
_cell_volume   457.89800799
_cell_formula_units_Z   1
loop_
 _symmetry_equiv_pos_site_id
 _symmetry_equiv_pos_as_xyz
  1  'x, y, z'
loop_
 _atom_site_type_symbol
 _atom_site_label
 _atom_site_symmetry_multiplicity
 _atom_site_fract_x
 _atom_site_fract_y
 _atom_site_fract_z
 _atom_site_occupancy
  Zr  Zr0  1  0.68946376  0.30762031  0.31345118  1
  Zr  Zr1  1  0.31053624  0.69237969  0.68654882  1
  Zr  Zr2  1  0.31053624  0.69237969  0.31053624  1
  Zr  Zr3  1  0.68946376  0.30762031  0.68946376  1
  Zr  Zr4  1  0.31345118  0.30762031  0.68946376  1
  Zr  Zr5  1  0.68654882  0.69237969  0.31053624  1
  Zn  Zn0  1  0.12129977  0.12062435  0.12129977  1
  Zn  Zn1  1  0.87870023  0.87937565  0.87870023  1
  Zn  Zn2  1  0.12129977  0.12062435  0.63677611  1
  Zn  Zn3  1  0.11965348  0.64103856  0.11965348  1
  Zn  Zn4  1  0.87870023  0.87937565  0.36322389  1
  Zn  Zn5  1  0.88034652  0.35896144  0.88034652  1
  Zn  Zn6  1  0.63677611  0.12062435  0.12129977  1
  Zn  Zn7  1  0.36322389  0.87937565  0.87870023  1
  Zn  Zn8  1  0.00000000  0.50000000  0.50000000  1
  Zn  Zn9  1  0.00000000  0.50000000  0.00000000  1
  Zn  Zn10  1  0.50000000  0.50000000  0.00000000  1
  Zn  Zn11  1  0.33023652  0.33720189  0.33023652  1
  Zn  Zn12  1  0.66976348  0.66279811  0.66976348  1
  Zn  Zn13  1  0.33023652  0.33720189  0.00232408  1
  Zn  Zn14  1  0.33148125  0.00555525  0.33148125  1
  Zn  Zn15  1  0.66976348  0.66279811  0.99767592  1
  Zn  Zn16  1  0.66851875  0.99444475  0.66851875  1
  Zn  Zn17  1  0.00232408  0.33720189  0.33023652  1
  Zn  Zn18  1  0.99767592  0.66279811  0.66976348  1
  Zn  Zn19  1  0.00000000  0.00000000  0.00000000  1
  Pt  Pt0  1  0.50000000  0.00000000  0.00000000  1
  Pt  Pt1  1  0.50000000  0.00000000  0.50000000  1
  Pt  Pt2  1  0.00000000  0.00000000  0.50000000  1
  C  C0  1  0.50000000  0.50000000  0.50000000  1
loop_
_geom_bond_atom_site_label_1
_geom_bond_atom_site_label_2
_geom_bond_distance
_geom_bond_site_symmetry_2
Zn0 Zn19 2.563934 1_555
Zn0 Zn9 2.686869 1_555
Zn0 Zn5 2.948125 1_454
Zn1 Zn19 2.563934 1_666
Zn1 Zn9 2.686869 1_656
Zn1 Zn3 2.948125 1_656
Zn2 Zn8 2.686869 1_555
Zn2 Zn5 2.948131 1_455
Zn3 Zn9 2.687149 1_555
Zn3 Zn8 2.687157 1_555
Zn3 Zn4 2.948131 1_455
Zn3 Zn7 2.948132 1_554
Zn3 Zr1 3.134543 1_554
Zn3 Zr5 3.134543 1_455
Zn3 Zr2 3.134558 1_555
Zn4 Zn8 2.686869 1_655
Zn5 Zn9 2.687149 1_656
Zn5 Zn8 2.687157 1_655
Zn5 Zn6 2.948132 1_556
Zn5 Zr0 3.134543 1_556
Zn5 Zr4 3.134543 1_655
Zn5 Zr3 3.134558 1_555
Zn8 Zr4 3.163031 1_555
Zn8 Zr5 3.163031 1_455
Zn8 Zr2 3.163039 1_555
Zn8 Zr3 3.163039 1_455
Zn9 Zr5 3.163037 1_455
Zn9 Zr4 3.163037 1_554
Zn9 Zr0 3.163038 1_455
Zn9 Zr1 3.163038 1_554
Zn10 Zn11 2.479376 1_555
Zn10 Zn12 2.479376 1_554
Zn10 Zn15 2.479380 1_554
Zn10 Zn13 2.479380 1_555
Zn10 Zn7 2.686869 1_554
Zn10 Zn6 2.686869 1_555
Zn10 Zn5 2.687156 1_554
Zn10 Zn3 2.687156 1_555
Zn10 Zr0 3.163031 1_555
Zn10 Zr1 3.163031 1_554
Zn10 Zr2 3.163039 1_555
Zn10 Zr3 3.163039 1_554
Zn11 Zn8 2.479375 1_555
Zn11 Zn3 2.702529 1_555
Zn12 Zn8 2.479375 1_655
Zn12 Zn5 2.702529 1_555
Zn13 Zn9 2.479373 1_555
Zn13 Zn3 2.702529 1_555
Zn15 Zn9 2.479373 1_656
Zn15 Zn5 2.702529 1_555
Zn17 Zn9 2.479373 1_555
Zn17 Zn8 2.479380 1_555
Zn17 Zn3 2.702529 1_555
Zn18 Zn9 2.479373 1_656
Zn18 Zn8 2.479380 1_655
Zn18 Zn5 2.702529 1_555
Zn19 Zn5 2.541238 1_454
Zn19 Zn3 2.541238 1_545
Zn19 Zn4 2.563934 1_445
Zn19 Zn2 2.563934 1_554
Zn19 Zn7 2.563934 1_544
Zn19 Zn6 2.563934 1_455
Pt0 Zn14 2.495073 1_555
Pt0 Zn16 2.495073 1_544
Pt0 Zn13 2.536916 1_555
Pt0 Zn15 2.536916 1_544
Pt0 Zn6 2.674265 1_555
Pt0 Zn7 2.674265 1_544
Pt0 Zn1 2.674265 1_544
Pt0 Zn0 2.674265 1_555
Pt0 Zr3 3.131437 1_554
Pt0 Zr2 3.131437 1_545
Pt0 Zr5 3.131441 1_545
Pt0 Zr4 3.131441 1_554
Pt1 Zn16 2.495080 1_545
Pt1 Zn14 2.495080 1_555
Pt1 Zn12 2.536918 1_545
Pt1 Zn11 2.536918 1_555
Pt1 Zn7 2.674265 1_545
Pt1 Zn6 2.674265 1_555
Pt1 Zn4 2.674265 1_545
Pt1 Zn2 2.674265 1_555
Pt1 Zr4 3.131435 1_555
Pt1 Zr5 3.131435 1_545
Pt1 Zr0 3.131435 1_555
Pt1 Zr1 3.131435 1_545
Pt2 Zn14 2.495073 1_555
Pt2 Zn16 2.495073 1_445
Pt2 Zn17 2.536916 1_555
Pt2 Zn18 2.536916 1_445
Pt2 Zn2 2.674265 1_555
Pt2 Zn4 2.674265 1_445
Pt2 Zn1 2.674265 1_445
Pt2 Zn0 2.674265 1_555
Pt2 Zr3 3.131437 1_455
Pt2 Zr2 3.131437 1_545
Pt2 Zr1 3.131441 1_545
Pt2 Zr0 3.131441 1_455
C0 Zr2 2.318340 1_555
C0 Zr3 2.318340 1_555
C0 Zr1 2.318346 1_555
C0 Zr0 2.318346 1_555
C0 Zr5 2.318346 1_555
C0 Zr4 2.318346 1_555
