# generated using pymatgen
data_ScTa5NbH16
_symmetry_space_group_name_H-M   'P 1'
_cell_length_a   6.40873207
_cell_length_b   6.33849543
_cell_length_c   6.40873270
_cell_angle_alpha   60.36188574
_cell_angle_beta   58.86504271
_cell_angle_gamma   60.36188053
_symmetry_Int_Tables_number   1
_chemical_formula_structural   ScTa5NbH16
_chemical_formula_sum   'Sc1 Ta5 Nb1 H16'
_cell_volume   183.42819372
_cell_formula_units_Z   1
loop_
 _symmetry_equiv_pos_site_id
 _symmetry_equiv_pos_as_xyz
  1  'x, y, z'
loop_
 _atom_site_type_symbol
 _atom_site_label
 _atom_site_symmetry_multiplicity
 _atom_site_fract_x
 _atom_site_fract_y
 _atom_site_fract_z
 _atom_site_occupancy
  Sc  Sc0  1  0.00000000  0.50000000  0.00000000  1
  Ta  Ta0  1  0.00000000  0.00000000  0.50000000  1
  Ta  Ta1  1  0.50000000  0.00000000  0.50000000  1
  Ta  Ta2  1  0.00000000  0.50000000  0.50000000  1
  Ta  Ta3  1  0.50000000  0.50000000  0.00000000  1
  Ta  Ta4  1  0.50000000  0.00000000  0.00000000  1
  Nb  Nb0  1  0.00000000  0.00000000  0.00000000  1
  H  H0  1  0.87381029  0.87370724  0.37877324  1
  H  H1  1  0.87096114  0.37512783  0.87096114  1
  H  H2  1  0.37877324  0.87370724  0.87381029  1
  H  H3  1  0.87096114  0.88294890  0.87096114  1
  H  H4  1  0.12618971  0.12629276  0.62122676  1
  H  H5  1  0.12903886  0.62487217  0.12903886  1
  H  H6  1  0.62122676  0.12629276  0.12618971  1
  H  H7  1  0.12903886  0.11705110  0.12903886  1
  H  H8  1  0.60674734  0.63112114  0.13100939  1
  H  H9  1  0.62163040  0.13360694  0.62163040  1
  H  H10  1  0.13100939  0.63112114  0.60674734  1
  H  H11  1  0.62163040  0.62313227  0.62163040  1
  H  H12  1  0.39325266  0.36887886  0.86899061  1
  H  H13  1  0.37836960  0.86639306  0.37836960  1
  H  H14  1  0.86899061  0.36887886  0.39325266  1
  H  H15  1  0.37836960  0.37686773  0.37836960  1
loop_
_geom_bond_atom_site_label_1
_geom_bond_atom_site_label_2
_geom_bond_distance
_geom_bond_site_symmetry_2
H0 Ta1 1.943511 1_565
H0 Ta2 1.950258 1_655
H0 Ta0 1.950268 1_665
H0 Nb0 1.968674 1_665
H1 Ta3 1.927572 1_556
H1 Ta2 1.927572 1_655
H1 Nb0 1.959361 1_656
H1 Sc0 1.999056 1_656
H2 Ta1 1.943511 1_565
H2 Ta3 1.950258 1_556
H2 Ta4 1.950268 1_566
H2 Nb0 1.968674 1_566
H3 Ta4 1.927572 1_566
H3 Ta0 1.927572 1_665
H3 Nb0 1.959366 1_666
H3 Sc0 1.999051 1_656
H4 Ta1 1.943511 1_555
H4 Ta2 1.950258 1_555
H4 Ta0 1.950268 1_555
H4 Nb0 1.968674 1_556
H5 Ta3 1.927572 1_555
H5 Ta2 1.927572 1_555
H5 Nb0 1.959361 1_565
H5 Sc0 1.999056 1_555
H6 Ta1 1.943511 1_555
H6 Ta3 1.950258 1_555
H6 Ta4 1.950268 1_555
H6 Nb0 1.968674 1_655
H7 Ta4 1.927572 1_555
H7 Ta0 1.927572 1_555
H7 Nb0 1.959366 1_555
H7 Sc0 1.999051 1_555
H8 Ta3 1.926181 1_555
H8 Ta4 1.926186 1_565
H8 Sc0 2.043932 1_655
H9 Ta1 1.966353 1_555
H9 Ta0 1.967739 1_655
H9 Ta4 1.967739 1_556
H10 Ta2 1.926181 1_555
H10 Ta0 1.926186 1_565
H10 Sc0 2.043932 1_556
H11 Ta1 1.966353 1_565
H11 Ta2 1.967739 1_655
H11 Ta3 1.967739 1_556
H12 Ta3 1.926181 1_556
H12 Ta4 1.926186 1_556
H12 Sc0 2.043932 1_556
H13 Ta1 1.966353 1_565
H13 Ta0 1.967739 1_565
H13 Ta4 1.967739 1_565
H14 Ta2 1.926181 1_655
H14 Ta0 1.926186 1_655
H14 Sc0 2.043932 1_655
H15 Ta1 1.966353 1_555
H15 Ta2 1.967739 1_555
H15 Ta3 1.967739 1_555
