# generated using pymatgen
data_Ho2Pd2Pb
_symmetry_space_group_name_H-M   'P 1'
_cell_length_a   3.61545481
_cell_length_b   7.80289014
_cell_length_c   7.80289014
_cell_angle_alpha   90.00000000
_cell_angle_beta   90.00000000
_cell_angle_gamma   90.00000000
_symmetry_Int_Tables_number   1
_chemical_formula_structural   Ho2Pd2Pb
_chemical_formula_sum   'Ho4 Pd4 Pb2'
_cell_volume   220.12730790
_cell_formula_units_Z   2
loop_
 _symmetry_equiv_pos_site_id
 _symmetry_equiv_pos_as_xyz
  1  'x, y, z'
loop_
 _atom_site_type_symbol
 _atom_site_label
 _atom_site_symmetry_multiplicity
 _atom_site_fract_x
 _atom_site_fract_y
 _atom_site_fract_z
 _atom_site_occupancy
  Ho  Ho0  1  0.50000000  0.17126532  0.67126532  1
  Ho  Ho1  1  0.50000000  0.32873468  0.17126532  1
  Ho  Ho2  1  0.50000000  0.67126532  0.82873468  1
  Ho  Ho3  1  0.50000000  0.82873468  0.32873468  1
  Pd  Pd0  1  0.00000000  0.12520677  0.37479323  1
  Pd  Pd1  1  -0.00000000  0.62520677  0.12520677  1
  Pd  Pd2  1  -0.00000000  0.87479323  0.62520677  1
  Pd  Pd3  1  0.00000000  0.37479323  0.87479323  1
  Pb  Pb0  1  -0.00000000  0.00000000  -0.00000000  1
  Pb  Pb1  1  -0.00000000  0.50000000  0.50000000  1
loop_
_geom_bond_atom_site_label_1
_geom_bond_atom_site_label_2
_geom_bond_distance
_geom_bond_site_symmetry_2
Ho0 Pd3 2.883061 1_555
Ho0 Pd3 2.883061 1_655
Ho0 Pd2 2.957799 1_545
Ho0 Pd2 2.957799 1_645
Ho0 Pd0 2.957799 1_555
Ho0 Pd0 2.957799 1_655
Ho0 Pb0 3.410775 1_656
Ho0 Pb0 3.410775 1_556
Ho0 Pb1 3.410775 1_655
Ho0 Pb1 3.410775 1_555
Ho1 Pd0 2.883061 1_655
Ho1 Pd0 2.883061 1_555
Ho1 Pd1 2.957799 1_555
Ho1 Pd3 2.957799 1_554
Ho1 Pd1 2.957799 1_655
Ho1 Pd3 2.957799 1_654
Ho1 Pb0 3.410775 1_655
Ho1 Pb0 3.410775 1_555
Ho1 Pb1 3.410775 1_655
Ho1 Pb1 3.410775 1_555
Ho2 Pd2 2.883061 1_655
Ho2 Pd2 2.883061 1_555
Ho2 Pd1 2.957799 1_556
Ho2 Pd1 2.957799 1_656
Ho2 Pd3 2.957799 1_555
Ho2 Pd3 2.957799 1_655
Ho2 Pb0 3.410775 1_666
Ho2 Pb0 3.410775 1_566
Ho2 Pb1 3.410775 1_655
Ho2 Pb1 3.410775 1_555
Ho3 Pd1 2.883061 1_555
Ho3 Pd1 2.883061 1_655
Ho3 Pd0 2.957799 1_565
Ho3 Pd0 2.957799 1_665
Ho3 Pd2 2.957799 1_655
Ho3 Pd2 2.957799 1_555
Ho3 Pb1 3.410775 1_555
Ho3 Pb1 3.410775 1_655
Ho3 Pb0 3.410775 1_565
Ho3 Pb0 3.410775 1_665
Pd0 Pd2 2.763302 1_545
Pd1 Pd3 2.763302 1_554
Pb0 Pd3 3.083343 1_554
Pb0 Pd0 3.083343 1_555
Pb0 Pd2 3.083343 1_544
Pb0 Pd1 3.083343 1_545
Pb1 Pd0 3.083343 1_555
Pb1 Pd1 3.083343 1_555
Pb1 Pd2 3.083343 1_555
Pb1 Pd3 3.083343 1_555
