# generated using pymatgen
data_Y16In6CoOs
_symmetry_space_group_name_H-M   'P 1'
_cell_length_a   10.37809298
_cell_length_b   10.37809373
_cell_length_c   7.11920120
_cell_angle_alpha   90.00000000
_cell_angle_beta   90.00000000
_cell_angle_gamma   120.00000075
_symmetry_Int_Tables_number   1
_chemical_formula_structural   Y16In6CoOs
_chemical_formula_sum   'Y16 In6 Co1 Os1'
_cell_volume   664.04428212
_cell_formula_units_Z   1
loop_
 _symmetry_equiv_pos_site_id
 _symmetry_equiv_pos_as_xyz
  1  'x, y, z'
loop_
 _atom_site_type_symbol
 _atom_site_label
 _atom_site_symmetry_multiplicity
 _atom_site_fract_x
 _atom_site_fract_y
 _atom_site_fract_z
 _atom_site_occupancy
  Y  Y0  1  0.46417482  0.53582518  0.48156064  1
  Y  Y1  1  0.07165136  0.53582518  0.48156064  1
  Y  Y2  1  0.46417482  0.92834864  0.48156064  1
  Y  Y3  1  0.53714543  0.46285457  0.98172453  1
  Y  Y4  1  0.92570913  0.46285457  0.98172453  1
  Y  Y5  1  0.53714543  0.07429087  0.98172453  1
  Y  Y6  1  0.82204849  0.17795151  0.27572350  1
  Y  Y7  1  0.35590301  0.17795151  0.27572350  1
  Y  Y8  1  0.82204849  0.64409699  0.27572350  1
  Y  Y9  1  0.17615350  0.82384650  0.77729107  1
  Y  Y10  1  0.64769201  0.82384650  0.77729107  1
  Y  Y11  1  0.17615350  0.35230799  0.77729107  1
  Y  Y12  1  0.33333300  0.66666700  0.09949142  1
  Y  Y13  1  0.66666700  0.33333300  0.59011224  1
  Y  Y14  1  0.00000000  0.00000000  0.49410228  1
  Y  Y15  1  0.00000000  0.00000000  0.99730998  1
  In  In0  1  0.16209879  0.83790121  0.23394845  1
  In  In1  1  0.67580343  0.83790121  0.23394845  1
  In  In2  1  0.16209879  0.32419657  0.23394845  1
  In  In3  1  0.83596953  0.16403047  0.73158408  1
  In  In4  1  0.32805994  0.16403047  0.73158408  1
  In  In5  1  0.83596953  0.67194006  0.73158408  1
  Co  Co0  1  0.66666700  0.33333300  0.20787521  1
  Os  Os0  1  0.33333300  0.66666700  0.71016405  1
loop_
_geom_bond_atom_site_label_1
_geom_bond_atom_site_label_2
_geom_bond_distance
_geom_bond_site_symmetry_2
Y0 Y11 3.361808 1_555
Y0 Y10 3.361808 1_555
Y0 Y12 3.595850 1_555
Y0 Y8 3.609823 1_555
Y0 Y7 3.609823 1_555
Y0 Y13 3.721009 1_555
Y0 Y3 3.792485 1_554
Y0 Y3 3.794675 1_555
Y1 Y11 3.361796 1_555
Y1 Y9 3.361811 1_555
Y1 Y12 3.595838 1_555
Y1 Y6 3.609825 1_455
Y1 Y8 3.609832 1_455
Y1 Y13 3.721009 1_455
Y1 Y4 3.792488 1_454
Y1 Y4 3.794678 1_455
Y2 Y9 3.361811 1_555
Y2 Y6 3.609825 1_565
Y2 Y7 3.609832 1_565
Y2 Y5 3.792488 1_564
Y2 Y5 3.794678 1_565
Y3 Y8 3.331614 1_556
Y3 Y7 3.331615 1_556
Y4 Y8 3.331615 1_556
Y4 Y6 3.331615 1_556
Y4 Y9 3.629305 1_655
Y5 Y6 3.331614 1_556
Y5 Y7 3.331614 1_556
Y5 Y9 3.629305 1_545
Y10 Y2 3.361796 1_555
Y10 Y15 3.532675 1_665
Y10 Y5 3.629298 1_565
Y10 Y3 3.629307 1_555
Y10 Y12 3.639262 1_556
Y10 Y14 3.753783 1_665
Y11 Y15 3.532676 1_555
Y11 Y4 3.629298 1_455
Y11 Y3 3.629307 1_555
Y11 Y12 3.639263 1_556
Y11 Y14 3.753783 1_555
Y12 Y2 3.595838 1_555
Y12 Y9 3.639262 1_554
Y12 Y4 3.758307 1_454
Y12 Y5 3.758308 1_564
Y12 Y3 3.758316 1_554
Y13 Y6 3.579191 1_555
Y13 Y7 3.579198 1_555
Y13 Y8 3.579198 1_555
Y13 Y2 3.721009 1_545
Y14 Y15 3.536764 1_554
Y14 Y7 3.556546 1_555
Y14 Y6 3.556546 1_455
Y14 Y8 3.556546 1_445
Y14 Y15 3.582437 1_555
Y14 Y9 3.753775 1_545
Y15 Y9 3.532667 1_545
Y15 Y7 3.763061 1_556
Y15 Y6 3.763061 1_456
Y15 Y8 3.763061 1_446
In0 Y8 3.080604 1_455
In0 Y7 3.080604 1_565
In0 Y12 3.223410 1_555
In0 Y9 3.260837 1_554
In0 Y2 3.297562 1_555
In0 Y1 3.297563 1_555
In0 Y15 3.365754 1_564
In0 Y14 3.452592 1_565
In0 Y5 3.852766 1_564
In0 Y4 3.852766 1_454
In0 Y9 3.876407 1_555
In1 Y8 3.080596 1_555
In1 Y6 3.080605 1_565
In1 Y12 3.223427 1_555
In1 Y10 3.260839 1_554
In1 Y2 3.297562 1_555
In1 Y0 3.297563 1_555
In1 Y15 3.365746 1_664
In1 Y14 3.452584 1_665
In1 Y3 3.852765 1_554
In1 Y5 3.852773 1_564
In1 Y10 3.876408 1_555
In2 Y7 3.080596 1_555
In2 Y6 3.080605 1_455
In2 Y12 3.223427 1_555
In2 Y11 3.260839 1_554
In2 Y0 3.297562 1_555
In2 Y1 3.297563 1_555
In2 Y15 3.365746 1_554
In2 Y14 3.452584 1_555
In2 Y3 3.852765 1_554
In2 Y4 3.852773 1_454
In2 Y11 3.876408 1_555
In3 Y11 3.080522 1_655
In3 Y10 3.080523 1_545
In3 Y13 3.205609 1_555
In3 Y6 3.254996 1_555
In3 Y5 3.281457 1_555
In3 Y4 3.281457 1_555
In3 Y14 3.398841 1_655
In3 Y15 3.503207 1_655
In3 Y2 3.821173 1_545
In3 Y1 3.821173 1_655
In3 Y6 3.881912 1_556
In4 Y11 3.080523 1_555
In4 Y9 3.080523 1_545
In4 Y13 3.205626 1_555
In4 Y7 3.254997 1_555
In4 Y3 3.281459 1_555
In4 Y5 3.281465 1_555
In4 Y14 3.398833 1_555
In4 Y15 3.503199 1_555
In4 Y0 3.821170 1_555
In4 Y2 3.821187 1_545
In4 Y7 3.881912 1_556
In5 Y9 3.080522 1_655
In5 Y10 3.080522 1_555
In5 Y13 3.205626 1_555
In5 Y8 3.254997 1_555
In5 Y3 3.281459 1_555
In5 Y4 3.281465 1_555
In5 Y14 3.398833 1_665
In5 Y15 3.503199 1_665
In5 Y0 3.821170 1_555
In5 Y1 3.821187 1_655
In5 Y8 3.881912 1_556
Co0 Y13 2.721222 1_555
Co0 Y4 2.830656 1_554
Co0 Y5 2.830656 1_554
Co0 Y3 2.830663 1_554
Co0 Y6 2.834501 1_555
Co0 Y7 2.834510 1_555
Co0 Y8 2.834510 1_555
Os0 Y12 2.771700 1_556
Os0 Y1 2.860100 1_555
Os0 Y2 2.860100 1_555
Os0 Y0 2.860115 1_555
Os0 Y10 2.865493 1_555
Os0 Y9 2.865493 1_555
Os0 Y11 2.865493 1_555
