# generated using pymatgen
data_YZn3CdIr
_symmetry_space_group_name_H-M   'P 1'
_cell_length_a   5.24092761
_cell_length_b   5.24092741
_cell_length_c   5.24092780
_cell_angle_alpha   60.10316289
_cell_angle_beta   60.10317484
_cell_angle_gamma   60.10315412
_symmetry_Int_Tables_number   1
_chemical_formula_structural   YZn3CdIr
_chemical_formula_sum   'Y1 Zn3 Cd1 Ir1'
_cell_volume   102.02895657
_cell_formula_units_Z   1
loop_
 _symmetry_equiv_pos_site_id
 _symmetry_equiv_pos_as_xyz
  1  'x, y, z'
loop_
 _atom_site_type_symbol
 _atom_site_label
 _atom_site_symmetry_multiplicity
 _atom_site_fract_x
 _atom_site_fract_y
 _atom_site_fract_z
 _atom_site_occupancy
  Y  Y0  1  0.99602996  0.99602996  0.99602996  1
  Zn  Zn0  1  0.62320431  0.62320431  0.12964392  1
  Zn  Zn1  1  0.62320431  0.12964392  0.62320431  1
  Zn  Zn2  1  0.12964392  0.62320431  0.62320431  1
  Cd  Cd0  1  0.25115396  0.25115396  0.25115396  1
  Ir  Ir0  1  0.62676453  0.62676453  0.62676453  1
loop_
_geom_bond_atom_site_label_1
_geom_bond_atom_site_label_2
_geom_bond_distance
_geom_bond_site_symmetry_2
Y0 Zn1 3.033847 1_565
Y0 Zn2 3.033847 1_655
Y0 Zn0 3.033847 1_556
Y0 Zn0 3.104915 1_656
Y0 Zn0 3.104915 1_566
Y0 Zn2 3.104915 1_656
Y0 Zn2 3.104916 1_665
Y0 Zn1 3.104916 1_566
Y0 Zn1 3.104916 1_665
Zn0 Zn1 2.590747 1_555
Zn0 Zn2 2.590747 1_555
Zn0 Zn1 2.658351 1_564
Zn0 Zn2 2.658351 1_654
Zn1 Zn2 2.590746 1_555
Zn1 Zn2 2.658351 1_645
Cd0 Zn1 3.053548 1_555
Cd0 Zn2 3.053548 1_555
Cd0 Zn0 3.053548 1_555
Cd0 Ir0 3.078708 1_545
Cd0 Ir0 3.078709 1_455
Cd0 Ir0 3.078709 1_554
Cd0 Zn0 3.081042 1_455
Cd0 Zn0 3.081043 1_545
Cd0 Zn2 3.081043 1_554
Cd0 Zn2 3.081043 1_545
Cd0 Zn1 3.081043 1_554
Cd0 Zn1 3.081043 1_455
Cd0 Y0 3.192307 1_454
Cd0 Y0 3.192307 1_544
Cd0 Y0 3.192308 1_445
Cd0 Y0 3.272624 1_444
Ir0 Zn1 2.617087 1_565
Ir0 Zn2 2.617087 1_655
Ir0 Zn0 2.617087 1_556
Ir0 Zn1 2.624107 1_555
Ir0 Zn2 2.624107 1_555
Ir0 Zn0 2.624107 1_555
Ir0 Y0 3.065418 1_545
Ir0 Y0 3.065419 1_455
Ir0 Y0 3.065419 1_554
