# generated using pymatgen
data_TcBiF7
_symmetry_space_group_name_H-M   'P 1'
_cell_length_a   5.53759170
_cell_length_b   9.08424793
_cell_length_c   12.16629725
_cell_angle_alpha   61.74336003
_cell_angle_beta   90.00000000
_cell_angle_gamma   90.00000000
_symmetry_Int_Tables_number   1
_chemical_formula_structural   TcBiF7
_chemical_formula_sum   'Tc4 Bi4 F28'
_cell_volume   539.09254902
_cell_formula_units_Z   4
loop_
 _symmetry_equiv_pos_site_id
 _symmetry_equiv_pos_as_xyz
  1  'x, y, z'
loop_
 _atom_site_type_symbol
 _atom_site_label
 _atom_site_symmetry_multiplicity
 _atom_site_fract_x
 _atom_site_fract_y
 _atom_site_fract_z
 _atom_site_occupancy
  Tc  Tc0  1  0.75620412  0.27213949  0.95857866  1
  Tc  Tc1  1  0.25620412  0.72786051  0.54142134  1
  Tc  Tc2  1  0.24379588  0.72786051  0.04142134  1
  Tc  Tc3  1  0.74379588  0.27213949  0.45857866  1
  Bi  Bi0  1  0.76125215  0.81457991  0.76254620  1
  Bi  Bi1  1  0.26125215  0.18542009  0.73745380  1
  Bi  Bi2  1  0.23874785  0.18542009  0.23745380  1
  Bi  Bi3  1  0.73874785  0.81457991  0.26254620  1
  F  F0  1  0.43490599  0.71123694  0.91438283  1
  F  F1  1  0.93490599  0.28876306  0.58561717  1
  F  F2  1  0.56509401  0.28876306  0.08561717  1
  F  F3  1  0.06509401  0.71123694  0.41438283  1
  F  F4  1  0.44488849  0.27745289  0.54156931  1
  F  F5  1  0.94488849  0.72254711  0.95843069  1
  F  F6  1  0.55511151  0.72254711  0.45843069  1
  F  F7  1  0.05511151  0.27745289  0.04156931  1
  F  F8  1  0.76831381  0.51209234  0.86181734  1
  F  F9  1  0.26831381  0.48790766  0.63818266  1
  F  F10  1  0.23168619  0.48790766  0.13818266  1
  F  F11  1  0.73168619  0.51209234  0.36181734  1
  F  F12  1  0.75994882  0.02861819  0.05430327  1
  F  F13  1  0.25994882  0.97138181  0.44569673  1
  F  F14  1  0.24005118  0.97138181  0.94569673  1
  F  F15  1  0.74005118  0.02861819  0.55430327  1
  F  F16  1  0.96585076  0.73097835  0.62896286  1
  F  F17  1  0.46585076  0.26902165  0.87103714  1
  F  F18  1  0.03414924  0.26902165  0.37103714  1
  F  F19  1  0.53414924  0.73097835  0.12896286  1
  F  F20  1  0.05966899  0.74481375  0.17106565  1
  F  F21  1  0.55966899  0.25518625  0.32893435  1
  F  F22  1  0.94033101  0.25518625  0.82893435  1
  F  F23  1  0.44033101  0.74481375  0.67106565  1
  F  F24  1  0.39372717  0.96513387  0.22791205  1
  F  F25  1  0.89372717  0.03486613  0.27208795  1
  F  F26  1  0.60627283  0.03486613  0.77208795  1
  F  F27  1  0.10627283  0.96513387  0.72791205  1
loop_
_geom_bond_atom_site_label_1
_geom_bond_atom_site_label_2
_geom_bond_distance
_geom_bond_site_symmetry_2
Bi0 F26 2.230359 1_565
Bi0 F27 2.269965 1_655
Bi0 F23 2.338047 1_555
Bi0 F5 2.350768 1_555
Bi0 F15 2.355616 1_565
Bi0 F16 2.381265 1_555
Bi0 F8 2.422531 1_555
Bi0 F0 2.432621 1_555
Bi1 F27 2.230359 1_545
Bi1 F26 2.269965 1_555
Bi1 F22 2.338047 1_455
Bi1 F4 2.350768 1_555
Bi1 F14 2.355616 1_545
Bi1 F17 2.381265 1_555
Bi1 F9 2.422531 1_555
Bi1 F1 2.432621 1_455
Bi2 F24 2.230359 1_545
Bi2 F25 2.269965 1_455
Bi2 F21 2.338047 1_555
Bi2 F7 2.350768 1_555
Bi2 F13 2.355616 1_545
Bi2 F18 2.381265 1_555
Bi2 F10 2.422531 1_555
Bi2 F2 2.432621 1_555
Bi3 F25 2.230359 1_565
Bi3 F24 2.269965 1_555
Bi3 F20 2.338047 1_655
Bi3 F6 2.350768 1_555
Bi3 F12 2.355616 1_565
Bi3 F19 2.381265 1_555
Bi3 F11 2.422531 1_555
Bi3 F3 2.432621 1_655
F0 Tc2 1.937168 1_556
F1 Tc3 1.937168 1_555
F2 Tc0 1.937168 1_554
F3 Tc1 1.937168 1_555
F4 Tc3 1.951339 1_555
F5 Tc2 1.951339 1_656
F6 Tc1 1.951339 1_555
F7 Tc0 1.951339 1_454
F8 Tc0 1.926693 1_555
F9 Tc1 1.926693 1_555
F10 Tc2 1.926693 1_555
F11 Tc3 1.926693 1_555
F12 Tc0 1.952230 1_554
F13 Tc1 1.952230 1_555
F14 Tc2 1.952230 1_556
F15 Tc3 1.952230 1_555
F16 Tc1 1.936212 1_655
F17 Tc0 1.936212 1_555
F18 Tc3 1.936212 1_455
F19 Tc2 1.936212 1_555
F20 Tc2 1.944529 1_555
F21 Tc3 1.944529 1_555
F22 Tc0 1.944529 1_555
F23 Tc1 1.944529 1_555
