# generated using pymatgen
data_Ba3MnCdO6
_symmetry_space_group_name_H-M   'P 1'
_cell_length_a   7.04698358
_cell_length_b   7.04698325
_cell_length_c   7.04698428
_cell_angle_alpha   92.46036719
_cell_angle_beta   92.46036707
_cell_angle_gamma   92.46036745
_symmetry_Int_Tables_number   1
_chemical_formula_structural   Ba3MnCdO6
_chemical_formula_sum   'Ba6 Mn2 Cd2 O12'
_cell_volume   348.95660028
_cell_formula_units_Z   2
loop_
 _symmetry_equiv_pos_site_id
 _symmetry_equiv_pos_as_xyz
  1  'x, y, z'
loop_
 _atom_site_type_symbol
 _atom_site_label
 _atom_site_symmetry_multiplicity
 _atom_site_fract_x
 _atom_site_fract_y
 _atom_site_fract_z
 _atom_site_occupancy
  Ba  Ba0  1  0.10990156  0.75000000  0.39009844  1
  Ba  Ba1  1  0.39009844  0.10990156  0.75000000  1
  Ba  Ba2  1  0.89009844  0.25000000  0.60990156  1
  Ba  Ba3  1  0.60990156  0.89009844  0.25000000  1
  Ba  Ba4  1  0.75000000  0.39009844  0.10990156  1
  Ba  Ba5  1  0.25000000  0.60990156  0.89009844  1
  Mn  Mn0  1  0.00000000  0.00000000  0.00000000  1
  Mn  Mn1  1  0.50000000  0.50000000  0.50000000  1
  Cd  Cd0  1  0.25000000  0.25000000  0.25000000  1
  Cd  Cd1  1  0.75000000  0.75000000  0.75000000  1
  O  O0  1  0.45461434  0.76167589  0.58444689  1
  O  O1  1  0.58444689  0.45461434  0.76167589  1
  O  O2  1  0.76167589  0.58444689  0.45461434  1
  O  O3  1  0.04538566  0.91555311  0.73832411  1
  O  O4  1  0.73832411  0.04538566  0.91555311  1
  O  O5  1  0.91555311  0.73832411  0.04538566  1
  O  O6  1  0.54538566  0.23832411  0.41555311  1
  O  O7  1  0.41555311  0.54538566  0.23832411  1
  O  O8  1  0.23832411  0.41555311  0.54538566  1
  O  O9  1  0.95461434  0.08444689  0.26167589  1
  O  O10  1  0.08444689  0.26167589  0.95461434  1
  O  O11  1  0.26167589  0.95461434  0.08444689  1
loop_
_geom_bond_atom_site_label_1
_geom_bond_atom_site_label_2
_geom_bond_distance
_geom_bond_site_symmetry_2
Ba0 O0 2.733306 1_555
Ba0 O5 2.733306 1_455
Ba0 O2 2.735896 1_455
Ba0 O3 2.735896 1_555
Ba0 O9 2.809048 1_465
Ba0 O8 2.809048 1_555
Ba0 O7 2.862598 1_555
Ba0 O11 2.862598 1_555
Ba1 O1 2.733305 1_555
Ba1 O3 2.733305 1_545
Ba1 O0 2.735896 1_545
Ba1 O4 2.735896 1_555
Ba1 O11 2.809048 1_546
Ba1 O6 2.809048 1_555
Ba1 O8 2.862598 1_555
Ba1 O10 2.862598 1_555
Ba2 O6 2.733306 1_555
Ba2 O10 2.733306 1_655
Ba2 O8 2.735896 1_655
Ba2 O9 2.735896 1_555
Ba2 O3 2.809048 1_645
Ba2 O2 2.809048 1_555
Ba2 O1 2.862598 1_555
Ba2 O4 2.862598 1_555
Ba3 O7 2.733305 1_555
Ba3 O9 2.733305 1_565
Ba3 O6 2.735896 1_565
Ba3 O11 2.735896 1_555
Ba3 O4 2.809048 1_564
Ba3 O0 2.809048 1_555
Ba3 O2 2.862598 1_555
Ba3 O5 2.862598 1_555
Ba4 O4 2.733305 1_554
Ba4 O2 2.733306 1_555
Ba4 O5 2.735896 1_555
Ba4 O1 2.735896 1_554
Ba4 O7 2.809048 1_555
Ba4 O10 2.809048 1_654
Ba4 O9 2.862598 1_555
Ba4 O6 2.862598 1_555
Ba5 O11 2.733305 1_556
Ba5 O8 2.733306 1_555
Ba5 O10 2.735896 1_555
Ba5 O7 2.735896 1_556
Ba5 O1 2.809048 1_555
Ba5 O5 2.809048 1_456
Ba5 O3 2.862598 1_555
Ba5 O0 2.862598 1_555
Mn0 O10 1.956942 1_554
Mn0 O5 1.956942 1_445
Mn0 O11 1.956942 1_545
Mn0 O4 1.956942 1_454
Mn0 O9 1.956942 1_455
Mn0 O3 1.956942 1_544
Mn1 O0 1.956942 1_555
Mn1 O6 1.956942 1_555
Mn1 O2 1.956942 1_555
Mn1 O8 1.956942 1_555
Mn1 O1 1.956942 1_555
Mn1 O7 1.956942 1_555
Cd0 O7 2.348458 1_555
Cd0 O11 2.348458 1_545
Cd0 O9 2.348458 1_455
Cd0 O6 2.348458 1_555
Cd0 O8 2.348458 1_555
Cd0 O10 2.348458 1_554
Cd1 O1 2.348458 1_555
Cd1 O4 2.348458 1_565
Cd1 O3 2.348458 1_655
Cd1 O0 2.348458 1_555
Cd1 O2 2.348458 1_555
Cd1 O5 2.348458 1_556
