# generated using pymatgen
data_FeSnSbO6
_symmetry_space_group_name_H-M   'P 1'
_cell_length_a   4.68629538
_cell_length_b   4.68630050
_cell_length_c   9.35884348
_cell_angle_alpha   89.99997640
_cell_angle_beta   89.99999251
_cell_angle_gamma   90.00000303
_symmetry_Int_Tables_number   1
_chemical_formula_structural   FeSnSbO6
_chemical_formula_sum   'Fe2 Sn2 Sb2 O12'
_cell_volume   205.53319671
_cell_formula_units_Z   2
loop_
 _symmetry_equiv_pos_site_id
 _symmetry_equiv_pos_as_xyz
  1  'x, y, z'
loop_
 _atom_site_type_symbol
 _atom_site_label
 _atom_site_symmetry_multiplicity
 _atom_site_fract_x
 _atom_site_fract_y
 _atom_site_fract_z
 _atom_site_occupancy
  Fe  Fe0  1  0.99999179  0.00000007  0.66748170  1
  Fe  Fe1  1  0.50000076  0.50000155  0.16749683  1
  Sn  Sn0  1  0.50000209  0.50000095  0.49941293  1
  Sn  Sn1  1  0.99999847  0.99999866  0.99939840  1
  Sb  Sb0  1  0.49999437  0.49999797  0.83324233  1
  Sb  Sb1  1  0.00000558  0.00000086  0.33322578  1
  O  O0  1  0.19570021  0.80430403  0.17183772  1
  O  O1  1  0.80430681  0.19569698  0.17183830  1
  O  O2  1  0.30429755  0.30430112  0.67184532  1
  O  O3  1  0.69569780  0.69569988  0.67184682  1
  O  O4  1  0.18961951  0.81038256  0.49739173  1
  O  O5  1  0.81038276  0.18961743  0.49739106  1
  O  O6  1  0.31038410  0.31038192  0.99739569  1
  O  O7  1  0.68961405  0.68961542  0.99739459  1
  O  O8  1  0.19944675  0.80055070  0.83069411  1
  O  O9  1  0.80054874  0.19944884  0.83069437  1
  O  O10  1  0.30055845  0.30055554  0.33070473  1
  O  O11  1  0.69944922  0.69944552  0.33070459  1
loop_
_geom_bond_atom_site_label_1
_geom_bond_atom_site_label_2
_geom_bond_distance
_geom_bond_site_symmetry_2
Fe0 O3 2.017120 1_545
Fe0 O2 2.017162 1_655
Fe0 O9 2.019998 1_555
Fe0 O8 2.020023 1_645
Fe0 O5 2.028091 1_555
Fe0 O4 2.028125 1_645
Fe1 O0 2.017145 1_555
Fe1 O1 2.017170 1_555
Fe1 O10 2.019956 1_555
Fe1 O11 2.019965 1_555
Fe1 O7 2.028178 1_554
Fe1 O6 2.028189 1_554
O0 Sb1 1.990836 1_565
O0 Sn1 2.070411 1_454
O1 Sb1 1.990839 1_655
O1 Sn1 2.070402 1_544
O2 Sb0 1.990905 1_555
O2 Sn0 2.070376 1_555
O3 Sb0 1.990918 1_555
O3 Sn0 2.070368 1_555
O4 Sb1 1.984879 1_565
O4 Sn0 2.057121 1_555
O5 Sb1 1.984890 1_655
O5 Sn0 2.057122 1_555
O6 Sb0 1.984776 1_555
O6 Sn1 2.057135 1_445
O7 Sb0 1.984791 1_555
O7 Sn1 2.057131 1_555
O8 Sb0 1.992017 1_555
O8 Sn1 2.059146 1_455
O9 Sb0 1.992027 1_555
O9 Sn1 2.059151 1_545
O10 Sb1 1.992038 1_555
O10 Sn0 2.059159 1_555
O11 Sb1 1.992051 1_665
O11 Sn0 2.059165 1_555
