# generated using pymatgen
data_Fe3(PO4)4
_symmetry_space_group_name_H-M   'P 1'
_cell_length_a   7.73714504
_cell_length_b   7.75348700
_cell_length_c   10.43362949
_cell_angle_alpha   90.00000000
_cell_angle_beta   94.18226493
_cell_angle_gamma   90.00000000
_symmetry_Int_Tables_number   1
_chemical_formula_structural   Fe3(PO4)4
_chemical_formula_sum   'Fe6 P8 O32'
_cell_volume   624.24516271
_cell_formula_units_Z   2
loop_
 _symmetry_equiv_pos_site_id
 _symmetry_equiv_pos_as_xyz
  1  'x, y, z'
loop_
 _atom_site_type_symbol
 _atom_site_label
 _atom_site_symmetry_multiplicity
 _atom_site_fract_x
 _atom_site_fract_y
 _atom_site_fract_z
 _atom_site_occupancy
  Fe  Fe0  1  0.90699100  0.63549800  0.70736200  1
  Fe  Fe1  1  0.49212000  0.53264300  0.99937600  1
  Fe  Fe2  1  0.49313200  0.48642000  0.50639700  1
  Fe  Fe3  1  0.00788000  0.03264300  0.75062400  1
  Fe  Fe4  1  0.00686800  0.98642000  0.24360300  1
  Fe  Fe5  1  0.59300900  0.13549800  0.04263800  1
  P  P0  1  0.31808300  0.69336000  0.23835200  1
  P  P1  1  0.79328900  0.80970400  0.48651900  1
  P  P2  1  0.30270500  0.70276500  0.72429300  1
  P  P3  1  0.19729500  0.20276500  0.02570700  1
  P  P4  1  0.68022500  0.29518000  0.76545700  1
  P  P5  1  0.70671100  0.30970400  0.26348100  1
  P  P6  1  0.81977500  0.79518000  0.98454300  1
  P  P7  1  0.18191700  0.19336000  0.51164800  1
  O  O0  1  0.76733900  0.12063600  0.74875700  1
  O  O1  1  0.25959900  0.39447300  0.01623600  1
  O  O2  1  0.81717000  0.43914500  0.77662800  1
  O  O3  1  0.08473300  0.21289600  0.63396800  1
  O  O4  1  0.27090300  0.35887400  0.47117300  1
  O  O5  1  0.75486500  0.12443500  0.21564300  1
  O  O6  1  0.08901400  0.18031200  0.14203800  1
  O  O7  1  0.86204400  0.43032900  0.29351400  1
  O  O8  1  0.57899800  0.36318400  0.14686500  1
  O  O9  1  0.41098600  0.68031200  0.60796200  1
  O  O10  1  0.63795600  0.93032900  0.45648600  1
  O  O11  1  0.32774200  0.05351000  0.54299800  1
  O  O12  1  0.44158200  0.62264500  0.34708900  1
  O  O13  1  0.91236800  0.79942600  0.85364900  1
  O  O14  1  0.87624900  0.81403400  0.35733300  1
  O  O15  1  0.05841800  0.12264500  0.40291100  1
  O  O16  1  0.58763200  0.29942600  0.89635100  1
  O  O17  1  0.92100200  0.86318400  0.60313500  1
  O  O18  1  0.22909700  0.85887400  0.27882700  1
  O  O19  1  0.73266100  0.62063600  0.00124300  1
  O  O20  1  0.41301700  0.65519000  0.84747900  1
  O  O21  1  0.95570100  0.83472600  0.09527100  1
  O  O22  1  0.17225800  0.55351000  0.20700200  1
  O  O23  1  0.08698300  0.15519000  0.90252100  1
  O  O24  1  0.68283000  0.93914500  0.97337200  1
  O  O25  1  0.35737500  0.08206700  0.04199200  1
  O  O26  1  0.74513500  0.62443500  0.53435700  1
  O  O27  1  0.41526700  0.71289600  0.11603200  1
  O  O28  1  0.14262500  0.58206700  0.70800800  1
  O  O29  1  0.54429900  0.33472600  0.65472900  1
  O  O30  1  0.24040100  0.89447300  0.73376400  1
  O  O31  1  0.62375100  0.31403400  0.39266700  1
loop_
_geom_bond_atom_site_label_1
_geom_bond_atom_site_label_2
_geom_bond_distance
_geom_bond_site_symmetry_2
Fe0 O2 1.842899 1_555
Fe0 O28 1.869143 1_655
Fe0 O13 1.984326 1_555
Fe0 O17 2.080391 1_555
Fe0 O26 2.122307 1_555
Fe1 O20 1.909877 1_555
Fe1 O27 1.973281 1_556
Fe1 O19 1.980973 1_556
Fe1 O8 2.096505 1_556
Fe1 O1 2.112194 1_556
Fe1 O16 2.255479 1_555
Fe2 O29 1.961096 1_555
Fe2 O9 1.971083 1_555
Fe2 O12 1.985135 1_555
Fe2 O4 1.994309 1_555
Fe2 O31 2.095425 1_555
Fe2 O26 2.224613 1_555
Fe3 O23 1.909877 1_555
Fe3 O3 1.973281 1_555
Fe3 O0 1.980973 1_455
Fe3 O17 2.096505 1_445
Fe3 O30 2.112194 1_545
Fe3 O13 2.255479 1_445
Fe4 O21 1.961096 1_455
Fe4 O6 1.971083 1_565
Fe4 O15 1.985135 1_565
Fe4 O18 1.994309 1_555
Fe4 O14 2.095425 1_455
Fe4 O5 2.224613 1_465
Fe5 O24 1.842899 1_544
Fe5 O25 1.869143 1_555
Fe5 O16 1.984326 1_554
Fe5 O8 2.080391 1_555
Fe5 O5 2.122307 1_555
O0 P4 1.527505 1_555
O1 P3 1.567958 1_555
O2 P4 1.537601 1_555
O3 P7 1.535286 1_555
O4 P7 1.530249 1_555
O5 P5 1.574337 1_555
O6 P3 1.534181 1_555
O7 P5 1.537005 1_555
O8 P5 1.566337 1_555
O9 P2 1.534181 1_555
O10 P1 1.537005 1_555
O11 P7 1.581744 1_555
O12 P0 1.530580 1_555
O13 P6 1.588132 1_555
O14 P1 1.534959 1_555
O15 P7 1.530580 1_555
O16 P4 1.588132 1_555
O17 P1 1.566337 1_555
O18 P0 1.530249 1_555
O19 P6 1.527505 1_554
O20 P2 1.535077 1_555
O21 P6 1.535426 1_554
O22 P0 1.581744 1_555
O23 P3 1.535077 1_556
O24 P6 1.537601 1_555
O25 P3 1.551770 1_555
O26 P1 1.574337 1_555
O27 P0 1.535286 1_555
O28 P2 1.551770 1_555
O29 P4 1.535426 1_555
O30 P2 1.567958 1_555
O31 P5 1.534959 1_555
