# generated using pymatgen
data_Rb5BaVP4
_symmetry_space_group_name_H-M   'P 1'
_cell_length_a   10.41837520
_cell_length_b   10.41837448
_cell_length_c   8.08786312
_cell_angle_alpha   88.66224147
_cell_angle_beta   88.66223868
_cell_angle_gamma   120.80036230
_symmetry_Int_Tables_number   1
_chemical_formula_structural   Rb5BaVP4
_chemical_formula_sum   'Rb10 Ba2 V2 P8'
_cell_volume   753.21567391
_cell_formula_units_Z   2
loop_
 _symmetry_equiv_pos_site_id
 _symmetry_equiv_pos_as_xyz
  1  'x, y, z'
loop_
 _atom_site_type_symbol
 _atom_site_label
 _atom_site_symmetry_multiplicity
 _atom_site_fract_x
 _atom_site_fract_y
 _atom_site_fract_z
 _atom_site_occupancy
  Rb  Rb0  1  0.46706034  0.52485437  0.49863656  1
  Rb  Rb1  1  0.05993161  0.52648737  0.49885229  1
  Rb  Rb2  1  0.52485437  0.46706034  0.99863656  1
  Rb  Rb3  1  0.52648737  0.05993161  0.99885229  1
  Rb  Rb4  1  0.86611631  0.14203785  0.67986112  1
  Rb  Rb5  1  0.29622105  0.15476867  0.71602369  1
  Rb  Rb6  1  0.85558803  0.71606043  0.65868625  1
  Rb  Rb7  1  0.14203785  0.86611631  0.17986112  1
  Rb  Rb8  1  0.71606043  0.85558803  0.15868625  1
  Rb  Rb9  1  0.15476867  0.29622105  0.21602369  1
  Ba  Ba0  1  0.46519220  0.93503621  0.49417689  1
  Ba  Ba1  1  0.93503621  0.46519220  0.99417689  1
  V  V0  1  0.66900988  0.33058914  0.39251828  1
  V  V1  1  0.33058914  0.66900988  0.89251828  1
  P  P0  1  0.68047954  0.33376649  0.67611302  1
  P  P1  1  0.33376649  0.68047954  0.17611302  1
  P  P2  1  0.78615953  0.20589146  0.29516235  1
  P  P3  1  0.42119672  0.20103208  0.32277870  1
  P  P4  1  0.79160605  0.57091567  0.28147884  1
  P  P5  1  0.20589146  0.78615953  0.79516235  1
  P  P6  1  0.57091567  0.79160605  0.78147884  1
  P  P7  1  0.20103208  0.42119672  0.82277870  1
loop_
_geom_bond_atom_site_label_1
_geom_bond_atom_site_label_2
_geom_bond_distance
_geom_bond_site_symmetry_2
Ba0 P6 3.238603 1_555
Ba0 P5 3.294737 1_555
Ba0 P3 3.310997 1_565
Ba0 P2 3.407174 1_565
Ba0 P1 3.505711 1_555
Ba1 P4 3.238603 1_556
Ba1 P2 3.294737 1_556
Ba1 P7 3.310997 1_655
Ba1 P5 3.407174 1_655
Ba1 P0 3.505711 1_555
P0 V0 2.299699 1_555
P0 Rb4 3.418720 1_555
P0 Rb6 3.425199 1_555
P0 Rb5 3.445964 1_555
P0 Rb3 3.506559 1_555
P0 Rb1 3.631436 1_655
P0 Rb2 3.693134 1_555
P1 V1 2.299699 1_554
P1 Rb7 3.418720 1_555
P1 Rb8 3.425199 1_555
P1 Rb9 3.445964 1_555
P1 Rb1 3.506559 1_555
P1 Rb3 3.631436 1_564
P1 Rb0 3.693134 1_555
P2 V0 2.328980 1_555
P2 Rb4 3.377740 1_555
P2 Rb3 3.410938 1_554
P2 Rb9 3.492742 1_655
P2 Rb8 3.545054 1_545
P2 Rb1 3.567285 1_655
P3 V0 2.310950 1_555
P3 Rb5 3.337013 1_555
P3 Rb7 3.452890 1_545
P3 Rb3 3.453277 1_554
P3 Rb2 3.490570 1_554
P3 Rb0 3.498294 1_555
P3 Rb9 3.510665 1_555
P4 V0 2.296381 1_555
P4 Rb6 3.363997 1_555
P4 Rb2 3.385298 1_554
P4 Rb7 3.421455 1_655
P4 Rb1 3.554808 1_655
P4 Rb8 3.562497 1_555
P4 Rb0 3.573438 1_555
P5 V1 2.328980 1_555
P5 Rb7 3.377740 1_556
P5 Rb1 3.410938 1_555
P5 Rb5 3.492741 1_565
P5 Rb6 3.545054 1_455
P5 Rb3 3.567285 1_565
P6 V1 2.296382 1_555
P6 Rb8 3.363997 1_556
P6 Rb0 3.385298 1_555
P6 Rb4 3.421455 1_565
P6 Rb3 3.554807 1_565
P6 Rb6 3.562497 1_555
P6 Rb2 3.573438 1_555
P7 V1 2.310950 1_555
P7 Rb9 3.337013 1_556
P7 Rb4 3.452890 1_455
P7 Rb1 3.453277 1_555
P7 Rb0 3.490570 1_555
P7 Rb2 3.498294 1_555
P7 Rb5 3.510665 1_555
