# generated using pymatgen
data_RbCuPSe3
_symmetry_space_group_name_H-M   'P 1'
_cell_length_a   12.54242916
_cell_length_b   6.49225874
_cell_length_c   9.71762073
_cell_angle_alpha   56.90665487
_cell_angle_beta   90.00000000
_cell_angle_gamma   90.00000000
_symmetry_Int_Tables_number   1
_chemical_formula_structural   RbCuPSe3
_chemical_formula_sum   'Rb4 Cu4 P4 Se12'
_cell_volume   662.93129200
_cell_formula_units_Z   4
loop_
 _symmetry_equiv_pos_site_id
 _symmetry_equiv_pos_as_xyz
  1  'x, y, z'
loop_
 _atom_site_type_symbol
 _atom_site_label
 _atom_site_symmetry_multiplicity
 _atom_site_fract_x
 _atom_site_fract_y
 _atom_site_fract_z
 _atom_site_occupancy
  Rb  Rb0  1  0.17704127  0.26022630  0.49337414  1
  Rb  Rb1  1  0.67704127  0.73977370  0.00662586  1
  Rb  Rb2  1  0.82295873  0.73977370  0.50662586  1
  Rb  Rb3  1  0.32295873  0.26022630  0.99337414  1
  Cu  Cu0  1  0.05752936  0.67814032  0.86964127  1
  Cu  Cu1  1  0.55752936  0.32185968  0.63035873  1
  Cu  Cu2  1  0.94247064  0.32185968  0.13035873  1
  Cu  Cu3  1  0.44247064  0.67814032  0.36964127  1
  P  P0  1  0.45958025  0.84668190  0.61635216  1
  P  P1  1  0.95958025  0.15331810  0.88364784  1
  P  P2  1  0.54041975  0.15331810  0.38364784  1
  P  P3  1  0.04041975  0.84668190  0.11635216  1
  Se  Se0  1  0.32084710  0.74194021  0.53059061  1
  Se  Se1  1  0.82084710  0.25805979  0.96940939  1
  Se  Se2  1  0.67915290  0.25805979  0.46940939  1
  Se  Se3  1  0.17915290  0.74194021  0.03059061  1
  Se  Se4  1  0.41998301  0.01858755  0.75033242  1
  Se  Se5  1  0.91998301  0.98141245  0.74966758  1
  Se  Se6  1  0.58001699  0.98141245  0.24966758  1
  Se  Se7  1  0.08001699  0.01858755  0.25033242  1
  Se  Se8  1  0.57750478  0.54990293  0.75221305  1
  Se  Se9  1  0.07750478  0.45009707  0.74778695  1
  Se  Se10  1  0.42249522  0.45009707  0.24778695  1
  Se  Se11  1  0.92249522  0.54990293  0.25221305  1
loop_
_geom_bond_atom_site_label_1
_geom_bond_atom_site_label_2
_geom_bond_distance
_geom_bond_site_symmetry_2
Rb0 Se9 3.538117 1_555
Rb0 Se0 3.657506 1_545
Rb0 Se10 3.671540 1_555
Rb0 Se7 3.683211 1_555
Rb0 Se4 3.701781 1_555
Rb0 Se0 3.794713 1_555
Rb0 Se11 3.795908 1_455
Rb0 Se3 3.827178 1_555
Rb0 Se5 3.866714 1_445
Rb1 Se8 3.538117 1_554
Rb1 Se1 3.657506 1_564
Rb1 Se11 3.671540 1_555
Rb1 Se6 3.683211 1_555
Rb1 Se5 3.701781 1_554
Rb1 Se1 3.794713 1_554
Rb1 Se10 3.795908 1_555
Rb1 Se2 3.827178 1_555
Rb1 Se4 3.866714 1_564
Rb2 Se11 3.538117 1_555
Rb2 Se2 3.657506 1_565
Rb2 Se8 3.671540 1_555
Rb2 Se5 3.683211 1_555
Rb2 Se6 3.701781 1_555
Rb2 Se2 3.794713 1_555
Rb2 Se9 3.795908 1_655
Rb2 Se1 3.827178 1_555
Rb2 Se7 3.866714 1_665
Rb3 Se10 3.538117 1_556
Rb3 Se3 3.657506 1_546
Rb3 Se9 3.671540 1_555
Rb3 Se4 3.683211 1_555
Rb3 Se7 3.701781 1_556
Rb3 Se3 3.794713 1_556
Rb3 Se8 3.795908 1_555
Rb3 Se0 3.827178 1_555
Rb3 Se6 3.866714 1_546
Cu0 Se9 2.360361 1_555
Cu0 Se3 2.377447 1_556
Cu0 Se5 2.388594 1_455
Cu0 Rb0 3.848167 1_565
Cu1 Se8 2.360361 1_555
Cu1 Se2 2.377447 1_555
Cu1 Se4 2.388594 1_555
Cu1 Rb1 3.848167 1_546
Cu2 Se11 2.360361 1_555
Cu2 Se1 2.377447 1_554
Cu2 Se7 2.388594 1_655
Cu2 Rb2 3.848167 1_545
Cu3 Se10 2.360361 1_555
Cu3 Se0 2.377447 1_555
Cu3 Se6 2.388594 1_555
Cu3 Rb3 3.848167 1_564
P0 Se4 2.184978 1_565
P0 Se0 2.191713 1_555
P0 Se8 2.205728 1_555
P0 P2 2.277898 1_565
P1 Se5 2.184978 1_545
P1 Se1 2.191713 1_555
P1 Se9 2.205728 1_655
P1 P3 2.277898 1_646
P2 Se6 2.184978 1_545
P2 Se2 2.191713 1_555
P2 Se10 2.205728 1_555
P3 Se7 2.184978 1_565
P3 Se3 2.191713 1_555
P3 Se11 2.205728 1_455
