# generated using pymatgen
data_K3Na2ZrP3
_symmetry_space_group_name_H-M   'P 1'
_cell_length_a   10.61791299
_cell_length_b   10.61791308
_cell_length_c   14.84215941
_cell_angle_alpha   90.00000000
_cell_angle_beta   90.00000000
_cell_angle_gamma   142.84986834
_symmetry_Int_Tables_number   1
_chemical_formula_structural   K3Na2ZrP3
_chemical_formula_sum   'K12 Na8 Zr4 P12'
_cell_volume   1010.51900546
_cell_formula_units_Z   4
loop_
 _symmetry_equiv_pos_site_id
 _symmetry_equiv_pos_as_xyz
  1  'x, y, z'
loop_
 _atom_site_type_symbol
 _atom_site_label
 _atom_site_symmetry_multiplicity
 _atom_site_fract_x
 _atom_site_fract_y
 _atom_site_fract_z
 _atom_site_occupancy
  K  K0  1  0.94642096  0.60587637  0.82108676  1
  K  K1  1  0.55357904  0.89412363  0.32108676  1
  K  K2  1  0.39412363  0.05357904  0.17891324  1
  K  K3  1  0.05357904  0.39412363  0.17891324  1
  K  K4  1  0.89412363  0.55357904  0.32108676  1
  K  K5  1  0.44642096  0.10587637  0.67891324  1
  K  K6  1  0.60587637  0.94642096  0.82108676  1
  K  K7  1  0.27511271  0.27511271  0.31448419  1
  K  K8  1  0.77511271  0.77511271  0.18551581  1
  K  K9  1  0.22488729  0.22488729  0.81448419  1
  K  K10  1  0.72488729  0.72488729  0.68551581  1
  K  K11  1  0.10587637  0.44642096  0.67891324  1
  Na  Na0  1  0.91983160  0.08016840  0.00000000  1
  Na  Na1  1  0.58016840  0.41983160  0.50000000  1
  Na  Na2  1  0.08016840  0.91983160  0.00000000  1
  Na  Na3  1  0.41983160  0.58016840  0.50000000  1
  Na  Na4  1  0.75614920  0.24385080  0.00000000  1
  Na  Na5  1  0.74385080  0.25614920  0.50000000  1
  Na  Na6  1  0.24385080  0.75614920  0.00000000  1
  Na  Na7  1  0.25614920  0.74385080  0.50000000  1
  Zr  Zr0  1  0.58677776  0.41322224  0.00000000  1
  Zr  Zr1  1  0.91322224  0.08677776  0.50000000  1
  Zr  Zr2  1  0.41322224  0.58677776  0.00000000  1
  Zr  Zr3  1  0.08677776  0.91322224  0.50000000  1
  P  P0  1  0.87411065  0.56032103  0.09967483  1
  P  P1  1  0.43967897  0.12588935  0.90032517  1
  P  P2  1  0.62588935  0.93967897  0.59967483  1
  P  P3  1  0.93967897  0.62588935  0.59967483  1
  P  P4  1  0.12588935  0.43967897  0.90032517  1
  P  P5  1  0.56032103  0.87411065  0.09967483  1
  P  P6  1  0.37411065  0.06032103  0.40032517  1
  P  P7  1  0.20272276  0.20272276  0.58996704  1
  P  P8  1  0.70272276  0.70272276  0.91003296  1
  P  P9  1  0.29727724  0.29727724  0.08996704  1
  P  P10  1  0.06032103  0.37411065  0.40032517  1
  P  P11  1  0.79727724  0.79727724  0.41003296  1
loop_
_geom_bond_atom_site_label_1
_geom_bond_atom_site_label_2
_geom_bond_distance
_geom_bond_site_symmetry_2
K0 P3 3.297551 1_555
K0 P1 3.548802 1_555
K0 P1 3.633356 1_665
K0 P4 3.672735 1_655
K1 P5 3.297551 1_555
K1 P10 3.548802 1_665
K1 P10 3.633356 1_555
K1 P6 3.672735 1_565
K2 P6 3.297551 1_555
K2 P0 3.548802 1_555
K2 P0 3.633356 1_445
K2 P5 3.672735 1_545
K3 P10 3.297551 1_555
K3 P5 3.548802 1_555
K3 P5 3.633356 1_445
K3 P0 3.672735 1_455
K4 P0 3.297551 1_555
K4 P6 3.548802 1_665
K4 P6 3.633356 1_555
K4 P10 3.672735 1_655
K5 P1 3.297551 1_555
K5 P3 3.548802 1_445
K5 P3 3.633356 1_555
K5 P2 3.672735 1_545
K6 P2 3.297551 1_555
K6 P4 3.548802 1_555
K6 P4 3.633356 1_665
K6 P1 3.672735 1_565
K7 P9 3.335691 1_555
K7 P10 3.427979 1_555
K7 P6 3.427979 1_555
K7 P11 3.529781 1_445
K8 P11 3.335691 1_555
K8 P5 3.427979 1_555
K8 P0 3.427979 1_555
K8 P9 3.529781 1_555
K9 P7 3.335691 1_555
K9 P1 3.427979 1_555
K9 P4 3.427979 1_555
K9 P8 3.529781 1_555
K10 P8 3.335691 1_555
K10 P3 3.427979 1_555
K10 P2 3.427979 1_555
K10 P7 3.529781 1_665
K11 P4 3.297551 1_555
K11 P2 3.548802 1_445
K11 P2 3.633356 1_555
K11 P3 3.672735 1_455
Na0 P5 2.869366 1_545
Na0 P4 2.869366 1_654
Na0 P9 2.903657 1_655
Na0 P8 2.903657 1_544
Na1 P3 2.869366 1_555
Na1 P6 2.869366 1_555
Na1 P7 2.903657 1_555
Na1 P11 2.903657 1_555
Na2 P1 2.869366 1_564
Na2 P0 2.869366 1_455
Na2 P8 2.903657 1_454
Na2 P9 2.903657 1_565
Na3 P10 2.869366 1_555
Na3 P2 2.869366 1_555
Na3 P11 2.903657 1_555
Na3 P7 2.903657 1_555
Na4 P1 2.887815 1_554
Na4 P0 2.887815 1_555
Na4 P4 2.985252 1_654
Na4 P5 2.985252 1_545
Na5 P10 2.887815 1_655
Na5 P2 2.887815 1_545
Na5 P6 2.985252 1_555
Na5 P3 2.985252 1_555
Na6 P5 2.887815 1_555
Na6 P4 2.887815 1_554
Na6 P0 2.985252 1_455
Na6 P1 2.985252 1_564
Na7 P3 2.887815 1_455
Na7 P6 2.887815 1_565
Na7 P2 2.985252 1_555
Na7 P10 2.985252 1_555
P0 Zr0 2.517895 1_555
P1 Zr0 2.517895 1_556
P2 Zr1 2.517895 1_565
P3 Zr3 2.517895 1_655
P4 Zr2 2.517895 1_556
P5 Zr2 2.517895 1_555
P6 Zr3 2.517895 1_545
P7 Zr1 2.591317 1_455
P7 Zr3 2.591317 1_545
P8 Zr2 2.591317 1_556
P8 Zr0 2.591317 1_556
P9 Zr0 2.591317 1_555
P9 Zr2 2.591317 1_555
P10 Zr1 2.517895 1_455
P11 Zr3 2.591317 1_655
P11 Zr1 2.591317 1_565
