# generated using pymatgen
data_RbSbTeO6
_symmetry_space_group_name_H-M   'P 1'
_cell_length_a   7.19363879
_cell_length_b   7.19363946
_cell_length_c   7.19363945
_cell_angle_alpha   120.26967665
_cell_angle_beta   119.84125496
_cell_angle_gamma   89.90435753
_symmetry_Int_Tables_number   1
_chemical_formula_structural   RbSbTeO6
_chemical_formula_sum   'Rb2 Sb2 Te2 O12'
_cell_volume   263.00164049
_cell_formula_units_Z   2
loop_
 _symmetry_equiv_pos_site_id
 _symmetry_equiv_pos_as_xyz
  1  'x, y, z'
loop_
 _atom_site_type_symbol
 _atom_site_label
 _atom_site_symmetry_multiplicity
 _atom_site_fract_x
 _atom_site_fract_y
 _atom_site_fract_z
 _atom_site_occupancy
  Rb  Rb0  1  0.37319293  0.62319293  0.75000000  1
  Rb  Rb1  1  0.62680707  0.37680707  0.25000000  1
  Sb  Sb0  1  0.00000000  0.00000000  0.50000000  1
  Sb  Sb1  1  0.00000000  0.50000000  0.00000000  1
  Te  Te0  1  0.00000000  0.00000000  0.00000000  1
  Te  Te1  1  0.50000000  0.00000000  0.50000000  1
  O  O0  1  0.31937108  0.06937108  0.25000000  1
  O  O1  1  0.92481684  0.67481684  0.25000000  1
  O  O2  1  0.32805787  0.68350289  0.25762355  1
  O  O3  1  0.92587934  0.07043531  0.24237645  1
  O  O4  1  0.32805787  0.07043531  0.64455598  1
  O  O5  1  0.92587934  0.68350289  0.85544402  1
  O  O6  1  0.68062892  0.93062892  0.75000000  1
  O  O7  1  0.07518316  0.32518316  0.75000000  1
  O  O8  1  0.67194213  0.31649711  0.74237645  1
  O  O9  1  0.07412066  0.92956469  0.75762355  1
  O  O10  1  0.67194213  0.92956469  0.35544402  1
  O  O11  1  0.07412066  0.31649711  0.14455598  1
loop_
_geom_bond_atom_site_label_1
_geom_bond_atom_site_label_2
_geom_bond_distance
_geom_bond_site_symmetry_2
O0 Te0 1.936157 1_555
O0 Te1 1.936157 1_555
O0 Rb1 3.130261 1_555
O1 Sb1 1.947804 1_655
O1 Sb0 1.947804 1_665
O1 Rb1 3.034285 1_555
O2 Te1 1.901245 1_565
O2 Sb1 1.984416 1_555
O2 Rb1 3.077121 1_555
O3 Te0 1.901244 1_655
O3 Sb0 1.984421 1_655
O3 Rb1 3.077116 1_555
O4 Te1 1.901250 1_555
O4 Sb0 1.984414 1_555
O4 Rb1 3.077116 1_556
O5 Te0 1.901244 1_666
O5 Sb1 1.984421 1_656
O5 Rb1 3.077116 1_555
O6 Te0 1.936157 1_666
O6 Te1 1.936157 1_565
O6 Rb0 3.130261 1_555
O7 Sb1 1.947804 1_556
O7 Sb0 1.947804 1_555
O7 Rb0 3.034285 1_555
O8 Te1 1.901245 1_555
O8 Sb1 1.984416 1_656
O8 Rb0 3.077121 1_555
O9 Te0 1.901244 1_566
O9 Sb0 1.984421 1_565
O9 Rb0 3.077116 1_555
O10 Te1 1.901250 1_565
O10 Sb0 1.984414 1_665
O10 Rb0 3.077116 1_554
O11 Te0 1.901244 1_555
O11 Sb1 1.984421 1_555
O11 Rb0 3.077116 1_555
