# generated using pymatgen
data_GaFeI6
_symmetry_space_group_name_H-M   'P 1'
_cell_length_a   6.21844218
_cell_length_b   9.79850398
_cell_length_c   12.15659388
_cell_angle_alpha   72.09601539
_cell_angle_beta   90.00000000
_cell_angle_gamma   90.00000000
_symmetry_Int_Tables_number   1
_chemical_formula_structural   GaFeI6
_chemical_formula_sum   'Ga2 Fe2 I12'
_cell_volume   704.84789219
_cell_formula_units_Z   2
loop_
 _symmetry_equiv_pos_site_id
 _symmetry_equiv_pos_as_xyz
  1  'x, y, z'
loop_
 _atom_site_type_symbol
 _atom_site_label
 _atom_site_symmetry_multiplicity
 _atom_site_fract_x
 _atom_site_fract_y
 _atom_site_fract_z
 _atom_site_occupancy
  Ga  Ga0  1  0.99572936  0.80762213  0.04737850  1
  Ga  Ga1  1  0.49572936  0.19237787  0.45262150  1
  Fe  Fe0  1  0.00464168  0.18575048  0.95450285  1
  Fe  Fe1  1  0.50464168  0.81424952  0.54549715  1
  I  I0  1  0.77144835  0.33033158  0.79548863  1
  I  I1  1  0.27144835  0.66966842  0.70451137  1
  I  I2  1  0.23416869  0.67011985  0.20859948  1
  I  I3  1  0.73416869  0.32988015  0.29140052  1
  I  I4  1  0.24185839  0.32773135  0.04196642  1
  I  I5  1  0.74185839  0.67226865  0.45803358  1
  I  I6  1  0.75028672  0.67862935  0.95025076  1
  I  I7  1  0.25028672  0.32137065  0.54974924  1
  I  I8  1  0.77233035  0.00050060  0.11678824  1
  I  I9  1  0.27233035  0.99949940  0.38321176  1
  I  I10  1  0.22953846  0.99675734  0.88477992  1
  I  I11  1  0.72953846  0.00324266  0.61522008  1
loop_
_geom_bond_atom_site_label_1
_geom_bond_atom_site_label_2
_geom_bond_distance
_geom_bond_site_symmetry_2
Ga0 I2 2.496269 1_655
Ga0 I6 2.497754 1_554
Ga0 I8 2.682186 1_565
Ga0 I10 2.683885 1_654
Ga1 I3 2.496269 1_555
Ga1 I7 2.497754 1_555
Ga1 I9 2.682186 1_545
Ga1 I11 2.683885 1_555
Fe0 I4 2.480205 1_556
Fe0 I0 2.482489 1_455
Fe0 I10 2.658695 1_545
Fe0 I8 2.659335 1_456
Fe1 I5 2.480205 1_555
Fe1 I1 2.482489 1_555
Fe1 I11 2.658695 1_565
Fe1 I9 2.659335 1_555
