# generated using pymatgen
data_AgAu(S2O7)2
_symmetry_space_group_name_H-M   'P 1'
_cell_length_a   5.74874727
_cell_length_b   6.57341115
_cell_length_c   8.70782863
_cell_angle_alpha   110.05217477
_cell_angle_beta   90.64680920
_cell_angle_gamma   103.90685991
_symmetry_Int_Tables_number   1
_chemical_formula_structural   AgAu(S2O7)2
_chemical_formula_sum   'Ag1 Au1 S4 O14'
_cell_volume   298.46273786
_cell_formula_units_Z   1
loop_
 _symmetry_equiv_pos_site_id
 _symmetry_equiv_pos_as_xyz
  1  'x, y, z'
loop_
 _atom_site_type_symbol
 _atom_site_label
 _atom_site_symmetry_multiplicity
 _atom_site_fract_x
 _atom_site_fract_y
 _atom_site_fract_z
 _atom_site_occupancy
  Ag  Ag0  1  0.50000000  0.00000000  0.00000000  1
  Au  Au0  1  0.50000000  0.50000000  0.50000000  1
  S  S0  1  0.95626329  0.74264474  0.74263855  1
  S  S1  1  0.04373671  0.25735526  0.25736145  1
  S  S2  1  0.66675892  0.32321726  0.75335751  1
  S  S3  1  0.33324108  0.67678274  0.24664249  1
  O  O0  1  0.85442493  0.65128279  0.56397548  1
  O  O1  1  0.14557507  0.34871721  0.43602452  1
  O  O2  1  0.48107268  0.42876867  0.70788941  1
  O  O3  1  0.51892732  0.57123133  0.29211059  1
  O  O4  1  0.21161263  0.81945697  0.74930394  1
  O  O5  1  0.78838737  0.18054303  0.25069606  1
  O  O6  1  0.82772287  0.88622290  0.84645810  1
  O  O7  1  0.17227713  0.11377710  0.15354190  1
  O  O8  1  0.61901255  0.30482961  0.90887925  1
  O  O9  1  0.38098745  0.69517039  0.09112075  1
  O  O10  1  0.92033596  0.52446546  0.79470008  1
  O  O11  1  0.07966404  0.47553454  0.20529992  1
  O  O12  1  0.70879159  0.14171911  0.62258666  1
  O  O13  1  0.29120841  0.85828089  0.37741334  1
loop_
_geom_bond_atom_site_label_1
_geom_bond_atom_site_label_2
_geom_bond_distance
_geom_bond_site_symmetry_2
Ag0 O8 2.357187 1_554
Ag0 O9 2.357187 1_545
Ag0 O7 2.438211 1_555
Ag0 O6 2.438211 1_544
Ag0 O5 2.473548 1_555
Ag0 O4 2.473548 1_544
Au0 O2 2.017265 1_555
Au0 O3 2.017265 1_555
Au0 O0 2.017717 1_555
Au0 O1 2.017717 1_555
O0 S0 1.514443 1_555
O1 S1 1.514443 1_555
O2 S2 1.520690 1_555
O3 S3 1.520690 1_555
O4 S0 1.426483 1_455
O5 S1 1.426483 1_655
O6 S0 1.421023 1_555
O7 S1 1.421023 1_555
O8 S2 1.424309 1_555
O9 S3 1.424309 1_555
O10 S0 1.615749 1_555
O10 S2 1.655070 1_555
O11 S1 1.615749 1_555
O11 S3 1.655070 1_555
O12 S2 1.411252 1_555
O13 S3 1.411252 1_555
