# generated using pymatgen
data_BiRuF7
_symmetry_space_group_name_H-M   'P 1'
_cell_length_a   5.50661053
_cell_length_b   9.09972535
_cell_length_c   12.07001715
_cell_angle_alpha   61.74598253
_cell_angle_beta   90.00000000
_cell_angle_gamma   90.00000000
_symmetry_Int_Tables_number   1
_chemical_formula_structural   BiRuF7
_chemical_formula_sum   'Bi4 Ru4 F28'
_cell_volume   532.75337874
_cell_formula_units_Z   4
loop_
 _symmetry_equiv_pos_site_id
 _symmetry_equiv_pos_as_xyz
  1  'x, y, z'
loop_
 _atom_site_type_symbol
 _atom_site_label
 _atom_site_symmetry_multiplicity
 _atom_site_fract_x
 _atom_site_fract_y
 _atom_site_fract_z
 _atom_site_occupancy
  Bi  Bi0  1  0.76234004  0.81194292  0.26542737  1
  Bi  Bi1  1  0.26234004  0.18805708  0.23457263  1
  Bi  Bi2  1  0.23765996  0.18805708  0.73457263  1
  Bi  Bi3  1  0.73765996  0.81194292  0.76542737  1
  Ru  Ru0  1  0.24515004  0.72903275  0.54197885  1
  Ru  Ru1  1  0.74515004  0.27096725  0.95802115  1
  Ru  Ru2  1  0.75484996  0.27096725  0.45802115  1
  Ru  Ru3  1  0.25484996  0.72903275  0.04197885  1
  F  F0  1  0.94140754  0.71997219  0.46041101  1
  F  F1  1  0.44140754  0.28002781  0.03958899  1
  F  F2  1  0.05859246  0.28002781  0.53958899  1
  F  F3  1  0.55859246  0.71997219  0.96041101  1
  F  F4  1  0.06916754  0.70681179  0.91476772  1
  F  F5  1  0.56916754  0.29318821  0.58523228  1
  F  F6  1  0.93083246  0.29318821  0.08523228  1
  F  F7  1  0.43083246  0.70681179  0.41476772  1
  F  F8  1  0.73978212  0.50643504  0.86229633  1
  F  F9  1  0.23978212  0.49356496  0.63770367  1
  F  F10  1  0.26021788  0.49356496  0.13770367  1
  F  F11  1  0.76021788  0.50643504  0.36229633  1
  F  F12  1  0.73907929  0.03340091  0.05102961  1
  F  F13  1  0.23907929  0.96659909  0.44897039  1
  F  F14  1  0.26092071  0.96659909  0.94897039  1
  F  F15  1  0.76092071  0.03340091  0.55102961  1
  F  F16  1  0.06628700  0.75080992  0.67153151  1
  F  F17  1  0.56628700  0.24919008  0.82846849  1
  F  F18  1  0.93371300  0.24919008  0.32846849  1
  F  F19  1  0.43371300  0.75080992  0.17153151  1
  F  F20  1  0.04116487  0.26549394  0.87250618  1
  F  F21  1  0.54116487  0.73450606  0.62749382  1
  F  F22  1  0.95883513  0.73450606  0.12749382  1
  F  F23  1  0.45883513  0.26549394  0.37250618  1
  F  F24  1  0.10103363  0.96883072  0.22786264  1
  F  F25  1  0.60103363  0.03116928  0.27213736  1
  F  F26  1  0.89896637  0.03116928  0.77213736  1
  F  F27  1  0.39896637  0.96883072  0.72786264  1
loop_
_geom_bond_atom_site_label_1
_geom_bond_atom_site_label_2
_geom_bond_distance
_geom_bond_site_symmetry_2
Bi0 F25 2.219941 1_565
Bi0 F24 2.260378 1_655
Bi0 F0 2.312294 1_555
Bi0 F19 2.337844 1_555
Bi0 F22 2.355794 1_555
Bi0 F12 2.415947 1_565
Bi0 F7 2.421596 1_555
Bi0 F11 2.453242 1_555
Bi1 F24 2.219941 1_545
Bi1 F25 2.260378 1_555
Bi1 F1 2.312294 1_555
Bi1 F18 2.337844 1_455
Bi1 F23 2.355794 1_555
Bi1 F13 2.415947 1_545
Bi1 F6 2.421596 1_455
Bi1 F10 2.453242 1_555
Bi2 F27 2.219941 1_545
Bi2 F26 2.260378 1_455
Bi2 F2 2.312294 1_555
Bi2 F17 2.337844 1_555
Bi2 F20 2.355794 1_555
Bi2 F14 2.415947 1_545
Bi2 F5 2.421596 1_555
Bi2 F9 2.453242 1_555
Bi3 F26 2.219941 1_565
Bi3 F27 2.260378 1_555
Bi3 F3 2.312294 1_555
Bi3 F16 2.337844 1_655
Bi3 F21 2.355794 1_555
Bi3 F15 2.415947 1_565
Bi3 F4 2.421596 1_655
Bi3 F8 2.453242 1_555
F0 Ru0 1.962270 1_655
F1 Ru1 1.962270 1_554
F2 Ru2 1.962270 1_455
F3 Ru3 1.962270 1_556
F4 Ru3 1.933359 1_556
F5 Ru2 1.933359 1_555
F6 Ru1 1.933359 1_554
F7 Ru0 1.933359 1_555
F8 Ru1 1.892904 1_555
F9 Ru0 1.892904 1_555
F10 Ru3 1.892904 1_555
F11 Ru2 1.892904 1_555
F12 Ru1 1.907106 1_554
F13 Ru0 1.907106 1_555
F14 Ru3 1.907106 1_556
F15 Ru2 1.907106 1_555
F16 Ru0 1.935949 1_555
F17 Ru1 1.935949 1_555
F18 Ru2 1.935949 1_555
F19 Ru3 1.935949 1_555
F20 Ru1 1.942562 1_455
F21 Ru0 1.942562 1_555
F22 Ru3 1.942562 1_655
F23 Ru2 1.942562 1_555
