# generated using pymatgen
data_Sr6Sn8PBr
_symmetry_space_group_name_H-M   'P 1'
_cell_length_a   8.90289209
_cell_length_b   8.90289109
_cell_length_c   8.90289104
_cell_angle_alpha   120.21965975
_cell_angle_beta   120.21965446
_cell_angle_gamma   89.61995636
_symmetry_Int_Tables_number   1
_chemical_formula_structural   Sr6Sn8PBr
_chemical_formula_sum   'Sr6 Sn8 P1 Br1'
_cell_volume   497.30587628
_cell_formula_units_Z   1
loop_
 _symmetry_equiv_pos_site_id
 _symmetry_equiv_pos_as_xyz
  1  'x, y, z'
loop_
 _atom_site_type_symbol
 _atom_site_label
 _atom_site_symmetry_multiplicity
 _atom_site_fract_x
 _atom_site_fract_y
 _atom_site_fract_z
 _atom_site_occupancy
  Sr  Sr0  1  0.26161173  0.26161173  0.00000000  1
  Sr  Sr1  1  0.73838827  0.73838827  1.00000000  1
  Sr  Sr2  1  0.18662548  0.64816741  0.83479388  1
  Sr  Sr3  1  0.81337452  0.35183259  0.16520612  1
  Sr  Sr4  1  0.64816741  0.81337452  0.46154193  1
  Sr  Sr5  1  0.35183259  0.18662548  0.53845807  1
  Sn  Sn0  1  0.83437234  0.32932554  0.78333025  1
  Sn  Sn1  1  0.16562766  0.67067446  0.21666975  1
  Sn  Sn2  1  0.54599628  0.05104209  0.21666975  1
  Sn  Sn3  1  0.32932554  0.54599628  0.49495320  1
  Sn  Sn4  1  0.94895791  0.16562766  0.49495320  1
  Sn  Sn5  1  0.45400372  0.94895791  0.78333025  1
  Sn  Sn6  1  0.67067446  0.45400372  0.50504680  1
  Sn  Sn7  1  0.05104209  0.83437234  0.50504680  1
  P  P0  1  0.50000000  0.50000000  0.00000000  1
  Br  Br0  1  0.00000000  0.00000000  0.00000000  1
loop_
_geom_bond_atom_site_label_1
_geom_bond_atom_site_label_2
_geom_bond_distance
_geom_bond_site_symmetry_2
Sn0 Sn6 2.933662 1_555
Sn0 Sn4 2.933669 1_555
Sn0 Sn1 3.111342 1_656
Sn0 Sr3 3.404005 1_556
Sn0 Sr1 3.501515 1_555
Sn0 Sr0 3.508074 1_656
Sn0 Sr5 3.560761 1_555
Sn0 Sr4 3.758831 1_545
Sn0 Sr2 3.932567 1_655
Sn1 Sn3 2.933662 1_555
Sn1 Sn7 2.933669 1_555
Sn1 Sr2 3.404005 1_554
Sn1 Sr0 3.501515 1_555
Sn1 Sr1 3.508074 1_454
Sn1 Sr4 3.560761 1_555
Sn1 Sr5 3.758831 1_565
Sn1 Sr3 3.932567 1_455
Sn2 Sn4 2.933662 1_555
Sn2 Sn6 2.933662 1_555
Sn2 Sn5 3.111335 1_544
Sn2 Sr2 3.404019 1_544
Sn2 Sr1 3.501508 1_544
Sn2 Sr0 3.508078 1_555
Sn2 Sr4 3.560761 1_545
Sn2 Sr5 3.758838 1_555
Sn2 Sr3 3.932574 1_555
Sn3 Sn5 2.933662 1_555
Sn3 Sn6 3.111347 1_555
Sn3 Sr5 3.404023 1_555
Sn3 Sr1 3.501517 1_555
Sn3 Sr0 3.508075 1_555
Sn3 Sr2 3.560770 1_555
Sn3 Sr3 3.758831 1_455
Sn3 Sr4 3.932567 1_555
Sn4 Sn7 3.111341 1_645
Sn4 Sr5 3.404015 1_655
Sn4 Sr0 3.501515 1_656
Sn4 Sr1 3.508074 1_544
Sn4 Sr2 3.560760 1_655
Sn4 Sr3 3.758838 1_555
Sn4 Sr4 3.932573 1_545
Sn5 Sn7 2.933662 1_555
Sn5 Sr3 3.404019 1_566
Sn5 Sr0 3.501508 1_566
Sn5 Sr1 3.508078 1_555
Sn5 Sr5 3.560761 1_565
Sn5 Sr4 3.758838 1_555
Sn5 Sr2 3.932574 1_555
Sn6 Sr4 3.404023 1_555
Sn6 Sr0 3.501517 1_555
Sn6 Sr1 3.508075 1_555
Sn6 Sr3 3.560770 1_555
Sn6 Sr2 3.758831 1_655
Sn6 Sr5 3.932567 1_555
Sn7 Sr4 3.404015 1_455
Sn7 Sr1 3.501515 1_454
Sn7 Sr0 3.508074 1_566
Sn7 Sr3 3.560760 1_455
Sn7 Sr2 3.758838 1_555
Sn7 Sr5 3.932573 1_565
P0 Sr1 3.011387 1_554
P0 Sr0 3.011387 1_555
P0 Sr3 3.075817 1_555
P0 Sr2 3.075817 1_554
P0 Sr4 3.075819 1_555
P0 Sr5 3.075819 1_554
Br0 Sr0 3.304752 1_555
Br0 Sr1 3.304752 1_444
Br0 Sr3 3.533932 1_455
Br0 Sr2 3.533932 1_544
Br0 Sr5 3.533934 1_555
Br0 Sr4 3.533934 1_444
