# generated using pymatgen
data_Nd4Au2O9
_symmetry_space_group_name_H-M   'P 1'
_cell_length_a   6.15099162
_cell_length_b   11.97077328
_cell_length_c   11.98717303
_cell_angle_alpha   90.00000000
_cell_angle_beta   90.00000000
_cell_angle_gamma   90.00000000
_symmetry_Int_Tables_number   1
_chemical_formula_structural   Nd4Au2O9
_chemical_formula_sum   'Nd16 Au8 O36'
_cell_volume   882.64103649
_cell_formula_units_Z   4
loop_
 _symmetry_equiv_pos_site_id
 _symmetry_equiv_pos_as_xyz
  1  'x, y, z'
loop_
 _atom_site_type_symbol
 _atom_site_label
 _atom_site_symmetry_multiplicity
 _atom_site_fract_x
 _atom_site_fract_y
 _atom_site_fract_z
 _atom_site_occupancy
  Nd  Nd0  1  0.25770099  0.98824016  0.08944293  1
  Nd  Nd1  1  0.25770099  0.01175984  0.41055707  1
  Nd  Nd2  1  0.24229901  0.51175984  0.58944293  1
  Nd  Nd3  1  0.24229901  0.48824016  0.91055707  1
  Nd  Nd4  1  0.74229901  0.01175984  0.91055707  1
  Nd  Nd5  1  0.74229901  0.98824016  0.58944293  1
  Nd  Nd6  1  0.75770099  0.48824016  0.41055707  1
  Nd  Nd7  1  0.75770099  0.51175984  0.08944293  1
  Nd  Nd8  1  0.19760168  0.65936993  0.26430393  1
  Nd  Nd9  1  0.19760168  0.34063007  0.23569607  1
  Nd  Nd10  1  0.30239832  0.84063007  0.76430393  1
  Nd  Nd11  1  0.30239832  0.15936993  0.73569607  1
  Nd  Nd12  1  0.80239832  0.34063007  0.73569607  1
  Nd  Nd13  1  0.80239832  0.65936993  0.76430393  1
  Nd  Nd14  1  0.69760168  0.15936993  0.23569607  1
  Nd  Nd15  1  0.69760168  0.84063007  0.26430393  1
  Au  Au0  1  0.41920880  0.72846249  0.01084940  1
  Au  Au1  1  0.41920880  0.27153751  0.48915060  1
  Au  Au2  1  0.08079120  0.77153751  0.51084940  1
  Au  Au3  1  0.08079120  0.22846249  0.98915060  1
  Au  Au4  1  0.58079120  0.27153751  0.98915060  1
  Au  Au5  1  0.58079120  0.72846249  0.51084940  1
  Au  Au6  1  0.91920880  0.22846249  0.48915060  1
  Au  Au7  1  0.91920880  0.77153751  0.01084940  1
  O  O0  1  0.05909183  0.61647857  0.44662366  1
  O  O1  1  0.05909183  0.38352143  0.05337634  1
  O  O2  1  0.44090817  0.88352143  0.94662366  1
  O  O3  1  0.44090817  0.11647857  0.55337634  1
  O  O4  1  0.94090817  0.38352143  0.55337634  1
  O  O5  1  0.94090817  0.61647857  0.94662366  1
  O  O6  1  0.55909183  0.11647857  0.05337634  1
  O  O7  1  0.55909183  0.88352143  0.44662366  1
  O  O8  1  0.05975735  0.83634730  0.35317953  1
  O  O9  1  0.05975735  0.16365270  0.14682047  1
  O  O10  1  0.44024265  0.66365270  0.85317953  1
  O  O11  1  0.44024265  0.33634730  0.64682047  1
  O  O12  1  0.94024265  0.16365270  0.64682047  1
  O  O13  1  0.94024265  0.83634730  0.85317953  1
  O  O14  1  0.37502201  0.80225658  0.15743209  1
  O  O15  1  0.55975735  0.33634730  0.14682047  1
  O  O16  1  0.38637911  0.57777228  0.08801363  1
  O  O17  1  0.38637911  0.42222772  0.41198637  1
  O  O18  1  0.11362089  0.92222772  0.58801363  1
  O  O19  1  0.11362089  0.07777228  0.91198637  1
  O  O20  1  0.61362089  0.42222772  0.91198637  1
  O  O21  1  0.61362089  0.57777228  0.58801363  1
  O  O22  1  0.88637911  0.07777228  0.41198637  1
  O  O23  1  0.88637911  0.92222772  0.08801363  1
  O  O24  1  0.97594253  0.50000000  0.25000000  1
  O  O25  1  0.52405747  0.00000000  0.75000000  1
  O  O26  1  0.02405747  0.50000000  0.75000000  1
  O  O27  1  0.47594253  0.00000000  0.25000000  1
  O  O28  1  0.87502201  0.69774342  0.15743209  1
  O  O29  1  0.87502201  0.30225658  0.34256791  1
  O  O30  1  0.62497799  0.80225658  0.65743209  1
  O  O31  1  0.62497799  0.19774342  0.84256791  1
  O  O32  1  0.12497799  0.30225658  0.84256791  1
  O  O33  1  0.12497799  0.69774342  0.65743209  1
  O  O34  1  0.37502201  0.19774342  0.34256791  1
  O  O35  1  0.55975735  0.66365270  0.35317953  1
loop_
_geom_bond_atom_site_label_1
_geom_bond_atom_site_label_2
_geom_bond_distance
_geom_bond_site_symmetry_2
Nd0 O27 2.350754 1_565
Nd0 O2 2.402557 1_554
Nd0 O23 2.416896 1_455
Nd0 O6 2.445456 1_565
Nd0 O14 2.478245 1_555
Nd0 O9 2.522845 1_565
Nd0 O19 2.541474 1_564
Nd1 O27 2.350754 1_555
Nd1 O3 2.402557 1_555
Nd1 O22 2.416896 1_455
Nd1 O7 2.445456 1_545
Nd1 O34 2.478245 1_555
Nd1 O8 2.522845 1_545
Nd1 O18 2.541474 1_545
Nd2 O26 2.350754 1_555
Nd2 O0 2.402557 1_555
Nd2 O21 2.416896 1_555
Nd2 O4 2.445456 1_455
Nd2 O33 2.478245 1_555
Nd2 O11 2.522845 1_555
Nd2 O17 2.541474 1_555
Nd3 O26 2.350754 1_555
Nd3 O1 2.402557 1_556
Nd3 O20 2.416896 1_555
Nd3 O5 2.445456 1_455
Nd3 O32 2.478245 1_555
Nd3 O10 2.522845 1_555
Nd3 O16 2.541474 1_556
Nd4 O25 2.350754 1_555
Nd4 O6 2.402557 1_556
Nd4 O19 2.416896 1_655
Nd4 O2 2.445456 1_545
Nd4 O31 2.478245 1_555
Nd4 O13 2.522845 1_545
Nd4 O23 2.541474 1_546
Nd5 O25 2.350754 1_565
Nd5 O7 2.402557 1_555
Nd5 O18 2.416896 1_655
Nd5 O3 2.445456 1_565
Nd5 O30 2.478245 1_555
Nd5 O12 2.522845 1_565
Nd5 O22 2.541474 1_565
Nd6 O24 2.350754 1_555
Nd6 O4 2.402557 1_555
Nd6 O17 2.416896 1_555
Nd6 O0 2.445456 1_655
Nd6 O29 2.478245 1_555
Nd6 O35 2.522845 1_555
Nd6 O21 2.541474 1_555
Nd7 O24 2.350754 1_555
Nd7 O5 2.402557 1_554
Nd7 O16 2.416896 1_555
Nd7 O1 2.445456 1_655
Nd7 O28 2.478245 1_555
Nd7 O15 2.522845 1_555
Nd7 O20 2.541474 1_554
Nd8 O24 2.351160 1_455
Nd8 O14 2.399550 1_555
Nd8 O0 2.401225 1_555
Nd8 O28 2.406075 1_455
Nd8 O35 2.469800 1_555
Nd8 O8 2.518370 1_555
Nd8 O16 2.601564 1_555
Nd9 O24 2.351160 1_455
Nd9 O34 2.399550 1_555
Nd9 O1 2.401225 1_555
Nd9 O29 2.406075 1_455
Nd9 O15 2.469800 1_555
Nd9 O9 2.518370 1_555
Nd9 O17 2.601564 1_555
Nd10 O25 2.351160 1_565
Nd10 O33 2.399550 1_555
Nd10 O2 2.401225 1_555
Nd10 O30 2.406075 1_555
Nd10 O13 2.469800 1_455
Nd10 O10 2.518370 1_555
Nd10 O18 2.601564 1_555
Nd11 O25 2.351160 1_555
Nd11 O32 2.399550 1_555
Nd11 O3 2.401225 1_555
Nd11 O31 2.406075 1_555
Nd11 O12 2.469800 1_455
Nd11 O11 2.518370 1_555
Nd11 O19 2.601564 1_555
Nd12 O26 2.351160 1_655
Nd12 O31 2.399550 1_555
Nd12 O4 2.401225 1_555
Nd12 O32 2.406075 1_655
Nd12 O11 2.469800 1_555
Nd12 O12 2.518370 1_555
Nd12 O20 2.601564 1_555
Nd13 O26 2.351160 1_655
Nd13 O30 2.399550 1_555
Nd13 O5 2.401225 1_555
Nd13 O33 2.406075 1_655
Nd13 O10 2.469800 1_555
Nd13 O13 2.518370 1_555
Nd13 O21 2.601564 1_555
Nd14 O27 2.351160 1_555
Nd14 O29 2.399550 1_555
Nd14 O6 2.401225 1_555
Nd14 O34 2.406075 1_555
Nd14 O9 2.469800 1_655
Nd14 O15 2.518370 1_555
Nd14 O22 2.601564 1_555
Nd15 O27 2.351160 1_565
Nd15 O28 2.399550 1_555
Nd15 O7 2.401225 1_555
Nd15 O14 2.406075 1_555
Nd15 O8 2.469800 1_655
Nd15 O35 2.518370 1_555
Nd15 O23 2.601564 1_555
Au0 O14 1.985362 1_555
Au0 O2 2.013933 1_554
Au0 O16 2.037239 1_555
Au0 O10 2.047145 1_554
Au1 O34 1.985362 1_555
Au1 O3 2.013933 1_555
Au1 O17 2.037239 1_555
Au1 O11 2.047145 1_555
Au2 O33 1.985362 1_555
Au2 O0 2.013933 1_555
Au2 O18 2.037239 1_555
Au2 O8 2.047145 1_555
Au3 O32 1.985362 1_555
Au3 O1 2.013933 1_556
Au3 O19 2.037239 1_555
Au3 O9 2.047145 1_556
Au4 O31 1.985362 1_555
Au4 O6 2.013933 1_556
Au4 O20 2.037239 1_555
Au4 O15 2.047145 1_556
Au5 O30 1.985362 1_555
Au5 O7 2.013933 1_555
Au5 O21 2.037239 1_555
Au5 O35 2.047145 1_555
Au6 O29 1.985362 1_555
Au6 O4 2.013933 1_555
Au6 O22 2.037239 1_555
Au6 O12 2.047145 1_555
Au7 O28 1.985362 1_555
Au7 O5 2.013933 1_554
Au7 O23 2.037239 1_555
Au7 O13 2.047145 1_554
