# generated using pymatgen
data_La5TlSe8
_symmetry_space_group_name_H-M   'P 1'
_cell_length_a   7.94271641
_cell_length_b   7.94271739
_cell_length_c   7.94271682
_cell_angle_alpha   109.13238305
_cell_angle_beta   110.15101125
_cell_angle_gamma   109.13240385
_symmetry_Int_Tables_number   1
_chemical_formula_structural   La5TlSe8
_chemical_formula_sum   'La5 Tl1 Se8'
_cell_volume   385.69098763
_cell_formula_units_Z   1
loop_
 _symmetry_equiv_pos_site_id
 _symmetry_equiv_pos_as_xyz
  1  'x, y, z'
loop_
 _atom_site_type_symbol
 _atom_site_label
 _atom_site_symmetry_multiplicity
 _atom_site_fract_x
 _atom_site_fract_y
 _atom_site_fract_z
 _atom_site_occupancy
  La  La0  1  0.24264949  0.63015343  0.37792521  1
  La  La1  1  0.37500000  0.25000000  0.62500000  1
  La  La2  1  0.74777078  0.86984657  0.11249606  1
  La  La3  1  0.62207479  0.36472528  0.25222922  1
  La  La4  1  0.88750394  0.13527472  0.75735051  1
  Tl  Tl0  1  0.12500000  0.75000000  0.87500000  1
  Se  Se0  1  0.99534770  0.85816313  0.48879022  1
  Se  Se1  1  0.99625987  0.33709176  0.48818420  1
  Se  Se2  1  0.51181580  0.00807568  0.84890756  1
  Se  Se3  1  0.15109244  0.16290824  0.15916912  1
  Se  Se4  1  0.36281443  0.49344252  0.00465230  1
  Se  Se5  1  0.63062809  0.64183687  0.63718557  1
  Se  Se6  1  0.51120978  0.00655748  0.36937191  1
  Se  Se7  1  0.84083088  0.49192432  0.00374013  1
loop_
_geom_bond_atom_site_label_1
_geom_bond_atom_site_label_2
_geom_bond_distance
_geom_bond_site_symmetry_2
La0 Se5 3.010059 1_555
La0 Se7 3.041900 1_455
La0 Se6 3.089582 1_565
La0 Se1 3.089671 1_455
La0 Se0 3.223607 1_455
La0 Se3 3.233304 1_555
La0 Se2 3.239988 1_565
La0 Se4 3.376208 1_555
La1 Se5 3.056615 1_555
La1 Se0 3.056617 1_445
La1 Se6 3.056622 1_555
La1 Se4 3.056622 1_556
La1 Se3 3.211428 1_555
La1 Se7 3.211430 1_556
La1 Se2 3.211435 1_555
La1 Se1 3.211435 1_455
La2 Se0 3.010053 1_555
La2 Se2 3.041891 1_564
La2 Se4 3.089577 1_555
La2 Se3 3.089673 1_665
La2 Se5 3.223605 1_554
La2 Se1 3.233304 1_565
La2 Se7 3.239987 1_555
La2 Se6 3.376201 1_565
La3 Se4 3.010053 1_555
La3 Se1 3.041897 1_555
La3 Se5 3.089570 1_555
La3 Se2 3.089681 1_554
La3 Se6 3.223603 1_555
La3 Se7 3.233303 1_555
La3 Se3 3.239987 1_555
La3 Se0 3.376209 1_555
La4 Se6 3.010058 1_555
La4 Se3 3.041897 1_656
La4 Se0 3.089573 1_545
La4 Se7 3.089683 1_556
La4 Se4 3.223604 1_656
La4 Se2 3.233303 1_555
La4 Se1 3.239992 1_555
La4 Se5 3.376208 1_545
Se0 Tl0 3.367398 1_655
Se1 Tl0 3.205168 1_655
Se2 Tl0 3.205167 1_545
Se3 Tl0 3.205171 1_544
Se4 Tl0 3.367393 1_554
Se5 Tl0 3.367390 1_655
Se6 Tl0 3.367393 1_544
Se7 Tl0 3.205172 1_654
