# generated using pymatgen
data_Zr5GaBi3
_symmetry_space_group_name_H-M   'P 1'
_cell_length_a   8.84305032
_cell_length_b   8.84304976
_cell_length_c   5.93115366
_cell_angle_alpha   90.00000000
_cell_angle_beta   90.00000000
_cell_angle_gamma   119.99999839
_symmetry_Int_Tables_number   1
_chemical_formula_structural   Zr5GaBi3
_chemical_formula_sum   'Zr10 Ga2 Bi6'
_cell_volume   401.67423911
_cell_formula_units_Z   2
loop_
 _symmetry_equiv_pos_site_id
 _symmetry_equiv_pos_as_xyz
  1  'x, y, z'
loop_
 _atom_site_type_symbol
 _atom_site_label
 _atom_site_symmetry_multiplicity
 _atom_site_fract_x
 _atom_site_fract_y
 _atom_site_fract_z
 _atom_site_occupancy
  Zr  Zr0  1  0.66666700  0.33333300  0.00000000  1
  Zr  Zr1  1  0.33333300  0.66666700  0.00000000  1
  Zr  Zr2  1  0.33333300  0.66666700  0.50000000  1
  Zr  Zr3  1  0.66666700  0.33333300  0.50000000  1
  Zr  Zr4  1  0.73641925  0.73641925  0.75000000  1
  Zr  Zr5  1  0.26358075  0.00000000  0.75000000  1
  Zr  Zr6  1  1.00000000  0.26358075  0.75000000  1
  Zr  Zr7  1  0.26358075  0.26358075  0.25000000  1
  Zr  Zr8  1  0.73641925  1.00000000  0.25000000  1
  Zr  Zr9  1  0.00000000  0.73641925  0.25000000  1
  Ga  Ga0  1  0.00000000  0.00000000  0.00000000  1
  Ga  Ga1  1  0.00000000  0.00000000  0.50000000  1
  Bi  Bi0  1  0.38931300  0.38931300  0.75000000  1
  Bi  Bi1  1  0.61068700  1.00000000  0.75000000  1
  Bi  Bi2  1  0.00000000  0.61068700  0.75000000  1
  Bi  Bi3  1  0.61068700  0.61068700  0.25000000  1
  Bi  Bi4  1  0.38931300  0.00000000  0.25000000  1
  Bi  Bi5  1  0.00000000  0.38931300  0.25000000  1
loop_
_geom_bond_atom_site_label_1
_geom_bond_atom_site_label_2
_geom_bond_distance
_geom_bond_site_symmetry_2
Zr0 Zr3 2.965577 1_554
Zr0 Zr3 2.965577 1_555
Zr1 Zr2 2.965577 1_554
Zr1 Zr2 2.965577 1_555
Ga0 Zr6 2.762528 1_454
Ga0 Zr9 2.762528 1_545
Ga0 Zr7 2.762528 1_555
Ga0 Zr4 2.762528 1_444
Ga0 Zr8 2.762528 1_445
Ga0 Zr5 2.762528 1_554
Ga0 Ga1 2.965577 1_555
Ga0 Ga1 2.965577 1_554
Ga1 Zr6 2.762528 1_455
Ga1 Zr9 2.762528 1_545
Ga1 Zr7 2.762528 1_555
Ga1 Zr4 2.762528 1_445
Ga1 Zr8 2.762528 1_445
Ga1 Zr5 2.762528 1_555
Bi0 Zr5 3.043140 1_555
Bi0 Zr6 3.043140 1_455
Bi0 Zr4 3.069478 1_555
Bi0 Zr2 3.110207 1_555
Bi0 Zr1 3.110207 1_556
Bi0 Zr3 3.110207 1_555
Bi0 Zr0 3.110207 1_556
Bi0 Zr7 3.167155 1_555
Bi0 Zr7 3.167155 1_556
Bi1 Zr4 3.043140 1_555
Bi1 Zr6 3.043140 1_565
Bi1 Zr5 3.069478 1_565
Bi1 Zr0 3.110199 1_566
Bi1 Zr3 3.110199 1_565
Bi1 Zr1 3.110202 1_556
Bi1 Zr2 3.110202 1_555
Bi1 Zr8 3.167155 1_556
Bi1 Zr8 3.167155 1_555
Bi2 Zr5 3.043140 1_565
Bi2 Zr4 3.043140 1_455
Bi2 Zr6 3.069478 1_455
Bi2 Zr1 3.110199 1_556
Bi2 Zr2 3.110199 1_555
Bi2 Zr0 3.110202 1_456
Bi2 Zr3 3.110202 1_455
Bi2 Zr9 3.167155 1_556
Bi2 Zr9 3.167155 1_555
Bi3 Zr8 3.043140 1_555
Bi3 Zr9 3.043140 1_655
Bi3 Zr7 3.069478 1_555
Bi3 Zr3 3.110207 1_555
Bi3 Zr0 3.110207 1_555
Bi3 Zr1 3.110207 1_555
Bi3 Zr2 3.110207 1_555
Bi3 Zr4 3.167155 1_555
Bi3 Zr4 3.167155 1_554
Bi4 Zr7 3.043140 1_555
Bi4 Zr9 3.043140 1_545
Bi4 Zr8 3.069478 1_545
Bi4 Zr2 3.110199 1_545
Bi4 Zr1 3.110199 1_545
Bi4 Zr3 3.110202 1_555
Bi4 Zr0 3.110202 1_555
Bi4 Zr5 3.167155 1_555
Bi4 Zr5 3.167155 1_554
Bi5 Zr8 3.043140 1_445
Bi5 Zr7 3.043140 1_555
Bi5 Zr9 3.069478 1_555
Bi5 Zr3 3.110199 1_455
Bi5 Zr0 3.110199 1_455
Bi5 Zr2 3.110202 1_555
Bi5 Zr1 3.110202 1_555
Bi5 Zr6 3.167155 1_454
Bi5 Zr6 3.167155 1_455
