# generated using pymatgen
data_Rb2Te(IO3)6
_symmetry_space_group_name_H-M   'P 1'
_cell_length_a   7.72982938
_cell_length_b   7.72982980
_cell_length_c   7.72982943
_cell_angle_alpha   97.00618328
_cell_angle_beta   97.00618265
_cell_angle_gamma   97.00619049
_symmetry_Int_Tables_number   1
_chemical_formula_structural   Rb2Te(IO3)6
_chemical_formula_sum   'Rb2 Te1 I6 O18'
_cell_volume   450.57584823
_cell_formula_units_Z   1
loop_
 _symmetry_equiv_pos_site_id
 _symmetry_equiv_pos_as_xyz
  1  'x, y, z'
loop_
 _atom_site_type_symbol
 _atom_site_label
 _atom_site_symmetry_multiplicity
 _atom_site_fract_x
 _atom_site_fract_y
 _atom_site_fract_z
 _atom_site_occupancy
  Rb  Rb0  1  0.16459126  0.16459126  0.16459126  1
  Rb  Rb1  1  0.83540874  0.83540874  0.83540874  1
  Te  Te0  1  0.50000000  0.50000000  0.50000000  1
  I  I0  1  0.33584252  0.70350437  0.10972281  1
  I  I1  1  0.10972281  0.33584252  0.70350437  1
  I  I2  1  0.89027719  0.66415748  0.29649563  1
  I  I3  1  0.66415748  0.29649563  0.89027719  1
  I  I4  1  0.70350437  0.10972281  0.33584252  1
  I  I5  1  0.29649563  0.89027719  0.66415748  1
  O  O0  1  0.89262656  0.27852667  0.39034382  1
  O  O1  1  0.09975239  0.69154858  0.06996277  1
  O  O2  1  0.10737344  0.72147333  0.60965618  1
  O  O3  1  0.46069856  0.73112790  0.66532250  1
  O  O4  1  0.53930244  0.26887210  0.33467750  1
  O  O5  1  0.33467750  0.53930244  0.26887210  1
  O  O6  1  0.27852667  0.39034382  0.89262656  1
  O  O7  1  0.66532250  0.46069756  0.73112790  1
  O  O8  1  0.72147333  0.60965618  0.10737344  1
  O  O9  1  0.06996277  0.09975239  0.69154858  1
  O  O10  1  0.39034382  0.89262656  0.27852667  1
  O  O11  1  0.60965618  0.10737344  0.72147333  1
  O  O12  1  0.69154858  0.06996277  0.09975239  1
  O  O13  1  0.73112790  0.66532250  0.46069756  1
  O  O14  1  0.93003723  0.90024761  0.30845142  1
  O  O15  1  0.26887210  0.33467750  0.53930244  1
  O  O16  1  0.90024761  0.30845142  0.93003723  1
  O  O17  1  0.30845142  0.93003723  0.90024761  1
loop_
_geom_bond_atom_site_label_1
_geom_bond_atom_site_label_2
_geom_bond_distance
_geom_bond_site_symmetry_2
I0 O1 1.802357 1_555
I0 O10 1.807613 1_555
I0 O5 1.872244 1_555
I0 O17 2.536015 1_554
I1 O9 1.802357 1_555
I1 O6 1.807613 1_555
I1 O15 1.872244 1_555
I1 O16 2.536015 1_455
I2 O14 1.802357 1_555
I2 O8 1.807613 1_555
I2 O13 1.872244 1_555
I2 O1 2.536015 1_655
I3 O16 1.802357 1_555
I3 O11 1.807613 1_555
I3 O7 1.872244 1_555
I3 O12 2.536015 1_556
I4 O12 1.802357 1_555
I4 O0 1.807613 1_555
I4 O4 1.872244 1_555
I4 O14 2.536015 1_545
I5 O17 1.802357 1_555
I5 O2 1.807613 1_555
I5 O3 1.872250 1_555
I5 O9 2.536015 1_565
O0 Rb0 3.035104 1_655
O1 Rb1 2.973444 1_454
O2 Rb1 3.035104 1_455
O3 Te0 2.141814 1_555
O3 Rb1 3.001765 1_555
O4 Te0 2.141817 1_555
O4 Rb0 3.001772 1_555
O5 Te0 2.141817 1_555
O5 Rb0 3.001772 1_555
O6 Rb0 3.035104 1_556
O7 Te0 2.141817 1_555
O7 Rb1 3.001772 1_555
O8 Rb1 3.035104 1_554
O9 Rb1 2.973443 1_445
O10 Rb0 3.035104 1_565
O11 Rb1 3.035104 1_545
O12 Rb1 2.973444 1_544
O13 Te0 2.141816 1_555
O13 Rb1 3.001772 1_555
O14 Rb0 2.973443 1_665
O15 Te0 2.141816 1_555
O15 Rb0 3.001772 1_555
O16 Rb0 2.973444 1_656
O17 Rb0 2.973444 1_566
