# generated using pymatgen
data_Lu8In2RuPt
_symmetry_space_group_name_H-M   'P 1'
_cell_length_a   9.41280692
_cell_length_b   9.41280711
_cell_length_c   9.42993093
_cell_angle_alpha   59.93980635
_cell_angle_beta   59.93980569
_cell_angle_gamma   59.97251649
_symmetry_Int_Tables_number   1
_chemical_formula_structural   Lu8In2RuPt
_chemical_formula_sum   'Lu16 In4 Ru2 Pt2'
_cell_volume   590.12765314
_cell_formula_units_Z   2
loop_
 _symmetry_equiv_pos_site_id
 _symmetry_equiv_pos_as_xyz
  1  'x, y, z'
loop_
 _atom_site_type_symbol
 _atom_site_label
 _atom_site_symmetry_multiplicity
 _atom_site_fract_x
 _atom_site_fract_y
 _atom_site_fract_z
 _atom_site_occupancy
  Lu  Lu0  1  0.59873939  0.59873939  0.60545074  1
  Lu  Lu1  1  0.59873939  0.59873939  0.19707149  1
  Lu  Lu2  1  0.59671126  0.20458453  0.59935260  1
  Lu  Lu3  1  0.20458453  0.59671126  0.59935260  1
  Lu  Lu4  1  0.06319613  0.43988930  0.44246399  1
  Lu  Lu5  1  0.43988930  0.06319613  0.05445058  1
  Lu  Lu6  1  0.43988930  0.06319613  0.44246399  1
  Lu  Lu7  1  0.06319613  0.43988930  0.05445058  1
  Lu  Lu8  1  0.43938980  0.43938980  0.06061020  1
  Lu  Lu9  1  0.05786439  0.05786439  0.44213561  1
  Lu  Lu10  1  0.18892397  0.80699467  0.81328111  1
  Lu  Lu11  1  0.80699467  0.18892397  0.19079925  1
  Lu  Lu12  1  0.80699467  0.18892397  0.81328111  1
  Lu  Lu13  1  0.18892397  0.80699467  0.19079925  1
  Lu  Lu14  1  0.81005112  0.81005112  0.18994888  1
  Lu  Lu15  1  0.19087164  0.19087164  0.80912836  1
  In  In0  1  0.83375865  0.83375865  0.83319301  1
  In  In1  1  0.83375865  0.83375865  0.49929069  1
  In  In2  1  0.83422611  0.49825404  0.83375992  1
  In  In3  1  0.49825404  0.83422611  0.83375992  1
  Ru  Ru0  1  0.39238182  0.39238182  0.38911784  1
  Ru  Ru1  1  0.39238182  0.39238182  0.82611652  1
  Pt  Pt0  1  0.39455476  0.82572348  0.38986038  1
  Pt  Pt1  1  0.82572348  0.39455476  0.38986038  1
loop_
_geom_bond_atom_site_label_1
_geom_bond_atom_site_label_2
_geom_bond_distance
_geom_bond_site_symmetry_2
Lu0 Ru1 2.748357 1_555
Lu0 Pt1 2.800895 1_555
Lu0 Pt0 2.800895 1_555
Lu0 Lu10 3.357216 1_555
Lu0 Lu12 3.357216 1_555
Lu0 Lu14 3.407192 1_555
Lu1 Ru0 2.748358 1_555
Lu1 Pt1 2.800882 1_555
Lu1 Pt0 2.800882 1_555
Lu1 Lu13 3.357222 1_555
Lu1 Lu11 3.357222 1_555
Lu1 Lu14 3.407187 1_555
Lu2 Ru1 2.767758 1_555
Lu2 Ru0 2.767779 1_555
Lu2 Pt1 2.792774 1_555
Lu3 Ru1 2.767758 1_555
Lu3 Ru0 2.767779 1_555
Lu3 Pt0 2.792774 1_555
Lu4 Ru0 2.707608 1_555
Lu4 Pt1 2.775281 1_455
Lu5 Ru1 2.707614 1_554
Lu5 Pt0 2.775275 1_545
Lu6 Ru0 2.707608 1_555
Lu6 Pt0 2.775281 1_545
Lu7 Ru1 2.707614 1_554
Lu7 Pt1 2.775275 1_455
Lu8 Ru0 2.727180 1_555
Lu8 Ru1 2.727198 1_554
Lu9 Pt0 2.764910 1_545
Lu9 Pt1 2.764910 1_455
Lu10 Ru1 3.345426 1_555
Lu10 Lu3 3.379283 1_555
Lu10 Pt0 3.407940 1_555
Lu10 Lu7 3.469394 1_556
Lu10 Lu8 3.497141 1_556
Lu10 Lu9 3.532346 1_565
Lu10 Lu6 3.549876 1_565
Lu10 Lu14 3.555960 1_456
Lu10 Lu13 3.559970 1_556
Lu10 Lu12 3.593533 1_465
Lu10 Lu15 3.603063 1_565
Lu11 Ru0 3.345424 1_555
Lu11 Lu2 3.379300 1_555
Lu11 Pt1 3.407940 1_555
Lu11 Lu6 3.469394 1_555
Lu11 Lu8 3.497136 1_555
Lu11 Lu9 3.532354 1_655
Lu11 Lu7 3.549879 1_655
Lu11 Lu14 3.555955 1_545
Lu11 Lu12 3.559970 1_554
Lu11 Lu13 3.593533 1_645
Lu11 Lu15 3.603058 1_654
Lu12 Ru1 3.345426 1_555
Lu12 Lu2 3.379283 1_555
Lu12 Pt1 3.407940 1_555
Lu12 Lu5 3.469394 1_556
Lu12 Lu8 3.497141 1_556
Lu12 Lu9 3.532346 1_655
Lu12 Lu4 3.549876 1_655
Lu12 Lu14 3.555960 1_546
Lu12 Lu15 3.603063 1_655
Lu13 Ru0 3.345424 1_555
Lu13 Lu3 3.379300 1_555
Lu13 Pt0 3.407940 1_555
Lu13 Lu4 3.469394 1_555
Lu13 Lu8 3.497136 1_555
Lu13 Lu9 3.532354 1_565
Lu13 Lu5 3.549879 1_565
Lu13 Lu14 3.555955 1_455
Lu13 Lu15 3.603058 1_564
Lu14 Pt0 3.344598 1_555
Lu14 Pt1 3.344598 1_555
Lu14 Lu5 3.542764 1_565
Lu14 Lu7 3.542765 1_655
Lu14 Lu6 3.542765 1_565
Lu14 Lu4 3.542765 1_655
Lu15 Lu2 3.345155 1_555
Lu15 Lu3 3.345156 1_555
Lu15 Ru1 3.380940 1_555
Lu15 Ru0 3.380952 1_555
Lu15 Lu5 3.481078 1_556
Lu15 Lu7 3.481078 1_556
Lu15 Lu6 3.481078 1_555
Lu15 Lu4 3.481078 1_555
In0 Lu10 3.138578 1_655
In0 Lu12 3.138578 1_565
In0 In1 3.148676 1_555
In0 In3 3.153168 1_555
In0 In2 3.153168 1_555
In0 Lu14 3.156417 1_556
In0 Lu1 3.354157 1_556
In0 Lu9 3.371309 1_665
In0 Lu3 3.383517 1_655
In0 Lu2 3.383517 1_565
In0 Lu5 3.393184 1_566
In0 Lu7 3.393184 1_656
In1 Lu13 3.138586 1_655
In1 Lu11 3.138586 1_565
In1 In3 3.153163 1_555
In1 In2 3.153163 1_555
In1 Lu14 3.156426 1_555
In1 Lu0 3.354157 1_555
In1 Lu9 3.371304 1_665
In1 Lu3 3.383517 1_655
In1 Lu2 3.383517 1_565
In1 Lu6 3.393188 1_565
In1 Lu4 3.393188 1_655
In2 Lu15 3.141022 1_655
In2 Lu11 3.152871 1_556
In2 Lu12 3.152876 1_555
In2 In3 3.161126 1_555
In2 Lu0 3.329499 1_555
In2 Lu1 3.329507 1_556
In2 Lu3 3.370348 1_655
In2 Lu7 3.382443 1_656
In2 Lu4 3.382443 1_655
In2 Lu8 3.406517 1_556
In3 Lu15 3.141022 1_565
In3 Lu13 3.152871 1_556
In3 Lu10 3.152876 1_555
In3 Lu0 3.329499 1_555
In3 Lu1 3.329507 1_556
In3 Lu2 3.370348 1_565
In3 Lu5 3.382443 1_566
In3 Lu6 3.382443 1_565
In3 Lu8 3.406517 1_556
