# generated using pymatgen
data_Ca4Ru3RhO14
_symmetry_space_group_name_H-M   'P 1'
_cell_length_a   7.18795080
_cell_length_b   7.18794993
_cell_length_c   7.18795042
_cell_angle_alpha   60.52136429
_cell_angle_beta   60.52137214
_cell_angle_gamma   60.52136369
_symmetry_Int_Tables_number   1
_chemical_formula_structural   Ca4Ru3RhO14
_chemical_formula_sum   'Ca4 Ru3 Rh1 O14'
_cell_volume   265.69709924
_cell_formula_units_Z   1
loop_
 _symmetry_equiv_pos_site_id
 _symmetry_equiv_pos_as_xyz
  1  'x, y, z'
loop_
 _atom_site_type_symbol
 _atom_site_label
 _atom_site_symmetry_multiplicity
 _atom_site_fract_x
 _atom_site_fract_y
 _atom_site_fract_z
 _atom_site_occupancy
  Ca  Ca0  1  0.62500000  0.12500000  0.62500000  1
  Ca  Ca1  1  0.62500000  0.62500000  0.12500000  1
  Ca  Ca2  1  0.12500000  0.62500000  0.62500000  1
  Ca  Ca3  1  0.62500000  0.62500000  0.62500000  1
  Ru  Ru0  1  0.62500000  0.12500000  0.12500000  1
  Ru  Ru1  1  0.12500000  0.62500000  0.12500000  1
  Ru  Ru2  1  0.12500000  0.12500000  0.62500000  1
  Rh  Rh0  1  0.12500000  0.12500000  0.12500000  1
  O  O0  1  0.19578061  0.19578061  0.80163911  1
  O  O1  1  0.19578061  0.80163911  0.19578061  1
  O  O2  1  0.44836089  0.05421939  0.05421939  1
  O  O3  1  0.19403406  0.80406401  0.80406401  1
  O  O4  1  0.05596594  0.44593599  0.44593599  1
  O  O5  1  0.80406401  0.80406401  0.19403406  1
  O  O6  1  0.44593599  0.44593599  0.05596594  1
  O  O7  1  0.49989491  0.49989491  0.49989491  1
  O  O8  1  0.05421939  0.05421939  0.44836089  1
  O  O9  1  0.44593599  0.05596594  0.44593599  1
  O  O10  1  0.05421939  0.44836089  0.05421939  1
  O  O11  1  0.75010509  0.75010509  0.75010509  1
  O  O12  1  0.80406401  0.19403406  0.80406401  1
  O  O13  1  0.80163911  0.19578061  0.19578061  1
loop_
_geom_bond_atom_site_label_1
_geom_bond_atom_site_label_2
_geom_bond_distance
_geom_bond_site_symmetry_2
Ca0 O7 2.214687 1_555
Ca0 O11 2.214687 1_545
Ca0 O12 2.539119 1_555
Ca0 O9 2.539119 1_555
Ca0 O2 2.573913 1_556
Ca0 O13 2.573913 1_555
Ca0 O8 2.573913 1_655
Ca0 O0 2.573913 1_555
Ca1 O7 2.214688 1_555
Ca1 O11 2.214688 1_554
Ca1 O6 2.539119 1_555
Ca1 O5 2.539119 1_555
Ca1 O2 2.573912 1_565
Ca1 O13 2.573912 1_555
Ca1 O10 2.573913 1_655
Ca1 O1 2.573913 1_555
Ca2 O7 2.214688 1_555
Ca2 O11 2.214688 1_455
Ca2 O3 2.539119 1_555
Ca2 O4 2.539119 1_555
Ca2 O8 2.573912 1_565
Ca2 O0 2.573912 1_555
Ca2 O10 2.573913 1_556
Ca2 O1 2.573913 1_555
Ca3 O11 2.193983 1_555
Ca3 O7 2.193983 1_555
Ca3 O9 2.586810 1_565
Ca3 O12 2.586810 1_555
Ca3 O5 2.586810 1_555
Ca3 O6 2.586810 1_556
Ca3 O3 2.586810 1_555
Ca3 O4 2.586810 1_655
O0 Ru2 1.912076 1_555
O0 Rh0 1.961412 1_556
O1 Ru1 1.912076 1_555
O1 Rh0 1.961412 1_565
O2 Ru0 1.912076 1_555
O2 Rh0 1.961412 1_555
O3 Ru2 1.950444 1_565
O3 Ru1 1.950444 1_556
O4 Ru2 1.950444 1_555
O4 Ru1 1.950444 1_555
O5 Ru0 1.950444 1_565
O5 Ru1 1.950444 1_655
O6 Ru0 1.950444 1_555
O6 Ru1 1.950444 1_555
O8 Ru2 1.912076 1_555
O8 Rh0 1.961412 1_555
O9 Ru0 1.950444 1_555
O9 Ru2 1.950444 1_555
O10 Ru1 1.912076 1_555
O10 Rh0 1.961412 1_555
O12 Ru0 1.950444 1_556
O12 Ru2 1.950444 1_655
O13 Ru0 1.912076 1_555
O13 Rh0 1.961412 1_655
