# generated using pymatgen
data_LuNb6Sn5Sb
_symmetry_space_group_name_H-M   'P 1'
_cell_length_a   5.77072792
_cell_length_b   5.77072818
_cell_length_c   9.58427029
_cell_angle_alpha   90.00000000
_cell_angle_beta   90.00000000
_cell_angle_gamma   119.99999849
_symmetry_Int_Tables_number   1
_chemical_formula_structural   LuNb6Sn5Sb
_chemical_formula_sum   'Lu1 Nb6 Sn5 Sb1'
_cell_volume   276.40819030
_cell_formula_units_Z   1
loop_
 _symmetry_equiv_pos_site_id
 _symmetry_equiv_pos_as_xyz
  1  'x, y, z'
loop_
 _atom_site_type_symbol
 _atom_site_label
 _atom_site_symmetry_multiplicity
 _atom_site_fract_x
 _atom_site_fract_y
 _atom_site_fract_z
 _atom_site_occupancy
  Lu  Lu0  1  0.00000000  0.00000000  0.99560798  1
  Nb  Nb0  1  0.00000000  0.50000000  0.75282560  1
  Nb  Nb1  1  0.50000000  0.50000000  0.75282560  1
  Nb  Nb2  1  0.50000000  0.00000000  0.75282560  1
  Nb  Nb3  1  0.00000000  0.50000000  0.24967131  1
  Nb  Nb4  1  0.50000000  0.50000000  0.24967131  1
  Nb  Nb5  1  0.50000000  0.00000000  0.24967131  1
  Sn  Sn0  1  0.66666700  0.33333300  0.50035349  1
  Sn  Sn1  1  0.33333300  0.66666700  0.50035349  1
  Sn  Sn2  1  0.66666700  0.33333300  0.00123526  1
  Sn  Sn3  1  0.33333300  0.66666700  0.00123526  1
  Sn  Sn4  1  0.00000000  0.00000000  0.33086036  1
  Sb  Sb0  1  0.00000000  0.00000000  0.66286247  1
loop_
_geom_bond_atom_site_label_1
_geom_bond_atom_site_label_2
_geom_bond_distance
_geom_bond_site_symmetry_2
Lu0 Sb0 3.189123 1_555
Lu0 Sn4 3.213149 1_556
Lu0 Sn3 3.332165 1_546
Lu0 Sn2 3.332165 1_456
Lu0 Sn2 3.332170 1_556
Lu0 Sn3 3.332170 1_446
Lu0 Sn3 3.332170 1_556
Lu0 Sn2 3.332170 1_446
Nb0 Sn3 2.905758 1_556
Nb0 Sn2 2.905758 1_456
Nb0 Sn1 2.937745 1_555
Nb0 Sn0 2.937745 1_455
Nb0 Sb0 3.011440 1_565
Nb0 Sb0 3.011440 1_555
Nb1 Sn3 2.905761 1_556
Nb1 Sn2 2.905761 1_556
Nb1 Sn0 2.937748 1_555
Nb1 Sn1 2.937748 1_555
Nb1 Sb0 3.011440 1_665
Nb1 Sb0 3.011440 1_555
Nb2 Sn2 2.905759 1_556
Nb2 Sn3 2.905759 1_546
Nb2 Sn0 2.937745 1_555
Nb2 Sn1 2.937745 1_545
Nb2 Sb0 3.011439 1_655
Nb2 Sb0 3.011439 1_555
Nb3 Sn3 2.905966 1_555
Nb3 Sn2 2.905966 1_455
Nb3 Sn1 2.923631 1_555
Nb3 Sn0 2.923631 1_455
Nb3 Sn4 2.988449 1_565
Nb3 Sn4 2.988449 1_555
Nb4 Sn2 2.905969 1_555
Nb4 Sn3 2.905969 1_555
Nb4 Sn1 2.923634 1_555
Nb4 Sn0 2.923634 1_555
Nb4 Sn4 2.988449 1_665
Nb4 Sn4 2.988449 1_555
Nb5 Sn2 2.905966 1_555
Nb5 Sn3 2.905966 1_545
Nb5 Sn0 2.923631 1_555
Nb5 Sn1 2.923631 1_545
Nb5 Sn4 2.988448 1_655
Nb5 Sn4 2.988448 1_555
Sb0 Sn4 3.181998 1_555
