# generated using pymatgen
data_Ti3B2Mo2P
_symmetry_space_group_name_H-M   'P 1'
_cell_length_a   7.03953887
_cell_length_b   7.01588309
_cell_length_c   7.01588266
_cell_angle_alpha   129.42912055
_cell_angle_beta   129.58634023
_cell_angle_gamma   74.12201760
_symmetry_Int_Tables_number   1
_chemical_formula_structural   Ti3B2Mo2P
_chemical_formula_sum   'Ti6 B4 Mo4 P2'
_cell_volume   201.19645756
_cell_formula_units_Z   2
loop_
 _symmetry_equiv_pos_site_id
 _symmetry_equiv_pos_as_xyz
  1  'x, y, z'
loop_
 _atom_site_type_symbol
 _atom_site_label
 _atom_site_symmetry_multiplicity
 _atom_site_fract_x
 _atom_site_fract_y
 _atom_site_fract_z
 _atom_site_occupancy
  Ti  Ti0  1  0.80881547  0.96678801  0.49961711  1
  Ti  Ti1  1  0.30881547  0.80919936  0.84202846  1
  Ti  Ti2  1  0.19211850  0.03355742  0.50043892  1
  Ti  Ti3  1  0.53178814  0.68906303  0.49959848  1
  Ti  Ti4  1  0.03178814  0.53218866  0.84272511  1
  Ti  Ti5  1  0.69211850  0.19167957  0.15856008  1
  B  B0  1  0.38842582  0.88830608  0.27642237  1
  B  B1  1  0.88842582  0.61200444  0.50011974  1
  B  B2  1  0.61176550  0.11109100  0.72396214  1
  B  B3  1  0.11176550  0.38780237  0.50067551  1
  Mo  Mo0  1  0.00198277  0.00102283  0.00114966  1
  Mo  Mo1  1  0.96573857  0.46694423  0.15702760  1
  Mo  Mo2  1  0.50198277  0.50083211  0.00095894  1
  Mo  Mo3  1  0.46573857  0.30871098  0.49879434  1
  P  P0  1  0.74936522  0.75156722  0.00012153  1
  P  P1  1  0.24936522  0.24924369  0.99779801  1
loop_
_geom_bond_atom_site_label_1
_geom_bond_atom_site_label_2
_geom_bond_distance
_geom_bond_site_symmetry_2
B0 B2 1.895482 1_565
B0 Mo3 2.319663 1_565
B0 Ti2 2.319775 1_565
B0 Ti0 2.324511 1_555
B0 Ti3 2.327785 1_555
B0 Ti1 2.398991 1_554
B0 Mo0 2.413021 1_565
B0 Ti4 2.417308 1_554
B0 Mo2 2.422896 1_555
B1 B3 1.895491 1_655
B1 Mo1 2.319661 1_555
B1 Ti5 2.319779 1_555
B1 Ti1 2.324510 1_655
B1 Ti4 2.327796 1_655
B1 Ti0 2.398988 1_555
B1 Mo2 2.413020 1_555
B1 Ti3 2.417304 1_555
B1 Mo0 2.422888 1_666
B2 Ti2 2.318069 1_555
B2 Mo3 2.325366 1_555
B2 Ti0 2.327351 1_545
B2 Ti3 2.328957 1_545
B2 Ti5 2.392408 1_556
B2 Mo1 2.406906 1_556
B2 Mo2 2.420459 1_556
B2 Mo0 2.421271 1_656
B3 Ti5 2.318065 1_455
B3 Mo1 2.325377 1_455
B3 Ti1 2.327363 1_555
B3 Ti4 2.328951 1_555
B3 Ti2 2.392404 1_555
B3 Mo3 2.406910 1_555
B3 Mo0 2.420466 1_555
B3 Mo2 2.421264 1_556
Mo0 Mo3 2.695077 1_555
Mo0 Ti2 2.700052 1_555
Mo0 Ti0 2.700939 1_444
Mo0 Ti1 2.701309 1_544
Mo0 Mo1 2.702732 1_455
Mo0 Ti5 2.713697 1_455
Mo0 Ti4 2.715583 1_544
Mo0 Ti3 2.732263 1_444
Mo0 P1 2.798154 1_554
Mo0 P0 2.809997 1_445
Mo1 P0 2.551554 1_555
Mo1 P1 2.563964 1_654
Mo1 Mo2 2.695075 1_555
Mo1 Ti4 2.827287 1_654
Mo1 Ti1 2.901235 1_655
Mo2 Ti5 2.700045 1_555
Mo2 Ti1 2.700944 1_554
Mo2 Ti0 2.701318 1_555
Mo2 Mo3 2.702727 1_554
Mo2 Ti2 2.713697 1_554
Mo2 Ti3 2.715581 1_555
Mo2 Ti4 2.732265 1_554
Mo2 P0 2.798154 1_555
Mo2 P1 2.809997 1_554
Mo3 P1 2.551554 1_554
Mo3 P0 2.563965 1_556
Mo3 Ti3 2.827292 1_555
Mo3 Ti0 2.901230 1_545
P0 Ti3 2.535005 1_554
P0 Ti5 2.542149 1_565
P0 Ti0 2.547755 1_555
P0 Ti4 2.550635 1_654
P0 Ti1 2.551696 1_554
P0 Ti2 2.561076 1_665
P1 Ti4 2.534998 1_555
P1 Ti2 2.542147 1_555
P1 Ti1 2.547751 1_545
P1 Ti3 2.550634 1_556
P1 Ti0 2.551694 1_445
P1 Ti5 2.561077 1_556
