# generated using pymatgen
data_Ta7Nb2CrN12
_symmetry_space_group_name_H-M   'P 1'
_cell_length_a   5.19724697
_cell_length_b   5.20691816
_cell_length_c   10.34740647
_cell_angle_alpha   90.00471895
_cell_angle_beta   89.99787156
_cell_angle_gamma   120.06157289
_symmetry_Int_Tables_number   1
_chemical_formula_structural   Ta7Nb2CrN12
_chemical_formula_sum   'Ta7 Nb2 Cr1 N12'
_cell_volume   242.35191379
_cell_formula_units_Z   1
loop_
 _symmetry_equiv_pos_site_id
 _symmetry_equiv_pos_as_xyz
  1  'x, y, z'
loop_
 _atom_site_type_symbol
 _atom_site_label
 _atom_site_symmetry_multiplicity
 _atom_site_fract_x
 _atom_site_fract_y
 _atom_site_fract_z
 _atom_site_occupancy
  Ta  Ta0  1  0.66430489  0.33215424  0.99999119  1
  Ta  Ta1  1  0.66274893  0.33137506  0.50000985  1
  Ta  Ta2  1  0.33404913  0.66701535  0.99999629  1
  Ta  Ta3  1  0.67722572  0.99839325  0.74930760  1
  Ta  Ta4  1  0.67722325  0.67883208  0.25069269  1
  Ta  Ta5  1  0.00203474  0.32334516  0.25080009  1
  Ta  Ta6  1  0.00203423  0.67869198  0.74920033  1
  Nb  Nb0  1  0.32298695  0.32498108  0.75032500  1
  Nb  Nb1  1  0.32298653  0.99800494  0.24967490  1
  Cr  Cr0  1  0.33325792  0.66662812  0.50000897  1
  N  N0  1  0.34927357  0.35552756  0.37909995  1
  N  N1  1  0.65387056  0.99846951  0.37969823  1
  N  N2  1  0.99621273  0.64395188  0.37884593  1
  N  N3  1  0.99554504  0.34330743  0.88003141  1
  N  N4  1  0.66412554  0.00042923  0.11892325  1
  N  N5  1  0.66412842  0.66369958  0.88105739  1
  N  N6  1  0.34154395  0.99613948  0.88015668  1
  N  N7  1  0.65387257  0.65540244  0.62031806  1
  N  N8  1  0.99621281  0.35225759  0.62117024  1
  N  N9  1  0.99554430  0.65223249  0.11994997  1
  N  N10  1  0.34927203  0.99374926  0.62091709  1
  N  N11  1  0.34154818  0.34541231  0.11982489  1
loop_
_geom_bond_atom_site_label_1
_geom_bond_atom_site_label_2
_geom_bond_distance
_geom_bond_site_symmetry_2
Cr0 N0 2.081083 1_555
Cr0 N10 2.081100 1_555
Cr0 N7 2.104164 1_555
Cr0 N1 2.104181 1_555
Cr0 N2 2.108830 1_455
Cr0 N8 2.108831 1_455
N0 Ta1 2.107332 1_555
N0 Ta4 2.151739 1_555
N0 Ta5 2.178206 1_555
N0 Nb1 2.241089 1_545
N1 Ta1 2.115696 1_565
N1 Nb1 2.182531 1_555
N1 Ta4 2.183711 1_555
N1 Ta5 2.201876 1_665
N2 Ta1 2.097290 1_555
N2 Ta5 2.143230 1_655
N2 Ta4 2.200407 1_555
N2 Nb1 2.221004 1_655
N3 Ta0 2.099407 1_555
N3 Ta2 2.122722 1_655
N3 Ta3 2.194338 1_545
N3 Ta6 2.196548 1_655
N3 Nb0 2.206585 1_655
N4 Ta2 2.118305 1_544
N4 Ta0 2.120531 1_554
N4 Ta4 2.186853 1_545
N4 Ta5 2.194277 1_655
N4 Nb1 2.225192 1_545
N5 Ta2 2.118350 1_555
N5 Ta0 2.120534 1_555
N5 Ta3 2.186722 1_555
N5 Ta6 2.194147 1_655
N5 Nb0 2.225075 1_555
N6 Ta2 2.099882 1_555
N6 Ta0 2.114706 1_565
N6 Ta6 2.181657 1_555
N6 Ta3 2.203709 1_555
N6 Nb0 2.216240 1_565
N7 Ta1 2.115672 1_555
N7 Nb0 2.182443 1_555
N7 Ta3 2.183611 1_555
N7 Ta6 2.201755 1_655
N8 Ta1 2.097268 1_555
N8 Ta6 2.143153 1_655
N8 Ta3 2.200299 1_545
N8 Nb0 2.220889 1_655
N9 Ta0 2.099374 1_554
N9 Ta2 2.122692 1_654
N9 Ta4 2.194485 1_555
N9 Ta5 2.196639 1_655
N9 Nb1 2.206704 1_655
N10 Ta1 2.107321 1_565
N10 Ta3 2.151642 1_555
N10 Ta6 2.178109 1_555
N10 Nb0 2.240963 1_565
N11 Ta2 2.099713 1_554
N11 Ta0 2.114701 1_554
N11 Ta5 2.181793 1_555
N11 Ta4 2.203788 1_555
N11 Nb1 2.216383 1_545
