# generated using pymatgen
data_TaBe3Nb2Ru3
_symmetry_space_group_name_H-M   'P 1'
_cell_length_a   7.28436239
_cell_length_b   7.28590428
_cell_length_c   7.28477478
_cell_angle_alpha   126.54430720
_cell_angle_beta   128.69486104
_cell_angle_gamma   77.24938877
_symmetry_Int_Tables_number   1
_chemical_formula_structural   TaBe3Nb2Ru3
_chemical_formula_sum   'Ta2 Be6 Nb4 Ru6'
_cell_volume   235.24306161
_cell_formula_units_Z   2
loop_
 _symmetry_equiv_pos_site_id
 _symmetry_equiv_pos_as_xyz
  1  'x, y, z'
loop_
 _atom_site_type_symbol
 _atom_site_label
 _atom_site_symmetry_multiplicity
 _atom_site_fract_x
 _atom_site_fract_y
 _atom_site_fract_z
 _atom_site_occupancy
  Ta  Ta0  1  0.74990855  0.09582270  0.84591772  1
  Ta  Ta1  1  0.25004428  0.09595377  0.34591869  1
  Be  Be0  1  0.74979325  0.50341373  0.25364923  1
  Be  Be1  1  0.25019232  0.50381613  0.75365210  1
  Be  Be2  1  0.66613294  0.16894270  0.50318070  1
  Be  Be3  1  0.33399145  0.83732102  0.50302479  1
  Be  Be4  1  0.16577624  0.16893686  0.00283472  1
  Be  Be5  1  0.83428295  0.83734207  0.00332083  1
  Nb  Nb0  1  0.95450758  0.91170038  0.45717626  1
  Nb  Nb1  1  0.04530196  0.50265401  0.95721070  1
  Nb  Nb2  1  0.54517892  0.50265324  0.45734818  1
  Nb  Nb3  1  0.45463999  0.91193478  0.95728558  1
  Ru  Ru0  1  0.49988234  0.75865184  0.25855930  1
  Ru  Ru1  1  0.99988019  0.75865039  0.75856082  1
  Ru  Ru2  1  0.87356362  0.24853649  0.37502027  1
  Ru  Ru3  1  0.12668238  0.50146834  0.37505823  1
  Ru  Ru4  1  0.37339408  0.24853796  0.87485385  1
  Ru  Ru5  1  0.62684697  0.50146558  0.87522603  1
loop_
_geom_bond_atom_site_label_1
_geom_bond_atom_site_label_2
_geom_bond_distance
_geom_bond_site_symmetry_2
Be0 Ru2 2.294047 1_555
Be0 Ru4 2.294697 1_554
Be0 Ru5 2.296492 1_554
Be0 Ru1 2.297266 1_555
Be0 Ru3 2.298126 1_655
Be0 Ru0 2.298129 1_555
Be0 Ta0 2.671867 1_554
Be0 Nb2 2.683730 1_555
Be0 Nb0 2.685570 1_555
Be1 Ru3 2.294394 1_555
Be1 Ru5 2.295989 1_555
Be1 Ru4 2.296176 1_555
Be1 Ru2 2.296822 1_455
Be1 Ru0 2.297244 1_556
Be1 Ru1 2.298116 1_455
Be1 Ta1 2.671900 1_555
Be1 Nb3 2.683232 1_555
Be1 Nb1 2.685950 1_555
Be2 Ru0 2.476706 1_545
Be2 Ru5 2.478130 1_555
Be2 Ru2 2.507287 1_555
Be2 Ta0 2.534855 1_555
Be2 Ta1 2.535001 1_555
Be2 Nb0 2.536148 1_545
Be2 Nb3 2.537573 1_544
Be2 Nb1 2.538697 1_655
Be2 Nb2 2.540218 1_555
Be3 Ru0 2.475830 1_555
Be3 Ru4 2.477662 1_565
Be3 Ru3 2.508317 1_555
Be3 Ta1 2.533623 1_565
Be3 Ta0 2.533675 1_565
Be3 Nb1 2.537761 1_554
Be3 Nb2 2.537891 1_555
Be3 Nb0 2.538990 1_455
Be3 Nb3 2.539844 1_555
Be4 Ru1 2.476662 1_444
Be4 Ru3 2.478090 1_555
Be4 Ru4 2.507367 1_554
Be4 Ta0 2.534701 1_454
Be4 Ta1 2.535029 1_555
Be4 Nb0 2.536525 1_444
Be4 Nb3 2.537281 1_544
Be4 Nb1 2.539343 1_554
Be4 Nb2 2.539724 1_555
Be5 Ru1 2.475787 1_554
Be5 Ru2 2.477549 1_565
Be5 Ru5 2.508465 1_554
Be5 Ta0 2.533531 1_564
Be5 Ta1 2.533608 1_665
Be5 Nb1 2.537223 1_654
Be5 Nb2 2.538531 1_554
Be5 Nb0 2.539217 1_555
Be5 Nb3 2.539609 1_554
Nb0 Ru4 2.719523 1_665
Nb0 Ru2 2.719910 1_565
Nb0 Ru5 2.830234 1_554
Nb0 Ru3 2.831695 1_655
Nb0 Ru1 2.831712 1_555
Nb0 Ru0 2.832229 1_555
Nb1 Ru5 2.716138 1_455
Nb1 Ru3 2.718426 1_556
Nb1 Ru4 2.831334 1_555
Nb1 Ru2 2.831493 1_455
Nb1 Ru0 2.832672 1_556
Nb1 Ru1 2.832973 1_455
Nb2 Ru3 2.715358 1_555
Nb2 Ru5 2.717642 1_555
Nb2 Ru2 2.833035 1_555
Nb2 Ru4 2.833220 1_554
Nb2 Ru1 2.833746 1_555
Nb2 Ru0 2.834146 1_555
Nb3 Ru2 2.718811 1_566
Nb3 Ru4 2.719224 1_565
Nb3 Ru3 2.831818 1_555
Nb3 Ru0 2.832796 1_556
Nb3 Ru5 2.833273 1_555
Nb3 Ru1 2.833388 1_455
Ru0 Ta1 2.714405 1_565
Ru0 Ta0 2.715392 1_565
Ru1 Ta0 2.714420 1_565
Ru1 Ta1 2.715385 1_666
Ru2 Ta0 2.810664 1_554
Ru2 Ta1 2.811086 1_655
Ru3 Ta1 2.810967 1_555
Ru3 Ta0 2.812753 1_454
Ru4 Ta1 2.810854 1_555
Ru4 Ta0 2.810905 1_555
Ru5 Ta0 2.811116 1_555
Ru5 Ta1 2.812552 1_555
