# generated using pymatgen
data_Li2TcSn8Rh
_symmetry_space_group_name_H-M   'P 1'
_cell_length_a   7.34582312
_cell_length_b   7.34582320
_cell_length_c   7.34582326
_cell_angle_alpha   125.79822433
_cell_angle_beta   125.79822091
_cell_angle_gamma   80.22003251
_symmetry_Int_Tables_number   1
_chemical_formula_structural   Li2TcSn8Rh
_chemical_formula_sum   'Li2 Tc1 Sn8 Rh1'
_cell_volume   251.66509866
_cell_formula_units_Z   1
loop_
 _symmetry_equiv_pos_site_id
 _symmetry_equiv_pos_as_xyz
  1  'x, y, z'
loop_
 _atom_site_type_symbol
 _atom_site_label
 _atom_site_symmetry_multiplicity
 _atom_site_fract_x
 _atom_site_fract_y
 _atom_site_fract_z
 _atom_site_occupancy
  Li  Li0  1  0.49750066  0.49750066  0.00000000  1
  Li  Li1  1  0.00249934  0.00249934  1.00000000  1
  Tc  Tc0  1  0.75000000  0.75000000  0.00000000  1
  Sn  Sn0  1  0.20093947  0.01854922  0.49423341  1
  Sn  Sn1  1  0.01854922  0.52431582  0.81760975  1
  Sn  Sn2  1  0.70670607  0.20093947  0.18239025  1
  Sn  Sn3  1  0.29906053  0.79329393  0.81760975  1
  Sn  Sn4  1  0.97568418  0.48145078  0.18239025  1
  Sn  Sn5  1  0.79329393  0.97568418  0.49423341  1
  Sn  Sn6  1  0.48145078  0.29906053  0.50576659  1
  Sn  Sn7  1  0.52431582  0.70670607  0.50576659  1
  Rh  Rh0  1  0.25000000  0.25000000  0.00000000  1
loop_
_geom_bond_atom_site_label_1
_geom_bond_atom_site_label_2
_geom_bond_distance
_geom_bond_site_symmetry_2
Li0 Rh0 2.780992 1_555
Li0 Tc0 2.837158 1_555
Li0 Sn5 2.947218 1_555
Li0 Sn6 2.947219 1_554
Li0 Sn4 2.947219 1_555
Li0 Sn3 2.947219 1_554
Li0 Sn0 2.961590 1_554
Li0 Sn7 2.961591 1_555
Li0 Sn1 2.961591 1_554
Li0 Sn2 2.961591 1_555
Li1 Rh0 2.780992 1_556
Li1 Tc0 2.837158 1_446
Li1 Sn7 2.947218 1_445
Li1 Sn1 2.947219 1_545
Li1 Sn2 2.947219 1_456
Li1 Sn0 2.947219 1_556
Li1 Sn6 2.961590 1_556
Li1 Sn4 2.961591 1_456
Li1 Sn3 2.961591 1_545
Li1 Sn5 2.961591 1_445
Sn0 Tc0 2.795993 1_445
Sn1 Tc0 2.795994 1_456
Sn2 Tc0 2.795994 1_545
Sn3 Tc0 2.795994 1_556
Sn4 Tc0 2.795994 1_555
Sn5 Tc0 2.795994 1_555
Sn6 Tc0 2.795993 1_556
Sn7 Tc0 2.795994 1_556
Rh0 Sn7 2.841812 1_555
Rh0 Sn5 2.841812 1_444
Rh0 Sn0 2.841812 1_554
Rh0 Sn3 2.841812 1_544
Rh0 Sn4 2.841812 1_455
Rh0 Sn2 2.841812 1_555
Rh0 Sn6 2.841812 1_555
Rh0 Sn1 2.841812 1_554
