# generated using pymatgen
data_Mg2Pd3(PtO4)3
_symmetry_space_group_name_H-M   'P 1'
_cell_length_a   3.16994818
_cell_length_b   7.08593776
_cell_length_c   9.91857076
_cell_angle_alpha   90.03165158
_cell_angle_beta   90.00000000
_cell_angle_gamma   90.00000000
_symmetry_Int_Tables_number   1
_chemical_formula_structural   Mg2Pd3(PtO4)3
_chemical_formula_sum   'Mg2 Pd3 Pt3 O12'
_cell_volume   222.79145273
_cell_formula_units_Z   1
loop_
 _symmetry_equiv_pos_site_id
 _symmetry_equiv_pos_as_xyz
  1  'x, y, z'
loop_
 _atom_site_type_symbol
 _atom_site_label
 _atom_site_symmetry_multiplicity
 _atom_site_fract_x
 _atom_site_fract_y
 _atom_site_fract_z
 _atom_site_occupancy
  Mg  Mg0  1  0.00000000  0.00373865  0.00149295  1
  Mg  Mg1  1  0.00000000  0.49623310  0.49851011  1
  Pd  Pd0  1  0.00000000  0.00062972  0.49904578  1
  Pd  Pd1  1  0.00000000  0.49934676  0.00092389  1
  Pd  Pd2  1  0.50000000  0.24932280  0.24966511  1
  Pt  Pt0  1  0.50000000  0.75067438  0.75031593  1
  Pt  Pt1  1  0.50000000  0.25065281  0.74965916  1
  Pt  Pt2  1  0.50000000  0.74935492  0.25035188  1
  O  O0  1  0.50000000  0.99883248  0.14874441  1
  O  O1  1  0.50000000  0.00081368  0.85256155  1
  O  O2  1  0.50000000  0.50070530  0.64745514  1
  O  O3  1  0.50000000  0.49971479  0.35128917  1
  O  O4  1  0.00000000  0.21001857  0.37236973  1
  O  O5  1  0.00000000  0.78945470  0.62794695  1
  O  O6  1  0.00000000  0.28755698  0.87250746  1
  O  O7  1  0.00000000  0.71210460  0.12768238  1
  O  O8  1  0.00000000  0.28860502  0.12668064  1
  O  O9  1  0.00000000  0.71194924  0.87300872  1
  O  O10  1  0.00000000  0.21372498  0.62657169  1
  O  O11  1  0.00000000  0.78656452  0.37321933  1
loop_
_geom_bond_atom_site_label_1
_geom_bond_atom_site_label_2
_geom_bond_distance
_geom_bond_site_symmetry_2
Mg0 O0 2.155583 1_445
Mg0 O0 2.155583 1_545
Mg0 O1 2.166707 1_554
Mg0 O1 2.166707 1_454
Mg0 O8 2.369289 1_555
Mg0 O6 2.384153 1_554
Mg0 O7 2.416575 1_545
Mg0 O9 2.428191 1_544
Mg1 O3 2.155235 1_455
Mg1 O3 2.155235 1_555
Mg1 O2 2.166928 1_455
Mg1 O2 2.166928 1_555
Mg1 O10 2.371398 1_555
Mg1 O4 2.382375 1_555
Mg1 O11 2.404060 1_555
Mg1 O5 2.441785 1_555
O0 Pt2 2.035359 1_555
O0 Pd2 2.037276 1_565
O1 Pt0 2.041600 1_545
O1 Pt1 2.043975 1_555
O2 Pt1 2.041833 1_555
O2 Pt0 2.043589 1_555
O3 Pt2 2.033075 1_555
O3 Pd2 2.040104 1_555
O4 Pd0 1.944770 1_555
O4 Pd2 2.017748 1_555
O4 Pd2 2.017748 1_455
O5 Pd0 1.968717 1_565
O5 Pt0 2.015230 1_555
O5 Pt0 2.015230 1_455
O6 Pd1 1.967843 1_556
O6 Pt1 2.016151 1_555
O6 Pt1 2.016151 1_455
O7 Pd1 1.962509 1_555
O7 Pt2 2.015399 1_555
O7 Pt2 2.015399 1_455
O8 Pd1 1.946236 1_555
O8 Pd2 2.019402 1_455
O8 Pd2 2.019402 1_555
O9 Pd1 1.970104 1_556
O9 Pt0 2.017113 1_455
O9 Pt0 2.017113 1_555
O10 Pd0 1.969222 1_555
O10 Pt1 2.017607 1_555
O10 Pt1 2.017607 1_455
O11 Pd0 1.963747 1_565
O11 Pt2 2.016547 1_455
O11 Pt2 2.016547 1_555
