# generated using pymatgen
data_Ca6SbIO12
_symmetry_space_group_name_H-M   'P 1'
_cell_length_a   5.84714823
_cell_length_b   5.59074061
_cell_length_c   9.79016364
_cell_angle_alpha   55.28599063
_cell_angle_beta   90.25381225
_cell_angle_gamma   89.97670241
_symmetry_Int_Tables_number   1
_chemical_formula_structural   Ca6SbIO12
_chemical_formula_sum   'Ca6 Sb1 I1 O12'
_cell_volume   263.06964822
_cell_formula_units_Z   1
loop_
 _symmetry_equiv_pos_site_id
 _symmetry_equiv_pos_as_xyz
  1  'x, y, z'
loop_
 _atom_site_type_symbol
 _atom_site_label
 _atom_site_symmetry_multiplicity
 _atom_site_fract_x
 _atom_site_fract_y
 _atom_site_fract_z
 _atom_site_occupancy
  Ca  Ca0  1  0.05170611  0.71946413  0.77194807  1
  Ca  Ca1  1  0.94829389  0.28053587  0.22805193  1
  Ca  Ca2  1  0.56066334  0.25892197  0.76289308  1
  Ca  Ca3  1  0.43933666  0.74107803  0.23710692  1
  Ca  Ca4  1  0.50000000  0.50000000  0.00000000  1
  Ca  Ca5  1  0.00000000  0.50000000  0.50000000  1
  Sb  Sb0  1  0.00000000  0.00000000  0.00000000  1
  I  I0  1  0.50000000  0.00000000  0.50000000  1
  O  O0  1  0.44596869  0.90429368  0.71521913  1
  O  O1  1  0.55403131  0.09570632  0.28478087  1
  O  O2  1  0.94440028  0.12475115  0.76677620  1
  O  O3  1  0.05559972  0.87524885  0.23322380  1
  O  O4  1  0.76422544  0.76183683  0.57540011  1
  O  O5  1  0.23577456  0.23816317  0.42459989  1
  O  O6  1  0.28248098  0.24117034  0.93495907  1
  O  O7  1  0.71751902  0.75882966  0.06504093  1
  O  O8  1  0.32571722  0.67499855  0.55469754  1
  O  O9  1  0.67428278  0.32500145  0.44530246  1
  O  O10  1  0.81797838  0.33588574  0.95517341  1
  O  O11  1  0.18202162  0.66411426  0.04482659  1
loop_
_geom_bond_atom_site_label_1
_geom_bond_atom_site_label_2
_geom_bond_distance
_geom_bond_site_symmetry_2
Ca0 O10 2.308035 1_455
Ca0 O2 2.323408 1_465
Ca0 O4 2.456869 1_455
Ca0 O0 2.459741 1_555
Ca0 O6 2.575963 1_555
Ca0 O11 2.617940 1_556
Ca0 O8 2.790100 1_555
Ca1 O11 2.308035 1_655
Ca1 O3 2.323408 1_645
Ca1 O5 2.456869 1_655
Ca1 O1 2.459741 1_555
Ca1 O7 2.575963 1_555
Ca1 O10 2.617940 1_554
Ca1 O9 2.790100 1_555
Ca2 O6 2.308096 1_555
Ca2 O2 2.358814 1_555
Ca2 O0 2.377120 1_545
Ca2 O8 2.454632 1_555
Ca2 O4 2.614459 1_555
Ca2 O10 2.624970 1_555
Ca2 O7 2.821797 1_546
Ca2 O9 2.992587 1_555
Ca3 O7 2.308096 1_555
Ca3 O3 2.358814 1_555
Ca3 O1 2.377120 1_565
Ca3 O9 2.454632 1_555
Ca3 O5 2.614459 1_555
Ca3 O11 2.624970 1_555
Ca3 O6 2.821797 1_564
Ca3 O8 2.992587 1_555
Ca4 O11 2.226157 1_555
Ca4 O10 2.226157 1_554
Ca4 O6 2.271750 1_554
Ca4 O7 2.271750 1_555
Ca4 O1 2.407503 1_555
Ca4 O0 2.407503 1_554
Ca5 O2 2.257370 1_455
Ca5 O3 2.257370 1_555
Ca5 O8 2.336740 1_555
Ca5 O9 2.336740 1_455
Ca5 O4 2.413812 1_455
Ca5 O5 2.413812 1_555
I0 O9 1.877459 1_555
I0 O8 1.877459 1_545
I0 O0 1.883521 1_545
I0 O1 1.883521 1_555
I0 O4 1.890367 1_545
I0 O5 1.890367 1_555
O2 Sb0 1.996256 1_656
O3 Sb0 1.996256 1_565
O6 Sb0 1.996206 1_556
O7 Sb0 1.996206 1_665
O10 Sb0 1.976682 1_656
O11 Sb0 1.976682 1_565
