# generated using pymatgen
data_Y20Cd3Co2Hg3
_symmetry_space_group_name_H-M   'P 1'
_cell_length_a   9.65766695
_cell_length_b   9.65765130
_cell_length_c   9.63313705
_cell_angle_alpha   90.00000000
_cell_angle_beta   90.00000000
_cell_angle_gamma   120.00011061
_symmetry_Int_Tables_number   1
_chemical_formula_structural   Y20Cd3Co2Hg3
_chemical_formula_sum   'Y20 Cd3 Co2 Hg3'
_cell_volume   778.11113779
_cell_formula_units_Z   1
loop_
 _symmetry_equiv_pos_site_id
 _symmetry_equiv_pos_as_xyz
  1  'x, y, z'
loop_
 _atom_site_type_symbol
 _atom_site_label
 _atom_site_symmetry_multiplicity
 _atom_site_fract_x
 _atom_site_fract_y
 _atom_site_fract_z
 _atom_site_occupancy
  Y  Y0  1  0.00000000  0.00000000  0.51475207  1
  Y  Y1  1  0.00000000  0.00000000  0.98524793  1
  Y  Y2  1  0.54302459  0.45697441  0.25000000  1
  Y  Y3  1  0.54302259  0.08604818  0.25000000  1
  Y  Y4  1  0.91394982  0.45697441  0.25000000  1
  Y  Y5  1  0.45714775  0.54285425  0.75000000  1
  Y  Y6  1  0.45714675  0.91429350  0.75000000  1
  Y  Y7  1  0.08570650  0.54285325  0.75000000  1
  Y  Y8  1  0.21107502  0.78892398  0.43479630  1
  Y  Y9  1  0.21107602  0.42215005  0.43479730  1
  Y  Y10  1  0.57784995  0.78892498  0.43479630  1
  Y  Y11  1  0.78910569  0.21089431  0.56665999  1
  Y  Y12  1  0.78910569  0.57821237  0.56665999  1
  Y  Y13  1  0.42178863  0.21089431  0.56665899  1
  Y  Y14  1  0.78910569  0.21089431  0.93334001  1
  Y  Y15  1  0.78910569  0.57821237  0.93334001  1
  Y  Y16  1  0.42178863  0.21089431  0.93334101  1
  Y  Y17  1  0.21107502  0.78892398  0.06520370  1
  Y  Y18  1  0.21107602  0.42215005  0.06520270  1
  Y  Y19  1  0.57784995  0.78892498  0.06520370  1
  Cd  Cd0  1  0.88790038  0.11209962  0.25000000  1
  Cd  Cd1  1  0.88789938  0.77579876  0.25000000  1
  Cd  Cd2  1  0.22419824  0.11210062  0.25000000  1
  Co  Co0  1  0.33333200  0.66666800  0.25000000  1
  Co  Co1  1  0.66666700  0.33333300  0.75000000  1
  Hg  Hg0  1  0.12262380  0.87737820  0.75000000  1
  Hg  Hg1  1  0.12262380  0.24524561  0.75000000  1
  Hg  Hg2  1  0.75475439  0.87737820  0.75000000  1
loop_
_geom_bond_atom_site_label_1
_geom_bond_atom_site_label_2
_geom_bond_distance
_geom_bond_site_symmetry_2
Cd0 Y0 3.165550 1_655
Cd0 Y1 3.165550 1_654
Cd0 Y4 3.212289 1_555
Cd0 Y3 3.212315 1_555
Cd0 Cd2 3.247848 1_655
Cd0 Cd1 3.247872 1_545
Cd0 Y11 3.469321 1_555
Cd0 Y14 3.469321 1_554
Cd0 Y10 3.539882 1_545
Cd0 Y19 3.539882 1_545
Cd0 Y9 3.539892 1_655
Cd0 Y18 3.539892 1_655
Cd1 Y0 3.165557 1_665
Cd1 Y1 3.165557 1_664
Cd1 Y2 3.212283 1_555
Cd1 Y4 3.212286 1_555
Cd1 Cd2 3.247869 1_665
Cd1 Y12 3.469307 1_555
Cd1 Y15 3.469307 1_554
Cd1 Y10 3.539889 1_555
Cd1 Y19 3.539889 1_555
Cd1 Y8 3.539893 1_655
Cd1 Y17 3.539893 1_655
Cd2 Y0 3.165544 1_555
Cd2 Y1 3.165544 1_554
Cd2 Y2 3.212285 1_555
Cd2 Y3 3.212301 1_555
Cd2 Y16 3.469316 1_554
Cd2 Y13 3.469316 1_555
Cd2 Y9 3.539872 1_555
Cd2 Y18 3.539872 1_555
Cd2 Y8 3.539905 1_545
Cd2 Y17 3.539905 1_545
Co0 Y8 2.711317 1_555
Co0 Y17 2.711317 1_555
Co0 Y10 2.711347 1_555
Co0 Y19 2.711347 1_555
Co0 Y9 2.711351 1_555
Co0 Y18 2.711351 1_555
Co1 Y14 2.704435 1_555
Co1 Y11 2.704435 1_555
Co1 Y15 2.704443 1_555
Co1 Y12 2.704443 1_555
Co1 Y13 2.704446 1_555
Co1 Y16 2.704446 1_555
Hg0 Y1 3.056615 1_565
Hg0 Y0 3.056615 1_565
Hg0 Y6 3.068028 1_555
Hg0 Y7 3.068034 1_555
Hg0 Y17 3.377712 1_556
Hg0 Y8 3.377712 1_555
Hg0 Y13 3.540548 1_565
Hg0 Y16 3.540548 1_565
Hg0 Y15 3.540557 1_455
Hg0 Y12 3.540557 1_455
Hg1 Y1 3.056612 1_555
Hg1 Y0 3.056612 1_555
Hg1 Y5 3.068031 1_555
Hg1 Y7 3.068036 1_555
Hg1 Y18 3.377698 1_556
Hg1 Y9 3.377698 1_555
Hg1 Y13 3.540555 1_555
Hg1 Y16 3.540555 1_555
Hg1 Y14 3.540567 1_455
Hg1 Y11 3.540567 1_455
Hg2 Y1 3.056614 1_665
Hg2 Y0 3.056614 1_665
Hg2 Y5 3.068022 1_555
Hg2 Y6 3.068029 1_555
Hg2 Y19 3.377708 1_556
Hg2 Y10 3.377708 1_555
Hg2 Y14 3.540545 1_565
Hg2 Y11 3.540545 1_565
Hg2 Y15 3.540555 1_555
Hg2 Y12 3.540555 1_555
