# generated using pymatgen
data_CsLi2(ZnBi)2
_symmetry_space_group_name_H-M   'P 1'
_cell_length_a   10.59144945
_cell_length_b   10.59145008
_cell_length_c   10.59145098
_cell_angle_alpha   25.20373048
_cell_angle_beta   25.20372172
_cell_angle_gamma   25.20372892
_symmetry_Int_Tables_number   1
_chemical_formula_structural   CsLi2(ZnBi)2
_chemical_formula_sum   'Cs1 Li2 Zn2 Bi2'
_cell_volume   189.59563066
_cell_formula_units_Z   1
loop_
 _symmetry_equiv_pos_site_id
 _symmetry_equiv_pos_as_xyz
  1  'x, y, z'
loop_
 _atom_site_type_symbol
 _atom_site_label
 _atom_site_symmetry_multiplicity
 _atom_site_fract_x
 _atom_site_fract_y
 _atom_site_fract_z
 _atom_site_occupancy
  Cs  Cs0  1  0.00000000  0.00000000  0.00000000  1
  Li  Li0  1  0.85566580  0.85566580  0.85566580  1
  Li  Li1  1  0.14433420  0.14433420  0.14433420  1
  Zn  Zn0  1  0.54215737  0.54215737  0.54215737  1
  Zn  Zn1  1  0.45784263  0.45784263  0.45784263  1
  Bi  Bi0  1  0.75988060  0.75988060  0.75988060  1
  Bi  Bi1  1  0.24011940  0.24011940  0.24011940  1
loop_
_geom_bond_atom_site_label_1
_geom_bond_atom_site_label_2
_geom_bond_distance
_geom_bond_site_symmetry_2
Li0 Zn0 2.737020 1_655
Li0 Zn0 2.737021 1_556
Li0 Zn0 2.737021 1_565
Li1 Zn1 2.737020 1_455
Li1 Zn1 2.737021 1_554
Li1 Zn1 2.737021 1_545
Zn0 Zn1 2.592637 1_555
Bi0 Zn1 2.836497 1_655
Bi0 Zn1 2.836498 1_556
Bi0 Zn1 2.836498 1_565
Bi0 Li0 2.945348 1_555
Bi0 Li1 3.096870 1_665
Bi0 Li1 3.096870 1_566
Bi0 Li1 3.096871 1_656
Bi0 Cs0 3.916023 1_566
Bi0 Cs0 3.916024 1_656
Bi0 Cs0 3.916024 1_665
Bi1 Zn0 2.836497 1_455
Bi1 Zn0 2.836498 1_554
Bi1 Zn0 2.836498 1_545
Bi1 Li1 2.945348 1_555
Bi1 Li0 3.096870 1_445
Bi1 Li0 3.096870 1_544
Bi1 Li0 3.096871 1_454
Bi1 Cs0 3.916023 1_655
Bi1 Cs0 3.916024 1_565
Bi1 Cs0 3.916024 1_556
