# generated using pymatgen
data_ErCu5
_symmetry_space_group_name_H-M   'P 1'
_cell_length_a   4.89676618
_cell_length_b   4.89676632
_cell_length_c   4.89676557
_cell_angle_alpha   59.99996951
_cell_angle_beta   59.99998546
_cell_angle_gamma   60.00001603
_symmetry_Int_Tables_number   1
_chemical_formula_structural   ErCu5
_chemical_formula_sum   'Er1 Cu5'
_cell_volume   83.02578032
_cell_formula_units_Z   1
loop_
 _symmetry_equiv_pos_site_id
 _symmetry_equiv_pos_as_xyz
  1  'x, y, z'
loop_
 _atom_site_type_symbol
 _atom_site_label
 _atom_site_symmetry_multiplicity
 _atom_site_fract_x
 _atom_site_fract_y
 _atom_site_fract_z
 _atom_site_occupancy
  Er  Er0  1  0.00000000  0.00000000  0.00000000  1
  Cu  Cu0  1  0.25000000  0.25000000  0.25000000  1
  Cu  Cu1  1  0.62402700  0.62402600  0.62402600  1
  Cu  Cu2  1  0.62402600  0.62402700  0.12791999  1
  Cu  Cu3  1  0.12791999  0.62402700  0.62402700  1
  Cu  Cu4  1  0.62402600  0.12791999  0.62402700  1
loop_
_geom_bond_atom_site_label_1
_geom_bond_atom_site_label_2
_geom_bond_distance
_geom_bond_site_symmetry_2
Cu0 Cu1 2.868971 1_455
Cu0 Cu3 2.868972 1_545
Cu0 Cu3 2.868972 1_554
Cu0 Cu2 2.868973 1_555
Cu0 Cu4 2.868973 1_554
Cu0 Cu4 2.868973 1_555
Cu0 Cu1 2.868973 1_554
Cu0 Cu2 2.868974 1_545
Cu0 Cu1 2.868975 1_545
Cu0 Cu4 2.868976 1_455
Cu0 Cu3 2.868978 1_555
Cu0 Cu2 2.868978 1_455
Cu0 Er0 2.998643 1_556
Cu0 Er0 2.998645 1_565
Cu0 Er0 2.998645 1_555
Cu0 Er0 2.998645 1_655
Cu1 Cu2 2.429315 1_555
Cu1 Cu3 2.429315 1_555
Cu1 Cu4 2.429315 1_555
Cu1 Cu2 2.467451 1_556
Cu1 Cu3 2.467451 1_655
Cu1 Cu4 2.467451 1_565
Cu1 Er0 2.873037 1_665
Cu1 Er0 2.873038 1_656
Cu1 Er0 2.873043 1_566
Cu2 Cu3 2.429317 1_555
Cu2 Cu4 2.429319 1_555
Cu2 Cu4 2.467445 1_564
Cu2 Cu3 2.467448 1_654
Cu2 Er0 2.873037 1_565
Cu2 Er0 2.873040 1_665
Cu2 Er0 2.873041 1_655
Cu3 Cu4 2.429318 1_555
Cu3 Cu4 2.467449 1_465
Cu3 Er0 2.873037 1_566
Cu3 Er0 2.873039 1_556
Cu3 Er0 2.873039 1_565
Cu4 Er0 2.873035 1_556
Cu4 Er0 2.873040 1_655
Cu4 Er0 2.873040 1_656
