# generated using pymatgen
data_Ba9Na(Si2Bi)2
_symmetry_space_group_name_H-M   'P 1'
_cell_length_a   10.41455281
_cell_length_b   10.41455424
_cell_length_c   10.41455361
_cell_angle_alpha   130.66835953
_cell_angle_beta   130.66835754
_cell_angle_gamma   72.34052448
_symmetry_Int_Tables_number   1
_chemical_formula_structural   Ba9Na(Si2Bi)2
_chemical_formula_sum   'Ba9 Na1 Si4 Bi2'
_cell_volume   635.25472809
_cell_formula_units_Z   1
loop_
 _symmetry_equiv_pos_site_id
 _symmetry_equiv_pos_as_xyz
  1  'x, y, z'
loop_
 _atom_site_type_symbol
 _atom_site_label
 _atom_site_symmetry_multiplicity
 _atom_site_fract_x
 _atom_site_fract_y
 _atom_site_fract_z
 _atom_site_occupancy
  Ba  Ba0  1  0.53898907  0.05837180  0.86372100  1
  Ba  Ba1  1  0.19465180  0.67526808  0.13627900  1
  Ba  Ba2  1  0.05837180  0.19465180  0.51938373  1
  Ba  Ba3  1  0.67526808  0.53898907  0.48061627  1
  Ba  Ba4  1  0.46101093  0.94162820  0.13627900  1
  Ba  Ba5  1  0.80534820  0.32473192  0.86372100  1
  Ba  Ba6  1  0.94162820  0.80534820  0.48061627  1
  Ba  Ba7  1  0.32473192  0.46101093  0.51938373  1
  Ba  Ba8  1  0.00000000  0.00000000  0.00000000  1
  Na  Na0  1  0.50000000  0.50000000  0.00000000  1
  Si  Si0  1  0.90462149  0.39424659  0.29886908  1
  Si  Si1  1  0.09537851  0.60575341  0.70113092  1
  Si  Si2  1  0.39424659  0.09537851  0.48962410  1
  Si  Si3  1  0.60575341  0.90462149  0.51037590  1
  Bi  Bi0  1  0.23774092  0.23774092  0.00000000  1
  Bi  Bi1  1  0.76225908  0.76225908  1.00000000  1
loop_
_geom_bond_atom_site_label_1
_geom_bond_atom_site_label_2
_geom_bond_distance
_geom_bond_site_symmetry_2
Ba0 Si2 3.398536 1_555
Ba0 Si3 3.401293 1_545
Ba0 Si0 3.493133 1_556
Ba0 Bi1 3.739543 1_545
Ba0 Bi0 3.760218 1_556
Ba1 Si3 3.398517 1_555
Ba1 Si2 3.401301 1_565
Ba1 Si1 3.493139 1_554
Ba1 Bi1 3.739552 1_454
Ba1 Bi0 3.760218 1_555
Ba2 Si1 3.398524 1_555
Ba2 Si0 3.401293 1_455
Ba2 Si2 3.493144 1_555
Ba2 Bi1 3.739550 1_444
Ba2 Bi0 3.760215 1_556
Ba3 Si0 3.398511 1_555
Ba3 Si1 3.401302 1_655
Ba3 Si3 3.493124 1_555
Ba3 Bi1 3.739552 1_555
Ba3 Bi0 3.760218 1_555
Ba4 Si3 3.398536 1_555
Ba4 Si2 3.401293 1_565
Ba4 Si1 3.493133 1_554
Ba4 Bi0 3.739543 1_565
Ba4 Bi1 3.760218 1_554
Ba5 Si2 3.398517 1_555
Ba5 Si3 3.401301 1_545
Ba5 Si0 3.493139 1_556
Ba5 Bi0 3.739552 1_656
Ba5 Bi1 3.760218 1_555
Ba6 Si0 3.398524 1_555
Ba6 Si1 3.401293 1_655
Ba6 Si3 3.493144 1_555
Ba6 Bi0 3.739550 1_666
Ba6 Bi1 3.760215 1_554
Ba7 Si1 3.398511 1_555
Ba7 Si0 3.401302 1_455
Ba7 Si2 3.493124 1_555
Ba7 Bi0 3.739552 1_555
Ba7 Bi1 3.760218 1_555
Ba8 Si2 3.525848 1_555
Ba8 Si3 3.525848 1_444
Ba8 Si1 3.525857 1_544
Ba8 Si0 3.525857 1_455
Ba8 Bi0 3.997529 1_555
Ba8 Bi1 3.997529 1_444
Si0 Si1 2.475802 1_655
Si2 Si3 2.475815 1_545
