# generated using pymatgen
data_SrY(ZnGa)2
_symmetry_space_group_name_H-M   'P 1'
_cell_length_a   4.46927698
_cell_length_b   4.46927659
_cell_length_c   7.73889266
_cell_angle_alpha   90.00000000
_cell_angle_beta   90.00000000
_cell_angle_gamma   120.00001006
_symmetry_Int_Tables_number   1
_chemical_formula_structural   SrY(ZnGa)2
_chemical_formula_sum   'Sr1 Y1 Zn2 Ga2'
_cell_volume   133.87020046
_cell_formula_units_Z   1
loop_
 _symmetry_equiv_pos_site_id
 _symmetry_equiv_pos_as_xyz
  1  'x, y, z'
loop_
 _atom_site_type_symbol
 _atom_site_label
 _atom_site_symmetry_multiplicity
 _atom_site_fract_x
 _atom_site_fract_y
 _atom_site_fract_z
 _atom_site_occupancy
  Sr  Sr0  1  0.00000000  0.00000000  0.50000000  1
  Y  Y0  1  0.00000000  0.00000000  0.00000000  1
  Zn  Zn0  1  0.33333300  0.66666700  0.79833216  1
  Zn  Zn1  1  0.66666700  0.33333300  0.20166784  1
  Ga  Ga0  1  0.33333300  0.66666700  0.20573865  1
  Ga  Ga1  1  0.66666700  0.33333300  0.79426135  1
loop_
_geom_bond_atom_site_label_1
_geom_bond_atom_site_label_2
_geom_bond_distance
_geom_bond_site_symmetry_2
Sr0 Zn0 3.462442 1_545
Sr0 Zn1 3.462442 1_455
Sr0 Zn0 3.462445 1_555
Sr0 Zn1 3.462445 1_445
Sr0 Zn0 3.462445 1_445
Sr0 Zn1 3.462445 1_555
Y0 Zn1 3.015605 1_455
Y0 Zn0 3.015605 1_544
Y0 Zn1 3.015608 1_445
Y0 Zn0 3.015608 1_554
Y0 Zn1 3.015608 1_555
Y0 Zn0 3.015608 1_444
Ga0 Zn1 2.580528 1_565
Ga0 Zn1 2.580528 1_455
Ga0 Zn1 2.580536 1_555
Ga0 Y0 3.032029 1_565
Ga0 Y0 3.032032 1_555
Ga0 Y0 3.032032 1_665
Ga0 Zn0 3.152875 1_554
Ga0 Sr0 3.441516 1_565
Ga0 Sr0 3.441518 1_555
Ga0 Sr0 3.441519 1_665
Ga1 Zn0 2.580528 1_545
Ga1 Zn0 2.580528 1_655
Ga1 Zn0 2.580536 1_555
Ga1 Y0 3.032029 1_656
Ga1 Y0 3.032032 1_666
Ga1 Y0 3.032032 1_556
Ga1 Zn1 3.152875 1_556
Ga1 Sr0 3.441516 1_655
Ga1 Sr0 3.441518 1_665
Ga1 Sr0 3.441519 1_555
