# generated using pymatgen
data_CsNa3(In2Se3)2
_symmetry_space_group_name_H-M   'P 1'
_cell_length_a   7.33538991
_cell_length_b   7.33538928
_cell_length_c   9.22312920
_cell_angle_alpha   82.25543718
_cell_angle_beta   82.25543250
_cell_angle_gamma   120.00907614
_symmetry_Int_Tables_number   1
_chemical_formula_structural   CsNa3(In2Se3)2
_chemical_formula_sum   'Cs1 Na3 In4 Se6'
_cell_volume   413.84299672
_cell_formula_units_Z   1
loop_
 _symmetry_equiv_pos_site_id
 _symmetry_equiv_pos_as_xyz
  1  'x, y, z'
loop_
 _atom_site_type_symbol
 _atom_site_label
 _atom_site_symmetry_multiplicity
 _atom_site_fract_x
 _atom_site_fract_y
 _atom_site_fract_z
 _atom_site_occupancy
  Cs  Cs0  1  0.50000000  0.50000000  0.50000000  1
  Na  Na0  1  0.66114041  0.33885959  0.00000000  1
  Na  Na1  1  0.33885959  0.66114041  1.00000000  1
  Na  Na2  1  0.00000000  0.00000000  0.00000000  1
  In  In0  1  0.88605306  0.21895074  0.34192639  1
  In  In1  1  0.78104926  0.11394694  0.65807361  1
  In  In2  1  0.21895074  0.88605306  0.34192639  1
  In  In3  1  0.11394694  0.78104926  0.65807361  1
  Se  Se0  1  0.40246781  0.04521802  0.79142044  1
  Se  Se1  1  0.04521802  0.40246781  0.79142044  1
  Se  Se2  1  0.95478198  0.59753219  0.20857956  1
  Se  Se3  1  0.75792433  0.75792433  0.79477604  1
  Se  Se4  1  0.59753219  0.95478198  0.20857956  1
  Se  Se5  1  0.24207567  0.24207567  0.20522396  1
loop_
_geom_bond_atom_site_label_1
_geom_bond_atom_site_label_2
_geom_bond_distance
_geom_bond_site_symmetry_2
Cs0 Se0 3.680062 1_555
Cs0 Se4 3.680062 1_555
Cs0 Se1 3.680062 1_555
Cs0 Se2 3.680062 1_555
Cs0 Se3 3.707141 1_555
Cs0 Se5 3.707141 1_555
Na0 Se4 2.972958 1_545
Na0 Se1 2.972959 1_654
Na0 Se3 3.069678 1_554
Na0 Se5 3.069678 1_555
Na0 Se0 3.154868 1_554
Na0 Se2 3.154868 1_555
Na1 Se0 2.972958 1_565
Na1 Se2 2.972959 1_456
Na1 Se5 3.069678 1_556
Na1 Se3 3.069678 1_555
Na1 Se4 3.154868 1_556
Na1 Se1 3.154868 1_555
Na2 Se5 2.923484 1_555
Na2 Se3 2.923484 1_444
Na2 Se2 3.137597 1_445
Na2 Se1 3.137597 1_554
Na2 Se4 3.137598 1_445
Na2 Se0 3.137598 1_554
In0 Se4 2.643550 1_545
In0 Se2 2.643989 1_555
In0 Se5 2.655282 1_655
In1 Se1 2.643550 1_655
In1 Se0 2.643989 1_555
In1 Se3 2.655282 1_545
In2 Se2 2.643550 1_455
In2 Se4 2.643989 1_555
In2 Se5 2.655282 1_565
In3 Se0 2.643550 1_565
In3 Se1 2.643989 1_555
In3 Se3 2.655282 1_455
