# generated using pymatgen
data_Zr7(NO2)4
_symmetry_space_group_name_H-M   'P 1'
_cell_length_a   6.23137700
_cell_length_b   6.28890688
_cell_length_c   6.48686669
_cell_angle_alpha   100.48192078
_cell_angle_beta   99.86744435
_cell_angle_gamma   99.13372203
_symmetry_Int_Tables_number   1
_chemical_formula_structural   Zr7(NO2)4
_chemical_formula_sum   'Zr7 N4 O8'
_cell_volume   241.49229616
_cell_formula_units_Z   1
loop_
 _symmetry_equiv_pos_site_id
 _symmetry_equiv_pos_as_xyz
  1  'x, y, z'
loop_
 _atom_site_type_symbol
 _atom_site_label
 _atom_site_symmetry_multiplicity
 _atom_site_fract_x
 _atom_site_fract_y
 _atom_site_fract_z
 _atom_site_occupancy
  Zr  Zr0  1  0.27887400  0.12684500  0.61928600  1
  Zr  Zr1  1  0.00000000  0.00000000  0.00000000  1
  Zr  Zr2  1  0.84079900  0.38500300  0.67823700  1
  Zr  Zr3  1  0.60453800  0.32447900  0.13437700  1
  Zr  Zr4  1  0.39546200  0.67552100  0.86562300  1
  Zr  Zr5  1  0.15920100  0.61499700  0.32176300  1
  Zr  Zr6  1  0.72112600  0.87315500  0.38071400  1
  N  N0  1  0.93113600  0.07527800  0.68271800  1
  N  N1  1  0.56557500  0.40609100  0.81827200  1
  N  N2  1  0.43442500  0.59390900  0.18172800  1
  N  N3  1  0.06886400  0.92472200  0.31728200  1
  O  O0  1  0.32322600  0.08245000  0.95237100  1
  O  O1  1  0.57765500  0.16904000  0.40706100  1
  O  O2  1  0.94398000  0.32805200  0.10820600  1
  O  O3  1  0.18420200  0.42875100  0.56952100  1
  O  O4  1  0.81579800  0.57124900  0.43047900  1
  O  O5  1  0.05602000  0.67194800  0.89179400  1
  O  O6  1  0.42234500  0.83096000  0.59293900  1
  O  O7  1  0.67677400  0.91755000  0.04762900  1
loop_
_geom_bond_atom_site_label_1
_geom_bond_atom_site_label_2
_geom_bond_distance
_geom_bond_site_symmetry_2
N0 Zr2 2.115391 1_555
N0 Zr1 2.181886 1_656
N0 Zr6 2.203041 1_545
N0 Zr0 2.258523 1_655
N1 Zr2 2.084802 1_555
N1 Zr4 2.140456 1_555
N1 Zr3 2.186072 1_556
N1 Zr0 2.308836 1_555
N2 Zr5 2.084802 1_555
N2 Zr3 2.140456 1_555
N2 Zr4 2.186072 1_554
N2 Zr6 2.308836 1_555
N3 Zr5 2.115391 1_555
N3 Zr1 2.181886 1_565
N3 Zr0 2.203041 1_565
N3 Zr6 2.258523 1_455
O0 Zr1 2.088325 1_556
O0 Zr3 2.138526 1_556
O0 Zr0 2.205036 1_555
O0 Zr4 2.645188 1_545
O1 Zr6 2.180790 1_545
O1 Zr3 2.188892 1_555
O1 Zr2 2.250074 1_555
O1 Zr0 2.507302 1_555
O2 Zr3 2.147727 1_555
O2 Zr1 2.157917 1_655
O2 Zr5 2.158584 1_655
O3 Zr0 2.137870 1_555
O3 Zr5 2.153191 1_555
O3 Zr4 2.287133 1_555
O3 Zr2 2.356482 1_455
O4 Zr6 2.137870 1_555
O4 Zr2 2.153191 1_555
O4 Zr3 2.287133 1_555
O4 Zr5 2.356482 1_655
O5 Zr4 2.147727 1_555
O5 Zr1 2.157917 1_566
O5 Zr2 2.158584 1_455
O6 Zr0 2.180790 1_565
O6 Zr4 2.188892 1_555
O6 Zr5 2.250074 1_555
O6 Zr6 2.507302 1_555
O7 Zr1 2.088325 1_665
O7 Zr4 2.138526 1_554
O7 Zr6 2.205036 1_555
O7 Zr3 2.645188 1_565
