# generated using pymatgen
data_Nb3Si3MoRu2
_symmetry_space_group_name_H-M   'P 1'
_cell_length_a   7.49308689
_cell_length_b   7.49308607
_cell_length_c   7.49308731
_cell_angle_alpha   126.69653716
_cell_angle_beta   124.12466880
_cell_angle_gamma   80.87596792
_symmetry_Int_Tables_number   1
_chemical_formula_structural   Nb3Si3MoRu2
_chemical_formula_sum   'Nb6 Si6 Mo2 Ru4'
_cell_volume   269.17511271
_cell_formula_units_Z   2
loop_
 _symmetry_equiv_pos_site_id
 _symmetry_equiv_pos_as_xyz
  1  'x, y, z'
loop_
 _atom_site_type_symbol
 _atom_site_label
 _atom_site_symmetry_multiplicity
 _atom_site_fract_x
 _atom_site_fract_y
 _atom_site_fract_z
 _atom_site_occupancy
  Nb  Nb0  1  0.55894913  0.09420682  0.03525869  1
  Nb  Nb1  1  0.44105087  0.47630956  0.53525869  1
  Nb  Nb2  1  0.96117222  0.48899731  0.02782509  1
  Nb  Nb3  1  0.03882778  0.06665286  0.52782509  1
  Nb  Nb4  1  0.75285916  0.91963943  0.66678027  1
  Nb  Nb5  1  0.24714084  0.91392111  0.16678027  1
  Si  Si0  1  0.77922958  0.55103372  0.27180414  1
  Si  Si1  1  0.22077042  0.49257456  0.77180414  1
  Si  Si2  1  0.33467973  0.81770412  0.49290985  1
  Si  Si3  1  0.66532027  0.15822912  0.48302340  1
  Si  Si4  1  0.82479427  0.81770412  0.98302340  1
  Si  Si5  1  0.17520573  0.15822912  0.99290985  1
  Mo  Mo0  1  0.50000000  0.25100278  0.75100278  1
  Mo  Mo1  1  1.00000000  0.25100278  0.25100278  1
  Ru  Ru0  1  0.16029833  0.74743860  0.65535552  1
  Ru  Ru1  1  0.83970167  0.49505719  0.58714027  1
  Ru  Ru2  1  0.59208309  0.74743860  0.08714027  1
  Ru  Ru3  1  0.40791691  0.49505719  0.15535552  1
loop_
_geom_bond_atom_site_label_1
_geom_bond_atom_site_label_2
_geom_bond_distance
_geom_bond_site_symmetry_2
Nb0 Si4 2.647746 1_544
Nb0 Si2 2.647751 1_544
Nb0 Si3 2.705469 1_555
Nb0 Si5 2.705476 1_554
Nb0 Ru2 2.803325 1_545
Nb0 Ru0 2.803329 1_544
Nb0 Ru1 2.818933 1_555
Nb0 Ru3 2.818936 1_555
Nb0 Si0 2.973451 1_555
Nb1 Si5 2.647751 1_554
Nb1 Si3 2.647755 1_555
Nb1 Si4 2.705475 1_555
Nb1 Si2 2.705476 1_555
Nb1 Ru1 2.803333 1_555
Nb1 Ru3 2.803333 1_555
Nb1 Ru0 2.818930 1_555
Nb1 Ru2 2.818931 1_556
Nb1 Si1 2.973444 1_555
Nb2 Si0 2.645111 1_555
Nb2 Si2 2.651136 1_655
Nb2 Si4 2.651139 1_554
Nb2 Si3 2.686735 1_554
Nb2 Si5 2.686735 1_654
Nb2 Ru3 2.920312 1_655
Nb2 Ru1 2.920312 1_554
Nb3 Si1 2.645111 1_555
Nb3 Si3 2.651132 1_455
Nb3 Si5 2.651140 1_555
Nb3 Si2 2.686730 1_545
Nb3 Si4 2.686736 1_444
Nb3 Ru0 2.920311 1_545
Nb3 Ru2 2.920312 1_445
Nb4 Si5 2.660637 1_665
Nb4 Si3 2.660638 1_565
Nb4 Si4 2.662450 1_555
Nb4 Si2 2.662457 1_555
Nb4 Si0 2.672127 1_555
Nb4 Ru1 2.900200 1_555
Nb4 Ru3 2.900200 1_555
Nb5 Si4 2.660637 1_454
Nb5 Si2 2.660640 1_555
Nb5 Si5 2.662449 1_564
Nb5 Si3 2.662456 1_565
Nb5 Si1 2.672127 1_554
Nb5 Ru2 2.900200 1_555
Nb5 Ru0 2.900201 1_554
Mo0 Si1 2.550704 1_555
Mo0 Si0 2.550704 1_556
Mo0 Si2 2.626643 1_545
Mo0 Si3 2.626648 1_555
Mo0 Nb1 2.807627 1_555
Mo0 Nb0 2.807633 1_556
Mo0 Nb4 2.851310 1_545
Mo0 Nb5 2.851311 1_545
Mo0 Ru2 2.885075 1_556
Mo0 Ru3 2.885076 1_556
Mo0 Nb3 2.985830 1_555
Mo0 Nb2 2.985830 1_556
Mo1 Si0 2.550704 1_555
Mo1 Si1 2.550704 1_655
Mo1 Si4 2.626641 1_544
Mo1 Si5 2.626641 1_654
Mo1 Nb1 2.807627 1_655
Mo1 Nb0 2.807629 1_555
Mo1 Nb5 2.851310 1_645
Mo1 Nb4 2.851311 1_544
Mo1 Ru0 2.885075 1_655
Mo1 Ru1 2.885076 1_555
Mo1 Nb2 2.985830 1_555
Mo1 Nb3 2.985830 1_655
Ru0 Si0 2.376787 1_455
Ru0 Si1 2.426354 1_555
Ru0 Si2 2.496961 1_555
Ru0 Si5 2.524240 1_565
Ru1 Si1 2.376787 1_655
Ru1 Si0 2.426354 1_555
Ru1 Si3 2.496963 1_555
Ru1 Si4 2.524240 1_555
Ru2 Si0 2.376786 1_555
Ru2 Si1 2.426354 1_554
Ru2 Si4 2.496967 1_554
Ru2 Si3 2.524238 1_565
Ru3 Si1 2.376787 1_554
Ru3 Si0 2.426354 1_555
Ru3 Si5 2.496967 1_554
Ru3 Si2 2.524245 1_555
