# generated using pymatgen
data_Hf6Zn5RhN2
_symmetry_space_group_name_H-M   'P 1'
_cell_length_a   8.43310438
_cell_length_b   8.43310457
_cell_length_c   8.43388164
_cell_angle_alpha   59.99694418
_cell_angle_beta   59.99694343
_cell_angle_gamma   60.08469825
_symmetry_Int_Tables_number   1
_chemical_formula_structural   Hf6Zn5RhN2
_chemical_formula_sum   'Hf12 Zn10 Rh2 N4'
_cell_volume   424.36992733
_cell_formula_units_Z   2
loop_
 _symmetry_equiv_pos_site_id
 _symmetry_equiv_pos_as_xyz
  1  'x, y, z'
loop_
 _atom_site_type_symbol
 _atom_site_label
 _atom_site_symmetry_multiplicity
 _atom_site_fract_x
 _atom_site_fract_y
 _atom_site_fract_z
 _atom_site_occupancy
  Hf  Hf0  1  0.80799837  0.19421763  0.18597638  1
  Hf  Hf1  1  0.19421763  0.80799837  0.18597638  1
  Hf  Hf2  1  0.81926160  0.81926160  0.18073840  1
  Hf  Hf3  1  0.19421763  0.80799837  0.81180762  1
  Hf  Hf4  1  0.80799837  0.19421763  0.81180762  1
  Hf  Hf5  1  0.19270794  0.19270794  0.80729206  1
  Hf  Hf6  1  0.43589975  0.06568251  0.06012026  1
  Hf  Hf7  1  0.06568251  0.43589975  0.06012026  1
  Hf  Hf8  1  0.43557368  0.43557368  0.06442632  1
  Hf  Hf9  1  0.06568251  0.43589975  0.43829848  1
  Hf  Hf10  1  0.43589975  0.06568251  0.43829848  1
  Hf  Hf11  1  0.06263067  0.06263067  0.43736933  1
  Zn  Zn0  1  0.73918694  0.41926209  0.42077499  1
  Zn  Zn1  1  0.41926209  0.73918694  0.42077499  1
  Zn  Zn2  1  0.83236854  0.83236854  0.50097173  1
  Zn  Zn3  1  0.83236854  0.83236854  0.83429219  1
  Zn  Zn4  1  0.50442998  0.83146390  0.83205356  1
  Zn  Zn5  1  0.83146390  0.50442998  0.83205356  1
  Zn  Zn6  1  0.62825621  0.62825621  0.12429870  1
  Zn  Zn7  1  0.62825621  0.62825621  0.61919088  1
  Zn  Zn8  1  0.12382664  0.62977454  0.62319991  1
  Zn  Zn9  1  0.62977454  0.12382664  0.62319991  1
  Rh  Rh0  1  0.41017822  0.41017822  0.76873642  1
  Rh  Rh1  1  0.41017822  0.41017822  0.41090614  1
  N  N0  1  0.12303144  0.12303144  0.62567693  1
  N  N1  1  0.12303144  0.12303144  0.12826119  1
  N  N2  1  0.62410745  0.12251420  0.12668867  1
  N  N3  1  0.12251420  0.62410745  0.12668867  1
loop_
_geom_bond_atom_site_label_1
_geom_bond_atom_site_label_2
_geom_bond_distance
_geom_bond_site_symmetry_2
Hf0 N2 2.243605 1_555
Hf0 N1 2.250235 1_655
Hf0 Zn5 2.812278 1_554
Hf0 Zn2 2.867868 1_545
Hf0 Rh1 3.027661 1_555
Hf0 Zn6 3.052260 1_555
Hf0 Zn9 3.060545 1_555
Hf0 Zn0 3.061167 1_555
Hf1 N3 2.243605 1_555
Hf1 N1 2.250235 1_565
Hf1 Zn4 2.812278 1_554
Hf1 Zn2 2.867868 1_455
Hf1 Rh1 3.027661 1_555
Hf1 Zn6 3.052260 1_555
Hf1 Zn8 3.060545 1_555
Hf1 Zn1 3.061167 1_555
Hf2 N3 2.200637 1_655
Hf2 N2 2.200637 1_565
Hf2 Zn3 2.815680 1_554
Hf2 Zn2 2.815689 1_555
Hf2 Zn6 3.088247 1_555
Hf2 Zn7 3.088258 1_555
Hf2 Zn1 3.163605 1_555
Hf2 Zn0 3.163605 1_555
Hf3 N3 2.243598 1_556
Hf3 N0 2.250233 1_565
Hf3 Zn4 2.812283 1_555
Hf3 Zn3 2.867865 1_455
Hf3 Rh0 3.027664 1_555
Hf3 Zn7 3.052257 1_555
Hf3 Zn8 3.060538 1_555
Hf3 Zn1 3.061174 1_555
Hf4 N2 2.243598 1_556
Hf4 N0 2.250233 1_655
Hf4 Zn5 2.812283 1_555
Hf4 Zn3 2.867865 1_545
Hf4 Rh0 3.027664 1_555
Hf4 Zn7 3.052257 1_555
Hf4 Zn9 3.060538 1_555
Hf4 Zn0 3.061174 1_555
Hf5 N0 2.276242 1_555
Hf5 N1 2.276250 1_556
Hf5 Zn5 2.856513 1_455
Hf5 Zn4 2.856513 1_545
Hf5 Rh0 2.999070 1_555
Hf5 Rh1 2.999074 1_555
Hf5 Zn9 3.062121 1_555
Hf5 Zn8 3.062122 1_555
Hf6 N2 2.232270 1_555
Hf6 N1 2.239276 1_555
Hf6 Rh0 2.700148 1_554
Hf6 Zn1 2.904402 1_545
Hf6 Zn6 3.073228 1_545
Hf6 Zn9 3.075645 1_554
Hf6 Zn4 3.079686 1_544
Hf6 Zn3 3.081421 1_544
Hf7 N3 2.232270 1_555
Hf7 N1 2.239276 1_555
Hf7 Rh0 2.700148 1_554
Hf7 Zn0 2.904402 1_455
Hf7 Zn6 3.073228 1_455
Hf7 Zn8 3.075645 1_554
Hf7 Zn5 3.079686 1_454
Hf7 Zn3 3.081421 1_454
Hf8 N3 2.243947 1_555
Hf8 N2 2.243947 1_555
Hf8 Rh1 2.724849 1_555
Hf8 Rh0 2.724857 1_554
Hf8 Zn5 3.094532 1_554
Hf8 Zn4 3.094532 1_554
Hf8 Zn7 3.132145 1_554
Hf8 Zn6 3.132157 1_555
Hf9 N3 2.232282 1_555
Hf9 N0 2.239275 1_555
Hf9 Rh1 2.700142 1_555
Hf9 Zn0 2.904412 1_455
Hf9 Zn7 3.073229 1_455
Hf9 Zn8 3.075646 1_555
Hf9 Zn5 3.079686 1_455
Hf9 Zn2 3.081422 1_455
Hf10 N2 2.232282 1_555
Hf10 N0 2.239275 1_555
Hf10 Rh1 2.700142 1_555
Hf10 Zn1 2.904412 1_545
Hf10 Zn7 3.073229 1_545
Hf10 Zn9 3.075646 1_555
Hf10 Zn4 3.079686 1_545
Hf10 Zn2 3.081421 1_545
Hf11 N1 2.217654 1_555
Hf11 N0 2.217662 1_555
Hf11 Zn1 2.878046 1_545
Hf11 Zn0 2.878046 1_455
Hf11 Zn9 3.042341 1_455
Hf11 Zn8 3.042341 1_545
Hf11 Zn2 3.083292 1_445
Hf11 Zn3 3.083296 1_445
Zn0 Zn9 2.537113 1_555
Zn0 Zn6 2.553647 1_555
Zn0 Zn7 2.553668 1_555
Zn0 Zn1 2.701413 1_555
Zn1 Zn8 2.537113 1_555
Zn1 Zn6 2.553647 1_555
Zn1 Zn7 2.553668 1_555
Zn2 Zn7 2.538186 1_555
Zn2 Zn8 2.570395 1_655
Zn2 Zn9 2.570395 1_565
Zn2 Zn4 2.778854 1_555
Zn2 Zn5 2.778855 1_555
Zn2 Zn3 2.811185 1_555
Zn3 Zn6 2.538188 1_556
Zn3 Zn8 2.570395 1_655
Zn3 Zn9 2.570395 1_565
Zn3 Zn4 2.778855 1_555
Zn3 Zn5 2.778855 1_555
Zn4 Zn7 2.582068 1_555
Zn4 Zn6 2.582075 1_556
Zn4 Zn9 2.587074 1_565
Zn4 Zn5 2.761441 1_555
Zn5 Zn7 2.582068 1_555
Zn5 Zn6 2.582075 1_556
Zn5 Zn8 2.587074 1_655
Rh0 Zn8 2.645375 1_555
Rh0 Zn9 2.645375 1_555
Rh0 Zn7 2.662551 1_555
Rh0 Zn0 2.856631 1_555
Rh0 Zn1 2.856631 1_555
Rh1 Zn8 2.645384 1_555
Rh1 Zn9 2.645384 1_555
Rh1 Zn6 2.662546 1_555
Rh1 Zn0 2.856631 1_555
Rh1 Zn1 2.856631 1_555
