# generated using pymatgen
data_Hf4Zr(GaSb)2
_symmetry_space_group_name_H-M   'P 1'
_cell_length_a   8.48996045
_cell_length_b   8.50922793
_cell_length_c   5.74065043
_cell_angle_alpha   90.00000000
_cell_angle_beta   90.00000000
_cell_angle_gamma   120.10829587
_symmetry_Int_Tables_number   1
_chemical_formula_structural   Hf4Zr(GaSb)2
_chemical_formula_sum   'Hf8 Zr2 Ga4 Sb4'
_cell_volume   358.76708683
_cell_formula_units_Z   2
loop_
 _symmetry_equiv_pos_site_id
 _symmetry_equiv_pos_as_xyz
  1  'x, y, z'
loop_
 _atom_site_type_symbol
 _atom_site_label
 _atom_site_symmetry_multiplicity
 _atom_site_fract_x
 _atom_site_fract_y
 _atom_site_fract_z
 _atom_site_occupancy
  Hf  Hf0  1  0.28566690  0.27197426  0.75000000  1
  Hf  Hf1  1  0.73736250  0.73996623  0.25000000  1
  Hf  Hf2  1  0.71350868  0.98554662  0.75000000  1
  Hf  Hf3  1  0.33777529  0.67018449  0.50547866  1
  Hf  Hf4  1  0.66306459  0.33322766  0.50551432  1
  Hf  Hf5  1  0.99917715  0.72768404  0.75000000  1
  Hf  Hf6  1  0.33777529  0.67018449  0.99452134  1
  Hf  Hf7  1  0.66306459  0.33322766  0.99448568  1
  Zr  Zr0  1  0.00043184  0.26368175  0.25000000  1
  Zr  Zr1  1  0.26286862  0.00264606  0.25000000  1
  Ga  Ga0  1  0.99915310  0.00016731  0.51752327  1
  Ga  Ga1  1  0.61500777  0.61286661  0.75000000  1
  Ga  Ga2  1  0.38470462  0.99806573  0.75000000  1
  Ga  Ga3  1  0.99915310  0.00016731  0.98247673  1
  Sb  Sb0  1  0.60507413  0.00088572  0.25000000  1
  Sb  Sb1  1  0.39661992  0.39767763  0.25000000  1
  Sb  Sb2  1  0.00015961  0.38168781  0.75000000  1
  Sb  Sb3  1  0.99943131  0.61015763  0.25000000  1
loop_
_geom_bond_atom_site_label_1
_geom_bond_atom_site_label_2
_geom_bond_distance
_geom_bond_site_symmetry_2
Hf0 Sb2 3.002903 1_555
Hf0 Sb1 3.042918 1_555
Hf0 Sb1 3.042918 1_556
Hf1 Sb1 2.898049 1_555
Hf1 Sb3 2.938734 1_555
Hf1 Sb0 2.948311 1_565
Hf2 Sb2 3.009153 1_665
Hf2 Sb0 3.037083 1_565
Hf2 Sb0 3.037083 1_566
Hf3 Sb0 2.968620 1_565
Hf3 Sb1 2.989939 1_555
Hf3 Sb2 3.025429 1_555
Hf3 Sb3 3.031704 1_455
Hf4 Sb1 2.968852 1_555
Hf4 Sb0 2.999086 1_555
Hf4 Sb3 3.017989 1_555
Hf4 Sb2 3.024314 1_655
Hf5 Sb2 2.948354 1_655
Hf5 Sb3 3.039910 1_555
Hf5 Sb3 3.039910 1_556
Hf6 Sb0 2.968620 1_566
Hf6 Sb1 2.989939 1_556
Hf6 Sb2 3.025429 1_555
Hf6 Sb3 3.031704 1_456
Hf7 Sb1 2.968852 1_556
Hf7 Sb0 2.999086 1_556
Hf7 Sb3 3.017989 1_556
Hf7 Sb2 3.024314 1_655
Ga0 Hf5 2.675361 1_545
Ga0 Hf1 2.695104 1_545
Ga0 Zr1 2.706371 1_655
Ga0 Zr0 2.713333 1_655
Ga0 Hf2 2.715697 1_545
Ga0 Hf0 2.720846 1_655
Ga1 Hf0 2.845192 1_555
Ga1 Hf2 2.845225 1_555
Ga1 Hf5 2.897490 1_555
Ga1 Hf4 2.961822 1_555
Ga1 Hf7 2.961822 1_555
Ga1 Hf6 2.983267 1_555
Ga1 Hf3 2.983267 1_555
Ga1 Hf1 3.059475 1_555
Ga1 Hf1 3.059475 1_556
Ga2 Hf2 2.846464 1_555
Ga2 Hf0 2.847025 1_565
Ga2 Hf5 2.907138 1_455
Ga2 Hf6 2.966156 1_555
Ga2 Hf3 2.966156 1_555
Ga2 Hf4 2.987737 1_565
Ga2 Hf7 2.987737 1_565
Ga2 Zr1 3.057888 1_566
Ga2 Zr1 3.057888 1_565
Ga3 Hf5 2.675361 1_545
Ga3 Hf1 2.695104 1_546
Ga3 Zr1 2.706371 1_656
Ga3 Zr0 2.713333 1_656
Ga3 Hf2 2.715697 1_545
Ga3 Hf0 2.720846 1_655
Sb0 Zr1 2.912854 1_555
Sb0 Zr0 2.955779 1_655
Sb1 Zr1 2.959568 1_555
Sb1 Zr0 2.960786 1_555
Sb2 Zr0 3.041282 1_555
Sb2 Zr0 3.041282 1_556
Sb3 Zr1 2.943171 1_665
Sb3 Zr0 2.952513 1_655
