# generated using pymatgen
data_CdGa2(SeO3)4
_symmetry_space_group_name_H-M   'P 1'
_cell_length_a   4.60991177
_cell_length_b   8.30664666
_cell_length_c   15.56642217
_cell_angle_alpha   73.24469950
_cell_angle_beta   89.99662860
_cell_angle_gamma   89.99850932
_symmetry_Int_Tables_number   1
_chemical_formula_structural   CdGa2(SeO3)4
_chemical_formula_sum   'Cd2 Ga4 Se8 O24'
_cell_volume   570.77666395
_cell_formula_units_Z   2
loop_
 _symmetry_equiv_pos_site_id
 _symmetry_equiv_pos_as_xyz
  1  'x, y, z'
loop_
 _atom_site_type_symbol
 _atom_site_label
 _atom_site_symmetry_multiplicity
 _atom_site_fract_x
 _atom_site_fract_y
 _atom_site_fract_z
 _atom_site_occupancy
  Cd  Cd0  1  0.00000000  0.00000000  0.00000000  1
  Cd  Cd1  1  0.50000000  0.00000000  0.50000000  1
  Ga  Ga0  1  0.51458635  0.14528394  0.79108559  1
  Ga  Ga1  1  0.98536692  0.14522494  0.29105871  1
  Ga  Ga2  1  0.48541365  0.85471606  0.20891441  1
  Ga  Ga3  1  0.01463308  0.85477506  0.70894129  1
  Se  Se0  1  0.53376672  0.78287395  0.87041584  1
  Se  Se1  1  0.96630919  0.78283436  0.37039185  1
  Se  Se2  1  0.46623328  0.21712605  0.12958416  1
  Se  Se3  1  0.03369081  0.21716564  0.62960815  1
  Se  Se4  1  0.00674941  0.35455143  0.86641303  1
  Se  Se5  1  0.49316651  0.35446199  0.36640127  1
  Se  Se6  1  0.99325059  0.64544857  0.13358697  1
  Se  Se7  1  0.50683349  0.64553801  0.63359873  1
  O  O0  1  0.73636859  0.33824039  0.79393586  1
  O  O1  1  0.76357984  0.33819160  0.29388900  1
  O  O2  1  0.26363141  0.66175961  0.20606414  1
  O  O3  1  0.23642016  0.66180840  0.70611100  1
  O  O4  1  0.81057784  0.72340922  0.81526825  1
  O  O5  1  0.68946501  0.72335664  0.31524257  1
  O  O6  1  0.18942216  0.27659078  0.18473175  1
  O  O7  1  0.31053499  0.27664336  0.68475743  1
  O  O8  1  0.21287199  0.17395917  0.87223134  1
  O  O9  1  0.28713543  0.17387373  0.37219255  1
  O  O10  1  0.78712801  0.82604083  0.12776866  1
  O  O11  1  0.71286457  0.82612627  0.62780745  1
  O  O12  1  0.66762095  0.95797577  0.89562070  1
  O  O13  1  0.83237788  0.95791845  0.39559102  1
  O  O14  1  0.33237905  0.04202423  0.10437930  1
  O  O15  1  0.16762212  0.04208155  0.60440898  1
  O  O16  1  0.32503036  0.91781630  0.78626900  1
  O  O17  1  0.17495344  0.91777212  0.28620511  1
  O  O18  1  0.67496964  0.08218370  0.21373100  1
  O  O19  1  0.82504656  0.08222788  0.71379489  1
  O  O20  1  0.85849095  0.27421116  0.96882737  1
  O  O21  1  0.64141506  0.27420657  0.46877969  1
  O  O22  1  0.14150905  0.72578884  0.03117263  1
  O  O23  1  0.35858494  0.72579343  0.53122031  1
loop_
_geom_bond_atom_site_label_1
_geom_bond_atom_site_label_2
_geom_bond_distance
_geom_bond_site_symmetry_2
Cd0 O22 2.282973 1_545
Cd0 O20 2.282973 1_454
Cd0 O10 2.312915 1_445
Cd0 O8 2.312915 1_554
Cd0 O14 2.331731 1_555
Cd0 O12 2.331731 1_444
Cd1 O21 2.282775 1_555
Cd1 O23 2.282775 1_545
Cd1 O11 2.313112 1_545
Cd1 O9 2.313112 1_555
Cd1 O13 2.332099 1_545
Cd1 O15 2.332099 1_555
Ga0 O0 1.912431 1_555
Ga0 O8 1.939090 1_555
Ga0 O7 1.942629 1_555
Ga0 O12 2.026509 1_545
Ga0 O19 2.033056 1_555
Ga0 O16 2.102658 1_545
Ga1 O1 1.912385 1_555
Ga1 O9 1.939190 1_655
Ga1 O6 1.942575 1_655
Ga1 O13 2.026364 1_545
Ga1 O18 2.033302 1_555
Ga1 O17 2.102730 1_645
Ga2 O2 1.912431 1_555
Ga2 O10 1.939090 1_555
Ga2 O5 1.942629 1_555
Ga2 O14 2.026509 1_565
Ga2 O17 2.033056 1_555
Ga2 O18 2.102658 1_565
Ga3 O3 1.912385 1_555
Ga3 O11 1.939190 1_455
Ga3 O4 1.942575 1_455
Ga3 O15 2.026364 1_565
Ga3 O16 2.033302 1_555
Ga3 O19 2.102730 1_465
O0 Se4 1.712635 1_655
O1 Se5 1.712924 1_555
O2 Se6 1.712635 1_455
O3 Se7 1.712924 1_555
O4 Se0 1.689265 1_555
O5 Se1 1.689539 1_555
O6 Se2 1.689265 1_555
O7 Se3 1.689539 1_555
O8 Se4 1.755860 1_555
O9 Se5 1.755722 1_555
O10 Se6 1.755860 1_555
O11 Se7 1.755722 1_555
O12 Se0 1.726095 1_555
O13 Se1 1.726003 1_555
O14 Se2 1.726095 1_555
O15 Se3 1.726003 1_555
O16 Se0 1.746907 1_555
O17 Se1 1.746955 1_455
O18 Se2 1.746907 1_555
O19 Se3 1.746955 1_655
O20 Se4 1.685380 1_655
O21 Se5 1.684872 1_555
O22 Se6 1.685380 1_455
O23 Se7 1.684872 1_555
