# generated using pymatgen
data_Sc7TiGa15Rh7
_symmetry_space_group_name_H-M   'P 1'
_cell_length_a   8.78948464
_cell_length_b   8.79819983
_cell_length_c   8.78948420
_cell_angle_alpha   120.21706763
_cell_angle_beta   119.76973042
_cell_angle_gamma   89.98329254
_symmetry_Int_Tables_number   1
_chemical_formula_structural   Sc7TiGa15Rh7
_chemical_formula_sum   'Sc7 Ti1 Ga15 Rh7'
_cell_volume   480.78273920
_cell_formula_units_Z   1
loop_
 _symmetry_equiv_pos_site_id
 _symmetry_equiv_pos_as_xyz
  1  'x, y, z'
loop_
 _atom_site_type_symbol
 _atom_site_label
 _atom_site_symmetry_multiplicity
 _atom_site_fract_x
 _atom_site_fract_y
 _atom_site_fract_z
 _atom_site_occupancy
  Sc  Sc0  1  0.79642921  0.28262646  0.06504208  1
  Sc  Sc1  1  0.21758438  0.28262646  0.48619825  1
  Sc  Sc2  1  0.20692594  0.70402958  0.49710364  1
  Sc  Sc3  1  0.21949496  0.73133824  0.94059901  1
  Sc  Sc4  1  0.79074023  0.73133824  0.51184428  1
  Sc  Sc5  1  0.76840902  0.26823373  0.49982471  1
  Sc  Sc6  1  0.37794873  0.12336396  0.74541522  1
  Ti  Ti0  1  0.37847620  0.63051928  0.25204308  1
  Ga  Ga0  1  0.98850367  0.49015855  0.50165488  1
  Ga  Ga1  1  0.15954544  0.34399860  0.18445216  1
  Ga  Ga2  1  0.15523118  0.96454729  0.80931711  1
  Ga  Ga3  1  0.15107548  0.35126981  0.80204063  1
  Ga  Ga4  1  0.54922818  0.35126981  0.20019333  1
  Ga  Ga5  1  0.84404747  0.65169419  0.80764772  1
  Ga  Ga6  1  0.84511261  0.03861952  0.19350691  1
  Ga  Ga7  1  0.84234893  0.65347941  0.18874095  1
  Ga  Ga8  1  0.46473846  0.65347941  0.81113048  1
  Ga  Ga9  1  0.37533790  0.12718851  0.24843227  1
  Ga  Ga10  1  0.87875525  0.12718851  0.75184962  1
  Ga  Ga11  1  0.62043262  0.86604730  0.24561367  1
  Ga  Ga12  1  0.61935226  0.37271114  0.75335888  1
  Ga  Ga13  1  0.61486975  0.87511737  0.74090898  1
  Ga  Ga14  1  0.13420939  0.87511737  0.26024863  1
  Rh  Rh0  1  0.99591758  0.00088743  0.49984345  1
  Rh  Rh1  1  0.50104398  0.00088743  0.00496985  1
  Rh  Rh2  1  0.49685200  0.50243860  0.00558660  1
  Rh  Rh3  1  0.49945321  0.50235588  0.49791278  1
  Rh  Rh4  1  0.00444310  0.50235588  0.00290367  1
  Rh  Rh5  1  0.99917577  0.99909979  0.99992401  1
  Rh  Rh6  1  0.50431412  0.99600727  0.49169315  1
loop_
_geom_bond_atom_site_label_1
_geom_bond_atom_site_label_2
_geom_bond_distance
_geom_bond_site_symmetry_2
Sc0 Sc6 3.027292 1_554
Sc1 Sc6 3.027285 1_555
Sc2 Ti0 3.025524 1_555
Sc2 Sc6 3.045484 1_565
Sc3 Ti0 2.979566 1_556
Sc4 Ti0 2.979573 1_555
Ga0 Sc2 2.717014 1_655
Ga0 Sc1 2.725142 1_655
Ga0 Sc0 2.725142 1_555
Ga0 Sc4 2.737391 1_555
Ga0 Sc3 2.737397 1_655
Ga0 Sc5 2.737648 1_555
Ga1 Rh4 2.534259 1_555
Ga1 Rh3 2.534273 1_555
Ga1 Rh5 2.569806 1_444
Ga1 Ga9 2.751523 1_555
Ga1 Ga10 2.751523 1_454
Ga1 Sc0 2.771934 1_455
Ga1 Sc1 2.771948 1_555
Ga1 Ti0 2.787608 1_555
Ga1 Sc2 2.803840 1_555
Ga2 Rh5 2.559229 1_455
Ga2 Rh1 2.560225 1_566
Ga2 Rh0 2.560232 1_465
Ga2 Sc3 2.756031 1_555
Ga2 Sc4 2.756031 1_455
Ga2 Sc2 2.810186 1_555
Ga2 Sc6 2.825491 1_565
Ga3 Rh2 2.532639 1_556
Ga3 Rh4 2.537975 1_556
Ga3 Rh0 2.565482 1_455
Ga3 Ti0 2.836643 1_556
Ga3 Sc5 2.842267 1_455
Ga3 Sc3 2.863808 1_555
Ga3 Sc6 2.867668 1_555
Ga3 Sc1 2.887371 1_555
Ga4 Rh2 2.532633 1_555
Ga4 Rh3 2.537971 1_555
Ga4 Rh1 2.565484 1_555
Ga4 Ti0 2.836637 1_555
Ga4 Sc5 2.842275 1_555
Ga4 Sc4 2.863813 1_555
Ga4 Sc6 2.867663 1_554
Ga4 Sc0 2.887382 1_555
Ga5 Rh4 2.554450 1_656
Ga5 Rh3 2.554453 1_555
Ga5 Rh5 2.563676 1_555
Ga5 Sc4 2.845038 1_555
Ga5 Sc3 2.845038 1_655
Ga5 Sc5 2.858628 1_555
Ga6 Rh0 2.544071 1_555
Ga6 Rh1 2.544071 1_555
Ga6 Rh5 2.557712 1_544
Ga6 Sc1 2.833111 1_655
Ga6 Sc0 2.833112 1_555
Ga6 Sc5 2.848075 1_555
Ga7 Rh0 2.562441 1_565
Ga7 Rh2 2.563935 1_555
Ga7 Rh4 2.567012 1_655
Ga7 Sc2 2.824026 1_655
Ga7 Sc0 2.825837 1_555
Ga7 Sc4 2.839196 1_555
Ga8 Rh1 2.562441 1_566
Ga8 Rh2 2.563935 1_556
Ga8 Rh3 2.567018 1_555
Ga8 Sc2 2.824026 1_555
Ga8 Sc1 2.825837 1_555
Ga8 Sc3 2.839194 1_555
Ga9 Rh1 2.643574 1_555
Ga9 Rh3 2.689779 1_555
Ga9 Rh6 2.695372 1_545
Ga9 Rh5 2.706566 1_444
Ga9 Sc5 2.832025 1_555
Ga9 Sc1 2.856561 1_555
Ga9 Sc3 2.857288 1_544
Ga10 Rh0 2.643574 1_555
Ga10 Rh4 2.689779 1_656
Ga10 Rh6 2.695365 1_545
Ga10 Rh5 2.706572 1_545
Ga10 Sc5 2.832017 1_555
Ga10 Sc0 2.856556 1_556
Ga10 Sc4 2.857289 1_545
Ga11 Rh6 2.594106 1_555
Ga11 Rh2 2.607292 1_555
Ga11 Rh1 2.702466 1_565
Ga11 Rh0 2.702473 1_565
Ga11 Sc5 2.892026 1_565
Ga11 Sc3 2.904002 1_554
Ga11 Sc4 2.904017 1_555
Ga11 Ti0 3.009953 1_555
Ga12 Rh2 2.683214 1_556
Ga12 Rh6 2.704944 1_545
Ga12 Ga8 2.761800 1_555
Ga12 Ga7 2.761800 1_556
Ga12 Rh4 2.771318 1_656
Ga12 Rh3 2.771318 1_555
Ga12 Ga5 2.835672 1_555
Ga12 Sc5 2.892055 1_555
Ga12 Sc1 2.916564 1_555
Ga12 Sc0 2.916565 1_556
Ga12 Sc6 3.003527 1_555
Ga13 Rh6 2.665427 1_555
Ga13 Rh3 2.673304 1_555
Ga13 Rh1 2.707835 1_566
Ga13 Rh5 2.765640 1_555
Ga13 Ga8 2.818959 1_555
Ga13 Ga6 2.870056 1_566
Ga13 Ga5 2.872410 1_555
Ga13 Sc4 2.927324 1_555
Ga13 Sc0 2.953820 1_566
Ga13 Sc2 2.973343 1_555
Ga13 Sc6 3.016718 1_565
Ga13 Ti0 3.039870 1_555
Ga14 Rh6 2.665420 1_555
Ga14 Rh4 2.673304 1_555
Ga14 Rh0 2.707836 1_465
Ga14 Rh5 2.765647 1_454
Ga14 Ga7 2.818961 1_455
Ga14 Ga6 2.870063 1_465
Ga14 Ga5 2.872410 1_454
Ga14 Sc3 2.927324 1_554
Ga14 Sc1 2.953821 1_565
Ga14 Sc2 2.973337 1_555
Ga14 Sc6 3.016711 1_565
Ga14 Ti0 3.039863 1_555
Rh0 Sc6 2.749363 1_655
Rh0 Sc4 3.054638 1_545
Rh0 Sc5 3.086865 1_555
Rh0 Sc2 3.200018 1_645
Rh0 Sc1 3.238662 1_655
Rh1 Sc6 2.749362 1_554
Rh1 Sc3 3.054637 1_544
Rh1 Sc5 3.086865 1_555
Rh1 Sc2 3.200018 1_544
Rh1 Sc0 3.238669 1_555
Rh2 Ti0 2.612539 1_555
Rh2 Sc6 2.719735 1_554
Rh2 Sc3 3.177628 1_554
Rh2 Sc4 3.177635 1_555
Rh2 Sc1 3.254912 1_554
Rh2 Sc0 3.254919 1_555
Rh3 Ti0 2.691204 1_555
Rh3 Sc1 3.071643 1_555
Rh3 Sc2 3.122690 1_555
Rh3 Sc5 3.134365 1_555
Rh3 Sc4 3.173651 1_555
Rh4 Ti0 2.691204 1_555
Rh4 Sc0 3.071630 1_455
Rh4 Sc2 3.122682 1_555
Rh4 Sc5 3.134372 1_454
Rh4 Sc3 3.173657 1_554
Rh5 Sc0 3.049434 1_566
Rh5 Sc1 3.049440 1_666
Rh5 Sc4 3.055380 1_555
Rh5 Sc3 3.055386 1_655
Rh6 Ti0 2.621316 1_555
Rh6 Sc6 2.721429 1_565
Rh6 Sc5 3.285735 1_565
