# generated using pymatgen
data_Ba3Ti3O8
_symmetry_space_group_name_H-M   'P 1'
_cell_length_a   5.79512938
_cell_length_b   5.79512938
_cell_length_c   7.04239435
_cell_angle_alpha   88.51643107
_cell_angle_beta   88.51643107
_cell_angle_gamma   58.79986916
_symmetry_Int_Tables_number   1
_chemical_formula_structural   Ba3Ti3O8
_chemical_formula_sum   'Ba3 Ti3 O8'
_cell_volume   202.21122449
_cell_formula_units_Z   1
loop_
 _symmetry_equiv_pos_site_id
 _symmetry_equiv_pos_as_xyz
  1  'x, y, z'
loop_
 _atom_site_type_symbol
 _atom_site_label
 _atom_site_symmetry_multiplicity
 _atom_site_fract_x
 _atom_site_fract_y
 _atom_site_fract_z
 _atom_site_occupancy
  Ba  Ba0  1  0.66547100  0.66547100  0.16731100  1
  Ba  Ba1  1  0.33452900  0.33452900  0.83268900  1
  Ba  Ba2  1  0.00000000  0.00000000  0.50000000  1
  Ti  Ti0  1  0.68231300  0.68231300  0.68403200  1
  Ti  Ti1  1  0.31768700  0.31768700  0.31596800  1
  Ti  Ti2  1  0.00000000  0.00000000  0.00000000  1
  O  O0  1  0.66472600  0.17244500  0.17286900  1
  O  O1  1  0.50000000  0.00000000  0.50000000  1
  O  O2  1  0.17244500  0.66472600  0.17286900  1
  O  O3  1  0.00000000  0.50000000  0.50000000  1
  O  O4  1  0.33527400  0.82755500  0.82713100  1
  O  O5  1  0.16644300  0.16644300  0.16139700  1
  O  O6  1  0.82755500  0.33527400  0.82713100  1
  O  O7  1  0.83355700  0.83355700  0.83860300  1
loop_
_geom_bond_atom_site_label_1
_geom_bond_atom_site_label_2
_geom_bond_distance
_geom_bond_site_symmetry_2
Ba0 O7 2.829472 1_554
Ba0 O5 2.845163 1_565
Ba0 O5 2.845163 1_655
Ba0 O0 2.858642 1_555
Ba0 O2 2.858642 1_555
Ba0 O1 2.891363 1_565
Ba0 O3 2.891363 1_655
Ba0 O6 2.922644 1_554
Ba0 O4 2.922644 1_554
Ba0 O0 2.937019 1_565
Ba0 O2 2.937019 1_655
Ba1 O5 2.829472 1_556
Ba1 O7 2.845163 1_545
Ba1 O7 2.845163 1_455
Ba1 O4 2.858642 1_555
Ba1 O6 2.858642 1_555
Ba1 O3 2.891363 1_555
Ba1 O1 2.891363 1_555
Ba1 O2 2.922644 1_556
Ba1 O0 2.922644 1_556
Ba1 O4 2.937019 1_545
Ba1 O6 2.937019 1_455
Ba2 O4 2.860431 1_545
Ba2 O6 2.860431 1_455
Ba2 O0 2.860431 1_455
Ba2 O2 2.860431 1_545
Ba2 O5 2.876225 1_555
Ba2 O7 2.876225 1_445
Ba2 O1 2.897565 1_555
Ba2 O3 2.897565 1_545
Ba2 O3 2.897565 1_555
Ba2 O1 2.897565 1_455
O0 Ti1 1.988435 1_555
O0 Ti2 2.045649 1_655
O1 Ti1 2.029153 1_555
O1 Ti0 2.029153 1_545
O2 Ti1 1.988435 1_555
O2 Ti2 2.045649 1_565
O3 Ti1 2.029153 1_555
O3 Ti0 2.029153 1_455
O4 Ti0 1.988435 1_555
O4 Ti2 2.045649 1_566
O5 Ti1 1.901602 1_555
O5 Ti2 2.056724 1_555
O6 Ti0 1.988435 1_555
O6 Ti2 2.045649 1_656
O7 Ti0 1.901602 1_555
O7 Ti2 2.056724 1_666
