# generated using pymatgen
data_Ba3AlBi3
_symmetry_space_group_name_H-M   'P 1'
_cell_length_a   7.38845179
_cell_length_b   11.49585076
_cell_length_c   14.49694947
_cell_angle_alpha   90.00000000
_cell_angle_beta   90.00000000
_cell_angle_gamma   108.74477236
_symmetry_Int_Tables_number   1
_chemical_formula_structural   Ba3AlBi3
_chemical_formula_sum   'Ba12 Al4 Bi12'
_cell_volume   1166.01079212
_cell_formula_units_Z   4
loop_
 _symmetry_equiv_pos_site_id
 _symmetry_equiv_pos_as_xyz
  1  'x, y, z'
loop_
 _atom_site_type_symbol
 _atom_site_label
 _atom_site_symmetry_multiplicity
 _atom_site_fract_x
 _atom_site_fract_y
 _atom_site_fract_z
 _atom_site_occupancy
  Ba  Ba0  1  0.87188718  0.34853426  0.12807820  1
  Ba  Ba1  1  0.52335293  0.65146674  0.12807820  1
  Ba  Ba2  1  0.31036287  1.00000000  0.14559240  1
  Ba  Ba3  1  0.81036387  1.00000000  0.35440760  1
  Ba  Ba4  1  0.37188718  0.34853426  0.37192180  1
  Ba  Ba5  1  0.02335393  0.65146674  0.37192180  1
  Ba  Ba6  1  0.97664707  0.34853426  0.62807920  1
  Ba  Ba7  1  0.62811282  0.65146674  0.62807920  1
  Ba  Ba8  1  0.18963713  0.00000000  0.64559240  1
  Ba  Ba9  1  0.68963613  0.00000000  0.85440760  1
  Ba  Ba10  1  0.47664607  0.34853426  0.87192080  1
  Ba  Ba11  1  0.12811382  0.65146674  0.87192080  1
  Al  Al0  1  0.08558221  0.17116442  0.00000000  1
  Al  Al1  1  0.91441879  0.82883658  0.00000000  1
  Al  Al2  1  0.58558221  0.17116442  0.50000000  1
  Al  Al3  1  0.41441779  0.82883658  0.50000000  1
  Bi  Bi0  1  0.79467099  1.00000000  0.10392864  1
  Bi  Bi1  1  0.36295939  0.31920776  0.12124904  1
  Bi  Bi2  1  0.04375163  0.68079224  0.12124904  1
  Bi  Bi3  1  0.86295839  0.31920776  0.37875196  1
  Bi  Bi4  1  0.54375263  0.68079224  0.37875196  1
  Bi  Bi5  1  0.29467199  1.00000000  0.39607036  1
  Bi  Bi6  1  0.70532901  0.00000000  0.60392964  1
  Bi  Bi7  1  0.45624837  0.31920776  0.62124804  1
  Bi  Bi8  1  0.13704061  0.68079224  0.62124804  1
  Bi  Bi9  1  0.95624837  0.31920776  0.87875196  1
  Bi  Bi10  1  0.63704161  0.68079224  0.87875196  1
  Bi  Bi11  1  0.20532901  0.00000000  0.89607036  1
loop_
_geom_bond_atom_site_label_1
_geom_bond_atom_site_label_2
_geom_bond_distance
_geom_bond_site_symmetry_2
Ba0 Bi2 3.618598 1_655
Ba0 Bi3 3.648247 1_555
Ba0 Bi1 3.667115 1_555
Ba0 Bi9 3.701568 1_554
Ba0 Bi1 3.751522 1_655
Ba0 Bi0 3.877182 1_545
Ba1 Bi1 3.618609 1_555
Ba1 Bi4 3.648246 1_555
Ba1 Bi2 3.667110 1_555
Ba1 Bi10 3.701569 1_554
Ba1 Bi2 3.751525 1_655
Ba1 Bi0 3.877172 1_555
Ba2 Bi2 3.581166 1_555
Ba2 Bi1 3.581166 1_565
Ba2 Bi0 3.628905 1_555
Ba2 Bi5 3.633016 1_555
Ba2 Bi11 3.699615 1_564
Ba2 Bi0 3.857741 1_455
Ba3 Bi4 3.581168 1_555
Ba3 Bi3 3.581171 1_565
Ba3 Bi5 3.628903 1_655
Ba3 Bi0 3.633031 1_555
Ba3 Bi6 3.699617 1_565
Ba3 Bi5 3.857739 1_555
Ba4 Bi4 3.618598 1_555
Ba4 Bi1 3.648233 1_555
Ba4 Bi3 3.667122 1_455
Ba4 Bi7 3.701568 1_555
Ba4 Bi3 3.751515 1_555
Ba4 Bi5 3.877182 1_545
Ba5 Bi3 3.618609 1_455
Ba5 Bi2 3.648232 1_555
Ba5 Bi4 3.667110 1_455
Ba5 Bi8 3.701567 1_555
Ba5 Bi4 3.751525 1_555
Ba5 Bi5 3.877171 1_555
Ba6 Bi8 3.618599 1_655
Ba6 Bi9 3.648233 1_555
Ba6 Bi7 3.667115 1_655
Ba6 Bi3 3.701584 1_555
Ba6 Bi7 3.751523 1_555
Ba6 Bi6 3.877182 1_555
Ba7 Bi7 3.618610 1_555
Ba7 Bi10 3.648232 1_555
Ba7 Bi8 3.667118 1_655
Ba7 Bi4 3.701579 1_555
Ba7 Bi8 3.751518 1_555
Ba7 Bi6 3.877171 1_565
Ba8 Bi7 3.581168 1_555
Ba8 Bi8 3.581168 1_545
Ba8 Bi6 3.628903 1_455
Ba8 Bi11 3.633017 1_555
Ba8 Bi5 3.699617 1_545
Ba8 Bi6 3.857739 1_555
Ba9 Bi9 3.581169 1_555
Ba9 Bi10 3.581171 1_545
Ba9 Bi11 3.628895 1_555
Ba9 Bi6 3.633017 1_555
Ba9 Bi0 3.699603 1_546
Ba9 Bi11 3.857746 1_655
Ba10 Bi10 3.618599 1_555
Ba10 Bi7 3.648233 1_555
Ba10 Bi9 3.667123 1_555
Ba10 Bi1 3.701595 1_556
Ba10 Bi9 3.751515 1_455
Ba10 Bi11 3.877181 1_555
Ba11 Bi9 3.618610 1_455
Ba11 Bi8 3.648232 1_555
Ba11 Bi10 3.667118 1_555
Ba11 Bi2 3.701596 1_556
Ba11 Bi10 3.751518 1_455
Ba11 Bi11 3.877172 1_565
Al0 Bi9 2.818574 1_454
Al0 Bi1 2.818583 1_555
Al0 Bi0 2.836090 1_445
Al0 Bi11 2.836098 1_554
Al0 Ba0 3.488127 1_455
Al0 Ba10 3.488130 1_554
Al0 Ba2 3.631126 1_545
Al0 Ba9 3.631131 1_454
Al1 Bi10 2.818578 1_554
Al1 Bi2 2.818588 1_655
Al1 Bi0 2.836085 1_555
Al1 Bi11 2.836089 1_664
Al1 Ba1 3.488132 1_555
Al1 Ba11 3.488135 1_654
Al1 Ba2 3.631118 1_655
Al1 Ba9 3.631128 1_564
Al2 Bi3 2.818570 1_555
Al2 Bi7 2.818574 1_555
Al2 Bi5 2.836094 1_545
Al2 Bi6 2.836098 1_555
Al2 Ba4 3.488127 1_555
Al2 Ba6 3.488135 1_555
Al2 Ba8 3.631126 1_555
Al2 Ba3 3.631131 1_545
Al3 Bi8 2.818578 1_555
Al3 Bi4 2.818586 1_555
Al3 Bi5 2.836085 1_555
Al3 Bi6 2.836093 1_565
Al3 Ba5 3.488122 1_555
Al3 Ba7 3.488135 1_555
Al3 Ba8 3.631118 1_565
Al3 Ba3 3.631127 1_555
