# generated using pymatgen
data_Cs3K2As2Au
_symmetry_space_group_name_H-M   'P 1'
_cell_length_a   5.96592763
_cell_length_b   5.96592737
_cell_length_c   20.64117686
_cell_angle_alpha   90.00000000
_cell_angle_beta   90.00000000
_cell_angle_gamma   120.00000676
_symmetry_Int_Tables_number   1
_chemical_formula_structural   Cs3K2As2Au
_chemical_formula_sum   'Cs6 K4 As4 Au2'
_cell_volume   636.24004504
_cell_formula_units_Z   2
loop_
 _symmetry_equiv_pos_site_id
 _symmetry_equiv_pos_as_xyz
  1  'x, y, z'
loop_
 _atom_site_type_symbol
 _atom_site_label
 _atom_site_symmetry_multiplicity
 _atom_site_fract_x
 _atom_site_fract_y
 _atom_site_fract_z
 _atom_site_occupancy
  Cs  Cs0  1  0.33333300  0.66666700  0.54907203  1
  Cs  Cs1  1  0.66666700  0.33333300  0.04907203  1
  Cs  Cs2  1  0.66666700  0.33333300  0.45092797  1
  Cs  Cs3  1  0.33333300  0.66666700  0.95092797  1
  Cs  Cs4  1  0.33333300  0.66666700  0.75000000  1
  Cs  Cs5  1  0.66666700  0.33333300  0.25000000  1
  K  K0  1  0.00000000  0.00000000  0.15111823  1
  K  K1  1  0.00000000  0.00000000  0.65111823  1
  K  K2  1  0.00000000  0.00000000  0.84888177  1
  K  K3  1  0.00000000  0.00000000  0.34888177  1
  As  As0  1  0.33333300  0.66666700  0.12884183  1
  As  As1  1  0.66666700  0.33333300  0.62884183  1
  As  As2  1  0.33333300  0.66666700  0.37115817  1
  As  As3  1  0.66666700  0.33333300  0.87115817  1
  Au  Au0  1  0.66666700  0.33333300  0.75000000  1
  Au  Au1  1  0.33333300  0.66666700  0.25000000  1
loop_
_geom_bond_atom_site_label_1
_geom_bond_atom_site_label_2
_geom_bond_distance
_geom_bond_site_symmetry_2
As0 Au1 2.500847 1_555
As0 K0 3.474982 1_565
As0 K0 3.474987 1_555
As0 K0 3.474987 1_665
As0 Cs3 3.672352 1_554
As0 Cs1 3.817745 1_565
As0 Cs1 3.817745 1_455
As0 Cs1 3.817754 1_555
As1 Au0 2.500847 1_555
As1 K1 3.474982 1_655
As1 K1 3.474987 1_665
As1 K1 3.474987 1_555
As1 Cs2 3.672352 1_555
As1 Cs0 3.817745 1_545
As1 Cs0 3.817745 1_655
As1 Cs0 3.817754 1_555
As2 Au1 2.500847 1_555
As2 K3 3.474982 1_565
As2 K3 3.474987 1_555
As2 K3 3.474987 1_665
As2 Cs0 3.672352 1_555
As2 Cs2 3.817745 1_565
As2 Cs2 3.817745 1_455
As2 Cs2 3.817754 1_555
As3 Au0 2.500847 1_555
As3 K2 3.474982 1_655
As3 K2 3.474987 1_665
As3 K2 3.474987 1_555
As3 Cs1 3.672352 1_556
As3 Cs3 3.817745 1_545
As3 Cs3 3.817745 1_655
As3 Cs3 3.817754 1_555
Au0 Cs4 3.444426 1_545
Au0 Cs4 3.444426 1_655
Au0 Cs4 3.444437 1_555
Au1 Cs5 3.444426 1_565
Au1 Cs5 3.444426 1_455
Au1 Cs5 3.444437 1_555
