# generated using pymatgen
data_Li2Pd5Pt
_symmetry_space_group_name_H-M   'P 1'
_cell_length_a   5.44521267
_cell_length_b   5.44521320
_cell_length_c   5.47151296
_cell_angle_alpha   59.84009370
_cell_angle_beta   59.84009050
_cell_angle_gamma   60.00356413
_symmetry_Int_Tables_number   1
_chemical_formula_structural   Li2Pd5Pt
_chemical_formula_sum   'Li2 Pd5 Pt1'
_cell_volume   114.44053441
_cell_formula_units_Z   1
loop_
 _symmetry_equiv_pos_site_id
 _symmetry_equiv_pos_as_xyz
  1  'x, y, z'
loop_
 _atom_site_type_symbol
 _atom_site_label
 _atom_site_symmetry_multiplicity
 _atom_site_fract_x
 _atom_site_fract_y
 _atom_site_fract_z
 _atom_site_occupancy
  Li  Li0  1  0.50000000  0.50000000  0.50000000  1
  Li  Li1  1  0.50000000  0.50000000  0.00000000  1
  Pd  Pd0  1  0.00000000  0.00000000  0.50000000  1
  Pd  Pd1  1  0.50000000  0.00000000  0.50000000  1
  Pd  Pd2  1  0.00000000  0.50000000  0.50000000  1
  Pd  Pd3  1  0.00000000  0.50000000  0.00000000  1
  Pd  Pd4  1  0.50000000  0.00000000  0.00000000  1
  Pt  Pt0  1  0.00000000  0.00000000  0.00000000  1
loop_
_geom_bond_atom_site_label_1
_geom_bond_atom_site_label_2
_geom_bond_distance
_geom_bond_site_symmetry_2
Li0 Pd3 2.722606 1_556
Li0 Pd3 2.722606 1_655
Li0 Pd2 2.722606 1_655
Li0 Pd2 2.722606 1_555
Li0 Pd4 2.722606 1_556
Li0 Pd4 2.722606 1_565
Li0 Pd1 2.722607 1_555
Li0 Pd1 2.722607 1_565
Li0 Pd0 2.722753 1_565
Li0 Pd0 2.722753 1_655
Li1 Pd2 2.722606 1_654
Li1 Pd2 2.722606 1_555
Li1 Pd3 2.722606 1_655
Li1 Pd3 2.722606 1_555
Li1 Pd1 2.722606 1_564
Li1 Pd1 2.722606 1_555
Li1 Pd4 2.722607 1_555
Li1 Pd4 2.722607 1_565
Li1 Pt0 2.722753 1_655
Li1 Pt0 2.722753 1_565
Pd0 Pd4 2.722606 1_555
Pd0 Pd4 2.722606 1_456
Pd0 Pd1 2.722606 1_455
Pd0 Pd1 2.722606 1_555
Pd0 Pd3 2.722606 1_546
Pd0 Pd3 2.722606 1_555
Pd0 Pd2 2.722607 1_555
Pd0 Pd2 2.722607 1_545
Pd0 Pt0 2.735756 1_555
Pd0 Pt0 2.735756 1_556
Pd1 Pt0 2.722606 1_655
Pd1 Pt0 2.722606 1_556
Pd1 Pd2 2.722753 1_645
Pd1 Pd2 2.722753 1_555
Pd1 Pd4 2.735756 1_555
Pd1 Pd4 2.735756 1_556
Pd2 Pt0 2.722606 1_556
Pd2 Pt0 2.722606 1_565
Pd2 Pd3 2.735756 1_556
Pd2 Pd3 2.735756 1_555
Pd3 Pt0 2.722607 1_555
Pd3 Pt0 2.722607 1_565
Pd3 Pd4 2.722753 1_465
Pd3 Pd4 2.722753 1_555
Pd4 Pt0 2.722606 1_555
Pd4 Pt0 2.722606 1_655
