# generated using pymatgen
data_Mg6Cu3Si7Pd13
_symmetry_space_group_name_H-M   'P 1'
_cell_length_a   8.46124109
_cell_length_b   8.45100430
_cell_length_c   8.46124171
_cell_angle_alpha   60.03464133
_cell_angle_beta   60.08965489
_cell_angle_gamma   60.03464343
_symmetry_Int_Tables_number   1
_chemical_formula_structural   Mg6Cu3Si7Pd13
_chemical_formula_sum   'Mg6 Cu3 Si7 Pd13'
_cell_volume   428.33386375
_cell_formula_units_Z   1
loop_
 _symmetry_equiv_pos_site_id
 _symmetry_equiv_pos_as_xyz
  1  'x, y, z'
loop_
 _atom_site_type_symbol
 _atom_site_label
 _atom_site_symmetry_multiplicity
 _atom_site_fract_x
 _atom_site_fract_y
 _atom_site_fract_z
 _atom_site_occupancy
  Mg  Mg0  1  0.29258224  0.70658302  0.29258224  1
  Mg  Mg1  1  0.29802959  0.70133519  0.70723353  1
  Mg  Mg2  1  0.70919769  0.29424018  0.29271523  1
  Mg  Mg3  1  0.70723353  0.70133519  0.29802959  1
  Mg  Mg4  1  0.29271523  0.29424018  0.70919769  1
  Mg  Mg5  1  0.70348699  0.29996874  0.70348699  1
  Cu  Cu0  1  0.33136603  0.33140142  0.00639433  1
  Cu  Cu1  1  0.00639433  0.33140142  0.33136603  1
  Cu  Cu2  1  0.66824079  0.66765878  0.66824079  1
  Si  Si0  1  0.00041383  0.00012992  0.00041383  1
  Si  Si1  1  0.99974246  0.49942356  0.99974246  1
  Si  Si2  1  0.49717856  0.00062523  0.99961232  1
  Si  Si3  1  0.99907614  0.50075141  0.49847007  1
  Si  Si4  1  0.49964592  0.00005818  0.49964592  1
  Si  Si5  1  0.99961232  0.00062523  0.49717856  1
  Si  Si6  1  0.49847007  0.50075141  0.99907614  1
  Pd  Pd0  1  0.11504173  0.12622753  0.11504173  1
  Pd  Pd1  1  0.35157850  0.87966590  0.87775718  1
  Pd  Pd2  1  0.87848582  0.35358950  0.87848582  1
  Pd  Pd3  1  0.87775718  0.87966590  0.35157850  1
  Pd  Pd4  1  0.11492829  0.64271840  0.11492829  1
  Pd  Pd5  1  0.10926140  0.12161247  0.64586879  1
  Pd  Pd6  1  0.64586879  0.12161247  0.10926140  1
  Pd  Pd7  1  0.88284677  0.88343722  0.88284677  1
  Pd  Pd8  1  0.33987995  0.33966313  0.33987995  1
  Pd  Pd9  1  0.02318734  0.65919613  0.65860520  1
  Pd  Pd10  1  0.65828503  0.02511210  0.65828503  1
  Pd  Pd11  1  0.65860520  0.65919613  0.02318734  1
  Pd  Pd12  1  0.34088829  0.97777705  0.34088829  1
loop_
_geom_bond_atom_site_label_1
_geom_bond_atom_site_label_2
_geom_bond_distance
_geom_bond_site_symmetry_2
Mg0 Pd11 2.753228 1_555
Mg0 Pd9 2.753228 1_555
Mg0 Pd8 2.759703 1_555
Mg0 Pd12 2.761321 1_555
Mg0 Pd3 2.926048 1_455
Mg0 Pd1 2.926048 1_554
Mg0 Pd4 2.946972 1_555
Mg0 Pd0 2.949085 1_565
Mg0 Si2 3.029996 1_564
Mg0 Si5 3.029996 1_465
Mg0 Si3 3.033426 1_455
Mg0 Si6 3.033426 1_554
Mg1 Pd9 2.762608 1_555
Mg1 Pd12 2.772900 1_555
Mg1 Pd1 2.839830 1_555
Mg1 Pd4 2.876653 1_556
Mg1 Pd7 2.931746 1_455
Mg1 Pd5 2.958643 1_565
Mg1 Si6 2.995116 1_555
Mg1 Si4 3.041838 1_565
Mg1 Si1 3.043171 1_455
Mg1 Si5 3.088186 1_465
Mg2 Pd11 2.743171 1_555
Mg2 Pd10 2.747422 1_555
Mg2 Pd8 2.789730 1_555
Mg2 Pd0 2.860300 1_655
Mg2 Pd3 2.920753 1_545
Mg2 Pd2 2.922744 1_554
Mg2 Pd6 2.949152 1_555
Mg2 Si5 3.008082 1_555
Mg2 Si1 3.013672 1_554
Mg2 Si4 3.057662 1_555
Mg2 Si6 3.062005 1_554
Mg3 Pd11 2.762608 1_555
Mg3 Pd12 2.772900 1_555
Mg3 Pd3 2.839830 1_555
Mg3 Pd4 2.876653 1_655
Mg3 Pd7 2.931746 1_554
Mg3 Pd6 2.958643 1_565
Mg3 Si3 2.995115 1_555
Mg3 Si4 3.041838 1_565
Mg3 Si1 3.043171 1_554
Mg3 Si2 3.088186 1_564
Mg4 Pd9 2.743171 1_555
Mg4 Pd10 2.747422 1_555
Mg4 Pd8 2.789731 1_555
Mg4 Pd0 2.860300 1_556
Mg4 Pd1 2.920753 1_545
Mg4 Pd2 2.922744 1_455
Mg4 Pd5 2.949152 1_555
Mg4 Si2 3.008082 1_555
Mg4 Si1 3.013672 1_455
Mg4 Si4 3.057662 1_555
Mg4 Si3 3.062005 1_455
Mg5 Pd10 2.758412 1_555
Mg5 Pd2 2.849112 1_555
Mg5 Pd5 2.862282 1_655
Mg5 Pd6 2.862282 1_556
Mg5 Pd7 2.936192 1_545
Mg5 Si3 3.019240 1_555
Mg5 Si6 3.019240 1_555
Mg5 Si2 3.072844 1_555
Mg5 Si5 3.072844 1_555
Cu0 Si6 2.428339 1_554
Cu0 Si2 2.438860 1_554
Cu0 Si1 2.447508 1_454
Cu0 Pd6 2.652849 1_555
Cu0 Pd4 2.653718 1_555
Cu0 Pd0 2.664932 1_555
Cu0 Cu1 2.753389 1_555
Cu0 Mg1 2.861226 1_554
Cu0 Mg4 2.870662 1_554
Cu0 Mg5 2.889601 1_554
Cu0 Pd8 2.894239 1_555
Cu0 Pd12 2.912967 1_545
Cu1 Si3 2.428339 1_455
Cu1 Si5 2.438860 1_455
Cu1 Si1 2.447508 1_454
Cu1 Pd5 2.652850 1_555
Cu1 Pd4 2.653718 1_555
Cu1 Pd0 2.664932 1_555
Cu1 Mg3 2.861226 1_455
Cu1 Mg2 2.870662 1_455
Cu1 Mg5 2.889601 1_455
Cu1 Pd8 2.894238 1_555
Cu1 Pd12 2.912967 1_545
Cu2 Si3 2.441017 1_555
Cu2 Si6 2.441017 1_555
Cu2 Si4 2.446294 1_565
Cu2 Pd2 2.663947 1_555
Cu2 Pd3 2.678086 1_555
Cu2 Pd1 2.678086 1_555
Cu2 Mg5 2.840907 1_555
Cu2 Mg1 2.859131 1_555
Cu2 Mg3 2.859132 1_555
Cu2 Pd9 2.928920 1_655
Cu2 Pd11 2.928920 1_556
Cu2 Pd10 2.939104 1_565
Pd0 Si0 2.453593 1_555
Pd0 Si1 2.579220 1_454
Pd0 Si2 2.644413 1_554
Pd0 Si5 2.644413 1_455
Pd1 Si0 2.429083 1_566
Pd1 Si4 2.620038 1_565
Pd1 Si6 2.620216 1_555
Pd1 Si2 2.683909 1_565
Pd2 Si0 2.440474 1_656
Pd2 Si6 2.632043 1_555
Pd2 Si3 2.632043 1_555
Pd2 Si1 2.683330 1_555
Pd3 Si0 2.429084 1_665
Pd3 Si4 2.620038 1_565
Pd3 Si3 2.620216 1_555
Pd3 Si5 2.683909 1_565
Pd4 Si0 2.467817 1_565
Pd4 Si1 2.582934 1_454
Pd4 Si6 2.654200 1_554
Pd4 Si3 2.654200 1_455
Pd5 Si0 2.452373 1_556
Pd5 Si3 2.621937 1_455
Pd5 Si5 2.624063 1_455
Pd5 Si4 2.702047 1_555
Pd6 Si0 2.452373 1_655
Pd6 Si6 2.621937 1_554
Pd6 Si2 2.624063 1_554
Pd6 Si4 2.702047 1_555
Pd7 Si0 2.428676 1_666
Pd7 Si1 2.655402 1_555
Pd7 Si2 2.671961 1_565
Pd7 Si5 2.671961 1_565
Pd8 Si4 2.441901 1_555
Pd8 Si3 2.452256 1_455
Pd8 Si6 2.452256 1_554
Pd9 Si5 2.447612 1_465
Pd9 Si1 2.448935 1_455
Pd9 Si3 2.455892 1_455
Pd10 Si5 2.449580 1_555
Pd10 Si2 2.449581 1_555
Pd10 Si4 2.452128 1_555
Pd11 Si2 2.447613 1_564
Pd11 Si1 2.448935 1_554
Pd11 Si6 2.455892 1_554
Pd12 Si4 2.439091 1_565
Pd12 Si5 2.452391 1_465
Pd12 Si2 2.452391 1_564
