# generated using pymatgen
data_Ti7NbAl15Ir7
_symmetry_space_group_name_H-M   'P 1'
_cell_length_a   8.61215252
_cell_length_b   8.61706243
_cell_length_c   8.61055344
_cell_angle_alpha   120.09433676
_cell_angle_beta   119.91139052
_cell_angle_gamma   90.01490250
_symmetry_Int_Tables_number   1
_chemical_formula_structural   Ti7NbAl15Ir7
_chemical_formula_sum   'Ti7 Nb1 Al15 Ir7'
_cell_volume   451.74335930
_cell_formula_units_Z   1
loop_
 _symmetry_equiv_pos_site_id
 _symmetry_equiv_pos_as_xyz
  1  'x, y, z'
loop_
 _atom_site_type_symbol
 _atom_site_label
 _atom_site_symmetry_multiplicity
 _atom_site_fract_x
 _atom_site_fract_y
 _atom_site_fract_z
 _atom_site_occupancy
  Ti  Ti0  1  0.21417243  0.28936124  0.49606110  1
  Ti  Ti1  1  0.20516109  0.70545819  0.49685891  1
  Ti  Ti2  1  0.21781708  0.72062139  0.93023039  1
  Ti  Ti3  1  0.79169902  0.71448709  0.49805249  1
  Ti  Ti4  1  0.78218615  0.28162270  0.49653178  1
  Ti  Ti5  1  0.37975159  0.12342935  0.74493761  1
  Ti  Ti6  1  0.37900474  0.63601047  0.25599916  1
  Nb  Nb0  1  0.79624544  0.29629730  0.08622594  1
  Al  Al0  1  0.00248692  0.50137562  0.51192609  1
  Al  Al1  1  0.15556585  0.34060144  0.18422952  1
  Al  Al2  1  0.15375786  0.96492010  0.81030497  1
  Al  Al3  1  0.14916785  0.34643729  0.80209927  1
  Al  Al4  1  0.53697984  0.34452912  0.19281925  1
  Al  Al5  1  0.84487423  0.65190853  0.80613153  1
  Al  Al6  1  0.84349365  0.03255652  0.18873821  1
  Al  Al7  1  0.84030343  0.65680714  0.18294984  1
  Al  Al8  1  0.46624757  0.65445075  0.81133033  1
  Al  Al9  1  0.37992188  0.12214991  0.25908966  1
  Al  Al10  1  0.86413541  0.12203640  0.74327908  1
  Al  Al11  1  0.62216984  0.87853505  0.25748507  1
  Al  Al12  1  0.62168118  0.36512945  0.74307590  1
  Al  Al13  1  0.62248580  0.87826652  0.74439264  1
  Al  Al14  1  0.13466778  0.87858165  0.25674391  1
  Ir  Ir0  1  0.00178562  0.99922185  0.50128725  1
  Ir  Ir1  1  0.49663125  0.99818599  0.99835339  1
  Ir  Ir2  1  0.49579588  0.49815392  0.99967674  1
  Ir  Ir3  1  0.49725814  0.50005852  0.49751864  1
  Ir  Ir4  1  0.00309878  0.50130117  0.00201873  1
  Ir  Ir5  1  0.00114371  0.99771271  0.00014032  1
  Ir  Ir6  1  0.50030398  0.99979463  0.50151326  1
loop_
_geom_bond_atom_site_label_1
_geom_bond_atom_site_label_2
_geom_bond_distance
_geom_bond_site_symmetry_2
Ti0 Ti5 2.948974 1_555
Ti1 Ti6 2.958609 1_555
Ti1 Ti5 2.978981 1_565
Ti2 Ti6 2.914612 1_556
Ti3 Ti6 2.937849 1_555
Nb0 Ti5 2.969077 1_554
Al0 Ti2 2.548322 1_555
Al0 Ti1 2.570829 1_555
Al0 Ti0 2.584526 1_555
Al0 Ti3 2.586025 1_455
Al0 Ti4 2.588163 1_455
Al0 Nb0 2.592846 1_455
Al1 Ir3 2.487628 1_555
Al1 Ir5 2.492014 1_545
Al1 Ir4 2.495678 1_555
Al1 Ti0 2.737996 1_555
Al1 Nb0 2.739684 1_455
Al1 Al10 2.754036 1_454
Al1 Al9 2.769281 1_555
Al1 Ti1 2.771037 1_555
Al1 Ti6 2.792588 1_555
Al2 Ir5 2.481698 1_556
Al2 Ir1 2.487783 1_555
Al2 Ir0 2.489185 1_555
Al2 Ti2 2.723000 1_555
Al2 Ti3 2.724924 1_455
Al2 Ti1 2.760379 1_555
Al2 Al9 2.793514 1_566
Al2 Ti5 2.798682 1_565
Al3 Ir4 2.486646 1_556
Al3 Ir2 2.493478 1_555
Al3 Ir0 2.493859 1_545
Al3 Ti4 2.730474 1_455
Al3 Ti0 2.769666 1_555
Al3 Ti2 2.782853 1_555
Al3 Ti5 2.811906 1_555
Al3 Ti6 2.814483 1_556
Al4 Ir3 2.483090 1_555
Al4 Ir1 2.497825 1_544
Al4 Ir2 2.502760 1_554
Al4 Ti4 2.739847 1_555
Al4 Nb0 2.768121 1_555
Al4 Al9 2.773479 1_555
Al4 Ti3 2.779680 1_555
Al4 Ti5 2.785364 1_554
Al4 Ti6 2.797366 1_555
Al5 Ir5 2.498971 1_656
Al5 Ir4 2.507979 1_656
Al5 Ir3 2.512547 1_555
Al5 Ti4 2.759091 1_555
Al5 Ti2 2.783880 1_655
Al5 Ti3 2.785783 1_555
Al6 Ir5 2.506157 1_645
Al6 Ir0 2.510001 1_645
Al6 Ir1 2.515427 1_544
Al6 Ti4 2.756964 1_555
Al6 Nb0 2.786358 1_555
Al6 Ti0 2.790927 1_655
Al7 Ir0 2.497757 1_655
Al7 Ir4 2.504827 1_655
Al7 Ir2 2.515340 1_554
Al7 Ti3 2.750299 1_555
Al7 Nb0 2.752771 1_555
Al7 Ti1 2.783450 1_655
Al8 Ir1 2.496194 1_555
Al8 Ir3 2.501474 1_555
Al8 Ir2 2.507558 1_555
Al8 Ti0 2.744783 1_555
Al8 Ti2 2.747836 1_555
Al8 Ti1 2.775421 1_555
Al9 Ir6 2.567703 1_545
Al9 Ir1 2.652879 1_544
Al9 Ir3 2.658041 1_555
Al9 Ir5 2.666292 1_545
Al9 Ti2 2.858025 1_544
Al9 Ti4 2.861162 1_555
Al9 Ti0 2.869621 1_555
Al10 Ir6 2.560284 1_545
Al10 Ir4 2.667125 1_656
Al10 Ir0 2.668292 1_645
Al10 Ir5 2.684359 1_646
Al10 Al2 2.781574 1_645
Al10 Al3 2.792281 1_655
Al10 Ti4 2.887615 1_555
Al10 Ti3 2.903375 1_545
Al10 Nb0 2.931245 1_556
Al10 Al11 2.957149 1_545
Al10 Al12 2.958081 1_555
Al10 Al13 2.963348 1_545
Al11 Ir6 2.570324 1_555
Al11 Ir1 2.666885 1_554
Al11 Ir0 2.672249 1_655
Al11 Ir2 2.673529 1_554
Al11 Al7 2.750666 1_555
Al11 Al6 2.767102 1_565
Al11 Al8 2.775717 1_554
Al11 Ti4 2.863439 1_565
Al11 Ti2 2.878270 1_554
Al11 Ti3 2.888272 1_555
Al11 Ti6 2.949134 1_555
Al11 Al9 2.959984 1_565
Al12 Ir6 2.567649 1_545
Al12 Ir3 2.679016 1_555
Al12 Ir4 2.684804 1_656
Al12 Ir2 2.687159 1_555
Al12 Al7 2.747065 1_556
Al12 Al8 2.769440 1_555
Al12 Al5 2.776235 1_555
Al12 Ti4 2.886228 1_555
Al12 Ti0 2.903197 1_555
Al12 Nb0 2.944506 1_556
Al12 Al9 2.946147 1_555
Al12 Ti5 2.956981 1_555
Al13 Ir6 2.565096 1_555
Al13 Ir3 2.658452 1_555
Al13 Ir5 2.665794 1_656
Al13 Ir1 2.668844 1_555
Al13 Al6 2.768328 1_566
Al13 Al8 2.783741 1_555
Al13 Al5 2.789581 1_555
Al13 Ti3 2.948972 1_555
Al13 Ti5 2.972408 1_565
Al13 Ti6 2.973050 1_555
Al13 Nb0 2.974927 1_566
Al13 Ti1 2.975235 1_555
Al14 Ir6 2.573010 1_555
Al14 Ir5 2.645629 1_555
Al14 Ir4 2.651880 1_555
Al14 Ir0 2.651942 1_555
Al14 Al7 2.766918 1_455
Al14 Al6 2.776325 1_465
Al14 Al5 2.799663 1_454
Al14 Ti2 2.905253 1_554
Al14 Ti0 2.919135 1_565
Al14 Ti1 2.951361 1_555
Al14 Al9 2.963010 1_565
Al14 Ti6 2.966384 1_555
Al14 Ti5 2.971788 1_565
Ir0 Ti5 2.660494 1_565
Ir0 Ti3 3.028741 1_455
Ir0 Ti1 3.073956 1_555
Ir0 Ti0 3.129048 1_565
Ir1 Ti5 2.666640 1_565
Ir1 Ti2 3.002630 1_555
Ir1 Ti1 3.094062 1_555
Ir1 Nb0 3.151149 1_566
Ir2 Ti6 2.622846 1_556
Ir2 Ti5 2.635488 1_555
Ir2 Ti3 3.074580 1_556
Ir2 Ti2 3.080261 1_555
Ir2 Ti0 3.099713 1_555
Ir2 Nb0 3.107304 1_556
Ir3 Ti6 2.658197 1_555
Ir3 Ti0 3.030610 1_555
Ir3 Ti1 3.075555 1_555
Ir3 Ti3 3.133964 1_555
Ir4 Ti6 2.646116 1_555
Ir4 Ti1 3.060129 1_555
Ir4 Nb0 3.064478 1_455
Ir4 Ti2 3.111753 1_554
Ir5 Ti2 3.037557 1_554
Ir5 Ti0 3.055866 1_565
Ir5 Ti3 3.088635 1_454
Ir5 Nb0 3.110869 1_465
Ir6 Ti6 2.556761 1_555
Ir6 Ti5 2.556885 1_565
