# generated using pymatgen
data_Y6Zn4PdPt12
_symmetry_space_group_name_H-M   'P 1'
_cell_length_a   8.21687955
_cell_length_b   8.21057376
_cell_length_c   8.21057432
_cell_angle_alpha   109.42470846
_cell_angle_beta   109.47892355
_cell_angle_gamma   109.47891539
_symmetry_Int_Tables_number   1
_chemical_formula_structural   Y6Zn4PdPt12
_chemical_formula_sum   'Y6 Zn4 Pd1 Pt12'
_cell_volume   426.57817425
_cell_formula_units_Z   1
loop_
 _symmetry_equiv_pos_site_id
 _symmetry_equiv_pos_as_xyz
  1  'x, y, z'
loop_
 _atom_site_type_symbol
 _atom_site_label
 _atom_site_symmetry_multiplicity
 _atom_site_fract_x
 _atom_site_fract_y
 _atom_site_fract_z
 _atom_site_occupancy
  Y  Y0  1  0.69933171  0.69738656  0.00194514  1
  Y  Y1  1  0.30250572  0.00041393  0.30209179  1
  Y  Y2  1  0.99854193  0.29981390  0.29981390  1
  Y  Y3  1  0.30250572  0.30209179  0.00041393  1
  Y  Y4  1  0.69933171  0.00194514  0.69738656  1
  Y  Y5  1  0.99854193  0.69872803  0.69872803  1
  Zn  Zn0  1  0.00069224  0.00034662  0.50034662  1
  Zn  Zn1  1  0.00069224  0.50034662  0.00034662  1
  Zn  Zn2  1  0.49944385  0.99817703  0.99817703  1
  Zn  Zn3  1  0.49944385  0.50126682  0.50126682  1
  Pd  Pd0  1  0.33564485  0.66782392  0.66782392  1
  Pt  Pt0  1  0.32955189  0.32987562  0.65835098  1
  Pt  Pt1  1  0.67156316  0.00027291  0.32818028  1
  Pt  Pt2  1  0.00100116  0.67051087  0.33049029  1
  Pt  Pt3  1  0.67156316  0.32818028  0.00027291  1
  Pt  Pt4  1  0.32955189  0.65835098  0.32987562  1
  Pt  Pt5  1  0.00100116  0.33049029  0.67051087  1
  Pt  Pt6  1  0.32955189  0.67120291  0.99967626  1
  Pt  Pt7  1  0.32955189  0.99967626  0.67120291  1
  Pt  Pt8  1  0.65803020  0.32901410  0.32901410  1
  Pt  Pt9  1  0.67156316  0.67129025  0.34338089  1
  Pt  Pt10  1  0.67156316  0.34338089  0.67129025  1
  Pt  Pt11  1  0.99883153  0.99941626  0.99941626  1
loop_
_geom_bond_atom_site_label_1
_geom_bond_atom_site_label_2
_geom_bond_distance
_geom_bond_site_symmetry_2
Y0 Zn1 3.380615 1_655
Y0 Zn0 3.380622 1_665
Y0 Zn2 3.394114 1_554
Y0 Zn3 3.394114 1_554
Y4 Zn0 3.380616 1_655
Y4 Zn1 3.380622 1_656
Y4 Zn3 3.394114 1_545
Y4 Zn2 3.394114 1_545
Pd0 Zn2 2.600534 1_555
Pd0 Zn3 2.600560 1_555
Pd0 Pt7 2.732925 1_555
Pd0 Pt6 2.732925 1_555
Pd0 Pt0 2.732947 1_555
Pd0 Pt4 2.732947 1_555
Pd0 Y5 2.948891 1_455
Pd0 Y2 2.948909 1_455
Pd0 Y0 3.181352 1_556
Pd0 Y4 3.181353 1_565
Pt0 Zn3 2.586566 1_555
Pt0 Zn0 2.599376 1_555
Pt0 Pt5 2.736179 1_555
Pt0 Pt10 2.739781 1_555
Pt0 Pt7 2.748022 1_545
Pt0 Y3 2.966122 1_556
Pt0 Y0 2.966914 1_556
Pt0 Y1 3.134574 1_555
Pt0 Y2 3.139056 1_455
Pt1 Zn2 2.595973 1_544
Pt1 Zn0 2.600161 1_655
Pt1 Pt8 2.736098 1_555
Pt1 Pt6 2.739770 1_544
Pt1 Pt9 2.745167 1_545
Pt1 Pt5 2.746096 1_655
Pt1 Y4 2.958132 1_555
Pt1 Y1 2.968373 1_555
Pt1 Y2 3.116563 1_555
Pt1 Y0 3.125180 1_545
Pt2 Zn1 2.602651 1_555
Pt2 Zn0 2.602660 1_565
Pt2 Pt4 2.736179 1_555
Pt2 Pt7 2.736185 1_555
Pt2 Pt9 2.746090 1_455
Pt2 Pt3 2.746096 1_455
Pt2 Y2 2.961968 1_455
Pt2 Y5 2.961968 1_455
Pt2 Y0 3.125871 1_455
Pt2 Y1 3.139895 1_565
Pt3 Zn2 2.595973 1_544
Pt3 Zn1 2.600161 1_655
Pt3 Pt8 2.736098 1_555
Pt3 Pt7 2.739770 1_544
Pt3 Y0 2.958132 1_555
Pt3 Y3 2.968374 1_555
Pt3 Y2 3.116563 1_555
Pt3 Y4 3.125180 1_554
Pt4 Zn3 2.586566 1_555
Pt4 Zn1 2.599376 1_555
Pt4 Pt9 2.739781 1_555
Pt4 Pt6 2.748022 1_554
Pt4 Y1 2.966122 1_565
Pt4 Y4 2.966914 1_565
Pt4 Y3 3.134574 1_555
Pt4 Y2 3.139057 1_455
Pt5 Zn0 2.602651 1_555
Pt5 Zn1 2.602660 1_556
Pt5 Pt6 2.736185 1_555
Pt5 Y5 2.961968 1_455
Pt5 Y2 2.961968 1_455
Pt5 Y4 3.125871 1_455
Pt5 Y3 3.139895 1_556
Pt6 Zn2 2.586552 1_555
Pt6 Zn1 2.599382 1_556
Pt6 Y3 2.966138 1_556
Pt6 Y0 2.966919 1_556
Pt6 Y1 3.134564 1_566
Pt6 Y5 3.139046 1_455
Pt7 Zn2 2.586552 1_555
Pt7 Zn0 2.599382 1_565
Pt7 Y1 2.966139 1_565
Pt7 Y4 2.966919 1_565
Pt7 Y3 3.134564 1_566
Pt7 Y5 3.139047 1_455
Pt8 Zn2 2.612693 1_544
Pt8 Zn3 2.612710 1_555
Pt8 Pt9 2.736114 1_555
Pt8 Y2 2.966474 1_555
Pt8 Y5 2.966486 1_555
Pt8 Y3 3.127023 1_555
Pt8 Y1 3.127023 1_555
Pt9 Zn3 2.595987 1_555
Pt9 Zn0 2.600160 1_665
Pt9 Y0 2.958116 1_555
Pt9 Y3 2.968369 1_555
Pt9 Y5 3.116573 1_555
Pt9 Y4 3.125190 1_565
Pt10 Zn3 2.595987 1_555
Pt10 Zn1 2.600160 1_656
Pt10 Pt8 2.736114 1_555
Pt10 Pt3 2.745167 1_556
Pt10 Pt5 2.746090 1_655
Pt10 Y4 2.958115 1_555
Pt10 Y1 2.968369 1_555
Pt10 Y5 3.116573 1_555
Pt10 Y0 3.125190 1_556
Pt11 Y2 2.851005 1_566
Pt11 Y5 2.851015 1_555
Pt11 Y4 2.864365 1_565
Pt11 Y0 2.864365 1_556
Pt11 Y1 2.870453 1_666
Pt11 Y3 2.870453 1_666
