# generated using pymatgen
data_Lu4GePt3F28
_symmetry_space_group_name_H-M   'P 1'
_cell_length_a   5.32859814
_cell_length_b   8.55341356
_cell_length_c   11.57145597
_cell_angle_alpha   62.60697244
_cell_angle_beta   90.12025405
_cell_angle_gamma   90.08476408
_symmetry_Int_Tables_number   1
_chemical_formula_structural   Lu4GePt3F28
_chemical_formula_sum   'Lu4 Ge1 Pt3 F28'
_cell_volume   468.26260317
_cell_formula_units_Z   1
loop_
 _symmetry_equiv_pos_site_id
 _symmetry_equiv_pos_as_xyz
  1  'x, y, z'
loop_
 _atom_site_type_symbol
 _atom_site_label
 _atom_site_symmetry_multiplicity
 _atom_site_fract_x
 _atom_site_fract_y
 _atom_site_fract_z
 _atom_site_occupancy
  Lu  Lu0  1  0.25926240  0.81413117  0.26174832  1
  Lu  Lu1  1  0.73927082  0.18159294  0.73780869  1
  Lu  Lu2  1  0.76165466  0.18911052  0.23390100  1
  Lu  Lu3  1  0.23754611  0.81273418  0.76815531  1
  Ge  Ge0  1  0.75833739  0.72582387  0.04404493  1
  Pt  Pt0  1  0.24313592  0.27045835  0.95798738  1
  Pt  Pt1  1  0.25913783  0.27121473  0.45731810  1
  Pt  Pt2  1  0.73850431  0.72918290  0.54328733  1
  F  F0  1  0.92772782  0.70393543  0.40895571  1
  F  F1  1  0.06287373  0.29833290  0.58804509  1
  F  F2  1  0.43769565  0.30005571  0.08825137  1
  F  F3  1  0.55084988  0.70973475  0.92686680  1
  F  F4  1  0.49441565  0.72934108  0.14019590  1
  F  F5  1  0.54937631  0.26887805  0.86864932  1
  F  F6  1  0.95706562  0.28282893  0.35935685  1
  F  F7  1  0.04320414  0.71886125  0.63906820  1
  F  F8  1  0.96087400  0.74192042  0.16474138  1
  F  F9  1  0.05473808  0.25063885  0.82165104  1
  F  F10  1  0.44734683  0.25435430  0.32000245  1
  F  F11  1  0.55748881  0.74751637  0.68283916  1
  F  F12  1  0.77341743  0.48962839  0.13503507  1
  F  F13  1  0.23271092  0.52462634  0.85859635  1
  F  F14  1  0.28016867  0.52610965  0.35708470  1
  F  F15  1  0.71327548  0.47409513  0.64313523  1
  F  F16  1  0.92949242  0.27963606  0.04111823  1
  F  F17  1  0.03670642  0.71936564  0.95521143  1
  F  F18  1  0.42358305  0.73114160  0.45611362  1
  F  F19  1  0.57259272  0.26999328  0.54441631  1
  F  F20  1  0.75071312  0.98425794  0.44862918  1
  F  F21  1  0.25410371  0.01631371  0.55183098  1
  F  F22  1  0.24424831  0.01571885  0.05071184  1
  F  F23  1  0.76074869  0.96249427  0.95136403  1
  F  F24  1  0.58569855  0.97172205  0.23167467  1
  F  F25  1  0.40606586  0.03317994  0.76919530  1
  F  F26  1  0.08625133  0.03271862  0.26462879  1
  F  F27  1  0.90971736  0.96835281  0.72838395  1
loop_
_geom_bond_atom_site_label_1
_geom_bond_atom_site_label_2
_geom_bond_distance
_geom_bond_site_symmetry_2
F0 Pt2 1.948231 1_555
F0 Lu0 2.332643 1_655
F1 Pt1 1.940624 1_555
F1 Lu1 2.321380 1_455
F2 Pt0 1.937728 1_554
F2 Lu2 2.289517 1_555
F3 Ge0 1.801337 1_556
F3 Lu3 2.332114 1_555
F4 Ge0 1.803903 1_555
F4 Lu0 2.241246 1_555
F5 Pt0 1.936943 1_555
F5 Lu1 2.218628 1_555
F6 Pt1 1.942907 1_655
F6 Lu2 2.212754 1_555
F7 Pt2 1.942977 1_455
F7 Lu3 2.245664 1_555
F8 Ge0 1.817819 1_555
F8 Lu0 2.190246 1_655
F9 Pt0 1.940192 1_555
F9 Lu1 2.152495 1_455
F10 Pt1 1.941468 1_555
F10 Lu2 2.151859 1_555
F11 Pt2 1.950026 1_555
F11 Lu3 2.170010 1_555
F12 Ge0 1.799814 1_555
F12 Lu2 2.283381 1_555
F13 Pt0 1.936864 1_555
F13 Lu3 2.189861 1_555
F14 Pt1 1.945277 1_555
F14 Lu0 2.190443 1_555
F15 Pt2 1.947727 1_555
F15 Lu1 2.226455 1_555
F16 Pt0 1.949692 1_654
F16 Lu2 2.189213 1_555
F17 Ge0 1.821763 1_456
F17 Lu3 2.210150 1_555
F18 Pt2 1.952234 1_555
F18 Lu0 2.203055 1_555
F19 Pt1 1.946533 1_555
F19 Lu1 2.192046 1_555
F20 Pt2 1.940345 1_555
F20 Lu2 2.289431 1_565
F21 Pt1 1.938091 1_555
F21 Lu3 2.301181 1_545
F22 Pt0 1.935871 1_554
F22 Lu0 2.251191 1_545
F23 Ge0 1.802922 1_556
F23 Lu1 2.317271 1_565
F24 Lu2 2.091888 1_565
F24 Lu0 2.127836 1_555
F25 Lu3 2.092290 1_545
F25 Lu1 2.113676 1_555
F26 Lu0 2.099823 1_545
F26 Lu2 2.115205 1_455
F27 Lu1 2.086115 1_565
F27 Lu3 2.115399 1_655
