# generated using pymatgen
data_Rb2LiInBi2
_symmetry_space_group_name_H-M   'P 1'
_cell_length_a   11.24856091
_cell_length_b   11.24855977
_cell_length_c   7.07919046
_cell_angle_alpha   90.00000000
_cell_angle_beta   90.00000000
_cell_angle_gamma   101.28672345
_symmetry_Int_Tables_number   1
_chemical_formula_structural   Rb2LiInBi2
_chemical_formula_sum   'Rb8 Li4 In4 Bi8'
_cell_volume   878.40734557
_cell_formula_units_Z   4
loop_
 _symmetry_equiv_pos_site_id
 _symmetry_equiv_pos_as_xyz
  1  'x, y, z'
loop_
 _atom_site_type_symbol
 _atom_site_label
 _atom_site_symmetry_multiplicity
 _atom_site_fract_x
 _atom_site_fract_y
 _atom_site_fract_z
 _atom_site_occupancy
  Rb  Rb0  1  0.57908766  0.92091234  0.75000000  1
  Rb  Rb1  1  0.92091234  0.57908766  0.25000000  1
  Rb  Rb2  1  0.42091234  0.07908766  0.25000000  1
  Rb  Rb3  1  0.07908766  0.42091234  0.75000000  1
  Rb  Rb4  1  0.66911216  0.33088784  0.76971435  1
  Rb  Rb5  1  0.83088784  0.16911216  0.26971435  1
  Rb  Rb6  1  0.33088784  0.66911216  0.23028565  1
  Rb  Rb7  1  0.16911216  0.83088784  0.73028565  1
  Li  Li0  1  0.62055917  0.62055917  0.00000000  1
  Li  Li1  1  0.87944083  0.87944083  0.50000000  1
  Li  Li2  1  0.37944083  0.37944083  0.00000000  1
  Li  Li3  1  0.12055917  0.12055917  0.50000000  1
  In  In0  1  0.86878616  0.86878616  0.00000000  1
  In  In1  1  0.63121384  0.63121384  0.50000000  1
  In  In2  1  0.13121384  0.13121384  0.00000000  1
  In  In3  1  0.36878616  0.36878616  0.50000000  1
  Bi  Bi0  1  0.34971849  0.15028151  0.75000000  1
  Bi  Bi1  1  0.15028151  0.34971849  0.25000000  1
  Bi  Bi2  1  0.65028151  0.84971849  0.25000000  1
  Bi  Bi3  1  0.84971849  0.65028151  0.75000000  1
  Bi  Bi4  1  0.90324839  0.09675161  0.76883486  1
  Bi  Bi5  1  0.59675161  0.40324839  0.26883486  1
  Bi  Bi6  1  0.09675161  0.90324839  0.23116514  1
  Bi  Bi7  1  0.40324839  0.59675161  0.73116514  1
loop_
_geom_bond_atom_site_label_1
_geom_bond_atom_site_label_2
_geom_bond_distance
_geom_bond_site_symmetry_2
Rb0 Rb2 4.483228 1_566
Rb0 Rb2 4.483228 1_565
Rb0 Rb4 4.525936 1_565
Rb0 Rb7 4.525937 1_555
Rb1 Rb3 4.483228 1_654
Rb1 Rb3 4.483228 1_655
Rb1 Rb5 4.525936 1_555
Rb1 Rb6 4.525937 1_655
Rb2 Rb6 4.525936 1_545
Rb2 Rb5 4.525937 1_555
Rb3 Rb7 4.525936 1_555
Rb3 Rb4 4.525937 1_455
Rb4 Rb5 4.521935 1_555
Rb4 Rb5 4.521935 1_556
Rb6 Rb7 4.521935 1_554
Rb6 Rb7 4.521935 1_555
Li0 Rb4 3.777515 1_554
Li0 Rb6 3.777515 1_555
Li0 Rb0 3.921896 1_554
Li0 Rb1 3.921897 1_555
Li1 Rb5 3.777515 1_565
Li1 Rb7 3.777515 1_655
Li1 Rb1 3.921896 1_555
Li1 Rb0 3.921897 1_555
Li2 Rb6 3.777515 1_555
Li2 Rb4 3.777515 1_554
Li2 Rb2 3.921896 1_555
Li2 Rb3 3.921897 1_554
Li3 Rb7 3.777515 1_545
Li3 Rb5 3.777515 1_455
Li3 Rb3 3.921896 1_555
Li3 Rb2 3.921897 1_555
In0 Rb1 3.852658 1_555
In0 Rb0 3.852659 1_554
In0 Rb5 3.975372 1_565
In0 Rb7 3.975373 1_654
In1 Rb0 3.852658 1_555
In1 Rb1 3.852659 1_555
In1 Rb4 3.975372 1_555
In1 Rb6 3.975373 1_555
In2 Rb3 3.852658 1_554
In2 Rb2 3.852659 1_555
In2 Rb7 3.975372 1_544
In2 Rb5 3.975373 1_455
In3 Rb2 3.852658 1_555
In3 Rb3 3.852659 1_555
In3 Rb6 3.975372 1_555
In3 Rb4 3.975373 1_555
Bi0 In3 3.002153 1_555
Bi0 In2 3.002153 1_556
Bi0 Li2 3.090504 1_556
Bi0 Li3 3.090504 1_555
Bi0 Rb2 3.749990 1_555
Bi0 Rb2 3.749990 1_556
Bi0 Rb7 3.767932 1_545
Bi0 Rb4 3.767932 1_555
Bi0 Rb0 3.989896 1_545
Bi1 In2 3.002153 1_555
Bi1 In3 3.002153 1_555
Bi1 Li3 3.090504 1_555
Bi1 Li2 3.090504 1_555
Bi1 Rb3 3.749990 1_554
Bi1 Rb3 3.749990 1_555
Bi1 Rb6 3.767932 1_555
Bi1 Rb5 3.767932 1_455
Bi1 Rb1 3.989896 1_455
Bi2 In1 3.002153 1_555
Bi2 In0 3.002153 1_555
Bi2 Li0 3.090504 1_555
Bi2 Li1 3.090504 1_555
Bi2 Rb0 3.749990 1_555
Bi2 Rb0 3.749990 1_554
Bi2 Rb5 3.767932 1_565
Bi2 Rb6 3.767932 1_555
Bi2 Rb2 3.989896 1_565
Bi3 In0 3.002153 1_556
Bi3 In1 3.002153 1_555
Bi3 Li1 3.090504 1_555
Bi3 Li0 3.090504 1_556
Bi3 Rb1 3.749990 1_556
Bi3 Rb1 3.749990 1_555
Bi3 Rb4 3.767932 1_555
Bi3 Rb7 3.767932 1_655
Bi3 Rb3 3.989896 1_655
Bi4 In0 3.002453 1_546
Bi4 In2 3.002453 1_656
Bi4 Li1 3.068003 1_545
Bi4 Li3 3.068003 1_655
Bi4 Rb5 3.750876 1_555
Bi4 Rb5 3.762608 1_556
Bi4 Rb3 3.795087 1_655
Bi4 Rb0 3.795087 1_545
Bi4 Rb4 4.072824 1_555
Bi5 In1 3.002453 1_555
Bi5 In3 3.002453 1_555
Bi5 Li0 3.068003 1_555
Bi5 Li2 3.068003 1_555
Bi5 Rb4 3.750876 1_554
Bi5 Rb4 3.762608 1_555
Bi5 Rb2 3.795087 1_555
Bi5 Rb1 3.795087 1_555
Bi5 Rb5 4.072824 1_555
Bi6 In2 3.002453 1_565
Bi6 In0 3.002453 1_455
Bi6 Li3 3.068003 1_565
Bi6 Li1 3.068003 1_455
Bi6 Rb7 3.750876 1_555
Bi6 Rb7 3.762608 1_554
Bi6 Rb1 3.795087 1_455
Bi6 Rb2 3.795087 1_565
Bi6 Rb6 4.072824 1_555
Bi7 In3 3.002453 1_555
Bi7 In1 3.002453 1_555
Bi7 Li2 3.068003 1_556
Bi7 Li0 3.068003 1_556
Bi7 Rb6 3.750876 1_556
Bi7 Rb6 3.762608 1_555
Bi7 Rb0 3.795087 1_555
Bi7 Rb3 3.795087 1_555
Bi7 Rb7 4.072824 1_555
