# generated using pymatgen
data_ErCoSn2
_symmetry_space_group_name_H-M   'P 1'
_cell_length_a   9.63964160
_cell_length_b   9.63964160
_cell_length_c   4.37733600
_cell_angle_alpha   90.00000000
_cell_angle_beta   90.00000000
_cell_angle_gamma   154.21685496
_symmetry_Int_Tables_number   1
_chemical_formula_structural   ErCoSn2
_chemical_formula_sum   'Er2 Co2 Sn4'
_cell_volume   176.92418303
_cell_formula_units_Z   2
loop_
 _symmetry_equiv_pos_site_id
 _symmetry_equiv_pos_as_xyz
  1  'x, y, z'
loop_
 _atom_site_type_symbol
 _atom_site_label
 _atom_site_symmetry_multiplicity
 _atom_site_fract_x
 _atom_site_fract_y
 _atom_site_fract_z
 _atom_site_occupancy
  Er  Er0  1  0.11784400  0.88215600  0.75000000  1
  Er  Er1  1  0.88215600  0.11784400  0.25000000  1
  Co  Co0  1  0.67673600  0.32326400  0.25000000  1
  Co  Co1  1  0.32326400  0.67673600  0.75000000  1
  Sn  Sn0  1  0.74900800  0.25099200  0.75000000  1
  Sn  Sn1  1  0.25099200  0.74900800  0.25000000  1
  Sn  Sn2  1  0.54788800  0.45211200  0.25000000  1
  Sn  Sn3  1  0.45211200  0.54788800  0.75000000  1
loop_
_geom_bond_atom_site_label_1
_geom_bond_atom_site_label_2
_geom_bond_distance
_geom_bond_site_symmetry_2
Er0 Sn0 3.271337 1_455
Er0 Sn0 3.271337 1_565
Er0 Sn1 3.324416 1_555
Er0 Sn1 3.324416 1_556
Er0 Sn2 3.338278 1_456
Er0 Sn2 3.338278 1_455
Er0 Sn2 3.338278 1_565
Er0 Sn2 3.338278 1_566
Er0 Sn3 3.785031 1_565
Er0 Sn3 3.785031 1_455
Er1 Sn1 3.271337 1_545
Er1 Sn1 3.271337 1_655
Er1 Sn0 3.324416 1_555
Er1 Sn0 3.324416 1_554
Er1 Sn3 3.338278 1_544
Er1 Sn3 3.338278 1_545
Er1 Sn3 3.338278 1_655
Er1 Sn3 3.338278 1_654
Er1 Sn2 3.785031 1_655
Er1 Sn2 3.785031 1_545
Co0 Sn2 2.421483 1_555
Co0 Sn1 2.563756 1_545
Co0 Sn1 2.563756 1_655
Co0 Sn0 2.575861 1_555
Co0 Sn0 2.575861 1_554
Co0 Er0 3.261993 1_544
Co0 Er0 3.261993 1_545
Co0 Er0 3.261993 1_655
Co0 Er0 3.261993 1_654
Co1 Sn3 2.421483 1_555
Co1 Sn0 2.563756 1_455
Co1 Sn0 2.563756 1_565
Co1 Sn1 2.575861 1_556
Co1 Sn1 2.575861 1_555
Co1 Er1 3.261993 1_456
Co1 Er1 3.261993 1_565
Co1 Er1 3.261993 1_566
Co1 Er1 3.261993 1_455
Sn2 Sn3 2.833741 1_554
Sn2 Sn3 2.833741 1_555
