# generated using pymatgen
data_Lu(MnGe)6
_symmetry_space_group_name_H-M   'P 1'
_cell_length_a   5.13106811
_cell_length_b   5.13106723
_cell_length_c   8.14010512
_cell_angle_alpha   89.99998058
_cell_angle_beta   90.00001446
_cell_angle_gamma   119.99957094
_symmetry_Int_Tables_number   1
_chemical_formula_structural   Lu(MnGe)6
_chemical_formula_sum   'Lu1 Mn6 Ge6'
_cell_volume   185.60001526
_cell_formula_units_Z   1
loop_
 _symmetry_equiv_pos_site_id
 _symmetry_equiv_pos_as_xyz
  1  'x, y, z'
loop_
 _atom_site_type_symbol
 _atom_site_label
 _atom_site_symmetry_multiplicity
 _atom_site_fract_x
 _atom_site_fract_y
 _atom_site_fract_z
 _atom_site_occupancy
  Lu  Lu0  1  0.00000043  0.00000031  0.49996156  1
  Mn  Mn0  1  0.50000062  -0.00000097  0.24899267  1
  Mn  Mn1  1  0.49999880  0.49999876  0.24899390  1
  Mn  Mn2  1  -0.00000013  0.50000156  0.24899288  1
  Mn  Mn3  1  0.50000197  0.00000025  0.75101481  1
  Mn  Mn4  1  0.49999766  0.49999781  0.75101383  1
  Mn  Mn5  1  -0.00000123  0.50000101  0.75101453  1
  Ge  Ge0  1  0.00000058  -0.00000023  0.15816123  1
  Ge  Ge1  1  -0.00000038  0.99999929  0.84184427  1
  Ge  Ge2  1  0.33333769  0.66666656  0.50002328  1
  Ge  Ge3  1  0.66666347  0.33333393  0.50002399  1
  Ge  Ge4  1  0.33333747  0.66666679  0.99998231  1
  Ge  Ge5  1  0.66666304  0.33333393  0.99998173  1
loop_
_geom_bond_atom_site_label_1
_geom_bond_atom_site_label_2
_geom_bond_distance
_geom_bond_site_symmetry_2
Ge0 Ge1 2.574853 1_544
Ge0 Mn2 2.669941 1_545
Ge0 Mn0 2.669950 1_455
Ge0 Mn0 2.669954 1_555
Ge0 Mn2 2.669963 1_555
Ge0 Mn1 2.669964 1_555
Ge0 Mn1 2.669977 1_445
Ge0 Lu0 2.782291 1_555
Ge1 Mn5 2.669937 1_555
Ge1 Mn3 2.669938 1_465
Ge1 Mn3 2.669957 1_565
Ge1 Mn4 2.669957 1_565
Ge1 Mn5 2.669958 1_565
Ge1 Mn4 2.669974 1_455
Ge1 Lu0 2.782961 1_565
Ge2 Mn4 2.523515 1_555
Ge2 Mn3 2.523541 1_565
Ge2 Mn5 2.523553 1_555
Ge2 Mn1 2.523773 1_555
Ge2 Mn0 2.523795 1_565
Ge2 Mn2 2.523808 1_555
Ge2 Lu0 2.962419 1_665
Ge2 Lu0 2.962434 1_555
Ge2 Lu0 2.962436 1_565
Ge3 Mn4 2.523514 1_555
Ge3 Mn3 2.523536 1_555
Ge3 Mn5 2.523539 1_655
Ge3 Mn1 2.523778 1_555
Ge3 Mn0 2.523807 1_555
Ge3 Mn2 2.523809 1_655
Ge3 Lu0 2.962420 1_555
Ge3 Lu0 2.962434 1_655
Ge3 Lu0 2.962435 1_665
Ge4 Mn4 2.510210 1_555
Ge4 Mn3 2.510220 1_565
Ge4 Mn5 2.510235 1_555
Ge4 Mn1 2.510493 1_556
Ge4 Mn0 2.510499 1_566
Ge4 Mn2 2.510514 1_556
Ge5 Mn4 2.510205 1_555
Ge5 Mn3 2.510217 1_555
Ge5 Mn5 2.510224 1_655
Ge5 Mn1 2.510497 1_556
Ge5 Mn0 2.510509 1_556
Ge5 Mn2 2.510516 1_656
