# generated using pymatgen
data_K2Zr(TeO4)3
_symmetry_space_group_name_H-M   'P 1'
_cell_length_a   7.33494683
_cell_length_b   7.33494718
_cell_length_c   7.33322835
_cell_angle_alpha   58.82961670
_cell_angle_beta   58.82961103
_cell_angle_gamma   58.80911774
_symmetry_Int_Tables_number   1
_chemical_formula_structural   K2Zr(TeO4)3
_chemical_formula_sum   'K2 Zr1 Te3 O12'
_cell_volume   271.48154117
_cell_formula_units_Z   1
loop_
 _symmetry_equiv_pos_site_id
 _symmetry_equiv_pos_as_xyz
  1  'x, y, z'
loop_
 _atom_site_type_symbol
 _atom_site_label
 _atom_site_symmetry_multiplicity
 _atom_site_fract_x
 _atom_site_fract_y
 _atom_site_fract_z
 _atom_site_occupancy
  K  K0  1  0.11364041  0.14955592  0.62258531  1
  K  K1  1  0.85044408  0.88635959  0.37741469  1
  Zr  Zr0  1  0.49722829  0.50277171  1.00000000  1
  Te  Te0  1  0.49928507  0.00126852  0.00023611  1
  Te  Te1  1  0.99873148  0.50071493  0.99976389  1
  Te  Te2  1  0.49883821  0.50116179  0.50000000  1
  O  O0  1  0.81859472  0.82017083  0.92414670  1
  O  O1  1  0.43012563  0.42982545  0.33724191  1
  O  O2  1  0.43059623  0.83832863  0.92920690  1
  O  O3  1  0.81827104  0.42420993  0.31925577  1
  O  O4  1  0.83584369  0.43081682  0.92985286  1
  O  O5  1  0.42394420  0.82019041  0.31942350  1
  O  O6  1  0.17982917  0.18140528  0.07585330  1
  O  O7  1  0.57017455  0.56987437  0.66275809  1
  O  O8  1  0.56918318  0.16415631  0.07014714  1
  O  O9  1  0.17980959  0.57605580  0.68057650  1
  O  O10  1  0.16167137  0.56940377  0.07079310  1
  O  O11  1  0.57579007  0.18172896  0.68074423  1
loop_
_geom_bond_atom_site_label_1
_geom_bond_atom_site_label_2
_geom_bond_distance
_geom_bond_site_symmetry_2
K0 O4 3.031564 1_455
K0 O1 3.074946 1_555
K0 O3 3.086954 1_455
K0 O2 3.205120 1_545
K0 O0 3.215879 1_445
K0 O5 3.253562 1_545
K1 O8 3.031564 1_565
K1 O7 3.074946 1_555
K1 O11 3.086954 1_565
K1 O10 3.205120 1_655
K1 O6 3.215879 1_665
K1 O9 3.253562 1_655
O0 Te1 1.936605 1_555
O0 Te0 1.937353 1_566
O1 Te2 1.869410 1_555
O1 Zr0 2.070649 1_554
O2 Te0 1.869045 1_566
O2 Zr0 2.064051 1_555
O3 Te1 1.937600 1_554
O3 Te2 1.937784 1_555
O4 Te1 1.869176 1_555
O4 Zr0 2.076717 1_555
O5 Te2 1.935203 1_555
O5 Te0 1.936826 1_565
O6 Te0 1.936605 1_555
O6 Te1 1.937353 1_454
O7 Te2 1.869410 1_555
O7 Zr0 2.070649 1_555
O8 Te0 1.869176 1_555
O8 Zr0 2.076717 1_554
O9 Te2 1.935202 1_555
O9 Te1 1.936826 1_455
O10 Te1 1.869045 1_454
O10 Zr0 2.064051 1_554
O11 Te0 1.937600 1_556
O11 Te2 1.937784 1_555
