# generated using pymatgen
data_RbTe7W6
_symmetry_space_group_name_H-M   'P 1'
_cell_length_a   10.40570062
_cell_length_b   10.40570038
_cell_length_c   10.40570064
_cell_angle_alpha   60.11895992
_cell_angle_beta   60.11896324
_cell_angle_gamma   60.11895929
_symmetry_Int_Tables_number   1
_chemical_formula_structural   RbTe7W6
_chemical_formula_sum   'Rb2 Te14 W12'
_cell_volume   798.85483865
_cell_formula_units_Z   2
loop_
 _symmetry_equiv_pos_site_id
 _symmetry_equiv_pos_as_xyz
  1  'x, y, z'
loop_
 _atom_site_type_symbol
 _atom_site_label
 _atom_site_symmetry_multiplicity
 _atom_site_fract_x
 _atom_site_fract_y
 _atom_site_fract_z
 _atom_site_occupancy
  Rb  Rb0  1  0.62065525  0.62065525  0.62065525  1
  Rb  Rb1  1  0.37934575  0.37934575  0.37934575  1
  Te  Te0  1  0.42856435  0.79793552  0.16342814  1
  Te  Te1  1  0.16342814  0.42856435  0.79793552  1
  Te  Te2  1  0.79793552  0.16342814  0.42856435  1
  Te  Te3  1  0.57143565  0.20206448  0.83657186  1
  Te  Te4  1  0.83657186  0.57143565  0.20206448  1
  Te  Te5  1  0.20206448  0.83657186  0.57143565  1
  Te  Te6  1  0.62852390  0.97617389  0.25530522  1
  Te  Te7  1  0.25530522  0.62852390  0.97617389  1
  Te  Te8  1  0.97617389  0.25530522  0.62852390  1
  Te  Te9  1  0.37147610  0.02382611  0.74469478  1
  Te  Te10  1  0.74469478  0.37147610  0.02382611  1
  Te  Te11  1  0.02382611  0.74469478  0.37147610  1
  Te  Te12  1  0.77491738  0.77491738  0.77491738  1
  Te  Te13  1  0.22508262  0.22508262  0.22508262  1
  W  W0  1  0.71259448  0.88072834  0.00128114  1
  W  W1  1  0.00128114  0.71259448  0.88072834  1
  W  W2  1  0.88072834  0.00128114  0.71259448  1
  W  W3  1  0.28740552  0.11927166  0.99871886  1
  W  W4  1  0.99871886  0.28740552  0.11927166  1
  W  W5  1  0.11927166  0.99871886  0.28740552  1
  W  W6  1  0.94622971  0.81274364  0.10835797  1
  W  W7  1  0.10835797  0.94622971  0.81274364  1
  W  W8  1  0.81274364  0.10835797  0.94622971  1
  W  W9  1  0.05377029  0.18725636  0.89164203  1
  W  W10  1  0.89164203  0.05377029  0.18725636  1
  W  W11  1  0.18725636  0.89164203  0.05377029  1
loop_
_geom_bond_atom_site_label_1
_geom_bond_atom_site_label_2
_geom_bond_distance
_geom_bond_site_symmetry_2
Rb0 Te8 3.758138 1_555
Rb0 Te6 3.758138 1_555
Rb0 Te7 3.758138 1_555
Rb0 Te12 3.928396 1_555
Rb0 Te3 3.950673 1_555
Rb0 Te5 3.950673 1_555
Rb0 Te4 3.950673 1_555
Rb0 Te9 4.148663 1_565
Rb0 Te10 4.148663 1_556
Rb0 Te11 4.148664 1_655
Rb1 Te11 3.758138 1_555
Rb1 Te9 3.758138 1_555
Rb1 Te10 3.758138 1_555
Rb1 Te13 3.928421 1_555
Rb1 Te0 3.950659 1_555
Rb1 Te2 3.950659 1_555
Rb1 Te1 3.950659 1_555
Rb1 Te6 4.148678 1_545
Rb1 Te7 4.148678 1_554
Rb1 Te8 4.148678 1_455
Te0 W11 2.804369 1_555
Te0 W3 2.860064 1_564
Te0 W5 2.869874 1_555
Te0 W0 2.905879 1_555
Te1 W9 2.804369 1_555
Te1 W4 2.860065 1_456
Te1 W3 2.869873 1_555
Te1 W1 2.905879 1_555
Te2 W10 2.804369 1_555
Te2 W5 2.860065 1_645
Te2 W4 2.869874 1_555
Te2 W2 2.905879 1_555
Te3 W8 2.804369 1_555
Te3 W0 2.860064 1_546
Te3 W2 2.869874 1_555
Te3 W3 2.905879 1_555
Te4 W6 2.804369 1_555
Te4 W1 2.860065 1_654
Te4 W0 2.869873 1_555
Te4 W4 2.905879 1_555
Te5 W7 2.804369 1_555
Te5 W2 2.860065 1_465
Te5 W1 2.869874 1_555
Te5 W5 2.905879 1_555
Te6 W8 2.826058 1_564
Te6 W6 2.848107 1_555
Te6 W0 2.860901 1_555
Te6 W10 2.889803 1_565
Te7 W6 2.826057 1_456
Te7 W7 2.848107 1_555
Te7 W1 2.860901 1_555
Te7 W11 2.889803 1_556
Te8 W7 2.826057 1_645
Te8 W8 2.848108 1_555
Te8 W2 2.860901 1_555
Te8 W9 2.889803 1_655
Te9 W11 2.826058 1_546
Te9 W9 2.848107 1_555
Te9 W3 2.860901 1_555
Te9 W7 2.889803 1_545
Te10 W9 2.826057 1_654
Te10 W10 2.848107 1_555
Te10 W4 2.860901 1_555
Te10 W8 2.889803 1_554
Te11 W10 2.826057 1_465
Te11 W11 2.848108 1_555
Te11 W5 2.860901 1_555
Te11 W6 2.889803 1_455
Te12 W1 2.744397 1_655
Te12 W2 2.744397 1_565
Te12 W0 2.744397 1_556
Te13 W4 2.744397 1_455
Te13 W5 2.744397 1_545
Te13 W3 2.744397 1_554
W0 W1 2.617979 1_654
W0 W2 2.617979 1_564
W0 W8 2.745427 1_564
W0 W6 2.802204 1_555
W1 W2 2.617978 1_465
W1 W6 2.745427 1_456
W1 W7 2.802204 1_555
W2 W7 2.745427 1_645
W2 W8 2.802204 1_555
W3 W4 2.617979 1_456
W3 W5 2.617979 1_546
W3 W9 2.802204 1_555
W4 W5 2.617978 1_645
W4 W9 2.745427 1_654
W6 W8 2.672919 1_564
W6 W7 2.672919 1_654
W7 W8 2.672919 1_465
W7 W9 2.730295 1_565
W8 W9 2.730296 1_655
W10 W11 2.672919 1_645
W10 W9 2.672919 1_654
W10 W6 2.730295 1_545
W10 W8 2.730296 1_554
W10 W5 2.745427 1_645
W10 W4 2.802204 1_555
W11 W9 2.672919 1_564
W11 W7 2.730296 1_554
W11 W6 2.730296 1_455
W11 W3 2.745427 1_564
W11 W5 2.802204 1_555
