# generated using pymatgen
data_K8SiGeAu16
_symmetry_space_group_name_H-M   'P 1'
_cell_length_a   10.74156059
_cell_length_b   10.74156129
_cell_length_c   10.48513791
_cell_angle_alpha   79.37887858
_cell_angle_beta   79.37887654
_cell_angle_gamma   33.67728647
_symmetry_Int_Tables_number   1
_chemical_formula_structural   K8SiGeAu16
_chemical_formula_sum   'K8 Si1 Ge1 Au16'
_cell_volume   658.28849248
_cell_formula_units_Z   1
loop_
 _symmetry_equiv_pos_site_id
 _symmetry_equiv_pos_as_xyz
  1  'x, y, z'
loop_
 _atom_site_type_symbol
 _atom_site_label
 _atom_site_symmetry_multiplicity
 _atom_site_fract_x
 _atom_site_fract_y
 _atom_site_fract_z
 _atom_site_occupancy
  K  K0  1  0.48306786  0.48306787  0.83893560  1
  K  K1  1  0.51644905  0.51644905  0.16215525  1
  K  K2  1  0.28423231  0.28423231  0.91091945  1
  K  K3  1  0.71533259  0.71533259  0.08916909  1
  K  K4  1  0.22147678  0.22147678  0.60122756  1
  K  K5  1  0.77890254  0.77890254  0.39808732  1
  K  K6  1  0.04282373  0.04282373  0.64914423  1
  K  K7  1  0.95720228  0.95720228  0.35135376  1
  Si  Si0  1  0.33157216  0.33157216  0.23374816  1
  Ge  Ge0  1  0.66905397  0.66905397  0.76443237  1
  Au  Au0  1  0.78844115  0.78844115  0.73522781  1
  Au  Au1  1  0.21546943  0.21546943  0.26352627  1
  Au  Au2  1  0.62271823  0.62271823  0.56941437  1
  Au  Au3  1  0.37655107  0.37655107  0.42382690  1
  Au  Au4  1  0.49992971  0.49992971  0.49794196  1
  Au  Au5  1  0.99890674  0.99890674  0.00218399  1
  Au  Au6  1  0.10547231  0.10547231  0.14352109  1
  Au  Au7  1  0.89506189  0.89506189  0.85857632  1
  Au  Au8  1  0.84897622  0.36547021  0.35857982  1
  Au  Au9  1  0.63164190  0.15579024  0.63923048  1
  Au  Au10  1  0.15579024  0.63164190  0.63923048  1
  Au  Au11  1  0.36547021  0.84897622  0.35857982  1
  Au  Au12  1  0.10072951  0.65847893  0.09462058  1
  Au  Au13  1  0.33731493  0.89893423  0.91087338  1
  Au  Au14  1  0.89893423  0.33731493  0.91087338  1
  Au  Au15  1  0.65847893  0.10072951  0.09462058  1
loop_
_geom_bond_atom_site_label_1
_geom_bond_atom_site_label_2
_geom_bond_distance
_geom_bond_site_symmetry_2
Au0 Ge0 2.414643 1_555
Au0 Au10 2.742206 1_655
Au0 Au9 2.742206 1_565
Au0 Au7 2.751557 1_555
Au0 K5 3.577914 1_555
Au0 K2 3.608543 1_565
Au0 K2 3.608543 1_655
Au0 K3 3.726072 1_556
Au1 Si0 2.347263 1_555
Au1 Au8 2.770521 1_455
Au1 Au11 2.770521 1_545
Au1 Au6 2.791933 1_555
Au1 K4 3.566692 1_555
Au1 K3 3.609173 1_545
Au1 K3 3.609173 1_455
Au1 K2 3.695216 1_554
Au2 Ge0 2.416452 1_555
Au2 Au8 2.742825 1_555
Au2 Au4 2.768541 1_555
Au2 K5 3.364317 1_555
Au2 K6 3.542693 1_565
Au2 K6 3.542693 1_655
Au2 K0 3.620255 1_555
Au2 K4 3.765337 1_655
Au2 K4 3.765337 1_565
Au3 Si0 2.353152 1_555
Au3 Au9 2.779372 1_555
Au3 Au4 2.792689 1_555
Au3 K4 3.367935 1_555
Au3 K7 3.538954 1_545
Au3 K7 3.538955 1_455
Au3 K1 3.572500 1_555
Au4 Au9 2.812579 1_555
Au4 Au8 2.832708 1_555
Au4 K1 3.471398 1_555
Au4 K0 3.525056 1_555
Au4 K7 3.651888 1_455
Au4 K7 3.651888 1_545
Au4 K6 3.675844 1_655
Au4 K6 3.675845 1_565
Au5 Au7 2.839876 1_554
Au5 Au6 2.871960 1_665
Au5 K1 3.585876 1_565
Au5 K1 3.585876 1_655
Au5 K7 3.595805 1_555
Au5 K0 3.596192 1_654
Au5 K0 3.596192 1_564
Au5 K6 3.637363 1_664
Au6 Au8 2.774897 1_455
Au6 K7 3.388913 1_445
Au6 K1 3.596266 1_455
Au6 K1 3.596266 1_545
Au6 K3 3.822798 1_545
Au6 K3 3.822799 1_455
Au6 K2 4.000749 1_554
Au7 Au9 2.823939 1_565
Au7 K6 3.388753 1_665
Au7 K0 3.585448 1_655
Au7 K0 3.585449 1_565
Au7 K2 3.833377 1_565
Au7 K2 3.833377 1_655
Au7 K3 4.007726 1_556
Au8 K1 3.386663 1_555
Au8 K6 3.473377 1_655
Au8 K7 3.492013 1_545
Au8 K3 3.572957 1_555
Au8 K5 3.931875 1_555
Au8 K4 4.108149 1_655
Au9 K0 3.381431 1_555
Au9 K7 3.457943 1_545
Au9 K6 3.491929 1_655
Au9 K2 3.592413 1_555
Au9 K4 3.929054 1_555
Au9 K5 4.114019 1_545
Au10 Au3 2.779372 1_555
Au10 Au4 2.812579 1_555
Au10 Au7 2.823939 1_455
Au10 Au9 2.961308 1_555
Au10 Au9 3.261867 1_465
Au10 K0 3.381431 1_555
Au10 K7 3.457943 1_455
Au10 K6 3.491929 1_565
Au10 K2 3.592413 1_555
Au10 K4 3.929054 1_555
Au10 K5 4.114019 1_455
Au11 Au2 2.742826 1_555
Au11 Au6 2.774897 1_565
Au11 Au4 2.832708 1_555
Au11 Au8 3.008942 1_555
Au11 Au8 3.214232 1_465
Au11 K1 3.386663 1_555
Au11 K6 3.473376 1_565
Au11 K7 3.492013 1_455
Au11 K3 3.572957 1_555
Au11 K5 3.931875 1_555
Au11 K4 4.108149 1_565
Au12 Si0 2.358064 1_555
Au12 Au7 2.795911 1_454
Au12 Au5 2.816918 1_455
Au12 K2 3.467323 1_554
Au12 K1 3.492595 1_555
Au12 K0 3.539549 1_554
Au12 K7 3.652391 1_455
Au12 K3 3.657939 1_455
Au13 Ge0 2.426693 1_555
Au13 Au6 2.763028 1_566
Au13 Au5 2.807587 1_456
Au13 K3 3.461651 1_556
Au13 K0 3.484461 1_555
Au13 K1 3.499285 1_556
Au13 K6 3.664081 1_565
Au13 K2 3.677908 1_565
Au14 Ge0 2.426693 1_555
Au14 Au6 2.763028 1_656
Au14 Au5 2.807587 1_546
Au14 K3 3.461651 1_556
Au14 K0 3.484461 1_555
Au14 K1 3.499285 1_556
Au14 K6 3.664081 1_655
Au14 K2 3.677908 1_655
Au15 Si0 2.358064 1_555
Au15 Au7 2.795911 1_544
Au15 Au5 2.816918 1_545
Au15 K2 3.467323 1_554
Au15 K1 3.492596 1_555
Au15 K0 3.539550 1_554
Au15 K7 3.652390 1_545
Au15 K3 3.657939 1_545
