# generated using pymatgen
data_Sc5ReAs2
_symmetry_space_group_name_H-M   'P 1'
_cell_length_a   5.86465197
_cell_length_b   7.79209531
_cell_length_c   7.98739297
_cell_angle_alpha   119.19442426
_cell_angle_beta   90.00000000
_cell_angle_gamma   90.00000000
_symmetry_Int_Tables_number   1
_chemical_formula_structural   Sc5ReAs2
_chemical_formula_sum   'Sc10 Re2 As4'
_cell_volume   318.64025979
_cell_formula_units_Z   2
loop_
 _symmetry_equiv_pos_site_id
 _symmetry_equiv_pos_as_xyz
  1  'x, y, z'
loop_
 _atom_site_type_symbol
 _atom_site_label
 _atom_site_symmetry_multiplicity
 _atom_site_fract_x
 _atom_site_fract_y
 _atom_site_fract_z
 _atom_site_occupancy
  Sc  Sc0  1  0.00000000  0.66184146  0.32368191  1
  Sc  Sc1  1  0.00000000  0.33815854  0.67631809  1
  Sc  Sc2  1  0.50000000  0.33815854  0.67631809  1
  Sc  Sc3  1  0.50000000  0.66184146  0.32368191  1
  Sc  Sc4  1  0.75000000  0.74009011  0.76386179  1
  Sc  Sc5  1  0.25000000  0.25990989  0.23613821  1
  Sc  Sc6  1  0.75000000  0.97622932  0.23613821  1
  Sc  Sc7  1  0.25000000  0.02377068  0.76386179  1
  Sc  Sc8  1  0.75000000  0.25158894  0.00000000  1
  Sc  Sc9  1  0.25000000  0.74841106  1.00000000  1
  Re  Re0  1  0.75000000  0.59130345  0.00000000  1
  Re  Re1  1  0.25000000  0.40869655  1.00000000  1
  As  As0  1  0.75000000  0.37783903  0.38770536  1
  As  As1  1  0.25000000  0.62216097  0.61229464  1
  As  As2  1  0.75000000  0.99013467  0.61229464  1
  As  As3  1  0.25000000  0.00986533  0.38770536  1
loop_
_geom_bond_atom_site_label_1
_geom_bond_atom_site_label_2
_geom_bond_distance
_geom_bond_site_symmetry_2
Re0 Sc8 2.647088 1_555
Re0 Sc4 2.652326 1_554
Re0 Sc6 2.652332 1_555
Re0 Sc0 2.783814 1_655
Re0 Sc3 2.783814 1_555
Re0 Sc1 2.783816 1_654
Re0 Sc2 2.783816 1_554
Re0 Sc9 3.177608 1_654
Re0 Sc9 3.177608 1_554
Re1 Sc9 2.647088 1_555
Re1 Sc5 2.652326 1_556
Re1 Sc7 2.652332 1_555
Re1 Sc1 2.783814 1_555
Re1 Sc2 2.783814 1_555
Re1 Sc3 2.783816 1_556
Re1 Sc0 2.783816 1_556
Re1 Sc8 3.177608 1_456
Re1 Sc8 3.177608 1_556
As0 Sc6 2.750048 1_545
As0 Sc8 2.754216 1_555
As0 Sc2 2.873120 1_555
As0 Sc1 2.873120 1_655
As0 Sc0 2.900414 1_655
As0 Sc3 2.900414 1_555
As0 Sc4 2.953173 1_555
As0 Sc5 3.134214 1_655
As0 Sc5 3.134214 1_555
As1 Sc7 2.750048 1_565
As1 Sc9 2.754216 1_555
As1 Sc3 2.873120 1_555
As1 Sc0 2.873120 1_555
As1 Sc2 2.900414 1_555
As1 Sc1 2.900414 1_555
As1 Sc5 2.953173 1_555
As1 Sc4 3.134214 1_555
As1 Sc4 3.134214 1_455
As2 Sc4 2.750062 1_555
As2 Sc8 2.754215 1_566
As2 Sc0 2.873120 1_655
As2 Sc3 2.873120 1_555
As2 Sc2 2.900400 1_565
As2 Sc1 2.900400 1_665
As2 Sc6 2.953173 1_555
As2 Sc7 3.134215 1_565
As2 Sc7 3.134215 1_665
As3 Sc5 2.750062 1_555
As3 Sc9 2.754215 1_544
As3 Sc2 2.873120 1_555
As3 Sc1 2.873120 1_555
As3 Sc3 2.900400 1_545
As3 Sc0 2.900400 1_545
As3 Sc7 2.953173 1_555
As3 Sc6 3.134215 1_445
As3 Sc6 3.134215 1_545
