# generated using pymatgen
data_Rb2AlZn3As4
_symmetry_space_group_name_H-M   'P 1'
_cell_length_a   8.08799690
_cell_length_b   8.08799635
_cell_length_c   5.69879638
_cell_angle_alpha   90.00000000
_cell_angle_beta   90.00000000
_cell_angle_gamma   138.70403201
_symmetry_Int_Tables_number   1
_chemical_formula_structural   Rb2AlZn3As4
_chemical_formula_sum   'Rb2 Al1 Zn3 As4'
_cell_volume   246.02277057
_cell_formula_units_Z   1
loop_
 _symmetry_equiv_pos_site_id
 _symmetry_equiv_pos_as_xyz
  1  'x, y, z'
loop_
 _atom_site_type_symbol
 _atom_site_label
 _atom_site_symmetry_multiplicity
 _atom_site_fract_x
 _atom_site_fract_y
 _atom_site_fract_z
 _atom_site_occupancy
  Rb  Rb0  1  0.50000000  0.00000000  0.25184129  1
  Rb  Rb1  1  0.00000000  0.50000000  0.74815871  1
  Al  Al0  1  0.00000000  0.00000000  0.00000000  1
  Zn  Zn0  1  0.50000000  0.50000000  0.50000000  1
  Zn  Zn1  1  0.50000000  0.50000000  0.00000000  1
  Zn  Zn2  1  0.00000000  0.00000000  0.50000000  1
  As  As0  1  0.65175979  0.85565062  0.75393304  1
  As  As1  1  0.14434938  0.34824021  0.24606696  1
  As  As2  1  0.85565062  0.65175979  0.24606696  1
  As  As3  1  0.34824021  0.14434938  0.75393304  1
loop_
_geom_bond_atom_site_label_1
_geom_bond_atom_site_label_2
_geom_bond_distance
_geom_bond_site_symmetry_2
Al0 As1 2.514235 1_555
Al0 As2 2.514235 1_445
Al0 As3 2.514235 1_554
Al0 As0 2.514235 1_444
As0 Zn1 2.538096 1_556
As0 Zn2 2.539510 1_665
As0 Zn0 2.563135 1_555
As0 Rb1 3.610756 1_665
As0 Rb0 3.615828 1_566
As0 Rb0 3.634567 1_565
As0 Rb1 3.643990 1_555
As1 Zn1 2.538096 1_555
As1 Zn2 2.539509 1_555
As1 Zn0 2.563135 1_555
As1 Rb0 3.610756 1_455
As1 Rb1 3.615828 1_554
As1 Rb1 3.634567 1_555
As1 Rb0 3.643990 1_565
As2 Zn1 2.538096 1_555
As2 Zn2 2.539509 1_665
As2 Zn0 2.563135 1_555
As2 Rb0 3.610756 1_665
As2 Rb1 3.615828 1_654
As2 Rb1 3.634567 1_655
As2 Rb0 3.643990 1_555
As3 Zn1 2.538096 1_556
As3 Zn2 2.539510 1_555
As3 Zn0 2.563135 1_555
As3 Rb1 3.610756 1_545
As3 Rb0 3.615828 1_556
As3 Rb0 3.634567 1_555
As3 Rb1 3.643990 1_655
