# generated using pymatgen
data_Ti2GaSnIr3
_symmetry_space_group_name_H-M   'P 1'
_cell_length_a   7.52374166
_cell_length_b   7.52373976
_cell_length_c   7.52374092
_cell_angle_alpha   33.33662027
_cell_angle_beta   33.33663266
_cell_angle_gamma   33.33662074
_symmetry_Int_Tables_number   1
_chemical_formula_structural   Ti2GaSnIr3
_chemical_formula_sum   'Ti2 Ga1 Sn1 Ir3'
_cell_volume   114.52827142
_cell_formula_units_Z   1
loop_
 _symmetry_equiv_pos_site_id
 _symmetry_equiv_pos_as_xyz
  1  'x, y, z'
loop_
 _atom_site_type_symbol
 _atom_site_label
 _atom_site_symmetry_multiplicity
 _atom_site_fract_x
 _atom_site_fract_y
 _atom_site_fract_z
 _atom_site_occupancy
  Ti  Ti0  1  0.75287158  0.75287158  0.75287158  1
  Ti  Ti1  1  0.24954833  0.24954833  0.24954833  1
  Ga  Ga0  1  0.99250277  0.99250277  0.99250277  1
  Sn  Sn0  1  0.50568227  0.50568227  0.50568227  1
  Ir  Ir0  1  0.12132685  0.12132685  0.12132685  1
  Ir  Ir1  1  0.62986708  0.62986708  0.62986708  1
  Ir  Ir2  1  0.37320212  0.37320212  0.37320212  1
loop_
_geom_bond_atom_site_label_1
_geom_bond_atom_site_label_2
_geom_bond_distance
_geom_bond_site_symmetry_2
Ga0 Ir1 2.568845 1_565
Ga0 Ir1 2.568846 1_655
Ga0 Ir1 2.568846 1_556
Ga0 Ir2 2.688332 1_656
Ga0 Ir2 2.688332 1_566
Ga0 Ir2 2.688332 1_665
Ga0 Ir0 2.743604 1_666
Ga0 Ti1 2.974766 1_656
Ga0 Ti1 2.974767 1_665
Ga0 Ti1 2.974768 1_566
Sn0 Ti1 2.985414 1_565
Sn0 Ti1 2.985416 1_556
Sn0 Ti1 2.985416 1_655
Sn0 Ti0 3.094413 1_545
Sn0 Ti0 3.094414 1_554
Sn0 Ti0 3.094415 1_455
Ir0 Ti0 2.601734 1_454
Ir0 Ti0 2.601735 1_544
Ir0 Ti0 2.601735 1_445
Ir0 Sn0 2.718508 1_545
Ir0 Sn0 2.718508 1_455
Ir0 Sn0 2.718508 1_554
Ir0 Ti1 2.730770 1_555
Ir0 Ir2 3.036308 1_545
Ir0 Ir2 3.036309 1_554
Ir0 Ir2 3.036310 1_455
Ir1 Ti0 2.619662 1_555
Ir1 Sn0 2.644799 1_555
Ir1 Ti1 2.685300 1_565
Ir1 Ti1 2.685301 1_655
Ir1 Ti1 2.685301 1_556
Ir1 Ir2 2.979201 1_565
Ir1 Ir2 2.979202 1_556
Ir1 Ir2 2.979203 1_655
Ir2 Ti1 2.633490 1_555
Ir2 Ti0 2.680178 1_545
Ir2 Ti0 2.680179 1_455
Ir2 Ti0 2.680179 1_554
Ir2 Sn0 2.821468 1_555
