# generated using pymatgen
data_Li2Sn8IrRu
_symmetry_space_group_name_H-M   'P 1'
_cell_length_a   7.32472273
_cell_length_b   7.32472229
_cell_length_c   7.32472323
_cell_angle_alpha   125.97467976
_cell_angle_beta   125.97467294
_cell_angle_gamma   79.92976225
_symmetry_Int_Tables_number   1
_chemical_formula_structural   Li2Sn8IrRu
_chemical_formula_sum   'Li2 Sn8 Ir1 Ru1'
_cell_volume   248.53119405
_cell_formula_units_Z   1
loop_
 _symmetry_equiv_pos_site_id
 _symmetry_equiv_pos_as_xyz
  1  'x, y, z'
loop_
 _atom_site_type_symbol
 _atom_site_label
 _atom_site_symmetry_multiplicity
 _atom_site_fract_x
 _atom_site_fract_y
 _atom_site_fract_z
 _atom_site_occupancy
  Li  Li0  1  0.49818741  0.49818741  0.00000000  1
  Li  Li1  1  0.00181259  0.00181259  1.00000000  1
  Sn  Sn0  1  0.70777535  0.52467906  0.50477216  1
  Sn  Sn1  1  0.52467906  0.01990690  0.81690271  1
  Sn  Sn2  1  0.20300219  0.70777535  0.18309729  1
  Sn  Sn3  1  0.79222465  0.29699781  0.81690271  1
  Sn  Sn4  1  0.48009310  0.97532094  0.18309729  1
  Sn  Sn5  1  0.29699781  0.48009310  0.50477216  1
  Sn  Sn6  1  0.97532094  0.79222465  0.49522784  1
  Sn  Sn7  1  0.01990690  0.20300219  0.49522784  1
  Ir  Ir0  1  0.25000000  0.25000000  0.00000000  1
  Ru  Ru0  1  0.75000000  0.75000000  0.00000000  1
loop_
_geom_bond_atom_site_label_1
_geom_bond_atom_site_label_2
_geom_bond_distance
_geom_bond_site_symmetry_2
Li0 Ru0 2.827325 1_555
Li0 Sn4 2.927544 1_555
Li0 Sn6 2.927546 1_555
Li0 Sn5 2.927548 1_554
Li0 Sn3 2.927550 1_554
Li0 Sn1 2.942334 1_554
Li0 Sn0 2.942336 1_555
Li0 Sn7 2.942337 1_554
Li0 Sn2 2.942346 1_555
Li1 Ru0 2.827325 1_446
Li1 Sn1 2.927544 1_455
Li1 Sn0 2.927546 1_445
Li1 Sn7 2.927548 1_556
Li1 Sn2 2.927550 1_546
Li1 Sn4 2.942334 1_546
Li1 Sn6 2.942336 1_445
Li1 Sn5 2.942337 1_556
Li1 Sn3 2.942346 1_455
Ir0 Li0 2.786622 1_555
Ir0 Li1 2.786622 1_554
Ir0 Sn5 2.831211 1_555
Ir0 Sn7 2.831211 1_554
Ir0 Sn6 2.831214 1_444
Ir0 Sn2 2.831214 1_555
Ir0 Sn0 2.831215 1_555
Ir0 Sn3 2.831215 1_454
Ir0 Sn1 2.831218 1_554
Ir0 Sn4 2.831218 1_545
Ru0 Sn3 2.793647 1_554
Ru0 Sn2 2.793648 1_655
Ru0 Sn7 2.793651 1_665
Ru0 Sn5 2.793652 1_554
Ru0 Sn0 2.793655 1_554
Ru0 Sn6 2.793656 1_555
Ru0 Sn4 2.793659 1_555
Ru0 Sn1 2.793659 1_564
