# generated using pymatgen
data_Lu9Sc(AlTe)4
_symmetry_space_group_name_H-M   'P 1'
_cell_length_a   8.46591654
_cell_length_b   8.46591770
_cell_length_c   7.72991168
_cell_angle_alpha   90.07863153
_cell_angle_beta   90.07863497
_cell_angle_gamma   125.80291666
_symmetry_Int_Tables_number   1
_chemical_formula_structural   Lu9Sc(AlTe)4
_chemical_formula_sum   'Lu9 Sc1 Al4 Te4'
_cell_volume   449.32405341
_cell_formula_units_Z   1
loop_
 _symmetry_equiv_pos_site_id
 _symmetry_equiv_pos_as_xyz
  1  'x, y, z'
loop_
 _atom_site_type_symbol
 _atom_site_label
 _atom_site_symmetry_multiplicity
 _atom_site_fract_x
 _atom_site_fract_y
 _atom_site_fract_z
 _atom_site_occupancy
  Lu  Lu0  1  0.50000000  0.50000000  0.50000000  1
  Lu  Lu1  1  0.79615572  0.53966079  0.16720142  1
  Lu  Lu2  1  0.46033921  0.20384428  0.83279858  1
  Lu  Lu3  1  0.96004952  0.70568238  0.66942673  1
  Lu  Lu4  1  0.29431762  0.03995048  0.33057327  1
  Lu  Lu5  1  0.20384428  0.46033921  0.83279858  1
  Lu  Lu6  1  0.53966079  0.79615572  0.16720142  1
  Lu  Lu7  1  0.03995048  0.29431762  0.33057327  1
  Lu  Lu8  1  0.70568238  0.96004952  0.66942673  1
  Sc  Sc0  1  0.00000000  0.00000000  0.00000000  1
  Al  Al0  1  0.87424679  0.87424679  0.37385862  1
  Al  Al1  1  0.12575321  0.12575321  0.62614138  1
  Al  Al2  1  0.62736971  0.62736971  0.87668925  1
  Al  Al3  1  0.37263029  0.37263029  0.12331075  1
  Te  Te0  1  0.20499438  0.79500562  0.00000000  1
  Te  Te1  1  0.70702222  0.29297778  0.50000000  1
  Te  Te2  1  0.79500562  0.20499438  1.00000000  1
  Te  Te3  1  0.29297778  0.70702222  0.50000000  1
loop_
_geom_bond_atom_site_label_1
_geom_bond_atom_site_label_2
_geom_bond_distance
_geom_bond_site_symmetry_2
Lu0 Te1 3.120473 1_555
Lu0 Te3 3.120473 1_555
Lu1 Te0 3.096643 1_655
Lu1 Te2 3.107333 1_554
Lu1 Te1 3.118473 1_555
Lu2 Te0 3.096644 1_546
Lu2 Te2 3.107333 1_555
Lu2 Te1 3.118473 1_555
Lu3 Te0 3.089825 1_656
Lu3 Te3 3.103590 1_655
Lu3 Te1 3.119995 1_555
Lu4 Te0 3.089826 1_545
Lu4 Te3 3.103591 1_545
Lu4 Te1 3.119995 1_555
Lu5 Te2 3.096643 1_455
Lu5 Te0 3.107333 1_556
Lu5 Te3 3.118473 1_555
Lu6 Te2 3.096644 1_564
Lu6 Te0 3.107333 1_555
Lu6 Te3 3.118473 1_555
Lu7 Te2 3.089825 1_454
Lu7 Te1 3.103590 1_455
Lu7 Te3 3.119995 1_555
Lu8 Te2 3.089826 1_565
Lu8 Te1 3.103591 1_565
Lu8 Te3 3.119995 1_555
Sc0 Te2 3.089907 1_454
Sc0 Te0 3.089907 1_545
Al0 Al1 2.746472 1_665
Al0 Lu6 2.967502 1_555
Al0 Lu1 2.967502 1_555
Al0 Lu4 2.982387 1_665
Al0 Lu7 2.982388 1_665
Al0 Lu3 3.000214 1_555
Al0 Lu8 3.000214 1_555
Al0 Lu0 3.049523 1_555
Al0 Sc0 3.051083 1_665
Al1 Lu2 2.967502 1_555
Al1 Lu5 2.967502 1_555
Al1 Lu8 2.982387 1_445
Al1 Lu3 2.982388 1_445
Al1 Lu7 3.000214 1_555
Al1 Lu4 3.000214 1_555
Al1 Lu0 3.049523 1_555
Al1 Sc0 3.051083 1_556
Al2 Al3 2.741728 1_556
Al2 Lu3 2.961297 1_555
Al2 Lu8 2.961297 1_555
Al2 Lu1 2.978798 1_556
Al2 Lu6 2.978798 1_556
Al2 Lu5 3.005656 1_555
Al2 Lu2 3.005656 1_555
Al2 Sc0 3.025246 1_666
Al2 Lu0 3.070223 1_555
Al3 Lu7 2.961297 1_555
Al3 Lu4 2.961297 1_555
Al3 Lu5 2.978798 1_554
Al3 Lu2 2.978798 1_554
Al3 Lu1 3.005656 1_555
Al3 Lu6 3.005656 1_555
Al3 Sc0 3.025246 1_555
Al3 Lu0 3.070223 1_555
