# generated using pymatgen
data_Cs2Mn(ZnTe2)2
_symmetry_space_group_name_H-M   'P 1'
_cell_length_a   10.55198865
_cell_length_b   10.55891702
_cell_length_c   10.55198844
_cell_angle_alpha   144.23679779
_cell_angle_beta   105.25262074
_cell_angle_gamma   85.69888018
_symmetry_Int_Tables_number   1
_chemical_formula_structural   Cs2Mn(ZnTe2)2
_chemical_formula_sum   'Cs4 Mn2 Zn4 Te8'
_cell_volume   642.60454320
_cell_formula_units_Z   2
loop_
 _symmetry_equiv_pos_site_id
 _symmetry_equiv_pos_as_xyz
  1  'x, y, z'
loop_
 _atom_site_type_symbol
 _atom_site_label
 _atom_site_symmetry_multiplicity
 _atom_site_fract_x
 _atom_site_fract_y
 _atom_site_fract_z
 _atom_site_occupancy
  Cs  Cs0  1  0.12252116  0.23582743  0.35668295  1
  Cs  Cs1  1  0.37881222  0.73159521  0.10822594  1
  Cs  Cs2  1  0.62085552  0.26417257  0.88669473  1
  Cs  Cs3  1  0.87663174  0.76840479  0.64721701  1
  Mn  Mn0  1  0.25128443  0.75000000  0.50128443  1
  Mn  Mn1  1  0.01175451  0.25000000  0.76175451  1
  Zn  Zn0  1  0.51952132  0.75000000  0.76952132  1
  Zn  Zn1  1  0.98315944  0.75000000  0.23315944  1
  Zn  Zn2  1  0.48659677  0.25000000  0.23659677  1
  Zn  Zn3  1  0.75089143  0.25000000  0.50089143  1
  Te  Te0  1  0.21799917  0.07387727  0.58792685  1
  Te  Te1  1  0.28657351  0.88188732  0.86616715  1
  Te  Te2  1  0.01404958  0.42612273  0.14412190  1
  Te  Te3  1  0.48427983  0.61811268  0.40468518  1
  Te  Te4  1  0.77789596  0.91658251  0.39191100  1
  Te  Te5  1  0.71855966  0.11988309  0.14316936  1
  Te  Te6  1  0.97532849  0.58341749  0.86131245  1
  Te  Te7  1  0.52328627  0.38011691  0.59867558  1
loop_
_geom_bond_atom_site_label_1
_geom_bond_atom_site_label_2
_geom_bond_distance
_geom_bond_site_symmetry_2
Cs0 Te0 3.887533 1_555
Cs0 Te7 3.961830 1_555
Cs0 Te1 3.973876 1_555
Cs0 Te2 3.999553 1_555
Cs0 Te5 3.999756 1_455
Cs0 Te6 4.002106 1_455
Cs0 Te6 4.010742 1_444
Cs0 Te1 4.013130 1_544
Cs1 Te1 3.876588 1_554
Cs1 Te0 3.933657 1_565
Cs1 Te4 3.952447 1_555
Cs1 Te7 3.987542 1_565
Cs1 Te6 3.988752 1_454
Cs1 Te7 4.010917 1_554
Cs1 Te0 4.029908 1_554
Cs1 Te3 4.063453 1_555
Cs2 Te2 3.887533 1_656
Cs2 Te5 3.961821 1_556
Cs2 Te3 3.973871 1_545
Cs2 Te0 3.999554 1_555
Cs2 Te7 3.999776 1_555
Cs2 Te4 4.002120 1_545
Cs2 Te4 4.010745 1_556
Cs2 Te3 4.013116 1_556
Cs3 Te3 3.876598 1_555
Cs3 Te2 3.933650 1_655
Cs3 Te6 3.952437 1_555
Cs3 Te5 3.987542 1_555
Cs3 Te4 3.988752 1_555
Cs3 Te5 4.010917 1_566
Cs3 Te2 4.029906 1_666
Cs3 Te1 4.063453 1_655
Mn0 Te1 2.743025 1_555
Mn0 Te3 2.743027 1_555
Mn0 Te2 2.751178 1_555
Mn0 Te0 2.751178 1_565
Mn1 Te2 2.741624 1_556
Mn1 Te0 2.741624 1_555
Mn1 Te4 2.766371 1_445
Mn1 Te6 2.766378 1_455
Te0 Zn1 2.731958 1_445
Te1 Zn2 2.659820 1_566
Te1 Zn0 2.742643 1_555
Te2 Zn1 2.731958 1_455
Te3 Zn2 2.659825 1_555
Te3 Zn0 2.742653 1_555
Te4 Zn1 2.673396 1_555
Te4 Zn3 2.692487 1_565
Te5 Zn0 2.663275 1_544
Te5 Zn3 2.688616 1_555
Te5 Zn2 2.723538 1_555
Te6 Zn1 2.673406 1_556
Te6 Zn3 2.692486 1_555
Te7 Zn0 2.663269 1_555
Te7 Zn3 2.688614 1_555
Te7 Zn2 2.723528 1_555
