# generated using pymatgen
data_Zr12Ga9Pd3C4
_symmetry_space_group_name_H-M   'P 1'
_cell_length_a   8.64206027
_cell_length_b   8.64205955
_cell_length_c   8.66194313
_cell_angle_alpha   60.07589103
_cell_angle_beta   60.07590317
_cell_angle_gamma   59.99999421
_symmetry_Int_Tables_number   1
_chemical_formula_structural   Zr12Ga9Pd3C4
_chemical_formula_sum   'Zr12 Ga9 Pd3 C4'
_cell_volume   457.96482350
_cell_formula_units_Z   1
loop_
 _symmetry_equiv_pos_site_id
 _symmetry_equiv_pos_as_xyz
  1  'x, y, z'
loop_
 _atom_site_type_symbol
 _atom_site_label
 _atom_site_symmetry_multiplicity
 _atom_site_fract_x
 _atom_site_fract_y
 _atom_site_fract_z
 _atom_site_occupancy
  Zr  Zr0  1  0.44065022  0.44065022  0.05772090  1
  Zr  Zr1  1  0.06097867  0.44065022  0.05772090  1
  Zr  Zr2  1  0.44065022  0.06097867  0.05772090  1
  Zr  Zr3  1  0.06043527  0.06043527  0.43925319  1
  Zr  Zr4  1  0.43987726  0.06043527  0.43925319  1
  Zr  Zr5  1  0.06043527  0.43987726  0.43925319  1
  Zr  Zr6  1  0.80934978  0.80934978  0.19227910  1
  Zr  Zr7  1  0.18902133  0.80934978  0.19227910  1
  Zr  Zr8  1  0.80934978  0.18902133  0.19227910  1
  Zr  Zr9  1  0.18956473  0.18956473  0.81074681  1
  Zr  Zr10  1  0.81012274  0.18956473  0.81074681  1
  Zr  Zr11  1  0.18956473  0.81012274  0.81074681  1
  Ga  Ga0  1  0.83427141  0.83427141  0.49718778  1
  Ga  Ga1  1  0.83829374  0.50073760  0.82267392  1
  Ga  Ga2  1  0.50073760  0.83829374  0.82267392  1
  Ga  Ga3  1  0.83829374  0.83829374  0.82267392  1
  Ga  Ga4  1  0.41572859  0.41572859  0.75281222  1
  Ga  Ga5  1  0.41170626  0.74926240  0.42732608  1
  Ga  Ga6  1  0.74926240  0.41170626  0.42732608  1
  Ga  Ga7  1  0.41170626  0.41170626  0.42732608  1
  Ga  Ga8  1  0.62500000  0.62500000  0.12500000  1
  Pd  Pd0  1  0.62500000  0.12500000  0.62500000  1
  Pd  Pd1  1  0.12500000  0.62500000  0.62500000  1
  Pd  Pd2  1  0.62500000  0.62500000  0.62500000  1
  C  C0  1  0.12500000  0.12500000  0.62500000  1
  C  C1  1  0.12500000  0.62500000  0.12500000  1
  C  C2  1  0.62500000  0.12500000  0.12500000  1
  C  C3  1  0.12500000  0.12500000  0.12500000  1
loop_
_geom_bond_atom_site_label_1
_geom_bond_atom_site_label_2
_geom_bond_distance
_geom_bond_site_symmetry_2
Ga0 Pd1 2.653814 1_655
Ga0 Pd0 2.653815 1_565
Ga0 Pd2 2.653829 1_555
Ga0 Ga3 2.854448 1_555
Ga0 Ga1 2.854461 1_555
Ga0 Ga2 2.854461 1_555
Ga0 Zr8 2.872204 1_565
Ga0 Zr7 2.872204 1_655
Ga0 Zr6 2.872214 1_555
Ga0 Zr3 3.123322 1_665
Ga0 Zr5 3.123329 1_655
Ga0 Zr4 3.123329 1_565
Ga1 Pd2 2.611063 1_555
Ga1 Pd1 2.611070 1_655
Ga1 Ga8 2.723779 1_556
Ga1 Zr9 2.873774 1_655
Ga1 Zr10 2.873774 1_555
Ga1 Ga2 2.917180 1_555
Ga1 Ga3 2.917180 1_555
Ga1 Zr8 2.973102 1_556
Ga1 Zr5 3.060087 1_655
Ga1 Zr0 3.158050 1_556
Ga1 Zr1 3.158057 1_656
Ga2 Pd2 2.611063 1_555
Ga2 Pd0 2.611070 1_565
Ga2 Ga8 2.723779 1_556
Ga2 Zr9 2.873774 1_565
Ga2 Zr11 2.873774 1_555
Ga2 Ga3 2.917180 1_555
Ga2 Zr7 2.973102 1_556
Ga2 Zr4 3.060087 1_565
Ga2 Zr0 3.158049 1_556
Ga2 Zr2 3.158057 1_566
Ga3 Pd0 2.611065 1_565
Ga3 Pd1 2.611065 1_655
Ga3 Ga8 2.723774 1_556
Ga3 Zr10 2.873774 1_565
Ga3 Zr11 2.873774 1_655
Ga3 Zr6 2.973106 1_556
Ga3 Zr3 3.060094 1_665
Ga3 Zr1 3.158053 1_656
Ga3 Zr2 3.158053 1_566
Ga4 Pd1 2.653814 1_555
Ga4 Pd0 2.653815 1_555
Ga4 Pd2 2.653829 1_555
Ga4 Ga7 2.854448 1_555
Ga4 Ga5 2.854461 1_555
Ga4 Ga6 2.854461 1_555
Ga4 Zr2 2.872204 1_556
Ga4 Zr1 2.872204 1_556
Ga4 Zr0 2.872214 1_556
Ga4 Zr9 3.123322 1_555
Ga4 Zr11 3.123329 1_555
Ga4 Zr10 3.123329 1_555
Ga5 Pd2 2.611063 1_555
Ga5 Pd1 2.611070 1_555
Ga5 Ga8 2.723779 1_555
Ga5 Zr3 2.873774 1_565
Ga5 Zr4 2.873774 1_565
Ga5 Ga6 2.917180 1_555
Ga5 Ga7 2.917180 1_555
Ga5 Zr2 2.973102 1_565
Ga5 Zr11 3.060087 1_555
Ga5 Zr6 3.158050 1_555
Ga5 Zr7 3.158057 1_555
Ga6 Pd2 2.611063 1_555
Ga6 Pd0 2.611070 1_555
Ga6 Ga8 2.723779 1_555
Ga6 Zr3 2.873774 1_655
Ga6 Zr5 2.873774 1_655
Ga6 Ga7 2.917180 1_555
Ga6 Zr1 2.973102 1_655
Ga6 Zr10 3.060087 1_555
Ga6 Zr6 3.158049 1_555
Ga6 Zr8 3.158057 1_555
Ga7 Pd0 2.611065 1_555
Ga7 Pd1 2.611065 1_555
Ga7 Ga8 2.723774 1_555
Ga7 Zr4 2.873774 1_555
Ga7 Zr5 2.873774 1_555
Ga7 Zr0 2.973106 1_555
Ga7 Zr9 3.060094 1_555
Ga7 Zr7 3.158053 1_555
Ga7 Zr8 3.158053 1_555
Ga8 Zr2 3.131571 1_565
Ga8 Zr8 3.131571 1_555
Ga8 Zr1 3.131571 1_655
Ga8 Zr7 3.131571 1_555
Ga8 Zr6 3.131571 1_555
Ga8 Zr0 3.131571 1_555
Pd0 Zr2 3.122171 1_556
Pd0 Zr8 3.122171 1_555
Pd0 Zr10 3.133041 1_555
Pd0 Zr4 3.133041 1_555
Pd0 Zr3 3.133048 1_655
Pd0 Zr9 3.133048 1_555
Pd1 Zr1 3.122170 1_556
Pd1 Zr7 3.122170 1_555
Pd1 Zr11 3.133041 1_555
Pd1 Zr5 3.133041 1_555
Pd1 Zr3 3.133047 1_565
Pd1 Zr9 3.133047 1_555
Pd2 Zr0 3.122170 1_556
Pd2 Zr6 3.122170 1_555
Pd2 Zr4 3.133046 1_565
Pd2 Zr10 3.133046 1_555
Pd2 Zr5 3.133047 1_655
Pd2 Zr11 3.133047 1_555
C0 Zr9 2.305212 1_555
C0 Zr3 2.305212 1_555
C0 Zr5 2.305218 1_555
C0 Zr11 2.305218 1_545
C0 Zr4 2.305218 1_555
C0 Zr10 2.305218 1_455
C1 Zr5 2.304958 1_555
C1 Zr11 2.304958 1_554
C1 Zr0 2.305073 1_555
C1 Zr6 2.305073 1_455
C1 Zr7 2.305073 1_555
C1 Zr1 2.305073 1_555
C2 Zr4 2.304958 1_555
C2 Zr10 2.304958 1_554
C2 Zr0 2.305072 1_555
C2 Zr6 2.305072 1_545
C2 Zr8 2.305073 1_555
C2 Zr2 2.305073 1_555
C3 Zr3 2.304960 1_555
C3 Zr9 2.304960 1_554
C3 Zr1 2.305072 1_555
C3 Zr7 2.305072 1_545
C3 Zr2 2.305073 1_555
C3 Zr8 2.305073 1_455
