# generated using pymatgen
data_Sr6Hf2TcH27
_symmetry_space_group_name_H-M   'P 1'
_cell_length_a   9.25318270
_cell_length_b   9.25318301
_cell_length_c   5.32783569
_cell_angle_alpha   90.00000000
_cell_angle_beta   90.00000000
_cell_angle_gamma   119.99999538
_symmetry_Int_Tables_number   1
_chemical_formula_structural   Sr6Hf2TcH27
_chemical_formula_sum   'Sr6 Hf2 Tc1 H27'
_cell_volume   395.06064065
_cell_formula_units_Z   1
loop_
 _symmetry_equiv_pos_site_id
 _symmetry_equiv_pos_as_xyz
  1  'x, y, z'
loop_
 _atom_site_type_symbol
 _atom_site_label
 _atom_site_symmetry_multiplicity
 _atom_site_fract_x
 _atom_site_fract_y
 _atom_site_fract_z
 _atom_site_occupancy
  Sr  Sr0  1  0.25765222  0.99873497  0.50000000  1
  Sr  Sr1  1  0.00126503  0.25891725  0.50000000  1
  Sr  Sr2  1  0.74108275  0.74234778  0.50000000  1
  Sr  Sr3  1  0.58960978  0.94199208  0.00000000  1
  Sr  Sr4  1  0.05800792  0.64761670  0.00000000  1
  Sr  Sr5  1  0.35238330  0.41039022  0.00000000  1
  Hf  Hf0  1  0.00000000  0.00000000  0.00000000  1
  Hf  Hf1  1  0.33333300  0.66666700  0.50000000  1
  Tc  Tc0  1  0.66666700  0.33333300  0.50000000  1
  H  H0  1  0.84678023  0.00113452  0.25439844  1
  H  H1  1  0.99886548  0.84564571  0.25439844  1
  H  H2  1  0.84678023  0.00113452  0.74560156  1
  H  H3  1  0.99886548  0.84564571  0.74560156  1
  H  H4  1  0.15435429  0.15321977  0.25439844  1
  H  H5  1  0.15435429  0.15321977  0.74560156  1
  H  H6  1  0.21174397  0.99235932  0.00000000  1
  H  H7  1  0.00764068  0.21938464  0.00000000  1
  H  H8  1  0.78061536  0.78825603  0.00000000  1
  H  H9  1  0.18291652  0.51334885  0.24028201  1
  H  H10  1  0.48665115  0.66956767  0.24028201  1
  H  H11  1  0.18291652  0.51334885  0.75971799  1
  H  H12  1  0.53469223  0.21352773  0.72877990  1
  H  H13  1  0.33043233  0.81708348  0.24028201  1
  H  H14  1  0.48665115  0.66956767  0.75971799  1
  H  H15  1  0.67883550  0.46530777  0.72877990  1
  H  H16  1  0.53469223  0.21352773  0.27122010  1
  H  H17  1  0.33043233  0.81708348  0.75971799  1
  H  H18  1  0.67883550  0.46530777  0.27122010  1
  H  H19  1  0.78647227  0.32116450  0.72877990  1
  H  H20  1  0.78647227  0.32116450  0.27122010  1
  H  H21  1  0.32436267  0.44974289  0.50000000  1
  H  H22  1  0.55025711  0.87461978  0.50000000  1
  H  H23  1  0.49841593  0.35261314  0.50000000  1
  H  H24  1  0.12538022  0.67563733  0.50000000  1
  H  H25  1  0.85419821  0.50158407  0.50000000  1
  H  H26  1  0.64738686  0.14580179  0.50000000  1
loop_
_geom_bond_atom_site_label_1
_geom_bond_atom_site_label_2
_geom_bond_distance
_geom_bond_site_symmetry_2
H0 Hf0 1.965237 1_655
H0 Sr1 2.456746 1_655
H0 Sr2 2.461889 1_545
H0 Sr3 2.548924 1_545
H1 Hf0 1.965237 1_665
H1 Sr2 2.456746 1_555
H1 Sr0 2.461889 1_655
H1 Sr4 2.548932 1_655
H2 Hf0 1.965237 1_656
H2 Sr1 2.456746 1_655
H2 Sr2 2.461889 1_545
H2 Sr3 2.548924 1_546
H3 Hf0 1.965237 1_666
H3 Sr2 2.456746 1_555
H3 Sr0 2.461889 1_655
H3 Sr4 2.548932 1_656
H4 Hf0 1.965237 1_555
H4 Sr0 2.456746 1_545
H4 Sr1 2.461889 1_555
H4 Sr5 2.548927 1_555
H5 Hf0 1.965237 1_556
H5 Sr0 2.456746 1_545
H5 Sr1 2.461889 1_555
H5 Sr5 2.548927 1_556
H6 Hf0 1.995595 1_565
H6 Sr0 2.693572 1_555
H6 Sr0 2.693572 1_554
H6 Sr4 2.767969 1_555
H7 Hf0 1.995595 1_555
H7 Sr1 2.693572 1_554
H7 Sr1 2.693572 1_555
H7 Sr5 2.767968 1_555
H8 Hf0 1.995596 1_665
H8 Sr2 2.693572 1_555
H8 Sr2 2.693572 1_554
H8 Sr3 2.767960 1_555
H9 Hf1 1.972310 1_555
H9 Sr4 2.440142 1_555
H9 Sr1 2.515053 1_555
H9 Sr5 2.549389 1_555
H10 Hf1 1.972313 1_555
H10 Sr5 2.440149 1_555
H10 Sr2 2.515053 1_555
H10 Sr3 2.549382 1_555
H11 Hf1 1.972310 1_555
H11 Sr4 2.440142 1_556
H11 Sr1 2.515053 1_555
H11 Sr5 2.549389 1_556
H12 Tc0 1.688841 1_555
H12 Sr0 2.629160 1_545
H13 Hf1 1.972307 1_555
H13 Sr3 2.440149 1_555
H13 Sr0 2.515053 1_555
H13 Sr4 2.549383 1_555
H14 Hf1 1.972313 1_555
H14 Sr5 2.440149 1_556
H14 Sr2 2.515053 1_555
H14 Sr3 2.549382 1_556
H15 Tc0 1.688844 1_555
H15 Sr2 2.629160 1_555
H16 Tc0 1.688841 1_555
H16 Sr0 2.629160 1_545
H17 Hf1 1.972307 1_555
H17 Sr3 2.440149 1_556
H17 Sr0 2.515053 1_555
H17 Sr4 2.549383 1_556
H18 Tc0 1.688844 1_555
H18 Sr2 2.629160 1_555
H19 Tc0 1.688838 1_555
H19 Sr1 2.629160 1_655
H20 Tc0 1.688838 1_555
H20 Sr1 2.629160 1_655
H21 Hf1 1.967050 1_555
H21 Sr1 2.603274 1_555
H21 Sr5 2.718583 1_555
H21 Sr5 2.718583 1_556
H22 Hf1 1.967046 1_555
H22 Sr2 2.603274 1_555
H22 Sr3 2.718582 1_555
H22 Sr3 2.718582 1_556
H23 Tc0 1.653294 1_555
H24 Hf1 1.967041 1_555
H24 Sr0 2.603274 1_555
H24 Sr4 2.718581 1_556
H24 Sr4 2.718581 1_555
H25 Tc0 1.653294 1_555
H26 Tc0 1.653294 1_555
