# generated using pymatgen
data_Sc2InB2RuRh4
_symmetry_space_group_name_H-M   'P 1'
_cell_length_a   9.51072731
_cell_length_b   9.51072731
_cell_length_c   3.05919370
_cell_angle_alpha   90.00000000
_cell_angle_beta   90.00000000
_cell_angle_gamma   90.00000000
_symmetry_Int_Tables_number   1
_chemical_formula_structural   Sc2InB2RuRh4
_chemical_formula_sum   'Sc4 In2 B4 Ru2 Rh8'
_cell_volume   276.71610448
_cell_formula_units_Z   2
loop_
 _symmetry_equiv_pos_site_id
 _symmetry_equiv_pos_as_xyz
  1  'x, y, z'
loop_
 _atom_site_type_symbol
 _atom_site_label
 _atom_site_symmetry_multiplicity
 _atom_site_fract_x
 _atom_site_fract_y
 _atom_site_fract_z
 _atom_site_occupancy
  Sc  Sc0  1  0.67362368  0.17362368  0.00000000  1
  Sc  Sc1  1  0.32637632  0.82637632  0.00000000  1
  Sc  Sc2  1  0.17362368  0.32637632  0.00000000  1
  Sc  Sc3  1  0.82637632  0.67362368  0.00000000  1
  In  In0  1  0.50000000  0.50000000  0.00000000  1
  In  In1  1  0.00000000  0.00000000  0.00000000  1
  B  B0  1  0.12033688  0.62033688  0.00000000  1
  B  B1  1  0.87966312  0.37966312  0.00000000  1
  B  B2  1  0.62033688  0.87966312  0.00000000  1
  B  B3  1  0.37966312  0.12033688  0.00000000  1
  Ru  Ru0  1  0.50000000  0.00000000  0.50000000  1
  Ru  Ru1  1  0.00000000  0.50000000  0.50000000  1
  Rh  Rh0  1  0.57293993  0.72310793  0.50000000  1
  Rh  Rh1  1  0.42706007  0.27689207  0.50000000  1
  Rh  Rh2  1  0.07293993  0.77689207  0.50000000  1
  Rh  Rh3  1  0.92706007  0.22310793  0.50000000  1
  Rh  Rh4  1  0.27689207  0.57293993  0.50000000  1
  Rh  Rh5  1  0.72310793  0.42706007  0.50000000  1
  Rh  Rh6  1  0.22310793  0.07293993  0.50000000  1
  Rh  Rh7  1  0.77689207  0.92706007  0.50000000  1
loop_
_geom_bond_atom_site_label_1
_geom_bond_atom_site_label_2
_geom_bond_distance
_geom_bond_site_symmetry_2
In0 Rh0 2.706186 1_555
In0 Rh0 2.706186 1_554
In0 Rh5 2.706186 1_554
In0 Rh5 2.706186 1_555
In0 Rh4 2.706186 1_555
In0 Rh4 2.706186 1_554
In0 Rh1 2.706186 1_554
In0 Rh1 2.706186 1_555
In1 Rh6 2.706186 1_554
In1 Rh6 2.706186 1_555
In1 Rh3 2.706186 1_455
In1 Rh3 2.706186 1_454
In1 Rh2 2.706186 1_544
In1 Rh2 2.706186 1_545
In1 Rh7 2.706186 1_444
In1 Rh7 2.706186 1_445
B0 Rh2 2.181708 1_554
B0 Rh4 2.181708 1_555
B0 Rh4 2.181708 1_554
B0 Rh2 2.181708 1_555
B0 Ru1 2.226968 1_554
B0 Ru1 2.226968 1_555
B0 Sc1 2.771271 1_555
B0 Sc3 2.841342 1_455
B0 Sc2 2.841342 1_555
B1 Rh3 2.181708 1_554
B1 Rh3 2.181708 1_555
B1 Rh5 2.181708 1_555
B1 Rh5 2.181708 1_554
B1 Ru1 2.226968 1_654
B1 Ru1 2.226968 1_655
B1 Sc0 2.771271 1_555
B1 Sc2 2.841342 1_655
B1 Sc3 2.841342 1_555
B2 Rh7 2.181708 1_555
B2 Rh0 2.181708 1_554
B2 Rh7 2.181708 1_554
B2 Rh0 2.181708 1_555
B2 Ru0 2.226968 1_565
B2 Ru0 2.226968 1_564
B2 Sc3 2.771271 1_555
B2 Sc0 2.841342 1_565
B2 Sc1 2.841342 1_555
B3 Rh6 2.181708 1_555
B3 Rh6 2.181708 1_554
B3 Rh1 2.181708 1_554
B3 Rh1 2.181708 1_555
B3 Ru0 2.226968 1_554
B3 Ru0 2.226968 1_555
B3 Sc2 2.771271 1_555
B3 Sc1 2.841342 1_545
B3 Sc0 2.841342 1_555
Ru0 Sc0 2.791625 1_555
Ru0 Sc0 2.791625 1_556
Ru0 Sc1 2.791625 1_546
Ru0 Sc1 2.791625 1_545
Ru1 Sc3 2.791625 1_456
Ru1 Sc3 2.791625 1_455
Ru1 Sc2 2.791625 1_556
Ru1 Sc2 2.791625 1_555
Rh0 Sc3 2.893271 1_556
Rh0 Sc3 2.893271 1_555
Rh0 Sc1 2.967039 1_555
Rh0 Sc1 2.967039 1_556
Rh1 Sc2 2.893271 1_555
Rh1 Sc2 2.893271 1_556
Rh1 Sc0 2.967039 1_555
Rh1 Sc0 2.967039 1_556
Rh2 Sc1 2.893271 1_555
Rh2 Sc1 2.893271 1_556
Rh2 Sc3 2.967039 1_455
Rh2 Sc3 2.967039 1_456
Rh3 Sc0 2.893271 1_555
Rh3 Sc0 2.893271 1_556
Rh3 Sc2 2.967039 1_656
Rh3 Sc2 2.967039 1_655
Rh4 Sc1 2.893271 1_555
Rh4 Sc1 2.893271 1_556
Rh4 Sc2 2.967039 1_556
Rh4 Sc2 2.967039 1_555
Rh5 Sc0 2.893271 1_555
Rh5 Sc0 2.893271 1_556
Rh5 Sc3 2.967039 1_556
Rh5 Sc3 2.967039 1_555
Rh6 Sc2 2.893271 1_555
Rh6 Sc2 2.893271 1_556
Rh6 Sc1 2.967039 1_545
Rh6 Sc1 2.967039 1_546
Rh7 Sc3 2.893271 1_555
Rh7 Sc3 2.893271 1_556
Rh7 Sc0 2.967039 1_565
Rh7 Sc0 2.967039 1_566
