# generated using pymatgen
data_Zr5ZnSnBi2
_symmetry_space_group_name_H-M   'P 1'
_cell_length_a   8.77593784
_cell_length_b   8.77593784
_cell_length_c   5.88677887
_cell_angle_alpha   90.00000000
_cell_angle_beta   90.00000000
_cell_angle_gamma   119.89018947
_symmetry_Int_Tables_number   1
_chemical_formula_structural   Zr5ZnSnBi2
_chemical_formula_sum   'Zr10 Zn2 Sn2 Bi4'
_cell_volume   393.07454915
_cell_formula_units_Z   2
loop_
 _symmetry_equiv_pos_site_id
 _symmetry_equiv_pos_as_xyz
  1  'x, y, z'
loop_
 _atom_site_type_symbol
 _atom_site_label
 _atom_site_symmetry_multiplicity
 _atom_site_fract_x
 _atom_site_fract_y
 _atom_site_fract_z
 _atom_site_occupancy
  Zr  Zr0  1  0.66711468  0.33104001  0.00324981  1
  Zr  Zr1  1  0.33104001  0.66711468  0.00324981  1
  Zr  Zr2  1  0.33104001  0.66711468  0.49675019  1
  Zr  Zr3  1  0.66711468  0.33104001  0.49675019  1
  Zr  Zr4  1  0.73739633  0.73739633  0.75000000  1
  Zr  Zr5  1  0.26256833  0.99890790  0.75000000  1
  Zr  Zr6  1  0.99890790  0.26256833  0.75000000  1
  Zr  Zr7  1  0.26607159  0.26607159  0.25000000  1
  Zr  Zr8  1  0.73378153  0.00553184  0.25000000  1
  Zr  Zr9  1  0.00553184  0.73378153  0.25000000  1
  Zn  Zn0  1  0.00008262  0.00008262  0.00692595  1
  Zn  Zn1  1  0.00008262  0.00008262  0.49307405  1
  Sn  Sn0  1  0.38428558  0.00082566  0.25000000  1
  Sn  Sn1  1  0.00082566  0.38428558  0.25000000  1
  Bi  Bi0  1  0.38629686  0.38629686  0.75000000  1
  Bi  Bi1  1  0.61114156  0.99905721  0.75000000  1
  Bi  Bi2  1  0.99905721  0.61114156  0.75000000  1
  Bi  Bi3  1  0.61766199  0.61766199  0.25000000  1
loop_
_geom_bond_atom_site_label_1
_geom_bond_atom_site_label_2
_geom_bond_distance
_geom_bond_site_symmetry_2
Zr0 Zr3 2.905128 1_555
Zr0 Zr3 2.981651 1_554
Zr1 Zr2 2.905128 1_555
Zr1 Zr2 2.981651 1_554
Zn0 Zr7 2.741279 1_555
Zn0 Zr5 2.760020 1_544
Zn0 Zr6 2.760020 1_454
Zn0 Zr4 2.760380 1_444
Zn0 Zr8 2.760975 1_455
Zn0 Zr9 2.760975 1_545
Zn0 Zn1 2.861846 1_555
Zn0 Zn1 3.024933 1_554
Zn1 Zr7 2.741279 1_555
Zn1 Zr5 2.760020 1_545
Zn1 Zr6 2.760020 1_455
Zn1 Zr4 2.760380 1_445
Zn1 Zr8 2.760975 1_455
Zn1 Zr9 2.760975 1_545
Sn0 Zr9 2.962564 1_545
Sn0 Zr7 2.983581 1_555
Sn0 Zr8 3.046783 1_555
Sn0 Zr3 3.082161 1_555
Sn0 Zr0 3.082161 1_555
Sn0 Zr2 3.088884 1_545
Sn0 Zr1 3.088884 1_545
Sn0 Zr5 3.128406 1_544
Sn0 Zr5 3.128406 1_545
Sn1 Zr8 2.962564 1_455
Sn1 Zr7 2.983581 1_555
Sn1 Zr9 3.046783 1_555
Sn1 Zr2 3.082161 1_555
Sn1 Zr1 3.082161 1_555
Sn1 Zr3 3.088884 1_455
Sn1 Zr0 3.088884 1_455
Sn1 Zr6 3.128406 1_455
Sn1 Zr6 3.128406 1_454
Bi0 Zr6 3.009610 1_455
Bi0 Zr5 3.009610 1_545
Bi0 Zr4 3.086340 1_555
Bi0 Zr0 3.118060 1_556
Bi0 Zr3 3.118060 1_555
Bi0 Zr1 3.118060 1_556
Bi0 Zr2 3.118060 1_555
Bi0 Zr7 3.127372 1_555
Bi0 Zr7 3.127372 1_556
Bi1 Zr4 3.006100 1_555
Bi1 Zr6 3.014116 1_565
Bi1 Zr5 3.058404 1_555
Bi1 Zr0 3.086376 1_566
Bi1 Zr3 3.086376 1_565
Bi1 Zr1 3.100676 1_556
Bi1 Zr2 3.100676 1_555
Bi1 Zr8 3.124772 1_565
Bi1 Zr8 3.124772 1_566
Bi2 Zr4 3.006100 1_555
Bi2 Zr5 3.014116 1_655
Bi2 Zr6 3.058404 1_555
Bi2 Zr1 3.086376 1_656
Bi2 Zr2 3.086376 1_655
Bi2 Zr0 3.100676 1_556
Bi2 Zr3 3.100676 1_555
Bi2 Zr9 3.124772 1_655
Bi2 Zr9 3.124772 1_656
Bi3 Zr9 3.027852 1_655
Bi3 Zr8 3.027852 1_565
Bi3 Zr7 3.090655 1_555
Bi3 Zr2 3.116640 1_555
Bi3 Zr1 3.116640 1_555
Bi3 Zr3 3.116640 1_555
Bi3 Zr0 3.116640 1_555
Bi3 Zr4 3.125916 1_554
Bi3 Zr4 3.125916 1_555
