# generated using pymatgen
data_Lu12Co2Cu3Bi
_symmetry_space_group_name_H-M   'P 1'
_cell_length_a   8.15288003
_cell_length_b   8.15287912
_cell_length_c   8.15287923
_cell_angle_alpha   111.35556658
_cell_angle_beta   109.89550246
_cell_angle_gamma   107.18990093
_symmetry_Int_Tables_number   1
_chemical_formula_structural   Lu12Co2Cu3Bi
_chemical_formula_sum   'Lu12 Co2 Cu3 Bi1'
_cell_volume   416.60400671
_cell_formula_units_Z   1
loop_
 _symmetry_equiv_pos_site_id
 _symmetry_equiv_pos_as_xyz
  1  'x, y, z'
loop_
 _atom_site_type_symbol
 _atom_site_label
 _atom_site_symmetry_multiplicity
 _atom_site_fract_x
 _atom_site_fract_y
 _atom_site_fract_z
 _atom_site_occupancy
  Lu  Lu0  1  0.82251563  0.71434271  0.53685934  1
  Lu  Lu1  1  0.17748437  0.28565729  0.46314066  1
  Lu  Lu2  1  0.17748437  0.71434271  0.89182807  1
  Lu  Lu3  1  0.82251563  0.28565729  0.10817193  1
  Lu  Lu4  1  0.68973260  0.38212071  0.69238812  1
  Lu  Lu5  1  0.31026740  0.61787929  0.30761188  1
  Lu  Lu6  1  0.68973260  0.99734448  0.30761188  1
  Lu  Lu7  1  0.31026740  0.00265552  0.69238812  1
  Lu  Lu8  1  0.57909905  0.77810614  0.80099390  1
  Lu  Lu9  1  0.42090095  0.22189386  0.19900610  1
  Lu  Lu10  1  0.97711324  0.77810614  0.19900610  1
  Lu  Lu11  1  0.02288676  0.22189386  0.80099390  1
  Co  Co0  1  0.11347780  0.61347780  0.50000000  1
  Co  Co1  1  0.88652220  0.38652220  0.50000000  1
  Cu  Cu0  1  0.63634276  1.00000000  0.63634276  1
  Cu  Cu1  1  0.36365724  0.00000000  0.36365724  1
  Cu  Cu2  1  0.00000000  0.00000000  0.00000000  1
  Bi  Bi0  1  0.50000000  0.50000000  0.00000000  1
loop_
_geom_bond_atom_site_label_1
_geom_bond_atom_site_label_2
_geom_bond_distance
_geom_bond_site_symmetry_2
Co0 Co1 2.196318 1_455
Co0 Lu7 2.599112 1_565
Co0 Lu5 2.599112 1_555
Co0 Lu1 2.802143 1_555
Co0 Lu0 2.802147 1_455
Co0 Lu3 2.802148 1_455
Co0 Lu2 2.802152 1_555
Co0 Lu8 3.237809 1_555
Co0 Lu10 3.237814 1_455
Co1 Lu6 2.599112 1_545
Co1 Lu4 2.599112 1_555
Co1 Lu0 2.802143 1_555
Co1 Lu1 2.802147 1_655
Co1 Lu2 2.802148 1_655
Co1 Lu3 2.802152 1_555
Co1 Lu9 3.237809 1_555
Co1 Lu11 3.237814 1_655
Cu0 Cu1 2.553639 1_565
Cu0 Lu11 2.643582 1_665
Cu0 Lu8 2.643590 1_555
Cu0 Lu4 2.851351 1_565
Cu0 Lu5 2.851351 1_555
Cu0 Lu6 2.851351 1_555
Cu0 Lu7 2.851351 1_565
Cu0 Lu3 3.152329 1_566
Cu0 Lu0 3.152334 1_555
Cu1 Lu10 2.643582 1_445
Cu1 Lu9 2.643590 1_555
Cu1 Lu5 2.851351 1_545
Cu1 Lu4 2.851351 1_555
Cu1 Lu7 2.851351 1_555
Cu1 Lu6 2.851351 1_545
Cu1 Lu2 3.152329 1_544
Cu1 Lu1 3.152334 1_555
Cu2 Lu11 2.843276 1_554
Cu2 Lu10 2.843276 1_445
Cu2 Lu9 2.843284 1_555
Cu2 Lu8 2.843284 1_444
Cu2 Lu1 3.108067 1_555
Cu2 Lu0 3.108067 1_444
Cu2 Lu2 3.108072 1_544
Cu2 Lu3 3.108072 1_455
Bi0 Lu8 3.273585 1_554
Bi0 Lu9 3.273585 1_555
Bi0 Lu10 3.273593 1_555
Bi0 Lu11 3.273593 1_554
Bi0 Lu7 3.371911 1_554
Bi0 Lu6 3.371911 1_555
Bi0 Lu5 3.371911 1_555
Bi0 Lu4 3.371911 1_554
Bi0 Lu3 3.606328 1_555
Bi0 Lu2 3.606328 1_554
Bi0 Lu0 3.606335 1_555
Bi0 Lu1 3.606335 1_554
