# generated using pymatgen
data_TaAlOsRu
_symmetry_space_group_name_H-M   'P 1'
_cell_length_a   4.36660080
_cell_length_b   4.36660110
_cell_length_c   4.36660071
_cell_angle_alpha   60.00000289
_cell_angle_beta   60.00000062
_cell_angle_gamma   60.00000698
_symmetry_Int_Tables_number   1
_chemical_formula_structural   TaAlOsRu
_chemical_formula_sum   'Ta1 Al1 Os1 Ru1'
_cell_volume   58.87291330
_cell_formula_units_Z   1
loop_
 _symmetry_equiv_pos_site_id
 _symmetry_equiv_pos_as_xyz
  1  'x, y, z'
loop_
 _atom_site_type_symbol
 _atom_site_label
 _atom_site_symmetry_multiplicity
 _atom_site_fract_x
 _atom_site_fract_y
 _atom_site_fract_z
 _atom_site_occupancy
  Ta  Ta0  1  0.00000000  0.00000000  0.00000000  1
  Al  Al0  1  0.50000000  0.50000000  0.50000000  1
  Os  Os0  1  0.25000000  0.25000000  0.25000000  1
  Ru  Ru0  1  0.75000000  0.75000000  0.75000000  1
loop_
_geom_bond_atom_site_label_1
_geom_bond_atom_site_label_2
_geom_bond_distance
_geom_bond_site_symmetry_2
Al0 Os0 2.673986 1_555
Al0 Os0 2.673986 1_556
Al0 Ru0 2.673986 1_555
Al0 Ru0 2.673986 1_554
Al0 Os0 2.673986 1_655
Al0 Ru0 2.673986 1_455
Al0 Os0 2.673986 1_565
Al0 Ru0 2.673986 1_545
Os0 Ta0 2.673986 1_556
Os0 Ta0 2.673986 1_555
Os0 Ta0 2.673986 1_655
Os0 Ta0 2.673986 1_565
Ru0 Ta0 2.673986 1_666
Ru0 Ta0 2.673986 1_665
Ru0 Ta0 2.673986 1_566
Ru0 Ta0 2.673986 1_656
