# generated using pymatgen
data_Cr4AgHgTe8
_symmetry_space_group_name_H-M   'P 1'
_cell_length_a   8.19506545
_cell_length_b   8.18561104
_cell_length_c   8.18870255
_cell_angle_alpha   59.98651465
_cell_angle_beta   59.99563787
_cell_angle_gamma   60.01965572
_symmetry_Int_Tables_number   1
_chemical_formula_structural   Cr4AgHgTe8
_chemical_formula_sum   'Cr4 Ag1 Hg1 Te8'
_cell_volume   388.42706797
_cell_formula_units_Z   1
loop_
 _symmetry_equiv_pos_site_id
 _symmetry_equiv_pos_as_xyz
  1  'x, y, z'
loop_
 _atom_site_type_symbol
 _atom_site_label
 _atom_site_symmetry_multiplicity
 _atom_site_fract_x
 _atom_site_fract_y
 _atom_site_fract_z
 _atom_site_occupancy
  Cr  Cr0  1  0.12702115  0.12701849  0.12699989  1
  Cr  Cr1  1  0.61909667  0.12695394  0.12695839  1
  Cr  Cr2  1  0.12700422  0.12702213  0.61897635  1
  Cr  Cr3  1  0.12699875  0.61891003  0.12705756  1
  Ag  Ag0  1  0.50015173  0.49991365  0.49992522  1
  Hg  Hg0  1  0.74964734  0.75021096  0.75011078  1
  Te  Te0  1  0.33197835  0.88926250  0.88939549  1
  Te  Te1  1  0.36293423  0.36278273  0.36301202  1
  Te  Te2  1  0.88953566  0.88947568  0.33163981  1
  Te  Te3  1  0.88939546  0.33160343  0.88946886  1
  Te  Te4  1  0.36278665  0.36279728  0.91140557  1
  Te  Te5  1  0.36296564  0.91147835  0.36283160  1
  Te  Te6  1  0.91096122  0.36312385  0.36293355  1
  Te  Te7  1  0.88952192  0.88944799  0.88928591  1
loop_
_geom_bond_atom_site_label_1
_geom_bond_atom_site_label_2
_geom_bond_distance
_geom_bond_site_symmetry_2
Cr0 Te4 2.735198 1_554
Cr0 Te6 2.738072 1_455
Cr0 Te5 2.738150 1_545
Cr0 Te2 2.763552 1_445
Cr0 Te0 2.765359 1_544
Cr0 Te3 2.765928 1_454
Cr1 Te5 2.735803 1_545
Cr1 Te1 2.737575 1_555
Cr1 Te4 2.738790 1_554
Cr1 Te3 2.763329 1_554
Cr1 Te7 2.764853 1_544
Cr1 Te2 2.765834 1_545
Cr2 Te1 2.735907 1_555
Cr2 Te5 2.736366 1_545
Cr2 Te6 2.739502 1_455
Cr2 Te7 2.763462 1_445
Cr2 Te3 2.764127 1_455
Cr2 Te0 2.766652 1_545
Cr3 Te6 2.736400 1_455
Cr3 Te4 2.736723 1_554
Cr3 Te1 2.738567 1_555
Cr3 Te2 2.764505 1_455
Cr3 Te0 2.764725 1_554
Cr3 Te7 2.766137 1_454
Ag0 Te6 2.749237 1_555
Ag0 Te1 2.750069 1_555
Ag0 Te4 2.750671 1_555
Ag0 Te5 2.750862 1_555
Hg0 Te0 2.795143 1_555
Hg0 Te7 2.797049 1_555
Hg0 Te2 2.797403 1_555
Hg0 Te3 2.797937 1_555
