# generated using pymatgen
data_Ga3Pd7
_symmetry_space_group_name_H-M   'P 1'
_cell_length_a   4.07557031
_cell_length_b   5.48343298
_cell_length_c   7.11197820
_cell_angle_alpha   104.44955767
_cell_angle_beta   106.65023886
_cell_angle_gamma   90.00001730
_symmetry_Int_Tables_number   1
_chemical_formula_structural   Ga3Pd7
_chemical_formula_sum   'Ga3 Pd7'
_cell_volume   147.01992991
_cell_formula_units_Z   1
loop_
 _symmetry_equiv_pos_site_id
 _symmetry_equiv_pos_as_xyz
  1  'x, y, z'
loop_
 _atom_site_type_symbol
 _atom_site_label
 _atom_site_symmetry_multiplicity
 _atom_site_fract_x
 _atom_site_fract_y
 _atom_site_fract_z
 _atom_site_occupancy
  Ga  Ga0  1  -0.00000000  -0.00000000  0.00000000  1
  Ga  Ga1  1  0.80876698  0.33643300  0.61753097  1
  Ga  Ga2  1  0.19123302  0.66356700  0.38246903  1
  Pd  Pd0  1  -0.00000000  0.50000000  0.00000000  1
  Pd  Pd1  1  0.79379975  0.86218961  0.58759850  1
  Pd  Pd2  1  0.20620025  0.13781039  0.41240150  1
  Pd  Pd3  1  0.62633529  0.38770654  0.25267058  1
  Pd  Pd4  1  0.37366471  0.61229346  0.74732942  1
  Pd  Pd5  1  0.58170054  0.85728085  0.16340208  1
  Pd  Pd6  1  0.41829946  0.14271915  0.83659792  1
loop_
_geom_bond_atom_site_label_1
_geom_bond_atom_site_label_2
_geom_bond_distance
_geom_bond_site_symmetry_2
Ga0 Pd6 2.541360 1_454
Ga0 Pd5 2.541360 1_545
Ga0 Pd6 2.541363 1_554
Ga0 Pd5 2.541363 1_445
Ga0 Pd2 2.713140 1_555
Ga0 Pd1 2.713140 1_444
Ga0 Pd0 2.741716 1_555
Ga0 Pd0 2.741716 1_545
Ga0 Pd4 3.119260 1_444
Ga0 Pd3 3.119260 1_555
Ga0 Pd4 3.119261 1_544
Ga0 Pd3 3.119261 1_455
Ga1 Pd0 2.525562 1_656
Ga1 Pd2 2.549389 1_655
Ga1 Pd2 2.549401 1_555
Ga1 Pd4 2.554607 1_655
Ga1 Pd4 2.554618 1_555
Ga1 Pd1 2.554962 1_545
Ga1 Pd3 2.573662 1_555
Ga1 Pd6 2.887012 1_655
Ga1 Pd6 2.887018 1_555
Ga1 Pd1 2.942666 1_555
Ga2 Pd0 2.525562 1_555
Ga2 Pd1 2.549389 1_455
Ga2 Pd1 2.549401 1_555
Ga2 Pd3 2.554607 1_455
Ga2 Pd3 2.554618 1_555
Ga2 Pd2 2.554962 1_565
Ga2 Pd4 2.573662 1_555
Ga2 Pd5 2.887012 1_455
Ga2 Pd5 2.887018 1_555
Ga2 Pd2 2.942666 1_555
Pd0 Pd3 2.836896 1_455
Pd0 Pd4 2.836896 1_554
Pd0 Pd3 2.836897 1_555
Pd0 Pd4 2.836897 1_454
Pd0 Pd6 2.845022 1_454
Pd0 Pd5 2.845022 1_555
Pd0 Pd5 2.845026 1_455
Pd0 Pd6 2.845026 1_554
Pd1 Pd4 2.826953 1_655
Pd1 Pd4 2.826955 1_555
Pd1 Pd6 2.835120 1_665
Pd1 Pd6 2.835121 1_565
Pd1 Pd5 2.883490 1_555
Pd1 Pd2 2.966743 1_665
Pd1 Pd2 2.966749 1_565
Pd1 Pd3 2.980698 1_555
Pd2 Pd3 2.826953 1_455
Pd2 Pd3 2.826955 1_555
Pd2 Pd5 2.835120 1_445
Pd2 Pd5 2.835121 1_545
Pd2 Pd6 2.883490 1_555
Pd2 Pd4 2.980698 1_555
Pd3 Pd5 2.795675 1_555
Pd3 Pd6 2.803250 1_554
Pd3 Pd5 2.812138 1_545
Pd4 Pd6 2.795675 1_555
Pd4 Pd5 2.803250 1_556
Pd4 Pd6 2.812138 1_565
Pd5 Pd6 3.037070 1_564
