# generated using pymatgen
data_Ba20Si8Bi3Pb
_symmetry_space_group_name_H-M   'P 1'
_cell_length_a   8.78154617
_cell_length_b   8.78154617
_cell_length_c   16.72805014
_cell_angle_alpha   90.00000000
_cell_angle_beta   90.00000000
_cell_angle_gamma   90.00000000
_symmetry_Int_Tables_number   1
_chemical_formula_structural   Ba20Si8Bi3Pb
_chemical_formula_sum   'Ba20 Si8 Bi3 Pb1'
_cell_volume   1289.99283810
_cell_formula_units_Z   1
loop_
 _symmetry_equiv_pos_site_id
 _symmetry_equiv_pos_as_xyz
  1  'x, y, z'
loop_
 _atom_site_type_symbol
 _atom_site_label
 _atom_site_symmetry_multiplicity
 _atom_site_fract_x
 _atom_site_fract_y
 _atom_site_fract_z
 _atom_site_occupancy
  Ba  Ba0  1  0.31823519  0.66990533  0.11157012  1
  Ba  Ba1  1  0.16990533  0.18176481  0.11157012  1
  Ba  Ba2  1  0.50000000  0.00000000  0.73868487  1
  Ba  Ba3  1  0.32838289  0.68049376  0.38880481  1
  Ba  Ba4  1  0.67093362  0.68002829  0.88812072  1
  Ba  Ba5  1  0.18049376  0.17161711  0.38880481  1
  Ba  Ba6  1  0.67161711  0.31950624  0.38880481  1
  Ba  Ba7  1  0.17000674  0.81795878  0.61150919  1
  Ba  Ba8  1  0.32906638  0.31997171  0.88812072  1
  Ba  Ba9  1  0.18002829  0.82906638  0.88812072  1
  Ba  Ba10  1  0.50000000  0.00000000  0.23699159  1
  Ba  Ba11  1  0.82999326  0.18204122  0.61150919  1
  Ba  Ba12  1  0.31795878  0.32999326  0.61150919  1
  Ba  Ba13  1  0.81950624  0.82838289  0.38880481  1
  Ba  Ba14  1  0.81997171  0.17093362  0.88812072  1
  Ba  Ba15  1  0.83009467  0.81823519  0.11157012  1
  Ba  Ba16  1  0.00000000  0.50000000  0.25749807  1
  Ba  Ba17  1  0.00000000  0.50000000  0.76736258  1
  Ba  Ba18  1  0.68176481  0.33009467  0.11157012  1
  Ba  Ba19  1  0.68204122  0.67000674  0.61150919  1
  Si  Si0  1  0.10160666  0.10122719  0.74873491  1
  Si  Si1  1  0.39877281  0.60160666  0.74873491  1
  Si  Si2  1  0.60108923  0.60143276  0.25116198  1
  Si  Si3  1  0.10143276  0.89891077  0.25116198  1
  Si  Si4  1  0.60122719  0.39839334  0.74873491  1
  Si  Si5  1  0.89839334  0.89877281  0.74873491  1
  Si  Si6  1  0.39891077  0.39856724  0.25116198  1
  Si  Si7  1  0.89856724  0.10108923  0.25116198  1
  Bi  Bi0  1  0.50000000  0.00000000  0.00504532  1
  Bi  Bi1  1  0.50000000  0.00000000  0.50590125  1
  Bi  Bi2  1  0.00000000  0.50000000  0.49344663  1
  Pb  Pb0  1  0.00000000  0.50000000  0.99546678  1
loop_
_geom_bond_atom_site_label_1
_geom_bond_atom_site_label_2
_geom_bond_distance
_geom_bond_site_symmetry_2
Ba0 Si6 3.410599 1_555
Ba0 Si2 3.461789 1_555
Ba0 Si3 3.622373 1_555
Ba0 Pb0 3.715912 1_554
Ba0 Bi0 3.758435 1_565
Ba1 Si7 3.410599 1_455
Ba1 Si3 3.461789 1_545
Ba1 Si6 3.622373 1_555
Ba1 Pb0 3.715912 1_554
Ba1 Bi0 3.758435 1_555
Ba2 Si5 3.613590 1_545
Ba2 Si4 3.613590 1_555
Ba2 Si0 3.613590 1_555
Ba2 Si1 3.613590 1_545
Ba2 Bi1 3.894016 1_555
Ba3 Si2 3.393891 1_555
Ba3 Si6 3.437211 1_555
Ba3 Si3 3.598931 1_555
Ba3 Bi2 3.727216 1_555
Ba3 Bi1 3.739037 1_565
Ba4 Si1 3.409241 1_555
Ba4 Si4 3.453691 1_555
Ba4 Si5 3.621646 1_555
Ba4 Bi0 3.738188 1_566
Ba4 Pb0 3.751569 1_655
Ba5 Si3 3.393891 1_545
Ba5 Si7 3.437211 1_455
Ba5 Si6 3.598931 1_555
Ba5 Bi2 3.727216 1_555
Ba5 Bi1 3.739037 1_555
Ba6 Si6 3.393891 1_555
Ba6 Si2 3.437211 1_555
Ba6 Si7 3.598931 1_555
Ba6 Bi2 3.727216 1_655
Ba6 Bi1 3.739037 1_555
Ba7 Si5 3.385580 1_455
Ba7 Si0 3.437735 1_565
Ba7 Si1 3.593718 1_555
Ba7 Bi2 3.731686 1_555
Ba7 Bi1 3.751533 1_565
Ba8 Si4 3.409241 1_555
Ba8 Si1 3.453691 1_555
Ba8 Si0 3.621646 1_555
Ba8 Bi0 3.738188 1_556
Ba8 Pb0 3.751569 1_555
Ba9 Si0 3.409241 1_565
Ba9 Si5 3.453691 1_455
Ba9 Si1 3.621646 1_555
Ba9 Bi0 3.738188 1_566
Ba9 Pb0 3.751569 1_555
Ba10 Si6 3.618631 1_555
Ba10 Si7 3.618631 1_555
Ba10 Si2 3.618631 1_545
Ba10 Si3 3.618631 1_545
Ba10 Bi0 3.880009 1_555
Ba11 Si0 3.385580 1_655
Ba11 Si5 3.437735 1_545
Ba11 Si4 3.593718 1_555
Ba11 Bi2 3.731686 1_655
Ba11 Bi1 3.751533 1_555
Ba12 Si1 3.385580 1_555
Ba12 Si4 3.437735 1_555
Ba12 Si0 3.593718 1_555
Ba12 Bi2 3.731686 1_555
Ba12 Bi1 3.751533 1_555
Ba13 Si7 3.393891 1_565
Ba13 Si3 3.437211 1_655
Ba13 Si2 3.598931 1_555
Ba13 Bi2 3.727216 1_655
Ba13 Bi1 3.739037 1_565
Ba14 Si5 3.409241 1_545
Ba14 Si0 3.453691 1_655
Ba14 Si4 3.621646 1_555
Ba14 Bi0 3.738188 1_556
Ba14 Pb0 3.751569 1_655
Ba15 Si3 3.410599 1_655
Ba15 Si7 3.461789 1_565
Ba15 Si2 3.622373 1_555
Ba15 Pb0 3.715912 1_654
Ba15 Bi0 3.758435 1_565
Ba16 Si3 3.616079 1_555
Ba16 Si2 3.616079 1_455
Ba16 Si7 3.616079 1_455
Ba16 Si6 3.616079 1_555
Ba16 Bi2 3.946959 1_555
Ba17 Si1 3.627138 1_555
Ba17 Si0 3.627138 1_555
Ba17 Si4 3.627138 1_455
Ba17 Si5 3.627138 1_455
Ba17 Pb0 3.815738 1_555
Ba18 Si2 3.410599 1_555
Ba18 Si6 3.461789 1_555
Ba18 Si7 3.622373 1_555
Ba18 Pb0 3.715912 1_654
Ba18 Bi0 3.758435 1_555
Ba19 Si4 3.385580 1_555
Ba19 Si1 3.437735 1_555
Ba19 Si5 3.593718 1_555
Ba19 Bi2 3.731686 1_655
Ba19 Bi1 3.751533 1_565
Si0 Si5 2.518994 1_445
Si1 Si4 2.518994 1_555
Si2 Si6 2.515120 1_555
Si3 Si7 2.515120 1_465
