# generated using pymatgen
data_Y7Sn23(OsRh)3
_symmetry_space_group_name_H-M   'P 1'
_cell_length_a   9.85721931
_cell_length_b   9.85722181
_cell_length_c   9.98967034
_cell_angle_alpha   90.00000000
_cell_angle_beta   90.00000000
_cell_angle_gamma   120.00000485
_symmetry_Int_Tables_number   1
_chemical_formula_structural   Y7Sn23(OsRh)3
_chemical_formula_sum   'Y7 Sn23 Os3 Rh3'
_cell_volume   840.60257397
_cell_formula_units_Z   1
loop_
 _symmetry_equiv_pos_site_id
 _symmetry_equiv_pos_as_xyz
  1  'x, y, z'
loop_
 _atom_site_type_symbol
 _atom_site_label
 _atom_site_symmetry_multiplicity
 _atom_site_fract_x
 _atom_site_fract_y
 _atom_site_fract_z
 _atom_site_occupancy
  Y  Y0  1  0.00000000  0.00000000  0.98987573  1
  Y  Y1  1  0.03841662  0.51920831  0.30725264  1
  Y  Y2  1  0.48079169  0.96158338  0.30725264  1
  Y  Y3  1  0.48079169  0.51920831  0.30725264  1
  Y  Y4  1  0.96746131  0.48373015  0.69604290  1
  Y  Y5  1  0.51626985  0.03253869  0.69604290  1
  Y  Y6  1  0.51626985  0.48373015  0.69604290  1
  Sn  Sn0  1  0.00000000  0.00000000  0.49494288  1
  Sn  Sn1  1  0.11654592  0.88345408  0.28064984  1
  Sn  Sn2  1  0.76690615  0.88345408  0.28064984  1
  Sn  Sn3  1  0.11654592  0.23309385  0.28064984  1
  Sn  Sn4  1  0.88454869  0.11545131  0.71650166  1
  Sn  Sn5  1  0.23090262  0.11545131  0.71650166  1
  Sn  Sn6  1  0.88454869  0.76909738  0.71650166  1
  Sn  Sn7  1  0.35053277  0.99954947  0.00081829  1
  Sn  Sn8  1  0.64901669  0.64946723  0.00081829  1
  Sn  Sn9  1  0.00045053  0.35098331  0.00081829  1
  Sn  Sn10  1  0.35053277  0.35098331  0.00081829  1
  Sn  Sn11  1  0.00045053  0.64946723  0.00081829  1
  Sn  Sn12  1  0.64901669  0.99954947  0.00081829  1
  Sn  Sn13  1  0.77749029  0.55498058  0.45908645  1
  Sn  Sn14  1  0.77749029  0.22250971  0.45908645  1
  Sn  Sn15  1  0.44501942  0.22250971  0.45908645  1
  Sn  Sn16  1  0.22148910  0.44297919  0.54110273  1
  Sn  Sn17  1  0.22148910  0.77851090  0.54110273  1
  Sn  Sn18  1  0.55702081  0.77851090  0.54110273  1
  Sn  Sn19  1  0.66666700  0.33333300  0.17794366  1
  Sn  Sn20  1  0.33333300  0.66666700  0.82884703  1
  Sn  Sn21  1  0.66666700  0.33333300  0.87650548  1
  Sn  Sn22  1  0.33333300  0.66666700  0.12565441  1
  Os  Os0  1  0.16834007  0.83165993  0.80003772  1
  Os  Os1  1  0.66331987  0.83165993  0.80003772  1
  Os  Os2  1  0.16834007  0.33668013  0.80003772  1
  Rh  Rh0  1  0.83008485  0.16991515  0.19976577  1
  Rh  Rh1  1  0.33983030  0.16991515  0.19976577  1
  Rh  Rh2  1  0.83008485  0.66016970  0.19976577  1
loop_
_geom_bond_atom_site_label_1
_geom_bond_atom_site_label_2
_geom_bond_distance
_geom_bond_site_symmetry_2
Sn0 Sn1 2.922674 1_545
Sn0 Sn2 2.922685 1_445
Sn0 Sn3 2.922686 1_555
Sn0 Sn5 2.963785 1_555
Sn0 Sn4 2.963785 1_455
Sn0 Sn6 2.963785 1_445
Sn1 Y2 3.284803 1_555
Sn1 Y1 3.284804 1_555
Sn1 Y0 3.520917 1_564
Sn2 Y2 3.284784 1_555
Sn2 Y3 3.284797 1_555
Sn2 Y0 3.520926 1_664
Sn3 Y1 3.284784 1_555
Sn3 Y3 3.284797 1_555
Sn3 Y0 3.520926 1_554
Sn4 Y5 3.304723 1_555
Sn4 Y4 3.304724 1_555
Sn4 Y0 3.367972 1_655
Sn5 Y6 3.304727 1_555
Sn5 Y5 3.304733 1_555
Sn5 Y0 3.367972 1_555
Sn6 Y6 3.304726 1_555
Sn6 Y4 3.304734 1_555
Sn6 Y0 3.367972 1_665
Sn7 Y5 3.393098 1_564
Sn7 Y2 3.411747 1_555
Sn7 Y0 3.459229 1_564
Sn8 Y6 3.393096 1_554
Sn8 Y3 3.411747 1_555
Sn8 Y0 3.459229 1_664
Sn9 Y4 3.393094 1_454
Sn9 Y1 3.411748 1_555
Sn9 Y0 3.459230 1_554
Sn10 Y6 3.393096 1_554
Sn10 Y3 3.411747 1_555
Sn10 Y0 3.459229 1_554
Sn11 Y4 3.393098 1_454
Sn11 Y1 3.411748 1_555
Sn11 Y0 3.459230 1_564
Sn12 Y5 3.393093 1_564
Sn12 Y2 3.411747 1_555
Sn12 Y0 3.459229 1_664
Sn13 Y3 3.153899 1_555
Sn13 Y1 3.153900 1_655
Sn13 Sn6 3.154923 1_555
Sn13 Y6 3.304273 1_555
Sn13 Y4 3.304280 1_555
Sn14 Y2 3.153900 1_545
Sn14 Y1 3.153900 1_655
Sn14 Sn4 3.154923 1_555
Sn14 Y5 3.304275 1_555
Sn14 Y4 3.304275 1_555
Sn15 Y2 3.153900 1_545
Sn15 Y3 3.153900 1_555
Sn15 Sn5 3.154923 1_555
Sn15 Y6 3.304273 1_555
Sn15 Y5 3.304280 1_555
Sn16 Y4 3.135751 1_455
Sn16 Y6 3.135768 1_555
Sn16 Y1 3.261045 1_555
Sn16 Y3 3.261052 1_555
Sn17 Y5 3.135762 1_565
Sn17 Y4 3.135762 1_455
Sn17 Y2 3.261050 1_555
Sn17 Y1 3.261050 1_555
Sn18 Y5 3.135752 1_565
Sn18 Y6 3.135769 1_555
Sn18 Y2 3.261045 1_555
Sn18 Y3 3.261052 1_555
Sn19 Y1 3.426309 1_655
Sn19 Y2 3.426310 1_545
Sn19 Y3 3.426318 1_555
Sn20 Sn22 2.965008 1_556
Sn20 Y4 3.393385 1_455
Sn20 Y5 3.393386 1_565
Sn20 Y6 3.393401 1_555
Sn21 Y4 3.137411 1_555
Sn21 Y6 3.137411 1_555
Sn21 Y5 3.137411 1_555
Sn22 Y1 3.103097 1_555
Sn22 Y2 3.103097 1_555
Sn22 Y3 3.103104 1_555
Os0 Sn7 2.648573 1_556
Os0 Sn11 2.648573 1_556
Os0 Sn6 2.678988 1_455
Os0 Sn5 2.678988 1_565
Os0 Sn17 2.741224 1_555
Os0 Sn20 2.831622 1_555
Os0 Y5 3.157746 1_565
Os0 Y4 3.157747 1_455
Os0 Y0 3.443383 1_565
Os1 Sn12 2.648573 1_556
Os1 Sn8 2.648573 1_556
Os1 Sn6 2.678988 1_555
Os1 Sn4 2.678988 1_565
Os1 Sn18 2.741226 1_555
Os1 Sn20 2.831630 1_555
Os1 Y5 3.157739 1_565
Os1 Y6 3.157748 1_555
Os1 Y0 3.443382 1_665
Os2 Sn10 2.648573 1_556
Os2 Sn9 2.648573 1_556
Os2 Sn4 2.678988 1_455
Os2 Sn5 2.678988 1_555
Os2 Sn16 2.741227 1_555
Os2 Sn20 2.831630 1_555
Os2 Y4 3.157739 1_455
Os2 Y6 3.157747 1_555
Os2 Y0 3.443383 1_555
Rh0 Sn12 2.637856 1_545
Rh0 Sn9 2.637856 1_655
Rh0 Sn3 2.693610 1_655
Rh0 Sn2 2.693611 1_545
Rh0 Sn14 2.741745 1_555
Rh0 Sn19 2.798570 1_555
Rh0 Y2 3.186566 1_545
Rh0 Y1 3.186566 1_655
Rh0 Y0 3.579395 1_654
Rh1 Sn7 2.637857 1_545
Rh1 Sn10 2.637857 1_555
Rh1 Sn1 2.693616 1_545
Rh1 Sn3 2.693629 1_555
Rh1 Sn15 2.741745 1_555
Rh1 Sn19 2.798578 1_555
Rh1 Y2 3.186566 1_545
Rh1 Y3 3.186567 1_555
Rh1 Y0 3.579394 1_554
Rh2 Sn8 2.637856 1_555
Rh2 Sn11 2.637856 1_655
Rh2 Sn1 2.693616 1_655
Rh2 Sn2 2.693629 1_555
Rh2 Sn13 2.741745 1_555
Rh2 Sn19 2.798579 1_555
Rh2 Y3 3.186566 1_555
Rh2 Y1 3.186566 1_655
Rh2 Y0 3.579395 1_664
