# generated using pymatgen
data_Tl3PbCl5
_symmetry_space_group_name_H-M   'P 1'
_cell_length_a   8.48349148
_cell_length_b   8.48349148
_cell_length_c   14.88026700
_cell_angle_alpha   90.00000000
_cell_angle_beta   90.00000000
_cell_angle_gamma   90.00000000
_symmetry_Int_Tables_number   1
_chemical_formula_structural   Tl3PbCl5
_chemical_formula_sum   'Tl12 Pb4 Cl20'
_cell_volume   1070.92727594
_cell_formula_units_Z   4
loop_
 _symmetry_equiv_pos_site_id
 _symmetry_equiv_pos_as_xyz
  1  'x, y, z'
loop_
 _atom_site_type_symbol
 _atom_site_label
 _atom_site_symmetry_multiplicity
 _atom_site_fract_x
 _atom_site_fract_y
 _atom_site_fract_z
 _atom_site_occupancy
  Tl  Tl0  1  0.99738183  0.81122014  0.80554849  1
  Tl  Tl1  1  0.18877986  0.99738183  0.05554849  1
  Tl  Tl2  1  0.81122014  0.00261817  0.55554849  1
  Tl  Tl3  1  0.00261817  0.18877986  0.30554849  1
  Tl  Tl4  1  0.36560061  0.82505691  0.32236490  1
  Tl  Tl5  1  0.17494309  0.36560061  0.57236490  1
  Tl  Tl6  1  0.82505691  0.63439939  0.07236490  1
  Tl  Tl7  1  0.63439939  0.17494309  0.82236490  1
  Tl  Tl8  1  0.88284767  0.68337707  0.38363791  1
  Tl  Tl9  1  0.31662293  0.88284767  0.63363791  1
  Tl  Tl10  1  0.68337707  0.11715233  0.13363791  1
  Tl  Tl11  1  0.11715233  0.31662293  0.88363791  1
  Pb  Pb0  1  0.49312462  0.69593023  0.89669329  1
  Pb  Pb1  1  0.30406977  0.49312462  0.14669329  1
  Pb  Pb2  1  0.69593023  0.50687538  0.64669329  1
  Pb  Pb3  1  0.50687538  0.30406977  0.39669329  1
  Cl  Cl0  1  0.51048772  0.19982045  0.60579917  1
  Cl  Cl1  1  0.80017955  0.51048772  0.85579917  1
  Cl  Cl2  1  0.19982045  0.48951228  0.35579917  1
  Cl  Cl3  1  0.48951228  0.80017955  0.10579917  1
  Cl  Cl4  1  0.47861550  0.36048844  0.00910452  1
  Cl  Cl5  1  0.63951156  0.47861550  0.25910452  1
  Cl  Cl6  1  0.36048844  0.52138450  0.75910452  1
  Cl  Cl7  1  0.52138450  0.63951156  0.50910452  1
  Cl  Cl8  1  0.96456670  0.18311007  0.70692208  1
  Cl  Cl9  1  0.81688993  0.96456670  0.95692208  1
  Cl  Cl10  1  0.18311007  0.03543330  0.45692208  1
  Cl  Cl11  1  0.03543330  0.81688993  0.20692208  1
  Cl  Cl12  1  0.33151051  0.97838843  0.85286610  1
  Cl  Cl13  1  0.02161157  0.33151051  0.10286610  1
  Cl  Cl14  1  0.97838843  0.66848949  0.60286610  1
  Cl  Cl15  1  0.66848949  0.02161157  0.35286610  1
  Cl  Cl16  1  0.35243207  0.17769331  0.22706555  1
  Cl  Cl17  1  0.82230669  0.35243207  0.47706555  1
  Cl  Cl18  1  0.17769331  0.64756793  0.97706555  1
  Cl  Cl19  1  0.64756793  0.82230669  0.72706555  1
loop_
_geom_bond_atom_site_label_1
_geom_bond_atom_site_label_2
_geom_bond_distance
_geom_bond_site_symmetry_2
Cl0 Pb2 3.103344 1_555
Cl0 Tl2 3.141156 1_555
Cl0 Tl9 3.179212 1_545
Cl0 Tl5 3.213804 1_555
Cl0 Pb3 3.234942 1_555
Cl1 Pb0 3.103344 1_555
Cl1 Tl0 3.141156 1_555
Cl1 Tl11 3.179212 1_655
Cl1 Tl7 3.213804 1_555
Cl1 Pb2 3.234942 1_555
Cl2 Pb3 3.103344 1_555
Cl2 Tl3 3.141156 1_555
Cl2 Tl8 3.179212 1_455
Cl2 Tl4 3.213804 1_555
Cl2 Pb1 3.234942 1_555
Cl3 Pb1 3.103344 1_555
Cl3 Tl1 3.141156 1_555
Cl3 Tl10 3.179212 1_565
Cl3 Tl6 3.213804 1_555
Cl3 Pb0 3.234942 1_554
Cl4 Pb1 2.765941 1_555
Cl5 Pb3 2.765941 1_555
Cl6 Pb0 2.765941 1_555
Cl7 Pb2 2.765941 1_555
Cl8 Tl2 3.018380 1_555
Cl8 Tl5 3.096939 1_655
Cl8 Tl11 3.142167 1_655
Cl9 Tl0 3.018380 1_555
Cl9 Tl7 3.096939 1_565
Cl9 Tl10 3.142167 1_566
Cl10 Tl3 3.018380 1_555
Cl10 Tl4 3.096939 1_545
Cl10 Tl9 3.142167 1_545
Cl11 Tl1 3.018380 1_555
Cl11 Tl6 3.096939 1_455
Cl11 Tl8 3.142167 1_455
Cl12 Pb0 2.836728 1_555
Cl12 Tl7 3.096621 1_565
Cl12 Tl0 3.246813 1_455
Cl12 Tl1 3.253951 1_556
Cl13 Pb1 2.836728 1_555
Cl13 Tl6 3.096621 1_455
Cl13 Tl1 3.246813 1_545
Cl13 Tl3 3.253951 1_555
Cl14 Pb2 2.836728 1_555
Cl14 Tl5 3.096621 1_655
Cl14 Tl2 3.246813 1_565
Cl14 Tl0 3.253951 1_555
Cl15 Pb3 2.836728 1_555
Cl15 Tl4 3.096621 1_545
Cl15 Tl3 3.246813 1_655
Cl15 Tl2 3.253951 1_555
Cl16 Pb1 2.959630 1_555
Cl16 Pb3 3.039278 1_555
Cl16 Tl10 3.174738 1_555
Cl16 Tl3 3.190552 1_555
Cl16 Tl1 3.283476 1_545
Cl17 Pb3 2.959630 1_555
Cl17 Pb2 3.039278 1_555
Cl17 Tl8 3.174738 1_555
Cl17 Tl2 3.190552 1_555
Cl17 Tl3 3.283476 1_655
Cl18 Pb0 2.959630 1_555
Cl18 Pb1 3.039278 1_556
Cl18 Tl11 3.174738 1_555
Cl18 Tl1 3.190552 1_556
Cl18 Tl0 3.283476 1_455
Cl19 Pb2 2.959630 1_555
Cl19 Pb0 3.039278 1_555
Cl19 Tl9 3.174738 1_555
Cl19 Tl0 3.190552 1_555
Cl19 Tl2 3.283476 1_565
