# generated using pymatgen
data_Rb3VRhBr9
_symmetry_space_group_name_H-M   'P 1'
_cell_length_a   7.42832199
_cell_length_b   7.42832287
_cell_length_c   18.62336352
_cell_angle_alpha   90.00000000
_cell_angle_beta   90.00000000
_cell_angle_gamma   119.99998777
_symmetry_Int_Tables_number   1
_chemical_formula_structural   Rb3VRhBr9
_chemical_formula_sum   'Rb6 V2 Rh2 Br18'
_cell_volume   889.95961278
_cell_formula_units_Z   2
loop_
 _symmetry_equiv_pos_site_id
 _symmetry_equiv_pos_as_xyz
  1  'x, y, z'
loop_
 _atom_site_type_symbol
 _atom_site_label
 _atom_site_symmetry_multiplicity
 _atom_site_fract_x
 _atom_site_fract_y
 _atom_site_fract_z
 _atom_site_occupancy
  Rb  Rb0  1  0.66666700  0.33333300  0.56815063  1
  Rb  Rb1  1  0.33333300  0.66666700  0.06583508  1
  Rb  Rb2  1  0.33333300  0.66666700  0.43184937  1
  Rb  Rb3  1  0.66666700  0.33333300  0.93416492  1
  Rb  Rb4  1  0.00000000  0.00000000  0.25486369  1
  Rb  Rb5  1  0.00000000  0.00000000  0.74513631  1
  V  V0  1  0.33333300  0.66666700  0.83725929  1
  V  V1  1  0.66666700  0.33333300  0.16274071  1
  Rh  Rh0  1  0.33333300  0.66666700  0.66611270  1
  Rh  Rh1  1  0.66666700  0.33333300  0.33388730  1
  Br  Br0  1  0.82449686  0.64899372  0.40935953  1
  Br  Br1  1  0.17550314  0.82449686  0.59064047  1
  Br  Br2  1  0.64899372  0.82449686  0.59064047  1
  Br  Br3  1  0.82449686  0.17550314  0.40935953  1
  Br  Br4  1  0.35100628  0.17550314  0.40935953  1
  Br  Br5  1  0.17089635  0.34179270  0.90830076  1
  Br  Br6  1  0.01644002  0.50822001  0.74724339  1
  Br  Br7  1  0.65820730  0.82910365  0.90830076  1
  Br  Br8  1  0.82910365  0.65820730  0.09169924  1
  Br  Br9  1  0.17550314  0.35100628  0.59064047  1
  Br  Br10  1  0.49177999  0.98355998  0.74724339  1
  Br  Br11  1  0.50822001  0.49177999  0.25275661  1
  Br  Br12  1  0.49177999  0.50822001  0.74724339  1
  Br  Br13  1  0.17089635  0.82910365  0.90830076  1
  Br  Br14  1  0.34179270  0.17089635  0.09169924  1
  Br  Br15  1  0.98355998  0.49177999  0.25275661  1
  Br  Br16  1  0.50822001  0.01644002  0.25275661  1
  Br  Br17  1  0.82910365  0.17089635  0.09169924  1
loop_
_geom_bond_atom_site_label_1
_geom_bond_atom_site_label_2
_geom_bond_distance
_geom_bond_site_symmetry_2
Br0 Rh1 2.469662 1_555
Br0 Rb0 3.587318 1_555
Br0 Rb4 3.657502 1_665
Br0 Rb2 3.739427 1_655
Br0 Rb2 3.739434 1_555
Br1 Rh0 2.469657 1_555
Br1 Rb2 3.587314 1_555
Br1 Rb5 3.657502 1_565
Br1 Rb0 3.739431 1_455
Br1 Rb0 3.739431 1_565
Br2 Rh0 2.469662 1_555
Br2 Rb2 3.587317 1_555
Br2 Rb5 3.657502 1_665
Br2 Rb0 3.739428 1_565
Br2 Rb0 3.739435 1_555
Br3 Rh1 2.469657 1_555
Br3 Rb0 3.587314 1_555
Br3 Rb4 3.657502 1_655
Br3 Rb2 3.739431 1_655
Br3 Rb2 3.739431 1_545
Br4 Rh1 2.469662 1_555
Br4 Rb0 3.587317 1_555
Br4 Rb4 3.657502 1_555
Br4 Rb2 3.739428 1_545
Br4 Rb2 3.739435 1_555
Br5 V0 2.473524 1_555
Br5 Rb1 3.602111 1_556
Br5 Rb3 3.745656 1_455
Br5 Rb3 3.745663 1_555
Br5 Rb5 3.750761 1_555
Br6 Rh0 2.537484 1_555
Br6 V0 2.639364 1_555
Br6 Rb5 3.715874 1_565
Br6 Rb5 3.715874 1_555
Br6 Rb0 4.023354 1_455
Br7 V0 2.473524 1_555
Br7 Rb1 3.602111 1_556
Br7 Rb3 3.745657 1_565
Br7 Rb3 3.745664 1_555
Br7 Rb5 3.750761 1_665
Br8 V1 2.473524 1_555
Br8 Rb3 3.602111 1_554
Br8 Rb1 3.745656 1_655
Br8 Rb1 3.745663 1_555
Br8 Rb4 3.750761 1_665
Br9 Rh0 2.469662 1_555
Br9 Rb2 3.587318 1_555
Br9 Rb5 3.657502 1_555
Br9 Rb0 3.739427 1_455
Br9 Rb0 3.739434 1_555
Br10 Rh0 2.537484 1_555
Br10 V0 2.639364 1_555
Br10 Rb5 3.715874 1_565
Br10 Rb5 3.715874 1_665
Br10 Rb0 4.023354 1_565
Br11 Rh1 2.537489 1_555
Br11 V1 2.639369 1_555
Br11 Rb4 3.715875 1_555
Br11 Rb4 3.715875 1_665
Br11 Rb2 4.023357 1_555
Br12 Rh0 2.537489 1_555
Br12 V0 2.639369 1_555
Br12 Rb5 3.715875 1_665
Br12 Rb5 3.715875 1_555
Br12 Rb0 4.023357 1_555
Br13 V0 2.473518 1_555
Br13 Rb1 3.602107 1_556
Br13 Rb3 3.745661 1_455
Br13 Rb3 3.745661 1_565
Br13 Rb5 3.750761 1_565
Br14 V1 2.473524 1_555
Br14 Rb3 3.602111 1_554
Br14 Rb1 3.745657 1_545
Br14 Rb1 3.745664 1_555
Br14 Rb4 3.750761 1_555
Br15 Rh1 2.537484 1_555
Br15 V1 2.639364 1_555
Br15 Rb4 3.715874 1_655
Br15 Rb4 3.715874 1_665
Br15 Rb2 4.023354 1_655
Br16 Rh1 2.537484 1_555
Br16 V1 2.639364 1_555
Br16 Rb4 3.715874 1_655
Br16 Rb4 3.715874 1_555
Br16 Rb2 4.023354 1_545
Br17 V1 2.473518 1_555
Br17 Rb3 3.602107 1_554
Br17 Rb1 3.745661 1_655
Br17 Rb1 3.745661 1_545
Br17 Rb4 3.750761 1_655
