# generated using pymatgen
data_Li2Sn8RuRh
_symmetry_space_group_name_H-M   'P 1'
_cell_length_a   7.32979236
_cell_length_b   7.32979236
_cell_length_c   7.32979188
_cell_angle_alpha   125.97982604
_cell_angle_beta   125.97982209
_cell_angle_gamma   79.92129853
_symmetry_Int_Tables_number   1
_chemical_formula_structural   Li2Sn8RuRh
_chemical_formula_sum   'Li2 Sn8 Ru1 Rh1'
_cell_volume   249.01910063
_cell_formula_units_Z   1
loop_
 _symmetry_equiv_pos_site_id
 _symmetry_equiv_pos_as_xyz
  1  'x, y, z'
loop_
 _atom_site_type_symbol
 _atom_site_label
 _atom_site_symmetry_multiplicity
 _atom_site_fract_x
 _atom_site_fract_y
 _atom_site_fract_z
 _atom_site_occupancy
  Li  Li0  1  0.00089483  0.00089483  1.00000000  1
  Li  Li1  1  0.49910517  0.49910517  0.00000000  1
  Sn  Sn0  1  0.70628620  0.52428624  0.50361400  1
  Sn  Sn1  1  0.52428624  0.02067224  0.81800004  1
  Sn  Sn2  1  0.20267220  0.70628620  0.18199996  1
  Sn  Sn3  1  0.79371380  0.29732780  0.81800004  1
  Sn  Sn4  1  0.47932776  0.97571376  0.18199996  1
  Sn  Sn5  1  0.29732780  0.47932776  0.50361400  1
  Sn  Sn6  1  0.97571376  0.79371380  0.49638600  1
  Sn  Sn7  1  0.02067224  0.20267220  0.49638600  1
  Ru  Ru0  1  0.75000000  0.75000000  0.00000000  1
  Rh  Rh0  1  0.25000000  0.25000000  0.00000000  1
loop_
_geom_bond_atom_site_label_1
_geom_bond_atom_site_label_2
_geom_bond_distance
_geom_bond_site_symmetry_2
Li0 Rh0 2.799036 1_556
Li0 Ru0 2.819145 1_446
Li0 Sn7 2.928968 1_556
Li0 Sn2 2.928968 1_546
Li0 Sn1 2.928969 1_455
Li0 Sn0 2.928969 1_445
Li0 Sn6 2.945734 1_445
Li0 Sn3 2.945734 1_455
Li0 Sn4 2.945734 1_546
Li0 Sn5 2.945734 1_556
Li1 Rh0 2.799036 1_555
Li1 Ru0 2.819145 1_555
Li1 Sn3 2.928968 1_554
Li1 Sn5 2.928968 1_554
Li1 Sn4 2.928968 1_555
Li1 Sn6 2.928969 1_555
Li1 Sn2 2.945734 1_555
Li1 Sn0 2.945734 1_555
Li1 Sn1 2.945734 1_554
Li1 Sn7 2.945734 1_554
Sn0 Sn7 2.994254 1_655
Sn0 Sn6 3.068183 1_555
Sn0 Sn5 3.072428 1_555
Sn0 Sn3 3.299145 1_555
Sn0 Sn4 3.329882 1_545
Sn1 Sn2 2.994254 1_545
Sn1 Sn3 3.068183 1_555
Sn1 Sn4 3.072428 1_546
Sn1 Sn5 3.299145 1_545
Sn1 Sn6 3.329882 1_445
Sn2 Sn4 3.068183 1_555
Sn2 Sn3 3.072429 1_454
Sn2 Sn6 3.299145 1_455
Sn2 Sn5 3.329882 1_555
Sn3 Sn4 2.994254 1_545
Sn3 Sn7 3.329882 1_655
Sn4 Sn7 3.299145 1_665
Sn5 Sn6 2.994254 1_455
Sn5 Sn7 3.068183 1_555
Sn6 Sn7 3.072428 1_665
Ru0 Sn0 2.796538 1_554
Ru0 Sn4 2.796538 1_555
Ru0 Sn6 2.796538 1_555
Ru0 Sn1 2.796538 1_564
Ru0 Sn3 2.796538 1_554
Ru0 Sn2 2.796538 1_655
Ru0 Sn7 2.796538 1_665
Ru0 Sn5 2.796538 1_554
Rh0 Sn5 2.825033 1_555
Rh0 Sn1 2.825033 1_554
Rh0 Sn7 2.825033 1_554
Rh0 Sn4 2.825033 1_545
Rh0 Sn2 2.825033 1_555
Rh0 Sn3 2.825033 1_454
Rh0 Sn6 2.825033 1_444
Rh0 Sn0 2.825033 1_555
