# generated using pymatgen
data_Ca2As3IO6
_symmetry_space_group_name_H-M   'P 1'
_cell_length_a   5.34102097
_cell_length_b   8.15704187
_cell_length_c   10.51241415
_cell_angle_alpha   72.82752376
_cell_angle_beta   90.00000000
_cell_angle_gamma   90.00000000
_symmetry_Int_Tables_number   1
_chemical_formula_structural   Ca2As3IO6
_chemical_formula_sum   'Ca4 As6 I2 O12'
_cell_volume   437.57641237
_cell_formula_units_Z   2
loop_
 _symmetry_equiv_pos_site_id
 _symmetry_equiv_pos_as_xyz
  1  'x, y, z'
loop_
 _atom_site_type_symbol
 _atom_site_label
 _atom_site_symmetry_multiplicity
 _atom_site_fract_x
 _atom_site_fract_y
 _atom_site_fract_z
 _atom_site_occupancy
  Ca  Ca0  1  0.25000000  0.13351175  0.39872248  1
  Ca  Ca1  1  0.75000000  0.86648825  0.60127752  1
  Ca  Ca2  1  0.25000000  0.08594009  0.75610795  1
  Ca  Ca3  1  0.75000000  0.91405991  0.24389205  1
  As  As0  1  0.25000000  0.70958364  0.43823613  1
  As  As1  1  0.75000000  0.29041636  0.56176387  1
  As  As2  1  0.25000000  0.57104299  0.17533481  1
  As  As3  1  0.75000000  0.42895701  0.82466519  1
  As  As4  1  0.25000000  0.63278089  0.81222339  1
  As  As5  1  0.75000000  0.36721911  0.18777661  1
  I  I0  1  0.75000000  0.83045772  0.95122701  1
  I  I1  1  0.25000000  0.16954228  0.04877299  1
  O  O0  1  0.99014712  0.56327913  0.72284590  1
  O  O1  1  0.49014712  0.43672087  0.27715410  1
  O  O2  1  0.00985288  0.43672087  0.27715410  1
  O  O3  1  0.50985288  0.56327913  0.72284590  1
  O  O4  1  0.00962209  0.85976728  0.42443785  1
  O  O5  1  0.50962209  0.14023272  0.57556215  1
  O  O6  1  0.99037791  0.14023272  0.57556215  1
  O  O7  1  0.49037791  0.85976728  0.42443785  1
  O  O8  1  0.75000000  0.26197727  0.74786375  1
  O  O9  1  0.25000000  0.73802273  0.25213625  1
  O  O10  1  0.25000000  0.83784297  0.70696028  1
  O  O11  1  0.75000000  0.16215703  0.29303972  1
loop_
_geom_bond_atom_site_label_1
_geom_bond_atom_site_label_2
_geom_bond_distance
_geom_bond_site_symmetry_2
Ca0 O5 2.332789 1_555
Ca0 O6 2.332789 1_455
Ca0 O7 2.520116 1_545
Ca0 O4 2.520116 1_545
Ca0 O1 2.743916 1_555
Ca0 O2 2.743916 1_555
Ca0 O11 2.875276 1_455
Ca0 O11 2.875276 1_555
Ca0 I1 3.602998 1_555
Ca1 O4 2.332789 1_655
Ca1 O7 2.332789 1_555
Ca1 O6 2.520116 1_565
Ca1 O5 2.520116 1_565
Ca1 O3 2.743916 1_555
Ca1 O0 2.743916 1_555
Ca1 O10 2.875276 1_555
Ca1 O10 2.875276 1_655
Ca1 I0 3.602998 1_555
Ca2 O10 2.231563 1_545
Ca2 O5 2.285799 1_555
Ca2 O6 2.285799 1_455
Ca2 I1 3.342085 1_556
Ca2 I0 3.627363 1_445
Ca2 I0 3.627363 1_545
Ca3 O11 2.231563 1_565
Ca3 O4 2.285799 1_655
Ca3 O7 2.285799 1_555
Ca3 I0 3.342085 1_554
Ca3 I1 3.627363 1_665
Ca3 I1 3.627363 1_565
As0 O7 1.750764 1_555
As0 O4 1.750764 1_555
As0 O9 1.900833 1_555
As1 O6 1.750764 1_555
As1 O5 1.750764 1_555
As1 O8 1.900833 1_555
As2 O9 1.776630 1_555
As2 O1 1.816261 1_555
As2 O2 1.816261 1_555
As3 O8 1.776630 1_555
As3 O3 1.816261 1_555
As3 O0 1.816261 1_555
As4 O10 1.711559 1_555
As4 O0 1.856060 1_455
As4 O3 1.856060 1_555
As5 O11 1.711559 1_555
As5 O2 1.856060 1_655
As5 O1 1.856060 1_555
