# generated using pymatgen
data_MgAl2O4
_symmetry_space_group_name_H-M   'P 1'
_cell_length_a   19.18593380
_cell_length_b   19.18593380
_cell_length_c   19.18593414
_cell_angle_alpha   17.29148206
_cell_angle_beta   17.29148206
_cell_angle_gamma   17.29148324
_symmetry_Int_Tables_number   1
_chemical_formula_structural   MgAl2O4
_chemical_formula_sum   'Mg8 Al16 O32'
_cell_volume   544.44830114
_cell_formula_units_Z   8
loop_
 _symmetry_equiv_pos_site_id
 _symmetry_equiv_pos_as_xyz
  1  'x, y, z'
loop_
 _atom_site_type_symbol
 _atom_site_label
 _atom_site_symmetry_multiplicity
 _atom_site_fract_x
 _atom_site_fract_y
 _atom_site_fract_z
 _atom_site_occupancy
  Mg  Mg0  1  0.15522600  0.15522600  0.15522600  1
  Mg  Mg1  1  0.40521800  0.40521800  0.40521800  1
  Mg  Mg2  1  0.49954700  0.49954700  0.49954700  1
  Mg  Mg3  1  0.65592400  0.65592400  0.65592400  1
  Mg  Mg4  1  0.74931800  0.74931800  0.74931800  1
  Mg  Mg5  1  0.90639400  0.90639400  0.90639400  1
  Mg  Mg6  1  0.34474500  0.34474500  0.34474500  1
  Mg  Mg7  1  0.59351900  0.59351900  0.59351900  1
  Al  Al0  1  0.62033200  0.13488100  0.62033200  1
  Al  Al1  1  0.62033200  0.62033200  0.13488100  1
  Al  Al2  1  0.13488100  0.62033200  0.62033200  1
  Al  Al3  1  0.87206900  0.38021800  0.87206900  1
  Al  Al4  1  0.87206900  0.87206900  0.38021800  1
  Al  Al5  1  0.38021800  0.87206900  0.87206900  1
  Al  Al6  1  0.12496500  0.62582900  0.12496500  1
  Al  Al7  1  0.12496500  0.12496500  0.62582900  1
  Al  Al8  1  0.09522300  0.09522300  0.09522300  1
  Al  Al9  1  0.00017500  0.00017500  0.00017500  1
  Al  Al10  1  0.62582900  0.12496500  0.12496500  1
  Al  Al11  1  0.37260900  0.88053000  0.37260900  1
  Al  Al12  1  0.37260900  0.37260900  0.88053000  1
  Al  Al13  1  0.25055200  0.25055200  0.25055200  1
  Al  Al14  1  0.88053000  0.37260900  0.37260900  1
  Al  Al15  1  0.84416600  0.84416600  0.84416600  1
  O  O0  1  0.78246500  0.32373700  0.32373700  1
  O  O1  1  0.43999700  0.43999700  0.43999700  1
  O  O2  1  0.32373700  0.32373700  0.78246500  1
  O  O3  1  0.32373700  0.78246500  0.32373700  1
  O  O4  1  0.93265400  0.45331100  0.93265400  1
  O  O5  1  0.03349000  0.57207800  0.57207800  1
  O  O6  1  0.93265400  0.93265400  0.45331100  1
  O  O7  1  0.68993400  0.68993400  0.68993400  1
  O  O8  1  0.57207800  0.57207800  0.03349000  1
  O  O9  1  0.81135800  0.81135800  0.81135800  1
  O  O10  1  0.45331100  0.93265400  0.93265400  1
  O  O11  1  0.57207800  0.03349000  0.57207800  1
  O  O12  1  0.16786000  0.73060000  0.16786000  1
  O  O13  1  0.27462600  0.82953900  0.82953900  1
  O  O14  1  0.94084600  0.94084600  0.94084600  1
  O  O15  1  0.16786000  0.16786000  0.73060000  1
  O  O16  1  0.82953900  0.82953900  0.27462600  1
  O  O17  1  0.06249800  0.06249800  0.06249800  1
  O  O18  1  0.73060000  0.16786000  0.16786000  1
  O  O19  1  0.82953900  0.27462600  0.82953900  1
  O  O20  1  0.42082100  0.97432000  0.42082100  1
  O  O21  1  0.52355800  0.08079400  0.08079400  1
  O  O22  1  0.19072900  0.19072900  0.19072900  1
  O  O23  1  0.42082100  0.42082100  0.97432000  1
  O  O24  1  0.30938500  0.30938500  0.30938500  1
  O  O25  1  0.08079400  0.08079400  0.52355800  1
  O  O26  1  0.97432000  0.42082100  0.42082100  1
  O  O27  1  0.08079400  0.52355800  0.08079400  1
  O  O28  1  0.68657800  0.19535100  0.68657800  1
  O  O29  1  0.68657800  0.68657800  0.19535100  1
  O  O30  1  0.55799800  0.55799800  0.55799800  1
  O  O31  1  0.19535100  0.68657800  0.68657800  1
loop_
_geom_bond_atom_site_label_1
_geom_bond_atom_site_label_2
_geom_bond_distance
_geom_bond_site_symmetry_2
Mg0 O2 1.924928 1_554
Mg0 O0 1.924928 1_455
Mg0 O3 1.924928 1_545
Mg0 O22 2.012454 1_555
Mg1 O8 1.932082 1_555
Mg1 O11 1.932082 1_555
Mg1 O5 1.932082 1_555
Mg1 O1 1.971415 1_555
Mg2 O2 2.004728 1_555
Mg2 O3 2.004728 1_555
Mg2 O0 2.004728 1_555
Mg2 O29 2.102123 1_555
Mg2 O28 2.102123 1_555
Mg2 O31 2.102123 1_555
Mg3 O7 1.927825 1_555
Mg3 O16 1.956922 1_555
Mg3 O19 1.956922 1_555
Mg3 O13 1.956922 1_555
Mg4 O8 2.031263 1_556
Mg4 O11 2.031263 1_565
Mg4 O5 2.031263 1_655
Mg4 O6 2.081125 1_555
Mg4 O4 2.081126 1_555
Mg4 O10 2.081126 1_555
Mg5 O14 1.952879 1_555
Mg5 O25 1.964032 1_665
Mg5 O21 1.964032 1_566
Mg5 O27 1.964032 1_656
Mg6 O15 1.969704 1_555
Mg6 O18 1.969704 1_555
Mg6 O12 1.969704 1_555
Mg6 O24 2.004348 1_555
Mg7 O23 1.960950 1_555
Mg7 O20 1.960950 1_555
Mg7 O26 1.960950 1_555
Mg7 O30 2.013475 1_555
Al0 O0 1.879901 1_555
Al0 O2 1.879901 1_555
Al0 O1 1.927568 1_555
Al0 O10 1.976403 1_545
Al0 O6 1.976403 1_545
Al0 O9 2.039463 1_545
Al1 O3 1.879901 1_555
Al1 O0 1.879901 1_555
Al1 O1 1.927568 1_555
Al1 O4 1.976403 1_554
Al1 O10 1.976403 1_554
Al1 O9 2.039463 1_554
Al2 O3 1.879901 1_555
Al2 O2 1.879901 1_555
Al2 O1 1.927568 1_555
Al2 O4 1.976403 1_455
Al2 O6 1.976403 1_455
Al2 O9 2.039463 1_455
Al3 O5 1.881793 1_655
Al3 O8 1.881793 1_556
Al3 O18 1.929383 1_556
Al3 O15 1.929383 1_655
Al3 O7 1.935350 1_555
Al3 O17 2.070511 1_656
Al4 O11 1.881793 1_565
Al4 O5 1.881793 1_655
Al4 O18 1.929383 1_565
Al4 O12 1.929383 1_655
Al4 O7 1.935350 1_555
Al4 O17 2.070510 1_665
Al5 O11 1.881793 1_565
Al5 O8 1.881793 1_556
Al5 O12 1.929383 1_556
Al5 O15 1.929383 1_565
Al5 O7 1.935350 1_555
Al5 O17 2.070511 1_566
Al6 O13 1.922247 1_554
Al6 O16 1.922247 1_455
Al6 O24 1.939695 1_555
Al6 O14 1.942771 1_454
Al6 O26 1.946701 1_455
Al6 O23 1.946701 1_554
Al7 O13 1.922247 1_545
Al7 O19 1.922247 1_455
Al7 O24 1.939695 1_555
Al7 O14 1.942771 1_445
Al7 O26 1.946701 1_455
Al7 O20 1.946701 1_545
Al8 O6 1.842324 1_445
Al8 O10 1.842324 1_544
Al8 O4 1.842324 1_454
Al8 O17 1.854986 1_555
Al9 O15 1.914684 1_554
Al9 O12 1.914685 1_545
Al9 O18 1.914685 1_455
Al9 O16 1.947097 1_445
Al9 O19 1.947097 1_454
Al9 O13 1.947097 1_544
Al10 O19 1.922247 1_554
Al10 O16 1.922247 1_545
Al10 O24 1.939695 1_555
Al10 O14 1.942771 1_544
Al10 O20 1.946701 1_545
Al10 O23 1.946701 1_554
Al11 O30 1.921526 1_555
Al11 O21 1.924308 1_565
Al11 O25 1.924309 1_565
Al11 O22 1.926069 1_565
Al11 O31 1.984959 1_555
Al11 O29 1.984959 1_555
Al12 O30 1.921526 1_555
Al12 O27 1.924309 1_556
Al12 O21 1.924309 1_556
Al12 O22 1.926068 1_556
Al12 O28 1.984959 1_555
Al12 O31 1.984959 1_555
Al13 O23 1.920269 1_554
Al13 O20 1.920269 1_545
Al13 O26 1.920269 1_455
Al13 O25 1.937398 1_555
Al13 O21 1.937398 1_555
Al13 O27 1.937398 1_555
Al14 O30 1.921526 1_555
Al14 O27 1.924308 1_655
Al14 O25 1.924309 1_655
Al14 O22 1.926069 1_655
Al14 O28 1.984959 1_555
Al14 O29 1.984959 1_555
Al15 O29 1.825865 1_556
Al15 O28 1.825865 1_565
Al15 O31 1.825865 1_655
Al15 O9 1.859691 1_555
