# generated using pymatgen
data_NaTi2BiO6
_symmetry_space_group_name_H-M   'P 1'
_cell_length_a   5.60510025
_cell_length_b   5.60510025
_cell_length_c   5.60510016
_cell_angle_alpha   58.92548684
_cell_angle_beta   58.92548684
_cell_angle_gamma   58.92547190
_symmetry_Int_Tables_number   1
_chemical_formula_structural   NaTi2BiO6
_chemical_formula_sum   'Na1 Ti2 Bi1 O6'
_cell_volume   121.46554932
_cell_formula_units_Z   1
loop_
 _symmetry_equiv_pos_site_id
 _symmetry_equiv_pos_as_xyz
  1  'x, y, z'
loop_
 _atom_site_type_symbol
 _atom_site_label
 _atom_site_symmetry_multiplicity
 _atom_site_fract_x
 _atom_site_fract_y
 _atom_site_fract_z
 _atom_site_occupancy
  Na  Na0  1  0.72774500  0.72774500  0.72774500  1
  Ti  Ti0  1  0.98240000  0.98240000  0.98240000  1
  Ti  Ti1  1  0.48726300  0.48726300  0.48726300  1
  Bi  Bi0  1  0.21297800  0.21297800  0.21297800  1
  O  O0  1  0.25160600  0.81476400  0.68729100  1
  O  O1  1  0.81476400  0.68729100  0.25160600  1
  O  O2  1  0.68729100  0.25160600  0.81476400  1
  O  O3  1  0.31067400  0.76637400  0.19310400  1
  O  O4  1  0.19310400  0.31067400  0.76637400  1
  O  O5  1  0.76637400  0.19310400  0.31067400  1
loop_
_geom_bond_atom_site_label_1
_geom_bond_atom_site_label_2
_geom_bond_distance
_geom_bond_site_symmetry_2
Na0 O4 2.466035 1_655
Na0 O3 2.466036 1_556
Na0 O5 2.466036 1_565
Na0 O0 2.564880 1_555
Na0 O1 2.564880 1_555
Na0 O2 2.564880 1_555
Bi0 O3 2.321296 1_545
Bi0 O4 2.321296 1_554
Bi0 O5 2.321296 1_455
Bi0 O1 2.463019 1_455
Bi0 O0 2.463020 1_545
Bi0 O2 2.463020 1_554
O0 Ti0 1.860133 1_455
O0 Ti1 2.112878 1_555
O1 Ti0 1.860134 1_554
O1 Ti1 2.112878 1_555
O2 Ti0 1.860133 1_545
O2 Ti1 2.112878 1_555
O3 Ti1 1.889209 1_555
O3 Ti0 2.171104 1_454
O4 Ti1 1.889210 1_555
O4 Ti0 2.171105 1_445
O5 Ti1 1.889209 1_555
O5 Ti0 2.171104 1_544
