# generated using pymatgen
data_Ca6MnCrN6
_symmetry_space_group_name_H-M   'P 1'
_cell_length_a   6.62233029
_cell_length_b   6.62233055
_cell_length_c   5.02362708
_cell_angle_alpha   90.00000000
_cell_angle_beta   90.00000000
_cell_angle_gamma   101.17071386
_symmetry_Int_Tables_number   1
_chemical_formula_structural   Ca6MnCrN6
_chemical_formula_sum   'Ca6 Mn1 Cr1 N6'
_cell_volume   216.13850035
_cell_formula_units_Z   1
loop_
 _symmetry_equiv_pos_site_id
 _symmetry_equiv_pos_as_xyz
  1  'x, y, z'
loop_
 _atom_site_type_symbol
 _atom_site_label
 _atom_site_symmetry_multiplicity
 _atom_site_fract_x
 _atom_site_fract_y
 _atom_site_fract_z
 _atom_site_occupancy
  Ca  Ca0  1  0.59558151  0.83239283  0.25000000  1
  Ca  Ca1  1  0.89191930  0.10808070  0.75000000  1
  Ca  Ca2  1  0.82912319  0.59788911  0.75000000  1
  Ca  Ca3  1  0.10609088  0.89390912  0.25000000  1
  Ca  Ca4  1  0.40211089  0.17087681  0.75000000  1
  Ca  Ca5  1  0.16760717  0.40441849  0.25000000  1
  Mn  Mn0  1  0.30218291  0.69781709  0.75000000  1
  Cr  Cr0  1  0.69522873  0.30477127  0.25000000  1
  N  N0  1  0.56717358  0.81615132  0.75000000  1
  N  N1  1  0.87536825  0.12463175  0.25000000  1
  N  N2  1  0.12725552  0.87274448  0.75000000  1
  N  N3  1  0.82080267  0.56429228  0.25000000  1
  N  N4  1  0.43570772  0.17919733  0.25000000  1
  N  N5  1  0.18384868  0.43282642  0.75000000  1
loop_
_geom_bond_atom_site_label_1
_geom_bond_atom_site_label_2
_geom_bond_distance
_geom_bond_site_symmetry_2
Ca0 N1 2.406042 1_565
Ca0 N0 2.519589 1_555
Ca0 N0 2.519589 1_554
Ca0 N3 2.530375 1_555
Ca0 N4 2.708817 1_565
Ca1 N2 2.408065 1_645
Ca1 N1 2.517516 1_555
Ca1 N1 2.517516 1_556
Ca1 N0 2.598366 1_545
Ca1 N5 2.598366 1_655
Ca2 N2 2.412185 1_655
Ca2 N0 2.463728 1_555
Ca2 N3 2.521308 1_556
Ca2 N3 2.521308 1_555
Ca2 N5 2.776350 1_655
Ca3 N1 2.360857 1_465
Ca3 N2 2.521132 1_555
Ca3 N2 2.521132 1_554
Ca3 N4 2.595421 1_565
Ca3 N3 2.595421 1_455
Ca4 N2 2.412185 1_545
Ca4 N5 2.463728 1_555
Ca4 N4 2.521308 1_555
Ca4 N4 2.521308 1_556
Ca4 N0 2.776350 1_545
Ca5 N1 2.406042 1_455
Ca5 N5 2.519589 1_555
Ca5 N5 2.519589 1_554
Ca5 N4 2.530375 1_555
Ca5 N3 2.708817 1_455
Mn0 N0 1.777859 1_555
Mn0 N5 1.777860 1_555
Mn0 N2 1.789935 1_555
Cr0 N4 1.758261 1_555
Cr0 N3 1.758261 1_555
Cr0 N1 1.843268 1_555
