# generated using pymatgen
data_ZrHg3(TeBr3)2
_symmetry_space_group_name_H-M   'P 1'
_cell_length_a   8.13515734
_cell_length_b   7.14589505
_cell_length_c   13.99978340
_cell_angle_alpha   89.09698403
_cell_angle_beta   90.00000000
_cell_angle_gamma   90.00000000
_symmetry_Int_Tables_number   1
_chemical_formula_structural   ZrHg3(TeBr3)2
_chemical_formula_sum   'Zr2 Hg6 Te4 Br12'
_cell_volume   813.74805994
_cell_formula_units_Z   2
loop_
 _symmetry_equiv_pos_site_id
 _symmetry_equiv_pos_as_xyz
  1  'x, y, z'
loop_
 _atom_site_type_symbol
 _atom_site_label
 _atom_site_symmetry_multiplicity
 _atom_site_fract_x
 _atom_site_fract_y
 _atom_site_fract_z
 _atom_site_occupancy
  Zr  Zr0  1  0.50000000  0.50000000  0.50000000  1
  Zr  Zr1  1  0.00000000  0.50000000  0.00000000  1
  Hg  Hg0  1  0.28918416  0.00346672  0.73767919  1
  Hg  Hg1  1  0.78918416  0.99653328  0.76232081  1
  Hg  Hg2  1  0.21081584  0.00346672  0.23767919  1
  Hg  Hg3  1  0.50000000  0.00000000  0.00000000  1
  Hg  Hg4  1  0.71081584  0.99653328  0.26232081  1
  Hg  Hg5  1  0.00000000  0.00000000  0.50000000  1
  Te  Te0  1  0.47096745  0.81078320  0.16878588  1
  Te  Te1  1  0.97096745  0.18921680  0.33121412  1
  Te  Te2  1  0.02903255  0.81078320  0.66878588  1
  Te  Te3  1  0.52903255  0.18921680  0.83121412  1
  Br  Br0  1  0.32662081  0.78694401  0.43659834  1
  Br  Br1  1  0.23295059  0.34184204  0.57131656  1
  Br  Br2  1  0.04202548  0.33092585  0.83557656  1
  Br  Br3  1  0.26704941  0.34184204  0.07131656  1
  Br  Br4  1  0.76704941  0.65815796  0.42868344  1
  Br  Br5  1  0.17337919  0.78694401  0.93659834  1
  Br  Br6  1  0.45797452  0.33092585  0.33557656  1
  Br  Br7  1  0.82662081  0.21305599  0.06340166  1
  Br  Br8  1  0.95797452  0.66907415  0.16442344  1
  Br  Br9  1  0.54202548  0.66907415  0.66442344  1
  Br  Br10  1  0.67337919  0.21305599  0.56340166  1
  Br  Br11  1  0.73295059  0.65815796  0.92868344  1
loop_
_geom_bond_atom_site_label_1
_geom_bond_atom_site_label_2
_geom_bond_distance
_geom_bond_site_symmetry_2
Hg0 Te3 2.708976 1_555
Hg0 Te2 2.710532 1_545
Hg1 Te2 2.708976 1_655
Hg1 Te3 2.710532 1_565
Hg2 Te1 2.708976 1_455
Hg2 Te0 2.710532 1_545
Hg3 Te0 2.714207 1_545
Hg3 Te3 2.714207 1_554
Hg4 Te0 2.708976 1_555
Hg4 Te1 2.710532 1_565
Hg5 Te2 2.714207 1_545
Hg5 Te1 2.714207 1_455
Br0 Zr0 2.631413 1_555
Br0 Hg5 3.195093 1_565
Br1 Zr0 2.637856 1_555
Br1 Hg5 3.260703 1_555
Br2 Zr1 2.638744 1_556
Br3 Zr1 2.637856 1_555
Br3 Hg3 3.260703 1_555
Br4 Zr0 2.637856 1_555
Br4 Hg5 3.260703 1_665
Br5 Zr1 2.631413 1_556
Br5 Hg3 3.195093 1_566
Br6 Zr0 2.638744 1_555
Br7 Zr1 2.631413 1_655
Br7 Hg3 3.195093 1_555
Br8 Zr1 2.638744 1_655
Br9 Zr0 2.638744 1_555
Br10 Zr0 2.631413 1_555
Br10 Hg5 3.195093 1_655
Br11 Zr1 2.637856 1_656
Br11 Hg3 3.260703 1_566
