# generated using pymatgen
data_CsBaVSe4
_symmetry_space_group_name_H-M   'P 1'
_cell_length_a   7.19168482
_cell_length_b   10.39005884
_cell_length_c   12.55909798
_cell_angle_alpha   90.00000000
_cell_angle_beta   90.00000000
_cell_angle_gamma   90.00000000
_symmetry_Int_Tables_number   1
_chemical_formula_structural   CsBaVSe4
_chemical_formula_sum   'Cs4 Ba4 V4 Se16'
_cell_volume   938.44127666
_cell_formula_units_Z   4
loop_
 _symmetry_equiv_pos_site_id
 _symmetry_equiv_pos_as_xyz
  1  'x, y, z'
loop_
 _atom_site_type_symbol
 _atom_site_label
 _atom_site_symmetry_multiplicity
 _atom_site_fract_x
 _atom_site_fract_y
 _atom_site_fract_z
 _atom_site_occupancy
  Cs  Cs0  1  0.25000000  0.86744753  0.92490669  1
  Cs  Cs1  1  0.25000000  0.63255247  0.42490669  1
  Cs  Cs2  1  0.75000000  0.13255247  0.07509331  1
  Cs  Cs3  1  0.75000000  0.36744753  0.57509331  1
  Ba  Ba0  1  0.25000000  0.40280735  0.84918487  1
  Ba  Ba1  1  0.25000000  0.09719265  0.34918487  1
  Ba  Ba2  1  0.75000000  0.59719265  0.15081513  1
  Ba  Ba3  1  0.75000000  0.90280735  0.65081513  1
  V  V0  1  0.25000000  0.12052850  0.66767188  1
  V  V1  1  0.25000000  0.37947150  0.16767188  1
  V  V2  1  0.75000000  0.87947150  0.33232812  1
  V  V3  1  0.75000000  0.62052850  0.83232812  1
  Se  Se0  1  0.50365618  0.13374806  0.77487433  1
  Se  Se1  1  0.99634382  0.36625194  0.27487433  1
  Se  Se2  1  0.00365618  0.86625194  0.22512567  1
  Se  Se3  1  0.49634382  0.63374806  0.72512567  1
  Se  Se4  1  0.49634382  0.86625194  0.22512567  1
  Se  Se5  1  0.00365618  0.63374806  0.72512567  1
  Se  Se6  1  0.99634382  0.13374806  0.77487433  1
  Se  Se7  1  0.50365618  0.36625194  0.27487433  1
  Se  Se8  1  0.25000000  0.29565407  0.55832558  1
  Se  Se9  1  0.25000000  0.20434593  0.05832558  1
  Se  Se10  1  0.75000000  0.70434593  0.44167442  1
  Se  Se11  1  0.75000000  0.79565407  0.94167442  1
  Se  Se12  1  0.25000000  0.93216958  0.57613037  1
  Se  Se13  1  0.25000000  0.56783042  0.07613037  1
  Se  Se14  1  0.75000000  0.06783042  0.42386963  1
  Se  Se15  1  0.75000000  0.43216958  0.92386963  1
loop_
_geom_bond_atom_site_label_1
_geom_bond_atom_site_label_2
_geom_bond_distance
_geom_bond_site_symmetry_2
Cs0 Se13 3.646656 1_556
Cs0 Se11 3.678431 1_555
Cs0 Se11 3.678431 1_455
Cs0 Se0 3.812329 1_565
Cs0 Se6 3.812329 1_465
Cs0 Se9 3.880781 1_566
Cs0 Se3 3.915356 1_555
Cs0 Se5 3.915356 1_555
Cs0 Se4 4.165973 1_556
Cs0 Se2 4.165973 1_556
Cs1 Se12 3.646656 1_555
Cs1 Se10 3.678431 1_455
Cs1 Se10 3.678431 1_555
Cs1 Se7 3.812329 1_555
Cs1 Se1 3.812329 1_455
Cs1 Se8 3.880781 1_555
Cs1 Se4 3.915356 1_555
Cs1 Se2 3.915356 1_555
Cs1 Se3 4.165973 1_555
Cs1 Se5 4.165973 1_555
Cs2 Se15 3.646656 1_554
Cs2 Se9 3.678431 1_555
Cs2 Se9 3.678431 1_655
Cs2 Se2 3.812329 1_645
Cs2 Se4 3.812329 1_545
Cs2 Se11 3.880781 1_544
Cs2 Se1 3.915356 1_555
Cs2 Se7 3.915356 1_555
Cs2 Se6 4.165973 1_554
Cs2 Se0 4.165973 1_554
Cs3 Se14 3.646656 1_555
Cs3 Se8 3.678431 1_655
Cs3 Se8 3.678431 1_555
Cs3 Se5 3.812329 1_655
Cs3 Se3 3.812329 1_555
Cs3 Se10 3.880781 1_555
Cs3 Se6 3.915356 1_555
Cs3 Se0 3.915356 1_555
Cs3 Se1 4.165973 1_555
Cs3 Se7 4.165973 1_555
Ba0 Se13 3.326209 1_556
Ba0 Se9 3.339323 1_556
Ba0 Se3 3.365084 1_555
Ba0 Se5 3.365084 1_555
Ba0 Se0 3.466095 1_555
Ba0 Se6 3.466095 1_455
Ba0 Se15 3.728666 1_455
Ba0 Se15 3.728666 1_555
Ba0 Se8 3.818822 1_555
Ba1 Se12 3.326209 1_545
Ba1 Se8 3.339323 1_555
Ba1 Se4 3.365084 1_545
Ba1 Se2 3.365084 1_545
Ba1 Se7 3.466095 1_555
Ba1 Se1 3.466095 1_455
Ba1 Se14 3.728666 1_555
Ba1 Se14 3.728666 1_455
Ba1 Se9 3.818822 1_555
Ba2 Se15 3.326209 1_554
Ba2 Se11 3.339323 1_554
Ba2 Se1 3.365084 1_555
Ba2 Se7 3.365084 1_555
Ba2 Se2 3.466095 1_655
Ba2 Se4 3.466095 1_555
Ba2 Se13 3.728666 1_655
Ba2 Se13 3.728666 1_555
Ba2 Se10 3.818822 1_555
Ba3 Se14 3.326209 1_565
Ba3 Se10 3.339323 1_555
Ba3 Se6 3.365084 1_565
Ba3 Se0 3.365084 1_565
Ba3 Se5 3.466095 1_655
Ba3 Se3 3.466095 1_555
Ba3 Se12 3.728666 1_655
Ba3 Se12 3.728666 1_555
Ba3 Se11 3.818822 1_555
Se0 V0 2.271416 1_555
Se1 V1 2.271416 1_655
Se2 V2 2.271416 1_455
Se3 V3 2.271416 1_555
Se4 V2 2.271416 1_555
Se5 V3 2.271416 1_455
Se6 V0 2.271416 1_655
Se7 V1 2.271416 1_555
Se8 V0 2.279637 1_555
Se9 V1 2.279637 1_555
Se10 V2 2.279637 1_555
Se11 V3 2.279637 1_555
Se12 V0 2.269768 1_565
Se13 V1 2.269768 1_555
Se14 V2 2.269768 1_545
Se15 V3 2.269768 1_555
