# generated using pymatgen
data_Zr6ZnSN2
_symmetry_space_group_name_H-M   'P 1'
_cell_length_a   5.94126528
_cell_length_b   5.94126539
_cell_length_c   8.56144722
_cell_angle_alpha   90.00000000
_cell_angle_beta   90.00000000
_cell_angle_gamma   146.94351859
_symmetry_Int_Tables_number   1
_chemical_formula_structural   Zr6ZnSN2
_chemical_formula_sum   'Zr6 Zn1 S1 N2'
_cell_volume   164.84371123
_cell_formula_units_Z   1
loop_
 _symmetry_equiv_pos_site_id
 _symmetry_equiv_pos_as_xyz
  1  'x, y, z'
loop_
 _atom_site_type_symbol
 _atom_site_label
 _atom_site_symmetry_multiplicity
 _atom_site_fract_x
 _atom_site_fract_y
 _atom_site_fract_z
 _atom_site_occupancy
  Zr  Zr0  1  0.63112275  0.36887725  0.93588846  1
  Zr  Zr1  1  0.37370702  0.62629298  0.45048202  1
  Zr  Zr2  1  0.37370702  0.62629298  0.04951798  1
  Zr  Zr3  1  0.63112275  0.36887725  0.56411154  1
  Zr  Zr4  1  0.93218767  0.06781233  0.75000000  1
  Zr  Zr5  1  0.05413092  0.94586908  0.25000000  1
  Zn  Zn0  1  0.74555273  0.25444727  0.25000000  1
  S  S0  1  0.25591035  0.74408965  0.75000000  1
  N  N0  1  0.00127890  0.99872110  0.99568411  1
  N  N1  1  0.00127890  0.99872110  0.50431589  1
loop_
_geom_bond_atom_site_label_1
_geom_bond_atom_site_label_2
_geom_bond_distance
_geom_bond_site_symmetry_2
Zn0 Zr5 2.758950 1_545
Zn0 Zr5 2.758950 1_655
Zn0 Zr1 2.816763 1_655
Zn0 Zr2 2.816763 1_655
Zn0 Zr1 2.816763 1_545
Zn0 Zr2 2.816763 1_545
Zn0 Zr3 2.988522 1_555
Zn0 Zr0 2.988522 1_554
S0 Zr4 2.624725 1_565
S0 Zr4 2.624725 1_455
S0 Zr0 2.722197 1_455
S0 Zr3 2.722197 1_455
S0 Zr0 2.722197 1_565
S0 Zr3 2.722197 1_565
S0 Zr2 2.894189 1_556
S0 Zr1 2.894189 1_555
N0 Zr4 2.245840 1_465
N0 Zr5 2.259020 1_556
N0 Zr2 2.276218 1_456
N0 Zr2 2.276218 1_566
N0 Zr0 2.303631 1_565
N0 Zr0 2.303631 1_455
N1 Zr4 2.245840 1_465
N1 Zr5 2.259020 1_555
N1 Zr1 2.276218 1_455
N1 Zr1 2.276218 1_565
N1 Zr3 2.303631 1_565
N1 Zr3 2.303631 1_455
