# generated using pymatgen
data_Ta3Cu(PO4)6
_symmetry_space_group_name_H-M   'P 1'
_cell_length_a   8.53682809
_cell_length_b   8.53682791
_cell_length_c   8.88101949
_cell_angle_alpha   61.27395273
_cell_angle_beta   61.27395264
_cell_angle_gamma   59.99999035
_symmetry_Int_Tables_number   1
_chemical_formula_structural   Ta3Cu(PO4)6
_chemical_formula_sum   'Ta3 Cu1 P6 O24'
_cell_volume   466.27323981
_cell_formula_units_Z   1
loop_
 _symmetry_equiv_pos_site_id
 _symmetry_equiv_pos_as_xyz
  1  'x, y, z'
loop_
 _atom_site_type_symbol
 _atom_site_label
 _atom_site_symmetry_multiplicity
 _atom_site_fract_x
 _atom_site_fract_y
 _atom_site_fract_z
 _atom_site_occupancy
  Ta  Ta0  1  0.14306918  0.14306918  0.57079247  1
  Ta  Ta1  1  0.35748369  0.35748369  0.92754893  1
  Ta  Ta2  1  0.63908804  0.63908804  0.08273588  1
  Cu  Cu0  1  0.85417219  0.85417219  0.43748244  1
  P  P0  1  0.74646438  0.03087864  0.74271970  1
  P  P1  1  0.03087864  0.47993728  0.74271970  1
  P  P2  1  0.47993728  0.74646438  0.74271970  1
  P  P3  1  0.54223520  0.23648246  0.25500849  1
  P  P4  1  0.96627385  0.54223520  0.25500849  1
  P  P5  1  0.23648246  0.96627385  0.25500849  1
  O  O0  1  0.29233949  0.12608666  0.08279358  1
  O  O1  1  0.49878027  0.29233949  0.08279358  1
  O  O2  1  0.93649483  0.03960487  0.71125566  1
  O  O3  1  0.12608666  0.49878027  0.08279358  1
  O  O4  1  0.59110126  0.21771944  0.77680500  1
  O  O5  1  0.73497599  0.01888379  0.58566896  1
  O  O6  1  0.03960487  0.31264464  0.71125566  1
  O  O7  1  0.21771944  0.41437430  0.77680500  1
  O  O8  1  0.41437430  0.59110126  0.77680500  1
  O  O9  1  0.35427505  0.24238244  0.41300666  1
  O  O10  1  0.69844863  0.04746266  0.27762851  1
  O  O11  1  0.99033585  0.35427505  0.41300666  1
  O  O12  1  0.01888379  0.66047125  0.58566896  1
  O  O13  1  0.31264464  0.93649483  0.71125566  1
  O  O14  1  0.66047125  0.73497599  0.58566896  1
  O  O15  1  0.59031048  0.40123117  0.22977190  1
  O  O16  1  0.77868645  0.59031048  0.22977190  1
  O  O17  1  0.97646020  0.69844863  0.27762851  1
  O  O18  1  0.24238244  0.99033585  0.41300666  1
  O  O19  1  0.40123117  0.77868645  0.22977190  1
  O  O20  1  0.86827099  0.50139480  0.91915565  1
  O  O21  1  0.04746266  0.97646020  0.27762851  1
  O  O22  1  0.50139480  0.71117856  0.91915565  1
  O  O23  1  0.71117856  0.86827099  0.91915565  1
loop_
_geom_bond_atom_site_label_1
_geom_bond_atom_site_label_2
_geom_bond_distance
_geom_bond_site_symmetry_2
Cu0 O14 1.950711 1_555
Cu0 O12 1.950717 1_655
Cu0 O5 1.950718 1_565
Cu0 O17 1.968312 1_555
Cu0 O10 1.968313 1_565
Cu0 O21 1.968319 1_655
O0 P5 1.540015 1_545
O0 Ta1 1.963648 1_554
O1 P3 1.540015 1_555
O1 Ta1 1.963648 1_554
O2 P0 1.542870 1_555
O2 Ta0 1.957054 1_655
O3 P4 1.540015 1_455
O3 Ta1 1.963648 1_554
O4 P0 1.535427 1_555
O4 Ta1 1.944918 1_555
O5 P0 1.498102 1_555
O6 P1 1.542870 1_555
O6 Ta0 1.957054 1_555
O7 P1 1.535427 1_555
O7 Ta1 1.944918 1_555
O8 P2 1.535427 1_555
O8 Ta1 1.944918 1_555
O9 P3 1.539156 1_555
O9 Ta0 1.972644 1_555
O10 P3 1.488823 1_555
O11 P4 1.539156 1_555
O11 Ta0 1.972644 1_655
O12 P1 1.498101 1_555
O13 P2 1.542869 1_555
O13 Ta0 1.957054 1_565
O14 P2 1.498101 1_555
O15 P3 1.543539 1_555
O15 Ta2 1.943131 1_555
O16 P4 1.543539 1_555
O16 Ta2 1.943131 1_555
O17 P4 1.488823 1_555
O18 P5 1.539156 1_555
O18 Ta0 1.972644 1_565
O19 P5 1.543538 1_555
O19 Ta2 1.943131 1_555
O20 P1 1.531855 1_655
O20 Ta2 1.982330 1_556
O21 P5 1.488823 1_555
O22 P2 1.531855 1_555
O22 Ta2 1.982330 1_556
O23 P0 1.531855 1_565
O23 Ta2 1.982330 1_556
