# generated using pymatgen
data_LiHf2(PO4)3
_symmetry_space_group_name_H-M   'P 1'
_cell_length_a   8.80533892
_cell_length_b   8.80533853
_cell_length_c   8.91565127
_cell_angle_alpha   60.16757695
_cell_angle_beta   60.16757652
_cell_angle_gamma   60.79162826
_symmetry_Int_Tables_number   1
_chemical_formula_structural   LiHf2(PO4)3
_chemical_formula_sum   'Li2 Hf4 P6 O24'
_cell_volume   492.91264915
_cell_formula_units_Z   2
loop_
 _symmetry_equiv_pos_site_id
 _symmetry_equiv_pos_as_xyz
  1  'x, y, z'
loop_
 _atom_site_type_symbol
 _atom_site_label
 _atom_site_symmetry_multiplicity
 _atom_site_fract_x
 _atom_site_fract_y
 _atom_site_fract_z
 _atom_site_occupancy
  Li  Li0  1  0.66127805  0.84411465  0.20147184  1
  Li  Li1  1  0.15588535  0.33872195  0.79852816  1
  Hf  Hf0  1  0.85550777  0.36523304  0.17437976  1
  Hf  Hf1  1  0.63476696  0.14449223  0.82562024  1
  Hf  Hf2  1  0.35873334  0.86487933  0.66861541  1
  Hf  Hf3  1  0.13512067  0.64126666  0.33138459  1
  P  P0  1  0.53829859  0.74694780  0.99944795  1
  P  P1  1  0.74705206  0.54845067  0.48687078  1
  P  P2  1  0.03072731  0.96927269  0.50000000  1
  P  P3  1  0.96218105  0.03781895  0.00000000  1
  P  P4  1  0.25305220  0.46170141  0.00055205  1
  P  P5  1  0.45154933  0.25294794  0.51312922  1
  O  O0  1  0.86182708  0.00164793  0.66830087  1
  O  O1  1  0.45551686  0.20359538  0.70365049  1
  O  O2  1  0.71192107  0.57938439  0.00780411  1
  O  O3  1  0.37326395  0.70207906  0.16781733  1
  O  O4  1  0.05561571  0.79493145  0.48198853  1
  O  O5  1  0.69240135  0.38158897  0.64050035  1
  O  O6  1  0.79640462  0.54448314  0.29634951  1
  O  O7  1  0.56869138  0.90191205  0.00719559  1
  O  O8  1  0.58638475  0.73086668  0.49025338  1
  O  O9  1  0.90790128  0.55632910  0.49977197  1
  O  O10  1  0.99835207  0.13817292  0.33169913  1
  O  O11  1  0.20506855  0.94438429  0.51801147  1
  O  O12  1  0.78208997  0.05603327  0.99399130  1
  O  O13  1  0.99045223  0.87463370  0.17141723  1
  O  O14  1  0.09808795  0.43130862  0.99280441  1
  O  O15  1  0.42061561  0.28807893  0.99219589  1
  O  O16  1  0.44367090  0.09209872  0.50022803  1
  O  O17  1  0.29792094  0.62673605  0.83218267  1
  O  O18  1  0.19309716  0.49701449  0.17495799  1
  O  O19  1  0.94396673  0.21791003  0.00600870  1
  O  O20  1  0.61841103  0.30759865  0.35949965  1
  O  O21  1  0.26913332  0.41361525  0.50974662  1
  O  O22  1  0.50298551  0.80690284  0.82504201  1
  O  O23  1  0.12536630  0.00954777  0.82858277  1
loop_
_geom_bond_atom_site_label_1
_geom_bond_atom_site_label_2
_geom_bond_distance
_geom_bond_site_symmetry_2
Li0 O7 2.011663 1_555
Li0 O8 2.111001 1_555
Li0 O12 2.140262 1_564
Li0 O6 2.193012 1_555
Li1 O14 2.011663 1_555
Li1 O21 2.111001 1_555
Li1 O19 2.140262 1_456
Li1 O1 2.193012 1_555
Hf0 O10 2.014334 1_555
Hf0 O20 2.027955 1_555
Hf0 O2 2.028541 1_555
Hf0 O6 2.070630 1_555
Hf0 O19 2.081079 1_555
Hf0 O14 2.087382 1_654
Hf1 O0 2.014334 1_555
Hf1 O5 2.027955 1_555
Hf1 O15 2.028541 1_555
Hf1 O1 2.070630 1_555
Hf1 O12 2.081079 1_555
Hf1 O7 2.087382 1_546
Hf2 O11 2.017846 1_555
Hf2 O17 2.021633 1_555
Hf2 O16 2.042308 1_565
Hf2 O23 2.053369 1_565
Hf2 O22 2.059197 1_555
Hf2 O8 2.079988 1_555
Hf3 O4 2.017846 1_555
Hf3 O3 2.021633 1_555
Hf3 O9 2.042308 1_455
Hf3 O13 2.053369 1_455
Hf3 O18 2.059197 1_555
Hf3 O21 2.079988 1_555
O0 P2 1.528451 1_645
O1 P5 1.544405 1_555
O2 P0 1.523885 1_554
O3 P0 1.523527 1_554
O4 P2 1.520645 1_555
O5 P1 1.516058 1_555
O6 P1 1.544405 1_555
O7 P0 1.551403 1_554
O8 P1 1.539582 1_555
O9 P1 1.513260 1_555
O10 P2 1.528451 1_645
O11 P2 1.520645 1_555
O12 P3 1.539802 1_556
O13 P3 1.518843 1_565
O14 P4 1.551403 1_556
O15 P4 1.523885 1_556
O16 P5 1.513260 1_555
O17 P4 1.523527 1_556
O18 P4 1.515699 1_555
O19 P3 1.539802 1_555
O20 P5 1.516058 1_555
O21 P5 1.539582 1_555
O22 P0 1.515699 1_555
O23 P3 1.518843 1_456
