# generated using pymatgen
data_Sc22TcIr5Os2
_symmetry_space_group_name_H-M   'P 1'
_cell_length_a   9.45922744
_cell_length_b   9.46379077
_cell_length_c   9.45922780
_cell_angle_alpha   59.98403636
_cell_angle_beta   59.95440722
_cell_angle_gamma   59.98404071
_symmetry_Int_Tables_number   1
_chemical_formula_structural   Sc22TcIr5Os2
_chemical_formula_sum   'Sc22 Tc1 Ir5 Os2'
_cell_volume   598.42106236
_cell_formula_units_Z   1
loop_
 _symmetry_equiv_pos_site_id
 _symmetry_equiv_pos_as_xyz
  1  'x, y, z'
loop_
 _atom_site_type_symbol
 _atom_site_label
 _atom_site_symmetry_multiplicity
 _atom_site_fract_x
 _atom_site_fract_y
 _atom_site_fract_z
 _atom_site_occupancy
  Sc  Sc0  1  0.84423076  0.84314563  0.84423076  1
  Sc  Sc1  1  0.53070516  0.15654114  0.15621156  1
  Sc  Sc2  1  0.15621156  0.15654114  0.53070516  1
  Sc  Sc3  1  0.15576924  0.53160715  0.15576924  1
  Sc  Sc4  1  0.84378844  0.84345886  0.46929484  1
  Sc  Sc5  1  0.84423076  0.46839285  0.84423076  1
  Sc  Sc6  1  0.46929484  0.84345886  0.84378844  1
  Sc  Sc7  1  0.15576924  0.15685437  0.15576924  1
  Sc  Sc8  1  0.19637986  0.80362014  0.19637986  1
  Sc  Sc9  1  0.19576315  0.80351058  0.80423685  1
  Sc  Sc10  1  0.80423685  0.19648942  0.19576315  1
  Sc  Sc11  1  0.80423685  0.80351058  0.19576315  1
  Sc  Sc12  1  0.19576315  0.19648942  0.80423685  1
  Sc  Sc13  1  0.80362014  0.19637986  0.80362014  1
  Sc  Sc14  1  0.38315529  0.38434589  0.38315529  1
  Sc  Sc15  1  0.14985912  0.61542288  0.61929513  1
  Sc  Sc16  1  0.61684471  0.15065846  0.61684471  1
  Sc  Sc17  1  0.61929513  0.61542288  0.14985912  1
  Sc  Sc18  1  0.38315529  0.84934154  0.38315529  1
  Sc  Sc19  1  0.38070487  0.38457712  0.85014088  1
  Sc  Sc20  1  0.85014088  0.38457712  0.38070487  1
  Sc  Sc21  1  0.61684471  0.61565411  0.61684471  1
  Tc  Tc0  1  0.00000000  0.00000000  0.00000000  1
  Ir  Ir0  1  0.50000000  0.50000000  0.00000000  1
  Ir  Ir1  1  0.00000000  0.00000000  0.50000000  1
  Ir  Ir2  1  0.50000000  0.00000000  0.50000000  1
  Ir  Ir3  1  0.00000000  0.50000000  0.50000000  1
  Ir  Ir4  1  0.50000000  0.00000000  0.00000000  1
  Os  Os0  1  0.00000000  0.50000000  0.00000000  1
  Os  Os1  1  0.50000000  0.50000000  0.50000000  1
loop_
_geom_bond_atom_site_label_1
_geom_bond_atom_site_label_2
_geom_bond_distance
_geom_bond_site_symmetry_2
Sc0 Sc9 2.995884 1_655
Sc0 Sc11 2.995884 1_556
Sc0 Sc13 3.008078 1_565
Sc0 Sc17 3.118357 1_556
Sc0 Sc15 3.118357 1_655
Sc0 Sc16 3.135226 1_565
Sc1 Sc13 3.004025 1_554
Sc1 Sc11 3.011151 1_545
Sc1 Sc10 3.011157 1_555
Sc1 Sc14 3.134298 1_555
Sc1 Sc18 3.134305 1_545
Sc1 Sc19 3.138738 1_554
Sc2 Sc9 3.011151 1_545
Sc2 Sc20 3.138738 1_455
Sc3 Sc9 2.995884 1_554
Sc3 Sc8 3.008078 1_555
Sc4 Sc8 3.004025 1_655
Sc6 Sc8 3.004025 1_556
Sc6 Sc9 3.011157 1_555
Sc7 Sc8 3.008078 1_545
Sc8 Tc0 2.627317 1_565
Sc9 Tc0 2.623393 1_566
Sc10 Tc0 2.623393 1_655
Sc10 Sc5 2.995884 1_554
Sc10 Sc7 2.995884 1_655
Sc10 Sc4 3.011151 1_545
Sc10 Sc17 3.326693 1_555
Sc10 Sc20 3.326693 1_555
Sc10 Sc14 3.341546 1_555
Sc10 Sc16 3.341550 1_555
Sc11 Tc0 2.623393 1_665
Sc11 Sc3 2.995884 1_655
Sc11 Sc4 3.011157 1_555
Sc11 Sc20 3.326693 1_555
Sc11 Sc17 3.326693 1_555
Sc11 Sc21 3.341546 1_555
Sc11 Sc18 3.341550 1_555
Sc12 Tc0 2.623393 1_556
Sc12 Sc5 2.995884 1_455
Sc12 Sc7 2.995884 1_556
Sc12 Sc6 3.011151 1_545
Sc12 Sc2 3.011157 1_555
Sc12 Sc15 3.326693 1_555
Sc12 Sc19 3.326693 1_555
Sc12 Sc14 3.341546 1_555
Sc12 Sc16 3.341550 1_555
Sc13 Tc0 2.627317 1_656
Sc13 Sc2 3.004025 1_655
Sc13 Sc5 3.008078 1_555
Sc13 Sc16 3.329480 1_555
Sc13 Sc21 3.329492 1_555
Sc13 Sc20 3.355929 1_555
Sc13 Sc19 3.355929 1_555
Sc14 Sc17 3.124819 1_555
Sc14 Sc15 3.124819 1_555
Sc14 Sc16 3.126472 1_555
Sc14 Sc2 3.134297 1_555
Sc14 Sc3 3.135222 1_555
Sc14 Sc8 3.329492 1_555
Sc15 Sc19 3.088427 1_555
Sc15 Sc5 3.118357 1_455
Sc15 Sc18 3.124805 1_555
Sc15 Sc4 3.138738 1_455
Sc15 Sc9 3.326693 1_555
Sc15 Sc8 3.355929 1_555
Sc16 Sc20 3.124805 1_555
Sc16 Sc19 3.124806 1_555
Sc16 Sc6 3.134305 1_545
Sc16 Sc4 3.134305 1_545
Sc17 Sc20 3.088427 1_555
Sc17 Sc5 3.118357 1_554
Sc17 Sc18 3.124806 1_555
Sc17 Sc6 3.138738 1_554
Sc17 Sc8 3.355929 1_555
Sc18 Sc21 3.126472 1_555
Sc18 Sc2 3.134305 1_565
Sc18 Sc7 3.135226 1_565
Sc18 Sc8 3.329480 1_555
Sc18 Sc9 3.341550 1_555
Sc19 Sc7 3.118357 1_556
Sc19 Sc3 3.118357 1_556
Sc19 Sc21 3.124819 1_555
Sc19 Sc9 3.326693 1_555
Sc20 Sc3 3.118357 1_655
Sc20 Sc7 3.118357 1_655
Sc20 Sc21 3.124819 1_555
Sc21 Sc4 3.134297 1_555
Sc21 Sc6 3.134298 1_555
Sc21 Sc5 3.135222 1_555
Sc21 Sc9 3.341546 1_555
Ir0 Sc6 2.740984 1_554
Ir0 Sc1 2.740984 1_555
Ir0 Sc5 2.743207 1_554
Ir0 Sc3 2.743207 1_555
Ir0 Sc14 2.964052 1_555
Ir0 Sc21 2.964052 1_554
Ir0 Sc17 2.976622 1_555
Ir0 Sc19 2.976622 1_554
Ir1 Sc2 2.740976 1_555
Ir1 Sc4 2.740976 1_445
Ir1 Sc7 2.743207 1_555
Ir1 Sc0 2.743207 1_445
Ir1 Sc18 2.964053 1_545
Ir1 Sc16 2.964053 1_455
Ir1 Sc20 2.976622 1_455
Ir1 Sc15 2.976622 1_545
Ir2 Sc6 2.742095 1_545
Ir2 Sc1 2.742095 1_555
Ir2 Sc4 2.742095 1_545
Ir2 Sc2 2.742095 1_555
Ir2 Sc14 2.975328 1_555
Ir2 Sc21 2.975328 1_545
Ir2 Sc16 2.975345 1_555
Ir2 Sc18 2.975345 1_545
Ir3 Sc4 2.740984 1_455
Ir3 Sc2 2.740984 1_555
Ir3 Sc5 2.743207 1_455
Ir3 Sc3 2.743207 1_555
Ir3 Sc14 2.964052 1_555
Ir3 Sc21 2.964052 1_455
Ir3 Sc15 2.976622 1_555
Ir3 Sc20 2.976622 1_455
Ir4 Sc1 2.740976 1_555
Ir4 Sc6 2.740976 1_544
Ir4 Sc0 2.743207 1_544
Ir4 Sc7 2.743207 1_555
Ir4 Sc18 2.964053 1_545
Ir4 Sc16 2.964053 1_554
Ir4 Sc17 2.976622 1_545
Ir4 Sc19 2.976622 1_554
Os0 Sc0 2.736349 1_454
Os0 Sc7 2.736349 1_555
Os0 Sc3 2.736349 1_555
Os0 Sc5 2.736349 1_454
Os0 Sc20 2.944965 1_455
Os0 Sc15 2.944965 1_554
Os0 Sc19 2.944965 1_554
Os0 Sc17 2.944965 1_455
Os1 Sc18 2.699080 1_555
Os1 Sc16 2.699080 1_555
Os1 Sc21 2.699095 1_555
Os1 Sc14 2.699095 1_555
Os1 Sc19 2.703205 1_555
Os1 Sc17 2.703205 1_555
Os1 Sc15 2.703205 1_555
Os1 Sc20 2.703205 1_555
