# generated using pymatgen
data_Cs2TaAgSe4
_symmetry_space_group_name_H-M   'P 1'
_cell_length_a   14.80167102
_cell_length_b   13.21059853
_cell_length_c   7.97022105
_cell_angle_alpha   84.83573015
_cell_angle_beta   62.73338722
_cell_angle_gamma   32.43088769
_symmetry_Int_Tables_number   1
_chemical_formula_structural   Cs2TaAgSe4
_chemical_formula_sum   'Cs4 Ta2 Ag2 Se8'
_cell_volume   581.51266951
_cell_formula_units_Z   2
loop_
 _symmetry_equiv_pos_site_id
 _symmetry_equiv_pos_as_xyz
  1  'x, y, z'
loop_
 _atom_site_type_symbol
 _atom_site_label
 _atom_site_symmetry_multiplicity
 _atom_site_fract_x
 _atom_site_fract_y
 _atom_site_fract_z
 _atom_site_occupancy
  Cs  Cs0  1  0.82073539  0.82073539  0.17926461  1
  Cs  Cs1  1  0.17926461  0.17926461  0.82073539  1
  Cs  Cs2  1  0.42926461  0.42926461  0.07073539  1
  Cs  Cs3  1  0.07073539  0.07073539  0.42926461  1
  Ta  Ta0  1  0.25000000  0.25000000  0.25000000  1
  Ta  Ta1  1  0.00000000  0.00000000  0.00000000  1
  Ag  Ag0  1  0.50000000  0.50000000  0.50000000  1
  Ag  Ag1  1  0.75000000  0.75000000  0.75000000  1
  Se  Se0  1  0.73936751  0.37063466  0.06666375  1
  Se  Se1  1  0.42666492  0.18333625  0.87936534  1
  Se  Se2  1  0.87936534  0.51063249  0.42666492  1
  Se  Se3  1  0.18333625  0.42666492  0.51063249  1
  Se  Se4  1  0.06666375  0.82333508  0.73936751  1
  Se  Se5  1  0.37063466  0.73936751  0.82333508  1
  Se  Se6  1  0.51063249  0.87936534  0.18333625  1
  Se  Se7  1  0.82333508  0.06666375  0.37063466  1
loop_
_geom_bond_atom_site_label_1
_geom_bond_atom_site_label_2
_geom_bond_distance
_geom_bond_site_symmetry_2
Cs0 Se1 3.681222 1_654
Cs0 Se3 3.681224 1_565
Cs0 Se4 3.746981 1_654
Cs0 Se7 3.746984 1_565
Cs0 Se2 3.941582 1_555
Cs0 Se6 3.941586 1_555
Cs0 Se1 3.991039 1_565
Cs0 Se3 3.991046 1_654
Cs1 Se2 3.681218 1_456
Cs1 Se6 3.681225 1_545
Cs1 Se0 3.746971 1_456
Cs1 Se5 3.746972 1_545
Cs1 Se1 3.941571 1_555
Cs1 Se3 3.941576 1_555
Cs1 Se2 3.991041 1_545
Cs1 Se6 3.991042 1_456
Cs2 Se7 3.681222 1_465
Cs2 Se4 3.681224 1_644
Cs2 Se3 3.746981 1_555
Cs2 Se1 3.746984 1_554
Cs2 Se5 3.941582 1_554
Cs2 Se0 3.941586 1_555
Cs2 Se7 3.991039 1_554
Cs2 Se4 3.991046 1_555
Cs3 Se5 3.681218 1_544
Cs3 Se0 3.681225 1_456
Cs3 Se6 3.746971 1_545
Cs3 Se2 3.746972 1_455
Cs3 Se7 3.941571 1_455
Cs3 Se4 3.941576 1_545
Cs3 Se5 3.991041 1_455
Cs3 Se0 3.991042 1_545
Ag0 Se4 2.651678 1_555
Ag0 Se7 2.651680 1_555
Ag0 Se0 2.651683 1_555
Ag0 Se5 2.651689 1_555
Ag1 Se3 2.651678 1_655
Ag1 Se1 2.651680 1_565
Ag1 Se6 2.651683 1_556
Ag1 Se2 2.651689 1_555
Se0 Ta1 2.417213 1_655
Se1 Ta0 2.417210 1_556
Se2 Ta0 2.417216 1_655
Se3 Ta0 2.417204 1_555
Se4 Ta1 2.417204 1_566
Se5 Ta1 2.417216 1_566
Se6 Ta0 2.417213 1_565
Se7 Ta1 2.417210 1_655
