# generated using pymatgen
data_KRb2FeSe3
_symmetry_space_group_name_H-M   'P 1'
_cell_length_a   10.62103758
_cell_length_b   10.62103787
_cell_length_c   13.42673130
_cell_angle_alpha   90.00000000
_cell_angle_beta   90.00000000
_cell_angle_gamma   140.98817766
_symmetry_Int_Tables_number   1
_chemical_formula_structural   KRb2FeSe3
_chemical_formula_sum   'K4 Rb8 Fe4 Se12'
_cell_volume   953.42523464
_cell_formula_units_Z   4
loop_
 _symmetry_equiv_pos_site_id
 _symmetry_equiv_pos_as_xyz
  1  'x, y, z'
loop_
 _atom_site_type_symbol
 _atom_site_label
 _atom_site_symmetry_multiplicity
 _atom_site_fract_x
 _atom_site_fract_y
 _atom_site_fract_z
 _atom_site_occupancy
  K  K0  1  0.84208320  0.84208320  0.34029215  1
  K  K1  1  0.15791680  0.15791680  0.65970785  1
  K  K2  1  0.65791680  0.65791680  0.84029215  1
  K  K3  1  0.34208320  0.34208320  0.15970785  1
  Rb  Rb0  1  0.84002757  0.48705952  0.13108713  1
  Rb  Rb1  1  0.51294048  0.15997243  0.86891287  1
  Rb  Rb2  1  0.01294048  0.65997243  0.63108713  1
  Rb  Rb3  1  0.34002757  0.98705952  0.36891287  1
  Rb  Rb4  1  0.15997243  0.51294048  0.86891287  1
  Rb  Rb5  1  0.48705952  0.84002757  0.13108713  1
  Rb  Rb6  1  0.98705952  0.34002757  0.36891287  1
  Rb  Rb7  1  0.65997243  0.01294048  0.63108713  1
  Fe  Fe0  1  0.08198693  0.91801307  0.00000000  1
  Fe  Fe1  1  0.58198693  0.41801307  0.50000000  1
  Fe  Fe2  1  0.91801307  0.08198693  0.00000000  1
  Fe  Fe3  1  0.41801307  0.58198693  0.50000000  1
  Se  Se0  1  0.02052287  0.31857339  0.11412027  1
  Se  Se1  1  0.68142661  0.97947713  0.88587973  1
  Se  Se2  1  0.18142661  0.47947713  0.61412027  1
  Se  Se3  1  0.52052287  0.81857339  0.38587973  1
  Se  Se4  1  0.97947713  0.68142661  0.88587973  1
  Se  Se5  1  0.31857339  0.02052287  0.11412027  1
  Se  Se6  1  0.81857339  0.52052287  0.38587973  1
  Se  Se7  1  0.47947713  0.18142661  0.61412027  1
  Se  Se8  1  0.79847026  0.79847026  0.08853323  1
  Se  Se9  1  0.20152974  0.20152974  0.91146677  1
  Se  Se10  1  0.70152974  0.70152974  0.58853323  1
  Se  Se11  1  0.29847026  0.29847026  0.41146677  1
loop_
_geom_bond_atom_site_label_1
_geom_bond_atom_site_label_2
_geom_bond_distance
_geom_bond_site_symmetry_2
K0 Se3 3.282687 1_555
K0 Se6 3.282687 1_555
K0 Se11 3.375185 1_665
K0 Se8 3.394424 1_555
K0 Se10 3.478962 1_555
K1 Se7 3.282687 1_555
K1 Se2 3.282687 1_555
K1 Se10 3.375185 1_445
K1 Se9 3.394424 1_555
K1 Se11 3.478962 1_555
K2 Se4 3.282687 1_555
K2 Se1 3.282687 1_555
K2 Se9 3.375185 1_555
K2 Se10 3.394424 1_555
K2 Se8 3.478962 1_556
K3 Se0 3.282687 1_555
K3 Se5 3.282687 1_555
K3 Se8 3.375185 1_555
K3 Se11 3.394424 1_555
K3 Se9 3.478962 1_554
Rb0 Se6 3.465192 1_555
Rb0 Se0 3.501494 1_655
Rb0 Se4 3.541645 1_554
Rb0 Se5 3.554002 1_555
Rb0 Se5 3.638006 1_665
Rb0 Se8 3.705341 1_555
Rb1 Se7 3.465192 1_555
Rb1 Se1 3.501494 1_545
Rb1 Se5 3.541645 1_556
Rb1 Se4 3.554002 1_555
Rb1 Se4 3.638006 1_445
Rb1 Se9 3.705341 1_555
Rb2 Se4 3.465192 1_455
Rb2 Se2 3.501494 1_555
Rb2 Se6 3.541645 1_455
Rb2 Se7 3.554002 1_565
Rb2 Se7 3.638006 1_455
Rb2 Se10 3.705341 1_455
Rb3 Se5 3.465192 1_565
Rb3 Se3 3.501494 1_555
Rb3 Se7 3.541645 1_565
Rb3 Se6 3.554002 1_455
Rb3 Se6 3.638006 1_565
Rb3 Se11 3.705341 1_565
Rb4 Se2 3.465192 1_555
Rb4 Se4 3.501494 1_455
Rb4 Se0 3.541645 1_556
Rb4 Se1 3.554002 1_555
Rb4 Se1 3.638006 1_445
Rb4 Se9 3.705341 1_555
Rb5 Se3 3.465192 1_555
Rb5 Se5 3.501494 1_565
Rb5 Se1 3.541645 1_554
Rb5 Se0 3.554002 1_555
Rb5 Se0 3.638006 1_665
Rb5 Se8 3.705341 1_555
Rb6 Se0 3.465192 1_655
Rb6 Se6 3.501494 1_555
Rb6 Se2 3.541645 1_655
Rb6 Se3 3.554002 1_545
Rb6 Se3 3.638006 1_655
Rb6 Se11 3.705341 1_655
Rb7 Se1 3.465192 1_545
Rb7 Se7 3.501494 1_555
Rb7 Se3 3.541645 1_545
Rb7 Se2 3.554002 1_655
Rb7 Se2 3.638006 1_545
Rb7 Se10 3.705341 1_545
Fe0 Se5 2.365542 1_565
Fe0 Se4 2.365542 1_454
Fe0 Se8 2.480155 1_455
Fe0 Se9 2.480155 1_564
Fe0 Rb1 3.517520 1_564
Fe0 Rb0 3.517520 1_455
Fe1 Se6 2.365542 1_555
Fe1 Se7 2.365542 1_555
Fe1 Se11 2.480155 1_555
Fe1 Se10 2.480155 1_555
Fe1 Rb2 3.517520 1_655
Fe1 Rb3 3.517520 1_545
Fe2 Se1 2.365542 1_544
Fe2 Se0 2.365542 1_655
Fe2 Se9 2.480155 1_654
Fe2 Se8 2.480155 1_545
Fe2 Rb5 3.517520 1_545
Fe2 Rb4 3.517520 1_654
Fe3 Se2 2.365542 1_555
Fe3 Se3 2.365542 1_555
Fe3 Se10 2.480155 1_555
Fe3 Se11 2.480155 1_555
Fe3 Rb6 3.517520 1_455
Fe3 Rb7 3.517520 1_565
