# generated using pymatgen
data_Ca8Mn(NbN4)3
_symmetry_space_group_name_H-M   'P 1'
_cell_length_a   6.04178277
_cell_length_b   6.05780228
_cell_length_c   11.93540939
_cell_angle_alpha   88.58921745
_cell_angle_beta   87.87770274
_cell_angle_gamma   122.47062707
_symmetry_Int_Tables_number   1
_chemical_formula_structural   Ca8Mn(NbN4)3
_chemical_formula_sum   'Ca8 Mn1 Nb3 N12'
_cell_volume   367.77703705
_cell_formula_units_Z   1
loop_
 _symmetry_equiv_pos_site_id
 _symmetry_equiv_pos_as_xyz
  1  'x, y, z'
loop_
 _atom_site_type_symbol
 _atom_site_label
 _atom_site_symmetry_multiplicity
 _atom_site_fract_x
 _atom_site_fract_y
 _atom_site_fract_z
 _atom_site_occupancy
  Ca  Ca0  1  0.61329278  0.84374593  0.08383923  1
  Ca  Ca1  1  0.47432015  0.05192333  0.35432240  1
  Ca  Ca2  1  0.06756872  0.47883387  0.86604932  1
  Ca  Ca3  1  0.52594031  0.93268125  0.63394081  1
  Ca  Ca4  1  0.40355513  0.16854471  0.92584598  1
  Ca  Ca5  1  0.82977208  0.59663049  0.56908344  1
  Ca  Ca6  1  0.16424688  0.38716971  0.41857668  1
  Ca  Ca7  1  0.94588390  0.55337238  0.14540105  1
  Mn  Mn0  1  0.76419942  0.75931222  0.34044620  1
  Nb  Nb0  1  0.77098947  0.77816369  0.83911813  1
  Nb  Nb1  1  0.22196366  0.22675409  0.65936387  1
  Nb  Nb2  1  0.23470479  0.23312248  0.16795782  1
  N  N0  1  0.10994687  0.89227594  0.74993660  1
  N  N1  1  0.88501130  0.06920476  0.25668040  1
  N  N2  1  0.48068217  0.52017973  0.74826441  1
  N  N3  1  0.51681538  0.50514425  0.25700973  1
  N  N4  1  0.33353195  0.99532201  0.12223096  1
  N  N5  1  0.99124841  0.67545736  0.36920436  1
  N  N6  1  0.69793445  0.03455531  0.88290384  1
  N  N7  1  0.97112266  0.30531293  0.61098597  1
  N  N8  1  0.79489202  0.60907309  0.96988943  1
  N  N9  1  0.60682055  0.78496295  0.45864975  1
  N  N10  1  0.20253786  0.40362794  0.04016143  1
  N  N11  1  0.39301911  0.19462860  0.53013620  1
loop_
_geom_bond_atom_site_label_1
_geom_bond_atom_site_label_2
_geom_bond_distance
_geom_bond_site_symmetry_2
Ca0 N4 2.353691 1_555
Ca0 N6 2.546988 1_564
Ca0 N10 2.568801 1_555
Ca0 N8 2.594978 1_554
Ca0 N1 2.607335 1_565
Ca0 N3 2.690215 1_555
Ca1 N11 2.420921 1_555
Ca1 N9 2.484236 1_545
Ca1 N5 2.558439 1_445
Ca1 N1 2.650829 1_555
Ca1 N3 2.831401 1_555
Ca1 N4 2.902193 1_545
Ca2 N10 2.380926 1_556
Ca2 N6 2.399516 1_455
Ca2 N8 2.482973 1_455
Ca2 N2 2.705606 1_555
Ca2 N0 2.715360 1_555
Ca3 N7 2.408489 1_565
Ca3 N9 2.429548 1_555
Ca3 N11 2.458282 1_565
Ca3 N2 2.692897 1_555
Ca3 N0 2.712669 1_555
Ca4 N6 2.363874 1_555
Ca4 N4 2.470408 1_546
Ca4 N8 2.524767 1_555
Ca4 N10 2.682287 1_556
Ca4 N0 2.759881 1_545
Ca4 N2 2.808144 1_555
Ca5 N7 2.387506 1_555
Ca5 N5 2.478387 1_555
Ca5 N11 2.521176 1_555
Ca5 N9 2.561437 1_555
Ca5 N2 2.793715 1_555
Ca5 N0 2.817467 1_655
Ca6 N7 2.450590 1_455
Ca6 N9 2.533464 1_555
Ca6 N5 2.538603 1_455
Ca6 N3 2.600032 1_555
Ca6 N11 2.614320 1_555
Ca6 N1 2.688058 1_455
Ca7 N8 2.402399 1_554
Ca7 N4 2.431537 1_655
Ca7 N10 2.495456 1_655
Ca7 N3 2.737136 1_555
Ca7 N5 2.773294 1_555
Ca7 N1 3.019188 1_555
Mn0 N9 1.728791 1_555
Mn0 N5 1.741303 1_555
Mn0 N3 1.819643 1_555
Mn0 N1 1.854378 1_565
N0 Nb0 2.021644 1_455
N0 Nb1 2.024275 1_565
N1 Nb2 2.025106 1_655
N2 Nb1 1.990260 1_555
N2 Nb0 1.993929 1_555
N3 Nb2 1.988695 1_555
N4 Nb2 1.915124 1_565
N6 Nb0 1.907679 1_545
N7 Nb1 1.918956 1_655
N8 Nb0 1.898160 1_555
N10 Nb2 1.895018 1_555
N11 Nb1 1.896729 1_555
