# generated using pymatgen
data_KRbTcH9
_symmetry_space_group_name_H-M   'P 1'
_cell_length_a   9.63644735
_cell_length_b   9.63644674
_cell_length_c   5.68666237
_cell_angle_alpha   90.00000000
_cell_angle_beta   90.00000000
_cell_angle_gamma   119.99999560
_symmetry_Int_Tables_number   1
_chemical_formula_structural   KRbTcH9
_chemical_formula_sum   'K3 Rb3 Tc3 H27'
_cell_volume   457.32187285
_cell_formula_units_Z   3
loop_
 _symmetry_equiv_pos_site_id
 _symmetry_equiv_pos_as_xyz
  1  'x, y, z'
loop_
 _atom_site_type_symbol
 _atom_site_label
 _atom_site_symmetry_multiplicity
 _atom_site_fract_x
 _atom_site_fract_y
 _atom_site_fract_z
 _atom_site_occupancy
  K  K0  1  0.26183525  1.00000000  0.50000000  1
  K  K1  1  1.00000000  0.26183525  0.50000000  1
  K  K2  1  0.73816475  0.73816475  0.50000000  1
  Rb  Rb0  1  0.59010831  0.00000000  0.00000000  1
  Rb  Rb1  1  0.00000000  0.59010831  0.00000000  1
  Rb  Rb2  1  0.40989169  0.40989169  0.00000000  1
  Tc  Tc0  1  0.00000000  0.00000000  0.00000000  1
  Tc  Tc1  1  0.33333300  0.66666700  0.50000000  1
  Tc  Tc2  1  0.66666700  0.33333300  0.50000000  1
  H  H0  1  0.87616853  1.00000000  0.20780623  1
  H  H1  1  1.00000000  0.87616853  0.20780623  1
  H  H2  1  0.87616853  1.00000000  0.79219377  1
  H  H3  1  1.00000000  0.87616853  0.79219377  1
  H  H4  1  0.12383147  0.12383147  0.20780623  1
  H  H5  1  0.12383147  0.12383147  0.79219377  1
  H  H6  1  0.17180383  0.00000000  0.00000000  1
  H  H7  1  0.00000000  0.17180383  0.00000000  1
  H  H8  1  0.82819617  0.82819617  0.00000000  1
  H  H9  1  0.22587562  0.53343474  0.28855442  1
  H  H10  1  0.46656526  0.69243988  0.28855442  1
  H  H11  1  0.22587562  0.53343474  0.71144558  1
  H  H12  1  0.53343474  0.22587562  0.71144558  1
  H  H13  1  0.30756012  0.77412438  0.28855442  1
  H  H14  1  0.46656526  0.69243988  0.71144558  1
  H  H15  1  0.69243988  0.46656526  0.71144558  1
  H  H16  1  0.53343474  0.22587562  0.28855442  1
  H  H17  1  0.30756012  0.77412438  0.71144558  1
  H  H18  1  0.69243988  0.46656526  0.28855442  1
  H  H19  1  0.77412438  0.30756012  0.71144558  1
  H  H20  1  0.77412438  0.30756012  0.28855442  1
  H  H21  1  0.36867622  0.51553961  0.50000000  1
  H  H22  1  0.48446039  0.85313661  0.50000000  1
  H  H23  1  0.51553961  0.36867622  0.50000000  1
  H  H24  1  0.14686339  0.63132378  0.50000000  1
  H  H25  1  0.85313661  0.48446039  0.50000000  1
  H  H26  1  0.63132378  0.14686339  0.50000000  1
loop_
_geom_bond_atom_site_label_1
_geom_bond_atom_site_label_2
_geom_bond_distance
_geom_bond_site_symmetry_2
H0 Tc0 1.679412 1_665
H0 K1 2.745972 1_565
H0 K2 2.745972 1_555
H0 Rb0 2.999223 1_565
H1 Tc0 1.679412 1_665
H1 K0 2.745972 1_655
H1 K2 2.745972 1_555
H1 Rb1 2.999223 1_655
H2 Tc0 1.679412 1_666
H2 K1 2.745972 1_565
H2 K2 2.745972 1_555
H2 Rb0 2.999223 1_566
H3 Tc0 1.679412 1_666
H3 K0 2.745972 1_655
H3 K2 2.745972 1_555
H3 Rb1 2.999223 1_656
H4 Tc0 1.679412 1_555
H4 K1 2.745972 1_455
H4 K0 2.745972 1_545
H4 Rb2 2.999223 1_555
H5 Tc0 1.679412 1_556
H5 K1 2.745972 1_455
H5 K0 2.745972 1_545
H5 Rb2 2.999223 1_556
H6 Tc0 1.655579 1_555
H7 Tc0 1.655578 1_555
H8 Tc0 1.655579 1_665
H9 Tc1 1.684333 1_555
H9 K1 2.708648 1_455
H9 Rb1 2.986191 1_555
H9 Rb2 3.060306 1_555
H10 Tc1 1.684338 1_555
H10 K2 2.708644 1_555
H10 Rb2 2.986183 1_555
H10 Rb0 3.060313 1_565
H11 Tc1 1.684333 1_555
H11 K1 2.708648 1_455
H11 Rb1 2.986191 1_556
H11 Rb2 3.060306 1_556
H12 Tc2 1.684333 1_555
H12 K0 2.708648 1_545
H12 Rb0 2.986191 1_556
H12 Rb2 3.060305 1_556
H13 Tc1 1.684324 1_555
H13 K0 2.708653 1_555
H13 Rb0 2.986186 1_565
H13 Rb1 3.060312 1_555
H14 Tc1 1.684338 1_555
H14 K2 2.708644 1_555
H14 Rb2 2.986183 1_556
H14 Rb0 3.060313 1_566
H15 Tc2 1.684338 1_555
H15 K2 2.708644 1_555
H15 Rb2 2.986183 1_556
H15 Rb1 3.060313 1_656
H16 Tc2 1.684333 1_555
H16 K0 2.708648 1_545
H16 Rb0 2.986191 1_555
H16 Rb2 3.060305 1_555
H17 Tc1 1.684324 1_555
H17 K0 2.708653 1_555
H17 Rb0 2.986186 1_566
H17 Rb1 3.060312 1_556
H18 Tc2 1.684338 1_555
H18 K2 2.708644 1_555
H18 Rb2 2.986183 1_555
H18 Rb1 3.060313 1_655
H19 Tc2 1.684324 1_555
H19 K1 2.708653 1_555
H19 Rb1 2.986186 1_656
H19 Rb0 3.060312 1_556
H20 Tc2 1.684324 1_555
H20 K1 2.708653 1_555
H20 Rb1 2.986186 1_655
H20 Rb0 3.060312 1_555
H21 Tc1 1.653148 1_555
H21 Rb2 3.111767 1_555
H21 Rb2 3.111767 1_556
H22 Tc1 1.653142 1_555
H22 Rb0 3.111767 1_566
H22 Rb0 3.111767 1_565
H23 Tc2 1.653148 1_555
H23 Rb2 3.111767 1_555
H23 Rb2 3.111767 1_556
H24 Tc1 1.653139 1_555
H24 Rb1 3.111767 1_556
H24 Rb1 3.111767 1_555
H25 Tc2 1.653142 1_555
H25 Rb1 3.111767 1_656
H25 Rb1 3.111767 1_655
H26 Tc2 1.653139 1_555
H26 Rb0 3.111767 1_555
H26 Rb0 3.111767 1_556
