# generated using pymatgen
data_Rb2LiTaSe4
_symmetry_space_group_name_H-M   'P 1'
_cell_length_a   14.09174355
_cell_length_b   12.61395057
_cell_length_c   7.65496148
_cell_angle_alpha   84.31416747
_cell_angle_beta   62.96470331
_cell_angle_gamma   32.72112356
_symmetry_Int_Tables_number   1
_chemical_formula_structural   Rb2LiTaSe4
_chemical_formula_sum   'Rb4 Li2 Ta2 Se8'
_cell_volume   529.70255626
_cell_formula_units_Z   2
loop_
 _symmetry_equiv_pos_site_id
 _symmetry_equiv_pos_as_xyz
  1  'x, y, z'
loop_
 _atom_site_type_symbol
 _atom_site_label
 _atom_site_symmetry_multiplicity
 _atom_site_fract_x
 _atom_site_fract_y
 _atom_site_fract_z
 _atom_site_occupancy
  Rb  Rb0  1  0.32031889  0.32031889  0.67968111  1
  Rb  Rb1  1  0.92968111  0.92968111  0.57031889  1
  Rb  Rb2  1  0.67968111  0.67968111  0.32031889  1
  Rb  Rb3  1  0.57031889  0.57031889  0.92968111  1
  Li  Li0  1  0.25000000  0.25000000  0.25000000  1
  Li  Li1  1  0.00000000  0.00000000  0.00000000  1
  Ta  Ta0  1  0.75000000  0.75000000  0.75000000  1
  Ta  Ta1  1  0.50000000  0.50000000  0.50000000  1
  Se  Se0  1  0.36762700  0.02097748  0.93496932  1
  Se  Se1  1  0.57357380  0.31503068  0.22902252  1
  Se  Se2  1  0.22902252  0.88237300  0.57357380  1
  Se  Se3  1  0.31503068  0.57357380  0.88237300  1
  Se  Se4  1  0.67642620  0.93496932  0.02097748  1
  Se  Se5  1  0.93496932  0.67642620  0.36762700  1
  Se  Se6  1  0.02097748  0.36762700  0.67642620  1
  Se  Se7  1  0.88237300  0.22902252  0.31503068  1
loop_
_geom_bond_atom_site_label_1
_geom_bond_atom_site_label_2
_geom_bond_distance
_geom_bond_site_symmetry_2
Rb0 Se3 3.618646 1_555
Rb0 Se1 3.618647 1_555
Rb0 Se5 3.655085 1_545
Rb0 Se4 3.655085 1_456
Rb0 Se0 3.742644 1_555
Rb0 Se6 3.742644 1_555
Rb0 Se4 3.878838 1_545
Rb0 Se5 3.878838 1_456
Rb1 Se5 3.618646 1_555
Rb1 Se4 3.618647 1_556
Rb1 Se3 3.655085 1_565
Rb1 Se1 3.655085 1_655
Rb1 Se7 3.742644 1_565
Rb1 Se2 3.742644 1_655
Rb1 Se1 3.878838 1_566
Rb1 Se3 3.878838 1_654
Rb2 Se7 3.618646 1_555
Rb2 Se2 3.618647 1_555
Rb2 Se0 3.655085 1_565
Rb2 Se6 3.655085 1_654
Rb2 Se4 3.742644 1_555
Rb2 Se5 3.742644 1_555
Rb2 Se6 3.878837 1_565
Rb2 Se0 3.878838 1_654
Rb3 Se0 3.618646 1_565
Rb3 Se6 3.618647 1_655
Rb3 Se7 3.655085 1_555
Rb3 Se2 3.655085 1_556
Rb3 Se1 3.742644 1_556
Rb3 Se3 3.742644 1_555
Rb3 Se2 3.878837 1_645
Rb3 Se7 3.878838 1_466
Li0 Se5 2.568659 1_455
Li0 Se0 2.568659 1_554
Li0 Se4 2.568659 1_545
Li0 Se6 2.568659 1_555
Li1 Se3 2.568659 1_544
Li1 Se7 2.568659 1_455
Li1 Se1 2.568659 1_455
Li1 Se2 2.568659 1_544
Se0 Ta0 2.398988 1_545
Se1 Ta1 2.398988 1_555
Se2 Ta1 2.398987 1_555
Se3 Ta1 2.398988 1_555
Se4 Ta0 2.398988 1_554
Se5 Ta0 2.398988 1_555
Se6 Ta0 2.398987 1_455
Se7 Ta1 2.398988 1_555
