# generated using pymatgen
data_BaSrAs2F14
_symmetry_space_group_name_H-M   'P 1'
_cell_length_a   4.69899672
_cell_length_b   7.34251141
_cell_length_c   7.77822266
_cell_angle_alpha   104.63471540
_cell_angle_beta   92.37464936
_cell_angle_gamma   98.18234890
_symmetry_Int_Tables_number   1
_chemical_formula_structural   BaSrAs2F14
_chemical_formula_sum   'Ba1 Sr1 As2 F14'
_cell_volume   256.17689876
_cell_formula_units_Z   1
loop_
 _symmetry_equiv_pos_site_id
 _symmetry_equiv_pos_as_xyz
  1  'x, y, z'
loop_
 _atom_site_type_symbol
 _atom_site_label
 _atom_site_symmetry_multiplicity
 _atom_site_fract_x
 _atom_site_fract_y
 _atom_site_fract_z
 _atom_site_occupancy
  Ba  Ba0  1  0.89063883  0.66143306  0.20563618  1
  Sr  Sr0  1  0.28739879  0.31826987  0.82710255  1
  As  As0  1  0.66009881  0.81764997  0.70312534  1
  As  As1  1  0.29153901  0.18983905  0.29567815  1
  F  F0  1  0.13148239  0.17905510  0.08590955  1
  F  F1  1  0.48095836  0.81062844  0.49901200  1
  F  F2  1  0.44720430  0.20499111  0.50873867  1
  F  F3  1  0.44589259  0.97678005  0.81507653  1
  F  F4  1  0.40101920  0.97043483  0.21005113  1
  F  F5  1  0.41206402  0.62510468  0.72320338  1
  F  F6  1  0.84166262  0.82024993  0.90315934  1
  F  F7  1  0.36182096  0.57317264  0.08932008  1
  F  F8  1  0.97397437  0.06559217  0.34568573  1
  F  F9  1  0.17216363  0.40541943  0.38216773  1
  F  F10  1  0.80932669  0.39830563  0.89495098  1
  F  F11  1  0.87403706  0.66324698  0.58310550  1
  F  F12  1  0.61087531  0.30788566  0.24479924  1
  F  F13  1  0.90784307  0.01194241  0.68328091  1
loop_
_geom_bond_atom_site_label_1
_geom_bond_atom_site_label_2
_geom_bond_distance
_geom_bond_site_symmetry_2
Ba0 F7 2.533541 1_655
Ba0 F7 2.544082 1_555
Ba0 F10 2.659446 1_554
Ba0 F12 2.832170 1_555
Ba0 F8 2.854240 1_565
Ba0 F6 2.892405 1_554
Ba0 F11 2.937025 1_555
Ba0 F9 3.005097 1_655
Ba0 F4 3.050496 1_655
Ba0 F1 3.132797 1_555
As0 F6 1.737661 1_555
As0 F3 1.740656 1_555
As0 F11 1.742065 1_555
As0 F5 1.743321 1_555
As0 F1 1.751396 1_555
As0 F13 1.751476 1_565
As1 F12 1.735479 1_555
As1 F9 1.737450 1_555
As1 F4 1.739431 1_545
As1 F0 1.746486 1_555
As1 F8 1.746491 1_455
As1 F2 1.754156 1_555
F0 Sr0 2.565712 1_554
F2 Sr0 2.584355 1_555
F3 Sr0 2.696155 1_565
F5 Sr0 2.579843 1_555
F7 Sr0 2.368720 1_554
F10 Sr0 2.442248 1_555
F10 Sr0 2.446987 1_655
F13 Sr0 2.629207 1_655
