# generated using pymatgen
data_Sc3Sb4PtAu3
_symmetry_space_group_name_H-M   'P 1'
_cell_length_a   7.78714120
_cell_length_b   7.87533762
_cell_length_c   7.81382803
_cell_angle_alpha   131.64702579
_cell_angle_beta   131.35442391
_cell_angle_gamma   71.19742393
_symmetry_Int_Tables_number   1
_chemical_formula_structural   Sc3Sb4PtAu3
_chemical_formula_sum   'Sc3 Sb4 Pt1 Au3'
_cell_volume   262.89906876
_cell_formula_units_Z   1
loop_
 _symmetry_equiv_pos_site_id
 _symmetry_equiv_pos_as_xyz
  1  'x, y, z'
loop_
 _atom_site_type_symbol
 _atom_site_label
 _atom_site_symmetry_multiplicity
 _atom_site_fract_x
 _atom_site_fract_y
 _atom_site_fract_z
 _atom_site_occupancy
  Sc  Sc0  1  0.99689019  0.99932229  0.00000000  1
  Sc  Sc1  1  0.75002249  0.24891798  0.49729868  1
  Sc  Sc2  1  0.25272481  0.75162130  0.50270332  1
  Sb  Sb0  1  0.26627503  0.25831515  1.00000000  1
  Sb  Sb1  1  0.74315554  0.74540553  0.00000000  1
  Sb  Sb2  1  0.50175305  0.01192928  0.51649204  1
  Sb  Sb3  1  0.98526102  0.49543925  0.48350996  1
  Pt  Pt0  1  0.63259481  0.10403656  1.00000000  1
  Au  Au0  1  0.12604017  0.62977617  0.00000000  1
  Au  Au1  1  0.87670071  0.88167650  0.50811751  1
  Au  Au2  1  0.36858419  0.37356098  0.49188349  1
loop_
_geom_bond_atom_site_label_1
_geom_bond_atom_site_label_2
_geom_bond_distance
_geom_bond_site_symmetry_2
Sb0 Sc2 3.186666 1_545
Sb0 Sc1 3.186677 1_556
Sb0 Sc1 3.245735 1_455
Sb0 Sc2 3.245743 1_556
Sb0 Sc0 3.364342 1_446
Sb1 Sc2 3.195177 1_554
Sb1 Sc1 3.195180 1_565
Sb1 Sc0 3.232603 1_555
Sb1 Sc1 3.232702 1_554
Sb1 Sc2 3.232706 1_655
Sb2 Sc2 3.157166 1_545
Sb2 Sc0 3.186285 1_546
Sb2 Sc1 3.213192 1_555
Sb2 Sc0 3.241340 1_445
Sb3 Sc1 3.157173 1_555
Sb3 Sc0 3.186297 1_545
Sb3 Sc2 3.213198 1_655
Sb3 Sc0 3.241327 1_556
Pt0 Sb1 2.674074 1_546
Pt0 Sc0 2.686929 1_546
Pt0 Sc2 2.705904 1_545
Pt0 Sc1 2.705915 1_556
Pt0 Sb0 2.716484 1_555
Pt0 Sb2 2.754144 1_555
Pt0 Sb3 2.754152 1_556
Au0 Sc0 2.755823 1_455
Au0 Sb0 2.773281 1_554
Au0 Sc1 2.793462 1_454
Au0 Sc2 2.793466 1_555
Au0 Sb3 2.799111 1_454
Au0 Sb2 2.799119 1_565
Au0 Sb1 2.822914 1_455
Au1 Sc0 2.753068 1_556
Au1 Sb1 2.756284 1_555
Au1 Sc1 2.778570 1_565
Au1 Sb3 2.789937 1_555
Au1 Sc2 2.792445 1_655
Au1 Sb2 2.795384 1_565
Au1 Sb0 2.830970 1_665
Au2 Sc0 2.753079 1_445
Au2 Sb1 2.756274 1_556
Au2 Sc2 2.778567 1_555
Au2 Sb2 2.789956 1_555
Au2 Sc1 2.792442 1_555
Au2 Sb3 2.795395 1_455
Au2 Sb0 2.830966 1_554
