# generated using pymatgen
data_CdBi3(Ir2O7)2
_symmetry_space_group_name_H-M   'P 1'
_cell_length_a   7.18621219
_cell_length_b   7.33472040
_cell_length_c   7.33471933
_cell_angle_alpha   59.99999606
_cell_angle_beta   59.31399224
_cell_angle_gamma   59.31399324
_symmetry_Int_Tables_number   1
_chemical_formula_structural   CdBi3(Ir2O7)2
_chemical_formula_sum   'Cd1 Bi3 Ir4 O14'
_cell_volume   270.50182055
_cell_formula_units_Z   1
loop_
 _symmetry_equiv_pos_site_id
 _symmetry_equiv_pos_as_xyz
  1  'x, y, z'
loop_
 _atom_site_type_symbol
 _atom_site_label
 _atom_site_symmetry_multiplicity
 _atom_site_fract_x
 _atom_site_fract_y
 _atom_site_fract_z
 _atom_site_occupancy
  Cd  Cd0  1  0.62500000  0.12500000  0.12500000  1
  Bi  Bi0  1  0.12500000  0.62500000  0.12500000  1
  Bi  Bi1  1  0.12500000  0.12500000  0.62500000  1
  Bi  Bi2  1  0.12500000  0.12500000  0.12500000  1
  Ir  Ir0  1  0.12500000  0.62500000  0.62500000  1
  Ir  Ir1  1  0.62500000  0.12500000  0.62500000  1
  Ir  Ir2  1  0.62500000  0.62500000  0.12500000  1
  Ir  Ir3  1  0.62500000  0.62500000  0.62500000  1
  O  O0  1  0.70807993  0.70376966  0.29407470  1
  O  O1  1  0.29004514  0.29320131  0.70837627  1
  O  O2  1  0.70807993  0.29407470  0.70376966  1
  O  O3  1  0.29004514  0.70837627  0.29320131  1
  O  O4  1  0.29004514  0.70837627  0.70837627  1
  O  O5  1  0.70807993  0.29407470  0.29407470  1
  O  O6  1  0.54192007  0.54623034  0.95592530  1
  O  O7  1  0.95995486  0.95679869  0.54162373  1
  O  O8  1  0.54192007  0.95592530  0.54623034  1
  O  O9  1  0.95995486  0.54162373  0.95679869  1
  O  O10  1  0.95995486  0.54162373  0.54162373  1
  O  O11  1  0.54192007  0.95592530  0.95592530  1
  O  O12  1  0.25250757  0.24916381  0.24916381  1
  O  O13  1  0.99749243  0.00083619  0.00083619  1
loop_
_geom_bond_atom_site_label_1
_geom_bond_atom_site_label_2
_geom_bond_distance
_geom_bond_site_symmetry_2
Cd0 O13 2.162669 1_555
Cd0 O12 2.162669 1_555
Cd0 O5 2.545875 1_555
Cd0 O11 2.545875 1_544
Cd0 O8 2.545881 1_545
Cd0 O2 2.545881 1_554
Cd0 O6 2.545881 1_554
Cd0 O0 2.545881 1_545
Bi0 O13 2.243041 1_465
Bi0 O12 2.243041 1_555
Bi0 O6 2.450634 1_554
Bi0 O0 2.450634 1_455
Bi0 O3 2.508184 1_555
Bi0 O9 2.508184 1_454
Bi0 O10 2.508190 1_455
Bi0 O4 2.508190 1_554
Bi1 O12 2.243040 1_555
Bi1 O13 2.243040 1_456
Bi1 O8 2.450634 1_545
Bi1 O2 2.450634 1_455
Bi1 O1 2.508184 1_555
Bi1 O7 2.508184 1_445
Bi1 O10 2.508190 1_455
Bi1 O4 2.508190 1_545
Bi2 O12 2.243035 1_555
Bi2 O13 2.243035 1_455
Bi2 O11 2.450633 1_544
Bi2 O5 2.450633 1_455
Bi2 O7 2.508189 1_445
Bi2 O1 2.508189 1_554
Bi2 O9 2.508189 1_454
Bi2 O3 2.508189 1_545
Ir0 O4 2.002318 1_555
Ir0 O10 2.002318 1_455
Ir0 O9 2.002323 1_455
Ir0 O3 2.002323 1_555
Ir0 O7 2.002324 1_455
Ir0 O1 2.002324 1_555
Ir1 O7 1.977624 1_545
Ir1 O1 1.977624 1_555
Ir1 O2 2.013048 1_555
Ir1 O8 2.013048 1_545
Ir1 O11 2.013053 1_545
Ir1 O5 2.013053 1_555
Ir2 O9 1.977624 1_554
Ir2 O3 1.977624 1_555
Ir2 O0 2.013048 1_555
Ir2 O6 2.013048 1_554
Ir2 O11 2.013054 1_554
Ir2 O5 2.013054 1_555
Ir3 O10 1.977625 1_555
Ir3 O4 1.977625 1_555
Ir3 O6 2.013055 1_555
Ir3 O0 2.013055 1_555
Ir3 O8 2.013055 1_555
Ir3 O2 2.013055 1_555
