# generated using pymatgen
data_K5Ag(ClO)2
_symmetry_space_group_name_H-M   'P 1'
_cell_length_a   5.25541665
_cell_length_b   7.05201764
_cell_length_c   13.65610379
_cell_angle_alpha   90.00000000
_cell_angle_beta   90.00000000
_cell_angle_gamma   90.00000000
_symmetry_Int_Tables_number   1
_chemical_formula_structural   K5Ag(ClO)2
_chemical_formula_sum   'K10 Ag2 Cl4 O4'
_cell_volume   506.11283574
_cell_formula_units_Z   2
loop_
 _symmetry_equiv_pos_site_id
 _symmetry_equiv_pos_as_xyz
  1  'x, y, z'
loop_
 _atom_site_type_symbol
 _atom_site_label
 _atom_site_symmetry_multiplicity
 _atom_site_fract_x
 _atom_site_fract_y
 _atom_site_fract_z
 _atom_site_occupancy
  K  K0  1  0.50000000  0.30743200  0.60990743  1
  K  K1  1  0.50000000  0.19256800  0.10990743  1
  K  K2  1  0.00000000  0.61204003  0.73234280  1
  K  K3  1  0.00000000  0.50000000  0.00000000  1
  K  K4  1  0.50000000  0.69256800  0.39009257  1
  K  K5  1  0.50000000  0.80743200  0.89009257  1
  K  K6  1  0.00000000  0.88795997  0.23234280  1
  K  K7  1  0.00000000  0.38795997  0.26765720  1
  K  K8  1  0.00000000  0.11204003  0.76765720  1
  K  K9  1  0.00000000  0.00000000  0.50000000  1
  Ag  Ag0  1  0.00000000  0.50000000  0.50000000  1
  Ag  Ag1  1  0.00000000  0.00000000  0.00000000  1
  Cl  Cl0  1  0.50000000  0.63789073  0.15092234  1
  Cl  Cl1  1  0.50000000  0.36210927  0.84907766  1
  Cl  Cl2  1  0.50000000  0.13789073  0.34907766  1
  Cl  Cl3  1  0.50000000  0.86210927  0.65092234  1
  O  O0  1  0.00000000  0.68666281  0.38786288  1
  O  O1  1  0.00000000  0.81333719  0.88786288  1
  O  O2  1  0.00000000  0.18666281  0.11213712  1
  O  O3  1  0.00000000  0.31333719  0.61213712  1
loop_
_geom_bond_atom_site_label_1
_geom_bond_atom_site_label_2
_geom_bond_distance
_geom_bond_site_symmetry_2
K0 O3 2.628215 1_655
K0 O3 2.628215 1_555
K1 O2 2.628215 1_655
K1 O2 2.628215 1_555
K2 O1 2.554534 1_555
K2 O3 2.670547 1_555
K3 O2 2.688428 1_555
K3 O1 2.688428 1_554
K4 O0 2.628215 1_555
K4 O0 2.628215 1_655
K5 O1 2.628215 1_655
K5 O1 2.628215 1_555
K6 O0 2.554534 1_555
K6 O2 2.670547 1_565
K7 O2 2.554534 1_555
K7 O0 2.670547 1_555
K8 O3 2.554534 1_555
K8 O1 2.670547 1_545
K9 O3 2.688428 1_555
K9 O0 2.688428 1_545
Ag0 O3 2.019363 1_555
Ag0 O0 2.019363 1_555
Ag1 O2 2.019363 1_555
Ag1 O1 2.019363 1_544
Cl0 K1 3.189981 1_555
Cl0 K4 3.288815 1_555
Cl0 K6 3.354258 1_555
Cl0 K6 3.354258 1_655
Cl0 K3 3.478246 1_655
Cl0 K3 3.478246 1_555
Cl0 K7 3.542966 1_555
Cl0 K7 3.542966 1_655
Cl0 K5 3.757225 1_554
Cl1 K5 3.189981 1_555
Cl1 K0 3.288815 1_555
Cl1 K8 3.354258 1_555
Cl1 K8 3.354258 1_655
Cl1 K3 3.478246 1_556
Cl1 K3 3.478246 1_656
Cl1 K2 3.542966 1_555
Cl1 K2 3.542966 1_655
Cl1 K1 3.757225 1_556
Cl2 K4 3.189981 1_545
Cl2 K1 3.288815 1_555
Cl2 K7 3.354258 1_655
Cl2 K7 3.354258 1_555
Cl2 K9 3.478246 1_655
Cl2 K9 3.478246 1_555
Cl2 K6 3.542966 1_545
Cl2 K6 3.542966 1_645
Cl2 K0 3.757225 1_555
Cl3 K0 3.189981 1_565
Cl3 K5 3.288815 1_555
Cl3 K2 3.354258 1_555
Cl3 K2 3.354258 1_655
Cl3 K9 3.478246 1_565
Cl3 K9 3.478246 1_665
Cl3 K8 3.542966 1_565
Cl3 K8 3.542966 1_665
Cl3 K4 3.757225 1_555
