# generated using pymatgen
data_CsKReH9
_symmetry_space_group_name_H-M   'P 1'
_cell_length_a   9.79352861
_cell_length_b   9.79352843
_cell_length_c   5.94226323
_cell_angle_alpha   90.00000000
_cell_angle_beta   90.00000000
_cell_angle_gamma   120.00000697
_symmetry_Int_Tables_number   1
_chemical_formula_structural   CsKReH9
_chemical_formula_sum   'Cs3 K3 Re3 H27'
_cell_volume   493.58377147
_cell_formula_units_Z   3
loop_
 _symmetry_equiv_pos_site_id
 _symmetry_equiv_pos_as_xyz
  1  'x, y, z'
loop_
 _atom_site_type_symbol
 _atom_site_label
 _atom_site_symmetry_multiplicity
 _atom_site_fract_x
 _atom_site_fract_y
 _atom_site_fract_z
 _atom_site_occupancy
  Cs  Cs0  1  0.00000000  0.58545053  0.00000000  1
  Cs  Cs1  1  0.41454947  0.41454947  0.00000000  1
  Cs  Cs2  1  0.58545053  0.00000000  0.00000000  1
  K  K0  1  0.00000000  0.26015303  0.50000000  1
  K  K1  1  0.73984697  0.73984697  0.50000000  1
  K  K2  1  0.26015303  0.00000000  0.50000000  1
  Re  Re0  1  0.66666700  0.33333300  0.50000000  1
  Re  Re1  1  0.33333300  0.66666700  0.50000000  1
  Re  Re2  1  0.00000000  0.00000000  0.00000000  1
  H  H0  1  0.77291920  0.30625535  0.70372075  1
  H  H1  1  0.69374465  0.46666285  0.70372075  1
  H  H2  1  0.53333715  0.22708080  0.70372075  1
  H  H3  1  0.22708080  0.53333715  0.29627925  1
  H  H4  1  0.53333715  0.22708080  0.29627925  1
  H  H5  1  0.77291920  0.30625535  0.29627925  1
  H  H6  1  0.69374465  0.46666285  0.29627925  1
  H  H7  1  0.30625535  0.77291920  0.70372075  1
  H  H8  1  0.46666285  0.69374465  0.70372075  1
  H  H9  1  0.17128094  1.00000000  0.00000000  1
  H  H10  1  0.82871906  0.82871906  0.00000000  1
  H  H11  1  1.00000000  0.17128094  0.00000000  1
  H  H12  1  0.87729277  0.00000000  0.20287567  1
  H  H13  1  0.12270723  0.12270723  0.79712433  1
  H  H14  1  0.00000000  0.87729277  0.79712433  1
  H  H15  1  0.00000000  0.87729277  0.20287567  1
  H  H16  1  0.12270723  0.12270723  0.20287567  1
  H  H17  1  0.87729277  0.00000000  0.79712433  1
  H  H18  1  0.14700182  0.62947130  0.50000000  1
  H  H19  1  0.48246948  0.85299818  0.50000000  1
  H  H20  1  0.37052870  0.51753052  0.50000000  1
  H  H21  1  0.51753052  0.37052870  0.50000000  1
  H  H22  1  0.85299818  0.48246948  0.50000000  1
  H  H23  1  0.62947130  0.14700182  0.50000000  1
  H  H24  1  0.22708080  0.53333715  0.70372075  1
  H  H25  1  0.30625535  0.77291920  0.29627925  1
  H  H26  1  0.46666285  0.69374465  0.29627925  1
loop_
_geom_bond_atom_site_label_1
_geom_bond_atom_site_label_2
_geom_bond_distance
_geom_bond_site_symmetry_2
Cs0 H3 3.072613 1_555
Cs0 H24 3.072613 1_554
Cs0 H5 3.072618 1_455
Cs0 H0 3.072618 1_454
Cs0 H15 3.102005 1_555
Cs0 H14 3.102005 1_554
Cs0 H6 3.155891 1_455
Cs0 H1 3.155891 1_454
Cs0 H25 3.155892 1_555
Cs0 H7 3.155892 1_554
Cs0 H22 3.235036 1_455
Cs0 H22 3.235036 1_454
Cs0 H18 3.235036 1_554
Cs0 H18 3.235036 1_555
Cs1 H26 3.072620 1_555
Cs1 H8 3.072620 1_554
Cs1 H6 3.072620 1_555
Cs1 H1 3.072620 1_554
Cs1 H16 3.102005 1_555
Cs1 H13 3.102005 1_554
Cs1 H4 3.155899 1_555
Cs1 H2 3.155899 1_554
Cs1 H3 3.155899 1_555
Cs1 H24 3.155899 1_554
Cs1 H20 3.235036 1_554
Cs1 H20 3.235036 1_555
Cs1 H21 3.235036 1_554
Cs1 H21 3.235036 1_555
Cs2 H4 3.072613 1_555
Cs2 H2 3.072613 1_554
Cs2 H25 3.072618 1_545
Cs2 H7 3.072618 1_544
Cs2 H12 3.102005 1_555
Cs2 H17 3.102005 1_554
Cs2 H26 3.155891 1_545
Cs2 H8 3.155891 1_544
Cs2 H5 3.155892 1_555
Cs2 H0 3.155892 1_554
Cs2 H19 3.235036 1_544
Cs2 H19 3.235036 1_545
Cs2 H23 3.235036 1_555
Cs2 H23 3.235036 1_554
H0 Re0 1.701337 1_555
H0 K0 2.760300 1_655
H1 Re0 1.701337 1_555
H1 K1 2.760309 1_555
H2 Re0 1.701337 1_555
H2 K2 2.760306 1_555
H3 Re1 1.701337 1_555
H3 K0 2.760306 1_555
H4 Re0 1.701337 1_555
H4 K2 2.760306 1_555
H5 Re0 1.701337 1_555
H5 K0 2.760300 1_655
H6 Re0 1.701337 1_555
H6 K1 2.760309 1_555
H7 Re1 1.701337 1_555
H7 K2 2.760300 1_565
H8 Re1 1.701337 1_555
H8 K1 2.760309 1_555
H9 Re2 1.677445 1_565
H10 Re2 1.677445 1_665
H11 Re2 1.677445 1_655
H12 Re2 1.702204 1_655
H12 K1 2.826844 1_545
H12 K0 2.826844 1_655
H13 Re2 1.702204 1_556
H13 K0 2.826844 1_555
H13 K2 2.826844 1_555
H14 Re2 1.702204 1_566
H14 K1 2.826844 1_455
H14 K2 2.826844 1_565
H15 Re2 1.702204 1_565
H15 K1 2.826844 1_455
H15 K2 2.826844 1_565
H16 Re2 1.702204 1_555
H16 K0 2.826844 1_555
H16 K2 2.826844 1_555
H17 Re2 1.702204 1_656
H17 K1 2.826844 1_545
H17 K0 2.826844 1_655
H18 Re1 1.672719 1_555
H19 Re1 1.672723 1_555
H20 Re1 1.672729 1_555
H21 Re0 1.672729 1_555
H22 Re0 1.672723 1_555
H23 Re0 1.672719 1_555
H24 Re1 1.701337 1_555
H24 K0 2.760306 1_555
H25 Re1 1.701337 1_555
H25 K2 2.760300 1_565
H26 Re1 1.701337 1_555
H26 K1 2.760309 1_555
