# generated using pymatgen
data_HfScAgS4
_symmetry_space_group_name_H-M   'P 1'
_cell_length_a   7.56277354
_cell_length_b   7.56277364
_cell_length_c   7.56277456
_cell_angle_alpha   119.72888481
_cell_angle_beta   120.32630865
_cell_angle_gamma   89.95299433
_symmetry_Int_Tables_number   1
_chemical_formula_structural   HfScAgS4
_chemical_formula_sum   'Hf2 Sc2 Ag2 S8'
_cell_volume   305.72588094
_cell_formula_units_Z   2
loop_
 _symmetry_equiv_pos_site_id
 _symmetry_equiv_pos_as_xyz
  1  'x, y, z'
loop_
 _atom_site_type_symbol
 _atom_site_label
 _atom_site_symmetry_multiplicity
 _atom_site_fract_x
 _atom_site_fract_y
 _atom_site_fract_z
 _atom_site_occupancy
  Hf  Hf0  1  0.00000000  0.00000000  0.00000000  1
  Hf  Hf1  1  0.50000000  0.00000000  0.50000000  1
  Sc  Sc0  1  0.00000000  0.00000000  0.50000000  1
  Sc  Sc1  1  0.00000000  0.50000000  0.00000000  1
  Ag  Ag0  1  0.37845197  0.62845197  0.75000000  1
  Ag  Ag1  1  0.62154803  0.37154803  0.25000000  1
  S  S0  1  0.24391869  0.76575021  0.02183151  1
  S  S1  1  0.75608131  0.77791382  0.52183151  1
  S  S2  1  0.21764612  0.23603104  0.98161507  1
  S  S3  1  0.75441597  0.23603104  0.51838493  1
  S  S4  1  0.78235388  0.76396896  0.01838493  1
  S  S5  1  0.24558403  0.76396896  0.48161507  1
  S  S6  1  0.75608131  0.23424979  0.97816849  1
  S  S7  1  0.24391869  0.22208618  0.47816849  1
loop_
_geom_bond_atom_site_label_1
_geom_bond_atom_site_label_2
_geom_bond_distance
_geom_bond_site_symmetry_2
Hf0 S4 2.529263 1_445
Hf0 S2 2.529263 1_554
Hf0 S0 2.558484 1_545
Hf0 S6 2.558484 1_454
Hf0 S7 2.558484 1_555
Hf0 S1 2.558484 1_444
Hf1 S3 2.529263 1_555
Hf1 S5 2.529263 1_545
Hf1 S1 2.558479 1_545
Hf1 S7 2.558479 1_555
Hf1 S6 2.558484 1_555
Hf1 S0 2.558484 1_545
Ag0 S4 2.486312 1_556
Ag0 S5 2.486313 1_555
Ag0 S0 2.516563 1_556
Ag0 S7 2.516568 1_555
Ag1 S2 2.486312 1_554
Ag1 S3 2.486313 1_555
Ag1 S6 2.516563 1_554
Ag1 S1 2.516568 1_555
S0 Sc1 2.615132 1_555
S1 Sc0 2.615127 1_665
S2 Sc1 2.581563 1_556
S2 Sc0 2.581563 1_555
S3 Sc1 2.581563 1_656
S3 Sc0 2.581563 1_655
S4 Sc1 2.581563 1_655
S4 Sc0 2.581563 1_665
S5 Sc1 2.581563 1_555
S5 Sc0 2.581563 1_565
S6 Sc1 2.615132 1_656
S7 Sc0 2.615127 1_555
