# generated using pymatgen
data_RbTiCuP2
_symmetry_space_group_name_H-M   'P 1'
_cell_length_a   7.63309842
_cell_length_b   7.63309839
_cell_length_c   7.63309818
_cell_angle_alpha   149.75354201
_cell_angle_beta   149.75354015
_cell_angle_gamma   43.30330088
_symmetry_Int_Tables_number   1
_chemical_formula_structural   RbTiCuP2
_chemical_formula_sum   'Rb1 Ti1 Cu1 P2'
_cell_volume   112.54351678
_cell_formula_units_Z   1
loop_
 _symmetry_equiv_pos_site_id
 _symmetry_equiv_pos_as_xyz
  1  'x, y, z'
loop_
 _atom_site_type_symbol
 _atom_site_label
 _atom_site_symmetry_multiplicity
 _atom_site_fract_x
 _atom_site_fract_y
 _atom_site_fract_z
 _atom_site_occupancy
  Rb  Rb0  1  0.00000000  0.00000000  0.00000000  1
  Ti  Ti0  1  0.75000000  0.25000000  0.50000000  1
  Cu  Cu0  1  0.25000000  0.75000000  0.50000000  1
  P  P0  1  0.34249957  0.34249957  0.00000000  1
  P  P1  1  0.65750043  0.65750043  1.00000000  1
loop_
_geom_bond_atom_site_label_1
_geom_bond_atom_site_label_2
_geom_bond_distance
_geom_bond_site_symmetry_2
Cu0 P0 2.385050 1_555
Cu0 P0 2.385050 1_566
Cu0 P1 2.385050 1_555
Cu0 P1 2.385050 1_454
P0 Ti0 2.385050 1_555
P0 Ti0 2.385050 1_454
P0 Rb0 3.595270 1_554
P0 Rb0 3.595270 1_666
P0 Rb0 3.595270 1_565
P0 Rb0 3.595270 1_655
P1 Ti0 2.385050 1_555
P1 Ti0 2.385050 1_566
P1 Rb0 3.595270 1_667
P1 Rb0 3.595270 1_555
P1 Rb0 3.595270 1_656
P1 Rb0 3.595270 1_566
