# generated using pymatgen
data_Cs2InP2S7
_symmetry_space_group_name_H-M   'P 1'
_cell_length_a   9.64024738
_cell_length_b   9.64024817
_cell_length_c   9.03672526
_cell_angle_alpha   72.29973539
_cell_angle_beta   72.29973570
_cell_angle_gamma   68.81269500
_symmetry_Int_Tables_number   1
_chemical_formula_structural   Cs2InP2S7
_chemical_formula_sum   'Cs4 In2 P4 S14'
_cell_volume   727.94612952
_cell_formula_units_Z   2
loop_
 _symmetry_equiv_pos_site_id
 _symmetry_equiv_pos_as_xyz
  1  'x, y, z'
loop_
 _atom_site_type_symbol
 _atom_site_label
 _atom_site_symmetry_multiplicity
 _atom_site_fract_x
 _atom_site_fract_y
 _atom_site_fract_z
 _atom_site_occupancy
  Cs  Cs0  1  0.61454088  0.04764631  0.16760335  1
  Cs  Cs1  1  0.95235369  0.38545912  0.83239665  1
  Cs  Cs2  1  0.38545912  0.95235369  0.83239665  1
  Cs  Cs3  1  0.04764631  0.61454088  0.16760335  1
  In  In0  1  0.69066421  0.30933579  0.50000000  1
  In  In1  1  0.30933579  0.69066421  0.50000000  1
  P  P0  1  0.94696095  0.94696095  0.44316146  1
  P  P1  1  0.05303905  0.05303905  0.55683854  1
  P  P2  1  0.39333777  0.39333777  0.80536775  1
  P  P3  1  0.60666223  0.60666223  0.19463225  1
  S  S0  1  0.68806228  0.37544470  0.20552795  1
  S  S1  1  0.62455530  0.31193772  0.79447205  1
  S  S2  1  0.31193772  0.62455530  0.79447205  1
  S  S3  1  0.37544470  0.68806228  0.20552795  1
  S  S4  1  0.00201540  0.00201540  0.20880892  1
  S  S5  1  0.99798460  0.99798460  0.79119108  1
  S  S6  1  0.71863504  0.02266174  0.53993083  1
  S  S7  1  0.97733826  0.28136496  0.46006917  1
  S  S8  1  0.28136496  0.97733826  0.46006917  1
  S  S9  1  0.02266174  0.71863504  0.53993083  1
  S  S10  1  0.28156022  0.28156022  0.00009785  1
  S  S11  1  0.71843978  0.71843978  0.99990215  1
  S  S12  1  0.37105238  0.37105238  0.59138417  1
  S  S13  1  0.62894762  0.62894762  0.40861583  1
loop_
_geom_bond_atom_site_label_1
_geom_bond_atom_site_label_2
_geom_bond_distance
_geom_bond_site_symmetry_2
Cs0 S1 3.553346 1_554
Cs0 S0 3.609844 1_555
Cs0 S11 3.616029 1_544
Cs0 S8 3.617080 1_545
Cs0 S10 3.650648 1_555
Cs0 S6 3.710968 1_555
Cs0 S4 3.720678 1_655
Cs0 S13 3.935495 1_545
Cs1 S0 3.553346 1_556
Cs1 S1 3.609844 1_555
Cs1 S10 3.616029 1_656
Cs1 S9 3.617080 1_655
Cs1 S11 3.650648 1_555
Cs1 S7 3.710969 1_555
Cs1 S5 3.720678 1_545
Cs1 S12 3.935494 1_655
Cs2 S3 3.553346 1_556
Cs2 S2 3.609844 1_555
Cs2 S10 3.616029 1_566
Cs2 S6 3.617080 1_565
Cs2 S11 3.650648 1_555
Cs2 S8 3.710968 1_555
Cs2 S5 3.720678 1_455
Cs2 S12 3.935495 1_565
Cs3 S2 3.553346 1_554
Cs3 S3 3.609844 1_555
Cs3 S11 3.616029 1_454
Cs3 S7 3.617080 1_455
Cs3 S10 3.650648 1_555
Cs3 S9 3.710969 1_555
Cs3 S4 3.720678 1_565
Cs3 S13 3.935494 1_455
In0 S0 2.546730 1_555
In0 S1 2.546730 1_555
In0 S7 2.598956 1_555
In0 S6 2.598956 1_555
In0 S12 2.820608 1_555
In0 S13 2.820608 1_555
In1 S2 2.546730 1_555
In1 S3 2.546730 1_555
In1 S9 2.598956 1_555
In1 S8 2.598956 1_555
In1 S13 2.820608 1_555
In1 S12 2.820608 1_555
P0 S4 1.971048 1_665
P0 S6 2.049076 1_565
P0 S9 2.049077 1_655
P0 P1 2.276018 1_665
P1 S5 1.971048 1_445
P1 S8 2.049076 1_545
P1 S7 2.049077 1_455
P2 S10 1.988000 1_556
P2 S1 2.059875 1_555
P2 S2 2.059875 1_555
P2 S12 2.090487 1_555
P3 S11 1.988000 1_554
P3 S3 2.059875 1_555
P3 S0 2.059875 1_555
P3 S13 2.090487 1_555
