# generated using pymatgen
data_In6PtCl10
_symmetry_space_group_name_H-M   'P 1'
_cell_length_a   7.36274731
_cell_length_b   8.81642063
_cell_length_c   8.26617365
_cell_angle_alpha   96.85068362
_cell_angle_beta   101.37893111
_cell_angle_gamma   107.08577705
_symmetry_Int_Tables_number   1
_chemical_formula_structural   In6PtCl10
_chemical_formula_sum   'In6 Pt1 Cl10'
_cell_volume   493.74266816
_cell_formula_units_Z   1
loop_
 _symmetry_equiv_pos_site_id
 _symmetry_equiv_pos_as_xyz
  1  'x, y, z'
loop_
 _atom_site_type_symbol
 _atom_site_label
 _atom_site_symmetry_multiplicity
 _atom_site_fract_x
 _atom_site_fract_y
 _atom_site_fract_z
 _atom_site_occupancy
  In  In0  1  0.88235948  0.00815398  0.27638522  1
  In  In1  1  0.11764052  0.99184602  0.72361478  1
  In  In2  1  0.37576913  0.11323408  0.15117839  1
  In  In3  1  0.62423087  0.88676592  0.84882161  1
  In  In4  1  0.05404321  0.30986281  0.03138869  1
  In  In5  1  0.94595679  0.69013719  0.96861131  1
  Pt  Pt0  1  0.00000000  0.00000000  0.00000000  1
  Cl  Cl0  1  0.40258427  0.42534865  0.21164024  1
  Cl  Cl1  1  0.59741573  0.57465135  0.78835976  1
  Cl  Cl2  1  0.94332649  0.51599648  0.19204420  1
  Cl  Cl3  1  0.05667351  0.48400352  0.80795580  1
  Cl  Cl4  1  0.45699980  0.82041959  0.09134550  1
  Cl  Cl5  1  0.54300020  0.17958041  0.90865450  1
  Cl  Cl6  1  0.17965290  0.18763934  0.53084344  1
  Cl  Cl7  1  0.82034710  0.81236066  0.46915656  1
  Cl  Cl8  1  0.68127217  0.17666276  0.38256314  1
  Cl  Cl9  1  0.31872783  0.82333724  0.61743686  1
loop_
_geom_bond_atom_site_label_1
_geom_bond_atom_site_label_2
_geom_bond_distance
_geom_bond_site_symmetry_2
In0 Pt0 2.598705 1_655
In1 Pt0 2.598705 1_566
In2 Pt0 2.632108 1_555
In3 Pt0 2.632108 1_666
In4 Pt0 2.615385 1_555
In5 Pt0 2.615385 1_666
Cl0 In4 2.536966 1_555
Cl0 In2 2.678533 1_555
Cl1 In5 2.536966 1_555
Cl1 In3 2.678533 1_555
Cl2 In5 2.538070 1_554
Cl2 In4 2.540246 1_655
Cl3 In4 2.538070 1_556
Cl3 In5 2.540246 1_455
Cl4 In3 2.589935 1_554
Cl4 In2 2.825992 1_565
Cl4 In0 3.057326 1_565
Cl5 In2 2.589935 1_556
Cl5 In3 2.825992 1_545
Cl5 In1 3.057326 1_545
Cl6 In1 2.491502 1_545
Cl6 In0 2.659598 1_455
Cl7 In0 2.491502 1_565
Cl7 In1 2.659598 1_655
Cl8 In2 2.517662 1_555
Cl8 In0 2.581412 1_555
Cl9 In3 2.517662 1_555
Cl9 In1 2.581412 1_555
