# generated using pymatgen
data_Ba2Sb2Se3O2
_symmetry_space_group_name_H-M   'P 1'
_cell_length_a   4.15210574
_cell_length_b   10.08090849
_cell_length_c   11.61514656
_cell_angle_alpha   99.82995026
_cell_angle_beta   90.00000000
_cell_angle_gamma   90.00000000
_symmetry_Int_Tables_number   1
_chemical_formula_structural   Ba2Sb2Se3O2
_chemical_formula_sum   'Ba4 Sb4 Se6 O4'
_cell_volume   479.03752598
_cell_formula_units_Z   2
loop_
 _symmetry_equiv_pos_site_id
 _symmetry_equiv_pos_as_xyz
  1  'x, y, z'
loop_
 _atom_site_type_symbol
 _atom_site_label
 _atom_site_symmetry_multiplicity
 _atom_site_fract_x
 _atom_site_fract_y
 _atom_site_fract_z
 _atom_site_occupancy
  Ba  Ba0  1  0.49958638  0.70447760  0.59175955  1
  Ba  Ba1  1  0.99958638  0.79552240  0.90824045  1
  Ba  Ba2  1  0.50041362  0.29552240  0.40824045  1
  Ba  Ba3  1  0.00041362  0.20447760  0.09175955  1
  Sb  Sb0  1  0.49916272  0.45917714  0.81323609  1
  Sb  Sb1  1  0.99916272  0.04082286  0.68676391  1
  Sb  Sb2  1  0.50083728  0.54082286  0.18676391  1
  Sb  Sb3  1  0.00083728  0.95917714  0.31323609  1
  Se  Se0  1  0.50000000  0.00000000  0.50000000  1
  Se  Se1  1  0.00000000  0.50000000  0.00000000  1
  Se  Se2  1  0.49973719  0.06838442  0.85686465  1
  Se  Se3  1  0.99973719  0.43161558  0.64313535  1
  Se  Se4  1  0.50026281  0.93161558  0.14313535  1
  Se  Se5  1  0.00026281  0.56838442  0.35686465  1
  O  O0  1  0.50053359  0.34661995  0.18432756  1
  O  O1  1  0.00053359  0.15338005  0.31567244  1
  O  O2  1  0.49946641  0.65338005  0.81567244  1
  O  O3  1  0.99946641  0.84661995  0.68432756  1
loop_
_geom_bond_atom_site_label_1
_geom_bond_atom_site_label_2
_geom_bond_distance
_geom_bond_site_symmetry_2
Ba0 O3 2.644083 1_555
Ba0 O3 2.644865 1_455
Ba0 O2 2.736208 1_555
Ba0 Se0 3.330966 1_565
Ba0 Se5 3.513732 1_555
Ba0 Se5 3.517049 1_655
Ba0 Se3 3.576352 1_455
Ba0 Se3 3.577079 1_555
Ba1 O2 2.644083 1_655
Ba1 O2 2.644865 1_555
Ba1 O3 2.736208 1_555
Ba1 Se1 3.330966 1_656
Ba1 Se4 3.513732 1_556
Ba1 Se4 3.517049 1_656
Ba1 Se2 3.576352 1_565
Ba1 Se2 3.577079 1_665
Ba2 O1 2.644083 1_555
Ba2 O1 2.644865 1_655
Ba2 O0 2.736208 1_555
Ba2 Se0 3.330966 1_555
Ba2 Se3 3.513732 1_555
Ba2 Se3 3.517049 1_455
Ba2 Se5 3.576352 1_655
Ba2 Se5 3.577079 1_555
Ba3 O0 2.644083 1_455
Ba3 O0 2.644865 1_555
Ba3 O1 2.736208 1_555
Ba3 Se1 3.330966 1_555
Ba3 Se2 3.513732 1_554
Ba3 Se2 3.517049 1_454
Ba3 Se4 3.576352 1_545
Ba3 Se4 3.577079 1_445
Sb0 Se3 2.844895 1_455
Sb0 Se3 2.848374 1_555
Sb0 Se1 2.977571 1_556
Sb0 Se1 2.982415 1_656
Sb1 Se2 2.844895 1_555
Sb1 Se2 2.848374 1_655
Sb1 Se0 2.977571 1_555
Sb1 Se0 2.982415 1_655
Sb2 Se5 2.844895 1_655
Sb2 Se5 2.848374 1_555
Sb2 Se1 2.977571 1_655
Sb2 Se1 2.982415 1_555
Sb3 Se4 2.844895 1_555
Sb3 Se4 2.848374 1_455
Sb3 Se0 2.977571 1_565
Sb3 Se0 2.982415 1_465
O0 Sb2 1.953110 1_555
O1 Sb3 1.953110 1_545
O2 Sb0 1.953110 1_555
O3 Sb1 1.953110 1_565
