# generated using pymatgen
data_Zn22AgIr2Pt
_symmetry_space_group_name_H-M   'P 1'
_cell_length_a   7.85202667
_cell_length_b   7.82195220
_cell_length_c   7.84738511
_cell_angle_alpha   109.37837453
_cell_angle_beta   109.53358889
_cell_angle_gamma   109.44803687
_symmetry_Int_Tables_number   1
_chemical_formula_structural   Zn22AgIr2Pt
_chemical_formula_sum   'Zn22 Ag1 Ir2 Pt1'
_cell_volume   371.26728372
_cell_formula_units_Z   1
loop_
 _symmetry_equiv_pos_site_id
 _symmetry_equiv_pos_as_xyz
  1  'x, y, z'
loop_
 _atom_site_type_symbol
 _atom_site_label
 _atom_site_symmetry_multiplicity
 _atom_site_fract_x
 _atom_site_fract_y
 _atom_site_fract_z
 _atom_site_occupancy
  Zn  Zn0  1  0.71576912  0.36881785  0.71373483  1
  Zn  Zn1  1  0.62027518  0.35665956  0.34844352  1
  Zn  Zn2  1  0.34910754  0.35432491  0.61700913  1
  Zn  Zn3  1  0.64877781  0.27529980  0.00000000  1
  Zn  Zn4  1  0.21781703  0.21411016  0.21961267  1
  Zn  Zn5  1  0.99820535  0.99449749  0.78038733  1
  Zn  Zn6  1  0.78439070  0.99287394  0.00000000  1
  Zn  Zn7  1  0.99617535  0.78229991  1.00000000  1
  Zn  Zn8  1  0.35579143  0.35629266  0.00000000  1
  Zn  Zn9  1  0.99960838  0.63286072  0.65247071  1
  Zn  Zn10  1  0.99270545  0.35275233  0.35278288  1
  Zn  Zn11  1  0.34713767  0.98039001  0.34752929  1
  Zn  Zn12  1  0.63992257  0.99996946  0.64721712  1
  Zn  Zn13  1  0.64703274  0.63557854  0.00000000  1
  Zn  Zn14  1  0.35487300  0.62396025  0.35199254  1
  Zn  Zn15  1  0.27182965  0.00821703  0.65155648  1
  Zn  Zn16  1  0.65390528  0.00687429  0.27444331  1
  Zn  Zn17  1  0.28555237  0.65331663  1.00000000  1
  Zn  Zn18  1  0.73209940  0.73731678  0.38299087  1
  Zn  Zn19  1  0.37946097  0.73242999  0.72555669  1
  Zn  Zn20  1  0.00203528  0.65508402  0.28626517  1
  Zn  Zn21  1  0.00288146  0.27196571  0.64800746  1
  Ag  Ag0  1  0.00076956  0.35417519  1.00000000  1
  Ir  Ir0  1  0.00147397  0.00232125  0.34654140  1
  Ir  Ir1  1  0.65493156  0.65577984  0.65345860  1
  Pt  Pt0  1  0.34747316  0.00183069  1.00000000  1
loop_
_geom_bond_atom_site_label_1
_geom_bond_atom_site_label_2
_geom_bond_distance
_geom_bond_site_symmetry_2
Zn0 Zn12 2.568965 1_545
Zn0 Zn1 2.668859 1_555
Zn0 Zn2 2.672462 1_555
Zn0 Zn3 2.735451 1_556
Zn0 Zn7 2.735612 1_555
Zn0 Zn21 2.752799 1_655
Zn0 Zn9 2.788217 1_555
Zn0 Zn13 2.853371 1_556
Zn0 Zn11 2.941928 1_545
Zn1 Zn9 2.602621 1_555
Zn1 Zn4 2.649678 1_555
Zn1 Zn3 2.698364 1_555
Zn1 Zn8 2.825434 1_555
Zn1 Zn10 2.923598 1_555
Zn1 Zn11 3.005717 1_545
Zn2 Zn4 2.611196 1_555
Zn2 Zn8 2.983147 1_556
Zn3 Zn8 2.581537 1_555
Zn3 Zn6 2.753277 1_545
Zn4 Zn8 2.664351 1_555
Zn4 Zn7 2.761202 1_444
Zn4 Zn6 2.779205 1_445
Zn4 Zn5 2.815732 1_444
Zn5 Zn8 2.664347 1_666
Zn5 Zn9 2.674541 1_555
Zn5 Zn7 2.761202 1_555
Zn5 Zn6 2.779212 1_556
Zn6 Zn7 2.702264 1_554
Zn7 Zn9 2.599871 1_555
Zn10 Zn20 2.568971 1_655
Zn10 Zn21 2.579597 1_655
Zn10 Zn9 2.598170 1_555
Zn10 Zn6 2.645350 1_545
Zn10 Zn4 2.674344 1_655
Zn10 Zn16 2.790049 1_555
Zn10 Zn3 2.849932 1_555
Zn10 Zn2 2.865452 1_655
Zn10 Zn14 2.930962 1_655
Zn10 Zn19 2.981273 1_655
Zn11 Zn12 2.598170 1_555
Zn11 Zn7 2.599871 1_454
Zn11 Zn15 2.602629 1_565
Zn11 Zn16 2.616165 1_565
Zn11 Zn4 2.674544 1_565
Zn11 Zn20 2.788208 1_555
Zn11 Zn17 2.807275 1_554
Zn11 Zn14 2.820260 1_555
Zn11 Zn2 2.978363 1_565
Zn12 Zn14 2.579590 1_555
Zn12 Zn6 2.645349 1_556
Zn12 Zn5 2.674351 1_555
Zn12 Zn19 2.790058 1_555
Zn12 Zn3 2.849932 1_566
Zn12 Zn18 2.865454 1_555
Zn12 Zn15 2.923617 1_565
Zn12 Zn21 2.930961 1_665
Zn12 Zn16 2.981279 1_565
Zn13 Zn8 2.583649 1_555
Zn13 Zn7 2.595707 1_554
Zn13 Zn18 2.613186 1_555
Zn13 Zn2 2.613189 1_554
Zn13 Zn6 2.639444 1_555
Zn13 Zn3 2.822675 1_555
Zn13 Zn20 2.853372 1_655
Zn13 Zn17 2.887515 1_554
Zn13 Zn19 2.956865 1_554
Zn13 Zn16 2.956867 1_565
Zn14 Zn4 2.694371 1_555
Zn14 Zn17 2.734517 1_554
Zn14 Zn20 2.752780 1_555
Zn14 Zn8 2.863390 1_555
Zn15 Zn5 2.649656 1_445
Zn15 Zn20 2.668857 1_545
Zn15 Zn3 2.698371 1_556
Zn15 Zn8 2.825423 1_556
Zn15 Zn9 3.005717 1_445
Zn16 Zn6 2.663419 1_545
Zn16 Zn17 2.684675 1_544
Zn17 Zn8 2.560309 1_556
Zn17 Zn19 2.684668 1_555
Zn17 Zn21 2.734524 1_555
Zn17 Zn7 2.776200 1_455
Zn17 Zn9 2.807275 1_455
Zn18 Zn5 2.611195 1_555
Zn18 Zn20 2.672462 1_655
Zn18 Zn9 2.978365 1_555
Zn18 Zn8 2.983152 1_555
Zn19 Zn9 2.616158 1_455
Zn19 Zn6 2.663425 1_556
Zn20 Zn3 2.735458 1_455
Zn20 Zn7 2.735606 1_454
Zn20 Zn9 2.941933 1_455
Zn21 Zn5 2.694356 1_445
Zn21 Zn9 2.820279 1_455
Zn21 Zn8 2.863379 1_556
Ag0 Zn3 2.623740 1_456
Ag0 Zn14 2.627289 1_556
Ag0 Zn21 2.627291 1_555
Ag0 Zn17 2.644063 1_555
Ag0 Zn0 2.654646 1_455
Ag0 Zn20 2.654646 1_556
Ag0 Zn4 2.758095 1_556
Ag0 Zn5 2.758100 1_445
Ag0 Zn6 2.770561 1_446
Ag0 Zn8 2.782170 1_556
Ag0 Zn10 2.793833 1_456
Ag0 Zn12 2.793833 1_445
Ir0 Zn21 2.588641 1_555
Ir0 Zn15 2.588715 1_555
Ir0 Zn18 2.594378 1_445
Ir0 Zn20 2.599541 1_545
Ir0 Zn2 2.603782 1_555
Ir0 Zn16 2.610556 1_455
Ir0 Zn4 2.640970 1_555
Ir0 Zn6 2.643725 1_445
Ir0 Zn7 2.670168 1_444
Ir0 Zn10 2.749428 1_455
Ir0 Zn11 2.773628 1_545
Ir0 Zn13 2.795644 1_445
Ir1 Zn14 2.588649 1_555
Ir1 Zn1 2.588731 1_555
Ir1 Zn2 2.594383 1_555
Ir1 Zn0 2.599549 1_555
Ir1 Zn18 2.603792 1_555
Ir1 Zn19 2.610552 1_555
Ir1 Zn5 2.640979 1_555
Ir1 Zn6 2.643723 1_556
Ir1 Zn7 2.670172 1_555
Ir1 Zn12 2.749426 1_555
Ir1 Zn9 2.773636 1_555
Ir1 Zn13 2.795642 1_556
Pt0 Zn17 2.604841 1_545
Pt0 Zn3 2.608237 1_556
Pt0 Zn19 2.616167 1_545
Pt0 Zn16 2.616168 1_556
Pt0 Zn1 2.618471 1_556
Pt0 Zn15 2.618473 1_555
Pt0 Zn5 2.676473 1_445
Pt0 Zn4 2.676479 1_556
Pt0 Zn7 2.720897 1_445
Pt0 Zn8 2.751527 1_556
Pt0 Zn11 2.788146 1_546
Pt0 Zn9 2.788146 1_445
