# generated using pymatgen
data_Rb2PdSe16
_symmetry_space_group_name_H-M   'P 1'
_cell_length_a   12.82365406
_cell_length_b   12.82365406
_cell_length_c   7.03901255
_cell_angle_alpha   90.00000000
_cell_angle_beta   90.00000000
_cell_angle_gamma   90.00000000
_symmetry_Int_Tables_number   1
_chemical_formula_structural   Rb2PdSe16
_chemical_formula_sum   'Rb4 Pd2 Se32'
_cell_volume   1157.53818599
_cell_formula_units_Z   2
loop_
 _symmetry_equiv_pos_site_id
 _symmetry_equiv_pos_as_xyz
  1  'x, y, z'
loop_
 _atom_site_type_symbol
 _atom_site_label
 _atom_site_symmetry_multiplicity
 _atom_site_fract_x
 _atom_site_fract_y
 _atom_site_fract_z
 _atom_site_occupancy
  Rb  Rb0  1  0.50000000  0.00000000  0.00000000  1
  Rb  Rb1  1  -0.00000000  0.50000000  0.00000000  1
  Rb  Rb2  1  0.50000000  0.50000000  0.50000000  1
  Rb  Rb3  1  -0.00000000  0.00000000  0.50000000  1
  Pd  Pd0  1  -0.00000000  0.00000000  0.00000000  1
  Pd  Pd1  1  0.50000000  0.50000000  0.00000000  1
  Se  Se0  1  0.19073905  0.42247205  0.58686698  1
  Se  Se1  1  0.80926095  0.57752795  0.58686698  1
  Se  Se2  1  0.57752795  0.19073905  0.41313302  1
  Se  Se3  1  0.42247205  0.80926095  0.41313302  1
  Se  Se4  1  0.30926095  0.92247205  0.58686698  1
  Se  Se5  1  0.07752795  0.30926095  0.41313302  1
  Se  Se6  1  0.81258594  0.96550557  0.96671170  1
  Se  Se7  1  0.03449443  0.81258594  0.03328830  1
  Se  Se8  1  0.96550557  0.18741406  0.03328830  1
  Se  Se9  1  0.18741406  0.03449443  0.96671170  1
  Se  Se10  1  0.53449443  0.68741406  0.03328830  1
  Se  Se11  1  0.46550557  0.31258594  0.03328830  1
  Se  Se12  1  0.68741406  0.46550557  0.96671170  1
  Se  Se13  1  0.31258594  0.53449443  0.96671170  1
  Se  Se14  1  0.78980438  0.20418512  0.12799247  1
  Se  Se15  1  0.79581488  0.78980438  0.87200753  1
  Se  Se16  1  0.20418512  0.21019562  0.87200753  1
  Se  Se17  1  0.21019562  0.79581488  0.12799247  1
  Se  Se18  1  0.29581488  0.71019562  0.87200753  1
  Se  Se19  1  0.70418512  0.28980438  0.87200753  1
  Se  Se20  1  0.71019562  0.70418512  0.12799247  1
  Se  Se21  1  0.28980438  0.29581488  0.12799247  1
  Se  Se22  1  0.92007562  0.30881796  0.58923959  1
  Se  Se23  1  0.69118204  0.92007562  0.41076041  1
  Se  Se24  1  0.30881796  0.07992438  0.41076041  1
  Se  Se25  1  0.07992438  0.69118204  0.58923959  1
  Se  Se26  1  0.19118204  0.57992438  0.41076041  1
  Se  Se27  1  0.80881796  0.42007562  0.41076041  1
  Se  Se28  1  0.57992438  0.80881796  0.58923959  1
  Se  Se29  1  0.42007562  0.19118204  0.58923959  1
  Se  Se30  1  0.69073905  0.07752795  0.58686698  1
  Se  Se31  1  0.92247205  0.69073905  0.41313302  1
loop_
_geom_bond_atom_site_label_1
_geom_bond_atom_site_label_2
_geom_bond_distance
_geom_bond_site_symmetry_2
Rb0 Se29 3.926953 1_554
Rb0 Se24 3.926953 1_555
Rb0 Se28 3.926953 1_544
Rb0 Se23 3.926953 1_545
Rb0 Se30 3.927842 1_554
Rb0 Se3 3.927842 1_545
Rb0 Se4 3.927842 1_544
Rb0 Se2 3.927842 1_555
Rb0 Se9 4.039628 1_554
Rb0 Se10 4.039628 1_545
Rb0 Se11 4.039628 1_555
Rb0 Se6 4.039628 1_544
Rb1 Se26 3.926953 1_555
Rb1 Se22 3.926953 1_454
Rb1 Se25 3.926953 1_554
Rb1 Se27 3.926953 1_455
Rb1 Se0 3.927842 1_554
Rb1 Se31 3.927842 1_455
Rb1 Se5 3.927842 1_555
Rb1 Se1 3.927842 1_454
Rb1 Se7 4.039628 1_555
Rb1 Se13 4.039628 1_554
Rb1 Se12 4.039628 1_454
Rb1 Se8 4.039628 1_455
Pd0 Se8 2.454910 1_455
Pd0 Se9 2.454910 1_554
Pd0 Se6 2.454910 1_444
Pd0 Se7 2.454910 1_545
Pd0 Rb3 3.519506 1_554
Pd0 Rb3 3.519506 1_555
Pd1 Se11 2.454910 1_555
Pd1 Se13 2.454910 1_554
Pd1 Se10 2.454910 1_555
Pd1 Se12 2.454910 1_554
Pd1 Rb2 3.519506 1_555
Pd1 Rb2 3.519506 1_554
Se0 Se26 2.369283 1_555
Se0 Se5 2.389739 1_555
Se1 Se27 2.369283 1_555
Se1 Se31 2.389739 1_555
Se2 Se29 2.369283 1_555
Se2 Se30 2.389739 1_555
Se3 Se4 2.389739 1_555
Se10 Se20 2.359500 1_555
Se11 Se21 2.359500 1_555
Se12 Se19 2.359500 1_555
Se13 Se18 2.359500 1_555
Se14 Se8 2.359500 1_555
Se14 Se19 2.378607 1_554
Se15 Se6 2.359500 1_555
Se15 Se20 2.378607 1_556
Se16 Se9 2.359500 1_555
Se16 Se21 2.378607 1_556
Se17 Se7 2.359500 1_555
Se17 Se18 2.378607 1_554
Se22 Se5 2.369283 1_655
Se22 Se27 2.376857 1_555
Se23 Se30 2.369283 1_565
Se23 Se28 2.376857 1_555
Se24 Se4 2.369283 1_545
Se24 Se29 2.376857 1_555
Se25 Se31 2.369283 1_455
Se25 Se26 2.376857 1_555
Se28 Se3 2.369283 1_555
