# generated using pymatgen
data_HfZr13(Pt9Au)2
_symmetry_space_group_name_H-M   'P 1'
_cell_length_a   8.17851093
_cell_length_b   8.17851180
_cell_length_c   9.68806587
_cell_angle_alpha   90.04914161
_cell_angle_beta   90.04914025
_cell_angle_gamma   107.07353829
_symmetry_Int_Tables_number   1
_chemical_formula_structural   HfZr13(Pt9Au)2
_chemical_formula_sum   'Hf1 Zr13 Pt18 Au2'
_cell_volume   619.45628090
_cell_formula_units_Z   1
loop_
 _symmetry_equiv_pos_site_id
 _symmetry_equiv_pos_as_xyz
  1  'x, y, z'
loop_
 _atom_site_type_symbol
 _atom_site_label
 _atom_site_symmetry_multiplicity
 _atom_site_fract_x
 _atom_site_fract_y
 _atom_site_fract_z
 _atom_site_occupancy
  Hf  Hf0  1  0.00000000  0.00000000  0.00000000  1
  Zr  Zr0  1  0.69642223  0.30357777  0.00000000  1
  Zr  Zr1  1  0.30357777  0.69642223  1.00000000  1
  Zr  Zr2  1  0.80979445  0.19020555  0.50000000  1
  Zr  Zr3  1  0.19020555  0.80979445  0.50000000  1
  Zr  Zr4  1  0.50000000  0.50000000  0.50000000  1
  Zr  Zr5  1  0.99993766  0.50102130  0.25021962  1
  Zr  Zr6  1  0.00006234  0.49897870  0.74978038  1
  Zr  Zr7  1  0.49897870  0.00006234  0.74978038  1
  Zr  Zr8  1  0.50102130  0.99993766  0.25021962  1
  Zr  Zr9  1  0.30881283  0.30881283  0.18991770  1
  Zr  Zr10  1  0.69118717  0.69118717  0.81008230  1
  Zr  Zr11  1  0.17570618  0.17570618  0.67707625  1
  Zr  Zr12  1  0.82429382  0.82429382  0.32292375  1
  Pt  Pt0  1  0.85376581  0.14382864  0.20722937  1
  Pt  Pt1  1  0.14623419  0.85617136  0.79277063  1
  Pt  Pt2  1  0.65020186  0.35679503  0.70782479  1
  Pt  Pt3  1  0.64320497  0.34979814  0.29217521  1
  Pt  Pt4  1  0.34979814  0.64320497  0.29217521  1
  Pt  Pt5  1  0.35679503  0.65020186  0.70782479  1
  Pt  Pt6  1  0.85617136  0.14623419  0.79277063  1
  Pt  Pt7  1  0.14382864  0.85376581  0.20722937  1
  Pt  Pt8  1  0.93629706  0.64638571  0.99834965  1
  Pt  Pt9  1  0.06370294  0.35361429  0.00165035  1
  Pt  Pt10  1  0.56259386  0.85449765  0.49868314  1
  Pt  Pt11  1  0.14550235  0.43740614  0.50131686  1
  Pt  Pt12  1  0.43740614  0.14550235  0.50131686  1
  Pt  Pt13  1  0.85449765  0.56259386  0.49868314  1
  Pt  Pt14  1  0.35361429  0.06370294  0.00165035  1
  Pt  Pt15  1  0.64638571  0.93629706  0.99834965  1
  Pt  Pt16  1  0.10651089  0.10651089  0.39432641  1
  Pt  Pt17  1  0.89348911  0.89348911  0.60567359  1
  Au  Au0  1  0.39298274  0.39298274  0.89040684  1
  Au  Au1  1  0.60701726  0.60701726  0.10959316  1
loop_
_geom_bond_atom_site_label_1
_geom_bond_atom_site_label_2
_geom_bond_distance
_geom_bond_site_symmetry_2
Hf0 Pt0 2.769635 1_455
Hf0 Pt1 2.769635 1_544
Hf0 Pt7 2.769635 1_545
Hf0 Pt6 2.769635 1_454
Hf0 Pt15 2.784013 1_444
Hf0 Pt14 2.784013 1_555
Hf0 Pt8 2.784014 1_444
Hf0 Pt9 2.784014 1_555
Pt0 Zr12 2.789168 1_545
Pt0 Zr8 2.809004 1_545
Pt0 Pt16 2.831340 1_655
Pt0 Zr5 2.843062 1_555
Pt0 Pt9 2.853136 1_655
Pt0 Pt15 2.854892 1_544
Pt0 Pt3 2.860746 1_555
Pt0 Zr0 2.894976 1_555
Pt0 Zr2 2.897973 1_555
Pt1 Zr11 2.789168 1_565
Pt1 Zr7 2.809004 1_565
Pt1 Pt17 2.831340 1_455
Pt1 Zr6 2.843062 1_555
Pt1 Pt8 2.853136 1_455
Pt1 Pt14 2.854892 1_566
Pt1 Pt5 2.860746 1_555
Pt1 Zr1 2.894976 1_555
Pt1 Zr3 2.897973 1_555
Pt2 Zr6 2.783541 1_655
Pt2 Zr4 2.789129 1_555
Pt2 Zr10 2.833653 1_555
Pt2 Zr7 2.844463 1_555
Pt2 Pt6 2.860746 1_555
Pt2 Zr0 2.905440 1_556
Pt2 Zr2 2.942413 1_555
Pt3 Zr8 2.783541 1_545
Pt3 Zr4 2.789129 1_555
Pt3 Zr9 2.833652 1_555
Pt3 Zr5 2.844463 1_555
Pt3 Zr0 2.905440 1_555
Pt3 Zr2 2.942413 1_555
Pt4 Zr5 2.783541 1_455
Pt4 Zr4 2.789129 1_555
Pt4 Zr9 2.833653 1_555
Pt4 Zr8 2.844463 1_555
Pt4 Pt7 2.860746 1_555
Pt4 Zr1 2.905440 1_554
Pt4 Zr3 2.942413 1_555
Pt5 Zr7 2.783541 1_565
Pt5 Zr4 2.789129 1_555
Pt5 Zr10 2.833652 1_555
Pt5 Zr6 2.844463 1_555
Pt5 Zr1 2.905440 1_555
Pt5 Zr3 2.942413 1_555
Pt6 Zr11 2.789168 1_655
Pt6 Zr6 2.809004 1_655
Pt6 Zr7 2.843062 1_555
Pt6 Pt9 2.854892 1_656
Pt6 Zr0 2.894976 1_556
Pt6 Zr2 2.897973 1_555
Pt7 Zr12 2.789168 1_455
Pt7 Zr5 2.809004 1_455
Pt7 Zr8 2.843062 1_555
Pt7 Pt8 2.854892 1_454
Pt7 Zr1 2.894976 1_554
Pt7 Zr3 2.897973 1_555
Pt8 Zr6 2.809080 1_655
Pt8 Zr10 2.811721 1_555
Pt8 Zr5 2.829258 1_556
Pt8 Pt9 2.878403 1_656
Pt8 Zr1 2.910102 1_655
Pt8 Zr0 2.912023 1_556
Pt9 Zr5 2.809080 1_455
Pt9 Zr9 2.811721 1_555
Pt9 Zr6 2.829258 1_554
Pt9 Zr0 2.910102 1_455
Pt9 Zr1 2.912023 1_554
Pt10 Zr4 2.792223 1_555
Pt10 Zr8 2.795942 1_555
Pt10 Zr12 2.803102 1_555
Pt10 Zr7 2.822528 1_565
Pt10 Pt17 2.826242 1_555
Pt10 Pt5 2.844351 1_555
Pt10 Pt12 2.853776 1_565
Pt10 Pt4 2.870506 1_555
Pt10 Zr2 2.892453 1_565
Pt10 Zr3 2.958993 1_555
Pt11 Zr4 2.792223 1_555
Pt11 Zr6 2.795942 1_555
Pt11 Zr11 2.803102 1_555
Pt11 Zr5 2.822528 1_455
Pt11 Pt16 2.826242 1_555
Pt11 Pt4 2.844351 1_555
Pt11 Pt13 2.853776 1_455
Pt11 Pt5 2.870506 1_555
Pt11 Zr2 2.892453 1_455
Pt11 Zr3 2.958993 1_555
Pt12 Zr4 2.792223 1_555
Pt12 Zr7 2.795942 1_555
Pt12 Zr11 2.803102 1_555
Pt12 Zr8 2.822528 1_545
Pt12 Pt16 2.826242 1_555
Pt12 Pt3 2.844351 1_555
Pt12 Pt2 2.870506 1_555
Pt12 Zr3 2.892453 1_545
Pt12 Zr2 2.958993 1_555
Pt13 Zr4 2.792223 1_555
Pt13 Zr5 2.795942 1_555
Pt13 Zr12 2.803102 1_555
Pt13 Zr6 2.822528 1_655
Pt13 Pt17 2.826242 1_555
Pt13 Pt2 2.844351 1_555
Pt13 Pt3 2.870506 1_555
Pt13 Zr3 2.892453 1_655
Pt13 Zr2 2.958993 1_555
Pt14 Zr8 2.809080 1_545
Pt14 Zr9 2.811721 1_555
Pt14 Zr7 2.829258 1_554
Pt14 Pt7 2.853136 1_545
Pt14 Pt15 2.878403 1_544
Pt14 Zr1 2.910102 1_544
Pt14 Zr0 2.912022 1_555
Pt15 Zr7 2.809080 1_565
Pt15 Zr10 2.811721 1_555
Pt15 Zr8 2.829258 1_556
Pt15 Pt6 2.853136 1_565
Pt15 Zr0 2.910102 1_566
Pt15 Zr1 2.912022 1_555
Pt16 Zr9 2.792924 1_555
Pt16 Zr11 2.819735 1_555
Pt16 Zr12 2.828357 1_445
Pt16 Pt7 2.831340 1_545
Pt16 Zr2 2.895505 1_455
Pt16 Zr3 2.895505 1_545
Pt16 Pt17 2.914260 1_445
Pt17 Zr10 2.792924 1_555
Pt17 Zr12 2.819735 1_555
Pt17 Zr11 2.828357 1_665
Pt17 Pt6 2.831340 1_565
Pt17 Zr3 2.895505 1_655
Pt17 Zr2 2.895505 1_565
Au0 Pt2 2.830722 1_555
Au0 Pt5 2.830722 1_555
Au0 Pt9 2.830892 1_556
Au0 Pt14 2.830893 1_556
Au0 Zr11 2.952988 1_555
Au0 Au1 2.970785 1_556
Au0 Zr0 2.980445 1_556
Au0 Zr1 2.980445 1_555
Au0 Zr10 3.002590 1_555
Au0 Zr9 3.015973 1_556
Au1 Pt4 2.830722 1_555
Au1 Pt3 2.830722 1_555
Au1 Pt8 2.830892 1_554
Au1 Pt15 2.830893 1_554
Au1 Zr12 2.952988 1_555
Au1 Zr1 2.980445 1_554
Au1 Zr0 2.980445 1_555
Au1 Zr9 3.002590 1_555
Au1 Zr10 3.015973 1_554
