# generated using pymatgen
data_Li4TaNb7N12
_symmetry_space_group_name_H-M   'P 1'
_cell_length_a   5.25437639
_cell_length_b   5.25437617
_cell_length_c   10.33357870
_cell_angle_alpha   90.00000000
_cell_angle_beta   90.00000000
_cell_angle_gamma   120.00000140
_symmetry_Int_Tables_number   1
_chemical_formula_structural   Li4TaNb7N12
_chemical_formula_sum   'Li4 Ta1 Nb7 N12'
_cell_volume   247.07210636
_cell_formula_units_Z   1
loop_
 _symmetry_equiv_pos_site_id
 _symmetry_equiv_pos_as_xyz
  1  'x, y, z'
loop_
 _atom_site_type_symbol
 _atom_site_label
 _atom_site_symmetry_multiplicity
 _atom_site_fract_x
 _atom_site_fract_y
 _atom_site_fract_z
 _atom_site_occupancy
  Li  Li0  1  0.33333300  0.66666700  0.00000000  1
  Li  Li1  1  0.33333300  0.66666700  0.50000000  1
  Li  Li2  1  0.66666700  0.33333300  0.50000000  1
  Li  Li3  1  0.66666700  0.33333300  0.00000000  1
  Ta  Ta0  1  0.00000000  0.00000000  0.00000000  1
  Nb  Nb0  1  0.00000000  0.35349914  0.24987966  1
  Nb  Nb1  1  0.64650086  0.00000000  0.75012034  1
  Nb  Nb2  1  0.35349914  0.35349914  0.75012034  1
  Nb  Nb3  1  0.00000000  0.00000000  0.50000000  1
  Nb  Nb4  1  0.64650086  0.64650086  0.24987966  1
  Nb  Nb5  1  0.35349914  0.00000000  0.24987966  1
  Nb  Nb6  1  1.00000000  0.64650086  0.75012034  1
  N  N0  1  0.67908305  0.67908305  0.62465908  1
  N  N1  1  0.68195335  0.68195335  0.87678765  1
  N  N2  1  0.31804665  0.31804665  0.12321235  1
  N  N3  1  0.32091695  0.32091695  0.37534092  1
  N  N4  1  0.31804665  0.00000000  0.87678765  1
  N  N5  1  0.32091695  0.00000000  0.62465908  1
  N  N6  1  0.00000000  0.67908305  0.37534092  1
  N  N7  1  0.00000000  0.68195335  0.12321235  1
  N  N8  1  0.68195335  0.00000000  0.12321235  1
  N  N9  1  0.67908305  0.00000000  0.37534092  1
  N  N10  1  1.00000000  0.31804665  0.87678765  1
  N  N11  1  1.00000000  0.32091695  0.62465908  1
loop_
_geom_bond_atom_site_label_1
_geom_bond_atom_site_label_2
_geom_bond_distance
_geom_bond_site_symmetry_2
Li0 N4 2.199052 1_564
Li0 N7 2.199052 1_555
Li0 N10 2.199055 1_454
Li0 N8 2.199055 1_565
Li0 N2 2.199057 1_555
Li0 N1 2.199057 1_554
Li1 N5 2.201253 1_565
Li1 N6 2.201253 1_555
Li1 N11 2.201255 1_455
Li1 N9 2.201255 1_565
Li1 N3 2.201257 1_555
Li1 N0 2.201257 1_555
Li2 N9 2.201253 1_555
Li2 N11 2.201253 1_555
Li2 N6 2.201255 1_655
Li2 N5 2.201255 1_555
Li2 N0 2.201257 1_555
Li2 N3 2.201257 1_555
Li3 N8 2.199052 1_555
Li3 N10 2.199052 1_554
Li3 N7 2.199055 1_655
Li3 N4 2.199055 1_554
Li3 N1 2.199057 1_554
Li3 N2 2.199057 1_555
N0 Nb3 2.121963 1_665
N0 Nb2 2.146497 1_555
N0 Nb1 2.200486 1_565
N0 Nb6 2.200486 1_555
N1 Ta0 2.100904 1_666
N1 Nb2 2.166045 1_555
N1 Nb1 2.202723 1_565
N1 Nb6 2.202723 1_555
N2 Ta0 2.100904 1_555
N2 Nb4 2.166045 1_555
N2 Nb5 2.202723 1_555
N2 Nb0 2.202723 1_555
N3 Nb3 2.121963 1_555
N3 Nb4 2.146497 1_555
N3 Nb5 2.200486 1_555
N3 Nb0 2.200486 1_555
N4 Ta0 2.100904 1_556
N4 Nb1 2.166045 1_555
N4 Nb2 2.202723 1_555
N4 Nb6 2.202723 1_445
N5 Nb3 2.121963 1_555
N5 Nb1 2.146497 1_555
N5 Nb2 2.200486 1_555
N5 Nb6 2.200486 1_445
N6 Nb3 2.121963 1_565
N6 Nb0 2.146497 1_555
N6 Nb5 2.200486 1_565
N6 Nb4 2.200486 1_455
N7 Ta0 2.100904 1_565
N7 Nb0 2.166045 1_555
N7 Nb5 2.202723 1_565
N7 Nb4 2.202723 1_455
N8 Ta0 2.100904 1_655
N8 Nb5 2.166045 1_555
N8 Nb0 2.202723 1_655
N8 Nb4 2.202723 1_545
N9 Nb3 2.121963 1_655
N9 Nb5 2.146497 1_555
N9 Nb0 2.200486 1_655
N9 Nb4 2.200486 1_545
N10 Ta0 2.100904 1_656
N10 Nb6 2.166045 1_555
N10 Nb1 2.202723 1_555
N10 Nb2 2.202723 1_655
N11 Nb3 2.121963 1_655
N11 Nb6 2.146497 1_555
N11 Nb1 2.200486 1_555
N11 Nb2 2.200486 1_655
