# generated using pymatgen
data_Zn3In8HgIr4
_symmetry_space_group_name_H-M   'P 1'
_cell_length_a   6.82429914
_cell_length_b   6.92269859
_cell_length_c   7.27236127
_cell_angle_alpha   90.00000000
_cell_angle_beta   90.00000000
_cell_angle_gamma   88.72577371
_symmetry_Int_Tables_number   1
_chemical_formula_structural   Zn3In8HgIr4
_chemical_formula_sum   'Zn3 In8 Hg1 Ir4'
_cell_volume   343.48004853
_cell_formula_units_Z   1
loop_
 _symmetry_equiv_pos_site_id
 _symmetry_equiv_pos_as_xyz
  1  'x, y, z'
loop_
 _atom_site_type_symbol
 _atom_site_label
 _atom_site_symmetry_multiplicity
 _atom_site_fract_x
 _atom_site_fract_y
 _atom_site_fract_z
 _atom_site_occupancy
  Zn  Zn0  1  0.00000000  0.50000000  0.00000000  1
  Zn  Zn1  1  0.50000000  0.00000000  0.00000000  1
  Zn  Zn2  1  0.00000000  0.50000000  0.50000000  1
  In  In0  1  0.33811029  0.33913951  0.26677527  1
  In  In1  1  0.15961494  0.83246675  0.77243414  1
  In  In2  1  0.15961494  0.83246675  0.22756586  1
  In  In3  1  0.84038506  0.16753325  0.22756586  1
  In  In4  1  0.84038506  0.16753325  0.77243414  1
  In  In5  1  0.66188971  0.66086049  0.26677527  1
  In  In6  1  0.66188971  0.66086049  0.73322473  1
  In  In7  1  0.33811029  0.33913951  0.73322473  1
  Hg  Hg0  1  0.50000000  0.00000000  0.50000000  1
  Ir  Ir0  1  0.16016424  0.15656737  0.00000000  1
  Ir  Ir1  1  0.66760263  0.35410295  0.50000000  1
  Ir  Ir2  1  0.33239737  0.64589705  0.50000000  1
  Ir  Ir3  1  0.83983576  0.84343263  0.00000000  1
loop_
_geom_bond_atom_site_label_1
_geom_bond_atom_site_label_2
_geom_bond_distance
_geom_bond_site_symmetry_2
In0 Ir0 2.627600 1_555
In0 Ir2 2.717390 1_555
In0 Ir1 2.820252 1_555
In0 Zn2 3.053928 1_555
In0 In5 3.171967 1_555
In0 Zn0 3.195884 1_555
In0 Zn1 3.221972 1_555
In1 Ir2 2.629837 1_555
In1 Ir3 2.738526 1_456
In1 Ir0 2.788044 1_566
In1 Zn0 3.055164 1_556
In1 Zn1 3.098315 1_566
In1 In4 3.146679 1_465
In1 Zn2 3.243533 1_555
In1 In2 3.309882 1_556
In2 Ir2 2.629837 1_555
In2 Ir3 2.738526 1_455
In2 Ir0 2.788044 1_565
In2 Zn0 3.055164 1_555
In2 Zn1 3.098315 1_565
In2 In3 3.146679 1_465
In2 Zn2 3.243533 1_555
In3 Ir1 2.629837 1_555
In3 Ir0 2.738526 1_655
In3 Ir3 2.788044 1_545
In3 Zn0 3.055164 1_655
In3 Zn1 3.098315 1_555
In3 Zn2 3.243533 1_655
In3 In4 3.309882 1_554
In4 Ir1 2.629837 1_555
In4 Ir0 2.738526 1_656
In4 Ir3 2.788044 1_546
In4 Zn0 3.055164 1_656
In4 Zn1 3.098315 1_556
In4 Zn2 3.243533 1_655
In5 Ir3 2.627600 1_555
In5 Ir1 2.717390 1_555
In5 Ir2 2.820252 1_555
In5 Zn2 3.053928 1_655
In5 Zn0 3.195884 1_655
In5 Zn1 3.221972 1_565
In6 Ir3 2.627600 1_556
In6 Ir1 2.717390 1_555
In6 Ir2 2.820252 1_555
In6 Zn2 3.053928 1_655
In6 In7 3.171967 1_555
In6 Zn0 3.195884 1_656
In6 Zn1 3.221972 1_566
In7 Ir0 2.627600 1_556
In7 Ir2 2.717390 1_555
In7 Ir1 2.820252 1_555
In7 Zn2 3.053928 1_555
In7 Zn0 3.195884 1_556
In7 Zn1 3.221972 1_556
Hg0 Ir1 2.728006 1_555
Hg0 Ir2 2.728006 1_545
Hg0 In7 3.081218 1_555
Hg0 In6 3.081218 1_545
Hg0 In0 3.081218 1_555
Hg0 In5 3.081218 1_545
Hg0 In4 3.284210 1_555
Hg0 In1 3.284210 1_545
Hg0 In3 3.284210 1_555
Hg0 In2 3.284210 1_545
Ir0 Zn1 2.537990 1_555
Ir0 Zn0 2.594515 1_555
Ir1 Zn2 2.503506 1_655
Ir1 Ir2 3.017904 1_555
Ir2 Zn2 2.503506 1_555
Ir3 Zn1 2.537990 1_565
Ir3 Zn0 2.594515 1_655
