# generated using pymatgen
data_Hf4Zr(Re7Tc5)2
_symmetry_space_group_name_H-M   'P 1'
_cell_length_a   8.41150766
_cell_length_b   8.41150742
_cell_length_c   8.40533514
_cell_angle_alpha   109.47410095
_cell_angle_beta   109.47410211
_cell_angle_gamma   109.57832128
_symmetry_Int_Tables_number   1
_chemical_formula_structural   Hf4Zr(Re7Tc5)2
_chemical_formula_sum   'Hf4 Zr1 Re14 Tc10'
_cell_volume   457.16614963
_cell_formula_units_Z   1
loop_
 _symmetry_equiv_pos_site_id
 _symmetry_equiv_pos_as_xyz
  1  'x, y, z'
loop_
 _atom_site_type_symbol
 _atom_site_label
 _atom_site_symmetry_multiplicity
 _atom_site_fract_x
 _atom_site_fract_y
 _atom_site_fract_z
 _atom_site_occupancy
  Hf  Hf0  1  0.62490242  0.99993043  0.00019052  1
  Hf  Hf1  1  0.99993043  0.62490242  0.00019052  1
  Hf  Hf2  1  0.99934089  0.99934089  0.62439726  1
  Hf  Hf3  1  0.37455119  0.37455119  0.37277469  1
  Zr  Zr0  1  0.99936487  0.99936487  0.99985533  1
  Re  Re0  1  0.27923721  0.60396380  0.60395692  1
  Re  Re1  1  0.60396380  0.27923721  0.60395692  1
  Re  Re2  1  0.37669279  0.19466207  0.99979211  1
  Re  Re3  1  0.18063058  0.80606085  0.80586670  1
  Re  Re4  1  0.37678788  0.00108920  0.19542943  1
  Re  Re5  1  0.19466207  0.37669279  0.99979211  1
  Re  Re6  1  0.00108920  0.37678788  0.19542943  1
  Re  Re7  1  0.80606085  0.18063058  0.80586670  1
  Re  Re8  1  0.80508016  0.80508016  0.18166680  1
  Re  Re9  1  0.00089683  0.19484484  0.37717412  1
  Re  Re10  1  0.19484484  0.00089683  0.37717412  1
  Re  Re11  1  0.62253941  0.62253941  0.81753308  1
  Re  Re12  1  0.81598877  0.62257383  0.62241664  1
  Re  Re13  1  0.62257383  0.81598877  0.62241664  1
  Tc  Tc0  1  0.39643461  0.67792858  0.00038685  1
  Tc  Tc1  1  0.72035205  0.32357496  0.32230071  1
  Tc  Tc2  1  0.39704674  0.00074487  0.67723602  1
  Tc  Tc3  1  0.67792858  0.39643461  0.00038685  1
  Tc  Tc4  1  0.00074487  0.39704674  0.67723602  1
  Tc  Tc5  1  0.32357496  0.72035205  0.32230071  1
  Tc  Tc6  1  0.32331507  0.32331507  0.72127798  1
  Tc  Tc7  1  0.00105615  0.67675419  0.39675425  1
  Tc  Tc8  1  0.67675419  0.00105615  0.39675425  1
  Tc  Tc9  1  0.60365474  0.60365474  0.27948834  1
loop_
_geom_bond_atom_site_label_1
_geom_bond_atom_site_label_2
_geom_bond_distance
_geom_bond_site_symmetry_2
Hf0 Tc0 2.746983 1_555
Hf0 Tc1 2.749067 1_565
Hf0 Tc2 2.755794 1_564
Hf0 Re7 3.010440 1_564
Hf0 Re8 3.016659 1_555
Hf0 Re6 3.016796 1_665
Hf0 Re9 3.018293 1_665
Hf0 Re11 3.020314 1_554
Hf0 Re13 3.023143 1_554
Hf0 Re2 3.054982 1_564
Hf0 Re4 3.055378 1_565
Hf0 Re3 3.059794 1_554
Hf0 Zr0 3.152330 1_554
Hf0 Re0 3.208791 1_554
Hf0 Tc8 3.210565 1_565
Hf0 Tc3 3.212687 1_565
Hf1 Tc3 2.746983 1_555
Hf1 Tc5 2.749067 1_655
Hf1 Tc4 2.755794 1_654
Hf1 Re3 3.010440 1_654
Hf1 Re8 3.016659 1_555
Hf1 Re4 3.016796 1_665
Hf1 Re10 3.018293 1_665
Hf1 Re11 3.020315 1_554
Hf1 Re12 3.023143 1_554
Hf1 Re5 3.054982 1_654
Hf1 Re6 3.055378 1_655
Hf1 Re7 3.059794 1_554
Hf1 Zr0 3.152329 1_554
Hf1 Re1 3.208791 1_554
Hf1 Tc7 3.210565 1_655
Hf1 Tc0 3.212687 1_655
Hf2 Tc6 2.753065 1_665
Hf2 Tc7 2.758077 1_655
Hf2 Tc8 2.758077 1_565
Hf2 Re3 3.009850 1_655
Hf2 Re7 3.009850 1_565
Hf2 Re12 3.015719 1_555
Hf2 Re13 3.015719 1_555
Hf2 Re5 3.016776 1_665
Hf2 Re2 3.016776 1_665
Hf2 Re8 3.047943 1_555
Hf2 Re9 3.050366 1_665
Hf2 Re10 3.050366 1_665
Hf2 Zr0 3.155716 1_555
Hf2 Tc9 3.204473 1_555
Hf2 Tc4 3.219914 1_665
Hf2 Tc2 3.219915 1_665
Hf3 Tc9 2.751073 1_555
Hf3 Re1 2.778103 1_555
Hf3 Re0 2.778103 1_555
Hf3 Re5 3.001896 1_554
Hf3 Re2 3.001896 1_554
Hf3 Re4 3.004449 1_555
Hf3 Re6 3.004449 1_555
Hf3 Re10 3.015867 1_555
Hf3 Re9 3.015867 1_555
Hf3 Re13 3.039310 1_555
Hf3 Re12 3.039310 1_555
Hf3 Re11 3.059846 1_555
Hf3 Zr0 3.142948 1_444
Hf3 Tc5 3.218974 1_555
Hf3 Tc1 3.218975 1_555
Hf3 Tc6 3.242100 1_555
Re0 Re3 2.533353 1_555
Re0 Re13 2.758632 1_555
Re0 Re11 2.764052 1_555
Re0 Tc7 2.799514 1_555
Re0 Tc4 2.800092 1_555
Re0 Re6 2.861549 1_555
Re0 Re9 2.865038 1_555
Re0 Tc0 2.911778 1_556
Re0 Tc2 2.916552 1_565
Re0 Tc6 2.928767 1_555
Re0 Tc5 2.931133 1_555
Re1 Re7 2.533353 1_555
Re1 Re12 2.758632 1_555
Re1 Re11 2.764052 1_555
Re1 Tc8 2.799514 1_555
Re1 Tc2 2.800092 1_555
Re1 Re4 2.861549 1_555
Re1 Re10 2.865038 1_555
Re1 Tc3 2.911778 1_556
Re1 Tc4 2.916552 1_655
Re1 Tc6 2.928767 1_555
Re1 Tc1 2.931133 1_555
Re2 Re5 2.502013 1_555
Re2 Tc3 2.530750 1_556
Re2 Re3 2.665250 1_545
Re2 Re4 2.672160 1_556
Re2 Tc2 2.754723 1_555
Re2 Tc1 2.755882 1_556
Re2 Tc6 2.857784 1_555
Re2 Tc9 2.867059 1_556
Re2 Zr0 3.046249 1_445
Re3 Re4 2.671593 1_566
Re3 Tc0 2.763548 1_556
Re3 Tc2 2.767565 1_565
Re3 Tc7 2.869025 1_555
Re3 Tc4 2.869701 1_555
Re3 Zr0 3.029628 1_455
Re4 Tc8 2.526625 1_555
Re4 Tc1 2.758551 1_555
Re4 Tc0 2.759405 1_545
Re4 Tc5 2.864052 1_545
Re4 Zr0 3.042165 1_444
Re5 Tc0 2.530750 1_556
Re5 Re7 2.665250 1_455
Re5 Re6 2.672160 1_556
Re5 Tc4 2.754723 1_555
Re5 Tc5 2.755882 1_556
Re5 Tc6 2.857784 1_555
Re5 Tc9 2.867059 1_556
Re5 Zr0 3.046249 1_445
Re6 Re9 2.496923 1_555
Re6 Tc7 2.526625 1_555
Re6 Re7 2.671593 1_454
Re6 Tc5 2.758551 1_555
Re6 Tc3 2.759405 1_455
Re6 Tc1 2.864052 1_455
Re6 Zr0 3.042165 1_444
Re7 Tc3 2.763548 1_556
Re7 Tc4 2.767565 1_655
Re7 Tc8 2.869025 1_555
Re7 Tc2 2.869701 1_555
Re7 Zr0 3.029628 1_545
Re8 Tc9 2.520148 1_555
Re8 Re9 2.673202 1_665
Re8 Tc7 2.767228 1_655
Re8 Tc8 2.767228 1_565
Re8 Tc3 2.870227 1_555
Re8 Tc0 2.870227 1_555
Re8 Zr0 3.035987 1_554
Re9 Tc4 2.529290 1_555
Re9 Tc6 2.758642 1_555
Re9 Tc8 2.760000 1_455
Re9 Tc1 2.876400 1_455
Re9 Zr0 3.040344 1_444
Re10 Re4 2.496923 1_555
Re10 Tc2 2.529290 1_555
Re10 Re9 2.665817 1_555
Re10 Re8 2.673202 1_445
Re10 Tc6 2.758642 1_555
Re10 Tc7 2.760000 1_545
Re10 Tc5 2.876400 1_545
Re10 Zr0 3.040344 1_444
Re11 Re8 2.497189 1_556
Re11 Tc6 2.522562 1_555
Re11 Re13 2.667732 1_555
Re11 Re12 2.667732 1_555
Re11 Tc3 2.874342 1_556
Re11 Tc0 2.874342 1_556
Re11 Zr0 3.038307 1_555
Re12 Re3 2.500903 1_655
Re12 Tc1 2.529179 1_555
Re12 Re13 2.658489 1_555
Re12 Tc9 2.755859 1_555
Re12 Tc7 2.880690 1_655
Re12 Tc4 2.882244 1_655
Re12 Zr0 3.040661 1_555
Re13 Re7 2.500903 1_565
Re13 Tc5 2.529179 1_555
Re13 Tc9 2.755859 1_555
Re13 Tc8 2.880690 1_565
Re13 Tc2 2.882244 1_565
Re13 Zr0 3.040661 1_555
Tc0 Tc9 2.812926 1_555
Tc0 Tc6 2.814588 1_554
Tc0 Tc5 2.903912 1_555
Tc0 Tc4 2.908749 1_554
Tc0 Tc8 2.911384 1_565
Tc1 Tc7 2.804693 1_655
Tc1 Tc4 2.819082 1_655
Tc1 Tc3 2.903912 1_555
Tc1 Tc8 2.916167 1_555
Tc1 Tc9 2.919392 1_555
Tc2 Tc5 2.819082 1_545
Tc2 Tc3 2.908749 1_556
Tc2 Tc7 2.911420 1_545
Tc2 Tc6 2.914589 1_555
Tc3 Tc9 2.812926 1_555
Tc3 Tc6 2.814588 1_554
Tc3 Tc7 2.911384 1_655
Tc4 Tc8 2.911420 1_455
Tc4 Tc6 2.914589 1_555
Tc5 Tc8 2.804693 1_565
Tc5 Tc7 2.916167 1_555
Tc5 Tc9 2.919392 1_555
Tc7 Tc9 2.923201 1_455
Tc8 Tc9 2.923200 1_545
