# generated using pymatgen
data_Zr13Sn3(Rh2N)4
_symmetry_space_group_name_H-M   'P 1'
_cell_length_a   8.71065246
_cell_length_b   8.71065209
_cell_length_c   8.70309902
_cell_angle_alpha   59.97128289
_cell_angle_beta   59.97128884
_cell_angle_gamma   60.00000062
_symmetry_Int_Tables_number   1
_chemical_formula_structural   Zr13Sn3(Rh2N)4
_chemical_formula_sum   'Zr13 Sn3 Rh8 N4'
_cell_volume   466.73638402
_cell_formula_units_Z   1
loop_
 _symmetry_equiv_pos_site_id
 _symmetry_equiv_pos_as_xyz
  1  'x, y, z'
loop_
 _atom_site_type_symbol
 _atom_site_label
 _atom_site_symmetry_multiplicity
 _atom_site_fract_x
 _atom_site_fract_y
 _atom_site_fract_z
 _atom_site_occupancy
  Zr  Zr0  1  0.62500000  0.62500000  0.12500000  1
  Zr  Zr1  1  0.81331293  0.81331293  0.19014337  1
  Zr  Zr2  1  0.18536773  0.18536773  0.81618745  1
  Zr  Zr3  1  0.81307609  0.18536773  0.81618745  1
  Zr  Zr4  1  0.18322976  0.81331293  0.19014337  1
  Zr  Zr5  1  0.18536773  0.81307609  0.81618745  1
  Zr  Zr6  1  0.81331293  0.18322976  0.19014337  1
  Zr  Zr7  1  0.43668707  0.43668707  0.05985663  1
  Zr  Zr8  1  0.06463227  0.06463227  0.43381255  1
  Zr  Zr9  1  0.43692391  0.06463227  0.43381255  1
  Zr  Zr10  1  0.06677024  0.43668707  0.05985663  1
  Zr  Zr11  1  0.06463227  0.43692391  0.43381255  1
  Zr  Zr12  1  0.43668707  0.06677024  0.05985663  1
  Sn  Sn0  1  0.12500000  0.62500000  0.62500000  1
  Sn  Sn1  1  0.62500000  0.12500000  0.62500000  1
  Sn  Sn2  1  0.62500000  0.62500000  0.62500000  1
  Rh  Rh0  1  0.77196428  0.41421207  0.39961158  1
  Rh  Rh1  1  0.41421207  0.77196428  0.39961158  1
  Rh  Rh2  1  0.40920095  0.40920095  0.77239716  1
  Rh  Rh3  1  0.41421207  0.41421207  0.39961158  1
  Rh  Rh4  1  0.47803572  0.83578793  0.85038842  1
  Rh  Rh5  1  0.83578793  0.47803572  0.85038842  1
  Rh  Rh6  1  0.84079905  0.84079905  0.47760284  1
  Rh  Rh7  1  0.83578793  0.83578793  0.85038842  1
  N  N0  1  0.62500000  0.12500000  0.12500000  1
  N  N1  1  0.12500000  0.62500000  0.12500000  1
  N  N2  1  0.12500000  0.12500000  0.62500000  1
  N  N3  1  0.12500000  0.12500000  0.12500000  1
loop_
_geom_bond_atom_site_label_1
_geom_bond_atom_site_label_2
_geom_bond_distance
_geom_bond_site_symmetry_2
Sn0 Zr10 3.157292 1_556
Sn0 Zr4 3.157292 1_555
Sn0 Zr5 3.192893 1_555
Sn0 Zr11 3.192893 1_555
Sn0 Zr8 3.192901 1_565
Sn0 Zr2 3.192901 1_555
Sn1 Zr12 3.157292 1_556
Sn1 Zr6 3.157292 1_555
Sn1 Zr3 3.192893 1_555
Sn1 Zr9 3.192893 1_555
Sn1 Zr8 3.192901 1_655
Sn1 Zr2 3.192901 1_555
Sn2 Zr7 3.157290 1_556
Sn2 Zr1 3.157290 1_555
Sn2 Zr9 3.192899 1_565
Sn2 Zr3 3.192899 1_555
Sn2 Zr5 3.192900 1_555
Sn2 Zr11 3.192900 1_655
Rh0 Zr0 2.653617 1_555
Rh0 Sn1 2.756598 1_555
Rh0 Sn2 2.756598 1_555
Rh0 Zr10 2.774818 1_655
Rh0 Zr8 2.819494 1_655
Rh0 Zr11 2.819500 1_655
Rh0 Zr1 3.128982 1_555
Rh0 Zr6 3.128990 1_555
Rh0 Zr3 3.255518 1_555
Rh1 Zr0 2.653618 1_555
Rh1 Sn2 2.756598 1_555
Rh1 Sn0 2.756598 1_555
Rh1 Zr12 2.774818 1_565
Rh1 Zr8 2.819495 1_565
Rh1 Zr9 2.819499 1_565
Rh1 Zr1 3.128982 1_555
Rh1 Zr4 3.128990 1_555
Rh1 Zr5 3.255518 1_555
Rh2 Sn2 2.723798 1_555
Rh2 Sn0 2.723798 1_555
Rh2 Sn1 2.723798 1_555
Rh2 Zr12 2.762226 1_556
Rh2 Zr10 2.762226 1_556
Rh2 Zr7 2.762231 1_556
Rh2 Zr5 3.172090 1_555
Rh2 Zr3 3.172091 1_555
Rh2 Zr2 3.172098 1_555
Rh3 Zr0 2.653617 1_555
Rh3 Sn1 2.756598 1_555
Rh3 Sn0 2.756598 1_555
Rh3 Zr7 2.774814 1_555
Rh3 Zr9 2.819491 1_555
Rh3 Zr11 2.819491 1_555
Rh3 Zr4 3.128985 1_555
Rh3 Zr6 3.128986 1_555
Rh3 Zr2 3.255521 1_555
Rh4 Zr0 2.653617 1_556
Rh4 Sn1 2.756598 1_565
Rh4 Sn2 2.756598 1_555
Rh4 Zr4 2.774818 1_556
Rh4 Zr2 2.819494 1_565
Rh4 Zr5 2.819500 1_555
Rh4 Zr7 3.128982 1_556
Rh4 Zr12 3.128990 1_566
Rh4 Zr9 3.255518 1_565
Rh5 Zr0 2.653618 1_556
Rh5 Sn2 2.756598 1_555
Rh5 Sn0 2.756598 1_655
Rh5 Zr6 2.774818 1_556
Rh5 Zr2 2.819495 1_655
Rh5 Zr3 2.819499 1_555
Rh5 Zr7 3.128982 1_556
Rh5 Zr10 3.128990 1_656
Rh5 Zr11 3.255518 1_655
Rh6 Sn2 2.723798 1_555
Rh6 Sn0 2.723798 1_655
Rh6 Sn1 2.723798 1_565
Rh6 Zr6 2.762226 1_565
Rh6 Zr4 2.762226 1_655
Rh6 Zr1 2.762231 1_555
Rh6 Zr11 3.172090 1_655
Rh6 Zr9 3.172091 1_565
Rh6 Zr8 3.172098 1_665
Rh7 Zr0 2.653617 1_556
Rh7 Sn1 2.756598 1_565
Rh7 Sn0 2.756598 1_655
Rh7 Zr1 2.774814 1_556
Rh7 Zr3 2.819491 1_565
Rh7 Zr5 2.819491 1_655
Rh7 Zr10 3.128985 1_656
Rh7 Zr12 3.128986 1_566
Rh7 Zr8 3.255521 1_665
N0 Zr9 2.285578 1_555
N0 Zr3 2.285578 1_554
N0 Zr6 2.306511 1_555
N0 Zr12 2.306511 1_555
N0 Zr7 2.306517 1_555
N0 Zr1 2.306517 1_545
N1 Zr11 2.285578 1_555
N1 Zr5 2.285578 1_554
N1 Zr4 2.306511 1_555
N1 Zr10 2.306511 1_555
N1 Zr7 2.306517 1_555
N1 Zr1 2.306517 1_455
N2 Zr2 2.312923 1_555
N2 Zr8 2.312923 1_555
N2 Zr11 2.312929 1_555
N2 Zr5 2.312929 1_545
N2 Zr3 2.312929 1_455
N2 Zr9 2.312929 1_555
N3 Zr8 2.285580 1_555
N3 Zr2 2.285580 1_554
N3 Zr10 2.306519 1_555
N3 Zr4 2.306519 1_545
N3 Zr12 2.306519 1_555
N3 Zr6 2.306519 1_455
