# generated using pymatgen
data_Os3RhPb4O13
_symmetry_space_group_name_H-M   'P 1'
_cell_length_a   7.28272561
_cell_length_b   7.28272527
_cell_length_c   7.28272586
_cell_angle_alpha   60.45442132
_cell_angle_beta   60.45442371
_cell_angle_gamma   60.45442669
_symmetry_Int_Tables_number   1
_chemical_formula_structural   Os3RhPb4O13
_chemical_formula_sum   'Os3 Rh1 Pb4 O13'
_cell_volume   275.93422977
_cell_formula_units_Z   1
loop_
 _symmetry_equiv_pos_site_id
 _symmetry_equiv_pos_as_xyz
  1  'x, y, z'
loop_
 _atom_site_type_symbol
 _atom_site_label
 _atom_site_symmetry_multiplicity
 _atom_site_fract_x
 _atom_site_fract_y
 _atom_site_fract_z
 _atom_site_occupancy
  Os  Os0  1  0.00057989  0.49977037  0.49977037  1
  Os  Os1  1  0.49977037  0.49977037  0.00057989  1
  Os  Os2  1  0.49977037  0.00057989  0.49977037  1
  Rh  Rh0  1  0.49971691  0.49971691  0.49971691  1
  Pb  Pb0  1  0.99736923  0.99736923  0.99736923  1
  Pb  Pb1  1  0.50525216  0.99863725  0.99863725  1
  Pb  Pb2  1  0.99863725  0.99863725  0.50525216  1
  Pb  Pb3  1  0.99863725  0.50525216  0.99863725  1
  O  O0  1  0.83413070  0.42183679  0.42183679  1
  O  O1  1  0.42225511  0.82041422  0.82041422  1
  O  O2  1  0.42183679  0.42183679  0.83413070  1
  O  O3  1  0.82041422  0.82041422  0.42225511  1
  O  O4  1  0.82041422  0.42225511  0.82041422  1
  O  O5  1  0.42183679  0.83413070  0.42183679  1
  O  O6  1  0.16937349  0.57468445  0.57468445  1
  O  O7  1  0.57358650  0.18397138  0.18397138  1
  O  O8  1  0.57468445  0.57468445  0.16937349  1
  O  O9  1  0.18397138  0.18397138  0.57358650  1
  O  O10  1  0.18397138  0.57358650  0.18397138  1
  O  O11  1  0.57468445  0.16937349  0.57468445  1
  O  O12  1  0.12410712  0.12410712  0.12410712  1
loop_
_geom_bond_atom_site_label_1
_geom_bond_atom_site_label_2
_geom_bond_distance
_geom_bond_site_symmetry_2
O0 Os0 1.946401 1_655
O0 Rh0 2.041422 1_555
O0 Pb2 2.555977 1_545
O0 Pb3 2.555977 1_554
O1 Os1 1.975322 1_556
O1 Os2 1.975323 1_565
O1 Pb0 2.582393 1_455
O1 Pb1 2.635081 1_555
O2 Os1 1.946401 1_556
O2 Rh0 2.041422 1_555
O2 Pb1 2.555977 1_545
O2 Pb3 2.555977 1_455
O3 Os0 1.975323 1_655
O3 Os2 1.975323 1_565
O3 Pb0 2.582393 1_554
O3 Pb2 2.635080 1_555
O4 Os0 1.975323 1_655
O4 Os1 1.975323 1_556
O4 Pb0 2.582392 1_545
O4 Pb3 2.635081 1_555
O5 Os2 1.946401 1_565
O5 Rh0 2.041422 1_555
O5 Pb1 2.555977 1_554
O5 Pb2 2.555977 1_455
O6 Os0 1.929471 1_555
O6 Rh0 2.021684 1_555
O6 Pb2 2.574635 1_455
O6 Pb3 2.574635 1_455
O7 Os1 1.954887 1_555
O7 Os2 1.954887 1_555
O7 Pb0 2.601407 1_544
O7 Pb1 2.648185 1_544
O8 Os1 1.929471 1_555
O8 Rh0 2.021684 1_555
O8 Pb1 2.574635 1_554
O8 Pb3 2.574635 1_554
O9 Os0 1.954887 1_555
O9 Os2 1.954887 1_555
O9 Pb0 2.601407 1_445
O9 Pb2 2.648185 1_445
O10 Os0 1.954887 1_555
O10 Os1 1.954887 1_555
O10 Pb0 2.601407 1_454
O10 Pb3 2.648185 1_454
O11 Os2 1.929471 1_555
O11 Rh0 2.021684 1_555
O11 Pb1 2.574635 1_545
O11 Pb2 2.574635 1_545
O12 Pb0 2.253077 1_444
O12 Pb3 2.279334 1_454
O12 Pb2 2.279334 1_445
O12 Pb1 2.279334 1_544
