# generated using pymatgen
data_Sr4Os3(RuO6)3
_symmetry_space_group_name_H-M   'P 1'
_cell_length_a   7.91446097
_cell_length_b   7.93784381
_cell_length_c   7.93784373
_cell_angle_alpha   109.53080859
_cell_angle_beta   109.41156490
_cell_angle_gamma   109.41156552
_symmetry_Int_Tables_number   1
_chemical_formula_structural   Sr4Os3(RuO6)3
_chemical_formula_sum   'Sr4 Os3 Ru3 O18'
_cell_volume   384.17027908
_cell_formula_units_Z   1
loop_
 _symmetry_equiv_pos_site_id
 _symmetry_equiv_pos_as_xyz
  1  'x, y, z'
loop_
 _atom_site_type_symbol
 _atom_site_label
 _atom_site_symmetry_multiplicity
 _atom_site_fract_x
 _atom_site_fract_y
 _atom_site_fract_z
 _atom_site_occupancy
  Sr  Sr0  1  0.99560612  0.99308216  0.39073595  1
  Sr  Sr1  1  0.00252396  0.39765380  0.00691784  1
  Sr  Sr2  1  0.60487016  0.60926405  0.60234620  1
  Sr  Sr3  1  0.39664391  0.00000000  0.00000000  1
  Os  Os0  1  0.36894083  0.50339149  0.86941716  1
  Os  Os1  1  0.86554934  0.36602567  0.49660851  1
  Os  Os2  1  0.49952367  0.13058284  0.63397433  1
  Ru  Ru0  1  0.13349938  0.63288030  0.49743523  1
  Ru  Ru1  1  0.50061908  0.86455493  0.36711970  1
  Ru  Ru2  1  0.63606515  0.50256477  0.13544507  1
  O  O0  1  0.33107844  0.00405827  0.33619112  1
  O  O1  1  0.32702016  0.33213285  0.99594173  1
  O  O2  1  0.99488732  0.66380888  0.66786715  1
  O  O3  1  0.66775058  0.67203038  0.99818105  1
  O  O4  1  0.99572020  0.32615167  0.32796962  1
  O  O5  1  0.66956953  0.00181895  0.67384833  1
  O  O6  1  0.36423869  0.29960911  0.64216661  1
  O  O7  1  0.06462757  0.34255850  0.70039089  1
  O  O8  1  0.72207008  0.35783339  0.65744150  1
  O  O9  1  0.36409948  0.66320955  0.73008559  1
  O  O10  1  0.27260563  0.93625873  0.63518948  1
  O  O11  1  0.63741515  0.36481052  0.30106824  1
  O  O12  1  0.30432160  0.63284990  0.36628706  1
  O  O13  1  0.70088793  0.06687504  0.33679045  1
  O  O14  1  0.93803554  0.63371294  0.26656384  1
  O  O15  1  0.67147070  0.73343616  0.36715010  1
  O  O16  1  0.63401189  0.26991441  0.93312496  1
  O  O17  1  0.33634791  0.69893176  0.06374127  1
loop_
_geom_bond_atom_site_label_1
_geom_bond_atom_site_label_2
_geom_bond_distance
_geom_bond_site_symmetry_2
O0 Os2 1.949711 1_555
O0 Ru1 2.009345 1_545
O0 Sr0 2.807151 1_445
O0 Sr3 2.875069 1_555
O1 Os0 1.949711 1_555
O1 Ru2 2.009352 1_556
O1 Sr1 2.807151 1_556
O1 Sr3 2.875069 1_556
O2 Os1 1.949711 1_555
O2 Ru0 2.009345 1_655
O2 Sr2 2.807151 1_555
O2 Sr3 2.875068 1_666
O3 Os0 1.950291 1_555
O3 Ru2 1.999252 1_556
O3 Sr0 2.803164 1_556
O3 Sr2 2.849142 1_555
O4 Os1 1.950290 1_555
O4 Ru0 1.999246 1_655
O4 Sr1 2.803161 1_655
O4 Sr0 2.849150 1_545
O5 Os2 1.950290 1_555
O5 Ru1 1.999246 1_545
O5 Sr2 2.803166 1_545
O5 Sr1 2.849144 1_656
O6 Os0 1.958652 1_555
O6 Os2 1.973234 1_555
O6 Sr0 2.565055 1_445
O6 Sr2 2.752576 1_555
O7 Os1 1.958638 1_455
O7 Os0 1.973246 1_555
O7 Sr1 2.565047 1_556
O7 Sr0 2.752588 1_445
O8 Os2 1.958647 1_555
O8 Os1 1.973239 1_555
O8 Sr2 2.565044 1_555
O8 Sr1 2.752588 1_656
O9 Os0 1.943280 1_555
O9 Ru0 1.992396 1_555
O9 Sr2 2.525692 1_555
O9 Sr3 2.673856 1_566
O10 Os2 1.945479 1_565
O10 Ru0 1.970752 1_555
O10 Sr3 2.531006 1_566
O10 Sr0 2.681374 1_455
O11 Os1 1.945488 1_555
O11 Ru2 1.970746 1_555
O11 Sr3 2.531003 1_555
O11 Sr2 2.681375 1_555
O12 Ru0 1.961413 1_555
O12 Ru1 1.970327 1_555
O12 Sr1 2.504810 1_555
O12 Sr2 2.602342 1_555
O13 Os1 1.943287 1_555
O13 Ru1 1.992382 1_545
O13 Sr0 2.525702 1_545
O13 Sr3 2.673852 1_555
O14 Ru2 1.961413 1_555
O14 Ru0 1.970318 1_655
O14 Sr0 2.504813 1_555
O14 Sr1 2.602342 1_655
O15 Ru1 1.961413 1_555
O15 Ru2 1.970331 1_555
O15 Sr2 2.504803 1_555
O15 Sr0 2.602351 1_555
O16 Os2 1.943287 1_555
O16 Ru2 1.992378 1_556
O16 Sr1 2.525709 1_656
O16 Sr3 2.673843 1_556
O17 Os0 1.945479 1_554
O17 Ru1 1.970752 1_555
O17 Sr3 2.530999 1_565
O17 Sr1 2.681383 1_555
