# generated using pymatgen
data_CsGa(CO3)2
_symmetry_space_group_name_H-M   'P 1'
_cell_length_a   7.42207977
_cell_length_b   7.42207892
_cell_length_c   7.42207911
_cell_angle_alpha   37.60121547
_cell_angle_beta   37.60121762
_cell_angle_gamma   37.60121155
_symmetry_Int_Tables_number   1
_chemical_formula_structural   CsGa(CO3)2
_chemical_formula_sum   'Cs1 Ga1 C2 O6'
_cell_volume   136.53837249
_cell_formula_units_Z   1
loop_
 _symmetry_equiv_pos_site_id
 _symmetry_equiv_pos_as_xyz
  1  'x, y, z'
loop_
 _atom_site_type_symbol
 _atom_site_label
 _atom_site_symmetry_multiplicity
 _atom_site_fract_x
 _atom_site_fract_y
 _atom_site_fract_z
 _atom_site_occupancy
  Cs  Cs0  1  0.50000000  0.50000000  0.50000000  1
  Ga  Ga0  1  0.00000000  0.00000000  0.00000000  1
  C  C0  1  0.28067816  0.28067816  0.28067816  1
  C  C1  1  0.71932184  0.71932184  0.71932184  1
  O  O0  1  0.22447906  0.57048181  0.03988059  1
  O  O1  1  0.57048281  0.03988059  0.22447906  1
  O  O2  1  0.96011941  0.77551994  0.42951719  1
  O  O3  1  0.03987959  0.22448006  0.57048281  1
  O  O4  1  0.42951719  0.96011941  0.77552094  1
  O  O5  1  0.77551994  0.42951819  0.96011841  1
loop_
_geom_bond_atom_site_label_1
_geom_bond_atom_site_label_2
_geom_bond_distance
_geom_bond_site_symmetry_2
Cs0 O0 3.025578 1_556
Cs0 O3 3.025581 1_655
Cs0 O1 3.025583 1_565
Cs0 O4 3.025583 1_545
Cs0 O2 3.025588 1_455
Cs0 O5 3.025589 1_554
Ga0 O2 1.973915 1_445
Ga0 O5 1.973918 1_454
Ga0 O4 1.973918 1_544
Ga0 O1 1.973918 1_455
Ga0 O3 1.973918 1_554
Ga0 O0 1.973923 1_545
C0 O0 1.289552 1_555
C0 O1 1.289554 1_555
C0 O3 1.289556 1_555
C1 O5 1.289549 1_555
C1 O2 1.289554 1_555
C1 O4 1.289554 1_555
