# generated using pymatgen
data_Ba2Ca3(GaSb3)2
_symmetry_space_group_name_H-M   'P 1'
_cell_length_a   4.67094547
_cell_length_b   12.60549040
_cell_length_c   14.23195761
_cell_angle_alpha   90.00000000
_cell_angle_beta   90.00000000
_cell_angle_gamma   90.00000000
_symmetry_Int_Tables_number   1
_chemical_formula_structural   Ba2Ca3(GaSb3)2
_chemical_formula_sum   'Ba4 Ca6 Ga4 Sb12'
_cell_volume   837.97137722
_cell_formula_units_Z   2
loop_
 _symmetry_equiv_pos_site_id
 _symmetry_equiv_pos_as_xyz
  1  'x, y, z'
loop_
 _atom_site_type_symbol
 _atom_site_label
 _atom_site_symmetry_multiplicity
 _atom_site_fract_x
 _atom_site_fract_y
 _atom_site_fract_z
 _atom_site_occupancy
  Ba  Ba0  1  0.50000000  0.67826976  0.47616671  1
  Ba  Ba1  1  0.50000000  0.32173024  0.52383329  1
  Ba  Ba2  1  0.50000000  0.82173024  0.97616671  1
  Ba  Ba3  1  0.50000000  0.17826976  0.02383329  1
  Ca  Ca0  1  0.50000000  0.00000000  0.50000000  1
  Ca  Ca1  1  0.50000000  0.50000000  0.00000000  1
  Ca  Ca2  1  0.50000000  0.91680606  0.24573716  1
  Ca  Ca3  1  0.50000000  0.08319394  0.75426284  1
  Ca  Ca4  1  0.50000000  0.41680606  0.25426284  1
  Ca  Ca5  1  0.50000000  0.58319394  0.74573716  1
  Ga  Ga0  1  0.00000000  0.31573108  0.71128562  1
  Ga  Ga1  1  0.00000000  0.68426892  0.28871438  1
  Ga  Ga2  1  0.00000000  0.81573108  0.78871438  1
  Ga  Ga3  1  0.00000000  0.18426892  0.21128562  1
  Sb  Sb0  1  0.00000000  0.98765291  0.10151140  1
  Sb  Sb1  1  0.00000000  0.01234709  0.89848860  1
  Sb  Sb2  1  0.00000000  0.48765291  0.39848860  1
  Sb  Sb3  1  0.00000000  0.51234709  0.60151140  1
  Sb  Sb4  1  0.50000000  0.16435767  0.31318498  1
  Sb  Sb5  1  0.50000000  0.83564233  0.68681502  1
  Sb  Sb6  1  0.50000000  0.66435767  0.18681502  1
  Sb  Sb7  1  0.50000000  0.33564233  0.81318498  1
  Sb  Sb8  1  0.00000000  0.36603830  0.10685601  1
  Sb  Sb9  1  0.00000000  0.63396170  0.89314399  1
  Sb  Sb10  1  0.00000000  0.86603830  0.39314399  1
  Sb  Sb11  1  0.00000000  0.13396170  0.60685601  1
loop_
_geom_bond_atom_site_label_1
_geom_bond_atom_site_label_2
_geom_bond_distance
_geom_bond_site_symmetry_2
Ba0 Sb2 3.528474 1_555
Ba0 Sb2 3.528474 1_655
Ba0 Sb10 3.528858 1_555
Ba0 Sb10 3.528858 1_655
Ba0 Ga1 3.546460 1_555
Ba0 Ga1 3.546460 1_655
Ba0 Sb5 3.594848 1_555
Ba0 Sb3 3.607112 1_555
Ba0 Sb3 3.607112 1_655
Ba1 Sb3 3.528474 1_655
Ba1 Sb3 3.528474 1_555
Ba1 Sb11 3.528858 1_655
Ba1 Sb11 3.528858 1_555
Ba1 Ga0 3.546460 1_555
Ba1 Ga0 3.546460 1_655
Ba1 Sb4 3.594848 1_555
Ba1 Sb2 3.607112 1_555
Ba1 Sb2 3.607112 1_655
Ba2 Sb1 3.528474 1_665
Ba2 Sb1 3.528474 1_565
Ba2 Sb9 3.528858 1_655
Ba2 Sb9 3.528858 1_555
Ba2 Ga2 3.546460 1_655
Ba2 Ga2 3.546460 1_555
Ba2 Sb6 3.594848 1_556
Ba2 Sb0 3.607112 1_656
Ba2 Sb0 3.607112 1_556
Ba3 Sb0 3.528474 1_645
Ba3 Sb0 3.528474 1_545
Ba3 Sb8 3.528858 1_555
Ba3 Sb8 3.528858 1_655
Ba3 Ga3 3.546460 1_655
Ba3 Ga3 3.546460 1_555
Ba3 Sb7 3.594848 1_554
Ba3 Sb1 3.607112 1_654
Ba3 Sb1 3.607112 1_554
Ca0 Sb11 3.258638 1_555
Ca0 Sb11 3.258638 1_655
Ca0 Sb10 3.258638 1_645
Ca0 Sb10 3.258638 1_545
Ca0 Sb5 3.370654 1_545
Ca0 Sb4 3.370654 1_555
Ca1 Sb9 3.258638 1_654
Ca1 Sb8 3.258638 1_555
Ca1 Sb8 3.258638 1_655
Ca1 Sb9 3.258638 1_554
Ca1 Sb6 3.370654 1_555
Ca1 Sb7 3.370654 1_554
Ca2 Sb10 3.203920 1_555
Ca2 Sb10 3.203920 1_655
Ca2 Sb0 3.234999 1_655
Ca2 Sb0 3.234999 1_555
Ca2 Sb4 3.264815 1_565
Ca2 Sb6 3.290872 1_555
Ca3 Sb11 3.203920 1_555
Ca3 Sb11 3.203920 1_655
Ca3 Sb1 3.234999 1_655
Ca3 Sb1 3.234999 1_555
Ca3 Sb5 3.264815 1_545
Ca3 Sb7 3.290872 1_555
Ca4 Sb8 3.203920 1_555
Ca4 Sb8 3.203920 1_655
Ca4 Sb2 3.234999 1_555
Ca4 Sb2 3.234999 1_655
Ca4 Sb6 3.264815 1_555
Ca4 Sb4 3.290872 1_555
Ca5 Sb9 3.203920 1_555
Ca5 Sb9 3.203920 1_655
Ca5 Sb3 3.234999 1_655
Ca5 Sb3 3.234999 1_555
Ca5 Sb7 3.264815 1_555
Ca5 Sb5 3.290872 1_555
Ga0 Sb11 2.731103 1_555
Ga0 Sb7 2.760541 1_455
Ga0 Sb7 2.760541 1_555
Ga0 Sb3 2.929754 1_555
Ga1 Sb10 2.731103 1_555
Ga1 Sb6 2.760541 1_455
Ga1 Sb6 2.760541 1_555
Ga1 Sb2 2.929754 1_555
Ga2 Sb9 2.731103 1_555
Ga2 Sb5 2.760541 1_455
Ga2 Sb5 2.760541 1_555
Ga2 Sb1 2.929754 1_565
Ga3 Sb8 2.731103 1_555
Ga3 Sb4 2.760541 1_455
Ga3 Sb4 2.760541 1_555
Ga3 Sb0 2.929754 1_545
Sb0 Sb1 2.906131 1_564
Sb2 Sb3 2.906131 1_555
