# generated using pymatgen
data_Ba3ScP3
_symmetry_space_group_name_H-M   'P 1'
_cell_length_a   10.52338860
_cell_length_b   10.52338977
_cell_length_c   13.11957064
_cell_angle_alpha   90.00000000
_cell_angle_beta   90.00000000
_cell_angle_gamma   140.73925677
_symmetry_Int_Tables_number   1
_chemical_formula_structural   Ba3ScP3
_chemical_formula_sum   'Ba12 Sc4 P12'
_cell_volume   919.45827896
_cell_formula_units_Z   4
loop_
 _symmetry_equiv_pos_site_id
 _symmetry_equiv_pos_as_xyz
  1  'x, y, z'
loop_
 _atom_site_type_symbol
 _atom_site_label
 _atom_site_symmetry_multiplicity
 _atom_site_fract_x
 _atom_site_fract_y
 _atom_site_fract_z
 _atom_site_occupancy
  Ba  Ba0  1  0.85170001  0.85170001  0.34097098  1
  Ba  Ba1  1  0.14829999  0.14829999  0.65902902  1
  Ba  Ba2  1  0.64829999  0.64829999  0.84097098  1
  Ba  Ba3  1  0.35170001  0.35170001  0.15902902  1
  Ba  Ba4  1  0.84580382  0.48845105  0.13293407  1
  Ba  Ba5  1  0.51154895  0.15419618  0.86706593  1
  Ba  Ba6  1  0.01154895  0.65419618  0.63293407  1
  Ba  Ba7  1  0.34580382  0.98845105  0.36706593  1
  Ba  Ba8  1  0.15419618  0.51154895  0.86706593  1
  Ba  Ba9  1  0.48845105  0.84580382  0.13293407  1
  Ba  Ba10  1  0.98845105  0.34580382  0.36706593  1
  Ba  Ba11  1  0.65419618  0.01154895  0.63293407  1
  Sc  Sc0  1  0.08571689  0.91428311  0.00000000  1
  Sc  Sc1  1  0.58571689  0.41428311  0.50000000  1
  Sc  Sc2  1  0.91428311  0.08571689  0.00000000  1
  Sc  Sc3  1  0.41428311  0.58571689  0.50000000  1
  P  P0  1  0.79063869  0.79063869  0.09495539  1
  P  P1  1  0.20936131  0.20936131  0.90504461  1
  P  P2  1  0.70936131  0.70936131  0.59495539  1
  P  P3  1  0.29063869  0.29063869  0.40504461  1
  P  P4  1  0.04390882  0.35929781  0.11962412  1
  P  P5  1  0.64070219  0.95609118  0.88037588  1
  P  P6  1  0.14070219  0.45609118  0.61962412  1
  P  P7  1  0.54390882  0.85929781  0.38037588  1
  P  P8  1  0.95609118  0.64070219  0.88037588  1
  P  P9  1  0.35929781  0.04390882  0.11962412  1
  P  P10  1  0.85929781  0.54390882  0.38037588  1
  P  P11  1  0.45609118  0.14070219  0.61962412  1
loop_
_geom_bond_atom_site_label_1
_geom_bond_atom_site_label_2
_geom_bond_distance
_geom_bond_site_symmetry_2
Ba0 P3 3.215424 1_665
Ba0 P0 3.256367 1_555
Ba0 P7 3.341534 1_555
Ba0 P10 3.341535 1_555
Ba0 P2 3.480839 1_555
Ba1 P2 3.215424 1_445
Ba1 P1 3.256367 1_555
Ba1 P11 3.341534 1_555
Ba1 P6 3.341535 1_555
Ba1 P3 3.480839 1_555
Ba2 P1 3.215424 1_555
Ba2 P2 3.256367 1_555
Ba2 P8 3.341534 1_555
Ba2 P5 3.341535 1_555
Ba2 P0 3.480839 1_556
Ba3 P0 3.215424 1_555
Ba3 P3 3.256367 1_555
Ba3 P4 3.341534 1_555
Ba3 P9 3.341535 1_555
Ba3 P1 3.480839 1_554
Ba4 P4 3.257537 1_655
Ba4 P10 3.281933 1_555
Ba4 P9 3.322342 1_555
Ba4 Sc0 3.460799 1_655
Ba4 P8 3.466046 1_554
Ba4 P0 3.681939 1_555
Ba4 P9 3.805938 1_665
Ba5 P5 3.257537 1_545
Ba5 P11 3.281933 1_555
Ba5 P8 3.322342 1_555
Ba5 Sc0 3.460799 1_546
Ba5 P9 3.466046 1_556
Ba5 P1 3.681939 1_555
Ba5 P8 3.805938 1_445
Ba6 P6 3.257537 1_555
Ba6 P8 3.281933 1_455
Ba6 P11 3.322342 1_565
Ba6 Sc1 3.460799 1_455
Ba6 P10 3.466046 1_455
Ba6 P2 3.681939 1_455
Ba6 P11 3.805938 1_455
Ba7 P7 3.257537 1_555
Ba7 P9 3.281933 1_565
Ba7 P10 3.322342 1_455
Ba7 Sc1 3.460799 1_565
Ba7 P11 3.466046 1_565
Ba7 P3 3.681939 1_565
Ba7 P10 3.805938 1_565
Ba8 P8 3.257537 1_455
Ba8 P6 3.281933 1_555
Ba8 P5 3.322342 1_555
Ba8 Sc2 3.460799 1_456
Ba8 P4 3.466046 1_556
Ba8 P1 3.681939 1_555
Ba8 P5 3.805938 1_445
Ba9 P9 3.257537 1_565
Ba9 P7 3.281933 1_555
Ba9 P4 3.322342 1_555
Ba9 Sc2 3.460799 1_565
Ba9 P5 3.466046 1_554
Ba9 P0 3.681939 1_555
Ba9 P4 3.805938 1_665
Ba10 P10 3.257537 1_555
Ba10 P4 3.281933 1_655
Ba10 P7 3.322342 1_545
Ba10 Sc3 3.460799 1_655
Ba10 P6 3.466046 1_655
Ba10 P3 3.681939 1_655
Ba10 P7 3.805938 1_655
Ba11 P11 3.257537 1_555
Ba11 P5 3.281933 1_545
Ba11 P6 3.322342 1_655
Ba11 Sc3 3.460799 1_545
Ba11 P7 3.466046 1_545
Ba11 P2 3.681939 1_545
Ba11 P6 3.805938 1_545
P0 Sc0 2.575003 1_655
P0 Sc2 2.575003 1_565
P1 Sc2 2.575003 1_456
P1 Sc0 2.575003 1_546
P2 Sc3 2.575003 1_555
P2 Sc1 2.575003 1_555
P3 Sc1 2.575003 1_555
P3 Sc3 2.575003 1_555
P4 Sc2 2.555572 1_455
P5 Sc2 2.555571 1_566
P6 Sc3 2.555571 1_555
P7 Sc3 2.555572 1_555
P8 Sc0 2.555572 1_656
P9 Sc0 2.555571 1_545
P10 Sc1 2.555571 1_555
P11 Sc1 2.555572 1_555
