# generated using pymatgen
data_Sc2Sb2IrPt
_symmetry_space_group_name_H-M   'P 1'
_cell_length_a   7.75692741
_cell_length_b   7.75692737
_cell_length_c   7.75692602
_cell_angle_alpha   33.60323484
_cell_angle_beta   33.60323561
_cell_angle_gamma   33.60323151
_symmetry_Int_Tables_number   1
_chemical_formula_structural   Sc2Sb2IrPt
_chemical_formula_sum   'Sc2 Sb2 Ir1 Pt1'
_cell_volume   127.34552368
_cell_formula_units_Z   1
loop_
 _symmetry_equiv_pos_site_id
 _symmetry_equiv_pos_as_xyz
  1  'x, y, z'
loop_
 _atom_site_type_symbol
 _atom_site_label
 _atom_site_symmetry_multiplicity
 _atom_site_fract_x
 _atom_site_fract_y
 _atom_site_fract_z
 _atom_site_occupancy
  Sc  Sc0  1  0.24902794  0.24902794  0.24902794  1
  Sc  Sc1  1  0.75088144  0.75088144  0.75088144  1
  Sb  Sb0  1  0.99831187  0.99831187  0.99831187  1
  Sb  Sb1  1  0.50185170  0.50185170  0.50185170  1
  Ir  Ir0  1  0.87414866  0.87414866  0.87414866  1
  Pt  Pt0  1  0.37577639  0.37577639  0.37577639  1
loop_
_geom_bond_atom_site_label_1
_geom_bond_atom_site_label_2
_geom_bond_distance
_geom_bond_site_symmetry_2
Sb0 Sc0 3.160349 1_665
Sb0 Sc0 3.160350 1_656
Sb0 Sc0 3.160350 1_566
Sb0 Sc1 3.202225 1_556
Sb0 Sc1 3.202226 1_565
Sb0 Sc1 3.202226 1_655
Sb1 Sc0 3.134064 1_556
Sb1 Sc0 3.134065 1_565
Sb1 Sc0 3.134065 1_655
Sb1 Sc1 3.181706 1_554
Sb1 Sc1 3.181707 1_545
Sb1 Sc1 3.181707 1_455
Ir0 Sc1 2.704021 1_555
Ir0 Sb0 2.723676 1_555
Ir0 Sb1 2.726512 1_565
Ir0 Sb1 2.726512 1_655
Ir0 Sb1 2.726513 1_556
Ir0 Sc0 2.744797 1_656
Ir0 Sc0 2.744797 1_566
Ir0 Sc0 2.744797 1_665
Pt0 Sc1 2.746445 1_545
Pt0 Sc1 2.746445 1_455
Pt0 Sc1 2.746446 1_554
Pt0 Sb0 2.764144 1_454
Pt0 Sb0 2.764144 1_544
Pt0 Sb0 2.764145 1_445
Pt0 Sb1 2.765620 1_555
Pt0 Sc0 2.780386 1_555
