# generated using pymatgen
data_Ba5Sr(InAs3)2
_symmetry_space_group_name_H-M   'P 1'
_cell_length_a   4.60914784
_cell_length_b   13.89966979
_cell_length_c   14.69983228
_cell_angle_alpha   90.00000000
_cell_angle_beta   90.00000000
_cell_angle_gamma   90.00000000
_symmetry_Int_Tables_number   1
_chemical_formula_structural   Ba5Sr(InAs3)2
_chemical_formula_sum   'Ba10 Sr2 In4 As12'
_cell_volume   941.75405968
_cell_formula_units_Z   2
loop_
 _symmetry_equiv_pos_site_id
 _symmetry_equiv_pos_as_xyz
  1  'x, y, z'
loop_
 _atom_site_type_symbol
 _atom_site_label
 _atom_site_symmetry_multiplicity
 _atom_site_fract_x
 _atom_site_fract_y
 _atom_site_fract_z
 _atom_site_occupancy
  Ba  Ba0  1  0.75000000  0.13013065  0.99579088  1
  Ba  Ba1  1  0.25000000  0.27531494  0.20175414  1
  Ba  Ba2  1  0.25000000  0.36986935  0.49579088  1
  Ba  Ba3  1  0.75000000  0.64553199  0.50127824  1
  Ba  Ba4  1  0.75000000  0.42448392  0.89375879  1
  Ba  Ba5  1  0.25000000  0.85446801  0.00127824  1
  Ba  Ba6  1  0.75000000  0.22468506  0.70175414  1
  Ba  Ba7  1  0.75000000  0.91968373  0.60851571  1
  Ba  Ba8  1  0.25000000  0.07551608  0.39375879  1
  Ba  Ba9  1  0.25000000  0.58031627  0.10851571  1
  Sr  Sr0  1  0.25000000  0.78050198  0.29245153  1
  Sr  Sr1  1  0.75000000  0.71949802  0.79245153  1
  In  In0  1  0.75000000  0.94323880  0.20510784  1
  In  In1  1  0.75000000  0.45048315  0.29546540  1
  In  In2  1  0.25000000  0.55676120  0.70510784  1
  In  In3  1  0.25000000  0.04951685  0.79546540  1
  As  As0  1  0.75000000  0.76332459  0.13606229  1
  As  As1  1  0.25000000  0.08734298  0.61604087  1
  As  As2  1  0.25000000  0.59744478  0.88392223  1
  As  As3  1  0.75000000  0.90255522  0.38392223  1
  As  As4  1  0.25000000  0.73667541  0.63606229  1
  As  As5  1  0.25000000  0.03973390  0.15013134  1
  As  As6  1  0.75000000  0.94869375  0.84849443  1
  As  As7  1  0.75000000  0.46026610  0.65013134  1
  As  As8  1  0.25000000  0.55130625  0.34849443  1
  As  As9  1  0.75000000  0.26956173  0.37122530  1
  As  As10  1  0.75000000  0.41265702  0.11604087  1
  As  As11  1  0.25000000  0.23043827  0.87122530  1
loop_
_geom_bond_atom_site_label_1
_geom_bond_atom_site_label_2
_geom_bond_distance
_geom_bond_site_symmetry_2
As0 In0 2.698867 1_555
As0 Sr0 3.263892 1_555
As0 Sr0 3.263892 1_655
As0 Ba5 3.292653 1_555
As0 Ba5 3.292653 1_655
As0 Ba9 3.456258 1_555
As0 Ba9 3.456258 1_655
As1 In3 2.689405 1_555
As1 Ba6 3.246984 1_455
As1 Ba6 3.246984 1_555
As1 Ba8 3.271642 1_555
As1 Ba7 3.279344 1_545
As1 Ba7 3.279344 1_445
As2 In2 2.688681 1_555
As2 Sr1 3.161824 1_555
As2 Sr1 3.161824 1_455
As2 Ba9 3.310060 1_556
As2 Ba4 3.333416 1_555
As2 Ba4 3.333416 1_455
As3 In0 2.688681 1_555
As3 Sr0 3.161824 1_655
As3 Sr0 3.161824 1_555
As3 Ba7 3.310060 1_555
As3 Ba8 3.333416 1_565
As3 Ba8 3.333416 1_665
As4 In2 2.698867 1_555
As4 Sr1 3.263892 1_455
As4 Sr1 3.263892 1_555
As4 Ba3 3.292653 1_455
As4 Ba3 3.292653 1_555
As4 Ba7 3.456258 1_555
As4 Ba7 3.456258 1_455
As5 In0 2.786236 1_445
As5 In0 2.786236 1_545
As5 Ba1 3.361278 1_555
As5 Ba5 3.379226 1_545
As5 Ba0 3.469463 1_554
As5 Ba0 3.469463 1_454
As5 Ba8 3.615654 1_555
As6 In3 2.807606 1_665
As6 In3 2.807606 1_565
As6 Sr1 3.290540 1_555
As6 Ba0 3.323895 1_565
As6 Ba5 3.474254 1_656
As6 Ba5 3.474254 1_556
As6 Ba7 3.550618 1_555
As7 In2 2.786236 1_555
As7 In2 2.786236 1_655
As7 Ba6 3.361278 1_555
As7 Ba3 3.379226 1_555
As7 Ba2 3.469463 1_555
As7 Ba2 3.469463 1_655
As7 Ba4 3.615654 1_555
As8 In1 2.807606 1_455
As8 In1 2.807606 1_555
As8 Sr0 3.290540 1_555
As8 Ba2 3.323895 1_555
As8 Ba3 3.474254 1_455
As8 Ba3 3.474254 1_555
As8 Ba9 3.550618 1_555
As9 In1 2.750308 1_555
As9 Ba2 3.256973 1_555
As9 Ba2 3.256973 1_655
As9 Ba1 3.394631 1_655
As9 Ba1 3.394631 1_555
As9 Ba8 3.563076 1_555
As9 Ba8 3.563076 1_655
As10 In1 2.689405 1_555
As10 Ba1 3.246984 1_655
As10 Ba1 3.246984 1_555
As10 Ba4 3.271642 1_554
As10 Ba9 3.279344 1_555
As10 Ba9 3.279344 1_655
As11 In3 2.750308 1_555
As11 Ba0 3.256973 1_455
As11 Ba0 3.256973 1_555
As11 Ba6 3.394631 1_455
As11 Ba6 3.394631 1_555
As11 Ba4 3.563076 1_555
As11 Ba4 3.563076 1_455
