# generated using pymatgen
data_Hf4ZnSi5Ir7
_symmetry_space_group_name_H-M   'P 1'
_cell_length_a   6.97208606
_cell_length_b   6.97208656
_cell_length_c   6.97208608
_cell_angle_alpha   108.05997281
_cell_angle_beta   110.18140980
_cell_angle_gamma   110.18141959
_symmetry_Int_Tables_number   1
_chemical_formula_structural   Hf4ZnSi5Ir7
_chemical_formula_sum   'Hf4 Zn1 Si5 Ir7'
_cell_volume   260.77704243
_cell_formula_units_Z   1
loop_
 _symmetry_equiv_pos_site_id
 _symmetry_equiv_pos_as_xyz
  1  'x, y, z'
loop_
 _atom_site_type_symbol
 _atom_site_label
 _atom_site_symmetry_multiplicity
 _atom_site_fract_x
 _atom_site_fract_y
 _atom_site_fract_z
 _atom_site_occupancy
  Hf  Hf0  1  0.52525125  0.52852263  0.52852263  1
  Hf  Hf1  1  1.00000000  0.00327138  0.52852263  1
  Hf  Hf2  1  1.00000000  0.52852263  0.00327138  1
  Hf  Hf3  1  0.47474875  0.00327138  0.00327138  1
  Zn  Zn0  1  1.00000000  0.28829005  0.28829005  1
  Si  Si0  1  0.31655974  0.00779244  0.32435217  1
  Si  Si1  1  0.31655974  0.32435217  0.00779244  1
  Si  Si2  1  0.00000000  0.65876179  0.65876179  1
  Si  Si3  1  0.68344026  0.00779244  0.69123270  1
  Si  Si4  1  0.68344026  0.69123270  0.00779244  1
  Ir  Ir0  1  0.50000000  0.75066221  0.25066221  1
  Ir  Ir1  1  0.25335391  0.49959168  0.75294659  1
  Ir  Ir2  1  0.74664609  0.24623777  0.49959168  1
  Ir  Ir3  1  0.74664609  0.49959168  0.24623777  1
  Ir  Ir4  1  0.50000000  0.25066221  0.75066221  1
  Ir  Ir5  1  0.25335391  0.75294659  0.49959168  1
  Ir  Ir6  1  0.00000000  0.95849725  0.95849725  1
loop_
_geom_bond_atom_site_label_1
_geom_bond_atom_site_label_2
_geom_bond_distance
_geom_bond_site_symmetry_2
Hf0 Si4 2.812924 1_556
Hf0 Si3 2.812924 1_565
Hf0 Si2 2.818903 1_655
Hf0 Ir4 2.827690 1_555
Hf0 Ir0 2.827690 1_555
Hf0 Ir1 2.839211 1_555
Hf0 Ir5 2.839211 1_555
Hf0 Ir3 2.891651 1_555
Hf0 Ir2 2.891652 1_555
Hf0 Zn0 2.969494 1_455
Hf0 Si1 3.007680 1_555
Hf0 Si0 3.007680 1_555
Hf0 Ir6 3.108796 1_655
Hf1 Si3 2.812923 1_555
Hf1 Si1 2.812924 1_656
Hf1 Si2 2.818903 1_645
Hf1 Ir4 2.827690 1_655
Hf1 Ir0 2.827690 1_545
Hf1 Ir1 2.839206 1_655
Hf1 Ir2 2.839206 1_555
Hf1 Ir5 2.891646 1_645
Hf1 Ir3 2.891652 1_545
Hf1 Zn0 2.969494 1_555
Hf1 Si0 3.007680 1_655
Hf1 Si4 3.007680 1_545
Hf1 Ir6 3.108796 1_645
Hf2 Si4 2.812923 1_555
Hf2 Si0 2.812924 1_665
Hf2 Si2 2.818903 1_654
Hf2 Ir0 2.827690 1_655
Hf2 Ir4 2.827690 1_554
Hf2 Ir3 2.839205 1_555
Hf2 Ir5 2.839206 1_655
Hf2 Ir1 2.891646 1_654
Hf2 Ir2 2.891652 1_554
Hf2 Zn0 2.969494 1_555
Hf2 Si1 3.007680 1_655
Hf2 Si3 3.007680 1_554
Hf2 Ir6 3.108796 1_654
Hf3 Si0 2.812923 1_555
Hf3 Si1 2.812923 1_555
Hf3 Si2 2.818903 1_544
Hf3 Ir4 2.827690 1_554
Hf3 Ir0 2.827690 1_545
Hf3 Ir2 2.839206 1_555
Hf3 Ir3 2.839206 1_555
Hf3 Ir5 2.891652 1_544
Hf3 Ir1 2.891652 1_544
Hf3 Zn0 2.969494 1_555
Hf3 Si3 3.007680 1_554
Hf3 Si4 3.007680 1_545
Hf3 Ir6 3.108796 1_544
Ir0 Si4 2.469745 1_555
Ir0 Si1 2.469745 1_555
Ir0 Si0 2.564749 1_565
Ir0 Si3 2.564750 1_565
Ir1 Si2 2.405615 1_555
Ir1 Si1 2.453820 1_556
Ir1 Si4 2.453825 1_556
Ir1 Zn0 2.661307 1_455
Ir2 Si2 2.405614 1_655
Ir2 Si3 2.453826 1_555
Ir2 Si0 2.453826 1_555
Ir2 Zn0 2.661301 1_555
Ir3 Si2 2.405614 1_655
Ir3 Si4 2.453826 1_555
Ir3 Si1 2.453826 1_555
Ir3 Zn0 2.661301 1_555
Ir4 Si3 2.469745 1_555
Ir4 Si0 2.469745 1_555
Ir4 Si1 2.564749 1_556
Ir4 Si4 2.564750 1_556
Ir5 Si2 2.405615 1_555
Ir5 Si0 2.453820 1_565
Ir5 Si3 2.453825 1_565
Ir5 Zn0 2.661307 1_455
Ir6 Si2 2.454915 1_555
Ir6 Si4 2.558193 1_456
Ir6 Si1 2.558193 1_566
Ir6 Si3 2.558193 1_465
Ir6 Si0 2.558193 1_566
Ir6 Zn0 2.701093 1_466
