# generated using pymatgen
data_Zr6Al16OsPt6
_symmetry_space_group_name_H-M   'P 1'
_cell_length_a   8.73746255
_cell_length_b   8.73746333
_cell_length_c   8.71804791
_cell_angle_alpha   60.07347891
_cell_angle_beta   60.07347596
_cell_angle_gamma   59.87178813
_symmetry_Int_Tables_number   1
_chemical_formula_structural   Zr6Al16OsPt6
_chemical_formula_sum   'Zr6 Al16 Os1 Pt6'
_cell_volume   470.68772833
_cell_formula_units_Z   1
loop_
 _symmetry_equiv_pos_site_id
 _symmetry_equiv_pos_as_xyz
  1  'x, y, z'
loop_
 _atom_site_type_symbol
 _atom_site_label
 _atom_site_symmetry_multiplicity
 _atom_site_fract_x
 _atom_site_fract_y
 _atom_site_fract_z
 _atom_site_occupancy
  Zr  Zr0  1  0.69138715  0.69138715  0.30861285  1
  Zr  Zr1  1  0.31823906  0.68176094  0.31365888  1
  Zr  Zr2  1  0.68176094  0.31823906  0.31365888  1
  Zr  Zr3  1  0.30861285  0.30861285  0.69138715  1
  Zr  Zr4  1  0.68176094  0.31823906  0.68634112  1
  Zr  Zr5  1  0.31823906  0.68176094  0.68634112  1
  Al  Al0  1  0.87978088  0.87978088  0.36023067  1
  Al  Al1  1  0.87103727  0.36204936  0.88345618  1
  Al  Al2  1  0.36204936  0.87103727  0.88345618  1
  Al  Al3  1  0.87978088  0.87978088  0.88020557  1
  Al  Al4  1  0.12021912  0.12021912  0.63976933  1
  Al  Al5  1  0.12896273  0.63795064  0.11654382  1
  Al  Al6  1  0.63795064  0.12896273  0.11654382  1
  Al  Al7  1  0.12021912  0.12021912  0.11979443  1
  Al  Al8  1  0.66423295  0.66423295  0.00461204  1
  Al  Al9  1  0.66364990  0.00692001  0.66471505  1
  Al  Al10  1  0.00692001  0.66364990  0.66471505  1
  Al  Al11  1  0.66423295  0.66423295  0.66692006  1
  Al  Al12  1  0.33576705  0.33576705  0.99538796  1
  Al  Al13  1  0.33635010  0.99307999  0.33528495  1
  Al  Al14  1  0.99307999  0.33635010  0.33528495  1
  Al  Al15  1  0.33576705  0.33576705  0.33307994  1
  Os  Os0  1  0.50000000  0.50000000  0.00000000  1
  Pt  Pt0  1  0.00000000  0.00000000  0.00000000  1
  Pt  Pt1  1  0.00000000  0.00000000  0.50000000  1
  Pt  Pt2  1  0.50000000  0.00000000  0.50000000  1
  Pt  Pt3  1  0.00000000  0.50000000  0.50000000  1
  Pt  Pt4  1  0.00000000  0.50000000  0.00000000  1
  Pt  Pt5  1  0.50000000  0.00000000  0.00000000  1
loop_
_geom_bond_atom_site_label_1
_geom_bond_atom_site_label_2
_geom_bond_distance
_geom_bond_site_symmetry_2
Zr0 Zr1 3.281386 1_555
Zr0 Zr5 3.281386 1_555
Zr0 Zr2 3.281386 1_555
Zr0 Zr4 3.281386 1_555
Zr1 Zr2 3.170102 1_555
Zr1 Zr5 3.249062 1_555
Zr1 Zr3 3.281386 1_555
Zr2 Zr4 3.249062 1_555
Zr2 Zr3 3.281386 1_555
Zr3 Zr4 3.281386 1_555
Zr3 Zr5 3.281386 1_555
Zr4 Zr5 3.170102 1_555
Al0 Pt0 2.567911 1_665
Al0 Pt2 2.709788 1_565
Al0 Pt3 2.709789 1_655
Al0 Pt1 2.711703 1_665
Al0 Zr0 3.133684 1_555
Al0 Zr1 3.214022 1_655
Al0 Zr2 3.214022 1_565
Al1 Pt0 2.581878 1_656
Al1 Os0 2.647233 1_556
Al1 Pt3 2.735424 1_655
Al1 Pt4 2.735431 1_656
Al1 Zr4 3.156293 1_555
Al1 Zr2 3.156301 1_556
Al1 Zr3 3.199962 1_655
Al2 Pt0 2.581877 1_566
Al2 Os0 2.647234 1_556
Al2 Pt2 2.735424 1_565
Al2 Pt5 2.735431 1_566
Al2 Zr5 3.156293 1_555
Al2 Zr1 3.156301 1_556
Al2 Zr3 3.199962 1_565
Al3 Pt0 2.567925 1_666
Al3 Pt5 2.709788 1_566
Al3 Pt4 2.709788 1_656
Al3 Pt1 2.711688 1_665
Al3 Zr0 3.133696 1_556
Al3 Zr5 3.214018 1_655
Al3 Zr4 3.214019 1_565
Al4 Pt0 2.567911 1_556
Al4 Pt2 2.709788 1_555
Al4 Pt3 2.709789 1_555
Al4 Pt1 2.711703 1_555
Al4 Zr3 3.133684 1_555
Al4 Zr4 3.214022 1_455
Al4 Zr5 3.214022 1_545
Al5 Pt0 2.581878 1_565
Al5 Os0 2.647233 1_555
Al5 Pt3 2.735424 1_555
Al5 Pt4 2.735431 1_555
Al5 Zr1 3.156293 1_555
Al5 Zr5 3.156301 1_554
Al5 Zr0 3.199962 1_455
Al6 Pt0 2.581877 1_655
Al6 Os0 2.647234 1_555
Al6 Pt2 2.735424 1_555
Al6 Pt5 2.735431 1_555
Al6 Zr2 3.156293 1_555
Al6 Zr4 3.156301 1_554
Al6 Zr0 3.199962 1_545
Al7 Pt0 2.567925 1_555
Al7 Pt5 2.709788 1_555
Al7 Pt4 2.709788 1_555
Al7 Pt1 2.711688 1_555
Al7 Zr3 3.133696 1_554
Al7 Zr2 3.214018 1_455
Al7 Zr1 3.214019 1_545
Al8 Os0 2.510424 1_555
Al8 Pt4 2.526138 1_655
Al8 Pt5 2.526139 1_565
Al8 Zr1 2.870841 1_555
Al8 Zr2 2.870841 1_555
Al8 Zr0 2.906539 1_555
Al9 Pt2 2.516440 1_555
Al9 Pt5 2.516440 1_556
Al9 Pt1 2.529825 1_655
Al9 Zr3 2.882497 1_555
Al9 Zr2 2.904020 1_555
Al9 Zr4 2.904020 1_555
Al10 Pt3 2.516440 1_555
Al10 Pt4 2.516440 1_556
Al10 Pt1 2.529826 1_565
Al10 Zr3 2.882497 1_555
Al10 Zr1 2.904020 1_555
Al10 Zr5 2.904020 1_555
Al11 Os0 2.510434 1_556
Al11 Pt3 2.526133 1_655
Al11 Pt2 2.526134 1_565
Al11 Zr5 2.870833 1_555
Al11 Zr4 2.870833 1_555
Al11 Zr0 2.906521 1_555
Al12 Os0 2.510424 1_556
Al12 Pt4 2.526138 1_556
Al12 Pt5 2.526139 1_556
Al12 Zr4 2.870841 1_555
Al12 Zr5 2.870841 1_555
Al12 Zr3 2.906539 1_555
Al13 Pt2 2.516440 1_565
Al13 Pt5 2.516440 1_565
Al13 Pt1 2.529825 1_565
Al13 Zr0 2.882497 1_555
Al13 Zr5 2.904020 1_555
Al13 Zr1 2.904020 1_555
Al14 Pt3 2.516440 1_655
Al14 Pt4 2.516440 1_655
Al14 Pt1 2.529826 1_655
Al14 Zr0 2.882497 1_555
Al14 Zr4 2.904020 1_555
Al14 Zr2 2.904020 1_555
Al15 Os0 2.510434 1_555
Al15 Pt3 2.526133 1_555
Al15 Pt2 2.526134 1_555
Al15 Zr2 2.870833 1_555
Al15 Zr1 2.870833 1_555
Al15 Zr3 2.906521 1_555
Os0 Zr1 3.160671 1_555
Os0 Zr2 3.160671 1_555
Os0 Zr4 3.160671 1_554
Os0 Zr5 3.160671 1_554
Pt1 Zr5 3.215727 1_545
Pt1 Zr4 3.215727 1_455
Pt1 Zr2 3.215727 1_455
Pt1 Zr1 3.215727 1_545
Pt2 Zr3 3.167014 1_555
Pt2 Zr0 3.167014 1_545
Pt2 Zr2 3.200734 1_555
Pt2 Zr5 3.200734 1_545
Pt3 Zr3 3.167013 1_555
Pt3 Zr0 3.167013 1_455
Pt3 Zr1 3.200733 1_555
Pt3 Zr4 3.200733 1_455
Pt4 Zr0 3.167013 1_455
Pt4 Zr3 3.167013 1_554
Pt4 Zr5 3.200733 1_554
Pt4 Zr2 3.200733 1_455
Pt5 Zr0 3.167014 1_545
Pt5 Zr3 3.167014 1_554
Pt5 Zr4 3.200734 1_554
Pt5 Zr1 3.200734 1_545
