# generated using pymatgen
data_Rb2Be3S4
_symmetry_space_group_name_H-M   'P 1'
_cell_length_a   8.81383248
_cell_length_b   8.81383350
_cell_length_c   8.81383285
_cell_angle_alpha   145.30665883
_cell_angle_beta   108.02329513
_cell_angle_gamma   82.43714046
_symmetry_Int_Tables_number   1
_chemical_formula_structural   Rb2Be3S4
_chemical_formula_sum   'Rb4 Be6 S8'
_cell_volume   360.93095542
_cell_formula_units_Z   2
loop_
 _symmetry_equiv_pos_site_id
 _symmetry_equiv_pos_as_xyz
  1  'x, y, z'
loop_
 _atom_site_type_symbol
 _atom_site_label
 _atom_site_symmetry_multiplicity
 _atom_site_fract_x
 _atom_site_fract_y
 _atom_site_fract_z
 _atom_site_occupancy
  Rb  Rb0  1  0.62194890  0.26464870  0.88659960  1
  Rb  Rb1  1  0.37805110  0.73535130  0.11340040  1
  Rb  Rb2  1  0.12194890  0.23535130  0.35730020  1
  Rb  Rb3  1  0.87805110  0.76464870  0.64269980  1
  Be  Be0  1  0.75000000  0.25000000  0.50000000  1
  Be  Be1  1  0.25000000  0.75000000  0.50000000  1
  Be  Be2  1  0.98611041  0.75000000  0.23611041  1
  Be  Be3  1  0.51388959  0.75000000  0.76388959  1
  Be  Be4  1  0.01388959  0.25000000  0.76388959  1
  Be  Be5  1  0.48611041  0.25000000  0.23611041  1
  S  S0  1  0.03105888  0.43777341  0.14225904  1
  S  S1  1  0.29551337  0.88879984  0.85774096  1
  S  S2  1  0.20448663  0.06222659  0.59328648  1
  S  S3  1  0.46894112  0.61120016  0.40671352  1
  S  S4  1  0.96894112  0.56222659  0.85774096  1
  S  S5  1  0.70448663  0.11120016  0.14225904  1
  S  S6  1  0.79551337  0.93777341  0.40671352  1
  S  S7  1  0.53105888  0.38879984  0.59328648  1
loop_
_geom_bond_atom_site_label_1
_geom_bond_atom_site_label_2
_geom_bond_distance
_geom_bond_site_symmetry_2
Rb0 S5 3.342763 1_556
Rb0 S0 3.342780 1_656
Rb0 S3 3.366835 1_545
Rb0 S6 3.366854 1_545
Rb0 S2 3.414951 1_555
Rb0 S7 3.414967 1_555
Rb0 S3 3.446593 1_556
Rb0 S6 3.446616 1_556
Rb1 S1 3.342763 1_554
Rb1 S4 3.342780 1_454
Rb1 S7 3.366835 1_565
Rb1 S2 3.366854 1_565
Rb1 S6 3.414951 1_555
Rb1 S3 3.414967 1_555
Rb1 S7 3.446593 1_554
Rb1 S2 3.446616 1_554
Rb2 S7 3.342779 1_555
Rb2 S2 3.342787 1_555
Rb2 S1 3.366840 1_555
Rb2 S4 3.366842 1_455
Rb2 S5 3.414950 1_455
Rb2 S0 3.414959 1_555
Rb2 S1 3.446606 1_544
Rb2 S4 3.446613 1_444
Rb3 S3 3.342779 1_555
Rb3 S6 3.342787 1_555
Rb3 S5 3.366840 1_555
Rb3 S0 3.366842 1_655
Rb3 S1 3.414950 1_655
Rb3 S4 3.414959 1_555
Rb3 S5 3.446606 1_566
Rb3 S0 3.446613 1_666
Be0 S6 2.145399 1_545
Be0 S4 2.145406 1_555
Be0 S5 2.145408 1_555
Be0 S7 2.145408 1_555
Be1 S2 2.145399 1_565
Be1 S0 2.145406 1_555
Be1 S1 2.145408 1_555
Be1 S3 2.145408 1_555
Be2 S4 2.135667 1_554
Be2 S6 2.135672 1_555
Be2 S0 2.141669 1_655
Be2 S2 2.141675 1_665
Be3 S5 2.135671 1_566
Be3 S7 2.135671 1_555
Be3 S3 2.141677 1_555
Be3 S1 2.141677 1_555
Be4 S0 2.135667 1_556
Be4 S2 2.135672 1_555
Be4 S4 2.141669 1_455
Be4 S6 2.141675 1_445
Be5 S1 2.135671 1_544
Be5 S3 2.135671 1_555
Be5 S7 2.141677 1_555
Be5 S5 2.141677 1_555
