# generated using pymatgen
data_LaCuO3
_symmetry_space_group_name_H-M   'P 1'
_cell_length_a   5.41069290
_cell_length_b   5.41069314
_cell_length_c   5.41069256
_cell_angle_alpha   60.98872651
_cell_angle_beta   60.98872654
_cell_angle_gamma   60.98872210
_symmetry_Int_Tables_number   1
_chemical_formula_structural   LaCuO3
_chemical_formula_sum   'La2 Cu2 O6'
_cell_volume   114.50128811
_cell_formula_units_Z   2
loop_
 _symmetry_equiv_pos_site_id
 _symmetry_equiv_pos_as_xyz
  1  'x, y, z'
loop_
 _atom_site_type_symbol
 _atom_site_label
 _atom_site_symmetry_multiplicity
 _atom_site_fract_x
 _atom_site_fract_y
 _atom_site_fract_z
 _atom_site_occupancy
  La  La0  1  0.75000000  0.75000000  0.75000000  1
  La  La1  1  0.25000000  0.25000000  0.25000000  1
  Cu  Cu0  1  0.50000000  0.50000000  0.50000000  1
  Cu  Cu1  1  0.00000000  -0.00000000  0.00000000  1
  O  O0  1  0.19972873  0.75000000  0.30027127  1
  O  O1  1  0.75000000  0.30027127  0.19972873  1
  O  O2  1  0.30027127  0.19972873  0.75000000  1
  O  O3  1  0.80027127  0.25000000  0.69972873  1
  O  O4  1  0.69972873  0.80027127  0.25000000  1
  O  O5  1  0.25000000  0.69972873  0.80027127  1
loop_
_geom_bond_atom_site_label_1
_geom_bond_atom_site_label_2
_geom_bond_distance
_geom_bond_site_symmetry_2
La0 O2 2.469618 1_565
La0 O0 2.469618 1_655
La0 O1 2.469618 1_556
La0 O4 2.719394 1_555
La0 O4 2.719394 1_556
La0 O5 2.719395 1_655
La0 O5 2.719395 1_555
La0 O3 2.719395 1_555
La0 O3 2.719395 1_565
La0 O2 3.021733 1_655
La0 O0 3.021733 1_556
La0 O1 3.021733 1_565
La1 O4 2.469618 1_545
La1 O3 2.469618 1_455
La1 O5 2.469618 1_554
La1 O2 2.719394 1_555
La1 O2 2.719394 1_554
La1 O1 2.719395 1_455
La1 O1 2.719395 1_555
La1 O0 2.719395 1_555
La1 O0 2.719395 1_545
La1 O4 3.021733 1_455
La1 O3 3.021733 1_554
La1 O5 3.021733 1_545
Cu0 O3 1.946950 1_555
Cu0 O0 1.946950 1_555
Cu0 O1 1.946950 1_555
Cu0 O5 1.946950 1_555
Cu0 O4 1.946951 1_555
Cu0 O2 1.946951 1_555
Cu1 O0 1.946950 1_545
Cu1 O3 1.946950 1_454
Cu1 O1 1.946950 1_455
Cu1 O5 1.946950 1_544
Cu1 O2 1.946951 1_554
Cu1 O4 1.946951 1_445
