# generated using pymatgen
data_YIn6IrCl12
_symmetry_space_group_name_H-M   'P 1'
_cell_length_a   8.76778799
_cell_length_b   8.76778696
_cell_length_c   8.76778801
_cell_angle_alpha   104.30010530
_cell_angle_beta   104.30011652
_cell_angle_gamma   104.30011541
_symmetry_Int_Tables_number   1
_chemical_formula_structural   YIn6IrCl12
_chemical_formula_sum   'Y1 In6 Ir1 Cl12'
_cell_volume   597.87626825
_cell_formula_units_Z   1
loop_
 _symmetry_equiv_pos_site_id
 _symmetry_equiv_pos_as_xyz
  1  'x, y, z'
loop_
 _atom_site_type_symbol
 _atom_site_label
 _atom_site_symmetry_multiplicity
 _atom_site_fract_x
 _atom_site_fract_y
 _atom_site_fract_z
 _atom_site_occupancy
  Y  Y0  1  0.50000000  0.50000000  0.50000000  1
  In  In0  1  0.04367723  0.06396590  0.31561525  1
  In  In1  1  0.31561525  0.04367723  0.06396590  1
  In  In2  1  0.06396590  0.31561525  0.04367723  1
  In  In3  1  0.95632277  0.93603410  0.68438475  1
  In  In4  1  0.68438475  0.95632277  0.93603410  1
  In  In5  1  0.93603410  0.68438475  0.95632277  1
  Ir  Ir0  1  0.00000000  0.00000000  0.00000000  1
  Cl  Cl0  1  0.96204495  0.54245946  0.18210370  1
  Cl  Cl1  1  0.18210370  0.96204495  0.54245946  1
  Cl  Cl2  1  0.54245946  0.18210370  0.96204495  1
  Cl  Cl3  1  0.03795505  0.45754054  0.81789630  1
  Cl  Cl4  1  0.81789630  0.03795505  0.45754054  1
  Cl  Cl5  1  0.45754054  0.81789630  0.03795505  1
  Cl  Cl6  1  0.49635872  0.19155689  0.37493793  1
  Cl  Cl7  1  0.37493793  0.49635872  0.19155689  1
  Cl  Cl8  1  0.19155689  0.37493793  0.49635872  1
  Cl  Cl9  1  0.50364128  0.80844311  0.62506207  1
  Cl  Cl10  1  0.62506207  0.50364128  0.80844311  1
  Cl  Cl11  1  0.80844311  0.62506207  0.50364128  1
loop_
_geom_bond_atom_site_label_1
_geom_bond_atom_site_label_2
_geom_bond_distance
_geom_bond_site_symmetry_2
In0 Ir0 2.592791 1_555
In1 Ir0 2.592791 1_555
In2 Ir0 2.592791 1_555
In3 Ir0 2.592791 1_666
In4 Ir0 2.592791 1_666
In5 Ir0 2.592791 1_666
Cl0 In2 2.539434 1_655
Cl0 In5 2.579409 1_554
Cl1 In0 2.539434 1_565
Cl1 In3 2.579410 1_455
Cl2 In1 2.539434 1_556
Cl2 In4 2.579409 1_545
Cl3 In5 2.539434 1_455
Cl3 In2 2.579409 1_556
Cl4 In3 2.539434 1_545
Cl4 In0 2.579410 1_655
Cl5 In4 2.539434 1_554
Cl5 In1 2.579409 1_565
Cl6 In1 2.594333 1_555
Cl6 Y0 2.644258 1_555
Cl7 In2 2.594333 1_555
Cl7 Y0 2.644259 1_555
Cl8 In0 2.594333 1_555
Cl8 Y0 2.644259 1_555
Cl9 In4 2.594333 1_555
Cl9 Y0 2.644258 1_555
Cl10 In5 2.594333 1_555
Cl10 Y0 2.644259 1_555
Cl11 In3 2.594333 1_555
Cl11 Y0 2.644259 1_555
