# generated using pymatgen
data_NbI2ClF
_symmetry_space_group_name_H-M   'P 1'
_cell_length_a   7.46763796
_cell_length_b   7.46763932
_cell_length_c   7.46763824
_cell_angle_alpha   119.10815786
_cell_angle_beta   111.93070545
_cell_angle_gamma   98.05105373
_symmetry_Int_Tables_number   1
_chemical_formula_structural   NbI2ClF
_chemical_formula_sum   'Nb2 I4 Cl2 F2'
_cell_volume   309.77977846
_cell_formula_units_Z   2
loop_
 _symmetry_equiv_pos_site_id
 _symmetry_equiv_pos_as_xyz
  1  'x, y, z'
loop_
 _atom_site_type_symbol
 _atom_site_label
 _atom_site_symmetry_multiplicity
 _atom_site_fract_x
 _atom_site_fract_y
 _atom_site_fract_z
 _atom_site_occupancy
  Nb  Nb0  1  1.00000000  0.29353358  0.29353358  1
  Nb  Nb1  1  0.00000000  0.70969724  0.70969724  1
  I  I0  1  0.80660087  0.80743873  0.00083686  1
  I  I1  1  0.19339913  0.19423600  0.00083686  1
  I  I2  1  0.76661704  0.26835827  0.50174224  1
  I  I3  1  0.23338296  0.73512520  0.50174224  1
  Cl  Cl0  1  0.72045229  0.71730189  0.43775418  1
  Cl  Cl1  1  0.27954771  0.71730189  0.99684760  1
  F  F0  1  0.77225345  0.27850410  0.05075855  1
  F  F1  1  0.22774655  0.27850410  0.50625165  1
loop_
_geom_bond_atom_site_label_1
_geom_bond_atom_site_label_2
_geom_bond_distance
_geom_bond_site_symmetry_2
I0 Nb1 2.905545 1_654
I0 Nb0 2.914486 1_565
I1 Nb1 2.905546 1_544
I1 Nb0 2.914492 1_455
I2 Nb1 2.775062 1_655
I2 Nb0 2.776147 1_555
I3 Nb1 2.775056 1_555
I3 Nb0 2.776145 1_455
Cl0 Nb1 2.337500 1_655
Cl1 Nb1 2.337491 1_555
F0 Nb0 1.907166 1_555
F1 Nb0 1.907175 1_455
