# generated using pymatgen
data_Nb3Al2AuC
_symmetry_space_group_name_H-M   'P 1'
_cell_length_a   8.42946266
_cell_length_b   8.42946281
_cell_length_c   8.42946103
_cell_angle_alpha   59.99999537
_cell_angle_beta   59.99999477
_cell_angle_gamma   59.99999488
_symmetry_Int_Tables_number   1
_chemical_formula_structural   Nb3Al2AuC
_chemical_formula_sum   'Nb12 Al8 Au4 C4'
_cell_volume   423.53036280
_cell_formula_units_Z   4
loop_
 _symmetry_equiv_pos_site_id
 _symmetry_equiv_pos_as_xyz
  1  'x, y, z'
loop_
 _atom_site_type_symbol
 _atom_site_label
 _atom_site_symmetry_multiplicity
 _atom_site_fract_x
 _atom_site_fract_y
 _atom_site_fract_z
 _atom_site_occupancy
  Nb  Nb0  1  0.56941263  0.93058737  0.56941263  1
  Nb  Nb1  1  0.31941263  0.68058737  0.68058737  1
  Nb  Nb2  1  0.68058737  0.31941263  0.31941263  1
  Nb  Nb3  1  0.31941263  0.68058737  0.31941263  1
  Nb  Nb4  1  0.68058737  0.68058737  0.31941263  1
  Nb  Nb5  1  0.31941263  0.31941263  0.68058737  1
  Nb  Nb6  1  0.56941263  0.56941263  0.93058737  1
  Nb  Nb7  1  0.93058737  0.56941263  0.56941263  1
  Nb  Nb8  1  0.56941263  0.93058737  0.93058737  1
  Nb  Nb9  1  0.93058737  0.93058737  0.56941263  1
  Nb  Nb10  1  0.68058737  0.31941263  0.68058737  1
  Nb  Nb11  1  0.93058737  0.56941263  0.93058737  1
  Al  Al0  1  0.91452341  0.91452341  0.91452341  1
  Al  Al1  1  0.99356922  0.33547659  0.33547659  1
  Al  Al2  1  0.33547659  0.99356922  0.33547659  1
  Al  Al3  1  0.33547659  0.33547659  0.99356922  1
  Al  Al4  1  0.91452341  0.25643078  0.91452341  1
  Al  Al5  1  0.91452341  0.91452341  0.25643078  1
  Al  Al6  1  0.25643078  0.91452341  0.91452341  1
  Al  Al7  1  0.33547659  0.33547659  0.33547659  1
  Au  Au0  1  0.12500000  0.12500000  0.12500000  1
  Au  Au1  1  0.62500000  0.12500000  0.12500000  1
  Au  Au2  1  0.12500000  0.62500000  0.12500000  1
  Au  Au3  1  0.12500000  0.12500000  0.62500000  1
  C  C0  1  0.62500000  0.62500000  0.62500000  1
  C  C1  1  0.12500000  0.62500000  0.62500000  1
  C  C2  1  0.62500000  0.12500000  0.62500000  1
  C  C3  1  0.62500000  0.62500000  0.12500000  1
loop_
_geom_bond_atom_site_label_1
_geom_bond_atom_site_label_2
_geom_bond_distance
_geom_bond_site_symmetry_2
Al0 Au1 2.596071 1_566
Al0 Au2 2.596072 1_656
Al0 Au3 2.596072 1_665
Al1 Au0 2.596069 1_655
Al1 Au3 2.596076 1_655
Al1 Au2 2.596076 1_655
Al2 Au0 2.596069 1_565
Al2 Au3 2.596076 1_565
Al2 Au1 2.596076 1_565
Al3 Au0 2.596070 1_556
Al3 Au1 2.596076 1_556
Al3 Au2 2.596076 1_556
Al4 Au0 2.596069 1_656
Al4 Au3 2.596076 1_655
Al4 Au1 2.596076 1_556
Al5 Au0 2.596070 1_665
Al5 Au1 2.596076 1_565
Al5 Au2 2.596076 1_655
Al6 Au0 2.596069 1_566
Al6 Au3 2.596076 1_565
Al6 Au2 2.596076 1_556
Al7 Au1 2.596071 1_555
Al7 Au2 2.596072 1_555
Al7 Au3 2.596072 1_555
Au0 Nb9 3.132455 1_445
Au0 Nb5 3.132455 1_554
Au0 Nb2 3.132456 1_455
Au0 Nb8 3.132456 1_544
Au0 Nb11 3.132456 1_454
Au0 Nb3 3.132456 1_545
Au1 Nb0 3.132455 1_545
Au1 Nb10 3.132455 1_554
Au1 Nb2 3.132456 1_555
Au1 Nb8 3.132456 1_544
Au1 Nb6 3.132456 1_554
Au1 Nb4 3.132456 1_545
Au2 Nb7 3.132455 1_455
Au2 Nb1 3.132455 1_554
Au2 Nb6 3.132456 1_554
Au2 Nb4 3.132456 1_455
Au2 Nb3 3.132456 1_555
Au2 Nb11 3.132456 1_454
Au3 Nb0 3.132456 1_545
Au3 Nb10 3.132456 1_455
Au3 Nb7 3.132456 1_455
Au3 Nb1 3.132456 1_545
Au3 Nb5 3.132456 1_555
Au3 Nb9 3.132456 1_445
C0 Nb6 2.209096 1_555
C0 Nb4 2.209096 1_555
C0 Nb7 2.209097 1_555
C0 Nb1 2.209097 1_555
C0 Nb0 2.209097 1_555
C0 Nb10 2.209097 1_555
C1 Nb11 2.209096 1_455
C1 Nb3 2.209096 1_555
C1 Nb9 2.209097 1_455
C1 Nb5 2.209097 1_555
C1 Nb1 2.209097 1_555
C1 Nb7 2.209097 1_455
C2 Nb8 2.209096 1_545
C2 Nb2 2.209096 1_555
C2 Nb9 2.209097 1_545
C2 Nb5 2.209097 1_555
C2 Nb10 2.209097 1_555
C2 Nb0 2.209097 1_545
C3 Nb11 2.209097 1_554
C3 Nb3 2.209097 1_555
C3 Nb4 2.209097 1_555
C3 Nb6 2.209097 1_554
C3 Nb2 2.209097 1_555
C3 Nb8 2.209097 1_554
