# generated using pymatgen
data_Zr10Zn2GaSb5
_symmetry_space_group_name_H-M   'P 1'
_cell_length_a   8.58053648
_cell_length_b   8.59237876
_cell_length_c   5.83823412
_cell_angle_alpha   90.00000000
_cell_angle_beta   90.00000000
_cell_angle_gamma   119.95441516
_symmetry_Int_Tables_number   1
_chemical_formula_structural   Zr10Zn2GaSb5
_chemical_formula_sum   'Zr10 Zn2 Ga1 Sb5'
_cell_volume   372.94028621
_cell_formula_units_Z   1
loop_
 _symmetry_equiv_pos_site_id
 _symmetry_equiv_pos_as_xyz
  1  'x, y, z'
loop_
 _atom_site_type_symbol
 _atom_site_label
 _atom_site_symmetry_multiplicity
 _atom_site_fract_x
 _atom_site_fract_y
 _atom_site_fract_z
 _atom_site_occupancy
  Zr  Zr0  1  0.73324716  0.73451691  0.25000000  1
  Zr  Zr1  1  0.72425227  1.00000000  0.75000000  1
  Zr  Zr2  1  0.99873025  0.26548309  0.25000000  1
  Zr  Zr3  1  0.01077917  0.73754513  0.75000000  1
  Zr  Zr4  1  0.27323503  0.26245487  0.75000000  1
  Zr  Zr5  1  0.26507277  0.00000000  0.25000000  1
  Zr  Zr6  1  0.33405733  0.66966789  0.50248545  1
  Zr  Zr7  1  0.66439043  0.33033211  0.99751455  1
  Zr  Zr8  1  0.66439043  0.33033211  0.50248545  1
  Zr  Zr9  1  0.33405733  0.66966789  0.99751455  1
  Zn  Zn0  1  0.99895188  1.00000000  0.99310692  1
  Zn  Zn1  1  0.99895188  1.00000000  0.50689308  1
  Ga  Ga0  1  0.38436919  0.00000000  0.75000000  1
  Sb  Sb0  1  0.38542463  0.38544599  0.25000000  1
  Sb  Sb1  1  0.99997964  0.61455401  0.25000000  1
  Sb  Sb2  1  0.00184240  0.38322049  0.75000000  1
  Sb  Sb3  1  0.61862091  0.61677951  0.75000000  1
  Sb  Sb4  1  0.60964930  0.00000000  0.25000000  1
loop_
_geom_bond_atom_site_label_1
_geom_bond_atom_site_label_2
_geom_bond_distance
_geom_bond_site_symmetry_2
Zn0 Zr3 2.709027 1_655
Zn0 Zr4 2.709031 1_665
Zn0 Zr2 2.730806 1_566
Zn0 Zr0 2.730806 1_556
Zn0 Zr5 2.731958 1_666
Zn0 Zr1 2.751406 1_555
Zn1 Zr3 2.709027 1_655
Zn1 Zr4 2.709031 1_665
Zn1 Zr2 2.730806 1_565
Zn1 Zr0 2.730806 1_555
Zn1 Zr5 2.731958 1_665
Zn1 Zr1 2.751406 1_555
Ga0 Zr4 2.853481 1_555
Ga0 Zr3 2.853487 1_545
Ga0 Zr1 2.916379 1_545
Ga0 Zr6 3.017792 1_545
Ga0 Zr9 3.017792 1_545
Ga0 Zr8 3.017795 1_555
Ga0 Zr7 3.017795 1_555
Ga0 Zr5 3.093389 1_556
Ga0 Zr5 3.093389 1_555
Sb0 Zr5 2.935928 1_555
Sb0 Zr2 2.942191 1_455
Sb0 Zr0 2.994016 1_555
Sb0 Zr8 3.042829 1_555
Sb0 Zr7 3.042829 1_554
Sb0 Zr9 3.066940 1_554
Sb0 Zr6 3.066940 1_555
Sb0 Zr4 3.090117 1_554
Sb0 Zr4 3.090117 1_555
Sb1 Zr5 2.935927 1_665
Sb1 Zr0 2.942199 1_555
Sb1 Zr2 2.994011 1_555
Sb1 Zr9 3.042814 1_654
Sb1 Zr6 3.042814 1_655
Sb1 Zr8 3.066940 1_555
Sb1 Zr7 3.066940 1_554
Sb1 Zr3 3.090119 1_654
Sb1 Zr3 3.090119 1_655
Sb2 Zr1 2.946782 1_445
Sb2 Zr4 2.985404 1_555
Sb2 Zr3 3.006937 1_555
Sb2 Zr9 3.043918 1_555
Sb2 Zr6 3.043918 1_555
Sb2 Zr7 3.060178 1_455
Sb2 Zr8 3.060178 1_455
Sb2 Zr2 3.085191 1_455
Sb2 Zr2 3.085191 1_456
Sb3 Zr1 2.946780 1_555
Sb3 Zr3 2.985404 1_655
Sb3 Zr4 3.006929 1_555
Sb3 Zr7 3.043927 1_555
Sb3 Zr8 3.043927 1_555
Sb3 Zr9 3.060178 1_555
Sb3 Zr6 3.060178 1_555
Sb3 Zr0 3.085192 1_555
Sb3 Zr0 3.085192 1_556
Sb4 Zr5 2.956652 1_555
Sb4 Zr0 2.957057 1_545
Sb4 Zr2 2.957057 1_555
Sb4 Zr8 3.019655 1_555
Sb4 Zr7 3.019655 1_554
Sb4 Zr9 3.019658 1_544
Sb4 Zr6 3.019658 1_545
Sb4 Zr1 3.080297 1_544
Sb4 Zr1 3.080297 1_545
