# generated using pymatgen
data_K3Ba4NaBi4
_symmetry_space_group_name_H-M   'P 1'
_cell_length_a   7.54183049
_cell_length_b   6.10659577
_cell_length_c   10.60593987
_cell_angle_alpha   90.00000000
_cell_angle_beta   89.99675530
_cell_angle_gamma   90.00000000
_symmetry_Int_Tables_number   1
_chemical_formula_structural   K3Ba4NaBi4
_chemical_formula_sum   'K3 Ba4 Na1 Bi4'
_cell_volume   488.45560667
_cell_formula_units_Z   1
loop_
 _symmetry_equiv_pos_site_id
 _symmetry_equiv_pos_as_xyz
  1  'x, y, z'
loop_
 _atom_site_type_symbol
 _atom_site_label
 _atom_site_symmetry_multiplicity
 _atom_site_fract_x
 _atom_site_fract_y
 _atom_site_fract_z
 _atom_site_occupancy
  K  K0  1  0.99925869  0.25000100  0.24456789  1
  K  K1  1  0.49884825  0.25000100  0.25385697  1
  K  K2  1  0.50194206  0.75000100  0.74378186  1
  Ba  Ba0  1  0.74728721  0.75000100  0.08064563  1
  Ba  Ba1  1  0.23991296  0.75000100  0.41923376  1
  Ba  Ba2  1  0.76091776  0.25000100  0.58473242  1
  Ba  Ba3  1  0.25000191  0.25000100  0.91352892  1
  Na  Na0  1  0.00296032  0.75000100  0.76562419  1
  Bi  Bi0  1  0.24674056  0.75000100  0.08059434  1
  Bi  Bi1  1  0.74678972  0.75000100  0.41515441  1
  Bi  Bi2  1  0.25026163  0.25000100  0.58387533  1
  Bi  Bi3  1  0.75507394  0.25000100  0.91440228  1
loop_
_geom_bond_atom_site_label_1
_geom_bond_atom_site_label_2
_geom_bond_distance
_geom_bond_site_symmetry_2
K0 K1 3.769113 1_655
K0 K1 3.775291 1_555
K2 Na0 3.770346 1_555
K2 Na0 3.785703 1_655
Ba0 Bi3 3.526304 1_564
Ba0 Bi3 3.526304 1_554
Ba0 Bi1 3.547782 1_555
Ba0 Bi0 3.766792 1_655
Ba0 Bi0 3.775038 1_555
Ba0 Na0 3.857503 1_654
Ba0 K0 3.994596 1_565
Ba0 K0 3.994596 1_555
Ba0 K2 4.023573 1_554
Ba0 K1 4.025886 1_555
Ba0 K1 4.025886 1_565
Ba1 Bi2 3.518220 1_565
Ba1 Bi2 3.518220 1_555
Ba1 Bi0 3.591955 1_555
Ba1 Bi1 3.719306 1_455
Ba1 Bi1 3.823021 1_555
Ba1 K2 3.969177 1_555
Ba1 K0 4.006105 1_455
Ba1 K0 4.006105 1_465
Ba1 K1 4.026448 1_565
Ba1 K1 4.026448 1_555
Ba1 Na0 4.085291 1_555
Ba2 Bi3 3.496734 1_555
Ba2 Bi1 3.545240 1_545
Ba2 Bi1 3.545240 1_555
Ba2 Bi2 3.690559 1_655
Ba2 Bi2 3.851293 1_555
Ba2 K2 3.997822 1_555
Ba2 K2 3.997822 1_545
Ba2 K1 4.027664 1_555
Ba2 K0 4.030674 1_555
Ba2 Na0 4.041784 1_645
Ba2 Na0 4.041784 1_655
Ba3 Bi2 3.496287 1_555
Ba3 Bi0 3.530270 1_546
Ba3 Bi0 3.530270 1_556
Ba3 Bi3 3.732674 1_455
Ba3 Bi3 3.809179 1_555
Ba3 Na0 3.905764 1_545
Ba3 Na0 3.905764 1_555
Ba3 K0 3.987774 1_456
Ba3 K2 4.021661 1_555
Ba3 K2 4.021661 1_545
Ba3 K1 4.068349 1_556
Bi0 Na0 3.813170 1_554
Bi0 K0 3.978744 1_455
Bi0 K0 3.978744 1_465
Bi0 K1 4.039182 1_555
Bi0 K1 4.039182 1_565
Bi0 K2 4.057628 1_554
Bi1 K2 3.944266 1_555
Bi1 K1 3.968144 1_555
Bi1 K1 3.968144 1_565
Bi1 K0 4.027538 1_565
Bi1 K0 4.027538 1_555
Bi2 K1 3.970543 1_555
Bi2 K2 3.975195 1_555
Bi2 K2 3.975195 1_545
Bi2 K0 4.066295 1_455
Bi3 Na0 3.912449 1_645
Bi3 Na0 3.912449 1_655
Bi3 K0 3.956544 1_556
Bi3 K2 4.030163 1_555
Bi3 K2 4.030163 1_545
Bi3 K1 4.085966 1_556
