# generated using pymatgen
data_Sr2NbH9
_symmetry_space_group_name_H-M   'P 1'
_cell_length_a   9.15903830
_cell_length_b   9.15903693
_cell_length_c   5.27293474
_cell_angle_alpha   90.00000000
_cell_angle_beta   90.00000000
_cell_angle_gamma   120.00000494
_symmetry_Int_Tables_number   1
_chemical_formula_structural   Sr2NbH9
_chemical_formula_sum   'Sr6 Nb3 H27'
_cell_volume   383.07401377
_cell_formula_units_Z   3
loop_
 _symmetry_equiv_pos_site_id
 _symmetry_equiv_pos_as_xyz
  1  'x, y, z'
loop_
 _atom_site_type_symbol
 _atom_site_label
 _atom_site_symmetry_multiplicity
 _atom_site_fract_x
 _atom_site_fract_y
 _atom_site_fract_z
 _atom_site_occupancy
  Sr  Sr0  1  0.00000000  0.26550166  0.50000000  1
  Sr  Sr1  1  0.73449834  0.73449834  0.50000000  1
  Sr  Sr2  1  0.26550166  0.00000000  0.50000000  1
  Sr  Sr3  1  0.00000000  0.59931699  0.00000000  1
  Sr  Sr4  1  0.40068301  0.40068301  0.00000000  1
  Sr  Sr5  1  0.59931699  0.00000000  0.00000000  1
  Nb  Nb0  1  0.66666700  0.33333300  0.50000000  1
  Nb  Nb1  1  0.33333300  0.66666700  0.50000000  1
  Nb  Nb2  1  0.00000000  0.00000000  0.00000000  1
  H  H0  1  0.80953008  0.33131465  0.75555261  1
  H  H1  1  0.66868535  0.47821343  0.75555261  1
  H  H2  1  0.52178657  0.19046992  0.75555261  1
  H  H3  1  0.19046992  0.52178657  0.24444739  1
  H  H4  1  0.52178657  0.19046992  0.24444739  1
  H  H5  1  0.80953008  0.33131465  0.24444739  1
  H  H6  1  0.66868535  0.47821343  0.24444739  1
  H  H7  1  0.33131465  0.80953008  0.75555261  1
  H  H8  1  0.47821343  0.66868535  0.75555261  1
  H  H9  1  0.20159417  0.00000000  0.00000000  1
  H  H10  1  0.79840583  0.79840583  0.00000000  1
  H  H11  1  0.00000000  0.20159417  0.00000000  1
  H  H12  1  0.85324717  0.00000000  0.24533128  1
  H  H13  1  0.14675283  0.14675283  0.75466872  1
  H  H14  1  0.00000000  0.85324717  0.75466872  1
  H  H15  1  0.00000000  0.85324717  0.24533128  1
  H  H16  1  0.14675283  0.14675283  0.24533128  1
  H  H17  1  0.85324717  0.00000000  0.75466872  1
  H  H18  1  0.13717453  0.67327747  0.50000000  1
  H  H19  1  0.53610294  0.86282547  0.50000000  1
  H  H20  1  0.32672253  0.46389706  0.50000000  1
  H  H21  1  0.46389706  0.32672253  0.50000000  1
  H  H22  1  0.86282547  0.53610294  0.50000000  1
  H  H23  1  0.67327747  0.13717453  0.50000000  1
  H  H24  1  0.19046992  0.52178657  0.75555261  1
  H  H25  1  0.33131465  0.80953008  0.24444739  1
  H  H26  1  0.47821343  0.66868535  0.24444739  1
loop_
_geom_bond_atom_site_label_1
_geom_bond_atom_site_label_2
_geom_bond_distance
_geom_bond_site_symmetry_2
H0 Nb0 1.884798 1_555
H0 Sr0 2.504808 1_655
H0 Sr3 2.539263 1_656
H1 Nb0 1.884791 1_555
H1 Sr1 2.504822 1_555
H1 Sr4 2.539267 1_556
H2 Nb0 1.884794 1_555
H2 Sr2 2.504818 1_555
H2 Sr5 2.539252 1_556
H3 Nb1 1.884794 1_555
H3 Sr0 2.504818 1_555
H3 Sr3 2.539252 1_555
H4 Nb0 1.884794 1_555
H4 Sr2 2.504818 1_555
H4 Sr5 2.539252 1_555
H5 Nb0 1.884798 1_555
H5 Sr0 2.504808 1_655
H5 Sr3 2.539263 1_655
H6 Nb0 1.884791 1_555
H6 Sr1 2.504822 1_555
H6 Sr4 2.539267 1_555
H7 Nb1 1.884797 1_555
H7 Sr2 2.504807 1_565
H7 Sr5 2.539263 1_566
H8 Nb1 1.884791 1_555
H8 Sr1 2.504823 1_555
H8 Sr4 2.539267 1_556
H9 Nb2 1.846409 1_555
H9 Sr2 2.700662 1_555
H9 Sr2 2.700662 1_554
H10 Nb2 1.846408 1_665
H10 Sr1 2.700662 1_555
H10 Sr1 2.700662 1_554
H11 Nb2 1.846408 1_555
H11 Sr0 2.700662 1_555
H11 Sr0 2.700662 1_554
H12 Nb2 1.865499 1_655
H12 Sr0 2.500943 1_655
H12 Sr1 2.500943 1_545
H12 Sr5 2.661312 1_555
H13 Nb2 1.865499 1_556
H13 Sr2 2.500943 1_555
H13 Sr0 2.500943 1_555
H13 Sr4 2.661312 1_556
H14 Nb2 1.865499 1_566
H14 Sr2 2.500943 1_565
H14 Sr1 2.500943 1_455
H14 Sr3 2.661312 1_556
H15 Nb2 1.865499 1_565
H15 Sr2 2.500943 1_565
H15 Sr1 2.500943 1_455
H15 Sr3 2.661312 1_555
H16 Nb2 1.865499 1_555
H16 Sr2 2.500943 1_555
H16 Sr0 2.500943 1_555
H16 Sr4 2.661312 1_555
H17 Nb2 1.865499 1_656
H17 Sr0 2.500943 1_655
H17 Sr1 2.500943 1_545
H17 Sr5 2.661312 1_556
H18 Nb1 1.827648 1_555
H18 Sr2 2.611339 1_565
H19 Nb1 1.827653 1_555
H19 Sr1 2.611340 1_555
H20 Nb1 1.827657 1_555
H20 Sr0 2.611339 1_555
H21 Nb0 1.827657 1_555
H21 Sr2 2.611339 1_555
H22 Nb0 1.827653 1_555
H22 Sr1 2.611339 1_555
H23 Nb0 1.827648 1_555
H23 Sr0 2.611340 1_655
H24 Nb1 1.884794 1_555
H24 Sr0 2.504818 1_555
H24 Sr3 2.539252 1_556
H25 Nb1 1.884797 1_555
H25 Sr2 2.504807 1_565
H25 Sr5 2.539263 1_565
H26 Nb1 1.884791 1_555
H26 Sr1 2.504823 1_555
H26 Sr4 2.539267 1_555
