# generated using pymatgen
data_Rb16ZrSnAs8
_symmetry_space_group_name_H-M   'P 1'
_cell_length_a   11.40568302
_cell_length_b   11.40569133
_cell_length_c   11.40123569
_cell_angle_alpha   60.01292739
_cell_angle_beta   60.01290330
_cell_angle_gamma   60.00622493
_symmetry_Int_Tables_number   1
_chemical_formula_structural   Rb16ZrSnAs8
_chemical_formula_sum   'Rb16 Zr1 Sn1 As8'
_cell_volume   1049.02303758
_cell_formula_units_Z   1
loop_
 _symmetry_equiv_pos_site_id
 _symmetry_equiv_pos_as_xyz
  1  'x, y, z'
loop_
 _atom_site_type_symbol
 _atom_site_label
 _atom_site_symmetry_multiplicity
 _atom_site_fract_x
 _atom_site_fract_y
 _atom_site_fract_z
 _atom_site_occupancy
  Rb  Rb0  1  0.62331708  0.13016991  0.62325651  1
  Rb  Rb1  1  0.62333073  0.62333173  0.13009277  1
  Rb  Rb2  1  0.13017091  0.62331808  0.62325551  1
  Rb  Rb3  1  0.62333073  0.62333173  0.62324576  1
  Rb  Rb4  1  0.02338686  0.02338586  0.47661314  1
  Rb  Rb5  1  0.77756101  0.22243134  0.22236514  1
  Rb  Rb6  1  0.22242934  0.77756201  0.77764451  1
  Rb  Rb7  1  0.77762386  0.77762586  0.22237514  1
  Rb  Rb8  1  0.77756101  0.22243134  0.77764151  1
  Rb  Rb9  1  0.22242934  0.77756201  0.22236414  1
  Rb  Rb10  1  0.47656302  0.02346277  0.47641098  1
  Rb  Rb11  1  0.47656302  0.02346277  0.02356323  1
  Rb  Rb12  1  0.02346377  0.47656102  0.47640998  1
  Rb  Rb13  1  0.02346377  0.47656102  0.02356523  1
  Rb  Rb14  1  0.22241564  0.22241564  0.77758436  1
  Rb  Rb15  1  0.47644321  0.47644221  0.02355679  1
  Zr  Zr0  1  0.75005745  0.75005545  0.74994355  1
  Sn  Sn0  1  0.49997384  0.49997484  0.50002516  1
  As  As0  1  0.40165647  0.79470995  0.40181629  1
  As  As1  1  0.84613618  0.84613618  0.46160198  1
  As  As2  1  0.46175307  0.84614121  0.84605386  1
  As  As3  1  0.84613618  0.84613618  0.84612766  1
  As  As4  1  0.79470995  0.40165647  0.40181629  1
  As  As5  1  0.40169318  0.40169318  0.40162919  1
  As  As6  1  0.40169318  0.40169318  0.79498544  1
  As  As7  1  0.84614121  0.46175307  0.84605386  1
loop_
_geom_bond_atom_site_label_1
_geom_bond_atom_site_label_2
_geom_bond_distance
_geom_bond_site_symmetry_2
Rb0 Sn0 3.444272 1_555
Rb0 Zr0 3.540292 1_545
Rb1 Sn0 3.444346 1_555
Rb1 Zr0 3.539471 1_554
Rb2 Sn0 3.444250 1_555
Rb2 Zr0 3.540280 1_455
Rb3 Sn0 3.444364 1_555
Rb3 Zr0 3.539462 1_555
As0 Sn0 2.745090 1_555
As0 Rb2 3.617678 1_555
As0 Rb1 3.618445 1_555
As0 Rb3 3.618463 1_555
As0 Rb9 3.658356 1_555
As0 Rb6 3.658366 1_555
As0 Rb7 3.661336 1_555
As0 Rb11 3.665186 1_565
As0 Rb10 3.665193 1_565
As0 Rb4 3.665921 1_565
As1 Zr0 2.684674 1_555
As1 Rb4 3.602996 1_665
As1 Rb10 3.604640 1_565
As1 Rb12 3.604665 1_655
As1 Rb0 3.661332 1_565
As1 Rb2 3.661333 1_655
As1 Rb3 3.661408 1_555
As1 Rb7 3.678564 1_555
As1 Rb9 3.680508 1_655
As1 Rb5 3.680525 1_565
As2 Zr0 2.685193 1_555
As2 Rb11 3.604115 1_566
As2 Rb10 3.604135 1_565
As2 Rb15 3.606436 1_556
As2 Rb1 3.660384 1_556
As2 Rb3 3.660393 1_555
As2 Rb0 3.661492 1_565
As2 Rb9 3.680182 1_556
As2 Rb6 3.680197 1_555
As2 Rb14 3.680717 1_565
As3 Zr0 2.684692 1_555
As3 Rb4 3.603017 1_665
As3 Rb11 3.604634 1_566
As3 Rb13 3.604659 1_656
As3 Rb0 3.661346 1_565
As3 Rb2 3.661347 1_655
As3 Rb1 3.661406 1_556
As3 Rb7 3.678542 1_556
As3 Rb6 3.680502 1_655
As3 Rb8 3.680515 1_565
As4 Sn0 2.745097 1_555
As4 Rb0 3.617695 1_555
As4 Rb1 3.618453 1_555
As4 Rb3 3.618471 1_555
As4 Rb5 3.658334 1_555
As4 Rb8 3.658335 1_555
As4 Rb7 3.661354 1_555
As4 Rb13 3.665171 1_655
As4 Rb12 3.665179 1_655
As4 Rb4 3.665934 1_655
As5 Sn0 2.746280 1_555
As5 Rb2 3.619524 1_555
As5 Rb0 3.619527 1_555
As5 Rb1 3.620544 1_555
As5 Rb5 3.659412 1_555
As5 Rb9 3.659430 1_555
As5 Rb14 3.659641 1_555
As5 Rb15 3.662474 1_555
As5 Rb12 3.665302 1_555
As5 Rb10 3.665308 1_555
As6 Sn0 2.746299 1_555
As6 Rb2 3.619531 1_555
As6 Rb0 3.619534 1_555
As6 Rb3 3.620544 1_555
As6 Rb8 3.659406 1_555
As6 Rb6 3.659427 1_555
As6 Rb14 3.659648 1_555
As6 Rb15 3.662452 1_556
As6 Rb13 3.665300 1_556
As6 Rb11 3.665306 1_556
As7 Zr0 2.685177 1_555
As7 Rb13 3.604130 1_656
As7 Rb12 3.604150 1_655
As7 Rb15 3.606426 1_556
As7 Rb1 3.660391 1_556
As7 Rb3 3.660400 1_555
As7 Rb2 3.661506 1_655
As7 Rb5 3.680185 1_556
As7 Rb8 3.680208 1_555
As7 Rb14 3.680715 1_655
