# generated using pymatgen
data_SrHfP2
_symmetry_space_group_name_H-M   'P 1'
_cell_length_a   7.22880717
_cell_length_b   7.22880769
_cell_length_c   7.22880680
_cell_angle_alpha   31.33633667
_cell_angle_beta   31.33632979
_cell_angle_gamma   31.33633142
_symmetry_Int_Tables_number   1
_chemical_formula_structural   SrHfP2
_chemical_formula_sum   'Sr1 Hf1 P2'
_cell_volume   90.68037134
_cell_formula_units_Z   1
loop_
 _symmetry_equiv_pos_site_id
 _symmetry_equiv_pos_as_xyz
  1  'x, y, z'
loop_
 _atom_site_type_symbol
 _atom_site_label
 _atom_site_symmetry_multiplicity
 _atom_site_fract_x
 _atom_site_fract_y
 _atom_site_fract_z
 _atom_site_occupancy
  Sr  Sr0  1  0.00000000  0.00000000  0.00000000  1
  Hf  Hf0  1  0.50000000  0.50000000  0.50000000  1
  P  P0  1  0.23580658  0.23580658  0.23580658  1
  P  P1  1  0.76419342  0.76419342  0.76419342  1
loop_
_geom_bond_atom_site_label_1
_geom_bond_atom_site_label_2
_geom_bond_distance
_geom_bond_site_symmetry_2
Hf0 P0 2.666698 1_655
Hf0 P1 2.666698 1_455
Hf0 P0 2.666698 1_556
Hf0 P1 2.666698 1_554
Hf0 P0 2.666698 1_565
Hf0 P1 2.666698 1_545
P0 Sr0 3.019926 1_556
P0 Sr0 3.019926 1_655
P0 Sr0 3.019927 1_565
P1 Sr0 3.019926 1_665
P1 Sr0 3.019926 1_566
P1 Sr0 3.019927 1_656
