# generated using pymatgen
data_K7Ba12NaP16
_symmetry_space_group_name_H-M   'P 1'
_cell_length_a   8.13609777
_cell_length_b   8.46945676
_cell_length_c   18.34056451
_cell_angle_alpha   62.37513520
_cell_angle_beta   89.94321956
_cell_angle_gamma   90.04356456
_symmetry_Int_Tables_number   1
_chemical_formula_structural   K7Ba12NaP16
_chemical_formula_sum   'K7 Ba12 Na1 P16'
_cell_volume   1119.74389922
_cell_formula_units_Z   1
loop_
 _symmetry_equiv_pos_site_id
 _symmetry_equiv_pos_as_xyz
  1  'x, y, z'
loop_
 _atom_site_type_symbol
 _atom_site_label
 _atom_site_symmetry_multiplicity
 _atom_site_fract_x
 _atom_site_fract_y
 _atom_site_fract_z
 _atom_site_occupancy
  K  K0  1  0.38595444  0.75289594  0.25105239  1
  K  K1  1  0.11663568  0.75502175  0.75119484  1
  K  K2  1  0.61657128  0.24429871  0.74889160  1
  K  K3  1  0.69911299  0.06387943  0.12324705  1
  K  K4  1  0.19565480  0.93857044  0.37549674  1
  K  K5  1  0.30154038  0.93546548  0.87873760  1
  K  K6  1  0.80258226  0.06422123  0.62150353  1
  Ba  Ba0  1  0.56646272  0.59531296  0.10646243  1
  Ba  Ba1  1  0.06804853  0.40153645  0.39160648  1
  Ba  Ba2  1  0.43521136  0.69866959  0.60501088  1
  Ba  Ba3  1  0.93437474  0.30002102  0.89497468  1
  Ba  Ba4  1  0.43267693  0.40248103  0.89345593  1
  Ba  Ba5  1  0.93393157  0.59587226  0.60690376  1
  Ba  Ba6  1  0.56658400  0.29921326  0.39540613  1
  Ba  Ba7  1  0.06615253  0.69532004  0.10603531  1
  Ba  Ba8  1  0.30343033  0.18689415  0.62497037  1
  Ba  Ba9  1  0.80270547  0.81320352  0.87492835  1
  Ba  Ba10  1  0.70127211  0.81789465  0.37209528  1
  Ba  Ba11  1  0.19228540  0.18251434  0.12911785  1
  Na  Na0  1  0.86647655  0.27306066  0.24780150  1
  P  P0  1  0.88299395  0.44365652  0.03884571  1
  P  P1  1  0.38588975  0.55577669  0.46217835  1
  P  P2  1  0.11530138  0.98923125  0.53566115  1
  P  P3  1  0.61472491  0.01055570  0.96400019  1
  P  P4  1  0.11443756  0.55097804  0.96488297  1
  P  P5  1  0.61681427  0.44798051  0.53584604  1
  P  P6  1  0.88557644  0.01228069  0.46169042  1
  P  P7  1  0.38470953  0.98851308  0.03787898  1
  P  P8  1  0.98677594  0.81608441  0.24900364  1
  P  P9  1  0.49270393  0.17928439  0.25077780  1
  P  P10  1  0.01411384  0.17758008  0.75056447  1
  P  P11  1  0.51406180  0.82158618  0.74948278  1
  P  P12  1  0.78960869  0.62521203  0.25283633  1
  P  P13  1  0.29042526  0.36572764  0.24720406  1
  P  P14  1  0.21206795  0.36815908  0.74659725  1
  P  P15  1  0.71213273  0.63104781  0.75365715  1
loop_
_geom_bond_atom_site_label_1
_geom_bond_atom_site_label_2
_geom_bond_distance
_geom_bond_site_symmetry_2
K0 P8 3.289373 1_455
K0 P13 3.401833 1_555
K0 P1 3.433062 1_555
K0 P12 3.453853 1_555
K0 P7 3.468867 1_555
K0 P9 3.711341 1_565
K1 P11 3.279472 1_555
K1 P14 3.406684 1_555
K1 P15 3.447634 1_455
K1 P4 3.473548 1_555
K1 P2 3.505650 1_555
K1 P10 3.670175 1_565
K2 P10 3.281582 1_655
K2 P15 3.406341 1_555
K2 P14 3.449351 1_555
K2 P5 3.463028 1_555
K2 P3 3.498710 1_555
K2 P11 3.670505 1_545
K3 P7 3.214743 1_545
K3 P0 3.217307 1_555
K3 P3 3.229932 1_554
K3 P8 3.275848 1_545
K3 P9 3.370649 1_555
K3 P12 3.437015 1_545
K4 P6 3.187970 1_465
K4 P2 3.225819 1_555
K4 P1 3.265986 1_555
K4 P9 3.299479 1_565
K4 P13 3.364126 1_565
K4 P8 3.403460 1_455
K5 P3 3.204737 1_565
K5 P7 3.224646 1_556
K5 P4 3.261013 1_555
K5 P10 3.278355 1_565
K5 P14 3.406542 1_565
K5 P11 3.413878 1_555
K6 P2 3.205848 1_645
K6 P6 3.229996 1_555
K6 P5 3.254755 1_555
K6 P11 3.278938 1_545
K6 P10 3.405839 1_655
K6 P15 3.409104 1_545
Ba0 P13 3.288635 1_555
Ba0 P3 3.289964 1_564
Ba0 P7 3.314463 1_555
Ba0 P9 3.335568 1_555
Ba0 P12 3.347635 1_555
Ba0 P0 3.360940 1_555
Ba1 P12 3.277990 1_455
Ba1 P2 3.281840 1_545
Ba1 P6 3.283905 1_455
Ba1 P8 3.331066 1_455
Ba1 P13 3.334039 1_555
Ba1 P1 3.411541 1_555
Ba2 P5 3.286182 1_555
Ba2 P11 3.328157 1_555
Ba2 P14 3.334223 1_555
Ba2 P15 3.376823 1_555
Ba2 P1 3.380759 1_555
Ba2 P2 3.400304 1_555
Ba3 P4 3.291507 1_655
Ba3 P10 3.325037 1_655
Ba3 P15 3.335527 1_555
Ba3 P14 3.372345 1_655
Ba3 P3 3.388554 1_555
Ba3 P0 3.404803 1_556
Ba4 P7 3.293117 1_546
Ba4 P15 3.296961 1_555
Ba4 P3 3.303744 1_555
Ba4 P14 3.360925 1_555
Ba4 P11 3.363254 1_555
Ba4 P4 3.395312 1_555
Ba5 P14 3.292481 1_655
Ba5 P2 3.306926 1_655
Ba5 P6 3.313547 1_565
Ba5 P10 3.356963 1_655
Ba5 P15 3.365181 1_555
Ba5 P5 3.382279 1_555
Ba6 P1 3.294218 1_555
Ba6 P9 3.306047 1_555
Ba6 P12 3.322793 1_555
Ba6 P13 3.368659 1_555
Ba6 P6 3.375733 1_555
Ba6 P5 3.376386 1_555
Ba7 P0 3.273672 1_455
Ba7 P8 3.289907 1_455
Ba7 P13 3.337668 1_555
Ba7 P12 3.341781 1_455
Ba7 P4 3.359232 1_554
Ba7 P7 3.398747 1_555
Ba8 P2 3.220630 1_545
Ba8 P1 3.235388 1_555
Ba8 P10 3.267036 1_555
Ba8 P5 3.270146 1_555
Ba8 P14 3.325625 1_555
Ba8 P11 3.344842 1_545
Ba9 P3 3.214472 1_565
Ba9 P0 3.246827 1_556
Ba9 P11 3.266968 1_555
Ba9 P4 3.272000 1_655
Ba9 P15 3.324722 1_555
Ba9 P10 3.337862 1_665
Ba10 P6 3.188907 1_565
Ba10 P8 3.242595 1_555
Ba10 P5 3.251816 1_555
Ba10 P1 3.289965 1_555
Ba10 P9 3.301278 1_565
Ba10 P12 3.357488 1_555
Ba11 P7 3.240284 1_545
Ba11 P4 3.240764 1_554
Ba11 P0 3.253642 1_455
Ba11 P13 3.294545 1_555
Ba11 P9 3.302740 1_555
Ba11 P8 3.304316 1_445
Na0 P12 3.090837 1_555
Na0 P9 3.136490 1_555
Na0 P0 3.414146 1_555
P0 P4 2.249688 1_654
P1 P5 2.247823 1_555
P2 P6 2.265398 1_465
P3 P7 2.265595 1_546
P10 P14 2.256428 1_555
P11 P15 2.257589 1_555
P12 P8 2.254353 1_555
P13 P9 2.261520 1_555
