# generated using pymatgen
data_GaSeO3F
_symmetry_space_group_name_H-M   'P 1'
_cell_length_a   5.09998496
_cell_length_b   4.95664715
_cell_length_c   12.15431043
_cell_angle_alpha   74.06611714
_cell_angle_beta   90.00000000
_cell_angle_gamma   90.00000000
_symmetry_Int_Tables_number   1
_chemical_formula_structural   GaSeO3F
_chemical_formula_sum   'Ga4 Se4 O12 F4'
_cell_volume   295.44201263
_cell_formula_units_Z   4
loop_
 _symmetry_equiv_pos_site_id
 _symmetry_equiv_pos_as_xyz
  1  'x, y, z'
loop_
 _atom_site_type_symbol
 _atom_site_label
 _atom_site_symmetry_multiplicity
 _atom_site_fract_x
 _atom_site_fract_y
 _atom_site_fract_z
 _atom_site_occupancy
  Ga  Ga0  1  0.75142311  0.38648781  0.57027306  1
  Ga  Ga1  1  0.74857689  0.38648781  0.07027306  1
  Ga  Ga2  1  0.24857689  0.61351219  0.42972694  1
  Ga  Ga3  1  0.25142311  0.61351219  0.92972694  1
  Se  Se0  1  0.85490350  0.17893194  0.83289856  1
  Se  Se1  1  0.64509650  0.17893194  0.33289856  1
  Se  Se2  1  0.14509650  0.82106806  0.16710144  1
  Se  Se3  1  0.35490350  0.82106806  0.66710144  1
  O  O0  1  0.13476392  0.98367637  0.84624128  1
  O  O1  1  0.36523608  0.98367637  0.34624128  1
  O  O2  1  0.86523608  0.01632363  0.15375872  1
  O  O3  1  0.63476392  0.01632363  0.65375872  1
  O  O4  1  0.93636854  0.38992488  0.92453464  1
  O  O5  1  0.56363146  0.38992488  0.42453464  1
  O  O6  1  0.06363146  0.61007512  0.07546536  1
  O  O7  1  0.43636854  0.61007512  0.57546536  1
  O  O8  1  0.92614620  0.41665431  0.70649167  1
  O  O9  1  0.57385380  0.41665431  0.20649167  1
  O  O10  1  0.07385380  0.58334569  0.29350833  1
  O  O11  1  0.42614620  0.58334569  0.79350833  1
  F  F0  1  0.06635111  0.26112272  0.50972721  1
  F  F1  1  0.43364889  0.26112272  0.00972721  1
  F  F2  1  0.93364889  0.73887728  0.49027279  1
  F  F3  1  0.56635111  0.73887728  0.99027279  1
loop_
_geom_bond_atom_site_label_1
_geom_bond_atom_site_label_2
_geom_bond_distance
_geom_bond_site_symmetry_2
Ga0 O8 1.921840 1_555
Ga0 O3 1.930750 1_555
Ga0 O7 1.962730 1_555
Ga0 O5 2.009641 1_555
Ga1 O9 1.921840 1_555
Ga1 O2 1.930750 1_555
Ga1 O6 1.962730 1_655
Ga1 O4 2.009641 1_554
Ga2 O10 1.921840 1_555
Ga2 O1 1.930750 1_555
Ga2 O5 1.962730 1_555
Ga2 O7 2.009641 1_555
Ga3 O11 1.921840 1_555
Ga3 O0 1.930750 1_555
Ga3 O4 1.962730 1_455
Ga3 O6 2.009641 1_556
O0 Se0 1.707022 1_465
O1 Se1 1.707022 1_565
O2 Se2 1.707022 1_645
O3 Se3 1.707022 1_545
O4 Se0 1.773805 1_555
O5 Se1 1.773805 1_555
O6 Se2 1.773805 1_555
O7 Se3 1.773805 1_555
O8 Se0 1.699098 1_555
O9 Se1 1.699098 1_555
O10 Se2 1.699098 1_555
O11 Se3 1.699098 1_555
F0 Ga0 1.938655 1_455
F0 Ga2 1.981794 1_555
F1 Ga1 1.938655 1_555
F1 Ga3 1.981794 1_554
F2 Ga2 1.938655 1_655
F2 Ga0 1.981794 1_555
F3 Ga3 1.938655 1_555
F3 Ga1 1.981794 1_556
