# generated using pymatgen
data_Lu3Si3RuRh
_symmetry_space_group_name_H-M   'P 1'
_cell_length_a   5.60367841
_cell_length_b   5.60367946
_cell_length_c   13.42421912
_cell_angle_alpha   90.25874400
_cell_angle_beta   89.74125668
_cell_angle_gamma   136.84583400
_symmetry_Int_Tables_number   1
_chemical_formula_structural   Lu3Si3RuRh
_chemical_formula_sum   'Lu6 Si6 Ru2 Rh2'
_cell_volume   288.31250646
_cell_formula_units_Z   2
loop_
 _symmetry_equiv_pos_site_id
 _symmetry_equiv_pos_as_xyz
  1  'x, y, z'
loop_
 _atom_site_type_symbol
 _atom_site_label
 _atom_site_symmetry_multiplicity
 _atom_site_fract_x
 _atom_site_fract_y
 _atom_site_fract_z
 _atom_site_occupancy
  Lu  Lu0  1  0.64451504  0.35548496  0.24976711  1
  Lu  Lu1  1  0.35548496  0.64451504  0.75023289  1
  Lu  Lu2  1  0.92332106  0.07667894  0.11354951  1
  Lu  Lu3  1  0.07667894  0.92332106  0.88645049  1
  Lu  Lu4  1  0.07942559  0.92057441  0.61527796  1
  Lu  Lu5  1  0.92057441  0.07942559  0.38472204  1
  Si  Si0  1  0.33568850  0.66431150  0.24906209  1
  Si  Si1  1  0.66431150  0.33568850  0.75093791  1
  Si  Si2  1  0.61467619  0.38532381  0.03805383  1
  Si  Si3  1  0.38532381  0.61467619  0.96194617  1
  Si  Si4  1  0.39174569  0.60825431  0.53842775  1
  Si  Si5  1  0.60825431  0.39174569  0.46157225  1
  Ru  Ru0  1  0.21063636  0.78936364  0.08237449  1
  Ru  Ru1  1  0.78936364  0.21063636  0.91762551  1
  Rh  Rh0  1  0.78731282  0.21268718  0.58024716  1
  Rh  Rh1  1  0.21268718  0.78731282  0.41975284  1
loop_
_geom_bond_atom_site_label_1
_geom_bond_atom_site_label_2
_geom_bond_distance
_geom_bond_site_symmetry_2
Lu0 Si2 2.860549 1_555
Lu0 Si0 2.866418 1_655
Lu0 Si0 2.866419 1_545
Lu0 Si5 2.866503 1_555
Lu0 Ru0 3.123480 1_655
Lu0 Ru0 3.123481 1_545
Lu0 Rh1 3.158241 1_655
Lu0 Rh1 3.158242 1_545
Lu0 Si0 3.218646 1_555
Lu1 Si3 2.860549 1_555
Lu1 Si1 2.866418 1_455
Lu1 Si1 2.866419 1_565
Lu1 Si4 2.866503 1_555
Lu1 Ru1 3.123480 1_455
Lu1 Ru1 3.123481 1_565
Lu1 Rh0 3.158241 1_455
Lu1 Rh0 3.158242 1_565
Lu1 Si1 3.218646 1_555
Lu2 Si0 2.893797 1_545
Lu2 Si0 2.893797 1_655
Lu2 Si3 2.924598 1_544
Lu2 Si3 2.924598 1_654
Lu2 Ru1 2.983678 1_554
Lu2 Ru0 3.021487 1_645
Lu2 Si2 3.038336 1_655
Lu2 Si2 3.038337 1_545
Lu2 Ru0 3.056831 1_545
Lu2 Ru0 3.056832 1_655
Lu3 Si1 2.893797 1_565
Lu3 Si1 2.893797 1_455
Lu3 Si2 2.924598 1_566
Lu3 Si2 2.924598 1_456
Lu3 Ru0 2.983678 1_556
Lu3 Ru1 3.021487 1_465
Lu3 Si3 3.038336 1_455
Lu3 Si3 3.038337 1_565
Lu3 Ru1 3.056831 1_565
Lu3 Ru1 3.056832 1_455
Lu4 Si1 2.891639 1_565
Lu4 Si1 2.891640 1_455
Lu4 Si5 2.930622 1_565
Lu4 Si5 2.930622 1_455
Lu4 Rh1 2.963601 1_555
Lu4 Rh0 3.025253 1_565
Lu4 Rh0 3.025254 1_455
Lu4 Si4 3.025987 1_455
Lu4 Si4 3.025988 1_565
Lu4 Rh0 3.082758 1_465
Lu5 Si0 2.891639 1_545
Lu5 Si0 2.891640 1_655
Lu5 Si4 2.930622 1_545
Lu5 Si4 2.930622 1_655
Lu5 Rh0 2.963601 1_555
Lu5 Rh1 3.025253 1_545
Lu5 Rh1 3.025254 1_655
Lu5 Si5 3.025987 1_655
Lu5 Si5 3.025988 1_545
Lu5 Rh1 3.082758 1_645
Si2 Si3 2.604061 1_554
Si4 Si5 2.476573 1_555
Ru0 Si2 2.367852 1_455
Ru0 Si2 2.367852 1_565
Ru0 Si3 2.428897 1_554
Ru0 Si0 2.594990 1_555
Ru1 Si3 2.367852 1_655
Ru1 Si3 2.367852 1_545
Ru1 Si2 2.428897 1_556
Ru1 Si1 2.594990 1_555
Rh0 Si4 2.395955 1_655
Rh0 Si4 2.395955 1_545
Rh0 Si5 2.459553 1_555
Rh0 Si1 2.620163 1_555
Rh1 Si5 2.395955 1_455
Rh1 Si5 2.395955 1_565
Rh1 Si4 2.459553 1_555
Rh1 Si0 2.620163 1_555
