# generated using pymatgen
data_CaYCuS3
_symmetry_space_group_name_H-M   'P 1'
_cell_length_a   10.24748788
_cell_length_b   3.85011176
_cell_length_c   12.56011649
_cell_angle_alpha   90.00000000
_cell_angle_beta   90.00000000
_cell_angle_gamma   90.00000000
_symmetry_Int_Tables_number   1
_chemical_formula_structural   CaYCuS3
_chemical_formula_sum   'Ca4 Y4 Cu4 S12'
_cell_volume   495.54650441
_cell_formula_units_Z   4
loop_
 _symmetry_equiv_pos_site_id
 _symmetry_equiv_pos_as_xyz
  1  'x, y, z'
loop_
 _atom_site_type_symbol
 _atom_site_label
 _atom_site_symmetry_multiplicity
 _atom_site_fract_x
 _atom_site_fract_y
 _atom_site_fract_z
 _atom_site_occupancy
  Ca  Ca0  1  0.28235083  0.25000000  0.99843241  1
  Ca  Ca1  1  0.78235083  0.25000000  0.50156759  1
  Ca  Ca2  1  0.21764917  0.75000100  0.49843241  1
  Ca  Ca3  1  0.71764917  0.75000100  0.00156759  1
  Y  Y0  1  0.98061944  0.75000100  0.23945481  1
  Y  Y1  1  0.48061944  0.75000100  0.26054519  1
  Y  Y2  1  0.51938056  0.25000000  0.73945481  1
  Y  Y3  1  0.01938056  0.25000000  0.76054519  1
  Cu  Cu0  1  0.73217294  0.25000000  0.22765420  1
  Cu  Cu1  1  0.23217294  0.25000000  0.27234580  1
  Cu  Cu2  1  0.76782706  0.75000100  0.72765420  1
  Cu  Cu3  1  0.26782706  0.75000100  0.77234580  1
  S  S0  1  0.89871629  0.25000000  0.10469620  1
  S  S1  1  0.55157424  0.25000000  0.11534776  1
  S  S2  1  0.23597867  0.75000100  0.16514936  1
  S  S3  1  0.73597867  0.75000100  0.33485064  1
  S  S4  1  0.05157424  0.25000000  0.38465224  1
  S  S5  1  0.39871629  0.25000000  0.39530380  1
  S  S6  1  0.60128271  0.75000100  0.60469620  1
  S  S7  1  0.94842576  0.75000100  0.61534776  1
  S  S8  1  0.26402133  0.25000000  0.66514936  1
  S  S9  1  0.76402133  0.25000000  0.83485064  1
  S  S10  1  0.44842576  0.75000100  0.88465224  1
  S  S11  1  0.10128271  0.75000100  0.89530380  1
loop_
_geom_bond_atom_site_label_1
_geom_bond_atom_site_label_2
_geom_bond_distance
_geom_bond_site_symmetry_2
Ca0 S2 2.883818 1_546
Ca0 S2 2.883824 1_556
Ca0 S10 2.940141 1_545
Ca0 S10 2.940146 1_555
Ca0 S11 2.970943 1_545
Ca0 S11 2.970948 1_555
Ca0 S1 3.125337 1_556
Ca1 S3 2.883818 1_545
Ca1 S3 2.883824 1_555
Ca1 S7 2.940141 1_545
Ca1 S7 2.940146 1_555
Ca1 S6 2.970943 1_545
Ca1 S6 2.970948 1_555
Ca1 S4 3.125337 1_655
Ca2 S8 2.883818 1_565
Ca2 S8 2.883824 1_555
Ca2 S4 2.940141 1_565
Ca2 S4 2.940146 1_555
Ca2 S5 2.970937 1_565
Ca2 S5 2.970942 1_555
Ca2 S7 3.125337 1_455
Ca3 S9 2.883818 1_564
Ca3 S9 2.883824 1_554
Ca3 S1 2.940141 1_565
Ca3 S1 2.940146 1_555
Ca3 S0 2.970937 1_565
Ca3 S0 2.970942 1_555
Ca3 S10 3.125337 1_554
Cu0 S0 2.301679 1_555
Cu0 S1 2.326966 1_555
Cu0 S3 2.349498 1_545
Cu0 S3 2.349504 1_555
Cu1 S5 2.301679 1_555
Cu1 S4 2.326966 1_555
Cu1 S2 2.349498 1_545
Cu1 S2 2.349504 1_555
Cu2 S6 2.301687 1_555
Cu2 S7 2.326966 1_555
Cu2 S9 2.349498 1_565
Cu2 S9 2.349504 1_555
Cu3 S11 2.301687 1_555
Cu3 S10 2.326966 1_555
Cu3 S8 2.349498 1_565
Cu3 S8 2.349504 1_555
S0 Y0 2.697238 1_545
S0 Y0 2.697243 1_555
S1 Y1 2.749615 1_545
S1 Y1 2.749620 1_555
S2 Y0 2.778239 1_455
S2 Y1 2.778571 1_555
S3 Y1 2.778239 1_555
S3 Y0 2.778571 1_555
S4 Y0 2.749615 1_445
S4 Y0 2.749620 1_455
S5 Y1 2.697238 1_545
S5 Y1 2.697243 1_555
S6 Y2 2.697235 1_565
S6 Y2 2.697240 1_555
S7 Y3 2.749615 1_665
S7 Y3 2.749620 1_655
S8 Y2 2.778239 1_555
S8 Y3 2.778571 1_555
S9 Y3 2.778239 1_655
S9 Y2 2.778571 1_555
S10 Y2 2.749615 1_565
S10 Y2 2.749620 1_555
S11 Y3 2.697235 1_565
S11 Y3 2.697240 1_555
