# generated using pymatgen
data_MnAg6Pt2F18
_symmetry_space_group_name_H-M   'P 1'
_cell_length_a   9.57844022
_cell_length_b   9.57844012
_cell_length_c   5.27560850
_cell_angle_alpha   90.00000000
_cell_angle_beta   90.00000000
_cell_angle_gamma   120.00000669
_symmetry_Int_Tables_number   1
_chemical_formula_structural   MnAg6Pt2F18
_chemical_formula_sum   'Mn1 Ag6 Pt2 F18'
_cell_volume   419.17246187
_cell_formula_units_Z   1
loop_
 _symmetry_equiv_pos_site_id
 _symmetry_equiv_pos_as_xyz
  1  'x, y, z'
loop_
 _atom_site_type_symbol
 _atom_site_label
 _atom_site_symmetry_multiplicity
 _atom_site_fract_x
 _atom_site_fract_y
 _atom_site_fract_z
 _atom_site_occupancy
  Mn  Mn0  1  0.00000000  0.00000000  0.50000000  1
  Ag  Ag0  1  0.00000000  0.62922930  0.50000000  1
  Ag  Ag1  1  0.62922930  0.00000000  0.50000000  1
  Ag  Ag2  1  0.37077070  0.37077070  0.50000000  1
  Ag  Ag3  1  0.28184536  0.00000000  0.00000000  1
  Ag  Ag4  1  0.71815464  0.71815464  0.00000000  1
  Ag  Ag5  1  0.00000000  0.28184536  0.00000000  1
  Pt  Pt0  1  0.33333300  0.66666700  0.00504027  1
  Pt  Pt1  1  0.66666700  0.33333300  0.99495973  1
  F  F0  1  0.08148510  0.90006311  0.30365315  1
  F  F1  1  0.81857801  0.91851490  0.30365315  1
  F  F2  1  0.09993689  0.18142199  0.30365315  1
  F  F3  1  0.91851490  0.81857801  0.69634685  1
  F  F4  1  0.90006311  0.08148510  0.69634685  1
  F  F5  1  0.18142199  0.09993689  0.69634685  1
  F  F6  1  0.21610538  0.74332898  0.79394219  1
  F  F7  1  0.52722361  0.78389462  0.79394219  1
  F  F8  1  0.25667102  0.47277639  0.79394219  1
  F  F9  1  0.78389462  0.52722361  0.20605781  1
  F  F10  1  0.74332898  0.21610538  0.20605781  1
  F  F11  1  0.47277639  0.25667102  0.20605781  1
  F  F12  1  0.40557699  0.85982283  0.21646430  1
  F  F13  1  0.45424683  0.59442301  0.21646430  1
  F  F14  1  0.14017717  0.54575317  0.21646430  1
  F  F15  1  0.59442301  0.45424683  0.78353570  1
  F  F16  1  0.85982283  0.40557699  0.78353570  1
  F  F17  1  0.54575317  0.14017717  0.78353570  1
loop_
_geom_bond_atom_site_label_1
_geom_bond_atom_site_label_2
_geom_bond_distance
_geom_bond_site_symmetry_2
Ag0 F6 2.370997 1_555
Ag0 F9 2.370997 1_455
Ag0 F16 2.398567 1_455
Ag0 F14 2.398573 1_555
Ag0 F0 2.527274 1_555
Ag0 F3 2.527274 1_455
Ag1 F10 2.370997 1_555
Ag1 F7 2.370997 1_545
Ag1 F12 2.398567 1_545
Ag1 F17 2.398573 1_555
Ag1 F4 2.527274 1_555
Ag1 F1 2.527274 1_545
Ag2 F11 2.370997 1_555
Ag2 F8 2.370997 1_555
Ag2 F13 2.398566 1_555
Ag2 F15 2.398566 1_555
Ag2 F5 2.527273 1_555
Ag2 F2 2.527273 1_555
Ag3 F0 2.308373 1_545
Ag3 F5 2.308373 1_554
Ag3 F11 2.464634 1_555
Ag3 F6 2.464634 1_544
Ag3 F17 2.470374 1_554
Ag3 F12 2.470382 1_545
Ag4 F1 2.308373 1_555
Ag4 F3 2.308373 1_554
Ag4 F9 2.464634 1_555
Ag4 F7 2.464634 1_554
Ag4 F15 2.470374 1_554
Ag4 F13 2.470374 1_555
Ag5 F4 2.308373 1_454
Ag5 F2 2.308373 1_555
Ag5 F8 2.464634 1_554
Ag5 F10 2.464634 1_455
Ag5 F14 2.470374 1_555
Ag5 F16 2.470382 1_454
F0 Mn0 1.829097 1_565
F1 Mn0 1.829097 1_665
F2 Mn0 1.829097 1_555
F3 Mn0 1.829097 1_665
F4 Mn0 1.829097 1_655
F5 Mn0 1.829097 1_555
F6 Pt0 1.965907 1_556
F7 Pt0 1.965913 1_556
F8 Pt0 1.965914 1_556
F9 Pt1 1.965913 1_554
F10 Pt1 1.965907 1_554
F11 Pt1 1.965914 1_554
F12 Pt0 1.966129 1_555
F13 Pt0 1.966143 1_555
F14 Pt0 1.966131 1_555
F15 Pt1 1.966143 1_555
F16 Pt1 1.966129 1_555
F17 Pt1 1.966131 1_555
