# generated using pymatgen
data_LiHoSe2
_symmetry_space_group_name_H-M   'P 1'
_cell_length_a   6.99746754
_cell_length_b   6.99746754
_cell_length_c   6.99746754
_cell_angle_alpha   132.45929007
_cell_angle_beta   132.45929007
_cell_angle_gamma   69.50458831
_symmetry_Int_Tables_number   1
_chemical_formula_structural   LiHoSe2
_chemical_formula_sum   'Li2 Ho2 Se4'
_cell_volume   182.94509070
_cell_formula_units_Z   2
loop_
 _symmetry_equiv_pos_site_id
 _symmetry_equiv_pos_as_xyz
  1  'x, y, z'
loop_
 _atom_site_type_symbol
 _atom_site_label
 _atom_site_symmetry_multiplicity
 _atom_site_fract_x
 _atom_site_fract_y
 _atom_site_fract_z
 _atom_site_occupancy
  Li  Li0  1  0.00000000  0.00000000  0.00000000  1
  Li  Li1  1  0.75000000  0.25000000  0.50000000  1
  Ho  Ho0  1  0.25000000  0.75000000  0.50000000  1
  Ho  Ho1  1  0.50000000  0.50000000  0.00000000  1
  Se  Se0  1  0.74624790  0.74624790  0.00000000  1
  Se  Se1  1  0.25375210  0.25375210  -0.00000000  1
  Se  Se2  1  0.00375210  0.50375210  0.50000000  1
  Se  Se3  1  0.49624790  0.99624790  0.50000000  1
loop_
_geom_bond_atom_site_label_1
_geom_bond_atom_site_label_2
_geom_bond_distance
_geom_bond_site_symmetry_2
Li0 Se2 2.820812 1_555
Li0 Se3 2.820812 1_545
Li0 Se3 2.820812 1_444
Li0 Se2 2.820812 1_544
Li0 Se1 2.917788 1_555
Li0 Se0 2.917788 1_445
Li1 Se0 2.820812 1_545
Li1 Se0 2.820812 1_556
Li1 Se1 2.820812 1_555
Li1 Se1 2.820812 1_656
Li1 Se2 2.917788 1_655
Li1 Se3 2.917788 1_545
Ho0 Se0 2.820812 1_556
Ho0 Se1 2.820812 1_555
Ho0 Se0 2.820812 1_455
Ho0 Se1 2.820812 1_566
Ho0 Se3 2.831500 1_555
Ho0 Se2 2.831500 1_555
Ho1 Se3 2.820812 1_544
Ho1 Se2 2.820812 1_554
Ho1 Se3 2.820812 1_555
Ho1 Se2 2.820812 1_655
Ho1 Se0 2.831500 1_555
Ho1 Se1 2.831500 1_555
