# generated using pymatgen
data_Hf3Sn3IrRh2
_symmetry_space_group_name_H-M   'P 1'
_cell_length_a   7.33227932
_cell_length_b   7.33227889
_cell_length_c   7.21355965
_cell_angle_alpha   90.00000000
_cell_angle_beta   90.00000000
_cell_angle_gamma   119.99999754
_symmetry_Int_Tables_number   1
_chemical_formula_structural   Hf3Sn3IrRh2
_chemical_formula_sum   'Hf6 Sn6 Ir2 Rh4'
_cell_volume   335.85997134
_cell_formula_units_Z   2
loop_
 _symmetry_equiv_pos_site_id
 _symmetry_equiv_pos_as_xyz
  1  'x, y, z'
loop_
 _atom_site_type_symbol
 _atom_site_label
 _atom_site_symmetry_multiplicity
 _atom_site_fract_x
 _atom_site_fract_y
 _atom_site_fract_z
 _atom_site_occupancy
  Hf  Hf0  1  0.02070518  0.40878374  0.74838879  1
  Hf  Hf1  1  0.59121626  0.61192044  0.74838879  1
  Hf  Hf2  1  0.38807956  0.97929482  0.74838879  1
  Hf  Hf3  1  0.97929482  0.38807956  0.25161121  1
  Hf  Hf4  1  0.61192044  0.59121626  0.25161121  1
  Hf  Hf5  1  0.40878374  0.02070518  0.25161121  1
  Sn  Sn0  1  0.26676848  0.26676848  0.50000000  1
  Sn  Sn1  1  0.00000000  0.73323152  0.50000000  1
  Sn  Sn2  1  0.00000000  0.72670730  0.00000000  1
  Sn  Sn3  1  0.73323152  0.00000000  0.50000000  1
  Sn  Sn4  1  0.72670730  0.00000000  0.00000000  1
  Sn  Sn5  1  0.27329270  0.27329270  0.00000000  1
  Ir  Ir0  1  0.33333300  0.66666700  0.46664224  1
  Ir  Ir1  1  0.66666700  0.33333300  0.53335776  1
  Rh  Rh0  1  0.33333300  0.66666700  0.04497458  1
  Rh  Rh1  1  0.00000000  0.00000000  0.75331624  1
  Rh  Rh2  1  0.00000000  0.00000000  0.24668376  1
  Rh  Rh3  1  0.66666700  0.33333300  0.95502542  1
loop_
_geom_bond_atom_site_label_1
_geom_bond_atom_site_label_2
_geom_bond_distance
_geom_bond_site_symmetry_2
Hf0 Rh3 2.798306 1_455
Hf0 Ir1 2.831025 1_455
Hf0 Rh1 2.924581 1_555
Hf0 Ir0 2.937031 1_555
Hf0 Rh0 3.012096 1_556
Hf0 Sn2 3.017493 1_556
Hf0 Sn1 3.042039 1_555
Hf0 Sn0 3.070601 1_555
Hf0 Sn5 3.090504 1_556
Hf0 Sn3 3.212391 1_455
Hf0 Sn4 3.234791 1_456
Hf1 Rh3 2.798305 1_555
Hf1 Ir1 2.831025 1_555
Hf1 Rh1 2.924585 1_665
Hf1 Ir0 2.937038 1_555
Hf1 Rh0 3.012103 1_556
Hf1 Sn5 3.017490 1_556
Hf1 Sn0 3.042036 1_555
Hf1 Sn3 3.070607 1_565
Hf1 Sn4 3.090510 1_566
Hf1 Sn1 3.212390 1_655
Hf1 Sn2 3.234789 1_656
Hf2 Rh3 2.798306 1_565
Hf2 Ir1 2.831025 1_565
Hf2 Rh1 2.924589 1_565
Hf2 Ir0 2.937028 1_555
Hf2 Rh0 3.012092 1_556
Hf2 Sn4 3.017487 1_566
Hf2 Sn3 3.042033 1_565
Hf2 Sn1 3.070606 1_555
Hf2 Sn2 3.090509 1_556
Hf2 Sn0 3.212396 1_565
Hf2 Sn5 3.234795 1_566
Hf3 Rh0 2.798306 1_655
Hf3 Ir0 2.831025 1_655
Hf3 Rh2 2.924589 1_655
Hf3 Ir1 2.937028 1_555
Hf3 Rh3 3.012092 1_554
Hf3 Sn2 3.017487 1_655
Hf3 Sn1 3.042033 1_655
Hf3 Sn3 3.070606 1_555
Hf3 Sn4 3.090509 1_555
Hf3 Sn0 3.212396 1_655
Hf3 Sn5 3.234795 1_655
Hf4 Rh0 2.798305 1_555
Hf4 Ir0 2.831025 1_555
Hf4 Rh2 2.924585 1_665
Hf4 Ir1 2.937038 1_555
Hf4 Rh3 3.012102 1_554
Hf4 Sn5 3.017490 1_555
Hf4 Sn0 3.042036 1_555
Hf4 Sn1 3.070607 1_655
Hf4 Sn2 3.090510 1_655
Hf4 Sn3 3.212390 1_565
Hf4 Sn4 3.234789 1_565
Hf5 Rh0 2.798305 1_545
Hf5 Ir0 2.831025 1_545
Hf5 Rh2 2.924582 1_555
Hf5 Ir1 2.937031 1_555
Hf5 Rh3 3.012096 1_554
Hf5 Sn4 3.017493 1_555
Hf5 Sn3 3.042039 1_555
Hf5 Sn0 3.070601 1_555
Hf5 Sn5 3.090504 1_555
Hf5 Sn1 3.212392 1_545
Hf5 Sn2 3.234791 1_545
Ir0 Sn1 2.731772 1_555
Ir0 Sn3 2.731777 1_565
Ir0 Sn0 2.731779 1_555
Ir0 Rh0 3.041725 1_555
Ir1 Sn3 2.731772 1_555
Ir1 Sn1 2.731777 1_655
Ir1 Sn0 2.731779 1_555
Ir1 Rh3 3.041725 1_555
Rh0 Sn2 2.710831 1_555
Rh0 Sn4 2.710835 1_565
Rh0 Sn5 2.710838 1_555
Rh1 Sn1 2.676768 1_545
Rh1 Sn3 2.676768 1_455
Rh1 Sn0 2.676768 1_555
Rh1 Sn2 2.679917 1_546
Rh1 Sn4 2.679917 1_456
Rh1 Sn5 2.679917 1_556
Rh2 Sn1 2.676768 1_545
Rh2 Sn3 2.676768 1_455
Rh2 Sn0 2.676768 1_555
Rh2 Sn2 2.679917 1_545
Rh2 Sn4 2.679917 1_455
Rh2 Sn5 2.679917 1_555
Rh3 Sn4 2.710831 1_556
Rh3 Sn2 2.710835 1_656
Rh3 Sn5 2.710838 1_556
