# generated using pymatgen
data_Lu12Fe3AgBi
_symmetry_space_group_name_H-M   'P 1'
_cell_length_a   8.13565401
_cell_length_b   8.13565446
_cell_length_c   8.13565350
_cell_angle_alpha   110.46297004
_cell_angle_beta   107.97099090
_cell_angle_gamma   109.99039778
_symmetry_Int_Tables_number   1
_chemical_formula_structural   Lu12Fe3AgBi
_chemical_formula_sum   'Lu12 Fe3 Ag1 Bi1'
_cell_volume   414.30984938
_cell_formula_units_Z   1
loop_
 _symmetry_equiv_pos_site_id
 _symmetry_equiv_pos_as_xyz
  1  'x, y, z'
loop_
 _atom_site_type_symbol
 _atom_site_label
 _atom_site_symmetry_multiplicity
 _atom_site_fract_x
 _atom_site_fract_y
 _atom_site_fract_z
 _atom_site_occupancy
  Lu  Lu0  1  0.30451980  0.31649894  0.62101874  1
  Lu  Lu1  1  0.69548020  0.68350106  0.37898126  1
  Lu  Lu2  1  0.69548020  0.31649894  0.01197913  1
  Lu  Lu3  1  0.30451980  0.68350106  0.98802087  1
  Lu  Lu4  1  0.19160982  0.44920443  0.25759461  1
  Lu  Lu5  1  0.80839018  0.55079557  0.74240539  1
  Lu  Lu6  1  0.19160982  0.93401421  0.74240539  1
  Lu  Lu7  1  0.96670298  0.19012552  0.77657846  1
  Lu  Lu8  1  0.80839018  0.06598579  0.25759461  1
  Lu  Lu9  1  0.03329702  0.80987448  0.22342154  1
  Lu  Lu10  1  0.41354705  0.19012552  0.22342154  1
  Lu  Lu11  1  0.58645295  0.80987448  0.77657846  1
  Fe  Fe0  1  0.37733828  0.37733828  1.00000000  1
  Fe  Fe1  1  0.62266172  0.62266172  0.00000000  1
  Fe  Fe2  1  0.00000000  0.00000000  0.00000000  1
  Ag  Ag0  1  0.00000000  0.50000000  0.50000000  1
  Bi  Bi0  1  0.50000000  0.00000000  0.50000000  1
loop_
_geom_bond_atom_site_label_1
_geom_bond_atom_site_label_2
_geom_bond_distance
_geom_bond_site_symmetry_2
Lu0 Lu11 3.366947 1_555
Lu0 Lu7 3.366954 1_455
Lu0 Lu4 3.462022 1_555
Lu0 Lu8 3.462023 1_455
Lu0 Lu5 3.500885 1_555
Lu0 Lu6 3.500892 1_545
Lu0 Lu10 3.517939 1_555
Lu0 Lu9 3.517940 1_545
Lu1 Lu10 3.366947 1_555
Lu1 Lu9 3.366954 1_655
Lu1 Lu5 3.462022 1_555
Lu1 Lu6 3.462023 1_655
Lu1 Lu4 3.500885 1_555
Lu1 Lu8 3.500892 1_565
Lu1 Lu11 3.517939 1_555
Lu1 Lu7 3.517940 1_565
Lu2 Lu9 3.366949 1_655
Lu2 Lu8 3.462015 1_555
Lu2 Lu4 3.462022 1_655
Lu2 Lu5 3.500885 1_554
Lu2 Lu6 3.500887 1_544
Lu2 Lu7 3.517932 1_554
Lu3 Lu7 3.366949 1_455
Lu3 Lu6 3.462015 1_555
Lu3 Lu5 3.462022 1_455
Lu3 Lu4 3.500885 1_556
Lu3 Lu8 3.500887 1_566
Lu3 Lu9 3.517932 1_556
Lu4 Lu7 3.206615 1_454
Lu4 Lu8 3.576951 1_455
Lu4 Lu9 3.644128 1_555
Lu5 Lu9 3.206615 1_656
Lu5 Lu6 3.576951 1_655
Lu5 Lu7 3.644128 1_555
Lu6 Lu7 3.206629 1_465
Lu6 Lu9 3.644135 1_555
Lu7 Lu8 3.644135 1_555
Lu8 Lu9 3.206629 1_645
Lu10 Lu6 3.206615 1_544
Lu10 Lu4 3.206616 1_555
Lu10 Lu2 3.366947 1_555
Lu10 Lu3 3.517940 1_544
Lu10 Lu9 3.549242 1_545
Lu10 Lu8 3.644127 1_555
Lu10 Lu5 3.644132 1_555
Lu11 Lu8 3.206615 1_566
Lu11 Lu5 3.206616 1_555
Lu11 Lu3 3.366947 1_555
Lu11 Lu2 3.517940 1_566
Lu11 Lu7 3.549242 1_565
Lu11 Lu6 3.644127 1_555
Lu11 Lu4 3.644132 1_555
Fe0 Fe1 2.289838 1_556
Fe0 Lu10 2.760919 1_556
Fe0 Lu7 2.760926 1_455
Fe0 Lu0 2.776285 1_555
Fe0 Lu1 2.776285 1_556
Fe0 Lu2 2.776285 1_556
Fe0 Lu3 2.776285 1_555
Fe0 Lu4 2.952685 1_556
Fe0 Lu6 2.952692 1_545
Fe1 Lu11 2.760919 1_554
Fe1 Lu9 2.760926 1_655
Fe1 Lu1 2.776285 1_555
Fe1 Lu0 2.776285 1_554
Fe1 Lu3 2.776285 1_554
Fe1 Lu2 2.776285 1_555
Fe1 Lu5 2.952685 1_554
Fe1 Lu8 2.952692 1_565
Fe2 Lu10 2.778207 1_555
Fe2 Lu11 2.778207 1_444
Fe2 Lu9 2.778207 1_545
Fe2 Lu7 2.778207 1_454
Fe2 Lu5 2.985247 1_444
Fe2 Lu4 2.985247 1_555
Fe2 Lu8 2.985248 1_455
Fe2 Lu6 2.985248 1_544
Ag0 Lu6 2.873635 1_555
Ag0 Lu8 2.873635 1_455
Ag0 Lu4 2.873641 1_555
Ag0 Lu5 2.873641 1_455
Ag0 Lu3 3.374516 1_555
Ag0 Lu2 3.374516 1_455
Ag0 Lu1 3.374517 1_455
Ag0 Lu0 3.374517 1_555
Ag0 Lu11 3.920167 1_555
Ag0 Lu10 3.920167 1_455
Ag0 Lu9 3.920167 1_555
Ag0 Lu7 3.920167 1_455
Bi0 Lu7 3.186101 1_555
Bi0 Lu9 3.186101 1_545
Bi0 Lu11 3.186107 1_545
Bi0 Lu10 3.186107 1_555
Bi0 Lu2 3.481717 1_556
Bi0 Lu3 3.481717 1_544
Bi0 Lu0 3.481718 1_555
Bi0 Lu1 3.481718 1_545
Bi0 Lu4 3.653071 1_545
Bi0 Lu5 3.653071 1_555
Bi0 Lu8 3.653072 1_555
Bi0 Lu6 3.653072 1_545
