# generated using pymatgen
data_Na2TaCr3Se8
_symmetry_space_group_name_H-M   'P 1'
_cell_length_a   14.41875938
_cell_length_b   6.32932470
_cell_length_c   7.29105270
_cell_angle_alpha   89.95321419
_cell_angle_beta   90.00000000
_cell_angle_gamma   90.00000000
_symmetry_Int_Tables_number   1
_chemical_formula_structural   Na2TaCr3Se8
_chemical_formula_sum   'Na4 Ta2 Cr6 Se16'
_cell_volume   665.38861038
_cell_formula_units_Z   2
loop_
 _symmetry_equiv_pos_site_id
 _symmetry_equiv_pos_as_xyz
  1  'x, y, z'
loop_
 _atom_site_type_symbol
 _atom_site_label
 _atom_site_symmetry_multiplicity
 _atom_site_fract_x
 _atom_site_fract_y
 _atom_site_fract_z
 _atom_site_occupancy
  Na  Na0  1  0.25000000  0.66345435  0.73531210  1
  Na  Na1  1  0.75000000  0.33654565  0.26468790  1
  Na  Na2  1  0.75000000  0.99261736  0.73231482  1
  Na  Na3  1  0.25000000  0.00738264  0.26768518  1
  Ta  Ta0  1  0.50000000  0.50000000  0.00000000  1
  Ta  Ta1  1  0.00000000  0.50000000  0.00000000  1
  Cr  Cr0  1  0.49909159  0.99929438  0.74963132  1
  Cr  Cr1  1  0.00090841  0.99929438  0.74963132  1
  Cr  Cr2  1  0.50090841  0.00070562  0.25036868  1
  Cr  Cr3  1  0.99909159  0.00070562  0.25036868  1
  Cr  Cr4  1  0.00000000  0.50000000  0.50000000  1
  Cr  Cr5  1  0.50000000  0.50000000  0.50000000  1
  Se  Se0  1  0.60278468  0.16498571  0.00012914  1
  Se  Se1  1  0.90348952  0.16598248  0.49977610  1
  Se  Se2  1  0.40348952  0.83401752  0.50022390  1
  Se  Se3  1  0.10278468  0.83501429  0.99987086  1
  Se  Se4  1  0.39721532  0.83501429  0.99987086  1
  Se  Se5  1  0.09651048  0.83401752  0.50022390  1
  Se  Se6  1  0.59651048  0.16598248  0.49977610  1
  Se  Se7  1  0.89721532  0.16498571  0.00012914  1
  Se  Se8  1  0.39845887  0.33011909  0.74782029  1
  Se  Se9  1  0.10154113  0.33011909  0.74782029  1
  Se  Se10  1  0.60154113  0.66988091  0.25217971  1
  Se  Se11  1  0.89845887  0.66988091  0.25217971  1
  Se  Se12  1  0.60102727  0.66716875  0.74745461  1
  Se  Se13  1  0.89897273  0.66716875  0.74745461  1
  Se  Se14  1  0.39897273  0.33283125  0.25254539  1
  Se  Se15  1  0.10102727  0.33283125  0.25254539  1
loop_
_geom_bond_atom_site_label_1
_geom_bond_atom_site_label_2
_geom_bond_distance
_geom_bond_site_symmetry_2
Na0 Se2 2.999713 1_555
Na0 Se5 2.999713 1_555
Na0 Se9 3.006882 1_555
Na0 Se8 3.006882 1_555
Na0 Se4 3.067394 1_555
Na0 Se3 3.067394 1_555
Na1 Se1 2.999713 1_555
Na1 Se6 2.999713 1_555
Na1 Se10 3.006882 1_555
Na1 Se11 3.006882 1_555
Na1 Se7 3.067394 1_555
Na1 Se0 3.067394 1_555
Na2 Se13 2.978051 1_555
Na2 Se12 2.978051 1_555
Na2 Se1 2.995578 1_565
Na2 Se6 2.995578 1_565
Na2 Se7 3.084191 1_566
Na2 Se0 3.084191 1_566
Na3 Se14 2.978051 1_555
Na3 Se15 2.978051 1_555
Na3 Se2 2.995578 1_545
Na3 Se5 2.995578 1_545
Na3 Se4 3.084191 1_544
Na3 Se3 3.084191 1_544
Cr0 Se2 2.510838 1_555
Cr0 Se6 2.530143 1_565
Cr0 Se8 2.547534 1_565
Cr0 Se4 2.562155 1_555
Cr0 Se12 2.565060 1_555
Cr0 Se0 2.583417 1_566
Cr1 Se5 2.510838 1_555
Cr1 Se1 2.530143 1_465
Cr1 Se9 2.547534 1_565
Cr1 Se3 2.562155 1_555
Cr1 Se13 2.565060 1_455
Cr1 Se7 2.583417 1_466
Cr2 Se6 2.510838 1_555
Cr2 Se2 2.530143 1_545
Cr2 Se10 2.547534 1_545
Cr2 Se0 2.562155 1_555
Cr2 Se14 2.565060 1_555
Cr2 Se4 2.583417 1_544
Cr3 Se1 2.510838 1_555
Cr3 Se5 2.530143 1_645
Cr3 Se11 2.547534 1_545
Cr3 Se7 2.562155 1_555
Cr3 Se15 2.565060 1_655
Cr3 Se3 2.583417 1_644
Cr4 Se5 2.530986 1_555
Cr4 Se1 2.530986 1_455
Cr4 Se15 2.549454 1_555
Cr4 Se13 2.549454 1_455
Cr4 Se9 2.561506 1_555
Cr4 Se11 2.561506 1_455
Cr5 Se6 2.530986 1_555
Cr5 Se2 2.530986 1_555
Cr5 Se12 2.549454 1_555
Cr5 Se14 2.549454 1_555
Cr5 Se8 2.561506 1_555
Cr5 Se10 2.561506 1_555
Se0 Ta0 2.586998 1_555
Se3 Ta1 2.586998 1_556
Se4 Ta0 2.586998 1_556
Se7 Ta1 2.586998 1_655
Se8 Ta0 2.585263 1_556
Se9 Ta1 2.585263 1_556
Se10 Ta0 2.585263 1_555
Se11 Ta1 2.585263 1_655
Se12 Ta0 2.574631 1_556
Se13 Ta1 2.574631 1_656
Se14 Ta0 2.574631 1_555
Se15 Ta1 2.574631 1_555
