# generated using pymatgen
data_LiGaPdO4
_symmetry_space_group_name_H-M   'P 1'
_cell_length_a   5.84845894
_cell_length_b   5.94197594
_cell_length_c   10.34263594
_cell_angle_alpha   89.55776291
_cell_angle_beta   106.42052817
_cell_angle_gamma   60.54079358
_symmetry_Int_Tables_number   1
_chemical_formula_structural   LiGaPdO4
_chemical_formula_sum   'Li4 Ga4 Pd4 O16'
_cell_volume   295.51595228
_cell_formula_units_Z   4
loop_
 _symmetry_equiv_pos_site_id
 _symmetry_equiv_pos_as_xyz
  1  'x, y, z'
loop_
 _atom_site_type_symbol
 _atom_site_label
 _atom_site_symmetry_multiplicity
 _atom_site_fract_x
 _atom_site_fract_y
 _atom_site_fract_z
 _atom_site_occupancy
  Li  Li0  1  0.13834155  0.91666797  0.19483381  1
  Li  Li1  1  0.13769906  0.41825124  0.69472439  1
  Li  Li2  1  0.86203911  0.08232998  0.80516940  1
  Li  Li3  1  0.86185992  0.58268743  0.30522165  1
  Ga  Ga0  1  0.00006552  0.49945802  0.99998655  1
  Ga  Ga1  1  0.99994395  0.00054288  0.50001700  1
  Ga  Ga2  1  0.49995830  0.00062425  0.50008435  1
  Ga  Ga3  1  0.50004632  0.49938199  0.99991754  1
  Pd  Pd0  1  0.50001511  0.75011007  0.75002976  1
  Pd  Pd1  1  0.50014630  0.99937124  0.00006700  1
  Pd  Pd2  1  0.49999758  0.24988982  0.24998853  1
  Pd  Pd3  1  0.49984063  0.50064575  0.49992469  1
  O  O0  1  0.73786142  0.90681459  0.38225077  1
  O  O1  1  0.73758567  0.40647458  0.88198754  1
  O  O2  1  0.26224430  0.87051898  0.39447956  1
  O  O3  1  0.26244280  0.36916952  0.89454238  1
  O  O4  1  0.73758018  0.13086374  0.60545721  1
  O  O5  1  0.73772884  0.62947569  0.10550386  1
  O  O6  1  0.26241085  0.09369198  0.61802628  1
  O  O7  1  0.26218784  0.59299328  0.11776155  1
  O  O8  1  0.71716278  0.64292382  0.61926306  1
  O  O9  1  0.71732866  0.14172433  0.11928168  1
  O  O10  1  0.25948578  0.64280456  0.61916246  1
  O  O11  1  0.25976051  0.14168310  0.11932928  1
  O  O12  1  0.74013313  0.35816885  0.38061697  1
  O  O13  1  0.74063783  0.85735932  0.88090805  1
  O  O14  1  0.28271774  0.35818005  0.38071374  1
  O  O15  1  0.28277733  0.85719195  0.88075196  1
loop_
_geom_bond_atom_site_label_1
_geom_bond_atom_site_label_2
_geom_bond_distance
_geom_bond_site_symmetry_2
Li0 O2 1.952899 1_555
Li0 O7 1.959308 1_555
Li0 O9 2.029536 1_465
Li0 O11 2.032987 1_565
Li1 O3 1.953795 1_555
Li1 O6 1.961536 1_555
Li1 O8 2.027192 1_455
Li1 O10 2.032685 1_555
Li2 O4 1.952893 1_555
Li2 O1 1.960195 1_555
Li2 O15 2.028324 1_645
Li2 O13 2.033846 1_545
Li3 O5 1.953424 1_555
Li3 O0 1.961237 1_555
Li3 O14 2.028614 1_655
Li3 O12 2.031417 1_555
Ga0 O3 1.983447 1_555
Ga0 O7 1.983823 1_556
Ga0 O5 1.983833 1_456
Ga0 O1 1.984107 1_455
Ga0 O13 2.017623 1_455
Ga0 O11 2.018276 1_556
Ga1 O4 1.983360 1_555
Ga1 O2 1.983838 1_645
Ga1 O0 1.984378 1_545
Ga1 O6 1.984747 1_655
Ga1 O10 2.017277 1_645
Ga1 O12 2.017949 1_555
Ga2 O4 1.983061 1_555
Ga2 O2 1.983720 1_545
Ga2 O6 1.984130 1_555
Ga2 O0 1.984485 1_545
Ga2 O8 2.017213 1_545
Ga2 O14 2.017409 1_555
Ga3 O3 1.982872 1_555
Ga3 O5 1.983466 1_556
Ga3 O1 1.984053 1_555
Ga3 O7 1.984451 1_556
Ga3 O15 2.017613 1_555
Ga3 O9 2.017813 1_556
O0 Pd2 2.013414 1_565
O1 Pd0 2.014141 1_555
O2 Pd3 2.013159 1_555
O3 Pd1 2.013105 1_546
O4 Pd3 2.013060 1_555
O5 Pd1 2.013230 1_555
O6 Pd0 2.014153 1_545
O7 Pd2 2.013352 1_555
O8 Pd0 2.009095 1_555
O8 Pd3 2.009895 1_555
O9 Pd1 2.009118 1_545
O9 Pd2 2.009354 1_555
O10 Pd0 2.009103 1_555
O10 Pd3 2.009637 1_555
O11 Pd1 2.010038 1_545
O11 Pd2 2.010513 1_555
O12 Pd3 2.010138 1_555
O12 Pd2 2.010253 1_555
O13 Pd0 2.009299 1_555
O13 Pd1 2.009435 1_556
O14 Pd2 2.009328 1_555
O14 Pd3 2.009362 1_555
O15 Pd0 2.009046 1_555
O15 Pd1 2.009539 1_556
