# generated using pymatgen
data_Sr3AgBi2H
_symmetry_space_group_name_H-M   'P 1'
_cell_length_a   4.79261844
_cell_length_b   13.02657518
_cell_length_c   13.42315685
_cell_angle_alpha   90.00000000
_cell_angle_beta   90.00000000
_cell_angle_gamma   90.00000000
_symmetry_Int_Tables_number   1
_chemical_formula_structural   Sr3AgBi2H
_chemical_formula_sum   'Sr12 Ag4 Bi8 H4'
_cell_volume   838.02653449
_cell_formula_units_Z   4
loop_
 _symmetry_equiv_pos_site_id
 _symmetry_equiv_pos_as_xyz
  1  'x, y, z'
loop_
 _atom_site_type_symbol
 _atom_site_label
 _atom_site_symmetry_multiplicity
 _atom_site_fract_x
 _atom_site_fract_y
 _atom_site_fract_z
 _atom_site_occupancy
  Sr  Sr0  1  0.25000000  0.06691048  0.62802855  1
  Sr  Sr1  1  0.25000000  0.56691048  0.87197145  1
  Sr  Sr2  1  0.75000000  0.93308952  0.37197145  1
  Sr  Sr3  1  0.75000000  0.43308952  0.12802855  1
  Sr  Sr4  1  0.25000000  0.36415524  0.55749629  1
  Sr  Sr5  1  0.25000000  0.86415524  0.94250371  1
  Sr  Sr6  1  0.75000000  0.63584476  0.44250371  1
  Sr  Sr7  1  0.75000000  0.13584476  0.05749629  1
  Sr  Sr8  1  0.25000000  0.22090785  0.28932401  1
  Sr  Sr9  1  0.25000000  0.72090785  0.21067599  1
  Sr  Sr10  1  0.75000000  0.77909215  0.71067599  1
  Sr  Sr11  1  0.75000000  0.27909215  0.78932401  1
  Ag  Ag0  1  0.25000000  0.12410464  0.87751380  1
  Ag  Ag1  1  0.25000000  0.62410464  0.62248620  1
  Ag  Ag2  1  0.75000000  0.87589536  0.12248620  1
  Ag  Ag3  1  0.75000000  0.37589536  0.37751380  1
  Bi  Bi0  1  0.25000000  0.48556563  0.31887929  1
  Bi  Bi1  1  0.25000000  0.98556563  0.18112071  1
  Bi  Bi2  1  0.75000000  0.51443437  0.68112071  1
  Bi  Bi3  1  0.75000000  0.01443437  0.81887929  1
  Bi  Bi4  1  0.25000000  0.31829766  0.98355809  1
  Bi  Bi5  1  0.25000000  0.81829766  0.51644191  1
  Bi  Bi6  1  0.75000000  0.68170234  0.01644191  1
  Bi  Bi7  1  0.75000000  0.18170234  0.48355809  1
  H  H0  1  0.25000000  0.24727272  0.70636821  1
  H  H1  1  0.25000000  0.74727272  0.79363179  1
  H  H2  1  0.75000000  0.75272728  0.29363179  1
  H  H3  1  0.75000000  0.25272728  0.20636821  1
loop_
_geom_bond_atom_site_label_1
_geom_bond_atom_site_label_2
_geom_bond_distance
_geom_bond_site_symmetry_2
Ag0 Bi3 2.898748 1_555
Ag0 Bi3 2.898748 1_455
Ag0 Bi4 2.902661 1_555
Ag0 Sr11 3.349602 1_555
Ag0 Sr11 3.349602 1_455
Ag0 Sr7 3.406232 1_456
Ag0 Sr7 3.406232 1_556
Ag0 Sr0 3.430756 1_555
Ag0 Sr5 3.496816 1_545
Ag1 Bi2 2.898748 1_555
Ag1 Bi2 2.898748 1_455
Ag1 Bi5 2.902661 1_555
Ag1 Sr10 3.349602 1_555
Ag1 Sr10 3.349602 1_455
Ag1 Sr6 3.406232 1_455
Ag1 Sr6 3.406232 1_555
Ag1 Sr1 3.430756 1_555
Ag1 Sr4 3.496816 1_555
Ag2 Bi1 2.898748 1_655
Ag2 Bi1 2.898748 1_555
Ag2 Bi6 2.902661 1_555
Ag2 Sr9 3.349602 1_555
Ag2 Sr9 3.349602 1_655
Ag2 Sr5 3.406232 1_654
Ag2 Sr5 3.406232 1_554
Ag2 Sr2 3.430756 1_555
Ag2 Sr7 3.496816 1_565
Ag3 Bi0 2.898748 1_555
Ag3 Bi0 2.898748 1_655
Ag3 Bi7 2.902661 1_555
Ag3 Sr8 3.349602 1_555
Ag3 Sr8 3.349602 1_655
Ag3 Sr4 3.406232 1_555
Ag3 Sr4 3.406232 1_655
Ag3 Sr3 3.430756 1_555
Ag3 Sr6 3.496816 1_555
Bi0 Sr9 3.392357 1_555
Bi0 Sr8 3.470336 1_555
Bi0 Sr6 3.511167 1_555
Bi0 Sr6 3.511167 1_455
Bi0 Sr4 3.572185 1_555
Bi0 Sr3 3.573864 1_455
Bi0 Sr3 3.573864 1_555
Bi1 Sr8 3.392357 1_565
Bi1 Sr9 3.470336 1_555
Bi1 Sr7 3.511167 1_565
Bi1 Sr7 3.511167 1_465
Bi1 Sr5 3.572185 1_554
Bi1 Sr2 3.573864 1_455
Bi1 Sr2 3.573864 1_555
Bi2 Sr11 3.392357 1_555
Bi2 Sr10 3.470336 1_555
Bi2 Sr4 3.511167 1_555
Bi2 Sr4 3.511167 1_655
Bi2 Sr6 3.572185 1_555
Bi2 Sr1 3.573864 1_655
Bi2 Sr1 3.573864 1_555
Bi3 Sr10 3.392357 1_545
Bi3 Sr11 3.470336 1_555
Bi3 Sr5 3.511167 1_545
Bi3 Sr5 3.511167 1_645
Bi3 Sr7 3.572185 1_556
Bi3 Sr0 3.573864 1_555
Bi3 Sr0 3.573864 1_655
Bi4 Sr3 3.426229 1_456
Bi4 Sr3 3.426229 1_556
Bi4 Sr7 3.517982 1_456
Bi4 Sr7 3.517982 1_556
Bi4 Sr1 3.568179 1_555
Bi4 Sr11 3.577820 1_555
Bi4 Sr11 3.577820 1_455
Bi5 Sr2 3.426229 1_455
Bi5 Sr2 3.426229 1_555
Bi5 Sr6 3.517982 1_555
Bi5 Sr6 3.517982 1_455
Bi5 Sr0 3.568179 1_565
Bi5 Sr10 3.577820 1_455
Bi5 Sr10 3.577820 1_555
Bi6 Sr1 3.426229 1_554
Bi6 Sr1 3.426229 1_654
Bi6 Sr5 3.517982 1_554
Bi6 Sr5 3.517982 1_654
Bi6 Sr3 3.568179 1_555
Bi6 Sr9 3.577820 1_555
Bi6 Sr9 3.577820 1_655
Bi7 Sr0 3.426229 1_655
Bi7 Sr0 3.426229 1_555
Bi7 Sr4 3.517982 1_655
Bi7 Sr4 3.517982 1_555
Bi7 Sr2 3.568179 1_545
Bi7 Sr8 3.577820 1_555
Bi7 Sr8 3.577820 1_655
H0 Sr4 2.512285 1_555
H0 Sr0 2.574092 1_555
H0 Sr11 2.674706 1_555
H0 Sr11 2.674706 1_455
H1 Sr5 2.512285 1_555
H1 Sr1 2.574092 1_555
H1 Sr10 2.674706 1_555
H1 Sr10 2.674706 1_455
H2 Sr6 2.512285 1_555
H2 Sr2 2.574092 1_555
H2 Sr9 2.674706 1_655
H2 Sr9 2.674706 1_555
H3 Sr7 2.512285 1_555
H3 Sr3 2.574092 1_555
H3 Sr8 2.674706 1_655
H3 Sr8 2.674706 1_555
