# generated using pymatgen
data_BaBiRhPb2
_symmetry_space_group_name_H-M   'P 1'
_cell_length_a   6.82368383
_cell_length_b   6.82368304
_cell_length_c   6.82368367
_cell_angle_alpha   136.41943257
_cell_angle_beta   136.41943507
_cell_angle_gamma   63.33254281
_symmetry_Int_Tables_number   1
_chemical_formula_structural   BaBiRhPb2
_chemical_formula_sum   'Ba1 Bi1 Rh1 Pb2'
_cell_volume   149.05541455
_cell_formula_units_Z   1
loop_
 _symmetry_equiv_pos_site_id
 _symmetry_equiv_pos_as_xyz
  1  'x, y, z'
loop_
 _atom_site_type_symbol
 _atom_site_label
 _atom_site_symmetry_multiplicity
 _atom_site_fract_x
 _atom_site_fract_y
 _atom_site_fract_z
 _atom_site_occupancy
  Ba  Ba0  1  0.00797899  0.00797899  1.00000000  1
  Bi  Bi0  1  0.56823457  0.56823457  0.00000000  1
  Rh  Rh0  1  0.33942441  0.33942441  0.00000000  1
  Pb  Pb0  1  0.75263651  0.25263551  0.50000100  1
  Pb  Pb1  1  0.25263551  0.75263651  0.50000100  1
loop_
_geom_bond_atom_site_label_1
_geom_bond_atom_site_label_2
_geom_bond_distance
_geom_bond_site_symmetry_2
Ba0 Bi0 3.649967 1_456
Ba0 Bi0 3.649968 1_546
Ba0 Bi0 3.649968 1_445
Ba0 Bi0 3.649968 1_557
Ba0 Pb0 3.806851 1_455
Ba0 Pb1 3.806852 1_545
Ba0 Pb1 3.806858 1_556
Ba0 Pb0 3.806858 1_556
Ba0 Rh0 3.849921 1_556
Ba0 Pb1 3.900396 1_546
Ba0 Pb0 3.900396 1_445
Ba0 Pb0 3.900396 1_456
Ba0 Pb1 3.900396 1_445
Ba0 Rh0 4.082351 1_546
Ba0 Rh0 4.082352 1_456
Ba0 Rh0 4.082352 1_557
Ba0 Rh0 4.082352 1_445
Bi0 Rh0 2.657756 1_555
Bi0 Pb1 3.317230 1_554
Bi0 Pb0 3.317230 1_565
Bi0 Pb0 3.317230 1_554
Bi0 Pb1 3.317230 1_655
Pb0 Rh0 2.726251 1_656
Pb0 Rh0 2.726260 1_555
Pb1 Rh0 2.726251 1_566
Pb1 Rh0 2.726260 1_555
