# generated using pymatgen
data_BeV8SiSb4
_symmetry_space_group_name_H-M   'P 1'
_cell_length_a   7.35114285
_cell_length_b   7.35114404
_cell_length_c   7.35114377
_cell_angle_alpha   95.46049205
_cell_angle_beta   95.46049694
_cell_angle_gamma   144.06478234
_symmetry_Int_Tables_number   1
_chemical_formula_structural   BeV8SiSb4
_chemical_formula_sum   'Be1 V8 Si1 Sb4'
_cell_volume   221.76488812
_cell_formula_units_Z   1
loop_
 _symmetry_equiv_pos_site_id
 _symmetry_equiv_pos_as_xyz
  1  'x, y, z'
loop_
 _atom_site_type_symbol
 _atom_site_label
 _atom_site_symmetry_multiplicity
 _atom_site_fract_x
 _atom_site_fract_y
 _atom_site_fract_z
 _atom_site_occupancy
  Be  Be0  1  0.25000000  0.25000000  0.00000000  1
  V  V0  1  0.92613584  0.80873067  0.71879918  1
  V  V1  1  0.80873067  0.08993149  0.88259482  1
  V  V2  1  0.41006851  0.69126933  0.11740518  1
  V  V3  1  0.57386416  0.29266333  0.88259482  1
  V  V4  1  0.69126933  0.57386416  0.28120082  1
  V  V5  1  0.29266333  0.41006851  0.71879918  1
  V  V6  1  0.20733667  0.92613584  0.11740518  1
  V  V7  1  0.08993149  0.20733667  0.28120082  1
  Si  Si0  1  0.75000000  0.75000000  0.00000000  1
  Sb  Sb0  1  0.64345170  0.85654830  0.50000000  1
  Sb  Sb1  1  0.14345170  0.64345170  0.78690339  1
  Sb  Sb2  1  0.85654830  0.35654830  0.21309561  1
  Sb  Sb3  1  0.35654830  0.14345170  0.50000000  1
loop_
_geom_bond_atom_site_label_1
_geom_bond_atom_site_label_2
_geom_bond_distance
_geom_bond_site_symmetry_2
Be0 Si0 2.267675 1_445
Be0 Si0 2.267675 1_555
Be0 V1 2.396823 1_454
Be0 V3 2.396823 1_554
Be0 V7 2.396823 1_555
Be0 V5 2.396823 1_554
Be0 V6 2.396823 1_545
Be0 V4 2.396823 1_555
Be0 V2 2.396823 1_555
Be0 V0 2.396823 1_444
Si0 V6 2.431050 1_655
Si0 V2 2.431050 1_555
Si0 V0 2.431051 1_554
Si0 V4 2.431051 1_555
Si0 V1 2.431051 1_564
Si0 V5 2.431051 1_554
Si0 V3 2.431051 1_554
Si0 V7 2.431051 1_665
Sb0 V2 2.717646 1_555
Sb0 V1 2.717646 1_565
Sb0 V0 2.771869 1_555
Sb0 V4 2.771870 1_555
Sb0 V5 2.786938 1_665
Sb0 V7 2.786938 1_555
Sb0 V7 2.845613 1_665
Sb0 V5 2.845614 1_555
Sb1 V0 2.717646 1_455
Sb1 V5 2.717646 1_555
Sb1 V2 2.771869 1_556
Sb1 V6 2.771870 1_556
Sb1 V1 2.786938 1_455
Sb1 V3 2.786938 1_565
Sb1 V3 2.845613 1_455
Sb1 V1 2.845613 1_565
Sb2 V7 2.717647 1_655
Sb2 V4 2.717647 1_555
Sb2 V3 2.771864 1_554
Sb2 V1 2.771864 1_554
Sb2 V2 2.786934 1_655
Sb2 V6 2.786938 1_545
Sb2 V6 2.845610 1_655
Sb2 V2 2.845614 1_545
Sb3 V3 2.717646 1_555
Sb3 V6 2.717646 1_545
Sb3 V7 2.771869 1_555
Sb3 V5 2.771870 1_555
Sb3 V0 2.786937 1_445
Sb3 V4 2.786938 1_555
Sb3 V4 2.845614 1_445
Sb3 V0 2.845614 1_555
