# generated using pymatgen
data_Ti8Al15TcPt6
_symmetry_space_group_name_H-M   'P 1'
_cell_length_a   8.64923644
_cell_length_b   8.64923683
_cell_length_c   8.64923667
_cell_angle_alpha   120.15598796
_cell_angle_beta   119.77527833
_cell_angle_gamma   90.05985852
_symmetry_Int_Tables_number   1
_chemical_formula_structural   Ti8Al15TcPt6
_chemical_formula_sum   'Ti8 Al15 Tc1 Pt6'
_cell_volume   457.75975807
_cell_formula_units_Z   1
loop_
 _symmetry_equiv_pos_site_id
 _symmetry_equiv_pos_as_xyz
  1  'x, y, z'
loop_
 _atom_site_type_symbol
 _atom_site_label
 _atom_site_symmetry_multiplicity
 _atom_site_fract_x
 _atom_site_fract_y
 _atom_site_fract_z
 _atom_site_occupancy
  Ti  Ti0  1  0.78935118  0.29012945  0.07677183  1
  Ti  Ti1  1  0.21335762  0.29012945  0.50077727  1
  Ti  Ti2  1  0.21108849  0.71108849  0.50000000  1
  Ti  Ti3  1  0.21335762  0.71258036  0.92322817  1
  Ti  Ti4  1  0.78935118  0.71258036  0.49922273  1
  Ti  Ti5  1  0.78631068  0.28631068  0.50000000  1
  Ti  Ti6  1  0.38180578  0.12011741  0.73831264  1
  Ti  Ti7  1  0.38180578  0.64349414  0.26168736  1
  Al  Al0  1  0.99828075  0.49828075  0.50000000  1
  Al  Al1  1  0.15638703  0.34446570  0.18807767  1
  Al  Al2  1  0.15638703  0.96830937  0.81192233  1
  Al  Al3  1  0.15555136  0.34357615  0.81197421  1
  Al  Al4  1  0.53160093  0.34357615  0.18802579  1
  Al  Al5  1  0.84366546  0.65498145  0.81131698  1
  Al  Al6  1  0.84366546  0.03234848  0.18868302  1
  Al  Al7  1  0.84286830  0.65650371  0.18636359  1
  Al  Al8  1  0.47014112  0.65650371  0.81363641  1
  Al  Al9  1  0.38154528  0.11942058  0.26212470  1
  Al  Al10  1  0.85729688  0.11942058  0.73787530  1
  Al  Al11  1  0.62005439  0.88119678  0.26114339  1
  Al  Al12  1  0.62005439  0.35891201  0.73885661  1
  Al  Al13  1  0.62221716  0.88033721  0.74188095  1
  Al  Al14  1  0.13845526  0.88033721  0.25811905  1
  Tc  Tc0  1  0.49740636  0.99740636  0.50000000  1
  Pt  Pt0  1  0.99908068  0.99933102  0.49972876  1
  Pt  Pt1  1  0.49960326  0.99933102  0.00025134  1
  Pt  Pt2  1  0.50005515  0.50005515  1.00000000  1
  Pt  Pt3  1  0.49960326  0.49935192  0.50027124  1
  Pt  Pt4  1  0.99908068  0.49935192  0.99974866  1
  Pt  Pt5  1  0.00057145  0.00057145  1.00000000  1
loop_
_geom_bond_atom_site_label_1
_geom_bond_atom_site_label_2
_geom_bond_distance
_geom_bond_site_symmetry_2
Ti0 Ti6 2.927924 1_554
Ti1 Ti6 2.927938 1_555
Ti2 Ti6 2.929942 1_565
Ti2 Ti7 2.929951 1_555
Ti3 Ti7 2.927924 1_556
Ti4 Ti7 2.927924 1_555
Al0 Ti0 2.590091 1_555
Al0 Ti3 2.590091 1_655
Al0 Ti1 2.590092 1_655
Al0 Ti4 2.590098 1_555
Al0 Ti5 2.591435 1_555
Al0 Ti2 2.601676 1_655
Al1 Pt5 2.502505 1_554
Al1 Pt4 2.508829 1_454
Al1 Pt3 2.508836 1_555
Al1 Ti2 2.773358 1_555
Al1 Ti1 2.780740 1_555
Al1 Ti0 2.780743 1_455
Al1 Ti7 2.828101 1_555
Al1 Al10 2.830735 1_454
Al1 Al9 2.830745 1_555
Al2 Pt5 2.502498 1_565
Al2 Pt0 2.508831 1_455
Al2 Pt1 2.508838 1_556
Al2 Ti2 2.773363 1_555
Al2 Ti3 2.780735 1_555
Al2 Ti4 2.780740 1_455
Al2 Ti6 2.828096 1_565
Al2 Al9 2.830738 1_566
Al3 Pt0 2.504578 1_445
Al3 Pt4 2.504580 1_455
Al3 Pt2 2.514442 1_555
Al3 Ti1 2.792030 1_555
Al3 Ti3 2.792036 1_555
Al3 Ti5 2.796555 1_455
Al3 Ti6 2.824894 1_555
Al3 Ti7 2.824897 1_556
Al4 Pt3 2.504567 1_555
Al4 Pt1 2.504582 1_545
Al4 Pt2 2.514452 1_554
Al4 Ti4 2.792036 1_555
Al4 Ti0 2.792036 1_555
Al4 Ti5 2.796552 1_555
Al4 Al9 2.814846 1_555
Al4 Ti6 2.824897 1_554
Al4 Ti7 2.824898 1_555
Al5 Pt4 2.511396 1_555
Al5 Pt3 2.511404 1_555
Al5 Pt5 2.516044 1_665
Al5 Ti5 2.776303 1_555
Al5 Ti3 2.801363 1_655
Al5 Ti4 2.801367 1_555
Al6 Pt1 2.511402 1_545
Al6 Pt0 2.511409 1_545
Al6 Pt5 2.516037 1_654
Al6 Ti5 2.776309 1_555
Al6 Ti1 2.801363 1_655
Al6 Ti0 2.801364 1_555
Al7 Pt4 2.498771 1_554
Al7 Pt0 2.498773 1_555
Al7 Pt2 2.504835 1_554
Al7 Ti0 2.774473 1_555
Al7 Ti4 2.774484 1_555
Al7 Ti2 2.802528 1_655
Al8 Pt1 2.498773 1_556
Al8 Pt3 2.498773 1_555
Al8 Pt2 2.504830 1_555
Al8 Ti1 2.774475 1_555
Al8 Ti3 2.774481 1_555
Al8 Ti2 2.802537 1_555
Al9 Tc0 2.546952 1_545
Al9 Pt1 2.680929 1_545
Al9 Pt3 2.680929 1_555
Al9 Pt5 2.699301 1_554
Al9 Ti5 2.902536 1_555
Al9 Ti3 2.912328 1_544
Al9 Ti1 2.912328 1_555
Al10 Tc0 2.546959 1_545
Al10 Pt0 2.680922 1_545
Al10 Pt4 2.680929 1_555
Al10 Pt5 2.699301 1_655
Al10 Al3 2.814851 1_655
Al10 Al2 2.830731 1_645
Al10 Ti5 2.902535 1_555
Al10 Ti4 2.912325 1_545
Al10 Ti0 2.912340 1_556
Al10 Al11 2.917165 1_545
Al10 Al12 2.917178 1_555
Al10 Al13 2.923127 1_545
Al11 Tc0 2.548772 1_555
Al11 Pt0 2.684234 1_555
Al11 Pt1 2.684234 1_555
Al11 Pt2 2.688836 1_554
Al11 Al6 2.804347 1_565
Al11 Al8 2.809293 1_554
Al11 Al7 2.809293 1_555
Al11 Ti5 2.894702 1_565
Al11 Ti7 2.912694 1_555
Al11 Al9 2.917172 1_565
Al11 Ti4 2.922055 1_555
Al11 Ti3 2.922063 1_554
Al12 Tc0 2.548779 1_545
Al12 Pt3 2.684227 1_555
Al12 Pt4 2.684233 1_555
Al12 Pt2 2.688843 1_555
Al12 Al5 2.804328 1_555
Al12 Al8 2.809279 1_555
Al12 Al7 2.809289 1_556
Al12 Ti5 2.894693 1_555
Al12 Ti6 2.912719 1_555
Al12 Al9 2.917165 1_555
Al12 Ti1 2.922062 1_555
Al12 Ti0 2.922070 1_556
Al13 Tc0 2.540669 1_555
Al13 Pt5 2.679329 1_665
Al13 Pt1 2.687596 1_556
Al13 Pt3 2.687602 1_555
Al13 Al6 2.805326 1_566
Al13 Al5 2.805339 1_555
Al13 Al8 2.806425 1_555
Al13 Ti0 2.925424 1_566
Al13 Ti4 2.925424 1_555
Al13 Ti6 2.938615 1_565
Al13 Ti7 2.938627 1_555
Al13 Ti2 2.947526 1_555
Al14 Tc0 2.540676 1_555
Al14 Pt5 2.679322 1_564
Al14 Pt0 2.687595 1_455
Al14 Pt4 2.687602 1_454
Al14 Al6 2.805320 1_465
Al14 Al5 2.805324 1_454
Al14 Al7 2.806421 1_455
Al14 Al9 2.923121 1_565
Al14 Ti1 2.925423 1_565
Al14 Ti3 2.925430 1_554
Al14 Ti6 2.938627 1_565
Al14 Ti7 2.938628 1_555
Al14 Ti2 2.947533 1_555
Tc0 Ti7 2.495180 1_555
Tc0 Ti6 2.495187 1_565
Pt0 Ti6 2.711077 1_665
Pt0 Ti4 3.068173 1_555
Pt0 Ti5 3.091242 1_565
Pt0 Ti2 3.096623 1_655
Pt0 Ti1 3.116364 1_665
Pt1 Ti6 2.711078 1_564
Pt1 Ti3 3.068169 1_554
Pt1 Ti5 3.091236 1_565
Pt1 Ti2 3.096629 1_554
Pt1 Ti0 3.116357 1_565
Pt2 Ti7 2.681183 1_556
Pt2 Ti6 2.681190 1_555
Pt2 Ti0 3.093422 1_556
Pt2 Ti4 3.093427 1_556
Pt2 Ti1 3.093428 1_555
Pt2 Ti3 3.093428 1_555
Pt3 Ti7 2.711085 1_555
Pt3 Ti1 3.068175 1_555
Pt3 Ti5 3.091235 1_555
Pt3 Ti2 3.096630 1_555
Pt3 Ti4 3.116350 1_555
Pt4 Ti7 2.711078 1_656
Pt4 Ti0 3.068181 1_556
Pt4 Ti5 3.091235 1_555
Pt4 Ti2 3.096630 1_656
Pt4 Ti3 3.116357 1_655
Pt5 Ti4 3.097463 1_445
Pt5 Ti1 3.097464 1_556
Pt5 Ti3 3.097464 1_545
Pt5 Ti0 3.097470 1_456
