# generated using pymatgen
data_Sc3FeC4
_symmetry_space_group_name_H-M   'P 1'
_cell_length_a   3.44298380
_cell_length_b   4.38601280
_cell_length_c   6.57631479
_cell_angle_alpha   109.48036874
_cell_angle_beta   105.17522288
_cell_angle_gamma   90.00000235
_symmetry_Int_Tables_number   1
_chemical_formula_structural   Sc3FeC4
_chemical_formula_sum   'Sc3 Fe1 C4'
_cell_volume   89.94236355
_cell_formula_units_Z   1
loop_
 _symmetry_equiv_pos_site_id
 _symmetry_equiv_pos_as_xyz
  1  'x, y, z'
loop_
 _atom_site_type_symbol
 _atom_site_label
 _atom_site_symmetry_multiplicity
 _atom_site_fract_x
 _atom_site_fract_y
 _atom_site_fract_z
 _atom_site_occupancy
  Sc  Sc0  1  -0.00000000  0.50000000  -0.00000000  1
  Sc  Sc1  1  0.18852167  0.18851127  0.37704534  1
  Sc  Sc2  1  0.81147833  0.81148873  0.62295466  1
  Fe  Fe0  1  0.50000000  -0.00000000  -0.00000000  1
  C  C0  1  0.37635155  0.20953586  0.75270310  1
  C  C1  1  0.62364845  0.79046414  0.24729690  1
  C  C2  1  0.62365711  0.45681651  0.24731323  1
  C  C3  1  0.37634289  0.54318349  0.75268677  1
loop_
_geom_bond_atom_site_label_1
_geom_bond_atom_site_label_2
_geom_bond_distance
_geom_bond_site_symmetry_2
C0 C3 1.463419 1_555
C0 Fe0 2.074872 1_556
C0 Sc1 2.354027 1_555
C0 Sc0 2.380820 1_656
C0 Sc0 2.380821 1_556
C0 Sc2 2.386649 1_445
C0 Sc2 2.386654 1_545
C1 C2 1.463419 1_555
C1 Fe0 2.074872 1_565
C1 Sc2 2.354027 1_555
C1 Sc0 2.380820 1_555
C1 Sc0 2.380821 1_655
C1 Sc1 2.386649 1_665
C1 Sc1 2.386654 1_565
C2 Fe0 2.074834 1_555
C2 Sc2 2.353978 1_555
C2 Sc0 2.380926 1_655
C2 Sc0 2.380928 1_555
C2 Sc1 2.386626 1_655
C2 Sc1 2.386634 1_555
C3 Fe0 2.074834 1_566
C3 Sc1 2.353978 1_555
C3 Sc0 2.380926 1_556
C3 Sc0 2.380928 1_656
C3 Sc2 2.386626 1_455
C3 Sc2 2.386634 1_555
