# generated using pymatgen
data_Ce2CdS4
_symmetry_space_group_name_H-M   'P 1'
_cell_length_a   7.42815373
_cell_length_b   7.42815373
_cell_length_c   7.42815373
_cell_angle_alpha   110.80503445
_cell_angle_beta   110.80503445
_cell_angle_gamma   106.83531486
_symmetry_Int_Tables_number   1
_chemical_formula_structural   Ce2CdS4
_chemical_formula_sum   'Ce4 Cd2 S8'
_cell_volume   315.01760834
_cell_formula_units_Z   2
loop_
 _symmetry_equiv_pos_site_id
 _symmetry_equiv_pos_as_xyz
  1  'x, y, z'
loop_
 _atom_site_type_symbol
 _atom_site_label
 _atom_site_symmetry_multiplicity
 _atom_site_fract_x
 _atom_site_fract_y
 _atom_site_fract_z
 _atom_site_occupancy
  Ce  Ce0  1  0.37500000  0.98595900  0.11095900  1
  Ce  Ce1  1  0.73595900  0.62500000  0.61095900  1
  Ce  Ce2  1  0.87500000  0.26404100  0.88904100  1
  Ce  Ce3  1  0.01404100  0.12500000  0.38904100  1
  Cd  Cd0  1  0.25000000  0.75000000  0.50000000  1
  Cd  Cd1  1  0.50000000  0.50000000  0.00000000  1
  S  S0  1  0.13036800  0.50886100  0.76288300  1
  S  S1  1  0.11748500  0.99597700  0.73711700  1
  S  S2  1  0.63251500  0.86963200  0.37849300  1
  S  S3  1  0.25886100  0.38036800  0.26288300  1
  S  S4  1  0.61963200  0.88251500  0.87849300  1
  S  S5  1  0.00402300  0.74113900  0.12150700  1
  S  S6  1  0.49113900  0.25402300  0.62150700  1
  S  S7  1  0.74597700  0.36748500  0.23711700  1
loop_
_geom_bond_atom_site_label_1
_geom_bond_atom_site_label_2
_geom_bond_distance
_geom_bond_site_symmetry_2
Ce0 S1 2.798541 1_554
Ce0 S2 2.798545 1_555
Ce0 S5 2.873820 1_555
Ce0 S7 2.873822 1_565
Ce0 S4 2.994935 1_554
Ce0 S0 2.994935 1_554
Ce0 S3 3.226152 1_565
Ce0 S6 3.226153 1_565
Ce1 S7 2.798541 1_555
Ce1 S4 2.798545 1_555
Ce1 S6 2.873820 1_555
Ce1 S1 2.873822 1_655
Ce1 S2 2.994935 1_555
Ce1 S3 2.994935 1_555
Ce1 S0 3.226152 1_655
Ce1 S5 3.226153 1_656
Ce2 S3 2.798545 1_656
Ce2 S6 2.798549 1_555
Ce2 S0 2.873826 1_655
Ce2 S4 2.873826 1_545
Ce2 S5 2.994933 1_656
Ce2 S7 2.994940 1_556
Ce2 S2 3.226152 1_545
Ce2 S1 3.226157 1_645
Ce3 S0 2.798545 1_555
Ce3 S5 2.798549 1_545
Ce3 S3 2.873826 1_555
Ce3 S2 2.873826 1_445
Ce3 S6 2.994933 1_555
Ce3 S1 2.994940 1_545
Ce3 S4 3.226152 1_444
Ce3 S7 3.226157 1_455
Cd0 S1 2.719743 1_555
Cd0 S5 2.719745 1_555
Cd0 S4 2.719747 1_555
Cd0 S3 2.719747 1_555
Cd1 S7 2.719743 1_555
Cd1 S6 2.719745 1_554
Cd1 S0 2.719747 1_554
Cd1 S2 2.719747 1_555
