# generated using pymatgen
data_B4Pd4Pt3Rh
_symmetry_space_group_name_H-M   'P 1'
_cell_length_a   6.79277032
_cell_length_b   6.16781973
_cell_length_c   5.50307813
_cell_angle_alpha   70.16426295
_cell_angle_beta   58.80939999
_cell_angle_gamma   49.95319016
_symmetry_Int_Tables_number   1
_chemical_formula_structural   B4Pd4Pt3Rh
_chemical_formula_sum   'B4 Pd4 Pt3 Rh1'
_cell_volume   150.97867816
_cell_formula_units_Z   1
loop_
 _symmetry_equiv_pos_site_id
 _symmetry_equiv_pos_as_xyz
  1  'x, y, z'
loop_
 _atom_site_type_symbol
 _atom_site_label
 _atom_site_symmetry_multiplicity
 _atom_site_fract_x
 _atom_site_fract_y
 _atom_site_fract_z
 _atom_site_occupancy
  B  B0  1  0.04622465  0.00673035  0.56687391  1
  B  B1  1  0.68817399  0.84580771  0.22427381  1
  B  B2  1  0.39697312  0.56457033  0.99789994  1
  B  B3  1  0.24744190  0.20749587  0.84705639  1
  Pd  Pd0  1  0.96979622  0.77315621  0.37434643  1
  Pd  Pd1  1  0.47824412  0.27897402  0.36545151  1
  Pd  Pd2  1  0.87039458  0.36638976  0.28254065  1
  Pd  Pd3  1  0.87991118  0.38144756  0.77043295  1
  Pt  Pt0  1  0.09018088  0.64531650  0.86201509  1
  Pt  Pt1  1  0.39043710  0.85017020  0.15822299  1
  Pt  Pt2  1  0.60487871  0.15988082  0.84420399  1
  Rh  Rh0  1  0.39254355  0.86486067  0.65148333  1
loop_
_geom_bond_atom_site_label_1
_geom_bond_atom_site_label_2
_geom_bond_distance
_geom_bond_site_symmetry_2
B0 Pt1 2.139809 1_545
B0 Rh0 2.173864 1_545
B0 Pt2 2.191890 1_455
B0 Pt0 2.210185 1_545
B0 Pd3 2.226888 1_455
B0 Pd2 2.228546 1_455
B0 Pd0 2.456734 1_445
B1 Rh0 2.137137 1_555
B1 Pt0 2.156235 1_654
B1 Pd0 2.196484 1_555
B1 Pt1 2.215388 1_555
B1 Pd1 2.265733 1_565
B1 Pd2 2.331588 1_555
B1 Pt2 2.347966 1_564
B2 Pt2 2.144644 1_555
B2 Rh0 2.158012 1_555
B2 Pt1 2.190174 1_556
B2 Pd1 2.232947 1_556
B2 Pd0 2.268312 1_456
B2 Pt0 2.275070 1_555
B2 Pd3 2.354241 1_555
B3 Rh0 2.088131 1_545
B3 Pt0 2.188098 1_555
B3 Pd3 2.213187 1_455
B3 Pt2 2.242251 1_555
B3 Pt1 2.267118 1_546
B3 Pd2 2.295612 1_456
B3 Pd1 2.338626 1_555
