# generated using pymatgen
data_BaAs2IrRh
_symmetry_space_group_name_H-M   'P 1'
_cell_length_a   7.13755742
_cell_length_b   7.13755718
_cell_length_c   7.13755699
_cell_angle_alpha   146.92170049
_cell_angle_beta   146.92169589
_cell_angle_gamma   47.47973797
_symmetry_Int_Tables_number   1
_chemical_formula_structural   BaAs2IrRh
_chemical_formula_sum   'Ba1 As2 Ir1 Rh1'
_cell_volume   107.89374459
_cell_formula_units_Z   1
loop_
 _symmetry_equiv_pos_site_id
 _symmetry_equiv_pos_as_xyz
  1  'x, y, z'
loop_
 _atom_site_type_symbol
 _atom_site_label
 _atom_site_symmetry_multiplicity
 _atom_site_fract_x
 _atom_site_fract_y
 _atom_site_fract_z
 _atom_site_occupancy
  Ba  Ba0  1  0.00000000  0.00000000  0.00000000  1
  As  As0  1  0.35559939  0.35559939  0.00000000  1
  As  As1  1  0.64440061  0.64440061  1.00000000  1
  Ir  Ir0  1  0.75000000  0.25000000  0.50000000  1
  Rh  Rh0  1  0.25000000  0.75000000  0.50000000  1
loop_
_geom_bond_atom_site_label_1
_geom_bond_atom_site_label_2
_geom_bond_distance
_geom_bond_site_symmetry_2
As0 Rh0 2.456117 1_544
As0 Rh0 2.456117 1_555
As0 Ir0 2.456117 1_555
As0 Ir0 2.456117 1_454
As0 Ba0 3.437626 1_554
As0 Ba0 3.437626 1_666
As0 Ba0 3.437626 1_565
As0 Ba0 3.437626 1_655
As1 Ir0 2.456117 1_566
As1 Ir0 2.456117 1_555
As1 Rh0 2.456117 1_555
As1 Rh0 2.456117 1_656
As1 Ba0 3.437626 1_667
As1 Ba0 3.437626 1_555
As1 Ba0 3.437626 1_656
As1 Ba0 3.437626 1_566
