# generated using pymatgen
data_Sr4Rh6O18F
_symmetry_space_group_name_H-M   'P 1'
_cell_length_a   7.90766853
_cell_length_b   7.90721926
_cell_length_c   7.90756054
_cell_angle_alpha   109.47322052
_cell_angle_beta   109.46712172
_cell_angle_gamma   109.47315938
_symmetry_Int_Tables_number   1
_chemical_formula_structural   Sr4Rh6O18F
_chemical_formula_sum   'Sr4 Rh6 O18 F1'
_cell_volume   380.62186309
_cell_formula_units_Z   1
loop_
 _symmetry_equiv_pos_site_id
 _symmetry_equiv_pos_as_xyz
  1  'x, y, z'
loop_
 _atom_site_type_symbol
 _atom_site_label
 _atom_site_symmetry_multiplicity
 _atom_site_fract_x
 _atom_site_fract_y
 _atom_site_fract_z
 _atom_site_occupancy
  Sr  Sr0  1  0.00000198  0.99993545  0.33159766  1
  Sr  Sr1  1  0.66844668  0.66845315  0.66841400  1
  Sr  Sr2  1  0.99993481  0.33168195  0.00000974  1
  Sr  Sr3  1  0.33145625  0.00005212  0.99999850  1
  Rh  Rh0  1  0.50001507  0.66106982  0.16107496  1
  Rh  Rh1  1  0.33882040  0.83872955  0.49993740  1
  Rh  Rh2  1  0.83882615  0.49999879  0.33886643  1
  Rh  Rh3  1  0.50002055  0.33862550  0.83864911  1
  Rh  Rh4  1  0.16132158  0.50003739  0.66131867  1
  Rh  Rh5  1  0.66126282  0.16115605  0.49994987  1
  O  O0  1  0.64198815  0.95442000  0.26104174  1
  O  O1  1  0.38089379  0.73893283  0.69327053  1
  O  O2  1  0.68750705  0.30677550  0.04562754  1
  O  O3  1  0.69331790  0.38079352  0.73886885  1
  O  O4  1  0.04551150  0.68757662  0.30658171  1
  O  O5  1  0.26106413  0.64218723  0.95463122  1
  O  O6  1  0.30669072  0.04547348  0.68749708  1
  O  O7  1  0.95444822  0.26106766  0.64197983  1
  O  O8  1  0.73898616  0.69353864  0.38111572  1
  O  O9  1  0.35796786  0.61904769  0.31243791  1
  O  O10  1  0.61897975  0.31246449  0.35792951  1
  O  O11  1  0.31255345  0.35806311  0.61926894  1
  O  O12  1  0.64168898  0.64152483  0.99994857  1
  O  O13  1  0.64155019  0.99994154  0.64157136  1
  O  O14  1  0.00003134  0.35844456  0.35839771  1
  O  O15  1  0.35839689  0.00000078  0.35845534  1
  O  O16  1  0.00001347  0.64171207  0.64168618  1
  O  O17  1  0.35834663  0.35825788  0.99986354  1
  F  F0  1  0.99995853  0.00003678  0.00001239  1
loop_
_geom_bond_atom_site_label_1
_geom_bond_atom_site_label_2
_geom_bond_distance
_geom_bond_site_symmetry_2
O0 Rh0 1.927546 1_555
O0 Rh5 1.961483 1_565
O0 Sr0 2.567036 1_655
O0 Sr3 2.851290 1_564
O1 Rh1 1.926387 1_555
O1 Rh4 1.962012 1_555
O1 Sr1 2.566998 1_555
O1 Sr3 2.851326 1_565
O2 Rh2 1.926812 1_555
O2 Rh3 1.961287 1_554
O2 Sr2 2.567027 1_555
O2 Sr3 2.850653 1_554
O3 Rh3 1.926032 1_555
O3 Rh5 1.961998 1_555
O3 Sr1 2.567675 1_555
O3 Sr2 2.849388 1_556
O4 Rh1 1.927549 1_555
O4 Rh2 1.962315 1_455
O4 Sr0 2.565797 1_555
O4 Sr2 2.849399 1_455
O5 Rh4 1.927810 1_555
O5 Rh0 1.962399 1_556
O5 Sr3 2.566266 1_565
O5 Sr2 2.849892 1_456
O6 Rh3 1.926419 1_555
O6 Rh1 1.961699 1_545
O6 Sr3 2.567075 1_555
O6 Sr0 2.850331 1_545
O7 Rh5 1.926720 1_555
O7 Rh4 1.962060 1_655
O7 Sr2 2.567077 1_556
O7 Sr0 2.850176 1_645
O8 Rh2 1.928061 1_555
O8 Rh0 1.962533 1_555
O8 Sr1 2.565741 1_555
O8 Sr0 2.849627 1_655
O9 Rh0 1.927993 1_555
O9 Rh1 1.961240 1_555
O9 Sr2 2.566762 1_455
O9 Sr1 2.850442 1_555
O10 Rh5 1.927881 1_555
O10 Rh2 1.961848 1_555
O10 Sr3 2.566530 1_554
O10 Sr1 2.849980 1_555
O11 Rh4 1.926726 1_555
O11 Rh3 1.961174 1_555
O11 Sr0 2.567792 1_545
O11 Sr1 2.850405 1_555
O12 Rh0 1.959060 1_556
O12 Rh3 1.959641 1_555
O12 Sr1 2.770366 1_555
O12 Sr0 2.770494 1_656
O13 Rh1 1.958699 1_555
O13 Rh5 1.959368 1_565
O13 Sr1 2.770068 1_555
O13 Sr2 2.771009 1_566
O14 Rh2 1.958836 1_455
O14 Rh4 1.959979 1_555
O14 Sr2 2.770342 1_455
O14 Sr0 2.771289 1_545
O15 Rh1 1.958778 1_545
O15 Rh5 1.959611 1_555
O15 Sr0 2.770346 1_545
O15 Sr3 2.770960 1_554
O16 Rh2 1.959234 1_455
O16 Rh4 1.960317 1_555
O16 Sr3 2.769851 1_565
O16 Sr1 2.770025 1_455
O17 Rh0 1.959041 1_556
O17 Rh3 1.959664 1_555
O17 Sr3 2.769183 1_555
O17 Sr2 2.771663 1_456
F0 Sr3 2.621370 1_654
F0 Sr1 2.621849 1_544
F0 Sr0 2.622183 1_645
F0 Sr2 2.622461 1_555
