# generated using pymatgen
data_Sr3Sn4Ir3Rh
_symmetry_space_group_name_H-M   'P 1'
_cell_length_a   7.03289105
_cell_length_b   7.03723545
_cell_length_c   7.03289091
_cell_angle_alpha   109.48373802
_cell_angle_beta   109.45870466
_cell_angle_gamma   109.48373359
_symmetry_Int_Tables_number   1
_chemical_formula_structural   Sr3Sn4Ir3Rh
_chemical_formula_sum   'Sr3 Sn4 Ir3 Rh1'
_cell_volume   267.90501831
_cell_formula_units_Z   1
loop_
 _symmetry_equiv_pos_site_id
 _symmetry_equiv_pos_as_xyz
  1  'x, y, z'
loop_
 _atom_site_type_symbol
 _atom_site_label
 _atom_site_symmetry_multiplicity
 _atom_site_fract_x
 _atom_site_fract_y
 _atom_site_fract_z
 _atom_site_occupancy
  Sr  Sr0  1  0.49886991  0.50005882  1.00000000  1
  Sr  Sr1  1  1.00000000  0.50005882  0.49886991  1
  Sr  Sr2  1  0.50113009  0.00118891  0.50113009  1
  Sn  Sn0  1  0.38374971  0.00023752  0.00000000  1
  Sn  Sn1  1  1.00000000  0.00023752  0.38374971  1
  Sn  Sn2  1  1.00000000  0.38440336  1.00000000  1
  Sn  Sn3  1  0.61624929  0.61648681  0.61625029  1
  Ir  Ir0  1  0.00000000  0.99931668  0.74933820  1
  Ir  Ir1  1  0.25066180  0.24997848  0.25066180  1
  Ir  Ir2  1  0.74933820  0.99931668  1.00000000  1
  Rh  Rh0  1  0.00000000  0.74871639  0.00000000  1
loop_
_geom_bond_atom_site_label_1
_geom_bond_atom_site_label_2
_geom_bond_distance
_geom_bond_site_symmetry_2
Sn0 Sr0 3.335813 1_554
Sn0 Sr1 3.338414 1_444
Sn0 Sr2 3.338414 1_555
Sn1 Sr1 3.335812 1_555
Sn1 Sr0 3.338414 1_544
Sn1 Sr2 3.338414 1_655
Sn2 Sr2 3.326726 1_555
Sn2 Sr1 3.326726 1_556
Sn2 Sr0 3.326726 1_655
Sn3 Sr2 3.335816 1_565
Sn3 Sr0 3.338408 1_555
Sn3 Sr1 3.338418 1_555
Ir0 Sn1 2.573313 1_465
Ir0 Sn0 2.683747 1_566
Ir0 Sn3 2.683755 1_455
Ir0 Sn2 2.695312 1_465
Ir0 Ir1 2.878544 1_566
Ir0 Ir2 2.878544 1_455
Ir0 Rh0 2.879524 1_556
Ir0 Sr1 3.364283 1_455
Ir0 Sr0 3.364910 1_565
Ir0 Sr2 3.364910 1_465
Ir1 Sn3 2.573308 1_555
Ir1 Sn0 2.683747 1_555
Ir1 Sn1 2.683747 1_455
Ir1 Sn2 2.695312 1_454
Ir1 Ir2 2.878544 1_444
Ir1 Rh0 2.879524 1_545
Ir1 Sr2 3.364283 1_555
Ir1 Sr1 3.364910 1_455
Ir1 Sr0 3.364910 1_554
Ir2 Sn0 2.573313 1_566
Ir2 Sn1 2.683747 1_566
Ir2 Sn3 2.683749 1_555
Ir2 Sn2 2.695312 1_565
Ir2 Rh0 2.879524 1_656
Ir2 Sr0 3.364283 1_555
Ir2 Sr1 3.364910 1_566
Ir2 Sr2 3.364910 1_565
Rh0 Sn2 2.563757 1_454
Rh0 Sn1 2.688901 1_465
Rh0 Sn0 2.688901 1_565
Rh0 Sn3 2.688902 1_454
Rh0 Sr1 3.371848 1_454
Rh0 Sr2 3.371848 1_565
Rh0 Sr0 3.371848 1_454
