# generated using pymatgen
data_Hf6Ta5TiSn10
_symmetry_space_group_name_H-M   'P 1'
_cell_length_a   9.54141760
_cell_length_b   9.54141768
_cell_length_c   5.73693874
_cell_angle_alpha   90.36924378
_cell_angle_beta   89.63075509
_cell_angle_gamma   119.84439330
_symmetry_Int_Tables_number   1
_chemical_formula_structural   Hf6Ta5TiSn10
_chemical_formula_sum   'Hf6 Ta5 Ti1 Sn10'
_cell_volume   453.00547507
_cell_formula_units_Z   1
loop_
 _symmetry_equiv_pos_site_id
 _symmetry_equiv_pos_as_xyz
  1  'x, y, z'
loop_
 _atom_site_type_symbol
 _atom_site_label
 _atom_site_symmetry_multiplicity
 _atom_site_fract_x
 _atom_site_fract_y
 _atom_site_fract_z
 _atom_site_occupancy
  Hf  Hf0  1  0.84674142  0.69058291  0.75445333  1
  Hf  Hf1  1  0.15517115  0.84482885  0.24908493  1
  Hf  Hf2  1  0.69058291  0.84674142  0.24554667  1
  Hf  Hf3  1  0.30941709  0.15325858  0.75445333  1
  Hf  Hf4  1  0.84482885  0.15517115  0.75091507  1
  Hf  Hf5  1  0.15325858  0.30941709  0.24554667  1
  Ta  Ta0  1  0.50000000  0.00000000  0.50000000  1
  Ta  Ta1  1  0.50000000  0.50000000  0.00000000  1
  Ta  Ta2  1  0.00000000  0.50000000  0.00000000  1
  Ta  Ta3  1  0.00000000  0.50000000  0.50000000  1
  Ta  Ta4  1  0.50000000  0.00000000  0.00000000  1
  Ti  Ti0  1  0.50000000  0.50000000  0.50000000  1
  Sn  Sn0  1  0.21187082  0.41905276  0.74521651  1
  Sn  Sn1  1  0.79057296  0.20942704  0.25082353  1
  Sn  Sn2  1  0.41905276  0.21187082  0.25478349  1
  Sn  Sn3  1  0.58094724  0.78812918  0.74521651  1
  Sn  Sn4  1  0.20942704  0.79057296  0.74917647  1
  Sn  Sn5  1  0.78812918  0.58094724  0.25478349  1
  Sn  Sn6  1  0.66558259  0.33441741  0.75380373  1
  Sn  Sn7  1  0.33441741  0.66558259  0.24619627  1
  Sn  Sn8  1  0.00000000  0.00000000  0.50000000  1
  Sn  Sn9  1  0.00000000  0.00000000  0.00000000  1
loop_
_geom_bond_atom_site_label_1
_geom_bond_atom_site_label_2
_geom_bond_distance
_geom_bond_site_symmetry_2
Hf0 Sn9 2.918016 1_666
Hf0 Sn6 2.947864 1_555
Hf0 Sn8 2.952367 1_665
Hf0 Sn5 3.004005 1_555
Hf0 Sn5 3.013598 1_556
Hf0 Sn4 3.098302 1_655
Hf0 Sn3 3.106810 1_555
Hf0 Ta2 3.183641 1_656
Hf0 Ta3 3.187608 1_655
Hf0 Ta1 3.197154 1_556
Hf0 Ti0 3.228537 1_555
Hf1 Sn8 2.929670 1_565
Hf1 Sn9 2.943183 1_565
Hf1 Sn7 2.959861 1_555
Hf1 Sn4 2.998257 1_554
Hf1 Sn4 3.011997 1_555
Hf1 Sn5 3.135061 1_455
Hf1 Sn2 3.135061 1_565
Hf1 Ta4 3.190222 1_565
Hf1 Ta2 3.190222 1_555
Hf1 Ta3 3.205392 1_555
Hf1 Ta0 3.205392 1_565
Hf2 Sn9 2.918016 1_665
Hf2 Sn7 2.947864 1_555
Hf2 Sn8 2.952367 1_665
Hf2 Sn3 3.004005 1_555
Hf2 Sn3 3.013598 1_554
Hf2 Sn1 3.098302 1_565
Hf2 Sn5 3.106810 1_555
Hf2 Ta4 3.183641 1_565
Hf2 Ta0 3.187608 1_565
Hf2 Ta1 3.197154 1_555
Hf2 Ti0 3.228537 1_555
Hf3 Sn9 2.918016 1_556
Hf3 Sn6 2.947864 1_555
Hf3 Sn8 2.952367 1_555
Hf3 Sn2 3.004005 1_555
Hf3 Sn2 3.013598 1_556
Hf3 Sn4 3.098302 1_545
Hf3 Sn0 3.106810 1_555
Hf3 Ta4 3.183641 1_556
Hf3 Ta0 3.187608 1_555
Hf3 Ta1 3.197154 1_556
Hf3 Ti0 3.228537 1_555
Hf4 Sn8 2.929670 1_655
Hf4 Sn9 2.943183 1_656
Hf4 Sn6 2.959861 1_555
Hf4 Sn1 2.998257 1_556
Hf4 Sn1 3.011997 1_555
Hf4 Sn0 3.135061 1_655
Hf4 Sn3 3.135061 1_545
Hf4 Ta4 3.190222 1_556
Hf4 Ta2 3.190222 1_656
Hf4 Ta3 3.205392 1_655
Hf4 Ta0 3.205392 1_555
Hf5 Sn9 2.918016 1_555
Hf5 Sn7 2.947864 1_555
Hf5 Sn8 2.952367 1_555
Hf5 Sn0 3.004005 1_555
Hf5 Sn0 3.013598 1_554
Hf5 Sn1 3.098302 1_455
Hf5 Sn2 3.106810 1_555
Hf5 Ta2 3.183641 1_555
Hf5 Ta3 3.187608 1_555
Hf5 Ta1 3.197154 1_555
Hf5 Ti0 3.228537 1_555
Ta0 Ta4 2.868469 1_555
Ta0 Ta4 2.868469 1_556
Ta1 Ti0 2.868469 1_555
Ta1 Ti0 2.868469 1_554
Ta2 Ta3 2.868469 1_555
Ta2 Ta3 2.868469 1_554
Sn0 Ti0 2.825652 1_555
Sn0 Ta1 2.866153 1_556
Sn0 Ta3 2.875222 1_555
Sn0 Ta2 2.884622 1_556
Sn1 Ta0 2.862660 1_555
Sn1 Ta3 2.862660 1_655
Sn1 Ta2 2.872378 1_655
Sn1 Ta4 2.872378 1_555
Sn2 Ti0 2.825652 1_555
Sn2 Ta1 2.866153 1_555
Sn2 Ta0 2.875222 1_555
Sn2 Ta4 2.884622 1_555
Sn3 Ti0 2.825652 1_555
Sn3 Ta1 2.866153 1_556
Sn3 Ta0 2.875222 1_565
Sn3 Ta4 2.884622 1_566
Sn4 Ta0 2.862660 1_565
Sn4 Ta3 2.862660 1_555
Sn4 Ta2 2.872378 1_556
Sn4 Ta4 2.872378 1_566
Sn5 Ti0 2.825652 1_555
Sn5 Ta1 2.866153 1_555
Sn5 Ta3 2.875222 1_655
Sn5 Ta2 2.884622 1_655
Sn6 Ta1 3.068195 1_556
Sn6 Ti0 3.107383 1_555
Sn6 Ta4 3.111943 1_556
Sn6 Ta2 3.111943 1_656
Sn6 Ta3 3.122470 1_655
Sn6 Ta0 3.122470 1_555
Sn7 Ta1 3.068195 1_555
Sn7 Ti0 3.107383 1_555
Sn7 Ta4 3.111943 1_565
Sn7 Ta2 3.111943 1_555
Sn7 Ta3 3.122470 1_555
Sn7 Ta0 3.122470 1_565
Sn8 Sn9 2.868469 1_555
Sn8 Sn9 2.868469 1_556
