# generated using pymatgen
data_K2VFeS4
_symmetry_space_group_name_H-M   'P 1'
_cell_length_a   13.15818498
_cell_length_b   11.77227877
_cell_length_c   7.02483294
_cell_angle_alpha   84.86725267
_cell_angle_beta   63.01001664
_cell_angle_gamma   32.12273253
_symmetry_Int_Tables_number   1
_chemical_formula_structural   K2VFeS4
_chemical_formula_sum   'K4 V2 Fe2 S8'
_cell_volume   403.56493985
_cell_formula_units_Z   2
loop_
 _symmetry_equiv_pos_site_id
 _symmetry_equiv_pos_as_xyz
  1  'x, y, z'
loop_
 _atom_site_type_symbol
 _atom_site_label
 _atom_site_symmetry_multiplicity
 _atom_site_fract_x
 _atom_site_fract_y
 _atom_site_fract_z
 _atom_site_occupancy
  K  K0  1  0.67769260  0.67769260  0.32230740  1
  K  K1  1  0.92769260  0.92769260  0.57230740  1
  K  K2  1  0.32230740  0.32230740  0.67769260  1
  K  K3  1  0.57230740  0.57230740  0.92769260  1
  V  V0  1  0.75000000  0.75000000  0.75000000  1
  V  V1  1  0.50000000  0.50000000  0.50000000  1
  Fe  Fe0  1  0.00000000  0.00000000  0.00000000  1
  Fe  Fe1  1  0.25000000  0.25000000  0.25000000  1
  S  S0  1  0.03354217  0.35852621  0.66251653  1
  S  S1  1  0.21645783  0.89147379  0.58748347  1
  S  S2  1  0.89147379  0.21645783  0.30458592  1
  S  S3  1  0.58748347  0.30458592  0.21645783  1
  S  S4  1  0.94541408  0.66251653  0.35852621  1
  S  S5  1  0.66251653  0.94541408  0.03354217  1
  S  S6  1  0.35852621  0.03354217  0.94541408  1
  S  S7  1  0.30458592  0.58748347  0.89147379  1
loop_
_geom_bond_atom_site_label_1
_geom_bond_atom_site_label_2
_geom_bond_distance
_geom_bond_site_symmetry_2
K0 S6 3.337997 1_565
K0 S0 3.338003 1_654
K0 S1 3.367906 1_555
K0 S2 3.367908 1_555
K0 S6 3.430012 1_654
K0 S0 3.430014 1_565
K0 S4 3.499379 1_555
K0 S5 3.499383 1_555
K1 S7 3.338000 1_565
K1 S3 3.338001 1_655
K1 S5 3.367915 1_556
K1 S4 3.367919 1_555
K1 S7 3.430012 1_654
K1 S3 3.430018 1_566
K1 S2 3.499389 1_565
K1 S1 3.499392 1_655
K2 S4 3.338000 1_545
K2 S5 3.338001 1_456
K2 S3 3.367915 1_555
K2 S7 3.367919 1_555
K2 S4 3.430012 1_456
K2 S5 3.430018 1_545
K2 S6 3.499389 1_555
K2 S0 3.499392 1_555
K3 S2 3.337997 1_555
K3 S1 3.338003 1_556
K3 S0 3.367906 1_655
K3 S6 3.367908 1_565
K3 S2 3.430012 1_466
K3 S1 3.430014 1_645
K3 S7 3.499379 1_555
K3 S3 3.499383 1_556
Fe0 S3 2.269209 1_455
Fe0 S7 2.269211 1_544
Fe0 S1 2.269214 1_544
Fe0 S2 2.269219 1_455
Fe1 S5 2.269209 1_545
Fe1 S4 2.269211 1_455
Fe1 S0 2.269214 1_555
Fe1 S6 2.269219 1_554
S0 V0 2.199537 1_455
S1 V1 2.199537 1_555
S2 V1 2.199539 1_555
S3 V1 2.199529 1_555
S4 V0 2.199534 1_555
S5 V0 2.199529 1_554
S6 V0 2.199539 1_545
S7 V1 2.199534 1_555
