# generated using pymatgen
data_P4PtRhO14
_symmetry_space_group_name_H-M   'P 1'
_cell_length_a   4.71370196
_cell_length_b   6.84595368
_cell_length_c   7.99317173
_cell_angle_alpha   91.81916678
_cell_angle_beta   91.24879390
_cell_angle_gamma   107.71944062
_symmetry_Int_Tables_number   1
_chemical_formula_structural   P4PtRhO14
_chemical_formula_sum   'P4 Pt1 Rh1 O14'
_cell_volume   245.44300930
_cell_formula_units_Z   1
loop_
 _symmetry_equiv_pos_site_id
 _symmetry_equiv_pos_as_xyz
  1  'x, y, z'
loop_
 _atom_site_type_symbol
 _atom_site_label
 _atom_site_symmetry_multiplicity
 _atom_site_fract_x
 _atom_site_fract_y
 _atom_site_fract_z
 _atom_site_occupancy
  P  P0  1  0.55144651  0.14597475  0.76549658  1
  P  P1  1  0.11342296  0.74651388  0.69077330  1
  P  P2  1  0.88657704  0.25348612  0.30922670  1
  P  P3  1  0.44855349  0.85402525  0.23450342  1
  Pt  Pt0  1  0.00000000  0.00000000  0.00000000  1
  Rh  Rh0  1  0.50000000  0.50000000  0.50000000  1
  O  O0  1  0.40083892  0.16937908  0.92853188  1
  O  O1  1  0.01621156  0.74833759  0.87162324  1
  O  O2  1  0.83430395  0.08570202  0.79443729  1
  O  O3  1  0.28780135  0.59280569  0.67959952  1
  O  O4  1  0.64167790  0.33324859  0.66277764  1
  O  O5  1  0.32735768  0.96738629  0.65165634  1
  O  O6  1  0.86420868  0.72130414  0.55889833  1
  O  O7  1  0.13579132  0.27869586  0.44110167  1
  O  O8  1  0.67264232  0.03261371  0.34834366  1
  O  O9  1  0.35832210  0.66675141  0.33722236  1
  O  O10  1  0.71219865  0.40719431  0.32040048  1
  O  O11  1  0.16569605  0.91429798  0.20556271  1
  O  O12  1  0.98378844  0.25166241  0.12837676  1
  O  O13  1  0.59916108  0.83062092  0.07146812  1
loop_
_geom_bond_atom_site_label_1
_geom_bond_atom_site_label_2
_geom_bond_distance
_geom_bond_site_symmetry_2
O0 P0 1.524538 1_555
O0 Pt0 1.999087 1_556
O1 P1 1.526759 1_555
O1 Pt0 1.999597 1_566
O2 P0 1.526099 1_555
O2 Pt0 1.984499 1_656
O3 P1 1.521391 1_555
O3 Rh0 1.963802 1_555
O4 P0 1.499616 1_555
O4 Rh0 1.990619 1_555
O5 P1 1.586398 1_555
O5 P0 1.593700 1_565
O6 P1 1.527072 1_655
O6 Rh0 1.949493 1_555
O7 P2 1.527072 1_455
O7 Rh0 1.949493 1_555
O8 P2 1.586398 1_555
O8 P3 1.593700 1_545
O9 P3 1.499616 1_555
O9 Rh0 1.990619 1_555
O10 P2 1.521391 1_555
O10 Rh0 1.963802 1_555
O11 P3 1.526099 1_555
O11 Pt0 1.984499 1_565
O12 P2 1.526759 1_555
O12 Pt0 1.999597 1_655
O13 P3 1.524538 1_555
O13 Pt0 1.999087 1_665
