# generated using pymatgen
data_Sr4GaRuO8
_symmetry_space_group_name_H-M   'P 1'
_cell_length_a   6.83305668
_cell_length_b   6.83305618
_cell_length_c   5.53252535
_cell_angle_alpha   90.00000000
_cell_angle_beta   90.00000000
_cell_angle_gamma   132.21720320
_symmetry_Int_Tables_number   1
_chemical_formula_structural   Sr4GaRuO8
_chemical_formula_sum   'Sr4 Ga1 Ru1 O8'
_cell_volume   191.31050684
_cell_formula_units_Z   1
loop_
 _symmetry_equiv_pos_site_id
 _symmetry_equiv_pos_as_xyz
  1  'x, y, z'
loop_
 _atom_site_type_symbol
 _atom_site_label
 _atom_site_symmetry_multiplicity
 _atom_site_fract_x
 _atom_site_fract_y
 _atom_site_fract_z
 _atom_site_occupancy
  Sr  Sr0  1  0.64322960  0.35677040  0.00000000  1
  Sr  Sr1  1  0.14586688  0.85413312  0.50000000  1
  Sr  Sr2  1  0.85413312  0.14586688  0.50000000  1
  Sr  Sr3  1  0.35677040  0.64322960  0.00000000  1
  Ga  Ga0  1  0.50000000  0.50000000  0.50000000  1
  Ru  Ru0  1  0.00000000  0.00000000  0.00000000  1
  O  O0  1  0.75337873  0.75337873  0.75395174  1
  O  O1  1  0.24662127  0.24662127  0.24604826  1
  O  O2  1  0.24662127  0.24662127  0.75395174  1
  O  O3  1  0.75337873  0.75337873  0.24604826  1
  O  O4  1  0.84034776  0.15965224  0.00000000  1
  O  O5  1  0.34242138  0.65757862  0.50000000  1
  O  O6  1  0.65757862  0.34242138  0.50000000  1
  O  O7  1  0.15965224  0.84034776  0.00000000  1
loop_
_geom_bond_atom_site_label_1
_geom_bond_atom_site_label_2
_geom_bond_distance
_geom_bond_site_symmetry_2
Ga0 O5 1.968965 1_555
Ga0 O6 1.968965 1_555
Ga0 O0 1.985135 1_555
Ga0 O3 1.985135 1_555
Ga0 O2 1.985135 1_555
Ga0 O1 1.985135 1_555
O0 Ru0 1.927770 1_666
O0 Sr0 2.650043 1_556
O0 Sr3 2.650044 1_556
O0 Sr2 2.675672 1_565
O0 Sr1 2.675672 1_655
O1 Ru0 1.927770 1_555
O1 Sr3 2.650043 1_555
O1 Sr0 2.650044 1_555
O1 Sr1 2.675672 1_545
O1 Sr2 2.675672 1_455
O2 Ru0 1.927770 1_556
O2 Sr3 2.650043 1_556
O2 Sr0 2.650044 1_556
O2 Sr1 2.675672 1_545
O2 Sr2 2.675672 1_455
O3 Ru0 1.927770 1_665
O3 Sr0 2.650043 1_555
O3 Sr3 2.650044 1_555
O3 Sr2 2.675672 1_565
O3 Sr1 2.675672 1_655
O4 Ru0 1.994875 1_655
O4 Sr0 2.463017 1_555
O4 Sr2 2.771620 1_555
O4 Sr2 2.771620 1_554
O4 Sr3 2.775015 1_545
O4 Sr3 2.775015 1_655
O5 Sr1 2.455974 1_555
O5 Sr2 2.771284 1_455
O5 Sr2 2.771284 1_565
O5 Sr3 2.772067 1_555
O5 Sr3 2.772067 1_556
O6 Sr2 2.455974 1_555
O6 Sr1 2.771284 1_655
O6 Sr1 2.771284 1_545
O6 Sr0 2.772067 1_555
O6 Sr0 2.772067 1_556
O7 Ru0 1.994875 1_565
O7 Sr3 2.463017 1_555
O7 Sr1 2.771620 1_554
O7 Sr1 2.771620 1_555
O7 Sr0 2.775015 1_565
O7 Sr0 2.775015 1_455
