# generated using pymatgen
data_Y6Ta3Al13Os7
_symmetry_space_group_name_H-M   'P 1'
_cell_length_a   9.00862835
_cell_length_b   9.00862850
_cell_length_c   9.00862743
_cell_angle_alpha   59.68776530
_cell_angle_beta   59.68776705
_cell_angle_gamma   59.68776428
_symmetry_Int_Tables_number   1
_chemical_formula_structural   Y6Ta3Al13Os7
_chemical_formula_sum   'Y6 Ta3 Al13 Os7'
_cell_volume   513.29802038
_cell_formula_units_Z   1
loop_
 _symmetry_equiv_pos_site_id
 _symmetry_equiv_pos_as_xyz
  1  'x, y, z'
loop_
 _atom_site_type_symbol
 _atom_site_label
 _atom_site_symmetry_multiplicity
 _atom_site_fract_x
 _atom_site_fract_y
 _atom_site_fract_z
 _atom_site_occupancy
  Y  Y0  1  0.71002317  0.71002317  0.28300268  1
  Y  Y1  1  0.29327751  0.70921088  0.29327751  1
  Y  Y2  1  0.70921088  0.29327751  0.29327751  1
  Y  Y3  1  0.29327751  0.29327751  0.70921088  1
  Y  Y4  1  0.71002317  0.28300268  0.71002317  1
  Y  Y5  1  0.28300268  0.71002317  0.71002317  1
  Ta  Ta0  1  0.87764188  0.87764188  0.36240787  1
  Ta  Ta1  1  0.87764188  0.36240787  0.87764188  1
  Ta  Ta2  1  0.36240787  0.87764188  0.87764188  1
  Al  Al0  1  0.88104131  0.88104131  0.88104131  1
  Al  Al1  1  0.12151942  0.12151942  0.63847243  1
  Al  Al2  1  0.12151942  0.63847243  0.12151942  1
  Al  Al3  1  0.63847243  0.12151942  0.12151942  1
  Al  Al4  1  0.12070348  0.12070348  0.12070348  1
  Al  Al5  1  0.67105322  0.67105322  0.99164330  1
  Al  Al6  1  0.67105322  0.99164330  0.67105322  1
  Al  Al7  1  0.99164330  0.67105322  0.67105322  1
  Al  Al8  1  0.66634896  0.66634896  0.66634896  1
  Al  Al9  1  0.33038016  0.33038016  0.01140881  1
  Al  Al10  1  0.33038016  0.01140881  0.33038016  1
  Al  Al11  1  0.01140881  0.33038016  0.33038016  1
  Al  Al12  1  0.33102497  0.33102497  0.33102497  1
  Os  Os0  1  0.00198103  0.00198103  0.00198103  1
  Os  Os1  1  0.99751454  0.99751454  0.49720739  1
  Os  Os2  1  0.50374119  0.99524173  0.50374119  1
  Os  Os3  1  0.99524173  0.50374119  0.50374119  1
  Os  Os4  1  0.50374119  0.50374119  0.99524173  1
  Os  Os5  1  0.99751454  0.49720739  0.99751454  1
  Os  Os6  1  0.49720739  0.99751454  0.99751454  1
loop_
_geom_bond_atom_site_label_1
_geom_bond_atom_site_label_2
_geom_bond_distance
_geom_bond_site_symmetry_2
Ta0 Y0 3.091004 1_555
Ta0 Y1 3.094368 1_655
Ta0 Y2 3.094368 1_565
Ta1 Y4 3.091003 1_555
Ta1 Y2 3.094368 1_556
Ta1 Y3 3.094368 1_655
Ta2 Y5 3.091003 1_555
Ta2 Y1 3.094368 1_556
Ta2 Y3 3.094368 1_565
Al0 Os0 2.675001 1_666
Al0 Os1 2.818693 1_555
Al0 Os6 2.818693 1_555
Al0 Os5 2.818693 1_555
Al0 Y0 2.998793 1_556
Al0 Y4 2.998793 1_565
Al0 Y5 2.998793 1_655
Al0 Al2 3.056426 1_656
Al0 Al3 3.056427 1_566
Al0 Al1 3.056427 1_665
Al1 Os0 2.663508 1_556
Al1 Al12 2.799603 1_555
Al1 Os3 2.800836 1_455
Al1 Os2 2.800836 1_545
Al1 Al11 2.801996 1_555
Al1 Al10 2.801996 1_555
Al1 Os1 2.871445 1_445
Al1 Ta2 3.050761 1_545
Al1 Ta1 3.050761 1_455
Al1 Y4 3.060181 1_455
Al1 Y5 3.060181 1_545
Al1 Y3 3.098671 1_555
Al2 Os0 2.663508 1_565
Al2 Os3 2.800835 1_455
Al2 Os4 2.800836 1_554
Al2 Al9 2.801996 1_555
Al2 Os5 2.871445 1_454
Al2 Ta0 3.050761 1_455
Al2 Ta2 3.050761 1_554
Al2 Y5 3.060181 1_554
Al2 Y0 3.060181 1_455
Al2 Y1 3.098670 1_555
Al3 Os0 2.663508 1_655
Al3 Os2 2.800835 1_545
Al3 Os4 2.800836 1_554
Al3 Al9 2.801996 1_555
Al3 Os6 2.871445 1_544
Al3 Ta0 3.050761 1_545
Al3 Ta1 3.050761 1_554
Al3 Y4 3.060181 1_554
Al3 Y0 3.060181 1_545
Al3 Y2 3.098670 1_555
Al4 Os0 2.625959 1_555
Al4 Os1 2.758881 1_445
Al4 Os5 2.758882 1_454
Al4 Os6 2.758882 1_544
Al4 Al9 2.819968 1_555
Al4 Y3 3.062773 1_554
Al4 Y1 3.062773 1_545
Al4 Y2 3.062773 1_455
Al4 Ta1 3.089436 1_454
Al4 Ta2 3.089436 1_544
Al4 Ta0 3.089437 1_445
Al5 Os5 2.555174 1_555
Al5 Os6 2.555174 1_555
Al5 Os4 2.596005 1_555
Al5 Ta2 2.824717 1_555
Al5 Ta1 2.824717 1_555
Al5 Y0 3.020015 1_556
Al5 Y2 3.084018 1_556
Al5 Y1 3.084018 1_556
Al6 Os6 2.555174 1_555
Al6 Os1 2.555174 1_555
Al6 Os2 2.596005 1_555
Al6 Ta0 2.824717 1_555
Al6 Ta2 2.824717 1_555
Al6 Y4 3.020016 1_565
Al6 Y2 3.084018 1_565
Al6 Y3 3.084018 1_565
Al7 Os5 2.555174 1_555
Al7 Os1 2.555174 1_555
Al7 Os3 2.596005 1_555
Al7 Ta0 2.824716 1_555
Al7 Ta1 2.824717 1_555
Al7 Y5 3.020015 1_655
Al7 Y1 3.084018 1_655
Al7 Y3 3.084018 1_655
Al8 Os4 2.544430 1_555
Al8 Os2 2.544430 1_555
Al8 Os3 2.544431 1_555
Al8 Ta1 2.806927 1_555
Al8 Ta2 2.806927 1_555
Al8 Ta0 2.806927 1_555
Al8 Y0 3.106271 1_555
Al8 Y5 3.106271 1_555
Al8 Y4 3.106271 1_555
Al9 Os4 2.627192 1_554
Al9 Os5 2.627961 1_454
Al9 Os6 2.627961 1_544
Al9 Y5 3.094132 1_554
Al9 Y4 3.094132 1_554
Al9 Y3 3.095908 1_554
Al10 Os2 2.627192 1_545
Al10 Os6 2.627961 1_544
Al10 Os1 2.627962 1_445
Al10 Al3 2.801997 1_555
Al10 Al4 2.819968 1_555
Al10 Y5 3.094132 1_545
Al10 Y0 3.094132 1_545
Al10 Y1 3.095908 1_545
Al11 Os3 2.627192 1_455
Al11 Os5 2.627961 1_454
Al11 Os1 2.627962 1_445
Al11 Al2 2.801997 1_555
Al11 Al4 2.819968 1_555
Al11 Y4 3.094132 1_455
Al11 Y0 3.094132 1_455
Al11 Y2 3.095908 1_455
Al12 Os4 2.633243 1_554
Al12 Os2 2.633243 1_545
Al12 Os3 2.633243 1_455
Al12 Al2 2.799602 1_555
Al12 Al3 2.799602 1_555
Al12 Y3 3.101016 1_555
Al12 Y2 3.101016 1_555
Al12 Y1 3.101016 1_555
Os0 Ta0 2.641216 1_445
Os0 Ta1 2.641217 1_454
Os0 Ta2 2.641217 1_544
Os1 Ta0 2.762534 1_555
Os1 Y2 3.179593 1_565
Os1 Y1 3.179593 1_655
Os1 Y5 3.199853 1_655
Os1 Y4 3.199853 1_565
Os2 Ta2 2.742181 1_555
Os2 Ta0 2.742181 1_555
Os2 Y3 3.250408 1_565
Os2 Y2 3.250408 1_565
Os2 Y0 3.258410 1_555
Os2 Y5 3.258410 1_555
Os3 Ta1 2.742181 1_555
Os3 Ta0 2.742181 1_555
Os3 Y3 3.250408 1_655
Os3 Y1 3.250408 1_655
Os3 Y0 3.258410 1_555
Os3 Y4 3.258410 1_555
Os4 Ta2 2.742181 1_555
Os4 Ta1 2.742181 1_555
Os4 Y2 3.250408 1_556
Os4 Y1 3.250408 1_556
Os4 Y5 3.258410 1_555
Os4 Y4 3.258410 1_555
Os5 Ta1 2.762534 1_555
Os5 Y3 3.179593 1_655
Os5 Y2 3.179593 1_556
Os5 Y0 3.199853 1_556
Os5 Y5 3.199853 1_655
Os6 Ta2 2.762534 1_555
Os6 Y3 3.179592 1_565
Os6 Y1 3.179593 1_556
Os6 Y0 3.199853 1_556
Os6 Y4 3.199853 1_565
