# generated using pymatgen
data_HfZrV3Rh
_symmetry_space_group_name_H-M   'P 1'
_cell_length_a   5.14631382
_cell_length_b   5.14631395
_cell_length_c   5.19851820
_cell_angle_alpha   60.33163450
_cell_angle_beta   60.33163503
_cell_angle_gamma   60.00000489
_symmetry_Int_Tables_number   1
_chemical_formula_structural   HfZrV3Rh
_chemical_formula_sum   'Hf1 Zr1 V3 Rh1'
_cell_volume   97.83990201
_cell_formula_units_Z   1
loop_
 _symmetry_equiv_pos_site_id
 _symmetry_equiv_pos_as_xyz
  1  'x, y, z'
loop_
 _atom_site_type_symbol
 _atom_site_label
 _atom_site_symmetry_multiplicity
 _atom_site_fract_x
 _atom_site_fract_y
 _atom_site_fract_z
 _atom_site_occupancy
  Hf  Hf0  1  0.24976106  0.24976106  0.25071581  1
  Zr  Zr0  1  0.99989339  0.99989339  0.00031882  1
  V  V0  1  0.62510092  0.12523335  0.62456580  1
  V  V1  1  0.12523335  0.62510092  0.62456580  1
  V  V2  1  0.62510092  0.62510092  0.62456580  1
  Rh  Rh0  1  0.62491135  0.62491135  0.12526796  1
loop_
_geom_bond_atom_site_label_1
_geom_bond_atom_site_label_2
_geom_bond_distance
_geom_bond_site_symmetry_2
Hf0 Rh0 3.019026 1_455
Hf0 Rh0 3.019026 1_545
Hf0 Rh0 3.019039 1_555
Hf0 V0 3.027261 1_455
Hf0 V1 3.027261 1_545
Hf0 V2 3.027266 1_545
Hf0 V2 3.027266 1_455
Hf0 V0 3.027270 1_555
Hf0 V1 3.027270 1_555
Hf0 V1 3.056145 1_554
Hf0 V0 3.056145 1_554
Hf0 V2 3.056149 1_554
Hf0 Zr0 3.157384 1_545
Hf0 Zr0 3.157384 1_445
Hf0 Zr0 3.157384 1_455
Hf0 Zr0 3.197600 1_446
V0 V2 2.572475 1_555
V0 V1 2.572476 1_555
V0 V2 2.573838 1_545
V0 V1 2.573839 1_645
V0 Zr0 3.031545 1_546
V0 Zr0 3.031554 1_446
V0 Zr0 3.049439 1_545
V1 V2 2.572475 1_555
V1 V2 2.573838 1_455
V1 Zr0 3.031546 1_456
V1 Zr0 3.031554 1_446
V1 Zr0 3.049439 1_455
V2 Zr0 3.031550 1_546
V2 Zr0 3.031550 1_456
V2 Zr0 3.049434 1_555
Rh0 V2 2.596575 1_555
Rh0 V1 2.596577 1_555
Rh0 V0 2.596578 1_555
Rh0 V1 2.601941 1_654
Rh0 V0 2.601941 1_564
Rh0 V2 2.601944 1_554
Rh0 Zr0 3.018645 1_555
Rh0 Zr0 3.018658 1_455
Rh0 Zr0 3.018658 1_545
