# generated using pymatgen
data_Y6CoBi2
_symmetry_space_group_name_H-M   'P 1'
_cell_length_a   8.42135357
_cell_length_b   8.42135357
_cell_length_c   4.11703100
_cell_angle_alpha   90.00000000
_cell_angle_beta   90.00000000
_cell_angle_gamma   119.99999661
_symmetry_Int_Tables_number   1
_chemical_formula_structural   Y6CoBi2
_chemical_formula_sum   'Y6 Co1 Bi2'
_cell_volume   252.85909930
_cell_formula_units_Z   1
loop_
 _symmetry_equiv_pos_site_id
 _symmetry_equiv_pos_as_xyz
  1  'x, y, z'
loop_
 _atom_site_type_symbol
 _atom_site_label
 _atom_site_symmetry_multiplicity
 _atom_site_fract_x
 _atom_site_fract_y
 _atom_site_fract_z
 _atom_site_occupancy
  Y  Y0  1  0.23210100  0.00000000  0.00000000  1
  Y  Y1  1  0.00000000  0.60517100  0.50000000  1
  Y  Y2  1  0.39482900  0.39482900  0.50000000  1
  Y  Y3  1  0.76789900  0.76789900  0.00000000  1
  Y  Y4  1  0.00000000  0.23210100  0.00000000  1
  Y  Y5  1  0.60517100  0.00000000  0.50000000  1
  Co  Co0  1  0.00000000  0.00000000  0.50000000  1
  Bi  Bi0  1  0.33333300  0.66666700  0.00000000  1
  Bi  Bi1  1  0.66666700  0.33333300  0.00000000  1
loop_
_geom_bond_atom_site_label_1
_geom_bond_atom_site_label_2
_geom_bond_distance
_geom_bond_site_symmetry_2
Y0 Y4 3.385474 1_555
Y0 Y3 3.385475 1_445
Y0 Y2 3.551690 1_554
Y0 Y2 3.551690 1_555
Y0 Y1 3.551690 1_545
Y0 Y1 3.551690 1_544
Y0 Y5 3.756076 1_555
Y0 Y5 3.756076 1_554
Y1 Y3 3.551690 1_456
Y1 Y3 3.551690 1_455
Y1 Y4 3.756076 1_556
Y1 Y4 3.756076 1_555
Y2 Y4 3.551690 1_556
Y2 Y4 3.551690 1_555
Y2 Y3 3.756076 1_556
Y2 Y3 3.756076 1_555
Y3 Y4 3.385475 1_665
Y3 Y5 3.551690 1_565
Y3 Y5 3.551690 1_564
Y4 Y5 3.551690 1_455
Y4 Y5 3.551690 1_454
Co0 Y0 2.838656 1_555
Co0 Y4 2.838656 1_556
Co0 Y4 2.838656 1_555
Co0 Y0 2.838656 1_556
Co0 Y3 2.838656 1_446
Co0 Y3 2.838656 1_445
Co0 Y1 3.324995 1_545
Co0 Y5 3.324995 1_455
Co0 Y2 3.324995 1_555
Bi0 Y1 3.306332 1_555
Bi0 Y1 3.306332 1_554
Bi0 Y5 3.306335 1_565
Bi0 Y5 3.306335 1_564
Bi0 Y2 3.306339 1_554
Bi0 Y2 3.306339 1_555
Bi0 Y0 3.316589 1_565
Bi0 Y4 3.316595 1_555
Bi0 Y3 3.316597 1_555
Bi1 Y5 3.306332 1_554
Bi1 Y5 3.306332 1_555
Bi1 Y1 3.306335 1_654
Bi1 Y1 3.306335 1_655
Bi1 Y2 3.306339 1_554
Bi1 Y2 3.306339 1_555
Bi1 Y4 3.316589 1_655
Bi1 Y0 3.316595 1_555
Bi1 Y3 3.316597 1_555
