# generated using pymatgen
data_Tb3Fe5O12
_symmetry_space_group_name_H-M   'P 1'
_cell_length_a   10.82214658
_cell_length_b   10.82214658
_cell_length_c   10.82214704
_cell_angle_alpha   109.45336983
_cell_angle_beta   109.45336983
_cell_angle_gamma   109.45336533
_symmetry_Int_Tables_number   1
_chemical_formula_structural   Tb3Fe5O12
_chemical_formula_sum   'Tb12 Fe20 O48'
_cell_volume   976.34899737
_cell_formula_units_Z   4
loop_
 _symmetry_equiv_pos_site_id
 _symmetry_equiv_pos_as_xyz
  1  'x, y, z'
loop_
 _atom_site_type_symbol
 _atom_site_label
 _atom_site_symmetry_multiplicity
 _atom_site_fract_x
 _atom_site_fract_y
 _atom_site_fract_z
 _atom_site_occupancy
  Tb  Tb0  1  0.62435900  0.74949200  0.87569600  1
  Tb  Tb1  1  0.74949200  0.87569600  0.62435900  1
  Tb  Tb2  1  0.87569600  0.62435900  0.74949200  1
  Tb  Tb3  1  0.37564100  0.25050800  0.12430400  1
  Tb  Tb4  1  0.25050800  0.12430400  0.37564100  1
  Tb  Tb5  1  0.12430400  0.37564100  0.25050800  1
  Tb  Tb6  1  0.12301400  0.74969200  0.37692400  1
  Tb  Tb7  1  0.74969200  0.37692400  0.12301400  1
  Tb  Tb8  1  0.37692400  0.12301400  0.74969200  1
  Tb  Tb9  1  0.87698600  0.25030800  0.62307600  1
  Tb  Tb10  1  0.25030800  0.62307600  0.87698600  1
  Tb  Tb11  1  0.62307600  0.87698600  0.25030800  1
  Fe  Fe0  1  0.00000000  0.00000000  0.00000000  1
  Fe  Fe1  1  0.50000000  0.50000000  0.50000000  1
  Fe  Fe2  1  0.00000000  0.50000000  0.50000000  1
  Fe  Fe3  1  0.50000000  0.50000000  0.00000000  1
  Fe  Fe4  1  0.50000000  0.00000000  0.50000000  1
  Fe  Fe5  1  0.50000000  0.00000000  0.00000000  1
  Fe  Fe6  1  0.00000000  0.00000000  0.50000000  1
  Fe  Fe7  1  0.00000000  0.50000000  0.00000000  1
  Fe  Fe8  1  0.37447700  0.75273800  0.62667700  1
  Fe  Fe9  1  0.75273800  0.62667700  0.37447700  1
  Fe  Fe10  1  0.62667700  0.37447700  0.75273800  1
  Fe  Fe11  1  0.62552300  0.24726200  0.37332300  1
  Fe  Fe12  1  0.24726200  0.37332300  0.62552300  1
  Fe  Fe13  1  0.37332300  0.62552300  0.24726200  1
  Fe  Fe14  1  0.12697100  0.24929300  0.87283200  1
  Fe  Fe15  1  0.24929300  0.87283200  0.12697100  1
  Fe  Fe16  1  0.87283200  0.12697100  0.24929300  1
  Fe  Fe17  1  0.87302900  0.75070700  0.12716800  1
  Fe  Fe18  1  0.75070700  0.12716800  0.87302900  1
  Fe  Fe19  1  0.12716800  0.87302900  0.75070700  1
  O  O0  1  0.79393500  0.97249700  0.87678500  1
  O  O1  1  0.97249700  0.87678500  0.79393500  1
  O  O2  1  0.87678500  0.79393500  0.97249700  1
  O  O3  1  0.20606500  0.02750300  0.12321500  1
  O  O4  1  0.02750300  0.12321500  0.20606500  1
  O  O5  1  0.12321500  0.20606500  0.02750300  1
  O  O6  1  0.41789100  0.79732600  0.82660700  1
  O  O7  1  0.79732600  0.82660700  0.41789100  1
  O  O8  1  0.82660700  0.41789100  0.79732600  1
  O  O9  1  0.58210900  0.20267400  0.17339300  1
  O  O10  1  0.20267400  0.17339300  0.58210900  1
  O  O11  1  0.17339300  0.58210900  0.20267400  1
  O  O12  1  0.87142800  0.08538600  0.40361900  1
  O  O13  1  0.08538600  0.40361900  0.87142800  1
  O  O14  1  0.40361900  0.87142800  0.08538600  1
  O  O15  1  0.12857200  0.91461400  0.59638100  1
  O  O16  1  0.91461400  0.59638100  0.12857200  1
  O  O17  1  0.59638100  0.12857200  0.91461400  1
  O  O18  1  0.09091500  0.67225300  0.97059500  1
  O  O19  1  0.67225300  0.97059500  0.09091500  1
  O  O20  1  0.97059500  0.09091500  0.67225300  1
  O  O21  1  0.90908500  0.32774700  0.02940500  1
  O  O22  1  0.32774700  0.02940500  0.90908500  1
  O  O23  1  0.02940500  0.90908500  0.32774700  1
  O  O24  1  0.62623400  0.52976900  0.70796500  1
  O  O25  1  0.52976900  0.70796500  0.62623400  1
  O  O26  1  0.70796500  0.62623400  0.52976900  1
  O  O27  1  0.37376600  0.47023100  0.29203500  1
  O  O28  1  0.47023100  0.29203500  0.37376600  1
  O  O29  1  0.29203500  0.37376600  0.47023100  1
  O  O30  1  0.67293300  0.70492200  0.08145600  1
  O  O31  1  0.70492200  0.08145600  0.67293300  1
  O  O32  1  0.08145600  0.67293300  0.70492200  1
  O  O33  1  0.32706700  0.29507800  0.91854400  1
  O  O34  1  0.29507800  0.91854400  0.32706700  1
  O  O35  1  0.91854400  0.32706700  0.29507800  1
  O  O36  1  0.09317700  0.41977500  0.62137600  1
  O  O37  1  0.41977500  0.62137600  0.09317700  1
  O  O38  1  0.62137600  0.09317700  0.41977500  1
  O  O39  1  0.90682300  0.58022500  0.37862400  1
  O  O40  1  0.58022500  0.37862400  0.90682300  1
  O  O41  1  0.37862400  0.90682300  0.58022500  1
  O  O42  1  0.52872400  0.82488300  0.40482800  1
  O  O43  1  0.82488300  0.40482800  0.52872400  1
  O  O44  1  0.40482800  0.52872400  0.82488300  1
  O  O45  1  0.47127600  0.17511700  0.59517200  1
  O  O46  1  0.17511700  0.59517200  0.47127600  1
  O  O47  1  0.59517200  0.47127600  0.17511700  1
loop_
_geom_bond_atom_site_label_1
_geom_bond_atom_site_label_2
_geom_bond_distance
_geom_bond_site_symmetry_2
Fe0 O3 2.037815 1_555
Fe0 O0 2.037815 1_444
Fe0 O4 2.037815 1_555
Fe0 O1 2.037815 1_444
Fe0 O2 2.037815 1_444
Fe0 O5 2.037815 1_555
Fe1 O25 2.052157 1_555
Fe1 O28 2.052157 1_555
Fe1 O24 2.052157 1_555
Fe1 O27 2.052157 1_555
Fe1 O26 2.052157 1_555
Fe1 O29 2.052157 1_555
Fe2 O39 1.989099 1_455
Fe2 O36 1.989099 1_555
Fe2 O35 2.008044 1_455
Fe2 O32 2.008044 1_555
Fe2 O43 2.013588 1_455
Fe2 O46 2.013588 1_555
Fe3 O40 1.989099 1_554
Fe3 O37 1.989099 1_555
Fe3 O33 2.008044 1_554
Fe3 O30 2.008044 1_555
Fe3 O44 2.013588 1_554
Fe3 O47 2.013588 1_555
Fe4 O41 1.989099 1_545
Fe4 O38 1.989099 1_555
Fe4 O31 2.008044 1_555
Fe4 O34 2.008044 1_545
Fe4 O42 2.013588 1_545
Fe4 O45 2.013588 1_555
Fe5 O19 1.981507 1_545
Fe5 O22 1.981507 1_554
Fe5 O9 1.992825 1_555
Fe5 O6 1.992825 1_544
Fe5 O17 2.099909 1_554
Fe5 O14 2.099909 1_545
Fe6 O23 1.981507 1_545
Fe6 O20 1.981507 1_455
Fe6 O10 1.992825 1_555
Fe6 O7 1.992825 1_445
Fe6 O15 2.099909 1_545
Fe6 O12 2.099909 1_455
Fe7 O21 1.981507 1_455
Fe7 O18 1.981507 1_554
Fe7 O11 1.992825 1_555
Fe7 O8 1.992825 1_454
Fe7 O16 2.099909 1_455
Fe7 O13 2.099909 1_554
Fe8 O41 1.886514 1_555
Fe8 O25 1.898792 1_555
Fe8 O6 1.900400 1_555
Fe8 O46 1.900901 1_555
Fe9 O39 1.886514 1_555
Fe9 O26 1.898792 1_555
Fe9 O7 1.900400 1_555
Fe9 O47 1.900901 1_555
Fe10 O40 1.886514 1_555
Fe10 O24 1.898792 1_555
Fe10 O8 1.900400 1_555
Fe10 O45 1.900901 1_555
Fe11 O38 1.886514 1_555
Fe11 O28 1.898792 1_555
Fe11 O9 1.900400 1_555
Fe11 O43 1.900901 1_555
Fe12 O36 1.886514 1_555
Fe12 O29 1.898792 1_555
Fe12 O10 1.900400 1_555
Fe12 O44 1.900901 1_555
Fe13 O37 1.886514 1_555
Fe13 O27 1.898792 1_555
Fe13 O11 1.900400 1_555
Fe13 O42 1.900901 1_555
Fe14 O13 1.872197 1_555
Fe14 O5 1.891189 1_556
Fe14 O33 1.894201 1_555
Fe14 O20 1.912213 1_455
Fe15 O14 1.872197 1_555
Fe15 O3 1.891189 1_565
Fe15 O34 1.894201 1_555
Fe15 O18 1.912213 1_554
Fe16 O12 1.872197 1_555
Fe16 O4 1.891189 1_655
Fe16 O35 1.894201 1_555
Fe16 O19 1.912213 1_545
Fe17 O16 1.872197 1_555
Fe17 O2 1.891189 1_554
Fe17 O30 1.894201 1_555
Fe17 O23 1.912213 1_655
Fe18 O17 1.872197 1_555
Fe18 O0 1.891189 1_545
Fe18 O31 1.894201 1_555
Fe18 O21 1.912213 1_556
Fe19 O15 1.872197 1_555
Fe19 O1 1.891189 1_455
Fe19 O32 1.894201 1_555
Fe19 O22 1.912213 1_565
O0 Tb1 2.382121 1_555
O0 Tb0 2.491799 1_555
O1 Tb2 2.382121 1_555
O1 Tb1 2.491798 1_555
O2 Tb0 2.382121 1_555
O2 Tb2 2.491798 1_555
O3 Tb4 2.382121 1_555
O3 Tb3 2.491799 1_555
O4 Tb5 2.382121 1_555
O4 Tb4 2.491798 1_555
O5 Tb3 2.382121 1_555
O5 Tb5 2.491798 1_555
O6 Tb0 2.388688 1_555
O6 Tb10 2.491573 1_555
O7 Tb1 2.388688 1_555
O7 Tb11 2.491573 1_555
O8 Tb2 2.388688 1_555
O8 Tb9 2.491573 1_555
O9 Tb3 2.388688 1_555
O9 Tb7 2.491573 1_555
O10 Tb4 2.388688 1_555
O10 Tb8 2.491573 1_555
O11 Tb5 2.388688 1_555
O11 Tb6 2.491573 1_555
O12 Tb11 2.358566 1_545
O12 Tb9 2.416538 1_555
O13 Tb9 2.358566 1_455
O13 Tb10 2.416538 1_555
O14 Tb10 2.358566 1_554
O14 Tb11 2.416538 1_555
O15 Tb8 2.358566 1_565
O15 Tb6 2.416538 1_555
O16 Tb6 2.358566 1_655
O16 Tb7 2.416538 1_555
O17 Tb7 2.358566 1_556
O17 Tb8 2.416538 1_555
O18 Tb10 2.387756 1_555
O18 Tb2 2.465090 1_455
O19 Tb11 2.387756 1_555
O19 Tb0 2.465090 1_554
O20 Tb9 2.387756 1_555
O20 Tb1 2.465090 1_545
O21 Tb7 2.387756 1_555
O21 Tb5 2.465090 1_655
O22 Tb8 2.387756 1_555
O22 Tb3 2.465090 1_556
O23 Tb6 2.387756 1_555
O23 Tb4 2.465090 1_565
O24 Tb2 2.362831 1_555
O24 Tb0 2.476153 1_555
O25 Tb0 2.362831 1_555
O25 Tb1 2.476153 1_555
O26 Tb1 2.362831 1_555
O26 Tb2 2.476153 1_555
O27 Tb5 2.362831 1_555
O27 Tb3 2.476153 1_555
O28 Tb3 2.362831 1_555
O28 Tb4 2.476153 1_555
O29 Tb4 2.362831 1_555
O29 Tb5 2.476153 1_555
O30 Tb0 2.360527 1_554
O30 Tb11 2.481372 1_555
O31 Tb1 2.360527 1_545
O31 Tb9 2.481372 1_555
O32 Tb2 2.360527 1_455
O32 Tb10 2.481372 1_555
O33 Tb3 2.360527 1_556
O33 Tb8 2.481372 1_555
O34 Tb4 2.360527 1_565
O34 Tb6 2.481372 1_555
O35 Tb5 2.360527 1_655
O35 Tb7 2.481372 1_555
O36 Tb10 2.388588 1_555
O36 Tb9 2.455790 1_455
O37 Tb11 2.388588 1_555
O37 Tb10 2.455790 1_554
O38 Tb9 2.388588 1_555
O38 Tb11 2.455790 1_545
O39 Tb7 2.388588 1_555
O39 Tb6 2.455790 1_655
O40 Tb8 2.388588 1_555
O40 Tb7 2.455790 1_556
O41 Tb6 2.388588 1_555
O41 Tb8 2.455790 1_565
O42 Tb11 2.353475 1_555
O42 Tb1 2.475657 1_555
O43 Tb9 2.353475 1_555
O43 Tb2 2.475657 1_555
O44 Tb10 2.353475 1_555
O44 Tb0 2.475657 1_555
O45 Tb8 2.353475 1_555
O45 Tb4 2.475657 1_555
O46 Tb6 2.353475 1_555
O46 Tb5 2.475657 1_555
O47 Tb7 2.353475 1_555
O47 Tb3 2.475657 1_555
