# generated using pymatgen
data_HoScO3
_symmetry_space_group_name_H-M   'P 1'
_cell_length_a   5.43751200
_cell_length_b   5.73331800
_cell_length_c   7.97480200
_cell_angle_alpha   90.00000000
_cell_angle_beta   90.00000000
_cell_angle_gamma   90.00000000
_symmetry_Int_Tables_number   1
_chemical_formula_structural   HoScO3
_chemical_formula_sum   'Ho4 Sc4 O12'
_cell_volume   248.61433612
_cell_formula_units_Z   4
loop_
 _symmetry_equiv_pos_site_id
 _symmetry_equiv_pos_as_xyz
  1  'x, y, z'
loop_
 _atom_site_type_symbol
 _atom_site_label
 _atom_site_symmetry_multiplicity
 _atom_site_fract_x
 _atom_site_fract_y
 _atom_site_fract_z
 _atom_site_occupancy
  Ho  Ho0  1  0.98017900  0.06209000  0.75000000  1
  Ho  Ho1  1  0.48017900  0.43791000  0.25000000  1
  Ho  Ho2  1  0.51982100  0.56209000  0.75000000  1
  Ho  Ho3  1  0.01982100  0.93791000  0.25000000  1
  Sc  Sc0  1  0.00000000  0.50000000  0.50000000  1
  Sc  Sc1  1  0.50000000  0.00000000  0.50000000  1
  Sc  Sc2  1  0.50000000  0.00000000  0.00000000  1
  Sc  Sc3  1  0.00000000  0.50000000  0.00000000  1
  O  O0  1  0.68964300  0.30758900  0.56916600  1
  O  O1  1  0.18964300  0.19241100  0.43083400  1
  O  O2  1  0.81035700  0.80758900  0.93083400  1
  O  O3  1  0.31035700  0.69241100  0.06916600  1
  O  O4  1  0.31035700  0.69241100  0.43083400  1
  O  O5  1  0.81035700  0.80758900  0.56916600  1
  O  O6  1  0.18964300  0.19241100  0.06916600  1
  O  O7  1  0.68964300  0.30758900  0.93083400  1
  O  O8  1  0.86764800  0.55916600  0.25000000  1
  O  O9  1  0.36764800  0.94083400  0.75000000  1
  O  O10  1  0.63235200  0.05916600  0.25000000  1
  O  O11  1  0.13235200  0.44083400  0.75000000  1
loop_
_geom_bond_atom_site_label_1
_geom_bond_atom_site_label_2
_geom_bond_distance
_geom_bond_site_symmetry_2
Ho0 O9 2.218601 1_645
Ho0 O2 2.249768 1_545
Ho0 O5 2.249768 1_545
Ho0 O11 2.323768 1_655
Ho0 O7 2.560579 1_555
Ho0 O0 2.560579 1_555
Ho0 O6 2.886864 1_656
Ho0 O1 2.886864 1_655
Ho1 O8 2.218601 1_555
Ho1 O4 2.249768 1_555
Ho1 O3 2.249768 1_555
Ho1 O10 2.323768 1_555
Ho1 O1 2.560579 1_555
Ho1 O6 2.560579 1_555
Ho1 O0 2.886864 1_555
Ho1 O7 2.886864 1_554
Ho2 O11 2.218601 1_555
Ho2 O7 2.249768 1_555
Ho2 O0 2.249768 1_555
Ho2 O9 2.323768 1_555
Ho2 O2 2.560579 1_555
Ho2 O5 2.560579 1_555
Ho2 O3 2.886864 1_556
Ho2 O4 2.886864 1_555
Ho3 O10 2.218601 1_465
Ho3 O1 2.249768 1_565
Ho3 O6 2.249768 1_565
Ho3 O8 2.323768 1_455
Ho3 O4 2.560579 1_555
Ho3 O3 2.560579 1_555
Ho3 O5 2.886864 1_455
Ho3 O2 2.886864 1_454
O0 Sc0 2.090236 1_655
O0 Sc1 2.116021 1_555
O1 Sc1 2.090236 1_555
O1 Sc0 2.116021 1_555
O2 Sc2 2.090236 1_566
O2 Sc3 2.116021 1_656
O3 Sc3 2.090236 1_555
O3 Sc2 2.116021 1_565
O4 Sc0 2.090236 1_555
O4 Sc1 2.116021 1_565
O5 Sc1 2.090236 1_565
O5 Sc0 2.116021 1_655
O6 Sc2 2.090236 1_555
O6 Sc3 2.116021 1_555
O7 Sc3 2.090236 1_656
O7 Sc2 2.116021 1_556
O8 Sc3 2.146585 1_655
O8 Sc0 2.146585 1_655
O9 Sc1 2.146585 1_565
O9 Sc2 2.146585 1_566
O10 Sc1 2.146585 1_555
O10 Sc2 2.146585 1_555
O11 Sc3 2.146585 1_556
O11 Sc0 2.146585 1_555
