# generated using pymatgen
data_Zr6CdFeBr14
_symmetry_space_group_name_H-M   'P 1'
_cell_length_a   9.47038308
_cell_length_b   9.47038460
_cell_length_c   9.47038385
_cell_angle_alpha   105.41425270
_cell_angle_beta   111.53700004
_cell_angle_gamma   111.53699945
_symmetry_Int_Tables_number   1
_chemical_formula_structural   Zr6CdFeBr14
_chemical_formula_sum   'Zr6 Cd1 Fe1 Br14'
_cell_volume   651.41817254
_cell_formula_units_Z   1
loop_
 _symmetry_equiv_pos_site_id
 _symmetry_equiv_pos_as_xyz
  1  'x, y, z'
loop_
 _atom_site_type_symbol
 _atom_site_label
 _atom_site_symmetry_multiplicity
 _atom_site_fract_x
 _atom_site_fract_y
 _atom_site_fract_z
 _atom_site_occupancy
  Zr  Zr0  1  0.23242990  0.00000000  0.23242990  1
  Zr  Zr1  1  0.23242990  0.23242990  0.00000000  1
  Zr  Zr2  1  0.76757010  1.00000000  0.76757010  1
  Zr  Zr3  1  0.00000000  0.20927998  0.20927998  1
  Zr  Zr4  1  1.00000000  0.79072002  0.79072002  1
  Zr  Zr5  1  0.76757010  0.76757010  1.00000000  1
  Cd  Cd0  1  0.00000000  0.50000000  0.50000000  1
  Fe  Fe0  1  0.00000000  0.00000000  0.00000000  1
  Br  Br0  1  1.00000000  0.74684389  0.25315611  1
  Br  Br1  1  0.24977855  0.76357077  0.01334931  1
  Br  Br2  1  0.49368779  0.74684389  0.74684389  1
  Br  Br3  1  0.00000000  0.25315611  0.74684389  1
  Br  Br4  1  0.75022145  0.98665069  0.23642923  1
  Br  Br5  1  0.24977855  0.48620878  0.23642923  1
  Br  Br6  1  0.75022145  0.23642923  0.98665069  1
  Br  Br7  1  0.50000000  0.50000000  0.00000000  1
  Br  Br8  1  0.24977855  0.23642923  0.48620878  1
  Br  Br9  1  0.75022145  0.51379122  0.76357077  1
  Br  Br10  1  0.75022145  0.76357077  0.51379122  1
  Br  Br11  1  0.50631221  0.25315611  0.25315611  1
  Br  Br12  1  0.24977855  0.01334931  0.76357077  1
  Br  Br13  1  0.50000000  0.00000000  0.50000000  1
loop_
_geom_bond_atom_site_label_1
_geom_bond_atom_site_label_2
_geom_bond_distance
_geom_bond_site_symmetry_2
Cd0 Zr4 3.336306 1_455
Cd0 Zr3 3.336306 1_555
Fe0 Zr3 2.401700 1_555
Fe0 Zr4 2.401700 1_444
Fe0 Zr0 2.476518 1_555
Fe0 Zr2 2.476518 1_444
Fe0 Zr1 2.476518 1_555
Fe0 Zr5 2.476518 1_444
Br0 Zr5 2.706378 1_554
Br0 Zr0 2.706378 1_665
Br1 Zr4 2.679541 1_454
Br1 Zr0 2.719554 1_565
Br2 Zr5 2.706378 1_555
Br2 Zr2 2.706378 1_555
Br3 Zr1 2.706378 1_556
Br3 Zr2 2.706378 1_445
Br4 Zr3 2.679541 1_665
Br4 Zr5 2.719554 1_554
Br5 Zr3 2.679547 1_555
Br5 Zr1 2.719560 1_555
Br6 Zr3 2.679541 1_656
Br6 Zr2 2.719554 1_545
Br7 Zr5 2.850933 1_554
Br7 Zr1 2.850933 1_555
Br8 Zr3 2.679547 1_555
Br8 Zr0 2.719560 1_555
Br9 Zr4 2.679547 1_555
Br9 Zr5 2.719560 1_555
Br10 Zr4 2.679547 1_555
Br10 Zr2 2.719560 1_555
Br11 Zr1 2.706378 1_555
Br11 Zr0 2.706378 1_555
Br12 Zr4 2.679541 1_445
Br12 Zr1 2.719554 1_556
Br13 Zr2 2.850933 1_545
Br13 Zr0 2.850933 1_555
