# generated using pymatgen
data_Nb12V5Fe7N4
_symmetry_space_group_name_H-M   'P 1'
_cell_length_a   8.17107858
_cell_length_b   8.17459525
_cell_length_c   8.17459542
_cell_angle_alpha   60.00000343
_cell_angle_beta   59.98576553
_cell_angle_gamma   59.98576457
_symmetry_Int_Tables_number   1
_chemical_formula_structural   Nb12V5Fe7N4
_chemical_formula_sum   'Nb12 V5 Fe7 N4'
_cell_volume   386.01434951
_cell_formula_units_Z   1
loop_
 _symmetry_equiv_pos_site_id
 _symmetry_equiv_pos_as_xyz
  1  'x, y, z'
loop_
 _atom_site_type_symbol
 _atom_site_label
 _atom_site_symmetry_multiplicity
 _atom_site_fract_x
 _atom_site_fract_y
 _atom_site_fract_z
 _atom_site_occupancy
  Nb  Nb0  1  0.81083876  0.80811899  0.19052163  1
  Nb  Nb1  1  0.18927194  0.18706764  0.81183021  1
  Nb  Nb2  1  0.81083876  0.19052163  0.80811899  1
  Nb  Nb3  1  0.18927194  0.81183021  0.18706764  1
  Nb  Nb4  1  0.18927194  0.81183021  0.81183021  1
  Nb  Nb5  1  0.81083876  0.19052163  0.19052163  1
  Nb  Nb6  1  0.43899020  0.43804009  0.06148436  1
  Nb  Nb7  1  0.06158451  0.05840870  0.44000339  1
  Nb  Nb8  1  0.43899020  0.06148436  0.43804009  1
  Nb  Nb9  1  0.06158451  0.44000339  0.05840870  1
  Nb  Nb10  1  0.06158451  0.44000339  0.44000339  1
  Nb  Nb11  1  0.43899020  0.06148436  0.06148436  1
  V  V0  1  0.12626966  0.62457711  0.62457711  1
  V  V1  1  0.62043592  0.12094384  0.62931012  1
  V  V2  1  0.62043592  0.62931012  0.12094384  1
  V  V3  1  0.62043592  0.62931012  0.62931012  1
  V  V4  1  0.73918013  0.42027396  0.42027396  1
  Fe  Fe0  1  0.42105492  0.73728905  0.42082852  1
  Fe  Fe1  1  0.42105492  0.42082852  0.73728905  1
  Fe  Fe2  1  0.42105492  0.42082852  0.42082852  1
  Fe  Fe3  1  0.51492840  0.82835687  0.82835687  1
  Fe  Fe4  1  0.82979861  0.51257189  0.82881475  1
  Fe  Fe5  1  0.82979861  0.82881475  0.51257189  1
  Fe  Fe6  1  0.82979861  0.82881475  0.82881475  1
  N  N0  1  0.62565289  0.12478270  0.12478270  1
  N  N1  1  0.12601579  0.62373625  0.12512448  1
  N  N2  1  0.12601579  0.12512448  0.62373625  1
  N  N3  1  0.12601579  0.12512448  0.12512448  1
loop_
_geom_bond_atom_site_label_1
_geom_bond_atom_site_label_2
_geom_bond_distance
_geom_bond_site_symmetry_2
Nb0 V4 2.953743 1_555
Nb2 V4 2.953743 1_555
Nb5 V4 2.953750 1_555
Nb7 V4 2.805035 1_455
Nb9 V4 2.805035 1_455
Nb10 V4 2.805026 1_455
V1 V4 2.526648 1_555
V2 V4 2.526648 1_555
V3 V4 2.526634 1_555
Fe0 V0 2.469214 1_555
Fe0 V3 2.484449 1_555
Fe0 V2 2.484456 1_555
Fe0 Fe2 2.586937 1_555
Fe0 Fe1 2.586937 1_555
Fe0 V4 2.594895 1_555
Fe0 Nb7 2.789262 1_565
Fe0 Nb8 2.801196 1_565
Fe0 Nb11 2.801205 1_565
Fe0 Nb0 2.963048 1_555
Fe0 Nb4 2.985201 1_555
Fe0 Nb3 2.985208 1_555
Fe1 V0 2.469214 1_555
Fe1 V3 2.484449 1_555
Fe1 V1 2.484456 1_555
Fe1 Fe2 2.586937 1_555
Fe1 V4 2.594895 1_555
Fe1 Nb9 2.789262 1_556
Fe1 Nb6 2.801196 1_556
Fe1 Nb11 2.801205 1_556
Fe1 Nb2 2.963048 1_555
Fe1 Nb4 2.985201 1_555
Fe1 Nb1 2.985208 1_555
Fe2 V0 2.469214 1_555
Fe2 V1 2.484452 1_555
Fe2 V2 2.484452 1_555
Fe2 V4 2.594899 1_555
Fe2 Nb10 2.789265 1_555
Fe2 Nb8 2.801213 1_555
Fe2 Nb6 2.801213 1_555
Fe2 Nb5 2.963048 1_555
Fe2 Nb3 2.985205 1_555
Fe2 Nb1 2.985205 1_555
Fe3 V3 2.424691 1_555
Fe3 V1 2.424697 1_565
Fe3 V2 2.424697 1_556
Fe3 Fe4 2.576575 1_555
Fe3 Fe5 2.576575 1_555
Fe3 Fe6 2.576579 1_555
Fe3 Nb4 2.802638 1_555
Fe3 Nb1 2.802643 1_565
Fe3 Nb3 2.802643 1_556
Fe3 Nb11 2.985690 1_566
Fe3 Nb6 2.985690 1_556
Fe3 Nb8 2.985691 1_565
Fe4 V3 2.469531 1_555
Fe4 V2 2.469531 1_556
Fe4 V0 2.477560 1_655
Fe4 Fe6 2.585157 1_555
Fe4 Fe5 2.585158 1_555
Fe4 Nb2 2.804105 1_555
Fe4 Nb5 2.804109 1_556
Fe4 Nb1 2.805261 1_655
Fe4 Nb9 2.963142 1_656
Fe4 Nb10 2.963142 1_655
Fe4 Nb6 2.982855 1_556
Fe5 V3 2.469531 1_555
Fe5 V1 2.469531 1_565
Fe5 V0 2.477560 1_655
Fe5 Fe6 2.585157 1_555
Fe5 Nb0 2.804105 1_555
Fe5 Nb5 2.804109 1_565
Fe5 Nb3 2.805261 1_655
Fe5 Nb7 2.963142 1_665
Fe5 Nb10 2.963142 1_655
Fe5 Nb8 2.982855 1_565
Fe6 V1 2.469531 1_565
Fe6 V2 2.469531 1_556
Fe6 V0 2.477556 1_655
Fe6 Nb2 2.804113 1_565
Fe6 Nb0 2.804113 1_556
Fe6 Nb4 2.805261 1_655
Fe6 Nb9 2.963142 1_656
Fe6 Nb7 2.963142 1_665
Fe6 Nb11 2.982851 1_566
N0 Nb6 2.169938 1_555
N0 Nb8 2.169938 1_555
N0 Nb11 2.169949 1_555
N0 Nb5 2.187021 1_555
N0 Nb0 2.187021 1_545
N0 Nb2 2.187021 1_554
N1 Nb6 2.165631 1_555
N1 Nb3 2.173301 1_555
N1 Nb4 2.173306 1_554
N1 Nb10 2.174363 1_555
N1 Nb9 2.174368 1_555
N1 Nb0 2.176011 1_455
N2 Nb8 2.165631 1_555
N2 Nb1 2.173301 1_555
N2 Nb4 2.173306 1_545
N2 Nb10 2.174363 1_555
N2 Nb7 2.174368 1_555
N2 Nb2 2.176011 1_455
N3 Nb11 2.165627 1_555
N3 Nb3 2.173308 1_545
N3 Nb1 2.173308 1_554
N3 Nb9 2.174361 1_555
N3 Nb7 2.174361 1_555
N3 Nb5 2.176011 1_455
