# generated using pymatgen
data_BeNi11(Mo6C)2
_symmetry_space_group_name_H-M   'P 1'
_cell_length_a   7.63044357
_cell_length_b   7.63044295
_cell_length_c   7.63044294
_cell_angle_alpha   60.16664343
_cell_angle_beta   60.16664399
_cell_angle_gamma   60.16664619
_symmetry_Int_Tables_number   1
_chemical_formula_structural   BeNi11(Mo6C)2
_chemical_formula_sum   'Be1 Ni11 Mo12 C2'
_cell_volume   315.33366662
_cell_formula_units_Z   1
loop_
 _symmetry_equiv_pos_site_id
 _symmetry_equiv_pos_as_xyz
  1  'x, y, z'
loop_
 _atom_site_type_symbol
 _atom_site_label
 _atom_site_symmetry_multiplicity
 _atom_site_fract_x
 _atom_site_fract_y
 _atom_site_fract_z
 _atom_site_occupancy
  Be  Be0  1  0.12500000  0.12500000  0.12500000  1
  Ni  Ni0  1  0.32756501  0.32756501  0.00533079  1
  Ni  Ni1  1  0.33289564  0.33289564  0.33289564  1
  Ni  Ni2  1  0.24466921  0.92243499  0.92243499  1
  Ni  Ni3  1  0.91710436  0.91710436  0.91710436  1
  Ni  Ni4  1  0.00533079  0.32756501  0.32756501  1
  Ni  Ni5  1  0.32756501  0.00533079  0.32756501  1
  Ni  Ni6  1  0.12500000  0.62500000  0.12500000  1
  Ni  Ni7  1  0.12500000  0.12500000  0.62500000  1
  Ni  Ni8  1  0.62500000  0.12500000  0.12500000  1
  Ni  Ni9  1  0.92243499  0.92243499  0.24466921  1
  Ni  Ni10  1  0.92243499  0.24466921  0.92243499  1
  Mo  Mo0  1  0.30093416  0.69922066  0.69922066  1
  Mo  Mo1  1  0.69922066  0.69922066  0.30093416  1
  Mo  Mo2  1  0.69922066  0.30093416  0.69922066  1
  Mo  Mo3  1  0.30170595  0.69843352  0.30170595  1
  Mo  Mo4  1  0.55077934  0.94906584  0.55077934  1
  Mo  Mo5  1  0.55156648  0.94829405  0.94829405  1
  Mo  Mo6  1  0.94906584  0.55077934  0.55077934  1
  Mo  Mo7  1  0.94829405  0.55156648  0.94829405  1
  Mo  Mo8  1  0.30170595  0.30170595  0.69843352  1
  Mo  Mo9  1  0.55077934  0.55077934  0.94906584  1
  Mo  Mo10  1  0.94829405  0.94829405  0.55156648  1
  Mo  Mo11  1  0.69843352  0.30170595  0.30170595  1
  C  C0  1  0.50081484  0.50081484  0.50081484  1
  C  C1  1  0.74918516  0.74918516  0.74918516  1
loop_
_geom_bond_atom_site_label_1
_geom_bond_atom_site_label_2
_geom_bond_distance
_geom_bond_site_symmetry_2
Be0 Ni4 2.276053 1_555
Be0 Ni2 2.276053 1_544
Be0 Ni0 2.276053 1_555
Be0 Ni9 2.276053 1_445
Be0 Ni5 2.276053 1_555
Be0 Ni10 2.276053 1_454
Be0 Mo10 2.702975 1_445
Be0 Mo8 2.702975 1_554
Be0 Mo7 2.702975 1_454
Be0 Mo3 2.702975 1_545
Be0 Mo5 2.702975 1_544
Be0 Mo11 2.702975 1_455
Ni0 Ni6 2.353970 1_555
Ni0 Ni8 2.353970 1_555
Ni0 Ni5 2.464980 1_555
Ni0 Ni4 2.464981 1_555
Ni0 Ni1 2.540588 1_555
Ni1 Ni7 2.338538 1_555
Ni1 Ni6 2.338538 1_555
Ni1 Ni8 2.338538 1_555
Ni1 Ni5 2.540588 1_555
Ni1 Ni4 2.540588 1_555
Ni2 Ni6 2.353970 1_556
Ni2 Ni7 2.353970 1_565
Ni2 Ni9 2.464981 1_456
Ni2 Ni3 2.540588 1_455
Ni3 Ni7 2.338538 1_665
Ni3 Ni6 2.338538 1_656
Ni3 Ni8 2.338538 1_566
Ni3 Ni9 2.540588 1_556
Ni4 Ni6 2.353970 1_555
Ni4 Ni7 2.353970 1_555
Ni4 Ni5 2.464981 1_555
Ni5 Ni7 2.353970 1_555
Ni5 Ni8 2.353970 1_555
Ni6 Ni9 2.353970 1_455
Ni8 Ni9 2.353970 1_545
Ni10 Ni7 2.353970 1_655
Ni10 Ni8 2.353970 1_556
Ni10 Ni9 2.464980 1_546
Ni10 Ni2 2.464981 1_645
Ni10 Ni3 2.540588 1_545
Mo0 Ni5 2.616806 1_565
Mo0 Ni0 2.616806 1_556
Mo0 Ni3 2.677064 1_455
Mo0 Ni6 2.695264 1_556
Mo0 Ni7 2.695264 1_565
Mo0 Ni2 2.723510 1_555
Mo1 Ni4 2.616807 1_655
Mo1 Ni5 2.616807 1_565
Mo1 Ni3 2.677064 1_554
Mo1 Ni8 2.695264 1_565
Mo1 Ni6 2.695264 1_655
Mo1 Ni9 2.723510 1_555
Mo2 Ni4 2.616806 1_655
Mo2 Ni0 2.616807 1_556
Mo2 Ni3 2.677064 1_545
Mo2 Ni8 2.695264 1_556
Mo2 Ni7 2.695264 1_655
Mo2 Ni10 2.723510 1_555
Mo3 Ni5 2.553415 1_565
Mo3 Ni1 2.574575 1_555
Mo3 Ni2 2.660376 1_554
Mo3 Ni9 2.660376 1_455
Mo3 Ni6 2.694870 1_555
Mo4 Ni2 2.616806 1_555
Mo4 Ni9 2.616807 1_555
Mo4 Ni1 2.677064 1_565
Mo4 Ni8 2.695264 1_565
Mo4 Ni7 2.695264 1_565
Mo4 Ni5 2.723510 1_565
Mo5 Ni2 2.553416 1_555
Mo5 Ni3 2.574575 1_555
Mo5 Ni5 2.660376 1_566
Mo5 Ni0 2.660376 1_566
Mo5 Ni8 2.694870 1_566
Mo6 Ni10 2.616806 1_555
Mo6 Ni9 2.616806 1_555
Mo6 Ni1 2.677064 1_655
Mo6 Ni6 2.695264 1_655
Mo6 Ni7 2.695264 1_655
Mo6 Ni4 2.723510 1_655
Mo7 Ni10 2.553415 1_555
Mo7 Ni3 2.574575 1_555
Mo7 Ni4 2.660376 1_656
Mo7 Ni0 2.660376 1_656
Mo7 Ni6 2.694870 1_656
Mo8 Ni0 2.553415 1_556
Mo8 Ni1 2.574575 1_555
Mo8 Ni2 2.660376 1_545
Mo8 Ni10 2.660376 1_455
Mo8 Ni7 2.694870 1_555
Mo9 Ni2 2.616807 1_555
Mo9 Ni10 2.616807 1_555
Mo9 Ni1 2.677064 1_556
Mo9 Ni8 2.695264 1_556
Mo9 Ni6 2.695264 1_556
Mo9 Ni0 2.723510 1_556
Mo10 Ni9 2.553415 1_555
Mo10 Ni3 2.574575 1_555
Mo10 Ni4 2.660376 1_665
Mo10 Ni5 2.660376 1_665
Mo10 Ni7 2.694870 1_665
Mo11 Ni4 2.553416 1_655
Mo11 Ni1 2.574575 1_555
Mo11 Ni10 2.660376 1_554
Mo11 Ni9 2.660376 1_545
Mo11 Ni8 2.694870 1_555
C0 Mo1 2.143779 1_555
C0 Mo0 2.143779 1_555
C0 Mo2 2.143779 1_555
C0 Mo8 2.151295 1_555
C0 Mo11 2.151295 1_555
C0 Mo3 2.151295 1_555
C1 Mo9 2.143779 1_555
C1 Mo6 2.143779 1_555
C1 Mo4 2.143779 1_555
C1 Mo10 2.151295 1_555
C1 Mo5 2.151295 1_555
C1 Mo7 2.151295 1_555
