# generated using pymatgen
data_Lu2MnCo3
_symmetry_space_group_name_H-M   'P 1'
_cell_length_a   5.12904198
_cell_length_b   5.12904178
_cell_length_c   5.12904334
_cell_angle_alpha   58.70225937
_cell_angle_beta   58.70226068
_cell_angle_gamma   58.70226442
_symmetry_Int_Tables_number   1
_chemical_formula_structural   Lu2MnCo3
_chemical_formula_sum   'Lu2 Mn1 Co3'
_cell_volume   92.58080645
_cell_formula_units_Z   1
loop_
 _symmetry_equiv_pos_site_id
 _symmetry_equiv_pos_as_xyz
  1  'x, y, z'
loop_
 _atom_site_type_symbol
 _atom_site_label
 _atom_site_symmetry_multiplicity
 _atom_site_fract_x
 _atom_site_fract_y
 _atom_site_fract_z
 _atom_site_occupancy
  Lu  Lu0  1  0.62164820  0.62164820  0.62164820  1
  Lu  Lu1  1  0.37835180  0.37835180  0.37835180  1
  Mn  Mn0  1  0.00000000  0.00000000  0.00000000  1
  Co  Co0  1  0.00000000  0.50000000  0.00000000  1
  Co  Co1  1  0.50000000  0.00000000  0.00000000  1
  Co  Co2  1  0.00000000  0.00000000  0.50000000  1
loop_
_geom_bond_atom_site_label_1
_geom_bond_atom_site_label_2
_geom_bond_distance
_geom_bond_site_symmetry_2
Lu0 Mn0 2.958617 1_665
Lu0 Mn0 2.958617 1_656
Lu0 Mn0 2.958617 1_566
Lu0 Lu1 3.086300 1_555
Lu0 Lu1 3.119582 1_565
Lu0 Lu1 3.119582 1_655
Lu0 Lu1 3.119583 1_556
Lu1 Mn0 2.958617 1_556
Lu1 Mn0 2.958617 1_565
Lu1 Mn0 2.958617 1_655
Co0 Co1 2.514054 1_465
Co0 Co1 2.514054 1_555
Co0 Co2 2.514054 1_555
Co0 Co2 2.514054 1_564
Co0 Mn0 2.564521 1_565
Co0 Mn0 2.564521 1_555
Co0 Lu0 2.949877 1_554
Co0 Lu1 2.949877 1_455
Co0 Lu0 2.949878 1_455
Co0 Lu1 2.949878 1_554
Co0 Lu1 3.052484 1_555
Co0 Lu0 3.052484 1_454
Co1 Co2 2.514054 1_555
Co1 Co2 2.514054 1_654
Co1 Mn0 2.564521 1_555
Co1 Mn0 2.564521 1_655
Co1 Lu0 2.949877 1_554
Co1 Lu1 2.949877 1_545
Co1 Lu0 2.949878 1_545
Co1 Lu1 2.949878 1_554
Co1 Lu1 3.052484 1_555
Co1 Lu0 3.052484 1_544
Co2 Mn0 2.564522 1_555
Co2 Mn0 2.564522 1_556
Co2 Lu0 2.949878 1_455
Co2 Lu1 2.949878 1_545
Co2 Lu0 2.949878 1_545
Co2 Lu1 2.949878 1_455
Co2 Lu1 3.052483 1_555
Co2 Lu0 3.052483 1_445
