# generated using pymatgen
data_Ti8Al10Ga5Co7
_symmetry_space_group_name_H-M   'P 1'
_cell_length_a   8.34830220
_cell_length_b   8.34830182
_cell_length_c   8.34830197
_cell_angle_alpha   120.19731540
_cell_angle_beta   119.87526881
_cell_angle_gamma   89.93737848
_symmetry_Int_Tables_number   1
_chemical_formula_structural   Ti8Al10Ga5Co7
_chemical_formula_sum   'Ti8 Al10 Ga5 Co7'
_cell_volume   411.18435352
_cell_formula_units_Z   1
loop_
 _symmetry_equiv_pos_site_id
 _symmetry_equiv_pos_as_xyz
  1  'x, y, z'
loop_
 _atom_site_type_symbol
 _atom_site_label
 _atom_site_symmetry_multiplicity
 _atom_site_fract_x
 _atom_site_fract_y
 _atom_site_fract_z
 _atom_site_occupancy
  Ti  Ti0  1  0.79242026  0.28749635  0.07305589  1
  Ti  Ti1  1  0.21444046  0.28749635  0.49507509  1
  Ti  Ti2  1  0.20968637  0.70968637  0.50000000  1
  Ti  Ti3  1  0.21444046  0.71936437  0.92694411  1
  Ti  Ti4  1  0.79242026  0.71936437  0.50492491  1
  Ti  Ti5  1  0.78374520  0.28374520  0.50000000  1
  Ti  Ti6  1  0.37831762  0.12331643  0.74499781  1
  Ti  Ti7  1  0.37831762  0.63331981  0.25500219  1
  Al  Al0  1  0.83953284  0.65885286  0.81932102  1
  Al  Al1  1  0.83953284  0.02021182  0.18067898  1
  Al  Al2  1  0.83924363  0.65956678  0.17967585  1
  Al  Al3  1  0.47988993  0.65956678  0.82032415  1
  Al  Al4  1  0.37942557  0.12183267  0.25759290  1
  Al  Al5  1  0.86424078  0.12183267  0.74240710  1
  Al  Al6  1  0.61943478  0.87978507  0.26035029  1
  Al  Al7  1  0.61943478  0.35908548  0.73964971  1
  Al  Al8  1  0.61962916  0.87950534  0.74012182  1
  Al  Al9  1  0.13938252  0.87950534  0.25987818  1
  Ga  Ga0  1  0.99633430  0.49633430  0.50000000  1
  Ga  Ga1  1  0.15568450  0.34438142  0.18869492  1
  Ga  Ga2  1  0.15568450  0.96698958  0.81130508  1
  Ga  Ga3  1  0.15241829  0.34660371  0.80581558  1
  Ga  Ga4  1  0.54078713  0.34660371  0.19418442  1
  Co  Co0  1  0.00156037  0.00087252  0.50196063  1
  Co  Co1  1  0.49891189  0.00087252  0.99931215  1
  Co  Co2  1  0.49789097  0.49789097  0.00000000  1
  Co  Co3  1  0.49891189  0.49959973  0.49803937  1
  Co  Co4  1  0.00156037  0.49959973  0.00068785  1
  Co  Co5  1  0.99956289  0.99956289  0.00000000  1
  Co  Co6  1  0.49714983  0.99714983  0.50000000  1
loop_
_geom_bond_atom_site_label_1
_geom_bond_atom_site_label_2
_geom_bond_distance
_geom_bond_site_symmetry_2
Ti0 Ti6 2.851750 1_554
Ti1 Ti6 2.851749 1_555
Ti2 Ti7 2.850690 1_555
Ti2 Ti6 2.850697 1_565
Ti3 Ti7 2.851750 1_556
Ti4 Ti7 2.851750 1_555
Al0 Co5 2.415619 1_556
Al0 Co4 2.422904 1_656
Al0 Co3 2.422911 1_555
Al0 Al7 2.683182 1_555
Al0 Ti5 2.738309 1_555
Al0 Ti4 2.757490 1_555
Al0 Ti3 2.757493 1_655
Al1 Co5 2.415612 1_545
Al1 Co0 2.422911 1_655
Al1 Co1 2.422911 1_554
Al1 Al6 2.683196 1_545
Al1 Ti5 2.738315 1_555
Al1 Ti0 2.757493 1_555
Al1 Ti1 2.757493 1_655
Al2 Co4 2.420381 1_655
Al2 Co0 2.420388 1_665
Al2 Co2 2.430216 1_555
Al2 Al7 2.679377 1_554
Al2 Al6 2.679386 1_555
Al2 Ti0 2.732775 1_555
Al2 Ti4 2.732788 1_555
Al2 Ti2 2.743833 1_655
Al3 Co1 2.420386 1_565
Al3 Co3 2.420393 1_555
Al3 Co2 2.430207 1_556
Al3 Al7 2.679377 1_555
Al3 Al6 2.679377 1_556
Al3 Ti3 2.732767 1_555
Al3 Ti1 2.732772 1_555
Al3 Ti2 2.743836 1_555
Al4 Co6 2.506000 1_545
Al4 Co3 2.571798 1_555
Al4 Co1 2.571798 1_554
Al4 Co5 2.593850 1_445
Al4 Ga2 2.696029 1_544
Al4 Ga1 2.696042 1_555
Al4 Ga4 2.707604 1_555
Al4 Ti1 2.774592 1_555
Al4 Ti3 2.774597 1_544
Al4 Ti5 2.787277 1_555
Al4 Al7 2.844360 1_555
Al4 Al6 2.844361 1_545
Al4 Al9 2.862618 1_545
Al5 Co6 2.506007 1_545
Al5 Co0 2.571791 1_655
Al5 Co4 2.571797 1_656
Al5 Co5 2.593850 1_546
Al5 Ga2 2.696023 1_645
Al5 Ga1 2.696027 1_656
Al5 Ga3 2.707596 1_655
Al5 Ti4 2.774596 1_545
Al5 Ti0 2.774603 1_556
Al5 Ti5 2.787276 1_555
Al5 Al6 2.844361 1_545
Al5 Al7 2.844372 1_555
Al5 Al8 2.862606 1_545
Al6 Co6 2.462815 1_555
Al6 Co2 2.599480 1_555
Al6 Co1 2.610115 1_564
Al6 Co0 2.610115 1_665
Al6 Ti5 2.783187 1_565
Al6 Ti3 2.803026 1_554
Al6 Ti4 2.803032 1_555
Al6 Ti7 2.848600 1_555
Al7 Co6 2.462822 1_545
Al7 Co2 2.599480 1_556
Al7 Co3 2.610108 1_555
Al7 Co4 2.610114 1_656
Al7 Ti5 2.783186 1_555
Al7 Ti1 2.803025 1_555
Al7 Ti0 2.803032 1_556
Al7 Ti6 2.848600 1_555
Al8 Co6 2.442314 1_555
Al8 Co3 2.586294 1_555
Al8 Co1 2.586308 1_565
Al8 Co5 2.595364 1_556
Al8 Ti4 2.810744 1_555
Al8 Ti0 2.810764 1_566
Al8 Ti2 2.838634 1_555
Al8 Ti7 2.862203 1_555
Al8 Ti6 2.862221 1_565
Al9 Co6 2.442320 1_555
Al9 Co0 2.586287 1_565
Al9 Co4 2.586294 1_555
Al9 Co5 2.595377 1_455
Al9 Ti1 2.810764 1_565
Al9 Ti3 2.810771 1_554
Al9 Ti2 2.838618 1_555
Al9 Ti6 2.862203 1_565
Al9 Ti7 2.862209 1_555
Ga0 Ti5 2.511258 1_555
Ga0 Ti2 2.520271 1_655
Ga0 Ti4 2.520354 1_555
Ga0 Ti0 2.520354 1_555
Ga0 Ti3 2.520354 1_655
Ga0 Ti1 2.520354 1_655
Ga1 Ti0 2.641918 1_455
Ga1 Ti1 2.641921 1_555
Ga1 Ti2 2.668472 1_555
Ga1 Ti7 2.687178 1_555
Ga2 Ti3 2.641918 1_555
Ga2 Ti4 2.641918 1_455
Ga2 Ti2 2.668483 1_555
Ga2 Ti6 2.687196 1_565
Ga3 Ti5 2.663444 1_455
Ga3 Ti7 2.698739 1_556
Ga3 Ti6 2.698741 1_555
Ga3 Ti3 2.700190 1_555
Ga3 Ti1 2.700203 1_555
Ga4 Ti5 2.663452 1_555
Ga4 Ti7 2.698734 1_555
Ga4 Ti6 2.698741 1_554
Ga4 Ti4 2.700192 1_555
Ga4 Ti0 2.700198 1_555
Co0 Ga3 2.410707 1_555
Co0 Ga2 2.414251 1_545
Co0 Ti6 2.572444 1_555
Co0 Ti4 2.946619 1_445
Co0 Ti5 2.980496 1_455
Co0 Ti2 2.984555 1_545
Co0 Ti1 3.022702 1_555
Co1 Ga4 2.410709 1_556
Co1 Ga2 2.414252 1_545
Co1 Ti6 2.572451 1_555
Co1 Ti3 2.946613 1_545
Co1 Ti5 2.980496 1_556
Co1 Ti2 2.984555 1_545
Co1 Ti0 3.022697 1_556
Co2 Ga4 2.414892 1_555
Co2 Ga3 2.414898 1_554
Co2 Ti6 2.549514 1_554
Co2 Ti7 2.549521 1_555
Co2 Ti3 3.012816 1_554
Co2 Ti0 3.012816 1_555
Co2 Ti4 3.012822 1_555
Co2 Ti1 3.012822 1_554
Co3 Ga4 2.410702 1_555
Co3 Ga1 2.414251 1_555
Co3 Ti7 2.572444 1_555
Co3 Ti1 2.946607 1_555
Co3 Ti5 2.980496 1_555
Co3 Ti2 2.984555 1_555
Co3 Ti4 3.022691 1_555
Co4 Ga3 2.410700 1_554
Co4 Ga1 2.414237 1_555
Co4 Ti7 2.572444 1_555
Co4 Ti0 2.946613 1_455
Co4 Ti5 2.980496 1_454
Co4 Ti2 2.984555 1_555
Co4 Ti3 3.022697 1_554
Co5 Ga2 2.422372 1_654
Co5 Ga1 2.422386 1_665
Co5 Ti4 2.950807 1_554
Co5 Ti1 2.950807 1_665
Co5 Ti0 2.950813 1_565
Co5 Ti3 2.950813 1_654
Co6 Ti7 2.475652 1_555
Co6 Ti6 2.475652 1_565
