# generated using pymatgen
data_Nb9Ge2B4Mo
_symmetry_space_group_name_H-M   'P 1'
_cell_length_a   7.34625807
_cell_length_b   7.34625886
_cell_length_c   7.34625815
_cell_angle_alpha   129.50816556
_cell_angle_beta   129.50815945
_cell_angle_gamma   74.19427907
_symmetry_Int_Tables_number   1
_chemical_formula_structural   Nb9Ge2B4Mo
_chemical_formula_sum   'Nb9 Ge2 B4 Mo1'
_cell_volume   230.09025847
_cell_formula_units_Z   1
loop_
 _symmetry_equiv_pos_site_id
 _symmetry_equiv_pos_as_xyz
  1  'x, y, z'
loop_
 _atom_site_type_symbol
 _atom_site_label
 _atom_site_symmetry_multiplicity
 _atom_site_fract_x
 _atom_site_fract_y
 _atom_site_fract_z
 _atom_site_occupancy
  Nb  Nb0  1  0.80591392  0.97089120  0.50367308  1
  Nb  Nb1  1  0.30223985  0.80591392  0.83502173  1
  Nb  Nb2  1  0.19408608  0.02910880  0.49632692  1
  Nb  Nb3  1  0.53278188  0.69776015  0.50367308  1
  Nb  Nb4  1  0.02910880  0.53278188  0.83502173  1
  Nb  Nb5  1  0.69776015  0.19408608  0.16497827  1
  Nb  Nb6  1  0.97089120  0.46721812  0.16497827  1
  Nb  Nb7  1  0.50000000  0.50000000  0.00000000  1
  Nb  Nb8  1  0.46721812  0.30223985  0.49632692  1
  Ge  Ge0  1  0.74810541  0.74810541  0.00000000  1
  Ge  Ge1  1  0.25189459  0.25189459  0.00000000  1
  B  B0  1  0.38298764  0.88440976  0.26739940  1
  B  B1  1  0.88440976  0.61701236  0.50142111  1
  B  B2  1  0.61701236  0.11559024  0.73260060  1
  B  B3  1  0.11559024  0.38298764  0.49857889  1
  Mo  Mo0  1  0.00000000  0.00000000  0.00000000  1
loop_
_geom_bond_atom_site_label_1
_geom_bond_atom_site_label_2
_geom_bond_distance
_geom_bond_site_symmetry_2
Ge0 Nb5 2.682846 1_565
Ge0 Nb2 2.682849 1_665
Ge0 Nb4 2.682853 1_654
Ge0 Nb3 2.682853 1_554
Ge0 Nb0 2.687722 1_555
Ge0 Nb6 2.687727 1_555
Ge0 Nb8 2.687727 1_554
Ge0 Nb1 2.687727 1_554
Ge0 Nb7 2.907537 1_555
Ge0 Mo0 2.951942 1_665
Ge1 Nb1 2.682846 1_544
Ge1 Nb0 2.682849 1_444
Ge1 Nb6 2.682853 1_455
Ge1 Nb8 2.682853 1_555
Ge1 Nb2 2.687722 1_554
Ge1 Nb4 2.687727 1_554
Ge1 Nb3 2.687727 1_555
Ge1 Nb5 2.687727 1_555
Ge1 Nb7 2.907537 1_555
Ge1 Mo0 2.951942 1_555
B0 B2 2.061359 1_565
B0 Nb2 2.403188 1_565
B0 Nb8 2.403197 1_565
B0 Nb3 2.424829 1_555
B0 Nb0 2.424851 1_555
B0 Nb4 2.496387 1_554
B0 Nb1 2.496406 1_554
B0 Mo0 2.506891 1_565
B0 Nb7 2.518004 1_555
B1 B3 2.061376 1_655
B1 Nb1 2.403194 1_655
B1 Nb4 2.403200 1_655
B1 Nb6 2.424834 1_555
B1 Nb5 2.424848 1_555
B1 Nb0 2.496385 1_555
B1 Nb3 2.496392 1_555
B1 Mo0 2.506891 1_666
B1 Nb7 2.517997 1_555
B2 Nb0 2.403188 1_545
B2 Nb3 2.403197 1_545
B2 Nb8 2.424829 1_555
B2 Nb2 2.424851 1_555
B2 Nb6 2.496387 1_556
B2 Nb5 2.496406 1_556
B2 Mo0 2.506891 1_656
B2 Nb7 2.518004 1_556
B3 Nb5 2.403194 1_455
B3 Nb6 2.403200 1_455
B3 Nb4 2.424834 1_555
B3 Nb1 2.424848 1_555
B3 Nb2 2.496385 1_555
B3 Nb8 2.496392 1_555
B3 Mo0 2.506891 1_555
B3 Nb7 2.517997 1_556
Mo0 Nb1 2.816442 1_544
Mo0 Nb5 2.816442 1_455
Mo0 Nb8 2.816442 1_555
Mo0 Nb3 2.816442 1_444
Mo0 Nb6 2.816442 1_455
Mo0 Nb4 2.816442 1_544
Mo0 Nb2 2.816444 1_555
Mo0 Nb0 2.816444 1_444
