# generated using pymatgen
data_KSc2Cu3Se5
_symmetry_space_group_name_H-M   'P 1'
_cell_length_a   3.97769838
_cell_length_b   7.36936580
_cell_length_c   16.29729183
_cell_angle_alpha   90.00000000
_cell_angle_beta   90.00000000
_cell_angle_gamma   74.34283933
_symmetry_Int_Tables_number   1
_chemical_formula_structural   KSc2Cu3Se5
_chemical_formula_sum   'K2 Sc4 Cu6 Se10'
_cell_volume   459.99784400
_cell_formula_units_Z   2
loop_
 _symmetry_equiv_pos_site_id
 _symmetry_equiv_pos_as_xyz
  1  'x, y, z'
loop_
 _atom_site_type_symbol
 _atom_site_label
 _atom_site_symmetry_multiplicity
 _atom_site_fract_x
 _atom_site_fract_y
 _atom_site_fract_z
 _atom_site_occupancy
  K  K0  1  0.93882174  0.12235752  0.25000000  1
  K  K1  1  0.06117826  0.87764248  0.75000000  1
  Sc  Sc0  1  0.19179421  0.61640958  0.09384252  1
  Sc  Sc1  1  0.19179421  0.61640958  0.40615748  1
  Sc  Sc2  1  0.80820579  0.38359042  0.59384252  1
  Sc  Sc3  1  0.80820579  0.38359042  0.90615748  1
  Cu  Cu0  1  0.41692453  0.16614895  0.03200914  1
  Cu  Cu1  1  0.65710877  0.68578246  0.25000000  1
  Cu  Cu2  1  0.41692453  0.16614895  0.46799186  1
  Cu  Cu3  1  0.58307547  0.83385105  0.53200814  1
  Cu  Cu4  1  0.34289123  0.31421754  0.75000000  1
  Cu  Cu5  1  0.58307547  0.83385105  0.96799186  1
  Se  Se0  1  0.82866287  0.34267326  0.07003019  1
  Se  Se1  1  0.56270889  0.87458423  0.11885966  1
  Se  Se2  1  0.25094319  0.49811262  0.25000000  1
  Se  Se3  1  0.56270889  0.87458423  0.38113934  1
  Se  Se4  1  0.82866287  0.34267326  0.42996981  1
  Se  Se5  1  0.17133613  0.65732674  0.57003119  1
  Se  Se6  1  0.43729011  0.12541677  0.61885966  1
  Se  Se7  1  0.74905581  0.50188838  0.75000000  1
  Se  Se8  1  0.43729011  0.12541677  0.88113934  1
  Se  Se9  1  0.17133613  0.65732674  0.92996981  1
loop_
_geom_bond_atom_site_label_1
_geom_bond_atom_site_label_2
_geom_bond_distance
_geom_bond_site_symmetry_2
K0 Se4 3.323650 1_555
K0 Se0 3.323650 1_555
K0 Se2 3.326380 1_655
K0 Se2 3.326385 1_555
K0 Se3 3.407990 1_545
K0 Se3 3.407993 1_645
K0 Se1 3.408000 1_545
K0 Se1 3.408003 1_645
K1 Se5 3.323635 1_555
K1 Se9 3.323650 1_555
K1 Se7 3.326375 1_455
K1 Se7 3.326378 1_555
K1 Se8 3.407993 1_565
K1 Se8 3.407998 1_465
K1 Se6 3.408003 1_565
K1 Se6 3.408008 1_465
Sc0 Se2 2.679809 1_555
Sc0 Se9 2.686418 1_554
Sc0 Se1 2.734573 1_455
Sc0 Se1 2.734585 1_555
Sc0 Se0 2.806969 1_455
Sc0 Se0 2.806972 1_555
Sc1 Se2 2.679809 1_555
Sc1 Se5 2.686434 1_555
Sc1 Se3 2.734576 1_455
Sc1 Se3 2.734587 1_555
Sc1 Se4 2.806969 1_455
Sc1 Se4 2.806972 1_555
Sc2 Se7 2.679811 1_555
Sc2 Se4 2.686418 1_555
Sc2 Se6 2.734567 1_655
Sc2 Se6 2.734581 1_555
Sc2 Se5 2.806964 1_655
Sc2 Se5 2.806972 1_555
Sc3 Se7 2.679811 1_555
Sc3 Se0 2.686418 1_556
Sc3 Se8 2.734569 1_655
Sc3 Se8 2.734584 1_555
Sc3 Se9 2.806966 1_655
Sc3 Se9 2.806974 1_555
Cu0 Se0 2.430736 1_455
Cu0 Se0 2.430739 1_555
Cu0 Se8 2.475699 1_554
Cu0 Se1 2.506763 1_545
Cu1 Se2 2.393514 1_655
Cu1 Se2 2.393517 1_555
Cu1 Se3 2.522409 1_555
Cu1 Se1 2.522423 1_555
Cu2 Se4 2.430740 1_455
Cu2 Se4 2.430744 1_555
Cu2 Se6 2.475667 1_555
Cu2 Se3 2.506782 1_545
Cu3 Se5 2.430741 1_655
Cu3 Se5 2.430751 1_555
Cu3 Se3 2.475684 1_555
Cu3 Se6 2.506778 1_565
Cu4 Se7 2.393520 1_555
Cu4 Se7 2.393520 1_455
Cu4 Se8 2.522405 1_555
Cu4 Se6 2.522419 1_555
Cu5 Se9 2.430737 1_655
Cu5 Se9 2.430747 1_555
Cu5 Se1 2.475667 1_556
Cu5 Se8 2.506788 1_565
