# generated using pymatgen
data_YBiPt2O7
_symmetry_space_group_name_H-M   'P 1'
_cell_length_a   7.29304111
_cell_length_b   7.29304197
_cell_length_c   7.29304234
_cell_angle_alpha   120.22819336
_cell_angle_beta   119.93576163
_cell_angle_gamma   89.85825791
_symmetry_Int_Tables_number   1
_chemical_formula_structural   YBiPt2O7
_chemical_formula_sum   'Y2 Bi2 Pt4 O14'
_cell_volume   273.94769886
_cell_formula_units_Z   2
loop_
 _symmetry_equiv_pos_site_id
 _symmetry_equiv_pos_as_xyz
  1  'x, y, z'
loop_
 _atom_site_type_symbol
 _atom_site_label
 _atom_site_symmetry_multiplicity
 _atom_site_fract_x
 _atom_site_fract_y
 _atom_site_fract_z
 _atom_site_occupancy
  Y  Y0  1  0.50000000  0.50000000  0.00000000  1
  Y  Y1  1  0.00000000  0.50000000  0.50000000  1
  Bi  Bi0  1  0.50000000  0.50000000  0.50000000  1
  Bi  Bi1  1  0.50000000  0.00000000  0.00000000  1
  Pt  Pt0  1  0.00000000  0.00000000  0.50000000  1
  Pt  Pt1  1  0.00000000  0.50000000  0.00000000  1
  Pt  Pt2  1  0.00000000  0.00000000  0.00000000  1
  Pt  Pt3  1  0.50000000  0.00000000  0.50000000  1
  O  O0  1  0.33575153  0.09274391  0.67278838  1
  O  O1  1  0.91995553  0.09274391  0.25699238  1
  O  O2  1  0.91195703  0.66195703  0.25000000  1
  O  O3  1  0.91995553  0.66296214  0.82721162  1
  O  O4  1  0.33575153  0.66296214  0.24300762  1
  O  O5  1  0.33399035  0.08399035  0.25000000  1
  O  O6  1  0.66424847  0.90725609  0.32721162  1
  O  O7  1  0.08004447  0.90725609  0.74300762  1
  O  O8  1  0.08804297  0.33804297  0.75000000  1
  O  O9  1  0.08004447  0.33703786  0.17278838  1
  O  O10  1  0.66424847  0.33703786  0.75699238  1
  O  O11  1  0.66600965  0.91600965  0.75000000  1
  O  O12  1  0.63396697  0.38396697  0.25000000  1
  O  O13  1  0.36603303  0.61603303  0.75000000  1
loop_
_geom_bond_atom_site_label_1
_geom_bond_atom_site_label_2
_geom_bond_distance
_geom_bond_site_symmetry_2
Bi0 O13 2.283694 1_555
Bi0 O12 2.283694 1_555
Bi0 O5 2.498057 1_555
Bi0 O11 2.498057 1_555
Bi0 O4 2.520976 1_555
Bi0 O10 2.520976 1_555
Bi0 O3 2.520982 1_555
Bi0 O9 2.520982 1_555
Bi1 O12 2.283694 1_555
Bi1 O13 2.283694 1_544
Bi1 O11 2.498057 1_544
Bi1 O5 2.498057 1_555
Bi1 O1 2.520982 1_555
Bi1 O7 2.520982 1_544
Bi1 O6 2.520983 1_545
Bi1 O0 2.520983 1_554
O0 Pt0 2.027723 1_555
O0 Pt3 2.030939 1_555
O0 Y0 2.445255 1_556
O1 Pt0 2.027724 1_655
O1 Pt2 2.030940 1_655
O1 Y1 2.445255 1_655
O2 Pt0 2.031748 1_665
O2 Pt1 2.031748 1_655
O2 Y0 2.475462 1_555
O2 Y1 2.475463 1_655
O3 Pt1 2.027717 1_656
O3 Pt2 2.030946 1_666
O3 Y1 2.445256 1_655
O4 Pt1 2.027722 1_555
O4 Pt3 2.030945 1_565
O4 Y0 2.445255 1_555
O5 Pt2 2.020647 1_555
O5 Pt3 2.020647 1_555
O6 Pt0 2.027723 1_665
O6 Pt3 2.030939 1_565
O6 Y0 2.445255 1_555
O7 Pt0 2.027724 1_565
O7 Pt2 2.030940 1_566
O7 Y1 2.445255 1_555
O8 Pt0 2.031748 1_555
O8 Pt1 2.031748 1_556
O8 Y0 2.475462 1_556
O8 Y1 2.475463 1_555
O9 Pt1 2.027717 1_555
O9 Pt2 2.030946 1_555
O9 Y1 2.445256 1_555
O10 Pt1 2.027722 1_656
O10 Pt3 2.030945 1_555
O10 Y0 2.445255 1_556
O11 Pt2 2.020647 1_666
O11 Pt3 2.020647 1_565
O12 Y1 2.183232 1_655
O12 Y0 2.183232 1_555
O13 Y1 2.183232 1_555
O13 Y0 2.183232 1_556
