# generated using pymatgen
data_RbBaAsSe3
_symmetry_space_group_name_H-M   'P 1'
_cell_length_a   9.23356568
_cell_length_b   9.79274228
_cell_length_c   9.41297155
_cell_angle_alpha   72.19302326
_cell_angle_beta   90.00000000
_cell_angle_gamma   90.00000000
_symmetry_Int_Tables_number   1
_chemical_formula_structural   RbBaAsSe3
_chemical_formula_sum   'Rb4 Ba4 As4 Se12'
_cell_volume   810.36281366
_cell_formula_units_Z   4
loop_
 _symmetry_equiv_pos_site_id
 _symmetry_equiv_pos_as_xyz
  1  'x, y, z'
loop_
 _atom_site_type_symbol
 _atom_site_label
 _atom_site_symmetry_multiplicity
 _atom_site_fract_x
 _atom_site_fract_y
 _atom_site_fract_z
 _atom_site_occupancy
  Rb  Rb0  1  0.08390783  0.59415728  0.28209216  1
  Rb  Rb1  1  0.58390783  0.40584272  0.21790784  1
  Rb  Rb2  1  0.91609217  0.40584272  0.71790784  1
  Rb  Rb3  1  0.41609217  0.59415728  0.78209216  1
  Ba  Ba0  1  0.71623143  0.92142518  0.03164427  1
  Ba  Ba1  1  0.21623143  0.07857482  0.46835573  1
  Ba  Ba2  1  0.28376857  0.07857482  0.96835573  1
  Ba  Ba3  1  0.78376857  0.92142518  0.53164427  1
  As  As0  1  0.46274906  0.75587322  0.35214362  1
  As  As1  1  0.96274906  0.24412678  0.14785638  1
  As  As2  1  0.53725094  0.24412678  0.64785638  1
  As  As3  1  0.03725094  0.75587322  0.85214362  1
  Se  Se0  1  0.20176818  0.34210255  0.10722876  1
  Se  Se1  1  0.70176818  0.65789745  0.39277124  1
  Se  Se2  1  0.79823182  0.65789745  0.89277124  1
  Se  Se3  1  0.29823182  0.34210255  0.60722876  1
  Se  Se4  1  0.00782022  0.98587816  0.22091630  1
  Se  Se5  1  0.50782022  0.01412184  0.27908370  1
  Se  Se6  1  0.99217978  0.01412184  0.77908370  1
  Se  Se7  1  0.49217978  0.98587816  0.72091630  1
  Se  Se8  1  0.40180434  0.73563868  0.11259867  1
  Se  Se9  1  0.90180434  0.26436132  0.38740133  1
  Se  Se10  1  0.59819566  0.26436132  0.88740133  1
  Se  Se11  1  0.09819566  0.73563868  0.61259867  1
loop_
_geom_bond_atom_site_label_1
_geom_bond_atom_site_label_2
_geom_bond_distance
_geom_bond_site_symmetry_2
Rb0 Se8 3.424782 1_555
Rb0 Se9 3.504603 1_455
Rb0 Se0 3.531435 1_555
Rb0 Se4 3.766856 1_555
Rb0 Se11 3.775170 1_555
Rb0 Se1 3.784591 1_455
Rb0 Se3 3.841249 1_555
Rb1 Se9 3.424782 1_555
Rb1 Se8 3.504603 1_555
Rb1 Se1 3.531435 1_555
Rb1 Se5 3.766856 1_555
Rb1 Se10 3.775170 1_554
Rb1 Se0 3.784591 1_555
Rb1 Se2 3.841249 1_554
Rb2 Se10 3.424782 1_555
Rb2 Se11 3.504603 1_655
Rb2 Se2 3.531435 1_555
Rb2 Se6 3.766856 1_555
Rb2 Se9 3.775170 1_555
Rb2 Se3 3.784591 1_655
Rb2 Se1 3.841249 1_555
Rb3 Se11 3.424782 1_555
Rb3 Se10 3.504603 1_555
Rb3 Se3 3.531435 1_555
Rb3 Se7 3.766856 1_555
Rb3 Se8 3.775170 1_556
Rb3 Se2 3.784591 1_555
Rb3 Se0 3.841249 1_556
Ba0 Se2 3.317403 1_554
Ba0 Se5 3.353400 1_565
Ba0 Se8 3.387012 1_555
Ba0 Se4 3.392541 1_655
Ba0 Se10 3.394202 1_564
Ba0 Se6 3.412934 1_564
Ba0 Se7 3.479090 1_554
Ba0 Se1 3.587108 1_555
Ba1 Se3 3.317403 1_555
Ba1 Se4 3.353400 1_545
Ba1 Se9 3.387012 1_455
Ba1 Se5 3.392541 1_555
Ba1 Se11 3.394202 1_545
Ba1 Se7 3.412934 1_545
Ba1 Se6 3.479090 1_455
Ba1 Se0 3.587108 1_555
Ba2 Se0 3.317403 1_556
Ba2 Se7 3.353400 1_545
Ba2 Se10 3.387012 1_555
Ba2 Se6 3.392541 1_455
Ba2 Se8 3.394202 1_546
Ba2 Se4 3.412934 1_546
Ba2 Se5 3.479090 1_556
Ba2 Se3 3.587108 1_555
Ba3 Se1 3.317403 1_555
Ba3 Se6 3.353400 1_565
Ba3 Se11 3.387012 1_655
Ba3 Se7 3.392541 1_555
Ba3 Se9 3.394202 1_565
Ba3 Se5 3.412934 1_565
Ba3 Se4 3.479090 1_655
Ba3 Se2 3.587108 1_555
As0 Se1 2.390235 1_555
As0 Se8 2.390286 1_555
As0 Se5 2.445007 1_565
As0 Rb3 3.892622 1_555
As1 Se0 2.390235 1_655
As1 Se9 2.390286 1_555
As1 Se4 2.445007 1_645
As1 Rb2 3.892622 1_554
As2 Se3 2.390235 1_555
As2 Se10 2.390286 1_555
As2 Se7 2.445007 1_545
As2 Rb1 3.892622 1_555
As3 Se2 2.390235 1_455
As3 Se11 2.390286 1_555
As3 Se6 2.445007 1_465
As3 Rb0 3.892622 1_556
