# generated using pymatgen
data_K2As2SeS3
_symmetry_space_group_name_H-M   'P 1'
_cell_length_a   6.56699185
_cell_length_b   6.52952894
_cell_length_c   12.35183841
_cell_angle_alpha   80.59782630
_cell_angle_beta   79.78364838
_cell_angle_gamma   108.88748357
_symmetry_Int_Tables_number   1
_chemical_formula_structural   K2As2SeS3
_chemical_formula_sum   'K4 As4 Se2 S6'
_cell_volume   479.11286596
_cell_formula_units_Z   2
loop_
 _symmetry_equiv_pos_site_id
 _symmetry_equiv_pos_as_xyz
  1  'x, y, z'
loop_
 _atom_site_type_symbol
 _atom_site_label
 _atom_site_symmetry_multiplicity
 _atom_site_fract_x
 _atom_site_fract_y
 _atom_site_fract_z
 _atom_site_occupancy
  K  K0  1  0.79250595  0.34247830  0.26395300  1
  K  K1  1  0.12324612  0.13293804  0.49514543  1
  K  K2  1  0.34304268  0.79605904  0.75362319  1
  K  K3  1  0.13790289  0.11082638  0.00461538  1
  As  As0  1  0.41344258  0.70408559  0.17688472  1
  As  As1  1  0.53951494  0.69644717  0.43877956  1
  As  As2  1  0.69378111  0.40488489  0.66782978  1
  As  As3  1  0.68728414  0.54248181  0.94453674  1
  Se  Se0  1  0.01054235  0.56777884  0.00032476  1
  Se  Se1  1  0.82371807  0.74034718  0.74379202  1
  S  S0  1  0.32225886  0.34519147  0.21026698  1
  S  S1  1  0.61419809  0.84432265  0.98912472  1
  S  S2  1  0.57161635  0.99853183  0.49556921  1
  S  S3  1  0.72754984  0.82275803  0.24863144  1
  S  S4  1  0.33688473  0.31448466  0.70548252  1
  S  S5  1  0.83580130  0.60967512  0.48111255  1
loop_
_geom_bond_atom_site_label_1
_geom_bond_atom_site_label_2
_geom_bond_distance
_geom_bond_site_symmetry_2
K0 S2 3.106775 1_545
K0 Se0 3.199215 1_655
K0 S0 3.276348 1_555
K0 S3 3.279187 1_555
K0 S3 3.321911 1_545
K0 S0 3.417688 1_655
K0 S5 3.434812 1_555
K1 S2 3.334205 1_545
K1 S4 3.368364 1_555
K1 S5 3.376517 1_445
K1 S0 3.407818 1_555
K1 S2 3.438980 1_445
K1 Se1 3.448631 1_445
K2 S2 3.130803 1_555
K2 Se0 3.213046 1_556
K2 Se1 3.276130 1_555
K2 S4 3.283278 1_555
K2 Se1 3.337072 1_455
K2 S4 3.354616 1_565
K2 S1 3.674957 1_555
K3 Se0 3.344307 1_555
K3 S1 3.370489 1_444
K3 S0 3.379571 1_555
K3 Se0 3.381189 1_545
K3 S3 3.445170 1_445
K3 S4 3.561557 1_554
As0 S0 2.169879 1_555
As0 S1 2.322744 1_554
As0 S3 2.340658 1_555
As1 S2 2.159266 1_555
As1 S5 2.314744 1_555
As1 S3 2.323846 1_555
As1 K1 3.670392 1_555
As2 S4 2.164668 1_555
As2 S5 2.323549 1_555
As2 Se1 2.480280 1_555
As2 K2 3.749832 1_545
As3 S1 2.300290 1_555
As3 Se0 2.310330 1_656
As3 Se1 2.456829 1_555
As3 K3 3.646140 1_556
