# generated using pymatgen
data_Sc8Al15Ir6Rh
_symmetry_space_group_name_H-M   'P 1'
_cell_length_a   8.84160784
_cell_length_b   8.84160719
_cell_length_c   8.84160635
_cell_angle_alpha   120.16412714
_cell_angle_beta   119.88532176
_cell_angle_gamma   89.95735077
_symmetry_Int_Tables_number   1
_chemical_formula_structural   Sc8Al15Ir6Rh
_chemical_formula_sum   'Sc8 Al15 Ir6 Rh1'
_cell_volume   488.55444123
_cell_formula_units_Z   1
loop_
 _symmetry_equiv_pos_site_id
 _symmetry_equiv_pos_as_xyz
  1  'x, y, z'
loop_
 _atom_site_type_symbol
 _atom_site_label
 _atom_site_symmetry_multiplicity
 _atom_site_fract_x
 _atom_site_fract_y
 _atom_site_fract_z
 _atom_site_occupancy
  Sc  Sc0  1  0.79098034  0.28460661  0.06493800  1
  Sc  Sc1  1  0.21966861  0.28460661  0.49362627  1
  Sc  Sc2  1  0.20822101  0.70822101  0.50000000  1
  Sc  Sc3  1  0.21966861  0.72604234  0.93506200  1
  Sc  Sc4  1  0.79098034  0.72604234  0.50637373  1
  Sc  Sc5  1  0.77278050  0.27278050  0.50000000  1
  Sc  Sc6  1  0.37934205  0.11869979  0.73935774  1
  Sc  Sc7  1  0.37934205  0.63998330  0.26064226  1
  Al  Al0  1  0.98945095  0.48945095  0.50000000  1
  Al  Al1  1  0.16188602  0.33480688  0.17292086  1
  Al  Al2  1  0.16188602  0.98896516  0.82707914  1
  Al  Al3  1  0.15495844  0.34158887  0.81336957  1
  Al  Al4  1  0.52821930  0.34158887  0.18663043  1
  Al  Al5  1  0.84173138  0.65510363  0.81337125  1
  Al  Al6  1  0.84173138  0.02836013  0.18662875  1
  Al  Al7  1  0.83768128  0.65936555  0.17831573  1
  Al  Al8  1  0.48104982  0.65936555  0.82168427  1
  Al  Al9  1  0.37895481  0.12256570  0.25639011  1
  Al  Al10  1  0.86617659  0.12256570  0.74360989  1
  Al  Al11  1  0.62243238  0.87417742  0.25174604  1
  Al  Al12  1  0.62243238  0.37068633  0.74825396  1
  Al  Al13  1  0.62347406  0.87590115  0.74757191  1
  Al  Al14  1  0.12832824  0.87590115  0.25242809  1
  Ir  Ir0  1  0.99433838  0.99742934  0.49719950  1
  Ir  Ir1  1  0.50022984  0.99742934  0.00309096  1
  Ir  Ir2  1  0.50193656  0.50193656  1.00000000  1
  Ir  Ir3  1  0.50022984  0.49713888  0.50280050  1
  Ir  Ir4  1  0.99433838  0.49713888  0.99690904  1
  Ir  Ir5  1  0.99944513  0.99944513  0.00000000  1
  Rh  Rh0  1  0.50810530  0.00810530  0.50000000  1
loop_
_geom_bond_atom_site_label_1
_geom_bond_atom_site_label_2
_geom_bond_distance
_geom_bond_site_symmetry_2
Sc0 Sc6 3.001399 1_554
Sc1 Sc6 3.001399 1_555
Sc2 Sc7 3.006360 1_555
Sc2 Sc6 3.006361 1_565
Sc3 Sc7 3.001405 1_556
Sc4 Sc7 3.001398 1_555
Al0 Sc5 2.710238 1_555
Al0 Sc0 2.726341 1_555
Al0 Sc3 2.726341 1_655
Al0 Sc4 2.726342 1_555
Al0 Sc1 2.726342 1_655
Al0 Sc2 2.736502 1_655
Al1 Ir5 2.540586 1_445
Al1 Ir4 2.573037 1_454
Al1 Ir3 2.573037 1_555
Al1 Al9 2.779296 1_555
Al1 Al10 2.779298 1_454
Al1 Sc7 2.827947 1_555
Al1 Sc1 2.884301 1_555
Al1 Sc0 2.884302 1_455
Al1 Sc2 2.942376 1_555
Al2 Ir5 2.540586 1_456
Al2 Ir0 2.573036 1_455
Al2 Ir1 2.573037 1_556
Al2 Al9 2.779300 1_566
Al2 Sc6 2.827954 1_565
Al2 Sc3 2.884302 1_555
Al2 Sc4 2.884302 1_455
Al2 Sc2 2.942376 1_555
Al3 Ir0 2.567584 1_445
Al3 Ir4 2.567584 1_455
Al3 Ir2 2.599083 1_555
Al3 Sc7 2.870486 1_556
Al3 Sc6 2.870488 1_555
Al3 Sc5 2.905882 1_455
Al3 Sc1 2.958618 1_555
Al3 Sc3 2.958618 1_555
Al4 Ir3 2.567584 1_555
Al4 Ir1 2.567584 1_545
Al4 Ir2 2.599083 1_554
Al4 Al9 2.808479 1_555
Al4 Sc7 2.870481 1_555
Al4 Sc6 2.870488 1_554
Al4 Sc5 2.905882 1_555
Al4 Sc4 2.958618 1_555
Al4 Sc0 2.958618 1_555
Al5 Ir3 2.549018 1_555
Al5 Ir4 2.549025 1_555
Al5 Ir5 2.569265 1_556
Al5 Sc5 2.895281 1_555
Al5 Sc4 2.908467 1_555
Al5 Sc3 2.908474 1_655
Al6 Ir0 2.549017 1_545
Al6 Ir1 2.549018 1_545
Al6 Ir5 2.569273 1_545
Al6 Sc5 2.895275 1_555
Al6 Sc0 2.908474 1_555
Al6 Sc1 2.908474 1_655
Al7 Ir2 2.524298 1_554
Al7 Ir0 2.539168 1_555
Al7 Ir4 2.539168 1_554
Al7 Sc4 2.899310 1_555
Al7 Sc0 2.899311 1_555
Al7 Sc2 2.913937 1_655
Al8 Ir2 2.524298 1_555
Al8 Ir3 2.539168 1_555
Al8 Ir1 2.539168 1_556
Al8 Sc1 2.899311 1_555
Al8 Sc3 2.899311 1_555
Al8 Sc2 2.913936 1_555
Al9 Rh0 2.589452 1_555
Al9 Ir3 2.700128 1_555
Al9 Ir1 2.700135 1_545
Al9 Ir5 2.743796 1_445
Al9 Sc5 2.861114 1_555
Al9 Sc1 2.890769 1_555
Al9 Sc3 2.890777 1_544
Al10 Rh0 2.589459 1_555
Al10 Ir0 2.700121 1_545
Al10 Ir4 2.700128 1_555
Al10 Ir5 2.743803 1_546
Al10 Al2 2.779294 1_645
Al10 Al3 2.808467 1_655
Al10 Sc5 2.861105 1_555
Al10 Sc4 2.890776 1_545
Al10 Sc0 2.890783 1_556
Al10 Al11 3.073983 1_545
Al10 Al12 3.073990 1_555
Al10 Al13 3.085621 1_545
Al11 Rh0 2.615163 1_565
Al11 Ir2 2.683562 1_554
Al11 Ir0 2.688331 1_555
Al11 Ir1 2.688338 1_555
Al11 Al7 2.763600 1_555
Al11 Al8 2.763604 1_554
Al11 Al6 2.802599 1_565
Al11 Sc5 2.886318 1_565
Al11 Sc4 2.936275 1_555
Al11 Sc3 2.936282 1_554
Al11 Sc7 3.041726 1_555
Al11 Al9 3.073996 1_565
Al12 Rh0 2.615163 1_555
Al12 Ir2 2.683569 1_555
Al12 Ir3 2.688331 1_555
Al12 Ir4 2.688331 1_555
Al12 Al7 2.763604 1_556
Al12 Al8 2.763605 1_555
Al12 Al5 2.802601 1_555
Al12 Sc5 2.886311 1_555
Al12 Sc0 2.936282 1_556
Al12 Sc1 2.936282 1_555
Al12 Sc6 3.041726 1_555
Al12 Al9 3.073983 1_555
Al13 Ir5 2.717833 1_556
Al13 Ir3 2.730908 1_555
Al13 Ir1 2.730915 1_556
Al13 Rh0 2.746402 1_565
Al13 Al8 2.786961 1_555
Al13 Al5 2.808997 1_555
Al13 Al6 2.809009 1_566
Al13 Sc4 2.966783 1_555
Al13 Sc0 2.966790 1_566
Al13 Sc2 3.034361 1_555
Al13 Sc7 3.044085 1_555
Al13 Sc6 3.044092 1_565
Al14 Ir5 2.717840 1_455
Al14 Ir0 2.730900 1_455
Al14 Ir4 2.730908 1_454
Al14 Rh0 2.746410 1_565
Al14 Al7 2.786949 1_455
Al14 Al6 2.809002 1_465
Al14 Al5 2.809007 1_454
Al14 Sc1 2.966790 1_565
Al14 Sc3 2.966797 1_554
Al14 Sc2 3.034352 1_555
Al14 Sc6 3.044085 1_565
Al14 Sc7 3.044098 1_555
Al14 Al9 3.085621 1_565
Ir0 Sc6 2.785090 1_665
Ir0 Sc4 3.056857 1_555
Ir0 Sc5 3.121808 1_565
Ir0 Sc2 3.181997 1_655
Ir0 Sc1 3.250866 1_665
Ir1 Sc6 2.785090 1_564
Ir1 Sc3 3.056857 1_554
Ir1 Sc5 3.121808 1_565
Ir1 Sc2 3.181996 1_554
Ir1 Sc0 3.250866 1_565
Ir2 Sc7 2.763321 1_556
Ir2 Sc6 2.763321 1_555
Ir2 Sc1 3.192544 1_555
Ir2 Sc4 3.192544 1_556
Ir2 Sc3 3.192545 1_555
Ir2 Sc0 3.192545 1_556
Ir3 Sc7 2.785082 1_555
Ir3 Sc1 3.056857 1_555
Ir3 Sc5 3.121808 1_555
Ir3 Sc2 3.181997 1_555
Ir3 Sc4 3.250866 1_555
Ir4 Sc7 2.785090 1_656
Ir4 Sc0 3.056857 1_556
Ir4 Sc5 3.121808 1_555
Ir4 Sc2 3.181996 1_656
Ir4 Sc3 3.250866 1_655
Ir5 Sc4 3.110735 1_554
Ir5 Sc1 3.110735 1_665
Ir5 Sc0 3.110736 1_565
Ir5 Sc3 3.110736 1_654
Rh0 Sc6 2.655321 1_555
Rh0 Sc7 2.655328 1_545
