# generated using pymatgen
data_Lu2MnSi5Os2
_symmetry_space_group_name_H-M   'P 1'
_cell_length_a   8.19756696
_cell_length_b   8.16099910
_cell_length_c   5.38627186
_cell_angle_alpha   70.69792849
_cell_angle_beta   70.82337513
_cell_angle_gamma   95.72195016
_symmetry_Int_Tables_number   1
_chemical_formula_structural   Lu2MnSi5Os2
_chemical_formula_sum   'Lu4 Mn2 Si10 Os4'
_cell_volume   312.32576765
_cell_formula_units_Z   2
loop_
 _symmetry_equiv_pos_site_id
 _symmetry_equiv_pos_as_xyz
  1  'x, y, z'
loop_
 _atom_site_type_symbol
 _atom_site_label
 _atom_site_symmetry_multiplicity
 _atom_site_fract_x
 _atom_site_fract_y
 _atom_site_fract_z
 _atom_site_occupancy
  Lu  Lu0  1  0.13007279  0.41139425  0.72825896  1
  Lu  Lu1  1  0.59949747  0.87288093  0.76455534  1
  Lu  Lu2  1  0.86692994  0.58752704  0.27154568  1
  Lu  Lu3  1  0.40265605  0.13377144  0.23324044  1
  Mn  Mn0  1  0.99889013  0.99808497  0.25478058  1
  Mn  Mn1  1  0.73449315  0.43562021  0.91320370  1
  Si  Si0  1  0.79702618  0.21470880  0.24267744  1
  Si  Si1  1  0.19908343  0.78893244  0.74526361  1
  Si  Si2  1  0.50765476  0.50073758  0.23834772  1
  Si  Si3  1  0.50711298  0.50089670  0.75223353  1
  Si  Si4  1  0.20127366  0.78959651  0.26175877  1
  Si  Si5  1  0.79934861  0.21480747  0.74347939  1
  Si  Si6  1  0.73354097  0.92454004  0.17514716  1
  Si  Si7  1  0.91743346  0.71539051  0.68024076  1
  Si  Si8  1  0.26612515  0.07851418  0.83418045  1
  Si  Si9  1  0.07398162  0.27397279  0.32253359  1
  Os  Os0  1  0.00009087  0.99833346  0.75110391  1
  Os  Os1  1  0.55248593  0.25767043  0.59576835  1
  Os  Os2  1  0.26199096  0.56023896  0.08787135  1
  Os  Os3  1  0.45031390  0.74238030  0.40380728  1
loop_
_geom_bond_atom_site_label_1
_geom_bond_atom_site_label_2
_geom_bond_distance
_geom_bond_site_symmetry_2
Lu0 Si9 2.876129 1_556
Lu0 Si9 2.902154 1_555
Lu0 Si5 2.971633 1_455
Lu0 Si0 2.987273 1_456
Lu0 Si8 2.991160 1_555
Lu0 Os2 3.010024 1_555
Lu0 Os2 3.011063 1_556
Lu0 Mn1 3.111743 1_455
Lu0 Os3 3.113418 1_555
Lu0 Si1 3.113611 1_555
Lu0 Si4 3.119458 1_555
Lu0 Si3 3.158752 1_555
Lu0 Si2 3.160313 1_555
Lu0 Si7 3.161426 1_455
Lu1 Si6 2.862685 1_555
Lu1 Si6 2.897702 1_556
Lu1 Si7 2.987848 1_555
Lu1 Os3 3.005833 1_556
Lu1 Os3 3.012464 1_555
Lu1 Si0 3.038197 1_565
Lu1 Si5 3.039800 1_565
Lu1 Os1 3.069271 1_565
Lu1 Si2 3.075894 1_556
Lu1 Si3 3.082464 1_555
Lu1 Os2 3.112407 1_556
Lu1 Mn0 3.297717 1_555
Lu1 Si4 3.301744 1_556
Lu1 Os0 3.310836 1_655
Lu1 Si1 3.328239 1_555
Lu1 Si8 3.329051 1_565
Lu2 Si7 2.852609 1_555
Lu2 Si7 2.873069 1_554
Lu2 Si6 3.009709 1_555
Lu2 Mn1 3.015708 1_555
Lu2 Si1 3.017891 1_654
Lu2 Mn1 3.021766 1_554
Lu2 Si4 3.029956 1_655
Lu2 Si2 3.036692 1_555
Lu2 Si3 3.043110 1_555
Lu2 Os1 3.080897 1_555
Lu2 Si0 3.103775 1_555
Lu2 Si5 3.106122 1_555
Lu2 Os2 3.114654 1_655
Lu2 Si9 3.195634 1_655
Lu3 Si8 2.862997 1_554
Lu3 Si8 2.913322 1_555
Lu3 Si9 2.987823 1_555
Lu3 Os1 2.996195 1_555
Lu3 Os1 3.001184 1_554
Lu3 Mn1 3.035699 1_554
Lu3 Si1 3.036398 1_545
Lu3 Si4 3.043332 1_545
Lu3 Si2 3.044096 1_555
Lu3 Si3 3.053123 1_554
Lu3 Os3 3.121514 1_545
Lu3 Si0 3.254953 1_555
Lu3 Si5 3.279229 1_554
Lu3 Os0 3.328611 1_545
Lu3 Si6 3.330191 1_545
Lu3 Mn0 3.335719 1_445
Mn0 Si6 2.408029 1_555
Mn0 Si8 2.414956 1_664
Mn0 Si9 2.448645 1_665
Mn0 Si4 2.492077 1_655
Mn0 Si7 2.492465 1_555
Mn0 Si0 2.538891 1_565
Mn0 Os0 2.677251 1_655
Mn0 Os0 2.709051 1_654
Mn1 Si7 2.285499 1_555
Mn1 Si5 2.307945 1_555
Mn1 Si0 2.308508 1_556
Mn1 Si3 2.337578 1_555
Mn1 Si2 2.340980 1_556
Si0 Si9 2.476609 1_655
Si0 Si6 2.541445 1_545
Si0 Si5 2.682356 1_554
Si0 Si5 2.704034 1_555
Si1 Si7 2.491490 1_455
Si1 Si8 2.603590 1_565
Si4 Si7 2.496500 1_455
Si4 Si8 2.549887 1_564
Si5 Si9 2.479598 1_655
Si5 Si6 2.566813 1_546
Os0 Si6 2.429700 1_456
Os0 Si8 2.436098 1_565
Os0 Si9 2.476413 1_565
Os0 Si1 2.477921 1_555
Os0 Si7 2.525337 1_455
Os0 Si5 2.531174 1_465
Os1 Si8 2.321917 1_555
Os1 Si0 2.415533 1_555
Os1 Si3 2.415762 1_555
Os1 Si2 2.421112 1_555
Os1 Si5 2.421886 1_555
Os2 Si9 2.341145 1_555
Os2 Si4 2.380557 1_555
Os2 Si1 2.386393 1_554
Os2 Si3 2.434509 1_554
Os2 Si2 2.440372 1_555
Os3 Si6 2.310893 1_555
Os3 Si4 2.426896 1_555
Os3 Si1 2.428557 1_555
Os3 Si3 2.436117 1_555
Os3 Si2 2.444521 1_555
