# generated using pymatgen
data_RbNiPdF5
_symmetry_space_group_name_H-M   'P 1'
_cell_length_a   7.13990154
_cell_length_b   7.14048773
_cell_length_c   7.13921802
_cell_angle_alpha   129.46337885
_cell_angle_beta   117.08091527
_cell_angle_gamma   84.78530608
_symmetry_Int_Tables_number   1
_chemical_formula_structural   RbNiPdF5
_chemical_formula_sum   'Rb2 Ni2 Pd2 F10'
_cell_volume   239.53736900
_cell_formula_units_Z   2
loop_
 _symmetry_equiv_pos_site_id
 _symmetry_equiv_pos_as_xyz
  1  'x, y, z'
loop_
 _atom_site_type_symbol
 _atom_site_label
 _atom_site_symmetry_multiplicity
 _atom_site_fract_x
 _atom_site_fract_y
 _atom_site_fract_z
 _atom_site_occupancy
  Rb  Rb0  1  0.85530356  0.60528674  0.24997863  1
  Rb  Rb1  1  0.14469644  0.39471326  0.75002137  1
  Ni  Ni0  1  0.00000000  0.00000000  0.00000000  1
  Ni  Ni1  1  0.50000000  0.00000000  0.50000000  1
  Pd  Pd0  1  0.50000000  0.00000000  0.00000000  1
  Pd  Pd1  1  0.50000000  0.50000000  0.50000000  1
  F  F0  1  0.44452506  0.63840295  0.31807775  1
  F  F1  1  0.55530306  0.87328421  0.19361464  1
  F  F2  1  0.17966113  0.36161505  0.30623441  1
  F  F3  1  0.82033905  0.12656778  0.18199532  1
  F  F4  1  0.55547494  0.36159705  0.68192225  1
  F  F5  1  0.44469694  0.12671579  0.80638536  1
  F  F6  1  0.82086577  0.07079859  0.74995742  1
  F  F7  1  0.17913423  0.92920141  0.25004258  1
  F  F8  1  0.17966095  0.87343222  0.81800468  1
  F  F9  1  0.82033887  0.63838495  0.69376559  1
loop_
_geom_bond_atom_site_label_1
_geom_bond_atom_site_label_2
_geom_bond_distance
_geom_bond_site_symmetry_2
F0 Pd1 1.977990 1_555
F0 Ni1 1.991249 1_565
F0 Rb1 2.803491 1_554
F0 Rb0 3.149662 1_555
F1 Pd0 1.978175 1_565
F1 Ni1 1.991162 1_565
F1 Rb0 2.803738 1_555
F1 Rb1 3.148425 1_554
F2 Pd1 1.978314 1_555
F2 Ni0 1.991275 1_555
F2 Rb0 2.803737 1_455
F2 Rb1 3.148626 1_555
F3 Pd0 1.978255 1_555
F3 Ni0 1.991119 1_655
F3 Rb1 2.803480 1_655
F3 Rb0 3.149353 1_555
F4 Pd1 1.977990 1_555
F4 Ni1 1.991249 1_555
F4 Rb0 2.803491 1_556
F4 Rb1 3.149662 1_555
F5 Pd0 1.978175 1_556
F5 Ni1 1.991162 1_555
F5 Rb1 2.803738 1_555
F5 Rb0 3.148425 1_556
F6 Ni0 2.007196 1_656
F6 Ni1 2.007469 1_555
F6 Rb0 3.068989 1_545
F6 Rb0 3.069582 1_556
F6 Rb1 3.415439 1_655
F7 Ni0 2.007196 1_565
F7 Ni1 2.007469 1_565
F7 Rb1 3.068989 1_565
F7 Rb1 3.069582 1_554
F7 Rb0 3.415439 1_455
F8 Pd0 1.978255 1_566
F8 Ni0 1.991119 1_566
F8 Rb0 2.803480 1_455
F8 Rb1 3.149353 1_555
F9 Pd1 1.978314 1_555
F9 Ni0 1.991275 1_666
F9 Rb1 2.803737 1_655
F9 Rb0 3.148626 1_555
