# generated using pymatgen
data_CaHf5(Be2Ir5)2
_symmetry_space_group_name_H-M   'P 1'
_cell_length_a   9.59605429
_cell_length_b   9.59605429
_cell_length_c   3.22728295
_cell_angle_alpha   90.00000000
_cell_angle_beta   90.00000000
_cell_angle_gamma   89.61500186
_symmetry_Int_Tables_number   1
_chemical_formula_structural   CaHf5(Be2Ir5)2
_chemical_formula_sum   'Ca1 Hf5 Be4 Ir10'
_cell_volume   297.17524684
_cell_formula_units_Z   1
loop_
 _symmetry_equiv_pos_site_id
 _symmetry_equiv_pos_as_xyz
  1  'x, y, z'
loop_
 _atom_site_type_symbol
 _atom_site_label
 _atom_site_symmetry_multiplicity
 _atom_site_fract_x
 _atom_site_fract_y
 _atom_site_fract_z
 _atom_site_occupancy
  Ca  Ca0  1  0.17582662  0.67582662  0.00000000  1
  Hf  Hf0  1  0.32420764  0.17497442  0.00000000  1
  Hf  Hf1  1  0.82475934  0.32475934  0.00000000  1
  Hf  Hf2  1  0.49631019  0.50085804  0.00000000  1
  Hf  Hf3  1  0.67497442  0.82420764  0.00000000  1
  Hf  Hf4  1  0.00085804  0.99631019  0.00000000  1
  Be  Be0  1  0.38316089  0.88316089  0.00000000  1
  Be  Be1  1  0.11626063  0.37779885  0.00000000  1
  Be  Be2  1  0.87779885  0.61626063  0.00000000  1
  Be  Be3  1  0.62226038  0.12226038  0.00000000  1
  Ir  Ir0  1  0.22469259  0.94583109  0.50000000  1
  Ir  Ir1  1  0.91434030  0.78374829  0.50000000  1
  Ir  Ir2  1  0.44583109  0.72469259  0.50000000  1
  Ir  Ir3  1  0.57404299  0.28572419  0.50000000  1
  Ir  Ir4  1  0.71270809  0.56742454  0.50000000  1
  Ir  Ir5  1  0.28374829  0.41434030  0.50000000  1
  Ir  Ir6  1  0.06742454  0.21270809  0.50000000  1
  Ir  Ir7  1  0.98982704  0.48982704  0.50000000  1
  Ir  Ir8  1  0.50524686  0.00524686  0.50000000  1
  Ir  Ir9  1  0.78572419  0.07404299  0.50000000  1
loop_
_geom_bond_atom_site_label_1
_geom_bond_atom_site_label_2
_geom_bond_distance
_geom_bond_site_symmetry_2
Ca0 Ir7 3.003018 1_454
Ca0 Ir7 3.003018 1_455
Ca0 Ir0 3.090828 1_554
Ca0 Ir2 3.090828 1_555
Ca0 Ir2 3.090828 1_554
Ca0 Ir0 3.090828 1_555
Ca0 Ir1 3.152412 1_455
Ca0 Ir1 3.152412 1_454
Ca0 Ir5 3.152412 1_555
Ca0 Ir5 3.152412 1_554
Hf0 Ir5 2.831723 1_554
Hf0 Ir5 2.831723 1_555
Hf0 Ir8 2.869949 1_555
Hf0 Ir8 2.869949 1_554
Hf0 Ir0 2.894655 1_544
Hf0 Ir0 2.894655 1_545
Hf0 Ir6 2.965598 1_554
Hf0 Ir6 2.965598 1_555
Hf0 Ir3 3.084676 1_554
Hf0 Ir3 3.084676 1_555
Hf1 Ir7 2.766886 1_554
Hf1 Ir7 2.766886 1_555
Hf1 Ir3 2.923108 1_555
Hf1 Ir9 2.923108 1_555
Hf1 Ir9 2.923108 1_554
Hf1 Ir3 2.923108 1_554
Hf1 Ir6 3.024709 1_655
Hf1 Ir6 3.024709 1_654
Hf1 Ir4 3.024709 1_554
Hf1 Ir4 3.024709 1_555
Hf2 Ir4 2.709580 1_554
Hf2 Ir4 2.709580 1_555
Hf2 Ir3 2.720560 1_555
Hf2 Ir3 2.720560 1_554
Hf2 Ir2 2.727287 1_554
Hf2 Ir2 2.727287 1_555
Hf2 Ir5 2.734315 1_555
Hf2 Ir5 2.734315 1_554
Hf3 Ir1 2.831723 1_555
Hf3 Ir1 2.831723 1_554
Hf3 Ir8 2.869949 1_565
Hf3 Ir8 2.869949 1_564
Hf3 Ir2 2.894655 1_555
Hf3 Ir2 2.894655 1_554
Hf3 Ir4 2.965598 1_554
Hf3 Ir4 2.965598 1_555
Hf3 Ir9 3.084676 1_564
Hf3 Ir9 3.084676 1_565
Hf4 Ir6 2.709580 1_565
Hf4 Ir6 2.709580 1_564
Hf4 Ir9 2.720560 1_464
Hf4 Ir9 2.720560 1_465
Hf4 Ir0 2.727287 1_555
Hf4 Ir0 2.727287 1_554
Hf4 Ir1 2.734315 1_455
Hf4 Ir1 2.734315 1_454
Be0 Ir0 2.294701 1_555
Be0 Ir0 2.294701 1_554
Be0 Ir2 2.294701 1_555
Be0 Ir2 2.294701 1_554
Be0 Ir8 2.316746 1_565
Be0 Ir8 2.316746 1_564
Be0 Ca0 2.823144 1_555
Be0 Hf0 2.853103 1_565
Be0 Hf3 2.853103 1_555
Be1 Ir7 2.283420 1_454
Be1 Ir7 2.283420 1_455
Be1 Ir5 2.305977 1_555
Be1 Ir5 2.305977 1_554
Be1 Ir6 2.311533 1_555
Be1 Ir6 2.311533 1_554
Be1 Hf0 2.778102 1_555
Be1 Hf1 2.846552 1_455
Be1 Ca0 2.920217 1_555
Be2 Ir7 2.283420 1_554
Be2 Ir7 2.283420 1_555
Be2 Ir1 2.305977 1_554
Be2 Ir1 2.305977 1_555
Be2 Ir4 2.311533 1_554
Be2 Ir4 2.311533 1_555
Be2 Hf3 2.778102 1_555
Be2 Hf1 2.846552 1_555
Be2 Ca0 2.920217 1_655
Be3 Ir8 2.267697 1_554
Be3 Ir8 2.267697 1_555
Be3 Ir9 2.295366 1_555
Be3 Ir3 2.295366 1_554
Be3 Ir9 2.295366 1_554
Be3 Ir3 2.295366 1_555
Be3 Hf1 2.757304 1_555
Be3 Hf3 2.901169 1_545
Be3 Hf0 2.901169 1_555
