# generated using pymatgen
data_Mn4Nb2O9
_symmetry_space_group_name_H-M   'P 1'
_cell_length_a   5.29740804
_cell_length_b   14.35623460
_cell_length_c   5.29741313
_cell_angle_alpha   90.00004999
_cell_angle_beta   119.99963830
_cell_angle_gamma   90.00004803
_symmetry_Int_Tables_number   1
_chemical_formula_structural   Mn4Nb2O9
_chemical_formula_sum   'Mn8 Nb4 O18'
_cell_volume   348.89924604
_cell_formula_units_Z   2
loop_
 _symmetry_equiv_pos_site_id
 _symmetry_equiv_pos_as_xyz
  1  'x, y, z'
loop_
 _atom_site_type_symbol
 _atom_site_label
 _atom_site_symmetry_multiplicity
 _atom_site_fract_x
 _atom_site_fract_y
 _atom_site_fract_z
 _atom_site_occupancy
  Mn  Mn0  1  0.33333171  0.69712021  0.66666622  1
  Mn  Mn1  1  0.33333515  0.19708403  0.66666823  1
  Mn  Mn2  1  0.33334008  0.98354501  0.66666966  1
  Mn  Mn3  1  0.33333020  0.48358565  0.66666341  1
  Mn  Mn4  1  0.66666534  0.80288697  0.33333111  1
  Mn  Mn5  1  0.66666866  0.30289499  0.33333469  1
  Mn  Mn6  1  0.66666929  0.51644917  0.33333839  1
  Mn  Mn7  1  0.66666325  0.01641706  0.33332935  1
  Nb  Nb0  1  -0.00000226  0.85823898  -0.00000459  1
  Nb  Nb1  1  -0.00000175  0.64176897  0.00000116  1
  Nb  Nb2  1  0.00000327  0.14177496  0.00000166  1
  Nb  Nb3  1  0.00000063  0.35822640  0.00000148  1
  O  O0  1  0.28270605  0.75000504  0.28270983  1
  O  O1  1  0.71728452  0.75000521  -0.00000591  1
  O  O2  1  0.00000001  0.75000478  0.71728796  1
  O  O3  1  0.71727923  0.24999602  0.71728180  1
  O  O4  1  0.28272425  0.24999579  -0.00000047  1
  O  O5  1  0.00000624  0.24999592  0.28272677  1
  O  O6  1  0.65861002  0.58485532  0.68398285  1
  O  O7  1  0.02536778  0.58485548  0.34138942  1
  O  O8  1  0.31601542  0.58485505  0.97462954  1
  O  O9  1  0.34138477  0.91515289  0.02536286  1
  O  O10  1  0.97463060  0.91515291  0.31601454  1
  O  O11  1  0.68397886  0.91515335  0.65861005  1
  O  O12  1  0.31598680  0.08483205  0.34136115  1
  O  O13  1  0.02537715  0.08483249  0.68401500  1
  O  O14  1  0.65864141  0.08483272  0.97462648  1
  O  O15  1  0.68401466  0.41516211  0.02537951  1
  O  O16  1  0.97462627  0.41516207  0.65863919  1
  O  O17  1  0.34136339  0.41516240  0.31598767  1
loop_
_geom_bond_atom_site_label_1
_geom_bond_atom_site_label_2
_geom_bond_distance
_geom_bond_site_symmetry_2
Mn0 O2 2.059097 1_555
Mn0 O1 2.059100 1_556
Mn0 O0 2.059110 1_555
Mn0 O6 2.327470 1_555
Mn0 O7 2.327473 1_555
Mn0 O8 2.327479 1_555
Mn1 O4 2.059207 1_556
Mn1 O5 2.059213 1_555
Mn1 O3 2.059213 1_555
Mn1 O13 2.327383 1_555
Mn1 O14 2.327395 1_555
Mn1 O12 2.327395 1_555
Mn2 O11 2.120229 1_555
Mn2 O9 2.120244 1_556
Mn2 O10 2.120304 1_455
Mn2 O14 2.221300 1_565
Mn2 O12 2.221303 1_565
Mn2 O13 2.221319 1_565
Mn3 O16 2.120547 1_455
Mn3 O17 2.120549 1_555
Mn3 O15 2.120599 1_556
Mn3 O6 2.221084 1_555
Mn3 O7 2.221087 1_555
Mn3 O8 2.221095 1_555
Mn4 O1 2.059101 1_555
Mn4 O2 2.059113 1_655
Mn4 O0 2.059114 1_555
Mn4 O10 2.327491 1_555
Mn4 O11 2.327492 1_555
Mn4 O9 2.327504 1_555
Mn5 O5 2.059162 1_655
Mn5 O4 2.059164 1_555
Mn5 O3 2.059168 1_555
Mn5 O15 2.327528 1_555
Mn5 O16 2.327543 1_555
Mn5 O17 2.327545 1_555
Mn6 O7 2.120346 1_655
Mn6 O6 2.120352 1_555
Mn6 O8 2.120394 1_554
Mn6 O17 2.221292 1_555
Mn6 O16 2.221297 1_555
Mn6 O15 2.221298 1_555
Mn7 O12 2.120494 1_555
Mn7 O14 2.120498 1_554
Mn7 O13 2.120539 1_655
Mn7 O11 2.221042 1_545
Mn7 O9 2.221047 1_545
Mn7 O10 2.221051 1_545
Nb0 O10 1.926960 1_455
Nb0 O9 1.926963 1_555
Nb0 O11 1.926971 1_454
Nb0 O2 2.158073 1_554
Nb0 O1 2.158082 1_455
Nb0 O0 2.158088 1_555
Nb1 O8 1.926963 1_554
Nb1 O7 1.926965 1_555
Nb1 O6 1.926970 1_454
Nb1 O0 2.158095 1_555
Nb1 O1 2.158101 1_455
Nb1 O2 2.158112 1_554
Nb2 O13 1.926997 1_554
Nb2 O14 1.926999 1_454
Nb2 O12 1.927001 1_555
Nb2 O4 2.157983 1_555
Nb2 O5 2.157991 1_555
Nb2 O3 2.157994 1_454
Nb3 O15 1.926963 1_455
Nb3 O16 1.926966 1_454
Nb3 O17 1.926970 1_555
Nb3 O3 2.158082 1_454
Nb3 O5 2.158088 1_555
Nb3 O4 2.158096 1_555
