# generated using pymatgen
data_Hf6Al16Pd2Rh5
_symmetry_space_group_name_H-M   'P 1'
_cell_length_a   8.64163994
_cell_length_b   8.64165320
_cell_length_c   8.66015734
_cell_angle_alpha   59.92912294
_cell_angle_beta   59.92936590
_cell_angle_gamma   60.14139877
_symmetry_Int_Tables_number   1
_chemical_formula_structural   Hf6Al16Pd2Rh5
_chemical_formula_sum   'Hf6 Al16 Pd2 Rh5'
_cell_volume   457.29814629
_cell_formula_units_Z   1
loop_
 _symmetry_equiv_pos_site_id
 _symmetry_equiv_pos_as_xyz
  1  'x, y, z'
loop_
 _atom_site_type_symbol
 _atom_site_label
 _atom_site_symmetry_multiplicity
 _atom_site_fract_x
 _atom_site_fract_y
 _atom_site_fract_z
 _atom_site_occupancy
  Hf  Hf0  1  0.68962379  0.31037489  0.31037228  1
  Hf  Hf1  1  0.31037575  0.68962524  0.68962528  1
  Hf  Hf2  1  0.31038882  0.68963675  0.31035936  1
  Hf  Hf3  1  0.32582643  0.32580228  0.67419584  1
  Hf  Hf4  1  0.68961105  0.31036304  0.68963833  1
  Hf  Hf5  1  0.67417311  0.67419744  0.32580185  1
  Al  Al0  1  0.33544907  0.33545026  0.33715522  1
  Al  Al1  1  0.33545193  0.33544451  0.99195793  1
  Al  Al2  1  0.99195815  0.33714218  0.33545393  1
  Al  Al3  1  0.33714500  0.99196518  0.33544460  1
  Al  Al4  1  0.66455485  0.66454409  0.66285849  1
  Al  Al5  1  0.66454824  0.66455584  0.00803991  1
  Al  Al6  1  0.66285492  0.00803499  0.66456225  1
  Al  Al7  1  0.00804195  0.66285780  0.66454319  1
  Al  Al8  1  0.12226925  0.12226187  0.11348948  1
  Al  Al9  1  0.12225951  0.12226254  0.64198472  1
  Al  Al10  1  0.64197744  0.11349060  0.12226141  1
  Al  Al11  1  0.11349385  0.64198197  0.12225750  1
  Al  Al12  1  0.87773067  0.87773811  0.88650741  1
  Al  Al13  1  0.87774019  0.87773717  0.35801325  1
  Al  Al14  1  0.88650546  0.35801885  0.87773968  1
  Al  Al15  1  0.35801887  0.88651107  0.87774207  1
  Pd  Pd0  1  0.99999998  0.99999993  0.49999881  1
  Pd  Pd1  1  0.49999905  0.50000048  0.00000005  1
  Rh  Rh0  1  0.99999998  0.00000006  0.99999885  1
  Rh  Rh1  1  0.50000002  0.99999992  0.99999884  1
  Rh  Rh2  1  0.99999974  0.50000005  0.49999888  1
  Rh  Rh3  1  0.99999986  0.50000007  0.99999878  1
  Rh  Rh4  1  0.50000005  0.99999979  0.49999877  1
loop_
_geom_bond_atom_site_label_1
_geom_bond_atom_site_label_2
_geom_bond_distance
_geom_bond_site_symmetry_2
Hf0 Rh4 3.137117 1_545
Hf0 Rh3 3.137134 1_554
Hf0 Hf3 3.147333 1_555
Hf0 Hf5 3.147338 1_555
Hf0 Pd1 3.149815 1_555
Hf0 Pd0 3.149844 1_545
Hf1 Rh4 3.137116 1_555
Hf1 Rh3 3.137133 1_455
Hf1 Hf5 3.147333 1_555
Hf1 Hf3 3.147341 1_555
Hf1 Pd1 3.149827 1_556
Hf1 Pd0 3.149841 1_455
Hf2 Rh1 3.136975 1_554
Hf2 Rh2 3.137278 1_455
Hf2 Hf5 3.147108 1_555
Hf2 Hf3 3.147539 1_555
Hf2 Pd1 3.149823 1_555
Hf2 Pd0 3.149857 1_455
Hf3 Hf4 3.147111 1_555
Hf3 Rh1 3.198222 1_545
Hf3 Rh4 3.198367 1_545
Hf3 Rh3 3.198378 1_455
Hf3 Rh2 3.198496 1_455
Hf4 Rh1 3.136974 1_545
Hf4 Rh2 3.137277 1_555
Hf4 Hf5 3.147539 1_555
Hf4 Pd1 3.149845 1_556
Hf4 Pd0 3.149857 1_545
Hf5 Rh1 3.198220 1_554
Hf5 Rh4 3.198366 1_555
Hf5 Rh3 3.198377 1_554
Hf5 Rh2 3.198497 1_555
Al0 Rh2 2.494485 1_455
Al0 Rh4 2.494487 1_545
Al0 Pd1 2.502234 1_555
Al0 Hf3 2.837816 1_555
Al0 Hf0 2.854278 1_555
Al0 Hf2 2.854391 1_555
Al1 Rh1 2.494481 1_545
Al1 Rh3 2.494534 1_455
Al1 Pd1 2.502183 1_556
Al1 Hf3 2.837733 1_555
Al1 Hf4 2.854223 1_555
Al1 Hf1 2.854369 1_555
Al2 Rh2 2.494486 1_555
Al2 Rh3 2.494566 1_554
Al2 Pd0 2.502158 1_545
Al2 Hf5 2.837928 1_555
Al2 Hf0 2.854387 1_555
Al2 Hf4 2.854451 1_555
Al3 Rh4 2.494494 1_555
Al3 Rh1 2.494518 1_554
Al3 Pd0 2.502198 1_455
Al3 Hf5 2.837733 1_555
Al3 Hf2 2.854303 1_555
Al3 Hf1 2.854399 1_555
Al4 Rh2 2.494486 1_555
Al4 Rh4 2.494560 1_555
Al4 Pd1 2.502162 1_556
Al4 Hf5 2.837950 1_555
Al4 Hf1 2.854353 1_555
Al4 Hf4 2.854417 1_555
Al5 Rh1 2.494477 1_554
Al5 Rh3 2.494530 1_554
Al5 Pd1 2.502182 1_555
Al5 Hf5 2.837726 1_555
Al5 Hf2 2.854224 1_555
Al5 Hf0 2.854369 1_555
Al6 Rh1 2.494449 1_545
Al6 Rh4 2.494566 1_545
Al6 Pd0 2.502197 1_545
Al6 Hf3 2.837733 1_555
Al6 Hf4 2.854254 1_555
Al6 Hf0 2.854445 1_555
Al7 Rh2 2.494484 1_455
Al7 Rh3 2.494569 1_455
Al7 Pd0 2.502157 1_455
Al7 Hf3 2.837927 1_555
Al7 Hf1 2.854385 1_555
Al7 Hf2 2.854447 1_555
Al8 Rh0 2.528164 1_454
Al8 Rh1 2.670001 1_544
Al8 Rh3 2.670051 1_454
Al8 Pd0 2.731284 1_445
Al8 Hf2 3.140831 1_545
Al8 Hf0 3.140966 1_455
Al8 Hf3 3.213995 1_554
Al9 Rh0 2.528117 1_455
Al9 Rh2 2.670048 1_455
Al9 Rh4 2.670072 1_545
Al9 Pd0 2.731270 1_445
Al9 Hf1 3.140917 1_545
Al9 Hf4 3.140976 1_455
Al9 Hf3 3.214137 1_555
Al10 Rh0 2.528165 1_554
Al10 Rh1 2.670005 1_544
Al10 Rh4 2.670060 1_545
Al10 Pd1 2.731272 1_555
Al10 Hf4 3.140835 1_554
Al10 Hf0 3.140949 1_555
Al10 Hf5 3.213979 1_545
Al11 Rh0 2.528131 1_464
Al11 Rh3 2.670034 1_454
Al11 Rh2 2.670088 1_455
Al11 Pd1 2.731243 1_555
Al11 Hf1 3.140893 1_554
Al11 Hf2 3.141006 1_555
Al11 Hf5 3.214149 1_455
Al12 Rh0 2.528171 1_565
Al12 Rh1 2.670000 1_555
Al12 Rh3 2.670050 1_555
Al12 Pd0 2.731278 1_555
Al12 Hf4 3.140829 1_565
Al12 Hf1 3.140963 1_655
Al12 Hf5 3.214001 1_556
Al13 Rh0 2.528119 1_564
Al13 Rh2 2.670045 1_555
Al13 Rh4 2.670069 1_555
Al13 Pd0 2.731270 1_555
Al13 Hf0 3.140919 1_565
Al13 Hf2 3.140977 1_655
Al13 Hf5 3.214140 1_555
Al14 Rh0 2.528136 1_555
Al14 Rh3 2.670035 1_555
Al14 Rh2 2.670083 1_555
Al14 Pd1 2.731251 1_556
Al14 Hf0 3.140894 1_556
Al14 Hf4 3.141004 1_555
Al14 Hf3 3.214149 1_655
Al15 Rh0 2.528139 1_465
Al15 Rh1 2.669979 1_555
Al15 Rh4 2.670103 1_555
Al15 Pd1 2.731278 1_556
Al15 Hf2 3.140798 1_556
Al15 Hf1 3.140986 1_555
Al15 Hf3 3.213971 1_565
