# generated using pymatgen
data_Zr6ZnAgN2
_symmetry_space_group_name_H-M   'P 1'
_cell_length_a   6.04140709
_cell_length_b   6.04140693
_cell_length_c   8.98410191
_cell_angle_alpha   90.00000000
_cell_angle_beta   90.00000000
_cell_angle_gamma   147.87421120
_symmetry_Int_Tables_number   1
_chemical_formula_structural   Zr6ZnAgN2
_chemical_formula_sum   'Zr6 Zn1 Ag1 N2'
_cell_volume   174.37439276
_cell_formula_units_Z   1
loop_
 _symmetry_equiv_pos_site_id
 _symmetry_equiv_pos_as_xyz
  1  'x, y, z'
loop_
 _atom_site_type_symbol
 _atom_site_label
 _atom_site_symmetry_multiplicity
 _atom_site_fract_x
 _atom_site_fract_y
 _atom_site_fract_z
 _atom_site_occupancy
  Zr  Zr0  1  0.62547941  0.37452059  0.95680180  1
  Zr  Zr1  1  0.37557995  0.62442005  0.44768316  1
  Zr  Zr2  1  0.37557995  0.62442005  0.05231684  1
  Zr  Zr3  1  0.62547941  0.37452059  0.54319820  1
  Zr  Zr4  1  0.95503864  0.04496136  0.75000000  1
  Zr  Zr5  1  0.04947877  0.95052123  0.25000000  1
  Zn  Zn0  1  0.74293264  0.25706736  0.25000000  1
  Ag  Ag0  1  0.25162182  0.74837818  0.75000000  1
  N  N0  1  0.99940421  0.00059579  0.00145799  1
  N  N1  1  0.99940421  0.00059579  0.49854201  1
loop_
_geom_bond_atom_site_label_1
_geom_bond_atom_site_label_2
_geom_bond_distance
_geom_bond_site_symmetry_2
Zn0 Zr5 2.799953 1_655
Zn0 Zr5 2.799953 1_545
Zn0 Zr1 2.884550 1_545
Zn0 Zr2 2.884550 1_545
Zn0 Zr1 2.884551 1_655
Zn0 Zr2 2.884551 1_655
Zn0 Zr3 2.966217 1_555
Zn0 Zr0 2.966217 1_554
Ag0 Zr4 2.893580 1_455
Ag0 Zr4 2.893580 1_565
Ag0 Zr0 2.896788 1_565
Ag0 Zr3 2.896788 1_565
Ag0 Zr0 2.896788 1_455
Ag0 Zr3 2.896788 1_455
Ag0 Zr2 3.073834 1_556
Ag0 Zr1 3.073834 1_555
N0 Zr2 2.251697 1_655
N0 Zr2 2.251697 1_545
N0 Zr0 2.257910 1_544
N0 Zr0 2.257910 1_654
N0 Zr5 2.307382 1_645
N0 Zr4 2.317111 1_554
N1 Zr1 2.251697 1_655
N1 Zr1 2.251697 1_545
N1 Zr3 2.257910 1_545
N1 Zr3 2.257910 1_655
N1 Zr5 2.307382 1_645
N1 Zr4 2.317111 1_555
