# generated using pymatgen
data_NiB2MoW
_symmetry_space_group_name_H-M   'P 1'
_cell_length_a   4.49492993
_cell_length_b   4.49493119
_cell_length_c   4.49493146
_cell_angle_alpha   138.49392716
_cell_angle_beta   119.25872724
_cell_angle_gamma   76.25272875
_symmetry_Int_Tables_number   1
_chemical_formula_structural   NiB2MoW
_chemical_formula_sum   'Ni1 B2 Mo1 W1'
_cell_volume   51.19552043
_cell_formula_units_Z   1
loop_
 _symmetry_equiv_pos_site_id
 _symmetry_equiv_pos_as_xyz
  1  'x, y, z'
loop_
 _atom_site_type_symbol
 _atom_site_label
 _atom_site_symmetry_multiplicity
 _atom_site_fract_x
 _atom_site_fract_y
 _atom_site_fract_z
 _atom_site_occupancy
  Ni  Ni0  1  0.00000958  0.00000958  1.00000000  1
  B  B0  1  0.70326713  0.50002748  0.20323965  1
  B  B1  1  0.29678682  0.50002748  0.79675935  1
  Mo  Mo0  1  0.29977351  0.79977351  0.50000000  1
  W  W0  1  0.70016296  0.20016296  0.50000000  1
loop_
_geom_bond_atom_site_label_1
_geom_bond_atom_site_label_2
_geom_bond_distance
_geom_bond_site_symmetry_2
Ni0 W0 2.652027 1_456
Ni0 W0 2.652027 1_445
Ni0 W0 2.677356 1_556
Ni0 W0 2.677357 1_455
B0 B1 1.847534 1_554
B0 Ni0 2.087143 1_654
B0 Ni0 2.087143 1_665
B0 W0 2.322353 1_565
B0 W0 2.322353 1_554
B0 Mo0 2.322864 1_555
B0 Mo0 2.322864 1_544
B0 Mo0 2.512523 1_655
B0 W0 2.513231 1_555
B1 Ni0 2.087140 1_565
B1 Ni0 2.087140 1_554
B1 W0 2.322355 1_555
B1 W0 2.322355 1_566
B1 Mo0 2.322866 1_545
B1 Mo0 2.322866 1_556
B1 Mo0 2.512522 1_555
B1 W0 2.513228 1_455
Mo0 Ni0 2.651559 1_565
Mo0 Ni0 2.651559 1_554
Mo0 Ni0 2.677666 1_665
Mo0 Ni0 2.677666 1_564
Mo0 W0 2.831508 1_565
Mo0 W0 2.863170 1_465
Mo0 W0 2.863171 1_555
Mo0 W0 2.863171 1_454
Mo0 W0 2.863171 1_566
