# generated using pymatgen
data_RbSc(SbAu)2
_symmetry_space_group_name_H-M   'P 1'
_cell_length_a   4.49910267
_cell_length_b   4.49910322
_cell_length_c   19.32576002
_cell_angle_alpha   90.00000000
_cell_angle_beta   90.00000000
_cell_angle_gamma   120.00001002
_symmetry_Int_Tables_number   1
_chemical_formula_structural   RbSc(SbAu)2
_chemical_formula_sum   'Rb2 Sc2 Sb4 Au4'
_cell_volume   338.78098855
_cell_formula_units_Z   2
loop_
 _symmetry_equiv_pos_site_id
 _symmetry_equiv_pos_as_xyz
  1  'x, y, z'
loop_
 _atom_site_type_symbol
 _atom_site_label
 _atom_site_symmetry_multiplicity
 _atom_site_fract_x
 _atom_site_fract_y
 _atom_site_fract_z
 _atom_site_occupancy
  Rb  Rb0  1  0.00000000  0.00000000  0.50000000  1
  Rb  Rb1  1  0.00000000  0.00000000  0.00000000  1
  Sc  Sc0  1  0.00000000  0.00000000  0.25000000  1
  Sc  Sc1  1  0.00000000  0.00000000  0.75000000  1
  Sb  Sb0  1  0.33333300  0.66666700  0.36156578  1
  Sb  Sb1  1  0.66666700  0.33333300  0.63843422  1
  Sb  Sb2  1  0.66666700  0.33333300  0.86156578  1
  Sb  Sb3  1  0.33333300  0.66666700  0.13843422  1
  Au  Au0  1  0.66666700  0.33333300  0.32532042  1
  Au  Au1  1  0.33333300  0.66666700  0.67467958  1
  Au  Au2  1  0.33333300  0.66666700  0.82532042  1
  Au  Au3  1  0.66666700  0.33333300  0.17467958  1
loop_
_geom_bond_atom_site_label_1
_geom_bond_atom_site_label_2
_geom_bond_distance
_geom_bond_site_symmetry_2
Rb0 Sb1 3.728911 1_455
Rb0 Sb0 3.728911 1_545
Rb0 Sb1 3.728913 1_555
Rb0 Sb0 3.728913 1_445
Rb0 Sb1 3.728913 1_445
Rb0 Sb0 3.728913 1_555
Rb1 Sb3 3.728911 1_545
Rb1 Sb2 3.728911 1_454
Rb1 Sb3 3.728913 1_445
Rb1 Sb2 3.728913 1_554
Rb1 Sb3 3.728913 1_555
Rb1 Sb2 3.728913 1_444
Sb0 Sc0 3.375801 1_565
Sb0 Sc0 3.375804 1_665
Sb0 Sc0 3.375804 1_555
Sb1 Sc1 3.375801 1_655
Sb1 Sc1 3.375804 1_555
Sb1 Sc1 3.375804 1_665
Sb2 Sc1 3.375801 1_655
Sb2 Sc1 3.375804 1_555
Sb2 Sc1 3.375804 1_665
Sb3 Sc0 3.375801 1_565
Sb3 Sc0 3.375804 1_665
Sb3 Sc0 3.375804 1_555
Au0 Sb0 2.690344 1_655
Au0 Sb0 2.690344 1_545
Au0 Sb0 2.690352 1_555
Au0 Sc0 2.977606 1_655
Au0 Sc0 2.977609 1_555
Au0 Sc0 2.977609 1_665
Au1 Sb1 2.690344 1_455
Au1 Sb1 2.690344 1_565
Au1 Sb1 2.690352 1_555
Au1 Sc1 2.977606 1_565
Au1 Sc1 2.977609 1_665
Au1 Sc1 2.977609 1_555
Au2 Sb2 2.690344 1_455
Au2 Sb2 2.690344 1_565
Au2 Sb2 2.690352 1_555
Au2 Sc1 2.977606 1_565
Au2 Sc1 2.977609 1_665
Au2 Sc1 2.977609 1_555
Au3 Sb3 2.690344 1_655
Au3 Sb3 2.690344 1_545
Au3 Sb3 2.690352 1_555
Au3 Sc0 2.977606 1_655
Au3 Sc0 2.977609 1_555
Au3 Sc0 2.977609 1_665
