# generated using pymatgen
data_K6Si2Se7
_symmetry_space_group_name_H-M   'P 1'
_cell_length_a   11.12675780
_cell_length_b   8.17186698
_cell_length_c   13.18361625
_cell_angle_alpha   55.27314859
_cell_angle_beta   90.00000000
_cell_angle_gamma   90.00000000
_symmetry_Int_Tables_number   1
_chemical_formula_structural   K6Si2Se7
_chemical_formula_sum   'K12 Si4 Se14'
_cell_volume   985.21584596
_cell_formula_units_Z   2
loop_
 _symmetry_equiv_pos_site_id
 _symmetry_equiv_pos_as_xyz
  1  'x, y, z'
loop_
 _atom_site_type_symbol
 _atom_site_label
 _atom_site_symmetry_multiplicity
 _atom_site_fract_x
 _atom_site_fract_y
 _atom_site_fract_z
 _atom_site_occupancy
  K  K0  1  0.54256002  0.42168691  0.20156233  1
  K  K1  1  0.04013171  0.54987338  0.31586011  1
  K  K2  1  0.92919041  0.00634941  0.89806647  1
  K  K3  1  0.07080959  0.00634941  0.39806647  1
  K  K4  1  0.72186190  0.80835282  0.40818173  1
  K  K5  1  0.27813810  0.80835282  0.90818173  1
  K  K6  1  0.76550479  0.15691323  0.58726496  1
  K  K7  1  0.23449521  0.15691323  0.08726496  1
  K  K8  1  0.57816921  0.00771243  0.06731243  1
  K  K9  1  0.42183079  0.00771243  0.56731243  1
  K  K10  1  0.95986829  0.54987338  0.81586011  1
  K  K11  1  0.45743998  0.42168691  0.70156233  1
  Si  Si0  1  0.39131290  0.68117481  0.35545940  1
  Si  Si1  1  0.88008727  0.33399101  0.13519401  1
  Si  Si2  1  0.11991273  0.33399101  0.63519401  1
  Si  Si3  1  0.60868710  0.68117481  0.85545940  1
  Se  Se0  1  0.68406730  0.70318525  0.69032997  1
  Se  Se1  1  0.54111982  0.45944642  0.44174312  1
  Se  Se2  1  0.76399492  0.62205552  0.99583078  1
  Se  Se3  1  0.23600508  0.62205552  0.49583078  1
  Se  Se4  1  0.06495889  0.47337135  0.09321152  1
  Se  Se5  1  0.93504111  0.47337135  0.59321152  1
  Se  Se6  1  0.87007296  0.07497624  0.11760732  1
  Se  Se7  1  0.12992704  0.07497624  0.61760732  1
  Se  Se8  1  0.81847525  0.24885922  0.32196280  1
  Se  Se9  1  0.18152475  0.24885922  0.82196280  1
  Se  Se10  1  0.45888018  0.45944642  0.94174312  1
  Se  Se11  1  0.44155470  0.98185199  0.31400906  1
  Se  Se12  1  0.31593270  0.70318525  0.19032997  1
  Se  Se13  1  0.55844530  0.98185199  0.81400906  1
loop_
_geom_bond_atom_site_label_1
_geom_bond_atom_site_label_2
_geom_bond_distance
_geom_bond_site_symmetry_2
K0 Se11 3.210730 1_545
K0 Se2 3.323893 1_554
K0 Se1 3.351876 1_555
K0 Se12 3.359183 1_555
K0 Se8 3.374201 1_555
K0 Se10 3.389836 1_554
K1 Se4 3.342744 1_555
K1 Se12 3.370984 1_555
K1 Se8 3.451748 1_455
K1 Se3 3.510265 1_555
K1 Se5 3.538881 1_455
K2 Se2 3.207855 1_545
K2 Se9 3.248325 1_655
K2 Se6 3.312663 1_556
K2 Se5 3.639616 1_555
K2 Se4 3.886413 1_646
K3 Se3 3.207855 1_545
K3 Se8 3.248325 1_455
K3 Se7 3.312663 1_555
K3 Se4 3.639616 1_555
K3 Se5 3.886413 1_445
K4 Se8 3.277811 1_565
K4 Se1 3.306403 1_555
K4 Se0 3.333115 1_555
K4 Se11 3.357631 1_555
K4 Se5 3.385614 1_555
K4 Se6 3.554209 1_565
K5 Se9 3.277811 1_565
K5 Se10 3.306403 1_555
K5 Se12 3.333115 1_556
K5 Se13 3.357631 1_555
K5 Se4 3.385614 1_556
K5 Se7 3.554209 1_565
K6 Se8 3.186103 1_555
K6 Se5 3.237788 1_555
K6 Se1 3.259178 1_555
K6 Se0 3.267285 1_545
K6 Se13 3.379083 1_545
K7 Se9 3.186103 1_554
K7 Se4 3.237788 1_555
K7 Se10 3.259178 1_554
K7 Se12 3.267285 1_545
K7 Se11 3.379083 1_545
K8 Se10 3.341693 1_554
K8 Se6 3.421429 1_555
K8 Se13 3.471142 1_544
K8 Se11 3.485688 1_545
K8 Se12 3.569130 1_545
K9 Se1 3.341693 1_555
K9 Se7 3.421429 1_555
K9 Se11 3.471142 1_545
K9 Se13 3.485688 1_545
K9 Se0 3.569130 1_545
K10 Se5 3.342744 1_555
K10 Se0 3.370984 1_555
K10 Se9 3.451748 1_655
K10 Se2 3.510265 1_555
K10 Se4 3.538881 1_656
K11 Se13 3.210730 1_545
K11 Se3 3.323893 1_555
K11 Se10 3.351876 1_555
K11 Se0 3.359183 1_555
K11 Se9 3.374201 1_555
K11 Se1 3.389836 1_555
Se0 Si3 2.242554 1_555
Se1 Si0 2.237681 1_555
Se2 Si3 2.371865 1_555
Se2 Si1 2.378661 1_556
Se3 Si0 2.371865 1_555
Se3 Si2 2.378661 1_555
Se4 Si1 2.262023 1_455
Se5 Si2 2.262023 1_655
Se6 Si1 2.259523 1_555
Se7 Si2 2.259523 1_555
Se8 Si1 2.250592 1_555
Se9 Si2 2.250592 1_555
Se10 Si3 2.237681 1_555
Se11 Si0 2.262444 1_555
Se12 Si0 2.242554 1_555
Se13 Si3 2.262444 1_555
