# generated using pymatgen
data_Ta3Zn3C
_symmetry_space_group_name_H-M   'P 1'
_cell_length_a   8.25259339
_cell_length_b   8.25259345
_cell_length_c   8.25259388
_cell_angle_alpha   119.97541065
_cell_angle_beta   120.02378457
_cell_angle_gamma   90.00069929
_symmetry_Int_Tables_number   1
_chemical_formula_structural   Ta3Zn3C
_chemical_formula_sum   'Ta12 Zn12 C4'
_cell_volume   397.42842858
_cell_formula_units_Z   4
loop_
 _symmetry_equiv_pos_site_id
 _symmetry_equiv_pos_as_xyz
  1  'x, y, z'
loop_
 _atom_site_type_symbol
 _atom_site_label
 _atom_site_symmetry_multiplicity
 _atom_site_fract_x
 _atom_site_fract_y
 _atom_site_fract_z
 _atom_site_occupancy
  Ta  Ta0  1  0.55528400  0.05528400  0.50000000  1
  Ta  Ta1  1  0.19467200  0.69467200  0.50000000  1
  Ta  Ta2  1  0.19449137  0.05509891  0.49997757  1
  Ta  Ta3  1  0.55512235  0.69451481  0.50002243  1
  Ta  Ta4  1  0.55512235  0.05509891  0.86060754  1
  Ta  Ta5  1  0.19449137  0.69451481  0.13939246  1
  Ta  Ta6  1  0.94453655  0.94453655  1.00000000  1
  Ta  Ta7  1  0.30521327  0.30521327  0.00000000  1
  Ta  Ta8  1  0.30546878  0.94491510  0.00020606  1
  Ta  Ta9  1  0.94471104  0.30526372  0.99979394  1
  Ta  Ta10  1  0.94471104  0.94491510  0.63944733  1
  Ta  Ta11  1  0.30546878  0.30526372  0.36055267  1
  Zn  Zn0  1  0.75029186  0.50024089  0.25004997  1
  Zn  Zn1  1  0.25019092  0.50024089  0.74995003  1
  Zn  Zn2  1  0.75004312  0.49999027  0.74994715  1
  Zn  Zn3  1  0.75004312  0.00009596  0.25005285  1
  Zn  Zn4  1  0.95713991  0.29324396  0.66389594  1
  Zn  Zn5  1  0.62934602  0.29324396  0.33610406  1
  Zn  Zn6  1  0.95717399  0.29297740  0.33580341  1
  Zn  Zn7  1  0.95717399  0.62137058  0.66419659  1
  Zn  Zn8  1  0.54326632  0.70699114  0.83627517  1
  Zn  Zn9  1  0.87071597  0.70699114  0.16372483  1
  Zn  Zn10  1  0.54288889  0.70710751  0.16421861  1
  Zn  Zn11  1  0.54288889  0.37867028  0.83578139  1
  C  C0  1  0.24987919  0.99988904  0.24999115  1
  C  C1  1  0.74989789  0.99988904  0.75000885  1
  C  C2  1  0.24988452  0.99990778  0.75002327  1
  C  C3  1  0.24988452  0.49986125  0.24997673  1
loop_
_geom_bond_atom_site_label_1
_geom_bond_atom_site_label_2
_geom_bond_distance
_geom_bond_site_symmetry_2
Ta0 Zn10 2.775869 1_545
Ta0 Zn11 2.775869 1_555
Ta0 Zn2 3.069935 1_555
Ta0 Zn3 3.069935 1_555
Ta0 Zn5 3.088835 1_555
Ta0 Zn4 3.088842 1_555
Ta1 Zn8 2.777868 1_555
Ta1 Zn9 2.777868 1_455
Ta1 Zn0 3.066096 1_455
Ta1 Zn1 3.066103 1_555
Ta1 Zn6 3.085519 1_455
Ta1 Zn7 3.085519 1_455
Ta2 Zn9 2.776098 1_445
Ta2 Zn11 2.776451 1_555
Ta2 Zn3 3.067107 1_455
Ta2 Zn1 3.072532 1_555
Ta2 Zn4 3.086142 1_455
Ta2 Zn6 3.086683 1_455
Ta3 Zn8 2.776106 1_555
Ta3 Zn10 2.776443 1_555
Ta3 Zn2 3.067113 1_555
Ta3 Zn0 3.072534 1_555
Ta3 Zn5 3.086139 1_555
Ta3 Zn7 3.086679 1_555
Ta4 Zn8 2.776098 1_545
Ta4 Zn11 2.776451 1_555
Ta4 Zn3 3.067107 1_556
Ta4 Zn0 3.072532 1_556
Ta4 Zn5 3.086153 1_556
Ta4 Zn6 3.086680 1_556
Ta5 Zn9 2.776098 1_455
Ta5 Zn10 2.776451 1_555
Ta5 Zn2 3.067107 1_454
Ta5 Zn1 3.072532 1_554
Ta5 Zn4 3.086146 1_454
Ta5 Zn7 3.086680 1_454
Ta6 Zn6 2.776200 1_566
Ta6 Zn7 2.776200 1_555
Ta6 Zn2 3.068227 1_555
Ta6 Zn3 3.068227 1_566
Ta6 Zn8 3.083874 1_555
Ta6 Zn9 3.083874 1_556
Ta7 Zn5 2.776242 1_555
Ta7 Zn4 2.776250 1_454
Ta7 Zn1 3.071813 1_554
Ta7 Zn0 3.071820 1_555
Ta7 Zn10 3.087461 1_555
Ta7 Zn11 3.087461 1_554
Ta8 Zn7 2.775894 1_454
Ta8 Zn5 2.777464 1_565
Ta8 Zn3 3.067726 1_565
Ta8 Zn1 3.069865 1_554
Ta8 Zn10 3.085949 1_555
Ta8 Zn8 3.088571 1_554
Ta9 Zn6 2.775906 1_556
Ta9 Zn4 2.777459 1_555
Ta9 Zn2 3.067722 1_555
Ta9 Zn0 3.069871 1_556
Ta9 Zn11 3.085960 1_555
Ta9 Zn9 3.088571 1_556
Ta10 Zn7 2.775889 1_555
Ta10 Zn4 2.777475 1_565
Ta10 Zn3 3.067733 1_565
Ta10 Zn0 3.069867 1_555
Ta10 Zn10 3.085960 1_555
Ta10 Zn9 3.088571 1_555
Ta11 Zn6 2.775897 1_455
Ta11 Zn5 2.777450 1_555
Ta11 Zn2 3.067728 1_555
Ta11 Zn1 3.069873 1_555
Ta11 Zn11 3.085960 1_555
Ta11 Zn8 3.088571 1_555
Zn0 Zn9 2.515845 1_555
Zn0 Zn5 2.517993 1_555
Zn0 Zn11 2.518130 1_554
Zn0 Zn10 2.518134 1_555
Zn0 Zn6 2.518323 1_555
Zn0 Zn7 2.518328 1_555
Zn1 Zn8 2.515850 1_555
Zn1 Zn4 2.517980 1_455
Zn1 Zn11 2.518130 1_555
Zn1 Zn10 2.518130 1_556
Zn1 Zn7 2.518328 1_455
Zn1 Zn6 2.518328 1_455
Zn2 Zn8 2.517600 1_555
Zn2 Zn9 2.517601 1_556
Zn2 Zn5 2.517986 1_555
Zn2 Zn4 2.517990 1_555
Zn2 Zn7 2.518920 1_555
Zn3 Zn9 2.517600 1_545
Zn3 Zn8 2.517601 1_544
Zn3 Zn4 2.517990 1_555
Zn3 Zn5 2.517999 1_555
Zn3 Zn6 2.518920 1_555
Zn4 Zn5 2.704169 1_555
Zn4 Zn7 2.706657 1_555
Zn4 Zn6 2.706657 1_555
Zn5 Zn7 2.706665 1_555
Zn5 Zn6 2.706673 1_555
Zn6 Zn7 2.711103 1_555
Zn8 Zn9 2.701337 1_556
Zn10 Zn3 2.519376 1_565
Zn10 Zn9 2.707464 1_555
Zn10 Zn8 2.707464 1_554
Zn10 Zn11 2.711466 1_554
Zn11 Zn2 2.519376 1_555
Zn11 Zn8 2.707464 1_555
Zn11 Zn9 2.707464 1_556
C0 Ta6 2.161140 1_454
C0 Ta0 2.161439 1_565
C0 Ta5 2.162649 1_555
C0 Ta2 2.162651 1_565
C0 Ta8 2.162730 1_555
C0 Ta11 2.162735 1_565
C1 Ta6 2.161146 1_555
C1 Ta0 2.161433 1_565
C1 Ta4 2.162649 1_565
C1 Ta3 2.162649 1_555
C1 Ta10 2.162735 1_555
C1 Ta9 2.162735 1_565
C2 Ta10 2.160481 1_455
C2 Ta8 2.160495 1_556
C2 Ta2 2.160961 1_565
C2 Ta4 2.160969 1_565
C2 Ta1 2.162351 1_555
C2 Ta7 2.162389 1_566
C3 Ta11 2.160481 1_555
C3 Ta9 2.160481 1_454
C3 Ta5 2.160969 1_555
C3 Ta3 2.160969 1_555
C3 Ta1 2.162351 1_555
C3 Ta7 2.162389 1_555
