# generated using pymatgen
data_Rb2NaTaSe4
_symmetry_space_group_name_H-M   'P 1'
_cell_length_a   13.85755535
_cell_length_b   12.40884173
_cell_length_c   7.83779316
_cell_angle_alpha   83.09703973
_cell_angle_beta   62.74355547
_cell_angle_gamma   34.15940565
_symmetry_Int_Tables_number   1
_chemical_formula_structural   Rb2NaTaSe4
_chemical_formula_sum   'Rb4 Na2 Ta2 Se8'
_cell_volume   575.26933439
_cell_formula_units_Z   2
loop_
 _symmetry_equiv_pos_site_id
 _symmetry_equiv_pos_as_xyz
  1  'x, y, z'
loop_
 _atom_site_type_symbol
 _atom_site_label
 _atom_site_symmetry_multiplicity
 _atom_site_fract_x
 _atom_site_fract_y
 _atom_site_fract_z
 _atom_site_occupancy
  Rb  Rb0  1  0.43115706  0.43115706  0.06884294  1
  Rb  Rb1  1  0.81884294  0.81884294  0.18115706  1
  Rb  Rb2  1  0.06884294  0.06884294  0.43115706  1
  Rb  Rb3  1  0.18115706  0.18115706  0.81884294  1
  Na  Na0  1  0.50000000  0.50000000  0.50000000  1
  Na  Na1  1  0.75000000  0.75000000  0.75000000  1
  Ta  Ta0  1  0.00000000  0.00000000  0.00000000  1
  Ta  Ta1  1  0.25000000  0.25000000  0.25000000  1
  Se  Se0  1  0.75748209  0.35825351  0.04117136  1
  Se  Se1  1  0.84309204  0.04117136  0.35825351  1
  Se  Se2  1  0.04117136  0.84309204  0.75748209  1
  Se  Se3  1  0.35825351  0.75748209  0.84309204  1
  Se  Se4  1  0.49251791  0.89174649  0.20882864  1
  Se  Se5  1  0.89174649  0.49251791  0.40690796  1
  Se  Se6  1  0.20882864  0.40690796  0.49251791  1
  Se  Se7  1  0.40690796  0.20882864  0.89174649  1
loop_
_geom_bond_atom_site_label_1
_geom_bond_atom_site_label_2
_geom_bond_distance
_geom_bond_site_symmetry_2
Rb0 Se7 3.540161 1_554
Rb0 Se6 3.540165 1_555
Rb0 Se0 3.700421 1_555
Rb0 Se3 3.700425 1_554
Rb0 Se2 3.736500 1_644
Rb0 Se1 3.736501 1_465
Rb1 Se1 3.540161 1_565
Rb1 Se2 3.540165 1_654
Rb1 Se4 3.700421 1_555
Rb1 Se5 3.700425 1_555
Rb1 Se6 3.736500 1_565
Rb1 Se7 3.736501 1_654
Rb2 Se5 3.540173 1_455
Rb2 Se4 3.540174 1_545
Rb2 Se2 3.700431 1_545
Rb2 Se1 3.700435 1_455
Rb2 Se0 3.736497 1_456
Rb2 Se3 3.736504 1_544
Rb3 Se3 3.540173 1_545
Rb3 Se0 3.540174 1_456
Rb3 Se6 3.700431 1_555
Rb3 Se7 3.700435 1_555
Rb3 Se4 3.736497 1_545
Rb3 Se5 3.736504 1_456
Na0 Se3 2.852833 1_555
Na0 Se0 2.852839 1_555
Na0 Se1 2.852842 1_555
Na0 Se2 2.852842 1_555
Na1 Se5 2.852833 1_555
Na1 Se4 2.852839 1_556
Na1 Se7 2.852842 1_565
Na1 Se6 2.852842 1_655
Se0 Ta0 2.405701 1_655
Se1 Ta0 2.405703 1_655
Se2 Ta0 2.405709 1_566
Se3 Ta0 2.405698 1_566
Se4 Ta1 2.405701 1_565
Se5 Ta1 2.405698 1_655
Se6 Ta1 2.405709 1_555
Se7 Ta1 2.405703 1_556
