# generated using pymatgen
data_LiInPdRh
_symmetry_space_group_name_H-M   'P 1'
_cell_length_a   4.40458862
_cell_length_b   4.40458835
_cell_length_c   4.40458901
_cell_angle_alpha   60.00000965
_cell_angle_beta   60.00001168
_cell_angle_gamma   59.99999734
_symmetry_Int_Tables_number   1
_chemical_formula_structural   LiInPdRh
_chemical_formula_sum   'Li1 In1 Pd1 Rh1'
_cell_volume   60.42283987
_cell_formula_units_Z   1
loop_
 _symmetry_equiv_pos_site_id
 _symmetry_equiv_pos_as_xyz
  1  'x, y, z'
loop_
 _atom_site_type_symbol
 _atom_site_label
 _atom_site_symmetry_multiplicity
 _atom_site_fract_x
 _atom_site_fract_y
 _atom_site_fract_z
 _atom_site_occupancy
  Li  Li0  1  0.00000000  0.00000000  0.00000000  1
  In  In0  1  0.50000000  0.50000000  0.50000000  1
  Pd  Pd0  1  0.75000000  0.75000000  0.75000000  1
  Rh  Rh0  1  0.25000000  0.25000000  0.25000000  1
loop_
_geom_bond_atom_site_label_1
_geom_bond_atom_site_label_2
_geom_bond_distance
_geom_bond_site_symmetry_2
Li0 Pd0 2.697249 1_444
Li0 Rh0 2.697249 1_555
Li0 Pd0 2.697249 1_454
Li0 Rh0 2.697249 1_545
Li0 Rh0 2.697249 1_455
Li0 Pd0 2.697249 1_544
Li0 Rh0 2.697249 1_554
Li0 Pd0 2.697249 1_445
In0 Pd0 2.697249 1_555
In0 Rh0 2.697249 1_555
In0 Pd0 2.697249 1_545
In0 Rh0 2.697249 1_565
In0 Pd0 2.697249 1_455
In0 Rh0 2.697249 1_655
In0 Rh0 2.697249 1_556
In0 Pd0 2.697249 1_554
