# generated using pymatgen
data_Hf10BeSiPb6
_symmetry_space_group_name_H-M   'P 1'
_cell_length_a   8.64820300
_cell_length_b   8.64820341
_cell_length_c   5.81647788
_cell_angle_alpha   90.00000000
_cell_angle_beta   90.00000000
_cell_angle_gamma   120.00000590
_symmetry_Int_Tables_number   1
_chemical_formula_structural   Hf10BeSiPb6
_chemical_formula_sum   'Hf10 Be1 Si1 Pb6'
_cell_volume   376.74062857
_cell_formula_units_Z   1
loop_
 _symmetry_equiv_pos_site_id
 _symmetry_equiv_pos_as_xyz
  1  'x, y, z'
loop_
 _atom_site_type_symbol
 _atom_site_label
 _atom_site_symmetry_multiplicity
 _atom_site_fract_x
 _atom_site_fract_y
 _atom_site_fract_z
 _atom_site_occupancy
  Hf  Hf0  1  0.66666700  0.33333300  0.50000000  1
  Hf  Hf1  1  0.33333300  0.66666700  0.50000000  1
  Hf  Hf2  1  0.33333300  0.66666700  0.00000000  1
  Hf  Hf3  1  0.66666700  0.33333300  0.00000000  1
  Hf  Hf4  1  0.74894169  0.74894169  0.25914940  1
  Hf  Hf5  1  0.25105831  1.00000000  0.25914940  1
  Hf  Hf6  1  1.00000000  0.25105831  0.25914940  1
  Hf  Hf7  1  0.25105831  0.25105831  0.74085060  1
  Hf  Hf8  1  0.74894169  0.00000000  0.74085060  1
  Hf  Hf9  1  0.00000000  0.74894169  0.74085060  1
  Be  Be0  1  0.00000000  0.00000000  0.50000000  1
  Si  Si0  1  0.00000000  0.00000000  0.00000000  1
  Pb  Pb0  1  0.39289234  0.39289234  0.24778206  1
  Pb  Pb1  1  0.60710766  1.00000000  0.24778206  1
  Pb  Pb2  1  1.00000000  0.60710766  0.24778206  1
  Pb  Pb3  1  0.60710766  0.60710766  0.75221794  1
  Pb  Pb4  1  0.39289234  0.00000000  0.75221794  1
  Pb  Pb5  1  0.00000000  0.39289234  0.75221794  1
loop_
_geom_bond_atom_site_label_1
_geom_bond_atom_site_label_2
_geom_bond_distance
_geom_bond_site_symmetry_2
Hf0 Pb5 3.040190 1_655
Hf0 Pb1 3.040190 1_545
Hf0 Pb2 3.040193 1_555
Hf0 Pb4 3.040193 1_555
Hf0 Pb0 3.040198 1_555
Hf0 Pb3 3.040198 1_555
Hf1 Pb2 3.040190 1_455
Hf1 Pb4 3.040190 1_565
Hf1 Pb5 3.040193 1_555
Hf1 Pb1 3.040193 1_555
Hf1 Pb3 3.040198 1_555
Hf1 Pb0 3.040198 1_555
Hf2 Pb2 3.027824 1_455
Hf2 Pb4 3.027824 1_564
Hf2 Pb5 3.027827 1_554
Hf2 Pb1 3.027827 1_555
Hf2 Pb3 3.027832 1_554
Hf2 Pb0 3.027832 1_555
Hf3 Pb5 3.027824 1_654
Hf3 Pb1 3.027824 1_545
Hf3 Pb2 3.027827 1_555
Hf3 Pb4 3.027827 1_554
Hf3 Pb0 3.027832 1_555
Hf3 Pb3 3.027832 1_554
Hf4 Si0 2.643140 1_665
Hf4 Pb2 2.980987 1_555
Hf4 Pb1 2.980987 1_555
Hf4 Pb0 3.079897 1_555
Hf4 Pb3 3.119222 1_555
Hf4 Pb3 3.193517 1_554
Hf5 Si0 2.643140 1_565
Hf5 Pb2 2.980987 1_455
Hf5 Pb0 2.980987 1_565
Hf5 Pb1 3.079897 1_555
Hf5 Pb4 3.119223 1_565
Hf5 Pb4 3.193517 1_564
Hf6 Si0 2.643140 1_655
Hf6 Pb1 2.980987 1_545
Hf6 Pb0 2.980987 1_655
Hf6 Pb2 3.079897 1_555
Hf6 Pb5 3.119223 1_655
Hf6 Pb5 3.193517 1_654
Hf7 Si0 2.643140 1_556
Hf7 Pb5 2.980987 1_555
Hf7 Pb4 2.980987 1_555
Hf7 Pb3 3.079897 1_555
Hf7 Pb0 3.119222 1_555
Hf7 Pb0 3.193517 1_556
Hf8 Si0 2.643140 1_656
Hf8 Pb5 2.980987 1_655
Hf8 Pb3 2.980987 1_545
Hf8 Pb4 3.079897 1_555
Hf8 Pb1 3.119223 1_545
Hf8 Pb1 3.193517 1_546
Hf9 Si0 2.643140 1_566
Hf9 Pb4 2.980987 1_565
Hf9 Pb3 2.980987 1_455
Hf9 Pb5 3.079897 1_555
Hf9 Pb2 3.119223 1_455
Hf9 Pb2 3.193517 1_456
Be0 Hf7 2.583921 1_555
Be0 Hf4 2.583921 1_445
Be0 Hf8 2.583922 1_455
Be0 Hf5 2.583922 1_545
Be0 Hf9 2.583922 1_545
Be0 Hf6 2.583922 1_455
