# generated using pymatgen
data_Mg4SbPd8Au3
_symmetry_space_group_name_H-M   'P 1'
_cell_length_a   5.84788578
_cell_length_b   5.84747849
_cell_length_c   7.47858520
_cell_angle_alpha   90.00000000
_cell_angle_beta   90.00053915
_cell_angle_gamma   90.00000000
_symmetry_Int_Tables_number   1
_chemical_formula_structural   Mg4SbPd8Au3
_chemical_formula_sum   'Mg4 Sb1 Pd8 Au3'
_cell_volume   255.73311021
_cell_formula_units_Z   1
loop_
 _symmetry_equiv_pos_site_id
 _symmetry_equiv_pos_as_xyz
  1  'x, y, z'
loop_
 _atom_site_type_symbol
 _atom_site_label
 _atom_site_symmetry_multiplicity
 _atom_site_fract_x
 _atom_site_fract_y
 _atom_site_fract_z
 _atom_site_occupancy
  Mg  Mg0  1  0.25000939  0.25000000  0.00000347  1
  Mg  Mg1  1  0.74997331  0.75000000  0.00000409  1
  Mg  Mg2  1  0.75002102  0.75000000  0.49999544  1
  Mg  Mg3  1  0.24996915  0.25000000  0.49999641  1
  Sb  Sb0  1  0.74996788  0.25000000  0.00000173  1
  Pd  Pd0  1  0.50110188  0.00102213  0.24616314  1
  Pd  Pd1  1  0.50110188  0.49897487  0.24616314  1
  Pd  Pd2  1  0.99889839  0.00101658  0.24605851  1
  Pd  Pd3  1  0.99889839  0.49898742  0.24605851  1
  Pd  Pd4  1  0.99889799  0.00100967  0.75394123  1
  Pd  Pd5  1  0.99889799  0.49898733  0.75394123  1
  Pd  Pd6  1  0.50110116  0.00102404  0.75383806  1
  Pd  Pd7  1  0.50110116  0.49897996  0.75383806  1
  Au  Au0  1  0.25005710  0.75000000  0.00000668  1
  Au  Au1  1  0.75005938  0.25000000  0.49999463  1
  Au  Au2  1  0.24994393  0.75000000  0.49999366  1
loop_
_geom_bond_atom_site_label_1
_geom_bond_atom_site_label_2
_geom_bond_distance
_geom_bond_site_symmetry_2
Mg0 Pd2 2.768085 1_455
Mg0 Pd3 2.768098 1_455
Mg0 Pd5 2.768116 1_454
Mg0 Pd4 2.768125 1_454
Mg0 Pd1 2.768504 1_555
Mg0 Pd0 2.768513 1_555
Mg0 Pd6 2.768552 1_554
Mg0 Pd7 2.768564 1_554
Mg0 Sb0 2.923700 1_555
Mg0 Sb0 2.924186 1_455
Mg1 Pd3 2.767578 1_555
Mg1 Pd2 2.767591 1_565
Mg1 Pd4 2.767628 1_564
Mg1 Pd5 2.767638 1_554
Mg1 Pd0 2.767982 1_565
Mg1 Pd1 2.767991 1_555
Mg1 Pd7 2.767994 1_554
Mg1 Pd6 2.768006 1_564
Mg1 Sb0 2.923739 1_555
Mg1 Sb0 2.923739 1_565
Mg2 Pd0 2.806601 1_565
Mg2 Pd1 2.806610 1_555
Mg2 Pd7 2.806667 1_555
Mg2 Pd6 2.806680 1_565
Mg2 Pd3 2.806993 1_555
Mg2 Pd2 2.807005 1_565
Mg2 Pd4 2.807009 1_565
Mg2 Pd5 2.807018 1_555
Mg3 Pd1 2.807132 1_555
Mg3 Pd0 2.807142 1_555
Mg3 Pd6 2.807157 1_555
Mg3 Pd7 2.807169 1_555
Mg3 Pd2 2.807479 1_455
Mg3 Pd3 2.807492 1_455
Mg3 Pd5 2.807546 1_455
Mg3 Pd4 2.807555 1_455
Pd0 Sb0 2.761656 1_555
Pd1 Sb0 2.761647 1_555
Pd2 Sb0 2.761332 1_555
Pd3 Sb0 2.761345 1_555
Pd4 Sb0 2.761389 1_556
Pd5 Sb0 2.761380 1_556
Pd6 Sb0 2.761646 1_556
Pd7 Sb0 2.761658 1_556
Au0 Pd3 2.774476 1_455
Au0 Pd2 2.774489 1_465
Au0 Pd4 2.774518 1_464
Au0 Pd5 2.774527 1_454
Au0 Pd0 2.774654 1_565
Au0 Pd1 2.774663 1_555
Au0 Pd7 2.774724 1_554
Au0 Pd6 2.774736 1_564
Au0 Mg1 2.923453 1_555
Au0 Mg0 2.923739 1_565
Au0 Mg0 2.923739 1_555
Au0 Mg1 2.924433 1_455
Au1 Pd1 2.800471 1_555
Au1 Pd0 2.800480 1_555
Au1 Pd6 2.800556 1_555
Au1 Pd7 2.800568 1_555
Au1 Pd2 2.800686 1_555
Au1 Pd3 2.800698 1_555
Au1 Pd5 2.800731 1_555
Au1 Pd4 2.800740 1_555
Au1 Mg3 2.923415 1_655
Au1 Mg2 2.923739 1_545
Au1 Mg2 2.923739 1_555
Au1 Mg3 2.924471 1_555
Au2 Pd0 2.813423 1_565
Au2 Pd1 2.813432 1_555
Au2 Pd7 2.813466 1_555
Au2 Pd6 2.813478 1_565
Au2 Pd3 2.813560 1_455
Au2 Pd2 2.813572 1_465
Au2 Pd4 2.813634 1_465
Au2 Pd5 2.813643 1_455
Au2 Mg2 2.923492 1_455
Au2 Mg3 2.923739 1_565
Au2 Mg3 2.923739 1_555
Au2 Mg2 2.924394 1_555
