# generated using pymatgen
data_HgBi3(Pt2O7)2
_symmetry_space_group_name_H-M   'P 1'
_cell_length_a   7.25669511
_cell_length_b   7.25669577
_cell_length_c   7.25669510
_cell_angle_alpha   61.32761163
_cell_angle_beta   61.32760514
_cell_angle_gamma   61.32760125
_symmetry_Int_Tables_number   1
_chemical_formula_structural   HgBi3(Pt2O7)2
_chemical_formula_sum   'Hg1 Bi3 Pt4 O14'
_cell_volume   278.27246138
_cell_formula_units_Z   1
loop_
 _symmetry_equiv_pos_site_id
 _symmetry_equiv_pos_as_xyz
  1  'x, y, z'
loop_
 _atom_site_type_symbol
 _atom_site_label
 _atom_site_symmetry_multiplicity
 _atom_site_fract_x
 _atom_site_fract_y
 _atom_site_fract_z
 _atom_site_occupancy
  Hg  Hg0  1  0.12500000  0.12500000  0.12500000  1
  Bi  Bi0  1  0.12500000  0.12500000  0.62500000  1
  Bi  Bi1  1  0.12500000  0.62500000  0.12500000  1
  Bi  Bi2  1  0.62500000  0.12500000  0.12500000  1
  Pt  Pt0  1  0.62500000  0.62500000  0.12500000  1
  Pt  Pt1  1  0.62500000  0.12500000  0.62500000  1
  Pt  Pt2  1  0.12500000  0.62500000  0.62500000  1
  Pt  Pt3  1  0.62500000  0.62500000  0.62500000  1
  O  O0  1  0.24881271  0.24881271  0.24881271  1
  O  O1  1  0.00118729  0.00118729  0.00118729  1
  O  O2  1  0.54174903  0.95567216  0.54174903  1
  O  O3  1  0.29518546  0.69969544  0.29518546  1
  O  O4  1  0.54174903  0.54174903  0.95567216  1
  O  O5  1  0.95567216  0.54174903  0.54174903  1
  O  O6  1  0.55030456  0.95481454  0.95481454  1
  O  O7  1  0.95481454  0.95481454  0.55030456  1
  O  O8  1  0.95481454  0.55030456  0.95481454  1
  O  O9  1  0.69969544  0.29518546  0.29518546  1
  O  O10  1  0.29432784  0.70825097  0.70825097  1
  O  O11  1  0.70825097  0.29432784  0.70825097  1
  O  O12  1  0.29518546  0.29518546  0.69969544  1
  O  O13  1  0.70825097  0.70825097  0.29432784  1
loop_
_geom_bond_atom_site_label_1
_geom_bond_atom_site_label_2
_geom_bond_distance
_geom_bond_site_symmetry_2
Hg0 O0 2.178455 1_555
Hg0 O1 2.178455 1_555
Hg0 O9 2.593088 1_455
Hg0 O6 2.593088 1_544
Hg0 O7 2.593088 1_445
Hg0 O12 2.593088 1_554
Hg0 O8 2.593089 1_454
Hg0 O3 2.593089 1_545
Bi0 O1 2.265857 1_556
Bi0 O0 2.265857 1_555
Bi0 O7 2.468297 1_445
Bi0 O12 2.468297 1_555
Bi0 O2 2.532577 1_545
Bi0 O11 2.532577 1_455
Bi0 O5 2.532577 1_455
Bi0 O10 2.532577 1_545
Bi1 O1 2.265857 1_565
Bi1 O0 2.265857 1_555
Bi1 O3 2.468297 1_555
Bi1 O8 2.468297 1_454
Bi1 O4 2.532577 1_554
Bi1 O13 2.532577 1_455
Bi1 O5 2.532577 1_455
Bi1 O10 2.532577 1_554
Bi2 O1 2.265856 1_655
Bi2 O0 2.265856 1_555
Bi2 O9 2.468297 1_555
Bi2 O6 2.468297 1_544
Bi2 O2 2.532577 1_545
Bi2 O11 2.532577 1_554
Bi2 O4 2.532577 1_554
Bi2 O13 2.532577 1_545
O2 Pt1 2.003670 1_565
O2 Pt3 2.013951 1_555
O3 Pt0 2.026895 1_555
O3 Pt2 2.026895 1_555
O4 Pt0 2.003670 1_556
O4 Pt3 2.013951 1_555
O5 Pt2 2.003670 1_655
O5 Pt3 2.013951 1_555
O6 Pt1 2.026895 1_565
O6 Pt0 2.026895 1_556
O7 Pt1 2.026895 1_565
O7 Pt2 2.026895 1_655
O8 Pt0 2.026895 1_556
O8 Pt2 2.026895 1_655
O9 Pt1 2.026895 1_555
O9 Pt0 2.026895 1_555
O10 Pt2 2.003670 1_555
O10 Pt3 2.013951 1_555
O11 Pt1 2.003670 1_555
O11 Pt3 2.013951 1_555
O12 Pt1 2.026895 1_555
O12 Pt2 2.026895 1_555
O13 Pt0 2.003670 1_555
O13 Pt3 2.013951 1_555
