# generated using pymatgen
data_CaSc2(GaNi2)3
_symmetry_space_group_name_H-M   'P 1'
_cell_length_a   5.08119372
_cell_length_b   5.08119281
_cell_length_c   15.37100867
_cell_angle_alpha   90.00000000
_cell_angle_beta   90.00000000
_cell_angle_gamma   119.99998687
_symmetry_Int_Tables_number   1
_chemical_formula_structural   CaSc2(GaNi2)3
_chemical_formula_sum   'Ca2 Sc4 Ga6 Ni12'
_cell_volume   343.68809128
_cell_formula_units_Z   2
loop_
 _symmetry_equiv_pos_site_id
 _symmetry_equiv_pos_as_xyz
  1  'x, y, z'
loop_
 _atom_site_type_symbol
 _atom_site_label
 _atom_site_symmetry_multiplicity
 _atom_site_fract_x
 _atom_site_fract_y
 _atom_site_fract_z
 _atom_site_occupancy
  Ca  Ca0  1  0.33333300  0.66666700  0.75000000  1
  Ca  Ca1  1  0.66666700  0.33333300  0.25000000  1
  Sc  Sc0  1  0.33333300  0.66666700  0.53967559  1
  Sc  Sc1  1  0.66666700  0.33333300  0.46032441  1
  Sc  Sc2  1  0.66666700  0.33333300  0.03967559  1
  Sc  Sc3  1  0.33333300  0.66666700  0.96032441  1
  Ga  Ga0  1  0.00000000  0.00000000  0.25000000  1
  Ga  Ga1  1  0.00000000  0.00000000  0.75000000  1
  Ga  Ga2  1  0.33333300  0.66666700  0.25000000  1
  Ga  Ga3  1  0.66666700  0.33333300  0.75000000  1
  Ga  Ga4  1  0.00000000  0.00000000  0.00000000  1
  Ga  Ga5  1  0.00000000  0.00000000  0.50000000  1
  Ni  Ni0  1  0.17003920  0.34007539  0.12248476  1
  Ni  Ni1  1  0.82996080  0.65992461  0.87751524  1
  Ni  Ni2  1  0.65992461  0.82996080  0.12248476  1
  Ni  Ni3  1  0.82996080  0.65992461  0.62248476  1
  Ni  Ni4  1  0.34007539  0.17003920  0.87751524  1
  Ni  Ni5  1  0.17003920  0.34007539  0.37751524  1
  Ni  Ni6  1  0.17003920  0.82996080  0.12248476  1
  Ni  Ni7  1  0.34007539  0.17003920  0.62248476  1
  Ni  Ni8  1  0.82996080  0.17003920  0.87751524  1
  Ni  Ni9  1  0.65992461  0.82996080  0.37751524  1
  Ni  Ni10  1  0.82996080  0.17003920  0.62248476  1
  Ni  Ni11  1  0.17003920  0.82996080  0.37751524  1
loop_
_geom_bond_atom_site_label_1
_geom_bond_atom_site_label_2
_geom_bond_distance
_geom_bond_site_symmetry_2
Ca0 Ga1 2.933625 1_565
Ca0 Ga3 2.933625 1_565
Ca0 Ga3 2.933626 1_455
Ca0 Ga1 2.933630 1_555
Ca0 Ga1 2.933630 1_665
Ca0 Ga3 2.933634 1_555
Ca0 Ni4 3.208930 1_555
Ca0 Ni7 3.208930 1_555
Ca0 Ni1 3.208931 1_555
Ca0 Ni3 3.208931 1_555
Ca0 Ni8 3.208935 1_565
Ca0 Ni10 3.208935 1_565
Ca0 Ni8 3.208935 1_455
Ca0 Ni10 3.208935 1_455
Ca0 Ni4 3.208938 1_565
Ca0 Ni7 3.208938 1_565
Ca0 Ni1 3.208939 1_455
Ca0 Ni3 3.208939 1_455
Ca0 Sc3 3.232898 1_555
Ca0 Sc0 3.232898 1_555
Ca1 Ga0 2.933625 1_655
Ca1 Ga2 2.933625 1_545
Ca1 Ga2 2.933626 1_655
Ca1 Ga0 2.933630 1_665
Ca1 Ga0 2.933630 1_555
Ca1 Ga2 2.933634 1_555
Ca1 Ni9 3.208930 1_555
Ca1 Ni2 3.208930 1_555
Ca1 Ni5 3.208931 1_555
Ca1 Ni0 3.208931 1_555
Ca1 Ni11 3.208935 1_545
Ca1 Ni6 3.208935 1_545
Ca1 Ni11 3.208935 1_655
Ca1 Ni6 3.208935 1_655
Ca1 Ni9 3.208938 1_545
Ca1 Ni2 3.208938 1_545
Ca1 Ni5 3.208939 1_655
Ca1 Ni0 3.208939 1_655
Ca1 Sc1 3.232898 1_555
Ca1 Sc2 3.232898 1_555
Sc0 Sc1 3.177081 1_565
Sc0 Sc1 3.177082 1_455
Sc0 Sc1 3.177089 1_555
Sc2 Sc3 3.177081 1_544
Sc2 Sc3 3.177082 1_654
Sc2 Sc3 3.177089 1_554
Ga0 Ni5 2.466011 1_555
Ga0 Ni0 2.466011 1_555
Ga0 Ni9 2.466011 1_445
Ga0 Ni2 2.466011 1_445
Ga0 Ni11 2.466018 1_545
Ga0 Ni6 2.466018 1_545
Ga0 Ga2 2.933625 1_545
Ga0 Ga2 2.933630 1_555
Ga0 Ga2 2.933630 1_445
Ga1 Ni1 2.466011 1_445
Ga1 Ni3 2.466011 1_445
Ga1 Ni4 2.466011 1_555
Ga1 Ni7 2.466011 1_555
Ga1 Ni8 2.466018 1_455
Ga1 Ni10 2.466018 1_455
Ga1 Ga3 2.933625 1_455
Ga1 Ga3 2.933630 1_445
Ga1 Ga3 2.933630 1_555
Ga2 Ni11 2.430451 1_555
Ga2 Ni6 2.430451 1_555
Ga2 Ni5 2.430461 1_555
Ga2 Ni0 2.430461 1_555
Ga2 Ni9 2.430461 1_555
Ga2 Ni2 2.430461 1_555
Ga3 Ni8 2.430451 1_555
Ga3 Ni10 2.430451 1_555
Ga3 Ni1 2.430461 1_555
Ga3 Ni3 2.430461 1_555
Ga3 Ni4 2.430461 1_555
Ga3 Ni7 2.430461 1_555
Ga4 Ni0 2.405010 1_555
Ga4 Ni1 2.405010 1_444
Ga4 Ni2 2.405010 1_445
Ga4 Ni4 2.405010 1_554
Ga4 Ni6 2.405018 1_545
Ga4 Ni8 2.405018 1_454
Ga4 Sc2 2.996344 1_455
Ga4 Sc3 2.996344 1_544
Ga4 Sc3 2.996349 1_554
Ga4 Sc2 2.996349 1_445
Ga4 Sc2 2.996349 1_555
Ga4 Sc3 2.996349 1_444
Ga5 Ni3 2.405010 1_445
Ga5 Ni5 2.405010 1_555
Ga5 Ni7 2.405010 1_555
Ga5 Ni9 2.405010 1_445
Ga5 Ni10 2.405018 1_455
Ga5 Ni11 2.405018 1_545
Ga5 Sc0 2.996344 1_545
Ga5 Sc1 2.996344 1_455
Ga5 Sc0 2.996349 1_555
Ga5 Sc1 2.996349 1_445
Ga5 Sc1 2.996349 1_555
Ga5 Sc0 2.996349 1_445
Ni0 Ni6 2.489202 1_555
Ni0 Ni2 2.489203 1_555
Ni0 Ni6 2.591991 1_545
Ni0 Ni2 2.591991 1_445
Ni0 Sc2 2.841771 1_555
Ni0 Sc2 2.841780 1_455
Ni0 Sc3 2.877202 1_554
Ni1 Ni8 2.489202 1_555
Ni1 Ni4 2.489203 1_555
Ni1 Ni8 2.591991 1_565
Ni1 Ni4 2.591991 1_665
Ni1 Sc3 2.841771 1_555
Ni1 Sc3 2.841780 1_655
Ni1 Sc2 2.877202 1_556
Ni2 Ni6 2.489203 1_555
Ni2 Ni6 2.591991 1_655
Ni2 Sc2 2.841770 1_555
Ni2 Sc2 2.841779 1_565
Ni2 Sc3 2.877202 1_554
Ni3 Ni7 2.489203 1_555
Ni3 Ni7 2.591991 1_665
Ni3 Sc0 2.841771 1_555
Ni3 Sc0 2.841780 1_655
Ni3 Sc1 2.877202 1_555
Ni4 Ni8 2.489203 1_555
Ni4 Ni8 2.591991 1_455
Ni4 Sc3 2.841770 1_555
Ni4 Sc3 2.841779 1_545
Ni4 Sc2 2.877202 1_556
Ni5 Ni9 2.489203 1_555
Ni5 Ni9 2.591991 1_445
Ni5 Sc1 2.841771 1_555
Ni5 Sc1 2.841780 1_455
Ni5 Sc0 2.877202 1_555
Ni6 Sc2 2.841776 1_565
Ni6 Sc2 2.841776 1_455
Ni6 Sc3 2.877193 1_554
Ni7 Sc0 2.841770 1_555
Ni7 Sc0 2.841779 1_545
Ni7 Sc1 2.877202 1_555
Ni8 Sc3 2.841776 1_545
Ni8 Sc3 2.841776 1_655
Ni8 Sc2 2.877193 1_556
Ni9 Sc1 2.841770 1_555
Ni9 Sc1 2.841779 1_565
Ni9 Sc0 2.877202 1_555
Ni10 Ni3 2.489202 1_555
Ni10 Ni7 2.489203 1_555
Ni10 Ni3 2.591991 1_545
Ni10 Ni7 2.591991 1_655
Ni10 Sc0 2.841776 1_545
Ni10 Sc0 2.841776 1_655
Ni10 Sc1 2.877193 1_555
Ni11 Ni5 2.489202 1_555
Ni11 Ni9 2.489203 1_555
Ni11 Ni5 2.591991 1_565
Ni11 Ni9 2.591991 1_455
Ni11 Sc1 2.841776 1_565
Ni11 Sc1 2.841776 1_455
Ni11 Sc0 2.877193 1_555
