# generated using pymatgen
data_CaLuAlSe4
_symmetry_space_group_name_H-M   'P 1'
_cell_length_a   14.34745847
_cell_length_b   8.23427118
_cell_length_c   6.53509481
_cell_angle_alpha   90.00000000
_cell_angle_beta   90.00000000
_cell_angle_gamma   90.00000000
_symmetry_Int_Tables_number   1
_chemical_formula_structural   CaLuAlSe4
_chemical_formula_sum   'Ca4 Lu4 Al4 Se16'
_cell_volume   772.06174612
_cell_formula_units_Z   4
loop_
 _symmetry_equiv_pos_site_id
 _symmetry_equiv_pos_as_xyz
  1  'x, y, z'
loop_
 _atom_site_type_symbol
 _atom_site_label
 _atom_site_symmetry_multiplicity
 _atom_site_fract_x
 _atom_site_fract_y
 _atom_site_fract_z
 _atom_site_occupancy
  Ca  Ca0  1  0.73657059  0.75000100  0.00842477  1
  Ca  Ca1  1  0.23657059  0.75000100  0.49157523  1
  Ca  Ca2  1  0.76342941  0.25000000  0.50842477  1
  Ca  Ca3  1  0.26342941  0.25000000  0.99157423  1
  Lu  Lu0  1  0.00000000  0.00000000  0.00000000  1
  Lu  Lu1  1  0.00000000  0.49999900  0.00000000  1
  Lu  Lu2  1  0.50000000  0.00000000  0.50000000  1
  Lu  Lu3  1  0.50000000  0.49999900  0.50000000  1
  Al  Al0  1  0.58320133  0.25000000  0.09992300  1
  Al  Al1  1  0.08320133  0.25000000  0.40007700  1
  Al  Al2  1  0.91679867  0.75000100  0.59992400  1
  Al  Al3  1  0.41679867  0.75000100  0.90007700  1
  Se  Se0  1  0.91665863  0.75000100  0.23691362  1
  Se  Se1  1  0.15708350  0.01882409  0.25089459  1
  Se  Se2  1  0.15708350  0.48117591  0.25089459  1
  Se  Se3  1  0.93017706  0.25000000  0.24400977  1
  Se  Se4  1  0.43017706  0.25000000  0.25599023  1
  Se  Se5  1  0.65708350  0.01882409  0.24910541  1
  Se  Se6  1  0.65708350  0.48117591  0.24910541  1
  Se  Se7  1  0.41665763  0.75000100  0.26308538  1
  Se  Se8  1  0.58334137  0.25000000  0.73691362  1
  Se  Se9  1  0.34291650  0.51882509  0.75089459  1
  Se  Se10  1  0.34291650  0.98117491  0.75089459  1
  Se  Se11  1  0.56982294  0.75000100  0.74400877  1
  Se  Se12  1  0.06982294  0.75000100  0.75599023  1
  Se  Se13  1  0.84291650  0.51882509  0.74910441  1
  Se  Se14  1  0.84291650  0.98117491  0.74910441  1
  Se  Se15  1  0.08334237  0.25000000  0.76308538  1
loop_
_geom_bond_atom_site_label_1
_geom_bond_atom_site_label_2
_geom_bond_distance
_geom_bond_site_symmetry_2
Ca0 Se5 2.945230 1_565
Ca0 Se6 2.945242 1_555
Ca0 Se11 2.951191 1_554
Ca0 Se14 2.970437 1_554
Ca0 Se13 2.970447 1_554
Ca0 Se0 2.984240 1_555
Ca1 Se1 2.945230 1_565
Ca1 Se2 2.945242 1_555
Ca1 Se12 2.951187 1_555
Ca1 Se10 2.970433 1_555
Ca1 Se9 2.970444 1_555
Ca1 Se7 2.984231 1_555
Ca2 Se13 2.945239 1_555
Ca2 Se14 2.945239 1_545
Ca2 Se3 2.951187 1_555
Ca2 Se6 2.970444 1_555
Ca2 Se5 2.970444 1_555
Ca2 Se8 2.984240 1_555
Ca3 Se9 2.945239 1_555
Ca3 Se10 2.945239 1_545
Ca3 Se4 2.951191 1_556
Ca3 Se2 2.970447 1_556
Ca3 Se1 2.970447 1_556
Ca3 Se15 2.984227 1_555
Lu0 Se12 2.789994 1_544
Lu0 Se3 2.790001 1_455
Lu0 Se1 2.791373 1_555
Lu0 Se14 2.791377 1_444
Lu0 Se0 2.839814 1_445
Lu0 Se15 2.839829 1_554
Lu1 Se3 2.789994 1_455
Lu1 Se12 2.790013 1_554
Lu1 Se2 2.791373 1_555
Lu1 Se13 2.791378 1_454
Lu1 Se15 2.839823 1_554
Lu1 Se0 2.839832 1_455
Lu2 Se11 2.789991 1_545
Lu2 Se4 2.790001 1_555
Lu2 Se5 2.791373 1_555
Lu2 Se10 2.791374 1_545
Lu2 Se8 2.839820 1_555
Lu2 Se7 2.839823 1_545
Lu3 Se4 2.789994 1_555
Lu3 Se11 2.790009 1_555
Lu3 Se6 2.791373 1_555
Lu3 Se9 2.791374 1_555
Lu3 Se8 2.839814 1_555
Lu3 Se7 2.839841 1_555
Al0 Se8 2.372302 1_554
Al0 Se6 2.386981 1_555
Al0 Se5 2.386981 1_555
Al0 Se4 2.420844 1_555
Al1 Se15 2.372295 1_555
Al1 Se2 2.386981 1_555
Al1 Se1 2.386981 1_555
Al1 Se3 2.420844 1_455
Al2 Se0 2.372308 1_555
Al2 Se14 2.386962 1_555
Al2 Se13 2.386975 1_555
Al2 Se12 2.420841 1_655
Al3 Se7 2.372295 1_556
Al3 Se10 2.386967 1_555
Al3 Se9 2.386981 1_555
Al3 Se11 2.420847 1_555
