# generated using pymatgen
data_LiCo7O8
_symmetry_space_group_name_H-M   'P 1'
_cell_length_a   6.01185155
_cell_length_b   6.01185155
_cell_length_c   6.01185155
_cell_angle_alpha   60.00000000
_cell_angle_beta   60.00000000
_cell_angle_gamma   60.00000000
_symmetry_Int_Tables_number   1
_chemical_formula_structural   LiCo7O8
_chemical_formula_sum   'Li1 Co7 O8'
_cell_volume   153.64192746
_cell_formula_units_Z   1
loop_
 _symmetry_equiv_pos_site_id
 _symmetry_equiv_pos_as_xyz
  1  'x, y, z'
loop_
 _atom_site_type_symbol
 _atom_site_label
 _atom_site_symmetry_multiplicity
 _atom_site_fract_x
 _atom_site_fract_y
 _atom_site_fract_z
 _atom_site_occupancy
  Li  Li0  1  0.50000000  0.50000000  0.50000000  1
  Co  Co0  1  0.00000000  0.50000000  0.50000000  1
  Co  Co1  1  0.50000000  0.50000000  0.00000000  1
  Co  Co2  1  0.00000000  0.50000000  0.00000000  1
  Co  Co3  1  0.50000000  0.00000000  0.00000000  1
  Co  Co4  1  0.00000000  0.00000000  0.00000000  1
  Co  Co5  1  0.50000000  0.00000000  0.50000000  1
  Co  Co6  1  0.00000000  0.00000000  0.50000000  1
  O  O0  1  0.75000000  0.75000000  0.75000000  1
  O  O1  1  0.24750400  0.75249600  0.75249600  1
  O  O2  1  0.75249600  0.75249600  0.24750400  1
  O  O3  1  0.75249600  0.24750400  0.75249600  1
  O  O4  1  0.24750400  0.75249600  0.24750400  1
  O  O5  1  0.75249600  0.24750400  0.24750400  1
  O  O6  1  0.24750400  0.24750400  0.75249600  1
  O  O7  1  0.25000000  0.25000000  0.25000000  1
loop_
_geom_bond_atom_site_label_1
_geom_bond_atom_site_label_2
_geom_bond_distance
_geom_bond_site_symmetry_2
Li0 O3 2.146732 1_555
Li0 O1 2.146732 1_555
Li0 O2 2.146732 1_555
Li0 O4 2.146732 1_555
Li0 O5 2.146732 1_555
Li0 O6 2.146732 1_555
Co0 O7 2.125510 1_555
Co0 O0 2.125510 1_455
Co0 O6 2.125616 1_555
Co0 O4 2.125616 1_555
Co0 O3 2.125616 1_455
Co0 O2 2.125616 1_455
Co1 O7 2.125510 1_555
Co1 O0 2.125510 1_554
Co1 O4 2.125616 1_555
Co1 O5 2.125616 1_555
Co1 O3 2.125616 1_554
Co1 O1 2.125616 1_554
Co2 O7 2.125510 1_555
Co2 O0 2.125510 1_454
Co2 O1 2.125616 1_554
Co2 O2 2.125616 1_455
Co2 O6 2.125616 1_554
Co2 O5 2.125616 1_455
Co3 O7 2.125510 1_555
Co3 O0 2.125510 1_544
Co3 O3 2.125616 1_554
Co3 O2 2.125616 1_545
Co3 O4 2.125616 1_545
Co3 O6 2.125616 1_554
Co4 O4 2.104289 1_545
Co4 O6 2.104289 1_554
Co4 O5 2.104289 1_455
Co4 O2 2.104289 1_445
Co4 O3 2.104289 1_454
Co4 O1 2.104289 1_544
Co5 O7 2.125510 1_555
Co5 O0 2.125510 1_545
Co5 O6 2.125616 1_555
Co5 O5 2.125616 1_555
Co5 O1 2.125616 1_545
Co5 O2 2.125616 1_545
Co6 O7 2.125510 1_555
Co6 O0 2.125510 1_445
Co6 O1 2.125616 1_545
Co6 O3 2.125616 1_455
Co6 O4 2.125616 1_545
Co6 O5 2.125616 1_455
