# generated using pymatgen
data_Ca3Ga5
_symmetry_space_group_name_H-M   'P 1'
_cell_length_a   4.44188360
_cell_length_b   5.78840738
_cell_length_c   14.96308132
_cell_angle_alpha   90.00000000
_cell_angle_beta   90.00000000
_cell_angle_gamma   112.56231781
_symmetry_Int_Tables_number   1
_chemical_formula_structural   Ca3Ga5
_chemical_formula_sum   'Ca6 Ga10'
_cell_volume   355.27666623
_cell_formula_units_Z   2
loop_
 _symmetry_equiv_pos_site_id
 _symmetry_equiv_pos_as_xyz
  1  'x, y, z'
loop_
 _atom_site_type_symbol
 _atom_site_label
 _atom_site_symmetry_multiplicity
 _atom_site_fract_x
 _atom_site_fract_y
 _atom_site_fract_z
 _atom_site_occupancy
  Ca  Ca0  1  0.12881041  0.25761881  0.75000000  1
  Ca  Ca1  1  0.87118959  0.74238119  0.25000000  1
  Ca  Ca2  1  0.59049262  0.18098324  0.10958089  1
  Ca  Ca3  1  0.40950838  0.81901676  0.89041911  1
  Ca  Ca4  1  0.40950838  0.81901676  0.60958089  1
  Ca  Ca5  1  0.59049262  0.18098324  0.39041911  1
  Ga  Ga0  1  0.83491730  0.66983260  0.75000000  1
  Ga  Ga1  1  0.16508270  0.33016740  0.25000000  1
  Ga  Ga2  1  0.29269079  0.58538159  0.40019842  1
  Ga  Ga3  1  0.70730921  0.41461841  0.59980158  1
  Ga  Ga4  1  0.70730921  0.41461841  0.90019842  1
  Ga  Ga5  1  0.29269079  0.58538159  0.09980158  1
  Ga  Ga6  1  0.11615842  0.23231584  0.53344700  1
  Ga  Ga7  1  0.88384158  0.76768416  0.46655300  1
  Ga  Ga8  1  0.88384158  0.76768416  0.03344700  1
  Ga  Ga9  1  0.11615842  0.23231584  0.96655300  1
loop_
_geom_bond_atom_site_label_1
_geom_bond_atom_site_label_2
_geom_bond_distance
_geom_bond_site_symmetry_2
Ca0 Ga0 3.128534 1_555
Ca0 Ga0 3.128534 1_455
Ca0 Ga0 3.141940 1_445
Ca0 Ga6 3.243122 1_555
Ca0 Ga9 3.243122 1_555
Ca0 Ga3 3.269221 1_555
Ca0 Ga4 3.269221 1_555
Ca0 Ga3 3.269227 1_455
Ca0 Ga4 3.269227 1_455
Ca0 Ca4 3.663324 1_555
Ca0 Ca3 3.663324 1_555
Ca0 Ca4 3.852772 1_545
Ca0 Ca3 3.852772 1_545
Ca0 Ca4 3.852776 1_445
Ca0 Ca3 3.852776 1_445
Ca1 Ga1 3.128534 1_555
Ca1 Ga1 3.128534 1_655
Ca1 Ga1 3.141940 1_665
Ca1 Ga8 3.243122 1_555
Ca1 Ga7 3.243122 1_555
Ca1 Ga5 3.269221 1_555
Ca1 Ga2 3.269221 1_555
Ca1 Ga2 3.269227 1_655
Ca1 Ga5 3.269227 1_655
Ca1 Ca2 3.663324 1_555
Ca1 Ca5 3.663324 1_555
Ca1 Ca2 3.852769 1_565
Ca1 Ca5 3.852769 1_565
Ca1 Ca5 3.852779 1_665
Ca1 Ca2 3.852779 1_665
Ca2 Ga9 3.096458 1_654
Ca2 Ga9 3.096462 1_554
Ca2 Ga5 3.102702 1_655
Ca2 Ga5 3.102709 1_555
Ca2 Ga1 3.159603 1_655
Ca2 Ga1 3.159616 1_555
Ca2 Ga5 3.187077 1_545
Ca2 Ga8 3.333327 1_545
Ca2 Ga8 3.333335 1_445
Ca2 Ga8 3.336635 1_555
Ca2 Ga4 3.372744 1_554
Ca2 Ca3 3.807582 1_544
Ca3 Ga8 3.096458 1_556
Ca3 Ga8 3.096461 1_456
Ca3 Ga4 3.102705 1_455
Ca3 Ga4 3.102705 1_555
Ca3 Ga0 3.159607 1_455
Ca3 Ga0 3.159613 1_555
Ca3 Ga4 3.187077 1_565
Ca3 Ga9 3.333330 1_565
Ca3 Ga9 3.333332 1_665
Ca3 Ga9 3.336635 1_555
Ca3 Ga5 3.372744 1_556
Ca4 Ga7 3.096458 1_555
Ca4 Ga7 3.096461 1_455
Ca4 Ga3 3.102705 1_455
Ca4 Ga3 3.102705 1_555
Ca4 Ga0 3.159607 1_455
Ca4 Ga0 3.159613 1_555
Ca4 Ga3 3.187077 1_565
Ca4 Ga6 3.333330 1_565
Ca4 Ga6 3.333332 1_665
Ca4 Ga6 3.336635 1_555
Ca4 Ga2 3.372744 1_555
Ca4 Ca5 3.807582 1_565
Ca5 Ga6 3.096458 1_655
Ca5 Ga6 3.096462 1_555
Ca5 Ga2 3.102702 1_655
Ca5 Ga2 3.102709 1_555
Ca5 Ga1 3.159603 1_655
Ca5 Ga1 3.159616 1_555
Ca5 Ga2 3.187077 1_545
Ca5 Ga7 3.333327 1_545
Ca5 Ga7 3.333335 1_445
Ca5 Ga7 3.336635 1_555
Ca5 Ga3 3.372744 1_555
Ga0 Ga3 2.629075 1_555
Ga0 Ga4 2.629075 1_555
Ga1 Ga2 2.629075 1_555
Ga1 Ga5 2.629075 1_555
Ga2 Ga7 2.620680 1_555
Ga2 Ga7 2.620684 1_455
Ga2 Ga6 2.745371 1_555
Ga3 Ga6 2.620680 1_555
Ga3 Ga6 2.620684 1_655
Ga3 Ga7 2.745371 1_555
Ga4 Ga9 2.620680 1_555
Ga4 Ga9 2.620684 1_655
Ga4 Ga8 2.745371 1_556
Ga5 Ga8 2.620680 1_555
Ga5 Ga8 2.620684 1_455
Ga5 Ga9 2.745371 1_554
Ga6 Ga7 2.677744 1_445
Ga8 Ga9 2.677744 1_664
