# generated using pymatgen
data_ZrCoSn
_symmetry_space_group_name_H-M   'P 1'
_cell_length_a   7.11350028
_cell_length_b   7.11350127
_cell_length_c   3.60892665
_cell_angle_alpha   90.00000000
_cell_angle_beta   90.00000000
_cell_angle_gamma   120.00000495
_symmetry_Int_Tables_number   1
_chemical_formula_structural   ZrCoSn
_chemical_formula_sum   'Zr3 Co3 Sn3'
_cell_volume   158.15227073
_cell_formula_units_Z   3
loop_
 _symmetry_equiv_pos_site_id
 _symmetry_equiv_pos_as_xyz
  1  'x, y, z'
loop_
 _atom_site_type_symbol
 _atom_site_label
 _atom_site_symmetry_multiplicity
 _atom_site_fract_x
 _atom_site_fract_y
 _atom_site_fract_z
 _atom_site_occupancy
  Zr  Zr0  1  0.39549305  0.39549305  0.50000000  1
  Zr  Zr1  1  0.00000000  0.60450695  0.50000000  1
  Zr  Zr2  1  0.60450695  0.00000000  0.50000000  1
  Co  Co0  1  0.00000000  0.00000000  0.50000000  1
  Co  Co1  1  0.33333300  0.66666700  -0.00000000  1
  Co  Co2  1  0.66666700  0.33333300  0.00000000  1
  Sn  Sn0  1  0.00000000  0.26474389  -0.00000000  1
  Sn  Sn1  1  0.26474389  0.00000000  0.00000000  1
  Sn  Sn2  1  0.73525611  0.73525611  0.00000000  1
loop_
_geom_bond_atom_site_label_1
_geom_bond_atom_site_label_2
_geom_bond_distance
_geom_bond_site_symmetry_2
Co0 Sn2 2.608206 1_445
Co0 Sn2 2.608206 1_446
Co0 Sn1 2.608206 1_556
Co0 Sn1 2.608206 1_555
Co0 Sn0 2.608206 1_555
Co0 Sn0 2.608206 1_556
Co0 Zr0 2.813340 1_555
Co0 Zr2 2.813340 1_455
Co0 Zr1 2.813340 1_545
Co1 Sn1 2.649035 1_565
Co1 Sn0 2.649040 1_555
Co1 Sn2 2.649042 1_555
Co1 Zr1 2.832941 1_555
Co1 Zr1 2.832941 1_554
Co1 Zr2 2.832943 1_564
Co1 Zr2 2.832943 1_565
Co1 Zr0 2.832947 1_555
Co1 Zr0 2.832947 1_554
Co2 Sn0 2.649035 1_655
Co2 Sn1 2.649040 1_555
Co2 Sn2 2.649042 1_555
Co2 Zr2 2.832942 1_554
Co2 Zr2 2.832942 1_555
Co2 Zr1 2.832943 1_655
Co2 Zr1 2.832943 1_654
Co2 Zr0 2.832947 1_554
Co2 Zr0 2.832947 1_555
Sn0 Zr1 3.016209 1_555
Sn0 Zr1 3.016209 1_554
Sn0 Zr2 3.069101 1_455
Sn0 Zr2 3.069101 1_454
Sn0 Zr0 3.069101 1_555
Sn0 Zr0 3.069101 1_554
Sn1 Zr2 3.016209 1_554
Sn1 Zr2 3.016209 1_555
Sn1 Zr1 3.069101 1_545
Sn1 Zr1 3.069101 1_544
Sn1 Zr0 3.069102 1_555
Sn1 Zr0 3.069102 1_554
Sn2 Zr0 3.016209 1_555
Sn2 Zr0 3.016209 1_554
Sn2 Zr1 3.069101 1_655
Sn2 Zr1 3.069101 1_654
Sn2 Zr2 3.069102 1_565
Sn2 Zr2 3.069102 1_564
