# generated using pymatgen
data_Zr8MnBi4Os
_symmetry_space_group_name_H-M   'P 1'
_cell_length_a   8.35485503
_cell_length_b   8.35485582
_cell_length_c   8.35485560
_cell_angle_alpha   95.95470009
_cell_angle_beta   95.95470229
_cell_angle_gamma   142.42123175
_symmetry_Int_Tables_number   1
_chemical_formula_structural   Zr8MnBi4Os
_chemical_formula_sum   'Zr8 Mn1 Bi4 Os1'
_cell_volume   336.71109830
_cell_formula_units_Z   1
loop_
 _symmetry_equiv_pos_site_id
 _symmetry_equiv_pos_as_xyz
  1  'x, y, z'
loop_
 _atom_site_type_symbol
 _atom_site_label
 _atom_site_symmetry_multiplicity
 _atom_site_fract_x
 _atom_site_fract_y
 _atom_site_fract_z
 _atom_site_occupancy
  Zr  Zr0  1  0.70227532  0.58483444  0.28398705  1
  Zr  Zr1  1  0.30084738  0.41828827  0.71601295  1
  Zr  Zr2  1  0.58483444  0.30084738  0.88255811  1
  Zr  Zr3  1  0.08171173  0.19915262  0.28398705  1
  Zr  Zr4  1  0.79772468  0.08171173  0.88255811  1
  Zr  Zr5  1  0.41828827  0.70227532  0.11744189  1
  Zr  Zr6  1  0.91516556  0.79772468  0.71601295  1
  Zr  Zr7  1  0.19915262  0.91516556  0.11744189  1
  Mn  Mn0  1  0.75000000  0.75000000  0.00000000  1
  Bi  Bi0  1  0.14062537  0.64062537  0.78125174  1
  Bi  Bi1  1  0.35937463  0.14062537  0.50000000  1
  Bi  Bi2  1  0.85937463  0.35937463  0.21874826  1
  Bi  Bi3  1  0.64062537  0.85937463  0.50000000  1
  Os  Os0  1  0.25000000  0.25000000  0.00000000  1
loop_
_geom_bond_atom_site_label_1
_geom_bond_atom_site_label_2
_geom_bond_distance
_geom_bond_site_symmetry_2
Zr0 Zr3 3.256213 1_665
Zr0 Zr7 3.259143 1_655
Zr0 Zr3 3.283873 1_555
Zr0 Zr7 3.286785 1_545
Zr0 Zr6 3.417201 1_555
Zr0 Zr5 3.437560 1_555
Zr0 Zr2 3.437571 1_554
Zr1 Zr6 3.256212 1_555
Zr1 Zr4 3.259148 1_565
Zr1 Zr6 3.283874 1_445
Zr1 Zr4 3.286780 1_455
Zr1 Zr3 3.417201 1_555
Zr1 Zr2 3.437560 1_555
Zr1 Zr5 3.437571 1_556
Zr2 Zr7 3.256217 1_656
Zr2 Zr6 3.259144 1_555
Zr2 Zr7 3.283887 1_546
Zr2 Zr6 3.286784 1_445
Zr2 Zr4 3.417200 1_555
Zr3 Zr5 3.259148 1_445
Zr3 Zr5 3.286780 1_555
Zr3 Zr7 3.437561 1_545
Zr3 Zr4 3.437571 1_454
Zr4 Zr5 3.256226 1_546
Zr4 Zr5 3.283878 1_656
Zr4 Zr6 3.437561 1_545
Zr5 Zr7 3.417200 1_555
Zr6 Zr7 3.437571 1_656
Mn0 Os0 2.691018 1_555
Mn0 Os0 2.691018 1_665
Mn0 Zr1 2.774216 1_554
Mn0 Zr6 2.774216 1_554
Mn0 Zr0 2.774216 1_555
Mn0 Zr3 2.774216 1_665
Mn0 Zr7 2.774217 1_655
Mn0 Zr2 2.774217 1_554
Mn0 Zr5 2.774220 1_555
Mn0 Zr4 2.774220 1_564
Bi0 Zr6 3.069591 1_455
Bi0 Zr1 3.069591 1_555
Bi0 Zr5 3.160746 1_556
Bi0 Zr7 3.160746 1_556
Bi0 Zr2 3.279894 1_455
Bi0 Zr4 3.279903 1_565
Bi0 Zr4 3.293655 1_455
Bi0 Zr2 3.293664 1_565
Bi1 Zr2 3.069582 1_555
Bi1 Zr7 3.069582 1_545
Bi1 Zr3 3.160746 1_555
Bi1 Zr1 3.160746 1_555
Bi1 Zr0 3.279903 1_445
Bi1 Zr6 3.279903 1_555
Bi1 Zr6 3.293663 1_445
Bi1 Zr0 3.293663 1_555
Bi2 Zr3 3.069591 1_655
Bi2 Zr0 3.069591 1_555
Bi2 Zr2 3.160746 1_554
Bi2 Zr4 3.160746 1_554
Bi2 Zr7 3.279895 1_655
Bi2 Zr5 3.279904 1_545
Bi2 Zr5 3.293655 1_655
Bi2 Zr7 3.293663 1_545
Bi3 Zr5 3.069582 1_555
Bi3 Zr4 3.069582 1_565
Bi3 Zr6 3.160746 1_555
Bi3 Zr0 3.160746 1_555
Bi3 Zr3 3.279903 1_665
Bi3 Zr1 3.279903 1_555
Bi3 Zr1 3.293663 1_665
Bi3 Zr3 3.293663 1_555
Os0 Zr0 2.782355 1_555
Os0 Zr3 2.782355 1_555
Os0 Zr1 2.782355 1_554
Os0 Zr6 2.782355 1_444
Os0 Zr4 2.782356 1_454
Os0 Zr5 2.782357 1_555
Os0 Zr2 2.782359 1_554
Os0 Zr7 2.782359 1_545
