# generated using pymatgen
data_Si3Ag3(SnAs3)2
_symmetry_space_group_name_H-M   'P 1'
_cell_length_a   9.31612925
_cell_length_b   9.31612962
_cell_length_c   9.31612910
_cell_angle_alpha   109.47121950
_cell_angle_beta   109.47122031
_cell_angle_gamma   109.47122314
_symmetry_Int_Tables_number   1
_chemical_formula_structural   Si3Ag3(SnAs3)2
_chemical_formula_sum   'Si6 Ag6 Sn4 As12'
_cell_volume   622.42156306
_cell_formula_units_Z   2
loop_
 _symmetry_equiv_pos_site_id
 _symmetry_equiv_pos_as_xyz
  1  'x, y, z'
loop_
 _atom_site_type_symbol
 _atom_site_label
 _atom_site_symmetry_multiplicity
 _atom_site_fract_x
 _atom_site_fract_y
 _atom_site_fract_z
 _atom_site_occupancy
  Si  Si0  1  0.25000000  0.75000000  0.50000000  1
  Si  Si1  1  0.75000000  0.50000000  0.25000000  1
  Si  Si2  1  0.75000000  0.25000000  0.50000000  1
  Si  Si3  1  0.50000000  0.25000000  0.75000000  1
  Si  Si4  1  0.50000000  0.75000000  0.25000000  1
  Si  Si5  1  0.25000000  0.50000000  0.75000000  1
  Ag  Ag0  1  0.18929604  1.00000000  0.18929604  1
  Ag  Ag1  1  0.00000000  0.81070396  0.81070396  1
  Ag  Ag2  1  1.00000000  0.18929604  0.18929604  1
  Ag  Ag3  1  0.81070396  0.81070396  1.00000000  1
  Ag  Ag4  1  0.81070396  0.00000000  0.81070396  1
  Ag  Ag5  1  0.18929604  0.18929604  0.00000000  1
  Sn  Sn0  1  0.00000000  0.00000000  0.59542931  1
  Sn  Sn1  1  0.59542931  1.00000000  1.00000000  1
  Sn  Sn2  1  1.00000000  0.59542931  0.00000000  1
  Sn  Sn3  1  0.40457069  0.40457069  0.40457069  1
  As  As0  1  0.00000000  0.49420136  0.24237142  1
  As  As1  1  0.49420136  0.00000000  0.24237142  1
  As  As2  1  0.50579864  0.74817006  0.50579864  1
  As  As3  1  0.24237142  0.49420136  1.00000000  1
  As  As4  1  0.74817006  0.50579864  0.50579864  1
  As  As5  1  0.25182994  0.75762858  0.75762858  1
  As  As6  1  0.75762858  0.25182994  0.75762858  1
  As  As7  1  0.24237142  0.00000000  0.49420136  1
  As  As8  1  0.50579864  0.50579864  0.74817006  1
  As  As9  1  0.00000000  0.24237142  0.49420136  1
  As  As10  1  0.75762858  0.75762858  0.25182994  1
  As  As11  1  0.49420136  0.24237142  0.00000000  1
loop_
_geom_bond_atom_site_label_1
_geom_bond_atom_site_label_2
_geom_bond_distance
_geom_bond_site_symmetry_2
Ag0 As7 2.716025 1_565
Ag0 As1 2.716025 1_565
Ag0 Sn3 3.080573 1_565
Ag0 Sn2 3.080573 1_455
Ag1 As4 2.716025 1_455
Ag1 As5 2.716025 1_555
Ag1 Sn0 3.080573 1_565
Ag1 Sn2 3.080573 1_456
Ag2 As9 2.716025 1_655
Ag2 As0 2.716025 1_655
Ag2 Sn3 3.080573 1_655
Ag2 Sn1 3.080573 1_544
Ag3 As10 2.716025 1_556
Ag3 As8 2.716025 1_555
Ag3 Sn1 3.080573 1_555
Ag3 Sn2 3.080573 1_556
Ag4 As2 2.716025 1_545
Ag4 As6 2.716025 1_555
Ag4 Sn0 3.080573 1_655
Ag4 Sn1 3.080573 1_545
Ag5 As11 2.716025 1_555
Ag5 As3 2.716025 1_554
Ag5 Sn0 3.080573 1_554
Ag5 Sn3 3.080573 1_555
As0 Si0 2.371503 1_555
As0 Si1 2.371503 1_455
As0 Sn2 2.721642 1_455
As1 Si2 2.371503 1_555
As1 Si4 2.371503 1_545
As1 Sn1 2.721642 1_544
As2 Si4 2.371503 1_555
As2 Si0 2.371503 1_555
As2 Sn3 2.721642 1_555
As3 Si5 2.371503 1_555
As3 Si4 2.371503 1_556
As3 Sn2 2.721642 1_456
As4 Si1 2.371503 1_555
As4 Si2 2.371503 1_555
As4 Sn3 2.721642 1_555
As5 Si0 2.371503 1_555
As5 Si5 2.371503 1_555
As5 Sn1 2.721642 1_555
As6 Si2 2.371503 1_555
As6 Si3 2.371503 1_555
As6 Sn2 2.721642 1_556
As7 Si3 2.371503 1_555
As7 Si0 2.371503 1_545
As7 Sn0 2.721642 1_555
As8 Si5 2.371503 1_555
As8 Si3 2.371503 1_555
As8 Sn3 2.721642 1_555
As9 Si5 2.371503 1_555
As9 Si2 2.371503 1_455
As9 Sn0 2.721642 1_555
As10 Si4 2.371503 1_555
As10 Si1 2.371503 1_555
As10 Sn0 2.721642 1_665
As11 Si3 2.371503 1_554
As11 Si1 2.371503 1_555
As11 Sn1 2.721642 1_544
