# generated using pymatgen
data_NaP12Ir3Os
_symmetry_space_group_name_H-M   'P 1'
_cell_length_a   6.99715468
_cell_length_b   6.99715608
_cell_length_c   6.99715540
_cell_angle_alpha   109.52917329
_cell_angle_beta   109.52918818
_cell_angle_gamma   109.52918028
_symmetry_Int_Tables_number   1
_chemical_formula_structural   NaP12Ir3Os
_chemical_formula_sum   'Na1 P12 Ir3 Os1'
_cell_volume   263.15231546
_cell_formula_units_Z   1
loop_
 _symmetry_equiv_pos_site_id
 _symmetry_equiv_pos_as_xyz
  1  'x, y, z'
loop_
 _atom_site_type_symbol
 _atom_site_label
 _atom_site_symmetry_multiplicity
 _atom_site_fract_x
 _atom_site_fract_y
 _atom_site_fract_z
 _atom_site_occupancy
  Na  Na0  1  0.00000000  0.00000000  0.00000000  1
  P  P0  1  0.13943007  0.78330478  0.64336179  1
  P  P1  1  0.14237760  0.49557545  0.35697757  1
  P  P2  1  0.85762240  0.50442455  0.64302243  1
  P  P3  1  0.35697757  0.14237760  0.49557545  1
  P  P4  1  0.78330478  0.64336179  0.13943007  1
  P  P5  1  0.86056993  0.21669522  0.35663821  1
  P  P6  1  0.64336179  0.13943007  0.78330478  1
  P  P7  1  0.50442455  0.64302243  0.85762240  1
  P  P8  1  0.64302243  0.85762240  0.50442455  1
  P  P9  1  0.49557545  0.35697757  0.14237760  1
  P  P10  1  0.35663821  0.86056993  0.21669522  1
  P  P11  1  0.21669522  0.35663821  0.86056993  1
  Ir  Ir0  1  0.50000000  0.00000000  0.00000000  1
  Ir  Ir1  1  0.00000000  0.50000000  0.00000000  1
  Ir  Ir2  1  0.00000000  0.00000000  0.50000000  1
  Os  Os0  1  0.50000000  0.50000000  0.50000000  1
loop_
_geom_bond_atom_site_label_1
_geom_bond_atom_site_label_2
_geom_bond_distance
_geom_bond_site_symmetry_2
Na0 P8 3.080878 1_444
Na0 P3 3.080878 1_555
Na0 P7 3.080878 1_444
Na0 P9 3.080878 1_555
Na0 P2 3.080879 1_444
Na0 P1 3.080879 1_555
Na0 P10 3.092754 1_545
Na0 P6 3.092754 1_454
Na0 P11 3.092755 1_554
Na0 P4 3.092755 1_445
Na0 P5 3.092755 1_455
Na0 P0 3.092755 1_544
P0 P2 2.262139 1_455
P0 P1 2.329674 1_555
P1 P5 2.262139 1_455
P2 P5 2.329674 1_555
P3 P6 2.329673 1_555
P4 P7 2.262138 1_554
P4 P9 2.329674 1_555
P6 P8 2.262139 1_545
P10 P3 2.262139 1_565
P10 P8 2.329673 1_555
P11 P9 2.262138 1_556
P11 P7 2.329674 1_555
Ir0 P5 2.365386 1_555
Ir0 P0 2.365386 1_544
Ir0 P6 2.368266 1_554
Ir0 P10 2.368266 1_545
Ir0 P7 2.375124 1_544
Ir0 P9 2.375124 1_555
Ir1 P10 2.365386 1_555
Ir1 P6 2.365386 1_454
Ir1 P4 2.368266 1_455
Ir1 P11 2.368266 1_554
Ir1 P2 2.375124 1_454
Ir1 P1 2.375124 1_555
Ir2 P11 2.365387 1_555
Ir2 P4 2.365387 1_445
Ir2 P5 2.368266 1_455
Ir2 P0 2.368266 1_545
Ir2 P8 2.375124 1_445
Ir2 P3 2.375124 1_555
Os0 P1 2.348914 1_555
Os0 P2 2.348914 1_555
Os0 P9 2.348915 1_555
Os0 P7 2.348915 1_555
Os0 P8 2.348915 1_555
Os0 P3 2.348915 1_555
