# generated using pymatgen
data_TiBe8ReTc2
_symmetry_space_group_name_H-M   'P 1'
_cell_length_a   4.37155059
_cell_length_b   4.37155055
_cell_length_c   7.19470144
_cell_angle_alpha   90.00000000
_cell_angle_beta   90.00000000
_cell_angle_gamma   120.00001530
_symmetry_Int_Tables_number   1
_chemical_formula_structural   TiBe8ReTc2
_chemical_formula_sum   'Ti1 Be8 Re1 Tc2'
_cell_volume   119.07329051
_cell_formula_units_Z   1
loop_
 _symmetry_equiv_pos_site_id
 _symmetry_equiv_pos_as_xyz
  1  'x, y, z'
loop_
 _atom_site_type_symbol
 _atom_site_label
 _atom_site_symmetry_multiplicity
 _atom_site_fract_x
 _atom_site_fract_y
 _atom_site_fract_z
 _atom_site_occupancy
  Ti  Ti0  1  0.33333300  0.66666700  0.06401601  1
  Be  Be0  1  0.00000000  0.00000000  0.99786816  1
  Be  Be1  1  0.00000000  0.00000000  0.49932502  1
  Be  Be2  1  0.83026202  0.66052504  0.25317176  1
  Be  Be3  1  0.16903382  0.83096618  0.74810461  1
  Be  Be4  1  0.66193337  0.83096618  0.74810461  1
  Be  Be5  1  0.33947496  0.16973798  0.25317176  1
  Be  Be6  1  0.83026202  0.16973798  0.25317176  1
  Be  Be7  1  0.16903382  0.33806663  0.74810461  1
  Re  Re0  1  0.33333300  0.66666700  0.43974112  1
  Tc  Tc0  1  0.66666700  0.33333300  0.56366124  1
  Tc  Tc1  1  0.66666700  0.33333300  0.93155833  1
loop_
_geom_bond_atom_site_label_1
_geom_bond_atom_site_label_2
_geom_bond_distance
_geom_bond_site_symmetry_2
Be0 Be7 2.206174 1_555
Be0 Be4 2.206174 1_445
Be0 Be3 2.206176 1_545
Be0 Be2 2.241811 1_446
Be0 Be5 2.241811 1_556
Be0 Be6 2.241814 1_456
Be0 Ti0 2.568391 1_546
Be0 Ti0 2.568394 1_556
Be0 Ti0 2.568394 1_446
Be0 Tc1 2.568608 1_455
Be0 Tc1 2.568611 1_445
Be0 Tc1 2.568611 1_555
Be1 Be2 2.188196 1_445
Be1 Be5 2.188196 1_555
Be1 Be6 2.188198 1_455
Be1 Be7 2.200411 1_555
Be1 Be4 2.200411 1_445
Be1 Be3 2.200414 1_545
Be1 Re0 2.560061 1_545
Be1 Re0 2.560064 1_555
Be1 Re0 2.560064 1_445
Be1 Tc0 2.566008 1_455
Be1 Tc0 2.566011 1_445
Be1 Tc0 2.566011 1_555
Be2 Be5 2.145500 1_555
Be2 Be6 2.145500 1_555
Be2 Be5 2.226050 1_665
Be2 Be6 2.226050 1_565
Be2 Tc0 2.554332 1_555
Be2 Re0 2.565142 1_655
Be2 Re0 2.565142 1_555
Be2 Ti0 2.574928 1_655
Be2 Ti0 2.574928 1_555
Be2 Tc1 2.624612 1_554
Be3 Be7 2.154735 1_555
Be3 Be4 2.154735 1_555
Be3 Be7 2.216815 1_565
Be3 Be4 2.216815 1_455
Be3 Re0 2.543566 1_555
Be3 Tc1 2.553440 1_565
Be3 Tc1 2.553440 1_455
Be3 Tc0 2.557128 1_565
Be3 Tc0 2.557128 1_455
Be3 Ti0 2.591069 1_556
Be4 Be7 2.154735 1_555
Be4 Be7 2.216815 1_665
Be4 Re0 2.543569 1_555
Be4 Tc1 2.553440 1_565
Be4 Tc1 2.553440 1_555
Be4 Tc0 2.557128 1_565
Be4 Tc0 2.557128 1_555
Be4 Ti0 2.591072 1_556
Be5 Be6 2.145500 1_555
Be5 Be6 2.226050 1_455
Be5 Tc0 2.554332 1_555
Be5 Re0 2.565142 1_545
Be5 Re0 2.565142 1_555
Be5 Ti0 2.574928 1_545
Be5 Ti0 2.574928 1_555
Be5 Tc1 2.624612 1_554
Be6 Tc0 2.554329 1_555
Be6 Re0 2.565141 1_545
Be6 Re0 2.565141 1_655
Be6 Ti0 2.574928 1_545
Be6 Ti0 2.574928 1_655
Be6 Tc1 2.624609 1_554
Be7 Re0 2.543569 1_555
Be7 Tc1 2.553440 1_455
Be7 Tc1 2.553440 1_555
Be7 Tc0 2.557128 1_455
Be7 Tc0 2.557128 1_555
Be7 Ti0 2.591072 1_556
Re0 Tc0 2.676758 1_565
Re0 Tc0 2.676758 1_455
Re0 Tc0 2.676765 1_555
Re0 Ti0 2.703230 1_555
Tc0 Tc1 2.646910 1_555
Tc1 Ti0 2.697839 1_546
Tc1 Ti0 2.697839 1_656
Tc1 Ti0 2.697846 1_556
