# generated using pymatgen
data_Nb3Si3Ru2W
_symmetry_space_group_name_H-M   'P 1'
_cell_length_a   7.49624714
_cell_length_b   7.49624695
_cell_length_c   7.49624737
_cell_angle_alpha   126.74675278
_cell_angle_beta   124.02222693
_cell_angle_gamma   80.92114114
_symmetry_Int_Tables_number   1
_chemical_formula_structural   Nb3Si3Ru2W
_chemical_formula_sum   'Nb6 Si6 Ru4 W2'
_cell_volume   269.64369502
_cell_formula_units_Z   2
loop_
 _symmetry_equiv_pos_site_id
 _symmetry_equiv_pos_as_xyz
  1  'x, y, z'
loop_
 _atom_site_type_symbol
 _atom_site_label
 _atom_site_symmetry_multiplicity
 _atom_site_fract_x
 _atom_site_fract_y
 _atom_site_fract_z
 _atom_site_occupancy
  Nb  Nb0  1  0.55834561  0.09298731  0.03464170  1
  Nb  Nb1  1  0.44165439  0.47629610  0.53464170  1
  Nb  Nb2  1  0.96018856  0.48822480  0.02803623  1
  Nb  Nb3  1  0.03981144  0.06784767  0.52803623  1
  Nb  Nb4  1  0.75268036  0.92050595  0.66782659  1
  Nb  Nb5  1  0.24731964  0.91514623  0.16782659  1
  Si  Si0  1  0.77886602  0.55235148  0.27348646  1
  Si  Si1  1  0.22113398  0.49462044  0.77348646  1
  Si  Si2  1  0.33463601  0.81755519  0.49244158  1
  Si  Si3  1  0.66536399  0.15780357  0.48291818  1
  Si  Si4  1  0.82511462  0.81755519  0.98291818  1
  Si  Si5  1  0.17488538  0.15780357  0.99244158  1
  Ru  Ru0  1  0.15955582  0.74649492  0.65376953  1
  Ru  Ru1  1  0.84044418  0.49421471  0.58693910  1
  Ru  Ru2  1  0.59272539  0.74649492  0.08693910  1
  Ru  Ru3  1  0.40727461  0.49421471  0.15376953  1
  W  W0  1  0.50000000  0.25104062  0.75104062  1
  W  W1  1  1.00000000  0.25104062  0.25104062  1
loop_
_geom_bond_atom_site_label_1
_geom_bond_atom_site_label_2
_geom_bond_distance
_geom_bond_site_symmetry_2
Nb0 Si2 2.649359 1_544
Nb0 Si4 2.649365 1_544
Nb0 Si3 2.706386 1_555
Nb0 Si5 2.706391 1_554
Nb0 Ru2 2.803687 1_545
Nb0 Ru0 2.803687 1_544
Nb0 W0 2.815064 1_554
Nb0 W1 2.815064 1_555
Nb0 Ru1 2.822957 1_555
Nb0 Ru3 2.822961 1_555
Nb1 Si5 2.649361 1_554
Nb1 Si3 2.649369 1_555
Nb1 Si2 2.706385 1_555
Nb1 Si4 2.706388 1_555
Nb1 Ru1 2.803688 1_555
Nb1 Ru3 2.803692 1_555
Nb1 W0 2.815064 1_555
Nb1 W1 2.815064 1_455
Nb1 Ru0 2.822955 1_555
Nb1 Ru2 2.822955 1_556
Nb2 Si0 2.645398 1_555
Nb2 Si2 2.657312 1_655
Nb2 Si4 2.657314 1_554
Nb2 Si3 2.688537 1_554
Nb2 Si5 2.688538 1_654
Nb2 Ru3 2.929968 1_655
Nb2 Ru1 2.929973 1_554
Nb2 W1 2.979200 1_555
Nb2 W0 2.979200 1_554
Nb3 Si1 2.645395 1_555
Nb3 Si3 2.657307 1_455
Nb3 Si5 2.657321 1_555
Nb3 Si2 2.688530 1_545
Nb3 Si4 2.688537 1_444
Nb3 Ru0 2.929968 1_545
Nb3 Ru2 2.929969 1_445
Nb3 W1 2.979200 1_455
Nb3 W0 2.979200 1_555
Nb4 Si5 2.661131 1_665
Nb4 Si3 2.661137 1_565
Nb4 Si4 2.661431 1_555
Nb4 Si2 2.661445 1_555
Nb4 Si0 2.666455 1_555
Nb4 W1 2.847437 1_566
Nb4 W0 2.847441 1_565
Nb4 Ru1 2.911471 1_555
Nb4 Ru3 2.911478 1_555
Nb5 Si4 2.661129 1_454
Nb5 Si2 2.661139 1_555
Nb5 Si5 2.661430 1_564
Nb5 Si3 2.661442 1_565
Nb5 Si1 2.666455 1_554
Nb5 W1 2.847437 1_465
Nb5 W0 2.847437 1_565
Nb5 Ru2 2.911485 1_555
Nb5 Ru0 2.911485 1_554
Si0 W1 2.560015 1_555
Si0 W0 2.560020 1_554
Si1 W0 2.560020 1_555
Si1 W1 2.560021 1_455
Si2 W0 2.626519 1_565
Si3 W0 2.626522 1_555
Si4 W1 2.626515 1_566
Si5 W1 2.626509 1_456
Ru0 Si0 2.373047 1_455
Ru0 Si1 2.423285 1_555
Ru0 Si2 2.497278 1_555
Ru0 Si5 2.526687 1_565
Ru0 W1 2.878125 1_455
Ru1 Si1 2.373048 1_655
Ru1 Si0 2.423274 1_555
Ru1 Si3 2.497294 1_555
Ru1 Si4 2.526684 1_555
Ru1 W1 2.878125 1_555
Ru2 Si0 2.373053 1_555
Ru2 Si1 2.423285 1_554
Ru2 Si4 2.497291 1_554
Ru2 Si3 2.526684 1_565
Ru2 W0 2.878125 1_554
Ru3 Si1 2.373042 1_554
Ru3 Si0 2.423283 1_555
Ru3 Si5 2.497301 1_554
Ru3 Si2 2.526692 1_555
Ru3 W0 2.878125 1_554
