# generated using pymatgen
data_Nb5Bi4MoS12
_symmetry_space_group_name_H-M   'P 1'
_cell_length_a   5.74994818
_cell_length_b   5.75812380
_cell_length_c   17.42331849
_cell_angle_alpha   90.00000000
_cell_angle_beta   90.00000000
_cell_angle_gamma   119.95305462
_symmetry_Int_Tables_number   1
_chemical_formula_structural   Nb5Bi4MoS12
_chemical_formula_sum   'Nb5 Bi4 Mo1 S12'
_cell_volume   499.81776204
_cell_formula_units_Z   1
loop_
 _symmetry_equiv_pos_site_id
 _symmetry_equiv_pos_as_xyz
  1  'x, y, z'
loop_
 _atom_site_type_symbol
 _atom_site_label
 _atom_site_symmetry_multiplicity
 _atom_site_fract_x
 _atom_site_fract_y
 _atom_site_fract_z
 _atom_site_occupancy
  Nb  Nb0  1  0.67424098  0.67409912  0.25000000  1
  Nb  Nb1  1  0.00014087  0.32590088  0.25000000  1
  Nb  Nb2  1  0.99883092  0.67508692  0.75000000  1
  Nb  Nb3  1  0.32643793  1.00000000  0.25000000  1
  Nb  Nb4  1  0.32374300  0.32491308  0.75000000  1
  Bi  Bi0  1  0.33653644  0.66783685  0.00081268  1
  Bi  Bi1  1  0.66870059  0.33216315  0.49918732  1
  Bi  Bi2  1  0.33653644  0.66783685  0.49918732  1
  Bi  Bi3  1  0.66870059  0.33216315  0.00081268  1
  Mo  Mo0  1  0.67237450  0.00000000  0.75000000  1
  S  S0  1  0.33849734  0.67288795  0.66280208  1
  S  S1  1  0.66687964  0.33347833  0.16095463  1
  S  S2  1  0.66561039  0.32711205  0.83719792  1
  S  S3  1  0.33340031  0.66652167  0.33904537  1
  S  S4  1  0.33340031  0.66652167  0.16095463  1
  S  S5  1  0.66561039  0.32711205  0.66280208  1
  S  S6  1  0.66687964  0.33347833  0.33904537  1
  S  S7  1  0.33849734  0.67288795  0.83719792  1
  S  S8  1  0.00020808  0.00000000  0.15754489  1
  S  S9  1  0.99228161  1.00000000  0.65900583  1
  S  S10  1  0.99228161  1.00000000  0.84099417  1
  S  S11  1  0.00020808  0.00000000  0.34245511  1
loop_
_geom_bond_atom_site_label_1
_geom_bond_atom_site_label_2
_geom_bond_distance
_geom_bond_site_symmetry_2
Nb0 S11 2.473292 1_665
Nb0 S8 2.473292 1_665
Nb0 S3 2.482829 1_555
Nb0 S4 2.482829 1_555
Nb0 S6 2.484508 1_555
Nb0 S1 2.484508 1_555
Nb1 S11 2.473295 1_555
Nb1 S8 2.473295 1_555
Nb1 S6 2.482820 1_455
Nb1 S1 2.482820 1_455
Nb1 S3 2.484508 1_555
Nb1 S4 2.484508 1_555
Nb2 S10 2.466893 1_555
Nb2 S9 2.466893 1_555
Nb2 S7 2.479419 1_655
Nb2 S0 2.479419 1_655
Nb2 S2 2.482015 1_555
Nb2 S5 2.482015 1_555
Nb3 S11 2.472562 1_565
Nb3 S8 2.472562 1_565
Nb3 S3 2.484475 1_555
Nb3 S4 2.484475 1_555
Nb3 S6 2.484477 1_565
Nb3 S1 2.484477 1_565
Nb4 S10 2.466890 1_445
Nb4 S9 2.466890 1_445
Nb4 S2 2.479428 1_555
Nb4 S5 2.479428 1_555
Nb4 S7 2.482015 1_555
Nb4 S0 2.482015 1_555
Bi0 S4 2.790248 1_555
Bi0 S7 2.850825 1_554
Bi1 S6 2.790248 1_555
Bi1 S5 2.850825 1_555
Bi2 S3 2.790248 1_555
Bi2 S0 2.850825 1_555
Bi3 S1 2.790248 1_555
Bi3 S2 2.850825 1_554
Mo0 S10 2.428401 1_545
Mo0 S9 2.428401 1_545
Mo0 S2 2.435290 1_555
Mo0 S5 2.435290 1_555
Mo0 S7 2.435292 1_545
Mo0 S0 2.435292 1_545
