# generated using pymatgen
data_Mn4CdPd8Au3
_symmetry_space_group_name_H-M   'P 1'
_cell_length_a   6.88060130
_cell_length_b   6.88060110
_cell_length_c   6.88060162
_cell_angle_alpha   107.74367426
_cell_angle_beta   107.74366904
_cell_angle_gamma   112.98447767
_symmetry_Int_Tables_number   1
_chemical_formula_structural   Mn4CdPd8Au3
_chemical_formula_sum   'Mn4 Cd1 Pd8 Au3'
_cell_volume   250.04769571
_cell_formula_units_Z   1
loop_
 _symmetry_equiv_pos_site_id
 _symmetry_equiv_pos_as_xyz
  1  'x, y, z'
loop_
 _atom_site_type_symbol
 _atom_site_label
 _atom_site_symmetry_multiplicity
 _atom_site_fract_x
 _atom_site_fract_y
 _atom_site_fract_z
 _atom_site_occupancy
  Mn  Mn0  1  0.25631063  0.25631063  0.51262125  1
  Mn  Mn1  1  0.74368937  0.74368937  0.48737875  1
  Mn  Mn2  1  0.25631063  0.74368937  1.00000000  1
  Mn  Mn3  1  0.74368937  0.25631063  0.00000000  1
  Cd  Cd0  1  0.00000000  0.00000000  0.00000000  1
  Pd  Pd0  1  0.49713797  0.24682711  0.25030987  1
  Pd  Pd1  1  0.50286203  0.75317289  0.74969013  1
  Pd  Pd2  1  0.99651724  0.24682711  0.74969013  1
  Pd  Pd3  1  0.24682711  0.99651724  0.74969013  1
  Pd  Pd4  1  0.00348276  0.75317289  0.25030987  1
  Pd  Pd5  1  0.75317289  0.00348276  0.25030987  1
  Pd  Pd6  1  0.24682711  0.49713797  0.25030987  1
  Pd  Pd7  1  0.75317289  0.50286203  0.74969013  1
  Au  Au0  1  0.50000000  0.00000000  0.50000000  1
  Au  Au1  1  0.00000000  0.50000000  0.50000000  1
  Au  Au2  1  0.50000000  0.50000000  0.00000000  1
loop_
_geom_bond_atom_site_label_1
_geom_bond_atom_site_label_2
_geom_bond_distance
_geom_bond_site_symmetry_2
Mn0 Pd2 2.758855 1_455
Mn0 Pd3 2.758855 1_545
Mn0 Pd1 2.758856 1_555
Mn0 Pd7 2.758856 1_555
Mn0 Pd4 2.800549 1_545
Mn0 Pd5 2.800549 1_455
Mn0 Pd0 2.800555 1_555
Mn0 Pd6 2.800555 1_555
Mn1 Pd4 2.758855 1_655
Mn1 Pd5 2.758855 1_565
Mn1 Pd0 2.758856 1_555
Mn1 Pd6 2.758856 1_555
Mn1 Pd2 2.800549 1_565
Mn1 Pd3 2.800549 1_655
Mn1 Pd1 2.800555 1_555
Mn1 Pd7 2.800555 1_555
Mn2 Pd1 2.758850 1_555
Mn2 Pd6 2.758850 1_556
Mn2 Pd2 2.758855 1_455
Mn2 Pd5 2.758855 1_566
Mn2 Pd0 2.800548 1_566
Mn2 Pd7 2.800549 1_455
Mn2 Pd4 2.800549 1_556
Mn2 Pd3 2.800549 1_555
Mn3 Pd0 2.758850 1_555
Mn3 Pd7 2.758850 1_554
Mn3 Pd4 2.758855 1_655
Mn3 Pd3 2.758855 1_544
Mn3 Pd1 2.800548 1_544
Mn3 Pd6 2.800549 1_655
Mn3 Pd2 2.800549 1_554
Mn3 Pd5 2.800549 1_555
Cd0 Pd5 2.764159 1_455
Cd0 Pd3 2.764159 1_544
Cd0 Pd4 2.764159 1_545
Cd0 Pd2 2.764159 1_454
Cd0 Pd6 2.764165 1_555
Cd0 Pd7 2.764165 1_444
Cd0 Pd0 2.764165 1_555
Cd0 Pd1 2.764165 1_444
Cd0 Mn2 2.940970 1_544
Cd0 Mn3 2.940970 1_455
Cd0 Mn0 2.940971 1_555
Cd0 Mn1 2.940971 1_444
Au0 Pd1 2.760467 1_545
Au0 Pd0 2.760467 1_555
Au0 Pd2 2.760467 1_555
Au0 Pd4 2.760467 1_545
Au0 Pd7 2.793432 1_555
Au0 Pd6 2.793432 1_545
Au0 Pd5 2.793438 1_555
Au0 Pd3 2.793438 1_545
Au0 Mn1 2.869474 1_545
Au0 Mn0 2.869474 1_555
Au0 Mn2 2.869475 1_544
Au0 Mn3 2.869475 1_556
Au1 Pd6 2.760467 1_555
Au1 Pd7 2.760467 1_455
Au1 Pd3 2.760467 1_555
Au1 Pd5 2.760467 1_455
Au1 Pd1 2.793432 1_555
Au1 Pd0 2.793432 1_455
Au1 Pd2 2.793438 1_455
Au1 Pd4 2.793438 1_555
Au1 Mn0 2.869474 1_555
Au1 Mn1 2.869474 1_455
Au1 Mn3 2.869475 1_455
Au1 Mn2 2.869475 1_555
Au2 Mn2 2.796151 1_554
Au2 Mn3 2.796151 1_555
Au2 Mn1 2.796151 1_555
Au2 Mn0 2.796151 1_554
Au2 Pd5 2.797086 1_565
Au2 Pd3 2.797086 1_544
Au2 Pd4 2.797087 1_655
Au2 Pd2 2.797087 1_454
Au2 Pd7 2.797087 1_554
Au2 Pd6 2.797087 1_555
Au2 Pd0 2.797087 1_555
Au2 Pd1 2.797087 1_554
