# generated using pymatgen
data_ScAl4VMo
_symmetry_space_group_name_H-M   'P 1'
_cell_length_a   5.34102006
_cell_length_b   5.34101985
_cell_length_c   5.34101947
_cell_angle_alpha   103.67553861
_cell_angle_beta   103.67553806
_cell_angle_gamma   121.81331627
_symmetry_Int_Tables_number   1
_chemical_formula_structural   ScAl4VMo
_chemical_formula_sum   'Sc1 Al4 V1 Mo1'
_cell_volume   113.13588680
_cell_formula_units_Z   1
loop_
 _symmetry_equiv_pos_site_id
 _symmetry_equiv_pos_as_xyz
  1  'x, y, z'
loop_
 _atom_site_type_symbol
 _atom_site_label
 _atom_site_symmetry_multiplicity
 _atom_site_fract_x
 _atom_site_fract_y
 _atom_site_fract_z
 _atom_site_occupancy
  Sc  Sc0  1  0.00000000  0.00000000  0.00000000  1
  Al  Al0  1  0.30350204  0.30350204  0.60700607  1
  Al  Al1  1  0.69649796  0.69649796  0.39299393  1
  Al  Al2  1  0.69649796  0.30350204  0.00000000  1
  Al  Al3  1  0.30350204  0.69649796  1.00000000  1
  V  V0  1  0.25000000  0.75000000  0.50000000  1
  Mo  Mo0  1  0.75000000  0.25000000  0.50000000  1
loop_
_geom_bond_atom_site_label_1
_geom_bond_atom_site_label_2
_geom_bond_distance
_geom_bond_site_symmetry_2
Al0 Al3 2.593895 1_555
Al0 Al2 2.593895 1_556
Al0 V0 2.716804 1_545
Al0 Mo0 2.716804 1_455
Al0 V0 2.716809 1_555
Al0 Mo0 2.716809 1_555
Al0 Al1 2.782431 1_445
Al0 Al1 2.782451 1_555
Al0 Sc0 2.832980 1_555
Al0 Sc0 3.179376 1_556
Al0 Sc0 3.179385 1_666
Al1 Al2 2.593895 1_555
Al1 Al3 2.593895 1_554
Al1 Mo0 2.716804 1_565
Al1 V0 2.716804 1_655
Al1 Mo0 2.716809 1_555
Al1 V0 2.716809 1_555
Al1 Sc0 2.832980 1_666
Al1 Sc0 3.179376 1_665
Al1 Sc0 3.179385 1_555
Al2 Mo0 2.716804 1_555
Al2 Mo0 2.716804 1_554
Al2 V0 2.716804 1_544
Al2 V0 2.716804 1_655
Al2 Al3 2.782434 1_544
Al2 Al3 2.782434 1_654
Al2 Sc0 2.832971 1_655
Al2 Sc0 3.179386 1_665
Al2 Sc0 3.179386 1_555
Al3 V0 2.716804 1_555
Al3 V0 2.716804 1_556
Al3 Mo0 2.716804 1_566
Al3 Mo0 2.716804 1_455
Al3 Sc0 2.832971 1_566
Al3 Sc0 3.179386 1_556
Al3 Sc0 3.179386 1_666
Mo0 V0 2.596985 1_655
Mo0 V0 2.596985 1_545
