# generated using pymatgen
data_Cs2AlZn3Sb4
_symmetry_space_group_name_H-M   'P 1'
_cell_length_a   8.98532209
_cell_length_b   8.98532110
_cell_length_c   6.10859116
_cell_angle_alpha   90.00000000
_cell_angle_beta   90.00000000
_cell_angle_gamma   140.86221276
_symmetry_Int_Tables_number   1
_chemical_formula_structural   Cs2AlZn3Sb4
_chemical_formula_sum   'Cs2 Al1 Zn3 Sb4'
_cell_volume   311.29108853
_cell_formula_units_Z   1
loop_
 _symmetry_equiv_pos_site_id
 _symmetry_equiv_pos_as_xyz
  1  'x, y, z'
loop_
 _atom_site_type_symbol
 _atom_site_label
 _atom_site_symmetry_multiplicity
 _atom_site_fract_x
 _atom_site_fract_y
 _atom_site_fract_z
 _atom_site_occupancy
  Cs  Cs0  1  0.50000000  0.00000000  0.25239756  1
  Cs  Cs1  1  0.00000000  0.50000000  0.74760244  1
  Al  Al0  1  0.00000000  0.00000000  0.00000000  1
  Zn  Zn0  1  0.50000000  0.50000000  0.50000000  1
  Zn  Zn1  1  0.50000000  0.50000000  0.00000000  1
  Zn  Zn2  1  0.00000000  0.00000000  0.50000000  1
  Sb  Sb0  1  0.65056251  0.85058518  0.75104913  1
  Sb  Sb1  1  0.14941482  0.34943749  0.24895087  1
  Sb  Sb2  1  0.85058518  0.65056251  0.24895087  1
  Sb  Sb3  1  0.34943749  0.14941482  0.75104913  1
loop_
_geom_bond_atom_site_label_1
_geom_bond_atom_site_label_2
_geom_bond_distance
_geom_bond_site_symmetry_2
Cs0 Sb1 3.935369 1_655
Cs0 Sb2 3.935369 1_445
Cs0 Sb2 3.940647 1_555
Cs0 Sb1 3.940647 1_545
Cs0 Sb0 3.965928 1_545
Cs0 Sb3 3.965928 1_555
Cs0 Sb0 3.978595 1_544
Cs0 Sb3 3.978595 1_554
Cs1 Sb3 3.935368 1_565
Cs1 Sb0 3.935368 1_445
Cs1 Sb0 3.940648 1_555
Cs1 Sb3 3.940648 1_455
Cs1 Sb2 3.965928 1_455
Cs1 Sb1 3.965928 1_555
Cs1 Sb1 3.978595 1_556
Cs1 Sb2 3.978595 1_456
Al0 Sb1 2.726609 1_555
Al0 Sb2 2.726609 1_445
Al0 Sb3 2.726610 1_554
Al0 Sb0 2.726610 1_444
Sb0 Zn1 2.730419 1_556
Sb0 Zn2 2.733779 1_665
Sb0 Zn0 2.737579 1_555
Sb1 Zn1 2.730419 1_555
Sb1 Zn2 2.733779 1_555
Sb1 Zn0 2.737579 1_555
Sb2 Zn1 2.730419 1_555
Sb2 Zn2 2.733779 1_665
Sb2 Zn0 2.737579 1_555
Sb3 Zn1 2.730419 1_556
Sb3 Zn2 2.733779 1_555
Sb3 Zn0 2.737579 1_555
