# generated using pymatgen
data_SrTi(NbSe2)6
_symmetry_space_group_name_H-M   'P 1'
_cell_length_a   6.07380579
_cell_length_b   6.07380678
_cell_length_c   14.31460258
_cell_angle_alpha   90.00000000
_cell_angle_beta   90.00000000
_cell_angle_gamma   120.00000551
_symmetry_Int_Tables_number   1
_chemical_formula_structural   SrTi(NbSe2)6
_chemical_formula_sum   'Sr1 Ti1 Nb6 Se12'
_cell_volume   457.33219519
_cell_formula_units_Z   1
loop_
 _symmetry_equiv_pos_site_id
 _symmetry_equiv_pos_as_xyz
  1  'x, y, z'
loop_
 _atom_site_type_symbol
 _atom_site_label
 _atom_site_symmetry_multiplicity
 _atom_site_fract_x
 _atom_site_fract_y
 _atom_site_fract_z
 _atom_site_occupancy
  Sr  Sr0  1  0.33333300  0.66666700  0.25000000  1
  Ti  Ti0  1  0.66666700  0.33333300  0.75000000  1
  Nb  Nb0  1  0.00000000  0.00000000  0.52677655  1
  Nb  Nb1  1  0.00000000  0.00000000  0.97322345  1
  Nb  Nb2  1  0.33333300  0.66666700  0.97450621  1
  Nb  Nb3  1  0.66666700  0.33333300  0.97301390  1
  Nb  Nb4  1  0.66666700  0.33333300  0.52698610  1
  Nb  Nb5  1  0.33333300  0.66666700  0.52549379  1
  Se  Se0  1  0.33347634  0.32779646  0.40981247  1
  Se  Se1  1  0.67220354  0.00568088  0.40981247  1
  Se  Se2  1  0.99431912  0.66652366  0.40981247  1
  Se  Se3  1  0.32981347  0.33431806  0.64290450  1
  Se  Se4  1  0.00450458  0.67018653  0.64290450  1
  Se  Se5  1  0.66568194  0.99549542  0.64290450  1
  Se  Se6  1  0.66568194  0.67018653  0.85709550  1
  Se  Se7  1  0.32981347  0.99549542  0.85709550  1
  Se  Se8  1  0.00450458  0.33431806  0.85709550  1
  Se  Se9  1  0.67220354  0.66652366  0.09018753  1
  Se  Se10  1  0.99431912  0.32779646  0.09018753  1
  Se  Se11  1  0.33347634  0.00568088  0.09018753  1
loop_
_geom_bond_atom_site_label_1
_geom_bond_atom_site_label_2
_geom_bond_distance
_geom_bond_site_symmetry_2
Nb0 Se5 2.613768 1_445
Nb0 Se3 2.613768 1_555
Nb0 Se4 2.613769 1_545
Nb0 Se2 2.614784 1_445
Nb0 Se0 2.614786 1_555
Nb0 Se1 2.614789 1_455
Nb1 Se6 2.613768 1_445
Nb1 Se7 2.613768 1_545
Nb1 Se8 2.613769 1_555
Nb1 Se11 2.614784 1_556
Nb1 Se9 2.614786 1_446
Nb1 Se10 2.614789 1_456
Nb2 Se7 2.618555 1_555
Nb2 Se8 2.618557 1_555
Nb2 Se6 2.618560 1_555
Nb2 Se10 2.642013 1_456
Nb2 Se9 2.642013 1_556
Nb2 Se11 2.642013 1_566
Nb3 Se10 2.615693 1_556
Nb3 Se11 2.615697 1_556
Nb3 Se9 2.615702 1_556
Nb3 Se8 2.636600 1_655
Nb3 Se7 2.636603 1_545
Nb3 Se6 2.636605 1_555
Nb4 Se1 2.615693 1_555
Nb4 Se2 2.615697 1_555
Nb4 Se0 2.615702 1_555
Nb4 Se5 2.636600 1_545
Nb4 Se4 2.636603 1_655
Nb4 Se3 2.636605 1_555
Nb5 Se4 2.618555 1_555
Nb5 Se5 2.618557 1_555
Nb5 Se3 2.618560 1_555
Nb5 Se1 2.642013 1_565
Nb5 Se2 2.642013 1_455
Nb5 Se0 2.642013 1_555
Se0 Sr0 3.077576 1_555
Se1 Sr0 3.077576 1_545
Se2 Sr0 3.077576 1_655
Se3 Ti0 2.559004 1_555
Se4 Ti0 2.559002 1_455
Se5 Ti0 2.559000 1_565
Se6 Ti0 2.559004 1_555
Se7 Ti0 2.559002 1_565
Se8 Ti0 2.558999 1_455
Se9 Sr0 3.077576 1_555
Se10 Sr0 3.077576 1_655
Se11 Sr0 3.077576 1_545
