# generated using pymatgen
data_SrCrP2Rh
_symmetry_space_group_name_H-M   'P 1'
_cell_length_a   6.59823129
_cell_length_b   6.59823138
_cell_length_c   6.59823216
_cell_angle_alpha   145.24854476
_cell_angle_beta   145.24854056
_cell_angle_gamma   49.96429165
_symmetry_Int_Tables_number   1
_chemical_formula_structural   SrCrP2Rh
_chemical_formula_sum   'Sr1 Cr1 P2 Rh1'
_cell_volume   92.88965032
_cell_formula_units_Z   1
loop_
 _symmetry_equiv_pos_site_id
 _symmetry_equiv_pos_as_xyz
  1  'x, y, z'
loop_
 _atom_site_type_symbol
 _atom_site_label
 _atom_site_symmetry_multiplicity
 _atom_site_fract_x
 _atom_site_fract_y
 _atom_site_fract_z
 _atom_site_occupancy
  Sr  Sr0  1  0.00000000  0.00000000  0.00000000  1
  Cr  Cr0  1  0.25000000  0.75000000  0.50000000  1
  P  P0  1  0.64336244  0.64336244  0.00000000  1
  P  P1  1  0.35663756  0.35663756  1.00000000  1
  Rh  Rh0  1  0.75000000  0.25000000  0.50000000  1
loop_
_geom_bond_atom_site_label_1
_geom_bond_atom_site_label_2
_geom_bond_distance
_geom_bond_site_symmetry_2
Cr0 P1 2.347309 1_565
Cr0 P0 2.347309 1_455
Cr0 P1 2.347309 1_554
Cr0 P0 2.347309 1_556
Cr0 Rh0 2.786669 1_555
Cr0 Rh0 2.786669 1_465
Cr0 Rh0 2.786670 1_566
Cr0 Rh0 2.786670 1_454
P0 Rh0 2.347309 1_565
P0 Rh0 2.347309 1_554
P0 Sr0 3.272050 1_565
P0 Sr0 3.272050 1_655
P0 Sr0 3.272050 1_554
P0 Sr0 3.272051 1_666
P1 Rh0 2.347309 1_455
P1 Rh0 2.347309 1_556
P1 Sr0 3.272050 1_656
P1 Sr0 3.272050 1_566
P1 Sr0 3.272050 1_667
P1 Sr0 3.272051 1_555
