# generated using pymatgen
data_LiSc2BRh5
_symmetry_space_group_name_H-M   'P 1'
_cell_length_a   5.67259473
_cell_length_b   5.61440386
_cell_length_c   5.61440407
_cell_angle_alpha   60.68690219
_cell_angle_beta   59.65655783
_cell_angle_gamma   59.65654886
_symmetry_Int_Tables_number   1
_chemical_formula_structural   LiSc2BRh5
_chemical_formula_sum   'Li1 Sc2 B1 Rh5'
_cell_volume   126.40952755
_cell_formula_units_Z   1
loop_
 _symmetry_equiv_pos_site_id
 _symmetry_equiv_pos_as_xyz
  1  'x, y, z'
loop_
 _atom_site_type_symbol
 _atom_site_label
 _atom_site_symmetry_multiplicity
 _atom_site_fract_x
 _atom_site_fract_y
 _atom_site_fract_z
 _atom_site_occupancy
  Li  Li0  1  0.73115353  0.26884747  0.26884747  1
  Sc  Sc0  1  0.24925644  0.25074356  0.25074356  1
  Sc  Sc1  1  0.74925644  0.75074356  0.75074356  1
  B  B0  1  0.00755878  0.99244122  0.99244122  1
  Rh  Rh0  1  0.25563496  0.74436604  0.25660577  1
  Rh  Rh1  1  0.74339323  0.74436404  0.25660777  1
  Rh  Rh2  1  0.25563496  0.25660577  0.74436604  1
  Rh  Rh3  1  0.74339323  0.25660777  0.74436404  1
  Rh  Rh4  1  0.26472043  0.73528057  0.73528057  1
loop_
_geom_bond_atom_site_label_1
_geom_bond_atom_site_label_2
_geom_bond_distance
_geom_bond_site_symmetry_2
Li0 Rh1 2.672057 1_555
Li0 Rh3 2.672057 1_555
Li0 Rh0 2.672069 1_555
Li0 Rh2 2.672070 1_555
Li0 Sc0 2.839856 1_655
Li0 Sc1 2.839862 1_545
Li0 Sc1 2.839862 1_554
Li0 Sc0 2.839867 1_555
B0 Rh4 2.020463 1_555
B0 Rh0 2.055636 1_556
B0 Rh2 2.055636 1_565
B0 Rh3 2.055644 1_465
B0 Rh1 2.055644 1_456
B0 Li0 2.171672 1_466
Rh0 Sc1 2.806213 1_554
Rh0 Sc0 2.806218 1_555
Rh0 Sc0 2.809045 1_565
Rh0 Sc1 2.809051 1_455
Rh1 Sc0 2.806213 1_655
Rh1 Sc1 2.806219 1_554
Rh1 Sc1 2.809045 1_555
Rh1 Sc0 2.809051 1_565
Rh2 Sc1 2.806213 1_545
Rh2 Sc0 2.806218 1_555
Rh2 Sc0 2.809045 1_556
Rh2 Sc1 2.809051 1_455
Rh3 Sc0 2.806213 1_655
Rh3 Sc1 2.806218 1_545
Rh3 Sc1 2.809045 1_555
Rh3 Sc0 2.809051 1_556
Rh4 Sc1 2.838892 1_555
Rh4 Sc0 2.838898 1_565
Rh4 Sc0 2.838898 1_556
Rh4 Sc1 2.838904 1_455
