# generated using pymatgen
data_CaNi(As4Ru)3
_symmetry_space_group_name_H-M   'P 1'
_cell_length_a   7.34275945
_cell_length_b   7.39884897
_cell_length_c   7.34275906
_cell_angle_alpha   109.62603257
_cell_angle_beta   109.31596472
_cell_angle_gamma   109.62604092
_symmetry_Int_Tables_number   1
_chemical_formula_structural   CaNi(As4Ru)3
_chemical_formula_sum   'Ca1 Ni1 As12 Ru3'
_cell_volume   306.49788742
_cell_formula_units_Z   1
loop_
 _symmetry_equiv_pos_site_id
 _symmetry_equiv_pos_as_xyz
  1  'x, y, z'
loop_
 _atom_site_type_symbol
 _atom_site_label
 _atom_site_symmetry_multiplicity
 _atom_site_fract_x
 _atom_site_fract_y
 _atom_site_fract_z
 _atom_site_occupancy
  Ca  Ca0  1  0.00000000  0.00000000  0.00000000  1
  Ni  Ni0  1  0.00000000  0.50000000  0.00000000  1
  As  As0  1  0.85164974  0.65260976  0.50299002  1
  As  As1  1  0.14835026  0.34739024  0.49700998  1
  As  As2  1  0.14717132  0.64999383  0.80113707  1
  As  As3  1  0.85282868  0.35000617  0.19886293  1
  As  As4  1  0.65396576  0.50282351  0.85282868  1
  As  As5  1  0.34603424  0.49717649  0.14717132  1
  As  As6  1  0.65134028  0.80096002  0.14835026  1
  As  As7  1  0.34865972  0.19903998  0.85164974  1
  As  As8  1  0.50299002  0.85038126  0.65134028  1
  As  As9  1  0.49700998  0.14961874  0.34865972  1
  As  As10  1  0.19886293  0.84885775  0.34603424  1
  As  As11  1  0.80113707  0.15114225  0.65396576  1
  Ru  Ru0  1  0.50000000  0.50000000  0.50000000  1
  Ru  Ru1  1  0.50000000  0.00000000  0.00000000  1
  Ru  Ru2  1  0.00000000  0.00000000  0.50000000  1
loop_
_geom_bond_atom_site_label_1
_geom_bond_atom_site_label_2
_geom_bond_distance
_geom_bond_site_symmetry_2
As0 Ru0 2.435135 1_555
As0 Ru2 2.442614 1_665
As0 As2 2.532922 1_655
As0 As3 2.582025 1_555
As0 Ca0 3.209270 1_666
As1 Ru0 2.435135 1_555
As1 Ru2 2.442614 1_555
As1 As3 2.532922 1_455
As1 As2 2.582025 1_555
As1 Ca0 3.209270 1_555
As2 Ni0 2.420427 1_556
As2 Ru1 2.449615 1_566
As2 Ca0 3.223329 1_566
As3 Ni0 2.420427 1_655
As3 Ru1 2.449615 1_555
As3 Ca0 3.223329 1_655
As4 Ni0 2.420431 1_656
As4 Ru0 2.449611 1_555
As4 As6 2.532917 1_556
As4 As7 2.582030 1_555
As4 Ca0 3.223323 1_666
As5 Ni0 2.420431 1_555
As5 Ru0 2.449611 1_555
As5 As7 2.532917 1_554
As5 As6 2.582030 1_555
As5 Ca0 3.223323 1_555
As6 Ru2 2.435135 1_665
As6 Ru1 2.442614 1_565
As6 Ca0 3.209270 1_665
As7 Ru2 2.435135 1_555
As7 Ru1 2.442614 1_556
As7 Ca0 3.209270 1_556
As8 Ru1 2.435134 1_566
As8 Ru0 2.442621 1_555
As8 Ca0 3.209272 1_666
As9 Ru1 2.435134 1_555
As9 Ru0 2.442621 1_555
As9 Ca0 3.209272 1_555
As10 Ni0 2.420431 1_555
As10 Ru2 2.449612 1_565
As10 As9 2.532913 1_565
As10 As8 2.582025 1_555
As10 Ca0 3.223323 1_565
As11 Ni0 2.420431 1_656
As11 Ru2 2.449612 1_655
As11 As8 2.532913 1_545
As11 As9 2.582025 1_555
As11 Ca0 3.223323 1_656
