# generated using pymatgen
data_ScAl2VCo4
_symmetry_space_group_name_H-M   'P 1'
_cell_length_a   7.16273369
_cell_length_b   7.16273409
_cell_length_c   7.16273446
_cell_angle_alpha   33.38577126
_cell_angle_beta   33.38576719
_cell_angle_gamma   33.38576782
_symmetry_Int_Tables_number   1
_chemical_formula_structural   ScAl2VCo4
_chemical_formula_sum   'Sc1 Al2 V1 Co4'
_cell_volume   99.08642687
_cell_formula_units_Z   1
loop_
 _symmetry_equiv_pos_site_id
 _symmetry_equiv_pos_as_xyz
  1  'x, y, z'
loop_
 _atom_site_type_symbol
 _atom_site_label
 _atom_site_symmetry_multiplicity
 _atom_site_fract_x
 _atom_site_fract_y
 _atom_site_fract_z
 _atom_site_occupancy
  Sc  Sc0  1  0.00000000  0.00000000  0.00000000  1
  Al  Al0  1  0.24882270  0.24882270  0.24882270  1
  Al  Al1  1  0.75117730  0.75117730  0.75117730  1
  V  V0  1  0.50000000  0.50000000  0.50000000  1
  Co  Co0  1  0.61909283  0.61909283  0.61909283  1
  Co  Co1  1  0.12944646  0.12944646  0.12944646  1
  Co  Co2  1  0.87055354  0.87055354  0.87055354  1
  Co  Co3  1  0.38090717  0.38090717  0.38090717  1
loop_
_geom_bond_atom_site_label_1
_geom_bond_atom_site_label_2
_geom_bond_distance
_geom_bond_site_symmetry_2
Al0 Co1 2.419973 1_555
Al0 Co0 2.490927 1_455
Al0 Co0 2.490927 1_554
Al0 Co0 2.490927 1_545
Al0 Co2 2.544375 1_544
Al0 Co2 2.544375 1_445
Al0 Co2 2.544375 1_454
Al0 Co3 2.677592 1_555
Al1 Co2 2.419973 1_555
Al1 Co3 2.490927 1_655
Al1 Co3 2.490927 1_556
Al1 Co3 2.490927 1_565
Al1 Co1 2.544375 1_566
Al1 Co1 2.544375 1_665
Al1 Co1 2.544375 1_656
Al1 Co0 2.677592 1_555
Co0 V0 2.414228 1_555
Co0 Sc0 2.564007 1_566
Co0 Sc0 2.564007 1_665
Co0 Sc0 2.564008 1_656
Co1 V0 2.492660 1_455
Co1 V0 2.492660 1_554
Co1 V0 2.492660 1_545
Co1 Sc0 2.624114 1_555
Co2 V0 2.492660 1_655
Co2 V0 2.492660 1_556
Co2 V0 2.492660 1_565
Co2 Sc0 2.624114 1_666
Co3 V0 2.414228 1_555
Co3 Sc0 2.564007 1_655
Co3 Sc0 2.564007 1_556
Co3 Sc0 2.564008 1_565
