# generated using pymatgen
data_LuSi2IrRu
_symmetry_space_group_name_H-M   'P 1'
_cell_length_a   5.60010866
_cell_length_b   5.60010814
_cell_length_c   5.60010875
_cell_angle_alpha   137.16518978
_cell_angle_beta   137.16518661
_cell_angle_gamma   62.18398658
_symmetry_Int_Tables_number   1
_chemical_formula_structural   LuSi2IrRu
_chemical_formula_sum   'Lu1 Si2 Ir1 Ru1'
_cell_volume   80.21593510
_cell_formula_units_Z   1
loop_
 _symmetry_equiv_pos_site_id
 _symmetry_equiv_pos_as_xyz
  1  'x, y, z'
loop_
 _atom_site_type_symbol
 _atom_site_label
 _atom_site_symmetry_multiplicity
 _atom_site_fract_x
 _atom_site_fract_y
 _atom_site_fract_z
 _atom_site_occupancy
  Lu  Lu0  1  0.00000000  0.00000000  0.00000000  1
  Si  Si0  1  0.62531719  0.62531719  0.00000000  1
  Si  Si1  1  0.37468281  0.37468281  1.00000000  1
  Ir  Ir0  1  0.25000000  0.75000000  0.50000000  1
  Ru  Ru0  1  0.75000000  0.25000000  0.50000000  1
loop_
_geom_bond_atom_site_label_1
_geom_bond_atom_site_label_2
_geom_bond_distance
_geom_bond_site_symmetry_2
Lu0 Si0 3.131799 1_455
Lu0 Si1 3.131799 1_544
Lu0 Si0 3.131799 1_545
Lu0 Si1 3.131799 1_454
Lu0 Si0 3.131799 1_556
Lu0 Si1 3.131799 1_443
Lu0 Si0 3.131799 1_444
Lu0 Si1 3.131799 1_555
Lu0 Ru0 3.151377 1_444
Lu0 Ru0 3.151378 1_454
Lu0 Ru0 3.151378 1_555
Lu0 Ru0 3.151378 1_455
Si0 Si1 2.403881 1_554
Ir0 Si1 2.368929 1_565
Ir0 Si1 2.368929 1_554
Ir0 Si0 2.368929 1_556
Ir0 Si0 2.368929 1_455
Ir0 Lu0 3.151377 1_555
Ir0 Lu0 3.151378 1_565
Ir0 Lu0 3.151378 1_666
Ir0 Lu0 3.151378 1_566
Ru0 Si0 2.368929 1_545
Ru0 Si0 2.368929 1_556
Ru0 Si1 2.368929 1_554
Ru0 Si1 2.368929 1_655
