# generated using pymatgen
data_BaSr2(LiSn2)4
_symmetry_space_group_name_H-M   'P 1'
_cell_length_a   9.82450833
_cell_length_b   9.82450723
_cell_length_c   6.77951009
_cell_angle_alpha   81.44105076
_cell_angle_beta   81.44105269
_cell_angle_gamma   39.58888152
_symmetry_Int_Tables_number   1
_chemical_formula_structural   BaSr2(LiSn2)4
_chemical_formula_sum   'Ba1 Sr2 Li4 Sn8'
_cell_volume   411.76040964
_cell_formula_units_Z   1
loop_
 _symmetry_equiv_pos_site_id
 _symmetry_equiv_pos_as_xyz
  1  'x, y, z'
loop_
 _atom_site_type_symbol
 _atom_site_label
 _atom_site_symmetry_multiplicity
 _atom_site_fract_x
 _atom_site_fract_y
 _atom_site_fract_z
 _atom_site_occupancy
  Ba  Ba0  1  0.67975628  0.67975628  0.68820775  1
  Sr  Sr0  1  0.32175587  0.32175587  0.32264592  1
  Sr  Sr1  1  0.00004059  0.00004059  0.99880857  1
  Li  Li0  1  0.78691773  0.78691773  0.12731146  1
  Li  Li1  1  0.21304433  0.21304433  0.87673682  1
  Li  Li2  1  0.78705042  0.21507003  0.49889300  1
  Li  Li3  1  0.21507003  0.78705042  0.49889300  1
  Sn  Sn0  1  0.41535727  0.87805994  0.19451114  1
  Sn  Sn1  1  0.58264851  0.12022358  0.80400047  1
  Sn  Sn2  1  0.87805994  0.41535727  0.19451114  1
  Sn  Sn3  1  0.13088240  0.13088240  0.54684439  1
  Sn  Sn4  1  0.87315911  0.87315911  0.44396988  1
  Sn  Sn5  1  0.48682783  0.48682783  0.79618721  1
  Sn  Sn6  1  0.50920711  0.50920711  0.20447878  1
  Sn  Sn7  1  0.12022358  0.58264851  0.80400047  1
loop_
_geom_bond_atom_site_label_1
_geom_bond_atom_site_label_2
_geom_bond_distance
_geom_bond_site_symmetry_2
Ba0 Sn5 3.525963 1_555
Ba0 Sn3 3.616360 1_655
Ba0 Sn3 3.616360 1_565
Ba0 Li1 3.651081 1_565
Ba0 Li1 3.651081 1_655
Ba0 Sn4 3.695124 1_555
Ba0 Sn2 3.723128 1_556
Ba0 Sn0 3.723128 1_556
Ba0 Sn2 3.820028 1_555
Ba0 Sn0 3.820028 1_555
Ba0 Li0 3.827912 1_556
Ba0 Sn1 3.831152 1_565
Ba0 Sn7 3.831153 1_655
Ba0 Li0 4.000211 1_555
Li0 Sn4 2.869450 1_555
Li0 Sn1 2.932396 1_564
Li0 Sn7 2.932396 1_654
Li0 Sn2 2.987181 1_555
Li0 Sn0 2.987182 1_555
Li0 Sr0 3.675261 1_565
Li0 Sr0 3.675261 1_655
Li0 Sr1 3.898513 1_664
Li1 Sn3 2.895528 1_555
Li1 Sn0 2.916342 1_546
Li1 Sn2 2.916343 1_456
Li1 Sn7 2.959293 1_555
Li1 Sn1 2.959293 1_555
Li1 Sr1 3.893829 1_555
Li2 Sn6 2.744621 1_555
Li2 Sn5 2.754115 1_555
Li2 Sn4 2.834886 1_545
Li2 Li3 2.848074 1_645
Li2 Sn3 2.853269 1_655
Li2 Sn2 3.143811 1_555
Li2 Sn1 3.202112 1_555
Li2 Sr1 3.673497 1_655
Li2 Sr1 3.680051 1_654
Li3 Sn6 2.744621 1_555
Li3 Sn5 2.754115 1_555
Li3 Sn4 2.834887 1_455
Li3 Sn3 2.853268 1_565
Li3 Sn0 3.143811 1_555
Li3 Sn7 3.202112 1_555
Li3 Sr1 3.673498 1_565
Li3 Sr1 3.680051 1_564
Sn0 Sn3 2.960691 1_565
Sn0 Sn6 2.963527 1_555
Sn0 Sn2 3.078857 1_555
Sn0 Sr1 3.666981 1_564
Sn1 Sn5 2.931467 1_555
Sn1 Sn4 3.001282 1_545
Sn1 Sn7 3.077009 1_555
Sn1 Sr1 3.693129 1_655
Sn1 Sr0 3.726126 1_555
Sn1 Sr0 3.797517 1_556
Sn2 Sn3 2.960691 1_655
Sn2 Sn6 2.963528 1_555
Sn2 Sr1 3.666980 1_654
Sn3 Sr1 3.591031 1_555
Sn3 Sr0 3.614751 1_555
Sn4 Sn7 3.001282 1_655
Sn4 Sr1 3.517289 1_664
Sn4 Sr0 3.591119 1_655
Sn4 Sr0 3.591120 1_565
Sn5 Sn6 2.862762 1_556
Sn5 Sn7 2.931468 1_555
Sn5 Sr1 3.622427 1_565
Sn5 Sr1 3.622427 1_655
Sn6 Sr0 3.431313 1_555
Sn6 Sr1 3.621717 1_564
Sn6 Sr1 3.621717 1_654
Sn7 Sr1 3.693128 1_565
Sn7 Sr0 3.726126 1_555
Sn7 Sr0 3.797517 1_556
