# generated using pymatgen
data_BaSr(MnCl6)2
_symmetry_space_group_name_H-M   'P 1'
_cell_length_a   6.43677312
_cell_length_b   6.43677536
_cell_length_c   10.19690677
_cell_angle_alpha   89.27909539
_cell_angle_beta   89.27907784
_cell_angle_gamma   85.90051999
_symmetry_Int_Tables_number   1
_chemical_formula_structural   BaSr(MnCl6)2
_chemical_formula_sum   'Ba1 Sr1 Mn2 Cl12'
_cell_volume   421.33567512
_cell_formula_units_Z   1
loop_
 _symmetry_equiv_pos_site_id
 _symmetry_equiv_pos_as_xyz
  1  'x, y, z'
loop_
 _atom_site_type_symbol
 _atom_site_label
 _atom_site_symmetry_multiplicity
 _atom_site_fract_x
 _atom_site_fract_y
 _atom_site_fract_z
 _atom_site_occupancy
  Ba  Ba0  1  0.96894978  0.03105022  0.25000000  1
  Sr  Sr0  1  0.03255968  0.96744032  0.75000000  1
  Mn  Mn0  1  0.50232394  0.00318453  0.50885313  1
  Mn  Mn1  1  0.99681547  0.49767606  0.99114687  1
  Cl  Cl0  1  0.32707653  0.72309474  0.56711155  1
  Cl  Cl1  1  0.67215116  0.28604431  0.45040566  1
  Cl  Cl2  1  0.27690526  0.67292347  0.93288845  1
  Cl  Cl3  1  0.71395569  0.32784884  0.04959434  1
  Cl  Cl4  1  0.54145052  0.07568845  0.72437000  1
  Cl  Cl5  1  0.47010056  0.92619824  0.29073675  1
  Cl  Cl6  1  0.92431155  0.45854948  0.77563000  1
  Cl  Cl7  1  0.07380176  0.52989945  0.20926325  1
  Cl  Cl8  1  0.79806806  0.80695984  0.99146519  1
  Cl  Cl9  1  0.19785027  0.18935838  0.98854861  1
  Cl  Cl10  1  0.19304016  0.20193194  0.50853481  1
  Cl  Cl11  1  0.81064162  0.80214973  0.51145139  1
loop_
_geom_bond_atom_site_label_1
_geom_bond_atom_site_label_2
_geom_bond_distance
_geom_bond_site_symmetry_2
Ba0 Cl1 3.171359 1_555
Ba0 Cl3 3.171360 1_555
Ba0 Cl9 3.219345 1_654
Ba0 Cl11 3.219346 1_545
Ba0 Cl10 3.261250 1_655
Ba0 Cl8 3.261250 1_544
Ba0 Cl5 3.278595 1_645
Ba0 Cl7 3.278596 1_645
Ba0 Cl5 3.347785 1_545
Ba0 Cl7 3.347786 1_655
Cl0 Mn0 2.263331 1_565
Cl0 Sr0 3.017266 1_555
Cl1 Mn0 2.259642 1_555
Cl2 Mn1 2.263330 1_455
Cl2 Sr0 3.017267 1_555
Cl3 Mn1 2.259641 1_554
Cl4 Mn0 2.273156 1_555
Cl4 Sr0 3.201249 1_645
Cl4 Sr0 3.403475 1_545
Cl5 Mn0 2.299847 1_565
Cl6 Mn1 2.273156 1_555
Cl6 Sr0 3.201250 1_645
Cl6 Sr0 3.403476 1_655
Cl7 Mn1 2.299847 1_454
Cl8 Mn1 2.288180 1_555
Cl8 Sr0 3.077833 1_655
Cl9 Mn1 2.290631 1_455
Cl9 Sr0 3.075565 1_545
Cl10 Mn0 2.288180 1_555
Cl10 Sr0 3.077833 1_545
Cl11 Mn0 2.290630 1_565
Cl11 Sr0 3.075565 1_655
