# generated using pymatgen
data_Na2ReH9
_symmetry_space_group_name_H-M   'P 1'
_cell_length_a   8.62761149
_cell_length_b   8.62761064
_cell_length_c   5.07598247
_cell_angle_alpha   90.00000000
_cell_angle_beta   90.00000000
_cell_angle_gamma   120.00000696
_symmetry_Int_Tables_number   1
_chemical_formula_structural   Na2ReH9
_chemical_formula_sum   'Na6 Re3 H27'
_cell_volume   327.21396645
_cell_formula_units_Z   3
loop_
 _symmetry_equiv_pos_site_id
 _symmetry_equiv_pos_as_xyz
  1  'x, y, z'
loop_
 _atom_site_type_symbol
 _atom_site_label
 _atom_site_symmetry_multiplicity
 _atom_site_fract_x
 _atom_site_fract_y
 _atom_site_fract_z
 _atom_site_occupancy
  Na  Na0  1  1.00000000  0.26517976  0.50000000  1
  Na  Na1  1  0.73482024  0.73482024  0.50000000  1
  Na  Na2  1  0.26517976  1.00000000  0.50000000  1
  Na  Na3  1  0.00000000  0.59846353  0.00000000  1
  Na  Na4  1  0.40153647  0.40153647  0.00000000  1
  Na  Na5  1  0.59846353  0.00000000  0.00000000  1
  Re  Re0  1  0.66666700  0.33333300  0.50000000  1
  Re  Re1  1  0.33333300  0.66666700  0.50000000  1
  Re  Re2  1  0.00000000  0.00000000  0.00000000  1
  H  H0  1  0.80067030  0.32594958  0.73977954  1
  H  H1  1  0.67405042  0.47471872  0.73977954  1
  H  H2  1  0.52528128  0.19932970  0.73977954  1
  H  H3  1  0.19932970  0.52528128  0.26022046  1
  H  H4  1  0.52528128  0.19932970  0.26022046  1
  H  H5  1  0.80067030  0.32594958  0.26022046  1
  H  H6  1  0.67405042  0.47471872  0.26022046  1
  H  H7  1  0.32594958  0.80067030  0.73977954  1
  H  H8  1  0.47471872  0.67405042  0.73977954  1
  H  H9  1  0.19369220  0.00000000  0.00000000  1
  H  H10  1  0.80630780  0.80630780  0.00000000  1
  H  H11  1  0.00000000  0.19369220  0.00000000  1
  H  H12  1  0.85990517  1.00000000  0.23479620  1
  H  H13  1  0.14009483  0.14009483  0.76520380  1
  H  H14  1  1.00000000  0.85990517  0.76520380  1
  H  H15  1  1.00000000  0.85990517  0.23479620  1
  H  H16  1  0.14009483  0.14009483  0.23479620  1
  H  H17  1  0.85990517  1.00000000  0.76520380  1
  H  H18  1  0.13584515  0.65725821  0.50000000  1
  H  H19  1  0.52141206  0.86415485  0.50000000  1
  H  H20  1  0.34274179  0.47858794  0.50000000  1
  H  H21  1  0.47858794  0.34274179  0.50000000  1
  H  H22  1  0.86415485  0.52141206  0.50000000  1
  H  H23  1  0.65725821  0.13584515  0.50000000  1
  H  H24  1  0.19932970  0.52528128  0.73977954  1
  H  H25  1  0.32594958  0.80067030  0.26022046  1
  H  H26  1  0.47471872  0.67405042  0.26022046  1
loop_
_geom_bond_atom_site_label_1
_geom_bond_atom_site_label_2
_geom_bond_distance
_geom_bond_site_symmetry_2
H0 Re0 1.701679 1_555
H0 Na0 2.369688 1_555
H0 Na3 2.487315 1_656
H1 Re0 1.701673 1_555
H1 Na1 2.369702 1_555
H1 Na4 2.487319 1_556
H2 Re0 1.701675 1_555
H2 Na2 2.369698 1_545
H2 Na5 2.487305 1_556
H3 Re1 1.701675 1_555
H3 Na0 2.369698 1_455
H3 Na3 2.487305 1_555
H4 Re0 1.701675 1_555
H4 Na2 2.369698 1_545
H4 Na5 2.487305 1_555
H5 Re0 1.701679 1_555
H5 Na0 2.369688 1_555
H5 Na3 2.487315 1_655
H6 Re0 1.701673 1_555
H6 Na1 2.369702 1_555
H6 Na4 2.487319 1_555
H7 Re1 1.701679 1_555
H7 Na2 2.369688 1_555
H7 Na5 2.487315 1_566
H8 Re1 1.701673 1_555
H8 Na1 2.369702 1_555
H8 Na4 2.487319 1_556
H9 Re2 1.671101 1_555
H9 Na2 2.611858 1_544
H9 Na2 2.611858 1_545
H10 Re2 1.671101 1_665
H10 Na1 2.611858 1_555
H10 Na1 2.611858 1_554
H11 Re2 1.671101 1_555
H11 Na0 2.611858 1_455
H11 Na0 2.611858 1_454
H12 Re2 1.697455 1_665
H12 Na0 2.396272 1_565
H12 Na1 2.396272 1_555
H12 Na5 2.551126 1_565
H13 Re2 1.697455 1_556
H13 Na2 2.396272 1_545
H13 Na0 2.396272 1_455
H13 Na4 2.551126 1_556
H14 Re2 1.697455 1_666
H14 Na2 2.396272 1_655
H14 Na1 2.396272 1_555
H14 Na3 2.551126 1_656
H15 Re2 1.697455 1_665
H15 Na2 2.396272 1_655
H15 Na1 2.396272 1_555
H15 Na3 2.551126 1_655
H16 Re2 1.697455 1_555
H16 Na2 2.396272 1_545
H16 Na0 2.396272 1_455
H16 Na4 2.551126 1_555
H17 Re2 1.697455 1_666
H17 Na0 2.396272 1_565
H17 Na1 2.396272 1_555
H17 Na5 2.551126 1_566
H18 Re1 1.664746 1_555
H18 Na2 2.586427 1_555
H19 Re1 1.664746 1_555
H19 Na1 2.586436 1_555
H20 Re1 1.664746 1_555
H20 Na0 2.586429 1_455
H21 Re0 1.664746 1_555
H21 Na2 2.586429 1_545
H22 Re0 1.664746 1_555
H22 Na1 2.586436 1_555
H23 Re0 1.664746 1_555
H23 Na0 2.586428 1_555
H24 Re1 1.701675 1_555
H24 Na0 2.369698 1_455
H24 Na3 2.487305 1_556
H25 Re1 1.701679 1_555
H25 Na2 2.369688 1_555
H25 Na5 2.487315 1_565
H26 Re1 1.701673 1_555
H26 Na1 2.369702 1_555
H26 Na4 2.487319 1_555
