# generated using pymatgen
data_Fe4(PO4)3
_symmetry_space_group_name_H-M   'P 1'
_cell_length_a   8.85325023
_cell_length_b   8.85325023
_cell_length_c   6.56250998
_cell_angle_alpha   73.13316058
_cell_angle_beta   73.13316058
_cell_angle_gamma   92.76611410
_symmetry_Int_Tables_number   1
_chemical_formula_structural   Fe4(PO4)3
_chemical_formula_sum   'Fe8 P6 O24'
_cell_volume   466.11480620
_cell_formula_units_Z   2
loop_
 _symmetry_equiv_pos_site_id
 _symmetry_equiv_pos_as_xyz
  1  'x, y, z'
loop_
 _atom_site_type_symbol
 _atom_site_label
 _atom_site_symmetry_multiplicity
 _atom_site_fract_x
 _atom_site_fract_y
 _atom_site_fract_z
 _atom_site_occupancy
  Fe  Fe0  1  0.64695300  0.93446500  0.61682000  1
  Fe  Fe1  1  0.24683500  0.75585700  0.24714100  1
  Fe  Fe2  1  0.50804200  0.50163300  0.74017300  1
  Fe  Fe3  1  0.93446500  0.64695300  0.11682000  1
  Fe  Fe4  1  0.06040600  0.36912300  0.88243600  1
  Fe  Fe5  1  0.50163300  0.50804200  0.24017300  1
  Fe  Fe6  1  0.75585700  0.24683500  0.74714100  1
  Fe  Fe7  1  0.36912300  0.06040600  0.38243600  1
  P  P0  1  0.34535900  0.13149900  0.87085200  1
  P  P1  1  0.71007500  0.28904900  0.24815400  1
  P  P2  1  0.13149900  0.34535900  0.37085200  1
  P  P3  1  0.88026800  0.64169100  0.63137800  1
  P  P4  1  0.28904900  0.71007500  0.74815400  1
  P  P5  1  0.64169100  0.88026800  0.13137800  1
  O  O0  1  0.26917700  0.48365700  0.31265100  1
  O  O1  1  0.26196100  0.82350700  0.53566300  1
  O  O2  1  0.80921800  0.78940700  0.65989300  1
  O  O3  1  0.46853400  0.72638000  0.73806900  1
  O  O4  1  0.78940700  0.80921800  0.15989300  1
  O  O5  1  0.50421600  0.74279300  0.17205200  1
  O  O6  1  0.67277700  0.00362500  0.89552600  1
  O  O7  1  0.57849800  0.96451500  0.31271400  1
  O  O8  1  0.33031400  0.01042900  0.10545600  1
  O  O9  1  0.39100700  0.04661400  0.68929700  1
  O  O10  1  0.82350700  0.26196100  0.03566300  1
  O  O11  1  0.73451600  0.18247100  0.46275200  1
  O  O12  1  0.19835400  0.18760400  0.38067500  1
  O  O13  1  0.53123500  0.26791500  0.24829800  1
  O  O14  1  0.96451500  0.57849800  0.81271400  1
  O  O15  1  0.48365700  0.26917700  0.81265100  1
  O  O16  1  0.04661400  0.39100700  0.18929700  1
  O  O17  1  0.01042900  0.33031400  0.60545600  1
  O  O18  1  0.72638000  0.46853400  0.23806900  1
  O  O19  1  0.18247100  0.73451600  0.96275200  1
  O  O20  1  0.74279300  0.50421600  0.67205200  1
  O  O21  1  0.26791500  0.53123500  0.74829800  1
  O  O22  1  0.00362500  0.67277700  0.39552600  1
  O  O23  1  0.18760400  0.19835400  0.88067500  1
loop_
_geom_bond_atom_site_label_1
_geom_bond_atom_site_label_2
_geom_bond_distance
_geom_bond_site_symmetry_2
Fe0 O2 1.998988 1_555
Fe0 O11 2.129973 1_565
Fe0 O6 2.156725 1_565
Fe0 O3 2.158977 1_555
Fe0 O7 2.197774 1_555
Fe0 O9 2.492461 1_565
Fe1 O22 2.083336 1_555
Fe1 O19 2.157513 1_554
Fe1 O8 2.171340 1_565
Fe1 O1 2.181554 1_555
Fe1 O5 2.203498 1_555
Fe1 O0 2.350638 1_555
Fe2 O15 1.958997 1_555
Fe2 O20 1.992503 1_555
Fe2 O3 2.033626 1_555
Fe2 O21 2.141752 1_555
Fe3 O4 1.998988 1_555
Fe3 O19 2.129973 1_654
Fe3 O22 2.156725 1_655
Fe3 O18 2.158977 1_555
Fe3 O14 2.197774 1_554
Fe3 O16 2.492461 1_655
Fe4 O23 1.928965 1_555
Fe4 O16 2.047865 1_556
Fe4 O14 2.061844 1_455
Fe4 O21 2.069712 1_555
Fe4 O10 2.083392 1_456
Fe4 O17 2.105289 1_555
Fe5 O0 1.958997 1_555
Fe5 O5 1.992503 1_555
Fe5 O18 2.033626 1_555
Fe5 O13 2.141752 1_555
Fe6 O6 2.083336 1_555
Fe6 O11 2.157513 1_555
Fe6 O17 2.171340 1_655
Fe6 O10 2.181554 1_556
Fe6 O20 2.203498 1_555
Fe6 O15 2.350638 1_555
Fe7 O12 1.928965 1_555
Fe7 O9 2.047865 1_555
Fe7 O7 2.061844 1_545
Fe7 O13 2.069712 1_555
Fe7 O1 2.083392 1_545
Fe7 O8 2.105289 1_555
O0 P2 1.563694 1_555
O1 P4 1.554104 1_555
O2 P3 1.514610 1_555
O3 P4 1.568920 1_555
O4 P5 1.514610 1_555
O5 P5 1.585527 1_555
O6 P5 1.551442 1_546
O7 P5 1.566667 1_555
O8 P0 1.564151 1_554
O9 P0 1.554717 1_555
O10 P1 1.554104 1_555
O11 P1 1.531625 1_555
O12 P2 1.534529 1_555
O13 P1 1.585034 1_555
O14 P3 1.566667 1_555
O15 P0 1.563694 1_555
O16 P2 1.554717 1_555
O17 P2 1.564151 1_555
O18 P1 1.568920 1_555
O19 P4 1.531625 1_555
O20 P3 1.585527 1_555
O21 P4 1.585034 1_555
O22 P3 1.551442 1_455
O23 P0 1.534529 1_555
