# generated using pymatgen
data_K4Hf6RuI18
_symmetry_space_group_name_H-M   'P 1'
_cell_length_a   11.15237620
_cell_length_b   11.29711570
_cell_length_c   11.40010477
_cell_angle_alpha   118.51151842
_cell_angle_beta   100.29219154
_cell_angle_gamma   103.92910431
_symmetry_Int_Tables_number   1
_chemical_formula_structural   K4Hf6RuI18
_chemical_formula_sum   'K4 Hf6 Ru1 I18'
_cell_volume   1150.13322120
_cell_formula_units_Z   1
loop_
 _symmetry_equiv_pos_site_id
 _symmetry_equiv_pos_as_xyz
  1  'x, y, z'
loop_
 _atom_site_type_symbol
 _atom_site_label
 _atom_site_symmetry_multiplicity
 _atom_site_fract_x
 _atom_site_fract_y
 _atom_site_fract_z
 _atom_site_occupancy
  K  K0  1  0.64722435  0.53621382  0.22711210  1
  K  K1  1  0.35277565  0.46378618  0.77288790  1
  K  K2  1  0.68772129  0.22775872  0.56761632  1
  K  K3  1  0.31227871  0.77224128  0.43238368  1
  Hf  Hf0  1  0.15190106  0.05689679  0.23052994  1
  Hf  Hf1  1  0.84809894  0.94310321  0.76947006  1
  Hf  Hf2  1  0.86316377  0.12716515  0.13399116  1
  Hf  Hf3  1  0.13683623  0.87283485  0.86600884  1
  Hf  Hf4  1  0.14549275  0.23886710  0.04445662  1
  Hf  Hf5  1  0.85450725  0.76113290  0.95554338  1
  Ru  Ru0  1  0.00000000  0.00000000  0.00000000  1
  I  I0  1  0.00980391  0.41716015  0.20113347  1
  I  I1  1  0.99019609  0.58283985  0.79886653  1
  I  I2  1  0.33608482  0.34025779  0.31595123  1
  I  I3  1  0.66391518  0.65974221  0.68404877  1
  I  I4  1  0.32321509  0.52716502  0.09782460  1
  I  I5  1  0.67678491  0.47283498  0.90217540  1
  I  I6  1  0.00704116  0.79349679  0.21345447  1
  I  I7  1  0.99295884  0.20650321  0.78654553  1
  I  I8  1  0.70200196  0.27934754  0.29253182  1
  I  I9  1  0.29799804  0.72065246  0.70746818  1
  I  I10  1  0.32022131  0.12916437  0.89932360  1
  I  I11  1  0.67977869  0.87083563  0.10067640  1
  I  I12  1  0.01831638  0.20947737  0.41687684  1
  I  I13  1  0.98168362  0.79052263  0.58312316  1
  I  I14  1  0.32571886  0.92167525  0.11081819  1
  I  I15  1  0.67428114  0.07832475  0.88918181  1
  I  I16  1  0.33896503  0.12222193  0.50725506  1
  I  I17  1  0.66103497  0.87777807  0.49274494  1
loop_
_geom_bond_atom_site_label_1
_geom_bond_atom_site_label_2
_geom_bond_distance
_geom_bond_site_symmetry_2
Hf0 Ru0 2.542029 1_555
Hf0 I14 2.886957 1_545
Hf0 I6 2.919349 1_545
Hf0 I2 2.925494 1_555
Hf0 I12 2.928319 1_555
Hf0 I16 3.087624 1_555
Hf1 Ru0 2.542029 1_666
Hf1 I15 2.886957 1_565
Hf1 I7 2.919349 1_565
Hf1 I3 2.925494 1_555
Hf1 I13 2.928319 1_555
Hf1 I17 3.087624 1_555
Hf2 Ru0 2.553319 1_655
Hf2 I15 2.898312 1_554
Hf2 I11 2.921262 1_545
Hf2 I0 2.927894 1_655
Hf2 I12 2.937231 1_655
Hf2 I8 3.022382 1_555
Hf3 Ru0 2.553319 1_566
Hf3 I14 2.898312 1_556
Hf3 I10 2.921262 1_565
Hf3 I1 2.927894 1_455
Hf3 I13 2.937231 1_455
Hf3 I9 3.022382 1_555
Hf4 Ru0 2.542456 1_555
Hf4 I10 2.903067 1_554
Hf4 I2 2.915817 1_555
Hf4 I0 2.921629 1_555
Hf4 I7 2.925637 1_454
Hf4 I4 3.078268 1_555
Hf5 Ru0 2.542456 1_666
Hf5 I11 2.903067 1_556
Hf5 I3 2.915817 1_555
Hf5 I1 2.921629 1_555
Hf5 I6 2.925637 1_656
Hf5 I5 3.078268 1_555
I0 K3 3.825203 1_555
I1 K2 3.825203 1_555
I4 K1 3.515855 1_554
I4 K3 3.531965 1_555
I4 K0 3.607657 1_555
I5 K0 3.515855 1_556
I5 K2 3.531965 1_555
I5 K1 3.607657 1_555
I6 K3 3.975494 1_555
I7 K2 3.975494 1_555
I8 K2 3.475353 1_555
I8 K0 3.479493 1_555
I9 K3 3.475353 1_555
I9 K1 3.479493 1_555
I16 K1 3.532038 1_555
I16 K3 3.545475 1_545
I16 K2 3.612578 1_555
I17 K0 3.532038 1_555
I17 K2 3.545475 1_565
I17 K3 3.612578 1_555
