# generated using pymatgen
data_NaHfCrS4
_symmetry_space_group_name_H-M   'P 1'
_cell_length_a   7.13479968
_cell_length_b   13.86049377
_cell_length_c   6.14099485
_cell_angle_alpha   90.05194917
_cell_angle_beta   89.98784484
_cell_angle_gamma   89.73585535
_symmetry_Int_Tables_number   1
_chemical_formula_structural   NaHfCrS4
_chemical_formula_sum   'Na4 Hf4 Cr4 S16'
_cell_volume   607.28760277
_cell_formula_units_Z   4
loop_
 _symmetry_equiv_pos_site_id
 _symmetry_equiv_pos_as_xyz
  1  'x, y, z'
loop_
 _atom_site_type_symbol
 _atom_site_label
 _atom_site_symmetry_multiplicity
 _atom_site_fract_x
 _atom_site_fract_y
 _atom_site_fract_z
 _atom_site_occupancy
  Na  Na0  1  0.00095502  0.00057780  0.34119515  1
  Na  Na1  1  0.50089788  0.49828283  0.66658833  1
  Na  Na2  1  0.99614982  0.49998330  0.01074074  1
  Na  Na3  1  0.50453933  0.00061017  0.98819869  1
  Hf  Hf0  1  0.51309427  0.74623150  0.00075382  1
  Hf  Hf1  1  0.25003148  0.24995118  0.49997759  1
  Hf  Hf2  1  0.75011370  0.24988780  0.49996820  1
  Hf  Hf3  1  0.23683622  0.75120036  0.50052286  1
  Cr  Cr0  1  0.00027636  0.24826486  0.99978414  1
  Cr  Cr1  1  0.99916329  0.75244906  0.99913189  1
  Cr  Cr2  1  0.49991163  0.25148978  0.00094805  1
  Cr  Cr3  1  0.75050273  0.75037183  0.49845964  1
  S  S0  1  0.24935726  0.34934390  0.84611360  1
  S  S1  1  0.76355235  0.64952715  0.82237613  1
  S  S2  1  0.75124014  0.15040898  0.15444090  1
  S  S3  1  0.24456907  0.85311618  0.15760023  1
  S  S4  1  0.25083946  0.15035962  0.15452285  1
  S  S5  1  0.75825807  0.85053194  0.17297390  1
  S  S6  1  0.74885910  0.34924522  0.84625323  1
  S  S7  1  0.24392564  0.64700820  0.83999624  1
  S  S8  1  0.00103638  0.14681745  0.67503108  1
  S  S9  1  0.98630356  0.85046286  0.67248992  1
  S  S10  1  0.49916547  0.35325083  0.32577406  1
  S  S11  1  0.50618839  0.64749062  0.34106405  1
  S  S12  1  0.99914772  0.35183066  0.32395736  1
  S  S13  1  0.98931576  0.65261064  0.32234744  1
  S  S14  1  0.50095040  0.14809958  0.67639147  1
  S  S15  1  0.50481748  0.85059868  0.66240343  1
loop_
_geom_bond_atom_site_label_1
_geom_bond_atom_site_label_2
_geom_bond_distance
_geom_bond_site_symmetry_2
Na0 S8 2.881643 1_555
Na0 S5 2.901872 1_445
Na0 S3 2.903791 1_545
Na0 S9 2.913555 1_445
Na0 S2 2.962011 1_455
Na0 S4 2.973269 1_555
Na1 S11 2.877984 1_555
Na1 S10 2.900710 1_555
Na1 S6 2.930145 1_555
Na1 S7 2.950469 1_555
Na1 S0 2.955572 1_555
Na1 S1 2.975734 1_555
Na2 S12 2.814902 1_555
Na2 S13 2.851511 1_555
Na2 S1 2.891690 1_554
Na2 S7 2.900647 1_654
Na2 S6 2.920522 1_554
Na2 S0 2.933584 1_654
Na3 S14 2.802292 1_555
Na3 S15 2.884174 1_545
Na3 S2 2.912381 1_556
Na3 S4 2.930623 1_556
Na3 S3 2.956341 1_546
Na3 S5 2.976908 1_546
Hf0 S1 2.482782 1_554
Hf0 S11 2.499739 1_555
Hf0 S5 2.507878 1_555
Hf0 S15 2.533394 1_554
Hf0 S7 2.564541 1_554
Hf0 S3 2.600680 1_555
Hf1 S12 2.519297 1_455
Hf1 S14 2.520299 1_555
Hf1 S10 2.525759 1_555
Hf1 S8 2.525967 1_555
Hf1 S4 2.529942 1_555
Hf1 S0 2.531951 1_555
Hf2 S12 2.519318 1_555
Hf2 S14 2.519851 1_555
Hf2 S8 2.526223 1_655
Hf2 S10 2.526369 1_555
Hf2 S2 2.529464 1_555
Hf2 S6 2.532453 1_555
Hf3 S9 2.485395 1_455
Hf3 S13 2.490721 1_455
Hf3 S7 2.537511 1_555
Hf3 S3 2.537580 1_555
Hf3 S15 2.562159 1_555
Hf3 S11 2.586428 1_555
Cr0 S4 2.433329 1_556
Cr0 S2 2.433638 1_456
Cr0 S8 2.439114 1_555
Cr0 S12 2.453247 1_456
Cr0 S0 2.456877 1_555
Cr0 S6 2.458788 1_455
Cr1 S13 2.421853 1_556
Cr1 S9 2.425186 1_555
Cr1 S5 2.432534 1_556
Cr1 S3 2.445484 1_656
Cr1 S1 2.461548 1_555
Cr1 S7 2.472593 1_655
Cr2 S6 2.432485 1_554
Cr2 S0 2.433120 1_554
Cr2 S10 2.441985 1_555
Cr2 S14 2.453736 1_554
Cr2 S4 2.457013 1_555
Cr2 S2 2.459027 1_555
Cr3 S13 2.425740 1_555
Cr3 S9 2.432453 1_555
Cr3 S1 2.433744 1_555
Cr3 S5 2.435420 1_555
Cr3 S15 2.447536 1_555
Cr3 S11 2.455062 1_555
