# generated using pymatgen
data_ZrNi4Ag
_symmetry_space_group_name_H-M   'P 1'
_cell_length_a   4.79268735
_cell_length_b   4.79268643
_cell_length_c   4.79268622
_cell_angle_alpha   59.99999474
_cell_angle_beta   60.00000110
_cell_angle_gamma   59.99999438
_symmetry_Int_Tables_number   1
_chemical_formula_structural   ZrNi4Ag
_chemical_formula_sum   'Zr1 Ni4 Ag1'
_cell_volume   77.84345088
_cell_formula_units_Z   1
loop_
 _symmetry_equiv_pos_site_id
 _symmetry_equiv_pos_as_xyz
  1  'x, y, z'
loop_
 _atom_site_type_symbol
 _atom_site_label
 _atom_site_symmetry_multiplicity
 _atom_site_fract_x
 _atom_site_fract_y
 _atom_site_fract_z
 _atom_site_occupancy
  Zr  Zr0  1  0.25000000  0.25000000  0.25000000  1
  Ni  Ni0  1  0.62554777  0.62554777  0.12335768  1
  Ni  Ni1  1  0.62554777  0.12335768  0.62554777  1
  Ni  Ni2  1  0.12335768  0.62554777  0.62554777  1
  Ni  Ni3  1  0.62554777  0.62554777  0.62554777  1
  Ag  Ag0  1  0.00000000  0.00000000  0.00000000  1
loop_
_geom_bond_atom_site_label_1
_geom_bond_atom_site_label_2
_geom_bond_distance
_geom_bond_site_symmetry_2
Ni0 Ni1 2.385847 1_564
Ni0 Ni3 2.385847 1_554
Ni0 Ni2 2.385847 1_654
Ni0 Ni1 2.406839 1_555
Ni0 Ni3 2.406840 1_555
Ni0 Ni2 2.406840 1_555
Ni0 Zr0 2.811086 1_565
Ni0 Zr0 2.811086 1_655
Ni0 Zr0 2.811090 1_555
Ni1 Ni3 2.385847 1_545
Ni1 Ni2 2.385847 1_645
Ni1 Ni3 2.406840 1_555
Ni1 Ni2 2.406840 1_555
Ni1 Zr0 2.811086 1_556
Ni1 Zr0 2.811087 1_655
Ni1 Zr0 2.811090 1_555
Ni2 Ni3 2.385847 1_455
Ni2 Ni3 2.406840 1_555
Ni2 Zr0 2.811086 1_556
Ni2 Zr0 2.811086 1_565
Ni2 Zr0 2.811090 1_555
Ni3 Zr0 2.811088 1_565
Ni3 Zr0 2.811088 1_556
Ni3 Zr0 2.811088 1_655
Ag0 Ni2 2.808847 1_544
Ag0 Ni1 2.808847 1_454
Ag0 Ni0 2.808848 1_445
Ag0 Ni3 2.808849 1_454
Ag0 Ni3 2.808849 1_445
Ag0 Ni3 2.808849 1_544
Ag0 Ni2 2.808851 1_545
Ag0 Ni0 2.808851 1_455
Ag0 Ni1 2.808851 1_455
Ag0 Ni2 2.808851 1_554
Ag0 Ni0 2.808852 1_545
Ag0 Ni1 2.808852 1_554
Ag0 Zr0 2.934909 1_545
Ag0 Zr0 2.934909 1_554
Ag0 Zr0 2.934909 1_555
Ag0 Zr0 2.934910 1_455
