# generated using pymatgen
data_SrS2(O3F)2
_symmetry_space_group_name_H-M   'P 1'
_cell_length_a   7.28553930
_cell_length_b   7.28553989
_cell_length_c   9.49527487
_cell_angle_alpha   116.56128335
_cell_angle_beta   97.31131195
_cell_angle_gamma   104.55812282
_symmetry_Int_Tables_number   1
_chemical_formula_structural   SrS2(O3F)2
_chemical_formula_sum   'Sr2 S4 O12 F4'
_cell_volume   419.28086983
_cell_formula_units_Z   2
loop_
 _symmetry_equiv_pos_site_id
 _symmetry_equiv_pos_as_xyz
  1  'x, y, z'
loop_
 _atom_site_type_symbol
 _atom_site_label
 _atom_site_symmetry_multiplicity
 _atom_site_fract_x
 _atom_site_fract_y
 _atom_site_fract_z
 _atom_site_occupancy
  Sr  Sr0  1  0.70262487  0.45262487  0.75000000  1
  Sr  Sr1  1  0.29737513  0.54737513  0.25000000  1
  S  S0  1  0.17126148  0.32768831  0.78261865  1
  S  S1  1  0.54506966  0.88864383  0.71738135  1
  S  S2  1  0.82873852  0.67231169  0.21738135  1
  S  S3  1  0.45493034  0.11135617  0.28261865  1
  O  O0  1  0.34521889  0.36846139  0.72943799  1
  O  O1  1  0.63902440  0.11578190  0.77056201  1
  O  O2  1  0.65478111  0.63153861  0.27056201  1
  O  O3  1  0.36097560  0.88421810  0.22943799  1
  O  O4  1  0.02904859  0.41188252  0.73844173  1
  O  O5  1  0.67344079  0.79060786  0.76155827  1
  O  O6  1  0.97095141  0.58811748  0.26155827  1
  O  O7  1  0.32655921  0.20939214  0.23844173  1
  O  O8  1  0.20682061  0.36699090  0.94775030  1
  O  O9  1  0.41924260  0.75907231  0.55224970  1
  O  O10  1  0.79317939  0.63300910  0.05224970  1
  O  O11  1  0.58075740  0.24092769  0.44775030  1
  F  F0  1  0.06631882  0.07148041  0.67632309  1
  F  F1  1  0.39515732  0.88999473  0.82367691  1
  F  F2  1  0.93368118  0.92851959  0.32367691  1
  F  F3  1  0.60484268  0.11000527  0.17632309  1
loop_
_geom_bond_atom_site_label_1
_geom_bond_atom_site_label_2
_geom_bond_distance
_geom_bond_site_symmetry_2
O0 S0 1.434307 1_555
O0 Sr0 2.480976 1_555
O1 S1 1.434309 1_545
O1 Sr0 2.480969 1_555
O2 S2 1.434307 1_555
O2 Sr1 2.480976 1_555
O3 S3 1.434309 1_565
O3 Sr1 2.480969 1_555
O4 S0 1.436909 1_555
O4 Sr0 2.479523 1_455
O5 S1 1.436909 1_555
O5 Sr0 2.479531 1_555
O6 S2 1.436909 1_555
O6 Sr1 2.479523 1_655
O7 S3 1.436909 1_555
O7 Sr1 2.479531 1_555
O8 S0 1.437162 1_555
O8 Sr1 2.471461 1_556
O9 S1 1.437157 1_555
O9 Sr1 2.471462 1_555
O10 S2 1.437162 1_555
O10 Sr0 2.471461 1_554
O11 S3 1.437157 1_555
O11 Sr0 2.471462 1_555
F0 S0 1.577583 1_555
F1 S1 1.577584 1_555
F2 S2 1.577583 1_555
F3 S3 1.577584 1_555
