# generated using pymatgen
data_Na4SrTeO6
_symmetry_space_group_name_H-M   'P 1'
_cell_length_a   5.89034567
_cell_length_b   5.89034640
_cell_length_c   5.73476943
_cell_angle_alpha   100.06864681
_cell_angle_beta   100.06863686
_cell_angle_gamma   120.10883428
_symmetry_Int_Tables_number   1
_chemical_formula_structural   Na4SrTeO6
_chemical_formula_sum   'Na4 Sr1 Te1 O6'
_cell_volume   161.22568410
_cell_formula_units_Z   1
loop_
 _symmetry_equiv_pos_site_id
 _symmetry_equiv_pos_as_xyz
  1  'x, y, z'
loop_
 _atom_site_type_symbol
 _atom_site_label
 _atom_site_symmetry_multiplicity
 _atom_site_fract_x
 _atom_site_fract_y
 _atom_site_fract_z
 _atom_site_occupancy
  Na  Na0  1  0.49981916  0.50018084  0.00000000  1
  Na  Na1  1  0.01439802  0.98560198  0.50000000  1
  Na  Na2  1  0.65874246  0.34125854  0.50000000  1
  Na  Na3  1  0.32681009  0.67318991  0.50000000  1
  Sr  Sr0  1  0.83447384  0.16552716  0.00000000  1
  Te  Te0  1  0.16686898  0.83313102  0.00000000  1
  O  O0  1  0.96039892  0.63086021  0.20278322  1
  O  O1  1  0.23961608  0.17611161  0.21631849  1
  O  O2  1  0.50706701  0.90125374  0.21722131  1
  O  O3  1  0.09874626  0.49293299  0.78277869  1
  O  O4  1  0.82388839  0.76038392  0.78368151  1
  O  O5  1  0.36914079  0.03960108  0.79721678  1
loop_
_geom_bond_atom_site_label_1
_geom_bond_atom_site_label_2
_geom_bond_distance
_geom_bond_site_symmetry_2
Na0 O0 2.407031 1_555
Na0 O5 2.407033 1_554
Na0 O3 2.446637 1_554
Na0 O2 2.446637 1_555
Na0 O4 2.467663 1_554
Na0 O1 2.467663 1_555
Na1 O0 2.295846 1_455
Na1 O5 2.295850 1_565
Na1 O1 2.359062 1_565
Na1 O4 2.359062 1_455
Na1 O2 2.888099 1_455
Na1 O3 2.888099 1_565
Na2 O4 2.306666 1_555
Na2 O1 2.306669 1_555
Na2 O3 2.417842 1_655
Na2 O2 2.417845 1_545
Na2 O0 2.829660 1_555
Na2 O5 2.829663 1_555
Na3 O3 2.344050 1_555
Na3 O2 2.344050 1_555
Na3 O5 2.377137 1_565
Na3 O0 2.377140 1_455
Na3 O4 2.831421 1_555
Na3 O1 2.831421 1_555
O0 Te0 1.943249 1_655
O0 Sr0 2.441222 1_555
O1 Te0 1.968077 1_545
O1 Sr0 2.454873 1_455
O2 Te0 1.968253 1_555
O2 Sr0 2.490053 1_565
O3 Te0 1.968253 1_556
O3 Sr0 2.490048 1_456
O4 Te0 1.968077 1_656
O4 Sr0 2.454875 1_566
O5 Te0 1.943252 1_546
O5 Sr0 2.441219 1_556
