# generated using pymatgen
data_Sr2Al9Ir2Pd
_symmetry_space_group_name_H-M   'P 1'
_cell_length_a   7.66888330
_cell_length_b   7.66888507
_cell_length_c   9.66929955
_cell_angle_alpha   90.00000000
_cell_angle_beta   90.00000000
_cell_angle_gamma   118.78463923
_symmetry_Int_Tables_number   1
_chemical_formula_structural   Sr2Al9Ir2Pd
_chemical_formula_sum   'Sr4 Al18 Ir4 Pd2'
_cell_volume   498.40166500
_cell_formula_units_Z   2
loop_
 _symmetry_equiv_pos_site_id
 _symmetry_equiv_pos_as_xyz
  1  'x, y, z'
loop_
 _atom_site_type_symbol
 _atom_site_label
 _atom_site_symmetry_multiplicity
 _atom_site_fract_x
 _atom_site_fract_y
 _atom_site_fract_z
 _atom_site_occupancy
  Sr  Sr0  1  0.97610691  0.66950981  0.25000000  1
  Sr  Sr1  1  0.02389309  0.33049019  0.75000000  1
  Sr  Sr2  1  0.66950981  0.97610691  0.25000000  1
  Sr  Sr3  1  0.33049019  0.02389309  0.75000000  1
  Al  Al0  1  0.13113601  0.13113601  0.25000000  1
  Al  Al1  1  0.86886399  0.86886399  0.75000000  1
  Al  Al2  1  0.99346378  0.33769347  0.07360473  1
  Al  Al3  1  0.00653622  0.66230653  0.92639527  1
  Al  Al4  1  0.00653622  0.66230653  0.57360473  1
  Al  Al5  1  0.33769347  0.99346378  0.42639527  1
  Al  Al6  1  0.99346378  0.33769347  0.42639527  1
  Al  Al7  1  0.66230653  0.00653622  0.57360473  1
  Al  Al8  1  0.66230653  0.00653622  0.92639527  1
  Al  Al9  1  0.33769347  0.99346378  0.07360473  1
  Al  Al10  1  0.33289581  0.33289581  0.49915979  1
  Al  Al11  1  0.66710419  0.66710419  0.50084021  1
  Al  Al12  1  0.66710419  0.66710419  0.99915979  1
  Al  Al13  1  0.33289581  0.33289581  0.00084021  1
  Al  Al14  1  0.31305242  0.53756165  0.25000000  1
  Al  Al15  1  0.68694758  0.46243835  0.75000000  1
  Al  Al16  1  0.53756165  0.31305242  0.25000000  1
  Al  Al17  1  0.46243835  0.68694758  0.75000000  1
  Ir  Ir0  1  0.66745349  0.33254651  0.00000000  1
  Ir  Ir1  1  0.33254651  0.66745349  0.00000000  1
  Ir  Ir2  1  0.33254651  0.66745349  0.50000000  1
  Ir  Ir3  1  0.66745349  0.33254651  0.50000000  1
  Pd  Pd0  1  0.00000000  0.00000000  0.00000000  1
  Pd  Pd1  1  0.00000000  0.00000000  0.50000000  1
loop_
_geom_bond_atom_site_label_1
_geom_bond_atom_site_label_2
_geom_bond_distance
_geom_bond_site_symmetry_2
Al0 Pd0 2.625302 1_555
Al0 Pd1 2.625302 1_555
Al0 Al16 2.733747 1_555
Al0 Al14 2.733748 1_555
Al0 Al5 2.853721 1_545
Al0 Al9 2.853721 1_545
Al0 Al6 2.853721 1_455
Al0 Al2 2.853721 1_455
Al0 Al10 2.878679 1_555
Al0 Al13 2.878679 1_555
Al0 Sr2 3.145294 1_445
Al0 Sr0 3.145295 1_445
Al1 Pd0 2.625302 1_666
Al1 Pd1 2.625302 1_665
Al1 Al17 2.733747 1_555
Al1 Al15 2.733748 1_555
Al1 Al8 2.853721 1_565
Al1 Al7 2.853721 1_565
Al1 Al3 2.853721 1_655
Al1 Al4 2.853721 1_655
Al1 Al12 2.878679 1_555
Al1 Al11 2.878679 1_555
Al1 Sr3 3.145294 1_665
Al1 Sr1 3.145295 1_665
Al2 Ir0 2.581419 1_555
Al2 Ir1 2.707545 1_655
Al2 Pd0 2.709385 1_655
Al2 Al3 2.827194 1_654
Al2 Al8 2.951965 1_554
Al2 Sr0 3.119030 1_555
Al2 Sr1 3.140184 1_654
Al2 Sr2 3.183728 1_545
Al3 Ir1 2.581419 1_556
Al3 Ir0 2.707545 1_456
Al3 Pd0 2.709385 1_566
Al3 Al9 2.951965 1_556
Al3 Sr1 3.119030 1_555
Al3 Sr0 3.140184 1_456
Al3 Sr3 3.183728 1_565
Al4 Ir2 2.581419 1_555
Al4 Ir3 2.707545 1_455
Al4 Pd1 2.709385 1_565
Al4 Al6 2.827194 1_455
Al4 Al5 2.951965 1_555
Al4 Sr1 3.119030 1_555
Al4 Sr0 3.140184 1_455
Al4 Sr3 3.183728 1_565
Al5 Ir2 2.581419 1_555
Al5 Ir3 2.707545 1_565
Al5 Pd1 2.709384 1_565
Al5 Al7 2.827193 1_565
Al5 Sr2 3.119030 1_555
Al5 Sr3 3.140184 1_565
Al5 Sr0 3.183728 1_455
Al6 Ir3 2.581419 1_555
Al6 Ir2 2.707545 1_655
Al6 Pd1 2.709385 1_655
Al6 Al7 2.951965 1_555
Al6 Sr0 3.119030 1_555
Al6 Sr1 3.140184 1_655
Al6 Sr2 3.183728 1_545
Al7 Ir3 2.581419 1_555
Al7 Ir2 2.707545 1_545
Al7 Pd1 2.709384 1_655
Al7 Sr3 3.119030 1_555
Al7 Sr2 3.140184 1_545
Al7 Sr1 3.183728 1_655
Al8 Ir0 2.581419 1_556
Al8 Ir1 2.707545 1_546
Al8 Pd0 2.709384 1_656
Al8 Al9 2.827193 1_546
Al8 Sr3 3.119030 1_555
Al8 Sr2 3.140184 1_546
Al8 Sr1 3.183728 1_655
Al9 Ir1 2.581419 1_555
Al9 Ir0 2.707545 1_565
Al9 Pd0 2.709384 1_565
Al9 Sr2 3.119030 1_555
Al9 Sr3 3.140184 1_564
Al9 Sr0 3.183728 1_455
Al10 Ir3 2.566988 1_555
Al10 Ir2 2.566988 1_555
Al10 Pd1 2.599706 1_555
Al10 Al6 2.713772 1_455
Al10 Al5 2.713773 1_545
Al10 Al16 2.919065 1_555
Al10 Al14 2.919065 1_555
Al10 Sr1 3.384752 1_555
Al10 Sr3 3.384753 1_555
Al11 Ir2 2.566988 1_555
Al11 Ir3 2.566988 1_555
Al11 Pd1 2.599706 1_665
Al11 Al4 2.713772 1_655
Al11 Al7 2.713773 1_565
Al11 Al17 2.919065 1_555
Al11 Al15 2.919065 1_555
Al11 Sr0 3.384752 1_555
Al11 Sr2 3.384753 1_555
Al12 Ir1 2.566988 1_556
Al12 Ir0 2.566988 1_556
Al12 Pd0 2.599706 1_666
Al12 Al3 2.713772 1_655
Al12 Al8 2.713773 1_565
Al12 Al17 2.919065 1_555
Al12 Al15 2.919065 1_555
Al12 Sr0 3.384752 1_556
Al12 Sr2 3.384753 1_556
Al13 Ir0 2.566988 1_555
Al13 Ir1 2.566988 1_555
Al13 Pd0 2.599706 1_555
Al13 Al2 2.713772 1_455
Al13 Al9 2.713773 1_545
Al13 Al16 2.919065 1_555
Al13 Al14 2.919065 1_555
Al13 Sr1 3.384752 1_554
Al13 Sr3 3.384753 1_554
Al14 Ir2 2.591266 1_555
Al14 Ir1 2.591266 1_555
Al14 Al6 2.765425 1_455
Al14 Al2 2.765425 1_455
Al14 Al16 2.963705 1_555
Al14 Sr2 3.151148 1_555
Al14 Sr0 3.196725 1_455
Al15 Ir0 2.591266 1_556
Al15 Ir3 2.591266 1_555
Al15 Al3 2.765425 1_655
Al15 Al4 2.765425 1_655
Al15 Al17 2.963705 1_555
Al15 Sr3 3.151148 1_555
Al15 Sr1 3.196725 1_655
Al16 Ir3 2.591266 1_555
Al16 Ir0 2.591266 1_555
Al16 Al5 2.765425 1_545
Al16 Al9 2.765425 1_545
Al16 Sr0 3.151148 1_555
Al16 Sr2 3.196726 1_545
Al17 Ir2 2.591266 1_555
Al17 Ir1 2.591266 1_556
Al17 Al8 2.765425 1_565
Al17 Al7 2.765425 1_565
Al17 Sr1 3.151148 1_555
Al17 Sr3 3.196726 1_565
Ir0 Sr3 3.497627 1_554
Ir0 Sr0 3.497627 1_555
Ir1 Sr2 3.497627 1_555
Ir1 Sr1 3.497627 1_554
Ir2 Sr2 3.497627 1_555
Ir2 Sr1 3.497627 1_555
Ir3 Sr3 3.497627 1_555
Ir3 Sr0 3.497627 1_555
Pd0 Sr2 3.442882 1_445
Pd0 Sr3 3.442882 1_554
Pd0 Sr0 3.442883 1_445
Pd0 Sr1 3.442883 1_554
Pd1 Sr2 3.442882 1_445
Pd1 Sr3 3.442882 1_555
Pd1 Sr0 3.442883 1_445
Pd1 Sr1 3.442883 1_555
