# generated using pymatgen
data_CuHgP2O7
_symmetry_space_group_name_H-M   'P 1'
_cell_length_a   4.71768252
_cell_length_b   7.46635123
_cell_length_c   8.81299598
_cell_angle_alpha   99.63255779
_cell_angle_beta   90.00000000
_cell_angle_gamma   108.41694121
_symmetry_Int_Tables_number   1
_chemical_formula_structural   CuHgP2O7
_chemical_formula_sum   'Cu2 Hg2 P4 O14'
_cell_volume   289.91195645
_cell_formula_units_Z   2
loop_
 _symmetry_equiv_pos_site_id
 _symmetry_equiv_pos_as_xyz
  1  'x, y, z'
loop_
 _atom_site_type_symbol
 _atom_site_label
 _atom_site_symmetry_multiplicity
 _atom_site_fract_x
 _atom_site_fract_y
 _atom_site_fract_z
 _atom_site_occupancy
  Cu  Cu0  1  0.00000000  0.00000000  0.00000000  1
  Cu  Cu1  1  0.00000000  0.00000000  0.50000000  1
  Hg  Hg0  1  0.50000000  0.50000100  0.00000000  1
  Hg  Hg1  1  0.00000000  0.50000000  0.50000000  1
  P  P0  1  0.27012841  0.80025246  0.22809015  1
  P  P1  1  0.46987895  0.19974854  0.27190985  1
  P  P2  1  0.53012205  0.80025246  0.72809115  1
  P  P3  1  0.72987059  0.19974854  0.77190985  1
  O  O0  1  0.07464763  0.79687098  0.09079325  1
  O  O1  1  0.31778944  0.19810152  0.11942225  1
  O  O2  1  0.40724473  0.64019381  0.20865732  1
  O  O3  1  0.54686027  0.00000000  0.25000000  1
  O  O4  1  0.76704992  0.35980619  0.29134268  1
  O  O5  1  0.11968892  0.80189948  0.38057775  1
  O  O6  1  0.27777365  0.20312802  0.40920675  1
  O  O7  1  0.72222435  0.79687098  0.59079425  1
  O  O8  1  0.88031308  0.19810152  0.61942225  1
  O  O9  1  0.23295108  0.64019481  0.70865732  1
  O  O10  1  0.45313973  0.00000000  0.75000000  1
  O  O11  1  0.59275627  0.35980519  0.79134368  1
  O  O12  1  0.68220956  0.80189848  0.88057775  1
  O  O13  1  0.92535337  0.20312902  0.90920675  1
loop_
_geom_bond_atom_site_label_1
_geom_bond_atom_site_label_2
_geom_bond_distance
_geom_bond_site_symmetry_2
Cu0 O1 1.902890 1_555
Cu0 O12 1.902892 1_444
Cu0 O13 1.951421 1_454
Cu0 O0 1.951423 1_545
Cu1 O5 1.902886 1_545
Cu1 O8 1.902887 1_455
Cu1 O6 1.951412 1_555
Cu1 O7 1.951426 1_445
Hg0 O2 2.076998 1_555
Hg0 O11 2.077003 1_554
Hg0 O12 2.548937 1_554
Hg0 O1 2.548949 1_555
Hg1 O4 2.077003 1_455
Hg1 O9 2.077006 1_555
Hg1 O8 2.548943 1_455
Hg1 O5 2.548949 1_555
O0 P0 1.513366 1_555
O1 P1 1.519822 1_555
O2 P0 1.515219 1_555
O3 P1 1.624591 1_555
O3 P0 1.624591 1_545
O4 P1 1.515203 1_555
O5 P0 1.519816 1_555
O6 P1 1.513382 1_555
O7 P2 1.513375 1_555
O8 P3 1.519822 1_555
O9 P2 1.515203 1_555
O10 P2 1.624586 1_545
O10 P3 1.624593 1_555
O11 P3 1.515199 1_555
O12 P2 1.519812 1_555
O13 P3 1.513374 1_555
