# generated using pymatgen
data_Cr2AgSe3S
_symmetry_space_group_name_H-M   'P 1'
_cell_length_a   7.45360795
_cell_length_b   7.45360800
_cell_length_c   7.45360851
_cell_angle_alpha   119.72465797
_cell_angle_beta   120.41210416
_cell_angle_gamma   89.88262731
_symmetry_Int_Tables_number   1
_chemical_formula_structural   Cr2AgSe3S
_chemical_formula_sum   'Cr4 Ag2 Se6 S2'
_cell_volume   292.49269050
_cell_formula_units_Z   2
loop_
 _symmetry_equiv_pos_site_id
 _symmetry_equiv_pos_as_xyz
  1  'x, y, z'
loop_
 _atom_site_type_symbol
 _atom_site_label
 _atom_site_symmetry_multiplicity
 _atom_site_fract_x
 _atom_site_fract_y
 _atom_site_fract_z
 _atom_site_occupancy
  Cr  Cr0  1  0.63168848  0.37985470  0.74816622  1
  Cr  Cr1  1  0.63168848  0.88352126  0.25183378  1
  Cr  Cr2  1  0.63557003  0.37449277  0.26107726  1
  Cr  Cr3  1  0.11341451  0.37449277  0.73892274  1
  Ag  Ag0  1  0.25850983  0.75850983  0.50000000  1
  Ag  Ag1  1  0.97910447  0.97910447  1.00000000  1
  Se  Se0  1  0.86517516  0.13561009  0.72956506  1
  Se  Se1  1  0.40604503  0.13561009  0.27043494  1
  Se  Se2  1  0.39193499  0.61175943  0.21982444  1
  Se  Se3  1  0.39193499  0.17211056  0.78017556  1
  Se  Se4  1  0.38737770  0.61396501  0.77341269  1
  Se  Se5  1  0.84055232  0.61396501  0.22658731  1
  S  S0  1  0.85850200  0.14160935  0.28310735  1
  S  S1  1  0.85850200  0.57539465  0.71689265  1
loop_
_geom_bond_atom_site_label_1
_geom_bond_atom_site_label_2
_geom_bond_distance
_geom_bond_site_symmetry_2
Cr0 S1 2.404707 1_555
Cr0 Se0 2.518565 1_555
Cr0 Se1 2.518565 1_555
Cr0 Se4 2.530738 1_555
Cr0 Se5 2.530738 1_556
Cr0 Se3 2.541146 1_555
Cr1 S0 2.404712 1_565
Cr1 Se0 2.518566 1_565
Cr1 Se1 2.518570 1_565
Cr1 Se5 2.530732 1_555
Cr1 Se4 2.530738 1_554
Cr1 Se2 2.541140 1_555
Cr2 S0 2.407427 1_555
Cr2 S1 2.407428 1_555
Cr2 Se1 2.521591 1_555
Cr2 Se5 2.539741 1_555
Cr2 Se2 2.545701 1_555
Cr2 Se3 2.545702 1_554
Cr3 S1 2.407422 1_455
Cr3 S0 2.407427 1_455
Cr3 Se0 2.521586 1_455
Cr3 Se4 2.539747 1_555
Cr3 Se2 2.545703 1_556
Cr3 Se3 2.545707 1_555
Ag0 Se2 2.525774 1_555
Ag0 Se3 2.525774 1_565
Ag0 Se4 2.535292 1_555
Ag0 Se5 2.535292 1_455
Ag1 S0 2.471715 1_566
Ag1 S1 2.471715 1_555
Ag1 Se0 2.596106 1_565
Ag1 Se1 2.596106 1_666
