# generated using pymatgen
data_Hf6Al16Co5Cu2
_symmetry_space_group_name_H-M   'P 1'
_cell_length_a   8.42338343
_cell_length_b   8.47109446
_cell_length_c   8.42338369
_cell_angle_alpha   59.81245804
_cell_angle_beta   60.37509024
_cell_angle_gamma   59.81245232
_symmetry_Int_Tables_number   1
_chemical_formula_structural   Hf6Al16Co5Cu2
_chemical_formula_sum   'Hf6 Al16 Co5 Cu2'
_cell_volume   424.98113910
_cell_formula_units_Z   1
loop_
 _symmetry_equiv_pos_site_id
 _symmetry_equiv_pos_as_xyz
  1  'x, y, z'
loop_
 _atom_site_type_symbol
 _atom_site_label
 _atom_site_symmetry_multiplicity
 _atom_site_fract_x
 _atom_site_fract_y
 _atom_site_fract_z
 _atom_site_occupancy
  Hf  Hf0  1  0.69725422  0.69725422  0.30274578  1
  Hf  Hf1  1  0.32360917  0.67639083  0.32360917  1
  Hf  Hf2  1  0.69725422  0.30274578  0.30274578  1
  Hf  Hf3  1  0.30274578  0.30274578  0.69725422  1
  Hf  Hf4  1  0.67639083  0.32360917  0.67639083  1
  Hf  Hf5  1  0.30274578  0.69725422  0.69725422  1
  Al  Al0  1  0.89213867  0.87688528  0.35409077  1
  Al  Al1  1  0.87688528  0.35409077  0.87688528  1
  Al  Al2  1  0.35409077  0.87688528  0.89213867  1
  Al  Al3  1  0.87688528  0.89213867  0.87688528  1
  Al  Al4  1  0.10786133  0.12311472  0.64590923  1
  Al  Al5  1  0.12311472  0.64590923  0.12311472  1
  Al  Al6  1  0.64590923  0.12311472  0.10786133  1
  Al  Al7  1  0.12311472  0.10786133  0.12311472  1
  Al  Al8  1  0.66317383  0.66731523  0.00219472  1
  Al  Al9  1  0.66731523  0.00219472  0.66731523  1
  Al  Al10  1  0.00219472  0.66731523  0.66317383  1
  Al  Al11  1  0.66731523  0.66317383  0.66731523  1
  Al  Al12  1  0.33682617  0.33268477  0.99780528  1
  Al  Al13  1  0.33268477  0.99780528  0.33268477  1
  Al  Al14  1  0.99780528  0.33268477  0.33682617  1
  Al  Al15  1  0.33268477  0.33682617  0.33268477  1
  Co  Co0  1  0.00000000  0.00000000  0.00000000  1
  Co  Co1  1  0.00000000  0.00000000  0.50000000  1
  Co  Co2  1  0.00000000  0.50000000  0.50000000  1
  Co  Co3  1  0.50000000  0.50000000  0.00000000  1
  Co  Co4  1  0.50000000  0.00000000  0.00000000  1
  Cu  Cu0  1  0.50000000  0.00000000  0.50000000  1
  Cu  Cu1  1  0.00000000  0.50000000  0.00000000  1
loop_
_geom_bond_atom_site_label_1
_geom_bond_atom_site_label_2
_geom_bond_distance
_geom_bond_site_symmetry_2
Hf0 Hf1 3.154251 1_555
Hf0 Hf4 3.154251 1_555
Hf0 Hf2 3.341918 1_555
Hf0 Hf5 3.341918 1_555
Hf1 Hf2 3.154251 1_555
Hf1 Hf5 3.154251 1_555
Hf1 Hf3 3.154251 1_555
Hf2 Hf4 3.154251 1_555
Hf2 Hf3 3.341918 1_555
Hf3 Hf4 3.154251 1_555
Hf3 Hf5 3.341918 1_555
Hf4 Hf5 3.154251 1_555
Al0 Co0 2.440254 1_665
Al0 Co1 2.601857 1_665
Al0 Co2 2.601857 1_655
Al0 Al10 2.621505 1_655
Al0 Cu0 2.705548 1_565
Al0 Al9 2.743995 1_565
Al0 Al11 2.744000 1_555
Al0 Al5 2.767078 1_655
Al0 Al7 2.767079 1_665
Al0 Al6 2.916491 1_565
Al0 Hf2 3.012178 1_565
Al0 Hf0 3.012178 1_555
Al0 Hf1 3.077000 1_655
Al1 Co0 2.440254 1_656
Al1 Co3 2.601857 1_556
Al1 Co2 2.601858 1_655
Al1 Al11 2.621509 1_555
Al1 Cu1 2.705548 1_656
Al1 Al8 2.743995 1_556
Al1 Al10 2.743995 1_655
Al1 Al4 2.767078 1_655
Al1 Al6 2.767079 1_556
Al1 Al7 2.916491 1_656
Al1 Hf3 3.012178 1_655
Al1 Hf2 3.012178 1_556
Al1 Hf4 3.077000 1_555
Al2 Co0 2.440254 1_566
Al2 Co3 2.601857 1_556
Al2 Co4 2.601857 1_566
Al2 Al8 2.621505 1_556
Al2 Cu0 2.705548 1_565
Al2 Al9 2.743995 1_565
Al2 Al7 2.767078 1_566
Al2 Al5 2.767079 1_556
Al2 Al4 2.916491 1_565
Al2 Hf5 3.012178 1_555
Al2 Hf3 3.012178 1_565
Al2 Hf1 3.077000 1_556
Al3 Co0 2.440254 1_666
Al3 Co4 2.601857 1_566
Al3 Co1 2.601858 1_665
Al3 Al9 2.621512 1_565
Al3 Cu1 2.705548 1_656
Al3 Al8 2.744002 1_556
Al3 Al6 2.767078 1_566
Al3 Al4 2.767079 1_665
Al3 Al5 2.916491 1_656
Al3 Hf5 3.012178 1_655
Al3 Hf0 3.012178 1_556
Al3 Hf4 3.077000 1_565
Al4 Co0 2.440254 1_556
Al4 Co1 2.601857 1_555
Al4 Co2 2.601857 1_555
Al4 Cu0 2.705548 1_555
Al4 Hf5 3.012178 1_545
Al4 Hf3 3.012178 1_555
Al4 Hf4 3.077000 1_455
Al5 Co0 2.440254 1_565
Al5 Co3 2.601857 1_555
Al5 Co2 2.601858 1_555
Al5 Cu1 2.705548 1_555
Al5 Hf0 3.012178 1_455
Al5 Hf5 3.012178 1_554
Al5 Hf1 3.077000 1_555
Al6 Co0 2.440254 1_655
Al6 Co3 2.601857 1_555
Al6 Co4 2.601857 1_555
Al6 Cu0 2.705548 1_555
Al6 Hf2 3.012178 1_555
Al6 Hf0 3.012178 1_545
Al6 Hf4 3.077000 1_554
Al7 Co0 2.440254 1_555
Al7 Co4 2.601857 1_555
Al7 Co1 2.601858 1_555
Al7 Cu1 2.705548 1_555
Al7 Hf2 3.012178 1_455
Al7 Hf3 3.012178 1_554
Al7 Hf1 3.077000 1_545
Al8 Co3 2.430843 1_555
Al8 Co4 2.430850 1_565
Al8 Cu1 2.447327 1_655
Al8 Hf1 2.801671 1_555
Al8 Al9 2.821430 1_564
Al8 Hf2 2.827265 1_555
Al8 Hf0 2.827270 1_555
Al9 Co1 2.430850 1_655
Al9 Co4 2.430850 1_556
Al9 Cu0 2.447319 1_555
Al9 Hf4 2.801675 1_555
Al9 Hf3 2.827265 1_555
Al9 Hf2 2.827265 1_555
Al10 Co2 2.430843 1_555
Al10 Co1 2.430850 1_565
Al10 Cu1 2.447327 1_556
Al10 Al3 2.744002 1_455
Al10 Hf1 2.801671 1_555
Al10 Al9 2.821430 1_465
Al10 Al11 2.821430 1_455
Al10 Hf3 2.827265 1_555
Al10 Hf5 2.827270 1_555
Al10 Al8 2.871878 1_456
Al11 Co2 2.430848 1_655
Al11 Co3 2.430848 1_556
Al11 Cu0 2.447324 1_565
Al11 Al2 2.744000 1_555
Al11 Hf4 2.801667 1_555
Al11 Al8 2.821430 1_556
Al11 Hf5 2.827261 1_555
Al11 Hf0 2.827261 1_555
Al11 Al9 2.871878 1_565
Al12 Co3 2.430843 1_556
Al12 Co4 2.430850 1_556
Al12 Cu1 2.447327 1_556
Al12 Al6 2.621505 1_556
Al12 Al5 2.743995 1_556
Al12 Al7 2.744002 1_556
Al12 Hf4 2.801671 1_555
Al12 Al15 2.821430 1_556
Al12 Al13 2.821430 1_546
Al12 Hf5 2.827265 1_555
Al12 Hf3 2.827270 1_555
Al12 Al14 2.871878 1_456
Al13 Co1 2.430850 1_565
Al13 Co4 2.430850 1_565
Al13 Cu0 2.447319 1_565
Al13 Al7 2.621512 1_565
Al13 Al4 2.743995 1_565
Al13 Al6 2.743995 1_565
Al13 Hf1 2.801675 1_555
Al13 Al14 2.821430 1_465
Al13 Hf0 2.827265 1_555
Al13 Hf5 2.827265 1_555
Al13 Al15 2.871878 1_565
Al14 Co2 2.430843 1_655
Al14 Co1 2.430850 1_655
Al14 Cu1 2.447327 1_655
Al14 Al4 2.621505 1_655
Al14 Al5 2.743995 1_655
Al14 Al7 2.744002 1_655
Al14 Hf4 2.801671 1_555
Al14 Al15 2.821430 1_655
Al14 Hf0 2.827265 1_555
Al14 Hf2 2.827270 1_555
Al15 Co2 2.430848 1_555
Al15 Co3 2.430848 1_555
Al15 Cu0 2.447324 1_555
Al15 Al5 2.621509 1_555
Al15 Al6 2.744000 1_555
Al15 Al4 2.744000 1_555
Al15 Hf1 2.801667 1_555
Al15 Hf2 2.827261 1_555
Al15 Hf3 2.827261 1_555
Co1 Hf5 3.027822 1_545
Co1 Hf2 3.027822 1_455
Co1 Hf4 3.119309 1_455
Co1 Hf1 3.119309 1_545
Co2 Hf3 3.027822 1_555
Co2 Hf0 3.027822 1_455
Co2 Hf1 3.119309 1_555
Co2 Hf4 3.119309 1_455
Co3 Hf2 3.027822 1_555
Co3 Hf5 3.027822 1_554
Co3 Hf1 3.119309 1_555
Co3 Hf4 3.119309 1_554
Co4 Hf0 3.027822 1_545
Co4 Hf3 3.027822 1_554
Co4 Hf4 3.119309 1_554
Co4 Hf1 3.119309 1_545
Cu0 Hf3 3.060918 1_555
Cu0 Hf0 3.060918 1_545
Cu0 Hf2 3.060918 1_555
Cu0 Hf5 3.060918 1_545
Cu1 Hf0 3.060918 1_455
Cu1 Hf3 3.060918 1_554
Cu1 Hf5 3.060918 1_554
Cu1 Hf2 3.060918 1_455
