# generated using pymatgen
data_Zr4Si3Ge3Ir7
_symmetry_space_group_name_H-M   'P 1'
_cell_length_a   7.04134761
_cell_length_b   7.04134698
_cell_length_c   7.06229021
_cell_angle_alpha   109.53147741
_cell_angle_beta   109.53147558
_cell_angle_gamma   109.41090035
_symmetry_Int_Tables_number   1
_chemical_formula_structural   Zr4Si3Ge3Ir7
_chemical_formula_sum   'Zr4 Si3 Ge3 Ir7'
_cell_volume   269.34671702
_cell_formula_units_Z   1
loop_
 _symmetry_equiv_pos_site_id
 _symmetry_equiv_pos_as_xyz
  1  'x, y, z'
loop_
 _atom_site_type_symbol
 _atom_site_label
 _atom_site_symmetry_multiplicity
 _atom_site_fract_x
 _atom_site_fract_y
 _atom_site_fract_z
 _atom_site_occupancy
  Zr  Zr0  1  1.00000000  1.00000000  0.53372393  1
  Zr  Zr1  1  1.00000000  0.48628998  0.99859896  1
  Zr  Zr2  1  0.48628998  1.00000000  0.99859896  1
  Zr  Zr3  1  0.51371002  0.51371002  0.51230898  1
  Si  Si0  1  0.33037197  0.33037197  0.00491928  1
  Si  Si1  1  0.66962803  0.00000000  0.67454731  1
  Si  Si2  1  0.00000000  0.66962803  0.67454731  1
  Ge  Ge0  1  0.69525502  0.69525502  0.00609538  1
  Ge  Ge1  1  0.30474498  1.00000000  0.31084036  1
  Ge  Ge2  1  0.00000000  0.30474498  0.31084036  1
  Ir  Ir0  1  0.75054179  0.25064243  0.50251767  1
  Ir  Ir1  1  0.74935757  0.49990036  0.25187624  1
  Ir  Ir2  1  0.50009964  0.24945821  0.75197588  1
  Ir  Ir3  1  0.24945821  0.50009964  0.75197588  1
  Ir  Ir4  1  0.25064243  0.75054179  0.50251767  1
  Ir  Ir5  1  0.49990036  0.74935757  0.25187624  1
  Ir  Ir6  1  1.00000000  1.00000000  0.96223859  1
loop_
_geom_bond_atom_site_label_1
_geom_bond_atom_site_label_2
_geom_bond_distance
_geom_bond_site_symmetry_2
Si0 Zr0 2.819142 1_444
Si0 Zr2 2.877449 1_544
Si0 Zr1 2.877449 1_454
Si0 Zr3 2.979840 1_555
Si1 Zr0 2.819142 1_545
Si1 Zr3 2.877449 1_545
Si1 Zr1 2.877449 1_555
Si1 Zr2 2.979839 1_545
Si2 Zr0 2.819141 1_455
Si2 Zr2 2.877449 1_555
Si2 Zr3 2.877449 1_455
Si2 Zr1 2.979839 1_455
Ge0 Ir1 2.559860 1_555
Ge0 Ir5 2.559860 1_555
Ge0 Ir2 2.584494 1_554
Ge0 Ir3 2.584494 1_554
Ge0 Ir6 2.670812 1_554
Ge0 Zr3 2.895097 1_554
Ge0 Zr2 2.982420 1_554
Ge0 Zr1 2.982420 1_554
Ge0 Zr0 3.056254 1_555
Ge1 Ir4 2.559860 1_555
Ge1 Ir2 2.559861 1_565
Ge1 Ir0 2.584495 1_565
Ge1 Ir5 2.584500 1_555
Ge1 Ir6 2.670813 1_454
Ge1 Zr2 2.895097 1_554
Ge1 Zr3 2.982420 1_565
Ge1 Zr1 2.982420 1_454
Ge1 Zr0 3.056253 1_455
Ge2 Ir0 2.559860 1_455
Ge2 Ir3 2.559861 1_555
Ge2 Ir4 2.584495 1_555
Ge2 Ir1 2.584500 1_455
Ge2 Ir6 2.670812 1_444
Ge2 Zr1 2.895097 1_454
Ge2 Zr3 2.982420 1_555
Ge2 Zr2 2.982420 1_444
Ge2 Zr0 3.056253 1_445
Ir0 Si2 2.448918 1_655
Ir0 Si1 2.478621 1_555
Ir0 Zr1 2.858985 1_555
Ir0 Zr3 2.874297 1_555
Ir0 Zr0 2.882780 1_545
Ir0 Zr2 2.903793 1_544
Ir1 Si0 2.448918 1_555
Ir1 Si2 2.478617 1_655
Ir1 Zr3 2.858979 1_555
Ir1 Zr2 2.874303 1_544
Ir1 Zr0 2.882774 1_555
Ir1 Zr1 2.903798 1_554
Ir2 Si1 2.448924 1_555
Ir2 Si0 2.478615 1_556
Ir2 Zr2 2.858984 1_545
Ir2 Zr1 2.874303 1_555
Ir2 Zr0 2.882774 1_445
Ir2 Zr3 2.903792 1_555
Ir3 Si2 2.448924 1_555
Ir3 Si0 2.478615 1_556
Ir3 Zr1 2.858984 1_455
Ir3 Zr2 2.874303 1_555
Ir3 Zr0 2.882774 1_445
Ir3 Zr3 2.903792 1_555
Ir4 Si1 2.448918 1_565
Ir4 Si2 2.478621 1_555
Ir4 Zr2 2.858985 1_555
Ir4 Zr3 2.874297 1_555
Ir4 Zr0 2.882780 1_455
Ir4 Zr1 2.903793 1_454
Ir5 Si0 2.448918 1_555
Ir5 Si1 2.478617 1_565
Ir5 Zr3 2.858979 1_555
Ir5 Zr1 2.874303 1_454
Ir5 Zr0 2.882774 1_555
Ir5 Zr2 2.903798 1_554
Ir6 Si0 2.525715 1_666
Ir6 Si2 2.525716 1_655
Ir6 Si1 2.525716 1_565
Ir6 Zr0 3.026295 1_555
