# generated using pymatgen
data_Ba4InAuO8
_symmetry_space_group_name_H-M   'P 1'
_cell_length_a   7.26677079
_cell_length_b   7.26677068
_cell_length_c   5.93644383
_cell_angle_alpha   90.00000000
_cell_angle_beta   90.00000000
_cell_angle_gamma   131.82821857
_symmetry_Int_Tables_number   1
_chemical_formula_structural   Ba4InAuO8
_chemical_formula_sum   'Ba4 In1 Au1 O8'
_cell_volume   233.58858133
_cell_formula_units_Z   1
loop_
 _symmetry_equiv_pos_site_id
 _symmetry_equiv_pos_as_xyz
  1  'x, y, z'
loop_
 _atom_site_type_symbol
 _atom_site_label
 _atom_site_symmetry_multiplicity
 _atom_site_fract_x
 _atom_site_fract_y
 _atom_site_fract_z
 _atom_site_occupancy
  Ba  Ba0  1  0.35614867  0.64385133  0.00000000  1
  Ba  Ba1  1  0.85598064  0.14401936  0.50000000  1
  Ba  Ba2  1  0.14401936  0.85598064  0.50000000  1
  Ba  Ba3  1  0.64385133  0.35614867  0.00000000  1
  In  In0  1  0.00000000  0.00000000  0.00000000  1
  Au  Au0  1  0.50000000  0.50000000  0.50000000  1
  O  O0  1  0.25885314  0.25885314  0.73844699  1
  O  O1  1  0.74114686  0.74114686  0.26155301  1
  O  O2  1  0.74114686  0.74114686  0.73844699  1
  O  O3  1  0.25885314  0.25885314  0.26155301  1
  O  O4  1  0.15774168  0.84225832  0.00000000  1
  O  O5  1  0.65525489  0.34474511  0.50000000  1
  O  O6  1  0.34474511  0.65525489  0.50000000  1
  O  O7  1  0.84225832  0.15774168  0.00000000  1
loop_
_geom_bond_atom_site_label_1
_geom_bond_atom_site_label_2
_geom_bond_distance
_geom_bond_site_symmetry_2
Ba0 O4 2.632498 1_555
Ba0 O3 2.845967 1_555
Ba0 O0 2.845967 1_554
Ba0 O1 2.845967 1_555
Ba0 O2 2.845967 1_554
Ba0 O7 2.971331 1_565
Ba0 O7 2.971331 1_455
Ba0 O6 2.972076 1_555
Ba0 O6 2.972076 1_554
Ba1 O5 2.663264 1_555
Ba1 O2 2.830609 1_545
Ba1 O1 2.830609 1_545
Ba1 O0 2.830609 1_655
Ba1 O3 2.830609 1_655
Ba1 O6 2.969355 1_655
Ba1 O6 2.969355 1_545
Ba1 O7 2.973801 1_555
Ba1 O7 2.973801 1_556
Ba2 O6 2.663264 1_555
Ba2 O0 2.830609 1_565
Ba2 O3 2.830609 1_565
Ba2 O2 2.830609 1_455
Ba2 O1 2.830609 1_455
Ba2 O5 2.969355 1_455
Ba2 O5 2.969355 1_565
Ba2 O4 2.973801 1_556
Ba2 O4 2.973801 1_555
Ba3 O7 2.632498 1_555
Ba3 O1 2.845967 1_555
Ba3 O2 2.845967 1_554
Ba3 O3 2.845967 1_555
Ba3 O0 2.845967 1_554
Ba3 O4 2.971331 1_545
Ba3 O4 2.971331 1_655
Ba3 O5 2.972076 1_555
Ba3 O5 2.972076 1_554
In0 O7 2.092944 1_455
In0 O4 2.092944 1_545
In0 O1 2.183587 1_445
In0 O2 2.183587 1_444
In0 O3 2.183587 1_555
In0 O0 2.183587 1_554
Au0 O0 2.012327 1_555
Au0 O3 2.012327 1_555
Au0 O2 2.012327 1_555
Au0 O1 2.012327 1_555
Au0 O6 2.059949 1_555
Au0 O5 2.059949 1_555
