# generated using pymatgen
data_SrP2IrRh
_symmetry_space_group_name_H-M   'P 1'
_cell_length_a   6.73131690
_cell_length_b   6.72604428
_cell_length_c   7.08777296
_cell_angle_alpha   89.94835771
_cell_angle_beta   90.05720784
_cell_angle_gamma   119.82745595
_symmetry_Int_Tables_number   1
_chemical_formula_structural   SrP2IrRh
_chemical_formula_sum   'Sr3 P6 Ir3 Rh3'
_cell_volume   278.38920838
_cell_formula_units_Z   3
loop_
 _symmetry_equiv_pos_site_id
 _symmetry_equiv_pos_as_xyz
  1  'x, y, z'
loop_
 _atom_site_type_symbol
 _atom_site_label
 _atom_site_symmetry_multiplicity
 _atom_site_fract_x
 _atom_site_fract_y
 _atom_site_fract_z
 _atom_site_occupancy
  Sr  Sr0  1  0.99901711  0.60050472  0.83376259  1
  Sr  Sr1  1  0.40034592  0.40133399  0.50003224  1
  Sr  Sr2  1  0.59988464  0.99982521  0.16631601  1
  P  P0  1  0.87835470  0.21659436  0.54182184  1
  P  P1  1  0.21728512  0.87694956  0.45839095  1
  P  P2  1  0.12137746  0.33749367  0.12469963  1
  P  P3  1  0.78161154  0.66194828  0.20849567  1
  P  P4  1  0.33908260  0.12260867  0.87481864  1
  P  P5  1  0.66303470  0.78275394  0.79191532  1
  Ir  Ir0  1  0.99863710  0.51318372  0.33254005  1
  Ir  Ir1  1  0.51258639  0.99943109  0.66651799  1
  Ir  Ir2  1  0.00067792  0.12883608  0.83316838  1
  Rh  Rh0  1  0.87250685  0.87168049  0.49899623  1
  Rh  Rh1  1  0.12891870  0.99939537  0.16792601  1
  Rh  Rh2  1  0.48667925  0.48746184  0.00060044  1
loop_
_geom_bond_atom_site_label_1
_geom_bond_atom_site_label_2
_geom_bond_distance
_geom_bond_site_symmetry_2
P0 Rh0 2.320787 1_545
P0 Sr0 3.086907 1_555
P0 Sr1 3.104179 1_655
P0 Sr2 3.162484 1_545
P1 Rh0 2.321583 1_455
P1 Rh1 2.398408 1_555
P1 Sr2 3.080825 1_555
P1 Sr1 3.118201 1_565
P1 Sr0 3.158441 1_455
P2 Rh2 2.317965 1_555
P2 Rh1 2.319776 1_545
P2 Sr0 3.082135 1_454
P2 Sr2 3.104445 1_445
P2 Sr1 3.158738 1_555
P3 Rh2 2.273640 1_555
P3 Rh1 2.328377 1_655
P3 Rh0 2.397487 1_555
P3 Sr1 3.075357 1_555
P3 Sr2 3.084449 1_555
P3 Sr0 3.158836 1_554
P4 Rh2 2.319671 1_556
P4 Rh1 2.416719 1_546
P4 Sr2 3.076443 1_546
P4 Sr0 3.108135 1_445
P4 Sr1 3.156777 1_555
P5 Rh2 2.279151 1_556
P5 Rh0 2.412661 1_555
P5 Sr0 3.075922 1_555
P5 Sr1 3.078595 1_555
P5 Sr2 3.159267 1_556
Ir0 P0 2.285979 1_555
Ir0 P2 2.286028 1_655
Ir0 P3 2.314795 1_555
Ir0 P1 2.316738 1_655
Ir0 Sr2 3.361009 1_545
Ir0 Sr1 3.361945 1_655
Ir1 P1 2.274491 1_555
Ir1 P4 2.279988 1_565
Ir1 P0 2.324028 1_565
Ir1 P5 2.324557 1_555
Ir1 Sr1 3.360772 1_565
Ir1 Sr0 3.366096 1_455
Ir2 P4 2.317611 1_555
Ir2 P5 2.325196 1_445
Ir2 P2 2.401448 1_556
Ir2 P0 2.401771 1_455
Ir2 Rh0 2.804426 1_445
Ir2 Rh1 2.805816 1_546
Ir2 Sr0 3.178046 1_455
Ir2 Sr1 3.357373 1_555
Ir2 Sr2 3.359655 1_446
Rh0 Sr1 3.179219 1_555
Rh0 Sr0 3.348905 1_555
Rh0 Sr2 3.351360 1_555
Rh1 Sr2 3.168816 1_555
Rh1 Sr0 3.353518 1_454
Rh1 Sr1 3.358115 1_565
Rh2 Sr2 3.351053 1_555
Rh2 Sr0 3.356795 1_554
