# generated using pymatgen
data_Lu12Co3Ag2
_symmetry_space_group_name_H-M   'P 1'
_cell_length_a   8.02002429
_cell_length_b   8.02002418
_cell_length_c   8.02002347
_cell_angle_alpha   109.26909926
_cell_angle_beta   109.26910548
_cell_angle_gamma   109.87621841
_symmetry_Int_Tables_number   1
_chemical_formula_structural   Lu12Co3Ag2
_chemical_formula_sum   'Lu12 Co3 Ag2'
_cell_volume   397.08987979
_cell_formula_units_Z   1
loop_
 _symmetry_equiv_pos_site_id
 _symmetry_equiv_pos_as_xyz
  1  'x, y, z'
loop_
 _atom_site_type_symbol
 _atom_site_label
 _atom_site_symmetry_multiplicity
 _atom_site_fract_x
 _atom_site_fract_y
 _atom_site_fract_z
 _atom_site_occupancy
  Lu  Lu0  1  0.31979241  0.31979241  0.63958383  1
  Lu  Lu1  1  0.68020759  0.68020759  0.36041617  1
  Lu  Lu2  1  0.68020759  0.31979241  1.00000000  1
  Lu  Lu3  1  0.31979241  0.68020759  0.00000000  1
  Lu  Lu4  1  0.18568771  0.43139010  0.24570239  1
  Lu  Lu5  1  0.81431229  0.56860990  0.75429761  1
  Lu  Lu6  1  0.18568771  0.93998532  0.75429761  1
  Lu  Lu7  1  0.93998532  0.18568771  0.75429761  1
  Lu  Lu8  1  0.81431229  0.06001468  0.24570239  1
  Lu  Lu9  1  0.06001468  0.81431229  0.24570239  1
  Lu  Lu10  1  0.43139010  0.18568771  0.24570239  1
  Lu  Lu11  1  0.56860990  0.81431229  0.75429761  1
  Co  Co0  1  0.34667619  0.34667619  1.00000000  1
  Co  Co1  1  0.65332381  0.65332381  0.00000000  1
  Co  Co2  1  0.00000000  0.00000000  0.00000000  1
  Ag  Ag0  1  0.00000000  0.50000000  0.50000000  1
  Ag  Ag1  1  0.50000000  0.00000000  0.50000000  1
loop_
_geom_bond_atom_site_label_1
_geom_bond_atom_site_label_2
_geom_bond_distance
_geom_bond_site_symmetry_2
Co0 Lu10 2.720976 1_556
Co0 Lu7 2.720977 1_455
Co0 Lu4 2.720977 1_556
Co0 Lu6 2.720977 1_545
Co0 Lu3 2.755704 1_556
Co0 Lu2 2.755704 1_555
Co0 Lu1 2.755707 1_556
Co0 Lu0 2.755712 1_555
Co1 Lu11 2.720976 1_554
Co1 Lu9 2.720977 1_655
Co1 Lu5 2.720977 1_554
Co1 Lu8 2.720977 1_565
Co1 Lu2 2.755704 1_554
Co1 Lu3 2.755704 1_555
Co1 Lu0 2.755707 1_554
Co1 Lu1 2.755712 1_555
Co2 Lu7 2.851442 1_454
Co2 Lu9 2.851442 1_545
Co2 Lu10 2.851442 1_555
Co2 Lu11 2.851442 1_444
Co2 Lu8 2.851442 1_455
Co2 Lu6 2.851442 1_544
Co2 Lu4 2.851442 1_555
Co2 Lu5 2.851442 1_444
Ag0 Lu4 2.915670 1_555
Ag0 Lu5 2.915670 1_455
Ag0 Lu6 2.915670 1_555
Ag0 Lu8 2.915670 1_455
Ag1 Lu11 2.915670 1_545
Ag1 Lu10 2.915670 1_555
Ag1 Lu9 2.915670 1_545
Ag1 Lu7 2.915670 1_555
