# generated using pymatgen
data_TaNb2OsF20
_symmetry_space_group_name_H-M   'P 1'
_cell_length_a   5.63175568
_cell_length_b   7.36023873
_cell_length_c   9.12880701
_cell_angle_alpha   87.18893758
_cell_angle_beta   107.43162170
_cell_angle_gamma   100.18375096
_symmetry_Int_Tables_number   1
_chemical_formula_structural   TaNb2OsF20
_chemical_formula_sum   'Ta1 Nb2 Os1 F20'
_cell_volume   355.33017493
_cell_formula_units_Z   1
loop_
 _symmetry_equiv_pos_site_id
 _symmetry_equiv_pos_as_xyz
  1  'x, y, z'
loop_
 _atom_site_type_symbol
 _atom_site_label
 _atom_site_symmetry_multiplicity
 _atom_site_fract_x
 _atom_site_fract_y
 _atom_site_fract_z
 _atom_site_occupancy
  Ta  Ta0  1  0.02323741  0.22642898  0.67638553  1
  Nb  Nb0  1  0.32703080  0.36648758  0.21056859  1
  Nb  Nb1  1  0.66859932  0.63115654  0.78433557  1
  Os  Os0  1  0.97393111  0.76200820  0.32238549  1
  F  F0  1  0.01000664  0.22403909  0.16736885  1
  F  F1  1  0.98455541  0.77768024  0.82932226  1
  F  F2  1  0.50471857  0.20659235  0.15721130  1
  F  F3  1  0.49397257  0.79211865  0.83980591  1
  F  F4  1  0.11365223  0.20385130  0.89264365  1
  F  F5  1  0.88936258  0.81095396  0.11004970  1
  F  F6  1  0.94783424  0.31191757  0.47338479  1
  F  F7  1  0.05481724  0.69874119  0.53133104  1
  F  F8  1  0.73377494  0.05069560  0.64560660  1
  F  F9  1  0.26143225  0.94105818  0.35646528  1
  F  F10  1  0.23118333  0.07065013  0.65122593  1
  F  F11  1  0.77936099  0.92714025  0.35177210  1
  F  F12  1  0.32631859  0.43546758  0.72151602  1
  F  F13  1  0.67451108  0.56275255  0.28079482  1
  F  F14  1  0.83299485  0.42272018  0.71192643  1
  F  F15  1  0.16853849  0.57636545  0.28942459  1
  F  F16  1  0.72029830  0.47390216  0.95675769  1
  F  F17  1  0.28452852  0.53283204  0.04507767  1
  F  F18  1  0.56713582  0.66777287  0.57149901  1
  F  F19  1  0.42820372  0.32667038  0.42314019  1
loop_
_geom_bond_atom_site_label_1
_geom_bond_atom_site_label_2
_geom_bond_distance
_geom_bond_site_symmetry_2
F0 Nb0 1.843697 1_555
F1 Nb1 1.850670 1_555
F2 Nb0 1.840751 1_555
F3 Nb1 1.842926 1_555
F4 Ta0 1.892021 1_555
F5 Os0 1.884932 1_555
F6 Ta0 1.875913 1_655
F7 Os0 1.878808 1_455
F8 Ta0 1.850687 1_655
F9 Os0 1.854456 1_455
F10 Ta0 1.844083 1_555
F11 Os0 1.851742 1_555
F12 Ta0 2.040244 1_555
F12 Nb1 2.134506 1_555
F13 Os0 1.983683 1_555
F13 Nb0 2.160290 1_555
F14 Ta0 2.035206 1_655
F14 Nb1 2.148506 1_555
F15 Os0 1.981448 1_455
F15 Nb0 2.163974 1_555
F16 Nb1 1.888867 1_555
F17 Nb0 1.882594 1_555
F18 Nb1 1.874059 1_555
F19 Nb0 1.875365 1_555
