# generated using pymatgen
data_NaSrPS4
_symmetry_space_group_name_H-M   'P 1'
_cell_length_a   9.69652232
_cell_length_b   6.11022143
_cell_length_c   11.70338405
_cell_angle_alpha   71.64045959
_cell_angle_beta   90.00000000
_cell_angle_gamma   90.00000000
_symmetry_Int_Tables_number   1
_chemical_formula_structural   NaSrPS4
_chemical_formula_sum   'Na4 Sr4 P4 S16'
_cell_volume   658.10588259
_cell_formula_units_Z   4
loop_
 _symmetry_equiv_pos_site_id
 _symmetry_equiv_pos_as_xyz
  1  'x, y, z'
loop_
 _atom_site_type_symbol
 _atom_site_label
 _atom_site_symmetry_multiplicity
 _atom_site_fract_x
 _atom_site_fract_y
 _atom_site_fract_z
 _atom_site_occupancy
  Na  Na0  1  0.17355028  0.16769824  0.96812448  1
  Na  Na1  1  0.32644972  0.16769824  0.46812448  1
  Na  Na2  1  0.82644972  0.83230176  0.03187552  1
  Na  Na3  1  0.67355028  0.83230176  0.53187552  1
  Sr  Sr0  1  0.88082101  0.38019398  0.34745921  1
  Sr  Sr1  1  0.61917899  0.38019398  0.84745921  1
  Sr  Sr2  1  0.11917899  0.61980602  0.65254079  1
  Sr  Sr3  1  0.38082101  0.61980602  0.15254079  1
  P  P0  1  0.61579386  0.11292767  0.18910839  1
  P  P1  1  0.88420614  0.11292767  0.68910839  1
  P  P2  1  0.38420614  0.88707233  0.81089161  1
  P  P3  1  0.11579386  0.88707233  0.31089161  1
  S  S0  1  0.78230851  0.29099368  0.09972251  1
  S  S1  1  0.71769149  0.29099368  0.59972251  1
  S  S2  1  0.21769149  0.70900632  0.90027749  1
  S  S3  1  0.28230851  0.70900632  0.40027749  1
  S  S4  1  0.94668733  0.81065068  0.42032189  1
  S  S5  1  0.55331267  0.81065068  0.92032189  1
  S  S6  1  0.05331267  0.18934932  0.57967811  1
  S  S7  1  0.44668733  0.18934932  0.07967811  1
  S  S8  1  0.58148714  0.21267268  0.33806039  1
  S  S9  1  0.91851286  0.21267268  0.83806039  1
  S  S10  1  0.41851286  0.78732732  0.66193961  1
  S  S11  1  0.08148714  0.78732732  0.16193961  1
  S  S12  1  0.14727812  0.23354095  0.26214884  1
  S  S13  1  0.35272188  0.23354095  0.76214884  1
  S  S14  1  0.85272188  0.76645905  0.73785116  1
  S  S15  1  0.64727812  0.76645905  0.23785116  1
loop_
_geom_bond_atom_site_label_1
_geom_bond_atom_site_label_2
_geom_bond_distance
_geom_bond_site_symmetry_2
Na0 S11 2.832434 1_546
Na0 S9 2.871354 1_455
Na0 S13 2.894877 1_555
Na0 S7 2.974092 1_556
Na0 S2 3.173456 1_545
Na0 S2 3.177873 1_555
Na1 S10 2.832434 1_545
Na1 S8 2.871354 1_555
Na1 S12 2.894877 1_555
Na1 S6 2.974092 1_555
Na1 S3 3.173456 1_545
Na1 S3 3.177873 1_555
Na2 S9 2.832434 1_564
Na2 S11 2.871354 1_655
Na2 S15 2.894877 1_555
Na2 S5 2.974092 1_554
Na2 S0 3.173456 1_565
Na2 S0 3.177873 1_555
Na3 S8 2.832434 1_565
Na3 S10 2.871354 1_555
Na3 S14 2.894877 1_555
Na3 S4 2.974092 1_555
Na3 S1 3.173456 1_565
Na3 S1 3.177873 1_555
P0 S15 2.034585 1_545
P0 S0 2.041596 1_555
P0 S7 2.042127 1_555
P0 S8 2.047021 1_555
P1 S14 2.034585 1_545
P1 S1 2.041596 1_555
P1 S6 2.042127 1_655
P1 S9 2.047021 1_555
P2 S13 2.034585 1_565
P2 S2 2.041596 1_555
P2 S5 2.042127 1_555
P2 S10 2.047021 1_555
P3 S12 2.034585 1_565
P3 S3 2.041596 1_555
P3 S4 2.042127 1_455
P3 S11 2.047021 1_555
S0 Sr1 3.240635 1_554
S0 Sr0 3.257497 1_555
S1 Sr0 3.240635 1_555
S1 Sr1 3.257497 1_555
S2 Sr3 3.240635 1_556
S2 Sr2 3.257497 1_555
S3 Sr2 3.240635 1_555
S3 Sr3 3.257497 1_555
S4 Sr0 3.076663 1_555
S4 Sr2 3.089820 1_655
S4 Sr0 3.372874 1_565
S5 Sr1 3.076663 1_555
S5 Sr3 3.089820 1_556
S5 Sr1 3.372874 1_565
S6 Sr2 3.076663 1_555
S6 Sr0 3.089820 1_455
S6 Sr2 3.372874 1_545
S7 Sr3 3.076663 1_555
S7 Sr1 3.089820 1_554
S7 Sr3 3.372874 1_545
S8 Sr0 3.091159 1_555
S8 Sr3 3.359479 1_555
S9 Sr1 3.091159 1_555
S9 Sr2 3.359479 1_655
S10 Sr2 3.091159 1_555
S10 Sr1 3.359479 1_555
S11 Sr3 3.091159 1_555
S11 Sr0 3.359479 1_455
S12 Sr0 3.006485 1_455
S12 Sr3 3.230615 1_555
S13 Sr1 3.006485 1_555
S13 Sr2 3.230615 1_555
S14 Sr2 3.006485 1_655
S14 Sr1 3.230615 1_555
S15 Sr3 3.006485 1_555
S15 Sr0 3.230615 1_555
