# generated using pymatgen
data_K4Ba(GeS3)2
_symmetry_space_group_name_H-M   'P 1'
_cell_length_a   7.32992327
_cell_length_b   7.32992339
_cell_length_c   8.42055063
_cell_angle_alpha   81.54487843
_cell_angle_beta   81.54488410
_cell_angle_gamma   119.63203891
_symmetry_Int_Tables_number   1
_chemical_formula_structural   K4Ba(GeS3)2
_chemical_formula_sum   'K4 Ba1 Ge2 S6'
_cell_volume   376.05779556
_cell_formula_units_Z   1
loop_
 _symmetry_equiv_pos_site_id
 _symmetry_equiv_pos_as_xyz
  1  'x, y, z'
loop_
 _atom_site_type_symbol
 _atom_site_label
 _atom_site_symmetry_multiplicity
 _atom_site_fract_x
 _atom_site_fract_y
 _atom_site_fract_z
 _atom_site_occupancy
  K  K0  1  0.81973517  0.18026483  0.00000000  1
  K  K1  1  0.17582334  0.82417666  1.00000000  1
  K  K2  1  0.50458048  0.49541952  1.00000000  1
  K  K3  1  0.66629737  0.33370263  0.50000000  1
  Ba  Ba0  1  0.33502805  0.66497195  0.50000000  1
  Ge  Ge0  1  0.04932748  0.05029095  0.34800762  1
  Ge  Ge1  1  0.94970905  0.95067252  0.65199238  1
  S  S0  1  0.08618361  0.37384382  0.26217585  1
  S  S1  1  0.36570214  0.07082716  0.26474147  1
  S  S2  1  0.92917284  0.63429786  0.73525853  1
  S  S3  1  0.62615618  0.91381639  0.73782415  1
  S  S4  1  0.78791573  0.79563244  0.26000034  1
  S  S5  1  0.20436756  0.21208427  0.73999966  1
loop_
_geom_bond_atom_site_label_1
_geom_bond_atom_site_label_2
_geom_bond_distance
_geom_bond_site_symmetry_2
K0 S0 3.185950 1_655
K0 S3 3.185950 1_544
K0 S4 3.190721 1_545
K0 S5 3.190721 1_654
K0 S2 3.367699 1_554
K0 S1 3.367700 1_555
K1 S2 3.128055 1_455
K1 S1 3.128055 1_566
K1 S5 3.219935 1_565
K1 S4 3.219936 1_456
K1 S0 3.389284 1_556
K1 S3 3.389284 1_555
K2 S3 3.130693 1_555
K2 S0 3.130694 1_556
K2 S1 3.138700 1_556
K2 S2 3.138700 1_555
K2 S5 3.490480 1_555
K2 S4 3.490480 1_556
K3 S3 3.269284 1_545
K3 S0 3.269284 1_655
K3 S1 3.271043 1_555
K3 S2 3.271043 1_555
K3 S4 3.288842 1_555
K3 S5 3.288842 1_555
Ba0 S1 3.209278 1_565
Ba0 S2 3.209279 1_455
Ba0 S5 3.214882 1_555
Ba0 S4 3.214882 1_555
Ba0 S3 3.220729 1_555
Ba0 S0 3.220729 1_555
Ge0 S4 2.234402 1_445
Ge0 S0 2.241625 1_555
Ge0 S1 2.244475 1_555
Ge1 S5 2.234402 1_665
Ge1 S3 2.241625 1_555
Ge1 S2 2.244475 1_555
