# generated using pymatgen
data_Ta9Nb(GaSi2)2
_symmetry_space_group_name_H-M   'P 1'
_cell_length_a   7.56217851
_cell_length_b   7.55858977
_cell_length_c   7.55929330
_cell_angle_alpha   128.34704531
_cell_angle_beta   128.36189686
_cell_angle_gamma   76.03742390
_symmetry_Int_Tables_number   1
_chemical_formula_structural   Ta9Nb(GaSi2)2
_chemical_formula_sum   'Ta9 Nb1 Ga2 Si4'
_cell_volume   258.34704388
_cell_formula_units_Z   1
loop_
 _symmetry_equiv_pos_site_id
 _symmetry_equiv_pos_as_xyz
  1  'x, y, z'
loop_
 _atom_site_type_symbol
 _atom_site_label
 _atom_site_symmetry_multiplicity
 _atom_site_fract_x
 _atom_site_fract_y
 _atom_site_fract_z
 _atom_site_occupancy
  Ta  Ta0  1  0.68680563  0.51571013  0.50002193  1
  Ta  Ta1  1  0.51604518  0.01561262  0.82856640  1
  Ta  Ta2  1  0.18750036  0.68706399  0.17215060  1
  Ta  Ta3  1  0.98474063  0.81300699  0.49998653  1
  Ta  Ta4  1  0.31278040  0.48452656  0.49997810  1
  Ta  Ta5  1  0.48333493  0.98390603  0.17114468  1
  Ta  Ta6  1  0.81215707  0.31280069  0.82814256  1
  Ta  Ta7  1  0.99991297  0.99991956  0.99954799  1
  Ta  Ta8  1  0.50036599  0.50037785  0.00044570  1
  Nb  Nb0  1  0.01660572  0.18716252  0.50000094  1
  Ga  Ga0  1  0.74956298  0.74981788  0.99966061  1
  Ga  Ga1  1  0.25002792  0.24998995  0.00034285  1
  Si  Si0  1  0.37039774  0.12963032  0.50003104  1
  Si  Si1  1  0.63007125  0.87002645  0.49999117  1
  Si  Si2  1  0.87020471  0.37057763  0.24052579  1
  Si  Si3  1  0.12948551  0.62986983  0.75946311  1
loop_
_geom_bond_atom_site_label_1
_geom_bond_atom_site_label_2
_geom_bond_distance
_geom_bond_site_symmetry_2
Nb0 Si0 2.604802 1_555
Nb0 Si3 2.632358 1_555
Nb0 Si2 2.633069 1_455
Nb0 Ta3 2.895618 1_445
Nb0 Ta7 3.029915 1_444
Nb0 Ta8 3.031058 1_556
Nb0 Ta0 3.065664 1_455
Nb0 Ta6 3.251763 1_455
Nb0 Ta5 3.257298 1_445
Ga0 Ta1 2.739449 1_565
Ga0 Ta0 2.740237 1_555
Ga0 Ta6 2.740324 1_555
Ga0 Ta4 2.740439 1_555
Ga0 Ta3 2.741306 1_556
Ga0 Nb0 2.745487 1_666
Ga0 Ta5 2.745656 1_556
Ga0 Ta2 2.746323 1_656
Ga0 Ta8 2.974630 1_556
Ga0 Ta7 2.981433 1_555
Ga1 Ta4 2.739692 1_555
Ga1 Ta5 2.739910 1_545
Ga1 Ta2 2.740243 1_555
Ga1 Ta0 2.740960 1_555
Ga1 Ta3 2.741831 1_444
Ga1 Nb0 2.745078 1_554
Ga1 Ta1 2.745816 1_554
Ga1 Ta6 2.746327 1_454
Ga1 Ta7 2.974445 1_444
Ga1 Ta8 2.981783 1_555
Si0 Si1 2.418059 1_545
Si0 Ta8 2.586320 1_556
Si0 Ta7 2.586534 1_444
Si0 Ta4 2.612051 1_555
Si0 Ta5 2.628156 1_545
Si0 Ta6 2.629619 1_555
Si0 Ta1 2.631738 1_555
Si0 Ta2 2.633615 1_545
Si1 Ta7 2.580982 1_555
Si1 Ta8 2.580985 1_555
Si1 Ta0 2.608184 1_555
Si1 Ta3 2.611807 1_555
Si1 Ta5 2.630959 1_555
Si1 Ta1 2.633008 1_565
Si1 Ta6 2.633029 1_565
Si1 Ta2 2.634571 1_555
Si2 Si3 2.416885 1_655
Si2 Ta8 2.581317 1_555
Si2 Ta7 2.586244 1_544
Si2 Ta6 2.608803 1_554
Si2 Ta1 2.610918 1_554
Si2 Ta3 2.632636 1_555
Si2 Ta4 2.633832 1_655
Si2 Ta0 2.635778 1_555
Si3 Ta7 2.581319 1_455
Si3 Ta8 2.586220 1_556
Si3 Ta5 2.606085 1_556
Si3 Ta2 2.613557 1_556
Si3 Ta3 2.633358 1_455
Si3 Ta4 2.634736 1_555
Si3 Ta0 2.634826 1_455
