# generated using pymatgen
data_NaLiZn12
_symmetry_space_group_name_H-M   'P 1'
_cell_length_a   8.50289664
_cell_length_b   8.50289769
_cell_length_c   8.50289659
_cell_angle_alpha   60.00000056
_cell_angle_beta   59.99999650
_cell_angle_gamma   59.99999959
_symmetry_Int_Tables_number   1
_chemical_formula_structural   NaLiZn12
_chemical_formula_sum   'Na2 Li2 Zn24'
_cell_volume   434.69609844
_cell_formula_units_Z   2
loop_
 _symmetry_equiv_pos_site_id
 _symmetry_equiv_pos_as_xyz
  1  'x, y, z'
loop_
 _atom_site_type_symbol
 _atom_site_label
 _atom_site_symmetry_multiplicity
 _atom_site_fract_x
 _atom_site_fract_y
 _atom_site_fract_z
 _atom_site_occupancy
  Na  Na0  1  0.25000000  0.25000000  0.25000000  1
  Na  Na1  1  0.75000000  0.75000000  0.75000000  1
  Li  Li0  1  0.00000000  0.00000000  0.00000000  1
  Li  Li1  1  0.50000000  0.50000000  0.50000000  1
  Zn  Zn0  1  0.43842419  0.20239482  0.79760518  1
  Zn  Zn1  1  0.93842419  0.70239482  0.06157581  1
  Zn  Zn2  1  0.70239482  0.93842419  0.29760518  1
  Zn  Zn3  1  0.29760518  0.70239482  0.93842419  1
  Zn  Zn4  1  0.93842419  0.06157581  0.29760518  1
  Zn  Zn5  1  0.70239482  0.06157581  0.93842419  1
  Zn  Zn6  1  0.29760518  0.93842419  0.06157581  1
  Zn  Zn7  1  0.79760518  0.43842419  0.20239482  1
  Zn  Zn8  1  0.20239482  0.79760518  0.43842419  1
  Zn  Zn9  1  0.43842419  0.56157581  0.20239482  1
  Zn  Zn10  1  0.43842419  0.79760518  0.56157581  1
  Zn  Zn11  1  0.20239482  0.56157581  0.79760518  1
  Zn  Zn12  1  0.56157581  0.43842419  0.79760518  1
  Zn  Zn13  1  0.56157581  0.20239482  0.43842419  1
  Zn  Zn14  1  0.79760518  0.20239482  0.56157581  1
  Zn  Zn15  1  0.06157581  0.93842419  0.70239482  1
  Zn  Zn16  1  0.06157581  0.29760518  0.93842419  1
  Zn  Zn17  1  0.93842419  0.29760518  0.70239482  1
  Zn  Zn18  1  0.06157581  0.70239482  0.29760518  1
  Zn  Zn19  1  0.29760518  0.06157581  0.70239482  1
  Zn  Zn20  1  0.70239482  0.29760518  0.06157581  1
  Zn  Zn21  1  0.20239482  0.43842419  0.56157581  1
  Zn  Zn22  1  0.79760518  0.56157581  0.43842419  1
  Zn  Zn23  1  0.56157581  0.79760518  0.20239482  1
loop_
_geom_bond_atom_site_label_1
_geom_bond_atom_site_label_2
_geom_bond_distance
_geom_bond_site_symmetry_2
Na0 Zn17 3.503309 1_455
Na0 Zn14 3.503309 1_455
Na0 Zn5 3.503309 1_554
Na0 Zn0 3.503309 1_554
Na0 Zn12 3.503309 1_554
Na0 Zn20 3.503309 1_555
Na0 Zn7 3.503309 1_455
Na0 Zn19 3.503309 1_555
Na0 Zn22 3.503309 1_455
Na0 Zn16 3.503309 1_554
Na0 Zn13 3.503309 1_555
Na0 Zn2 3.503309 1_545
Na0 Zn15 3.503309 1_545
Na0 Zn11 3.503310 1_554
Na0 Zn21 3.503310 1_555
Na0 Zn4 3.503310 1_455
Na0 Zn6 3.503310 1_545
Na0 Zn1 3.503310 1_455
Na0 Zn9 3.503310 1_555
Na0 Zn10 3.503310 1_545
Na0 Zn23 3.503310 1_545
Na0 Zn3 3.503310 1_554
Na0 Zn18 3.503310 1_555
Na0 Zn8 3.503310 1_545
Na1 Zn18 3.503309 1_655
Na1 Zn8 3.503309 1_655
Na1 Zn6 3.503309 1_556
Na1 Zn23 3.503309 1_556
Na1 Zn9 3.503309 1_556
Na1 Zn3 3.503309 1_555
Na1 Zn11 3.503309 1_655
Na1 Zn2 3.503309 1_555
Na1 Zn21 3.503309 1_655
Na1 Zn1 3.503309 1_556
Na1 Zn10 3.503309 1_555
Na1 Zn19 3.503309 1_565
Na1 Zn4 3.503309 1_565
Na1 Zn7 3.503310 1_556
Na1 Zn22 3.503310 1_555
Na1 Zn15 3.503310 1_655
Na1 Zn5 3.503310 1_565
Na1 Zn16 3.503310 1_655
Na1 Zn12 3.503310 1_555
Na1 Zn13 3.503310 1_565
Na1 Zn0 3.503310 1_565
Na1 Zn20 3.503310 1_556
Na1 Zn17 3.503310 1_555
Na1 Zn14 3.503310 1_565
Li0 Zn2 2.584103 1_445
Li0 Zn19 2.584103 1_554
Li0 Zn4 2.584103 1_455
Li0 Zn15 2.584103 1_544
Li0 Zn6 2.584103 1_545
Li0 Zn5 2.584103 1_454
Li0 Zn20 2.584103 1_455
Li0 Zn3 2.584103 1_544
Li0 Zn18 2.584103 1_545
Li0 Zn17 2.584103 1_454
Li0 Zn16 2.584104 1_554
Li0 Zn1 2.584104 1_445
Li1 Zn7 2.584103 1_555
Li1 Zn11 2.584103 1_555
Li1 Zn9 2.584103 1_555
Li1 Zn12 2.584103 1_555
Li1 Zn22 2.584103 1_555
Li1 Zn21 2.584103 1_555
Li1 Zn14 2.584103 1_555
Li1 Zn8 2.584103 1_555
Li1 Zn23 2.584103 1_555
Li1 Zn0 2.584103 1_555
Li1 Zn10 2.584104 1_555
Li1 Zn13 2.584104 1_555
Zn0 Zn5 2.543922 1_555
Zn0 Zn6 2.543923 1_546
Zn0 Zn16 2.625865 1_555
Zn0 Zn19 2.625866 1_555
Zn0 Zn14 2.688093 1_555
Zn0 Zn13 2.688093 1_555
Zn0 Zn12 2.688094 1_555
Zn0 Zn11 2.688094 1_555
Zn0 Zn21 2.838232 1_555
Zn1 Zn11 2.543922 1_654
Zn1 Zn7 2.543923 1_555
Zn1 Zn23 2.625865 1_555
Zn1 Zn22 2.625865 1_555
Zn1 Zn3 2.688093 1_654
Zn1 Zn18 2.688093 1_655
Zn1 Zn15 2.688093 1_654
Zn1 Zn5 2.688094 1_564
Zn1 Zn2 2.838232 1_555
Zn2 Zn23 2.625866 1_555
Zn2 Zn22 2.625866 1_555
Zn2 Zn5 2.688093 1_564
Zn2 Zn4 2.688094 1_565
Zn2 Zn20 2.688094 1_565
Zn3 Zn9 2.543922 1_556
Zn3 Zn6 2.688094 1_556
Zn4 Zn8 2.543922 1_645
Zn4 Zn7 2.625866 1_555
Zn4 Zn6 2.688093 1_645
Zn6 Zn8 2.625865 1_555
Zn6 Zn9 2.625866 1_555
Zn7 Zn9 2.688093 1_555
Zn8 Zn9 2.838232 1_555
Zn10 Zn2 2.543922 1_555
Zn10 Zn19 2.543923 1_565
Zn10 Zn3 2.625865 1_555
Zn10 Zn15 2.625865 1_555
Zn10 Zn23 2.688093 1_555
Zn10 Zn22 2.688093 1_555
Zn10 Zn8 2.688093 1_555
Zn10 Zn12 2.688094 1_555
Zn10 Zn11 2.838233 1_555
Zn11 Zn16 2.543923 1_555
Zn11 Zn3 2.625866 1_555
Zn11 Zn15 2.625866 1_555
Zn11 Zn12 2.688093 1_555
Zn11 Zn8 2.688093 1_555
Zn11 Zn21 2.688094 1_555
Zn12 Zn20 2.543922 1_556
Zn12 Zn3 2.543922 1_555
Zn12 Zn17 2.625865 1_555
Zn12 Zn5 2.625866 1_555
Zn12 Zn22 2.688093 1_555
Zn12 Zn14 2.838232 1_555
Zn13 Zn19 2.543922 1_555
Zn13 Zn2 2.543923 1_545
Zn13 Zn20 2.625865 1_555
Zn13 Zn4 2.625865 1_555
Zn13 Zn21 2.688093 1_555
Zn13 Zn14 2.688093 1_555
Zn13 Zn9 2.688094 1_555
Zn13 Zn7 2.838233 1_555
Zn14 Zn4 2.543922 1_555
Zn14 Zn15 2.543922 1_645
Zn14 Zn5 2.625865 1_555
Zn14 Zn17 2.625865 1_555
Zn14 Zn7 2.688093 1_555
Zn14 Zn22 2.688094 1_555
Zn15 Zn8 2.543922 1_555
Zn15 Zn5 2.688093 1_465
Zn15 Zn19 2.688094 1_565
Zn15 Zn17 2.688094 1_465
Zn15 Zn3 2.838232 1_555
Zn16 Zn7 2.543922 1_456
Zn16 Zn21 2.625865 1_555
Zn16 Zn20 2.688093 1_456
Zn16 Zn17 2.688093 1_455
Zn16 Zn4 2.688093 1_456
Zn16 Zn6 2.688094 1_546
Zn16 Zn19 2.838232 1_555
Zn17 Zn21 2.543922 1_655
Zn17 Zn22 2.543922 1_555
Zn17 Zn20 2.688093 1_556
Zn17 Zn19 2.688093 1_655
Zn17 Zn5 2.838233 1_555
Zn18 Zn22 2.543922 1_455
Zn18 Zn21 2.543922 1_555
Zn18 Zn9 2.625865 1_555
Zn18 Zn8 2.625865 1_555
Zn18 Zn3 2.688093 1_554
Zn18 Zn2 2.688093 1_455
Zn18 Zn4 2.688094 1_465
Zn18 Zn6 2.838233 1_555
Zn19 Zn21 2.625866 1_555
Zn19 Zn6 2.688093 1_546
Zn19 Zn3 2.688094 1_545
Zn20 Zn9 2.543922 1_555
Zn20 Zn7 2.625866 1_555
Zn20 Zn5 2.688094 1_554
Zn20 Zn4 2.838232 1_555
Zn21 Zn9 2.688093 1_555
Zn21 Zn8 2.688094 1_555
Zn22 Zn7 2.688094 1_555
Zn22 Zn23 2.838232 1_555
Zn23 Zn6 2.543922 1_555
Zn23 Zn5 2.543923 1_564
Zn23 Zn8 2.688093 1_555
Zn23 Zn9 2.688094 1_555
Zn23 Zn7 2.688094 1_555
