# generated using pymatgen
data_Ta10GaSi5
_symmetry_space_group_name_H-M   'P 1'
_cell_length_a   6.55545139
_cell_length_b   7.53552218
_cell_length_c   6.55545139
_cell_angle_alpha   115.78337754
_cell_angle_beta   90.00000000
_cell_angle_gamma   115.78337754
_symmetry_Int_Tables_number   1
_chemical_formula_structural   Ta10GaSi5
_chemical_formula_sum   'Ta10 Ga1 Si5'
_cell_volume   255.31415704
_cell_formula_units_Z   1
loop_
 _symmetry_equiv_pos_site_id
 _symmetry_equiv_pos_as_xyz
  1  'x, y, z'
loop_
 _atom_site_type_symbol
 _atom_site_label
 _atom_site_symmetry_multiplicity
 _atom_site_fract_x
 _atom_site_fract_y
 _atom_site_fract_z
 _atom_site_occupancy
  Ta  Ta0  1  0.99978813  0.99957626  0.99978813  1
  Ta  Ta1  1  0.50021187  0.00042374  0.50021187  1
  Ta  Ta2  1  0.51803868  0.70141024  0.68906513  1
  Ta  Ta3  1  0.18337056  0.70141024  0.01234412  1
  Ta  Ta4  1  0.68906513  0.70141024  0.18337056  1
  Ta  Ta5  1  0.01234412  0.70141024  0.51803868  1
  Ta  Ta6  1  0.48765588  0.29858976  0.31662944  1
  Ta  Ta7  1  0.81093487  0.29858976  0.98196132  1
  Ta  Ta8  1  0.31662944  0.29858976  0.81093487  1
  Ta  Ta9  1  0.98196132  0.29858976  0.48765588  1
  Ga  Ga0  1  0.25000000  0.50000000  0.25000000  1
  Si  Si0  1  0.75000000  0.50000000  0.75000000  1
  Si  Si1  1  0.87034879  0.00000000  0.62965121  1
  Si  Si2  1  0.12965121  0.00000000  0.37034879  1
  Si  Si3  1  0.62965121  0.00000000  0.12965121  1
  Si  Si4  1  0.37034879  1.00000000  0.87034879  1
loop_
_geom_bond_atom_site_label_1
_geom_bond_atom_site_label_2
_geom_bond_distance
_geom_bond_site_symmetry_2
Ga0 Ta7 2.748661 1_454
Ga0 Ta2 2.748661 1_555
Ga0 Ta4 2.748664 1_555
Ga0 Ta8 2.748664 1_554
Ga0 Ta5 2.748666 1_555
Ga0 Ta9 2.748666 1_455
Ga0 Ta6 2.748669 1_555
Ga0 Ta3 2.748669 1_555
Ga0 Ta1 2.973087 1_565
Ga0 Ta0 2.973087 1_444
Si0 Ta3 2.703779 1_656
Si0 Ta6 2.703779 1_555
Si0 Ta4 2.703782 1_556
Si0 Ta8 2.703782 1_555
Si0 Ta5 2.703784 1_655
Si0 Ta9 2.703784 1_555
Si0 Ta2 2.703787 1_555
Si0 Ta7 2.703787 1_555
Si0 Ta0 2.968052 1_555
Si0 Ta1 2.968052 1_555
Si1 Si2 2.403943 1_655
Si1 Ta1 2.572276 1_555
Si1 Ta0 2.572276 1_545
Si1 Ta7 2.605771 1_555
Si1 Ta2 2.605771 1_545
Si1 Ta9 2.618073 1_555
Si1 Ta5 2.618073 1_645
Si1 Ta8 2.642205 1_655
Si1 Ta4 2.642205 1_545
Si2 Ta0 2.572276 1_444
Si2 Ta1 2.572276 1_555
Si2 Ta6 2.605771 1_555
Si2 Ta3 2.605771 1_545
Si2 Ta8 2.618078 1_555
Si2 Ta4 2.618078 1_445
Si2 Ta9 2.642199 1_455
Si2 Ta5 2.642199 1_545
Si3 Si4 2.403943 1_544
Si3 Ta0 2.572276 1_544
Si3 Ta1 2.572276 1_555
Si3 Ta4 2.605767 1_545
Si3 Ta9 2.605774 1_555
Si3 Ta6 2.618073 1_555
Si3 Ta2 2.618078 1_544
Si3 Ta7 2.642200 1_554
Si3 Ta3 2.642204 1_545
Si4 Ta1 2.572276 1_565
Si4 Ta0 2.572276 1_455
Si4 Ta8 2.605767 1_565
Si4 Ta5 2.605774 1_555
Si4 Ta3 2.618073 1_556
Si4 Ta7 2.618078 1_565
Si4 Ta2 2.642200 1_555
Si4 Ta6 2.642204 1_566
