# generated using pymatgen
data_VCl(OF3)2
_symmetry_space_group_name_H-M   'P 1'
_cell_length_a   5.62524814
_cell_length_b   6.87265200
_cell_length_c   9.86465575
_cell_angle_alpha   46.94551812
_cell_angle_beta   90.00000000
_cell_angle_gamma   90.00000000
_symmetry_Int_Tables_number   1
_chemical_formula_structural   VCl(OF3)2
_chemical_formula_sum   'V2 Cl2 O4 F12'
_cell_volume   278.66984277
_cell_formula_units_Z   2
loop_
 _symmetry_equiv_pos_site_id
 _symmetry_equiv_pos_as_xyz
  1  'x, y, z'
loop_
 _atom_site_type_symbol
 _atom_site_label
 _atom_site_symmetry_multiplicity
 _atom_site_fract_x
 _atom_site_fract_y
 _atom_site_fract_z
 _atom_site_occupancy
  V  V0  1  0.00308700  0.50000000  0.75000000  1
  V  V1  1  0.99691300  0.50000000  0.25000000  1
  Cl  Cl0  1  0.35014981  0.00000000  0.75000000  1
  Cl  Cl1  1  0.64985019  0.00000000  0.25000000  1
  O  O0  1  0.51897690  0.84301922  0.41636843  1
  O  O1  1  0.48102310  0.84301922  0.91636843  1
  O  O2  1  0.51897690  0.15698078  0.08363157  1
  O  O3  1  0.48102310  0.15698078  0.58363157  1
  F  F0  1  0.75043338  0.33282455  0.23800401  1
  F  F1  1  0.01343750  0.24186826  0.99586113  1
  F  F2  1  0.24956662  0.33282455  0.73800401  1
  F  F3  1  0.20654859  0.32367612  0.23838933  1
  F  F4  1  0.75043338  0.66717545  0.26199599  1
  F  F5  1  0.79345141  0.67632388  0.76161067  1
  F  F6  1  0.98656250  0.24186826  0.49586113  1
  F  F7  1  0.79345141  0.32367612  0.73838933  1
  F  F8  1  0.24956662  0.66717545  0.76199599  1
  F  F9  1  0.01343750  0.75813174  0.50413887  1
  F  F10  1  0.98656250  0.75813174  0.00413887  1
  F  F11  1  0.20654859  0.67632388  0.26161067  1
loop_
_geom_bond_atom_site_label_1
_geom_bond_atom_site_label_2
_geom_bond_distance
_geom_bond_site_symmetry_2
Cl0 O1 1.407768 1_545
Cl0 O3 1.407768 1_555
Cl1 O0 1.407768 1_545
Cl1 O2 1.407768 1_555
F0 V1 1.855293 1_555
F1 V0 1.777102 1_555
F2 V0 1.855293 1_555
F3 V1 1.749787 1_455
F4 V1 1.855293 1_555
F5 V0 1.749787 1_655
F6 V1 1.777102 1_555
F7 V0 1.749787 1_655
F8 V0 1.855293 1_555
F9 V0 1.777102 1_555
F10 V1 1.777102 1_555
F11 V1 1.749787 1_455
