# generated using pymatgen
data_La5Sn3Cl
_symmetry_space_group_name_H-M   'P 1'
_cell_length_a   9.64466193
_cell_length_b   9.64465667
_cell_length_c   6.98350171
_cell_angle_alpha   90.00002461
_cell_angle_beta   89.99999048
_cell_angle_gamma   119.99997647
_symmetry_Int_Tables_number   1
_chemical_formula_structural   La5Sn3Cl
_chemical_formula_sum   'La10 Sn6 Cl2'
_cell_volume   562.57154270
_cell_formula_units_Z   2
loop_
 _symmetry_equiv_pos_site_id
 _symmetry_equiv_pos_as_xyz
  1  'x, y, z'
loop_
 _atom_site_type_symbol
 _atom_site_label
 _atom_site_symmetry_multiplicity
 _atom_site_fract_x
 _atom_site_fract_y
 _atom_site_fract_z
 _atom_site_occupancy
  La  La0  1  0.66666700  0.33333300  0.00000000  1
  La  La1  1  0.33333300  0.66666700  0.50000000  1
  La  La2  1  0.66666800  0.33333300  0.50000000  1
  La  La3  1  0.33333300  0.66666700  0.00000000  1
  La  La4  1  0.73666772  0.00000741  0.75000000  1
  La  La5  1  0.73666772  0.73666031  0.25000000  1
  La  La6  1  -0.00000841  0.26333228  0.25000000  1
  La  La7  1  -0.00000841  0.73665931  0.75000000  1
  La  La8  1  0.26333969  0.26333228  0.75000000  1
  La  La9  1  0.26333969  0.00000741  0.25000000  1
  Sn  Sn0  1  0.61236903  0.61237843  0.75000000  1
  Sn  Sn1  1  0.00000940  0.61237743  0.25000000  1
  Sn  Sn2  1  0.61236903  0.99999060  0.25000000  1
  Sn  Sn3  1  0.38762257  0.99999060  0.75000000  1
  Sn  Sn4  1  0.00000940  0.38763197  0.75000000  1
  Sn  Sn5  1  0.38762257  0.38763197  0.25000000  1
  Cl  Cl0  1  0.99999900  0.00000000  0.50000000  1
  Cl  Cl1  1  0.99999900  0.00000000  0.00000000  1
loop_
_geom_bond_atom_site_label_1
_geom_bond_atom_site_label_2
_geom_bond_distance
_geom_bond_site_symmetry_2
La0 Sn4 3.460453 1_654
La0 Sn2 3.460455 1_545
La0 Sn3 3.460455 1_544
La0 Sn1 3.460456 1_655
La0 Sn5 3.460460 1_555
La0 Sn0 3.460463 1_554
La1 Sn3 3.460324 1_555
La1 Sn1 3.460327 1_555
La1 Sn4 3.460330 1_555
La1 Sn5 3.460333 1_555
La1 Sn2 3.460333 1_555
La1 Sn0 3.460338 1_555
La2 Sn4 3.460445 1_655
La2 Sn2 3.460451 1_545
La2 Sn1 3.460451 1_655
La2 Sn3 3.460459 1_545
La2 Sn0 3.460467 1_555
La2 Sn5 3.460469 1_555
La3 Sn3 3.460326 1_554
La3 Sn1 3.460327 1_555
La3 Sn4 3.460330 1_554
La3 Sn2 3.460332 1_555
La3 Sn5 3.460334 1_555
La3 Sn0 3.460337 1_554
La4 Sn4 3.306360 1_655
La4 Sn0 3.306368 1_545
La4 Sn3 3.366341 1_545
La4 Sn2 3.691787 1_546
La4 Sn2 3.691788 1_545
La5 Sn1 3.306359 1_655
La5 Sn2 3.306368 1_555
La5 Sn5 3.366342 1_555
La5 Sn0 3.691787 1_554
La5 Sn0 3.691788 1_555
La6 Sn2 3.306347 1_445
La6 Sn5 3.306387 1_555
La6 Sn1 3.366335 1_555
La6 Sn4 3.691789 1_555
La6 Sn4 3.691790 1_554
La7 Sn0 3.306346 1_455
La7 Sn3 3.306387 1_555
La7 Sn4 3.366335 1_555
La7 Sn1 3.691789 1_555
La7 Sn1 3.691790 1_556
La8 Sn3 3.306359 1_545
La8 Sn4 3.306376 1_555
La8 Sn0 3.366351 1_555
La8 Sn5 3.691791 1_556
La8 Sn5 3.691791 1_555
La9 Sn5 3.306359 1_555
La9 Sn1 3.306377 1_545
La9 Sn2 3.366351 1_545
La9 Sn3 3.691791 1_544
La9 Sn3 3.691791 1_545
Cl0 La4 3.081971 1_555
Cl0 La5 3.081975 1_545
Cl0 La6 3.081979 1_655
Cl0 La8 3.081983 1_655
Cl0 La7 3.081987 1_645
Cl0 La9 3.081987 1_655
Cl1 La4 3.081972 1_554
Cl1 La5 3.081976 1_545
Cl1 La6 3.081978 1_655
Cl1 La8 3.081984 1_654
Cl1 La7 3.081986 1_644
Cl1 La9 3.081988 1_655
