# generated using pymatgen
data_SrLi2GeSe4
_symmetry_space_group_name_H-M   'P 1'
_cell_length_a   6.35562982
_cell_length_b   6.35563017
_cell_length_c   6.35562960
_cell_angle_alpha   114.24535873
_cell_angle_beta   114.24536591
_cell_angle_gamma   100.29462554
_symmetry_Int_Tables_number   1
_chemical_formula_structural   SrLi2GeSe4
_chemical_formula_sum   'Sr1 Li2 Ge1 Se4'
_cell_volume   193.91705695
_cell_formula_units_Z   1
loop_
 _symmetry_equiv_pos_site_id
 _symmetry_equiv_pos_as_xyz
  1  'x, y, z'
loop_
 _atom_site_type_symbol
 _atom_site_label
 _atom_site_symmetry_multiplicity
 _atom_site_fract_x
 _atom_site_fract_y
 _atom_site_fract_z
 _atom_site_occupancy
  Sr  Sr0  1  0.00000000  0.00000000  0.00000000  1
  Li  Li0  1  0.75000000  0.25000000  0.50000000  1
  Li  Li1  1  0.25000000  0.75000000  0.50000000  1
  Ge  Ge0  1  0.50000000  0.50000000  0.00000000  1
  Se  Se0  1  0.46792721  0.86393047  0.00000000  1
  Se  Se1  1  0.13606953  0.13606953  0.60399774  1
  Se  Se2  1  0.53207279  0.53207279  0.39600226  1
  Se  Se3  1  0.86393047  0.46792721  1.00000000  1
loop_
_geom_bond_atom_site_label_1
_geom_bond_atom_site_label_2
_geom_bond_distance
_geom_bond_site_symmetry_2
Li0 Se1 2.584191 1_655
Li0 Se3 2.584191 1_555
Li0 Se0 2.584191 1_545
Li0 Se2 2.584193 1_555
Li1 Se0 2.584191 1_556
Li1 Se3 2.584191 1_454
Li1 Se1 2.584191 1_565
Li1 Se2 2.584193 1_555
Ge0 Se2 2.357975 1_555
Ge0 Se1 2.357979 1_554
Ge0 Se3 2.357981 1_554
Ge0 Se0 2.357981 1_555
Se0 Sr0 3.242168 1_565
Se0 Sr0 3.337399 1_665
Se1 Sr0 3.242174 1_555
Se1 Sr0 3.337393 1_556
Se2 Sr0 3.242171 1_666
Se2 Sr0 3.337400 1_555
Se3 Sr0 3.242168 1_656
Se3 Sr0 3.337399 1_666
