# generated using pymatgen
data_K2PtPb4Au
_symmetry_space_group_name_H-M   'P 1'
_cell_length_a   6.67505317
_cell_length_b   6.67505391
_cell_length_c   8.19257556
_cell_angle_alpha   90.00000000
_cell_angle_beta   90.00000000
_cell_angle_gamma   140.08952056
_symmetry_Int_Tables_number   1
_chemical_formula_structural   K2PtPb4Au
_chemical_formula_sum   'K2 Pt1 Pb4 Au1'
_cell_volume   234.20033153
_cell_formula_units_Z   1
loop_
 _symmetry_equiv_pos_site_id
 _symmetry_equiv_pos_as_xyz
  1  'x, y, z'
loop_
 _atom_site_type_symbol
 _atom_site_label
 _atom_site_symmetry_multiplicity
 _atom_site_fract_x
 _atom_site_fract_y
 _atom_site_fract_z
 _atom_site_occupancy
  K  K0  1  0.55367553  0.44632247  0.25000100  1
  K  K1  1  0.44344754  0.55655046  0.75000000  1
  Pt  Pt0  1  0.28078435  0.71921365  0.25000100  1
  Pb  Pb0  1  0.84656720  0.15343080  0.05666664  1
  Pb  Pb1  1  0.84656720  0.15343080  0.44333336  1
  Pb  Pb2  1  0.15563398  0.84436402  0.54221408  1
  Pb  Pb3  1  0.15563398  0.84436402  0.95778692  1
  Au  Au0  1  0.71768220  0.28231580  0.75000000  1
loop_
_geom_bond_atom_site_label_1
_geom_bond_atom_site_label_2
_geom_bond_distance
_geom_bond_site_symmetry_2
K0 Pt0 3.424391 1_555
K0 Pb2 3.543702 1_655
K0 Pb2 3.543702 1_545
K0 Pb3 3.543707 1_654
K0 Pb3 3.543708 1_544
K0 Pt0 3.648508 1_655
K0 Pt0 3.648509 1_545
K0 Pb1 3.801683 1_455
K0 Pb1 3.801684 1_565
K0 Pb0 3.801690 1_455
K0 Pb0 3.801690 1_565
K0 Pb1 4.002130 1_555
K0 Pb0 4.002136 1_555
K1 Pb0 3.602748 1_456
K1 Pb1 3.602748 1_455
K1 Pb0 3.602749 1_566
K1 Pb1 3.602749 1_565
K1 Pb2 3.895793 1_655
K1 Pb2 3.895793 1_545
K1 Pb3 3.895796 1_655
K1 Pb3 3.895797 1_545
Pb0 Pt0 2.894810 1_545
Pb0 Pt0 2.894810 1_655
Pb0 Pb1 3.167796 1_555
Pb0 Pb3 3.403893 1_544
Pb0 Pb3 3.403894 1_654
Pb1 Pt0 2.894801 1_545
Pb1 Pt0 2.894801 1_655
Pb1 Pb2 3.403895 1_545
Pb1 Pb2 3.403896 1_655
Pb2 Pt0 2.863121 1_555
Pb3 Pt0 2.863128 1_556
Au0 Pb2 2.948529 1_545
Au0 Pb2 2.948529 1_655
Au0 Pb3 2.948534 1_545
Au0 Pb3 2.948534 1_655
Au0 Pb0 2.987947 1_556
Au0 Pb1 2.987947 1_555
Au0 K1 3.441250 1_555
Au0 K1 3.635355 1_655
Au0 K1 3.635355 1_545
