# generated using pymatgen
data_Li2Al3SbO8
_symmetry_space_group_name_H-M   'P 1'
_cell_length_a   5.66018792
_cell_length_b   5.66018664
_cell_length_c   9.38893587
_cell_angle_alpha   90.00000000
_cell_angle_beta   90.00000000
_cell_angle_gamma   120.00000185
_symmetry_Int_Tables_number   1
_chemical_formula_structural   Li2Al3SbO8
_chemical_formula_sum   'Li4 Al6 Sb2 O16'
_cell_volume   260.50052212
_cell_formula_units_Z   2
loop_
 _symmetry_equiv_pos_site_id
 _symmetry_equiv_pos_as_xyz
  1  'x, y, z'
loop_
 _atom_site_type_symbol
 _atom_site_label
 _atom_site_symmetry_multiplicity
 _atom_site_fract_x
 _atom_site_fract_y
 _atom_site_fract_z
 _atom_site_occupancy
  Li  Li0  1  0.33333300  0.66666700  0.90739920  1
  Li  Li1  1  0.00000000  0.00000000  0.98708051  1
  Li  Li2  1  0.00000000  0.00000000  0.48708051  1
  Li  Li3  1  0.66666700  0.33333300  0.40739920  1
  Al  Al0  1  0.16943457  0.83056543  0.21397901  1
  Al  Al1  1  0.16943457  0.33886914  0.21397901  1
  Al  Al2  1  0.66113086  0.83056543  0.21397901  1
  Al  Al3  1  0.33886914  0.16943457  0.71397901  1
  Al  Al4  1  0.83056543  0.66113086  0.71397901  1
  Al  Al5  1  0.83056543  0.16943457  0.71397901  1
  Sb  Sb0  1  0.33333300  0.66666700  0.48603420  1
  Sb  Sb1  1  0.66666700  0.33333300  0.98603420  1
  O  O0  1  0.16349804  0.83650196  0.59992653  1
  O  O1  1  0.03198618  0.51599309  0.33956172  1
  O  O2  1  0.33333300  0.66666700  0.11422023  1
  O  O3  1  0.00000000  0.00000000  0.29895709  1
  O  O4  1  0.00000000  0.00000000  0.79895709  1
  O  O5  1  0.16349804  0.32699708  0.59992653  1
  O  O6  1  0.48400691  0.96801382  0.33956172  1
  O  O7  1  0.48400691  0.51599309  0.33956172  1
  O  O8  1  0.32699708  0.16349804  0.09992653  1
  O  O9  1  0.67300292  0.83650196  0.59992653  1
  O  O10  1  0.51599309  0.48400691  0.83956172  1
  O  O11  1  0.51599309  0.03198618  0.83956172  1
  O  O12  1  0.66666700  0.33333300  0.61422023  1
  O  O13  1  0.83650196  0.67300292  0.09992653  1
  O  O14  1  0.96801382  0.48400691  0.83956172  1
  O  O15  1  0.83650196  0.16349804  0.09992653  1
loop_
_geom_bond_atom_site_label_1
_geom_bond_atom_site_label_2
_geom_bond_distance
_geom_bond_site_symmetry_2
Li0 O11 1.900642 1_565
Li0 O14 1.900642 1_455
Li0 O10 1.900646 1_555
Li0 O2 1.941829 1_556
Li1 O4 1.766279 1_555
Li1 O15 1.921408 1_456
Li1 O13 1.921412 1_446
Li1 O8 1.921412 1_556
Li2 O3 1.766279 1_555
Li2 O0 1.921408 1_545
Li2 O5 1.921412 1_555
Li2 O9 1.921412 1_445
Li3 O6 1.900642 1_545
Li3 O1 1.900642 1_655
Li3 O7 1.900646 1_555
Li3 O12 1.941829 1_555
Al0 O3 1.842768 1_565
Al0 O2 1.859874 1_555
Al0 O1 1.944375 1_555
Al0 O6 1.944375 1_555
Al0 O8 1.952592 1_565
Al0 O13 1.952592 1_455
Al1 O3 1.842768 1_555
Al1 O2 1.859878 1_555
Al1 O1 1.944375 1_555
Al1 O7 1.944375 1_555
Al1 O15 1.952592 1_455
Al1 O8 1.952596 1_555
Al2 O3 1.842768 1_665
Al2 O2 1.859879 1_555
Al2 O7 1.944375 1_555
Al2 O6 1.944375 1_555
Al2 O15 1.952592 1_565
Al2 O13 1.952596 1_555
Al3 O4 1.842768 1_555
Al3 O12 1.859879 1_555
Al3 O10 1.944375 1_555
Al3 O11 1.944375 1_555
Al3 O0 1.952592 1_545
Al3 O5 1.952596 1_555
Al4 O4 1.842768 1_665
Al4 O12 1.859878 1_555
Al4 O14 1.944375 1_555
Al4 O10 1.944375 1_555
Al4 O0 1.952592 1_655
Al4 O9 1.952596 1_555
Al5 O4 1.842768 1_655
Al5 O12 1.859874 1_555
Al5 O14 1.944375 1_555
Al5 O11 1.944375 1_555
Al5 O9 1.952592 1_545
Al5 O5 1.952592 1_655
O0 Sb0 1.978823 1_555
O1 Sb0 2.018227 1_555
O5 Sb0 1.978823 1_555
O6 Sb0 2.018226 1_555
O7 Sb0 2.018230 1_555
O8 Sb1 1.978823 1_554
O9 Sb0 1.978823 1_555
O10 Sb1 2.018230 1_555
O11 Sb1 2.018226 1_555
O13 Sb1 1.978823 1_554
O14 Sb1 2.018227 1_555
O15 Sb1 1.978823 1_554
