# generated using pymatgen
data_HfSc3Si6Rh7
_symmetry_space_group_name_H-M   'P 1'
_cell_length_a   6.93459770
_cell_length_b   6.91446652
_cell_length_c   6.93459820
_cell_angle_alpha   109.41241905
_cell_angle_beta   109.52995740
_cell_angle_gamma   109.41242166
_symmetry_Int_Tables_number   1
_chemical_formula_structural   HfSc3Si6Rh7
_chemical_formula_sum   'Hf1 Sc3 Si6 Rh7'
_cell_volume   256.14978764
_cell_formula_units_Z   1
loop_
 _symmetry_equiv_pos_site_id
 _symmetry_equiv_pos_as_xyz
  1  'x, y, z'
loop_
 _atom_site_type_symbol
 _atom_site_label
 _atom_site_symmetry_multiplicity
 _atom_site_fract_x
 _atom_site_fract_y
 _atom_site_fract_z
 _atom_site_occupancy
  Hf  Hf0  1  0.00000000  0.50000000  0.00000000  1
  Sc  Sc0  1  0.00000000  0.00000000  0.50000000  1
  Sc  Sc1  1  0.50000000  0.00000000  0.00000000  1
  Sc  Sc2  1  0.50000000  0.50000000  0.50000000  1
  Si  Si0  1  0.67838315  0.68024597  0.00000000  1
  Si  Si1  1  0.32161685  0.00186182  0.32161685  1
  Si  Si2  1  1.00000000  0.31975403  0.32161685  1
  Si  Si3  1  0.32161685  0.31975403  1.00000000  1
  Si  Si4  1  0.67838315  0.99813818  0.67838315  1
  Si  Si5  1  0.00000000  0.68024597  0.67838315  1
  Rh  Rh0  1  0.75081026  0.25081026  0.50162052  1
  Rh  Rh1  1  0.75081026  0.50000000  0.24918974  1
  Rh  Rh2  1  0.50162052  0.25081026  0.75081026  1
  Rh  Rh3  1  0.24918974  0.50000000  0.75081026  1
  Rh  Rh4  1  0.24918974  0.74918974  0.49837948  1
  Rh  Rh5  1  0.49837948  0.74918974  0.24918974  1
  Rh  Rh6  1  0.00000000  0.00000000  0.00000000  1
loop_
_geom_bond_atom_site_label_1
_geom_bond_atom_site_label_2
_geom_bond_distance
_geom_bond_site_symmetry_2
Hf0 Rh5 2.822884 1_555
Hf0 Rh2 2.822884 1_454
Hf0 Rh3 2.822885 1_554
Hf0 Rh1 2.822885 1_455
Hf0 Rh4 2.822885 1_555
Hf0 Rh0 2.822885 1_454
Hf0 Si1 2.893978 1_565
Hf0 Si4 2.893978 1_444
Hf0 Si3 2.893983 1_554
Hf0 Si0 2.893983 1_455
Hf0 Si2 2.893983 1_455
Hf0 Si5 2.893983 1_554
Sc0 Si2 2.869916 1_455
Sc0 Si5 2.869916 1_545
Sc0 Si3 2.888015 1_555
Sc0 Si0 2.888015 1_445
Sc0 Si1 2.888015 1_555
Sc0 Si4 2.888015 1_445
Sc1 Si3 2.869916 1_554
Sc1 Si0 2.869916 1_545
Sc1 Si2 2.888015 1_555
Sc1 Si5 2.888015 1_544
Sc1 Si1 2.888016 1_555
Sc1 Si4 2.888016 1_544
Sc2 Si4 2.869923 1_555
Sc2 Si1 2.869923 1_555
Sc2 Si5 2.888015 1_655
Sc2 Si2 2.888015 1_455
Sc2 Si0 2.888015 1_556
Sc2 Si3 2.888015 1_554
Rh0 Si4 2.461505 1_545
Rh0 Si5 2.461511 1_655
Rh0 Si2 2.462037 1_555
Rh0 Si1 2.462038 1_555
Rh0 Sc2 2.825919 1_555
Rh0 Sc0 2.825919 1_655
Rh0 Sc1 2.841242 1_555
Rh1 Si2 2.461511 1_555
Rh1 Si0 2.461511 1_555
Rh1 Si3 2.462037 1_554
Rh1 Si5 2.462037 1_655
Rh1 Sc1 2.825919 1_555
Rh1 Sc0 2.825919 1_665
Rh1 Sc2 2.841242 1_555
Rh2 Si4 2.461505 1_545
Rh2 Si0 2.461511 1_556
Rh2 Si3 2.462037 1_555
Rh2 Si1 2.462038 1_555
Rh2 Sc2 2.825919 1_555
Rh2 Sc1 2.825919 1_556
Rh2 Sc0 2.841242 1_555
Rh3 Si5 2.461511 1_555
Rh3 Si3 2.461511 1_555
Rh3 Si0 2.462037 1_556
Rh3 Si2 2.462037 1_455
Rh3 Sc1 2.825919 1_566
Rh3 Sc0 2.825919 1_555
Rh3 Sc2 2.841242 1_555
Rh4 Si1 2.461505 1_565
Rh4 Si2 2.461511 1_455
Rh4 Si5 2.462037 1_555
Rh4 Si4 2.462038 1_555
Rh4 Sc2 2.825919 1_555
Rh4 Sc0 2.825919 1_565
Rh4 Sc1 2.841242 1_566
Rh5 Si1 2.461505 1_565
Rh5 Si3 2.461511 1_554
Rh5 Si0 2.462037 1_555
Rh5 Si4 2.462038 1_555
Rh5 Sc2 2.825919 1_555
Rh5 Sc1 2.825919 1_565
Rh5 Sc0 2.841242 1_665
Rh6 Si3 2.566044 1_554
Rh6 Si0 2.566044 1_445
Rh6 Si2 2.566044 1_455
Rh6 Si5 2.566044 1_544
Rh6 Si1 2.566048 1_555
Rh6 Si4 2.566048 1_444
