# generated using pymatgen
data_Cs4As2PdS8
_symmetry_space_group_name_H-M   'P 1'
_cell_length_a   13.33132642
_cell_length_b   7.44833708
_cell_length_c   9.86394318
_cell_angle_alpha   86.70327737
_cell_angle_beta   90.00000000
_cell_angle_gamma   90.00000000
_symmetry_Int_Tables_number   1
_chemical_formula_structural   Cs4As2PdS8
_chemical_formula_sum   'Cs8 As4 Pd2 S16'
_cell_volume   977.83131450
_cell_formula_units_Z   2
loop_
 _symmetry_equiv_pos_site_id
 _symmetry_equiv_pos_as_xyz
  1  'x, y, z'
loop_
 _atom_site_type_symbol
 _atom_site_label
 _atom_site_symmetry_multiplicity
 _atom_site_fract_x
 _atom_site_fract_y
 _atom_site_fract_z
 _atom_site_occupancy
  Cs  Cs0  1  0.13235251  0.82374610  0.67801847  1
  Cs  Cs1  1  0.63235251  0.17625390  0.82198153  1
  Cs  Cs2  1  0.86764749  0.17625390  0.32198153  1
  Cs  Cs3  1  0.36764749  0.82374610  0.17801847  1
  Cs  Cs4  1  0.34369920  0.27743983  0.53393623  1
  Cs  Cs5  1  0.84369920  0.72256017  0.96606377  1
  Cs  Cs6  1  0.65630080  0.72256017  0.46606377  1
  Cs  Cs7  1  0.15630080  0.27743983  0.03393623  1
  As  As0  1  0.41953881  0.76312658  0.75669456  1
  As  As1  1  0.91953881  0.23687342  0.74330544  1
  As  As2  1  0.58046119  0.23687342  0.24330544  1
  As  As3  1  0.08046119  0.76312658  0.25669456  1
  Pd  Pd0  1  0.00000000  0.50000000  0.50000000  1
  Pd  Pd1  1  0.50000000  0.50000000  0.00000000  1
  S  S0  1  0.07373405  0.31384604  0.67384301  1
  S  S1  1  0.57373405  0.68615396  0.82615699  1
  S  S2  1  0.92626595  0.68615396  0.32615699  1
  S  S3  1  0.42626595  0.31384604  0.17384301  1
  S  S4  1  0.39415410  0.76235315  0.54385228  1
  S  S5  1  0.89415410  0.23764685  0.95614772  1
  S  S6  1  0.60584590  0.23764685  0.45614772  1
  S  S7  1  0.10584590  0.76235315  0.04385228  1
  S  S8  1  0.14607951  0.52405541  0.36720079  1
  S  S9  1  0.64607951  0.47594459  0.13279921  1
  S  S10  1  0.85392049  0.47594459  0.63279921  1
  S  S11  1  0.35392049  0.52405541  0.86720079  1
  S  S12  1  0.37264698  0.00955659  0.83627399  1
  S  S13  1  0.87264698  0.99044341  0.66372601  1
  S  S14  1  0.62735302  0.99044341  0.16372601  1
  S  S15  1  0.12735302  0.00955659  0.33627399  1
loop_
_geom_bond_atom_site_label_1
_geom_bond_atom_site_label_2
_geom_bond_distance
_geom_bond_site_symmetry_2
Cs0 Pd0 3.535300 1_555
Cs0 S15 3.570232 1_565
Cs0 S7 3.628487 1_556
Cs0 S13 3.678086 1_455
Cs0 S0 3.731049 1_565
Cs0 S4 3.769794 1_555
Cs0 S12 3.855220 1_565
Cs0 S0 3.880009 1_555
Cs0 S8 3.899100 1_555
Cs0 S11 4.087883 1_555
Cs1 Pd1 3.535300 1_556
Cs1 S14 3.570232 1_546
Cs1 S6 3.628487 1_555
Cs1 S12 3.678086 1_555
Cs1 S1 3.731049 1_545
Cs1 S5 3.769794 1_555
Cs1 S13 3.855220 1_545
Cs1 S1 3.880009 1_555
Cs1 S9 3.899100 1_556
Cs1 S10 4.087883 1_555
Cs2 Pd0 3.535300 1_655
Cs2 S13 3.570232 1_545
Cs2 S5 3.628487 1_554
Cs2 S15 3.678086 1_655
Cs2 S2 3.731049 1_545
Cs2 S6 3.769794 1_555
Cs2 S14 3.855220 1_545
Cs2 S2 3.880009 1_555
Cs2 S10 3.899100 1_555
Cs2 S9 4.087883 1_555
Cs3 Pd1 3.535300 1_555
Cs3 S12 3.570232 1_564
Cs3 S4 3.628487 1_555
Cs3 S14 3.678086 1_555
Cs3 S3 3.731049 1_565
Cs3 S7 3.769794 1_555
Cs3 S15 3.855220 1_565
Cs3 S3 3.880009 1_555
Cs3 S11 3.899100 1_554
Cs3 S8 4.087883 1_555
Cs4 S12 3.512759 1_555
Cs4 S8 3.559824 1_555
Cs4 S6 3.593901 1_555
Cs4 S4 3.680722 1_555
Cs4 S3 3.713572 1_555
Cs4 S11 3.859214 1_555
Cs4 S0 3.869602 1_555
Cs4 S4 3.890742 1_545
Cs4 S15 4.067990 1_555
Cs5 S13 3.512759 1_555
Cs5 S9 3.559824 1_556
Cs5 S7 3.593901 1_656
Cs5 S5 3.680722 1_555
Cs5 S2 3.713572 1_556
Cs5 S10 3.859214 1_555
Cs5 S1 3.869602 1_555
Cs5 S5 3.890742 1_565
Cs5 S14 4.067990 1_556
Cs6 S14 3.512759 1_555
Cs6 S10 3.559824 1_555
Cs6 S4 3.593901 1_555
Cs6 S6 3.680722 1_555
Cs6 S1 3.713572 1_555
Cs6 S9 3.859214 1_555
Cs6 S2 3.869602 1_555
Cs6 S6 3.890742 1_565
Cs6 S13 4.067990 1_555
Cs7 S15 3.512759 1_555
Cs7 S11 3.559824 1_554
Cs7 S5 3.593901 1_454
Cs7 S7 3.680722 1_555
Cs7 S0 3.713572 1_554
Cs7 S8 3.859214 1_555
Cs7 S3 3.869602 1_555
Cs7 S7 3.890742 1_545
Cs7 S12 4.067990 1_554
As0 S4 2.126898 1_555
As0 S12 2.131129 1_565
As0 S11 2.213817 1_555
As0 S1 2.231273 1_555
As0 Cs0 3.927316 1_555
As1 S5 2.126898 1_555
As1 S13 2.131129 1_545
As1 S10 2.213817 1_555
As1 S0 2.231273 1_655
As1 Cs1 3.927316 1_555
As2 S6 2.126898 1_555
As2 S14 2.131129 1_545
As2 S9 2.213817 1_555
As2 S3 2.231273 1_555
As2 Cs2 3.927316 1_555
As3 S7 2.126898 1_555
As3 S15 2.131129 1_565
As3 S8 2.213817 1_555
As3 S2 2.231273 1_455
As3 Cs3 3.927316 1_555
Pd0 S8 2.348086 1_555
Pd0 S10 2.348086 1_455
Pd0 S0 2.357059 1_555
Pd0 S2 2.357059 1_455
Pd1 S9 2.348086 1_555
Pd1 S11 2.348086 1_554
Pd1 S1 2.357059 1_554
Pd1 S3 2.357059 1_555
