# generated using pymatgen
data_Zr2V2ReOs
_symmetry_space_group_name_H-M   'P 1'
_cell_length_a   5.19663942
_cell_length_b   5.21629262
_cell_length_c   5.19663897
_cell_angle_alpha   119.08452401
_cell_angle_beta   119.77914271
_cell_angle_gamma   90.87930964
_symmetry_Int_Tables_number   1
_chemical_formula_structural   Zr2V2ReOs
_chemical_formula_sum   'Zr2 V2 Re1 Os1'
_cell_volume   100.53874587
_cell_formula_units_Z   1
loop_
 _symmetry_equiv_pos_site_id
 _symmetry_equiv_pos_as_xyz
  1  'x, y, z'
loop_
 _atom_site_type_symbol
 _atom_site_label
 _atom_site_symmetry_multiplicity
 _atom_site_fract_x
 _atom_site_fract_y
 _atom_site_fract_z
 _atom_site_occupancy
  Zr  Zr0  1  0.37306088  0.12237579  0.24931290  1
  Zr  Zr1  1  0.62693912  0.87762421  0.75068710  1
  V  V0  1  0.50000000  0.50000000  0.00000000  1
  V  V1  1  0.00000000  0.50000000  0.50000000  1
  Re  Re0  1  0.00000000  0.50000000  0.00000000  1
  Os  Os0  1  0.00000000  0.00000000  0.50000000  1
loop_
_geom_bond_atom_site_label_1
_geom_bond_atom_site_label_2
_geom_bond_distance
_geom_bond_site_symmetry_2
Zr0 Zr1 3.167020 1_444
Zr0 Zr1 3.167037 1_545
Zr0 Zr1 3.211852 1_544
Zr0 Zr1 3.239810 1_555
V0 V1 2.606989 1_554
V0 V1 2.606989 1_655
V0 Zr1 3.046958 1_554
V0 Zr0 3.046958 1_555
V0 Zr1 3.076810 1_555
V0 Zr0 3.076810 1_554
V0 Zr0 3.078782 1_565
V0 Zr1 3.078782 1_544
V1 Zr1 3.046963 1_555
V1 Zr0 3.046963 1_455
V1 Zr1 3.076806 1_455
V1 Zr0 3.076806 1_555
V1 Zr0 3.078777 1_566
V1 Zr1 3.078777 1_444
Re0 V1 2.598319 1_554
Re0 V1 2.598319 1_555
Re0 V0 2.598320 1_455
Re0 V0 2.598320 1_555
Re0 Zr0 3.033052 1_565
Re0 Zr1 3.033052 1_444
Re0 Zr1 3.069276 1_454
Re0 Zr0 3.069276 1_555
Re0 Zr1 3.069285 1_555
Re0 Zr0 3.069285 1_454
Os0 V0 2.608146 1_556
Os0 V0 2.608146 1_445
Os0 V1 2.608146 1_545
Os0 V1 2.608146 1_555
Os0 Re0 2.639185 1_545
Os0 Re0 2.639185 1_556
Os0 Zr0 3.023603 1_555
Os0 Zr1 3.023603 1_445
Os0 Zr0 3.061921 1_556
Os0 Zr1 3.061921 1_444
Os0 Zr1 3.061930 1_545
Os0 Zr0 3.061930 1_455
