# generated using pymatgen
data_Cs2V2ZnO7
_symmetry_space_group_name_H-M   'P 1'
_cell_length_a   6.34683863
_cell_length_b   8.54514201
_cell_length_c   8.54514824
_cell_angle_alpha   89.99899991
_cell_angle_beta   90.00097092
_cell_angle_gamma   90.00105215
_symmetry_Int_Tables_number   1
_chemical_formula_structural   Cs2V2ZnO7
_chemical_formula_sum   'Cs4 V4 Zn2 O14'
_cell_volume   463.44301582
_cell_formula_units_Z   2
loop_
 _symmetry_equiv_pos_site_id
 _symmetry_equiv_pos_as_xyz
  1  'x, y, z'
loop_
 _atom_site_type_symbol
 _atom_site_label
 _atom_site_symmetry_multiplicity
 _atom_site_fract_x
 _atom_site_fract_y
 _atom_site_fract_z
 _atom_site_occupancy
  Cs  Cs0  1  0.50810833  0.16177498  0.66177443  1
  Cs  Cs1  1  0.49190068  0.33822097  0.16178875  1
  Cs  Cs2  1  0.50814426  0.83821673  0.33821569  1
  Cs  Cs3  1  0.49190056  0.66178882  0.83822086  1
  V  V0  1  0.95855340  0.64184572  0.14184650  1
  V  V1  1  0.04146858  0.14184439  0.35814955  1
  V  V2  1  0.95848818  0.35815363  0.85815423  1
  V  V3  1  0.04146798  0.85814894  0.64184429  1
  Zn  Zn0  1  0.00000303  0.49998533  0.50001824  1
  Zn  Zn1  1  0.00000895  0.00001930  0.99998705  1
  O  O0  1  0.13042934  0.99998564  0.49998306  1
  O  O1  1  0.86955632  0.50000764  0.00001076  1
  O  O2  1  0.78057178  0.14621488  0.35378646  1
  O  O3  1  0.21938324  0.35377721  0.85377684  1
  O  O4  1  0.78056780  0.85378602  0.64621499  1
  O  O5  1  0.21945106  0.64620754  0.14620621  1
  O  O6  1  0.14860455  0.31889726  0.41275545  1
  O  O7  1  0.85135261  0.18109204  0.91274838  1
  O  O8  1  0.14859538  0.68108477  0.58727786  1
  O  O9  1  0.85144506  0.81891281  0.08725301  1
  O  O10  1  0.85144440  0.58725595  0.31891365  1
  O  O11  1  0.14860712  0.91275574  0.81889662  1
  O  O12  1  0.85135193  0.41274847  0.68109437  1
  O  O13  1  0.14859445  0.08727721  0.18108375  1
loop_
_geom_bond_atom_site_label_1
_geom_bond_atom_site_label_2
_geom_bond_distance
_geom_bond_site_symmetry_2
Cs0 O3 2.956695 1_555
Cs0 O12 3.061425 1_555
Cs0 O7 3.061433 1_555
Cs0 O0 3.093299 1_545
Cs0 O4 3.151922 1_545
Cs0 O2 3.151929 1_555
Cs0 O11 3.396558 1_545
Cs0 O6 3.396571 1_555
Cs1 O2 2.956412 1_555
Cs1 O13 3.061519 1_555
Cs1 O6 3.061674 1_555
Cs1 O1 3.093138 1_555
Cs1 O5 3.151873 1_555
Cs1 O3 3.152233 1_554
Cs1 O7 3.396565 1_554
Cs1 O10 3.396831 1_555
Cs2 O5 2.956564 1_555
Cs2 O10 3.061656 1_555
Cs2 O9 3.061671 1_555
Cs2 O0 3.093382 1_555
Cs2 O4 3.151822 1_555
Cs2 O2 3.151825 1_565
Cs2 O13 3.397040 1_565
Cs2 O8 3.397043 1_555
Cs3 O4 2.956391 1_555
Cs3 O8 3.061513 1_555
Cs3 O11 3.061665 1_555
Cs3 O1 3.093166 1_556
Cs3 O5 3.151863 1_556
Cs3 O3 3.152227 1_555
Cs3 O12 3.396555 1_555
Cs3 O9 3.396817 1_556
O0 V1 1.804743 1_565
O0 V3 1.804776 1_555
O1 V0 1.804724 1_555
O1 V2 1.804832 1_554
O2 V1 1.656711 1_655
O3 V2 1.656705 1_455
O4 V3 1.656732 1_655
O5 V0 1.656712 1_455
O6 V1 1.723097 1_555
O6 Zn0 1.959642 1_555
O7 V2 1.723127 1_555
O7 Zn1 1.959595 1_655
O8 V3 1.723098 1_555
O8 Zn0 1.959641 1_555
O9 V0 1.723114 1_555
O9 Zn1 1.959614 1_664
O10 V0 1.723107 1_555
O10 Zn0 1.959602 1_655
O11 V3 1.723105 1_555
O11 Zn1 1.959650 1_565
O12 V2 1.723119 1_555
O12 Zn0 1.959595 1_655
O13 V1 1.723108 1_555
O13 Zn1 1.959597 1_554
