# generated using pymatgen
data_HgBi2F12
_symmetry_space_group_name_H-M   'P 1'
_cell_length_a   5.15711100
_cell_length_b   5.76473199
_cell_length_c   8.90561847
_cell_angle_alpha   104.20917586
_cell_angle_beta   91.34383536
_cell_angle_gamma   115.63258383
_symmetry_Int_Tables_number   1
_chemical_formula_structural   HgBi2F12
_chemical_formula_sum   'Hg1 Bi2 F12'
_cell_volume   228.84006658
_cell_formula_units_Z   1
loop_
 _symmetry_equiv_pos_site_id
 _symmetry_equiv_pos_as_xyz
  1  'x, y, z'
loop_
 _atom_site_type_symbol
 _atom_site_label
 _atom_site_symmetry_multiplicity
 _atom_site_fract_x
 _atom_site_fract_y
 _atom_site_fract_z
 _atom_site_occupancy
  Hg  Hg0  1  0.50000000  0.50000000  0.50000000  1
  Bi  Bi0  1  0.27303509  0.02626715  0.78188273  1
  Bi  Bi1  1  0.72696491  0.97373285  0.21811727  1
  F  F0  1  0.79821832  0.76435848  0.36053869  1
  F  F1  1  0.20178168  0.23564152  0.63946131  1
  F  F2  1  0.30479751  0.74154770  0.21443829  1
  F  F3  1  0.31778896  0.76836395  0.88206241  1
  F  F4  1  0.68221104  0.23163605  0.11793759  1
  F  F5  1  0.83048468  0.78655077  0.72073806  1
  F  F6  1  0.16951532  0.21344923  0.27926194  1
  F  F7  1  0.28204266  0.77791300  0.57007641  1
  F  F8  1  0.71795734  0.22208700  0.42992359  1
  F  F9  1  0.20094801  0.25237825  0.96718303  1
  F  F10  1  0.79905199  0.74762175  0.03281697  1
  F  F11  1  0.69520249  0.25845230  0.78556171  1
loop_
_geom_bond_atom_site_label_1
_geom_bond_atom_site_label_2
_geom_bond_distance
_geom_bond_site_symmetry_2
Bi0 F9 1.988088 1_555
Bi0 F11 1.996625 1_555
Bi0 F3 1.999506 1_545
Bi0 F5 2.063621 1_445
Bi0 F1 2.077013 1_555
Bi0 F7 2.084655 1_545
Bi1 F10 1.988088 1_555
Bi1 F2 1.996625 1_555
Bi1 F4 1.999506 1_565
Bi1 F6 2.063621 1_665
Bi1 F0 2.077013 1_555
Bi1 F8 2.084655 1_565
F0 Hg0 2.285000 1_555
F1 Hg0 2.285000 1_555
F5 Hg0 2.304504 1_555
F6 Hg0 2.304504 1_555
F7 Hg0 2.306454 1_555
F8 Hg0 2.306454 1_555
