# generated using pymatgen
data_Sr4Al5SiAu12
_symmetry_space_group_name_H-M   'P 1'
_cell_length_a   8.72280046
_cell_length_b   8.69287177
_cell_length_c   8.69287203
_cell_angle_alpha   58.37446835
_cell_angle_beta   58.48893612
_cell_angle_gamma   58.48894180
_symmetry_Int_Tables_number   1
_chemical_formula_structural   Sr4Al5SiAu12
_chemical_formula_sum   'Sr4 Al5 Si1 Au12'
_cell_volume   449.56374102
_cell_formula_units_Z   1
loop_
 _symmetry_equiv_pos_site_id
 _symmetry_equiv_pos_as_xyz
  1  'x, y, z'
loop_
 _atom_site_type_symbol
 _atom_site_label
 _atom_site_symmetry_multiplicity
 _atom_site_fract_x
 _atom_site_fract_y
 _atom_site_fract_z
 _atom_site_occupancy
  Sr  Sr0  1  0.41069092  0.40949625  0.40973692  1
  Sr  Sr1  1  0.91108222  0.91066739  0.91174048  1
  Sr  Sr2  1  0.58891778  0.58825952  0.58933261  1
  Sr  Sr3  1  0.08930908  0.09026308  0.09050375  1
  Al  Al0  1  0.05816553  0.25129421  0.43831396  1
  Al  Al1  1  0.44183447  0.06168604  0.24870579  1
  Al  Al2  1  0.25000000  0.43769981  0.06230019  1
  Al  Al3  1  0.93672648  0.74678427  0.56691872  1
  Al  Al4  1  0.56327352  0.93308128  0.75321573  1
  Si  Si0  1  0.75000000  0.56956147  0.93043853  1
  Au  Au0  1  0.97489224  0.36612265  0.70264495  1
  Au  Au1  1  0.70182580  0.97289079  0.36964805  1
  Au  Au2  1  0.35739506  0.70662260  0.97495856  1
  Au  Au3  1  0.20113491  0.86886513  0.47389059  1
  Au  Au4  1  0.47647949  0.19828586  0.86989255  1
  Au  Au5  1  0.86847788  0.47299172  0.19353639  1
  Au  Au6  1  0.02352051  0.63010745  0.30171414  1
  Au  Au7  1  0.29886509  0.02610941  0.63113487  1
  Au  Au8  1  0.63152212  0.30646361  0.02700828  1
  Au  Au9  1  0.79817420  0.13035195  0.52710921  1
  Au  Au10  1  0.52510776  0.79735505  0.13387735  1
  Au  Au11  1  0.14260494  0.52504144  0.79337740  1
loop_
_geom_bond_atom_site_label_1
_geom_bond_atom_site_label_2
_geom_bond_distance
_geom_bond_site_symmetry_2
Al0 Au9 2.579862 1_455
Al0 Au0 2.589716 1_455
Al0 Au7 2.644072 1_555
Al0 Au5 2.650636 1_455
Al0 Au6 2.753021 1_555
Al0 Au3 2.773761 1_545
Al1 Au1 2.579862 1_545
Al1 Au10 2.589716 1_545
Al1 Au3 2.644072 1_545
Al1 Au8 2.650636 1_555
Al1 Au4 2.753021 1_554
Al1 Au7 2.773761 1_555
Al2 Au2 2.569674 1_554
Al2 Au11 2.569674 1_554
Al2 Au6 2.632560 1_555
Al2 Au4 2.632560 1_554
Al2 Au5 2.793190 1_455
Al2 Au8 2.793190 1_555
Al3 Au6 2.596486 1_655
Al3 Au3 2.609299 1_655
Al3 Au11 2.629324 1_655
Al3 Au1 2.632607 1_555
Al3 Si0 2.673816 1_555
Al3 Au0 2.759936 1_555
Al3 Au9 2.777174 1_565
Al4 Au4 2.596486 1_565
Al4 Au7 2.609299 1_565
Al4 Au2 2.629324 1_555
Al4 Au9 2.632607 1_565
Al4 Si0 2.673816 1_555
Al4 Au10 2.759936 1_556
Al4 Au1 2.777174 1_555
Au0 Si0 2.623424 1_555
Au0 Au8 2.907300 1_556
Au0 Au7 2.909959 1_655
Au0 Au6 2.945742 1_655
Au0 Au11 3.021933 1_655
Au0 Sr3 3.263563 1_656
Au0 Sr2 3.272637 1_555
Au0 Sr0 3.383706 1_655
Au0 Sr1 3.603875 1_545
Au1 Au6 2.911117 1_655
Au1 Au8 2.940879 1_565
Au1 Au7 2.964265 1_565
Au1 Au9 2.970421 1_565
Au1 Sr2 3.252092 1_555
Au1 Sr3 3.284543 1_665
Au1 Sr0 3.370764 1_565
Au1 Sr1 3.619374 1_554
Au2 Si0 2.851360 1_555
Au2 Au7 2.883493 1_565
Au2 Au6 2.896282 1_556
Au2 Au8 2.967853 1_556
Au2 Sr3 3.241082 1_566
Au2 Sr2 3.277617 1_555
Au2 Sr0 3.393475 1_556
Au2 Sr1 3.549675 1_455
Au3 Au9 2.964266 1_465
Au3 Au7 2.976442 1_565
Au3 Sr3 3.236005 1_565
Au3 Sr2 3.279480 1_555
Au3 Sr1 3.382798 1_455
Au3 Sr0 3.638397 1_555
Au4 Au9 2.911116 1_555
Au4 Au8 3.030818 1_556
Au4 Sr3 3.259041 1_556
Au4 Sr2 3.272083 1_555
Au4 Sr1 3.366699 1_545
Au4 Sr0 3.646494 1_555
Au5 Si0 2.560044 1_554
Au5 Au9 2.940879 1_555
Au5 Au6 3.030818 1_655
Au5 Sr3 3.194384 1_655
Au5 Sr2 3.328551 1_555
Au5 Sr1 3.371414 1_554
Au5 Sr0 3.626766 1_555
Au6 Sr0 3.259041 1_555
Au6 Sr1 3.272083 1_454
Au6 Sr2 3.366699 1_455
Au6 Sr3 3.646494 1_565
Au7 Sr0 3.236005 1_555
Au7 Sr1 3.279480 1_445
Au7 Sr2 3.382798 1_545
Au7 Sr3 3.638397 1_556
Au8 Si0 2.560044 1_554
Au8 Sr0 3.194384 1_555
Au8 Sr1 3.328551 1_544
Au8 Sr2 3.371414 1_554
Au8 Sr3 3.626767 1_655
Au9 Sr1 3.252092 1_545
Au9 Sr0 3.284543 1_555
Au9 Sr3 3.370764 1_655
Au9 Sr2 3.619374 1_555
Au10 Si0 2.623424 1_554
Au10 Au5 2.907300 1_555
Au10 Au3 2.909959 1_555
Au10 Au4 2.945742 1_564
Au10 Au2 3.021933 1_554
Au10 Sr0 3.263563 1_555
Au10 Sr1 3.272637 1_554
Au10 Sr3 3.383706 1_565
Au10 Sr2 3.603875 1_555
Au11 Si0 2.851360 1_455
Au11 Au3 2.883492 1_555
Au11 Au4 2.896282 1_555
Au11 Au5 2.967853 1_456
Au11 Sr0 3.241082 1_555
Au11 Sr1 3.277617 1_455
Au11 Sr3 3.393475 1_556
Au11 Sr2 3.549675 1_555
