# generated using pymatgen
data_V3B2PW2
_symmetry_space_group_name_H-M   'P 1'
_cell_length_a   6.77751078
_cell_length_b   6.80150312
_cell_length_c   6.78779168
_cell_angle_alpha   129.29207613
_cell_angle_beta   129.18356635
_cell_angle_gamma   74.95123813
_symmetry_Int_Tables_number   1
_chemical_formula_structural   V3B2PW2
_chemical_formula_sum   'V6 B4 P2 W4'
_cell_volume   182.48695632
_cell_formula_units_Z   2
loop_
 _symmetry_equiv_pos_site_id
 _symmetry_equiv_pos_as_xyz
  1  'x, y, z'
loop_
 _atom_site_type_symbol
 _atom_site_label
 _atom_site_symmetry_multiplicity
 _atom_site_fract_x
 _atom_site_fract_y
 _atom_site_fract_z
 _atom_site_occupancy
  V  V0  1  0.18952681  0.03024104  0.49820536  1
  V  V1  1  0.47272208  0.30630199  0.50036951  1
  V  V2  1  0.80645296  0.97256975  0.50021244  1
  V  V3  1  0.30727685  0.80498560  0.83696792  1
  V  V4  1  0.00628531  0.00285319  0.00265675  1
  V  V5  1  0.50039888  0.50330485  0.99727884  1
  B  B0  1  0.61466681  0.11846093  0.73059471  1
  B  B1  1  0.12748303  0.37746992  0.50296263  1
  B  B2  1  0.87995084  0.62784233  0.50311605  1
  B  B3  1  0.38467249  0.88824493  0.26821967  1
  P  P0  1  0.24504597  0.23390255  0.98789184  1
  P  P1  1  0.74530542  0.75016624  0.00449736  1
  W  W0  1  0.52514387  0.69029877  0.49838126  1
  W  W1  1  0.02926470  0.52948971  0.83772488  1
  W  W2  1  0.68997860  0.18991773  0.16093721  1
  W  W3  1  0.97582536  0.47395047  0.16998456  1
loop_
_geom_bond_atom_site_label_1
_geom_bond_atom_site_label_2
_geom_bond_distance
_geom_bond_site_symmetry_2
V0 V4 2.634255 1_555
V0 V5 2.638913 1_555
V0 W0 2.790868 1_545
V1 V4 2.593905 1_555
V1 V5 2.610384 1_555
V1 W0 2.735002 1_555
V2 V5 2.614113 1_554
V2 V4 2.631846 1_666
V3 V5 2.596352 1_555
V3 V4 2.606525 1_566
V3 W2 2.728539 1_566
V3 W3 2.734457 1_455
V3 W0 3.080629 1_555
V4 W3 2.634927 1_455
V4 W1 2.652942 1_544
V4 W2 2.670493 1_455
V4 W0 2.673683 1_444
V5 W1 2.641930 1_555
V5 W3 2.643103 1_556
V5 W0 2.669443 1_556
V5 W2 2.683556 1_556
B0 B3 1.895550 1_545
B0 V1 2.233971 1_555
B0 V2 2.247893 1_545
B0 V0 2.259733 1_555
B0 W0 2.286609 1_545
B0 V5 2.333585 1_555
B0 W3 2.334055 1_556
B0 W2 2.340109 1_556
B0 V4 2.373838 1_656
B1 B2 2.056902 1_455
B1 V3 2.253754 1_555
B1 V5 2.269106 1_555
B1 V0 2.271621 1_555
B1 V1 2.272152 1_555
B1 W3 2.277767 1_455
B1 W1 2.292109 1_555
B1 V4 2.302656 1_555
B1 W2 2.307383 1_455
B2 V3 2.244017 1_655
B2 W3 2.266438 1_555
B2 V2 2.277192 1_555
B2 V4 2.290802 1_666
B2 W1 2.301872 1_655
B2 W0 2.313717 1_555
B2 W2 2.318335 1_555
B2 V5 2.326156 1_554
B3 V1 2.223107 1_565
B3 V2 2.235999 1_555
B3 V0 2.270500 1_565
B3 W0 2.297540 1_555
B3 V3 2.297626 1_554
B3 V4 2.309527 1_565
B3 W1 2.328546 1_554
B3 V5 2.347365 1_554
P0 V2 2.410586 1_445
P0 V3 2.420694 1_545
P0 V0 2.442813 1_555
P0 W2 2.462409 1_556
P0 V1 2.483238 1_556
P0 W3 2.503921 1_456
P0 W0 2.524135 1_556
P0 W1 2.530740 1_555
P0 V4 2.612109 1_556
P0 V5 2.777808 1_555
P1 V2 2.428742 1_555
P1 V3 2.437607 1_554
P1 V1 2.461769 1_554
P1 V0 2.463179 1_665
P1 W2 2.472293 1_565
P1 W3 2.482578 1_555
P1 W0 2.502134 1_554
P1 W1 2.517749 1_654
P1 V5 2.610921 1_554
P1 V4 2.777815 1_665
