# generated using pymatgen
data_Y3Ga4Ni9B2
_symmetry_space_group_name_H-M   'P 1'
_cell_length_a   5.15738835
_cell_length_b   5.15738769
_cell_length_c   10.49788465
_cell_angle_alpha   90.00000000
_cell_angle_beta   90.00000000
_cell_angle_gamma   120.00001673
_symmetry_Int_Tables_number   1
_chemical_formula_structural   Y3Ga4Ni9B2
_chemical_formula_sum   'Y3 Ga4 Ni9 B2'
_cell_volume   241.81986206
_cell_formula_units_Z   1
loop_
 _symmetry_equiv_pos_site_id
 _symmetry_equiv_pos_as_xyz
  1  'x, y, z'
loop_
 _atom_site_type_symbol
 _atom_site_label
 _atom_site_symmetry_multiplicity
 _atom_site_fract_x
 _atom_site_fract_y
 _atom_site_fract_z
 _atom_site_occupancy
  Y  Y0  1  0.00000000  0.00000000  0.66532070  1
  Y  Y1  1  0.00000000  0.00000000  0.33467930  1
  Y  Y2  1  0.00000000  0.00000000  0.00000000  1
  Ga  Ga0  1  0.66666700  0.33333300  0.68444181  1
  Ga  Ga1  1  0.33333300  0.66666700  0.68444181  1
  Ga  Ga2  1  0.33333300  0.66666700  0.31555819  1
  Ga  Ga3  1  0.66666700  0.33333300  0.31555819  1
  Ni  Ni0  1  0.50000000  0.50000000  0.87109533  1
  Ni  Ni1  1  0.50000000  0.00000000  0.87109533  1
  Ni  Ni2  1  0.00000000  0.50000000  0.87109533  1
  Ni  Ni3  1  0.50000000  0.50000000  0.12890467  1
  Ni  Ni4  1  0.50000000  0.00000000  0.12890467  1
  Ni  Ni5  1  0.00000000  0.50000000  0.12890467  1
  Ni  Ni6  1  0.50000000  0.50000000  0.50000000  1
  Ni  Ni7  1  0.50000000  0.00000000  0.50000000  1
  Ni  Ni8  1  0.00000000  0.50000000  0.50000000  1
  B  B0  1  0.66666700  0.33333300  0.00000000  1
  B  B1  1  0.33333300  0.66666700  0.00000000  1
loop_
_geom_bond_atom_site_label_1
_geom_bond_atom_site_label_2
_geom_bond_distance
_geom_bond_site_symmetry_2
Ga0 Ni7 2.442459 1_555
Ga0 Ni8 2.442460 1_655
Ga0 Ni6 2.442462 1_555
Ga0 Ni1 2.460906 1_555
Ga0 Ni2 2.460907 1_655
Ga0 Ni0 2.460909 1_555
Ga0 Y0 2.984375 1_655
Ga0 Y0 2.984378 1_665
Ga0 Y0 2.984379 1_555
Ga1 Ni7 2.442459 1_565
Ga1 Ni8 2.442460 1_555
Ga1 Ni6 2.442462 1_555
Ga1 Ni1 2.460906 1_565
Ga1 Ni2 2.460907 1_555
Ga1 Ni0 2.460909 1_555
Ga1 Y0 2.984375 1_565
Ga1 Y0 2.984378 1_555
Ga1 Y0 2.984379 1_665
Ga2 Ni7 2.442459 1_565
Ga2 Ni8 2.442460 1_555
Ga2 Ni6 2.442462 1_555
Ga2 Ni4 2.460906 1_565
Ga2 Ni5 2.460907 1_555
Ga2 Ni3 2.460909 1_555
Ga2 Y1 2.984375 1_565
Ga2 Y1 2.984378 1_555
Ga2 Y1 2.984379 1_665
Ga3 Ni7 2.442459 1_555
Ga3 Ni8 2.442460 1_655
Ga3 Ni6 2.442462 1_555
Ga3 Ni4 2.460906 1_555
Ga3 Ni5 2.460907 1_655
Ga3 Ni3 2.460909 1_555
Ga3 Y1 2.984375 1_655
Ga3 Y1 2.984378 1_665
Ga3 Y1 2.984379 1_555
Ni0 Y2 2.912195 1_666
Ni0 Y2 2.912195 1_556
Ni1 Y2 2.912196 1_556
Ni1 Y2 2.912196 1_656
Ni2 Y2 2.912196 1_566
Ni2 Y2 2.912196 1_556
Ni3 Y2 2.912195 1_665
Ni3 Y2 2.912195 1_555
Ni4 Y2 2.912196 1_655
Ni4 Y2 2.912196 1_555
Ni5 Y2 2.912196 1_565
Ni5 Y2 2.912196 1_555
Ni6 Ni7 2.578694 1_555
Ni6 Ni7 2.578694 1_565
Ni6 Ni8 2.578694 1_655
Ni6 Ni8 2.578694 1_555
Ni6 Y0 3.108324 1_665
Ni6 Y0 3.108324 1_555
Ni6 Y1 3.108324 1_665
Ni6 Y1 3.108324 1_555
Ni7 Ni8 2.578693 1_545
Ni7 Ni8 2.578693 1_655
Ni7 Y0 3.108325 1_555
Ni7 Y0 3.108325 1_655
Ni7 Y1 3.108325 1_555
Ni7 Y1 3.108325 1_655
Ni8 Y0 3.108325 1_555
Ni8 Y0 3.108325 1_565
Ni8 Y1 3.108325 1_565
Ni8 Y1 3.108325 1_555
B0 Ni4 2.011907 1_555
B0 Ni1 2.011907 1_554
B0 Ni5 2.011907 1_655
B0 Ni2 2.011907 1_654
B0 Ni3 2.011911 1_555
B0 Ni0 2.011911 1_554
B0 Y2 2.977617 1_655
B0 Y2 2.977620 1_665
B0 Y2 2.977621 1_555
B1 Ni4 2.011907 1_565
B1 Ni1 2.011907 1_564
B1 Ni5 2.011907 1_555
B1 Ni2 2.011907 1_554
B1 Ni3 2.011911 1_555
B1 Ni0 2.011911 1_554
B1 Y2 2.977617 1_565
B1 Y2 2.977620 1_555
B1 Y2 2.977621 1_665
