# generated using pymatgen
data_NbCoO4
_symmetry_space_group_name_H-M   'P 1'
_cell_length_a   6.42265634
_cell_length_b   6.42265634
_cell_length_c   6.55160353
_cell_angle_alpha   72.96046261
_cell_angle_beta   72.96046261
_cell_angle_gamma   34.79365714
_symmetry_Int_Tables_number   1
_chemical_formula_structural   NbCoO4
_chemical_formula_sum   'Nb2 Co2 O8'
_cell_volume   146.76377746
_cell_formula_units_Z   2
loop_
 _symmetry_equiv_pos_site_id
 _symmetry_equiv_pos_as_xyz
  1  'x, y, z'
loop_
 _atom_site_type_symbol
 _atom_site_label
 _atom_site_symmetry_multiplicity
 _atom_site_fract_x
 _atom_site_fract_y
 _atom_site_fract_z
 _atom_site_occupancy
  Nb  Nb0  1  0.10478200  0.10478200  0.76197900  1
  Nb  Nb1  1  0.89521800  0.89521800  0.23802100  1
  Co  Co0  1  0.79592000  0.79592000  0.82809500  1
  Co  Co1  1  0.20408000  0.20408000  0.17190500  1
  O  O0  1  0.94297500  0.94297500  0.86378100  1
  O  O1  1  0.05702500  0.05702500  0.13621900  1
  O  O2  1  0.73721200  0.73721200  0.13726100  1
  O  O3  1  0.14163400  0.14163400  0.47238400  1
  O  O4  1  0.64407200  0.64407200  0.79837300  1
  O  O5  1  0.85836600  0.85836600  0.52761600  1
  O  O6  1  0.26278800  0.26278800  0.86273900  1
  O  O7  1  0.35592800  0.35592800  0.20162700  1
loop_
_geom_bond_atom_site_label_1
_geom_bond_atom_site_label_2
_geom_bond_distance
_geom_bond_site_symmetry_2
Nb0 O3 1.810380 1_555
Nb0 O0 1.888446 1_445
Nb0 O4 2.011682 1_545
Nb0 O4 2.011682 1_455
Nb0 O6 2.229841 1_555
Nb0 O1 2.339414 1_556
Nb1 O5 1.810380 1_555
Nb1 O1 1.888446 1_665
Nb1 O7 2.011682 1_565
Nb1 O7 2.011682 1_655
Nb1 O2 2.229841 1_555
Nb1 O0 2.339414 1_554
Co0 O5 1.880403 1_555
Co0 O0 1.887516 1_555
Co0 O4 1.930025 1_555
Co0 O2 1.930139 1_556
Co0 O6 1.961474 1_655
Co0 O6 1.961474 1_565
Co1 O3 1.880403 1_555
Co1 O1 1.887516 1_555
Co1 O7 1.930025 1_555
Co1 O6 1.930139 1_554
Co1 O2 1.961474 1_545
Co1 O2 1.961474 1_455
