# generated using pymatgen
data_Cs4TcMoAs4
_symmetry_space_group_name_H-M   'P 1'
_cell_length_a   8.87731831
_cell_length_b   8.87731761
_cell_length_c   8.87731777
_cell_angle_alpha   138.64004534
_cell_angle_beta   126.70337544
_cell_angle_gamma   69.61996541
_symmetry_Int_Tables_number   1
_chemical_formula_structural   Cs4TcMoAs4
_chemical_formula_sum   'Cs4 Tc1 Mo1 As4'
_cell_volume   363.92037049
_cell_formula_units_Z   1
loop_
 _symmetry_equiv_pos_site_id
 _symmetry_equiv_pos_as_xyz
  1  'x, y, z'
loop_
 _atom_site_type_symbol
 _atom_site_label
 _atom_site_symmetry_multiplicity
 _atom_site_fract_x
 _atom_site_fract_y
 _atom_site_fract_z
 _atom_site_occupancy
  Cs  Cs0  1  0.69181089  0.34881532  0.34551414  1
  Cs  Cs1  1  0.00330018  0.84629576  0.15448586  1
  Cs  Cs2  1  0.99669982  0.15118468  0.84299558  1
  Cs  Cs3  1  0.30818911  0.65370424  0.65700442  1
  Tc  Tc0  1  0.50000000  0.25000000  0.75000000  1
  Mo  Mo0  1  0.50000000  0.75000000  0.25000000  1
  As  As0  1  0.24662705  0.40681884  0.83413761  1
  As  As1  1  0.75337295  0.58750956  0.16019079  1
  As  As2  1  0.42731877  0.09318116  0.33980921  1
  As  As3  1  0.57268123  0.91249044  0.66586239  1
loop_
_geom_bond_atom_site_label_1
_geom_bond_atom_site_label_2
_geom_bond_distance
_geom_bond_site_symmetry_2
As0 Tc0 2.412785 1_555
As0 Mo0 2.435774 1_556
As0 Cs1 3.559291 1_545
As0 Cs1 3.576657 1_556
As0 Cs2 3.749920 1_455
As0 Cs3 3.822267 1_555
As0 Cs0 4.026757 1_455
As0 Cs0 4.139843 1_556
As1 Tc0 2.412781 1_554
As1 Mo0 2.435778 1_555
As1 Cs2 3.559289 1_554
As1 Cs2 3.576659 1_565
As1 Cs1 3.749913 1_655
As1 Cs0 3.822258 1_555
As1 Cs3 4.026755 1_655
As1 Cs3 4.139849 1_554
As2 Tc0 2.412776 1_555
As2 Mo0 2.435770 1_545
As2 Cs3 3.559295 1_555
As2 Cs3 3.576660 1_544
As2 Cs0 3.749934 1_555
As2 Cs1 3.822267 1_545
As2 Cs2 4.026760 1_454
As2 Cs2 4.139846 1_555
As3 Tc0 2.412777 1_565
As3 Mo0 2.435770 1_555
As3 Cs0 3.559288 1_566
As3 Cs0 3.576659 1_555
As3 Cs3 3.749927 1_555
As3 Cs2 3.822262 1_565
As3 Cs1 4.026766 1_656
As3 Cs1 4.139844 1_555
