# generated using pymatgen
data_CsCr3Sb12Ru
_symmetry_space_group_name_H-M   'P 1'
_cell_length_a   8.36288346
_cell_length_b   8.28278620
_cell_length_c   8.28278656
_cell_angle_alpha   109.27450578
_cell_angle_beta   109.66723187
_cell_angle_gamma   109.66723488
_symmetry_Int_Tables_number   1
_chemical_formula_structural   CsCr3Sb12Ru
_chemical_formula_sum   'Cs1 Cr3 Sb12 Ru1'
_cell_volume   440.58603692
_cell_formula_units_Z   1
loop_
 _symmetry_equiv_pos_site_id
 _symmetry_equiv_pos_as_xyz
  1  'x, y, z'
loop_
 _atom_site_type_symbol
 _atom_site_label
 _atom_site_symmetry_multiplicity
 _atom_site_fract_x
 _atom_site_fract_y
 _atom_site_fract_z
 _atom_site_occupancy
  Cs  Cs0  1  0.00000000  0.00000000  0.00000000  1
  Cr  Cr0  1  0.50000000  0.50000000  0.50000000  1
  Cr  Cr1  1  0.00000000  0.00000000  0.50000000  1
  Cr  Cr2  1  0.00000000  0.50000000  0.00000000  1
  Sb  Sb0  1  0.16292199  0.81048231  0.66418096  1
  Sb  Sb1  1  0.15218788  0.50238403  0.35191524  1
  Sb  Sb2  1  0.50125997  0.66418096  0.85369865  1
  Sb  Sb3  1  0.35243868  0.85369865  0.18951769  1
  Sb  Sb4  1  0.80027164  0.64808476  0.15046879  1
  Sb  Sb5  1  0.64980285  0.84953121  0.49761597  1
  Sb  Sb6  1  0.19972836  0.35191524  0.84953121  1
  Sb  Sb7  1  0.64756132  0.14630135  0.81048231  1
  Sb  Sb8  1  0.35019715  0.15046879  0.50238403  1
  Sb  Sb9  1  0.49874003  0.33581904  0.14630135  1
  Sb  Sb10  1  0.84781212  0.49761597  0.64808476  1
  Sb  Sb11  1  0.83707801  0.18951769  0.33581904  1
  Ru  Ru0  1  0.50000000  0.00000000  0.00000000  1
loop_
_geom_bond_atom_site_label_1
_geom_bond_atom_site_label_2
_geom_bond_distance
_geom_bond_site_symmetry_2
Cs0 Sb9 3.628404 1_555
Cs0 Sb2 3.628404 1_444
Cs0 Sb3 3.628404 1_545
Cs0 Sb7 3.628404 1_454
Cs0 Sb11 3.628410 1_455
Cs0 Sb0 3.628410 1_544
Cs0 Sb1 3.655381 1_555
Cs0 Sb10 3.655381 1_444
Cs0 Sb8 3.655384 1_555
Cs0 Sb5 3.655384 1_444
Cs0 Sb4 3.655384 1_445
Cs0 Sb6 3.655384 1_554
Cr0 Sb5 2.750359 1_555
Cr0 Sb8 2.750359 1_555
Cr0 Sb10 2.760185 1_555
Cr0 Sb1 2.760185 1_555
Cr0 Sb2 2.787730 1_555
Cr0 Sb9 2.787730 1_555
Cr1 Sb6 2.750359 1_555
Cr1 Sb4 2.750359 1_445
Cr1 Sb5 2.760192 1_445
Cr1 Sb8 2.760192 1_555
Cr1 Sb0 2.787734 1_545
Cr1 Sb11 2.787734 1_455
Cr2 Sb1 2.750360 1_555
Cr2 Sb10 2.750360 1_454
Cr2 Sb6 2.760192 1_554
Cr2 Sb4 2.760192 1_455
Cr2 Sb3 2.787729 1_555
Cr2 Sb7 2.787729 1_454
Sb0 Sb1 2.922667 1_555
Sb0 Sb10 2.935362 1_455
Sb1 Sb11 2.935362 1_455
Sb2 Sb6 2.922667 1_555
Sb2 Sb4 2.935352 1_556
Sb3 Sb5 2.922667 1_555
Sb3 Sb8 2.935352 1_565
Sb4 Sb9 2.922667 1_555
Sb5 Sb7 2.935352 1_565
Sb6 Sb9 2.935352 1_556
Sb7 Sb8 2.922667 1_555
Sb10 Sb11 2.922667 1_555
Ru0 Sb11 2.647345 1_555
Ru0 Sb0 2.647345 1_544
Ru0 Sb9 2.647350 1_555
Ru0 Sb2 2.647350 1_544
Ru0 Sb7 2.647350 1_554
Ru0 Sb3 2.647350 1_545
