# generated using pymatgen
data_K3ErCl6
_symmetry_space_group_name_H-M   'P 1'
_cell_length_a   7.73533726
_cell_length_b   12.54369776
_cell_length_c   13.03732929
_cell_angle_alpha   69.84262262
_cell_angle_beta   90.00000000
_cell_angle_gamma   90.00000000
_symmetry_Int_Tables_number   1
_chemical_formula_structural   K3ErCl6
_chemical_formula_sum   'K12 Er4 Cl24'
_cell_volume   1187.52633440
_cell_formula_units_Z   4
loop_
 _symmetry_equiv_pos_site_id
 _symmetry_equiv_pos_as_xyz
  1  'x, y, z'
loop_
 _atom_site_type_symbol
 _atom_site_label
 _atom_site_symmetry_multiplicity
 _atom_site_fract_x
 _atom_site_fract_y
 _atom_site_fract_z
 _atom_site_occupancy
  K  K0  1  0.57781412  0.89097724  0.82319093  1
  K  K1  1  0.07781412  0.60902276  0.17680907  1
  K  K2  1  0.42218588  0.10902276  0.17680907  1
  K  K3  1  0.92218588  0.39097724  0.82319093  1
  K  K4  1  0.05382101  0.73291875  0.81163231  1
  K  K5  1  0.55382101  0.76708125  0.18836769  1
  K  K6  1  0.94617899  0.26708125  0.18836769  1
  K  K7  1  0.44617899  0.23291875  0.81163231  1
  K  K8  1  0.46087451  0.62841331  0.60909272  1
  K  K9  1  0.96087451  0.87158669  0.39090728  1
  K  K10  1  0.53912549  0.37158669  0.39090728  1
  K  K11  1  0.03912549  0.12841331  0.60909272  1
  Er  Er0  1  0.00000000  0.50000000  0.50000000  1
  Er  Er1  1  0.50000000  0.00000000  0.50000000  1
  Er  Er2  1  0.50000000  0.50000000  -0.00000000  1
  Er  Er3  1  0.00000000  0.00000000  -0.00000000  1
  Cl  Cl0  1  0.16765553  0.34917664  0.65376447  1
  Cl  Cl1  1  0.66765553  0.15082336  0.34623553  1
  Cl  Cl2  1  0.83234447  0.65082336  0.34623553  1
  Cl  Cl3  1  0.33234447  0.84917664  0.65376447  1
  Cl  Cl4  1  0.70798699  0.42551903  0.60675285  1
  Cl  Cl5  1  0.20798699  0.07448097  0.39324715  1
  Cl  Cl6  1  0.29201301  0.57448097  0.39324715  1
  Cl  Cl7  1  0.79201301  0.92551903  0.60675285  1
  Cl  Cl8  1  0.03314567  0.64418821  0.60088563  1
  Cl  Cl9  1  0.53314567  0.85581179  0.39911437  1
  Cl  Cl10  1  0.96685433  0.35581179  0.39911437  1
  Cl  Cl11  1  0.46685433  0.14418821  0.60088563  1
  Cl  Cl12  1  0.70226964  0.60791309  0.83616016  1
  Cl  Cl13  1  0.20226964  0.89208691  0.16383984  1
  Cl  Cl14  1  0.29773036  0.39208691  0.16383984  1
  Cl  Cl15  1  0.79773036  0.10791309  0.83616016  1
  Cl  Cl16  1  0.87088044  0.80666585  0.99850325  1
  Cl  Cl17  1  0.37088044  0.69333415  0.00149675  1
  Cl  Cl18  1  0.12911956  0.19333415  0.00149675  1
  Cl  Cl19  1  0.62911956  0.30666585  0.99850325  1
  Cl  Cl20  1  0.77030767  0.99929718  0.14556177  1
  Cl  Cl21  1  0.27030767  0.50070282  0.85443823  1
  Cl  Cl22  1  0.22969233  0.00070282  0.85443823  1
  Cl  Cl23  1  0.72969233  0.49929718  0.14556177  1
loop_
_geom_bond_atom_site_label_1
_geom_bond_atom_site_label_2
_geom_bond_distance
_geom_bond_site_symmetry_2
Cl0 Er0 2.581852 1_555
Cl0 K7 2.989296 1_555
Cl0 K3 3.091545 1_455
Cl0 K11 3.179245 1_555
Cl1 Er1 2.581852 1_555
Cl1 K6 2.989296 1_555
Cl1 K2 3.091545 1_555
Cl1 K10 3.179245 1_555
Cl2 Er0 2.581852 1_655
Cl2 K5 2.989296 1_555
Cl2 K1 3.091545 1_655
Cl2 K9 3.179245 1_555
Cl3 Er1 2.581852 1_565
Cl3 K4 2.989296 1_555
Cl3 K0 3.091545 1_555
Cl3 K8 3.179245 1_555
Cl4 Er0 2.648771 1_655
Cl4 K3 3.170620 1_555
Cl4 K8 3.191476 1_555
Cl4 K10 3.375612 1_555
Cl4 K7 3.553193 1_555
Cl5 Er1 2.648771 1_555
Cl5 K2 3.170620 1_555
Cl5 K9 3.191476 1_445
Cl5 K11 3.375612 1_555
Cl5 K6 3.553193 1_455
Cl6 Er0 2.648771 1_555
Cl6 K1 3.170620 1_555
Cl6 K10 3.191476 1_555
Cl6 K8 3.375612 1_555
Cl6 K5 3.553193 1_555
Cl7 Er1 2.648771 1_565
Cl7 K0 3.170620 1_555
Cl7 K11 3.191476 1_665
Cl7 K9 3.375612 1_555
Cl7 K4 3.553193 1_655
Cl8 Er0 2.589681 1_555
Cl8 K9 3.249817 1_455
Cl8 K4 3.304717 1_555
Cl8 K8 3.314064 1_555
Cl8 K3 3.588940 1_455
Cl9 Er1 2.589681 1_565
Cl9 K8 3.249817 1_555
Cl9 K5 3.304717 1_555
Cl9 K9 3.314064 1_555
Cl9 K2 3.588940 1_565
Cl10 Er0 2.589681 1_655
Cl10 K11 3.249817 1_655
Cl10 K6 3.304717 1_555
Cl10 K10 3.314064 1_555
Cl10 K1 3.588940 1_655
Cl11 Er1 2.589681 1_555
Cl11 K10 3.249817 1_555
Cl11 K7 3.304717 1_555
Cl11 K11 3.314064 1_555
Cl11 K0 3.588940 1_545
Cl12 Er2 2.617298 1_556
Cl12 K4 3.100060 1_655
Cl12 K3 3.262566 1_555
Cl12 K8 3.433929 1_555
Cl12 K0 3.626139 1_555
Cl13 Er3 2.617298 1_565
Cl13 K5 3.100060 1_555
Cl13 K2 3.262566 1_565
Cl13 K9 3.433929 1_455
Cl13 K1 3.626139 1_555
Cl14 Er2 2.617298 1_555
Cl14 K6 3.100060 1_455
Cl14 K1 3.262566 1_555
Cl14 K10 3.433929 1_555
Cl14 K2 3.626139 1_555
Cl15 Er3 2.617298 1_656
Cl15 K7 3.100060 1_555
Cl15 K0 3.262566 1_545
Cl15 K11 3.433929 1_655
Cl15 K3 3.626139 1_555
Cl16 Er3 2.629029 1_666
Cl16 K0 3.132995 1_555
Cl16 K1 3.184414 1_656
Cl16 K4 3.216688 1_655
Cl16 K5 3.397316 1_556
Cl17 Er2 2.629029 1_555
Cl17 K1 3.132995 1_555
Cl17 K0 3.184414 1_554
Cl17 K5 3.216688 1_555
Cl17 K4 3.397316 1_554
Cl18 Er3 2.629029 1_555
Cl18 K2 3.132995 1_555
Cl18 K3 3.184414 1_454
Cl18 K6 3.216688 1_455
Cl18 K7 3.397316 1_554
Cl19 Er2 2.629029 1_556
Cl19 K3 3.132995 1_555
Cl19 K2 3.184414 1_556
Cl19 K7 3.216688 1_555
Cl19 K6 3.397316 1_556
Cl20 Er3 2.597457 1_665
Cl20 K2 3.114187 1_565
Cl20 K5 3.237290 1_555
Cl20 K9 3.382170 1_555
Cl21 Er2 2.597457 1_556
Cl21 K3 3.114187 1_455
Cl21 K4 3.237290 1_555
Cl21 K8 3.382170 1_555
Cl22 Er3 2.597457 1_556
Cl22 K0 3.114187 1_545
Cl22 K7 3.237290 1_555
Cl22 K11 3.382170 1_555
Cl23 Er2 2.597457 1_555
Cl23 K1 3.114187 1_655
Cl23 K6 3.237290 1_555
Cl23 K10 3.382170 1_555
