# generated using pymatgen
data_Cs16ZrSnAs8
_symmetry_space_group_name_H-M   'P 1'
_cell_length_a   11.89137329
_cell_length_b   11.89137246
_cell_length_c   11.89137317
_cell_angle_alpha   60.00000076
_cell_angle_beta   60.00000305
_cell_angle_gamma   59.99999974
_symmetry_Int_Tables_number   1
_chemical_formula_structural   Cs16ZrSnAs8
_chemical_formula_sum   'Cs16 Zr1 Sn1 As8'
_cell_volume   1188.99770611
_cell_formula_units_Z   1
loop_
 _symmetry_equiv_pos_site_id
 _symmetry_equiv_pos_as_xyz
  1  'x, y, z'
loop_
 _atom_site_type_symbol
 _atom_site_label
 _atom_site_symmetry_multiplicity
 _atom_site_fract_x
 _atom_site_fract_y
 _atom_site_fract_z
 _atom_site_occupancy
  Cs  Cs0  1  0.62351589  0.12945232  0.62351589  1
  Cs  Cs1  1  0.62351589  0.62351589  0.12945232  1
  Cs  Cs2  1  0.12945232  0.62351589  0.62351589  1
  Cs  Cs3  1  0.62351589  0.62351589  0.62351589  1
  Cs  Cs4  1  0.02309133  0.02309133  0.47690867  1
  Cs  Cs5  1  0.77571691  0.22428309  0.22428309  1
  Cs  Cs6  1  0.22428309  0.77571691  0.77571691  1
  Cs  Cs7  1  0.77571691  0.77571691  0.22428309  1
  Cs  Cs8  1  0.77571691  0.22428309  0.77571691  1
  Cs  Cs9  1  0.22428309  0.77571691  0.22428309  1
  Cs  Cs10  1  0.47690867  0.02309133  0.47690867  1
  Cs  Cs11  1  0.47690867  0.02309133  0.02309133  1
  Cs  Cs12  1  0.02309133  0.47690867  0.47690867  1
  Cs  Cs13  1  0.02309133  0.47690867  0.02309133  1
  Cs  Cs14  1  0.22428309  0.22428309  0.77571691  1
  Cs  Cs15  1  0.47690867  0.47690867  0.02309133  1
  Zr  Zr0  1  0.75000000  0.75000000  0.75000000  1
  Sn  Sn0  1  0.50000000  0.50000000  0.50000000  1
  As  As0  1  0.40502224  0.78493228  0.40502224  1
  As  As1  1  0.84249531  0.84249531  0.47251507  1
  As  As2  1  0.47251507  0.84249531  0.84249531  1
  As  As3  1  0.84249531  0.84249531  0.84249531  1
  As  As4  1  0.78493228  0.40502224  0.40502224  1
  As  As5  1  0.40502224  0.40502224  0.40502224  1
  As  As6  1  0.40502224  0.40502224  0.78493228  1
  As  As7  1  0.84249531  0.47251507  0.84249531  1
loop_
_geom_bond_atom_site_label_1
_geom_bond_atom_site_label_2
_geom_bond_distance
_geom_bond_site_symmetry_2
Cs0 Sn0 3.597746 1_555
Cs0 Zr0 3.684203 1_545
Cs0 Cs10 3.889411 1_555
Cs0 Cs11 3.889411 1_556
Cs0 Cs4 3.889411 1_655
Cs0 Cs8 3.896217 1_555
Cs0 Cs5 3.896217 1_555
Cs0 Cs14 3.896217 1_555
Cs1 Sn0 3.597746 1_555
Cs1 Zr0 3.684203 1_554
Cs1 Cs11 3.889411 1_565
Cs1 Cs15 3.889411 1_555
Cs1 Cs13 3.889411 1_655
Cs1 Cs5 3.896217 1_555
Cs1 Cs7 3.896217 1_555
Cs1 Cs9 3.896217 1_555
Cs2 Sn0 3.597746 1_555
Cs2 Zr0 3.684203 1_455
Cs2 Cs4 3.889411 1_565
Cs2 Cs6 3.896217 1_555
Cs2 Cs9 3.896217 1_555
Cs3 Sn0 3.597746 1_555
Cs3 Zr0 3.684203 1_555
Cs3 Cs8 3.896217 1_555
Cs3 Cs6 3.896217 1_555
Cs3 Cs7 3.896217 1_555
Cs10 Cs3 3.889411 1_545
Cs12 Cs2 3.889411 1_555
Cs12 Cs3 3.889411 1_455
Cs13 Cs2 3.889411 1_554
Cs14 Cs2 3.896217 1_555
Cs15 Cs3 3.889411 1_554
As0 Sn0 2.766483 1_555
As0 Cs1 3.736546 1_555
As0 Cs2 3.736546 1_555
As0 Cs3 3.736556 1_555
As0 Cs9 3.786912 1_555
As0 Cs6 3.786923 1_555
As0 Cs7 3.786923 1_555
As0 Cs4 3.879998 1_565
As0 Cs11 3.879998 1_565
As0 Cs10 3.880006 1_565
As1 Zr0 2.694175 1_555
As1 Cs4 3.750046 1_665
As1 Cs12 3.750056 1_655
As1 Cs10 3.750056 1_565
As1 Cs0 3.770232 1_565
As1 Cs2 3.770232 1_655
As1 Cs3 3.770242 1_555
As1 Cs5 3.910613 1_565
As1 Cs9 3.910613 1_655
As1 Cs7 3.910621 1_555
As2 Zr0 2.694175 1_555
As2 Cs11 3.750046 1_566
As2 Cs15 3.750056 1_556
As2 Cs10 3.750056 1_565
As2 Cs0 3.770232 1_565
As2 Cs1 3.770232 1_556
As2 Cs3 3.770241 1_555
As2 Cs14 3.910613 1_565
As2 Cs9 3.910613 1_556
As2 Cs6 3.910621 1_555
As3 Zr0 2.694185 1_555
As3 Cs13 3.750053 1_656
As3 Cs11 3.750053 1_566
As3 Cs4 3.750053 1_665
As3 Cs0 3.770239 1_565
As3 Cs2 3.770239 1_655
As3 Cs1 3.770239 1_556
As3 Cs8 3.910610 1_565
As3 Cs7 3.910610 1_556
As3 Cs6 3.910610 1_655
As4 Sn0 2.766483 1_555
As4 Cs0 3.736546 1_555
As4 Cs1 3.736546 1_555
As4 Cs3 3.736556 1_555
As4 Cs5 3.786912 1_555
As4 Cs7 3.786922 1_555
As4 Cs8 3.786923 1_555
As4 Cs4 3.879998 1_655
As4 Cs13 3.879998 1_655
As4 Cs12 3.880006 1_655
As5 Sn0 2.766493 1_555
As5 Cs0 3.736553 1_555
As5 Cs2 3.736554 1_555
As5 Cs1 3.736554 1_555
As5 Cs9 3.786919 1_555
As5 Cs5 3.786920 1_555
As5 Cs14 3.786920 1_555
As5 Cs10 3.879995 1_555
As5 Cs15 3.879995 1_555
As5 Cs12 3.879995 1_555
As6 Sn0 2.766483 1_555
As6 Cs0 3.736546 1_555
As6 Cs2 3.736546 1_555
As6 Cs3 3.736556 1_555
As6 Cs14 3.786912 1_555
As6 Cs6 3.786922 1_555
As6 Cs8 3.786923 1_555
As6 Cs11 3.879998 1_556
As6 Cs13 3.879998 1_556
As6 Cs15 3.880006 1_556
As7 Zr0 2.694175 1_555
As7 Cs13 3.750046 1_656
As7 Cs12 3.750056 1_655
As7 Cs15 3.750056 1_556
As7 Cs1 3.770232 1_556
As7 Cs2 3.770232 1_655
As7 Cs3 3.770242 1_555
As7 Cs14 3.910613 1_655
As7 Cs5 3.910613 1_556
As7 Cs8 3.910621 1_555
