# generated using pymatgen
data_Mn4Al2HgO12
_symmetry_space_group_name_H-M   'P 1'
_cell_length_a   8.00432893
_cell_length_b   8.00432729
_cell_length_c   9.55292350
_cell_angle_alpha   53.45343784
_cell_angle_beta   53.45343917
_cell_angle_gamma   64.86259938
_symmetry_Int_Tables_number   1
_chemical_formula_structural   Mn4Al2HgO12
_chemical_formula_sum   'Mn8 Al4 Hg2 O24'
_cell_volume   392.67797792
_cell_formula_units_Z   2
loop_
 _symmetry_equiv_pos_site_id
 _symmetry_equiv_pos_as_xyz
  1  'x, y, z'
loop_
 _atom_site_type_symbol
 _atom_site_label
 _atom_site_symmetry_multiplicity
 _atom_site_fract_x
 _atom_site_fract_y
 _atom_site_fract_z
 _atom_site_occupancy
  Mn  Mn0  1  0.66839958  0.99796676  0.81515687  1
  Mn  Mn1  1  0.18721087  0.51686069  0.48088689  1
  Mn  Mn2  1  0.81278913  0.48313931  0.51911311  1
  Mn  Mn3  1  0.33160042  0.00203324  0.18484313  1
  Mn  Mn4  1  0.00203324  0.33160042  0.18484313  1
  Mn  Mn5  1  0.99796676  0.66839958  0.81515687  1
  Mn  Mn6  1  0.51686069  0.18721087  0.48088689  1
  Mn  Mn7  1  0.48313931  0.81278913  0.51911311  1
  Al  Al0  1  0.85130653  0.85130653  0.48207485  1
  Al  Al1  1  0.33372619  0.33372619  0.81557013  1
  Al  Al2  1  0.14869347  0.14869347  0.51792515  1
  Al  Al3  1  0.66627381  0.66627381  0.18442987  1
  Hg  Hg0  1  0.19683962  0.80316038  0.00000000  1
  Hg  Hg1  1  0.80316038  0.19683962  1.00000000  1
  O  O0  1  0.70337088  0.70337088  0.95247326  1
  O  O1  1  0.01869041  0.68054879  0.34571550  1
  O  O2  1  0.68054879  0.01869041  0.34571550  1
  O  O3  1  0.67208067  0.00209678  0.61877769  1
  O  O4  1  0.00209678  0.67208067  0.61877769  1
  O  O5  1  0.04214974  0.04214974  0.29169714  1
  O  O6  1  0.70934465  0.37909634  0.29088197  1
  O  O7  1  0.37909634  0.70934465  0.29088197  1
  O  O8  1  0.99790322  0.32791933  0.38122231  1
  O  O9  1  0.98130959  0.31945121  0.65428450  1
  O  O10  1  0.02685841  0.36495895  0.95374092  1
  O  O11  1  0.36495895  0.02685841  0.95374092  1
  O  O12  1  0.29662912  0.29662912  0.04752674  1
  O  O13  1  0.97314159  0.63504105  0.04625908  1
  O  O14  1  0.34340676  0.34340676  0.35947375  1
  O  O15  1  0.33596476  0.33596476  0.62203372  1
  O  O16  1  0.29065535  0.62090366  0.70911803  1
  O  O17  1  0.62090366  0.29065535  0.70911803  1
  O  O18  1  0.95785026  0.95785026  0.70830286  1
  O  O19  1  0.66403524  0.66403524  0.37796628  1
  O  O20  1  0.32791933  0.99790322  0.38122231  1
  O  O21  1  0.65659324  0.65659324  0.64052625  1
  O  O22  1  0.31945121  0.98130959  0.65428450  1
  O  O23  1  0.63504105  0.97314159  0.04625908  1
loop_
_geom_bond_atom_site_label_1
_geom_bond_atom_site_label_2
_geom_bond_distance
_geom_bond_site_symmetry_2
Mn0 O3 1.839146 1_565
Mn0 O18 1.858669 1_555
Mn0 O17 1.880124 1_565
Mn0 O0 1.884708 1_555
Mn0 O11 1.939928 1_565
Mn0 O23 1.950718 1_556
Mn1 O7 1.840412 1_555
Mn1 O15 1.858629 1_555
Mn1 O4 1.880129 1_555
Mn1 O14 1.884692 1_555
Mn1 O1 1.939476 1_555
Mn1 O9 1.949581 1_455
Mn2 O17 1.840412 1_555
Mn2 O19 1.858629 1_555
Mn2 O8 1.880129 1_555
Mn2 O21 1.884692 1_555
Mn2 O9 1.939476 1_555
Mn2 O1 1.949581 1_655
Mn3 O20 1.839146 1_545
Mn3 O5 1.858669 1_555
Mn3 O7 1.880124 1_545
Mn3 O12 1.884708 1_555
Mn3 O23 1.939928 1_545
Mn3 O11 1.950718 1_554
Mn4 O8 1.839146 1_455
Mn4 O5 1.858669 1_555
Mn4 O6 1.880124 1_455
Mn4 O12 1.884709 1_555
Mn4 O13 1.939928 1_455
Mn4 O10 1.950718 1_554
Mn5 O4 1.839146 1_655
Mn5 O18 1.858669 1_555
Mn5 O16 1.880124 1_655
Mn5 O0 1.884709 1_555
Mn5 O10 1.939928 1_655
Mn5 O13 1.950718 1_556
Mn6 O6 1.840412 1_555
Mn6 O15 1.858629 1_555
Mn6 O3 1.880129 1_555
Mn6 O14 1.884693 1_555
Mn6 O2 1.939476 1_555
Mn6 O22 1.949581 1_545
Mn7 O16 1.840412 1_555
Mn7 O19 1.858629 1_555
Mn7 O20 1.880129 1_555
Mn7 O21 1.884693 1_555
Mn7 O22 1.939476 1_555
Mn7 O2 1.949581 1_565
Al0 O5 1.827486 1_665
Al0 O3 1.842600 1_565
Al0 O4 1.842600 1_655
Al0 O21 1.895738 1_555
Al0 O1 1.961162 1_655
Al0 O2 1.961162 1_565
Al1 O15 1.827624 1_555
Al1 O16 1.843143 1_555
Al1 O17 1.843143 1_555
Al1 O12 1.895805 1_556
Al1 O11 1.961653 1_555
Al1 O10 1.961653 1_555
Al2 O18 1.827486 1_445
Al2 O20 1.842600 1_545
Al2 O8 1.842600 1_455
Al2 O14 1.895738 1_555
Al2 O9 1.961162 1_455
Al2 O22 1.961162 1_545
Al3 O19 1.827624 1_555
Al3 O6 1.843143 1_555
Al3 O7 1.843143 1_555
Al3 O0 1.895805 1_554
Al3 O23 1.961653 1_555
Al3 O13 1.961653 1_555
Hg0 O11 2.368274 1_564
Hg0 O13 2.368274 1_455
Hg0 O22 2.371466 1_554
Hg0 O1 2.371466 1_555
Hg1 O23 2.368274 1_546
Hg1 O10 2.368274 1_655
Hg1 O2 2.371466 1_556
Hg1 O9 2.371466 1_555
