# generated using pymatgen
data_Zr2ScPtF15
_symmetry_space_group_name_H-M   'P 1'
_cell_length_a   7.85126551
_cell_length_b   7.85126521
_cell_length_c   7.91686742
_cell_angle_alpha   79.82809129
_cell_angle_beta   79.82808790
_cell_angle_gamma   99.79822275
_symmetry_Int_Tables_number   1
_chemical_formula_structural   Zr2ScPtF15
_chemical_formula_sum   'Zr4 Sc2 Pt2 F30'
_cell_volume   462.46862902
_cell_formula_units_Z   2
loop_
 _symmetry_equiv_pos_site_id
 _symmetry_equiv_pos_as_xyz
  1  'x, y, z'
loop_
 _atom_site_type_symbol
 _atom_site_label
 _atom_site_symmetry_multiplicity
 _atom_site_fract_x
 _atom_site_fract_y
 _atom_site_fract_z
 _atom_site_occupancy
  Zr  Zr0  1  0.82178870  0.74642190  0.32602066  1
  Zr  Zr1  1  0.25357810  0.17821130  0.17397934  1
  Zr  Zr2  1  0.17821130  0.25357810  0.67397934  1
  Zr  Zr3  1  0.74642190  0.82178870  0.82602066  1
  Sc  Sc0  1  0.67709757  0.32290243  0.75000000  1
  Sc  Sc1  1  0.32290243  0.67709757  0.25000000  1
  Pt  Pt0  1  0.24920244  0.75079756  0.75000000  1
  Pt  Pt1  1  0.75079756  0.24920244  0.25000000  1
  F  F0  1  0.15136370  0.18106974  0.94712531  1
  F  F1  1  0.68138049  0.55502703  0.84457206  1
  F  F2  1  0.05080531  0.65411927  0.31601322  1
  F  F3  1  0.65411927  0.05080531  0.81601322  1
  F  F4  1  0.55502703  0.68138049  0.34457206  1
  F  F5  1  0.18106974  0.15136370  0.44712531  1
  F  F6  1  0.84863630  0.81893026  0.05287469  1
  F  F7  1  0.31861951  0.44497297  0.15542794  1
  F  F8  1  0.94919469  0.34588073  0.68398678  1
  F  F9  1  0.34588073  0.94919469  0.18398678  1
  F  F10  1  0.44497297  0.31861951  0.65542794  1
  F  F11  1  0.81893026  0.84863630  0.55287469  1
  F  F12  1  0.97144780  0.02855220  0.75000000  1
  F  F13  1  0.53248123  0.75102311  0.02955159  1
  F  F14  1  0.24897689  0.46751877  0.47044841  1
  F  F15  1  0.46751877  0.24897689  0.97044841  1
  F  F16  1  0.75102311  0.53248123  0.52955159  1
  F  F17  1  0.02855220  0.97144780  0.25000000  1
  F  F18  1  0.20785446  0.72430585  0.00436653  1
  F  F19  1  0.22131647  0.49360909  0.79406914  1
  F  F20  1  0.99194090  0.70668224  0.77971046  1
  F  F21  1  0.70668224  0.99194090  0.27971046  1
  F  F22  1  0.49360909  0.22131647  0.29406914  1
  F  F23  1  0.72430585  0.20785446  0.50436653  1
  F  F24  1  0.79214554  0.27569415  0.99563347  1
  F  F25  1  0.77868353  0.50639091  0.20593086  1
  F  F26  1  0.00805910  0.29331776  0.22028954  1
  F  F27  1  0.29331776  0.00805910  0.72028954  1
  F  F28  1  0.50639091  0.77868353  0.70593086  1
  F  F29  1  0.27569415  0.79214554  0.49563347  1
loop_
_geom_bond_atom_site_label_1
_geom_bond_atom_site_label_2
_geom_bond_distance
_geom_bond_site_symmetry_2
F0 Zr1 2.090697 1_556
F0 Zr2 2.099547 1_555
F1 Zr3 2.042000 1_555
F1 Sc0 2.086407 1_555
F2 Zr0 2.044010 1_455
F2 Sc1 2.076213 1_555
F3 Zr3 2.044010 1_545
F3 Sc0 2.076213 1_555
F4 Zr0 2.042000 1_555
F4 Sc1 2.086407 1_555
F5 Zr2 2.090697 1_555
F5 Zr1 2.099547 1_555
F6 Zr3 2.090697 1_554
F6 Zr0 2.099547 1_555
F7 Zr1 2.042000 1_555
F7 Sc1 2.086407 1_555
F8 Zr2 2.044010 1_655
F8 Sc0 2.076213 1_555
F9 Zr1 2.044010 1_565
F9 Sc1 2.076213 1_555
F10 Zr2 2.042000 1_555
F10 Sc0 2.086407 1_555
F11 Zr0 2.090697 1_555
F11 Zr3 2.099547 1_555
F12 Zr2 2.102868 1_655
F12 Zr3 2.102868 1_545
F13 Zr3 2.033879 1_554
F13 Sc1 2.095994 1_555
F14 Zr2 2.033879 1_555
F14 Sc1 2.095994 1_555
F15 Zr1 2.033879 1_556
F15 Sc0 2.095994 1_555
F16 Zr0 2.033879 1_555
F16 Sc0 2.095994 1_555
F17 Zr0 2.102868 1_455
F17 Zr1 2.102868 1_565
F18 Pt0 1.949912 1_554
F18 Sc1 2.283576 1_555
F19 Pt0 1.954678 1_555
F19 Zr2 2.258176 1_555
F20 Pt0 1.954561 1_655
F20 Zr3 2.264345 1_555
F21 Pt1 1.954561 1_565
F21 Zr0 2.264345 1_555
F22 Pt1 1.954678 1_555
F22 Zr1 2.258176 1_555
F23 Pt1 1.949912 1_555
F23 Sc0 2.283576 1_555
F24 Pt1 1.949912 1_556
F24 Sc0 2.283576 1_555
F25 Pt1 1.954678 1_555
F25 Zr0 2.258176 1_555
F26 Pt1 1.954561 1_455
F26 Zr1 2.264345 1_555
F27 Pt0 1.954561 1_545
F27 Zr2 2.264345 1_555
F28 Pt0 1.954678 1_555
F28 Zr3 2.258176 1_555
F29 Pt0 1.949912 1_555
F29 Sc1 2.283576 1_555
