# generated using pymatgen
data_Nb3Al2ReC
_symmetry_space_group_name_H-M   'P 1'
_cell_length_a   8.35581699
_cell_length_b   8.35581639
_cell_length_c   8.35581640
_cell_angle_alpha   59.99999605
_cell_angle_beta   59.99999842
_cell_angle_gamma   59.99999658
_symmetry_Int_Tables_number   1
_chemical_formula_structural   Nb3Al2ReC
_chemical_formula_sum   'Nb12 Al8 Re4 C4'
_cell_volume   412.52632640
_cell_formula_units_Z   4
loop_
 _symmetry_equiv_pos_site_id
 _symmetry_equiv_pos_as_xyz
  1  'x, y, z'
loop_
 _atom_site_type_symbol
 _atom_site_label
 _atom_site_symmetry_multiplicity
 _atom_site_fract_x
 _atom_site_fract_y
 _atom_site_fract_z
 _atom_site_occupancy
  Nb  Nb0  1  0.55415355  0.94584645  0.55415355  1
  Nb  Nb1  1  0.30415355  0.69584645  0.69584645  1
  Nb  Nb2  1  0.69584645  0.30415355  0.30415355  1
  Nb  Nb3  1  0.30415355  0.69584645  0.30415355  1
  Nb  Nb4  1  0.69584645  0.69584645  0.30415355  1
  Nb  Nb5  1  0.30415355  0.30415355  0.69584645  1
  Nb  Nb6  1  0.55415355  0.55415355  0.94584645  1
  Nb  Nb7  1  0.94584645  0.55415355  0.55415355  1
  Nb  Nb8  1  0.55415355  0.94584645  0.94584645  1
  Nb  Nb9  1  0.94584645  0.94584645  0.55415355  1
  Nb  Nb10  1  0.69584645  0.30415355  0.69584645  1
  Nb  Nb11  1  0.94584645  0.55415355  0.94584645  1
  Al  Al0  1  0.91593951  0.91593951  0.91593951  1
  Al  Al1  1  0.99781752  0.33406049  0.33406049  1
  Al  Al2  1  0.33406049  0.99781752  0.33406049  1
  Al  Al3  1  0.33406049  0.33406049  0.99781752  1
  Al  Al4  1  0.91593951  0.25218248  0.91593951  1
  Al  Al5  1  0.91593951  0.91593951  0.25218248  1
  Al  Al6  1  0.25218248  0.91593951  0.91593951  1
  Al  Al7  1  0.33406049  0.33406049  0.33406049  1
  Re  Re0  1  0.12500000  0.12500000  0.12500000  1
  Re  Re1  1  0.62500000  0.12500000  0.12500000  1
  Re  Re2  1  0.12500000  0.62500000  0.12500000  1
  Re  Re3  1  0.12500000  0.12500000  0.62500000  1
  C  C0  1  0.62500000  0.62500000  0.62500000  1
  C  C1  1  0.12500000  0.62500000  0.62500000  1
  C  C2  1  0.62500000  0.12500000  0.62500000  1
  C  C3  1  0.62500000  0.62500000  0.12500000  1
loop_
_geom_bond_atom_site_label_1
_geom_bond_atom_site_label_2
_geom_bond_distance
_geom_bond_site_symmetry_2
Nb0 Re1 2.974154 1_565
Nb0 Re3 2.974154 1_565
Nb1 Re3 2.974154 1_565
Nb1 Re2 2.974154 1_556
Nb2 Re0 2.974154 1_655
Nb2 Re1 2.974154 1_555
Nb3 Re0 2.974154 1_565
Nb3 Re2 2.974154 1_555
Nb4 Re1 2.974154 1_565
Nb4 Re2 2.974154 1_655
Nb5 Re0 2.974154 1_556
Nb5 Re3 2.974154 1_555
Nb6 Re1 2.974154 1_556
Nb6 Re2 2.974154 1_556
Nb7 Re3 2.974154 1_655
Nb7 Re2 2.974154 1_655
Nb8 Re0 2.974154 1_566
Nb8 Re1 2.974154 1_566
Nb9 Re0 2.974154 1_665
Nb9 Re3 2.974154 1_665
Nb10 Re1 2.974154 1_556
Nb10 Re3 2.974154 1_655
Nb11 Re0 2.974154 1_656
Nb11 Re2 2.974154 1_656
Al0 Re2 2.563435 1_656
Al0 Re3 2.563435 1_665
Al0 Re1 2.563435 1_566
Al1 Re0 2.563433 1_655
Al1 Re3 2.563440 1_655
Al1 Re2 2.563440 1_655
Al2 Re0 2.563433 1_565
Al2 Re3 2.563440 1_565
Al2 Re1 2.563440 1_565
Al3 Re0 2.563433 1_556
Al3 Re2 2.563440 1_556
Al3 Re1 2.563440 1_556
Al4 Re0 2.563433 1_656
Al4 Re3 2.563440 1_655
Al4 Re1 2.563440 1_556
Al5 Re0 2.563433 1_665
Al5 Re2 2.563440 1_655
Al5 Re1 2.563440 1_565
Al6 Re0 2.563433 1_566
Al6 Re3 2.563440 1_565
Al6 Re2 2.563440 1_556
Al7 Re2 2.563435 1_555
Al7 Re3 2.563435 1_555
Al7 Re1 2.563435 1_555
C0 Nb0 2.250469 1_555
C0 Nb10 2.250469 1_555
C0 Nb6 2.250469 1_555
C0 Nb4 2.250469 1_555
C0 Nb7 2.250469 1_555
C0 Nb1 2.250469 1_555
C1 Nb9 2.250469 1_455
C1 Nb5 2.250469 1_555
C1 Nb11 2.250469 1_455
C1 Nb3 2.250469 1_555
C1 Nb1 2.250469 1_555
C1 Nb7 2.250469 1_455
C2 Nb8 2.250469 1_545
C2 Nb2 2.250469 1_555
C2 Nb9 2.250469 1_545
C2 Nb5 2.250469 1_555
C2 Nb10 2.250469 1_555
C2 Nb0 2.250469 1_545
C3 Nb8 2.250469 1_554
C3 Nb2 2.250469 1_555
C3 Nb4 2.250469 1_555
C3 Nb6 2.250469 1_554
C3 Nb11 2.250469 1_554
C3 Nb3 2.250469 1_555
