# generated using pymatgen
data_LuZr3(CoB4)4
_symmetry_space_group_name_H-M   'P 1'
_cell_length_a   3.24403159
_cell_length_b   5.78457785
_cell_length_c   11.23042572
_cell_angle_alpha   90.02530134
_cell_angle_beta   90.00000000
_cell_angle_gamma   90.00000000
_symmetry_Int_Tables_number   1
_chemical_formula_structural   LuZr3(CoB4)4
_chemical_formula_sum   'Lu1 Zr3 Co4 B16'
_cell_volume   210.74288567
_cell_formula_units_Z   1
loop_
 _symmetry_equiv_pos_site_id
 _symmetry_equiv_pos_as_xyz
  1  'x, y, z'
loop_
 _atom_site_type_symbol
 _atom_site_label
 _atom_site_symmetry_multiplicity
 _atom_site_fract_x
 _atom_site_fract_y
 _atom_site_fract_z
 _atom_site_occupancy
  Lu  Lu0  1  0.50000000  0.87090702  0.34985945  1
  Zr  Zr0  1  0.50000000  0.37348545  0.14937206  1
  Zr  Zr1  1  0.50000000  0.62779806  0.84914110  1
  Zr  Zr2  1  0.50000000  0.12863617  0.65151083  1
  Co  Co0  1  0.50000000  0.36323899  0.41143139  1
  Co  Co1  1  0.50000000  0.63499645  0.59092177  1
  Co  Co2  1  0.50000000  0.13713777  0.91002404  1
  Co  Co3  1  0.50000000  0.86415175  0.08810420  1
  B  B0  1  0.00000000  0.11400134  0.04680869  1
  B  B1  1  0.00000000  0.88631159  0.95276908  1
  B  B2  1  0.00000000  0.38624002  0.54731472  1
  B  B3  1  0.00000000  0.61225005  0.45366414  1
  B  B4  1  0.00000000  0.13522925  0.46797884  1
  B  B5  1  0.00000000  0.86522781  0.53310690  1
  B  B6  1  0.00000000  0.36644282  0.96628945  1
  B  B7  1  0.00000000  0.63358342  0.03313120  1
  B  B8  1  0.00000000  0.02361619  0.19165132  1
  B  B9  1  0.00000000  0.97545200  0.80720762  1
  B  B10  1  0.00000000  0.47634174  0.69320690  1
  B  B11  1  0.00000000  0.52227180  0.30763059  1
  B  B12  1  0.00000000  0.21393024  0.31336245  1
  B  B13  1  0.00000000  0.78816373  0.68678034  1
  B  B14  1  0.00000000  0.28856784  0.81326073  1
  B  B15  1  0.00000000  0.71201851  0.18547419  1
loop_
_geom_bond_atom_site_label_1
_geom_bond_atom_site_label_2
_geom_bond_distance
_geom_bond_site_symmetry_2
B0 B1 1.687854 1_544
B0 B8 1.708826 1_555
B0 B6 1.717918 1_554
B0 Co3 2.221582 1_445
B0 Co3 2.221582 1_545
B0 Co2 2.238031 1_554
B0 Co2 2.238031 1_454
B0 Zr0 2.491815 1_555
B0 Zr0 2.491815 1_455
B1 B9 1.714330 1_555
B1 B7 1.718400 1_556
B1 Co3 2.226555 1_456
B1 Co3 2.226555 1_556
B1 Co2 2.228716 1_565
B1 Co2 2.228716 1_465
B1 Zr1 2.493991 1_555
B1 Zr1 2.493991 1_455
B2 B3 1.678269 1_555
B2 B4 1.703225 1_555
B2 Co1 2.222774 1_455
B2 Co1 2.222774 1_555
B2 Co0 2.230968 1_455
B2 Co0 2.230968 1_555
B2 Zr2 2.494444 1_455
B2 Zr2 2.494444 1_555
B3 B5 1.713556 1_555
B3 Co0 2.220384 1_555
B3 Co0 2.220384 1_455
B3 Co1 2.241467 1_455
B3 Co1 2.241467 1_555
B3 Lu0 2.496032 1_555
B3 Lu0 2.496032 1_455
B4 B5 1.724916 1_545
B4 Co0 2.185079 1_455
B4 Co0 2.185079 1_555
B4 Lu0 2.593578 1_545
B4 Lu0 2.593578 1_445
B4 Zr2 2.623122 1_455
B4 Zr2 2.623122 1_555
B5 Co1 2.197030 1_455
B5 Co1 2.197030 1_555
B5 Zr2 2.592103 1_565
B5 Zr2 2.592103 1_465
B5 Lu0 2.620538 1_455
B5 Lu0 2.620538 1_555
B6 B7 1.717675 1_556
B6 Co2 2.188355 1_555
B6 Co2 2.188355 1_455
B6 Zr1 2.578603 1_455
B6 Zr1 2.578603 1_555
B6 Zr0 2.619170 1_456
B6 Zr0 2.619170 1_556
B7 Co3 2.188657 1_455
B7 Co3 2.188657 1_555
B7 Zr0 2.569148 1_555
B7 Zr0 2.569148 1_455
B7 Zr1 2.627078 1_554
B7 Zr1 2.627078 1_454
B8 Co3 2.198445 1_445
B8 Co3 2.198445 1_545
B8 Lu0 2.563097 1_545
B8 Lu0 2.563097 1_445
B8 Zr0 2.636889 1_455
B8 Zr0 2.636889 1_555
B9 Co2 2.199547 1_565
B9 Co2 2.199547 1_465
B9 Zr2 2.544579 1_565
B9 Zr2 2.544579 1_465
B9 Zr1 2.626365 1_555
B9 Zr1 2.626365 1_455
B10 B2 1.719114 1_555
B10 B14 1.731734 1_555
B10 B13 1.805234 1_555
B10 Co1 2.189442 1_455
B10 Co1 2.189442 1_555
B10 Zr1 2.542416 1_555
B10 Zr1 2.542416 1_455
B10 Zr2 2.625800 1_455
B10 Zr2 2.625800 1_555
B11 B3 1.720411 1_555
B11 B15 1.757296 1_555
B11 B12 1.784815 1_555
B11 Co0 2.199338 1_555
B11 Co0 2.199338 1_455
B11 Zr0 2.555223 1_555
B11 Zr0 2.555223 1_455
B11 Lu0 2.630991 1_455
B11 Lu0 2.630991 1_555
B12 B8 1.754694 1_555
B12 B4 1.795290 1_555
B12 Co0 2.142204 1_455
B12 Co0 2.142204 1_555
B12 Lu0 2.595550 1_445
B12 Lu0 2.595550 1_545
B12 Zr0 2.622229 1_555
B12 Zr0 2.622229 1_455
B13 B9 1.732497 1_555
B13 B5 1.782653 1_555
B13 Co1 2.138697 1_455
B13 Co1 2.138697 1_555
B13 Zr2 2.582131 1_465
B13 Zr2 2.582131 1_565
B13 Zr1 2.611068 1_455
B13 Zr1 2.611068 1_555
B14 B6 1.776444 1_555
B14 B9 1.812488 1_545
B14 Co2 2.140089 1_455
B14 Co2 2.140089 1_555
B14 Zr1 2.577449 1_455
B14 Zr1 2.577449 1_555
B14 Zr2 2.604818 1_455
B14 Zr2 2.604818 1_555
B15 B7 1.769822 1_555
B15 B8 1.803765 1_565
B15 Co3 2.145225 1_455
B15 Co3 2.145225 1_555
B15 Zr0 2.574770 1_555
B15 Zr0 2.574770 1_455
B15 Lu0 2.623420 1_555
B15 Lu0 2.623420 1_455
