# generated using pymatgen
data_Rb6AlTe4I
_symmetry_space_group_name_H-M   'P 1'
_cell_length_a   11.62226683
_cell_length_b   11.62226526
_cell_length_c   8.71896138
_cell_angle_alpha   90.00000000
_cell_angle_beta   90.00000000
_cell_angle_gamma   119.99999614
_symmetry_Int_Tables_number   1
_chemical_formula_structural   Rb6AlTe4I
_chemical_formula_sum   'Rb12 Al2 Te8 I2'
_cell_volume   1019.94564442
_cell_formula_units_Z   2
loop_
 _symmetry_equiv_pos_site_id
 _symmetry_equiv_pos_as_xyz
  1  'x, y, z'
loop_
 _atom_site_type_symbol
 _atom_site_label
 _atom_site_symmetry_multiplicity
 _atom_site_fract_x
 _atom_site_fract_y
 _atom_site_fract_z
 _atom_site_occupancy
  Rb  Rb0  1  0.13966457  0.86033543  0.51390551  1
  Rb  Rb1  1  0.72066787  0.86033543  0.51390551  1
  Rb  Rb2  1  0.95050507  0.47525253  0.32072862  1
  Rb  Rb3  1  0.52474747  0.47525253  0.32072862  1
  Rb  Rb4  1  0.86033543  0.72066787  0.01390551  1
  Rb  Rb5  1  0.27933213  0.13966457  0.01390551  1
  Rb  Rb6  1  0.52474747  0.04949493  0.32072862  1
  Rb  Rb7  1  0.13966457  0.27933213  0.51390551  1
  Rb  Rb8  1  0.86033543  0.13966457  0.01390551  1
  Rb  Rb9  1  0.04949493  0.52474747  0.82072862  1
  Rb  Rb10  1  0.47525253  0.95050507  0.82072862  1
  Rb  Rb11  1  0.47525253  0.52474747  0.82072862  1
  Al  Al0  1  0.66666700  0.33333300  0.70821508  1
  Al  Al1  1  0.33333300  0.66666700  0.20821508  1
  Te  Te0  1  0.41708625  0.20854412  0.61324440  1
  Te  Te1  1  0.58291375  0.79145588  0.11324440  1
  Te  Te2  1  0.66666700  0.33333300  0.01802286  1
  Te  Te3  1  0.79145588  0.58291375  0.61324440  1
  Te  Te4  1  0.20854412  0.41708625  0.11324440  1
  Te  Te5  1  0.33333300  0.66666700  0.51802286  1
  Te  Te6  1  0.20854412  0.79145588  0.11324440  1
  Te  Te7  1  0.79145588  0.20854412  0.61324440  1
  I  I0  1  0.00000000  0.00000000  0.27072947  1
  I  I1  1  0.00000000  0.00000000  0.77072947  1
loop_
_geom_bond_atom_site_label_1
_geom_bond_atom_site_label_2
_geom_bond_distance
_geom_bond_site_symmetry_2
Rb0 Te6 3.758465 1_555
Rb0 Te0 3.804676 1_565
Rb0 Te3 3.804676 1_455
Rb0 Te5 3.898780 1_555
Rb1 Te1 3.758447 1_555
Rb1 Te7 3.804672 1_565
Rb1 Te3 3.804683 1_555
Rb1 Te5 3.898760 1_555
Rb2 Te7 3.714870 1_555
Rb2 Te3 3.714884 1_555
Rb2 Te6 3.840696 1_655
Rb2 Te4 3.840709 1_655
Rb2 Te2 3.889417 1_555
Rb3 Te0 3.714868 1_555
Rb3 Te3 3.714869 1_555
Rb3 Te1 3.840689 1_555
Rb3 Te4 3.840689 1_555
Rb3 Te2 3.889424 1_555
Rb4 Te3 3.758447 1_554
Rb4 Te6 3.804673 1_655
Rb4 Te1 3.804684 1_555
Rb4 Te2 3.898759 1_555
Rb5 Te0 3.758447 1_554
Rb5 Te6 3.804672 1_545
Rb5 Te4 3.804683 1_555
Rb5 Te2 3.898760 1_555
Rb6 Te7 3.714870 1_555
Rb6 Te0 3.714884 1_555
Rb6 Te6 3.840696 1_545
Rb6 Te1 3.840709 1_545
Rb6 Te2 3.889417 1_555
Rb7 Te4 3.758447 1_555
Rb7 Te7 3.804673 1_455
Rb7 Te0 3.804684 1_555
Rb7 Te5 3.898759 1_555
Rb8 Te7 3.758465 1_554
Rb8 Te1 3.804676 1_545
Rb8 Te4 3.804676 1_655
Rb8 Te2 3.898780 1_555
Rb9 Te6 3.714870 1_556
Rb9 Te4 3.714884 1_556
Rb9 Te7 3.840696 1_455
Rb9 Te3 3.840709 1_455
Rb9 Te5 3.889417 1_555
Rb10 Te6 3.714870 1_556
Rb10 Te1 3.714884 1_556
Rb10 Te7 3.840696 1_565
Rb10 Te0 3.840709 1_565
Rb10 Te5 3.889417 1_555
Rb11 Te1 3.714868 1_556
Rb11 Te4 3.714869 1_556
Rb11 Te0 3.840689 1_555
Rb11 Te3 3.840689 1_555
Rb11 Te5 3.889424 1_555
Al0 Te7 2.645000 1_555
Al0 Te3 2.645029 1_555
Al0 Te0 2.645029 1_555
Al0 Te2 2.701202 1_556
Al1 Te6 2.645000 1_555
Al1 Te4 2.645029 1_555
Al1 Te1 2.645029 1_555
Al1 Te5 2.701202 1_555
I0 Rb0 3.521356 1_545
I0 Rb7 3.521380 1_555
I0 Rb1 3.521380 1_445
I0 Rb8 3.594260 1_455
I0 Rb4 3.594284 1_445
I0 Rb5 3.594284 1_555
I1 Rb8 3.521356 1_456
I1 Rb4 3.521380 1_446
I1 Rb5 3.521380 1_556
I1 Rb0 3.594260 1_545
I1 Rb7 3.594284 1_555
I1 Rb1 3.594284 1_445
