# generated using pymatgen
data_Hf7Zr3(GaSb)4
_symmetry_space_group_name_H-M   'P 1'
_cell_length_a   8.49651697
_cell_length_b   8.51388791
_cell_length_c   5.75541605
_cell_angle_alpha   90.00000000
_cell_angle_beta   90.00000000
_cell_angle_gamma   120.06765872
_symmetry_Int_Tables_number   1
_chemical_formula_structural   Hf7Zr3(GaSb)4
_chemical_formula_sum   'Hf7 Zr3 Ga4 Sb4'
_cell_volume   360.31282272
_cell_formula_units_Z   1
loop_
 _symmetry_equiv_pos_site_id
 _symmetry_equiv_pos_as_xyz
  1  'x, y, z'
loop_
 _atom_site_type_symbol
 _atom_site_label
 _atom_site_symmetry_multiplicity
 _atom_site_fract_x
 _atom_site_fract_y
 _atom_site_fract_z
 _atom_site_occupancy
  Hf  Hf0  1  0.28689982  0.27326670  0.75000000  1
  Hf  Hf1  1  0.71310018  0.98636788  0.75000000  1
  Hf  Hf2  1  0.33720613  0.66992689  0.50565913  1
  Hf  Hf3  1  0.66279387  0.33272076  0.50565913  1
  Hf  Hf4  1  0.00000000  0.72754041  0.75000000  1
  Hf  Hf5  1  0.33720613  0.66992689  0.99434087  1
  Hf  Hf6  1  0.66279387  0.33272076  0.99434087  1
  Zr  Zr0  1  0.73812277  0.74034688  0.25000000  1
  Zr  Zr1  1  1.00000000  0.26273552  0.25000000  1
  Zr  Zr2  1  0.26187723  0.00222411  0.25000000  1
  Ga  Ga0  1  1.00000000  0.00108356  0.51968501  1
  Ga  Ga1  1  0.61613942  0.61398666  0.75000000  1
  Ga  Ga2  1  0.38386058  0.99784624  0.75000000  1
  Ga  Ga3  1  1.00000000  0.00108356  0.98031499  1
  Sb  Sb0  1  0.60453855  0.00096550  0.25000000  1
  Sb  Sb1  1  0.39546145  0.39642695  0.25000000  1
  Sb  Sb2  1  0.00000000  0.38127667  0.75000000  1
  Sb  Sb3  1  1.00000000  0.60955608  0.25000000  1
loop_
_geom_bond_atom_site_label_1
_geom_bond_atom_site_label_2
_geom_bond_distance
_geom_bond_site_symmetry_2
Hf0 Sb2 3.005658 1_555
Hf0 Sb1 3.043410 1_556
Hf0 Sb1 3.043410 1_555
Hf1 Sb2 3.005651 1_665
Hf1 Sb0 3.043409 1_566
Hf1 Sb0 3.043409 1_565
Hf2 Sb0 2.975399 1_565
Hf2 Sb1 2.997854 1_555
Hf2 Sb3 3.026931 1_455
Hf2 Sb2 3.028260 1_555
Hf3 Sb1 2.975399 1_555
Hf3 Sb0 2.997854 1_555
Hf3 Sb3 3.026931 1_555
Hf3 Sb2 3.028260 1_655
Hf4 Sb2 2.948051 1_555
Hf4 Sb3 3.047989 1_455
Hf4 Sb3 3.047989 1_456
Hf5 Sb0 2.975399 1_566
Hf5 Sb1 2.997854 1_556
Hf5 Sb3 3.026931 1_456
Hf5 Sb2 3.028260 1_555
Hf6 Sb1 2.975399 1_556
Hf6 Sb0 2.997854 1_556
Hf6 Sb3 3.026931 1_556
Hf6 Sb2 3.028260 1_655
Ga0 Hf4 2.679730 1_645
Ga0 Zr0 2.708954 1_545
Ga0 Zr2 2.708954 1_655
Ga0 Zr1 2.715089 1_555
Ga0 Hf0 2.721927 1_655
Ga0 Hf1 2.721930 1_545
Ga1 Hf0 2.847617 1_555
Ga1 Hf1 2.848331 1_555
Ga1 Hf4 2.900400 1_655
Ga1 Hf6 2.969913 1_555
Ga1 Hf3 2.969913 1_555
Ga1 Hf5 2.992028 1_555
Ga1 Hf2 2.992028 1_555
Ga1 Zr0 3.065206 1_555
Ga1 Zr0 3.065206 1_556
Ga2 Hf1 2.847609 1_555
Ga2 Hf0 2.848331 1_565
Ga2 Hf4 2.900398 1_555
Ga2 Hf5 2.969905 1_555
Ga2 Hf2 2.969905 1_555
Ga2 Hf6 2.992032 1_565
Ga2 Hf3 2.992032 1_565
Ga2 Zr2 3.065207 1_566
Ga2 Zr2 3.065207 1_565
Ga3 Hf4 2.679730 1_645
Ga3 Zr0 2.708954 1_546
Ga3 Zr2 2.708954 1_656
Ga3 Zr1 2.715089 1_556
Ga3 Hf0 2.721927 1_655
Ga3 Hf1 2.721930 1_545
Sb0 Zr2 2.916811 1_555
Sb0 Zr0 2.955541 1_545
Sb0 Zr1 2.958571 1_555
Sb1 Zr0 2.916811 1_555
Sb1 Zr2 2.955541 1_555
Sb1 Zr1 2.958571 1_455
Sb2 Zr1 3.049554 1_455
Sb2 Zr1 3.049554 1_456
Sb3 Zr2 2.945085 1_665
Sb3 Zr0 2.945085 1_555
Sb3 Zr1 2.952791 1_555
