# generated using pymatgen
data_Ca3(GaPt)2
_symmetry_space_group_name_H-M   'P 1'
_cell_length_a   5.78253037
_cell_length_b   7.85123500
_cell_length_c   13.80800037
_cell_angle_alpha   90.00000000
_cell_angle_beta   90.00000000
_cell_angle_gamma   90.00000000
_symmetry_Int_Tables_number   1
_chemical_formula_structural   Ca3(GaPt)2
_chemical_formula_sum   'Ca12 Ga8 Pt8'
_cell_volume   626.88328348
_cell_formula_units_Z   4
loop_
 _symmetry_equiv_pos_site_id
 _symmetry_equiv_pos_as_xyz
  1  'x, y, z'
loop_
 _atom_site_type_symbol
 _atom_site_label
 _atom_site_symmetry_multiplicity
 _atom_site_fract_x
 _atom_site_fract_y
 _atom_site_fract_z
 _atom_site_occupancy
  Ca  Ca0  1  0.14298483  0.60640494  0.09828158  1
  Ca  Ca1  1  0.14298483  0.89359506  0.90171842  1
  Ca  Ca2  1  0.85701517  0.10640494  0.40171842  1
  Ca  Ca3  1  0.85701517  0.39359506  0.59828158  1
  Ca  Ca4  1  0.85701517  0.39359506  0.90171842  1
  Ca  Ca5  1  0.85701517  0.10640494  0.09828158  1
  Ca  Ca6  1  0.14298483  0.89359506  0.59828158  1
  Ca  Ca7  1  0.14298483  0.60640494  0.40171842  1
  Ca  Ca8  1  0.37057023  0.25682301  0.25000000  1
  Ca  Ca9  1  0.37057023  0.24317699  0.75000000  1
  Ca  Ca10  1  0.62942977  0.75682301  0.25000000  1
  Ca  Ca11  1  0.62942977  0.74317699  0.75000000  1
  Ga  Ga0  1  0.37988067  0.25000000  -0.00000000  1
  Ga  Ga1  1  0.62011933  0.75000000  0.50000000  1
  Ga  Ga2  1  0.62011933  0.75000000  -0.00000000  1
  Ga  Ga3  1  0.37988067  0.25000000  0.50000000  1
  Ga  Ga4  1  0.85626313  0.40921560  0.25000000  1
  Ga  Ga5  1  0.85626313  0.09078440  0.75000000  1
  Ga  Ga6  1  0.14373687  0.90921560  0.25000000  1
  Ga  Ga7  1  0.14373687  0.59078440  0.75000000  1
  Pt  Pt0  1  0.63838990  0.46900601  0.09360828  1
  Pt  Pt1  1  0.63838990  0.03099399  0.90639172  1
  Pt  Pt2  1  0.36161010  0.96900601  0.40639172  1
  Pt  Pt3  1  0.36161010  0.53099399  0.59360828  1
  Pt  Pt4  1  0.36161010  0.53099399  0.90639172  1
  Pt  Pt5  1  0.36161010  0.96900601  0.09360828  1
  Pt  Pt6  1  0.63838990  0.03099399  0.59360828  1
  Pt  Pt7  1  0.63838990  0.46900601  0.40639172  1
loop_
_geom_bond_atom_site_label_1
_geom_bond_atom_site_label_2
_geom_bond_distance
_geom_bond_site_symmetry_2
Ca0 Pt4 2.994867 1_554
Ca0 Pt0 3.061755 1_555
Ca0 Ga4 3.087794 1_455
Ca0 Pt0 3.111532 1_455
Ca0 Pt5 3.115611 1_555
Ca0 Ga6 3.168746 1_555
Ca0 Ga2 3.274905 1_555
Ca0 Ga0 3.398262 1_555
Ca0 Ga2 3.500591 1_455
Ca1 Pt5 2.994867 1_556
Ca1 Pt1 3.061755 1_565
Ca1 Ga5 3.087794 1_465
Ca1 Pt1 3.111532 1_465
Ca1 Pt4 3.115611 1_555
Ca1 Ga7 3.168746 1_555
Ca1 Ga2 3.274905 1_556
Ca1 Ga0 3.398262 1_566
Ca1 Ga2 3.500591 1_456
Ca2 Pt6 2.994867 1_555
Ca2 Pt2 3.061755 1_545
Ca2 Ga6 3.087794 1_645
Ca2 Pt2 3.111532 1_645
Ca2 Pt7 3.115611 1_555
Ca2 Ga4 3.168746 1_555
Ca2 Ga3 3.274905 1_555
Ca2 Ga1 3.398262 1_545
Ca2 Ga3 3.500591 1_655
Ca3 Pt7 2.994867 1_555
Ca3 Pt3 3.061755 1_555
Ca3 Ga7 3.087794 1_655
Ca3 Pt3 3.111532 1_655
Ca3 Pt6 3.115611 1_555
Ca3 Ga5 3.168746 1_555
Ca3 Ga3 3.274905 1_555
Ca3 Ga1 3.398262 1_555
Ca3 Ga3 3.500591 1_655
Ca4 Pt0 2.994867 1_556
Ca4 Pt4 3.061755 1_555
Ca4 Ga7 3.087794 1_655
Ca4 Pt4 3.111532 1_655
Ca4 Pt1 3.115611 1_555
Ca4 Ga5 3.168746 1_555
Ca4 Ga0 3.274905 1_556
Ca4 Ga2 3.398262 1_556
Ca4 Ga0 3.500591 1_656
Ca5 Pt1 2.994867 1_554
Ca5 Pt5 3.061755 1_545
Ca5 Ga6 3.087794 1_645
Ca5 Pt5 3.111532 1_645
Ca5 Pt0 3.115611 1_555
Ca5 Ga4 3.168746 1_555
Ca5 Ga0 3.274905 1_555
Ca5 Ga2 3.398262 1_545
Ca5 Ga0 3.500591 1_655
Ca6 Pt2 2.994867 1_555
Ca6 Pt6 3.061755 1_565
Ca6 Ga5 3.087794 1_465
Ca6 Pt6 3.111532 1_465
Ca6 Pt3 3.115611 1_555
Ca6 Ga7 3.168746 1_555
Ca6 Ga1 3.274905 1_555
Ca6 Ga3 3.398262 1_565
Ca6 Ga1 3.500591 1_455
Ca7 Pt3 2.994867 1_555
Ca7 Pt7 3.061755 1_555
Ca7 Ga4 3.087794 1_455
Ca7 Pt7 3.111532 1_455
Ca7 Pt2 3.115611 1_555
Ca7 Ga6 3.168746 1_555
Ca7 Ga1 3.274905 1_555
Ca7 Ga3 3.398262 1_555
Ca7 Ga1 3.500591 1_455
Ca8 Ga6 3.027990 1_545
Ca8 Ga4 3.052770 1_555
Ca8 Pt2 3.126063 1_545
Ca8 Pt5 3.126063 1_545
Ca8 Pt0 3.136378 1_555
Ca8 Pt7 3.136378 1_555
Ca8 Ga4 3.205651 1_455
Ca9 Ga7 3.027990 1_555
Ca9 Ga5 3.052770 1_555
Ca9 Pt3 3.126063 1_555
Ca9 Pt4 3.126063 1_555
Ca9 Pt6 3.136378 1_555
Ca9 Pt1 3.136378 1_555
Ca9 Ga5 3.205651 1_455
Ca10 Ga4 3.027990 1_555
Ca10 Ga6 3.052770 1_555
Ca10 Pt0 3.126063 1_555
Ca10 Pt7 3.126063 1_555
Ca10 Pt2 3.136378 1_555
Ca10 Pt5 3.136378 1_555
Ca10 Ga6 3.205651 1_655
Ca11 Ga5 3.027990 1_565
Ca11 Ga7 3.052770 1_555
Ca11 Pt6 3.126063 1_565
Ca11 Pt1 3.126063 1_565
Ca11 Pt3 3.136378 1_555
Ca11 Pt4 3.136378 1_555
Ca11 Ga7 3.205651 1_655
Ga0 Pt4 2.559087 1_554
Ga0 Pt5 2.559087 1_545
Ga0 Pt1 2.619499 1_554
Ga0 Pt0 2.619499 1_555
Ga1 Pt6 2.559087 1_565
Ga1 Pt7 2.559087 1_555
Ga1 Pt3 2.619499 1_555
Ga1 Pt2 2.619499 1_555
Ga2 Pt1 2.559087 1_564
Ga2 Pt0 2.559087 1_555
Ga2 Pt4 2.619499 1_554
Ga2 Pt5 2.619499 1_555
Ga3 Pt3 2.559087 1_555
Ga3 Pt2 2.559087 1_545
Ga3 Pt7 2.619499 1_555
Ga3 Pt6 2.619499 1_555
Ga4 Pt0 2.543789 1_555
Ga4 Pt7 2.543789 1_555
Ga5 Pt6 2.543789 1_555
Ga5 Pt1 2.543789 1_555
Ga6 Pt5 2.543789 1_555
Ga6 Pt2 2.543789 1_555
Ga7 Pt3 2.543789 1_555
Ga7 Pt4 2.543789 1_555
