# generated using pymatgen
data_CdAgRu2O7
_symmetry_space_group_name_H-M   'P 1'
_cell_length_a   7.18832776
_cell_length_b   7.14719193
_cell_length_c   7.14719242
_cell_angle_alpha   59.84763371
_cell_angle_beta   59.80942120
_cell_angle_gamma   59.80942373
_symmetry_Int_Tables_number   1
_chemical_formula_structural   CdAgRu2O7
_chemical_formula_sum   'Cd2 Ag2 Ru4 O14'
_cell_volume   258.59912607
_cell_formula_units_Z   2
loop_
 _symmetry_equiv_pos_site_id
 _symmetry_equiv_pos_as_xyz
  1  'x, y, z'
loop_
 _atom_site_type_symbol
 _atom_site_label
 _atom_site_symmetry_multiplicity
 _atom_site_fract_x
 _atom_site_fract_y
 _atom_site_fract_z
 _atom_site_occupancy
  Cd  Cd0  1  0.62500000  0.12500000  0.12500000  1
  Cd  Cd1  1  0.12500000  0.12500000  0.12500000  1
  Ag  Ag0  1  0.12500000  0.62500000  0.12500000  1
  Ag  Ag1  1  0.12500000  0.12500000  0.62500000  1
  Ru  Ru0  1  0.62500000  0.12500000  0.62500000  1
  Ru  Ru1  1  0.62500000  0.62500000  0.12500000  1
  Ru  Ru2  1  0.12500000  0.62500000  0.62500000  1
  Ru  Ru3  1  0.62500000  0.62500000  0.62500000  1
  O  O0  1  0.69068549  0.69369677  0.30743165  1
  O  O1  1  0.94883880  0.55116120  0.55116120  1
  O  O2  1  0.54642058  0.95357942  0.95357942  1
  O  O3  1  0.94181391  0.94256835  0.55630323  1
  O  O4  1  0.94181391  0.55630323  0.94256835  1
  O  O5  1  0.55931451  0.94256835  0.55630323  1
  O  O6  1  0.30818609  0.69369677  0.30743165  1
  O  O7  1  0.30116120  0.69883880  0.69883880  1
  O  O8  1  0.70357942  0.29642058  0.29642058  1
  O  O9  1  0.69068549  0.30743165  0.69369677  1
  O  O10  1  0.55931451  0.55630323  0.94256835  1
  O  O11  1  0.30818609  0.30743165  0.69369677  1
  O  O12  1  0.24145616  0.25854384  0.25854384  1
  O  O13  1  0.00854384  0.99145616  0.99145616  1
loop_
_geom_bond_atom_site_label_1
_geom_bond_atom_site_label_2
_geom_bond_distance
_geom_bond_site_symmetry_2
Cd0 O13 2.246148 1_644
Cd0 O12 2.246148 1_555
Cd0 O8 2.494232 1_555
Cd0 O2 2.494232 1_544
Cd0 O10 2.557923 1_554
Cd0 O0 2.557923 1_545
Cd0 O5 2.557923 1_545
Cd0 O9 2.557923 1_554
Cd1 O12 2.246148 1_555
Cd1 O13 2.246148 1_544
Cd1 O2 2.494232 1_544
Cd1 O8 2.494232 1_455
Cd1 O4 2.557923 1_454
Cd1 O6 2.557923 1_545
Cd1 O11 2.557923 1_554
Cd1 O3 2.557923 1_445
Ag0 O13 2.135112 1_554
Ag0 O12 2.135112 1_555
Ag0 O1 2.517420 1_455
Ag0 O7 2.517420 1_554
Ag0 O10 2.587535 1_554
Ag0 O0 2.587535 1_455
Ag0 O6 2.587536 1_555
Ag0 O4 2.587536 1_454
Ag1 O13 2.135113 1_545
Ag1 O12 2.135113 1_555
Ag1 O1 2.517420 1_455
Ag1 O7 2.517420 1_545
Ag1 O5 2.587535 1_545
Ag1 O9 2.587535 1_455
Ag1 O11 2.587536 1_555
Ag1 O3 2.587536 1_445
O0 Ru3 1.910868 1_555
O0 Ru1 1.913006 1_555
O1 Ru3 1.945402 1_555
O1 Ru2 1.945402 1_655
O2 Ru1 1.951052 1_556
O2 Ru0 1.951052 1_565
O3 Ru2 1.910868 1_655
O3 Ru0 1.913006 1_565
O4 Ru2 1.910868 1_655
O4 Ru1 1.913006 1_556
O5 Ru3 1.910868 1_555
O5 Ru0 1.913006 1_565
O6 Ru2 1.910868 1_555
O6 Ru1 1.913006 1_555
O7 Ru3 1.945402 1_555
O7 Ru2 1.945402 1_555
O8 Ru1 1.951052 1_555
O8 Ru0 1.951052 1_555
O9 Ru3 1.910868 1_555
O9 Ru0 1.913006 1_555
O10 Ru3 1.910868 1_555
O10 Ru1 1.913006 1_556
O11 Ru2 1.910868 1_555
O11 Ru0 1.913006 1_555
