# generated using pymatgen
data_ScV6GaO18
_symmetry_space_group_name_H-M   'P 1'
_cell_length_a   7.04951333
_cell_length_b   7.88988352
_cell_length_c   8.97019919
_cell_angle_alpha   86.77888348
_cell_angle_beta   67.36554554
_cell_angle_gamma   63.78413300
_symmetry_Int_Tables_number   1
_chemical_formula_structural   ScV6GaO18
_chemical_formula_sum   'Sc1 V6 Ga1 O18'
_cell_volume   409.20391735
_cell_formula_units_Z   1
loop_
 _symmetry_equiv_pos_site_id
 _symmetry_equiv_pos_as_xyz
  1  'x, y, z'
loop_
 _atom_site_type_symbol
 _atom_site_label
 _atom_site_symmetry_multiplicity
 _atom_site_fract_x
 _atom_site_fract_y
 _atom_site_fract_z
 _atom_site_occupancy
  Sc  Sc0  1  0.00013537  0.49880072  0.50345927  1
  V  V0  1  0.55415216  0.43329436  0.17962693  1
  V  V1  1  0.72643497  0.75194690  0.24566895  1
  V  V2  1  0.15783409  0.05448983  0.31981816  1
  V  V3  1  0.83812625  0.94384272  0.68764849  1
  V  V4  1  0.27127103  0.24423178  0.76241838  1
  V  V5  1  0.44437628  0.56491215  0.82755309  1
  Ga  Ga0  1  0.99736567  0.99909936  0.00383091  1
  O  O0  1  0.90845274  0.80026369  0.08688110  1
  O  O1  1  0.13655582  0.97164300  0.16289013  1
  O  O2  1  0.70224428  0.19610314  0.16211245  1
  O  O3  1  0.71966187  0.54346696  0.19188008  1
  O  O4  1  0.30512856  0.51128193  0.34346986  1
  O  O5  1  0.06285807  0.28990957  0.33127532  1
  O  O6  1  0.44668501  0.94266136  0.30267039  1
  O  O7  1  0.80914502  0.71726017  0.40046994  1
  O  O8  1  0.99470643  0.00201839  0.50397661  1
  O  O9  1  0.19078627  0.28070032  0.60642210  1
  O  O10  1  0.69323690  0.48923914  0.66363932  1
  O  O11  1  0.93998227  0.70771562  0.67448023  1
  O  O12  1  0.54834811  0.05013556  0.70708020  1
  O  O13  1  0.85789788  0.02817970  0.84458958  1
  O  O14  1  0.29185937  0.80165175  0.84523861  1
  O  O15  1  0.28279998  0.45019550  0.81627412  1
  O  O16  1  0.08553088  0.19849748  0.92040570  1
  O  O17  1  0.49962173  0.50065789  0.00362106  1
loop_
_geom_bond_atom_site_label_1
_geom_bond_atom_site_label_2
_geom_bond_distance
_geom_bond_site_symmetry_2
Ga0 O0 1.946015 1_555
Ga0 O16 1.948060 1_664
Ga0 O2 1.969146 1_565
Ga0 O14 1.969530 1_654
Ga0 O1 1.974972 1_655
Ga0 O13 1.975986 1_564
O0 V1 1.668822 1_555
O1 V2 1.668493 1_565
O2 V0 1.672551 1_555
O3 V1 1.765512 1_555
O3 V0 1.770457 1_555
O4 V0 1.667876 1_555
O4 Sc0 2.118542 1_555
O5 V2 1.666927 1_555
O5 Sc0 2.100940 1_555
O6 V1 1.761632 1_555
O6 V2 1.770686 1_565
O7 V1 1.668099 1_555
O7 Sc0 2.089309 1_655
O8 V2 1.761903 1_655
O8 V3 1.762509 1_545
O9 V4 1.668656 1_555
O9 Sc0 2.086619 1_555
O10 V5 1.668503 1_555
O10 Sc0 2.119013 1_655
O11 V3 1.666710 1_555
O11 Sc0 2.101453 1_655
O12 V4 1.761583 1_555
O12 V3 1.770726 1_545
O13 V3 1.668029 1_545
O14 V5 1.672638 1_555
O15 V4 1.765174 1_555
O15 V5 1.771068 1_555
O16 V4 1.668760 1_555
O17 V5 1.764112 1_554
O17 V0 1.764999 1_555
