# generated using pymatgen
data_Cs3Cu2AgP2
_symmetry_space_group_name_H-M   'P 1'
_cell_length_a   7.82463688
_cell_length_b   7.82463578
_cell_length_c   7.83677962
_cell_angle_alpha   47.96269163
_cell_angle_beta   47.96268803
_cell_angle_gamma   46.98398880
_symmetry_Int_Tables_number   1
_chemical_formula_structural   Cs3Cu2AgP2
_chemical_formula_sum   'Cs3 Cu2 Ag1 P2'
_cell_volume   239.71566330
_cell_formula_units_Z   1
loop_
 _symmetry_equiv_pos_site_id
 _symmetry_equiv_pos_as_xyz
  1  'x, y, z'
loop_
 _atom_site_type_symbol
 _atom_site_label
 _atom_site_symmetry_multiplicity
 _atom_site_fract_x
 _atom_site_fract_y
 _atom_site_fract_z
 _atom_site_occupancy
  Cs  Cs0  1  0.90263218  0.90263218  0.91796348  1
  Cs  Cs1  1  0.50000000  0.50000000  0.50000000  1
  Cs  Cs2  1  0.09736782  0.09736782  0.08203652  1
  Cu  Cu0  1  0.00000000  0.50000000  0.50000000  1
  Cu  Cu1  1  0.50000000  0.00000000  0.50000000  1
  Ag  Ag0  1  0.50000000  0.50000000  0.00000000  1
  P  P0  1  0.25258009  0.25258009  0.29442930  1
  P  P1  1  0.74741991  0.74741991  0.70557070  1
loop_
_geom_bond_atom_site_label_1
_geom_bond_atom_site_label_2
_geom_bond_distance
_geom_bond_site_symmetry_2
Cs0 P1 3.625916 1_555
Cs0 P0 3.642123 1_665
Cs0 Cu1 3.666791 1_566
Cs0 Cu0 3.666791 1_656
Cs0 P0 3.713840 1_566
Cs0 P0 3.713840 1_656
Cs0 Cu0 3.764324 1_665
Cs0 Cu1 3.764324 1_665
Cs0 Cs1 3.963392 1_556
Cs0 Cs1 3.965622 1_655
Cs0 Cs1 3.965623 1_565
Cs1 Cu1 3.912318 1_565
Cs1 Cu1 3.912318 1_555
Cs1 Cu0 3.912318 1_655
Cs1 Cu0 3.912318 1_555
Cs1 Cs2 3.963392 1_556
Cs1 Cs2 3.965622 1_655
Cs1 Cs2 3.965623 1_565
Cs1 P0 4.115473 1_565
Cs1 P1 4.115473 1_545
Cs1 P0 4.115474 1_655
Cs1 P1 4.115474 1_455
Cs2 P0 3.625916 1_555
Cs2 P1 3.642123 1_445
Cs2 Cu1 3.666791 1_554
Cs2 Cu0 3.666791 1_554
Cs2 P1 3.713840 1_544
Cs2 P1 3.713840 1_454
Cs2 Cu0 3.764324 1_545
Cs2 Cu1 3.764324 1_455
Cu0 P1 2.223006 1_455
Cu0 P0 2.223006 1_555
Cu1 P1 2.223007 1_545
Cu1 P0 2.223007 1_555
Ag0 P1 2.443156 1_554
Ag0 P0 2.443156 1_555
Ag0 Cs2 3.661509 1_565
Ag0 Cs0 3.661509 1_544
Ag0 Cs2 3.661510 1_655
Ag0 Cs0 3.661510 1_454
Ag0 Cs1 3.918390 1_555
Ag0 Cs1 3.918390 1_554
