# generated using pymatgen
data_Na5Li(BeH3)6
_symmetry_space_group_name_H-M   'P 1'
_cell_length_a   6.32530621
_cell_length_b   6.32530681
_cell_length_c   8.91994253
_cell_angle_alpha   90.32682003
_cell_angle_beta   90.32682526
_cell_angle_gamma   119.51596343
_symmetry_Int_Tables_number   1
_chemical_formula_structural   Na5Li(BeH3)6
_chemical_formula_sum   'Na5 Li1 Be6 H18'
_cell_volume   310.54579094
_cell_formula_units_Z   1
loop_
 _symmetry_equiv_pos_site_id
 _symmetry_equiv_pos_as_xyz
  1  'x, y, z'
loop_
 _atom_site_type_symbol
 _atom_site_label
 _atom_site_symmetry_multiplicity
 _atom_site_fract_x
 _atom_site_fract_y
 _atom_site_fract_z
 _atom_site_occupancy
  Na  Na0  1  0.49578625  0.50421375  0.50000000  1
  Na  Na1  1  0.16898147  0.83101853  0.50000000  1
  Na  Na2  1  0.82470220  0.17529780  0.50000000  1
  Na  Na3  1  0.50553475  0.49446525  1.00000000  1
  Na  Na4  1  0.17915341  0.82084659  1.00000000  1
  Li  Li0  1  0.83620070  0.16379930  1.00000000  1
  Be  Be0  1  0.06724659  0.06984058  0.75644673  1
  Be  Be1  1  0.83542803  0.60045409  0.75047058  1
  Be  Be2  1  0.60932958  0.84254301  0.75642621  1
  Be  Be3  1  0.93015942  0.93275341  0.24355327  1
  Be  Be4  1  0.39954591  0.16457197  0.24952942  1
  Be  Be5  1  0.15745699  0.39067042  0.24357379  1
  H  H0  1  0.17853075  0.18031214  0.61966513  1
  H  H1  1  0.83383578  0.50076694  0.60869975  1
  H  H2  1  0.49052359  0.83776435  0.62062477  1
  H  H3  1  0.61602896  0.61717025  0.75578136  1
  H  H4  1  0.05545212  0.83443561  0.75577324  1
  H  H5  1  0.83721826  0.06390393  0.75308402  1
  H  H6  1  0.83610175  0.47561002  0.88228493  1
  H  H7  1  0.51343941  0.85300231  0.89670176  1
  H  H8  1  0.16734926  0.17503964  0.89750243  1
  H  H9  1  0.82496036  0.83265074  0.10249757  1
  H  H10  1  0.52438998  0.16389825  0.11771507  1
  H  H11  1  0.14699769  0.48656059  0.10329824  1
  H  H12  1  0.38282975  0.38397104  0.24421864  1
  H  H13  1  0.16556439  0.94454788  0.24422676  1
  H  H14  1  0.93609607  0.16278174  0.24691598  1
  H  H15  1  0.49923306  0.16616422  0.39130025  1
  H  H16  1  0.16223565  0.50947641  0.37937523  1
  H  H17  1  0.81968786  0.82146925  0.38033487  1
loop_
_geom_bond_atom_site_label_1
_geom_bond_atom_site_label_2
_geom_bond_distance
_geom_bond_site_symmetry_2
Be0 H8 1.411735 1_555
Be0 H0 1.416770 1_555
Be0 H5 1.437006 1_455
Be0 H4 1.453680 1_545
Be1 H1 1.407615 1_555
Be1 H6 1.421235 1_555
Be1 H3 1.443813 1_555
Be1 H4 1.448601 1_655
Be2 H7 1.408950 1_555
Be2 H2 1.414145 1_555
Be2 H5 1.432295 1_565
Be2 H3 1.446879 1_555
Be3 H9 1.411735 1_555
Be3 H17 1.416770 1_555
Be3 H14 1.437007 1_565
Be3 H13 1.453680 1_655
Be4 H15 1.407615 1_555
Be4 H10 1.421235 1_555
Be4 H12 1.443813 1_555
Be4 H13 1.448601 1_545
Be5 H11 1.408950 1_555
Be5 H16 1.414145 1_555
Be5 H14 1.432295 1_455
Be5 H12 1.446879 1_555
H0 Na0 2.315636 1_555
H0 Na1 2.421832 1_545
H0 Na2 2.460031 1_455
H1 Na2 2.245231 1_555
H1 Na1 2.341139 1_655
H1 Na0 2.352722 1_555
H2 Na1 2.277077 1_555
H2 Na0 2.377776 1_555
H2 Na2 2.406124 1_565
H3 Na3 2.310527 1_555
H3 Na0 2.391780 1_555
H4 Na4 2.326883 1_555
H4 Na1 2.398902 1_555
H5 Li0 2.288776 1_555
H5 Na2 2.381194 1_555
H6 Li0 2.239938 1_555
H6 Na3 2.399605 1_555
H6 Na4 2.420445 1_655
H7 Li0 2.210194 1_565
H7 Na4 2.227537 1_555
H7 Na3 2.430497 1_555
H8 Li0 2.259251 1_455
H8 Na3 2.278599 1_555
H8 Na4 2.459305 1_545
H9 Li0 2.259251 1_564
H9 Na3 2.278599 1_554
H9 Na4 2.459305 1_654
H10 Li0 2.239938 1_554
H10 Na3 2.399605 1_554
H10 Na4 2.420445 1_544
H11 Li0 2.210194 1_454
H11 Na4 2.227538 1_554
H11 Na3 2.430497 1_554
H12 Na3 2.310527 1_554
H12 Na0 2.391780 1_555
H13 Na4 2.326883 1_554
H13 Na1 2.398902 1_555
H14 Li0 2.288776 1_554
H14 Na2 2.381194 1_555
H15 Na2 2.245231 1_555
H15 Na1 2.341139 1_545
H15 Na0 2.352722 1_555
H16 Na1 2.277077 1_555
H16 Na0 2.377776 1_555
H16 Na2 2.406124 1_455
H17 Na0 2.315636 1_555
H17 Na1 2.421832 1_655
H17 Na2 2.460031 1_565
