# generated using pymatgen
data_Sr2AlPdI
_symmetry_space_group_name_H-M   'P 1'
_cell_length_a   4.42192215
_cell_length_b   4.42192188
_cell_length_c   18.49897161
_cell_angle_alpha   90.00000000
_cell_angle_beta   90.00000000
_cell_angle_gamma   120.00000941
_symmetry_Int_Tables_number   1
_chemical_formula_structural   Sr2AlPdI
_chemical_formula_sum   'Sr4 Al2 Pd2 I2'
_cell_volume   313.25667515
_cell_formula_units_Z   2
loop_
 _symmetry_equiv_pos_site_id
 _symmetry_equiv_pos_as_xyz
  1  'x, y, z'
loop_
 _atom_site_type_symbol
 _atom_site_label
 _atom_site_symmetry_multiplicity
 _atom_site_fract_x
 _atom_site_fract_y
 _atom_site_fract_z
 _atom_site_occupancy
  Sr  Sr0  1  0.00000000  0.00000000  0.38617665  1
  Sr  Sr1  1  0.00000000  0.00000000  0.88617665  1
  Sr  Sr2  1  0.00000000  0.00000000  0.61473087  1
  Sr  Sr3  1  0.00000000  0.00000000  0.11473087  1
  Al  Al0  1  0.33333300  0.66666700  0.50145967  1
  Al  Al1  1  0.66666700  0.33333300  0.00145967  1
  Pd  Pd0  1  0.66666700  0.33333300  0.49807059  1
  Pd  Pd1  1  0.33333300  0.66666700  0.99807059  1
  I  I0  1  0.33333300  0.66666700  0.24956322  1
  I  I1  1  0.66666700  0.33333300  0.74956322  1
loop_
_geom_bond_atom_site_label_1
_geom_bond_atom_site_label_2
_geom_bond_distance
_geom_bond_site_symmetry_2
Al0 Pd0 2.553765 1_565
Al0 Pd0 2.553765 1_455
Al0 Pd0 2.553773 1_555
Al0 Sr2 3.302800 1_565
Al0 Sr2 3.302803 1_555
Al0 Sr2 3.302803 1_665
Al0 Sr0 3.326536 1_565
Al0 Sr0 3.326539 1_555
Al0 Sr0 3.326539 1_665
Al1 Pd1 2.553765 1_544
Al1 Pd1 2.553765 1_654
Al1 Pd1 2.553773 1_554
Al1 Sr3 3.302800 1_655
Al1 Sr3 3.302803 1_665
Al1 Sr3 3.302803 1_555
Al1 Sr1 3.326536 1_654
Al1 Sr1 3.326539 1_664
Al1 Sr1 3.326539 1_554
Pd0 Sr0 3.286695 1_655
Pd0 Sr0 3.286698 1_665
Pd0 Sr0 3.286698 1_555
Pd0 Sr2 3.342927 1_655
Pd0 Sr2 3.342930 1_665
Pd0 Sr2 3.342930 1_555
Pd1 Sr1 3.286695 1_565
Pd1 Sr1 3.286698 1_555
Pd1 Sr1 3.286698 1_665
Pd1 Sr3 3.342927 1_566
Pd1 Sr3 3.342930 1_556
Pd1 Sr3 3.342930 1_666
I0 Sr3 3.569190 1_565
I0 Sr3 3.569192 1_555
I0 Sr3 3.569193 1_665
I0 Sr0 3.592293 1_565
I0 Sr0 3.592295 1_555
I0 Sr0 3.592295 1_665
I1 Sr2 3.569190 1_655
I1 Sr2 3.569192 1_665
I1 Sr2 3.569193 1_555
I1 Sr1 3.592293 1_655
I1 Sr1 3.592295 1_665
I1 Sr1 3.592295 1_555
