# generated using pymatgen
data_Ti6MnSi6Tc5
_symmetry_space_group_name_H-M   'P 1'
_cell_length_a   7.46600617
_cell_length_b   7.46607166
_cell_length_c   7.46607164
_cell_angle_alpha   126.60355855
_cell_angle_beta   128.96663394
_cell_angle_gamma   76.98895050
_symmetry_Int_Tables_number   1
_chemical_formula_structural   Ti6MnSi6Tc5
_chemical_formula_sum   'Ti6 Mn1 Si6 Tc5'
_cell_volume   252.16665382
_cell_formula_units_Z   1
loop_
 _symmetry_equiv_pos_site_id
 _symmetry_equiv_pos_as_xyz
  1  'x, y, z'
loop_
 _atom_site_type_symbol
 _atom_site_label
 _atom_site_symmetry_multiplicity
 _atom_site_fract_x
 _atom_site_fract_y
 _atom_site_fract_z
 _atom_site_occupancy
  Ti  Ti0  1  0.45121291  0.40456405  0.45295460  1
  Ti  Ti1  1  0.54878709  0.00174169  0.95335014  1
  Ti  Ti2  1  0.04825230  0.00174132  0.45292986  1
  Ti  Ti3  1  0.95174770  0.40467656  0.95348902  1
  Ti  Ti4  1  0.25071759  0.59963664  0.85041166  1
  Ti  Ti5  1  0.74928241  0.59969507  0.34892005  1
  Mn  Mn0  1  0.50000000  0.26497874  0.76497874  1
  Si  Si0  1  0.16665937  0.66987886  0.50333442  1
  Si  Si1  1  0.83334063  0.33667504  0.50322049  1
  Si  Si2  1  0.66448117  0.66332354  0.99872806  1
  Si  Si3  1  0.33551883  0.33424689  0.99884437  1
  Si  Si4  1  0.25472066  0.00987582  0.26464376  1
  Si  Si5  1  0.74527934  0.00992310  0.75515516  1
  Tc  Tc0  1  0.36963573  0.74279310  0.37314980  1
  Tc  Tc1  1  0.63036427  0.00351408  0.37315737  1
  Tc  Tc2  1  0.87015738  0.74379605  0.87355217  1
  Tc  Tc3  1  0.12984262  0.00339478  0.87363966  1
  Tc  Tc4  1  0.00000000  0.26554267  0.26554267  1
loop_
_geom_bond_atom_site_label_1
_geom_bond_atom_site_label_2
_geom_bond_distance
_geom_bond_site_symmetry_2
Mn0 Si5 2.327502 1_555
Mn0 Si4 2.327502 1_555
Mn0 Si2 2.481558 1_555
Mn0 Si3 2.481571 1_555
Mn0 Ti4 2.759026 1_555
Mn0 Ti5 2.759032 1_556
Si0 Tc4 2.516907 1_555
Si0 Tc3 2.521382 1_565
Si0 Tc0 2.528363 1_555
Si0 Ti1 2.601205 1_565
Si0 Ti2 2.601812 1_565
Si0 Ti3 2.607690 1_454
Si0 Ti0 2.607739 1_555
Si0 Ti5 2.609675 1_455
Si0 Ti4 2.609749 1_555
Si1 Tc4 2.516914 1_655
Si1 Tc2 2.521376 1_555
Si1 Tc1 2.528359 1_555
Si1 Ti0 2.601202 1_555
Si1 Ti3 2.601809 1_555
Si1 Ti2 2.607690 1_655
Si1 Ti1 2.607747 1_554
Si1 Ti4 2.609675 1_655
Si1 Ti5 2.609756 1_555
Si2 Tc1 2.543157 1_566
Si2 Tc2 2.546064 1_555
Si2 Ti0 2.590040 1_555
Si2 Ti3 2.590639 1_555
Si2 Ti5 2.593500 1_556
Si2 Ti4 2.593510 1_555
Si2 Ti2 2.629529 1_666
Si2 Ti1 2.629626 1_565
Si3 Tc0 2.543152 1_556
Si3 Tc3 2.546060 1_555
Si3 Ti1 2.590039 1_555
Si3 Ti2 2.590643 1_555
Si3 Ti4 2.593509 1_555
Si3 Ti5 2.593515 1_556
Si3 Ti3 2.629522 1_455
Si3 Ti0 2.629608 1_556
Si4 Tc4 2.372029 1_555
Si4 Tc0 2.377096 1_545
Si4 Tc1 2.377456 1_555
Si4 Tc3 2.412949 1_554
Si4 Tc2 2.412960 1_444
Si4 Ti0 2.687739 1_555
Si4 Ti2 2.688027 1_555
Si4 Ti4 2.752332 1_544
Si5 Tc4 2.372029 1_656
Si5 Tc1 2.377096 1_555
Si5 Tc0 2.377456 1_545
Si5 Tc2 2.412956 1_545
Si5 Tc3 2.412957 1_655
Si5 Ti1 2.687732 1_555
Si5 Ti3 2.688020 1_555
Si5 Ti5 2.752325 1_545
Tc0 Ti3 2.782573 1_454
Tc0 Ti0 2.783555 1_555
Tc0 Ti1 2.860261 1_565
Tc0 Ti2 2.861009 1_565
Tc0 Ti4 2.873508 1_554
Tc0 Ti5 2.873865 1_555
Tc1 Ti2 2.782569 1_655
Tc1 Ti1 2.783562 1_554
Tc1 Ti0 2.860267 1_555
Tc1 Ti3 2.861006 1_555
Tc1 Ti5 2.873504 1_545
Tc1 Ti4 2.873869 1_544
Tc2 Ti0 2.790670 1_555
Tc2 Ti3 2.790704 1_555
Tc2 Ti1 2.858266 1_565
Tc2 Ti2 2.858788 1_666
Tc2 Ti4 2.877452 1_655
Tc2 Ti5 2.877512 1_555
Tc3 Ti1 2.790677 1_555
Tc3 Ti2 2.790704 1_555
Tc3 Ti0 2.858266 1_556
Tc3 Ti3 2.858783 1_455
Tc3 Ti5 2.877449 1_445
Tc3 Ti4 2.877513 1_545
Tc4 Ti4 2.761545 1_555
Tc4 Ti5 2.761550 1_455
Tc4 Ti1 2.880557 1_454
Tc4 Ti0 2.880559 1_555
Tc4 Ti3 2.880784 1_454
Tc4 Ti2 2.880791 1_555
