# generated using pymatgen
data_Y16In3AgRh4
_symmetry_space_group_name_H-M   'P 1'
_cell_length_a   9.64729571
_cell_length_b   9.64729567
_cell_length_c   9.63379234
_cell_angle_alpha   59.95361536
_cell_angle_beta   59.95361737
_cell_angle_gamma   59.99999947
_symmetry_Int_Tables_number   1
_chemical_formula_structural   Y16In3AgRh4
_chemical_formula_sum   'Y16 In3 Ag1 Rh4'
_cell_volume   633.56127706
_cell_formula_units_Z   1
loop_
 _symmetry_equiv_pos_site_id
 _symmetry_equiv_pos_as_xyz
  1  'x, y, z'
loop_
 _atom_site_type_symbol
 _atom_site_label
 _atom_site_symmetry_multiplicity
 _atom_site_fract_x
 _atom_site_fract_y
 _atom_site_fract_z
 _atom_site_occupancy
  Y  Y0  1  0.68949963  0.31071640  0.31028435  1
  Y  Y1  1  0.68949963  0.68949963  0.31028435  1
  Y  Y2  1  0.31071640  0.68949963  0.31028435  1
  Y  Y3  1  0.93824182  0.93824182  0.55656608  1
  Y  Y4  1  0.14983497  0.14983497  0.55049610  1
  Y  Y5  1  0.56694929  0.93824182  0.55656608  1
  Y  Y6  1  0.15024927  0.15024927  0.14975102  1
  Y  Y7  1  0.30843684  0.30843684  0.69147666  1
  Y  Y8  1  0.93824182  0.56694929  0.55656608  1
  Y  Y9  1  0.56266487  0.56266487  0.93689606  1
  Y  Y10  1  0.56266487  0.93777320  0.93689606  1
  Y  Y11  1  0.93777320  0.56266487  0.93689606  1
  Y  Y12  1  0.15024927  0.54975044  0.14975102  1
  Y  Y13  1  0.30843684  0.69164967  0.69147666  1
  Y  Y14  1  0.69164967  0.30843684  0.69147666  1
  Y  Y15  1  0.54975044  0.15024927  0.14975102  1
  In  In0  1  0.24584695  0.91668373  0.92078558  1
  In  In1  1  0.91668373  0.24584695  0.92078558  1
  In  In2  1  0.91668373  0.91668373  0.92078558  1
  Ag  Ag0  1  0.91658293  0.91658293  0.25025221  1
  Rh  Rh0  1  0.35770739  0.35770739  0.35840143  1
  Rh  Rh1  1  0.92618479  0.35770739  0.35840143  1
  Rh  Rh2  1  0.35774528  0.35774528  0.92676616  1
  Rh  Rh3  1  0.35770739  0.92618479  0.35840143  1
loop_
_geom_bond_atom_site_label_1
_geom_bond_atom_site_label_2
_geom_bond_distance
_geom_bond_site_symmetry_2
Y0 Y3 3.583445 1_545
Y0 Y5 3.583450 1_545
Y0 Y11 3.608677 1_554
Y0 Y9 3.608682 1_554
Y1 Y8 3.583442 1_555
Y1 Y5 3.583442 1_555
Y1 Y10 3.608683 1_554
Y1 Y11 3.608683 1_554
Y2 Y3 3.583445 1_455
Y2 Y8 3.583450 1_455
Y2 Y9 3.608683 1_554
Y3 Y6 3.443170 1_665
Y3 Y4 3.502154 1_665
Y3 Y8 3.581969 1_555
Y3 Y5 3.581969 1_555
Y4 Y8 3.502138 1_455
Y4 Y5 3.502138 1_545
Y5 Y8 3.581969 1_555
Y5 Y7 3.627564 1_565
Y5 Y9 3.641251 1_555
Y7 Y8 3.627564 1_455
Y8 Y9 3.641251 1_555
Y10 Y6 3.481412 1_566
Y10 Y15 3.481418 1_566
Y10 Y7 3.600354 1_565
Y10 Y14 3.600359 1_565
Y10 Y2 3.608677 1_556
Y10 Y11 3.618781 1_555
Y10 Y9 3.618781 1_555
Y10 Y3 3.641251 1_555
Y10 Y5 3.641252 1_555
Y11 Y6 3.481412 1_656
Y11 Y12 3.481418 1_656
Y11 Y7 3.600354 1_655
Y11 Y13 3.600359 1_655
Y11 Y9 3.618781 1_555
Y11 Y3 3.641251 1_555
Y11 Y8 3.641252 1_555
Y12 Y8 3.443167 1_455
Y12 Y9 3.481409 1_554
Y13 Y9 3.600351 1_555
Y13 Y5 3.627556 1_555
Y13 Y3 3.627565 1_455
Y14 Y9 3.600351 1_555
Y14 Y8 3.627556 1_555
Y14 Y3 3.627565 1_545
Y15 Y5 3.443167 1_545
Y15 Y9 3.481409 1_554
In0 In1 3.175535 1_465
In0 In2 3.175535 1_455
In0 Y10 3.245889 1_555
In0 Y9 3.245895 1_555
In0 Y5 3.313603 1_555
In0 Y12 3.413995 1_556
In0 Y6 3.413996 1_566
In0 Y4 3.439934 1_565
In0 Y2 3.466950 1_556
In0 Y7 3.480499 1_565
In0 Y13 3.480500 1_555
In1 In2 3.175535 1_545
In1 Y11 3.245889 1_555
In1 Y9 3.245895 1_555
In1 Y8 3.313603 1_555
In1 Y15 3.413995 1_556
In1 Y6 3.413996 1_656
In1 Y4 3.439934 1_655
In1 Y0 3.466950 1_556
In1 Y7 3.480500 1_655
In1 Y14 3.480500 1_555
In2 Y11 3.245899 1_555
In2 Y10 3.245899 1_555
In2 Y3 3.313607 1_555
In2 Y12 3.413996 1_656
In2 Y15 3.413996 1_566
In2 Y4 3.439938 1_665
In2 Y1 3.466949 1_556
In2 Y14 3.480500 1_565
In2 Y13 3.480500 1_655
Ag0 In1 3.173034 1_564
Ag0 In0 3.173034 1_654
Ag0 In2 3.173039 1_554
Ag0 Y3 3.173973 1_555
Ag0 Y8 3.173983 1_555
Ag0 Y5 3.173984 1_555
Ag0 Y6 3.436721 1_665
Ag0 Y15 3.436729 1_565
Ag0 Y12 3.436729 1_655
Ag0 Y2 3.492122 1_655
Ag0 Y0 3.492122 1_565
Ag0 Y1 3.492130 1_555
Rh0 Y7 2.814133 1_555
Rh0 Y2 2.817736 1_555
Rh0 Y0 2.817737 1_555
Rh0 Y4 2.838463 1_555
Rh0 Y12 2.840765 1_555
Rh0 Y15 2.840765 1_555
Rh0 Y5 3.471207 1_545
Rh0 Y8 3.471207 1_455
Rh0 Y9 3.483877 1_554
Rh1 Y14 2.814136 1_555
Rh1 Y1 2.817740 1_555
Rh1 Y0 2.817746 1_555
Rh1 Y4 2.838463 1_655
Rh1 Y12 2.840758 1_655
Rh1 Y6 2.840765 1_655
Rh1 Y8 3.471196 1_555
Rh1 Y3 3.471212 1_545
Rh1 Y11 3.483882 1_554
Rh2 Y13 2.824253 1_555
Rh2 Y14 2.824253 1_555
Rh2 Y7 2.824266 1_555
Rh2 Y15 2.832581 1_556
Rh2 Y12 2.832581 1_556
Rh2 Y6 2.832594 1_556
Rh2 Y9 3.481459 1_555
Rh2 Y10 3.481484 1_545
Rh2 Y11 3.481484 1_455
Rh3 Y13 2.814136 1_555
Rh3 Y1 2.817740 1_555
Rh3 Y2 2.817746 1_555
Rh3 Y4 2.838463 1_565
Rh3 Y15 2.840758 1_565
Rh3 Y6 2.840765 1_565
Rh3 Y5 3.471195 1_555
Rh3 Y3 3.471212 1_455
Rh3 Y10 3.483883 1_554
