# generated using pymatgen
data_Mg(GaO2)2
_symmetry_space_group_name_H-M   'P 1'
_cell_length_a   5.93148303
_cell_length_b   5.93148303
_cell_length_c   14.49515608
_cell_angle_alpha   89.92184454
_cell_angle_beta   89.92184454
_cell_angle_gamma   60.55932405
_symmetry_Int_Tables_number   1
_chemical_formula_structural   Mg(GaO2)2
_chemical_formula_sum   'Mg6 Ga12 O24'
_cell_volume   444.11947496
_cell_formula_units_Z   6
loop_
 _symmetry_equiv_pos_site_id
 _symmetry_equiv_pos_as_xyz
  1  'x, y, z'
loop_
 _atom_site_type_symbol
 _atom_site_label
 _atom_site_symmetry_multiplicity
 _atom_site_fract_x
 _atom_site_fract_y
 _atom_site_fract_z
 _atom_site_occupancy
  Mg  Mg0  1  0.33830600  0.33830600  0.04132200  1
  Mg  Mg1  1  0.83441500  0.83441500  0.16764900  1
  Mg  Mg2  1  0.49988500  0.49988500  0.49982000  1
  Mg  Mg3  1  0.66634900  0.66634900  0.33305000  1
  Mg  Mg4  1  0.16734200  0.16734200  0.83201100  1
  Mg  Mg5  1  0.33303400  0.33303400  0.66617700  1
  Ga  Ga0  1  0.00634400  0.00634400  0.37954500  1
  Ga  Ga1  1  0.83526400  0.32886400  0.16754900  1
  Ga  Ga2  1  0.99963900  0.99963900  0.00446300  1
  Ga  Ga3  1  0.32886400  0.83526400  0.16754900  1
  Ga  Ga4  1  0.50023500  0.99947100  0.49970400  1
  Ga  Ga5  1  0.67325200  0.67325200  0.70902700  1
  Ga  Ga6  1  0.99947100  0.50023500  0.49970400  1
  Ga  Ga7  1  0.16854900  0.66184200  0.83169100  1
  Ga  Ga8  1  0.32673100  0.32673100  0.28851200  1
  Ga  Ga9  1  0.66184200  0.16854900  0.83169100  1
  Ga  Ga10  1  0.99326200  0.99326200  0.62165300  1
  Ga  Ga11  1  0.65962300  0.65962300  0.95913300  1
  O  O0  1  0.69871800  0.15919200  0.08642900  1
  O  O1  1  0.15919200  0.69871800  0.08642900  1
  O  O2  1  0.00313300  0.00313300  0.24844700  1
  O  O3  1  0.15421800  0.15421800  0.08784900  1
  O  O4  1  0.35115000  0.83171000  0.42086900  1
  O  O5  1  0.50454200  0.50454200  0.24494500  1
  O  O6  1  0.50057600  0.98326200  0.24554700  1
  O  O7  1  0.67060000  0.67060000  0.57714500  1
  O  O8  1  0.83171000  0.35115000  0.42086900  1
  O  O9  1  0.66332600  0.66332600  0.08941200  1
  O  O10  1  0.82761000  0.82761000  0.42125700  1
  O  O11  1  0.98326200  0.50057600  0.24554700  1
  O  O12  1  0.01381600  0.49919900  0.75287600  1
  O  O13  1  0.17159900  0.17159900  0.57920100  1
  O  O14  1  0.16795900  0.64919600  0.57943600  1
  O  O15  1  0.49919900  0.01381600  0.75287600  1
  O  O16  1  0.33977400  0.33977400  0.90321600  1
  O  O17  1  0.32930100  0.32930100  0.42167800  1
  O  O18  1  0.49696700  0.49696700  0.75295400  1
  O  O19  1  0.64919600  0.16795900  0.57943600  1
  O  O20  1  0.84076700  0.84076700  0.91545300  1
  O  O21  1  0.83952200  0.31042200  0.91572100  1
  O  O22  1  0.99485000  0.99485000  0.75608600  1
  O  O23  1  0.31042200  0.83952200  0.91572100  1
loop_
_geom_bond_atom_site_label_1
_geom_bond_atom_site_label_2
_geom_bond_distance
_geom_bond_site_symmetry_2
Mg0 O1 1.973712 1_555
Mg0 O0 1.973712 1_555
Mg0 O3 2.001858 1_555
Mg0 O16 2.001901 1_554
Mg1 O1 2.053551 1_655
Mg1 O0 2.053551 1_565
Mg1 O11 2.062400 1_555
Mg1 O6 2.062400 1_555
Mg1 O9 2.089122 1_555
Mg1 O2 2.089393 1_665
Mg2 O4 2.061917 1_555
Mg2 O8 2.061917 1_555
Mg2 O19 2.067584 1_555
Mg2 O14 2.067584 1_555
Mg2 O7 2.078730 1_555
Mg2 O17 2.084029 1_555
Mg3 O4 2.066900 1_555
Mg3 O8 2.066900 1_555
Mg3 O6 2.070994 1_555
Mg3 O11 2.070994 1_555
Mg3 O10 2.090618 1_555
Mg3 O5 2.094143 1_555
Mg4 O16 2.047323 1_555
Mg4 O15 2.062580 1_555
Mg4 O12 2.062580 1_555
Mg4 O22 2.083266 1_445
Mg4 O21 2.085095 1_455
Mg4 O23 2.085095 1_545
Mg5 O19 2.061125 1_555
Mg5 O14 2.061125 1_555
Mg5 O15 2.073210 1_555
Mg5 O12 2.073210 1_555
Mg5 O13 2.081149 1_555
Mg5 O18 2.099834 1_555
Ga0 O8 1.879816 1_455
Ga0 O4 1.879816 1_545
Ga0 O2 1.900623 1_555
Ga0 O10 1.927386 1_445
Ga1 O0 1.964321 1_555
Ga1 O11 1.992736 1_555
Ga1 O3 2.014359 1_655
Ga1 O5 2.044577 1_555
Ga1 O2 2.050665 1_655
Ga1 O9 2.065592 1_555
Ga2 O1 1.957003 1_655
Ga2 O0 1.957003 1_565
Ga2 O3 1.993678 1_665
Ga2 O21 2.056838 1_564
Ga2 O23 2.056838 1_654
Ga2 O20 2.078528 1_554
Ga3 O1 1.964321 1_555
Ga3 O6 1.992736 1_555
Ga3 O3 2.014359 1_565
Ga3 O5 2.044577 1_555
Ga3 O2 2.050665 1_565
Ga3 O9 2.065592 1_555
Ga4 O4 1.987170 1_555
Ga4 O19 1.997281 1_565
Ga4 O7 2.036107 1_555
Ga4 O10 2.038148 1_555
Ga4 O17 2.044927 1_565
Ga4 O13 2.051985 1_565
Ga5 O15 1.871366 1_565
Ga5 O12 1.871366 1_655
Ga5 O7 1.911886 1_555
Ga5 O18 1.913972 1_555
Ga6 O8 1.987170 1_555
Ga6 O14 1.997281 1_655
Ga6 O7 2.036107 1_555
Ga6 O10 2.038148 1_555
Ga6 O17 2.044927 1_655
Ga6 O13 2.051985 1_655
Ga7 O16 1.961111 1_555
Ga7 O12 1.988579 1_555
Ga7 O22 2.039771 1_455
Ga7 O18 2.043996 1_555
Ga7 O23 2.044652 1_555
Ga7 O20 2.085471 1_455
Ga8 O6 1.881018 1_545
Ga8 O11 1.881018 1_455
Ga8 O5 1.927013 1_555
Ga8 O17 1.930483 1_555
Ga9 O16 1.961111 1_555
Ga9 O15 1.988579 1_555
Ga9 O22 2.039771 1_545
Ga9 O18 2.043996 1_555
Ga9 O21 2.044652 1_555
Ga9 O20 2.085471 1_545
Ga10 O19 1.880418 1_565
Ga10 O14 1.880418 1_655
Ga10 O13 1.926907 1_665
Ga10 O22 1.948721 1_555
Ga11 O9 1.888855 1_556
Ga11 O21 1.911494 1_555
Ga11 O23 1.911494 1_555
Ga11 O20 1.959830 1_555
