# generated using pymatgen
data_Li6Ca4MgCd
_symmetry_space_group_name_H-M   'P 1'
_cell_length_a   6.08026838
_cell_length_b   6.08026753
_cell_length_c   10.07387577
_cell_angle_alpha   90.00000000
_cell_angle_beta   90.00000000
_cell_angle_gamma   120.00000464
_symmetry_Int_Tables_number   1
_chemical_formula_structural   Li6Ca4MgCd
_chemical_formula_sum   'Li6 Ca4 Mg1 Cd1'
_cell_volume   322.53187427
_cell_formula_units_Z   1
loop_
 _symmetry_equiv_pos_site_id
 _symmetry_equiv_pos_as_xyz
  1  'x, y, z'
loop_
 _atom_site_type_symbol
 _atom_site_label
 _atom_site_symmetry_multiplicity
 _atom_site_fract_x
 _atom_site_fract_y
 _atom_site_fract_z
 _atom_site_occupancy
  Li  Li0  1  0.83626607  0.16373393  0.25411692  1
  Li  Li1  1  0.83626607  0.67253114  0.25411692  1
  Li  Li2  1  0.32746886  0.16373393  0.25411692  1
  Li  Li3  1  0.16373393  0.83626607  0.74588308  1
  Li  Li4  1  0.16373393  0.32746886  0.74588308  1
  Li  Li5  1  0.67253114  0.83626607  0.74588308  1
  Ca  Ca0  1  0.33333300  0.66666700  0.44115576  1
  Ca  Ca1  1  0.66666700  0.33333300  0.55884424  1
  Ca  Ca2  1  0.66666700  0.33333300  0.94080517  1
  Ca  Ca3  1  0.33333300  0.66666700  0.05919483  1
  Mg  Mg0  1  0.00000000  0.00000000  0.00000000  1
  Cd  Cd0  1  0.00000000  0.00000000  0.50000000  1
loop_
_geom_bond_atom_site_label_1
_geom_bond_atom_site_label_2
_geom_bond_distance
_geom_bond_site_symmetry_2
Li0 Li1 2.986644 1_545
Li0 Li2 2.986645 1_655
Li0 Mg0 3.086526 1_655
Li0 Li1 3.093623 1_555
Li0 Li2 3.093624 1_555
Li1 Li2 2.986644 1_665
Li1 Mg0 3.086529 1_665
Li1 Li2 3.093623 1_555
Li2 Mg0 3.086529 1_555
Li3 Li4 2.986644 1_565
Li3 Li5 2.986645 1_455
Li3 Mg0 3.086526 1_566
Li3 Li4 3.093623 1_555
Li3 Li5 3.093624 1_555
Li4 Li5 2.986644 1_445
Li4 Mg0 3.086529 1_556
Li4 Li5 3.093623 1_555
Li5 Mg0 3.086529 1_666
Ca0 Li4 3.551584 1_555
Ca0 Li5 3.551584 1_555
Ca0 Li3 3.551584 1_555
Ca0 Cd0 3.560140 1_565
Ca0 Cd0 3.560144 1_555
Ca0 Cd0 3.560145 1_665
Ca0 Li2 3.576809 1_565
Ca0 Li1 3.576809 1_455
Ca0 Li0 3.576814 1_455
Ca0 Li0 3.576814 1_565
Ca0 Li2 3.576819 1_555
Ca0 Li1 3.576820 1_555
Ca0 Ca1 3.705238 1_565
Ca0 Ca1 3.705239 1_455
Ca0 Ca1 3.705249 1_555
Ca0 Ca3 3.847827 1_555
Ca1 Li1 3.551584 1_555
Ca1 Li2 3.551584 1_555
Ca1 Li0 3.551584 1_555
Ca1 Cd0 3.560140 1_655
Ca1 Cd0 3.560144 1_665
Ca1 Cd0 3.560145 1_555
Ca1 Li5 3.576809 1_545
Ca1 Li4 3.576809 1_655
Ca1 Li3 3.576814 1_655
Ca1 Li3 3.576814 1_545
Ca1 Li5 3.576819 1_555
Ca1 Li4 3.576820 1_555
Ca1 Ca2 3.847827 1_555
Ca2 Mg0 3.560729 1_656
Ca2 Mg0 3.560734 1_666
Ca2 Mg0 3.560735 1_556
Ca2 Li5 3.619273 1_545
Ca2 Li4 3.619273 1_655
Ca2 Li3 3.619278 1_655
Ca2 Li3 3.619278 1_545
Ca2 Li5 3.619283 1_555
Ca2 Li4 3.619284 1_555
Ca2 Li1 3.626592 1_556
Ca2 Li2 3.626592 1_556
Ca2 Li0 3.626592 1_556
Ca2 Ca3 3.707504 1_546
Ca2 Ca3 3.707505 1_656
Ca2 Ca3 3.707515 1_556
Ca3 Mg0 3.560729 1_565
Ca3 Mg0 3.560734 1_555
Ca3 Mg0 3.560735 1_665
Ca3 Li2 3.619273 1_565
Ca3 Li1 3.619273 1_455
Ca3 Li0 3.619278 1_455
Ca3 Li0 3.619278 1_565
Ca3 Li2 3.619283 1_555
Ca3 Li1 3.619284 1_555
Ca3 Li4 3.626592 1_554
Ca3 Li5 3.626592 1_554
Ca3 Li3 3.626592 1_554
Cd0 Li3 3.018086 1_545
Cd0 Li0 3.018086 1_455
Cd0 Li4 3.018089 1_555
Cd0 Li1 3.018089 1_445
Cd0 Li5 3.018089 1_445
Cd0 Li2 3.018089 1_555
