# generated using pymatgen
data_Tc2Te4W
_symmetry_space_group_name_H-M   'P 1'
_cell_length_a   7.12291741
_cell_length_b   7.16718273
_cell_length_c   7.11993534
_cell_angle_alpha   93.56999679
_cell_angle_beta   94.01977922
_cell_angle_gamma   94.14278353
_symmetry_Int_Tables_number   1
_chemical_formula_structural   Tc2Te4W
_chemical_formula_sum   'Tc4 Te8 W2'
_cell_volume   360.81091852
_cell_formula_units_Z   2
loop_
 _symmetry_equiv_pos_site_id
 _symmetry_equiv_pos_as_xyz
  1  'x, y, z'
loop_
 _atom_site_type_symbol
 _atom_site_label
 _atom_site_symmetry_multiplicity
 _atom_site_fract_x
 _atom_site_fract_y
 _atom_site_fract_z
 _atom_site_occupancy
  Tc  Tc0  1  0.04578479  0.75146124  0.91156701  1
  Tc  Tc1  1  0.08644313  0.95249965  0.25158180  1
  Tc  Tc2  1  0.25008397  0.08774302  0.95530249  1
  Tc  Tc3  1  0.95302675  0.25015106  0.08888977  1
  Te  Te0  1  0.71007293  0.70620685  0.70562105  1
  Te  Te1  1  0.28602968  0.28442517  0.28803299  1
  Te  Te2  1  0.77629425  0.11722325  0.38069744  1
  Te  Te3  1  0.37626182  0.77813641  0.11957507  1
  Te  Te4  1  0.12072719  0.38501406  0.77920688  1
  Te  Te5  1  0.23188484  0.87999441  0.61943743  1
  Te  Te6  1  0.61562693  0.23270650  0.87968057  1
  Te  Te7  1  0.88260564  0.61545010  0.22321225  1
  W  W0  1  0.91305713  0.04660689  0.75491530  1
  W  W1  1  0.75210096  0.91238137  0.04227995  1
loop_
_geom_bond_atom_site_label_1
_geom_bond_atom_site_label_2
_geom_bond_distance
_geom_bond_site_symmetry_2
Tc0 W0 2.654713 1_465
Tc0 W1 2.657104 1_456
Tc0 Te3 2.679924 1_556
Tc0 Te0 2.703790 1_455
Tc0 Tc2 2.712908 1_565
Tc0 Te5 2.716745 1_555
Tc0 Tc1 2.725378 1_556
Tc0 Te7 2.773442 1_456
Tc0 Te4 2.834760 1_555
Tc1 Te1 2.670327 1_565
Tc1 Tc2 2.680349 1_564
Tc1 Te3 2.684243 1_555
Tc1 Tc3 2.691148 1_465
Tc1 W1 2.706484 1_455
Tc1 Te7 2.715843 1_455
Tc1 Te2 2.765094 1_465
Tc1 Te5 2.840753 1_555
Tc2 Te1 2.666808 1_556
Tc2 Tc3 2.690130 1_456
Tc2 W0 2.692698 1_455
Tc2 Te4 2.723004 1_555
Tc2 Te5 2.727189 1_545
Tc2 Te3 2.750224 1_546
Tc2 Te6 2.832694 1_555
Tc3 Te1 2.664174 1_655
Tc3 Te2 2.692383 1_555
Tc3 W0 2.697523 1_554
Tc3 W1 2.711405 1_545
Tc3 Te6 2.727933 1_554
Tc3 Te4 2.773212 1_654
Tc3 Te7 2.822448 1_555
Te0 W1 2.722705 1_556
Te0 W0 2.734662 1_565
Te2 W1 2.730487 1_545
Te2 W0 2.859977 1_555
Te3 W1 2.880221 1_555
Te4 W0 2.737555 1_455
Te5 W0 2.840648 1_465
Te6 W0 2.753377 1_555
Te6 W1 2.837557 1_546
Te7 W1 2.740814 1_555
W0 W1 2.615477 1_546
