# generated using pymatgen
data_Be8ReMo2Os
_symmetry_space_group_name_H-M   'P 1'
_cell_length_a   4.38777001
_cell_length_b   4.38777145
_cell_length_c   7.17313265
_cell_angle_alpha   90.00000000
_cell_angle_beta   90.00000000
_cell_angle_gamma   120.00000411
_symmetry_Int_Tables_number   1
_chemical_formula_structural   Be8ReMo2Os
_chemical_formula_sum   'Be8 Re1 Mo2 Os1'
_cell_volume   119.59893950
_cell_formula_units_Z   1
loop_
 _symmetry_equiv_pos_site_id
 _symmetry_equiv_pos_as_xyz
  1  'x, y, z'
loop_
 _atom_site_type_symbol
 _atom_site_label
 _atom_site_symmetry_multiplicity
 _atom_site_fract_x
 _atom_site_fract_y
 _atom_site_fract_z
 _atom_site_occupancy
  Be  Be0  1  0.00000000  0.00000000  0.00082058  1
  Be  Be1  1  0.00000000  0.00000000  0.50260454  1
  Be  Be2  1  0.83109227  0.66218554  0.24929413  1
  Be  Be3  1  0.16924683  0.83075317  0.75079751  1
  Be  Be4  1  0.66150735  0.83075317  0.75079751  1
  Be  Be5  1  0.33781446  0.16890773  0.24929413  1
  Be  Be6  1  0.83109227  0.16890773  0.24929413  1
  Be  Be7  1  0.16924683  0.33849265  0.75079751  1
  Re  Re0  1  0.33333300  0.66666700  0.43687824  1
  Mo  Mo0  1  0.33333300  0.66666700  0.06237822  1
  Mo  Mo1  1  0.66666700  0.33333300  0.56055293  1
  Os  Os0  1  0.66666700  0.33333300  0.93649156  1
loop_
_geom_bond_atom_site_label_1
_geom_bond_atom_site_label_2
_geom_bond_distance
_geom_bond_site_symmetry_2
Be0 Be5 2.196478 1_555
Be0 Be2 2.196479 1_445
Be0 Be6 2.196481 1_455
Be0 Be4 2.207008 1_444
Be0 Be7 2.207008 1_554
Be0 Be3 2.207010 1_544
Be0 Mo0 2.571473 1_545
Be0 Mo0 2.571476 1_445
Be0 Mo0 2.571477 1_555
Be0 Os0 2.574961 1_454
Be0 Os0 2.574964 1_554
Be0 Os0 2.574965 1_444
Be1 Be4 2.196354 1_445
Be1 Be7 2.196354 1_555
Be1 Be3 2.196356 1_545
Be1 Be5 2.224724 1_555
Be1 Be2 2.224725 1_445
Be1 Be6 2.224727 1_455
Be1 Mo1 2.567154 1_455
Be1 Mo1 2.567157 1_555
Be1 Mo1 2.567158 1_445
Be1 Re0 2.576776 1_545
Be1 Re0 2.576779 1_445
Be1 Re0 2.576780 1_555
Be2 Be5 2.164390 1_555
Be2 Be6 2.164390 1_555
Be2 Be5 2.223381 1_665
Be2 Be6 2.223381 1_565
Be2 Mo1 2.558610 1_555
Be2 Os0 2.568279 1_554
Be2 Mo0 2.571205 1_655
Be2 Mo0 2.571205 1_555
Be2 Re0 2.573707 1_655
Be2 Re0 2.573707 1_555
Be3 Be4 2.159926 1_555
Be3 Be7 2.159927 1_555
Be3 Be4 2.227844 1_455
Be3 Be7 2.227845 1_565
Be3 Mo0 2.559365 1_556
Be3 Os0 2.566664 1_455
Be3 Os0 2.566664 1_565
Be3 Re0 2.574027 1_555
Be3 Mo1 2.583754 1_455
Be3 Mo1 2.583754 1_565
Be4 Be7 2.159926 1_555
Be4 Be7 2.227844 1_665
Be4 Mo0 2.559369 1_556
Be4 Os0 2.566664 1_555
Be4 Os0 2.566664 1_565
Be4 Re0 2.574031 1_555
Be4 Mo1 2.583755 1_555
Be4 Mo1 2.583755 1_565
Be5 Be6 2.164390 1_555
Be5 Be6 2.223380 1_455
Be5 Mo1 2.558610 1_555
Be5 Os0 2.568279 1_554
Be5 Mo0 2.571205 1_555
Be5 Mo0 2.571205 1_545
Be5 Re0 2.573708 1_555
Be5 Re0 2.573708 1_545
Be6 Mo1 2.558607 1_555
Be6 Os0 2.568275 1_554
Be6 Mo0 2.571205 1_655
Be6 Mo0 2.571205 1_545
Be6 Re0 2.573707 1_655
Be6 Re0 2.573707 1_545
Be7 Mo0 2.559369 1_556
Be7 Os0 2.566663 1_455
Be7 Os0 2.566663 1_555
Be7 Re0 2.574031 1_555
Be7 Mo1 2.583754 1_455
Be7 Mo1 2.583754 1_555
Mo0 Re0 2.686338 1_555
Mo0 Os0 2.689406 1_454
Mo0 Os0 2.689407 1_564
Mo0 Os0 2.689414 1_554
Mo1 Re0 2.684121 1_655
Mo1 Re0 2.684121 1_545
Mo1 Re0 2.684128 1_555
Mo1 Os0 2.696658 1_555
