# generated using pymatgen
data_SbPPbO5
_symmetry_space_group_name_H-M   'P 1'
_cell_length_a   5.99419630
_cell_length_b   6.87852404
_cell_length_c   6.78223054
_cell_angle_alpha   105.22098832
_cell_angle_beta   108.56060891
_cell_angle_gamma   104.84891070
_symmetry_Int_Tables_number   1
_chemical_formula_structural   SbPPbO5
_chemical_formula_sum   'Sb2 P2 Pb2 O10'
_cell_volume   237.48701525
_cell_formula_units_Z   2
loop_
 _symmetry_equiv_pos_site_id
 _symmetry_equiv_pos_as_xyz
  1  'x, y, z'
loop_
 _atom_site_type_symbol
 _atom_site_label
 _atom_site_symmetry_multiplicity
 _atom_site_fract_x
 _atom_site_fract_y
 _atom_site_fract_z
 _atom_site_occupancy
  Sb  Sb0  1  0.61189151  0.26372663  0.54884170  1
  Sb  Sb1  1  0.38810849  0.73627337  0.45115830  1
  P  P0  1  0.18122204  0.66820102  0.86171402  1
  P  P1  1  0.81877796  0.33179898  0.13828598  1
  Pb  Pb0  1  0.16303138  0.13728084  0.83303506  1
  Pb  Pb1  1  0.83696862  0.86271916  0.16696494  1
  O  O0  1  0.27022078  0.98257520  0.44775292  1
  O  O1  1  0.96423780  0.57064566  0.30337420  1
  O  O2  1  0.66682341  0.33237042  0.90816767  1
  O  O3  1  0.37079896  0.79163392  0.78530364  1
  O  O4  1  0.33317659  0.66762958  0.09183233  1
  O  O5  1  0.72977922  0.01742480  0.55224708  1
  O  O6  1  0.99467975  0.78343397  0.87277678  1
  O  O7  1  0.03576220  0.42935434  0.69662580  1
  O  O8  1  0.00532025  0.21656603  0.12722322  1
  O  O9  1  0.62920104  0.20836608  0.21469636  1
loop_
_geom_bond_atom_site_label_1
_geom_bond_atom_site_label_2
_geom_bond_distance
_geom_bond_site_symmetry_2
O0 Sb1 1.998482 1_555
O0 Sb0 2.187321 1_565
O0 Pb1 2.445499 1_455
O1 P1 1.546429 1_555
O1 Sb1 2.248024 1_655
O1 Pb1 2.605056 1_555
O2 P1 1.538035 1_556
O2 Sb0 2.252940 1_555
O3 P0 1.546667 1_555
O3 Sb1 2.237961 1_555
O4 P0 1.538035 1_554
O4 Sb1 2.252940 1_555
O5 Sb0 1.998482 1_555
O5 Sb1 2.187321 1_545
O5 Pb0 2.445499 1_655
O6 P0 1.536441 1_655
O6 Pb1 2.462888 1_556
O6 Pb0 2.504761 1_665
O7 P0 1.546429 1_555
O7 Sb0 2.248024 1_455
O7 Pb0 2.605056 1_555
O8 P1 1.536441 1_455
O8 Pb0 2.462888 1_554
O8 Pb1 2.504761 1_445
O9 P1 1.546667 1_555
O9 Sb0 2.237961 1_555
