# generated using pymatgen
data_Ba(PrS2)2
_symmetry_space_group_name_H-M   'P 1'
_cell_length_a   7.70912695
_cell_length_b   7.70912695
_cell_length_c   7.70912695
_cell_angle_alpha   109.44357417
_cell_angle_beta   109.44357417
_cell_angle_gamma   109.52652773
_symmetry_Int_Tables_number   1
_chemical_formula_structural   Ba(PrS2)2
_chemical_formula_sum   'Ba2 Pr4 S8'
_cell_volume   352.69020437
_cell_formula_units_Z   2
loop_
 _symmetry_equiv_pos_site_id
 _symmetry_equiv_pos_as_xyz
  1  'x, y, z'
loop_
 _atom_site_type_symbol
 _atom_site_label
 _atom_site_symmetry_multiplicity
 _atom_site_fract_x
 _atom_site_fract_y
 _atom_site_fract_z
 _atom_site_occupancy
  Ba  Ba0  1  0.50000000  0.50000000  0.00000000  1
  Ba  Ba1  1  0.75000000  0.25000000  0.50000000  1
  Pr  Pr0  1  0.62500000  0.99836200  0.87336200  1
  Pr  Pr1  1  0.00163800  0.87500000  0.62663800  1
  Pr  Pr2  1  0.12500000  0.75163800  0.12663800  1
  Pr  Pr3  1  0.24836200  0.37500000  0.37336200  1
  S  S0  1  0.89165500  0.98135000  0.24597900  1
  S  S1  1  0.51462800  0.76865000  0.41030500  1
  S  S2  1  0.89567600  0.48537200  0.25402100  1
  S  S3  1  0.23135000  0.64165500  0.74597900  1
  S  S4  1  0.73537200  0.64567600  0.75402100  1
  S  S5  1  0.35432400  0.10834500  0.08969500  1
  S  S6  1  0.01865000  0.26462800  0.91030500  1
  S  S7  1  0.35834500  0.10432400  0.58969500  1
loop_
_geom_bond_atom_site_label_1
_geom_bond_atom_site_label_2
_geom_bond_distance
_geom_bond_site_symmetry_2
Ba0 S2 3.090657 1_555
Ba0 S3 3.090662 1_554
Ba0 S7 3.090662 1_554
Ba0 S1 3.090666 1_555
Ba0 S0 3.239730 1_555
Ba0 S5 3.239730 1_555
Ba0 S6 3.239731 1_554
Ba0 S4 3.239735 1_554
Ba1 S4 3.090657 1_555
Ba1 S0 3.090662 1_545
Ba1 S5 3.090662 1_555
Ba1 S6 3.090666 1_655
Ba1 S3 3.239730 1_655
Ba1 S7 3.239730 1_555
Ba1 S1 3.239731 1_545
Ba1 S2 3.239735 1_555
Pr0 S6 2.893996 1_665
Pr0 S3 2.893999 1_555
Pr0 S0 2.999046 1_556
Pr0 S7 2.999046 1_565
Pr0 S1 3.060247 1_555
Pr0 S4 3.060254 1_555
Pr0 S5 3.226859 1_566
Pr0 S2 3.226864 1_566
Pr1 S4 2.893994 1_455
Pr1 S7 2.893999 1_565
Pr1 S6 2.999040 1_565
Pr1 S2 2.999041 1_455
Pr1 S3 3.060249 1_555
Pr1 S5 3.060249 1_566
Pr1 S0 3.226859 1_455
Pr1 S1 3.226866 1_455
Pr2 S2 2.893994 1_455
Pr2 S5 2.893999 1_565
Pr2 S1 2.999040 1_555
Pr2 S4 2.999041 1_454
Pr2 S7 3.060249 1_565
Pr2 S0 3.060249 1_455
Pr2 S3 3.226859 1_554
Pr2 S6 3.226866 1_554
Pr3 S1 2.893996 1_555
Pr3 S0 2.893999 1_445
Pr3 S3 2.999046 1_555
Pr3 S5 2.999046 1_555
Pr3 S6 3.060247 1_554
Pr3 S2 3.060254 1_455
Pr3 S7 3.226859 1_555
Pr3 S4 3.226864 1_555
