# generated using pymatgen
data_K5Li(ReH9)3
_symmetry_space_group_name_H-M   'P 1'
_cell_length_a   9.25868108
_cell_length_b   9.00396638
_cell_length_c   5.54038090
_cell_angle_alpha   90.00000000
_cell_angle_beta   90.00000000
_cell_angle_gamma   119.09405695
_symmetry_Int_Tables_number   1
_chemical_formula_structural   K5Li(ReH9)3
_chemical_formula_sum   'K5 Li1 Re3 H27'
_cell_volume   403.59513066
_cell_formula_units_Z   1
loop_
 _symmetry_equiv_pos_site_id
 _symmetry_equiv_pos_as_xyz
  1  'x, y, z'
loop_
 _atom_site_type_symbol
 _atom_site_label
 _atom_site_symmetry_multiplicity
 _atom_site_fract_x
 _atom_site_fract_y
 _atom_site_fract_z
 _atom_site_occupancy
  K  K0  1  0.74088354  0.74991560  0.50000000  1
  K  K1  1  0.25911646  0.00903206  0.50000000  1
  K  K2  1  1.00000000  0.58829217  0.00000000  1
  K  K3  1  0.40444263  0.40109389  0.00000000  1
  K  K4  1  0.59555737  0.99665126  0.00000000  1
  Li  Li0  1  1.00000000  0.31338707  0.50000000  1
  Re  Re0  1  0.68584784  0.32920912  0.50000000  1
  Re  Re1  1  0.31415216  0.64336228  0.50000000  1
  Re  Re2  1  0.00000000  0.01776825  0.00000000  1
  H  H0  1  0.80718918  0.30323080  0.70986565  1
  H  H1  1  0.70573668  0.46394871  0.72709374  1
  H  H2  1  0.54697884  0.21577015  0.71901703  1
  H  H3  1  0.19281082  0.49604162  0.29013435  1
  H  H4  1  0.54697884  0.21577015  0.28098297  1
  H  H5  1  0.80718918  0.30323080  0.29013435  1
  H  H6  1  0.70573668  0.46394871  0.27290626  1
  H  H7  1  0.29426332  0.75821303  0.72709374  1
  H  H8  1  0.45302116  0.66879131  0.71901703  1
  H  H9  1  0.18443967  0.02373970  0.00000000  1
  H  H10  1  0.81556033  0.83930003  0.00000000  1
  H  H11  1  1.00000000  0.20317877  0.00000000  1
  H  H12  1  0.87751101  0.02791861  0.21931515  1
  H  H13  1  0.12248899  0.15040760  0.78068485  1
  H  H14  1  0.00000000  0.87962293  0.78945377  1
  H  H15  1  0.00000000  0.87962293  0.21054623  1
  H  H16  1  0.12248899  0.15040760  0.21931515  1
  H  H17  1  0.87751101  0.02791861  0.78068485  1
  H  H18  1  0.12820679  0.63012795  0.50000000  1
  H  H19  1  0.47097456  0.84362939  0.50000000  1
  H  H20  1  0.35196576  0.48040484  0.50000000  1
  H  H21  1  0.52902544  0.37265483  0.50000000  1
  H  H22  1  0.87179321  0.50192216  0.50000000  1
  H  H23  1  0.64803424  0.12843908  0.50000000  1
  H  H24  1  0.19281082  0.49604162  0.70986565  1
  H  H25  1  0.29426332  0.75821303  0.27290626  1
  H  H26  1  0.45302116  0.66879131  0.28098297  1
loop_
_geom_bond_atom_site_label_1
_geom_bond_atom_site_label_2
_geom_bond_distance
_geom_bond_site_symmetry_2
H0 Re0 1.710084 1_555
H0 Li0 2.094852 1_555
H0 K2 2.811173 1_556
H0 K4 2.963645 1_546
H1 Re0 1.694555 1_555
H1 K0 2.739319 1_555
H1 K2 2.827736 1_556
H1 K3 2.975386 1_556
H2 Re0 1.700499 1_555
H2 K1 2.686293 1_555
H2 K4 2.716841 1_546
H2 K3 3.015128 1_556
H3 Re1 1.710088 1_555
H3 Li0 2.094852 1_455
H3 K2 2.811174 1_455
H3 K3 2.963645 1_555
H4 Re0 1.700499 1_555
H4 K1 2.686293 1_555
H4 K4 2.716841 1_545
H4 K3 3.015128 1_555
H5 Re0 1.710084 1_555
H5 Li0 2.094852 1_555
H5 K2 2.811173 1_555
H5 K4 2.963645 1_545
H6 Re0 1.694555 1_555
H6 K0 2.739319 1_555
H6 K2 2.827736 1_555
H6 K3 2.975386 1_555
H7 Re1 1.694555 1_555
H7 K1 2.739312 1_565
H7 K2 2.827737 1_456
H7 K4 2.975384 1_556
H8 Re1 1.700501 1_555
H8 K0 2.686293 1_555
H8 K3 2.716841 1_556
H8 K4 3.015128 1_556
H9 Re2 1.682180 1_555
H9 K1 2.873775 1_555
H9 K1 2.873775 1_554
H9 K3 2.993810 1_555
H10 Re2 1.682180 1_665
H10 K0 2.873775 1_555
H10 K0 2.873775 1_554
H10 K4 2.993811 1_555
H11 Re2 1.669430 1_655
H12 Re2 1.694622 1_655
H12 K0 2.684190 1_545
H12 K4 2.766910 1_545
H13 Re2 1.694622 1_556
H13 K1 2.684190 1_555
H13 K3 2.766909 1_556
H14 Re2 1.705261 1_566
H14 K0 2.639424 1_455
H14 K1 2.639424 1_565
H14 K2 2.870812 1_456
H15 Re2 1.705261 1_565
H15 K0 2.639424 1_455
H15 K1 2.639424 1_565
H15 K2 2.870812 1_455
H16 Re2 1.694622 1_555
H16 K1 2.684190 1_555
H16 K3 2.766909 1_555
H17 Re2 1.694622 1_656
H17 K0 2.684190 1_545
H17 K4 2.766910 1_546
H18 Re1 1.666923 1_555
H18 K2 2.964800 1_455
H18 K2 2.964800 1_456
H18 K1 3.014470 1_565
H19 Re1 1.677372 1_555
H19 K1 2.984366 1_565
H19 K0 3.001272 1_555
H19 K4 3.058964 1_555
H19 K4 3.058964 1_556
H20 Re1 1.665832 1_555
H20 K3 2.959290 1_556
H20 K3 2.959290 1_555
H21 Re0 1.677378 1_555
H21 K0 2.984365 1_555
H21 K1 3.001272 1_555
H21 K3 3.058964 1_556
H21 K3 3.058964 1_555
H22 Re0 1.666930 1_555
H22 K2 2.964800 1_556
H22 K2 2.964800 1_555
H22 K0 3.014462 1_555
H23 Re0 1.665823 1_555
H23 K4 2.959290 1_546
H23 K4 2.959290 1_545
H24 Re1 1.710088 1_555
H24 Li0 2.094852 1_455
H24 K2 2.811174 1_456
H24 K3 2.963645 1_556
H25 Re1 1.694555 1_555
H25 K1 2.739312 1_565
H25 K2 2.827737 1_455
H25 K4 2.975384 1_555
H26 Re1 1.700501 1_555
H26 K0 2.686293 1_555
H26 K3 2.716841 1_555
H26 K4 3.015128 1_555
