# generated using pymatgen
data_SbPd(SeO3)4
_symmetry_space_group_name_H-M   'P 1'
_cell_length_a   8.41354502
_cell_length_b   7.98920182
_cell_length_c   7.88373995
_cell_angle_alpha   89.82836998
_cell_angle_beta   90.00000000
_cell_angle_gamma   90.00000000
_symmetry_Int_Tables_number   1
_chemical_formula_structural   SbPd(SeO3)4
_chemical_formula_sum   'Sb2 Pd2 Se8 O24'
_cell_volume   529.92298498
_cell_formula_units_Z   2
loop_
 _symmetry_equiv_pos_site_id
 _symmetry_equiv_pos_as_xyz
  1  'x, y, z'
loop_
 _atom_site_type_symbol
 _atom_site_label
 _atom_site_symmetry_multiplicity
 _atom_site_fract_x
 _atom_site_fract_y
 _atom_site_fract_z
 _atom_site_occupancy
  Sb  Sb0  1  0.00000000  0.00000000  0.50000000  1
  Sb  Sb1  1  0.50000000  0.00000000  0.00000000  1
  Pd  Pd0  1  0.00000000  0.50000000  0.00000000  1
  Pd  Pd1  1  0.50000000  0.50000000  0.50000000  1
  Se  Se0  1  0.33753596  0.65901580  0.17625389  1
  Se  Se1  1  0.83753596  0.34098420  0.32374611  1
  Se  Se2  1  0.67669332  0.82213045  0.65736654  1
  Se  Se3  1  0.17669332  0.17786955  0.84263346  1
  Se  Se4  1  0.66246404  0.34098420  0.82374611  1
  Se  Se5  1  0.16246404  0.65901580  0.67625389  1
  Se  Se6  1  0.32330668  0.17786955  0.34263346  1
  Se  Se7  1  0.82330668  0.82213045  0.15736654  1
  O  O0  1  0.25189885  0.55459814  0.01735012  1
  O  O1  1  0.75189885  0.44540186  0.48264988  1
  O  O2  1  0.76693069  0.98872832  0.54565484  1
  O  O3  1  0.26693069  0.01127168  0.95434516  1
  O  O4  1  0.53284888  0.94595324  0.75488592  1
  O  O5  1  0.45988262  0.50240712  0.25115414  1
  O  O6  1  0.95988262  0.49759288  0.24884586  1
  O  O7  1  0.03284888  0.05404676  0.74511408  1
  O  O8  1  0.98869989  0.23942849  0.44492087  1
  O  O9  1  0.56549320  0.75163369  0.49548020  1
  O  O10  1  0.48869989  0.76057151  0.05507913  1
  O  O11  1  0.06549320  0.24836631  0.00451980  1
  O  O12  1  0.74810115  0.44540186  0.98264988  1
  O  O13  1  0.24810115  0.55459814  0.51735012  1
  O  O14  1  0.23306931  0.01127168  0.45434516  1
  O  O15  1  0.73306931  0.98872832  0.04565484  1
  O  O16  1  0.46715112  0.05404676  0.24511408  1
  O  O17  1  0.54011738  0.49759288  0.74884586  1
  O  O18  1  0.04011738  0.50240712  0.75115414  1
  O  O19  1  0.96715112  0.94595324  0.25488592  1
  O  O20  1  0.01130011  0.76057151  0.55507913  1
  O  O21  1  0.43450680  0.24836631  0.50451980  1
  O  O22  1  0.51130011  0.23942849  0.94492087  1
  O  O23  1  0.93450680  0.75163369  0.99548020  1
loop_
_geom_bond_atom_site_label_1
_geom_bond_atom_site_label_2
_geom_bond_distance
_geom_bond_site_symmetry_2
O0 Se0 1.670541 1_555
O0 Pd0 2.168186 1_555
O1 Se1 1.670541 1_555
O1 Pd1 2.168186 1_555
O2 Se2 1.765375 1_555
O2 Sb0 1.995682 1_665
O3 Se3 1.765375 1_555
O3 Sb1 1.995682 1_556
O4 Se2 1.743252 1_555
O4 Sb1 2.000514 1_566
O5 Se0 1.723167 1_555
O5 Pd1 1.990696 1_555
O6 Se1 1.723167 1_555
O6 Pd0 1.990696 1_655
O7 Se3 1.743252 1_555
O7 Sb0 2.000514 1_555
O8 Se1 1.784320 1_555
O8 Sb0 1.962545 1_655
O9 Se2 1.680983 1_555
O9 Pd1 2.084704 1_555
O10 Se0 1.784320 1_555
O10 Sb1 1.962545 1_565
O11 Se3 1.680983 1_554
O11 Pd0 2.084704 1_555
O12 Se4 1.670541 1_555
O12 Pd0 2.168186 1_656
O13 Se5 1.670541 1_555
O13 Pd1 2.168186 1_555
O14 Se6 1.765375 1_555
O14 Sb0 1.995682 1_555
O15 Se7 1.765375 1_555
O15 Sb1 1.995682 1_565
O16 Se6 1.743252 1_555
O16 Sb1 2.000514 1_555
O17 Se4 1.723167 1_555
O17 Pd1 1.990696 1_555
O18 Se5 1.723167 1_555
O18 Pd0 1.990696 1_556
O19 Se7 1.743252 1_555
O19 Sb0 2.000514 1_665
O20 Se5 1.784320 1_555
O20 Sb0 1.962545 1_565
O21 Se6 1.680983 1_555
O21 Pd1 2.084704 1_555
O22 Se4 1.784320 1_555
O22 Sb1 1.962545 1_556
O23 Se7 1.680983 1_556
O23 Pd0 2.084704 1_656
