# generated using pymatgen
data_TaP2AuF12
_symmetry_space_group_name_H-M   'P 1'
_cell_length_a   8.15440197
_cell_length_b   8.82666356
_cell_length_c   8.11341639
_cell_angle_alpha   90.00000000
_cell_angle_beta   119.20390789
_cell_angle_gamma   90.00000000
_symmetry_Int_Tables_number   1
_chemical_formula_structural   TaP2AuF12
_chemical_formula_sum   'Ta2 P4 Au2 F24'
_cell_volume   509.74312326
_cell_formula_units_Z   2
loop_
 _symmetry_equiv_pos_site_id
 _symmetry_equiv_pos_as_xyz
  1  'x, y, z'
loop_
 _atom_site_type_symbol
 _atom_site_label
 _atom_site_symmetry_multiplicity
 _atom_site_fract_x
 _atom_site_fract_y
 _atom_site_fract_z
 _atom_site_occupancy
  Ta  Ta0  1  0.00000000  0.50000000  0.50000000  1
  Ta  Ta1  1  0.00000000  0.00000000  0.00000000  1
  P  P0  1  0.68418612  0.02914482  0.34413420  1
  P  P1  1  0.31581388  0.52914482  0.15586580  1
  P  P2  1  0.31581388  0.97085518  0.65586580  1
  P  P3  1  0.68418612  0.47085518  0.84413420  1
  Au  Au0  1  0.00000000  0.00000000  0.50000000  1
  Au  Au1  1  0.00000000  0.50000000  0.00000000  1
  F  F0  1  0.16259977  0.41811843  0.74508646  1
  F  F1  1  0.83740023  0.91811843  0.75491354  1
  F  F2  1  0.83740023  0.58188157  0.25491354  1
  F  F3  1  0.16259977  0.08188157  0.24508646  1
  F  F4  1  0.15393531  0.41084841  0.40830883  1
  F  F5  1  0.84606469  0.91084841  0.09169117  1
  F  F6  1  0.84606469  0.58915159  0.59169117  1
  F  F7  1  0.15393531  0.08915159  0.90830883  1
  F  F8  1  0.15138559  0.67940290  0.56659594  1
  F  F9  1  0.84861441  0.17940290  0.93340406  1
  F  F10  1  0.84861441  0.32059710  0.43340406  1
  F  F11  1  0.15138559  0.82059710  0.06659594  1
  F  F12  1  0.59410631  0.11302092  0.44532493  1
  F  F13  1  0.40589369  0.61302092  0.05467507  1
  F  F14  1  0.40589369  0.88697908  0.55467507  1
  F  F15  1  0.59410631  0.38697908  0.94532493  1
  F  F16  1  0.59659307  0.11187923  0.15373181  1
  F  F17  1  0.40340693  0.61187923  0.34626819  1
  F  F18  1  0.40340693  0.88812077  0.84626819  1
  F  F19  1  0.59659307  0.38812077  0.65373181  1
  F  F20  1  0.57121747  0.88074752  0.28859023  1
  F  F21  1  0.42878253  0.38074752  0.21140977  1
  F  F22  1  0.42878253  0.11925248  0.71140977  1
  F  F23  1  0.57121747  0.61925248  0.78859023  1
loop_
_geom_bond_atom_site_label_1
_geom_bond_atom_site_label_2
_geom_bond_distance
_geom_bond_site_symmetry_2
Au0 P2 2.262614 1_545
Au0 P0 2.262614 1_455
Au1 P1 2.262614 1_555
Au1 P3 2.262614 1_454
F0 Ta0 1.913536 1_555
F1 Ta1 1.913536 1_666
F2 Ta0 1.913536 1_655
F3 Ta1 1.913536 1_555
F4 Ta0 1.912999 1_555
F5 Ta1 1.912999 1_665
F6 Ta0 1.912999 1_655
F7 Ta1 1.912999 1_556
F8 Ta0 1.916380 1_555
F9 Ta1 1.916380 1_656
F10 Ta0 1.916380 1_655
F11 Ta1 1.916380 1_565
F12 P0 1.533040 1_555
F13 P1 1.533040 1_555
F14 P2 1.533040 1_555
F15 P3 1.533040 1_555
F16 P0 1.534005 1_555
F17 P1 1.534005 1_555
F18 P2 1.534005 1_555
F19 P3 1.534005 1_555
F20 P0 1.536974 1_565
F21 P1 1.536974 1_555
F22 P2 1.536974 1_545
F23 P3 1.536974 1_555
