# generated using pymatgen
data_La(CuSi)2
_symmetry_space_group_name_H-M   'P 1'
_cell_length_a   4.14335863
_cell_length_b   4.14335758
_cell_length_c   5.74770669
_cell_angle_alpha   111.12697371
_cell_angle_beta   111.12696706
_cell_angle_gamma   89.99998707
_symmetry_Int_Tables_number   1
_chemical_formula_structural   La(CuSi)2
_chemical_formula_sum   'La1 Cu2 Si2'
_cell_volume   84.89182050
_cell_formula_units_Z   1
loop_
 _symmetry_equiv_pos_site_id
 _symmetry_equiv_pos_as_xyz
  1  'x, y, z'
loop_
 _atom_site_type_symbol
 _atom_site_label
 _atom_site_symmetry_multiplicity
 _atom_site_fract_x
 _atom_site_fract_y
 _atom_site_fract_z
 _atom_site_occupancy
  La  La0  1  -0.00000000  -0.00000000  -0.00000000  1
  Cu  Cu0  1  0.75000000  0.25000000  0.50000000  1
  Cu  Cu1  1  0.25000000  0.75000000  0.50000000  1
  Si  Si0  1  0.62337139  0.62337139  0.24674179  1
  Si  Si1  1  0.37662861  0.37662861  0.75325821  1
loop_
_geom_bond_atom_site_label_1
_geom_bond_atom_site_label_2
_geom_bond_distance
_geom_bond_site_symmetry_2
La0 Si1 3.173704 1_554
La0 Si0 3.173704 1_445
La0 Si1 3.173705 1_544
La0 Si0 3.173705 1_455
La0 Si1 3.173706 1_454
La0 Si0 3.173706 1_545
La0 Si1 3.173709 1_444
La0 Si0 3.173709 1_555
Cu0 Si0 2.420788 1_545
Cu0 Si1 2.420789 1_655
Cu0 Si0 2.420792 1_555
Cu0 Si1 2.420792 1_555
Cu0 La0 3.225671 1_666
Cu0 La0 3.225672 1_655
Cu0 La0 3.225672 1_656
Cu0 La0 3.225672 1_555
Cu1 Si1 2.420788 1_565
Cu1 Si0 2.420789 1_455
Cu1 Si1 2.420792 1_555
Cu1 Si0 2.420792 1_555
Cu1 La0 3.225671 1_555
Cu1 La0 3.225672 1_566
Cu1 La0 3.225672 1_565
Cu1 La0 3.225672 1_666
Si0 Si1 2.440246 1_554
