# generated using pymatgen
data_SrScCuS3
_symmetry_space_group_name_H-M   'P 1'
_cell_length_a   6.73354922
_cell_length_b   6.73354877
_cell_length_c   9.75391379
_cell_angle_alpha   90.00000000
_cell_angle_beta   90.00000000
_cell_angle_gamma   146.93900122
_symmetry_Int_Tables_number   1
_chemical_formula_structural   SrScCuS3
_chemical_formula_sum   'Sr2 Sc2 Cu2 S6'
_cell_volume   241.26086129
_cell_formula_units_Z   2
loop_
 _symmetry_equiv_pos_site_id
 _symmetry_equiv_pos_as_xyz
  1  'x, y, z'
loop_
 _atom_site_type_symbol
 _atom_site_label
 _atom_site_symmetry_multiplicity
 _atom_site_fract_x
 _atom_site_fract_y
 _atom_site_fract_z
 _atom_site_occupancy
  Sr  Sr0  1  0.25162798  0.74837202  0.25000000  1
  Sr  Sr1  1  0.74837202  0.25162798  0.75000000  1
  Sc  Sc0  1  0.00000000  0.00000000  0.50000000  1
  Sc  Sc1  1  0.00000000  0.00000000  0.00000000  1
  Cu  Cu0  1  0.52856274  0.47143726  0.25000000  1
  Cu  Cu1  1  0.47143726  0.52856274  0.75000000  1
  S  S0  1  0.63196413  0.36803587  0.44090698  1
  S  S1  1  0.36803587  0.63196413  0.55909302  1
  S  S2  1  0.63196413  0.36803587  0.05909302  1
  S  S3  1  0.36803587  0.63196413  0.94090698  1
  S  S4  1  0.92727419  0.07272581  0.25000000  1
  S  S5  1  0.07272581  0.92727419  0.75000000  1
loop_
_geom_bond_atom_site_label_1
_geom_bond_atom_site_label_2
_geom_bond_distance
_geom_bond_site_symmetry_2
Cu0 S0 2.291179 1_555
Cu0 S2 2.291179 1_555
Cu0 S4 2.319609 1_565
Cu0 S4 2.319609 1_455
Cu1 S3 2.291179 1_555
Cu1 S1 2.291179 1_555
Cu1 S5 2.319609 1_545
Cu1 S5 2.319609 1_655
S0 Sc0 2.627819 1_665
S0 Sc0 2.627820 1_555
S0 Sr0 3.086211 1_545
S0 Sr0 3.086211 1_655
S0 Sr1 3.368690 1_555
S1 Sc0 2.627819 1_555
S1 Sc0 2.627820 1_665
S1 Sr1 3.086211 1_565
S1 Sr1 3.086211 1_455
S1 Sr0 3.368690 1_555
S2 Sc1 2.627819 1_665
S2 Sc1 2.627820 1_555
S2 Sr0 3.086211 1_545
S2 Sr0 3.086211 1_655
S2 Sr1 3.368690 1_554
S3 Sc1 2.627819 1_556
S3 Sc1 2.627820 1_666
S3 Sr1 3.086211 1_565
S3 Sr1 3.086211 1_455
S3 Sr0 3.368690 1_556
S4 Sc0 2.612998 1_655
S4 Sc1 2.612998 1_655
S4 Sr0 2.968654 1_655
S4 Sr0 2.968655 1_545
S5 Sc0 2.612998 1_565
S5 Sc1 2.612998 1_566
S5 Sr1 2.968654 1_455
S5 Sr1 2.968655 1_565
