# generated using pymatgen
data_YTiAlO5
_symmetry_space_group_name_H-M   'P 1'
_cell_length_a   5.65953339
_cell_length_b   7.35743113
_cell_length_c   8.40761450
_cell_angle_alpha   90.00000000
_cell_angle_beta   90.00000000
_cell_angle_gamma   90.00000000
_symmetry_Int_Tables_number   1
_chemical_formula_structural   YTiAlO5
_chemical_formula_sum   'Y4 Ti4 Al4 O20'
_cell_volume   350.08993321
_cell_formula_units_Z   4
loop_
 _symmetry_equiv_pos_site_id
 _symmetry_equiv_pos_as_xyz
  1  'x, y, z'
loop_
 _atom_site_type_symbol
 _atom_site_label
 _atom_site_symmetry_multiplicity
 _atom_site_fract_x
 _atom_site_fract_y
 _atom_site_fract_z
 _atom_site_occupancy
  Y  Y0  1  0.00000000  0.35847723  0.32969751  1
  Y  Y1  1  0.00000000  0.64152277  0.67030249  1
  Y  Y2  1  0.00000000  0.85847723  0.17030249  1
  Y  Y3  1  0.00000000  0.14152277  0.82969751  1
  Ti  Ti0  1  0.50000000  0.12352538  0.14656552  1
  Ti  Ti1  1  0.50000000  0.87647462  0.85343448  1
  Ti  Ti2  1  0.50000000  0.62352538  0.35343448  1
  Ti  Ti3  1  0.50000000  0.37647462  0.64656552  1
  Al  Al0  1  0.24305002  0.50000000  0.00000000  1
  Al  Al1  1  0.75694998  0.00000000  0.50000000  1
  Al  Al2  1  0.75694998  0.50000000  0.00000000  1
  Al  Al3  1  0.24305002  0.00000000  0.50000000  1
  O  O0  1  0.00000000  0.34027451  0.05849541  1
  O  O1  1  0.00000000  0.65972549  0.94150459  1
  O  O2  1  0.00000000  0.84027451  0.44150459  1
  O  O3  1  0.00000000  0.15972549  0.55849541  1
  O  O4  1  0.50000000  0.35121900  0.07225398  1
  O  O5  1  0.50000000  0.64878100  0.92774602  1
  O  O6  1  0.50000000  0.85121900  0.42774602  1
  O  O7  1  0.50000000  0.14878100  0.57225398  1
  O  O8  1  0.25070646  0.10860052  0.29495781  1
  O  O9  1  0.25070646  0.89139948  0.70504219  1
  O  O10  1  0.74929354  0.60860052  0.20504219  1
  O  O11  1  0.74929354  0.39139948  0.79495781  1
  O  O12  1  0.74929354  0.89139948  0.70504219  1
  O  O13  1  0.74929354  0.10860052  0.29495781  1
  O  O14  1  0.25070646  0.39139948  0.79495781  1
  O  O15  1  0.25070646  0.60860052  0.20504219  1
  O  O16  1  0.27706493  0.00000000  0.00000000  1
  O  O17  1  0.72293507  0.50000000  0.50000000  1
  O  O18  1  0.72293507  0.00000000  0.00000000  1
  O  O19  1  0.27706493  0.50000000  0.50000000  1
loop_
_geom_bond_atom_site_label_1
_geom_bond_atom_site_label_2
_geom_bond_distance
_geom_bond_site_symmetry_2
Al0 O1 1.874842 1_554
Al0 O0 1.874842 1_555
Al0 O15 1.900578 1_555
Al0 O14 1.900578 1_554
Al0 O5 1.918862 1_554
Al0 O4 1.918862 1_555
Al1 O3 1.874842 1_655
Al1 O2 1.874842 1_645
Al1 O12 1.900578 1_545
Al1 O13 1.900578 1_555
Al1 O7 1.918862 1_555
Al1 O6 1.918862 1_545
Al2 O1 1.874842 1_654
Al2 O0 1.874842 1_655
Al2 O10 1.900578 1_555
Al2 O11 1.900578 1_554
Al2 O5 1.918862 1_554
Al2 O4 1.918862 1_555
Al3 O3 1.874842 1_555
Al3 O2 1.874842 1_545
Al3 O9 1.900578 1_545
Al3 O8 1.900578 1_555
Al3 O7 1.918862 1_555
Al3 O6 1.918862 1_545
O0 Y0 2.284092 1_555
O0 Y3 2.416348 1_554
O1 Y1 2.284092 1_555
O1 Y2 2.416348 1_556
O2 Y2 2.284092 1_555
O2 Y1 2.416348 1_555
O3 Y3 2.284092 1_555
O3 Y0 2.416348 1_555
O4 Ti0 1.787955 1_555
O5 Ti1 1.787955 1_555
O6 Ti2 1.787955 1_555
O7 Ti3 1.787955 1_555
O8 Ti0 1.886590 1_555
O8 Y0 2.340606 1_555
O8 Y2 2.549160 1_545
O9 Ti1 1.886590 1_555
O9 Y1 2.340606 1_555
O9 Y3 2.549160 1_565
O10 Ti2 1.886590 1_555
O10 Y2 2.340606 1_655
O10 Y0 2.549160 1_655
O11 Ti3 1.886590 1_555
O11 Y3 2.340606 1_655
O11 Y1 2.549160 1_655
O12 Ti1 1.886590 1_555
O12 Y1 2.340606 1_655
O12 Y3 2.549160 1_665
O13 Ti0 1.886590 1_555
O13 Y0 2.340606 1_655
O13 Y2 2.549160 1_645
O14 Ti3 1.886590 1_555
O14 Y3 2.340606 1_555
O14 Y1 2.549160 1_555
O15 Ti2 1.886590 1_555
O15 Y2 2.340606 1_555
O15 Y0 2.549160 1_555
O16 Ti0 1.984026 1_555
O16 Ti1 1.984026 1_544
O16 Y2 2.364985 1_545
O16 Y3 2.364985 1_554
O17 Ti3 1.984026 1_555
O17 Ti2 1.984026 1_555
O17 Y1 2.364985 1_655
O17 Y0 2.364985 1_655
O18 Ti0 1.984026 1_555
O18 Ti1 1.984026 1_544
O18 Y2 2.364985 1_645
O18 Y3 2.364985 1_654
O19 Ti3 1.984026 1_555
O19 Ti2 1.984026 1_555
O19 Y1 2.364985 1_555
O19 Y0 2.364985 1_555
