# generated using pymatgen
data_Ba4CrAgH12
_symmetry_space_group_name_H-M   'P 1'
_cell_length_a   8.04143161
_cell_length_b   8.04143220
_cell_length_c   5.96544636
_cell_angle_alpha   90.00724315
_cell_angle_beta   90.00724900
_cell_angle_gamma   136.44522789
_symmetry_Int_Tables_number   1
_chemical_formula_structural   Ba4CrAgH12
_chemical_formula_sum   'Ba4 Cr1 Ag1 H12'
_cell_volume   265.80244718
_cell_formula_units_Z   1
loop_
 _symmetry_equiv_pos_site_id
 _symmetry_equiv_pos_as_xyz
  1  'x, y, z'
loop_
 _atom_site_type_symbol
 _atom_site_label
 _atom_site_symmetry_multiplicity
 _atom_site_fract_x
 _atom_site_fract_y
 _atom_site_fract_z
 _atom_site_occupancy
  Ba  Ba0  1  0.35488720  0.64511280  1.00000000  1
  Ba  Ba1  1  0.85443026  0.14556974  0.50000000  1
  Ba  Ba2  1  0.64511280  0.35488720  0.00000000  1
  Ba  Ba3  1  0.14556974  0.85443026  0.50000000  1
  Cr  Cr0  1  0.50000000  0.50000000  0.50000000  1
  Ag  Ag0  1  0.00000000  0.00000000  0.00000000  1
  H  H0  1  0.99996807  0.49974287  0.24878927  1
  H  H1  1  0.50025713  0.00003193  0.75121073  1
  H  H2  1  0.00003193  0.50025713  0.75121073  1
  H  H3  1  0.49974287  0.99996807  0.24878927  1
  H  H4  1  0.11563207  0.88436793  0.00000000  1
  H  H5  1  0.61616306  0.38383694  0.50000000  1
  H  H6  1  0.88436793  0.11563207  1.00000000  1
  H  H7  1  0.38383694  0.61616306  0.50000000  1
  H  H8  1  0.70869853  0.70869853  0.29298674  1
  H  H9  1  0.29130147  0.29130147  0.70701326  1
  H  H10  1  0.70678453  0.70678453  0.70908392  1
  H  H11  1  0.29321547  0.29321547  0.29091608  1
loop_
_geom_bond_atom_site_label_1
_geom_bond_atom_site_label_2
_geom_bond_distance
_geom_bond_site_symmetry_2
Ba0 H0 2.623079 1_456
Ba0 H1 2.623079 1_565
Ba0 H2 2.623531 1_555
Ba0 H3 2.623531 1_556
Ba0 H7 3.013897 1_556
Ba0 H7 3.013898 1_555
Ba0 H6 3.015697 1_565
Ba0 H6 3.015697 1_455
Ba0 H10 3.038524 1_555
Ba0 H11 3.038525 1_556
Ba0 H8 3.049758 1_556
Ba0 H9 3.049759 1_555
Ba1 H1 2.626249 1_555
Ba1 H0 2.626249 1_555
Ba1 H3 2.628645 1_545
Ba1 H2 2.628645 1_655
Ba1 H7 3.015536 1_655
Ba1 H7 3.015536 1_545
Ba1 H6 3.016050 1_555
Ba1 H6 3.016050 1_554
Ba1 H9 3.044889 1_655
Ba1 H8 3.044889 1_545
Ba1 H11 3.056925 1_655
Ba1 H10 3.056926 1_545
Ba2 H2 2.623079 1_654
Ba2 H3 2.623079 1_545
Ba2 H0 2.623531 1_555
Ba2 H1 2.623531 1_554
Ba2 H5 3.013897 1_554
Ba2 H5 3.013898 1_555
Ba2 H4 3.015697 1_545
Ba2 H4 3.015697 1_655
Ba2 H11 3.038524 1_555
Ba2 H10 3.038525 1_554
Ba2 H9 3.049758 1_554
Ba2 H8 3.049759 1_555
Ba3 H3 2.626249 1_555
Ba3 H2 2.626249 1_555
Ba3 H1 2.628645 1_565
Ba3 H0 2.628645 1_455
Ba3 H5 3.015536 1_455
Ba3 H5 3.015536 1_565
Ba3 H4 3.016050 1_555
Ba3 H4 3.016050 1_556
Ba3 H8 3.044889 1_455
Ba3 H9 3.044889 1_565
Ba3 H10 3.056925 1_455
Ba3 H11 3.056926 1_565
Cr0 H5 1.734903 1_555
Cr0 H7 1.734903 1_555
Cr0 H9 1.754067 1_555
Cr0 H8 1.754067 1_555
Cr0 H10 1.754139 1_555
Cr0 H11 1.754139 1_555
Ag0 H4 1.726973 1_545
Ag0 H6 1.726973 1_454
