# generated using pymatgen
data_NpCo2
_symmetry_space_group_name_H-M   'P 1'
_cell_length_a   5.03284938
_cell_length_b   5.03340723
_cell_length_c   5.03338873
_cell_angle_alpha   59.97695682
_cell_angle_beta   60.00317654
_cell_angle_gamma   59.97615281
_symmetry_Int_Tables_number   1
_chemical_formula_structural   NpCo2
_chemical_formula_sum   'Np2 Co4'
_cell_volume   90.13177020
_cell_formula_units_Z   2
loop_
 _symmetry_equiv_pos_site_id
 _symmetry_equiv_pos_as_xyz
  1  'x, y, z'
loop_
 _atom_site_type_symbol
 _atom_site_label
 _atom_site_symmetry_multiplicity
 _atom_site_fract_x
 _atom_site_fract_y
 _atom_site_fract_z
 _atom_site_occupancy
  Np  Np0  1  0.87536152  0.87467091  0.87531097  1
  Np  Np1  1  0.12540222  0.12465503  0.12527491  1
  Co  Co0  1  0.49999276  0.49999625  0.49962674  1
  Co  Co1  1  0.50001283  0.50035748  -0.00033958  1
  Co  Co2  1  -0.00039087  0.49994877  0.50005911  1
  Co  Co3  1  0.49962054  0.00037157  0.50006484  1
loop_
_geom_bond_atom_site_label_1
_geom_bond_atom_site_label_2
_geom_bond_distance
_geom_bond_site_symmetry_2
Co0 Co3 2.514649 1_555
Co0 Co2 2.515463 1_655
Co0 Co1 2.515565 1_555
Co0 Co2 2.517388 1_555
Co0 Co1 2.517825 1_556
Co0 Co3 2.518760 1_565
Co0 Np1 2.946521 1_565
Co0 Np0 2.949461 1_554
Co0 Np0 2.950720 1_455
Co0 Np1 2.950958 1_655
Co0 Np1 2.952079 1_556
Co0 Np0 2.952478 1_545
Co1 Co2 2.514662 1_654
Co1 Co3 2.514840 1_564
Co1 Co3 2.516806 1_555
Co1 Co2 2.518700 1_555
Co1 Np0 2.947011 1_454
Co1 Np1 2.948931 1_565
Co1 Np0 2.951182 1_554
Co1 Np1 2.951261 1_555
Co1 Np0 2.952174 1_544
Co1 Np1 2.952890 1_655
Co2 Co3 2.514623 1_555
Co2 Co3 2.516693 1_465
Co2 Np0 2.947486 1_454
Co2 Np1 2.950049 1_555
Co2 Np0 2.950206 1_445
Co2 Np1 2.951073 1_565
Co2 Np1 2.952807 1_556
Co2 Np0 2.952921 1_455
Co3 Np1 2.947854 1_555
Co3 Np0 2.949323 1_445
Co3 Np1 2.950638 1_556
Co3 Np0 2.951722 1_544
Co3 Np1 2.952816 1_655
Co3 Np0 2.953302 1_545
