# generated using pymatgen
data_Rb2BeSe2
_symmetry_space_group_name_H-M   'P 1'
_cell_length_a   8.24601140
_cell_length_b   8.24601041
_cell_length_c   8.24601105
_cell_angle_alpha   135.95815168
_cell_angle_beta   129.07392584
_cell_angle_gamma   69.56437206
_symmetry_Int_Tables_number   1
_chemical_formula_structural   Rb2BeSe2
_chemical_formula_sum   'Rb4 Be2 Se4'
_cell_volume   296.94214306
_cell_formula_units_Z   2
loop_
 _symmetry_equiv_pos_site_id
 _symmetry_equiv_pos_as_xyz
  1  'x, y, z'
loop_
 _atom_site_type_symbol
 _atom_site_label
 _atom_site_symmetry_multiplicity
 _atom_site_fract_x
 _atom_site_fract_y
 _atom_site_fract_z
 _atom_site_occupancy
  Rb  Rb0  1  0.47458249  0.64566736  0.82891513  1
  Rb  Rb1  1  0.52541751  0.35433264  0.17108487  1
  Rb  Rb2  1  0.18324776  0.85433264  0.32891513  1
  Rb  Rb3  1  0.81675224  0.14566736  0.67108487  1
  Be  Be0  1  0.00000000  0.25000000  0.25000000  1
  Be  Be1  1  0.00000000  0.75000000  0.75000000  1
  Se  Se0  1  0.92682335  0.59232377  0.33449958  1
  Se  Se1  1  0.74217581  0.90767623  0.83449958  1
  Se  Se2  1  0.25782419  0.09232377  0.16550042  1
  Se  Se3  1  0.07317665  0.40767623  0.66550042  1
loop_
_geom_bond_atom_site_label_1
_geom_bond_atom_site_label_2
_geom_bond_distance
_geom_bond_site_symmetry_2
Rb0 Se2 3.379919 1_555
Rb0 Se2 3.379919 1_566
Rb0 Se3 3.425577 1_555
Rb0 Se1 3.549219 1_555
Rb0 Se0 3.579292 1_455
Rb0 Se0 3.656888 1_556
Rb1 Se1 3.379919 1_555
Rb1 Se1 3.379919 1_544
Rb1 Se0 3.425577 1_555
Rb1 Se2 3.549219 1_555
Rb1 Se3 3.579292 1_655
Rb1 Se3 3.656888 1_554
Rb2 Se3 3.379919 1_565
Rb2 Se3 3.379919 1_554
Rb2 Se2 3.425577 1_565
Rb2 Se0 3.549219 1_455
Rb2 Se1 3.579291 1_454
Rb2 Se1 3.656888 1_555
Rb3 Se0 3.379919 1_545
Rb3 Se0 3.379919 1_556
Rb3 Se1 3.425577 1_545
Rb3 Se3 3.549219 1_655
Rb3 Se2 3.579291 1_656
Rb3 Se2 3.656888 1_555
Be0 Se0 2.308834 1_455
Be0 Se1 2.308835 1_444
Be0 Se3 2.308835 1_555
Be0 Se2 2.308835 1_555
Be0 Rb2 3.423719 1_545
Be0 Rb0 3.423719 1_555
Be0 Rb3 3.423719 1_454
Be0 Rb1 3.423719 1_455
Be1 Se3 2.308834 1_555
Be1 Se2 2.308835 1_566
Be1 Se0 2.308835 1_455
Be1 Se1 2.308835 1_455
Be1 Rb3 3.423719 1_465
Be1 Rb1 3.423719 1_455
Be1 Rb2 3.423719 1_556
Be1 Rb0 3.423719 1_555
