# generated using pymatgen
data_Rb2CaTa6Cl18
_symmetry_space_group_name_H-M   'P 1'
_cell_length_a   10.17291184
_cell_length_b   10.17291171
_cell_length_c   10.17291081
_cell_angle_alpha   54.93794069
_cell_angle_beta   54.93793709
_cell_angle_gamma   54.93793899
_symmetry_Int_Tables_number   1
_chemical_formula_structural   Rb2CaTa6Cl18
_chemical_formula_sum   'Rb2 Ca1 Ta6 Cl18'
_cell_volume   656.72498465
_cell_formula_units_Z   1
loop_
 _symmetry_equiv_pos_site_id
 _symmetry_equiv_pos_as_xyz
  1  'x, y, z'
loop_
 _atom_site_type_symbol
 _atom_site_label
 _atom_site_symmetry_multiplicity
 _atom_site_fract_x
 _atom_site_fract_y
 _atom_site_fract_z
 _atom_site_occupancy
  Rb  Rb0  1  0.27644142  0.27644142  0.27644142  1
  Rb  Rb1  1  0.72355858  0.72355858  0.72355858  1
  Ca  Ca0  1  0.00000000  0.00000000  0.00000000  1
  Ta  Ta0  1  0.41653766  0.29931222  0.64786951  1
  Ta  Ta1  1  0.35213049  0.58346234  0.70068778  1
  Ta  Ta2  1  0.70068778  0.35213049  0.58346234  1
  Ta  Ta3  1  0.64786951  0.41653766  0.29931222  1
  Ta  Ta4  1  0.58346234  0.70068778  0.35213049  1
  Ta  Ta5  1  0.29931222  0.64786951  0.41653766  1
  Cl  Cl0  1  0.64000761  0.08427623  0.77594866  1
  Cl  Cl1  1  0.77594866  0.64000761  0.08427623  1
  Cl  Cl2  1  0.08427623  0.77594866  0.64000761  1
  Cl  Cl3  1  0.83320333  0.31588993  0.03622396  1
  Cl  Cl4  1  0.16017305  0.43591207  0.57646030  1
  Cl  Cl5  1  0.68411007  0.96377604  0.16679667  1
  Cl  Cl6  1  0.91572377  0.22405134  0.35999239  1
  Cl  Cl7  1  0.56408793  0.42353970  0.83982695  1
  Cl  Cl8  1  0.42353970  0.83982695  0.56408793  1
  Cl  Cl9  1  0.96377604  0.16679667  0.68411007  1
  Cl  Cl10  1  0.16679667  0.68411007  0.96377604  1
  Cl  Cl11  1  0.03622396  0.83320333  0.31588993  1
  Cl  Cl12  1  0.31588993  0.03622396  0.83320333  1
  Cl  Cl13  1  0.22405134  0.35999239  0.91572377  1
  Cl  Cl14  1  0.57646030  0.16017305  0.43591207  1
  Cl  Cl15  1  0.43591207  0.57646030  0.16017305  1
  Cl  Cl16  1  0.35999239  0.91572377  0.22405134  1
  Cl  Cl17  1  0.83982695  0.56408793  0.42353970  1
loop_
_geom_bond_atom_site_label_1
_geom_bond_atom_site_label_2
_geom_bond_distance
_geom_bond_site_symmetry_2
Ca0 Cl11 2.778314 1_545
Ca0 Cl9 2.778314 1_454
Ca0 Cl3 2.778315 1_455
Ca0 Cl10 2.778315 1_544
Ca0 Cl12 2.778315 1_554
Ca0 Cl5 2.778315 1_445
Cl0 Ta2 2.460430 1_555
Cl0 Ta0 2.462896 1_555
Cl0 Rb1 3.551779 1_545
Cl1 Ta4 2.460430 1_555
Cl1 Ta3 2.462896 1_555
Cl1 Rb1 3.551778 1_554
Cl2 Ta1 2.460430 1_555
Cl2 Ta5 2.462896 1_555
Cl2 Rb1 3.551779 1_455
Cl3 Ta3 2.626594 1_555
Cl3 Rb1 3.488000 1_554
Cl4 Ta0 2.472518 1_555
Cl4 Ta5 2.475893 1_555
Cl4 Rb0 3.561240 1_555
Cl4 Rb1 3.604425 1_455
Cl5 Ta4 2.626594 1_555
Cl5 Rb0 3.488000 1_565
Cl6 Ta3 2.460430 1_555
Cl6 Ta2 2.462896 1_555
Cl6 Rb0 3.551779 1_655
Cl7 Ta2 2.472517 1_555
Cl7 Ta1 2.475893 1_555
Cl7 Rb1 3.561241 1_555
Cl7 Rb0 3.604425 1_556
Cl8 Ta1 2.472518 1_555
Cl8 Ta4 2.475893 1_555
Cl8 Rb1 3.561241 1_555
Cl8 Rb0 3.604425 1_565
Cl9 Ta2 2.626594 1_555
Cl9 Rb0 3.488000 1_655
Cl10 Ta1 2.626594 1_555
Cl10 Rb0 3.488000 1_556
Cl11 Ta5 2.626594 1_555
Cl11 Rb1 3.488000 1_455
Cl12 Ta0 2.626594 1_555
Cl12 Rb1 3.488000 1_545
Cl13 Ta0 2.460430 1_555
Cl13 Ta1 2.462896 1_555
Cl13 Rb0 3.551778 1_556
Cl14 Ta3 2.472518 1_555
Cl14 Ta0 2.475893 1_555
Cl14 Rb0 3.561241 1_555
Cl14 Rb1 3.604425 1_545
Cl15 Ta5 2.472517 1_555
Cl15 Ta3 2.475893 1_555
Cl15 Rb0 3.561241 1_555
Cl15 Rb1 3.604425 1_554
Cl16 Ta5 2.460430 1_555
Cl16 Ta4 2.462896 1_555
Cl16 Rb0 3.551779 1_565
Cl17 Ta4 2.472518 1_555
Cl17 Ta2 2.475893 1_555
Cl17 Rb1 3.561240 1_555
Cl17 Rb0 3.604425 1_655
