# generated using pymatgen
data_Y6AlCoRh
_symmetry_space_group_name_H-M   'P 1'
_cell_length_a   8.38107702
_cell_length_b   8.38107823
_cell_length_c   8.38107741
_cell_angle_alpha   106.70749850
_cell_angle_beta   109.74381326
_cell_angle_gamma   112.00571767
_symmetry_Int_Tables_number   1
_chemical_formula_structural   Y6AlCoRh
_chemical_formula_sum   'Y12 Al2 Co2 Rh2'
_cell_volume   452.21553461
_cell_formula_units_Z   2
loop_
 _symmetry_equiv_pos_site_id
 _symmetry_equiv_pos_as_xyz
  1  'x, y, z'
loop_
 _atom_site_type_symbol
 _atom_site_label
 _atom_site_symmetry_multiplicity
 _atom_site_fract_x
 _atom_site_fract_y
 _atom_site_fract_z
 _atom_site_occupancy
  Y  Y0  1  0.69520172  0.25756762  0.95276934  1
  Y  Y1  1  0.30479828  0.74243238  0.04723066  1
  Y  Y2  1  0.69520172  0.74243238  0.43763610  1
  Y  Y3  1  0.30479828  0.25756762  0.56236390  1
  Y  Y4  1  0.81270060  0.13130505  0.31860445  1
  Y  Y5  1  0.81270060  0.49409714  0.68139555  1
  Y  Y6  1  0.18729940  0.86869495  0.68139555  1
  Y  Y7  1  0.18729940  0.50590286  0.31860445  1
  Y  Y8  1  0.60225464  0.78274302  0.81951062  1
  Y  Y9  1  0.96323240  0.78274302  0.18048938  1
  Y  Y10  1  0.03676760  0.21725698  0.81951062  1
  Y  Y11  1  0.39774536  0.21725698  0.18048938  1
  Al  Al0  1  0.50000000  0.50000000  0.00000000  1
  Al  Al1  1  0.50000000  0.00000000  0.50000000  1
  Co  Co0  1  1.00000000  0.10984205  0.10984205  1
  Co  Co1  1  0.00000000  0.89015795  0.89015795  1
  Rh  Rh0  1  0.83358933  0.50000000  0.33358933  1
  Rh  Rh1  1  0.16641067  0.50000000  0.66641067  1
loop_
_geom_bond_atom_site_label_1
_geom_bond_atom_site_label_2
_geom_bond_distance
_geom_bond_site_symmetry_2
Y0 Y4 3.478076 1_556
Y0 Y7 3.478077 1_656
Y0 Y10 3.496348 1_655
Y0 Y8 3.496351 1_545
Y0 Y6 3.565827 1_545
Y0 Y5 3.565832 1_555
Y0 Y9 3.595259 1_556
Y0 Y11 3.595266 1_556
Y0 Y3 3.765470 1_555
Y1 Y6 3.478076 1_554
Y1 Y5 3.478077 1_454
Y1 Y9 3.496348 1_455
Y1 Y11 3.496351 1_565
Y1 Y4 3.565827 1_565
Y1 Y7 3.565832 1_555
Y1 Y10 3.595259 1_554
Y1 Y8 3.595266 1_554
Y1 Y2 3.765470 1_555
Y2 Y5 3.478058 1_555
Y2 Y6 3.478074 1_655
Y2 Y8 3.496327 1_555
Y2 Y7 3.565822 1_555
Y2 Y4 3.565838 1_565
Y2 Y9 3.595273 1_555
Y3 Y7 3.478058 1_555
Y3 Y4 3.478074 1_455
Y3 Y9 3.496342 1_445
Y3 Y5 3.565822 1_555
Y3 Y6 3.565838 1_545
Y3 Y8 3.595260 1_555
Y4 Y9 3.642815 1_545
Y4 Y8 3.642816 1_544
Y5 Y8 3.642802 1_555
Y5 Y9 3.642813 1_556
Y6 Y9 3.686559 1_455
Y6 Y8 3.686567 1_555
Y7 Y8 3.686561 1_555
Y7 Y9 3.686567 1_455
Y8 Y9 3.481653 1_556
Y10 Y11 3.481653 1_556
Y10 Y2 3.496342 1_445
Y10 Y3 3.595273 1_555
Y10 Y7 3.642813 1_556
Y10 Y6 3.642815 1_545
Y10 Y4 3.686559 1_455
Y10 Y5 3.686567 1_455
Y11 Y3 3.496327 1_555
Y11 Y2 3.595260 1_555
Y11 Y7 3.642802 1_555
Y11 Y6 3.642816 1_544
Y11 Y5 3.686561 1_555
Y11 Y4 3.686567 1_555
Al0 Y1 3.070464 1_555
Al0 Y0 3.070464 1_554
Al0 Y2 3.070478 1_555
Al0 Y3 3.070478 1_554
Al0 Y9 3.170672 1_555
Al0 Y10 3.170672 1_554
Al0 Y11 3.170673 1_555
Al0 Y8 3.170673 1_554
Al0 Rh1 3.217486 1_554
Al0 Rh0 3.217486 1_555
Al1 Y2 3.191432 1_545
Al1 Y3 3.191432 1_555
Al1 Y0 3.191434 1_555
Al1 Y1 3.191434 1_545
Al1 Y6 3.447217 1_545
Al1 Y4 3.447217 1_555
Al1 Y7 3.447224 1_545
Al1 Y5 3.447224 1_555
Al1 Y10 3.693670 1_655
Al1 Y9 3.693670 1_445
Al1 Y8 3.693672 1_545
Al1 Y11 3.693672 1_555
Co0 Co1 2.197912 1_644
Co0 Y7 2.728387 1_655
Co0 Y4 2.728394 1_555
Co0 Y11 2.895599 1_655
Co0 Y8 2.895603 1_544
Co0 Y10 2.895608 1_654
Co0 Y9 2.895608 1_545
Co0 Y3 3.290398 1_655
Co0 Y0 3.290411 1_554
Co1 Y5 2.728387 1_455
Co1 Y6 2.728394 1_555
Co1 Y8 2.895599 1_455
Co1 Y11 2.895603 1_566
Co1 Y9 2.895608 1_456
Co1 Y10 2.895608 1_565
Co1 Y2 3.290398 1_455
Co1 Y1 3.290411 1_556
Rh0 Y0 2.768510 1_554
Rh0 Y2 2.768514 1_555
Rh0 Y5 2.991904 1_555
Rh0 Y6 2.991906 1_655
Rh0 Y4 2.991906 1_555
Rh0 Y7 2.991909 1_655
Rh0 Y9 3.033676 1_555
Rh0 Y11 3.033682 1_555
Rh0 Rh1 3.210078 1_655
Rh1 Y1 2.768510 1_556
Rh1 Y3 2.768514 1_555
Rh1 Y7 2.991904 1_555
Rh1 Y4 2.991906 1_455
Rh1 Y6 2.991906 1_555
Rh1 Y5 2.991909 1_455
Rh1 Y10 3.033676 1_555
Rh1 Y8 3.033682 1_555
