# generated using pymatgen
data_Cs2Hg(ClF)2
_symmetry_space_group_name_H-M   'P 1'
_cell_length_a   8.74828768
_cell_length_b   8.74828737
_cell_length_c   6.96700752
_cell_angle_alpha   90.00000000
_cell_angle_beta   90.00000000
_cell_angle_gamma   133.06923251
_symmetry_Int_Tables_number   1
_chemical_formula_structural   Cs2Hg(ClF)2
_chemical_formula_sum   'Cs4 Hg2 Cl4 F4'
_cell_volume   389.52011274
_cell_formula_units_Z   2
loop_
 _symmetry_equiv_pos_site_id
 _symmetry_equiv_pos_as_xyz
  1  'x, y, z'
loop_
 _atom_site_type_symbol
 _atom_site_label
 _atom_site_symmetry_multiplicity
 _atom_site_fract_x
 _atom_site_fract_y
 _atom_site_fract_z
 _atom_site_occupancy
  Cs  Cs0  1  0.12102422  0.87897578  0.50000000  1
  Cs  Cs1  1  0.62102422  0.37897578  0.00000000  1
  Cs  Cs2  1  0.87897578  0.12102422  0.50000000  1
  Cs  Cs3  1  0.37897578  0.62102422  0.00000000  1
  Hg  Hg0  1  0.00000000  0.00000000  0.00000000  1
  Hg  Hg1  1  0.50000000  0.50000000  0.50000000  1
  Cl  Cl0  1  0.15571539  0.84428461  0.00000000  1
  Cl  Cl1  1  0.84428461  0.15571539  0.00000000  1
  Cl  Cl2  1  0.65571539  0.34428461  0.50000000  1
  Cl  Cl3  1  0.34428461  0.65571539  0.50000000  1
  F  F0  1  0.25004256  0.25004256  0.25001289  1
  F  F1  1  0.74995744  0.74995744  0.74998711  1
  F  F2  1  0.75004256  0.75004256  0.24998711  1
  F  F3  1  0.24995744  0.24995744  0.75001289  1
loop_
_geom_bond_atom_site_label_1
_geom_bond_atom_site_label_2
_geom_bond_distance
_geom_bond_site_symmetry_2
Cs0 F3 3.136814 1_565
Cs0 F2 3.136814 1_455
Cs0 F0 3.137044 1_565
Cs0 F1 3.137044 1_455
Cs1 F1 3.136814 1_554
Cs1 F0 3.136814 1_555
Cs1 F2 3.137044 1_555
Cs1 F3 3.137044 1_554
Cs2 F2 3.136814 1_545
Cs2 F3 3.136814 1_655
Cs2 F1 3.137044 1_545
Cs2 F0 3.137044 1_655
Cs3 F0 3.136814 1_555
Cs3 F1 3.136814 1_554
Cs3 F3 3.137044 1_554
Cs3 F2 3.137044 1_555
Cl0 Hg0 2.499173 1_565
Cl0 Cs0 3.527719 1_555
Cl0 Cs0 3.527719 1_554
Cl0 Cs1 3.527739 1_565
Cl0 Cs1 3.527739 1_455
Cl0 Cs3 3.583245 1_555
Cl1 Hg0 2.499173 1_655
Cl1 Cs2 3.527719 1_555
Cl1 Cs2 3.527719 1_554
Cl1 Cs3 3.527739 1_545
Cl1 Cs3 3.527739 1_655
Cl1 Cs1 3.583245 1_555
Cl2 Hg1 2.499173 1_555
Cl2 Cs1 3.527719 1_555
Cl2 Cs1 3.527719 1_556
Cl2 Cs0 3.527739 1_655
Cl2 Cs0 3.527739 1_545
Cl2 Cs2 3.583245 1_555
Cl3 Hg1 2.499173 1_555
Cl3 Cs3 3.527719 1_556
Cl3 Cs3 3.527719 1_555
Cl3 Cs2 3.527739 1_455
Cl3 Cs2 3.527739 1_565
Cl3 Cs0 3.583245 1_555
F0 Hg1 2.462943 1_555
F0 Hg0 2.463489 1_555
F1 Hg1 2.462943 1_555
F1 Hg0 2.463489 1_666
F2 Hg0 2.462943 1_665
F2 Hg1 2.463489 1_555
F3 Hg0 2.462943 1_556
F3 Hg1 2.463489 1_555
