# generated using pymatgen
data_Nb3Tc2Ge3Pt
_symmetry_space_group_name_H-M   'P 1'
_cell_length_a   6.67740890
_cell_length_b   7.55732251
_cell_length_c   7.58344296
_cell_angle_alpha   119.88612216
_cell_angle_beta   116.12062465
_cell_angle_gamma   89.99999772
_symmetry_Int_Tables_number   1
_chemical_formula_structural   Nb3Tc2Ge3Pt
_chemical_formula_sum   'Nb6 Tc4 Ge6 Pt2'
_cell_volume   285.83538149
_cell_formula_units_Z   2
loop_
 _symmetry_equiv_pos_site_id
 _symmetry_equiv_pos_as_xyz
  1  'x, y, z'
loop_
 _atom_site_type_symbol
 _atom_site_label
 _atom_site_symmetry_multiplicity
 _atom_site_fract_x
 _atom_site_fract_y
 _atom_site_fract_z
 _atom_site_occupancy
  Nb  Nb0  1  0.89765015  0.95326765  0.40653329  1
  Nb  Nb1  1  0.49111685  0.04673235  0.59346671  1
  Nb  Nb2  1  0.50599110  0.51024426  0.52048853  1
  Nb  Nb3  1  0.98550258  0.48975574  0.47951147  1
  Nb  Nb4  1  0.10018665  0.74829854  0.99659708  1
  Nb  Nb5  1  0.10358757  0.25170146  0.00340292  1
  Tc  Tc0  1  0.24643794  0.92183828  0.75611650  1
  Tc  Tc1  1  0.49032244  0.07816172  0.24388350  1
  Tc  Tc2  1  0.24643794  0.33427722  0.75611650  1
  Tc  Tc3  1  0.49032244  0.66572278  0.24388350  1
  Ge  Ge0  1  0.16544164  0.67242729  0.33369685  1
  Ge  Ge1  1  0.83174479  0.32757271  0.66630315  1
  Ge  Ge2  1  0.16544164  0.16126856  0.33369685  1
  Ge  Ge3  1  0.83174479  0.83873144  0.66630315  1
  Ge  Ge4  1  0.46037429  0.70580172  0.91160543  1
  Ge  Ge5  1  0.54876986  0.29419828  0.08839457  1
  Pt  Pt0  1  0.74846216  0.50000000  0.00000000  1
  Pt  Pt1  1  0.74846216  0.00000000  0.00000000  1
loop_
_geom_bond_atom_site_label_1
_geom_bond_atom_site_label_2
_geom_bond_distance
_geom_bond_site_symmetry_2
Nb0 Tc2 2.774802 1_665
Nb0 Tc0 2.774814 1_655
Nb0 Tc1 2.831301 1_565
Nb0 Tc3 2.831305 1_555
Nb0 Pt1 3.000389 1_565
Nb0 Pt0 3.000399 1_555
Nb1 Tc3 2.774805 1_545
Nb1 Tc1 2.774817 1_555
Nb1 Tc0 2.831306 1_545
Nb1 Tc2 2.831310 1_555
Nb1 Pt1 3.000389 1_556
Nb1 Pt0 3.000399 1_556
Nb2 Tc1 2.838048 1_555
Nb2 Tc3 2.838054 1_555
Nb2 Pt0 3.308605 1_556
Nb2 Pt1 3.308606 1_566
Nb3 Tc0 2.838046 1_655
Nb3 Tc2 2.838051 1_655
Nb3 Pt0 3.308605 1_555
Nb3 Pt1 3.308606 1_555
Nb4 Tc3 2.749049 1_556
Nb4 Tc1 2.749054 1_566
Nb4 Pt1 3.023144 1_466
Nb4 Pt0 3.023144 1_456
Nb5 Tc2 2.749054 1_554
Nb5 Tc0 2.749058 1_544
Nb5 Pt0 3.023133 1_455
Nb5 Pt1 3.023133 1_455
Ge0 Pt0 2.522704 1_455
Ge0 Tc3 2.537559 1_555
Ge0 Tc0 2.562082 1_555
Ge0 Nb3 2.695064 1_455
Ge0 Nb1 2.699301 1_565
Ge0 Nb4 2.744743 1_554
Ge0 Nb2 2.752040 1_555
Ge0 Nb5 2.776057 1_555
Ge0 Nb0 2.776433 1_455
Ge1 Pt0 2.522704 1_556
Ge1 Tc2 2.537553 1_655
Ge1 Tc1 2.562080 1_555
Ge1 Nb2 2.695064 1_555
Ge1 Nb0 2.699301 1_545
Ge1 Nb5 2.744739 1_656
Ge1 Nb3 2.752041 1_555
Ge1 Nb4 2.776061 1_655
Ge1 Nb1 2.776433 1_555
Ge2 Pt1 2.522704 1_455
Ge2 Tc1 2.537558 1_555
Ge2 Tc2 2.562082 1_555
Ge2 Nb3 2.695069 1_455
Ge2 Nb1 2.699306 1_555
Ge2 Nb4 2.744738 1_544
Ge2 Nb2 2.752046 1_555
Ge2 Nb5 2.776062 1_555
Ge2 Nb0 2.776418 1_445
Ge3 Pt1 2.522704 1_566
Ge3 Tc0 2.537551 1_655
Ge3 Tc3 2.562080 1_555
Ge3 Nb2 2.695069 1_555
Ge3 Nb0 2.699306 1_555
Ge3 Nb5 2.744735 1_666
Ge3 Nb3 2.752046 1_555
Ge3 Nb4 2.776066 1_655
Ge3 Nb1 2.776418 1_565
Ge4 Pt0 2.544096 1_556
Ge4 Pt1 2.544108 1_566
Ge4 Tc2 2.555767 1_555
Ge4 Tc0 2.555773 1_555
Ge4 Tc3 2.607313 1_556
Ge4 Tc1 2.607327 1_566
Ge4 Nb4 2.731638 1_555
Ge4 Nb2 2.738858 1_555
Ge4 Nb3 2.996178 1_455
Ge4 Nb0 3.076585 1_556
Ge5 Pt0 2.544092 1_555
Ge5 Pt1 2.544103 1_555
Ge5 Tc3 2.555767 1_555
Ge5 Tc1 2.555773 1_555
Ge5 Tc2 2.607318 1_554
Ge5 Tc0 2.607331 1_544
Ge5 Nb5 2.731657 1_555
Ge5 Nb3 2.738854 1_555
Ge5 Nb2 2.996182 1_555
Ge5 Nb1 3.076582 1_554
Pt0 Tc3 2.908437 1_555
Pt0 Tc2 2.908442 1_554
Pt1 Tc1 2.908436 1_555
Pt1 Tc0 2.908442 1_544
