# generated using pymatgen
data_MgZr3Pd11Pt
_symmetry_space_group_name_H-M   'P 1'
_cell_length_a   5.64803712
_cell_length_b   5.64806637
_cell_length_c   9.19890906
_cell_angle_alpha   90.00000000
_cell_angle_beta   90.00000000
_cell_angle_gamma   120.00232047
_symmetry_Int_Tables_number   1
_chemical_formula_structural   MgZr3Pd11Pt
_chemical_formula_sum   'Mg1 Zr3 Pd11 Pt1'
_cell_volume   254.12894597
_cell_formula_units_Z   1
loop_
 _symmetry_equiv_pos_site_id
 _symmetry_equiv_pos_as_xyz
  1  'x, y, z'
loop_
 _atom_site_type_symbol
 _atom_site_label
 _atom_site_symmetry_multiplicity
 _atom_site_fract_x
 _atom_site_fract_y
 _atom_site_fract_z
 _atom_site_occupancy
  Mg  Mg0  1  0.33339227  0.66660714  0.25000000  1
  Zr  Zr0  1  0.00092108  0.99907823  0.49806314  1
  Zr  Zr1  1  0.00092108  0.99907823  0.00193686  1
  Zr  Zr2  1  0.66544000  0.33456115  0.75000000  1
  Pd  Pd0  1  0.50042942  0.49957036  0.49935560  1
  Pd  Pd1  1  0.50125839  0.00027308  0.49987704  1
  Pd  Pd2  1  0.99972286  0.49874572  0.49986675  1
  Pd  Pd3  1  0.50042942  0.49957036  0.00064440  1
  Pd  Pd4  1  0.50125839  0.00027308  0.00012296  1
  Pd  Pd5  1  0.99972286  0.49874572  0.00013325  1
  Pd  Pd6  1  0.83079330  0.66163192  0.25000000  1
  Pd  Pd7  1  0.33836842  0.16920625  0.25000000  1
  Pd  Pd8  1  0.82952644  0.17047184  0.25000000  1
  Pd  Pd9  1  0.16887526  0.33938310  0.75000000  1
  Pd  Pd10  1  0.66061761  0.83112561  0.75000000  1
  Pt  Pt0  1  0.16832620  0.83167521  0.75000000  1
loop_
_geom_bond_atom_site_label_1
_geom_bond_atom_site_label_2
_geom_bond_distance
_geom_bond_site_symmetry_2
Mg0 Pd0 2.816341 1_555
Mg0 Pd3 2.816341 1_555
Mg0 Pd2 2.818996 1_455
Mg0 Pd5 2.818996 1_455
Mg0 Pd1 2.819069 1_565
Mg0 Pd4 2.819069 1_565
Mg0 Pd6 2.823495 1_555
Mg0 Pd7 2.823512 1_555
Mg0 Pd8 2.824177 1_565
Mg0 Pd8 2.824183 1_455
Mg0 Pd6 2.824751 1_455
Mg0 Pd7 2.824764 1_565
Pd0 Pd6 2.805871 1_555
Pd0 Pd7 2.805877 1_555
Pd0 Zr2 2.814585 1_555
Pd0 Pd9 2.819039 1_555
Pd0 Pd10 2.819047 1_555
Pd0 Pd2 2.822364 1_555
Pd0 Pd1 2.822412 1_555
Pd0 Zr0 2.823955 1_655
Pd0 Zr0 2.823957 1_545
Pd0 Pd1 2.825668 1_565
Pd0 Pd2 2.825687 1_455
Pd1 Pd8 2.804064 1_555
Pd1 Pd10 2.806549 1_545
Pd1 Pd7 2.813936 1_555
Pd1 Pd2 2.815277 1_555
Pd1 Pt0 2.818853 1_545
Pd1 Zr0 2.822605 1_545
Pd1 Zr2 2.822719 1_555
Pd1 Zr0 2.825543 1_645
Pd1 Pd2 2.832576 1_445
Pd2 Pd8 2.804007 1_555
Pd2 Pd9 2.806650 1_655
Pd2 Pd6 2.813838 1_555
Pd2 Pt0 2.818928 1_655
Pd2 Zr0 2.822582 1_655
Pd2 Zr2 2.822777 1_555
Pd2 Zr0 2.825594 1_645
Pd3 Pd6 2.805871 1_555
Pd3 Pd7 2.805877 1_555
Pd3 Zr2 2.814585 1_554
Pd3 Pd9 2.819039 1_554
Pd3 Pd5 2.822364 1_555
Pd3 Pd4 2.822412 1_555
Pd3 Zr1 2.823955 1_655
Pd3 Zr1 2.823957 1_545
Pd3 Pd4 2.825668 1_565
Pd3 Pd5 2.825687 1_455
Pd4 Pd8 2.804064 1_555
Pd4 Pd7 2.813936 1_555
Pd4 Pd5 2.815277 1_555
Pd4 Pt0 2.818853 1_544
Pd4 Zr1 2.822605 1_545
Pd4 Zr2 2.822719 1_554
Pd4 Zr1 2.825543 1_645
Pd4 Pd5 2.832576 1_445
Pd5 Pd8 2.804007 1_555
Pd5 Pd9 2.806650 1_654
Pd5 Pd6 2.813838 1_555
Pd5 Pt0 2.818928 1_654
Pd5 Zr1 2.822582 1_655
Pd5 Zr2 2.822777 1_554
Pd5 Zr1 2.825594 1_645
Pd6 Pd8 2.770534 1_555
Pd6 Pd7 2.781146 1_555
Pd6 Zr0 2.816282 1_655
Pd6 Zr1 2.816282 1_655
Pd6 Pd7 2.866708 1_665
Pd6 Pd8 2.877546 1_565
Pd7 Pd8 2.770511 1_555
Pd7 Zr0 2.816280 1_545
Pd7 Zr1 2.816280 1_545
Pd7 Pd8 2.877539 1_455
Pd8 Zr0 2.831696 1_645
Pd8 Zr1 2.831696 1_645
Pd9 Pt0 2.782051 1_555
Pd9 Zr2 2.818333 1_555
Pd9 Zr2 2.829901 1_455
Pd9 Zr1 2.853382 1_546
Pd9 Zr0 2.853382 1_545
Pd9 Pt0 2.866018 1_545
Pd10 Pd9 2.777289 1_555
Pd10 Pt0 2.782034 1_555
Pd10 Pd4 2.806549 1_566
Pd10 Zr2 2.818347 1_555
Pd10 Pd3 2.819047 1_556
Pd10 Zr2 2.829916 1_565
Pd10 Zr1 2.853373 1_656
Pd10 Zr0 2.853373 1_655
Pd10 Pt0 2.866006 1_655
Pd10 Pd9 2.870564 1_665
Pt0 Zr2 2.824067 1_565
Pt0 Zr2 2.824069 1_455
Pt0 Zr1 2.837785 1_556
Pt0 Zr0 2.837785 1_555
