# generated using pymatgen
data_Al2Pb(SeO3)4
_symmetry_space_group_name_H-M   'P 1'
_cell_length_a   6.64334736
_cell_length_b   9.11691872
_cell_length_c   9.05757063
_cell_angle_alpha   68.50722040
_cell_angle_beta   95.71910632
_cell_angle_gamma   90.41496217
_symmetry_Int_Tables_number   1
_chemical_formula_structural   Al2Pb(SeO3)4
_chemical_formula_sum   'Al4 Pb2 Se8 O24'
_cell_volume   507.64716278
_cell_formula_units_Z   2
loop_
 _symmetry_equiv_pos_site_id
 _symmetry_equiv_pos_as_xyz
  1  'x, y, z'
loop_
 _atom_site_type_symbol
 _atom_site_label
 _atom_site_symmetry_multiplicity
 _atom_site_fract_x
 _atom_site_fract_y
 _atom_site_fract_z
 _atom_site_occupancy
  Al  Al0  1  0.00010393  0.75051715  0.75044265  1
  Al  Al1  1  0.50006941  0.74922759  0.24991275  1
  Al  Al2  1  0.00009262  0.25049505  0.25044791  1
  Al  Al3  1  0.50005944  0.24922816  0.74989268  1
  Pb  Pb0  1  0.00862201  0.53335047  0.47668604  1
  Pb  Pb1  1  0.00862241  0.03337936  0.97669063  1
  Se  Se0  1  0.55056746  0.12246137  0.13462123  1
  Se  Se1  1  0.55055175  0.62245628  0.63464108  1
  Se  Se2  1  0.44980346  0.87519884  0.86800688  1
  Se  Se3  1  0.44979925  0.37523841  0.36796861  1
  Se  Se4  1  0.79240986  0.09330376  0.57357525  1
  Se  Se5  1  0.79243398  0.59327436  0.07360153  1
  Se  Se6  1  0.20669333  0.91105792  0.42320540  1
  Se  Se7  1  0.20668572  0.41107209  0.92319951  1
  O  O0  1  0.72045770  0.72218365  0.70922001  1
  O  O1  1  0.72045092  0.22220746  0.20921332  1
  O  O2  1  0.28068724  0.27619399  0.29099263  1
  O  O3  1  0.28069685  0.77617044  0.79102042  1
  O  O4  1  0.98342025  0.18756153  0.47009937  1
  O  O5  1  0.98341634  0.68756131  0.97011229  1
  O  O6  1  0.01710786  0.81227119  0.52842612  1
  O  O7  1  0.01710458  0.31227122  0.02842923  1
  O  O8  1  0.64593933  0.62872256  0.46014346  1
  O  O9  1  0.64594030  0.12871969  0.96012132  1
  O  O10  1  0.35538313  0.36855055  0.54218480  1
  O  O11  1  0.35536755  0.86854430  0.04220682  1
  O  O12  1  0.93122893  0.95702575  0.73516804  1
  O  O13  1  0.93126358  0.45700973  0.23519560  1
  O  O14  1  0.06802869  0.04323774  0.26045100  1
  O  O15  1  0.06800989  0.54325030  0.76044384  1
  O  O16  1  0.60524322  0.93483545  0.26470556  1
  O  O17  1  0.60524834  0.43482327  0.76472292  1
  O  O18  1  0.38833407  0.06331696  0.74099455  1
  O  O19  1  0.38831508  0.56334515  0.24097197  1
  O  O20  1  0.74419291  0.22377366  0.66383930  1
  O  O21  1  0.74419856  0.72375291  0.16386498  1
  O  O22  1  0.25761494  0.77179406  0.34318521  1
  O  O23  1  0.25763610  0.27181131  0.84319108  1
loop_
_geom_bond_atom_site_label_1
_geom_bond_atom_site_label_2
_geom_bond_distance
_geom_bond_site_symmetry_2
Al0 O5 1.872630 1_455
Al0 O12 1.892654 1_455
Al0 O0 1.892877 1_455
Al0 O3 1.893328 1_555
Al0 O6 1.894285 1_555
Al0 O15 1.913429 1_555
Al1 O16 1.870814 1_555
Al1 O19 1.870837 1_555
Al1 O21 1.918788 1_555
Al1 O22 1.937473 1_555
Al1 O11 1.949833 1_555
Al1 O8 1.971468 1_555
Al2 O4 1.872473 1_455
Al2 O13 1.892697 1_455
Al2 O1 1.892780 1_455
Al2 O2 1.893374 1_555
Al2 O7 1.894294 1_555
Al2 O14 1.913386 1_555
Al3 O17 1.870866 1_555
Al3 O18 1.870874 1_555
Al3 O20 1.918790 1_555
Al3 O23 1.937465 1_555
Al3 O10 1.949789 1_555
Al3 O9 1.971490 1_555
O0 Se1 1.685302 1_555
O1 Se0 1.685388 1_555
O2 Se3 1.689434 1_555
O3 Se2 1.689364 1_555
O4 Se4 1.690614 1_555
O5 Se5 1.690598 1_556
O6 Se6 1.702810 1_555
O6 Pb0 2.748641 1_555
O7 Se7 1.702864 1_554
O7 Pb1 2.748375 1_554
O8 Se1 1.742359 1_555
O8 Pb0 2.539044 1_655
O9 Se0 1.742356 1_556
O9 Pb1 2.538907 1_655
O10 Se3 1.735903 1_555
O10 Pb0 2.653448 1_555
O11 Se2 1.735917 1_554
O11 Pb1 2.653504 1_564
O12 Se4 1.717974 1_565
O12 Pb1 2.533982 1_665
O13 Se5 1.717962 1_555
O13 Pb0 2.533612 1_655
O14 Se6 1.708110 1_545
O14 Pb1 2.595429 1_554
O15 Se7 1.708144 1_555
O15 Pb0 2.595549 1_555
O16 Se0 1.700906 1_565
O17 Se1 1.700969 1_555
O18 Se2 1.703640 1_545
O19 Se3 1.703538 1_555
O20 Se4 1.719368 1_555
O21 Se5 1.719461 1_555
O22 Se6 1.726613 1_555
O22 Pb0 2.710064 1_555
O23 Se7 1.726559 1_555
O23 Pb1 2.710083 1_555
