# generated using pymatgen
data_BeV(BW2)2
_symmetry_space_group_name_H-M   'P 1'
_cell_length_a   6.84603381
_cell_length_b   6.84603338
_cell_length_c   6.84603242
_cell_angle_alpha   129.20403527
_cell_angle_beta   129.20402474
_cell_angle_gamma   74.68249971
_symmetry_Int_Tables_number   1
_chemical_formula_structural   BeV(BW2)2
_chemical_formula_sum   'Be2 V2 B4 W8'
_cell_volume   187.70819711
_cell_formula_units_Z   2
loop_
 _symmetry_equiv_pos_site_id
 _symmetry_equiv_pos_as_xyz
  1  'x, y, z'
loop_
 _atom_site_type_symbol
 _atom_site_label
 _atom_site_symmetry_multiplicity
 _atom_site_fract_x
 _atom_site_fract_y
 _atom_site_fract_z
 _atom_site_occupancy
  Be  Be0  1  0.25000000  0.25000000  0.00000000  1
  Be  Be1  1  0.75000000  0.75000000  0.00000000  1
  V  V0  1  0.00000000  0.00000000  0.00000000  1
  V  V1  1  0.50000000  0.50000000  0.00000000  1
  B  B0  1  0.62216105  0.12216105  0.74432110  1
  B  B1  1  0.12216105  0.37783895  0.50000000  1
  B  B2  1  0.87783895  0.62216105  0.50000000  1
  B  B3  1  0.37783895  0.87783895  0.25567890  1
  W  W0  1  0.52564213  0.68970501  0.50000000  1
  W  W1  1  0.02564213  0.52564213  0.83593612  1
  W  W2  1  0.68970501  0.18970501  0.16406388  1
  W  W3  1  0.97435787  0.47435787  0.16406388  1
  W  W4  1  0.18970501  0.02564213  0.50000000  1
  W  W5  1  0.47435787  0.31029499  0.50000000  1
  W  W6  1  0.81029499  0.97435787  0.50000000  1
  W  W7  1  0.31029499  0.81029499  0.83593612  1
loop_
_geom_bond_atom_site_label_1
_geom_bond_atom_site_label_2
_geom_bond_distance
_geom_bond_site_symmetry_2
Be0 W7 2.479686 1_544
Be0 W2 2.479687 1_555
Be0 W4 2.479687 1_554
Be0 W5 2.479688 1_555
Be0 W0 2.479688 1_555
Be0 W6 2.479688 1_444
Be0 W3 2.479691 1_455
Be0 W1 2.479692 1_554
Be0 V0 2.721425 1_555
Be0 V1 2.721425 1_555
Be1 W2 2.479686 1_565
Be1 W7 2.479687 1_554
Be1 W6 2.479687 1_555
Be1 W0 2.479688 1_554
Be1 W5 2.479688 1_554
Be1 W4 2.479688 1_665
Be1 W1 2.479691 1_654
Be1 W3 2.479692 1_555
Be1 V0 2.721425 1_665
Be1 V1 2.721425 1_555
V0 W3 2.678697 1_455
V0 W1 2.678697 1_544
V0 W4 2.678699 1_555
V0 W6 2.678699 1_444
V0 W5 2.678700 1_555
V0 W0 2.678700 1_444
V0 W7 2.678703 1_544
V0 W2 2.678703 1_455
V1 W3 2.678697 1_555
V1 W1 2.678697 1_554
V1 W5 2.678699 1_554
V1 W0 2.678699 1_555
V1 W6 2.678699 1_555
V1 W4 2.678699 1_554
V1 W7 2.678703 1_554
V1 W2 2.678703 1_555
B0 B3 2.029104 1_545
B0 W6 2.318556 1_545
B0 W5 2.318556 1_555
B0 W0 2.318563 1_545
B0 W4 2.318563 1_555
B0 V1 2.331980 1_556
B0 V0 2.331980 1_656
B0 W3 2.332039 1_556
B0 W2 2.332053 1_556
B1 B2 2.029113 1_455
B1 W1 2.318555 1_555
B1 W3 2.318555 1_455
B1 W7 2.318562 1_555
B1 W2 2.318563 1_455
B1 V0 2.331978 1_555
B1 V1 2.331978 1_556
B1 W4 2.332040 1_555
B1 W5 2.332040 1_555
B2 W3 2.318555 1_555
B2 W1 2.318555 1_655
B2 W2 2.318562 1_555
B2 W7 2.318563 1_655
B2 V0 2.331978 1_666
B2 V1 2.331978 1_555
B2 W6 2.332040 1_555
B2 W0 2.332040 1_555
B3 W4 2.318556 1_565
B3 W0 2.318556 1_555
B3 W5 2.318563 1_565
B3 W6 2.318563 1_555
B3 V1 2.331980 1_555
B3 V0 2.331980 1_565
B3 W1 2.332039 1_554
B3 W7 2.332053 1_554
