# generated using pymatgen
data_Sc3Al2CuO
_symmetry_space_group_name_H-M   'P 1'
_cell_length_a   8.49088790
_cell_length_b   8.49088806
_cell_length_c   8.49088695
_cell_angle_alpha   59.99999665
_cell_angle_beta   59.99999603
_cell_angle_gamma   59.99999798
_symmetry_Int_Tables_number   1
_chemical_formula_structural   Sc3Al2CuO
_chemical_formula_sum   'Sc12 Al8 Cu4 O4'
_cell_volume   432.85680828
_cell_formula_units_Z   4
loop_
 _symmetry_equiv_pos_site_id
 _symmetry_equiv_pos_as_xyz
  1  'x, y, z'
loop_
 _atom_site_type_symbol
 _atom_site_label
 _atom_site_symmetry_multiplicity
 _atom_site_fract_x
 _atom_site_fract_y
 _atom_site_fract_z
 _atom_site_occupancy
  Sc  Sc0  1  0.81230563  0.81230563  0.18769437  1
  Sc  Sc1  1  0.06230563  0.43769437  0.43769437  1
  Sc  Sc2  1  0.43769437  0.06230563  0.06230563  1
  Sc  Sc3  1  0.06230563  0.06230563  0.43769437  1
  Sc  Sc4  1  0.06230563  0.43769437  0.06230563  1
  Sc  Sc5  1  0.43769437  0.06230563  0.43769437  1
  Sc  Sc6  1  0.18769437  0.81230563  0.18769437  1
  Sc  Sc7  1  0.18769437  0.81230563  0.81230563  1
  Sc  Sc8  1  0.81230563  0.18769437  0.18769437  1
  Sc  Sc9  1  0.81230563  0.18769437  0.81230563  1
  Sc  Sc10  1  0.43769437  0.43769437  0.06230563  1
  Sc  Sc11  1  0.18769437  0.18769437  0.81230563  1
  Al  Al0  1  0.42011792  0.73964625  0.42011792  1
  Al  Al1  1  0.82988208  0.82988208  0.51035375  1
  Al  Al2  1  0.51035375  0.82988208  0.82988208  1
  Al  Al3  1  0.82988208  0.82988208  0.82988208  1
  Al  Al4  1  0.73964625  0.42011792  0.42011792  1
  Al  Al5  1  0.42011792  0.42011792  0.42011792  1
  Al  Al6  1  0.42011792  0.42011792  0.73964625  1
  Al  Al7  1  0.82988208  0.51035375  0.82988208  1
  Cu  Cu0  1  0.62500000  0.12500000  0.62500000  1
  Cu  Cu1  1  0.62500000  0.62500000  0.12500000  1
  Cu  Cu2  1  0.12500000  0.62500000  0.62500000  1
  Cu  Cu3  1  0.62500000  0.62500000  0.62500000  1
  O  O0  1  0.12500000  0.62500000  0.12500000  1
  O  O1  1  0.12500000  0.12500000  0.62500000  1
  O  O2  1  0.62500000  0.12500000  0.12500000  1
  O  O3  1  0.12500000  0.12500000  0.12500000  1
loop_
_geom_bond_atom_site_label_1
_geom_bond_atom_site_label_2
_geom_bond_distance
_geom_bond_site_symmetry_2
Al0 Cu1 2.576755 1_555
Al0 Cu3 2.576755 1_555
Al0 Cu2 2.576755 1_555
Al0 Al6 2.713079 1_555
Al0 Al4 2.713079 1_555
Al0 Al5 2.713079 1_555
Al0 Sc2 2.896603 1_565
Al0 Sc3 2.896604 1_565
Al0 Sc5 2.896604 1_565
Al0 Sc7 3.103137 1_555
Al0 Sc6 3.103138 1_555
Al0 Sc0 3.103138 1_555
Al1 Cu2 2.576755 1_655
Al1 Cu0 2.576755 1_565
Al1 Cu3 2.576755 1_555
Al1 Al2 2.713079 1_555
Al1 Al3 2.713079 1_555
Al1 Al7 2.713079 1_555
Al1 Sc6 2.896603 1_655
Al1 Sc0 2.896603 1_555
Al1 Sc8 2.896603 1_565
Al1 Sc5 3.103138 1_565
Al1 Sc1 3.103138 1_655
Al1 Sc3 3.103138 1_665
Al2 Cu1 2.576755 1_556
Al2 Cu3 2.576755 1_555
Al2 Cu0 2.576755 1_565
Al2 Al7 2.713079 1_555
Al2 Al3 2.713079 1_555
Al2 Sc6 2.896603 1_556
Al2 Sc11 2.896604 1_565
Al2 Sc7 2.896604 1_555
Al2 Sc5 3.103137 1_565
Al2 Sc2 3.103138 1_566
Al2 Sc10 3.103138 1_556
Al3 Cu1 2.576755 1_556
Al3 Cu2 2.576755 1_655
Al3 Cu0 2.576755 1_565
Al3 Al7 2.713079 1_555
Al3 Sc0 2.896603 1_556
Al3 Sc7 2.896604 1_655
Al3 Sc9 2.896604 1_565
Al3 Sc3 3.103138 1_665
Al3 Sc2 3.103138 1_566
Al3 Sc4 3.103138 1_656
Al4 Cu1 2.576755 1_555
Al4 Cu3 2.576755 1_555
Al4 Cu0 2.576755 1_555
Al4 Al6 2.713079 1_555
Al4 Al5 2.713079 1_555
Al4 Sc4 2.896603 1_655
Al4 Sc3 2.896604 1_655
Al4 Sc1 2.896604 1_655
Al4 Sc9 3.103137 1_555
Al4 Sc8 3.103138 1_555
Al4 Sc0 3.103138 1_555
Al5 Cu1 2.576755 1_555
Al5 Cu2 2.576755 1_555
Al5 Cu0 2.576755 1_555
Al5 Al6 2.713079 1_555
Al5 Sc10 2.896603 1_555
Al5 Sc1 2.896604 1_555
Al5 Sc5 2.896604 1_555
Al5 Sc11 3.103138 1_555
Al5 Sc8 3.103138 1_555
Al5 Sc6 3.103138 1_555
Al6 Cu2 2.576755 1_555
Al6 Cu0 2.576755 1_555
Al6 Cu3 2.576755 1_555
Al6 Sc4 2.896603 1_556
Al6 Sc10 2.896603 1_556
Al6 Sc2 2.896603 1_556
Al6 Sc9 3.103138 1_555
Al6 Sc7 3.103138 1_555
Al6 Sc11 3.103138 1_555
Al7 Cu1 2.576755 1_556
Al7 Cu3 2.576755 1_555
Al7 Cu2 2.576755 1_655
Al7 Sc8 2.896603 1_556
Al7 Sc11 2.896604 1_655
Al7 Sc9 2.896604 1_555
Al7 Sc1 3.103137 1_655
Al7 Sc4 3.103138 1_656
Al7 Sc10 3.103138 1_556
Cu0 Sc2 3.092674 1_556
Cu0 Sc8 3.092674 1_555
Cu0 Sc3 3.092675 1_655
Cu0 Sc11 3.092675 1_555
Cu0 Sc9 3.092675 1_555
Cu0 Sc5 3.092675 1_555
Cu1 Sc4 3.092675 1_655
Cu1 Sc6 3.092675 1_555
Cu1 Sc2 3.092675 1_565
Cu1 Sc8 3.092675 1_555
Cu1 Sc0 3.092675 1_555
Cu1 Sc10 3.092675 1_555
Cu2 Sc4 3.092674 1_556
Cu2 Sc6 3.092674 1_555
Cu2 Sc7 3.092675 1_555
Cu2 Sc1 3.092675 1_555
Cu2 Sc3 3.092675 1_565
Cu2 Sc11 3.092675 1_555
Cu3 Sc10 3.092674 1_556
Cu3 Sc0 3.092674 1_555
Cu3 Sc7 3.092674 1_555
Cu3 Sc1 3.092674 1_655
Cu3 Sc5 3.092675 1_565
Cu3 Sc9 3.092675 1_555
O0 Sc1 2.252265 1_555
O0 Sc7 2.252265 1_554
O0 Sc10 2.252266 1_555
O0 Sc0 2.252266 1_455
O0 Sc6 2.252266 1_555
O0 Sc4 2.252266 1_555
O1 Sc5 2.252266 1_555
O1 Sc9 2.252266 1_455
O1 Sc11 2.252266 1_555
O1 Sc3 2.252266 1_555
O1 Sc1 2.252266 1_555
O1 Sc7 2.252266 1_545
O2 Sc5 2.252265 1_555
O2 Sc9 2.252265 1_554
O2 Sc10 2.252266 1_555
O2 Sc0 2.252266 1_545
O2 Sc8 2.252266 1_555
O2 Sc2 2.252266 1_555
O3 Sc3 2.252265 1_555
O3 Sc11 2.252265 1_554
O3 Sc2 2.252266 1_555
O3 Sc8 2.252266 1_455
O3 Sc4 2.252266 1_555
O3 Sc6 2.252266 1_545
