# generated using pymatgen
data_Lu3MnB7
_symmetry_space_group_name_H-M   'P 1'
_cell_length_a   7.86378568
_cell_length_b   7.86378513
_cell_length_c   9.16238004
_cell_angle_alpha   90.00000000
_cell_angle_beta   90.00000000
_cell_angle_gamma   155.48115062
_symmetry_Int_Tables_number   1
_chemical_formula_structural   Lu3MnB7
_chemical_formula_sum   'Lu6 Mn2 B14'
_cell_volume   235.13211115
_cell_formula_units_Z   2
loop_
 _symmetry_equiv_pos_site_id
 _symmetry_equiv_pos_as_xyz
  1  'x, y, z'
loop_
 _atom_site_type_symbol
 _atom_site_label
 _atom_site_symmetry_multiplicity
 _atom_site_fract_x
 _atom_site_fract_y
 _atom_site_fract_z
 _atom_site_occupancy
  Lu  Lu0  1  0.89415962  0.10584038  0.44092986  1
  Lu  Lu1  1  0.10584038  0.89415962  0.55907014  1
  Lu  Lu2  1  0.89415962  0.10584038  0.05907014  1
  Lu  Lu3  1  0.10584038  0.89415962  0.94092986  1
  Lu  Lu4  1  0.24372367  0.75627633  0.25000000  1
  Lu  Lu5  1  0.75627633  0.24372367  0.75000000  1
  Mn  Mn0  1  0.05282926  0.94717074  0.25000000  1
  Mn  Mn1  1  0.94717074  0.05282926  0.75000000  1
  B  B0  1  0.72784771  0.27215229  0.46585094  1
  B  B1  1  0.27215229  0.72784771  0.53414906  1
  B  B2  1  0.72784771  0.27215229  0.03414906  1
  B  B3  1  0.27215229  0.72784771  0.96585094  1
  B  B4  1  0.63113095  0.36886905  0.15146643  1
  B  B5  1  0.36886905  0.63113095  0.84853357  1
  B  B6  1  0.63113095  0.36886905  0.34853357  1
  B  B7  1  0.36886905  0.63113095  0.65146643  1
  B  B8  1  0.51960902  0.48039098  0.09587552  1
  B  B9  1  0.48039098  0.51960902  0.90412448  1
  B  B10  1  0.51960902  0.48039098  0.40412448  1
  B  B11  1  0.48039098  0.51960902  0.59587552  1
  B  B12  1  0.45453713  0.54546287  0.25000000  1
  B  B13  1  0.54546287  0.45453713  0.75000000  1
loop_
_geom_bond_atom_site_label_1
_geom_bond_atom_site_label_2
_geom_bond_distance
_geom_bond_site_symmetry_2
B0 B6 1.834368 1_555
B0 B1 1.908773 1_545
B0 B1 1.908773 1_655
B0 Lu0 2.566214 1_555
B0 Lu4 2.599816 1_545
B0 Lu4 2.599816 1_655
B0 Lu5 2.639889 1_555
B0 Lu1 2.652124 1_655
B0 Lu1 2.652124 1_545
B1 B7 1.834368 1_555
B1 Lu1 2.566214 1_555
B1 Lu5 2.599816 1_565
B1 Lu5 2.599816 1_455
B1 Lu4 2.639889 1_555
B1 Lu0 2.652124 1_455
B1 Lu0 2.652124 1_565
B2 B4 1.834368 1_555
B2 B3 1.908773 1_544
B2 B3 1.908773 1_654
B2 Lu2 2.566214 1_555
B2 Lu4 2.599816 1_545
B2 Lu4 2.599816 1_655
B2 Lu5 2.639889 1_554
B2 Lu3 2.652124 1_654
B2 Lu3 2.652124 1_544
B3 B5 1.834368 1_555
B3 Lu3 2.566214 1_555
B3 Lu5 2.599816 1_565
B3 Lu5 2.599816 1_455
B3 Lu4 2.639889 1_556
B3 Lu2 2.652124 1_456
B3 Lu2 2.652124 1_566
B4 B8 1.788053 1_555
B4 B6 1.805604 1_555
B4 Mn0 2.247539 1_655
B4 Mn0 2.247539 1_545
B4 Lu4 2.568582 1_545
B4 Lu4 2.568582 1_655
B4 Lu3 2.580767 1_654
B4 Lu3 2.580767 1_544
B5 B9 1.788053 1_555
B5 B7 1.805604 1_555
B5 Mn1 2.247539 1_455
B5 Mn1 2.247539 1_565
B5 Lu5 2.568582 1_565
B5 Lu5 2.568582 1_455
B5 Lu2 2.580767 1_456
B5 Lu2 2.580767 1_566
B6 Mn0 2.247539 1_655
B6 Mn0 2.247539 1_545
B6 Lu4 2.568582 1_545
B6 Lu4 2.568582 1_655
B6 Lu1 2.580767 1_655
B6 Lu1 2.580767 1_545
B7 Mn1 2.247539 1_455
B7 Mn1 2.247539 1_565
B7 Lu5 2.568582 1_565
B7 Lu5 2.568582 1_455
B7 Lu0 2.580767 1_455
B7 Lu0 2.580767 1_565
B8 B9 1.857412 1_554
B8 Mn0 2.245664 1_545
B8 Mn0 2.245664 1_655
B8 Lu3 2.561253 1_544
B8 Lu3 2.561253 1_654
B8 Lu2 2.572774 1_565
B8 Lu2 2.572774 1_455
B9 Mn1 2.245664 1_565
B9 Mn1 2.245664 1_455
B9 Lu2 2.561253 1_566
B9 Lu2 2.561253 1_456
B9 Lu3 2.572774 1_545
B9 Lu3 2.572774 1_655
B10 B12 1.730413 1_555
B10 B6 1.788053 1_555
B10 B11 1.857412 1_555
B10 Mn0 2.245664 1_545
B10 Mn0 2.245664 1_655
B10 Lu1 2.561253 1_545
B10 Lu1 2.561253 1_655
B10 Lu0 2.572774 1_565
B10 Lu0 2.572774 1_455
B11 B13 1.730413 1_555
B11 B7 1.788053 1_555
B11 Mn1 2.245664 1_565
B11 Mn1 2.245664 1_455
B11 Lu0 2.561253 1_565
B11 Lu0 2.561253 1_455
B11 Lu1 2.572774 1_545
B11 Lu1 2.572774 1_655
B12 B8 1.730413 1_555
B12 Mn0 2.251716 1_545
B12 Mn0 2.251716 1_655
B12 Lu0 2.590279 1_565
B12 Lu2 2.590279 1_565
B12 Lu0 2.590280 1_455
B12 Lu2 2.590280 1_455
B12 Lu4 3.239976 1_555
B13 B9 1.730413 1_555
B13 Mn1 2.251716 1_565
B13 Mn1 2.251716 1_455
B13 Lu3 2.590279 1_545
B13 Lu1 2.590279 1_545
B13 Lu3 2.590280 1_655
B13 Lu1 2.590280 1_655
B13 Lu5 3.239976 1_555
