# generated using pymatgen
data_Li2HgPd4Pb
_symmetry_space_group_name_H-M   'P 1'
_cell_length_a   5.81463477
_cell_length_b   5.81456064
_cell_length_c   7.63583949
_cell_angle_alpha   89.99863412
_cell_angle_beta   90.00203240
_cell_angle_gamma   90.00614827
_symmetry_Int_Tables_number   1
_chemical_formula_structural   Li2HgPd4Pb
_chemical_formula_sum   'Li4 Hg2 Pd8 Pb2'
_cell_volume   258.16426809
_cell_formula_units_Z   2
loop_
 _symmetry_equiv_pos_site_id
 _symmetry_equiv_pos_as_xyz
  1  'x, y, z'
loop_
 _atom_site_type_symbol
 _atom_site_label
 _atom_site_symmetry_multiplicity
 _atom_site_fract_x
 _atom_site_fract_y
 _atom_site_fract_z
 _atom_site_occupancy
  Li  Li0  1  0.25005043  0.25000667  0.00007671  1
  Li  Li1  1  0.75003094  0.74999918  0.49992961  1
  Li  Li2  1  0.24996905  0.25000080  0.50005322  1
  Li  Li3  1  0.74994958  0.74999225  0.99994386  1
  Hg  Hg0  1  0.75003751  0.25001050  0.00004959  1
  Hg  Hg1  1  0.24996245  0.74998872  0.00004598  1
  Pd  Pd0  1  0.49995237  0.00001447  0.25178990  1
  Pd  Pd1  1  0.49992910  0.49996540  0.25180470  1
  Pd  Pd2  1  0.99993563  0.99998189  0.25181008  1
  Pd  Pd3  1  0.99990782  0.50003242  0.25183362  1
  Pd  Pd4  1  0.00006252  0.00001797  0.74818857  1
  Pd  Pd5  1  0.00009310  0.49996749  0.74816606  1
  Pd  Pd6  1  0.50004747  0.99998548  0.74820884  1
  Pd  Pd7  1  0.50007104  0.50003451  0.74819396  1
  Pb  Pb0  1  0.74996083  0.25000816  0.49995876  1
  Pb  Pb1  1  0.25003918  0.74999208  0.49994654  1
loop_
_geom_bond_atom_site_label_1
_geom_bond_atom_site_label_2
_geom_bond_distance
_geom_bond_site_symmetry_2
Li0 Pd1 2.813824 1_555
Li0 Pd0 2.814031 1_555
Li0 Pd2 2.814783 1_445
Li0 Pd4 2.815077 1_554
Li0 Pd5 2.815133 1_554
Li0 Pd3 2.815200 1_455
Li0 Pd7 2.815288 1_554
Li0 Pd6 2.815328 1_544
Li1 Pd3 2.795203 1_555
Li1 Pd2 2.795248 1_555
Li1 Pd1 2.796004 1_555
Li1 Pd0 2.796069 1_565
Li1 Pd7 2.796110 1_555
Li1 Pd4 2.796440 1_665
Li1 Pd6 2.796533 1_555
Li1 Pd5 2.796570 1_655
Li1 Pb0 2.907228 1_555
Li1 Pb1 2.907269 1_555
Li1 Pb0 2.907333 1_565
Li1 Pb1 2.907365 1_655
Li2 Pd5 2.795288 1_555
Li2 Pd4 2.795336 1_555
Li2 Pd1 2.796029 1_555
Li2 Pd7 2.796086 1_555
Li2 Pd6 2.796151 1_545
Li2 Pd2 2.796364 1_445
Li2 Pd0 2.796450 1_555
Li2 Pd3 2.796480 1_455
Li2 Pb1 2.907230 1_555
Li2 Pb0 2.907270 1_555
Li2 Pb1 2.907331 1_545
Li2 Pb0 2.907365 1_455
Li3 Pd7 2.813935 1_555
Li3 Pd6 2.814148 1_555
Li3 Pd4 2.814894 1_665
Li3 Pd2 2.814960 1_556
Li3 Pd3 2.815024 1_556
Li3 Pd1 2.815170 1_556
Li3 Pd0 2.815218 1_566
Li3 Pd5 2.815309 1_655
Hg0 Pd3 2.814281 1_555
Hg0 Pd2 2.814375 1_545
Hg0 Pd0 2.814643 1_555
Hg0 Pd1 2.814875 1_555
Hg0 Pd6 2.814945 1_544
Hg0 Pd7 2.815063 1_554
Hg0 Pd5 2.815184 1_654
Hg0 Pd4 2.815290 1_654
Hg0 Li3 2.907174 1_554
Hg0 Li0 2.907242 1_555
Hg0 Li3 2.907387 1_544
Hg0 Li0 2.907393 1_655
Hg1 Pd0 2.814442 1_565
Hg1 Pd1 2.814556 1_555
Hg1 Pd3 2.814679 1_455
Hg1 Pd5 2.814776 1_554
Hg1 Pd2 2.814792 1_455
Hg1 Pd4 2.814888 1_564
Hg1 Pd6 2.815150 1_554
Hg1 Pd7 2.815379 1_554
Hg1 Li0 2.907176 1_555
Hg1 Li3 2.907243 1_554
Hg1 Li0 2.907385 1_565
Hg1 Li3 2.907392 1_454
Pd0 Pd1 2.906995 1_555
Pd0 Pd2 2.907220 1_545
Pd0 Pd2 2.907415 1_445
Pd0 Pd1 2.907566 1_545
Pd1 Pd3 2.907194 1_555
Pd1 Pd3 2.907441 1_455
Pd2 Pd3 2.906986 1_555
Pd2 Pd3 2.907574 1_565
Pd4 Pd5 2.906987 1_555
Pd4 Pd6 2.907230 1_545
Pd4 Pd6 2.907405 1_445
Pd4 Pd5 2.907574 1_545
Pd5 Pd7 2.907189 1_555
Pd5 Pd7 2.907446 1_455
Pd6 Pd7 2.906995 1_555
Pd6 Pd7 2.907565 1_565
Pb0 Pd3 2.795531 1_555
Pb0 Pd1 2.795826 1_555
Pb0 Pd0 2.795828 1_555
Pb0 Pd2 2.795952 1_545
Pb0 Pd6 2.796071 1_545
Pb0 Pd7 2.796143 1_555
Pb0 Pd5 2.796297 1_655
Pb0 Pd4 2.796530 1_655
Pb1 Pd0 2.795586 1_565
Pb1 Pd1 2.795661 1_555
Pb1 Pd3 2.795807 1_455
Pb1 Pd5 2.796018 1_555
Pb1 Pd2 2.796051 1_455
Pb1 Pd6 2.796310 1_555
Pb1 Pd7 2.796311 1_555
Pb1 Pd4 2.796440 1_565
