# generated using pymatgen
data_K2Ta3Cl9
_symmetry_space_group_name_H-M   'P 1'
_cell_length_a   9.75363789
_cell_length_b   9.75363789
_cell_length_c   9.58309723
_cell_angle_alpha   77.28918608
_cell_angle_beta   77.28918608
_cell_angle_gamma   117.80378537
_symmetry_Int_Tables_number   1
_chemical_formula_structural   K2Ta3Cl9
_chemical_formula_sum   'K4 Ta6 Cl18'
_cell_volume   729.58800840
_cell_formula_units_Z   2
loop_
 _symmetry_equiv_pos_site_id
 _symmetry_equiv_pos_as_xyz
  1  'x, y, z'
loop_
 _atom_site_type_symbol
 _atom_site_label
 _atom_site_symmetry_multiplicity
 _atom_site_fract_x
 _atom_site_fract_y
 _atom_site_fract_z
 _atom_site_occupancy
  K  K0  1  0.23006449  0.55123592  0.82543120  1
  K  K1  1  0.44876408  0.76993551  0.17456880  1
  K  K2  1  0.76993551  0.44876408  0.17456880  1
  K  K3  1  0.55123592  0.23006449  0.82543120  1
  Ta  Ta0  1  0.11992729  0.11992729  0.62675473  1
  Ta  Ta1  1  0.88007271  0.88007271  0.37324527  1
  Ta  Ta2  1  0.21953383  0.04709290  0.35975334  1
  Ta  Ta3  1  0.95290710  0.78046617  0.64024666  1
  Ta  Ta4  1  0.78046617  0.95290710  0.64024666  1
  Ta  Ta5  1  0.04709290  0.21953383  0.35975334  1
  Cl  Cl0  1  0.79296827  0.20703173  0.50000000  1
  Cl  Cl1  1  0.89128008  0.49806420  0.82357528  1
  Cl  Cl2  1  0.49806420  0.89128008  0.82357528  1
  Cl  Cl3  1  0.10871992  0.50193580  0.17642472  1
  Cl  Cl4  1  0.72784794  0.72784794  0.21488126  1
  Cl  Cl5  1  0.27215206  0.27215206  0.78511874  1
  Cl  Cl6  1  0.19820957  0.40683130  0.48372237  1
  Cl  Cl7  1  0.59316870  0.80179043  0.51627763  1
  Cl  Cl8  1  0.80179043  0.59316870  0.51627763  1
  Cl  Cl9  1  0.40683130  0.19820957  0.48372237  1
  Cl  Cl10  1  0.67825465  0.67825465  0.83434315  1
  Cl  Cl11  1  0.12031410  0.91367995  0.18211770  1
  Cl  Cl12  1  0.91367995  0.12031410  0.18211770  1
  Cl  Cl13  1  0.87968590  0.08632005  0.81788230  1
  Cl  Cl14  1  0.08632005  0.87968590  0.81788230  1
  Cl  Cl15  1  0.20703173  0.79296827  0.50000000  1
  Cl  Cl16  1  0.32174535  0.32174535  0.16565685  1
  Cl  Cl17  1  0.50193580  0.10871992  0.17642472  1
loop_
_geom_bond_atom_site_label_1
_geom_bond_atom_site_label_2
_geom_bond_distance
_geom_bond_site_symmetry_2
Cl0 Ta5 2.478871 1_655
Cl0 Ta4 2.478871 1_545
Cl0 K3 3.591952 1_555
Cl0 K2 3.591952 1_555
Cl1 Ta3 2.626030 1_555
Cl1 K0 3.101520 1_655
Cl1 K3 3.114350 1_555
Cl1 K2 3.154567 1_556
Cl2 Ta4 2.626030 1_555
Cl2 K3 3.101520 1_565
Cl2 K0 3.114350 1_555
Cl2 K1 3.154567 1_556
Cl3 Ta5 2.626030 1_555
Cl3 K2 3.101520 1_455
Cl3 K1 3.114350 1_555
Cl3 K0 3.154567 1_554
Cl4 Ta1 2.576573 1_555
Cl4 K1 3.027030 1_555
Cl4 K2 3.027030 1_555
Cl5 Ta0 2.576573 1_555
Cl5 K3 3.027030 1_555
Cl5 K0 3.027030 1_555
Cl6 Ta5 2.476865 1_555
Cl6 Ta0 2.480089 1_555
Cl6 K1 3.378575 1_555
Cl7 Ta4 2.476865 1_555
Cl7 Ta1 2.480089 1_555
Cl7 K0 3.378575 1_555
Cl8 Ta3 2.476865 1_555
Cl8 Ta1 2.480089 1_555
Cl8 K3 3.378575 1_555
Cl9 Ta2 2.476865 1_555
Cl9 Ta0 2.480089 1_555
Cl9 K2 3.378575 1_555
Cl10 Ta4 2.475835 1_555
Cl10 Ta3 2.475835 1_555
Cl11 Ta2 2.460207 1_565
Cl11 Ta1 2.466471 1_455
Cl12 Ta5 2.460207 1_655
Cl12 Ta1 2.466471 1_545
Cl13 Ta4 2.460207 1_545
Cl13 Ta0 2.466471 1_655
Cl14 Ta3 2.460207 1_455
Cl14 Ta0 2.466471 1_565
Cl15 Ta2 2.478871 1_565
Cl15 Ta3 2.478871 1_455
Cl15 K0 3.591952 1_555
Cl15 K1 3.591952 1_555
Cl16 Ta5 2.475835 1_555
Cl16 Ta2 2.475835 1_555
Cl17 Ta2 2.626030 1_555
Cl17 K1 3.101520 1_545
Cl17 K2 3.114350 1_555
Cl17 K3 3.154567 1_554
