# generated using pymatgen
data_Ba3MoCl2O5
_symmetry_space_group_name_H-M   'P 1'
_cell_length_a   7.54768578
_cell_length_b   7.54768538
_cell_length_c   11.54731587
_cell_angle_alpha   90.00000000
_cell_angle_beta   90.00000000
_cell_angle_gamma   134.69358749
_symmetry_Int_Tables_number   1
_chemical_formula_structural   Ba3MoCl2O5
_chemical_formula_sum   'Ba6 Mo2 Cl4 O10'
_cell_volume   467.63158597
_cell_formula_units_Z   2
loop_
 _symmetry_equiv_pos_site_id
 _symmetry_equiv_pos_as_xyz
  1  'x, y, z'
loop_
 _atom_site_type_symbol
 _atom_site_label
 _atom_site_symmetry_multiplicity
 _atom_site_fract_x
 _atom_site_fract_y
 _atom_site_fract_z
 _atom_site_occupancy
  Ba  Ba0  1  0.34786256  0.65213744  0.95588125  1
  Ba  Ba1  1  0.65213744  0.34786256  0.45588125  1
  Ba  Ba2  1  0.34786256  0.65213744  0.54411875  1
  Ba  Ba3  1  0.09283001  0.90716999  0.75000000  1
  Ba  Ba4  1  0.65213744  0.34786256  0.04411875  1
  Ba  Ba5  1  0.90716999  0.09283001  0.25000000  1
  Mo  Mo0  1  0.24446789  0.75553211  0.25000000  1
  Mo  Mo1  1  0.75553211  0.24446789  0.75000000  1
  Cl  Cl0  1  0.50483571  0.49516429  0.75000000  1
  Cl  Cl1  1  0.00000000  0.00000000  0.00000000  1
  Cl  Cl2  1  0.00000000  0.00000000  0.50000000  1
  Cl  Cl3  1  0.49516429  0.50483571  0.25000000  1
  O  O0  1  0.50263865  0.94230733  0.13752062  1
  O  O1  1  0.87966371  0.12033629  0.75000000  1
  O  O2  1  0.94230733  0.50263865  0.63752062  1
  O  O3  1  0.49736135  0.05769267  0.86247938  1
  O  O4  1  0.12033629  0.87966371  0.25000000  1
  O  O5  1  0.49736135  0.05769267  0.63752062  1
  O  O6  1  0.94230733  0.50263865  0.86247938  1
  O  O7  1  0.05769267  0.49736135  0.13752062  1
  O  O8  1  0.50263865  0.94230733  0.36247938  1
  O  O9  1  0.05769267  0.49736135  0.36247938  1
loop_
_geom_bond_atom_site_label_1
_geom_bond_atom_site_label_2
_geom_bond_distance
_geom_bond_site_symmetry_2
Ba0 O3 2.635866 1_565
Ba0 O6 2.635866 1_455
Ba0 O0 2.638506 1_556
Ba0 O7 2.638506 1_556
Ba0 Cl0 3.230147 1_555
Ba0 Cl1 3.633468 1_556
Ba0 Cl1 3.633469 1_666
Ba1 O8 2.635866 1_545
Ba1 O9 2.635866 1_655
Ba1 O5 2.638506 1_555
Ba1 O2 2.638506 1_555
Ba1 Cl3 3.230147 1_555
Ba1 Cl2 3.633468 1_665
Ba1 Cl2 3.633469 1_555
Ba2 O5 2.635866 1_565
Ba2 O2 2.635866 1_455
Ba2 O8 2.638506 1_555
Ba2 O9 2.638506 1_555
Ba2 Cl0 3.230147 1_555
Ba2 Cl2 3.633468 1_555
Ba2 Cl2 3.633469 1_665
Ba3 O6 2.724121 1_455
Ba3 O2 2.724121 1_455
Ba3 O3 2.724121 1_565
Ba3 O5 2.724121 1_565
Ba3 O1 2.969579 1_465
Ba3 Cl0 3.154896 1_565
Ba3 Cl0 3.154896 1_455
Ba3 Cl2 3.163248 1_565
Ba3 Cl1 3.163248 1_566
Ba4 O0 2.635866 1_545
Ba4 O7 2.635866 1_655
Ba4 O3 2.638506 1_554
Ba4 O6 2.638506 1_554
Ba4 Cl3 3.230147 1_555
Ba4 Cl1 3.633468 1_665
Ba4 Cl1 3.633469 1_555
Ba5 O9 2.724121 1_655
Ba5 O7 2.724121 1_655
Ba5 O8 2.724121 1_545
Ba5 O0 2.724121 1_545
Ba5 O4 2.969579 1_645
Ba5 Cl3 3.154896 1_545
Ba5 Cl3 3.154896 1_655
Ba5 Cl2 3.163248 1_655
Ba5 Cl1 3.163248 1_655
Mo0 O4 1.729253 1_555
Mo0 O9 1.899295 1_555
Mo0 O7 1.899295 1_555
Mo0 O8 1.899295 1_555
Mo0 O0 1.899295 1_555
Mo1 O1 1.729253 1_555
Mo1 O6 1.899295 1_555
Mo1 O2 1.899295 1_555
Mo1 O3 1.899295 1_555
Mo1 O5 1.899295 1_555
