# generated using pymatgen
data_YSc6Sn23Ru6
_symmetry_space_group_name_H-M   'P 1'
_cell_length_a   9.70454649
_cell_length_b   9.70454685
_cell_length_c   9.78190685
_cell_angle_alpha   90.00000000
_cell_angle_beta   90.00000000
_cell_angle_gamma   120.00000217
_symmetry_Int_Tables_number   1
_chemical_formula_structural   YSc6Sn23Ru6
_chemical_formula_sum   'Y1 Sc6 Sn23 Ru6'
_cell_volume   797.81950723
_cell_formula_units_Z   1
loop_
 _symmetry_equiv_pos_site_id
 _symmetry_equiv_pos_as_xyz
  1  'x, y, z'
loop_
 _atom_site_type_symbol
 _atom_site_label
 _atom_site_symmetry_multiplicity
 _atom_site_fract_x
 _atom_site_fract_y
 _atom_site_fract_z
 _atom_site_occupancy
  Y  Y0  1  0.00000000  0.00000000  0.00000000  1
  Sc  Sc0  1  0.01792666  0.50896333  0.29949769  1
  Sc  Sc1  1  0.49103667  0.98207334  0.29949769  1
  Sc  Sc2  1  0.49103667  0.50896333  0.29949769  1
  Sc  Sc3  1  0.98207334  0.49103667  0.70050231  1
  Sc  Sc4  1  0.50896333  0.01792666  0.70050231  1
  Sc  Sc5  1  0.50896333  0.49103667  0.70050231  1
  Sn  Sn0  1  0.00000000  0.00000000  0.50000000  1
  Sn  Sn1  1  0.12182984  0.87817016  0.28304879  1
  Sn  Sn2  1  0.75633832  0.87817016  0.28304879  1
  Sn  Sn3  1  0.12182984  0.24366168  0.28304879  1
  Sn  Sn4  1  0.87817016  0.12182984  0.71695121  1
  Sn  Sn5  1  0.24366168  0.12182984  0.71695121  1
  Sn  Sn6  1  0.87817016  0.75633832  0.71695121  1
  Sn  Sn7  1  0.34978259  0.00000000  0.00000000  1
  Sn  Sn8  1  0.65021741  0.65021741  0.00000000  1
  Sn  Sn9  1  0.00000000  0.34978259  0.00000000  1
  Sn  Sn10  1  0.34978259  0.34978259  0.00000000  1
  Sn  Sn11  1  1.00000000  0.65021741  0.00000000  1
  Sn  Sn12  1  0.65021741  1.00000000  0.00000000  1
  Sn  Sn13  1  0.77350232  0.54700565  0.46734441  1
  Sn  Sn14  1  0.77350232  0.22649768  0.46734441  1
  Sn  Sn15  1  0.45299435  0.22649768  0.46734441  1
  Sn  Sn16  1  0.22649768  0.45299435  0.53265559  1
  Sn  Sn17  1  0.22649768  0.77350232  0.53265559  1
  Sn  Sn18  1  0.54700565  0.77350232  0.53265559  1
  Sn  Sn19  1  0.66666700  0.33333300  0.16888803  1
  Sn  Sn20  1  0.33333300  0.66666700  0.83111197  1
  Sn  Sn21  1  0.66666700  0.33333300  0.85199467  1
  Sn  Sn22  1  0.33333300  0.66666700  0.14800533  1
  Ru  Ru0  1  0.17175299  0.82824701  0.79439866  1
  Ru  Ru1  1  0.65649301  0.82824701  0.79439866  1
  Ru  Ru2  1  0.17175299  0.34350699  0.79439866  1
  Ru  Ru3  1  0.82824701  0.17175299  0.20560134  1
  Ru  Ru4  1  0.34350699  0.17175299  0.20560134  1
  Ru  Ru5  1  0.82824701  0.65649301  0.20560134  1
loop_
_geom_bond_atom_site_label_1
_geom_bond_atom_site_label_2
_geom_bond_distance
_geom_bond_site_symmetry_2
Sc0 Sn22 3.036890 1_555
Sc0 Sn14 3.055192 1_455
Sc0 Sn13 3.055197 1_455
Sc0 Sn3 3.204285 1_555
Sc0 Sn1 3.204304 1_555
Sc0 Sn19 3.216723 1_455
Sc0 Sn17 3.270020 1_555
Sc0 Sn16 3.270024 1_555
Sc0 Sn9 3.275783 1_555
Sc0 Sn11 3.275783 1_455
Sc1 Sn22 3.036890 1_555
Sc1 Sn14 3.055192 1_565
Sc1 Sn15 3.055197 1_565
Sc1 Sn2 3.204285 1_555
Sc1 Sn1 3.204304 1_555
Sc1 Sn19 3.216723 1_565
Sc1 Sn17 3.270020 1_555
Sc1 Sn18 3.270024 1_555
Sc1 Sn12 3.275783 1_555
Sc1 Sn7 3.275783 1_565
Sc2 Sn22 3.036897 1_555
Sc2 Sn13 3.055189 1_555
Sc2 Sn15 3.055189 1_555
Sc2 Sn3 3.204299 1_555
Sc2 Sn2 3.204299 1_555
Sc2 Sn19 3.216731 1_555
Sc2 Sn16 3.270017 1_555
Sc2 Sn18 3.270017 1_555
Sc2 Sn8 3.275783 1_555
Sc2 Sn10 3.275783 1_555
Sc3 Sn21 3.036890 1_555
Sc3 Sn17 3.055192 1_655
Sc3 Sn16 3.055197 1_655
Sc3 Sn6 3.204285 1_555
Sc3 Sn4 3.204304 1_555
Sc3 Sn20 3.216723 1_655
Sc3 Sn14 3.270020 1_555
Sc3 Sn13 3.270024 1_555
Sc3 Sn11 3.275783 1_556
Sc3 Sn9 3.275783 1_656
Sc4 Sn21 3.036890 1_555
Sc4 Sn17 3.055192 1_545
Sc4 Sn18 3.055197 1_545
Sc4 Sn5 3.204285 1_555
Sc4 Sn4 3.204304 1_555
Sc4 Sn20 3.216723 1_545
Sc4 Sn14 3.270020 1_555
Sc4 Sn15 3.270024 1_555
Sc4 Sn7 3.275783 1_556
Sc4 Sn12 3.275783 1_546
Sc5 Sn21 3.036897 1_555
Sc5 Sn16 3.055189 1_555
Sc5 Sn18 3.055189 1_555
Sc5 Sn6 3.204299 1_555
Sc5 Sn5 3.204299 1_555
Sc5 Sn20 3.216731 1_555
Sc5 Sn13 3.270017 1_555
Sc5 Sn15 3.270017 1_555
Sc5 Sn10 3.275783 1_556
Sc5 Sn8 3.275783 1_556
Sn0 Sn4 2.949109 1_455
Sn0 Sn1 2.949109 1_545
Sn0 Sn5 2.949120 1_555
Sn0 Sn2 2.949120 1_445
Sn0 Sn6 2.949120 1_445
Sn0 Sn3 2.949120 1_555
Sn1 Sn17 3.009456 1_555
Sn1 Sn7 3.367807 1_565
Sn1 Sn11 3.367807 1_455
Sn1 Y0 3.443768 1_565
Sn2 Sn8 3.367807 1_555
Sn2 Y0 3.443778 1_665
Sn3 Sn9 3.367797 1_555
Sn3 Y0 3.443778 1_555
Sn4 Sn9 3.367807 1_656
Sn4 Y0 3.443768 1_656
Sn5 Sn7 3.367797 1_556
Sn5 Y0 3.443778 1_556
Sn6 Sn8 3.367807 1_556
Sn6 Y0 3.443778 1_666
Sn7 Y0 3.394481 1_555
Sn8 Y0 3.394481 1_665
Sn9 Y0 3.394482 1_555
Sn10 Sn8 2.915584 1_555
Sn10 Sn3 3.367807 1_555
Sn10 Sn5 3.367807 1_554
Sn10 Y0 3.394481 1_555
Sn11 Sn9 2.915584 1_655
Sn11 Sn6 3.367797 1_554
Sn11 Y0 3.394482 1_665
Sn12 Sn7 2.915584 1_565
Sn12 Sn2 3.367797 1_555
Sn12 Sn4 3.367807 1_564
Sn12 Y0 3.394481 1_665
Sn13 Sn6 3.009442 1_555
Sn13 Sn15 3.110384 1_555
Sn13 Sn14 3.110385 1_555
Sn14 Sn4 3.009456 1_555
Sn14 Sn15 3.110384 1_555
Sn15 Sn5 3.009441 1_555
Sn16 Sn3 3.009442 1_555
Sn16 Sn18 3.110384 1_555
Sn16 Sn17 3.110385 1_555
Sn17 Sn18 3.110384 1_555
Sn18 Sn2 3.009441 1_555
Sn19 Sn21 3.099821 1_554
Sn20 Sn22 3.099821 1_556
Ru0 Sn7 2.632152 1_566
Ru0 Sn11 2.632152 1_456
Ru0 Sn6 2.681419 1_455
Ru0 Sn5 2.681419 1_565
Ru0 Sn17 2.720685 1_555
Ru0 Sn20 2.739601 1_555
Ru0 Sc4 2.986177 1_565
Ru0 Sc3 2.986177 1_455
Ru0 Y0 3.518428 1_566
Ru1 Sn12 2.632149 1_556
Ru1 Sn8 2.632155 1_556
Ru1 Sn4 2.681427 1_565
Ru1 Sn6 2.681446 1_555
Ru1 Sn18 2.720679 1_555
Ru1 Sn20 2.739601 1_555
Ru1 Sc4 2.986170 1_565
Ru1 Sc5 2.986178 1_555
Ru1 Y0 3.518435 1_666
Ru2 Sn9 2.632149 1_556
Ru2 Sn10 2.632155 1_556
Ru2 Sn4 2.681427 1_455
Ru2 Sn5 2.681446 1_555
Ru2 Sn16 2.720679 1_555
Ru2 Sn20 2.739601 1_555
Ru2 Sc3 2.986170 1_455
Ru2 Sc5 2.986178 1_555
Ru2 Y0 3.518435 1_556
Ru3 Sn12 2.632152 1_545
Ru3 Sn9 2.632152 1_655
Ru3 Sn3 2.681419 1_655
Ru3 Sn2 2.681419 1_545
Ru3 Sn14 2.720685 1_555
Ru3 Sn19 2.739601 1_555
Ru3 Sc1 2.986177 1_545
Ru3 Sc0 2.986177 1_655
Ru3 Y0 3.518428 1_655
Ru4 Sn7 2.632149 1_555
Ru4 Sn10 2.632155 1_555
Ru4 Sn1 2.681427 1_545
Ru4 Sn3 2.681446 1_555
Ru4 Sn15 2.720679 1_555
Ru4 Sn19 2.739601 1_555
Ru4 Sc1 2.986170 1_545
Ru4 Sc2 2.986178 1_555
Ru4 Y0 3.518435 1_555
Ru5 Sn11 2.632149 1_555
Ru5 Sn8 2.632155 1_555
Ru5 Sn1 2.681427 1_655
Ru5 Sn2 2.681446 1_555
Ru5 Sn13 2.720679 1_555
Ru5 Sn19 2.739601 1_555
Ru5 Sc0 2.986170 1_655
Ru5 Sc2 2.986178 1_555
Ru5 Y0 3.518435 1_665
