# generated using pymatgen
data_P(BrF2)3
_symmetry_space_group_name_H-M   'P 1'
_cell_length_a   5.39897464
_cell_length_b   7.51553627
_cell_length_c   9.59120720
_cell_angle_alpha   90.01305863
_cell_angle_beta   99.58956711
_cell_angle_gamma   98.97064664
_symmetry_Int_Tables_number   1
_chemical_formula_structural   P(BrF2)3
_chemical_formula_sum   'P2 Br6 F12'
_cell_volume   378.90553024
_cell_formula_units_Z   2
loop_
 _symmetry_equiv_pos_site_id
 _symmetry_equiv_pos_as_xyz
  1  'x, y, z'
loop_
 _atom_site_type_symbol
 _atom_site_label
 _atom_site_symmetry_multiplicity
 _atom_site_fract_x
 _atom_site_fract_y
 _atom_site_fract_z
 _atom_site_occupancy
  P  P0  1  0.56814710  0.77557945  0.80729174  1
  P  P1  1  0.43185290  0.22442055  0.19270826  1
  Br  Br0  1  0.77918303  0.77017858  0.45428130  1
  Br  Br1  1  0.22081697  0.22982142  0.54571870  1
  Br  Br2  1  0.07788136  0.61968777  0.17608148  1
  Br  Br3  1  0.92211864  0.38031223  0.82391852  1
  Br  Br4  1  0.80521305  0.81223591  0.21798417  1
  Br  Br5  1  0.19478695  0.18776409  0.78201583  1
  F  F0  1  0.35934588  0.67808811  0.68119388  1
  F  F1  1  0.64065412  0.32191189  0.31880612  1
  F  F2  1  0.54537399  0.97020354  0.73744837  1
  F  F3  1  0.45462601  0.02979646  0.26255163  1
  F  F4  1  0.35611215  0.79764968  0.90096196  1
  F  F5  1  0.64388785  0.20235032  0.09903804  1
  F  F6  1  0.60210743  0.57952039  0.87646630  1
  F  F7  1  0.39789257  0.42047961  0.12353370  1
  F  F8  1  0.20725439  0.24713822  0.28544381  1
  F  F9  1  0.79274561  0.75286178  0.71455619  1
  F  F10  1  0.21121955  0.12808648  0.06825951  1
  F  F11  1  0.78878045  0.87191352  0.93174049  1
loop_
_geom_bond_atom_site_label_1
_geom_bond_atom_site_label_2
_geom_bond_distance
_geom_bond_site_symmetry_2
Br0 Br4 2.312727 1_555
Br0 F9 2.489233 1_555
Br1 Br5 2.312727 1_555
Br1 F8 2.489233 1_555
Br2 Br4 2.298697 1_455
Br2 F7 2.564567 1_555
Br3 Br5 2.298697 1_655
Br3 F6 2.564567 1_555
F0 P0 1.599423 1_555
F1 P1 1.599423 1_555
F2 P0 1.622484 1_555
F3 P1 1.622484 1_555
F4 P0 1.595923 1_555
F5 P1 1.595923 1_555
F6 P0 1.639861 1_555
F7 P1 1.639861 1_555
F8 P1 1.647577 1_555
F9 P0 1.647577 1_555
F10 P1 1.620113 1_555
F11 P0 1.620113 1_555
