# generated using pymatgen
data_RbSrVS4
_symmetry_space_group_name_H-M   'P 1'
_cell_length_a   6.73836744
_cell_length_b   9.19059307
_cell_length_c   12.36596495
_cell_angle_alpha   90.00000000
_cell_angle_beta   90.00000000
_cell_angle_gamma   90.00000000
_symmetry_Int_Tables_number   1
_chemical_formula_structural   RbSrVS4
_chemical_formula_sum   'Rb4 Sr4 V4 S16'
_cell_volume   765.81917702
_cell_formula_units_Z   4
loop_
 _symmetry_equiv_pos_site_id
 _symmetry_equiv_pos_as_xyz
  1  'x, y, z'
loop_
 _atom_site_type_symbol
 _atom_site_label
 _atom_site_symmetry_multiplicity
 _atom_site_fract_x
 _atom_site_fract_y
 _atom_site_fract_z
 _atom_site_occupancy
  Rb  Rb0  1  0.25000000  0.87620151  0.91118498  1
  Rb  Rb1  1  0.25000000  0.62379849  0.41118498  1
  Rb  Rb2  1  0.75000000  0.12379849  0.08881502  1
  Rb  Rb3  1  0.75000000  0.37620151  0.58881502  1
  Sr  Sr0  1  0.25000000  0.39775707  0.85535510  1
  Sr  Sr1  1  0.25000000  0.10224293  0.35535510  1
  Sr  Sr2  1  0.75000000  0.60224293  0.14464490  1
  Sr  Sr3  1  0.75000000  0.89775707  0.64464490  1
  V  V0  1  0.25000000  0.12270792  0.65236032  1
  V  V1  1  0.25000000  0.37729208  0.15236032  1
  V  V2  1  0.75000000  0.87729208  0.34763968  1
  V  V3  1  0.75000000  0.62270792  0.84763968  1
  S  S0  1  0.50265709  0.13618267  0.75719200  1
  S  S1  1  0.99734291  0.36381733  0.25719200  1
  S  S2  1  0.00265709  0.86381733  0.24280800  1
  S  S3  1  0.49734291  0.63618267  0.74280800  1
  S  S4  1  0.49734291  0.86381733  0.24280800  1
  S  S5  1  0.00265709  0.63618267  0.74280800  1
  S  S6  1  0.99734291  0.13618267  0.75719200  1
  S  S7  1  0.50265709  0.36381733  0.25719200  1
  S  S8  1  0.25000000  0.30748020  0.54594018  1
  S  S9  1  0.25000000  0.19251980  0.04594018  1
  S  S10  1  0.75000000  0.69251980  0.45405982  1
  S  S11  1  0.75000000  0.80748020  0.95405982  1
  S  S12  1  0.25000000  0.92371396  0.56314054  1
  S  S13  1  0.25000000  0.57628604  0.06314054  1
  S  S14  1  0.75000000  0.07628604  0.43685946  1
  S  S15  1  0.75000000  0.42371396  0.93685946  1
loop_
_geom_bond_atom_site_label_1
_geom_bond_atom_site_label_2
_geom_bond_distance
_geom_bond_site_symmetry_2
Rb0 S13 3.335967 1_556
Rb0 S9 3.350873 1_566
Rb0 S3 3.461103 1_555
Rb0 S5 3.461103 1_555
Rb0 S11 3.468631 1_555
Rb0 S11 3.468631 1_455
Rb0 S6 3.497697 1_465
Rb0 S0 3.497697 1_565
Rb1 S12 3.335967 1_555
Rb1 S8 3.350873 1_555
Rb1 S4 3.461103 1_555
Rb1 S2 3.461103 1_555
Rb1 S10 3.468631 1_555
Rb1 S10 3.468631 1_455
Rb1 S1 3.497697 1_455
Rb1 S7 3.497697 1_555
Rb2 S15 3.335967 1_554
Rb2 S11 3.350873 1_544
Rb2 S7 3.461103 1_555
Rb2 S1 3.461103 1_555
Rb2 S9 3.468631 1_555
Rb2 S9 3.468631 1_655
Rb2 S2 3.497697 1_645
Rb2 S4 3.497697 1_545
Rb3 S14 3.335967 1_555
Rb3 S10 3.350873 1_555
Rb3 S0 3.461103 1_555
Rb3 S6 3.461103 1_555
Rb3 S8 3.468631 1_655
Rb3 S8 3.468631 1_555
Rb3 S5 3.497697 1_655
Rb3 S3 3.497697 1_555
S0 V0 2.143441 1_555
S0 Sr3 3.084883 1_545
S0 Sr0 3.186116 1_555
S1 V1 2.143441 1_655
S1 Sr2 3.084883 1_555
S1 Sr1 3.186116 1_655
S2 V2 2.143441 1_455
S2 Sr1 3.084883 1_565
S2 Sr2 3.186116 1_455
S3 V3 2.143441 1_555
S3 Sr0 3.084883 1_555
S3 Sr3 3.186116 1_555
S4 V2 2.143441 1_555
S4 Sr1 3.084883 1_565
S4 Sr2 3.186116 1_555
S5 V3 2.143441 1_455
S5 Sr0 3.084883 1_555
S5 Sr3 3.186116 1_455
S6 V0 2.143441 1_655
S6 Sr3 3.084883 1_545
S6 Sr0 3.186116 1_655
S7 V1 2.143441 1_555
S7 Sr2 3.084883 1_555
S7 Sr1 3.186116 1_555
S8 V0 2.148393 1_555
S8 Sr1 3.018660 1_555
S9 V1 2.148393 1_555
S9 Sr0 3.018660 1_554
S10 V2 2.148393 1_555
S10 Sr3 3.018660 1_555
S11 V3 2.148393 1_555
S11 Sr2 3.018660 1_556
S12 V0 2.135889 1_565
S12 Sr1 3.048663 1_565
S12 Sr3 3.524788 1_455
S12 Sr3 3.524788 1_555
S13 V1 2.135889 1_555
S13 Sr0 3.048663 1_554
S13 Sr2 3.524788 1_455
S13 Sr2 3.524788 1_555
S14 V2 2.135889 1_545
S14 Sr3 3.048663 1_545
S14 Sr1 3.524788 1_555
S14 Sr1 3.524788 1_655
S15 V3 2.135889 1_555
S15 Sr2 3.048663 1_556
S15 Sr0 3.524788 1_555
S15 Sr0 3.524788 1_655
