# generated using pymatgen
data_CsGa7
_symmetry_space_group_name_H-M   'P 1'
_cell_length_a   10.38804553
_cell_length_b   10.38804555
_cell_length_c   10.38804438
_cell_angle_alpha   37.28094104
_cell_angle_beta   37.28094061
_cell_angle_gamma   37.28094092
_symmetry_Int_Tables_number   1
_chemical_formula_structural   CsGa7
_chemical_formula_sum   'Cs2 Ga14'
_cell_volume   368.71092024
_cell_formula_units_Z   2
loop_
 _symmetry_equiv_pos_site_id
 _symmetry_equiv_pos_as_xyz
  1  'x, y, z'
loop_
 _atom_site_type_symbol
 _atom_site_label
 _atom_site_symmetry_multiplicity
 _atom_site_fract_x
 _atom_site_fract_y
 _atom_site_fract_z
 _atom_site_occupancy
  Cs  Cs0  1  0.19367175  0.19367175  0.19367175  1
  Cs  Cs1  1  0.80632825  0.80632825  0.80632825  1
  Ga  Ga0  1  0.78506943  0.78506943  0.20350559  1
  Ga  Ga1  1  0.78506943  0.20350559  0.78506943  1
  Ga  Ga2  1  0.45502969  0.45502969  0.45502969  1
  Ga  Ga3  1  0.54497031  0.54497031  0.54497031  1
  Ga  Ga4  1  0.81795983  0.41925332  0.81795983  1
  Ga  Ga5  1  0.81795983  0.81795983  0.41925332  1
  Ga  Ga6  1  0.41925332  0.81795983  0.81795983  1
  Ga  Ga7  1  0.58074668  0.18204017  0.18204017  1
  Ga  Ga8  1  0.18204017  0.58074668  0.18204017  1
  Ga  Ga9  1  0.18204017  0.18204017  0.58074668  1
  Ga  Ga10  1  0.21493057  0.79649441  0.21493057  1
  Ga  Ga11  1  0.21493057  0.21493057  0.79649441  1
  Ga  Ga12  1  0.79649441  0.21493057  0.21493057  1
  Ga  Ga13  1  0.20350559  0.78506943  0.78506943  1
loop_
_geom_bond_atom_site_label_1
_geom_bond_atom_site_label_2
_geom_bond_distance
_geom_bond_site_symmetry_2
Cs0 Ga11 3.781301 1_554
Cs0 Ga12 3.781302 1_455
Cs0 Ga10 3.781302 1_545
Cs0 Ga1 3.818511 1_455
Cs0 Ga13 3.818511 1_545
Cs0 Ga0 3.818511 1_545
Cs0 Ga0 3.818511 1_455
Cs0 Ga1 3.818511 1_554
Cs0 Ga13 3.818511 1_554
Cs0 Ga9 3.830688 1_555
Cs0 Ga7 3.830689 1_555
Cs0 Ga8 3.830689 1_555
Cs0 Ga3 3.869121 1_554
Cs0 Ga3 3.869121 1_455
Cs0 Ga3 3.869121 1_545
Cs1 Ga0 3.781301 1_556
Cs1 Ga13 3.781302 1_655
Cs1 Ga1 3.781302 1_565
Cs1 Ga10 3.818511 1_655
Cs1 Ga12 3.818511 1_565
Cs1 Ga11 3.818511 1_565
Cs1 Ga11 3.818511 1_655
Cs1 Ga10 3.818511 1_556
Cs1 Ga12 3.818511 1_556
Cs1 Ga5 3.830688 1_555
Cs1 Ga6 3.830689 1_555
Cs1 Ga4 3.830689 1_555
Cs1 Ga2 3.869121 1_556
Cs1 Ga2 3.869121 1_655
Cs1 Ga2 3.869121 1_565
Ga0 Ga3 2.601079 1_555
Ga0 Ga8 2.630843 1_655
Ga0 Ga7 2.630843 1_565
Ga0 Ga13 2.778681 1_654
Ga0 Ga1 2.778681 1_564
Ga0 Ga5 2.807015 1_555
Ga1 Ga3 2.601079 1_555
Ga1 Ga7 2.630843 1_556
Ga1 Ga9 2.630843 1_655
Ga1 Ga13 2.778682 1_645
Ga1 Ga4 2.807016 1_555
Ga2 Ga3 2.605034 1_555
Ga4 Ga9 2.539602 1_655
Ga4 Ga7 2.539602 1_556
Ga4 Ga5 2.647664 1_555
Ga4 Ga6 2.647664 1_555
Ga5 Ga8 2.539602 1_655
Ga5 Ga7 2.539602 1_565
Ga5 Ga6 2.647664 1_555
Ga6 Ga9 2.539602 1_565
Ga6 Ga8 2.539602 1_556
Ga7 Ga9 2.647664 1_555
Ga7 Ga8 2.647664 1_555
Ga8 Ga9 2.647664 1_555
Ga10 Ga2 2.601079 1_555
Ga10 Ga6 2.630843 1_554
Ga10 Ga5 2.630843 1_455
Ga10 Ga11 2.778681 1_564
Ga10 Ga12 2.778682 1_465
Ga10 Ga8 2.807016 1_555
Ga11 Ga2 2.601079 1_555
Ga11 Ga4 2.630843 1_455
Ga11 Ga6 2.630843 1_545
Ga11 Ga12 2.778681 1_456
Ga11 Ga9 2.807015 1_555
Ga12 Ga2 2.601079 1_555
Ga12 Ga4 2.630843 1_554
Ga12 Ga5 2.630843 1_545
Ga12 Ga7 2.807016 1_555
Ga13 Ga3 2.601079 1_555
Ga13 Ga8 2.630843 1_556
Ga13 Ga9 2.630843 1_565
Ga13 Ga6 2.807016 1_555
