# generated using pymatgen
data_Ti8Al14Ir7Se
_symmetry_space_group_name_H-M   'P 1'
_cell_length_a   8.60379240
_cell_length_b   8.60395165
_cell_length_c   8.60379905
_cell_angle_alpha   119.99936235
_cell_angle_beta   119.92788854
_cell_angle_gamma   90.06259001
_symmetry_Int_Tables_number   1
_chemical_formula_structural   Ti8Al14Ir7Se
_chemical_formula_sum   'Ti8 Al14 Ir7 Se1'
_cell_volume   450.61226709
_cell_formula_units_Z   1
loop_
 _symmetry_equiv_pos_site_id
 _symmetry_equiv_pos_as_xyz
  1  'x, y, z'
loop_
 _atom_site_type_symbol
 _atom_site_label
 _atom_site_symmetry_multiplicity
 _atom_site_fract_x
 _atom_site_fract_y
 _atom_site_fract_z
 _atom_site_occupancy
  Ti  Ti0  1  0.79715479  0.29619575  0.08740199  1
  Ti  Ti1  1  0.20880000  0.29618570  0.49903707  1
  Ti  Ti2  1  0.20389736  0.70387651  0.49997644  1
  Ti  Ti3  1  0.20887294  0.70981367  0.91273059  1
  Ti  Ti4  1  0.79708836  0.70980873  0.50094162  1
  Ti  Ti5  1  0.79150792  0.29150245  0.49999300  1
  Ti  Ti6  1  0.38035716  0.12272587  0.74235973  1
  Ti  Ti7  1  0.38035096  0.63797883  0.25762545  1
  Al  Al0  1  0.16154006  0.33523521  0.17369640  1
  Al  Al1  1  0.16151721  0.98779968  0.82627979  1
  Al  Al2  1  0.15739375  0.33721855  0.82013809  1
  Al  Al3  1  0.51707842  0.33721092  0.17981667  1
  Al  Al4  1  0.83657806  0.66134342  0.82477385  1
  Al  Al5  1  0.83656219  0.01177999  0.17521411  1
  Al  Al6  1  0.83511084  0.66292934  0.17216663  1
  Al  Al7  1  0.49074760  0.66292133  0.82780641  1
  Al  Al8  1  0.38084151  0.11981923  0.26101833  1
  Al  Al9  1  0.85880072  0.11982459  0.73898051  1
  Al  Al10  1  0.62057722  0.88061556  0.26003416  1
  Al  Al11  1  0.62056463  0.36051607  0.73994611  1
  Al  Al12  1  0.62168192  0.87985836  0.74183109  1
  Al  Al13  1  0.13802846  0.87985462  0.25816765  1
  Ir  Ir0  1  0.00179395  0.99951346  0.50120908  1
  Ir  Ir1  1  0.49829711  0.99950349  0.99770971  1
  Ir  Ir2  1  0.49768845  0.49766301  0.99996435  1
  Ir  Ir3  1  0.49827094  0.50055638  0.49873736  1
  Ir  Ir4  1  0.00182098  0.50056268  0.00228932  1
  Ir  Ir5  1  0.99998971  0.00002875  0.00004130  1
  Ir  Ir6  1  0.49848652  0.99851872  0.50002379  1
  Se  Se0  1  0.99859427  0.49863914  0.50008939  1
loop_
_geom_bond_atom_site_label_1
_geom_bond_atom_site_label_2
_geom_bond_distance
_geom_bond_site_symmetry_2
Al0 Ir5 2.468264 1_455
Al0 Ir3 2.483220 1_555
Al0 Ir4 2.483256 1_555
Al1 Ir5 2.468543 1_466
Al1 Ir1 2.483542 1_555
Al1 Ir0 2.483556 1_555
Al2 Ir0 2.473351 1_545
Al2 Ir4 2.473384 1_556
Al2 Ir2 2.491380 1_555
Al3 Ir1 2.473359 1_544
Al3 Ir3 2.473414 1_555
Al3 Ir2 2.491440 1_554
Al4 Ir4 2.493591 1_656
Al4 Ir3 2.493672 1_555
Al4 Ir5 2.494719 1_566
Al5 Ir0 2.493332 1_645
Al5 Ir1 2.493334 1_544
Al5 Ir5 2.494262 1_555
Al6 Ir0 2.489845 1_655
Al6 Ir4 2.489899 1_655
Al6 Ir2 2.497505 1_554
Al7 Ir1 2.489814 1_555
Al7 Ir3 2.489906 1_555
Al7 Ir2 2.497452 1_555
Al8 Ir6 2.532565 1_545
Al8 Ir3 2.676951 1_555
Al8 Ir1 2.677067 1_544
Al8 Ir5 2.679199 1_455
Al9 Ir6 2.532618 1_545
Al9 Ir4 2.676958 1_656
Al9 Ir0 2.677070 1_645
Al9 Ir5 2.679237 1_556
Al10 Ir6 2.543224 1_555
Al10 Ir1 2.681201 1_554
Al10 Ir0 2.681226 1_655
Al10 Ir2 2.690786 1_554
Al11 Ir6 2.542702 1_545
Al11 Ir3 2.681457 1_555
Al11 Ir4 2.681505 1_656
Al11 Ir2 2.690314 1_555
Al12 Ir6 2.533799 1_555
Al12 Ir5 2.660678 1_566
Al12 Ir1 2.664866 1_555
Al12 Ir3 2.665191 1_555
Al13 Ir6 2.533728 1_555
Al13 Ir5 2.660631 1_465
Al13 Ir0 2.664952 1_555
Al13 Ir4 2.665121 1_555
Ir0 Ti6 2.662165 1_565
Ir0 Ti4 3.048885 1_455
Ir0 Ti2 3.081389 1_555
Ir0 Ti5 3.098757 1_465
Ir0 Ti1 3.123932 1_565
Ir1 Ti6 2.662233 1_565
Ir1 Ti3 3.048815 1_555
Ir1 Ti2 3.081334 1_555
Ir1 Ti5 3.098810 1_566
Ir1 Ti0 3.124002 1_566
Ir2 Ti6 2.636035 1_555
Ir2 Ti7 2.636415 1_556
Ir2 Ti1 3.096533 1_555
Ir2 Ti3 3.096585 1_555
Ir2 Ti0 3.096601 1_556
Ir2 Ti4 3.096670 1_556
Ir3 Ti7 2.661973 1_555
Ir3 Ti1 3.048961 1_555
Ir3 Ti2 3.081080 1_555
Ir3 Ti5 3.098843 1_555
Ir3 Ti4 3.123897 1_555
Ir4 Ti7 2.661937 1_555
Ir4 Ti0 3.049002 1_455
Ir4 Ti2 3.081044 1_555
Ir4 Ti5 3.098870 1_454
Ir4 Ti3 3.123868 1_554
Ir5 Ti1 3.083312 1_655
Ir5 Ti0 3.083366 1_555
Ir5 Ti3 3.083891 1_644
Ir5 Ti4 3.083904 1_544
Ir6 Ti6 2.532003 1_565
Ir6 Ti7 2.532588 1_555
Se0 Ti2 2.496991 1_655
Se0 Ti3 2.512391 1_655
Se0 Ti1 2.512501 1_655
Se0 Ti4 2.512601 1_555
Se0 Ti0 2.512670 1_555
Se0 Ti5 2.518111 1_555
