# generated using pymatgen
data_Cs2VAuSe4
_symmetry_space_group_name_H-M   'P 1'
_cell_length_a   14.62982410
_cell_length_b   13.00295635
_cell_length_c   7.89514462
_cell_angle_alpha   85.14464119
_cell_angle_beta   62.32649621
_cell_angle_gamma   32.52886472
_symmetry_Int_Tables_number   1
_chemical_formula_structural   Cs2VAuSe4
_chemical_formula_sum   'Cs4 V2 Au2 Se8'
_cell_volume   546.84838215
_cell_formula_units_Z   2
loop_
 _symmetry_equiv_pos_site_id
 _symmetry_equiv_pos_as_xyz
  1  'x, y, z'
loop_
 _atom_site_type_symbol
 _atom_site_label
 _atom_site_symmetry_multiplicity
 _atom_site_fract_x
 _atom_site_fract_y
 _atom_site_fract_z
 _atom_site_occupancy
  Cs  Cs0  1  0.68032767  0.68032767  0.31967233  1
  Cs  Cs1  1  0.31967233  0.31967233  0.68032767  1
  Cs  Cs2  1  0.93032767  0.93032767  0.56967233  1
  Cs  Cs3  1  0.56967233  0.56967233  0.93032767  1
  V  V0  1  0.75000000  0.75000000  0.75000000  1
  V  V1  1  0.50000000  0.50000000  0.50000000  1
  Au  Au0  1  0.00000000  0.00000000  0.00000000  1
  Au  Au1  1  0.25000000  0.25000000  0.25000000  1
  Se  Se0  1  0.38895651  0.00268141  0.92263300  1
  Se  Se1  1  0.68573009  0.92263300  0.00268141  1
  Se  Se2  1  0.92263300  0.68573009  0.38895651  1
  Se  Se3  1  0.00268141  0.38895651  0.68573009  1
  Se  Se4  1  0.24731859  0.86104349  0.56426991  1
  Se  Se5  1  0.56426991  0.32736700  0.24731859  1
  Se  Se6  1  0.32736700  0.56426991  0.86104349  1
  Se  Se7  1  0.86104349  0.24731859  0.32736700  1
loop_
_geom_bond_atom_site_label_1
_geom_bond_atom_site_label_2
_geom_bond_distance
_geom_bond_site_symmetry_2
Cs0 Se3 3.577972 1_654
Cs0 Se0 3.577978 1_565
Cs0 Se7 3.699334 1_555
Cs0 Se4 3.699337 1_555
Cs0 Se1 3.885599 1_555
Cs0 Se2 3.885604 1_555
Cs0 Se3 3.923998 1_565
Cs0 Se0 3.924000 1_654
Cs1 Se1 3.577973 1_456
Cs1 Se2 3.577975 1_545
Cs1 Se6 3.699323 1_555
Cs1 Se5 3.699326 1_555
Cs1 Se3 3.885589 1_555
Cs1 Se0 3.885593 1_555
Cs1 Se1 3.923994 1_545
Cs1 Se2 3.924000 1_456
Cs2 Se5 3.577973 1_655
Cs2 Se6 3.577975 1_565
Cs2 Se2 3.699323 1_555
Cs2 Se1 3.699326 1_556
Cs2 Se4 3.885589 1_655
Cs2 Se7 3.885593 1_565
Cs2 Se5 3.923994 1_566
Cs2 Se6 3.924000 1_654
Cs3 Se4 3.577972 1_556
Cs3 Se7 3.577978 1_555
Cs3 Se0 3.699334 1_565
Cs3 Se3 3.699337 1_655
Cs3 Se5 3.885599 1_556
Cs3 Se6 3.885604 1_555
Cs3 Se4 3.923998 1_645
Cs3 Se7 3.924000 1_466
Au0 Se7 2.580183 1_455
Au0 Se4 2.580189 1_544
Au0 Se6 2.580192 1_544
Au0 Se5 2.580194 1_455
Au0 V1 2.947749 1_544
Au0 V1 2.947749 1_455
Au1 Se0 2.580183 1_554
Au1 Se3 2.580189 1_555
Au1 Se2 2.580192 1_455
Au1 Se1 2.580194 1_545
Au1 V0 2.947749 1_544
Au1 V0 2.947749 1_455
Se0 V0 2.315044 1_545
Se1 V0 2.315055 1_554
Se2 V0 2.315049 1_555
Se3 V0 2.315046 1_455
Se4 V1 2.315046 1_555
Se5 V1 2.315055 1_555
Se6 V1 2.315049 1_555
Se7 V1 2.315044 1_555
