# generated using pymatgen
data_KSr2As2Pd3
_symmetry_space_group_name_H-M   'P 1'
_cell_length_a   7.58383831
_cell_length_b   7.58383934
_cell_length_c   7.58383858
_cell_angle_alpha   43.68579910
_cell_angle_beta   43.68578829
_cell_angle_gamma   43.68580025
_symmetry_Int_Tables_number   1
_chemical_formula_structural   KSr2As2Pd3
_chemical_formula_sum   'K1 Sr2 As2 Pd3'
_cell_volume   188.87861660
_cell_formula_units_Z   1
loop_
 _symmetry_equiv_pos_site_id
 _symmetry_equiv_pos_as_xyz
  1  'x, y, z'
loop_
 _atom_site_type_symbol
 _atom_site_label
 _atom_site_symmetry_multiplicity
 _atom_site_fract_x
 _atom_site_fract_y
 _atom_site_fract_z
 _atom_site_occupancy
  K  K0  1  0.50000000  0.50000000  0.50000000  1
  Sr  Sr0  1  0.08607237  0.08607237  0.08607237  1
  Sr  Sr1  1  0.91392763  0.91392763  0.91392763  1
  As  As0  1  0.24056144  0.24056144  0.24056144  1
  As  As1  1  0.75943856  0.75943856  0.75943856  1
  Pd  Pd0  1  0.50000000  0.50000000  0.00000000  1
  Pd  Pd1  1  0.49999900  0.00000000  0.50000100  1
  Pd  Pd2  1  0.00000000  0.49999900  0.50000100  1
loop_
_geom_bond_atom_site_label_1
_geom_bond_atom_site_label_2
_geom_bond_distance
_geom_bond_site_symmetry_2
K0 Sr1 3.654775 1_554
K0 Sr0 3.654775 1_556
K0 Sr1 3.654776 1_455
K0 Sr0 3.654776 1_655
K0 Sr1 3.654776 1_545
K0 Sr0 3.654776 1_565
K0 Pd2 3.791919 1_555
K0 Pd2 3.791919 1_655
K0 Pd0 3.791919 1_555
K0 Pd0 3.791919 1_556
K0 Pd1 3.791920 1_555
K0 Pd1 3.791920 1_565
As0 Pd0 2.507329 1_555
As0 Pd2 2.507329 1_555
As0 Pd1 2.507330 1_555
As0 Sr0 3.173951 1_555
As0 Sr1 3.261084 1_445
As0 Sr1 3.261084 1_544
As0 Sr1 3.261085 1_454
As0 K0 3.594512 1_455
As0 K0 3.594512 1_554
As0 K0 3.594513 1_545
As1 Pd0 2.507329 1_556
As1 Pd2 2.507329 1_655
As1 Pd1 2.507330 1_565
As1 Sr1 3.173951 1_555
As1 Sr0 3.261084 1_665
As1 Sr0 3.261084 1_566
As1 Sr0 3.261085 1_656
As1 K0 3.594512 1_655
As1 K0 3.594512 1_556
As1 K0 3.594513 1_565
Pd0 Pd2 2.821662 1_654
Pd0 Pd1 2.821662 1_564
Pd0 Pd2 2.821667 1_555
Pd0 Pd1 2.821668 1_555
Pd0 Sr0 3.329989 1_655
Pd0 Sr1 3.329989 1_454
Pd0 Sr0 3.329989 1_565
Pd0 Sr1 3.329989 1_544
Pd1 Pd2 2.821660 1_555
Pd1 Pd2 2.821671 1_645
Pd1 Sr1 3.329984 1_445
Pd1 Sr0 3.329984 1_556
Pd1 Sr0 3.329993 1_655
Pd1 Sr1 3.329993 1_544
Pd2 Sr0 3.329984 1_556
Pd2 Sr1 3.329985 1_445
Pd2 Sr1 3.329994 1_454
Pd2 Sr0 3.329994 1_565
