# generated using pymatgen
data_Rb4Zr(TeSe)2
_symmetry_space_group_name_H-M   'P 1'
_cell_length_a   9.19145258
_cell_length_b   10.81625478
_cell_length_c   15.52703522
_cell_angle_alpha   90.00000000
_cell_angle_beta   90.00000000
_cell_angle_gamma   90.00000000
_symmetry_Int_Tables_number   1
_chemical_formula_structural   Rb4Zr(TeSe)2
_chemical_formula_sum   'Rb16 Zr4 Te8 Se8'
_cell_volume   1543.65270355
_cell_formula_units_Z   4
loop_
 _symmetry_equiv_pos_site_id
 _symmetry_equiv_pos_as_xyz
  1  'x, y, z'
loop_
 _atom_site_type_symbol
 _atom_site_label
 _atom_site_symmetry_multiplicity
 _atom_site_fract_x
 _atom_site_fract_y
 _atom_site_fract_z
 _atom_site_occupancy
  Rb  Rb0  1  0.50000000  0.50000000  0.50000000  1
  Rb  Rb1  1  0.14548953  0.45418378  0.27876259  1
  Rb  Rb2  1  0.14548953  0.04581622  0.27876259  1
  Rb  Rb3  1  0.99369143  0.75000000  0.43330647  1
  Rb  Rb4  1  0.00630857  0.25000000  0.56669353  1
  Rb  Rb5  1  0.64548953  0.95418378  0.22123741  1
  Rb  Rb6  1  0.35451047  0.04581622  0.77876259  1
  Rb  Rb7  1  0.85451047  0.95418378  0.72123741  1
  Rb  Rb8  1  0.35451047  0.45418378  0.77876259  1
  Rb  Rb9  1  0.00000000  0.50000000  0.00000000  1
  Rb  Rb10  1  0.49369143  0.25000000  0.06669353  1
  Rb  Rb11  1  0.64548953  0.54581622  0.22123741  1
  Rb  Rb12  1  0.50630857  0.75000000  0.93330647  1
  Rb  Rb13  1  0.00000000  0.00000000  0.00000000  1
  Rb  Rb14  1  0.85451047  0.54581622  0.72123741  1
  Rb  Rb15  1  0.50000000  0.00000000  0.50000000  1
  Zr  Zr0  1  0.74142082  0.25000000  0.83665061  1
  Zr  Zr1  1  0.75857918  0.25000000  0.33665061  1
  Zr  Zr2  1  0.24142082  0.75000000  0.66334939  1
  Zr  Zr3  1  0.25857918  0.75000000  0.16334939  1
  Te  Te0  1  0.54321165  0.75000000  0.67556075  1
  Te  Te1  1  0.45678835  0.25000000  0.32443925  1
  Te  Te2  1  0.37082448  0.75000000  0.33026233  1
  Te  Te3  1  0.12917552  0.75000000  0.83026233  1
  Te  Te4  1  0.04321165  0.25000000  0.82443925  1
  Te  Te5  1  0.95678835  0.75000000  0.17556075  1
  Te  Te6  1  0.62917552  0.25000000  0.66973767  1
  Te  Te7  1  0.87082448  0.25000000  0.16973767  1
  Se  Se0  1  0.84130617  0.44301692  0.41086255  1
  Se  Se1  1  0.65869383  0.05698308  0.91086255  1
  Se  Se2  1  0.34130617  0.94301692  0.08913745  1
  Se  Se3  1  0.34130617  0.55698308  0.08913745  1
  Se  Se4  1  0.15869383  0.55698308  0.58913745  1
  Se  Se5  1  0.84130617  0.05698308  0.41086255  1
  Se  Se6  1  0.15869383  0.94301692  0.58913745  1
  Se  Se7  1  0.65869383  0.44301692  0.91086255  1
loop_
_geom_bond_atom_site_label_1
_geom_bond_atom_site_label_2
_geom_bond_distance
_geom_bond_site_symmetry_2
Rb0 Se0 3.483797 1_555
Rb0 Se4 3.483797 1_555
Rb0 Te0 3.860110 1_555
Rb0 Te1 3.860110 1_555
Rb0 Te6 3.958238 1_555
Rb0 Te2 3.958238 1_555
Rb1 Se0 3.469678 1_455
Rb1 Se3 3.625569 1_555
Rb1 Te1 3.683403 1_555
Rb1 Te7 3.757211 1_455
Rb1 Te2 3.894445 1_555
Rb1 Te5 3.976633 1_455
Rb2 Se5 3.469678 1_455
Rb2 Se2 3.625569 1_545
Rb2 Te1 3.683403 1_555
Rb2 Te7 3.757211 1_455
Rb2 Te2 3.894445 1_545
Rb2 Te5 3.976633 1_445
Rb3 Se6 3.537389 1_655
Rb3 Se4 3.537389 1_655
Rb3 Se5 3.620545 1_565
Rb3 Se0 3.620545 1_555
Rb3 Te2 3.817831 1_655
Rb3 Te5 4.016375 1_555
Rb4 Se0 3.537389 1_455
Rb4 Se5 3.537389 1_455
Rb4 Se4 3.620545 1_555
Rb4 Se6 3.620545 1_545
Rb4 Te6 3.817831 1_455
Rb4 Te4 4.016375 1_555
Rb5 Se2 3.469678 1_555
Rb5 Se5 3.625569 1_565
Rb5 Te5 3.683403 1_555
Rb5 Te2 3.757211 1_555
Rb5 Te7 3.894445 1_565
Rb5 Te1 3.976633 1_565
Rb6 Se1 3.469678 1_555
Rb6 Se6 3.625569 1_545
Rb6 Te4 3.683403 1_555
Rb6 Te6 3.757211 1_555
Rb6 Te3 3.894445 1_545
Rb6 Te0 3.976633 1_545
Rb7 Se6 3.469678 1_655
Rb7 Se1 3.625569 1_565
Rb7 Te0 3.683403 1_555
Rb7 Te3 3.757211 1_655
Rb7 Te6 3.894445 1_565
Rb7 Te4 3.976633 1_665
Rb8 Se7 3.469678 1_555
Rb8 Se4 3.625569 1_555
Rb8 Te4 3.683403 1_555
Rb8 Te6 3.757211 1_555
Rb8 Te3 3.894445 1_555
Rb8 Te0 3.976633 1_555
Rb9 Se3 3.483797 1_555
Rb9 Se7 3.483797 1_454
Rb9 Te5 3.860110 1_455
Rb9 Te4 3.860110 1_554
Rb9 Te7 3.958238 1_455
Rb9 Te3 3.958238 1_554
Rb10 Se7 3.537389 1_554
Rb10 Se1 3.537389 1_554
Rb10 Se3 3.620545 1_555
Rb10 Se2 3.620545 1_545
Rb10 Te7 3.817831 1_555
Rb10 Te1 4.016375 1_555
Rb11 Se3 3.469678 1_555
Rb11 Se0 3.625569 1_555
Rb11 Te5 3.683403 1_555
Rb11 Te2 3.757211 1_555
Rb11 Te7 3.894445 1_555
Rb11 Te1 3.976633 1_555
Rb12 Se2 3.537389 1_556
Rb12 Se3 3.537389 1_556
Rb12 Se1 3.620545 1_565
Rb12 Se7 3.620545 1_555
Rb12 Te3 3.817831 1_555
Rb12 Te0 4.016375 1_555
Rb13 Se2 3.483797 1_545
Rb13 Se1 3.483797 1_454
Rb13 Te5 3.860110 1_445
Rb13 Te4 3.860110 1_554
Rb13 Te7 3.958238 1_455
Rb13 Te3 3.958238 1_544
Rb14 Se4 3.469678 1_655
Rb14 Se7 3.625569 1_555
Rb14 Te0 3.683403 1_555
Rb14 Te3 3.757211 1_655
Rb14 Te6 3.894445 1_555
Rb14 Te4 3.976633 1_655
Rb15 Se5 3.483797 1_555
Rb15 Se6 3.483797 1_545
Rb15 Te0 3.860110 1_545
Rb15 Te1 3.860110 1_555
Rb15 Te6 3.958238 1_555
Rb15 Te2 3.958238 1_545
Te0 Zr2 2.780369 1_555
Te1 Zr1 2.780369 1_555
Te2 Zr3 2.789465 1_555
Te3 Zr2 2.789465 1_555
Te4 Zr0 2.780369 1_455
Te5 Zr3 2.780369 1_655
Te6 Zr0 2.789465 1_555
Te7 Zr1 2.789465 1_555
Se0 Zr1 2.502904 1_555
Se1 Zr0 2.502904 1_555
Se2 Zr3 2.502904 1_555
Se3 Zr3 2.502904 1_555
Se4 Zr2 2.502904 1_555
Se5 Zr1 2.502904 1_555
Se6 Zr2 2.502904 1_555
Se7 Zr0 2.502904 1_555
