# generated using pymatgen
data_Y7Sn22Ru6Au
_symmetry_space_group_name_H-M   'P 1'
_cell_length_a   9.79528237
_cell_length_b   9.79528350
_cell_length_c   9.98522197
_cell_angle_alpha   90.00000000
_cell_angle_beta   90.00000000
_cell_angle_gamma   120.00000614
_symmetry_Int_Tables_number   1
_chemical_formula_structural   Y7Sn22Ru6Au
_chemical_formula_sum   'Y7 Sn22 Ru6 Au1'
_cell_volume   829.70230859
_cell_formula_units_Z   1
loop_
 _symmetry_equiv_pos_site_id
 _symmetry_equiv_pos_as_xyz
  1  'x, y, z'
loop_
 _atom_site_type_symbol
 _atom_site_label
 _atom_site_symmetry_multiplicity
 _atom_site_fract_x
 _atom_site_fract_y
 _atom_site_fract_z
 _atom_site_occupancy
  Y  Y0  1  0.00000000  0.00000000  0.00000000  1
  Y  Y1  1  0.03387694  0.51693797  0.30427371  1
  Y  Y2  1  0.48306203  0.96612306  0.30427371  1
  Y  Y3  1  0.48306203  0.51693797  0.30427371  1
  Y  Y4  1  0.96612306  0.48306203  0.69572629  1
  Y  Y5  1  0.51693797  0.03387694  0.69572629  1
  Y  Y6  1  0.51693797  0.48306203  0.69572629  1
  Sn  Sn0  1  0.11727469  0.88272531  0.27882875  1
  Sn  Sn1  1  0.76544962  0.88272531  0.27882875  1
  Sn  Sn2  1  0.11727469  0.23455038  0.27882875  1
  Sn  Sn3  1  0.88272531  0.11727469  0.72117125  1
  Sn  Sn4  1  0.23455038  0.11727469  0.72117125  1
  Sn  Sn5  1  0.88272531  0.76544962  0.72117125  1
  Sn  Sn6  1  0.34883007  0.00000000  0.00000000  1
  Sn  Sn7  1  0.65116993  0.65116993  0.00000000  1
  Sn  Sn8  1  0.00000000  0.34883007  0.00000000  1
  Sn  Sn9  1  0.34883007  0.34883007  0.00000000  1
  Sn  Sn10  1  1.00000000  0.65116993  0.00000000  1
  Sn  Sn11  1  0.65116993  1.00000000  0.00000000  1
  Sn  Sn12  1  0.77783175  0.55566450  0.46120110  1
  Sn  Sn13  1  0.77783175  0.22216825  0.46120110  1
  Sn  Sn14  1  0.44433550  0.22216825  0.46120110  1
  Sn  Sn15  1  0.22216825  0.44433550  0.53879890  1
  Sn  Sn16  1  0.22216825  0.77783175  0.53879890  1
  Sn  Sn17  1  0.55566450  0.77783175  0.53879890  1
  Sn  Sn18  1  0.66666700  0.33333300  0.17363449  1
  Sn  Sn19  1  0.33333300  0.66666700  0.82636551  1
  Sn  Sn20  1  0.66666700  0.33333300  0.87458813  1
  Sn  Sn21  1  0.33333300  0.66666700  0.12541187  1
  Ru  Ru0  1  0.16779435  0.83220565  0.79544712  1
  Ru  Ru1  1  0.66441030  0.83220565  0.79544712  1
  Ru  Ru2  1  0.16779435  0.33558970  0.79544712  1
  Ru  Ru3  1  0.83220565  0.16779435  0.20455288  1
  Ru  Ru4  1  0.33558970  0.16779435  0.20455288  1
  Ru  Ru5  1  0.83220565  0.66441030  0.20455288  1
  Au  Au0  1  0.00000000  0.00000000  0.50000000  1
loop_
_geom_bond_atom_site_label_1
_geom_bond_atom_site_label_2
_geom_bond_distance
_geom_bond_site_symmetry_2
Sn0 Sn16 3.147304 1_555
Sn0 Y2 3.262322 1_555
Sn0 Y1 3.262322 1_555
Sn0 Sn6 3.407371 1_565
Sn0 Sn10 3.407371 1_455
Sn0 Y0 3.422044 1_565
Sn0 Sn1 3.446226 1_455
Sn0 Sn2 3.446226 1_565
Sn1 Sn17 3.147294 1_555
Sn1 Y2 3.262303 1_555
Sn1 Y3 3.262316 1_555
Sn1 Sn11 3.407367 1_555
Sn1 Sn7 3.407372 1_555
Sn1 Y0 3.422049 1_665
Sn1 Sn2 3.446226 1_665
Sn2 Y1 3.262303 1_555
Sn2 Y3 3.262316 1_555
Sn2 Sn8 3.407367 1_555
Sn2 Sn9 3.407371 1_555
Sn2 Y0 3.422049 1_555
Sn3 Y5 3.262322 1_555
Sn3 Y4 3.262322 1_555
Sn3 Sn8 3.407371 1_656
Sn3 Y0 3.422044 1_656
Sn3 Sn4 3.446226 1_655
Sn3 Sn5 3.446226 1_545
Sn4 Y5 3.262303 1_555
Sn4 Y6 3.262316 1_555
Sn4 Sn6 3.407367 1_556
Sn4 Sn9 3.407372 1_556
Sn4 Y0 3.422049 1_556
Sn4 Sn5 3.446226 1_445
Sn5 Y4 3.262303 1_555
Sn5 Y6 3.262316 1_555
Sn5 Sn7 3.407371 1_556
Sn5 Y0 3.422049 1_666
Sn6 Y5 3.392065 1_554
Sn6 Y2 3.392069 1_545
Sn6 Y0 3.416889 1_555
Sn7 Sn9 2.961504 1_555
Sn7 Y3 3.392066 1_555
Sn7 Y6 3.392066 1_554
Sn7 Y0 3.416889 1_665
Sn8 Y1 3.392065 1_555
Sn8 Y4 3.392069 1_454
Sn8 Y0 3.416889 1_555
Sn9 Y6 3.392066 1_554
Sn9 Y3 3.392066 1_555
Sn9 Y0 3.416889 1_555
Sn10 Sn8 2.961505 1_655
Sn10 Y4 3.392065 1_554
Sn10 Y1 3.392069 1_655
Sn10 Sn5 3.407367 1_554
Sn10 Y0 3.416889 1_665
Sn10 Sn21 3.428760 1_655
Sn10 Sn20 3.428764 1_554
Sn11 Sn6 2.961504 1_565
Sn11 Y2 3.392065 1_555
Sn11 Y5 3.392069 1_564
Sn11 Sn3 3.407371 1_564
Sn11 Y0 3.416889 1_665
Sn11 Sn20 3.428760 1_564
Sn11 Sn21 3.428764 1_555
Sn12 Y3 3.137000 1_555
Sn12 Y1 3.137017 1_655
Sn12 Sn5 3.147294 1_555
Sn12 Sn14 3.266690 1_555
Sn12 Sn13 3.266690 1_555
Sn12 Y6 3.271551 1_555
Sn12 Y4 3.271551 1_555
Sn13 Y2 3.137007 1_545
Sn13 Y1 3.137007 1_655
Sn13 Sn3 3.147304 1_555
Sn13 Sn14 3.266690 1_555
Sn13 Y5 3.271551 1_555
Sn13 Y4 3.271551 1_555
Sn14 Y3 3.137000 1_555
Sn14 Y2 3.137017 1_545
Sn14 Sn4 3.147294 1_555
Sn14 Y6 3.271551 1_555
Sn14 Y5 3.271551 1_555
Sn15 Y6 3.137000 1_555
Sn15 Y4 3.137017 1_455
Sn15 Sn2 3.147294 1_555
Sn15 Sn17 3.266690 1_555
Sn15 Sn16 3.266690 1_555
Sn15 Y3 3.271551 1_555
Sn15 Y1 3.271551 1_555
Sn16 Y5 3.137007 1_565
Sn16 Y4 3.137007 1_455
Sn16 Sn17 3.266690 1_555
Sn16 Y2 3.271551 1_555
Sn16 Y1 3.271551 1_555
Sn17 Y6 3.137000 1_555
Sn17 Y5 3.137017 1_565
Sn17 Y3 3.271551 1_555
Sn17 Y2 3.271551 1_555
Sn18 Sn20 2.986044 1_554
Sn18 Y1 3.377132 1_655
Sn18 Y2 3.377132 1_545
Sn18 Y3 3.377133 1_555
Sn19 Sn21 2.986044 1_556
Sn19 Y4 3.377132 1_455
Sn19 Y5 3.377132 1_565
Sn19 Y6 3.377133 1_555
Sn20 Y4 3.105270 1_555
Sn20 Y5 3.105270 1_555
Sn20 Y6 3.105284 1_555
Sn20 Sn8 3.428760 1_656
Sn20 Sn6 3.428764 1_556
Sn20 Sn9 3.428769 1_556
Sn20 Sn7 3.428769 1_556
Sn21 Y1 3.105270 1_555
Sn21 Y2 3.105270 1_555
Sn21 Y3 3.105284 1_555
Sn21 Sn6 3.428760 1_565
Sn21 Sn8 3.428764 1_555
Sn21 Sn7 3.428769 1_555
Sn21 Sn9 3.428769 1_555
Ru0 Sn5 2.636070 1_455
Ru0 Sn4 2.636070 1_565
Ru0 Sn6 2.665189 1_566
Ru0 Sn10 2.665189 1_456
Ru0 Sn16 2.723672 1_555
Ru0 Sn19 2.825434 1_555
Ru0 Y5 3.135928 1_565
Ru0 Y4 3.135928 1_455
Ru0 Y0 3.503716 1_566
Ru1 Sn3 2.636076 1_565
Ru1 Sn5 2.636089 1_555
Ru1 Sn11 2.665185 1_556
Ru1 Sn7 2.665191 1_556
Ru1 Sn17 2.723666 1_555
Ru1 Sn19 2.825434 1_555
Ru1 Y6 3.135929 1_555
Ru1 Y5 3.135929 1_565
Ru1 Y0 3.503723 1_666
Ru2 Sn3 2.636076 1_455
Ru2 Sn4 2.636089 1_555
Ru2 Sn8 2.665185 1_556
Ru2 Sn9 2.665191 1_556
Ru2 Sn15 2.723666 1_555
Ru2 Sn19 2.825434 1_555
Ru2 Y6 3.135928 1_555
Ru2 Y4 3.135929 1_455
Ru2 Y0 3.503723 1_556
Ru3 Sn2 2.636070 1_655
Ru3 Sn1 2.636070 1_545
Ru3 Sn11 2.665189 1_545
Ru3 Sn8 2.665189 1_655
Ru3 Sn13 2.723672 1_555
Ru3 Sn18 2.825434 1_555
Ru3 Y2 3.135928 1_545
Ru3 Y1 3.135928 1_655
Ru3 Y0 3.503716 1_655
Ru4 Sn0 2.636076 1_545
Ru4 Sn2 2.636089 1_555
Ru4 Sn6 2.665185 1_555
Ru4 Sn9 2.665191 1_555
Ru4 Sn14 2.723666 1_555
Ru4 Sn18 2.825434 1_555
Ru4 Y3 3.135929 1_555
Ru4 Y2 3.135929 1_545
Ru4 Y0 3.503723 1_555
Ru5 Sn0 2.636076 1_655
Ru5 Sn1 2.636089 1_555
Ru5 Sn10 2.665185 1_555
Ru5 Sn7 2.665191 1_555
Ru5 Sn12 2.723666 1_555
Ru5 Sn18 2.825434 1_555
Ru5 Y3 3.135928 1_555
Ru5 Y1 3.135929 1_655
Ru5 Y0 3.503723 1_665
Au0 Sn3 2.972546 1_455
Au0 Sn0 2.972546 1_545
Au0 Sn4 2.972551 1_555
Au0 Sn1 2.972551 1_445
Au0 Sn5 2.972551 1_445
Au0 Sn2 2.972551 1_555
