# generated using pymatgen
data_ZrZn22
_symmetry_space_group_name_H-M   'P 1'
_cell_length_a   9.84985816
_cell_length_b   9.84985839
_cell_length_c   9.84985897
_cell_angle_alpha   60.00000831
_cell_angle_beta   60.00000751
_cell_angle_gamma   60.00000379
_symmetry_Int_Tables_number   1
_chemical_formula_structural   ZrZn22
_chemical_formula_sum   'Zr2 Zn44'
_cell_volume   675.73286573
_cell_formula_units_Z   2
loop_
 _symmetry_equiv_pos_site_id
 _symmetry_equiv_pos_as_xyz
  1  'x, y, z'
loop_
 _atom_site_type_symbol
 _atom_site_label
 _atom_site_symmetry_multiplicity
 _atom_site_fract_x
 _atom_site_fract_y
 _atom_site_fract_z
 _atom_site_occupancy
  Zr  Zr0  1  0.37500000  0.37500000  0.37500000  1
  Zr  Zr1  1  0.62500000  0.62500000  0.62500000  1
  Zn  Zn0  1  0.00000000  -0.00000000  0.00000000  1
  Zn  Zn1  1  0.00000000  -0.00000000  0.50000000  1
  Zn  Zn2  1  0.50000000  -0.00000000  0.00000000  1
  Zn  Zn3  1  0.00000000  0.50000000  0.00000000  1
  Zn  Zn4  1  0.50000000  0.50000000  0.50000000  1
  Zn  Zn5  1  0.50000000  0.50000000  0.00000000  1
  Zn  Zn6  1  0.00000000  0.50000000  0.50000000  1
  Zn  Zn7  1  0.50000000  -0.00000000  0.50000000  1
  Zn  Zn8  1  0.73552284  0.01447716  0.01447716  1
  Zn  Zn9  1  0.98552284  0.98552284  0.26447716  1
  Zn  Zn10  1  0.26447716  0.26447716  0.98552284  1
  Zn  Zn11  1  0.98552284  0.26447716  0.26447716  1
  Zn  Zn12  1  0.98552284  0.26447716  0.98552284  1
  Zn  Zn13  1  0.26447716  0.98552284  0.26447716  1
  Zn  Zn14  1  0.01447716  0.73552284  0.01447716  1
  Zn  Zn15  1  0.01447716  0.01447716  0.73552284  1
  Zn  Zn16  1  0.73552284  0.73552284  0.01447716  1
  Zn  Zn17  1  0.73552284  0.01447716  0.73552284  1
  Zn  Zn18  1  0.26447716  0.98552284  0.98552284  1
  Zn  Zn19  1  0.01447716  0.73552284  0.73552284  1
  Zn  Zn20  1  0.18059977  0.18059977  0.69622635  1
  Zn  Zn21  1  0.81940023  0.30377365  0.55742390  1
  Zn  Zn22  1  0.55742390  0.81940023  0.81940023  1
  Zn  Zn23  1  0.81940023  0.55742390  0.81940023  1
  Zn  Zn24  1  0.30377365  0.81940023  0.55742390  1
  Zn  Zn25  1  0.30377365  0.55742390  0.81940023  1
  Zn  Zn26  1  0.55742390  0.30377365  0.81940023  1
  Zn  Zn27  1  0.69622635  0.18059977  0.18059977  1
  Zn  Zn28  1  0.18059977  0.69622635  0.18059977  1
  Zn  Zn29  1  0.44257610  0.18059977  0.69622635  1
  Zn  Zn30  1  0.18059977  0.44257610  0.69622635  1
  Zn  Zn31  1  0.44257610  0.18059977  0.18059977  1
  Zn  Zn32  1  0.69622635  0.18059977  0.44257610  1
  Zn  Zn33  1  0.18059977  0.69622635  0.44257610  1
  Zn  Zn34  1  0.18059977  0.44257610  0.18059977  1
  Zn  Zn35  1  0.55742390  0.81940023  0.30377365  1
  Zn  Zn36  1  0.81940023  0.55742390  0.30377365  1
  Zn  Zn37  1  0.81940023  0.81940023  0.55742390  1
  Zn  Zn38  1  0.81940023  0.81940023  0.30377365  1
  Zn  Zn39  1  0.30377365  0.81940023  0.81940023  1
  Zn  Zn40  1  0.81940023  0.30377365  0.81940023  1
  Zn  Zn41  1  0.69622635  0.44257610  0.18059977  1
  Zn  Zn42  1  0.44257610  0.69622635  0.18059977  1
  Zn  Zn43  1  0.18059977  0.18059977  0.44257610  1
loop_
_geom_bond_atom_site_label_1
_geom_bond_atom_site_label_2
_geom_bond_distance
_geom_bond_site_symmetry_2
Zn0 Zn18 2.470708 1_544
Zn0 Zn8 2.470708 1_455
Zn0 Zn12 2.470708 1_454
Zn0 Zn14 2.470708 1_545
Zn0 Zn15 2.470709 1_554
Zn0 Zn9 2.470709 1_445
Zn0 Zn27 2.792993 1_455
Zn0 Zn39 2.792993 1_544
Zn0 Zn28 2.792993 1_545
Zn0 Zn40 2.792993 1_454
Zn0 Zn20 2.792993 1_554
Zn0 Zn38 2.792993 1_445
Zn1 Zn9 2.470709 1_445
Zn1 Zn15 2.470709 1_555
Zn1 Zn17 2.470709 1_455
Zn1 Zn13 2.470709 1_545
Zn1 Zn19 2.470709 1_545
Zn1 Zn11 2.470709 1_455
Zn1 Zn24 2.792984 1_545
Zn1 Zn32 2.792984 1_455
Zn1 Zn21 2.792984 1_455
Zn1 Zn33 2.792984 1_545
Zn1 Zn43 2.793001 1_555
Zn1 Zn37 2.793001 1_445
Zn2 Zn8 2.470708 1_555
Zn2 Zn42 2.792985 1_545
Zn2 Zn26 2.792985 1_554
Zn2 Zn35 2.792985 1_545
Zn2 Zn29 2.792985 1_554
Zn2 Zn31 2.793001 1_555
Zn2 Zn22 2.793001 1_544
Zn3 Zn41 2.792985 1_455
Zn3 Zn36 2.792985 1_455
Zn3 Zn30 2.792985 1_554
Zn3 Zn34 2.793001 1_555
Zn4 Zn41 2.925544 1_555
Zn4 Zn42 2.925544 1_555
Zn4 Zr0 3.015891 1_555
Zn4 Zr1 3.015891 1_555
Zn5 Zr0 3.015891 1_555
Zn5 Zr1 3.015891 1_554
Zn6 Zr1 3.015891 1_455
Zn6 Zr0 3.015891 1_555
Zn7 Zr0 3.015891 1_555
Zn7 Zr1 3.015891 1_545
Zn10 Zn3 2.470709 1_556
Zn10 Zn2 2.470709 1_556
Zn10 Zn26 2.629698 1_555
Zn10 Zn25 2.629698 1_555
Zn10 Zn12 2.747660 1_455
Zn10 Zn18 2.747661 1_545
Zn10 Zn11 2.747661 1_456
Zn10 Zn13 2.747661 1_546
Zn10 Zn29 2.790322 1_555
Zn10 Zn30 2.790322 1_555
Zn10 Zn31 2.790339 1_556
Zn10 Zn34 2.790339 1_556
Zn11 Zn3 2.470709 1_655
Zn11 Zn36 2.629698 1_555
Zn11 Zn21 2.629698 1_555
Zn11 Zn9 2.747661 1_545
Zn11 Zn13 2.747661 1_645
Zn11 Zn12 2.747661 1_554
Zn11 Zn41 2.790322 1_555
Zn11 Zn32 2.790322 1_555
Zn11 Zn34 2.790339 1_655
Zn11 Zn43 2.790339 1_655
Zn12 Zn3 2.470708 1_656
Zn12 Zn23 2.629706 1_555
Zn12 Zn40 2.629715 1_555
Zn12 Zn18 2.747661 1_645
Zn12 Zn9 2.747661 1_546
Zn12 Zn27 2.790323 1_556
Zn12 Zn20 2.790323 1_655
Zn12 Zn41 2.790332 1_556
Zn12 Zn30 2.790332 1_655
Zn13 Zn2 2.470709 1_565
Zn13 Zn35 2.629698 1_555
Zn13 Zn24 2.629698 1_555
Zn13 Zn9 2.747660 1_455
Zn13 Zn18 2.747661 1_554
Zn13 Zn42 2.790322 1_555
Zn13 Zn33 2.790322 1_555
Zn13 Zn31 2.790339 1_565
Zn13 Zn43 2.790339 1_565
Zn14 Zn3 2.470708 1_555
Zn14 Zn34 2.629706 1_555
Zn14 Zn28 2.629715 1_555
Zn14 Zn16 2.747660 1_455
Zn14 Zn8 2.747661 1_465
Zn14 Zn19 2.747661 1_554
Zn14 Zn15 2.747661 1_564
Zn14 Zn39 2.790323 1_554
Zn14 Zn38 2.790323 1_455
Zn14 Zn25 2.790332 1_554
Zn14 Zn36 2.790332 1_455
Zn15 Zn43 2.629706 1_555
Zn15 Zn20 2.629715 1_555
Zn15 Zn17 2.747660 1_455
Zn15 Zn19 2.747661 1_545
Zn15 Zn8 2.747661 1_456
Zn15 Zn39 2.790323 1_545
Zn15 Zn40 2.790323 1_455
Zn15 Zn24 2.790332 1_545
Zn15 Zn21 2.790332 1_455
Zn16 Zn3 2.470709 1_655
Zn16 Zn2 2.470709 1_565
Zn16 Zn42 2.629698 1_555
Zn16 Zn41 2.629698 1_555
Zn16 Zn8 2.747661 1_565
Zn16 Zn19 2.747661 1_654
Zn16 Zn17 2.747661 1_564
Zn16 Zn35 2.790322 1_555
Zn16 Zn36 2.790322 1_555
Zn16 Zn22 2.790339 1_554
Zn16 Zn23 2.790339 1_554
Zn17 Zn2 2.470709 1_556
Zn17 Zn29 2.629698 1_555
Zn17 Zn32 2.629698 1_555
Zn17 Zn19 2.747661 1_645
Zn17 Zn8 2.747661 1_556
Zn17 Zn26 2.790322 1_555
Zn17 Zn21 2.790322 1_555
Zn17 Zn22 2.790339 1_545
Zn17 Zn37 2.790339 1_545
Zn18 Zn2 2.470708 1_566
Zn18 Zn22 2.629706 1_555
Zn18 Zn39 2.629715 1_555
Zn18 Zn9 2.747661 1_456
Zn18 Zn28 2.790323 1_556
Zn18 Zn20 2.790323 1_565
Zn18 Zn42 2.790332 1_556
Zn18 Zn29 2.790332 1_565
Zn19 Zn3 2.470709 1_556
Zn19 Zn30 2.629698 1_555
Zn19 Zn33 2.629698 1_555
Zn19 Zn25 2.790322 1_555
Zn19 Zn24 2.790322 1_555
Zn19 Zn23 2.790339 1_455
Zn19 Zn37 2.790339 1_455
Zn20 Zn43 2.498419 1_555
Zn20 Zn29 2.580430 1_555
Zn20 Zn30 2.580430 1_555
Zn20 Zn40 2.905288 1_455
Zn20 Zn39 2.905288 1_545
Zn20 Zn7 2.925552 1_555
Zn20 Zn6 2.925552 1_555
Zn20 Zr0 2.982211 1_555
Zn21 Zn36 2.498419 1_555
Zn21 Zn40 2.580430 1_555
Zn21 Zn26 2.580430 1_555
Zn21 Zn32 2.905256 1_555
Zn21 Zn43 2.905289 1_655
Zn21 Zn4 2.925544 1_555
Zn21 Zn6 2.925560 1_655
Zn21 Zr1 2.982219 1_555
Zn22 Zn39 2.498419 1_555
Zn22 Zn23 2.580430 1_555
Zn22 Zn37 2.580430 1_555
Zn22 Zn29 2.905289 1_565
Zn22 Zn42 2.905289 1_556
Zn22 Zn5 2.925543 1_556
Zn22 Zn7 2.925543 1_565
Zn22 Zr1 2.982202 1_555
Zn23 Zn40 2.498419 1_555
Zn23 Zn37 2.580430 1_555
Zn23 Zn3 2.793001 1_656
Zn23 Zn30 2.905289 1_655
Zn23 Zn41 2.905289 1_556
Zn23 Zn5 2.925543 1_556
Zn23 Zn6 2.925543 1_655
Zn23 Zr1 2.982202 1_555
Zn24 Zn35 2.498419 1_555
Zn24 Zn39 2.580430 1_555
Zn24 Zn25 2.580430 1_555
Zn24 Zn33 2.905256 1_555
Zn24 Zn43 2.905289 1_565
Zn24 Zn4 2.925544 1_555
Zn24 Zn7 2.925560 1_565
Zn24 Zr1 2.982219 1_555
Zn25 Zn26 2.498419 1_555
Zn25 Zn39 2.580430 1_555
Zn25 Zn3 2.792985 1_556
Zn25 Zn30 2.905256 1_555
Zn25 Zn34 2.905289 1_556
Zn25 Zn4 2.925544 1_555
Zn25 Zn5 2.925560 1_556
Zn25 Zr1 2.982219 1_555
Zn26 Zn40 2.580430 1_555
Zn26 Zn8 2.790332 1_556
Zn26 Zn29 2.905256 1_555
Zn26 Zn31 2.905289 1_556
Zn26 Zn4 2.925544 1_555
Zn26 Zn5 2.925560 1_556
Zn26 Zr1 2.982219 1_555
Zn27 Zn31 2.498419 1_555
Zn27 Zn41 2.580430 1_555
Zn27 Zn32 2.580430 1_555
Zn27 Zn8 2.629715 1_555
Zn27 Zn9 2.790323 1_545
Zn27 Zn38 2.905288 1_545
Zn27 Zn40 2.905288 1_554
Zn27 Zn5 2.925552 1_555
Zn27 Zn7 2.925552 1_555
Zn27 Zr0 2.982211 1_555
Zn28 Zn34 2.498419 1_555
Zn28 Zn42 2.580430 1_555
Zn28 Zn33 2.580430 1_555
Zn28 Zn9 2.790323 1_455
Zn28 Zn38 2.905288 1_455
Zn28 Zn39 2.905288 1_554
Zn28 Zn5 2.925552 1_555
Zn28 Zn6 2.925552 1_555
Zn28 Zr0 2.982211 1_555
Zn29 Zn32 2.498419 1_555
Zn29 Zn30 2.580430 1_555
Zn29 Zn4 2.925544 1_555
Zn29 Zn7 2.925560 1_555
Zn29 Zr0 2.982219 1_555
Zn30 Zn33 2.498419 1_555
Zn30 Zn4 2.925544 1_555
Zn30 Zn6 2.925560 1_555
Zn30 Zr0 2.982219 1_555
Zn31 Zn34 2.580430 1_555
Zn31 Zn43 2.580430 1_555
Zn31 Zn8 2.629706 1_555
Zn31 Zn35 2.905289 1_545
Zn31 Zn5 2.925543 1_555
Zn31 Zn7 2.925543 1_555
Zn31 Zr0 2.982202 1_555
Zn32 Zn41 2.580430 1_555
Zn32 Zn9 2.790332 1_545
Zn32 Zn37 2.905289 1_545
Zn32 Zn4 2.925544 1_555
Zn32 Zn7 2.925560 1_555
Zn32 Zr0 2.982219 1_555
Zn33 Zn42 2.580430 1_555
Zn33 Zn9 2.790332 1_455
Zn33 Zn37 2.905289 1_455
Zn33 Zn4 2.925544 1_555
Zn33 Zn6 2.925560 1_555
Zn33 Zr0 2.982219 1_555
Zn34 Zn43 2.580430 1_555
Zn34 Zn36 2.905289 1_455
Zn34 Zn5 2.925543 1_555
Zn34 Zn6 2.925543 1_555
Zn34 Zr0 2.982202 1_555
Zn35 Zn38 2.580430 1_555
Zn35 Zn36 2.580430 1_555
Zn35 Zn8 2.790332 1_565
Zn35 Zn42 2.905256 1_555
Zn35 Zn4 2.925544 1_555
Zn35 Zn7 2.925560 1_565
Zn35 Zr1 2.982219 1_555
Zn36 Zn38 2.580430 1_555
Zn36 Zn41 2.905256 1_555
Zn36 Zn4 2.925544 1_555
Zn36 Zn6 2.925560 1_655
Zn36 Zr1 2.982219 1_555
Zn37 Zn38 2.498419 1_555
Zn37 Zn9 2.629706 1_555
Zn37 Zn7 2.925543 1_565
Zn37 Zn6 2.925543 1_655
Zn37 Zr1 2.982202 1_555
Zn38 Zn9 2.629715 1_555
Zn38 Zn8 2.790323 1_565
Zn38 Zn7 2.925552 1_565
Zn38 Zn6 2.925552 1_655
Zn38 Zr1 2.982211 1_555
Zn39 Zn5 2.925552 1_556
Zn39 Zn7 2.925552 1_565
Zn39 Zr1 2.982211 1_555
Zn40 Zn8 2.790323 1_556
Zn40 Zn5 2.925552 1_556
Zn40 Zn6 2.925552 1_655
Zn40 Zr1 2.982211 1_555
Zn41 Zn42 2.498419 1_555
Zn41 Zn5 2.925560 1_555
Zn41 Zr0 2.982219 1_555
Zn42 Zn5 2.925560 1_555
Zn42 Zr0 2.982219 1_555
Zn43 Zn7 2.925543 1_555
Zn43 Zn6 2.925543 1_555
Zn43 Zr0 2.982202 1_555
