# generated using pymatgen
data_Nb3FeRu2N
_symmetry_space_group_name_H-M   'P 1'
_cell_length_a   8.23362811
_cell_length_b   8.23362814
_cell_length_c   8.23362847
_cell_angle_alpha   59.99999865
_cell_angle_beta   59.99999853
_cell_angle_gamma   59.99999914
_symmetry_Int_Tables_number   1
_chemical_formula_structural   Nb3FeRu2N
_chemical_formula_sum   'Nb12 Fe4 Ru8 N4'
_cell_volume   394.69238926
_cell_formula_units_Z   4
loop_
 _symmetry_equiv_pos_site_id
 _symmetry_equiv_pos_as_xyz
  1  'x, y, z'
loop_
 _atom_site_type_symbol
 _atom_site_label
 _atom_site_symmetry_multiplicity
 _atom_site_fract_x
 _atom_site_fract_y
 _atom_site_fract_z
 _atom_site_occupancy
  Nb  Nb0  1  0.80779070  0.80779070  0.19220930  1
  Nb  Nb1  1  0.19220930  0.19220930  0.80779070  1
  Nb  Nb2  1  0.80779070  0.19220930  0.80779070  1
  Nb  Nb3  1  0.19220930  0.80779070  0.19220930  1
  Nb  Nb4  1  0.19220930  0.80779070  0.80779070  1
  Nb  Nb5  1  0.80779070  0.19220930  0.19220930  1
  Nb  Nb6  1  0.44220930  0.44220930  0.05779070  1
  Nb  Nb7  1  0.05779070  0.05779070  0.44220930  1
  Nb  Nb8  1  0.44220930  0.05779070  0.44220930  1
  Nb  Nb9  1  0.05779070  0.44220930  0.05779070  1
  Nb  Nb10  1  0.05779070  0.44220930  0.44220930  1
  Nb  Nb11  1  0.44220930  0.05779070  0.05779070  1
  Fe  Fe0  1  0.12500000  0.62500000  0.62500000  1
  Fe  Fe1  1  0.62500000  0.12500000  0.62500000  1
  Fe  Fe2  1  0.62500000  0.62500000  0.12500000  1
  Fe  Fe3  1  0.62500000  0.62500000  0.62500000  1
  Ru  Ru0  1  0.75067565  0.41644212  0.41644212  1
  Ru  Ru1  1  0.41644212  0.75067565  0.41644212  1
  Ru  Ru2  1  0.41644212  0.41644212  0.75067565  1
  Ru  Ru3  1  0.41644212  0.41644212  0.41644212  1
  Ru  Ru4  1  0.49932435  0.83355788  0.83355788  1
  Ru  Ru5  1  0.83355788  0.49932435  0.83355788  1
  Ru  Ru6  1  0.83355788  0.83355788  0.49932435  1
  Ru  Ru7  1  0.83355788  0.83355788  0.83355788  1
  N  N0  1  0.62500000  0.12500000  0.12500000  1
  N  N1  1  0.12500000  0.62500000  0.12500000  1
  N  N2  1  0.12500000  0.12500000  0.62500000  1
  N  N3  1  0.12500000  0.12500000  0.12500000  1
loop_
_geom_bond_atom_site_label_1
_geom_bond_atom_site_label_2
_geom_bond_distance
_geom_bond_site_symmetry_2
Nb0 Ru6 2.757202 1_555
Nb0 Ru7 2.757218 1_554
Nb0 Ru1 2.951360 1_555
Nb0 Ru0 2.951360 1_555
Nb1 Ru5 2.757211 1_455
Nb1 Ru4 2.757211 1_545
Nb1 Ru3 2.951367 1_555
Nb1 Ru2 2.951374 1_555
Nb2 Ru5 2.757202 1_555
Nb2 Ru7 2.757218 1_545
Nb2 Ru2 2.951360 1_555
Nb2 Ru0 2.951360 1_555
Nb3 Ru6 2.757211 1_455
Nb3 Ru4 2.757211 1_554
Nb3 Ru3 2.951367 1_555
Nb3 Ru1 2.951375 1_555
Nb4 Ru4 2.757202 1_555
Nb4 Ru7 2.757218 1_455
Nb4 Ru2 2.951360 1_555
Nb4 Ru1 2.951360 1_555
Nb5 Ru6 2.757211 1_545
Nb5 Ru5 2.757211 1_554
Nb5 Ru3 2.951367 1_555
Nb5 Ru0 2.951375 1_555
Nb6 Ru2 2.757202 1_554
Nb6 Ru3 2.757218 1_555
Nb6 Ru5 2.951360 1_554
Nb6 Ru4 2.951360 1_554
Nb7 Ru1 2.757211 1_545
Nb7 Ru0 2.757211 1_455
Nb7 Ru7 2.951367 1_445
Nb7 Ru6 2.951374 1_445
Nb8 Ru1 2.757202 1_545
Nb8 Ru3 2.757218 1_555
Nb8 Ru6 2.951360 1_545
Nb8 Ru4 2.951360 1_545
Nb9 Ru2 2.757211 1_554
Nb9 Ru0 2.757211 1_455
Nb9 Ru7 2.951367 1_454
Nb9 Ru5 2.951375 1_454
Nb10 Ru0 2.757202 1_455
Nb10 Ru3 2.757218 1_555
Nb10 Ru6 2.951360 1_455
Nb10 Ru5 2.951360 1_455
Nb11 Ru2 2.757211 1_554
Nb11 Ru1 2.757211 1_545
Nb11 Ru7 2.951367 1_544
Nb11 Ru4 2.951375 1_544
Fe0 Ru7 2.522537 1_455
Fe0 Ru3 2.522537 1_555
Fe0 Ru1 2.522546 1_555
Fe0 Ru5 2.522546 1_455
Fe0 Ru2 2.522546 1_555
Fe0 Ru6 2.522546 1_455
Fe0 Nb7 2.960958 1_565
Fe0 Nb1 2.960958 1_555
Fe0 Nb4 2.960958 1_555
Fe0 Nb9 2.960958 1_556
Fe0 Nb3 2.960958 1_555
Fe0 Nb10 2.960958 1_555
Fe1 Ru7 2.522537 1_545
Fe1 Ru3 2.522537 1_555
Fe1 Ru0 2.522546 1_555
Fe1 Ru4 2.522546 1_545
Fe1 Ru2 2.522546 1_555
Fe1 Ru6 2.522546 1_545
Fe1 Nb7 2.960958 1_655
Fe1 Nb1 2.960958 1_555
Fe1 Nb2 2.960958 1_555
Fe1 Nb11 2.960958 1_556
Fe1 Nb5 2.960958 1_555
Fe1 Nb8 2.960958 1_555
Fe2 Ru7 2.522537 1_554
Fe2 Ru3 2.522537 1_555
Fe2 Ru1 2.522546 1_555
Fe2 Ru5 2.522546 1_554
Fe2 Ru0 2.522546 1_555
Fe2 Ru4 2.522546 1_554
Fe2 Nb9 2.960958 1_655
Fe2 Nb3 2.960958 1_555
Fe2 Nb11 2.960958 1_565
Fe2 Nb5 2.960958 1_555
Fe2 Nb0 2.960958 1_555
Fe2 Nb6 2.960958 1_555
Fe3 Ru6 2.522532 1_555
Fe3 Ru2 2.522532 1_555
Fe3 Ru5 2.522532 1_555
Fe3 Ru1 2.522532 1_555
Fe3 Ru4 2.522532 1_555
Fe3 Ru0 2.522532 1_555
Fe3 Nb10 2.960958 1_655
Fe3 Nb4 2.960958 1_555
Fe3 Nb8 2.960958 1_565
Fe3 Nb2 2.960958 1_555
Fe3 Nb6 2.960958 1_556
Fe3 Nb0 2.960958 1_555
Ru0 Ru1 2.751955 1_555
Ru0 Ru2 2.751955 1_555
Ru0 Ru3 2.751955 1_555
Ru1 Ru3 2.751955 1_555
Ru1 Ru2 2.751955 1_555
Ru2 Ru3 2.751955 1_555
Ru4 Ru5 2.751955 1_555
Ru4 Ru6 2.751955 1_555
Ru4 Ru7 2.751955 1_555
Ru5 Ru7 2.751955 1_555
Ru5 Ru6 2.751955 1_555
Ru6 Ru7 2.751955 1_555
N0 Nb6 2.202156 1_555
N0 Nb0 2.202156 1_545
N0 Nb5 2.202156 1_555
N0 Nb8 2.202156 1_555
N0 Nb2 2.202156 1_554
N0 Nb11 2.202156 1_555
N1 Nb6 2.202156 1_555
N1 Nb0 2.202156 1_455
N1 Nb3 2.202156 1_555
N1 Nb10 2.202156 1_555
N1 Nb4 2.202156 1_554
N1 Nb9 2.202156 1_555
N2 Nb8 2.202156 1_555
N2 Nb2 2.202156 1_455
N2 Nb10 2.202156 1_555
N2 Nb4 2.202156 1_545
N2 Nb1 2.202156 1_555
N2 Nb7 2.202156 1_555
N3 Nb11 2.202156 1_555
N3 Nb5 2.202156 1_455
N3 Nb9 2.202156 1_555
N3 Nb3 2.202156 1_545
N3 Nb7 2.202156 1_555
N3 Nb1 2.202156 1_554
