# generated using pymatgen
data_InAg3(NO3)8
_symmetry_space_group_name_H-M   'P 1'
_cell_length_a   7.74907448
_cell_length_b   7.74907392
_cell_length_c   7.74907396
_cell_angle_alpha   88.68208923
_cell_angle_beta   88.68209245
_cell_angle_gamma   88.68209299
_symmetry_Int_Tables_number   1
_chemical_formula_structural   InAg3(NO3)8
_chemical_formula_sum   'In1 Ag3 N8 O24'
_cell_volume   464.95385838
_cell_formula_units_Z   1
loop_
 _symmetry_equiv_pos_site_id
 _symmetry_equiv_pos_as_xyz
  1  'x, y, z'
loop_
 _atom_site_type_symbol
 _atom_site_label
 _atom_site_symmetry_multiplicity
 _atom_site_fract_x
 _atom_site_fract_y
 _atom_site_fract_z
 _atom_site_occupancy
  In  In0  1  0.00000000  0.00000000  0.00000000  1
  Ag  Ag0  1  0.50000000  0.50000000  0.00000000  1
  Ag  Ag1  1  0.00000000  0.50000000  0.50000000  1
  Ag  Ag2  1  0.50000000  0.00000000  0.50000000  1
  N  N0  1  0.32542467  0.14133985  0.81364759  1
  N  N1  1  0.81364759  0.32542467  0.14133985  1
  N  N2  1  0.14133985  0.81364759  0.32542467  1
  N  N3  1  0.66979137  0.66979137  0.66979137  1
  N  N4  1  0.67457533  0.85866015  0.18635241  1
  N  N5  1  0.18635241  0.67457533  0.85866015  1
  N  N6  1  0.85866015  0.18635241  0.67457533  1
  N  N7  1  0.33020863  0.33020863  0.33020863  1
  O  O0  1  0.45055707  0.23451155  0.79049206  1
  O  O1  1  0.79049206  0.45055707  0.23451155  1
  O  O2  1  0.23451155  0.79049206  0.45055707  1
  O  O3  1  0.23068952  0.15646220  0.95096623  1
  O  O4  1  0.28588063  0.02935035  0.70650959  1
  O  O5  1  0.70650959  0.28588063  0.02935035  1
  O  O6  1  0.68711254  0.54590299  0.77581321  1
  O  O7  1  0.15646220  0.95096623  0.23068952  1
  O  O8  1  0.77581321  0.68711254  0.54590299  1
  O  O9  1  0.95096623  0.23068952  0.15646220  1
  O  O10  1  0.54590299  0.77581321  0.68711254  1
  O  O11  1  0.02935035  0.70650959  0.28588063  1
  O  O12  1  0.54944293  0.76548845  0.20950794  1
  O  O13  1  0.20950794  0.54944293  0.76548845  1
  O  O14  1  0.76548845  0.20950794  0.54944293  1
  O  O15  1  0.76931048  0.84353780  0.04903377  1
  O  O16  1  0.71411937  0.97064965  0.29349041  1
  O  O17  1  0.29349041  0.71411937  0.97064965  1
  O  O18  1  0.31288746  0.45409701  0.22418679  1
  O  O19  1  0.84353780  0.04903377  0.76931048  1
  O  O20  1  0.22418679  0.31288746  0.45409701  1
  O  O21  1  0.04903377  0.76931048  0.84353780  1
  O  O22  1  0.45409701  0.22418679  0.31288746  1
  O  O23  1  0.97064965  0.29349041  0.71411937  1
loop_
_geom_bond_atom_site_label_1
_geom_bond_atom_site_label_2
_geom_bond_distance
_geom_bond_site_symmetry_2
In0 O7 2.203920 1_545
In0 O19 2.203920 1_454
In0 O9 2.203920 1_455
In0 O21 2.203920 1_544
In0 O3 2.203920 1_554
In0 O15 2.203920 1_445
Ag0 O6 2.264136 1_554
Ag0 O18 2.264136 1_555
Ag0 O17 2.289723 1_554
Ag0 O5 2.289723 1_555
Ag0 O12 2.689511 1_555
Ag0 O0 2.689511 1_554
Ag1 O8 2.264136 1_455
Ag1 O20 2.264136 1_555
Ag1 O11 2.289723 1_555
Ag1 O23 2.289723 1_455
Ag1 O13 2.689511 1_555
Ag1 O1 2.689511 1_455
Ag2 O10 2.264136 1_545
Ag2 O22 2.264136 1_555
Ag2 O4 2.289723 1_555
Ag2 O16 2.289723 1_545
Ag2 O14 2.689512 1_555
Ag2 O2 2.689512 1_545
N0 O0 1.229616 1_555
N0 O4 1.262277 1_555
N0 O3 1.284830 1_555
N1 O1 1.229616 1_555
N1 O5 1.262277 1_555
N1 O9 1.284830 1_555
N2 O2 1.229616 1_555
N2 O11 1.262277 1_555
N2 O7 1.284830 1_555
N3 O6 1.255985 1_555
N3 O8 1.255985 1_555
N3 O10 1.255985 1_555
N4 O12 1.229616 1_555
N4 O16 1.262277 1_555
N4 O15 1.284830 1_555
N5 O13 1.229616 1_555
N5 O17 1.262277 1_555
N5 O21 1.284830 1_555
N6 O14 1.229616 1_555
N6 O23 1.262277 1_555
N6 O19 1.284830 1_555
N7 O18 1.255985 1_555
N7 O20 1.255985 1_555
N7 O22 1.255985 1_555
