# generated using pymatgen
data_Ta3BeN
_symmetry_space_group_name_H-M   'P 1'
_cell_length_a   5.45091977
_cell_length_b   5.45091977
_cell_length_c   7.97460249
_cell_angle_alpha   90.00000000
_cell_angle_beta   90.00000000
_cell_angle_gamma   146.19742531
_symmetry_Int_Tables_number   1
_chemical_formula_structural   Ta3BeN
_chemical_formula_sum   'Ta6 Be2 N2'
_cell_volume   131.82063876
_cell_formula_units_Z   2
loop_
 _symmetry_equiv_pos_site_id
 _symmetry_equiv_pos_as_xyz
  1  'x, y, z'
loop_
 _atom_site_type_symbol
 _atom_site_label
 _atom_site_symmetry_multiplicity
 _atom_site_fract_x
 _atom_site_fract_y
 _atom_site_fract_z
 _atom_site_occupancy
  Ta  Ta0  1  0.93635701  0.06364299  0.25000000  1
  Ta  Ta1  1  0.06364299  0.93635701  0.75000000  1
  Ta  Ta2  1  0.64099542  0.35900458  0.43991508  1
  Ta  Ta3  1  0.35900458  0.64099542  0.56008492  1
  Ta  Ta4  1  0.64099542  0.35900458  0.06008492  1
  Ta  Ta5  1  0.35900458  0.64099542  0.93991508  1
  Be  Be0  1  0.26065465  0.73934535  0.25000000  1
  Be  Be1  1  0.73934535  0.26065465  0.75000000  1
  N  N0  1  0.00000000  0.00000000  0.50000000  1
  N  N1  1  0.00000000  0.00000000  0.00000000  1
loop_
_geom_bond_atom_site_label_1
_geom_bond_atom_site_label_2
_geom_bond_distance
_geom_bond_site_symmetry_2
Be0 Ta0 2.422862 1_455
Be0 Ta0 2.422862 1_565
Be0 Ta2 2.522482 1_565
Be0 Ta4 2.522482 1_565
Be0 Ta2 2.522482 1_455
Be0 Ta4 2.522482 1_455
Be0 Ta3 2.677162 1_555
Be0 Ta5 2.677162 1_554
Be1 Ta1 2.422862 1_655
Be1 Ta1 2.422862 1_545
Be1 Ta5 2.522482 1_545
Be1 Ta3 2.522482 1_545
Be1 Ta5 2.522482 1_655
Be1 Ta3 2.522482 1_655
Be1 Ta4 2.677162 1_556
Be1 Ta2 2.677162 1_555
N0 Ta1 2.101273 1_545
N0 Ta0 2.101273 1_455
N0 Ta3 2.214477 1_555
N0 Ta2 2.214477 1_445
N0 Ta2 2.214477 1_555
N0 Ta3 2.214477 1_445
N1 Ta1 2.101273 1_544
N1 Ta0 2.101273 1_455
N1 Ta5 2.214477 1_554
N1 Ta4 2.214477 1_445
N1 Ta4 2.214477 1_555
N1 Ta5 2.214477 1_444
