# generated using pymatgen
data_TiZn8Pd3O16
_symmetry_space_group_name_H-M   'P 1'
_cell_length_a   6.03770358
_cell_length_b   6.01490002
_cell_length_c   8.44390857
_cell_angle_alpha   89.34069522
_cell_angle_beta   90.00000000
_cell_angle_gamma   90.00000000
_symmetry_Int_Tables_number   1
_chemical_formula_structural   TiZn8Pd3O16
_chemical_formula_sum   'Ti1 Zn8 Pd3 O16'
_cell_volume   306.63023018
_cell_formula_units_Z   1
loop_
 _symmetry_equiv_pos_site_id
 _symmetry_equiv_pos_as_xyz
  1  'x, y, z'
loop_
 _atom_site_type_symbol
 _atom_site_label
 _atom_site_symmetry_multiplicity
 _atom_site_fract_x
 _atom_site_fract_y
 _atom_site_fract_z
 _atom_site_occupancy
  Ti  Ti0  1  0.77531192  0.50000000  0.75000000  1
  Zn  Zn0  1  0.99790793  0.23677931  0.00162296  1
  Zn  Zn1  1  0.99790793  0.76322069  0.49837704  1
  Zn  Zn2  1  0.26085126  0.24294385  0.62647921  1
  Zn  Zn3  1  0.26085126  0.75705615  0.87352079  1
  Zn  Zn4  1  0.23678870  0.00000000  0.25000000  1
  Zn  Zn5  1  0.75432720  0.00000000  0.75000000  1
  Zn  Zn6  1  0.74689144  0.25238535  0.37442367  1
  Zn  Zn7  1  0.74689144  0.74761465  0.12557633  1
  Pd  Pd0  1  0.24631967  0.50000000  0.25000000  1
  Pd  Pd1  1  0.49862355  0.74765470  0.50105590  1
  Pd  Pd2  1  0.49862355  0.25234530  0.99894410  1
  O  O0  1  0.52242622  0.73673815  0.73702133  1
  O  O1  1  0.52242622  0.26326185  0.76297867  1
  O  O2  1  0.73834754  0.97714460  0.50562703  1
  O  O3  1  0.73834754  0.02285540  0.99437297  1
  O  O4  1  0.73768375  0.51163077  0.51755171  1
  O  O5  1  0.73768375  0.48836923  0.98244829  1
  O  O6  1  0.98100057  0.73469526  0.75396348  1
  O  O7  1  0.98100057  0.26530474  0.74603652  1
  O  O8  1  0.01695141  0.73890814  0.25379627  1
  O  O9  1  0.01695141  0.26109186  0.24620373  1
  O  O10  1  0.25298191  0.51831261  0.48786118  1
  O  O11  1  0.25298191  0.48168739  0.01213882  1
  O  O12  1  0.26113568  0.97755208  0.49559124  1
  O  O13  1  0.26113568  0.02244792  0.00440876  1
  O  O14  1  0.47882500  0.74296636  0.26252751  1
  O  O15  1  0.47882500  0.25703364  0.23747249  1
loop_
_geom_bond_atom_site_label_1
_geom_bond_atom_site_label_2
_geom_bond_distance
_geom_bond_site_symmetry_2
O0 Zn3 1.959812 1_555
O0 Pd1 1.997972 1_555
O0 Ti0 2.089818 1_555
O0 Zn5 2.117516 1_565
O1 Zn2 1.959812 1_555
O1 Pd2 1.997972 1_555
O1 Ti0 2.089818 1_555
O1 Zn5 2.117516 1_555
O2 Zn6 1.982084 1_565
O2 Pd1 2.000755 1_555
O2 Zn1 2.029086 1_555
O2 Zn5 2.071863 1_565
O3 Zn7 1.982084 1_546
O3 Pd2 2.000755 1_555
O3 Zn0 2.029086 1_556
O3 Zn5 2.071863 1_555
O4 Ti0 1.976315 1_555
O4 Zn6 1.984592 1_555
O4 Pd1 2.028205 1_555
O4 Zn1 2.186127 1_555
O5 Ti0 1.976315 1_555
O5 Zn7 1.984592 1_556
O5 Pd2 2.028205 1_555
O5 Zn0 2.186127 1_556
O6 Ti0 1.880771 1_555
O6 Zn3 1.973652 1_655
O6 Zn5 2.102246 1_565
O6 Zn1 2.165397 1_555
O7 Ti0 1.880771 1_555
O7 Zn2 1.973652 1_655
O7 Zn5 2.102246 1_555
O7 Zn0 2.165397 1_556
O8 Zn7 1.957625 1_455
O8 Pd0 1.996224 1_555
O8 Zn4 2.056189 1_565
O8 Zn1 2.075254 1_455
O9 Zn6 1.957625 1_455
O9 Pd0 1.996224 1_555
O9 Zn4 2.056189 1_555
O9 Zn0 2.075254 1_455
O10 Pd0 2.013163 1_555
O10 Zn2 2.017682 1_555
O10 Pd1 2.029410 1_555
O10 Zn1 2.133706 1_455
O11 Pd0 2.013163 1_555
O11 Zn3 2.017682 1_554
O11 Pd2 2.029410 1_554
O11 Zn0 2.133706 1_455
O12 Zn2 1.951992 1_565
O12 Pd1 1.992195 1_555
O12 Zn1 2.046385 1_455
O12 Zn4 2.081787 1_565
O13 Zn3 1.951992 1_544
O13 Pd2 1.992195 1_554
O13 Zn0 2.046385 1_455
O13 Zn4 2.081787 1_555
O14 Zn7 1.989187 1_555
O14 Pd1 2.018177 1_555
O14 Pd0 2.030059 1_555
O14 Zn4 2.129123 1_565
O15 Zn6 1.989187 1_555
O15 Pd2 2.018177 1_554
O15 Pd0 2.030059 1_555
O15 Zn4 2.129123 1_555
