# generated using pymatgen
data_Y6Sn7Pd16Se
_symmetry_space_group_name_H-M   'P 1'
_cell_length_a   9.28051451
_cell_length_b   9.28051380
_cell_length_c   9.28051427
_cell_angle_alpha   59.99999832
_cell_angle_beta   60.00000087
_cell_angle_gamma   59.99999803
_symmetry_Int_Tables_number   1
_chemical_formula_structural   Y6Sn7Pd16Se
_chemical_formula_sum   'Y6 Sn7 Pd16 Se1'
_cell_volume   565.19864373
_cell_formula_units_Z   1
loop_
 _symmetry_equiv_pos_site_id
 _symmetry_equiv_pos_as_xyz
  1  'x, y, z'
loop_
 _atom_site_type_symbol
 _atom_site_label
 _atom_site_symmetry_multiplicity
 _atom_site_fract_x
 _atom_site_fract_y
 _atom_site_fract_z
 _atom_site_occupancy
  Y  Y0  1  0.71863009  0.28136991  0.28136991  1
  Y  Y1  1  0.28136991  0.71863009  0.71863009  1
  Y  Y2  1  0.28136991  0.71863009  0.28136991  1
  Y  Y3  1  0.71863009  0.28136991  0.71863009  1
  Y  Y4  1  0.28136991  0.28136991  0.71863009  1
  Y  Y5  1  0.71863009  0.71863009  0.28136991  1
  Sn  Sn0  1  0.00000000  0.00000000  0.00000000  1
  Sn  Sn1  1  0.50000000  0.00000000  0.00000000  1
  Sn  Sn2  1  0.00000000  0.50000000  0.50000000  1
  Sn  Sn3  1  0.00000000  0.50000000  0.00000000  1
  Sn  Sn4  1  0.50000000  0.00000000  0.50000000  1
  Sn  Sn5  1  0.00000000  0.00000000  0.50000000  1
  Sn  Sn6  1  0.50000000  0.50000000  0.00000000  1
  Pd  Pd0  1  0.11939855  0.11939855  0.11939855  1
  Pd  Pd1  1  0.88060145  0.88060145  0.88060145  1
  Pd  Pd2  1  0.11939855  0.11939855  0.64180334  1
  Pd  Pd3  1  0.11939855  0.64180334  0.11939855  1
  Pd  Pd4  1  0.88060145  0.88060145  0.35819666  1
  Pd  Pd5  1  0.88060145  0.35819666  0.88060145  1
  Pd  Pd6  1  0.64180334  0.11939855  0.11939855  1
  Pd  Pd7  1  0.35819666  0.88060145  0.88060145  1
  Pd  Pd8  1  0.33287536  0.33287536  0.33287536  1
  Pd  Pd9  1  0.66712464  0.66712464  0.66712464  1
  Pd  Pd10  1  0.33287536  0.33287536  0.00137291  1
  Pd  Pd11  1  0.33287536  0.00137291  0.33287536  1
  Pd  Pd12  1  0.66712464  0.66712464  0.99862709  1
  Pd  Pd13  1  0.66712464  0.99862709  0.66712464  1
  Pd  Pd14  1  0.00137291  0.33287536  0.33287536  1
  Pd  Pd15  1  0.99862709  0.66712464  0.66712464  1
  Se  Se0  1  0.50000000  0.50000000  0.50000000  1
loop_
_geom_bond_atom_site_label_1
_geom_bond_atom_site_label_2
_geom_bond_distance
_geom_bond_site_symmetry_2
Sn1 Y5 3.306887 1_545
Sn1 Y4 3.306887 1_554
Sn1 Y3 3.306888 1_554
Sn1 Y2 3.306888 1_545
Sn2 Y4 3.306888 1_555
Sn2 Y5 3.306888 1_455
Sn2 Y2 3.306888 1_555
Sn2 Y3 3.306888 1_455
Sn3 Y5 3.306888 1_455
Sn3 Y4 3.306888 1_554
Sn3 Y1 3.306888 1_554
Sn3 Y0 3.306888 1_455
Sn4 Y4 3.306887 1_555
Sn4 Y5 3.306887 1_545
Sn4 Y0 3.306888 1_555
Sn4 Y1 3.306888 1_545
Sn5 Y3 3.306887 1_455
Sn5 Y2 3.306887 1_545
Sn5 Y1 3.306887 1_545
Sn5 Y0 3.306887 1_455
Sn6 Y0 3.306887 1_555
Sn6 Y1 3.306887 1_554
Sn6 Y2 3.306887 1_555
Sn6 Y3 3.306887 1_554
Pd0 Sn0 2.714231 1_555
Pd0 Sn3 2.886508 1_555
Pd0 Sn5 2.886508 1_555
Pd0 Sn1 2.886508 1_555
Pd0 Y2 3.070904 1_545
Pd0 Y4 3.070904 1_554
Pd0 Y0 3.070904 1_455
Pd1 Sn0 2.714231 1_666
Pd1 Sn3 2.886508 1_656
Pd1 Sn5 2.886508 1_665
Pd1 Sn1 2.886508 1_566
Pd1 Y3 3.070904 1_565
Pd1 Y5 3.070904 1_556
Pd1 Y1 3.070904 1_655
Pd2 Sn0 2.714238 1_556
Pd2 Sn5 2.886500 1_555
Pd2 Sn2 2.886508 1_555
Pd2 Sn4 2.886508 1_555
Pd2 Y1 3.070902 1_545
Pd2 Y3 3.070903 1_455
Pd2 Y4 3.070911 1_555
Pd3 Sn0 2.714238 1_565
Pd3 Sn3 2.886500 1_555
Pd3 Sn2 2.886508 1_555
Pd3 Sn6 2.886508 1_555
Pd3 Y1 3.070903 1_554
Pd3 Y5 3.070903 1_455
Pd3 Y2 3.070911 1_555
Pd4 Sn0 2.714238 1_665
Pd4 Sn5 2.886500 1_665
Pd4 Sn2 2.886508 1_655
Pd4 Sn4 2.886508 1_565
Pd4 Y0 3.070902 1_565
Pd4 Y2 3.070903 1_655
Pd4 Y5 3.070911 1_555
Pd5 Sn0 2.714238 1_656
Pd5 Sn3 2.886500 1_656
Pd5 Sn2 2.886508 1_655
Pd5 Sn6 2.886508 1_556
Pd5 Y0 3.070903 1_556
Pd5 Y4 3.070903 1_655
Pd5 Y3 3.070911 1_555
Pd6 Sn0 2.714238 1_655
Pd6 Sn1 2.886500 1_555
Pd6 Sn6 2.886508 1_555
Pd6 Sn4 2.886508 1_555
Pd6 Y5 3.070902 1_545
Pd6 Y3 3.070903 1_554
Pd6 Y0 3.070910 1_555
Pd7 Sn0 2.714238 1_566
Pd7 Sn1 2.886500 1_566
Pd7 Sn6 2.886508 1_556
Pd7 Sn4 2.886508 1_565
Pd7 Y4 3.070902 1_565
Pd7 Y2 3.070903 1_556
Pd7 Y1 3.070910 1_555
Pd8 Sn4 2.679074 1_555
Pd8 Sn6 2.679074 1_555
Pd8 Sn2 2.679074 1_555
Pd8 Y2 3.174807 1_555
Pd8 Y4 3.174807 1_555
Pd8 Y0 3.174807 1_555
Pd9 Sn4 2.679074 1_565
Pd9 Sn6 2.679074 1_556
Pd9 Sn2 2.679074 1_655
Pd9 Y3 3.174807 1_555
Pd9 Y5 3.174807 1_555
Pd9 Y1 3.174807 1_555
Pd10 Sn1 2.679071 1_555
Pd10 Sn3 2.679071 1_555
Pd10 Sn6 2.679079 1_555
Pd10 Y4 3.174798 1_554
Pd10 Y1 3.174803 1_554
Pd10 Y3 3.174804 1_554
Pd11 Sn1 2.679071 1_555
Pd11 Sn5 2.679071 1_555
Pd11 Sn4 2.679079 1_555
Pd11 Y2 3.174798 1_545
Pd11 Y1 3.174804 1_545
Pd11 Y5 3.174804 1_545
Pd12 Sn1 2.679071 1_566
Pd12 Sn3 2.679071 1_656
Pd12 Sn6 2.679079 1_556
Pd12 Y5 3.174798 1_556
Pd12 Y0 3.174803 1_556
Pd12 Y2 3.174804 1_556
Pd13 Sn1 2.679071 1_566
Pd13 Sn5 2.679071 1_665
Pd13 Sn4 2.679079 1_565
Pd13 Y3 3.174798 1_565
Pd13 Y0 3.174804 1_565
Pd13 Y4 3.174804 1_565
Pd14 Sn5 2.679071 1_555
Pd14 Sn3 2.679071 1_555
Pd14 Sn2 2.679079 1_555
Pd14 Y0 3.174798 1_455
Pd14 Y5 3.174804 1_455
Pd14 Y3 3.174804 1_455
Pd15 Sn5 2.679071 1_665
Pd15 Sn3 2.679071 1_656
Pd15 Sn2 2.679079 1_655
Pd15 Y1 3.174798 1_655
Pd15 Y4 3.174804 1_655
Pd15 Y2 3.174804 1_655
Se0 Y3 2.869439 1_555
Se0 Y2 2.869439 1_555
Se0 Y1 2.869439 1_555
Se0 Y0 2.869439 1_555
Se0 Y5 2.869439 1_555
Se0 Y4 2.869439 1_555
