# generated using pymatgen
data_KRb2MnO4
_symmetry_space_group_name_H-M   'P 1'
_cell_length_a   8.10169510
_cell_length_b   8.10169549
_cell_length_c   10.69809628
_cell_angle_alpha   110.21763707
_cell_angle_beta   110.21763695
_cell_angle_gamma   95.00950413
_symmetry_Int_Tables_number   1
_chemical_formula_structural   KRb2MnO4
_chemical_formula_sum   'K4 Rb8 Mn4 O16'
_cell_volume   601.04716715
_cell_formula_units_Z   4
loop_
 _symmetry_equiv_pos_site_id
 _symmetry_equiv_pos_as_xyz
  1  'x, y, z'
loop_
 _atom_site_type_symbol
 _atom_site_label
 _atom_site_symmetry_multiplicity
 _atom_site_fract_x
 _atom_site_fract_y
 _atom_site_fract_z
 _atom_site_occupancy
  K  K0  1  0.72126403  0.97126403  0.94252807  1
  K  K1  1  0.97126403  0.72126403  0.44252807  1
  K  K2  1  0.27873597  0.02873597  0.05747193  1
  K  K3  1  0.02873597  0.27873597  0.55747193  1
  Rb  Rb0  1  0.05929013  0.30929013  0.25000000  1
  Rb  Rb1  1  0.69070987  0.94070987  0.25000000  1
  Rb  Rb2  1  0.30929013  0.05929013  0.75000000  1
  Rb  Rb3  1  0.73729539  0.48729539  0.97459179  1
  Rb  Rb4  1  0.48729539  0.73729539  0.47459179  1
  Rb  Rb5  1  0.26270461  0.51270461  0.02540821  1
  Rb  Rb6  1  0.94070987  0.69070987  0.75000000  1
  Rb  Rb7  1  0.51270461  0.26270461  0.52540821  1
  Mn  Mn0  1  0.86060987  0.13939013  0.75000000  1
  Mn  Mn1  1  0.13939013  0.86060987  0.25000000  1
  Mn  Mn2  1  0.61060987  0.38939013  0.25000000  1
  Mn  Mn3  1  0.38939013  0.61060987  0.75000000  1
  O  O0  1  0.91034762  0.35559508  0.76631672  1
  O  O1  1  0.35559508  0.91034762  0.26631672  1
  O  O2  1  0.60597221  0.21971191  0.09977266  1
  O  O3  1  0.08965238  0.64440492  0.23368328  1
  O  O4  1  0.39402779  0.78028809  0.90022734  1
  O  O5  1  0.21971191  0.60597221  0.59977266  1
  O  O6  1  0.88006175  0.99380145  0.59977266  1
  O  O7  1  0.64440492  0.08965238  0.73368328  1
  O  O8  1  0.99380145  0.88006175  0.09977266  1
  O  O9  1  0.41071964  0.35596810  0.26631672  1
  O  O10  1  0.64403090  0.58928036  0.23368328  1
  O  O11  1  0.35596810  0.41071964  0.76631672  1
  O  O12  1  0.58928036  0.64403090  0.73368328  1
  O  O13  1  0.00619855  0.11993825  0.90022734  1
  O  O14  1  0.78028809  0.39402779  0.40022734  1
  O  O15  1  0.11993825  0.00619855  0.40022734  1
loop_
_geom_bond_atom_site_label_1
_geom_bond_atom_site_label_2
_geom_bond_distance
_geom_bond_site_symmetry_2
K0 O2 2.613028 1_566
K0 O8 2.613029 1_556
K0 O12 2.631238 1_555
K0 O7 2.631239 1_565
K0 O13 2.756408 1_665
K0 O4 2.756418 1_555
K1 O5 2.613028 1_655
K1 O6 2.613029 1_555
K1 O10 2.631238 1_555
K1 O3 2.631239 1_655
K1 O15 2.756408 1_665
K1 O14 2.756418 1_555
K2 O4 2.613028 1_544
K2 O13 2.613029 1_554
K2 O9 2.631233 1_555
K2 O1 2.631239 1_545
K2 O8 2.756408 1_445
K2 O2 2.756418 1_555
K3 O14 2.613028 1_455
K3 O15 2.613029 1_555
K3 O11 2.631233 1_555
K3 O0 2.631239 1_455
K3 O6 2.756408 1_445
K3 O5 2.756418 1_555
Mn0 O7 1.696415 1_555
Mn0 O0 1.696415 1_555
Mn0 O13 1.701853 1_655
Mn0 O6 1.701853 1_545
Mn1 O1 1.696415 1_555
Mn1 O3 1.696415 1_555
Mn1 O8 1.701853 1_455
Mn1 O15 1.701853 1_565
Mn2 O10 1.696431 1_555
Mn2 O9 1.696432 1_555
Mn2 O14 1.701853 1_555
Mn2 O2 1.701853 1_555
Mn3 O12 1.696431 1_555
Mn3 O11 1.696432 1_555
Mn3 O5 1.701853 1_555
Mn3 O4 1.701853 1_555
O0 Rb6 2.775392 1_555
O0 Rb3 2.974217 1_555
O0 Rb5 2.984984 1_656
O0 Rb7 3.175613 1_555
O1 Rb1 2.775392 1_555
O1 Rb4 2.974217 1_555
O1 Rb7 2.984984 1_565
O1 Rb5 3.175613 1_555
O2 Rb1 3.191063 1_545
O2 Rb3 3.195895 1_554
O2 Rb0 3.353601 1_655
O2 Rb2 3.368228 1_554
O3 Rb0 2.775392 1_555
O3 Rb5 2.974217 1_555
O3 Rb3 2.984984 1_454
O3 Rb4 3.175613 1_555
O4 Rb2 3.191063 1_565
O4 Rb5 3.195895 1_556
O4 Rb6 3.353601 1_455
O4 Rb1 3.368228 1_556
O5 Rb6 3.191063 1_455
O5 Rb4 3.195895 1_555
O5 Rb2 3.353601 1_565
O5 Rb0 3.368228 1_555
O6 Rb2 3.191056 1_665
O6 Rb4 3.195914 1_555
O6 Rb6 3.353608 1_555
O6 Rb1 3.368226 1_555
O7 Rb2 2.775392 1_555
O7 Rb7 2.974217 1_555
O7 Rb4 2.984984 1_545
O7 Rb3 3.175613 1_555
O8 Rb0 3.191056 1_665
O8 Rb3 3.195914 1_554
O8 Rb1 3.353608 1_555
O8 Rb6 3.368226 1_554
O9 Rb0 2.775376 1_555
O9 Rb4 2.974216 1_555
O9 Rb7 2.984974 1_555
O9 Rb5 3.175621 1_555
O10 Rb1 2.775376 1_555
O10 Rb5 2.974210 1_555
O10 Rb3 2.984979 1_554
O10 Rb4 3.175616 1_555
O11 Rb2 2.775376 1_555
O11 Rb3 2.974216 1_555
O11 Rb5 2.984974 1_556
O11 Rb7 3.175621 1_555
O12 Rb6 2.775376 1_555
O12 Rb7 2.974210 1_555
O12 Rb4 2.984979 1_555
O12 Rb3 3.175616 1_555
O13 Rb6 3.191056 1_445
O13 Rb5 3.195914 1_556
O13 Rb2 3.353608 1_555
O13 Rb0 3.368226 1_556
O14 Rb0 3.191063 1_655
O14 Rb7 3.195895 1_555
O14 Rb1 3.353601 1_545
O14 Rb6 3.368228 1_555
O15 Rb1 3.191056 1_445
O15 Rb7 3.195914 1_555
O15 Rb0 3.353608 1_555
O15 Rb2 3.368226 1_555
