# generated using pymatgen
data_Ta12Zn11CuN2
_symmetry_space_group_name_H-M   'P 1'
_cell_length_a   8.08549563
_cell_length_b   8.08657599
_cell_length_c   8.08549541
_cell_angle_alpha   60.00442424
_cell_angle_beta   60.00000488
_cell_angle_gamma   60.00442492
_symmetry_Int_Tables_number   1
_chemical_formula_structural   Ta12Zn11CuN2
_chemical_formula_sum   'Ta12 Zn11 Cu1 N2'
_cell_volume   373.84537584
_cell_formula_units_Z   1
loop_
 _symmetry_equiv_pos_site_id
 _symmetry_equiv_pos_as_xyz
  1  'x, y, z'
loop_
 _atom_site_type_symbol
 _atom_site_label
 _atom_site_symmetry_multiplicity
 _atom_site_fract_x
 _atom_site_fract_y
 _atom_site_fract_z
 _atom_site_occupancy
  Ta  Ta0  1  0.19095948  0.80892015  0.19095948  1
  Ta  Ta1  1  0.44121315  0.05924518  0.44121315  1
  Ta  Ta2  1  0.44121315  0.05924518  0.05832952  1
  Ta  Ta3  1  0.44083812  0.44107985  0.05904052  1
  Ta  Ta4  1  0.19095948  0.80892015  0.80916188  1
  Ta  Ta5  1  0.05904052  0.44107985  0.05904052  1
  Ta  Ta6  1  0.80916188  0.80892015  0.19095948  1
  Ta  Ta7  1  0.05904052  0.44107985  0.44083812  1
  Ta  Ta8  1  0.19167048  0.19075482  0.80878685  1
  Ta  Ta9  1  0.80878685  0.19075482  0.19167048  1
  Ta  Ta10  1  0.80878685  0.19075482  0.80878685  1
  Ta  Ta11  1  0.05832952  0.05924518  0.44121315  1
  Zn  Zn0  1  0.83306682  0.50080154  0.83306682  1
  Zn  Zn1  1  0.41946706  0.41364839  0.74741550  1
  Zn  Zn2  1  0.74741550  0.41364839  0.41946706  1
  Zn  Zn3  1  0.41946706  0.41364839  0.41946706  1
  Zn  Zn4  1  0.83053294  0.83635161  0.50258450  1
  Zn  Zn5  1  0.41693318  0.74919846  0.41693318  1
  Zn  Zn6  1  0.83053294  0.83635161  0.83053294  1
  Zn  Zn7  1  0.50258450  0.83635161  0.83053294  1
  Zn  Zn8  1  0.62500000  0.62500000  0.12500000  1
  Zn  Zn9  1  0.12500000  0.62500000  0.62500000  1
  Zn  Zn10  1  0.62500000  0.62500000  0.62500000  1
  Cu  Cu0  1  0.62500000  0.12500000  0.62500000  1
  N  N0  1  0.99991235  0.00026394  0.99991235  1
  N  N1  1  0.25008765  0.24973606  0.25008765  1
loop_
_geom_bond_atom_site_label_1
_geom_bond_atom_site_label_2
_geom_bond_distance
_geom_bond_site_symmetry_2
Ta0 Zn7 2.731336 1_554
Ta0 Zn4 2.731336 1_455
Ta0 Zn5 2.912675 1_555
Ta0 Zn9 2.918079 1_555
Ta0 Zn8 2.918079 1_555
Ta0 Zn3 2.940759 1_555
Ta1 Zn3 2.701573 1_555
Ta1 Zn5 2.717726 1_545
Ta1 Zn7 2.898039 1_545
Ta1 Zn4 2.898040 1_545
Ta1 Zn10 2.919021 1_545
Ta2 Zn1 2.701584 1_554
Ta2 Zn5 2.717712 1_545
Ta2 Zn7 2.898032 1_544
Ta2 Zn6 2.898036 1_544
Ta2 Zn8 2.919022 1_545
Ta3 Zn3 2.731333 1_555
Ta3 Zn1 2.731341 1_554
Ta3 Zn0 2.912696 1_554
Ta3 Zn10 2.918080 1_554
Ta3 Zn8 2.918085 1_555
Ta3 Zn7 2.940769 1_554
Ta4 Zn6 2.731333 1_455
Ta4 Zn7 2.731341 1_555
Ta4 Zn5 2.912695 1_555
Ta4 Zn10 2.918080 1_555
Ta4 Zn9 2.918085 1_555
Ta4 Zn1 2.940769 1_555
Ta5 Zn2 2.731336 1_455
Ta5 Zn1 2.731336 1_554
Ta5 Zn0 2.912675 1_454
Ta5 Zn9 2.918079 1_554
Ta5 Zn8 2.918079 1_455
Ta5 Zn6 2.940759 1_454
Ta6 Zn6 2.731333 1_554
Ta6 Zn4 2.731341 1_555
Ta6 Zn5 2.912696 1_555
Ta6 Zn10 2.918080 1_555
Ta6 Zn8 2.918085 1_555
Ta6 Zn2 2.940769 1_555
Ta7 Zn3 2.731333 1_555
Ta7 Zn2 2.731341 1_455
Ta7 Zn0 2.912695 1_455
Ta7 Zn10 2.918080 1_455
Ta7 Zn9 2.918085 1_555
Ta7 Zn4 2.940769 1_455
Ta8 Zn7 2.701584 1_545
Ta8 Zn0 2.717712 1_455
Ta8 Zn1 2.898032 1_555
Ta8 Zn3 2.898036 1_555
Ta8 Zn9 2.919022 1_555
Ta9 Zn4 2.701584 1_545
Ta9 Zn0 2.717712 1_554
Ta9 Zn2 2.898032 1_555
Ta9 Zn3 2.898036 1_555
Ta9 Zn8 2.919022 1_555
Ta10 Zn6 2.701573 1_545
Ta10 Zn0 2.717726 1_555
Ta10 Zn2 2.898039 1_555
Ta10 Zn1 2.898040 1_555
Ta10 Zn10 2.919021 1_555
Ta11 Zn2 2.701584 1_455
Ta11 Zn5 2.717712 1_545
Ta11 Zn4 2.898032 1_445
Ta11 Zn6 2.898036 1_445
Ta11 Zn9 2.919022 1_545
Zn0 Zn8 2.473959 1_556
Zn0 Zn9 2.473959 1_655
Zn0 Zn10 2.473972 1_555
Zn0 Zn6 2.693122 1_555
Zn0 Zn4 2.693122 1_555
Zn0 Zn7 2.693122 1_555
Zn1 Zn9 2.483134 1_555
Zn1 Zn10 2.483147 1_555
Zn1 Zn3 2.651626 1_555
Zn1 Zn2 2.651626 1_555
Zn1 Zn5 2.693122 1_555
Zn2 Zn8 2.483134 1_555
Zn2 Zn3 2.651626 1_555
Zn2 Zn5 2.693122 1_555
Zn3 Zn8 2.483143 1_555
Zn3 Zn9 2.483143 1_555
Zn3 Zn5 2.693122 1_555
Zn4 Zn9 2.483134 1_655
Zn4 Zn6 2.651626 1_555
Zn4 Zn7 2.651626 1_555
Zn5 Zn8 2.473959 1_555
Zn5 Zn9 2.473959 1_555
Zn6 Zn8 2.483143 1_556
Zn6 Zn9 2.483143 1_655
Zn6 Zn7 2.651626 1_555
Zn7 Zn8 2.483134 1_556
Zn10 Zn5 2.473972 1_555
Zn10 Zn7 2.483147 1_555
Zn10 Zn2 2.483147 1_555
Zn10 Zn4 2.483147 1_555
Cu0 Zn2 2.444674 1_555
Cu0 Zn7 2.444674 1_545
Cu0 Zn1 2.444674 1_555
Cu0 Zn4 2.444674 1_545
Cu0 Zn6 2.444683 1_545
Cu0 Zn3 2.444683 1_555
Cu0 Ta10 2.913331 1_555
Cu0 Ta1 2.913331 1_555
Cu0 Ta2 2.913338 1_556
Cu0 Ta9 2.913338 1_555
Cu0 Ta11 2.913338 1_655
Cu0 Ta8 2.913338 1_555
N0 Ta4 2.184699 1_645
N0 Ta0 2.184699 1_646
N0 Ta6 2.184699 1_546
N0 Ta9 2.185587 1_556
N0 Ta8 2.185587 1_655
N0 Ta10 2.185598 1_555
N1 Ta7 2.184699 1_555
N1 Ta5 2.184699 1_555
N1 Ta3 2.184699 1_555
N1 Ta2 2.185587 1_555
N1 Ta11 2.185587 1_555
N1 Ta1 2.185598 1_555
