# generated using pymatgen
data_Ba2Sr(LiSb)4
_symmetry_space_group_name_H-M   'P 1'
_cell_length_a   9.34277502
_cell_length_b   9.34277469
_cell_length_c   9.34277466
_cell_angle_alpha   148.77527627
_cell_angle_beta   132.88888164
_cell_angle_gamma   57.60728735
_symmetry_Int_Tables_number   1
_chemical_formula_structural   Ba2Sr(LiSb)4
_chemical_formula_sum   'Ba2 Sr1 Li4 Sb4'
_cell_volume   307.43533304
_cell_formula_units_Z   1
loop_
 _symmetry_equiv_pos_site_id
 _symmetry_equiv_pos_as_xyz
  1  'x, y, z'
loop_
 _atom_site_type_symbol
 _atom_site_label
 _atom_site_symmetry_multiplicity
 _atom_site_fract_x
 _atom_site_fract_y
 _atom_site_fract_z
 _atom_site_occupancy
  Ba  Ba0  1  0.63248008  0.13248008  0.50000000  1
  Ba  Ba1  1  0.36751992  0.86751992  0.50000000  1
  Sr  Sr0  1  0.00000000  0.00000000  0.00000000  1
  Li  Li0  1  0.98084380  0.67451419  0.30632961  1
  Li  Li1  1  0.01915620  0.32548581  0.69367039  1
  Li  Li2  1  0.63181641  0.32548581  0.30632961  1
  Li  Li3  1  0.36818359  0.67451419  0.69367039  1
  Sb  Sb0  1  0.79064650  0.79064650  0.00000000  1
  Sb  Sb1  1  0.20935350  0.20935350  1.00000000  1
  Sb  Sb2  1  0.69227724  0.50000000  0.19227724  1
  Sb  Sb3  1  0.30772276  0.50000000  0.80772276  1
loop_
_geom_bond_atom_site_label_1
_geom_bond_atom_site_label_2
_geom_bond_distance
_geom_bond_site_symmetry_2
Ba0 Li3 3.468222 1_544
Ba0 Li0 3.468222 1_545
Ba0 Li0 3.468223 1_556
Ba0 Li3 3.468225 1_555
Ba0 Li1 3.475420 1_655
Ba0 Li2 3.475426 1_555
Ba0 Sb0 3.609585 1_545
Ba0 Sb0 3.609586 1_556
Ba0 Sb3 3.617895 1_555
Ba0 Sb2 3.617895 1_545
Ba0 Sb2 3.617895 1_556
Ba0 Sb3 3.617896 1_544
Ba0 Sb1 3.940186 1_554
Ba0 Sb1 3.940186 1_655
Ba1 Li2 3.468222 1_566
Ba1 Li1 3.468222 1_565
Ba1 Li1 3.468223 1_554
Ba1 Li2 3.468225 1_555
Ba1 Li0 3.475420 1_455
Ba1 Li3 3.475426 1_555
Ba1 Sb1 3.609585 1_565
Ba1 Sb1 3.609586 1_554
Ba1 Sb2 3.617895 1_555
Ba1 Sb3 3.617895 1_565
Ba1 Sb3 3.617895 1_554
Ba1 Sb2 3.617896 1_566
Ba1 Sb0 3.940186 1_556
Ba1 Sb0 3.940186 1_455
Li0 Sb1 2.956210 1_654
Li0 Sb1 2.956211 1_665
Li0 Sb0 2.974632 1_555
Li0 Sb2 2.981668 1_555
Li1 Sb0 2.956210 1_456
Li1 Sb0 2.956211 1_445
Li1 Sb1 2.974632 1_555
Li1 Sb3 2.981668 1_555
Li2 Sb0 2.956208 1_545
Li2 Sb0 2.956213 1_556
Li2 Sb1 2.974640 1_554
Li2 Sb2 2.981661 1_555
Li3 Sb1 2.956208 1_565
Li3 Sb1 2.956213 1_554
Li3 Sb0 2.974640 1_556
Li3 Sb3 2.981661 1_555
Sb0 Sr0 3.427891 1_665
Sb1 Sr0 3.427891 1_556
Sb2 Sb3 2.871645 1_554
Sb2 Sr0 3.406255 1_655
Sb2 Sr0 3.406256 1_666
Sb3 Sr0 3.406255 1_566
Sb3 Sr0 3.406256 1_555
