# generated using pymatgen
data_Ho6Se11
_symmetry_space_group_name_H-M   'P 1'
_cell_length_a   11.49117976
_cell_length_b   11.53621901
_cell_length_c   11.98498951
_cell_angle_alpha   89.95367979
_cell_angle_beta   89.70093410
_cell_angle_gamma   88.36745503
_symmetry_Int_Tables_number   1
_chemical_formula_structural   Ho6Se11
_chemical_formula_sum   'Ho24 Se44'
_cell_volume   1588.12045516
_cell_formula_units_Z   4
loop_
 _symmetry_equiv_pos_site_id
 _symmetry_equiv_pos_as_xyz
  1  'x, y, z'
loop_
 _atom_site_type_symbol
 _atom_site_label
 _atom_site_symmetry_multiplicity
 _atom_site_fract_x
 _atom_site_fract_y
 _atom_site_fract_z
 _atom_site_occupancy
  Ho  Ho0  1  0.00971708  0.75258937  0.49869473  1
  Ho  Ho1  1  0.13941253  0.14082267  0.33273362  1
  Ho  Ho2  1  0.13951944  0.13768064  0.66349637  1
  Ho  Ho3  1  0.15623984  0.15750222  0.00065078  1
  Ho  Ho4  1  0.24056629  0.48718163  0.49995710  1
  Ho  Ho5  1  0.24753032  0.50480989  0.16923666  1
  Ho  Ho6  1  0.25642848  0.50123331  0.82857060  1
  Ho  Ho7  1  0.38843163  0.88094445  0.66673020  1
  Ho  Ho8  1  0.38536530  0.88083488  0.33127968  1
  Ho  Ho9  1  0.38794659  0.89375856  0.00053423  1
  Ho  Ho10  1  0.48284302  0.22383896  0.49622067  1
  Ho  Ho11  1  0.49566947  0.24102790  0.83501396  1
  Ho  Ho12  1  0.50317430  0.24895632  0.17204124  1
  Ho  Ho13  1  0.62550204  0.62750903  0.99935738  1
  Ho  Ho14  1  0.65519160  0.66005005  0.67139230  1
  Ho  Ho15  1  0.64774560  0.64626854  0.33608403  1
  Ho  Ho16  1  0.75081257  0.00894143  0.49891667  1
  Ho  Ho17  1  0.73961317  0.98695691  0.16283696  1
  Ho  Ho18  1  0.74012925  0.99161911  0.83675699  1
  Ho  Ho19  1  0.89605577  0.39235296  0.66876045  1
  Ho  Ho20  1  0.88052760  0.38586679  0.33753280  1
  Ho  Ho21  1  0.89235491  0.38828099  0.00062627  1
  Ho  Ho22  1  0.98560446  0.73711015  0.16236992  1
  Ho  Ho23  1  0.99166970  0.73972435  0.83784307  1
  Se  Se0  1  0.00444658  0.00715071  0.49478366  1
  Se  Se1  1  0.05979214  0.31189714  0.49960512  1
  Se  Se2  1  0.07122596  0.31427322  0.83339173  1
  Se  Se3  1  0.06732339  0.31543649  0.16670441  1
  Se  Se4  1  0.07039730  0.56921267  0.99950752  1
  Se  Se5  1  0.07577807  0.57073537  0.66759965  1
  Se  Se6  1  0.06817499  0.56893993  0.33410278  1
  Se  Se7  1  0.06514191  0.92023789  0.99969357  1
  Se  Se8  1  0.12149322  0.88730802  0.30160724  1
  Se  Se9  1  0.12654096  0.88485880  0.69262665  1
  Se  Se10  1  0.24631662  0.76816173  0.83665019  1
  Se  Se11  1  0.23723581  0.77445759  0.15986015  1
  Se  Se12  1  0.27144231  0.73819816  0.50087402  1
  Se  Se13  1  0.30881794  0.05263709  0.49848511  1
  Se  Se14  1  0.31542383  0.06958354  0.16592497  1
  Se  Se15  1  0.31237197  0.06646199  0.83452581  1
  Se  Se16  1  0.31922288  0.31750412  0.33534785  1
  Se  Se17  1  0.32355190  0.31440857  0.66199639  1
  Se  Se18  1  0.33040635  0.33091488  0.00063235  1
  Se  Se19  1  0.37052070  0.63983650  0.99413602  1
  Se  Se20  1  0.41214314  0.59659913  0.64998258  1
  Se  Se21  1  0.39234441  0.61689622  0.34909843  1
  Se  Se22  1  0.52766095  0.48590010  0.78947475  1
  Se  Se23  1  0.50580574  0.50309225  0.19061748  1
  Se  Se24  1  0.56734755  0.06772497  0.66865567  1
  Se  Se25  1  0.56946727  0.06644225  0.33186795  1
  Se  Se26  1  0.57046257  0.06959934  0.00101912  1
  Se  Se27  1  0.56051295  0.81370519  0.83428790  1
  Se  Se28  1  0.55943809  0.81102502  0.16701684  1
  Se  Se29  1  0.57201282  0.81859417  0.50058843  1
  Se  Se30  1  0.61941832  0.39150415  0.37654218  1
  Se  Se31  1  0.63633889  0.37316898  0.99583204  1
  Se  Se32  1  0.72540604  0.28198640  0.52434319  1
  Se  Se33  1  0.76214582  0.25136147  0.82913480  1
  Se  Se34  1  0.76753273  0.24303080  0.16472715  1
  Se  Se35  1  0.81597340  0.56097244  0.83247676  1
  Se  Se36  1  0.81088012  0.55725110  0.16913834  1
  Se  Se37  1  0.80382683  0.80411732  0.99984599  1
  Se  Se38  1  0.81675578  0.57029863  0.50618861  1
  Se  Se39  1  0.82977475  0.83079428  0.67068428  1
  Se  Se40  1  0.82373224  0.82403943  0.33136848  1
  Se  Se41  1  0.88109738  0.12828589  0.30938050  1
  Se  Se42  1  0.88006318  0.13176520  0.68753155  1
  Se  Se43  1  0.91402924  0.07081975  0.99870408  1
loop_
_geom_bond_atom_site_label_1
_geom_bond_atom_site_label_2
_geom_bond_distance
_geom_bond_site_symmetry_2
Ho0 Se0 2.935916 1_565
Ho0 Se6 2.956842 1_555
Ho0 Se5 2.998966 1_555
Ho0 Se12 3.007633 1_555
Ho0 Se39 3.031613 1_455
Ho0 Se40 3.034849 1_455
Ho0 Se38 3.100066 1_455
Ho0 Se9 3.112516 1_555
Ho0 Se8 3.117813 1_555
Ho1 Se1 2.935340 1_555
Ho1 Se3 2.935839 1_555
Ho1 Se14 2.937475 1_555
Ho1 Se0 2.941993 1_555
Ho1 Se16 2.943714 1_555
Ho1 Se13 2.948735 1_555
Ho1 Se8 2.961711 1_545
Ho1 Se41 2.990574 1_455
Ho2 Se13 2.917637 1_555
Ho2 Se1 2.940128 1_555
Ho2 Se9 2.945052 1_545
Ho2 Se15 2.961206 1_555
Ho2 Se2 2.968352 1_555
Ho2 Se17 2.978975 1_555
Ho2 Se0 2.989328 1_555
Ho2 Se42 2.996552 1_455
Ho3 Se15 2.853913 1_554
Ho3 Se2 2.856136 1_554
Ho3 Se3 2.864053 1_555
Ho3 Se14 2.868308 1_555
Ho3 Se18 2.869800 1_555
Ho3 Se7 2.958261 1_544
Ho3 Se43 2.984376 1_454
Ho4 Se5 2.900195 1_555
Ho4 Se16 2.903004 1_555
Ho4 Se17 2.925455 1_555
Ho4 Se12 2.927489 1_555
Ho4 Se1 2.940008 1_555
Ho4 Se21 2.943060 1_555
Ho4 Se6 2.949014 1_555
Ho4 Se20 2.982629 1_555
Ho5 Se6 2.927848 1_555
Ho5 Se4 2.964408 1_554
Ho5 Se23 2.979766 1_555
Ho5 Se18 2.981992 1_555
Ho5 Se19 2.986147 1_554
Ho5 Se16 3.036436 1_555
Ho5 Se21 3.041794 1_555
Ho5 Se3 3.052922 1_555
Ho5 Se11 3.111555 1_555
Ho6 Se19 2.892180 1_555
Ho6 Se5 2.935744 1_555
Ho6 Se18 2.958427 1_556
Ho6 Se20 3.010265 1_555
Ho6 Se17 3.020230 1_555
Ho6 Se4 3.040276 1_555
Ho6 Se2 3.073182 1_555
Ho6 Se10 3.079808 1_555
Ho6 Se22 3.149387 1_555
Ho7 Se27 2.914821 1_555
Ho7 Se10 2.930715 1_555
Ho7 Se12 2.937631 1_555
Ho7 Se13 2.955597 1_565
Ho7 Se29 2.967246 1_555
Ho7 Se24 3.020495 1_565
Ho7 Se9 3.022843 1_555
Ho7 Se15 3.044749 1_565
Ho7 Se20 3.290025 1_555
Ho8 Se28 2.897444 1_555
Ho8 Se13 2.933662 1_565
Ho8 Se12 2.939789 1_555
Ho8 Se11 2.963755 1_555
Ho8 Se29 3.031264 1_555
Ho8 Se14 3.037200 1_565
Ho8 Se21 3.050965 1_555
Ho8 Se25 3.052646 1_565
Ho8 Se8 3.053621 1_555
Ho9 Se15 2.931760 1_564
Ho9 Se27 2.934691 1_554
Ho9 Se14 2.937825 1_565
Ho9 Se11 2.938833 1_555
Ho9 Se19 2.942911 1_554
Ho9 Se28 2.950653 1_555
Ho9 Se26 2.959110 1_565
Ho9 Se10 2.962820 1_554
Ho10 Se25 2.837279 1_555
Ho10 Se13 2.850413 1_555
Ho10 Se17 2.871596 1_555
Ho10 Se16 2.887699 1_555
Ho10 Se24 2.893558 1_555
Ho10 Se30 2.899413 1_555
Ho10 Se32 2.906806 1_555
Ho11 Se22 2.909926 1_555
Ho11 Se18 2.910923 1_556
Ho11 Se26 2.919376 1_556
Ho11 Se24 2.923387 1_555
Ho11 Se15 2.955318 1_555
Ho11 Se31 2.971417 1_555
Ho11 Se17 2.978741 1_555
Ho11 Se33 3.068279 1_555
Ho12 Se25 2.932590 1_555
Ho12 Se23 2.941415 1_555
Ho12 Se16 2.964520 1_555
Ho12 Se31 2.990181 1_554
Ho12 Se26 2.996576 1_555
Ho12 Se18 2.998028 1_555
Ho12 Se14 3.032866 1_555
Ho12 Se34 3.037421 1_555
Ho12 Se30 3.265201 1_555
Ho13 Se19 2.930428 1_555
Ho13 Se37 2.930545 1_555
Ho13 Se31 2.933546 1_555
Ho13 Se28 2.999233 1_556
Ho13 Se27 3.000443 1_555
Ho13 Se35 3.039913 1_555
Ho13 Se36 3.046218 1_556
Ho13 Se23 3.046410 1_556
Ho13 Se22 3.225072 1_555
Ho14 Se27 2.830337 1_555
Ho14 Se39 2.851248 1_555
Ho14 Se38 2.880023 1_555
Ho14 Se22 2.885859 1_555
Ho14 Se35 2.891448 1_555
Ho14 Se29 2.892083 1_555
Ho14 Se20 2.919979 1_555
Ho15 Se36 2.902857 1_555
Ho15 Se29 2.913148 1_555
Ho15 Se40 2.921232 1_555
Ho15 Se23 2.935275 1_555
Ho15 Se38 2.938998 1_555
Ho15 Se28 2.941662 1_555
Ho15 Se21 2.967213 1_555
Ho15 Se30 3.004906 1_555
Ho16 Se0 2.914201 1_655
Ho16 Se25 2.958631 1_555
Ho16 Se24 2.986463 1_555
Ho16 Se40 3.028524 1_545
Ho16 Se39 3.031718 1_545
Ho16 Se29 3.049649 1_545
Ho16 Se41 3.061686 1_555
Ho16 Se42 3.079582 1_555
Ho16 Se32 3.169895 1_555
Ho17 Se26 2.894659 1_565
Ho17 Se40 2.908131 1_555
Ho17 Se41 2.927738 1_565
Ho17 Se25 2.937183 1_565
Ho17 Se28 2.940507 1_555
Ho17 Se37 2.951680 1_554
Ho17 Se34 2.980685 1_565
Ho17 Se43 2.981415 1_564
Ho18 Se39 2.888015 1_555
Ho18 Se26 2.889472 1_566
Ho18 Se42 2.917469 1_565
Ho18 Se24 2.951520 1_565
Ho18 Se27 2.952231 1_555
Ho18 Se43 2.956803 1_565
Ho18 Se37 2.992161 1_555
Ho18 Se33 3.015550 1_565
Ho19 Se35 2.892418 1_555
Ho19 Se1 2.894023 1_655
Ho19 Se32 2.939987 1_555
Ho19 Se2 2.948148 1_655
Ho19 Se5 2.956675 1_655
Ho19 Se38 2.957411 1_555
Ho19 Se33 2.968918 1_555
Ho19 Se42 3.025155 1_555
Ho20 Se36 2.922835 1_555
Ho20 Se1 2.946795 1_655
Ho20 Se34 2.974224 1_555
Ho20 Se41 2.990693 1_555
Ho20 Se38 3.008713 1_555
Ho20 Se30 3.033120 1_555
Ho20 Se3 3.052347 1_655
Ho20 Se6 3.061065 1_655
Ho20 Se32 3.114807 1_555
Ho21 Se36 2.938999 1_555
Ho21 Se3 2.941658 1_655
Ho21 Se35 2.951766 1_554
Ho21 Se31 2.952902 1_554
Ho21 Se4 2.964057 1_654
Ho21 Se2 2.971659 1_654
Ho21 Se34 2.972440 1_555
Ho21 Se33 3.021602 1_554
Ho21 Se43 3.663758 1_554
Ho22 Se4 2.896488 1_654
Ho22 Se8 2.900250 1_655
Ho22 Se40 2.902716 1_555
Ho22 Se36 2.928887 1_555
Ho22 Se11 2.935575 1_655
Ho22 Se37 2.950075 1_554
Ho22 Se6 2.968059 1_655
Ho22 Se7 3.030583 1_654
Ho23 Se9 2.889515 1_655
Ho23 Se4 2.890084 1_655
Ho23 Se39 2.915897 1_555
Ho23 Se35 2.927706 1_555
Ho23 Se10 2.953759 1_655
Ho23 Se5 2.962471 1_655
Ho23 Se37 2.974583 1_555
Ho23 Se7 2.989302 1_655
Se0 Se41 2.968917 1_455
Se0 Se8 2.991216 1_545
Se10 Se9 2.569379 1_555
Se10 Se19 2.773867 1_555
Se11 Se8 2.496234 1_555
Se11 Se19 2.922390 1_554
Se12 Se21 2.657861 1_555
Se12 Se20 2.889816 1_555
Se20 Se22 2.472048 1_555
Se21 Se23 2.629043 1_555
Se23 Se30 2.873484 1_555
Se30 Se32 2.479644 1_555
Se31 Se33 2.813298 1_555
Se31 Se34 2.919259 1_556
Se33 Se42 2.548145 1_555
Se34 Se41 2.526328 1_555
Se43 Se7 2.421038 1_645
