# generated using pymatgen
data_BaYTe3Au
_symmetry_space_group_name_H-M   'P 1'
_cell_length_a   7.88528207
_cell_length_b   7.88528150
_cell_length_c   11.50647549
_cell_angle_alpha   90.00000000
_cell_angle_beta   90.00000000
_cell_angle_gamma   146.92472767
_symmetry_Int_Tables_number   1
_chemical_formula_structural   BaYTe3Au
_chemical_formula_sum   'Ba2 Y2 Te6 Au2'
_cell_volume   390.44766673
_cell_formula_units_Z   2
loop_
 _symmetry_equiv_pos_site_id
 _symmetry_equiv_pos_as_xyz
  1  'x, y, z'
loop_
 _atom_site_type_symbol
 _atom_site_label
 _atom_site_symmetry_multiplicity
 _atom_site_fract_x
 _atom_site_fract_y
 _atom_site_fract_z
 _atom_site_occupancy
  Ba  Ba0  1  0.75796141  0.24203859  0.25000000  1
  Ba  Ba1  1  0.24203859  0.75796141  0.75000000  1
  Y  Y0  1  0.00000000  0.00000000  0.00000000  1
  Y  Y1  1  0.00000000  0.00000000  0.50000000  1
  Te  Te0  1  0.63815280  0.36184720  0.94829507  1
  Te  Te1  1  0.07817485  0.92182515  0.25000000  1
  Te  Te2  1  0.36184720  0.63815280  0.44829507  1
  Te  Te3  1  0.36184720  0.63815280  0.05170493  1
  Te  Te4  1  0.63815280  0.36184720  0.55170493  1
  Te  Te5  1  0.92182515  0.07817485  0.75000000  1
  Au  Au0  1  0.46489814  0.53510186  0.25000000  1
  Au  Au1  1  0.53510186  0.46489814  0.75000000  1
loop_
_geom_bond_atom_site_label_1
_geom_bond_atom_site_label_2
_geom_bond_distance
_geom_bond_site_symmetry_2
Ba0 Te1 3.524994 1_655
Ba0 Te1 3.524995 1_545
Ba0 Te2 3.565184 1_545
Ba0 Te3 3.565184 1_545
Ba0 Te2 3.565184 1_655
Ba0 Te3 3.565184 1_655
Ba0 Te4 3.915673 1_555
Ba0 Te0 3.915673 1_554
Ba1 Te5 3.524994 1_455
Ba1 Te5 3.524995 1_565
Ba1 Te0 3.565184 1_565
Ba1 Te4 3.565184 1_565
Ba1 Te0 3.565184 1_455
Ba1 Te4 3.565184 1_455
Ba1 Te3 3.915673 1_556
Ba1 Te2 3.915673 1_555
Te0 Y0 3.123155 1_666
Te0 Y0 3.123155 1_556
Te1 Y0 3.109941 1_565
Te1 Y1 3.109941 1_565
Te2 Y1 3.123155 1_555
Te2 Y1 3.123155 1_665
Te3 Y0 3.123155 1_555
Te3 Y0 3.123155 1_665
Te4 Y1 3.123155 1_665
Te4 Y1 3.123155 1_555
Te5 Y0 3.109941 1_656
Te5 Y1 3.109941 1_655
Au0 Te2 2.762831 1_555
Au0 Te3 2.762831 1_555
Au0 Te1 2.823224 1_545
Au0 Te1 2.823225 1_655
Au0 Ba0 3.850372 1_565
Au0 Ba0 3.850373 1_455
Au1 Te0 2.762831 1_555
Au1 Te4 2.762831 1_555
Au1 Te5 2.823224 1_565
Au1 Te5 2.823225 1_455
Au1 Ba1 3.850372 1_545
Au1 Ba1 3.850373 1_655
