# generated using pymatgen
data_Rb7Ta(SeO4)6
_symmetry_space_group_name_H-M   'P 1'
_cell_length_a   9.94230965
_cell_length_b   9.94230926
_cell_length_c   9.94230912
_cell_angle_alpha   109.68687280
_cell_angle_beta   109.68686702
_cell_angle_gamma   109.68686162
_symmetry_Int_Tables_number   1
_chemical_formula_structural   Rb7Ta(SeO4)6
_chemical_formula_sum   'Rb7 Ta1 Se6 O24'
_cell_volume   750.45282172
_cell_formula_units_Z   1
loop_
 _symmetry_equiv_pos_site_id
 _symmetry_equiv_pos_as_xyz
  1  'x, y, z'
loop_
 _atom_site_type_symbol
 _atom_site_label
 _atom_site_symmetry_multiplicity
 _atom_site_fract_x
 _atom_site_fract_y
 _atom_site_fract_z
 _atom_site_occupancy
  Rb  Rb0  1  0.50000000  0.50000000  0.50000000  1
  Rb  Rb1  1  0.67021237  0.16937471  0.32874828  1
  Rb  Rb2  1  0.32874828  0.67021237  0.16937471  1
  Rb  Rb3  1  0.16937471  0.32874828  0.67021237  1
  Rb  Rb4  1  0.32978763  0.83062529  0.67125172  1
  Rb  Rb5  1  0.67125172  0.32978763  0.83062529  1
  Rb  Rb6  1  0.83062529  0.67125172  0.32978763  1
  Ta  Ta0  1  0.00000000  0.00000000  0.00000000  1
  Se  Se0  1  0.24892547  0.02902319  0.37266083  1
  Se  Se1  1  0.37266083  0.24892547  0.02902319  1
  Se  Se2  1  0.02902319  0.37266083  0.24892547  1
  Se  Se3  1  0.75107453  0.97097681  0.62733917  1
  Se  Se4  1  0.62733917  0.75107453  0.97097681  1
  Se  Se5  1  0.97097681  0.62733917  0.75107453  1
  O  O0  1  0.10874822  0.58823758  0.84616414  1
  O  O1  1  0.84616414  0.10874822  0.58823758  1
  O  O2  1  0.58823758  0.84616414  0.10874822  1
  O  O3  1  0.89125178  0.41176242  0.15383586  1
  O  O4  1  0.15383586  0.89125178  0.41176242  1
  O  O5  1  0.41176242  0.15383586  0.89125178  1
  O  O6  1  0.01402015  0.70278633  0.63895989  1
  O  O7  1  0.63895989  0.01402015  0.70278633  1
  O  O8  1  0.70278633  0.63895989  0.01402015  1
  O  O9  1  0.98597985  0.29721367  0.36104011  1
  O  O10  1  0.36104011  0.98597985  0.29721367  1
  O  O11  1  0.29721367  0.36104011  0.98597985  1
  O  O12  1  0.02647783  0.22310652  0.09401033  1
  O  O13  1  0.09401033  0.02647783  0.22310652  1
  O  O14  1  0.53080813  0.35395622  0.21859752  1
  O  O15  1  0.35395622  0.21859752  0.53080813  1
  O  O16  1  0.21859752  0.53080813  0.35395622  1
  O  O17  1  0.46919187  0.64604378  0.78140248  1
  O  O18  1  0.64604378  0.78140248  0.46919187  1
  O  O19  1  0.78140248  0.46919187  0.64604378  1
  O  O20  1  0.77689348  0.90598967  0.97352217  1
  O  O21  1  0.90598967  0.97352217  0.77689348  1
  O  O22  1  0.97352217  0.77689348  0.90598967  1
  O  O23  1  0.22310652  0.09401033  0.02647783  1
loop_
_geom_bond_atom_site_label_1
_geom_bond_atom_site_label_2
_geom_bond_distance
_geom_bond_site_symmetry_2
O0 Se5 1.629447 1_455
O0 Rb2 2.841383 1_556
O0 Rb3 2.965973 1_555
O1 Se3 1.629447 1_545
O1 Rb3 2.841383 1_655
O1 Rb1 2.965973 1_555
O2 Se4 1.629447 1_554
O2 Rb1 2.841383 1_565
O2 Rb2 2.965973 1_555
O3 Se2 1.629447 1_655
O3 Rb5 2.841383 1_554
O3 Rb6 2.965973 1_555
O4 Se0 1.629447 1_565
O4 Rb6 2.841383 1_455
O4 Rb4 2.965973 1_555
O5 Se1 1.629447 1_556
O5 Rb4 2.841383 1_545
O5 Rb5 2.965973 1_555
O6 Se5 1.629970 1_455
O6 Rb4 2.816417 1_555
O6 Rb6 2.839180 1_455
O7 Se3 1.629970 1_545
O7 Rb5 2.816417 1_555
O7 Rb4 2.839180 1_545
O8 Se4 1.629970 1_554
O8 Rb6 2.816417 1_555
O8 Rb5 2.839180 1_554
O9 Se2 1.629970 1_655
O9 Rb1 2.816417 1_555
O9 Rb3 2.839180 1_655
O10 Se0 1.629970 1_565
O10 Rb2 2.816417 1_555
O10 Rb1 2.839180 1_565
O11 Se1 1.629970 1_556
O11 Rb3 2.816417 1_555
O11 Rb2 2.839180 1_556
O12 Se2 1.728925 1_555
O12 Ta0 1.976661 1_555
O13 Se0 1.728925 1_555
O13 Ta0 1.976661 1_555
O14 Se1 1.638945 1_555
O14 Rb0 2.858277 1_555
O14 Rb1 2.921190 1_555
O14 Rb6 3.025530 1_555
O15 Se0 1.638945 1_555
O15 Rb0 2.858278 1_555
O15 Rb3 2.921190 1_555
O15 Rb5 3.025530 1_555
O16 Se2 1.638945 1_555
O16 Rb0 2.858278 1_555
O16 Rb2 2.921190 1_555
O16 Rb4 3.025530 1_555
O17 Se4 1.638945 1_555
O17 Rb0 2.858277 1_555
O17 Rb4 2.921190 1_555
O17 Rb3 3.025530 1_555
O18 Se3 1.638945 1_555
O18 Rb0 2.858278 1_555
O18 Rb6 2.921190 1_555
O18 Rb2 3.025530 1_555
O19 Se5 1.638945 1_555
O19 Rb0 2.858278 1_555
O19 Rb5 2.921190 1_555
O19 Rb1 3.025530 1_555
O20 Se4 1.728925 1_555
O20 Ta0 1.976661 1_666
O21 Se3 1.728925 1_555
O21 Ta0 1.976661 1_666
O22 Se5 1.728925 1_555
O22 Ta0 1.976661 1_666
O23 Se1 1.728925 1_555
O23 Ta0 1.976661 1_555
