# generated using pymatgen
data_CsAlSbH
_symmetry_space_group_name_H-M   'P 1'
_cell_length_a   4.47204196
_cell_length_b   4.47204173
_cell_length_c   6.70485421
_cell_angle_alpha   90.00000000
_cell_angle_beta   90.00000000
_cell_angle_gamma   119.99999449
_symmetry_Int_Tables_number   1
_chemical_formula_structural   CsAlSbH
_chemical_formula_sum   'Cs1 Al1 Sb1 H1'
_cell_volume   116.12660038
_cell_formula_units_Z   1
loop_
 _symmetry_equiv_pos_site_id
 _symmetry_equiv_pos_as_xyz
  1  'x, y, z'
loop_
 _atom_site_type_symbol
 _atom_site_label
 _atom_site_symmetry_multiplicity
 _atom_site_fract_x
 _atom_site_fract_y
 _atom_site_fract_z
 _atom_site_occupancy
  Cs  Cs0  1  0.00000000  0.00000000  0.00777167  1
  Al  Al0  1  0.66666700  0.33333300  0.57623898  1
  Sb  Sb0  1  0.33333300  0.66666700  0.45193632  1
  H  H0  1  0.66666700  0.33333300  0.82115202  1
loop_
_geom_bond_atom_site_label_1
_geom_bond_atom_site_label_2
_geom_bond_distance
_geom_bond_site_symmetry_2
Cs0 H0 2.869149 1_454
Cs0 H0 2.869153 1_444
Cs0 H0 2.869153 1_554
Cs0 Sb0 3.941473 1_545
Cs0 Sb0 3.941476 1_555
Cs0 Sb0 3.941476 1_445
Al0 H0 1.642106 1_555
Al0 Sb0 2.713113 1_545
Al0 Sb0 2.713113 1_655
Al0 Sb0 2.713120 1_555
