# generated using pymatgen
data_Sc2(SeO3)3
_symmetry_space_group_name_H-M   'P 1'
_cell_length_a   8.14936148
_cell_length_b   8.14941700
_cell_length_c   7.67609571
_cell_angle_alpha   90.00696223
_cell_angle_beta   89.99792934
_cell_angle_gamma   119.99697298
_symmetry_Int_Tables_number   1
_chemical_formula_structural   Sc2(SeO3)3
_chemical_formula_sum   'Sc4 Se6 O18'
_cell_volume   441.50373179
_cell_formula_units_Z   2
loop_
 _symmetry_equiv_pos_site_id
 _symmetry_equiv_pos_as_xyz
  1  'x, y, z'
loop_
 _atom_site_type_symbol
 _atom_site_label
 _atom_site_symmetry_multiplicity
 _atom_site_fract_x
 _atom_site_fract_y
 _atom_site_fract_z
 _atom_site_occupancy
  Sc  Sc0  1  0.33335628  0.66665928  0.04482897  1
  Sc  Sc1  1  0.66666312  0.33332241  0.54486376  1
  Sc  Sc2  1  0.66664300  0.33333571  0.95513245  1
  Sc  Sc3  1  0.33334623  0.66669450  0.45518143  1
  Se  Se0  1  0.26679312  0.29875887  0.74996682  1
  Se  Se1  1  0.29875416  0.03197349  0.24999939  1
  Se  Se2  1  0.03196009  0.73321063  0.75002301  1
  Se  Se3  1  0.96804189  0.26679336  0.24998504  1
  Se  Se4  1  0.73321169  0.70123087  0.25001016  1
  Se  Se5  1  0.70124811  0.96804000  0.75000705  1
  O  O0  1  0.41601912  0.16999188  0.42186013  1
  O  O1  1  0.24604778  0.41602468  0.92183763  1
  O  O2  1  0.16992975  0.75394356  0.92187711  1
  O  O3  1  0.83002608  0.24607839  0.42183253  1
  O  O4  1  0.75393295  0.58399493  0.42185893  1
  O  O5  1  0.58397535  0.83005977  0.92185022  1
  O  O6  1  0.58401229  0.83004148  0.57814031  1
  O  O7  1  0.75394077  0.58393911  0.07815903  1
  O  O8  1  0.83005200  0.24604144  0.07813175  1
  O  O9  1  0.16996344  0.75391731  0.57818290  1
  O  O10  1  0.12620826  0.50819331  0.25000965  1
  O  O11  1  0.61799258  0.12621327  0.74998850  1
  O  O12  1  0.50821171  0.38199503  0.75001545  1
  O  O13  1  0.49179918  0.61801287  0.24997649  1
  O  O14  1  0.38197615  0.87378788  0.25001006  1
  O  O15  1  0.87379138  0.49178845  0.74999163  1
  O  O16  1  0.41602579  0.16995003  0.07814689  1
  O  O17  1  0.24607572  0.41600749  0.57812772  1
loop_
_geom_bond_atom_site_label_1
_geom_bond_atom_site_label_2
_geom_bond_distance
_geom_bond_site_symmetry_2
O0 Se1 1.686311 1_555
O0 Sc1 2.028952 1_555
O1 Se0 1.686302 1_555
O1 Sc0 2.028770 1_556
O2 Se2 1.686133 1_555
O2 Sc0 2.029279 1_556
O3 Se3 1.686328 1_555
O3 Sc1 2.028784 1_555
O4 Se4 1.686136 1_555
O4 Sc1 2.029330 1_555
O5 Se5 1.686261 1_555
O5 Sc0 2.028894 1_556
O6 Se5 1.686229 1_555
O6 Sc3 2.028935 1_555
O7 Se4 1.686263 1_555
O7 Sc2 2.028698 1_554
O8 Se3 1.686194 1_555
O8 Sc2 2.029385 1_554
O9 Se2 1.686237 1_555
O9 Sc3 2.028695 1_555
O10 Se3 1.730914 1_455
O10 Sc3 2.194946 1_555
O10 Sc0 2.195113 1_555
O11 Se5 1.731011 1_545
O11 Sc2 2.194591 1_555
O11 Sc1 2.194652 1_555
O12 Se0 1.731010 1_555
O12 Sc2 2.194425 1_555
O12 Sc1 2.194643 1_555
O13 Se4 1.730990 1_555
O13 Sc0 2.194608 1_555
O13 Sc3 2.194980 1_555
O14 Se1 1.730897 1_565
O14 Sc0 2.194880 1_555
O14 Sc3 2.194889 1_555
O15 Se2 1.731056 1_655
O15 Sc1 2.194608 1_555
O15 Sc2 2.194873 1_555
O16 Se1 1.686303 1_555
O16 Sc2 2.028993 1_554
O17 Se0 1.686129 1_555
O17 Sc3 2.029218 1_555
