# generated using pymatgen
data_Y5CoRuO12
_symmetry_space_group_name_H-M   'P 1'
_cell_length_a   6.76515231
_cell_length_b   6.76515326
_cell_length_c   7.18006902
_cell_angle_alpha   74.46538296
_cell_angle_beta   74.46538220
_cell_angle_gamma   50.52576077
_symmetry_Int_Tables_number   1
_chemical_formula_structural   Y5CoRuO12
_chemical_formula_sum   'Y5 Co1 Ru1 O12'
_cell_volume   242.28097908
_cell_formula_units_Z   1
loop_
 _symmetry_equiv_pos_site_id
 _symmetry_equiv_pos_as_xyz
  1  'x, y, z'
loop_
 _atom_site_type_symbol
 _atom_site_label
 _atom_site_symmetry_multiplicity
 _atom_site_fract_x
 _atom_site_fract_y
 _atom_site_fract_z
 _atom_site_occupancy
  Y  Y0  1  0.68908557  0.69509501  0.66647728  1
  Y  Y1  1  0.68959200  0.70360129  0.14219493  1
  Y  Y2  1  0.00266825  0.99733175  1.00000000  1
  Y  Y3  1  0.29639871  0.31040800  0.85780507  1
  Y  Y4  1  0.30490499  0.31091443  0.33352272  1
  Co  Co0  1  0.25266027  0.74733973  0.50000000  1
  Ru  Ru0  1  0.76554427  0.23445573  0.50000000  1
  O  O0  1  0.39975116  0.90660820  0.92522179  1
  O  O1  1  0.57468187  0.09635243  0.58126197  1
  O  O2  1  0.90364757  0.42531813  0.41873803  1
  O  O3  1  0.09339180  0.60024884  0.07477821  1
  O  O4  1  0.01056682  0.99057236  0.32058868  1
  O  O5  1  0.49779042  0.50115578  0.67929650  1
  O  O6  1  0.89862583  0.40415772  0.92483980  1
  O  O7  1  0.10011091  0.58353458  0.57961547  1
  O  O8  1  0.41646542  0.89988909  0.42038453  1
  O  O9  1  0.59584228  0.10137417  0.07516020  1
  O  O10  1  0.49884422  0.50220958  0.32070350  1
  O  O11  1  0.00942764  0.98943318  0.67941132  1
loop_
_geom_bond_atom_site_label_1
_geom_bond_atom_site_label_2
_geom_bond_distance
_geom_bond_site_symmetry_2
Co0 O8 1.848964 1_555
Co0 O7 1.848964 1_555
Co0 O4 1.901993 1_555
Co0 O11 1.901993 1_555
Co0 O5 1.914314 1_555
Co0 O10 1.914314 1_555
O0 Y2 2.277924 1_555
O0 Y1 2.285649 1_556
O0 Y3 2.286961 1_565
O0 Y0 2.290250 1_555
O1 Ru0 1.928440 1_555
O1 Y0 2.243871 1_545
O1 Y4 2.364221 1_555
O1 Y3 2.378121 1_555
O2 Ru0 1.928440 1_555
O2 Y4 2.243870 1_655
O2 Y0 2.364221 1_555
O2 Y1 2.378121 1_555
O3 Y2 2.277924 1_554
O3 Y3 2.285650 1_554
O3 Y1 2.286960 1_455
O3 Y4 2.290250 1_555
O4 Ru0 1.909621 1_465
O4 Y2 2.304311 1_554
O5 Ru0 2.008350 1_555
O5 Y0 2.331326 1_555
O5 Y3 2.361860 1_555
O6 Y3 2.274881 1_655
O6 Y0 2.286924 1_555
O6 Y2 2.303539 1_645
O6 Y1 2.325514 1_556
O7 Y0 2.312029 1_455
O7 Y3 2.343357 1_555
O7 Y4 2.372462 1_555
O8 Y4 2.312029 1_565
O8 Y1 2.343357 1_555
O8 Y0 2.372461 1_555
O9 Y1 2.274881 1_545
O9 Y4 2.286923 1_555
O9 Y2 2.303539 1_644
O9 Y3 2.325514 1_554
O10 Ru0 2.008350 1_555
O10 Y4 2.331326 1_555
O10 Y1 2.361860 1_555
O11 Ru0 1.909621 1_465
O11 Y2 2.304311 1_555
