# generated using pymatgen
data_RbSb12(OsPd)2
_symmetry_space_group_name_H-M   'P 1'
_cell_length_a   8.17325908
_cell_length_b   8.17325909
_cell_length_c   8.21337267
_cell_angle_alpha   109.29644476
_cell_angle_beta   109.53375554
_cell_angle_gamma   109.38530069
_symmetry_Int_Tables_number   1
_chemical_formula_structural   RbSb12(OsPd)2
_chemical_formula_sum   'Rb1 Sb12 Os2 Pd2'
_cell_volume   423.39557272
_cell_formula_units_Z   1
loop_
 _symmetry_equiv_pos_site_id
 _symmetry_equiv_pos_as_xyz
  1  'x, y, z'
loop_
 _atom_site_type_symbol
 _atom_site_label
 _atom_site_symmetry_multiplicity
 _atom_site_fract_x
 _atom_site_fract_y
 _atom_site_fract_z
 _atom_site_occupancy
  Rb  Rb0  1  0.00000000  0.00000000  0.00000000  1
  Sb  Sb0  1  0.33908604  0.18789127  0.83963919  1
  Sb  Sb1  1  0.66091396  0.81210873  0.16036081  1
  Sb  Sb2  1  0.65174692  0.50055115  0.83963919  1
  Sb  Sb3  1  0.34825308  0.49944885  0.16036081  1
  Sb  Sb4  1  0.18780677  0.84801257  0.34844275  1
  Sb  Sb5  1  0.81219323  0.15198743  0.65155725  1
  Sb  Sb6  1  0.49956982  0.83936502  0.65155725  1
  Sb  Sb7  1  0.50043018  0.16063498  0.34844275  1
  Sb  Sb8  1  0.84528253  0.35008177  0.19536530  1
  Sb  Sb9  1  0.15471747  0.64991823  0.80463470  1
  Sb  Sb10  1  0.84367715  0.66157310  0.50524825  1
  Sb  Sb11  1  0.15632285  0.33842690  0.49475175  1
  Os  Os0  1  0.00000000  0.00000000  0.50000000  1
  Os  Os1  1  0.50000000  0.50000000  0.50000000  1
  Pd  Pd0  1  0.50000000  0.00000000  0.00000000  1
  Pd  Pd1  1  0.00000000  0.50000000  0.00000000  1
loop_
_geom_bond_atom_site_label_1
_geom_bond_atom_site_label_2
_geom_bond_distance
_geom_bond_site_symmetry_2
Rb0 Sb11 3.542520 1_555
Rb0 Sb10 3.542520 1_444
Rb0 Sb0 3.567414 1_554
Rb0 Sb1 3.567414 1_445
Rb0 Sb3 3.567429 1_555
Rb0 Sb2 3.567429 1_444
Rb0 Sb4 3.573166 1_545
Rb0 Sb5 3.573166 1_454
Rb0 Sb7 3.573168 1_555
Rb0 Sb6 3.573168 1_444
Rb0 Sb8 3.617368 1_455
Rb0 Sb9 3.617368 1_544
Sb0 Sb2 2.953913 1_555
Sb0 Sb3 2.955856 1_556
Sb1 Sb3 2.953913 1_555
Sb1 Sb2 2.955856 1_554
Sb4 Sb6 2.947811 1_555
Sb4 Sb7 2.953559 1_565
Sb5 Sb7 2.947811 1_555
Sb5 Sb6 2.953559 1_545
Sb10 Sb9 2.941715 1_655
Sb10 Sb8 2.953250 1_555
Sb11 Sb8 2.941715 1_455
Sb11 Sb9 2.953250 1_555
Os0 Sb5 2.640164 1_455
Os0 Sb4 2.640164 1_545
Os0 Sb0 2.644680 1_555
Os0 Sb1 2.644680 1_445
Os0 Sb11 2.656105 1_555
Os0 Sb10 2.656105 1_445
Os1 Sb6 2.640171 1_555
Os1 Sb7 2.640171 1_555
Os1 Sb2 2.644687 1_555
Os1 Sb3 2.644687 1_555
Os1 Sb10 2.656122 1_555
Os1 Sb11 2.656122 1_555
Pd0 Sb8 2.702402 1_555
Pd0 Sb9 2.702402 1_544
Pd0 Sb0 2.709610 1_554
Pd0 Sb1 2.709610 1_545
Pd0 Sb7 2.724161 1_555
Pd0 Sb6 2.724161 1_544
Pd1 Sb9 2.702410 1_554
Pd1 Sb8 2.702410 1_455
Pd1 Sb3 2.709608 1_555
Pd1 Sb2 2.709608 1_454
Pd1 Sb4 2.724163 1_555
Pd1 Sb5 2.724163 1_454
