# generated using pymatgen
data_Ce3Ga4Cl
_symmetry_space_group_name_H-M   'P 1'
_cell_length_a   8.00185071
_cell_length_b   8.00184757
_cell_length_c   8.00259044
_cell_angle_alpha   119.47378520
_cell_angle_beta   119.47379842
_cell_angle_gamma   90.90818774
_symmetry_Int_Tables_number   1
_chemical_formula_structural   Ce3Ga4Cl
_chemical_formula_sum   'Ce6 Ga8 Cl2'
_cell_volume   365.17321223
_cell_formula_units_Z   2
loop_
 _symmetry_equiv_pos_site_id
 _symmetry_equiv_pos_as_xyz
  1  'x, y, z'
loop_
 _atom_site_type_symbol
 _atom_site_label
 _atom_site_symmetry_multiplicity
 _atom_site_fract_x
 _atom_site_fract_y
 _atom_site_fract_z
 _atom_site_occupancy
  Ce  Ce0  1  0.83863620  0.66136380  0.50000000  1
  Ce  Ce1  1  0.66142210  0.16142210  0.82284119  1
  Ce  Ce2  1  0.33857790  0.83857790  0.17715881  1
  Ce  Ce3  1  0.16136380  0.33863620  0.50000000  1
  Ce  Ce4  1  0.25000200  0.24999800  -0.00000000  1
  Ce  Ce5  1  0.74999800  0.75000200  -0.00000000  1
  Ga  Ga0  1  0.15821297  0.94520973  0.50000400  1
  Ga  Ga1  1  0.44520973  0.65821297  0.50000400  1
  Ga  Ga2  1  0.55479027  0.34178703  0.49999600  1
  Ga  Ga3  1  0.65811415  0.15811415  0.21293000  1
  Ga  Ga4  1  0.84178703  0.05479027  0.49999600  1
  Ga  Ga5  1  0.05481884  0.55481884  0.21293000  1
  Ga  Ga6  1  0.34188585  0.84188585  0.78707000  1
  Ga  Ga7  1  0.94518116  0.44518116  0.78707000  1
  Cl  Cl0  1  -0.00000000  -0.00000000  -0.00000000  1
  Cl  Cl1  1  0.50000000  0.50000000  -0.00000000  1
loop_
_geom_bond_atom_site_label_1
_geom_bond_atom_site_label_2
_geom_bond_distance
_geom_bond_site_symmetry_2
Ce0 Cl1 3.025835 1_555
Ce0 Cl0 3.025835 1_666
Ce0 Ga4 3.147856 1_565
Ce0 Ga1 3.147857 1_555
Ce0 Ga3 3.320674 1_555
Ce0 Ga6 3.320675 1_655
Ce0 Ga7 3.320680 1_555
Ce0 Ga5 3.320681 1_655
Ce0 Ga2 3.393198 1_555
Ce0 Ga0 3.393198 1_655
Ce1 Cl0 3.025172 1_656
Ce1 Cl1 3.025172 1_556
Ce1 Ga3 3.147880 1_556
Ce1 Ga5 3.147904 1_656
Ce1 Ga2 3.320398 1_555
Ce1 Ga4 3.320399 1_555
Ce1 Ga1 3.320415 1_545
Ce1 Ga0 3.320416 1_545
Ce1 Ga7 3.392488 1_555
Ce1 Ga6 3.392558 1_545
Ce2 Cl0 3.025172 1_565
Ce2 Cl1 3.025172 1_555
Ce2 Ga6 3.147880 1_554
Ce2 Ga7 3.147904 1_454
Ce2 Ga1 3.320398 1_555
Ce2 Ga0 3.320399 1_555
Ce2 Ga2 3.320415 1_565
Ce2 Ga4 3.320416 1_565
Ce2 Ga5 3.392488 1_555
Ce2 Ga3 3.392558 1_565
Ce3 Cl1 3.025835 1_556
Ce3 Cl0 3.025835 1_555
Ce3 Ga0 3.147856 1_545
Ce3 Ga2 3.147857 1_555
Ce3 Ga6 3.320674 1_555
Ce3 Ga3 3.320675 1_455
Ce3 Ga5 3.320680 1_555
Ce3 Ga7 3.320681 1_455
Ce3 Ga1 3.393198 1_555
Ce3 Ga4 3.393198 1_455
Ce4 Cl1 2.806571 1_555
Ce4 Cl0 2.806571 1_555
Ce4 Ga6 3.153051 1_544
Ce4 Ga3 3.153052 1_555
Ce4 Ga7 3.153083 1_454
Ce4 Ga5 3.153083 1_555
Ce4 Ga2 3.153723 1_555
Ce4 Ga0 3.153723 1_544
Ce4 Ga1 3.153790 1_555
Ce4 Ga4 3.153790 1_454
Ce5 Cl1 2.806571 1_555
Ce5 Cl0 2.806571 1_665
Ce5 Ga3 3.153051 1_565
Ce5 Ga6 3.153052 1_554
Ce5 Ga5 3.153083 1_655
Ce5 Ga7 3.153083 1_554
Ce5 Ga1 3.153723 1_554
Ce5 Ga4 3.153723 1_565
Ce5 Ga2 3.153790 1_554
Ce5 Ga0 3.153790 1_655
Ga0 Ga6 2.589629 1_555
Ga0 Ga5 2.589654 1_555
Ga0 Ga4 2.692606 1_465
Ga1 Ga6 2.589629 1_555
Ga1 Ga5 2.589655 1_555
Ga1 Ga2 2.692605 1_555
Ga2 Ga3 2.589629 1_555
Ga2 Ga7 2.589655 1_555
Ga3 Ga4 2.589629 1_555
Ga3 Ga6 2.691694 1_544
Ga4 Ga7 2.589654 1_555
Ga5 Ga7 2.691648 1_454
