# generated using pymatgen
data_Ta4Ti(CuSi)4
_symmetry_space_group_name_H-M   'P 1'
_cell_length_a   7.37407868
_cell_length_b   7.37407743
_cell_length_c   7.36545143
_cell_angle_alpha   93.69078685
_cell_angle_beta   93.10463907
_cell_angle_gamma   151.83685198
_symmetry_Int_Tables_number   1
_chemical_formula_structural   Ta4Ti(CuSi)4
_chemical_formula_sum   'Ta4 Ti1 Cu4 Si4'
_cell_volume   183.33821376
_cell_formula_units_Z   1
loop_
 _symmetry_equiv_pos_site_id
 _symmetry_equiv_pos_as_xyz
  1  'x, y, z'
loop_
 _atom_site_type_symbol
 _atom_site_label
 _atom_site_symmetry_multiplicity
 _atom_site_fract_x
 _atom_site_fract_y
 _atom_site_fract_z
 _atom_site_occupancy
  Ta  Ta0  1  0.49990006  0.50022850  0.00012855  1
  Ta  Ta1  1  0.12741044  0.80391665  0.93132709  1
  Ta  Ta2  1  0.19550505  0.13020743  0.32571348  1
  Ta  Ta3  1  0.80411112  0.87032616  0.67443628  1
  Ti  Ti0  1  0.87193690  0.19673825  0.06867515  1
  Cu  Cu0  1  0.39540184  0.91769238  0.31309422  1
  Cu  Cu1  1  0.60491880  0.08142260  0.68634140  1
  Cu  Cu2  1  0.91724760  0.60306018  0.52030879  1
  Cu  Cu3  1  0.08322898  0.39652944  0.47975842  1
  Si  Si0  1  0.24945725  0.56153135  0.81098960  1
  Si  Si1  1  0.44142358  0.24579726  0.68721984  1
  Si  Si2  1  0.55668268  0.75285475  0.30953844  1
  Si  Si3  1  0.75277468  0.43969505  0.19246974  1
loop_
_geom_bond_atom_site_label_1
_geom_bond_atom_site_label_2
_geom_bond_distance
_geom_bond_site_symmetry_2
Cu0 Si3 2.314949 1_565
Cu0 Si3 2.314949 1_455
Cu0 Si2 2.332559 1_555
Cu0 Cu2 2.599850 1_565
Cu0 Cu2 2.599854 1_455
Cu0 Cu3 2.624910 1_555
Cu0 Cu3 2.624910 1_665
Cu0 Cu1 2.688127 1_565
Cu0 Ti0 2.869850 1_455
Cu0 Ti0 2.869851 1_565
Cu0 Ta1 2.947352 1_554
Cu0 Ta2 2.950659 1_565
Cu1 Si0 2.325152 1_655
Cu1 Si0 2.325154 1_545
Cu1 Si1 2.345060 1_555
Cu1 Cu3 2.596278 1_545
Cu1 Cu3 2.596278 1_655
Cu1 Cu2 2.624157 1_555
Cu1 Cu2 2.624160 1_445
Cu1 Ta1 2.881127 1_655
Cu1 Ta1 2.881128 1_545
Cu1 Ta3 2.935356 1_545
Cu1 Ti0 2.944344 1_556
Cu2 Si1 2.312734 1_555
Cu2 Si1 2.312739 1_665
Cu2 Si3 2.342006 1_555
Cu2 Cu3 2.678526 1_655
Cu2 Ta2 2.889159 1_665
Cu2 Ta2 2.889159 1_555
Cu2 Ta3 2.929611 1_555
Cu2 Ta1 2.937264 1_655
Cu3 Si2 2.321274 1_555
Cu3 Si2 2.321277 1_445
Cu3 Si0 2.366245 1_555
Cu3 Ta3 2.881476 1_445
Cu3 Ta3 2.881479 1_555
Cu3 Ta2 2.917436 1_555
Cu3 Ti0 2.938211 1_455
Si0 Ti0 2.571757 1_456
Si0 Ti0 2.571759 1_566
Si0 Ta0 2.613442 1_556
Si0 Ta3 2.691503 1_445
Si0 Ta3 2.691509 1_555
Si0 Ta1 2.740257 1_555
Si1 Ta3 2.595489 1_555
Si1 Ta3 2.595490 1_445
Si1 Ta0 2.631902 1_556
Si1 Ta1 2.667118 1_655
Si1 Ta1 2.667121 1_545
Si1 Ta2 2.750301 1_555
Si2 Ta2 2.594632 1_555
Si2 Ta2 2.594633 1_665
Si2 Ta0 2.610357 1_555
Si2 Ti0 2.653885 1_455
Si2 Ti0 2.653887 1_565
Si2 Ta3 2.772201 1_555
Si3 Ta1 2.589024 1_544
Si3 Ta1 2.589024 1_654
Si3 Ta0 2.635587 1_555
Si3 Ta2 2.692118 1_665
Si3 Ta2 2.692121 1_555
Si3 Ti0 2.732318 1_555
