# generated using pymatgen
data_Na2Zn(SiPd2)3
_symmetry_space_group_name_H-M   'P 1'
_cell_length_a   6.68983991
_cell_length_b   6.64559179
_cell_length_c   6.68984044
_cell_angle_alpha   129.67287513
_cell_angle_beta   115.03797169
_cell_angle_gamma   86.68749373
_symmetry_Int_Tables_number   1
_chemical_formula_structural   Na2Zn(SiPd2)3
_chemical_formula_sum   'Na2 Zn1 Si3 Pd6'
_cell_volume   197.55526754
_cell_formula_units_Z   1
loop_
 _symmetry_equiv_pos_site_id
 _symmetry_equiv_pos_as_xyz
  1  'x, y, z'
loop_
 _atom_site_type_symbol
 _atom_site_label
 _atom_site_symmetry_multiplicity
 _atom_site_fract_x
 _atom_site_fract_y
 _atom_site_fract_z
 _atom_site_occupancy
  Na  Na0  1  0.00290208  0.98249397  0.97959189  1
  Na  Na1  1  0.49841171  0.04631374  0.54790203  1
  Zn  Zn0  1  0.35437419  0.41717822  0.06280403  1
  Si  Si0  1  0.80862829  0.24099577  0.43236848  1
  Si  Si1  1  0.64498905  0.69775810  0.05277004  1
  Si  Si2  1  0.19531781  0.62336809  0.42805028  1
  Pd  Pd0  1  0.94643479  0.50078239  0.95243078  1
  Pd  Pd1  1  0.54835161  0.50078239  0.55434860  1
  Pd  Pd2  1  0.03598588  0.99432740  0.53404409  1
  Pd  Pd3  1  0.79677983  0.49333677  0.28579533  1
  Pd  Pd4  1  0.20754044  0.49333677  0.69655594  1
  Pd  Pd5  1  0.46028431  0.99432740  0.95834152  1
loop_
_geom_bond_atom_site_label_1
_geom_bond_atom_site_label_2
_geom_bond_distance
_geom_bond_site_symmetry_2
Na0 Pd0 3.124537 1_455
Na0 Pd1 3.124538 1_455
Na0 Pd2 3.130349 1_555
Na0 Pd5 3.130356 1_555
Na0 Si2 3.137999 1_566
Na0 Pd4 3.138076 1_555
Na0 Pd3 3.138080 1_455
Na0 Si0 3.200843 1_466
Na0 Pd4 3.254743 1_566
Na0 Pd3 3.254746 1_466
Na0 Zn0 3.436140 1_566
Na1 Si2 3.009900 1_545
Na1 Pd1 3.028740 1_555
Na1 Pd0 3.028745 1_555
Na1 Zn0 3.071692 1_545
Na1 Si0 3.085909 1_555
Na1 Pd5 3.088345 1_545
Na1 Pd2 3.088348 1_545
Na1 Si1 3.160550 1_545
Na1 Si1 3.182626 1_556
Na1 Zn0 3.250166 1_556
Na1 Pd3 3.286106 1_556
Na1 Pd4 3.286111 1_555
Si0 Si1 2.660540 1_545
Si1 Zn0 2.819628 1_555
Si2 Zn0 2.595673 1_555
Pd0 Si0 2.394736 1_555
Pd0 Si2 2.433683 1_656
Pd0 Si1 2.439202 1_556
Pd0 Zn0 2.635251 1_656
Pd1 Si0 2.394742 1_555
Pd1 Si2 2.433684 1_555
Pd1 Si1 2.439200 1_556
Pd1 Zn0 2.635257 1_555
Pd2 Si0 2.392290 1_465
Pd2 Si2 2.412576 1_555
Pd2 Si1 2.541209 1_455
Pd2 Zn0 2.562932 1_566
Pd3 Si0 2.407966 1_555
Pd3 Si2 2.414410 1_655
Pd3 Si1 2.551765 1_555
Pd3 Zn0 2.590929 1_555
Pd4 Si0 2.407957 1_455
Pd4 Si2 2.414405 1_555
Pd4 Si1 2.551777 1_556
Pd4 Zn0 2.590935 1_556
Pd5 Si0 2.392294 1_566
Pd5 Si2 2.412578 1_555
Pd5 Si1 2.541213 1_556
Pd5 Zn0 2.562934 1_566
