# generated using pymatgen
data_Sc16Pt7AuO4
_symmetry_space_group_name_H-M   'P 1'
_cell_length_a   8.72255434
_cell_length_b   8.74258316
_cell_length_c   8.74258356
_cell_angle_alpha   59.99999851
_cell_angle_beta   59.92401136
_cell_angle_gamma   59.92400559
_symmetry_Int_Tables_number   1
_chemical_formula_structural   Sc16Pt7AuO4
_chemical_formula_sum   'Sc16 Pt7 Au1 O4'
_cell_volume   470.87805766
_cell_formula_units_Z   1
loop_
 _symmetry_equiv_pos_site_id
 _symmetry_equiv_pos_as_xyz
  1  'x, y, z'
loop_
 _atom_site_type_symbol
 _atom_site_label
 _atom_site_symmetry_multiplicity
 _atom_site_fract_x
 _atom_site_fract_y
 _atom_site_fract_z
 _atom_site_occupancy
  Sc  Sc0  1  0.12561528  0.62479457  0.62479457  1
  Sc  Sc1  1  0.62279734  0.12125072  0.62797597  1
  Sc  Sc2  1  0.62279734  0.62797597  0.12125072  1
  Sc  Sc3  1  0.62279734  0.62797597  0.62797597  1
  Sc  Sc4  1  0.81850051  0.81962841  0.18093554  1
  Sc  Sc5  1  0.18108458  0.18120910  0.81885316  1
  Sc  Sc6  1  0.81850051  0.18093554  0.81962841  1
  Sc  Sc7  1  0.18108458  0.81885316  0.18120910  1
  Sc  Sc8  1  0.18108458  0.81885316  0.81885316  1
  Sc  Sc9  1  0.81850051  0.18093554  0.18093554  1
  Sc  Sc10  1  0.43158787  0.43195124  0.06822995  1
  Sc  Sc11  1  0.07219598  0.06350759  0.43214822  1
  Sc  Sc12  1  0.43158787  0.06822995  0.43195124  1
  Sc  Sc13  1  0.07219598  0.43214822  0.06350759  1
  Sc  Sc14  1  0.07219598  0.43214822  0.43214822  1
  Sc  Sc15  1  0.43158787  0.06822995  0.06822995  1
  Pt  Pt0  1  0.41077533  0.76745886  0.41088291  1
  Pt  Pt1  1  0.41077533  0.41088291  0.76745886  1
  Pt  Pt2  1  0.41077533  0.41088291  0.41088291  1
  Pt  Pt3  1  0.48027548  0.83990884  0.83990884  1
  Pt  Pt4  1  0.84030424  0.48146673  0.83911451  1
  Pt  Pt5  1  0.84030424  0.83911451  0.48146673  1
  Pt  Pt6  1  0.84030424  0.83911451  0.83911451  1
  Au  Au0  1  0.76332339  0.41222520  0.41222520  1
  O  O0  1  0.62535204  0.12488265  0.12488265  1
  O  O1  1  0.12456442  0.62420162  0.12561698  1
  O  O2  1  0.12456442  0.12561698  0.62420162  1
  O  O3  1  0.12456442  0.12561698  0.12561698  1
loop_
_geom_bond_atom_site_label_1
_geom_bond_atom_site_label_2
_geom_bond_distance
_geom_bond_site_symmetry_2
Pt0 Sc0 2.711906 1_555
Pt0 Sc2 2.729965 1_555
Pt0 Sc3 2.729965 1_555
Pt0 Sc11 2.779371 1_565
Pt0 Sc12 2.824454 1_565
Pt0 Sc15 2.824459 1_565
Pt1 Sc0 2.711905 1_555
Pt1 Sc1 2.729965 1_555
Pt1 Sc3 2.729966 1_555
Pt1 Sc13 2.779371 1_556
Pt1 Sc10 2.824455 1_556
Pt1 Sc15 2.824459 1_556
Pt2 Sc0 2.711900 1_555
Pt2 Sc1 2.729965 1_555
Pt2 Sc2 2.729966 1_555
Pt2 Sc14 2.779371 1_555
Pt2 Sc12 2.824463 1_555
Pt2 Sc10 2.824463 1_555
Pt3 Sc2 2.688327 1_556
Pt3 Sc1 2.688327 1_565
Pt3 Sc3 2.688341 1_555
Pt3 Sc5 2.806276 1_565
Pt3 Sc7 2.806276 1_556
Pt3 Sc8 2.806286 1_555
Pt4 Sc2 2.712467 1_556
Pt4 Sc3 2.712467 1_555
Pt4 Sc0 2.716298 1_655
Pt4 Sc5 2.806110 1_655
Pt4 Sc9 2.819475 1_556
Pt4 Sc6 2.819475 1_555
Pt5 Sc1 2.712466 1_565
Pt5 Sc3 2.712467 1_555
Pt5 Sc0 2.716298 1_655
Pt5 Sc7 2.806110 1_655
Pt5 Sc9 2.819475 1_565
Pt5 Sc4 2.819476 1_555
Pt6 Sc1 2.712466 1_565
Pt6 Sc2 2.712467 1_556
Pt6 Sc0 2.716303 1_655
Pt6 Sc8 2.806110 1_655
Pt6 Sc6 2.819475 1_565
Pt6 Sc4 2.819476 1_556
Au0 Sc2 2.746127 1_555
Au0 Sc1 2.746127 1_555
Au0 Sc3 2.746134 1_555
Au0 Sc11 2.879263 1_655
Au0 Sc13 2.879263 1_655
Au0 Sc14 2.879268 1_655
Au0 Pt2 3.086926 1_555
Au0 Pt0 3.086930 1_555
Au0 Pt1 3.086931 1_555
Au0 Sc9 3.247626 1_555
Au0 Sc4 3.247633 1_555
Au0 Sc6 3.247633 1_555
O0 Sc4 2.283378 1_545
O0 Sc6 2.283378 1_554
O0 Sc9 2.283378 1_555
O0 Sc10 2.295748 1_555
O0 Sc12 2.295748 1_555
O0 Sc15 2.295754 1_555
O1 Sc10 2.287712 1_555
O1 Sc4 2.289235 1_455
O1 Sc13 2.291665 1_555
O1 Sc14 2.291665 1_555
O1 Sc8 2.298560 1_554
O1 Sc7 2.298560 1_555
O2 Sc12 2.287712 1_555
O2 Sc6 2.289235 1_455
O2 Sc14 2.291665 1_555
O2 Sc11 2.291665 1_555
O2 Sc8 2.298560 1_545
O2 Sc5 2.298560 1_555
O3 Sc15 2.287710 1_555
O3 Sc9 2.289235 1_455
O3 Sc13 2.291665 1_555
O3 Sc11 2.291665 1_555
O3 Sc7 2.298560 1_545
O3 Sc5 2.298560 1_554
