# generated using pymatgen
data_Ti13Al9(Ir3Ru)2
_symmetry_space_group_name_H-M   'P 1'
_cell_length_a   8.70921998
_cell_length_b   8.70921903
_cell_length_c   8.70921910
_cell_angle_alpha   59.62894261
_cell_angle_beta   59.62894741
_cell_angle_gamma   59.62895066
_symmetry_Int_Tables_number   1
_chemical_formula_structural   Ti13Al9(Ir3Ru)2
_chemical_formula_sum   'Ti13 Al9 Ir6 Ru2'
_cell_volume   463.17503742
_cell_formula_units_Z   1
loop_
 _symmetry_equiv_pos_site_id
 _symmetry_equiv_pos_as_xyz
  1  'x, y, z'
loop_
 _atom_site_type_symbol
 _atom_site_label
 _atom_site_symmetry_multiplicity
 _atom_site_fract_x
 _atom_site_fract_y
 _atom_site_fract_z
 _atom_site_occupancy
  Ti  Ti0  1  0.21203197  0.21203197  0.79045943  1
  Ti  Ti1  1  0.79045943  0.21203197  0.21203197  1
  Ti  Ti2  1  0.21203197  0.79045943  0.21203197  1
  Ti  Ti3  1  0.79812209  0.79812209  0.18269180  1
  Ti  Ti4  1  0.18269180  0.79812209  0.79812209  1
  Ti  Ti5  1  0.79812209  0.18269180  0.79812209  1
  Ti  Ti6  1  0.37891716  0.37891716  0.37891716  1
  Ti  Ti7  1  0.38003349  0.86520129  0.38003349  1
  Ti  Ti8  1  0.86520129  0.38003349  0.38003349  1
  Ti  Ti9  1  0.38003349  0.38003349  0.86520129  1
  Ti  Ti10  1  0.84619322  0.46479042  0.84619322  1
  Ti  Ti11  1  0.46479042  0.84619322  0.84619322  1
  Ti  Ti12  1  0.84619322  0.84619322  0.46479042  1
  Al  Al0  1  0.15309791  0.15309791  0.15309791  1
  Al  Al1  1  0.15719798  0.53599846  0.15719798  1
  Al  Al2  1  0.53599846  0.15719798  0.15719798  1
  Al  Al3  1  0.15719798  0.15719798  0.53599846  1
  Al  Al4  1  0.61925055  0.61925055  0.61925055  1
  Al  Al5  1  0.61943922  0.14348358  0.61943922  1
  Al  Al6  1  0.14348358  0.61943922  0.61943922  1
  Al  Al7  1  0.61943922  0.61943922  0.14348358  1
  Al  Al8  1  0.82744617  0.82744617  0.82744617  1
  Ir  Ir0  1  0.00461563  0.00461563  0.49921068  1
  Ir  Ir1  1  0.49921068  0.00461563  0.00461563  1
  Ir  Ir2  1  0.00461563  0.49921068  0.00461563  1
  Ir  Ir3  1  0.49951095  0.49951095  0.00165087  1
  Ir  Ir4  1  0.00165087  0.49951095  0.49951095  1
  Ir  Ir5  1  0.49951095  0.00165087  0.49951095  1
  Ru  Ru0  1  0.50048961  0.50048961  0.50048961  1
  Ru  Ru1  1  0.00302399  0.00302399  0.00302399  1
loop_
_geom_bond_atom_site_label_1
_geom_bond_atom_site_label_2
_geom_bond_distance
_geom_bond_site_symmetry_2
Al0 Ir0 2.497707 1_555
Al0 Ir2 2.497707 1_555
Al0 Ir1 2.497708 1_555
Al1 Ir4 2.493508 1_555
Al1 Ir3 2.493509 1_555
Al1 Ir2 2.506230 1_555
Al2 Ir5 2.493508 1_555
Al2 Ir3 2.493508 1_555
Al2 Ir1 2.506230 1_555
Al3 Ir4 2.493508 1_555
Al3 Ir5 2.493509 1_555
Al3 Ir0 2.506230 1_555
Al4 Ru0 2.540626 1_555
Al4 Ir3 2.709687 1_556
Al4 Ir5 2.709688 1_565
Al4 Ir4 2.709688 1_655
Al5 Ru0 2.526821 1_555
Al5 Ir5 2.724000 1_555
Al5 Ir1 2.727358 1_556
Al5 Ir0 2.727359 1_655
Al6 Ru0 2.526821 1_555
Al6 Ir4 2.724000 1_555
Al6 Ir2 2.727358 1_556
Al6 Ir0 2.727359 1_565
Al7 Ru0 2.526820 1_555
Al7 Ir3 2.724000 1_555
Al7 Ir1 2.727359 1_565
Al7 Ir2 2.727359 1_655
Al8 Ir0 2.533893 1_665
Al8 Ir2 2.533893 1_656
Al8 Ir1 2.533893 1_566
Ir0 Ti12 2.580439 1_445
Ir0 Ti8 2.658986 1_455
Ir0 Ti7 2.658986 1_545
Ir0 Ti4 2.990778 1_545
Ir0 Ti5 2.990778 1_455
Ir0 Ti1 3.120726 1_455
Ir0 Ti2 3.120727 1_545
Ir1 Ti11 2.580439 1_544
Ir1 Ti7 2.658986 1_545
Ir1 Ti9 2.658986 1_554
Ir1 Ti5 2.990778 1_554
Ir1 Ti3 2.990778 1_545
Ir1 Ti2 3.120726 1_545
Ir1 Ti0 3.120727 1_554
Ir2 Ti10 2.580439 1_454
Ir2 Ti8 2.658986 1_455
Ir2 Ti9 2.658986 1_554
Ir2 Ti4 2.990778 1_554
Ir2 Ti3 2.990778 1_455
Ir2 Ti1 3.120726 1_455
Ir2 Ti0 3.120727 1_554
Ir3 Ti11 2.529419 1_554
Ir3 Ti10 2.529419 1_554
Ir3 Ti6 2.671766 1_555
Ir3 Ti9 2.678326 1_554
Ir4 Ti10 2.529419 1_455
Ir4 Ti12 2.529419 1_455
Ir4 Ti6 2.671767 1_555
Ir4 Ti8 2.678326 1_455
Ir5 Ti11 2.529419 1_545
Ir5 Ti12 2.529420 1_545
Ir5 Ti6 2.671766 1_555
Ir5 Ti7 2.678326 1_545
Ru0 Ti9 2.581499 1_555
Ru0 Ti7 2.581499 1_555
Ru0 Ti8 2.581500 1_555
Ru0 Ti6 2.600771 1_555
Ru1 Ti3 2.527956 1_445
Ru1 Ti5 2.527956 1_454
Ru1 Ti4 2.527956 1_544
Ru1 Ti0 2.567013 1_554
Ru1 Ti2 2.567013 1_545
Ru1 Ti1 2.567013 1_455
