# generated using pymatgen
data_Y12In2Tc3
_symmetry_space_group_name_H-M   'P 1'
_cell_length_a   8.51126627
_cell_length_b   8.51126716
_cell_length_c   8.51126703
_cell_angle_alpha   108.99452781
_cell_angle_beta   108.99453161
_cell_angle_gamma   110.42886653
_symmetry_Int_Tables_number   1
_chemical_formula_structural   Y12In2Tc3
_chemical_formula_sum   'Y12 In2 Tc3'
_cell_volume   474.53642488
_cell_formula_units_Z   1
loop_
 _symmetry_equiv_pos_site_id
 _symmetry_equiv_pos_as_xyz
  1  'x, y, z'
loop_
 _atom_site_type_symbol
 _atom_site_label
 _atom_site_symmetry_multiplicity
 _atom_site_fract_x
 _atom_site_fract_y
 _atom_site_fract_z
 _atom_site_occupancy
  Y  Y0  1  0.30464158  0.30464158  0.60928517  1
  Y  Y1  1  0.69535842  0.69535842  0.39071483  1
  Y  Y2  1  0.69535842  0.30464158  1.00000000  1
  Y  Y3  1  0.30464158  0.69535842  0.00000000  1
  Y  Y4  1  0.18920358  0.42944085  0.24023727  1
  Y  Y5  1  0.81079642  0.57055915  0.75976273  1
  Y  Y6  1  0.18920358  0.94896431  0.75976273  1
  Y  Y7  1  0.94896431  0.18920358  0.75976273  1
  Y  Y8  1  0.81079642  0.05103569  0.24023727  1
  Y  Y9  1  0.05103569  0.81079642  0.24023727  1
  Y  Y10  1  0.42944085  0.18920358  0.24023727  1
  Y  Y11  1  0.57055915  0.81079642  0.75976273  1
  In  In0  1  0.00000000  0.50000000  0.50000000  1
  In  In1  1  0.50000000  0.00000000  0.50000000  1
  Tc  Tc0  1  0.37929514  0.37929514  0.00000000  1
  Tc  Tc1  1  0.62070486  0.62070486  1.00000000  1
  Tc  Tc2  1  0.00000000  0.00000000  0.00000000  1
loop_
_geom_bond_atom_site_label_1
_geom_bond_atom_site_label_2
_geom_bond_distance
_geom_bond_site_symmetry_2
Y0 Y8 3.584873 1_455
Y0 Y9 3.584873 1_545
Y0 Y4 3.584882 1_555
Y0 Y10 3.584882 1_555
Y0 Y7 3.610632 1_455
Y0 Y6 3.610633 1_545
Y0 Y5 3.610634 1_555
Y0 Y11 3.610634 1_555
Y1 Y6 3.584873 1_655
Y1 Y7 3.584873 1_565
Y1 Y5 3.584882 1_555
Y1 Y11 3.584882 1_555
Y1 Y9 3.610632 1_655
Y1 Y8 3.610633 1_565
Y1 Y4 3.610634 1_555
Y1 Y10 3.610634 1_555
Y2 Y7 3.584851 1_555
Y2 Y8 3.584851 1_556
Y2 Y4 3.584866 1_656
Y2 Y5 3.610630 1_555
Y2 Y6 3.610634 1_545
Y2 Y9 3.610634 1_656
Y3 Y9 3.584851 1_555
Y3 Y6 3.584851 1_554
Y3 Y5 3.584866 1_454
Y3 Y4 3.610630 1_555
Y3 Y8 3.610634 1_565
Y3 Y7 3.610634 1_454
Y4 Y7 3.358634 1_454
Y4 Y8 3.674880 1_455
Y4 Y9 3.818757 1_555
Y5 Y9 3.358634 1_656
Y5 Y6 3.674880 1_655
Y5 Y7 3.818757 1_555
Y6 Y7 3.358662 1_465
Y6 Y9 3.818773 1_555
Y7 Y8 3.818773 1_555
Y8 Y9 3.358662 1_645
Y10 Y4 3.358634 1_555
Y10 Y6 3.358634 1_544
Y10 Y3 3.584867 1_545
Y10 Y2 3.610630 1_554
Y10 Y9 3.674880 1_545
Y10 Y8 3.818757 1_555
Y10 Y5 3.818767 1_555
Y11 Y5 3.358634 1_555
Y11 Y8 3.358634 1_566
Y11 Y2 3.584867 1_565
Y11 Y3 3.610630 1_556
Y11 Y7 3.674880 1_565
Y11 Y6 3.818757 1_555
Y11 Y4 3.818767 1_555
In0 Y6 3.157596 1_555
In0 Y8 3.157596 1_455
In0 Y5 3.157609 1_455
In0 Y4 3.157609 1_555
In0 Y2 3.577631 1_454
In0 Y3 3.577631 1_556
In0 Y0 3.577634 1_555
In0 Y1 3.577634 1_455
In0 Y11 3.962873 1_555
In0 Y10 3.962873 1_455
In0 Y9 3.962875 1_555
In0 Y7 3.962875 1_455
In1 Y7 3.157595 1_555
In1 Y9 3.157595 1_545
In1 Y11 3.157609 1_545
In1 Y10 3.157609 1_555
In1 Y3 3.577631 1_545
In1 Y2 3.577631 1_555
In1 Y0 3.577634 1_555
In1 Y1 3.577634 1_545
In1 Y5 3.962874 1_555
In1 Y4 3.962874 1_545
In1 Y8 3.962875 1_555
In1 Y6 3.962875 1_545
Tc0 Tc1 2.344443 1_554
Tc0 Y0 2.972119 1_554
Tc0 Y1 2.972126 1_555
Tc0 Y2 2.972135 1_554
Tc0 Y3 2.972135 1_555
Tc0 Y4 3.008019 1_555
Tc0 Y10 3.008019 1_555
Tc0 Y7 3.008033 1_454
Tc0 Y6 3.008033 1_544
Tc1 Y1 2.972119 1_556
Tc1 Y0 2.972126 1_555
Tc1 Y3 2.972135 1_556
Tc1 Y2 2.972135 1_555
Tc1 Y5 3.008019 1_555
Tc1 Y11 3.008019 1_555
Tc1 Y9 3.008033 1_656
Tc1 Y8 3.008033 1_566
Tc2 Y10 3.002734 1_555
Tc2 Y11 3.002734 1_444
Tc2 Y4 3.002735 1_555
Tc2 Y5 3.002735 1_444
Tc2 Y8 3.002736 1_455
Tc2 Y6 3.002736 1_544
Tc2 Y9 3.002736 1_545
Tc2 Y7 3.002736 1_454
