# generated using pymatgen
data_Sc5Al16AsIr7
_symmetry_space_group_name_H-M   'P 1'
_cell_length_a   8.65004956
_cell_length_b   8.71027478
_cell_length_c   8.71027597
_cell_angle_alpha   59.54308184
_cell_angle_beta   60.22846043
_cell_angle_gamma   60.22846255
_symmetry_Int_Tables_number   1
_chemical_formula_structural   Sc5Al16AsIr7
_chemical_formula_sum   'Sc5 Al16 As1 Ir7'
_cell_volume   464.00872008
_cell_formula_units_Z   1
loop_
 _symmetry_equiv_pos_site_id
 _symmetry_equiv_pos_as_xyz
  1  'x, y, z'
loop_
 _atom_site_type_symbol
 _atom_site_label
 _atom_site_symmetry_multiplicity
 _atom_site_fract_x
 _atom_site_fract_y
 _atom_site_fract_z
 _atom_site_occupancy
  Sc  Sc0  1  0.79832733  0.20167267  0.20167267  1
  Sc  Sc1  1  0.78460303  0.21539697  0.77874887  1
  Sc  Sc2  1  0.78460303  0.77874887  0.21539697  1
  Sc  Sc3  1  0.22125113  0.77874887  0.21539697  1
  Sc  Sc4  1  0.22125113  0.21539697  0.77874887  1
  Al  Al0  1  0.86899183  0.83224437  0.83224437  1
  Al  Al1  1  0.84525800  0.82074164  0.48874436  1
  Al  Al2  1  0.46652043  0.83224437  0.83224437  1
  Al  Al3  1  0.84525800  0.48874436  0.82074164  1
  Al  Al4  1  0.17925836  0.15474200  0.15474200  1
  Al  Al5  1  0.16775563  0.13100817  0.53347957  1
  Al  Al6  1  0.16775563  0.53347957  0.13100817  1
  Al  Al7  1  0.51125564  0.15474200  0.15474200  1
  Al  Al8  1  0.60982060  0.62044583  0.62044583  1
  Al  Al9  1  0.63032636  0.61696473  0.12238155  1
  Al  Al10  1  0.14928674  0.62044583  0.62044583  1
  Al  Al11  1  0.63032636  0.12238155  0.61696473  1
  Al  Al12  1  0.38303527  0.36967364  0.36967364  1
  Al  Al13  1  0.37955417  0.39017940  0.85071326  1
  Al  Al14  1  0.37955417  0.85071326  0.39017940  1
  Al  Al15  1  0.87761845  0.36967364  0.36967364  1
  As  As0  1  0.02393893  0.97606107  0.97606107  1
  Ir  Ir0  1  0.51152997  0.48847003  0.48847003  1
  Ir  Ir1  1  0.01149970  0.48850030  0.48850030  1
  Ir  Ir2  1  0.51149970  0.98850030  0.98850030  1
  Ir  Ir3  1  0.51484082  0.99488212  0.48515918  1
  Ir  Ir4  1  0.51484082  0.48515918  0.99488212  1
  Ir  Ir5  1  0.00511788  0.48515918  0.99488212  1
  Ir  Ir6  1  0.00511788  0.99488212  0.48515918  1
loop_
_geom_bond_atom_site_label_1
_geom_bond_atom_site_label_2
_geom_bond_distance
_geom_bond_site_symmetry_2
Al0 Ir5 2.512502 1_655
Al0 Ir6 2.512502 1_655
Al0 Ir2 2.604980 1_555
Al0 Al10 2.692880 1_655
Al1 Ir6 2.491155 1_655
Al1 Ir3 2.491170 1_555
Al1 Ir1 2.512590 1_655
Al1 Al10 2.772459 1_655
Al1 Al8 2.772481 1_555
Al1 Sc0 2.947177 1_565
Al2 Ir4 2.512503 1_555
Al2 Ir3 2.512504 1_555
Al2 Ir2 2.604974 1_555
Al2 Al8 2.692884 1_555
Al3 Ir5 2.491155 1_655
Al3 Ir4 2.491169 1_555
Al3 Ir1 2.512591 1_655
Al3 Al8 2.772481 1_555
Al3 Sc0 2.947178 1_556
Al4 Ir5 2.491165 1_554
Al4 Ir6 2.491165 1_545
Al4 Ir2 2.512585 1_544
Al4 Sc0 2.947171 1_455
Al5 Ir6 2.512496 1_545
Al5 Ir3 2.512504 1_545
Al5 Ir1 2.604981 1_555
Al6 Ir5 2.512496 1_554
Al6 Ir4 2.512504 1_554
Al6 Ir1 2.604982 1_555
Al7 Ir4 2.491170 1_554
Al7 Ir3 2.491170 1_545
Al7 Ir2 2.512575 1_544
Al7 Sc0 2.947188 1_555
Al8 Ir0 2.578112 1_555
Al8 Ir3 2.665489 1_555
Al8 Ir4 2.665489 1_555
Al8 Ir1 2.849906 1_655
Al8 Sc1 2.911314 1_555
Al8 Sc2 2.911314 1_555
Al9 Ir0 2.597427 1_555
Al9 Ir2 2.636358 1_554
Al9 Ir4 2.661298 1_554
Al9 Ir5 2.661305 1_654
Al9 Sc0 2.986197 1_555
Al10 Ir0 2.578119 1_555
Al10 Ir6 2.665488 1_555
Al10 Ir5 2.665489 1_555
Al10 Al3 2.772459 1_455
Al10 Al14 2.816865 1_555
Al10 Al13 2.816866 1_555
Al10 Ir1 2.849899 1_555
Al10 Sc4 2.911313 1_555
Al10 Sc3 2.911313 1_555
Al11 Ir0 2.597426 1_555
Al11 Ir2 2.636358 1_545
Al11 Ir3 2.661298 1_545
Al11 Ir6 2.661305 1_645
Al11 Sc0 2.986197 1_555
Al12 Ir0 2.597419 1_555
Al12 Ir1 2.636358 1_555
Al12 Ir3 2.661305 1_545
Al12 Ir4 2.661306 1_554
Al12 Sc0 2.986198 1_555
Al13 Ir0 2.578120 1_555
Al13 Ir4 2.665482 1_555
Al13 Ir5 2.665489 1_555
Al13 Al6 2.692870 1_556
Al13 Al7 2.772461 1_556
Al13 Al4 2.772474 1_556
Al13 Al8 2.816853 1_555
Al13 Ir2 2.849906 1_545
Al13 Sc1 2.911313 1_555
Al13 Sc4 2.911320 1_555
Al14 Ir0 2.578119 1_555
Al14 Ir3 2.665482 1_555
Al14 Ir6 2.665489 1_555
Al14 Al5 2.692870 1_565
Al14 Al7 2.772460 1_565
Al14 Al4 2.772474 1_565
Al14 Al8 2.816854 1_555
Al14 Ir2 2.849907 1_554
Al14 Sc2 2.911313 1_555
Al14 Sc3 2.911320 1_555
Al15 Ir0 2.597426 1_555
Al15 Ir1 2.636351 1_655
Al15 Ir6 2.661305 1_645
Al15 Ir5 2.661306 1_654
Al15 Sc0 2.986204 1_555
As0 Sc4 2.683446 1_565
As0 Sc2 2.683446 1_456
As0 Sc1 2.683447 1_465
As0 Sc3 2.683447 1_556
As0 Sc0 2.798210 1_466
Ir1 Sc3 3.084538 1_555
Ir1 Sc1 3.084538 1_455
Ir1 Sc2 3.084538 1_455
Ir1 Sc4 3.084538 1_555
Ir2 Sc1 3.084538 1_565
Ir2 Sc3 3.084538 1_556
Ir2 Sc4 3.084538 1_565
Ir2 Sc2 3.084538 1_556
Ir3 Sc2 3.031028 1_555
Ir3 Sc0 3.036268 1_565
Ir3 Sc4 3.219340 1_565
Ir4 Sc1 3.031028 1_555
Ir4 Sc0 3.036268 1_556
Ir4 Sc3 3.219340 1_556
Ir5 Sc4 3.031028 1_555
Ir5 Sc0 3.036268 1_456
Ir5 Sc2 3.219340 1_456
Ir6 Sc3 3.031028 1_555
Ir6 Sc0 3.036268 1_465
Ir6 Sc1 3.219340 1_465
