# generated using pymatgen
data_SrSc2(H6Ru)2
_symmetry_space_group_name_H-M   'P 1'
_cell_length_a   4.70144884
_cell_length_b   4.70145038
_cell_length_c   8.04840965
_cell_angle_alpha   90.00000000
_cell_angle_beta   90.00000000
_cell_angle_gamma   119.99999611
_symmetry_Int_Tables_number   1
_chemical_formula_structural   SrSc2(H6Ru)2
_chemical_formula_sum   'Sr1 Sc2 H12 Ru2'
_cell_volume   154.06510814
_cell_formula_units_Z   1
loop_
 _symmetry_equiv_pos_site_id
 _symmetry_equiv_pos_as_xyz
  1  'x, y, z'
loop_
 _atom_site_type_symbol
 _atom_site_label
 _atom_site_symmetry_multiplicity
 _atom_site_fract_x
 _atom_site_fract_y
 _atom_site_fract_z
 _atom_site_occupancy
  Sr  Sr0  1  0.00000000  0.00000000  0.00000000  1
  Sc  Sc0  1  0.66666700  0.33333300  0.36770816  1
  Sc  Sc1  1  0.33333300  0.66666700  0.63229184  1
  H  H0  1  0.16062808  0.83937192  0.39305942  1
  H  H1  1  0.67874384  0.83937192  0.39305942  1
  H  H2  1  0.16062808  0.32125616  0.39305942  1
  H  H3  1  0.83937192  0.16062808  0.60694058  1
  H  H4  1  0.32125616  0.16062808  0.60694058  1
  H  H5  1  0.83937192  0.67874384  0.60694058  1
  H  H6  1  0.49861757  0.99723514  0.84460231  1
  H  H7  1  0.49861757  0.50138243  0.84460231  1
  H  H8  1  0.00276486  0.50138243  0.84460231  1
  H  H9  1  0.50138243  0.00276486  0.15539769  1
  H  H10  1  0.50138243  0.49861757  0.15539769  1
  H  H11  1  0.99723514  0.49861757  0.15539769  1
  Ru  Ru0  1  0.66666700  0.33333300  0.71970605  1
  Ru  Ru1  1  0.33333300  0.66666700  0.28029395  1
loop_
_geom_bond_atom_site_label_1
_geom_bond_atom_site_label_2
_geom_bond_distance
_geom_bond_site_symmetry_2
H0 Ru1 1.673786 1_555
H0 Sc0 2.360076 1_565
H0 Sc0 2.360076 1_455
H0 Sc1 2.384361 1_555
H1 Ru1 1.673790 1_555
H1 Sc0 2.360073 1_565
H1 Sc0 2.360078 1_555
H1 Sc1 2.384363 1_555
H2 Ru1 1.673790 1_555
H2 Sc0 2.360073 1_455
H2 Sc0 2.360077 1_555
H2 Sc1 2.384363 1_555
H3 Ru0 1.673786 1_555
H3 Sc1 2.360076 1_545
H3 Sc1 2.360076 1_655
H3 Sc0 2.384361 1_555
H4 Ru0 1.673790 1_555
H4 Sc1 2.360073 1_545
H4 Sc1 2.360078 1_555
H4 Sc0 2.384363 1_555
H5 Ru0 1.673790 1_555
H5 Sc1 2.360073 1_655
H5 Sc1 2.360077 1_555
H5 Sc0 2.384363 1_555
H6 Ru0 1.697972 1_565
H6 Sc1 2.175179 1_555
H6 Sr0 2.662760 1_666
H6 Sr0 2.662760 1_566
H7 Ru0 1.697975 1_555
H7 Sc1 2.175181 1_555
H7 Sr0 2.662761 1_666
H7 Sr0 2.662761 1_556
H8 Ru0 1.697972 1_455
H8 Sc1 2.175178 1_555
H8 Sr0 2.662761 1_566
H8 Sr0 2.662761 1_556
H9 Ru1 1.697972 1_545
H9 Sc0 2.175179 1_555
H9 Sr0 2.662760 1_555
H9 Sr0 2.662760 1_655
H10 Ru1 1.697975 1_555
H10 Sc0 2.175181 1_555
H10 Sr0 2.662761 1_555
H10 Sr0 2.662761 1_665
H11 Ru1 1.697972 1_655
H11 Sc0 2.175178 1_555
H11 Sr0 2.662761 1_655
H11 Sr0 2.662761 1_665
