# generated using pymatgen
data_LiCoPtS4
_symmetry_space_group_name_H-M   'P 1'
_cell_length_a   6.97949132
_cell_length_b   7.13508409
_cell_length_c   6.97949079
_cell_angle_alpha   59.25977352
_cell_angle_beta   58.44591009
_cell_angle_gamma   59.25977134
_symmetry_Int_Tables_number   1
_chemical_formula_structural   LiCoPtS4
_chemical_formula_sum   'Li2 Co2 Pt2 S8'
_cell_volume   240.06732358
_cell_formula_units_Z   2
loop_
 _symmetry_equiv_pos_site_id
 _symmetry_equiv_pos_as_xyz
  1  'x, y, z'
loop_
 _atom_site_type_symbol
 _atom_site_label
 _atom_site_symmetry_multiplicity
 _atom_site_fract_x
 _atom_site_fract_y
 _atom_site_fract_z
 _atom_site_occupancy
  Li  Li0  1  0.76005801  0.73994199  0.76005801  1
  Li  Li1  1  0.48994199  0.51005801  0.48994199  1
  Co  Co0  1  0.62500000  0.12500000  0.12500000  1
  Co  Co1  1  0.12500000  0.12500000  0.62500000  1
  Pt  Pt0  1  0.12500000  0.12500000  0.12500000  1
  Pt  Pt1  1  0.12500000  0.62500000  0.12500000  1
  S  S0  1  0.91629863  0.35389209  0.37591820  1
  S  S1  1  0.37591820  0.35389209  0.91629863  1
  S  S2  1  0.36608815  0.34599534  0.36608815  1
  S  S3  1  0.33370137  0.89610791  0.87408180  1
  S  S4  1  0.88391185  0.32817065  0.88391185  1
  S  S5  1  0.87408180  0.89610791  0.33370137  1
  S  S6  1  0.36608815  0.92182935  0.36608815  1
  S  S7  1  0.88391185  0.90400466  0.88391185  1
loop_
_geom_bond_atom_site_label_1
_geom_bond_atom_site_label_2
_geom_bond_distance
_geom_bond_site_symmetry_2
Li0 S7 2.390779 1_555
Li0 S4 2.390785 1_555
Li0 S5 2.401730 1_555
Li0 S3 2.401730 1_555
Li1 S2 2.390779 1_555
Li1 S6 2.390785 1_555
Li1 S1 2.401730 1_555
Li1 S0 2.401730 1_555
Co0 S5 2.264317 1_545
Co0 S1 2.264317 1_554
Co0 S6 2.280413 1_545
Co0 S4 2.280413 1_554
Co0 S2 2.280417 1_555
Co0 S7 2.280417 1_544
Co1 S3 2.264317 1_545
Co1 S0 2.264317 1_455
Co1 S6 2.280412 1_545
Co1 S4 2.280412 1_455
Co1 S2 2.280417 1_555
Co1 S7 2.280417 1_445
Pt0 S0 2.382869 1_455
Pt0 S3 2.382869 1_544
Pt0 S1 2.382869 1_554
Pt0 S5 2.382869 1_445
Pt0 S4 2.395889 1_454
Pt0 S6 2.395889 1_545
Pt1 S5 2.382863 1_455
Pt1 S1 2.382863 1_554
Pt1 S3 2.382864 1_554
Pt1 S0 2.382864 1_455
Pt1 S2 2.395888 1_555
Pt1 S7 2.395888 1_454
