# generated using pymatgen
data_Nb12Al9Ru3C4
_symmetry_space_group_name_H-M   'P 1'
_cell_length_a   8.32782395
_cell_length_b   8.32782455
_cell_length_c   8.32782299
_cell_angle_alpha   60.15639446
_cell_angle_beta   60.15640066
_cell_angle_gamma   60.15639735
_symmetry_Int_Tables_number   1
_chemical_formula_structural   Nb12Al9Ru3C4
_chemical_formula_sum   'Nb12 Al9 Ru3 C4'
_cell_volume   409.84092268
_cell_formula_units_Z   1
loop_
 _symmetry_equiv_pos_site_id
 _symmetry_equiv_pos_as_xyz
  1  'x, y, z'
loop_
 _atom_site_type_symbol
 _atom_site_label
 _atom_site_symmetry_multiplicity
 _atom_site_fract_x
 _atom_site_fract_y
 _atom_site_fract_z
 _atom_site_occupancy
  Nb  Nb0  1  0.68718617  0.31195773  0.68718617  1
  Nb  Nb1  1  0.93804227  0.56281383  0.56281383  1
  Nb  Nb2  1  0.56093451  0.93951001  0.93951001  1
  Nb  Nb3  1  0.93951001  0.56093451  0.93951001  1
  Nb  Nb4  1  0.56281383  0.56281383  0.93804227  1
  Nb  Nb5  1  0.93951001  0.93951001  0.56093451  1
  Nb  Nb6  1  0.68718617  0.68718617  0.31195773  1
  Nb  Nb7  1  0.31195773  0.68718617  0.68718617  1
  Nb  Nb8  1  0.68906549  0.31048999  0.31048999  1
  Nb  Nb9  1  0.31048999  0.31048999  0.68906549  1
  Nb  Nb10  1  0.56281383  0.93804227  0.56281383  1
  Nb  Nb11  1  0.31048999  0.68906549  0.31048999  1
  Al  Al0  1  0.12500000  0.12500000  0.12500000  1
  Al  Al1  1  0.33337634  0.33337634  0.33337634  1
  Al  Al2  1  0.25077885  0.91161995  0.91161995  1
  Al  Al3  1  0.91161995  0.25077885  0.91161995  1
  Al  Al4  1  0.91161995  0.91161995  0.25077885  1
  Al  Al5  1  0.33838005  0.99922115  0.33838005  1
  Al  Al6  1  0.33838005  0.33838005  0.99922115  1
  Al  Al7  1  0.99922115  0.33838005  0.33838005  1
  Al  Al8  1  0.91662366  0.91662366  0.91662366  1
  Ru  Ru0  1  0.62500000  0.12500000  0.12500000  1
  Ru  Ru1  1  0.12500000  0.62500000  0.12500000  1
  Ru  Ru2  1  0.12500000  0.12500000  0.62500000  1
  C  C0  1  0.62500000  0.62500000  0.62500000  1
  C  C1  1  0.12500000  0.62500000  0.62500000  1
  C  C2  1  0.62500000  0.12500000  0.62500000  1
  C  C3  1  0.62500000  0.62500000  0.12500000  1
loop_
_geom_bond_atom_site_label_1
_geom_bond_atom_site_label_2
_geom_bond_distance
_geom_bond_site_symmetry_2
Nb0 Ru0 3.042904 1_556
Nb0 Ru2 3.042904 1_655
Nb1 Ru1 3.042904 1_655
Nb1 Ru2 3.042904 1_655
Nb2 Ru0 3.012046 1_566
Nb3 Ru1 3.012046 1_656
Nb4 Ru1 3.042904 1_556
Nb4 Ru0 3.042904 1_556
Nb5 Ru2 3.012046 1_665
Nb6 Ru1 3.042904 1_655
Nb6 Ru0 3.042904 1_565
Nb7 Ru1 3.042904 1_556
Nb7 Ru2 3.042904 1_565
Nb8 Ru0 3.012046 1_555
Nb9 Ru2 3.012046 1_555
Nb10 Ru0 3.042904 1_565
Nb10 Ru2 3.042904 1_565
Nb11 Ru1 3.012046 1_555
Al0 Al5 2.617304 1_545
Al0 Al3 2.617304 1_454
Al0 Al7 2.617304 1_455
Al0 Al2 2.617304 1_544
Al0 Al6 2.617304 1_554
Al0 Al4 2.617304 1_445
Al0 Nb5 3.027229 1_445
Al0 Nb9 3.027229 1_554
Al0 Nb3 3.027229 1_454
Al0 Nb11 3.027229 1_545
Al0 Nb2 3.027229 1_544
Al0 Nb8 3.027229 1_455
Al1 Ru1 2.555178 1_555
Al1 Ru2 2.555178 1_555
Al1 Ru0 2.555178 1_555
Al2 Ru2 2.523223 1_565
Al2 Ru1 2.523224 1_556
Al3 Ru2 2.523223 1_655
Al3 Ru0 2.523224 1_556
Al4 Ru0 2.523223 1_565
Al4 Ru1 2.523224 1_655
Al5 Ru2 2.523223 1_565
Al5 Ru0 2.523224 1_565
Al6 Ru0 2.523223 1_556
Al6 Ru1 2.523224 1_556
Al7 Ru2 2.523223 1_655
Al7 Ru1 2.523224 1_655
Al8 Ru1 2.555178 1_656
Al8 Ru2 2.555178 1_665
Al8 Ru0 2.555178 1_566
C0 Nb4 2.216342 1_555
C0 Nb6 2.216342 1_555
C0 Nb1 2.216343 1_555
C0 Nb7 2.216343 1_555
C0 Nb10 2.216343 1_555
C0 Nb0 2.216343 1_555
C1 Nb7 2.198271 1_555
C1 Nb1 2.198271 1_455
C1 Nb11 2.221179 1_555
C1 Nb3 2.221179 1_455
C1 Nb5 2.221180 1_455
C1 Nb9 2.221180 1_555
C2 Nb0 2.198271 1_555
C2 Nb10 2.198271 1_545
C2 Nb2 2.221179 1_545
C2 Nb8 2.221179 1_555
C2 Nb5 2.221180 1_545
C2 Nb9 2.221180 1_555
C3 Nb6 2.198271 1_555
C3 Nb4 2.198271 1_554
C3 Nb2 2.221179 1_554
C3 Nb8 2.221179 1_555
C3 Nb3 2.221180 1_554
C3 Nb11 2.221180 1_555
