# generated using pymatgen
data_InGa2(Ni10B3)2
_symmetry_space_group_name_H-M   'P 1'
_cell_length_a   7.39600635
_cell_length_b   7.39600610
_cell_length_c   7.39600567
_cell_angle_alpha   60.00000196
_cell_angle_beta   60.00000304
_cell_angle_gamma   60.00000095
_symmetry_Int_Tables_number   1
_chemical_formula_structural   InGa2(Ni10B3)2
_chemical_formula_sum   'In1 Ga2 Ni20 B6'
_cell_volume   286.07294900
_cell_formula_units_Z   1
loop_
 _symmetry_equiv_pos_site_id
 _symmetry_equiv_pos_as_xyz
  1  'x, y, z'
loop_
 _atom_site_type_symbol
 _atom_site_label
 _atom_site_symmetry_multiplicity
 _atom_site_fract_x
 _atom_site_fract_y
 _atom_site_fract_z
 _atom_site_occupancy
  In  In0  1  0.25000000  0.25000000  0.25000000  1
  Ga  Ga0  1  0.00000000  0.00000000  0.00000000  1
  Ga  Ga1  1  0.75000000  0.75000000  0.75000000  1
  Ni  Ni0  1  0.33776784  0.99948470  0.99948470  1
  Ni  Ni1  1  0.99948470  0.33776784  0.66326275  1
  Ni  Ni2  1  0.66326275  0.99948470  0.99948470  1
  Ni  Ni3  1  0.99948470  0.66326275  0.33776784  1
  Ni  Ni4  1  0.99948470  0.33776784  0.99948470  1
  Ni  Ni5  1  0.99948470  0.99948470  0.33776784  1
  Ni  Ni6  1  0.33776784  0.99948470  0.66326275  1
  Ni  Ni7  1  0.33776784  0.66326275  0.99948470  1
  Ni  Ni8  1  0.66326275  0.99948470  0.33776784  1
  Ni  Ni9  1  0.99948470  0.99948470  0.66326275  1
  Ni  Ni10  1  0.99948470  0.66326275  0.99948470  1
  Ni  Ni11  1  0.66326275  0.33776784  0.99948470  1
  Ni  Ni12  1  0.38820240  0.38820240  0.38820240  1
  Ni  Ni13  1  0.38820240  0.38820240  0.83539079  1
  Ni  Ni14  1  0.83539079  0.38820240  0.38820240  1
  Ni  Ni15  1  0.38820240  0.83539079  0.38820240  1
  Ni  Ni16  1  0.61974818  0.61974818  0.61974818  1
  Ni  Ni17  1  0.61974818  0.61974818  0.14075647  1
  Ni  Ni18  1  0.61974818  0.14075647  0.61974818  1
  Ni  Ni19  1  0.14075647  0.61974818  0.61974818  1
  B  B0  1  0.72487005  0.72487005  0.27512995  1
  B  B1  1  0.27512995  0.27512995  0.72487005  1
  B  B2  1  0.27512995  0.72487005  0.72487005  1
  B  B3  1  0.72487005  0.27512995  0.72487005  1
  B  B4  1  0.72487005  0.27512995  0.27512995  1
  B  B5  1  0.27512995  0.72487005  0.27512995  1
loop_
_geom_bond_atom_site_label_1
_geom_bond_atom_site_label_2
_geom_bond_distance
_geom_bond_site_symmetry_2
In0 Ni12 2.503736 1_555
In0 Ni13 2.503748 1_554
In0 Ni15 2.503748 1_545
In0 Ni14 2.503748 1_455
In0 Ni6 2.883518 1_545
In0 Ni0 2.883518 1_544
In0 Ni1 2.883518 1_455
In0 Ni4 2.883518 1_454
In0 Ni3 2.883518 1_455
In0 Ni10 2.883518 1_454
In0 Ni7 2.883518 1_554
In0 Ni8 2.883518 1_545
In0 Ni2 2.883518 1_544
In0 Ni9 2.883518 1_445
In0 Ni5 2.883518 1_445
In0 Ni11 2.883518 1_554
Ga0 Ni5 2.494328 1_445
Ga0 Ni9 2.494328 1_444
Ga0 Ni3 2.494328 1_445
Ga0 Ni10 2.494328 1_444
Ga0 Ni4 2.494328 1_454
Ga0 Ni1 2.494328 1_454
Ga0 Ni11 2.494328 1_454
Ga0 Ni7 2.494328 1_544
Ga0 Ni8 2.494328 1_445
Ga0 Ni2 2.494328 1_444
Ga0 Ni0 2.494328 1_544
Ga0 Ni6 2.494328 1_544
Ga1 Ni16 2.359699 1_555
Ga1 Ni17 2.359705 1_556
Ga1 Ni18 2.359706 1_565
Ga1 Ni19 2.359706 1_655
B0 Ni14 2.033102 1_555
B0 Ni15 2.033103 1_555
B0 Ni17 2.084824 1_555
B0 Ni16 2.084831 1_555
B0 Ni2 2.086096 1_554
B0 Ni8 2.086096 1_555
B0 Ni10 2.086096 1_554
B0 Ni3 2.086096 1_555
B1 Ni13 2.033090 1_555
B1 Ni12 2.033102 1_555
B1 Ni19 2.084830 1_555
B1 Ni18 2.084830 1_555
B1 Ni0 2.086096 1_545
B1 Ni6 2.086096 1_545
B1 Ni4 2.086096 1_455
B1 Ni1 2.086096 1_455
B2 Ni15 2.033102 1_555
B2 Ni13 2.033102 1_555
B2 Ni19 2.084824 1_555
B2 Ni16 2.084831 1_555
B2 Ni7 2.086096 1_555
B2 Ni6 2.086096 1_555
B2 Ni9 2.086096 1_455
B2 Ni10 2.086096 1_455
B3 Ni14 2.033102 1_555
B3 Ni13 2.033103 1_555
B3 Ni18 2.084824 1_555
B3 Ni16 2.084831 1_555
B3 Ni11 2.086096 1_555
B3 Ni2 2.086096 1_545
B3 Ni9 2.086096 1_545
B3 Ni1 2.086096 1_555
B4 Ni14 2.033090 1_555
B4 Ni12 2.033102 1_555
B4 Ni18 2.084830 1_555
B4 Ni17 2.084830 1_555
B4 Ni11 2.086096 1_554
B4 Ni8 2.086096 1_545
B4 Ni5 2.086096 1_545
B4 Ni4 2.086096 1_554
B5 Ni15 2.033090 1_555
B5 Ni12 2.033102 1_555
B5 Ni19 2.084830 1_555
B5 Ni17 2.084830 1_555
B5 Ni7 2.086096 1_554
B5 Ni0 2.086096 1_554
B5 Ni5 2.086096 1_455
B5 Ni3 2.086096 1_455
