# generated using pymatgen
data_Na3Ni2RuO6
_symmetry_space_group_name_H-M   'P 1'
_cell_length_a   5.23404747
_cell_length_b   5.23404870
_cell_length_c   5.54640766
_cell_angle_alpha   80.95806852
_cell_angle_beta   99.04194145
_cell_angle_gamma   59.99525687
_symmetry_Int_Tables_number   1
_chemical_formula_structural   Na3Ni2RuO6
_chemical_formula_sum   'Na3 Ni2 Ru1 O6'
_cell_volume   124.91246176
_cell_formula_units_Z   1
loop_
 _symmetry_equiv_pos_site_id
 _symmetry_equiv_pos_as_xyz
  1  'x, y, z'
loop_
 _atom_site_type_symbol
 _atom_site_label
 _atom_site_symmetry_multiplicity
 _atom_site_fract_x
 _atom_site_fract_y
 _atom_site_fract_z
 _atom_site_occupancy
  Na  Na0  1  0.17222771  0.17222771  0.50000000  1
  Na  Na1  1  0.82777229  0.82777229  0.50000000  1
  Na  Na2  1  0.50000000  0.50000000  0.50000000  1
  Ni  Ni0  1  0.66633749  0.66633749  0.00000000  1
  Ni  Ni1  1  0.33366251  0.33366251  1.00000000  1
  Ru  Ru0  1  0.00000000  0.00000000  0.00000000  1
  O  O0  1  0.24807813  0.75192187  0.79415791  1
  O  O1  1  0.06863312  0.61391251  0.20561270  1
  O  O2  1  0.38608749  0.93136688  0.20561270  1
  O  O3  1  0.93136688  0.38608749  0.79438730  1
  O  O4  1  0.61391251  0.06863312  0.79438730  1
  O  O5  1  0.75192187  0.24807813  0.20584209  1
loop_
_geom_bond_atom_site_label_1
_geom_bond_atom_site_label_2
_geom_bond_distance
_geom_bond_site_symmetry_2
Na0 O3 2.306161 1_455
Na0 O2 2.306161 1_545
Na0 O5 2.335340 1_455
Na0 O0 2.335341 1_545
Na0 O4 2.363479 1_555
Na0 O1 2.363480 1_555
Na1 O1 2.306161 1_655
Na1 O4 2.306161 1_565
Na1 O0 2.335340 1_655
Na1 O5 2.335341 1_565
Na1 O2 2.363479 1_555
Na1 O3 2.363480 1_555
Na2 O3 2.303926 1_555
Na2 O1 2.303926 1_555
Na2 O4 2.303926 1_555
Na2 O2 2.303926 1_555
Na2 O0 2.398456 1_555
Na2 O5 2.398456 1_555
Ni0 O2 2.089110 1_555
Ni0 O3 2.089110 1_554
Ni0 O0 2.090341 1_554
Ni0 O5 2.090342 1_555
Ni0 O1 2.092499 1_655
Ni0 O4 2.092500 1_564
Ni1 O4 2.089110 1_555
Ni1 O1 2.089110 1_556
Ni1 O5 2.090341 1_556
Ni1 O0 2.090342 1_555
Ni1 O3 2.092499 1_455
Ni1 O2 2.092500 1_546
O0 Ru0 1.980171 1_566
O1 Ru0 1.983449 1_565
O2 Ru0 1.983448 1_565
O3 Ru0 1.983449 1_656
O4 Ru0 1.983448 1_656
O5 Ru0 1.980171 1_655
