# generated using pymatgen
data_Nb12Al9Tc3C4
_symmetry_space_group_name_H-M   'P 1'
_cell_length_a   8.36394606
_cell_length_b   8.34579850
_cell_length_c   8.36394603
_cell_angle_alpha   59.92944160
_cell_angle_beta   60.00105049
_cell_angle_gamma   59.92944252
_symmetry_Int_Tables_number   1
_chemical_formula_structural   Nb12Al9Tc3C4
_chemical_formula_sum   'Nb12 Al9 Tc3 C4'
_cell_volume   412.39632893
_cell_formula_units_Z   1
loop_
 _symmetry_equiv_pos_site_id
 _symmetry_equiv_pos_as_xyz
  1  'x, y, z'
loop_
 _atom_site_type_symbol
 _atom_site_label
 _atom_site_symmetry_multiplicity
 _atom_site_fract_x
 _atom_site_fract_y
 _atom_site_fract_z
 _atom_site_occupancy
  Nb  Nb0  1  0.80833697  0.80898829  0.19130592  1
  Nb  Nb1  1  0.18923276  0.19413157  0.80833999  1
  Nb  Nb2  1  0.80832483  0.19410316  0.80832483  1
  Nb  Nb3  1  0.19136269  0.80898841  0.19136269  1
  Nb  Nb4  1  0.19130592  0.80898829  0.80833697  1
  Nb  Nb5  1  0.80833999  0.19413157  0.18923276  1
  Nb  Nb6  1  0.44166303  0.44101171  0.05869408  1
  Nb  Nb7  1  0.06076724  0.05586843  0.44166001  1
  Nb  Nb8  1  0.44167517  0.05589684  0.44167517  1
  Nb  Nb9  1  0.05863731  0.44101159  0.05863731  1
  Nb  Nb10  1  0.05869408  0.44101171  0.44166303  1
  Nb  Nb11  1  0.44166001  0.05586843  0.06076724  1
  Al  Al0  1  0.62500000  0.12500000  0.62500000  1
  Al  Al1  1  0.75303144  0.42210529  0.41241882  1
  Al  Al2  1  0.41636205  0.75091324  0.41636205  1
  Al  Al3  1  0.41241882  0.42210529  0.75303144  1
  Al  Al4  1  0.41244119  0.42211594  0.41244119  1
  Al  Al5  1  0.49696856  0.82789471  0.83758118  1
  Al  Al6  1  0.83363795  0.49908676  0.83363795  1
  Al  Al7  1  0.83758118  0.82789471  0.49696856  1
  Al  Al8  1  0.83755881  0.82788406  0.83755881  1
  Tc  Tc0  1  0.12500000  0.62500000  0.62500000  1
  Tc  Tc1  1  0.62500000  0.62500000  0.12500000  1
  Tc  Tc2  1  0.62500000  0.62500000  0.62500000  1
  C  C0  1  0.62500000  0.12500000  0.12500000  1
  C  C1  1  0.12500000  0.62500000  0.12500000  1
  C  C2  1  0.12500000  0.12500000  0.62500000  1
  C  C3  1  0.12500000  0.12500000  0.12500000  1
loop_
_geom_bond_atom_site_label_1
_geom_bond_atom_site_label_2
_geom_bond_distance
_geom_bond_site_symmetry_2
Nb0 Tc1 3.013334 1_555
Nb0 Tc2 3.013778 1_555
Nb1 Tc0 2.988769 1_555
Nb2 Tc2 2.988969 1_555
Nb3 Tc0 3.013372 1_555
Nb3 Tc1 3.013372 1_555
Nb4 Tc0 3.013334 1_555
Nb4 Tc2 3.013778 1_555
Nb5 Tc1 2.988769 1_555
Nb6 Tc1 3.013334 1_555
Nb6 Tc2 3.013778 1_554
Nb7 Tc0 2.988769 1_545
Nb8 Tc2 2.988969 1_545
Nb9 Tc0 3.013372 1_554
Nb9 Tc1 3.013372 1_455
Nb10 Tc0 3.013334 1_555
Nb10 Tc2 3.013778 1_455
Nb11 Tc1 2.988769 1_545
Al0 Al4 2.606730 1_555
Al0 Al8 2.606730 1_545
Al0 Al1 2.606767 1_555
Al0 Al5 2.606767 1_545
Al0 Al3 2.606767 1_555
Al0 Al7 2.606767 1_545
Al0 Nb2 3.026235 1_555
Al0 Nb8 3.026235 1_555
Al0 Nb11 3.026363 1_556
Al0 Nb5 3.026363 1_555
Al0 Nb7 3.026363 1_655
Al0 Nb1 3.026363 1_555
Al1 Tc1 2.543765 1_555
Al1 Tc2 2.543910 1_555
Al2 Tc2 2.562087 1_555
Al2 Tc0 2.562092 1_555
Al2 Tc1 2.562092 1_555
Al3 Tc0 2.543765 1_555
Al3 Tc2 2.543910 1_555
Al4 Tc1 2.543784 1_555
Al4 Tc0 2.543784 1_555
Al5 Tc1 2.543765 1_556
Al5 Tc2 2.543910 1_555
Al6 Tc2 2.562087 1_555
Al6 Tc0 2.562092 1_655
Al6 Tc1 2.562092 1_556
Al7 Tc0 2.543765 1_655
Al7 Tc2 2.543910 1_555
Al8 Tc1 2.543784 1_556
Al8 Tc0 2.543784 1_655
C0 Nb6 2.224065 1_555
C0 Nb0 2.224065 1_545
C0 Nb8 2.234576 1_555
C0 Nb2 2.234576 1_554
C0 Nb5 2.234728 1_555
C0 Nb11 2.234728 1_555
C1 Nb10 2.233661 1_555
C1 Nb4 2.233661 1_554
C1 Nb6 2.233661 1_555
C1 Nb0 2.233661 1_455
C1 Nb3 2.233906 1_555
C1 Nb9 2.233906 1_555
C2 Nb10 2.224065 1_555
C2 Nb4 2.224065 1_545
C2 Nb8 2.234576 1_555
C2 Nb2 2.234576 1_455
C2 Nb1 2.234728 1_555
C2 Nb7 2.234728 1_555
C3 Nb9 2.223950 1_555
C3 Nb3 2.223950 1_545
C3 Nb7 2.234420 1_555
C3 Nb1 2.234420 1_554
C3 Nb11 2.234420 1_555
C3 Nb5 2.234420 1_455
