# generated using pymatgen
data_BaSr2(CrH6)2
_symmetry_space_group_name_H-M   'P 1'
_cell_length_a   5.26488778
_cell_length_b   5.26488716
_cell_length_c   8.87309825
_cell_angle_alpha   90.00000000
_cell_angle_beta   90.00000000
_cell_angle_gamma   120.00000393
_symmetry_Int_Tables_number   1
_chemical_formula_structural   BaSr2(CrH6)2
_chemical_formula_sum   'Ba1 Sr2 Cr2 H12'
_cell_volume   213.00220095
_cell_formula_units_Z   1
loop_
 _symmetry_equiv_pos_site_id
 _symmetry_equiv_pos_as_xyz
  1  'x, y, z'
loop_
 _atom_site_type_symbol
 _atom_site_label
 _atom_site_symmetry_multiplicity
 _atom_site_fract_x
 _atom_site_fract_y
 _atom_site_fract_z
 _atom_site_occupancy
  Ba  Ba0  1  0.00000000  0.00000000  0.00000000  1
  Sr  Sr0  1  0.66666700  0.33333300  0.36665992  1
  Sr  Sr1  1  0.33333300  0.66666700  0.63334008  1
  Cr  Cr0  1  0.66666700  0.33333300  0.74849926  1
  Cr  Cr1  1  0.33333300  0.66666700  0.25150074  1
  H  H0  1  0.18493618  0.81506382  0.37134055  1
  H  H1  1  0.63012863  0.81506382  0.37134055  1
  H  H2  1  0.18493618  0.36987137  0.37134055  1
  H  H3  1  0.81506382  0.18493618  0.62865945  1
  H  H4  1  0.36987137  0.18493618  0.62865945  1
  H  H5  1  0.81506382  0.63012863  0.62865945  1
  H  H6  1  0.50873703  0.01747205  0.85283657  1
  H  H7  1  0.50873703  0.49126297  0.85283657  1
  H  H8  1  0.98252795  0.49126297  0.85283657  1
  H  H9  1  0.49126297  0.98252795  0.14716343  1
  H  H10  1  0.49126297  0.50873703  0.14716343  1
  H  H11  1  0.01747205  0.50873703  0.14716343  1
loop_
_geom_bond_atom_site_label_1
_geom_bond_atom_site_label_2
_geom_bond_distance
_geom_bond_site_symmetry_2
Ba0 H11 2.939588 1_545
Ba0 H8 2.939588 1_454
Ba0 H9 2.939589 1_545
Ba0 H6 2.939589 1_454
Ba0 H10 2.939593 1_555
Ba0 H7 2.939593 1_444
Ba0 H7 2.939593 1_554
Ba0 H10 2.939593 1_445
Ba0 H11 2.939598 1_555
Ba0 H8 2.939598 1_444
Ba0 H9 2.939598 1_445
Ba0 H6 2.939598 1_554
Cr0 H7 1.712072 1_555
Cr0 H6 1.712076 1_555
Cr0 H8 1.712076 1_555
Cr0 H3 1.721037 1_555
Cr0 H5 1.721044 1_555
Cr0 H4 1.721044 1_555
Cr1 H10 1.712072 1_555
Cr1 H9 1.712076 1_555
Cr1 H11 1.712076 1_555
Cr1 H0 1.721037 1_555
Cr1 H2 1.721044 1_555
Cr1 H1 1.721044 1_555
H0 Sr0 2.638037 1_565
H0 Sr0 2.638037 1_455
H0 Sr1 2.689927 1_555
H1 Sr0 2.638037 1_565
H1 Sr0 2.638037 1_555
H1 Sr1 2.689931 1_555
H2 Sr0 2.638037 1_555
H2 Sr0 2.638037 1_455
H2 Sr1 2.689931 1_555
H3 Sr1 2.638037 1_545
H3 Sr1 2.638037 1_655
H3 Sr0 2.689927 1_555
H4 Sr1 2.638037 1_545
H4 Sr1 2.638037 1_555
H4 Sr0 2.689931 1_555
H5 Sr1 2.638037 1_555
H5 Sr1 2.638037 1_655
H5 Sr0 2.689931 1_555
H6 Sr1 2.520241 1_545
H7 Sr1 2.520250 1_555
H8 Sr1 2.520241 1_655
H9 Sr0 2.520241 1_565
H10 Sr0 2.520250 1_555
H11 Sr0 2.520241 1_455
