# generated using pymatgen
data_Ba4NbCo2OsO12
_symmetry_space_group_name_H-M   'P 1'
_cell_length_a   5.67828297
_cell_length_b   5.67828297
_cell_length_c   8.29211475
_cell_angle_alpha   90.00000000
_cell_angle_beta   90.00000000
_cell_angle_gamma   90.00000000
_symmetry_Int_Tables_number   1
_chemical_formula_structural   Ba4NbCo2OsO12
_chemical_formula_sum   'Ba4 Nb1 Co2 Os1 O12'
_cell_volume   267.36180632
_cell_formula_units_Z   1
loop_
 _symmetry_equiv_pos_site_id
 _symmetry_equiv_pos_as_xyz
  1  'x, y, z'
loop_
 _atom_site_type_symbol
 _atom_site_label
 _atom_site_symmetry_multiplicity
 _atom_site_fract_x
 _atom_site_fract_y
 _atom_site_fract_z
 _atom_site_occupancy
  Ba  Ba0  1  0.50000000  0.00000000  0.74735241  1
  Ba  Ba1  1  0.00000000  0.50000000  0.25264759  1
  Ba  Ba2  1  0.50000000  0.00000000  0.25264759  1
  Ba  Ba3  1  0.00000000  0.50000000  0.74735241  1
  Nb  Nb0  1  0.00000000  0.00000000  0.50000000  1
  Co  Co0  1  0.00000000  0.00000000  0.00000000  1
  Co  Co1  1  0.50000000  0.50000000  0.50000000  1
  Os  Os0  1  0.50000000  0.50000000  0.00000000  1
  O  O0  1  0.00000000  0.00000000  0.74402947  1
  O  O1  1  0.50000000  0.50000000  0.23042608  1
  O  O2  1  0.74917132  0.74917132  0.50000000  1
  O  O3  1  0.25761728  0.25761728  0.00000000  1
  O  O4  1  0.74917132  0.25082868  0.50000000  1
  O  O5  1  0.25761728  0.74238272  0.00000000  1
  O  O6  1  0.00000000  0.00000000  0.25597053  1
  O  O7  1  0.50000000  0.50000000  0.76957392  1
  O  O8  1  0.25082868  0.25082868  0.50000000  1
  O  O9  1  0.74238272  0.74238272  0.00000000  1
  O  O10  1  0.25082868  0.74917132  0.50000000  1
  O  O11  1  0.74238272  0.25761728  0.00000000  1
loop_
_geom_bond_atom_site_label_1
_geom_bond_atom_site_label_2
_geom_bond_distance
_geom_bond_site_symmetry_2
Ba0 O0 2.839275 1_555
Ba0 O0 2.839275 1_655
Ba0 O7 2.845115 1_545
Ba0 O7 2.845115 1_555
Ba0 O4 2.870072 1_555
Ba0 O2 2.870072 1_545
Ba0 O8 2.870072 1_555
Ba0 O10 2.870072 1_545
Ba0 O11 2.902250 1_556
Ba0 O3 2.902250 1_556
Ba0 O9 2.902250 1_546
Ba0 O5 2.902250 1_546
Ba1 O6 2.839275 1_565
Ba1 O6 2.839275 1_555
Ba1 O1 2.845115 1_555
Ba1 O1 2.845115 1_455
Ba1 O10 2.870072 1_555
Ba1 O2 2.870072 1_455
Ba1 O8 2.870072 1_555
Ba1 O4 2.870072 1_455
Ba1 O5 2.902250 1_555
Ba1 O3 2.902250 1_555
Ba1 O9 2.902250 1_455
Ba1 O11 2.902250 1_455
Ba2 O6 2.839275 1_655
Ba2 O6 2.839275 1_555
Ba2 O1 2.845115 1_555
Ba2 O1 2.845115 1_545
Ba2 O4 2.870072 1_555
Ba2 O8 2.870072 1_555
Ba2 O2 2.870072 1_545
Ba2 O10 2.870072 1_545
Ba2 O11 2.902250 1_555
Ba2 O3 2.902250 1_555
Ba2 O9 2.902250 1_545
Ba2 O5 2.902250 1_545
Ba3 O0 2.839275 1_565
Ba3 O0 2.839275 1_555
Ba3 O7 2.845115 1_455
Ba3 O7 2.845115 1_555
Ba3 O10 2.870072 1_555
Ba3 O2 2.870072 1_455
Ba3 O8 2.870072 1_555
Ba3 O4 2.870072 1_455
Ba3 O5 2.902250 1_556
Ba3 O3 2.902250 1_556
Ba3 O9 2.902250 1_456
Ba3 O11 2.902250 1_456
Nb0 O8 2.014231 1_555
Nb0 O4 2.014231 1_455
Nb0 O10 2.014231 1_545
Nb0 O2 2.014231 1_445
Nb0 O0 2.023520 1_555
Nb0 O6 2.023520 1_555
Co0 O3 2.068745 1_555
Co0 O11 2.068745 1_455
Co0 O5 2.068745 1_545
Co0 O9 2.068745 1_445
Co0 O6 2.122537 1_555
Co0 O0 2.122537 1_554
Co1 O2 2.000922 1_555
Co1 O4 2.000922 1_555
Co1 O10 2.000922 1_555
Co1 O8 2.000922 1_555
Co1 O7 2.235338 1_555
Co1 O1 2.235338 1_555
O1 Os0 1.910719 1_555
O3 Os0 1.946407 1_555
O5 Os0 1.946407 1_555
O7 Os0 1.910719 1_556
O9 Os0 1.946407 1_555
O11 Os0 1.946407 1_555
