# generated using pymatgen
data_LiNbPdPt5
_symmetry_space_group_name_H-M   'P 1'
_cell_length_a   5.54552815
_cell_length_b   5.53585470
_cell_length_c   5.54552900
_cell_angle_alpha   60.05769324
_cell_angle_beta   60.06206590
_cell_angle_gamma   60.05770261
_symmetry_Int_Tables_number   1
_chemical_formula_structural   LiNbPdPt5
_chemical_formula_sum   'Li1 Nb1 Pd1 Pt5'
_cell_volume   120.54173330
_cell_formula_units_Z   1
loop_
 _symmetry_equiv_pos_site_id
 _symmetry_equiv_pos_as_xyz
  1  'x, y, z'
loop_
 _atom_site_type_symbol
 _atom_site_label
 _atom_site_symmetry_multiplicity
 _atom_site_fract_x
 _atom_site_fract_y
 _atom_site_fract_z
 _atom_site_occupancy
  Li  Li0  1  0.00000000  0.00000000  0.00000000  1
  Nb  Nb0  1  0.50000000  0.50000000  0.50000000  1
  Pd  Pd0  1  0.00000000  0.50000000  0.00000000  1
  Pt  Pt0  1  0.00000000  0.00000000  0.50000000  1
  Pt  Pt1  1  0.50000000  0.00000000  0.50000000  1
  Pt  Pt2  1  0.00000000  0.50000000  0.50000000  1
  Pt  Pt3  1  0.50000000  0.50000000  0.00000000  1
  Pt  Pt4  1  0.50000000  0.00000000  0.00000000  1
loop_
_geom_bond_atom_site_label_1
_geom_bond_atom_site_label_2
_geom_bond_distance
_geom_bond_site_symmetry_2
Li0 Pd0 2.767927 1_555
Li0 Pd0 2.767927 1_545
Li0 Pt4 2.772764 1_455
Li0 Pt4 2.772764 1_555
Li0 Pt0 2.772764 1_554
Li0 Pt0 2.772764 1_555
Li0 Pt2 2.772765 1_545
Li0 Pt2 2.772765 1_554
Li0 Pt3 2.772765 1_455
Li0 Pt3 2.772765 1_545
Li0 Pt1 2.775365 1_455
Li0 Pt1 2.775365 1_554
Nb0 Pt1 2.767927 1_555
Nb0 Pt1 2.767927 1_565
Nb0 Pt2 2.772764 1_655
Nb0 Pt2 2.772764 1_555
Nb0 Pt3 2.772764 1_556
Nb0 Pt3 2.772764 1_555
Nb0 Pt4 2.772765 1_556
Nb0 Pt4 2.772765 1_565
Nb0 Pt0 2.772765 1_655
Nb0 Pt0 2.772765 1_565
Nb0 Pd0 2.775365 1_556
Nb0 Pd0 2.775365 1_655
Pd0 Pt3 2.772764 1_555
Pd0 Pt3 2.772764 1_455
Pd0 Pt2 2.772764 1_555
Pd0 Pt2 2.772764 1_554
Pd0 Pt0 2.772765 1_555
Pd0 Pt0 2.772765 1_564
Pd0 Pt4 2.772765 1_465
Pd0 Pt4 2.772765 1_555
Pt0 Pt2 2.767927 1_555
Pt0 Pt2 2.767927 1_545
Pt0 Pt1 2.772764 1_555
Pt0 Pt1 2.772764 1_455
Pt0 Pt4 2.775365 1_456
Pt0 Pt4 2.775365 1_555
Pt1 Pt4 2.772764 1_555
Pt1 Pt4 2.772764 1_556
Pt1 Pt3 2.772765 1_555
Pt1 Pt3 2.772765 1_546
Pt1 Pt2 2.772765 1_555
Pt1 Pt2 2.772765 1_645
Pt2 Pt3 2.775365 1_555
Pt2 Pt3 2.775365 1_456
Pt3 Pt4 2.767927 1_555
Pt3 Pt4 2.767927 1_565
