# generated using pymatgen
data_Zr10Zn2(SnSb)3
_symmetry_space_group_name_H-M   'P 1'
_cell_length_a   8.65521356
_cell_length_b   8.65521300
_cell_length_c   5.87233793
_cell_angle_alpha   90.00000000
_cell_angle_beta   90.00000000
_cell_angle_gamma   120.00000213
_symmetry_Int_Tables_number   1
_chemical_formula_structural   Zr10Zn2(SnSb)3
_chemical_formula_sum   'Zr10 Zn2 Sn3 Sb3'
_cell_volume   380.97564224
_cell_formula_units_Z   1
loop_
 _symmetry_equiv_pos_site_id
 _symmetry_equiv_pos_as_xyz
  1  'x, y, z'
loop_
 _atom_site_type_symbol
 _atom_site_label
 _atom_site_symmetry_multiplicity
 _atom_site_fract_x
 _atom_site_fract_y
 _atom_site_fract_z
 _atom_site_occupancy
  Zr  Zr0  1  0.66666700  0.33333300  0.00136416  1
  Zr  Zr1  1  0.33333300  0.66666700  0.00136416  1
  Zr  Zr2  1  0.33333300  0.66666700  0.49863584  1
  Zr  Zr3  1  0.66666700  0.33333300  0.49863584  1
  Zr  Zr4  1  0.73607739  0.73607739  0.75000000  1
  Zr  Zr5  1  0.26392261  0.00000000  0.75000000  1
  Zr  Zr6  1  1.00000000  0.26392261  0.75000000  1
  Zr  Zr7  1  0.26916208  0.26916208  0.25000000  1
  Zr  Zr8  1  0.73083792  0.00000000  0.25000000  1
  Zr  Zr9  1  0.00000000  0.73083792  0.25000000  1
  Zn  Zn0  1  0.00000000  0.00000000  0.00794555  1
  Zn  Zn1  1  0.00000000  0.00000000  0.49205445  1
  Sn  Sn0  1  0.61653368  0.61653368  0.25000000  1
  Sn  Sn1  1  0.38346632  0.00000000  0.25000000  1
  Sn  Sn2  1  0.00000000  0.38346632  0.25000000  1
  Sb  Sb0  1  0.38793297  0.38793297  0.75000000  1
  Sb  Sb1  1  0.61206703  0.00000000  0.75000000  1
  Sb  Sb2  1  0.00000000  0.61206703  0.75000000  1
loop_
_geom_bond_atom_site_label_1
_geom_bond_atom_site_label_2
_geom_bond_distance
_geom_bond_site_symmetry_2
Zn0 Zr9 2.729055 1_545
Zn0 Zr7 2.729055 1_555
Zn0 Zr8 2.729056 1_455
Zn0 Zr6 2.740895 1_454
Zn0 Zr4 2.740895 1_444
Zn0 Zr5 2.740895 1_554
Zn1 Zr9 2.729055 1_545
Zn1 Zr7 2.729055 1_555
Zn1 Zr8 2.729056 1_455
Zn1 Zr6 2.740895 1_455
Zn1 Zr4 2.740895 1_445
Zn1 Zr5 2.740895 1_555
Sn0 Zr8 2.951416 1_565
Sn0 Zr9 2.951416 1_655
Sn0 Zr7 3.006575 1_555
Sn0 Zr3 3.064619 1_555
Sn0 Zr0 3.064619 1_555
Sn0 Zr2 3.064619 1_555
Sn0 Zr1 3.064619 1_555
Sn0 Zr4 3.113140 1_554
Sn0 Zr4 3.113140 1_555
Sn1 Zr7 2.951416 1_555
Sn1 Zr9 2.951416 1_545
Sn1 Zr8 3.006575 1_555
Sn1 Zr2 3.064611 1_545
Sn1 Zr1 3.064611 1_545
Sn1 Zr3 3.064614 1_555
Sn1 Zr0 3.064614 1_555
Sn1 Zr5 3.113140 1_555
Sn1 Zr5 3.113140 1_554
Sn2 Zr8 2.951416 1_455
Sn2 Zr7 2.951416 1_555
Sn2 Zr9 3.006575 1_555
Sn2 Zr3 3.064611 1_455
Sn2 Zr0 3.064611 1_455
Sn2 Zr2 3.064614 1_555
Sn2 Zr1 3.064614 1_555
Sn2 Zr6 3.113140 1_455
Sn2 Zr6 3.113140 1_454
Sb0 Zr5 2.970174 1_555
Sb0 Zr6 2.970174 1_455
Sb0 Zr4 3.013264 1_555
Sb0 Zr1 3.059810 1_556
Sb0 Zr2 3.059810 1_555
Sb0 Zr0 3.059810 1_556
Sb0 Zr3 3.059810 1_555
Sb0 Zr7 3.110924 1_555
Sb0 Zr7 3.110924 1_556
Sb1 Zr4 2.970174 1_545
Sb1 Zr6 2.970174 1_555
Sb1 Zr5 3.013264 1_555
Sb1 Zr0 3.059803 1_556
Sb1 Zr3 3.059803 1_555
Sb1 Zr1 3.059805 1_546
Sb1 Zr2 3.059805 1_545
Sb1 Zr8 3.110924 1_556
Sb1 Zr8 3.110924 1_555
Sb2 Zr5 2.970174 1_565
Sb2 Zr4 2.970174 1_455
Sb2 Zr6 3.013264 1_455
Sb2 Zr1 3.059803 1_556
Sb2 Zr2 3.059803 1_555
Sb2 Zr0 3.059805 1_456
Sb2 Zr3 3.059805 1_455
Sb2 Zr9 3.110924 1_556
Sb2 Zr9 3.110924 1_555
