# generated using pymatgen
data_BaLuCuTe3
_symmetry_space_group_name_H-M   'P 1'
_cell_length_a   7.76165203
_cell_length_b   7.76165204
_cell_length_c   11.27072494
_cell_angle_alpha   90.00000000
_cell_angle_beta   90.00000000
_cell_angle_gamma   147.04405864
_symmetry_Int_Tables_number   1
_chemical_formula_structural   BaLuCuTe3
_chemical_formula_sum   'Ba2 Lu2 Cu2 Te6'
_cell_volume   369.36374850
_cell_formula_units_Z   2
loop_
 _symmetry_equiv_pos_site_id
 _symmetry_equiv_pos_as_xyz
  1  'x, y, z'
loop_
 _atom_site_type_symbol
 _atom_site_label
 _atom_site_symmetry_multiplicity
 _atom_site_fract_x
 _atom_site_fract_y
 _atom_site_fract_z
 _atom_site_occupancy
  Ba  Ba0  1  0.75100005  0.24899995  0.25000000  1
  Ba  Ba1  1  0.24899995  0.75100005  0.75000000  1
  Lu  Lu0  1  0.00000000  0.00000000  0.50000000  1
  Lu  Lu1  1  0.00000000  0.00000000  0.00000000  1
  Cu  Cu0  1  0.53255901  0.46744099  0.75000000  1
  Cu  Cu1  1  0.46744099  0.53255901  0.25000000  1
  Te  Te0  1  0.63339243  0.36660757  0.94254142  1
  Te  Te1  1  0.06843650  0.93156350  0.25000000  1
  Te  Te2  1  0.36660757  0.63339243  0.44254142  1
  Te  Te3  1  0.36660757  0.63339243  0.05745858  1
  Te  Te4  1  0.63339243  0.36660757  0.55745858  1
  Te  Te5  1  0.93156350  0.06843650  0.75000000  1
loop_
_geom_bond_atom_site_label_1
_geom_bond_atom_site_label_2
_geom_bond_distance
_geom_bond_site_symmetry_2
Ba0 Te1 3.497458 1_545
Ba0 Te1 3.497458 1_655
Ba0 Te2 3.538030 1_655
Ba0 Te3 3.538030 1_655
Ba0 Te2 3.538030 1_545
Ba0 Te3 3.538030 1_545
Ba0 Te4 3.882402 1_555
Ba0 Te0 3.882402 1_554
Ba1 Te5 3.497458 1_565
Ba1 Te5 3.497458 1_455
Ba1 Te0 3.538030 1_455
Ba1 Te4 3.538030 1_455
Ba1 Te0 3.538030 1_565
Ba1 Te4 3.538030 1_565
Ba1 Te3 3.882402 1_556
Ba1 Te2 3.882402 1_555
Lu0 Te1 2.996187 1_545
Lu0 Te5 2.996187 1_455
Lu0 Te4 3.034645 1_555
Lu0 Te2 3.034645 1_445
Lu0 Te2 3.034645 1_555
Lu0 Te4 3.034645 1_445
Lu1 Te1 2.996187 1_545
Lu1 Te5 2.996187 1_454
Lu1 Te0 3.034645 1_554
Lu1 Te3 3.034645 1_445
Lu1 Te3 3.034645 1_555
Lu1 Te0 3.034645 1_444
Cu0 Te0 2.638597 1_555
Cu0 Te4 2.638597 1_555
Cu0 Te5 2.665912 1_455
Cu0 Te5 2.665912 1_565
Cu1 Te2 2.638597 1_555
Cu1 Te3 2.638597 1_555
Cu1 Te1 2.665912 1_655
Cu1 Te1 2.665912 1_545
