# generated using pymatgen
data_TiPdAu3
_symmetry_space_group_name_H-M   'P 1'
_cell_length_a   4.94758956
_cell_length_b   4.94758924
_cell_length_c   4.99392675
_cell_angle_alpha   98.66025338
_cell_angle_beta   99.27387126
_cell_angle_gamma   133.26326317
_symmetry_Int_Tables_number   1
_chemical_formula_structural   TiPdAu3
_chemical_formula_sum   'Ti1 Pd1 Au3'
_cell_volume   81.85718409
_cell_formula_units_Z   1
loop_
 _symmetry_equiv_pos_site_id
 _symmetry_equiv_pos_as_xyz
  1  'x, y, z'
loop_
 _atom_site_type_symbol
 _atom_site_label
 _atom_site_symmetry_multiplicity
 _atom_site_fract_x
 _atom_site_fract_y
 _atom_site_fract_z
 _atom_site_occupancy
  Ti  Ti0  1  0.00553256  0.99949203  0.00502458  1
  Pd  Pd0  1  0.78939563  0.39871752  0.18811116  1
  Au  Au0  1  0.20625905  0.60407199  0.81033104  1
  Au  Au1  1  0.60002594  0.79441337  0.39443831  1
  Au  Au2  1  0.39878682  0.20330509  0.60209291  1
loop_
_geom_bond_atom_site_label_1
_geom_bond_atom_site_label_2
_geom_bond_distance
_geom_bond_site_symmetry_2
Pd0 Ti0 2.755235 1_655
Pd0 Ti0 2.755241 1_545
Pd0 Ti0 2.923593 1_645
Au0 Pd0 2.793638 1_456
Au0 Pd0 2.793643 1_566
Au0 Ti0 2.827401 1_546
Au0 Ti0 2.827401 1_656
Au0 Au1 2.831512 1_556
Au0 Au2 2.855762 1_565
Au0 Au2 2.855765 1_455
Au0 Ti0 2.856666 1_556
Au0 Au2 2.864893 1_555
Au0 Au1 2.893848 1_445
Au0 Au1 2.893851 1_555
Au0 Pd0 3.008797 1_455
Au1 Au2 2.806170 1_665
Au1 Au2 2.806175 1_555
Au1 Ti0 2.810337 1_655
Au1 Ti0 2.810340 1_545
Au1 Pd0 2.826684 1_555
Au1 Pd0 2.877134 1_455
Au1 Pd0 2.877137 1_565
Au1 Au2 2.936198 1_565
Au1 Ti0 2.942562 1_656
Au2 Pd0 2.828093 1_556
Au2 Ti0 2.834619 1_546
Au2 Ti0 2.834622 1_656
Au2 Ti0 2.868531 1_545
Au2 Pd0 2.876151 1_445
Au2 Pd0 2.876159 1_555
