# generated using pymatgen
data_Zr2Ti2Ge4Mo
_symmetry_space_group_name_H-M   'P 1'
_cell_length_a   6.72614150
_cell_length_b   6.86416119
_cell_length_c   13.08688807
_cell_angle_alpha   90.00000000
_cell_angle_beta   90.00000000
_cell_angle_gamma   90.00000000
_symmetry_Int_Tables_number   1
_chemical_formula_structural   Zr2Ti2Ge4Mo
_chemical_formula_sum   'Zr8 Ti8 Ge16 Mo4'
_cell_volume   604.21271657
_cell_formula_units_Z   4
loop_
 _symmetry_equiv_pos_site_id
 _symmetry_equiv_pos_as_xyz
  1  'x, y, z'
loop_
 _atom_site_type_symbol
 _atom_site_label
 _atom_site_symmetry_multiplicity
 _atom_site_fract_x
 _atom_site_fract_y
 _atom_site_fract_z
 _atom_site_occupancy
  Zr  Zr0  1  0.49121811  0.67474304  0.09287806  1
  Zr  Zr1  1  0.99121811  0.82525696  0.40712194  1
  Zr  Zr2  1  0.50878189  0.32525696  0.59287806  1
  Zr  Zr3  1  0.00878189  0.17474304  0.90712194  1
  Zr  Zr4  1  0.50878189  0.32525696  0.90712194  1
  Zr  Zr5  1  0.00878189  0.17474304  0.59287806  1
  Zr  Zr6  1  0.49121811  0.67474304  0.40712194  1
  Zr  Zr7  1  0.99121811  0.82525696  0.09287806  1
  Ti  Ti0  1  0.66024318  0.16715938  0.12530954  1
  Ti  Ti1  1  0.16024318  0.33284062  0.37469046  1
  Ti  Ti2  1  0.33975682  0.83284062  0.62530954  1
  Ti  Ti3  1  0.83975682  0.66715938  0.87469046  1
  Ti  Ti4  1  0.33975682  0.83284062  0.87469046  1
  Ti  Ti5  1  0.83975682  0.66715938  0.62530954  1
  Ti  Ti6  1  0.66024318  0.16715938  0.37469046  1
  Ti  Ti7  1  0.16024318  0.33284062  0.12530954  1
  Ge  Ge0  1  0.69406872  0.85585384  0.25000000  1
  Ge  Ge1  1  0.19406872  0.64414616  0.25000000  1
  Ge  Ge2  1  0.30593128  0.14414616  0.75000000  1
  Ge  Ge3  1  0.80593128  0.35585384  0.75000000  1
  Ge  Ge4  1  0.68068045  0.95853353  0.96047557  1
  Ge  Ge5  1  0.18068045  0.54146647  0.53952443  1
  Ge  Ge6  1  0.31931955  0.04146647  0.46047557  1
  Ge  Ge7  1  0.81931955  0.45853353  0.03952443  1
  Ge  Ge8  1  0.31931955  0.04146647  0.03952443  1
  Ge  Ge9  1  0.81931955  0.45853353  0.46047557  1
  Ge  Ge10  1  0.68068045  0.95853353  0.53952443  1
  Ge  Ge11  1  0.18068045  0.54146647  0.96047557  1
  Ge  Ge12  1  0.46286532  0.38110130  0.25000000  1
  Ge  Ge13  1  0.96286532  0.11889870  0.25000000  1
  Ge  Ge14  1  0.53713468  0.61889870  0.75000000  1
  Ge  Ge15  1  0.03713468  0.88110130  0.75000000  1
  Mo  Mo0  1  0.33423452  0.00955860  0.25000000  1
  Mo  Mo1  1  0.83423452  0.49044140  0.25000000  1
  Mo  Mo2  1  0.66576548  0.99044140  0.75000000  1
  Mo  Mo3  1  0.16576548  0.50955860  0.75000000  1
loop_
_geom_bond_atom_site_label_1
_geom_bond_atom_site_label_2
_geom_bond_distance
_geom_bond_site_symmetry_2
Ge0 Ge13 2.555164 1_565
Ge0 Mo0 2.640260 1_565
Ge0 Mo1 2.679579 1_555
Ge0 Ti6 2.698277 1_565
Ge0 Ti0 2.698277 1_565
Ge0 Zr6 2.763184 1_555
Ge0 Zr0 2.763184 1_555
Ge0 Zr1 2.875221 1_555
Ge0 Zr7 2.875221 1_555
Ge1 Ge12 2.555164 1_555
Ge1 Mo1 2.640260 1_455
Ge1 Mo0 2.679579 1_565
Ge1 Ti1 2.698277 1_555
Ge1 Ti7 2.698277 1_555
Ge1 Zr1 2.763184 1_455
Ge1 Zr7 2.763184 1_455
Ge1 Zr6 2.875221 1_555
Ge1 Zr0 2.875221 1_555
Ge2 Mo2 2.640260 1_545
Ge2 Mo3 2.679579 1_555
Ge2 Ti4 2.698277 1_545
Ge2 Ti2 2.698277 1_545
Ge2 Zr4 2.763184 1_555
Ge2 Zr2 2.763184 1_555
Ge2 Zr3 2.875221 1_555
Ge2 Zr5 2.875221 1_555
Ge3 Mo3 2.640260 1_655
Ge3 Mo2 2.679579 1_545
Ge3 Ti3 2.698277 1_555
Ge3 Ti5 2.698277 1_555
Ge3 Zr3 2.763184 1_655
Ge3 Zr5 2.763184 1_655
Ge3 Zr4 2.875221 1_555
Ge3 Zr2 2.875221 1_555
Ge4 Ti3 2.530881 1_555
Ge4 Ti0 2.592874 1_566
Ge4 Ti4 2.695006 1_555
Ge4 Ge8 2.702204 1_566
Ge4 Zr3 2.749598 1_665
Ge4 Mo2 2.764985 1_555
Ge4 Zr4 2.856729 1_565
Ge4 Zr7 2.863921 1_556
Ge4 Zr0 2.901893 1_556
Ge5 Ti2 2.530881 1_555
Ge5 Ti1 2.592874 1_555
Ge5 Ti5 2.695006 1_455
Ge5 Ge9 2.702204 1_455
Ge5 Zr2 2.749598 1_555
Ge5 Mo3 2.764985 1_555
Ge5 Zr5 2.856729 1_555
Ge5 Zr6 2.863921 1_555
Ge5 Zr1 2.901893 1_455
Ge6 Ti1 2.530881 1_555
Ge6 Ti2 2.592874 1_545
Ge6 Ti6 2.695006 1_555
Ge6 Zr1 2.749598 1_445
Ge6 Mo0 2.764985 1_555
Ge6 Zr6 2.856729 1_545
Ge6 Zr5 2.863921 1_555
Ge6 Zr2 2.901893 1_555
Ge7 Ti0 2.530881 1_555
Ge7 Ti3 2.592874 1_554
Ge7 Ti7 2.695006 1_655
Ge7 Zr0 2.749598 1_555
Ge7 Mo1 2.764985 1_555
Ge7 Zr7 2.856729 1_555
Ge7 Zr4 2.863921 1_554
Ge7 Zr3 2.901893 1_654
Ge8 Ti7 2.530881 1_555
Ge8 Ti4 2.592874 1_544
Ge8 Ti0 2.695006 1_555
Ge8 Zr7 2.749598 1_445
Ge8 Mo0 2.764985 1_555
Ge8 Zr0 2.856729 1_545
Ge8 Zr3 2.863921 1_554
Ge8 Zr4 2.901893 1_554
Ge9 Ti6 2.530881 1_555
Ge9 Ti5 2.592874 1_555
Ge9 Ti1 2.695006 1_655
Ge9 Zr6 2.749598 1_555
Ge9 Mo1 2.764985 1_555
Ge9 Zr1 2.856729 1_555
Ge9 Zr2 2.863921 1_555
Ge9 Zr5 2.901893 1_655
Ge10 Ti5 2.530881 1_555
Ge10 Ti6 2.592874 1_565
Ge10 Ti2 2.695006 1_555
Ge10 Ge6 2.702204 1_565
Ge10 Zr5 2.749598 1_665
Ge10 Mo2 2.764985 1_555
Ge10 Zr2 2.856729 1_565
Ge10 Zr1 2.863921 1_555
Ge10 Zr6 2.901893 1_555
Ge11 Ti4 2.530881 1_555
Ge11 Ti7 2.592874 1_556
Ge11 Ti3 2.695006 1_455
Ge11 Ge7 2.702204 1_456
Ge11 Zr4 2.749598 1_555
Ge11 Mo3 2.764985 1_555
Ge11 Zr3 2.856729 1_555
Ge11 Zr0 2.863921 1_556
Ge11 Zr7 2.901893 1_456
Ge12 Ti6 2.565519 1_555
Ge12 Ti0 2.565519 1_555
Ge12 Mo1 2.608200 1_555
Ge12 Ti1 2.629776 1_555
Ge12 Ti7 2.629776 1_555
Ge12 Mo0 2.693089 1_555
Ge12 Zr6 2.885679 1_555
Ge12 Zr0 2.885679 1_555
Ge13 Ti1 2.565519 1_655
Ge13 Ti7 2.565519 1_655
Ge13 Mo0 2.608200 1_655
Ge13 Ti6 2.629776 1_555
Ge13 Ti0 2.629776 1_555
Ge13 Mo1 2.693089 1_555
Ge13 Zr1 2.885679 1_545
Ge13 Zr7 2.885679 1_545
Ge14 Ge3 2.555164 1_555
Ge14 Ti4 2.565519 1_555
Ge14 Ti2 2.565519 1_555
Ge14 Mo3 2.608200 1_555
Ge14 Ti3 2.629776 1_555
Ge14 Ti5 2.629776 1_555
Ge14 Mo2 2.693089 1_555
Ge14 Zr4 2.885679 1_555
Ge14 Zr2 2.885679 1_555
Ge15 Ge2 2.555164 1_565
Ge15 Ti3 2.565519 1_455
Ge15 Ti5 2.565519 1_455
Ge15 Mo2 2.608200 1_455
Ge15 Ti4 2.629776 1_555
Ge15 Ti2 2.629776 1_555
Ge15 Mo3 2.693089 1_555
Ge15 Zr3 2.885679 1_565
Ge15 Zr5 2.885679 1_565
Mo0 Ti6 2.939622 1_555
Mo0 Ti0 2.939622 1_555
Mo0 Ti1 2.992760 1_555
Mo0 Ti7 2.992760 1_555
Mo0 Zr6 3.259582 1_545
Mo0 Zr0 3.259582 1_545
Mo0 Zr1 3.339400 1_445
Mo0 Zr7 3.339400 1_445
Mo1 Ti1 2.939622 1_655
Mo1 Ti7 2.939622 1_655
Mo1 Ti6 2.992760 1_555
Mo1 Ti0 2.992760 1_555
Mo1 Zr1 3.259582 1_555
Mo1 Zr7 3.259582 1_555
Mo1 Zr6 3.339400 1_555
Mo1 Zr0 3.339400 1_555
Mo2 Ti4 2.939622 1_555
Mo2 Ti2 2.939622 1_555
Mo2 Ti3 2.992760 1_555
Mo2 Ti5 2.992760 1_555
Mo2 Zr4 3.259582 1_565
Mo2 Zr2 3.259582 1_565
Mo2 Zr3 3.339400 1_665
Mo2 Zr5 3.339400 1_665
Mo3 Ti3 2.939622 1_455
Mo3 Ti5 2.939622 1_455
Mo3 Ti4 2.992760 1_555
Mo3 Ti2 2.992760 1_555
Mo3 Zr3 3.259582 1_555
Mo3 Zr5 3.259582 1_555
Mo3 Zr4 3.339400 1_555
Mo3 Zr2 3.339400 1_555
