# generated using pymatgen
data_CdRu4Pb3O14
_symmetry_space_group_name_H-M   'P 1'
_cell_length_a   7.29687204
_cell_length_b   7.29687138
_cell_length_c   7.22092640
_cell_angle_alpha   59.65147752
_cell_angle_beta   59.65147945
_cell_angle_gamma   59.99999942
_symmetry_Int_Tables_number   1
_chemical_formula_structural   CdRu4Pb3O14
_chemical_formula_sum   'Cd1 Ru4 Pb3 O14'
_cell_volume   270.42280873
_cell_formula_units_Z   1
loop_
 _symmetry_equiv_pos_site_id
 _symmetry_equiv_pos_as_xyz
  1  'x, y, z'
loop_
 _atom_site_type_symbol
 _atom_site_label
 _atom_site_symmetry_multiplicity
 _atom_site_fract_x
 _atom_site_fract_y
 _atom_site_fract_z
 _atom_site_occupancy
  Cd  Cd0  1  0.12500000  0.12500000  0.62500000  1
  Ru  Ru0  1  0.62500000  0.12500000  0.62500000  1
  Ru  Ru1  1  0.62500000  0.62500000  0.12500000  1
  Ru  Ru2  1  0.12500000  0.62500000  0.62500000  1
  Ru  Ru3  1  0.62500000  0.62500000  0.62500000  1
  Pb  Pb0  1  0.12500000  0.62500000  0.12500000  1
  Pb  Pb1  1  0.62500000  0.12500000  0.12500000  1
  Pb  Pb2  1  0.12500000  0.12500000  0.12500000  1
  O  O0  1  0.69996196  0.69996196  0.29872711  1
  O  O1  1  0.94668584  0.55786760  0.54875971  1
  O  O2  1  0.55003804  0.94865002  0.95127289  1
  O  O3  1  0.94668584  0.94668584  0.54875971  1
  O  O4  1  0.94865002  0.55003804  0.95127289  1
  O  O5  1  0.55786760  0.94668584  0.54875971  1
  O  O6  1  0.30134998  0.69996196  0.29872711  1
  O  O7  1  0.30331416  0.69213240  0.70124029  1
  O  O8  1  0.69996196  0.30134998  0.29872711  1
  O  O9  1  0.69213240  0.30331416  0.70124029  1
  O  O10  1  0.55003804  0.55003804  0.95127289  1
  O  O11  1  0.30331416  0.30331416  0.70124029  1
  O  O12  1  0.24416026  0.24416026  0.26752023  1
  O  O13  1  0.00583974  0.00583974  0.98247977  1
loop_
_geom_bond_atom_site_label_1
_geom_bond_atom_site_label_2
_geom_bond_distance
_geom_bond_site_symmetry_2
Cd0 O12 2.096480 1_555
Cd0 O13 2.096480 1_555
Cd0 O1 2.613348 1_455
Cd0 O7 2.613348 1_545
Cd0 O5 2.613349 1_545
Cd0 O9 2.613349 1_455
Cd0 O11 2.613355 1_555
Cd0 O3 2.613355 1_445
O0 Ru3 1.960557 1_555
O0 Ru1 1.964199 1_555
O0 Pb1 2.560707 1_565
O0 Pb0 2.560707 1_655
O1 Ru3 1.967153 1_555
O1 Ru2 1.967160 1_655
O1 Pb0 2.528940 1_655
O2 Ru0 1.960558 1_565
O2 Ru1 1.964193 1_556
O2 Pb2 2.560708 1_566
O2 Pb1 2.560713 1_566
O3 Ru2 1.967155 1_655
O3 Ru0 1.967155 1_565
O3 Pb2 2.528942 1_665
O4 Ru2 1.960558 1_655
O4 Ru1 1.964194 1_556
O4 Pb2 2.560708 1_656
O4 Pb0 2.560713 1_656
O5 Ru3 1.967153 1_555
O5 Ru0 1.967160 1_565
O5 Pb1 2.528940 1_565
O6 Ru2 1.960558 1_555
O6 Ru1 1.964194 1_555
O6 Pb2 2.560708 1_565
O6 Pb0 2.560713 1_555
O7 Ru3 1.967153 1_555
O7 Ru2 1.967160 1_555
O7 Pb0 2.528940 1_556
O8 Ru0 1.960558 1_555
O8 Ru1 1.964193 1_555
O8 Pb2 2.560708 1_655
O8 Pb1 2.560713 1_555
O9 Ru3 1.967153 1_555
O9 Ru0 1.967160 1_555
O9 Pb1 2.528940 1_556
O10 Ru3 1.960557 1_555
O10 Ru1 1.964199 1_556
O10 Pb1 2.560707 1_556
O10 Pb0 2.560707 1_556
O11 Ru2 1.967155 1_555
O11 Ru0 1.967155 1_555
O11 Pb2 2.528942 1_556
O12 Pb0 2.266191 1_555
O12 Pb1 2.266192 1_555
O12 Pb2 2.266197 1_555
O13 Pb0 2.266191 1_546
O13 Pb1 2.266192 1_456
O13 Pb2 2.266197 1_556
