# generated using pymatgen
data_CeGa4Os
_symmetry_space_group_name_H-M   'P 1'
_cell_length_a   7.64408174
_cell_length_b   8.76070588
_cell_length_c   9.63807619
_cell_angle_alpha   90.00000000
_cell_angle_beta   90.00000000
_cell_angle_gamma   90.00000000
_symmetry_Int_Tables_number   1
_chemical_formula_structural   CeGa4Os
_chemical_formula_sum   'Ce6 Ga24 Os6'
_cell_volume   645.43836696
_cell_formula_units_Z   6
loop_
 _symmetry_equiv_pos_site_id
 _symmetry_equiv_pos_as_xyz
  1  'x, y, z'
loop_
 _atom_site_type_symbol
 _atom_site_label
 _atom_site_symmetry_multiplicity
 _atom_site_fract_x
 _atom_site_fract_y
 _atom_site_fract_z
 _atom_site_occupancy
  Ce  Ce0  1  0.16080404  0.75114258  0.25000000  1
  Ce  Ce1  1  0.16080404  0.24885742  0.25000000  1
  Ce  Ce2  1  0.83919596  0.75114258  0.75000000  1
  Ce  Ce3  1  0.83919596  0.24885742  0.75000000  1
  Ce  Ce4  1  0.67645389  0.50000000  0.25000000  1
  Ce  Ce5  1  0.32354611  0.50000000  0.75000000  1
  Ga  Ga0  1  0.00000000  0.50000000  0.50000000  1
  Ga  Ga1  1  0.00000000  0.50000000  -0.00000000  1
  Ga  Ga2  1  0.13221823  0.00000000  0.75000000  1
  Ga  Ga3  1  0.86778177  0.00000000  0.25000000  1
  Ga  Ga4  1  0.33973992  0.00000000  0.06254207  1
  Ga  Ga5  1  0.33973992  0.00000000  0.43745793  1
  Ga  Ga6  1  0.66026008  0.00000000  0.93745793  1
  Ga  Ga7  1  0.66026008  0.00000000  0.56254207  1
  Ga  Ga8  1  0.65834224  0.50000000  0.58650807  1
  Ga  Ga9  1  0.65834224  0.50000000  0.91349193  1
  Ga  Ga10  1  0.34165776  0.50000000  0.41349193  1
  Ga  Ga11  1  0.34165776  0.50000000  0.08650807  1
  Ga  Ga12  1  0.82067525  0.76346902  0.07680862  1
  Ga  Ga13  1  0.82067525  0.23653098  0.42319138  1
  Ga  Ga14  1  0.17932475  0.76346902  0.92319138  1
  Ga  Ga15  1  0.17932475  0.23653098  0.57680862  1
  Ga  Ga16  1  0.17932475  0.23653098  0.92319138  1
  Ga  Ga17  1  0.17932475  0.76346902  0.57680862  1
  Ga  Ga18  1  0.82067525  0.23653098  0.07680862  1
  Ga  Ga19  1  0.82067525  0.76346902  0.42319138  1
  Ga  Ga20  1  0.54819256  0.84437299  0.25000000  1
  Ga  Ga21  1  0.54819256  0.15562701  0.25000000  1
  Ga  Ga22  1  0.45180744  0.84437299  0.75000000  1
  Ga  Ga23  1  0.45180744  0.15562701  0.75000000  1
  Os  Os0  1  0.50000000  0.74066878  -0.00000000  1
  Os  Os1  1  0.50000000  0.25933122  0.50000000  1
  Os  Os2  1  0.50000000  0.25933122  -0.00000000  1
  Os  Os3  1  0.50000000  0.74066878  0.50000000  1
  Os  Os4  1  0.00000000  0.00000000  -0.00000000  1
  Os  Os5  1  0.00000000  0.00000000  0.50000000  1
loop_
_geom_bond_atom_site_label_1
_geom_bond_atom_site_label_2
_geom_bond_distance
_geom_bond_site_symmetry_2
Ce0 Ga11 3.038914 1_555
Ce0 Ga10 3.038914 1_555
Ce0 Ga20 3.071805 1_555
Ce0 Ga12 3.091578 1_455
Ce0 Ga19 3.091578 1_455
Ce0 Ga3 3.125735 1_465
Ce0 Ga4 3.144565 1_565
Ce0 Ga5 3.144565 1_565
Ce0 Ga17 3.154835 1_555
Ce0 Ga14 3.154835 1_554
Ce0 Ga1 3.486765 1_555
Ce0 Ga0 3.486765 1_555
Ce1 Ga11 3.038914 1_555
Ce1 Ga10 3.038914 1_555
Ce1 Ga21 3.071805 1_555
Ce1 Ga18 3.091578 1_455
Ce1 Ga13 3.091578 1_455
Ce1 Ga3 3.125735 1_455
Ce1 Ga4 3.144565 1_555
Ce1 Ga5 3.144565 1_555
Ce1 Ga16 3.154835 1_554
Ce1 Ga15 3.154835 1_555
Ce1 Ga1 3.486765 1_555
Ce1 Ga0 3.486765 1_555
Ce2 Ga8 3.038914 1_555
Ce2 Ga9 3.038914 1_555
Ce2 Ga22 3.071805 1_555
Ce2 Ga17 3.091578 1_655
Ce2 Ga14 3.091578 1_655
Ce2 Ga2 3.125735 1_665
Ce2 Ga6 3.144565 1_565
Ce2 Ga7 3.144565 1_565
Ce2 Ga19 3.154835 1_555
Ce2 Ga12 3.154835 1_556
Ce2 Ga0 3.486765 1_655
Ce2 Ga1 3.486765 1_656
Ce3 Ga8 3.038914 1_555
Ce3 Ga9 3.038914 1_555
Ce3 Ga23 3.071805 1_555
Ce3 Ga16 3.091578 1_655
Ce3 Ga15 3.091578 1_655
Ce3 Ga2 3.125735 1_655
Ce3 Ga6 3.144565 1_555
Ce3 Ga7 3.144565 1_555
Ce3 Ga13 3.154835 1_555
Ce3 Ga18 3.154835 1_556
Ce3 Ga0 3.486765 1_655
Ce3 Ga1 3.486765 1_656
Ce4 Ga10 3.005417 1_555
Ce4 Ga11 3.005417 1_555
Ce4 Ga13 3.054403 1_555
Ce4 Ga18 3.054403 1_555
Ce4 Ga19 3.054403 1_555
Ce4 Ga12 3.054403 1_555
Ce4 Ga20 3.172263 1_555
Ce4 Ga21 3.172263 1_555
Ce4 Ga9 3.246244 1_554
Ce4 Ga8 3.246244 1_555
Ce4 Ga0 3.452907 1_655
Ce4 Ga1 3.452907 1_655
Ce4 Os2 3.474275 1_555
Ce4 Os1 3.474275 1_555
Ce4 Os0 3.474275 1_555
Ce4 Os3 3.474275 1_555
Ce5 Ga8 3.005417 1_555
Ce5 Ga9 3.005417 1_555
Ce5 Ga16 3.054403 1_555
Ce5 Ga15 3.054403 1_555
Ce5 Ga14 3.054403 1_555
Ce5 Ga17 3.054403 1_555
Ce5 Ga22 3.172263 1_555
Ce5 Ga23 3.172263 1_555
Ce5 Ga10 3.246244 1_555
Ce5 Ga11 3.246244 1_556
Ce5 Ga0 3.452907 1_555
Ce5 Ga1 3.452907 1_556
Ce5 Os2 3.474275 1_556
Ce5 Os1 3.474275 1_555
Ce5 Os3 3.474275 1_555
Ce5 Os0 3.474275 1_556
Ga0 Ga10 2.741522 1_555
Ga0 Ga8 2.741522 1_455
Ga0 Ga13 2.784729 1_455
Ga0 Ga15 2.784729 1_555
Ga0 Ga17 2.784729 1_555
Ga0 Ga19 2.784729 1_455
Ga1 Ga11 2.741522 1_555
Ga1 Ga9 2.741522 1_454
Ga1 Ga16 2.784729 1_554
Ga1 Ga18 2.784729 1_455
Ga1 Ga12 2.784729 1_455
Ga1 Ga14 2.784729 1_554
Ga2 Os4 2.612905 1_556
Ga2 Os5 2.612905 1_555
Ga2 Ga23 2.797669 1_555
Ga2 Ga22 2.797669 1_545
Ga3 Os4 2.612905 1_655
Ga3 Os5 2.612905 1_655
Ga4 Os0 2.650607 1_545
Ga4 Os2 2.650607 1_555
Ga4 Os4 2.666038 1_555
Ga4 Ga6 2.730623 1_554
Ga5 Os3 2.650607 1_545
Ga5 Os1 2.650607 1_555
Ga5 Os5 2.666038 1_555
Ga5 Ga7 2.730623 1_555
Ga6 Os0 2.650607 1_546
Ga6 Os2 2.650607 1_556
Ga6 Os4 2.666038 1_656
Ga7 Os3 2.650607 1_545
Ga7 Os1 2.650607 1_555
Ga7 Os5 2.666038 1_655
Ga8 Os1 2.570149 1_555
Ga8 Os3 2.570149 1_555
Ga9 Os2 2.570149 1_556
Ga9 Os0 2.570149 1_556
Ga10 Os1 2.570149 1_555
Ga10 Os3 2.570149 1_555
Ga11 Os2 2.570149 1_555
Ga11 Os0 2.570149 1_555
Ga12 Os0 2.568392 1_555
Ga12 Os4 2.592483 1_665
Ga12 Ga3 2.685129 1_565
Ga12 Ga6 2.757063 1_564
Ga12 Ga20 2.761718 1_555
Ga13 Os1 2.568392 1_555
Ga13 Os5 2.592483 1_655
Ga13 Ga3 2.685129 1_555
Ga13 Ga7 2.757063 1_555
Ga13 Ga21 2.761718 1_555
Ga14 Os0 2.568392 1_556
Ga14 Os4 2.592483 1_566
Ga14 Ga2 2.685129 1_565
Ga14 Ga4 2.757063 1_566
Ga14 Ga22 2.761718 1_555
Ga15 Os1 2.568392 1_555
Ga15 Os5 2.592483 1_555
Ga15 Ga2 2.685129 1_555
Ga15 Ga5 2.757063 1_555
Ga15 Ga23 2.761718 1_555
Ga16 Os2 2.568392 1_556
Ga16 Os4 2.592483 1_556
Ga16 Ga2 2.685129 1_555
Ga16 Ga4 2.757063 1_556
Ga16 Ga23 2.761718 1_555
Ga17 Os3 2.568392 1_555
Ga17 Os5 2.592483 1_565
Ga17 Ga2 2.685129 1_565
Ga17 Ga5 2.757063 1_565
Ga17 Ga22 2.761718 1_555
Ga18 Os2 2.568392 1_555
Ga18 Os4 2.592483 1_655
Ga18 Ga3 2.685129 1_555
Ga18 Ga6 2.757063 1_554
Ga18 Ga21 2.761718 1_555
Ga19 Os3 2.568392 1_555
Ga19 Os5 2.592483 1_665
Ga19 Ga3 2.685129 1_565
Ga19 Ga7 2.757063 1_565
Ga19 Ga20 2.761718 1_555
Ga20 Os3 2.601327 1_555
Ga20 Os0 2.601327 1_555
Ga20 Ga21 2.726805 1_565
Ga20 Ga4 2.768062 1_565
Ga20 Ga5 2.768062 1_565
Ga20 Ga3 2.797669 1_565
Ga21 Os2 2.601327 1_555
Ga21 Os1 2.601327 1_555
Ga21 Ga4 2.768062 1_555
Ga21 Ga5 2.768062 1_555
Ga21 Ga3 2.797669 1_555
Ga22 Os3 2.601327 1_555
Ga22 Os0 2.601327 1_556
Ga22 Ga23 2.726805 1_565
Ga22 Ga7 2.768062 1_565
Ga22 Ga6 2.768062 1_565
Ga23 Os1 2.601327 1_555
Ga23 Os2 2.601327 1_556
Ga23 Ga7 2.768062 1_555
Ga23 Ga6 2.768062 1_555
