# generated using pymatgen
data_V(NiP4)4
_symmetry_space_group_name_H-M   'P 1'
_cell_length_a   10.18163926
_cell_length_b   10.18163926
_cell_length_c   11.09703145
_cell_angle_alpha   79.54599082
_cell_angle_beta   79.54599082
_cell_angle_gamma   32.30817443
_symmetry_Int_Tables_number   1
_chemical_formula_structural   V(NiP4)4
_chemical_formula_sum   'V2 Ni8 P32'
_cell_volume   603.77817299
_cell_formula_units_Z   2
loop_
 _symmetry_equiv_pos_site_id
 _symmetry_equiv_pos_as_xyz
  1  'x, y, z'
loop_
 _atom_site_type_symbol
 _atom_site_label
 _atom_site_symmetry_multiplicity
 _atom_site_fract_x
 _atom_site_fract_y
 _atom_site_fract_z
 _atom_site_occupancy
  V  V0  1  0.60708700  0.39291300  0.25000000  1
  V  V1  1  0.39291300  0.60708700  0.75000000  1
  Ni  Ni0  1  0.80566900  0.69324100  0.37098600  1
  Ni  Ni1  1  0.30675900  0.19433100  0.12901400  1
  Ni  Ni2  1  0.98785300  0.79983400  0.07379800  1
  Ni  Ni3  1  0.20016600  0.01214700  0.42620200  1
  Ni  Ni4  1  0.01214700  0.20016600  0.92620200  1
  Ni  Ni5  1  0.79983400  0.98785300  0.57379800  1
  Ni  Ni6  1  0.69324100  0.80566900  0.87098600  1
  Ni  Ni7  1  0.19433100  0.30675900  0.62901400  1
  P  P0  1  0.72812800  0.26346400  0.60870500  1
  P  P1  1  0.73653600  0.27187200  0.89129500  1
  P  P2  1  0.27187200  0.73653600  0.39129500  1
  P  P3  1  0.26346400  0.72812800  0.10870500  1
  P  P4  1  0.61879800  0.61832800  0.66346800  1
  P  P5  1  0.38167200  0.38120200  0.83653200  1
  P  P6  1  0.38120200  0.38167200  0.33653200  1
  P  P7  1  0.61832800  0.61879800  0.16346800  1
  P  P8  1  0.01151200  0.26928600  0.71966800  1
  P  P9  1  0.73071400  0.98848800  0.78033200  1
  P  P10  1  0.88563300  0.99448900  0.36603600  1
  P  P11  1  0.00551100  0.11436700  0.13396400  1
  P  P12  1  0.11436700  0.00551100  0.63396400  1
  P  P13  1  0.99448900  0.88563300  0.86603600  1
  P  P14  1  0.65751000  0.22136000  0.08223300  1
  P  P15  1  0.77864000  0.34249000  0.41776700  1
  P  P16  1  0.34249000  0.77864000  0.91776700  1
  P  P17  1  0.22136000  0.65751000  0.58223300  1
  P  P18  1  0.32189500  0.39629900  0.04155900  1
  P  P19  1  0.60370100  0.67810500  0.45844100  1
  P  P20  1  0.67810500  0.60370100  0.95844100  1
  P  P21  1  0.39629900  0.32189500  0.54155900  1
  P  P22  1  0.72198000  0.85294100  0.05382600  1
  P  P23  1  0.14705900  0.27802000  0.44617400  1
  P  P24  1  0.27802000  0.14705900  0.94617400  1
  P  P25  1  0.85294100  0.72198000  0.55382600  1
  P  P26  1  0.44393100  0.11442700  0.31221400  1
  P  P27  1  0.88557300  0.55606900  0.18778600  1
  P  P28  1  0.55606900  0.88557300  0.68778600  1
  P  P29  1  0.11442700  0.44393100  0.81221400  1
  P  P30  1  0.26928600  0.01151200  0.21966800  1
  P  P31  1  0.98848800  0.73071400  0.28033200  1
loop_
_geom_bond_atom_site_label_1
_geom_bond_atom_site_label_2
_geom_bond_distance
_geom_bond_site_symmetry_2
Ni0 P19 2.225182 1_555
Ni0 P31 2.236974 1_555
Ni0 P25 2.289529 1_555
Ni0 P27 2.292370 1_555
Ni0 P26 2.353480 1_565
Ni0 P23 2.362962 1_655
Ni1 P18 2.225182 1_555
Ni1 P30 2.236974 1_555
Ni1 P24 2.289529 1_554
Ni1 P26 2.292370 1_555
Ni1 P27 2.353480 1_455
Ni1 P22 2.362962 1_545
Ni2 P18 2.246598 1_655
Ni2 P31 2.271683 1_555
Ni2 P22 2.317207 1_555
Ni2 P14 2.317711 1_565
Ni2 P3 2.320857 1_655
Ni2 P13 2.322837 1_554
Ni3 P19 2.246598 1_545
Ni3 P30 2.271683 1_555
Ni3 P23 2.317207 1_555
Ni3 P15 2.317711 1_455
Ni3 P2 2.320857 1_545
Ni3 P12 2.322837 1_555
Ni4 P20 2.246598 1_455
Ni4 P8 2.271683 1_555
Ni4 P24 2.317207 1_555
Ni4 P16 2.317711 1_545
Ni4 P1 2.320857 1_455
Ni4 P11 2.322837 1_556
Ni5 P21 2.246598 1_565
Ni5 P9 2.271683 1_555
Ni5 P25 2.317207 1_555
Ni5 P17 2.317711 1_655
Ni5 P0 2.320857 1_565
Ni5 P10 2.322837 1_555
Ni6 P20 2.225182 1_555
Ni6 P9 2.236974 1_555
Ni6 P22 2.289529 1_556
Ni6 P28 2.292370 1_555
Ni6 P29 2.353480 1_655
Ni6 P24 2.362962 1_565
Ni7 P21 2.225182 1_555
Ni7 P8 2.236974 1_555
Ni7 P23 2.289529 1_555
Ni7 P29 2.292370 1_555
Ni7 P28 2.353480 1_545
Ni7 P25 2.362962 1_455
P0 P15 2.255387 1_555
P0 P12 2.261736 1_655
P0 V1 2.492349 1_555
P1 P14 2.255387 1_556
P1 P13 2.261736 1_545
P1 V1 2.492349 1_555
P2 V0 2.492349 1_555
P3 V0 2.492349 1_555
P4 P8 2.255454 1_655
P4 V1 2.414178 1_555
P5 P9 2.255454 1_545
P5 V1 2.414178 1_555
P6 V0 2.414178 1_555
P7 V0 2.414178 1_555
P10 P31 2.241713 1_555
P10 P2 2.261736 1_655
P10 V0 2.477837 1_565
P11 P30 2.241713 1_555
P11 P3 2.261736 1_545
P11 V0 2.477837 1_455
P12 P8 2.241713 1_555
P12 V1 2.477837 1_545
P13 P9 2.241713 1_555
P13 V1 2.477837 1_655
P14 P18 2.243332 1_555
P14 V0 2.469392 1_555
P15 P19 2.243332 1_555
P15 V0 2.469392 1_555
P16 P20 2.243332 1_555
P16 P3 2.255387 1_556
P16 V1 2.469392 1_555
P17 P21 2.243332 1_555
P17 P2 2.255387 1_555
P17 V1 2.469392 1_555
P18 P5 2.244284 1_554
P19 P4 2.244284 1_555
P20 P7 2.244284 1_556
P21 P6 2.244284 1_555
P22 P27 2.208648 1_555
P23 P26 2.208648 1_555
P24 P29 2.208648 1_555
P25 P28 2.208648 1_555
P26 P6 2.269546 1_555
P27 P7 2.269546 1_555
P28 P4 2.269546 1_555
P29 P5 2.269546 1_555
P30 P7 2.255454 1_545
P31 P6 2.255454 1_655
