# generated using pymatgen
data_YZr3(MoN2)4
_symmetry_space_group_name_H-M   'P 1'
_cell_length_a   3.08706408
_cell_length_b   5.57507631
_cell_length_c   10.47522693
_cell_angle_alpha   90.25309506
_cell_angle_beta   90.00000000
_cell_angle_gamma   90.00000000
_symmetry_Int_Tables_number   1
_chemical_formula_structural   YZr3(MoN2)4
_chemical_formula_sum   'Y1 Zr3 Mo4 N8'
_cell_volume   180.28336875
_cell_formula_units_Z   1
loop_
 _symmetry_equiv_pos_site_id
 _symmetry_equiv_pos_as_xyz
  1  'x, y, z'
loop_
 _atom_site_type_symbol
 _atom_site_label
 _atom_site_symmetry_multiplicity
 _atom_site_fract_x
 _atom_site_fract_y
 _atom_site_fract_z
 _atom_site_occupancy
  Y  Y0  1  0.75000000  0.41586368  0.35115281  1
  Zr  Zr0  1  0.25000000  0.08784572  0.84744461  1
  Zr  Zr1  1  0.25000000  0.58416341  0.65281921  1
  Zr  Zr2  1  0.75000000  0.91289558  0.15132379  1
  Mo  Mo0  1  0.25000000  0.42962540  0.08961085  1
  Mo  Mo1  1  0.25000000  0.92805299  0.40658689  1
  Mo  Mo2  1  0.75000000  0.57133859  0.90999648  1
  Mo  Mo3  1  0.75000000  0.06730533  0.59338828  1
  N  N0  1  0.25000000  0.15127021  0.23912336  1
  N  N1  1  0.25000000  0.67281409  0.24693457  1
  N  N2  1  0.75000000  0.83844164  0.75683701  1
  N  N3  1  0.75000000  0.33936486  0.74788637  1
  N  N4  1  0.25000000  0.77748430  0.99617216  1
  N  N5  1  0.25000000  0.26998155  0.50834080  1
  N  N6  1  0.75000000  0.22342849  0.99906320  1
  N  N7  1  0.75000000  0.73012417  0.50331861  1
loop_
_geom_bond_atom_site_label_1
_geom_bond_atom_site_label_2
_geom_bond_distance
_geom_bond_site_symmetry_2
Mo0 N1 2.129402 1_555
Mo0 N6 2.143367 1_554
Mo0 N6 2.143367 1_454
Mo0 N4 2.176199 1_554
Mo0 N0 2.209667 1_555
Mo1 N7 2.153314 1_455
Mo1 N7 2.153314 1_555
Mo1 N0 2.155280 1_565
Mo1 N5 2.179926 1_565
Mo1 N1 2.191059 1_555
Mo2 N4 2.123453 1_555
Mo2 N4 2.123453 1_655
Mo2 N3 2.129983 1_555
Mo2 N6 2.156064 1_555
Mo2 N2 2.193769 1_555
Mo3 N7 2.099574 1_545
Mo3 N5 2.112304 1_555
Mo3 N5 2.112304 1_655
Mo3 N2 2.139814 1_545
Mo3 N3 2.213160 1_555
N0 Zr2 2.232421 1_545
N0 Zr2 2.232421 1_445
N0 Y0 2.433184 1_455
N0 Y0 2.433184 1_555
N1 Zr2 2.277923 1_455
N1 Zr2 2.277923 1_555
N1 Y0 2.374920 1_455
N1 Y0 2.374920 1_555
N2 Zr0 2.281454 1_665
N2 Zr0 2.281454 1_565
N2 Zr1 2.359183 1_555
N2 Zr1 2.359183 1_655
N3 Zr1 2.291029 1_555
N3 Zr1 2.291029 1_655
N3 Zr0 2.334377 1_555
N3 Zr0 2.334377 1_655
N4 Zr0 2.333439 1_565
N4 Zr2 2.362837 1_556
N4 Zr2 2.362837 1_456
N5 Zr1 2.309795 1_555
N5 Y0 2.401460 1_455
N5 Y0 2.401460 1_555
N6 Zr0 2.337894 1_555
N6 Zr0 2.337894 1_655
N6 Zr2 2.359134 1_546
N7 Zr1 2.347008 1_555
N7 Zr1 2.347008 1_655
N7 Y0 2.363402 1_555
