# generated using pymatgen
data_Cd3GeP6N13
_symmetry_space_group_name_H-M   'P 1'
_cell_length_a   7.13112248
_cell_length_b   7.13683203
_cell_length_c   7.13683303
_cell_angle_alpha   109.48742489
_cell_angle_beta   109.45501603
_cell_angle_gamma   109.45501766
_symmetry_Int_Tables_number   1
_chemical_formula_structural   Cd3GeP6N13
_chemical_formula_sum   'Cd3 Ge1 P6 N13'
_cell_volume   279.66221819
_cell_formula_units_Z   1
loop_
 _symmetry_equiv_pos_site_id
 _symmetry_equiv_pos_as_xyz
  1  'x, y, z'
loop_
 _atom_site_type_symbol
 _atom_site_label
 _atom_site_symmetry_multiplicity
 _atom_site_fract_x
 _atom_site_fract_y
 _atom_site_fract_z
 _atom_site_occupancy
  Cd  Cd0  1  0.00465117  1.00000000  0.73082055  1
  Cd  Cd1  1  0.00465117  0.73082055  1.00000000  1
  Cd  Cd2  1  0.27383162  0.26917945  0.26917945  1
  Ge  Ge0  1  0.65721373  0.00000000  0.00000000  1
  P  P0  1  0.25588466  0.74510922  0.49872565  1
  P  P1  1  0.75715901  0.24638457  0.50127435  1
  P  P2  1  0.75715901  0.50127435  0.24638457  1
  P  P3  1  0.25588466  0.49872565  0.74510922  1
  P  P4  1  0.51077545  0.75361543  0.25489078  1
  P  P5  1  0.51077545  0.25489078  0.75361543  1
  N  N0  1  0.90987791  0.00000000  0.00000000  1
  N  N1  1  0.71227946  0.26230539  0.26230539  1
  N  N2  1  0.28793956  0.72585827  0.28125185  1
  N  N3  1  0.30019685  0.56204956  0.56204956  1
  N  N4  1  0.56208129  0.55539359  0.27414173  1
  N  N5  1  0.44997407  0.73769461  1.00000000  1
  N  N6  1  0.00668870  0.71874815  0.44460641  1
  N  N7  1  0.56208129  0.27414173  0.55539359  1
  N  N8  1  0.73814629  1.00000000  0.43795044  1
  N  N9  1  0.44997407  1.00000000  0.73769461  1
  N  N10  1  0.73814629  0.43795044  1.00000000  1
  N  N11  1  0.28793956  0.28125185  0.72585827  1
  N  N12  1  0.00668870  0.44460641  0.71874815  1
loop_
_geom_bond_atom_site_label_1
_geom_bond_atom_site_label_2
_geom_bond_distance
_geom_bond_site_symmetry_2
Cd0 N0 2.238798 1_466
Cd0 N8 2.309658 1_455
Cd0 N11 2.346337 1_565
Cd0 N6 2.346341 1_555
Cd1 N0 2.238797 1_466
Cd1 N10 2.309658 1_455
Cd1 N2 2.346337 1_556
Cd1 N12 2.346341 1_555
Cd2 N0 2.238801 1_455
Cd2 N3 2.309658 1_555
Cd2 N4 2.346332 1_555
Cd2 N7 2.346333 1_555
Ge0 N0 1.801779 1_555
Ge0 N5 1.961027 1_544
Ge0 N1 1.961027 1_555
Ge0 N9 1.961027 1_544
N1 P2 1.677477 1_555
N1 P1 1.677477 1_555
N2 P0 1.610914 1_555
N2 P4 1.616818 1_555
N3 P0 1.607720 1_555
N3 P3 1.607720 1_555
N4 P4 1.610906 1_555
N4 P2 1.616814 1_555
N5 P3 1.677480 1_555
N5 P4 1.677483 1_556
N6 P2 1.610915 1_455
N6 P0 1.616810 1_555
N7 P5 1.610907 1_555
N7 P1 1.616814 1_555
N8 P4 1.607720 1_555
N8 P1 1.607724 1_565
N9 P0 1.677480 1_555
N9 P5 1.677483 1_565
N10 P5 1.607720 1_555
N10 P2 1.607724 1_556
N11 P3 1.610913 1_555
N11 P5 1.616818 1_555
N12 P1 1.610916 1_455
N12 P3 1.616810 1_555
