# generated using pymatgen
data_Cs4Ba2SnAs4
_symmetry_space_group_name_H-M   'P 1'
_cell_length_a   11.16320684
_cell_length_b   11.16320736
_cell_length_c   8.15220059
_cell_angle_alpha   87.58009349
_cell_angle_beta   87.58009742
_cell_angle_gamma   119.10151904
_symmetry_Int_Tables_number   1
_chemical_formula_structural   Cs4Ba2SnAs4
_chemical_formula_sum   'Cs8 Ba4 Sn2 As8'
_cell_volume   884.56964028
_cell_formula_units_Z   2
loop_
 _symmetry_equiv_pos_site_id
 _symmetry_equiv_pos_as_xyz
  1  'x, y, z'
loop_
 _atom_site_type_symbol
 _atom_site_label
 _atom_site_symmetry_multiplicity
 _atom_site_fract_x
 _atom_site_fract_y
 _atom_site_fract_z
 _atom_site_occupancy
  Cs  Cs0  1  0.48034157  0.95125843  0.38712052  1
  Cs  Cs1  1  0.95125843  0.48034157  0.88712052  1
  Cs  Cs2  1  0.86527840  0.72022954  0.15415805  1
  Cs  Cs3  1  0.25830133  0.12175111  0.23983054  1
  Cs  Cs4  1  0.85006445  0.14692622  0.18377652  1
  Cs  Cs5  1  0.12175111  0.25830133  0.73983054  1
  Cs  Cs6  1  0.72022954  0.86527840  0.65415805  1
  Cs  Cs7  1  0.14692622  0.85006445  0.68377652  1
  Ba  Ba0  1  0.07088772  0.53191225  0.39373520  1
  Ba  Ba1  1  0.47947933  0.52524972  0.37562904  1
  Ba  Ba2  1  0.53191225  0.07088772  0.89373520  1
  Ba  Ba3  1  0.52524972  0.47947933  0.87562904  1
  Sn  Sn0  1  0.66552731  0.33725573  0.49686376  1
  Sn  Sn1  1  0.33725573  0.66552731  0.99686376  1
  As  As0  1  0.63625992  0.33226047  0.16851304  1
  As  As1  1  0.33226047  0.63625992  0.66851304  1
  As  As2  1  0.21466199  0.40860172  0.13958771  1
  As  As3  1  0.59711296  0.79074709  0.07566677  1
  As  As4  1  0.21419537  0.80181136  0.09915086  1
  As  As5  1  0.79074709  0.59711296  0.57566677  1
  As  As6  1  0.40860172  0.21466199  0.63958771  1
  As  As7  1  0.80181136  0.21419537  0.59915086  1
loop_
_geom_bond_atom_site_label_1
_geom_bond_atom_site_label_2
_geom_bond_distance
_geom_bond_site_symmetry_2
Ba1 Sn0 3.732604 1_555
Ba3 Sn1 3.732604 1_555
As0 Sn0 2.709935 1_555
As0 Ba3 3.440489 1_554
As0 Ba2 3.514859 1_554
As0 Cs3 3.700703 1_555
As0 Cs1 3.701932 1_554
As0 Ba1 3.778972 1_555
As0 Cs2 3.803776 1_555
As0 Cs4 3.846959 1_555
As0 Cs0 4.023966 1_545
As1 Sn1 2.709935 1_555
As1 Ba1 3.440489 1_555
As1 Ba0 3.514859 1_555
As1 Cs5 3.700703 1_555
As1 Cs0 3.701932 1_555
As1 Ba3 3.778971 1_555
As1 Cs6 3.803775 1_555
As1 Cs7 3.846959 1_555
As1 Cs1 4.023966 1_455
As2 Sn1 2.686715 1_554
As2 Ba0 3.297351 1_555
As2 Ba1 3.329428 1_555
As2 Cs3 3.533989 1_555
As2 Cs4 3.667532 1_455
As2 Cs5 3.683170 1_554
As2 Ba3 3.719594 1_554
As2 Cs1 4.023178 1_454
As3 Sn1 2.659032 1_554
As3 Ba1 3.437922 1_555
As3 Cs2 3.521672 1_555
As3 Cs6 3.554751 1_554
As3 Ba3 3.640641 1_554
As3 Cs0 3.705836 1_555
As3 Cs4 3.760927 1_565
As3 Ba2 3.797742 1_564
As4 Sn1 2.634468 1_554
As4 Ba0 3.432255 1_555
As4 Cs2 3.545321 1_455
As4 Cs7 3.574169 1_554
As4 Cs3 3.605098 1_565
As4 Ba2 3.621735 1_564
As4 Cs0 3.635912 1_555
As4 Cs1 3.897150 1_454
As5 Sn0 2.659032 1_555
As5 Ba3 3.437922 1_555
As5 Cs6 3.521672 1_555
As5 Cs2 3.554751 1_555
As5 Ba1 3.640641 1_555
As5 Cs1 3.705836 1_555
As5 Cs7 3.760927 1_655
As5 Ba0 3.797742 1_655
As6 Sn0 2.686715 1_555
As6 Ba2 3.297350 1_555
As6 Ba3 3.329428 1_555
As6 Cs5 3.533989 1_555
As6 Cs7 3.667532 1_545
As6 Cs3 3.683170 1_555
As6 Ba1 3.719594 1_555
As6 Cs0 4.023178 1_545
As7 Sn0 2.634468 1_555
As7 Ba2 3.432255 1_555
As7 Cs6 3.545321 1_545
As7 Cs4 3.574169 1_555
As7 Cs5 3.605097 1_655
As7 Ba0 3.621735 1_655
As7 Cs1 3.635912 1_555
As7 Cs0 3.897150 1_545
