# generated using pymatgen
data_ZnCr8Ag3Se16
_symmetry_space_group_name_H-M   'P 1'
_cell_length_a   13.04099094
_cell_length_b   13.04099109
_cell_length_c   13.04099121
_cell_angle_alpha   33.50559015
_cell_angle_beta   33.50558664
_cell_angle_gamma   33.50558797
_symmetry_Int_Tables_number   1
_chemical_formula_structural   ZnCr8Ag3Se16
_chemical_formula_sum   'Zn1 Cr8 Ag3 Se16'
_cell_volume   601.92833115
_cell_formula_units_Z   1
loop_
 _symmetry_equiv_pos_site_id
 _symmetry_equiv_pos_as_xyz
  1  'x, y, z'
loop_
 _atom_site_type_symbol
 _atom_site_label
 _atom_site_symmetry_multiplicity
 _atom_site_fract_x
 _atom_site_fract_y
 _atom_site_fract_z
 _atom_site_occupancy
  Zn  Zn0  1  0.56240375  0.56240375  0.56240375  1
  Cr  Cr0  1  0.25042269  0.25042269  0.25042269  1
  Cr  Cr1  1  0.75013749  0.75013749  0.75013749  1
  Cr  Cr2  1  0.99920279  0.50283091  0.99920279  1
  Cr  Cr3  1  0.49937324  0.99946569  0.49937324  1
  Cr  Cr4  1  0.49937324  0.49937324  0.99946569  1
  Cr  Cr5  1  0.99920279  0.99920279  0.50283091  1
  Cr  Cr6  1  0.50283091  0.99920279  0.99920279  1
  Cr  Cr7  1  0.99946569  0.49937324  0.49937324  1
  Ag  Ag0  1  0.06307409  0.06307409  0.06307409  1
  Ag  Ag1  1  0.93781144  0.93781144  0.93781144  1
  Ag  Ag2  1  0.43686824  0.43686824  0.43686824  1
  Se  Se0  1  0.62911184  0.62911184  0.62911184  1
  Se  Se1  1  0.13255343  0.13255343  0.13255343  1
  Se  Se2  1  0.36150193  0.89832269  0.36150193  1
  Se  Se3  1  0.85451629  0.40813441  0.85451629  1
  Se  Se4  1  0.36150193  0.36150193  0.89832269  1
  Se  Se5  1  0.85451629  0.85451629  0.40813441  1
  Se  Se6  1  0.89832269  0.36150193  0.36150193  1
  Se  Se7  1  0.40813441  0.85451629  0.85451629  1
  Se  Se8  1  0.86884553  0.86884553  0.86884553  1
  Se  Se9  1  0.36779796  0.36779796  0.36779796  1
  Se  Se10  1  0.14448512  0.59209933  0.14448512  1
  Se  Se11  1  0.64493787  0.09208901  0.64493787  1
  Se  Se12  1  0.14448512  0.14448512  0.59209933  1
  Se  Se13  1  0.64493787  0.64493787  0.09208901  1
  Se  Se14  1  0.59209933  0.14448512  0.14448512  1
  Se  Se15  1  0.09208901  0.64493787  0.64493787  1
loop_
_geom_bond_atom_site_label_1
_geom_bond_atom_site_label_2
_geom_bond_distance
_geom_bond_site_symmetry_2
Cr0 Se14 2.514492 1_555
Cr0 Se12 2.514492 1_555
Cr0 Se10 2.514492 1_555
Cr0 Se6 2.568123 1_455
Cr0 Se4 2.568123 1_554
Cr0 Se2 2.568123 1_545
Cr1 Se15 2.526670 1_655
Cr1 Se11 2.526670 1_565
Cr1 Se13 2.526670 1_556
Cr1 Se7 2.537502 1_555
Cr1 Se3 2.537502 1_555
Cr1 Se5 2.537502 1_555
Cr2 Se8 2.513700 1_555
Cr2 Se13 2.525576 1_556
Cr2 Se15 2.525576 1_655
Cr2 Se1 2.530007 1_656
Cr2 Se4 2.570320 1_655
Cr2 Se6 2.570320 1_556
Cr3 Se12 2.518419 1_565
Cr3 Se14 2.518419 1_565
Cr3 Se9 2.526120 1_565
Cr3 Se5 2.529806 1_555
Cr3 Se7 2.529806 1_555
Cr3 Se0 2.563365 1_555
Cr4 Se10 2.518419 1_556
Cr4 Se14 2.518419 1_556
Cr4 Se9 2.526120 1_556
Cr4 Se3 2.529806 1_555
Cr4 Se7 2.529806 1_555
Cr4 Se0 2.563365 1_555
Cr5 Se8 2.513700 1_555
Cr5 Se11 2.525576 1_565
Cr5 Se15 2.525576 1_655
Cr5 Se1 2.530007 1_665
Cr5 Se2 2.570320 1_655
Cr5 Se6 2.570320 1_565
Cr6 Se8 2.513699 1_555
Cr6 Se11 2.525576 1_565
Cr6 Se13 2.525576 1_556
Cr6 Se1 2.530007 1_566
Cr6 Se2 2.570320 1_556
Cr6 Se4 2.570320 1_565
Cr7 Se10 2.518419 1_655
Cr7 Se12 2.518419 1_655
Cr7 Se9 2.526120 1_655
Cr7 Se3 2.529806 1_555
Cr7 Se5 2.529806 1_555
Cr7 Se0 2.563365 1_555
Ag0 Se7 2.561142 1_544
Ag0 Se5 2.561142 1_445
Ag0 Se3 2.561142 1_454
Ag0 Se1 2.563259 1_555
Ag1 Se14 2.537794 1_566
Ag1 Se12 2.537794 1_665
Ag1 Se10 2.537794 1_656
Ag1 Se8 2.544317 1_555
Ag2 Se9 2.548168 1_555
Ag2 Se15 2.555061 1_555
Ag2 Se13 2.555061 1_555
Ag2 Se11 2.555061 1_555
Se0 Zn0 2.461021 1_555
Se2 Zn0 2.466911 1_555
Se4 Zn0 2.466911 1_555
Se6 Zn0 2.466911 1_555
