# generated using pymatgen
data_Ba8Zn(CoO4)3
_symmetry_space_group_name_H-M   'P 1'
_cell_length_a   6.43189978
_cell_length_b   6.45792361
_cell_length_c   12.66646527
_cell_angle_alpha   88.41443736
_cell_angle_beta   88.50187778
_cell_angle_gamma   126.71599877
_symmetry_Int_Tables_number   1
_chemical_formula_structural   Ba8Zn(CoO4)3
_chemical_formula_sum   'Ba8 Zn1 Co3 O12'
_cell_volume   420.98500703
_cell_formula_units_Z   1
loop_
 _symmetry_equiv_pos_site_id
 _symmetry_equiv_pos_as_xyz
  1  'x, y, z'
loop_
 _atom_site_type_symbol
 _atom_site_label
 _atom_site_symmetry_multiplicity
 _atom_site_fract_x
 _atom_site_fract_y
 _atom_site_fract_z
 _atom_site_occupancy
  Ba  Ba0  1  0.43555929  0.02503539  0.15177503  1
  Ba  Ba1  1  0.02879854  0.43740294  0.65104756  1
  Ba  Ba2  1  0.56415634  0.97332443  0.84796722  1
  Ba  Ba3  1  0.97133843  0.56287549  0.34803507  1
  Ba  Ba4  1  0.86319057  0.65580472  0.92481958  1
  Ba  Ba5  1  0.34382734  0.13724639  0.57420216  1
  Ba  Ba6  1  0.14003580  0.34550608  0.07358544  1
  Ba  Ba7  1  0.65718552  0.86335093  0.42641544  1
  Zn  Zn0  1  0.72911813  0.72490031  0.16500083  1
  Co  Co0  1  0.72505067  0.73124719  0.66560818  1
  Co  Co1  1  0.27468684  0.26761232  0.33599724  1
  Co  Co2  1  0.26847148  0.27484466  0.83438072  1
  O  O0  1  0.33437774  0.14005633  0.96189242  1
  O  O1  1  0.86028537  0.66596438  0.53823249  1
  O  O2  1  0.66694760  0.86127839  0.03619127  1
  O  O3  1  0.14162505  0.33600353  0.46302452  1
  O  O4  1  0.99335561  0.00518784  0.75045578  1
  O  O5  1  0.01044445  0.99841113  0.24903069  1
  O  O6  1  0.59314791  0.40762873  0.74981628  1
  O  O7  1  0.47702102  0.13695847  0.36714447  1
  O  O8  1  0.13560453  0.47489609  0.86615785  1
  O  O9  1  0.52553240  0.86503587  0.63385552  1
  O  O10  1  0.85640144  0.51692745  0.13382371  1
  O  O11  1  0.40383693  0.59250194  0.25154254  1
loop_
_geom_bond_atom_site_label_1
_geom_bond_atom_site_label_2
_geom_bond_distance
_geom_bond_site_symmetry_2
Ba0 O10 2.667586 1_555
Ba0 O0 2.705728 1_554
Ba0 O2 2.707463 1_545
Ba0 O7 2.819937 1_555
Ba0 O5 2.876370 1_545
Ba0 O11 2.924147 1_545
Ba0 O10 3.188315 1_445
Ba1 O3 2.681700 1_555
Ba1 O9 2.694821 1_555
Ba1 O1 2.696762 1_455
Ba1 O8 2.808908 1_555
Ba1 O4 2.908259 1_455
Ba1 O6 2.934760 1_455
Ba1 O9 3.156440 1_445
Ba2 O2 2.683979 1_556
Ba2 O0 2.702435 1_565
Ba2 O8 2.707158 1_555
Ba2 O9 2.799709 1_555
Ba2 O4 2.883929 1_565
Ba2 O6 2.935356 1_565
Ba2 O8 3.147157 1_665
Ba3 O7 2.683114 1_555
Ba3 O1 2.706414 1_555
Ba3 O3 2.711396 1_655
Ba3 O10 2.807794 1_555
Ba3 O11 2.905454 1_655
Ba3 O5 2.913643 1_655
Ba3 O7 3.170933 1_665
Ba4 O2 2.712398 1_556
Ba4 O8 2.722973 1_655
Ba4 O6 2.751093 1_555
Ba4 O10 2.762323 1_556
Ba4 O0 2.829902 1_665
Ba4 O4 2.835216 1_565
Ba4 O0 3.027698 1_555
Ba5 O3 2.704402 1_555
Ba5 O9 2.730621 1_545
Ba5 O7 2.738085 1_555
Ba5 O6 2.760773 1_555
Ba5 O1 2.824186 1_445
Ba5 O4 2.850556 1_455
Ba5 O1 3.028756 1_555
Ba6 O0 2.705322 1_554
Ba6 O8 2.740989 1_554
Ba6 O10 2.743087 1_455
Ba6 O11 2.768934 1_555
Ba6 O2 2.835837 1_445
Ba6 O5 2.837452 1_545
Ba6 O2 3.022530 1_555
Ba7 O1 2.706511 1_555
Ba7 O7 2.729252 1_565
Ba7 O9 2.741777 1_555
Ba7 O11 2.759746 1_555
Ba7 O3 2.832390 1_665
Ba7 O5 2.868205 1_655
Ba7 O3 3.022948 1_555
Co0 O4 1.953094 1_565
Co0 O9 1.971941 1_555
Co0 O6 1.983540 1_555
Co0 O1 1.984971 1_555
Co1 O5 1.948147 1_545
Co1 O7 1.970421 1_555
Co1 O3 1.983850 1_555
Co1 O11 1.995457 1_555
Co2 O4 1.951940 1_455
Co2 O8 1.972887 1_555
Co2 O6 1.983590 1_555
Co2 O0 1.986252 1_555
O2 Zn0 1.993302 1_555
O5 Zn0 1.977392 1_455
O10 Zn0 1.989267 1_555
O11 Zn0 1.999788 1_555
