# generated using pymatgen
data_VZn2(Ni10B3)2
_symmetry_space_group_name_H-M   'P 1'
_cell_length_a   7.34845866
_cell_length_b   7.34867084
_cell_length_c   7.34905490
_cell_angle_alpha   59.99827116
_cell_angle_beta   59.99731594
_cell_angle_gamma   59.99906770
_symmetry_Int_Tables_number   1
_chemical_formula_structural   VZn2(Ni10B3)2
_chemical_formula_sum   'V1 Zn2 Ni20 B6'
_cell_volume   280.61055317
_cell_formula_units_Z   1
loop_
 _symmetry_equiv_pos_site_id
 _symmetry_equiv_pos_as_xyz
  1  'x, y, z'
loop_
 _atom_site_type_symbol
 _atom_site_label
 _atom_site_symmetry_multiplicity
 _atom_site_fract_x
 _atom_site_fract_y
 _atom_site_fract_z
 _atom_site_occupancy
  V  V0  1  0.00000000  0.00000000  0.00000000  1
  Zn  Zn0  1  0.74985759  0.74980980  0.75016631  1
  Zn  Zn1  1  0.25014241  0.25019020  0.24983369  1
  Ni  Ni0  1  0.61703878  0.61702698  0.14895134  1
  Ni  Ni1  1  0.61707231  0.14882622  0.61705074  1
  Ni  Ni2  1  0.14884758  0.61705918  0.61704662  1
  Ni  Ni3  1  0.61703878  0.61702698  0.61698290  1
  Ni  Ni4  1  0.38296122  0.38297302  0.85104866  1
  Ni  Ni5  1  0.38292769  0.85117378  0.38294926  1
  Ni  Ni6  1  0.85115242  0.38294082  0.38295338  1
  Ni  Ni7  1  0.38296122  0.38297302  0.38301710  1
  Ni  Ni8  1  0.00000000  0.00000000  0.33685049  1
  Ni  Ni9  1  0.66305601  0.00004132  0.33684782  1
  Ni  Ni10  1  0.00002441  0.66312055  0.33685186  1
  Ni  Ni11  1  0.66291915  0.33703953  0.00002066  1
  Ni  Ni12  1  0.99997559  0.33687945  0.99999682  1
  Ni  Ni13  1  0.99997559  0.33687945  0.66314814  1
  Ni  Ni14  1  0.33708085  0.66296047  0.99997934  1
  Ni  Ni15  1  0.33694399  0.99995868  0.66315218  1
  Ni  Ni16  1  0.33694399  0.99995868  0.99994515  1
  Ni  Ni17  1  0.00000000  0.00000000  0.66314951  1
  Ni  Ni18  1  0.00002441  0.66312055  0.00000318  1
  Ni  Ni19  1  0.66305601  0.00004132  0.00005485  1
  B  B0  1  0.72619379  0.72621164  0.27379728  1
  B  B1  1  0.27380604  0.72617475  0.27382415  1
  B  B2  1  0.72619396  0.27382525  0.27380493  1
  B  B3  1  0.27380621  0.27378836  0.72620272  1
  B  B4  1  0.72619396  0.27382525  0.72617585  1
  B  B5  1  0.27380604  0.72617475  0.72619507  1
loop_
_geom_bond_atom_site_label_1
_geom_bond_atom_site_label_2
_geom_bond_distance
_geom_bond_site_symmetry_2
Ni0 Zn0 2.392827 1_554
Ni1 Zn0 2.394133 1_545
Ni2 Zn0 2.393882 1_455
Ni3 Zn0 2.392827 1_555
Ni4 Zn1 2.392827 1_556
Ni5 Zn1 2.394133 1_565
Ni6 Zn1 2.393882 1_655
Ni7 Zn1 2.392827 1_555
Ni8 V0 2.475533 1_555
Ni9 V0 2.475666 1_655
Ni10 V0 2.475515 1_565
Ni11 V0 2.476874 1_655
Ni12 V0 2.475515 1_656
Ni13 V0 2.475515 1_656
Ni14 V0 2.476874 1_566
Ni15 V0 2.475666 1_566
Ni16 V0 2.475666 1_566
Ni17 V0 2.475533 1_556
Ni18 V0 2.475515 1_565
Ni19 V0 2.475666 1_655
B0 Ni0 2.060294 1_555
B0 Ni3 2.060294 1_555
B0 Ni5 2.060640 1_555
B0 Ni6 2.060745 1_555
B0 Ni19 2.064718 1_565
B0 Ni9 2.064718 1_565
B0 Ni18 2.064818 1_655
B0 Ni10 2.064818 1_655
B1 Ni7 2.060314 1_555
B1 Ni0 2.060421 1_555
B1 Ni2 2.060525 1_555
B1 Ni5 2.060675 1_555
B1 Ni10 2.064593 1_555
B1 Ni8 2.064763 1_565
B1 Ni16 2.064990 1_554
B1 Ni14 2.065250 1_554
B2 Ni0 2.060314 1_555
B2 Ni7 2.060421 1_555
B2 Ni6 2.060525 1_555
B2 Ni1 2.060675 1_555
B2 Ni12 2.064593 1_554
B2 Ni8 2.064763 1_655
B2 Ni9 2.064990 1_555
B2 Ni11 2.065250 1_555
B3 Ni4 2.060294 1_555
B3 Ni7 2.060294 1_555
B3 Ni1 2.060640 1_555
B3 Ni2 2.060745 1_555
B3 Ni16 2.064718 1_545
B3 Ni15 2.064718 1_545
B3 Ni12 2.064818 1_455
B3 Ni13 2.064818 1_455
B4 Ni3 2.060314 1_555
B4 Ni4 2.060421 1_555
B4 Ni6 2.060525 1_555
B4 Ni1 2.060675 1_555
B4 Ni13 2.064593 1_555
B4 Ni17 2.064763 1_655
B4 Ni19 2.064990 1_556
B4 Ni11 2.065250 1_556
B5 Ni4 2.060314 1_555
B5 Ni3 2.060421 1_555
B5 Ni2 2.060525 1_555
B5 Ni5 2.060675 1_555
B5 Ni18 2.064593 1_556
B5 Ni17 2.064763 1_565
B5 Ni15 2.064990 1_555
B5 Ni14 2.065250 1_555
