# generated using pymatgen
data_K4Zr6GeI18
_symmetry_space_group_name_H-M   'P 1'
_cell_length_a   11.17626557
_cell_length_b   11.30767827
_cell_length_c   11.39177609
_cell_angle_alpha   118.53191595
_cell_angle_beta   100.01716336
_cell_angle_gamma   104.21333725
_symmetry_Int_Tables_number   1
_chemical_formula_structural   K4Zr6GeI18
_chemical_formula_sum   'K4 Zr6 Ge1 I18'
_cell_volume   1152.19111839
_cell_formula_units_Z   1
loop_
 _symmetry_equiv_pos_site_id
 _symmetry_equiv_pos_as_xyz
  1  'x, y, z'
loop_
 _atom_site_type_symbol
 _atom_site_label
 _atom_site_symmetry_multiplicity
 _atom_site_fract_x
 _atom_site_fract_y
 _atom_site_fract_z
 _atom_site_occupancy
  K  K0  1  0.64568490  0.53654945  0.22914985  1
  K  K1  1  0.35431510  0.46345055  0.77085015  1
  K  K2  1  0.68926582  0.22872905  0.57011595  1
  K  K3  1  0.31073418  0.77127095  0.42988405  1
  Zr  Zr0  1  0.15394171  0.05797212  0.23443620  1
  Zr  Zr1  1  0.84605829  0.94202788  0.76556380  1
  Zr  Zr2  1  0.86190508  0.13004876  0.13755826  1
  Zr  Zr3  1  0.13809492  0.86995124  0.86244174  1
  Zr  Zr4  1  0.14800472  0.24342886  0.04470440  1
  Zr  Zr5  1  0.85199528  0.75657114  0.95529560  1
  Ge  Ge0  1  0.00000000  0.00000000  0.00000000  1
  I  I0  1  0.01094450  0.41873941  0.20264912  1
  I  I1  1  0.98905550  0.58126059  0.79735088  1
  I  I2  1  0.33607773  0.34068523  0.31545991  1
  I  I3  1  0.66392227  0.65931477  0.68454009  1
  I  I4  1  0.32604868  0.53068610  0.09685724  1
  I  I5  1  0.67395132  0.46931390  0.90314276  1
  I  I6  1  0.00679042  0.79273319  0.21374197  1
  I  I7  1  0.99320958  0.20726681  0.78625803  1
  I  I8  1  0.70213941  0.28462082  0.29867175  1
  I  I9  1  0.29786059  0.71537918  0.70132825  1
  I  I10  1  0.32071461  0.12891332  0.89886346  1
  I  I11  1  0.67928539  0.87108668  0.10113654  1
  I  I12  1  0.01841532  0.21047940  0.41852752  1
  I  I13  1  0.98158468  0.78952060  0.58147248  1
  I  I14  1  0.32535468  0.92197103  0.10981889  1
  I  I15  1  0.67464532  0.07802897  0.89018111  1
  I  I16  1  0.33960797  0.12281323  0.50972398  1
  I  I17  1  0.66039203  0.87718677  0.49027602  1
loop_
_geom_bond_atom_site_label_1
_geom_bond_atom_site_label_2
_geom_bond_distance
_geom_bond_site_symmetry_2
Ge0 Zr0 2.587936 1_555
Ge0 Zr1 2.587936 1_444
Ge0 Zr4 2.589266 1_555
Ge0 Zr5 2.589266 1_444
Ge0 Zr3 2.598976 1_544
Ge0 Zr2 2.598976 1_455
I0 Zr4 2.925107 1_555
I0 Zr2 2.927216 1_455
I0 K3 3.792602 1_555
I1 Zr5 2.925107 1_555
I1 Zr3 2.927216 1_655
I1 K2 3.792602 1_555
I2 Zr4 2.917208 1_555
I2 Zr0 2.923579 1_555
I3 Zr5 2.917208 1_555
I3 Zr1 2.923579 1_555
I4 Zr4 3.071580 1_555
I4 K1 3.506983 1_554
I4 K3 3.523917 1_555
I4 K0 3.598962 1_555
I5 Zr5 3.071580 1_555
I5 K0 3.506983 1_556
I5 K2 3.523917 1_555
I5 K1 3.598962 1_555
I6 Zr0 2.919449 1_565
I6 Zr5 2.925558 1_454
I6 K3 3.965698 1_555
I7 Zr1 2.919449 1_545
I7 Zr4 2.925558 1_656
I7 K2 3.965698 1_555
I8 Zr2 3.036446 1_555
I8 K2 3.458193 1_555
I8 K0 3.464774 1_555
I9 Zr3 3.036446 1_555
I9 K3 3.458193 1_555
I9 K1 3.464774 1_555
I10 Zr4 2.907016 1_556
I10 Zr3 2.919317 1_545
I11 Zr5 2.907016 1_554
I11 Zr2 2.919317 1_565
I12 Zr0 2.932409 1_555
I12 Zr2 2.936283 1_455
I13 Zr1 2.932409 1_555
I13 Zr3 2.936283 1_655
I14 Zr0 2.890976 1_565
I14 Zr3 2.903054 1_554
I15 Zr1 2.890976 1_545
I15 Zr2 2.903054 1_556
I16 Zr0 3.077423 1_555
I16 K1 3.505073 1_555
I16 K3 3.542193 1_545
I16 K2 3.627449 1_555
I17 Zr1 3.077423 1_555
I17 K0 3.505073 1_555
I17 K2 3.542193 1_565
I17 K3 3.627449 1_555
