# generated using pymatgen
data_Nb12Al9Pt3C4
_symmetry_space_group_name_H-M   'P 1'
_cell_length_a   8.36564910
_cell_length_b   8.37345720
_cell_length_c   8.36564883
_cell_angle_alpha   60.03084251
_cell_angle_beta   60.00000105
_cell_angle_gamma   60.03084895
_symmetry_Int_Tables_number   1
_chemical_formula_structural   Nb12Al9Pt3C4
_chemical_formula_sum   'Nb12 Al9 Pt3 C4'
_cell_volume   414.56383161
_cell_formula_units_Z   1
loop_
 _symmetry_equiv_pos_site_id
 _symmetry_equiv_pos_as_xyz
  1  'x, y, z'
loop_
 _atom_site_type_symbol
 _atom_site_label
 _atom_site_symmetry_multiplicity
 _atom_site_fract_x
 _atom_site_fract_y
 _atom_site_fract_z
 _atom_site_occupancy
  Nb  Nb0  1  0.81795998  0.81989905  0.18107098  1
  Nb  Nb1  1  0.19430770  0.18078175  0.81245578  1
  Nb  Nb2  1  0.81245578  0.18078175  0.81245578  1
  Nb  Nb3  1  0.18107098  0.81989905  0.18107098  1
  Nb  Nb4  1  0.18107098  0.81989905  0.81795998  1
  Nb  Nb5  1  0.81245578  0.18078175  0.19430770  1
  Nb  Nb6  1  0.43204002  0.43010095  0.06892902  1
  Nb  Nb7  1  0.05569230  0.06921825  0.43754422  1
  Nb  Nb8  1  0.43754422  0.06921825  0.43754422  1
  Nb  Nb9  1  0.06892902  0.43010095  0.06892902  1
  Nb  Nb10  1  0.06892902  0.43010095  0.43204002  1
  Nb  Nb11  1  0.43754422  0.06921825  0.05569230  1
  Al  Al0  1  0.62500000  0.12500000  0.62500000  1
  Al  Al1  1  0.75240020  0.42440107  0.41159936  1
  Al  Al2  1  0.41358053  0.75926042  0.41358053  1
  Al  Al3  1  0.41159936  0.42440107  0.75240020  1
  Al  Al4  1  0.41159936  0.42440107  0.41159936  1
  Al  Al5  1  0.49759980  0.82559893  0.83840064  1
  Al  Al6  1  0.83641947  0.49073958  0.83641947  1
  Al  Al7  1  0.83840064  0.82559893  0.49759980  1
  Al  Al8  1  0.83840064  0.82559893  0.83840064  1
  Pt  Pt0  1  0.12500000  0.62500000  0.62500000  1
  Pt  Pt1  1  0.62500000  0.62500000  0.12500000  1
  Pt  Pt2  1  0.62500000  0.62500000  0.62500000  1
  C  C0  1  0.62500000  0.12500000  0.12500000  1
  C  C1  1  0.12500000  0.62500000  0.12500000  1
  C  C2  1  0.12500000  0.12500000  0.62500000  1
  C  C3  1  0.12500000  0.12500000  0.12500000  1
loop_
_geom_bond_atom_site_label_1
_geom_bond_atom_site_label_2
_geom_bond_distance
_geom_bond_site_symmetry_2
Al0 Al1 2.627442 1_555
Al0 Al5 2.627442 1_545
Al0 Al3 2.627442 1_555
Al0 Al8 2.627442 1_545
Al0 Al4 2.627442 1_555
Al0 Al7 2.627442 1_545
Al0 Nb11 3.009879 1_556
Al0 Nb5 3.009879 1_555
Al0 Nb7 3.009879 1_655
Al0 Nb1 3.009879 1_555
Al0 Nb2 3.009886 1_555
Al0 Nb8 3.009886 1_555
Al1 Pt1 2.539495 1_555
Al1 Pt2 2.539495 1_555
Al2 Pt2 2.583666 1_555
Al2 Pt0 2.583680 1_555
Al2 Pt1 2.583680 1_555
Al3 Pt2 2.539495 1_555
Al3 Pt0 2.539495 1_555
Al4 Pt1 2.539495 1_555
Al4 Pt0 2.539495 1_555
Al5 Pt2 2.539495 1_555
Al5 Pt1 2.539495 1_556
Al6 Pt2 2.583666 1_555
Al6 Pt0 2.583680 1_655
Al6 Pt1 2.583680 1_556
Al7 Pt2 2.539495 1_555
Al7 Pt0 2.539495 1_655
Al8 Pt1 2.539495 1_556
Al8 Pt0 2.539495 1_655
C0 Nb6 2.189146 1_555
C0 Nb0 2.189146 1_545
C0 Nb8 2.219265 1_555
C0 Nb2 2.219265 1_554
C0 Nb5 2.219271 1_555
C0 Nb11 2.219271 1_555
C1 Nb10 2.202954 1_555
C1 Nb4 2.202954 1_554
C1 Nb6 2.202955 1_555
C1 Nb0 2.202955 1_455
C1 Nb3 2.202960 1_555
C1 Nb9 2.202960 1_555
C2 Nb10 2.189145 1_555
C2 Nb4 2.189145 1_545
C2 Nb8 2.219265 1_555
C2 Nb2 2.219265 1_455
C2 Nb1 2.219271 1_555
C2 Nb7 2.219271 1_555
C3 Nb9 2.189143 1_555
C3 Nb3 2.189143 1_545
C3 Nb7 2.219263 1_555
C3 Nb1 2.219263 1_554
C3 Nb11 2.219263 1_555
C3 Nb5 2.219263 1_455
