# generated using pymatgen
data_Y2CoSi14Ir5
_symmetry_space_group_name_H-M   'P 1'
_cell_length_a   7.95162807
_cell_length_b   7.95162694
_cell_length_c   7.93612123
_cell_angle_alpha   56.77387588
_cell_angle_beta   56.77387474
_cell_angle_gamma   56.68796281
_symmetry_Int_Tables_number   1
_chemical_formula_structural   Y2CoSi14Ir5
_chemical_formula_sum   'Y2 Co1 Si14 Ir5'
_cell_volume   328.15587296
_cell_formula_units_Z   1
loop_
 _symmetry_equiv_pos_site_id
 _symmetry_equiv_pos_as_xyz
  1  'x, y, z'
loop_
 _atom_site_type_symbol
 _atom_site_label
 _atom_site_symmetry_multiplicity
 _atom_site_fract_x
 _atom_site_fract_y
 _atom_site_fract_z
 _atom_site_occupancy
  Y  Y0  1  0.00071623  0.99875103  0.99971225  1
  Y  Y1  1  0.50124897  0.49928377  0.50028775  1
  Co  Co0  1  0.06912504  0.43087496  0.75000000  1
  Si  Si0  1  0.75940721  0.74059279  0.75000000  1
  Si  Si1  1  0.24966752  0.25033248  0.25000000  1
  Si  Si2  1  0.85137340  0.06423518  0.67171768  1
  Si  Si3  1  0.67270816  0.85088904  0.06196149  1
  Si  Si4  1  0.06101936  0.66729223  0.84662424  1
  Si  Si5  1  0.64911096  0.82729184  0.43803851  1
  Si  Si6  1  0.43576482  0.64862660  0.82828232  1
  Si  Si7  1  0.83270777  0.43898064  0.65337576  1
  Si  Si8  1  0.17140269  0.55957263  0.35998801  1
  Si  Si9  1  0.56346756  0.35038812  0.17381214  1
  Si  Si10  1  0.34271026  0.17957139  0.57164643  1
  Si  Si11  1  0.94042737  0.32859731  0.14001199  1
  Si  Si12  1  0.32042861  0.15728974  0.92835357  1
  Si  Si13  1  0.14961188  0.93653244  0.32618786  1
  Ir  Ir0  1  0.24886068  0.92939640  0.57220106  1
  Ir  Ir1  1  0.57060360  0.25113932  0.92779894  1
  Ir  Ir2  1  0.92912750  0.57087250  0.25000000  1
  Ir  Ir3  1  0.42947676  0.74896537  0.07131718  1
  Ir  Ir4  1  0.75103463  0.07052324  0.42868282  1
loop_
_geom_bond_atom_site_label_1
_geom_bond_atom_site_label_2
_geom_bond_distance
_geom_bond_site_symmetry_2
Co0 Si0 2.338460 1_455
Co0 Si4 2.349197 1_555
Co0 Si7 2.349198 1_455
Co0 Si10 2.383152 1_555
Co0 Si12 2.383152 1_555
Co0 Si11 2.444009 1_456
Co0 Si8 2.444009 1_555
Co0 Y0 3.072321 1_545
Co0 Y1 3.072321 1_555
Si0 Si7 2.582598 1_555
Si0 Si4 2.582598 1_655
Si0 Si3 2.686789 1_556
Si0 Si5 2.686789 1_555
Si0 Si2 2.713058 1_565
Si0 Si6 2.713058 1_555
Si1 Si8 2.696613 1_555
Si1 Si11 2.696613 1_455
Si1 Si12 2.723644 1_554
Si1 Si10 2.723644 1_555
Si2 Si4 2.573573 1_645
Si2 Si7 2.825806 1_555
Si2 Y0 3.111259 1_645
Si2 Y1 3.159665 1_555
Si3 Si4 2.566291 1_654
Si3 Y0 3.122315 1_654
Si3 Y1 3.179219 1_555
Si4 Si6 2.825806 1_555
Si4 Y1 3.152211 1_555
Si4 Y0 3.183568 1_555
Si5 Si7 2.566291 1_555
Si5 Y1 3.122315 1_555
Si5 Y0 3.179219 1_654
Si6 Si7 2.573573 1_555
Si6 Y1 3.111259 1_555
Si6 Y0 3.159665 1_555
Si7 Si8 2.666799 1_655
Si7 Y0 3.152211 1_645
Si7 Y1 3.183569 1_555
Si8 Si9 2.572639 1_555
Si8 Y1 3.095649 1_555
Si8 Y0 3.211972 1_554
Si9 Y1 3.110168 1_555
Si9 Y0 3.179097 1_644
Si10 Si8 2.496311 1_555
Si10 Si9 2.596186 1_555
Si10 Si12 2.647977 1_555
Si10 Si5 2.799026 1_545
Si10 Y1 3.087547 1_555
Si10 Y0 3.133849 1_545
Si11 Si12 2.496312 1_654
Si11 Si13 2.572639 1_645
Si11 Si4 2.666799 1_654
Si11 Si9 2.772357 1_555
Si11 Y0 3.095648 1_644
Si11 Y1 3.211972 1_555
Si12 Si13 2.596186 1_546
Si12 Si3 2.799026 1_546
Si12 Y0 3.087547 1_545
Si12 Y1 3.133849 1_555
Si13 Si8 2.772357 1_555
Si13 Y0 3.110168 1_554
Si13 Y1 3.179097 1_555
Ir0 Si1 2.428949 1_565
Ir0 Si13 2.440456 1_555
Ir0 Si6 2.452862 1_555
Ir0 Si10 2.476213 1_565
Ir0 Si4 2.489564 1_555
Ir0 Si2 2.496657 1_465
Ir0 Si5 2.513474 1_555
Ir0 Y0 3.037641 1_555
Ir0 Y1 3.065145 1_555
Ir1 Si1 2.428949 1_556
Ir1 Si9 2.440456 1_556
Ir1 Si2 2.452862 1_555
Ir1 Si12 2.476213 1_555
Ir1 Si7 2.489564 1_555
Ir1 Si6 2.496656 1_555
Ir1 Si3 2.513474 1_546
Ir1 Y1 3.037641 1_555
Ir1 Y0 3.065146 1_645
Ir2 Si1 2.420171 1_655
Ir2 Si11 2.459282 1_555
Ir2 Si8 2.459283 1_655
Ir2 Si5 2.459367 1_555
Ir2 Si3 2.459367 1_555
Ir2 Si4 2.539658 1_654
Ir2 Si7 2.539658 1_555
Ir2 Y0 3.054083 1_654
Ir2 Y1 3.054083 1_555
Ir3 Si6 2.428187 1_554
Ir3 Si3 2.429292 1_555
Ir3 Si13 2.448580 1_555
Ir3 Si0 2.460174 1_554
Ir3 Si8 2.487780 1_555
Ir3 Si9 2.501413 1_555
Ir3 Si12 2.555357 1_564
Ir3 Y1 3.055273 1_555
Ir3 Y0 3.056120 1_554
Ir4 Si2 2.428187 1_555
Ir4 Si5 2.429292 1_545
Ir4 Si9 2.448581 1_555
Ir4 Si0 2.460174 1_545
Ir4 Si11 2.487780 1_555
Ir4 Si13 2.501413 1_645
Ir4 Si10 2.555358 1_555
Ir4 Y0 3.055273 1_644
Ir4 Y1 3.056119 1_555
