# generated using pymatgen
data_RbSrPSe4
_symmetry_space_group_name_H-M   'P 1'
_cell_length_a   6.96239238
_cell_length_b   7.12095875
_cell_length_c   17.88491664
_cell_angle_alpha   90.00000000
_cell_angle_beta   90.00000000
_cell_angle_gamma   90.00000000
_symmetry_Int_Tables_number   1
_chemical_formula_structural   RbSrPSe4
_chemical_formula_sum   'Rb4 Sr4 P4 Se16'
_cell_volume   886.71465250
_cell_formula_units_Z   4
loop_
 _symmetry_equiv_pos_site_id
 _symmetry_equiv_pos_as_xyz
  1  'x, y, z'
loop_
 _atom_site_type_symbol
 _atom_site_label
 _atom_site_symmetry_multiplicity
 _atom_site_fract_x
 _atom_site_fract_y
 _atom_site_fract_z
 _atom_site_occupancy
  Rb  Rb0  1  0.97668885  0.00726055  0.03620336  1
  Rb  Rb1  1  0.47668885  0.49273945  0.96379664  1
  Rb  Rb2  1  0.02331115  0.50726055  0.46379664  1
  Rb  Rb3  1  0.52331115  0.99273945  0.53620336  1
  Sr  Sr0  1  0.28702453  0.48361455  0.22567973  1
  Sr  Sr1  1  0.78702453  0.01638545  0.77432027  1
  Sr  Sr2  1  0.71297547  0.98361455  0.27432027  1
  Sr  Sr3  1  0.21297547  0.51638545  0.72567973  1
  P  P0  1  0.22302235  0.01085603  0.34358543  1
  P  P1  1  0.27697765  0.98914397  0.84358543  1
  P  P2  1  0.72302235  0.48914397  0.65641457  1
  P  P3  1  0.77697765  0.51085603  0.15641457  1
  Se  Se0  1  0.35436570  0.96565491  0.72406009  1
  Se  Se1  1  0.14563430  0.03434509  0.22406009  1
  Se  Se2  1  0.41813926  0.24684371  0.36896537  1
  Se  Se3  1  0.91813926  0.25315629  0.63103463  1
  Se  Se4  1  0.89020086  0.74835034  0.63720229  1
  Se  Se5  1  0.97244913  0.01395249  0.41789717  1
  Se  Se6  1  0.02755087  0.51395249  0.08210283  1
  Se  Se7  1  0.10979914  0.24835034  0.86279771  1
  Se  Se8  1  0.64563430  0.46565491  0.77593991  1
  Se  Se9  1  0.08186074  0.75315629  0.86896537  1
  Se  Se10  1  0.58186074  0.74684371  0.13103463  1
  Se  Se11  1  0.85436570  0.53434509  0.27593991  1
  Se  Se12  1  0.39020086  0.75164966  0.36279771  1
  Se  Se13  1  0.47244913  0.48604751  0.58210283  1
  Se  Se14  1  0.52755087  0.98604751  0.91789717  1
  Se  Se15  1  0.60979914  0.25164966  0.13720229  1
loop_
_geom_bond_atom_site_label_1
_geom_bond_atom_site_label_2
_geom_bond_distance
_geom_bond_site_symmetry_2
Rb0 Se1 3.564978 1_655
Rb0 Se9 3.571647 1_644
Rb0 Se15 3.580032 1_555
Rb0 Se6 3.624809 1_645
Rb0 Se7 3.663961 1_654
Rb0 Se6 3.717245 1_655
Rb0 Se10 3.724535 1_545
Rb0 Se14 3.778681 1_544
Rb1 Se8 3.564978 1_555
Rb1 Se10 3.571647 1_556
Rb1 Se7 3.580032 1_555
Rb1 Se14 3.624809 1_555
Rb1 Se15 3.663961 1_556
Rb1 Se14 3.717245 1_545
Rb1 Se9 3.724535 1_555
Rb1 Se6 3.778681 1_556
Rb2 Se11 3.564978 1_455
Rb2 Se3 3.571647 1_455
Rb2 Se12 3.580032 1_555
Rb2 Se5 3.624809 1_455
Rb2 Se4 3.663961 1_455
Rb2 Se5 3.717245 1_465
Rb2 Se2 3.724535 1_555
Rb2 Se13 3.778681 1_555
Rb3 Se0 3.564978 1_555
Rb3 Se2 3.571647 1_565
Rb3 Se4 3.580032 1_555
Rb3 Se13 3.624809 1_565
Rb3 Se12 3.663961 1_555
Rb3 Se13 3.717245 1_555
Rb3 Se3 3.724535 1_565
Rb3 Se5 3.778681 1_565
P0 Se5 2.193280 1_455
P0 Se2 2.208042 1_555
P0 Se12 2.209037 1_545
P0 Se1 2.210894 1_555
P1 Se14 2.193280 1_555
P1 Se9 2.208042 1_555
P1 Se7 2.209037 1_565
P1 Se0 2.210894 1_555
P2 Se13 2.193280 1_555
P2 Se3 2.208042 1_555
P2 Se4 2.209037 1_555
P2 Se8 2.210894 1_555
P3 Se6 2.193280 1_655
P3 Se10 2.208042 1_555
P3 Se15 2.209037 1_555
P3 Se11 2.210894 1_555
Se0 Sr1 3.164288 1_565
Se0 Sr3 3.347384 1_555
Se1 Sr2 3.164288 1_445
Se1 Sr0 3.347384 1_555
Se2 Sr0 3.200505 1_555
Se2 Sr2 3.254641 1_545
Se3 Sr1 3.200505 1_555
Se3 Sr3 3.254641 1_655
Se4 Sr1 3.189519 1_565
Se4 Sr3 3.206680 1_655
Se5 Sr2 3.147099 1_545
Se6 Sr0 3.147099 1_555
Se7 Sr3 3.189519 1_555
Se7 Sr1 3.206680 1_455
Se8 Sr3 3.164288 1_555
Se8 Sr1 3.347384 1_555
Se9 Sr3 3.200505 1_555
Se9 Sr1 3.254641 1_465
Se10 Sr2 3.200505 1_555
Se10 Sr0 3.254641 1_555
Se11 Sr0 3.164288 1_655
Se11 Sr2 3.347384 1_555
Se12 Sr0 3.189519 1_555
Se12 Sr2 3.206680 1_555
Se13 Sr3 3.147099 1_555
Se14 Sr1 3.147099 1_565
Se15 Sr2 3.189519 1_545
Se15 Sr0 3.206680 1_555
