# generated using pymatgen
data_RbGeAsIr2
_symmetry_space_group_name_H-M   'P 1'
_cell_length_a   7.65145811
_cell_length_b   7.65145780
_cell_length_c   7.65145766
_cell_angle_alpha   149.26145971
_cell_angle_beta   149.26146219
_cell_angle_gamma   44.02659273
_symmetry_Int_Tables_number   1
_chemical_formula_structural   RbGeAsIr2
_chemical_formula_sum   'Rb1 Ge1 As1 Ir2'
_cell_volume   116.69096249
_cell_formula_units_Z   1
loop_
 _symmetry_equiv_pos_site_id
 _symmetry_equiv_pos_as_xyz
  1  'x, y, z'
loop_
 _atom_site_type_symbol
 _atom_site_label
 _atom_site_symmetry_multiplicity
 _atom_site_fract_x
 _atom_site_fract_y
 _atom_site_fract_z
 _atom_site_occupancy
  Rb  Rb0  1  0.00202242  0.00202242  1.00000000  1
  Ge  Ge0  1  0.34686943  0.34686943  0.00000000  1
  As  As0  1  0.65417689  0.65417689  1.00000000  1
  Ir  Ir0  1  0.74846613  0.24846613  0.50000000  1
  Ir  Ir1  1  0.24846613  0.74846613  0.50000000  1
loop_
_geom_bond_atom_site_label_1
_geom_bond_atom_site_label_2
_geom_bond_distance
_geom_bond_site_symmetry_2
Ge0 Ir0 2.462021 1_555
Ge0 Ir0 2.462021 1_454
Ge0 Ir1 2.462021 1_544
Ge0 Ir1 2.462021 1_555
Ge0 Rb0 3.615289 1_553
Ge0 Rb0 3.615290 1_665
Ge0 Rb0 3.615290 1_564
Ge0 Rb0 3.615290 1_654
As0 Ir1 2.429399 1_555
As0 Ir1 2.429400 1_656
As0 Ir0 2.429400 1_566
As0 Ir0 2.429400 1_555
As0 Rb0 3.589547 1_666
As0 Rb0 3.589547 1_554
As0 Rb0 3.589547 1_655
As0 Rb0 3.589547 1_565
