# generated using pymatgen
data_Zr10AlSi2Sb5
_symmetry_space_group_name_H-M   'P 1'
_cell_length_a   8.58488489
_cell_length_b   8.62275954
_cell_length_c   5.83106531
_cell_angle_alpha   90.00000000
_cell_angle_beta   90.00000000
_cell_angle_gamma   119.85479893
_symmetry_Int_Tables_number   1
_chemical_formula_structural   Zr10AlSi2Sb5
_chemical_formula_sum   'Zr10 Al1 Si2 Sb5'
_cell_volume   374.36295381
_cell_formula_units_Z   1
loop_
 _symmetry_equiv_pos_site_id
 _symmetry_equiv_pos_as_xyz
  1  'x, y, z'
loop_
 _atom_site_type_symbol
 _atom_site_label
 _atom_site_symmetry_multiplicity
 _atom_site_fract_x
 _atom_site_fract_y
 _atom_site_fract_z
 _atom_site_occupancy
  Zr  Zr0  1  0.26753530  0.00000000  0.25000000  1
  Zr  Zr1  1  0.25620901  0.25477929  0.75000000  1
  Zr  Zr2  1  0.00142872  0.74522071  0.75000000  1
  Zr  Zr3  1  0.99336306  0.26167188  0.25000000  1
  Zr  Zr4  1  0.73169118  0.73832812  0.25000000  1
  Zr  Zr5  1  0.74495376  1.00000000  0.75000000  1
  Zr  Zr6  1  0.33560319  0.66963694  0.00284704  1
  Zr  Zr7  1  0.66596725  0.33036306  0.49715296  1
  Zr  Zr8  1  0.66596725  0.33036306  0.00284704  1
  Zr  Zr9  1  0.33560319  0.66963694  0.49715296  1
  Al  Al0  1  0.60613298  0.00000000  0.25000000  1
  Si  Si0  1  0.99944359  1.00000000  0.01231195  1
  Si  Si1  1  0.99944359  1.00000000  0.48768805  1
  Sb  Sb0  1  0.60365592  0.60338780  0.75000000  1
  Sb  Sb1  1  0.00026712  0.39661220  0.75000000  1
  Sb  Sb2  1  0.99913042  0.60877875  0.25000000  1
  Sb  Sb3  1  0.39035167  0.39122125  0.25000000  1
  Sb  Sb4  1  0.40325379  1.00000000  0.75000000  1
loop_
_geom_bond_atom_site_label_1
_geom_bond_atom_site_label_2
_geom_bond_distance
_geom_bond_site_symmetry_2
Zr6 Zr9 2.882330 1_555
Zr6 Zr9 2.948735 1_554
Zr7 Zr8 2.882330 1_555
Zr7 Zr8 2.948735 1_556
Al0 Zr0 2.906822 1_555
Al0 Zr4 2.945223 1_545
Al0 Zr3 2.945224 1_555
Al0 Zr7 2.999789 1_555
Al0 Zr8 2.999789 1_555
Al0 Zr9 2.999792 1_545
Al0 Zr6 2.999792 1_545
Al0 Zr5 3.149702 1_545
Al0 Zr5 3.149702 1_544
Si0 Zr5 2.666974 1_554
Si0 Zr3 2.670572 1_565
Si0 Zr4 2.670573 1_555
Si0 Zr2 2.683931 1_654
Si0 Zr1 2.683935 1_664
Si0 Zr0 2.686633 1_665
Si1 Zr5 2.666974 1_555
Si1 Zr3 2.670572 1_565
Si1 Zr4 2.670573 1_555
Si1 Zr2 2.683931 1_655
Si1 Zr1 2.683935 1_665
Si1 Zr0 2.686633 1_665
Sb0 Zr2 2.999805 1_655
Sb0 Zr1 3.001016 1_555
Sb0 Zr5 3.006143 1_555
Sb0 Zr6 3.017351 1_556
Sb0 Zr9 3.017351 1_555
Sb0 Zr8 3.042388 1_556
Sb0 Zr7 3.042388 1_555
Sb0 Zr4 3.128744 1_555
Sb0 Zr4 3.128744 1_556
Sb1 Zr1 2.999821 1_555
Sb1 Zr2 3.001016 1_555
Sb1 Zr5 3.006142 1_445
Sb1 Zr8 3.017336 1_456
Sb1 Zr7 3.017336 1_455
Sb1 Zr6 3.042389 1_556
Sb1 Zr9 3.042389 1_555
Sb1 Zr3 3.128746 1_455
Sb1 Zr3 3.128746 1_456
Sb2 Zr3 2.968682 1_555
Sb2 Zr0 2.991719 1_665
Sb2 Zr4 3.012081 1_555
Sb2 Zr7 3.030620 1_555
Sb2 Zr8 3.030620 1_555
Sb2 Zr9 3.031017 1_655
Sb2 Zr6 3.031017 1_655
Sb2 Zr2 3.140346 1_655
Sb2 Zr2 3.140346 1_654
Sb3 Zr4 2.968683 1_555
Sb3 Zr0 2.991719 1_555
Sb3 Zr3 3.012081 1_455
Sb3 Zr9 3.030624 1_555
Sb3 Zr6 3.030624 1_555
Sb3 Zr7 3.031024 1_555
Sb3 Zr8 3.031024 1_555
Sb3 Zr1 3.140345 1_555
Sb3 Zr1 3.140345 1_554
Sb4 Zr5 2.933455 1_555
Sb4 Zr6 2.996443 1_556
Sb4 Zr9 2.996443 1_555
Sb4 Zr8 2.996445 1_566
Sb4 Zr7 2.996445 1_565
Sb4 Zr1 3.030022 1_565
Sb4 Zr2 3.030029 1_555
Sb4 Zr0 3.139722 1_566
Sb4 Zr0 3.139722 1_565
