# generated using pymatgen
data_Pt(BrF5)2
_symmetry_space_group_name_H-M   'P 1'
_cell_length_a   13.86548168
_cell_length_b   4.99641037
_cell_length_c   6.30195008
_cell_angle_alpha   66.73503082
_cell_angle_beta   90.00000000
_cell_angle_gamma   90.00000000
_symmetry_Int_Tables_number   1
_chemical_formula_structural   Pt(BrF5)2
_chemical_formula_sum   'Pt2 Br4 F20'
_cell_volume   401.08469195
_cell_formula_units_Z   2
loop_
 _symmetry_equiv_pos_site_id
 _symmetry_equiv_pos_as_xyz
  1  'x, y, z'
loop_
 _atom_site_type_symbol
 _atom_site_label
 _atom_site_symmetry_multiplicity
 _atom_site_fract_x
 _atom_site_fract_y
 _atom_site_fract_z
 _atom_site_occupancy
  Pt  Pt0  1  0.00000000  0.00000000  0.00000000  1
  Pt  Pt1  1  0.50000000  0.00000000  0.50000000  1
  Br  Br0  1  0.36441534  0.64813985  0.17552707  1
  Br  Br1  1  0.86441534  0.35186015  0.32447293  1
  Br  Br2  1  0.13558466  0.64813985  0.67552707  1
  Br  Br3  1  0.63558466  0.35186015  0.82447293  1
  F  F0  1  0.67242836  0.04112204  0.06469772  1
  F  F1  1  0.17242836  0.95887796  0.43530228  1
  F  F2  1  0.32757164  0.95887796  0.93530228  1
  F  F3  1  0.82757164  0.04112204  0.56469772  1
  F  F4  1  0.72116765  0.56185225  0.89758539  1
  F  F5  1  0.22116765  0.43814775  0.60241461  1
  F  F6  1  0.96754430  0.03201875  0.29051983  1
  F  F7  1  0.46754430  0.96798125  0.20948017  1
  F  F8  1  0.03245570  0.96798125  0.70948017  1
  F  F9  1  0.53245570  0.03201875  0.79051983  1
  F  F10  1  0.88342009  0.76735059  0.03385363  1
  F  F11  1  0.38342009  0.23264941  0.46614637  1
  F  F12  1  0.11657991  0.23264941  0.96614637  1
  F  F13  1  0.61657991  0.76735059  0.53385363  1
  F  F14  1  0.93109839  0.36086636  0.83500559  1
  F  F15  1  0.43109839  0.63913364  0.66499441  1
  F  F16  1  0.06890161  0.63913364  0.16499441  1
  F  F17  1  0.56890161  0.36086636  0.33500559  1
  F  F18  1  0.77883235  0.56185225  0.39758539  1
  F  F19  1  0.27883235  0.43814775  0.10241461  1
loop_
_geom_bond_atom_site_label_1
_geom_bond_atom_site_label_2
_geom_bond_distance
_geom_bond_site_symmetry_2
Br0 F19 1.761576 1_555
Br0 F2 1.762542 1_554
Br0 F11 2.174816 1_555
Br0 F7 2.216845 1_555
Br1 F18 1.761576 1_555
Br1 F3 1.762542 1_555
Br1 F10 2.174816 1_555
Br1 F6 2.216845 1_555
Br2 F5 1.761576 1_555
Br2 F1 1.762542 1_555
Br2 F12 2.174816 1_555
Br2 F8 2.216845 1_555
Br3 F4 1.761576 1_555
Br3 F0 1.762542 1_556
Br3 F13 2.174816 1_555
Br3 F9 2.216845 1_555
F6 Pt0 1.952297 1_655
F7 Pt1 1.952297 1_565
F8 Pt0 1.952297 1_566
F9 Pt1 1.952297 1_555
F10 Pt0 1.952864 1_665
F11 Pt1 1.952864 1_555
F12 Pt0 1.952864 1_556
F13 Pt1 1.952864 1_565
F14 Pt0 1.940048 1_656
F15 Pt1 1.940048 1_565
F16 Pt0 1.940048 1_565
F17 Pt1 1.940048 1_555
