# generated using pymatgen
data_Y12InCo4Pd
_symmetry_space_group_name_H-M   'P 1'
_cell_length_a   8.38253112
_cell_length_b   8.38252983
_cell_length_c   8.38253165
_cell_angle_alpha   110.60037818
_cell_angle_beta   110.12151568
_cell_angle_gamma   107.70642921
_symmetry_Int_Tables_number   1
_chemical_formula_structural   Y12InCo4Pd
_chemical_formula_sum   'Y12 In1 Co4 Pd1'
_cell_volume   453.09342907
_cell_formula_units_Z   1
loop_
 _symmetry_equiv_pos_site_id
 _symmetry_equiv_pos_as_xyz
  1  'x, y, z'
loop_
 _atom_site_type_symbol
 _atom_site_label
 _atom_site_symmetry_multiplicity
 _atom_site_fract_x
 _atom_site_fract_y
 _atom_site_fract_z
 _atom_site_occupancy
  Y  Y0  1  0.41063162  0.21106579  0.19956482  1
  Y  Y1  1  0.58936838  0.78893421  0.80043518  1
  Y  Y2  1  0.01150197  0.21106579  0.80043518  1
  Y  Y3  1  0.98849803  0.78893421  0.19956482  1
  Y  Y4  1  0.18675732  0.29568053  0.48243985  1
  Y  Y5  1  0.81324268  0.70431947  0.51756015  1
  Y  Y6  1  0.18675732  0.70431947  0.89107678  1
  Y  Y7  1  0.81324268  0.29568053  0.10892322  1
  Y  Y8  1  0.31636152  0.61732059  0.30095906  1
  Y  Y9  1  0.68363848  0.38267941  0.69904094  1
  Y  Y10  1  0.31636152  0.01540146  0.69904094  1
  Y  Y11  1  0.68363848  0.98459854  0.30095906  1
  In  In0  1  0.50000000  0.50000000  0.00000000  1
  Co  Co0  1  0.38483224  1.00000000  0.38483224  1
  Co  Co1  1  0.61516776  0.00000000  0.61516776  1
  Co  Co2  1  0.10938669  0.60938669  0.50000000  1
  Co  Co3  1  0.89061331  0.39061331  0.50000000  1
  Pd  Pd0  1  0.00000000  0.00000000  0.00000000  1
loop_
_geom_bond_atom_site_label_1
_geom_bond_atom_site_label_2
_geom_bond_distance
_geom_bond_site_symmetry_2
In0 Y9 3.398263 1_554
In0 Y8 3.398263 1_555
In0 Y11 3.398268 1_555
In0 Y10 3.398268 1_554
In0 Y3 3.440262 1_555
In0 Y2 3.440262 1_554
In0 Y1 3.440267 1_554
In0 Y0 3.440267 1_555
In0 Y5 3.584422 1_555
In0 Y4 3.584422 1_554
In0 Y6 3.584435 1_554
In0 Y7 3.584435 1_555
Co0 Co1 2.211561 1_565
Co0 Y0 2.742404 1_565
Co0 Y3 2.742410 1_455
Co0 Y11 2.851177 1_555
Co0 Y8 2.851178 1_555
Co0 Y9 2.851178 1_565
Co0 Y10 2.851181 1_565
Co0 Y6 3.402994 1_554
Co0 Y4 3.402996 1_565
Co1 Y1 2.742404 1_545
Co1 Y2 2.742410 1_655
Co1 Y10 2.851177 1_555
Co1 Y9 2.851178 1_555
Co1 Y8 2.851178 1_545
Co1 Y11 2.851181 1_545
Co1 Y7 3.402994 1_556
Co1 Y5 3.402996 1_545
Co2 Co3 2.163443 1_455
Co2 Y10 2.792463 1_565
Co2 Y8 2.792470 1_555
Co2 Y5 2.861475 1_455
Co2 Y7 2.861479 1_455
Co2 Y6 2.861479 1_555
Co2 Y4 2.861482 1_555
Co2 Y1 3.387261 1_555
Co2 Y3 3.387269 1_455
Co3 Y11 2.792463 1_545
Co3 Y9 2.792470 1_555
Co3 Y4 2.861475 1_655
Co3 Y6 2.861479 1_655
Co3 Y7 2.861479 1_555
Co3 Y5 2.861482 1_555
Co3 Y0 3.387261 1_555
Co3 Y2 3.387269 1_655
Pd0 Y2 2.833374 1_554
Pd0 Y3 2.833374 1_445
Pd0 Y0 2.833380 1_555
Pd0 Y1 2.833380 1_444
Pd0 Y7 3.343479 1_455
Pd0 Y6 3.343479 1_544
Pd0 Y4 3.343492 1_555
Pd0 Y5 3.343492 1_444
