# generated using pymatgen
data_Na4In5Ga7Te20
_symmetry_space_group_name_H-M   'P 1'
_cell_length_a   10.67708585
_cell_length_b   10.67394002
_cell_length_c   10.62806073
_cell_angle_alpha   89.19696377
_cell_angle_beta   89.07818600
_cell_angle_gamma   90.85501641
_symmetry_Int_Tables_number   1
_chemical_formula_structural   Na4In5Ga7Te20
_chemical_formula_sum   'Na4 In5 Ga7 Te20'
_cell_volume   1210.82895734
_cell_formula_units_Z   1
loop_
 _symmetry_equiv_pos_site_id
 _symmetry_equiv_pos_as_xyz
  1  'x, y, z'
loop_
 _atom_site_type_symbol
 _atom_site_label
 _atom_site_symmetry_multiplicity
 _atom_site_fract_x
 _atom_site_fract_y
 _atom_site_fract_z
 _atom_site_occupancy
  Na  Na0  1  0.25492638  0.99811652  0.25653310  1
  Na  Na1  1  0.99883037  0.74341166  0.74052207  1
  Na  Na2  1  0.74205953  0.25796641  0.99814060  1
  Na  Na3  1  0.50155990  0.50104729  0.49859316  1
  In  In0  1  0.42649986  0.12450003  0.84119959  1
  In  In1  1  0.12122703  0.15676550  0.57078032  1
  In  In2  1  0.15746038  0.42790731  0.87547854  1
  In  In3  1  0.87557201  0.57232160  0.16416938  1
  In  In4  1  0.57429045  0.84159570  0.12627407  1
  Ga  Ga0  1  0.83790194  0.87832842  0.42865101  1
  Ga  Ga1  1  0.65464807  0.83531875  0.74284505  1
  Ga  Ga2  1  0.83412453  0.25291108  0.34539912  1
  Ga  Ga3  1  0.25576214  0.65324085  0.16829342  1
  Ga  Ga4  1  0.16972823  0.34493843  0.25591938  1
  Ga  Ga5  1  0.34739070  0.74436893  0.83241826  1
  Ga  Ga6  1  0.74647189  0.16653309  0.65439705  1
  Te  Te0  1  0.00147886  0.18380422  0.17985575  1
  Te  Te1  1  0.81752486  0.00078838  0.82053684  1
  Te  Te2  1  0.83496234  0.83573997  0.18002962  1
  Te  Te3  1  0.16334184  0.16456065  0.83469134  1
  Te  Te4  1  0.18330676  0.81686810  0.00025507  1
  Te  Te5  1  0.91021573  0.50322408  0.91299989  1
  Te  Te6  1  0.49964319  0.08928572  0.09009724  1
  Te  Te7  1  0.07349043  0.91140521  0.49246092  1
  Te  Te8  1  0.57807562  0.31809700  0.74078658  1
  Te  Te9  1  0.32002263  0.25166702  0.42240430  1
  Te  Te10  1  0.25739047  0.57813294  0.68001218  1
  Te  Te11  1  0.68012481  0.41839215  0.25723257  1
  Te  Te12  1  0.42136777  0.74367232  0.32068227  1
  Te  Te13  1  0.74716401  0.69246744  0.56850900  1
  Te  Te14  1  0.43163888  0.92328450  0.67187728  1
  Te  Te15  1  0.92251738  0.32803765  0.56741623  1
  Te  Te16  1  0.32800451  0.43235436  0.07595648  1
  Te  Te17  1  0.07923826  0.56565418  0.33014927  1
  Te  Te18  1  0.57071477  0.67434524  0.92172926  1
  Te  Te19  1  0.68132250  0.06894433  0.43270478  1
loop_
_geom_bond_atom_site_label_1
_geom_bond_atom_site_label_2
_geom_bond_distance
_geom_bond_site_symmetry_2
Na0 Te7 3.259124 1_555
Na0 Te6 3.260393 1_565
Na0 Te9 3.321503 1_565
Na0 Te12 3.336211 1_555
Na0 Te4 3.452084 1_555
Na0 Te0 3.478670 1_565
Na1 Te7 3.249416 1_655
Na1 Te5 3.250898 1_555
Na1 Te13 3.316702 1_555
Na1 Te10 3.356667 1_655
Na1 Te1 3.491279 1_565
Na1 Te4 3.507709 1_656
Na2 Te6 3.259818 1_556
Na2 Te5 3.261381 1_555
Na2 Te11 3.325576 1_556
Na2 Te8 3.331229 1_555
Na2 Te1 3.451103 1_555
Na2 Te0 3.496171 1_656
Na3 Te11 3.309051 1_555
Na3 Te12 3.316068 1_555
Na3 Te8 3.328807 1_555
Na3 Te10 3.337364 1_555
Na3 Te9 3.384543 1_555
Na3 Te13 3.398359 1_555
In0 Te6 2.792158 1_556
In0 Te8 2.794829 1_555
In0 Te14 2.821882 1_545
In0 Te3 2.850205 1_555
In1 Te9 2.793115 1_555
In1 Te7 2.801164 1_545
In1 Te15 2.821547 1_455
In1 Te3 2.849979 1_555
In2 Te10 2.794561 1_555
In2 Te5 2.795102 1_455
In2 Te16 2.825406 1_556
In2 Te3 2.851635 1_555
In3 Te11 2.796124 1_555
In3 Te5 2.799693 1_554
In3 Te17 2.823148 1_655
In3 Te2 2.858226 1_555
In4 Te12 2.794195 1_555
In4 Te6 2.795916 1_565
In4 Te18 2.832631 1_554
In4 Te2 2.851659 1_555
Ga0 Te13 2.626296 1_555
Ga0 Te7 2.635697 1_655
Ga0 Te19 2.652953 1_565
Ga0 Te2 2.688053 1_555
Ga1 Te13 2.607498 1_555
Ga1 Te1 2.611708 1_565
Ga1 Te18 2.679101 1_555
Ga1 Te14 2.687888 1_555
Ga2 Te11 2.606043 1_555
Ga2 Te0 2.609030 1_655
Ga2 Te19 2.680156 1_555
Ga2 Te15 2.683957 1_555
Ga3 Te12 2.601217 1_555
Ga3 Te4 2.614530 1_555
Ga3 Te17 2.680205 1_555
Ga3 Te16 2.685460 1_555
Ga4 Te9 2.605135 1_555
Ga4 Te0 2.613866 1_555
Ga4 Te16 2.680234 1_555
Ga4 Te17 2.683594 1_555
Ga5 Te10 2.602945 1_555
Ga5 Te4 2.613160 1_556
Ga5 Te14 2.678711 1_555
Ga5 Te18 2.692836 1_555
Ga6 Te8 2.601595 1_555
Ga6 Te1 2.611296 1_555
Ga6 Te15 2.676227 1_555
Ga6 Te19 2.687063 1_555
