# generated using pymatgen
data_Fe5CuO8
_symmetry_space_group_name_H-M   'P 1'
_cell_length_a   6.04008774
_cell_length_b   6.04008774
_cell_length_c   6.04008774
_cell_angle_alpha   60.00000000
_cell_angle_beta   60.00000000
_cell_angle_gamma   60.00000000
_symmetry_Int_Tables_number   1
_chemical_formula_structural   Fe5CuO8
_chemical_formula_sum   'Fe5 Cu1 O8'
_cell_volume   155.81696619
_cell_formula_units_Z   1
loop_
 _symmetry_equiv_pos_site_id
 _symmetry_equiv_pos_as_xyz
  1  'x, y, z'
loop_
 _atom_site_type_symbol
 _atom_site_label
 _atom_site_symmetry_multiplicity
 _atom_site_fract_x
 _atom_site_fract_y
 _atom_site_fract_z
 _atom_site_occupancy
  Fe  Fe0  1  0.25000000  0.25000000  0.25000000  1
  Fe  Fe1  1  0.87212900  0.38361200  0.87212900  1
  Fe  Fe2  1  0.87212900  0.87212900  0.38361200  1
  Fe  Fe3  1  0.38361200  0.87212900  0.87212900  1
  Fe  Fe4  1  0.87212900  0.87212900  0.87212900  1
  Cu  Cu0  1  0.50000000  0.50000000  0.50000000  1
  O  O0  1  0.63669300  0.63669300  0.63669300  1
  O  O1  1  0.08992100  0.63669300  0.63669300  1
  O  O2  1  0.63669300  0.63669300  0.08992100  1
  O  O3  1  0.63669300  0.08992100  0.63669300  1
  O  O4  1  0.11744500  0.64766500  0.11744500  1
  O  O5  1  0.11744500  0.11744500  0.64766500  1
  O  O6  1  0.64766500  0.11744500  0.11744500  1
  O  O7  1  0.11744500  0.11744500  0.11744500  1
loop_
_geom_bond_atom_site_label_1
_geom_bond_atom_site_label_2
_geom_bond_distance
_geom_bond_site_symmetry_2
Fe0 O6 1.961169 1_555
Fe0 O4 1.961169 1_555
Fe0 O5 1.961169 1_555
Fe0 O7 1.961169 1_555
Fe1 O0 2.013910 1_555
Fe1 O1 2.013914 1_655
Fe1 O2 2.013914 1_556
Fe1 O5 2.099260 1_655
Fe1 O6 2.099260 1_556
Fe1 O7 2.099264 1_656
Fe2 O0 2.013910 1_555
Fe2 O1 2.013914 1_655
Fe2 O3 2.013914 1_565
Fe2 O6 2.099260 1_565
Fe2 O4 2.099260 1_655
Fe2 O7 2.099264 1_665
Fe3 O0 2.013910 1_555
Fe3 O3 2.013914 1_565
Fe3 O2 2.013914 1_556
Fe3 O4 2.099260 1_556
Fe3 O5 2.099260 1_565
Fe3 O7 2.099264 1_566
Fe4 O2 2.013910 1_556
Fe4 O3 2.013910 1_565
Fe4 O1 2.013910 1_655
Fe4 O5 2.099264 1_665
Fe4 O6 2.099264 1_566
Fe4 O4 2.099264 1_656
Cu0 O0 2.022391 1_555
Cu0 O3 2.022391 1_555
Cu0 O2 2.022391 1_555
Cu0 O1 2.022391 1_555
