# generated using pymatgen
data_Zr8Co2TcOs
_symmetry_space_group_name_H-M   'P 1'
_cell_length_a   8.66501866
_cell_length_b   8.66501830
_cell_length_c   8.65639181
_cell_angle_alpha   60.03293098
_cell_angle_beta   60.03293236
_cell_angle_gamma   60.03257918
_symmetry_Int_Tables_number   1
_chemical_formula_structural   Zr8Co2TcOs
_chemical_formula_sum   'Zr16 Co4 Tc2 Os2'
_cell_volume   459.92160728
_cell_formula_units_Z   2
loop_
 _symmetry_equiv_pos_site_id
 _symmetry_equiv_pos_as_xyz
  1  'x, y, z'
loop_
 _atom_site_type_symbol
 _atom_site_label
 _atom_site_symmetry_multiplicity
 _atom_site_fract_x
 _atom_site_fract_y
 _atom_site_fract_z
 _atom_site_occupancy
  Zr  Zr0  1  0.05107699  0.64963697  0.64964352  1
  Zr  Zr1  1  0.64963697  0.05107699  0.64964352  1
  Zr  Zr2  1  0.64956707  0.64956707  0.05152888  1
  Zr  Zr3  1  0.64956707  0.64956707  0.64933899  1
  Zr  Zr4  1  0.79668728  0.79668728  0.20331272  1
  Zr  Zr5  1  0.20226463  0.20226463  0.79773537  1
  Zr  Zr6  1  0.79745262  0.20283022  0.79675827  1
  Zr  Zr7  1  0.20283022  0.79745262  0.20295789  1
  Zr  Zr8  1  0.20283022  0.79745262  0.79675827  1
  Zr  Zr9  1  0.79745262  0.20283022  0.20295789  1
  Zr  Zr10  1  0.43522551  0.43522551  0.06477449  1
  Zr  Zr11  1  0.06409646  0.06409646  0.43590354  1
  Zr  Zr12  1  0.43554009  0.06496161  0.43547402  1
  Zr  Zr13  1  0.06496161  0.43554009  0.06402328  1
  Zr  Zr14  1  0.06496161  0.43554009  0.43547402  1
  Zr  Zr15  1  0.43554009  0.06496161  0.06402328  1
  Co  Co0  1  0.41929175  0.85997123  0.86036801  1
  Co  Co1  1  0.85997123  0.41929175  0.86036801  1
  Co  Co2  1  0.86002077  0.86002077  0.41966272  1
  Co  Co3  1  0.86002077  0.86002077  0.86029473  1
  Tc  Tc0  1  0.41831558  0.41831558  0.74504154  1
  Tc  Tc1  1  0.41831558  0.41831558  0.41832830  1
  Os  Os0  1  0.74661724  0.41775804  0.41781236  1
  Os  Os1  1  0.41775804  0.74661724  0.41781236  1
loop_
_geom_bond_atom_site_label_1
_geom_bond_atom_site_label_2
_geom_bond_distance
_geom_bond_site_symmetry_2
Zr10 Zr3 3.151603 1_554
Zr10 Zr2 3.151612 1_555
Zr10 Zr12 3.210230 1_555
Zr10 Zr14 3.210230 1_555
Zr10 Zr15 3.210234 1_555
Zr10 Zr13 3.210235 1_555
Zr10 Zr7 3.219852 1_555
Zr10 Zr9 3.219852 1_555
Zr10 Zr8 3.219857 1_554
Zr10 Zr6 3.219857 1_554
Co0 Zr8 2.541561 1_555
Co0 Zr7 2.541561 1_556
Co0 Zr5 2.543100 1_565
Co0 Zr3 2.587245 1_555
Co0 Zr2 2.587263 1_556
Co0 Zr1 2.588513 1_565
Co0 Zr10 3.150578 1_556
Co1 Zr6 2.541561 1_555
Co1 Zr9 2.541561 1_556
Co1 Zr5 2.543101 1_655
Co1 Zr3 2.587245 1_555
Co1 Zr2 2.587263 1_556
Co1 Zr0 2.588513 1_655
Co1 Zr10 3.150578 1_556
Co2 Zr4 2.542463 1_555
Co2 Zr9 2.544980 1_565
Co2 Zr7 2.544980 1_655
Co2 Zr0 2.584414 1_655
Co2 Zr1 2.584414 1_565
Co2 Zr3 2.584948 1_555
Co3 Zr4 2.542471 1_556
Co3 Zr6 2.544980 1_565
Co3 Zr8 2.544980 1_655
Co3 Zr0 2.584402 1_655
Co3 Zr1 2.584402 1_565
Co3 Zr2 2.584947 1_556
Tc0 Tc1 2.828158 1_555
Tc0 Zr15 2.920721 1_556
Tc0 Zr13 2.920721 1_556
Tc0 Zr10 2.921474 1_556
Tc0 Zr8 2.997606 1_555
Tc0 Zr6 2.997606 1_555
Tc0 Zr5 3.002093 1_555
Tc0 Zr3 3.067774 1_555
Tc0 Zr1 3.070039 1_555
Tc0 Zr0 3.070039 1_555
Tc1 Zr12 2.920729 1_555
Tc1 Zr14 2.920729 1_555
Tc1 Zr10 2.921483 1_555
Tc1 Zr7 2.997612 1_555
Tc1 Zr9 2.997612 1_555
Tc1 Zr5 3.002089 1_555
Tc1 Zr2 3.067771 1_555
Tc1 Zr1 3.070039 1_555
Tc1 Zr0 3.070040 1_555
Os0 Tc1 2.840104 1_555
Os0 Tc0 2.840108 1_555
Os0 Os1 2.850974 1_555
Os0 Zr11 2.917595 1_655
Os0 Zr14 2.919875 1_655
Os0 Zr13 2.919880 1_655
Os0 Zr6 2.990610 1_555
Os0 Zr9 2.990617 1_555
Os0 Zr4 2.990752 1_555
Os0 Zr2 3.067393 1_555
Os0 Zr3 3.067408 1_555
Os0 Zr1 3.072693 1_555
Os1 Tc1 2.840103 1_555
Os1 Tc0 2.840108 1_555
Os1 Zr11 2.917595 1_565
Os1 Zr12 2.919875 1_565
Os1 Zr15 2.919880 1_565
Os1 Zr8 2.990610 1_555
Os1 Zr7 2.990617 1_555
Os1 Zr4 2.990752 1_555
Os1 Zr2 3.067393 1_555
Os1 Zr3 3.067408 1_555
Os1 Zr0 3.072693 1_555
