# generated using pymatgen
data_Rb2BeCl4
_symmetry_space_group_name_H-M   'P 1'
_cell_length_a   6.95790820
_cell_length_b   9.19019149
_cell_length_c   12.18147331
_cell_angle_alpha   90.00000000
_cell_angle_beta   90.00000000
_cell_angle_gamma   90.00000000
_symmetry_Int_Tables_number   1
_chemical_formula_structural   Rb2BeCl4
_chemical_formula_sum   'Rb8 Be4 Cl16'
_cell_volume   778.93832696
_cell_formula_units_Z   4
loop_
 _symmetry_equiv_pos_site_id
 _symmetry_equiv_pos_as_xyz
  1  'x, y, z'
loop_
 _atom_site_type_symbol
 _atom_site_label
 _atom_site_symmetry_multiplicity
 _atom_site_fract_x
 _atom_site_fract_y
 _atom_site_fract_z
 _atom_site_occupancy
  Rb  Rb0  1  0.75000000  0.52022519  0.32467952  1
  Rb  Rb1  1  0.25000000  0.47977481  0.67532048  1
  Rb  Rb2  1  0.25000000  0.97977481  0.82467952  1
  Rb  Rb3  1  0.75000000  0.02022519  0.17532048  1
  Rb  Rb4  1  0.75000000  0.85715663  0.59881695  1
  Rb  Rb5  1  0.25000000  0.14284337  0.40118305  1
  Rb  Rb6  1  0.25000000  0.64284337  0.09881695  1
  Rb  Rb7  1  0.75000000  0.35715663  0.90118305  1
  Be  Be0  1  0.75000000  0.76118916  0.92065191  1
  Be  Be1  1  0.25000000  0.23881084  0.07934809  1
  Be  Be2  1  0.25000000  0.73881084  0.42065191  1
  Be  Be3  1  0.75000000  0.26118916  0.57934809  1
  Cl  Cl0  1  0.98771715  0.67989060  0.84644730  1
  Cl  Cl1  1  0.01228285  0.32010940  0.15355270  1
  Cl  Cl2  1  0.01228285  0.82010940  0.34644730  1
  Cl  Cl3  1  0.48771715  0.32010940  0.15355270  1
  Cl  Cl4  1  0.98771715  0.17989060  0.65355270  1
  Cl  Cl5  1  0.51228285  0.67989060  0.84644730  1
  Cl  Cl6  1  0.51228285  0.17989060  0.65355270  1
  Cl  Cl7  1  0.48771715  0.82010940  0.34644730  1
  Cl  Cl8  1  0.75000000  0.98152613  0.90598854  1
  Cl  Cl9  1  0.25000000  0.01847387  0.09401146  1
  Cl  Cl10  1  0.25000000  0.51847387  0.40598854  1
  Cl  Cl11  1  0.75000000  0.48152613  0.59401146  1
  Cl  Cl12  1  0.75000000  0.19038346  0.42095090  1
  Cl  Cl13  1  0.25000000  0.80961654  0.57904910  1
  Cl  Cl14  1  0.25000000  0.30961654  0.92095090  1
  Cl  Cl15  1  0.75000000  0.69038346  0.07904910  1
loop_
_geom_bond_atom_site_label_1
_geom_bond_atom_site_label_2
_geom_bond_distance
_geom_bond_site_symmetry_2
Be0 Cl5 2.027577 1_555
Be0 Cl0 2.027577 1_555
Be0 Cl8 2.032802 1_555
Be0 Cl15 2.036283 1_556
Be1 Cl1 2.027577 1_555
Be1 Cl3 2.027577 1_555
Be1 Cl9 2.032802 1_555
Be1 Cl14 2.036283 1_554
Be2 Cl2 2.027577 1_555
Be2 Cl7 2.027577 1_555
Be2 Cl10 2.032802 1_555
Be2 Cl13 2.036283 1_555
Be3 Cl6 2.027577 1_555
Be3 Cl4 2.027577 1_555
Be3 Cl11 2.032802 1_555
Be3 Cl12 2.036283 1_555
Cl0 Rb2 3.316054 1_655
Cl0 Rb1 3.325382 1_655
Cl0 Rb7 3.460840 1_555
Cl0 Rb6 3.591273 1_656
Cl1 Rb3 3.316054 1_455
Cl1 Rb0 3.325382 1_455
Cl1 Rb6 3.460840 1_555
Cl1 Rb7 3.591273 1_454
Cl2 Rb0 3.316054 1_455
Cl2 Rb3 3.325382 1_465
Cl2 Rb5 3.460840 1_565
Cl2 Rb4 3.591273 1_455
Cl3 Rb3 3.316054 1_555
Cl3 Rb0 3.325382 1_555
Cl3 Rb6 3.460840 1_555
Cl3 Rb7 3.591273 1_554
Cl4 Rb1 3.316054 1_655
Cl4 Rb2 3.325382 1_645
Cl4 Rb4 3.460840 1_545
Cl4 Rb5 3.591273 1_655
Cl5 Rb2 3.316054 1_555
Cl5 Rb1 3.325382 1_555
Cl5 Rb7 3.460840 1_555
Cl5 Rb6 3.591273 1_556
Cl6 Rb1 3.316054 1_555
Cl6 Rb2 3.325382 1_545
Cl6 Rb4 3.460840 1_545
Cl6 Rb5 3.591273 1_555
Cl7 Rb0 3.316054 1_555
Cl7 Rb3 3.325382 1_565
Cl7 Rb5 3.460840 1_565
Cl7 Rb4 3.591273 1_555
Cl8 Rb3 3.300080 1_566
Cl8 Rb7 3.452612 1_565
Cl8 Rb2 3.617236 1_655
Cl8 Rb2 3.617236 1_555
Cl9 Rb2 3.300080 1_544
Cl9 Rb6 3.452612 1_545
Cl9 Rb3 3.617236 1_555
Cl9 Rb3 3.617236 1_455
Cl10 Rb1 3.300080 1_555
Cl10 Rb5 3.452612 1_555
Cl10 Rb0 3.617236 1_455
Cl10 Rb0 3.617236 1_555
Cl11 Rb0 3.300080 1_555
Cl11 Rb4 3.452612 1_555
Cl11 Rb1 3.617236 1_555
Cl11 Rb1 3.617236 1_655
Cl12 Rb0 3.250249 1_555
Cl12 Rb3 3.376142 1_555
Cl12 Rb5 3.514540 1_555
Cl12 Rb5 3.514540 1_655
Cl13 Rb1 3.250249 1_555
Cl13 Rb2 3.376142 1_555
Cl13 Rb4 3.514540 1_455
Cl13 Rb4 3.514540 1_555
Cl14 Rb2 3.250249 1_545
Cl14 Rb1 3.376142 1_555
Cl14 Rb7 3.514540 1_555
Cl14 Rb7 3.514540 1_455
Cl15 Rb3 3.250249 1_565
Cl15 Rb0 3.376142 1_555
Cl15 Rb6 3.514540 1_655
Cl15 Rb6 3.514540 1_555
