# generated using pymatgen
data_AlZn2Ir3S8
_symmetry_space_group_name_H-M   'P 1'
_cell_length_a   6.99946981
_cell_length_b   6.99946969
_cell_length_c   6.99946951
_cell_angle_alpha   61.17994599
_cell_angle_beta   61.17995117
_cell_angle_gamma   61.17994212
_symmetry_Int_Tables_number   1
_chemical_formula_structural   AlZn2Ir3S8
_chemical_formula_sum   'Al1 Zn2 Ir3 S8'
_cell_volume   248.91934639
_cell_formula_units_Z   1
loop_
 _symmetry_equiv_pos_site_id
 _symmetry_equiv_pos_as_xyz
  1  'x, y, z'
loop_
 _atom_site_type_symbol
 _atom_site_label
 _atom_site_symmetry_multiplicity
 _atom_site_fract_x
 _atom_site_fract_y
 _atom_site_fract_z
 _atom_site_occupancy
  Al  Al0  1  0.12500000  0.12500000  0.12500000  1
  Zn  Zn0  1  0.74721885  0.74721885  0.74721885  1
  Zn  Zn1  1  0.50278115  0.50278115  0.50278115  1
  Ir  Ir0  1  0.12500000  0.12500000  0.62500000  1
  Ir  Ir1  1  0.12500000  0.62500000  0.12500000  1
  Ir  Ir2  1  0.62500000  0.12500000  0.12500000  1
  S  S0  1  0.33990636  0.88557703  0.88557703  1
  S  S1  1  0.36209406  0.36209406  0.36209406  1
  S  S2  1  0.88790594  0.88790594  0.88790594  1
  S  S3  1  0.91009364  0.36442297  0.36442297  1
  S  S4  1  0.36442297  0.91009364  0.36442297  1
  S  S5  1  0.36442297  0.36442297  0.91009364  1
  S  S6  1  0.88557703  0.33990636  0.88557703  1
  S  S7  1  0.88557703  0.88557703  0.33990636  1
loop_
_geom_bond_atom_site_label_1
_geom_bond_atom_site_label_2
_geom_bond_distance
_geom_bond_site_symmetry_2
Al0 S4 2.392992 1_545
Al0 S6 2.392992 1_454
Al0 S3 2.392993 1_455
Al0 S0 2.392993 1_544
Al0 S5 2.392993 1_554
Al0 S7 2.392993 1_445
Ir0 S1 2.379300 1_555
Ir0 S2 2.379300 1_445
Ir0 S0 2.380250 1_545
Ir0 S3 2.380250 1_455
Ir0 S6 2.380250 1_455
Ir0 S4 2.380250 1_545
Ir1 S1 2.379300 1_555
Ir1 S2 2.379300 1_454
Ir1 S7 2.380250 1_455
Ir1 S5 2.380250 1_554
Ir1 S0 2.380250 1_554
Ir1 S3 2.380250 1_455
Ir2 S1 2.379300 1_555
Ir2 S2 2.379300 1_544
Ir2 S7 2.380250 1_545
Ir2 S5 2.380250 1_554
Ir2 S6 2.380250 1_554
Ir2 S4 2.380250 1_545
S0 Zn0 2.363081 1_555
S1 Zn1 2.390364 1_555
S2 Zn0 2.390364 1_555
S3 Zn1 2.363081 1_555
S4 Zn1 2.363080 1_555
S5 Zn1 2.363081 1_555
S6 Zn0 2.363080 1_555
S7 Zn0 2.363081 1_555
