# generated using pymatgen
data_K2Rb6TiSb4
_symmetry_space_group_name_H-M   'P 1'
_cell_length_a   11.79154566
_cell_length_b   11.79154592
_cell_length_c   11.79154528
_cell_angle_alpha   60.00000180
_cell_angle_beta   60.00000108
_cell_angle_gamma   60.00000144
_symmetry_Int_Tables_number   1
_chemical_formula_structural   K2Rb6TiSb4
_chemical_formula_sum   'K4 Rb12 Ti2 Sb8'
_cell_volume   1159.30370321
_cell_formula_units_Z   2
loop_
 _symmetry_equiv_pos_site_id
 _symmetry_equiv_pos_as_xyz
  1  'x, y, z'
loop_
 _atom_site_type_symbol
 _atom_site_label
 _atom_site_symmetry_multiplicity
 _atom_site_fract_x
 _atom_site_fract_y
 _atom_site_fract_z
 _atom_site_occupancy
  K  K0  1  0.62500000  0.12500000  0.62500000  1
  K  K1  1  0.62500000  0.62500000  0.12500000  1
  K  K2  1  0.12500000  0.62500000  0.62500000  1
  K  K3  1  0.62500000  0.62500000  0.62500000  1
  Rb  Rb0  1  0.02710738  0.02710738  0.47289262  1
  Rb  Rb1  1  0.77710738  0.22289262  0.22289262  1
  Rb  Rb2  1  0.22289262  0.77710738  0.77710738  1
  Rb  Rb3  1  0.77710738  0.77710738  0.22289262  1
  Rb  Rb4  1  0.77710738  0.22289262  0.77710738  1
  Rb  Rb5  1  0.22289262  0.77710738  0.22289262  1
  Rb  Rb6  1  0.47289262  0.02710738  0.47289262  1
  Rb  Rb7  1  0.47289262  0.02710738  0.02710738  1
  Rb  Rb8  1  0.02710738  0.47289262  0.47289262  1
  Rb  Rb9  1  0.02710738  0.47289262  0.02710738  1
  Rb  Rb10  1  0.22289262  0.22289262  0.77710738  1
  Rb  Rb11  1  0.47289262  0.47289262  0.02710738  1
  Ti  Ti0  1  0.75000000  0.75000000  0.75000000  1
  Ti  Ti1  1  0.50000000  0.50000000  0.50000000  1
  Sb  Sb0  1  0.40424776  0.78725572  0.40424776  1
  Sb  Sb1  1  0.84575224  0.84575224  0.46274428  1
  Sb  Sb2  1  0.46274428  0.84575224  0.84575224  1
  Sb  Sb3  1  0.84575224  0.84575224  0.84575224  1
  Sb  Sb4  1  0.78725572  0.40424776  0.40424776  1
  Sb  Sb5  1  0.40424776  0.40424776  0.40424776  1
  Sb  Sb6  1  0.40424776  0.40424776  0.78725572  1
  Sb  Sb7  1  0.84575224  0.46274428  0.84575224  1
loop_
_geom_bond_atom_site_label_1
_geom_bond_atom_site_label_2
_geom_bond_distance
_geom_bond_site_symmetry_2
K0 Ti0 3.610409 1_545
K0 Ti1 3.610409 1_555
K0 Sb6 3.745268 1_555
K0 Sb1 3.745268 1_545
K0 Sb4 3.745268 1_555
K0 Sb2 3.745268 1_545
K0 Sb3 3.745275 1_545
K0 Sb5 3.745275 1_555
K1 Ti0 3.610409 1_554
K1 Ti1 3.610409 1_555
K1 Sb0 3.745267 1_555
K1 Sb7 3.745267 1_554
K1 Sb4 3.745267 1_555
K1 Sb2 3.745267 1_554
K1 Sb3 3.745275 1_554
K1 Sb5 3.745275 1_555
K2 Ti0 3.610409 1_455
K2 Ti1 3.610409 1_555
K2 Sb6 3.745268 1_555
K2 Sb1 3.745268 1_455
K2 Sb0 3.745268 1_555
K2 Sb7 3.745268 1_455
K2 Sb3 3.745275 1_455
K2 Sb5 3.745275 1_555
K3 Ti0 3.610409 1_555
K3 Ti1 3.610409 1_555
K3 Sb7 3.745277 1_555
K3 Sb0 3.745277 1_555
K3 Sb2 3.745277 1_555
K3 Sb4 3.745277 1_555
K3 Sb1 3.745277 1_555
K3 Sb6 3.745277 1_555
Rb0 Sb1 3.774270 1_445
Rb0 Sb3 3.774277 1_445
Rb0 Sb0 3.813501 1_545
Rb0 Sb4 3.813501 1_455
Rb1 Sb4 3.774270 1_555
Rb1 Sb5 3.774277 1_555
Rb1 Sb7 3.813501 1_554
Rb1 Sb1 3.813501 1_545
Rb2 Sb0 3.774280 1_555
Rb2 Sb6 3.774281 1_555
Rb2 Sb3 3.813498 1_455
Rb2 Sb2 3.813509 1_555
Rb3 Sb0 3.774280 1_555
Rb3 Sb4 3.774281 1_555
Rb3 Sb3 3.813498 1_554
Rb3 Sb1 3.813509 1_555
Rb4 Sb4 3.774280 1_555
Rb4 Sb6 3.774280 1_555
Rb4 Sb3 3.813498 1_545
Rb4 Sb7 3.813509 1_555
Rb5 Sb0 3.774270 1_555
Rb5 Sb5 3.774277 1_555
Rb5 Sb2 3.813501 1_554
Rb5 Sb1 3.813501 1_455
Rb6 Sb2 3.774280 1_545
Rb6 Sb1 3.774280 1_545
Rb6 Sb5 3.813498 1_555
Rb6 Sb0 3.813509 1_545
Rb7 Sb2 3.774270 1_544
Rb7 Sb3 3.774277 1_544
Rb7 Sb0 3.813501 1_545
Rb7 Sb6 3.813501 1_554
Rb8 Sb7 3.774280 1_455
Rb8 Sb1 3.774281 1_455
Rb8 Sb5 3.813498 1_555
Rb8 Sb4 3.813509 1_455
Rb9 Sb7 3.774270 1_454
Rb9 Sb3 3.774277 1_454
Rb9 Sb4 3.813501 1_455
Rb9 Sb6 3.813501 1_554
Rb10 Sb6 3.774270 1_555
Rb10 Sb5 3.774277 1_555
Rb10 Sb7 3.813501 1_455
Rb10 Sb2 3.813501 1_545
Rb11 Sb7 3.774280 1_554
Rb11 Sb2 3.774281 1_554
Rb11 Sb5 3.813498 1_555
Rb11 Sb6 3.813509 1_554
Sb0 Ti1 2.765628 1_555
Sb1 Ti0 2.765628 1_555
Sb2 Ti0 2.765628 1_555
Sb3 Ti0 2.765638 1_555
Sb4 Ti1 2.765628 1_555
Sb5 Ti1 2.765638 1_555
Sb6 Ti1 2.765628 1_555
Sb7 Ti0 2.765628 1_555
