# generated using pymatgen
data_Y4Mn2TcOs5
_symmetry_space_group_name_H-M   'P 1'
_cell_length_a   5.30492069
_cell_length_b   5.30492074
_cell_length_c   8.79947999
_cell_angle_alpha   90.00000000
_cell_angle_beta   90.00000000
_cell_angle_gamma   119.21486359
_symmetry_Int_Tables_number   1
_chemical_formula_structural   Y4Mn2TcOs5
_chemical_formula_sum   'Y4 Mn2 Tc1 Os5'
_cell_volume   216.13609231
_cell_formula_units_Z   1
loop_
 _symmetry_equiv_pos_site_id
 _symmetry_equiv_pos_as_xyz
  1  'x, y, z'
loop_
 _atom_site_type_symbol
 _atom_site_label
 _atom_site_symmetry_multiplicity
 _atom_site_fract_x
 _atom_site_fract_y
 _atom_site_fract_z
 _atom_site_occupancy
  Y  Y0  1  0.33276013  0.66723987  0.43187626  1
  Y  Y1  1  0.66618834  0.33381166  0.56940197  1
  Y  Y2  1  0.66618834  0.33381166  0.93059803  1
  Y  Y3  1  0.33276013  0.66723987  0.06812374  1
  Mn  Mn0  1  0.00091159  0.99908841  0.50498210  1
  Mn  Mn1  1  0.00091159  0.99908841  0.99501790  1
  Tc  Tc0  1  0.83063084  0.16936916  0.25000000  1
  Os  Os0  1  0.82959035  0.66146490  0.25000000  1
  Os  Os1  1  0.33853510  0.17040965  0.25000000  1
  Os  Os2  1  0.17205791  0.82794209  0.75000000  1
  Os  Os3  1  0.16968608  0.34022040  0.75000000  1
  Os  Os4  1  0.65977960  0.83031392  0.75000000  1
loop_
_geom_bond_atom_site_label_1
_geom_bond_atom_site_label_2
_geom_bond_distance
_geom_bond_site_symmetry_2
Y0 Y3 3.200833 1_555
Y0 Y1 3.282681 1_555
Y0 Y1 3.315354 1_455
Y0 Y1 3.315354 1_565
Y1 Y2 3.178337 1_555
Y2 Y3 3.282681 1_556
Y2 Y3 3.315354 1_656
Y2 Y3 3.315354 1_546
Mn0 Os2 2.664914 1_555
Mn0 Os4 2.672707 1_455
Mn0 Os3 2.672707 1_565
Mn0 Tc0 2.731810 1_465
Mn0 Os1 2.734801 1_565
Mn0 Os0 2.734801 1_455
Mn0 Y0 3.104404 1_555
Mn0 Y1 3.115337 1_465
Mn0 Y1 3.132480 1_565
Mn0 Y1 3.132480 1_455
Mn0 Y0 3.159938 1_455
Mn0 Y0 3.159938 1_565
Mn1 Os2 2.664914 1_555
Mn1 Os4 2.672707 1_455
Mn1 Os3 2.672707 1_565
Mn1 Tc0 2.731810 1_466
Mn1 Os1 2.734801 1_566
Mn1 Os0 2.734801 1_456
Mn1 Y3 3.104404 1_556
Mn1 Y2 3.115337 1_465
Mn1 Y2 3.132480 1_565
Mn1 Y2 3.132480 1_455
Mn1 Y3 3.159938 1_456
Mn1 Y3 3.159938 1_566
Tc0 Y0 3.124884 1_655
Tc0 Y3 3.124884 1_655
Tc0 Y0 3.124884 1_545
Tc0 Y3 3.124884 1_545
Tc0 Y1 3.188132 1_555
Tc0 Y2 3.188132 1_554
Os0 Tc0 2.613227 1_555
Os0 Os1 2.635862 1_555
Os0 Tc0 2.691702 1_565
Os0 Os1 2.731889 1_665
Os0 Y0 3.096404 1_555
Os0 Y3 3.096404 1_555
Os0 Y0 3.099593 1_655
Os0 Y3 3.099593 1_655
Os0 Y1 3.193925 1_555
Os0 Y2 3.193925 1_554
Os1 Tc0 2.613227 1_555
Os1 Tc0 2.691702 1_455
Os1 Y0 3.096404 1_555
Os1 Y3 3.096404 1_555
Os1 Y0 3.099593 1_545
Os1 Y3 3.099593 1_545
Os1 Y1 3.193925 1_555
Os1 Y2 3.193925 1_554
Os2 Os4 2.581207 1_555
Os2 Os3 2.581207 1_555
Os2 Os4 2.723759 1_455
Os2 Os3 2.723759 1_565
Os2 Y2 3.119540 1_455
Os2 Y1 3.119540 1_455
Os2 Y2 3.119540 1_565
Os2 Y1 3.119540 1_565
Os2 Y3 3.162156 1_556
Os2 Y0 3.162156 1_555
Os3 Os4 2.630700 1_555
Os3 Os4 2.737051 1_445
Os3 Y2 3.090547 1_555
Os3 Y1 3.090547 1_555
Os3 Y2 3.093912 1_455
Os3 Y1 3.093912 1_455
Os3 Y3 3.182634 1_556
Os3 Y0 3.182634 1_555
Os4 Y2 3.090547 1_555
Os4 Y1 3.090547 1_555
Os4 Y2 3.093912 1_565
Os4 Y1 3.093912 1_565
Os4 Y3 3.182634 1_556
Os4 Y0 3.182634 1_555
