# generated using pymatgen
data_TaNbVF12
_symmetry_space_group_name_H-M   'P 1'
_cell_length_a   5.09087034
_cell_length_b   5.52474578
_cell_length_c   8.90088109
_cell_angle_alpha   105.19385472
_cell_angle_beta   90.66747591
_cell_angle_gamma   118.48274900
_symmetry_Int_Tables_number   1
_chemical_formula_structural   TaNbVF12
_chemical_formula_sum   'Ta1 Nb1 V1 F12'
_cell_volume   209.57782372
_cell_formula_units_Z   1
loop_
 _symmetry_equiv_pos_site_id
 _symmetry_equiv_pos_as_xyz
  1  'x, y, z'
loop_
 _atom_site_type_symbol
 _atom_site_label
 _atom_site_symmetry_multiplicity
 _atom_site_fract_x
 _atom_site_fract_y
 _atom_site_fract_z
 _atom_site_occupancy
  Ta  Ta0  1  0.21574635  0.48446688  0.72931737  1
  Nb  Nb0  1  0.78368646  0.51686082  0.27235316  1
  V  V0  1  0.99902601  0.00082642  0.00103956  1
  F  F0  1  0.79796250  0.25302834  0.70431962  1
  F  F1  1  0.20506273  0.75169607  0.29375756  1
  F  F2  1  0.18608145  0.74183810  0.92568544  1
  F  F3  1  0.70789752  0.73075694  0.44969092  1
  F  F4  1  0.28818893  0.26606335  0.55619130  1
  F  F5  1  0.80561066  0.26263302  0.37060005  1
  F  F6  1  0.20318503  0.73636262  0.62963037  1
  F  F7  1  0.34174663  0.26206755  0.18521316  1
  F  F8  1  0.65305522  0.73478972  0.81234370  1
  F  F9  1  0.76458641  0.74290426  0.13184067  1
  F  F10  1  0.23579178  0.26067606  0.86650600  1
  F  F11  1  0.81237231  0.25502985  0.07151111  1
loop_
_geom_bond_atom_site_label_1
_geom_bond_atom_site_label_2
_geom_bond_distance
_geom_bond_site_symmetry_2
F0 Ta0 1.858511 1_655
F1 Nb0 1.878215 1_455
F2 Ta0 2.001964 1_555
F2 V0 2.053153 1_466
F3 Nb0 1.873020 1_555
F4 Ta0 1.851917 1_555
F5 Nb0 1.881750 1_555
F6 Ta0 1.859820 1_555
F7 Nb0 2.002830 1_555
F7 V0 2.026308 1_455
F8 Ta0 1.975961 1_555
F8 V0 2.061883 1_566
F9 Nb0 2.016169 1_555
F9 V0 2.022446 1_565
F10 Ta0 1.984681 1_555
F10 V0 2.057190 1_456
F11 V0 2.023296 1_555
F11 Nb0 2.040021 1_555
