# generated using pymatgen
data_Nb6Al(VNi)3
_symmetry_space_group_name_H-M   'P 1'
_cell_length_a   9.58645100
_cell_length_b   9.58645041
_cell_length_c   9.58644952
_cell_angle_alpha   29.96949184
_cell_angle_beta   29.96949710
_cell_angle_gamma   29.96948516
_symmetry_Int_Tables_number   1
_chemical_formula_structural   Nb6Al(VNi)3
_chemical_formula_sum   'Nb6 Al1 V3 Ni3'
_cell_volume   194.72383544
_cell_formula_units_Z   1
loop_
 _symmetry_equiv_pos_site_id
 _symmetry_equiv_pos_as_xyz
  1  'x, y, z'
loop_
 _atom_site_type_symbol
 _atom_site_label
 _atom_site_symmetry_multiplicity
 _atom_site_fract_x
 _atom_site_fract_y
 _atom_site_fract_z
 _atom_site_occupancy
  Nb  Nb0  1  0.83461981  0.83461981  0.83461981  1
  Nb  Nb1  1  0.16803165  0.16803165  0.16803165  1
  Nb  Nb2  1  0.65104356  0.65104356  0.65104356  1
  Nb  Nb3  1  0.34775955  0.34775955  0.34775955  1
  Nb  Nb4  1  0.55438642  0.55438642  0.55438642  1
  Nb  Nb5  1  0.45849468  0.45849468  0.45849468  1
  Al  Al0  1  0.99347242  0.99347242  0.99347242  1
  V  V0  1  0.41027400  0.90744664  0.90744664  1
  V  V1  1  0.90744664  0.90744664  0.41027400  1
  V  V2  1  0.90744664  0.41027400  0.90744664  1
  Ni  Ni0  1  0.58319218  0.09191623  0.09191623  1
  Ni  Ni1  1  0.09191623  0.09191623  0.58319218  1
  Ni  Ni2  1  0.09191623  0.58319218  0.09191623  1
loop_
_geom_bond_atom_site_label_1
_geom_bond_atom_site_label_2
_geom_bond_distance
_geom_bond_site_symmetry_2
Nb0 Ni0 2.813777 1_566
Nb0 Ni2 2.813777 1_656
Nb0 Ni1 2.813778 1_665
Nb0 Nb1 2.862146 1_656
Nb0 Nb1 2.862146 1_566
Nb0 Nb1 2.862147 1_665
Nb0 V1 2.920005 1_555
Nb0 V2 2.920005 1_555
Nb0 V0 2.920005 1_555
Nb0 Nb5 3.093768 1_565
Nb0 Nb5 3.093769 1_655
Nb0 Nb5 3.093770 1_556
Nb0 Nb4 3.211867 1_565
Nb0 Nb4 3.211867 1_556
Nb0 Nb4 3.211867 1_655
Nb1 Ni1 2.786402 1_555
Nb1 Ni2 2.786403 1_555
Nb1 Ni0 2.786403 1_555
Nb1 V0 2.929802 1_544
Nb1 V2 2.929802 1_454
Nb1 V1 2.929803 1_445
Nb1 Nb5 3.094587 1_545
Nb1 Nb5 3.094588 1_554
Nb1 Nb5 3.094588 1_455
Nb1 Nb4 3.210889 1_545
Nb1 Nb4 3.210890 1_455
Nb1 Nb4 3.210891 1_554
Nb2 Nb4 2.653011 1_555
Nb2 V0 2.866985 1_555
Nb2 V2 2.866985 1_555
Nb2 V1 2.866986 1_555
Nb2 Nb3 2.978614 1_565
Nb2 Nb3 2.978614 1_556
Nb2 Nb3 2.978614 1_655
Nb2 Ni1 3.007291 1_655
Nb2 Ni0 3.007291 1_565
Nb2 Ni1 3.007291 1_565
Nb2 Ni2 3.007291 1_655
Nb2 Ni0 3.007292 1_556
Nb2 Ni2 3.007292 1_556
Nb3 Ni0 2.892303 1_555
Nb3 Ni2 2.892304 1_555
Nb3 Ni1 2.892304 1_555
Nb3 V1 2.985519 1_455
Nb3 V0 2.985519 1_545
Nb3 V1 2.985520 1_545
Nb3 V2 2.985520 1_455
Nb3 V0 2.985520 1_554
Nb3 V2 2.985521 1_554
Nb3 Nb5 3.039419 1_555
Nb4 Nb5 2.632003 1_555
Nb4 Ni1 2.654726 1_565
Nb4 Ni1 2.654727 1_655
Nb4 Ni0 2.654727 1_556
Nb4 Ni2 2.654727 1_556
Nb4 Ni0 2.654727 1_565
Nb4 Ni2 2.654728 1_655
Nb5 V1 2.834672 1_545
Nb5 V0 2.834672 1_554
Nb5 V1 2.834672 1_455
Nb5 V2 2.834673 1_554
Nb5 V0 2.834673 1_545
Nb5 V2 2.834673 1_455
Al0 Ni1 2.435534 1_665
Al0 Ni2 2.435534 1_656
Al0 Ni0 2.435535 1_566
Al0 V1 2.661866 1_556
Al0 V2 2.661866 1_565
Al0 V0 2.661866 1_655
Al0 Nb2 2.873012 1_565
Al0 Nb2 2.873013 1_655
Al0 Nb2 2.873013 1_556
Al0 Nb3 2.919358 1_656
Al0 Nb3 2.919358 1_566
Al0 Nb3 2.919359 1_665
V0 V2 2.464674 1_555
V0 V1 2.464675 1_555
V0 V2 2.492706 1_465
V0 V1 2.492707 1_456
V1 V2 2.464674 1_555
V1 V2 2.492707 1_564
Ni0 Ni2 2.435442 1_555
Ni0 Ni1 2.435443 1_555
Ni0 Ni2 2.521939 1_645
Ni0 Ni1 2.521939 1_654
Ni1 Ni2 2.435442 1_555
Ni1 Ni2 2.521939 1_546
