# generated using pymatgen
data_CaCdH6Ru
_symmetry_space_group_name_H-M   'P 1'
_cell_length_a   4.95580598
_cell_length_b   4.95580571
_cell_length_c   4.95580534
_cell_angle_alpha   59.99999585
_cell_angle_beta   59.99999765
_cell_angle_gamma   59.99998901
_symmetry_Int_Tables_number   1
_chemical_formula_structural   CaCdH6Ru
_chemical_formula_sum   'Ca1 Cd1 H6 Ru1'
_cell_volume   86.06523361
_cell_formula_units_Z   1
loop_
 _symmetry_equiv_pos_site_id
 _symmetry_equiv_pos_as_xyz
  1  'x, y, z'
loop_
 _atom_site_type_symbol
 _atom_site_label
 _atom_site_symmetry_multiplicity
 _atom_site_fract_x
 _atom_site_fract_y
 _atom_site_fract_z
 _atom_site_occupancy
  Ca  Ca0  1  0.75000000  0.75000000  0.75000000  1
  Cd  Cd0  1  0.25000000  0.25000000  0.25000000  1
  H  H0  1  0.75914902  0.75914902  0.24085098  1
  H  H1  1  0.24085098  0.75914902  0.24085098  1
  H  H2  1  0.75914902  0.24085098  0.24085098  1
  H  H3  1  0.24085098  0.24085098  0.75914902  1
  H  H4  1  0.75914902  0.24085098  0.75914902  1
  H  H5  1  0.24085098  0.75914902  0.75914902  1
  Ru  Ru0  1  0.00000000  0.00000000  0.00000000  1
loop_
_geom_bond_atom_site_label_1
_geom_bond_atom_site_label_2
_geom_bond_distance
_geom_bond_site_symmetry_2
Ca0 H3 2.478732 1_655
Ca0 H3 2.478732 1_565
Ca0 H2 2.478732 1_556
Ca0 H2 2.478732 1_565
Ca0 H0 2.478732 1_555
Ca0 H0 2.478732 1_556
Ca0 H1 2.478732 1_655
Ca0 H1 2.478732 1_556
Ca0 H4 2.478732 1_555
Ca0 H4 2.478732 1_565
Ca0 H5 2.478732 1_555
Ca0 H5 2.478733 1_655
Cd0 H0 2.478732 1_455
Cd0 H0 2.478732 1_545
Cd0 H5 2.478732 1_554
Cd0 H5 2.478732 1_545
Cd0 H3 2.478732 1_555
Cd0 H3 2.478732 1_554
Cd0 H4 2.478732 1_455
Cd0 H4 2.478732 1_554
Cd0 H1 2.478732 1_555
Cd0 H1 2.478732 1_545
Cd0 H2 2.478732 1_555
Cd0 H2 2.478733 1_455
H0 Ru0 1.688020 1_665
H1 Ru0 1.688020 1_565
H2 Ru0 1.688020 1_655
H3 Ru0 1.688020 1_556
H4 Ru0 1.688020 1_656
H5 Ru0 1.688020 1_566
