# generated using pymatgen
data_Tc3OsPb4O13
_symmetry_space_group_name_H-M   'P 1'
_cell_length_a   7.33415077
_cell_length_b   7.36701357
_cell_length_c   7.33415099
_cell_angle_alpha   60.14745185
_cell_angle_beta   59.99999905
_cell_angle_gamma   60.14744964
_symmetry_Int_Tables_number   1
_chemical_formula_structural   Tc3OsPb4O13
_chemical_formula_sum   'Tc3 Os1 Pb4 O13'
_cell_volume   280.82804851
_cell_formula_units_Z   1
loop_
 _symmetry_equiv_pos_site_id
 _symmetry_equiv_pos_as_xyz
  1  'x, y, z'
loop_
 _atom_site_type_symbol
 _atom_site_label
 _atom_site_symmetry_multiplicity
 _atom_site_fract_x
 _atom_site_fract_y
 _atom_site_fract_z
 _atom_site_occupancy
  Tc  Tc0  1  0.87476020  0.87453155  0.37594704  1
  Tc  Tc1  1  0.87476020  0.87453155  0.87476020  1
  Tc  Tc2  1  0.37594704  0.87453155  0.87476020  1
  Os  Os0  1  0.87444200  0.37667499  0.87444200  1
  Pb  Pb0  1  0.88344580  0.36995218  0.37330151  1
  Pb  Pb1  1  0.37330151  0.36995218  0.37330151  1
  Pb  Pb2  1  0.37330151  0.36995218  0.88344580  1
  Pb  Pb3  1  0.37527697  0.87416809  0.37527697  1
  O  O0  1  0.19982434  0.79725841  0.80309290  1
  O  O1  1  0.19982434  0.79725841  0.19982434  1
  O  O2  1  0.55353494  0.95236759  0.94056354  1
  O  O3  1  0.55353494  0.95236759  0.55353494  1
  O  O4  1  0.94056354  0.95236759  0.55353494  1
  O  O5  1  0.80309290  0.79725841  0.19982434  1
  O  O6  1  0.55969408  0.55947772  0.94041460  1
  O  O7  1  0.80371449  0.19769396  0.80371449  1
  O  O8  1  0.80371449  0.19769396  0.19487605  1
  O  O9  1  0.94041460  0.55947772  0.94041460  1
  O  O10  1  0.94041460  0.55947772  0.55969408  1
  O  O11  1  0.19487605  0.19769396  0.80371449  1
  O  O12  1  0.50156244  0.49531369  0.50156244  1
loop_
_geom_bond_atom_site_label_1
_geom_bond_atom_site_label_2
_geom_bond_distance
_geom_bond_site_symmetry_2
O0 Tc2 1.994430 1_555
O0 Tc1 1.994436 1_455
O0 Pb3 2.596204 1_555
O0 Pb2 2.606026 1_555
O1 Tc0 1.994435 1_455
O1 Tc2 1.994435 1_554
O1 Pb3 2.596197 1_555
O1 Pb1 2.606027 1_555
O2 Tc1 1.976277 1_555
O2 Tc2 1.976290 1_555
O2 Pb2 2.570826 1_565
O2 Pb3 2.638011 1_556
O3 Tc0 1.976280 1_555
O3 Tc2 1.976280 1_555
O3 Pb1 2.570826 1_565
O3 Pb3 2.638023 1_555
O4 Tc1 1.976277 1_555
O4 Tc0 1.976290 1_555
O4 Pb0 2.570826 1_565
O4 Pb3 2.638011 1_655
O5 Tc0 1.994430 1_555
O5 Tc1 1.994436 1_554
O5 Pb3 2.596203 1_555
O5 Pb0 2.606026 1_555
O6 Os0 1.952787 1_555
O6 Tc2 1.964031 1_555
O6 Pb2 2.654233 1_555
O6 Pb1 2.654233 1_556
O7 Os0 1.976779 1_555
O7 Tc1 2.003120 1_545
O7 Pb2 2.611891 1_555
O7 Pb0 2.611891 1_555
O8 Os0 1.976769 1_554
O8 Tc0 2.003120 1_545
O8 Pb1 2.611893 1_555
O8 Pb0 2.611904 1_555
O9 Os0 1.952787 1_555
O9 Tc1 1.964027 1_555
O9 Pb2 2.654232 1_655
O9 Pb0 2.654233 1_556
O10 Os0 1.952787 1_555
O10 Tc0 1.964031 1_555
O10 Pb1 2.654232 1_655
O10 Pb0 2.654233 1_555
O11 Os0 1.976769 1_455
O11 Tc2 2.003120 1_545
O11 Pb1 2.611893 1_555
O11 Pb2 2.611904 1_555
O12 Pb3 2.283929 1_555
O12 Pb0 2.288528 1_555
O12 Pb1 2.288528 1_555
O12 Pb2 2.288528 1_555
