# generated using pymatgen
data_Ca7ZrMn2N9
_symmetry_space_group_name_H-M   'P 1'
_cell_length_a   10.00335164
_cell_length_b   6.09448271
_cell_length_c   9.00552754
_cell_angle_alpha   88.15129202
_cell_angle_beta   90.00000000
_cell_angle_gamma   90.00000000
_symmetry_Int_Tables_number   1
_chemical_formula_structural   Ca7ZrMn2N9
_chemical_formula_sum   'Ca14 Zr2 Mn4 N18'
_cell_volume   548.73850142
_cell_formula_units_Z   2
loop_
 _symmetry_equiv_pos_site_id
 _symmetry_equiv_pos_as_xyz
  1  'x, y, z'
loop_
 _atom_site_type_symbol
 _atom_site_label
 _atom_site_symmetry_multiplicity
 _atom_site_fract_x
 _atom_site_fract_y
 _atom_site_fract_z
 _atom_site_occupancy
  Ca  Ca0  1  0.93248575  0.42806710  0.16573189  1
  Ca  Ca1  1  0.08173451  0.24686016  0.49561216  1
  Ca  Ca2  1  0.25000000  0.08955519  0.79866881  1
  Ca  Ca3  1  0.43248575  0.57193290  0.83426811  1
  Ca  Ca4  1  0.58173451  0.75313984  0.50438784  1
  Ca  Ca5  1  0.57992694  0.06550912  0.82548934  1
  Ca  Ca6  1  0.92007306  0.06550912  0.82548934  1
  Ca  Ca7  1  0.42007306  0.93449088  0.17451066  1
  Ca  Ca8  1  0.41826549  0.24686016  0.49561216  1
  Ca  Ca9  1  0.07992694  0.93449088  0.17451066  1
  Ca  Ca10  1  0.91826549  0.75313984  0.50438784  1
  Ca  Ca11  1  0.06751425  0.57193290  0.83426811  1
  Ca  Ca12  1  0.75000000  0.91044481  0.20133119  1
  Ca  Ca13  1  0.56751425  0.42806710  0.16573189  1
  Zr  Zr0  1  0.75000000  0.27434026  0.44433293  1
  Zr  Zr1  1  0.25000000  0.72565974  0.55566707  1
  Mn  Mn0  1  0.25000000  0.32463031  0.06778789  1
  Mn  Mn1  1  0.75000000  0.46612496  0.73198637  1
  Mn  Mn2  1  0.75000000  0.67536969  0.93221211  1
  Mn  Mn3  1  0.25000000  0.53387504  0.26801363  1
  N  N0  1  0.39950737  0.23295929  0.98650884  1
  N  N1  1  0.25000000  0.22362542  0.26844669  1
  N  N2  1  0.90861977  0.10716006  0.33905556  1
  N  N3  1  0.60723550  0.37641659  0.64073622  1
  N  N4  1  0.75000000  0.56306158  0.33185299  1
  N  N5  1  0.25000000  0.63334848  0.06887998  1
  N  N6  1  0.89276450  0.37641659  0.64073622  1
  N  N7  1  0.39276450  0.62358341  0.35926378  1
  N  N8  1  0.75000000  0.36665152  0.93112002  1
  N  N9  1  0.09138023  0.89283994  0.66094444  1
  N  N10  1  0.75000000  0.77637458  0.73155331  1
  N  N11  1  0.10723550  0.62358341  0.35926378  1
  N  N12  1  0.60049263  0.76704071  0.01349116  1
  N  N13  1  0.25000000  0.43693842  0.66814701  1
  N  N14  1  0.40861977  0.89283994  0.66094444  1
  N  N15  1  0.59138023  0.10716006  0.33905556  1
  N  N16  1  0.10049263  0.23295929  0.98650884  1
  N  N17  1  0.89950737  0.76704071  0.01349116  1
loop_
_geom_bond_atom_site_label_1
_geom_bond_atom_site_label_2
_geom_bond_distance
_geom_bond_site_symmetry_2
Ca0 N17 2.464460 1_555
Ca0 N2 2.474138 1_555
Ca0 N4 2.515285 1_555
Ca0 N16 2.639556 1_654
Ca0 N11 2.765353 1_655
Ca0 N8 2.826199 1_554
Ca1 N2 2.406025 1_455
Ca1 N6 2.443647 1_455
Ca1 N11 2.581124 1_555
Ca1 N9 2.583406 1_545
Ca1 N13 2.589500 1_555
Ca1 N1 2.656509 1_555
Ca2 N14 2.364160 1_545
Ca2 N9 2.364160 1_545
Ca2 N13 2.388147 1_555
Ca2 N0 2.440793 1_555
Ca2 N16 2.440793 1_555
Ca3 N0 2.464460 1_555
Ca3 N14 2.474138 1_555
Ca3 N13 2.515285 1_555
Ca3 N12 2.639556 1_556
Ca3 N3 2.765353 1_555
Ca3 N5 2.826199 1_556
Ca4 N14 2.406025 1_555
Ca4 N7 2.443647 1_555
Ca4 N3 2.581124 1_555
Ca4 N15 2.583406 1_565
Ca4 N4 2.589500 1_555
Ca4 N10 2.656509 1_555
Ca5 N12 2.453336 1_546
Ca5 N3 2.495954 1_555
Ca5 N14 2.518007 1_545
Ca5 N0 2.548910 1_555
Ca5 N10 2.609848 1_545
Ca5 N8 2.698206 1_555
Ca6 N17 2.453336 1_546
Ca6 N6 2.495954 1_555
Ca6 N9 2.518007 1_645
Ca6 N16 2.548910 1_655
Ca6 N10 2.609848 1_545
Ca6 N8 2.698206 1_555
Ca7 N0 2.453336 1_564
Ca7 N7 2.495954 1_555
Ca7 N15 2.518007 1_565
Ca7 N12 2.548910 1_555
Ca7 N1 2.609848 1_565
Ca7 N5 2.698206 1_555
Ca8 N15 2.406025 1_555
Ca8 N3 2.443647 1_555
Ca8 N7 2.581124 1_555
Ca8 N14 2.583406 1_545
Ca8 N13 2.589500 1_555
Ca8 N1 2.656509 1_555
Ca9 N16 2.453336 1_564
Ca9 N11 2.495954 1_555
Ca9 N2 2.518007 1_465
Ca9 N17 2.548910 1_455
Ca9 N1 2.609848 1_565
Ca9 N5 2.698206 1_555
Ca10 N9 2.406025 1_655
Ca10 N11 2.443647 1_655
Ca10 N6 2.581124 1_555
Ca10 N2 2.583406 1_565
Ca10 N4 2.589500 1_555
Ca10 N10 2.656509 1_555
Ca11 N16 2.464460 1_555
Ca11 N9 2.474138 1_555
Ca11 N13 2.515285 1_555
Ca11 N17 2.639556 1_456
Ca11 N6 2.765353 1_455
Ca11 N5 2.826199 1_556
Ca12 N2 2.364160 1_565
Ca12 N15 2.364160 1_565
Ca12 N4 2.388147 1_555
Ca12 N17 2.440793 1_555
Ca12 N12 2.440793 1_555
Ca13 N12 2.464460 1_555
Ca13 N15 2.474138 1_555
Ca13 N4 2.515285 1_555
Ca13 N0 2.639556 1_554
Ca13 N7 2.765353 1_555
Ca13 N8 2.826199 1_554
Mn0 N0 1.763810 1_554
Mn0 N16 1.763810 1_554
Mn0 N5 1.881820 1_555
Mn0 N1 1.890118 1_555
Mn1 N6 1.744338 1_555
Mn1 N3 1.744338 1_555
Mn1 N8 1.874385 1_555
Mn1 N10 1.890689 1_555
Mn2 N17 1.763810 1_556
Mn2 N12 1.763810 1_556
Mn2 N8 1.881820 1_555
Mn2 N10 1.890118 1_555
Mn3 N7 1.744338 1_555
Mn3 N11 1.744338 1_555
Mn3 N5 1.874385 1_555
Mn3 N1 1.890689 1_555
N2 Zr0 2.125323 1_555
N3 Zr0 2.371897 1_555
N4 Zr0 2.001816 1_555
N6 Zr0 2.371897 1_555
N7 Zr1 2.371897 1_555
N9 Zr1 2.125323 1_555
N11 Zr1 2.371897 1_555
N13 Zr1 2.001816 1_555
N14 Zr1 2.125323 1_555
N15 Zr0 2.125323 1_555
