# generated using pymatgen
data_Ba2AgBrO2
_symmetry_space_group_name_H-M   'P 1'
_cell_length_a   4.30848029
_cell_length_b   4.30848016
_cell_length_c   10.59176558
_cell_angle_alpha   89.99999850
_cell_angle_beta   101.73515204
_cell_angle_gamma   119.99999697
_symmetry_Int_Tables_number   1
_chemical_formula_structural   Ba2AgBrO2
_chemical_formula_sum   'Ba2 Ag1 Br1 O2'
_cell_volume   165.51119173
_cell_formula_units_Z   1
loop_
 _symmetry_equiv_pos_site_id
 _symmetry_equiv_pos_as_xyz
  1  'x, y, z'
loop_
 _atom_site_type_symbol
 _atom_site_label
 _atom_site_symmetry_multiplicity
 _atom_site_fract_x
 _atom_site_fract_y
 _atom_site_fract_z
 _atom_site_occupancy
  Ba  Ba0  1  0.49011038  0.74505519  0.23516657  1
  Ba  Ba1  1  0.50988862  0.25494481  0.76483343  1
  Ag  Ag0  1  0.00000100  0.50000000  0.50000000  1
  Br  Br0  1  0.00000000  0.00000000  0.00000000  1
  O  O0  1  0.86903318  0.43451659  0.30354877  1
  O  O1  1  0.13096782  0.56548441  0.69645123  1
loop_
_geom_bond_atom_site_label_1
_geom_bond_atom_site_label_2
_geom_bond_distance
_geom_bond_site_symmetry_2
Ba0 O0 2.585208 1_455
Ba0 O0 2.585215 1_555
Ba0 O0 2.585216 1_565
Ba0 Br0 3.471267 1_565
Ba0 Br0 3.471267 1_555
Ba0 Br0 3.471269 1_665
Ba1 O1 2.585212 1_555
Ba1 O1 2.585212 1_545
Ba1 O1 2.585215 1_655
Ba1 Br0 3.471266 1_556
Ba1 Br0 3.471267 1_666
Ba1 Br0 3.471270 1_656
Ag0 O0 2.022569 1_455
Ag0 O1 2.022569 1_555
