# generated using pymatgen
data_LuTa8MoS16
_symmetry_space_group_name_H-M   'P 1'
_cell_length_a   6.66328518
_cell_length_b   6.66328443
_cell_length_c   12.86215289
_cell_angle_alpha   90.00000000
_cell_angle_beta   90.00000000
_cell_angle_gamma   120.00000374
_symmetry_Int_Tables_number   1
_chemical_formula_structural   LuTa8MoS16
_chemical_formula_sum   'Lu1 Ta8 Mo1 S16'
_cell_volume   494.56233247
_cell_formula_units_Z   1
loop_
 _symmetry_equiv_pos_site_id
 _symmetry_equiv_pos_as_xyz
  1  'x, y, z'
loop_
 _atom_site_type_symbol
 _atom_site_label
 _atom_site_symmetry_multiplicity
 _atom_site_fract_x
 _atom_site_fract_y
 _atom_site_fract_z
 _atom_site_occupancy
  Lu  Lu0  1  0.00000000  0.00000000  0.00000000  1
  Ta  Ta0  1  0.50550551  0.49449449  0.73755513  1
  Ta  Ta1  1  0.01101103  0.50550551  0.26244487  1
  Ta  Ta2  1  0.49449449  0.98898897  0.26244487  1
  Ta  Ta3  1  0.50550551  0.01101103  0.73755513  1
  Ta  Ta4  1  0.98898897  0.49449449  0.73755513  1
  Ta  Ta5  1  0.49449449  0.50550551  0.26244487  1
  Ta  Ta6  1  0.00000000  0.00000000  0.73822488  1
  Ta  Ta7  1  0.00000000  0.00000000  0.26177512  1
  Mo  Mo0  1  0.00000000  0.00000000  0.50000000  1
  S  S0  1  0.83246847  0.16753153  0.38222523  1
  S  S1  1  0.83246847  0.66493695  0.38222523  1
  S  S2  1  0.33506305  0.16753153  0.38222523  1
  S  S3  1  0.66313469  0.83156835  0.85994034  1
  S  S4  1  0.16753153  0.33506305  0.61777477  1
  S  S5  1  0.16843165  0.83156835  0.85994034  1
  S  S6  1  0.16843165  0.33686531  0.85994034  1
  S  S7  1  0.83156835  0.16843165  0.14005966  1
  S  S8  1  0.33686531  0.16843165  0.14005966  1
  S  S9  1  0.66493695  0.83246847  0.61777477  1
  S  S10  1  0.33333300  0.66666700  0.13802924  1
  S  S11  1  0.66666700  0.33333300  0.61386680  1
  S  S12  1  0.66666700  0.33333300  0.86197076  1
  S  S13  1  0.33333300  0.66666700  0.38613320  1
  S  S14  1  0.83156835  0.66313469  0.14005966  1
  S  S15  1  0.16753153  0.83246847  0.61777477  1
loop_
_geom_bond_atom_site_label_1
_geom_bond_atom_site_label_2
_geom_bond_distance
_geom_bond_site_symmetry_2
Lu0 S7 2.650286 1_455
Lu0 S5 2.650286 1_544
Lu0 S14 2.650294 1_445
Lu0 S6 2.650294 1_554
Lu0 S8 2.650295 1_555
Lu0 S3 2.650295 1_444
Mo0 S1 2.456253 1_445
Mo0 S4 2.456253 1_555
Mo0 S15 2.456253 1_545
Mo0 S9 2.456253 1_445
Mo0 S0 2.456253 1_455
Mo0 S2 2.456253 1_555
S0 Ta7 2.477623 1_655
S0 Ta1 2.486220 1_655
S0 Ta2 2.486220 1_545
S1 Ta7 2.477623 1_665
S1 Ta1 2.486220 1_655
S1 Ta5 2.486220 1_555
S2 Ta7 2.477623 1_555
S2 Ta5 2.486220 1_555
S2 Ta2 2.486220 1_545
S3 Ta6 2.495923 1_665
S3 Ta3 2.503317 1_565
S3 Ta0 2.503326 1_555
S4 Ta6 2.477623 1_555
S4 Ta4 2.486220 1_455
S4 Ta0 2.486220 1_555
S5 Ta6 2.495914 1_565
S5 Ta4 2.503326 1_455
S5 Ta3 2.503326 1_565
S6 Ta6 2.495923 1_555
S6 Ta4 2.503317 1_455
S6 Ta0 2.503326 1_555
S7 Ta7 2.495914 1_655
S7 Ta1 2.503326 1_655
S7 Ta2 2.503326 1_545
S8 Ta7 2.495923 1_555
S8 Ta2 2.503317 1_545
S8 Ta5 2.503326 1_555
S9 Ta6 2.477623 1_665
S9 Ta0 2.486220 1_555
S9 Ta3 2.486220 1_565
S10 Ta2 2.453639 1_555
S10 Ta1 2.453639 1_555
S10 Ta5 2.453644 1_555
S11 Ta3 2.447548 1_555
S11 Ta4 2.447548 1_555
S11 Ta0 2.447553 1_555
S12 Ta3 2.453639 1_555
S12 Ta4 2.453639 1_555
S12 Ta0 2.453644 1_555
S13 Ta2 2.447548 1_555
S13 Ta1 2.447548 1_555
S13 Ta5 2.447553 1_555
S14 Ta7 2.495923 1_665
S14 Ta1 2.503317 1_655
S14 Ta5 2.503326 1_555
S15 Ta6 2.477623 1_565
S15 Ta4 2.486220 1_455
S15 Ta3 2.486220 1_565
