# generated using pymatgen
data_KNa3(In3Te5)4
_symmetry_space_group_name_H-M   'P 1'
_cell_length_a   10.94217762
_cell_length_b   10.94217776
_cell_length_c   10.94217882
_cell_angle_alpha   89.76656369
_cell_angle_beta   89.76656788
_cell_angle_gamma   89.76656193
_symmetry_Int_Tables_number   1
_chemical_formula_structural   KNa3(In3Te5)4
_chemical_formula_sum   'K1 Na3 In12 Te20'
_cell_volume   1310.08824410
_cell_formula_units_Z   1
loop_
 _symmetry_equiv_pos_site_id
 _symmetry_equiv_pos_as_xyz
  1  'x, y, z'
loop_
 _atom_site_type_symbol
 _atom_site_label
 _atom_site_symmetry_multiplicity
 _atom_site_fract_x
 _atom_site_fract_y
 _atom_site_fract_z
 _atom_site_occupancy
  K  K0  1  0.50000000  0.50000000  0.50000000  1
  Na  Na0  1  0.25822083  0.00000000  0.74177917  1
  Na  Na1  1  0.74177917  0.25822083  0.00000000  1
  Na  Na2  1  1.00000000  0.74177917  0.25822083  1
  In  In0  1  0.84325111  0.87542971  0.57271083  1
  In  In1  1  0.57271083  0.84325111  0.87542971  1
  In  In2  1  0.87542971  0.57271083  0.84325111  1
  In  In3  1  0.15674889  0.42728917  0.12457029  1
  In  In4  1  0.12457029  0.15674889  0.42728917  1
  In  In5  1  0.42728917  0.12457029  0.15674889  1
  In  In6  1  0.74932639  0.16778055  0.33827243  1
  In  In7  1  0.33827243  0.74932639  0.16778055  1
  In  In8  1  0.16778055  0.33827243  0.74932639  1
  In  In9  1  0.25067361  0.66172757  0.83221945  1
  In  In10  1  0.83221945  0.25067361  0.66172757  1
  In  In11  1  0.66172757  0.83221945  0.25067361  1
  Te  Te0  1  0.16670220  0.83329780  0.00000000  1
  Te  Te1  1  0.83329780  0.00000000  0.16670220  1
  Te  Te2  1  0.16992773  0.16992773  0.16992773  1
  Te  Te3  1  0.83007227  0.83007227  0.83007227  1
  Te  Te4  1  1.00000000  0.16670220  0.83329780  1
  Te  Te5  1  0.91441068  0.50000000  0.08558932  1
  Te  Te6  1  0.08558932  0.91441068  0.50000000  1
  Te  Te7  1  0.50000000  0.08558932  0.91441068  1
  Te  Te8  1  0.76351859  0.68103899  0.42838288  1
  Te  Te9  1  0.42838288  0.76351859  0.68103899  1
  Te  Te10  1  0.68103899  0.42838288  0.76351859  1
  Te  Te11  1  0.23648141  0.57161712  0.31896101  1
  Te  Te12  1  0.31896101  0.23648141  0.57161712  1
  Te  Te13  1  0.57161712  0.31896101  0.23648141  1
  Te  Te14  1  0.67019114  0.06926244  0.56851760  1
  Te  Te15  1  0.56851760  0.67019114  0.06926244  1
  Te  Te16  1  0.06926244  0.56851760  0.67019114  1
  Te  Te17  1  0.32980886  0.43148240  0.93073756  1
  Te  Te18  1  0.93073756  0.32980886  0.43148240  1
  Te  Te19  1  0.43148240  0.93073756  0.32980886  1
loop_
_geom_bond_atom_site_label_1
_geom_bond_atom_site_label_2
_geom_bond_distance
_geom_bond_site_symmetry_2
K0 Te11 3.587224 1_555
K0 Te10 3.587224 1_555
K0 Te8 3.587224 1_555
K0 Te12 3.587224 1_555
K0 Te9 3.587224 1_555
K0 Te13 3.587224 1_555
Na0 Te9 3.251003 1_545
Na0 Te12 3.251003 1_555
Na0 Te7 3.394077 1_555
Na0 Te6 3.394077 1_545
Na0 Te4 3.501912 1_455
Na0 Te0 3.501912 1_546
Na1 Te10 3.251004 1_554
Na1 Te13 3.251004 1_555
Na1 Te7 3.394077 1_554
Na1 Te5 3.394077 1_555
Na1 Te1 3.501912 1_555
Na1 Te4 3.501912 1_554
Na2 Te11 3.251003 1_655
Na2 Te8 3.251004 1_555
Na2 Te5 3.394077 1_555
Na2 Te6 3.394077 1_655
Na2 Te1 3.501912 1_565
Na2 Te0 3.501912 1_655
In0 Te8 2.798809 1_555
In0 Te6 2.799241 1_655
In0 Te14 2.837896 1_565
In0 Te3 2.860663 1_555
In1 Te9 2.798809 1_555
In1 Te7 2.799241 1_565
In1 Te15 2.837896 1_556
In1 Te3 2.860663 1_555
In2 Te10 2.798808 1_555
In2 Te5 2.799241 1_556
In2 Te16 2.837896 1_655
In2 Te3 2.860663 1_555
In3 Te11 2.798809 1_555
In3 Te5 2.799241 1_455
In3 Te17 2.837896 1_554
In3 Te2 2.860663 1_555
In4 Te12 2.798808 1_555
In4 Te6 2.799241 1_545
In4 Te18 2.837896 1_455
In4 Te2 2.860663 1_555
In5 Te13 2.798809 1_555
In5 Te7 2.799241 1_554
In5 Te19 2.837896 1_545
In5 Te2 2.860663 1_555
In6 Te13 2.781135 1_555
In6 Te1 2.781988 1_555
In6 Te18 2.860739 1_555
In6 Te14 2.868255 1_555
In7 Te11 2.781135 1_555
In7 Te0 2.781988 1_555
In7 Te19 2.860739 1_555
In7 Te15 2.868255 1_555
In8 Te12 2.781135 1_555
In8 Te4 2.781988 1_455
In8 Te17 2.860739 1_555
In8 Te16 2.868255 1_555
In9 Te9 2.781135 1_555
In9 Te0 2.781988 1_556
In9 Te16 2.860739 1_555
In9 Te17 2.868255 1_555
In10 Te10 2.781135 1_555
In10 Te4 2.781988 1_555
In10 Te14 2.860739 1_555
In10 Te18 2.868255 1_555
In11 Te8 2.781135 1_555
In11 Te1 2.781988 1_565
In11 Te15 2.860739 1_555
In11 Te19 2.868255 1_555
