# generated using pymatgen
data_ScTiCuS4
_symmetry_space_group_name_H-M   'P 1'
_cell_length_a   7.20761050
_cell_length_b   7.20761050
_cell_length_c   7.20761005
_cell_angle_alpha   120.67785037
_cell_angle_beta   119.44056849
_cell_angle_gamma   89.90082731
_symmetry_Int_Tables_number   1
_chemical_formula_structural   ScTiCuS4
_chemical_formula_sum   'Sc2 Ti2 Cu2 S8'
_cell_volume   264.48795824
_cell_formula_units_Z   2
loop_
 _symmetry_equiv_pos_site_id
 _symmetry_equiv_pos_as_xyz
  1  'x, y, z'
loop_
 _atom_site_type_symbol
 _atom_site_label
 _atom_site_symmetry_multiplicity
 _atom_site_fract_x
 _atom_site_fract_y
 _atom_site_fract_z
 _atom_site_occupancy
  Sc  Sc0  1  0.00000000  0.00000000  0.00000000  1
  Sc  Sc1  1  0.50000000  0.00000000  0.50000000  1
  Ti  Ti0  1  0.00000000  0.00000000  0.50000000  1
  Ti  Ti1  1  0.00000000  0.50000000  0.00000000  1
  Cu  Cu0  1  0.37457993  0.62457993  0.75000000  1
  Cu  Cu1  1  0.62542007  0.37542007  0.25000000  1
  S  S0  1  0.23813183  0.73901330  0.00088147  1
  S  S1  1  0.23813183  0.23725135  0.49911853  1
  S  S2  1  0.23258006  0.74782959  0.48475047  1
  S  S3  1  0.76308012  0.74782959  0.01524953  1
  S  S4  1  0.76186817  0.26098670  0.99911853  1
  S  S5  1  0.76186817  0.76274865  0.50088147  1
  S  S6  1  0.76741994  0.25217041  0.51524953  1
  S  S7  1  0.23691988  0.25217041  0.98475047  1
loop_
_geom_bond_atom_site_label_1
_geom_bond_atom_site_label_2
_geom_bond_distance
_geom_bond_site_symmetry_2
Cu0 S1 2.267321 1_555
Cu0 S0 2.267327 1_556
Cu0 S2 2.301746 1_555
Cu0 S3 2.301752 1_556
Cu1 S5 2.267321 1_555
Cu1 S4 2.267327 1_554
Cu1 S6 2.301746 1_555
Cu1 S7 2.301752 1_554
S0 Ti1 2.429410 1_555
S0 Sc1 2.544550 1_565
S0 Sc0 2.544550 1_565
S1 Ti0 2.429415 1_555
S1 Sc0 2.544550 1_555
S1 Sc1 2.544555 1_555
S2 Ti1 2.468283 1_555
S2 Ti0 2.468283 1_565
S2 Sc1 2.575009 1_565
S3 Ti1 2.468278 1_655
S3 Ti0 2.468283 1_665
S3 Sc0 2.575004 1_665
S4 Ti1 2.429410 1_656
S4 Sc1 2.544550 1_555
S4 Sc0 2.544550 1_656
S5 Ti0 2.429415 1_665
S5 Sc0 2.544550 1_666
S5 Sc1 2.544555 1_565
S6 Ti1 2.468283 1_656
S6 Ti0 2.468283 1_655
S6 Sc1 2.575009 1_555
S7 Ti1 2.468278 1_556
S7 Ti0 2.468283 1_555
S7 Sc0 2.575004 1_556
