# generated using pymatgen
data_Sr4Si5Rh9
_symmetry_space_group_name_H-M   'P 1'
_cell_length_a   11.45725825
_cell_length_b   11.45725762
_cell_length_c   11.45725824
_cell_angle_alpha   29.06511246
_cell_angle_beta   29.06511899
_cell_angle_gamma   29.06511646
_symmetry_Int_Tables_number   1
_chemical_formula_structural   Sr4Si5Rh9
_chemical_formula_sum   'Sr4 Si5 Rh9'
_cell_volume   313.97622301
_cell_formula_units_Z   1
loop_
 _symmetry_equiv_pos_site_id
 _symmetry_equiv_pos_as_xyz
  1  'x, y, z'
loop_
 _atom_site_type_symbol
 _atom_site_label
 _atom_site_symmetry_multiplicity
 _atom_site_fract_x
 _atom_site_fract_y
 _atom_site_fract_z
 _atom_site_occupancy
  Sr  Sr0  1  0.94922630  0.94922630  0.94922630  1
  Sr  Sr1  1  0.85167993  0.85167993  0.85167993  1
  Sr  Sr2  1  0.14832007  0.14832007  0.14832007  1
  Sr  Sr3  1  0.05077370  0.05077370  0.05077370  1
  Si  Si0  1  0.27865801  0.27865801  0.27865801  1
  Si  Si1  1  0.50000000  0.50000000  0.50000000  1
  Si  Si2  1  0.38664674  0.38664674  0.38664674  1
  Si  Si3  1  0.72134199  0.72134199  0.72134199  1
  Si  Si4  1  0.61335326  0.61335326  0.61335326  1
  Rh  Rh0  1  0.60115196  0.60115196  0.11297782  1
  Rh  Rh1  1  0.88702218  0.39884804  0.39884804  1
  Rh  Rh2  1  0.50000000  0.00000000  0.50000000  1
  Rh  Rh3  1  0.39884804  0.88702218  0.39884804  1
  Rh  Rh4  1  0.50000000  0.50000000  0.00000000  1
  Rh  Rh5  1  0.11297782  0.60115196  0.60115196  1
  Rh  Rh6  1  0.00000000  0.50000000  0.50000000  1
  Rh  Rh7  1  0.39884804  0.39884804  0.88702218  1
  Rh  Rh8  1  0.60115196  0.11297782  0.60115196  1
loop_
_geom_bond_atom_site_label_1
_geom_bond_atom_site_label_2
_geom_bond_distance
_geom_bond_site_symmetry_2
Sr0 Sr1 3.209014 1_555
Sr0 Sr3 3.340637 1_666
Sr2 Sr3 3.209014 1_555
Si0 Sr0 3.322211 1_454
Si0 Sr0 3.322211 1_445
Si0 Sr0 3.322211 1_544
Si2 Sr3 3.320781 1_565
Si2 Sr3 3.320782 1_556
Si2 Sr3 3.320782 1_655
Si3 Sr3 3.322211 1_656
Si3 Sr3 3.322211 1_665
Si3 Sr3 3.322211 1_566
Si4 Sr0 3.320781 1_545
Si4 Sr0 3.320782 1_554
Si4 Sr0 3.320782 1_455
Rh0 Si2 2.351185 1_555
Rh0 Si3 2.374468 1_554
Rh0 Si1 2.594096 1_555
Rh0 Rh8 2.806973 1_555
Rh0 Rh5 2.806973 1_555
Rh0 Rh8 2.942969 1_564
Rh0 Rh5 2.942969 1_654
Rh0 Sr1 3.130392 1_554
Rh0 Sr2 3.207671 1_565
Rh0 Sr2 3.207671 1_655
Rh0 Sr3 3.385311 1_655
Rh0 Sr3 3.385311 1_565
Rh1 Si4 2.351185 1_555
Rh1 Si0 2.374468 1_655
Rh1 Si1 2.594096 1_555
Rh1 Rh3 2.806973 1_555
Rh1 Rh7 2.806973 1_555
Rh1 Rh3 2.942969 1_645
Rh1 Rh7 2.942969 1_654
Rh1 Sr2 3.130393 1_655
Rh1 Sr1 3.207671 1_545
Rh1 Sr1 3.207671 1_554
Rh1 Sr0 3.385310 1_554
Rh1 Sr0 3.385311 1_545
Rh2 Si2 2.414789 1_555
Rh2 Si4 2.414789 1_545
Rh2 Si3 2.447523 1_545
Rh2 Si0 2.447523 1_555
Rh2 Sr3 3.324970 1_655
Rh2 Sr0 3.324970 1_445
Rh2 Sr3 3.324970 1_556
Rh2 Sr0 3.324970 1_544
Rh3 Si4 2.351185 1_555
Rh3 Si0 2.374467 1_565
Rh3 Si1 2.594096 1_555
Rh3 Rh7 2.806973 1_555
Rh3 Rh7 2.942969 1_564
Rh3 Sr2 3.130393 1_565
Rh3 Sr1 3.207671 1_455
Rh3 Sr1 3.207671 1_554
Rh3 Sr0 3.385311 1_554
Rh3 Sr0 3.385311 1_455
Rh4 Si2 2.414789 1_555
Rh4 Si4 2.414789 1_554
Rh4 Si3 2.447523 1_554
Rh4 Si0 2.447523 1_555
Rh4 Sr3 3.324969 1_565
Rh4 Sr0 3.324969 1_544
Rh4 Sr3 3.324969 1_655
Rh4 Sr0 3.324969 1_454
Rh5 Si2 2.351185 1_555
Rh5 Si3 2.374468 1_455
Rh5 Si1 2.594096 1_555
Rh5 Rh8 2.806973 1_555
Rh5 Rh8 2.942969 1_465
Rh5 Sr1 3.130393 1_455
Rh5 Sr2 3.207671 1_565
Rh5 Sr2 3.207671 1_556
Rh5 Sr3 3.385310 1_556
Rh5 Sr3 3.385311 1_565
Rh6 Si2 2.414789 1_555
Rh6 Si4 2.414789 1_455
Rh6 Si3 2.447524 1_455
Rh6 Si0 2.447524 1_555
Rh6 Sr3 3.324969 1_565
Rh6 Sr0 3.324969 1_445
Rh6 Sr3 3.324969 1_556
Rh6 Sr0 3.324969 1_454
Rh7 Si4 2.351185 1_555
Rh7 Si0 2.374468 1_556
Rh7 Si1 2.594096 1_555
Rh7 Sr2 3.130392 1_556
Rh7 Sr1 3.207671 1_545
Rh7 Sr1 3.207671 1_455
Rh7 Sr0 3.385311 1_455
Rh7 Sr0 3.385311 1_545
Rh8 Si2 2.351185 1_555
Rh8 Si3 2.374467 1_545
Rh8 Si1 2.594096 1_555
Rh8 Sr1 3.130393 1_545
Rh8 Sr2 3.207671 1_655
Rh8 Sr2 3.207671 1_556
Rh8 Sr3 3.385311 1_556
Rh8 Sr3 3.385311 1_655
