# generated using pymatgen
data_CsRb2AgO2
_symmetry_space_group_name_H-M   'P 1'
_cell_length_a   6.49768311
_cell_length_b   7.61735672
_cell_length_c   12.82849003
_cell_angle_alpha   90.00000000
_cell_angle_beta   90.00000000
_cell_angle_gamma   90.00000000
_symmetry_Int_Tables_number   1
_chemical_formula_structural   CsRb2AgO2
_chemical_formula_sum   'Cs4 Rb8 Ag4 O8'
_cell_volume   634.94829567
_cell_formula_units_Z   4
loop_
 _symmetry_equiv_pos_site_id
 _symmetry_equiv_pos_as_xyz
  1  'x, y, z'
loop_
 _atom_site_type_symbol
 _atom_site_label
 _atom_site_symmetry_multiplicity
 _atom_site_fract_x
 _atom_site_fract_y
 _atom_site_fract_z
 _atom_site_occupancy
  Cs  Cs0  1  0.20947380  0.75000000  0.90066843  1
  Cs  Cs1  1  0.79052620  0.25000000  0.09933157  1
  Cs  Cs2  1  0.70947380  0.25000000  0.59933157  1
  Cs  Cs3  1  0.29052620  0.75000000  0.40066843  1
  Rb  Rb0  1  0.16556279  0.99987176  0.63801632  1
  Rb  Rb1  1  0.66556279  0.49987176  0.86198368  1
  Rb  Rb2  1  0.33443721  0.99987176  0.13801632  1
  Rb  Rb3  1  0.66556279  0.00012824  0.86198368  1
  Rb  Rb4  1  0.16556279  0.50012824  0.63801632  1
  Rb  Rb5  1  0.33443721  0.50012824  0.13801632  1
  Rb  Rb6  1  0.83443721  0.00012824  0.36198368  1
  Rb  Rb7  1  0.83443721  0.49987176  0.36198368  1
  Ag  Ag0  1  0.68665540  0.75000000  0.62030826  1
  Ag  Ag1  1  0.18665540  0.25000000  0.87969174  1
  Ag  Ag2  1  0.31334460  0.25000000  0.37969174  1
  Ag  Ag3  1  0.81334460  0.75000000  0.12030826  1
  O  O0  1  0.57342666  0.75000000  0.02137830  1
  O  O1  1  0.07342666  0.25000000  0.47862170  1
  O  O2  1  0.54588938  0.25000000  0.27578430  1
  O  O3  1  0.42657334  0.25000000  0.97862170  1
  O  O4  1  0.92657334  0.75000000  0.52137830  1
  O  O5  1  0.45411062  0.75000000  0.72421570  1
  O  O6  1  0.95411062  0.25000000  0.77578430  1
  O  O7  1  0.04588938  0.75000000  0.22421570  1
loop_
_geom_bond_atom_site_label_1
_geom_bond_atom_site_label_2
_geom_bond_distance
_geom_bond_site_symmetry_2
Cs0 O5 2.765994 1_555
Cs0 O0 2.826738 1_556
Cs1 O2 2.765994 1_555
Cs1 O3 2.826738 1_554
Cs2 O6 2.765994 1_555
Cs2 O1 2.826738 1_655
Cs3 O7 2.765994 1_555
Cs3 O4 2.826738 1_455
Ag0 O4 2.010192 1_555
Ag0 O5 2.014932 1_555
Ag1 O3 2.010192 1_555
Ag1 O6 2.014932 1_455
Ag2 O1 2.010192 1_555
Ag2 O2 2.014932 1_555
Ag3 O0 2.010192 1_555
Ag3 O7 2.014932 1_655
O0 Rb1 2.858288 1_554
O0 Rb3 2.858288 1_564
O0 Rb5 2.876300 1_555
O0 Rb2 2.876300 1_555
O1 Rb0 2.858288 1_545
O1 Rb4 2.858288 1_555
O1 Rb6 2.876300 1_455
O1 Rb7 2.876300 1_455
O2 Rb7 2.891508 1_555
O2 Rb6 2.891508 1_555
O2 Rb2 2.939645 1_545
O2 Rb5 2.939645 1_555
O3 Rb2 2.858288 1_546
O3 Rb5 2.858288 1_556
O3 Rb3 2.876300 1_555
O3 Rb1 2.876300 1_555
O4 Rb6 2.858288 1_565
O4 Rb7 2.858288 1_555
O4 Rb4 2.876300 1_655
O4 Rb0 2.876300 1_655
O5 Rb4 2.891508 1_555
O5 Rb0 2.891508 1_555
O5 Rb1 2.939645 1_555
O5 Rb3 2.939645 1_565
O6 Rb1 2.891508 1_555
O6 Rb3 2.891508 1_555
O6 Rb0 2.939645 1_645
O6 Rb4 2.939645 1_655
O7 Rb5 2.891508 1_555
O7 Rb2 2.891508 1_555
O7 Rb7 2.939645 1_455
O7 Rb6 2.939645 1_465
