# generated using pymatgen
data_Cs2Nb6SnCl18
_symmetry_space_group_name_H-M   'P 1'
_cell_length_a   10.39211387
_cell_length_b   10.39211393
_cell_length_c   10.39211316
_cell_angle_alpha   54.84306588
_cell_angle_beta   54.84306411
_cell_angle_gamma   54.84306703
_symmetry_Int_Tables_number   1
_chemical_formula_structural   Cs2Nb6SnCl18
_chemical_formula_sum   'Cs2 Nb6 Sn1 Cl18'
_cell_volume   698.31011931
_cell_formula_units_Z   1
loop_
 _symmetry_equiv_pos_site_id
 _symmetry_equiv_pos_as_xyz
  1  'x, y, z'
loop_
 _atom_site_type_symbol
 _atom_site_label
 _atom_site_symmetry_multiplicity
 _atom_site_fract_x
 _atom_site_fract_y
 _atom_site_fract_z
 _atom_site_occupancy
  Cs  Cs0  1  0.27588939  0.27588939  0.27588939  1
  Cs  Cs1  1  0.72411061  0.72411061  0.72411061  1
  Nb  Nb0  1  0.41681296  0.29945129  0.64788106  1
  Nb  Nb1  1  0.35211894  0.58318704  0.70054871  1
  Nb  Nb2  1  0.70054871  0.35211894  0.58318704  1
  Nb  Nb3  1  0.64788106  0.41681296  0.29945129  1
  Nb  Nb4  1  0.58318704  0.70054871  0.35211894  1
  Nb  Nb5  1  0.29945129  0.64788106  0.41681296  1
  Sn  Sn0  1  0.00000000  0.00000000  0.00000000  1
  Cl  Cl0  1  0.63653509  0.09091783  0.77454373  1
  Cl  Cl1  1  0.77454373  0.63653509  0.09091783  1
  Cl  Cl2  1  0.09091783  0.77454373  0.63653509  1
  Cl  Cl3  1  0.83094031  0.31638103  0.04141827  1
  Cl  Cl4  1  0.16470900  0.43714625  0.57640211  1
  Cl  Cl5  1  0.68361897  0.95858173  0.16905969  1
  Cl  Cl6  1  0.90908217  0.22545627  0.36346491  1
  Cl  Cl7  1  0.56285375  0.42359789  0.83529100  1
  Cl  Cl8  1  0.42359789  0.83529100  0.56285375  1
  Cl  Cl9  1  0.95858173  0.16905969  0.68361897  1
  Cl  Cl10  1  0.16905969  0.68361897  0.95858173  1
  Cl  Cl11  1  0.04141827  0.83094031  0.31638103  1
  Cl  Cl12  1  0.31638103  0.04141827  0.83094031  1
  Cl  Cl13  1  0.22545627  0.36346491  0.90908217  1
  Cl  Cl14  1  0.57640211  0.16470900  0.43714625  1
  Cl  Cl15  1  0.43714625  0.57640211  0.16470900  1
  Cl  Cl16  1  0.36346491  0.90908217  0.22545627  1
  Cl  Cl17  1  0.83529100  0.56285375  0.42359789  1
loop_
_geom_bond_atom_site_label_1
_geom_bond_atom_site_label_2
_geom_bond_distance
_geom_bond_site_symmetry_2
Cl0 Nb2 2.470797 1_555
Cl0 Nb0 2.473940 1_555
Cl0 Cs1 3.659206 1_545
Cl1 Nb4 2.470797 1_555
Cl1 Nb3 2.473940 1_555
Cl1 Cs1 3.659206 1_554
Cl2 Nb1 2.470797 1_555
Cl2 Nb5 2.473940 1_555
Cl2 Cs1 3.659206 1_455
Cl3 Nb3 2.638286 1_555
Cl3 Sn0 2.861566 1_655
Cl3 Cs1 3.573163 1_554
Cl4 Nb0 2.482523 1_555
Cl4 Nb5 2.486283 1_555
Cl4 Cs0 3.679396 1_555
Cl4 Cs1 3.696889 1_455
Cl5 Nb4 2.638286 1_555
Cl5 Sn0 2.861566 1_665
Cl5 Cs0 3.573164 1_565
Cl6 Nb3 2.470797 1_555
Cl6 Nb2 2.473940 1_555
Cl6 Cs0 3.659206 1_655
Cl7 Nb2 2.482523 1_555
Cl7 Nb1 2.486283 1_555
Cl7 Cs1 3.679396 1_555
Cl7 Cs0 3.696889 1_556
Cl8 Nb1 2.482523 1_555
Cl8 Nb4 2.486283 1_555
Cl8 Cs1 3.679396 1_555
Cl8 Cs0 3.696889 1_565
Cl9 Nb2 2.638286 1_555
Cl9 Sn0 2.861566 1_656
Cl9 Cs0 3.573163 1_655
Cl10 Nb1 2.638286 1_555
Cl10 Sn0 2.861566 1_566
Cl10 Cs0 3.573163 1_556
Cl11 Nb5 2.638286 1_555
Cl11 Sn0 2.861566 1_565
Cl11 Cs1 3.573163 1_455
Cl12 Nb0 2.638286 1_555
Cl12 Sn0 2.861566 1_556
Cl12 Cs1 3.573164 1_545
Cl13 Nb0 2.470797 1_555
Cl13 Nb1 2.473940 1_555
Cl13 Cs0 3.659206 1_556
Cl14 Nb3 2.482523 1_555
Cl14 Nb0 2.486283 1_555
Cl14 Cs0 3.679396 1_555
Cl14 Cs1 3.696889 1_545
Cl15 Nb5 2.482523 1_555
Cl15 Nb3 2.486283 1_555
Cl15 Cs0 3.679396 1_555
Cl15 Cs1 3.696889 1_554
Cl16 Nb5 2.470797 1_555
Cl16 Nb4 2.473940 1_555
Cl16 Cs0 3.659206 1_565
Cl17 Nb4 2.482523 1_555
Cl17 Nb2 2.486283 1_555
Cl17 Cs1 3.679396 1_555
Cl17 Cs0 3.696889 1_655
