# generated using pymatgen
data_Ca3Ta2ZnN6
_symmetry_space_group_name_H-M   'P 1'
_cell_length_a   5.55603405
_cell_length_b   5.55603467
_cell_length_c   5.80675392
_cell_angle_alpha   99.17032061
_cell_angle_beta   99.17032675
_cell_angle_gamma   119.96859108
_symmetry_Int_Tables_number   1
_chemical_formula_structural   Ca3Ta2ZnN6
_chemical_formula_sum   'Ca3 Ta2 Zn1 N6'
_cell_volume   147.19417809
_cell_formula_units_Z   1
loop_
 _symmetry_equiv_pos_site_id
 _symmetry_equiv_pos_as_xyz
  1  'x, y, z'
loop_
 _atom_site_type_symbol
 _atom_site_label
 _atom_site_symmetry_multiplicity
 _atom_site_fract_x
 _atom_site_fract_y
 _atom_site_fract_z
 _atom_site_occupancy
  Ca  Ca0  1  0.83878474  0.16121526  0.50000000  1
  Ca  Ca1  1  0.16121526  0.83878474  0.50000000  1
  Ca  Ca2  1  0.50000000  0.50000000  0.50000000  1
  Ta  Ta0  1  0.33201889  0.66798111  0.00000000  1
  Ta  Ta1  1  0.66798111  0.33201889  1.00000000  1
  Zn  Zn0  1  0.00000000  0.00000000  0.00000000  1
  N  N0  1  0.42862428  0.07061091  0.21250043  1
  N  N1  1  0.92938909  0.57137572  0.78749957  1
  N  N2  1  0.57137572  0.92938909  0.78749957  1
  N  N3  1  0.07061091  0.42862428  0.21250043  1
  N  N4  1  0.71384494  0.71384494  0.21157728  1
  N  N5  1  0.28615506  0.28615506  0.78842272  1
loop_
_geom_bond_atom_site_label_1
_geom_bond_atom_site_label_2
_geom_bond_distance
_geom_bond_site_symmetry_2
Ca0 N0 2.367928 1_555
Ca0 N1 2.367928 1_555
Ca0 N5 2.458418 1_655
Ca0 N4 2.458418 1_545
Ca0 N2 2.493506 1_545
Ca0 N3 2.493506 1_655
Ca1 N2 2.367928 1_555
Ca1 N3 2.367928 1_555
Ca1 N4 2.458418 1_455
Ca1 N5 2.458418 1_565
Ca1 N0 2.493506 1_565
Ca1 N1 2.493506 1_455
Ca2 N5 2.342318 1_555
Ca2 N4 2.342318 1_555
Ca2 N1 2.492023 1_555
Ca2 N3 2.492023 1_555
Ca2 N2 2.492023 1_555
Ca2 N0 2.492023 1_555
N0 Ta0 2.127081 1_545
N0 Ta1 2.136639 1_554
N0 Zn0 2.307269 1_555
N1 Ta0 2.127081 1_656
N1 Ta1 2.136639 1_555
N1 Zn0 2.307270 1_666
N2 Ta1 2.127081 1_565
N2 Ta0 2.136639 1_556
N2 Zn0 2.307269 1_666
N3 Ta1 2.127081 1_454
N3 Ta0 2.136639 1_555
N3 Zn0 2.307270 1_555
N4 Ta0 2.145747 1_555
N4 Ta1 2.145747 1_554
N4 Zn0 2.298855 1_665
N5 Ta1 2.145747 1_555
N5 Ta0 2.145747 1_556
N5 Zn0 2.298855 1_556
