# generated using pymatgen
data_Ca6Re2SeN6
_symmetry_space_group_name_H-M   'P 1'
_cell_length_a   6.23568369
_cell_length_b   6.23568447
_cell_length_c   6.23568451
_cell_angle_alpha   95.30637972
_cell_angle_beta   95.30638065
_cell_angle_gamma   95.30637950
_symmetry_Int_Tables_number   1
_chemical_formula_structural   Ca6Re2SeN6
_chemical_formula_sum   'Ca6 Re2 Se1 N6'
_cell_volume   239.14158425
_cell_formula_units_Z   1
loop_
 _symmetry_equiv_pos_site_id
 _symmetry_equiv_pos_as_xyz
  1  'x, y, z'
loop_
 _atom_site_type_symbol
 _atom_site_label
 _atom_site_symmetry_multiplicity
 _atom_site_fract_x
 _atom_site_fract_y
 _atom_site_fract_z
 _atom_site_occupancy
  Ca  Ca0  1  0.61507133  0.11716382  0.79051049  1
  Ca  Ca1  1  0.11716382  0.79051049  0.61507133  1
  Ca  Ca2  1  0.79051049  0.61507133  0.11716382  1
  Ca  Ca3  1  0.38492867  0.88283618  0.20948951  1
  Ca  Ca4  1  0.88283618  0.20948951  0.38492867  1
  Ca  Ca5  1  0.20948951  0.38492867  0.88283618  1
  Re  Re0  1  0.62218266  0.62218266  0.62218266  1
  Re  Re1  1  0.37781734  0.37781734  0.37781734  1
  Se  Se0  1  0.00000000  0.00000000  0.00000000  1
  N  N0  1  0.72365199  0.85304088  0.46764121  1
  N  N1  1  0.85304088  0.46764121  0.72365199  1
  N  N2  1  0.46764121  0.72365199  0.85304088  1
  N  N3  1  0.27634801  0.14695912  0.53235879  1
  N  N4  1  0.14695912  0.53235879  0.27634801  1
  N  N5  1  0.53235879  0.27634801  0.14695912  1
loop_
_geom_bond_atom_site_label_1
_geom_bond_atom_site_label_2
_geom_bond_distance
_geom_bond_site_symmetry_2
Ca0 N5 2.467867 1_556
Ca0 N3 2.566341 1_555
Ca0 N1 2.614414 1_555
Ca0 N2 2.616187 1_545
Ca0 N0 2.658852 1_545
Ca0 Se0 2.814704 1_656
Ca1 N3 2.467867 1_565
Ca1 N4 2.566341 1_555
Ca1 N2 2.614414 1_555
Ca1 N0 2.616187 1_455
Ca1 N1 2.658852 1_455
Ca1 Se0 2.814704 1_566
Ca2 N4 2.467867 1_655
Ca2 N5 2.566341 1_555
Ca2 N0 2.614414 1_555
Ca2 N1 2.616187 1_554
Ca2 N2 2.658852 1_554
Ca2 Se0 2.814704 1_665
Ca3 N2 2.467867 1_554
Ca3 N0 2.566341 1_555
Ca3 N4 2.614414 1_555
Ca3 N5 2.616187 1_565
Ca3 N3 2.658852 1_565
Ca3 Se0 2.814704 1_565
Ca4 N0 2.467867 1_545
Ca4 N1 2.566341 1_555
Ca4 N5 2.614414 1_555
Ca4 N3 2.616187 1_655
Ca4 N4 2.658852 1_655
Ca4 Se0 2.814704 1_655
Ca5 N1 2.467867 1_455
Ca5 N2 2.566341 1_555
Ca5 N3 2.614414 1_555
Ca5 N4 2.616187 1_556
Ca5 N5 2.658852 1_556
Ca5 Se0 2.814704 1_556
N0 Re0 1.897957 1_555
N1 Re0 1.897957 1_555
N2 Re0 1.897957 1_555
N3 Re1 1.897957 1_555
N4 Re1 1.897957 1_555
N5 Re1 1.897957 1_555
