# generated using pymatgen
data_CdCu4BiO8
_symmetry_space_group_name_H-M   'P 1'
_cell_length_a   6.25282794
_cell_length_b   6.25282901
_cell_length_c   6.25282852
_cell_angle_alpha   125.67332858
_cell_angle_beta   125.67332645
_cell_angle_gamma   80.42571189
_symmetry_Int_Tables_number   1
_chemical_formula_structural   CdCu4BiO8
_chemical_formula_sum   'Cd1 Cu4 Bi1 O8'
_cell_volume   155.63982239
_cell_formula_units_Z   1
loop_
 _symmetry_equiv_pos_site_id
 _symmetry_equiv_pos_as_xyz
  1  'x, y, z'
loop_
 _atom_site_type_symbol
 _atom_site_label
 _atom_site_symmetry_multiplicity
 _atom_site_fract_x
 _atom_site_fract_y
 _atom_site_fract_z
 _atom_site_occupancy
  Cd  Cd0  1  0.00000000  0.00000000  0.00000000  1
  Cu  Cu0  1  0.37354348  0.62760164  0.25025225  1
  Cu  Cu1  1  0.37239836  0.62265061  0.74594184  1
  Cu  Cu2  1  0.87670877  0.62645652  0.25405816  1
  Cu  Cu3  1  0.37734939  0.12329123  0.74974775  1
  Bi  Bi0  1  0.75000000  0.25000000  0.50000000  1
  O  O0  1  0.17138166  0.59423385  0.86373730  1
  O  O1  1  0.73049755  0.30764536  0.13626270  1
  O  O2  1  0.34073533  0.97714441  0.91843788  1
  O  O3  1  0.69235464  0.82861834  0.42285218  1
  O  O4  1  0.05870653  0.42229744  0.08156212  1
  O  O5  1  0.40576615  0.26950245  0.57714782  1
  O  O6  1  0.02285559  0.94129347  0.36359191  1
  O  O7  1  0.57770256  0.65926467  0.63640809  1
loop_
_geom_bond_atom_site_label_1
_geom_bond_atom_site_label_2
_geom_bond_distance
_geom_bond_site_symmetry_2
Cd0 O7 2.429156 1_444
Cd0 O2 2.429157 1_544
Cd0 O4 2.429158 1_555
Cd0 O6 2.429164 1_545
Cd0 O1 2.439422 1_455
Cd0 O5 2.439424 1_555
Cd0 O3 2.439424 1_444
Cd0 O0 2.439424 1_544
Cu0 O0 1.849012 1_554
Cu0 O7 1.852144 1_555
Cu0 O3 1.860278 1_555
Cu0 O4 1.864283 1_555
Cu1 O5 1.849017 1_555
Cu1 O2 1.852149 1_555
Cu1 O0 1.860283 1_555
Cu1 O7 1.864289 1_555
Cu2 O3 1.849017 1_555
Cu2 O4 1.852149 1_655
Cu2 O1 1.860275 1_555
Cu2 O6 1.864280 1_655
Cu3 O1 1.849015 1_556
Cu3 O6 1.852147 1_545
Cu3 O5 1.860278 1_555
Cu3 O2 1.864283 1_545
Bi0 O0 2.436316 1_655
Bi0 O5 2.436317 1_555
Bi0 O3 2.436318 1_545
Bi0 O1 2.436324 1_555
Bi0 O6 2.458827 1_645
Bi0 O2 2.458829 1_544
Bi0 O4 2.458829 1_656
Bi0 O7 2.458829 1_555
