# generated using pymatgen
data_Lu12Fe(TcHg)2
_symmetry_space_group_name_H-M   'P 1'
_cell_length_a   8.14042677
_cell_length_b   8.14042794
_cell_length_c   8.14042713
_cell_angle_alpha   108.98183523
_cell_angle_beta   108.98184259
_cell_angle_gamma   110.45447846
_symmetry_Int_Tables_number   1
_chemical_formula_structural   Lu12Fe(TcHg)2
_chemical_formula_sum   'Lu12 Fe1 Tc2 Hg2'
_cell_volume   415.16774100
_cell_formula_units_Z   1
loop_
 _symmetry_equiv_pos_site_id
 _symmetry_equiv_pos_as_xyz
  1  'x, y, z'
loop_
 _atom_site_type_symbol
 _atom_site_label
 _atom_site_symmetry_multiplicity
 _atom_site_fract_x
 _atom_site_fract_y
 _atom_site_fract_z
 _atom_site_occupancy
  Lu  Lu0  1  0.30737913  0.30737913  0.61597120  1
  Lu  Lu1  1  0.69140694  0.69140694  0.38402880  1
  Lu  Lu2  1  0.69140694  0.30737913  1.00000000  1
  Lu  Lu3  1  0.30737913  0.69140694  0.00000000  1
  Lu  Lu4  1  0.18769409  0.43207165  0.24437756  1
  Lu  Lu5  1  0.81177532  0.56907997  0.75730465  1
  Lu  Lu6  1  0.18769409  0.94331553  0.75562244  1
  Lu  Lu7  1  0.94331553  0.18769409  0.75562244  1
  Lu  Lu8  1  0.81177532  0.05447168  0.24269535  1
  Lu  Lu9  1  0.05447168  0.81177532  0.24269535  1
  Lu  Lu10  1  0.43207165  0.18769409  0.24437756  1
  Lu  Lu11  1  0.56907997  0.81177532  0.75730465  1
  Fe  Fe0  1  0.63213112  0.63213112  0.00000000  1
  Tc  Tc0  1  0.37506630  0.37506630  1.00000000  1
  Tc  Tc1  1  0.99978108  0.99978108  1.00000000  1
  Hg  Hg0  1  0.99878535  0.49878535  0.50000000  1
  Hg  Hg1  1  0.49878535  0.99878535  0.50000000  1
loop_
_geom_bond_atom_site_label_1
_geom_bond_atom_site_label_2
_geom_bond_distance
_geom_bond_site_symmetry_2
Lu0 Tc0 2.815449 1_555
Lu1 Tc0 2.815445 1_554
Lu2 Tc0 2.815440 1_555
Lu3 Tc0 2.815441 1_554
Lu4 Tc0 2.892648 1_554
Lu4 Tc1 2.895671 1_444
Lu5 Tc1 2.883513 1_555
Lu6 Tc0 2.892655 1_565
Lu6 Tc1 2.895672 1_455
Lu7 Tc0 2.892654 1_655
Lu7 Tc1 2.895672 1_545
Lu8 Tc1 2.883514 1_544
Lu9 Tc1 2.883514 1_454
Lu10 Tc0 2.892648 1_554
Lu10 Tc1 2.895671 1_444
Lu11 Tc1 2.883513 1_555
Fe0 Tc0 2.386936 1_554
Fe0 Lu11 2.837182 1_554
Fe0 Lu5 2.837182 1_554
Fe0 Lu9 2.837188 1_655
Fe0 Lu8 2.837189 1_565
Fe0 Lu3 2.848356 1_555
Fe0 Lu2 2.848356 1_554
Fe0 Lu0 2.848360 1_554
Fe0 Lu1 2.848364 1_555
Hg0 Lu6 2.986638 1_655
Hg0 Lu4 2.986644 1_655
Hg0 Lu8 2.989252 1_555
Hg0 Lu5 2.989258 1_555
Hg0 Lu1 3.432115 1_555
Hg0 Lu0 3.432115 1_655
Hg0 Lu2 3.432116 1_554
Hg0 Lu3 3.432116 1_656
Hg0 Lu10 3.766588 1_555
Hg0 Lu7 3.766589 1_555
Hg0 Lu11 3.790318 1_655
Hg0 Lu9 3.790319 1_655
Hg1 Lu7 2.986637 1_565
Hg1 Lu10 2.986644 1_565
Hg1 Lu9 2.989251 1_555
Hg1 Lu11 2.989258 1_555
Hg1 Lu1 3.432115 1_555
Hg1 Lu0 3.432115 1_565
Hg1 Lu3 3.432117 1_555
Hg1 Lu2 3.432117 1_565
Hg1 Lu6 3.766589 1_555
Hg1 Lu4 3.766589 1_555
Hg1 Lu8 3.790319 1_565
Hg1 Lu5 3.790319 1_565
