# generated using pymatgen
data_CaMnSi2Os
_symmetry_space_group_name_H-M   'P 1'
_cell_length_a   5.93953310
_cell_length_b   5.93953336
_cell_length_c   5.93953391
_cell_angle_alpha   140.58629553
_cell_angle_beta   140.58629802
_cell_angle_gamma   56.96416091
_symmetry_Int_Tables_number   1
_chemical_formula_structural   CaMnSi2Os
_chemical_formula_sum   'Ca1 Mn1 Si2 Os1'
_cell_volume   83.76923377
_cell_formula_units_Z   1
loop_
 _symmetry_equiv_pos_site_id
 _symmetry_equiv_pos_as_xyz
  1  'x, y, z'
loop_
 _atom_site_type_symbol
 _atom_site_label
 _atom_site_symmetry_multiplicity
 _atom_site_fract_x
 _atom_site_fract_y
 _atom_site_fract_z
 _atom_site_occupancy
  Ca  Ca0  1  0.00000000  0.00000000  0.00000000  1
  Mn  Mn0  1  0.25000000  0.75000000  0.50000000  1
  Si  Si0  1  0.62210086  0.62210086  0.00000000  1
  Si  Si1  1  0.37789914  0.37789914  1.00000000  1
  Os  Os0  1  0.75000000  0.25000000  0.50000000  1
loop_
_geom_bond_atom_site_label_1
_geom_bond_atom_site_label_2
_geom_bond_distance
_geom_bond_site_symmetry_2
Ca0 Si0 3.106159 1_545
Ca0 Si1 3.106159 1_454
Ca0 Si0 3.106159 1_455
Ca0 Si1 3.106159 1_544
Ca0 Si0 3.106159 1_556
Ca0 Si1 3.106159 1_443
Ca0 Si0 3.106159 1_444
Ca0 Si1 3.106159 1_555
Ca0 Mn0 3.290172 1_444
Ca0 Os0 3.290172 1_555
Ca0 Os0 3.290172 1_444
Ca0 Mn0 3.290172 1_555
Ca0 Mn0 3.290172 1_544
Ca0 Os0 3.290172 1_455
Ca0 Mn0 3.290172 1_545
Ca0 Os0 3.290172 1_454
Mn0 Si0 2.407243 1_455
Mn0 Si1 2.407243 1_565
Mn0 Si0 2.407243 1_556
Mn0 Si1 2.407243 1_554
Mn0 Os0 2.832468 1_555
Mn0 Os0 2.832468 1_465
Mn0 Os0 2.832468 1_566
Mn0 Os0 2.832468 1_454
Si0 Si1 2.549783 1_554
Os0 Si1 2.407243 1_655
Os0 Si0 2.407243 1_545
Os0 Si1 2.407243 1_554
Os0 Si0 2.407243 1_556
