# generated using pymatgen
data_Zn11AgRu
_symmetry_space_group_name_H-M   'P 1'
_cell_length_a   7.85071142
_cell_length_b   7.85071097
_cell_length_c   7.88715785
_cell_angle_alpha   109.40300157
_cell_angle_beta   109.40299615
_cell_angle_gamma   109.42024671
_symmetry_Int_Tables_number   1
_chemical_formula_structural   Zn11AgRu
_chemical_formula_sum   'Zn22 Ag2 Ru2'
_cell_volume   375.07412040
_cell_formula_units_Z   2
loop_
 _symmetry_equiv_pos_site_id
 _symmetry_equiv_pos_as_xyz
  1  'x, y, z'
loop_
 _atom_site_type_symbol
 _atom_site_label
 _atom_site_symmetry_multiplicity
 _atom_site_fract_x
 _atom_site_fract_y
 _atom_site_fract_z
 _atom_site_occupancy
  Zn  Zn0  1  0.78158448  0.98783422  1.00000000  1
  Zn  Zn1  1  0.65260597  0.28846675  0.00000000  1
  Zn  Zn2  1  0.35264580  0.35264580  0.00000000  1
  Zn  Zn3  1  0.63927187  0.63927187  1.00000000  1
  Zn  Zn4  1  0.28846675  0.65260597  1.00000000  1
  Zn  Zn5  1  0.98783422  0.78158448  0.00000000  1
  Zn  Zn6  1  0.21641864  0.21641864  0.22278709  1
  Zn  Zn7  1  0.65954285  0.00831782  0.29075568  1
  Zn  Zn8  1  0.00831782  0.65954285  0.29075568  1
  Zn  Zn9  1  0.62210598  0.36251202  0.34986576  1
  Zn  Zn10  1  0.36251202  0.62210598  0.34986576  1
  Zn  Zn11  1  0.34344588  0.97653996  0.34407773  1
  Zn  Zn12  1  0.97653996  0.34344588  0.34407773  1
  Zn  Zn13  1  0.73976909  0.73976909  0.38715236  1
  Zn  Zn14  1  0.35261673  0.35261673  0.61284864  1
  Zn  Zn15  1  0.63246223  0.99936715  0.65592227  1
  Zn  Zn16  1  0.99936715  0.63246223  0.65592227  1
  Zn  Zn17  1  0.27224022  0.01264626  0.65013424  1
  Zn  Zn18  1  0.01264626  0.27224022  0.65013424  1
  Zn  Zn19  1  0.71756313  0.36878817  0.70924532  1
  Zn  Zn20  1  0.36878817  0.71756313  0.70924532  1
  Zn  Zn21  1  0.99363155  0.99363155  0.77721291  1
  Ag  Ag0  1  0.35654757  0.00210472  1.00000000  1
  Ag  Ag1  1  0.00210472  0.35654757  0.00000000  1
  Ru  Ru0  1  0.00365137  0.00365137  0.34632783  1
  Ru  Ru1  1  0.65732354  0.65732354  0.65367217  1
loop_
_geom_bond_atom_site_label_1
_geom_bond_atom_site_label_2
_geom_bond_distance
_geom_bond_site_symmetry_2
Zn0 Zn3 2.589092 1_555
Zn0 Zn15 2.620359 1_555
Zn0 Zn12 2.620363 1_566
Zn0 Zn5 2.643322 1_556
Zn0 Zn20 2.742266 1_555
Zn0 Zn7 2.742273 1_566
Zn0 Zn21 2.794148 1_555
Zn0 Zn6 2.794149 1_666
Zn0 Zn1 2.860940 1_566
Zn1 Zn2 2.566797 1_555
Zn1 Zn19 2.727737 1_554
Zn1 Zn8 2.727738 1_655
Zn1 Zn9 2.734151 1_555
Zn1 Zn17 2.734151 1_554
Zn1 Zn3 2.790623 1_554
Zn1 Zn12 2.815086 1_555
Zn1 Zn15 2.815090 1_544
Zn2 Zn4 2.566797 1_554
Zn2 Zn3 2.599963 1_554
Zn2 Zn6 2.666794 1_555
Zn2 Zn21 2.666794 1_444
Zn2 Zn9 2.822440 1_555
Zn3 Zn5 2.589092 1_556
Zn3 Zn4 2.790623 1_555
Zn3 Zn7 2.952094 1_566
Zn3 Zn8 2.952094 1_656
Zn4 Zn7 2.727738 1_566
Zn4 Zn5 2.860940 1_456
Zn5 Zn8 2.742273 1_655
Zn5 Zn6 2.794148 1_665
Zn6 Zn9 2.673935 1_555
Zn10 Zn15 2.601372 1_555
Zn10 Zn6 2.673935 1_555
Zn10 Zn4 2.734151 1_554
Zn10 Zn2 2.822440 1_555
Zn10 Zn11 2.850254 1_555
Zn10 Zn12 3.066494 1_455
Zn11 Zn7 2.597849 1_565
Zn11 Zn17 2.601377 1_565
Zn11 Zn5 2.620363 1_455
Zn11 Zn15 2.637928 1_555
Zn11 Zn6 2.695959 1_565
Zn11 Zn8 2.740021 1_555
Zn11 Zn4 2.815086 1_554
Zn11 Zn14 2.968967 1_565
Zn11 Zn19 2.979374 1_565
Zn11 Zn9 3.066494 1_565
Zn12 Zn8 2.597849 1_655
Zn12 Zn18 2.601377 1_655
Zn12 Zn16 2.637928 1_555
Zn12 Zn6 2.695959 1_655
Zn12 Zn7 2.740021 1_555
Zn12 Zn9 2.850255 1_555
Zn12 Zn14 2.968967 1_655
Zn12 Zn20 2.979374 1_655
Zn13 Zn21 2.572883 1_555
Zn13 Zn3 2.636984 1_554
Zn13 Zn15 2.968959 1_555
Zn13 Zn16 2.968960 1_555
Zn13 Zn2 3.053380 1_555
Zn14 Zn6 2.572890 1_555
Zn14 Zn3 2.636979 1_555
Zn14 Zn2 3.053372 1_556
Zn15 Zn19 2.597861 1_565
Zn15 Zn21 2.695955 1_555
Zn15 Zn20 2.740012 1_555
Zn15 Zn17 2.850257 1_565
Zn15 Zn7 2.979369 1_565
Zn15 Zn18 3.066497 1_665
Zn16 Zn20 2.597861 1_655
Zn16 Zn9 2.601373 1_555
Zn16 Zn5 2.620359 1_556
Zn16 Zn21 2.695955 1_555
Zn16 Zn19 2.740012 1_555
Zn16 Zn4 2.815090 1_655
Zn16 Zn18 2.850257 1_655
Zn16 Zn8 2.979369 1_655
Zn16 Zn17 3.066497 1_665
Zn17 Zn21 2.673935 1_445
Zn17 Zn2 2.822440 1_556
Zn18 Zn21 2.673935 1_445
Zn18 Zn4 2.734151 1_555
Zn18 Zn2 2.822441 1_556
Zn19 Zn5 2.742266 1_556
Zn19 Zn3 2.952090 1_555
Zn20 Zn4 2.727737 1_555
Zn20 Zn3 2.952090 1_555
Zn21 Zn5 2.794148 1_556
Zn21 Zn6 2.875140 1_666
Ag0 Zn4 2.615141 1_545
Ag0 Zn1 2.642276 1_556
Ag0 Zn9 2.652193 1_556
Ag0 Zn17 2.652193 1_555
Ag0 Zn20 2.672780 1_545
Ag0 Zn7 2.672784 1_556
Ag0 Zn2 2.762333 1_556
Ag0 Zn6 2.771213 1_556
Ag0 Zn21 2.771213 1_445
Ag0 Zn11 2.819427 1_546
Ag0 Zn16 2.819429 1_445
Ag0 Zn5 2.836154 1_446
Ag1 Zn1 2.615142 1_455
Ag1 Zn4 2.642276 1_554
Ag1 Zn18 2.652193 1_554
Ag1 Zn10 2.652193 1_555
Ag1 Zn19 2.672780 1_454
Ag1 Zn8 2.672784 1_555
Ag1 Zn2 2.762333 1_555
Ag1 Zn21 2.771213 1_444
Ag1 Zn6 2.771213 1_555
Ag1 Zn12 2.819427 1_455
Ag1 Zn15 2.819429 1_444
Ag1 Zn0 2.836153 1_444
Ru0 Zn18 2.573785 1_555
Ru0 Zn17 2.573785 1_555
Ru0 Zn13 2.592233 1_445
Ru0 Zn8 2.604091 1_545
Ru0 Zn7 2.604091 1_455
Ru0 Zn14 2.605006 1_555
Ru0 Zn6 2.614788 1_555
Ru0 Zn5 2.642488 1_445
Ru0 Zn0 2.642488 1_444
Ru0 Zn12 2.751068 1_455
Ru0 Zn11 2.751069 1_545
Ru0 Zn3 2.828877 1_444
Ru1 Zn9 2.573785 1_555
Ru1 Zn10 2.573785 1_555
Ru1 Zn14 2.592237 1_555
Ru1 Zn19 2.604090 1_555
Ru1 Zn20 2.604090 1_555
Ru1 Zn13 2.605005 1_555
Ru1 Zn21 2.614788 1_555
Ru1 Zn0 2.642488 1_555
Ru1 Zn5 2.642489 1_556
Ru1 Zn15 2.751061 1_555
Ru1 Zn16 2.751061 1_555
Ru1 Zn3 2.828877 1_555
