# generated using pymatgen
data_ZrGeBr6
_symmetry_space_group_name_H-M   'P 1'
_cell_length_a   6.89368530
_cell_length_b   6.89368396
_cell_length_c   6.51503267
_cell_angle_alpha   90.00000000
_cell_angle_beta   90.00000000
_cell_angle_gamma   119.99999746
_symmetry_Int_Tables_number   1
_chemical_formula_structural   ZrGeBr6
_chemical_formula_sum   'Zr1 Ge1 Br6'
_cell_volume   268.13287422
_cell_formula_units_Z   1
loop_
 _symmetry_equiv_pos_site_id
 _symmetry_equiv_pos_as_xyz
  1  'x, y, z'
loop_
 _atom_site_type_symbol
 _atom_site_label
 _atom_site_symmetry_multiplicity
 _atom_site_fract_x
 _atom_site_fract_y
 _atom_site_fract_z
 _atom_site_occupancy
  Zr  Zr0  1  0.33333300  0.66666700  0.00000000  1
  Ge  Ge0  1  0.66666700  0.33333300  0.00000000  1
  Br  Br0  1  0.64172814  0.65763515  0.23371960  1
  Br  Br1  1  0.34236485  0.35827186  0.76628040  1
  Br  Br2  1  0.01590700  0.35827186  0.23371960  1
  Br  Br3  1  0.34236485  0.98409300  0.23371960  1
  Br  Br4  1  0.64172814  0.98409300  0.76628040  1
  Br  Br5  1  0.01590700  0.65763515  0.76628040  1
loop_
_geom_bond_atom_site_label_1
_geom_bond_atom_site_label_2
_geom_bond_distance
_geom_bond_site_symmetry_2
Br0 Zr0 2.640951 1_555
Br0 Ge0 2.780390 1_555
Br1 Zr0 2.640950 1_556
Br1 Ge0 2.780390 1_556
Br2 Zr0 2.640948 1_555
Br2 Ge0 2.780384 1_455
Br3 Zr0 2.640945 1_555
Br3 Ge0 2.780387 1_565
Br4 Zr0 2.640948 1_556
Br4 Ge0 2.780384 1_566
Br5 Zr0 2.640945 1_556
Br5 Ge0 2.780387 1_456
