# generated using pymatgen
data_Ti6Tc5MoP6
_symmetry_space_group_name_H-M   'P 1'
_cell_length_a   7.35039268
_cell_length_b   7.33923471
_cell_length_c   7.33923424
_cell_angle_alpha   127.09119876
_cell_angle_beta   125.18161032
_cell_angle_gamma   79.63851378
_symmetry_Int_Tables_number   1
_chemical_formula_structural   Ti6Tc5MoP6
_chemical_formula_sum   'Ti6 Tc5 Mo1 P6'
_cell_volume   249.45147154
_cell_formula_units_Z   1
loop_
 _symmetry_equiv_pos_site_id
 _symmetry_equiv_pos_as_xyz
  1  'x, y, z'
loop_
 _atom_site_type_symbol
 _atom_site_label
 _atom_site_symmetry_multiplicity
 _atom_site_fract_x
 _atom_site_fract_y
 _atom_site_fract_z
 _atom_site_occupancy
  Ti  Ti0  1  0.46094937  0.25089347  0.29255098  1
  Ti  Ti1  1  0.53905063  0.83160161  0.78994409  1
  Ti  Ti2  1  0.74522441  0.65145392  0.40463937  1
  Ti  Ti3  1  0.25477559  0.65941496  0.90622851  1
  Ti  Ti4  1  0.05469755  0.84376642  0.29045962  1
  Ti  Ti5  1  0.94530245  0.23576207  0.78906888  1
  Tc  Tc0  1  0.65764497  0.50233834  0.90393325  1
  Tc  Tc1  1  0.34235503  0.24628928  0.84469537  1
  Tc  Tc2  1  0.90019613  0.24499603  0.39966757  1
  Tc  Tc3  1  0.09980387  0.49947144  0.34480090  1
  Tc  Tc4  1  0.00000000  0.99238622  0.99238622  1
  Mo  Mo0  1  0.50000000  0.99242616  0.49242616  1
  P  P0  1  0.83435406  0.57632555  0.74657148  1
  P  P1  1  0.16564594  0.91221442  0.74197050  1
  P  P2  1  0.67056913  0.91147850  0.24457171  1
  P  P3  1  0.32943087  0.57400058  0.24090937  1
  P  P4  1  0.27054187  0.27850295  0.50761694  1
  P  P5  1  0.72945813  0.23707507  0.00796207  1
loop_
_geom_bond_atom_site_label_1
_geom_bond_atom_site_label_2
_geom_bond_distance
_geom_bond_site_symmetry_2
Tc0 Ti4 2.712994 1_656
Tc0 Ti5 2.754212 1_555
Tc0 Ti2 2.791566 1_556
Tc0 Ti3 2.984014 1_555
Tc1 Ti5 2.712988 1_455
Tc1 Ti4 2.754220 1_545
Tc1 Ti3 2.791567 1_555
Tc1 Ti2 2.984010 1_556
Tc2 Ti5 2.723196 1_555
Tc2 Ti4 2.757281 1_645
Tc2 Ti3 2.812869 1_655
Tc2 Ti2 2.981943 1_555
Tc3 Ti4 2.723201 1_555
Tc3 Ti5 2.757287 1_454
Tc3 Ti2 2.812867 1_455
Tc3 Ti3 2.981929 1_555
Tc4 Ti2 2.780878 1_455
Tc4 Ti3 2.780879 1_555
Tc4 Ti4 2.800710 1_556
Tc4 Ti5 2.800710 1_465
Tc4 Ti0 2.932946 1_566
Tc4 Ti1 2.932946 1_455
Mo0 P4 2.434308 1_565
Mo0 P5 2.434313 1_566
Mo0 P2 2.508081 1_555
Mo0 P3 2.508094 1_555
Mo0 Ti2 2.774423 1_555
Mo0 Ti3 2.774428 1_554
Mo0 Ti5 2.800740 1_565
Mo0 Ti4 2.800740 1_555
Mo0 Tc0 2.892010 1_565
Mo0 Tc1 2.892021 1_565
Mo0 Ti1 2.916854 1_555
Mo0 Ti0 2.916854 1_565
P0 Tc0 2.460597 1_555
P0 Tc2 2.481643 1_555
P0 Tc4 2.494584 1_655
P0 Ti0 2.561404 1_555
P0 Ti4 2.579318 1_656
P0 Ti2 2.583685 1_555
P0 Ti5 2.631291 1_555
P0 Ti1 2.633809 1_555
P0 Ti3 2.633998 1_655
P1 Tc1 2.460610 1_565
P1 Tc3 2.481626 1_555
P1 Tc4 2.494584 1_555
P1 Ti1 2.561399 1_555
P1 Ti5 2.579334 1_465
P1 Ti3 2.583664 1_555
P1 Ti4 2.631295 1_555
P1 Ti0 2.633816 1_566
P1 Ti2 2.633988 1_455
P2 Tc2 2.459185 1_565
P2 Tc0 2.459676 1_554
P2 Ti1 2.557114 1_554
P2 Ti5 2.582573 1_565
P2 Ti3 2.583938 1_554
P2 Ti0 2.624856 1_565
P2 Ti2 2.628253 1_555
P2 Ti4 2.633227 1_655
P3 Tc3 2.459183 1_555
P3 Tc1 2.459661 1_554
P3 Ti0 2.557100 1_555
P3 Ti4 2.582581 1_555
P3 Ti2 2.583941 1_555
P3 Ti1 2.624855 1_555
P3 Ti3 2.628271 1_554
P3 Ti5 2.633221 1_454
P4 Tc3 2.347369 1_555
P4 Tc1 2.368646 1_555
P4 Tc2 2.370447 1_455
P4 Tc0 2.374049 1_555
P4 Tc4 2.433575 1_544
P4 Ti0 2.559123 1_555
P4 Ti3 2.607070 1_555
P4 Ti4 2.830360 1_545
P5 Tc2 2.347367 1_555
P5 Tc0 2.368642 1_554
P5 Tc3 2.370447 1_655
P5 Tc1 2.374052 1_554
P5 Tc4 2.433576 1_644
P5 Ti1 2.559121 1_544
P5 Ti2 2.607070 1_555
P5 Ti5 2.830366 1_554
