# generated using pymatgen
data_Sc2Ga4CoNi
_symmetry_space_group_name_H-M   'P 1'
_cell_length_a   5.15308245
_cell_length_b   5.15308261
_cell_length_c   6.46845391
_cell_angle_alpha   90.00000000
_cell_angle_beta   90.00000000
_cell_angle_gamma   134.51796793
_symmetry_Int_Tables_number   1
_chemical_formula_structural   Sc2Ga4CoNi
_chemical_formula_sum   'Sc2 Ga4 Co1 Ni1'
_cell_volume   122.47370565
_cell_formula_units_Z   1
loop_
 _symmetry_equiv_pos_site_id
 _symmetry_equiv_pos_as_xyz
  1  'x, y, z'
loop_
 _atom_site_type_symbol
 _atom_site_label
 _atom_site_symmetry_multiplicity
 _atom_site_fract_x
 _atom_site_fract_y
 _atom_site_fract_z
 _atom_site_occupancy
  Sc  Sc0  1  0.92858957  0.07141043  0.25000000  1
  Sc  Sc1  1  0.07379496  0.92620504  0.75000000  1
  Ga  Ga0  1  0.63959823  0.36040177  0.44857494  1
  Ga  Ga1  1  0.35946756  0.64053244  0.55026400  1
  Ga  Ga2  1  0.35946756  0.64053244  0.94973600  1
  Ga  Ga3  1  0.63959823  0.36040177  0.05142506  1
  Co  Co0  1  0.20743574  0.79256426  0.25000000  1
  Ni  Ni0  1  0.79204616  0.20795384  0.75000000  1
loop_
_geom_bond_atom_site_label_1
_geom_bond_atom_site_label_2
_geom_bond_distance
_geom_bond_site_symmetry_2
Ga0 Ni0 2.429235 1_555
Ga0 Ga1 2.742680 1_555
Ga0 Sc1 2.856718 1_545
Ga0 Sc1 2.856718 1_655
Ga0 Sc0 3.032341 1_555
Ga0 Sc0 3.104921 1_455
Ga0 Sc0 3.104921 1_565
Ga1 Ni0 2.459267 1_455
Ga1 Ni0 2.459267 1_565
Ga1 Ga2 2.583966 1_555
Ga1 Sc0 2.858682 1_565
Ga1 Sc0 2.858682 1_455
Ga1 Sc1 3.007015 1_555
Ga1 Sc1 3.128484 1_655
Ga1 Sc1 3.128484 1_545
Ga2 Ni0 2.459267 1_455
Ga2 Ni0 2.459267 1_565
Ga2 Ga3 2.742680 1_556
Ga2 Sc0 2.858682 1_566
Ga2 Sc0 2.858682 1_456
Ga2 Sc1 3.007015 1_555
Ga2 Sc1 3.128484 1_655
Ga2 Sc1 3.128484 1_545
Ga3 Ni0 2.429235 1_554
Ga3 Sc1 2.856718 1_544
Ga3 Sc1 2.856718 1_654
Ga3 Sc0 3.032341 1_555
Ga3 Sc0 3.104921 1_455
Ga3 Sc0 3.104921 1_565
Co0 Ga1 2.420849 1_555
Co0 Ga2 2.420849 1_554
Co0 Ga0 2.456365 1_455
Co0 Ga3 2.456365 1_455
Co0 Ga0 2.456365 1_565
Co0 Ga3 2.456365 1_565
Co0 Sc0 2.650427 1_465
Co0 Sc0 2.895991 1_565
Co0 Sc0 2.895991 1_455
Ni0 Sc1 2.678017 1_645
Ni0 Sc1 2.876028 1_545
Ni0 Sc1 2.876028 1_655
