# generated using pymatgen
data_Ti8CoBi4P
_symmetry_space_group_name_H-M   'P 1'
_cell_length_a   7.83523623
_cell_length_b   7.83523693
_cell_length_c   7.83523701
_cell_angle_alpha   95.49763004
_cell_angle_beta   95.49762787
_cell_angle_gamma   143.93900320
_symmetry_Int_Tables_number   1
_chemical_formula_structural   Ti8CoBi4P
_chemical_formula_sum   'Ti8 Co1 Bi4 P1'
_cell_volume   269.24142193
_cell_formula_units_Z   1
loop_
 _symmetry_equiv_pos_site_id
 _symmetry_equiv_pos_as_xyz
  1  'x, y, z'
loop_
 _atom_site_type_symbol
 _atom_site_label
 _atom_site_symmetry_multiplicity
 _atom_site_fract_x
 _atom_site_fract_y
 _atom_site_fract_z
 _atom_site_occupancy
  Ti  Ti0  1  0.69175174  0.57600948  0.27360863  1
  Ti  Ti1  1  0.57600948  0.30240085  0.88425874  1
  Ti  Ti2  1  0.08185689  0.19759915  0.27360863  1
  Ti  Ti3  1  0.92399052  0.80824826  0.72639137  1
  Ti  Ti4  1  0.19759915  0.92399052  0.11574126  1
  Ti  Ti5  1  0.80824826  0.08185689  0.88425874  1
  Ti  Ti6  1  0.30240085  0.41814311  0.72639137  1
  Ti  Ti7  1  0.41814311  0.69175174  0.11574126  1
  Co  Co0  1  0.75000000  0.75000000  0.00000000  1
  Bi  Bi0  1  0.14259416  0.64259416  0.78519033  1
  Bi  Bi1  1  0.35740584  0.14259416  0.50000000  1
  Bi  Bi2  1  0.64259416  0.85740584  0.50000000  1
  Bi  Bi3  1  0.85740584  0.35740584  0.21480967  1
  P  P0  1  0.25000000  0.25000000  0.00000000  1
loop_
_geom_bond_atom_site_label_1
_geom_bond_atom_site_label_2
_geom_bond_distance
_geom_bond_site_symmetry_2
Co0 P0 2.425187 1_555
Co0 P0 2.425187 1_665
Co0 Ti7 2.530633 1_555
Co0 Ti5 2.530633 1_564
Co0 Ti4 2.530635 1_655
Co0 Ti1 2.530636 1_554
Co0 Ti3 2.530637 1_554
Co0 Ti0 2.530637 1_555
Co0 Ti6 2.530637 1_554
Co0 Ti2 2.530637 1_665
Bi0 Ti6 2.896256 1_555
Bi0 Ti3 2.896256 1_455
Bi0 Ti7 2.985030 1_556
Bi0 Ti4 2.985030 1_556
Bi0 Ti5 3.033606 1_455
Bi0 Ti1 3.033610 1_565
Bi0 Ti1 3.056196 1_455
Bi0 Ti5 3.056200 1_565
Bi1 Ti1 2.896262 1_555
Bi1 Ti4 2.896262 1_545
Bi1 Ti2 2.985048 1_555
Bi1 Ti6 2.985048 1_555
Bi1 Ti3 3.033610 1_445
Bi1 Ti0 3.033610 1_555
Bi1 Ti0 3.056200 1_445
Bi1 Ti3 3.056200 1_555
Bi2 Ti7 2.896262 1_555
Bi2 Ti5 2.896262 1_565
Bi2 Ti3 2.985048 1_555
Bi2 Ti0 2.985048 1_555
Bi2 Ti6 3.033610 1_665
Bi2 Ti2 3.033610 1_555
Bi2 Ti2 3.056199 1_665
Bi2 Ti6 3.056200 1_555
Bi3 Ti2 2.896256 1_655
Bi3 Ti0 2.896256 1_555
Bi3 Ti5 2.985030 1_554
Bi3 Ti1 2.985030 1_554
Bi3 Ti7 3.033606 1_655
Bi3 Ti4 3.033610 1_545
Bi3 Ti4 3.056196 1_655
Bi3 Ti7 3.056200 1_545
P0 Ti1 2.517006 1_554
P0 Ti4 2.517006 1_545
P0 Ti5 2.517008 1_454
P0 Ti7 2.517009 1_555
P0 Ti2 2.517010 1_555
P0 Ti6 2.517010 1_554
P0 Ti0 2.517010 1_555
P0 Ti3 2.517010 1_444
