# generated using pymatgen
data_Ta12Mn3Ga9N4
_symmetry_space_group_name_H-M   'P 1'
_cell_length_a   8.20721873
_cell_length_b   8.20375030
_cell_length_c   8.20375050
_cell_angle_alpha   60.00861395
_cell_angle_beta   60.02262665
_cell_angle_gamma   60.02262781
_symmetry_Int_Tables_number   1
_chemical_formula_structural   Ta12Mn3Ga9N4
_chemical_formula_sum   'Ta12 Mn3 Ga9 N4'
_cell_volume   390.73527439
_cell_formula_units_Z   1
loop_
 _symmetry_equiv_pos_site_id
 _symmetry_equiv_pos_as_xyz
  1  'x, y, z'
loop_
 _atom_site_type_symbol
 _atom_site_label
 _atom_site_symmetry_multiplicity
 _atom_site_fract_x
 _atom_site_fract_y
 _atom_site_fract_z
 _atom_site_occupancy
  Ta  Ta0  1  0.81126525  0.80817376  0.19029158  1
  Ta  Ta1  1  0.19076651  0.19561468  0.80680820  1
  Ta  Ta2  1  0.81126525  0.19029158  0.80817376  1
  Ta  Ta3  1  0.19076651  0.80680820  0.19561468  1
  Ta  Ta4  1  0.19078543  0.80680776  0.80680776  1
  Ta  Ta5  1  0.81126295  0.19028091  0.19028091  1
  Ta  Ta6  1  0.43873475  0.44182624  0.05970842  1
  Ta  Ta7  1  0.05923349  0.05438532  0.44319180  1
  Ta  Ta8  1  0.43873475  0.05970842  0.44182624  1
  Ta  Ta9  1  0.05923349  0.44319180  0.05438532  1
  Ta  Ta10  1  0.05921457  0.44319224  0.44319224  1
  Ta  Ta11  1  0.43873705  0.05971909  0.05971909  1
  Mn  Mn0  1  0.62500000  0.12500000  0.62500000  1
  Mn  Mn1  1  0.62500000  0.62500000  0.12500000  1
  Mn  Mn2  1  0.62500000  0.62500000  0.62500000  1
  Ga  Ga0  1  0.12500000  0.62500000  0.62500000  1
  Ga  Ga1  1  0.76649530  0.41108697  0.41108697  1
  Ga  Ga2  1  0.42048379  0.76099612  0.40915778  1
  Ga  Ga3  1  0.42048379  0.40915778  0.76099612  1
  Ga  Ga4  1  0.42057535  0.40924580  0.40924580  1
  Ga  Ga5  1  0.48350470  0.83891303  0.83891303  1
  Ga  Ga6  1  0.82951621  0.48900388  0.84084222  1
  Ga  Ga7  1  0.82951621  0.84084222  0.48900388  1
  Ga  Ga8  1  0.82942465  0.84075420  0.84075420  1
  N  N0  1  0.62500000  0.12500000  0.12500000  1
  N  N1  1  0.12500000  0.62500000  0.12500000  1
  N  N2  1  0.12500000  0.12500000  0.62500000  1
  N  N3  1  0.12500000  0.12500000  0.12500000  1
loop_
_geom_bond_atom_site_label_1
_geom_bond_atom_site_label_2
_geom_bond_distance
_geom_bond_site_symmetry_2
Ga0 Ga2 2.588205 1_555
Ga0 Ga6 2.588205 1_455
Ga0 Ga3 2.588205 1_555
Ga0 Ga7 2.588205 1_455
Ga0 Ga8 2.588622 1_455
Ga0 Ga4 2.588622 1_555
Ga0 Ta4 2.928168 1_555
Ga0 Ta10 2.928168 1_555
Ga0 Ta7 2.928537 1_565
Ga0 Ta1 2.928537 1_555
Ga0 Ta9 2.928537 1_556
Ga0 Ta3 2.928537 1_555
Ga1 Mn0 2.550696 1_555
Ga1 Mn1 2.550696 1_555
Ga1 Mn2 2.552181 1_555
Ga1 Ta9 2.690893 1_655
Ga1 Ta7 2.690893 1_655
Ga1 Ta10 2.691527 1_655
Ga1 Ga4 2.854215 1_555
Ga1 Ga3 2.856236 1_555
Ga1 Ga2 2.856236 1_555
Ga1 Ta5 2.940725 1_555
Ga1 Ta0 2.942768 1_555
Ga1 Ta2 2.942768 1_555
Ga2 Mn1 2.512965 1_555
Ga2 Mn2 2.514213 1_555
Ga2 Ta11 2.675889 1_565
Ga2 Ta8 2.676385 1_565
Ga2 Ta7 2.715671 1_565
Ga2 Ga4 2.884936 1_555
Ga2 Ga3 2.886770 1_555
Ga2 Ta0 2.907062 1_555
Ga2 Ta3 2.949410 1_555
Ga2 Ta4 2.951146 1_555
Ga3 Mn0 2.512965 1_555
Ga3 Mn2 2.514213 1_555
Ga3 Ta11 2.675889 1_556
Ga3 Ta6 2.676385 1_556
Ga3 Ta9 2.715671 1_556
Ga3 Ga4 2.884936 1_555
Ga3 Ta2 2.907062 1_555
Ga3 Ta1 2.949410 1_555
Ga3 Ta4 2.951146 1_555
Ga4 Mn1 2.513367 1_555
Ga4 Mn0 2.513367 1_555
Ga4 Ta8 2.676341 1_555
Ga4 Ta6 2.676342 1_555
Ga4 Ta10 2.716190 1_555
Ga4 Ta5 2.906737 1_555
Ga4 Ta1 2.950880 1_555
Ga4 Ta3 2.950880 1_555
Ga5 Mn0 2.550696 1_565
Ga5 Mn1 2.550696 1_556
Ga5 Mn2 2.552181 1_555
Ga5 Ta3 2.690893 1_556
Ga5 Ta1 2.690893 1_565
Ga5 Ta4 2.691527 1_555
Ga5 Ga8 2.854215 1_555
Ga5 Ga7 2.856236 1_555
Ga5 Ga6 2.856236 1_555
Ga5 Ta11 2.940725 1_566
Ga5 Ta6 2.942768 1_556
Ga5 Ta8 2.942768 1_565
Ga6 Mn1 2.512965 1_556
Ga6 Mn2 2.514213 1_555
Ga6 Ta5 2.675889 1_556
Ga6 Ta2 2.676385 1_555
Ga6 Ta1 2.715671 1_655
Ga6 Ga8 2.884936 1_555
Ga6 Ga7 2.886770 1_555
Ga6 Ta6 2.907062 1_556
Ga6 Ta9 2.949410 1_656
Ga6 Ta10 2.951146 1_655
Ga7 Mn0 2.512965 1_565
Ga7 Mn2 2.514213 1_555
Ga7 Ta5 2.675889 1_565
Ga7 Ta0 2.676385 1_555
Ga7 Ta3 2.715671 1_655
Ga7 Ga8 2.884936 1_555
Ga7 Ta8 2.907062 1_565
Ga7 Ta7 2.949410 1_665
Ga7 Ta10 2.951146 1_655
Ga8 Mn1 2.513367 1_556
Ga8 Mn0 2.513367 1_565
Ga8 Ta2 2.676341 1_565
Ga8 Ta0 2.676342 1_556
Ga8 Ta4 2.716190 1_655
Ga8 Ta11 2.906737 1_566
Ga8 Ta7 2.950880 1_665
Ga8 Ta9 2.950880 1_656
N0 Ta5 2.198534 1_555
N0 Ta11 2.198534 1_555
N0 Ta6 2.198932 1_555
N0 Ta0 2.198932 1_545
N0 Ta8 2.198932 1_555
N0 Ta2 2.198932 1_554
N1 Ta6 2.175976 1_555
N1 Ta0 2.175976 1_455
N1 Ta3 2.198256 1_555
N1 Ta9 2.198256 1_555
N1 Ta10 2.198655 1_555
N1 Ta4 2.198655 1_554
N2 Ta8 2.175976 1_555
N2 Ta2 2.175976 1_455
N2 Ta1 2.198256 1_555
N2 Ta7 2.198256 1_555
N2 Ta10 2.198655 1_555
N2 Ta4 2.198655 1_545
N3 Ta11 2.175874 1_555
N3 Ta5 2.175874 1_455
N3 Ta9 2.198546 1_555
N3 Ta3 2.198546 1_545
N3 Ta7 2.198546 1_555
N3 Ta1 2.198546 1_554
