# generated using pymatgen
data_SrSiO3
_symmetry_space_group_name_H-M   'P 1'
_cell_length_a   7.13626051
_cell_length_b   7.13626051
_cell_length_c   10.90449510
_cell_angle_alpha   71.42083431
_cell_angle_beta   71.42083431
_cell_angle_gamma   60.15957470
_symmetry_Int_Tables_number   1
_chemical_formula_structural   SrSiO3
_chemical_formula_sum   'Sr6 Si6 O18'
_cell_volume   447.85571033
_cell_formula_units_Z   6
loop_
 _symmetry_equiv_pos_site_id
 _symmetry_equiv_pos_as_xyz
  1  'x, y, z'
loop_
 _atom_site_type_symbol
 _atom_site_label
 _atom_site_symmetry_multiplicity
 _atom_site_fract_x
 _atom_site_fract_y
 _atom_site_fract_z
 _atom_site_occupancy
  Sr  Sr0  1  0.15377537  0.67263914  0.99914528  1
  Sr  Sr1  1  0.32736086  0.84622463  0.50085472  1
  Sr  Sr2  1  0.84622463  0.32736086  0.00085472  1
  Sr  Sr3  1  0.67263914  0.15377537  0.49914528  1
  Sr  Sr4  1  -0.00000000  0.50000000  0.50000000  1
  Sr  Sr5  1  0.50000000  -0.00000000  0.00000000  1
  Si  Si0  1  0.33382413  0.41828048  0.74633374  1
  Si  Si1  1  0.58171952  0.66617587  0.75366626  1
  Si  Si2  1  0.66617587  0.58171952  0.25366626  1
  Si  Si3  1  0.41828048  0.33382413  0.24633374  1
  Si  Si4  1  0.83162320  0.16837680  0.75000000  1
  Si  Si5  1  0.16837680  0.83162320  0.25000000  1
  O  O0  1  0.28062023  0.46514336  0.60509795  1
  O  O1  1  0.53485664  0.71937977  0.89490205  1
  O  O2  1  0.71937977  0.53485664  0.39490205  1
  O  O3  1  0.46514336  0.28062023  0.10509795  1
  O  O4  1  0.18340675  0.37190352  0.88470223  1
  O  O5  1  0.62809648  0.81659325  0.61529777  1
  O  O6  1  0.81659325  0.62809648  0.11529777  1
  O  O7  1  0.37190352  0.18340675  0.38470223  1
  O  O8  1  0.58270460  0.20415428  0.74819246  1
  O  O9  1  0.79584572  0.41729540  0.75180754  1
  O  O10  1  0.41729540  0.79584572  0.25180754  1
  O  O11  1  0.20415428  0.58270460  0.24819246  1
  O  O12  1  0.88746085  0.01822356  0.88919940  1
  O  O13  1  0.98177644  0.11253915  0.61080060  1
  O  O14  1  0.11253915  0.98177644  0.11080060  1
  O  O15  1  0.01822356  0.88746085  0.38919940  1
  O  O16  1  0.36862532  0.63137468  0.75000000  1
  O  O17  1  0.63137468  0.36862532  0.25000000  1
loop_
_geom_bond_atom_site_label_1
_geom_bond_atom_site_label_2
_geom_bond_distance
_geom_bond_site_symmetry_2
O0 Si0 1.595609 1_555
O0 Sr4 2.484086 1_555
O0 Sr3 2.736522 1_555
O0 Sr1 2.736838 1_555
O1 Si1 1.595609 1_555
O1 Sr5 2.484086 1_566
O1 Sr2 2.736522 1_556
O1 Sr0 2.736838 1_555
O2 Si2 1.595609 1_555
O2 Sr4 2.484086 1_655
O2 Sr1 2.736522 1_555
O2 Sr3 2.736838 1_555
O3 Si3 1.595609 1_555
O3 Sr5 2.484086 1_555
O3 Sr0 2.736522 1_554
O3 Sr2 2.736838 1_555
O4 Si0 1.594246 1_555
O4 Sr2 2.461242 1_456
O4 Sr0 2.700892 1_555
O4 Sr5 2.728624 1_556
O5 Si1 1.594246 1_555
O5 Sr3 2.461242 1_565
O5 Sr1 2.700892 1_555
O5 Sr4 2.728624 1_655
O6 Si2 1.594246 1_555
O6 Sr0 2.461242 1_654
O6 Sr2 2.700892 1_555
O6 Sr5 2.728624 1_565
O7 Si3 1.594246 1_555
O7 Sr1 2.461242 1_545
O7 Sr3 2.700892 1_555
O7 Sr4 2.728624 1_555
O8 Si4 1.669955 1_555
O8 Si0 1.670982 1_555
O8 Sr3 2.682955 1_555
O8 Sr5 2.698952 1_556
O9 Si4 1.669955 1_555
O9 Si1 1.670982 1_555
O9 Sr2 2.682955 1_556
O9 Sr4 2.698952 1_655
O10 Si5 1.669955 1_555
O10 Si2 1.670982 1_555
O10 Sr1 2.682955 1_555
O10 Sr5 2.698952 1_565
O11 Si5 1.669955 1_555
O11 Si3 1.670982 1_555
O11 Sr0 2.682955 1_554
O11 Sr4 2.698952 1_555
O12 Si4 1.592183 1_555
O12 Sr0 2.456579 1_645
O12 Sr5 2.692759 1_556
O12 Sr2 2.696860 1_556
O13 Si4 1.592183 1_555
O13 Sr1 2.456579 1_645
O13 Sr4 2.692759 1_655
O13 Sr3 2.696860 1_555
O14 Si5 1.592183 1_555
O14 Sr2 2.456579 1_465
O14 Sr5 2.692759 1_565
O14 Sr0 2.696860 1_554
O15 Si5 1.592183 1_555
O15 Sr3 2.456579 1_465
O15 Sr4 2.692759 1_555
O15 Sr1 2.696860 1_555
O16 Si0 1.672334 1_555
O16 Si1 1.672334 1_555
O16 Sr0 2.687869 1_555
O16 Sr1 2.687869 1_555
O17 Si3 1.672334 1_555
O17 Si2 1.672334 1_555
O17 Sr2 2.687869 1_555
O17 Sr3 2.687869 1_555
