# generated using pymatgen
data_Y2Sc(GaNi2)3
_symmetry_space_group_name_H-M   'P 1'
_cell_length_a   5.12230709
_cell_length_b   5.12230555
_cell_length_c   15.63175262
_cell_angle_alpha   90.00000000
_cell_angle_beta   90.00000000
_cell_angle_gamma   119.99999096
_symmetry_Int_Tables_number   1
_chemical_formula_structural   Y2Sc(GaNi2)3
_chemical_formula_sum   'Y4 Sc2 Ga6 Ni12'
_cell_volume   355.19712154
_cell_formula_units_Z   2
loop_
 _symmetry_equiv_pos_site_id
 _symmetry_equiv_pos_as_xyz
  1  'x, y, z'
loop_
 _atom_site_type_symbol
 _atom_site_label
 _atom_site_symmetry_multiplicity
 _atom_site_fract_x
 _atom_site_fract_y
 _atom_site_fract_z
 _atom_site_occupancy
  Y  Y0  1  0.33333300  0.66666700  0.54735562  1
  Y  Y1  1  0.66666700  0.33333300  0.45264438  1
  Y  Y2  1  0.33333300  0.66666700  0.76342514  1
  Y  Y3  1  0.66666700  0.33333300  0.23657486  1
  Sc  Sc0  1  0.66666700  0.33333300  0.03228557  1
  Sc  Sc1  1  0.33333300  0.66666700  0.96771443  1
  Ga  Ga0  1  0.00000000  0.00000000  0.24861562  1
  Ga  Ga1  1  0.00000000  0.00000000  0.75138438  1
  Ga  Ga2  1  0.33333300  0.66666700  0.24886043  1
  Ga  Ga3  1  0.66666700  0.33333300  0.75113957  1
  Ga  Ga4  1  0.00000000  0.00000000  0.00000000  1
  Ga  Ga5  1  0.00000000  0.00000000  0.50000000  1
  Ni  Ni0  1  0.16943524  0.33887148  0.12223943  1
  Ni  Ni1  1  0.83056476  0.66112852  0.87776057  1
  Ni  Ni2  1  0.66112852  0.83056476  0.12223943  1
  Ni  Ni3  1  0.83142789  0.66285879  0.62765071  1
  Ni  Ni4  1  0.33887148  0.16943524  0.87776057  1
  Ni  Ni5  1  0.16857211  0.33714121  0.37234929  1
  Ni  Ni6  1  0.16943524  0.83056476  0.12223943  1
  Ni  Ni7  1  0.33714121  0.16857211  0.62765071  1
  Ni  Ni8  1  0.83056476  0.16943524  0.87776057  1
  Ni  Ni9  1  0.66285879  0.83142789  0.37234929  1
  Ni  Ni10  1  0.83142789  0.16857211  0.62765071  1
  Ni  Ni11  1  0.16857211  0.83142789  0.37234929  1
loop_
_geom_bond_atom_site_label_1
_geom_bond_atom_site_label_2
_geom_bond_distance
_geom_bond_site_symmetry_2
Y0 Y2 3.377545 1_555
Y1 Y3 3.377545 1_555
Sc0 Sc1 3.124868 1_544
Sc0 Sc1 3.124868 1_654
Sc0 Sc1 3.124876 1_554
Sc0 Y3 3.193400 1_555
Sc1 Y2 3.193400 1_555
Ga0 Ni5 2.444948 1_555
Ga0 Ni9 2.444949 1_445
Ga0 Ni11 2.444956 1_545
Ga0 Ni6 2.482393 1_545
Ga0 Ni0 2.482395 1_555
Ga0 Ni2 2.482396 1_445
Ga0 Y3 2.963345 1_455
Ga0 Y3 2.963350 1_445
Ga0 Y3 2.963351 1_555
Ga1 Ni3 2.444948 1_445
Ga1 Ni7 2.444949 1_555
Ga1 Ni10 2.444956 1_455
Ga1 Ni8 2.482393 1_455
Ga1 Ni1 2.482395 1_445
Ga1 Ni4 2.482396 1_555
Ga1 Y2 2.963345 1_545
Ga1 Y2 2.963350 1_555
Ga1 Y2 2.963351 1_445
Ga2 Ni11 2.421368 1_555
Ga2 Ni5 2.421379 1_555
Ga2 Ni9 2.421379 1_555
Ga2 Ni0 2.456037 1_555
Ga2 Ni6 2.456037 1_555
Ga2 Ni2 2.456037 1_555
Ga2 Y3 2.963591 1_565
Ga2 Y3 2.963592 1_455
Ga2 Y3 2.963600 1_555
Ga3 Ni10 2.421368 1_555
Ga3 Ni3 2.421379 1_555
Ga3 Ni7 2.421379 1_555
Ga3 Ni1 2.456037 1_555
Ga3 Ni8 2.456037 1_555
Ga3 Ni4 2.456037 1_555
Ga3 Y2 2.963591 1_545
Ga3 Y2 2.963592 1_655
Ga3 Y2 2.963600 1_555
Ga4 Ni6 2.431248 1_545
Ga4 Ni8 2.431248 1_454
Ga4 Ni1 2.431251 1_444
Ga4 Ni0 2.431251 1_555
Ga4 Ni2 2.431251 1_445
Ga4 Ni4 2.431251 1_554
Ga4 Sc0 3.000115 1_455
Ga4 Sc1 3.000115 1_544
Ga4 Sc1 3.000120 1_554
Ga4 Sc0 3.000120 1_445
Ga4 Sc0 3.000120 1_555
Ga4 Sc1 3.000120 1_444
Ga5 Ni3 2.493668 1_445
Ga5 Ni5 2.493668 1_555
Ga5 Ni7 2.493668 1_555
Ga5 Ni9 2.493668 1_445
Ga5 Ni10 2.493676 1_455
Ga5 Ni11 2.493676 1_545
Ga5 Y0 3.048600 1_545
Ga5 Y1 3.048600 1_455
Ga5 Y0 3.048604 1_555
Ga5 Y1 3.048604 1_445
Ga5 Y1 3.048605 1_555
Ga5 Y0 3.048605 1_445
Ni0 Ni6 2.518603 1_555
Ni0 Ni2 2.518604 1_555
Ni0 Ni6 2.603702 1_545
Ni0 Ni2 2.603703 1_445
Ni0 Sc1 2.819411 1_554
Ni0 Sc0 2.921867 1_455
Ni0 Sc0 2.921876 1_555
Ni0 Y3 3.123203 1_455
Ni0 Y3 3.123211 1_555
Ni1 Ni8 2.518603 1_555
Ni1 Ni4 2.518604 1_555
Ni1 Ni8 2.603702 1_565
Ni1 Ni4 2.603703 1_665
Ni1 Sc0 2.819411 1_556
Ni1 Sc1 2.921867 1_655
Ni1 Sc1 2.921876 1_555
Ni1 Y2 3.123203 1_655
Ni1 Y2 3.123211 1_555
Ni2 Ni6 2.518604 1_555
Ni2 Ni6 2.603703 1_655
Ni2 Sc1 2.819411 1_554
Ni2 Sc0 2.921866 1_565
Ni2 Sc0 2.921875 1_555
Ni2 Y3 3.123202 1_565
Ni2 Y3 3.123210 1_555
Ni3 Ni7 2.531888 1_555
Ni3 Ni7 2.590419 1_665
Ni3 Y0 2.852223 1_555
Ni3 Y0 2.852232 1_655
Ni3 Y1 3.101717 1_555
Ni3 Y2 3.326307 1_555
Ni3 Y2 3.326315 1_655
Ni4 Ni8 2.518604 1_555
Ni4 Ni8 2.603703 1_455
Ni4 Sc0 2.819411 1_556
Ni4 Sc1 2.921866 1_545
Ni4 Sc1 2.921875 1_555
Ni4 Y2 3.123202 1_545
Ni4 Y2 3.123210 1_555
Ni5 Ni9 2.531888 1_555
Ni5 Ni9 2.590419 1_445
Ni5 Y1 2.852223 1_555
Ni5 Y1 2.852232 1_455
Ni5 Y0 3.101717 1_555
Ni5 Y3 3.326307 1_555
Ni5 Y3 3.326315 1_455
Ni6 Sc1 2.819411 1_554
Ni6 Sc0 2.921871 1_565
Ni6 Sc0 2.921871 1_455
Ni6 Y3 3.123207 1_565
Ni6 Y3 3.123207 1_455
Ni7 Y0 2.852222 1_555
Ni7 Y0 2.852231 1_545
Ni7 Y1 3.101717 1_555
Ni7 Y2 3.326306 1_555
Ni7 Y2 3.326314 1_545
Ni8 Sc0 2.819411 1_556
Ni8 Sc1 2.921871 1_545
Ni8 Sc1 2.921871 1_655
Ni8 Y2 3.123207 1_545
Ni8 Y2 3.123207 1_655
Ni9 Y1 2.852222 1_555
Ni9 Y1 2.852231 1_565
Ni9 Y0 3.101717 1_555
Ni9 Y3 3.326306 1_555
Ni9 Y3 3.326314 1_565
Ni10 Ni3 2.531887 1_555
Ni10 Ni7 2.531888 1_555
Ni10 Ni3 2.590418 1_545
Ni10 Ni7 2.590419 1_655
Ni10 Y0 2.852228 1_545
Ni10 Y0 2.852228 1_655
Ni10 Y1 3.101708 1_555
Ni10 Y2 3.326311 1_545
Ni10 Y2 3.326311 1_655
Ni11 Ni5 2.531887 1_555
Ni11 Ni9 2.531888 1_555
Ni11 Ni5 2.590418 1_565
Ni11 Ni9 2.590419 1_455
Ni11 Y1 2.852228 1_565
Ni11 Y1 2.852228 1_455
Ni11 Y0 3.101708 1_555
Ni11 Y3 3.326311 1_565
Ni11 Y3 3.326311 1_455
