# generated using pymatgen
data_Li12AsOsN8
_symmetry_space_group_name_H-M   'P 1'
_cell_length_a   6.55950812
_cell_length_b   6.55950812
_cell_length_c   4.84851380
_cell_angle_alpha   90.00000000
_cell_angle_beta   90.00000000
_cell_angle_gamma   90.00000000
_symmetry_Int_Tables_number   1
_chemical_formula_structural   Li12AsOsN8
_chemical_formula_sum   'Li12 As1 Os1 N8'
_cell_volume   208.61771481
_cell_formula_units_Z   1
loop_
 _symmetry_equiv_pos_site_id
 _symmetry_equiv_pos_as_xyz
  1  'x, y, z'
loop_
 _atom_site_type_symbol
 _atom_site_label
 _atom_site_symmetry_multiplicity
 _atom_site_fract_x
 _atom_site_fract_y
 _atom_site_fract_z
 _atom_site_occupancy
  Li  Li0  1  0.50000000  0.00000000  0.58757371  1
  Li  Li1  1  0.00000000  0.50000000  0.88802388  1
  Li  Li2  1  0.00000000  0.50000000  0.41242629  1
  Li  Li3  1  0.50000000  0.00000000  0.11197612  1
  Li  Li4  1  0.22157390  0.22157390  0.50000000  1
  Li  Li5  1  0.77842610  0.77842610  0.50000000  1
  Li  Li6  1  0.70623563  0.70623563  0.00000000  1
  Li  Li7  1  0.29376437  0.29376437  0.00000000  1
  Li  Li8  1  0.22157390  0.77842610  0.50000000  1
  Li  Li9  1  0.77842610  0.22157390  0.50000000  1
  Li  Li10  1  0.70623563  0.29376437  0.00000000  1
  Li  Li11  1  0.29376437  0.70623563  0.00000000  1
  As  As0  1  0.50000000  0.50000000  0.50000000  1
  Os  Os0  1  0.00000000  0.00000000  0.00000000  1
  N  N0  1  0.50000000  0.25901920  0.30930553  1
  N  N1  1  0.50000000  0.74098080  0.30930553  1
  N  N2  1  0.00000000  0.75634407  0.18818203  1
  N  N3  1  0.00000000  0.24365593  0.18818203  1
  N  N4  1  0.25901920  0.50000000  0.69069447  1
  N  N5  1  0.74098080  0.50000000  0.69069447  1
  N  N6  1  0.75634407  0.00000000  0.81181797  1
  N  N7  1  0.24365593  0.00000000  0.81181797  1
loop_
_geom_bond_atom_site_label_1
_geom_bond_atom_site_label_2
_geom_bond_distance
_geom_bond_site_symmetry_2
Li0 N6 2.002380 1_555
Li0 N7 2.002380 1_555
Li0 N0 2.169571 1_555
Li0 N1 2.169571 1_545
Li1 N4 1.949900 1_555
Li1 N5 1.949900 1_455
Li1 N2 2.223819 1_556
Li1 N3 2.223819 1_556
Li2 N2 2.002380 1_555
Li2 N3 2.002380 1_555
Li2 N4 2.169571 1_555
Li2 N5 2.169571 1_455
Li3 N0 1.949900 1_555
Li3 N1 1.949900 1_545
Li3 N6 2.223819 1_554
Li3 N7 2.223819 1_554
Li4 N4 2.061722 1_555
Li4 N0 2.061722 1_555
Li4 N7 2.102166 1_555
Li4 N3 2.102166 1_555
Li5 N5 2.061722 1_555
Li5 N1 2.061722 1_555
Li5 N6 2.102166 1_565
Li5 N2 2.102166 1_655
Li6 N1 2.032496 1_555
Li6 N5 2.032496 1_554
Li6 N2 2.157232 1_655
Li6 N6 2.157232 1_564
Li7 N0 2.032496 1_555
Li7 N4 2.032496 1_554
Li7 N3 2.157232 1_555
Li7 N7 2.157232 1_554
Li8 N4 2.061722 1_555
Li8 N1 2.061722 1_555
Li8 N2 2.102166 1_555
Li8 N7 2.102166 1_565
Li9 N0 2.061722 1_555
Li9 N5 2.061722 1_555
Li9 N6 2.102166 1_555
Li9 N3 2.102166 1_655
Li10 N0 2.032496 1_555
Li10 N5 2.032496 1_554
Li10 N6 2.157232 1_554
Li10 N3 2.157232 1_655
Li11 N4 2.032496 1_554
Li11 N1 2.032496 1_555
Li11 N2 2.157232 1_555
Li11 N7 2.157232 1_564
As0 N5 1.831261 1_555
As0 N1 1.831261 1_555
As0 N4 1.831261 1_555
As0 N0 1.831261 1_555
N2 Os0 1.840360 1_565
N3 Os0 1.840360 1_555
N6 Os0 1.840360 1_656
N7 Os0 1.840360 1_556
