# generated using pymatgen
data_Hf4TiSn3As
_symmetry_space_group_name_H-M   'P 1'
_cell_length_a   8.50468339
_cell_length_b   8.50468340
_cell_length_c   5.80042013
_cell_angle_alpha   90.00000000
_cell_angle_beta   90.00000000
_cell_angle_gamma   119.99999997
_symmetry_Int_Tables_number   1
_chemical_formula_structural   Hf4TiSn3As
_chemical_formula_sum   'Hf8 Ti2 Sn6 As2'
_cell_volume   363.33428780
_cell_formula_units_Z   2
loop_
 _symmetry_equiv_pos_site_id
 _symmetry_equiv_pos_as_xyz
  1  'x, y, z'
loop_
 _atom_site_type_symbol
 _atom_site_label
 _atom_site_symmetry_multiplicity
 _atom_site_fract_x
 _atom_site_fract_y
 _atom_site_fract_z
 _atom_site_occupancy
  Hf  Hf0  1  0.73722920  0.73722920  0.74753076  1
  Hf  Hf1  1  0.26277080  0.00000000  0.74753076  1
  Hf  Hf2  1  0.00000000  0.26277080  0.74753076  1
  Hf  Hf3  1  0.26277080  0.26277080  0.25246924  1
  Hf  Hf4  1  0.73722920  0.00000000  0.25246924  1
  Hf  Hf5  1  1.00000000  0.73722920  0.25246924  1
  Hf  Hf6  1  0.33333300  0.66666700  0.50000000  1
  Hf  Hf7  1  0.66666700  0.33333300  0.50000000  1
  Ti  Ti0  1  0.66666700  0.33333300  0.00000000  1
  Ti  Ti1  1  0.33333300  0.66666700  0.00000000  1
  Sn  Sn0  1  0.39729508  0.39729508  0.75793775  1
  Sn  Sn1  1  0.60270492  0.00000000  0.75793775  1
  Sn  Sn2  1  0.00000000  0.60270492  0.75793775  1
  Sn  Sn3  1  0.60270492  0.60270492  0.24206225  1
  Sn  Sn4  1  0.39729508  0.00000000  0.24206225  1
  Sn  Sn5  1  1.00000000  0.39729508  0.24206225  1
  As  As0  1  0.00000000  0.00000000  0.00000000  1
  As  As1  1  0.00000000  0.00000000  0.50000000  1
loop_
_geom_bond_atom_site_label_1
_geom_bond_atom_site_label_2
_geom_bond_distance
_geom_bond_site_symmetry_2
Hf0 Sn0 2.891662 1_555
Hf0 Sn2 2.977182 1_655
Hf0 Sn1 2.977182 1_565
Hf0 Sn3 3.088231 1_556
Hf0 Sn3 3.147244 1_555
Hf1 Sn1 2.891662 1_555
Hf1 Sn0 2.977182 1_555
Hf1 Sn2 2.977182 1_545
Hf1 Sn4 3.088231 1_556
Hf1 Sn4 3.147244 1_555
Hf2 Sn2 2.891662 1_555
Hf2 Sn0 2.977182 1_555
Hf2 Sn1 2.977182 1_455
Hf2 Sn5 3.088231 1_456
Hf2 Sn5 3.147244 1_455
Hf3 Sn3 2.891662 1_555
Hf3 Sn5 2.977182 1_455
Hf3 Sn4 2.977182 1_555
Hf3 Sn0 3.088231 1_554
Hf3 Sn0 3.147244 1_555
Hf4 Sn4 2.891662 1_555
Hf4 Sn5 2.977182 1_555
Hf4 Sn3 2.977182 1_545
Hf4 Sn1 3.088231 1_554
Hf4 Sn1 3.147244 1_555
Hf5 Sn5 2.891662 1_555
Hf5 Sn3 2.977182 1_555
Hf5 Sn4 2.977182 1_665
Hf5 Sn2 3.088231 1_654
Hf5 Sn2 3.147244 1_655
Hf6 Ti1 2.900210 1_555
Hf6 Ti1 2.900210 1_556
Hf6 Sn2 3.004806 1_555
Hf6 Sn4 3.004806 1_565
Hf6 Sn5 3.004809 1_455
Hf6 Sn1 3.004809 1_565
Hf6 Sn3 3.004814 1_555
Hf6 Sn0 3.004814 1_555
Hf7 Ti0 2.900210 1_556
Hf7 Ti0 2.900210 1_555
Hf7 Sn5 3.004806 1_555
Hf7 Sn1 3.004806 1_555
Hf7 Sn2 3.004809 1_655
Hf7 Sn4 3.004809 1_555
Hf7 Sn0 3.004814 1_555
Hf7 Sn3 3.004814 1_555
Sn0 Ti0 2.960041 1_556
Sn0 Ti1 2.960041 1_556
Sn1 Ti0 2.960033 1_556
Sn1 Ti1 2.960036 1_546
Sn2 Ti1 2.960033 1_556
Sn2 Ti0 2.960036 1_456
Sn3 Ti1 2.960041 1_555
Sn3 Ti0 2.960041 1_555
Sn4 Ti1 2.960033 1_545
Sn4 Ti0 2.960036 1_555
Sn5 Ti0 2.960033 1_555
Sn5 Ti1 2.960036 1_655
As0 Hf1 2.671853 1_554
As0 Hf4 2.671853 1_455
As0 Hf3 2.671853 1_555
As0 Hf2 2.671853 1_554
As0 Hf5 2.671853 1_445
As0 Hf0 2.671853 1_444
As1 Hf1 2.656261 1_555
As1 Hf4 2.656261 1_455
As1 Hf2 2.656261 1_555
As1 Hf3 2.656261 1_555
As1 Hf5 2.656261 1_445
As1 Hf0 2.656261 1_445
