# generated using pymatgen
data_Ta12Al3Zn9C4
_symmetry_space_group_name_H-M   'P 1'
_cell_length_a   8.26290253
_cell_length_b   8.25920348
_cell_length_c   8.25920395
_cell_angle_alpha   119.97690042
_cell_angle_beta   120.03613396
_cell_angle_gamma   89.97588380
_symmetry_Int_Tables_number   1
_chemical_formula_structural   Ta12Al3Zn9C4
_chemical_formula_sum   'Ta12 Al3 Zn9 C4'
_cell_volume   398.56546257
_cell_formula_units_Z   1
loop_
 _symmetry_equiv_pos_site_id
 _symmetry_equiv_pos_as_xyz
  1  'x, y, z'
loop_
 _atom_site_type_symbol
 _atom_site_label
 _atom_site_symmetry_multiplicity
 _atom_site_fract_x
 _atom_site_fract_y
 _atom_site_fract_z
 _atom_site_occupancy
  Ta  Ta0  1  0.55734705  0.05752377  0.49982328  1
  Ta  Ta1  1  0.19454947  0.69321401  0.50133446  1
  Ta  Ta2  1  0.19218026  0.05774739  0.49992291  1
  Ta  Ta3  1  0.55638597  0.69328891  0.50118985  1
  Ta  Ta4  1  0.55638597  0.05519511  0.86309706  1
  Ta  Ta5  1  0.19218026  0.69225735  0.13443188  1
  Ta  Ta6  1  0.94263599  0.94245253  0.00018346  1
  Ta  Ta7  1  0.30542067  0.30675266  0.99866801  1
  Ta  Ta8  1  0.30782388  0.94225639  0.00012728  1
  Ta  Ta9  1  0.94356227  0.30666139  0.99876075  1
  Ta  Ta10  1  0.94356227  0.94479952  0.63690088  1
  Ta  Ta11  1  0.30782388  0.30769760  0.36556649  1
  Al  Al0  1  0.25005256  0.50008585  0.74996772  1
  Al  Al1  1  0.74997839  0.49990574  0.74993126  1
  Al  Al2  1  0.74997839  0.00004713  0.25007265  1
  Zn  Zn0  1  0.75009789  0.50006626  0.25002963  1
  Zn  Zn1  1  0.95791038  0.29224445  0.66566592  1
  Zn  Zn2  1  0.62515141  0.29349294  0.33166047  1
  Zn  Zn3  1  0.95663623  0.29324802  0.33164008  1
  Zn  Zn4  1  0.95663623  0.62499615  0.66338721  1
  Zn  Zn5  1  0.54226070  0.70784469  0.83441602  1
  Zn  Zn6  1  0.87484711  0.70658926  0.16825785  1
  Zn  Zn7  1  0.54335883  0.70672553  0.16835084  1
  Zn  Zn8  1  0.54335883  0.37500799  0.83663230  1
  C  C0  1  0.24998338  0.99997985  0.25000453  1
  C  C1  1  0.74996240  0.99997398  0.74998842  1
  C  C2  1  0.24996665  0.99997242  0.74999254  1
  C  C3  1  0.24996665  0.49997411  0.24999424  1
loop_
_geom_bond_atom_site_label_1
_geom_bond_atom_site_label_2
_geom_bond_distance
_geom_bond_site_symmetry_2
Ta0 Zn8 2.767639 1_555
Ta0 Zn7 2.767644 1_545
Ta0 Zn1 3.066369 1_555
Ta0 Zn2 3.086429 1_555
Ta1 Zn6 2.754404 1_455
Ta1 Zn5 2.755514 1_555
Ta1 Zn4 3.059730 1_455
Ta1 Zn3 3.059734 1_455
Ta1 Zn0 3.066787 1_455
Ta2 Zn8 2.768755 1_555
Ta2 Zn6 2.769016 1_445
Ta2 Zn1 3.061416 1_455
Ta2 Zn3 3.081110 1_455
Ta3 Zn7 2.754894 1_555
Ta3 Zn5 2.755633 1_555
Ta3 Zn2 3.059616 1_555
Ta3 Zn4 3.060838 1_555
Ta3 Zn0 3.070098 1_555
Ta4 Zn8 2.754907 1_555
Ta4 Zn5 2.755625 1_545
Ta4 Zn2 3.059631 1_556
Ta4 Zn3 3.060838 1_556
Ta4 Zn0 3.070090 1_556
Ta5 Zn7 2.768751 1_555
Ta5 Zn6 2.769020 1_455
Ta5 Zn1 3.061413 1_454
Ta5 Zn4 3.081110 1_454
Ta6 Zn3 2.767528 1_565
Ta6 Zn4 2.767533 1_554
Ta6 Zn5 3.064912 1_554
Ta6 Zn6 3.085002 1_555
Ta7 Zn2 2.753623 1_556
Ta7 Zn1 2.754775 1_455
Ta7 Zn7 3.059906 1_556
Ta7 Zn8 3.059913 1_555
Ta7 Zn0 3.068553 1_556
Ta8 Zn4 2.768796 1_454
Ta8 Zn2 2.769363 1_565
Ta8 Zn5 3.062191 1_554
Ta8 Zn7 3.081073 1_555
Ta9 Zn3 2.754945 1_556
Ta9 Zn1 2.756071 1_555
Ta9 Zn6 3.060368 1_556
Ta9 Zn8 3.060690 1_555
Ta9 Zn0 3.069222 1_556
Ta10 Zn4 2.754924 1_555
Ta10 Zn1 2.756088 1_565
Ta10 Zn6 3.060368 1_555
Ta10 Zn7 3.060690 1_555
Ta10 Zn0 3.069225 1_555
Ta11 Zn3 2.768799 1_455
Ta11 Zn2 2.769349 1_555
Ta11 Zn5 3.062191 1_555
Ta11 Zn8 3.081077 1_555
Al0 Zn5 2.526309 1_555
Al0 Zn1 2.526888 1_455
Al0 Zn4 2.540321 1_455
Al0 Zn3 2.540326 1_455
Al0 Zn7 2.540339 1_556
Al0 Zn8 2.540343 1_555
Al0 Ta1 3.049813 1_555
Al0 Ta8 3.050838 1_556
Al0 Ta11 3.050852 1_555
Al0 Ta5 3.051863 1_556
Al0 Ta2 3.051877 1_555
Al0 Ta7 3.051953 1_555
Al1 Zn1 2.525804 1_555
Al1 Zn5 2.526099 1_555
Al1 Zn2 2.540374 1_555
Al1 Zn6 2.540641 1_556
Al1 Zn8 2.540710 1_555
Al1 Zn4 2.540773 1_555
Al1 Ta11 3.050216 1_555
Al1 Ta5 3.050685 1_656
Al1 Ta9 3.051930 1_555
Al1 Ta3 3.052439 1_555
Al1 Ta0 3.053100 1_555
Al1 Ta6 3.054092 1_556
Al2 Zn1 2.525804 1_555
Al2 Zn5 2.526099 1_544
Al2 Zn2 2.540387 1_555
Al2 Zn6 2.540640 1_545
Al2 Zn7 2.540717 1_545
Al2 Zn3 2.540766 1_555
Al2 Ta8 3.050214 1_545
Al2 Ta2 3.050687 1_655
Al2 Ta10 3.051941 1_545
Al2 Ta4 3.052433 1_554
Al2 Ta0 3.053101 1_555
Al2 Ta6 3.054092 1_545
Zn0 Zn6 2.505536 1_555
Zn0 Zn2 2.505816 1_555
Zn0 Zn8 2.506207 1_554
Zn0 Zn7 2.506209 1_555
Zn0 Zn3 2.506222 1_555
Zn0 Zn4 2.506225 1_555
Zn1 Zn3 2.757691 1_555
Zn1 Zn4 2.757695 1_555
Zn1 Zn2 2.757767 1_555
Zn2 Zn4 2.739103 1_555
Zn2 Zn3 2.739111 1_555
Zn3 Zn4 2.740928 1_555
Zn5 Zn6 2.756409 1_556
Zn5 Zn8 2.758139 1_555
Zn5 Zn7 2.758143 1_556
Zn6 Zn7 2.739439 1_555
Zn6 Zn8 2.739440 1_554
Zn7 Zn8 2.740683 1_554
C0 Ta6 2.169834 1_455
C0 Ta0 2.169887 1_565
C0 Ta8 2.172311 1_555
C0 Ta11 2.172315 1_565
C0 Ta2 2.172326 1_565
C0 Ta5 2.172330 1_555
C1 Ta4 2.169934 1_565
C1 Ta3 2.169934 1_555
C1 Ta10 2.169999 1_555
C1 Ta9 2.169999 1_565
C1 Ta0 2.171812 1_565
C1 Ta6 2.171945 1_556
C2 Ta10 2.167555 1_455
C2 Ta4 2.167643 1_565
C2 Ta1 2.169419 1_555
C2 Ta7 2.169501 1_565
C2 Ta2 2.172296 1_565
C2 Ta8 2.172319 1_556
C3 Ta9 2.167555 1_454
C3 Ta3 2.167643 1_555
C3 Ta1 2.169411 1_555
C3 Ta7 2.169501 1_554
C3 Ta5 2.172302 1_555
C3 Ta11 2.172306 1_555
