# generated using pymatgen
data_Zr2InPtF15
_symmetry_space_group_name_H-M   'P 1'
_cell_length_a   7.90229565
_cell_length_b   7.90229410
_cell_length_c   7.95340754
_cell_angle_alpha   79.95069610
_cell_angle_beta   79.95069428
_cell_angle_gamma   99.85334408
_symmetry_Int_Tables_number   1
_chemical_formula_structural   Zr2InPtF15
_chemical_formula_sum   'Zr4 In2 Pt2 F30'
_cell_volume   471.01573640
_cell_formula_units_Z   2
loop_
 _symmetry_equiv_pos_site_id
 _symmetry_equiv_pos_as_xyz
  1  'x, y, z'
loop_
 _atom_site_type_symbol
 _atom_site_label
 _atom_site_symmetry_multiplicity
 _atom_site_fract_x
 _atom_site_fract_y
 _atom_site_fract_z
 _atom_site_occupancy
  Zr  Zr0  1  0.82184061  0.74830130  0.32577203  1
  Zr  Zr1  1  0.25169870  0.17815939  0.17422797  1
  Zr  Zr2  1  0.17815939  0.25169870  0.67422797  1
  Zr  Zr3  1  0.74830130  0.82184061  0.82577203  1
  In  In0  1  0.67798005  0.32201995  0.75000000  1
  In  In1  1  0.32201995  0.67798005  0.25000000  1
  Pt  Pt0  1  0.24940803  0.75059197  0.75000000  1
  Pt  Pt1  1  0.75059197  0.24940803  0.25000000  1
  F  F0  1  0.15027219  0.18260713  0.94699697  1
  F  F1  1  0.68330143  0.55762473  0.84731491  1
  F  F2  1  0.04630707  0.65192189  0.31681764  1
  F  F3  1  0.65192189  0.04630707  0.81681764  1
  F  F4  1  0.55762473  0.68330143  0.34731491  1
  F  F5  1  0.18260713  0.15027219  0.44699697  1
  F  F6  1  0.84972781  0.81739287  0.05300303  1
  F  F7  1  0.31669857  0.44237527  0.15268509  1
  F  F8  1  0.95369293  0.34807811  0.68318236  1
  F  F9  1  0.34807811  0.95369293  0.18318236  1
  F  F10  1  0.44237527  0.31669857  0.65268509  1
  F  F11  1  0.81739287  0.84972781  0.55300303  1
  F  F12  1  0.96991921  0.03008079  0.75000000  1
  F  F13  1  0.53649359  0.75188631  0.02788070  1
  F  F14  1  0.24811369  0.46350641  0.47211930  1
  F  F15  1  0.46350641  0.24811369  0.97211930  1
  F  F16  1  0.75188631  0.53649359  0.52788070  1
  F  F17  1  0.03008079  0.96991921  0.25000000  1
  F  F18  1  0.20734674  0.72543477  0.00278498  1
  F  F19  1  0.22356928  0.49518323  0.79211278  1
  F  F20  1  0.99369195  0.70958428  0.77755176  1
  F  F21  1  0.70958428  0.99369195  0.27755176  1
  F  F22  1  0.49518323  0.22356928  0.29211278  1
  F  F23  1  0.72543477  0.20734674  0.50278498  1
  F  F24  1  0.79265326  0.27456523  0.99721502  1
  F  F25  1  0.77643072  0.50481677  0.20788722  1
  F  F26  1  0.00630805  0.29041572  0.22244824  1
  F  F27  1  0.29041572  0.00630805  0.72244824  1
  F  F28  1  0.50481677  0.77643072  0.70788722  1
  F  F29  1  0.27456523  0.79265326  0.49721502  1
loop_
_geom_bond_atom_site_label_1
_geom_bond_atom_site_label_2
_geom_bond_distance
_geom_bond_site_symmetry_2
F0 Zr1 2.098292 1_556
F0 Zr2 2.105171 1_555
F1 Zr3 2.032229 1_555
F1 In0 2.134164 1_555
F2 Zr0 2.041743 1_455
F2 In1 2.115658 1_555
F3 Zr3 2.041743 1_545
F3 In0 2.115658 1_555
F4 Zr0 2.032229 1_555
F4 In1 2.134164 1_555
F5 Zr2 2.098292 1_555
F5 Zr1 2.105171 1_555
F6 Zr3 2.098292 1_554
F6 Zr0 2.105171 1_555
F7 Zr1 2.032229 1_555
F7 In1 2.134164 1_555
F8 Zr2 2.041743 1_655
F8 In0 2.115658 1_555
F9 Zr1 2.041743 1_565
F9 In1 2.115658 1_555
F10 Zr2 2.032229 1_555
F10 In0 2.134164 1_555
F11 Zr0 2.098292 1_555
F11 Zr3 2.105171 1_555
F12 Zr2 2.106504 1_655
F12 Zr3 2.106504 1_545
F13 Zr3 2.031069 1_554
F13 In1 2.142589 1_555
F14 Zr2 2.031069 1_555
F14 In1 2.142589 1_555
F15 Zr1 2.031069 1_556
F15 In0 2.142589 1_555
F16 Zr0 2.031069 1_555
F16 In0 2.142589 1_555
F17 Zr0 2.106504 1_455
F17 Zr1 2.106504 1_565
F18 Pt0 1.948538 1_554
F18 In1 2.304026 1_555
F19 Pt0 1.956179 1_555
F19 Zr2 2.284870 1_555
F20 Pt0 1.957805 1_655
F20 Zr3 2.267648 1_555
F21 Pt1 1.957805 1_565
F21 Zr0 2.267648 1_555
F22 Pt1 1.956179 1_555
F22 Zr1 2.284871 1_555
F23 Pt1 1.948538 1_555
F23 In0 2.304026 1_555
F24 Pt1 1.948538 1_556
F24 In0 2.304026 1_555
F25 Pt1 1.956179 1_555
F25 Zr0 2.284870 1_555
F26 Pt1 1.957805 1_455
F26 Zr1 2.267648 1_555
F27 Pt0 1.957805 1_545
F27 Zr2 2.267648 1_555
F28 Pt0 1.956179 1_555
F28 Zr3 2.284871 1_555
F29 Pt0 1.948538 1_555
F29 In1 2.304026 1_555
