# generated using pymatgen
data_Na10CaSn12
_symmetry_space_group_name_H-M   'P 1'
_cell_length_a   9.70465379
_cell_length_b   9.70465513
_cell_length_c   9.70465609
_cell_angle_alpha   109.47142387
_cell_angle_beta   109.47143392
_cell_angle_gamma   109.47141240
_symmetry_Int_Tables_number   1
_chemical_formula_structural   Na10CaSn12
_chemical_formula_sum   'Na10 Ca1 Sn12'
_cell_volume   703.58269961
_cell_formula_units_Z   1
loop_
 _symmetry_equiv_pos_site_id
 _symmetry_equiv_pos_as_xyz
  1  'x, y, z'
loop_
 _atom_site_type_symbol
 _atom_site_label
 _atom_site_symmetry_multiplicity
 _atom_site_fract_x
 _atom_site_fract_y
 _atom_site_fract_z
 _atom_site_occupancy
  Na  Na0  1  0.24999559  0.49999517  0.74999511  1
  Na  Na1  1  0.38649015  0.38649017  0.38649016  1
  Na  Na2  1  0.00000112  0.61352022  0.00000113  1
  Na  Na3  1  0.61352021  0.00000112  0.00000113  1
  Na  Na4  1  0.00000114  0.00000112  0.61352022  1
  Na  Na5  1  0.74999511  0.49999517  0.24999557  1
  Na  Na6  1  0.24999559  0.74999509  0.49999517  1
  Na  Na7  1  0.74999507  0.24999558  0.49999516  1
  Na  Na8  1  0.49999519  0.24999560  0.74999513  1
  Na  Na9  1  0.49999514  0.74999507  0.24999557  1
  Ca  Ca0  1  0.00000062  0.00000054  0.00000036  1
  Sn  Sn0  1  0.62987563  0.62987568  0.81773551  1
  Sn  Sn1  1  0.00000138  0.18785999  0.37012599  1
  Sn  Sn2  1  0.18786074  0.00000127  0.37012614  1
  Sn  Sn3  1  0.81214259  0.18226690  0.81214266  1
  Sn  Sn4  1  0.18226685  0.81214257  0.81214260  1
  Sn  Sn5  1  0.81773544  0.62987571  0.62987568  1
  Sn  Sn6  1  0.00000130  0.37012606  0.18786019  1
  Sn  Sn7  1  0.37012619  0.00000135  0.18786006  1
  Sn  Sn8  1  0.62987574  0.81773549  0.62987578  1
  Sn  Sn9  1  0.18786020  0.37012616  0.00000135  1
  Sn  Sn10  1  0.37012618  0.18786021  0.00000135  1
  Sn  Sn11  1  0.81214281  0.81214277  0.18226702  1
loop_
_geom_bond_atom_site_label_1
_geom_bond_atom_site_label_2
_geom_bond_distance
_geom_bond_site_symmetry_2
Na0 Sn1 3.216412 1_555
Na0 Sn9 3.216505 1_556
Na0 Sn0 3.216509 1_555
Na0 Sn4 3.216520 1_555
Na1 Sn5 3.431217 1_555
Na1 Sn0 3.431218 1_555
Na1 Sn8 3.431218 1_555
Na1 Sn6 3.519627 1_555
Na1 Sn1 3.519627 1_555
Na1 Sn9 3.519628 1_555
Na1 Sn2 3.519628 1_555
Na1 Sn10 3.519628 1_555
Na1 Sn7 3.519629 1_555
Na2 Sn3 3.431293 1_454
Na2 Sn9 3.431313 1_555
Na2 Sn6 3.431314 1_555
Na2 Sn2 3.519568 1_565
Na2 Sn7 3.519570 1_565
Na2 Sn0 3.519589 1_454
Na2 Sn5 3.519590 1_454
Na2 Sn11 3.519594 1_455
Na2 Sn4 3.519595 1_554
Na3 Sn4 3.431293 1_544
Na3 Sn7 3.431312 1_555
Na3 Sn10 3.431313 1_555
Na3 Sn1 3.519569 1_655
Na3 Sn6 3.519569 1_655
Na3 Sn0 3.519589 1_544
Na3 Sn8 3.519589 1_544
Na3 Sn11 3.519594 1_545
Na3 Sn3 3.519594 1_554
Na4 Sn11 3.431292 1_445
Na4 Sn1 3.431313 1_555
Na4 Sn2 3.431317 1_555
Na4 Sn10 3.519569 1_556
Na4 Sn9 3.519570 1_556
Na4 Sn8 3.519590 1_445
Na4 Sn5 3.519590 1_445
Na4 Sn4 3.519594 1_545
Na4 Sn3 3.519595 1_455
Na5 Sn10 3.216410 1_555
Na5 Sn6 3.216504 1_655
Na5 Sn5 3.216511 1_555
Na5 Sn11 3.216521 1_555
Na6 Sn6 3.216411 1_555
Na6 Sn2 3.216502 1_565
Na6 Sn8 3.216510 1_555
Na6 Sn4 3.216521 1_555
Na7 Sn7 3.216410 1_555
Na7 Sn1 3.216507 1_655
Na7 Sn5 3.216511 1_555
Na7 Sn3 3.216521 1_555
Na8 Sn2 3.216409 1_555
Na8 Sn10 3.216505 1_556
Na8 Sn0 3.216510 1_555
Na8 Sn3 3.216519 1_555
Na9 Sn9 3.216410 1_555
Na9 Sn7 3.216505 1_565
Na9 Sn8 3.216511 1_555
Na9 Sn11 3.216521 1_555
Ca0 Sn8 3.443818 1_444
Ca0 Sn5 3.443819 1_444
Ca0 Sn0 3.443821 1_444
Ca0 Sn4 3.443838 1_544
Ca0 Sn3 3.443839 1_454
Ca0 Sn10 3.443839 1_555
Ca0 Sn7 3.443839 1_555
Ca0 Sn9 3.443840 1_555
Ca0 Sn6 3.443840 1_555
Ca0 Sn1 3.443841 1_555
Ca0 Sn11 3.443841 1_445
Ca0 Sn2 3.443843 1_555
Ca0 Na4 3.750660 1_554
Ca0 Na2 3.750662 1_545
Ca0 Na3 3.750663 1_455
Ca0 Na1 3.750711 1_555
Sn0 Sn11 2.888463 1_556
Sn0 Sn8 2.977137 1_555
Sn0 Sn5 2.977138 1_555
Sn1 Sn6 2.888488 1_555
Sn1 Sn11 2.977096 1_445
Sn1 Sn2 2.977125 1_555
Sn2 Sn7 2.888485 1_555
Sn3 Sn8 2.888463 1_545
Sn3 Sn6 2.977099 1_656
Sn3 Sn9 2.977099 1_656
Sn4 Sn5 2.888462 1_455
Sn4 Sn7 2.977098 1_566
Sn5 Sn8 2.977136 1_555
Sn6 Sn9 2.977123 1_555
Sn10 Sn9 2.888488 1_555
Sn10 Sn4 2.977100 1_544
Sn10 Sn7 2.977121 1_555
Sn11 Sn2 2.977101 1_665
