# generated using pymatgen
data_Lu4As6RuRh6
_symmetry_space_group_name_H-M   'P 1'
_cell_length_a   7.13597630
_cell_length_b   7.13597663
_cell_length_c   7.13597745
_cell_angle_alpha   109.47122020
_cell_angle_beta   109.47122114
_cell_angle_gamma   109.47121919
_symmetry_Int_Tables_number   1
_chemical_formula_structural   Lu4As6RuRh6
_chemical_formula_sum   'Lu4 As6 Ru1 Rh6'
_cell_volume   279.72958635
_cell_formula_units_Z   1
loop_
 _symmetry_equiv_pos_site_id
 _symmetry_equiv_pos_as_xyz
  1  'x, y, z'
loop_
 _atom_site_type_symbol
 _atom_site_label
 _atom_site_symmetry_multiplicity
 _atom_site_fract_x
 _atom_site_fract_y
 _atom_site_fract_z
 _atom_site_occupancy
  Lu  Lu0  1  0.50000000  0.50000000  0.50000000  1
  Lu  Lu1  1  0.00000000  0.50000000  0.00000000  1
  Lu  Lu2  1  0.50000000  0.00000000  0.00000000  1
  Lu  Lu3  1  0.00000000  0.00000000  0.50000000  1
  As  As0  1  0.68556628  0.00000000  0.68556628  1
  As  As1  1  0.68556628  0.68556628  1.00000000  1
  As  As2  1  0.31443372  0.31443372  0.00000000  1
  As  As3  1  0.00000000  0.68556628  0.68556628  1
  As  As4  1  1.00000000  0.31443372  0.31443372  1
  As  As5  1  0.31443372  1.00000000  0.31443372  1
  Ru  Ru0  1  0.00000000  0.00000000  0.00000000  1
  Rh  Rh0  1  0.50000000  0.75000000  0.25000000  1
  Rh  Rh1  1  0.75000000  0.25000000  0.50000000  1
  Rh  Rh2  1  0.25000000  0.75000000  0.50000000  1
  Rh  Rh3  1  0.25000000  0.50000000  0.75000000  1
  Rh  Rh4  1  0.50000000  0.25000000  0.75000000  1
  Rh  Rh5  1  0.75000000  0.50000000  0.25000000  1
loop_
_geom_bond_atom_site_label_1
_geom_bond_atom_site_label_2
_geom_bond_distance
_geom_bond_site_symmetry_2
Lu0 Rh2 2.913250 1_555
Lu0 Rh1 2.913250 1_555
Lu0 Rh5 2.913250 1_555
Lu0 Rh3 2.913250 1_555
Lu0 Rh4 2.913250 1_555
Lu0 Rh0 2.913250 1_555
Lu1 Rh4 2.913250 1_454
Lu1 Rh0 2.913250 1_555
Lu1 Rh5 2.913250 1_455
Lu1 Rh3 2.913250 1_554
Lu1 Rh2 2.913251 1_555
Lu1 Rh1 2.913251 1_454
Lu2 Rh5 2.913250 1_555
Lu2 Rh3 2.913250 1_544
Lu2 Rh0 2.913250 1_545
Lu2 Rh4 2.913250 1_554
Lu2 Rh2 2.913251 1_544
Lu2 Rh1 2.913251 1_555
Lu3 Rh1 2.913250 1_455
Lu3 Rh2 2.913250 1_545
Lu3 Rh0 2.913250 1_445
Lu3 Rh4 2.913250 1_555
Lu3 Rh5 2.913250 1_445
Lu3 Rh3 2.913250 1_555
As0 Rh2 2.565445 1_545
As0 Rh4 2.565445 1_555
As0 Rh1 2.565445 1_555
As0 Rh0 2.565446 1_545
As0 Ru0 2.590908 1_656
As0 Lu3 2.961235 1_655
As0 Lu0 2.961235 1_545
As0 Lu1 2.961235 1_656
As0 Lu2 2.961235 1_556
As1 Rh3 2.565445 1_555
As1 Rh4 2.565445 1_555
As1 Rh0 2.565445 1_556
As1 Rh5 2.565445 1_556
As1 Ru0 2.590907 1_666
As1 Lu1 2.961235 1_656
As1 Lu2 2.961235 1_566
As1 Lu3 2.961235 1_666
As1 Lu0 2.961235 1_555
As2 Rh5 2.565445 1_555
As2 Rh0 2.565445 1_555
As2 Rh4 2.565445 1_554
As2 Rh3 2.565445 1_554
As2 Ru0 2.590907 1_555
As2 Lu1 2.961235 1_555
As2 Lu2 2.961235 1_555
As2 Lu3 2.961235 1_554
As2 Lu0 2.961235 1_555
As3 Rh3 2.565445 1_555
As3 Rh1 2.565445 1_455
As3 Rh2 2.565445 1_555
As3 Rh5 2.565446 1_455
As3 Ru0 2.590908 1_566
As3 Lu0 2.961235 1_455
As3 Lu2 2.961235 1_566
As3 Lu3 2.961235 1_565
As3 Lu1 2.961235 1_556
As4 Rh5 2.565445 1_555
As4 Rh2 2.565445 1_655
As4 Rh1 2.565445 1_555
As4 Rh3 2.565446 1_655
As4 Ru0 2.590908 1_655
As4 Lu0 2.961235 1_655
As4 Lu2 2.961235 1_555
As4 Lu3 2.961235 1_655
As4 Lu1 2.961235 1_655
As5 Rh1 2.565445 1_565
As5 Rh0 2.565445 1_555
As5 Rh2 2.565445 1_555
As5 Rh4 2.565446 1_565
As5 Ru0 2.590908 1_565
As5 Lu3 2.961235 1_565
As5 Lu0 2.961235 1_565
As5 Lu1 2.961235 1_555
As5 Lu2 2.961235 1_565
