# generated using pymatgen
data_K3Ta2SbSe11
_symmetry_space_group_name_H-M   'P 1'
_cell_length_a   10.11195275
_cell_length_b   10.11186775
_cell_length_c   10.05428634
_cell_angle_alpha   82.35103300
_cell_angle_beta   82.33985739
_cell_angle_gamma   81.50112511
_symmetry_Int_Tables_number   1
_chemical_formula_structural   K3Ta2SbSe11
_chemical_formula_sum   'K6 Ta4 Sb2 Se22'
_cell_volume   1000.92838197
_cell_formula_units_Z   2
loop_
 _symmetry_equiv_pos_site_id
 _symmetry_equiv_pos_as_xyz
  1  'x, y, z'
loop_
 _atom_site_type_symbol
 _atom_site_label
 _atom_site_symmetry_multiplicity
 _atom_site_fract_x
 _atom_site_fract_y
 _atom_site_fract_z
 _atom_site_occupancy
  K  K0  1  0.66554662  0.79973510  0.92074172  1
  K  K1  1  0.45257447  0.27310006  0.15633400  1
  K  K2  1  0.79983801  0.66551373  0.42072917  1
  K  K3  1  0.89707444  0.04288127  0.26610460  1
  K  K4  1  0.27312043  0.45254828  0.65633604  1
  K  K5  1  0.04291396  0.89708745  0.76608140  1
  Ta  Ta0  1  0.82434460  0.41027059  0.82970781  1
  Ta  Ta1  1  0.70676411  0.16334165  0.64453891  1
  Ta  Ta2  1  0.41026530  0.82440192  0.32967525  1
  Ta  Ta3  1  0.16331112  0.70678647  0.14455944  1
  Sb  Sb0  1  0.04573167  0.34716285  0.11120393  1
  Sb  Sb1  1  0.34713757  0.04569087  0.61126344  1
  Se  Se0  1  0.20587432  0.51025458  0.98865150  1
  Se  Se1  1  0.81661941  0.31131599  0.43674597  1
  Se  Se2  1  0.64002345  0.44454383  0.66539977  1
  Se  Se3  1  0.94248798  0.78651517  0.09180311  1
  Se  Se4  1  0.78651947  0.94250406  0.59172429  1
  Se  Se5  1  0.44797497  0.80180753  0.58702987  1
  Se  Se6  1  0.59642622  0.93687784  0.24244517  1
  Se  Se7  1  0.94235401  0.25824575  0.62544063  1
  Se  Se8  1  0.25831932  0.94234204  0.12539913  1
  Se  Se9  1  0.31135322  0.81663533  0.93674140  1
  Se  Se10  1  0.80176647  0.44804573  0.08703958  1
  Se  Se11  1  0.57275171  0.49873902  0.88706854  1
  Se  Se12  1  0.22119411  0.02730474  0.40335101  1
  Se  Se13  1  0.02729423  0.22112575  0.90335283  1
  Se  Se14  1  0.14285692  0.73745653  0.40240704  1
  Se  Se15  1  0.13469856  0.51668674  0.34295202  1
  Se  Se16  1  0.44458274  0.64003624  0.16545530  1
  Se  Se17  1  0.51666796  0.13462792  0.84306336  1
  Se  Se18  1  0.51020694  0.20587102  0.48872414  1
  Se  Se19  1  0.93682362  0.59644065  0.74242383  1
  Se  Se20  1  0.73747170  0.14288112  0.90240780  1
  Se  Se21  1  0.49865236  0.57276419  0.38708301  1
loop_
_geom_bond_atom_site_label_1
_geom_bond_atom_site_label_2
_geom_bond_distance
_geom_bond_site_symmetry_2
K0 Se11 3.385553 1_555
K0 Se3 3.454047 1_556
K0 Se16 3.492430 1_556
K0 Se17 3.527962 1_565
K0 Se9 3.543396 1_555
K0 Se4 3.563077 1_555
K0 Se19 3.601141 1_555
K0 Se20 3.625288 1_565
K0 Se6 3.630222 1_556
K0 Se10 3.863029 1_556
K1 Se18 3.430408 1_555
K1 Se11 3.508569 1_554
K1 Se6 3.537621 1_545
K1 Se17 3.558500 1_554
K1 Se0 3.618419 1_554
K1 Se16 3.712420 1_555
K1 Se20 3.790009 1_554
K2 Se21 3.387178 1_555
K2 Se4 3.453629 1_555
K2 Se2 3.492848 1_555
K2 Se15 3.527475 1_655
K2 Se1 3.543542 1_555
K2 Se3 3.561958 1_555
K2 Se6 3.602598 1_555
K2 Se14 3.624100 1_655
K2 Se19 3.629747 1_555
K2 Se5 3.864278 1_555
K3 Se3 3.262705 1_545
K3 Se1 3.344869 1_555
K3 Se4 3.387227 1_545
K3 Se6 3.416413 1_545
K4 Se0 3.429649 1_555
K4 Se21 3.507823 1_555
K4 Se19 3.538150 1_455
K4 Se15 3.559654 1_555
K4 Se18 3.617148 1_555
K4 Se2 3.712028 1_555
K4 Se14 3.790777 1_555
K5 Se4 3.263631 1_455
K5 Se9 3.345385 1_555
K5 Se3 3.388303 1_456
K5 Se19 3.416748 1_455
Sb0 Se10 2.556468 1_455
Sb0 Se0 2.564524 1_554
Sb0 Se13 2.628572 1_554
Sb1 Se5 2.555634 1_545
Sb1 Se18 2.564580 1_555
Sb1 Se12 2.628583 1_555
Se0 Ta3 2.643561 1_556
Se1 Se7 2.382055 1_555
Se1 Ta1 2.622613 1_555
Se2 Ta0 2.607807 1_555
Se2 Ta1 2.852829 1_555
Se3 Ta3 2.363728 1_655
Se4 Ta1 2.363940 1_565
Se5 Ta2 2.640599 1_555
Se6 Ta2 2.352342 1_555
Se7 Ta1 2.671663 1_555
Se7 Ta0 2.765854 1_555
Se8 Se9 2.381273 1_554
Se8 Ta3 2.671791 1_555
Se8 Ta2 2.765672 1_555
Se9 Ta3 2.623059 1_556
Se10 Ta0 2.640440 1_554
Se11 Se2 2.353939 1_555
Se11 Ta0 2.584334 1_555
Se12 Ta2 2.698362 1_545
Se13 Ta0 2.699232 1_455
Se14 Ta3 2.629069 1_555
Se14 Ta2 2.936635 1_555
Se15 Ta3 2.597581 1_555
Se16 Se21 2.353376 1_555
Se16 Ta2 2.607220 1_555
Se16 Ta3 2.853654 1_555
Se17 Ta1 2.598315 1_555
Se18 Ta1 2.643439 1_555
Se19 Ta0 2.352591 1_555
Se20 Ta1 2.629466 1_555
Se20 Ta0 2.936204 1_555
Se21 Ta2 2.584750 1_555
