# generated using pymatgen
data_MnPd3
_symmetry_space_group_name_H-M   'P 1'
_cell_length_a   3.92145494
_cell_length_b   3.92143944
_cell_length_c   8.25914370
_cell_angle_alpha   103.69569251
_cell_angle_beta   103.69596961
_cell_angle_gamma   89.99723401
_symmetry_Int_Tables_number   1
_chemical_formula_structural   MnPd3
_chemical_formula_sum   'Mn2 Pd6'
_cell_volume   119.67592599
_cell_formula_units_Z   2
loop_
 _symmetry_equiv_pos_site_id
 _symmetry_equiv_pos_as_xyz
  1  'x, y, z'
loop_
 _atom_site_type_symbol
 _atom_site_label
 _atom_site_symmetry_multiplicity
 _atom_site_fract_x
 _atom_site_fract_y
 _atom_site_fract_z
 _atom_site_occupancy
  Mn  Mn0  1  0.12374683  0.12374429  0.24775886  1
  Mn  Mn1  1  0.87625565  0.87625307  0.75224405  1
  Pd  Pd0  1  0.37462915  0.37463075  0.74941863  1
  Pd  Pd1  1  0.62537504  0.62537038  0.25058114  1
  Pd  Pd2  1  0.49996396  0.99997728  -0.00000587  1
  Pd  Pd3  1  0.99996949  0.49996377  -0.00000487  1
  Pd  Pd4  1  0.75009792  0.24995915  0.50000355  1
  Pd  Pd5  1  0.24996094  0.75009930  0.50000452  1
loop_
_geom_bond_atom_site_label_1
_geom_bond_atom_site_label_2
_geom_bond_distance
_geom_bond_site_symmetry_2
Mn0 Pd3 2.749317 1_455
Mn0 Pd2 2.749329 1_545
Mn0 Pd3 2.750636 1_445
Mn0 Pd2 2.750647 1_445
Mn0 Pd1 2.771817 1_445
Mn0 Pd1 2.772896 1_455
Mn0 Pd1 2.772908 1_545
Mn0 Pd5 2.772951 1_545
Mn0 Pd4 2.772966 1_455
Mn0 Pd1 2.774255 1_555
Mn0 Pd4 2.776126 1_555
Mn0 Pd5 2.776141 1_555
Mn1 Pd3 2.749426 1_556
Mn1 Pd2 2.749437 1_556
Mn1 Pd2 2.750379 1_656
Mn1 Pd3 2.750390 1_566
Mn1 Pd0 2.771841 1_665
Mn1 Pd0 2.772891 1_655
Mn1 Pd0 2.772914 1_565
Mn1 Pd4 2.773085 1_565
Mn1 Pd5 2.773087 1_655
Mn1 Pd0 2.774231 1_555
Mn1 Pd5 2.775948 1_555
Mn1 Pd4 2.775950 1_555
Pd0 Pd5 2.758541 1_555
Pd0 Pd4 2.758560 1_555
Pd0 Pd5 2.759455 1_545
Pd0 Pd4 2.759458 1_455
Pd0 Pd2 2.764253 1_546
Pd0 Pd3 2.764288 1_456
Pd0 Pd3 2.766463 1_556
Pd0 Pd2 2.766476 1_556
Pd1 Pd4 2.758439 1_555
Pd1 Pd5 2.758464 1_555
Pd1 Pd5 2.759644 1_655
Pd1 Pd4 2.759648 1_565
Pd1 Pd3 2.764172 1_555
Pd1 Pd2 2.764203 1_555
Pd1 Pd2 2.766653 1_545
Pd1 Pd3 2.766684 1_455
Pd2 Pd3 2.772762 1_465
Pd2 Pd3 2.772868 1_555
Pd2 Pd3 2.772924 1_565
Pd2 Pd3 2.772974 1_455
Pd4 Pd5 2.772047 1_645
Pd4 Pd5 2.772943 1_545
Pd4 Pd5 2.772955 1_655
Pd4 Pd5 2.773583 1_555
