# generated using pymatgen
data_Y20Cd6PdRh
_symmetry_space_group_name_H-M   'P 1'
_cell_length_a   9.76085505
_cell_length_b   9.76085543
_cell_length_c   9.74094098
_cell_angle_alpha   90.00000000
_cell_angle_beta   90.00000000
_cell_angle_gamma   120.00000214
_symmetry_Int_Tables_number   1
_chemical_formula_structural   Y20Cd6PdRh
_chemical_formula_sum   'Y20 Cd6 Pd1 Rh1'
_cell_volume   803.72463159
_cell_formula_units_Z   1
loop_
 _symmetry_equiv_pos_site_id
 _symmetry_equiv_pos_as_xyz
  1  'x, y, z'
loop_
 _atom_site_type_symbol
 _atom_site_label
 _atom_site_symmetry_multiplicity
 _atom_site_fract_x
 _atom_site_fract_y
 _atom_site_fract_z
 _atom_site_occupancy
  Y  Y0  1  0.20938976  0.79061024  0.93771203  1
  Y  Y1  1  0.20938976  0.41877952  0.93771203  1
  Y  Y2  1  0.58122048  0.79061024  0.93771203  1
  Y  Y3  1  0.79246524  0.20753476  0.06024726  1
  Y  Y4  1  0.79246524  0.58492949  0.06024726  1
  Y  Y5  1  0.41507051  0.20753476  0.06024726  1
  Y  Y6  1  0.79246524  0.20753476  0.43975274  1
  Y  Y7  1  0.79246524  0.58492949  0.43975274  1
  Y  Y8  1  0.41507051  0.20753476  0.43975274  1
  Y  Y9  1  0.20938976  0.79061024  0.56228797  1
  Y  Y10  1  0.20938976  0.41877952  0.56228797  1
  Y  Y11  1  0.58122048  0.79061024  0.56228797  1
  Y  Y12  1  0.54244640  0.45755360  0.75000000  1
  Y  Y13  1  0.54244640  0.08489379  0.75000000  1
  Y  Y14  1  0.91510621  0.45755360  0.75000000  1
  Y  Y15  1  0.45644676  0.54355324  0.25000000  1
  Y  Y16  1  0.45644676  0.91289353  0.25000000  1
  Y  Y17  1  0.08710647  0.54355324  0.25000000  1
  Y  Y18  1  0.00000000  0.00000000  0.99995150  1
  Y  Y19  1  0.00000000  0.00000000  0.50004850  1
  Cd  Cd0  1  0.88454066  0.11545934  0.75000000  1
  Cd  Cd1  1  0.88454066  0.76908233  0.75000000  1
  Cd  Cd2  1  0.23091767  0.11545934  0.75000000  1
  Cd  Cd3  1  0.11550258  0.88449742  0.25000000  1
  Cd  Cd4  1  0.11550258  0.23100516  0.25000000  1
  Cd  Cd5  1  0.76899484  0.88449742  0.25000000  1
  Pd  Pd0  1  0.66666700  0.33333300  0.25000000  1
  Rh  Rh0  1  0.33333300  0.66666700  0.75000000  1
loop_
_geom_bond_atom_site_label_1
_geom_bond_atom_site_label_2
_geom_bond_distance
_geom_bond_site_symmetry_2
Y0 Y13 3.581165 1_565
Y0 Y14 3.581165 1_455
Y0 Y18 3.591546 1_565
Y0 Y16 3.689883 1_556
Y0 Y17 3.689883 1_556
Y1 Y12 3.581161 1_555
Y1 Y14 3.581170 1_455
Y1 Y18 3.591546 1_555
Y1 Y15 3.689883 1_556
Y1 Y17 3.689883 1_556
Y10 Y12 3.581161 1_555
Y10 Y14 3.581170 1_455
Y10 Y19 3.591546 1_555
Y10 Y15 3.689883 1_555
Y10 Y17 3.689883 1_555
Y11 Y12 3.581161 1_555
Y11 Y13 3.581170 1_565
Y11 Y19 3.591546 1_665
Y11 Y15 3.689883 1_555
Y11 Y16 3.689883 1_555
Y12 Y2 3.581161 1_555
Y12 Y14 3.637478 1_555
Y12 Y13 3.637479 1_555
Y12 Y4 3.687856 1_556
Y12 Y7 3.687856 1_555
Y12 Y5 3.687856 1_556
Y12 Y8 3.687856 1_555
Y13 Y9 3.581165 1_545
Y13 Y2 3.581170 1_545
Y13 Y14 3.637478 1_555
Y13 Y5 3.687846 1_556
Y13 Y8 3.687846 1_555
Y13 Y3 3.687856 1_556
Y13 Y6 3.687856 1_555
Y14 Y9 3.581165 1_655
Y14 Y4 3.687846 1_556
Y14 Y7 3.687846 1_555
Y14 Y3 3.687856 1_556
Y14 Y6 3.687856 1_555
Y15 Y17 3.605077 1_555
Y15 Y16 3.605077 1_555
Y15 Y7 3.607248 1_555
Y15 Y4 3.607248 1_555
Y15 Y8 3.607248 1_555
Y15 Y5 3.607248 1_555
Y15 Y2 3.689883 1_554
Y16 Y17 3.605077 1_555
Y16 Y8 3.607239 1_565
Y16 Y5 3.607239 1_565
Y16 Y6 3.607244 1_565
Y16 Y3 3.607244 1_565
Y16 Y9 3.689883 1_555
Y16 Y2 3.689883 1_554
Y17 Y7 3.607239 1_455
Y17 Y4 3.607239 1_455
Y17 Y6 3.607244 1_455
Y17 Y3 3.607244 1_455
Y17 Y9 3.689883 1_555
Y18 Y3 3.557464 1_456
Y18 Y5 3.557472 1_556
Y18 Y4 3.557472 1_446
Y18 Y2 3.591546 1_445
Y19 Y6 3.557464 1_455
Y19 Y8 3.557472 1_555
Y19 Y7 3.557472 1_445
Y19 Y9 3.591546 1_545
Cd0 Y19 3.120630 1_655
Cd0 Y18 3.120630 1_655
Cd0 Y13 3.200406 1_555
Cd0 Y14 3.200406 1_555
Cd0 Cd2 3.380936 1_655
Cd0 Cd1 3.380936 1_545
Cd0 Y3 3.399450 1_556
Cd0 Y6 3.399450 1_555
Cd0 Y1 3.574245 1_655
Cd0 Y10 3.574245 1_655
Cd0 Y2 3.574245 1_545
Cd0 Y11 3.574245 1_545
Cd1 Y19 3.120625 1_665
Cd1 Y18 3.120625 1_665
Cd1 Y12 3.200406 1_555
Cd1 Y14 3.200406 1_555
Cd1 Cd2 3.380936 1_665
Cd1 Y4 3.399458 1_556
Cd1 Y7 3.399458 1_555
Cd1 Y2 3.574241 1_555
Cd1 Y11 3.574241 1_555
Cd1 Y0 3.574249 1_655
Cd1 Y9 3.574249 1_655
Cd2 Y19 3.120625 1_555
Cd2 Y18 3.120625 1_555
Cd2 Y12 3.200406 1_555
Cd2 Y13 3.200406 1_555
Cd2 Y5 3.399458 1_556
Cd2 Y8 3.399458 1_555
Cd2 Y1 3.574241 1_555
Cd2 Y10 3.574241 1_555
Cd2 Y0 3.574249 1_545
Cd2 Y9 3.574249 1_545
Cd3 Y18 3.121825 1_564
Cd3 Y19 3.121825 1_565
Cd3 Y16 3.198342 1_555
Cd3 Y17 3.198342 1_555
Cd3 Cd5 3.382212 1_455
Cd3 Cd4 3.382212 1_565
Cd3 Y9 3.431196 1_555
Cd3 Y0 3.431196 1_554
Cd3 Y7 3.562134 1_455
Cd3 Y4 3.562134 1_455
Cd3 Y8 3.562134 1_565
Cd3 Y5 3.562134 1_565
Cd4 Y18 3.121825 1_554
Cd4 Y19 3.121825 1_555
Cd4 Y15 3.198342 1_555
Cd4 Y17 3.198342 1_555
Cd4 Cd5 3.382212 1_445
Cd4 Y10 3.431196 1_555
Cd4 Y1 3.431196 1_554
Cd4 Y6 3.562130 1_455
Cd4 Y3 3.562130 1_455
Cd4 Y8 3.562139 1_555
Cd4 Y5 3.562139 1_555
Cd5 Y18 3.121825 1_664
Cd5 Y19 3.121825 1_665
Cd5 Y15 3.198342 1_555
Cd5 Y16 3.198342 1_555
Cd5 Y11 3.431196 1_555
Cd5 Y2 3.431196 1_554
Cd5 Y6 3.562130 1_565
Cd5 Y3 3.562130 1_565
Cd5 Y7 3.562139 1_555
Cd5 Y4 3.562139 1_555
Pd0 Y8 2.817743 1_555
Pd0 Y5 2.817743 1_555
Pd0 Y7 2.817743 1_555
Pd0 Y4 2.817743 1_555
Pd0 Y6 2.817743 1_555
Pd0 Y3 2.817743 1_555
Pd0 Y17 3.554037 1_655
Pd0 Y16 3.554037 1_545
Pd0 Y15 3.554046 1_555
Rh0 Y0 2.781038 1_555
Rh0 Y9 2.781038 1_555
Rh0 Y2 2.781044 1_555
Rh0 Y11 2.781044 1_555
Rh0 Y1 2.781044 1_555
Rh0 Y10 2.781044 1_555
Rh0 Y14 3.535333 1_455
Rh0 Y13 3.535333 1_565
Rh0 Y12 3.535333 1_555
