# generated using pymatgen
data_Hf4Bi2Mo
_symmetry_space_group_name_H-M   'P 1'
_cell_length_a   8.31354260
_cell_length_b   8.31354124
_cell_length_c   8.31354289
_cell_angle_alpha   96.29975110
_cell_angle_beta   96.29975248
_cell_angle_gamma   141.31004993
_symmetry_Int_Tables_number   1
_chemical_formula_structural   Hf4Bi2Mo
_chemical_formula_sum   'Hf8 Bi4 Mo2'
_cell_volume   338.90086706
_cell_formula_units_Z   2
loop_
 _symmetry_equiv_pos_site_id
 _symmetry_equiv_pos_as_xyz
  1  'x, y, z'
loop_
 _atom_site_type_symbol
 _atom_site_label
 _atom_site_symmetry_multiplicity
 _atom_site_fract_x
 _atom_site_fract_y
 _atom_site_fract_z
 _atom_site_occupancy
  Hf  Hf0  1  0.08383538  0.20015627  0.28399065  1
  Hf  Hf1  1  0.91616462  0.79984373  0.71600935  1
  Hf  Hf2  1  0.79984373  0.08383538  0.88367912  1
  Hf  Hf3  1  0.41616462  0.70015627  0.11632088  1
  Hf  Hf4  1  0.20015627  0.91616462  0.11632088  1
  Hf  Hf5  1  0.58383538  0.29984373  0.88367912  1
  Hf  Hf6  1  0.70015627  0.58383538  0.28399065  1
  Hf  Hf7  1  0.29984373  0.41616462  0.71600935  1
  Bi  Bi0  1  0.13961100  0.63961100  0.77922099  1
  Bi  Bi1  1  0.86038900  0.36038900  0.22077901  1
  Bi  Bi2  1  0.36038900  0.13961100  0.50000000  1
  Bi  Bi3  1  0.63961100  0.86038900  0.50000000  1
  Mo  Mo0  1  0.25000000  0.25000000  0.00000000  1
  Mo  Mo1  1  0.75000000  0.75000000  0.00000000  1
loop_
_geom_bond_atom_site_label_1
_geom_bond_atom_site_label_2
_geom_bond_distance
_geom_bond_site_symmetry_2
Hf0 Mo0 2.773275 1_555
Hf0 Mo1 2.773277 1_445
Hf0 Hf6 3.303661 1_445
Hf0 Hf6 3.303662 1_555
Hf0 Hf3 3.323199 1_555
Hf0 Hf3 3.323203 1_445
Hf0 Hf7 3.388828 1_555
Hf0 Hf2 3.404431 1_454
Hf0 Hf4 3.404435 1_545
Hf1 Mo1 2.773275 1_556
Hf1 Mo0 2.773277 1_666
Hf1 Hf7 3.303661 1_665
Hf1 Hf7 3.303662 1_555
Hf1 Hf5 3.323199 1_555
Hf1 Hf5 3.323203 1_665
Hf1 Hf6 3.388828 1_555
Hf1 Hf4 3.404431 1_656
Hf1 Hf2 3.404435 1_565
Hf2 Mo1 2.773282 1_546
Hf2 Mo0 2.773283 1_656
Hf2 Hf3 3.303661 1_656
Hf2 Hf3 3.303661 1_546
Hf2 Hf7 3.323199 1_655
Hf2 Hf7 3.323203 1_545
Hf2 Hf5 3.388812 1_555
Hf3 Mo0 2.773282 1_555
Hf3 Mo1 2.773283 1_555
Hf3 Hf4 3.388812 1_555
Hf3 Hf7 3.404431 1_554
Hf3 Hf6 3.404435 1_555
Hf4 Mo0 2.773282 1_565
Hf4 Mo1 2.773283 1_455
Hf4 Hf5 3.303661 1_454
Hf4 Hf5 3.303661 1_564
Hf4 Hf6 3.323199 1_455
Hf4 Hf6 3.323203 1_565
Hf5 Mo1 2.773282 1_556
Hf5 Mo0 2.773283 1_556
Hf5 Hf6 3.404431 1_556
Hf5 Hf7 3.404435 1_555
Hf6 Mo1 2.773275 1_555
Hf6 Mo0 2.773278 1_555
Hf7 Mo0 2.773275 1_556
Hf7 Mo1 2.773278 1_556
Bi0 Hf7 3.050216 1_555
Bi0 Hf1 3.050216 1_455
Bi0 Hf4 3.140568 1_556
Bi0 Hf3 3.140569 1_556
Bi0 Hf5 3.335622 1_565
Bi0 Hf2 3.335623 1_565
Bi0 Hf2 3.335627 1_455
Bi0 Hf5 3.335627 1_455
Bi1 Hf6 3.050216 1_555
Bi1 Hf0 3.050216 1_655
Bi1 Hf2 3.140568 1_554
Bi1 Hf5 3.140569 1_554
Bi1 Hf3 3.335622 1_545
Bi1 Hf4 3.335623 1_545
Bi1 Hf4 3.335627 1_655
Bi1 Hf3 3.335627 1_655
Bi2 Hf4 3.050219 1_545
Bi2 Hf5 3.050219 1_555
Bi2 Hf7 3.140566 1_555
Bi2 Hf0 3.140566 1_555
Bi2 Hf1 3.335624 1_555
Bi2 Hf6 3.335624 1_445
Bi2 Hf6 3.335629 1_555
Bi2 Hf1 3.335629 1_445
Bi3 Hf2 3.050219 1_565
Bi3 Hf3 3.050219 1_555
Bi3 Hf6 3.140566 1_555
Bi3 Hf1 3.140566 1_555
Bi3 Hf0 3.335624 1_555
Bi3 Hf7 3.335624 1_665
Bi3 Hf7 3.335629 1_555
Bi3 Hf0 3.335629 1_665
Mo0 Mo1 2.753903 1_555
Mo0 Mo1 2.753903 1_445
