# generated using pymatgen
data_Ti8Al15PdRh6
_symmetry_space_group_name_H-M   'P 1'
_cell_length_a   8.60881077
_cell_length_b   8.58932400
_cell_length_c   8.60491826
_cell_angle_alpha   120.04031695
_cell_angle_beta   119.87284785
_cell_angle_gamma   90.04411997
_symmetry_Int_Tables_number   1
_chemical_formula_structural   Ti8Al15PdRh6
_chemical_formula_sum   'Ti8 Al15 Pd1 Rh6'
_cell_volume   450.33462105
_cell_formula_units_Z   1
loop_
 _symmetry_equiv_pos_site_id
 _symmetry_equiv_pos_as_xyz
  1  'x, y, z'
loop_
 _atom_site_type_symbol
 _atom_site_label
 _atom_site_symmetry_multiplicity
 _atom_site_fract_x
 _atom_site_fract_y
 _atom_site_fract_z
 _atom_site_occupancy
  Ti  Ti0  1  0.79064592  0.29035729  0.07451699  1
  Ti  Ti1  1  0.21684350  0.28975147  0.49919593  1
  Ti  Ti2  1  0.20904374  0.70854183  0.50053700  1
  Ti  Ti3  1  0.21522836  0.71654760  0.92451759  1
  Ti  Ti4  1  0.79045998  0.71596570  0.50112705  1
  Ti  Ti5  1  0.78193979  0.28321611  0.49956674  1
  Ti  Ti6  1  0.38563607  0.12530745  0.74814987  1
  Ti  Ti7  1  0.37947444  0.63575470  0.25723159  1
  Al  Al0  1  0.99630902  0.49559018  0.49972531  1
  Al  Al1  1  0.15409133  0.34359941  0.19006307  1
  Al  Al2  1  0.15563538  0.96590988  0.81295214  1
  Al  Al3  1  0.15101531  0.34834748  0.80518016  1
  Al  Al4  1  0.54221161  0.34637900  0.19666493  1
  Al  Al5  1  0.84488948  0.65259525  0.80756248  1
  Al  Al6  1  0.84398061  0.03803318  0.18952917  1
  Al  Al7  1  0.84164086  0.65234983  0.18528990  1
  Al  Al8  1  0.46745703  0.65481377  0.81189416  1
  Al  Al9  1  0.37875213  0.12148932  0.25744151  1
  Al  Al10  1  0.86270845  0.12332406  0.74616428  1
  Al  Al11  1  0.61768642  0.87679400  0.25339230  1
  Al  Al12  1  0.62168034  0.36575773  0.74335342  1
  Al  Al13  1  0.62211023  0.87720572  0.74353245  1
  Al  Al14  1  0.13544983  0.87694753  0.25305488  1
  Pd  Pd0  1  0.00025239  0.99950744  0.49997576  1
  Rh  Rh0  1  0.49856365  0.99990658  0.99842330  1
  Rh  Rh1  1  0.49742051  0.49770128  0.00064962  1
  Rh  Rh2  1  0.49793344  0.49973065  0.49804072  1
  Rh  Rh3  1  0.00203720  0.49978456  0.00195620  1
  Rh  Rh4  1  0.99948230  0.99948852  0.99964424  1
  Rh  Rh5  1  0.49941869  0.99930147  0.50066625  1
loop_
_geom_bond_atom_site_label_1
_geom_bond_atom_site_label_2
_geom_bond_distance
_geom_bond_site_symmetry_2
Ti0 Ti6 2.881930 1_554
Ti1 Ti6 2.937254 1_555
Ti2 Ti7 2.945790 1_555
Ti2 Ti6 2.965434 1_565
Ti3 Ti7 2.938647 1_556
Ti4 Ti7 2.923877 1_555
Al0 Ti2 2.582441 1_655
Al0 Ti3 2.588693 1_655
Al0 Ti0 2.591114 1_555
Al0 Ti5 2.592890 1_555
Al0 Ti4 2.593669 1_555
Al0 Ti1 2.595394 1_655
Al1 Rh4 2.482932 1_444
Al1 Rh3 2.489845 1_555
Al1 Rh2 2.490947 1_555
Al1 Ti1 2.717059 1_555
Al1 Ti0 2.725972 1_455
Al1 Ti2 2.746108 1_555
Al1 Al10 2.770286 1_454
Al1 Al9 2.777131 1_555
Al1 Ti7 2.796271 1_555
Al2 Rh4 2.481735 1_455
Al2 Rh0 2.487260 1_555
Al2 Pd0 2.513101 1_555
Al2 Ti3 2.709638 1_555
Al2 Ti4 2.740603 1_455
Al2 Ti2 2.758262 1_555
Al2 Al9 2.768490 1_566
Al2 Ti6 2.822411 1_565
Al3 Rh3 2.482852 1_556
Al3 Rh1 2.490990 1_556
Al3 Pd0 2.505882 1_545
Al3 Ti5 2.743131 1_455
Al3 Ti3 2.746326 1_555
Al3 Ti1 2.768937 1_555
Al3 Ti7 2.801877 1_556
Al3 Ti6 2.835956 1_555
Al4 Rh2 2.484153 1_555
Al4 Rh0 2.486866 1_544
Al4 Rh1 2.496166 1_555
Al4 Ti5 2.721423 1_555
Al4 Ti4 2.755659 1_555
Al4 Ti0 2.764950 1_555
Al4 Al9 2.779446 1_555
Al4 Ti6 2.791807 1_554
Al4 Ti7 2.801427 1_555
Al5 Rh4 2.500567 1_555
Al5 Rh3 2.509527 1_656
Al5 Rh2 2.511399 1_555
Al5 Ti5 2.744374 1_555
Al5 Ti4 2.770455 1_555
Al5 Ti3 2.779683 1_655
Al6 Rh4 2.491877 1_544
Al6 Rh0 2.498414 1_544
Al6 Pd0 2.522165 1_645
Al6 Ti0 2.753874 1_555
Al6 Ti5 2.762906 1_555
Al6 Ti1 2.789120 1_655
Al7 Rh3 2.493104 1_655
Al7 Rh1 2.502184 1_555
Al7 Pd0 2.512888 1_655
Al7 Ti0 2.717090 1_555
Al7 Ti4 2.754138 1_555
Al7 Ti2 2.781252 1_655
Al8 Rh0 2.498226 1_555
Al8 Rh2 2.498286 1_555
Al8 Rh1 2.510676 1_556
Al8 Ti1 2.736103 1_555
Al8 Ti3 2.742040 1_555
Al8 Ti2 2.764467 1_555
Al9 Rh5 2.568281 1_545
Al9 Rh2 2.652999 1_555
Al9 Rh0 2.661468 1_544
Al9 Rh4 2.670561 1_444
Al9 Ti5 2.865158 1_555
Al9 Ti1 2.870617 1_555
Al9 Ti3 2.878395 1_544
Al10 Rh5 2.557146 1_545
Al10 Rh3 2.641470 1_656
Al10 Rh4 2.653627 1_545
Al10 Pd0 2.695526 1_645
Al10 Al2 2.803070 1_645
Al10 Al3 2.812142 1_655
Al10 Ti0 2.848725 1_556
Al10 Ti5 2.884745 1_555
Al10 Ti4 2.894638 1_545
Al10 Al12 2.940969 1_555
Al10 Al13 2.942482 1_545
Al10 Al11 3.001103 1_545
Al11 Rh5 2.566960 1_555
Al11 Rh1 2.658177 1_555
Al11 Rh0 2.658326 1_554
Al11 Pd0 2.693343 1_655
Al11 Al8 2.755041 1_554
Al11 Al7 2.788750 1_555
Al11 Al6 2.799914 1_565
Al11 Ti3 2.869272 1_554
Al11 Ti5 2.877117 1_565
Al11 Ti4 2.908251 1_555
Al11 Ti7 2.936391 1_555
Al11 Al9 2.941832 1_565
Al12 Rh5 2.569136 1_545
Al12 Rh2 2.666231 1_555
Al12 Rh3 2.677651 1_656
Al12 Rh1 2.679458 1_556
Al12 Al7 2.748411 1_556
Al12 Al8 2.755697 1_555
Al12 Al5 2.764036 1_555
Al12 Ti5 2.863938 1_555
Al12 Ti1 2.883714 1_555
Al12 Ti0 2.894100 1_556
Al12 Ti6 2.925558 1_555
Al12 Al9 2.959323 1_555
Al13 Rh5 2.565162 1_555
Al13 Rh2 2.646719 1_555
Al13 Rh4 2.656943 1_555
Al13 Rh0 2.657771 1_555
Al13 Al8 2.769250 1_555
Al13 Al6 2.769632 1_566
Al13 Al5 2.778691 1_555
Al13 Ti4 2.914029 1_555
Al13 Ti0 2.926826 1_566
Al13 Ti2 2.944214 1_555
Al13 Ti6 2.947822 1_565
Al13 Ti7 2.961769 1_555
Al14 Rh5 2.562148 1_555
Al14 Rh4 2.643888 1_454
Al14 Rh3 2.645090 1_555
Al14 Pd0 2.683879 1_555
Al14 Al5 2.776684 1_454
Al14 Al7 2.802889 1_455
Al14 Al6 2.811684 1_465
Al14 Ti3 2.897917 1_554
Al14 Ti1 2.923659 1_565
Al14 Al9 2.938623 1_565
Al14 Ti7 2.951678 1_555
Al14 Ti2 2.961473 1_555
Al14 Ti6 3.015391 1_565
Pd0 Ti6 2.713211 1_565
Pd0 Ti4 3.037844 1_455
Pd0 Ti2 3.080126 1_555
Pd0 Ti1 3.116705 1_565
Rh0 Ti6 2.642287 1_565
Rh0 Ti3 3.028801 1_555
Rh0 Ti2 3.073848 1_555
Rh0 Ti0 3.112872 1_566
Rh1 Ti6 2.613844 1_554
Rh1 Ti7 2.631644 1_555
Rh1 Ti0 3.080576 1_555
Rh1 Ti4 3.084152 1_555
Rh1 Ti3 3.085270 1_554
Rh1 Ti1 3.088358 1_554
Rh2 Ti7 2.649445 1_555
Rh2 Ti1 3.023882 1_555
Rh2 Ti2 3.069843 1_555
Rh2 Ti4 3.109496 1_555
Rh3 Ti7 2.657553 1_555
Rh3 Ti0 3.031307 1_455
Rh3 Ti2 3.077979 1_555
Rh3 Ti3 3.119948 1_554
Rh4 Ti3 3.066559 1_655
Rh4 Ti4 3.068327 1_555
Rh4 Ti0 3.072180 1_566
Rh4 Ti1 3.073313 1_666
Rh5 Ti6 2.537303 1_565
Rh5 Ti7 2.548772 1_555
