# generated using pymatgen
data_Zn22OsPt2
_symmetry_space_group_name_H-M   'P 1'
_cell_length_a   7.68567536
_cell_length_b   7.68567488
_cell_length_c   7.64157213
_cell_angle_alpha   72.81340413
_cell_angle_beta   72.81340069
_cell_angle_gamma   59.63199594
_symmetry_Int_Tables_number   1
_chemical_formula_structural   Zn22OsPt2
_chemical_formula_sum   'Zn22 Os1 Pt2'
_cell_volume   366.17157464
_cell_formula_units_Z   1
loop_
 _symmetry_equiv_pos_site_id
 _symmetry_equiv_pos_as_xyz
  1  'x, y, z'
loop_
 _atom_site_type_symbol
 _atom_site_label
 _atom_site_symmetry_multiplicity
 _atom_site_fract_x
 _atom_site_fract_y
 _atom_site_fract_z
 _atom_site_occupancy
  Zn  Zn0  1  0.33810767  0.75237678  0.31264665  1
  Zn  Zn1  1  0.66189233  0.24762322  0.68735335  1
  Zn  Zn2  1  0.24762322  0.66189233  0.68735335  1
  Zn  Zn3  1  0.75237678  0.33810767  0.31264665  1
  Zn  Zn4  1  0.68634025  0.31365975  1.00000000  1
  Zn  Zn5  1  0.31365975  0.68634025  0.00000000  1
  Zn  Zn6  1  0.83015389  0.83015389  0.78077897  1
  Zn  Zn7  1  0.16984611  0.16984611  0.21922103  1
  Zn  Zn8  1  0.97088116  0.97088116  0.17359147  1
  Zn  Zn9  1  0.02911884  0.02911884  0.82640853  1
  Zn  Zn10  1  0.36229900  0.36229900  0.27603578  1
  Zn  Zn11  1  0.63770100  0.63770100  0.72396422  1
  Zn  Zn12  1  0.68957235  0.68957235  0.38054052  1
  Zn  Zn13  1  0.31042765  0.31042765  0.61945948  1
  Zn  Zn14  1  0.65662642  0.02844568  0.45630741  1
  Zn  Zn15  1  0.34337358  0.97155432  0.54369259  1
  Zn  Zn16  1  0.97155432  0.34337358  0.54369259  1
  Zn  Zn17  1  0.02844568  0.65662642  0.45630741  1
  Zn  Zn18  1  0.61084114  0.00178766  0.11329149  1
  Zn  Zn19  1  0.38915886  0.99821234  0.88670851  1
  Zn  Zn20  1  0.99821234  0.38915886  0.88670851  1
  Zn  Zn21  1  0.00178766  0.61084114  0.11329149  1
  Os  Os0  1  0.00000000  0.00000000  0.50000000  1
  Pt  Pt0  1  0.65729639  0.65729639  0.05623473  1
  Pt  Pt1  1  0.34270361  0.34270361  0.94376527  1
loop_
_geom_bond_atom_site_label_1
_geom_bond_atom_site_label_2
_geom_bond_distance
_geom_bond_site_symmetry_2
Zn0 Zn5 2.660649 1_555
Zn0 Zn17 2.675882 1_555
Zn0 Zn12 2.675956 1_555
Zn0 Zn15 2.797361 1_555
Zn0 Zn8 2.800102 1_455
Zn1 Zn4 2.660649 1_555
Zn1 Zn16 2.675882 1_555
Zn1 Zn13 2.675956 1_555
Zn1 Zn14 2.797361 1_555
Zn1 Zn9 2.800102 1_655
Zn2 Zn5 2.660650 1_556
Zn2 Zn9 2.800101 1_565
Zn3 Zn4 2.660650 1_554
Zn3 Zn8 2.800101 1_545
Zn4 Zn9 2.703044 1_655
Zn4 Zn8 2.703044 1_546
Zn4 Zn5 2.848354 1_556
Zn5 Zn8 2.703044 1_455
Zn5 Zn9 2.703044 1_564
Zn6 Zn9 2.791581 1_665
Zn7 Zn8 2.791581 1_445
Zn8 Zn9 2.497650 1_664
Zn10 Zn13 2.475669 1_555
Zn10 Zn4 2.685459 1_554
Zn10 Zn5 2.685459 1_555
Zn10 Zn17 2.735416 1_555
Zn10 Zn14 2.735416 1_555
Zn11 Zn12 2.475669 1_555
Zn11 Zn5 2.685459 1_556
Zn11 Zn4 2.685459 1_555
Zn11 Zn16 2.735416 1_555
Zn11 Zn15 2.735416 1_555
Zn12 Zn21 2.580874 1_655
Zn12 Zn18 2.580874 1_565
Zn12 Zn15 2.671471 1_555
Zn12 Zn16 2.671471 1_555
Zn12 Zn3 2.675956 1_555
Zn12 Zn14 2.705604 1_565
Zn12 Zn17 2.705604 1_655
Zn13 Zn20 2.580874 1_455
Zn13 Zn19 2.580874 1_545
Zn13 Zn14 2.671471 1_555
Zn13 Zn17 2.671471 1_555
Zn13 Zn2 2.675956 1_555
Zn13 Zn15 2.705604 1_545
Zn13 Zn16 2.705604 1_455
Zn14 Zn15 2.524914 1_545
Zn14 Zn8 2.664079 1_545
Zn14 Zn3 2.675882 1_555
Zn14 Zn6 2.813376 1_545
Zn14 Zn18 2.823430 1_555
Zn14 Zn17 2.841772 1_645
Zn15 Zn9 2.664079 1_565
Zn15 Zn2 2.675882 1_555
Zn15 Zn7 2.813376 1_565
Zn15 Zn19 2.823430 1_555
Zn15 Zn16 2.841772 1_465
Zn16 Zn17 2.524914 1_655
Zn16 Zn9 2.664079 1_655
Zn16 Zn3 2.797361 1_555
Zn16 Zn7 2.813375 1_655
Zn16 Zn20 2.823430 1_555
Zn17 Zn8 2.664079 1_455
Zn17 Zn2 2.797361 1_555
Zn17 Zn6 2.813375 1_455
Zn17 Zn21 2.823430 1_555
Zn18 Zn4 2.591264 1_554
Zn18 Zn8 2.819594 1_545
Zn19 Zn5 2.591264 1_556
Zn19 Zn9 2.819594 1_565
Zn20 Zn4 2.591265 1_555
Zn20 Zn9 2.819594 1_655
Zn21 Zn5 2.591265 1_555
Zn21 Zn8 2.819594 1_455
Os0 Zn7 2.534593 1_555
Os0 Zn6 2.534593 1_445
Os0 Zn1 2.614482 1_455
Os0 Zn0 2.614482 1_545
Os0 Zn2 2.614482 1_545
Os0 Zn3 2.614482 1_455
Os0 Zn17 2.649172 1_545
Os0 Zn16 2.649172 1_455
Os0 Zn15 2.649172 1_545
Os0 Zn14 2.649172 1_455
Os0 Zn9 2.651790 1_555
Os0 Zn8 2.651790 1_445
Pt0 Zn6 2.537716 1_554
Pt0 Zn0 2.565982 1_555
Pt0 Zn3 2.565982 1_555
Pt0 Zn20 2.627274 1_554
Pt0 Zn19 2.627274 1_554
Pt0 Zn18 2.638562 1_565
Pt0 Zn21 2.638563 1_655
Pt0 Zn11 2.639533 1_554
Pt0 Zn12 2.655822 1_555
Pt0 Zn4 2.688441 1_554
Pt0 Zn5 2.688442 1_555
Pt1 Zn7 2.537716 1_556
Pt1 Zn1 2.565982 1_555
Pt1 Zn2 2.565982 1_555
Pt1 Zn21 2.627274 1_556
Pt1 Zn18 2.627274 1_556
Pt1 Zn19 2.638562 1_545
Pt1 Zn20 2.638563 1_455
Pt1 Zn10 2.639533 1_556
Pt1 Zn13 2.655822 1_555
Pt1 Zn5 2.688441 1_556
Pt1 Zn4 2.688442 1_555
