# generated using pymatgen
data_Hf12Zn9Cu3C4
_symmetry_space_group_name_H-M   'P 1'
_cell_length_a   8.46560866
_cell_length_b   8.46560791
_cell_length_c   8.45369810
_cell_angle_alpha   59.95338231
_cell_angle_beta   59.95338583
_cell_angle_gamma   60.00000003
_symmetry_Int_Tables_number   1
_chemical_formula_structural   Hf12Zn9Cu3C4
_chemical_formula_sum   'Hf12 Zn9 Cu3 C4'
_cell_volume   428.09653352
_cell_formula_units_Z   1
loop_
 _symmetry_equiv_pos_site_id
 _symmetry_equiv_pos_as_xyz
  1  'x, y, z'
loop_
 _atom_site_type_symbol
 _atom_site_label
 _atom_site_symmetry_multiplicity
 _atom_site_fract_x
 _atom_site_fract_y
 _atom_site_fract_z
 _atom_site_occupancy
  Hf  Hf0  1  0.44078465  0.44078465  0.05754330  1
  Hf  Hf1  1  0.06088841  0.44078465  0.05754330  1
  Hf  Hf2  1  0.44078465  0.06088841  0.05754330  1
  Hf  Hf3  1  0.05906895  0.05906895  0.44107857  1
  Hf  Hf4  1  0.44078353  0.05906895  0.44107857  1
  Hf  Hf5  1  0.05906895  0.44078353  0.44107857  1
  Hf  Hf6  1  0.80921535  0.80921535  0.19245670  1
  Hf  Hf7  1  0.18911159  0.80921535  0.19245670  1
  Hf  Hf8  1  0.80921535  0.18911159  0.19245670  1
  Hf  Hf9  1  0.19093105  0.19093105  0.80892143  1
  Hf  Hf10  1  0.80921647  0.19093105  0.80892143  1
  Hf  Hf11  1  0.19093105  0.80921647  0.80892143  1
  Zn  Zn0  1  0.82981821  0.82981821  0.51054437  1
  Zn  Zn1  1  0.83254879  0.50887427  0.82602714  1
  Zn  Zn2  1  0.50887427  0.83254879  0.82602714  1
  Zn  Zn3  1  0.83254879  0.83254879  0.82602714  1
  Zn  Zn4  1  0.42018179  0.42018179  0.73945563  1
  Zn  Zn5  1  0.41745121  0.74112573  0.42397286  1
  Zn  Zn6  1  0.74112573  0.41745121  0.42397286  1
  Zn  Zn7  1  0.41745121  0.41745121  0.42397286  1
  Zn  Zn8  1  0.62500000  0.62500000  0.12500000  1
  Cu  Cu0  1  0.62500000  0.12500000  0.62500000  1
  Cu  Cu1  1  0.12500000  0.62500000  0.62500000  1
  Cu  Cu2  1  0.62500000  0.62500000  0.62500000  1
  C  C0  1  0.12500000  0.12500000  0.62500000  1
  C  C1  1  0.12500000  0.62500000  0.12500000  1
  C  C2  1  0.62500000  0.12500000  0.12500000  1
  C  C3  1  0.12500000  0.12500000  0.12500000  1
loop_
_geom_bond_atom_site_label_1
_geom_bond_atom_site_label_2
_geom_bond_distance
_geom_bond_site_symmetry_2
Hf0 Zn4 2.874267 1_554
Hf0 Zn7 2.913280 1_555
Hf0 Zn8 3.066334 1_555
Hf0 Zn2 3.073096 1_554
Hf0 Zn1 3.073096 1_554
Hf1 Zn4 2.874267 1_554
Hf1 Zn6 2.913280 1_455
Hf1 Zn8 3.066342 1_455
Hf1 Zn3 3.073103 1_454
Hf1 Zn1 3.073110 1_454
Hf2 Zn4 2.874267 1_554
Hf2 Zn5 2.913280 1_545
Hf2 Zn8 3.066341 1_545
Hf2 Zn3 3.073103 1_544
Hf2 Zn2 3.073110 1_544
Hf3 Zn6 2.873080 1_455
Hf3 Zn5 2.873080 1_545
Hf3 Zn3 3.020522 1_445
Hf3 Zn0 3.059699 1_445
Hf4 Zn5 2.873076 1_545
Hf4 Zn7 2.873084 1_555
Hf4 Zn2 3.020519 1_545
Hf4 Zn0 3.059692 1_545
Hf5 Zn6 2.873076 1_455
Hf5 Zn7 2.873084 1_555
Hf5 Zn1 3.020519 1_455
Hf5 Zn0 3.059692 1_455
Hf6 Zn0 2.874267 1_555
Hf6 Zn3 2.913280 1_554
Hf6 Zn8 3.066334 1_555
Hf6 Zn6 3.073096 1_555
Hf6 Zn5 3.073096 1_555
Hf7 Zn0 2.874267 1_455
Hf7 Zn2 2.913280 1_554
Hf7 Zn8 3.066342 1_555
Hf7 Zn7 3.073103 1_555
Hf7 Zn5 3.073110 1_555
Hf8 Zn0 2.874267 1_545
Hf8 Zn1 2.913280 1_554
Hf8 Zn8 3.066341 1_555
Hf8 Zn7 3.073103 1_555
Hf8 Zn6 3.073110 1_555
Hf9 Zn2 2.873080 1_545
Hf9 Zn1 2.873080 1_455
Hf9 Zn7 3.020522 1_555
Hf9 Zn4 3.059699 1_555
Hf10 Zn1 2.873076 1_555
Hf10 Zn3 2.873084 1_545
Hf10 Zn6 3.020519 1_555
Hf10 Zn4 3.059692 1_555
Hf11 Zn2 2.873076 1_555
Hf11 Zn3 2.873084 1_455
Hf11 Zn5 3.020519 1_555
Hf11 Zn4 3.059692 1_555
Zn0 Zn1 2.690343 1_555
Zn0 Zn3 2.690343 1_555
Zn0 Zn2 2.690343 1_555
Zn1 Zn8 2.599098 1_556
Zn1 Zn3 2.740102 1_555
Zn1 Zn2 2.740102 1_555
Zn2 Zn8 2.599098 1_556
Zn2 Zn3 2.740102 1_555
Zn3 Zn8 2.599094 1_556
Zn4 Zn5 2.690343 1_555
Zn4 Zn7 2.690343 1_555
Zn4 Zn6 2.690343 1_555
Zn5 Zn8 2.599098 1_555
Zn5 Zn7 2.740102 1_555
Zn5 Zn6 2.740102 1_555
Zn6 Zn8 2.599098 1_555
Zn6 Zn7 2.740102 1_555
Zn7 Zn8 2.599094 1_555
Cu0 Zn3 2.555673 1_545
Cu0 Zn7 2.555673 1_555
Cu0 Zn6 2.555678 1_555
Cu0 Zn2 2.555678 1_545
Cu0 Zn4 2.568166 1_555
Cu0 Zn0 2.568166 1_545
Cu0 Hf2 3.040691 1_556
Cu0 Hf8 3.040691 1_555
Cu0 Hf10 3.054286 1_555
Cu0 Hf4 3.054286 1_555
Cu0 Hf3 3.054286 1_655
Cu0 Hf9 3.054286 1_555
Cu1 Zn3 2.555673 1_455
Cu1 Zn7 2.555673 1_555
Cu1 Zn5 2.555678 1_555
Cu1 Zn1 2.555678 1_455
Cu1 Zn4 2.568166 1_555
Cu1 Zn0 2.568166 1_455
Cu1 Hf1 3.040691 1_556
Cu1 Hf7 3.040691 1_555
Cu1 Hf3 3.054286 1_565
Cu1 Hf9 3.054286 1_555
Cu1 Hf11 3.054286 1_555
Cu1 Hf5 3.054286 1_555
Cu2 Zn2 2.555671 1_555
Cu2 Zn6 2.555671 1_555
Cu2 Zn1 2.555671 1_555
Cu2 Zn5 2.555671 1_555
Cu2 Zn0 2.568159 1_555
Cu2 Zn4 2.568159 1_555
Cu2 Hf0 3.040689 1_556
Cu2 Hf6 3.040689 1_555
Cu2 Hf4 3.054286 1_565
Cu2 Hf10 3.054286 1_555
Cu2 Hf5 3.054286 1_655
Cu2 Hf11 3.054286 1_555
C0 Hf5 2.256127 1_555
C0 Hf11 2.256127 1_545
C0 Hf9 2.256128 1_555
C0 Hf3 2.256128 1_555
C0 Hf4 2.256128 1_555
C0 Hf10 2.256128 1_455
C1 Hf5 2.255519 1_555
C1 Hf11 2.255519 1_554
C1 Hf7 2.258031 1_555
C1 Hf1 2.258031 1_555
C1 Hf0 2.258037 1_555
C1 Hf6 2.258037 1_455
C2 Hf4 2.255520 1_555
C2 Hf10 2.255520 1_554
C2 Hf8 2.258031 1_555
C2 Hf2 2.258031 1_555
C2 Hf0 2.258037 1_555
C2 Hf6 2.258037 1_545
C3 Hf3 2.255519 1_555
C3 Hf9 2.255519 1_554
C3 Hf1 2.258039 1_555
C3 Hf7 2.258039 1_545
C3 Hf2 2.258039 1_555
C3 Hf8 2.258039 1_455
