# generated using pymatgen
data_Ba4Hf(RuO4)3
_symmetry_space_group_name_H-M   'P 1'
_cell_length_a   10.16147709
_cell_length_b   10.16147729
_cell_length_c   10.16147794
_cell_angle_alpha   33.27428909
_cell_angle_beta   33.27428887
_cell_angle_gamma   33.27428405
_symmetry_Int_Tables_number   1
_chemical_formula_structural   Ba4Hf(RuO4)3
_chemical_formula_sum   'Ba4 Hf1 Ru3 O12'
_cell_volume   281.18959089
_cell_formula_units_Z   1
loop_
 _symmetry_equiv_pos_site_id
 _symmetry_equiv_pos_as_xyz
  1  'x, y, z'
loop_
 _atom_site_type_symbol
 _atom_site_label
 _atom_site_symmetry_multiplicity
 _atom_site_fract_x
 _atom_site_fract_y
 _atom_site_fract_z
 _atom_site_occupancy
  Ba  Ba0  1  0.71304120  0.71304120  0.71304120  1
  Ba  Ba1  1  0.28695880  0.28695880  0.28695880  1
  Ba  Ba2  1  0.87153818  0.87153818  0.87153818  1
  Ba  Ba3  1  0.12846182  0.12846182  0.12846182  1
  Hf  Hf0  1  0.00000000  0.00000000  0.00000000  1
  Ru  Ru0  1  0.41246102  0.41246102  0.41246102  1
  Ru  Ru1  1  0.50000000  0.50000000  0.50000000  1
  Ru  Ru2  1  0.58753898  0.58753898  0.58753898  1
  O  O0  1  0.20927960  0.20927960  0.70365023  1
  O  O1  1  0.70365023  0.20927960  0.20927960  1
  O  O2  1  0.20927960  0.70365023  0.20927960  1
  O  O3  1  0.79072040  0.29634977  0.79072040  1
  O  O4  1  0.79072040  0.79072040  0.29634977  1
  O  O5  1  0.29634977  0.79072040  0.79072040  1
  O  O6  1  0.38868006  0.38868006  0.85506092  1
  O  O7  1  0.85506092  0.38868006  0.38868006  1
  O  O8  1  0.14493908  0.61131994  0.61131994  1
  O  O9  1  0.61131994  0.61131994  0.14493908  1
  O  O10  1  0.61131994  0.14493908  0.61131994  1
  O  O11  1  0.38868006  0.85506092  0.38868006  1
loop_
_geom_bond_atom_site_label_1
_geom_bond_atom_site_label_2
_geom_bond_distance
_geom_bond_site_symmetry_2
Ba0 O8 2.830839 1_655
Ba0 O10 2.830839 1_565
Ba0 O9 2.830840 1_556
Ba0 O0 2.913908 1_565
Ba0 O0 2.913908 1_655
Ba0 O2 2.913908 1_556
Ba0 O2 2.913908 1_655
Ba0 O1 2.913908 1_556
Ba0 O1 2.913908 1_565
Ba0 O5 3.006545 1_555
Ba0 O3 3.006545 1_555
Ba0 O4 3.006545 1_555
Ba1 O7 2.830839 1_455
Ba1 O11 2.830839 1_545
Ba1 O6 2.830840 1_554
Ba1 O4 2.913908 1_545
Ba1 O4 2.913908 1_455
Ba1 O3 2.913908 1_554
Ba1 O3 2.913908 1_455
Ba1 O5 2.913908 1_554
Ba1 O5 2.913908 1_545
Ba1 O1 3.006545 1_555
Ba1 O2 3.006545 1_555
Ba1 O0 3.006545 1_555
Ba2 O6 2.916523 1_655
Ba2 O6 2.916523 1_565
Ba2 O11 2.916523 1_655
Ba2 O7 2.916523 1_565
Ba2 O11 2.916523 1_556
Ba2 O7 2.916523 1_556
Ba2 O9 2.970889 1_556
Ba2 O10 2.970889 1_565
Ba2 O8 2.970889 1_655
Ba2 O5 3.042249 1_655
Ba2 O3 3.042249 1_565
Ba2 O4 3.042249 1_556
Ba3 O9 2.916523 1_455
Ba3 O9 2.916523 1_545
Ba3 O10 2.916523 1_455
Ba3 O8 2.916523 1_545
Ba3 O10 2.916523 1_554
Ba3 O8 2.916523 1_554
Ba3 O6 2.970889 1_554
Ba3 O11 2.970889 1_545
Ba3 O7 2.970889 1_455
Ba3 O1 3.042249 1_455
Ba3 O2 3.042249 1_545
Ba3 O0 3.042249 1_554
Hf0 O2 2.063703 1_545
Hf0 O3 2.063703 1_454
Hf0 O1 2.063703 1_455
Hf0 O5 2.063703 1_544
Hf0 O0 2.063703 1_554
Hf0 O4 2.063703 1_445
O0 Ru0 1.994543 1_555
O1 Ru0 1.994543 1_555
O2 Ru0 1.994543 1_555
O3 Ru2 1.994543 1_555
O4 Ru2 1.994543 1_555
O5 Ru2 1.994543 1_555
O6 Ru2 2.003428 1_555
O6 Ru1 2.016796 1_555
O7 Ru2 2.003428 1_555
O7 Ru1 2.016796 1_555
O8 Ru0 2.003428 1_555
O8 Ru1 2.016796 1_555
O9 Ru0 2.003428 1_555
O9 Ru1 2.016796 1_555
O10 Ru0 2.003428 1_555
O10 Ru1 2.016796 1_555
O11 Ru2 2.003428 1_555
O11 Ru1 2.016796 1_555
