# generated using pymatgen
data_Sr2Mg(SeO3)3
_symmetry_space_group_name_H-M   'P 1'
_cell_length_a   7.37436004
_cell_length_b   7.60692888
_cell_length_c   8.76499684
_cell_angle_alpha   103.46225499
_cell_angle_beta   105.51748624
_cell_angle_gamma   95.27079582
_symmetry_Int_Tables_number   1
_chemical_formula_structural   Sr2Mg(SeO3)3
_chemical_formula_sum   'Sr4 Mg2 Se6 O18'
_cell_volume   454.46714243
_cell_formula_units_Z   2
loop_
 _symmetry_equiv_pos_site_id
 _symmetry_equiv_pos_as_xyz
  1  'x, y, z'
loop_
 _atom_site_type_symbol
 _atom_site_label
 _atom_site_symmetry_multiplicity
 _atom_site_fract_x
 _atom_site_fract_y
 _atom_site_fract_z
 _atom_site_occupancy
  Sr  Sr0  1  0.62840767  0.48262651  0.80686872  1
  Sr  Sr1  1  0.37159233  0.51737349  0.19313128  1
  Sr  Sr2  1  0.75180045  0.91030351  0.61021425  1
  Sr  Sr3  1  0.24820055  0.08969649  0.38978575  1
  Mg  Mg0  1  0.09059491  0.33383444  0.75189971  1
  Mg  Mg1  1  0.90940409  0.66616556  0.24810029  1
  Se  Se0  1  0.23744443  0.63719294  0.58869944  1
  Se  Se1  1  0.90193302  0.21003586  0.04293063  1
  Se  Se2  1  0.36242180  0.08427259  0.79553753  1
  Se  Se3  1  0.63757720  0.91572741  0.20446247  1
  Se  Se4  1  0.09806598  0.78996414  0.95706837  1
  Se  Se5  1  0.76255657  0.36280706  0.41130056  1
  O  O0  1  0.17294334  0.63920259  0.38740364  1
  O  O1  1  0.82705666  0.36079741  0.61259736  1
  O  O2  1  0.22545508  0.40927183  0.58775769  1
  O  O3  1  0.77454492  0.59072817  0.41224231  1
  O  O4  1  0.47760314  0.69945859  0.64448526  1
  O  O5  1  0.52239686  0.30054141  0.35551474  1
  O  O6  1  0.06643953  0.81386779  0.14510652  1
  O  O7  1  0.93356047  0.18613221  0.85489348  1
  O  O8  1  0.16261924  0.57739907  0.92492247  1
  O  O9  1  0.83738176  0.42260093  0.07507753  1
  O  O10  1  0.87290727  0.75363966  0.83074022  1
  O  O11  1  0.12709373  0.24636034  0.16925978  1
  O  O12  1  0.49082986  0.87687808  0.31851570  1
  O  O13  1  0.50916914  0.12312192  0.68148330  1
  O  O14  1  0.85525549  0.94168332  0.34904223  1
  O  O15  1  0.36753108  0.30419406  0.90412307  1
  O  O16  1  0.63246992  0.69580594  0.09587693  1
  O  O17  1  0.14474351  0.05831668  0.65095877  1
loop_
_geom_bond_atom_site_label_1
_geom_bond_atom_site_label_2
_geom_bond_distance
_geom_bond_site_symmetry_2
Mg0 O8 2.023544 1_555
Mg0 O7 2.052054 1_455
Mg0 O1 2.056687 1_455
Mg0 O2 2.105550 1_555
Mg0 O15 2.183675 1_555
Mg0 O17 2.194130 1_555
Mg1 O9 2.023544 1_555
Mg1 O6 2.052058 1_655
Mg1 O0 2.056696 1_655
Mg1 O3 2.105545 1_555
Mg1 O16 2.183663 1_555
Mg1 O14 2.194132 1_555
O0 Se0 1.704198 1_555
O0 Sr1 2.598786 1_555
O1 Se5 1.704207 1_555
O1 Sr0 2.598779 1_555
O2 Se0 1.725879 1_555
O2 Sr3 2.686149 1_555
O2 Sr0 2.995414 1_555
O3 Se5 1.725880 1_555
O3 Sr2 2.686147 1_555
O3 Sr1 2.995414 1_555
O4 Se0 1.695474 1_555
O4 Sr0 2.562473 1_555
O4 Sr2 2.589353 1_555
O5 Se5 1.695481 1_555
O5 Sr1 2.562473 1_555
O5 Sr3 2.589347 1_555
O6 Se4 1.696407 1_554
O6 Sr3 2.578464 1_565
O7 Se1 1.696401 1_556
O7 Sr2 2.578462 1_545
O8 Se4 1.709282 1_555
O8 Sr1 2.607770 1_556
O9 Se1 1.709276 1_555
O9 Sr0 2.607772 1_554
O10 Se4 1.687854 1_655
O10 Sr2 2.509658 1_555
O10 Sr0 2.541490 1_555
O11 Se1 1.687869 1_455
O11 Sr3 2.509658 1_555
O11 Sr1 2.541485 1_555
O12 Se3 1.707458 1_555
O12 Sr3 2.621405 1_565
O12 Sr1 2.664857 1_555
O12 Sr2 2.698127 1_555
O13 Se2 1.707465 1_555
O13 Sr2 2.621415 1_545
O13 Sr0 2.664859 1_555
O13 Sr3 2.698113 1_555
O14 Se3 1.720029 1_555
O14 Sr2 2.652311 1_555
O14 Sr3 2.907176 1_665
O15 Se2 1.712840 1_555
O15 Sr1 2.661826 1_556
O15 Sr0 2.684474 1_555
O16 Se3 1.712843 1_555
O16 Sr0 2.661823 1_554
O16 Sr1 2.684480 1_555
O17 Se2 1.720025 1_555
O17 Sr3 2.652327 1_555
O17 Sr2 2.907160 1_445
