# generated using pymatgen
data_Ta2Te4OF10
_symmetry_space_group_name_H-M   'P 1'
_cell_length_a   5.63192010
_cell_length_b   8.01768179
_cell_length_c   8.14263869
_cell_angle_alpha   102.57303022
_cell_angle_beta   80.01988266
_cell_angle_gamma   103.57913391
_symmetry_Int_Tables_number   1
_chemical_formula_structural   Ta2Te4OF10
_chemical_formula_sum   'Ta2 Te4 O1 F10'
_cell_volume   345.92616862
_cell_formula_units_Z   1
loop_
 _symmetry_equiv_pos_site_id
 _symmetry_equiv_pos_as_xyz
  1  'x, y, z'
loop_
 _atom_site_type_symbol
 _atom_site_label
 _atom_site_symmetry_multiplicity
 _atom_site_fract_x
 _atom_site_fract_y
 _atom_site_fract_z
 _atom_site_occupancy
  Ta  Ta0  1  0.55278124  0.35701451  0.64367167  1
  Ta  Ta1  1  0.44721876  0.64298549  0.35632833  1
  Te  Te0  1  0.10992680  0.78626234  0.95886835  1
  Te  Te1  1  0.89007320  0.21373766  0.04113165  1
  Te  Te2  1  0.84753383  0.92705613  0.79841512  1
  Te  Te3  1  0.15246617  0.07294387  0.20158488  1
  O  O0  1  0.50000000  0.50000000  0.50000000  1
  F  F0  1  0.59719688  0.20744919  0.79461714  1
  F  F1  1  0.35911986  0.46891465  0.83509650  1
  F  F2  1  0.84239096  0.52122338  0.71750032  1
  F  F3  1  0.27053066  0.18294333  0.58395982  1
  F  F4  1  0.24058606  0.76196103  0.53127633  1
  F  F5  1  0.75941394  0.23803897  0.46872367  1
  F  F6  1  0.72946934  0.81705667  0.41604018  1
  F  F7  1  0.15760904  0.47877662  0.28249968  1
  F  F8  1  0.64088014  0.53108535  0.16490350  1
  F  F9  1  0.40280312  0.79255081  0.20538286  1
loop_
_geom_bond_atom_site_label_1
_geom_bond_atom_site_label_2
_geom_bond_distance
_geom_bond_site_symmetry_2
O0 Ta0 1.906742 1_555
O0 Ta1 1.906742 1_555
F0 Ta0 1.974932 1_555
F1 Ta0 1.919762 1_555
F2 Ta0 1.934431 1_555
F3 Ta0 1.908348 1_555
F4 Ta1 1.910129 1_555
F5 Ta0 1.910129 1_555
F6 Ta1 1.908348 1_555
F7 Ta1 1.934431 1_555
F8 Ta1 1.919762 1_555
F9 Ta1 1.974932 1_555
