# generated using pymatgen
data_Ce2Nd2O7
_symmetry_space_group_name_H-M   'P 1'
_cell_length_a   9.57380700
_cell_length_b   9.58795332
_cell_length_c   9.66860581
_cell_angle_alpha   109.24753542
_cell_angle_beta   109.80763106
_cell_angle_gamma   108.97674815
_symmetry_Int_Tables_number   1
_chemical_formula_structural   Ce2Nd2O7
_chemical_formula_sum   'Ce8 Nd8 O28'
_cell_volume   686.37904235
_cell_formula_units_Z   4
loop_
 _symmetry_equiv_pos_site_id
 _symmetry_equiv_pos_as_xyz
  1  'x, y, z'
loop_
 _atom_site_type_symbol
 _atom_site_label
 _atom_site_symmetry_multiplicity
 _atom_site_fract_x
 _atom_site_fract_y
 _atom_site_fract_z
 _atom_site_occupancy
  Ce  Ce0  1  0.24858500  0.25081200  0.99425100  1
  Ce  Ce1  1  0.52641600  0.27268200  0.77020600  1
  Ce  Ce2  1  0.49868700  0.49474100  0.49596000  1
  Ce  Ce3  1  0.49371600  0.74487400  0.24882700  1
  Ce  Ce4  1  0.75892800  0.75536700  0.00393600  1
  Ce  Ce5  1  0.49571100  0.99696600  0.99505500  1
  Ce  Ce6  1  0.74844800  0.00313000  0.74988600  1
  Ce  Ce7  1  0.99760500  0.24655500  0.22801900  1
  Nd  Nd0  1  0.99434900  0.76584600  0.76321800  1
  Nd  Nd1  1  0.24080600  0.99759200  0.22547300  1
  Nd  Nd2  1  0.97293700  0.00782400  0.49549000  1
  Nd  Nd3  1  0.00602300  0.51097900  0.02943900  1
  Nd  Nd4  1  0.29505200  0.51908600  0.77267000  1
  Nd  Nd5  1  0.26957500  0.72512400  0.50449900  1
  Nd  Nd6  1  0.69872500  0.22950200  0.47869800  1
  Nd  Nd7  1  0.73388200  0.47907000  0.24164500  1
  O  O0  1  0.23414800  0.73790100  0.74603700  1
  O  O1  1  0.25442400  0.24063800  0.72569400  1
  O  O2  1  0.00035200  0.01755200  0.26141100  1
  O  O3  1  0.24626400  0.47099700  0.49554600  1
  O  O4  1  0.99576600  0.24064800  0.99255800  1
  O  O5  1  0.26491400  0.76978800  0.27613200  1
  O  O6  1  0.24901400  0.25692700  0.23545400  1
  O  O7  1  0.74131400  0.00677200  0.98999200  1
  O  O8  1  0.51001700  0.73839100  0.49820700  1
  O  O9  1  0.50267600  0.24102600  0.99829800  1
  O  O10  1  0.52734300  0.51427100  0.75815000  1
  O  O11  1  0.24333400  0.50529400  0.99197000  1
  O  O12  1  0.48341500  0.49348000  0.23665400  1
  O  O13  1  0.52473300  0.75751000  0.01477900  1
  O  O14  1  0.46766600  0.23267800  0.49828700  1
  O  O15  1  0.25386000  0.01334700  0.99463000  1
  O  O16  1  0.74680400  0.76828000  0.76291500  1
  O  O17  1  0.49287700  0.00609900  0.73105000  1
  O  O18  1  0.99253800  0.74075300  0.98906200  1
  O  O19  1  0.76249700  0.27497100  0.75663700  1
  O  O20  1  0.48593200  0.98625700  0.22478100  1
  O  O21  1  0.75330400  0.50630500  0.51219800  1
  O  O22  1  0.99376500  0.99448400  0.73671200  1
  O  O23  1  0.76926500  0.74794000  0.28075300  1
  O  O24  1  0.74383600  0.50685400  0.00610000  1
  O  O25  1  0.77421000  0.23663700  0.26835800  1
  O  O26  1  0.74219800  0.00947400  0.49690900  1
  O  O27  1  0.00199100  0.50394100  0.26618600  1
loop_
_geom_bond_atom_site_label_1
_geom_bond_atom_site_label_2
_geom_bond_distance
_geom_bond_site_symmetry_2
Ce0 O15 2.294897 1_555
Ce0 O6 2.311998 1_556
Ce0 O12 2.322204 1_556
Ce0 O4 2.384740 1_455
Ce0 O9 2.452411 1_555
Ce0 O11 2.463925 1_555
Ce0 O22 2.478091 1_445
Ce0 O1 2.586455 1_555
Ce1 O24 2.223185 1_556
Ce1 O19 2.301471 1_555
Ce1 O17 2.350609 1_555
Ce1 O10 2.354668 1_555
Ce1 O14 2.359701 1_555
Ce1 O1 2.386086 1_555
Ce1 O9 2.396540 1_555
Ce2 O8 2.295596 1_555
Ce2 O3 2.350972 1_555
Ce2 O21 2.352121 1_555
Ce2 O10 2.391422 1_555
Ce2 O6 2.417706 1_555
Ce2 O14 2.441021 1_555
Ce2 O12 2.457162 1_555
Ce2 O16 2.552059 1_555
Ce3 O12 2.341769 1_555
Ce3 O5 2.369754 1_555
Ce3 O8 2.385790 1_555
Ce3 O11 2.411100 1_554
Ce3 O13 2.415870 1_555
Ce3 O20 2.423033 1_555
Ce3 O26 2.458560 1_565
Ce3 O23 2.539128 1_555
Ce4 O13 2.286141 1_555
Ce4 O10 2.319648 1_554
Ce4 O18 2.334721 1_554
Ce4 O16 2.339983 1_554
Ce4 O24 2.347282 1_555
Ce4 O2 2.460597 1_665
Ce4 O7 2.513989 1_564
Ce4 O23 2.669999 1_555
Ce5 O20 2.288617 1_556
Ce5 O9 2.308663 1_565
Ce5 O7 2.340379 1_565
Ce5 O15 2.369898 1_565
Ce5 O13 2.460148 1_556
Ce5 O0 2.482549 1_555
Ce5 O25 2.570813 1_566
Ce5 O17 2.574091 1_565
Ce6 O16 2.291662 1_545
Ce6 O7 2.334687 1_555
Ce6 O4 2.345807 1_555
Ce6 O17 2.401555 1_555
Ce6 O22 2.421055 1_545
Ce6 O8 2.443331 1_545
Ce6 O26 2.447681 1_555
Ce6 O19 2.543532 1_555
Ce7 O4 2.252446 1_554
Ce7 O25 2.278789 1_555
Ce7 O2 2.329176 1_655
Ce7 O6 2.351760 1_655
Ce7 O27 2.355780 1_655
Ce7 O7 2.370300 1_554
Ce7 O3 2.411195 1_655
Nd0 O18 2.279383 1_555
Nd0 O22 2.291008 1_555
Nd0 O16 2.376661 1_555
Nd0 O15 2.389084 1_665
Nd0 O21 2.428135 1_555
Nd0 O0 2.449328 1_655
Nd1 O15 2.327874 1_564
Nd1 O20 2.386485 1_555
Nd1 O18 2.395527 1_454
Nd1 O14 2.401872 1_565
Nd1 O6 2.430579 1_565
Nd1 O5 2.453644 1_555
Nd1 O2 2.498327 1_565
Nd2 O26 2.218889 1_555
Nd2 O23 2.237666 1_545
Nd2 O22 2.322440 1_545
Nd2 O2 2.392818 1_655
Nd2 O1 2.438467 1_655
Nd3 O27 2.325006 1_555
Nd3 O18 2.395915 1_454
Nd3 O24 2.428764 1_455
Nd3 O11 2.433393 1_554
Nd3 O19 2.445260 1_454
Nd3 O4 2.460941 1_454
Nd3 O5 2.465992 1_555
Nd4 O10 2.289477 1_555
Nd4 O13 2.292352 1_556
Nd4 O11 2.369012 1_555
Nd4 O3 2.409815 1_555
Nd4 O0 2.420303 1_555
Nd4 O1 2.427052 1_555
Nd5 O8 2.286571 1_555
Nd5 O3 2.342714 1_555
Nd5 O27 2.369363 1_555
Nd5 O5 2.372688 1_555
Nd5 O17 2.411647 1_565
Nd5 O0 2.441117 1_555
Nd6 O14 2.292205 1_555
Nd6 O20 2.315619 1_545
Nd6 O26 2.328302 1_555
Nd6 O25 2.391336 1_555
Nd6 O19 2.393086 1_555
Nd6 O21 2.416228 1_555
Nd7 O9 2.299754 1_554
Nd7 O23 2.367688 1_555
Nd7 O24 2.407721 1_555
Nd7 O27 2.419420 1_655
Nd7 O12 2.431644 1_555
Nd7 O21 2.476684 1_555
Nd7 O25 2.555519 1_555
