# generated using pymatgen
data_ErSiPd2
_symmetry_space_group_name_H-M   'P 1'
_cell_length_a   5.47808234
_cell_length_b   6.93429631
_cell_length_c   7.24344835
_cell_angle_alpha   90.00000000
_cell_angle_beta   90.00000000
_cell_angle_gamma   90.00000000
_symmetry_Int_Tables_number   1
_chemical_formula_structural   ErSiPd2
_chemical_formula_sum   'Er4 Si4 Pd8'
_cell_volume   275.15430942
_cell_formula_units_Z   4
loop_
 _symmetry_equiv_pos_site_id
 _symmetry_equiv_pos_as_xyz
  1  'x, y, z'
loop_
 _atom_site_type_symbol
 _atom_site_label
 _atom_site_symmetry_multiplicity
 _atom_site_fract_x
 _atom_site_fract_y
 _atom_site_fract_z
 _atom_site_occupancy
  Er  Er0  1  0.14266386  0.75000000  0.47200592  1
  Er  Er1  1  0.64266386  0.25000000  0.02799408  1
  Er  Er2  1  0.85733614  0.25000000  0.52799408  1
  Er  Er3  1  0.35733614  0.75000000  0.97200592  1
  Si  Si0  1  0.85803579  0.75000000  0.12240678  1
  Si  Si1  1  0.35803579  0.25000000  0.37759322  1
  Si  Si2  1  0.14196421  0.25000000  0.87759322  1
  Si  Si3  1  0.64196421  0.75000000  0.62240678  1
  Pd  Pd0  1  0.90720982  0.94831472  0.82161475  1
  Pd  Pd1  1  0.40720982  0.05168528  0.67838525  1
  Pd  Pd2  1  0.09279018  0.44831472  0.17838525  1
  Pd  Pd3  1  0.59279018  0.55168528  0.32161575  1
  Pd  Pd4  1  0.09279018  0.05168528  0.17838525  1
  Pd  Pd5  1  0.59279018  0.94831472  0.32161575  1
  Pd  Pd6  1  0.90720982  0.55168528  0.82161475  1
  Pd  Pd7  1  0.40720982  0.44831472  0.67838525  1
loop_
_geom_bond_atom_site_label_1
_geom_bond_atom_site_label_2
_geom_bond_distance
_geom_bond_site_symmetry_2
Er0 Si3 2.944181 1_555
Er0 Si3 2.951304 1_455
Er0 Pd7 2.951487 1_555
Er0 Pd1 2.951487 1_565
Er0 Si0 2.973838 1_455
Er0 Pd2 2.995729 1_555
Er0 Pd4 2.995729 1_565
Er0 Pd3 3.026232 1_555
Er0 Pd5 3.026232 1_555
Er0 Pd6 3.157166 1_455
Er0 Pd0 3.157166 1_455
Er0 Pd3 3.485892 1_455
Er0 Pd5 3.485892 1_455
Er1 Si2 2.944181 1_654
Er1 Si2 2.951304 1_554
Er1 Pd0 2.951487 1_544
Er1 Pd6 2.951487 1_554
Er1 Si1 2.973838 1_555
Er1 Pd5 2.995734 1_545
Er1 Pd3 2.995734 1_555
Er1 Pd4 3.026235 1_655
Er1 Pd2 3.026235 1_655
Er1 Pd7 3.157166 1_554
Er1 Pd1 3.157166 1_554
Er1 Pd4 3.485894 1_555
Er1 Pd2 3.485894 1_555
Er2 Si1 2.944181 1_555
Er2 Si1 2.951304 1_655
Er2 Pd5 2.951483 1_545
Er2 Pd3 2.951483 1_555
Er2 Si2 2.973838 1_655
Er2 Pd0 2.995729 1_545
Er2 Pd6 2.995729 1_555
Er2 Pd7 3.026235 1_555
Er2 Pd1 3.026235 1_555
Er2 Pd4 3.157166 1_655
Er2 Pd2 3.157166 1_655
Er2 Pd1 3.485894 1_655
Er2 Pd7 3.485894 1_655
Er3 Si0 2.944181 1_456
Er3 Si0 2.951304 1_556
Er3 Pd2 2.951487 1_556
Er3 Pd4 2.951487 1_566
Er3 Si3 2.973838 1_555
Er3 Pd7 2.995729 1_555
Er3 Pd1 2.995729 1_565
Er3 Pd6 3.026235 1_455
Er3 Pd0 3.026235 1_455
Er3 Pd3 3.157171 1_556
Er3 Pd5 3.157171 1_556
Er3 Pd6 3.485894 1_555
Er3 Pd0 3.485894 1_555
Pd0 Si3 2.466684 1_555
Pd0 Si2 2.488891 1_665
Pd0 Si0 2.590504 1_556
Pd0 Pd6 2.750346 1_555
Pd0 Pd4 2.868043 1_666
Pd0 Pd1 3.015378 1_565
Pd0 Pd1 3.015378 1_665
Pd1 Si2 2.466684 1_555
Pd1 Si3 2.488891 1_545
Pd1 Si1 2.590504 1_555
Pd1 Pd7 2.750346 1_555
Pd1 Pd5 2.868037 1_545
Pd2 Si1 2.466684 1_555
Pd2 Si0 2.488891 1_455
Pd2 Si2 2.590504 1_554
Pd2 Pd4 2.750346 1_555
Pd2 Pd6 2.868043 1_454
Pd2 Pd3 3.015381 1_455
Pd2 Pd3 3.015381 1_555
Pd3 Si0 2.466688 1_555
Pd3 Si1 2.488890 1_555
Pd3 Si3 2.590498 1_555
Pd3 Pd5 2.750346 1_555
Pd3 Pd7 2.868037 1_555
Pd4 Si1 2.466684 1_555
Pd4 Si0 2.488891 1_445
Pd4 Si2 2.590504 1_554
Pd4 Pd5 3.015381 1_545
Pd4 Pd5 3.015381 1_445
Pd5 Si0 2.466688 1_555
Pd5 Si1 2.488890 1_565
Pd5 Si3 2.590498 1_555
Pd6 Si3 2.466684 1_555
Pd6 Si2 2.488891 1_655
Pd6 Si0 2.590504 1_556
Pd6 Pd7 3.015378 1_555
Pd6 Pd7 3.015378 1_655
Pd7 Si2 2.466684 1_555
Pd7 Si3 2.488891 1_555
Pd7 Si1 2.590504 1_555
