# generated using pymatgen
data_Ti3AlPd2N
_symmetry_space_group_name_H-M   'P 1'
_cell_length_a   8.15089200
_cell_length_b   8.15089209
_cell_length_c   8.15089242
_cell_angle_alpha   59.99999867
_cell_angle_beta   59.99999829
_cell_angle_gamma   59.99999464
_symmetry_Int_Tables_number   1
_chemical_formula_structural   Ti3AlPd2N
_chemical_formula_sum   'Ti12 Al4 Pd8 N4'
_cell_volume   382.91327065
_cell_formula_units_Z   4
loop_
 _symmetry_equiv_pos_site_id
 _symmetry_equiv_pos_as_xyz
  1  'x, y, z'
loop_
 _atom_site_type_symbol
 _atom_site_label
 _atom_site_symmetry_multiplicity
 _atom_site_fract_x
 _atom_site_fract_y
 _atom_site_fract_z
 _atom_site_occupancy
  Ti  Ti0  1  0.81667572  0.81667572  0.18332428  1
  Ti  Ti1  1  0.18332428  0.18332428  0.81667572  1
  Ti  Ti2  1  0.81667572  0.18332428  0.81667572  1
  Ti  Ti3  1  0.18332428  0.81667572  0.18332428  1
  Ti  Ti4  1  0.18332428  0.81667572  0.81667572  1
  Ti  Ti5  1  0.81667572  0.18332428  0.18332428  1
  Ti  Ti6  1  0.43332428  0.43332428  0.06667572  1
  Ti  Ti7  1  0.06667572  0.06667572  0.43332428  1
  Ti  Ti8  1  0.43332428  0.06667572  0.43332428  1
  Ti  Ti9  1  0.06667572  0.43332428  0.06667572  1
  Ti  Ti10  1  0.06667572  0.43332428  0.43332428  1
  Ti  Ti11  1  0.43332428  0.06667572  0.06667572  1
  Al  Al0  1  0.12500000  0.62500000  0.62500000  1
  Al  Al1  1  0.62500000  0.12500000  0.62500000  1
  Al  Al2  1  0.62500000  0.62500000  0.12500000  1
  Al  Al3  1  0.62500000  0.62500000  0.62500000  1
  Pd  Pd0  1  0.76695433  0.41101556  0.41101556  1
  Pd  Pd1  1  0.41101556  0.76695433  0.41101556  1
  Pd  Pd2  1  0.41101556  0.41101556  0.76695433  1
  Pd  Pd3  1  0.41101556  0.41101556  0.41101556  1
  Pd  Pd4  1  0.48304567  0.83898444  0.83898444  1
  Pd  Pd5  1  0.83898444  0.48304567  0.83898444  1
  Pd  Pd6  1  0.83898444  0.83898444  0.48304567  1
  Pd  Pd7  1  0.83898444  0.83898444  0.83898444  1
  N  N0  1  0.62500000  0.12500000  0.12500000  1
  N  N1  1  0.12500000  0.62500000  0.12500000  1
  N  N2  1  0.12500000  0.12500000  0.62500000  1
  N  N3  1  0.12500000  0.12500000  0.12500000  1
loop_
_geom_bond_atom_site_label_1
_geom_bond_atom_site_label_2
_geom_bond_distance
_geom_bond_site_symmetry_2
Al0 Pd7 2.535532 1_455
Al0 Pd3 2.535532 1_555
Al0 Pd2 2.535537 1_555
Al0 Pd6 2.535537 1_455
Al0 Pd5 2.535537 1_455
Al0 Pd1 2.535537 1_555
Al1 Pd7 2.535532 1_545
Al1 Pd3 2.535532 1_555
Al1 Pd2 2.535537 1_555
Al1 Pd6 2.535537 1_545
Al1 Pd0 2.535537 1_555
Al1 Pd4 2.535537 1_545
Al2 Pd7 2.535532 1_554
Al2 Pd3 2.535532 1_555
Al2 Pd1 2.535537 1_555
Al2 Pd5 2.535537 1_554
Al2 Pd0 2.535537 1_555
Al2 Pd4 2.535537 1_554
Al3 Pd5 2.535530 1_555
Al3 Pd1 2.535530 1_555
Al3 Pd4 2.535530 1_555
Al3 Pd0 2.535530 1_555
Al3 Pd6 2.535530 1_555
Al3 Pd2 2.535530 1_555
Pd0 Ti10 2.637399 1_655
Pd0 Ti7 2.637404 1_655
Pd0 Ti9 2.637404 1_655
Pd1 Ti8 2.637399 1_565
Pd1 Ti7 2.637404 1_565
Pd1 Ti11 2.637404 1_565
Pd2 Ti6 2.637399 1_556
Pd2 Ti9 2.637404 1_556
Pd2 Ti11 2.637404 1_556
Pd3 Ti10 2.637407 1_555
Pd3 Ti8 2.637407 1_555
Pd3 Ti6 2.637408 1_555
Pd4 Ti4 2.637399 1_555
Pd4 Ti1 2.637404 1_565
Pd4 Ti3 2.637404 1_556
Pd5 Ti2 2.637399 1_555
Pd5 Ti1 2.637404 1_655
Pd5 Ti5 2.637404 1_556
Pd6 Ti0 2.637399 1_555
Pd6 Ti3 2.637404 1_655
Pd6 Ti5 2.637404 1_565
Pd7 Ti4 2.637407 1_655
Pd7 Ti2 2.637407 1_565
Pd7 Ti0 2.637408 1_556
N0 Ti6 2.145767 1_555
N0 Ti0 2.145767 1_545
N0 Ti8 2.145767 1_555
N0 Ti2 2.145767 1_554
N0 Ti5 2.145767 1_555
N0 Ti11 2.145767 1_555
N1 Ti6 2.145767 1_555
N1 Ti0 2.145767 1_455
N1 Ti3 2.145767 1_555
N1 Ti9 2.145767 1_555
N1 Ti10 2.145767 1_555
N1 Ti4 2.145767 1_554
N2 Ti8 2.145767 1_555
N2 Ti2 2.145767 1_455
N2 Ti10 2.145767 1_555
N2 Ti4 2.145767 1_545
N2 Ti1 2.145767 1_555
N2 Ti7 2.145767 1_555
N3 Ti11 2.145767 1_555
N3 Ti5 2.145767 1_455
N3 Ti9 2.145767 1_555
N3 Ti3 2.145767 1_545
N3 Ti7 2.145767 1_555
N3 Ti1 2.145767 1_554
