# generated using pymatgen
data_Sr(AlI4)2
_symmetry_space_group_name_H-M   'P 1'
_cell_length_a   8.11985287
_cell_length_b   8.60541505
_cell_length_c   14.53120411
_cell_angle_alpha   85.34080360
_cell_angle_beta   90.00000000
_cell_angle_gamma   90.00000000
_symmetry_Int_Tables_number   1
_chemical_formula_structural   Sr(AlI4)2
_chemical_formula_sum   'Sr2 Al4 I16'
_cell_volume   1012.00830646
_cell_formula_units_Z   2
loop_
 _symmetry_equiv_pos_site_id
 _symmetry_equiv_pos_as_xyz
  1  'x, y, z'
loop_
 _atom_site_type_symbol
 _atom_site_label
 _atom_site_symmetry_multiplicity
 _atom_site_fract_x
 _atom_site_fract_y
 _atom_site_fract_z
 _atom_site_occupancy
  Sr  Sr0  1  0.14084923  0.50000000  0.25000000  1
  Sr  Sr1  1  0.85915077  0.50000000  0.75000000  1
  Al  Al0  1  0.26171594  0.67229896  0.57735102  1
  Al  Al1  1  0.73828406  0.67229896  0.07735102  1
  Al  Al2  1  0.73828406  0.32770104  0.42264898  1
  Al  Al3  1  0.26171594  0.32770104  0.92264898  1
  I  I0  1  0.53436445  0.73887599  0.65182914  1
  I  I1  1  0.30317906  0.74526216  0.40479087  1
  I  I2  1  0.81830759  0.38889726  0.11224177  1
  I  I3  1  0.18169241  0.61110274  0.88775823  1
  I  I4  1  0.46563555  0.26112401  0.34817086  1
  I  I5  1  0.30317906  0.25473784  0.09520913  1
  I  I6  1  0.69682094  0.25473784  0.59520913  1
  I  I7  1  0.46563555  0.73887599  0.15182914  1
  I  I8  1  0.18169241  0.38889726  0.61224177  1
  I  I9  1  0.53436445  0.26112401  0.84817086  1
  I  I10  1  0.81830759  0.61110274  0.38775823  1
  I  I11  1  0.97387441  0.83485448  0.13721989  1
  I  I12  1  0.69682094  0.74526216  0.90479087  1
  I  I13  1  0.02612559  0.16514552  0.86278011  1
  I  I14  1  0.97387441  0.16514552  0.36278011  1
  I  I15  1  0.02612559  0.83485448  0.63721989  1
loop_
_geom_bond_atom_site_label_1
_geom_bond_atom_site_label_2
_geom_bond_distance
_geom_bond_site_symmetry_2
Al0 I8 2.534972 1_555
Al0 I0 2.549795 1_555
Al0 I1 2.557224 1_555
Al0 I15 2.563350 1_555
Al1 I2 2.534972 1_555
Al1 I7 2.549795 1_555
Al1 I12 2.557224 1_554
Al1 I11 2.563350 1_555
Al2 I10 2.534972 1_555
Al2 I4 2.549795 1_555
Al2 I6 2.557224 1_555
Al2 I14 2.563350 1_555
Al3 I3 2.534972 1_555
Al3 I9 2.549795 1_555
Al3 I5 2.557224 1_556
Al3 I13 2.563350 1_555
I0 Sr1 3.569193 1_555
I1 Sr0 3.467349 1_555
I2 Sr0 3.477256 1_655
I3 Sr1 3.477256 1_455
I4 Sr0 3.569193 1_555
I5 Sr0 3.467349 1_555
I6 Sr1 3.467349 1_555
I7 Sr0 3.569193 1_555
I8 Sr1 3.477256 1_455
I9 Sr1 3.569193 1_555
I10 Sr0 3.477256 1_655
I11 Sr0 3.472780 1_655
I12 Sr1 3.467349 1_555
I13 Sr1 3.472780 1_455
I14 Sr0 3.472780 1_655
I15 Sr1 3.472780 1_455
