# generated using pymatgen
data_NiPtBr6
_symmetry_space_group_name_H-M   'P 1'
_cell_length_a   6.38498208
_cell_length_b   6.38498195
_cell_length_c   6.66849854
_cell_angle_alpha   81.01060153
_cell_angle_beta   81.01059423
_cell_angle_gamma   119.91480888
_symmetry_Int_Tables_number   1
_chemical_formula_structural   NiPtBr6
_chemical_formula_sum   'Ni1 Pt1 Br6'
_cell_volume   223.87009602
_cell_formula_units_Z   1
loop_
 _symmetry_equiv_pos_site_id
 _symmetry_equiv_pos_as_xyz
  1  'x, y, z'
loop_
 _atom_site_type_symbol
 _atom_site_label
 _atom_site_symmetry_multiplicity
 _atom_site_fract_x
 _atom_site_fract_y
 _atom_site_fract_z
 _atom_site_occupancy
  Ni  Ni0  1  0.16696315  0.83303685  1.00000000  1
  Pt  Pt0  1  0.83334514  0.16665486  0.00000000  1
  Br  Br0  1  0.43359813  0.07776742  0.22486786  1
  Br  Br1  1  0.92223258  0.56640187  0.77513214  1
  Br  Br2  1  0.21671747  0.22324026  0.77414017  1
  Br  Br3  1  0.77675974  0.78328253  0.22585983  1
  Br  Br4  1  0.07117483  0.42079004  0.22399676  1
  Br  Br5  1  0.57920996  0.92882517  0.77600324  1
loop_
_geom_bond_atom_site_label_1
_geom_bond_atom_site_label_2
_geom_bond_distance
_geom_bond_site_symmetry_2
Br0 Pt0 2.485649 1_555
Br0 Ni0 2.542697 1_544
Br1 Pt0 2.485649 1_556
Br1 Ni0 2.542697 1_655
Br2 Pt0 2.487280 1_456
Br2 Ni0 2.542646 1_545
Br3 Pt0 2.487280 1_565
Br3 Ni0 2.542646 1_654
Br4 Pt0 2.485706 1_455
Br4 Ni0 2.532545 1_554
Br5 Pt0 2.485706 1_566
Br5 Ni0 2.532545 1_555
