# generated using pymatgen
data_Ba8Nb3PN12
_symmetry_space_group_name_H-M   'P 1'
_cell_length_a   6.64702478
_cell_length_b   6.62812645
_cell_length_c   13.23960451
_cell_angle_alpha   90.11546589
_cell_angle_beta   89.04106082
_cell_angle_gamma   125.79204144
_symmetry_Int_Tables_number   1
_chemical_formula_structural   Ba8Nb3PN12
_chemical_formula_sum   'Ba8 Nb3 P1 N12'
_cell_volume   473.05414330
_cell_formula_units_Z   1
loop_
 _symmetry_equiv_pos_site_id
 _symmetry_equiv_pos_as_xyz
  1  'x, y, z'
loop_
 _atom_site_type_symbol
 _atom_site_label
 _atom_site_symmetry_multiplicity
 _atom_site_fract_x
 _atom_site_fract_y
 _atom_site_fract_z
 _atom_site_occupancy
  Ba  Ba0  1  0.56032150  0.93473513  0.85339926  1
  Ba  Ba1  1  0.96259105  0.56159913  0.35884166  1
  Ba  Ba2  1  0.43940819  0.03284355  0.14212812  1
  Ba  Ba3  1  0.04653172  0.45458235  0.64531337  1
  Ba  Ba4  1  0.65374646  0.86914189  0.43477529  1
  Ba  Ba5  1  0.12810568  0.34529002  0.07228078  1
  Ba  Ba6  1  0.37122269  0.14575265  0.57993512  1
  Ba  Ba7  1  0.85538207  0.62987952  0.91716063  1
  Nb  Nb0  1  0.26887402  0.26263205  0.33650337  1
  Nb  Nb1  1  0.24450033  0.25256312  0.82261189  1
  Nb  Nb2  1  0.73924263  0.72780555  0.16680369  1
  P  P0  1  0.74410862  0.76053051  0.66473284  1
  N  N0  1  0.68402314  0.85180157  0.04776417  1
  N  N1  1  0.14633521  0.32628727  0.45587216  1
  N  N2  1  0.33059130  0.14794567  0.93954408  1
  N  N3  1  0.83647318  0.67936273  0.56760675  1
  N  N4  1  0.99415155  0.00290965  0.25257385  1
  N  N5  1  0.99152049  0.95665542  0.73929200  1
  N  N6  1  0.42863221  0.56839770  0.25085169  1
  N  N7  1  0.09809532  0.41674891  0.86663345  1
  N  N8  1  0.47466077  0.15554229  0.37292041  1
  N  N9  1  0.84715943  0.52106089  0.13102670  1
  N  N10  1  0.60149349  0.89150797  0.64142561  1
  N  N11  1  0.55282992  0.50442445  0.74000413  1
loop_
_geom_bond_atom_site_label_1
_geom_bond_atom_site_label_2
_geom_bond_distance
_geom_bond_site_symmetry_2
Ba0 N2 2.844125 1_565
Ba0 N10 2.845330 1_555
Ba0 N0 2.864508 1_556
Ba0 N7 2.983931 1_555
Ba0 N7 3.110627 1_665
Ba0 N5 3.144413 1_555
Ba0 N11 3.195356 1_555
Ba1 N8 2.751156 1_555
Ba1 N1 2.804168 1_655
Ba1 N9 3.096983 1_555
Ba1 N3 3.103331 1_555
Ba1 N4 3.141407 1_565
Ba1 N6 3.366187 1_655
Ba1 N8 3.385695 1_665
Ba2 N9 2.751136 1_555
Ba2 N0 2.802264 1_545
Ba2 N2 3.002946 1_554
Ba2 N8 3.137520 1_555
Ba2 N4 3.179064 1_455
Ba2 N6 3.363070 1_545
Ba2 N9 3.379844 1_445
Ba3 N3 2.777630 1_455
Ba3 N1 2.837157 1_555
Ba3 N7 2.983870 1_555
Ba3 N10 3.081495 1_555
Ba3 N10 3.126155 1_445
Ba4 N10 2.766753 1_555
Ba4 N3 2.831566 1_555
Ba4 N8 2.893659 1_565
Ba4 N1 2.898689 1_665
Ba4 N6 2.958994 1_555
Ba4 N4 3.033850 1_565
Ba4 N1 3.190240 1_555
Ba5 N7 2.794826 1_554
Ba5 N9 2.818189 1_455
Ba5 N0 2.872581 1_445
Ba5 N6 2.907818 1_555
Ba5 N2 2.929444 1_554
Ba5 N4 3.037717 1_455
Ba5 N0 3.237951 1_555
Ba6 N8 2.806127 1_555
Ba6 N11 2.882474 1_555
Ba6 N5 2.919687 1_445
Ba6 N1 2.923475 1_555
Ba6 N10 2.984897 1_545
Ba6 N3 3.048150 1_555
Ba6 N3 3.063006 1_445
Ba7 N7 2.769798 1_655
Ba7 N0 2.886951 1_556
Ba7 N11 2.903640 1_555
Ba7 N9 2.915056 1_556
Ba7 N5 2.951665 1_555
Ba7 N2 3.032598 1_665
Ba7 N2 3.065189 1_555
N0 Nb2 1.916116 1_555
N1 Nb0 1.922317 1_555
N2 Nb1 1.924355 1_555
N3 P0 1.636175 1_555
N4 Nb0 1.978897 1_655
N4 Nb2 1.981798 1_545
N5 P0 1.708043 1_555
N5 Nb1 2.021616 1_665
N6 Nb0 1.993127 1_555
N6 Nb2 1.998384 1_555
N7 Nb1 1.920469 1_555
N8 Nb0 1.940744 1_555
N9 Nb2 1.937140 1_555
N10 P0 1.649546 1_555
N11 P0 1.712047 1_555
N11 Nb1 2.028236 1_555
