# generated using pymatgen
data_Ta2BeTcB
_symmetry_space_group_name_H-M   'P 1'
_cell_length_a   6.15451684
_cell_length_b   6.15812592
_cell_length_c   3.26674875
_cell_angle_alpha   90.00000000
_cell_angle_beta   90.00000000
_cell_angle_gamma   90.00000000
_symmetry_Int_Tables_number   1
_chemical_formula_structural   Ta2BeTcB
_chemical_formula_sum   'Ta4 Be2 Tc2 B2'
_cell_volume   123.81072420
_cell_formula_units_Z   2
loop_
 _symmetry_equiv_pos_site_id
 _symmetry_equiv_pos_as_xyz
  1  'x, y, z'
loop_
 _atom_site_type_symbol
 _atom_site_label
 _atom_site_symmetry_multiplicity
 _atom_site_fract_x
 _atom_site_fract_y
 _atom_site_fract_z
 _atom_site_occupancy
  Ta  Ta0  1  0.32102762  0.82939456  0.50000000  1
  Ta  Ta1  1  0.82102762  0.67060544  0.50000000  1
  Ta  Ta2  1  0.17768734  0.31744291  0.50000000  1
  Ta  Ta3  1  0.67768734  0.18255709  0.50000000  1
  Be  Be0  1  0.11539409  0.61465856  0.00000000  1
  Be  Be1  1  0.61539409  0.88534144  0.00000000  1
  Tc  Tc0  1  0.00078457  0.00464542  0.00000000  1
  Tc  Tc1  1  0.50078457  0.49535458  0.00000000  1
  B  B0  1  0.38510537  0.11578781  0.00000000  1
  B  B1  1  0.88510537  0.38421219  0.00000000  1
loop_
_geom_bond_atom_site_label_1
_geom_bond_atom_site_label_2
_geom_bond_distance
_geom_bond_site_symmetry_2
Ta0 Tc0 2.777990 1_566
Ta0 Tc0 2.777990 1_565
Ta0 Tc1 2.850149 1_556
Ta0 Tc1 2.850149 1_555
Ta1 Tc1 2.777990 1_556
Ta1 Tc1 2.777990 1_555
Ta1 Tc0 2.850149 1_665
Ta1 Tc0 2.850149 1_666
Ta2 Tc0 2.750221 1_555
Ta2 Tc0 2.750221 1_556
Ta2 Tc1 2.796859 1_556
Ta2 Tc1 2.796859 1_555
Ta3 Tc1 2.750221 1_556
Ta3 Tc1 2.750221 1_555
Ta3 Tc0 2.796859 1_656
Ta3 Tc0 2.796859 1_655
Be0 Ta0 2.453214 1_555
Be0 Ta0 2.453214 1_554
Be0 Ta1 2.463495 1_455
Be0 Ta1 2.463495 1_454
Be0 Ta2 2.482914 1_555
Be0 Ta2 2.482914 1_554
Be0 Tc1 2.483071 1_555
Be0 Tc0 2.503032 1_565
Be1 Ta1 2.453214 1_554
Be1 Ta1 2.453214 1_555
Be1 Ta0 2.463495 1_555
Be1 Ta0 2.463495 1_554
Be1 Ta3 2.482914 1_564
Be1 Ta3 2.482914 1_565
Be1 Tc0 2.483071 1_665
Be1 Tc1 2.503032 1_555
B0 Be1 2.005662 1_545
B0 Ta2 2.416531 1_554
B0 Ta2 2.416531 1_555
B0 Ta0 2.435956 1_544
B0 Ta0 2.435956 1_545
B0 Tc1 2.443441 1_555
B0 Tc0 2.462342 1_555
B0 Ta3 2.465664 1_555
B0 Ta3 2.465664 1_554
B1 Be0 2.005662 1_655
B1 Ta3 2.416531 1_555
B1 Ta3 2.416531 1_554
B1 Ta1 2.435956 1_554
B1 Ta1 2.435956 1_555
B1 Tc0 2.443441 1_655
B1 Tc1 2.462342 1_555
B1 Ta2 2.465664 1_655
B1 Ta2 2.465664 1_654
