# generated using pymatgen
data_Al10NiRuRh2
_symmetry_space_group_name_H-M   'P 1'
_cell_length_a   7.82809138
_cell_length_b   7.83647806
_cell_length_c   7.72957069
_cell_angle_alpha   90.00000000
_cell_angle_beta   90.00000000
_cell_angle_gamma   120.03544626
_symmetry_Int_Tables_number   1
_chemical_formula_structural   Al10NiRuRh2
_chemical_formula_sum   'Al20 Ni2 Ru2 Rh4'
_cell_volume   410.49472621
_cell_formula_units_Z   2
loop_
 _symmetry_equiv_pos_site_id
 _symmetry_equiv_pos_as_xyz
  1  'x, y, z'
loop_
 _atom_site_type_symbol
 _atom_site_label
 _atom_site_symmetry_multiplicity
 _atom_site_fract_x
 _atom_site_fract_y
 _atom_site_fract_z
 _atom_site_occupancy
  Al  Al0  1  0.00000000  0.00033827  0.00000000  1
  Al  Al1  1  0.00000000  0.00033827  0.50000000  1
  Al  Al2  1  0.47317528  0.94659836  0.25000000  1
  Al  Al3  1  0.52682472  0.47342407  0.75000000  1
  Al  Al4  1  0.94190928  0.46998547  0.75000000  1
  Al  Al5  1  0.05809072  0.52807619  0.25000000  1
  Al  Al6  1  0.46891345  0.52886869  0.25000000  1
  Al  Al7  1  0.53108655  0.05995524  0.75000000  1
  Al  Al8  1  0.19214070  0.38857745  0.93830080  1
  Al  Al9  1  0.80785930  0.19643776  0.43830080  1
  Al  Al10  1  0.38918707  0.19734524  0.43656699  1
  Al  Al11  1  0.61081293  0.80815817  0.93656699  1
  Al  Al12  1  0.19696861  0.80412670  0.93840763  1
  Al  Al13  1  0.80303139  0.60715909  0.06159237  1
  Al  Al14  1  0.80785930  0.19643776  0.06169920  1
  Al  Al15  1  0.80303139  0.60715909  0.43840763  1
  Al  Al16  1  0.38918707  0.19734524  0.06343301  1
  Al  Al17  1  0.61081293  0.80815817  0.56343301  1
  Al  Al18  1  0.19214070  0.38857745  0.56169920  1
  Al  Al19  1  0.19696861  0.80412670  0.56159237  1
  Ni  Ni0  1  0.33310830  0.66511367  0.75000000  1
  Ni  Ni1  1  0.66689170  0.33200438  0.25000000  1
  Ru  Ru0  1  0.12918661  0.25736175  0.25000000  1
  Ru  Ru1  1  0.87081339  0.12817414  0.75000000  1
  Rh  Rh0  1  0.26097227  0.12865035  0.75000000  1
  Rh  Rh1  1  0.73902773  0.86768008  0.25000000  1
  Rh  Rh2  1  0.12853629  0.86918127  0.25000000  1
  Rh  Rh3  1  0.87146371  0.74064398  0.75000000  1
loop_
_geom_bond_atom_site_label_1
_geom_bond_atom_site_label_2
_geom_bond_distance
_geom_bond_site_symmetry_2
Al0 Ru1 2.602802 1_454
Al0 Ru0 2.602807 1_555
Al0 Rh2 2.615003 1_545
Al0 Rh3 2.615008 1_444
Al0 Rh1 2.619603 1_445
Al0 Rh0 2.619603 1_554
Al0 Al8 2.676772 1_554
Al0 Al14 2.676778 1_455
Al0 Al11 2.682737 1_444
Al0 Al16 2.682737 1_555
Al0 Al13 2.709545 1_445
Al0 Al12 2.709552 1_544
Al1 Ru1 2.602802 1_455
Al1 Ru0 2.602807 1_555
Al1 Rh2 2.615003 1_545
Al1 Rh3 2.615008 1_445
Al1 Rh1 2.619603 1_445
Al1 Rh0 2.619603 1_555
Al1 Al18 2.676772 1_555
Al1 Al9 2.676778 1_455
Al1 Al17 2.682737 1_445
Al1 Al10 2.682737 1_555
Al1 Al15 2.709545 1_445
Al1 Al19 2.709552 1_545
Al2 Rh1 2.449887 1_555
Al2 Rh2 2.451132 1_555
Al2 Ni1 2.614662 1_565
Al2 Al9 2.771418 1_565
Al3 Rh0 2.449903 1_555
Al3 Rh3 2.451127 1_555
Al3 Ni0 2.614662 1_555
Al3 Al8 2.771414 1_555
Al4 Rh3 2.444111 1_555
Al4 Ru1 2.447911 1_555
Al4 Ni0 2.651120 1_655
Al4 Al8 2.759245 1_655
Al4 Al9 3.041259 1_555
Al5 Rh2 2.444118 1_555
Al5 Ru0 2.447903 1_555
Al5 Ni1 2.651120 1_455
Al5 Al9 2.759240 1_455
Al5 Al8 3.041263 1_554
Al6 Rh1 2.429068 1_555
Al6 Ru0 2.436190 1_555
Al6 Ni1 2.678677 1_555
Al6 Al8 3.053369 1_554
Al7 Rh0 2.429058 1_555
Al7 Ru1 2.436193 1_555
Al7 Ni0 2.678670 1_545
Al7 Al9 3.053369 1_555
Al8 Ni0 2.374535 1_555
Al8 Ru0 2.568588 1_556
Al8 Ru1 2.733369 1_455
Al8 Rh0 2.767035 1_555
Al9 Ni1 2.374524 1_555
Al9 Ru1 2.568593 1_555
Al9 Ru0 2.733369 1_655
Al9 Rh1 2.767028 1_545
Al10 Ni1 2.371186 1_555
Al10 Rh0 2.574056 1_555
Al10 Ru0 2.720578 1_555
Al10 Al6 2.755983 1_555
Al10 Rh2 2.757426 1_545
Al10 Al2 2.768803 1_545
Al10 Al18 2.806174 1_555
Al10 Al19 2.837558 1_545
Al10 Al16 2.884165 1_555
Al10 Al3 3.062272 1_555
Al10 Al7 3.075676 1_555
Al11 Ni0 2.371186 1_555
Al11 Rh1 2.574056 1_556
Al11 Ru1 2.720574 1_565
Al11 Al7 2.755983 1_565
Al11 Rh3 2.757430 1_555
Al11 Al3 2.768797 1_555
Al11 Al14 2.806181 1_566
Al11 Al13 2.837552 1_556
Al11 Al17 2.884165 1_555
Al11 Al2 3.062268 1_556
Al11 Al6 3.075676 1_556
Al12 Ni0 2.367598 1_555
Al12 Rh2 2.573131 1_556
Al12 Rh0 2.750237 1_565
Al12 Rh3 2.755371 1_455
Al12 Al4 2.780306 1_455
Al12 Al7 2.780601 1_565
Al12 Al13 2.834392 1_456
Al12 Al16 2.837558 1_566
Al12 Al19 2.912620 1_555
Al12 Al2 3.050518 1_556
Al12 Al5 3.050909 1_556
Al13 Ni1 2.367609 1_555
Al13 Rh3 2.573127 1_554
Al13 Rh1 2.750243 1_555
Al13 Rh2 2.755371 1_655
Al13 Al5 2.780311 1_655
Al13 Al6 2.780599 1_555
Al13 Al15 2.912620 1_555
Al13 Al3 3.050518 1_554
Al13 Al4 3.050913 1_554
Al14 Ni1 2.374524 1_555
Al14 Ru1 2.568593 1_554
Al14 Ru0 2.733369 1_655
Al14 Al5 2.759240 1_655
Al14 Rh1 2.767028 1_545
Al14 Al2 2.771418 1_545
Al14 Al8 2.773413 1_654
Al14 Al9 2.910969 1_555
Al14 Al4 3.041259 1_554
Al14 Al7 3.053369 1_554
Al15 Ni1 2.367609 1_555
Al15 Rh3 2.573127 1_555
Al15 Rh1 2.750243 1_555
Al15 Rh2 2.755371 1_655
Al15 Al5 2.780311 1_655
Al15 Al6 2.780599 1_555
Al15 Al19 2.834392 1_655
Al15 Al17 2.837552 1_555
Al15 Al3 3.050518 1_555
Al15 Al4 3.050913 1_555
Al16 Ni1 2.371186 1_555
Al16 Rh0 2.574056 1_554
Al16 Ru0 2.720578 1_555
Al16 Al6 2.755983 1_555
Al16 Rh2 2.757426 1_545
Al16 Al2 2.768803 1_545
Al16 Al8 2.806174 1_554
Al16 Al3 3.062272 1_554
Al16 Al7 3.075676 1_554
Al17 Ni0 2.371186 1_555
Al17 Rh1 2.574056 1_555
Al17 Ru1 2.720574 1_565
Al17 Al7 2.755983 1_565
Al17 Rh3 2.757430 1_555
Al17 Al3 2.768797 1_555
Al17 Al9 2.806181 1_565
Al17 Al2 3.062268 1_555
Al17 Al6 3.075676 1_555
Al18 Ni0 2.374535 1_555
Al18 Ru0 2.568588 1_555
Al18 Ru1 2.733369 1_455
Al18 Al4 2.759245 1_455
Al18 Rh0 2.767035 1_555
Al18 Al3 2.771414 1_555
Al18 Al9 2.773413 1_455
Al18 Al8 2.910969 1_555
Al18 Al5 3.041263 1_555
Al18 Al6 3.053369 1_555
Al19 Ni0 2.367598 1_555
Al19 Rh2 2.573131 1_555
Al19 Rh0 2.750237 1_565
Al19 Rh3 2.755371 1_455
Al19 Al4 2.780306 1_455
Al19 Al7 2.780601 1_565
Al19 Al2 3.050518 1_555
Al19 Al5 3.050909 1_555
Rh0 Rh3 3.043233 1_445
Rh0 Ru1 3.052333 1_455
Rh1 Rh2 3.043237 1_655
Rh1 Ru0 3.052329 1_665
Rh2 Ru0 3.039423 1_565
Rh3 Ru1 3.039423 1_565
