# generated using pymatgen
data_IrRh3Pb4O13
_symmetry_space_group_name_H-M   'P 1'
_cell_length_a   7.22112112
_cell_length_b   7.20611215
_cell_length_c   7.20611346
_cell_angle_alpha   60.00000281
_cell_angle_beta   60.06873463
_cell_angle_gamma   60.06872685
_symmetry_Int_Tables_number   1
_chemical_formula_structural   IrRh3Pb4O13
_chemical_formula_sum   'Ir1 Rh3 Pb4 O13'
_cell_volume   265.42519547
_cell_formula_units_Z   1
loop_
 _symmetry_equiv_pos_site_id
 _symmetry_equiv_pos_as_xyz
  1  'x, y, z'
loop_
 _atom_site_type_symbol
 _atom_site_label
 _atom_site_symmetry_multiplicity
 _atom_site_fract_x
 _atom_site_fract_y
 _atom_site_fract_z
 _atom_site_occupancy
  Ir  Ir0  1  0.37633862  0.87455379  0.87455379  1
  Rh  Rh0  1  0.87507416  0.37568554  0.87461965  1
  Rh  Rh1  1  0.87507416  0.87461965  0.37568554  1
  Rh  Rh2  1  0.87507416  0.87461965  0.87461965  1
  Pb  Pb0  1  0.87888257  0.37370548  0.37370548  1
  Pb  Pb1  1  0.37158334  0.37205648  0.37205648  1
  Pb  Pb2  1  0.37158334  0.37205648  0.88430570  1
  Pb  Pb3  1  0.37158334  0.88430570  0.37205648  1
  O  O0  1  0.20669654  0.79490412  0.79490412  1
  O  O1  1  0.20669654  0.79490412  0.20349522  1
  O  O2  1  0.54700040  0.95215362  0.95215362  1
  O  O3  1  0.54700040  0.95215362  0.54869236  1
  O  O4  1  0.95437827  0.95227713  0.54667180  1
  O  O5  1  0.79433880  0.79403623  0.20581299  1
  O  O6  1  0.54700040  0.54869236  0.95215362  1
  O  O7  1  0.79433880  0.20581299  0.79403623  1
  O  O8  1  0.79433880  0.20581299  0.20581299  1
  O  O9  1  0.95437827  0.54667180  0.95227713  1
  O  O10  1  0.95437827  0.54667180  0.54667180  1
  O  O11  1  0.20669654  0.20349522  0.79490412  1
  O  O12  1  0.49756130  0.50081323  0.50081323  1
loop_
_geom_bond_atom_site_label_1
_geom_bond_atom_site_label_2
_geom_bond_distance
_geom_bond_site_symmetry_2
Ir0 O6 1.957607 1_555
Ir0 O2 1.957607 1_555
Ir0 O3 1.957607 1_555
Ir0 O11 1.972877 1_565
Ir0 O0 1.972877 1_555
Ir0 O1 1.972877 1_556
O0 Rh2 1.994737 1_455
O0 Pb2 2.509856 1_555
O0 Pb3 2.509856 1_555
O1 Rh1 1.994736 1_455
O1 Pb1 2.509857 1_555
O1 Pb3 2.509868 1_555
O2 Rh2 1.976657 1_555
O2 Pb2 2.512601 1_565
O2 Pb3 2.512602 1_556
O3 Rh1 1.976658 1_555
O3 Pb3 2.512589 1_555
O3 Pb1 2.512599 1_565
O4 Rh1 1.967931 1_555
O4 Rh2 1.967931 1_555
O4 Pb3 2.502057 1_655
O4 Pb0 2.512773 1_565
O5 Rh1 1.984042 1_555
O5 Rh2 1.984056 1_554
O5 Pb0 2.497631 1_555
O5 Pb3 2.515102 1_555
O6 Rh0 1.976658 1_555
O6 Pb2 2.512589 1_555
O6 Pb1 2.512600 1_556
O7 Rh0 1.984042 1_555
O7 Rh2 1.984055 1_545
O7 Pb0 2.497631 1_555
O7 Pb2 2.515102 1_555
O8 Rh1 1.984053 1_545
O8 Rh0 1.984053 1_554
O8 Pb0 2.497619 1_555
O8 Pb1 2.515103 1_555
O9 Rh2 1.967931 1_555
O9 Rh0 1.967931 1_555
O9 Pb2 2.502057 1_655
O9 Pb0 2.512773 1_556
O10 Rh1 1.967931 1_555
O10 Rh0 1.967931 1_555
O10 Pb1 2.502053 1_655
O10 Pb0 2.512773 1_555
O11 Rh0 1.994736 1_455
O11 Pb1 2.509858 1_555
O11 Pb2 2.509868 1_555
O12 Pb0 2.250611 1_555
O12 Pb1 2.257165 1_555
O12 Pb3 2.257171 1_555
O12 Pb2 2.257171 1_555
