# generated using pymatgen
data_Mg3(SbAu)4
_symmetry_space_group_name_H-M   'P 1'
_cell_length_a   7.79860707
_cell_length_b   7.79860643
_cell_length_c   7.79860633
_cell_angle_alpha   131.29107463
_cell_angle_beta   131.29106821
_cell_angle_gamma   71.35103011
_symmetry_Int_Tables_number   1
_chemical_formula_structural   Mg3(SbAu)4
_chemical_formula_sum   'Mg3 Sb4 Au4'
_cell_volume   262.08450853
_cell_formula_units_Z   1
loop_
 _symmetry_equiv_pos_site_id
 _symmetry_equiv_pos_as_xyz
  1  'x, y, z'
loop_
 _atom_site_type_symbol
 _atom_site_label
 _atom_site_symmetry_multiplicity
 _atom_site_fract_x
 _atom_site_fract_y
 _atom_site_fract_z
 _atom_site_occupancy
  Mg  Mg0  1  0.00000000  0.00000000  0.00000000  1
  Mg  Mg1  1  0.75000100  0.25000000  0.50000100  1
  Mg  Mg2  1  0.25000000  0.75000100  0.50000100  1
  Sb  Sb0  1  0.25536462  0.25536462  1.00000000  1
  Sb  Sb1  1  0.74463538  0.74463538  0.00000000  1
  Sb  Sb2  1  0.50000100  0.00000000  0.50000100  1
  Sb  Sb3  1  0.00000000  0.50000100  0.50000100  1
  Au  Au0  1  0.62752710  0.12511553  0.00000000  1
  Au  Au1  1  0.12511553  0.62752710  0.00000000  1
  Au  Au2  1  0.87488447  0.87488447  0.50241157  1
  Au  Au3  1  0.37247290  0.37247290  0.49758943  1
loop_
_geom_bond_atom_site_label_1
_geom_bond_atom_site_label_2
_geom_bond_distance
_geom_bond_site_symmetry_2
Mg0 Sb3 3.215987 1_544
Mg0 Sb2 3.215987 1_454
Mg0 Sb3 3.216000 1_555
Mg0 Sb2 3.216000 1_555
Mg0 Sb0 3.235503 1_554
Mg0 Sb1 3.235503 1_445
Mg1 Sb2 3.167532 1_555
Mg1 Sb3 3.167532 1_655
Mg1 Sb0 3.216706 1_655
Mg1 Sb1 3.216711 1_556
Mg1 Sb1 3.216711 1_545
Mg1 Sb0 3.216718 1_554
Mg2 Sb3 3.167532 1_555
Mg2 Sb2 3.167532 1_565
Mg2 Sb0 3.216705 1_565
Mg2 Sb1 3.216712 1_556
Mg2 Sb1 3.216712 1_455
Mg2 Sb0 3.216718 1_554
Au0 Sb0 2.751360 1_554
Au0 Mg0 2.752655 1_655
Au0 Sb2 2.761697 1_554
Au0 Sb3 2.761705 1_655
Au0 Mg2 2.780833 1_544
Au0 Mg1 2.780840 1_555
Au0 Sb1 2.811647 1_545
Au1 Sb0 2.751360 1_554
Au1 Mg0 2.752655 1_565
Au1 Sb3 2.761697 1_554
Au1 Sb2 2.761705 1_565
Au1 Mg1 2.780833 1_454
Au1 Mg2 2.780840 1_555
Au1 Sb1 2.811648 1_455
Au2 Sb1 2.751360 1_555
Au2 Mg0 2.752655 1_666
Au2 Sb3 2.761697 1_655
Au2 Sb2 2.761698 1_565
Au2 Mg1 2.780833 1_565
Au2 Mg2 2.780833 1_655
Au2 Sb0 2.811648 1_665
Au3 Sb1 2.751360 1_556
Au3 Mg0 2.752656 1_555
Au3 Sb2 2.761701 1_555
Au3 Sb3 2.761702 1_555
Au3 Mg2 2.780844 1_555
Au3 Mg1 2.780844 1_555
Au3 Sb0 2.811655 1_554
