# generated using pymatgen
data_Rb2Zr(PdSe2)3
_symmetry_space_group_name_H-M   'P 1'
_cell_length_a   11.57221760
_cell_length_b   10.06259672
_cell_length_c   9.12744556
_cell_angle_alpha   73.99426926
_cell_angle_beta   56.70330826
_cell_angle_gamma   49.30240567
_symmetry_Int_Tables_number   1
_chemical_formula_structural   Rb2Zr(PdSe2)3
_chemical_formula_sum   'Rb4 Zr2 Pd6 Se12'
_cell_volume   667.84019404
_cell_formula_units_Z   2
loop_
 _symmetry_equiv_pos_site_id
 _symmetry_equiv_pos_as_xyz
  1  'x, y, z'
loop_
 _atom_site_type_symbol
 _atom_site_label
 _atom_site_symmetry_multiplicity
 _atom_site_fract_x
 _atom_site_fract_y
 _atom_site_fract_z
 _atom_site_occupancy
  Rb  Rb0  1  0.25000000  0.24999900  0.25000000  1
  Rb  Rb1  1  0.75000000  0.75000000  0.75000000  1
  Rb  Rb2  1  0.32996940  0.67003060  0.32997040  1
  Rb  Rb3  1  0.67003060  0.32997040  0.67003060  1
  Zr  Zr0  1  0.16699935  0.16700035  0.83300065  1
  Zr  Zr1  1  0.83299965  0.83300065  0.16700035  1
  Pd  Pd0  1  0.83145841  0.16854159  0.16854159  1
  Pd  Pd1  1  0.16854259  0.83145841  0.83145741  1
  Pd  Pd2  1  0.82787008  0.49649346  0.17212992  1
  Pd  Pd3  1  0.49649346  0.82787008  0.50350654  1
  Pd  Pd4  1  0.50350654  0.17212992  0.49649346  1
  Pd  Pd5  1  0.17213092  0.50350654  0.82786908  1
  Se  Se0  1  0.03028214  0.17721822  0.18708821  1
  Se  Se1  1  0.17721922  0.03028114  0.60540943  1
  Se  Se2  1  0.60540943  0.18708821  0.17721922  1
  Se  Se3  1  0.18708821  0.60540843  0.03028114  1
  Se  Se4  1  0.96971786  0.82278078  0.81291179  1
  Se  Se5  1  0.82278078  0.96971886  0.39459057  1
  Se  Se6  1  0.39459057  0.81291179  0.82278078  1
  Se  Se7  1  0.81291179  0.39459057  0.96971886  1
  Se  Se8  1  0.39997110  0.18502674  0.81497326  1
  Se  Se9  1  0.18502674  0.39997110  0.60002890  1
  Se  Se10  1  0.60002890  0.81497426  0.18502674  1
  Se  Se11  1  0.81497326  0.60002990  0.39997110  1
loop_
_geom_bond_atom_site_label_1
_geom_bond_atom_site_label_2
_geom_bond_distance
_geom_bond_site_symmetry_2
Rb0 Se10 3.404619 1_545
Rb0 Se8 3.404628 1_554
Rb0 Se11 3.404634 1_455
Rb0 Se9 3.404636 1_555
Rb0 Se1 3.405054 1_555
Rb0 Se2 3.405055 1_555
Rb0 Se3 3.405056 1_555
Rb0 Se0 3.405061 1_555
Rb1 Se11 3.404625 1_555
Rb1 Se8 3.404630 1_565
Rb1 Se9 3.404630 1_655
Rb1 Se10 3.404632 1_556
Rb1 Se6 3.405049 1_555
Rb1 Se7 3.405056 1_555
Rb1 Se5 3.405060 1_555
Rb1 Se4 3.405061 1_555
Rb2 Se9 3.739657 1_555
Rb2 Se10 3.739666 1_555
Rb2 Se1 3.791567 1_565
Rb2 Se4 3.791582 1_455
Rb2 Se7 3.791588 1_554
Rb2 Se2 3.791593 1_555
Rb3 Se11 3.739659 1_555
Rb3 Se8 3.739668 1_555
Rb3 Se6 3.791582 1_555
Rb3 Se5 3.791582 1_545
Rb3 Se3 3.791585 1_556
Rb3 Se0 3.791588 1_655
Pd0 Se0 2.455174 1_655
Pd0 Se5 2.455179 1_545
Pd0 Se7 2.455182 1_554
Pd0 Se2 2.455192 1_555
Pd1 Se1 2.455173 1_565
Pd1 Se6 2.455185 1_555
Pd1 Se4 2.455187 1_455
Pd1 Se3 2.455195 1_556
Pd2 Se10 2.466528 1_555
Pd2 Se11 2.466528 1_555
Pd2 Se7 2.474266 1_554
Pd2 Se0 2.474288 1_655
Pd3 Se10 2.466521 1_555
Pd3 Se11 2.466521 1_555
Pd3 Se6 2.474283 1_555
Pd3 Se1 2.474284 1_565
Pd4 Se8 2.466521 1_555
Pd4 Se9 2.466521 1_555
Pd4 Se2 2.474283 1_555
Pd4 Se5 2.474284 1_545
Pd5 Se8 2.466521 1_555
Pd5 Se9 2.466521 1_555
Pd5 Se3 2.474259 1_556
Pd5 Se4 2.474281 1_455
Se0 Zr0 2.704799 1_554
Se1 Zr0 2.704821 1_555
Se2 Zr1 2.704800 1_545
Se3 Zr1 2.704804 1_455
Se4 Zr1 2.704806 1_556
Se5 Zr1 2.704814 1_555
Se6 Zr0 2.704807 1_565
Se7 Zr0 2.704798 1_655
Se8 Zr0 2.731783 1_555
Se9 Zr0 2.731782 1_555
Se10 Zr1 2.731776 1_555
Se11 Zr1 2.731775 1_555
