# generated using pymatgen
data_In7SiIrO8
_symmetry_space_group_name_H-M   'P 1'
_cell_length_a   7.15369699
_cell_length_b   7.15369631
_cell_length_c   7.15369662
_cell_angle_alpha   59.99999858
_cell_angle_beta   60.00000172
_cell_angle_gamma   59.99999801
_symmetry_Int_Tables_number   1
_chemical_formula_structural   In7SiIrO8
_chemical_formula_sum   'In7 Si1 Ir1 O8'
_cell_volume   258.86691881
_cell_formula_units_Z   1
loop_
 _symmetry_equiv_pos_site_id
 _symmetry_equiv_pos_as_xyz
  1  'x, y, z'
loop_
 _atom_site_type_symbol
 _atom_site_label
 _atom_site_symmetry_multiplicity
 _atom_site_fract_x
 _atom_site_fract_y
 _atom_site_fract_z
 _atom_site_occupancy
  In  In0  1  0.25023189  0.74976811  0.74976811  1
  In  In1  1  0.74976811  0.25023189  0.25023189  1
  In  In2  1  0.25023189  0.25023189  0.74976811  1
  In  In3  1  0.25023189  0.74976811  0.25023189  1
  In  In4  1  0.74976811  0.74976811  0.25023189  1
  In  In5  1  0.74976811  0.25023189  0.74976811  1
  In  In6  1  0.75000000  0.75000000  0.75000000  1
  Si  Si0  1  0.25000000  0.25000000  0.25000000  1
  Ir  Ir0  1  0.00000000  0.00000000  0.00000000  1
  O  O0  1  0.34489006  0.96532882  0.34489006  1
  O  O1  1  0.62847425  0.62847425  0.62847425  1
  O  O2  1  0.96532882  0.34489006  0.34489006  1
  O  O3  1  0.62847425  0.11457824  0.62847425  1
  O  O4  1  0.34489006  0.34489006  0.34489006  1
  O  O5  1  0.11457824  0.62847425  0.62847425  1
  O  O6  1  0.34489006  0.34489006  0.96532882  1
  O  O7  1  0.62847425  0.62847425  0.11457824  1
loop_
_geom_bond_atom_site_label_1
_geom_bond_atom_site_label_2
_geom_bond_distance
_geom_bond_site_symmetry_2
In0 O5 2.210092 1_555
In0 O1 2.210098 1_555
In0 O6 2.417024 1_555
In0 O0 2.417024 1_555
In0 Ir0 2.531560 1_566
In1 O7 2.210098 1_555
In1 O3 2.210098 1_555
In1 O2 2.417019 1_555
In1 O4 2.417026 1_555
In1 Ir0 2.531560 1_655
In2 O5 2.210098 1_555
In2 O3 2.210098 1_555
In2 O6 2.417019 1_555
In2 O4 2.417026 1_555
In2 Ir0 2.531560 1_556
In3 O5 2.210098 1_555
In3 O7 2.210098 1_555
In3 O0 2.417019 1_555
In3 O4 2.417025 1_555
In3 Ir0 2.531560 1_565
In4 O7 2.210092 1_555
In4 O1 2.210098 1_555
In4 O2 2.417024 1_555
In4 O0 2.417024 1_555
In4 Ir0 2.531560 1_665
In5 O3 2.210092 1_555
In5 O1 2.210098 1_555
In5 O2 2.417024 1_555
In5 O6 2.417024 1_555
In5 Ir0 2.531560 1_656
In6 O1 2.129484 1_555
In6 O3 2.129490 1_565
In6 O7 2.129490 1_556
In6 O5 2.129490 1_655
O0 Si0 1.662755 1_565
O2 Si0 1.662756 1_655
O4 Si0 1.662750 1_555
O6 Si0 1.662756 1_556
