# generated using pymatgen
data_Zr10Ga6S
_symmetry_space_group_name_H-M   'P 1'
_cell_length_a   8.18430878
_cell_length_b   8.18431044
_cell_length_c   5.78107406
_cell_angle_alpha   90.00000000
_cell_angle_beta   90.00000000
_cell_angle_gamma   120.00000532
_symmetry_Int_Tables_number   1
_chemical_formula_structural   Zr10Ga6S
_chemical_formula_sum   'Zr10 Ga6 S1'
_cell_volume   335.35380760
_cell_formula_units_Z   1
loop_
 _symmetry_equiv_pos_site_id
 _symmetry_equiv_pos_as_xyz
  1  'x, y, z'
loop_
 _atom_site_type_symbol
 _atom_site_label
 _atom_site_symmetry_multiplicity
 _atom_site_fract_x
 _atom_site_fract_y
 _atom_site_fract_z
 _atom_site_occupancy
  Zr  Zr0  1  0.00000000  0.74884475  0.24045033  1
  Zr  Zr1  1  0.25115525  0.25115525  0.24045033  1
  Zr  Zr2  1  0.74884475  1.00000000  0.24045033  1
  Zr  Zr3  1  0.00000000  0.25115525  0.75954967  1
  Zr  Zr4  1  0.74884475  0.74884475  0.75954967  1
  Zr  Zr5  1  0.25115525  0.00000000  0.75954967  1
  Zr  Zr6  1  0.33333300  0.66666700  0.50000000  1
  Zr  Zr7  1  0.66666700  0.33333300  0.50000000  1
  Zr  Zr8  1  0.66666700  0.33333300  0.00000000  1
  Zr  Zr9  1  0.33333300  0.66666700  0.00000000  1
  Ga  Ga0  1  0.00000000  0.39269580  0.24818018  1
  Ga  Ga1  1  0.60730420  0.60730420  0.24818018  1
  Ga  Ga2  1  0.39269580  0.00000000  0.24818018  1
  Ga  Ga3  1  0.00000000  0.60730420  0.75181982  1
  Ga  Ga4  1  0.39269580  0.39269580  0.75181982  1
  Ga  Ga5  1  0.60730420  0.00000000  0.75181982  1
  S  S0  1  0.00000000  0.00000000  0.50000000  1
loop_
_geom_bond_atom_site_label_1
_geom_bond_atom_site_label_2
_geom_bond_distance
_geom_bond_site_symmetry_2
Ga0 Zr1 2.819624 1_555
Ga0 Zr2 2.819624 1_445
Ga0 Zr8 2.900284 1_455
Ga0 Zr9 2.900286 1_555
Ga0 Zr7 2.910750 1_455
Ga0 Zr6 2.910753 1_555
Ga0 Zr0 2.915176 1_555
Ga0 Zr3 3.053107 1_554
Ga0 Zr3 3.175125 1_555
Ga1 Zr0 2.819624 1_655
Ga1 Zr2 2.819624 1_555
Ga1 Zr9 2.900291 1_555
Ga1 Zr8 2.900291 1_555
Ga1 Zr6 2.910757 1_555
Ga1 Zr7 2.910758 1_555
Ga1 Zr1 2.915176 1_555
Ga1 Zr4 3.053107 1_554
Ga1 Zr4 3.175125 1_555
Ga2 Zr0 2.819624 1_545
Ga2 Zr1 2.819624 1_555
Ga2 Zr9 2.900284 1_545
Ga2 Zr8 2.900287 1_555
Ga2 Zr6 2.910751 1_545
Ga2 Zr7 2.910753 1_555
Ga2 Zr2 2.915176 1_545
Ga2 Zr5 3.053107 1_554
Ga2 Zr5 3.175125 1_555
Ga3 Zr4 2.819624 1_455
Ga3 Zr5 2.819624 1_565
Ga3 Zr9 2.900284 1_556
Ga3 Zr8 2.900286 1_456
Ga3 Zr6 2.910750 1_555
Ga3 Zr7 2.910753 1_455
Ga3 Zr3 2.915176 1_555
Ga3 Zr0 3.053107 1_556
Ga3 Zr0 3.175125 1_555
Ga4 Zr3 2.819624 1_555
Ga4 Zr5 2.819624 1_555
Ga4 Zr8 2.900291 1_556
Ga4 Zr9 2.900291 1_556
Ga4 Zr7 2.910757 1_555
Ga4 Zr6 2.910758 1_555
Ga4 Zr4 2.915176 1_555
Ga4 Zr1 3.053107 1_556
Ga4 Zr1 3.175125 1_555
Ga5 Zr3 2.819624 1_655
Ga5 Zr4 2.819624 1_545
Ga5 Zr8 2.900284 1_556
Ga5 Zr9 2.900287 1_546
Ga5 Zr7 2.910751 1_555
Ga5 Zr6 2.910753 1_545
Ga5 Zr5 2.915176 1_555
Ga5 Zr2 3.053107 1_546
Ga5 Zr2 3.175125 1_545
S0 Zr5 2.544924 1_555
S0 Zr2 2.544924 1_445
S0 Zr4 2.544924 1_445
S0 Zr1 2.544924 1_555
S0 Zr3 2.544925 1_555
S0 Zr0 2.544925 1_545
