# generated using pymatgen
data_CsGaSnSe4
_symmetry_space_group_name_H-M   'P 1'
_cell_length_a   7.58831996
_cell_length_b   8.92204645
_cell_length_c   16.00710921
_cell_angle_alpha   84.78716551
_cell_angle_beta   86.10784838
_cell_angle_gamma   64.87770757
_symmetry_Int_Tables_number   1
_chemical_formula_structural   CsGaSnSe4
_chemical_formula_sum   'Cs4 Ga4 Sn4 Se16'
_cell_volume   976.64298179
_cell_formula_units_Z   4
loop_
 _symmetry_equiv_pos_site_id
 _symmetry_equiv_pos_as_xyz
  1  'x, y, z'
loop_
 _atom_site_type_symbol
 _atom_site_label
 _atom_site_symmetry_multiplicity
 _atom_site_fract_x
 _atom_site_fract_y
 _atom_site_fract_z
 _atom_site_occupancy
  Cs  Cs0  1  0.09876334  0.77269109  0.13940404  1
  Cs  Cs1  1  0.35695229  0.81000577  0.48023964  1
  Cs  Cs2  1  0.64296199  0.18995839  0.51977668  1
  Cs  Cs3  1  0.90127658  0.22727001  0.86060762  1
  Ga  Ga0  1  0.00544797  0.23473172  0.24193415  1
  Ga  Ga1  1  0.51150901  0.24779987  0.26047207  1
  Ga  Ga2  1  0.48853482  0.75214996  0.73953713  1
  Ga  Ga3  1  0.99460110  0.76527016  0.75805236  1
  Sn  Sn0  1  0.36677613  0.15915116  0.06304671  1
  Sn  Sn1  1  0.06517995  0.48981984  0.39187469  1
  Sn  Sn2  1  0.93474423  0.51019453  0.60812077  1
  Sn  Sn3  1  0.63322357  0.84089493  0.93696165  1
  Se  Se0  1  0.00794229  0.23769295  0.08926742  1
  Se  Se1  1  0.57311068  0.84683457  0.09777847  1
  Se  Se2  1  0.49725790  0.35017554  0.11504720  1
  Se  Se3  1  0.84363476  0.52464745  0.27529250  1
  Se  Se4  1  0.32779393  0.08758498  0.29541557  1
  Se  Se5  1  0.83660795  0.07478496  0.30375810  1
  Se  Se6  1  0.38429801  0.49767419  0.34197633  1
  Se  Se7  1  0.89645874  0.73523922  0.48858341  1
  Se  Se8  1  0.10332919  0.26486030  0.51141676  1
  Se  Se9  1  0.61564581  0.50230973  0.65803914  1
  Se  Se10  1  0.16340936  0.92519848  0.69625205  1
  Se  Se11  1  0.67226724  0.91234689  0.70459181  1
  Se  Se12  1  0.15641770  0.47532362  0.72465486  1
  Se  Se13  1  0.50284646  0.64982189  0.88492723  1
  Se  Se14  1  0.42696234  0.15323009  0.90225630  1
  Se  Se15  1  0.99204268  0.76233269  0.91071034  1
loop_
_geom_bond_atom_site_label_1
_geom_bond_atom_site_label_2
_geom_bond_distance
_geom_bond_site_symmetry_2
Cs0 Se2 3.732903 1_555
Cs0 Se5 3.764115 1_465
Cs0 Se15 3.820047 1_454
Cs0 Se1 3.851296 1_455
Cs0 Se0 3.920917 1_565
Cs0 Se1 3.931167 1_555
Cs0 Se3 3.945715 1_455
Cs0 Se6 4.027854 1_555
Cs1 Se4 3.636934 1_565
Cs1 Se6 3.643348 1_555
Cs1 Se10 3.720734 1_555
Cs1 Se8 3.745412 1_565
Cs1 Se9 3.775308 1_555
Cs1 Se7 3.817482 1_455
Cs1 Se7 3.868127 1_555
Cs2 Se11 3.636800 1_545
Cs2 Se9 3.643548 1_555
Cs2 Se5 3.720960 1_555
Cs2 Se7 3.744360 1_545
Cs2 Se6 3.775336 1_555
Cs2 Se8 3.817201 1_655
Cs2 Se8 3.868759 1_555
Cs3 Se13 3.732855 1_555
Cs3 Se10 3.763992 1_645
Cs3 Se0 3.819514 1_656
Cs3 Se14 3.851887 1_655
Cs3 Se15 3.920405 1_545
Cs3 Se14 3.930456 1_555
Cs3 Se12 3.946325 1_655
Cs3 Se9 4.028112 1_555
Ga0 Se5 2.404382 1_455
Ga0 Se4 2.406865 1_555
Ga0 Se3 2.438990 1_455
Ga0 Se0 2.440369 1_555
Ga1 Se4 2.395952 1_555
Ga1 Se5 2.398546 1_555
Ga1 Se2 2.414278 1_555
Ga1 Se6 2.476760 1_555
Ga2 Se11 2.395932 1_555
Ga2 Se10 2.398751 1_555
Ga2 Se13 2.413620 1_555
Ga2 Se9 2.476485 1_555
Ga3 Se10 2.403949 1_655
Ga3 Se11 2.406614 1_555
Ga3 Se12 2.439406 1_655
Ga3 Se15 2.440218 1_555
Se0 Sn0 2.521856 1_555
Se1 Sn0 2.580176 1_565
Se1 Sn3 2.585016 1_554
Se2 Sn0 2.525967 1_555
Se3 Sn1 2.506453 1_655
Se6 Sn1 2.525514 1_555
Se7 Sn2 2.580547 1_555
Se7 Sn1 2.607027 1_655
Se8 Sn1 2.580268 1_555
Se8 Sn2 2.606362 1_455
Se9 Sn2 2.525562 1_555
Se12 Sn2 2.506416 1_455
Se13 Sn3 2.526015 1_555
Se14 Sn3 2.580151 1_545
Se14 Sn0 2.584649 1_556
Se15 Sn3 2.521778 1_555
