# generated using pymatgen
data_Cs6Lu3RhBr18
_symmetry_space_group_name_H-M   'P 1'
_cell_length_a   7.77819799
_cell_length_b   7.77816857
_cell_length_c   19.61942715
_cell_angle_alpha   89.99726302
_cell_angle_beta   89.99838020
_cell_angle_gamma   120.00117804
_symmetry_Int_Tables_number   1
_chemical_formula_structural   Cs6Lu3RhBr18
_chemical_formula_sum   'Cs6 Lu3 Rh1 Br18'
_cell_volume   1027.94089104
_cell_formula_units_Z   1
loop_
 _symmetry_equiv_pos_site_id
 _symmetry_equiv_pos_as_xyz
  1  'x, y, z'
loop_
 _atom_site_type_symbol
 _atom_site_label
 _atom_site_symmetry_multiplicity
 _atom_site_fract_x
 _atom_site_fract_y
 _atom_site_fract_z
 _atom_site_occupancy
  Cs  Cs0  1  0.33332111  0.66664582  0.06851108  1
  Cs  Cs1  1  0.66662196  0.33330314  0.92870619  1
  Cs  Cs2  1  0.66668433  0.33334776  0.57767644  1
  Cs  Cs3  1  0.33333030  0.66667826  0.43238091  1
  Cs  Cs4  1  0.99999916  0.00001562  0.25237174  1
  Cs  Cs5  1  0.00001728  0.00000462  0.74435833  1
  Lu  Lu0  1  0.66667267  0.33337124  0.34840170  1
  Lu  Lu1  1  0.66663657  0.33329021  0.15650064  1
  Lu  Lu2  1  0.33328049  0.66660490  0.83686613  1
  Rh  Rh0  1  0.33338311  0.66670033  0.66425417  1
  Br  Br0  1  0.18251924  0.36492195  0.59283923  1
  Br  Br1  1  0.83435863  0.66869171  0.41710343  1
  Br  Br2  1  0.63517917  0.81757637  0.59285460  1
  Br  Br3  1  0.83409569  0.66817008  0.08713236  1
  Br  Br4  1  0.33131964  0.16567594  0.41709879  1
  Br  Br5  1  0.16614664  0.33250702  0.90728578  1
  Br  Br6  1  0.18257686  0.81768151  0.59284061  1
  Br  Br7  1  0.33180808  0.16589638  0.08714956  1
  Br  Br8  1  0.83434625  0.16565535  0.41708441  1
  Br  Br9  1  0.66741448  0.83374885  0.90722886  1
  Br  Br10  1  0.83409383  0.16588955  0.08714002  1
  Br  Br11  1  0.16621860  0.83366136  0.90722537  1
  Br  Br12  1  0.50808910  0.01626400  0.25208179  1
  Br  Br13  1  0.48868264  0.97727411  0.74025802  1
  Br  Br14  1  0.98370567  0.49186590  0.25207912  1
  Br  Br15  1  0.02275453  0.51136058  0.74023608  1
  Br  Br16  1  0.50813257  0.49188204  0.25207552  1
  Br  Br17  1  0.48861437  0.51131241  0.74026113  1
loop_
_geom_bond_atom_site_label_1
_geom_bond_atom_site_label_2
_geom_bond_distance
_geom_bond_site_symmetry_2
Br0 Rh0 2.468957 1_555
Br0 Cs3 3.747162 1_555
Br0 Cs5 3.857227 1_555
Br0 Cs2 3.905881 1_555
Br0 Cs2 3.906630 1_455
Br1 Lu0 2.630412 1_555
Br1 Cs2 3.876369 1_555
Br1 Cs3 3.900497 1_655
Br1 Cs3 3.900815 1_555
Br1 Cs4 3.927512 1_565
Br2 Rh0 2.468739 1_555
Br2 Cs3 3.747983 1_555
Br2 Cs5 3.856910 1_665
Br2 Cs2 3.906110 1_555
Br2 Cs2 3.906363 1_565
Br3 Lu1 2.634429 1_555
Br3 Cs1 3.840591 1_554
Br3 Cs0 3.906128 1_655
Br3 Cs0 3.906341 1_555
Br3 Cs4 3.937969 1_565
Br4 Lu0 2.630408 1_555
Br4 Cs2 3.876771 1_555
Br4 Cs3 3.900639 1_555
Br4 Cs3 3.900658 1_545
Br4 Cs4 3.927671 1_455
Br5 Lu2 2.640653 1_555
Br5 Cs0 3.882326 1_556
Br5 Cs5 3.903248 1_555
Br5 Cs1 3.911134 1_455
Br5 Cs1 3.912352 1_555
Br6 Rh0 2.468930 1_555
Br6 Cs3 3.747349 1_555
Br6 Cs5 3.857245 1_565
Br6 Cs2 3.905275 1_565
Br6 Cs2 3.907074 1_455
Br7 Lu1 2.634120 1_555
Br7 Cs1 3.840418 1_554
Br7 Cs0 3.906179 1_555
Br7 Cs0 3.906324 1_545
Br7 Cs4 3.937314 1_455
Br8 Lu0 2.630562 1_555
Br8 Cs2 3.876890 1_555
Br8 Cs3 3.900559 1_545
Br8 Cs3 3.900659 1_655
Br8 Cs4 3.927262 1_555
Br9 Lu2 2.640439 1_555
Br9 Cs0 3.882822 1_556
Br9 Cs5 3.902485 1_665
Br9 Cs1 3.911486 1_565
Br9 Cs1 3.912211 1_555
Br10 Lu1 2.634360 1_555
Br10 Cs1 3.840661 1_554
Br10 Cs0 3.906081 1_655
Br10 Cs0 3.906264 1_545
Br10 Cs4 3.937465 1_555
Br11 Lu2 2.640286 1_555
Br11 Cs0 3.883085 1_556
Br11 Cs5 3.902314 1_565
Br11 Cs1 3.911588 1_455
Br11 Cs1 3.912001 1_565
Br12 Lu1 2.841884 1_555
Br12 Lu0 2.852080 1_555
Br12 Cs4 3.890374 1_455
Br12 Cs4 3.890911 1_555
Br12 Cs3 4.249342 1_545
Br12 Cs0 4.303320 1_545
Br13 Rh0 2.569156 1_555
Br13 Lu2 2.823337 1_555
Br13 Cs5 3.892705 1_665
Br13 Cs5 3.893182 1_565
Br13 Cs2 3.990782 1_565
Br14 Lu1 2.842259 1_555
Br14 Lu0 2.851560 1_555
Br14 Cs4 3.890616 1_555
Br14 Cs4 3.890658 1_565
Br14 Cs3 4.249794 1_655
Br14 Cs0 4.303012 1_655
Br15 Rh0 2.569054 1_555
Br15 Lu2 2.823102 1_555
Br15 Cs5 3.892833 1_555
Br15 Cs5 3.893045 1_565
Br15 Cs2 3.990682 1_455
Br16 Lu1 2.842304 1_555
Br16 Lu0 2.851791 1_555
Br16 Cs4 3.890570 1_455
Br16 Cs4 3.890571 1_565
Br16 Cs3 4.249680 1_555
Br16 Cs0 4.302922 1_555
Br17 Rh0 2.569374 1_555
Br17 Lu2 2.823229 1_555
Br17 Cs5 3.892484 1_555
Br17 Cs5 3.893237 1_665
Br17 Cs2 3.990859 1_555
