# generated using pymatgen
data_CaZr(Si7Ir3)2
_symmetry_space_group_name_H-M   'P 1'
_cell_length_a   7.96680347
_cell_length_b   7.96680392
_cell_length_c   7.96680297
_cell_angle_alpha   56.71504172
_cell_angle_beta   56.71503670
_cell_angle_gamma   56.71504394
_symmetry_Int_Tables_number   1
_chemical_formula_structural   CaZr(Si7Ir3)2
_chemical_formula_sum   'Ca1 Zr1 Si14 Ir6'
_cell_volume   330.43053614
_cell_formula_units_Z   1
loop_
 _symmetry_equiv_pos_site_id
 _symmetry_equiv_pos_as_xyz
  1  'x, y, z'
loop_
 _atom_site_type_symbol
 _atom_site_label
 _atom_site_symmetry_multiplicity
 _atom_site_fract_x
 _atom_site_fract_y
 _atom_site_fract_z
 _atom_site_occupancy
  Ca  Ca0  1  0.00000000  0.00000000  0.00000000  1
  Zr  Zr0  1  0.50000000  0.50000000  0.50000000  1
  Si  Si0  1  0.06425127  0.85199073  0.67366706  1
  Si  Si1  1  0.67366706  0.06425127  0.85199073  1
  Si  Si2  1  0.85199073  0.67366706  0.06425127  1
  Si  Si3  1  0.17422608  0.34917689  0.56178072  1
  Si  Si4  1  0.56178072  0.17422608  0.34917689  1
  Si  Si5  1  0.34917689  0.56178072  0.17422608  1
  Si  Si6  1  0.93574873  0.14800927  0.32633294  1
  Si  Si7  1  0.32633294  0.93574873  0.14800927  1
  Si  Si8  1  0.14800927  0.32633294  0.93574873  1
  Si  Si9  1  0.82577392  0.65082311  0.43821928  1
  Si  Si10  1  0.43821928  0.82577392  0.65082311  1
  Si  Si11  1  0.65082311  0.43821928  0.82577392  1
  Si  Si12  1  0.75095454  0.75095454  0.75095454  1
  Si  Si13  1  0.24904546  0.24904546  0.24904546  1
  Ir  Ir0  1  0.07641376  0.74502136  0.43266466  1
  Ir  Ir1  1  0.43266466  0.07641376  0.74502136  1
  Ir  Ir2  1  0.74502136  0.43266466  0.07641376  1
  Ir  Ir3  1  0.92358624  0.25497864  0.56733534  1
  Ir  Ir4  1  0.56733534  0.92358624  0.25497864  1
  Ir  Ir5  1  0.25497864  0.56733534  0.92358624  1
loop_
_geom_bond_atom_site_label_1
_geom_bond_atom_site_label_2
_geom_bond_distance
_geom_bond_site_symmetry_2
Ca0 Ir1 3.104668 1_554
Ca0 Ir4 3.104668 1_445
Ca0 Ir0 3.104668 1_545
Ca0 Ir3 3.104668 1_454
Ca0 Ir2 3.104668 1_455
Ca0 Ir5 3.104668 1_544
Ca0 Si0 3.106962 1_544
Ca0 Si6 3.106962 1_455
Ca0 Si1 3.106962 1_454
Ca0 Si7 3.106962 1_545
Ca0 Si2 3.106962 1_445
Ca0 Si8 3.106962 1_554
Ca0 Si4 3.180104 1_455
Ca0 Si10 3.180104 1_544
Ca0 Si3 3.180104 1_554
Ca0 Si9 3.180104 1_445
Ca0 Si5 3.180104 1_545
Ca0 Si11 3.180104 1_454
Si0 Si2 2.563144 1_456
Si0 Si1 2.563144 1_465
Si0 Si12 2.689101 1_455
Si0 Si6 2.750171 1_465
Si0 Si10 2.777898 1_555
Si0 Zr0 3.182920 1_555
Si1 Si2 2.563145 1_546
Si1 Si12 2.689101 1_545
Si1 Si7 2.750171 1_546
Si1 Si11 2.777898 1_555
Si1 Zr0 3.182920 1_555
Si2 Si8 2.750171 1_654
Si2 Si9 2.777898 1_555
Si2 Zr0 3.182920 1_555
Si3 Si8 2.777898 1_555
Si3 Zr0 3.129491 1_555
Si4 Si6 2.777898 1_555
Si4 Zr0 3.129491 1_555
Si5 Si7 2.777898 1_555
Si5 Zr0 3.129491 1_555
Si6 Si8 2.563144 1_654
Si6 Si7 2.563144 1_645
Si6 Zr0 3.182920 1_555
Si7 Si8 2.563145 1_564
Si7 Zr0 3.182920 1_555
Si8 Zr0 3.182920 1_555
Si9 Zr0 3.129491 1_555
Si10 Zr0 3.129491 1_555
Si11 Zr0 3.129491 1_555
Si12 Si2 2.689101 1_556
Si13 Si8 2.689101 1_554
Si13 Si6 2.689101 1_455
Si13 Si7 2.689101 1_545
Ir0 Si0 2.433769 1_555
Ir0 Si12 2.436320 1_455
Ir0 Si7 2.449176 1_555
Ir0 Si5 2.449235 1_555
Ir0 Si9 2.462456 1_455
Ir0 Si3 2.496506 1_555
Ir0 Si6 2.527590 1_465
Ir0 Zr0 3.015560 1_555
Ir1 Si1 2.433769 1_555
Ir1 Si12 2.436321 1_545
Ir1 Si8 2.449177 1_555
Ir1 Si3 2.449235 1_555
Ir1 Si10 2.462456 1_545
Ir1 Si4 2.496505 1_555
Ir1 Si7 2.527590 1_546
Ir1 Zr0 3.015560 1_555
Ir2 Si2 2.433769 1_555
Ir2 Si12 2.436321 1_554
Ir2 Si6 2.449177 1_555
Ir2 Si4 2.449235 1_555
Ir2 Si11 2.462456 1_554
Ir2 Si5 2.496505 1_555
Ir2 Si8 2.527590 1_654
Ir2 Zr0 3.015559 1_555
Ir3 Si6 2.433769 1_555
Ir3 Si13 2.436320 1_655
Ir3 Si1 2.449176 1_555
Ir3 Si11 2.449235 1_555
Ir3 Si3 2.462456 1_655
Ir3 Si9 2.496506 1_555
Ir3 Si0 2.527590 1_645
Ir3 Zr0 3.015560 1_555
Ir4 Si7 2.433769 1_555
Ir4 Si13 2.436321 1_565
Ir4 Si2 2.449177 1_555
Ir4 Si9 2.449235 1_555
Ir4 Si4 2.462456 1_565
Ir4 Si10 2.496505 1_555
Ir4 Si1 2.527590 1_564
Ir4 Zr0 3.015560 1_555
Ir5 Si8 2.433769 1_555
Ir5 Si13 2.436321 1_556
Ir5 Si0 2.449177 1_555
Ir5 Si10 2.449235 1_555
Ir5 Si5 2.462456 1_556
Ir5 Si11 2.496505 1_555
Ir5 Si2 2.527590 1_456
Ir5 Zr0 3.015559 1_555
