# generated using pymatgen
data_RbNa(SiAs)6
_symmetry_space_group_name_H-M   'P 1'
_cell_length_a   3.66783093
_cell_length_b   10.09070846
_cell_length_c   19.11423287
_cell_angle_alpha   86.30624145
_cell_angle_beta   90.00000000
_cell_angle_gamma   90.00000000
_symmetry_Int_Tables_number   1
_chemical_formula_structural   RbNa(SiAs)6
_chemical_formula_sum   'Rb2 Na2 Si12 As12'
_cell_volume   705.96751293
_cell_formula_units_Z   2
loop_
 _symmetry_equiv_pos_site_id
 _symmetry_equiv_pos_as_xyz
  1  'x, y, z'
loop_
 _atom_site_type_symbol
 _atom_site_label
 _atom_site_symmetry_multiplicity
 _atom_site_fract_x
 _atom_site_fract_y
 _atom_site_fract_z
 _atom_site_occupancy
  Rb  Rb0  1  0.00000000  0.31466497  0.29874272  1
  Rb  Rb1  1  0.00000000  0.68533503  0.70125728  1
  Na  Na0  1  0.00000000  0.17469477  0.79965012  1
  Na  Na1  1  0.00000000  0.82530523  0.20034988  1
  Si  Si0  1  0.50000000  0.40052206  0.03392101  1
  Si  Si1  1  0.50000000  0.59947794  0.96607899  1
  Si  Si2  1  0.50000000  0.08807790  0.53644302  1
  Si  Si3  1  0.50000000  0.91192210  0.46355698  1
  Si  Si4  1  0.00000000  0.11086535  0.01236699  1
  Si  Si5  1  0.00000000  0.88913465  0.98763301  1
  Si  Si6  1  0.00000000  0.38689681  0.51706740  1
  Si  Si7  1  0.00000000  0.61310319  0.48293260  1
  Si  Si8  1  0.00000000  0.15728213  0.13026075  1
  Si  Si9  1  0.00000000  0.84271787  0.86973925  1
  Si  Si10  1  0.00000000  0.30749510  0.63569795  1
  Si  Si11  1  0.00000000  0.69250490  0.36430205  1
  As  As0  1  0.50000000  0.08032220  0.19716795  1
  As  As1  1  0.50000000  0.91967780  0.80283205  1
  As  As2  1  0.50000000  0.36860635  0.70243550  1
  As  As3  1  0.50000000  0.63139365  0.29756450  1
  As  As4  1  0.50000000  0.28754978  0.46073296  1
  As  As5  1  0.50000000  0.71245022  0.53926704  1
  As  As6  1  0.50000000  0.22279137  0.95479924  1
  As  As7  1  0.50000000  0.77720863  0.04520076  1
  As  As8  1  0.00000000  0.39708938  0.11269986  1
  As  As9  1  0.00000000  0.60291062  0.88730014  1
  As  As10  1  0.00000000  0.07259209  0.61542850  1
  As  As11  1  0.00000000  0.92740791  0.38457150  1
loop_
_geom_bond_atom_site_label_1
_geom_bond_atom_site_label_2
_geom_bond_distance
_geom_bond_site_symmetry_2
Si0 Si1 2.318750 1_554
Si2 Si3 2.328006 1_545
Si4 Si5 2.316431 1_544
Si4 Si8 2.330966 1_555
Si5 Si9 2.330966 1_555
Si6 Si7 2.333237 1_555
Si10 Si6 2.355752 1_555
Si11 Si7 2.355752 1_555
As0 Si8 2.339635 1_655
As0 Si8 2.339635 1_555
As0 Na1 3.157319 1_545
As0 Na1 3.157319 1_645
As0 Rb0 3.649115 1_655
As0 Rb0 3.649115 1_555
As1 Si9 2.339635 1_555
As1 Si9 2.339635 1_655
As1 Na0 3.157319 1_665
As1 Na0 3.157319 1_565
As1 Rb1 3.649115 1_555
As1 Rb1 3.649115 1_655
As2 Si10 2.339255 1_555
As2 Si10 2.339255 1_655
As2 Na0 3.190033 1_555
As2 Na0 3.190033 1_655
As2 Rb1 3.683613 1_655
As2 Rb1 3.683613 1_555
As3 Si11 2.339255 1_655
As3 Si11 2.339255 1_555
As3 Na1 3.190033 1_555
As3 Na1 3.190033 1_655
As3 Rb0 3.683613 1_655
As3 Rb0 3.683613 1_555
As4 Si6 2.380499 1_555
As4 Si6 2.380499 1_655
As4 Si2 2.402149 1_555
As4 Rb0 3.593904 1_655
As4 Rb0 3.593904 1_555
As5 Si7 2.380499 1_555
As5 Si7 2.380499 1_655
As5 Si3 2.402149 1_555
As5 Rb1 3.593904 1_655
As5 Rb1 3.593904 1_555
As6 Si4 2.385266 1_656
As6 Si4 2.385266 1_556
As6 Si0 2.419311 1_556
As7 Si5 2.385266 1_654
As7 Si5 2.385266 1_554
As7 Si1 2.419311 1_554
As8 Si0 2.371740 1_555
As8 Si0 2.371740 1_455
As8 Si8 2.421480 1_555
As8 Rb0 3.599484 1_555
As9 Si1 2.371740 1_555
As9 Si1 2.371740 1_455
As9 Si9 2.421480 1_555
As9 Rb1 3.599484 1_555
As10 Si2 2.374153 1_555
As10 Si2 2.374153 1_455
As10 Si10 2.426301 1_555
As11 Si3 2.374153 1_555
As11 Si3 2.374153 1_455
As11 Si11 2.426301 1_555
