# generated using pymatgen
data_CdHg3(Sb2O7)2
_symmetry_space_group_name_H-M   'P 1'
_cell_length_a   7.37544818
_cell_length_b   7.30939310
_cell_length_c   7.30939221
_cell_angle_alpha   60.00000400
_cell_angle_beta   60.29582900
_cell_angle_gamma   60.29583688
_symmetry_Int_Tables_number   1
_chemical_formula_structural   CdHg3(Sb2O7)2
_chemical_formula_sum   'Cd1 Hg3 Sb4 O14'
_cell_volume   279.87465146
_cell_formula_units_Z   1
loop_
 _symmetry_equiv_pos_site_id
 _symmetry_equiv_pos_as_xyz
  1  'x, y, z'
loop_
 _atom_site_type_symbol
 _atom_site_label
 _atom_site_symmetry_multiplicity
 _atom_site_fract_x
 _atom_site_fract_y
 _atom_site_fract_z
 _atom_site_occupancy
  Cd  Cd0  1  0.62500000  0.12500000  0.12500000  1
  Hg  Hg0  1  0.12500000  0.62500000  0.12500000  1
  Hg  Hg1  1  0.12500000  0.12500000  0.62500000  1
  Hg  Hg2  1  0.12500000  0.12500000  0.12500000  1
  Sb  Sb0  1  0.12500000  0.62500000  0.62500000  1
  Sb  Sb1  1  0.62500000  0.12500000  0.62500000  1
  Sb  Sb2  1  0.62500000  0.62500000  0.12500000  1
  Sb  Sb3  1  0.62500000  0.62500000  0.62500000  1
  O  O0  1  0.69082048  0.70247244  0.30335354  1
  O  O1  1  0.30668321  0.30452480  0.69439549  1
  O  O2  1  0.69082048  0.30335354  0.70247244  1
  O  O3  1  0.30668321  0.69439549  0.30452480  1
  O  O4  1  0.30668321  0.69439549  0.69439549  1
  O  O5  1  0.69082048  0.30335354  0.30335354  1
  O  O6  1  0.55917952  0.54752756  0.94664646  1
  O  O7  1  0.94331679  0.94547520  0.55560451  1
  O  O8  1  0.55917952  0.94664646  0.54752756  1
  O  O9  1  0.94331679  0.55560451  0.94547520  1
  O  O10  1  0.94331679  0.55560451  0.55560451  1
  O  O11  1  0.55917952  0.94664646  0.94664646  1
  O  O12  1  0.24837019  0.25054327  0.25054327  1
  O  O13  1  0.00162981  0.99945673  0.99945673  1
loop_
_geom_bond_atom_site_label_1
_geom_bond_atom_site_label_2
_geom_bond_distance
_geom_bond_site_symmetry_2
Cd0 O13 2.278164 1_644
Cd0 O12 2.278164 1_555
Cd0 O8 2.566831 1_545
Cd0 O2 2.566831 1_554
Cd0 O11 2.566831 1_544
Cd0 O5 2.566831 1_555
Cd0 O6 2.566832 1_554
Cd0 O0 2.566832 1_545
Hg0 O13 2.238113 1_554
Hg0 O12 2.238113 1_555
Hg0 O3 2.618516 1_555
Hg0 O9 2.618516 1_454
Hg0 O10 2.618522 1_455
Hg0 O4 2.618522 1_554
Hg0 O6 2.660554 1_554
Hg0 O0 2.660554 1_455
Hg1 O13 2.238112 1_545
Hg1 O12 2.238112 1_555
Hg1 O1 2.618516 1_555
Hg1 O7 2.618516 1_445
Hg1 O10 2.618523 1_455
Hg1 O4 2.618523 1_545
Hg1 O8 2.660554 1_545
Hg1 O2 2.660554 1_455
Hg2 O12 2.238112 1_555
Hg2 O13 2.238112 1_544
Hg2 O1 2.618521 1_554
Hg2 O7 2.618521 1_445
Hg2 O9 2.618522 1_454
Hg2 O3 2.618522 1_545
Hg2 O11 2.660554 1_544
Hg2 O5 2.660554 1_455
O0 Sb2 1.973252 1_555
O0 Sb3 1.973252 1_555
O1 Sb0 1.978561 1_555
O1 Sb1 1.980735 1_555
O2 Sb1 1.973252 1_555
O2 Sb3 1.973252 1_555
O3 Sb0 1.978561 1_555
O3 Sb2 1.980735 1_555
O4 Sb0 1.978555 1_555
O4 Sb3 1.980737 1_555
O5 Sb1 1.973252 1_555
O5 Sb2 1.973252 1_555
O6 Sb2 1.973252 1_556
O6 Sb3 1.973252 1_555
O7 Sb0 1.978561 1_655
O7 Sb1 1.980735 1_565
O8 Sb1 1.973252 1_565
O8 Sb3 1.973252 1_555
O9 Sb0 1.978561 1_655
O9 Sb2 1.980735 1_556
O10 Sb0 1.978555 1_655
O10 Sb3 1.980737 1_555
O11 Sb1 1.973252 1_565
O11 Sb2 1.973252 1_556
