# generated using pymatgen
data_CaHf(ReO4)6
_symmetry_space_group_name_H-M   'P 1'
_cell_length_a   9.99456401
_cell_length_b   9.99456263
_cell_length_c   6.00260691
_cell_angle_alpha   90.00000000
_cell_angle_beta   90.00000000
_cell_angle_gamma   119.99999736
_symmetry_Int_Tables_number   1
_chemical_formula_structural   CaHf(ReO4)6
_chemical_formula_sum   'Ca1 Hf1 Re6 O24'
_cell_volume   519.27593330
_cell_formula_units_Z   1
loop_
 _symmetry_equiv_pos_site_id
 _symmetry_equiv_pos_as_xyz
  1  'x, y, z'
loop_
 _atom_site_type_symbol
 _atom_site_label
 _atom_site_symmetry_multiplicity
 _atom_site_fract_x
 _atom_site_fract_y
 _atom_site_fract_z
 _atom_site_occupancy
  Ca  Ca0  1  0.33333300  0.66666700  0.25000000  1
  Hf  Hf0  1  0.66666700  0.33333300  0.75000000  1
  Re  Re0  1  0.07475047  0.38882064  0.75000000  1
  Re  Re1  1  0.40513500  0.29604076  0.25000000  1
  Re  Re2  1  0.61117936  0.68592783  0.75000000  1
  Re  Re3  1  0.89090476  0.59486500  0.25000000  1
  Re  Re4  1  0.31407217  0.92524953  0.75000000  1
  Re  Re5  1  0.70395924  0.10909524  0.25000000  1
  O  O0  1  0.49313315  0.63950393  0.51697640  1
  O  O1  1  0.36049607  0.85362922  0.51697640  1
  O  O2  1  0.80378083  0.70509354  0.25000000  1
  O  O3  1  0.11982991  0.86230682  0.75000000  1
  O  O4  1  0.29490646  0.09868729  0.25000000  1
  O  O5  1  0.13769318  0.25752310  0.75000000  1
  O  O6  1  0.52447155  0.35685098  0.01120699  1
  O  O7  1  0.90131271  0.19621917  0.25000000  1
  O  O8  1  0.08812679  0.71363194  0.25000000  1
  O  O9  1  0.14637078  0.50686685  0.98302360  1
  O  O10  1  0.14637078  0.50686685  0.51697640  1
  O  O11  1  0.87058197  0.29564951  0.75000000  1
  O  O12  1  0.28636806  0.37449484  0.25000000  1
  O  O13  1  0.70435049  0.57493247  0.75000000  1
  O  O14  1  0.83237944  0.47552845  0.48879301  1
  O  O15  1  0.42506753  0.12941803  0.75000000  1
  O  O16  1  0.64314902  0.16762056  0.01120699  1
  O  O17  1  0.49313315  0.63950393  0.98302360  1
  O  O18  1  0.36049607  0.85362922  0.98302360  1
  O  O19  1  0.64314902  0.16762056  0.48879301  1
  O  O20  1  0.52447155  0.35685098  0.48879301  1
  O  O21  1  0.83237944  0.47552845  0.01120699  1
  O  O22  1  0.74247690  0.88017009  0.75000000  1
  O  O23  1  0.62550516  0.91187321  0.25000000  1
loop_
_geom_bond_atom_site_label_1
_geom_bond_atom_site_label_2
_geom_bond_distance
_geom_bond_site_symmetry_2
Ca0 O1 2.371977 1_555
Ca0 O18 2.371977 1_554
Ca0 O10 2.371980 1_555
Ca0 O9 2.371980 1_554
Ca0 O0 2.371985 1_555
Ca0 O17 2.371985 1_554
Ca0 O8 2.716020 1_555
Ca0 O23 2.716026 1_555
Ca0 O12 2.716029 1_555
Hf0 O16 2.206220 1_556
Hf0 O19 2.206220 1_555
Hf0 O21 2.206223 1_556
Hf0 O14 2.206223 1_555
Hf0 O6 2.206228 1_556
Hf0 O20 2.206228 1_555
Hf0 O11 2.250122 1_555
Hf0 O15 2.250128 1_555
Hf0 O13 2.250132 1_555
O0 Re2 1.736761 1_555
O1 Re4 1.736750 1_555
O2 Re3 1.712091 1_555
O3 Re4 1.715625 1_555
O4 Re1 1.712099 1_555
O5 Re0 1.715605 1_555
O6 Re1 1.766816 1_555
O7 Re5 1.712100 1_555
O8 Re3 1.718910 1_455
O9 Re0 1.736759 1_555
O10 Re0 1.736759 1_555
O11 Re0 1.769434 1_655
O12 Re1 1.718902 1_555
O13 Re2 1.769416 1_555
O14 Re3 1.766816 1_555
O15 Re4 1.769433 1_545
O16 Re5 1.766811 1_555
O17 Re2 1.736761 1_555
O18 Re4 1.736750 1_555
O19 Re5 1.766811 1_555
O20 Re1 1.766816 1_555
O21 Re3 1.766816 1_555
O22 Re2 1.715620 1_555
O23 Re5 1.718911 1_565
