# generated using pymatgen
data_La(Mo3Se4)2
_symmetry_space_group_name_H-M   'P 1'
_cell_length_a   6.84882661
_cell_length_b   6.84882661
_cell_length_c   6.84882641
_cell_angle_alpha   88.63767065
_cell_angle_beta   88.63767065
_cell_angle_gamma   88.63766374
_symmetry_Int_Tables_number   1
_chemical_formula_structural   La(Mo3Se4)2
_chemical_formula_sum   'La1 Mo6 Se8'
_cell_volume   320.98579209
_cell_formula_units_Z   1
loop_
 _symmetry_equiv_pos_site_id
 _symmetry_equiv_pos_as_xyz
  1  'x, y, z'
loop_
 _atom_site_type_symbol
 _atom_site_label
 _atom_site_symmetry_multiplicity
 _atom_site_fract_x
 _atom_site_fract_y
 _atom_site_fract_z
 _atom_site_occupancy
  La  La0  1  0.00000000  0.00000000  0.00000000  1
  Mo  Mo0  1  0.76259800  0.43848300  0.57718100  1
  Mo  Mo1  1  0.43848300  0.57718100  0.76259800  1
  Mo  Mo2  1  0.57718100  0.76259800  0.43848300  1
  Mo  Mo3  1  0.42281900  0.23740200  0.56151700  1
  Mo  Mo4  1  0.56151700  0.42281900  0.23740200  1
  Mo  Mo5  1  0.23740200  0.56151700  0.42281900  1
  Se  Se0  1  0.62165200  0.24662900  0.87906100  1
  Se  Se1  1  0.87906100  0.62165300  0.24662900  1
  Se  Se2  1  0.75720900  0.75720900  0.75720900  1
  Se  Se3  1  0.24662900  0.87906100  0.62165300  1
  Se  Se4  1  0.75337100  0.12093900  0.37834700  1
  Se  Se5  1  0.24279100  0.24279100  0.24279100  1
  Se  Se6  1  0.12093900  0.37834700  0.75337100  1
  Se  Se7  1  0.37834800  0.75337100  0.12093900  1
loop_
_geom_bond_atom_site_label_1
_geom_bond_atom_site_label_2
_geom_bond_distance
_geom_bond_site_symmetry_2
La0 Se5 2.947791 1_555
La0 Se2 2.947791 1_444
La0 Se4 3.175072 1_455
La0 Se3 3.175072 1_544
La0 Se6 3.175073 1_554
La0 Se1 3.175073 1_445
La0 Se7 3.175078 1_545
La0 Se0 3.175078 1_454
Mo0 Se2 2.531528 1_555
Mo0 Se4 2.596085 1_555
Mo0 Se0 2.601778 1_555
Mo0 Se1 2.676168 1_555
Mo0 Se6 2.778136 1_655
Mo1 Se2 2.531529 1_555
Mo1 Se6 2.596086 1_555
Mo1 Se3 2.601776 1_555
Mo1 Se0 2.676165 1_555
Mo1 Se7 2.778135 1_556
Mo2 Se2 2.531528 1_555
Mo2 Se7 2.596082 1_555
Mo2 Se1 2.601776 1_555
Mo2 Se3 2.676168 1_555
Mo2 Se4 2.778136 1_565
Mo3 Se5 2.531528 1_555
Mo3 Se0 2.596082 1_555
Mo3 Se6 2.601776 1_555
Mo3 Se4 2.676168 1_555
Mo3 Se3 2.778136 1_545
Mo4 Se5 2.531529 1_555
Mo4 Se1 2.596086 1_555
Mo4 Se4 2.601776 1_555
Mo4 Se7 2.676165 1_555
Mo4 Se0 2.778135 1_554
Mo5 Se5 2.531528 1_555
Mo5 Se3 2.596085 1_555
Mo5 Se7 2.601778 1_555
Mo5 Se6 2.676168 1_555
Mo5 Se1 2.778136 1_455
