# generated using pymatgen
data_SrSc(CuSi)2
_symmetry_space_group_name_H-M   'P 1'
_cell_length_a   4.19166286
_cell_length_b   4.19166267
_cell_length_c   7.44813974
_cell_angle_alpha   90.00000000
_cell_angle_beta   90.00000000
_cell_angle_gamma   120.00000927
_symmetry_Int_Tables_number   1
_chemical_formula_structural   SrSc(CuSi)2
_chemical_formula_sum   'Sr1 Sc1 Cu2 Si2'
_cell_volume   113.33161467
_cell_formula_units_Z   1
loop_
 _symmetry_equiv_pos_site_id
 _symmetry_equiv_pos_as_xyz
  1  'x, y, z'
loop_
 _atom_site_type_symbol
 _atom_site_label
 _atom_site_symmetry_multiplicity
 _atom_site_fract_x
 _atom_site_fract_y
 _atom_site_fract_z
 _atom_site_occupancy
  Sr  Sr0  1  0.00000000  0.00000000  0.00000000  1
  Sc  Sc0  1  0.00000000  0.00000000  0.50000000  1
  Cu  Cu0  1  0.33333300  0.66666700  0.32357386  1
  Cu  Cu1  1  0.66666700  0.33333300  0.67642614  1
  Si  Si0  1  0.66666700  0.33333300  0.30187443  1
  Si  Si1  1  0.33333300  0.66666700  0.69812557  1
loop_
_geom_bond_atom_site_label_1
_geom_bond_atom_site_label_2
_geom_bond_distance
_geom_bond_site_symmetry_2
Sc0 Si1 2.834477 1_545
Sc0 Si0 2.834477 1_455
Sc0 Si1 2.834480 1_555
Sc0 Si0 2.834480 1_445
Sc0 Si1 2.834480 1_445
Sc0 Si0 2.834480 1_555
Cu0 Si0 2.425446 1_565
Cu0 Si0 2.425446 1_455
Cu0 Si0 2.425453 1_555
Cu0 Sc0 2.753795 1_565
Cu0 Sc0 2.753798 1_555
Cu0 Sc0 2.753798 1_665
Cu0 Si1 2.789713 1_555
Cu0 Sr0 3.415389 1_565
Cu0 Sr0 3.415391 1_555
Cu0 Sr0 3.415391 1_665
Cu1 Si1 2.425446 1_545
Cu1 Si1 2.425446 1_655
Cu1 Si1 2.425453 1_555
Cu1 Sc0 2.753795 1_655
Cu1 Sc0 2.753798 1_665
Cu1 Sc0 2.753798 1_555
Cu1 Si0 2.789713 1_555
Cu1 Sr0 3.415389 1_656
Cu1 Sr0 3.415391 1_666
Cu1 Sr0 3.415391 1_556
Si0 Sr0 3.303329 1_655
Si0 Sr0 3.303332 1_665
Si0 Sr0 3.303332 1_555
Si1 Sr0 3.303329 1_566
Si1 Sr0 3.303332 1_556
Si1 Sr0 3.303332 1_666
