# generated using pymatgen
data_Na4Si12(AsP3)3
_symmetry_space_group_name_H-M   'P 1'
_cell_length_a   3.53471598
_cell_length_b   9.85215619
_cell_length_c   17.74266022
_cell_angle_alpha   90.32235692
_cell_angle_beta   90.00000000
_cell_angle_gamma   90.00000000
_symmetry_Int_Tables_number   1
_chemical_formula_structural   Na4Si12(AsP3)3
_chemical_formula_sum   'Na4 Si12 As3 P9'
_cell_volume   617.87080378
_cell_formula_units_Z   1
loop_
 _symmetry_equiv_pos_site_id
 _symmetry_equiv_pos_as_xyz
  1  'x, y, z'
loop_
 _atom_site_type_symbol
 _atom_site_label
 _atom_site_symmetry_multiplicity
 _atom_site_fract_x
 _atom_site_fract_y
 _atom_site_fract_z
 _atom_site_occupancy
  Na  Na0  1  0.00000000  0.33752401  0.30431490  1
  Na  Na1  1  0.00000000  0.65451688  0.70174482  1
  Na  Na2  1  0.00000000  0.17114150  0.80128828  1
  Na  Na3  1  0.00000000  0.82449213  0.19676847  1
  Si  Si0  1  0.50000000  0.40682340  0.03455435  1
  Si  Si1  1  0.50000000  0.59831435  0.95909645  1
  Si  Si2  1  0.50000000  0.09610749  0.53727841  1
  Si  Si3  1  0.50000000  0.90153473  0.46253491  1
  Si  Si4  1  0.00000000  0.11594132  0.01648784  1
  Si  Si5  1  0.00000000  0.88776170  0.98415573  1
  Si  Si6  1  0.00000000  0.38543530  0.51563829  1
  Si  Si7  1  0.00000000  0.61343411  0.48492309  1
  Si  Si8  1  0.00000000  0.17782393  0.14358260  1
  Si  Si9  1  0.00000000  0.82498306  0.85717395  1
  Si  Si10  1  0.00000000  0.32004597  0.64185378  1
  Si  Si11  1  0.00000000  0.67685003  0.35838106  1
  As  As0  1  0.50000000  0.10632790  0.21767892  1
  As  As1  1  0.50000000  0.89312366  0.78220744  1
  As  As2  1  0.00000000  0.42065244  0.12106564  1
  P  P0  1  0.50000000  0.38404676  0.71027728  1
  P  P1  1  0.50000000  0.61179062  0.29025425  1
  P  P2  1  0.50000000  0.28211745  0.45866566  1
  P  P3  1  0.50000000  0.71652679  0.54191045  1
  P  P4  1  0.50000000  0.21676813  0.95864596  1
  P  P5  1  0.50000000  0.78323421  0.03992807  1
  P  P6  1  0.00000000  0.59546558  0.87982074  1
  P  P7  1  0.00000000  0.09100372  0.61655205  1
  P  P8  1  0.00000000  0.90621185  0.38321760  1
loop_
_geom_bond_atom_site_label_1
_geom_bond_atom_site_label_2
_geom_bond_distance
_geom_bond_site_symmetry_2
Na0 P1 3.239570 1_555
Na0 P1 3.239570 1_455
Na0 Si8 3.249298 1_555
Na0 P2 3.307302 1_555
Na0 P2 3.307302 1_455
Na1 P0 3.201830 1_555
Na1 P0 3.201830 1_455
Na1 P6 3.215875 1_555
Na1 Si9 3.220795 1_555
Na1 P3 3.399785 1_555
Na1 P3 3.399785 1_455
Na2 P0 3.188886 1_555
Na2 P0 3.188886 1_455
Na2 Si10 3.193891 1_555
Na2 P4 3.332634 1_455
Na2 P4 3.332634 1_555
Na2 P7 3.367140 1_555
Na3 P1 3.210189 1_455
Na3 P1 3.210189 1_555
Na3 Si11 3.222572 1_555
Na3 P5 3.319614 1_455
Na3 P5 3.319614 1_555
Na3 P8 3.400263 1_555
Si0 Si1 2.319510 1_554
Si2 Si3 2.324824 1_545
Si4 Si5 2.316970 1_544
Si4 Si8 2.332650 1_555
Si5 Si9 2.332992 1_555
Si6 Si7 2.314420 1_555
Si10 Si6 2.333702 1_555
Si11 Si7 2.333887 1_555
As0 Si8 2.314840 1_555
As0 Si8 2.314840 1_655
As0 Na0 3.261177 1_555
As0 Na0 3.261177 1_655
As0 Na3 3.310531 1_545
As0 Na3 3.310531 1_645
As1 Si9 2.313756 1_655
As1 Si9 2.313756 1_555
As1 Na1 3.263451 1_655
As1 Na1 3.263451 1_555
As1 Na2 3.275708 1_665
As1 Na2 3.275708 1_565
As2 Si0 2.344313 1_555
As2 Si0 2.344313 1_455
As2 Si8 2.427729 1_555
As2 Na0 3.357359 1_555
P0 Si10 2.233016 1_555
P0 Si10 2.233016 1_655
P1 Si11 2.233106 1_555
P1 Si11 2.233106 1_655
P2 Si6 2.273744 1_555
P2 Si6 2.273744 1_655
P2 Si2 2.309252 1_555
P3 Si7 2.272873 1_655
P3 Si7 2.272873 1_555
P3 Si3 2.309680 1_555
P4 Si4 2.274867 1_556
P4 Si4 2.274867 1_656
P4 Si0 2.300353 1_556
P5 Si5 2.274810 1_554
P5 Si5 2.274810 1_654
P5 Si1 2.312273 1_554
P6 Si1 2.258830 1_455
P6 Si1 2.258830 1_555
P6 Si9 2.298890 1_555
P7 Si2 2.259467 1_455
P7 Si2 2.259467 1_555
P7 Si10 2.298302 1_555
P8 Si3 2.259845 1_455
P8 Si3 2.259845 1_555
P8 Si11 2.299840 1_555
