# generated using pymatgen
data_BaLuCuSe3
_symmetry_space_group_name_H-M   'P 1'
_cell_length_a   7.31321971
_cell_length_b   7.31322005
_cell_length_c   10.47147747
_cell_angle_alpha   90.00000000
_cell_angle_beta   90.00000000
_cell_angle_gamma   147.24044427
_symmetry_Int_Tables_number   1
_chemical_formula_structural   BaLuCuSe3
_chemical_formula_sum   'Ba2 Lu2 Cu2 Se6'
_cell_volume   303.05020485
_cell_formula_units_Z   2
loop_
 _symmetry_equiv_pos_site_id
 _symmetry_equiv_pos_as_xyz
  1  'x, y, z'
loop_
 _atom_site_type_symbol
 _atom_site_label
 _atom_site_symmetry_multiplicity
 _atom_site_fract_x
 _atom_site_fract_y
 _atom_site_fract_z
 _atom_site_occupancy
  Ba  Ba0  1  0.25251685  0.74748315  0.25000000  1
  Ba  Ba1  1  0.74748315  0.25251685  0.75000000  1
  Lu  Lu0  1  0.00000000  0.00000000  0.50000000  1
  Lu  Lu1  1  0.00000000  0.00000000  0.00000000  1
  Cu  Cu0  1  0.53273849  0.46726151  0.25000000  1
  Cu  Cu1  1  0.46726151  0.53273849  0.75000000  1
  Se  Se0  1  0.63117144  0.36882856  0.44241942  1
  Se  Se1  1  0.36882856  0.63117144  0.55758058  1
  Se  Se2  1  0.63117144  0.36882856  0.05758058  1
  Se  Se3  1  0.36882856  0.63117144  0.94241942  1
  Se  Se4  1  0.93337584  0.06662416  0.25000000  1
  Se  Se5  1  0.06662416  0.93337584  0.75000000  1
loop_
_geom_bond_atom_site_label_1
_geom_bond_atom_site_label_2
_geom_bond_distance
_geom_bond_site_symmetry_2
Ba0 Se4 3.270247 1_565
Ba0 Se4 3.270248 1_455
Ba0 Se0 3.348545 1_455
Ba0 Se2 3.348545 1_455
Ba0 Se0 3.348545 1_565
Ba0 Se2 3.348545 1_565
Ba0 Se1 3.610777 1_555
Ba0 Se3 3.610777 1_554
Ba1 Se5 3.270247 1_545
Ba1 Se5 3.270248 1_655
Ba1 Se3 3.348545 1_655
Ba1 Se1 3.348545 1_655
Ba1 Se3 3.348545 1_545
Ba1 Se1 3.348545 1_545
Ba1 Se2 3.610777 1_556
Ba1 Se0 3.610777 1_555
Lu0 Se5 2.779806 1_545
Lu0 Se4 2.779806 1_455
Lu0 Se0 2.829315 1_555
Lu0 Se1 2.829315 1_445
Lu0 Se1 2.829315 1_555
Lu0 Se0 2.829315 1_445
Lu1 Se4 2.779806 1_455
Lu1 Se5 2.779806 1_544
Lu1 Se2 2.829315 1_555
Lu1 Se3 2.829315 1_444
Lu1 Se3 2.829315 1_554
Lu1 Se2 2.829315 1_445
Cu0 Se0 2.442918 1_555
Cu0 Se2 2.442918 1_555
Cu0 Se4 2.489469 1_455
Cu0 Se4 2.489469 1_565
Cu1 Se3 2.442918 1_555
Cu1 Se1 2.442918 1_555
Cu1 Se5 2.489469 1_655
Cu1 Se5 2.489469 1_545
