# generated using pymatgen
data_Cs5K(Ga2As3)2
_symmetry_space_group_name_H-M   'P 1'
_cell_length_a   6.50522751
_cell_length_b   7.99853389
_cell_length_c   11.18500542
_cell_angle_alpha   69.33362578
_cell_angle_beta   90.00000000
_cell_angle_gamma   90.00000000
_symmetry_Int_Tables_number   1
_chemical_formula_structural   Cs5K(Ga2As3)2
_chemical_formula_sum   'Cs5 K1 Ga4 As6'
_cell_volume   544.53162966
_cell_formula_units_Z   1
loop_
 _symmetry_equiv_pos_site_id
 _symmetry_equiv_pos_as_xyz
  1  'x, y, z'
loop_
 _atom_site_type_symbol
 _atom_site_label
 _atom_site_symmetry_multiplicity
 _atom_site_fract_x
 _atom_site_fract_y
 _atom_site_fract_z
 _atom_site_occupancy
  Cs  Cs0  1  0.75000000  0.14548024  0.85944449  1
  Cs  Cs1  1  0.75000000  0.49491433  0.14445530  1
  Cs  Cs2  1  0.25000000  0.50916334  0.86115552  1
  Cs  Cs3  1  0.75000000  0.61496070  0.50448666  1
  Cs  Cs4  1  0.25000000  0.86442248  0.13524233  1
  K  K0  1  0.25000000  0.35983369  0.49596740  1
  Ga  Ga0  1  0.99978821  0.07104223  0.34810929  1
  Ga  Ga1  1  0.50013662  0.92725388  0.65174245  1
  Ga  Ga2  1  0.50021179  0.07104223  0.34810929  1
  Ga  Ga3  1  0.99986338  0.92725388  0.65174245  1
  As  As0  1  0.25000000  0.82260784  0.50136057  1
  As  As1  1  0.75000000  0.16514551  0.49841505  1
  As  As2  1  0.25000000  0.29826005  0.22655785  1
  As  As3  1  0.75000000  0.70929984  0.78549285  1
  As  As4  1  0.25000000  0.04085717  0.76948913  1
  As  As5  1  0.75000000  0.97846258  0.21823037  1
loop_
_geom_bond_atom_site_label_1
_geom_bond_atom_site_label_2
_geom_bond_distance
_geom_bond_site_symmetry_2
As0 Ga2 2.670568 1_565
As0 Ga0 2.670568 1_465
As0 Ga1 2.677930 1_555
As0 Ga3 2.677930 1_455
As0 Cs3 3.646673 1_455
As0 Cs3 3.646673 1_555
As0 K0 3.723232 1_555
As0 Cs2 3.919059 1_555
As0 Cs4 3.989289 1_555
As1 Ga3 2.626850 1_545
As1 Ga1 2.626850 1_545
As1 Ga0 2.631815 1_555
As1 Ga2 2.631815 1_555
As1 K0 3.602095 1_655
As1 K0 3.602095 1_555
As1 Cs3 3.622387 1_555
As1 Cs1 3.906450 1_555
As1 Cs0 3.985322 1_555
As2 Ga2 2.461027 1_555
As2 Ga0 2.461027 1_455
As2 K0 3.220303 1_555
As2 Cs1 3.588507 1_455
As2 Cs1 3.588507 1_555
As2 Cs2 3.831841 1_554
As3 Ga3 2.465417 1_555
As3 Ga1 2.465417 1_555
As3 Cs3 3.481699 1_555
As3 Cs2 3.591937 1_555
As3 Cs2 3.591937 1_655
As3 Cs1 3.768420 1_556
As4 Ga1 2.460204 1_545
As4 Ga3 2.460204 1_445
As4 K0 3.218610 1_555
As4 Cs0 3.589768 1_555
As4 Cs0 3.589768 1_455
As4 Cs4 3.827843 1_546
As4 Cs2 4.007436 1_545
As4 Cs2 4.218148 1_555
As5 Ga0 2.461375 1_565
As5 Ga2 2.461375 1_565
As5 Cs3 3.483387 1_555
As5 Cs4 3.587582 1_655
As5 Cs4 3.587582 1_555
As5 Cs0 3.755650 1_564
As5 Cs1 3.916487 1_565
As5 Cs1 4.229961 1_555
