# generated using pymatgen
data_KRb3CaCl6
_symmetry_space_group_name_H-M   'P 1'
_cell_length_a   8.91723734
_cell_length_b   8.91723677
_cell_length_c   8.91723728
_cell_angle_alpha   90.54688831
_cell_angle_beta   90.54688824
_cell_angle_gamma   90.54688130
_symmetry_Int_Tables_number   1
_chemical_formula_structural   KRb3CaCl6
_chemical_formula_sum   'K2 Rb6 Ca2 Cl12'
_cell_volume   708.97547603
_cell_formula_units_Z   2
loop_
 _symmetry_equiv_pos_site_id
 _symmetry_equiv_pos_as_xyz
  1  'x, y, z'
loop_
 _atom_site_type_symbol
 _atom_site_label
 _atom_site_symmetry_multiplicity
 _atom_site_fract_x
 _atom_site_fract_y
 _atom_site_fract_z
 _atom_site_occupancy
  K  K0  1  0.25000000  0.25000000  0.25000000  1
  K  K1  1  0.75000000  0.75000000  0.75000000  1
  Rb  Rb0  1  0.37872798  0.12127202  0.75000000  1
  Rb  Rb1  1  0.12127202  0.75000000  0.37872798  1
  Rb  Rb2  1  0.75000000  0.37872798  0.12127202  1
  Rb  Rb3  1  0.62127202  0.87872798  0.25000000  1
  Rb  Rb4  1  0.25000000  0.62127202  0.87872798  1
  Rb  Rb5  1  0.87872798  0.25000000  0.62127202  1
  Ca  Ca0  1  0.00000000  0.00000000  0.00000000  1
  Ca  Ca1  1  0.50000000  0.50000000  0.50000000  1
  Cl  Cl0  1  0.94606878  0.07869338  0.29129134  1
  Cl  Cl1  1  0.07869338  0.29129134  0.94606878  1
  Cl  Cl2  1  0.29129134  0.94606878  0.07869338  1
  Cl  Cl3  1  0.57869338  0.44606878  0.79129134  1
  Cl  Cl4  1  0.79129134  0.57869338  0.44606878  1
  Cl  Cl5  1  0.44606878  0.79129134  0.57869338  1
  Cl  Cl6  1  0.20870866  0.42130662  0.55393122  1
  Cl  Cl7  1  0.42130662  0.55393122  0.20870866  1
  Cl  Cl8  1  0.55393122  0.20870866  0.42130662  1
  Cl  Cl9  1  0.92130662  0.70870866  0.05393122  1
  Cl  Cl10  1  0.05393122  0.92130662  0.70870866  1
  Cl  Cl11  1  0.70870866  0.05393122  0.92130662  1
loop_
_geom_bond_atom_site_label_1
_geom_bond_atom_site_label_2
_geom_bond_distance
_geom_bond_site_symmetry_2
Ca0 Cl1 2.732449 1_554
Ca0 Cl9 2.732449 1_445
Ca0 Cl11 2.732449 1_454
Ca0 Cl2 2.732449 1_545
Ca0 Cl0 2.732449 1_455
Ca0 Cl10 2.732449 1_544
Ca1 Cl8 2.732448 1_555
Ca1 Cl5 2.732448 1_555
Ca1 Cl3 2.732449 1_555
Ca1 Cl7 2.732449 1_555
Ca1 Cl4 2.732449 1_555
Ca1 Cl6 2.732449 1_555
Cl0 K0 3.124926 1_655
Cl0 Rb5 3.364214 1_555
Cl0 Rb3 3.401790 1_545
Cl0 Rb1 3.427471 1_645
Cl0 Rb2 3.553837 1_555
Cl1 K0 3.124926 1_556
Cl1 Rb4 3.364214 1_555
Cl1 Rb5 3.401790 1_455
Cl1 Rb2 3.427471 1_456
Cl1 Rb0 3.553838 1_555
Cl2 K0 3.124926 1_565
Cl2 Rb3 3.364214 1_555
Cl2 Rb4 3.401790 1_554
Cl2 Rb0 3.427471 1_564
Cl2 Rb1 3.553838 1_555
Cl3 K1 3.124926 1_555
Cl3 Rb2 3.364214 1_556
Cl3 Rb0 3.401790 1_555
Cl3 Rb4 3.427471 1_555
Cl3 Rb5 3.553838 1_555
Cl4 K1 3.124926 1_555
Cl4 Rb1 3.364214 1_655
Cl4 Rb2 3.401790 1_555
Cl4 Rb5 3.427471 1_555
Cl4 Rb3 3.553837 1_555
Cl5 K1 3.124926 1_555
Cl5 Rb0 3.364214 1_565
Cl5 Rb1 3.401790 1_555
Cl5 Rb3 3.427471 1_555
Cl5 Rb4 3.553838 1_555
Cl6 K0 3.124926 1_555
Cl6 Rb5 3.364214 1_455
Cl6 Rb4 3.401790 1_555
Cl6 Rb1 3.427471 1_555
Cl6 Rb0 3.553837 1_555
Cl7 K0 3.124926 1_555
Cl7 Rb4 3.364214 1_554
Cl7 Rb3 3.401790 1_555
Cl7 Rb2 3.427471 1_555
Cl7 Rb1 3.553838 1_555
Cl8 K0 3.124926 1_555
Cl8 Rb3 3.364214 1_545
Cl8 Rb5 3.401790 1_555
Cl8 Rb0 3.427471 1_555
Cl8 Rb2 3.553838 1_555
Cl9 K1 3.124926 1_554
Cl9 Rb2 3.364214 1_555
Cl9 Rb1 3.401790 1_655
Cl9 Rb4 3.427471 1_654
Cl9 Rb3 3.553838 1_555
Cl10 K1 3.124926 1_455
Cl10 Rb1 3.364214 1_555
Cl10 Rb0 3.401790 1_565
Cl10 Rb5 3.427471 1_465
Cl10 Rb4 3.553837 1_555
Cl11 K1 3.124926 1_545
Cl11 Rb0 3.364214 1_555
Cl11 Rb2 3.401790 1_556
Cl11 Rb3 3.427471 1_546
Cl11 Rb5 3.553838 1_555
