# generated using pymatgen
data_Cs4TiVBr12
_symmetry_space_group_name_H-M   'P 1'
_cell_length_a   7.71083137
_cell_length_b   7.71078982
_cell_length_c   10.63281007
_cell_angle_alpha   90.00000000
_cell_angle_beta   90.00000000
_cell_angle_gamma   90.00000000
_symmetry_Int_Tables_number   1
_chemical_formula_structural   Cs4TiVBr12
_chemical_formula_sum   'Cs4 Ti1 V1 Br12'
_cell_volume   632.19073528
_cell_formula_units_Z   1
loop_
 _symmetry_equiv_pos_site_id
 _symmetry_equiv_pos_as_xyz
  1  'x, y, z'
loop_
 _atom_site_type_symbol
 _atom_site_label
 _atom_site_symmetry_multiplicity
 _atom_site_fract_x
 _atom_site_fract_y
 _atom_site_fract_z
 _atom_site_occupancy
  Cs  Cs0  1  0.50000000  0.00000000  0.74626133  1
  Cs  Cs1  1  0.00000000  0.50000000  0.25373967  1
  Cs  Cs2  1  0.50000000  0.00000000  0.25373867  1
  Cs  Cs3  1  0.00000000  0.50000000  0.74626033  1
  Ti  Ti0  1  0.00000000  0.00000000  0.00000000  1
  V  V0  1  0.50000000  0.50000000  0.50000000  1
  Br  Br0  1  0.00000000  0.00000000  0.76350745  1
  Br  Br1  1  0.50000000  0.50000000  0.26827234  1
  Br  Br2  1  0.73004518  0.73004818  0.50000000  1
  Br  Br3  1  0.23191835  0.23191635  0.00000000  1
  Br  Br4  1  0.73004518  0.26995182  0.50000000  1
  Br  Br5  1  0.23191835  0.76808365  0.00000000  1
  Br  Br6  1  0.00000000  0.00000000  0.23649255  1
  Br  Br7  1  0.50000000  0.50000000  0.73172766  1
  Br  Br8  1  0.26995482  0.26995182  0.50000000  1
  Br  Br9  1  0.76808165  0.76808365  0.00000000  1
  Br  Br10  1  0.26995482  0.73004818  0.50000000  1
  Br  Br11  1  0.76808165  0.23191635  0.00000000  1
loop_
_geom_bond_atom_site_label_1
_geom_bond_atom_site_label_2
_geom_bond_distance
_geom_bond_site_symmetry_2
Br0 Ti0 2.514580 1_556
Br0 Cs3 3.859754 1_545
Br0 Cs3 3.859754 1_555
Br0 Cs0 3.859774 1_555
Br0 Cs0 3.859774 1_455
Br1 V0 2.463916 1_555
Br1 Cs2 3.858491 1_565
Br1 Cs2 3.858491 1_555
Br1 Cs1 3.858511 1_655
Br1 Cs1 3.858511 1_555
Br2 V0 2.508598 1_555
Br2 Cs0 3.786239 1_565
Br2 Cs2 3.786239 1_565
Br2 Cs3 3.786257 1_655
Br2 Cs1 3.786257 1_655
Br3 Ti0 2.528997 1_555
Br3 Cs2 3.840555 1_555
Br3 Cs0 3.840555 1_554
Br3 Cs1 3.840577 1_555
Br3 Cs3 3.840577 1_554
Br4 V0 2.508598 1_555
Br4 Cs0 3.786239 1_555
Br4 Cs2 3.786239 1_555
Br4 Cs3 3.786257 1_655
Br4 Cs1 3.786257 1_655
Br5 Ti0 2.528997 1_565
Br5 Cs2 3.840555 1_565
Br5 Cs0 3.840555 1_564
Br5 Cs1 3.840577 1_555
Br5 Cs3 3.840577 1_554
Br6 Ti0 2.514580 1_555
Br6 Cs1 3.859754 1_555
Br6 Cs1 3.859754 1_545
Br6 Cs2 3.859774 1_555
Br6 Cs2 3.859774 1_455
Br7 V0 2.463916 1_555
Br7 Cs0 3.858491 1_565
Br7 Cs0 3.858491 1_555
Br7 Cs3 3.858511 1_655
Br7 Cs3 3.858511 1_555
Br8 V0 2.508598 1_555
Br8 Cs0 3.786239 1_555
Br8 Cs2 3.786239 1_555
Br8 Cs3 3.786257 1_555
Br8 Cs1 3.786257 1_555
Br9 Ti0 2.528997 1_665
Br9 Cs2 3.840555 1_565
Br9 Cs0 3.840555 1_564
Br9 Cs1 3.840577 1_655
Br9 Cs3 3.840577 1_654
Br10 V0 2.508598 1_555
Br10 Cs0 3.786239 1_565
Br10 Cs2 3.786239 1_565
Br10 Cs3 3.786257 1_555
Br10 Cs1 3.786257 1_555
Br11 Ti0 2.528997 1_655
Br11 Cs2 3.840555 1_555
Br11 Cs0 3.840555 1_554
Br11 Cs1 3.840577 1_655
Br11 Cs3 3.840577 1_654
