# generated using pymatgen
data_Na4(BSe)9
_symmetry_space_group_name_H-M   'P 1'
_cell_length_a   16.32321654
_cell_length_b   11.01719992
_cell_length_c   11.58600331
_cell_angle_alpha   61.93129141
_cell_angle_beta   90.00000000
_cell_angle_gamma   90.00000000
_symmetry_Int_Tables_number   1
_chemical_formula_structural   Na4(BSe)9
_chemical_formula_sum   'Na16 B36 Se36'
_cell_volume   1838.51946171
_cell_formula_units_Z   4
loop_
 _symmetry_equiv_pos_site_id
 _symmetry_equiv_pos_as_xyz
  1  'x, y, z'
loop_
 _atom_site_type_symbol
 _atom_site_label
 _atom_site_symmetry_multiplicity
 _atom_site_fract_x
 _atom_site_fract_y
 _atom_site_fract_z
 _atom_site_occupancy
  Na  Na0  1  0.57747771  0.81118628  0.20484924  1
  Na  Na1  1  0.07747771  0.18881372  0.29515076  1
  Na  Na2  1  0.42252229  0.18881372  0.79515076  1
  Na  Na3  1  0.92252229  0.81118628  0.70484924  1
  Na  Na4  1  0.33997158  0.53096581  0.43684673  1
  Na  Na5  1  0.83997158  0.46903419  0.06315327  1
  Na  Na6  1  0.66002842  0.46903419  0.56315327  1
  Na  Na7  1  0.16002842  0.53096581  0.93684673  1
  Na  Na8  1  0.75752096  0.06346088  0.23731480  1
  Na  Na9  1  0.25752096  0.93653912  0.26268520  1
  Na  Na10  1  0.24247904  0.93653912  0.76268520  1
  Na  Na11  1  0.74247904  0.06346088  0.73731480  1
  Na  Na12  1  0.37704878  0.03009146  0.46000012  1
  Na  Na13  1  0.87704878  0.96990854  0.03999988  1
  Na  Na14  1  0.62295122  0.96990854  0.53999988  1
  Na  Na15  1  0.12295122  0.03009146  0.96000012  1
  B  B0  1  0.51092771  0.49937527  0.85458506  1
  B  B1  1  0.01092771  0.50062473  0.64541494  1
  B  B2  1  0.48907229  0.50062473  0.14541494  1
  B  B3  1  0.98907229  0.49937527  0.35458506  1
  B  B4  1  0.86351817  0.17445336  0.49017893  1
  B  B5  1  0.36351817  0.82554664  0.00982107  1
  B  B6  1  0.13648183  0.82554664  0.50982107  1
  B  B7  1  0.63648183  0.17445336  0.99017893  1
  B  B8  1  0.56572233  0.61709040  0.89197537  1
  B  B9  1  0.06572233  0.38290960  0.60802463  1
  B  B10  1  0.43427767  0.38290960  0.10802463  1
  B  B11  1  0.93427767  0.61709040  0.39197537  1
  B  B12  1  0.72507649  0.72055442  0.94014887  1
  B  B13  1  0.22507649  0.27944558  0.55985113  1
  B  B14  1  0.27492351  0.27944558  0.05985113  1
  B  B15  1  0.77492351  0.72055442  0.44014887  1
  B  B16  1  0.58389785  0.53747459  0.06155115  1
  B  B17  1  0.08389785  0.46252541  0.43844885  1
  B  B18  1  0.41610215  0.46252541  0.93844885  1
  B  B19  1  0.91610215  0.53747459  0.56155115  1
  B  B20  1  0.50144537  0.65561357  0.99481322  1
  B  B21  1  0.00144537  0.34438643  0.50518678  1
  B  B22  1  0.49855463  0.34438643  0.00518678  1
  B  B23  1  0.99855463  0.65561357  0.49481322  1
  B  B24  1  0.54187587  0.36901607  0.13192722  1
  B  B25  1  0.04187587  0.63098393  0.36807278  1
  B  B26  1  0.45812413  0.63098393  0.86807278  1
  B  B27  1  0.95812413  0.36901607  0.63192722  1
  B  B28  1  0.58972237  0.43995211  0.97530704  1
  B  B29  1  0.08972237  0.56004789  0.52469296  1
  B  B30  1  0.41027763  0.56004789  0.02469296  1
  B  B31  1  0.91027763  0.43995211  0.47530704  1
  B  B32  1  0.55447225  0.30270418  0.41388167  1
  B  B33  1  0.05447225  0.69729582  0.08611833  1
  B  B34  1  0.44552775  0.69729582  0.58611833  1
  B  B35  1  0.94552775  0.30270418  0.91388167  1
  Se  Se0  1  0.57730957  0.20697561  0.59836490  1
  Se  Se1  1  0.07730957  0.79302439  0.90163510  1
  Se  Se2  1  0.42269043  0.79302439  0.40163510  1
  Se  Se3  1  0.92269043  0.20697561  0.09836490  1
  Se  Se4  1  0.69700044  0.01816696  0.00737240  1
  Se  Se5  1  0.19700044  0.98183304  0.49262760  1
  Se  Se6  1  0.30299956  0.98183304  0.99262760  1
  Se  Se7  1  0.80299956  0.01816696  0.50737240  1
  Se  Se8  1  0.50602930  0.51988121  0.67215920  1
  Se  Se9  1  0.00602930  0.48011879  0.82784080  1
  Se  Se10  1  0.49397070  0.48011879  0.32784080  1
  Se  Se11  1  0.99397070  0.51988121  0.17215920  1
  Se  Se12  1  0.66728216  0.79822623  0.41637028  1
  Se  Se13  1  0.16728216  0.20177377  0.08362972  1
  Se  Se14  1  0.33271784  0.20177377  0.58362972  1
  Se  Se15  1  0.83271784  0.79822623  0.91637028  1
  Se  Se16  1  0.69003858  0.34990878  0.95188729  1
  Se  Se17  1  0.19003858  0.65009122  0.54811271  1
  Se  Se18  1  0.30996142  0.65009122  0.04811271  1
  Se  Se19  1  0.80996142  0.34990878  0.45188729  1
  Se  Se20  1  0.68564270  0.59578723  0.11829118  1
  Se  Se21  1  0.18564270  0.40421277  0.38170882  1
  Se  Se22  1  0.31435730  0.40421277  0.88170882  1
  Se  Se23  1  0.81435730  0.59578723  0.61829118  1
  Se  Se24  1  0.58881329  0.22450337  0.29951125  1
  Se  Se25  1  0.08881329  0.77549663  0.20048875  1
  Se  Se26  1  0.41118671  0.77549663  0.70048875  1
  Se  Se27  1  0.91118671  0.22450337  0.79951125  1
  Se  Se28  1  0.65761926  0.74243114  0.79091023  1
  Se  Se29  1  0.15761926  0.25756886  0.70908977  1
  Se  Se30  1  0.34238074  0.25756886  0.20908977  1
  Se  Se31  1  0.84238074  0.74243114  0.29091023  1
  Se  Se32  1  0.51651849  0.15825407  0.01887600  1
  Se  Se33  1  0.01651849  0.84174593  0.48112400  1
  Se  Se34  1  0.48348151  0.84174593  0.98112400  1
  Se  Se35  1  0.98348151  0.15825407  0.51887600  1
loop_
_geom_bond_atom_site_label_1
_geom_bond_atom_site_label_2
_geom_bond_distance
_geom_bond_site_symmetry_2
Na0 Se12 2.801035 1_555
Na0 Se34 2.892250 1_554
Na0 Se4 3.054720 1_565
Na0 Se2 3.345562 1_555
Na0 Se20 3.463275 1_555
Na0 Se10 3.507311 1_555
Na0 Se32 3.535575 1_565
Na1 Se13 2.801035 1_555
Na1 Se35 2.892250 1_455
Na1 Se5 3.054720 1_545
Na1 Se3 3.345562 1_455
Na1 Se21 3.463275 1_555
Na1 Se11 3.507311 1_455
Na1 Se33 3.535575 1_545
Na2 Se14 2.801035 1_555
Na2 Se32 2.892250 1_556
Na2 Se6 3.054720 1_545
Na2 Se0 3.345562 1_555
Na2 Se22 3.463275 1_555
Na2 Se8 3.507311 1_555
Na2 Se34 3.535575 1_545
Na3 Se15 2.801035 1_555
Na3 Se33 2.892250 1_655
Na3 Se7 3.054720 1_565
Na3 Se1 3.345562 1_655
Na3 Se23 3.463275 1_555
Na3 Se9 3.507311 1_655
Na3 Se35 3.535575 1_565
Na4 Se10 2.982218 1_555
Na4 Se2 3.035917 1_555
Na4 Se21 3.089307 1_555
Na4 Se14 3.202403 1_555
Na4 Se17 3.311525 1_555
Na5 Se11 2.982218 1_555
Na5 Se3 3.035917 1_555
Na5 Se20 3.089307 1_555
Na5 Se15 3.202403 1_554
Na5 Se16 3.311525 1_554
Na6 Se8 2.982218 1_555
Na6 Se0 3.035917 1_555
Na6 Se23 3.089307 1_555
Na6 Se12 3.202403 1_555
Na6 Se19 3.311525 1_555
Na7 Se9 2.982218 1_555
Na7 Se1 3.035917 1_555
Na7 Se22 3.089307 1_555
Na7 Se13 3.202403 1_556
Na7 Se18 3.311525 1_556
Na8 Se7 3.020053 1_555
Na8 Se12 3.050823 1_545
Na8 Se4 3.094109 1_555
Na8 Se3 3.156773 1_555
Na9 Se6 3.020053 1_554
Na9 Se13 3.050823 1_565
Na9 Se5 3.094109 1_555
Na9 Se2 3.156773 1_555
Na10 Se5 3.020053 1_555
Na10 Se14 3.050823 1_565
Na10 Se6 3.094109 1_555
Na10 Se1 3.156773 1_555
Na11 Se4 3.020053 1_556
Na11 Se15 3.050823 1_545
Na11 Se7 3.094109 1_555
Na11 Se0 3.156773 1_555
Na12 Se30 2.862847 1_555
Na12 Se26 2.930335 1_545
Na12 Se14 2.950005 1_555
Na12 Se5 2.978921 1_545
Na12 Se2 3.081551 1_545
Na13 Se31 2.862847 1_555
Na13 Se27 2.930335 1_564
Na13 Se15 2.950005 1_554
Na13 Se4 2.978921 1_565
Na13 Se3 3.081551 1_565
Na14 Se28 2.862847 1_555
Na14 Se24 2.930335 1_565
Na14 Se12 2.950005 1_555
Na14 Se7 2.978921 1_565
Na14 Se0 3.081551 1_565
Na15 Se29 2.862847 1_555
Na15 Se25 2.930335 1_546
Na15 Se13 2.950005 1_556
Na15 Se6 2.978921 1_545
Na15 Se1 3.081551 1_545
B0 B26 1.755831 1_555
B0 B18 1.770187 1_555
B0 B28 1.782546 1_555
B0 B22 1.788082 1_556
B0 B8 1.788377 1_555
B0 Se8 2.018744 1_555
B1 B27 1.755831 1_455
B1 B19 1.770187 1_455
B1 B29 1.782546 1_555
B1 B23 1.788082 1_455
B1 B9 1.788377 1_555
B1 Se9 2.018744 1_555
B2 B24 1.755831 1_555
B2 B30 1.782546 1_555
B2 B20 1.788082 1_554
B2 Se10 2.018744 1_555
B3 B31 1.782546 1_555
B3 Se11 2.018744 1_555
B4 Se7 1.912458 1_555
B4 Se19 1.972470 1_555
B4 Se35 1.980165 1_555
B5 Se6 1.912458 1_554
B5 Se18 1.972470 1_555
B5 Se34 1.980165 1_554
B6 Se5 1.912458 1_555
B6 Se17 1.972470 1_555
B6 Se33 1.980165 1_555
B7 Se4 1.912458 1_556
B7 Se16 1.972470 1_555
B7 Se32 1.980165 1_556
B8 Se28 2.001626 1_555
B9 Se29 2.001626 1_555
B10 B18 1.759464 1_554
B10 B30 1.766663 1_555
B10 B24 1.773413 1_555
B10 B22 1.782265 1_555
B10 B2 1.788377 1_555
B10 Se30 2.001626 1_555
B11 B19 1.759464 1_555
B11 B31 1.766663 1_555
B11 B25 1.773413 1_655
B11 B23 1.782265 1_555
B11 B3 1.788377 1_555
B11 Se31 2.001626 1_555
B12 Se15 1.916650 1_555
B12 Se28 1.966746 1_555
B12 Se20 1.973289 1_556
B12 Na5 3.083943 1_556
B13 Se14 1.916650 1_555
B13 Se29 1.966746 1_555
B13 Se21 1.973289 1_555
B13 Na4 3.083943 1_555
B14 Se13 1.916650 1_555
B14 Se30 1.966746 1_555
B14 Se22 1.973289 1_554
B14 Na7 3.083943 1_554
B15 Se12 1.916650 1_555
B15 Se31 1.966746 1_555
B15 Se23 1.973289 1_555
B15 Na6 3.083943 1_555
B16 B8 1.759464 1_554
B16 B2 1.770187 1_555
B16 B24 1.776447 1_555
B16 B20 1.776591 1_554
B16 B28 1.781065 1_554
B16 Se20 2.000151 1_555
B17 B9 1.759464 1_555
B17 B3 1.770187 1_455
B17 B25 1.776447 1_555
B17 B21 1.776591 1_555
B17 B29 1.781065 1_555
B17 Se21 2.000151 1_555
B18 B26 1.776447 1_555
B18 B22 1.776591 1_556
B18 B30 1.781065 1_556
B18 Se22 2.000151 1_555
B19 B27 1.776447 1_555
B19 B23 1.776591 1_555
B19 B31 1.781065 1_555
B19 Se23 2.000151 1_555
B20 B30 1.760670 1_556
B20 B26 1.762071 1_555
B20 B8 1.782265 1_555
B20 Se34 2.002564 1_555
B21 B31 1.760670 1_455
B21 B27 1.762071 1_455
B21 B9 1.782265 1_555
B21 B3 1.788082 1_455
B21 Se35 2.002564 1_455
B22 B28 1.760670 1_554
B22 B24 1.762071 1_555
B22 Se32 2.002564 1_555
B23 B29 1.760670 1_655
B23 B25 1.762071 1_655
B23 Se33 2.002564 1_655
B24 B28 1.782966 1_554
B24 Se24 1.995667 1_555
B25 B3 1.755831 1_455
B25 B29 1.782966 1_555
B25 Se25 1.995667 1_555
B26 B8 1.773413 1_555
B26 B30 1.782966 1_556
B26 Se26 1.995667 1_555
B27 B9 1.773413 1_655
B27 B31 1.782966 1_555
B27 Se27 1.995667 1_555
B28 B8 1.766663 1_555
B28 Se16 1.998100 1_555
B29 B9 1.766663 1_555
B29 Se17 1.998100 1_555
B30 Se18 1.998100 1_555
B31 Se19 1.998100 1_555
B32 Se0 1.923138 1_555
B32 Se24 1.971480 1_555
B32 Se10 1.988950 1_555
B33 Se1 1.923138 1_554
B33 Se25 1.971480 1_555
B33 Se11 1.988950 1_455
B34 Se2 1.923138 1_555
B34 Se26 1.971480 1_555
B34 Se8 1.988950 1_555
B35 Se3 1.923138 1_556
B35 Se27 1.971480 1_555
B35 Se9 1.988950 1_655
