# generated using pymatgen
data_LuSc5TeO12
_symmetry_space_group_name_H-M   'P 1'
_cell_length_a   6.16568089
_cell_length_b   6.09189652
_cell_length_c   6.12547143
_cell_angle_alpha   98.84614962
_cell_angle_beta   98.84683010
_cell_angle_gamma   99.21974439
_symmetry_Int_Tables_number   1
_chemical_formula_structural   LuSc5TeO12
_chemical_formula_sum   'Lu1 Sc5 Te1 O12'
_cell_volume   220.61596789
_cell_formula_units_Z   1
loop_
 _symmetry_equiv_pos_site_id
 _symmetry_equiv_pos_as_xyz
  1  'x, y, z'
loop_
 _atom_site_type_symbol
 _atom_site_label
 _atom_site_symmetry_multiplicity
 _atom_site_fract_x
 _atom_site_fract_y
 _atom_site_fract_z
 _atom_site_occupancy
  Lu  Lu0  1  0.13980704  0.31675153  0.61207667  1
  Sc  Sc0  1  0.85638837  0.67853055  0.38772417  1
  Sc  Sc1  1  0.60638390  0.14551973  0.32436706  1
  Sc  Sc2  1  0.67370083  0.39210335  0.85400306  1
  Sc  Sc3  1  0.32893216  0.60996670  0.14784658  1
  Sc  Sc4  1  0.39523746  0.85360704  0.67309977  1
  Te  Te0  1  0.99888793  0.99810166  0.00005441  1
  O  O0  1  0.95139699  0.07783157  0.30285518  1
  O  O1  1  0.91052140  0.69174360  0.03590500  1
  O  O2  1  0.81583475  0.41579479  0.57539097  1
  O  O3  1  0.69764063  0.04087715  0.90863005  1
  O  O4  1  0.59009143  0.42154497  0.17563427  1
  O  O5  1  0.57974375  0.82071084  0.41026459  1
  O  O6  1  0.42856144  0.17453726  0.58855988  1
  O  O7  1  0.41361822  0.58028273  0.82567912  1
  O  O8  1  0.30198310  0.95903716  0.09212756  1
  O  O9  1  0.17732152  0.59642917  0.42131802  1
  O  O10  1  0.08862881  0.30666907  0.96882725  1
  O  O11  1  0.04532127  0.91996112  0.69563837  1
loop_
_geom_bond_atom_site_label_1
_geom_bond_atom_site_label_2
_geom_bond_distance
_geom_bond_site_symmetry_2
Lu0 O6 2.115607 1_555
Lu0 O2 2.166662 1_455
Lu0 O9 2.211525 1_555
Lu0 O7 2.223832 1_555
Lu0 O0 2.233631 1_455
Lu0 O10 2.264045 1_555
Lu0 O11 2.542691 1_545
O0 Te0 1.922881 1_545
O0 Sc1 2.250142 1_555
O0 Sc0 2.560559 1_545
O1 Te0 1.914465 1_555
O1 Sc2 2.173825 1_554
O1 Sc0 2.242352 1_555
O2 Sc2 2.048577 1_555
O2 Sc0 2.114670 1_555
O2 Sc1 2.161526 1_555
O3 Te0 1.926519 1_546
O3 Sc4 2.200947 1_545
O3 Sc2 2.240089 1_555
O3 Sc1 2.695260 1_556
O4 Sc1 2.040777 1_555
O4 Sc2 2.100648 1_554
O4 Sc3 2.123065 1_555
O4 Sc0 2.174670 1_555
O5 Sc0 2.046405 1_555
O5 Sc1 2.112282 1_565
O5 Sc4 2.112712 1_555
O5 Sc3 2.141962 1_555
O6 Sc4 2.085206 1_545
O6 Sc1 2.090962 1_555
O6 Sc2 2.150406 1_555
O7 Sc4 2.040910 1_555
O7 Sc3 2.106466 1_556
O7 Sc2 2.116700 1_555
O8 Te0 1.930463 1_455
O8 Sc1 2.198930 1_565
O8 Sc3 2.232736 1_555
O8 Sc4 2.719655 1_554
O9 Sc3 2.046009 1_555
O9 Sc0 2.105132 1_455
O9 Sc4 2.140878 1_555
O10 Te0 1.919921 1_446
O10 Sc3 2.193498 1_556
O10 Sc2 2.701172 1_455
O11 Te0 1.928862 1_456
O11 Sc0 2.235974 1_455
O11 Sc4 2.278388 1_555
