# generated using pymatgen
data_Cs3Lu(AsSe2)6
_symmetry_space_group_name_H-M   'P 1'
_cell_length_a   9.93650275
_cell_length_b   9.93650162
_cell_length_c   8.67158219
_cell_angle_alpha   90.00000000
_cell_angle_beta   90.00000000
_cell_angle_gamma   119.99999402
_symmetry_Int_Tables_number   1
_chemical_formula_structural   Cs3Lu(AsSe2)6
_chemical_formula_sum   'Cs3 Lu1 As6 Se12'
_cell_volume   741.47423902
_cell_formula_units_Z   1
loop_
 _symmetry_equiv_pos_site_id
 _symmetry_equiv_pos_as_xyz
  1  'x, y, z'
loop_
 _atom_site_type_symbol
 _atom_site_label
 _atom_site_symmetry_multiplicity
 _atom_site_fract_x
 _atom_site_fract_y
 _atom_site_fract_z
 _atom_site_occupancy
  Cs  Cs0  1  0.00000000  0.00000000  0.00000000  1
  Cs  Cs1  1  0.33333300  0.66666700  0.85323150  1
  Cs  Cs2  1  0.66666700  0.33333300  0.14676850  1
  Lu  Lu0  1  0.00000000  0.00000000  0.50000000  1
  As  As0  1  0.28668353  0.83597051  0.39800682  1
  As  As1  1  0.16402949  0.45071402  0.39800682  1
  As  As2  1  0.54928598  0.71331647  0.39800682  1
  As  As3  1  0.71331647  0.16402949  0.60199318  1
  As  As4  1  0.83597051  0.54928598  0.60199318  1
  As  As5  1  0.45071402  0.28668353  0.60199318  1
  Se  Se0  1  0.25099321  0.04101489  0.31355675  1
  Se  Se1  1  0.95898511  0.20997932  0.31355675  1
  Se  Se2  1  0.79002068  0.74900679  0.31355675  1
  Se  Se3  1  0.74900679  0.95898511  0.68644325  1
  Se  Se4  1  0.04101489  0.79002068  0.68644325  1
  Se  Se5  1  0.20997932  0.25099321  0.68644325  1
  Se  Se6  1  0.52285008  0.90606505  0.24670812  1
  Se  Se7  1  0.09393495  0.61678403  0.24670812  1
  Se  Se8  1  0.38321597  0.47714992  0.24670812  1
  Se  Se9  1  0.47714992  0.09393495  0.75329188  1
  Se  Se10  1  0.90606505  0.38321597  0.75329188  1
  Se  Se11  1  0.61678403  0.52285008  0.75329188  1
loop_
_geom_bond_atom_site_label_1
_geom_bond_atom_site_label_2
_geom_bond_distance
_geom_bond_site_symmetry_2
Cs0 Se0 3.572510 1_555
Cs0 Se3 3.572510 1_444
Cs0 Se5 3.572513 1_554
Cs0 Se2 3.572513 1_445
Cs0 Se1 3.572516 1_455
Cs0 Se4 3.572516 1_544
Cs1 Se9 3.840682 1_565
Cs1 Se11 3.840682 1_555
Cs1 Se10 3.840683 1_455
Cs1 Se4 3.948570 1_555
Cs1 Se3 3.948584 1_555
Cs1 Se5 3.948588 1_555
Cs1 Se7 4.045663 1_556
Cs1 Se6 4.045666 1_556
Cs1 Se8 4.045673 1_556
Cs2 Se6 3.840682 1_545
Cs2 Se8 3.840682 1_555
Cs2 Se7 3.840683 1_655
Cs2 Se1 3.948570 1_555
Cs2 Se0 3.948584 1_555
Cs2 Se2 3.948588 1_555
Cs2 Se10 4.045663 1_554
Cs2 Se9 4.045666 1_554
Cs2 Se11 4.045673 1_554
Lu0 Se3 2.825526 1_445
Lu0 Se0 2.825526 1_555
Lu0 Se5 2.825529 1_555
Lu0 Se2 2.825529 1_445
Lu0 Se4 2.825533 1_545
Lu0 Se1 2.825533 1_455
As0 Se0 2.352806 1_565
As0 Se7 2.441651 1_555
As0 Se6 2.465535 1_555
As1 Se1 2.352806 1_455
As1 Se8 2.441658 1_555
As1 Se7 2.465519 1_555
As2 Se2 2.352806 1_555
As2 Se6 2.441641 1_555
As2 Se8 2.465531 1_555
As3 Se3 2.352806 1_545
As3 Se10 2.441651 1_555
As3 Se9 2.465535 1_555
As4 Se4 2.352806 1_655
As4 Se11 2.441658 1_555
As4 Se10 2.465519 1_555
As5 Se5 2.352806 1_555
As5 Se9 2.441641 1_555
As5 Se11 2.465531 1_555
