# generated using pymatgen
data_CsCu(AuSe)2
_symmetry_space_group_name_H-M   'P 1'
_cell_length_a   6.40253051
_cell_length_b   5.72381803
_cell_length_c   6.14191490
_cell_angle_alpha   87.16043360
_cell_angle_beta   90.00000009
_cell_angle_gamma   124.00660832
_symmetry_Int_Tables_number   1
_chemical_formula_structural   CsCu(AuSe)2
_chemical_formula_sum   'Cs1 Cu1 Au2 Se2'
_cell_volume   186.25365936
_cell_formula_units_Z   1
loop_
 _symmetry_equiv_pos_site_id
 _symmetry_equiv_pos_as_xyz
  1  'x, y, z'
loop_
 _atom_site_type_symbol
 _atom_site_label
 _atom_site_symmetry_multiplicity
 _atom_site_fract_x
 _atom_site_fract_y
 _atom_site_fract_z
 _atom_site_occupancy
  Cs  Cs0  1  0.00000000  0.00000000  0.50000000  1
  Cu  Cu0  1  0.50000000  0.00000000  0.00000000  1
  Au  Au0  1  0.00000000  0.50000000  0.00000000  1
  Au  Au1  1  0.50000000  0.50000000  0.00000000  1
  Se  Se0  1  0.34674776  0.69349752  0.72643885  1
  Se  Se1  1  0.65325224  0.30650248  0.27356115  1
loop_
_geom_bond_atom_site_label_1
_geom_bond_atom_site_label_2
_geom_bond_distance
_geom_bond_site_symmetry_2
Cs0 Se0 3.648159 1_555
Cs0 Se1 3.648159 1_445
Cs0 Se0 3.749080 1_545
Cs0 Se1 3.749080 1_455
Cs0 Se1 3.749091 1_555
Cs0 Se0 3.749091 1_445
Cu0 Se1 2.286949 1_555
Cu0 Se0 2.286949 1_544
Au0 Se0 2.458377 1_554
Au0 Se1 2.458377 1_455
Au0 Cu0 2.861909 1_455
Au0 Cu0 2.861909 1_565
Au1 Se1 2.458386 1_555
Au1 Se0 2.458386 1_554
Au1 Cu0 2.861909 1_555
Au1 Cu0 2.861909 1_565
