# generated using pymatgen
data_Lu4BSe3
_symmetry_space_group_name_H-M   'P 1'
_cell_length_a   6.82485194
_cell_length_b   6.82485108
_cell_length_c   6.82485164
_cell_angle_alpha   132.35227091
_cell_angle_beta   132.35226670
_cell_angle_gamma   69.67321646
_symmetry_Int_Tables_number   1
_chemical_formula_structural   Lu4BSe3
_chemical_formula_sum   'Lu4 B1 Se3'
_cell_volume   170.28371987
_cell_formula_units_Z   1
loop_
 _symmetry_equiv_pos_site_id
 _symmetry_equiv_pos_as_xyz
  1  'x, y, z'
loop_
 _atom_site_type_symbol
 _atom_site_label
 _atom_site_symmetry_multiplicity
 _atom_site_fract_x
 _atom_site_fract_y
 _atom_site_fract_z
 _atom_site_occupancy
  Lu  Lu0  1  0.21842188  0.21842188  0.00000000  1
  Lu  Lu1  1  0.78157812  0.78157812  1.00000000  1
  Lu  Lu2  1  0.50000000  0.00000000  0.50000000  1
  Lu  Lu3  1  0.00000000  0.50000000  0.50000000  1
  B  B0  1  0.00000000  0.00000000  0.00000000  1
  Se  Se0  1  0.75000000  0.25000000  0.50000000  1
  Se  Se1  1  0.25000000  0.75000000  0.50000000  1
  Se  Se2  1  0.50000000  0.50000000  0.00000000  1
loop_
_geom_bond_atom_site_label_1
_geom_bond_atom_site_label_2
_geom_bond_distance
_geom_bond_site_symmetry_2
Lu0 Se1 2.779346 1_555
Lu0 Se1 2.779346 1_544
Lu0 Se0 2.779346 1_454
Lu0 Se0 2.779346 1_555
Lu0 Se2 3.154650 1_555
Lu1 Se0 2.779346 1_555
Lu1 Se0 2.779346 1_566
Lu1 Se1 2.779346 1_656
Lu1 Se1 2.779346 1_555
Lu1 Se2 3.154650 1_556
Lu2 Se2 2.756737 1_545
Lu2 Se2 2.756737 1_556
Lu2 Se0 2.800866 1_555
Lu2 Se1 2.800866 1_545
Lu3 Se2 2.756738 1_556
Lu3 Se2 2.756738 1_455
Lu3 Se0 2.800866 1_455
Lu3 Se1 2.800866 1_555
B0 Lu0 2.447081 1_555
B0 Lu1 2.447081 1_444
B0 Lu3 2.756737 1_544
B0 Lu3 2.756737 1_555
B0 Lu2 2.756738 1_555
B0 Lu2 2.756738 1_454
