# generated using pymatgen
data_CsSb12Ru3Pt
_symmetry_space_group_name_H-M   'P 1'
_cell_length_a   8.14722397
_cell_length_b   8.15984346
_cell_length_c   8.15984433
_cell_angle_alpha   109.50252863
_cell_angle_beta   109.43989279
_cell_angle_gamma   109.43989668
_symmetry_Int_Tables_number   1
_chemical_formula_structural   CsSb12Ru3Pt
_chemical_formula_sum   'Cs1 Sb12 Ru3 Pt1'
_cell_volume   417.75265412
_cell_formula_units_Z   1
loop_
 _symmetry_equiv_pos_site_id
 _symmetry_equiv_pos_as_xyz
  1  'x, y, z'
loop_
 _atom_site_type_symbol
 _atom_site_label
 _atom_site_symmetry_multiplicity
 _atom_site_fract_x
 _atom_site_fract_y
 _atom_site_fract_z
 _atom_site_occupancy
  Cs  Cs0  1  0.00000000  0.00000000  0.00000000  1
  Sb  Sb0  1  0.15098892  0.80817922  0.64725523  1
  Sb  Sb1  1  0.15935401  0.50210357  0.34244932  1
  Sb  Sb2  1  0.49626730  0.64725523  0.83907600  1
  Sb  Sb3  1  0.34280970  0.83907600  0.19182078  1
  Sb  Sb4  1  0.81690369  0.65755068  0.15965324  1
  Sb  Sb5  1  0.65725045  0.84034676  0.49789643  1
  Sb  Sb6  1  0.18309631  0.34244932  0.84034676  1
  Sb  Sb7  1  0.65719030  0.16092400  0.80817922  1
  Sb  Sb8  1  0.34274955  0.15965324  0.50210357  1
  Sb  Sb9  1  0.50373270  0.35274477  0.16092400  1
  Sb  Sb10  1  0.84064599  0.49789643  0.65755068  1
  Sb  Sb11  1  0.84901108  0.19182078  0.35274477  1
  Ru  Ru0  1  0.50000000  0.50000000  0.50000000  1
  Ru  Ru1  1  0.00000000  0.00000000  0.50000000  1
  Ru  Ru2  1  0.00000000  0.50000000  0.00000000  1
  Pt  Pt0  1  0.50000000  0.00000000  0.00000000  1
loop_
_geom_bond_atom_site_label_1
_geom_bond_atom_site_label_2
_geom_bond_distance
_geom_bond_site_symmetry_2
Cs0 Sb6 3.560933 1_554
Cs0 Sb4 3.560933 1_445
Cs0 Sb1 3.560937 1_555
Cs0 Sb10 3.560937 1_444
Cs0 Sb8 3.560940 1_555
Cs0 Sb5 3.560940 1_444
Cs0 Sb9 3.588642 1_555
Cs0 Sb2 3.588642 1_444
Cs0 Sb7 3.588648 1_454
Cs0 Sb3 3.588648 1_545
Cs0 Sb11 3.588648 1_455
Cs0 Sb0 3.588648 1_544
Sb0 Sb1 2.916651 1_555
Sb0 Sb10 2.971968 1_455
Sb1 Sb11 2.971968 1_455
Sb2 Sb6 2.916655 1_555
Sb2 Sb4 2.971954 1_556
Sb3 Sb5 2.916646 1_555
Sb3 Sb8 2.971963 1_565
Sb4 Sb9 2.916655 1_555
Sb5 Sb7 2.971963 1_565
Sb6 Sb9 2.971954 1_556
Sb7 Sb8 2.916646 1_555
Sb10 Sb11 2.916651 1_555
Ru0 Sb2 2.638274 1_555
Ru0 Sb9 2.638274 1_555
Ru0 Sb10 2.650837 1_555
Ru0 Sb1 2.650837 1_555
Ru0 Sb5 2.651886 1_555
Ru0 Sb8 2.651886 1_555
Ru1 Sb0 2.638278 1_545
Ru1 Sb11 2.638278 1_455
Ru1 Sb8 2.650836 1_555
Ru1 Sb5 2.650836 1_445
Ru1 Sb4 2.651882 1_445
Ru1 Sb6 2.651882 1_555
Ru2 Sb3 2.638278 1_555
Ru2 Sb7 2.638278 1_454
Ru2 Sb6 2.650840 1_554
Ru2 Sb4 2.650840 1_455
Ru2 Sb1 2.651879 1_555
Ru2 Sb10 2.651879 1_454
Pt0 Sb3 2.720580 1_545
Pt0 Sb7 2.720580 1_554
Pt0 Sb11 2.720580 1_555
Pt0 Sb0 2.720580 1_544
Pt0 Sb9 2.720584 1_555
Pt0 Sb2 2.720584 1_544
