# generated using pymatgen
data_Hf6Al16Ir5Pt2
_symmetry_space_group_name_H-M   'P 1'
_cell_length_a   8.66194447
_cell_length_b   8.66194436
_cell_length_c   8.68249764
_cell_angle_alpha   59.92147649
_cell_angle_beta   59.92147690
_cell_angle_gamma   60.07239748
_symmetry_Int_Tables_number   1
_chemical_formula_structural   Hf6Al16Ir5Pt2
_chemical_formula_sum   'Hf6 Al16 Ir5 Pt2'
_cell_volume   460.34186899
_cell_formula_units_Z   1
loop_
 _symmetry_equiv_pos_site_id
 _symmetry_equiv_pos_as_xyz
  1  'x, y, z'
loop_
 _atom_site_type_symbol
 _atom_site_label
 _atom_site_symmetry_multiplicity
 _atom_site_fract_x
 _atom_site_fract_y
 _atom_site_fract_z
 _atom_site_occupancy
  Hf  Hf0  1  0.68624526  0.31375474  0.31249012  1
  Hf  Hf1  1  0.31375474  0.68624526  0.68750988  1
  Hf  Hf2  1  0.31375474  0.68624526  0.31249012  1
  Hf  Hf3  1  0.68624526  0.31375474  0.68750988  1
  Hf  Hf4  1  0.32515654  0.32515654  0.67484346  1
  Hf  Hf5  1  0.67484346  0.67484346  0.32515654  1
  Al  Al0  1  0.33868766  0.33868766  0.33722847  1
  Al  Al1  1  0.66131234  0.66131234  0.66277153  1
  Al  Al2  1  0.33868766  0.33868766  0.98539521  1
  Al  Al3  1  0.33970418  0.98482175  0.33773704  1
  Al  Al4  1  0.66131234  0.66131234  0.01460479  1
  Al  Al5  1  0.66029582  0.01517825  0.66226296  1
  Al  Al6  1  0.98482175  0.33970418  0.33773704  1
  Al  Al7  1  0.01517825  0.66029582  0.66226296  1
  Al  Al8  1  0.12384803  0.12384803  0.11496079  1
  Al  Al9  1  0.87615197  0.87615197  0.88503921  1
  Al  Al10  1  0.12384803  0.12384803  0.63734216  1
  Al  Al11  1  0.12129437  0.63573755  0.12148354  1
  Al  Al12  1  0.87615197  0.87615197  0.36265784  1
  Al  Al13  1  0.87870563  0.36426245  0.87851646  1
  Al  Al14  1  0.63573755  0.12129437  0.12148354  1
  Al  Al15  1  0.36426245  0.87870563  0.87851646  1
  Ir  Ir0  1  0.50000000  0.00000000  0.00000000  1
  Ir  Ir1  1  0.00000000  0.50000000  0.50000000  1
  Ir  Ir2  1  0.00000000  0.50000000  0.00000000  1
  Ir  Ir3  1  0.50000000  0.00000000  0.50000000  1
  Ir  Ir4  1  0.50000000  0.50000000  0.00000000  1
  Pt  Pt0  1  0.00000000  0.00000000  0.50000000  1
  Pt  Pt1  1  0.00000000  0.00000000  0.00000000  1
loop_
_geom_bond_atom_site_label_1
_geom_bond_atom_site_label_2
_geom_bond_distance
_geom_bond_site_symmetry_2
Hf0 Hf5 3.135319 1_555
Hf0 Hf4 3.135319 1_555
Hf0 Pt0 3.170610 1_655
Hf1 Hf4 3.135319 1_555
Hf1 Hf5 3.135319 1_555
Hf1 Pt0 3.170610 1_565
Hf2 Hf4 3.135319 1_555
Hf2 Hf5 3.135319 1_555
Hf2 Pt0 3.170610 1_565
Hf3 Hf5 3.135319 1_555
Hf3 Hf4 3.135319 1_555
Hf3 Pt0 3.170610 1_655
Hf4 Ir3 3.202479 1_555
Hf4 Ir0 3.202479 1_556
Hf4 Ir1 3.202479 1_555
Hf4 Ir2 3.202479 1_556
Hf5 Ir0 3.202479 1_565
Hf5 Ir3 3.202479 1_565
Hf5 Ir2 3.202479 1_655
Hf5 Ir1 3.202479 1_655
Al0 Ir4 2.494824 1_555
Al0 Ir3 2.507895 1_555
Al0 Ir1 2.507895 1_555
Al0 Hf2 2.811692 1_555
Al0 Hf0 2.811692 1_555
Al0 Hf4 2.818718 1_555
Al1 Ir4 2.494824 1_556
Al1 Ir3 2.507895 1_565
Al1 Ir1 2.507895 1_655
Al1 Hf3 2.811692 1_555
Al1 Hf1 2.811692 1_555
Al1 Hf5 2.818718 1_555
Al2 Ir4 2.494830 1_556
Al2 Ir0 2.507892 1_556
Al2 Ir2 2.507892 1_556
Al2 Hf1 2.811689 1_555
Al2 Hf3 2.811689 1_555
Al2 Hf4 2.818710 1_555
Al3 Ir0 2.501719 1_565
Al3 Ir3 2.501719 1_565
Al3 Pt0 2.510920 1_565
Al3 Hf5 2.801271 1_555
Al3 Hf2 2.825771 1_555
Al3 Hf1 2.825771 1_555
Al4 Ir4 2.494830 1_555
Al4 Ir0 2.507892 1_565
Al4 Ir2 2.507892 1_655
Al4 Hf0 2.811689 1_555
Al4 Hf2 2.811689 1_555
Al4 Hf5 2.818710 1_555
Al5 Ir0 2.501719 1_556
Al5 Ir3 2.501719 1_555
Al5 Pt0 2.510920 1_655
Al5 Hf4 2.801271 1_555
Al5 Hf3 2.825771 1_555
Al5 Hf0 2.825771 1_555
Al6 Ir2 2.501719 1_655
Al6 Ir1 2.501719 1_655
Al6 Pt0 2.510920 1_655
Al6 Hf5 2.801271 1_555
Al6 Hf0 2.825771 1_555
Al6 Hf3 2.825771 1_555
Al7 Ir2 2.501719 1_556
Al7 Ir1 2.501719 1_555
Al7 Pt0 2.510920 1_565
Al7 Hf4 2.801271 1_555
Al7 Hf1 2.825771 1_555
Al7 Hf2 2.825771 1_555
Al8 Pt1 2.567661 1_555
Al8 Ir2 2.662486 1_555
Al8 Ir0 2.662486 1_555
Al8 Pt0 2.727002 1_555
Al8 Hf4 3.218581 1_554
Al9 Pt1 2.567661 1_666
Al9 Ir2 2.662486 1_656
Al9 Ir0 2.662486 1_566
Al9 Pt0 2.727002 1_665
Al9 Hf5 3.218581 1_556
Al10 Pt1 2.567668 1_556
Al10 Ir1 2.662486 1_555
Al10 Ir3 2.662486 1_555
Al10 Pt0 2.726995 1_555
Al10 Hf4 3.218586 1_555
Al11 Pt1 2.576615 1_565
Al11 Ir4 2.679918 1_555
Al11 Ir2 2.680547 1_555
Al11 Ir1 2.680554 1_555
Al11 Hf5 3.261167 1_455
Al12 Pt1 2.567668 1_665
Al12 Ir1 2.662486 1_655
Al12 Ir3 2.662486 1_565
Al12 Pt0 2.726995 1_665
Al12 Hf5 3.218586 1_555
Al13 Pt1 2.576615 1_656
Al13 Ir4 2.679918 1_556
Al13 Ir2 2.680547 1_656
Al13 Ir1 2.680554 1_655
Al13 Hf4 3.261167 1_655
Al14 Pt1 2.576615 1_655
Al14 Ir4 2.679918 1_555
Al14 Ir0 2.680547 1_555
Al14 Ir3 2.680554 1_555
Al14 Hf5 3.261167 1_545
Al15 Pt1 2.576615 1_566
Al15 Ir4 2.679918 1_556
Al15 Ir0 2.680547 1_566
Al15 Ir3 2.680554 1_565
Al15 Hf4 3.261167 1_565
