# generated using pymatgen
data_Li2TcSn8Pt
_symmetry_space_group_name_H-M   'P 1'
_cell_length_a   7.37820346
_cell_length_b   7.37820339
_cell_length_c   7.37820272
_cell_angle_alpha   125.87294232
_cell_angle_beta   125.87293298
_cell_angle_gamma   80.09707588
_symmetry_Int_Tables_number   1
_chemical_formula_structural   Li2TcSn8Pt
_chemical_formula_sum   'Li2 Tc1 Sn8 Pt1'
_cell_volume   254.58802728
_cell_formula_units_Z   1
loop_
 _symmetry_equiv_pos_site_id
 _symmetry_equiv_pos_as_xyz
  1  'x, y, z'
loop_
 _atom_site_type_symbol
 _atom_site_label
 _atom_site_symmetry_multiplicity
 _atom_site_fract_x
 _atom_site_fract_y
 _atom_site_fract_z
 _atom_site_occupancy
  Li  Li0  1  0.49384083  0.49384083  0.00000000  1
  Li  Li1  1  0.00615917  0.00615917  1.00000000  1
  Tc  Tc0  1  0.75000000  0.75000000  0.00000000  1
  Sn  Sn0  1  0.71335781  0.52820307  0.51294117  1
  Sn  Sn1  1  0.52820307  0.01526191  0.81484427  1
  Sn  Sn2  1  0.20041664  0.71335781  0.18515573  1
  Sn  Sn3  1  0.78664219  0.29958336  0.81484427  1
  Sn  Sn4  1  0.48473809  0.97179693  0.18515573  1
  Sn  Sn5  1  0.29958336  0.48473809  0.51294117  1
  Sn  Sn6  1  0.97179693  0.78664219  0.48705883  1
  Sn  Sn7  1  0.01526191  0.20041664  0.48705883  1
  Pt  Pt0  1  0.25000000  0.25000000  0.00000000  1
loop_
_geom_bond_atom_site_label_1
_geom_bond_atom_site_label_2
_geom_bond_distance
_geom_bond_site_symmetry_2
Li0 Pt0 2.754432 1_555
Li0 Tc0 2.893580 1_555
Li0 Sn4 2.947317 1_555
Li0 Sn5 2.947319 1_554
Li0 Sn6 2.947319 1_555
Li0 Sn3 2.947324 1_554
Li0 Sn1 2.973794 1_554
Li0 Sn0 2.973796 1_555
Li0 Sn7 2.973796 1_554
Li0 Sn2 2.973800 1_555
Li1 Pt0 2.754432 1_556
Li1 Tc0 2.893580 1_446
Li1 Sn1 2.947318 1_455
Li1 Sn7 2.947319 1_556
Li1 Sn0 2.947319 1_445
Li1 Sn2 2.947324 1_546
Li1 Sn4 2.973795 1_546
Li1 Sn6 2.973795 1_445
Li1 Sn5 2.973796 1_556
Li1 Sn3 2.973800 1_455
Sn0 Tc0 2.790436 1_556
Sn1 Tc0 2.790441 1_546
Sn2 Tc0 2.790436 1_455
Sn3 Tc0 2.790436 1_556
Sn4 Tc0 2.790441 1_555
Sn5 Tc0 2.790437 1_556
Sn6 Tc0 2.790437 1_555
Sn7 Tc0 2.790437 1_445
Pt0 Sn2 2.893071 1_555
Pt0 Sn3 2.893072 1_454
Pt0 Sn5 2.893072 1_555
Pt0 Sn7 2.893072 1_554
Pt0 Sn6 2.893072 1_444
Pt0 Sn0 2.893073 1_555
Pt0 Sn1 2.893076 1_554
Pt0 Sn4 2.893077 1_545
