# generated using pymatgen
data_Ta2CdPbO7
_symmetry_space_group_name_H-M   'P 1'
_cell_length_a   7.47806809
_cell_length_b   7.42700439
_cell_length_c   7.47806866
_cell_angle_alpha   60.22562928
_cell_angle_beta   60.17448084
_cell_angle_gamma   60.22563205
_symmetry_Int_Tables_number   1
_chemical_formula_structural   Ta2CdPbO7
_chemical_formula_sum   'Ta4 Cd2 Pb2 O14'
_cell_volume   295.06899013
_cell_formula_units_Z   2
loop_
 _symmetry_equiv_pos_site_id
 _symmetry_equiv_pos_as_xyz
  1  'x, y, z'
loop_
 _atom_site_type_symbol
 _atom_site_label
 _atom_site_symmetry_multiplicity
 _atom_site_fract_x
 _atom_site_fract_y
 _atom_site_fract_z
 _atom_site_occupancy
  Ta  Ta0  1  0.12500000  0.62500000  0.12500000  1
  Ta  Ta1  1  0.12500000  0.12500000  0.62500000  1
  Ta  Ta2  1  0.62500000  0.12500000  0.12500000  1
  Ta  Ta3  1  0.12500000  0.12500000  0.12500000  1
  Cd  Cd0  1  0.62500000  0.62500000  0.62500000  1
  Cd  Cd1  1  0.62500000  0.12500000  0.62500000  1
  Pb  Pb0  1  0.12500000  0.62500000  0.62500000  1
  Pb  Pb1  1  0.62500000  0.62500000  0.12500000  1
  O  O0  1  0.72442745  0.77557255  0.72442745  1
  O  O1  1  0.18775967  0.81033029  0.81200902  1
  O  O2  1  0.19038059  0.80961941  0.19038059  1
  O  O3  1  0.81436878  0.18563122  0.81436878  1
  O  O4  1  0.18775967  0.18990203  0.81200902  1
  O  O5  1  0.81200902  0.81033029  0.18775967  1
  O  O6  1  0.43799098  0.06009797  0.06224033  1
  O  O7  1  0.81200902  0.18990203  0.18775967  1
  O  O8  1  0.05961941  0.44038059  0.05961941  1
  O  O9  1  0.06224033  0.06009797  0.43799098  1
  O  O10  1  0.43799098  0.43966971  0.06224033  1
  O  O11  1  0.43563122  0.06436878  0.43563122  1
  O  O12  1  0.06224033  0.43966971  0.43799098  1
  O  O13  1  0.52557255  0.47442745  0.52557255  1
loop_
_geom_bond_atom_site_label_1
_geom_bond_atom_site_label_2
_geom_bond_distance
_geom_bond_site_symmetry_2
Cd0 O0 2.134898 1_555
Cd0 O13 2.134898 1_555
Cd1 O13 2.134898 1_555
Cd1 O0 2.134898 1_545
O0 Pb0 2.461671 1_655
O0 Pb1 2.461671 1_556
O1 Ta0 1.985539 1_556
O1 Ta1 1.988804 1_565
O1 Pb0 2.697555 1_555
O2 Ta0 1.981818 1_555
O2 Ta3 1.981818 1_565
O2 Pb1 2.709524 1_555
O2 Pb0 2.709524 1_555
O3 Ta1 1.981517 1_655
O3 Ta2 1.981517 1_556
O4 Ta3 1.985538 1_556
O4 Ta1 1.988809 1_555
O4 Pb0 2.697549 1_555
O5 Ta0 1.985539 1_655
O5 Ta2 1.988804 1_565
O5 Pb1 2.697555 1_555
O6 Ta3 1.985537 1_555
O6 Ta2 1.988809 1_555
O6 Pb1 2.697549 1_545
O7 Ta3 1.985537 1_655
O7 Ta2 1.988809 1_555
O7 Pb1 2.697549 1_555
O8 Ta0 1.981818 1_555
O8 Ta3 1.981818 1_555
O8 Pb1 2.709524 1_455
O8 Pb0 2.709524 1_554
O9 Ta3 1.985538 1_555
O9 Ta1 1.988809 1_555
O9 Pb0 2.697549 1_545
O10 Ta0 1.985539 1_555
O10 Ta2 1.988804 1_555
O10 Pb1 2.697555 1_555
O11 Ta1 1.981517 1_555
O11 Ta2 1.981517 1_555
O12 Ta0 1.985539 1_555
O12 Ta1 1.988804 1_555
O12 Pb0 2.697555 1_555
O13 Pb0 2.461671 1_555
O13 Pb1 2.461671 1_555
