# generated using pymatgen
data_Cs2CdAs2O7
_symmetry_space_group_name_H-M   'P 1'
_cell_length_a   7.82209008
_cell_length_b   7.82208840
_cell_length_c   10.63722455
_cell_angle_alpha   79.71075173
_cell_angle_beta   79.71071892
_cell_angle_gamma   120.02937699
_symmetry_Int_Tables_number   1
_chemical_formula_structural   Cs2CdAs2O7
_chemical_formula_sum   'Cs4 Cd2 As4 O14'
_cell_volume   526.26092848
_cell_formula_units_Z   2
loop_
 _symmetry_equiv_pos_site_id
 _symmetry_equiv_pos_as_xyz
  1  'x, y, z'
loop_
 _atom_site_type_symbol
 _atom_site_label
 _atom_site_symmetry_multiplicity
 _atom_site_fract_x
 _atom_site_fract_y
 _atom_site_fract_z
 _atom_site_occupancy
  Cs  Cs0  1  0.37970065  0.45804768  0.13234310  1
  Cs  Cs1  1  0.45804820  0.37969970  0.63234382  1
  Cs  Cs2  1  0.60906062  0.02654204  0.31433130  1
  Cs  Cs3  1  0.02654032  0.60905864  0.81433179  1
  Cd  Cd0  1  0.03954576  0.80290313  0.30456681  1
  Cd  Cd1  1  0.80290427  0.03954603  0.80456702  1
  As  As0  1  0.40812007  0.96329989  0.99819561  1
  As  As1  1  0.96329853  0.40811889  0.49819617  1
  As  As2  1  0.02478230  0.01892325  0.99560168  1
  As  As3  1  0.01892309  0.02478206  0.49560181  1
  O  O0  1  0.23649390  0.06984470  0.39073118  1
  O  O1  1  0.06984408  0.23649393  0.89073112  1
  O  O2  1  0.01385584  0.24442101  0.42308530  1
  O  O3  1  0.24442184  0.01385710  0.92308498  1
  O  O4  1  0.61289331  0.19003715  0.99001056  1
  O  O5  1  0.19003558  0.61289209  0.49001116  1
  O  O6  1  0.01210966  0.02175442  0.15462497  1
  O  O7  1  0.02175381  0.01210960  0.65462527  1
  O  O8  1  0.82019262  0.81217230  0.97849592  1
  O  O9  1  0.81217256  0.82019257  0.47849582  1
  O  O10  1  0.46190783  0.83939748  0.89792601  1
  O  O11  1  0.83939653  0.46190705  0.39792633  1
  O  O12  1  0.26722797  0.79354997  0.15503582  1
  O  O13  1  0.79354868  0.26722733  0.65503646  1
loop_
_geom_bond_atom_site_label_1
_geom_bond_atom_site_label_2
_geom_bond_distance
_geom_bond_site_symmetry_2
Cs0 O8 3.006085 1_554
Cs0 O6 3.101056 1_555
Cs0 O12 3.190715 1_555
Cs0 O10 3.221718 1_554
Cs0 O0 3.247156 1_555
Cs0 O2 3.279062 1_555
Cs0 O4 3.740185 1_554
Cs1 O9 3.006090 1_555
Cs1 O7 3.101061 1_555
Cs1 O13 3.190700 1_555
Cs1 O11 3.221712 1_555
Cs1 O1 3.247158 1_555
Cs1 O3 3.279047 1_555
Cs1 O5 3.740200 1_555
Cs2 O0 3.083552 1_555
Cs2 O5 3.121156 1_545
Cs2 O9 3.275623 1_545
Cs2 O2 3.298532 1_655
Cs2 O6 3.324822 1_655
Cs2 O11 3.338721 1_555
Cs2 O12 3.344617 1_545
Cs2 O4 3.447696 1_554
Cs3 O1 3.083542 1_555
Cs3 O4 3.121132 1_455
Cs3 O8 3.275622 1_455
Cs3 O3 3.298547 1_565
Cs3 O7 3.324831 1_565
Cs3 O10 3.338735 1_555
Cs3 O13 3.344608 1_455
Cs3 O5 3.447693 1_555
Cd0 O12 2.206161 1_555
Cd0 O11 2.206920 1_455
Cd0 O6 2.243899 1_565
Cd0 O0 2.354096 1_565
Cd0 O9 2.399804 1_455
Cd1 O13 2.206164 1_555
Cd1 O10 2.206922 1_545
Cd1 O7 2.243890 1_655
Cd1 O1 2.354085 1_655
Cd1 O8 2.399802 1_545
As0 O4 1.664451 1_565
As0 O12 1.687653 1_556
As0 O10 1.694411 1_555
As0 O3 1.787106 1_565
As1 O5 1.664450 1_655
As1 O13 1.687653 1_555
As1 O11 1.694412 1_555
As1 O2 1.787105 1_655
As2 O6 1.681485 1_556
As2 O8 1.681760 1_445
As2 O1 1.686980 1_555
As2 O3 1.775919 1_555
As3 O7 1.681486 1_555
As3 O9 1.681759 1_445
As3 O0 1.686979 1_555
As3 O2 1.775919 1_555
