# generated using pymatgen
data_Na4Ca(GeS3)2
_symmetry_space_group_name_H-M   'P 1'
_cell_length_a   6.76823282
_cell_length_b   6.76823306
_cell_length_c   7.60743272
_cell_angle_alpha   81.09605580
_cell_angle_beta   81.09605568
_cell_angle_gamma   119.18777917
_symmetry_Int_Tables_number   1
_chemical_formula_structural   Na4Ca(GeS3)2
_chemical_formula_sum   'Na4 Ca1 Ge2 S6'
_cell_volume   289.66438270
_cell_formula_units_Z   1
loop_
 _symmetry_equiv_pos_site_id
 _symmetry_equiv_pos_as_xyz
  1  'x, y, z'
loop_
 _atom_site_type_symbol
 _atom_site_label
 _atom_site_symmetry_multiplicity
 _atom_site_fract_x
 _atom_site_fract_y
 _atom_site_fract_z
 _atom_site_occupancy
  Na  Na0  1  0.49978640  0.50021360  1.00000000  1
  Na  Na1  1  0.66508510  0.33491490  0.50000000  1
  Na  Na2  1  0.33417837  0.66582163  0.50000000  1
  Na  Na3  1  0.17603934  0.82396066  0.00000000  1
  Ca  Ca0  1  0.82182014  0.17817986  1.00000000  1
  Ge  Ge0  1  0.05581368  0.05271296  0.33422844  1
  Ge  Ge1  1  0.94728704  0.94418632  0.66577156  1
  S  S0  1  0.08168124  0.39539003  0.24235973  1
  S  S1  1  0.40106364  0.08223465  0.24636165  1
  S  S2  1  0.91776535  0.59893636  0.75363835  1
  S  S3  1  0.60460997  0.91831876  0.75764027  1
  S  S4  1  0.77510510  0.78023537  0.24118627  1
  S  S5  1  0.21976463  0.22489490  0.75881373  1
loop_
_geom_bond_atom_site_label_1
_geom_bond_atom_site_label_2
_geom_bond_distance
_geom_bond_site_symmetry_2
Na0 S0 2.816461 1_556
Na0 S3 2.816461 1_555
Na0 S2 2.844212 1_555
Na0 S1 2.844212 1_556
Na0 S5 3.020115 1_555
Na0 S4 3.020115 1_556
Na1 S0 2.979026 1_655
Na1 S3 2.979026 1_545
Na1 S1 2.991531 1_555
Na1 S2 2.991531 1_555
Na1 S5 3.005923 1_555
Na1 S4 3.005923 1_555
Na2 S2 2.945010 1_455
Na2 S1 2.945010 1_565
Na2 S4 2.972777 1_555
Na2 S5 2.972777 1_555
Na2 S3 3.034591 1_555
Na2 S0 3.034591 1_555
Na3 S2 2.861628 1_454
Na3 S1 2.861628 1_565
Na3 S4 2.885339 1_455
Na3 S5 2.885339 1_564
Na3 S3 2.897283 1_554
Na3 S0 2.897283 1_555
Ca0 S0 2.824001 1_656
Ca0 S3 2.824001 1_545
Ca0 S5 2.860216 1_655
Ca0 S4 2.860216 1_546
Ca0 S1 2.865564 1_556
Ca0 S2 2.865564 1_555
Ge0 S4 2.216895 1_445
Ge0 S0 2.227696 1_555
Ge0 S1 2.228632 1_555
Ge1 S5 2.216895 1_665
Ge1 S3 2.227696 1_555
Ge1 S2 2.228632 1_555
