# generated using pymatgen
data_K6InS4Cl
_symmetry_space_group_name_H-M   'P 1'
_cell_length_a   10.31721757
_cell_length_b   10.31721745
_cell_length_c   7.58768765
_cell_angle_alpha   90.00000000
_cell_angle_beta   90.00000000
_cell_angle_gamma   120.00000040
_symmetry_Int_Tables_number   1
_chemical_formula_structural   K6InS4Cl
_chemical_formula_sum   'K12 In2 S8 Cl2'
_cell_volume   699.46380766
_cell_formula_units_Z   2
loop_
 _symmetry_equiv_pos_site_id
 _symmetry_equiv_pos_as_xyz
  1  'x, y, z'
loop_
 _atom_site_type_symbol
 _atom_site_label
 _atom_site_symmetry_multiplicity
 _atom_site_fract_x
 _atom_site_fract_y
 _atom_site_fract_z
 _atom_site_occupancy
  K  K0  1  0.13274671  0.86725329  0.50815738  1
  K  K1  1  0.73450659  0.86725329  0.50815738  1
  K  K2  1  0.94171844  0.47085972  0.32301395  1
  K  K3  1  0.52914028  0.47085972  0.32301395  1
  K  K4  1  0.86725329  0.73450659  0.00815738  1
  K  K5  1  0.26549341  0.13274671  0.00815738  1
  K  K6  1  0.52914028  0.05828156  0.32301395  1
  K  K7  1  0.13274671  0.26549341  0.50815738  1
  K  K8  1  0.86725329  0.13274671  0.00815738  1
  K  K9  1  0.05828156  0.52914028  0.82301395  1
  K  K10  1  0.47085972  0.94171844  0.82301395  1
  K  K11  1  0.47085972  0.52914028  0.82301395  1
  In  In0  1  0.66666700  0.33333300  0.71363349  1
  In  In1  1  0.33333300  0.66666700  0.21363349  1
  S  S0  1  0.40484753  0.20242476  0.60822840  1
  S  S1  1  0.59515247  0.79757524  0.10822840  1
  S  S2  1  0.66666700  0.33333300  0.04369478  1
  S  S3  1  0.79757524  0.59515247  0.60822840  1
  S  S4  1  0.20242476  0.40484753  0.10822840  1
  S  S5  1  0.33333300  0.66666700  0.54369478  1
  S  S6  1  0.20242476  0.79757524  0.10822840  1
  S  S7  1  0.79757524  0.20242476  0.60822840  1
  Cl  Cl0  1  0.00000000  0.00000000  0.26507655  1
  Cl  Cl1  1  0.00000000  0.00000000  0.76507655  1
loop_
_geom_bond_atom_site_label_1
_geom_bond_atom_site_label_2
_geom_bond_distance
_geom_bond_site_symmetry_2
K0 S0 3.272278 1_565
K0 S3 3.272278 1_455
K0 S6 3.280060 1_555
K0 S5 3.594594 1_555
K1 S3 3.272265 1_555
K1 S7 3.272285 1_565
K1 S1 3.280053 1_555
K1 S5 3.594603 1_555
K2 S7 3.232105 1_555
K2 S3 3.232111 1_555
K2 S2 3.245225 1_555
K2 S6 3.490910 1_655
K2 S4 3.490928 1_655
K3 S0 3.232104 1_555
K3 S3 3.232104 1_555
K3 S2 3.245238 1_555
K3 S1 3.490901 1_555
K3 S4 3.490901 1_555
K4 S1 3.272265 1_555
K4 S6 3.272285 1_655
K4 S3 3.280053 1_554
K4 S2 3.594603 1_555
K5 S4 3.272265 1_555
K5 S6 3.272285 1_545
K5 S0 3.280053 1_554
K5 S2 3.594603 1_555
K6 S7 3.232105 1_555
K6 S0 3.232111 1_555
K6 S2 3.245225 1_555
K6 S6 3.490910 1_545
K6 S1 3.490928 1_545
K7 S0 3.272265 1_555
K7 S7 3.272285 1_455
K7 S4 3.280053 1_555
K7 S5 3.594603 1_555
K8 S1 3.272278 1_545
K8 S4 3.272278 1_655
K8 S7 3.280060 1_554
K8 S2 3.594594 1_555
K9 S6 3.232105 1_556
K9 S4 3.232111 1_556
K9 S5 3.245225 1_555
K9 S7 3.490910 1_455
K9 S3 3.490928 1_455
K10 S6 3.232105 1_556
K10 S1 3.232111 1_556
K10 S5 3.245225 1_555
K10 S7 3.490910 1_565
K10 S0 3.490928 1_565
K11 S1 3.232104 1_556
K11 S4 3.232104 1_556
K11 S5 3.245238 1_555
K11 S0 3.490901 1_555
K11 S3 3.490901 1_555
In0 S7 2.472262 1_555
In0 S3 2.472288 1_555
In0 S0 2.472288 1_555
In0 S2 2.504402 1_556
In1 S6 2.472262 1_555
In1 S4 2.472288 1_555
In1 S1 2.472288 1_555
In1 S5 2.504402 1_555
Cl0 K7 3.004848 1_555
Cl0 K1 3.004848 1_445
Cl0 K0 3.004848 1_545
Cl0 K4 3.070418 1_445
Cl0 K5 3.070418 1_555
Cl0 K8 3.070418 1_455
Cl1 K4 3.004848 1_446
Cl1 K5 3.004848 1_556
Cl1 K8 3.004848 1_456
Cl1 K7 3.070418 1_555
Cl1 K1 3.070418 1_445
Cl1 K0 3.070418 1_545
