# generated using pymatgen
data_Sr3CdNiO6
_symmetry_space_group_name_H-M   'P 1'
_cell_length_a   6.68539046
_cell_length_b   6.68538975
_cell_length_c   6.68539054
_cell_angle_alpha   90.80043026
_cell_angle_beta   90.80043208
_cell_angle_gamma   90.80042174
_symmetry_Int_Tables_number   1
_chemical_formula_structural   Sr3CdNiO6
_chemical_formula_sum   'Sr6 Cd2 Ni2 O12'
_cell_volume   298.71149804
_cell_formula_units_Z   2
loop_
 _symmetry_equiv_pos_site_id
 _symmetry_equiv_pos_as_xyz
  1  'x, y, z'
loop_
 _atom_site_type_symbol
 _atom_site_label
 _atom_site_symmetry_multiplicity
 _atom_site_fract_x
 _atom_site_fract_y
 _atom_site_fract_z
 _atom_site_occupancy
  Sr  Sr0  1  0.88465648  0.61534352  0.25000000  1
  Sr  Sr1  1  0.25000000  0.88465648  0.61534352  1
  Sr  Sr2  1  0.61534352  0.25000000  0.88465648  1
  Sr  Sr3  1  0.75000000  0.11534352  0.38465648  1
  Sr  Sr4  1  0.38465648  0.75000000  0.11534352  1
  Sr  Sr5  1  0.11534352  0.38465648  0.75000000  1
  Cd  Cd0  1  0.25000000  0.25000000  0.25000000  1
  Cd  Cd1  1  0.75000000  0.75000000  0.75000000  1
  Ni  Ni0  1  0.50000000  0.50000000  0.50000000  1
  Ni  Ni1  1  0.00000000  0.00000000  0.00000000  1
  O  O0  1  0.22774851  0.55206704  0.42143913  1
  O  O1  1  0.42143913  0.22774851  0.55206704  1
  O  O2  1  0.55206704  0.42143913  0.22774851  1
  O  O3  1  0.92143913  0.05206704  0.72774851  1
  O  O4  1  0.72774851  0.92143913  0.05206704  1
  O  O5  1  0.05206704  0.72774851  0.92143913  1
  O  O6  1  0.77225149  0.44793296  0.57856087  1
  O  O7  1  0.57856087  0.77225149  0.44793296  1
  O  O8  1  0.44793296  0.57856087  0.77225149  1
  O  O9  1  0.07856087  0.94793296  0.27225149  1
  O  O10  1  0.27225149  0.07856087  0.94793296  1
  O  O11  1  0.94793296  0.27225149  0.07856087  1
loop_
_geom_bond_atom_site_label_1
_geom_bond_atom_site_label_2
_geom_bond_distance
_geom_bond_site_symmetry_2
Cd0 O0 2.315680 1_555
Cd0 O11 2.315680 1_455
Cd0 O10 2.315680 1_554
Cd0 O9 2.315680 1_545
Cd0 O1 2.315680 1_555
Cd0 O2 2.315680 1_555
Cd1 O6 2.315680 1_555
Cd1 O5 2.315680 1_655
Cd1 O4 2.315680 1_556
Cd1 O3 2.315680 1_565
Cd1 O7 2.315680 1_555
Cd1 O8 2.315680 1_555
Ni0 O7 1.925072 1_555
Ni0 O1 1.925072 1_555
Ni0 O6 1.925072 1_555
Ni0 O0 1.925072 1_555
Ni0 O8 1.925072 1_555
Ni0 O2 1.925072 1_555
Ni1 O5 1.925072 1_544
Ni1 O11 1.925072 1_455
Ni1 O9 1.925072 1_545
Ni1 O3 1.925072 1_454
Ni1 O10 1.925072 1_554
Ni1 O4 1.925072 1_445
O0 Sr1 2.559558 1_555
O0 Sr0 2.592464 1_455
O0 Sr5 2.594899 1_555
O0 Sr4 2.671305 1_555
O1 Sr2 2.559559 1_555
O1 Sr1 2.592464 1_545
O1 Sr3 2.594899 1_555
O1 Sr5 2.671305 1_555
O2 Sr0 2.559559 1_555
O2 Sr2 2.592464 1_554
O2 Sr4 2.594899 1_555
O2 Sr3 2.671305 1_555
O3 Sr5 2.559559 1_655
O3 Sr3 2.592464 1_555
O3 Sr1 2.594899 1_645
O3 Sr2 2.671305 1_555
O4 Sr3 2.559559 1_565
O4 Sr4 2.592464 1_555
O4 Sr2 2.594899 1_564
O4 Sr0 2.671305 1_555
O5 Sr4 2.559559 1_556
O5 Sr5 2.592464 1_555
O5 Sr0 2.594899 1_456
O5 Sr1 2.671305 1_555
O6 Sr3 2.559558 1_555
O6 Sr5 2.592464 1_655
O6 Sr0 2.594899 1_555
O6 Sr2 2.671305 1_555
O7 Sr4 2.559559 1_555
O7 Sr3 2.592464 1_565
O7 Sr1 2.594899 1_555
O7 Sr0 2.671305 1_555
O8 Sr5 2.559559 1_555
O8 Sr4 2.592464 1_556
O8 Sr2 2.594899 1_555
O8 Sr1 2.671305 1_555
O9 Sr0 2.559559 1_455
O9 Sr1 2.592464 1_555
O9 Sr3 2.594899 1_465
O9 Sr4 2.671305 1_555
O10 Sr1 2.559559 1_545
O10 Sr2 2.592464 1_555
O10 Sr4 2.594899 1_546
O10 Sr5 2.671305 1_555
O11 Sr2 2.559559 1_554
O11 Sr0 2.592464 1_555
O11 Sr5 2.594899 1_654
O11 Sr3 2.671305 1_555
