# generated using pymatgen
data_Cd3SnP6N13
_symmetry_space_group_name_H-M   'P 1'
_cell_length_a   7.23058542
_cell_length_b   7.23849561
_cell_length_c   7.23849701
_cell_angle_alpha   109.49335325
_cell_angle_beta   109.44908441
_cell_angle_gamma   109.44908762
_symmetry_Int_Tables_number   1
_chemical_formula_structural   Cd3SnP6N13
_chemical_formula_sum   'Cd3 Sn1 P6 N13'
_cell_volume   291.72040716
_cell_formula_units_Z   1
loop_
 _symmetry_equiv_pos_site_id
 _symmetry_equiv_pos_as_xyz
  1  'x, y, z'
loop_
 _atom_site_type_symbol
 _atom_site_label
 _atom_site_symmetry_multiplicity
 _atom_site_fract_x
 _atom_site_fract_y
 _atom_site_fract_z
 _atom_site_occupancy
  Cd  Cd0  1  0.99876919  1.00000000  0.70253423  1
  Cd  Cd1  1  0.99876919  0.70253423  1.00000000  1
  Cd  Cd2  1  0.29623496  0.29746577  0.29746577  1
  Sn  Sn0  1  0.69686976  1.00000000  1.00000000  1
  P  P0  1  0.24898433  0.74797187  0.49846291  1
  P  P1  1  0.75052041  0.24950796  0.50153709  1
  P  P2  1  0.75052041  0.50153709  0.24950796  1
  P  P3  1  0.24898433  0.49846291  0.74797187  1
  P  P4  1  0.50101245  0.75049204  0.25202813  1
  P  P5  1  0.50101245  0.25202813  0.75049204  1
  N  N0  1  0.99466782  0.00000000  0.00000000  1
  N  N1  1  0.71133508  0.27658954  0.27658954  1
  N  N2  1  0.28119357  0.71600328  0.28089681  1
  N  N3  1  0.29359790  0.57066272  0.57066272  1
  N  N4  1  0.56519030  0.56489353  0.28399672  1
  N  N5  1  0.43474554  0.72341046  1.00000000  1
  N  N6  1  0.00029677  0.71910319  0.43510647  1
  N  N7  1  0.56519030  0.28399672  0.56489353  1
  N  N8  1  0.72293518  1.00000000  0.42933728  1
  N  N9  1  0.43474554  1.00000000  0.72341046  1
  N  N10  1  0.72293518  0.42933728  1.00000000  1
  N  N11  1  0.28119357  0.28089681  0.71600328  1
  N  N12  1  0.00029677  0.43510647  0.71910319  1
loop_
_geom_bond_atom_site_label_1
_geom_bond_atom_site_label_2
_geom_bond_distance
_geom_bond_site_symmetry_2
Cd0 N0 2.163260 1_566
Cd0 N8 2.293890 1_555
Cd0 N11 2.298672 1_665
Cd0 N6 2.298672 1_655
Cd1 N0 2.163260 1_566
Cd1 N10 2.293889 1_555
Cd1 N12 2.298672 1_655
Cd1 N2 2.298672 1_656
Cd2 N0 2.163260 1_455
Cd2 N3 2.293890 1_555
Cd2 N4 2.298672 1_555
Cd2 N7 2.298672 1_555
N0 Sn0 2.153254 1_544
N1 P2 1.647056 1_555
N1 P1 1.647056 1_555
N1 Sn0 2.252469 1_544
N2 P4 1.619877 1_555
N2 P0 1.620143 1_555
N3 P0 1.623434 1_555
N3 P3 1.623434 1_555
N4 P2 1.619873 1_555
N4 P4 1.620149 1_555
N5 P4 1.647049 1_556
N5 P3 1.647051 1_555
N5 Sn0 2.252469 1_555
N6 P0 1.619878 1_555
N6 P2 1.620147 1_455
N7 P1 1.619873 1_555
N7 P5 1.620150 1_555
N8 P1 1.623429 1_565
N8 P4 1.623430 1_555
N9 P5 1.647049 1_565
N9 P0 1.647051 1_555
N9 Sn0 2.252469 1_555
N10 P2 1.623430 1_556
N10 P5 1.623430 1_555
N11 P5 1.619877 1_555
N11 P3 1.620142 1_555
N12 P3 1.619878 1_555
N12 P1 1.620147 1_455
