# generated using pymatgen
data_Rb3Nb2AsS11
_symmetry_space_group_name_H-M   'P 1'
_cell_length_a   9.85360933
_cell_length_b   9.85360985
_cell_length_c   9.74154144
_cell_angle_alpha   83.38875057
_cell_angle_beta   83.38874961
_cell_angle_gamma   83.42958932
_symmetry_Int_Tables_number   1
_chemical_formula_structural   Rb3Nb2AsS11
_chemical_formula_sum   'Rb6 Nb4 As2 S22'
_cell_volume   928.38563503
_cell_formula_units_Z   2
loop_
 _symmetry_equiv_pos_site_id
 _symmetry_equiv_pos_as_xyz
  1  'x, y, z'
loop_
 _atom_site_type_symbol
 _atom_site_label
 _atom_site_symmetry_multiplicity
 _atom_site_fract_x
 _atom_site_fract_y
 _atom_site_fract_z
 _atom_site_occupancy
  Rb  Rb0  1  0.30675155  0.45580604  0.33723324  1
  Rb  Rb1  1  0.45580604  0.30675155  0.83723324  1
  Rb  Rb2  1  0.56797735  0.70036002  0.67007822  1
  Rb  Rb3  1  0.70036002  0.56797735  0.17007822  1
  Rb  Rb4  1  0.93200186  0.09660205  0.92632927  1
  Rb  Rb5  1  0.09660205  0.93200186  0.42632927  1
  Nb  Nb0  1  0.20472245  0.66183379  0.94654441  1
  Nb  Nb1  1  0.66183379  0.20472245  0.44654441  1
  Nb  Nb2  1  0.95125631  0.53796281  0.76283441  1
  Nb  Nb3  1  0.53796281  0.95125631  0.26283441  1
  As  As0  1  0.00892303  0.32419802  0.50317919  1
  As  As1  1  0.32419802  0.00892303  0.00317919  1
  S  S0  1  0.22184022  0.63589918  0.69394614  1
  S  S1  1  0.63589918  0.22184022  0.19394614  1
  S  S2  1  0.23421057  0.83323301  0.74258184  1
  S  S3  1  0.83323301  0.23421057  0.24258184  1
  S  S4  1  0.41489659  0.58150645  0.00137025  1
  S  S5  1  0.58150645  0.41489659  0.50137025  1
  S  S6  1  0.12052872  0.33392954  0.69394424  1
  S  S7  1  0.33392954  0.12052872  0.19394424  1
  S  S8  1  0.55598451  0.05102659  0.63988534  1
  S  S9  1  0.05102659  0.55598451  0.13988534  1
  S  S10  1  0.76587222  0.43551540  0.85145561  1
  S  S11  1  0.43551540  0.76587222  0.35145561  1
  S  S12  1  0.91607051  0.54188743  0.51090999  1
  S  S13  1  0.54188743  0.91607051  0.01090999  1
  S  S14  1  0.88119811  0.78475326  0.70480844  1
  S  S15  1  0.78475326  0.88119811  0.20480844  1
  S  S16  1  0.85833431  0.17432906  0.59517573  1
  S  S17  1  0.17432906  0.85833431  0.09517573  1
  S  S18  1  0.09554914  0.43897666  0.97481662  1
  S  S19  1  0.43897666  0.09554914  0.47481662  1
  S  S20  1  0.92378601  0.73277625  0.90625805  1
  S  S21  1  0.73277625  0.92378601  0.40625805  1
loop_
_geom_bond_atom_site_label_1
_geom_bond_atom_site_label_2
_geom_bond_distance
_geom_bond_site_symmetry_2
Rb0 S5 3.263031 1_555
Rb0 S9 3.336020 1_555
Rb0 S4 3.455517 1_555
Rb0 S11 3.462482 1_555
Rb0 S7 3.702408 1_555
Rb0 S19 3.787254 1_555
Rb1 S4 3.263031 1_556
Rb1 S8 3.336020 1_555
Rb1 S5 3.455517 1_555
Rb1 S10 3.462482 1_555
Rb1 S6 3.702408 1_555
Rb1 S18 3.787253 1_555
Rb2 S14 3.350246 1_555
Rb2 S5 3.399867 1_555
Rb2 S8 3.423497 1_565
Rb2 S2 3.423736 1_555
Rb2 S11 3.468868 1_555
Rb2 S10 3.507389 1_555
Rb2 S0 3.517036 1_555
Rb2 S4 3.532037 1_556
Rb2 S21 3.555709 1_555
Rb2 S12 3.835944 1_555
Rb3 S15 3.350246 1_555
Rb3 S4 3.399867 1_555
Rb3 S9 3.423497 1_655
Rb3 S3 3.423736 1_555
Rb3 S10 3.468868 1_554
Rb3 S11 3.507389 1_555
Rb3 S1 3.517036 1_555
Rb3 S5 3.532037 1_555
Rb3 S20 3.555709 1_554
Rb3 S13 3.835944 1_555
Rb4 S16 3.370948 1_555
Rb4 S3 3.499500 1_556
Rb4 S15 3.527346 1_546
Rb4 S17 3.556879 1_646
Rb4 S10 3.581493 1_555
Rb4 S6 3.584860 1_655
Rb4 S20 3.623321 1_545
Rb5 S17 3.370948 1_555
Rb5 S2 3.499500 1_555
Rb5 S14 3.527346 1_455
Rb5 S16 3.556879 1_465
Rb5 S11 3.581493 1_555
Rb5 S7 3.584860 1_565
Rb5 S21 3.623321 1_455
Nb0 S4 2.232241 1_556
Nb0 S2 2.468055 1_555
Nb0 S9 2.486185 1_556
Nb0 S0 2.487598 1_555
Nb0 S17 2.519546 1_556
Nb0 S18 2.527528 1_555
Nb0 S20 2.837245 1_455
Nb1 S5 2.232241 1_555
Nb1 S3 2.468055 1_555
Nb1 S8 2.486185 1_555
Nb1 S1 2.487598 1_555
Nb1 S16 2.519546 1_555
Nb1 S19 2.527528 1_555
Nb1 S21 2.837245 1_545
Nb2 S10 2.226967 1_555
Nb2 S14 2.469569 1_555
Nb2 S20 2.474237 1_555
Nb2 S12 2.513060 1_555
Nb2 S6 2.561230 1_655
Nb2 S18 2.670610 1_655
Nb2 S0 2.918578 1_655
Nb3 S11 2.226967 1_555
Nb3 S15 2.469569 1_555
Nb3 S21 2.474237 1_555
Nb3 S13 2.513060 1_555
Nb3 S7 2.561230 1_565
Nb3 S19 2.670610 1_565
Nb3 S1 2.918578 1_565
As0 S12 2.239669 1_455
As0 S16 2.253054 1_455
As0 S6 2.282054 1_555
As0 Rb0 3.493310 1_555
As1 S13 2.239669 1_545
As1 S17 2.253054 1_545
As1 S7 2.282054 1_555
As1 Rb1 3.493310 1_554
S0 S2 2.073618 1_555
S1 S3 2.073618 1_555
S14 S20 2.049036 1_555
S15 S21 2.049036 1_555
S18 S9 2.063058 1_556
S19 S8 2.063058 1_555
