# generated using pymatgen
data_RbMgInAs2
_symmetry_space_group_name_H-M   'P 1'
_cell_length_a   4.42009744
_cell_length_b   4.42009706
_cell_length_c   8.52977912
_cell_angle_alpha   90.00000000
_cell_angle_beta   90.00000000
_cell_angle_gamma   119.99999568
_symmetry_Int_Tables_number   1
_chemical_formula_structural   RbMgInAs2
_chemical_formula_sum   'Rb1 Mg1 In1 As2'
_cell_volume   144.32184917
_cell_formula_units_Z   1
loop_
 _symmetry_equiv_pos_site_id
 _symmetry_equiv_pos_as_xyz
  1  'x, y, z'
loop_
 _atom_site_type_symbol
 _atom_site_label
 _atom_site_symmetry_multiplicity
 _atom_site_fract_x
 _atom_site_fract_y
 _atom_site_fract_z
 _atom_site_occupancy
  Rb  Rb0  1  0.00000000  0.00000000  0.98989872  1
  Mg  Mg0  1  0.66666700  0.33333300  0.63024153  1
  In  In0  1  0.33333300  0.66666500  0.39219259  1
  As  As0  1  0.66666700  0.33333300  0.28215777  1
  As  As1  1  0.33333300  0.66666500  0.70551039  1
loop_
_geom_bond_atom_site_label_1
_geom_bond_atom_site_label_2
_geom_bond_distance
_geom_bond_site_symmetry_2
As0 In0 2.719067 1_555
As0 In0 2.719067 1_655
As0 In0 2.719074 1_545
As0 Mg0 2.969078 1_555
As0 Rb0 3.567490 1_654
As0 Rb0 3.567492 1_664
As0 Rb0 3.567493 1_554
As1 Mg0 2.631464 1_555
As1 Mg0 2.631465 1_455
As1 Mg0 2.631472 1_565
As1 In0 2.672532 1_555
As1 Rb0 3.520901 1_555
As1 Rb0 3.520907 1_665
As1 Rb0 3.520910 1_565
