# generated using pymatgen
data_Y16Al4Ir3Pd
_symmetry_space_group_name_H-M   'P 1'
_cell_length_a   9.55998536
_cell_length_b   9.55998522
_cell_length_c   9.55998445
_cell_angle_alpha   60.40635810
_cell_angle_beta   60.40635955
_cell_angle_gamma   60.40636486
_symmetry_Int_Tables_number   1
_chemical_formula_structural   Y16Al4Ir3Pd
_chemical_formula_sum   'Y16 Al4 Ir3 Pd1'
_cell_volume   623.48969188
_cell_formula_units_Z   1
loop_
 _symmetry_equiv_pos_site_id
 _symmetry_equiv_pos_as_xyz
  1  'x, y, z'
loop_
 _atom_site_type_symbol
 _atom_site_label
 _atom_site_symmetry_multiplicity
 _atom_site_fract_x
 _atom_site_fract_y
 _atom_site_fract_z
 _atom_site_occupancy
  Y  Y0  1  0.34935849  0.34935849  0.34935849  1
  Y  Y1  1  0.35440486  0.35440486  0.94200512  1
  Y  Y2  1  0.35440486  0.94200512  0.35440486  1
  Y  Y3  1  0.94200512  0.35440486  0.35440486  1
  Y  Y4  1  0.80128459  0.19440301  0.19440301  1
  Y  Y5  1  0.19457642  0.80729392  0.80729392  1
  Y  Y6  1  0.19440301  0.80128459  0.19440301  1
  Y  Y7  1  0.80729392  0.19457642  0.80729392  1
  Y  Y8  1  0.19440301  0.19440301  0.80128459  1
  Y  Y9  1  0.80729392  0.80729392  0.19457642  1
  Y  Y10  1  0.93914817  0.56196365  0.56196365  1
  Y  Y11  1  0.56473314  0.93878559  0.93878559  1
  Y  Y12  1  0.56196365  0.93914817  0.56196365  1
  Y  Y13  1  0.93878559  0.56473314  0.93878559  1
  Y  Y14  1  0.56196365  0.56196365  0.93914817  1
  Y  Y15  1  0.93878559  0.93878559  0.56473314  1
  Al  Al0  1  0.57766167  0.57766167  0.57766167  1
  Al  Al1  1  0.57697249  0.57697249  0.26694242  1
  Al  Al2  1  0.57697249  0.26694242  0.57697249  1
  Al  Al3  1  0.26694242  0.57697249  0.57697249  1
  Ir  Ir0  1  0.13973978  0.13973978  0.57483244  1
  Ir  Ir1  1  0.13973978  0.57483244  0.13973978  1
  Ir  Ir2  1  0.57483244  0.13973978  0.13973978  1
  Pd  Pd0  1  0.14233195  0.14233195  0.14233195  1
loop_
_geom_bond_atom_site_label_1
_geom_bond_atom_site_label_2
_geom_bond_distance
_geom_bond_site_symmetry_2
Y0 Y14 3.460666 1_554
Y0 Y12 3.460667 1_545
Y0 Y10 3.460667 1_455
Y1 Y14 3.414246 1_555
Y1 Y11 3.464095 1_545
Y1 Y13 3.464095 1_455
Y10 Y3 3.414246 1_555
Y10 Y6 3.555457 1_655
Y10 Y8 3.555458 1_655
Y10 Y9 3.569598 1_555
Y10 Y7 3.569598 1_555
Y10 Y13 3.613843 1_555
Y10 Y15 3.613844 1_555
Y10 Y14 3.628003 1_555
Y10 Y12 3.628004 1_555
Y11 Y2 3.464094 1_556
Y11 Y9 3.552835 1_556
Y11 Y7 3.552835 1_565
Y11 Y15 3.597877 1_555
Y11 Y13 3.597878 1_555
Y11 Y12 3.613843 1_555
Y11 Y14 3.613844 1_555
Y11 Y6 3.621109 1_556
Y11 Y8 3.621109 1_565
Y12 Y2 3.414246 1_555
Y12 Y4 3.555457 1_565
Y12 Y8 3.555458 1_565
Y12 Y9 3.569598 1_555
Y12 Y5 3.569598 1_555
Y12 Y15 3.613844 1_555
Y12 Y14 3.628003 1_555
Y13 Y3 3.464094 1_556
Y13 Y5 3.552835 1_655
Y13 Y9 3.552835 1_556
Y13 Y15 3.597877 1_555
Y13 Y14 3.613844 1_555
Y13 Y4 3.621109 1_556
Y13 Y8 3.621109 1_655
Y14 Y4 3.555458 1_556
Y14 Y6 3.555458 1_556
Y14 Y5 3.569598 1_555
Y14 Y7 3.569598 1_555
Y15 Y3 3.464094 1_565
Y15 Y2 3.464094 1_655
Y15 Y5 3.552835 1_655
Y15 Y7 3.552835 1_565
Y15 Y4 3.621109 1_565
Y15 Y6 3.621109 1_655
Al0 Al1 2.976993 1_555
Al0 Al2 2.976994 1_555
Al0 Al3 2.976994 1_555
Al0 Y14 3.314423 1_555
Al0 Y12 3.314424 1_555
Al0 Y10 3.314424 1_555
Al0 Y1 3.325193 1_555
Al0 Y2 3.325194 1_555
Al0 Y3 3.325194 1_555
Al0 Y9 3.453872 1_555
Al0 Y7 3.453873 1_555
Al0 Y5 3.453873 1_555
Al1 Al2 2.982068 1_555
Al1 Al3 2.982069 1_555
Al1 Y14 3.281744 1_554
Al1 Y11 3.326389 1_554
Al1 Y13 3.326389 1_554
Al1 Y2 3.345960 1_555
Al1 Y3 3.345960 1_555
Al1 Y0 3.373507 1_555
Al1 Y4 3.427188 1_555
Al1 Y6 3.427188 1_555
Al1 Y9 3.457533 1_555
Al2 Al3 2.982069 1_555
Al2 Y12 3.281744 1_545
Al2 Y11 3.326389 1_545
Al2 Y15 3.326389 1_545
Al2 Y1 3.345959 1_555
Al2 Y3 3.345960 1_555
Al2 Y0 3.373507 1_555
Al2 Y4 3.427188 1_555
Al2 Y8 3.427188 1_555
Al2 Y7 3.457533 1_555
Al3 Y10 3.281744 1_455
Al3 Y13 3.326389 1_455
Al3 Y15 3.326389 1_455
Al3 Y1 3.345959 1_555
Al3 Y2 3.345959 1_555
Al3 Y0 3.373507 1_555
Al3 Y6 3.427188 1_555
Al3 Y8 3.427188 1_555
Al3 Y5 3.457533 1_555
Ir0 Y8 2.781618 1_555
Ir0 Y5 2.800615 1_545
Ir0 Y7 2.800615 1_455
Ir0 Y3 2.838498 1_455
Ir0 Y2 2.838498 1_545
Ir0 Y0 2.848075 1_555
Ir0 Y15 3.376742 1_445
Ir0 Y10 3.476031 1_455
Ir0 Y12 3.476032 1_545
Ir1 Y6 2.781618 1_555
Ir1 Y5 2.800614 1_554
Ir1 Y9 2.800615 1_455
Ir1 Y3 2.838497 1_455
Ir1 Y1 2.838498 1_554
Ir1 Y0 2.848075 1_555
Ir1 Y13 3.376742 1_454
Ir1 Y10 3.476031 1_455
Ir1 Y14 3.476031 1_554
Ir2 Y4 2.781618 1_555
Ir2 Y7 2.800614 1_554
Ir2 Y9 2.800615 1_545
Ir2 Y2 2.838497 1_545
Ir2 Y1 2.838498 1_554
Ir2 Y0 2.848075 1_555
Ir2 Y11 3.376742 1_544
Ir2 Y12 3.476031 1_545
Ir2 Y14 3.476031 1_554
Pd0 Y8 2.857363 1_554
Pd0 Y6 2.857363 1_545
Pd0 Y4 2.857363 1_455
Pd0 Y1 2.877223 1_554
Pd0 Y2 2.877223 1_545
Pd0 Y3 2.877223 1_455
Pd0 Y15 3.478131 1_445
Pd0 Y13 3.478132 1_454
Pd0 Y11 3.478132 1_544
