# generated using pymatgen
data_CsLi3Lu2S5
_symmetry_space_group_name_H-M   'P 1'
_cell_length_a   3.93560020
_cell_length_b   7.55245317
_cell_length_c   16.57514203
_cell_angle_alpha   90.00000000
_cell_angle_beta   90.00000000
_cell_angle_gamma   74.89723409
_symmetry_Int_Tables_number   1
_chemical_formula_structural   CsLi3Lu2S5
_chemical_formula_sum   'Cs2 Li6 Lu4 S10'
_cell_volume   475.65337545
_cell_formula_units_Z   2
loop_
 _symmetry_equiv_pos_site_id
 _symmetry_equiv_pos_as_xyz
  1  'x, y, z'
loop_
 _atom_site_type_symbol
 _atom_site_label
 _atom_site_symmetry_multiplicity
 _atom_site_fract_x
 _atom_site_fract_y
 _atom_site_fract_z
 _atom_site_occupancy
  Cs  Cs0  1  0.93099507  0.13801086  0.25000000  1
  Cs  Cs1  1  0.06900493  0.86198914  0.75000000  1
  Li  Li0  1  0.41978430  0.16042940  0.04276895  1
  Li  Li1  1  0.64173092  0.71653915  0.25000000  1
  Li  Li2  1  0.41978430  0.16042940  0.45723205  1
  Li  Li3  1  0.58021570  0.83957060  0.54276795  1
  Li  Li4  1  0.35826908  0.28346085  0.75000000  1
  Li  Li5  1  0.58021570  0.83957060  0.95723205  1
  Lu  Lu0  1  0.19497255  0.61005389  0.09450530  1
  Lu  Lu1  1  0.19497255  0.61005389  0.40549470  1
  Lu  Lu2  1  0.80502745  0.38994611  0.59450530  1
  Lu  Lu3  1  0.80502745  0.38994611  0.90549470  1
  S  S0  1  0.82174571  0.35650957  0.06705900  1
  S  S1  1  0.57209015  0.85582171  0.10847603  1
  S  S2  1  0.22955359  0.54088981  0.25000000  1
  S  S3  1  0.57209015  0.85582171  0.39152297  1
  S  S4  1  0.82174571  0.35650957  0.43294100  1
  S  S5  1  0.17825329  0.64349043  0.56706000  1
  S  S6  1  0.42790885  0.14417929  0.60847603  1
  S  S7  1  0.77044541  0.45911119  0.75000000  1
  S  S8  1  0.42790885  0.14417929  0.89152297  1
  S  S9  1  0.17825329  0.64349043  0.93294100  1
loop_
_geom_bond_atom_site_label_1
_geom_bond_atom_site_label_2
_geom_bond_distance
_geom_bond_site_symmetry_2
Cs0 S4 3.425343 1_555
Cs0 S0 3.425343 1_555
Cs0 S2 3.535798 1_655
Cs0 S2 3.535807 1_555
Cs0 S3 3.688982 1_545
Cs0 S3 3.688984 1_645
Cs0 S1 3.688992 1_545
Cs0 S1 3.688994 1_645
Cs1 S5 3.425329 1_555
Cs1 S9 3.425343 1_555
Cs1 S7 3.535793 1_455
Cs1 S7 3.535800 1_555
Cs1 S8 3.688985 1_565
Cs1 S8 3.688989 1_465
Cs1 S6 3.688995 1_565
Cs1 S6 3.688999 1_465
Li0 S0 2.465453 1_455
Li0 S0 2.465462 1_555
Li0 S1 2.473726 1_545
Li0 S8 2.509722 1_554
Li1 S2 2.347884 1_655
Li1 S2 2.347898 1_555
Li1 S3 2.556175 1_555
Li1 S1 2.556190 1_555
Li2 S4 2.465455 1_455
Li2 S4 2.465465 1_555
Li2 S3 2.473741 1_545
Li2 S6 2.509689 1_555
Li3 S5 2.465455 1_655
Li3 S5 2.465471 1_555
Li3 S6 2.473740 1_565
Li3 S3 2.509706 1_555
Li4 S7 2.347890 1_455
Li4 S7 2.347900 1_555
Li4 S8 2.556172 1_555
Li4 S6 2.556188 1_555
Li5 S9 2.465452 1_655
Li5 S9 2.465468 1_555
Li5 S8 2.473747 1_565
Li5 S1 2.509689 1_556
Lu0 S2 2.626224 1_555
Lu0 S1 2.671561 1_455
Lu0 S1 2.671570 1_555
Lu0 S9 2.689027 1_554
Lu0 S0 2.738070 1_455
Lu0 S0 2.738075 1_555
Lu1 S2 2.626224 1_555
Lu1 S3 2.671563 1_455
Lu1 S3 2.671571 1_555
Lu1 S5 2.689043 1_555
Lu1 S4 2.738070 1_455
Lu1 S4 2.738075 1_555
Lu2 S7 2.626225 1_555
Lu2 S6 2.671555 1_655
Lu2 S6 2.671567 1_555
Lu2 S4 2.689027 1_555
Lu2 S5 2.738064 1_655
Lu2 S5 2.738075 1_555
Lu3 S7 2.626225 1_555
Lu3 S8 2.671556 1_655
Lu3 S8 2.671568 1_555
Lu3 S0 2.689027 1_556
Lu3 S9 2.738067 1_655
Lu3 S9 2.738078 1_555
