# generated using pymatgen
data_Ta3Al2CrC
_symmetry_space_group_name_H-M   'P 1'
_cell_length_a   8.26607126
_cell_length_b   8.26607145
_cell_length_c   8.26607049
_cell_angle_alpha   59.99999990
_cell_angle_beta   59.99999911
_cell_angle_gamma   60.00000249
_symmetry_Int_Tables_number   1
_chemical_formula_structural   Ta3Al2CrC
_chemical_formula_sum   'Ta12 Al8 Cr4 C4'
_cell_volume   399.37641228
_cell_formula_units_Z   4
loop_
 _symmetry_equiv_pos_site_id
 _symmetry_equiv_pos_as_xyz
  1  'x, y, z'
loop_
 _atom_site_type_symbol
 _atom_site_label
 _atom_site_symmetry_multiplicity
 _atom_site_fract_x
 _atom_site_fract_y
 _atom_site_fract_z
 _atom_site_occupancy
  Ta  Ta0  1  0.55745536  0.94254464  0.55745536  1
  Ta  Ta1  1  0.30745536  0.69254464  0.69254464  1
  Ta  Ta2  1  0.69254464  0.30745536  0.30745536  1
  Ta  Ta3  1  0.30745536  0.69254464  0.30745536  1
  Ta  Ta4  1  0.69254464  0.69254464  0.30745536  1
  Ta  Ta5  1  0.30745536  0.30745536  0.69254464  1
  Ta  Ta6  1  0.55745536  0.55745536  0.94254464  1
  Ta  Ta7  1  0.94254464  0.55745536  0.55745536  1
  Ta  Ta8  1  0.55745536  0.94254464  0.94254464  1
  Ta  Ta9  1  0.94254464  0.94254464  0.55745536  1
  Ta  Ta10  1  0.69254464  0.30745536  0.69254464  1
  Ta  Ta11  1  0.94254464  0.55745536  0.94254464  1
  Al  Al0  1  0.91541793  0.91541793  0.91541793  1
  Al  Al1  1  0.99625180  0.33458207  0.33458207  1
  Al  Al2  1  0.33458207  0.99625180  0.33458207  1
  Al  Al3  1  0.33458207  0.33458207  0.99625180  1
  Al  Al4  1  0.91541793  0.25374820  0.91541793  1
  Al  Al5  1  0.91541793  0.91541793  0.25374820  1
  Al  Al6  1  0.25374820  0.91541793  0.91541793  1
  Al  Al7  1  0.33458207  0.33458207  0.33458207  1
  Cr  Cr0  1  0.12500000  0.12500000  0.12500000  1
  Cr  Cr1  1  0.62500000  0.12500000  0.12500000  1
  Cr  Cr2  1  0.12500000  0.62500000  0.12500000  1
  Cr  Cr3  1  0.12500000  0.12500000  0.62500000  1
  C  C0  1  0.62500000  0.62500000  0.62500000  1
  C  C1  1  0.12500000  0.62500000  0.62500000  1
  C  C2  1  0.62500000  0.12500000  0.62500000  1
  C  C3  1  0.62500000  0.62500000  0.12500000  1
loop_
_geom_bond_atom_site_label_1
_geom_bond_atom_site_label_2
_geom_bond_distance
_geom_bond_site_symmetry_2
Al0 Cr3 2.539497 1_665
Al0 Cr1 2.539497 1_566
Al0 Cr2 2.539497 1_656
Al0 Ta9 2.753037 1_555
Al0 Ta8 2.753037 1_555
Al0 Ta11 2.753037 1_555
Al0 Al5 2.796662 1_556
Al0 Al6 2.796662 1_655
Al0 Al4 2.796662 1_565
Al0 Ta4 2.956915 1_556
Al0 Ta1 2.956915 1_655
Al0 Ta10 2.956915 1_565
Al1 Cr0 2.539493 1_655
Al1 Cr3 2.539506 1_655
Al1 Cr2 2.539506 1_655
Al1 Ta2 2.753021 1_555
Al1 Ta10 2.753030 1_555
Al1 Ta4 2.753030 1_555
Al1 Al3 2.796662 1_654
Al1 Al7 2.796662 1_655
Al1 Al2 2.796662 1_645
Al1 Ta11 2.956908 1_554
Al1 Ta9 2.956909 1_545
Al1 Ta7 2.956923 1_555
Al2 Cr0 2.539493 1_565
Al2 Cr3 2.539506 1_565
Al2 Cr1 2.539506 1_565
Al2 Ta3 2.753021 1_555
Al2 Ta1 2.753030 1_555
Al2 Ta4 2.753030 1_555
Al2 Al3 2.796662 1_564
Al2 Al7 2.796662 1_565
Al2 Ta8 2.956908 1_554
Al2 Ta9 2.956908 1_455
Al2 Ta0 2.956923 1_555
Al3 Cr0 2.539493 1_556
Al3 Cr1 2.539506 1_556
Al3 Cr2 2.539506 1_556
Al3 Ta5 2.753021 1_555
Al3 Ta10 2.753030 1_555
Al3 Ta1 2.753030 1_555
Al3 Al7 2.796662 1_556
Al3 Ta11 2.956909 1_455
Al3 Ta8 2.956909 1_545
Al3 Ta6 2.956923 1_555
Al4 Cr0 2.539493 1_656
Al4 Cr3 2.539506 1_655
Al4 Cr1 2.539506 1_556
Al4 Ta11 2.753021 1_555
Al4 Ta7 2.753030 1_555
Al4 Ta6 2.753030 1_555
Al4 Al5 2.796662 1_546
Al4 Al6 2.796662 1_645
Al4 Ta2 2.956908 1_556
Al4 Ta5 2.956908 1_655
Al4 Ta10 2.956923 1_555
Al5 Cr0 2.539493 1_665
Al5 Cr1 2.539506 1_565
Al5 Cr2 2.539506 1_655
Al5 Ta9 2.753021 1_555
Al5 Ta0 2.753030 1_555
Al5 Ta7 2.753030 1_555
Al5 Al6 2.796662 1_654
Al5 Ta3 2.956909 1_655
Al5 Ta2 2.956909 1_565
Al5 Ta4 2.956923 1_555
Al6 Cr0 2.539493 1_566
Al6 Cr3 2.539506 1_565
Al6 Cr2 2.539506 1_556
Al6 Ta8 2.753021 1_555
Al6 Ta0 2.753030 1_555
Al6 Ta6 2.753030 1_555
Al6 Ta3 2.956908 1_556
Al6 Ta5 2.956909 1_565
Al6 Ta1 2.956923 1_555
Al7 Cr3 2.539497 1_555
Al7 Cr1 2.539497 1_555
Al7 Cr2 2.539497 1_555
Al7 Ta5 2.753037 1_555
Al7 Ta2 2.753037 1_555
Al7 Ta3 2.753037 1_555
Al7 Ta6 2.956915 1_554
Al7 Ta7 2.956915 1_455
Al7 Ta0 2.956915 1_545
Cr0 Ta9 2.969808 1_445
Cr0 Ta5 2.969808 1_554
Cr0 Ta8 2.969809 1_544
Cr0 Ta2 2.969809 1_455
Cr0 Ta11 2.969809 1_454
Cr0 Ta3 2.969809 1_545
Cr1 Ta0 2.969808 1_545
Cr1 Ta10 2.969808 1_554
Cr1 Ta2 2.969809 1_555
Cr1 Ta8 2.969809 1_544
Cr1 Ta6 2.969809 1_554
Cr1 Ta4 2.969809 1_545
Cr2 Ta7 2.969808 1_455
Cr2 Ta1 2.969808 1_554
Cr2 Ta3 2.969809 1_555
Cr2 Ta11 2.969809 1_454
Cr2 Ta6 2.969809 1_554
Cr2 Ta4 2.969809 1_455
Cr3 Ta5 2.969809 1_555
Cr3 Ta9 2.969809 1_445
Cr3 Ta0 2.969809 1_545
Cr3 Ta10 2.969809 1_455
Cr3 Ta7 2.969809 1_455
Cr3 Ta1 2.969809 1_545
C0 Ta6 2.212229 1_555
C0 Ta4 2.212229 1_555
C0 Ta7 2.212229 1_555
C0 Ta1 2.212229 1_555
C0 Ta0 2.212229 1_555
C0 Ta10 2.212229 1_555
C1 Ta11 2.212229 1_455
C1 Ta3 2.212229 1_555
C1 Ta1 2.212229 1_555
C1 Ta7 2.212229 1_455
C1 Ta9 2.212229 1_455
C1 Ta5 2.212229 1_555
C2 Ta8 2.212229 1_545
C2 Ta2 2.212229 1_555
C2 Ta10 2.212229 1_555
C2 Ta0 2.212229 1_545
C2 Ta9 2.212229 1_545
C2 Ta5 2.212229 1_555
C3 Ta4 2.212229 1_555
C3 Ta6 2.212229 1_554
C3 Ta11 2.212229 1_554
C3 Ta3 2.212229 1_555
C3 Ta8 2.212229 1_554
C3 Ta2 2.212229 1_555
