# generated using pymatgen
data_Sc(BeCu2)4
_symmetry_space_group_name_H-M   'P 1'
_cell_length_a   6.10137982
_cell_length_b   6.10138031
_cell_length_c   6.10137930
_cell_angle_alpha   97.78474933
_cell_angle_beta   97.78475085
_cell_angle_gamma   136.81069159
_symmetry_Int_Tables_number   1
_chemical_formula_structural   Sc(BeCu2)4
_chemical_formula_sum   'Sc1 Be4 Cu8'
_cell_volume   144.54257313
_cell_formula_units_Z   1
loop_
 _symmetry_equiv_pos_site_id
 _symmetry_equiv_pos_as_xyz
  1  'x, y, z'
loop_
 _atom_site_type_symbol
 _atom_site_label
 _atom_site_symmetry_multiplicity
 _atom_site_fract_x
 _atom_site_fract_y
 _atom_site_fract_z
 _atom_site_occupancy
  Sc  Sc0  1  0.00000000  0.00000000  0.00000000  1
  Be  Be0  1  0.50000100  0.00000000  0.00000000  1
  Be  Be1  1  0.00000000  0.50000100  0.00000000  1
  Be  Be2  1  0.00000000  0.00000000  0.50000100  1
  Be  Be3  1  0.50000100  0.50000100  0.50000100  1
  Cu  Cu0  1  0.71930605  0.49999900  0.21930705  1
  Cu  Cu1  1  0.49999900  0.71930605  0.21930705  1
  Cu  Cu2  1  0.34911915  0.00000000  0.34911915  1
  Cu  Cu3  1  0.00000000  0.34911915  0.34911915  1
  Cu  Cu4  1  0.65088085  1.00000000  0.65088085  1
  Cu  Cu5  1  1.00000000  0.65088085  0.65088085  1
  Cu  Cu6  1  0.50000000  0.28069295  0.78069295  1
  Cu  Cu7  1  0.28069295  0.50000000  0.78069295  1
loop_
_geom_bond_atom_site_label_1
_geom_bond_atom_site_label_2
_geom_bond_distance
_geom_bond_site_symmetry_2
Be0 Be1 2.245539 1_545
Be0 Be1 2.245539 1_655
Be0 Cu7 2.311771 1_544
Be0 Cu1 2.311773 1_545
Be0 Cu0 2.311775 1_555
Be0 Cu6 2.311777 1_554
Be0 Cu3 2.432291 1_655
Be0 Cu4 2.432292 1_544
Be0 Cu5 2.432297 1_444
Be0 Cu2 2.432298 1_555
Be1 Cu6 2.311771 1_454
Be1 Cu0 2.311773 1_455
Be1 Cu1 2.311774 1_555
Be1 Cu7 2.311777 1_554
Be1 Cu2 2.432292 1_565
Be1 Cu5 2.432292 1_454
Be1 Cu4 2.432298 1_444
Be1 Cu3 2.432298 1_555
Be2 Be3 2.245534 1_445
Be2 Be3 2.245543 1_555
Be2 Cu6 2.311771 1_555
Be2 Cu7 2.311771 1_555
Be2 Cu1 2.311779 1_445
Be2 Cu0 2.311779 1_445
Be2 Cu4 2.432292 1_445
Be2 Cu5 2.432292 1_445
Be2 Cu2 2.432298 1_555
Be2 Cu3 2.432298 1_555
Be3 Cu7 2.311771 1_555
Be3 Cu6 2.311771 1_555
Be3 Cu0 2.311775 1_555
Be3 Cu1 2.311775 1_555
Be3 Cu5 2.432292 1_555
Be3 Cu4 2.432292 1_555
Be3 Cu3 2.432298 1_555
Be3 Cu2 2.432298 1_555
Cu0 Cu2 2.475301 1_555
Cu0 Cu2 2.475309 1_665
Cu0 Cu6 2.488314 1_554
Cu0 Cu1 2.488314 1_555
Cu0 Cu5 2.556732 1_555
Cu0 Cu3 2.556732 1_655
Cu0 Sc0 2.852766 1_555
Cu0 Sc0 2.852774 1_665
Cu1 Cu3 2.475301 1_555
Cu1 Cu3 2.475309 1_665
Cu1 Cu7 2.488314 1_554
Cu1 Cu4 2.556732 1_555
Cu1 Cu2 2.556732 1_565
Cu1 Sc0 2.852767 1_555
Cu1 Sc0 2.852774 1_665
Cu2 Cu4 2.421039 1_545
Cu2 Cu6 2.556732 1_555
Cu2 Sc0 2.800988 1_555
Cu2 Cu5 2.823678 1_555
Cu2 Cu3 2.823678 1_655
Cu2 Cu5 2.823678 1_445
Cu2 Cu3 2.823678 1_545
Cu3 Cu5 2.421039 1_455
Cu3 Cu7 2.556732 1_555
Cu3 Sc0 2.800988 1_555
Cu3 Cu4 2.823678 1_555
Cu3 Cu4 2.823678 1_445
Cu4 Cu7 2.475305 1_665
Cu4 Cu7 2.475305 1_555
Cu4 Cu6 2.556732 1_565
Cu4 Sc0 2.800988 1_666
Cu4 Cu5 2.823678 1_455
Cu4 Cu5 2.823678 1_565
Cu5 Cu6 2.475305 1_555
Cu5 Cu6 2.475305 1_665
Cu5 Cu7 2.556732 1_655
Cu5 Sc0 2.800988 1_666
Cu6 Cu7 2.488314 1_555
Cu6 Sc0 2.852770 1_556
Cu6 Sc0 2.852770 1_666
Cu7 Sc0 2.852770 1_666
Cu7 Sc0 2.852770 1_556
