# generated using pymatgen
data_Mn
_symmetry_space_group_name_H-M   'P 1'
_cell_length_a   7.88690821
_cell_length_b   7.88690821
_cell_length_c   7.88690821
_cell_angle_alpha   109.47122063
_cell_angle_beta   109.47122063
_cell_angle_gamma   109.47122063
_symmetry_Int_Tables_number   1
_chemical_formula_structural   Mn
_chemical_formula_sum   Mn29
_cell_volume   377.65780884
_cell_formula_units_Z   29
loop_
 _symmetry_equiv_pos_site_id
 _symmetry_equiv_pos_as_xyz
  1  'x, y, z'
loop_
 _atom_site_type_symbol
 _atom_site_label
 _atom_site_symmetry_multiplicity
 _atom_site_fract_x
 _atom_site_fract_y
 _atom_site_fract_z
 _atom_site_occupancy
  Mn  Mn0  1  0.00000000  0.00000000  0.00000000  1
  Mn  Mn1  1  0.64454385  0.64454385  0.64454385  1
  Mn  Mn2  1  0.00000000  -0.00000000  0.35545615  1
  Mn  Mn3  1  0.35545615  -0.00000000  -0.00000000  1
  Mn  Mn4  1  0.00000000  0.35545615  -0.00000000  1
  Mn  Mn5  1  0.40254236  0.71904778  0.40254236  1
  Mn  Mn6  1  0.31650543  0.00000000  0.59745764  1
  Mn  Mn7  1  0.59745764  -0.00000000  0.31650543  1
  Mn  Mn8  1  0.31650543  0.59745764  0.00000000  1
  Mn  Mn9  1  0.68349457  0.68349457  0.28095222  1
  Mn  Mn10  1  0.28095222  0.68349457  0.68349457  1
  Mn  Mn11  1  -0.00000000  0.59745764  0.31650543  1
  Mn  Mn12  1  -0.00000000  0.31650543  0.59745764  1
  Mn  Mn13  1  0.59745764  0.31650543  -0.00000000  1
  Mn  Mn14  1  0.40254236  0.40254236  0.71904778  1
  Mn  Mn15  1  0.71904778  0.40254236  0.40254236  1
  Mn  Mn16  1  0.68349457  0.28095222  0.68349457  1
  Mn  Mn17  1  0.37762628  0.18636344  0.37762628  1
  Mn  Mn18  1  0.80873716  0.00000000  0.62237372  1
  Mn  Mn19  1  0.62237372  -0.00000000  0.80873716  1
  Mn  Mn20  1  0.80873716  0.62237372  -0.00000000  1
  Mn  Mn21  1  0.19126284  0.19126284  0.81363656  1
  Mn  Mn22  1  0.81363656  0.19126284  0.19126284  1
  Mn  Mn23  1  0.00000000  0.62237372  0.80873716  1
  Mn  Mn24  1  -0.00000000  0.80873716  0.62237372  1
  Mn  Mn25  1  0.62237372  0.80873716  0.00000000  1
  Mn  Mn26  1  0.37762628  0.37762628  0.18636344  1
  Mn  Mn27  1  0.18636344  0.37762628  0.37762628  1
  Mn  Mn28  1  0.19126284  0.81363656  0.19126284  1
loop_
_geom_bond_atom_site_label_1
_geom_bond_atom_site_label_2
_geom_bond_distance
_geom_bond_site_symmetry_2
Mn0 Mn1 2.803450 1_444
Mn0 Mn3 2.803450 1_555
Mn0 Mn4 2.803450 1_555
Mn0 Mn2 2.803450 1_555
Mn0 Mn27 2.854935 1_555
Mn0 Mn19 2.854935 1_454
Mn0 Mn26 2.854935 1_555
Mn0 Mn23 2.854935 1_544
Mn0 Mn24 2.854935 1_544
Mn0 Mn17 2.854935 1_555
Mn0 Mn18 2.854935 1_454
Mn0 Mn22 2.854935 1_455
Mn0 Mn25 2.854935 1_445
Mn0 Mn28 2.854935 1_545
Mn0 Mn21 2.854935 1_554
Mn0 Mn20 2.854935 1_445
Mn1 Mn5 2.588026 1_555
Mn1 Mn14 2.588026 1_555
Mn1 Mn15 2.588026 1_555
Mn1 Mn24 2.761223 1_655
Mn1 Mn19 2.761223 1_565
Mn1 Mn23 2.761223 1_655
Mn1 Mn20 2.761223 1_556
Mn1 Mn18 2.761223 1_565
Mn1 Mn25 2.761223 1_556
Mn1 Mn26 2.970557 1_555
Mn1 Mn17 2.970557 1_555
Mn1 Mn27 2.970557 1_555
Mn1 Mn9 3.086036 1_555
Mn1 Mn10 3.086036 1_555
Mn1 Mn16 3.086036 1_555
Mn2 Mn6 2.588026 1_555
Mn2 Mn9 2.588026 1_445
Mn2 Mn27 2.761223 1_555
Mn2 Mn22 2.761223 1_455
Mn2 Mn25 2.761223 1_445
Mn2 Mn28 2.761223 1_545
Mn2 Mn20 2.761223 1_445
Mn2 Mn21 2.970557 1_555
Mn2 Mn24 2.970557 1_545
Mn2 Mn7 3.086036 1_455
Mn3 Mn7 2.588026 1_555
Mn3 Mn8 3.086036 1_545
Mn3 Mn6 3.086036 1_554
Mn4 Mn8 2.588026 1_555
Mn4 Mn5 3.086036 1_555
Mn5 Mn6 2.675922 1_565
Mn5 Mn7 2.675922 1_565
Mn5 Mn9 2.749508 1_555
Mn5 Mn8 2.749508 1_555
Mn7 Mn8 2.749508 1_545
Mn7 Mn9 2.749508 1_545
Mn8 Mn9 2.675922 1_555
Mn10 Mn27 2.432341 1_555
Mn10 Mn25 2.561184 1_556
Mn10 Mn19 2.561184 1_565
Mn10 Mn3 2.588026 1_566
Mn10 Mn12 2.675922 1_555
Mn10 Mn11 2.675922 1_555
Mn10 Mn23 2.680029 1_555
Mn10 Mn24 2.680029 1_555
Mn10 Mn14 2.749508 1_555
Mn10 Mn5 2.749508 1_555
Mn10 Mn8 2.749508 1_556
Mn10 Mn6 2.749508 1_565
Mn11 Mn24 2.432341 1_555
Mn11 Mn28 2.561184 1_555
Mn11 Mn20 2.561184 1_455
Mn11 Mn4 2.588026 1_555
Mn11 Mn15 2.675922 1_455
Mn11 Mn22 2.680029 1_455
Mn11 Mn27 2.680029 1_555
Mn11 Mn13 2.749508 1_455
Mn11 Mn6 2.749508 1_565
Mn11 Mn5 2.749508 1_555
Mn11 Mn9 2.749508 1_455
Mn11 Mn2 3.086036 1_565
Mn12 Mn23 2.432341 1_555
Mn12 Mn21 2.561184 1_555
Mn12 Mn18 2.561184 1_455
Mn12 Mn2 2.588026 1_555
Mn12 Mn15 2.675922 1_455
Mn12 Mn22 2.680029 1_455
Mn12 Mn27 2.680029 1_555
Mn12 Mn7 2.749508 1_455
Mn12 Mn8 2.749508 1_556
Mn12 Mn14 2.749508 1_555
Mn12 Mn16 2.749508 1_455
Mn12 Mn4 3.086036 1_556
Mn13 Mn20 2.432341 1_555
Mn13 Mn22 2.561184 1_555
Mn13 Mn19 2.561184 1_554
Mn13 Mn3 2.588026 1_555
Mn13 Mn9 2.675922 1_555
Mn13 Mn14 2.675922 1_554
Mn13 Mn26 2.680029 1_555
Mn13 Mn21 2.680029 1_554
Mn13 Mn6 2.749508 1_554
Mn13 Mn16 2.749508 1_554
Mn13 Mn15 2.749508 1_555
Mn13 Mn4 3.086036 1_655
Mn14 Mn21 2.432341 1_555
Mn14 Mn17 2.561184 1_555
Mn14 Mn27 2.561184 1_555
Mn14 Mn8 2.675922 1_556
Mn14 Mn25 2.680029 1_556
Mn14 Mn20 2.680029 1_556
Mn14 Mn16 2.749508 1_555
Mn14 Mn6 2.749508 1_555
Mn14 Mn2 3.086036 1_555
Mn15 Mn22 2.432341 1_555
Mn15 Mn26 2.561184 1_555
Mn15 Mn17 2.561184 1_555
Mn15 Mn24 2.680029 1_655
Mn15 Mn23 2.680029 1_655
Mn15 Mn9 2.749508 1_555
Mn15 Mn16 2.749508 1_555
Mn15 Mn7 2.749508 1_555
Mn15 Mn3 3.086036 1_555
Mn16 Mn17 2.432341 1_555
Mn16 Mn20 2.561184 1_556
Mn16 Mn23 2.561184 1_655
Mn16 Mn4 2.588026 1_656
Mn16 Mn6 2.675922 1_555
Mn16 Mn7 2.675922 1_555
Mn16 Mn18 2.680029 1_555
Mn16 Mn19 2.680029 1_555
Mn17 Mn28 2.400225 1_545
Mn17 Mn27 2.463325 1_555
Mn17 Mn26 2.463325 1_555
Mn17 Mn7 2.680029 1_555
Mn17 Mn6 2.680029 1_555
Mn17 Mn2 2.761223 1_555
Mn17 Mn3 2.761223 1_555
Mn18 Mn19 2.400225 1_555
Mn18 Mn7 2.432341 1_555
Mn18 Mn21 2.463325 1_655
Mn18 Mn24 2.463325 1_645
Mn18 Mn9 2.561184 1_545
Mn18 Mn5 2.680029 1_545
Mn18 Mn4 2.761223 1_656
Mn18 Mn2 2.970557 1_655
Mn19 Mn6 2.432341 1_555
Mn19 Mn22 2.463325 1_556
Mn19 Mn25 2.463325 1_546
Mn19 Mn5 2.680029 1_545
Mn19 Mn4 2.761223 1_656
Mn19 Mn3 2.970557 1_556
Mn20 Mn25 2.400225 1_555
Mn20 Mn28 2.463325 1_655
Mn20 Mn23 2.463325 1_654
Mn20 Mn9 2.680029 1_555
Mn20 Mn4 2.970557 1_655
Mn21 Mn26 2.400225 1_556
Mn21 Mn24 2.463325 1_545
Mn21 Mn6 2.561184 1_555
Mn21 Mn8 2.680029 1_556
Mn21 Mn3 2.761223 1_556
Mn21 Mn4 2.761223 1_556
Mn22 Mn27 2.400225 1_655
Mn22 Mn25 2.463325 1_545
Mn22 Mn7 2.561184 1_555
Mn22 Mn4 2.761223 1_655
Mn22 Mn3 2.970557 1_555
Mn23 Mn24 2.400225 1_555
Mn23 Mn28 2.463325 1_556
Mn23 Mn8 2.561184 1_556
Mn23 Mn3 2.761223 1_566
Mn23 Mn4 2.970557 1_556
Mn24 Mn9 2.561184 1_455
Mn24 Mn6 2.561184 1_565
Mn24 Mn3 2.761223 1_566
Mn25 Mn8 2.432341 1_555
Mn25 Mn7 2.561184 1_565
Mn25 Mn9 2.680029 1_555
Mn25 Mn3 2.970557 1_565
Mn26 Mn9 2.432341 1_555
Mn26 Mn27 2.463325 1_555
Mn26 Mn5 2.561184 1_555
Mn26 Mn8 2.680029 1_555
Mn26 Mn4 2.761223 1_555
Mn26 Mn3 2.761223 1_555
Mn27 Mn5 2.561184 1_555
Mn27 Mn4 2.761223 1_555
Mn28 Mn5 2.432341 1_555
Mn28 Mn8 2.561184 1_555
Mn28 Mn7 2.680029 1_565
Mn28 Mn6 2.680029 1_565
Mn28 Mn3 2.761223 1_565
Mn28 Mn4 2.970557 1_555
