# generated using pymatgen
data_Tb(CuSi)2
_symmetry_space_group_name_H-M   'P 1'
_cell_length_a   3.97745181
_cell_length_b   3.97745137
_cell_length_c   5.67564818
_cell_angle_alpha   110.51157534
_cell_angle_beta   110.51156101
_cell_angle_gamma   89.99999392
_symmetry_Int_Tables_number   1
_chemical_formula_structural   Tb(CuSi)2
_chemical_formula_sum   'Tb1 Cu2 Si2'
_cell_volume   77.99000649
_cell_formula_units_Z   1
loop_
 _symmetry_equiv_pos_site_id
 _symmetry_equiv_pos_as_xyz
  1  'x, y, z'
loop_
 _atom_site_type_symbol
 _atom_site_label
 _atom_site_symmetry_multiplicity
 _atom_site_fract_x
 _atom_site_fract_y
 _atom_site_fract_z
 _atom_site_occupancy
  Tb  Tb0  1  -0.00000000  -0.00000000  -0.00000000  1
  Cu  Cu0  1  0.25000000  0.75000000  0.50000000  1
  Cu  Cu1  1  0.75000000  0.25000000  0.50000000  1
  Si  Si0  1  0.61914889  0.61914889  0.23829977  1
  Si  Si1  1  0.38085111  0.38085111  0.76170023  1
loop_
_geom_bond_atom_site_label_1
_geom_bond_atom_site_label_2
_geom_bond_distance
_geom_bond_site_symmetry_2
Cu0 Si0 2.370538 1_555
Cu0 Si1 2.370538 1_555
Cu0 Si1 2.370544 1_565
Cu0 Si0 2.370544 1_455
Cu0 Cu1 2.812483 1_465
Cu0 Cu1 2.812483 1_555
Cu0 Cu1 2.812483 1_565
Cu0 Cu1 2.812483 1_455
Cu0 Tb0 3.167137 1_555
Cu0 Tb0 3.167137 1_666
Cu0 Tb0 3.167137 1_566
Cu0 Tb0 3.167138 1_565
Cu1 Si1 2.370538 1_555
Cu1 Si0 2.370538 1_555
Cu1 Si0 2.370544 1_545
Cu1 Si1 2.370544 1_655
Cu1 Tb0 3.167137 1_666
Cu1 Tb0 3.167137 1_555
Cu1 Tb0 3.167137 1_655
Cu1 Tb0 3.167138 1_656
Si0 Si1 2.349540 1_554
Si0 Tb0 3.047968 1_555
Si0 Tb0 3.047973 1_655
Si0 Tb0 3.047974 1_565
Si0 Tb0 3.047980 1_665
Si1 Tb0 3.047968 1_666
Si1 Tb0 3.047973 1_566
Si1 Tb0 3.047974 1_656
Si1 Tb0 3.047980 1_556
