# generated using pymatgen
data_Yb5Se7
_symmetry_space_group_name_H-M   'P 1'
_cell_length_a   6.81947068
_cell_length_b   6.81947068
_cell_length_c   11.97195615
_cell_angle_alpha   76.24314739
_cell_angle_beta   76.24314739
_cell_angle_gamma   33.02891971
_symmetry_Int_Tables_number   1
_chemical_formula_structural   Yb5Se7
_chemical_formula_sum   'Yb5 Se7'
_cell_volume   293.98481273
_cell_formula_units_Z   1
loop_
 _symmetry_equiv_pos_site_id
 _symmetry_equiv_pos_as_xyz
  1  'x, y, z'
loop_
 _atom_site_type_symbol
 _atom_site_label
 _atom_site_symmetry_multiplicity
 _atom_site_fract_x
 _atom_site_fract_y
 _atom_site_fract_z
 _atom_site_occupancy
  Yb  Yb0  1  0.88757967  0.88757967  0.92218713  1
  Yb  Yb1  1  0.11242033  0.11242033  0.07781287  1
  Yb  Yb2  1  0.70039724  0.70039724  0.68636284  1
  Yb  Yb3  1  0.29960276  0.29960276  0.31363716  1
  Yb  Yb4  1  0.00000000  0.00000000  0.50000000  1
  Se  Se0  1  0.25803761  0.25803761  0.85336480  1
  Se  Se1  1  0.74196239  0.74196239  0.14663520  1
  Se  Se2  1  0.96029984  0.96029984  0.28483077  1
  Se  Se3  1  0.03970016  0.03970016  0.71516923  1
  Se  Se4  1  0.34081812  0.34081812  0.55093737  1
  Se  Se5  1  0.65918188  0.65918188  0.44906263  1
  Se  Se6  1  0.50000000  0.50000000  0.00000000  1
loop_
_geom_bond_atom_site_label_1
_geom_bond_atom_site_label_2
_geom_bond_distance
_geom_bond_site_symmetry_2
Se0 Yb0 2.828137 1_545
Se0 Yb0 2.828137 1_455
Se0 Yb1 2.882357 1_556
Se0 Yb2 3.011765 1_545
Se0 Yb2 3.011765 1_455
Se1 Yb1 2.828137 1_565
Se1 Yb1 2.828137 1_655
Se1 Yb0 2.882357 1_554
Se1 Yb3 3.011765 1_565
Se1 Yb3 3.011765 1_655
Se2 Yb4 2.751116 1_665
Se2 Yb1 2.766535 1_665
Se2 Yb3 2.816510 1_655
Se2 Yb3 2.816510 1_565
Se3 Yb4 2.751116 1_555
Se3 Yb0 2.766535 1_445
Se3 Yb2 2.816510 1_455
Se3 Yb2 2.816510 1_545
Se4 Yb4 2.798680 1_565
Se4 Yb4 2.798680 1_655
Se4 Yb2 2.877696 1_455
Se4 Yb2 2.877696 1_545
Se4 Yb3 3.020096 1_555
Se5 Yb4 2.798680 1_565
Se5 Yb4 2.798680 1_655
Se5 Yb3 2.877696 1_565
Se5 Yb3 2.877696 1_655
Se5 Yb2 3.020096 1_555
Se6 Yb1 2.732383 1_655
Se6 Yb1 2.732383 1_565
Se6 Yb0 2.732383 1_454
Se6 Yb0 2.732383 1_544
