# generated using pymatgen
data_K6ScTe4Cl
_symmetry_space_group_name_H-M   'P 1'
_cell_length_a   11.37875114
_cell_length_b   11.37875031
_cell_length_c   8.21986354
_cell_angle_alpha   90.00000000
_cell_angle_beta   90.00000000
_cell_angle_gamma   119.99999676
_symmetry_Int_Tables_number   1
_chemical_formula_structural   K6ScTe4Cl
_chemical_formula_sum   'K12 Sc2 Te8 Cl2'
_cell_volume   921.68903381
_cell_formula_units_Z   2
loop_
 _symmetry_equiv_pos_site_id
 _symmetry_equiv_pos_as_xyz
  1  'x, y, z'
loop_
 _atom_site_type_symbol
 _atom_site_label
 _atom_site_symmetry_multiplicity
 _atom_site_fract_x
 _atom_site_fract_y
 _atom_site_fract_z
 _atom_site_occupancy
  K  K0  1  0.12106245  0.87893755  0.50877114  1
  K  K1  1  0.75787309  0.87893755  0.50877114  1
  K  K2  1  0.94777015  0.47388507  0.32055225  1
  K  K3  1  0.52611493  0.47388507  0.32055225  1
  K  K4  1  0.87893755  0.75787309  0.00877114  1
  K  K5  1  0.24212691  0.12106245  0.00877114  1
  K  K6  1  0.52611493  0.05222985  0.32055225  1
  K  K7  1  0.12106245  0.24212691  0.50877114  1
  K  K8  1  0.87893755  0.12106245  0.00877114  1
  K  K9  1  0.05222985  0.52611493  0.82055225  1
  K  K10  1  0.47388507  0.94777015  0.82055225  1
  K  K11  1  0.47388507  0.52611493  0.82055225  1
  Sc  Sc0  1  0.66666700  0.33333300  0.71450621  1
  Sc  Sc1  1  0.33333300  0.66666700  0.21450621  1
  Te  Te0  1  0.40000245  0.20000222  0.60617789  1
  Te  Te1  1  0.59999755  0.79999778  0.10617789  1
  Te  Te2  1  0.66666700  0.33333300  0.05192586  1
  Te  Te3  1  0.79999778  0.59999755  0.60617789  1
  Te  Te4  1  0.20000222  0.40000245  0.10617789  1
  Te  Te5  1  0.33333300  0.66666700  0.55192586  1
  Te  Te6  1  0.20000222  0.79999778  0.10617789  1
  Te  Te7  1  0.79999778  0.20000222  0.60617789  1
  Cl  Cl0  1  0.00000000  0.00000000  0.26766909  1
  Cl  Cl1  1  0.00000000  0.00000000  0.76766909  1
loop_
_geom_bond_atom_site_label_1
_geom_bond_atom_site_label_2
_geom_bond_distance
_geom_bond_site_symmetry_2
K0 Te0 3.530780 1_565
K0 Te3 3.530780 1_455
K0 Te6 3.656733 1_555
K1 Te3 3.530780 1_555
K1 Te7 3.530780 1_565
K1 Te1 3.656716 1_555
K2 Te2 3.542440 1_555
K2 Te7 3.579321 1_555
K2 Te3 3.579336 1_555
K2 Te6 3.802894 1_655
K2 Te4 3.802908 1_655
K3 Te2 3.542447 1_555
K3 Te0 3.579321 1_555
K3 Te3 3.579321 1_555
K3 Te1 3.802888 1_555
K3 Te4 3.802888 1_555
K4 Te1 3.530780 1_555
K4 Te6 3.530780 1_655
K4 Te3 3.656716 1_554
K5 Te4 3.530780 1_555
K5 Te6 3.530780 1_545
K5 Te0 3.656716 1_554
K6 Te2 3.542439 1_555
K6 Te7 3.579322 1_555
K6 Te0 3.579336 1_555
K6 Te6 3.802895 1_545
K6 Te1 3.802908 1_545
K7 Te0 3.530780 1_555
K7 Te7 3.530780 1_455
K7 Te4 3.656716 1_555
K8 Te1 3.530780 1_545
K8 Te4 3.530780 1_655
K8 Te7 3.656733 1_554
K9 Te5 3.542440 1_555
K9 Te6 3.579321 1_556
K9 Te4 3.579336 1_556
K9 Te7 3.802894 1_455
K9 Te3 3.802908 1_455
K10 Te5 3.542439 1_555
K10 Te6 3.579322 1_556
K10 Te1 3.579336 1_556
K10 Te7 3.802895 1_565
K10 Te0 3.802908 1_565
K11 Te5 3.542447 1_555
K11 Te1 3.579321 1_556
K11 Te4 3.579321 1_556
K11 Te0 3.802888 1_555
K11 Te3 3.802888 1_555
Sc0 Te2 2.773543 1_556
Sc0 Te7 2.774529 1_555
Sc0 Te3 2.774557 1_555
Sc0 Te0 2.774557 1_555
Sc1 Te5 2.773543 1_555
Sc1 Te6 2.774529 1_555
Sc1 Te4 2.774557 1_555
Sc1 Te1 2.774557 1_555
Cl0 K0 3.101690 1_545
Cl0 K7 3.101705 1_555
Cl0 K1 3.101705 1_445
Cl0 K8 3.197136 1_455
Cl0 K4 3.197151 1_445
Cl0 K5 3.197151 1_555
Cl1 K8 3.101690 1_456
Cl1 K4 3.101705 1_446
Cl1 K5 3.101705 1_556
Cl1 K0 3.197136 1_545
Cl1 K7 3.197151 1_555
Cl1 K1 3.197151 1_445
