# generated using pymatgen
data_NaClF4
_symmetry_space_group_name_H-M   'P 1'
_cell_length_a   6.36313934
_cell_length_b   6.36314689
_cell_length_c   6.36354584
_cell_angle_alpha   127.84764162
_cell_angle_beta   127.84785901
_cell_angle_gamma   76.87212718
_symmetry_Int_Tables_number   1
_chemical_formula_structural   NaClF4
_chemical_formula_sum   'Na2 Cl2 F8'
_cell_volume   155.98327320
_cell_formula_units_Z   2
loop_
 _symmetry_equiv_pos_site_id
 _symmetry_equiv_pos_as_xyz
  1  'x, y, z'
loop_
 _atom_site_type_symbol
 _atom_site_label
 _atom_site_symmetry_multiplicity
 _atom_site_fract_x
 _atom_site_fract_y
 _atom_site_fract_z
 _atom_site_occupancy
  Na  Na0  1  0.25001622  0.24998277  0.99999950  1
  Na  Na1  1  0.74998378  0.75001723  0.00000050  1
  Cl  Cl0  1  0.50000000  0.00000000  0.50000000  1
  Cl  Cl1  1  0.00000000  0.50000000  0.50000000  1
  F  F0  1  0.46712782  0.96712791  0.17595239  1
  F  F1  1  0.20879188  0.70879140  0.17591569  1
  F  F2  1  0.53287218  0.03287209  0.82404761  1
  F  F3  1  0.03284086  0.20878104  0.49997701  1
  F  F4  1  0.79120812  0.29120860  0.82408431  1
  F  F5  1  0.29121926  0.46715955  0.50002421  1
  F  F6  1  0.96715914  0.79121896  0.50002299  1
  F  F7  1  0.70878074  0.53284045  0.49997579  1
loop_
_geom_bond_atom_site_label_1
_geom_bond_atom_site_label_2
_geom_bond_distance
_geom_bond_site_symmetry_2
Cl0 F0 1.816868 1_545
Cl0 F2 1.816868 1_555
Cl0 F4 1.816918 1_555
Cl0 F1 1.816918 1_545
Cl1 F5 1.816953 1_555
Cl1 F7 1.816953 1_455
Cl1 F6 1.816958 1_455
Cl1 F3 1.816958 1_555
F0 Na0 2.418057 1_564
F0 Na1 2.418062 1_555
F1 Na1 2.418099 1_455
F1 Na0 2.418107 1_554
F2 Na1 2.418057 1_546
F2 Na0 2.418062 1_555
F3 Na1 2.417878 1_445
F3 Na0 2.418269 1_555
F4 Na0 2.418099 1_655
F4 Na1 2.418107 1_556
F5 Na1 2.417876 1_556
F5 Na0 2.418280 1_554
F6 Na0 2.417878 1_665
F6 Na1 2.418269 1_555
F7 Na0 2.417876 1_554
F7 Na1 2.418280 1_556
