# generated using pymatgen
data_TaTiV3Re
_symmetry_space_group_name_H-M   'P 1'
_cell_length_a   5.05126189
_cell_length_b   5.05126166
_cell_length_c   5.05126130
_cell_angle_alpha   59.83139552
_cell_angle_beta   59.83139439
_cell_angle_gamma   59.83139602
_symmetry_Int_Tables_number   1
_chemical_formula_structural   TaTiV3Re
_chemical_formula_sum   'Ta1 Ti1 V3 Re1'
_cell_volume   90.78612412
_cell_formula_units_Z   1
loop_
 _symmetry_equiv_pos_site_id
 _symmetry_equiv_pos_as_xyz
  1  'x, y, z'
loop_
 _atom_site_type_symbol
 _atom_site_label
 _atom_site_symmetry_multiplicity
 _atom_site_fract_x
 _atom_site_fract_y
 _atom_site_fract_z
 _atom_site_occupancy
  Ta  Ta0  1  0.37475060  0.37475060  0.37475060  1
  Ti  Ti0  1  0.62479952  0.62479952  0.62479952  1
  V  V0  1  0.99988458  0.50057961  0.99988458  1
  V  V1  1  0.50057961  0.99988458  0.99988458  1
  V  V2  1  0.99988458  0.99988458  0.50057961  1
  Re  Re0  1  0.00010112  0.00010112  0.00010112  1
loop_
_geom_bond_atom_site_label_1
_geom_bond_atom_site_label_2
_geom_bond_distance
_geom_bond_site_symmetry_2
Ta0 V0 2.959481 1_455
Ta0 V1 2.959481 1_545
Ta0 V2 2.959481 1_455
Ta0 V1 2.959481 1_554
Ta0 V0 2.959481 1_554
Ta0 V2 2.959481 1_545
Ta0 V1 2.959641 1_544
Ta0 V0 2.959642 1_454
Ta0 V2 2.959642 1_445
Ta0 Ti0 3.086480 1_554
Ta0 Ti0 3.086480 1_545
Ta0 Ti0 3.086480 1_455
Ta0 Ti0 3.097795 1_555
Ti0 V0 2.955053 1_554
Ti0 V1 2.955053 1_554
Ti0 V2 2.955053 1_545
Ti0 V1 2.955053 1_545
Ti0 V0 2.955053 1_455
Ti0 V2 2.955053 1_455
Ti0 V1 2.965021 1_555
Ti0 V0 2.965021 1_555
Ti0 V2 2.965021 1_555
V0 V2 2.515690 1_555
V0 V1 2.515690 1_555
V0 V2 2.522693 1_546
V0 V1 2.522694 1_645
V1 V2 2.515690 1_555
V1 V2 2.522693 1_456
Re0 V2 2.524314 1_444
Re0 V0 2.524314 1_444
Re0 V1 2.524314 1_444
Re0 V2 2.526949 1_445
Re0 V0 2.526949 1_454
Re0 V1 2.526949 1_544
Re0 Ta0 2.953602 1_554
Re0 Ta0 2.953602 1_455
Re0 Ta0 2.953602 1_545
Re0 Ti0 2.955013 1_445
Re0 Ti0 2.955013 1_544
Re0 Ti0 2.955013 1_454
