# generated using pymatgen
data_K5Rb2TaAs4
_symmetry_space_group_name_H-M   'P 1'
_cell_length_a   8.45452240
_cell_length_b   9.16113320
_cell_length_c   10.44443139
_cell_angle_alpha   90.00000000
_cell_angle_beta   90.00000000
_cell_angle_gamma   90.00000000
_symmetry_Int_Tables_number   1
_chemical_formula_structural   K5Rb2TaAs4
_chemical_formula_sum   'K10 Rb4 Ta2 As8'
_cell_volume   808.95260573
_cell_formula_units_Z   2
loop_
 _symmetry_equiv_pos_site_id
 _symmetry_equiv_pos_as_xyz
  1  'x, y, z'
loop_
 _atom_site_type_symbol
 _atom_site_label
 _atom_site_symmetry_multiplicity
 _atom_site_fract_x
 _atom_site_fract_y
 _atom_site_fract_z
 _atom_site_occupancy
  K  K0  1  0.72035787  0.83572440  0.72280518  1
  K  K1  1  0.22035787  0.16427560  0.77719482  1
  K  K2  1  0.22035787  0.16427560  0.22280518  1
  K  K3  1  0.72035787  0.83572440  0.27719482  1
  K  K4  1  0.86241673  0.45459377  0.74588019  1
  K  K5  1  0.36241673  0.54540623  0.75411981  1
  K  K6  1  0.36241673  0.54540623  0.24588019  1
  K  K7  1  0.86241673  0.45459377  0.25411981  1
  K  K8  1  0.40250830  0.87690967  0.00000000  1
  K  K9  1  0.90250830  0.12309033  0.50000000  1
  Rb  Rb0  1  0.05318041  0.65276165  0.50000000  1
  Rb  Rb1  1  0.55318041  0.34723835  0.00000000  1
  Rb  Rb2  1  0.87248025  0.06828761  0.00000000  1
  Rb  Rb3  1  0.37248025  0.93171239  0.50000000  1
  Ta  Ta0  1  0.01659963  0.68152617  0.00000000  1
  Ta  Ta1  1  0.51659963  0.31847383  0.50000000  1
  As  As0  1  0.72209107  0.67759904  0.00000000  1
  As  As1  1  0.22209107  0.32240096  0.50000000  1
  As  As2  1  0.10255499  0.81522018  0.80058463  1
  As  As3  1  0.60255499  0.18477982  0.69941537  1
  As  As4  1  0.60255499  0.18477982  0.30058463  1
  As  As5  1  0.10255499  0.81522018  0.19941537  1
  As  As6  1  0.62083215  0.57575734  0.50000000  1
  As  As7  1  0.12083215  0.42424266  0.00000000  1
loop_
_geom_bond_atom_site_label_1
_geom_bond_atom_site_label_2
_geom_bond_distance
_geom_bond_site_symmetry_2
K0 Rb2 3.817744 1_566
K0 Rb3 3.852122 1_555
K1 Rb3 3.817744 1_545
K1 Rb2 3.852122 1_456
K2 Rb3 3.817744 1_545
K2 Rb2 3.852122 1_455
K3 Rb2 3.817744 1_565
K3 Rb3 3.852122 1_555
Rb0 Rb3 3.717264 1_555
Rb1 Rb2 3.717264 1_555
Rb2 Ta0 3.746828 1_645
Rb3 Ta1 3.746828 1_565
As0 Ta0 2.490189 1_655
As0 K3 3.237364 1_555
As0 K0 3.237364 1_554
As0 K8 3.261031 1_555
As0 Rb1 3.346479 1_555
As0 K7 3.553270 1_555
As0 K4 3.553270 1_554
As0 Rb2 3.798282 1_565
As1 Ta1 2.490189 1_555
As1 K1 3.237364 1_555
As1 K2 3.237364 1_555
As1 K9 3.261031 1_455
As1 Rb0 3.346479 1_555
As1 K5 3.553270 1_555
As1 K6 3.553270 1_555
As1 Rb3 3.798282 1_545
As2 Ta0 2.523131 1_556
As2 K8 3.329935 1_556
As2 K0 3.337136 1_455
As2 K5 3.342478 1_555
As2 K1 3.358153 1_565
As2 Rb0 3.499337 1_555
As2 Rb2 3.673768 1_466
As2 Rb3 4.025283 1_555
As3 Ta1 2.523131 1_555
As3 K9 3.329935 1_555
As3 K1 3.337136 1_555
As3 K4 3.342478 1_555
As3 K0 3.358153 1_545
As3 Rb1 3.499337 1_556
As3 Rb3 3.673768 1_545
As3 Rb2 4.025283 1_556
As4 Ta1 2.523131 1_555
As4 K9 3.329935 1_555
As4 K2 3.337136 1_555
As4 K7 3.342478 1_555
As4 K3 3.358153 1_545
As4 Rb1 3.499337 1_555
As4 Rb3 3.673768 1_545
As4 Rb2 4.025283 1_555
As5 Ta0 2.523131 1_555
As5 K8 3.329935 1_555
As5 K3 3.337136 1_455
As5 K6 3.342478 1_555
As5 K2 3.358153 1_565
As5 Rb0 3.499337 1_555
As5 Rb2 3.673768 1_465
As5 Rb3 4.025283 1_555
As6 Ta1 2.516360 1_555
As6 K0 3.434426 1_555
As6 K3 3.434426 1_555
As6 K5 3.448915 1_555
As6 K6 3.448915 1_555
As6 K4 3.463936 1_555
As6 K7 3.463936 1_555
As6 Rb0 3.722749 1_655
As6 Rb3 3.878470 1_555
As7 Ta0 2.516360 1_555
As7 K2 3.434426 1_555
As7 K1 3.434426 1_554
As7 K7 3.448915 1_455
As7 K4 3.448915 1_454
As7 K6 3.463936 1_555
As7 K5 3.463936 1_554
As7 Rb1 3.722749 1_555
As7 Rb2 3.878470 1_455
