# generated using pymatgen
data_Ta2HRh6
_symmetry_space_group_name_H-M   'P 1'
_cell_length_a   5.50519641
_cell_length_b   5.50519600
_cell_length_c   5.50519590
_cell_angle_alpha   59.99999473
_cell_angle_beta   59.99999718
_cell_angle_gamma   60.00001253
_symmetry_Int_Tables_number   1
_chemical_formula_structural   Ta2HRh6
_chemical_formula_sum   'Ta2 H1 Rh6'
_cell_volume   117.97864337
_cell_formula_units_Z   1
loop_
 _symmetry_equiv_pos_site_id
 _symmetry_equiv_pos_as_xyz
  1  'x, y, z'
loop_
 _atom_site_type_symbol
 _atom_site_label
 _atom_site_symmetry_multiplicity
 _atom_site_fract_x
 _atom_site_fract_y
 _atom_site_fract_z
 _atom_site_occupancy
  Ta  Ta0  1  0.24999900  0.24999900  0.24999900  1
  Ta  Ta1  1  0.75000000  0.75000000  0.75000000  1
  H  H0  1  0.00000000  0.00000000  0.00000000  1
  Rh  Rh0  1  0.74793377  0.25206623  0.25206623  1
  Rh  Rh1  1  0.74793377  0.74793377  0.25206623  1
  Rh  Rh2  1  0.25206623  0.74793377  0.25206623  1
  Rh  Rh3  1  0.25206623  0.74793377  0.74793377  1
  Rh  Rh4  1  0.25206623  0.25206623  0.74793377  1
  Rh  Rh5  1  0.74793377  0.25206623  0.74793377  1
loop_
_geom_bond_atom_site_label_1
_geom_bond_atom_site_label_2
_geom_bond_distance
_geom_bond_site_symmetry_2
H0 Rh4 1.962467 1_554
H0 Rh1 1.962467 1_445
H0 Rh0 1.962468 1_455
H0 Rh2 1.962468 1_545
H0 Rh3 1.962468 1_544
H0 Rh5 1.962468 1_454
Rh0 Ta0 2.752634 1_655
Rh0 Ta1 2.752645 1_554
Rh0 Ta1 2.752645 1_545
Rh0 Ta0 2.752656 1_555
Rh1 Ta1 2.752645 1_554
Rh1 Ta1 2.752645 1_555
Rh1 Ta0 2.752646 1_565
Rh1 Ta0 2.752646 1_655
Rh2 Ta0 2.752634 1_565
Rh2 Ta1 2.752645 1_554
Rh2 Ta1 2.752645 1_455
Rh2 Ta0 2.752656 1_555
Rh3 Ta0 2.752645 1_556
Rh3 Ta0 2.752645 1_565
Rh3 Ta1 2.752645 1_555
Rh3 Ta1 2.752645 1_455
Rh4 Ta0 2.752634 1_556
Rh4 Ta1 2.752646 1_545
Rh4 Ta1 2.752646 1_455
Rh4 Ta0 2.752656 1_555
Rh5 Ta0 2.752645 1_556
Rh5 Ta0 2.752645 1_655
Rh5 Ta1 2.752645 1_555
Rh5 Ta1 2.752645 1_545
