# generated using pymatgen
data_Hf6Ta4Ga12Os7
_symmetry_space_group_name_H-M   'P 1'
_cell_length_a   8.76462444
_cell_length_b   8.76462473
_cell_length_c   8.76462367
_cell_angle_alpha   59.99999295
_cell_angle_beta   59.99999185
_cell_angle_gamma   59.99999354
_symmetry_Int_Tables_number   1
_chemical_formula_structural   Hf6Ta4Ga12Os7
_chemical_formula_sum   'Hf6 Ta4 Ga12 Os7'
_cell_volume   476.08537681
_cell_formula_units_Z   1
loop_
 _symmetry_equiv_pos_site_id
 _symmetry_equiv_pos_as_xyz
  1  'x, y, z'
loop_
 _atom_site_type_symbol
 _atom_site_label
 _atom_site_symmetry_multiplicity
 _atom_site_fract_x
 _atom_site_fract_y
 _atom_site_fract_z
 _atom_site_occupancy
  Hf  Hf0  1  0.70262842  0.70262842  0.29737158  1
  Hf  Hf1  1  0.29737158  0.70262842  0.29737158  1
  Hf  Hf2  1  0.70262842  0.29737158  0.29737158  1
  Hf  Hf3  1  0.29737158  0.29737158  0.70262842  1
  Hf  Hf4  1  0.70262842  0.29737158  0.70262842  1
  Hf  Hf5  1  0.29737158  0.70262842  0.70262842  1
  Ta  Ta0  1  0.87763529  0.87763529  0.36709412  1
  Ta  Ta1  1  0.87763529  0.36709412  0.87763529  1
  Ta  Ta2  1  0.36709412  0.87763529  0.87763529  1
  Ta  Ta3  1  0.87763529  0.87763529  0.87763529  1
  Ga  Ga0  1  0.12064706  0.12064706  0.63805982  1
  Ga  Ga1  1  0.12064706  0.63805982  0.12064706  1
  Ga  Ga2  1  0.63805982  0.12064706  0.12064706  1
  Ga  Ga3  1  0.12064706  0.12064706  0.12064706  1
  Ga  Ga4  1  0.65501356  0.65501356  0.03495831  1
  Ga  Ga5  1  0.65501356  0.03495831  0.65501356  1
  Ga  Ga6  1  0.03495831  0.65501356  0.65501356  1
  Ga  Ga7  1  0.65501356  0.65501356  0.65501356  1
  Ga  Ga8  1  0.33877187  0.33877187  0.98368640  1
  Ga  Ga9  1  0.33877187  0.98368640  0.33877187  1
  Ga  Ga10  1  0.98368640  0.33877187  0.33877187  1
  Ga  Ga11  1  0.33877187  0.33877187  0.33877187  1
  Os  Os0  1  0.00000000  0.00000000  0.00000000  1
  Os  Os1  1  0.99783590  0.99783590  0.50216410  1
  Os  Os2  1  0.50216410  0.99783590  0.50216410  1
  Os  Os3  1  0.99783590  0.50216410  0.50216410  1
  Os  Os4  1  0.50216410  0.50216410  0.99783590  1
  Os  Os5  1  0.99783590  0.50216410  0.99783590  1
  Os  Os6  1  0.50216410  0.99783590  0.99783590  1
loop_
_geom_bond_atom_site_label_1
_geom_bond_atom_site_label_2
_geom_bond_distance
_geom_bond_site_symmetry_2
Hf0 Ta3 3.050634 1_554
Hf0 Ta0 3.050635 1_555
Hf0 Os5 3.154016 1_554
Hf0 Os6 3.154016 1_554
Hf0 Os3 3.154017 1_555
Hf0 Os2 3.154017 1_555
Hf1 Ta2 3.050634 1_554
Hf1 Ta0 3.050634 1_455
Hf1 Os4 3.154017 1_554
Hf1 Os1 3.154017 1_455
Hf1 Os6 3.154017 1_554
Hf1 Os3 3.154017 1_455
Hf2 Ta1 3.050634 1_554
Hf2 Ta0 3.050634 1_545
Hf2 Os5 3.154017 1_554
Hf2 Os4 3.154017 1_554
Hf2 Os1 3.154017 1_545
Hf2 Os2 3.154017 1_545
Hf3 Ta1 3.050634 1_455
Hf3 Ta2 3.050634 1_545
Hf3 Os5 3.154016 1_455
Hf3 Os6 3.154016 1_545
Hf3 Os3 3.154017 1_455
Hf3 Os2 3.154017 1_545
Hf4 Ta3 3.050634 1_545
Hf4 Ta1 3.050635 1_555
Hf4 Os4 3.154017 1_555
Hf4 Os1 3.154017 1_545
Hf4 Os6 3.154017 1_545
Hf4 Os3 3.154017 1_555
Hf5 Ta3 3.050634 1_455
Hf5 Ta2 3.050635 1_555
Hf5 Os5 3.154017 1_455
Hf5 Os4 3.154017 1_555
Hf5 Os1 3.154017 1_455
Hf5 Os2 3.154017 1_555
Ga0 Os0 2.590147 1_556
Ga0 Os2 2.731048 1_545
Ga0 Os3 2.731048 1_455
Ga0 Os1 2.731055 1_445
Ga0 Ga9 2.795681 1_545
Ga0 Ga10 2.795681 1_455
Ga0 Ga11 2.795686 1_555
Ga0 Ta2 3.012287 1_545
Ga0 Ta1 3.012287 1_455
Ga0 Ta3 3.012294 1_445
Ga0 Hf3 3.044815 1_555
Ga0 Hf4 3.044822 1_455
Ga0 Hf5 3.044822 1_545
Ga1 Os0 2.590147 1_565
Ga1 Os3 2.731047 1_455
Ga1 Os4 2.731048 1_554
Ga1 Os5 2.731055 1_454
Ga1 Ga8 2.795681 1_554
Ga1 Ga10 2.795681 1_455
Ga1 Ga11 2.795686 1_555
Ga1 Ta0 3.012287 1_455
Ga1 Ta2 3.012287 1_554
Ga1 Ta3 3.012293 1_454
Ga1 Hf1 3.044814 1_555
Ga1 Hf5 3.044821 1_554
Ga1 Hf0 3.044822 1_455
Ga2 Os0 2.590147 1_655
Ga2 Os2 2.731047 1_545
Ga2 Os4 2.731048 1_554
Ga2 Os6 2.731055 1_544
Ga2 Ga8 2.795681 1_554
Ga2 Ga9 2.795681 1_545
Ga2 Ta0 3.012287 1_545
Ga2 Ta1 3.012287 1_554
Ga2 Ta3 3.012293 1_544
Ga2 Hf2 3.044815 1_555
Ga2 Hf4 3.044821 1_554
Ga2 Hf0 3.044822 1_545
Ga3 Os0 2.590155 1_555
Ga3 Os1 2.731047 1_445
Ga3 Os6 2.731047 1_544
Ga3 Os5 2.731048 1_454
Ga3 Ga9 2.795688 1_545
Ga3 Ga8 2.795688 1_554
Ga3 Ta2 3.012293 1_544
Ga3 Ta1 3.012293 1_454
Ga3 Ta0 3.012293 1_445
Ga3 Hf3 3.044820 1_554
Ga3 Hf2 3.044820 1_455
Ga3 Hf1 3.044820 1_545
Ga4 Os4 2.522252 1_554
Ga4 Os5 2.522259 1_554
Ga4 Os6 2.522259 1_554
Ga4 Hf1 2.780629 1_555
Ga4 Hf2 2.780630 1_555
Ga4 Hf0 2.780635 1_555
Ga4 Ta2 2.818127 1_554
Ga4 Ta1 2.818127 1_554
Ga4 Ta3 2.818134 1_554
Ga5 Os2 2.522252 1_545
Ga5 Os6 2.522259 1_545
Ga5 Os1 2.522259 1_545
Ga5 Hf2 2.780629 1_555
Ga5 Hf3 2.780630 1_555
Ga5 Hf4 2.780636 1_555
Ga5 Ta0 2.818127 1_545
Ga5 Ta2 2.818127 1_545
Ga5 Ta3 2.818134 1_545
Ga6 Os3 2.522252 1_455
Ga6 Os5 2.522259 1_455
Ga6 Os1 2.522259 1_455
Ga6 Hf1 2.780629 1_555
Ga6 Hf3 2.780630 1_555
Ga6 Hf5 2.780636 1_555
Ga6 Ta0 2.818127 1_455
Ga6 Ta1 2.818127 1_455
Ga6 Ta3 2.818134 1_455
Ga7 Os4 2.522257 1_555
Ga7 Os3 2.522257 1_555
Ga7 Os2 2.522257 1_555
Ga7 Hf0 2.780627 1_555
Ga7 Hf5 2.780627 1_555
Ga7 Hf4 2.780627 1_555
Ga7 Ta2 2.818132 1_555
Ga7 Ta0 2.818132 1_555
Ga7 Ta1 2.818132 1_555
Ga8 Os4 2.554029 1_555
Ga8 Os5 2.554044 1_455
Ga8 Os6 2.554044 1_545
Ga8 Hf4 2.872424 1_555
Ga8 Hf5 2.872424 1_555
Ga8 Hf3 2.872435 1_555
Ga9 Os2 2.554029 1_555
Ga9 Os6 2.554044 1_554
Ga9 Os1 2.554044 1_455
Ga9 Hf5 2.872424 1_555
Ga9 Hf0 2.872424 1_555
Ga9 Hf1 2.872435 1_555
Ga10 Os3 2.554029 1_555
Ga10 Os5 2.554044 1_554
Ga10 Os1 2.554044 1_545
Ga10 Ga3 2.795688 1_655
Ga10 Hf4 2.872424 1_555
Ga10 Hf0 2.872424 1_555
Ga10 Hf2 2.872435 1_555
Ga11 Os4 2.554039 1_554
Ga11 Os3 2.554039 1_455
Ga11 Os2 2.554039 1_545
Ga11 Ga2 2.795686 1_555
Ga11 Hf3 2.872417 1_555
Ga11 Hf2 2.872418 1_555
Ga11 Hf1 2.872418 1_555
Os0 Ta0 2.627030 1_445
Os0 Ta2 2.627030 1_544
Os0 Ta1 2.627030 1_454
Os0 Ta3 2.627031 1_444
Os1 Ta3 2.688032 1_555
Os1 Ta0 2.688033 1_555
Os2 Ta2 2.688032 1_555
Os2 Ta0 2.688032 1_555
Os3 Ta1 2.688032 1_555
Os3 Ta0 2.688032 1_555
Os4 Ta1 2.688032 1_555
Os4 Ta2 2.688032 1_555
Os5 Ta3 2.688032 1_555
Os5 Ta1 2.688033 1_555
Os6 Ta3 2.688032 1_555
Os6 Ta2 2.688033 1_555
