# generated using pymatgen
data_Sc3ZnPt2C
_symmetry_space_group_name_H-M   'P 1'
_cell_length_a   8.57969109
_cell_length_b   8.57969103
_cell_length_c   8.57968949
_cell_angle_alpha   59.99999834
_cell_angle_beta   59.99999858
_cell_angle_gamma   59.99999443
_symmetry_Int_Tables_number   1
_chemical_formula_structural   Sc3ZnPt2C
_chemical_formula_sum   'Sc12 Zn4 Pt8 C4'
_cell_volume   446.58059116
_cell_formula_units_Z   4
loop_
 _symmetry_equiv_pos_site_id
 _symmetry_equiv_pos_as_xyz
  1  'x, y, z'
loop_
 _atom_site_type_symbol
 _atom_site_label
 _atom_site_symmetry_multiplicity
 _atom_site_fract_x
 _atom_site_fract_y
 _atom_site_fract_z
 _atom_site_occupancy
  Sc  Sc0  1  0.44655135  0.44655135  0.05344865  1
  Sc  Sc1  1  0.05344865  0.44655135  0.05344865  1
  Sc  Sc2  1  0.44655135  0.05344865  0.05344865  1
  Sc  Sc3  1  0.05344865  0.05344865  0.44655135  1
  Sc  Sc4  1  0.44655135  0.05344865  0.44655135  1
  Sc  Sc5  1  0.05344865  0.44655135  0.44655135  1
  Sc  Sc6  1  0.80344865  0.80344865  0.19655135  1
  Sc  Sc7  1  0.19655135  0.80344865  0.19655135  1
  Sc  Sc8  1  0.80344865  0.19655135  0.19655135  1
  Sc  Sc9  1  0.19655135  0.19655135  0.80344865  1
  Sc  Sc10  1  0.80344865  0.19655135  0.80344865  1
  Sc  Sc11  1  0.19655135  0.80344865  0.80344865  1
  Zn  Zn0  1  0.62500000  0.62500000  0.12500000  1
  Zn  Zn1  1  0.62500000  0.12500000  0.62500000  1
  Zn  Zn2  1  0.12500000  0.62500000  0.62500000  1
  Zn  Zn3  1  0.62500000  0.62500000  0.62500000  1
  Pt  Pt0  1  0.83518182  0.83518182  0.49445553  1
  Pt  Pt1  1  0.83518182  0.49445553  0.83518182  1
  Pt  Pt2  1  0.49445553  0.83518182  0.83518182  1
  Pt  Pt3  1  0.83518182  0.83518182  0.83518182  1
  Pt  Pt4  1  0.41481818  0.41481818  0.75554447  1
  Pt  Pt5  1  0.41481818  0.75554447  0.41481818  1
  Pt  Pt6  1  0.75554447  0.41481818  0.41481818  1
  Pt  Pt7  1  0.41481818  0.41481818  0.41481818  1
  C  C0  1  0.12500000  0.12500000  0.62500000  1
  C  C1  1  0.12500000  0.62500000  0.12500000  1
  C  C2  1  0.62500000  0.12500000  0.12500000  1
  C  C3  1  0.12500000  0.12500000  0.12500000  1
loop_
_geom_bond_atom_site_label_1
_geom_bond_atom_site_label_2
_geom_bond_distance
_geom_bond_site_symmetry_2
Sc0 Zn3 3.047757 1_554
Sc0 Zn0 3.047757 1_555
Sc1 Zn2 3.047757 1_554
Sc1 Zn0 3.047757 1_455
Sc2 Zn1 3.047757 1_554
Sc2 Zn0 3.047757 1_545
Sc3 Zn2 3.047757 1_545
Sc3 Zn1 3.047757 1_455
Sc4 Zn3 3.047757 1_545
Sc4 Zn1 3.047757 1_555
Sc5 Zn3 3.047757 1_455
Sc5 Zn2 3.047757 1_555
Sc6 Zn3 3.047757 1_555
Sc6 Zn0 3.047757 1_555
Sc7 Zn2 3.047757 1_555
Sc7 Zn0 3.047757 1_555
Sc8 Zn1 3.047757 1_555
Sc8 Zn0 3.047757 1_555
Sc9 Zn2 3.047757 1_555
Sc9 Zn1 3.047757 1_555
Sc10 Zn3 3.047757 1_555
Sc10 Zn1 3.047757 1_555
Sc11 Zn3 3.047757 1_555
Sc11 Zn2 3.047757 1_555
Pt0 Zn1 2.640181 1_565
Pt0 Zn2 2.640181 1_655
Pt0 Zn3 2.640189 1_555
Pt0 Sc8 2.854271 1_565
Pt0 Sc7 2.854271 1_655
Pt0 Sc6 2.854276 1_555
Pt0 Sc3 3.024925 1_665
Pt0 Sc5 3.024932 1_655
Pt0 Sc4 3.024932 1_565
Pt1 Zn0 2.640181 1_556
Pt1 Zn2 2.640182 1_655
Pt1 Zn3 2.640188 1_555
Pt1 Sc8 2.854271 1_556
Pt1 Sc9 2.854271 1_655
Pt1 Sc10 2.854276 1_555
Pt1 Sc1 3.024925 1_656
Pt1 Sc5 3.024932 1_655
Pt1 Sc0 3.024933 1_556
Pt2 Zn0 2.640181 1_556
Pt2 Zn1 2.640182 1_565
Pt2 Zn3 2.640188 1_555
Pt2 Sc7 2.854271 1_556
Pt2 Sc9 2.854271 1_565
Pt2 Sc11 2.854276 1_555
Pt2 Sc2 3.024925 1_566
Pt2 Sc4 3.024932 1_565
Pt2 Sc0 3.024932 1_556
Pt3 Zn1 2.640186 1_565
Pt3 Zn2 2.640186 1_655
Pt3 Zn0 2.640186 1_556
Pt3 Sc6 2.854267 1_556
Pt3 Sc10 2.854268 1_565
Pt3 Sc11 2.854268 1_655
Pt3 Sc1 3.024929 1_656
Pt3 Sc2 3.024929 1_566
Pt3 Sc3 3.024929 1_665
Pt4 Zn1 2.640181 1_555
Pt4 Zn2 2.640181 1_555
Pt4 Zn3 2.640189 1_555
Pt4 Sc2 2.854271 1_556
Pt4 Sc1 2.854271 1_556
Pt4 Sc0 2.854276 1_556
Pt4 Sc9 3.024925 1_555
Pt4 Sc11 3.024932 1_555
Pt4 Sc10 3.024932 1_555
Pt5 Zn0 2.640181 1_555
Pt5 Zn2 2.640182 1_555
Pt5 Zn3 2.640188 1_555
Pt5 Sc2 2.854271 1_565
Pt5 Sc3 2.854271 1_565
Pt5 Sc4 2.854276 1_565
Pt5 Sc7 3.024925 1_555
Pt5 Sc11 3.024932 1_555
Pt5 Sc6 3.024933 1_555
Pt6 Zn0 2.640181 1_555
Pt6 Zn1 2.640182 1_555
Pt6 Zn3 2.640188 1_555
Pt6 Sc1 2.854271 1_655
Pt6 Sc3 2.854271 1_655
Pt6 Sc5 2.854276 1_655
Pt6 Sc8 3.024925 1_555
Pt6 Sc10 3.024932 1_555
Pt6 Sc6 3.024932 1_555
Pt7 Zn1 2.640186 1_555
Pt7 Zn2 2.640186 1_555
Pt7 Zn0 2.640186 1_555
Pt7 Sc0 2.854267 1_555
Pt7 Sc4 2.854268 1_555
Pt7 Sc5 2.854268 1_555
Pt7 Sc7 3.024929 1_555
Pt7 Sc8 3.024929 1_555
Pt7 Sc9 3.024929 1_555
C0 Sc9 2.313960 1_555
C0 Sc3 2.313960 1_555
C0 Sc5 2.313960 1_555
C0 Sc11 2.313960 1_545
C0 Sc4 2.313960 1_555
C0 Sc10 2.313960 1_455
C1 Sc5 2.313960 1_555
C1 Sc11 2.313960 1_554
C1 Sc0 2.313960 1_555
C1 Sc6 2.313960 1_455
C1 Sc7 2.313960 1_555
C1 Sc1 2.313960 1_555
C2 Sc4 2.313960 1_555
C2 Sc10 2.313960 1_554
C2 Sc0 2.313960 1_555
C2 Sc6 2.313960 1_545
C2 Sc8 2.313960 1_555
C2 Sc2 2.313960 1_555
C3 Sc3 2.313960 1_555
C3 Sc9 2.313960 1_554
C3 Sc1 2.313960 1_555
C3 Sc7 2.313960 1_545
C3 Sc2 2.313960 1_555
C3 Sc8 2.313960 1_455
