# generated using pymatgen
data_SrSb12(IrRu)2
_symmetry_space_group_name_H-M   'P 1'
_cell_length_a   8.11638669
_cell_length_b   8.09747453
_cell_length_c   8.09747429
_cell_angle_alpha   109.39405135
_cell_angle_beta   109.46029998
_cell_angle_gamma   109.46474920
_symmetry_Int_Tables_number   1
_chemical_formula_structural   SrSb12(IrRu)2
_chemical_formula_sum   'Sr1 Sb12 Ir2 Ru2'
_cell_volume   410.15276770
_cell_formula_units_Z   1
loop_
 _symmetry_equiv_pos_site_id
 _symmetry_equiv_pos_as_xyz
  1  'x, y, z'
loop_
 _atom_site_type_symbol
 _atom_site_label
 _atom_site_symmetry_multiplicity
 _atom_site_fract_x
 _atom_site_fract_y
 _atom_site_fract_z
 _atom_site_occupancy
  Sr  Sr0  1  0.00000000  0.00000000  0.00000000  1
  Sb  Sb0  1  0.15496677  0.49802977  0.34002853  1
  Sb  Sb1  1  0.50192951  0.65659837  0.84533115  1
  Sb  Sb2  1  0.33944380  0.84138982  0.18500670  1
  Sb  Sb3  1  0.81868910  0.66037888  0.15831122  1
  Sb  Sb4  1  0.66055620  0.84556189  0.50194601  1
  Sb  Sb5  1  0.18131090  0.33962112  0.84168878  1
  Sb  Sb6  1  0.66055620  0.15861018  0.81499330  1
  Sb  Sb7  1  0.33944380  0.15443811  0.49805399  1
  Sb  Sb8  1  0.49807049  0.34340163  0.15466885  1
  Sb  Sb9  1  0.84503323  0.50197023  0.65997147  1
  Sb  Sb10  1  0.84503323  0.18506276  0.34306300  1
  Sb  Sb11  1  0.15496677  0.81493724  0.65693700  1
  Ir  Ir0  1  0.50000000  0.50000000  0.50000000  1
  Ir  Ir1  1  0.50000000  0.00000000  0.00000000  1
  Ru  Ru0  1  0.00000000  0.50000000  0.00000000  1
  Ru  Ru1  1  0.00000000  0.00000000  0.50000000  1
loop_
_geom_bond_atom_site_label_1
_geom_bond_atom_site_label_2
_geom_bond_distance
_geom_bond_site_symmetry_2
Sb0 Sb10 2.929989 1_455
Sb0 Sb11 2.965961 1_555
Sb0 Sr0 3.516267 1_555
Sb1 Sb3 2.930562 1_556
Sb1 Sb5 2.967800 1_555
Sb1 Sr0 3.530560 1_666
Sb2 Sb7 2.929833 1_565
Sb2 Sb4 2.967696 1_555
Sb2 Sr0 3.517115 1_565
Sb3 Sb8 2.967800 1_555
Sb3 Sr0 3.503275 1_665
Sb4 Sb6 2.929833 1_565
Sb4 Sr0 3.517113 1_666
Sb5 Sb8 2.930562 1_556
Sb5 Sr0 3.503275 1_556
Sb6 Sb7 2.967696 1_555
Sb6 Sr0 3.517115 1_656
Sb7 Sr0 3.517113 1_555
Sb8 Sr0 3.530560 1_555
Sb9 Sr0 3.516267 1_666
Sb10 Sb9 2.965961 1_555
Sb10 Sr0 3.516269 1_655
Sb11 Sb9 2.929989 1_455
Sb11 Sr0 3.516269 1_566
Ir0 Sb1 2.651459 1_555
Ir0 Sb8 2.651459 1_555
Ir0 Sb4 2.656142 1_555
Ir0 Sb7 2.656142 1_555
Ir0 Sb9 2.657069 1_555
Ir0 Sb0 2.657069 1_555
Ir1 Sb8 2.651459 1_555
Ir1 Sb1 2.651459 1_544
Ir1 Sb6 2.656149 1_554
Ir1 Sb2 2.656149 1_545
Ir1 Sb10 2.657068 1_555
Ir1 Sb11 2.657068 1_544
Ru0 Sb0 2.626471 1_555
Ru0 Sb9 2.626471 1_454
Ru0 Sb2 2.626846 1_555
Ru0 Sb6 2.626846 1_454
Ru0 Sb3 2.630669 1_455
Ru0 Sb5 2.630669 1_554
Ru1 Sb11 2.626478 1_545
Ru1 Sb10 2.626478 1_455
Ru1 Sb7 2.626847 1_555
Ru1 Sb4 2.626847 1_445
Ru1 Sb5 2.630661 1_555
Ru1 Sb3 2.630661 1_445
