# generated using pymatgen
data_Cs6Ir(RhBr6)3
_symmetry_space_group_name_H-M   'P 1'
_cell_length_a   7.58594974
_cell_length_b   7.58594988
_cell_length_c   19.18100894
_cell_angle_alpha   90.00000000
_cell_angle_beta   90.00000000
_cell_angle_gamma   119.99999527
_symmetry_Int_Tables_number   1
_chemical_formula_structural   Cs6Ir(RhBr6)3
_chemical_formula_sum   'Cs6 Ir1 Rh3 Br18'
_cell_volume   955.92106123
_cell_formula_units_Z   1
loop_
 _symmetry_equiv_pos_site_id
 _symmetry_equiv_pos_as_xyz
  1  'x, y, z'
loop_
 _atom_site_type_symbol
 _atom_site_label
 _atom_site_symmetry_multiplicity
 _atom_site_fract_x
 _atom_site_fract_y
 _atom_site_fract_z
 _atom_site_occupancy
  Cs  Cs0  1  0.66666700  0.33333300  0.92898276  1
  Cs  Cs1  1  0.33333300  0.66666700  0.42837556  1
  Cs  Cs2  1  0.66666700  0.33333300  0.57045809  1
  Cs  Cs3  1  0.33333300  0.66666700  0.07102476  1
  Cs  Cs4  1  0.00000000  0.00000000  0.75047688  1
  Cs  Cs5  1  0.00000000  0.00000000  0.24985698  1
  Ir  Ir0  1  0.33333300  0.66666700  0.83458256  1
  Rh  Rh0  1  0.33333300  0.66666700  0.66469843  1
  Rh  Rh1  1  0.66666700  0.33333300  0.16555798  1
  Rh  Rh2  1  0.66666700  0.33333300  0.33434310  1
  Br  Br0  1  0.82177525  0.64354850  0.40673510  1
  Br  Br1  1  0.17752717  0.35505535  0.90750484  1
  Br  Br2  1  0.17752717  0.82247283  0.90750484  1
  Br  Br3  1  0.17801856  0.35603611  0.59276793  1
  Br  Br4  1  0.64494465  0.82247283  0.90750484  1
  Br  Br5  1  0.35645150  0.17822475  0.40673510  1
  Br  Br6  1  0.03391499  0.51695800  0.75040032  1
  Br  Br7  1  0.82177525  0.17822475  0.40673510  1
  Br  Br8  1  0.51637374  0.03274748  0.25000097  1
  Br  Br9  1  0.48304200  0.51695800  0.75040032  1
  Br  Br10  1  0.51637374  0.48362626  0.25000097  1
  Br  Br11  1  0.96725252  0.48362626  0.25000097  1
  Br  Br12  1  0.35666440  0.17833220  0.09313915  1
  Br  Br13  1  0.48304200  0.96608501  0.75040032  1
  Br  Br14  1  0.82166780  0.64333560  0.09313915  1
  Br  Br15  1  0.17801856  0.82198144  0.59276793  1
  Br  Br16  1  0.64396389  0.82198144  0.59276793  1
  Br  Br17  1  0.82166780  0.17833220  0.09313915  1
loop_
_geom_bond_atom_site_label_1
_geom_bond_atom_site_label_2
_geom_bond_distance
_geom_bond_site_symmetry_2
Br0 Rh2 2.466073 1_555
Br0 Cs2 3.743712 1_555
Br0 Cs5 3.812922 1_665
Br0 Cs1 3.818630 1_655
Br0 Cs1 3.818653 1_555
Br1 Ir0 2.479383 1_555
Br1 Cs3 3.745451 1_556
Br1 Cs4 3.809568 1_555
Br1 Cs0 3.817942 1_455
Br1 Cs0 3.817957 1_555
Br2 Ir0 2.479383 1_555
Br2 Cs3 3.745451 1_556
Br2 Cs4 3.809563 1_565
Br2 Cs0 3.817950 1_455
Br2 Cs0 3.817950 1_565
Br3 Rh0 2.463360 1_555
Br3 Cs1 3.755971 1_555
Br3 Cs2 3.819951 1_555
Br3 Cs2 3.819951 1_455
Br3 Cs4 3.823841 1_555
Br4 Ir0 2.479383 1_555
Br4 Cs3 3.745451 1_556
Br4 Cs4 3.809567 1_665
Br4 Cs0 3.817942 1_565
Br4 Cs0 3.817958 1_555
Br5 Rh2 2.466073 1_555
Br5 Cs2 3.743712 1_555
Br5 Cs5 3.812922 1_555
Br5 Cs1 3.818630 1_545
Br5 Cs1 3.818653 1_555
Br6 Ir0 2.544916 1_555
Br6 Rh0 2.563509 1_555
Br6 Cs4 3.799510 1_565
Br6 Cs4 3.799518 1_555
Br6 Cs0 4.189790 1_455
Br6 Cs2 4.211140 1_455
Br7 Rh2 2.466079 1_555
Br7 Cs2 3.743716 1_555
Br7 Cs5 3.812914 1_655
Br7 Cs1 3.818641 1_655
Br7 Cs1 3.818641 1_545
Br8 Rh2 2.552792 1_555
Br8 Rh1 2.554018 1_555
Br8 Cs5 3.799072 1_655
Br8 Cs5 3.799072 1_555
Br8 Cs1 4.182116 1_545
Br8 Cs3 4.191562 1_545
Br9 Ir0 2.544916 1_555
Br9 Rh0 2.563509 1_555
Br9 Cs4 3.799514 1_665
Br9 Cs4 3.799514 1_555
Br9 Cs0 4.189797 1_555
Br9 Cs2 4.211148 1_555
Br10 Rh2 2.552797 1_555
Br10 Rh1 2.554023 1_555
Br10 Cs5 3.799073 1_555
Br10 Cs5 3.799073 1_665
Br10 Cs1 4.182119 1_555
Br10 Cs3 4.191565 1_555
Br11 Rh2 2.552792 1_555
Br11 Rh1 2.554018 1_555
Br11 Cs5 3.799072 1_655
Br11 Cs5 3.799072 1_665
Br11 Cs1 4.182116 1_655
Br11 Cs3 4.191561 1_655
Br12 Rh1 2.465208 1_555
Br12 Cs0 3.749928 1_554
Br12 Cs5 3.811356 1_555
Br12 Cs3 3.819692 1_545
Br12 Cs3 3.819700 1_555
Br13 Ir0 2.544916 1_555
Br13 Rh0 2.563509 1_555
Br13 Cs4 3.799510 1_565
Br13 Cs4 3.799517 1_665
Br13 Cs0 4.189790 1_565
Br13 Cs2 4.211140 1_565
Br14 Rh1 2.465208 1_555
Br14 Cs0 3.749928 1_554
Br14 Cs5 3.811356 1_665
Br14 Cs3 3.819692 1_655
Br14 Cs3 3.819700 1_555
Br15 Rh0 2.463349 1_555
Br15 Cs1 3.755963 1_555
Br15 Cs2 3.819951 1_455
Br15 Cs2 3.819951 1_565
Br15 Cs4 3.823845 1_565
Br16 Rh0 2.463360 1_555
Br16 Cs1 3.755971 1_555
Br16 Cs2 3.819951 1_555
Br16 Cs2 3.819951 1_565
Br16 Cs4 3.823841 1_665
Br17 Rh1 2.465202 1_555
Br17 Cs0 3.749925 1_554
Br17 Cs5 3.811355 1_655
Br17 Cs3 3.819696 1_655
Br17 Cs3 3.819696 1_545
