# generated using pymatgen
data_SrMgCdP2
_symmetry_space_group_name_H-M   'P 1'
_cell_length_a   4.33012438
_cell_length_b   4.33012471
_cell_length_c   7.26545945
_cell_angle_alpha   90.00000000
_cell_angle_beta   90.00000000
_cell_angle_gamma   119.99999747
_symmetry_Int_Tables_number   1
_chemical_formula_structural   SrMgCdP2
_chemical_formula_sum   'Sr1 Mg1 Cd1 P2'
_cell_volume   117.97622653
_cell_formula_units_Z   1
loop_
 _symmetry_equiv_pos_site_id
 _symmetry_equiv_pos_as_xyz
  1  'x, y, z'
loop_
 _atom_site_type_symbol
 _atom_site_label
 _atom_site_symmetry_multiplicity
 _atom_site_fract_x
 _atom_site_fract_y
 _atom_site_fract_z
 _atom_site_occupancy
  Sr  Sr0  1  0.00000000  0.00000000  0.00193851  1
  Mg  Mg0  1  0.33333300  0.66666700  0.62921900  1
  Cd  Cd0  1  0.66666700  0.33333300  0.36923378  1
  P  P0  1  0.66666700  0.33333300  0.74007089  1
  P  P1  1  0.33333300  0.66666700  0.25953882  1
loop_
_geom_bond_atom_site_label_1
_geom_bond_atom_site_label_2
_geom_bond_distance
_geom_bond_site_symmetry_2
Mg0 P0 2.626525 1_455
Mg0 P0 2.626525 1_565
Mg0 P0 2.626532 1_555
Mg0 P1 2.685896 1_555
Cd0 P1 2.623960 1_655
Cd0 P1 2.623960 1_545
Cd0 P1 2.623967 1_555
Cd0 P0 2.694302 1_555
P0 Sr0 3.141628 1_656
P0 Sr0 3.141631 1_556
P0 Sr0 3.141631 1_666
P1 Sr0 3.122949 1_565
P1 Sr0 3.122952 1_665
P1 Sr0 3.122952 1_555
