# generated using pymatgen
data_Dy(BO2)3
_symmetry_space_group_name_H-M   'P 1'
_cell_length_a   7.43805900
_cell_length_b   12.33113700
_cell_length_c   16.04503600
_cell_angle_alpha   90.00000000
_cell_angle_beta   90.00000000
_cell_angle_gamma   90.00000000
_symmetry_Int_Tables_number   1
_chemical_formula_structural   Dy(BO2)3
_chemical_formula_sum   'Dy16 B48 O96'
_cell_volume   1471.64628220
_cell_formula_units_Z   16
loop_
 _symmetry_equiv_pos_site_id
 _symmetry_equiv_pos_as_xyz
  1  'x, y, z'
loop_
 _atom_site_type_symbol
 _atom_site_label
 _atom_site_symmetry_multiplicity
 _atom_site_fract_x
 _atom_site_fract_y
 _atom_site_fract_z
 _atom_site_occupancy
  Dy  Dy0  1  0.25000000  0.76692100  0.87119700  1
  Dy  Dy1  1  0.75000000  0.23307900  0.12880300  1
  Dy  Dy2  1  0.75000000  0.26692100  0.62880300  1
  Dy  Dy3  1  0.25000000  0.73307900  0.37119700  1
  Dy  Dy4  1  0.25000000  0.41338200  0.54858800  1
  Dy  Dy5  1  0.75000000  0.58661800  0.45141200  1
  Dy  Dy6  1  0.75000000  0.91338200  0.95141200  1
  Dy  Dy7  1  0.25000000  0.08661800  0.04858800  1
  Dy  Dy8  1  0.25000000  0.06465600  0.67318700  1
  Dy  Dy9  1  0.75000000  0.93534400  0.32681300  1
  Dy  Dy10  1  0.75000000  0.56465600  0.82681300  1
  Dy  Dy11  1  0.25000000  0.43534400  0.17318700  1
  Dy  Dy12  1  0.25000000  0.49079000  0.88061700  1
  Dy  Dy13  1  0.75000000  0.50921000  0.11938300  1
  Dy  Dy14  1  0.75000000  0.99079000  0.61938300  1
  Dy  Dy15  1  0.25000000  0.00921000  0.38061700  1
  B  B0  1  0.06997900  0.81306300  0.21695600  1
  B  B1  1  0.56040100  0.82261900  0.46771700  1
  B  B2  1  0.06040100  0.17738100  0.53228300  1
  B  B3  1  0.43959900  0.32261900  0.03228300  1
  B  B4  1  0.93959900  0.67738100  0.96771700  1
  B  B5  1  0.43959900  0.17738100  0.53228300  1
  B  B6  1  0.93959900  0.82261900  0.46771700  1
  B  B7  1  0.56040100  0.67738100  0.96771700  1
  B  B8  1  0.06040100  0.32261900  0.03228300  1
  B  B9  1  0.57733000  0.98217600  0.15277300  1
  B  B10  1  0.07733000  0.01782400  0.84722700  1
  B  B11  1  0.42267000  0.48217600  0.34722700  1
  B  B12  1  0.92267000  0.51782400  0.65277300  1
  B  B13  1  0.42267000  0.01782400  0.84722700  1
  B  B14  1  0.92267000  0.98217600  0.15277300  1
  B  B15  1  0.57733000  0.51782400  0.65277300  1
  B  B16  1  0.07733000  0.48217600  0.34722700  1
  B  B17  1  0.56997900  0.18693700  0.78304400  1
  B  B18  1  0.93002100  0.31306300  0.28304400  1
  B  B19  1  0.43002100  0.68693700  0.71695600  1
  B  B20  1  0.93002100  0.18693700  0.78304400  1
  B  B21  1  0.43002100  0.81306300  0.21695600  1
  B  B22  1  0.06997900  0.68693700  0.71695600  1
  B  B23  1  0.56997900  0.31306300  0.28304400  1
  B  B24  1  0.07244700  0.84522100  0.05649200  1
  B  B25  1  0.57244700  0.15477900  0.94350800  1
  B  B26  1  0.92755300  0.34522100  0.44350800  1
  B  B27  1  0.42755300  0.65477900  0.55649200  1
  B  B28  1  0.92755300  0.15477900  0.94350800  1
  B  B29  1  0.42755300  0.84522100  0.05649200  1
  B  B30  1  0.07244700  0.65477900  0.55649200  1
  B  B31  1  0.57244700  0.34522100  0.44350800  1
  B  B32  1  0.07649100  0.64308600  0.10947800  1
  B  B33  1  0.57649100  0.35691400  0.89052200  1
  B  B34  1  0.92350900  0.14308600  0.39052200  1
  B  B35  1  0.42350900  0.85691400  0.60947800  1
  B  B36  1  0.92350900  0.35691400  0.89052200  1
  B  B37  1  0.42350900  0.64308600  0.10947800  1
  B  B38  1  0.07649100  0.85691400  0.60947800  1
  B  B39  1  0.57649100  0.14308600  0.39052200  1
  B  B40  1  0.06896300  0.12742500  0.24236800  1
  B  B41  1  0.56896300  0.87257500  0.75763200  1
  B  B42  1  0.93103700  0.62742500  0.25763200  1
  B  B43  1  0.43103700  0.37257500  0.74236800  1
  B  B44  1  0.93103700  0.87257500  0.75763200  1
  B  B45  1  0.43103700  0.12742500  0.24236800  1
  B  B46  1  0.06896300  0.37257500  0.74236800  1
  B  B47  1  0.56896300  0.62742500  0.25763200  1
  O  O0  1  0.93578500  0.62235700  0.04784700  1
  O  O1  1  0.01910400  0.70904100  0.47800900  1
  O  O2  1  0.51910400  0.29095900  0.52199100  1
  O  O3  1  0.98089600  0.20904100  0.02199100  1
  O  O4  1  0.48089600  0.79095900  0.97800900  1
  O  O5  1  0.98089600  0.29095900  0.52199100  1
  O  O6  1  0.48089600  0.70904100  0.47800900  1
  O  O7  1  0.01910400  0.79095900  0.97800900  1
  O  O8  1  0.51910400  0.20904100  0.02199100  1
  O  O9  1  0.04378500  0.87684600  0.40380100  1
  O  O10  1  0.54378500  0.12315400  0.59619900  1
  O  O11  1  0.95621500  0.37684600  0.09619900  1
  O  O12  1  0.45621500  0.62315400  0.90380100  1
  O  O13  1  0.95621500  0.12315400  0.59619900  1
  O  O14  1  0.45621500  0.87684600  0.40380100  1
  O  O15  1  0.04378500  0.62315400  0.90380100  1
  O  O16  1  0.25000000  0.85334700  0.24477100  1
  O  O17  1  0.75000000  0.14665300  0.75522900  1
  O  O18  1  0.75000000  0.35334700  0.25522900  1
  O  O19  1  0.25000000  0.64665300  0.74477100  1
  O  O20  1  0.25000000  0.89673600  0.04759800  1
  O  O21  1  0.75000000  0.10326400  0.95240200  1
  O  O22  1  0.75000000  0.39673600  0.45240200  1
  O  O23  1  0.25000000  0.60326400  0.54759800  1
  O  O24  1  0.25000000  0.60531500  0.07868100  1
  O  O25  1  0.75000000  0.39468500  0.92131900  1
  O  O26  1  0.75000000  0.10531500  0.42131900  1
  O  O27  1  0.25000000  0.89468500  0.57868100  1
  O  O28  1  0.25000000  0.13655800  0.27569100  1
  O  O29  1  0.75000000  0.86344200  0.72430900  1
  O  O30  1  0.75000000  0.63655800  0.22430900  1
  O  O31  1  0.25000000  0.36344200  0.77569100  1
  O  O32  1  0.25000000  0.53981700  0.34068100  1
  O  O33  1  0.75000000  0.46018300  0.65931900  1
  O  O34  1  0.75000000  0.03981700  0.15931900  1
  O  O35  1  0.25000000  0.96018300  0.84068100  1
  O  O36  1  0.25000000  0.30650400  0.06630800  1
  O  O37  1  0.75000000  0.69349600  0.93369200  1
  O  O38  1  0.75000000  0.80650400  0.43369200  1
  O  O39  1  0.25000000  0.19349600  0.56630800  1
  O  O40  1  0.07299200  0.76486200  0.12843800  1
  O  O41  1  0.57299200  0.23513800  0.87156200  1
  O  O42  1  0.92700800  0.26486200  0.37156200  1
  O  O43  1  0.42700800  0.73513800  0.62843800  1
  O  O44  1  0.92700800  0.23513800  0.87156200  1
  O  O45  1  0.42700800  0.76486200  0.12843800  1
  O  O46  1  0.07299200  0.73513800  0.62843800  1
  O  O47  1  0.57299200  0.26486200  0.37156200  1
  O  O48  1  0.03338800  0.57687500  0.18468400  1
  O  O49  1  0.53338800  0.42312500  0.81531600  1
  O  O50  1  0.96661200  0.07687500  0.31531600  1
  O  O51  1  0.46661200  0.92312500  0.68468400  1
  O  O52  1  0.96661200  0.42312500  0.81531600  1
  O  O53  1  0.46661200  0.57687500  0.18468400  1
  O  O54  1  0.03338800  0.92312500  0.68468400  1
  O  O55  1  0.53338800  0.07687500  0.31531600  1
  O  O56  1  0.06421500  0.12235700  0.45215300  1
  O  O57  1  0.56421500  0.87764300  0.54784700  1
  O  O58  1  0.54378500  0.37684600  0.09619900  1
  O  O59  1  0.43578500  0.37764300  0.95215300  1
  O  O60  1  0.93578500  0.87764300  0.54784700  1
  O  O61  1  0.43578500  0.12235700  0.45215300  1
  O  O62  1  0.06421500  0.37764300  0.95215300  1
  O  O63  1  0.56421500  0.62235700  0.04784700  1
  O  O64  1  0.01959100  0.72929600  0.27594400  1
  O  O65  1  0.51959100  0.27070400  0.72405600  1
  O  O66  1  0.98040900  0.22929600  0.22405600  1
  O  O67  1  0.48040900  0.77070400  0.77594400  1
  O  O68  1  0.98040900  0.27070400  0.72405600  1
  O  O69  1  0.48040900  0.72929600  0.27594400  1
  O  O70  1  0.01959100  0.77070400  0.77594400  1
  O  O71  1  0.51959100  0.22929600  0.22405600  1
  O  O72  1  0.56409100  0.89828600  0.21785600  1
  O  O73  1  0.56482400  0.93590100  0.83548800  1
  O  O74  1  0.93517600  0.56409900  0.33548800  1
  O  O75  1  0.43517600  0.43590100  0.66451200  1
  O  O76  1  0.93517600  0.93590100  0.83548800  1
  O  O77  1  0.43517600  0.06409900  0.16451200  1
  O  O78  1  0.06482400  0.43590100  0.66451200  1
  O  O79  1  0.56482400  0.56409900  0.33548800  1
  O  O80  1  0.05814200  0.43180500  0.43036200  1
  O  O81  1  0.55814200  0.56819500  0.56963800  1
  O  O82  1  0.94185800  0.93180500  0.06963800  1
  O  O83  1  0.44185800  0.06819500  0.93036200  1
  O  O84  1  0.94185800  0.56819500  0.56963800  1
  O  O85  1  0.44185800  0.43180500  0.43036200  1
  O  O86  1  0.05814200  0.06819500  0.93036200  1
  O  O87  1  0.55814200  0.93180500  0.06963800  1
  O  O88  1  0.06409100  0.39828600  0.28214400  1
  O  O89  1  0.56409100  0.60171400  0.71785600  1
  O  O90  1  0.93590900  0.89828600  0.21785600  1
  O  O91  1  0.43590900  0.10171400  0.78214400  1
  O  O92  1  0.93590900  0.60171400  0.71785600  1
  O  O93  1  0.43590900  0.39828600  0.28214400  1
  O  O94  1  0.06409100  0.10171400  0.78214400  1
  O  O95  1  0.06482400  0.06409900  0.16451200  1
loop_
_geom_bond_atom_site_label_1
_geom_bond_atom_site_label_2
_geom_bond_distance
_geom_bond_site_symmetry_2
Dy0 O67 2.296756 1_555
Dy0 O70 2.296756 1_555
Dy0 O12 2.401913 1_555
Dy0 O15 2.401913 1_555
Dy0 O35 2.432919 1_555
Dy0 O7 2.444280 1_555
Dy0 O4 2.444280 1_555
Dy0 O19 2.512820 1_555
Dy1 O71 2.296756 1_555
Dy1 O66 2.296756 1_555
Dy1 O11 2.401913 1_555
Dy1 O58 2.401913 1_555
Dy1 O34 2.432919 1_555
Dy1 O8 2.444280 1_555
Dy1 O3 2.444280 1_555
Dy1 O18 2.512820 1_555
Dy2 O68 2.296756 1_555
Dy2 O65 2.296756 1_555
Dy2 O13 2.401913 1_555
Dy2 O10 2.401913 1_555
Dy2 O33 2.432919 1_555
Dy2 O2 2.444280 1_555
Dy2 O5 2.444280 1_555
Dy2 O17 2.512820 1_555
Dy3 O69 2.296756 1_555
Dy3 O64 2.296756 1_555
Dy3 O14 2.401913 1_555
Dy3 O9 2.401913 1_555
Dy3 O32 2.432919 1_555
Dy3 O6 2.444280 1_555
Dy3 O1 2.444280 1_555
Dy3 O16 2.512820 1_555
Dy4 O75 2.331055 1_555
Dy4 O78 2.331055 1_555
Dy4 O23 2.341515 1_555
Dy4 O85 2.384631 1_555
Dy4 O80 2.384631 1_555
Dy4 O5 2.543128 1_455
Dy4 O2 2.543128 1_555
Dy4 O39 2.726310 1_555
Dy5 O79 2.331055 1_555
Dy5 O74 2.331055 1_555
Dy5 O22 2.341515 1_555
Dy5 O81 2.384631 1_555
Dy5 O84 2.384631 1_555
Dy5 O6 2.543128 1_555
Dy5 O1 2.543128 1_655
Dy5 O38 2.726310 1_555
Dy6 O73 2.331055 1_555
Dy6 O76 2.331055 1_555
Dy6 O21 2.341515 1_565
Dy6 O82 2.384631 1_556
Dy6 O87 2.384631 1_556
Dy6 O7 2.543128 1_655
Dy6 O4 2.543128 1_555
Dy6 O37 2.726310 1_555
Dy7 O77 2.331055 1_555
Dy7 O95 2.331055 1_555
Dy7 O20 2.341515 1_545
Dy7 O86 2.384631 1_554
Dy7 O83 2.384631 1_554
Dy7 O8 2.543128 1_555
Dy7 O3 2.543128 1_455
Dy7 O36 2.726310 1_555
Dy8 O94 2.275353 1_555
Dy8 O91 2.275353 1_555
Dy8 O39 2.337715 1_555
Dy8 O51 2.382386 1_545
Dy8 O54 2.382386 1_545
Dy8 O27 2.586942 1_545
Dy8 O10 2.611762 1_555
Dy8 O13 2.611762 1_455
Dy9 O90 2.275353 1_555
Dy9 O72 2.275353 1_555
Dy9 O38 2.337715 1_555
Dy9 O50 2.382386 1_565
Dy9 O55 2.382386 1_565
Dy9 O26 2.586942 1_565
Dy9 O9 2.611762 1_655
Dy9 O14 2.611762 1_555
Dy10 O89 2.275353 1_555
Dy10 O92 2.275353 1_555
Dy10 O37 2.337715 1_555
Dy10 O52 2.382386 1_555
Dy10 O49 2.382386 1_555
Dy10 O25 2.586942 1_555
Dy10 O15 2.611762 1_655
Dy10 O12 2.611762 1_555
Dy11 O93 2.275353 1_555
Dy11 O88 2.275353 1_555
Dy11 O36 2.337715 1_555
Dy11 O53 2.382386 1_555
Dy11 O48 2.382386 1_555
Dy11 O24 2.586942 1_555
Dy11 O58 2.611762 1_555
Dy11 O11 2.611762 1_455
Dy12 O12 2.270487 1_555
Dy12 O15 2.270487 1_555
Dy12 O59 2.274577 1_555
Dy12 O62 2.274577 1_555
Dy12 O31 2.302237 1_555
Dy12 O49 2.497410 1_555
Dy12 O52 2.497410 1_455
Dy12 O19 2.906003 1_555
Dy13 O11 2.270487 1_555
Dy13 O58 2.270487 1_555
Dy13 O63 2.274577 1_555
Dy13 O0 2.274577 1_555
Dy13 O30 2.302237 1_555
Dy13 O48 2.497410 1_655
Dy13 O53 2.497410 1_555
Dy13 O18 2.906003 1_555
Dy14 O13 2.270487 1_565
Dy14 O10 2.270487 1_565
Dy14 O60 2.274577 1_555
Dy14 O57 2.274577 1_555
Dy14 O29 2.302237 1_555
Dy14 O54 2.497410 1_655
Dy14 O51 2.497410 1_555
Dy14 O17 2.906003 1_565
Dy15 O9 2.270487 1_545
Dy15 O14 2.270487 1_545
Dy15 O61 2.274577 1_555
Dy15 O56 2.274577 1_555
Dy15 O28 2.302237 1_555
Dy15 O55 2.497410 1_555
Dy15 O50 2.497410 1_455
Dy15 O16 2.906003 1_545
B0 O90 1.448807 1_455
B0 O64 1.450252 1_555
B0 O16 1.496287 1_555
B0 O40 1.539793 1_555
B1 O14 1.448927 1_555
B1 O57 1.454020 1_555
B1 O38 1.525232 1_555
B1 O6 1.529218 1_555
B2 O13 1.448927 1_455
B2 O56 1.454020 1_555
B2 O39 1.525232 1_555
B2 O5 1.529218 1_455
B3 O58 1.448927 1_555
B3 O59 1.454020 1_554
B3 O36 1.525232 1_555
B3 O8 1.529218 1_555
B4 O15 1.448927 1_655
B4 O0 1.454020 1_556
B4 O37 1.525232 1_555
B4 O7 1.529218 1_655
B5 O10 1.448927 1_555
B5 O61 1.454020 1_555
B5 O39 1.525232 1_555
B5 O2 1.529218 1_555
B6 O9 1.448927 1_655
B6 O60 1.454020 1_555
B6 O38 1.525232 1_555
B6 O1 1.529218 1_655
B7 O12 1.448927 1_555
B7 O63 1.454020 1_556
B7 O37 1.525232 1_555
B7 O4 1.529218 1_555
B8 O11 1.448927 1_455
B8 O62 1.454020 1_554
B8 O36 1.525232 1_555
B8 O3 1.529218 1_455
B9 O34 1.471646 1_565
B9 O72 1.473187 1_555
B9 O77 1.474441 1_565
B9 O87 1.478335 1_555
B10 O35 1.471646 1_545
B10 O94 1.473187 1_555
B10 O76 1.474441 1_445
B10 O86 1.478335 1_555
B11 O32 1.471646 1_555
B11 O93 1.473187 1_555
B11 O79 1.474441 1_555
B11 O85 1.478335 1_555
B12 O33 1.471646 1_555
B12 O92 1.473187 1_555
B12 O78 1.474441 1_655
B12 O84 1.478335 1_555
B13 O35 1.471646 1_545
B13 O91 1.473187 1_555
B13 O73 1.474441 1_545
B13 O83 1.478335 1_555
B14 O34 1.471646 1_565
B14 O90 1.473187 1_555
B14 O95 1.474441 1_665
B14 O82 1.478335 1_555
B15 O33 1.471646 1_555
B15 O89 1.473187 1_555
B15 O75 1.474441 1_555
B15 O81 1.478335 1_555
B16 O32 1.471646 1_555
B16 O88 1.473187 1_555
B16 O74 1.474441 1_455
B16 O80 1.478335 1_555
B17 O91 1.448807 1_555
B17 O65 1.450252 1_555
B17 O17 1.496287 1_555
B17 O41 1.539793 1_555
B18 O88 1.448807 1_655
B18 O66 1.450252 1_555
B18 O18 1.496287 1_555
B18 O42 1.539793 1_555
B19 O89 1.448807 1_555
B19 O67 1.450252 1_555
B19 O19 1.496287 1_555
B19 O43 1.539793 1_555
B20 O94 1.448807 1_655
B20 O68 1.450252 1_555
B20 O17 1.496287 1_555
B20 O44 1.539793 1_555
B21 O72 1.448807 1_555
B21 O69 1.450252 1_555
B21 O16 1.496287 1_555
B21 O45 1.539793 1_555
B22 O92 1.448807 1_455
B22 O70 1.450252 1_555
B22 O19 1.496287 1_555
B22 O46 1.539793 1_555
B23 O93 1.448807 1_555
B23 O71 1.450252 1_555
B23 O18 1.496287 1_555
B23 O47 1.539793 1_555
B24 O82 1.458735 1_455
B24 O20 1.472416 1_555
B24 O7 1.480162 1_554
B24 O40 1.521354 1_555
B25 O83 1.458735 1_555
B25 O21 1.472416 1_555
B25 O8 1.480162 1_556
B25 O41 1.521354 1_555
B26 O80 1.458735 1_655
B26 O22 1.472416 1_555
B26 O5 1.480162 1_555
B26 O42 1.521354 1_555
B27 O81 1.458735 1_555
B27 O23 1.472416 1_555
B27 O6 1.480162 1_555
B27 O43 1.521354 1_555
B28 O86 1.458735 1_655
B28 O21 1.472416 1_555
B28 O3 1.480162 1_556
B28 O44 1.521354 1_555
B29 O87 1.458735 1_555
B29 O20 1.472416 1_555
B29 O4 1.480162 1_554
B29 O45 1.521354 1_555
B30 O84 1.458735 1_455
B30 O23 1.472416 1_555
B30 O1 1.480162 1_555
B30 O46 1.521354 1_555
B31 O85 1.458735 1_555
B31 O22 1.472416 1_555
B31 O2 1.480162 1_555
B31 O47 1.521354 1_555
B32 O24 1.458313 1_555
B32 O0 1.462373 1_455
B32 O48 1.491802 1_555
B32 O40 1.532363 1_555
B33 O25 1.458313 1_555
B33 O59 1.462373 1_555
B33 O49 1.491802 1_555
B33 O41 1.532363 1_555
B34 O26 1.458313 1_555
B34 O56 1.462373 1_655
B34 O50 1.491802 1_555
B34 O42 1.532363 1_555
B35 O27 1.458313 1_555
B35 O57 1.462373 1_555
B35 O51 1.491802 1_555
B35 O43 1.532363 1_555
B36 O25 1.458313 1_555
B36 O62 1.462373 1_655
B36 O52 1.491802 1_555
B36 O44 1.532363 1_555
B37 O24 1.458313 1_555
B37 O63 1.462373 1_555
B37 O53 1.491802 1_555
B37 O45 1.532363 1_555
B38 O27 1.458313 1_555
B38 O60 1.462373 1_455
B38 O54 1.491802 1_555
B38 O46 1.532363 1_555
B39 O26 1.458313 1_555
B39 O61 1.462373 1_555
B39 O55 1.491802 1_555
B39 O47 1.532363 1_555
B40 O66 1.448508 1_455
B40 O28 1.453199 1_555
B40 O95 1.473510 1_555
B40 O50 1.529078 1_455
B41 O67 1.448508 1_555
B41 O29 1.453199 1_555
B41 O73 1.473510 1_555
B41 O51 1.529078 1_555
B42 O64 1.448508 1_655
B42 O30 1.453199 1_555
B42 O74 1.473510 1_555
B42 O48 1.529078 1_655
B43 O65 1.448508 1_555
B43 O31 1.453199 1_555
B43 O75 1.473510 1_555
B43 O49 1.529078 1_555
B44 O70 1.448508 1_655
B44 O29 1.453199 1_555
B44 O76 1.473510 1_555
B44 O54 1.529078 1_655
B45 O71 1.448508 1_555
B45 O28 1.453199 1_555
B45 O77 1.473510 1_555
B45 O55 1.529078 1_555
B46 O68 1.448508 1_455
B46 O31 1.453199 1_555
B46 O78 1.473510 1_555
B46 O52 1.529078 1_455
B47 O69 1.448508 1_555
B47 O30 1.453199 1_555
B47 O79 1.473510 1_555
B47 O53 1.529078 1_555
