# generated using pymatgen
data_Ga(FeBr4)2
_symmetry_space_group_name_H-M   'P 1'
_cell_length_a   7.99629400
_cell_length_b   7.99629295
_cell_length_c   6.25126628
_cell_angle_alpha   89.38424166
_cell_angle_beta   89.38423991
_cell_angle_gamma   62.27851964
_symmetry_Int_Tables_number   1
_chemical_formula_structural   Ga(FeBr4)2
_chemical_formula_sum   'Ga1 Fe2 Br8'
_cell_volume   353.80346585
_cell_formula_units_Z   1
loop_
 _symmetry_equiv_pos_site_id
 _symmetry_equiv_pos_as_xyz
  1  'x, y, z'
loop_
 _atom_site_type_symbol
 _atom_site_label
 _atom_site_symmetry_multiplicity
 _atom_site_fract_x
 _atom_site_fract_y
 _atom_site_fract_z
 _atom_site_occupancy
  Ga  Ga0  1  0.16851751  0.16851751  0.38503004  1
  Fe  Fe0  1  0.98864530  0.98864530  0.98757788  1
  Fe  Fe1  1  0.83725375  0.83725375  0.62456387  1
  Br  Br0  1  0.83553727  0.83553727  0.23853091  1
  Br  Br1  1  0.86205945  0.29421793  0.23456537  1
  Br  Br2  1  0.29421793  0.86205945  0.23456537  1
  Br  Br3  1  0.32977863  0.32977863  0.28546458  1
  Br  Br4  1  0.67556816  0.67556816  0.72215903  1
  Br  Br5  1  0.69559889  0.15176451  0.76265545  1
  Br  Br6  1  0.15176451  0.69559889  0.76265545  1
  Br  Br7  1  0.16106061  0.16106061  0.76223304  1
loop_
_geom_bond_atom_site_label_1
_geom_bond_atom_site_label_2
_geom_bond_distance
_geom_bond_site_symmetry_2
Br0 Fe1 2.413604 1_555
Br0 Fe0 2.602075 1_554
Br1 Ga0 2.374400 1_655
Br1 Fe0 2.669340 1_544
Br2 Ga0 2.374400 1_565
Br2 Fe0 2.669341 1_454
Br3 Ga0 2.285922 1_555
Br4 Fe1 2.288348 1_555
Br5 Fe1 2.393415 1_545
Br5 Fe0 2.521332 1_545
Br6 Fe1 2.393416 1_455
Br6 Fe0 2.521331 1_455
Br7 Ga0 2.358924 1_555
Br7 Fe0 2.733283 1_445
