# generated using pymatgen
data_KInAsH
_symmetry_space_group_name_H-M   'P 1'
_cell_length_a   4.30264015
_cell_length_b   4.30264148
_cell_length_c   6.15713498
_cell_angle_alpha   90.00000000
_cell_angle_beta   90.00000000
_cell_angle_gamma   119.99998230
_symmetry_Int_Tables_number   1
_chemical_formula_structural   KInAsH
_chemical_formula_sum   'K1 In1 As1 H1'
_cell_volume   98.71418598
_cell_formula_units_Z   1
loop_
 _symmetry_equiv_pos_site_id
 _symmetry_equiv_pos_as_xyz
  1  'x, y, z'
loop_
 _atom_site_type_symbol
 _atom_site_label
 _atom_site_symmetry_multiplicity
 _atom_site_fract_x
 _atom_site_fract_y
 _atom_site_fract_z
 _atom_site_occupancy
  K  K0  1  0.33333300  0.66666700  0.03908582  1
  In  In0  1  0.00000000  0.00000000  0.56576430  1
  As  As0  1  0.66666700  0.33333300  0.41213765  1
  H  H0  1  0.00000000  0.00000000  0.86291223  1
loop_
_geom_bond_atom_site_label_1
_geom_bond_atom_site_label_2
_geom_bond_distance
_geom_bond_site_symmetry_2
As0 In0 2.658123 1_655
As0 In0 2.658127 1_555
As0 In0 2.658128 1_665
As0 K0 3.383310 1_655
As0 K0 3.383310 1_545
As0 K0 3.383315 1_555
H0 In0 1.829580 1_555
H0 K0 2.710631 1_546
H0 K0 2.710635 1_446
H0 K0 2.710635 1_556
