# generated using pymatgen
data_K2Ti(Te2Au)2
_symmetry_space_group_name_H-M   'P 1'
_cell_length_a   7.89929993
_cell_length_b   7.89930034
_cell_length_c   6.29304670
_cell_angle_alpha   90.00000000
_cell_angle_beta   90.00000000
_cell_angle_gamma   132.89349996
_symmetry_Int_Tables_number   1
_chemical_formula_structural   K2Ti(Te2Au)2
_chemical_formula_sum   'K2 Ti1 Te4 Au2'
_cell_volume   287.68487317
_cell_formula_units_Z   1
loop_
 _symmetry_equiv_pos_site_id
 _symmetry_equiv_pos_as_xyz
  1  'x, y, z'
loop_
 _atom_site_type_symbol
 _atom_site_label
 _atom_site_symmetry_multiplicity
 _atom_site_fract_x
 _atom_site_fract_y
 _atom_site_fract_z
 _atom_site_occupancy
  K  K0  1  0.50000000  0.00000000  0.25377529  1
  K  K1  1  0.00000000  0.50000000  0.74622471  1
  Ti  Ti0  1  0.00000000  0.00000000  0.00000000  1
  Te  Te0  1  0.87297060  0.65103647  0.23757691  1
  Te  Te1  1  0.12702940  0.34896353  0.23757691  1
  Te  Te2  1  0.65103647  0.87297060  0.76242309  1
  Te  Te3  1  0.34896353  0.12702940  0.76242309  1
  Au  Au0  1  0.00000000  0.00000000  0.50000000  1
  Au  Au1  1  0.50000000  0.50000000  0.00000000  1
loop_
_geom_bond_atom_site_label_1
_geom_bond_atom_site_label_2
_geom_bond_distance
_geom_bond_site_symmetry_2
K0 Te1 3.681842 1_655
K0 Te0 3.681842 1_445
K0 Te3 3.690684 1_554
K0 Te2 3.690684 1_544
K0 Te2 3.782340 1_545
K0 Te3 3.782340 1_555
K0 Te0 3.809565 1_555
K0 Te1 3.809565 1_545
K1 Te3 3.681843 1_565
K1 Te2 3.681843 1_445
K1 Te1 3.690684 1_556
K1 Te0 3.690684 1_456
K1 Te1 3.782340 1_555
K1 Te0 3.782340 1_455
K1 Te2 3.809565 1_555
K1 Te3 3.809565 1_455
Te0 Ti0 2.659975 1_665
Te1 Ti0 2.659975 1_555
Te2 Ti0 2.659975 1_666
Te3 Ti0 2.659975 1_556
Au0 Te3 2.750900 1_555
Au0 Te2 2.750900 1_445
Au0 Te1 2.750900 1_555
Au0 Te0 2.750900 1_445
Au0 Ti0 3.146523 1_555
Au0 Ti0 3.146523 1_556
Au1 Te0 2.748432 1_555
Au1 Te1 2.748432 1_555
Au1 Te2 2.748432 1_554
Au1 Te3 2.748432 1_554
Au1 Ti0 3.156570 1_665
Au1 Ti0 3.156570 1_555
