# generated using pymatgen
data_Ho3(CuGe)4
_symmetry_space_group_name_H-M   'P 1'
_cell_length_a   4.15963899
_cell_length_b   6.59352264
_cell_length_c   7.92100331
_cell_angle_alpha   114.59523133
_cell_angle_beta   105.22261768
_cell_angle_gamma   90.00000367
_symmetry_Int_Tables_number   1
_chemical_formula_structural   Ho3(CuGe)4
_chemical_formula_sum   'Ho3 Cu4 Ge4'
_cell_volume   189.12080121
_cell_formula_units_Z   1
loop_
 _symmetry_equiv_pos_site_id
 _symmetry_equiv_pos_as_xyz
  1  'x, y, z'
loop_
 _atom_site_type_symbol
 _atom_site_label
 _atom_site_symmetry_multiplicity
 _atom_site_fract_x
 _atom_site_fract_y
 _atom_site_fract_z
 _atom_site_occupancy
  Ho  Ho0  1  0.86918674  0.86918674  0.73837348  1
  Ho  Ho1  1  0.13081326  0.13081326  0.26162652  1
  Ho  Ho2  1  -0.00000000  0.50000000  0.00000000  1
  Cu  Cu0  1  0.66876944  0.85800268  0.33753988  1
  Cu  Cu1  1  0.33123056  0.14199732  0.66246012  1
  Cu  Cu2  1  0.66876944  0.47953820  0.33753988  1
  Cu  Cu3  1  0.33123056  0.52046180  0.66246012  1
  Ge  Ge0  1  0.78330310  0.28330310  0.56660620  1
  Ge  Ge1  1  0.50000000  0.80877691  -0.00000000  1
  Ge  Ge2  1  0.50000000  0.19122309  0.00000000  1
  Ge  Ge3  1  0.21669690  0.71669690  0.43339380  1
loop_
_geom_bond_atom_site_label_1
_geom_bond_atom_site_label_2
_geom_bond_distance
_geom_bond_site_symmetry_2
Cu0 Ge1 2.457353 1_555
Cu0 Cu2 2.495414 1_555
Cu0 Ge3 2.513820 1_555
Cu0 Ge3 2.513824 1_655
Cu0 Ge0 2.587184 1_565
Cu0 Ho1 2.966187 1_565
Cu0 Ho1 2.966189 1_665
Cu0 Ho0 3.032525 1_555
Cu1 Ge2 2.457353 1_556
Cu1 Cu3 2.495414 1_555
Cu1 Ge0 2.513820 1_555
Cu1 Ge0 2.513824 1_455
Cu1 Ge3 2.587184 1_545
Cu1 Ho0 2.966187 1_545
Cu1 Ho0 2.966189 1_445
Cu1 Ho1 3.032525 1_555
Cu2 Ge2 2.457355 1_555
Cu2 Ge3 2.513817 1_555
Cu2 Ge3 2.513820 1_655
Cu2 Ge0 2.587189 1_555
Cu2 Ho1 2.966191 1_555
Cu2 Ho1 2.966194 1_655
Cu2 Ho0 3.032522 1_555
Cu3 Ge1 2.457355 1_556
Cu3 Ge0 2.513817 1_555
Cu3 Ge0 2.513820 1_455
Cu3 Ge3 2.587189 1_555
Cu3 Ho0 2.966191 1_555
Cu3 Ho0 2.966194 1_455
Cu3 Ho1 3.032522 1_555
Ge0 Ho1 2.957738 1_655
Ge0 Ho1 2.957738 1_555
Ge0 Ho2 2.988470 1_656
Ge1 Ge2 2.521668 1_565
Ge1 Ho2 2.910438 1_555
Ge1 Ho2 2.910438 1_655
Ge1 Ho1 3.028190 1_565
Ge1 Ho0 3.028190 1_554
Ge1 Ho1 3.028190 1_665
Ge1 Ho0 3.028191 1_454
Ge2 Ho2 2.910438 1_655
Ge2 Ho2 2.910438 1_555
Ge2 Ho0 3.028190 1_544
Ge2 Ho1 3.028190 1_555
Ge2 Ho0 3.028190 1_444
Ge2 Ho1 3.028191 1_655
Ge3 Ho0 2.957738 1_455
Ge3 Ho0 2.957738 1_555
Ge3 Ho2 2.988470 1_555
