# generated using pymatgen
data_Ta6Si6Tc5Pd
_symmetry_space_group_name_H-M   'P 1'
_cell_length_a   7.46571698
_cell_length_b   7.48769910
_cell_length_c   7.48769868
_cell_angle_alpha   127.86872145
_cell_angle_beta   122.76165969
_cell_angle_gamma   81.14913209
_symmetry_Int_Tables_number   1
_chemical_formula_structural   Ta6Si6Tc5Pd
_chemical_formula_sum   'Ta6 Si6 Tc5 Pd1'
_cell_volume   267.65339202
_cell_formula_units_Z   1
loop_
 _symmetry_equiv_pos_site_id
 _symmetry_equiv_pos_as_xyz
  1  'x, y, z'
loop_
 _atom_site_type_symbol
 _atom_site_label
 _atom_site_symmetry_multiplicity
 _atom_site_fract_x
 _atom_site_fract_y
 _atom_site_fract_z
 _atom_site_occupancy
  Ta  Ta0  1  0.54454096  0.09456081  0.04004147  1
  Ta  Ta1  1  0.45545904  0.49550051  0.55001985  1
  Ta  Ta2  1  0.95899731  0.50145266  0.02272433  1
  Ta  Ta3  1  0.04100269  0.06372701  0.54245535  1
  Ta  Ta4  1  0.74576425  0.91057509  0.65116667  1
  Ta  Ta5  1  0.25423575  0.90540142  0.16481184  1
  Si  Si0  1  0.33521757  0.82546320  0.49667252  1
  Si  Si1  1  0.66478243  0.16145495  0.49024563  1
  Si  Si2  1  0.82906372  0.83298346  0.99379959  1
  Si  Si3  1  0.17093628  0.16473487  0.00391974  1
  Si  Si4  1  0.77447572  0.52666393  0.24830196  1
  Si  Si5  1  0.22552428  0.47382624  0.75218921  1
  Tc  Tc0  1  0.15852658  0.74922719  0.65625439  1
  Tc  Tc1  1  0.84147342  0.49772682  0.59070062  1
  Tc  Tc2  1  0.59122128  0.75013468  0.08880135  1
  Tc  Tc3  1  0.40877872  0.49757807  0.15891340  1
  Tc  Tc4  1  0.50000000  0.24425110  0.74425110  1
  Pd  Pd0  1  0.00000000  0.24673499  0.24673499  1
loop_
_geom_bond_atom_site_label_1
_geom_bond_atom_site_label_2
_geom_bond_distance
_geom_bond_site_symmetry_2
Ta0 Tc0 2.730704 1_544
Ta0 Tc2 2.765408 1_545
Ta0 Tc3 2.768301 1_555
Ta0 Tc1 2.813090 1_555
Ta0 Tc4 2.899662 1_554
Ta1 Tc1 2.730703 1_555
Ta1 Tc3 2.765398 1_555
Ta1 Tc2 2.768313 1_556
Ta1 Tc0 2.813092 1_555
Ta1 Tc4 2.899662 1_555
Ta2 Tc1 2.838988 1_554
Ta2 Tc3 2.935439 1_655
Ta2 Tc4 3.027675 1_554
Ta2 Tc2 3.164946 1_555
Ta2 Tc0 3.249824 1_655
Ta3 Tc0 2.838993 1_545
Ta3 Tc2 2.935439 1_445
Ta3 Tc4 3.027675 1_555
Ta3 Tc3 3.164943 1_556
Ta3 Tc1 3.249817 1_455
Ta4 Tc3 2.800411 1_555
Ta4 Tc4 2.816043 1_565
Ta4 Tc1 2.867702 1_555
Ta4 Tc2 3.076253 1_555
Ta4 Tc0 3.121038 1_655
Ta5 Tc2 2.800406 1_555
Ta5 Tc4 2.816039 1_565
Ta5 Tc0 2.867705 1_554
Ta5 Tc3 3.076257 1_555
Ta5 Tc1 3.121041 1_454
Si0 Tc3 2.488086 1_555
Si0 Tc0 2.503754 1_555
Si0 Tc4 2.522915 1_565
Si0 Ta3 2.642589 1_565
Si0 Ta5 2.643309 1_555
Si0 Ta4 2.645241 1_555
Si0 Ta0 2.660533 1_566
Si0 Ta2 2.666034 1_455
Si0 Ta1 2.685258 1_555
Si1 Tc2 2.488081 1_545
Si1 Tc1 2.503748 1_555
Si1 Tc4 2.522915 1_555
Si1 Ta2 2.642590 1_556
Si1 Ta4 2.643322 1_545
Si1 Ta5 2.645245 1_545
Si1 Ta1 2.660533 1_555
Si1 Ta3 2.666034 1_655
Si1 Ta0 2.685258 1_555
Si2 Tc2 2.508308 1_556
Si2 Tc1 2.519763 1_555
Si2 Ta2 2.615700 1_556
Si2 Ta1 2.652553 1_555
Si2 Ta0 2.674189 1_566
Si2 Ta5 2.699538 1_656
Si2 Ta4 2.701522 1_555
Si2 Ta3 2.730884 1_666
Si3 Tc3 2.508302 1_555
Si3 Tc0 2.519757 1_544
Si3 Ta3 2.615703 1_554
Si3 Ta0 2.652552 1_555
Si3 Ta1 2.674190 1_555
Si3 Ta4 2.699539 1_444
Si3 Ta5 2.701528 1_545
Si3 Ta2 2.730890 1_455
Si4 Tc3 2.444511 1_555
Si4 Tc0 2.463852 1_655
Si4 Tc2 2.465471 1_555
Si4 Tc4 2.465751 1_554
Si4 Tc1 2.476053 1_555
Si4 Ta2 2.614022 1_555
Si4 Ta4 2.696867 1_555
Si4 Ta0 2.909371 1_555
Si5 Tc2 2.444511 1_556
Si5 Tc1 2.463850 1_455
Si5 Tc3 2.465473 1_556
Si5 Tc4 2.465751 1_555
Si5 Tc0 2.476053 1_555
Si5 Ta3 2.614019 1_555
Si5 Ta5 2.696863 1_556
Si5 Ta1 2.909378 1_555
Tc0 Tc1 2.893000 1_455
Tc0 Tc2 3.095378 1_556
Tc1 Tc3 3.095374 1_555
Tc2 Tc4 2.891797 1_554
Tc2 Tc3 2.914158 1_555
Tc3 Tc4 2.891797 1_554
Pd0 Si4 2.476590 1_455
Pd0 Si5 2.476596 1_555
Pd0 Si3 2.492126 1_555
Pd0 Si2 2.492128 1_444
Pd0 Tc1 2.870190 1_455
Pd0 Tc0 2.870191 1_555
Pd0 Ta4 2.890248 1_444
Pd0 Ta5 2.890252 1_545
Pd0 Ta0 2.930434 1_455
Pd0 Ta1 2.930434 1_555
Pd0 Ta3 3.120399 1_555
Pd0 Ta2 3.120399 1_455
