# generated using pymatgen
data_Hf6Al15ZnPt7
_symmetry_space_group_name_H-M   'P 1'
_cell_length_a   8.69451164
_cell_length_b   8.69451166
_cell_length_c   8.69267458
_cell_angle_alpha   59.99301067
_cell_angle_beta   59.99300892
_cell_angle_gamma   60.00000591
_symmetry_Int_Tables_number   1
_chemical_formula_structural   Hf6Al15ZnPt7
_chemical_formula_sum   'Hf6 Al15 Zn1 Pt7'
_cell_volume   464.60399121
_cell_formula_units_Z   1
loop_
 _symmetry_equiv_pos_site_id
 _symmetry_equiv_pos_as_xyz
  1  'x, y, z'
loop_
 _atom_site_type_symbol
 _atom_site_label
 _atom_site_symmetry_multiplicity
 _atom_site_fract_x
 _atom_site_fract_y
 _atom_site_fract_z
 _atom_site_occupancy
  Hf  Hf0  1  0.68126922  0.68126922  0.31910151  1
  Hf  Hf1  1  0.31835906  0.68126922  0.31910151  1
  Hf  Hf2  1  0.68126922  0.31835906  0.31910151  1
  Hf  Hf3  1  0.31903065  0.31903065  0.68116964  1
  Hf  Hf4  1  0.68076806  0.31903065  0.68116964  1
  Hf  Hf5  1  0.31903065  0.68076806  0.68116964  1
  Al  Al0  1  0.87958972  0.36069391  0.88012565  1
  Al  Al1  1  0.36069391  0.87958972  0.88012565  1
  Al  Al2  1  0.87958972  0.87958972  0.88012565  1
  Al  Al3  1  0.12032928  0.12032928  0.63901316  1
  Al  Al4  1  0.11767380  0.64152978  0.12312463  1
  Al  Al5  1  0.64152978  0.11767380  0.12312463  1
  Al  Al6  1  0.11767380  0.11767380  0.12312463  1
  Al  Al7  1  0.66493444  0.66493444  0.00519567  1
  Al  Al8  1  0.66753943  0.00272783  0.66219231  1
  Al  Al9  1  0.00272783  0.66753943  0.66219231  1
  Al  Al10  1  0.66753943  0.66753943  0.66219231  1
  Al  Al11  1  0.33468081  0.33468081  0.99595857  1
  Al  Al12  1  0.33575074  0.99472648  0.33377303  1
  Al  Al13  1  0.99472648  0.33575074  0.33377303  1
  Al  Al14  1  0.33575074  0.33575074  0.33377303  1
  Zn  Zn0  1  0.88024783  0.88024783  0.35925650  1
  Pt  Pt0  1  0.00259045  0.00259045  0.99222864  1
  Pt  Pt1  1  0.00179313  0.00179313  0.50466351  1
  Pt  Pt2  1  0.49175023  0.00179313  0.50466351  1
  Pt  Pt3  1  0.00179313  0.49175023  0.50466351  1
  Pt  Pt4  1  0.50042508  0.50042508  0.99863055  1
  Pt  Pt5  1  0.00051929  0.50042508  0.99863055  1
  Pt  Pt6  1  0.50042508  0.00051929  0.99863055  1
loop_
_geom_bond_atom_site_label_1
_geom_bond_atom_site_label_2
_geom_bond_distance
_geom_bond_site_symmetry_2
Hf0 Hf5 3.148086 1_555
Hf0 Hf4 3.148086 1_555
Hf0 Hf1 3.155327 1_555
Hf0 Hf2 3.155327 1_555
Hf0 Pt5 3.196861 1_654
Hf0 Pt6 3.196861 1_564
Hf0 Zn0 3.210726 1_555
Hf0 Pt2 3.213865 1_565
Hf0 Pt3 3.213865 1_655
Hf1 Hf5 3.148086 1_555
Hf1 Hf3 3.148086 1_555
Hf1 Hf2 3.155327 1_555
Hf1 Pt4 3.196859 1_554
Hf1 Pt6 3.196865 1_564
Hf1 Zn0 3.210719 1_455
Hf1 Pt3 3.213857 1_555
Hf1 Pt1 3.213864 1_565
Hf2 Hf4 3.148086 1_555
Hf2 Hf3 3.148086 1_555
Hf2 Pt4 3.196859 1_554
Hf2 Pt5 3.196865 1_654
Hf2 Zn0 3.210719 1_545
Hf2 Pt2 3.213857 1_555
Hf2 Pt1 3.213864 1_655
Hf3 Hf4 3.145130 1_555
Hf3 Hf5 3.145130 1_555
Hf3 Pt2 3.162797 1_555
Hf3 Pt3 3.162797 1_555
Hf3 Pt5 3.180181 1_555
Hf3 Pt6 3.180181 1_555
Hf4 Hf5 3.145130 1_555
Hf4 Pt1 3.162799 1_655
Hf4 Pt3 3.162804 1_655
Hf4 Pt6 3.180177 1_555
Hf4 Pt4 3.180183 1_555
Hf5 Pt1 3.162799 1_565
Hf5 Pt2 3.162804 1_565
Hf5 Pt5 3.180177 1_555
Hf5 Pt4 3.180183 1_555
Al0 Pt0 2.542700 1_655
Al0 Pt3 2.664946 1_655
Al0 Pt4 2.693516 1_555
Al0 Pt5 2.693523 1_655
Al0 Hf2 3.212215 1_556
Al0 Hf4 3.217699 1_555
Al0 Hf3 3.217699 1_655
Al1 Pt0 2.542700 1_565
Al1 Pt2 2.664946 1_565
Al1 Pt4 2.693516 1_555
Al1 Pt6 2.693523 1_565
Al1 Hf1 3.212215 1_556
Al1 Hf5 3.217699 1_555
Al1 Hf3 3.217699 1_565
Al2 Pt0 2.542707 1_665
Al2 Pt1 2.664946 1_665
Al2 Pt6 2.693516 1_565
Al2 Pt5 2.693516 1_655
Al2 Hf0 3.212215 1_556
Al2 Hf5 3.217699 1_655
Al2 Hf4 3.217699 1_565
Al3 Pt0 2.506696 1_555
Al3 Pt2 2.637817 1_555
Al3 Pt3 2.637817 1_555
Al3 Pt1 2.637824 1_555
Al3 Hf3 3.217865 1_555
Al3 Hf4 3.217880 1_455
Al3 Hf5 3.217880 1_545
Al4 Pt0 2.564306 1_564
Al4 Pt3 2.713043 1_555
Al4 Pt4 2.719169 1_554
Al4 Pt5 2.719183 1_554
Al4 Zn0 2.919069 1_455
Al4 Hf1 3.198556 1_555
Al4 Hf0 3.198579 1_455
Al4 Hf5 3.240320 1_554
Al5 Pt0 2.564306 1_654
Al5 Pt2 2.713043 1_555
Al5 Pt4 2.719169 1_554
Al5 Pt6 2.719183 1_554
Al5 Zn0 2.919069 1_545
Al5 Hf2 3.198556 1_555
Al5 Hf0 3.198579 1_545
Al5 Hf4 3.240320 1_554
Al6 Pt0 2.564320 1_554
Al6 Pt1 2.713042 1_555
Al6 Pt6 2.719169 1_554
Al6 Pt5 2.719169 1_554
Al6 Zn0 2.919082 1_445
Al6 Hf2 3.198573 1_455
Al6 Hf1 3.198573 1_545
Al6 Hf3 3.240314 1_554
Al7 Pt4 2.510789 1_554
Al7 Pt5 2.510797 1_654
Al7 Pt6 2.510797 1_564
Al7 Hf0 2.877750 1_555
Al7 Hf1 2.877750 1_555
Al7 Hf2 2.877751 1_555
Al8 Pt2 2.515570 1_555
Al8 Pt1 2.515577 1_655
Al8 Pt6 2.527058 1_555
Al8 Zn0 2.730016 1_545
Al8 Hf2 2.867950 1_555
Al8 Hf4 2.896986 1_555
Al8 Hf3 2.896987 1_555
Al9 Pt3 2.515570 1_555
Al9 Pt1 2.515578 1_565
Al9 Pt5 2.527058 1_555
Al9 Zn0 2.730016 1_455
Al9 Hf1 2.867950 1_555
Al9 Hf5 2.896986 1_555
Al9 Hf3 2.896987 1_555
Al10 Pt3 2.515575 1_655
Al10 Pt2 2.515575 1_565
Al10 Pt4 2.527056 1_555
Al10 Zn0 2.730020 1_555
Al10 Hf0 2.867950 1_555
Al10 Hf5 2.896986 1_555
Al10 Hf4 2.896986 1_555
Al11 Pt4 2.509483 1_555
Al11 Pt5 2.509491 1_555
Al11 Pt6 2.509491 1_555
Al11 Hf4 2.878885 1_555
Al11 Hf5 2.878885 1_555
Al11 Hf3 2.878894 1_555
Al12 Pt2 2.498002 1_565
Al12 Pt1 2.498009 1_565
Al12 Pt6 2.508594 1_564
Al12 Hf0 2.871533 1_555
Al12 Hf1 2.871542 1_555
Al12 Hf5 2.881751 1_555
Al13 Pt3 2.498002 1_655
Al13 Pt1 2.498009 1_655
Al13 Pt5 2.508594 1_654
Al13 Hf0 2.871533 1_555
Al13 Hf2 2.871542 1_555
Al13 Hf4 2.881751 1_555
Al14 Pt3 2.498007 1_555
Al14 Pt2 2.498007 1_555
Al14 Pt4 2.508592 1_554
Al14 Hf2 2.871525 1_555
Al14 Hf1 2.871525 1_555
Al14 Hf3 2.881743 1_555
Pt0 Zn0 2.604719 1_446
Pt1 Zn0 2.760437 1_445
Pt2 Zn0 2.760437 1_545
Pt3 Zn0 2.760437 1_455
