# generated using pymatgen
data_GaPS4
_symmetry_space_group_name_H-M   'P 1'
_cell_length_a   7.96465253
_cell_length_b   8.38052926
_cell_length_c   11.92752101
_cell_angle_alpha   47.43521174
_cell_angle_beta   90.00000000
_cell_angle_gamma   90.00000000
_symmetry_Int_Tables_number   1
_chemical_formula_structural   GaPS4
_chemical_formula_sum   'Ga4 P4 S16'
_cell_volume   586.36608880
_cell_formula_units_Z   4
loop_
 _symmetry_equiv_pos_site_id
 _symmetry_equiv_pos_as_xyz
  1  'x, y, z'
loop_
 _atom_site_type_symbol
 _atom_site_label
 _atom_site_symmetry_multiplicity
 _atom_site_fract_x
 _atom_site_fract_y
 _atom_site_fract_z
 _atom_site_occupancy
  Ga  Ga0  1  0.53974285  0.38113340  0.38698887  1
  Ga  Ga1  1  0.03974285  0.61886660  0.11301113  1
  Ga  Ga2  1  0.46025715  0.61886660  0.61301113  1
  Ga  Ga3  1  0.96025715  0.38113340  0.88698887  1
  P  P0  1  0.73638231  0.36291394  0.65214020  1
  P  P1  1  0.76361769  0.36291394  0.15214020  1
  P  P2  1  0.26361769  0.63708606  0.34785980  1
  P  P3  1  0.23638231  0.63708606  0.84785980  1
  S  S0  1  0.48138085  0.74466332  0.22421747  1
  S  S1  1  0.98138085  0.25533668  0.27578253  1
  S  S2  1  0.51861915  0.25533668  0.77578253  1
  S  S3  1  0.01861915  0.74466332  0.72421747  1
  S  S4  1  0.27376150  0.30649414  0.48737565  1
  S  S5  1  0.77376150  0.69350586  0.01262435  1
  S  S6  1  0.72623850  0.69350586  0.51262435  1
  S  S7  1  0.22623850  0.30649414  0.98737565  1
  S  S8  1  0.76848808  0.25802193  0.53997078  1
  S  S9  1  0.26848808  0.74197807  0.96002922  1
  S  S10  1  0.23151192  0.74197807  0.46002922  1
  S  S11  1  0.73151192  0.25802193  0.03997078  1
  S  S12  1  0.94936345  0.23018293  0.78395318  1
  S  S13  1  0.55063655  0.23018293  0.28395318  1
  S  S14  1  0.05063655  0.76981707  0.21604682  1
  S  S15  1  0.44936345  0.76981707  0.71604682  1
loop_
_geom_bond_atom_site_label_1
_geom_bond_atom_site_label_2
_geom_bond_distance
_geom_bond_site_symmetry_2
Ga0 S8 2.272960 1_555
Ga0 S13 2.285053 1_555
Ga0 S0 2.294586 1_555
Ga0 S4 2.302072 1_555
Ga1 S9 2.272960 1_554
Ga1 S14 2.285053 1_555
Ga1 S1 2.294586 1_455
Ga1 S5 2.302072 1_455
Ga2 S10 2.272960 1_555
Ga2 S15 2.285053 1_555
Ga2 S2 2.294586 1_555
Ga2 S6 2.302072 1_555
Ga3 S11 2.272960 1_556
Ga3 S12 2.285053 1_555
Ga3 S3 2.294586 1_655
Ga3 S7 2.302072 1_655
P0 S2 2.048695 1_555
P0 S6 2.052901 1_555
P0 S8 2.054061 1_555
P0 S12 2.054443 1_555
P1 S1 2.048695 1_555
P1 S5 2.052901 1_555
P1 S11 2.054061 1_555
P1 S13 2.054443 1_555
P2 S0 2.048695 1_555
P2 S4 2.052901 1_555
P2 S10 2.054061 1_555
P2 S14 2.054443 1_555
P3 S3 2.048695 1_555
P3 S7 2.052901 1_555
P3 S9 2.054061 1_555
P3 S15 2.054443 1_555
