# generated using pymatgen
data_ScBe2Cu2Au
_symmetry_space_group_name_H-M   'P 1'
_cell_length_a   4.71109334
_cell_length_b   4.71109240
_cell_length_c   4.72817529
_cell_angle_alpha   59.87996998
_cell_angle_beta   59.87997662
_cell_angle_gamma   61.65644947
_symmetry_Int_Tables_number   1
_chemical_formula_structural   ScBe2Cu2Au
_chemical_formula_sum   'Sc1 Be2 Cu2 Au1'
_cell_volume   74.94701963
_cell_formula_units_Z   1
loop_
 _symmetry_equiv_pos_site_id
 _symmetry_equiv_pos_as_xyz
  1  'x, y, z'
loop_
 _atom_site_type_symbol
 _atom_site_label
 _atom_site_symmetry_multiplicity
 _atom_site_fract_x
 _atom_site_fract_y
 _atom_site_fract_z
 _atom_site_occupancy
  Sc  Sc0  1  0.24864901  0.24864901  0.25135099  1
  Be  Be0  1  0.63135969  0.63135969  0.61834942  1
  Be  Be1  1  0.63135969  0.63135969  0.11892820  1
  Cu  Cu0  1  0.62262219  0.12681406  0.62528088  1
  Cu  Cu1  1  0.12681406  0.62262219  0.62528088  1
  Au  Au0  1  0.98919237  0.98919237  0.01080763  1
loop_
_geom_bond_atom_site_label_1
_geom_bond_atom_site_label_2
_geom_bond_distance
_geom_bond_site_symmetry_2
Be0 Cu0 2.331336 1_565
Be0 Cu1 2.331337 1_655
Be0 Be1 2.361351 1_555
Be0 Be1 2.366824 1_556
Be0 Cu0 2.380353 1_555
Be0 Cu1 2.380353 1_555
Be0 Sc0 2.777456 1_556
Be0 Sc0 2.795660 1_565
Be0 Sc0 2.795660 1_655
Be1 Cu0 2.331333 1_564
Be1 Cu1 2.331334 1_654
Be1 Cu0 2.380355 1_555
Be1 Cu1 2.380355 1_555
Be1 Sc0 2.777450 1_555
Be1 Sc0 2.795666 1_565
Be1 Sc0 2.795666 1_655
Cu0 Cu1 2.394034 1_555
Cu0 Cu1 2.434515 1_645
Cu0 Sc0 2.740279 1_655
Cu0 Sc0 2.776123 1_555
Cu0 Sc0 2.776131 1_556
Cu1 Sc0 2.740279 1_565
Cu1 Sc0 2.776123 1_555
Cu1 Sc0 2.776130 1_556
Au0 Be0 2.629370 1_555
Au0 Be1 2.629376 1_555
Au0 Cu1 2.763240 1_655
Au0 Cu0 2.763240 1_565
Au0 Cu1 2.763248 1_654
Au0 Cu0 2.763248 1_564
Au0 Cu1 2.799974 1_664
Au0 Cu0 2.799974 1_664
Au0 Be1 2.846125 1_565
Au0 Be1 2.846126 1_655
Au0 Be0 2.846131 1_564
Au0 Be0 2.846131 1_654
Au0 Sc0 2.884951 1_655
Au0 Sc0 2.884952 1_565
Au0 Sc0 2.913894 1_664
Au0 Sc0 2.913894 1_665
