# generated using pymatgen
data_Lu2TiCr2O8
_symmetry_space_group_name_H-M   'P 1'
_cell_length_a   6.14073369
_cell_length_b   6.14073228
_cell_length_c   5.00612813
_cell_angle_alpha   71.72469170
_cell_angle_beta   71.72468129
_cell_angle_gamma   57.86820929
_symmetry_Int_Tables_number   1
_chemical_formula_structural   Lu2TiCr2O8
_chemical_formula_sum   'Lu2 Ti1 Cr2 O8'
_cell_volume   149.24486111
_cell_formula_units_Z   1
loop_
 _symmetry_equiv_pos_site_id
 _symmetry_equiv_pos_as_xyz
  1  'x, y, z'
loop_
 _atom_site_type_symbol
 _atom_site_label
 _atom_site_symmetry_multiplicity
 _atom_site_fract_x
 _atom_site_fract_y
 _atom_site_fract_z
 _atom_site_occupancy
  Lu  Lu0  1  0.72882515  0.72572080  0.33686201  1
  Lu  Lu1  1  0.27427920  0.27117485  0.66313799  1
  Ti  Ti0  1  0.72555556  0.27444444  1.00000000  1
  Cr  Cr0  1  0.00347278  0.99652722  0.50000000  1
  Cr  Cr1  1  0.25288208  0.74711792  0.00000000  1
  O  O0  1  0.39656434  0.38670956  0.93185042  1
  O  O1  1  0.61329044  0.60343566  0.06814958  1
  O  O2  1  0.89617381  0.89608695  0.91815324  1
  O  O3  1  0.10391305  0.10382619  0.08184676  1
  O  O4  1  0.34278649  0.89018316  0.59288924  1
  O  O5  1  0.89139274  0.33895149  0.59745280  1
  O  O6  1  0.10981684  0.65721351  0.40711076  1
  O  O7  1  0.66104851  0.10860726  0.40254720  1
loop_
_geom_bond_atom_site_label_1
_geom_bond_atom_site_label_2
_geom_bond_distance
_geom_bond_site_symmetry_2
Lu0 O4 2.154496 1_555
Lu0 O1 2.162316 1_555
Lu0 O5 2.165815 1_555
Lu0 O2 2.227456 1_554
Lu0 O6 2.269472 1_655
Lu0 O7 2.273241 1_565
Lu1 O6 2.154496 1_555
Lu1 O0 2.162316 1_555
Lu1 O7 2.165815 1_555
Lu1 O3 2.227456 1_556
Lu1 O4 2.269472 1_545
Lu1 O5 2.273242 1_455
Cr0 O6 1.988478 1_555
Cr0 O4 1.988478 1_555
Cr0 O2 1.988489 1_455
Cr0 O3 1.988489 1_565
Cr0 O5 2.006622 1_465
Cr0 O7 2.006623 1_465
Cr1 O6 1.979287 1_555
Cr1 O4 1.979287 1_554
Cr1 O3 1.999774 1_565
Cr1 O2 1.999774 1_454
Cr1 O0 2.000147 1_554
Cr1 O1 2.000147 1_555
O0 Ti0 1.864485 1_555
O1 Ti0 1.864485 1_554
O2 Ti0 2.098129 1_565
O3 Ti0 2.098130 1_454
O5 Ti0 1.973930 1_555
O7 Ti0 1.973930 1_554
