# generated using pymatgen
data_Li5Lu(HfIr2)6
_symmetry_space_group_name_H-M   'P 1'
_cell_length_a   4.45166179
_cell_length_b   6.27401403
_cell_length_c   13.29813519
_cell_angle_alpha   90.00000000
_cell_angle_beta   89.99885569
_cell_angle_gamma   90.00000000
_symmetry_Int_Tables_number   1
_chemical_formula_structural   Li5Lu(HfIr2)6
_chemical_formula_sum   'Li5 Lu1 Hf6 Ir12'
_cell_volume   371.41410313
_cell_formula_units_Z   1
loop_
 _symmetry_equiv_pos_site_id
 _symmetry_equiv_pos_as_xyz
  1  'x, y, z'
loop_
 _atom_site_type_symbol
 _atom_site_label
 _atom_site_symmetry_multiplicity
 _atom_site_fract_x
 _atom_site_fract_y
 _atom_site_fract_z
 _atom_site_occupancy
  Li  Li0  1  0.49991135  0.00000000  0.16886160  1
  Li  Li1  1  0.99992163  0.50000100  0.33559489  1
  Li  Li2  1  0.50000000  0.00000000  0.50000000  1
  Li  Li3  1  0.00007837  0.50000100  0.66440511  1
  Li  Li4  1  0.50008765  0.00000000  0.83113840  1
  Lu  Lu0  1  0.00000000  0.50000100  0.00000000  1
  Hf  Hf0  1  0.00000000  0.00000000  0.00000000  1
  Hf  Hf1  1  0.49992323  0.50000100  0.17711189  1
  Hf  Hf2  1  0.99993017  0.00000000  0.33815562  1
  Hf  Hf3  1  0.50000000  0.50000100  0.50000000  1
  Hf  Hf4  1  0.00006983  0.00000000  0.66184338  1
  Hf  Hf5  1  0.50007577  0.50000100  0.82288811  1
  Ir  Ir0  1  0.50000000  0.24399675  0.00000000  1
  Ir  Ir1  1  0.50000000  0.75600325  0.00000000  1
  Ir  Ir2  1  0.99991422  0.24531396  0.17079036  1
  Ir  Ir3  1  0.99991422  0.75468604  0.17079036  1
  Ir  Ir4  1  0.49993293  0.24661206  0.33617227  1
  Ir  Ir5  1  0.49993293  0.75338794  0.33617227  1
  Ir  Ir6  1  0.00000000  0.25281513  0.50000000  1
  Ir  Ir7  1  0.00000000  0.74718487  0.50000000  1
  Ir  Ir8  1  0.50006607  0.24661206  0.66382773  1
  Ir  Ir9  1  0.50006607  0.75338794  0.66382773  1
  Ir  Ir10  1  0.00008578  0.24531396  0.82920964  1
  Ir  Ir11  1  0.00008578  0.75468604  0.82920964  1
loop_
_geom_bond_atom_site_label_1
_geom_bond_atom_site_label_2
_geom_bond_distance
_geom_bond_site_symmetry_2
Hf0 Ir0 2.701442 1_555
Hf0 Ir0 2.701442 1_455
Hf0 Ir1 2.701442 1_545
Hf0 Ir1 2.701442 1_445
Hf0 Ir2 2.743567 1_455
Hf0 Ir3 2.743567 1_445
Hf0 Ir10 2.743567 1_554
Hf0 Ir11 2.743567 1_544
Hf1 Ir5 2.646018 1_555
Hf1 Ir4 2.646026 1_555
Hf1 Ir3 2.741255 1_555
Hf1 Ir2 2.741263 1_555
Hf1 Ir3 2.741323 1_455
Hf1 Ir2 2.741330 1_455
Hf1 Ir1 2.850788 1_555
Hf1 Ir0 2.850796 1_555
Hf2 Ir6 2.673576 1_655
Hf2 Ir7 2.673576 1_645
Hf2 Ir2 2.705982 1_555
Hf2 Ir3 2.705982 1_545
Hf2 Ir4 2.710893 1_555
Hf2 Ir5 2.710893 1_545
Hf2 Ir4 2.710912 1_655
Hf2 Ir5 2.710912 1_645
Hf3 Ir9 2.696966 1_555
Hf3 Ir5 2.696966 1_555
Hf3 Ir8 2.696974 1_555
Hf3 Ir4 2.696974 1_555
Hf3 Ir7 2.712824 1_655
Hf3 Ir7 2.712824 1_555
Hf3 Ir6 2.712831 1_655
Hf3 Ir6 2.712831 1_555
Hf4 Ir6 2.673565 1_555
Hf4 Ir7 2.673565 1_545
Hf4 Ir10 2.705993 1_555
Hf4 Ir11 2.705993 1_545
Hf4 Ir8 2.710890 1_555
Hf4 Ir9 2.710890 1_545
Hf4 Ir8 2.710916 1_455
Hf4 Ir9 2.710916 1_445
Hf5 Ir9 2.646018 1_555
Hf5 Ir8 2.646026 1_555
Hf5 Ir11 2.741252 1_555
Hf5 Ir10 2.741259 1_555
Hf5 Ir11 2.741327 1_655
Hf5 Ir10 2.741334 1_655
Hf5 Ir1 2.850788 1_556
Hf5 Ir0 2.850796 1_556
Ir0 Li4 2.717708 1_554
Ir0 Li0 2.717708 1_555
Ir0 Lu0 2.744835 1_555
Ir0 Lu0 2.744835 1_655
Ir1 Li4 2.717708 1_564
Ir1 Li0 2.717708 1_565
Ir1 Lu0 2.744828 1_555
Ir1 Lu0 2.744828 1_655
Ir2 Li0 2.706245 1_655
Ir2 Li0 2.706267 1_555
Ir2 Li1 2.712268 1_555
Ir2 Lu0 2.776983 1_655
Ir3 Li0 2.706245 1_665
Ir3 Li0 2.706267 1_565
Ir3 Li1 2.712260 1_555
Ir3 Lu0 2.776976 1_655
Ir4 Li2 2.672132 1_555
Ir4 Li0 2.710027 1_555
Ir4 Li1 2.735235 1_555
Ir4 Li1 2.735317 1_455
Ir5 Li2 2.672132 1_565
Ir5 Li0 2.710027 1_565
Ir5 Li1 2.735228 1_555
Ir5 Li1 2.735310 1_455
Ir6 Li3 2.680477 1_555
Ir6 Li1 2.680477 1_455
Ir6 Li2 2.733175 1_555
Ir6 Li2 2.733175 1_455
Ir7 Li3 2.680469 1_555
Ir7 Li1 2.680469 1_455
Ir7 Li2 2.733175 1_565
Ir7 Li2 2.733175 1_465
Ir8 Li2 2.672132 1_555
Ir8 Li4 2.710027 1_555
Ir8 Li3 2.735232 1_555
Ir8 Li3 2.735321 1_655
Ir9 Li2 2.672132 1_565
Ir9 Li4 2.710027 1_565
Ir9 Li3 2.735224 1_555
Ir9 Li3 2.735314 1_655
Ir10 Li4 2.706248 1_455
Ir10 Li4 2.706263 1_555
Ir10 Li3 2.712268 1_555
Ir10 Lu0 2.776983 1_556
Ir11 Li4 2.706248 1_465
Ir11 Li4 2.706263 1_565
Ir11 Li3 2.712260 1_555
Ir11 Lu0 2.776976 1_556
