# generated using pymatgen
data_Rb2Na4(MoH9)3
_symmetry_space_group_name_H-M   'P 1'
_cell_length_a   8.55550177
_cell_length_b   9.63969215
_cell_length_c   5.56375440
_cell_angle_alpha   90.00000000
_cell_angle_beta   90.00000000
_cell_angle_gamma   124.28864434
_symmetry_Int_Tables_number   1
_chemical_formula_structural   Rb2Na4(MoH9)3
_chemical_formula_sum   'Rb2 Na4 Mo3 H27'
_cell_volume   379.11156223
_cell_formula_units_Z   1
loop_
 _symmetry_equiv_pos_site_id
 _symmetry_equiv_pos_as_xyz
  1  'x, y, z'
loop_
 _atom_site_type_symbol
 _atom_site_label
 _atom_site_symmetry_multiplicity
 _atom_site_fract_x
 _atom_site_fract_y
 _atom_site_fract_z
 _atom_site_occupancy
  Rb  Rb0  1  0.42307673  0.42195470  0.00000000  1
  Rb  Rb1  1  0.57692327  0.99887797  0.00000000  1
  Na  Na0  1  0.00000000  0.19112688  0.50000000  1
  Na  Na1  1  0.73808060  0.77374083  0.50000000  1
  Na  Na2  1  0.26191940  0.03566023  0.50000000  1
  Na  Na3  1  1.00000000  0.61077986  0.00000000  1
  Mo  Mo0  1  0.73949925  0.36128784  0.50000000  1
  Mo  Mo1  1  0.26050075  0.62178959  0.50000000  1
  Mo  Mo2  1  1.00000000  0.97177953  0.00000000  1
  H  H0  1  0.81127332  0.33969457  0.77768663  1
  H  H1  1  0.79379904  0.53734212  0.68121934  1
  H  H2  1  0.55323107  0.22274651  0.67782099  1
  H  H3  1  0.18872668  0.52842125  0.22231337  1
  H  H4  1  0.55323107  0.22274651  0.32217901  1
  H  H5  1  0.81127332  0.33969457  0.22231337  1
  H  H6  1  0.79379904  0.53734212  0.31878066  1
  H  H7  1  0.20620096  0.74354408  0.68121934  1
  H  H8  1  0.44676893  0.66951644  0.67782099  1
  H  H9  1  0.21417615  0.98945059  0.00000000  1
  H  H10  1  0.78582385  0.77527444  0.00000000  1
  H  H11  1  1.00000000  0.14952819  0.00000000  1
  H  H12  1  0.84904598  0.96657675  0.21980212  1
  H  H13  1  0.15095402  0.11753077  0.78019788  1
  H  H14  1  1.00000000  0.84434680  0.76929863  1
  H  H15  1  1.00000000  0.84434680  0.23070137  1
  H  H16  1  0.15095402  0.11753077  0.21980212  1
  H  H17  1  0.84904598  0.96657675  0.78019788  1
  H  H18  1  0.16821252  0.74753716  0.50000000  1
  H  H19  1  0.44425804  0.82754219  0.50000000  1
  H  H20  1  0.26942794  0.44552379  0.50000000  1
  H  H21  1  0.55574196  0.38328415  0.50000000  1
  H  H22  1  0.83178748  0.57932564  0.50000000  1
  H  H23  1  0.73057206  0.17609684  0.50000000  1
  H  H24  1  0.18872668  0.52842125  0.77768663  1
  H  H25  1  0.20620096  0.74354408  0.31878066  1
  H  H26  1  0.44676893  0.66951644  0.32217901  1
loop_
_geom_bond_atom_site_label_1
_geom_bond_atom_site_label_2
_geom_bond_distance
_geom_bond_site_symmetry_2
H0 Mo0 1.717959 1_555
H0 Na3 2.492317 1_556
H0 Rb1 2.986914 1_546
H1 H22 1.066680 1_555
H1 Mo0 1.795623 1_555
H1 Na3 2.313431 1_556
H1 Rb0 3.235388 1_556
H2 Mo0 1.704116 1_555
H2 Na2 2.319166 1_555
H2 Rb1 2.898993 1_546
H2 Rb0 3.248075 1_556
H3 Mo1 1.717962 1_555
H3 Na3 2.492318 1_455
H3 Rb0 2.986914 1_555
H4 Mo0 1.704116 1_555
H4 Na2 2.319166 1_555
H4 Rb1 2.898993 1_545
H4 Rb0 3.248075 1_555
H5 Mo0 1.717959 1_555
H5 Na3 2.492317 1_555
H5 Rb1 2.986914 1_545
H6 Mo0 1.795623 1_555
H6 Na3 2.313431 1_555
H6 Rb0 3.235388 1_555
H7 Mo1 1.795623 1_555
H7 Na3 2.313432 1_456
H7 Rb1 3.235386 1_556
H8 Mo1 1.704116 1_555
H8 Na1 2.319168 1_555
H8 Rb0 2.899001 1_556
H8 Rb1 3.248067 1_556
H9 Mo2 1.742114 1_455
H9 Rb1 3.053210 1_555
H10 Mo2 1.742113 1_555
H10 Rb0 3.053210 1_555
H11 Mo2 1.713442 1_545
H11 Rb0 3.047631 1_655
H11 Rb1 3.047631 1_545
H12 Mo2 1.758698 1_555
H12 Na1 2.190585 1_555
H12 Na0 2.373590 1_665
H12 Rb1 2.798134 1_555
H13 Mo2 1.758698 1_446
H13 Na2 2.190586 1_555
H13 Na0 2.373590 1_555
H13 Rb0 2.798134 1_556
H14 Mo2 1.776665 1_556
H14 Na2 2.451765 1_665
H14 Na1 2.451765 1_555
H14 Na3 2.591689 1_556
H15 Mo2 1.776665 1_555
H15 Na2 2.451765 1_665
H15 Na1 2.451765 1_555
H15 Na3 2.591689 1_555
H16 Mo2 1.758698 1_445
H16 Na2 2.190586 1_555
H16 Na0 2.373590 1_555
H16 Rb0 2.798134 1_555
H17 Mo2 1.758698 1_556
H17 Na1 2.190585 1_555
H17 Na0 2.373590 1_665
H17 Rb1 2.798134 1_556
H18 H7 1.066676 1_555
H18 H25 1.066676 1_555
H18 Mo1 1.780774 1_555
H18 Na2 2.418249 1_565
H19 Mo1 1.700631 1_555
H19 Rb1 3.105283 1_556
H19 Rb1 3.105283 1_555
H20 Mo1 1.743318 1_555
H20 Na0 2.226683 1_555
H20 Rb0 3.139266 1_555
H20 Rb0 3.139266 1_556
H21 Mo0 1.700637 1_555
H21 Rb0 3.105283 1_556
H21 Rb0 3.105283 1_555
H22 H6 1.066680 1_555
H22 Mo0 1.780792 1_555
H22 Na1 2.418240 1_555
H23 Mo0 1.743299 1_555
H23 Na0 2.226689 1_655
H23 Rb1 3.139269 1_545
H23 Rb1 3.139269 1_546
H24 Mo1 1.717962 1_555
H24 Na3 2.492318 1_456
H24 Rb0 2.986914 1_556
H25 Mo1 1.795623 1_555
H25 Na3 2.313432 1_455
H25 Rb1 3.235386 1_555
H26 Mo1 1.704116 1_555
H26 Na1 2.319168 1_555
H26 Rb0 2.899001 1_555
H26 Rb1 3.248067 1_555
