# generated using pymatgen
data_Ca9AgPt5
_symmetry_space_group_name_H-M   'P 1'
_cell_length_a   7.67778666
_cell_length_b   7.62549505
_cell_length_c   7.61696743
_cell_angle_alpha   71.07909099
_cell_angle_beta   70.57749084
_cell_angle_gamma   70.99004686
_symmetry_Int_Tables_number   1
_chemical_formula_structural   Ca9AgPt5
_chemical_formula_sum   'Ca9 Ag1 Pt5'
_cell_volume   385.79721001
_cell_formula_units_Z   1
loop_
 _symmetry_equiv_pos_site_id
 _symmetry_equiv_pos_as_xyz
  1  'x, y, z'
loop_
 _atom_site_type_symbol
 _atom_site_label
 _atom_site_symmetry_multiplicity
 _atom_site_fract_x
 _atom_site_fract_y
 _atom_site_fract_z
 _atom_site_occupancy
  Ca  Ca0  1  0.00279838  0.99345674  0.99876940  1
  Ca  Ca1  1  0.38849462  0.67684339  0.15059633  1
  Ca  Ca2  1  0.21034232  0.19618834  0.20301541  1
  Ca  Ca3  1  0.85085383  0.60730843  0.34172860  1
  Ca  Ca4  1  0.66391748  0.14078402  0.40799571  1
  Ca  Ca5  1  0.32902220  0.84405288  0.60394393  1
  Ca  Ca6  1  0.16167726  0.39680393  0.65949495  1
  Ca  Ca7  1  0.80131887  0.81018333  0.79690628  1
  Ca  Ca8  1  0.59488865  0.32527034  0.84311391  1
  Ag  Ag0  1  0.84138018  0.41594042  0.04657657  1
  Pt  Pt0  1  0.59161688  0.95077207  0.15960416  1
  Pt  Pt1  1  0.04494631  0.84945286  0.41186397  1
  Pt  Pt2  1  0.95183454  0.16756957  0.58415225  1
  Pt  Pt3  1  0.41177033  0.04340055  0.83690273  1
  Pt  Pt4  1  0.15513614  0.58197313  0.95533682  1
loop_
_geom_bond_atom_site_label_1
_geom_bond_atom_site_label_2
_geom_bond_distance
_geom_bond_site_symmetry_2
Ca0 Pt4 3.057454 1_555
Ca0 Pt0 3.067874 1_456
Ca0 Pt1 3.068563 1_556
Ca0 Pt3 3.069946 1_565
Ca0 Pt2 3.107049 1_465
Ca1 Pt1 2.931925 1_555
Ca1 Pt0 3.014370 1_555
Ca1 Pt4 3.043005 1_554
Ca1 Pt3 3.043722 1_564
Ca2 Pt0 2.893016 1_545
Ca2 Pt2 2.907605 1_455
Ca2 Pt4 2.917740 1_554
Ca2 Pt1 3.041411 1_545
Ca2 Pt3 3.096906 1_554
Ca3 Pt0 2.971457 1_555
Ca3 Pt1 2.979479 1_655
Ca3 Pt4 3.107915 1_654
Ca3 Pt2 3.240032 1_555
Ca4 Pt0 2.997917 1_545
Ca4 Pt2 3.028731 1_555
Ca4 Pt1 3.045557 1_645
Ca4 Pt3 3.182657 1_555
Ca5 Pt4 2.972024 1_555
Ca5 Pt1 2.987310 1_555
Ca5 Pt3 2.998546 1_565
Ca5 Pt2 3.144874 1_465
Ca5 Pt0 3.305532 1_555
Ca6 Pt3 2.961136 1_555
Ca6 Pt4 3.002702 1_555
Ca6 Pt2 3.013449 1_455
Ca6 Pt1 3.340918 1_555
Ca7 Pt1 2.887383 1_655
Ca7 Pt3 2.912229 1_565
Ca7 Pt0 3.035114 1_556
Ca7 Pt2 3.054616 1_565
Ca7 Pt4 3.098833 1_655
Ca8 Pt2 2.940013 1_555
Ca8 Pt3 2.945791 1_555
Ca8 Pt0 3.083686 1_546
Ca8 Pt4 3.289700 1_555
Ag0 Pt4 2.862144 1_654
Ag0 Ca7 2.971179 1_554
Ag0 Ca4 3.075601 1_555
Ag0 Ca3 3.081319 1_555
Ag0 Ca0 3.147560 1_644
Ag0 Ca8 3.155844 1_554
Ag0 Ca6 3.159898 1_654
Ag0 Ca2 3.179661 1_655
Ag0 Ca1 3.370438 1_555
Pt1 Pt2 2.903197 1_465
