# generated using pymatgen
data_Ba2Be7As6
_symmetry_space_group_name_H-M   'P 1'
_cell_length_a   11.79966049
_cell_length_b   11.79966049
_cell_length_c   3.90232727
_cell_angle_alpha   90.00000000
_cell_angle_beta   90.00000000
_cell_angle_gamma   90.00000000
_symmetry_Int_Tables_number   1
_chemical_formula_structural   Ba2Be7As6
_chemical_formula_sum   'Ba4 Be14 As12'
_cell_volume   543.32878281
_cell_formula_units_Z   2
loop_
 _symmetry_equiv_pos_site_id
 _symmetry_equiv_pos_as_xyz
  1  'x, y, z'
loop_
 _atom_site_type_symbol
 _atom_site_label
 _atom_site_symmetry_multiplicity
 _atom_site_fract_x
 _atom_site_fract_y
 _atom_site_fract_z
 _atom_site_occupancy
  Ba  Ba0  1  0.12364054  0.62364054  0.75271781  1
  Ba  Ba1  1  0.37635946  0.12364054  0.24728219  1
  Ba  Ba2  1  0.62364054  0.87635946  0.24728219  1
  Ba  Ba3  1  0.87635946  0.37635946  0.75271781  1
  Be  Be0  1  0.57623928  0.30683479  0.74425057  1
  Be  Be1  1  0.07623928  0.19316521  0.25574943  1
  Be  Be2  1  0.69316521  0.57623928  0.25574943  1
  Be  Be3  1  0.30683479  0.42376072  0.25574943  1
  Be  Be4  1  0.30830819  0.80830819  0.21598008  1
  Be  Be5  1  0.80830819  0.69169181  0.78401992  1
  Be  Be6  1  0.92376072  0.80683479  0.25574943  1
  Be  Be7  1  0.19316521  0.92376072  0.74425057  1
  Be  Be8  1  0.80683479  0.07623928  0.74425057  1
  Be  Be9  1  0.00000000  0.00000000  0.00000000  1
  Be  Be10  1  0.19169181  0.30830819  0.78401992  1
  Be  Be11  1  0.42376072  0.69316521  0.74425057  1
  Be  Be12  1  0.50000000  0.50000000  0.00000000  1
  Be  Be13  1  0.69169181  0.19169181  0.21598008  1
  As  As0  1  0.88666933  0.14403142  0.25369069  1
  As  As1  1  0.38666933  0.35596858  0.74630931  1
  As  As2  1  0.61573579  0.11573579  0.72578314  1
  As  As3  1  0.61333067  0.64403142  0.74630931  1
  As  As4  1  0.64403142  0.38666933  0.25369069  1
  As  As5  1  0.11573579  0.38426421  0.27421686  1
  As  As6  1  0.35596858  0.61333067  0.25369069  1
  As  As7  1  0.88426421  0.61573579  0.27421686  1
  As  As8  1  0.14403142  0.11333067  0.74630931  1
  As  As9  1  0.38426421  0.88426421  0.72578314  1
  As  As10  1  0.11333067  0.85596858  0.25369069  1
  As  As11  1  0.85596858  0.88666933  0.74630931  1
loop_
_geom_bond_atom_site_label_1
_geom_bond_atom_site_label_2
_geom_bond_distance
_geom_bond_site_symmetry_2
As0 Be8 2.278579 1_555
As0 Be1 2.310787 1_655
As0 Be8 2.340819 1_554
As0 Be13 2.372973 1_555
As0 Be9 2.378385 1_655
As0 Ba3 3.364858 1_555
As0 Ba3 3.369258 1_554
As1 Be3 2.278579 1_555
As1 Be0 2.310787 1_555
As1 Be3 2.340819 1_556
As1 Be10 2.372973 1_555
As1 Be12 2.378385 1_556
As1 Ba1 3.364858 1_555
As1 Ba1 3.369258 1_556
As2 Be13 2.294726 1_556
As2 Be0 2.303689 1_555
As2 Be8 2.303689 1_555
As2 Be13 2.358884 1_555
As2 Ba2 3.387259 1_545
As2 Ba1 3.387259 1_555
As2 Ba2 3.482572 1_546
As2 Ba1 3.482572 1_556
As3 Be2 2.278579 1_555
As3 Be11 2.310787 1_555
As3 Be2 2.340819 1_556
As3 Be5 2.372973 1_555
As3 Be12 2.378385 1_556
As3 Ba2 3.364858 1_555
As3 Ba2 3.369258 1_556
As4 Be0 2.278579 1_555
As4 Be2 2.310787 1_555
As4 Be0 2.340819 1_554
As4 Be13 2.372973 1_555
As4 Be12 2.378385 1_555
As4 Ba3 3.364858 1_555
As4 Ba3 3.369258 1_554
As5 Be10 2.294726 1_554
As5 Be3 2.303689 1_555
As5 Be1 2.303689 1_555
As5 Be10 2.358884 1_555
As5 Ba0 3.387259 1_555
As5 Ba3 3.387259 1_455
As5 Ba0 3.482572 1_554
As5 Ba3 3.482572 1_454
As6 Be11 2.278579 1_555
As6 Be3 2.310787 1_555
As6 Be11 2.340819 1_554
As6 Be4 2.372973 1_555
As6 Be12 2.378385 1_555
As6 Ba0 3.364858 1_555
As6 Ba0 3.369258 1_554
As7 Be5 2.294726 1_554
As7 Be6 2.303689 1_555
As7 Be2 2.303689 1_555
As7 Be5 2.358884 1_555
As7 Ba0 3.387259 1_655
As7 Ba3 3.387259 1_555
As7 Ba0 3.482572 1_654
As7 Ba3 3.482572 1_554
As8 Be1 2.278579 1_555
As8 Be7 2.310787 1_545
As8 Be1 2.340819 1_556
As8 Be10 2.372973 1_555
As8 Be9 2.378385 1_556
As8 Ba1 3.364858 1_555
As8 Ba1 3.369258 1_556
As9 Be4 2.294726 1_556
As9 Be7 2.303689 1_555
As9 Be11 2.303689 1_555
As9 Be4 2.358884 1_555
As9 Ba1 3.387259 1_565
As9 Ba2 3.387259 1_555
As9 Ba1 3.482572 1_566
As9 Ba2 3.482572 1_556
As10 Be7 2.278579 1_555
As10 Be6 2.310787 1_455
As10 Be7 2.340819 1_554
As10 Be4 2.372973 1_555
As10 Be9 2.378385 1_565
As10 Ba0 3.364858 1_555
As10 Ba0 3.369258 1_554
As11 Be6 2.278579 1_555
As11 Be8 2.310787 1_565
As11 Be6 2.340819 1_556
As11 Be5 2.372973 1_555
As11 Be9 2.378385 1_666
As11 Ba2 3.364858 1_555
As11 Ba2 3.369258 1_556
