# generated using pymatgen
data_CuSnRh2
_symmetry_space_group_name_H-M   'P 1'
_cell_length_a   4.35699402
_cell_length_b   4.35699448
_cell_length_c   4.35699402
_cell_angle_alpha   59.99999572
_cell_angle_beta   59.99999225
_cell_angle_gamma   59.99999826
_symmetry_Int_Tables_number   1
_chemical_formula_structural   CuSnRh2
_chemical_formula_sum   'Cu1 Sn1 Rh2'
_cell_volume   58.48518848
_cell_formula_units_Z   1
loop_
 _symmetry_equiv_pos_site_id
 _symmetry_equiv_pos_as_xyz
  1  'x, y, z'
loop_
 _atom_site_type_symbol
 _atom_site_label
 _atom_site_symmetry_multiplicity
 _atom_site_fract_x
 _atom_site_fract_y
 _atom_site_fract_z
 _atom_site_occupancy
  Cu  Cu0  1  -0.00000000  0.00000000  0.00000000  1
  Sn  Sn0  1  0.50000000  0.50000000  0.50000000  1
  Rh  Rh0  1  0.25000000  0.25000000  0.25000000  1
  Rh  Rh1  1  0.75000000  0.75000000  0.75000000  1
loop_
_geom_bond_atom_site_label_1
_geom_bond_atom_site_label_2
_geom_bond_distance
_geom_bond_site_symmetry_2
Cu0 Rh1 2.668103 1_445
Cu0 Rh0 2.668103 1_554
Cu0 Rh1 2.668103 1_544
Cu0 Rh0 2.668103 1_455
Cu0 Rh1 2.668103 1_444
Cu0 Rh0 2.668103 1_555
Cu0 Rh1 2.668103 1_454
Cu0 Rh0 2.668103 1_545
Rh0 Sn0 2.668103 1_554
Rh0 Sn0 2.668103 1_455
Rh0 Sn0 2.668103 1_555
Rh0 Sn0 2.668103 1_545
Rh1 Sn0 2.668103 1_556
Rh1 Sn0 2.668103 1_655
Rh1 Sn0 2.668103 1_555
Rh1 Sn0 2.668103 1_565
