# generated using pymatgen
data_Sc6Al16Os6Rh
_symmetry_space_group_name_H-M   'P 1'
_cell_length_a   8.72543216
_cell_length_b   8.72543165
_cell_length_c   8.72543175
_cell_angle_alpha   59.99999962
_cell_angle_beta   60.00000155
_cell_angle_gamma   59.99999694
_symmetry_Int_Tables_number   1
_chemical_formula_structural   Sc6Al16Os6Rh
_chemical_formula_sum   'Sc6 Al16 Os6 Rh1'
_cell_volume   469.72728599
_cell_formula_units_Z   1
loop_
 _symmetry_equiv_pos_site_id
 _symmetry_equiv_pos_as_xyz
  1  'x, y, z'
loop_
 _atom_site_type_symbol
 _atom_site_label
 _atom_site_symmetry_multiplicity
 _atom_site_fract_x
 _atom_site_fract_y
 _atom_site_fract_z
 _atom_site_occupancy
  Sc  Sc0  1  0.71496975  0.28503025  0.28503025  1
  Sc  Sc1  1  0.71496975  0.28503025  0.71496975  1
  Sc  Sc2  1  0.71496975  0.71496975  0.28503025  1
  Sc  Sc3  1  0.28503025  0.71496975  0.71496975  1
  Sc  Sc4  1  0.28503025  0.71496975  0.28503025  1
  Sc  Sc5  1  0.28503025  0.28503025  0.71496975  1
  Al  Al0  1  0.63359774  0.12213375  0.12213375  1
  Al  Al1  1  0.12213375  0.63359774  0.12213375  1
  Al  Al2  1  0.12213375  0.12213375  0.63359774  1
  Al  Al3  1  0.12213375  0.12213375  0.12213375  1
  Al  Al4  1  0.36640226  0.87786625  0.87786625  1
  Al  Al5  1  0.87786625  0.36640226  0.87786625  1
  Al  Al6  1  0.87786625  0.87786625  0.36640226  1
  Al  Al7  1  0.87786625  0.87786625  0.87786625  1
  Al  Al8  1  0.98826992  0.33724369  0.33724369  1
  Al  Al9  1  0.33724369  0.98826992  0.33724369  1
  Al  Al10  1  0.33724369  0.33724369  0.98826992  1
  Al  Al11  1  0.33724369  0.33724369  0.33724369  1
  Al  Al12  1  0.01173008  0.66275631  0.66275631  1
  Al  Al13  1  0.66275631  0.01173008  0.66275631  1
  Al  Al14  1  0.66275631  0.66275631  0.01173008  1
  Al  Al15  1  0.66275631  0.66275631  0.66275631  1
  Os  Os0  1  0.50000000  0.00000000  0.00000000  1
  Os  Os1  1  0.50000000  0.00000000  0.50000000  1
  Os  Os2  1  0.50000000  0.50000000  0.00000000  1
  Os  Os3  1  0.00000000  0.50000000  0.50000000  1
  Os  Os4  1  0.00000000  0.50000000  0.00000000  1
  Os  Os5  1  0.00000000  0.00000000  0.50000000  1
  Rh  Rh0  1  0.00000000  0.00000000  0.00000000  1
loop_
_geom_bond_atom_site_label_1
_geom_bond_atom_site_label_2
_geom_bond_distance
_geom_bond_site_symmetry_2
Al0 Rh0 2.610354 1_655
Al0 Os0 2.692639 1_555
Al0 Os2 2.692646 1_555
Al0 Os1 2.692646 1_555
Al0 Sc2 2.929681 1_545
Al0 Sc1 2.929681 1_554
Al0 Sc0 2.929688 1_555
Al1 Rh0 2.610354 1_565
Al1 Os4 2.692639 1_555
Al1 Os3 2.692646 1_555
Al1 Os2 2.692646 1_555
Al1 Sc3 2.929681 1_554
Al1 Sc2 2.929681 1_455
Al1 Sc4 2.929688 1_555
Al2 Rh0 2.610354 1_556
Al2 Os5 2.692639 1_555
Al2 Os3 2.692646 1_555
Al2 Os1 2.692646 1_555
Al2 Sc3 2.929681 1_545
Al2 Sc1 2.929681 1_455
Al2 Sc5 2.929688 1_555
Al3 Rh0 2.610347 1_555
Al3 Os4 2.692646 1_555
Al3 Os5 2.692646 1_555
Al3 Os0 2.692647 1_555
Al3 Sc4 2.929682 1_545
Al3 Sc5 2.929682 1_554
Al3 Sc0 2.929682 1_455
Al4 Rh0 2.610354 1_566
Al4 Os0 2.692639 1_566
Al4 Os2 2.692646 1_556
Al4 Os1 2.692646 1_565
Al4 Sc5 2.929681 1_565
Al4 Sc4 2.929681 1_556
Al4 Sc3 2.929688 1_555
Al5 Rh0 2.610354 1_656
Al5 Os4 2.692639 1_656
Al5 Os3 2.692646 1_655
Al5 Os2 2.692646 1_556
Al5 Sc0 2.929681 1_556
Al5 Sc5 2.929681 1_655
Al5 Sc1 2.929688 1_555
Al6 Rh0 2.610354 1_665
Al6 Os5 2.692639 1_665
Al6 Os3 2.692646 1_655
Al6 Os1 2.692646 1_565
Al6 Sc0 2.929681 1_565
Al6 Sc4 2.929681 1_655
Al6 Sc2 2.929688 1_555
Al7 Rh0 2.610347 1_666
Al7 Os4 2.692646 1_656
Al7 Os5 2.692646 1_665
Al7 Os0 2.692647 1_566
Al7 Sc1 2.929682 1_565
Al7 Sc2 2.929682 1_556
Al7 Sc3 2.929682 1_655
Al8 Os3 2.520196 1_655
Al8 Os5 2.520204 1_655
Al8 Os4 2.520204 1_655
Al8 Sc2 2.912402 1_555
Al8 Sc1 2.912402 1_555
Al8 Sc0 2.912408 1_555
Al9 Os1 2.520196 1_565
Al9 Os0 2.520204 1_565
Al9 Os5 2.520204 1_565
Al9 Sc2 2.912402 1_555
Al9 Sc3 2.912402 1_555
Al9 Sc4 2.912407 1_555
Al10 Os2 2.520196 1_556
Al10 Os0 2.520204 1_556
Al10 Os4 2.520204 1_556
Al10 Sc3 2.912402 1_555
Al10 Sc1 2.912402 1_555
Al10 Sc5 2.912407 1_555
Al11 Os1 2.520201 1_555
Al11 Os3 2.520201 1_555
Al11 Os2 2.520201 1_555
Al11 Sc4 2.912399 1_555
Al11 Sc5 2.912399 1_555
Al11 Sc0 2.912399 1_555
Al12 Os3 2.520196 1_555
Al12 Os5 2.520204 1_565
Al12 Os4 2.520204 1_556
Al12 Sc5 2.912402 1_555
Al12 Sc4 2.912402 1_555
Al12 Sc3 2.912408 1_555
Al13 Os1 2.520196 1_555
Al13 Os0 2.520204 1_556
Al13 Os5 2.520204 1_655
Al13 Sc5 2.912402 1_555
Al13 Sc0 2.912402 1_555
Al13 Sc1 2.912407 1_555
Al14 Os2 2.520196 1_555
Al14 Os0 2.520204 1_565
Al14 Os4 2.520204 1_655
Al14 Sc0 2.912402 1_555
Al14 Sc4 2.912402 1_555
Al14 Sc2 2.912407 1_555
Al15 Os1 2.520201 1_565
Al15 Os3 2.520201 1_655
Al15 Os2 2.520201 1_556
Al15 Sc1 2.912399 1_555
Al15 Sc2 2.912399 1_555
Al15 Sc3 2.912399 1_555
Os0 Sc2 3.115043 1_545
Os0 Sc5 3.115043 1_554
Os0 Sc1 3.115043 1_554
Os0 Sc4 3.115043 1_545
Os1 Sc5 3.115043 1_555
Os1 Sc2 3.115043 1_545
Os1 Sc0 3.115043 1_555
Os1 Sc3 3.115043 1_545
Os2 Sc0 3.115043 1_555
Os2 Sc4 3.115043 1_555
Os2 Sc3 3.115043 1_554
Os2 Sc1 3.115043 1_554
Os3 Sc5 3.115043 1_555
Os3 Sc2 3.115043 1_455
Os3 Sc4 3.115043 1_555
Os3 Sc1 3.115043 1_455
Os4 Sc2 3.115043 1_455
Os4 Sc5 3.115043 1_554
Os4 Sc3 3.115043 1_554
Os4 Sc0 3.115043 1_455
Os5 Sc1 3.115043 1_455
Os5 Sc3 3.115043 1_545
Os5 Sc4 3.115043 1_545
Os5 Sc0 3.115043 1_455
