# generated using pymatgen
data_Cu8O
_symmetry_space_group_name_H-M   'P 1'
_cell_length_a   4.41785231
_cell_length_b   4.41785231
_cell_length_c   5.43657600
_cell_angle_alpha   90.00000000
_cell_angle_beta   90.00000000
_cell_angle_gamma   91.31703323
_symmetry_Int_Tables_number   1
_chemical_formula_structural   Cu8O
_chemical_formula_sum   'Cu8 O1'
_cell_volume   106.07990017
_cell_formula_units_Z   1
loop_
 _symmetry_equiv_pos_site_id
 _symmetry_equiv_pos_as_xyz
  1  'x, y, z'
loop_
 _atom_site_type_symbol
 _atom_site_label
 _atom_site_symmetry_multiplicity
 _atom_site_fract_x
 _atom_site_fract_y
 _atom_site_fract_z
 _atom_site_occupancy
  Cu  Cu0  1  0.78791000  0.78791000  0.50000000  1
  Cu  Cu1  1  0.21209000  0.21209000  0.50000000  1
  Cu  Cu2  1  0.81180100  0.81180100  0.00000000  1
  Cu  Cu3  1  0.18819900  0.18819900  0.00000000  1
  Cu  Cu4  1  0.27583800  0.72416200  0.27283700  1
  Cu  Cu5  1  0.27583800  0.72416200  0.72716300  1
  Cu  Cu6  1  0.72416200  0.27583800  0.72716300  1
  Cu  Cu7  1  0.72416200  0.27583800  0.27283700  1
  O  O0  1  0.50000000  0.50000000  0.00000000  1
loop_
_geom_bond_atom_site_label_1
_geom_bond_atom_site_label_2
_geom_bond_distance
_geom_bond_site_symmetry_2
Cu0 Cu7 2.505794 1_565
Cu0 Cu6 2.505794 1_565
Cu0 Cu5 2.505794 1_655
Cu0 Cu4 2.505794 1_655
Cu0 Cu5 2.587091 1_555
Cu0 Cu4 2.587091 1_555
Cu0 Cu6 2.587091 1_555
Cu0 Cu7 2.587091 1_555
Cu0 Cu1 2.619552 1_665
Cu0 Cu2 2.722289 1_555
Cu0 Cu2 2.722289 1_556
Cu1 Cu4 2.505794 1_545
Cu1 Cu6 2.505794 1_455
Cu1 Cu7 2.505794 1_455
Cu1 Cu5 2.505794 1_545
Cu1 Cu7 2.587091 1_555
Cu1 Cu6 2.587091 1_555
Cu1 Cu5 2.587091 1_555
Cu1 Cu4 2.587091 1_555
Cu1 Cu3 2.722289 1_556
Cu1 Cu3 2.722289 1_555
Cu2 O0 1.925548 1_555
Cu3 O0 1.925548 1_555
Cu4 O0 2.051025 1_555
Cu5 O0 2.051025 1_556
Cu6 O0 2.051025 1_556
Cu7 O0 2.051025 1_555
