# generated using pymatgen
data_Nb6AlGeC2
_symmetry_space_group_name_H-M   'P 1'
_cell_length_a   5.61314958
_cell_length_b   5.61315003
_cell_length_c   8.44021010
_cell_angle_alpha   90.00000000
_cell_angle_beta   90.00000000
_cell_angle_gamma   145.53382580
_symmetry_Int_Tables_number   1
_chemical_formula_structural   Nb6AlGeC2
_chemical_formula_sum   'Nb6 Al1 Ge1 C2'
_cell_volume   150.49471781
_cell_formula_units_Z   1
loop_
 _symmetry_equiv_pos_site_id
 _symmetry_equiv_pos_as_xyz
  1  'x, y, z'
loop_
 _atom_site_type_symbol
 _atom_site_label
 _atom_site_symmetry_multiplicity
 _atom_site_fract_x
 _atom_site_fract_y
 _atom_site_fract_z
 _atom_site_occupancy
  Nb  Nb0  1  0.63198509  0.36801591  0.04971450  1
  Nb  Nb1  1  0.95186483  0.04813517  0.25000000  1
  Nb  Nb2  1  0.63198509  0.36801591  0.45028550  1
  Nb  Nb3  1  0.36607087  0.63393013  0.55405889  1
  Nb  Nb4  1  0.05421493  0.94578507  0.75000000  1
  Nb  Nb5  1  0.36607087  0.63393013  0.94594011  1
  Al  Al0  1  0.25393188  0.74606912  0.25000000  1
  Ge  Ge0  1  0.74438347  0.25561753  0.75000000  1
  C  C0  1  0.99974698  0.00025302  0.99837069  1
  C  C1  1  0.99974698  0.00025302  0.50162931  1
loop_
_geom_bond_atom_site_label_1
_geom_bond_atom_site_label_2
_geom_bond_distance
_geom_bond_site_symmetry_2
Al0 Nb1 2.696216 1_565
Al0 Nb1 2.696218 1_455
Al0 Nb0 2.707900 1_455
Al0 Nb2 2.707900 1_455
Al0 Nb0 2.707900 1_565
Al0 Nb2 2.707900 1_565
Al0 Nb3 2.834033 1_555
Al0 Nb5 2.834041 1_554
Ge0 Nb4 2.631177 1_655
Ge0 Nb4 2.631179 1_545
Ge0 Nb5 2.683804 1_655
Ge0 Nb5 2.683804 1_545
Ge0 Nb3 2.683809 1_655
Ge0 Nb3 2.683809 1_545
Ge0 Nb2 2.802068 1_555
Ge0 Nb0 2.802068 1_556
C0 Nb4 2.176134 1_645
C0 Nb1 2.184979 1_556
C0 Nb0 2.227917 1_546
C0 Nb0 2.227919 1_656
C0 Nb5 2.239563 1_545
C0 Nb5 2.239566 1_655
C1 Nb4 2.176134 1_645
C1 Nb1 2.184979 1_555
C1 Nb2 2.227917 1_545
C1 Nb2 2.227919 1_655
C1 Nb3 2.239561 1_545
C1 Nb3 2.239564 1_655
