# generated using pymatgen
data_SrZrO3
_symmetry_space_group_name_H-M   'P 1'
_cell_length_a   5.81486458
_cell_length_b   5.81486458
_cell_length_c   8.25266177
_cell_angle_alpha   90.00000000
_cell_angle_beta   90.00000000
_cell_angle_gamma   90.63032988
_symmetry_Int_Tables_number   1
_chemical_formula_structural   SrZrO3
_chemical_formula_sum   'Sr4 Zr4 O12'
_cell_volume   279.02747840
_cell_formula_units_Z   4
loop_
 _symmetry_equiv_pos_site_id
 _symmetry_equiv_pos_as_xyz
  1  'x, y, z'
loop_
 _atom_site_type_symbol
 _atom_site_label
 _atom_site_symmetry_multiplicity
 _atom_site_fract_x
 _atom_site_fract_y
 _atom_site_fract_z
 _atom_site_occupancy
  Sr  Sr0  1  0.98807265  0.01192735  0.75000000  1
  Sr  Sr1  1  0.01192735  0.98807265  0.25000000  1
  Sr  Sr2  1  0.49354778  0.50645222  0.75000000  1
  Sr  Sr3  1  0.50645222  0.49354778  0.25000000  1
  Zr  Zr0  1  0.50000000  0.00000000  0.00000000  1
  Zr  Zr1  1  0.50000000  0.00000000  0.50000000  1
  Zr  Zr2  1  0.00000000  0.50000000  0.00000000  1
  Zr  Zr3  1  0.00000000  0.50000000  0.50000000  1
  O  O0  1  0.95916222  0.45054440  0.75000000  1
  O  O1  1  0.04083778  0.54945560  0.25000000  1
  O  O2  1  0.45054440  0.95916222  0.25000000  1
  O  O3  1  0.54945560  0.04083778  0.75000000  1
  O  O4  1  0.21108904  0.78891096  0.54305636  1
  O  O5  1  0.78891096  0.21108904  0.04305636  1
  O  O6  1  0.78891096  0.21108904  0.45694364  1
  O  O7  1  0.21108904  0.78891096  0.95694364  1
  O  O8  1  0.29175908  0.29175908  0.00000000  1
  O  O9  1  0.70824092  0.70824092  0.50000000  1
  O  O10  1  0.70824092  0.70824092  0.00000000  1
  O  O11  1  0.29175908  0.29175908  0.50000000  1
loop_
_geom_bond_atom_site_label_1
_geom_bond_atom_site_label_2
_geom_bond_distance
_geom_bond_site_symmetry_2
O0 Zr2 2.096244 1_656
O0 Zr3 2.096244 1_655
O0 Sr0 2.557878 1_555
O0 Sr2 2.730481 1_555
O0 Sr2 3.120780 1_655
O1 Zr2 2.096244 1_555
O1 Zr3 2.096244 1_555
O1 Sr1 2.557878 1_555
O1 Sr3 2.730481 1_555
O1 Sr3 3.120780 1_455
O2 Zr0 2.096244 1_565
O2 Zr1 2.096244 1_565
O2 Sr1 2.557878 1_555
O2 Sr3 2.730481 1_555
O2 Sr3 3.120780 1_565
O3 Zr0 2.096244 1_556
O3 Zr1 2.096244 1_555
O3 Sr0 2.557878 1_555
O3 Sr2 2.730481 1_555
O3 Sr2 3.120780 1_545
O4 Zr1 2.099966 1_565
O4 Zr3 2.099966 1_555
O4 Sr0 2.513392 1_465
O4 Sr2 2.893338 1_555
O4 Sr1 2.925920 1_555
O5 Zr0 2.099966 1_555
O5 Zr2 2.099966 1_655
O5 Sr1 2.513392 1_645
O5 Sr3 2.893338 1_555
O5 Sr0 2.925920 1_554
O6 Zr1 2.099966 1_555
O6 Zr3 2.099966 1_655
O6 Sr1 2.513392 1_645
O6 Sr3 2.893338 1_555
O6 Sr0 2.925920 1_555
O7 Zr0 2.099966 1_566
O7 Zr2 2.099966 1_556
O7 Sr0 2.513392 1_465
O7 Sr2 2.893338 1_555
O7 Sr1 2.925920 1_556
O8 Zr0 2.095163 1_555
O8 Zr2 2.095163 1_555
O8 Sr3 2.675773 1_555
O8 Sr2 2.675773 1_554
O9 Zr3 2.095163 1_655
O9 Zr1 2.095163 1_565
O9 Sr3 2.675773 1_555
O9 Sr2 2.675773 1_555
O10 Zr2 2.095163 1_655
O10 Zr0 2.095163 1_565
O10 Sr3 2.675773 1_555
O10 Sr2 2.675773 1_554
O11 Zr1 2.095163 1_555
O11 Zr3 2.095163 1_555
O11 Sr3 2.675773 1_555
O11 Sr2 2.675773 1_555
