# generated using pymatgen
data_Zn11Ir2
_symmetry_space_group_name_H-M   'P 1'
_cell_length_a   7.82081093
_cell_length_b   7.82081227
_cell_length_c   7.82081692
_cell_angle_alpha   109.47070170
_cell_angle_beta   109.47073208
_cell_angle_gamma   109.47069688
_symmetry_Int_Tables_number   1
_chemical_formula_structural   Zn11Ir2
_chemical_formula_sum   'Zn22 Ir4'
_cell_volume   368.24943053
_cell_formula_units_Z   2
loop_
 _symmetry_equiv_pos_site_id
 _symmetry_equiv_pos_as_xyz
  1  'x, y, z'
loop_
 _atom_site_type_symbol
 _atom_site_label
 _atom_site_symmetry_multiplicity
 _atom_site_fract_x
 _atom_site_fract_y
 _atom_site_fract_z
 _atom_site_occupancy
  Zn  Zn0  1  0.73325492  0.73325718  0.38239823  1
  Zn  Zn1  1  0.35085285  0.61759237  0.35085304  1
  Zn  Zn2  1  0.61759881  0.35086145  0.35085902  1
  Zn  Zn3  1  0.99999380  0.64914021  0.26673299  1
  Zn  Zn4  1  0.21159492  0.21160160  0.21159839  1
  Zn  Zn5  1  0.78837629  1.00000465  1.00000114  1
  Zn  Zn6  1  0.99999962  0.78835876  1.00000325  1
  Zn  Zn7  1  0.99999693  1.00000572  0.78837352  1
  Zn  Zn8  1  0.00001431  0.35666684  0.35666799  1
  Zn  Zn9  1  0.64334584  0.00000505  0.64334723  1
  Zn  Zn10  1  0.35666806  0.00001881  0.35667173  1
  Zn  Zn11  1  0.35666880  0.35667026  0.00001564  1
  Zn  Zn12  1  0.64334943  0.64334779  1.00000251  1
  Zn  Zn13  1  1.00000000  0.64334709  0.64334555  1
  Zn  Zn14  1  0.35085586  0.35085745  0.61759507  1
  Zn  Zn15  1  0.64915127  0.26674084  0.99999687  1
  Zn  Zn16  1  0.26673331  0.64913687  0.99999453  1
  Zn  Zn17  1  0.99999679  0.26673678  0.64914804  1
  Zn  Zn18  1  0.38239893  0.73325241  0.73325374  1
  Zn  Zn19  1  0.73325402  0.38239488  0.73325364  1
  Zn  Zn20  1  0.26673067  0.99999301  0.64914019  1
  Zn  Zn21  1  0.64914490  0.99999130  0.26673432  1
  Ir  Ir0  1  0.00000226  0.00000197  0.34635322  1
  Ir  Ir1  1  0.00000182  0.34635502  0.00000187  1
  Ir  Ir2  1  0.34635315  0.00000281  0.00000259  1
  Ir  Ir3  1  0.65365845  0.65365989  0.65365870  1
loop_
_geom_bond_atom_site_label_1
_geom_bond_atom_site_label_2
_geom_bond_distance
_geom_bond_site_symmetry_2
Zn0 Zn12 2.607574 1_554
Zn0 Zn7 2.655650 1_555
Zn0 Zn13 2.847423 1_555
Zn0 Zn9 2.847438 1_565
Zn0 Zn11 2.960706 1_555
Zn1 Zn9 2.607710 1_565
Zn1 Zn4 2.655679 1_555
Zn1 Zn11 2.847325 1_555
Zn1 Zn8 2.847337 1_555
Zn1 Zn10 2.960868 1_565
Zn2 Zn4 2.655765 1_555
Zn2 Zn8 2.960832 1_655
Zn3 Zn8 2.607594 1_655
Zn3 Zn6 2.655420 1_554
Zn4 Zn8 2.637710 1_555
Zn4 Zn5 2.702575 1_444
Zn4 Zn7 2.702617 1_444
Zn4 Zn6 2.702731 1_444
Zn5 Zn9 2.637750 1_565
Zn5 Zn8 2.637866 1_666
Zn5 Zn7 2.702715 1_555
Zn5 Zn6 2.702847 1_555
Zn6 Zn7 2.702896 1_555
Zn7 Zn9 2.637721 1_565
Zn10 Zn9 2.588968 1_555
Zn10 Zn20 2.607577 1_545
Zn10 Zn21 2.607641 1_545
Zn10 Zn4 2.637770 1_555
Zn10 Zn6 2.637882 1_444
Zn10 Zn14 2.847318 1_555
Zn10 Zn2 2.847366 1_555
Zn10 Zn3 2.847541 1_445
Zn10 Zn16 2.847583 1_544
Zn10 Zn19 2.960675 1_555
Zn11 Zn12 2.588987 1_554
Zn11 Zn16 2.607545 1_554
Zn11 Zn15 2.607634 1_554
Zn11 Zn4 2.637756 1_555
Zn11 Zn7 2.637891 1_444
Zn11 Zn2 2.847351 1_555
Zn11 Zn17 2.847500 1_454
Zn11 Zn20 2.847544 1_544
Zn11 Zn14 2.960845 1_554
Zn12 Zn14 2.607683 1_555
Zn12 Zn6 2.637706 1_555
Zn12 Zn5 2.637772 1_555
Zn12 Zn21 2.847340 1_556
Zn12 Zn3 2.847352 1_556
Zn12 Zn18 2.847422 1_555
Zn12 Zn19 2.847434 1_555
Zn12 Zn15 2.960792 1_555
Zn12 Zn16 2.960822 1_555
Zn13 Zn8 2.588992 1_655
Zn13 Zn18 2.607599 1_655
Zn13 Zn2 2.607636 1_555
Zn13 Zn6 2.637766 1_555
Zn13 Zn7 2.637791 1_555
Zn13 Zn20 2.847353 1_655
Zn13 Zn16 2.847400 1_655
Zn13 Zn19 2.847438 1_555
Zn13 Zn3 2.960812 1_555
Zn13 Zn17 2.960826 1_555
Zn14 Zn4 2.655719 1_555
Zn14 Zn8 2.847333 1_555
Zn15 Zn5 2.655498 1_545
Zn15 Zn9 2.847344 1_555
Zn15 Zn8 2.847500 1_656
Zn16 Zn6 2.655467 1_455
Zn17 Zn8 2.607619 1_655
Zn17 Zn7 2.655460 1_545
Zn17 Zn9 2.847358 1_555
Zn18 Zn5 2.655668 1_555
Zn18 Zn9 2.847436 1_565
Zn18 Zn8 2.960707 1_555
Zn19 Zn9 2.607529 1_555
Zn19 Zn6 2.655594 1_555
Zn20 Zn7 2.655533 1_455
Zn20 Zn9 2.960815 1_565
Zn21 Zn5 2.655520 1_554
Zn21 Zn8 2.847523 1_665
Zn21 Zn9 2.960812 1_565
Ir0 Zn20 2.581905 1_545
Ir0 Zn0 2.581949 1_445
Ir0 Zn17 2.581955 1_455
Ir0 Zn21 2.603451 1_445
Ir0 Zn3 2.603492 1_445
Ir0 Zn14 2.603528 1_555
Ir0 Zn4 2.662227 1_555
Ir0 Zn5 2.662327 1_444
Ir0 Zn6 2.662330 1_444
Ir0 Zn10 2.763519 1_555
Ir0 Zn8 2.763534 1_555
Ir0 Zn12 2.763576 1_444
Ir1 Zn16 2.581884 1_554
Ir1 Zn3 2.581903 1_455
Ir1 Zn19 2.581940 1_454
Ir1 Zn15 2.603423 1_454
Ir1 Zn17 2.603446 1_454
Ir1 Zn1 2.603501 1_555
Ir1 Zn4 2.662205 1_555
Ir1 Zn7 2.662283 1_444
Ir1 Zn5 2.662301 1_444
Ir1 Zn11 2.763544 1_555
Ir1 Zn8 2.763551 1_555
Ir1 Zn9 2.763584 1_454
Ir2 Zn21 2.581953 1_545
Ir2 Zn15 2.581984 1_554
Ir2 Zn18 2.581986 1_544
Ir2 Zn20 2.603492 1_544
Ir2 Zn16 2.603526 1_544
Ir2 Zn2 2.603553 1_555
Ir2 Zn4 2.662258 1_555
Ir2 Zn7 2.662360 1_444
Ir2 Zn6 2.662367 1_444
Ir2 Zn11 2.763549 1_555
Ir2 Zn10 2.763558 1_555
Ir2 Zn13 2.763597 1_444
Ir3 Zn2 2.581976 1_555
Ir3 Zn14 2.581991 1_555
Ir3 Zn1 2.582003 1_555
Ir3 Zn18 2.603466 1_555
Ir3 Zn0 2.603496 1_555
Ir3 Zn19 2.603518 1_555
Ir3 Zn7 2.662282 1_555
Ir3 Zn5 2.662289 1_555
Ir3 Zn6 2.662324 1_555
Ir3 Zn13 2.763488 1_555
Ir3 Zn12 2.763494 1_555
Ir3 Zn9 2.763511 1_565
