# generated using pymatgen
data_Na4V2SnO9
_symmetry_space_group_name_H-M   'P 1'
_cell_length_a   8.80024130
_cell_length_b   8.80024113
_cell_length_c   7.78710713
_cell_angle_alpha   89.27009464
_cell_angle_beta   89.27009280
_cell_angle_gamma   49.67789724
_symmetry_Int_Tables_number   1
_chemical_formula_structural   Na4V2SnO9
_chemical_formula_sum   'Na8 V4 Sn2 O18'
_cell_volume   459.74401504
_cell_formula_units_Z   2
loop_
 _symmetry_equiv_pos_site_id
 _symmetry_equiv_pos_as_xyz
  1  'x, y, z'
loop_
 _atom_site_type_symbol
 _atom_site_label
 _atom_site_symmetry_multiplicity
 _atom_site_fract_x
 _atom_site_fract_y
 _atom_site_fract_z
 _atom_site_occupancy
  Na  Na0  1  0.74880531  0.25119469  1.00000000  1
  Na  Na1  1  0.63362749  0.63362749  0.27690345  1
  Na  Na2  1  0.89159734  0.89159734  0.22358733  1
  Na  Na3  1  0.10840266  0.10840266  0.77641267  1
  Na  Na4  1  0.50000000  0.00000000  0.50000000  1
  Na  Na5  1  0.25119469  0.74880531  0.00000000  1
  Na  Na6  1  0.36637251  0.36637251  0.72309655  1
  Na  Na7  1  0.00000000  0.50000000  0.50000000  1
  V  V0  1  0.12783755  0.12783755  0.28433721  1
  V  V1  1  0.39197364  0.39197364  0.23833011  1
  V  V2  1  0.87216245  0.87216245  0.71566279  1
  V  V3  1  0.60802636  0.60802636  0.76166989  1
  Sn  Sn0  1  0.00000000  0.50000000  0.00000000  1
  Sn  Sn1  1  0.50000000  0.00000000  0.00000000  1
  O  O0  1  0.55762337  0.16988851  0.11980380  1
  O  O1  1  0.50313379  0.50313379  0.76936219  1
  O  O2  1  0.44237663  0.83011149  0.88019620  1
  O  O3  1  0.12758160  0.12758160  0.49848505  1
  O  O4  1  0.38072005  0.98890015  0.22686885  1
  O  O5  1  0.98890015  0.38072005  0.22686885  1
  O  O6  1  0.83011149  0.44237663  0.88019620  1
  O  O7  1  0.96613087  0.96613087  0.81516003  1
  O  O8  1  0.16988851  0.55762337  0.11980380  1
  O  O9  1  0.23921518  0.23921518  0.90404032  1
  O  O10  1  0.01109985  0.61927995  0.77313115  1
  O  O11  1  0.76078482  0.76078482  0.09595968  1
  O  O12  1  0.87241840  0.87241840  0.50151495  1
  O  O13  1  0.49686621  0.49686621  0.23063781  1
  O  O14  1  0.61927995  0.01109985  0.77313115  1
  O  O15  1  0.65507601  0.65507601  0.56483989  1
  O  O16  1  0.03386913  0.03386913  0.18483997  1
  O  O17  1  0.34492399  0.34492399  0.43516011  1
loop_
_geom_bond_atom_site_label_1
_geom_bond_atom_site_label_2
_geom_bond_distance
_geom_bond_site_symmetry_2
Na0 O6 2.390372 1_555
Na0 O0 2.390372 1_556
Na0 O7 2.415664 1_545
Na0 O16 2.415664 1_656
Na0 O13 2.570884 1_556
Na0 O1 2.570884 1_555
Na1 O13 2.218887 1_555
Na1 O15 2.272961 1_555
Na1 O4 2.421956 1_555
Na1 O5 2.421956 1_555
Na1 O11 2.455598 1_555
Na2 O12 2.181562 1_555
Na2 O16 2.288149 1_665
Na2 O11 2.326270 1_555
Na2 O8 2.446183 1_655
Na2 O0 2.446183 1_565
Na3 O3 2.181562 1_555
Na3 O7 2.288149 1_445
Na3 O9 2.326270 1_555
Na3 O6 2.446183 1_455
Na3 O2 2.446183 1_545
Na4 O14 2.414535 1_555
Na4 O4 2.414535 1_545
Na4 O17 2.438972 1_555
Na4 O15 2.438972 1_545
Na4 O12 2.690801 1_545
Na4 O3 2.690801 1_555
Na5 O8 2.390372 1_555
Na5 O2 2.390372 1_554
Na5 O16 2.415664 1_565
Na5 O7 2.415664 1_454
Na5 O1 2.570884 1_554
Na5 O13 2.570884 1_555
Na6 O1 2.218887 1_555
Na6 O17 2.272961 1_555
Na6 O14 2.421956 1_555
Na6 O10 2.421956 1_555
Na6 O9 2.455598 1_555
Na7 O10 2.414535 1_555
Na7 O5 2.414535 1_455
Na7 O17 2.438972 1_555
Na7 O15 2.438972 1_455
Na7 O12 2.690801 1_455
Na7 O3 2.690801 1_555
O0 V1 1.766683 1_555
O0 Sn1 2.095581 1_555
O1 V3 1.675606 1_555
O2 V3 1.766683 1_555
O2 Sn1 2.095581 1_566
O3 V0 1.667540 1_555
O4 V0 1.764906 1_565
O4 Sn1 2.076899 1_565
O5 V0 1.764906 1_655
O5 Sn0 2.076899 1_655
O6 V3 1.766683 1_555
O6 Sn0 2.095581 1_656
O7 V2 1.698715 1_555
O8 V1 1.766683 1_555
O8 Sn0 2.095581 1_555
O9 Sn0 2.002019 1_556
O9 Sn1 2.002019 1_556
O10 V2 1.764906 1_455
O10 Sn0 2.076899 1_556
O11 Sn0 2.002019 1_655
O11 Sn1 2.002019 1_565
O12 V2 1.667540 1_555
O13 V1 1.675606 1_555
O14 V2 1.764906 1_545
O14 Sn1 2.076899 1_556
O15 V3 1.697552 1_555
O16 V0 1.698715 1_555
O17 V1 1.697552 1_555
