# generated using pymatgen
data_Ba8Cd(Si4Au)3
_symmetry_space_group_name_H-M   'P 1'
_cell_length_a   12.56037126
_cell_length_b   11.01063340
_cell_length_c   8.53421650
_cell_angle_alpha   78.86193194
_cell_angle_beta   59.39947302
_cell_angle_gamma   41.80964343
_symmetry_Int_Tables_number   1
_chemical_formula_structural   Ba8Cd(Si4Au)3
_chemical_formula_sum   'Ba8 Cd1 Si12 Au3'
_cell_volume   640.58572253
_cell_formula_units_Z   1
loop_
 _symmetry_equiv_pos_site_id
 _symmetry_equiv_pos_as_xyz
  1  'x, y, z'
loop_
 _atom_site_type_symbol
 _atom_site_label
 _atom_site_symmetry_multiplicity
 _atom_site_fract_x
 _atom_site_fract_y
 _atom_site_fract_z
 _atom_site_occupancy
  Ba  Ba0  1  0.13042489  0.12533469  0.36762469  1
  Ba  Ba1  1  0.87513470  0.87112804  0.12955245  1
  Ba  Ba2  1  0.12955245  0.12418481  0.87513470  1
  Ba  Ba3  1  0.36762469  0.37661673  0.13042489  1
  Ba  Ba4  1  0.62469098  0.62504352  0.37458541  1
  Ba  Ba5  1  0.37458541  0.37568009  0.62469098  1
  Ba  Ba6  1  0.62439820  0.63235637  0.87407690  1
  Ba  Ba7  1  0.87407690  0.86916754  0.62439820  1
  Cd  Cd0  1  0.83293242  0.16706758  0.83293242  1
  Si  Si0  1  0.33383978  0.66136081  0.83028497  1
  Si  Si1  1  0.18703264  0.81735233  0.65517267  1
  Si  Si2  1  0.83028497  0.17451344  0.33383978  1
  Si  Si3  1  0.65517267  0.34044236  0.18703264  1
  Si  Si4  1  0.91218241  0.58857954  0.42574170  1
  Si  Si5  1  0.07113651  0.42200174  0.59166994  1
  Si  Si6  1  0.42574170  0.07349636  0.91218241  1
  Si  Si7  1  0.91260405  0.58739595  0.91260405  1
  Si  Si8  1  0.65777904  0.34222096  0.65777904  1
  Si  Si9  1  0.33545981  0.66454019  0.33545981  1
  Si  Si10  1  0.58719784  0.91280216  0.58719784  1
  Si  Si11  1  0.59166994  0.91519282  0.07113651  1
  Au  Au0  1  0.08290416  0.41709584  0.08290416  1
  Au  Au1  1  0.16681100  0.83318900  0.16681100  1
  Au  Au2  1  0.41676185  0.08323815  0.41676185  1
loop_
_geom_bond_atom_site_label_1
_geom_bond_atom_site_label_2
_geom_bond_distance
_geom_bond_site_symmetry_2
Ba0 Si6 3.494967 1_554
Ba0 Si5 3.495372 1_555
Ba0 Si4 3.539292 1_455
Ba0 Si2 3.548447 1_455
Ba0 Si11 3.560104 1_545
Ba0 Si9 3.576254 1_545
Ba0 Cd0 3.602941 1_455
Ba0 Si1 3.604733 1_545
Ba0 Si8 3.641706 1_455
Ba1 Si4 3.505114 1_555
Ba1 Si11 3.507001 1_555
Ba1 Si10 3.518822 1_555
Ba1 Si0 3.537356 1_654
Ba1 Si7 3.544726 1_554
Ba1 Si3 3.590707 1_565
Ba1 Cd0 3.593220 1_564
Ba1 Si2 3.600072 1_565
Ba1 Si1 3.661825 1_654
Ba2 Si6 3.505115 1_555
Ba2 Si5 3.507008 1_555
Ba2 Si10 3.518822 1_545
Ba2 Si2 3.537361 1_456
Ba2 Si7 3.544726 1_455
Ba2 Si1 3.590707 1_545
Ba2 Cd0 3.593220 1_455
Ba2 Si0 3.600082 1_545
Ba2 Si3 3.661825 1_456
Ba3 Si4 3.494972 1_455
Ba3 Si11 3.495372 1_545
Ba3 Si6 3.539302 1_554
Ba3 Si0 3.548433 1_554
Ba3 Si5 3.560104 1_555
Ba3 Si9 3.576244 1_555
Ba3 Cd0 3.602937 1_554
Ba3 Si3 3.604726 1_555
Ba3 Si8 3.641701 1_554
Ba4 Si1 3.411986 1_555
Ba4 Si8 3.449168 1_555
Ba4 Si2 3.471766 1_555
Ba4 Si3 3.471839 1_555
Ba4 Si9 3.510265 1_555
Ba4 Si0 3.548090 1_555
Ba4 Si7 3.560173 1_554
Ba4 Si10 3.560866 1_555
Ba4 Si4 3.573118 1_555
Ba4 Si11 3.606482 1_555
Ba5 Si3 3.411986 1_555
Ba5 Si8 3.449168 1_555
Ba5 Si0 3.471756 1_555
Ba5 Si1 3.471839 1_555
Ba5 Si9 3.510264 1_555
Ba5 Si2 3.548086 1_555
Ba5 Si7 3.560173 1_455
Ba5 Si10 3.560866 1_545
Ba5 Si6 3.573118 1_555
Ba5 Si5 3.606475 1_555
Ba6 Si6 3.411941 1_565
Ba6 Si5 3.416578 1_655
Ba6 Si10 3.441002 1_555
Ba6 Si7 3.454683 1_555
Ba6 Si4 3.460117 1_555
Ba6 Si11 3.479473 1_556
Ba6 Si9 3.588034 1_556
Ba6 Cd0 3.603481 1_555
Ba6 Si0 3.628462 1_555
Ba6 Si8 3.644474 1_555
Ba6 Si3 3.673685 1_556
Ba7 Si4 3.411932 1_555
Ba7 Si11 3.416569 1_556
Ba7 Si10 3.440995 1_555
Ba7 Si7 3.454675 1_555
Ba7 Si6 3.460113 1_565
Ba7 Si5 3.479454 1_655
Ba7 Si9 3.588039 1_655
Ba7 Cd0 3.603491 1_565
Ba7 Si2 3.628461 1_565
Ba7 Si8 3.644484 1_565
Ba7 Si1 3.673693 1_655
Cd0 Si8 2.589041 1_555
Cd0 Si3 2.601377 1_556
Cd0 Si1 2.601377 1_645
Si0 Si8 2.378386 1_555
Si0 Si1 2.382466 1_555
Si1 Si9 2.381193 1_555
Si2 Si8 2.378390 1_555
Si2 Si3 2.382466 1_555
Si3 Si9 2.381194 1_555
Au0 Si7 2.517302 1_454
Au0 Si4 2.536727 1_455
Au0 Si6 2.536728 1_554
Au0 Ba0 3.490402 1_555
Au0 Ba3 3.490409 1_555
Au0 Ba1 3.496218 1_455
Au0 Ba2 3.496218 1_554
Au0 Ba5 3.540426 1_554
Au0 Ba4 3.540426 1_455
Au1 Si9 2.492893 1_555
Au1 Si2 2.505408 1_465
Au1 Si0 2.505412 1_554
Au1 Ba2 3.542680 1_564
Au1 Ba1 3.542680 1_455
Au1 Ba3 3.554430 1_555
Au1 Ba0 3.554440 1_565
Au1 Ba6 3.568490 1_554
Au1 Ba7 3.568495 1_455
Au2 Si10 2.519311 1_545
Au2 Si11 2.530190 1_545
Au2 Si5 2.530194 1_555
Au2 Ba0 3.507252 1_555
Au2 Ba3 3.507259 1_555
Au2 Ba2 3.522669 1_555
Au2 Ba1 3.522669 1_545
Au2 Ba4 3.536292 1_545
Au2 Ba5 3.536292 1_555
