# generated using pymatgen
data_Hf3MnTc3As2
_symmetry_space_group_name_H-M   'P 1'
_cell_length_a   7.75508813
_cell_length_b   7.75508883
_cell_length_c   7.75508990
_cell_angle_alpha   127.18612790
_cell_angle_beta   125.57749929
_cell_angle_gamma   79.26832312
_symmetry_Int_Tables_number   1
_chemical_formula_structural   Hf3MnTc3As2
_chemical_formula_sum   'Hf6 Mn2 Tc6 As4'
_cell_volume   292.19377689
_cell_formula_units_Z   2
loop_
 _symmetry_equiv_pos_site_id
 _symmetry_equiv_pos_as_xyz
  1  'x, y, z'
loop_
 _atom_site_type_symbol
 _atom_site_label
 _atom_site_symmetry_multiplicity
 _atom_site_fract_x
 _atom_site_fract_y
 _atom_site_fract_z
 _atom_site_occupancy
  Hf  Hf0  1  0.44972899  0.65281358  0.70308459  1
  Hf  Hf1  1  0.55027101  0.25335561  0.20308459  1
  Hf  Hf2  1  0.74993157  0.85432397  0.60439140  1
  Hf  Hf3  1  0.25006843  0.85445983  0.10439140  1
  Hf  Hf4  1  0.05055316  0.25335979  0.70280663  1
  Hf  Hf5  1  0.94944684  0.65225248  0.20280663  1
  Mn  Mn0  1  0.25034959  0.25355764  0.50320905  1
  Mn  Mn1  1  0.74965041  0.25285946  0.00320905  1
  Tc  Tc0  1  0.50000000  0.50539448  0.00539448  1
  Tc  Tc1  1  0.00000000  0.50539448  0.50539448  1
  Tc  Tc2  1  0.12561347  0.25330150  0.12665459  1
  Tc  Tc3  1  0.87438653  0.00104012  0.12768802  1
  Tc  Tc4  1  0.37335309  0.00104012  0.62665459  1
  Tc  Tc5  1  0.62664691  0.25330150  0.62768802  1
  As  As0  1  0.33330459  0.58663279  0.25324403  1
  As  As1  1  0.66669541  0.91993944  0.25332720  1
  As  As2  1  0.16661224  0.91993944  0.75324403  1
  As  As3  1  0.83338776  0.58663279  0.75332720  1
loop_
_geom_bond_atom_site_label_1
_geom_bond_atom_site_label_2
_geom_bond_distance
_geom_bond_site_symmetry_2
Hf0 Mn0 2.751882 1_555
Hf0 Tc4 2.987589 1_565
Hf0 Tc3 2.987593 1_566
Hf0 Tc1 2.994300 1_555
Hf0 Tc0 2.994301 1_556
Hf0 Tc5 2.997332 1_555
Hf0 Tc2 2.997332 1_555
Hf1 Mn1 2.751876 1_555
Hf1 Tc2 2.987596 1_555
Hf1 Tc5 2.987597 1_555
Hf1 Tc1 2.994300 1_655
Hf1 Tc0 2.994301 1_555
Hf1 Tc4 2.997331 1_554
Hf1 Tc3 2.997335 1_555
Hf2 Mn1 2.751064 1_566
Hf2 Tc0 2.989890 1_555
Hf2 Tc1 2.989894 1_655
Hf2 Tc5 2.990617 1_565
Hf2 Tc2 2.990621 1_666
Hf2 Tc4 2.994142 1_565
Hf2 Tc3 2.994151 1_566
Hf3 Mn0 2.751064 1_565
Hf3 Tc0 2.989889 1_555
Hf3 Tc1 2.989889 1_554
Hf3 Tc3 2.990623 1_465
Hf3 Tc4 2.990628 1_565
Hf3 Tc5 2.994144 1_565
Hf3 Tc2 2.994144 1_565
Hf4 Mn0 2.755226 1_555
Hf4 Tc5 2.986365 1_455
Hf4 Tc2 2.986366 1_556
Hf4 Tc3 2.990564 1_455
Hf4 Tc4 2.990567 1_555
Hf4 Tc0 2.991848 1_556
Hf4 Tc1 2.991848 1_555
Hf5 Mn1 2.755222 1_555
Hf5 Tc4 2.986365 1_665
Hf5 Tc3 2.986366 1_565
Hf5 Tc2 2.990558 1_655
Hf5 Tc5 2.990562 1_554
Hf5 Tc1 2.991842 1_655
Hf5 Tc0 2.991845 1_555
Mn0 Tc3 2.483797 1_455
Mn0 Tc4 2.483797 1_555
Mn0 Tc0 2.483959 1_556
Mn0 Tc5 2.483963 1_555
Mn0 Tc1 2.483963 1_555
Mn0 Tc2 2.483968 1_555
Mn1 Tc2 2.483796 1_655
Mn1 Tc5 2.483797 1_554
Mn1 Tc0 2.483958 1_555
Mn1 Tc1 2.483959 1_655
Mn1 Tc4 2.483965 1_554
Mn1 Tc3 2.483971 1_555
As0 Tc2 2.623611 1_555
As0 Tc4 2.624107 1_565
As0 Tc0 2.624255 1_555
As0 Hf1 2.754860 1_555
As0 Hf2 2.755142 1_555
As0 Hf0 2.755321 1_555
As0 Hf4 2.755436 1_554
As0 Hf5 2.755931 1_455
As0 Hf3 2.755937 1_555
As1 Tc3 2.623600 1_565
As1 Tc5 2.624116 1_565
As1 Tc0 2.624257 1_555
As1 Hf0 2.754854 1_554
As1 Hf3 2.755142 1_555
As1 Hf1 2.755316 1_565
As1 Hf5 2.755439 1_555
As1 Hf4 2.755932 1_665
As1 Hf2 2.755939 1_555
As2 Tc4 2.623600 1_565
As2 Tc2 2.624116 1_566
As2 Tc1 2.624257 1_555
As2 Hf0 2.754854 1_555
As2 Hf3 2.755143 1_556
As2 Hf1 2.755316 1_566
As2 Hf5 2.755435 1_455
As2 Hf4 2.755933 1_565
As2 Hf2 2.755942 1_455
As3 Tc5 2.623611 1_555
As3 Tc3 2.624107 1_566
As3 Tc1 2.624255 1_655
As3 Hf1 2.754855 1_555
As3 Hf2 2.755143 1_555
As3 Hf0 2.755316 1_555
As3 Hf4 2.755441 1_655
As3 Hf3 2.755941 1_656
As3 Hf5 2.755941 1_556
