# generated using pymatgen
data_HfZr5Bi5Te
_symmetry_space_group_name_H-M   'P 1'
_cell_length_a   5.71566557
_cell_length_b   5.71566483
_cell_length_c   14.40741169
_cell_angle_alpha   90.00000000
_cell_angle_beta   90.00000000
_cell_angle_gamma   140.51223681
_symmetry_Int_Tables_number   1
_chemical_formula_structural   HfZr5Bi5Te
_chemical_formula_sum   'Hf1 Zr5 Bi5 Te1'
_cell_volume   299.30743950
_cell_formula_units_Z   1
loop_
 _symmetry_equiv_pos_site_id
 _symmetry_equiv_pos_as_xyz
  1  'x, y, z'
loop_
 _atom_site_type_symbol
 _atom_site_label
 _atom_site_symmetry_multiplicity
 _atom_site_fract_x
 _atom_site_fract_y
 _atom_site_fract_z
 _atom_site_occupancy
  Hf  Hf0  1  0.39260912  0.60739088  0.25000000  1
  Zr  Zr0  1  0.92724659  0.07275341  0.89015008  1
  Zr  Zr1  1  0.07110735  0.92889265  0.10942229  1
  Zr  Zr2  1  0.07110735  0.92889265  0.39057771  1
  Zr  Zr3  1  0.92724659  0.07275341  0.60984992  1
  Zr  Zr4  1  0.61085709  0.38914291  0.75000000  1
  Bi  Bi0  1  0.67905619  0.32094381  0.25000000  1
  Bi  Bi1  1  0.35801802  0.64198198  0.44931113  1
  Bi  Bi2  1  0.63937818  0.36062182  0.54987533  1
  Bi  Bi3  1  0.63937818  0.36062182  0.95012467  1
  Bi  Bi4  1  0.35801802  0.64198198  0.05068887  1
  Te  Te0  1  0.32597535  0.67402465  0.75000000  1
loop_
_geom_bond_atom_site_label_1
_geom_bond_atom_site_label_2
_geom_bond_distance
_geom_bond_site_symmetry_2
Bi0 Hf0 3.001249 1_545
Bi0 Hf0 3.001250 1_655
Bi0 Zr2 3.029723 1_655
Bi0 Zr1 3.029723 1_655
Bi0 Zr2 3.029724 1_545
Bi0 Zr1 3.029724 1_545
Bi0 Hf0 3.081972 1_555
Bi1 Hf0 2.895575 1_555
Bi1 Zr3 3.103658 1_455
Bi1 Zr3 3.103658 1_565
Bi1 Zr2 3.114587 1_545
Bi1 Zr2 3.114587 1_655
Bi1 Zr2 3.200839 1_555
Bi2 Zr4 2.899562 1_555
Bi2 Zr2 3.087887 1_655
Bi2 Zr2 3.087888 1_545
Bi2 Zr3 3.111927 1_565
Bi2 Zr3 3.111927 1_455
Bi2 Zr3 3.215537 1_555
Bi3 Zr4 2.899562 1_555
Bi3 Zr1 3.087887 1_656
Bi3 Zr1 3.087888 1_546
Bi3 Zr0 3.111927 1_565
Bi3 Zr0 3.111927 1_455
Bi3 Zr0 3.215537 1_555
Bi4 Hf0 2.895575 1_555
Bi4 Zr0 3.103658 1_454
Bi4 Zr0 3.103658 1_564
Bi4 Zr1 3.114587 1_545
Bi4 Zr1 3.114587 1_655
Bi4 Zr1 3.200839 1_555
Te0 Zr0 2.998762 1_455
Te0 Zr3 2.998762 1_455
Te0 Zr0 2.998762 1_565
Te0 Zr3 2.998762 1_565
Te0 Zr4 3.014163 1_565
Te0 Zr4 3.014163 1_455
Te0 Zr4 3.065130 1_555
