# generated using pymatgen
data_ThTeO
_symmetry_space_group_name_H-M   'P 1'
_cell_length_a   4.12932830
_cell_length_b   4.12932830
_cell_length_c   7.80849023
_cell_angle_alpha   90.00000000
_cell_angle_beta   90.00000000
_cell_angle_gamma   90.00000000
_symmetry_Int_Tables_number   1
_chemical_formula_structural   ThTeO
_chemical_formula_sum   'Th2 Te2 O2'
_cell_volume   133.14531713
_cell_formula_units_Z   2
loop_
 _symmetry_equiv_pos_site_id
 _symmetry_equiv_pos_as_xyz
  1  'x, y, z'
loop_
 _atom_site_type_symbol
 _atom_site_label
 _atom_site_symmetry_multiplicity
 _atom_site_fract_x
 _atom_site_fract_y
 _atom_site_fract_z
 _atom_site_occupancy
  Th  Th0  1  0.25000000  0.25000000  0.16461965  1
  Th  Th1  1  0.75000000  0.75000000  0.83538035  1
  Te  Te0  1  0.25000000  0.25000000  0.64211852  1
  Te  Te1  1  0.75000000  0.75000000  0.35788148  1
  O  O0  1  0.25000000  0.75000000  0.00000000  1
  O  O1  1  0.75000000  0.25000000  0.00000000  1
loop_
_geom_bond_atom_site_label_1
_geom_bond_atom_site_label_2
_geom_bond_distance
_geom_bond_site_symmetry_2
Te0 Th1 3.286793 1_445
Te0 Th1 3.286793 1_555
Te0 Th1 3.286793 1_545
Te0 Th1 3.286793 1_455
Te0 Th0 3.728545 1_555
Te1 Th0 3.286793 1_655
Te1 Th0 3.286793 1_665
Te1 Th0 3.286793 1_565
Te1 Th0 3.286793 1_555
Te1 Th1 3.728545 1_555
O0 Th0 2.432112 1_555
O0 Th0 2.432112 1_565
O0 Th1 2.432112 1_454
O0 Th1 2.432112 1_554
O1 Th1 2.432112 1_544
O1 Th1 2.432112 1_554
O1 Th0 2.432112 1_555
O1 Th0 2.432112 1_655
