# generated using pymatgen
data_Cs6Rb3AlSb4
_symmetry_space_group_name_H-M   'P 1'
_cell_length_a   11.20877623
_cell_length_b   11.20877722
_cell_length_c   11.82914153
_cell_angle_alpha   90.00000000
_cell_angle_beta   90.00000000
_cell_angle_gamma   119.99999423
_symmetry_Int_Tables_number   1
_chemical_formula_structural   Cs6Rb3AlSb4
_chemical_formula_sum   'Cs12 Rb6 Al2 Sb8'
_cell_volume   1287.06452799
_cell_formula_units_Z   2
loop_
 _symmetry_equiv_pos_site_id
 _symmetry_equiv_pos_as_xyz
  1  'x, y, z'
loop_
 _atom_site_type_symbol
 _atom_site_label
 _atom_site_symmetry_multiplicity
 _atom_site_fract_x
 _atom_site_fract_y
 _atom_site_fract_z
 _atom_site_occupancy
  Cs  Cs0  1  0.20909817  0.41819434  0.54194586  1
  Cs  Cs1  1  0.79090183  0.20909817  0.04194586  1
  Cs  Cs2  1  0.41819434  0.20909817  0.04194586  1
  Cs  Cs3  1  0.58180566  0.79090183  0.54194586  1
  Cs  Cs4  1  0.20909817  0.79090183  0.54194586  1
  Cs  Cs5  1  0.79090183  0.58180566  0.45805414  1
  Cs  Cs6  1  0.79090183  0.20909817  0.45805414  1
  Cs  Cs7  1  0.79090183  0.58180566  0.04194586  1
  Cs  Cs8  1  0.41819434  0.20909817  0.45805414  1
  Cs  Cs9  1  0.58180566  0.79090183  0.95805414  1
  Cs  Cs10  1  0.20909817  0.41819434  0.95805414  1
  Cs  Cs11  1  0.20909817  0.79090183  0.95805414  1
  Rb  Rb0  1  0.11883079  0.23765958  0.25000000  1
  Rb  Rb1  1  0.88116921  0.11883079  0.75000000  1
  Rb  Rb2  1  0.23765958  0.11883079  0.75000000  1
  Rb  Rb3  1  0.76234042  0.88116921  0.25000000  1
  Rb  Rb4  1  0.11883079  0.88116921  0.25000000  1
  Rb  Rb5  1  0.88116921  0.76234042  0.75000000  1
  Al  Al0  1  0.33333300  0.66666700  0.25000000  1
  Al  Al1  1  0.66666700  0.33333300  0.75000000  1
  Sb  Sb0  1  0.47139652  0.52860348  0.25000000  1
  Sb  Sb1  1  0.94279305  0.47139652  0.75000000  1
  Sb  Sb2  1  0.52860348  0.05720695  0.75000000  1
  Sb  Sb3  1  0.47139652  0.94279305  0.25000000  1
  Sb  Sb4  1  0.05720695  0.52860348  0.25000000  1
  Sb  Sb5  1  0.52860348  0.47139652  0.75000000  1
  Sb  Sb6  1  0.00000000  0.00000000  0.00000000  1
  Sb  Sb7  1  0.00000000  0.00000000  0.50000000  1
loop_
_geom_bond_atom_site_label_1
_geom_bond_atom_site_label_2
_geom_bond_distance
_geom_bond_site_symmetry_2
Cs0 Sb7 4.089660 1_555
Cs0 Sb5 4.135512 1_555
Cs0 Sb1 4.135530 1_455
Cs0 Sb0 4.296904 1_555
Cs0 Sb4 4.296916 1_555
Cs1 Sb6 4.089679 1_655
Cs1 Sb3 4.135519 1_545
Cs1 Sb4 4.135519 1_655
Cs1 Sb2 4.296905 1_554
Cs1 Sb1 4.296905 1_554
Cs2 Sb6 4.089660 1_555
Cs2 Sb0 4.135513 1_555
Cs2 Sb3 4.135530 1_545
Cs2 Sb5 4.296904 1_554
Cs2 Sb2 4.296916 1_554
Cs3 Sb7 4.089660 1_665
Cs3 Sb5 4.135513 1_555
Cs3 Sb2 4.135530 1_565
Cs3 Sb0 4.296904 1_555
Cs3 Sb3 4.296916 1_555
Cs4 Sb7 4.089679 1_565
Cs4 Sb2 4.135519 1_565
Cs4 Sb1 4.135519 1_455
Cs4 Sb3 4.296905 1_555
Cs4 Sb4 4.296905 1_555
Cs5 Sb7 4.089660 1_665
Cs5 Sb0 4.135512 1_555
Cs5 Sb4 4.135530 1_655
Cs5 Sb5 4.296904 1_555
Cs5 Sb1 4.296916 1_555
Cs6 Sb7 4.089679 1_655
Cs6 Sb3 4.135519 1_545
Cs6 Sb4 4.135519 1_655
Cs6 Sb2 4.296905 1_555
Cs6 Sb1 4.296905 1_555
Cs7 Sb6 4.089660 1_665
Cs7 Sb0 4.135512 1_555
Cs7 Sb4 4.135530 1_655
Cs7 Sb5 4.296904 1_554
Cs7 Sb1 4.296916 1_554
Cs8 Sb7 4.089660 1_555
Cs8 Sb0 4.135513 1_555
Cs8 Sb3 4.135530 1_545
Cs8 Sb5 4.296904 1_555
Cs8 Sb2 4.296916 1_555
Cs9 Sb6 4.089660 1_666
Cs9 Sb5 4.135513 1_555
Cs9 Sb2 4.135530 1_565
Cs9 Sb0 4.296904 1_556
Cs9 Sb3 4.296916 1_556
Cs10 Sb6 4.089660 1_556
Cs10 Sb5 4.135512 1_555
Cs10 Sb1 4.135530 1_455
Cs10 Sb0 4.296904 1_556
Cs10 Sb4 4.296916 1_556
Cs11 Sb6 4.089679 1_566
Cs11 Sb2 4.135519 1_565
Cs11 Sb1 4.135519 1_455
Cs11 Sb3 4.296905 1_556
Cs11 Sb4 4.296905 1_556
Rb0 Sb0 3.655748 1_555
Rb0 Sb4 3.655762 1_555
Rb0 Sb6 3.750694 1_555
Rb0 Sb7 3.750694 1_555
Rb1 Sb2 3.655739 1_555
Rb1 Sb1 3.655740 1_555
Rb1 Sb6 3.750705 1_656
Rb1 Sb7 3.750705 1_655
Rb2 Sb5 3.655748 1_555
Rb2 Sb2 3.655761 1_555
Rb2 Sb7 3.750694 1_555
Rb2 Sb6 3.750694 1_556
Rb3 Sb0 3.655748 1_555
Rb3 Sb3 3.655761 1_555
Rb3 Sb7 3.750694 1_665
Rb3 Sb6 3.750694 1_665
Rb4 Sb3 3.655739 1_555
Rb4 Sb4 3.655740 1_555
Rb4 Sb7 3.750705 1_565
Rb4 Sb6 3.750705 1_565
Rb5 Sb5 3.655748 1_555
Rb5 Sb1 3.655762 1_555
Rb5 Sb7 3.750694 1_665
Rb5 Sb6 3.750694 1_666
Al0 Sb4 2.680379 1_555
Al0 Sb3 2.680379 1_555
Al0 Sb0 2.680389 1_555
Al1 Sb1 2.680379 1_555
Al1 Sb2 2.680379 1_555
Al1 Sb5 2.680389 1_555
