# generated using pymatgen
data_Lu6Ti5Al11Os7
_symmetry_space_group_name_H-M   'P 1'
_cell_length_a   8.91566739
_cell_length_b   8.91566795
_cell_length_c   8.89999768
_cell_angle_alpha   59.94174014
_cell_angle_beta   59.94173781
_cell_angle_gamma   60.00000199
_symmetry_Int_Tables_number   1
_chemical_formula_structural   Lu6Ti5Al11Os7
_chemical_formula_sum   'Lu6 Ti5 Al11 Os7'
_cell_volume   499.80389668
_cell_formula_units_Z   1
loop_
 _symmetry_equiv_pos_site_id
 _symmetry_equiv_pos_as_xyz
  1  'x, y, z'
loop_
 _atom_site_type_symbol
 _atom_site_label
 _atom_site_symmetry_multiplicity
 _atom_site_fract_x
 _atom_site_fract_y
 _atom_site_fract_z
 _atom_site_occupancy
  Lu  Lu0  1  0.70818822  0.70818822  0.29237845  1
  Lu  Lu1  1  0.29124510  0.70818822  0.29237845  1
  Lu  Lu2  1  0.70818822  0.29124510  0.29237845  1
  Lu  Lu3  1  0.29144566  0.29144566  0.71239922  1
  Lu  Lu4  1  0.70470846  0.29144566  0.71239922  1
  Lu  Lu5  1  0.29144566  0.70470846  0.71239922  1
  Ti  Ti0  1  0.88053317  0.88053317  0.35839948  1
  Ti  Ti1  1  0.87877888  0.36157962  0.88086262  1
  Ti  Ti2  1  0.36157962  0.87877888  0.88086262  1
  Ti  Ti3  1  0.87877888  0.87877888  0.88086262  1
  Ti  Ti4  1  0.12308366  0.12308366  0.63075001  1
  Al  Al0  1  0.11834511  0.64241831  0.12089147  1
  Al  Al1  1  0.64241831  0.11834511  0.12089147  1
  Al  Al2  1  0.11834511  0.11834511  0.12089147  1
  Al  Al3  1  0.66894160  0.66894160  0.99317719  1
  Al  Al4  1  0.66907756  0.99328027  0.66856761  1
  Al  Al5  1  0.99328027  0.66907756  0.66856761  1
  Al  Al6  1  0.66907756  0.66907756  0.66856761  1
  Al  Al7  1  0.32966483  0.32966483  0.01100250  1
  Al  Al8  1  0.33323530  0.00477441  0.32875398  1
  Al  Al9  1  0.00477441  0.33323530  0.32875398  1
  Al  Al10  1  0.33323530  0.33323530  0.32875398  1
  Os  Os0  1  0.00431027  0.00431027  0.98706818  1
  Os  Os1  1  0.99920575  0.99920575  0.50383831  1
  Os  Os2  1  0.49775119  0.99920575  0.50383831  1
  Os  Os3  1  0.99920575  0.49775119  0.50383831  1
  Os  Os4  1  0.50098082  0.50098082  0.99884289  1
  Os  Os5  1  0.99919646  0.50098082  0.99884289  1
  Os  Os6  1  0.50098082  0.99919646  0.99884289  1
loop_
_geom_bond_atom_site_label_1
_geom_bond_atom_site_label_2
_geom_bond_distance
_geom_bond_site_symmetry_2
Lu0 Ti3 3.032016 1_554
Lu0 Ti0 3.039296 1_555
Lu0 Os5 3.197030 1_554
Lu0 Os6 3.197030 1_554
Lu0 Os3 3.206318 1_555
Lu0 Os2 3.206318 1_555
Lu1 Ti2 3.032016 1_554
Lu1 Ti0 3.039304 1_455
Lu1 Os4 3.197029 1_554
Lu1 Os6 3.197035 1_554
Lu1 Os3 3.206311 1_455
Lu1 Os1 3.206317 1_455
Lu2 Ti1 3.032016 1_554
Lu2 Ti0 3.039304 1_545
Lu2 Os4 3.197029 1_554
Lu2 Os5 3.197035 1_554
Lu2 Os2 3.206311 1_545
Lu2 Os1 3.206317 1_545
Lu3 Ti1 3.047629 1_455
Lu3 Ti2 3.047629 1_545
Lu3 Ti4 3.077826 1_555
Lu3 Os5 3.166594 1_455
Lu3 Os6 3.166594 1_545
Lu3 Os3 3.201493 1_455
Lu3 Os2 3.201493 1_545
Lu4 Ti3 3.047630 1_545
Lu4 Ti1 3.047636 1_555
Lu4 Ti4 3.077841 1_655
Lu4 Os6 3.166583 1_545
Lu4 Os4 3.166596 1_555
Lu4 Os1 3.201495 1_545
Lu4 Os3 3.201507 1_555
Lu5 Ti3 3.047630 1_455
Lu5 Ti2 3.047637 1_555
Lu5 Ti4 3.077842 1_565
Lu5 Os5 3.166583 1_455
Lu5 Os4 3.166596 1_555
Lu5 Os1 3.201495 1_455
Lu5 Os2 3.201507 1_555
Al0 Os0 2.635453 1_564
Al0 Os3 2.783455 1_455
Al0 Os5 2.786781 1_454
Al0 Os4 2.786788 1_554
Al0 Al10 2.802225 1_555
Al0 Al9 2.802230 1_555
Al0 Al7 2.813164 1_555
Al0 Ti0 2.995857 1_455
Al0 Lu5 3.020174 1_554
Al0 Ti2 3.021020 1_554
Al0 Ti3 3.021020 1_454
Al0 Lu0 3.034275 1_455
Al0 Lu1 3.034276 1_555
Al1 Os0 2.635453 1_654
Al1 Os2 2.783455 1_545
Al1 Os6 2.786781 1_544
Al1 Os4 2.786788 1_554
Al1 Al10 2.802225 1_555
Al1 Al8 2.802230 1_555
Al1 Al7 2.813164 1_555
Al1 Ti0 2.995857 1_545
Al1 Lu4 3.020174 1_554
Al1 Ti1 3.021020 1_554
Al1 Ti3 3.021020 1_544
Al1 Lu2 3.034276 1_555
Al1 Lu0 3.034276 1_545
Al2 Os0 2.635461 1_554
Al2 Os1 2.783455 1_445
Al2 Os6 2.786788 1_544
Al2 Os5 2.786789 1_454
Al2 Al8 2.802222 1_555
Al2 Al9 2.802223 1_555
Al2 Al7 2.813142 1_555
Al2 Ti0 2.995863 1_445
Al2 Lu3 3.020172 1_554
Al2 Ti2 3.021020 1_544
Al2 Ti1 3.021020 1_454
Al2 Lu2 3.034275 1_455
Al2 Lu1 3.034276 1_545
Al3 Os5 2.564874 1_555
Al3 Os6 2.564874 1_555
Al3 Os4 2.564882 1_555
Al3 Lu0 3.053706 1_556
Al3 Lu1 3.053717 1_556
Al3 Lu2 3.053717 1_556
Al4 Os6 2.559766 1_555
Al4 Os1 2.563288 1_555
Al4 Os2 2.563304 1_555
Al4 Ti0 2.802904 1_555
Al4 Lu2 3.038966 1_565
Al4 Lu4 3.054073 1_565
Al4 Lu3 3.054095 1_565
Al5 Os5 2.559767 1_555
Al5 Os1 2.563289 1_555
Al5 Os3 2.563304 1_555
Al5 Ti0 2.802904 1_555
Al5 Lu1 3.038966 1_655
Al5 Lu5 3.054073 1_655
Al5 Lu3 3.054095 1_655
Al6 Os4 2.559772 1_555
Al6 Os3 2.563294 1_555
Al6 Os2 2.563294 1_555
Al6 Ti0 2.802886 1_555
Al6 Lu0 3.038977 1_555
Al6 Lu5 3.054108 1_555
Al6 Lu4 3.054108 1_555
Al7 Os5 2.584415 1_454
Al7 Os6 2.584415 1_544
Al7 Os4 2.584445 1_554
Al7 Lu3 3.037321 1_554
Al7 Lu4 3.037332 1_554
Al7 Lu5 3.037332 1_554
Al8 Os6 2.556049 1_544
Al8 Os1 2.592534 1_445
Al8 Os2 2.592550 1_545
Al8 Lu1 3.034141 1_545
Al8 Lu0 3.034146 1_545
Al8 Lu5 3.086432 1_545
Al9 Os5 2.556049 1_454
Al9 Os1 2.592534 1_445
Al9 Os3 2.592550 1_455
Al9 Lu2 3.034140 1_455
Al9 Lu0 3.034146 1_455
Al9 Lu4 3.086432 1_455
Al10 Os4 2.556054 1_554
Al10 Os3 2.592539 1_455
Al10 Os2 2.592540 1_545
Al10 Lu2 3.034149 1_555
Al10 Lu1 3.034149 1_555
Al10 Lu3 3.086432 1_555
Os0 Ti4 2.587017 1_555
Os0 Ti3 2.602072 1_445
Os0 Ti2 2.602079 1_545
Os0 Ti1 2.602079 1_455
Os0 Ti0 2.696018 1_446
Os1 Ti4 2.726655 1_665
Os1 Ti3 2.738551 1_555
Os1 Ti0 2.788865 1_555
Os2 Ti4 2.726655 1_565
Os2 Ti2 2.738551 1_555
Os2 Ti0 2.788850 1_555
Os3 Ti4 2.726655 1_655
Os3 Ti1 2.738551 1_555
Os3 Ti0 2.788850 1_555
Os4 Ti1 2.751504 1_555
Os4 Ti2 2.751504 1_555
Os5 Ti3 2.751504 1_555
Os5 Ti1 2.751511 1_555
Os6 Ti3 2.751504 1_555
Os6 Ti2 2.751511 1_555
