# generated using pymatgen
data_Cd3In4(PO4)6
_symmetry_space_group_name_H-M   'P 1'
_cell_length_a   6.58636418
_cell_length_b   8.99663127
_cell_length_c   9.07842918
_cell_angle_alpha   91.83464077
_cell_angle_beta   108.20069202
_cell_angle_gamma   106.73710538
_symmetry_Int_Tables_number   1
_chemical_formula_structural   Cd3In4(PO4)6
_chemical_formula_sum   'Cd3 In4 P6 O24'
_cell_volume   484.96173847
_cell_formula_units_Z   1
loop_
 _symmetry_equiv_pos_site_id
 _symmetry_equiv_pos_as_xyz
  1  'x, y, z'
loop_
 _atom_site_type_symbol
 _atom_site_label
 _atom_site_symmetry_multiplicity
 _atom_site_fract_x
 _atom_site_fract_y
 _atom_site_fract_z
 _atom_site_occupancy
  Cd  Cd0  1  0.26202721  0.76375655  0.24017944  1
  Cd  Cd1  1  0.74655543  0.23382113  0.76671431  1
  Cd  Cd2  1  0.02156109  0.98617191  0.98838851  1
  In  In0  1  0.13342500  0.86842611  0.56998467  1
  In  In1  1  0.36913780  0.43033551  0.12846894  1
  In  In2  1  0.86461021  0.13191182  0.42614440  1
  In  In3  1  0.62898615  0.56781260  0.87134798  1
  P  P0  1  0.24523988  0.20865264  0.78470728  1
  P  P1  1  0.75483188  0.79221360  0.21224389  1
  P  P2  1  0.35539717  0.14730115  0.36636663  1
  P  P3  1  0.12717931  0.63290123  0.85163226  1
  P  P4  1  0.64690931  0.85117958  0.63388623  1
  P  P5  1  0.87244214  0.36744956  0.14683155  1
  O  O0  1  0.25663794  0.04239932  0.76627656  1
  O  O1  1  0.22836797  0.23057522  0.95031083  1
  O  O2  1  0.73544284  0.95490038  0.23434177  1
  O  O3  1  0.77205254  0.77069144  0.04690167  1
  O  O4  1  0.96788585  0.76787839  0.32791606  1
  O  O5  1  0.54648265  0.67172937  0.23074426  1
  O  O6  1  0.03360567  0.23360766  0.66883103  1
  O  O7  1  0.45531533  0.32570638  0.76629107  1
  O  O8  1  0.13677291  0.68160340  0.69524676  1
  O  O9  1  0.35136095  0.30425692  0.31298695  1
  O  O10  1  0.86184999  0.32039014  0.30396001  1
  O  O11  1  0.64964093  0.69354678  0.68638273  1
  O  O12  1  0.41381337  0.84039814  0.51743587  1
  O  O13  1  0.09937551  0.49669662  0.16830913  1
  O  O14  1  0.58765566  0.15944695  0.48521976  1
  O  O15  1  0.90159157  0.50493908  0.83237536  1
  O  O16  1  0.29168541  0.02256609  0.22582151  1
  O  O17  1  0.15921460  0.76994803  0.96988583  1
  O  O18  1  0.71756624  0.97506495  0.77635157  1
  O  O19  1  0.84374815  0.23197534  0.03025650  1
  O  O20  1  0.18591328  0.09515136  0.45568458  1
  O  O21  1  0.31497397  0.55367933  0.91393717  1
  O  O22  1  0.81310560  0.90274963  0.54243103  1
  O  O23  1  0.68393545  0.44706470  0.08470494  1
loop_
_geom_bond_atom_site_label_1
_geom_bond_atom_site_label_2
_geom_bond_distance
_geom_bond_site_symmetry_2
Cd0 O5 2.278603 1_555
Cd0 O16 2.291295 1_565
Cd0 O13 2.307931 1_555
Cd0 O4 2.322169 1_455
Cd0 O17 2.339967 1_554
Cd0 O12 2.393811 1_555
Cd1 O19 2.277335 1_556
Cd1 O18 2.287107 1_545
Cd1 O7 2.296045 1_555
Cd1 O6 2.327143 1_655
Cd1 O15 2.332295 1_555
Cd1 O14 2.426966 1_555
Cd2 O16 2.267689 1_566
Cd2 O18 2.277962 1_455
Cd2 O1 2.329674 1_565
Cd2 O3 2.348900 1_456
Cd2 O17 2.392564 1_555
In0 O8 2.060762 1_555
In0 O0 2.114326 1_565
In0 O12 2.124260 1_555
In0 O4 2.155078 1_455
In0 O22 2.158571 1_455
In0 O20 2.304425 1_565
In1 O9 2.067383 1_555
In1 O1 2.150072 1_554
In1 O13 2.154690 1_555
In1 O5 2.162226 1_555
In1 O23 2.195012 1_555
In1 O21 2.254817 1_554
In2 O10 2.057095 1_555
In2 O2 2.099660 1_545
In2 O14 2.130567 1_555
In2 O6 2.163929 1_655
In2 O20 2.171159 1_655
In2 O22 2.332466 1_545
In3 O11 2.072069 1_555
In3 O15 2.153570 1_555
In3 O3 2.155088 1_556
In3 O7 2.170903 1_555
In3 O21 2.189595 1_555
In3 O23 2.232958 1_556
O0 P0 1.525551 1_555
O1 P0 1.552264 1_555
O2 P1 1.517772 1_555
O3 P1 1.550449 1_555
O4 P1 1.546264 1_555
O5 P1 1.544403 1_555
O6 P0 1.542519 1_555
O7 P0 1.538814 1_555
O8 P3 1.513785 1_555
O9 P2 1.512246 1_555
O10 P5 1.517493 1_555
O11 P4 1.513692 1_555
O12 P4 1.542017 1_555
O13 P5 1.557735 1_455
O14 P2 1.543161 1_555
O15 P3 1.550215 1_655
O16 P2 1.538191 1_555
O17 P3 1.530078 1_555
O18 P4 1.537706 1_555
O19 P5 1.516922 1_555
O20 P2 1.553020 1_555
O21 P3 1.566626 1_555
O22 P4 1.550070 1_555
O23 P5 1.572665 1_555
