# generated using pymatgen
data_Th2Ni17
_symmetry_space_group_name_H-M   'P 1'
_cell_length_a   8.29184346
_cell_length_b   8.29184206
_cell_length_c   7.99042350
_cell_angle_alpha   89.99998669
_cell_angle_beta   90.00001331
_cell_angle_gamma   120.00000697
_symmetry_Int_Tables_number   1
_chemical_formula_structural   Th2Ni17
_chemical_formula_sum   'Th4 Ni34'
_cell_volume   475.77598307
_cell_formula_units_Z   2
loop_
 _symmetry_equiv_pos_site_id
 _symmetry_equiv_pos_as_xyz
  1  'x, y, z'
loop_
 _atom_site_type_symbol
 _atom_site_label
 _atom_site_symmetry_multiplicity
 _atom_site_fract_x
 _atom_site_fract_y
 _atom_site_fract_z
 _atom_site_occupancy
  Th  Th0  1  0.00000000  -0.00000000  0.25000433  1
  Th  Th1  1  -0.00000000  0.00000000  0.74999563  1
  Th  Th2  1  0.33333400  0.66666800  0.74995078  1
  Th  Th3  1  0.66666600  0.33333200  0.25004962  1
  Ni  Ni0  1  0.33333400  0.66666800  0.10320421  1
  Ni  Ni1  1  0.66666600  0.33333200  0.60333311  1
  Ni  Ni2  1  0.66666600  0.33333300  0.89678101  1
  Ni  Ni3  1  0.33333400  0.66666800  0.39668192  1
  Ni  Ni4  1  0.50000608  0.00001217  -0.00001918  1
  Ni  Ni5  1  0.50000589  0.49999411  0.50001936  1
  Ni  Ni6  1  -0.00001178  0.49999411  0.50001936  1
  Ni  Ni7  1  -0.00001217  0.49999392  -0.00001918  1
  Ni  Ni8  1  0.50000608  0.49999392  -0.00001918  1
  Ni  Ni9  1  0.50000589  0.00001178  0.50001936  1
  Ni  Ni10  1  0.32827928  0.95409670  0.25002651  1
  Ni  Ni11  1  0.37418536  0.32825129  0.74997333  1
  Ni  Ni12  1  0.95406393  0.62581564  0.74997333  1
  Ni  Ni13  1  0.04590330  0.37417958  0.25002651  1
  Ni  Ni14  1  0.62581942  0.67172072  0.25002651  1
  Ni  Ni15  1  0.37418536  0.04593507  0.74997333  1
  Ni  Ni16  1  0.67174971  0.62581464  0.74997333  1
  Ni  Ni17  1  0.67174871  0.04593607  0.74997333  1
  Ni  Ni18  1  0.95406393  0.32824829  0.74997333  1
  Ni  Ni19  1  0.04590330  0.67172372  0.25002651  1
  Ni  Ni20  1  0.62581942  0.95409770  0.25002651  1
  Ni  Ni21  1  0.32827928  0.37418058  0.25002651  1
  Ni  Ni22  1  0.16581995  0.33163791  0.98089485  1
  Ni  Ni23  1  0.83415650  0.16584150  0.48099102  1
  Ni  Ni24  1  0.33168400  0.16584250  0.48099102  1
  Ni  Ni25  1  0.66836109  0.83418005  0.98089485  1
  Ni  Ni26  1  0.16581995  0.83418105  0.98089485  1
  Ni  Ni27  1  0.83416789  0.66833778  0.01903604  1
  Ni  Ni28  1  0.83416789  0.16583011  0.01903604  1
  Ni  Ni29  1  0.83415650  0.66831600  0.48099102  1
  Ni  Ni30  1  0.33166222  0.16583211  0.01903604  1
  Ni  Ni31  1  0.66833999  0.83416999  0.51907934  1
  Ni  Ni32  1  0.16583101  0.33165901  0.51907934  1
  Ni  Ni33  1  0.16583101  0.83417099  0.51907934  1
loop_
_geom_bond_atom_site_label_1
_geom_bond_atom_site_label_2
_geom_bond_distance
_geom_bond_site_symmetry_2
Ni0 Ni3 2.345011 1_555
Ni0 Ni4 2.531841 1_565
Ni0 Ni7 2.531855 1_555
Ni0 Ni8 2.531855 1_555
Ni0 Ni26 2.596739 1_554
Ni0 Ni25 2.596739 1_554
Ni0 Ni22 2.596758 1_554
Ni0 Ni10 2.675475 1_555
Ni0 Ni20 2.675486 1_555
Ni0 Ni19 2.675494 1_555
Ni0 Ni14 2.675497 1_555
Ni0 Ni13 2.675501 1_555
Ni0 Ni21 2.675504 1_555
Ni0 Th2 2.822645 1_554
Ni1 Ni2 2.344773 1_555
Ni1 Ni9 2.531914 1_555
Ni1 Ni5 2.531927 1_555
Ni1 Ni6 2.531928 1_655
Ni1 Ni23 2.596531 1_555
Ni1 Ni24 2.596537 1_555
Ni1 Ni29 2.596550 1_555
Ni1 Ni17 2.674700 1_555
Ni1 Ni15 2.674711 1_555
Ni1 Ni18 2.674719 1_555
Ni1 Ni11 2.674723 1_555
Ni1 Ni12 2.674726 1_555
Ni1 Ni16 2.674726 1_555
Ni1 Th3 2.822885 1_555
Ni2 Ni4 2.531621 1_556
Ni2 Ni8 2.531622 1_556
Ni2 Ni7 2.531628 1_656
Ni2 Ni30 2.596420 1_556
Ni2 Ni27 2.596427 1_556
Ni2 Ni28 2.596427 1_556
Ni2 Th3 2.822766 1_556
Ni3 Ni9 2.532135 1_565
Ni3 Ni5 2.532149 1_555
Ni3 Ni6 2.532149 1_555
Ni3 Ni31 2.596863 1_555
Ni3 Ni33 2.596863 1_555
Ni3 Ni32 2.596883 1_555
Ni3 Th2 2.822768 1_555
Ni4 Th2 3.117902 1_544
Ni4 Th3 3.117967 1_555
Ni5 Th2 3.117407 1_555
Ni5 Th3 3.117473 1_555
Ni6 Th2 3.117406 1_555
Ni6 Th3 3.117473 1_455
Ni7 Th2 3.117914 1_554
Ni7 Th3 3.117978 1_455
Ni8 Th2 3.117913 1_554
Ni8 Th3 3.117977 1_555
Ni9 Th2 3.117395 1_545
Ni9 Th3 3.117461 1_555
Ni10 Ni19 2.341405 1_555
Ni10 Ni9 2.370782 1_565
Ni10 Ni4 2.371138 1_565
Ni10 Ni33 2.466904 1_555
Ni10 Ni20 2.467152 1_555
Ni10 Ni26 2.467474 1_554
Ni10 Ni24 2.537680 1_565
Ni10 Ni30 2.537832 1_565
Ni10 Ni3 2.674890 1_555
Ni10 Th0 2.930947 1_565
Ni10 Th3 2.989629 1_565
Ni11 Ni15 2.340922 1_555
Ni11 Ni5 2.370581 1_555
Ni11 Ni8 2.370942 1_556
Ni11 Ni24 2.466281 1_555
Ni11 Ni30 2.466858 1_556
Ni11 Ni16 2.467352 1_555
Ni11 Ni32 2.537354 1_555
Ni11 Ni22 2.537516 1_555
Ni11 Ni2 2.675305 1_555
Ni11 Th1 2.930867 1_555
Ni11 Th2 2.989890 1_555
Ni12 Ni16 2.340901 1_555
Ni12 Ni6 2.370593 1_655
Ni12 Ni7 2.370952 1_656
Ni12 Ni29 2.466278 1_555
Ni12 Ni27 2.466856 1_556
Ni12 Ni18 2.467381 1_555
Ni12 Ni33 2.537372 1_655
Ni12 Ni26 2.537527 1_655
Ni12 Ni2 2.675309 1_555
Ni12 Th1 2.930852 1_665
Ni12 Th2 2.989904 1_655
Ni13 Ni21 2.341413 1_555
Ni13 Ni6 2.370795 1_555
Ni13 Ni7 2.371151 1_555
Ni13 Ni32 2.466906 1_555
Ni13 Ni19 2.467189 1_555
Ni13 Ni22 2.467473 1_554
Ni13 Ni23 2.537674 1_455
Ni13 Ni28 2.537824 1_455
Ni13 Ni3 2.674916 1_555
Ni13 Th0 2.930921 1_555
Ni13 Th3 2.989650 1_455
Ni14 Ni20 2.341425 1_555
Ni14 Ni5 2.370784 1_555
Ni14 Ni8 2.371140 1_555
Ni14 Ni31 2.466911 1_555
Ni14 Ni21 2.467156 1_555
Ni14 Ni25 2.467476 1_554
Ni14 Ni29 2.537657 1_555
Ni14 Ni27 2.537810 1_555
Ni14 Ni3 2.674913 1_555
Ni14 Th0 2.930936 1_665
Ni14 Th3 2.989636 1_555
Ni15 Ni9 2.370585 1_555
Ni15 Ni4 2.370944 1_556
Ni15 Ni24 2.466281 1_555
Ni15 Ni30 2.466862 1_556
Ni15 Ni17 2.467345 1_555
Ni15 Ni33 2.537360 1_545
Ni15 Ni26 2.537521 1_545
Ni15 Ni2 2.675301 1_555
Ni15 Th1 2.930864 1_555
Ni15 Th2 2.989882 1_545
Ni16 Ni5 2.370585 1_555
Ni16 Ni8 2.370945 1_556
Ni16 Ni29 2.466273 1_555
Ni16 Ni27 2.466854 1_556
Ni16 Ni31 2.537365 1_555
Ni16 Ni25 2.537522 1_555
Ni16 Ni2 2.675305 1_555
Ni16 Th1 2.930864 1_665
Ni16 Th2 2.989892 1_555
Ni17 Ni18 2.340901 1_555
Ni17 Ni9 2.370579 1_555
Ni17 Ni4 2.370940 1_556
Ni17 Ni23 2.466276 1_555
Ni17 Ni28 2.466856 1_556
Ni17 Ni31 2.537375 1_545
Ni17 Ni25 2.537535 1_545
Ni17 Ni2 2.675294 1_555
Ni17 Th1 2.930878 1_655
Ni17 Th2 2.989883 1_545
Ni18 Ni6 2.370592 1_655
Ni18 Ni7 2.370952 1_656
Ni18 Ni23 2.466275 1_555
Ni18 Ni28 2.466855 1_556
Ni18 Ni32 2.537375 1_655
Ni18 Ni22 2.537530 1_655
Ni18 Ni2 2.675309 1_555
Ni18 Th1 2.930852 1_655
Ni18 Th2 2.989910 1_655
Ni19 Ni6 2.370794 1_555
Ni19 Ni7 2.371151 1_555
Ni19 Ni33 2.466904 1_555
Ni19 Ni26 2.467469 1_554
Ni19 Ni29 2.537678 1_455
Ni19 Ni27 2.537823 1_455
Ni19 Ni3 2.674909 1_555
Ni19 Th0 2.930922 1_565
Ni19 Th3 2.989656 1_455
Ni20 Ni9 2.370788 1_565
Ni20 Ni4 2.371143 1_565
Ni20 Ni31 2.466906 1_555
Ni20 Ni25 2.467476 1_554
Ni20 Ni23 2.537663 1_565
Ni20 Ni28 2.537812 1_565
Ni20 Ni3 2.674901 1_555
Ni20 Th0 2.930934 1_665
Ni20 Th3 2.989628 1_565
Ni21 Ni5 2.370784 1_555
Ni21 Ni8 2.371140 1_555
Ni21 Ni32 2.466906 1_555
Ni21 Ni22 2.467475 1_554
Ni21 Ni24 2.537662 1_555
Ni21 Ni30 2.537809 1_555
Ni21 Ni3 2.674920 1_555
Ni21 Th0 2.930936 1_555
Ni21 Th3 2.989630 1_555
Ni22 Ni30 2.400968 1_556
Ni22 Ni28 2.400997 1_456
Ni22 Ni8 2.404636 1_556
Ni22 Ni7 2.404651 1_556
Ni22 Th1 3.012537 1_555
Ni22 Th2 3.032048 1_555
Ni22 Th0 3.208613 1_556
Ni23 Ni31 2.401081 1_545
Ni23 Ni32 2.401103 1_655
Ni23 Ni9 2.404352 1_555
Ni23 Ni6 2.404366 1_655
Ni23 Th0 3.013233 1_655
Ni23 Th3 3.031755 1_555
Ni23 Th1 3.208303 1_655
Ni24 Ni32 2.401067 1_555
Ni24 Ni33 2.401081 1_545
Ni24 Ni5 2.404359 1_555
Ni24 Ni9 2.404367 1_555
Ni24 Th0 3.013227 1_555
Ni24 Th3 3.031761 1_555
Ni24 Th1 3.208298 1_555
Ni25 Ni27 2.400975 1_556
Ni25 Ni28 2.400982 1_566
Ni25 Ni8 2.404636 1_556
Ni25 Ni4 2.404644 1_566
Ni25 Th1 3.012543 1_665
Ni25 Th2 3.032031 1_555
Ni25 Th0 3.208619 1_666
Ni26 Ni30 2.400989 1_566
Ni26 Ni27 2.400997 1_456
Ni26 Ni4 2.404636 1_566
Ni26 Ni7 2.404643 1_556
Ni26 Th1 3.012542 1_565
Ni26 Th2 3.032032 1_555
Ni26 Th0 3.208620 1_566
Ni27 Ni8 2.404447 1_555
Ni27 Ni7 2.404461 1_655
Ni27 Th0 3.013013 1_665
Ni27 Th3 3.032247 1_555
Ni27 Th1 3.208373 1_664
Ni28 Ni4 2.404447 1_555
Ni28 Ni7 2.404461 1_655
Ni28 Th0 3.013013 1_655
Ni28 Th3 3.032237 1_555
Ni28 Th1 3.208374 1_654
Ni29 Ni31 2.401074 1_555
Ni29 Ni33 2.401103 1_655
Ni29 Ni5 2.404352 1_555
Ni29 Ni6 2.404374 1_655
Ni29 Th0 3.013226 1_665
Ni29 Th3 3.031773 1_555
Ni29 Th1 3.208298 1_665
Ni30 Ni8 2.404446 1_555
Ni30 Ni4 2.404461 1_555
Ni30 Th0 3.013013 1_555
Ni30 Th3 3.032236 1_555
Ni30 Th1 3.208373 1_554
Ni31 Ni5 2.404549 1_555
Ni31 Ni9 2.404549 1_565
Ni31 Th1 3.012746 1_665
Ni31 Th2 3.031558 1_555
Ni31 Th0 3.208547 1_665
Ni32 Ni5 2.404542 1_555
Ni32 Ni6 2.404564 1_555
Ni32 Th1 3.012740 1_555
Ni32 Th2 3.031575 1_555
Ni32 Th0 3.208542 1_555
Ni33 Ni9 2.404542 1_565
Ni33 Ni6 2.404556 1_555
Ni33 Th1 3.012747 1_565
Ni33 Th2 3.031557 1_555
Ni33 Th0 3.208547 1_565
