# generated using pymatgen
data_Ba2ReAgN4
_symmetry_space_group_name_H-M   'P 1'
_cell_length_a   6.08344941
_cell_length_b   6.76745302
_cell_length_c   7.53019627
_cell_angle_alpha   73.27445678
_cell_angle_beta   90.00000000
_cell_angle_gamma   90.00000000
_symmetry_Int_Tables_number   1
_chemical_formula_structural   Ba2ReAgN4
_chemical_formula_sum   'Ba4 Re2 Ag2 N8'
_cell_volume   296.89873347
_cell_formula_units_Z   2
loop_
 _symmetry_equiv_pos_site_id
 _symmetry_equiv_pos_as_xyz
  1  'x, y, z'
loop_
 _atom_site_type_symbol
 _atom_site_label
 _atom_site_symmetry_multiplicity
 _atom_site_fract_x
 _atom_site_fract_y
 _atom_site_fract_z
 _atom_site_occupancy
  Ba  Ba0  1  0.25000000  0.26671272  0.07141966  1
  Ba  Ba1  1  0.75000000  0.73328728  0.92858034  1
  Ba  Ba2  1  0.75000000  0.82807986  0.40140419  1
  Ba  Ba3  1  0.25000000  0.17192014  0.59859581  1
  Re  Re0  1  0.25000000  0.72777051  0.19665064  1
  Re  Re1  1  0.75000000  0.27222949  0.80334936  1
  Ag  Ag0  1  0.75000000  0.33847853  0.37771485  1
  Ag  Ag1  1  0.25000000  0.66152147  0.62228515  1
  N  N0  1  0.50778031  0.43570046  0.76446065  1
  N  N1  1  0.00778031  0.56429954  0.23553935  1
  N  N2  1  0.49221969  0.56429954  0.23553935  1
  N  N3  1  0.99221969  0.43570046  0.76446065  1
  N  N4  1  0.75000000  0.10056662  0.64466152  1
  N  N5  1  0.25000000  0.89943338  0.35533848  1
  N  N6  1  0.75000000  0.11277566  0.04125178  1
  N  N7  1  0.25000000  0.88722434  0.95874822  1
loop_
_geom_bond_atom_site_label_1
_geom_bond_atom_site_label_2
_geom_bond_distance
_geom_bond_site_symmetry_2
Ba0 N0 2.754715 1_554
Ba0 N3 2.754715 1_454
Ba0 N5 2.773124 1_545
Ba0 N7 2.927368 1_544
Ba0 N2 3.031004 1_555
Ba0 N1 3.031004 1_555
Ba0 N6 3.244253 1_455
Ba0 N6 3.244253 1_555
Ba1 N1 2.754715 1_656
Ba1 N2 2.754715 1_556
Ba1 N4 2.773124 1_565
Ba1 N6 2.927368 1_566
Ba1 N3 3.031004 1_555
Ba1 N0 3.031004 1_555
Ba1 N7 3.244253 1_555
Ba1 N7 3.244253 1_655
Ba2 N6 2.838946 1_565
Ba2 N1 2.913620 1_655
Ba2 N2 2.913620 1_555
Ba2 N4 2.949594 1_565
Ba2 N5 3.083696 1_655
Ba2 N5 3.083696 1_555
Ba3 N7 2.838946 1_545
Ba3 N0 2.913620 1_555
Ba3 N3 2.913620 1_455
Ba3 N5 2.949594 1_545
Ba3 N4 3.083696 1_555
Ba3 N4 3.083696 1_455
Ag0 N4 2.184078 1_555
Ag0 N1 2.235891 1_655
Ag0 N2 2.235891 1_555
Ag1 N5 2.184078 1_555
Ag1 N0 2.235891 1_555
Ag1 N3 2.235891 1_455
N0 Re1 1.815060 1_555
N1 Re0 1.815060 1_555
N2 Re0 1.815060 1_555
N3 Re1 1.815060 1_555
N4 Re1 1.891167 1_555
N5 Re0 1.891167 1_555
N6 Re1 1.805845 1_554
N7 Re0 1.805845 1_556
