# generated using pymatgen
data_V3Si2RhC
_symmetry_space_group_name_H-M   'P 1'
_cell_length_a   7.76378215
_cell_length_b   7.76378118
_cell_length_c   7.76378024
_cell_angle_alpha   59.99999567
_cell_angle_beta   59.99999979
_cell_angle_gamma   59.99999333
_symmetry_Int_Tables_number   1
_chemical_formula_structural   V3Si2RhC
_chemical_formula_sum   'V12 Si8 Rh4 C4'
_cell_volume   330.90614075
_cell_formula_units_Z   4
loop_
 _symmetry_equiv_pos_site_id
 _symmetry_equiv_pos_as_xyz
  1  'x, y, z'
loop_
 _atom_site_type_symbol
 _atom_site_label
 _atom_site_symmetry_multiplicity
 _atom_site_fract_x
 _atom_site_fract_y
 _atom_site_fract_z
 _atom_site_occupancy
  V  V0  1  0.81849178  0.81849178  0.18150822  1
  V  V1  1  0.18150822  0.18150822  0.81849178  1
  V  V2  1  0.81849178  0.18150822  0.81849178  1
  V  V3  1  0.18150822  0.81849178  0.18150822  1
  V  V4  1  0.18150822  0.81849178  0.81849178  1
  V  V5  1  0.81849178  0.18150822  0.18150822  1
  V  V6  1  0.43150822  0.43150822  0.06849178  1
  V  V7  1  0.06849178  0.06849178  0.43150822  1
  V  V8  1  0.43150822  0.06849178  0.43150822  1
  V  V9  1  0.06849178  0.43150822  0.06849178  1
  V  V10  1  0.06849178  0.43150822  0.43150822  1
  V  V11  1  0.43150822  0.06849178  0.06849178  1
  Si  Si0  1  0.76891155  0.41036348  0.41036348  1
  Si  Si1  1  0.41036348  0.76891155  0.41036348  1
  Si  Si2  1  0.41036348  0.41036348  0.76891155  1
  Si  Si3  1  0.41036348  0.41036348  0.41036348  1
  Si  Si4  1  0.48108845  0.83963652  0.83963652  1
  Si  Si5  1  0.83963652  0.48108845  0.83963652  1
  Si  Si6  1  0.83963652  0.83963652  0.48108845  1
  Si  Si7  1  0.83963652  0.83963652  0.83963652  1
  Rh  Rh0  1  0.12500000  0.62500000  0.62500000  1
  Rh  Rh1  1  0.62500000  0.12500000  0.62500000  1
  Rh  Rh2  1  0.62500000  0.62500000  0.12500000  1
  Rh  Rh3  1  0.62500000  0.62500000  0.62500000  1
  C  C0  1  0.62500000  0.12500000  0.12500000  1
  C  C1  1  0.12500000  0.62500000  0.12500000  1
  C  C2  1  0.12500000  0.12500000  0.62500000  1
  C  C3  1  0.12500000  0.12500000  0.12500000  1
loop_
_geom_bond_atom_site_label_1
_geom_bond_atom_site_label_2
_geom_bond_distance
_geom_bond_site_symmetry_2
Si0 V10 2.500838 1_655
Si0 V7 2.500847 1_655
Si0 V9 2.500847 1_655
Si1 V8 2.500838 1_565
Si1 V11 2.500846 1_565
Si1 V7 2.500847 1_565
Si2 V6 2.500838 1_556
Si2 V11 2.500846 1_556
Si2 V9 2.500847 1_556
Si3 V6 2.500853 1_555
Si3 V8 2.500853 1_555
Si3 V10 2.500854 1_555
Si4 V4 2.500838 1_555
Si4 V1 2.500847 1_565
Si4 V3 2.500847 1_556
Si5 V2 2.500838 1_555
Si5 V5 2.500846 1_556
Si5 V1 2.500847 1_655
Si6 V0 2.500838 1_555
Si6 V5 2.500846 1_565
Si6 V3 2.500847 1_655
Si7 V0 2.500853 1_556
Si7 V2 2.500853 1_565
Si7 V4 2.500854 1_655
Rh0 Si7 2.419760 1_455
Rh0 Si3 2.419760 1_555
Rh0 Si2 2.419769 1_555
Rh0 Si6 2.419769 1_455
Rh0 Si1 2.419769 1_555
Rh0 Si5 2.419769 1_455
Rh0 V9 2.877611 1_556
Rh0 V3 2.877611 1_555
Rh0 V7 2.877611 1_565
Rh0 V1 2.877611 1_555
Rh0 V4 2.877611 1_555
Rh0 V10 2.877611 1_555
Rh1 Si3 2.419760 1_555
Rh1 Si7 2.419760 1_545
Rh1 Si2 2.419769 1_555
Rh1 Si6 2.419769 1_545
Rh1 Si0 2.419769 1_555
Rh1 Si4 2.419769 1_545
Rh1 V11 2.877611 1_556
Rh1 V5 2.877611 1_555
Rh1 V2 2.877611 1_555
Rh1 V8 2.877611 1_555
Rh1 V7 2.877611 1_655
Rh1 V1 2.877611 1_555
Rh2 Si3 2.419760 1_555
Rh2 Si7 2.419760 1_554
Rh2 Si0 2.419769 1_555
Rh2 Si4 2.419769 1_554
Rh2 Si1 2.419769 1_555
Rh2 Si5 2.419769 1_554
Rh2 V11 2.877611 1_565
Rh2 V5 2.877611 1_555
Rh2 V9 2.877611 1_655
Rh2 V3 2.877611 1_555
Rh2 V0 2.877611 1_555
Rh2 V6 2.877611 1_555
Rh3 Si4 2.419756 1_555
Rh3 Si0 2.419756 1_555
Rh3 Si5 2.419756 1_555
Rh3 Si1 2.419756 1_555
Rh3 Si6 2.419757 1_555
Rh3 Si2 2.419757 1_555
Rh3 V8 2.877611 1_565
Rh3 V2 2.877611 1_555
Rh3 V6 2.877611 1_556
Rh3 V0 2.877611 1_555
Rh3 V10 2.877611 1_655
Rh3 V4 2.877611 1_555
C0 V6 2.037698 1_555
C0 V0 2.037698 1_545
C0 V8 2.037698 1_555
C0 V2 2.037698 1_554
C0 V5 2.037699 1_555
C0 V11 2.037699 1_555
C1 V10 2.037698 1_555
C1 V4 2.037698 1_554
C1 V6 2.037698 1_555
C1 V0 2.037698 1_455
C1 V3 2.037698 1_555
C1 V9 2.037698 1_555
C2 V10 2.037698 1_555
C2 V4 2.037698 1_545
C2 V1 2.037698 1_555
C2 V7 2.037698 1_555
C2 V8 2.037698 1_555
C2 V2 2.037698 1_455
C3 V7 2.037698 1_555
C3 V1 2.037698 1_554
C3 V9 2.037698 1_555
C3 V3 2.037698 1_545
C3 V11 2.037699 1_555
C3 V5 2.037699 1_455
