# generated using pymatgen
data_Li2Ni3(P2O7)2
_symmetry_space_group_name_H-M   'P 1'
_cell_length_a   5.25612000
_cell_length_b   6.40045733
_cell_length_c   15.89326259
_cell_angle_alpha   81.42260155
_cell_angle_beta   81.98609916
_cell_angle_gamma   72.21375216
_symmetry_Int_Tables_number   1
_chemical_formula_structural   Li2Ni3(P2O7)2
_chemical_formula_sum   'Li4 Ni6 P8 O28'
_cell_volume   500.91672076
_cell_formula_units_Z   2
loop_
 _symmetry_equiv_pos_site_id
 _symmetry_equiv_pos_as_xyz
  1  'x, y, z'
loop_
 _atom_site_type_symbol
 _atom_site_label
 _atom_site_symmetry_multiplicity
 _atom_site_fract_x
 _atom_site_fract_y
 _atom_site_fract_z
 _atom_site_occupancy
  Li  Li0  1  0.64460400  0.31536300  0.87612600  1
  Li  Li1  1  0.07467900  0.21197100  0.98749700  1
  Li  Li2  1  0.92532100  0.78802900  0.01250300  1
  Li  Li3  1  0.35539600  0.68463700  0.12387400  1
  Ni  Ni0  1  0.22739200  0.95888800  0.33394300  1
  Ni  Ni1  1  0.20257800  0.27933500  0.59269600  1
  Ni  Ni2  1  0.05327300  0.63830900  0.81283300  1
  Ni  Ni3  1  0.94672700  0.36169100  0.18716700  1
  Ni  Ni4  1  0.77260800  0.04111200  0.66605700  1
  Ni  Ni5  1  0.79742200  0.72066500  0.40730400  1
  P  P0  1  0.18485700  0.10934800  0.79130400  1
  P  P1  1  0.29874100  0.78184200  0.54241900  1
  P  P2  1  0.35260700  0.42545400  0.31988400  1
  P  P3  1  0.64739300  0.57454600  0.68011600  1
  P  P4  1  0.81514300  0.89065200  0.20869600  1
  P  P5  1  0.70125900  0.21815800  0.45758100  1
  P  P6  1  0.54736600  0.23829900  0.07282000  1
  P  P7  1  0.45263400  0.76170100  0.92718000  1
  O  O0  1  0.59120200  0.02759200  0.14578100  1
  O  O1  1  0.40778300  0.84616500  0.45021600  1
  O  O2  1  0.39981500  0.55114100  0.73546000  1
  O  O3  1  0.00942500  0.02433300  0.21457100  1
  O  O4  1  0.12114000  0.98591100  0.58533900  1
  O  O5  1  0.71132900  0.14440300  0.99164100  1
  O  O6  1  0.34203500  0.58766600  0.90102300  1
  O  O7  1  0.99057500  0.97566700  0.78542900  1
  O  O8  1  0.64138800  0.85261200  0.29171200  1
  O  O9  1  0.40879800  0.97240800  0.85421900  1
  O  O10  1  0.28867100  0.85559700  0.00835900  1
  O  O11  1  0.20200900  0.28600400  0.28682300  1
  O  O12  1  0.79799100  0.71399600  0.71317700  1
  O  O13  1  0.65796500  0.41233400  0.09897700  1
  O  O14  1  0.96819200  0.68519300  0.16246100  1
  O  O15  1  0.42605700  0.29835200  0.41213400  1
  O  O16  1  0.24180200  0.31521400  0.07150700  1
  O  O17  1  0.60018500  0.44885900  0.26454000  1
  O  O18  1  0.83092500  0.40211800  0.44823000  1
  O  O19  1  0.35861200  0.14738800  0.70828800  1
  O  O20  1  0.59221700  0.15383500  0.54978400  1
  O  O21  1  0.16907500  0.59788200  0.55177000  1
  O  O22  1  0.16249300  0.65460700  0.33872200  1
  O  O23  1  0.75819800  0.68478600  0.92849300  1
  O  O24  1  0.57394300  0.70164800  0.58786600  1
  O  O25  1  0.03180800  0.31480700  0.83753900  1
  O  O26  1  0.83750700  0.34539300  0.66127800  1
  O  O27  1  0.87886000  0.01408900  0.41466100  1
loop_
_geom_bond_atom_site_label_1
_geom_bond_atom_site_label_2
_geom_bond_distance
_geom_bond_site_symmetry_2
Li0 O5 2.009163 1_555
Li0 O6 2.015000 1_555
Li0 O25 2.041160 1_655
Li1 O16 1.983897 1_556
Li1 O5 2.073587 1_455
Li1 O10 2.211066 1_546
Li1 O25 2.399047 1_555
Li2 O23 1.983897 1_554
Li2 O10 2.073587 1_655
Li2 O5 2.211066 1_564
Li2 O14 2.399047 1_555
Li3 O10 2.009163 1_555
Li3 O13 2.015000 1_555
Li3 O14 2.041160 1_455
Ni0 O27 2.052083 1_465
Ni0 O22 2.066289 1_555
Ni0 O11 2.086069 1_565
Ni0 O8 2.114922 1_555
Ni0 O1 2.123064 1_555
Ni0 O3 2.272272 1_565
Ni1 O21 2.006987 1_555
Ni1 O20 2.018306 1_555
Ni1 O26 2.026696 1_455
Ni1 O4 2.072328 1_545
Ni1 O19 2.072453 1_555
Ni2 O2 2.024960 1_555
Ni2 O7 2.070123 1_455
Ni2 O25 2.083742 1_555
Ni2 O12 2.123741 1_455
Ni2 O6 2.128456 1_555
Ni2 O23 2.226946 1_455
Ni3 O17 2.024960 1_555
Ni3 O3 2.070123 1_655
Ni3 O14 2.083742 1_555
Ni3 O11 2.123741 1_655
Ni3 O13 2.128456 1_555
Ni3 O16 2.226946 1_655
Ni4 O4 2.052083 1_645
Ni4 O26 2.066289 1_555
Ni4 O12 2.086069 1_545
Ni4 O19 2.114922 1_555
Ni4 O20 2.123064 1_555
Ni4 O7 2.272272 1_545
Ni5 O18 2.006987 1_555
Ni5 O1 2.018306 1_555
Ni5 O22 2.026696 1_655
Ni5 O27 2.072328 1_565
Ni5 O8 2.072453 1_555
O0 P4 1.609348 1_545
O0 P6 1.623173 1_555
O1 P1 1.541237 1_555
O2 P3 1.500051 1_555
O3 P4 1.538766 1_445
O4 P1 1.544680 1_555
O5 P6 1.540566 1_556
O6 P7 1.533836 1_555
O7 P0 1.538766 1_665
O8 P4 1.529118 1_555
O9 P0 1.609348 1_565
O9 P7 1.623173 1_555
O10 P7 1.540566 1_554
O11 P2 1.544924 1_555
O12 P3 1.544924 1_555
O13 P6 1.533836 1_555
O14 P4 1.547107 1_555
O15 P2 1.603315 1_555
O15 P5 1.613896 1_555
O16 P6 1.531510 1_555
O17 P2 1.500051 1_555
O18 P5 1.510872 1_555
O19 P0 1.529118 1_555
O20 P5 1.541237 1_555
O21 P1 1.510872 1_555
O22 P2 1.546450 1_555
O23 P7 1.531510 1_555
O24 P3 1.603315 1_555
O24 P1 1.613896 1_555
O25 P0 1.547107 1_555
O26 P3 1.546450 1_555
O27 P5 1.544680 1_555
