# generated using pymatgen
data_TlGaTe2
_symmetry_space_group_name_H-M   'P 1'
_cell_length_a   6.87600787
_cell_length_b   6.98441243
_cell_length_c   6.98441284
_cell_angle_alpha   75.97768799
_cell_angle_beta   60.51210730
_cell_angle_gamma   60.51210733
_symmetry_Int_Tables_number   1
_chemical_formula_structural   TlGaTe2
_chemical_formula_sum   'Tl2 Ga2 Te4'
_cell_volume   254.15198984
_cell_formula_units_Z   2
loop_
 _symmetry_equiv_pos_site_id
 _symmetry_equiv_pos_as_xyz
  1  'x, y, z'
loop_
 _atom_site_type_symbol
 _atom_site_label
 _atom_site_symmetry_multiplicity
 _atom_site_fract_x
 _atom_site_fract_y
 _atom_site_fract_z
 _atom_site_occupancy
  Tl  Tl0  1  0.25000000  0.00000000  -0.00000000  1
  Tl  Tl1  1  0.75000000  0.00000000  -0.00000000  1
  Ga  Ga0  1  0.25000000  0.50000000  0.50000000  1
  Ga  Ga1  1  0.75000000  0.50000000  0.50000000  1
  Te  Te0  1  0.16642464  0.50000000  0.16715172  1
  Te  Te1  1  0.33357536  0.83284828  0.50000000  1
  Te  Te2  1  0.66642464  0.16715172  0.50000000  1
  Te  Te3  1  0.83357536  0.50000000  0.83284828  1
loop_
_geom_bond_atom_site_label_1
_geom_bond_atom_site_label_2
_geom_bond_distance
_geom_bond_site_symmetry_2
Tl0 Tl1 3.438004 1_455
Tl0 Tl1 3.438004 1_555
Ga0 Te1 2.655168 1_555
Ga0 Te0 2.655168 1_555
Ga0 Te2 2.655172 1_555
Ga0 Te3 2.655172 1_455
Ga1 Te2 2.655168 1_555
Ga1 Te3 2.655168 1_555
Ga1 Te1 2.655172 1_555
Ga1 Te0 2.655172 1_655
Te0 Tl1 3.637059 1_555
Te0 Tl0 3.637060 1_565
Te0 Tl1 3.637063 1_465
Te0 Tl0 3.637063 1_555
Te1 Tl1 3.637059 1_466
Te1 Tl0 3.637060 1_565
Te1 Tl1 3.637063 1_565
Te1 Tl0 3.637063 1_566
Te2 Tl0 3.637059 1_655
Te2 Tl1 3.637060 1_556
Te2 Tl0 3.637063 1_556
Te2 Tl1 3.637063 1_555
Te3 Tl0 3.637059 1_566
Te3 Tl1 3.637060 1_556
Te3 Tl0 3.637063 1_656
Te3 Tl1 3.637063 1_566
