# generated using pymatgen
data_Li4Ni7(PO4)6
_symmetry_space_group_name_H-M   'P 1'
_cell_length_a   8.68616593
_cell_length_b   8.68616593
_cell_length_c   6.50899516
_cell_angle_alpha   80.41945074
_cell_angle_beta   80.41945074
_cell_angle_gamma   107.44456221
_symmetry_Int_Tables_number   1
_chemical_formula_structural   Li4Ni7(PO4)6
_chemical_formula_sum   'Li4 Ni7 P6 O24'
_cell_volume   449.59729590
_cell_formula_units_Z   1
loop_
 _symmetry_equiv_pos_site_id
 _symmetry_equiv_pos_as_xyz
  1  'x, y, z'
loop_
 _atom_site_type_symbol
 _atom_site_label
 _atom_site_symmetry_multiplicity
 _atom_site_fract_x
 _atom_site_fract_y
 _atom_site_fract_z
 _atom_site_occupancy
  Li  Li0  1  0.67418300  0.45458800  0.51171600  1
  Li  Li1  1  0.99202900  0.99202900  0.50229400  1
  Li  Li2  1  0.45458800  0.67418300  0.51171600  1
  Li  Li3  1  0.35489100  0.35489100  0.41756000  1
  Ni  Ni0  1  0.36538800  0.00851400  0.18413300  1
  Ni  Ni1  1  0.64043400  0.00370500  0.81032000  1
  Ni  Ni2  1  0.00851400  0.36538800  0.18413300  1
  Ni  Ni3  1  0.00370500  0.64043400  0.81032000  1
  Ni  Ni4  1  0.00252700  0.00252700  0.00047500  1
  Ni  Ni5  1  0.68236700  0.32780300  0.99829800  1
  Ni  Ni6  1  0.32780300  0.68236700  0.99829800  1
  P  P0  1  0.33722000  0.33722000  0.91050100  1
  P  P1  1  0.09401600  0.72304900  0.30089800  1
  P  P2  1  0.28361800  0.92274700  0.69549100  1
  P  P3  1  0.92274700  0.28361800  0.69549100  1
  P  P4  1  0.67213300  0.67213300  0.07660800  1
  P  P5  1  0.72304900  0.09401600  0.30089800  1
  O  O0  1  0.20158600  0.20158600  0.86037300  1
  O  O1  1  0.73760600  0.28099600  0.29457000  1
  O  O2  1  0.28099600  0.73760600  0.29457000  1
  O  O3  1  0.45278300  0.45278300  0.70086700  1
  O  O4  1  0.57362200  0.75451600  0.93611900  1
  O  O5  1  0.10876400  0.91085700  0.23642300  1
  O  O6  1  0.43512900  0.25816300  0.05725200  1
  O  O7  1  0.89505100  0.09295400  0.76624000  1
  O  O8  1  0.64115200  0.96455300  0.51051200  1
  O  O9  1  0.05273900  0.35289500  0.48404500  1
  O  O10  1  0.73913700  0.28095300  0.69698700  1
  O  O11  1  0.75451600  0.57362200  0.93611900  1
  O  O12  1  0.96455300  0.64115200  0.51051200  1
  O  O13  1  0.91085700  0.10876400  0.23642300  1
  O  O14  1  0.05418600  0.62346600  0.12265700  1
  O  O15  1  0.96578600  0.38463900  0.87059700  1
  O  O16  1  0.62346600  0.05418600  0.12265700  1
  O  O17  1  0.25816300  0.43512900  0.05725200  1
  O  O18  1  0.80493400  0.80493400  0.13446300  1
  O  O19  1  0.38463900  0.96578600  0.87059700  1
  O  O20  1  0.55324500  0.55324500  0.28353700  1
  O  O21  1  0.09295400  0.89505100  0.76624000  1
  O  O22  1  0.28095300  0.73913700  0.69698700  1
  O  O23  1  0.35289500  0.05273900  0.48404500  1
loop_
_geom_bond_atom_site_label_1
_geom_bond_atom_site_label_2
_geom_bond_distance
_geom_bond_site_symmetry_2
Li0 O10 2.044155 1_555
Li0 O3 2.098046 1_555
Li0 O20 2.163140 1_555
Li0 O1 2.350122 1_555
Li0 O12 2.554655 1_555
Li1 O5 2.184216 1_655
Li1 O13 2.184216 1_565
Li1 O21 2.211802 1_655
Li1 O7 2.211802 1_565
Li2 O22 2.044155 1_555
Li2 O3 2.098046 1_555
Li2 O20 2.163140 1_555
Li2 O2 2.350122 1_555
Li2 O8 2.554655 1_555
Li3 O20 1.979291 1_555
Li3 O3 2.336004 1_555
Li3 O23 2.582238 1_555
Li3 O9 2.582238 1_555
Ni0 O23 2.043095 1_555
Ni0 O6 2.049663 1_555
Ni0 O5 2.078907 1_545
Ni0 O16 2.111427 1_555
Ni0 O19 2.122812 1_544
Ni0 O2 2.195157 1_545
Ni1 O8 2.035184 1_545
Ni1 O4 2.047203 1_545
Ni1 O7 2.064326 1_555
Ni1 O19 2.104090 1_545
Ni1 O16 2.140753 1_556
Ni1 O10 2.244767 1_555
Ni2 O9 2.043095 1_555
Ni2 O17 2.049663 1_555
Ni2 O13 2.078907 1_455
Ni2 O14 2.111427 1_555
Ni2 O15 2.122812 1_454
Ni2 O1 2.195157 1_455
Ni3 O12 2.035184 1_455
Ni3 O11 2.047203 1_455
Ni3 O21 2.064326 1_555
Ni3 O15 2.104090 1_455
Ni3 O14 2.140753 1_556
Ni3 O22 2.244767 1_555
Ni4 O18 1.972171 1_445
Ni4 O0 1.992158 1_554
Ni4 O7 2.080334 1_454
Ni4 O21 2.080334 1_544
Ni4 O5 2.085533 1_545
Ni4 O13 2.085533 1_455
Ni5 O11 1.985283 1_555
Ni5 O6 1.998670 1_556
Ni5 O1 2.068419 1_556
Ni5 O10 2.078283 1_555
Ni5 O16 2.249069 1_556
Ni5 O15 2.334262 1_555
Ni6 O4 1.985283 1_555
Ni6 O17 1.998670 1_556
Ni6 O2 2.068419 1_556
Ni6 O22 2.078283 1_555
Ni6 O14 2.249069 1_556
Ni6 O19 2.334262 1_555
O0 P0 1.518616 1_555
O1 P5 1.583788 1_555
O2 P1 1.583788 1_555
O3 P0 1.536594 1_555
O4 P4 1.578049 1_556
O5 P1 1.575657 1_555
O6 P0 1.584127 1_554
O7 P3 1.575790 1_555
O8 P5 1.522739 1_565
O9 P3 1.526730 1_455
O10 P3 1.586459 1_555
O11 P4 1.578049 1_556
O12 P1 1.522739 1_655
O13 P5 1.575657 1_555
O14 P1 1.581813 1_555
O15 P3 1.576979 1_555
O16 P5 1.581813 1_555
O17 P0 1.584127 1_554
O18 P4 1.514751 1_555
O19 P2 1.576979 1_555
O20 P4 1.543250 1_555
O21 P2 1.575790 1_555
O22 P2 1.586459 1_555
O23 P2 1.526730 1_545
