# generated using pymatgen
data_NaScSnBr6
_symmetry_space_group_name_H-M   'P 1'
_cell_length_a   7.64722732
_cell_length_b   7.64669271
_cell_length_c   7.64771097
_cell_angle_alpha   56.47363646
_cell_angle_beta   56.46902669
_cell_angle_gamma   56.47048679
_symmetry_Int_Tables_number   1
_chemical_formula_structural   NaScSnBr6
_chemical_formula_sum   'Na1 Sc1 Sn1 Br6'
_cell_volume   290.42666399
_cell_formula_units_Z   1
loop_
 _symmetry_equiv_pos_site_id
 _symmetry_equiv_pos_as_xyz
  1  'x, y, z'
loop_
 _atom_site_type_symbol
 _atom_site_label
 _atom_site_symmetry_multiplicity
 _atom_site_fract_x
 _atom_site_fract_y
 _atom_site_fract_z
 _atom_site_occupancy
  Na  Na0  1  0.66955816  0.66959188  0.66961211  1
  Sc  Sc0  1  0.99954208  0.99945972  0.99950808  1
  Sn  Sn0  1  0.33092575  0.33089437  0.33095792  1
  Br  Br0  1  0.22566408  0.62389031  0.90993586  1
  Br  Br1  1  0.62397582  0.90984423  0.22565499  1
  Br  Br2  1  0.90991215  0.22558028  0.62397685  1
  Br  Br3  1  0.77486302  0.37916256  0.08642783  1
  Br  Br4  1  0.37906155  0.08664658  0.77489655  1
  Br  Br5  1  0.08650040  0.77493007  0.37902980  1
loop_
_geom_bond_atom_site_label_1
_geom_bond_atom_site_label_2
_geom_bond_distance
_geom_bond_site_symmetry_2
Br0 Sc0 2.661833 1_455
Br0 Na0 2.954914 1_555
Br0 Sn0 2.989533 1_556
Br1 Sc0 2.662101 1_554
Br1 Na0 2.955359 1_555
Br1 Sn0 2.989346 1_565
Br2 Sc0 2.662264 1_545
Br2 Na0 2.955304 1_555
Br2 Sn0 2.989320 1_655
Br3 Sc0 2.680150 1_544
Br3 Sn0 2.960843 1_555
Br3 Na0 2.963457 1_554
Br4 Sc0 2.680134 1_445
Br4 Sn0 2.960947 1_555
Br4 Na0 2.964372 1_545
Br5 Sc0 2.679671 1_454
Br5 Sn0 2.960771 1_555
Br5 Na0 2.964025 1_455
