# generated using pymatgen
data_Mg2H2O3
_symmetry_space_group_name_H-M   'P 1'
_cell_length_a   3.09962835
_cell_length_b   3.09962835
_cell_length_c   7.53697200
_cell_angle_alpha   90.00000000
_cell_angle_beta   90.00000000
_cell_angle_gamma   120.00000757
_symmetry_Int_Tables_number   1
_chemical_formula_structural   Mg2H2O3
_chemical_formula_sum   'Mg2 H2 O3'
_cell_volume   62.71143672
_cell_formula_units_Z   1
loop_
 _symmetry_equiv_pos_site_id
 _symmetry_equiv_pos_as_xyz
  1  'x, y, z'
loop_
 _atom_site_type_symbol
 _atom_site_label
 _atom_site_symmetry_multiplicity
 _atom_site_fract_x
 _atom_site_fract_y
 _atom_site_fract_z
 _atom_site_occupancy
  Mg  Mg0  1  0.33333300  0.66666700  0.16292200  1
  Mg  Mg1  1  0.66666700  0.33333300  0.83707800  1
  H  H0  1  0.33333300  0.66666700  0.56876500  1
  H  H1  1  0.66666700  0.33333300  0.43123500  1
  O  O0  1  0.33333300  0.66666700  0.69726300  1
  O  O1  1  0.66666700  0.33333300  0.30273700  1
  O  O2  1  0.00000000  0.00000000  0.00000000  1
loop_
_geom_bond_atom_site_label_1
_geom_bond_atom_site_label_2
_geom_bond_distance
_geom_bond_site_symmetry_2
Mg0 O1 2.076780 1_455
Mg0 O1 2.076780 1_565
Mg0 O1 2.076785 1_555
Mg0 O2 2.170344 1_565
Mg0 O2 2.170346 1_555
Mg0 O2 2.170346 1_665
Mg1 O0 2.076780 1_655
Mg1 O0 2.076780 1_545
Mg1 O0 2.076785 1_555
Mg1 O2 2.170344 1_656
Mg1 O2 2.170346 1_666
Mg1 O2 2.170346 1_556
H0 O0 0.968486 1_555
H1 O1 0.968486 1_555
