# generated using pymatgen
data_K2Ge(AuSe2)2
_symmetry_space_group_name_H-M   'P 1'
_cell_length_a   13.49502947
_cell_length_b   12.03786393
_cell_length_c   7.60436031
_cell_angle_alpha   83.53296616
_cell_angle_beta   62.41762188
_cell_angle_gamma   34.04942606
_symmetry_Int_Tables_number   1
_chemical_formula_structural   K2Ge(AuSe2)2
_chemical_formula_sum   'K4 Ge2 Au4 Se8'
_cell_volume   513.58031728
_cell_formula_units_Z   2
loop_
 _symmetry_equiv_pos_site_id
 _symmetry_equiv_pos_as_xyz
  1  'x, y, z'
loop_
 _atom_site_type_symbol
 _atom_site_label
 _atom_site_symmetry_multiplicity
 _atom_site_fract_x
 _atom_site_fract_y
 _atom_site_fract_z
 _atom_site_occupancy
  K  K0  1  0.31712372  0.31712372  0.68287628  1
  K  K1  1  0.68287628  0.68287628  0.31712372  1
  K  K2  1  0.93287628  0.93287628  0.56712372  1
  K  K3  1  0.56712372  0.56712372  0.93287628  1
  Ge  Ge0  1  0.50000000  0.50000000  0.50000000  1
  Ge  Ge1  1  0.75000000  0.75000000  0.75000000  1
  Au  Au0  1  0.93312413  0.93312413  0.06687587  1
  Au  Au1  1  0.06687587  0.06687587  0.93312413  1
  Au  Au2  1  0.31687587  0.31687587  0.18312413  1
  Au  Au3  1  0.18312413  0.18312413  0.31687587  1
  Se  Se0  1  0.53123437  0.34820547  0.25704621  1
  Se  Se1  1  0.86351495  0.25704621  0.34820547  1
  Se  Se2  1  0.25704621  0.86351495  0.53123437  1
  Se  Se3  1  0.34820547  0.53123437  0.86351495  1
  Se  Se4  1  0.71876563  0.90179453  0.99295379  1
  Se  Se5  1  0.38648505  0.99295379  0.90179453  1
  Se  Se6  1  0.99295379  0.38648505  0.71876563  1
  Se  Se7  1  0.90179453  0.71876563  0.38648505  1
loop_
_geom_bond_atom_site_label_1
_geom_bond_atom_site_label_2
_geom_bond_distance
_geom_bond_site_symmetry_2
K0 Se0 3.439270 1_555
K0 Se3 3.439274 1_555
K0 Se7 3.496891 1_545
K0 Se4 3.496892 1_455
K0 Se5 3.578024 1_545
K0 Se6 3.578028 1_455
K1 Se2 3.439262 1_555
K1 Se1 3.439263 1_555
K1 Se5 3.496887 1_555
K1 Se6 3.496894 1_554
K1 Se7 3.578014 1_555
K1 Se4 3.578019 1_554
K2 Se4 3.439270 1_555
K2 Se7 3.439274 1_555
K2 Se3 3.496891 1_565
K2 Se0 3.496892 1_655
K2 Se1 3.578024 1_565
K2 Se2 3.578028 1_655
K3 Se6 3.439262 1_555
K3 Se5 3.439263 1_555
K3 Se1 3.496887 1_555
K3 Se2 3.496894 1_556
K3 Se3 3.578014 1_555
K3 Se0 3.578019 1_556
Ge0 Se0 2.385980 1_555
Ge0 Se3 2.385987 1_555
Ge0 Se2 2.385989 1_555
Ge0 Se1 2.385992 1_555
Ge1 Se4 2.385980 1_555
Ge1 Se7 2.385987 1_555
Ge1 Se6 2.385989 1_555
Ge1 Se5 2.385992 1_555
Au0 Se0 2.435223 1_565
Au0 Se3 2.435225 1_654
Au0 Au1 3.103500 1_664
Au0 K2 3.802185 1_554
Au0 K2 3.802185 1_555
Au1 Se2 2.435219 1_545
Au1 Se1 2.435226 1_456
Au1 K3 3.802185 1_455
Au1 K3 3.802185 1_545
Au2 Se4 2.435223 1_544
Au2 Se7 2.435225 1_455
Au2 Au3 3.103500 1_555
Au2 K0 3.802185 1_555
Au2 K0 3.802185 1_554
Au3 Se6 2.435219 1_455
Au3 Se5 2.435226 1_544
Au3 K1 3.802185 1_545
Au3 K1 3.802185 1_455
