# generated using pymatgen
data_Cs6Sb2Se3S5
_symmetry_space_group_name_H-M   'P 1'
_cell_length_a   10.14785902
_cell_length_b   10.24663171
_cell_length_c   11.89226768
_cell_angle_alpha   89.91247709
_cell_angle_beta   90.00000000
_cell_angle_gamma   90.00000000
_symmetry_Int_Tables_number   1
_chemical_formula_structural   Cs6Sb2Se3S5
_chemical_formula_sum   'Cs12 Sb4 Se6 S10'
_cell_volume   1236.57289042
_cell_formula_units_Z   2
loop_
 _symmetry_equiv_pos_site_id
 _symmetry_equiv_pos_as_xyz
  1  'x, y, z'
loop_
 _atom_site_type_symbol
 _atom_site_label
 _atom_site_symmetry_multiplicity
 _atom_site_fract_x
 _atom_site_fract_y
 _atom_site_fract_z
 _atom_site_occupancy
  Cs  Cs0  1  0.84326608  0.91072768  0.74842775  1
  Cs  Cs1  1  0.34326608  0.58927232  0.75157225  1
  Cs  Cs2  1  0.15359089  0.08766699  0.24550421  1
  Cs  Cs3  1  0.65359089  0.41233301  0.25449579  1
  Cs  Cs4  1  0.05402257  0.30646025  0.54407279  1
  Cs  Cs5  1  0.55402257  0.19353975  0.95592721  1
  Cs  Cs6  1  0.95140634  0.70010637  0.04597617  1
  Cs  Cs7  1  0.45140634  0.79989363  0.45402383  1
  Cs  Cs8  1  0.95291402  0.69874797  0.45477122  1
  Cs  Cs9  1  0.45291402  0.80125203  0.04522878  1
  Cs  Cs10  1  0.04211524  0.29852475  0.95790711  1
  Cs  Cs11  1  0.54211524  0.20147525  0.54209289  1
  Sb  Sb0  1  0.77613495  0.47610703  0.74965945  1
  Sb  Sb1  1  0.27613495  0.02389297  0.75034055  1
  Sb  Sb2  1  0.22599794  0.52178440  0.25178209  1
  Sb  Sb3  1  0.72599794  0.97821560  0.24821791  1
  Se  Se0  1  0.84481234  0.04371994  0.42130031  1
  Se  Se1  1  0.34481234  0.45628006  0.07869969  1
  Se  Se2  1  0.15513625  0.95772100  0.92225941  1
  Se  Se3  1  0.65513625  0.54227900  0.57774059  1
  Se  Se4  1  0.15620765  0.96383767  0.57623280  1
  Se  Se5  1  0.65620765  0.53616233  0.92376720  1
  S  S0  1  0.80199915  0.24864194  0.74568790  1
  S  S1  1  0.30199915  0.25135806  0.75431210  1
  S  S2  1  0.20050258  0.74970445  0.25024591  1
  S  S3  1  0.70050258  0.75029555  0.24975409  1
  S  S4  1  0.98555629  0.57546585  0.75050165  1
  S  S5  1  0.48555629  0.92453415  0.74949835  1
  S  S6  1  0.01559528  0.42429995  0.25247701  1
  S  S7  1  0.51559528  0.07570005  0.24752299  1
  S  S8  1  0.84074143  0.03655920  0.08483408  1
  S  S9  1  0.34074143  0.46344080  0.41516592  1
loop_
_geom_bond_atom_site_label_1
_geom_bond_atom_site_label_2
_geom_bond_distance
_geom_bond_site_symmetry_2
Cs0 S0 3.487818 1_565
Cs0 S5 3.632767 1_555
Cs0 S4 3.726477 1_555
Cs0 Se2 3.811101 1_655
Cs0 Se4 3.817220 1_655
Cs0 Se0 4.120121 1_565
Cs1 S1 3.487818 1_555
Cs1 S4 3.632767 1_455
Cs1 S5 3.726477 1_555
Cs1 Se3 3.811101 1_555
Cs1 Se5 3.817220 1_555
Cs1 Se1 4.120121 1_556
Cs2 S2 3.495915 1_545
Cs2 S7 3.675693 1_555
Cs2 S6 3.723815 1_555
Cs2 S8 3.742626 1_455
Cs2 Se0 3.793287 1_455
Cs2 Se2 4.070136 1_544
Cs2 Se4 4.130953 1_545
Cs3 S3 3.495915 1_555
Cs3 S6 3.675693 1_655
Cs3 S7 3.723815 1_555
Cs3 S9 3.742626 1_555
Cs3 Se1 3.793287 1_555
Cs3 Se3 4.070136 1_555
Cs3 Se5 4.130953 1_554
Cs4 S0 3.554747 1_455
Cs4 S1 3.591380 1_555
Cs4 S9 3.659994 1_555
Cs4 Se4 3.680036 1_545
Cs4 S6 3.690856 1_555
Cs4 Se0 3.728133 1_455
Cs4 S4 3.758686 1_455
Cs5 S1 3.554747 1_555
Cs5 S0 3.591380 1_555
Cs5 S8 3.659994 1_556
Cs5 Se5 3.680036 1_555
Cs5 S7 3.690856 1_556
Cs5 Se1 3.728133 1_556
Cs5 S5 3.758686 1_545
Cs6 S2 3.543015 1_655
Cs6 S3 3.553008 1_555
Cs6 S8 3.655801 1_565
Cs6 Se2 3.659909 1_654
Cs6 Se5 3.730344 1_554
Cs6 S4 3.756612 1_554
Cs6 S6 3.797451 1_655
Cs7 S3 3.543015 1_555
Cs7 S2 3.553008 1_555
Cs7 S9 3.655801 1_555
Cs7 Se3 3.659909 1_555
Cs7 Se4 3.730344 1_555
Cs7 S5 3.756612 1_555
Cs7 S7 3.797451 1_565
Cs8 S2 3.535153 1_655
Cs8 S3 3.574972 1_555
Cs8 Se4 3.705744 1_655
Cs8 Se3 3.719305 1_555
Cs8 Se0 3.721877 1_565
Cs8 S4 3.749736 1_555
Cs8 S6 3.757809 1_655
Cs9 S3 3.535153 1_555
Cs9 S2 3.574972 1_555
Cs9 Se5 3.705744 1_554
Cs9 Se2 3.719305 1_554
Cs9 Se1 3.721877 1_555
Cs9 S5 3.749736 1_554
Cs9 S7 3.757809 1_565
Cs10 S0 3.545692 1_455
Cs10 S1 3.613110 1_555
Cs10 S8 3.694223 1_456
Cs10 Se2 3.700590 1_545
Cs10 S6 3.744181 1_556
Cs10 Se1 3.757536 1_556
Cs10 S4 3.800577 1_455
Cs11 S1 3.545692 1_555
Cs11 S0 3.613110 1_555
Cs11 S9 3.694223 1_555
Cs11 Se3 3.700590 1_555
Cs11 S7 3.744181 1_555
Cs11 Se0 3.757536 1_555
Cs11 S5 3.800577 1_545
Sb0 Se3 2.478545 1_555
Sb0 Se5 2.480078 1_555
Sb1 Se2 2.478545 1_545
Sb1 Se4 2.480078 1_545
Sb2 Se1 2.478960 1_555
Sb3 Se0 2.478960 1_565
S0 Sb0 2.346030 1_555
S1 Sb1 2.346030 1_555
S2 Sb2 2.349743 1_555
S3 Sb3 2.349743 1_555
S4 Sb0 2.356486 1_555
S5 Sb1 2.356486 1_565
S6 Sb2 2.357250 1_555
S7 Sb3 2.357250 1_545
S8 Sb3 2.341995 1_545
S9 Sb2 2.341995 1_555
