# generated using pymatgen
data_DyZn5
_symmetry_space_group_name_H-M   'P 1'
_cell_length_a   5.22874840
_cell_length_b   5.22874809
_cell_length_c   4.17600377
_cell_angle_alpha   90.00000000
_cell_angle_beta   90.00000000
_cell_angle_gamma   119.99999561
_symmetry_Int_Tables_number   1
_chemical_formula_structural   DyZn5
_chemical_formula_sum   'Dy1 Zn5'
_cell_volume   98.87511394
_cell_formula_units_Z   1
loop_
 _symmetry_equiv_pos_site_id
 _symmetry_equiv_pos_as_xyz
  1  'x, y, z'
loop_
 _atom_site_type_symbol
 _atom_site_label
 _atom_site_symmetry_multiplicity
 _atom_site_fract_x
 _atom_site_fract_y
 _atom_site_fract_z
 _atom_site_occupancy
  Dy  Dy0  1  -0.00000000  0.00000000  -0.00000000  1
  Zn  Zn0  1  -0.00000000  0.50000000  0.50000000  1
  Zn  Zn1  1  0.33333300  0.66666700  -0.00000000  1
  Zn  Zn2  1  0.66666700  0.33333300  0.00000000  1
  Zn  Zn3  1  0.50000000  0.00000000  0.50000000  1
  Zn  Zn4  1  0.50000000  0.50000000  0.50000000  1
loop_
_geom_bond_atom_site_label_1
_geom_bond_atom_site_label_2
_geom_bond_distance
_geom_bond_site_symmetry_2
Dy0 Zn1 3.018816 1_545
Dy0 Zn2 3.018816 1_455
Dy0 Zn2 3.018821 1_445
Dy0 Zn1 3.018821 1_555
Dy0 Zn2 3.018821 1_555
Dy0 Zn1 3.018821 1_445
Dy0 Zn0 3.345849 1_554
Dy0 Zn0 3.345849 1_544
Dy0 Zn0 3.345849 1_555
Dy0 Zn0 3.345849 1_545
Dy0 Zn3 3.345849 1_554
Dy0 Zn3 3.345849 1_555
Dy0 Zn3 3.345849 1_455
Dy0 Zn3 3.345849 1_454
Dy0 Zn4 3.345849 1_554
Dy0 Zn4 3.345849 1_444
Dy0 Zn4 3.345849 1_445
Dy0 Zn4 3.345849 1_555
Zn0 Zn1 2.576444 1_555
Zn0 Zn1 2.576444 1_556
Zn0 Zn2 2.576444 1_455
Zn0 Zn2 2.576444 1_456
Zn0 Zn4 2.614374 1_455
Zn0 Zn4 2.614374 1_555
Zn0 Zn3 2.614374 1_455
Zn0 Zn3 2.614374 1_565
Zn1 Zn3 2.576444 1_564
Zn1 Zn3 2.576444 1_565
Zn1 Zn4 2.576447 1_554
Zn1 Zn4 2.576447 1_555
Zn2 Zn3 2.576444 1_554
Zn2 Zn3 2.576444 1_555
Zn2 Zn4 2.576447 1_554
Zn2 Zn4 2.576447 1_555
Zn3 Zn4 2.614374 1_545
Zn3 Zn4 2.614374 1_555
