# generated using pymatgen
data_GaICl6
_symmetry_space_group_name_H-M   'P 1'
_cell_length_a   11.22751615
_cell_length_b   6.17943678
_cell_length_c   7.16066273
_cell_angle_alpha   81.33657560
_cell_angle_beta   90.00000000
_cell_angle_gamma   90.00000000
_symmetry_Int_Tables_number   1
_chemical_formula_structural   GaICl6
_chemical_formula_sum   'Ga2 I2 Cl12'
_cell_volume   491.13639810
_cell_formula_units_Z   2
loop_
 _symmetry_equiv_pos_site_id
 _symmetry_equiv_pos_as_xyz
  1  'x, y, z'
loop_
 _atom_site_type_symbol
 _atom_site_label
 _atom_site_symmetry_multiplicity
 _atom_site_fract_x
 _atom_site_fract_y
 _atom_site_fract_z
 _atom_site_occupancy
  Ga  Ga0  1  0.08972510  0.41277222  0.51328305  1
  Ga  Ga1  1  0.58972510  0.58722778  0.48671695  1
  I  I0  1  0.74600709  0.00466107  0.80236157  1
  I  I1  1  0.24600709  0.99533893  0.19763843  1
  Cl  Cl0  1  0.77426831  0.69632956  0.54941283  1
  Cl  Cl1  1  0.27426831  0.30367044  0.45058717  1
  Cl  Cl2  1  0.20713669  0.72395619  0.01020248  1
  Cl  Cl3  1  0.70713669  0.27604381  0.98979752  1
  Cl  Cl4  1  0.36902725  0.20816653  0.97953203  1
  Cl  Cl5  1  0.86902725  0.79183347  0.02046797  1
  Cl  Cl6  1  0.04719640  0.29442094  0.80310837  1
  Cl  Cl7  1  0.54719640  0.70557906  0.19689163  1
  Cl  Cl8  1  0.09962041  0.77761750  0.49151543  1
  Cl  Cl9  1  0.59962041  0.22238250  0.50848457  1
  Cl  Cl10  1  0.46802176  0.67779102  0.69256558  1
  Cl  Cl11  1  0.96802176  0.32220898  0.30743442  1
loop_
_geom_bond_atom_site_label_1
_geom_bond_atom_site_label_2
_geom_bond_distance
_geom_bond_site_symmetry_2
Cl0 Ga1 2.245059 1_555
Cl0 I0 2.837483 1_565
Cl1 Ga0 2.245059 1_555
Cl1 I1 2.837483 1_545
Cl2 I1 2.341420 1_555
Cl3 I0 2.341420 1_555
Cl4 I1 2.336187 1_546
Cl5 I0 2.336187 1_564
Cl6 Ga0 2.147709 1_555
Cl7 Ga1 2.147709 1_555
Cl8 Ga0 2.239133 1_555
Cl8 I1 2.843723 1_555
Cl9 Ga1 2.239133 1_555
Cl9 I0 2.843723 1_555
Cl10 Ga1 2.145117 1_555
Cl11 Ga0 2.145117 1_655
