# generated using pymatgen
data_Zr6BeSN2
_symmetry_space_group_name_H-M   'P 1'
_cell_length_a   5.89080146
_cell_length_b   5.89080345
_cell_length_c   8.46561096
_cell_angle_alpha   90.00000000
_cell_angle_beta   90.00000000
_cell_angle_gamma   146.82808803
_symmetry_Int_Tables_number   1
_chemical_formula_structural   Zr6BeSN2
_chemical_formula_sum   'Zr6 Be1 S1 N2'
_cell_volume   160.73704169
_cell_formula_units_Z   1
loop_
 _symmetry_equiv_pos_site_id
 _symmetry_equiv_pos_as_xyz
  1  'x, y, z'
loop_
 _atom_site_type_symbol
 _atom_site_label
 _atom_site_symmetry_multiplicity
 _atom_site_fract_x
 _atom_site_fract_y
 _atom_site_fract_z
 _atom_site_occupancy
  Zr  Zr0  1  0.93685968  0.06314032  0.75000000  1
  Zr  Zr1  1  0.06859805  0.93140195  0.25000000  1
  Zr  Zr2  1  0.62863634  0.37136366  0.55892480  1
  Zr  Zr3  1  0.36783560  0.63216440  0.43861770  1
  Zr  Zr4  1  0.36783560  0.63216440  0.06138230  1
  Zr  Zr5  1  0.62863634  0.37136366  0.94107520  1
  Be  Be0  1  0.25798828  0.74201172  0.75000000  1
  S  S0  1  0.74541221  0.25458779  0.25000000  1
  N  N0  1  0.99909845  0.00090155  0.49756980  1
  N  N1  1  0.99909845  0.00090155  0.00243020  1
loop_
_geom_bond_atom_site_label_1
_geom_bond_atom_site_label_2
_geom_bond_distance
_geom_bond_site_symmetry_2
Be0 Zr0 2.628085 1_565
Be0 Zr0 2.628087 1_455
Be0 Zr5 2.752705 1_455
Be0 Zr2 2.752705 1_455
Be0 Zr5 2.752706 1_565
Be0 Zr2 2.752706 1_565
Be0 Zr4 2.913269 1_556
Be0 Zr3 2.913269 1_555
S0 Zr1 2.610275 1_545
S0 Zr1 2.610277 1_655
S0 Zr3 2.699649 1_655
S0 Zr4 2.699649 1_655
S0 Zr3 2.699650 1_545
S0 Zr4 2.699650 1_545
S0 Zr2 2.928835 1_555
S0 Zr5 2.928835 1_554
N0 Zr1 2.237930 1_645
N0 Zr0 2.249565 1_555
N0 Zr2 2.288401 1_655
N0 Zr2 2.288402 1_545
N0 Zr3 2.296392 1_545
N0 Zr3 2.296394 1_655
N1 Zr1 2.237930 1_645
N1 Zr0 2.249565 1_554
N1 Zr5 2.288401 1_654
N1 Zr5 2.288402 1_544
N1 Zr4 2.296392 1_545
N1 Zr4 2.296394 1_655
