# generated using pymatgen
data_Ti6BeSi6Tc5
_symmetry_space_group_name_H-M   'P 1'
_cell_length_a   7.46566991
_cell_length_b   7.45275834
_cell_length_c   7.46630912
_cell_angle_alpha   126.34273835
_cell_angle_beta   128.79246512
_cell_angle_gamma   77.38178832
_symmetry_Int_Tables_number   1
_chemical_formula_structural   Ti6BeSi6Tc5
_chemical_formula_sum   'Ti6 Be1 Si6 Tc5'
_cell_volume   252.96386723
_cell_formula_units_Z   1
loop_
 _symmetry_equiv_pos_site_id
 _symmetry_equiv_pos_as_xyz
  1  'x, y, z'
loop_
 _atom_site_type_symbol
 _atom_site_label
 _atom_site_symmetry_multiplicity
 _atom_site_fract_x
 _atom_site_fract_y
 _atom_site_fract_z
 _atom_site_occupancy
  Ti  Ti0  1  0.25104013  0.89749388  0.14835371  1
  Ti  Ti1  1  0.95139069  0.49708412  0.04731573  1
  Ti  Ti2  1  0.04751052  0.09505852  0.54412087  1
  Ti  Ti3  1  0.44958009  0.49682201  0.54552819  1
  Ti  Ti4  1  0.74909147  0.89754845  0.64618252  1
  Ti  Ti5  1  0.55094314  0.09539660  0.04769668  1
  Be  Be0  1  0.13087216  0.75790781  0.62825080  1
  Si  Si0  1  0.75633406  0.50182715  0.25311562  1
  Si  Si1  1  0.16609311  0.16240804  0.99622336  1
  Si  Si2  1  0.66607543  0.16206897  0.49595363  1
  Si  Si3  1  0.33356826  0.82956796  0.49615409  1
  Si  Si4  1  0.24852100  0.50126166  0.74534290  1
  Si  Si5  1  0.83211935  0.82931615  0.99666348  1
  Tc  Tc0  1  0.49953877  0.23576467  0.73658859  1
  Tc  Tc1  1  0.00028213  0.23657512  0.23641671  1
  Tc  Tc2  1  0.86962135  0.49719411  0.62732083  1
  Tc  Tc3  1  0.62842831  0.75491604  0.12585698  1
  Tc  Tc4  1  0.36898903  0.49399773  0.12512430  1
loop_
_geom_bond_atom_site_label_1
_geom_bond_atom_site_label_2
_geom_bond_distance
_geom_bond_site_symmetry_2
Be0 Si4 2.340950 1_555
Be0 Si0 2.342787 1_455
Be0 Si1 2.515945 1_565
Be0 Si3 2.528918 1_555
Be0 Ti5 2.788057 1_566
Be0 Ti2 2.791627 1_565
Be0 Ti0 2.867269 1_556
Be0 Ti3 2.867617 1_555
Be0 Ti4 2.870877 1_455
Be0 Ti1 2.872273 1_455
Si0 Tc3 2.360674 1_555
Si0 Tc1 2.379034 1_655
Si0 Tc2 2.379766 1_555
Si0 Tc0 2.411108 1_554
Si0 Tc4 2.413313 1_555
Si0 Ti4 2.680361 1_555
Si0 Ti1 2.683230 1_555
Si0 Ti5 2.730361 1_555
Si1 Tc4 2.513516 1_556
Si1 Tc1 2.522268 1_556
Si1 Ti4 2.606603 1_445
Si1 Ti0 2.607428 1_546
Si1 Ti3 2.612435 1_556
Si1 Ti1 2.613004 1_456
Si1 Ti5 2.620912 1_556
Si1 Ti2 2.621359 1_555
Si2 Tc3 2.526608 1_545
Si2 Tc2 2.529120 1_555
Si2 Tc0 2.531102 1_555
Si2 Ti4 2.597042 1_545
Si2 Ti0 2.598529 1_545
Si2 Ti2 2.606966 1_655
Si2 Ti5 2.607288 1_555
Si2 Ti3 2.620483 1_555
Si2 Ti1 2.621454 1_556
Si3 Tc0 2.516555 1_565
Si3 Tc4 2.533029 1_555
Si3 Ti1 2.603350 1_455
Si3 Ti3 2.604011 1_555
Si3 Ti4 2.606684 1_555
Si3 Ti0 2.606961 1_555
Si3 Ti2 2.622285 1_565
Si3 Ti5 2.622585 1_566
Si4 Tc3 2.360080 1_556
Si4 Tc1 2.377794 1_555
Si4 Tc2 2.379429 1_455
Si4 Tc0 2.410707 1_555
Si4 Tc4 2.411940 1_556
Si4 Ti0 2.682653 1_556
Si4 Ti3 2.684334 1_555
Si4 Ti2 2.728212 1_555
Si5 Tc2 2.526696 1_555
Si5 Tc3 2.527984 1_556
Si5 Tc1 2.530270 1_666
Si5 Ti5 2.602316 1_566
Si5 Ti2 2.603193 1_666
Si5 Ti3 2.605399 1_555
Si5 Ti1 2.606018 1_556
Si5 Ti0 2.626068 1_656
Si5 Ti4 2.626306 1_555
Tc0 Ti4 2.790646 1_545
Tc0 Ti0 2.792393 1_545
Tc0 Ti5 2.867911 1_556
Tc0 Ti2 2.870000 1_555
Tc0 Ti1 2.874705 1_556
Tc0 Ti3 2.874928 1_555
Tc1 Ti0 2.798067 1_545
Tc1 Ti4 2.799869 1_444
Tc1 Ti3 2.859484 1_555
Tc1 Ti1 2.861766 1_455
Tc1 Ti5 2.864992 1_455
Tc1 Ti2 2.865172 1_555
Tc2 Ti3 2.794455 1_555
Tc2 Ti1 2.794672 1_556
Tc2 Ti5 2.864961 1_555
Tc2 Ti0 2.866778 1_656
Tc2 Ti2 2.867036 1_655
Tc2 Ti4 2.867051 1_555
Tc3 Ti5 2.793738 1_565
Tc3 Ti2 2.794153 1_665
Tc3 Ti0 2.858110 1_555
Tc3 Ti4 2.858794 1_555
Tc3 Ti3 2.872572 1_554
Tc3 Ti1 2.874312 1_555
Tc4 Ti1 2.787987 1_455
Tc4 Ti3 2.788510 1_555
Tc4 Ti5 2.861789 1_555
Tc4 Ti2 2.864208 1_554
Tc4 Ti4 2.874237 1_555
Tc4 Ti0 2.874849 1_555
