# generated using pymatgen
data_LuZnInNi3
_symmetry_space_group_name_H-M   'P 1'
_cell_length_a   4.91029419
_cell_length_b   4.91029460
_cell_length_c   4.91029334
_cell_angle_alpha   61.60059105
_cell_angle_beta   61.60059013
_cell_angle_gamma   61.60058379
_symmetry_Int_Tables_number   1
_chemical_formula_structural   LuZnInNi3
_chemical_formula_sum   'Lu1 Zn1 In1 Ni3'
_cell_volume   86.72152083
_cell_formula_units_Z   1
loop_
 _symmetry_equiv_pos_site_id
 _symmetry_equiv_pos_as_xyz
  1  'x, y, z'
loop_
 _atom_site_type_symbol
 _atom_site_label
 _atom_site_symmetry_multiplicity
 _atom_site_fract_x
 _atom_site_fract_y
 _atom_site_fract_z
 _atom_site_occupancy
  Lu  Lu0  1  0.24704323  0.24704323  0.24704323  1
  Zn  Zn0  1  0.62636862  0.62636862  0.62636862  1
  In  In0  1  0.99840739  0.99840739  0.99840739  1
  Ni  Ni0  1  0.62648176  0.62648176  0.12521725  1
  Ni  Ni1  1  0.62648176  0.12521725  0.62648176  1
  Ni  Ni2  1  0.12521725  0.62648176  0.62648176  1
loop_
_geom_bond_atom_site_label_1
_geom_bond_atom_site_label_2
_geom_bond_distance
_geom_bond_site_symmetry_2
Lu0 Ni1 2.896127 1_554
Lu0 Ni2 2.896127 1_554
Lu0 Ni0 2.896128 1_455
Lu0 Ni0 2.896128 1_545
Lu0 Ni1 2.896128 1_455
Lu0 Ni2 2.896128 1_545
Lu0 Ni1 2.912424 1_555
Lu0 Ni2 2.912424 1_555
Lu0 Ni0 2.912424 1_555
Lu0 Zn0 2.954235 1_455
Lu0 Zn0 2.954235 1_545
Lu0 Zn0 2.954235 1_554
In0 Ni1 2.840312 1_565
In0 Ni2 2.840312 1_655
In0 Ni0 2.840312 1_556
In0 Ni1 2.936258 1_566
In0 Ni2 2.936258 1_656
In0 Ni0 2.936259 1_656
In0 Ni0 2.936259 1_566
In0 Ni1 2.936259 1_665
In0 Ni2 2.936259 1_665
In0 Zn0 2.939455 1_655
In0 Zn0 2.939455 1_565
In0 Zn0 2.939456 1_556
In0 Lu0 2.953834 1_666
In0 Lu0 3.072692 1_665
In0 Lu0 3.072692 1_566
In0 Lu0 3.072692 1_656
Ni0 Zn0 2.450022 1_554
Ni0 Zn0 2.460272 1_555
Ni0 Ni2 2.507944 1_654
Ni0 Ni1 2.507944 1_564
Ni0 Ni2 2.520661 1_555
Ni0 Ni1 2.520661 1_555
Ni1 Zn0 2.450022 1_545
Ni1 Zn0 2.460273 1_555
Ni1 Ni2 2.507944 1_645
Ni1 Ni2 2.520661 1_555
Ni2 Zn0 2.450022 1_455
Ni2 Zn0 2.460272 1_555
