# generated using pymatgen
data_RbScCr2O8
_symmetry_space_group_name_H-M   'P 1'
_cell_length_a   5.57477388
_cell_length_b   5.57477378
_cell_length_c   7.61235788
_cell_angle_alpha   90.00000000
_cell_angle_beta   90.00000000
_cell_angle_gamma   120.00000059
_symmetry_Int_Tables_number   1
_chemical_formula_structural   RbScCr2O8
_chemical_formula_sum   'Rb1 Sc1 Cr2 O8'
_cell_volume   204.88224859
_cell_formula_units_Z   1
loop_
 _symmetry_equiv_pos_site_id
 _symmetry_equiv_pos_as_xyz
  1  'x, y, z'
loop_
 _atom_site_type_symbol
 _atom_site_label
 _atom_site_symmetry_multiplicity
 _atom_site_fract_x
 _atom_site_fract_y
 _atom_site_fract_z
 _atom_site_occupancy
  Rb  Rb0  1  0.00000000  0.00000000  0.50000000  1
  Sc  Sc0  1  0.00000000  0.00000000  0.00000000  1
  Cr  Cr0  1  0.66666700  0.33333400  0.23815828  1
  Cr  Cr1  1  0.33333300  0.66666600  0.76184172  1
  O  O0  1  0.34204825  0.17102462  0.16758919  1
  O  O1  1  0.82897638  0.17102462  0.16758919  1
  O  O2  1  0.82897538  0.65795075  0.16758919  1
  O  O3  1  0.66666700  0.33333400  0.44922489  1
  O  O4  1  0.33333300  0.66666600  0.55077511  1
  O  O5  1  0.17102462  0.34204925  0.83240981  1
  O  O6  1  0.17102362  0.82897438  0.83240981  1
  O  O7  1  0.65795175  0.82897438  0.83240981  1
loop_
_geom_bond_atom_site_label_1
_geom_bond_atom_site_label_2
_geom_bond_distance
_geom_bond_site_symmetry_2
Cr0 O3 1.606715 1_555
Cr0 O2 1.656728 1_555
Cr0 O1 1.656737 1_555
Cr0 O0 1.656737 1_555
Cr1 O4 1.606715 1_555
Cr1 O5 1.656725 1_555
Cr1 O6 1.656730 1_555
Cr1 O7 1.656734 1_555
O0 Sc0 2.086760 1_555
O0 Rb0 3.021607 1_555
O1 Sc0 2.086760 1_655
O1 Rb0 3.021607 1_655
O2 Sc0 2.086764 1_665
O2 Rb0 3.021610 1_665
O3 Rb0 3.241719 1_665
O3 Rb0 3.241724 1_555
O3 Rb0 3.241724 1_655
O4 Rb0 3.241719 1_555
O4 Rb0 3.241724 1_665
O4 Rb0 3.241724 1_565
O5 Sc0 2.086769 1_556
O5 Rb0 3.021603 1_555
O6 Sc0 2.086769 1_566
O6 Rb0 3.021603 1_565
O7 Sc0 2.086765 1_666
O7 Rb0 3.021601 1_665
