# generated using pymatgen
data_ZrSc3Pt2O
_symmetry_space_group_name_H-M   'P 1'
_cell_length_a   8.76936697
_cell_length_b   8.76936671
_cell_length_c   8.76936731
_cell_angle_alpha   59.99999775
_cell_angle_beta   59.99999872
_cell_angle_gamma   59.99999603
_symmetry_Int_Tables_number   1
_chemical_formula_structural   ZrSc3Pt2O
_chemical_formula_sum   'Zr4 Sc12 Pt8 O4'
_cell_volume   476.85870445
_cell_formula_units_Z   4
loop_
 _symmetry_equiv_pos_site_id
 _symmetry_equiv_pos_as_xyz
  1  'x, y, z'
loop_
 _atom_site_type_symbol
 _atom_site_label
 _atom_site_symmetry_multiplicity
 _atom_site_fract_x
 _atom_site_fract_y
 _atom_site_fract_z
 _atom_site_occupancy
  Zr  Zr0  1  0.12500000  0.62500000  0.62500000  1
  Zr  Zr1  1  0.62500000  0.12500000  0.62500000  1
  Zr  Zr2  1  0.62500000  0.62500000  0.12500000  1
  Zr  Zr3  1  0.62500000  0.62500000  0.62500000  1
  Sc  Sc0  1  0.81868805  0.81868805  0.18131195  1
  Sc  Sc1  1  0.18131195  0.18131195  0.81868805  1
  Sc  Sc2  1  0.81868805  0.18131195  0.81868805  1
  Sc  Sc3  1  0.18131195  0.81868805  0.18131195  1
  Sc  Sc4  1  0.18131195  0.81868805  0.81868805  1
  Sc  Sc5  1  0.81868805  0.18131195  0.18131195  1
  Sc  Sc6  1  0.43131195  0.43131195  0.06868805  1
  Sc  Sc7  1  0.06868805  0.06868805  0.43131195  1
  Sc  Sc8  1  0.43131195  0.06868805  0.43131195  1
  Sc  Sc9  1  0.06868805  0.43131195  0.06868805  1
  Sc  Sc10  1  0.06868805  0.43131195  0.43131195  1
  Sc  Sc11  1  0.43131195  0.06868805  0.06868805  1
  Pt  Pt0  1  0.77476762  0.40841079  0.40841079  1
  Pt  Pt1  1  0.40841079  0.77476762  0.40841079  1
  Pt  Pt2  1  0.40841079  0.40841079  0.77476762  1
  Pt  Pt3  1  0.40841079  0.40841079  0.40841079  1
  Pt  Pt4  1  0.47523238  0.84158921  0.84158921  1
  Pt  Pt5  1  0.84158921  0.47523238  0.84158921  1
  Pt  Pt6  1  0.84158921  0.84158921  0.47523238  1
  Pt  Pt7  1  0.84158921  0.84158921  0.84158921  1
  O  O0  1  0.62500000  0.12500000  0.12500000  1
  O  O1  1  0.12500000  0.62500000  0.12500000  1
  O  O2  1  0.12500000  0.12500000  0.62500000  1
  O  O3  1  0.12500000  0.12500000  0.12500000  1
loop_
_geom_bond_atom_site_label_1
_geom_bond_atom_site_label_2
_geom_bond_distance
_geom_bond_site_symmetry_2
Pt0 Zr1 2.749261 1_555
Pt0 Zr3 2.749261 1_555
Pt0 Zr2 2.749261 1_555
Pt0 Sc7 2.792804 1_655
Pt0 Sc10 2.792804 1_655
Pt0 Sc9 2.792804 1_655
Pt1 Zr0 2.749261 1_555
Pt1 Zr3 2.749261 1_555
Pt1 Zr2 2.749261 1_555
Pt1 Sc7 2.792804 1_565
Pt1 Sc8 2.792804 1_565
Pt1 Sc11 2.792804 1_565
Pt2 Zr1 2.749261 1_555
Pt2 Zr0 2.749261 1_555
Pt2 Zr3 2.749261 1_555
Pt2 Sc11 2.792804 1_556
Pt2 Sc9 2.792804 1_556
Pt2 Sc6 2.792804 1_556
Pt3 Zr1 2.749261 1_555
Pt3 Zr0 2.749261 1_555
Pt3 Zr2 2.749261 1_555
Pt3 Sc8 2.792804 1_555
Pt3 Sc10 2.792804 1_555
Pt3 Sc6 2.792804 1_555
Pt4 Zr1 2.749261 1_565
Pt4 Zr3 2.749261 1_555
Pt4 Zr2 2.749261 1_556
Pt4 Sc1 2.792804 1_565
Pt4 Sc3 2.792804 1_556
Pt4 Sc4 2.792804 1_555
Pt5 Zr0 2.749261 1_655
Pt5 Zr3 2.749261 1_555
Pt5 Zr2 2.749261 1_556
Pt5 Sc1 2.792804 1_655
Pt5 Sc2 2.792804 1_555
Pt5 Sc5 2.792804 1_556
Pt6 Zr1 2.749261 1_565
Pt6 Zr0 2.749261 1_655
Pt6 Zr3 2.749261 1_555
Pt6 Sc5 2.792804 1_565
Pt6 Sc3 2.792804 1_655
Pt6 Sc0 2.792804 1_555
Pt7 Zr1 2.749261 1_565
Pt7 Zr0 2.749261 1_655
Pt7 Zr2 2.749261 1_556
Pt7 Sc2 2.792804 1_565
Pt7 Sc4 2.792804 1_655
Pt7 Sc0 2.792804 1_556
O0 Sc6 2.300886 1_555
O0 Sc0 2.300886 1_545
O0 Sc8 2.300887 1_555
O0 Sc2 2.300887 1_554
O0 Sc5 2.300887 1_555
O0 Sc11 2.300887 1_555
O1 Sc6 2.300886 1_555
O1 Sc0 2.300886 1_455
O1 Sc3 2.300887 1_555
O1 Sc9 2.300887 1_555
O1 Sc10 2.300887 1_555
O1 Sc4 2.300887 1_554
O2 Sc10 2.300886 1_555
O2 Sc4 2.300886 1_545
O2 Sc8 2.300887 1_555
O2 Sc2 2.300887 1_455
O2 Sc1 2.300887 1_555
O2 Sc7 2.300887 1_555
O3 Sc9 2.300886 1_555
O3 Sc3 2.300886 1_545
O3 Sc11 2.300887 1_555
O3 Sc5 2.300887 1_455
O3 Sc7 2.300887 1_555
O3 Sc1 2.300887 1_554
