# generated using pymatgen
data_LiCr2(PO4)3
_symmetry_space_group_name_H-M   'P 1'
_cell_length_a   4.77256348
_cell_length_b   4.77256348
_cell_length_c   19.13264576
_cell_angle_alpha   89.29171508
_cell_angle_beta   89.29171508
_cell_angle_gamma   66.56127268
_symmetry_Int_Tables_number   1
_chemical_formula_structural   LiCr2(PO4)3
_chemical_formula_sum   'Li2 Cr4 P6 O24'
_cell_volume   399.78860295
_cell_formula_units_Z   2
loop_
 _symmetry_equiv_pos_site_id
 _symmetry_equiv_pos_as_xyz
  1  'x, y, z'
loop_
 _atom_site_type_symbol
 _atom_site_label
 _atom_site_symmetry_multiplicity
 _atom_site_fract_x
 _atom_site_fract_y
 _atom_site_fract_z
 _atom_site_occupancy
  Li  Li0  1  0.00019700  0.00019700  0.83457300  1
  Li  Li1  1  0.99980300  0.99980300  0.16542700  1
  Cr  Cr0  1  0.99524700  0.99524700  0.66672900  1
  Cr  Cr1  1  0.00000000  0.00000000  0.50000000  1
  Cr  Cr2  1  0.00475300  0.00475300  0.33327100  1
  Cr  Cr3  1  0.00000000  0.00000000  0.00000000  1
  P  P0  1  0.64986900  0.64986900  0.25522300  1
  P  P1  1  0.64669300  0.64669300  0.92056200  1
  P  P2  1  0.34910000  0.34910000  0.41742800  1
  P  P3  1  0.65090000  0.65090000  0.58257200  1
  P  P4  1  0.35330700  0.35330700  0.07943800  1
  P  P5  1  0.35013100  0.35013100  0.74477700  1
  O  O0  1  0.75588200  0.75588200  0.51541400  1
  O  O1  1  0.77804200  0.28904700  0.58284000  1
  O  O2  1  0.24411800  0.24411800  0.48458600  1
  O  O3  1  0.22430500  0.70702600  0.07386800  1
  O  O4  1  0.77699200  0.29608900  0.26044300  1
  O  O5  1  0.70702600  0.22430500  0.07386800  1
  O  O6  1  0.74021200  0.74021200  0.85001700  1
  O  O7  1  0.75357300  0.75357300  0.64933900  1
  O  O8  1  0.70391100  0.22300800  0.73955700  1
  O  O9  1  0.76677500  0.76677500  0.31956800  1
  O  O10  1  0.28904700  0.77804200  0.58284000  1
  O  O11  1  0.74196200  0.74196200  0.18406400  1
  O  O12  1  0.25803800  0.25803800  0.81593600  1
  O  O13  1  0.23322500  0.23322500  0.68043200  1
  O  O14  1  0.24642700  0.24642700  0.35066100  1
  O  O15  1  0.23358900  0.23358900  0.01549300  1
  O  O16  1  0.77569500  0.29297400  0.92613200  1
  O  O17  1  0.22195800  0.71095300  0.41716000  1
  O  O18  1  0.29297400  0.77569500  0.92613200  1
  O  O19  1  0.71095300  0.22195800  0.41716000  1
  O  O20  1  0.22300800  0.70391100  0.73955700  1
  O  O21  1  0.76641100  0.76641100  0.98450700  1
  O  O22  1  0.25978800  0.25978800  0.14998300  1
  O  O23  1  0.29608900  0.77699200  0.26044300  1
loop_
_geom_bond_atom_site_label_1
_geom_bond_atom_site_label_2
_geom_bond_distance
_geom_bond_site_symmetry_2
Li0 O12 2.082951 1_555
Li0 O6 2.091199 1_445
Li0 O16 2.234327 1_455
Li0 O18 2.234327 1_545
Li0 O20 2.292297 1_545
Li0 O8 2.292297 1_455
Li1 O11 2.082951 1_555
Li1 O22 2.091199 1_665
Li1 O3 2.234327 1_655
Li1 O5 2.234327 1_565
Li1 O23 2.292297 1_655
Li1 O4 2.292297 1_565
Cr0 O13 1.920832 1_665
Cr0 O20 1.960502 1_655
Cr0 O8 1.960502 1_565
Cr0 O7 1.961809 1_555
Cr0 O10 2.108539 1_655
Cr0 O1 2.108539 1_565
Cr1 O0 1.965859 1_445
Cr1 O2 1.965859 1_555
Cr1 O1 2.094570 1_455
Cr1 O10 2.094570 1_545
Cr1 O19 2.094570 1_455
Cr1 O17 2.094570 1_545
Cr2 O9 1.920832 1_445
Cr2 O23 1.960502 1_545
Cr2 O4 1.960502 1_455
Cr2 O14 1.961809 1_555
Cr2 O19 2.108539 1_455
Cr2 O17 2.108539 1_545
Cr3 O15 1.891707 1_555
Cr3 O21 1.891707 1_444
Cr3 O5 1.973884 1_455
Cr3 O3 1.973884 1_545
Cr3 O18 1.973884 1_544
Cr3 O16 1.973884 1_454
O0 P3 1.523462 1_555
O1 P3 1.586456 1_555
O2 P2 1.523462 1_555
O3 P4 1.552606 1_555
O4 P0 1.552830 1_555
O5 P4 1.552606 1_555
O6 P1 1.532588 1_555
O7 P3 1.527751 1_555
O8 P5 1.552830 1_555
O9 P0 1.555568 1_555
O10 P3 1.586456 1_555
O11 P0 1.537537 1_555
O12 P5 1.537537 1_555
O13 P5 1.555568 1_555
O14 P2 1.527751 1_555
O15 P4 1.563322 1_555
O16 P1 1.552606 1_555
O17 P2 1.586456 1_555
O18 P1 1.552606 1_555
O19 P2 1.586456 1_555
O20 P5 1.552830 1_555
O21 P1 1.563322 1_555
O22 P4 1.532588 1_555
O23 P0 1.552830 1_555
