# generated using pymatgen
data_Rb6ScSbSe3
_symmetry_space_group_name_H-M   'P 1'
_cell_length_a   10.85336313
_cell_length_b   10.85336208
_cell_length_c   8.73310542
_cell_angle_alpha   90.00000000
_cell_angle_beta   90.00000000
_cell_angle_gamma   120.00000021
_symmetry_Int_Tables_number   1
_chemical_formula_structural   Rb6ScSbSe3
_chemical_formula_sum   'Rb12 Sc2 Sb2 Se6'
_cell_volume   890.89794891
_cell_formula_units_Z   2
loop_
 _symmetry_equiv_pos_site_id
 _symmetry_equiv_pos_as_xyz
  1  'x, y, z'
loop_
 _atom_site_type_symbol
 _atom_site_label
 _atom_site_symmetry_multiplicity
 _atom_site_fract_x
 _atom_site_fract_y
 _atom_site_fract_z
 _atom_site_occupancy
  Rb  Rb0  1  0.14336879  0.85663121  0.53722240  1
  Rb  Rb1  1  0.28673559  0.14336879  0.03722240  1
  Rb  Rb2  1  0.85663121  0.71326441  0.03722240  1
  Rb  Rb3  1  0.14336879  0.28673559  0.53722240  1
  Rb  Rb4  1  0.71326441  0.85663121  0.53722240  1
  Rb  Rb5  1  0.85663121  0.14336879  0.03722240  1
  Rb  Rb6  1  0.52873052  0.47126948  0.37191856  1
  Rb  Rb7  1  0.05746305  0.52873052  0.87191856  1
  Rb  Rb8  1  0.47126948  0.94253695  0.87191856  1
  Rb  Rb9  1  0.52873052  0.05746305  0.37191856  1
  Rb  Rb10  1  0.94253695  0.47126948  0.37191856  1
  Rb  Rb11  1  0.47126948  0.52873052  0.87191856  1
  Sc  Sc0  1  0.33333300  0.66666700  0.24809942  1
  Sc  Sc1  1  0.66666700  0.33333300  0.74809942  1
  Sb  Sb0  1  0.33333300  0.66666700  0.56804852  1
  Sb  Sb1  1  0.66666700  0.33333300  0.06804852  1
  Se  Se0  1  0.19917724  0.80082276  0.15537640  1
  Se  Se1  1  0.39835348  0.19917724  0.65537640  1
  Se  Se2  1  0.80082276  0.60164652  0.65537640  1
  Se  Se3  1  0.19917724  0.39835348  0.15537640  1
  Se  Se4  1  0.60164652  0.80082276  0.15537640  1
  Se  Se5  1  0.80082276  0.19917724  0.65537640  1
loop_
_geom_bond_atom_site_label_1
_geom_bond_atom_site_label_2
_geom_bond_distance
_geom_bond_site_symmetry_2
Rb0 Se0 3.495838 1_555
Rb0 Se1 3.500940 1_565
Rb0 Se2 3.500940 1_455
Rb0 Sb0 3.581189 1_555
Rb1 Se1 3.495841 1_554
Rb1 Se3 3.500918 1_555
Rb1 Se0 3.500948 1_545
Rb1 Sb1 3.581218 1_555
Rb2 Se2 3.495841 1_554
Rb2 Se4 3.500918 1_555
Rb2 Se0 3.500949 1_655
Rb2 Sb1 3.581217 1_555
Rb3 Se3 3.495841 1_555
Rb3 Se1 3.500918 1_555
Rb3 Se5 3.500949 1_455
Rb3 Sb0 3.581217 1_555
Rb4 Se4 3.495841 1_555
Rb4 Se2 3.500918 1_555
Rb4 Se5 3.500948 1_565
Rb4 Sb0 3.581218 1_555
Rb5 Se5 3.495838 1_554
Rb5 Se4 3.500940 1_545
Rb5 Se3 3.500940 1_655
Rb5 Sb1 3.581189 1_555
Rb6 Se1 3.559830 1_555
Rb6 Se2 3.559831 1_555
Rb6 Sb1 3.710253 1_555
Rb6 Se4 3.763658 1_555
Rb6 Se3 3.763658 1_555
Rb6 Sb0 4.052916 1_555
Rb7 Se3 3.559824 1_556
Rb7 Se0 3.559830 1_556
Rb7 Sb0 3.710233 1_555
Rb7 Se5 3.763667 1_455
Rb7 Se2 3.763686 1_455
Rb7 Sb1 4.052925 1_456
Rb8 Se4 3.559824 1_556
Rb8 Se0 3.559830 1_556
Rb8 Sb0 3.710233 1_555
Rb8 Se5 3.763667 1_565
Rb8 Se1 3.763686 1_565
Rb8 Sb1 4.052924 1_566
Rb9 Se1 3.559824 1_555
Rb9 Se5 3.559830 1_555
Rb9 Sb1 3.710233 1_555
Rb9 Se0 3.763667 1_545
Rb9 Se4 3.763686 1_545
Rb9 Sb0 4.052924 1_545
Rb10 Se2 3.559824 1_555
Rb10 Se5 3.559830 1_555
Rb10 Sb1 3.710233 1_555
Rb10 Se0 3.763667 1_655
Rb10 Se3 3.763686 1_655
Rb10 Sb0 4.052925 1_655
Rb11 Se4 3.559830 1_556
Rb11 Se3 3.559831 1_556
Rb11 Sb0 3.710253 1_555
Rb11 Se1 3.763658 1_555
Rb11 Se2 3.763658 1_555
Rb11 Sb1 4.052916 1_556
Sc0 Se0 2.648750 1_555
Sc0 Se3 2.648768 1_555
Sc0 Se4 2.648768 1_555
Sc1 Se5 2.648750 1_555
Sc1 Se2 2.648768 1_555
Sc1 Se1 2.648768 1_555
Sb0 Sc0 2.794149 1_555
Sb1 Sc1 2.794149 1_554
