# generated using pymatgen
data_Ca4GaSi6Ni
_symmetry_space_group_name_H-M   'P 1'
_cell_length_a   8.22340819
_cell_length_b   8.01857068
_cell_length_c   5.95474336
_cell_angle_alpha   70.33445238
_cell_angle_beta   66.66872726
_cell_angle_gamma   42.99477320
_symmetry_Int_Tables_number   1
_chemical_formula_structural   Ca4GaSi6Ni
_chemical_formula_sum   'Ca4 Ga1 Si6 Ni1'
_cell_volume   245.18004239
_cell_formula_units_Z   1
loop_
 _symmetry_equiv_pos_site_id
 _symmetry_equiv_pos_as_xyz
  1  'x, y, z'
loop_
 _atom_site_type_symbol
 _atom_site_label
 _atom_site_symmetry_multiplicity
 _atom_site_fract_x
 _atom_site_fract_y
 _atom_site_fract_z
 _atom_site_occupancy
  Ca  Ca0  1  0.74710530  0.74709525  0.75290413  1
  Ca  Ca1  1  0.75442430  0.25150367  0.74849416  1
  Ca  Ca2  1  0.24708688  0.24710483  0.25290164  1
  Ca  Ca3  1  0.25150713  0.75442165  0.24560014  1
  Ga  Ga0  1  0.33408100  0.33402703  0.66600010  1
  Si  Si0  1  0.82316842  0.35234958  0.17675511  1
  Si  Si1  1  0.67929244  0.16030963  0.32070623  1
  Si  Si2  1  0.16032828  0.67926596  0.83977008  1
  Si  Si3  1  0.35237618  0.82316666  0.64768316  1
  Si  Si4  1  0.16056478  0.16062126  0.83936528  1
  Si  Si5  1  0.82388190  0.82393627  0.17605859  1
  Ni  Ni0  1  0.66618239  0.66619721  0.33376238  1
loop_
_geom_bond_atom_site_label_1
_geom_bond_atom_site_label_2
_geom_bond_distance
_geom_bond_site_symmetry_2
Ca0 Si0 3.123739 1_556
Ca0 Si3 3.123878 1_555
Ca0 Si5 3.162550 1_556
Ca0 Si5 3.162910 1_555
Ca0 Ni0 3.182056 1_556
Ca0 Ni0 3.182741 1_555
Ca0 Si4 3.210588 1_655
Ca0 Si4 3.211058 1_565
Ca0 Ga0 3.212975 1_565
Ca0 Ga0 3.213323 1_655
Ca0 Si1 3.256920 1_565
Ca0 Si2 3.257266 1_655
Ca1 Si4 3.095840 1_655
Ca1 Si1 3.137358 1_556
Ca1 Si2 3.137712 1_645
Ca1 Si3 3.139094 1_555
Ca1 Si0 3.139386 1_555
Ca1 Ni0 3.169446 1_555
Ca1 Ga0 3.226121 1_555
Ca1 Si2 3.250662 1_555
Ca1 Si1 3.250663 1_555
Ca1 Si0 3.267340 1_556
Ca1 Si3 3.268044 1_645
Ca1 Si5 3.312875 1_546
Ca2 Si3 3.124078 1_545
Ca2 Si0 3.124313 1_455
Ca2 Si5 3.162810 1_545
Ca2 Si5 3.162996 1_455
Ca2 Ni0 3.182488 1_545
Ca2 Ni0 3.182569 1_455
Ca2 Si4 3.210376 1_555
Ca2 Si4 3.210924 1_554
Ca2 Ga0 3.212643 1_554
Ca2 Ga0 3.213401 1_555
Ca2 Si2 3.256577 1_554
Ca2 Si1 3.257116 1_555
Ca3 Si4 3.096212 1_564
Ca3 Si2 3.137174 1_554
Ca3 Si1 3.137608 1_465
Ca3 Si0 3.139107 1_555
Ca3 Si3 3.139253 1_555
Ca3 Ni0 3.169166 1_555
Ca3 Ga0 3.226392 1_555
Ca3 Si1 3.250725 1_555
Ca3 Si2 3.250890 1_555
Ca3 Si3 3.267603 1_554
Ca3 Si0 3.267886 1_465
Ca3 Si5 3.313449 1_455
Ga0 Si2 2.397204 1_555
Ga0 Si1 2.397211 1_555
Ga0 Si4 2.409267 1_555
Si0 Si1 2.340786 1_555
Si0 Si4 2.349851 1_654
Si1 Si5 2.343459 1_545
Si2 Si3 2.341039 1_555
Si2 Si5 2.343193 1_456
Si3 Si4 2.349869 1_565
Ni0 Si0 2.179241 1_555
Ni0 Si3 2.179251 1_555
Ni0 Si5 2.190624 1_555
