# generated using pymatgen
data_Pt(SeCl6)2
_symmetry_space_group_name_H-M   'P 1'
_cell_length_a   12.48532338
_cell_length_b   12.27485345
_cell_length_c   8.65340548
_cell_angle_alpha   70.85534036
_cell_angle_beta   68.24365227
_cell_angle_gamma   40.90100650
_symmetry_Int_Tables_number   1
_chemical_formula_structural   Pt(SeCl6)2
_chemical_formula_sum   'Pt2 Se4 Cl24'
_cell_volume   803.97659559
_cell_formula_units_Z   2
loop_
 _symmetry_equiv_pos_site_id
 _symmetry_equiv_pos_as_xyz
  1  'x, y, z'
loop_
 _atom_site_type_symbol
 _atom_site_label
 _atom_site_symmetry_multiplicity
 _atom_site_fract_x
 _atom_site_fract_y
 _atom_site_fract_z
 _atom_site_occupancy
  Pt  Pt0  1  0.12401808  0.12401808  0.37598192  1
  Pt  Pt1  1  0.87401808  0.87401808  0.12598192  1
  Se  Se0  1  0.47592893  0.93858305  0.57326080  1
  Se  Se1  1  0.67673920  0.23777478  0.77407107  1
  Se  Se2  1  0.93858305  0.47592893  0.01222522  1
  Se  Se3  1  0.23777478  0.67673920  0.31141695  1
  Cl  Cl0  1  0.08425470  0.01296880  0.25798592  1
  Cl  Cl1  1  0.16061336  0.24211328  0.48742454  1
  Cl  Cl2  1  0.24211328  0.16061336  0.10984982  1
  Cl  Cl3  1  0.90829886  0.83864919  0.39163698  1
  Cl  Cl4  1  0.06501003  0.49720059  0.76770017  1
  Cl  Cl5  1  0.60520942  0.99201408  0.23703120  1
  Cl  Cl6  1  0.44151464  0.31926659  0.90248739  1
  Cl  Cl7  1  0.72152989  0.68300101  0.58200474  1
  Cl  Cl8  1  0.91326862  0.34751261  0.93073341  1
  Cl  Cl9  1  0.48229983  0.57991078  0.18498997  1
  Cl  Cl10  1  0.31926659  0.44151464  0.33673138  1
  Cl  Cl11  1  0.38858503  0.85836302  0.41135081  1
  Cl  Cl12  1  0.57991078  0.48229983  0.75279941  1
  Cl  Cl13  1  0.99201408  0.60520942  0.16574530  1
  Cl  Cl14  1  0.66799526  0.23653565  0.52847011  1
  Cl  Cl15  1  0.49720059  0.06501003  0.67008922  1
  Cl  Cl16  1  0.14015018  0.76257546  0.00788672  1
  Cl  Cl17  1  0.68300101  0.72152989  0.01346435  1
  Cl  Cl18  1  0.76257546  0.14015018  0.08938664  1
  Cl  Cl19  1  0.01296880  0.08425470  0.64479058  1
  Cl  Cl20  1  0.34751261  0.91326862  0.80848536  1
  Cl  Cl21  1  0.85836302  0.38858503  0.34170114  1
  Cl  Cl22  1  0.23653565  0.66799526  0.56699899  1
  Cl  Cl23  1  0.83864919  0.90829886  0.86141497  1
loop_
_geom_bond_atom_site_label_1
_geom_bond_atom_site_label_2
_geom_bond_distance
_geom_bond_site_symmetry_2
Cl0 Pt0 2.336414 1_555
Cl0 Se3 2.892755 1_545
Cl1 Pt0 2.341982 1_555
Cl1 Se0 2.848037 1_545
Cl2 Pt0 2.341976 1_555
Cl2 Se2 2.848046 1_455
Cl3 Pt1 2.334552 1_555
Cl3 Se3 2.789768 1_655
Cl4 Se2 2.195850 1_456
Cl5 Pt1 2.336414 1_555
Cl5 Se0 2.892764 1_555
Cl6 Se1 2.174717 1_555
Cl7 Se0 2.173628 1_555
Cl8 Se2 2.174697 1_556
Cl9 Se3 2.195841 1_555
Cl10 Se3 2.174720 1_555
Cl11 Pt0 2.334552 1_565
Cl11 Se0 2.789747 1_555
Cl12 Se1 2.195838 1_555
Cl13 Pt1 2.336414 1_555
Cl13 Se2 2.892776 1_555
Cl14 Se1 2.173637 1_555
Cl15 Se0 2.195861 1_545
Cl16 Pt1 2.341972 1_455
Cl16 Se3 2.848056 1_555
Cl17 Se2 2.173627 1_555
Cl18 Pt1 2.341971 1_545
Cl18 Se1 2.848031 1_554
Cl19 Pt0 2.336414 1_555
Cl19 Se1 2.892756 1_455
Cl20 Se0 2.174707 1_555
Cl21 Pt0 2.334552 1_655
Cl21 Se2 2.789760 1_555
Cl22 Se3 2.173620 1_555
Cl23 Pt1 2.334552 1_556
Cl23 Se1 2.789766 1_565
