# generated using pymatgen
data_CrAgSe2
_symmetry_space_group_name_H-M   'P 1'
_cell_length_a   7.34131411
_cell_length_b   7.34131431
_cell_length_c   7.34131527
_cell_angle_alpha   29.47459481
_cell_angle_beta   29.47459402
_cell_angle_gamma   29.47459563
_symmetry_Int_Tables_number   1
_chemical_formula_structural   CrAgSe2
_chemical_formula_sum   'Cr1 Ag1 Se2'
_cell_volume   84.78312532
_cell_formula_units_Z   1
loop_
 _symmetry_equiv_pos_site_id
 _symmetry_equiv_pos_as_xyz
  1  'x, y, z'
loop_
 _atom_site_type_symbol
 _atom_site_label
 _atom_site_symmetry_multiplicity
 _atom_site_fract_x
 _atom_site_fract_y
 _atom_site_fract_z
 _atom_site_occupancy
  Cr  Cr0  1  -0.00011694  -0.00011694  -0.00011694  1
  Ag  Ag0  1  0.15082652  0.15082652  0.15082652  1
  Se  Se0  1  0.27089067  0.27089067  0.27089067  1
  Se  Se1  1  0.73419875  0.73419875  0.73419875  1
loop_
_geom_bond_atom_site_label_1
_geom_bond_atom_site_label_2
_geom_bond_distance
_geom_bond_site_symmetry_2
Cr0 Se0 2.524259 1_455
Cr0 Se0 2.524259 1_545
Cr0 Se0 2.524260 1_554
Cr0 Se1 2.584285 1_544
Cr0 Se1 2.584286 1_454
Cr0 Se1 2.584286 1_445
Ag0 Se0 2.527633 1_555
Ag0 Se1 2.779421 1_445
Ag0 Se1 2.779422 1_454
Ag0 Se1 2.779422 1_544
