# generated using pymatgen
data_K2RbAgSn4
_symmetry_space_group_name_H-M   'P 1'
_cell_length_a   6.69459244
_cell_length_b   7.26773605
_cell_length_c   12.35808144
_cell_angle_alpha   90.00000000
_cell_angle_beta   90.00000000
_cell_angle_gamma   90.00000000
_symmetry_Int_Tables_number   1
_chemical_formula_structural   K2RbAgSn4
_chemical_formula_sum   'K4 Rb2 Ag2 Sn8'
_cell_volume   601.27665464
_cell_formula_units_Z   2
loop_
 _symmetry_equiv_pos_site_id
 _symmetry_equiv_pos_as_xyz
  1  'x, y, z'
loop_
 _atom_site_type_symbol
 _atom_site_label
 _atom_site_symmetry_multiplicity
 _atom_site_fract_x
 _atom_site_fract_y
 _atom_site_fract_z
 _atom_site_occupancy
  K  K0  1  0.83920429  0.50000000  0.73972949  1
  K  K1  1  0.83920429  0.50000000  0.26027051  1
  K  K2  1  0.16079571  0.00000000  0.76027051  1
  K  K3  1  0.16079571  0.00000000  0.23972949  1
  Rb  Rb0  1  0.56855481  0.00000000  0.00000000  1
  Rb  Rb1  1  0.43144519  0.50000000  0.50000000  1
  Ag  Ag0  1  0.69023609  0.50000000  0.00000000  1
  Ag  Ag1  1  0.30976391  0.00000000  0.50000000  1
  Sn  Sn0  1  0.33707222  0.50000000  0.87401545  1
  Sn  Sn1  1  0.33707222  0.50000000  0.12598455  1
  Sn  Sn2  1  0.04737980  0.28686009  0.00000000  1
  Sn  Sn3  1  0.04737980  0.71313991  0.00000000  1
  Sn  Sn4  1  0.95262020  0.78686009  0.50000000  1
  Sn  Sn5  1  0.95262020  0.21313991  0.50000000  1
  Sn  Sn6  1  0.66292778  0.00000000  0.37401545  1
  Sn  Sn7  1  0.66292778  0.00000000  0.62598455  1
loop_
_geom_bond_atom_site_label_1
_geom_bond_atom_site_label_2
_geom_bond_distance
_geom_bond_site_symmetry_2
K0 Sn4 3.701346 1_555
K0 Sn5 3.701346 1_555
K0 Sn0 3.723310 1_655
K0 Sn0 3.748886 1_555
K0 Sn3 3.832403 1_656
K0 Sn2 3.832403 1_656
K0 Sn7 4.071061 1_555
K0 Sn7 4.071061 1_565
K1 Sn4 3.701346 1_555
K1 Sn5 3.701346 1_555
K1 Sn1 3.723310 1_655
K1 Sn1 3.748886 1_555
K1 Sn3 3.832403 1_655
K1 Sn2 3.832403 1_655
K1 Sn6 4.071061 1_555
K1 Sn6 4.071061 1_565
K2 Sn2 3.701346 1_556
K2 Sn3 3.701346 1_546
K2 Sn7 3.723310 1_455
K2 Sn7 3.748886 1_555
K2 Sn5 3.832403 1_455
K2 Sn4 3.832403 1_445
K2 Sn0 4.071061 1_545
K2 Sn0 4.071061 1_555
K3 Sn2 3.701346 1_555
K3 Sn3 3.701346 1_545
K3 Sn6 3.723310 1_455
K3 Sn6 3.748886 1_555
K3 Sn5 3.832403 1_455
K3 Sn4 3.832403 1_445
K3 Sn1 4.071061 1_545
K3 Sn1 4.071061 1_555
Rb0 Sn2 3.823868 1_655
Rb0 Sn3 3.823868 1_645
Rb0 Sn2 4.064479 1_555
Rb0 Sn3 4.064479 1_545
Rb0 Sn1 4.246237 1_555
Rb0 Sn1 4.246237 1_545
Rb0 Sn0 4.246237 1_544
Rb0 Sn0 4.246237 1_554
Rb1 Sn4 3.823868 1_455
Rb1 Sn5 3.823868 1_455
Rb1 Sn4 4.064479 1_555
Rb1 Sn5 4.064479 1_555
Rb1 Sn7 4.246237 1_555
Rb1 Sn7 4.246237 1_565
Rb1 Sn6 4.246237 1_555
Rb1 Sn6 4.246237 1_565
Ag0 Sn1 2.830880 1_555
Ag0 Sn0 2.830880 1_554
Ag0 Sn3 2.848876 1_655
Ag0 Sn2 2.848876 1_655
Ag0 K0 3.367504 1_554
Ag0 K1 3.367504 1_555
Ag0 Rb0 3.724054 1_565
Ag0 Rb0 3.724054 1_555
Ag1 Sn7 2.830880 1_555
Ag1 Sn6 2.830880 1_555
Ag1 Sn5 2.848876 1_455
Ag1 Sn4 2.848876 1_445
Ag1 K2 3.367504 1_555
Ag1 K3 3.367504 1_555
Ag1 Rb1 3.724054 1_555
Ag1 Rb1 3.724054 1_545
Sn0 Sn3 2.929971 1_556
Sn0 Sn2 2.929971 1_556
Sn0 Sn1 3.113855 1_556
Sn1 Sn3 2.929971 1_555
Sn1 Sn2 2.929971 1_555
Sn2 Sn3 3.098089 1_555
Sn4 Sn7 2.929971 1_565
Sn4 Sn6 2.929971 1_565
Sn4 Sn5 3.098089 1_565
Sn5 Sn7 2.929971 1_555
Sn5 Sn6 2.929971 1_555
Sn6 Sn7 3.113855 1_555
