# generated using pymatgen
data_Hf2Ti3TcOs
_symmetry_space_group_name_H-M   'P 1'
_cell_length_a   7.14674389
_cell_length_b   7.14674350
_cell_length_c   7.14674212
_cell_angle_alpha   37.16524191
_cell_angle_beta   37.16524283
_cell_angle_gamma   37.16524033
_symmetry_Int_Tables_number   1
_chemical_formula_structural   Hf2Ti3TcOs
_chemical_formula_sum   'Hf2 Ti3 Tc1 Os1'
_cell_volume   119.40142011
_cell_formula_units_Z   1
loop_
 _symmetry_equiv_pos_site_id
 _symmetry_equiv_pos_as_xyz
  1  'x, y, z'
loop_
 _atom_site_type_symbol
 _atom_site_label
 _atom_site_symmetry_multiplicity
 _atom_site_fract_x
 _atom_site_fract_y
 _atom_site_fract_z
 _atom_site_occupancy
  Hf  Hf0  1  0.19313120  0.19313120  0.19313120  1
  Hf  Hf1  1  0.76588768  0.76588768  0.76588768  1
  Ti  Ti0  1  0.34278737  0.34278737  0.34278737  1
  Ti  Ti1  1  0.61274319  0.61274319  0.61274319  1
  Ti  Ti2  1  0.92711819  0.92711819  0.92711819  1
  Tc  Tc0  1  0.05114006  0.05114006  0.05114006  1
  Os  Os0  1  0.48219331  0.48219331  0.48219331  1
loop_
_geom_bond_atom_site_label_1
_geom_bond_atom_site_label_2
_geom_bond_distance
_geom_bond_site_symmetry_2
Hf0 Os0 2.773943 1_554
Hf0 Os0 2.773943 1_545
Hf0 Os0 2.773944 1_455
Hf0 Tc0 2.830725 1_555
Hf1 Tc0 2.799034 1_665
Hf1 Tc0 2.799035 1_656
Hf1 Tc0 2.799035 1_566
Hf1 Os0 2.809823 1_556
Hf1 Os0 2.809823 1_565
Hf1 Os0 2.809823 1_655
Tc0 Ti2 2.472491 1_444
Tc0 Ti0 2.757978 1_554
Tc0 Ti0 2.757978 1_545
Tc0 Ti0 2.757978 1_455
Os0 Ti1 2.602633 1_555
Os0 Ti0 2.779187 1_555
