# generated using pymatgen
data_PSe6BrF6
_symmetry_space_group_name_H-M   'P 1'
_cell_length_a   6.98092589
_cell_length_b   8.77760645
_cell_length_c   11.21949619
_cell_angle_alpha   60.95430907
_cell_angle_beta   90.00000000
_cell_angle_gamma   90.00000000
_symmetry_Int_Tables_number   1
_chemical_formula_structural   PSe6BrF6
_chemical_formula_sum   'P2 Se12 Br2 F12'
_cell_volume   601.02092308
_cell_formula_units_Z   2
loop_
 _symmetry_equiv_pos_site_id
 _symmetry_equiv_pos_as_xyz
  1  'x, y, z'
loop_
 _atom_site_type_symbol
 _atom_site_label
 _atom_site_symmetry_multiplicity
 _atom_site_fract_x
 _atom_site_fract_y
 _atom_site_fract_z
 _atom_site_occupancy
  P  P0  1  0.00000000  0.00000000  0.00000000  1
  P  P1  1  0.00000000  0.00000000  0.50000000  1
  Se  Se0  1  0.25336002  0.67450591  0.38024169  1
  Se  Se1  1  0.76422487  0.55324699  0.38850082  1
  Se  Se2  1  0.23577513  0.55324699  0.88850082  1
  Se  Se3  1  0.23577513  0.44675301  0.61149918  1
  Se  Se4  1  0.74663998  0.67450591  0.88024169  1
  Se  Se5  1  0.74663998  0.32549409  0.61975831  1
  Se  Se6  1  0.25336002  0.32549409  0.11975831  1
  Se  Se7  1  0.57257503  0.77226978  0.37908686  1
  Se  Se8  1  0.42742497  0.77226978  0.87908686  1
  Se  Se9  1  0.42742497  0.22773022  0.62091314  1
  Se  Se10  1  0.57257503  0.22773022  0.12091314  1
  Se  Se11  1  0.76422487  0.44675301  0.11149918  1
  Br  Br0  1  0.72848045  0.50000000  0.75000000  1
  Br  Br1  1  0.27151955  0.50000000  0.25000000  1
  F  F0  1  0.91503702  0.93441653  0.39868419  1
  F  F1  1  0.91503702  0.06558347  0.10131581  1
  F  F2  1  0.08496298  0.06558347  0.60131581  1
  F  F3  1  0.08496298  0.93441653  0.89868419  1
  F  F4  1  0.07814713  0.80440281  0.60154446  1
  F  F5  1  0.07814713  0.19559719  0.89845554  1
  F  F6  1  0.92185287  0.19559719  0.39845554  1
  F  F7  1  0.92185287  0.80440281  0.10154446  1
  F  F8  1  0.20166703  0.04654097  0.41785690  1
  F  F9  1  0.20166703  0.95345903  0.08214310  1
  F  F10  1  0.79833297  0.95345903  0.58214310  1
  F  F11  1  0.79833297  0.04654097  0.91785690  1
loop_
_geom_bond_atom_site_label_1
_geom_bond_atom_site_label_2
_geom_bond_distance
_geom_bond_site_symmetry_2
Se0 Se7 2.385708 1_555
Se0 Se3 2.388915 1_555
Se1 Se7 2.302159 1_555
Se1 Se5 2.388915 1_555
Se2 Se8 2.302159 1_555
Se2 Se6 2.388915 1_556
Se3 Se9 2.302159 1_555
Se4 Se8 2.385708 1_555
Se5 Se9 2.385708 1_555
Se10 Se11 2.302159 1_555
Se10 Se6 2.385708 1_555
Se11 Se4 2.388915 1_554
Br0 Se4 2.582814 1_555
Br0 Se5 2.582814 1_555
Br1 Se0 2.582814 1_555
Br1 Se6 2.582814 1_555
F0 P1 1.615765 1_665
F1 P0 1.615765 1_655
F2 P1 1.615765 1_555
F3 P0 1.615765 1_566
F4 P1 1.626015 1_565
F5 P0 1.626015 1_556
F6 P1 1.626015 1_655
F7 P0 1.626015 1_665
F8 P1 1.622537 1_555
F9 P0 1.622537 1_565
F10 P1 1.622537 1_665
F11 P0 1.622537 1_656
