# generated using pymatgen
data_NaSn6Ir3Rh
_symmetry_space_group_name_H-M   'P 1'
_cell_length_a   6.90586186
_cell_length_b   6.89453276
_cell_length_c   6.90550096
_cell_angle_alpha   119.43860087
_cell_angle_beta   119.49340825
_cell_angle_gamma   90.88409772
_symmetry_Int_Tables_number   1
_chemical_formula_structural   NaSn6Ir3Rh
_chemical_formula_sum   'Na1 Sn6 Ir3 Rh1'
_cell_volume   234.42238064
_cell_formula_units_Z   1
loop_
 _symmetry_equiv_pos_site_id
 _symmetry_equiv_pos_as_xyz
  1  'x, y, z'
loop_
 _atom_site_type_symbol
 _atom_site_label
 _atom_site_symmetry_multiplicity
 _atom_site_fract_x
 _atom_site_fract_y
 _atom_site_fract_z
 _atom_site_occupancy
  Na  Na0  1  0.99856707  0.00250014  1.00000000  1
  Sn  Sn0  1  0.87631488  0.53942151  0.00000000  1
  Sn  Sn1  1  0.54232257  0.87388075  1.00000000  1
  Sn  Sn2  1  0.12485053  0.12642608  0.66732109  1
  Sn  Sn3  1  0.00059494  0.49984720  0.50055007  1
  Sn  Sn4  1  0.45752944  0.45910499  0.33267891  1
  Sn  Sn5  1  0.50004486  0.99929713  0.49944993  1
  Ir  Ir0  1  0.40228710  0.40224241  0.64633732  1
  Ir  Ir1  1  0.59603229  0.24478470  1.00000000  1
  Ir  Ir2  1  0.75594878  0.75590509  0.35366268  1
  Rh  Rh0  1  0.24550854  0.59659000  0.00000000  1
loop_
_geom_bond_atom_site_label_1
_geom_bond_atom_site_label_2
_geom_bond_distance
_geom_bond_site_symmetry_2
Na0 Sn1 3.259975 1_545
Na0 Sn2 3.263035 1_655
Na0 Sn4 3.263035 1_656
Na0 Sn0 3.289831 1_546
Na0 Rh0 3.299609 1_646
Na0 Sn3 3.464960 1_656
Na0 Sn5 3.464960 1_545
Na0 Sn3 3.493635 1_645
Na0 Sn5 3.493635 1_646
Sn0 Sn1 3.286557 1_554
Sn1 Sn5 3.285725 1_556
Sn1 Sn3 3.285725 1_555
Sn2 Sn3 3.271179 1_555
Sn2 Sn4 3.276297 1_556
Sn2 Sn5 3.294598 1_545
Sn3 Sn4 3.294598 1_455
Sn4 Sn5 3.271179 1_555
Ir0 Sn4 2.575725 1_555
Ir0 Sn3 2.671202 1_555
Ir0 Sn5 2.676704 1_545
Ir0 Sn1 2.691566 1_555
Ir0 Sn0 2.708713 1_556
Ir0 Sn2 2.782047 1_555
Ir0 Rh0 2.892005 1_556
Ir0 Ir1 2.892514 1_555
Ir0 Na0 3.272352 1_454
Ir1 Sn1 2.578299 1_545
Ir1 Sn5 2.685207 1_545
Ir1 Sn3 2.685208 1_656
Ir1 Sn4 2.691898 1_556
Ir1 Sn2 2.691898 1_555
Ir1 Sn0 2.784187 1_556
Ir1 Ir2 2.892514 1_556
Ir1 Na0 3.265154 1_555
Ir2 Sn2 2.575729 1_665
Ir2 Sn5 2.671196 1_555
Ir2 Sn3 2.676707 1_655
Ir2 Sn1 2.691566 1_554
Ir2 Sn0 2.708718 1_555
Ir2 Sn4 2.782042 1_555
Ir2 Rh0 2.892000 1_555
Ir2 Na0 3.272351 1_565
Rh0 Sn0 2.573870 1_455
Rh0 Sn5 2.675984 1_555
Rh0 Sn3 2.675985 1_554
Rh0 Sn2 2.681665 1_554
Rh0 Sn4 2.681666 1_555
Rh0 Sn1 2.781279 1_554
