# generated using pymatgen
data_CsNb(Te2Au)2
_symmetry_space_group_name_H-M   'P 1'
_cell_length_a   6.23881192
_cell_length_b   8.63053047
_cell_length_c   21.24175250
_cell_angle_alpha   90.00000000
_cell_angle_beta   90.00000000
_cell_angle_gamma   90.00000000
_symmetry_Int_Tables_number   1
_chemical_formula_structural   CsNb(Te2Au)2
_chemical_formula_sum   'Cs4 Nb4 Te16 Au8'
_cell_volume   1143.74636732
_cell_formula_units_Z   4
loop_
 _symmetry_equiv_pos_site_id
 _symmetry_equiv_pos_as_xyz
  1  'x, y, z'
loop_
 _atom_site_type_symbol
 _atom_site_label
 _atom_site_symmetry_multiplicity
 _atom_site_fract_x
 _atom_site_fract_y
 _atom_site_fract_z
 _atom_site_occupancy
  Cs  Cs0  1  0.02528865  0.71536043  0.43797141  1
  Cs  Cs1  1  0.52528865  0.28463957  0.56202859  1
  Cs  Cs2  1  0.52528865  0.78463957  0.93797141  1
  Cs  Cs3  1  0.02528865  0.21536043  0.06202859  1
  Nb  Nb0  1  0.25792763  0.70673602  0.14639830  1
  Nb  Nb1  1  0.75792763  0.29326398  0.85360170  1
  Nb  Nb2  1  0.75792763  0.79326398  0.64639830  1
  Nb  Nb3  1  0.25792763  0.20673602  0.35360170  1
  Te  Te0  1  0.49710997  0.96413932  0.13632344  1
  Te  Te1  1  0.99710997  0.03586068  0.86367656  1
  Te  Te2  1  0.99710997  0.53586068  0.63632344  1
  Te  Te3  1  0.49710997  0.46413932  0.36367656  1
  Te  Te4  1  0.50058155  0.95208590  0.35454881  1
  Te  Te5  1  0.00058155  0.04791410  0.64545119  1
  Te  Te6  1  0.00058155  0.54791410  0.85454881  1
  Te  Te7  1  0.50058155  0.45208590  0.14545119  1
  Te  Te8  1  0.99760881  0.71576214  0.24862442  1
  Te  Te9  1  0.49760881  0.28423786  0.75137558  1
  Te  Te10  1  0.49760881  0.78423786  0.74862442  1
  Te  Te11  1  0.99760881  0.21576214  0.25137558  1
  Te  Te12  1  0.03264703  0.69108824  0.04115316  1
  Te  Te13  1  0.53264703  0.30891176  0.95884684  1
  Te  Te14  1  0.53264703  0.80891176  0.54115316  1
  Te  Te15  1  0.03264703  0.19108824  0.45884684  1
  Au  Au0  1  0.26624773  0.96632529  0.24587502  1
  Au  Au1  1  0.76624773  0.03367471  0.75412498  1
  Au  Au2  1  0.76624773  0.53367471  0.74587502  1
  Au  Au3  1  0.26624773  0.46632529  0.25412498  1
  Au  Au4  1  0.25708762  0.79134898  0.64028921  1
  Au  Au5  1  0.75708762  0.20865102  0.35971079  1
  Au  Au6  1  0.75708762  0.70865102  0.14028921  1
  Au  Au7  1  0.25708762  0.29134898  0.85971079  1
loop_
_geom_bond_atom_site_label_1
_geom_bond_atom_site_label_2
_geom_bond_distance
_geom_bond_site_symmetry_2
Cs0 Te14 3.860324 1_455
Cs0 Te14 3.933817 1_555
Cs0 Te3 3.982002 1_555
Cs0 Te4 4.013358 1_555
Cs0 Te8 4.025769 1_455
Cs0 Te15 4.129915 1_565
Cs0 Te4 4.246219 1_455
Cs0 Te3 4.248520 1_455
Cs1 Te15 3.860324 1_555
Cs1 Te15 3.933817 1_655
Cs1 Te2 3.982002 1_555
Cs1 Te5 4.013358 1_655
Cs1 Te9 4.025769 1_555
Cs1 Te14 4.129915 1_545
Cs1 Te5 4.246219 1_555
Cs1 Te2 4.248520 1_455
Cs2 Te12 3.860324 1_556
Cs2 Te12 3.933817 1_656
Cs2 Te1 3.982002 1_565
Cs2 Te6 4.013358 1_655
Cs2 Te10 4.025769 1_555
Cs2 Te13 4.129915 1_555
Cs2 Te6 4.246219 1_555
Cs2 Te1 4.248520 1_465
Cs3 Te13 3.860324 1_454
Cs3 Te13 3.933817 1_554
Cs3 Te0 3.982002 1_545
Cs3 Te7 4.013358 1_555
Cs3 Te11 4.025769 1_455
Cs3 Te12 4.129915 1_555
Cs3 Te7 4.246219 1_455
Cs3 Te0 4.248520 1_445
Nb0 Te12 2.644142 1_555
Nb0 Te7 2.668780 1_555
Nb0 Te0 2.684713 1_555
Nb0 Te8 2.712739 1_455
Nb1 Te13 2.644142 1_555
Nb1 Te6 2.668780 1_655
Nb1 Te1 2.684713 1_555
Nb1 Te9 2.712739 1_555
Nb2 Te14 2.644142 1_555
Nb2 Te5 2.668780 1_665
Nb2 Te2 2.684713 1_555
Nb2 Te10 2.712739 1_555
Nb3 Te15 2.644142 1_555
Nb3 Te4 2.668780 1_545
Nb3 Te3 2.684713 1_555
Nb3 Te11 2.712739 1_455
Au0 Te11 2.730754 1_465
Au0 Te4 2.735188 1_555
Au0 Te8 2.736553 1_455
Au0 Te0 2.736801 1_555
Au0 Nb0 3.080110 1_555
Au0 Nb3 3.089356 1_565
Au1 Te10 2.730754 1_545
Au1 Te5 2.735188 1_655
Au1 Te9 2.736553 1_555
Au1 Te1 2.736801 1_555
Au1 Nb1 3.080110 1_555
Au1 Nb2 3.089356 1_545
Au2 Te9 2.730754 1_555
Au2 Te6 2.735188 1_655
Au2 Te10 2.736553 1_555
Au2 Te2 2.736801 1_555
Au2 Nb2 3.080110 1_555
Au2 Nb1 3.089356 1_555
Au3 Te8 2.730754 1_455
Au3 Te7 2.735188 1_555
Au3 Te11 2.736553 1_455
Au3 Te3 2.736801 1_555
Au3 Nb3 3.080110 1_555
Au3 Nb0 3.089356 1_555
Au4 Te14 2.722681 1_555
Au4 Te5 2.734238 1_565
Au4 Te2 2.738585 1_455
Au4 Te10 2.747931 1_555
Au4 Nb2 3.116912 1_455
Au4 Nb2 3.127384 1_555
Au5 Te15 2.722681 1_655
Au5 Te4 2.734238 1_545
Au5 Te3 2.738585 1_555
Au5 Te11 2.747931 1_555
Au5 Nb3 3.116912 1_555
Au5 Nb3 3.127384 1_655
Au6 Te12 2.722681 1_655
Au6 Te7 2.734238 1_555
Au6 Te0 2.738585 1_555
Au6 Te8 2.747931 1_555
Au6 Nb0 3.116912 1_555
Au6 Nb0 3.127384 1_655
Au7 Te13 2.722681 1_555
Au7 Te6 2.734238 1_555
Au7 Te1 2.738585 1_455
Au7 Te9 2.747931 1_555
Au7 Nb1 3.116912 1_455
Au7 Nb1 3.127384 1_555
