# generated using pymatgen
data_FeNiBr18
_symmetry_space_group_name_H-M   'P 1'
_cell_length_a   8.77487706
_cell_length_b   8.78021039
_cell_length_c   8.77981711
_cell_angle_alpha   93.62570963
_cell_angle_beta   93.69034760
_cell_angle_gamma   93.60413796
_symmetry_Int_Tables_number   1
_chemical_formula_structural   FeNiBr18
_chemical_formula_sum   'Fe1 Ni1 Br18'
_cell_volume   672.16645130
_cell_formula_units_Z   1
loop_
 _symmetry_equiv_pos_site_id
 _symmetry_equiv_pos_as_xyz
  1  'x, y, z'
loop_
 _atom_site_type_symbol
 _atom_site_label
 _atom_site_symmetry_multiplicity
 _atom_site_fract_x
 _atom_site_fract_y
 _atom_site_fract_z
 _atom_site_occupancy
  Fe  Fe0  1  0.00000000  0.00000000  0.00000000  1
  Ni  Ni0  1  0.50000000  0.50000000  0.50000000  1
  Br  Br0  1  0.78656050  0.48608504  0.51505854  1
  Br  Br1  1  0.51482692  0.78636412  0.48580426  1
  Br  Br2  1  0.48598143  0.51516016  0.78642731  1
  Br  Br3  1  0.21343950  0.51391496  0.48494146  1
  Br  Br4  1  0.48517308  0.21363588  0.51419574  1
  Br  Br5  1  0.51401857  0.48483984  0.21357269  1
  Br  Br6  1  0.89577540  0.37078971  0.74431337  1
  Br  Br7  1  0.74416045  0.89576096  0.37072934  1
  Br  Br8  1  0.37085932  0.74433925  0.89586871  1
  Br  Br9  1  0.10422460  0.62921029  0.25568663  1
  Br  Br10  1  0.25583955  0.10423904  0.62927066  1
  Br  Br11  1  0.62914068  0.25566075  0.10413129  1
  Br  Br12  1  0.01388932  0.95515161  0.72674773  1
  Br  Br13  1  0.72653352  0.01397136  0.95459948  1
  Br  Br14  1  0.95482609  0.72670014  0.01367327  1
  Br  Br15  1  0.98611068  0.04484839  0.27325227  1
  Br  Br16  1  0.27346648  0.98602864  0.04540052  1
  Br  Br17  1  0.04517391  0.27329986  0.98632673  1
loop_
_geom_bond_atom_site_label_1
_geom_bond_atom_site_label_2
_geom_bond_distance
_geom_bond_site_symmetry_2
Br0 Br6 2.475078 1_555
Br0 Ni0 2.520547 1_555
Br1 Br7 2.476790 1_555
Br1 Ni0 2.520902 1_555
Br2 Br8 2.475648 1_555
Br2 Ni0 2.521212 1_555
Br3 Br9 2.475078 1_555
Br3 Ni0 2.520547 1_555
Br4 Ni0 2.520902 1_555
Br5 Ni0 2.521212 1_555
Br10 Br4 2.476790 1_555
Br10 Br12 2.641901 1_545
Br11 Br5 2.475648 1_555
Br11 Br13 2.641454 1_554
Br12 Fe0 2.418638 1_566
Br13 Fe0 2.419142 1_656
Br14 Fe0 2.419243 1_665
Br14 Br9 2.641734 1_655
Br15 Fe0 2.418638 1_655
Br15 Br7 2.641901 1_545
Br16 Fe0 2.419142 1_565
Br16 Br8 2.641454 1_554
Br17 Fe0 2.419243 1_556
Br17 Br6 2.641734 1_455
