# generated using pymatgen
data_Ti8FeCuBi4
_symmetry_space_group_name_H-M   'P 1'
_cell_length_a   7.91719275
_cell_length_b   7.91719315
_cell_length_c   7.91719271
_cell_angle_alpha   95.48617142
_cell_angle_beta   95.48617023
_cell_angle_gamma   143.97777984
_symmetry_Int_Tables_number   1
_chemical_formula_structural   Ti8FeCuBi4
_chemical_formula_sum   'Ti8 Fe1 Cu1 Bi4'
_cell_volume   277.55115833
_cell_formula_units_Z   1
loop_
 _symmetry_equiv_pos_site_id
 _symmetry_equiv_pos_as_xyz
  1  'x, y, z'
loop_
 _atom_site_type_symbol
 _atom_site_label
 _atom_site_symmetry_multiplicity
 _atom_site_fract_x
 _atom_site_fract_y
 _atom_site_fract_z
 _atom_site_occupancy
  Ti  Ti0  1  0.57788584  0.69371265  0.27754879  1
  Ti  Ti1  1  0.92211416  0.19966295  0.11582782  1
  Ti  Ti2  1  0.30033705  0.57788584  0.88417218  1
  Ti  Ti3  1  0.80628735  0.92211416  0.72245121  1
  Ti  Ti4  1  0.69371265  0.41616387  0.11582782  1
  Ti  Ti5  1  0.08383613  0.80628735  0.88417218  1
  Ti  Ti6  1  0.41616387  0.30033705  0.72245121  1
  Ti  Ti7  1  0.19966295  0.08383613  0.27754879  1
  Fe  Fe0  1  0.25000000  0.25000000  0.00000000  1
  Cu  Cu0  1  0.75000000  0.75000000  0.00000000  1
  Bi  Bi0  1  0.35797490  0.85797490  0.21594981  1
  Bi  Bi1  1  0.14202510  0.35797490  0.50000000  1
  Bi  Bi2  1  0.64202510  0.14202510  0.78405019  1
  Bi  Bi3  1  0.85797490  0.64202510  0.50000000  1
loop_
_geom_bond_atom_site_label_1
_geom_bond_atom_site_label_2
_geom_bond_distance
_geom_bond_site_symmetry_2
Ti0 Ti1 2.969216 1_455
Ti0 Ti7 2.982128 1_555
Ti0 Ti1 3.016868 1_565
Ti0 Ti7 3.029580 1_665
Ti0 Ti4 3.202338 1_555
Ti0 Ti2 3.202347 1_554
Ti0 Ti3 3.349896 1_555
Ti1 Ti2 2.982141 1_654
Ti1 Ti2 3.029585 1_544
Ti1 Ti7 3.202338 1_655
Ti1 Ti3 3.202347 1_544
Ti1 Ti4 3.349896 1_555
Ti2 Ti3 2.969216 1_445
Ti2 Ti3 3.016867 1_555
Ti2 Ti6 3.202338 1_555
Ti2 Ti5 3.349896 1_555
Ti3 Ti6 2.982128 1_665
Ti3 Ti6 3.029581 1_555
Ti3 Ti5 3.202338 1_655
Ti4 Ti7 2.969212 1_555
Ti4 Ti5 2.982133 1_544
Ti4 Ti7 3.016872 1_665
Ti4 Ti5 3.029593 1_654
Ti4 Ti6 3.202347 1_554
Ti5 Ti6 2.969212 1_565
Ti5 Ti6 3.016872 1_455
Ti5 Ti7 3.202347 1_566
Ti6 Ti7 3.349896 1_555
Fe0 Ti6 2.567144 1_554
Fe0 Ti7 2.567144 1_555
Fe0 Ti3 2.567144 1_444
Fe0 Ti0 2.567145 1_555
Fe0 Ti4 2.567146 1_555
Fe0 Ti5 2.567146 1_544
Fe0 Ti1 2.567148 1_455
Fe0 Ti2 2.567148 1_554
Cu0 Fe0 2.448007 1_665
Cu0 Fe0 2.448007 1_555
Cu0 Ti0 2.580997 1_555
Cu0 Ti3 2.580997 1_554
Cu0 Ti7 2.580997 1_665
Cu0 Ti6 2.580998 1_554
Cu0 Ti2 2.580999 1_554
Cu0 Ti1 2.580999 1_565
Cu0 Ti5 2.581001 1_654
Cu0 Ti4 2.581001 1_555
Bi0 Ti0 2.929509 1_555
Bi0 Ti7 2.929509 1_565
Bi0 Ti5 3.007589 1_554
Bi0 Ti2 3.007590 1_554
Bi0 Ti4 3.048793 1_565
Bi0 Ti1 3.048797 1_455
Bi0 Ti1 3.072096 1_565
Bi0 Ti4 3.072100 1_455
Bi1 Ti1 2.929501 1_455
Bi1 Ti2 2.929501 1_555
Bi1 Ti6 3.007583 1_555
Bi1 Ti7 3.007583 1_555
Bi1 Ti0 3.048797 1_555
Bi1 Ti3 3.048797 1_445
Bi1 Ti3 3.072099 1_555
Bi1 Ti0 3.072100 1_445
Bi2 Ti6 2.929509 1_555
Bi2 Ti3 2.929509 1_545
Bi2 Ti1 3.007589 1_556
Bi2 Ti4 3.007590 1_556
Bi2 Ti5 3.048793 1_545
Bi2 Ti2 3.048797 1_655
Bi2 Ti2 3.072096 1_545
Bi2 Ti5 3.072100 1_655
Bi3 Ti5 2.929501 1_655
Bi3 Ti4 2.929501 1_555
Bi3 Ti0 3.007583 1_555
Bi3 Ti3 3.007583 1_555
Bi3 Ti7 3.048797 1_555
Bi3 Ti6 3.048797 1_665
Bi3 Ti6 3.072099 1_555
Bi3 Ti7 3.072099 1_665
