# generated using pymatgen
data_NaMgCoH6
_symmetry_space_group_name_H-M   'P 1'
_cell_length_a   6.61118074
_cell_length_b   6.61118074
_cell_length_c   6.61118074
_cell_angle_alpha   90.00000000
_cell_angle_beta   90.00000000
_cell_angle_gamma   90.00000000
_symmetry_Int_Tables_number   1
_chemical_formula_structural   NaMgCoH6
_chemical_formula_sum   'Na4 Mg4 Co4 H24'
_cell_volume   288.95957554
_cell_formula_units_Z   4
loop_
 _symmetry_equiv_pos_site_id
 _symmetry_equiv_pos_as_xyz
  1  'x, y, z'
loop_
 _atom_site_type_symbol
 _atom_site_label
 _atom_site_symmetry_multiplicity
 _atom_site_fract_x
 _atom_site_fract_y
 _atom_site_fract_z
 _atom_site_occupancy
  Na  Na0  1  0.00000000  0.00000000  0.50000000  1
  Na  Na1  1  0.00000000  0.50000000  0.00000000  1
  Na  Na2  1  0.50000000  0.00000000  0.00000000  1
  Na  Na3  1  0.00000000  0.00000000  0.00000000  1
  Mg  Mg0  1  0.50000000  0.50000000  0.50000000  1
  Mg  Mg1  1  0.00000000  0.50000000  0.50000000  1
  Mg  Mg2  1  0.50000000  0.00000000  0.50000000  1
  Mg  Mg3  1  0.50000000  0.50000000  0.00000000  1
  Co  Co0  1  0.26846577  0.73153423  0.73153423  1
  Co  Co1  1  0.73153423  0.26846577  0.73153423  1
  Co  Co2  1  0.73153423  0.73153423  0.26846577  1
  Co  Co3  1  0.26846577  0.26846577  0.26846577  1
  H  H0  1  0.73659508  0.73659508  0.49618271  1
  H  H1  1  0.26340492  0.26340492  0.49618271  1
  H  H2  1  0.03802993  0.73345566  0.73345566  1
  H  H3  1  0.26654434  0.96197007  0.73345566  1
  H  H4  1  0.73345566  0.03802993  0.73345566  1
  H  H5  1  0.96197007  0.26654434  0.73345566  1
  H  H6  1  0.73659508  0.49618271  0.73659508  1
  H  H7  1  0.49618271  0.73659508  0.73659508  1
  H  H8  1  0.50381729  0.26340492  0.73659508  1
  H  H9  1  0.26340492  0.50381729  0.73659508  1
  H  H10  1  0.26654434  0.73345566  0.96197007  1
  H  H11  1  0.73345566  0.26654434  0.96197007  1
  H  H12  1  0.73345566  0.73345566  0.03802993  1
  H  H13  1  0.26654434  0.26654434  0.03802993  1
  H  H14  1  0.26340492  0.49618271  0.26340492  1
  H  H15  1  0.50381729  0.73659508  0.26340492  1
  H  H16  1  0.49618271  0.26340492  0.26340492  1
  H  H17  1  0.73659508  0.50381729  0.26340492  1
  H  H18  1  0.96197007  0.73345566  0.26654434  1
  H  H19  1  0.73345566  0.96197007  0.26654434  1
  H  H20  1  0.26654434  0.03802993  0.26654434  1
  H  H21  1  0.03802993  0.26654434  0.26654434  1
  H  H22  1  0.26340492  0.73659508  0.50381729  1
  H  H23  1  0.73659508  0.26340492  0.50381729  1
loop_
_geom_bond_atom_site_label_1
_geom_bond_atom_site_label_2
_geom_bond_distance
_geom_bond_site_symmetry_2
Co0 H9 1.506221 1_555
Co0 H22 1.506221 1_555
Co0 H7 1.506221 1_555
Co0 H2 1.523559 1_555
Co0 H3 1.523559 1_555
Co0 H10 1.523559 1_555
Co1 H8 1.506221 1_555
Co1 H6 1.506221 1_555
Co1 H23 1.506221 1_555
Co1 H4 1.523559 1_555
Co1 H5 1.523559 1_555
Co1 H11 1.523559 1_555
Co2 H15 1.506221 1_555
Co2 H0 1.506221 1_555
Co2 H17 1.506221 1_555
Co2 H18 1.523559 1_555
Co2 H19 1.523559 1_555
Co2 H12 1.523559 1_555
Co3 H16 1.506221 1_555
Co3 H14 1.506221 1_555
Co3 H1 1.506221 1_555
Co3 H20 1.523559 1_555
Co3 H21 1.523559 1_555
Co3 H13 1.523559 1_555
H0 Mg0 2.212218 1_555
H0 Mg2 2.340899 1_565
H0 Mg1 2.340899 1_655
H0 Na0 2.462866 1_665
H1 Mg0 2.212218 1_555
H1 Mg1 2.340899 1_555
H1 Mg2 2.340899 1_555
H1 Na0 2.462866 1_555
H2 Mg1 2.197155 1_555
H2 Na0 2.355972 1_565
H2 Na1 2.355972 1_556
H2 Na3 2.504739 1_566
H3 Mg2 2.197155 1_565
H3 Na0 2.355972 1_565
H3 Na2 2.355972 1_566
H3 Na3 2.504739 1_566
H4 Mg2 2.197155 1_555
H4 Na0 2.355972 1_655
H4 Na2 2.355972 1_556
H4 Na3 2.504739 1_656
H5 Mg1 2.197155 1_655
H5 Na0 2.355972 1_655
H5 Na1 2.355972 1_656
H5 Na3 2.504739 1_656
H6 Mg0 2.212218 1_555
H6 Mg3 2.340899 1_556
H6 Mg1 2.340899 1_655
H6 Na1 2.462866 1_656
H7 Mg0 2.212218 1_555
H7 Mg3 2.340899 1_556
H7 Mg2 2.340899 1_565
H7 Na2 2.462866 1_566
H8 Mg0 2.212218 1_555
H8 Mg3 2.340899 1_556
H8 Mg2 2.340899 1_555
H8 Na2 2.462866 1_556
H9 Mg0 2.212218 1_555
H9 Mg3 2.340899 1_556
H9 Mg1 2.340899 1_555
H9 Na1 2.462866 1_556
H10 Mg3 2.197155 1_556
H10 Na1 2.355972 1_556
H10 Na2 2.355972 1_566
H10 Na3 2.504739 1_566
H11 Mg3 2.197155 1_556
H11 Na2 2.355972 1_556
H11 Na1 2.355972 1_656
H11 Na3 2.504739 1_656
H12 Mg3 2.197155 1_555
H12 Na1 2.355972 1_655
H12 Na2 2.355972 1_565
H12 Na3 2.504739 1_665
H13 Mg3 2.197155 1_555
H13 Na1 2.355972 1_555
H13 Na2 2.355972 1_555
H13 Na3 2.504739 1_555
H14 Mg0 2.212218 1_555
H14 Mg1 2.340899 1_555
H14 Mg3 2.340899 1_555
H14 Na1 2.462866 1_555
H15 Mg0 2.212218 1_555
H15 Mg2 2.340899 1_565
H15 Mg3 2.340899 1_555
H15 Na2 2.462866 1_565
H16 Mg0 2.212218 1_555
H16 Mg2 2.340899 1_555
H16 Mg3 2.340899 1_555
H16 Na2 2.462866 1_555
H17 Mg0 2.212218 1_555
H17 Mg1 2.340899 1_655
H17 Mg3 2.340899 1_555
H17 Na1 2.462866 1_655
H18 Mg1 2.197155 1_655
H18 Na1 2.355972 1_655
H18 Na0 2.355972 1_665
H18 Na3 2.504739 1_665
H19 Mg2 2.197155 1_565
H19 Na2 2.355972 1_565
H19 Na0 2.355972 1_665
H19 Na3 2.504739 1_665
H20 Mg2 2.197155 1_555
H20 Na0 2.355972 1_555
H20 Na2 2.355972 1_555
H20 Na3 2.504739 1_555
H21 Mg1 2.197155 1_555
H21 Na0 2.355972 1_555
H21 Na1 2.355972 1_555
H21 Na3 2.504739 1_555
H22 Mg0 2.212218 1_555
H22 Mg2 2.340899 1_565
H22 Mg1 2.340899 1_555
H22 Na0 2.462866 1_565
H23 Mg0 2.212218 1_555
H23 Mg1 2.340899 1_655
H23 Mg2 2.340899 1_555
H23 Na0 2.462866 1_655
