# generated using pymatgen
data_Ca12Zn11GaN4
_symmetry_space_group_name_H-M   'P 1'
_cell_length_a   9.16307257
_cell_length_b   9.16307198
_cell_length_c   9.14649953
_cell_angle_alpha   59.94003800
_cell_angle_beta   59.94004001
_cell_angle_gamma   60.00000276
_symmetry_Int_Tables_number   1
_chemical_formula_structural   Ca12Zn11GaN4
_chemical_formula_sum   'Ca12 Zn11 Ga1 N4'
_cell_volume   542.53523816
_cell_formula_units_Z   1
loop_
 _symmetry_equiv_pos_site_id
 _symmetry_equiv_pos_as_xyz
  1  'x, y, z'
loop_
 _atom_site_type_symbol
 _atom_site_label
 _atom_site_symmetry_multiplicity
 _atom_site_fract_x
 _atom_site_fract_y
 _atom_site_fract_z
 _atom_site_occupancy
  Ca  Ca0  1  0.80478659  0.19514404  0.19528378  1
  Ca  Ca1  1  0.19514404  0.80478659  0.19528378  1
  Ca  Ca2  1  0.80478659  0.80478659  0.19528378  1
  Ca  Ca3  1  0.19617584  0.80426490  0.80338341  1
  Ca  Ca4  1  0.80426490  0.19617584  0.80338341  1
  Ca  Ca5  1  0.19617584  0.19617584  0.80338341  1
  Ca  Ca6  1  0.44583003  0.05434082  0.05400012  1
  Ca  Ca7  1  0.05434082  0.44583003  0.05400012  1
  Ca  Ca8  1  0.44583003  0.44583003  0.05400012  1
  Ca  Ca9  1  0.05349574  0.44649444  0.44651408  1
  Ca  Ca10  1  0.44649444  0.05349574  0.44651408  1
  Ca  Ca11  1  0.05349574  0.05349574  0.44651408  1
  Zn  Zn0  1  0.42775947  0.42775947  0.42874141  1
  Zn  Zn1  1  0.71573965  0.42775947  0.42874141  1
  Zn  Zn2  1  0.42775947  0.71573965  0.42874141  1
  Zn  Zn3  1  0.82321759  0.82321759  0.53034724  1
  Zn  Zn4  1  0.82173814  0.82173814  0.82202687  1
  Zn  Zn5  1  0.53449685  0.82173814  0.82202687  1
  Zn  Zn6  1  0.82173814  0.53449685  0.82202687  1
  Zn  Zn7  1  0.62557640  0.62557640  0.12326981  1
  Zn  Zn8  1  0.62507301  0.62507301  0.62585599  1
  Zn  Zn9  1  0.12399900  0.62507301  0.62585599  1
  Zn  Zn10  1  0.62507301  0.12399900  0.62585599  1
  Ga  Ga0  1  0.42626351  0.42626351  0.72120946  1
  N  N0  1  0.12537364  0.12537364  0.62387808  1
  N  N1  1  0.12483950  0.12483950  0.12462747  1
  N  N2  1  0.62569453  0.12483950  0.12462747  1
  N  N3  1  0.12483950  0.62569453  0.12462747  1
loop_
_geom_bond_atom_site_label_1
_geom_bond_atom_site_label_2
_geom_bond_distance
_geom_bond_site_symmetry_2
Ca0 N2 2.462181 1_555
Ca0 N1 2.462181 1_655
Ca0 Zn3 3.242645 1_545
Ca0 Zn10 3.263572 1_555
Ca0 Zn6 3.265763 1_554
Ca0 Zn7 3.269640 1_555
Ca0 Zn1 3.292952 1_555
Ca0 Zn0 3.292956 1_555
Ca1 N1 2.462181 1_565
Ca1 N3 2.462181 1_555
Ca1 Zn3 3.242645 1_455
Ca1 Zn9 3.263572 1_555
Ca1 Zn5 3.265763 1_554
Ca1 Zn7 3.269641 1_555
Ca1 Zn2 3.292952 1_555
Ca1 Zn0 3.292956 1_555
Ca2 N2 2.462181 1_565
Ca2 N3 2.462181 1_655
Ca2 Zn3 3.242640 1_555
Ca2 Zn8 3.263571 1_555
Ca2 Zn4 3.265767 1_554
Ca2 Zn7 3.269656 1_555
Ca2 Zn1 3.292959 1_555
Ca2 Zn2 3.292960 1_555
Ca3 N3 2.463121 1_556
Ca3 N0 2.468303 1_565
Ca3 Zn9 3.256176 1_555
Ca3 Zn8 3.256182 1_555
Ca3 Zn2 3.268282 1_555
Ca3 Zn5 3.273892 1_555
Ca3 Zn4 3.273892 1_455
Ca3 Ga0 3.274882 1_555
Ca4 N2 2.463121 1_556
Ca4 N0 2.468303 1_655
Ca4 Zn10 3.256176 1_555
Ca4 Zn8 3.256182 1_555
Ca4 Zn1 3.268282 1_555
Ca4 Zn4 3.273892 1_545
Ca4 Zn6 3.273892 1_555
Ca4 Ga0 3.274882 1_555
Ca5 N1 2.463123 1_556
Ca5 N0 2.468310 1_555
Ca5 Zn9 3.256183 1_555
Ca5 Zn10 3.256184 1_555
Ca5 Zn0 3.268281 1_555
Ca5 Zn5 3.273892 1_545
Ca5 Zn6 3.273892 1_455
Ca5 Ga0 3.274882 1_555
Ca6 N2 2.469855 1_555
Ca6 N1 2.469855 1_555
Ca6 Ga0 3.233417 1_554
Ca6 Zn10 3.246695 1_554
Ca6 Zn7 3.260437 1_545
Ca6 Zn2 3.270073 1_545
Ca6 Zn4 3.282731 1_544
Ca6 Zn5 3.282734 1_544
Ca7 N1 2.469855 1_555
Ca7 N3 2.469855 1_555
Ca7 Ga0 3.233417 1_554
Ca7 Zn9 3.246695 1_554
Ca7 Zn7 3.260437 1_455
Ca7 Zn1 3.270073 1_455
Ca7 Zn4 3.282731 1_454
Ca7 Zn6 3.282735 1_454
Ca8 N2 2.469855 1_555
Ca8 N3 2.469855 1_555
Ca8 Ga0 3.233422 1_554
Ca8 Zn8 3.246695 1_554
Ca8 Zn7 3.260421 1_555
Ca8 Zn0 3.270069 1_555
Ca8 Zn5 3.282726 1_554
Ca8 Zn6 3.282727 1_554
Ca9 N0 2.464527 1_555
Ca9 N3 2.468546 1_555
Ca9 Zn8 3.254748 1_455
Ca9 Zn9 3.254755 1_555
Ca9 Zn1 3.270698 1_455
Ca9 Zn0 3.270698 1_555
Ca9 Zn3 3.271573 1_455
Ca9 Zn6 3.272886 1_455
Ca10 N0 2.464527 1_555
Ca10 N2 2.468546 1_555
Ca10 Zn8 3.254748 1_545
Ca10 Zn10 3.254755 1_555
Ca10 Zn0 3.270698 1_555
Ca10 Zn2 3.270698 1_545
Ca10 Zn3 3.271574 1_545
Ca10 Zn5 3.272886 1_545
Ca11 N0 2.464521 1_555
Ca11 N1 2.468545 1_555
Ca11 Zn9 3.254747 1_545
Ca11 Zn10 3.254747 1_455
Ca11 Zn1 3.270698 1_455
Ca11 Zn2 3.270698 1_545
Ca11 Zn3 3.271573 1_445
Ca11 Zn4 3.272886 1_445
Zn0 Zn2 2.638783 1_555
Zn0 Zn1 2.638783 1_555
Zn0 Zn10 2.733584 1_555
Zn0 Zn9 2.733584 1_555
Zn0 Zn7 2.741510 1_555
Zn1 Zn2 2.638783 1_555
Zn1 Zn10 2.733579 1_555
Zn1 Zn8 2.733587 1_555
Zn1 Zn7 2.741515 1_555
Zn2 Zn9 2.733580 1_555
Zn2 Zn8 2.733588 1_555
Zn2 Zn7 2.741515 1_555
Zn3 Zn6 2.654336 1_555
Zn3 Zn5 2.654336 1_555
Zn3 Zn4 2.654336 1_555
Zn3 Zn8 2.733971 1_555
Zn3 Zn9 2.733979 1_655
Zn4 Zn6 2.632013 1_555
Zn4 Zn5 2.632013 1_555
Zn4 Zn7 2.713150 1_556
Zn4 Zn9 2.721660 1_655
Zn5 Zn6 2.632013 1_555
Zn5 Zn7 2.713146 1_556
Zn5 Zn8 2.721657 1_555
Zn6 Zn7 2.713146 1_556
Zn6 Zn8 2.721657 1_555
Zn6 Zn9 2.721664 1_655
Zn10 Zn4 2.721660 1_545
Zn10 Zn5 2.721664 1_545
Zn10 Zn3 2.733979 1_545
Ga0 Zn2 2.661397 1_555
Ga0 Zn1 2.661397 1_555
Ga0 Zn0 2.661397 1_555
Ga0 Zn10 2.744646 1_555
Ga0 Zn9 2.744646 1_555
Ga0 Zn8 2.744653 1_555
