# generated using pymatgen
data_Li4MgSn2Se7
_symmetry_space_group_name_H-M   'P 1'
_cell_length_a   9.85570534
_cell_length_b   9.85570500
_cell_length_c   10.81755321
_cell_angle_alpha   86.75164125
_cell_angle_beta   86.75164010
_cell_angle_gamma   43.33733497
_symmetry_Int_Tables_number   1
_chemical_formula_structural   Li4MgSn2Se7
_chemical_formula_sum   'Li8 Mg2 Sn4 Se14'
_cell_volume   719.78844236
_cell_formula_units_Z   2
loop_
 _symmetry_equiv_pos_site_id
 _symmetry_equiv_pos_as_xyz
  1  'x, y, z'
loop_
 _atom_site_type_symbol
 _atom_site_label
 _atom_site_symmetry_multiplicity
 _atom_site_fract_x
 _atom_site_fract_y
 _atom_site_fract_z
 _atom_site_occupancy
  Li  Li0  1  0.52716230  0.18292976  0.41135198  1
  Li  Li1  1  0.18292976  0.52716230  0.91135198  1
  Li  Li2  1  0.91198433  0.22314965  0.33562696  1
  Li  Li3  1  0.22314965  0.91198433  0.83562696  1
  Li  Li4  1  0.68078958  0.31154810  0.69778923  1
  Li  Li5  1  0.31154810  0.68078958  0.19778923  1
  Li  Li6  1  0.03991899  0.38341510  0.61453277  1
  Li  Li7  1  0.38341510  0.03991899  0.11453277  1
  Mg  Mg0  1  0.93169273  0.63473183  0.25821729  1
  Mg  Mg1  1  0.63473183  0.93169273  0.75821729  1
  Sn  Sn0  1  0.46966691  0.81045028  0.46985402  1
  Sn  Sn1  1  0.81045028  0.46966691  0.96985402  1
  Sn  Sn2  1  0.08070528  0.76722422  0.53895171  1
  Sn  Sn3  1  0.76722422  0.08070528  0.03895171  1
  Se  Se0  1  0.36794433  0.69142966  0.63517453  1
  Se  Se1  1  0.69142966  0.36794433  0.13517453  1
  Se  Se2  1  0.22470483  0.54909493  0.35272934  1
  Se  Se3  1  0.54909493  0.22470483  0.85272934  1
  Se  Se4  1  0.00617423  0.63702708  0.70761647  1
  Se  Se5  1  0.63702708  0.00617423  0.20761647  1
  Se  Se6  1  0.27241527  0.94056016  0.27955093  1
  Se  Se7  1  0.94056016  0.27241527  0.77955093  1
  Se  Se8  1  0.41154377  0.07731527  0.56779878  1
  Se  Se9  1  0.07731527  0.41154377  0.06779878  1
  Se  Se10  1  0.83295615  0.51289019  0.42075418  1
  Se  Se11  1  0.51289019  0.83295615  0.92075418  1
  Se  Se12  1  0.79563132  0.12944475  0.49838382  1
  Se  Se13  1  0.12944475  0.79563132  0.99838382  1
loop_
_geom_bond_atom_site_label_1
_geom_bond_atom_site_label_2
_geom_bond_distance
_geom_bond_site_symmetry_2
Li0 Se12 2.522393 1_555
Li0 Se5 2.546610 1_555
Li0 Se8 2.559934 1_555
Li0 Se2 2.572533 1_555
Li1 Se13 2.522393 1_555
Li1 Se4 2.546610 1_555
Li1 Se9 2.559934 1_556
Li1 Se3 2.572533 1_555
Li2 Se6 2.509830 1_645
Li2 Se12 2.528874 1_555
Li2 Se10 2.567183 1_555
Li2 Se1 2.671079 1_555
Li3 Se7 2.509830 1_465
Li3 Se13 2.528874 1_555
Li3 Se11 2.567184 1_555
Li3 Se0 2.671079 1_555
Li4 Se7 2.503469 1_555
Li4 Se12 2.522362 1_555
Li4 Se3 2.536399 1_555
Li4 Se0 2.672085 1_555
Li5 Se6 2.503469 1_555
Li5 Se13 2.522362 1_554
Li5 Se2 2.536399 1_555
Li5 Se1 2.672085 1_555
Li6 Se4 2.531838 1_555
Li6 Se7 2.545822 1_455
Li6 Se10 2.564806 1_455
Li6 Se8 2.580982 1_555
Li7 Se5 2.531838 1_555
Li7 Se6 2.545822 1_545
Li7 Se11 2.564806 1_544
Li7 Se9 2.580982 1_555
Mg0 Se5 2.573550 1_565
Mg0 Se9 2.593754 1_655
Mg0 Se10 2.597513 1_555
Mg0 Se2 2.605483 1_655
Mg1 Se4 2.573550 1_655
Mg1 Se8 2.593754 1_565
Mg1 Se11 2.597513 1_555
Mg1 Se3 2.605483 1_565
Se0 Sn2 2.612536 1_555
Se0 Sn0 2.617082 1_555
Se1 Sn3 2.612536 1_555
Se1 Sn1 2.617082 1_554
Se2 Sn2 2.534275 1_555
Se3 Sn3 2.534276 1_556
Se4 Sn2 2.543419 1_555
Se5 Sn3 2.543419 1_555
Se6 Sn0 2.487903 1_555
Se7 Sn1 2.487903 1_555
Se8 Sn0 2.534511 1_545
Se9 Sn1 2.534511 1_454
Se10 Sn0 2.527668 1_555
Se11 Sn1 2.527668 1_555
Se12 Sn2 2.490540 1_645
Se13 Sn3 2.490540 1_466
