# generated using pymatgen
data_MgZn3CdPd
_symmetry_space_group_name_H-M   'P 1'
_cell_length_a   5.19013941
_cell_length_b   5.19013915
_cell_length_c   5.19013920
_cell_angle_alpha   58.82675382
_cell_angle_beta   58.82673800
_cell_angle_gamma   58.82675417
_symmetry_Int_Tables_number   1
_chemical_formula_structural   MgZn3CdPd
_chemical_formula_sum   'Mg1 Zn3 Cd1 Pd1'
_cell_volume   96.21192435
_cell_formula_units_Z   1
loop_
 _symmetry_equiv_pos_site_id
 _symmetry_equiv_pos_as_xyz
  1  'x, y, z'
loop_
 _atom_site_type_symbol
 _atom_site_label
 _atom_site_symmetry_multiplicity
 _atom_site_fract_x
 _atom_site_fract_y
 _atom_site_fract_z
 _atom_site_occupancy
  Mg  Mg0  1  0.49578200  0.49578200  0.49578200  1
  Zn  Zn0  1  0.62535176  0.12519893  0.12519893  1
  Zn  Zn1  1  0.12519893  0.12519893  0.62535176  1
  Zn  Zn2  1  0.12519893  0.62535176  0.12519893  1
  Cd  Cd0  1  0.75260770  0.75260770  0.75260770  1
  Pd  Pd0  1  0.12586068  0.12586068  0.12586068  1
loop_
_geom_bond_atom_site_label_1
_geom_bond_atom_site_label_2
_geom_bond_distance
_geom_bond_site_symmetry_2
Mg0 Pd0 2.980402 1_556
Mg0 Pd0 2.980402 1_655
Mg0 Pd0 2.980403 1_565
Mg0 Zn0 3.000453 1_555
Mg0 Zn1 3.000453 1_555
Mg0 Zn2 3.000453 1_555
Mg0 Zn2 3.042017 1_556
Mg0 Zn2 3.042017 1_655
Mg0 Zn1 3.042018 1_565
Mg0 Zn0 3.042018 1_565
Mg0 Zn0 3.042018 1_556
Mg0 Zn1 3.042018 1_655
Zn0 Zn1 2.548135 1_654
Zn0 Zn2 2.548135 1_645
Zn0 Zn1 2.549693 1_555
Zn0 Zn2 2.549694 1_555
Zn1 Zn2 2.548135 1_546
Zn1 Zn2 2.549694 1_555
Cd0 Pd0 2.987427 1_665
Cd0 Pd0 2.987427 1_566
Cd0 Pd0 2.987428 1_656
Cd0 Zn0 3.023624 1_566
Cd0 Zn1 3.023624 1_665
Cd0 Zn2 3.023625 1_656
Cd0 Zn2 3.027332 1_655
Cd0 Zn2 3.027332 1_556
Cd0 Zn0 3.027332 1_556
Cd0 Zn1 3.027332 1_655
Cd0 Zn0 3.027333 1_565
Cd0 Zn1 3.027333 1_565
Cd0 Mg0 3.102475 1_556
Cd0 Mg0 3.102476 1_655
Cd0 Mg0 3.102476 1_565
Cd0 Mg0 3.293727 1_555
Pd0 Zn2 2.588877 1_555
Pd0 Zn1 2.588877 1_555
Pd0 Zn0 2.588877 1_555
Pd0 Zn2 2.601271 1_545
Pd0 Zn1 2.601271 1_554
Pd0 Zn0 2.601271 1_455
