# generated using pymatgen
data_RbMn3Ge2O9
_symmetry_space_group_name_H-M   'P 1'
_cell_length_a   5.89319132
_cell_length_b   5.88961673
_cell_length_c   14.00942833
_cell_angle_alpha   90.04907353
_cell_angle_beta   89.91478960
_cell_angle_gamma   120.02463112
_symmetry_Int_Tables_number   1
_chemical_formula_structural   RbMn3Ge2O9
_chemical_formula_sum   'Rb2 Mn6 Ge4 O18'
_cell_volume   420.99825030
_cell_formula_units_Z   2
loop_
 _symmetry_equiv_pos_site_id
 _symmetry_equiv_pos_as_xyz
  1  'x, y, z'
loop_
 _atom_site_type_symbol
 _atom_site_label
 _atom_site_symmetry_multiplicity
 _atom_site_fract_x
 _atom_site_fract_y
 _atom_site_fract_z
 _atom_site_occupancy
  Rb  Rb0  1  0.33327555  0.66650178  0.74999222  1
  Rb  Rb1  1  0.66674761  0.33347902  0.25000446  1
  Mn  Mn0  1  0.50006164  0.50001627  0.50000117  1
  Mn  Mn1  1  0.49994934  0.99999295  0.99999673  1
  Mn  Mn2  1  0.49994777  0.49999591  0.00000530  1
  Mn  Mn3  1  0.00004822  0.49999433  0.50000207  1
  Mn  Mn4  1  0.50003754  0.00000757  0.50000366  1
  Mn  Mn5  1  0.99995150  0.49999639  0.99999373  1
  Ge  Ge0  1  0.99982613  0.99949077  0.62417943  1
  Ge  Ge1  1  0.00022678  0.00051903  0.37582191  1
  Ge  Ge2  1  0.00020475  0.00052258  0.12421325  1
  Ge  Ge3  1  0.99973629  0.99947130  0.87578634  1
  O  O0  1  0.99923520  0.99823902  0.74999864  1
  O  O1  1  0.00074759  0.00176737  0.25000305  1
  O  O2  1  0.66653360  0.33346979  0.55824785  1
  O  O3  1  0.33355699  0.66654325  0.44175604  1
  O  O4  1  0.33300802  0.66658740  0.05823496  1
  O  O5  1  0.66689405  0.33340880  0.94176079  1
  O  O6  1  0.16436519  0.83574323  0.58532938  1
  O  O7  1  0.67188989  0.83507540  0.58559993  1
  O  O8  1  0.16376083  0.32770924  0.58580420  1
  O  O9  1  0.83568524  0.16426151  0.41467667  1
  O  O10  1  0.32816881  0.16494165  0.41440204  1
  O  O11  1  0.83632307  0.67229952  0.41419640  1
  O  O12  1  0.83542085  0.16365216  0.08559754  1
  O  O13  1  0.32850989  0.16549210  0.08538153  1
  O  O14  1  0.83715154  0.67228304  0.08578322  1
  O  O15  1  0.16451230  0.83632274  0.91439061  1
  O  O16  1  0.67143310  0.83450290  0.91461946  1
  O  O17  1  0.16278572  0.32771397  0.91421440  1
loop_
_geom_bond_atom_site_label_1
_geom_bond_atom_site_label_2
_geom_bond_distance
_geom_bond_site_symmetry_2
Mn0 O2 1.886068 1_555
Mn0 O3 1.886120 1_555
Mn0 O7 2.087448 1_555
Mn0 O10 2.087520 1_555
Mn0 O11 2.093866 1_555
Mn0 O8 2.094017 1_555
Mn1 O4 1.885862 1_556
Mn1 O5 1.885895 1_565
Mn1 O15 2.091253 1_555
Mn1 O12 2.091357 1_566
Mn1 O13 2.093241 1_566
Mn1 O16 2.093330 1_555
Mn2 O4 1.886334 1_555
Mn2 O5 1.886434 1_554
Mn2 O13 2.083544 1_555
Mn2 O16 2.083637 1_554
Mn2 O17 2.099879 1_554
Mn2 O14 2.099948 1_555
Mn3 O3 1.886320 1_555
Mn3 O2 1.886346 1_455
Mn3 O9 2.087979 1_455
Mn3 O6 2.088064 1_555
Mn3 O8 2.095364 1_555
Mn3 O11 2.095530 1_455
Mn4 O2 1.885968 1_555
Mn4 O3 1.885998 1_545
Mn4 O9 2.087439 1_555
Mn4 O6 2.087532 1_545
Mn4 O7 2.096990 1_545
Mn4 O10 2.097110 1_555
Mn5 O5 1.885963 1_555
Mn5 O4 1.886009 1_656
Mn5 O14 2.088848 1_556
Mn5 O17 2.088890 1_655
Mn5 O15 2.092984 1_655
Mn5 O12 2.093067 1_556
Ge0 O8 1.757975 1_665
Ge0 O7 1.759010 1_555
Ge0 O6 1.760662 1_655
Ge0 O0 1.762668 1_555
Ge1 O11 1.757977 1_445
Ge1 O10 1.759041 1_555
Ge1 O9 1.760670 1_455
Ge1 O1 1.762664 1_555
Ge2 O14 1.758187 1_445
Ge2 O12 1.759244 1_455
Ge2 O13 1.760633 1_555
Ge2 O1 1.762253 1_555
Ge3 O17 1.758194 1_665
Ge3 O15 1.759248 1_655
Ge3 O16 1.760629 1_555
Ge3 O0 1.762223 1_555
O0 Rb0 3.397300 1_655
O0 Rb0 3.397998 1_555
O0 Rb0 3.407667 1_665
O1 Rb1 3.396964 1_455
O1 Rb1 3.398205 1_555
O1 Rb1 3.407797 1_445
O6 Rb0 2.882637 1_555
O7 Rb0 2.877390 1_555
O8 Rb0 2.876528 1_555
O9 Rb1 2.882752 1_555
O10 Rb1 2.877340 1_555
O11 Rb1 2.876657 1_555
O12 Rb1 2.877096 1_555
O13 Rb1 2.882217 1_555
O14 Rb1 2.877291 1_555
O15 Rb0 2.877257 1_555
O16 Rb0 2.882019 1_555
O17 Rb0 2.877253 1_555
