# generated using pymatgen
data_Sc6Ta4Al12Ir7
_symmetry_space_group_name_H-M   'P 1'
_cell_length_a   8.80691013
_cell_length_b   8.80690986
_cell_length_c   8.80691072
_cell_angle_alpha   59.99999678
_cell_angle_beta   59.99999779
_cell_angle_gamma   59.99999965
_symmetry_Int_Tables_number   1
_chemical_formula_structural   Sc6Ta4Al12Ir7
_chemical_formula_sum   'Sc6 Ta4 Al12 Ir7'
_cell_volume   483.00952210
_cell_formula_units_Z   1
loop_
 _symmetry_equiv_pos_site_id
 _symmetry_equiv_pos_as_xyz
  1  'x, y, z'
loop_
 _atom_site_type_symbol
 _atom_site_label
 _atom_site_symmetry_multiplicity
 _atom_site_fract_x
 _atom_site_fract_y
 _atom_site_fract_z
 _atom_site_occupancy
  Sc  Sc0  1  0.69567600  0.69567600  0.30432400  1
  Sc  Sc1  1  0.30432400  0.69567600  0.30432400  1
  Sc  Sc2  1  0.69567600  0.30432400  0.30432400  1
  Sc  Sc3  1  0.30432400  0.30432400  0.69567600  1
  Sc  Sc4  1  0.69567600  0.30432400  0.69567600  1
  Sc  Sc5  1  0.30432400  0.69567600  0.69567600  1
  Ta  Ta0  1  0.87864879  0.87864879  0.36405363  1
  Ta  Ta1  1  0.87864879  0.36405363  0.87864879  1
  Ta  Ta2  1  0.36405363  0.87864879  0.87864879  1
  Ta  Ta3  1  0.87864879  0.87864879  0.87864879  1
  Al  Al0  1  0.12113595  0.12113595  0.63659414  1
  Al  Al1  1  0.12113595  0.63659414  0.12113595  1
  Al  Al2  1  0.63659414  0.12113595  0.12113595  1
  Al  Al3  1  0.12113595  0.12113595  0.12113595  1
  Al  Al4  1  0.65494129  0.65494129  0.03517612  1
  Al  Al5  1  0.65494129  0.03517612  0.65494129  1
  Al  Al6  1  0.03517612  0.65494129  0.65494129  1
  Al  Al7  1  0.65494129  0.65494129  0.65494129  1
  Al  Al8  1  0.33172550  0.33172550  0.00482550  1
  Al  Al9  1  0.33172550  0.00482550  0.33172550  1
  Al  Al10  1  0.00482550  0.33172550  0.33172550  1
  Al  Al11  1  0.33172550  0.33172550  0.33172550  1
  Ir  Ir0  1  0.00000000  0.00000000  0.00000000  1
  Ir  Ir1  1  0.99624578  0.99624578  0.50375422  1
  Ir  Ir2  1  0.50375422  0.99624578  0.50375422  1
  Ir  Ir3  1  0.99624578  0.50375422  0.50375422  1
  Ir  Ir4  1  0.50375422  0.50375422  0.99624578  1
  Ir  Ir5  1  0.99624578  0.50375422  0.99624578  1
  Ir  Ir6  1  0.50375422  0.99624578  0.99624578  1
loop_
_geom_bond_atom_site_label_1
_geom_bond_atom_site_label_2
_geom_bond_distance
_geom_bond_site_symmetry_2
Sc0 Ta0 3.124437 1_555
Sc0 Ta3 3.124437 1_554
Sc0 Sc2 3.446602 1_555
Sc0 Sc4 3.446602 1_555
Sc0 Sc1 3.446602 1_555
Sc0 Sc5 3.446602 1_555
Sc1 Ta0 3.124437 1_455
Sc1 Ta2 3.124437 1_554
Sc1 Sc3 3.446602 1_555
Sc1 Sc2 3.446602 1_555
Sc1 Sc5 3.446602 1_555
Sc2 Ta0 3.124437 1_545
Sc2 Ta1 3.124437 1_554
Sc2 Sc3 3.446602 1_555
Sc2 Sc4 3.446602 1_555
Sc3 Ta2 3.124437 1_545
Sc3 Ta1 3.124437 1_455
Sc3 Sc5 3.446602 1_555
Sc3 Sc4 3.446602 1_555
Sc4 Ta3 3.124437 1_545
Sc4 Ta1 3.124437 1_555
Sc4 Sc5 3.446602 1_555
Sc5 Ta3 3.124437 1_455
Sc5 Ta2 3.124437 1_555
Al0 Ir0 2.613183 1_556
Al0 Al11 2.751148 1_555
Al0 Al10 2.751148 1_555
Al0 Al9 2.751148 1_555
Al0 Ir3 2.751633 1_455
Al0 Ir2 2.751633 1_545
Al0 Ir1 2.751647 1_445
Al0 Ta1 3.020132 1_455
Al0 Ta2 3.020132 1_545
Al0 Ta3 3.020144 1_445
Al0 Sc3 3.123790 1_555
Al0 Sc5 3.123805 1_545
Al0 Sc4 3.123805 1_455
Al1 Ir0 2.613183 1_565
Al1 Al10 2.751147 1_555
Al1 Al11 2.751148 1_555
Al1 Al8 2.751148 1_555
Al1 Ir4 2.751633 1_554
Al1 Ir3 2.751633 1_455
Al1 Ir5 2.751647 1_454
Al1 Ta2 3.020131 1_554
Al1 Ta0 3.020132 1_455
Al1 Ta3 3.020144 1_454
Al1 Sc1 3.123790 1_555
Al1 Sc0 3.123805 1_455
Al1 Sc5 3.123806 1_554
Al2 Ir0 2.613183 1_655
Al2 Al9 2.751148 1_555
Al2 Al8 2.751148 1_555
Al2 Ir4 2.751633 1_554
Al2 Ir2 2.751633 1_545
Al2 Ir6 2.751647 1_544
Al2 Ta1 3.020131 1_554
Al2 Ta0 3.020132 1_545
Al2 Ta3 3.020144 1_544
Al2 Sc2 3.123790 1_555
Al2 Sc0 3.123805 1_545
Al2 Sc4 3.123806 1_554
Al3 Ir0 2.613198 1_555
Al3 Al8 2.751148 1_555
Al3 Al9 2.751148 1_555
Al3 Ir5 2.751633 1_454
Al3 Ir6 2.751633 1_544
Al3 Ir1 2.751633 1_445
Al3 Ta0 3.020144 1_445
Al3 Ta1 3.020144 1_454
Al3 Ta2 3.020144 1_544
Al3 Sc1 3.123802 1_545
Al3 Sc2 3.123802 1_455
Al3 Sc3 3.123802 1_554
Al4 Ir6 2.519757 1_554
Al4 Ir5 2.519757 1_554
Al4 Ir4 2.519757 1_554
Al4 Sc2 2.775865 1_555
Al4 Sc1 2.775866 1_555
Al4 Sc0 2.775866 1_555
Al4 Ta3 2.848368 1_554
Al4 Ta1 2.848369 1_554
Al4 Ta2 2.848369 1_554
Al5 Ir1 2.519757 1_545
Al5 Ir2 2.519757 1_545
Al5 Ir6 2.519757 1_545
Al5 Sc3 2.775866 1_555
Al5 Sc2 2.775866 1_555
Al5 Sc4 2.775866 1_555
Al5 Ta2 2.848368 1_545
Al5 Ta3 2.848369 1_545
Al5 Ta0 2.848369 1_545
Al6 Ir1 2.519757 1_455
Al6 Ir3 2.519757 1_455
Al6 Ir5 2.519757 1_455
Al6 Sc3 2.775865 1_555
Al6 Sc1 2.775866 1_555
Al6 Sc5 2.775866 1_555
Al6 Ta1 2.848368 1_455
Al6 Ta3 2.848369 1_455
Al6 Ta0 2.848369 1_455
Al7 Ir2 2.519757 1_555
Al7 Ir3 2.519757 1_555
Al7 Ir4 2.519757 1_555
Al7 Sc4 2.775865 1_555
Al7 Sc5 2.775866 1_555
Al7 Sc0 2.775866 1_555
Al7 Ta0 2.848368 1_555
Al7 Ta1 2.848369 1_555
Al7 Ta2 2.848369 1_555
Al8 Ir4 2.581241 1_554
Al8 Ir6 2.581256 1_544
Al8 Ir5 2.581256 1_454
Al8 Al9 2.878979 1_555
Al8 Sc5 2.983548 1_554
Al8 Sc4 2.983548 1_554
Al8 Sc3 2.983558 1_554
Al9 Ir2 2.581241 1_545
Al9 Ir1 2.581256 1_445
Al9 Ir6 2.581257 1_544
Al9 Sc5 2.983548 1_545
Al9 Sc0 2.983548 1_545
Al9 Sc1 2.983558 1_545
Al10 Ir3 2.581241 1_455
Al10 Ir1 2.581256 1_445
Al10 Ir5 2.581256 1_454
Al10 Al3 2.751148 1_555
Al10 Al9 2.878979 1_555
Al10 Al11 2.878979 1_555
Al10 Al8 2.878979 1_555
Al10 Sc0 2.983548 1_455
Al10 Sc4 2.983548 1_455
Al10 Sc2 2.983558 1_455
Al11 Ir2 2.581251 1_545
Al11 Ir4 2.581251 1_554
Al11 Ir3 2.581251 1_455
Al11 Al2 2.751148 1_555
Al11 Al9 2.878979 1_555
Al11 Al8 2.878979 1_555
Al11 Sc1 2.983540 1_555
Al11 Sc2 2.983540 1_555
Al11 Sc3 2.983541 1_555
Ir0 Ta1 2.617841 1_454
Ir0 Ta2 2.617841 1_544
Ir0 Ta0 2.617841 1_445
Ir0 Ta3 2.617841 1_444
Ir1 Ta3 2.698138 1_555
Ir1 Ta0 2.698138 1_555
Ir1 Sc2 3.186719 1_565
Ir1 Sc4 3.186719 1_565
Ir1 Sc1 3.186719 1_655
Ir1 Sc5 3.186719 1_655
Ir2 Ta0 2.698138 1_555
Ir2 Ta2 2.698138 1_555
Ir2 Sc2 3.186719 1_565
Ir2 Sc5 3.186719 1_555
Ir2 Sc3 3.186719 1_565
Ir2 Sc0 3.186719 1_555
Ir3 Ta0 2.698138 1_555
Ir3 Ta1 2.698138 1_555
Ir3 Sc4 3.186719 1_555
Ir3 Sc1 3.186719 1_655
Ir3 Sc3 3.186719 1_655
Ir3 Sc0 3.186719 1_555
Ir4 Ta2 2.698138 1_555
Ir4 Ta1 2.698138 1_555
Ir4 Sc2 3.186719 1_556
Ir4 Sc4 3.186719 1_555
Ir4 Sc1 3.186719 1_556
Ir4 Sc5 3.186719 1_555
Ir5 Ta3 2.698138 1_555
Ir5 Ta1 2.698138 1_555
Ir5 Sc2 3.186719 1_556
Ir5 Sc5 3.186719 1_655
Ir5 Sc3 3.186719 1_655
Ir5 Sc0 3.186719 1_556
Ir6 Ta3 2.698138 1_555
Ir6 Ta2 2.698138 1_555
Ir6 Sc4 3.186719 1_565
Ir6 Sc1 3.186719 1_556
Ir6 Sc3 3.186719 1_565
Ir6 Sc0 3.186719 1_556
