# generated using pymatgen
data_CsHBr2
_symmetry_space_group_name_H-M   'P 1'
_cell_length_a   7.18301253
_cell_length_b   7.18301213
_cell_length_c   7.18301286
_cell_angle_alpha   114.54983395
_cell_angle_beta   114.54983705
_cell_angle_gamma   99.73147899
_symmetry_Int_Tables_number   1
_chemical_formula_structural   CsHBr2
_chemical_formula_sum   'Cs2 H2 Br4'
_cell_volume   279.26935660
_cell_formula_units_Z   2
loop_
 _symmetry_equiv_pos_site_id
 _symmetry_equiv_pos_as_xyz
  1  'x, y, z'
loop_
 _atom_site_type_symbol
 _atom_site_label
 _atom_site_symmetry_multiplicity
 _atom_site_fract_x
 _atom_site_fract_y
 _atom_site_fract_z
 _atom_site_occupancy
  Cs  Cs0  1  0.25000000  0.25000000  0.00000000  1
  Cs  Cs1  1  0.75000000  0.75000000  0.00000000  1
  H  H0  1  0.50000000  0.00000000  0.50000000  1
  H  H1  1  0.00000000  0.50000000  0.50000000  1
  Br  Br0  1  0.84497046  0.34497046  0.18994092  1
  Br  Br1  1  0.34497046  0.15503054  0.50000000  1
  Br  Br2  1  0.65503054  0.84497046  0.50000000  1
  Br  Br3  1  0.15503054  0.65503054  0.81005908  1
loop_
_geom_bond_atom_site_label_1
_geom_bond_atom_site_label_2
_geom_bond_distance
_geom_bond_site_symmetry_2
Br0 H1 1.702743 1_655
Br0 Cs1 3.739914 1_545
Br0 Cs1 3.739914 1_555
Br0 Cs0 3.739914 1_555
Br0 Cs0 3.739915 1_655
Br1 H0 1.702748 1_555
Br1 Cs1 3.739910 1_556
Br1 Cs0 3.739910 1_555
Br1 Cs1 3.739916 1_445
Br1 Cs0 3.739916 1_556
Br2 H0 1.702748 1_565
Br2 Cs0 3.739910 1_666
Br2 Cs1 3.739910 1_555
Br2 Cs0 3.739916 1_555
Br2 Cs1 3.739916 1_556
Br3 H1 1.702743 1_555
Br3 Cs0 3.739909 1_566
Br3 Cs1 3.739909 1_556
Br3 Cs0 3.739920 1_556
Br3 Cs1 3.739920 1_456
