# generated using pymatgen
data_InIrBr6
_symmetry_space_group_name_H-M   'P 1'
_cell_length_a   6.64900965
_cell_length_b   6.64900941
_cell_length_c   6.72957139
_cell_angle_alpha   80.69711386
_cell_angle_beta   80.69711465
_cell_angle_gamma   119.86472072
_symmetry_Int_Tables_number   1
_chemical_formula_structural   InIrBr6
_chemical_formula_sum   'In1 Ir1 Br6'
_cell_volume   244.20343552
_cell_formula_units_Z   1
loop_
 _symmetry_equiv_pos_site_id
 _symmetry_equiv_pos_as_xyz
  1  'x, y, z'
loop_
 _atom_site_type_symbol
 _atom_site_label
 _atom_site_symmetry_multiplicity
 _atom_site_fract_x
 _atom_site_fract_y
 _atom_site_fract_z
 _atom_site_occupancy
  In  In0  1  0.16698814  0.83301186  0.00000000  1
  Ir  Ir0  1  0.83326932  0.16673068  0.00000000  1
  Br  Br0  1  0.91460028  0.55014752  0.77114186  1
  Br  Br1  1  0.44985248  0.08539972  0.22885814  1
  Br  Br2  1  0.76680746  0.79080549  0.22958953  1
  Br  Br3  1  0.20919451  0.23319254  0.77041047  1
  Br  Br4  1  0.59852823  0.93923943  0.77240237  1
  Br  Br5  1  0.06076057  0.40147177  0.22759763  1
loop_
_geom_bond_atom_site_label_1
_geom_bond_atom_site_label_2
_geom_bond_distance
_geom_bond_site_symmetry_2
Br0 Ir0 2.500382 1_556
Br0 In0 2.711862 1_656
Br1 Ir0 2.500382 1_555
Br1 In0 2.711862 1_545
Br2 Ir0 2.502145 1_565
Br2 In0 2.707919 1_655
Br3 Ir0 2.502145 1_456
Br3 In0 2.707919 1_546
Br4 Ir0 2.498127 1_566
Br4 In0 2.699779 1_556
Br5 Ir0 2.498127 1_455
Br5 In0 2.699779 1_555
