# generated using pymatgen
data_Li2Ca3AgP3
_symmetry_space_group_name_H-M   'P 1'
_cell_length_a   6.98402766
_cell_length_b   6.99951337
_cell_length_c   4.15475394
_cell_angle_alpha   90.00000000
_cell_angle_beta   90.00000000
_cell_angle_gamma   120.07338391
_symmetry_Int_Tables_number   1
_chemical_formula_structural   Li2Ca3AgP3
_chemical_formula_sum   'Li2 Ca3 Ag1 P3'
_cell_volume   175.76326766
_cell_formula_units_Z   1
loop_
 _symmetry_equiv_pos_site_id
 _symmetry_equiv_pos_as_xyz
  1  'x, y, z'
loop_
 _atom_site_type_symbol
 _atom_site_label
 _atom_site_symmetry_multiplicity
 _atom_site_fract_x
 _atom_site_fract_y
 _atom_site_fract_z
 _atom_site_occupancy
  Li  Li0  1  0.23920893  0.00422220  0.00000000  1
  Li  Li1  1  0.76079107  0.76501227  0.00000000  1
  Ca  Ca0  1  0.58459410  0.00170361  0.50000000  1
  Ca  Ca1  1  0.41540590  0.41710952  0.50000000  1
  Ca  Ca2  1  0.00000000  0.57751952  0.50000000  1
  Ag  Ag0  1  0.00000000  0.24043651  0.00000000  1
  P  P0  1  1.00000000  0.99219865  0.50000000  1
  P  P1  1  0.33629044  0.66904508  0.00000000  1
  P  P2  1  0.66370956  0.33275364  0.00000000  1
loop_
_geom_bond_atom_site_label_1
_geom_bond_atom_site_label_2
_geom_bond_distance
_geom_bond_site_symmetry_2
Li0 P0 2.640589 1_444
Li0 P0 2.640589 1_445
Li0 P2 2.691633 1_555
Li0 P1 2.749182 1_545
Li1 P0 2.640591 1_555
Li1 P0 2.640591 1_554
Li1 P1 2.691637 1_555
Li1 P2 2.749182 1_555
Ca0 P0 2.935110 1_545
Ca0 P1 2.949173 1_546
Ca0 P1 2.949173 1_545
Ca0 P2 2.950759 1_555
Ca0 P2 2.950759 1_556
Ca1 P0 2.935109 1_445
Ca1 P2 2.949176 1_555
Ca1 P2 2.949176 1_556
Ca1 P1 2.950764 1_556
Ca1 P1 2.950764 1_555
Ca2 P0 2.902552 1_455
Ca2 P1 2.955359 1_555
Ca2 P1 2.955359 1_556
Ca2 P2 2.955361 1_456
Ca2 P2 2.955361 1_455
Ag0 P0 2.708238 1_445
Ag0 P0 2.708238 1_444
Ag0 P2 2.730342 1_455
Ag0 P1 2.730346 1_555
Ag0 Li0 2.879768 1_555
Ag0 Li1 2.879774 1_445
Ag0 Ca2 3.143620 1_555
Ag0 Ca2 3.143620 1_554
Ag0 Ca0 3.265896 1_454
Ag0 Ca0 3.265896 1_455
Ag0 Ca1 3.265896 1_555
Ag0 Ca1 3.265896 1_554
