# generated using pymatgen
data_Y5Al2GeC4
_symmetry_space_group_name_H-M   'P 1'
_cell_length_a   10.76638753
_cell_length_b   10.76638753
_cell_length_c   3.52288285
_cell_angle_alpha   90.00000000
_cell_angle_beta   90.00000000
_cell_angle_gamma   90.00000000
_symmetry_Int_Tables_number   1
_chemical_formula_structural   Y5Al2GeC4
_chemical_formula_sum   'Y10 Al4 Ge2 C8'
_cell_volume   408.35531880
_cell_formula_units_Z   2
loop_
 _symmetry_equiv_pos_site_id
 _symmetry_equiv_pos_as_xyz
  1  'x, y, z'
loop_
 _atom_site_type_symbol
 _atom_site_label
 _atom_site_symmetry_multiplicity
 _atom_site_fract_x
 _atom_site_fract_y
 _atom_site_fract_z
 _atom_site_occupancy
  Y  Y0  1  0.55076549  0.72512524  0.50000000  1
  Y  Y1  1  0.44923451  0.27487476  0.50000000  1
  Y  Y2  1  0.05076549  0.77487476  0.50000000  1
  Y  Y3  1  0.94923451  0.22512524  0.50000000  1
  Y  Y4  1  0.27487476  0.55076549  0.50000000  1
  Y  Y5  1  0.72512524  0.44923451  0.50000000  1
  Y  Y6  1  0.22512524  0.05076549  0.50000000  1
  Y  Y7  1  0.77487476  0.94923451  0.50000000  1
  Y  Y8  1  0.50000000  0.00000000  0.00000000  1
  Y  Y9  1  0.00000000  0.50000000  0.00000000  1
  Al  Al0  1  0.70400288  0.20400288  0.00000000  1
  Al  Al1  1  0.29599712  0.79599712  0.00000000  1
  Al  Al2  1  0.20400288  0.29599712  0.00000000  1
  Al  Al3  1  0.79599712  0.70400288  0.00000000  1
  Ge  Ge0  1  0.50000000  0.50000000  0.00000000  1
  Ge  Ge1  1  0.00000000  0.00000000  0.00000000  1
  C  C0  1  0.63422892  0.13422892  0.50000000  1
  C  C1  1  0.36577108  0.86577108  0.50000000  1
  C  C2  1  0.13422892  0.36577108  0.50000000  1
  C  C3  1  0.86577108  0.63422892  0.50000000  1
  C  C4  1  0.16326915  0.66326915  0.00000000  1
  C  C5  1  0.83673085  0.33673085  0.00000000  1
  C  C6  1  0.66326915  0.83673085  0.00000000  1
  C  C7  1  0.33673085  0.16326915  0.00000000  1
loop_
_geom_bond_atom_site_label_1
_geom_bond_atom_site_label_2
_geom_bond_distance
_geom_bond_site_symmetry_2
Al0 C5 2.020912 1_555
Al0 C0 2.057017 1_554
Al0 C0 2.057017 1_555
Al1 C4 2.020912 1_555
Al1 C1 2.057017 1_554
Al1 C1 2.057017 1_555
Al2 C7 2.020912 1_555
Al2 C2 2.057017 1_554
Al2 C2 2.057017 1_555
Al3 C6 2.020912 1_555
Al3 C3 2.057017 1_555
Al3 C3 2.057017 1_554
Ge0 Y0 3.045676 1_554
Ge0 Y0 3.045676 1_555
Ge0 Y5 3.045676 1_555
Ge0 Y5 3.045676 1_554
Ge0 Y4 3.045676 1_554
Ge0 Y4 3.045676 1_555
Ge0 Y1 3.045676 1_554
Ge0 Y1 3.045676 1_555
Ge1 Y6 3.045676 1_554
Ge1 Y6 3.045676 1_555
Ge1 Y3 3.045676 1_455
Ge1 Y3 3.045676 1_454
Ge1 Y2 3.045676 1_544
Ge1 Y2 3.045676 1_545
Ge1 Y7 3.045676 1_445
Ge1 Y7 3.045676 1_444
C0 Y7 2.501979 1_545
C0 Y1 2.501979 1_555
C0 Y8 2.698083 1_556
C0 Y8 2.698083 1_555
C1 Y6 2.501979 1_565
C1 Y0 2.501979 1_555
C1 Y8 2.698083 1_566
C1 Y8 2.698083 1_565
C2 Y3 2.501979 1_455
C2 Y4 2.501979 1_555
C2 Y9 2.698083 1_555
C2 Y9 2.698083 1_556
C3 Y2 2.501979 1_655
C3 Y5 2.501979 1_555
C3 Y9 2.698083 1_655
C3 Y9 2.698083 1_656
C4 Y4 2.452272 1_554
C4 Y4 2.452272 1_555
C4 Y2 2.452272 1_555
C4 Y2 2.452272 1_554
C4 Y9 2.485931 1_555
C5 Y3 2.452272 1_554
C5 Y3 2.452272 1_555
C5 Y5 2.452272 1_555
C5 Y5 2.452272 1_554
C5 Y9 2.485931 1_655
C6 Y0 2.452272 1_555
C6 Y7 2.452272 1_555
C6 Y0 2.452272 1_554
C6 Y7 2.452272 1_554
C6 Y8 2.485931 1_565
C7 Y6 2.452272 1_554
C7 Y6 2.452272 1_555
C7 Y1 2.452272 1_555
C7 Y1 2.452272 1_554
C7 Y8 2.485931 1_555
