# generated using pymatgen
data_SrCO3
_symmetry_space_group_name_H-M   'P 1'
_cell_length_a   4.37156250
_cell_length_b   4.37156250
_cell_length_c   8.37043780
_cell_angle_alpha   71.76304182
_cell_angle_beta   71.76304182
_cell_angle_gamma   72.89891294
_symmetry_Int_Tables_number   1
_chemical_formula_structural   SrCO3
_chemical_formula_sum   'Sr2 C2 O6'
_cell_volume   140.84579421
_cell_formula_units_Z   2
loop_
 _symmetry_equiv_pos_site_id
 _symmetry_equiv_pos_as_xyz
  1  'x, y, z'
loop_
 _atom_site_type_symbol
 _atom_site_label
 _atom_site_symmetry_multiplicity
 _atom_site_fract_x
 _atom_site_fract_y
 _atom_site_fract_z
 _atom_site_occupancy
  Sr  Sr0  1  0.50000000  0.50000000  0.50000000  1
  Sr  Sr1  1  0.50000000  0.50000000  0.00000000  1
  C  C0  1  0.96560000  0.96560000  0.23242300  1
  C  C1  1  0.03440000  0.03440000  0.76757700  1
  O  O0  1  0.90276400  0.33615300  0.69626800  1
  O  O1  1  0.87403600  0.87403600  0.91031800  1
  O  O2  1  0.33615300  0.90276400  0.69626800  1
  O  O3  1  0.66384700  0.09723600  0.30373200  1
  O  O4  1  0.09723600  0.66384700  0.30373200  1
  O  O5  1  0.12596400  0.12596400  0.08968200  1
loop_
_geom_bond_atom_site_label_1
_geom_bond_atom_site_label_2
_geom_bond_distance
_geom_bond_site_symmetry_2
C0 O5 1.284913 1_665
C0 O4 1.305091 1_655
C0 O3 1.305091 1_565
C1 O1 1.284913 1_445
C1 O0 1.305091 1_455
C1 O2 1.305091 1_545
O0 Sr0 2.577661 1_555
O0 Sr1 2.770037 1_556
O0 Sr0 2.776194 1_655
O1 Sr1 2.438577 1_556
O1 Sr1 2.934488 1_656
O1 Sr1 2.934488 1_566
O2 Sr0 2.577661 1_555
O2 Sr1 2.770037 1_556
O2 Sr0 2.776194 1_565
O3 Sr0 2.577661 1_555
O3 Sr1 2.770037 1_555
O3 Sr0 2.776194 1_545
O4 Sr0 2.577661 1_555
O4 Sr1 2.770037 1_555
O4 Sr0 2.776194 1_455
O5 Sr1 2.438577 1_555
O5 Sr1 2.934488 1_455
O5 Sr1 2.934488 1_545
