# generated using pymatgen
data_Li2MnTc3O8
_symmetry_space_group_name_H-M   'P 1'
_cell_length_a   5.70329445
_cell_length_b   5.70860677
_cell_length_c   10.23596510
_cell_angle_alpha   90.00000000
_cell_angle_beta   90.00000000
_cell_angle_gamma   120.03050317
_symmetry_Int_Tables_number   1
_chemical_formula_structural   Li2MnTc3O8
_chemical_formula_sum   'Li4 Mn2 Tc6 O16'
_cell_volume   288.52389022
_cell_formula_units_Z   2
loop_
 _symmetry_equiv_pos_site_id
 _symmetry_equiv_pos_as_xyz
  1  'x, y, z'
loop_
 _atom_site_type_symbol
 _atom_site_label
 _atom_site_symmetry_multiplicity
 _atom_site_fract_x
 _atom_site_fract_y
 _atom_site_fract_z
 _atom_site_occupancy
  Li  Li0  1  0.33114049  0.66559364  0.88919934  1
  Li  Li1  1  0.99962978  0.99978947  0.99417132  1
  Li  Li2  1  0.00037022  0.00021053  0.49417132  1
  Li  Li3  1  0.66885951  0.33440636  0.38919934  1
  Mn  Mn0  1  0.33651972  0.66826919  0.49880009  1
  Mn  Mn1  1  0.66348028  0.33173081  0.99880009  1
  Tc  Tc0  1  0.18399076  0.81379144  0.21207487  1
  Tc  Tc1  1  0.18398969  0.37015551  0.21207564  1
  Tc  Tc2  1  0.62523608  0.81259673  0.21256093  1
  Tc  Tc3  1  0.37476392  0.18740327  0.71256093  1
  Tc  Tc4  1  0.81601031  0.62984449  0.71207564  1
  Tc  Tc5  1  0.81600924  0.18620856  0.71207487  1
  O  O0  1  0.16207512  0.84145406  0.60845072  1
  O  O1  1  0.03175819  0.51585643  0.34220167  1
  O  O2  1  0.33100674  0.66548499  0.07623680  1
  O  O3  1  0.99823922  0.99909932  0.30850092  1
  O  O4  1  0.00176078  0.00090068  0.80850092  1
  O  O5  1  0.16206960  0.32066525  0.60845281  1
  O  O6  1  0.48708024  0.97338007  0.34249608  1
  O  O7  1  0.48707905  0.51365887  0.34249790  1
  O  O8  1  0.31842027  0.15919300  0.10622691  1
  O  O9  1  0.68157973  0.84080700  0.60622691  1
  O  O10  1  0.51292095  0.48634113  0.84249790  1
  O  O11  1  0.51291976  0.02661993  0.84249608  1
  O  O12  1  0.66899326  0.33451501  0.57623680  1
  O  O13  1  0.83793040  0.67933475  0.10845281  1
  O  O14  1  0.96824181  0.48414357  0.84220167  1
  O  O15  1  0.83792488  0.15854594  0.10845072  1
loop_
_geom_bond_atom_site_label_1
_geom_bond_atom_site_label_2
_geom_bond_distance
_geom_bond_site_symmetry_2
Li0 O11 1.847231 1_565
Li0 O10 1.847250 1_555
Li0 O14 1.855330 1_455
Li0 O2 1.914509 1_556
Li1 O4 1.900545 1_665
Li1 O8 1.947652 1_666
Li1 O13 1.968954 1_556
Li1 O15 1.968962 1_566
Li2 O3 1.900545 1_445
Li2 O9 1.947652 1_445
Li2 O5 1.968954 1_555
Li2 O0 1.968962 1_545
Li3 O6 1.847231 1_545
Li3 O7 1.847250 1_555
Li3 O1 1.855330 1_655
Li3 O12 1.914509 1_555
Mn0 O9 2.027826 1_555
Mn0 O5 2.052111 1_555
Mn0 O0 2.052198 1_555
Mn0 O6 2.198593 1_555
Mn0 O1 2.198607 1_555
Mn0 O7 2.198775 1_555
Mn1 O8 2.027826 1_556
Mn1 O13 2.052111 1_556
Mn1 O15 2.052198 1_556
Mn1 O11 2.198593 1_555
Mn1 O14 2.198607 1_555
Mn1 O10 2.198775 1_555
O0 Tc4 2.023225 1_455
O0 Tc3 2.027182 1_565
O1 Tc1 1.985587 1_555
O1 Tc0 1.985607 1_555
O2 Tc2 2.014404 1_555
O2 Tc0 2.015849 1_555
O2 Tc1 2.015884 1_555
O3 Tc1 2.082603 1_665
O3 Tc0 2.082613 1_655
O3 Tc2 2.087227 1_555
O4 Tc4 2.082603 1_445
O4 Tc5 2.082613 1_455
O4 Tc3 2.087227 1_555
O5 Tc5 2.023187 1_455
O5 Tc3 2.027193 1_555
O6 Tc2 1.988998 1_555
O6 Tc0 2.005988 1_555
O7 Tc2 1.989010 1_555
O7 Tc1 2.005994 1_555
O8 Tc1 2.033777 1_555
O8 Tc0 2.033817 1_545
O9 Tc4 2.033777 1_555
O9 Tc5 2.033817 1_565
O10 Tc3 1.989010 1_555
O10 Tc4 2.005994 1_555
O11 Tc3 1.988998 1_555
O11 Tc5 2.005988 1_555
O12 Tc3 2.014404 1_555
O12 Tc5 2.015849 1_555
O12 Tc4 2.015884 1_555
O13 Tc0 2.023187 1_655
O13 Tc2 2.027193 1_555
O14 Tc4 1.985587 1_555
O14 Tc5 1.985607 1_555
O15 Tc1 2.023225 1_655
O15 Tc2 2.027182 1_545
