# generated using pymatgen
data_SrAlGeN3
_symmetry_space_group_name_H-M   'P 1'
_cell_length_a   5.29403630
_cell_length_b   5.87747147
_cell_length_c   5.84893541
_cell_angle_alpha   119.64358938
_cell_angle_beta   90.00000000
_cell_angle_gamma   90.00000000
_symmetry_Int_Tables_number   1
_chemical_formula_structural   SrAlGeN3
_chemical_formula_sum   'Sr2 Al2 Ge2 N6'
_cell_volume   158.17340495
_cell_formula_units_Z   2
loop_
 _symmetry_equiv_pos_site_id
 _symmetry_equiv_pos_as_xyz
  1  'x, y, z'
loop_
 _atom_site_type_symbol
 _atom_site_label
 _atom_site_symmetry_multiplicity
 _atom_site_fract_x
 _atom_site_fract_y
 _atom_site_fract_z
 _atom_site_occupancy
  Sr  Sr0  1  0.00517335  0.68922536  0.68468813  1
  Sr  Sr1  1  0.50517335  0.31077464  0.31531187  1
  Al  Al0  1  0.52944142  0.01953803  0.66831514  1
  Al  Al1  1  0.02944142  0.98046197  0.33168486  1
  Ge  Ge0  1  0.52402668  0.67107695  0.02403118  1
  Ge  Ge1  1  0.02402668  0.32892305  0.97596882  1
  N  N0  1  0.49982805  0.76765669  0.77072258  1
  N  N1  1  0.99982805  0.23234331  0.22927742  1
  N  N2  1  0.87060365  0.10311305  0.65701618  1
  N  N3  1  0.86912585  0.65660613  0.10167703  1
  N  N4  1  0.37060365  0.89688695  0.34298382  1
  N  N5  1  0.36912585  0.34339387  0.89832297  1
loop_
_geom_bond_atom_site_label_1
_geom_bond_atom_site_label_2
_geom_bond_distance
_geom_bond_site_symmetry_2
Al0 N0 1.858003 1_545
Al0 N4 1.868331 1_545
Al0 N2 1.881450 1_555
Al0 N5 1.902685 1_555
Al1 N1 1.858003 1_465
Al1 N2 1.868331 1_465
Al1 N4 1.881450 1_555
Al1 N3 1.902685 1_455
Ge0 N0 1.834575 1_554
Ge0 N4 1.858001 1_555
Ge0 N5 1.876587 1_554
Ge0 N3 1.894598 1_555
Ge1 N1 1.834575 1_456
Ge1 N2 1.858001 1_455
Ge1 N3 1.876587 1_456
Ge1 N5 1.894598 1_555
N0 Sr0 2.663447 1_555
N0 Sr1 2.689098 1_555
N0 Sr0 2.719113 1_655
N1 Sr1 2.663447 1_555
N1 Sr0 2.689098 1_655
N1 Sr1 2.719113 1_655
N2 Sr0 2.615495 1_645
N3 Sr0 2.639409 1_654
N4 Sr1 2.615495 1_565
N5 Sr1 2.639409 1_556
