# generated using pymatgen
data_AgIO4
_symmetry_space_group_name_H-M   'P 1'
_cell_length_a   5.44964600
_cell_length_b   5.44964600
_cell_length_c   7.18613055
_cell_angle_alpha   112.28277874
_cell_angle_beta   112.28277874
_cell_angle_gamma   90.00000000
_symmetry_Int_Tables_number   1
_chemical_formula_structural   AgIO4
_chemical_formula_sum   'Ag2 I2 O8'
_cell_volume   180.13921878
_cell_formula_units_Z   2
loop_
 _symmetry_equiv_pos_site_id
 _symmetry_equiv_pos_as_xyz
  1  'x, y, z'
loop_
 _atom_site_type_symbol
 _atom_site_label
 _atom_site_symmetry_multiplicity
 _atom_site_fract_x
 _atom_site_fract_y
 _atom_site_fract_z
 _atom_site_occupancy
  Ag  Ag0  1  0.50000000  0.50000000  0.00000000  1
  Ag  Ag1  1  0.75000000  0.25000000  0.50000000  1
  I  I0  1  0.25000000  0.75000000  0.50000000  1
  I  I1  1  0.00000000  0.00000000  0.00000000  1
  O  O0  1  0.31949100  0.93394700  0.16294600  1
  O  O1  1  0.47899900  0.06949100  0.66294700  1
  O  O2  1  0.18394700  0.59345600  0.66294600  1
  O  O3  1  0.84345600  0.22899900  0.16294700  1
  O  O4  1  0.40654400  0.52100100  0.33705300  1
  O  O5  1  0.06605300  0.15654400  0.83705400  1
  O  O6  1  0.77100100  0.68050900  0.83705300  1
  O  O7  1  0.93050900  0.81605300  0.33705400  1
loop_
_geom_bond_atom_site_label_1
_geom_bond_atom_site_label_2
_geom_bond_distance
_geom_bond_site_symmetry_2
Ag0 O0 2.589384 1_555
Ag0 O5 2.589387 1_554
Ag0 O3 2.589389 1_555
Ag0 O6 2.589389 1_554
Ag0 O4 2.619993 1_555
Ag0 O1 2.619993 1_554
Ag0 O7 2.619997 1_555
Ag0 O2 2.620000 1_554
Ag1 O7 2.589384 1_545
Ag1 O2 2.589387 1_655
Ag1 O1 2.589389 1_555
Ag1 O4 2.589389 1_555
Ag1 O3 2.619993 1_555
Ag1 O6 2.619993 1_555
Ag1 O0 2.619997 1_545
Ag1 O5 2.620000 1_655
I0 O2 1.818160 1_555
I0 O7 1.818164 1_455
I0 O1 1.818164 1_565
I0 O4 1.818164 1_555
I1 O5 1.818160 1_554
I1 O0 1.818164 1_545
I1 O6 1.818164 1_444
I1 O3 1.818164 1_455
