# generated using pymatgen
data_K3V2Cu3Te8
_symmetry_space_group_name_H-M   'P 1'
_cell_length_a   5.89943898
_cell_length_b   13.10279759
_cell_length_c   14.54395056
_cell_angle_alpha   70.76791480
_cell_angle_beta   78.29841639
_cell_angle_gamma   76.98998025
_symmetry_Int_Tables_number   1
_chemical_formula_structural   K3V2Cu3Te8
_chemical_formula_sum   'K6 V4 Cu6 Te16'
_cell_volume   1024.08146862
_cell_formula_units_Z   2
loop_
 _symmetry_equiv_pos_site_id
 _symmetry_equiv_pos_as_xyz
  1  'x, y, z'
loop_
 _atom_site_type_symbol
 _atom_site_label
 _atom_site_symmetry_multiplicity
 _atom_site_fract_x
 _atom_site_fract_y
 _atom_site_fract_z
 _atom_site_occupancy
  K  K0  1  0.72924523  0.71251186  0.90844715  1
  K  K1  1  0.35020324  0.78748814  0.59155285  1
  K  K2  1  0.27075477  0.28748814  0.09155285  1
  K  K3  1  0.64979676  0.21251186  0.40844715  1
  K  K4  1  0.00000000  0.50000000  0.50000000  1
  K  K5  1  0.00000000  0.00000000  0.00000000  1
  V  V0  1  0.15395887  0.46875501  0.77710947  1
  V  V1  1  0.39982235  0.03124499  0.72289053  1
  V  V2  1  0.84604113  0.53124499  0.22289053  1
  V  V3  1  0.60017765  0.96875501  0.27710947  1
  Cu  Cu0  1  0.26819126  0.25000000  0.75000000  1
  Cu  Cu1  1  0.73180874  0.75000000  0.25000000  1
  Cu  Cu2  1  0.89985704  0.02986286  0.72434612  1
  Cu  Cu3  1  0.65406501  0.47013714  0.77565388  1
  Cu  Cu4  1  0.10014296  0.97013714  0.27565388  1
  Cu  Cu5  1  0.34593499  0.52986286  0.22434612  1
  Te  Te0  1  0.93722051  0.31186663  0.87614274  1
  Te  Te1  1  0.12522987  0.18813337  0.62385726  1
  Te  Te2  1  0.06277949  0.68813337  0.12385726  1
  Te  Te3  1  0.87477013  0.81186663  0.37614274  1
  Te  Te4  1  0.48545630  0.41096377  0.65361851  1
  Te  Te5  1  0.55003857  0.08903623  0.84638149  1
  Te  Te6  1  0.51454370  0.58903623  0.34638149  1
  Te  Te7  1  0.44996143  0.91096377  0.15361851  1
  Te  Te8  1  0.87849648  0.63121310  0.68585958  1
  Te  Te9  1  0.19556917  0.86878690  0.81414042  1
  Te  Te10  1  0.12150352  0.36878690  0.31414042  1
  Te  Te11  1  0.80443083  0.13121310  0.18585958  1
  Te  Te12  1  0.72986685  0.96812421  0.60648736  1
  Te  Te13  1  0.30447943  0.53187579  0.89351264  1
  Te  Te14  1  0.27013315  0.03187579  0.39351264  1
  Te  Te15  1  0.69552057  0.46812421  0.10648736  1
loop_
_geom_bond_atom_site_label_1
_geom_bond_atom_site_label_2
_geom_bond_distance
_geom_bond_site_symmetry_2
K0 Te15 3.545103 1_556
K0 Te9 3.577410 1_655
K0 Te9 3.603504 1_555
K0 Te8 3.617108 1_555
K0 Te13 3.686283 1_655
K0 Te13 3.893378 1_555
K0 Te2 3.917542 1_656
K1 Te14 3.545102 1_565
K1 Te8 3.577415 1_555
K1 Te8 3.603499 1_455
K1 Te9 3.617108 1_555
K1 Te12 3.686283 1_555
K1 Te12 3.893378 1_455
K1 Te3 3.917545 1_555
K2 Te13 3.545103 1_554
K2 Te11 3.577410 1_455
K2 Te11 3.603504 1_555
K2 Te10 3.617108 1_555
K2 Te15 3.686283 1_455
K2 Te15 3.893378 1_555
K2 Te0 3.917542 1_454
K3 Te12 3.545102 1_545
K3 Te10 3.577415 1_555
K3 Te10 3.603499 1_655
K3 Te11 3.617108 1_555
K3 Te14 3.686283 1_555
K3 Te14 3.893378 1_655
K3 Te1 3.917545 1_555
K4 Te8 3.535169 1_455
K4 Te10 3.535169 1_555
K4 Te6 3.562788 1_555
K4 Te4 3.562788 1_455
K4 Te6 3.732131 1_455
K4 Te4 3.732131 1_555
K4 Te3 3.849678 1_455
K4 Te1 3.849678 1_555
K5 Te9 3.535169 1_544
K5 Te11 3.535169 1_455
K5 Te7 3.562789 1_545
K5 Te5 3.562789 1_454
K5 Te5 3.732131 1_554
K5 Te7 3.732131 1_445
K5 Te0 3.849678 1_454
K5 Te2 3.849678 1_545
Cu0 Te4 2.568401 1_555
Cu0 Te5 2.568401 1_555
Cu0 Te0 2.578647 1_455
Cu0 Te1 2.578648 1_555
Cu0 V1 2.931268 1_555
Cu0 V0 2.931268 1_555
Cu1 Te6 2.568401 1_555
Cu1 Te7 2.568401 1_555
Cu1 Te2 2.578647 1_655
Cu1 Te3 2.578648 1_555
Cu1 V3 2.931268 1_555
Cu1 V2 2.931268 1_555
Cu2 Te12 2.564059 1_545
Cu2 Te9 2.579518 1_645
Cu2 Te1 2.580868 1_655
Cu2 Te5 2.590504 1_555
Cu2 V1 2.949387 1_655
Cu2 V1 2.950230 1_555
Cu3 Te13 2.564051 1_555
Cu3 Te8 2.579521 1_555
Cu3 Te0 2.580872 1_555
Cu3 Te4 2.590501 1_555
Cu3 V0 2.949399 1_655
Cu3 V0 2.950218 1_555
Cu4 Te14 2.564059 1_565
Cu4 Te11 2.579518 1_465
Cu4 Te3 2.580868 1_455
Cu4 Te7 2.590504 1_555
Cu4 V3 2.949387 1_455
Cu4 V3 2.950230 1_555
Cu5 Te15 2.564051 1_555
Cu5 Te10 2.579521 1_555
Cu5 Te2 2.580872 1_555
Cu5 Te6 2.590501 1_555
Cu5 V2 2.949399 1_455
Cu5 V2 2.950218 1_555
Te0 V0 2.533990 1_655
Te1 V1 2.533986 1_555
Te2 V2 2.533990 1_455
Te3 V3 2.533986 1_555
Te4 V0 2.535391 1_555
Te5 V1 2.535395 1_555
Te6 V2 2.535391 1_555
Te7 V3 2.535395 1_555
Te8 V0 2.527757 1_655
Te9 V1 2.527754 1_565
Te10 V2 2.527757 1_455
Te11 V3 2.527754 1_545
Te12 V1 2.490291 1_565
Te13 V0 2.490291 1_555
Te14 V3 2.490291 1_545
Te15 V2 2.490291 1_555
