# generated using pymatgen
data_Zr6PPtO2
_symmetry_space_group_name_H-M   'P 1'
_cell_length_a   5.83165982
_cell_length_b   5.83165909
_cell_length_c   8.62416689
_cell_angle_alpha   90.00000000
_cell_angle_beta   90.00000000
_cell_angle_gamma   145.69557279
_symmetry_Int_Tables_number   1
_chemical_formula_structural   Zr6PPtO2
_chemical_formula_sum   'Zr6 P1 Pt1 O2'
_cell_volume   165.29687688
_cell_formula_units_Z   1
loop_
 _symmetry_equiv_pos_site_id
 _symmetry_equiv_pos_as_xyz
  1  'x, y, z'
loop_
 _atom_site_type_symbol
 _atom_site_label
 _atom_site_symmetry_multiplicity
 _atom_site_fract_x
 _atom_site_fract_y
 _atom_site_fract_z
 _atom_site_occupancy
  Zr  Zr0  1  0.36059688  0.63940412  0.06967959  1
  Zr  Zr1  1  0.06938496  0.93061604  0.25000000  1
  Zr  Zr2  1  0.36059688  0.63940412  0.43032041  1
  Zr  Zr3  1  0.63592626  0.36407474  0.54569703  1
  Zr  Zr4  1  0.94480030  0.05520070  0.75000000  1
  Zr  Zr5  1  0.63592626  0.36407474  0.95430297  1
  P  P0  1  0.74467848  0.25532152  0.25000000  1
  Pt  Pt0  1  0.25170832  0.74829168  0.75000000  1
  O  O0  1  0.99819233  0.00180767  0.00090108  1
  O  O1  1  0.99819233  0.00180767  0.49909892  1
loop_
_geom_bond_atom_site_label_1
_geom_bond_atom_site_label_2
_geom_bond_distance
_geom_bond_site_symmetry_2
P0 Zr1 2.602740 1_545
P0 Zr1 2.602742 1_655
P0 Zr2 2.654252 1_545
P0 Zr0 2.654252 1_545
P0 Zr2 2.654254 1_655
P0 Zr0 2.654254 1_655
P0 Zr5 2.823503 1_554
P0 Zr3 2.823503 1_555
Pt0 Zr4 2.754734 1_455
Pt0 Zr4 2.754737 1_565
Pt0 Zr3 2.779789 1_455
Pt0 Zr5 2.779789 1_455
Pt0 Zr5 2.779790 1_565
Pt0 Zr3 2.779790 1_565
Pt0 Zr0 3.012225 1_556
Pt0 Zr2 3.012225 1_555
O0 Zr4 2.244138 1_554
O0 Zr1 2.290101 1_645
O0 Zr5 2.339968 1_544
O0 Zr5 2.339971 1_654
O0 Zr0 2.379304 1_545
O0 Zr0 2.379306 1_655
O1 Zr4 2.244138 1_555
O1 Zr1 2.290101 1_645
O1 Zr3 2.339968 1_545
O1 Zr3 2.339971 1_655
O1 Zr2 2.379304 1_545
O1 Zr2 2.379306 1_655
