# generated using pymatgen
data_Ti6Si6Tc5W
_symmetry_space_group_name_H-M   'P 1'
_cell_length_a   7.51625624
_cell_length_b   7.51622352
_cell_length_c   7.51622272
_cell_angle_alpha   126.24077401
_cell_angle_beta   128.95726558
_cell_angle_gamma   77.29554052
_symmetry_Int_Tables_number   1
_chemical_formula_structural   Ti6Si6Tc5W
_chemical_formula_sum   'Ti6 Si6 Tc5 W1'
_cell_volume   258.39665229
_cell_formula_units_Z   1
loop_
 _symmetry_equiv_pos_site_id
 _symmetry_equiv_pos_as_xyz
  1  'x, y, z'
loop_
 _atom_site_type_symbol
 _atom_site_label
 _atom_site_symmetry_multiplicity
 _atom_site_fract_x
 _atom_site_fract_y
 _atom_site_fract_z
 _atom_site_occupancy
  Ti  Ti0  1  0.44987888  0.40562162  0.45598285  1
  Ti  Ti1  1  0.55012112  0.00610396  0.95574174  1
  Ti  Ti2  1  0.05050306  0.00600469  0.45591375  1
  Ti  Ti3  1  0.94949694  0.40541069  0.95550163  1
  Ti  Ti4  1  0.25129995  0.60049580  0.85170775  1
  Ti  Ti5  1  0.74870005  0.60040880  0.34919585  1
  Si  Si0  1  0.16651431  0.67042104  0.50381910  1
  Si  Si1  1  0.83348569  0.33730480  0.50390674  1
  Si  Si2  1  0.66814536  0.67358851  0.00559811  1
  Si  Si3  1  0.33185464  0.33745175  0.00544416  1
  Si  Si4  1  0.24770204  0.99887549  0.24662756  1
  Si  Si5  1  0.75229796  0.99892652  0.75117445  1
  Tc  Tc0  1  0.36894033  0.74085625  0.37200152  1
  Tc  Tc1  1  0.63105967  0.00306019  0.37191492  1
  Tc  Tc2  1  0.86873762  0.74157454  0.87280671  1
  Tc  Tc3  1  0.13126238  0.00406909  0.87283692  1
  Tc  Tc4  1  1.00000000  0.26373628  0.26373628  1
  W  W0  1  0.50000000  0.26608996  0.76608996  1
loop_
_geom_bond_atom_site_label_1
_geom_bond_atom_site_label_2
_geom_bond_distance
_geom_bond_site_symmetry_2
Ti0 W0 2.878694 1_555
Ti1 W0 2.878688 1_555
Ti2 W0 2.878014 1_555
Ti3 W0 2.878014 1_555
Ti4 W0 2.785600 1_555
Ti5 W0 2.785600 1_554
Si0 Tc0 2.539066 1_555
Si0 Tc3 2.541640 1_565
Si0 Tc4 2.547005 1_455
Si0 Ti0 2.622805 1_555
Si0 Ti3 2.623512 1_454
Si0 Ti4 2.627117 1_555
Si0 Ti5 2.627549 1_455
Si0 Ti2 2.638885 1_565
Si0 Ti1 2.639745 1_565
Si1 Tc1 2.539069 1_555
Si1 Tc2 2.541641 1_555
Si1 Tc4 2.547005 1_555
Si1 Ti1 2.622809 1_554
Si1 Ti2 2.623512 1_655
Si1 Ti5 2.627124 1_555
Si1 Ti4 2.627550 1_655
Si1 Ti3 2.638885 1_555
Si1 Ti0 2.639745 1_555
Si2 Tc2 2.522827 1_554
Si2 Tc1 2.527995 1_565
Si2 W0 2.557627 1_554
Si2 Ti2 2.624040 1_665
Si2 Ti1 2.624466 1_564
Si2 Ti4 2.627696 1_554
Si2 Ti5 2.627835 1_555
Si2 Ti3 2.627887 1_554
Si2 Ti0 2.628121 1_554
Si3 Tc3 2.522816 1_554
Si3 Tc0 2.528003 1_555
Si3 W0 2.557636 1_554
Si3 Ti3 2.624037 1_454
Si3 Ti0 2.624451 1_555
Si3 Ti5 2.627704 1_555
Si3 Ti4 2.627854 1_554
Si3 Ti2 2.627889 1_554
Si3 Ti1 2.628115 1_554
Si4 Tc2 2.383761 1_454
Si4 Tc3 2.383996 1_564
Si4 Tc0 2.404796 1_555
Si4 Tc1 2.404811 1_565
Si4 Tc4 2.411235 1_465
Si4 W0 2.442794 1_565
Si4 Ti4 2.708125 1_554
Si4 Ti2 2.733411 1_565
Si4 Ti0 2.735017 1_565
Si5 Tc3 2.383764 1_665
Si5 Tc2 2.383998 1_555
Si5 Tc1 2.404800 1_565
Si5 Tc0 2.404811 1_555
Si5 Tc4 2.411230 1_566
Si5 W0 2.442789 1_565
Si5 Ti5 2.708129 1_555
Si5 Ti3 2.733408 1_565
Si5 Ti1 2.735006 1_565
Tc0 Ti0 2.800150 1_555
Tc0 Ti3 2.801698 1_454
Tc0 Ti5 2.892605 1_555
Tc0 Ti4 2.893453 1_554
Tc0 Ti2 2.900376 1_565
Tc0 Ti1 2.901372 1_565
Tc1 Ti1 2.800155 1_554
Tc1 Ti2 2.801695 1_655
Tc1 Ti4 2.892601 1_544
Tc1 Ti5 2.893442 1_545
Tc1 Ti3 2.900381 1_555
Tc1 Ti0 2.901384 1_555
Tc2 Ti0 2.800536 1_555
Tc2 Ti3 2.801204 1_555
Tc2 Ti2 2.896705 1_666
Tc2 Ti1 2.897293 1_565
Tc2 Ti5 2.906423 1_555
Tc2 Ti4 2.907089 1_655
Tc3 Ti1 2.800539 1_555
Tc3 Ti2 2.801203 1_555
Tc3 Ti3 2.896705 1_455
Tc3 Ti0 2.897295 1_556
Tc3 Ti4 2.906420 1_545
Tc3 Ti5 2.907085 1_445
Tc4 Ti4 2.808061 1_655
Tc4 Ti5 2.808066 1_555
Tc4 Ti3 2.877262 1_554
Tc4 Ti2 2.877262 1_655
Tc4 Ti1 2.877353 1_554
Tc4 Ti0 2.877355 1_655
