# generated using pymatgen
data_Y7Sn23Os5Rh
_symmetry_space_group_name_H-M   'P 1'
_cell_length_a   9.85075794
_cell_length_b   9.84980163
_cell_length_c   10.02094285
_cell_angle_alpha   90.10231880
_cell_angle_beta   90.00000000
_cell_angle_gamma   120.00322171
_symmetry_Int_Tables_number   1
_chemical_formula_structural   Y7Sn23Os5Rh
_chemical_formula_sum   'Y7 Sn23 Os5 Rh1'
_cell_volume   842.01790187
_cell_formula_units_Z   1
loop_
 _symmetry_equiv_pos_site_id
 _symmetry_equiv_pos_as_xyz
  1  'x, y, z'
loop_
 _atom_site_type_symbol
 _atom_site_label
 _atom_site_symmetry_multiplicity
 _atom_site_fract_x
 _atom_site_fract_y
 _atom_site_fract_z
 _atom_site_occupancy
  Y  Y0  1  0.00395119  0.00790237  0.99606853  1
  Y  Y1  1  0.03362770  0.51490889  0.30259568  1
  Y  Y2  1  0.48345404  0.96690608  0.30165871  1
  Y  Y3  1  0.48128019  0.51490889  0.30259568  1
  Y  Y4  1  0.96840241  0.48430503  0.69895060  1
  Y  Y5  1  0.51596802  0.03193603  0.69878112  1
  Y  Y6  1  0.51590362  0.48430503  0.69895060  1
  Sn  Sn0  1  0.99821166  0.99642531  0.49797093  1
  Sn  Sn1  1  0.11634954  0.88369389  0.28235810  1
  Sn  Sn2  1  0.76734436  0.88369389  0.28235810  1
  Sn  Sn3  1  0.11546972  0.23094144  0.28244382  1
  Sn  Sn4  1  0.88458216  0.11514186  0.71557620  1
  Sn  Sn5  1  0.23055970  0.11514186  0.71557620  1
  Sn  Sn6  1  0.88369682  0.76739064  0.71915868  1
  Sn  Sn7  1  0.34994596  0.00162001  0.99926431  1
  Sn  Sn8  1  0.64950202  0.65303334  0.00207279  1
  Sn  Sn9  1  0.99897139  0.34977007  0.99963258  1
  Sn  Sn10  1  0.35079768  0.34977007  0.99963258  1
  Sn  Sn11  1  0.00353131  0.65303334  0.00207279  1
  Sn  Sn12  1  0.65167305  0.00162001  0.99926431  1
  Sn  Sn13  1  0.77477927  0.54955955  0.45944667  1
  Sn  Sn14  1  0.77565189  0.22337838  0.46017568  1
  Sn  Sn15  1  0.44772748  0.22337838  0.46017568  1
  Sn  Sn16  1  0.22383251  0.44766703  0.54063882  1
  Sn  Sn17  1  0.22385492  0.77532207  0.53999139  1
  Sn  Sn18  1  0.55146614  0.77532207  0.53999139  1
  Sn  Sn19  1  0.66537428  0.33074656  0.17527730  1
  Sn  Sn20  1  0.33351675  0.66703450  0.82689163  1
  Sn  Sn21  1  0.66733171  0.33466342  0.87339549  1
  Sn  Sn22  1  0.33338648  0.66677396  0.12706520  1
  Os  Os0  1  0.16934119  0.83092232  0.79846772  1
  Os  Os1  1  0.66158013  0.83092232  0.79846772  1
  Os  Os2  1  0.16876898  0.33753795  0.79940867  1
  Os  Os3  1  0.83105453  0.17002831  0.20137871  1
  Os  Os4  1  0.33897277  0.17002831  0.20137871  1
  Rh  Rh0  1  0.83013643  0.66027185  0.20085994  1
loop_
_geom_bond_atom_site_label_1
_geom_bond_atom_site_label_2
_geom_bond_distance
_geom_bond_site_symmetry_2
Sn0 Sn2 2.922213 1_555
Sn0 Sn1 2.922225 1_655
Sn0 Sn4 2.945372 1_565
Sn0 Sn5 2.945383 1_665
Sn0 Sn3 2.946878 1_665
Sn0 Sn6 2.957617 1_555
Sn1 Sn17 3.172796 1_555
Sn1 Y2 3.289633 1_555
Sn1 Y1 3.307908 1_555
Sn1 Sn3 3.424660 1_565
Sn1 Sn11 3.426054 1_555
Sn1 Sn2 3.437966 1_455
Sn1 Sn7 3.468536 1_564
Sn1 Y0 3.510055 1_564
Sn2 Y2 3.289614 1_555
Sn2 Y3 3.307911 1_555
Sn2 Sn3 3.424650 1_665
Sn2 Sn8 3.426054 1_555
Sn2 Y0 3.510055 1_664
Sn3 Y1 3.281351 1_555
Sn3 Y3 3.281357 1_555
Sn3 Y0 3.439834 1_554
Sn3 Sn9 3.474742 1_454
Sn4 Y5 3.302785 1_555
Sn4 Y4 3.306185 1_555
Sn4 Sn5 3.408141 1_655
Sn4 Y0 3.413473 1_655
Sn4 Sn6 3.421180 1_545
Sn4 Sn9 3.476405 1_555
Sn5 Y5 3.302785 1_555
Sn5 Y6 3.306188 1_555
Sn5 Y0 3.413473 1_555
Sn5 Sn6 3.421165 1_445
Sn5 Sn7 3.470089 1_555
Sn6 Y4 3.291947 1_555
Sn6 Y6 3.291960 1_555
Sn6 Y0 3.447521 1_665
Sn6 Sn8 3.470038 1_556
Sn7 Y5 3.368311 1_555
Sn7 Y2 3.388592 1_546
Sn7 Y0 3.439821 1_555
Sn8 Y3 3.380261 1_555
Sn8 Y6 3.393438 1_554
Sn8 Y0 3.493948 1_664
Sn9 Y4 3.367327 1_555
Sn9 Y1 3.377348 1_656
Sn9 Y0 3.392250 1_655
Sn10 Sn8 2.964938 1_556
Sn10 Y6 3.367333 1_555
Sn10 Y3 3.377348 1_556
Sn10 Y0 3.392244 1_555
Sn10 Sn3 3.474746 1_556
Sn10 Sn5 3.476405 1_555
Sn11 Sn9 2.964933 1_454
Sn11 Y1 3.380258 1_555
Sn11 Y4 3.393440 1_454
Sn11 Sn6 3.470023 1_454
Sn11 Y0 3.493949 1_564
Sn12 Sn7 2.972241 1_555
Sn12 Y5 3.368307 1_555
Sn12 Y2 3.388579 1_546
Sn12 Y0 3.439831 1_655
Sn12 Sn2 3.468541 1_546
Sn12 Sn4 3.470094 1_555
Sn13 Y3 3.155506 1_555
Sn13 Y1 3.155506 1_655
Sn13 Sn6 3.194655 1_555
Sn13 Sn15 3.217138 1_555
Sn13 Sn14 3.217148 1_555
Sn13 Y6 3.323068 1_555
Sn13 Y4 3.323081 1_555
Sn13 Sn19 3.401589 1_555
Sn14 Y2 3.147002 1_545
Sn14 Y1 3.148869 1_655
Sn14 Sn4 3.161036 1_555
Sn14 Sn15 3.230304 1_555
Sn14 Y5 3.317921 1_555
Sn14 Y4 3.321658 1_555
Sn14 Sn19 3.407197 1_555
Sn15 Y2 3.147008 1_545
Sn15 Y3 3.148877 1_555
Sn15 Sn5 3.161040 1_555
Sn15 Y5 3.317916 1_555
Sn15 Y6 3.321658 1_555
Sn15 Sn19 3.407201 1_555
Sn16 Y4 3.143921 1_455
Sn16 Y6 3.143946 1_555
Sn16 Sn3 3.176821 1_555
Sn16 Sn17 3.227245 1_555
Sn16 Sn18 3.227249 1_555
Sn16 Y1 3.299426 1_555
Sn16 Y3 3.299433 1_555
Sn17 Y4 3.144631 1_455
Sn17 Y5 3.148432 1_565
Sn17 Sn18 3.227219 1_555
Sn17 Y1 3.304732 1_555
Sn17 Y2 3.315800 1_555
Sn18 Y6 3.144639 1_555
Sn18 Y5 3.148427 1_565
Sn18 Sn2 3.172801 1_555
Sn18 Y3 3.304732 1_555
Sn18 Y2 3.315786 1_555
Sn19 Sn21 3.025394 1_554
Sn19 Y2 3.354399 1_545
Sn19 Y1 3.389449 1_655
Sn19 Y3 3.389473 1_555
Sn20 Sn22 3.008028 1_556
Sn20 Y4 3.367019 1_455
Sn20 Y6 3.367035 1_555
Sn20 Y5 3.369378 1_565
Sn21 Y6 3.108302 1_555
Sn21 Y4 3.108309 1_555
Sn21 Y5 3.116264 1_555
Sn22 Y2 3.097854 1_555
Sn22 Y1 3.105295 1_555
Sn22 Y3 3.105295 1_555
Os0 Sn7 2.652786 1_565
Os0 Sn11 2.655448 1_556
Os0 Sn6 2.679181 1_455
Os0 Sn5 2.685291 1_565
Os0 Sn17 2.754335 1_555
Os0 Sn20 2.813370 1_555
Os0 Y4 3.130174 1_455
Os0 Y5 3.134161 1_565
Os0 Y0 3.527346 1_565
Os1 Sn12 2.652786 1_565
Os1 Sn8 2.655451 1_556
Os1 Sn6 2.679218 1_555
Os1 Sn4 2.685293 1_565
Os1 Sn18 2.754335 1_555
Os1 Sn20 2.813370 1_555
Os1 Y6 3.130176 1_555
Os1 Y5 3.134154 1_565
Os1 Y0 3.527352 1_665
Os2 Sn10 2.653044 1_555
Os2 Sn9 2.653050 1_455
Os2 Sn4 2.683597 1_455
Os2 Sn5 2.683597 1_555
Os2 Sn16 2.759848 1_555
Os2 Sn20 2.823469 1_555
Os2 Y4 3.139711 1_455
Os2 Y6 3.139720 1_555
Os2 Y0 3.436942 1_555
Os3 Sn12 2.651931 1_554
Os3 Sn9 2.653622 1_554
Os3 Sn3 2.680777 1_655
Os3 Sn2 2.691592 1_545
Os3 Sn14 2.753472 1_555
Os3 Sn19 2.797050 1_555
Os3 Y1 3.123901 1_655
Os3 Y2 3.145337 1_545
Os3 Y0 3.520243 1_654
Os4 Sn7 2.651931 1_554
Os4 Sn10 2.653622 1_554
Os4 Sn3 2.680786 1_555
Os4 Sn1 2.691589 1_545
Os4 Sn15 2.753478 1_555
Os4 Sn19 2.797075 1_555
Os4 Y3 3.123901 1_555
Os4 Y2 3.145361 1_545
Os4 Y0 3.520235 1_554
Rh0 Sn11 2.648033 1_655
Rh0 Sn8 2.648039 1_555
Rh0 Sn1 2.692099 1_655
Rh0 Sn2 2.692106 1_555
Rh0 Sn13 2.759831 1_555
Rh0 Sn19 2.821958 1_555
Rh0 Y1 3.159617 1_655
Rh0 Y3 3.159634 1_555
Rh0 Y0 3.609621 1_664
