# generated using pymatgen
data_Nb6Si6Mo5Os
_symmetry_space_group_name_H-M   'P 1'
_cell_length_a   7.65960120
_cell_length_b   7.67305740
_cell_length_c   7.65963631
_cell_angle_alpha   126.45724887
_cell_angle_beta   128.20126701
_cell_angle_gamma   77.68666573
_symmetry_Int_Tables_number   1
_chemical_formula_structural   Nb6Si6Mo5Os
_chemical_formula_sum   'Nb6 Si6 Mo5 Os1'
_cell_volume   275.93538840
_cell_formula_units_Z   1
loop_
 _symmetry_equiv_pos_site_id
 _symmetry_equiv_pos_as_xyz
  1  'x, y, z'
loop_
 _atom_site_type_symbol
 _atom_site_label
 _atom_site_symmetry_multiplicity
 _atom_site_fract_x
 _atom_site_fract_y
 _atom_site_fract_z
 _atom_site_occupancy
  Nb  Nb0  1  0.54952564  0.08540679  0.03735795  1
  Nb  Nb1  1  0.44868321  0.49678757  0.55151764  1
  Nb  Nb2  1  0.94508002  0.49686585  0.04781106  1
  Nb  Nb3  1  0.04786101  0.08541049  0.53573254  1
  Nb  Nb4  1  0.75642426  0.90802718  0.65507872  1
  Nb  Nb5  1  0.25296442  0.90798703  0.15164360  1
  Si  Si0  1  0.74636877  0.49656183  0.24971275  1
  Si  Si1  1  0.24690151  0.49655251  0.75043643  1
  Si  Si2  1  0.33446783  0.82290353  0.48835378  1
  Si  Si3  1  0.66809169  0.16532366  0.49704424  1
  Si  Si4  1  0.83413057  0.82822968  0.99396792  1
  Si  Si5  1  0.17198720  0.17096894  0.99898519  1
  Mo  Mo0  1  0.49862365  0.23945683  0.74073945  1
  Mo  Mo1  1  0.00157824  0.24151525  0.23997751  1
  Mo  Mo2  1  0.12887348  0.75409546  0.62550732  1
  Mo  Mo3  1  0.86937871  0.49686393  0.62739638  1
  Mo  Mo4  1  0.62761764  0.75230110  0.12493473  1
  Os  Os0  1  0.37144215  0.49694038  0.12600479  1
loop_
_geom_bond_atom_site_label_1
_geom_bond_atom_site_label_2
_geom_bond_distance
_geom_bond_site_symmetry_2
Nb0 Si4 2.653043 1_544
Nb0 Si2 2.689832 1_544
Nb0 Si5 2.692246 1_554
Nb0 Si3 2.704608 1_555
Nb0 Si0 2.787261 1_555
Nb0 Os0 3.008848 1_555
Nb1 Si2 2.691198 1_555
Nb1 Si5 2.691600 1_554
Nb1 Si3 2.692602 1_555
Nb1 Si4 2.693248 1_555
Nb1 Si1 2.761773 1_555
Nb1 Os0 2.931232 1_555
Nb2 Si2 2.691194 1_655
Nb2 Si3 2.692086 1_554
Nb2 Si4 2.692229 1_554
Nb2 Si5 2.693051 1_654
Nb2 Si0 2.761418 1_555
Nb2 Os0 2.933440 1_655
Nb3 Si4 2.652869 1_444
Nb3 Si2 2.690505 1_545
Nb3 Si5 2.692730 1_555
Nb3 Si3 2.704515 1_455
Nb3 Si1 2.786685 1_555
Nb3 Os0 3.011085 1_556
Nb4 Si3 2.660481 1_565
Nb4 Si5 2.682075 1_665
Nb4 Si4 2.699940 1_555
Nb4 Si2 2.703229 1_555
Nb4 Si0 2.787870 1_555
Nb4 Os0 3.010471 1_555
Nb5 Si3 2.659600 1_565
Nb5 Si5 2.682742 1_564
Nb5 Si4 2.700334 1_454
Nb5 Si2 2.702476 1_555
Nb5 Si1 2.787226 1_554
Nb5 Os0 3.012185 1_555
Mo0 Si1 2.448541 1_555
Mo0 Si0 2.449023 1_556
Mo0 Si2 2.626492 1_545
Mo0 Si3 2.629228 1_555
Mo0 Nb5 2.875853 1_545
Mo0 Nb4 2.876567 1_545
Mo0 Nb2 2.922136 1_556
Mo0 Nb1 2.922143 1_555
Mo0 Nb0 2.934385 1_556
Mo0 Nb3 2.934760 1_555
Mo1 Si0 2.455978 1_455
Mo1 Si1 2.456803 1_555
Mo1 Si5 2.625900 1_554
Mo1 Si4 2.626008 1_444
Mo1 Nb4 2.857463 1_444
Mo1 Nb5 2.857725 1_545
Mo1 Nb1 2.908182 1_555
Mo1 Nb2 2.910451 1_455
Mo1 Nb3 2.956810 1_555
Mo1 Nb0 2.957309 1_455
Mo2 Si0 2.460254 1_455
Mo2 Si1 2.460383 1_555
Mo2 Si2 2.631027 1_555
Mo2 Si5 2.632777 1_565
Mo2 Nb0 2.861249 1_566
Mo2 Nb3 2.863152 1_565
Mo2 Nb1 2.923071 1_555
Mo2 Nb2 2.925480 1_455
Mo2 Nb5 2.936709 1_556
Mo2 Nb4 2.937520 1_455
Mo3 Si0 2.424537 1_555
Mo3 Si1 2.424665 1_655
Mo3 Si4 2.565507 1_555
Mo3 Si3 2.568227 1_555
Mo3 Nb2 2.897677 1_556
Mo3 Nb1 2.899201 1_555
Mo3 Nb4 3.002409 1_555
Mo3 Nb5 3.002437 1_656
Mo3 Nb3 3.006861 1_655
Mo3 Nb0 3.006987 1_555
Mo4 Si0 2.446185 1_555
Mo4 Si1 2.446992 1_554
Mo4 Si3 2.618120 1_565
Mo4 Si4 2.626433 1_554
Mo4 Nb3 2.866835 1_665
Mo4 Nb0 2.868776 1_565
Mo4 Nb2 2.910538 1_555
Mo4 Nb1 2.912056 1_554
Mo4 Nb4 2.944764 1_555
Mo4 Nb5 2.945775 1_555
Os0 Si0 2.403966 1_555
Os0 Si1 2.404657 1_554
Os0 Si5 2.536906 1_554
Os0 Si2 2.541496 1_555
