# generated using pymatgen
data_Cs2TcH9
_symmetry_space_group_name_H-M   'P 1'
_cell_length_a   10.47283655
_cell_length_b   10.47283579
_cell_length_c   6.07289646
_cell_angle_alpha   90.00000000
_cell_angle_beta   90.00000000
_cell_angle_gamma   119.99999610
_symmetry_Int_Tables_number   1
_chemical_formula_structural   Cs2TcH9
_chemical_formula_sum   'Cs6 Tc3 H27'
_cell_volume   576.83970307
_cell_formula_units_Z   3
loop_
 _symmetry_equiv_pos_site_id
 _symmetry_equiv_pos_as_xyz
  1  'x, y, z'
loop_
 _atom_site_type_symbol
 _atom_site_label
 _atom_site_symmetry_multiplicity
 _atom_site_fract_x
 _atom_site_fract_y
 _atom_site_fract_z
 _atom_site_occupancy
  Cs  Cs0  1  0.26133146  1.00000000  0.50000000  1
  Cs  Cs1  1  1.00000000  0.26133146  0.50000000  1
  Cs  Cs2  1  0.73866854  0.73866854  0.50000000  1
  Cs  Cs3  1  0.59043731  1.00000000  0.00000000  1
  Cs  Cs4  1  1.00000000  0.59043731  0.00000000  1
  Cs  Cs5  1  0.40956269  0.40956269  0.00000000  1
  Tc  Tc0  1  0.00000000  0.00000000  0.00000000  1
  Tc  Tc1  1  0.33333300  0.66666700  0.50000000  1
  Tc  Tc2  1  0.66666700  0.33333300  0.50000000  1
  H  H0  1  0.88567573  1.00000000  0.19363779  1
  H  H1  1  1.00000000  0.88567573  0.19363779  1
  H  H2  1  0.88567573  1.00000000  0.80636221  1
  H  H3  1  1.00000000  0.88567573  0.80636221  1
  H  H4  1  0.11432427  0.11432427  0.19363779  1
  H  H5  1  0.11432427  0.11432427  0.80636221  1
  H  H6  1  0.15819810  0.00000000  0.00000000  1
  H  H7  1  0.00000000  0.15819810  0.00000000  1
  H  H8  1  0.84180190  0.84180190  0.00000000  1
  H  H9  1  0.23486300  0.54466601  0.30147583  1
  H  H10  1  0.45533399  0.69019699  0.30147583  1
  H  H11  1  0.23486300  0.54466601  0.69852417  1
  H  H12  1  0.54466601  0.23486300  0.69852417  1
  H  H13  1  0.30980301  0.76513700  0.30147583  1
  H  H14  1  0.45533399  0.69019699  0.69852417  1
  H  H15  1  0.69019699  0.45533399  0.69852417  1
  H  H16  1  0.54466601  0.23486300  0.30147583  1
  H  H17  1  0.30980301  0.76513700  0.69852417  1
  H  H18  1  0.69019699  0.45533399  0.30147583  1
  H  H19  1  0.76513700  0.30980301  0.69852417  1
  H  H20  1  0.76513700  0.30980301  0.30147583  1
  H  H21  1  0.36601292  0.52730851  0.50000000  1
  H  H22  1  0.47269149  0.83870441  0.50000000  1
  H  H23  1  0.52730851  0.36601292  0.50000000  1
  H  H24  1  0.16129559  0.63398708  0.50000000  1
  H  H25  1  0.83870441  0.47269149  0.50000000  1
  H  H26  1  0.63398708  0.16129559  0.50000000  1
loop_
_geom_bond_atom_site_label_1
_geom_bond_atom_site_label_2
_geom_bond_distance
_geom_bond_site_symmetry_2
Cs0 H17 3.001643 1_555
Cs0 H13 3.001643 1_555
Cs0 H12 3.001643 1_565
Cs0 H16 3.001643 1_565
Cs0 H5 3.018056 1_565
Cs0 H4 3.018056 1_565
Cs0 H1 3.018056 1_455
Cs0 H3 3.018056 1_455
Cs0 H6 3.222830 1_566
Cs0 H6 3.222830 1_565
Cs1 H19 3.001643 1_555
Cs1 H20 3.001643 1_555
Cs1 H11 3.001643 1_655
Cs1 H9 3.001643 1_655
Cs1 H4 3.018056 1_655
Cs1 H5 3.018056 1_655
Cs1 H0 3.018056 1_545
Cs1 H2 3.018056 1_545
Cs1 H7 3.222830 1_655
Cs1 H7 3.222830 1_656
Cs2 H15 3.001643 1_555
Cs2 H18 3.001643 1_555
Cs2 H14 3.001643 1_555
Cs2 H10 3.001643 1_555
Cs2 H0 3.018056 1_555
Cs2 H2 3.018056 1_555
Cs2 H1 3.018056 1_555
Cs2 H3 3.018056 1_555
Cs2 H8 3.222830 1_555
Cs2 H8 3.222830 1_556
Cs3 H16 3.287981 1_565
Cs3 H12 3.287981 1_564
Cs3 H13 3.287981 1_555
Cs3 H17 3.287981 1_554
Cs3 H2 3.308051 1_554
Cs3 H0 3.308051 1_555
Cs3 H10 3.360074 1_555
Cs3 H14 3.360074 1_554
Cs3 H20 3.360074 1_565
Cs3 H19 3.360074 1_564
Cs3 H26 3.392797 1_564
Cs3 H26 3.392797 1_565
Cs3 H22 3.392797 1_554
Cs3 H22 3.392797 1_555
Cs4 H9 3.287981 1_655
Cs4 H11 3.287981 1_654
Cs4 H20 3.287981 1_555
Cs4 H19 3.287981 1_554
Cs4 H3 3.308051 1_554
Cs4 H1 3.308051 1_555
Cs4 H18 3.360074 1_555
Cs4 H15 3.360074 1_554
Cs4 H13 3.360074 1_655
Cs4 H17 3.360074 1_654
Cs4 H24 3.392797 1_654
Cs4 H24 3.392797 1_655
Cs4 H25 3.392797 1_555
Cs4 H25 3.392797 1_554
Cs5 H10 3.287981 1_555
Cs5 H14 3.287981 1_554
Cs5 H18 3.287981 1_555
Cs5 H15 3.287981 1_554
Cs5 H5 3.308051 1_554
Cs5 H4 3.308051 1_555
Cs5 H16 3.360074 1_555
Cs5 H12 3.360074 1_554
Cs5 H9 3.360074 1_555
Cs5 H11 3.360074 1_554
Cs5 H21 3.392797 1_555
Cs5 H21 3.392797 1_554
Cs5 H23 3.392797 1_555
Cs5 H23 3.392797 1_554
H0 Tc0 1.678203 1_665
H1 Tc0 1.678203 1_665
H2 Tc0 1.678203 1_666
H3 Tc0 1.678203 1_666
H4 Tc0 1.678203 1_555
H5 Tc0 1.678203 1_556
H6 Tc0 1.656783 1_555
H7 Tc0 1.656783 1_555
H8 Tc0 1.656783 1_665
H9 Tc1 1.682819 1_555
H10 Tc1 1.682822 1_555
H11 Tc1 1.682819 1_555
H12 Tc2 1.682819 1_555
H13 Tc1 1.682814 1_555
H14 Tc1 1.682822 1_555
H15 Tc2 1.682821 1_555
H16 Tc2 1.682819 1_555
H17 Tc1 1.682814 1_555
H18 Tc2 1.682821 1_555
H19 Tc2 1.682814 1_555
H20 Tc2 1.682814 1_555
H21 Tc1 1.657324 1_555
H22 Tc1 1.657317 1_555
H23 Tc2 1.657324 1_555
H24 Tc1 1.657314 1_555
H25 Tc2 1.657317 1_555
H26 Tc2 1.657314 1_555
