# generated using pymatgen
data_B2Pd3Pt2
_symmetry_space_group_name_H-M   'P 1'
_cell_length_a   6.95337915
_cell_length_b   6.95337946
_cell_length_c   5.52397155
_cell_angle_alpha   83.74289208
_cell_angle_beta   96.25710569
_cell_angle_gamma   137.96691046
_symmetry_Int_Tables_number   1
_chemical_formula_structural   B2Pd3Pt2
_chemical_formula_sum   'B4 Pd6 Pt4'
_cell_volume   177.60369510
_cell_formula_units_Z   2
loop_
 _symmetry_equiv_pos_site_id
 _symmetry_equiv_pos_as_xyz
  1  'x, y, z'
loop_
 _atom_site_type_symbol
 _atom_site_label
 _atom_site_symmetry_multiplicity
 _atom_site_fract_x
 _atom_site_fract_y
 _atom_site_fract_z
 _atom_site_occupancy
  B  B0  1  0.42132184  0.19446672  0.07635760  1
  B  B1  1  0.19446572  0.42132284  0.42364240  1
  B  B2  1  0.58077979  0.80187183  0.92772009  1
  B  B3  1  0.80187283  0.58077879  0.57227991  1
  Pd  Pd0  1  0.22128727  0.64633327  0.68707707  1
  Pd  Pd1  1  0.64633327  0.22128727  0.81292093  1
  Pd  Pd2  1  0.18212772  0.98686774  0.42332497  1
  Pd  Pd3  1  0.98686674  0.18212772  0.07667503  1
  Pd  Pd4  1  0.81805868  0.01402836  0.57787146  1
  Pd  Pd5  1  0.01402836  0.81805768  0.92212654  1
  Pt  Pt0  1  0.55973685  0.55973785  0.25000100  1
  Pt  Pt1  1  0.43688254  0.43688154  0.75000000  1
  Pt  Pt2  1  0.77992675  0.35630564  0.31485408  1
  Pt  Pt3  1  0.35630564  0.77992675  0.18514492  1
loop_
_geom_bond_atom_site_label_1
_geom_bond_atom_site_label_2
_geom_bond_distance
_geom_bond_site_symmetry_2
B0 Pd5 2.132052 1_544
B0 Pd1 2.145709 1_554
B0 Pt2 2.158320 1_555
B0 Pt0 2.235125 1_555
B0 Pd2 2.246944 1_545
B0 Pt1 2.283026 1_554
B0 Pt3 2.572916 1_545
B1 Pd4 2.132047 1_455
B1 Pd0 2.145692 1_555
B1 Pt3 2.158317 1_555
B1 Pt0 2.235119 1_555
B1 Pd3 2.246946 1_455
B1 Pt1 2.283040 1_555
B1 Pt2 2.572906 1_455
B2 Pd3 2.125607 1_566
B2 Pt3 2.136436 1_556
B2 Pd0 2.181332 1_555
B2 Pt1 2.227701 1_555
B2 Pt0 2.250091 1_556
B2 Pd4 2.256343 1_565
B3 Pd2 2.125610 1_655
B3 Pt2 2.136432 1_555
B3 Pd1 2.181319 1_555
B3 Pt1 2.227700 1_555
B3 Pt0 2.250097 1_555
B3 Pd5 2.256333 1_655
