# generated using pymatgen
data_Li5Ca6Ag11N
_symmetry_space_group_name_H-M   'P 1'
_cell_length_a   8.42812412
_cell_length_b   8.42741526
_cell_length_c   8.42741489
_cell_angle_alpha   108.55436432
_cell_angle_beta   109.92983395
_cell_angle_gamma   109.92983662
_symmetry_Int_Tables_number   1
_chemical_formula_structural   Li5Ca6Ag11N
_chemical_formula_sum   'Li5 Ca6 Ag11 N1'
_cell_volume   460.71617627
_cell_formula_units_Z   1
loop_
 _symmetry_equiv_pos_site_id
 _symmetry_equiv_pos_as_xyz
  1  'x, y, z'
loop_
 _atom_site_type_symbol
 _atom_site_label
 _atom_site_symmetry_multiplicity
 _atom_site_fract_x
 _atom_site_fract_y
 _atom_site_fract_z
 _atom_site_occupancy
  Li  Li0  1  0.68008213  0.34004157  0.34004157  1
  Li  Li1  1  0.34656164  0.00155598  0.66535680  1
  Li  Li2  1  0.34656164  0.68120385  0.34500466  1
  Li  Li3  1  0.34656164  0.34500466  0.68120385  1
  Li  Li4  1  0.34656164  0.66535680  0.00155598  1
  Ca  Ca0  1  0.99480220  0.25339747  0.25339747  1
  Ca  Ca1  1  0.25014790  0.99921958  0.25092932  1
  Ca  Ca2  1  0.74800242  0.00210170  0.74589972  1
  Ca  Ca3  1  0.74800242  0.74589972  0.00210170  1
  Ca  Ca4  1  0.25014790  0.25092932  0.99921958  1
  Ca  Ca5  1  0.99480220  0.74140473  0.74140473  1
  Ag  Ag0  1  0.49227732  0.49281988  0.49281988  1
  Ag  Ag1  1  0.49227732  0.99945644  0.99945644  1
  Ag  Ag2  1  0.00996510  0.50498305  0.00498305  1
  Ag  Ag3  1  0.00996510  0.00498305  0.50498305  1
  Ag  Ag4  1  0.01465581  0.35023291  0.66442290  1
  Ag  Ag5  1  0.01465581  0.66442290  0.35023291  1
  Ag  Ag6  1  0.65256235  0.65063877  0.30405323  1
  Ag  Ag7  1  0.65256235  0.00192358  0.34851012  1
  Ag  Ag8  1  0.65256235  0.34851012  0.00192358  1
  Ag  Ag9  1  0.65256235  0.30405323  0.65063877  1
  Ag  Ag10  1  0.30828639  0.65414319  0.65414319  1
  N  N0  1  0.99543600  0.99771850  0.99771850  1
loop_
_geom_bond_atom_site_label_1
_geom_bond_atom_site_label_2
_geom_bond_distance
_geom_bond_site_symmetry_2
Ca0 N0 2.519243 1_544
Ca1 N0 2.450212 1_454
Ca2 N0 2.437052 1_545
Ca3 N0 2.437051 1_554
Ca4 N0 2.450212 1_445
Ca5 N0 2.519253 1_555
Ag0 Li3 2.669328 1_555
Ag0 Li2 2.669328 1_555
Ag0 Li0 2.746734 1_555
Ag0 Ag6 2.776913 1_555
Ag0 Ag9 2.776913 1_555
Ag0 Ag10 2.792773 1_555
Ag1 Li1 2.669328 1_565
Ag1 Li4 2.669328 1_556
Ag1 Li0 2.746751 1_566
Ag1 Ag7 2.776924 1_566
Ag1 Ag8 2.776924 1_566
Ag1 Ag10 2.792764 1_555
Ag2 Li2 2.709638 1_555
Ag2 Li4 2.709645 1_555
Ag2 Ag5 2.769459 1_555
Ag2 Ag4 2.769468 1_554
Ag2 Ag8 2.833824 1_455
Ag2 Ag9 2.833829 1_454
Ag3 Li3 2.709638 1_555
Ag3 Li1 2.709645 1_555
Ag3 Ag4 2.769459 1_555
Ag3 Ag5 2.769468 1_545
Ag3 Ag7 2.833825 1_455
Ag3 Ag6 2.833829 1_445
Ag4 Li4 2.768635 1_556
Ag4 Li3 2.768640 1_555
Ag4 Ag7 2.897947 1_455
Ag4 Ag9 2.897949 1_455
Ag4 Li0 3.140407 1_455
Ag4 Ca0 3.225714 1_455
Ag4 Ca5 3.225714 1_455
Ag4 Ca4 3.379005 1_555
Ag4 Ca2 3.459582 1_455
Ag5 Li1 2.768635 1_565
Ag5 Li2 2.768640 1_555
Ag5 Ag8 2.897947 1_455
Ag5 Ag6 2.897949 1_455
Ag5 Li0 3.140407 1_455
Ag5 Ca5 3.225714 1_455
Ag5 Ca0 3.225714 1_455
Ag5 Ca1 3.379005 1_555
Ag5 Ca3 3.459582 1_455
Ag6 Li2 2.799974 1_555
Ag6 Li0 2.805069 1_555
Ag6 Ag7 2.863320 1_565
Ag6 Ag8 2.973234 1_555
Ag6 Li4 3.017055 1_555
Ag6 Ca3 3.165782 1_555
Ag6 Ca4 3.195881 1_554
Ag6 Ca5 3.455956 1_555
Ag6 Ca2 3.549674 1_565
Ag7 Li4 2.799984 1_545
Ag7 Li0 2.805077 1_555
Ag7 Ag9 2.973234 1_555
Ag7 Li2 3.017050 1_545
Ag7 Ca2 3.165769 1_555
Ag7 Ca1 3.195885 1_545
Ag7 Ca0 3.455962 1_555
Ag7 Ca3 3.549689 1_545
Ag8 Li1 2.799984 1_554
Ag8 Li0 2.805077 1_555
Ag8 Ag9 2.863320 1_554
Ag8 Li3 3.017051 1_554
Ag8 Ca3 3.165769 1_555
Ag8 Ca4 3.195885 1_554
Ag8 Ca0 3.455962 1_555
Ag8 Ca2 3.549690 1_554
Ag9 Li3 2.799974 1_555
Ag9 Li0 2.805068 1_555
Ag9 Li1 3.017055 1_555
Ag9 Ca2 3.165782 1_555
Ag9 Ca1 3.195881 1_545
Ag9 Ca5 3.455956 1_555
Ag9 Ca3 3.549674 1_556
Ag10 Li4 2.800752 1_556
Ag10 Li1 2.800752 1_565
Ag10 Li2 2.800757 1_555
Ag10 Li3 2.800757 1_555
Ag10 Ag4 2.942424 1_555
Ag10 Ag5 2.942424 1_555
Ag10 Ca5 3.219816 1_455
Ag10 Ca0 3.219816 1_455
Ag10 Ca2 3.482197 1_565
Ag10 Ca3 3.482197 1_556
