# generated using pymatgen
data_BaAs12PdRu3
_symmetry_space_group_name_H-M   'P 1'
_cell_length_a   7.46699069
_cell_length_b   7.46698934
_cell_length_c   7.46699054
_cell_angle_alpha   109.50281698
_cell_angle_beta   109.50280572
_cell_angle_gamma   109.50281677
_symmetry_Int_Tables_number   1
_chemical_formula_structural   BaAs12PdRu3
_chemical_formula_sum   'Ba1 As12 Pd1 Ru3'
_cell_volume   320.11485126
_cell_formula_units_Z   1
loop_
 _symmetry_equiv_pos_site_id
 _symmetry_equiv_pos_as_xyz
  1  'x, y, z'
loop_
 _atom_site_type_symbol
 _atom_site_label
 _atom_site_symmetry_multiplicity
 _atom_site_fract_x
 _atom_site_fract_y
 _atom_site_fract_z
 _atom_site_occupancy
  Ba  Ba0  1  0.00000000  0.00000000  0.00000000  1
  As  As0  1  0.85806552  0.65092818  0.49799288  1
  As  As1  1  0.14193448  0.34907182  0.50200712  1
  As  As2  1  0.15114415  0.65048471  0.80122779  1
  As  As3  1  0.84885585  0.34951529  0.19877221  1
  As  As4  1  0.65092818  0.49799288  0.85806552  1
  As  As5  1  0.34907182  0.50200712  0.14193448  1
  As  As6  1  0.65048471  0.80122779  0.15114415  1
  As  As7  1  0.34951529  0.19877221  0.84885585  1
  As  As8  1  0.49799288  0.85806552  0.65092818  1
  As  As9  1  0.50200712  0.14193448  0.34907182  1
  As  As10  1  0.19877221  0.84885585  0.34951529  1
  As  As11  1  0.80122779  0.15114415  0.65048471  1
  Pd  Pd0  1  0.50000000  0.50000000  0.50000000  1
  Ru  Ru0  1  0.50000000  0.00000000  0.00000000  1
  Ru  Ru1  1  0.00000000  0.50000000  0.00000000  1
  Ru  Ru2  1  0.00000000  0.00000000  0.50000000  1
loop_
_geom_bond_atom_site_label_1
_geom_bond_atom_site_label_2
_geom_bond_distance
_geom_bond_site_symmetry_2
As0 Ru2 2.456864 1_665
As0 Pd0 2.538690 1_555
As0 As3 2.549234 1_555
As0 As2 2.572409 1_655
As0 Ba0 3.308677 1_666
As1 Ru2 2.456864 1_555
As1 Pd0 2.538690 1_555
As1 As2 2.549234 1_555
As1 As3 2.572409 1_455
As1 Ba0 3.308677 1_555
As2 Ru0 2.468280 1_566
As2 Ru1 2.474790 1_556
As2 Ba0 3.284294 1_566
As3 Ru0 2.468280 1_555
As3 Ru1 2.474790 1_655
As3 Ba0 3.284294 1_655
As4 Ru1 2.456865 1_656
As4 Pd0 2.538690 1_555
As4 As7 2.549234 1_555
As4 As6 2.572409 1_556
As4 Ba0 3.308676 1_666
As5 Ru1 2.456865 1_555
As5 Pd0 2.538690 1_555
As5 As6 2.549234 1_555
As5 As7 2.572409 1_554
As5 Ba0 3.308676 1_555
As6 Ru2 2.468280 1_665
As6 Ru0 2.474790 1_565
As6 Ba0 3.284295 1_665
As7 Ru2 2.468280 1_555
As7 Ru0 2.474790 1_556
As7 Ba0 3.284295 1_556
As8 Ru0 2.456864 1_566
As8 Pd0 2.538690 1_555
As8 Ba0 3.308677 1_666
As9 Ru0 2.456864 1_555
As9 Pd0 2.538690 1_555
As9 Ba0 3.308677 1_555
As10 Ru1 2.468280 1_555
As10 Ru2 2.474790 1_565
As10 As8 2.549235 1_555
As10 As9 2.572409 1_565
As10 Ba0 3.284295 1_565
As11 Ru1 2.468280 1_656
As11 Ru2 2.474790 1_655
As11 As9 2.549235 1_555
As11 As8 2.572409 1_545
As11 Ba0 3.284295 1_656
