# generated using pymatgen
data_Ba3MgPt2O9
_symmetry_space_group_name_H-M   'P 1'
_cell_length_a   5.79842688
_cell_length_b   5.79842668
_cell_length_c   14.42069625
_cell_angle_alpha   90.00000000
_cell_angle_beta   90.00000000
_cell_angle_gamma   119.99999002
_symmetry_Int_Tables_number   1
_chemical_formula_structural   Ba3MgPt2O9
_chemical_formula_sum   'Ba6 Mg2 Pt4 O18'
_cell_volume   419.89167046
_cell_formula_units_Z   2
loop_
 _symmetry_equiv_pos_site_id
 _symmetry_equiv_pos_as_xyz
  1  'x, y, z'
loop_
 _atom_site_type_symbol
 _atom_site_label
 _atom_site_symmetry_multiplicity
 _atom_site_fract_x
 _atom_site_fract_y
 _atom_site_fract_z
 _atom_site_occupancy
  Ba  Ba0  1  0.33333300  0.66666700  0.58571599  1
  Ba  Ba1  1  0.66666700  0.33333300  0.08571599  1
  Ba  Ba2  1  0.66666700  0.33333300  0.41428401  1
  Ba  Ba3  1  0.33333300  0.66666700  0.91428401  1
  Ba  Ba4  1  0.00000000  0.00000000  0.75000000  1
  Ba  Ba5  1  0.00000000  0.00000000  0.25000000  1
  Mg  Mg0  1  0.00000000  0.00000000  0.00000000  1
  Mg  Mg1  1  0.00000000  0.00000000  0.50000000  1
  Pt  Pt0  1  0.66666700  0.33333300  0.65480902  1
  Pt  Pt1  1  0.33333300  0.66666700  0.15480902  1
  Pt  Pt2  1  0.66666700  0.33333300  0.84519098  1
  Pt  Pt3  1  0.33333300  0.66666700  0.34519098  1
  O  O0  1  0.16964341  0.83035659  0.08084595  1
  O  O1  1  0.16964341  0.33928582  0.08084595  1
  O  O2  1  0.66071418  0.83035659  0.08084595  1
  O  O3  1  0.33928582  0.16964341  0.58084595  1
  O  O4  1  0.83035659  0.66071418  0.91915405  1
  O  O5  1  0.83035659  0.16964341  0.58084595  1
  O  O6  1  0.83035659  0.66071418  0.58084595  1
  O  O7  1  0.16964341  0.83035659  0.41915405  1
  O  O8  1  0.66071418  0.83035659  0.41915405  1
  O  O9  1  0.33928582  0.16964341  0.91915405  1
  O  O10  1  0.83035659  0.16964341  0.91915405  1
  O  O11  1  0.16964341  0.33928582  0.41915405  1
  O  O12  1  0.48402715  0.96805430  0.25000000  1
  O  O13  1  0.51597285  0.48402715  0.75000000  1
  O  O14  1  0.96805430  0.48402715  0.75000000  1
  O  O15  1  0.03194570  0.51597285  0.25000000  1
  O  O16  1  0.48402715  0.51597285  0.25000000  1
  O  O17  1  0.51597285  0.03194570  0.75000000  1
loop_
_geom_bond_atom_site_label_1
_geom_bond_atom_site_label_2
_geom_bond_distance
_geom_bond_site_symmetry_2
Ba0 O3 2.900218 1_555
Ba0 O3 2.900218 1_565
Ba0 O6 2.900218 1_555
Ba0 O6 2.900218 1_455
Ba0 O5 2.900218 1_565
Ba0 O5 2.900218 1_455
Ba0 O7 2.910657 1_555
Ba0 O11 2.910663 1_555
Ba0 O8 2.910663 1_555
Ba0 O17 2.996191 1_565
Ba0 O14 2.996191 1_455
Ba0 O13 2.996194 1_555
Ba1 O2 2.900218 1_555
Ba1 O2 2.900218 1_545
Ba1 O1 2.900218 1_555
Ba1 O1 2.900218 1_655
Ba1 O0 2.900218 1_545
Ba1 O0 2.900218 1_655
Ba1 O10 2.910657 1_554
Ba1 O4 2.910663 1_554
Ba1 O9 2.910663 1_554
Ba1 O12 2.996191 1_545
Ba1 O15 2.996191 1_655
Ba1 O16 2.996194 1_555
Ba2 O8 2.900218 1_555
Ba2 O8 2.900218 1_545
Ba2 O11 2.900218 1_555
Ba2 O11 2.900218 1_655
Ba2 O7 2.900218 1_545
Ba2 O7 2.900218 1_655
Ba2 O5 2.910657 1_555
Ba2 O6 2.910663 1_555
Ba2 O3 2.910663 1_555
Ba2 O12 2.996191 1_545
Ba2 O15 2.996191 1_655
Ba2 O16 2.996194 1_555
Ba3 O9 2.900218 1_555
Ba3 O9 2.900218 1_565
Ba3 O4 2.900218 1_555
Ba3 O4 2.900218 1_455
Ba3 O10 2.900218 1_565
Ba3 O10 2.900218 1_455
Ba3 O0 2.910657 1_556
Ba3 O1 2.910663 1_556
Ba3 O2 2.910663 1_556
Ba3 O17 2.996191 1_565
Ba3 O14 2.996191 1_455
Ba3 O13 2.996194 1_555
Ba4 O14 2.903648 1_455
Ba4 O14 2.903648 1_445
Ba4 O17 2.903648 1_455
Ba4 O17 2.903648 1_555
Ba4 O13 2.903649 1_445
Ba4 O13 2.903649 1_555
Ba4 O4 2.975408 1_445
Ba4 O6 2.975408 1_445
Ba4 O9 2.975408 1_555
Ba4 O3 2.975408 1_555
Ba4 O10 2.975410 1_455
Ba4 O5 2.975410 1_455
Ba5 O15 2.903648 1_545
Ba5 O15 2.903648 1_555
Ba5 O12 2.903648 1_545
Ba5 O12 2.903648 1_445
Ba5 O16 2.903649 1_555
Ba5 O16 2.903649 1_445
Ba5 O11 2.975408 1_555
Ba5 O1 2.975408 1_555
Ba5 O8 2.975408 1_445
Ba5 O2 2.975408 1_445
Ba5 O7 2.975410 1_545
Ba5 O0 2.975410 1_545
Mg0 O1 2.064459 1_555
Mg0 O4 2.064459 1_444
Mg0 O2 2.064459 1_445
Mg0 O9 2.064459 1_554
Mg0 O0 2.064463 1_545
Mg0 O10 2.064463 1_454
Mg1 O6 2.064459 1_445
Mg1 O11 2.064459 1_555
Mg1 O3 2.064459 1_555
Mg1 O8 2.064459 1_445
Mg1 O5 2.064463 1_455
Mg1 O7 2.064463 1_545
O0 Pt1 1.959654 1_555
O1 Pt1 1.959663 1_555
O2 Pt1 1.959663 1_555
O3 Pt0 1.959663 1_555
O4 Pt2 1.959663 1_555
O5 Pt0 1.959654 1_555
O6 Pt0 1.959663 1_555
O7 Pt3 1.959654 1_555
O8 Pt3 1.959663 1_555
O9 Pt2 1.959663 1_555
O10 Pt2 1.959654 1_555
O11 Pt3 1.959663 1_555
O12 Pt3 2.043249 1_555
O12 Pt1 2.043249 1_555
O13 Pt2 2.043253 1_555
O13 Pt0 2.043253 1_555
O14 Pt2 2.043249 1_555
O14 Pt0 2.043249 1_555
O15 Pt3 2.043249 1_555
O15 Pt1 2.043249 1_555
O16 Pt3 2.043253 1_555
O16 Pt1 2.043253 1_555
O17 Pt2 2.043249 1_555
O17 Pt0 2.043249 1_555
