# generated using pymatgen
data_Cs6K3InSb4
_symmetry_space_group_name_H-M   'P 1'
_cell_length_a   11.14899934
_cell_length_b   11.14900056
_cell_length_c   11.72523522
_cell_angle_alpha   90.00000000
_cell_angle_beta   90.00000000
_cell_angle_gamma   119.99999349
_symmetry_Int_Tables_number   1
_chemical_formula_structural   Cs6K3InSb4
_chemical_formula_sum   'Cs12 K6 In2 Sb8'
_cell_volume   1262.18801278
_cell_formula_units_Z   2
loop_
 _symmetry_equiv_pos_site_id
 _symmetry_equiv_pos_as_xyz
  1  'x, y, z'
loop_
 _atom_site_type_symbol
 _atom_site_label
 _atom_site_symmetry_multiplicity
 _atom_site_fract_x
 _atom_site_fract_y
 _atom_site_fract_z
 _atom_site_occupancy
  Cs  Cs0  1  0.20841578  0.41683057  0.54256940  1
  Cs  Cs1  1  0.79158422  0.20841578  0.04256940  1
  Cs  Cs2  1  0.41683057  0.20841578  0.04256940  1
  Cs  Cs3  1  0.58316943  0.79158422  0.54256940  1
  Cs  Cs4  1  0.20841578  0.79158422  0.54256940  1
  Cs  Cs5  1  0.79158422  0.58316943  0.45743060  1
  Cs  Cs6  1  0.79158422  0.20841578  0.45743060  1
  Cs  Cs7  1  0.79158422  0.58316943  0.04256940  1
  Cs  Cs8  1  0.41683057  0.20841578  0.45743060  1
  Cs  Cs9  1  0.58316943  0.79158422  0.95743060  1
  Cs  Cs10  1  0.20841578  0.41683057  0.95743060  1
  Cs  Cs11  1  0.20841578  0.79158422  0.95743060  1
  K  K0  1  0.11959114  0.23918028  0.25000000  1
  K  K1  1  0.88040886  0.11959114  0.75000000  1
  K  K2  1  0.23918028  0.11959114  0.75000000  1
  K  K3  1  0.76081972  0.88040886  0.25000000  1
  K  K4  1  0.11959114  0.88040886  0.25000000  1
  K  K5  1  0.88040886  0.76081972  0.75000000  1
  In  In0  1  0.33333300  0.66666700  0.25000000  1
  In  In1  1  0.66666700  0.33333300  0.75000000  1
  Sb  Sb0  1  0.47900360  0.52099640  0.25000000  1
  Sb  Sb1  1  0.95800521  0.47900360  0.75000000  1
  Sb  Sb2  1  0.52099640  0.04199479  0.75000000  1
  Sb  Sb3  1  0.47900360  0.95800521  0.25000000  1
  Sb  Sb4  1  0.04199479  0.52099640  0.25000000  1
  Sb  Sb5  1  0.52099640  0.47900360  0.75000000  1
  Sb  Sb6  1  0.00000000  0.00000000  0.00000000  1
  Sb  Sb7  1  0.00000000  0.00000000  0.50000000  1
loop_
_geom_bond_atom_site_label_1
_geom_bond_atom_site_label_2
_geom_bond_distance
_geom_bond_site_symmetry_2
Cs0 K0 3.835375 1_555
Cs0 Sb5 4.015624 1_555
Cs0 Sb1 4.015650 1_455
Cs0 Sb7 4.055465 1_555
Cs0 In0 4.193674 1_555
Cs0 Sb4 4.325977 1_555
Cs0 Sb0 4.325983 1_555
Cs1 K1 3.835371 1_554
Cs1 Sb3 4.015633 1_545
Cs1 Sb4 4.015633 1_655
Cs1 Sb6 4.055474 1_655
Cs1 In1 4.193663 1_554
Cs1 Sb2 4.325983 1_554
Cs1 Sb1 4.325983 1_554
Cs2 K2 3.835375 1_554
Cs2 Sb0 4.015624 1_555
Cs2 Sb3 4.015650 1_545
Cs2 Sb6 4.055465 1_555
Cs2 In1 4.193674 1_554
Cs2 Sb2 4.325977 1_554
Cs2 Sb5 4.325984 1_554
Cs3 K3 3.835375 1_555
Cs3 Sb5 4.015624 1_555
Cs3 Sb2 4.015650 1_565
Cs3 Sb7 4.055465 1_665
Cs3 In0 4.193674 1_555
Cs3 Sb3 4.325977 1_555
Cs3 Sb0 4.325984 1_555
Cs4 K4 3.835371 1_555
Cs4 Sb2 4.015633 1_565
Cs4 Sb1 4.015633 1_455
Cs4 Sb7 4.055474 1_565
Cs4 In0 4.193663 1_555
Cs4 Sb3 4.325983 1_555
Cs4 Sb4 4.325983 1_555
Cs5 K5 3.835375 1_555
Cs5 Sb0 4.015624 1_555
Cs5 Sb4 4.015650 1_655
Cs5 Sb7 4.055465 1_665
Cs5 In1 4.193674 1_555
Cs5 Sb1 4.325977 1_555
Cs5 Sb5 4.325983 1_555
Cs6 K1 3.835371 1_555
Cs6 Sb3 4.015633 1_545
Cs6 Sb4 4.015633 1_655
Cs6 Sb7 4.055474 1_655
Cs6 In1 4.193663 1_555
Cs6 Sb2 4.325983 1_555
Cs6 Sb1 4.325983 1_555
Cs7 K5 3.835375 1_554
Cs7 Sb0 4.015624 1_555
Cs7 Sb4 4.015650 1_655
Cs7 Sb6 4.055465 1_665
Cs7 In1 4.193674 1_554
Cs7 Sb1 4.325977 1_554
Cs7 Sb5 4.325983 1_554
Cs8 K2 3.835375 1_555
Cs8 Sb0 4.015624 1_555
Cs8 Sb3 4.015650 1_545
Cs8 Sb7 4.055465 1_555
Cs8 In1 4.193674 1_555
Cs8 Sb2 4.325977 1_555
Cs8 Sb5 4.325984 1_555
Cs9 K3 3.835375 1_556
Cs9 Sb5 4.015624 1_555
Cs9 Sb2 4.015650 1_565
Cs9 Sb6 4.055465 1_666
Cs9 In0 4.193674 1_556
Cs9 Sb3 4.325977 1_556
Cs9 Sb0 4.325984 1_556
Cs10 K0 3.835375 1_556
Cs10 Sb5 4.015624 1_555
Cs10 Sb1 4.015650 1_455
Cs10 Sb6 4.055465 1_556
Cs10 In0 4.193674 1_556
Cs10 Sb4 4.325977 1_556
Cs10 Sb0 4.325983 1_556
Cs11 K4 3.835371 1_556
Cs11 Sb2 4.015633 1_565
Cs11 Sb1 4.015633 1_455
Cs11 Sb6 4.055474 1_566
Cs11 In0 4.193663 1_556
Cs11 Sb3 4.325983 1_556
Cs11 Sb4 4.325983 1_556
K0 Sb4 3.652202 1_555
K0 Sb0 3.652203 1_555
K0 Sb6 3.731718 1_555
K0 Sb7 3.731718 1_555
K1 Sb2 3.652202 1_555
K1 Sb1 3.652203 1_555
K1 Sb6 3.731730 1_656
K1 Sb7 3.731730 1_655
K2 Sb2 3.652202 1_555
K2 Sb5 3.652203 1_555
K2 Sb6 3.731718 1_556
K2 Sb7 3.731718 1_555
K3 Sb3 3.652202 1_555
K3 Sb0 3.652203 1_555
K3 Sb6 3.731718 1_665
K3 Sb7 3.731718 1_665
K4 Sb3 3.652202 1_555
K4 Sb4 3.652203 1_555
K4 Sb6 3.731730 1_565
K4 Sb7 3.731730 1_565
K5 Sb1 3.652202 1_555
K5 Sb5 3.652203 1_555
K5 Sb6 3.731718 1_666
K5 Sb7 3.731718 1_665
In0 Sb4 2.812963 1_555
In0 Sb3 2.812963 1_555
In0 Sb0 2.812992 1_555
In1 Sb1 2.812963 1_555
In1 Sb2 2.812963 1_555
In1 Sb5 2.812992 1_555
