# generated using pymatgen
data_Ba3NaTaS6
_symmetry_space_group_name_H-M   'P 1'
_cell_length_a   8.39206952
_cell_length_b   8.39206983
_cell_length_c   8.39206926
_cell_angle_alpha   91.28438355
_cell_angle_beta   91.28437896
_cell_angle_gamma   91.28437596
_symmetry_Int_Tables_number   1
_chemical_formula_structural   Ba3NaTaS6
_chemical_formula_sum   'Ba6 Na2 Ta2 S12'
_cell_volume   590.57461750
_cell_formula_units_Z   2
loop_
 _symmetry_equiv_pos_site_id
 _symmetry_equiv_pos_as_xyz
  1  'x, y, z'
loop_
 _atom_site_type_symbol
 _atom_site_label
 _atom_site_symmetry_multiplicity
 _atom_site_fract_x
 _atom_site_fract_y
 _atom_site_fract_z
 _atom_site_occupancy
  Ba  Ba0  1  0.25000000  0.88060608  0.61939392  1
  Ba  Ba1  1  0.61939392  0.25000000  0.88060608  1
  Ba  Ba2  1  0.88060608  0.61939392  0.25000000  1
  Ba  Ba3  1  0.75000000  0.11939392  0.38060608  1
  Ba  Ba4  1  0.38060608  0.75000000  0.11939392  1
  Ba  Ba5  1  0.11939392  0.38060608  0.75000000  1
  Na  Na0  1  0.75000000  0.75000000  0.75000000  1
  Na  Na1  1  0.25000000  0.25000000  0.25000000  1
  Ta  Ta0  1  0.50000000  0.50000000  0.50000000  1
  Ta  Ta1  1  0.00000000  0.00000000  0.00000000  1
  S  S0  1  0.05180749  0.72045175  0.92105459  1
  S  S1  1  0.92105459  0.05180749  0.72045175  1
  S  S2  1  0.72045175  0.92105459  0.05180749  1
  S  S3  1  0.44819251  0.57894541  0.77954825  1
  S  S4  1  0.77954825  0.44819251  0.57894541  1
  S  S5  1  0.57894541  0.77954825  0.44819251  1
  S  S6  1  0.94819251  0.27954825  0.07894541  1
  S  S7  1  0.07894541  0.94819251  0.27954825  1
  S  S8  1  0.27954825  0.07894541  0.94819251  1
  S  S9  1  0.55180749  0.42105459  0.22045175  1
  S  S10  1  0.42105459  0.22045175  0.55180749  1
  S  S11  1  0.22045175  0.55180749  0.42105459  1
loop_
_geom_bond_atom_site_label_1
_geom_bond_atom_site_label_2
_geom_bond_distance
_geom_bond_site_symmetry_2
Ba0 S8 3.192279 1_565
Ba0 S11 3.192279 1_555
Ba0 S7 3.231378 1_555
Ba0 S10 3.231379 1_565
Ba0 S5 3.260694 1_555
Ba0 S1 3.260694 1_465
Ba0 S3 3.350023 1_555
Ba0 S0 3.350023 1_555
Ba1 S10 3.192279 1_555
Ba1 S6 3.192279 1_556
Ba1 S9 3.231378 1_556
Ba1 S8 3.231378 1_555
Ba1 S3 3.260694 1_555
Ba1 S2 3.260694 1_546
Ba1 S1 3.350022 1_555
Ba1 S4 3.350023 1_555
Ba2 S9 3.192279 1_555
Ba2 S7 3.192279 1_655
Ba2 S6 3.231378 1_555
Ba2 S11 3.231378 1_655
Ba2 S0 3.260694 1_654
Ba2 S4 3.260694 1_555
Ba2 S5 3.350022 1_555
Ba2 S2 3.350023 1_555
Ba3 S2 3.192279 1_545
Ba3 S4 3.192279 1_555
Ba3 S1 3.231378 1_555
Ba3 S5 3.231379 1_545
Ba3 S10 3.260694 1_555
Ba3 S7 3.260694 1_645
Ba3 S9 3.350023 1_555
Ba3 S6 3.350023 1_555
Ba4 S5 3.192279 1_555
Ba4 S0 3.192279 1_554
Ba4 S3 3.231378 1_554
Ba4 S2 3.231378 1_555
Ba4 S9 3.260694 1_555
Ba4 S8 3.260694 1_564
Ba4 S7 3.350022 1_555
Ba4 S11 3.350023 1_555
Ba5 S3 3.192279 1_555
Ba5 S1 3.192279 1_455
Ba5 S0 3.231378 1_555
Ba5 S4 3.231378 1_455
Ba5 S6 3.260694 1_456
Ba5 S11 3.260694 1_555
Ba5 S10 3.350022 1_555
Ba5 S8 3.350023 1_555
Na0 S2 2.901430 1_556
Na0 S5 2.901430 1_555
Na0 S4 2.901430 1_555
Na0 S0 2.901430 1_655
Na0 S3 2.901431 1_555
Na0 S1 2.901431 1_565
Na1 S8 2.901430 1_554
Na1 S10 2.901430 1_555
Na1 S11 2.901430 1_555
Na1 S6 2.901430 1_455
Na1 S9 2.901431 1_555
Na1 S7 2.901431 1_545
S0 Ta1 2.473980 1_566
S1 Ta1 2.473980 1_656
S2 Ta1 2.473980 1_665
S3 Ta0 2.473980 1_555
S4 Ta0 2.473980 1_555
S5 Ta0 2.473980 1_555
S6 Ta1 2.473980 1_655
S7 Ta1 2.473980 1_565
S8 Ta1 2.473980 1_556
S9 Ta0 2.473980 1_555
S10 Ta0 2.473980 1_555
S11 Ta0 2.473980 1_555
