# generated using pymatgen
data_RbGaCl4
_symmetry_space_group_name_H-M   'P 1'
_cell_length_a   7.09787715
_cell_length_b   9.36407008
_cell_length_c   11.19047991
_cell_angle_alpha   90.00000000
_cell_angle_beta   90.00000000
_cell_angle_gamma   90.00000000
_symmetry_Int_Tables_number   1
_chemical_formula_structural   RbGaCl4
_chemical_formula_sum   'Rb4 Ga4 Cl16'
_cell_volume   743.77546042
_cell_formula_units_Z   4
loop_
 _symmetry_equiv_pos_site_id
 _symmetry_equiv_pos_as_xyz
  1  'x, y, z'
loop_
 _atom_site_type_symbol
 _atom_site_label
 _atom_site_symmetry_multiplicity
 _atom_site_fract_x
 _atom_site_fract_y
 _atom_site_fract_z
 _atom_site_occupancy
  Rb  Rb0  1  0.75000000  0.82681112  0.68272286  1
  Rb  Rb1  1  0.25000000  0.17318888  0.31727714  1
  Rb  Rb2  1  0.25000000  0.32681112  0.81727714  1
  Rb  Rb3  1  0.75000000  0.67318888  0.18272286  1
  Ga  Ga0  1  0.25000000  0.81137845  0.93241376  1
  Ga  Ga1  1  0.75000000  0.18862155  0.06758624  1
  Ga  Ga2  1  0.75000000  0.31137845  0.56758624  1
  Ga  Ga3  1  0.25000000  0.68862155  0.43241376  1
  Cl  Cl0  1  0.25000000  0.92257354  0.10309027  1
  Cl  Cl1  1  0.75000000  0.07742646  0.89690973  1
  Cl  Cl2  1  0.75000000  0.42257354  0.39690973  1
  Cl  Cl3  1  0.25000000  0.57742646  0.60309027  1
  Cl  Cl4  1  0.25000000  0.95536251  0.77960520  1
  Cl  Cl5  1  0.75000000  0.04463749  0.22039480  1
  Cl  Cl6  1  0.75000000  0.45536251  0.72039480  1
  Cl  Cl7  1  0.25000000  0.54463749  0.27960520  1
  Cl  Cl8  1  0.49872652  0.82611453  0.42037387  1
  Cl  Cl9  1  0.99872652  0.17388547  0.57962613  1
  Cl  Cl10  1  0.50127348  0.32611453  0.07962613  1
  Cl  Cl11  1  0.00127348  0.67388547  0.92037387  1
  Cl  Cl12  1  0.50127348  0.17388547  0.57962613  1
  Cl  Cl13  1  0.00127348  0.82611453  0.42037387  1
  Cl  Cl14  1  0.49872652  0.67388547  0.92037387  1
  Cl  Cl15  1  0.99872652  0.32611453  0.07962613  1
loop_
_geom_bond_atom_site_label_1
_geom_bond_atom_site_label_2
_geom_bond_distance
_geom_bond_site_symmetry_2
Cl0 Ga0 2.175338 1_554
Cl0 Rb1 3.354442 1_565
Cl1 Ga1 2.175338 1_556
Cl1 Rb0 3.354442 1_545
Cl2 Ga2 2.175338 1_555
Cl2 Rb3 3.354442 1_555
Cl3 Ga3 2.175338 1_555
Cl3 Rb2 3.354442 1_555
Cl4 Ga0 2.177603 1_555
Cl4 Rb2 3.503725 1_565
Cl4 Rb0 3.901207 1_455
Cl4 Rb0 3.901207 1_555
Cl5 Ga1 2.177603 1_555
Cl5 Rb3 3.503725 1_545
Cl5 Rb1 3.901207 1_655
Cl5 Rb1 3.901207 1_555
Cl6 Ga2 2.177603 1_555
Cl6 Rb0 3.503725 1_555
Cl6 Rb2 3.901207 1_655
Cl6 Rb2 3.901207 1_555
Cl7 Ga3 2.177603 1_555
Cl7 Rb1 3.503725 1_555
Cl7 Rb3 3.901207 1_555
Cl7 Rb3 3.901207 1_455
Cl8 Ga3 2.189186 1_555
Cl8 Rb0 3.435103 1_555
Cl8 Rb3 3.507721 1_555
Cl8 Rb1 3.874333 1_565
Cl9 Ga2 2.189186 1_555
Cl9 Rb1 3.435103 1_655
Cl9 Rb2 3.507721 1_655
Cl9 Rb0 3.874333 1_545
Cl10 Ga1 2.189186 1_555
Cl10 Rb2 3.435103 1_554
Cl10 Rb1 3.507721 1_555
Cl10 Rb3 3.874333 1_555
Cl11 Ga0 2.189186 1_555
Cl11 Rb3 3.435103 1_456
Cl11 Rb0 3.507721 1_455
Cl11 Rb2 3.874333 1_555
Cl12 Ga2 2.189186 1_555
Cl12 Rb1 3.435103 1_555
Cl12 Rb2 3.507721 1_555
Cl12 Rb0 3.874333 1_545
Cl13 Ga3 2.189186 1_555
Cl13 Rb0 3.435103 1_455
Cl13 Rb3 3.507721 1_455
Cl13 Rb1 3.874333 1_565
Cl14 Ga0 2.189186 1_555
Cl14 Rb3 3.435103 1_556
Cl14 Rb0 3.507721 1_555
Cl14 Rb2 3.874333 1_555
Cl15 Ga1 2.189186 1_555
Cl15 Rb2 3.435103 1_654
Cl15 Rb1 3.507721 1_655
Cl15 Rb3 3.874333 1_555
