# generated using pymatgen
data_ScCdGaNi3
_symmetry_space_group_name_H-M   'P 1'
_cell_length_a   4.98497958
_cell_length_b   4.98497980
_cell_length_c   4.83690317
_cell_angle_alpha   58.98202755
_cell_angle_beta   58.98202907
_cell_angle_gamma   59.99999915
_symmetry_Int_Tables_number   1
_chemical_formula_structural   ScCdGaNi3
_chemical_formula_sum   'Sc1 Cd1 Ga1 Ni3'
_cell_volume   83.66091218
_cell_formula_units_Z   1
loop_
 _symmetry_equiv_pos_site_id
 _symmetry_equiv_pos_as_xyz
  1  'x, y, z'
loop_
 _atom_site_type_symbol
 _atom_site_label
 _atom_site_symmetry_multiplicity
 _atom_site_fract_x
 _atom_site_fract_y
 _atom_site_fract_z
 _atom_site_occupancy
  Sc  Sc0  1  0.24693035  0.24693035  0.25920895  1
  Cd  Cd0  1  0.99921071  0.99921071  0.00236686  1
  Ga  Ga0  1  0.62648593  0.62648593  0.12054120  1
  Ni  Ni0  1  0.62589006  0.12559188  0.62262700  1
  Ni  Ni1  1  0.12559188  0.62589006  0.62262700  1
  Ni  Ni2  1  0.62589006  0.62589006  0.62262700  1
loop_
_geom_bond_atom_site_label_1
_geom_bond_atom_site_label_2
_geom_bond_distance
_geom_bond_site_symmetry_2
Cd0 Ni1 2.807562 1_655
Cd0 Ni0 2.807562 1_565
Cd0 Ni2 2.807563 1_555
Cd0 Sc0 2.888992 1_664
Cd0 Ni0 2.896849 1_564
Cd0 Ni2 2.896849 1_564
Cd0 Ni1 2.896849 1_654
Cd0 Ni2 2.896849 1_654
Cd0 Ni0 2.896849 1_664
Cd0 Ni1 2.896849 1_664
Cd0 Ga0 2.914513 1_655
Cd0 Ga0 2.914513 1_565
Cd0 Ga0 2.914513 1_555
Cd0 Sc0 3.046352 1_565
Cd0 Sc0 3.046352 1_655
Cd0 Sc0 3.046356 1_665
Ga0 Ni2 2.411428 1_554
Ga0 Ni1 2.411428 1_654
Ga0 Ni0 2.411428 1_564
Ga0 Ni2 2.425483 1_555
Ga0 Ni1 2.425483 1_555
Ga0 Ni0 2.425483 1_555
Ga0 Sc0 2.928125 1_555
Ga0 Sc0 2.928129 1_655
Ga0 Sc0 2.928129 1_565
Ni0 Ni1 2.491003 1_645
Ni0 Ni2 2.491003 1_545
Ni0 Ni1 2.493976 1_555
Ni0 Ni2 2.493976 1_555
Ni0 Sc0 2.863104 1_556
Ni0 Sc0 2.865033 1_555
Ni0 Sc0 2.865038 1_655
Ni1 Ni2 2.491003 1_455
Ni1 Ni2 2.493976 1_555
Ni1 Sc0 2.863104 1_556
Ni1 Sc0 2.865033 1_555
Ni1 Sc0 2.865038 1_565
Ni2 Sc0 2.863102 1_556
Ni2 Sc0 2.865035 1_565
Ni2 Sc0 2.865035 1_655
