# generated using pymatgen
data_Ca2Zn3Pt
_symmetry_space_group_name_H-M   'P 1'
_cell_length_a   5.40107857
_cell_length_b   5.40107887
_cell_length_c   8.98083486
_cell_angle_alpha   90.00000000
_cell_angle_beta   90.00000000
_cell_angle_gamma   119.99999817
_symmetry_Int_Tables_number   1
_chemical_formula_structural   Ca2Zn3Pt
_chemical_formula_sum   'Ca4 Zn6 Pt2'
_cell_volume   226.88634783
_cell_formula_units_Z   2
loop_
 _symmetry_equiv_pos_site_id
 _symmetry_equiv_pos_as_xyz
  1  'x, y, z'
loop_
 _atom_site_type_symbol
 _atom_site_label
 _atom_site_symmetry_multiplicity
 _atom_site_fract_x
 _atom_site_fract_y
 _atom_site_fract_z
 _atom_site_occupancy
  Ca  Ca0  1  0.66666700  0.33333300  0.05476792  1
  Ca  Ca1  1  0.66666700  0.33333300  0.44523208  1
  Ca  Ca2  1  0.33333300  0.66666700  0.55476792  1
  Ca  Ca3  1  0.33333300  0.66666700  0.94523208  1
  Zn  Zn0  1  0.16371023  0.32741945  0.25000000  1
  Zn  Zn1  1  0.16370923  0.83629077  0.25000000  1
  Zn  Zn2  1  0.67258155  0.83629077  0.25000000  1
  Zn  Zn3  1  0.32741845  0.16371023  0.75000000  1
  Zn  Zn4  1  0.83629077  0.16371023  0.75000000  1
  Zn  Zn5  1  0.83628977  0.67258155  0.75000000  1
  Pt  Pt0  1  0.00000000  0.00000000  0.00000000  1
  Pt  Pt1  1  0.00000000  0.00000000  0.50000000  1
loop_
_geom_bond_atom_site_label_1
_geom_bond_atom_site_label_2
_geom_bond_distance
_geom_bond_site_symmetry_2
Ca0 Pt0 3.156864 1_655
Ca0 Pt0 3.156869 1_555
Ca0 Pt0 3.156869 1_665
Ca0 Zn4 3.163786 1_554
Ca0 Zn3 3.163790 1_554
Ca0 Zn5 3.163790 1_554
Ca0 Zn2 3.219921 1_545
Ca0 Zn0 3.219923 1_555
Ca0 Zn0 3.219923 1_655
Ca0 Zn1 3.219923 1_545
Ca0 Zn1 3.219923 1_655
Ca0 Zn2 3.219925 1_555
Ca0 Ca3 3.269797 1_654
Ca0 Ca3 3.269798 1_544
Ca0 Ca3 3.269806 1_554
Ca0 Ca1 3.506694 1_555
Ca1 Pt1 3.156864 1_655
Ca1 Pt1 3.156869 1_555
Ca1 Pt1 3.156869 1_665
Ca1 Zn4 3.163786 1_555
Ca1 Zn3 3.163790 1_555
Ca1 Zn5 3.163790 1_555
Ca1 Zn2 3.219921 1_545
Ca1 Zn0 3.219923 1_555
Ca1 Zn0 3.219923 1_655
Ca1 Zn1 3.219923 1_545
Ca1 Zn1 3.219923 1_655
Ca1 Zn2 3.219925 1_555
Ca1 Ca2 3.269797 1_655
Ca1 Ca2 3.269798 1_545
Ca1 Ca2 3.269806 1_555
Ca2 Pt1 3.156864 1_565
Ca2 Pt1 3.156869 1_665
Ca2 Pt1 3.156869 1_555
Ca2 Zn1 3.163788 1_555
Ca2 Zn0 3.163788 1_555
Ca2 Zn2 3.163790 1_555
Ca2 Zn5 3.219921 1_555
Ca2 Zn3 3.219921 1_555
Ca2 Zn4 3.219921 1_455
Ca2 Zn5 3.219925 1_455
Ca2 Zn4 3.219925 1_565
Ca2 Zn3 3.219925 1_565
Ca2 Ca3 3.506694 1_555
Ca3 Pt0 3.156864 1_566
Ca3 Pt0 3.156869 1_666
Ca3 Pt0 3.156869 1_556
Ca3 Zn1 3.163788 1_556
Ca3 Zn0 3.163788 1_556
Ca3 Zn2 3.163790 1_556
Ca3 Zn5 3.219921 1_555
Ca3 Zn3 3.219921 1_555
Ca3 Zn4 3.219921 1_455
Ca3 Zn5 3.219925 1_455
Ca3 Zn4 3.219925 1_565
Ca3 Zn3 3.219925 1_565
Zn0 Zn1 2.652622 1_545
Zn0 Zn2 2.652625 1_445
Zn0 Zn2 2.748454 1_555
Zn0 Zn1 2.748457 1_555
Zn1 Zn2 2.652619 1_455
Zn1 Zn2 2.748459 1_555
Zn3 Zn4 2.652619 1_455
Zn3 Zn5 2.652625 1_445
Zn3 Zn5 2.748454 1_555
Zn3 Zn4 2.748459 1_555
Zn4 Zn5 2.652622 1_545
Zn4 Zn5 2.748457 1_555
Pt0 Zn1 2.717798 1_545
Pt0 Zn2 2.717798 1_445
Pt0 Zn3 2.717798 1_554
Pt0 Zn5 2.717798 1_444
Pt0 Zn4 2.717800 1_454
Pt0 Zn0 2.717801 1_555
Pt1 Zn1 2.717798 1_545
Pt1 Zn2 2.717798 1_445
Pt1 Zn3 2.717798 1_555
Pt1 Zn5 2.717798 1_445
Pt1 Zn4 2.717800 1_455
Pt1 Zn0 2.717801 1_555
