# generated using pymatgen
data_Cs3Sc2Bi3
_symmetry_space_group_name_H-M   'P 1'
_cell_length_a   7.15145142
_cell_length_b   8.66683367
_cell_length_c   12.56730187
_cell_angle_alpha   69.75028170
_cell_angle_beta   90.00000000
_cell_angle_gamma   90.00000000
_symmetry_Int_Tables_number   1
_chemical_formula_structural   Cs3Sc2Bi3
_chemical_formula_sum   'Cs6 Sc4 Bi6'
_cell_volume   730.78379372
_cell_formula_units_Z   2
loop_
 _symmetry_equiv_pos_site_id
 _symmetry_equiv_pos_as_xyz
  1  'x, y, z'
loop_
 _atom_site_type_symbol
 _atom_site_label
 _atom_site_symmetry_multiplicity
 _atom_site_fract_x
 _atom_site_fract_y
 _atom_site_fract_z
 _atom_site_occupancy
  Cs  Cs0  1  0.25000000  0.45113628  0.41379399  1
  Cs  Cs1  1  0.75000000  0.14973877  0.93632467  1
  Cs  Cs2  1  0.75000000  0.47187971  0.14285245  1
  Cs  Cs3  1  0.25000000  0.52812029  0.85714755  1
  Cs  Cs4  1  0.75000000  0.54886372  0.58620601  1
  Cs  Cs5  1  0.25000000  0.85026123  0.06367533  1
  Sc  Sc0  1  0.00137077  0.01630696  0.34287169  1
  Sc  Sc1  1  0.50137077  0.98369304  0.65712831  1
  Sc  Sc2  1  0.49862923  0.01630696  0.34287169  1
  Sc  Sc3  1  0.99862923  0.98369304  0.65712831  1
  Bi  Bi0  1  0.25000000  0.82535704  0.53391842  1
  Bi  Bi1  1  0.75000000  0.17464296  0.46608158  1
  Bi  Bi2  1  0.25000000  0.23771965  0.17601750  1
  Bi  Bi3  1  0.75000000  0.76228035  0.82398250  1
  Bi  Bi4  1  0.25000000  0.16855177  0.74684701  1
  Bi  Bi5  1  0.75000000  0.83144823  0.25315299  1
loop_
_geom_bond_atom_site_label_1
_geom_bond_atom_site_label_2
_geom_bond_distance
_geom_bond_site_symmetry_2
Bi0 Sc2 2.985688 1_565
Bi0 Sc0 2.985688 1_565
Bi0 Sc1 2.997198 1_555
Bi0 Sc3 2.997198 1_455
Bi0 Cs3 3.986648 1_555
Bi0 Cs0 4.023352 1_555
Bi0 Cs4 4.227287 1_455
Bi0 Cs4 4.227287 1_555
Bi1 Sc3 2.985688 1_545
Bi1 Sc1 2.985688 1_545
Bi1 Sc0 2.997198 1_655
Bi1 Sc2 2.997198 1_555
Bi1 Cs2 3.986648 1_555
Bi1 Cs4 4.023352 1_555
Bi1 Cs0 4.227287 1_555
Bi1 Cs0 4.227287 1_655
Bi2 Sc2 2.907828 1_555
Bi2 Sc0 2.907828 1_555
Bi2 Cs3 3.925760 1_554
Bi2 Cs0 4.022015 1_555
Bi2 Cs2 4.061106 1_555
Bi2 Cs2 4.061106 1_455
Bi2 Cs5 4.068359 1_545
Bi3 Sc3 2.907828 1_555
Bi3 Sc1 2.907828 1_555
Bi3 Cs2 3.925760 1_556
Bi3 Cs4 4.022015 1_555
Bi3 Cs3 4.061106 1_555
Bi3 Cs3 4.061106 1_655
Bi3 Cs1 4.068359 1_565
Bi4 Sc1 2.884481 1_545
Bi4 Sc3 2.884481 1_445
Bi4 Cs3 3.824031 1_555
Bi4 Cs5 3.982493 1_546
Bi4 Cs0 4.052314 1_555
Bi4 Cs1 4.267770 1_555
Bi4 Cs1 4.267770 1_455
Bi5 Sc0 2.884481 1_665
Bi5 Sc2 2.884481 1_565
Bi5 Cs2 3.824031 1_555
Bi5 Cs1 3.982493 1_564
Bi5 Cs4 4.052314 1_555
Bi5 Cs5 4.267770 1_555
Bi5 Cs5 4.267770 1_655
