# generated using pymatgen
data_LiSc(TcSn4)2
_symmetry_space_group_name_H-M   'P 1'
_cell_length_a   7.40141589
_cell_length_b   7.40141622
_cell_length_c   7.40141505
_cell_angle_alpha   125.19207622
_cell_angle_beta   125.19207734
_cell_angle_gamma   81.22012696
_symmetry_Int_Tables_number   1
_chemical_formula_structural   LiSc(TcSn4)2
_chemical_formula_sum   'Li1 Sc1 Tc2 Sn8'
_cell_volume   260.82226209
_cell_formula_units_Z   1
loop_
 _symmetry_equiv_pos_site_id
 _symmetry_equiv_pos_as_xyz
  1  'x, y, z'
loop_
 _atom_site_type_symbol
 _atom_site_label
 _atom_site_symmetry_multiplicity
 _atom_site_fract_x
 _atom_site_fract_y
 _atom_site_fract_z
 _atom_site_occupancy
  Li  Li0  1  0.00000000  0.00000000  0.00000000  1
  Sc  Sc0  1  0.50000000  0.50000000  0.00000000  1
  Tc  Tc0  1  0.25092638  0.25092638  1.00000000  1
  Tc  Tc1  1  0.74907362  0.74907362  0.00000000  1
  Sn  Sn0  1  0.70752360  0.52060229  0.50998381  1
  Sn  Sn1  1  0.52060229  0.01061849  0.81307969  1
  Sn  Sn2  1  0.19753879  0.70752360  0.18692031  1
  Sn  Sn3  1  0.80246121  0.29247640  0.81307969  1
  Sn  Sn4  1  0.47939771  0.98938151  0.18692031  1
  Sn  Sn5  1  0.29247640  0.47939771  0.49001619  1
  Sn  Sn6  1  0.98938151  0.80246121  0.50998381  1
  Sn  Sn7  1  0.01061849  0.19753879  0.49001619  1
loop_
_geom_bond_atom_site_label_1
_geom_bond_atom_site_label_2
_geom_bond_distance
_geom_bond_site_symmetry_2
Li0 Tc0 2.819829 1_554
Li0 Tc1 2.819829 1_445
Li0 Sn3 2.981955 1_454
Li0 Sn2 2.981955 1_545
Li0 Sn5 2.981960 1_555
Li0 Sn0 2.981960 1_444
Li0 Sn7 2.981961 1_555
Li0 Sn6 2.981961 1_444
Li0 Sn4 2.981961 1_545
Li0 Sn1 2.981961 1_454
Sc0 Tc1 2.799008 1_555
Sc0 Tc0 2.799008 1_554
Sc0 Sn0 3.058680 1_555
Sc0 Sn5 3.058680 1_554
Sc0 Sn6 3.058682 1_555
Sc0 Sn7 3.058682 1_554
Sc0 Sn4 3.058682 1_555
Sc0 Sn1 3.058682 1_554
Sc0 Sn3 3.058683 1_554
Sc0 Sn2 3.058683 1_555
Sn0 Tc1 2.812813 1_556
Sn0 Tc0 2.885189 1_554
Sn0 Sn7 3.018138 1_655
Sn0 Sn5 3.043419 1_555
Sn0 Sn6 3.167433 1_555
Sn0 Sn4 3.250225 1_545
Sn0 Sn3 3.250231 1_555
Sn1 Tc1 2.812809 1_546
Sn1 Tc0 2.885185 1_555
Sn1 Sn2 3.018142 1_545
Sn1 Sn4 3.043404 1_546
Sn1 Sn3 3.167433 1_555
Sn1 Sn6 3.250223 1_445
Sn1 Sn5 3.250225 1_545
Sn2 Tc1 2.812807 1_455
Sn2 Tc0 2.885192 1_554
Sn2 Sn3 3.043414 1_454
Sn2 Sn4 3.167433 1_555
Sn2 Sn6 3.250224 1_455
Sn2 Sn5 3.250231 1_555
Sn3 Tc0 2.812807 1_655
Sn3 Tc1 2.885192 1_556
Sn3 Sn4 3.018142 1_545
Sn3 Sn7 3.250224 1_655
Sn4 Tc0 2.812809 1_564
Sn4 Tc1 2.885185 1_555
Sn4 Sn7 3.250223 1_665
Sn5 Tc0 2.812813 1_554
Sn5 Tc1 2.885189 1_556
Sn5 Sn6 3.018138 1_455
Sn5 Sn7 3.167433 1_555
Sn6 Tc0 2.812809 1_665
Sn6 Tc1 2.885185 1_555
Sn6 Sn7 3.043405 1_665
Sn7 Tc1 2.812809 1_445
Sn7 Tc0 2.885185 1_555
