# generated using pymatgen
data_Lu3B7Mo
_symmetry_space_group_name_H-M   'P 1'
_cell_length_a   7.98211690
_cell_length_b   7.98211677
_cell_length_c   9.32419202
_cell_angle_alpha   90.00000000
_cell_angle_beta   90.00000000
_cell_angle_gamma   155.39515655
_symmetry_Int_Tables_number   1
_chemical_formula_structural   Lu3B7Mo
_chemical_formula_sum   'Lu6 B14 Mo2'
_cell_volume   247.35114202
_cell_formula_units_Z   2
loop_
 _symmetry_equiv_pos_site_id
 _symmetry_equiv_pos_as_xyz
  1  'x, y, z'
loop_
 _atom_site_type_symbol
 _atom_site_label
 _atom_site_symmetry_multiplicity
 _atom_site_fract_x
 _atom_site_fract_y
 _atom_site_fract_z
 _atom_site_occupancy
  Lu  Lu0  1  0.25594869  0.74405131  0.25000000  1
  Lu  Lu1  1  0.74405131  0.25594869  0.75000000  1
  Lu  Lu2  1  0.60707699  0.39292301  0.05889600  1
  Lu  Lu3  1  0.39292301  0.60707699  0.94110400  1
  Lu  Lu4  1  0.39292301  0.60707699  0.55889600  1
  Lu  Lu5  1  0.60707699  0.39292301  0.44110400  1
  B  B0  1  0.98173784  0.01826216  0.09117741  1
  B  B1  1  0.01826216  0.98173784  0.90882259  1
  B  B2  1  0.01826216  0.98173784  0.59117741  1
  B  B3  1  0.98173784  0.01826216  0.40882259  1
  B  B4  1  0.77188462  0.22811538  0.03403787  1
  B  B5  1  0.22811538  0.77188462  0.96596213  1
  B  B6  1  0.22811538  0.77188462  0.53403787  1
  B  B7  1  0.77188462  0.22811538  0.46596213  1
  B  B8  1  0.86485579  0.13514421  0.14688051  1
  B  B9  1  0.13514421  0.86485579  0.85311949  1
  B  B10  1  0.13514421  0.86485579  0.64688051  1
  B  B11  1  0.86485579  0.13514421  0.35311949  1
  B  B12  1  0.04899284  0.95100716  0.25000000  1
  B  B13  1  0.95100716  0.04899284  0.75000000  1
  Mo  Mo0  1  0.44736543  0.55263457  0.25000000  1
  Mo  Mo1  1  0.55263457  0.44736543  0.75000000  1
loop_
_geom_bond_atom_site_label_1
_geom_bond_atom_site_label_2
_geom_bond_distance
_geom_bond_site_symmetry_2
B0 B1 1.793212 1_644
B0 B12 1.814796 1_645
B0 B8 1.895626 1_555
B0 Mo0 2.317989 1_655
B0 Mo0 2.317989 1_545
B0 Lu3 2.601871 1_654
B0 Lu3 2.601871 1_544
B0 Lu2 2.608678 1_545
B0 Lu2 2.608678 1_655
B1 B13 1.814796 1_465
B1 B9 1.895626 1_555
B1 Mo1 2.317989 1_455
B1 Mo1 2.317989 1_565
B1 Lu2 2.601871 1_456
B1 Lu2 2.601871 1_566
B1 Lu3 2.608678 1_565
B1 Lu3 2.608678 1_455
B2 B3 1.793212 1_465
B2 Mo1 2.317989 1_455
B2 Mo1 2.317989 1_565
B2 Lu5 2.601871 1_455
B2 Lu5 2.601871 1_565
B2 Lu4 2.608678 1_565
B2 Lu4 2.608678 1_455
B3 Mo0 2.317989 1_655
B3 Mo0 2.317989 1_545
B3 Lu4 2.601871 1_655
B3 Lu4 2.601871 1_545
B3 Lu5 2.608678 1_545
B3 Lu5 2.608678 1_655
B4 B8 1.791629 1_555
B4 B5 1.939479 1_654
B4 B5 1.939479 1_544
B4 Lu2 2.581038 1_555
B4 Lu0 2.647500 1_655
B4 Lu0 2.647500 1_545
B4 Lu1 2.683770 1_554
B4 Lu3 2.684714 1_544
B4 Lu3 2.684714 1_654
B5 B9 1.791629 1_555
B5 Lu3 2.581038 1_555
B5 Lu1 2.647500 1_455
B5 Lu1 2.647500 1_565
B5 Lu0 2.683770 1_556
B5 Lu2 2.684714 1_566
B5 Lu2 2.684714 1_456
B6 B7 1.939479 1_455
B6 B7 1.939479 1_565
B6 Lu4 2.581038 1_555
B6 Lu1 2.647500 1_455
B6 Lu1 2.647500 1_565
B6 Lu0 2.683770 1_555
B6 Lu5 2.684714 1_565
B6 Lu5 2.684714 1_455
B7 Lu5 2.581038 1_555
B7 Lu0 2.647500 1_655
B7 Lu0 2.647500 1_545
B7 Lu1 2.683770 1_555
B7 Lu4 2.684714 1_545
B7 Lu4 2.684714 1_655
B8 Mo0 2.339518 1_545
B8 Mo0 2.339518 1_655
B8 Lu0 2.588947 1_655
B8 Lu0 2.588948 1_545
B8 Lu3 2.601088 1_544
B8 Lu3 2.601088 1_654
B9 Mo1 2.339518 1_565
B9 Mo1 2.339518 1_455
B9 Lu1 2.588947 1_455
B9 Lu1 2.588948 1_565
B9 Lu2 2.601088 1_566
B9 Lu2 2.601088 1_456
B10 B6 1.791629 1_555
B10 B2 1.895626 1_555
B10 B9 1.923012 1_555
B10 Mo1 2.339518 1_565
B10 Mo1 2.339518 1_455
B10 Lu1 2.588947 1_455
B10 Lu1 2.588948 1_565
B10 Lu5 2.601088 1_565
B10 Lu5 2.601088 1_455
B11 B7 1.791629 1_555
B11 B3 1.895626 1_555
B11 B8 1.923012 1_555
B11 Mo0 2.339518 1_545
B11 Mo0 2.339518 1_655
B11 Lu0 2.588947 1_655
B11 Lu0 2.588948 1_545
B11 Lu4 2.601088 1_545
B11 Lu4 2.601088 1_655
B12 B3 1.814796 1_465
B12 Mo0 2.324928 1_565
B12 Mo0 2.324928 1_455
B12 Lu5 2.624599 1_455
B12 Lu2 2.624599 1_455
B12 Lu5 2.624599 1_565
B12 Lu2 2.624599 1_565
B12 Lu0 3.228023 1_555
B13 B2 1.814796 1_645
B13 Mo1 2.324928 1_545
B13 Mo1 2.324928 1_655
B13 Lu3 2.624599 1_655
B13 Lu4 2.624599 1_655
B13 Lu3 2.624599 1_545
B13 Lu4 2.624599 1_545
B13 Lu1 3.228023 1_555
