# generated using pymatgen
data_Rb2Cd(SeO3)2
_symmetry_space_group_name_H-M   'P 1'
_cell_length_a   7.36123604
_cell_length_b   7.36123660
_cell_length_c   7.36123631
_cell_angle_alpha   46.15583476
_cell_angle_beta   46.15582856
_cell_angle_gamma   46.15583483
_symmetry_Int_Tables_number   1
_chemical_formula_structural   Rb2Cd(SeO3)2
_chemical_formula_sum   'Rb2 Cd1 Se2 O6'
_cell_volume   189.31989354
_cell_formula_units_Z   1
loop_
 _symmetry_equiv_pos_site_id
 _symmetry_equiv_pos_as_xyz
  1  'x, y, z'
loop_
 _atom_site_type_symbol
 _atom_site_label
 _atom_site_symmetry_multiplicity
 _atom_site_fract_x
 _atom_site_fract_y
 _atom_site_fract_z
 _atom_site_occupancy
  Rb  Rb0  1  0.19683567  0.19683567  0.19683567  1
  Rb  Rb1  1  0.80316433  0.80316433  0.80316433  1
  Cd  Cd0  1  0.00000000  0.00000000  0.00000000  1
  Se  Se0  1  0.37326726  0.37326726  0.37326726  1
  Se  Se1  1  0.62673274  0.62673274  0.62673274  1
  O  O0  1  0.25530521  0.71931472  0.25530521  1
  O  O1  1  0.71931472  0.25530521  0.25530521  1
  O  O2  1  0.74469479  0.74469479  0.28068528  1
  O  O3  1  0.25530521  0.25530521  0.71931472  1
  O  O4  1  0.74469479  0.28068528  0.74469479  1
  O  O5  1  0.28068528  0.74469479  0.74469479  1
loop_
_geom_bond_atom_site_label_1
_geom_bond_atom_site_label_2
_geom_bond_distance
_geom_bond_site_symmetry_2
Rb0 Se0 3.474307 1_555
Rb1 Se1 3.474307 1_555
Cd0 O3 2.338170 1_554
Cd0 O2 2.338170 1_445
Cd0 O1 2.338170 1_455
Cd0 O5 2.338170 1_544
Cd0 O0 2.338170 1_545
Cd0 O4 2.338170 1_454
O0 Se0 1.706658 1_555
O0 Rb0 2.965017 1_565
O0 Rb1 3.119240 1_554
O0 Rb1 3.119240 1_455
O1 Se0 1.706657 1_555
O1 Rb0 2.965016 1_655
O1 Rb1 3.119241 1_554
O1 Rb1 3.119241 1_545
O2 Se1 1.706657 1_555
O2 Rb1 2.965016 1_554
O2 Rb0 3.119240 1_565
O2 Rb0 3.119241 1_655
O3 Se0 1.706657 1_555
O3 Rb0 2.965016 1_556
O3 Rb1 3.119240 1_545
O3 Rb1 3.119241 1_455
O4 Se1 1.706658 1_555
O4 Rb1 2.965017 1_545
O4 Rb0 3.119240 1_556
O4 Rb0 3.119240 1_655
O5 Se1 1.706657 1_555
O5 Rb1 2.965016 1_455
O5 Rb0 3.119241 1_556
O5 Rb0 3.119241 1_565
