# generated using pymatgen
data_Mg(FeO2)2
_symmetry_space_group_name_H-M   'P 1'
_cell_length_a   5.98783400
_cell_length_b   6.00067051
_cell_length_c   14.64181903
_cell_angle_alpha   90.39303112
_cell_angle_beta   89.93047878
_cell_angle_gamma   119.73812598
_symmetry_Int_Tables_number   1
_chemical_formula_structural   Mg(FeO2)2
_chemical_formula_sum   'Mg6 Fe12 O24'
_cell_volume   456.79736123
_cell_formula_units_Z   6
loop_
 _symmetry_equiv_pos_site_id
 _symmetry_equiv_pos_as_xyz
  1  'x, y, z'
loop_
 _atom_site_type_symbol
 _atom_site_label
 _atom_site_symmetry_multiplicity
 _atom_site_fract_x
 _atom_site_fract_y
 _atom_site_fract_z
 _atom_site_occupancy
  Mg  Mg0  1  0.83786600  0.66304100  0.95918300  1
  Mg  Mg1  1  0.16434700  0.33023800  0.66769900  1
  Mg  Mg2  1  0.66680900  0.83323800  0.16623000  1
  Mg  Mg3  1  0.33485000  0.16519000  0.83424400  1
  Mg  Mg4  1  0.83571400  0.66992300  0.33320100  1
  Mg  Mg5  1  0.00018800  0.49965500  0.49995700  1
  Fe  Fe0  1  0.50236300  0.99263100  0.62123400  1
  Fe  Fe1  1  0.83006000  0.16477300  0.83435000  1
  Fe  Fe2  1  0.49950400  0.99949700  0.99740700  1
  Fe  Fe3  1  0.33551700  0.67005500  0.83398300  1
  Fe  Fe4  1  0.17225600  0.33070200  0.29024400  1
  Fe  Fe5  1  0.50109200  0.50052500  0.50054400  1
  Fe  Fe6  1  0.99968700  0.99958400  0.50018300  1
  Fe  Fe7  1  0.16432400  0.83289200  0.16601500  1
  Fe  Fe8  1  0.82783100  0.66862900  0.71110400  1
  Fe  Fe9  1  0.66773500  0.33766600  0.16522000  1
  Fe  Fe10  1  0.49767900  0.00727900  0.37700700  1
  Fe  Fe11  1  0.16252800  0.33762300  0.04049500  1
  O  O0  1  0.65564500  0.29690900  0.91718500  1
  O  O1  1  0.50204100  0.99754900  0.75353200  1
  O  O2  1  0.20291200  0.84522700  0.91634100  1
  O  O3  1  0.65281100  0.84840300  0.91562900  1
  O  O4  1  0.00307700  0.49338600  0.75642400  1
  O  O5  1  0.32584300  0.64493900  0.58091600  1
  O  O6  1  0.48279500  0.49729500  0.75566300  1
  O  O7  1  0.17660500  0.34279700  0.42167300  1
  O  O8  1  0.16596700  0.33662800  0.91032300  1
  O  O9  1  0.85083600  0.16234100  0.57781100  1
  O  O10  1  0.99975000  0.01480800  0.75529500  1
  O  O11  1  0.31982300  0.16804100  0.57797600  1
  O  O12  1  0.67963700  0.83228000  0.42176300  1
  O  O13  1  0.00131200  0.98787700  0.24564000  1
  O  O14  1  0.14995700  0.83798700  0.42201900  1
  O  O15  1  0.83708700  0.66082000  0.09486400  1
  O  O16  1  0.82170100  0.65779700  0.57961900  1
  O  O17  1  0.51808200  0.50567900  0.24563300  1
  O  O18  1  0.99899100  0.50907600  0.24488100  1
  O  O19  1  0.67327200  0.35382500  0.41892700  1
  O  O20  1  0.34052300  0.15364100  0.08255600  1
  O  O21  1  0.80611700  0.15611900  0.08198800  1
  O  O22  1  0.49541000  0.00301600  0.24349000  1
  O  O23  1  0.33945500  0.69041700  0.08154900  1
loop_
_geom_bond_atom_site_label_1
_geom_bond_atom_site_label_2
_geom_bond_distance
_geom_bond_site_symmetry_2
Mg0 O15 1.986737 1_556
Mg0 O0 2.000129 1_555
Mg0 O2 2.000479 1_655
Mg0 O3 2.026303 1_555
Mg1 O5 2.081851 1_555
Mg1 O10 2.092493 1_455
Mg1 O9 2.093508 1_455
Mg1 O6 2.095610 1_555
Mg1 O11 2.101957 1_555
Mg1 O4 2.120370 1_555
Mg2 O15 2.056943 1_555
Mg2 O17 2.073760 1_555
Mg2 O13 2.090868 1_655
Mg2 O22 2.095130 1_565
Mg2 O21 2.097157 1_565
Mg2 O23 2.106823 1_555
Mg3 O0 2.067733 1_555
Mg3 O2 2.068810 1_545
Mg3 O8 2.082159 1_555
Mg3 O6 2.087488 1_555
Mg3 O10 2.090857 1_455
Mg3 O1 2.095393 1_545
Mg4 O19 2.078170 1_555
Mg4 O14 2.086665 1_655
Mg4 O17 2.088434 1_555
Mg4 O12 2.094525 1_555
Mg4 O13 2.102549 1_655
Mg4 O18 2.115582 1_555
Mg5 O5 2.066997 1_555
Mg5 O7 2.069865 1_555
Mg5 O19 2.072978 1_455
Mg5 O16 2.095514 1_455
Mg5 O9 2.104659 1_455
Mg5 O14 2.109812 1_555
Fe0 O5 1.901454 1_555
Fe0 O9 1.921661 1_565
Fe0 O1 1.937119 1_555
Fe0 O11 1.963662 1_565
Fe1 O0 1.998918 1_555
Fe1 O10 2.017921 1_555
Fe1 O3 2.043472 1_545
Fe1 O4 2.065143 1_655
Fe1 O8 2.068416 1_655
Fe1 O1 2.073407 1_545
Fe2 O2 1.943924 1_555
Fe2 O0 1.951820 1_565
Fe2 O3 1.976507 1_555
Fe2 O21 2.016288 1_566
Fe2 O23 2.035003 1_556
Fe2 O20 2.042296 1_566
Fe3 O2 1.999451 1_555
Fe3 O6 2.013862 1_555
Fe3 O3 2.038346 1_555
Fe3 O4 2.066725 1_555
Fe3 O8 2.072676 1_555
Fe3 O1 2.080547 1_555
Fe4 O13 1.897476 1_545
Fe4 O17 1.914739 1_555
Fe4 O7 1.924951 1_555
Fe4 O18 1.943273 1_455
Fe5 O16 2.027220 1_555
Fe5 O5 2.030301 1_555
Fe5 O19 2.036882 1_555
Fe5 O7 2.042208 1_555
Fe5 O11 2.079352 1_555
Fe5 O12 2.086551 1_555
Fe6 O9 1.971305 1_565
Fe6 O14 1.976765 1_655
Fe6 O11 2.015177 1_665
Fe6 O12 2.019831 1_555
Fe6 O7 2.133142 1_665
Fe6 O16 2.134535 1_555
Fe7 O15 1.993461 1_455
Fe7 O13 2.014904 1_555
Fe7 O18 2.051534 1_455
Fe7 O23 2.057160 1_555
Fe7 O22 2.059366 1_565
Fe7 O20 2.079776 1_565
Fe8 O6 1.910438 1_555
Fe8 O10 1.911876 1_565
Fe8 O16 1.925611 1_555
Fe8 O4 1.937327 1_655
Fe9 O15 1.980865 1_555
Fe9 O17 2.020674 1_555
Fe9 O21 2.057526 1_555
Fe9 O18 2.077944 1_555
Fe9 O20 2.089059 1_555
Fe9 O22 2.093723 1_555
Fe10 O19 1.903030 1_555
Fe10 O14 1.925869 1_545
Fe10 O22 1.954899 1_555
Fe10 O12 1.966084 1_545
Fe11 O8 1.906042 1_554
Fe11 O23 1.929887 1_555
Fe11 O21 1.951877 1_455
Fe11 O20 1.977958 1_555
