# generated using pymatgen
data_Ti12Ga7Cu5O4
_symmetry_space_group_name_H-M   'P 1'
_cell_length_a   8.03032910
_cell_length_b   8.00431159
_cell_length_c   8.03032916
_cell_angle_alpha   59.89242180
_cell_angle_beta   60.00000375
_cell_angle_gamma   59.89242055
_symmetry_Int_Tables_number   1
_chemical_formula_structural   Ti12Ga7Cu5O4
_chemical_formula_sum   'Ti12 Ga7 Cu5 O4'
_cell_volume   364.39095526
_cell_formula_units_Z   1
loop_
 _symmetry_equiv_pos_site_id
 _symmetry_equiv_pos_as_xyz
  1  'x, y, z'
loop_
 _atom_site_type_symbol
 _atom_site_label
 _atom_site_symmetry_multiplicity
 _atom_site_fract_x
 _atom_site_fract_y
 _atom_site_fract_z
 _atom_site_occupancy
  Ti  Ti0  1  0.93208138  0.56715765  0.56867960  1
  Ti  Ti1  1  0.68198687  0.31918182  0.68198687  1
  Ti  Ti2  1  0.93208138  0.56715765  0.93208138  1
  Ti  Ti3  1  0.56526738  0.93563238  0.93383286  1
  Ti  Ti4  1  0.31627048  0.68410847  0.31627048  1
  Ti  Ti5  1  0.56526738  0.93563238  0.56526738  1
  Ti  Ti6  1  0.68335058  0.68410847  0.31627048  1
  Ti  Ti7  1  0.93383286  0.93563238  0.56526738  1
  Ti  Ti8  1  0.31684344  0.31918182  0.68198687  1
  Ti  Ti9  1  0.68198687  0.31918182  0.31684344  1
  Ti  Ti10  1  0.56867960  0.56715765  0.93208138  1
  Ti  Ti11  1  0.31627048  0.68410847  0.68335058  1
  Ga  Ga0  1  0.25664274  0.91400927  0.91467399  1
  Ga  Ga1  1  0.33671166  0.32784460  0.33671166  1
  Ga  Ga2  1  0.33671166  0.32784460  0.99873209  1
  Ga  Ga3  1  0.91437869  0.25686494  0.91437869  1
  Ga  Ga4  1  0.91467399  0.91400927  0.91467399  1
  Ga  Ga5  1  0.99873209  0.32784460  0.33671166  1
  Ga  Ga6  1  0.91467399  0.91400927  0.25664274  1
  Cu  Cu0  1  0.33461041  0.99616776  0.33461041  1
  Cu  Cu1  1  0.12572639  0.62281982  0.12572639  1
  Cu  Cu2  1  0.12466127  0.12322925  0.62744721  1
  Cu  Cu3  1  0.62744721  0.12322925  0.12466127  1
  Cu  Cu4  1  0.12466127  0.12322925  0.12466127  1
  O  O0  1  0.62479636  0.12561192  0.62479636  1
  O  O1  1  0.62325595  0.62834941  0.12513970  1
  O  O2  1  0.12513970  0.62834941  0.62325595  1
  O  O3  1  0.62325595  0.62834941  0.62325595  1
loop_
_geom_bond_atom_site_label_1
_geom_bond_atom_site_label_2
_geom_bond_distance
_geom_bond_site_symmetry_2
Ga0 Ti10 2.643445 1_555
Ga0 Ti3 2.652214 1_555
Ga0 Ti5 2.652214 1_555
Ga0 Ga3 2.741943 1_465
Ga0 Ga4 2.746122 1_455
Ga0 Ga6 2.746122 1_456
Ga0 Ti11 2.953351 1_555
Ga0 Ti4 2.953351 1_556
Ga0 Ti8 2.972041 1_565
Ga1 Ti9 2.663424 1_555
Ga1 Ti8 2.663424 1_555
Ga1 Ti4 2.696941 1_555
Ga1 Ga5 2.714087 1_455
Ga1 Ga2 2.714087 1_554
Ga1 Ti5 2.898312 1_545
Ga1 Ti0 2.996652 1_455
Ga1 Ti10 2.996652 1_554
Ga2 Ti1 2.663427 1_555
Ga2 Ti8 2.663432 1_555
Ga2 Ti11 2.696941 1_555
Ga2 Ga5 2.714087 1_456
Ga2 Ti3 2.898312 1_545
Ga2 Ti10 2.996652 1_555
Ga2 Ti2 2.996652 1_455
Ga3 Ti2 2.633959 1_555
Ga3 Ti10 2.633963 1_555
Ga3 Ti0 2.633963 1_555
Ga3 Ga6 2.741943 1_546
Ga3 Ga4 2.741947 1_545
Ga3 Ti8 2.971341 1_655
Ga3 Ti9 2.971341 1_556
Ga3 Ti1 2.971355 1_555
Ga4 Ti2 2.643445 1_555
Ga4 Ti3 2.652214 1_555
Ga4 Ti7 2.652214 1_555
Ga4 Ga6 2.746122 1_556
Ga4 Ti11 2.953351 1_655
Ga4 Ti6 2.953351 1_556
Ga4 Ti1 2.972044 1_565
Ga5 Ti1 2.663427 1_555
Ga5 Ti9 2.663432 1_555
Ga5 Ti6 2.696941 1_555
Ga5 Ti7 2.898312 1_545
Ga5 Ti0 2.996652 1_555
Ga5 Ti2 2.996652 1_554
Ga6 Ti0 2.643445 1_555
Ga6 Ti7 2.652214 1_555
Ga6 Ti5 2.652214 1_555
Ga6 Ti6 2.953351 1_555
Ga6 Ti4 2.953351 1_655
Ga6 Ti9 2.972041 1_565
Cu0 Cu4 2.474113 1_565
Cu0 Cu2 2.474113 1_565
Cu0 Cu3 2.474113 1_565
Cu0 Ti4 2.653734 1_555
Cu0 Ti6 2.653738 1_555
Cu0 Ti11 2.653738 1_555
Cu0 Ga5 2.671876 1_465
Cu0 Ga2 2.671876 1_564
Cu0 Ga1 2.671880 1_565
Cu0 Ti7 2.954051 1_455
Cu0 Ti3 2.954051 1_554
Cu0 Ti5 2.954058 1_555
Cu1 Ga4 2.474588 1_454
Cu1 Ga6 2.474592 1_455
Cu1 Ga0 2.474592 1_554
Cu1 Ga2 2.481887 1_554
Cu1 Ga5 2.481887 1_455
Cu1 Ga1 2.481891 1_555
Cu1 Ti6 2.961536 1_455
Cu1 Ti11 2.961536 1_554
Cu1 Ti4 2.961543 1_555
Cu1 Ti2 2.973725 1_454
Cu1 Ti10 2.973732 1_554
Cu1 Ti0 2.973733 1_455
Cu2 Ga5 2.453367 1_455
Cu2 Ga1 2.453372 1_555
Cu2 Ga4 2.456935 1_445
Cu2 Ga0 2.456940 1_545
Cu2 Ga3 2.464641 1_455
Cu2 Ti11 2.933462 1_545
Cu2 Ti7 2.945894 1_445
Cu2 Ti5 2.945901 1_545
Cu2 Ti0 2.962259 1_455
Cu2 Ti8 2.971058 1_555
Cu2 Ti1 2.971058 1_455
Cu3 Ga2 2.453367 1_554
Cu3 Ga1 2.453372 1_555
Cu3 Ga4 2.456935 1_544
Cu3 Ga6 2.456940 1_545
Cu3 Ga3 2.464641 1_554
Cu3 Ti6 2.933462 1_545
Cu3 Ti3 2.945894 1_544
Cu3 Ti5 2.945901 1_545
Cu3 Ti10 2.962259 1_554
Cu3 Ti9 2.971058 1_555
Cu3 Ti1 2.971058 1_554
Cu4 Ga5 2.453374 1_455
Cu4 Ga2 2.453374 1_554
Cu4 Ga0 2.456933 1_544
Cu4 Ga6 2.456933 1_445
Cu4 Ga3 2.464628 1_454
Cu4 Ti4 2.933464 1_545
Cu4 Ti3 2.945899 1_544
Cu4 Ti7 2.945899 1_445
Cu4 Ti2 2.962258 1_454
Cu4 Ti9 2.971058 1_455
Cu4 Ti8 2.971058 1_554
O0 Ti7 2.111046 1_545
O0 Ti3 2.111046 1_545
O0 Ti5 2.111051 1_545
O0 Ti1 2.112143 1_555
O0 Ti8 2.112154 1_555
O0 Ti9 2.112154 1_555
O1 Ti3 2.098089 1_554
O1 Ti6 2.105192 1_555
O1 Ti4 2.105198 1_555
O1 Ti9 2.109373 1_555
O1 Ti2 2.119453 1_554
O1 Ti10 2.119458 1_554
O2 Ti7 2.098089 1_455
O2 Ti11 2.105192 1_555
O2 Ti4 2.105198 1_555
O2 Ti8 2.109373 1_555
O2 Ti2 2.119453 1_455
O2 Ti0 2.119458 1_455
O3 Ti5 2.098087 1_555
O3 Ti11 2.105200 1_555
O3 Ti6 2.105200 1_555
O3 Ti1 2.109377 1_555
O3 Ti0 2.119450 1_555
O3 Ti10 2.119451 1_555
