# generated using pymatgen
data_Rb6CaSe4
_symmetry_space_group_name_H-M   'P 1'
_cell_length_a   10.95722265
_cell_length_b   10.95722218
_cell_length_c   8.41295156
_cell_angle_alpha   90.00000000
_cell_angle_beta   90.00000000
_cell_angle_gamma   120.00000729
_symmetry_Int_Tables_number   1
_chemical_formula_structural   Rb6CaSe4
_chemical_formula_sum   'Rb12 Ca2 Se8'
_cell_volume   874.74192615
_cell_formula_units_Z   2
loop_
 _symmetry_equiv_pos_site_id
 _symmetry_equiv_pos_as_xyz
  1  'x, y, z'
loop_
 _atom_site_type_symbol
 _atom_site_label
 _atom_site_symmetry_multiplicity
 _atom_site_fract_x
 _atom_site_fract_y
 _atom_site_fract_z
 _atom_site_occupancy
  Rb  Rb0  1  0.14592589  0.85407411  0.54353653  1
  Rb  Rb1  1  0.29185278  0.14592589  0.04353653  1
  Rb  Rb2  1  0.85407411  0.70814722  0.04353653  1
  Rb  Rb3  1  0.14592589  0.29185278  0.54353653  1
  Rb  Rb4  1  0.70814722  0.85407411  0.54353653  1
  Rb  Rb5  1  0.85407411  0.14592589  0.04353653  1
  Rb  Rb6  1  0.53068338  0.46931662  0.36631362  1
  Rb  Rb7  1  0.06136677  0.53068338  0.86631362  1
  Rb  Rb8  1  0.46931662  0.93863323  0.86631362  1
  Rb  Rb9  1  0.53068338  0.06136677  0.36631362  1
  Rb  Rb10  1  0.93863323  0.46931662  0.36631362  1
  Rb  Rb11  1  0.46931662  0.53068338  0.86631362  1
  Ca  Ca0  1  0.33333300  0.66666700  0.25207337  1
  Ca  Ca1  1  0.66666700  0.33333300  0.75207337  1
  Se  Se0  1  0.33333300  0.66666700  0.58904360  1
  Se  Se1  1  0.66666700  0.33333300  0.08904360  1
  Se  Se2  1  0.19112737  0.80887263  0.14734453  1
  Se  Se3  1  0.38225374  0.19112737  0.64734453  1
  Se  Se4  1  0.80887263  0.61774626  0.64734453  1
  Se  Se5  1  0.19112737  0.38225374  0.14734453  1
  Se  Se6  1  0.61774626  0.80887263  0.14734453  1
  Se  Se7  1  0.80887263  0.19112737  0.64734453  1
loop_
_geom_bond_atom_site_label_1
_geom_bond_atom_site_label_2
_geom_bond_distance
_geom_bond_site_symmetry_2
Rb0 Se3 3.397682 1_565
Rb0 Se4 3.397682 1_455
Rb0 Se2 3.441768 1_555
Rb0 Se0 3.577246 1_555
Rb1 Se2 3.397682 1_545
Rb1 Se5 3.397682 1_555
Rb1 Se3 3.441763 1_554
Rb1 Se1 3.577245 1_555
Rb2 Se2 3.397682 1_655
Rb2 Se6 3.397682 1_555
Rb2 Se4 3.441763 1_554
Rb2 Se1 3.577245 1_555
Rb3 Se7 3.397682 1_455
Rb3 Se3 3.397682 1_555
Rb3 Se5 3.441763 1_555
Rb3 Se0 3.577245 1_555
Rb4 Se7 3.397682 1_565
Rb4 Se4 3.397682 1_555
Rb4 Se6 3.441763 1_555
Rb4 Se0 3.577245 1_555
Rb5 Se6 3.397682 1_545
Rb5 Se5 3.397682 1_655
Rb5 Se7 3.441768 1_554
Rb5 Se1 3.577246 1_555
Rb6 Se1 3.478739 1_555
Rb6 Se3 3.545269 1_555
Rb6 Se4 3.545269 1_555
Rb6 Se6 3.820620 1_555
Rb6 Se5 3.820620 1_555
Rb7 Se0 3.478732 1_555
Rb7 Se2 3.545268 1_556
Rb7 Se5 3.545276 1_556
Rb7 Se7 3.820623 1_455
Rb7 Se4 3.820630 1_455
Rb8 Se0 3.478732 1_555
Rb8 Se2 3.545269 1_556
Rb8 Se6 3.545276 1_556
Rb8 Se7 3.820623 1_565
Rb8 Se3 3.820630 1_565
Rb9 Se1 3.478732 1_555
Rb9 Se7 3.545269 1_555
Rb9 Se3 3.545276 1_555
Rb9 Se2 3.820623 1_545
Rb9 Se6 3.820630 1_545
Rb10 Se1 3.478732 1_555
Rb10 Se7 3.545268 1_555
Rb10 Se4 3.545276 1_555
Rb10 Se2 3.820623 1_655
Rb10 Se5 3.820630 1_655
Rb11 Se0 3.478739 1_555
Rb11 Se6 3.545269 1_556
Rb11 Se5 3.545269 1_556
Rb11 Se3 3.820620 1_555
Rb11 Se4 3.820620 1_555
Ca0 Se0 2.834914 1_555
Ca0 Se2 2.839025 1_555
Ca0 Se5 2.839043 1_555
Ca0 Se6 2.839043 1_555
Ca1 Se1 2.834914 1_556
Ca1 Se7 2.839025 1_555
Ca1 Se4 2.839043 1_555
Ca1 Se3 2.839043 1_555
