# generated using pymatgen
data_Ta3Si4TcOs4
_symmetry_space_group_name_H-M   'P 1'
_cell_length_a   6.19778223
_cell_length_b   3.91948092
_cell_length_c   7.20892374
_cell_angle_alpha   90.00000000
_cell_angle_beta   90.53193125
_cell_angle_gamma   90.00000000
_symmetry_Int_Tables_number   1
_chemical_formula_structural   Ta3Si4TcOs4
_chemical_formula_sum   'Ta3 Si4 Tc1 Os4'
_cell_volume   175.11227181
_cell_formula_units_Z   1
loop_
 _symmetry_equiv_pos_site_id
 _symmetry_equiv_pos_as_xyz
  1  'x, y, z'
loop_
 _atom_site_type_symbol
 _atom_site_label
 _atom_site_symmetry_multiplicity
 _atom_site_fract_x
 _atom_site_fract_y
 _atom_site_fract_z
 _atom_site_occupancy
  Ta  Ta0  1  0.01426668  0.24999900  0.30606353  1
  Ta  Ta1  1  0.97502292  0.75000000  0.68389311  1
  Ta  Ta2  1  0.47772714  0.75000000  0.83010097  1
  Si  Si0  1  0.24414681  0.75000000  0.12785027  1
  Si  Si1  1  0.70513787  0.75000000  0.36166539  1
  Si  Si2  1  0.27899497  0.24999900  0.62401041  1
  Si  Si3  1  0.76648019  0.24999900  0.88854235  1
  Tc  Tc0  1  0.52461377  0.24999900  0.17537709  1
  Os  Os0  1  0.85722018  0.75000000  0.06539944  1
  Os  Os1  1  0.33551535  0.75000000  0.44920699  1
  Os  Os2  1  0.66541349  0.24999900  0.55473618  1
  Os  Os3  1  0.15546463  0.24999900  0.93314926  1
loop_
_geom_bond_atom_site_label_1
_geom_bond_atom_site_label_2
_geom_bond_distance
_geom_bond_site_symmetry_2
Ta0 Tc0 3.169269 1_455
Ta0 Tc0 3.308715 1_555
Ta2 Tc0 3.179158 1_566
Ta2 Tc0 3.179163 1_556
Si0 Ta2 2.600140 1_554
Si0 Tc0 2.639790 1_565
Si0 Tc0 2.639795 1_555
Si0 Ta0 2.748632 1_565
Si0 Ta0 2.748638 1_555
Si1 Tc0 2.620682 1_565
Si1 Tc0 2.620688 1_555
Si1 Ta0 2.772402 1_665
Si1 Ta0 2.772408 1_655
Si1 Ta1 2.849856 1_555
Si2 Ta2 2.744258 1_545
Si2 Ta2 2.744263 1_555
Si2 Ta1 2.755232 1_445
Si2 Ta1 2.755237 1_455
Si2 Ta0 2.806364 1_555
Si3 Tc0 2.565216 1_556
Si3 Ta2 2.684554 1_545
Si3 Ta2 2.684560 1_555
Si3 Ta1 2.779037 1_545
Si3 Ta1 2.779043 1_555
Os0 Si1 2.342496 1_555
Os0 Si3 2.401880 1_564
Os0 Si3 2.401887 1_554
Os0 Si0 2.435869 1_655
Os0 Ta0 2.786859 1_665
Os0 Ta0 2.786864 1_655
Os0 Ta1 2.852057 1_554
Os0 Ta2 2.887067 1_554
Os0 Tc0 2.957860 1_565
Os0 Tc0 2.957866 1_555
Os1 Si2 2.357846 1_565
Os1 Si2 2.357853 1_555
Os1 Si0 2.379731 1_555
Os1 Si1 2.381817 1_555
Os1 Ta1 2.815027 1_455
Os1 Ta2 2.876028 1_555
Os1 Ta0 2.971776 1_565
Os1 Ta0 2.971782 1_555
Os1 Tc0 3.025531 1_565
Os1 Tc0 3.025536 1_555
Os2 Si1 2.417591 1_545
Os2 Si1 2.417597 1_555
Os2 Si2 2.450985 1_555
Os2 Si3 2.480939 1_555
Os2 Ta0 2.821409 1_655
Os2 Tc0 2.862896 1_555
Os2 Ta1 2.890753 1_545
Os2 Ta1 2.890758 1_555
Os2 Ta2 3.029377 1_545
Os2 Ta2 3.029382 1_555
Os3 Si2 2.363116 1_555
Os3 Si3 2.429231 1_455
Os3 Si0 2.469492 1_546
Os3 Si0 2.469498 1_556
Os3 Ta0 2.834876 1_556
Os3 Tc0 2.865232 1_556
Os3 Ta1 2.877963 1_445
Os3 Ta1 2.877969 1_455
Os3 Ta2 2.899867 1_545
Os3 Ta2 2.899872 1_555
