# generated using pymatgen
data_Cs2NbFeS4
_symmetry_space_group_name_H-M   'P 1'
_cell_length_a   7.34584433
_cell_length_b   7.34584495
_cell_length_c   5.65921343
_cell_angle_alpha   79.11860759
_cell_angle_beta   79.11861022
_cell_angle_gamma   117.42532322
_symmetry_Int_Tables_number   1
_chemical_formula_structural   Cs2NbFeS4
_chemical_formula_sum   'Cs2 Nb1 Fe1 S4'
_cell_volume   252.51632548
_cell_formula_units_Z   1
loop_
 _symmetry_equiv_pos_site_id
 _symmetry_equiv_pos_as_xyz
  1  'x, y, z'
loop_
 _atom_site_type_symbol
 _atom_site_label
 _atom_site_symmetry_multiplicity
 _atom_site_fract_x
 _atom_site_fract_y
 _atom_site_fract_z
 _atom_site_occupancy
  Cs  Cs0  1  0.14933732  0.85066268  0.00000000  1
  Cs  Cs1  1  0.85014945  0.14985055  0.50000000  1
  Nb  Nb0  1  0.50247885  0.49752115  0.00000000  1
  Fe  Fe0  1  0.49827989  0.50172011  0.50000000  1
  S  S0  1  0.21421433  0.41762378  0.84271268  1
  S  S1  1  0.58237622  0.78578567  0.15728732  1
  S  S2  1  0.78723646  0.58407252  0.65190403  1
  S  S3  1  0.41592748  0.21276354  0.34809597  1
loop_
_geom_bond_atom_site_label_1
_geom_bond_atom_site_label_2
_geom_bond_distance
_geom_bond_site_symmetry_2
Cs0 S2 3.645512 1_455
Cs0 S3 3.645512 1_564
Cs0 S2 3.664345 1_454
Cs0 S3 3.664345 1_565
Cs0 S1 3.666584 1_555
Cs0 S0 3.666585 1_554
Cs0 S1 3.869991 1_455
Cs0 S0 3.869992 1_564
Cs1 S0 3.651817 1_655
Cs1 S1 3.651817 1_545
Cs1 S3 3.656525 1_555
Cs1 S2 3.656525 1_555
Cs1 S0 3.673353 1_654
Cs1 S1 3.673353 1_546
Cs1 S3 3.867507 1_655
Cs1 S2 3.867507 1_545
Nb0 S0 2.320519 1_554
Nb0 S1 2.320519 1_555
Nb0 S2 2.325234 1_554
Nb0 S3 2.325234 1_555
Fe0 S2 2.304981 1_555
Fe0 S3 2.304981 1_555
Fe0 S0 2.308616 1_555
Fe0 S1 2.308616 1_555
