# generated using pymatgen
data_BaNi9P5
_symmetry_space_group_name_H-M   'P 1'
_cell_length_a   6.46731816
_cell_length_b   6.46732191
_cell_length_c   10.81923076
_cell_angle_alpha   89.99999413
_cell_angle_beta   89.99995471
_cell_angle_gamma   119.99658501
_symmetry_Int_Tables_number   1
_chemical_formula_structural   BaNi9P5
_chemical_formula_sum   'Ba2 Ni18 P10'
_cell_volume   391.91389779
_cell_formula_units_Z   2
loop_
 _symmetry_equiv_pos_site_id
 _symmetry_equiv_pos_as_xyz
  1  'x, y, z'
loop_
 _atom_site_type_symbol
 _atom_site_label
 _atom_site_symmetry_multiplicity
 _atom_site_fract_x
 _atom_site_fract_y
 _atom_site_fract_z
 _atom_site_occupancy
  Ba  Ba0  1  -0.00000021  -0.00000016  0.49995497  1
  Ba  Ba1  1  -0.00000010  0.00000003  0.00004514  1
  Ni  Ni0  1  0.46440936  0.92882275  0.89245671  1
  Ni  Ni1  1  0.92880278  0.46439904  0.10766638  1
  Ni  Ni2  1  0.53559731  0.07119042  0.10766397  1
  Ni  Ni3  1  0.07118064  0.53559281  0.60754411  1
  Ni  Ni4  1  0.20334331  0.40668468  0.25001004  1
  Ni  Ni5  1  0.79666005  0.20333828  0.74998896  1
  Ni  Ni6  1  0.40667072  0.20333524  0.74998607  1
  Ni  Ni7  1  0.59331496  0.79665784  0.25001317  1
  Ni  Ni8  1  0.20334724  0.79665404  0.25000981  1
  Ni  Ni9  1  0.79666421  0.59332973  0.74998957  1
  Ni  Ni10  1  0.46440448  0.92881423  0.60754642  1
  Ni  Ni11  1  0.53559222  0.46440827  0.39233231  1
  Ni  Ni12  1  0.92880574  0.46440027  0.39233525  1
  Ni  Ni13  1  0.07118336  0.53559390  0.89245391  1
  Ni  Ni14  1  0.46441862  0.53558202  0.89245540  1
  Ni  Ni15  1  0.53560207  0.07119919  0.39233294  1
  Ni  Ni16  1  0.53558813  0.46441145  0.10766502  1
  Ni  Ni17  1  0.46441498  0.53558468  0.60754696  1
  P  P0  1  0.17586377  0.35173662  0.74999385  1
  P  P1  1  0.82414850  0.17585199  0.25000366  1
  P  P2  1  0.17586766  0.82413198  0.74999635  1
  P  P3  1  0.82415229  0.64829532  0.25000629  1
  P  P4  1  0.33333240  0.66666570  0.43901648  1
  P  P5  1  0.66666523  0.33333288  0.93907793  1
  P  P6  1  0.66666721  0.33333412  0.56093030  1
  P  P7  1  0.33333482  0.66666712  0.06097509  1
  P  P8  1  0.35170370  0.17584705  0.25000480  1
  P  P9  1  0.64826355  0.82413652  0.74999513  1
loop_
_geom_bond_atom_site_label_1
_geom_bond_atom_site_label_2
_geom_bond_distance
_geom_bond_site_symmetry_2
Ba0 P1 3.345637 1_455
Ba0 P3 3.345678 1_445
Ba0 P8 3.345686 1_555
Ba0 P2 3.346531 1_545
Ba0 P0 3.346573 1_555
Ba0 P9 3.346580 1_445
Ba0 Ni3 3.459801 1_545
Ba0 Ni10 3.459812 1_545
Ba0 Ni3 3.459877 1_555
Ba0 Ni10 3.459885 1_445
Ba0 Ni12 3.459921 1_455
Ba0 Ni15 3.459932 1_455
Ba0 Ni17 3.459993 1_445
Ba0 Ni17 3.459996 1_555
Ba0 Ni12 3.459997 1_445
Ba0 Ni15 3.460006 1_555
Ba0 Ni11 3.460114 1_445
Ba0 Ni11 3.460117 1_555
Ba0 Ni8 3.535692 1_545
Ba0 Ni7 3.535711 1_445
Ba0 Ni4 3.535735 1_555
Ba0 Ni5 3.536373 1_455
Ba0 Ni6 3.536400 1_555
Ba0 Ni9 3.536424 1_445
Ba1 P1 3.345699 1_455
Ba1 P8 3.345772 1_555
Ba1 P3 3.345786 1_445
Ba1 P2 3.346595 1_544
Ba1 P9 3.346669 1_444
Ba1 P0 3.346679 1_554
Ba1 Ni0 3.459798 1_544
Ba1 Ni13 3.459813 1_544
Ba1 Ni0 3.459867 1_444
Ba1 Ni13 3.459883 1_554
Ba1 Ni2 3.459915 1_455
Ba1 Ni1 3.459929 1_455
Ba1 Ni14 3.459981 1_444
Ba1 Ni14 3.459984 1_554
Ba1 Ni2 3.459988 1_555
Ba1 Ni1 3.460003 1_445
Ba1 Ni16 3.460101 1_555
Ba1 Ni16 3.460101 1_445
Ba1 Ni8 3.535855 1_545
Ba1 Ni4 3.535902 1_555
Ba1 Ni7 3.535925 1_445
Ba1 Ni5 3.536557 1_454
Ba1 Ni9 3.536601 1_444
Ba1 Ni6 3.536628 1_554
Ni0 P9 2.247851 1_555
Ni0 P2 2.247893 1_555
Ni0 P5 2.321153 1_565
Ni0 P7 2.340993 1_556
Ni1 P3 2.247003 1_555
Ni1 P1 2.247030 1_555
Ni1 P7 2.321436 1_655
Ni1 P5 2.341521 1_554
Ni2 P8 2.247020 1_555
Ni2 P1 2.247061 1_555
Ni2 P7 2.321385 1_545
Ni2 P5 2.341517 1_554
Ni3 P0 2.247761 1_555
Ni3 P2 2.247824 1_555
Ni3 P6 2.321153 1_455
Ni3 P4 2.341056 1_555
Ni4 P8 2.140482 1_555
Ni4 P1 2.140584 1_455
Ni4 P4 2.510391 1_555
Ni4 P7 2.510646 1_555
Ni5 P9 2.140567 1_545
Ni5 P0 2.140576 1_655
Ni5 P6 2.510832 1_555
Ni5 P5 2.511101 1_555
Ni6 P0 2.140510 1_555
Ni6 P2 2.140605 1_545
Ni6 P6 2.510874 1_555
Ni6 P5 2.511188 1_555
Ni7 P3 2.140491 1_555
Ni7 P1 2.140582 1_565
Ni7 P4 2.510366 1_555
Ni7 P7 2.510667 1_555
Ni8 P8 2.140547 1_565
Ni8 P3 2.140556 1_455
Ni8 P4 2.510325 1_555
Ni8 P7 2.510574 1_555
Ni9 P9 2.140506 1_555
Ni9 P2 2.140604 1_655
Ni9 P6 2.510904 1_555
Ni9 P5 2.511163 1_555
Ni10 P9 2.247747 1_555
Ni10 P2 2.247798 1_555
Ni10 P6 2.321194 1_565
Ni10 P4 2.341066 1_555
Ni11 P3 2.247010 1_555
Ni11 P8 2.247029 1_555
Ni11 P4 2.321225 1_555
Ni11 P6 2.341594 1_555
Ni12 P3 2.246928 1_555
Ni12 P1 2.246992 1_555
Ni12 P4 2.321384 1_655
Ni12 P6 2.341578 1_555
Ni13 P0 2.247832 1_555
Ni13 P2 2.247860 1_555
Ni13 P5 2.321202 1_455
Ni13 P7 2.341003 1_556
Ni14 P9 2.247955 1_555
Ni14 P0 2.247968 1_555
Ni14 P5 2.320963 1_555
Ni14 P7 2.341003 1_556
Ni15 P8 2.246916 1_555
Ni15 P1 2.246967 1_555
Ni15 P4 2.321427 1_545
Ni15 P6 2.341587 1_555
Ni16 P8 2.247127 1_555
Ni16 P3 2.247138 1_555
Ni16 P7 2.321194 1_555
Ni16 P5 2.341524 1_554
Ni17 P0 2.247845 1_555
Ni17 P9 2.247860 1_555
Ni17 P6 2.320987 1_555
Ni17 P4 2.341076 1_555
