# generated using pymatgen
data_Lu2VIr3
_symmetry_space_group_name_H-M   'P 1'
_cell_length_a   5.05641825
_cell_length_b   5.05641878
_cell_length_c   5.05642020
_cell_angle_alpha   65.67018204
_cell_angle_beta   65.67016313
_cell_angle_gamma   65.67017967
_symmetry_Int_Tables_number   1
_chemical_formula_structural   Lu2VIr3
_chemical_formula_sum   'Lu2 V1 Ir3'
_cell_volume   102.66550975
_cell_formula_units_Z   1
loop_
 _symmetry_equiv_pos_site_id
 _symmetry_equiv_pos_as_xyz
  1  'x, y, z'
loop_
 _atom_site_type_symbol
 _atom_site_label
 _atom_site_symmetry_multiplicity
 _atom_site_fract_x
 _atom_site_fract_y
 _atom_site_fract_z
 _atom_site_occupancy
  Lu  Lu0  1  0.62826465  0.62826465  0.62826465  1
  Lu  Lu1  1  0.37173535  0.37173535  0.37173535  1
  V  V0  1  0.00000000  0.00000000  0.00000000  1
  Ir  Ir0  1  0.00000000  0.50000000  0.00000000  1
  Ir  Ir1  1  0.50000000  0.00000000  0.00000000  1
  Ir  Ir2  1  0.00000000  0.00000000  0.50000000  1
loop_
_geom_bond_atom_site_label_1
_geom_bond_atom_site_label_2
_geom_bond_distance
_geom_bond_site_symmetry_2
Ir0 V0 2.528209 1_565
Ir0 V0 2.528209 1_555
Ir0 Ir1 2.741706 1_555
Ir0 Ir1 2.741706 1_465
Ir0 Ir2 2.741707 1_564
Ir0 Ir2 2.741707 1_555
Ir0 Lu1 2.896380 1_555
Ir0 Lu0 2.896380 1_454
Ir0 Lu0 3.133465 1_554
Ir0 Lu1 3.133465 1_455
Ir0 Lu0 3.133466 1_455
Ir0 Lu1 3.133466 1_554
Ir1 V0 2.528209 1_655
Ir1 V0 2.528209 1_555
Ir1 Ir2 2.741706 1_555
Ir1 Ir2 2.741706 1_654
Ir1 Lu1 2.896379 1_555
Ir1 Lu0 2.896379 1_544
Ir1 Lu0 3.133466 1_554
Ir1 Lu1 3.133466 1_545
Ir1 Lu0 3.133467 1_545
Ir1 Lu1 3.133467 1_554
Ir2 V0 2.528210 1_556
Ir2 V0 2.528210 1_555
Ir2 Lu1 2.896379 1_555
Ir2 Lu0 2.896379 1_445
Ir2 Lu0 3.133466 1_455
Ir2 Lu1 3.133466 1_545
Ir2 Lu0 3.133466 1_545
Ir2 Lu1 3.133466 1_455
