# generated using pymatgen
data_Sc6AlP5Ru6
_symmetry_space_group_name_H-M   'P 1'
_cell_length_a   7.52942694
_cell_length_b   7.52619097
_cell_length_c   7.52664085
_cell_angle_alpha   127.99757692
_cell_angle_beta   122.47918344
_cell_angle_gamma   81.22438726
_symmetry_Int_Tables_number   1
_chemical_formula_structural   Sc6AlP5Ru6
_chemical_formula_sum   'Sc6 Al1 P5 Ru6'
_cell_volume   273.18420856
_cell_formula_units_Z   1
loop_
 _symmetry_equiv_pos_site_id
 _symmetry_equiv_pos_as_xyz
  1  'x, y, z'
loop_
 _atom_site_type_symbol
 _atom_site_label
 _atom_site_symmetry_multiplicity
 _atom_site_fract_x
 _atom_site_fract_y
 _atom_site_fract_z
 _atom_site_occupancy
  Sc  Sc0  1  0.45393213  0.66251319  0.70868119  1
  Sc  Sc1  1  0.54000245  0.25221343  0.21186737  1
  Sc  Sc2  1  0.74979575  0.84468641  0.59461724  1
  Sc  Sc3  1  0.24995134  0.83420794  0.08421252  1
  Sc  Sc4  1  0.04648962  0.25466156  0.70814721  1
  Sc  Sc5  1  0.95925229  0.67114606  0.21155691  1
  Al  Al0  1  0.25063445  0.24845293  0.49836624  1
  P  P0  1  0.74988254  0.25687754  0.00727742  1
  P  P1  1  0.33284731  0.58680500  0.25297685  1
  P  P2  1  0.66621212  0.92021866  0.25319107  1
  P  P3  1  0.16646627  0.92000332  0.75332088  1
  P  P4  1  0.83350359  0.58669936  0.75331552  1
  Ru  Ru0  1  0.51564868  0.50251952  0.01829121  1
  Ru  Ru1  1  0.98456901  0.50244864  0.48690770  1
  Ru  Ru2  1  0.10678483  0.25362199  0.11118585  1
  Ru  Ru3  1  0.85834138  0.00450078  0.11197212  1
  Ru  Ru4  1  0.39280678  0.00442469  0.64652252  1
  Ru  Ru5  1  0.64287947  0.25359799  0.64718817  1
loop_
_geom_bond_atom_site_label_1
_geom_bond_atom_site_label_2
_geom_bond_distance
_geom_bond_site_symmetry_2
Al0 Ru4 2.530266 1_555
Al0 Ru2 2.530585 1_555
Al0 Ru5 2.531246 1_555
Al0 Ru3 2.531413 1_455
Al0 Ru0 2.552734 1_556
Al0 Ru1 2.554199 1_455
Al0 Sc0 2.709165 1_555
Al0 Sc4 2.711403 1_555
Al0 Sc3 2.731056 1_545
P0 Ru1 2.345416 1_555
P0 Ru0 2.347046 1_555
P0 Ru5 2.360890 1_554
P0 Ru3 2.360966 1_555
P0 Ru4 2.361662 1_554
P0 Ru2 2.362206 1_655
P0 Sc2 2.721318 1_544
P0 Sc5 2.750345 1_555
P0 Sc1 2.750759 1_555
P1 Ru2 2.525994 1_555
P1 Ru0 2.526277 1_555
P1 Ru4 2.527925 1_565
P1 Sc5 2.677655 1_455
P1 Sc3 2.678831 1_555
P1 Sc1 2.688939 1_555
P1 Sc4 2.690912 1_554
P1 Sc2 2.698003 1_555
P1 Sc0 2.704444 1_555
P2 Ru5 2.526678 1_565
P2 Ru0 2.526899 1_555
P2 Ru3 2.527128 1_565
P2 Sc1 2.675442 1_565
P2 Sc3 2.680317 1_555
P2 Sc0 2.690066 1_554
P2 Sc5 2.690310 1_555
P2 Sc2 2.697342 1_555
P2 Sc4 2.704873 1_665
P3 Ru1 2.525374 1_455
P3 Ru4 2.526794 1_565
P3 Ru2 2.527851 1_566
P3 Sc1 2.677505 1_566
P3 Sc3 2.681329 1_556
P3 Sc5 2.687946 1_455
P3 Sc0 2.693091 1_555
P3 Sc2 2.697206 1_455
P3 Sc4 2.702925 1_565
P4 Ru1 2.525948 1_555
P4 Ru5 2.526673 1_555
P4 Ru3 2.528955 1_566
P4 Sc5 2.678349 1_556
P4 Sc3 2.680994 1_656
P4 Sc1 2.687473 1_555
P4 Sc4 2.692376 1_655
P4 Sc2 2.695861 1_555
P4 Sc0 2.704371 1_555
Ru0 Sc2 2.823880 1_555
Ru0 Sc3 2.915013 1_555
Ru0 Sc5 2.947047 1_555
Ru0 Sc1 2.948294 1_555
Ru0 Sc4 3.033231 1_554
Ru0 Sc0 3.036038 1_554
Ru1 Sc2 2.827585 1_555
Ru1 Sc3 2.914074 1_656
Ru1 Sc5 2.947057 1_555
Ru1 Sc1 2.952645 1_555
Ru1 Sc4 3.031914 1_655
Ru1 Sc0 3.035554 1_655
Ru2 Sc4 2.820907 1_554
Ru2 Sc2 2.894969 1_444
Ru2 Sc1 2.925552 1_555
Ru2 Sc5 2.931280 1_455
Ru2 Sc0 3.052329 1_555
Ru2 Sc3 3.094351 1_545
Ru3 Sc0 2.820584 1_544
Ru3 Sc2 2.897028 1_544
Ru3 Sc5 2.925020 1_545
Ru3 Sc1 2.938081 1_555
Ru3 Sc4 3.044884 1_655
Ru3 Sc3 3.091821 1_645
Ru4 Sc0 2.818194 1_545
Ru4 Sc2 2.895922 1_545
Ru4 Sc5 2.928450 1_445
Ru4 Sc1 2.933885 1_556
Ru4 Sc4 3.047362 1_555
Ru4 Sc3 3.092902 1_545
Ru5 Sc4 2.819793 1_655
Ru5 Sc2 2.891836 1_545
Ru5 Sc1 2.927498 1_555
Ru5 Sc5 2.928262 1_556
Ru5 Sc0 3.054021 1_555
Ru5 Sc3 3.096552 1_545
