# generated using pymatgen
data_LiTaO3
_symmetry_space_group_name_H-M   'P 1'
_cell_length_a   5.47684766
_cell_length_b   5.47684776
_cell_length_c   5.47684736
_cell_angle_alpha   55.89940507
_cell_angle_beta   55.89940795
_cell_angle_gamma   55.89941377
_symmetry_Int_Tables_number   1
_chemical_formula_structural   LiTaO3
_chemical_formula_sum   'Li2 Ta2 O6'
_cell_volume   105.12489484
_cell_formula_units_Z   2
loop_
 _symmetry_equiv_pos_site_id
 _symmetry_equiv_pos_as_xyz
  1  'x, y, z'
loop_
 _atom_site_type_symbol
 _atom_site_label
 _atom_site_symmetry_multiplicity
 _atom_site_fract_x
 _atom_site_fract_y
 _atom_site_fract_z
 _atom_site_occupancy
  Li  Li0  1  0.28322578  0.28322578  0.28322578  1
  Li  Li1  1  0.78322578  0.78322578  0.78322578  1
  Ta  Ta0  1  0.99946465  0.99946465  0.99946465  1
  Ta  Ta1  1  0.49946465  0.49946465  0.49946465  1
  O  O0  1  0.61431885  0.22446262  0.86672709  1
  O  O1  1  0.72446262  0.11431885  0.36672709  1
  O  O2  1  0.11431885  0.36672709  0.72446262  1
  O  O3  1  0.36672709  0.72446262  0.11431885  1
  O  O4  1  0.86672709  0.61431885  0.22446262  1
  O  O5  1  0.22446262  0.86672709  0.61431885  1
loop_
_geom_bond_atom_site_label_1
_geom_bond_atom_site_label_2
_geom_bond_distance
_geom_bond_site_symmetry_2
Li0 O5 2.031223 1_545
Li0 O0 2.031223 1_554
Li0 O4 2.031224 1_455
Li0 O2 2.272214 1_555
Li0 O3 2.272214 1_555
Li0 O1 2.272214 1_555
Li1 O1 2.031223 1_565
Li1 O3 2.031223 1_556
Li1 O2 2.031224 1_655
Li1 O4 2.272214 1_556
Li1 O5 2.272214 1_655
Li1 O0 2.272214 1_565
O0 Ta1 1.915587 1_555
O0 Ta0 2.072888 1_545
O1 Ta0 1.915587 1_544
O1 Ta1 2.072888 1_555
O2 Ta0 1.915587 1_445
O2 Ta1 2.072888 1_555
O3 Ta0 1.915587 1_454
O3 Ta1 2.072888 1_555
O4 Ta1 1.915587 1_555
O4 Ta0 2.072888 1_554
O5 Ta1 1.915587 1_555
O5 Ta0 2.072888 1_455
