# generated using pymatgen
data_K2MnSiSe4
_symmetry_space_group_name_H-M   'P 1'
_cell_length_a   13.25323853
_cell_length_b   11.76989788
_cell_length_c   7.47427477
_cell_angle_alpha   83.88345890
_cell_angle_beta   62.00900340
_cell_angle_gamma   34.10753410
_symmetry_Int_Tables_number   1
_chemical_formula_structural   K2MnSiSe4
_chemical_formula_sum   'K4 Mn2 Si2 Se8'
_cell_volume   474.48755376
_cell_formula_units_Z   2
loop_
 _symmetry_equiv_pos_site_id
 _symmetry_equiv_pos_as_xyz
  1  'x, y, z'
loop_
 _atom_site_type_symbol
 _atom_site_label
 _atom_site_symmetry_multiplicity
 _atom_site_fract_x
 _atom_site_fract_y
 _atom_site_fract_z
 _atom_site_occupancy
  K  K0  1  0.68258534  0.68258534  0.31741466  1
  K  K1  1  0.31741466  0.31741466  0.68258534  1
  K  K2  1  0.56741466  0.56741466  0.93258534  1
  K  K3  1  0.93258534  0.93258534  0.56741466  1
  Mn  Mn0  1  0.00000000  0.00000000  0.00000000  1
  Mn  Mn1  1  0.25000000  0.25000000  0.25000000  1
  Si  Si0  1  0.50000000  0.50000000  0.50000000  1
  Si  Si1  1  0.75000000  0.75000000  0.75000000  1
  Se  Se0  1  0.37840966  0.00704187  0.92724167  1
  Se  Se1  1  0.68730580  0.92724167  0.00704187  1
  Se  Se2  1  0.92724167  0.68730580  0.37840966  1
  Se  Se3  1  0.00704187  0.37840966  0.68730580  1
  Se  Se4  1  0.87159034  0.24295813  0.32275833  1
  Se  Se5  1  0.56269420  0.32275833  0.24295813  1
  Se  Se6  1  0.32275833  0.56269420  0.87159034  1
  Se  Se7  1  0.24295813  0.87159034  0.56269420  1
loop_
_geom_bond_atom_site_label_1
_geom_bond_atom_site_label_2
_geom_bond_distance
_geom_bond_site_symmetry_2
K0 Se7 3.411221 1_555
K0 Se4 3.411224 1_555
K0 Se2 3.523626 1_555
K0 Se1 3.523631 1_555
K0 Se0 3.546608 1_565
K0 Se3 3.546614 1_654
K0 Se0 3.878452 1_654
K0 Se3 3.878453 1_565
K1 Se5 3.411230 1_555
K1 Se6 3.411234 1_555
K1 Se0 3.523636 1_555
K1 Se3 3.523639 1_555
K1 Se2 3.546611 1_545
K1 Se1 3.546612 1_456
K1 Se2 3.878450 1_456
K1 Se1 3.878456 1_545
K2 Se3 3.411221 1_655
K2 Se0 3.411224 1_565
K2 Se6 3.523626 1_555
K2 Se5 3.523631 1_556
K2 Se4 3.546608 1_555
K2 Se7 3.546614 1_556
K2 Se4 3.878452 1_466
K2 Se7 3.878453 1_645
K3 Se1 3.411230 1_556
K3 Se2 3.411234 1_555
K3 Se4 3.523636 1_565
K3 Se7 3.523639 1_655
K3 Se6 3.546611 1_565
K3 Se5 3.546612 1_655
K3 Se6 3.878450 1_654
K3 Se5 3.878456 1_566
Mn0 Se5 2.539792 1_455
Mn0 Se6 2.539794 1_544
Mn0 Se7 2.539796 1_544
Mn0 Se4 2.539802 1_455
Mn1 Se1 2.539792 1_545
Mn1 Se2 2.539794 1_455
Mn1 Se3 2.539796 1_555
Mn1 Se0 2.539802 1_554
Se0 Si1 2.284428 1_545
Se1 Si1 2.284418 1_554
Se2 Si1 2.284423 1_555
Se3 Si1 2.284426 1_455
Se4 Si0 2.284428 1_555
Se5 Si0 2.284418 1_555
Se6 Si0 2.284423 1_555
Se7 Si0 2.284426 1_555
