# generated using pymatgen
data_YCd3(Ru2O7)2
_symmetry_space_group_name_H-M   'P 1'
_cell_length_a   7.15105836
_cell_length_b   7.15105824
_cell_length_c   7.21072113
_cell_angle_alpha   60.27332866
_cell_angle_beta   60.27333457
_cell_angle_gamma   60.00000108
_symmetry_Int_Tables_number   1
_chemical_formula_structural   YCd3(Ru2O7)2
_chemical_formula_sum   'Y1 Cd3 Ru4 O14'
_cell_volume   261.81003538
_cell_formula_units_Z   1
loop_
 _symmetry_equiv_pos_site_id
 _symmetry_equiv_pos_as_xyz
  1  'x, y, z'
loop_
 _atom_site_type_symbol
 _atom_site_label
 _atom_site_symmetry_multiplicity
 _atom_site_fract_x
 _atom_site_fract_y
 _atom_site_fract_z
 _atom_site_occupancy
  Y  Y0  1  0.12500000  0.12500000  0.62500000  1
  Cd  Cd0  1  0.12500000  0.62500000  0.12500000  1
  Cd  Cd1  1  0.62500000  0.12500000  0.12500000  1
  Cd  Cd2  1  0.12500000  0.12500000  0.12500000  1
  Ru  Ru0  1  0.62500000  0.12500000  0.62500000  1
  Ru  Ru1  1  0.62500000  0.62500000  0.12500000  1
  Ru  Ru2  1  0.12500000  0.62500000  0.62500000  1
  Ru  Ru3  1  0.62500000  0.62500000  0.62500000  1
  O  O0  1  0.69330503  0.69330503  0.30838829  1
  O  O1  1  0.95353324  0.54222735  0.55070518  1
  O  O2  1  0.55669497  0.94499836  0.94161171  1
  O  O3  1  0.95353324  0.95353324  0.55070518  1
  O  O4  1  0.94499836  0.55669497  0.94161171  1
  O  O5  1  0.54222735  0.95353324  0.55070518  1
  O  O6  1  0.30500164  0.69330503  0.30838829  1
  O  O7  1  0.29646676  0.70777265  0.69929482  1
  O  O8  1  0.69330503  0.30500164  0.30838829  1
  O  O9  1  0.70777265  0.29646676  0.69929482  1
  O  O10  1  0.55669497  0.55669497  0.94161171  1
  O  O11  1  0.29646676  0.29646676  0.69929482  1
  O  O12  1  0.25100477  0.25100477  0.24698568  1
  O  O13  1  0.99899523  0.99899523  0.00301432  1
loop_
_geom_bond_atom_site_label_1
_geom_bond_atom_site_label_2
_geom_bond_distance
_geom_bond_site_symmetry_2
Cd0 O12 2.186669 1_555
Cd0 O13 2.186669 1_455
Cd0 O1 2.543158 1_455
Cd0 O7 2.543158 1_554
Cd0 O6 2.569336 1_555
Cd0 O4 2.569336 1_454
Cd0 O10 2.569336 1_554
Cd0 O0 2.569336 1_455
Cd1 O13 2.186669 1_545
Cd1 O12 2.186669 1_555
Cd1 O5 2.543158 1_545
Cd1 O9 2.543158 1_554
Cd1 O10 2.569336 1_554
Cd1 O0 2.569336 1_545
Cd1 O8 2.569336 1_555
Cd1 O2 2.569336 1_544
Cd2 O12 2.186669 1_555
Cd2 O13 2.186669 1_445
Cd2 O3 2.543159 1_445
Cd2 O11 2.543159 1_554
Cd2 O4 2.569336 1_454
Cd2 O6 2.569336 1_545
Cd2 O2 2.569336 1_544
Cd2 O8 2.569336 1_455
O0 Ru3 1.927698 1_555
O0 Ru1 1.935339 1_555
O1 Ru3 1.957684 1_555
O1 Ru2 1.957690 1_655
O1 Y0 2.469884 1_655
O2 Ru0 1.927698 1_565
O2 Ru1 1.935339 1_556
O3 Ru2 1.957685 1_655
O3 Ru0 1.957685 1_565
O3 Y0 2.469891 1_665
O4 Ru2 1.927698 1_655
O4 Ru1 1.935339 1_556
O5 Ru3 1.957684 1_555
O5 Ru0 1.957690 1_565
O5 Y0 2.469884 1_565
O6 Ru2 1.927698 1_555
O6 Ru1 1.935339 1_555
O7 Ru3 1.957684 1_555
O7 Ru2 1.957690 1_555
O7 Y0 2.469884 1_565
O8 Ru0 1.927698 1_555
O8 Ru1 1.935339 1_555
O9 Ru3 1.957684 1_555
O9 Ru0 1.957690 1_555
O9 Y0 2.469884 1_655
O10 Ru3 1.927698 1_555
O10 Ru1 1.935339 1_556
O11 Ru2 1.957685 1_555
O11 Ru0 1.957685 1_555
O11 Y0 2.469891 1_555
O12 Y0 2.234721 1_555
O13 Y0 2.234721 1_664
