# generated using pymatgen
data_Ti6P2CN
_symmetry_space_group_name_H-M   'P 1'
_cell_length_a   5.31931905
_cell_length_b   5.31932144
_cell_length_c   7.89574630
_cell_angle_alpha   89.71201126
_cell_angle_beta   90.28798881
_cell_angle_gamma   144.90048083
_symmetry_Int_Tables_number   1
_chemical_formula_structural   Ti6P2CN
_chemical_formula_sum   'Ti6 P2 C1 N1'
_cell_volume   128.45944799
_cell_formula_units_Z   1
loop_
 _symmetry_equiv_pos_site_id
 _symmetry_equiv_pos_as_xyz
  1  'x, y, z'
loop_
 _atom_site_type_symbol
 _atom_site_label
 _atom_site_symmetry_multiplicity
 _atom_site_fract_x
 _atom_site_fract_y
 _atom_site_fract_z
 _atom_site_occupancy
  Ti  Ti0  1  0.63367701  0.36632399  0.05366156  1
  Ti  Ti1  1  0.93913103  0.06086997  0.24689559  1
  Ti  Ti2  1  0.63250289  0.36749811  0.44278922  1
  Ti  Ti3  1  0.36749811  0.63250289  0.55720978  1
  Ti  Ti4  1  0.06086997  0.93913103  0.75310441  1
  Ti  Ti5  1  0.36632399  0.63367701  0.94633844  1
  P  P0  1  0.25511361  0.74488739  0.24877851  1
  P  P1  1  0.74488739  0.25511361  0.75122149  1
  C  C0  1  0.00000000  0.00000000  0.49999900  1
  N  N0  1  0.00000000  0.00000000  0.00000000  1
loop_
_geom_bond_atom_site_label_1
_geom_bond_atom_site_label_2
_geom_bond_distance
_geom_bond_site_symmetry_2
P0 Ti1 2.461155 1_565
P0 Ti1 2.461157 1_455
P0 Ti0 2.538384 1_455
P0 Ti0 2.538386 1_565
P0 Ti2 2.546789 1_455
P0 Ti2 2.546791 1_565
P0 Ti5 2.646397 1_554
P0 Ti3 2.683453 1_555
P1 Ti4 2.461155 1_545
P1 Ti4 2.461157 1_655
P1 Ti5 2.538384 1_655
P1 Ti5 2.538386 1_545
P1 Ti3 2.546794 1_655
P1 Ti3 2.546795 1_545
P1 Ti0 2.646397 1_556
P1 Ti2 2.683460 1_555
C0 Ti1 2.088533 1_455
C0 Ti4 2.088548 1_545
C0 Ti2 2.142323 1_445
C0 Ti3 2.142323 1_445
C0 Ti2 2.142323 1_555
C0 Ti3 2.142327 1_555
N0 Ti4 2.047966 1_544
N0 Ti1 2.047966 1_455
N0 Ti5 2.141194 1_444
N0 Ti0 2.141195 1_445
N0 Ti0 2.141196 1_555
N0 Ti5 2.141198 1_554
