# generated using pymatgen
data_Zr6Al8Si8Ir7
_symmetry_space_group_name_H-M   'P 1'
_cell_length_a   8.55412766
_cell_length_b   8.55412753
_cell_length_c   8.55412807
_cell_angle_alpha   59.99999792
_cell_angle_beta   59.99999843
_cell_angle_gamma   60.00000502
_symmetry_Int_Tables_number   1
_chemical_formula_structural   Zr6Al8Si8Ir7
_chemical_formula_sum   'Zr6 Al8 Si8 Ir7'
_cell_volume   442.60080852
_cell_formula_units_Z   1
loop_
 _symmetry_equiv_pos_site_id
 _symmetry_equiv_pos_as_xyz
  1  'x, y, z'
loop_
 _atom_site_type_symbol
 _atom_site_label
 _atom_site_symmetry_multiplicity
 _atom_site_fract_x
 _atom_site_fract_y
 _atom_site_fract_z
 _atom_site_occupancy
  Zr  Zr0  1  0.69452834  0.30547166  0.30547166  1
  Zr  Zr1  1  0.30547166  0.69452834  0.69452834  1
  Zr  Zr2  1  0.30547166  0.69452834  0.30547166  1
  Zr  Zr3  1  0.69452834  0.30547166  0.69452834  1
  Zr  Zr4  1  0.30547166  0.30547166  0.69452834  1
  Zr  Zr5  1  0.69452834  0.69452834  0.30547166  1
  Al  Al0  1  0.12005735  0.12005735  0.12005735  1
  Al  Al1  1  0.87994265  0.87994265  0.87994265  1
  Al  Al2  1  0.12005735  0.12005735  0.63982895  1
  Al  Al3  1  0.12005735  0.63982895  0.12005735  1
  Al  Al4  1  0.87994265  0.87994265  0.36017105  1
  Al  Al5  1  0.87994265  0.36017105  0.87994265  1
  Al  Al6  1  0.63982895  0.12005735  0.12005735  1
  Al  Al7  1  0.36017105  0.87994265  0.87994265  1
  Si  Si0  1  0.34172472  0.34172472  0.34172472  1
  Si  Si1  1  0.65827528  0.65827528  0.65827528  1
  Si  Si2  1  0.34172472  0.34172472  0.97482585  1
  Si  Si3  1  0.34172472  0.97482585  0.34172472  1
  Si  Si4  1  0.65827528  0.65827528  0.02517415  1
  Si  Si5  1  0.65827528  0.02517415  0.65827528  1
  Si  Si6  1  0.97482585  0.34172472  0.34172472  1
  Si  Si7  1  0.02517415  0.65827528  0.65827528  1
  Ir  Ir0  1  0.50000000  0.00000000  0.00000000  1
  Ir  Ir1  1  0.00000000  0.50000000  0.50000000  1
  Ir  Ir2  1  0.00000000  0.50000000  0.00000000  1
  Ir  Ir3  1  0.50000000  0.00000000  0.50000000  1
  Ir  Ir4  1  0.00000000  0.00000000  0.50000000  1
  Ir  Ir5  1  0.50000000  0.50000000  0.00000000  1
  Ir  Ir6  1  0.00000000  0.00000000  0.00000000  1
loop_
_geom_bond_atom_site_label_1
_geom_bond_atom_site_label_2
_geom_bond_distance
_geom_bond_site_symmetry_2
Al0 Ir6 2.515591 1_555
Al0 Ir2 2.655473 1_555
Al0 Ir4 2.655473 1_555
Al0 Ir0 2.655473 1_555
Al0 Si2 2.760152 1_554
Al0 Si6 2.760152 1_455
Al0 Si3 2.760152 1_545
Al0 Al4 2.904755 1_445
Al0 Al7 2.904755 1_544
Al0 Al5 2.904755 1_454
Al0 Zr4 3.041374 1_554
Al0 Zr2 3.041374 1_545
Al0 Zr0 3.041375 1_455
Al1 Ir6 2.515591 1_666
Al1 Ir2 2.655473 1_656
Al1 Ir4 2.655473 1_665
Al1 Ir0 2.655473 1_566
Al1 Si4 2.760152 1_556
Al1 Si7 2.760152 1_655
Al1 Si5 2.760152 1_565
Al1 Al2 2.904755 1_665
Al1 Al6 2.904755 1_566
Al1 Al3 2.904755 1_656
Al1 Zr5 3.041374 1_556
Al1 Zr3 3.041374 1_565
Al1 Zr1 3.041375 1_655
Al2 Ir6 2.515584 1_556
Al2 Ir1 2.655474 1_555
Al2 Ir3 2.655474 1_555
Al2 Ir4 2.655480 1_555
Al2 Si0 2.760154 1_555
Al2 Si6 2.760159 1_455
Al2 Si3 2.760159 1_545
Al2 Al7 2.904743 1_545
Al2 Al5 2.904743 1_455
Al2 Zr4 3.041369 1_555
Al2 Zr1 3.041376 1_545
Al2 Zr3 3.041376 1_455
Al3 Ir6 2.515584 1_565
Al3 Ir1 2.655474 1_555
Al3 Ir5 2.655474 1_555
Al3 Ir2 2.655480 1_555
Al3 Si0 2.760154 1_555
Al3 Si6 2.760159 1_455
Al3 Si2 2.760159 1_554
Al3 Al7 2.904742 1_554
Al3 Al4 2.904743 1_455
Al3 Zr2 3.041369 1_555
Al3 Zr5 3.041376 1_455
Al3 Zr1 3.041376 1_554
Al4 Ir6 2.515584 1_665
Al4 Ir1 2.655474 1_655
Al4 Ir3 2.655474 1_565
Al4 Ir4 2.655480 1_665
Al4 Si1 2.760154 1_555
Al4 Si7 2.760159 1_655
Al4 Si5 2.760159 1_565
Al4 Al6 2.904743 1_565
Al4 Zr5 3.041369 1_555
Al4 Zr0 3.041376 1_565
Al4 Zr2 3.041376 1_655
Al5 Ir6 2.515584 1_656
Al5 Ir1 2.655474 1_655
Al5 Ir5 2.655474 1_556
Al5 Ir2 2.655480 1_656
Al5 Si1 2.760154 1_555
Al5 Si7 2.760159 1_655
Al5 Si4 2.760159 1_556
Al5 Al6 2.904742 1_556
Al5 Zr3 3.041369 1_555
Al5 Zr4 3.041376 1_655
Al5 Zr0 3.041376 1_556
Al6 Ir6 2.515585 1_655
Al6 Ir3 2.655474 1_555
Al6 Ir5 2.655474 1_555
Al6 Ir0 2.655480 1_555
Al6 Si0 2.760154 1_555
Al6 Si3 2.760159 1_545
Al6 Si2 2.760159 1_554
Al6 Zr0 3.041369 1_555
Al6 Zr5 3.041376 1_545
Al6 Zr3 3.041376 1_554
Al7 Ir6 2.515585 1_566
Al7 Ir3 2.655474 1_565
Al7 Ir5 2.655474 1_556
Al7 Ir0 2.655480 1_566
Al7 Si1 2.760154 1_555
Al7 Si5 2.760159 1_565
Al7 Si4 2.760159 1_556
Al7 Zr1 3.041369 1_555
Al7 Zr4 3.041376 1_565
Al7 Zr2 3.041376 1_556
Si0 Zr2 2.743100 1_555
Si0 Zr0 2.743100 1_555
Si0 Zr4 2.743100 1_555
Si1 Zr3 2.743100 1_555
Si1 Zr1 2.743100 1_555
Si1 Zr5 2.743100 1_555
Si2 Zr1 2.743100 1_555
Si2 Zr3 2.743100 1_555
Si2 Zr4 2.743100 1_555
Si3 Zr1 2.743100 1_555
Si3 Zr2 2.743100 1_555
Si3 Zr5 2.743100 1_555
Si4 Zr0 2.743100 1_555
Si4 Zr2 2.743100 1_555
Si4 Zr5 2.743100 1_555
Si5 Zr0 2.743100 1_555
Si5 Zr3 2.743100 1_555
Si5 Zr4 2.743100 1_555
Si6 Zr3 2.743100 1_555
Si6 Zr0 2.743100 1_555
Si6 Zr5 2.743100 1_555
Si7 Zr2 2.743100 1_555
Si7 Zr1 2.743100 1_555
Si7 Zr4 2.743100 1_555
Ir0 Si3 2.475616 1_545
Ir0 Si5 2.475616 1_554
Ir0 Si2 2.475616 1_554
Ir0 Si4 2.475616 1_545
Ir0 Zr3 3.097896 1_554
Ir0 Zr2 3.097896 1_545
Ir0 Zr5 3.097896 1_545
Ir0 Zr4 3.097896 1_554
Ir1 Si7 2.475616 1_555
Ir1 Si6 2.475616 1_455
Ir1 Si0 2.475616 1_555
Ir1 Si1 2.475616 1_455
Ir1 Zr2 3.097896 1_555
Ir1 Zr3 3.097896 1_455
Ir1 Zr4 3.097896 1_555
Ir1 Zr5 3.097896 1_455
Ir2 Si6 2.475616 1_455
Ir2 Si7 2.475616 1_554
Ir2 Si2 2.475616 1_554
Ir2 Si4 2.475616 1_455
Ir2 Zr1 3.097896 1_554
Ir2 Zr0 3.097896 1_455
Ir2 Zr5 3.097896 1_455
Ir2 Zr4 3.097896 1_554
Ir3 Si5 2.475616 1_555
Ir3 Si3 2.475616 1_545
Ir3 Si0 2.475616 1_555
Ir3 Si1 2.475616 1_545
Ir3 Zr0 3.097896 1_555
Ir3 Zr1 3.097896 1_545
Ir3 Zr4 3.097896 1_555
Ir3 Zr5 3.097896 1_545
Ir4 Si6 2.475616 1_455
Ir4 Si7 2.475616 1_545
Ir4 Si3 2.475616 1_545
Ir4 Si5 2.475616 1_455
Ir4 Zr1 3.097896 1_545
Ir4 Zr0 3.097896 1_455
Ir4 Zr3 3.097896 1_455
Ir4 Zr2 3.097896 1_545
Ir5 Si4 2.475616 1_555
Ir5 Si2 2.475616 1_554
Ir5 Si0 2.475616 1_555
Ir5 Si1 2.475616 1_554
Ir5 Zr2 3.097896 1_555
Ir5 Zr3 3.097896 1_554
Ir5 Zr0 3.097896 1_555
Ir5 Zr1 3.097896 1_554
