# generated using pymatgen
data_VTc5S8
_symmetry_space_group_name_H-M   'P 1'
_cell_length_a   6.41722997
_cell_length_b   6.39697951
_cell_length_c   6.41225601
_cell_angle_alpha   92.86313683
_cell_angle_beta   93.30144174
_cell_angle_gamma   94.03114359
_symmetry_Int_Tables_number   1
_chemical_formula_structural   VTc5S8
_chemical_formula_sum   'V1 Tc5 S8'
_cell_volume   261.75614730
_cell_formula_units_Z   1
loop_
 _symmetry_equiv_pos_site_id
 _symmetry_equiv_pos_as_xyz
  1  'x, y, z'
loop_
 _atom_site_type_symbol
 _atom_site_label
 _atom_site_symmetry_multiplicity
 _atom_site_fract_x
 _atom_site_fract_y
 _atom_site_fract_z
 _atom_site_occupancy
  V  V0  1  0.40862780  0.23451291  0.54891389  1
  Tc  Tc0  1  0.44796829  0.58990949  0.76875855  1
  Tc  Tc1  1  0.76812702  0.45043830  0.59390567  1
  Tc  Tc2  1  0.59119203  0.76800913  0.44989824  1
  Tc  Tc3  1  0.55145253  0.40963446  0.23387565  1
  Tc  Tc4  1  0.23291226  0.54832097  0.40948332  1
  S  S0  1  0.77934942  0.77951161  0.77950317  1
  S  S1  1  0.22161912  0.21929329  0.22461924  1
  S  S2  1  0.28239553  0.87145000  0.61715783  1
  S  S3  1  0.61188925  0.27693523  0.87104285  1
  S  S4  1  0.87330863  0.62270937  0.27644380  1
  S  S5  1  0.72479017  0.13099968  0.38037354  1
  S  S6  1  0.37856247  0.72475753  0.12751186  1
  S  S7  1  0.12780547  0.37352005  0.71851639  1
loop_
_geom_bond_atom_site_label_1
_geom_bond_atom_site_label_2
_geom_bond_distance
_geom_bond_site_symmetry_2
Tc0 V0 2.603415 1_555
Tc1 V0 2.597854 1_555
Tc3 V0 2.543777 1_555
Tc4 V0 2.545984 1_555
S0 Tc1 2.360381 1_555
S0 Tc2 2.368189 1_555
S0 Tc0 2.368581 1_555
S1 V0 2.334468 1_555
S1 Tc4 2.357951 1_555
S1 Tc3 2.362651 1_555
S2 Tc0 2.375405 1_555
S2 Tc4 2.393925 1_555
S2 Tc2 2.423469 1_555
S2 V0 2.473776 1_565
S3 V0 2.371823 1_555
S3 Tc1 2.375057 1_555
S3 Tc0 2.427527 1_555
S3 Tc3 2.497375 1_556
S4 Tc3 2.387558 1_555
S4 Tc2 2.396624 1_555
S4 Tc1 2.468131 1_555
S4 Tc4 2.499538 1_655
S5 Tc3 2.371172 1_555
S5 Tc1 2.392592 1_555
S5 V0 2.468352 1_555
S5 Tc2 2.488612 1_545
S6 Tc4 2.380506 1_555
S6 Tc2 2.403477 1_555
S6 Tc3 2.474740 1_555
S6 Tc0 2.491626 1_554
S7 V0 2.361239 1_555
S7 Tc0 2.391751 1_555
S7 Tc4 2.429261 1_555
S7 Tc1 2.488897 1_455
