# generated using pymatgen
data_BaLaTiCrO6
_symmetry_space_group_name_H-M   'P 1'
_cell_length_a   3.98400900
_cell_length_b   5.65729600
_cell_length_c   22.44184700
_cell_angle_alpha   90.00000000
_cell_angle_beta   90.00000000
_cell_angle_gamma   90.00000000
_symmetry_Int_Tables_number   1
_chemical_formula_structural   BaLaTiCrO6
_chemical_formula_sum   'Ba4 La4 Ti4 Cr4 O24'
_cell_volume   505.81046496
_cell_formula_units_Z   4
loop_
 _symmetry_equiv_pos_site_id
 _symmetry_equiv_pos_as_xyz
  1  'x, y, z'
loop_
 _atom_site_type_symbol
 _atom_site_label
 _atom_site_symmetry_multiplicity
 _atom_site_fract_x
 _atom_site_fract_y
 _atom_site_fract_z
 _atom_site_occupancy
  Ba  Ba0  1  0.00000000  0.75000000  0.80809700  1
  Ba  Ba1  1  0.00000000  0.25000000  0.93597700  1
  Ba  Ba2  1  0.00000000  0.75000000  0.06402300  1
  Ba  Ba3  1  0.00000000  0.25000000  0.19190300  1
  La  La0  1  0.00000000  0.75000000  0.31946700  1
  La  La1  1  0.00000000  0.75000000  0.56335000  1
  La  La2  1  0.00000000  0.25000000  0.43665000  1
  La  La3  1  0.00000000  0.25000000  0.68053300  1
  Ti  Ti0  1  0.50000000  0.75000000  0.93594900  1
  Ti  Ti1  1  0.50000000  0.75000000  0.19293300  1
  Ti  Ti2  1  0.50000000  0.25000000  0.06405100  1
  Ti  Ti3  1  0.50000000  0.25000000  0.80706700  1
  Cr  Cr0  1  0.50000000  0.75000000  0.43913200  1
  Cr  Cr1  1  0.50000000  0.25000000  0.31579200  1
  Cr  Cr2  1  0.50000000  0.25000000  0.56086800  1
  Cr  Cr3  1  0.50000000  0.75000000  0.68420800  1
  O  O0  1  0.50000000  0.50065200  0.87193600  1
  O  O1  1  0.50000000  0.00000000  0.00000000  1
  O  O2  1  0.50000000  0.49934800  0.12806400  1
  O  O3  1  0.50000000  0.50036800  0.37725400  1
  O  O4  1  0.50000000  0.98571100  0.25620300  1
  O  O5  1  0.50000000  0.00000000  0.50000000  1
  O  O6  1  0.50000000  0.49963200  0.62274600  1
  O  O7  1  0.50000000  0.01428900  0.74379700  1
  O  O8  1  0.50000000  0.99934800  0.87193600  1
  O  O9  1  0.50000000  0.50000000  0.00000000  1
  O  O10  1  0.50000000  0.00065200  0.12806400  1
  O  O11  1  0.50000000  0.51428900  0.25620300  1
  O  O12  1  0.50000000  0.99963200  0.37725400  1
  O  O13  1  0.50000000  0.00036800  0.62274600  1
  O  O14  1  0.50000000  0.50000000  0.50000000  1
  O  O15  1  0.50000000  0.48571100  0.74379700  1
  O  O16  1  0.00000000  0.75000000  0.93628100  1
  O  O17  1  0.00000000  0.25000000  0.06371900  1
  O  O18  1  0.00000000  0.75000000  0.19521400  1
  O  O19  1  0.00000000  0.25000000  0.32334700  1
  O  O20  1  0.00000000  0.75000000  0.43591400  1
  O  O21  1  0.00000000  0.25000000  0.56408600  1
  O  O22  1  0.00000000  0.75000000  0.67665300  1
  O  O23  1  0.00000000  0.25000000  0.80478600  1
loop_
_geom_bond_atom_site_label_1
_geom_bond_atom_site_label_2
_geom_bond_distance
_geom_bond_site_symmetry_2
Ba0 O23 2.829624 1_555
Ba0 O23 2.829624 1_565
Ba0 O8 2.830283 1_455
Ba0 O8 2.830283 1_555
Ba0 O0 2.830283 1_455
Ba0 O0 2.830283 1_555
Ba0 O16 2.876686 1_555
Ba0 O7 2.878518 1_565
Ba0 O15 2.878518 1_455
Ba0 O15 2.878518 1_555
Ba0 O7 2.878518 1_465
Ba0 O22 2.949846 1_555
Ba1 O16 2.828656 1_555
Ba1 O16 2.828656 1_545
Ba1 O1 2.834215 1_456
Ba1 O9 2.834215 1_556
Ba1 O1 2.834215 1_556
Ba1 O9 2.834215 1_456
Ba1 O8 2.836262 1_545
Ba1 O0 2.836262 1_455
Ba1 O8 2.836262 1_445
Ba1 O0 2.836262 1_555
Ba1 O17 2.866766 1_556
Ba1 O23 2.944168 1_555
Ba2 O17 2.828656 1_555
Ba2 O17 2.828656 1_565
Ba2 O9 2.834215 1_455
Ba2 O1 2.834215 1_465
Ba2 O9 2.834215 1_555
Ba2 O1 2.834215 1_565
Ba2 O10 2.836262 1_465
Ba2 O2 2.836262 1_555
Ba2 O2 2.836262 1_455
Ba2 O10 2.836262 1_565
Ba2 O16 2.866766 1_554
Ba2 O18 2.944168 1_555
Ba3 O18 2.829624 1_555
Ba3 O18 2.829624 1_545
Ba3 O10 2.830283 1_555
Ba3 O10 2.830283 1_455
Ba3 O2 2.830283 1_555
Ba3 O2 2.830283 1_455
Ba3 O17 2.876686 1_555
Ba3 O11 2.878518 1_555
Ba3 O4 2.878518 1_445
Ba3 O4 2.878518 1_545
Ba3 O11 2.878518 1_455
Ba3 O19 2.949846 1_555
La0 O20 2.613286 1_555
La0 O3 2.764837 1_455
La0 O12 2.764837 1_555
La0 O3 2.764837 1_555
La0 O12 2.764837 1_455
La0 O11 2.786035 1_555
La0 O4 2.786035 1_555
La0 O4 2.786035 1_455
La0 O11 2.786035 1_455
La0 O18 2.788467 1_555
La0 O19 2.829988 1_555
La0 O19 2.829988 1_565
La1 O22 2.542729 1_555
La1 O13 2.784072 1_565
La1 O13 2.784072 1_465
La1 O6 2.784072 1_455
La1 O6 2.784072 1_555
La1 O14 2.826588 1_555
La1 O5 2.826588 1_565
La1 O14 2.826588 1_455
La1 O5 2.826588 1_465
La1 O21 2.828696 1_555
La1 O21 2.828696 1_565
La1 O20 2.859899 1_555
La2 O19 2.542729 1_555
La2 O3 2.784072 1_455
La2 O3 2.784072 1_555
La2 O12 2.784072 1_545
La2 O12 2.784072 1_445
La2 O5 2.826588 1_555
La2 O5 2.826588 1_455
La2 O14 2.826588 1_555
La2 O14 2.826588 1_455
La2 O20 2.828696 1_545
La2 O20 2.828696 1_555
La2 O21 2.859899 1_555
La3 O21 2.613286 1_555
La3 O6 2.764837 1_455
La3 O6 2.764837 1_555
La3 O13 2.764837 1_555
La3 O13 2.764837 1_455
La3 O15 2.786035 1_455
La3 O15 2.786035 1_555
La3 O7 2.786035 1_555
La3 O7 2.786035 1_455
La3 O23 2.788467 1_555
La3 O22 2.829988 1_555
La3 O22 2.829988 1_545
Cr0 O14 1.966276 1_555
Cr0 O5 1.966276 1_565
Cr0 O12 1.980605 1_555
Cr0 O3 1.980605 1_555
Cr0 O20 1.993313 1_655
Cr0 O20 1.993313 1_555
Cr1 O3 1.977051 1_555
Cr1 O12 1.977051 1_545
Cr1 O19 1.999207 1_555
Cr1 O19 1.999207 1_655
Cr1 O11 2.005952 1_555
Cr1 O4 2.005952 1_545
Cr2 O14 1.966276 1_555
Cr2 O5 1.966276 1_555
Cr2 O6 1.980605 1_555
Cr2 O13 1.980605 1_555
Cr2 O21 1.993313 1_655
Cr2 O21 1.993313 1_555
Cr3 O13 1.977051 1_565
Cr3 O6 1.977051 1_555
Cr3 O22 1.999207 1_555
Cr3 O22 1.999207 1_655
Cr3 O7 2.005952 1_565
Cr3 O15 2.005952 1_555
O0 Ti0 2.013362 1_555
O0 Ti3 2.032254 1_555
O1 Ti0 2.016556 1_544
O1 Ti2 2.016556 1_555
O2 Ti2 2.013362 1_555
O2 Ti1 2.032254 1_555
O4 Ti1 1.947894 1_555
O7 Ti3 1.947894 1_555
O8 Ti0 2.013362 1_555
O8 Ti3 2.032254 1_565
O9 Ti0 2.016556 1_554
O9 Ti2 2.016556 1_555
O10 Ti2 2.013362 1_555
O10 Ti1 2.032254 1_545
O11 Ti1 1.947894 1_555
O15 Ti3 1.947894 1_555
O16 Ti0 1.992018 1_455
O16 Ti0 1.992018 1_555
O17 Ti2 1.992018 1_455
O17 Ti2 1.992018 1_555
O18 Ti1 1.992662 1_455
O18 Ti1 1.992662 1_555
O23 Ti3 1.992662 1_455
O23 Ti3 1.992662 1_555
