# generated using pymatgen
data_Sr5Mo2N7
_symmetry_space_group_name_H-M   'P 1'
_cell_length_a   6.46098136
_cell_length_b   9.26864479
_cell_length_c   9.32977331
_cell_angle_alpha   115.26434940
_cell_angle_beta   96.65521289
_cell_angle_gamma   89.37842842
_symmetry_Int_Tables_number   1
_chemical_formula_structural   Sr5Mo2N7
_chemical_formula_sum   'Sr10 Mo4 N14'
_cell_volume   501.39903287
_cell_formula_units_Z   2
loop_
 _symmetry_equiv_pos_site_id
 _symmetry_equiv_pos_as_xyz
  1  'x, y, z'
loop_
 _atom_site_type_symbol
 _atom_site_label
 _atom_site_symmetry_multiplicity
 _atom_site_fract_x
 _atom_site_fract_y
 _atom_site_fract_z
 _atom_site_occupancy
  Sr  Sr0  1  0.84716479  0.59064084  0.32529351  1
  Sr  Sr1  1  0.26296659  0.98856349  0.55959895  1
  Sr  Sr2  1  0.70598654  0.41558396  0.85180117  1
  Sr  Sr3  1  0.29401346  0.58441604  0.14819883  1
  Sr  Sr4  1  0.40412543  0.79110536  0.92335297  1
  Sr  Sr5  1  0.59587457  0.20889464  0.07664703  1
  Sr  Sr6  1  0.15283521  0.40935916  0.67470649  1
  Sr  Sr7  1  0.89697520  0.84527204  0.76169174  1
  Sr  Sr8  1  0.10302480  0.15472796  0.23830826  1
  Sr  Sr9  1  0.73703341  0.01143651  0.44040105  1
  Mo  Mo0  1  0.57842507  0.35617362  0.47473622  1
  Mo  Mo1  1  0.42157493  0.64382638  0.52526378  1
  Mo  Mo2  1  0.12001218  0.21515133  0.91352363  1
  Mo  Mo3  1  0.87998782  0.78484867  0.08647637  1
  N  N0  1  0.53225318  0.55168758  0.67636795  1
  N  N1  1  0.46774682  0.44831242  0.32363205  1
  N  N2  1  0.15279173  0.70112779  0.55165638  1
  N  N3  1  0.84720827  0.29887221  0.44834362  1
  N  N4  1  0.41132934  0.19172473  0.46451898  1
  N  N5  1  0.58867066  0.80827527  0.53548102  1
  N  N6  1  0.95155360  0.13627271  0.71723961  1
  N  N7  1  0.04844640  0.86372729  0.28276039  1
  N  N8  1  0.23042897  0.05099712  0.95853108  1
  N  N9  1  0.76957103  0.94900288  0.04146892  1
  N  N10  1  0.35004521  0.32710625  0.89920408  1
  N  N11  1  0.96719230  0.34640015  0.07750434  1
  N  N12  1  0.03280770  0.65359985  0.92249566  1
  N  N13  1  0.64995479  0.67289375  0.10079592  1
loop_
_geom_bond_atom_site_label_1
_geom_bond_atom_site_label_2
_geom_bond_distance
_geom_bond_site_symmetry_2
Mo0 N3 1.823725 1_555
Mo0 N4 1.840026 1_555
Mo0 N1 2.002217 1_555
Mo0 N0 2.029824 1_555
Mo1 N2 1.823725 1_555
Mo1 N5 1.840026 1_555
Mo1 N0 2.002217 1_555
Mo1 N1 2.029824 1_555
Mo2 N8 1.858104 1_555
Mo2 N6 1.866864 1_455
Mo2 N10 1.871185 1_555
Mo2 N11 1.879042 1_456
Mo3 N9 1.858104 1_555
Mo3 N7 1.866864 1_655
Mo3 N13 1.871185 1_555
Mo3 N12 1.879042 1_654
N0 Sr2 2.614611 1_555
N0 Sr4 2.637609 1_555
N0 Sr6 2.791743 1_555
N1 Sr3 2.614611 1_555
N1 Sr5 2.637609 1_555
N1 Sr0 2.791743 1_555
N2 Sr0 2.576682 1_455
N2 Sr7 2.612438 1_455
N2 Sr1 2.733175 1_555
N3 Sr6 2.576682 1_655
N3 Sr8 2.612438 1_655
N3 Sr9 2.733175 1_555
N4 Sr1 2.629380 1_545
N4 Sr8 2.638611 1_555
N4 Sr9 2.642694 1_555
N4 Sr6 2.830787 1_555
N5 Sr9 2.629380 1_565
N5 Sr7 2.638611 1_555
N5 Sr1 2.642694 1_555
N5 Sr0 2.830787 1_555
N6 Sr9 2.566116 1_555
N6 Sr1 2.644451 1_645
N6 Sr2 2.897207 1_555
N6 Sr7 2.929248 1_545
N6 Sr6 3.050210 1_655
N7 Sr1 2.566116 1_555
N7 Sr9 2.644451 1_465
N7 Sr3 2.897207 1_555
N7 Sr8 2.929248 1_565
N7 Sr0 3.050210 1_455
N8 Sr4 2.553737 1_545
N8 Sr8 2.598862 1_556
N8 Sr5 2.650737 1_556
N8 Sr7 2.798759 1_445
N9 Sr5 2.553737 1_565
N9 Sr7 2.598862 1_554
N9 Sr4 2.650737 1_554
N9 Sr8 2.798759 1_665
N10 Sr3 2.581191 1_556
N10 Sr2 2.596750 1_555
N10 Sr6 2.704635 1_555
N10 Sr5 2.713840 1_556
N11 Sr0 2.642127 1_555
N11 Sr5 2.726380 1_555
N11 Sr2 2.828242 1_554
N11 Sr8 2.848358 1_655
N11 Sr3 2.880427 1_655
N12 Sr6 2.642127 1_555
N12 Sr4 2.726380 1_555
N12 Sr3 2.828242 1_556
N12 Sr7 2.848358 1_455
N12 Sr2 2.880427 1_455
N13 Sr2 2.581191 1_554
N13 Sr3 2.596750 1_555
N13 Sr0 2.704635 1_555
N13 Sr4 2.713840 1_554
