# generated using pymatgen
data_HfFeI6
_symmetry_space_group_name_H-M   'P 1'
_cell_length_a   7.45020988
_cell_length_b   7.45020933
_cell_length_c   6.62923511
_cell_angle_alpha   90.00000000
_cell_angle_beta   90.00000000
_cell_angle_gamma   120.00001076
_symmetry_Int_Tables_number   1
_chemical_formula_structural   HfFeI6
_chemical_formula_sum   'Hf1 Fe1 I6'
_cell_volume   318.66252216
_cell_formula_units_Z   1
loop_
 _symmetry_equiv_pos_site_id
 _symmetry_equiv_pos_as_xyz
  1  'x, y, z'
loop_
 _atom_site_type_symbol
 _atom_site_label
 _atom_site_symmetry_multiplicity
 _atom_site_fract_x
 _atom_site_fract_y
 _atom_site_fract_z
 _atom_site_occupancy
  Hf  Hf0  1  0.00000000  0.00000000  0.50000000  1
  Fe  Fe0  1  0.00000000  0.00000000  0.00000000  1
  I  I0  1  0.30837794  1.00000000  0.24757536  1
  I  I1  1  0.69162206  0.00000000  0.75242464  1
  I  I2  1  1.00000000  0.30837794  0.24757536  1
  I  I3  1  0.30837794  0.30837794  0.75242464  1
  I  I4  1  0.00000000  0.69162206  0.75242464  1
  I  I5  1  0.69162206  0.69162206  0.24757536  1
loop_
_geom_bond_atom_site_label_1
_geom_bond_atom_site_label_2
_geom_bond_distance
_geom_bond_site_symmetry_2
Hf0 I3 2.842292 1_555
Hf0 I5 2.842292 1_445
Hf0 I2 2.842292 1_455
Hf0 I4 2.842292 1_545
Hf0 I0 2.842292 1_545
Hf0 I1 2.842292 1_455
Fe0 I3 2.823485 1_554
Fe0 I5 2.823485 1_445
Fe0 I2 2.823485 1_455
Fe0 I4 2.823485 1_544
Fe0 I0 2.823485 1_545
Fe0 I1 2.823485 1_454
