# generated using pymatgen
data_Na2TcH2F8
_symmetry_space_group_name_H-M   'P 1'
_cell_length_a   5.45305833
_cell_length_b   5.45368702
_cell_length_c   5.45368384
_cell_angle_alpha   95.77444031
_cell_angle_beta   106.06444898
_cell_angle_gamma   106.06467705
_symmetry_Int_Tables_number   1
_chemical_formula_structural   Na2TcH2F8
_chemical_formula_sum   'Na2 Tc1 H2 F8'
_cell_volume   146.98619862
_cell_formula_units_Z   1
loop_
 _symmetry_equiv_pos_site_id
 _symmetry_equiv_pos_as_xyz
  1  'x, y, z'
loop_
 _atom_site_type_symbol
 _atom_site_label
 _atom_site_symmetry_multiplicity
 _atom_site_fract_x
 _atom_site_fract_y
 _atom_site_fract_z
 _atom_site_occupancy
  Na  Na0  1  0.49999900  0.73034016  0.26965784  1
  Na  Na1  1  0.49999900  0.26965784  0.73034016  1
  Tc  Tc0  1  0.00000000  0.00000000  0.00000000  1
  H  H0  1  0.77642078  0.35358126  0.35358026  1
  H  H1  1  0.22357922  0.64641974  0.64642074  1
  F  F0  1  0.76180075  0.66374986  0.00363712  1
  F  F1  1  0.77060480  0.14752152  0.14751952  1
  F  F2  1  0.23819825  0.99636488  0.33625114  1
  F  F3  1  0.73695078  0.47079840  0.47079740  1
  F  F4  1  0.26304922  0.52920160  0.52920260  1
  F  F5  1  0.76180175  0.00363612  0.66374986  1
  F  F6  1  0.22939520  0.85247748  0.85247948  1
  F  F7  1  0.23819925  0.33625114  0.99636388  1
loop_
_geom_bond_atom_site_label_1
_geom_bond_atom_site_label_2
_geom_bond_distance
_geom_bond_site_symmetry_2
F0 Tc0 1.937448 1_665
F0 Na1 2.314852 1_554
F0 Na0 2.366849 1_555
F1 H0 1.494398 1_555
F1 Tc0 1.960360 1_655
F1 Na1 2.605459 1_554
F1 Na0 2.605467 1_545
F2 Tc0 1.937451 1_565
F2 Na1 2.314832 1_565
F2 Na0 2.366868 1_555
F3 H0 0.966286 1_555
F3 Na0 2.327359 1_555
F3 Na1 2.327360 1_555
F4 H1 0.966293 1_555
F4 Na1 2.327358 1_555
F4 Na0 2.327358 1_555
F5 Tc0 1.937448 1_656
F5 Na0 2.314852 1_545
F5 Na1 2.366860 1_555
F6 H1 1.494384 1_555
F6 Tc0 1.960366 1_566
F6 Na0 2.605453 1_556
F6 Na1 2.605461 1_565
F7 Tc0 1.937451 1_556
F7 Na0 2.314832 1_556
F7 Na1 2.366856 1_555
