# generated using pymatgen
data_K4LiBi2Au
_symmetry_space_group_name_H-M   'P 1'
_cell_length_a   6.81473050
_cell_length_b   6.81473097
_cell_length_c   6.32425146
_cell_angle_alpha   90.88320690
_cell_angle_beta   90.88320877
_cell_angle_gamma   102.65495512
_symmetry_Int_Tables_number   1
_chemical_formula_structural   K4LiBi2Au
_chemical_formula_sum   'K4 Li1 Bi2 Au1'
_cell_volume   286.47967245
_cell_formula_units_Z   1
loop_
 _symmetry_equiv_pos_site_id
 _symmetry_equiv_pos_as_xyz
  1  'x, y, z'
loop_
 _atom_site_type_symbol
 _atom_site_label
 _atom_site_symmetry_multiplicity
 _atom_site_fract_x
 _atom_site_fract_y
 _atom_site_fract_z
 _atom_site_occupancy
  K  K0  1  0.47786571  0.82110631  0.23699995  1
  K  K1  1  0.17889369  0.52213429  0.76300005  1
  K  K2  1  0.52213429  0.17889369  0.76300005  1
  K  K3  1  0.82110631  0.47786571  0.23699995  1
  Li  Li0  1  0.00000000  0.00000000  0.50000000  1
  Bi  Bi0  1  0.26619002  0.26619002  0.25876830  1
  Bi  Bi1  1  0.73380998  0.73380998  0.74123170  1
  Au  Au0  1  0.00000000  0.00000000  0.00000000  1
loop_
_geom_bond_atom_site_label_1
_geom_bond_atom_site_label_2
_geom_bond_distance
_geom_bond_site_symmetry_2
Bi0 Li0 2.763618 1_555
Bi0 K3 3.634554 1_455
Bi0 K0 3.634554 1_545
Bi0 K1 3.713804 1_554
Bi0 K2 3.713804 1_554
Bi0 K2 3.729179 1_555
Bi0 K1 3.729179 1_555
Bi0 K3 3.745977 1_555
Bi0 K0 3.745977 1_555
Bi1 Li0 2.763618 1_665
Bi1 K1 3.634554 1_655
Bi1 K2 3.634554 1_565
Bi1 K3 3.713804 1_556
Bi1 K0 3.713804 1_556
Bi1 K0 3.729179 1_555
Bi1 K3 3.729179 1_555
Bi1 K1 3.745977 1_555
Bi1 K2 3.745977 1_555
Au0 Bi0 2.763080 1_555
Au0 Bi1 2.763080 1_444
Au0 Li0 3.162126 1_554
Au0 Li0 3.162126 1_555
Au0 K2 3.835841 1_554
Au0 K0 3.835841 1_445
Au0 K1 3.835841 1_554
Au0 K3 3.835841 1_445
Au0 K0 3.997889 1_545
Au0 K2 3.997889 1_454
Au0 K3 3.997889 1_455
Au0 K1 3.997889 1_544
