# generated using pymatgen
data_K4Ba(SiSe3)2
_symmetry_space_group_name_H-M   'P 1'
_cell_length_a   7.59093626
_cell_length_b   7.59093654
_cell_length_c   8.62970320
_cell_angle_alpha   81.37998194
_cell_angle_beta   81.37998241
_cell_angle_gamma   119.59262647
_symmetry_Int_Tables_number   1
_chemical_formula_structural   K4Ba(SiSe3)2
_chemical_formula_sum   'K4 Ba1 Si2 Se6'
_cell_volume   412.76356383
_cell_formula_units_Z   1
loop_
 _symmetry_equiv_pos_site_id
 _symmetry_equiv_pos_as_xyz
  1  'x, y, z'
loop_
 _atom_site_type_symbol
 _atom_site_label
 _atom_site_symmetry_multiplicity
 _atom_site_fract_x
 _atom_site_fract_y
 _atom_site_fract_z
 _atom_site_occupancy
  K  K0  1  0.50349961  0.49650039  0.00000000  1
  K  K1  1  0.82190474  0.17809526  0.00000000  1
  K  K2  1  0.17460938  0.82539062  1.00000000  1
  K  K3  1  0.66644656  0.33355344  0.50000000  1
  Ba  Ba0  1  0.33506995  0.66493005  0.50000000  1
  Si  Si0  1  0.04716485  0.04800964  0.35608493  1
  Si  Si1  1  0.95199036  0.95283515  0.64391507  1
  Se  Se0  1  0.79175977  0.79692349  0.26598428  1
  Se  Se1  1  0.20307651  0.20824023  0.73401572  1
  Se  Se2  1  0.08231506  0.36773596  0.26707016  1
  Se  Se3  1  0.36222531  0.07232614  0.26962050  1
  Se  Se4  1  0.92767386  0.63777469  0.73037950  1
  Se  Se5  1  0.63226404  0.91768494  0.73292984  1
loop_
_geom_bond_atom_site_label_1
_geom_bond_atom_site_label_2
_geom_bond_distance
_geom_bond_site_symmetry_2
K0 Se2 3.243234 1_555
K0 Se5 3.243234 1_554
K0 Se4 3.244577 1_554
K0 Se3 3.244577 1_555
K0 Se1 3.661094 1_554
K0 Se0 3.661094 1_555
K1 Se2 3.292627 1_655
K1 Se5 3.292627 1_544
K1 Se1 3.300131 1_654
K1 Se0 3.300131 1_545
K1 Se3 3.531786 1_555
K1 Se4 3.531786 1_554
K2 Se4 3.258794 1_455
K2 Se3 3.258794 1_566
K2 Se0 3.315531 1_456
K2 Se1 3.315531 1_565
K2 Se5 3.547325 1_555
K2 Se2 3.547325 1_556
K3 Se2 3.347528 1_655
K3 Se5 3.347528 1_545
K3 Se3 3.354536 1_555
K3 Se4 3.354536 1_555
K3 Se1 3.368321 1_555
K3 Se0 3.368321 1_555
Ba0 Se4 3.311081 1_455
Ba0 Se3 3.311081 1_565
Ba0 Se0 3.311267 1_555
Ba0 Se1 3.311267 1_555
Ba0 Se5 3.324402 1_555
Ba0 Se2 3.324402 1_555
Si0 Si1 2.371127 1_445
Se0 Si0 2.289675 1_665
Se1 Si1 2.289675 1_445
Se2 Si0 2.300395 1_555
Se3 Si0 2.301820 1_555
Se4 Si1 2.301820 1_555
Se5 Si1 2.300395 1_555
