# generated using pymatgen
data_Sc8Be(Si5Tc4)3
_symmetry_space_group_name_H-M   'P 1'
_cell_length_a   6.59008181
_cell_length_b   6.59785372
_cell_length_c   12.27727462
_cell_angle_alpha   90.00000000
_cell_angle_beta   90.00000000
_cell_angle_gamma   91.58636806
_symmetry_Int_Tables_number   1
_chemical_formula_structural   Sc8Be(Si5Tc4)3
_chemical_formula_sum   'Sc8 Be1 Si15 Tc12'
_cell_volume   533.61616248
_cell_formula_units_Z   1
loop_
 _symmetry_equiv_pos_site_id
 _symmetry_equiv_pos_as_xyz
  1  'x, y, z'
loop_
 _atom_site_type_symbol
 _atom_site_label
 _atom_site_symmetry_multiplicity
 _atom_site_fract_x
 _atom_site_fract_y
 _atom_site_fract_z
 _atom_site_occupancy
  Sc  Sc0  1  0.49526572  0.33038113  0.09046978  1
  Sc  Sc1  1  0.99228313  0.16346055  0.40822903  1
  Sc  Sc2  1  0.50557534  0.66317252  0.59420399  1
  Sc  Sc3  1  0.00701015  0.83638281  0.90479415  1
  Sc  Sc4  1  0.50557534  0.66317252  0.90579601  1
  Sc  Sc5  1  0.00701015  0.83638281  0.59520585  1
  Sc  Sc6  1  0.49526572  0.33038113  0.40953022  1
  Sc  Sc7  1  0.99228313  0.16346055  0.09177097  1
  Be  Be0  1  0.52592253  0.36937568  0.75000000  1
  Si  Si0  1  0.66506104  0.04439932  0.54771749  1
  Si  Si1  1  0.15414748  0.44536739  0.94873888  1
  Si  Si2  1  0.33342351  0.95645288  0.04416097  1
  Si  Si3  1  0.84502613  0.55480746  0.45082458  1
  Si  Si4  1  0.33342351  0.95645288  0.45583903  1
  Si  Si5  1  0.84502613  0.55480746  0.04917542  1
  Si  Si6  1  0.66506104  0.04439932  0.95228251  1
  Si  Si7  1  0.15414748  0.44536739  0.55126112  1
  Si  Si8  1  0.03577814  0.15366018  0.75000000  1
  Si  Si9  1  0.47953846  0.62743618  0.25000000  1
  Si  Si10  1  0.96682622  0.85045894  0.25000000  1
  Si  Si11  1  0.79972891  0.64276095  0.75000000  1
  Si  Si12  1  0.30826747  0.86973966  0.75000000  1
  Si  Si13  1  0.19484908  0.35183617  0.25000000  1
  Si  Si14  1  0.69368918  0.13031465  0.25000000  1
  Tc  Tc0  1  0.80494858  0.35825601  0.62249416  1
  Tc  Tc1  1  0.34562914  0.15894573  0.87617926  1
  Tc  Tc2  1  0.19560311  0.64265817  0.12234001  1
  Tc  Tc3  1  0.65752002  0.84465825  0.38007889  1
  Tc  Tc4  1  0.19560311  0.64265817  0.37765999  1
  Tc  Tc5  1  0.65752002  0.84465825  0.11992111  1
  Tc  Tc6  1  0.80494858  0.35825601  0.87750584  1
  Tc  Tc7  1  0.34562914  0.15894573  0.62382074  1
  Tc  Tc8  1  0.68212135  0.99460216  0.75000000  1
  Tc  Tc9  1  0.16245659  0.51821253  0.75000000  1
  Tc  Tc10  1  0.31724421  0.00988620  0.25000000  1
  Tc  Tc11  1  0.83059211  0.48383329  0.25000000  1
loop_
_geom_bond_atom_site_label_1
_geom_bond_atom_site_label_2
_geom_bond_distance
_geom_bond_site_symmetry_2
Sc0 Si14 2.717348 1_555
Sc0 Si2 2.720623 1_545
Sc0 Si5 2.751985 1_555
Sc0 Si9 2.774779 1_555
Sc0 Si13 2.791262 1_555
Sc0 Si6 2.794203 1_554
Sc0 Tc2 2.919468 1_555
Sc0 Si1 2.958264 1_554
Sc0 Tc1 3.018563 1_554
Sc0 Tc10 3.089746 1_555
Sc0 Tc11 3.101714 1_555
Sc0 Sc4 3.155646 1_554
Sc0 Tc6 3.318776 1_554
Sc1 Si13 2.647391 1_655
Sc1 Si4 2.726031 1_645
Sc1 Si7 2.751584 1_655
Sc1 Si14 2.769450 1_555
Sc1 Si3 2.832127 1_555
Sc1 Si10 2.836818 1_545
Sc1 Si0 2.847144 1_555
Sc1 Tc3 3.025526 1_545
Sc1 Tc11 3.082520 1_555
Sc1 Tc10 3.083298 1_655
Sc2 Si12 2.702766 1_555
Sc2 Si11 2.729281 1_555
Sc2 Si7 2.742693 1_555
Sc2 Si0 2.758738 1_565
Sc2 Si4 2.835254 1_555
Sc2 Tc0 2.877503 1_555
Sc2 Si3 2.950024 1_555
Sc2 Tc3 3.046481 1_555
Sc2 Tc8 3.106950 1_555
Sc2 Sc6 3.155646 1_555
Sc3 Si11 2.648212 1_455
Sc3 Si6 2.733671 1_465
Sc3 Si12 2.752710 1_555
Sc3 Si5 2.761026 1_456
Sc3 Si8 2.829804 1_565
Sc3 Si1 2.832930 1_555
Sc3 Si2 2.843959 1_556
Sc3 Tc8 3.067454 1_455
Sc4 Si12 2.702766 1_555
Sc4 Si11 2.729281 1_555
Sc4 Si1 2.742693 1_555
Sc4 Si6 2.758738 1_565
Sc4 Si2 2.835254 1_556
Sc4 Tc6 2.877503 1_555
Sc4 Si5 2.950024 1_556
Sc4 Tc5 3.046481 1_556
Sc4 Tc8 3.106950 1_555
Sc5 Si11 2.648212 1_455
Sc5 Si0 2.733671 1_465
Sc5 Si12 2.752710 1_555
Sc5 Si3 2.761026 1_455
Sc5 Si8 2.829804 1_565
Sc5 Si7 2.832930 1_555
Sc5 Si4 2.843959 1_555
Sc5 Tc8 3.067454 1_455
Sc6 Si14 2.717348 1_555
Sc6 Si4 2.720623 1_545
Sc6 Si3 2.751985 1_555
Sc6 Si9 2.774779 1_555
Sc6 Si13 2.791262 1_555
Sc6 Si0 2.794203 1_555
Sc6 Tc4 2.919468 1_555
Sc6 Si7 2.958264 1_555
Sc6 Tc7 3.018563 1_555
Sc6 Tc10 3.089746 1_555
Sc6 Tc11 3.101714 1_555
Sc6 Tc0 3.318776 1_555
Sc7 Si13 2.647391 1_655
Sc7 Si2 2.726031 1_645
Sc7 Si1 2.751584 1_654
Sc7 Si14 2.769450 1_555
Sc7 Si5 2.832127 1_555
Sc7 Si10 2.836818 1_545
Sc7 Si6 2.847144 1_554
Sc7 Tc5 3.025526 1_545
Sc7 Tc11 3.082520 1_555
Sc7 Tc10 3.083298 1_655
Be0 Tc1 2.376511 1_555
Be0 Tc7 2.376511 1_555
Be0 Tc6 2.417562 1_555
Be0 Tc0 2.417562 1_555
Be0 Si11 2.515793 1_555
Be0 Tc9 2.613787 1_555
Be0 Tc8 2.704582 1_545
Be0 Sc4 2.729192 1_555
Be0 Sc2 2.729192 1_555
Si0 Tc0 2.423861 1_555
Si0 Tc7 2.442053 1_555
Si0 Tc3 2.443679 1_545
Si0 Tc8 2.508046 1_545
Si0 Si4 2.513045 1_545
Si1 Tc1 2.467627 1_555
Si1 Tc9 2.487167 1_555
Si1 Si5 2.504646 1_456
Si1 Tc2 2.508387 1_556
Si1 Tc6 2.513501 1_455
Si2 Tc2 2.434852 1_555
Si2 Tc1 2.457394 1_564
Si2 Tc5 2.461333 1_555
Si2 Si6 2.513045 1_564
Si2 Tc10 2.554249 1_565
Si3 Tc3 2.463615 1_555
Si3 Tc0 2.484885 1_555
Si3 Si7 2.504646 1_655
Si3 Tc11 2.510965 1_555
Si3 Tc4 2.531072 1_655
Si4 Tc4 2.434852 1_555
Si4 Tc7 2.457394 1_565
Si4 Tc3 2.461333 1_555
Si4 Tc10 2.554249 1_565
Si5 Tc5 2.463615 1_555
Si5 Tc6 2.484885 1_554
Si5 Tc11 2.510965 1_555
Si5 Tc2 2.531072 1_655
Si6 Tc6 2.423861 1_555
Si6 Tc1 2.442053 1_555
Si6 Tc5 2.443679 1_546
Si6 Tc8 2.508046 1_545
Si7 Tc7 2.467627 1_555
Si7 Tc9 2.487167 1_555
Si7 Tc4 2.508387 1_555
Si7 Tc0 2.513501 1_455
Si8 Tc9 2.524092 1_555
Si8 Tc8 2.529373 1_445
Si8 Tc1 2.562544 1_555
Si8 Tc7 2.562544 1_555
Si8 Tc6 2.588526 1_455
Si8 Tc0 2.588526 1_455
Si9 Tc3 2.426348 1_555
Si9 Tc5 2.426348 1_555
Si9 Tc4 2.445036 1_555
Si9 Tc2 2.445036 1_555
Si9 Tc11 2.524127 1_555
Si9 Tc10 2.767782 1_565
Si10 Tc10 2.510925 1_665
Si10 Tc11 2.556770 1_555
Si10 Tc3 2.588915 1_555
Si10 Tc5 2.588915 1_555
Si10 Tc4 2.593012 1_655
Si10 Tc2 2.593012 1_655
Si10 Si14 2.614071 1_565
Si11 Tc6 2.445179 1_555
Si11 Tc0 2.445179 1_555
Si11 Tc8 2.467629 1_555
Si11 Tc9 2.549132 1_655
Si12 Tc1 2.464839 1_565
Si12 Tc7 2.464839 1_565
Si12 Tc9 2.485802 1_555
Si12 Tc8 2.576094 1_555
Si12 Si8 2.630591 1_565
Si13 Tc10 2.416920 1_555
Si13 Tc4 2.477453 1_555
Si13 Tc2 2.477453 1_555
Si13 Tc11 2.576147 1_455
Si13 Si9 2.576321 1_555
Si14 Tc3 2.476805 1_545
Si14 Tc5 2.476805 1_545
Si14 Tc11 2.477467 1_555
Si14 Tc10 2.583909 1_555
Tc0 Tc8 2.958889 1_545
Tc1 Tc8 2.937014 1_545
Tc6 Tc8 2.958889 1_545
Tc7 Tc8 2.937014 1_545
Tc10 Tc4 2.976923 1_545
Tc10 Tc2 2.976923 1_545
Tc10 Tc3 2.983755 1_545
Tc10 Tc5 2.983755 1_545
