# generated using pymatgen
data_Sc5CCl8
_symmetry_space_group_name_H-M   'P 1'
_cell_length_a   3.54360472
_cell_length_b   9.15952844
_cell_length_c   9.51331593
_cell_angle_alpha   80.92223865
_cell_angle_beta   79.26628947
_cell_angle_gamma   78.84650105
_symmetry_Int_Tables_number   1
_chemical_formula_structural   Sc5CCl8
_chemical_formula_sum   'Sc5 C1 Cl8'
_cell_volume   295.26453089
_cell_formula_units_Z   1
loop_
 _symmetry_equiv_pos_site_id
 _symmetry_equiv_pos_as_xyz
  1  'x, y, z'
loop_
 _atom_site_type_symbol
 _atom_site_label
 _atom_site_symmetry_multiplicity
 _atom_site_fract_x
 _atom_site_fract_y
 _atom_site_fract_z
 _atom_site_occupancy
  Sc  Sc0  1  0.83927223  0.64871008  0.67274446  1
  Sc  Sc1  1  0.16072777  0.35128992  0.32725554  1
  Sc  Sc2  1  0.48848218  0.63657039  0.38646624  1
  Sc  Sc3  1  0.51151782  0.36342961  0.61353376  1
  Sc  Sc4  1  -0.00000000  0.00000000  0.00000000  1
  C  C0  1  -0.00000000  0.50000000  0.50000000  1
  Cl  Cl0  1  0.02778136  0.17881916  0.76561913  1
  Cl  Cl1  1  0.97221864  0.82118084  0.23438087  1
  Cl  Cl2  1  0.32815185  0.50922550  0.83447180  1
  Cl  Cl3  1  0.67184815  0.49077450  0.16552820  1
  Cl  Cl4  1  0.69953061  0.16596517  0.43497161  1
  Cl  Cl5  1  0.30046939  0.83403483  0.56502839  1
  Cl  Cl6  1  0.36913898  0.15816851  0.10355254  1
  Cl  Cl7  1  0.63086102  0.84183149  0.89644746  1
loop_
_geom_bond_atom_site_label_1
_geom_bond_atom_site_label_2
_geom_bond_distance
_geom_bond_site_symmetry_2
C0 Sc1 2.222157 1_555
C0 Sc0 2.222157 1_455
C0 Sc2 2.332950 1_455
C0 Sc3 2.332950 1_555
C0 Sc3 2.332952 1_455
C0 Sc2 2.332952 1_555
Cl0 Sc4 2.548008 1_556
Cl0 Sc3 2.704918 1_555
Cl0 Sc3 2.704923 1_455
Cl1 Sc4 2.548008 1_665
Cl1 Sc2 2.704918 1_555
Cl1 Sc2 2.704923 1_655
Cl2 Sc0 2.552825 1_555
Cl2 Sc0 2.552831 1_455
Cl2 Sc3 2.581594 1_555
Cl3 Sc1 2.552825 1_555
Cl3 Sc1 2.552831 1_655
Cl3 Sc2 2.581594 1_555
Cl4 Sc1 2.550101 1_555
Cl4 Sc1 2.550108 1_655
Cl4 Sc3 2.585072 1_555
Cl5 Sc0 2.550101 1_555
Cl5 Sc0 2.550108 1_455
Cl5 Sc2 2.585072 1_555
Cl6 Sc4 2.538493 1_555
Cl6 Sc4 2.538495 1_655
Cl6 Sc1 2.881063 1_555
Cl7 Sc4 2.538493 1_666
Cl7 Sc4 2.538495 1_566
Cl7 Sc0 2.881063 1_555
