# generated using pymatgen
data_BaNaPt4
_symmetry_space_group_name_H-M   'P 1'
_cell_length_a   5.51002341
_cell_length_b   5.51002331
_cell_length_c   5.51002468
_cell_angle_alpha   60.00000343
_cell_angle_beta   60.00000407
_cell_angle_gamma   60.00000883
_symmetry_Int_Tables_number   1
_chemical_formula_structural   BaNaPt4
_chemical_formula_sum   'Ba1 Na1 Pt4'
_cell_volume   118.28930491
_cell_formula_units_Z   1
loop_
 _symmetry_equiv_pos_site_id
 _symmetry_equiv_pos_as_xyz
  1  'x, y, z'
loop_
 _atom_site_type_symbol
 _atom_site_label
 _atom_site_symmetry_multiplicity
 _atom_site_fract_x
 _atom_site_fract_y
 _atom_site_fract_z
 _atom_site_occupancy
  Ba  Ba0  1  0.00000000  0.00000000  0.00000000  1
  Na  Na0  1  0.25000000  0.25000000  0.25000000  1
  Pt  Pt0  1  0.62442676  0.62442676  0.12672173  1
  Pt  Pt1  1  0.62442676  0.12672173  0.62442676  1
  Pt  Pt2  1  0.12672173  0.62442676  0.62442676  1
  Pt  Pt3  1  0.62442676  0.62442676  0.62442676  1
loop_
_geom_bond_atom_site_label_1
_geom_bond_atom_site_label_2
_geom_bond_distance
_geom_bond_site_symmetry_2
Ba0 Pt0 3.231888 1_445
Ba0 Pt2 3.231889 1_544
Ba0 Pt1 3.231889 1_454
Ba0 Pt3 3.231894 1_445
Ba0 Pt3 3.231894 1_454
Ba0 Pt3 3.231894 1_544
Ba0 Pt2 3.231898 1_554
Ba0 Pt1 3.231898 1_554
Ba0 Pt0 3.231898 1_455
Ba0 Pt0 3.231898 1_545
Ba0 Pt2 3.231899 1_545
Ba0 Pt1 3.231899 1_455
Na0 Pt2 3.229195 1_545
Na0 Pt1 3.229195 1_455
Na0 Pt0 3.229195 1_545
Na0 Pt0 3.229195 1_455
Na0 Pt2 3.229196 1_554
Na0 Pt1 3.229196 1_554
Na0 Pt3 3.229200 1_554
Na0 Pt3 3.229200 1_545
Na0 Pt3 3.229200 1_455
Na0 Pt0 3.229204 1_555
Na0 Pt2 3.229205 1_555
Na0 Pt1 3.229205 1_555
Pt0 Pt1 2.742367 1_555
Pt0 Pt2 2.742367 1_555
Pt0 Pt3 2.742367 1_555
Pt0 Pt1 2.767658 1_564
Pt0 Pt2 2.767658 1_654
Pt0 Pt3 2.767658 1_554
Pt1 Pt3 2.742366 1_555
Pt1 Pt2 2.742367 1_555
Pt1 Pt3 2.767657 1_545
Pt1 Pt2 2.767657 1_645
Pt2 Pt3 2.742366 1_555
Pt2 Pt3 2.767657 1_455
