# generated using pymatgen
data_Ta3Nb13(Ni2N)4
_symmetry_space_group_name_H-M   'P 1'
_cell_length_a   8.22482026
_cell_length_b   8.22593731
_cell_length_c   8.22482052
_cell_angle_alpha   60.00449095
_cell_angle_beta   59.99999898
_cell_angle_gamma   60.00449591
_symmetry_Int_Tables_number   1
_chemical_formula_structural   Ta3Nb13(Ni2N)4
_chemical_formula_sum   'Ta3 Nb13 Ni8 N4'
_cell_volume   393.50724519
_cell_formula_units_Z   1
loop_
 _symmetry_equiv_pos_site_id
 _symmetry_equiv_pos_as_xyz
  1  'x, y, z'
loop_
 _atom_site_type_symbol
 _atom_site_label
 _atom_site_symmetry_multiplicity
 _atom_site_fract_x
 _atom_site_fract_y
 _atom_site_fract_z
 _atom_site_occupancy
  Ta  Ta0  1  0.12500000  0.62500000  0.62500000  1
  Ta  Ta1  1  0.62500000  0.62500000  0.12500000  1
  Ta  Ta2  1  0.62500000  0.62500000  0.62500000  1
  Nb  Nb0  1  0.62500000  0.12500000  0.62500000  1
  Nb  Nb1  1  0.81665847  0.81702071  0.18316041  1
  Nb  Nb2  1  0.18315496  0.18309294  0.81687605  1
  Nb  Nb3  1  0.81687605  0.18309294  0.81687605  1
  Nb  Nb4  1  0.18316041  0.81702071  0.18316041  1
  Nb  Nb5  1  0.18316041  0.81702071  0.81665847  1
  Nb  Nb6  1  0.81687605  0.18309294  0.18315496  1
  Nb  Nb7  1  0.43334153  0.43297929  0.06683959  1
  Nb  Nb8  1  0.06684504  0.06690706  0.43312395  1
  Nb  Nb9  1  0.43312395  0.06690706  0.43312395  1
  Nb  Nb10  1  0.06683959  0.43297929  0.06683959  1
  Nb  Nb11  1  0.06683959  0.43297929  0.43334153  1
  Nb  Nb12  1  0.43312395  0.06690706  0.06684504  1
  Ni  Ni0  1  0.73641099  0.42302096  0.42028352  1
  Ni  Ni1  1  0.42102855  0.73691335  0.42102855  1
  Ni  Ni2  1  0.42028352  0.42302096  0.73641099  1
  Ni  Ni3  1  0.42028352  0.42302096  0.42028352  1
  Ni  Ni4  1  0.51358901  0.82697904  0.82971648  1
  Ni  Ni5  1  0.82897145  0.51308665  0.82897145  1
  Ni  Ni6  1  0.82971648  0.82697904  0.51358901  1
  Ni  Ni7  1  0.82971648  0.82697904  0.82971648  1
  N  N0  1  0.62500000  0.12500000  0.12500000  1
  N  N1  1  0.12500000  0.62500000  0.12500000  1
  N  N2  1  0.12500000  0.12500000  0.62500000  1
  N  N3  1  0.12500000  0.12500000  0.12500000  1
loop_
_geom_bond_atom_site_label_1
_geom_bond_atom_site_label_2
_geom_bond_distance
_geom_bond_site_symmetry_2
Nb0 Ni0 2.502120 1_555
Nb0 Ni4 2.502120 1_545
Nb0 Ni2 2.502120 1_555
Nb0 Ni6 2.502120 1_545
Nb0 Ni7 2.502124 1_545
Nb0 Ni3 2.502124 1_555
Nb1 Ni7 2.815573 1_554
Nb1 Ni6 2.815582 1_555
Nb1 Ni0 3.045489 1_555
Nb1 Ni1 3.055975 1_555
Nb2 Ni5 2.817488 1_455
Nb2 Ni4 2.827726 1_545
Nb2 Ni2 3.064152 1_555
Nb2 Ni3 3.064155 1_555
Nb3 Ni5 2.817492 1_555
Nb3 Ni7 2.827722 1_545
Nb3 Ni0 3.064159 1_555
Nb3 Ni2 3.064159 1_555
Nb4 Ni4 2.815577 1_554
Nb4 Ni6 2.815577 1_455
Nb4 Ni3 3.045486 1_555
Nb4 Ni1 3.055969 1_555
Nb5 Ni7 2.815573 1_455
Nb5 Ni4 2.815581 1_555
Nb5 Ni2 3.045489 1_555
Nb5 Ni1 3.055976 1_555
Nb6 Ni5 2.817487 1_554
Nb6 Ni6 2.827726 1_545
Nb6 Ni0 3.064152 1_555
Nb6 Ni3 3.064156 1_555
Nb7 Ni3 2.815573 1_555
Nb7 Ni2 2.815582 1_554
Nb7 Ni4 3.045489 1_554
Nb7 Ni5 3.055975 1_554
Nb8 Ni1 2.817488 1_545
Nb8 Ni0 2.827726 1_455
Nb8 Ni6 3.064152 1_445
Nb8 Ni7 3.064155 1_445
Nb9 Ni1 2.817492 1_545
Nb9 Ni3 2.827722 1_555
Nb9 Ni4 3.064159 1_545
Nb9 Ni6 3.064159 1_545
Nb10 Ni0 2.815577 1_455
Nb10 Ni2 2.815577 1_554
Nb10 Ni7 3.045486 1_454
Nb10 Ni5 3.055969 1_454
Nb11 Ni3 2.815573 1_555
Nb11 Ni0 2.815581 1_455
Nb11 Ni6 3.045489 1_455
Nb11 Ni5 3.055976 1_455
Nb12 Ni1 2.817487 1_545
Nb12 Ni2 2.827726 1_554
Nb12 Ni4 3.064152 1_544
Nb12 Ni7 3.064156 1_544
Ni0 Ta1 2.483371 1_555
Ni0 Ta2 2.483378 1_555
Ni0 Ni1 2.588201 1_555
Ni0 Ni2 2.600092 1_555
Ni0 Ni3 2.600092 1_555
Ni1 Ta0 2.490455 1_555
Ni1 Ta1 2.490455 1_555
Ni1 Ta2 2.490462 1_555
Ni1 Ni2 2.588200 1_555
Ni1 Ni3 2.588200 1_555
Ni2 Ta0 2.483371 1_555
Ni2 Ta2 2.483377 1_555
Ni2 Ni3 2.600092 1_555
Ni3 Ta1 2.483375 1_555
Ni3 Ta0 2.483375 1_555
Ni4 Ta1 2.483371 1_556
Ni4 Ta2 2.483378 1_555
Ni4 Ni5 2.588201 1_555
Ni4 Ni6 2.600092 1_555
Ni4 Ni7 2.600092 1_555
Ni5 Ta0 2.490455 1_655
Ni5 Ta1 2.490455 1_556
Ni5 Ta2 2.490462 1_555
Ni5 Ni6 2.588200 1_555
Ni5 Ni7 2.588200 1_555
Ni6 Ta0 2.483371 1_655
Ni6 Ta2 2.483377 1_555
Ni6 Ni7 2.600092 1_555
Ni7 Ta1 2.483375 1_556
Ni7 Ta0 2.483375 1_655
N0 Nb7 2.163620 1_555
N0 Nb1 2.163620 1_545
N0 Nb6 2.164514 1_555
N0 Nb12 2.164514 1_555
N0 Nb9 2.164514 1_555
N0 Nb3 2.164514 1_554
N1 Nb11 2.166204 1_555
N1 Nb5 2.166204 1_554
N1 Nb4 2.166204 1_555
N1 Nb10 2.166204 1_555
N1 Nb7 2.166204 1_555
N1 Nb1 2.166204 1_455
N2 Nb11 2.163620 1_555
N2 Nb5 2.163620 1_545
N2 Nb9 2.164514 1_555
N2 Nb3 2.164514 1_455
N2 Nb2 2.164514 1_555
N2 Nb8 2.164514 1_555
N3 Nb10 2.163620 1_555
N3 Nb4 2.163620 1_545
N3 Nb12 2.164514 1_555
N3 Nb6 2.164514 1_455
N3 Nb8 2.164514 1_555
N3 Nb2 2.164514 1_554
