# generated using pymatgen
data_Ca10NbReN10
_symmetry_space_group_name_H-M   'P 1'
_cell_length_a   6.92391266
_cell_length_b   6.92391230
_cell_length_c   8.96243978
_cell_angle_alpha   79.70431050
_cell_angle_beta   79.70431060
_cell_angle_gamma   59.60858581
_symmetry_Int_Tables_number   1
_chemical_formula_structural   Ca10NbReN10
_chemical_formula_sum   'Ca10 Nb1 Re1 N10'
_cell_volume   362.67700535
_cell_formula_units_Z   1
loop_
 _symmetry_equiv_pos_site_id
 _symmetry_equiv_pos_as_xyz
  1  'x, y, z'
loop_
 _atom_site_type_symbol
 _atom_site_label
 _atom_site_symmetry_multiplicity
 _atom_site_fract_x
 _atom_site_fract_y
 _atom_site_fract_z
 _atom_site_occupancy
  Ca  Ca0  1  0.87305882  0.34804122  0.82894028  1
  Ca  Ca1  1  0.87164707  0.87164707  0.82557754  1
  Ca  Ca2  1  0.74081128  0.74081128  0.52566283  1
  Ca  Ca3  1  0.75604805  0.24386560  0.50693259  1
  Ca  Ca4  1  0.63757723  0.13705413  0.15380877  1
  Ca  Ca5  1  0.34804122  0.87305882  0.82894028  1
  Ca  Ca6  1  0.24386560  0.75604805  0.50693259  1
  Ca  Ca7  1  0.24397396  0.24397396  0.49690039  1
  Ca  Ca8  1  0.14124262  0.14124262  0.15598793  1
  Ca  Ca9  1  0.13705413  0.63757723  0.15380877  1
  Nb  Nb0  1  0.36865166  0.36865166  0.77810862  1
  Re  Re0  1  0.63099859  0.63099859  0.22581155  1
  N  N0  1  0.90443395  0.47497496  0.31455667  1
  N  N1  1  0.99814952  0.99814952  0.01147964  1
  N  N2  1  0.67263631  0.67263631  0.01949540  1
  N  N3  1  0.53536220  0.53536220  0.68964885  1
  N  N4  1  0.47497496  0.90443395  0.31455667  1
  N  N5  1  0.53696716  0.08196045  0.68130682  1
  N  N6  1  0.47501675  0.47501675  0.29942131  1
  N  N7  1  0.32687724  0.32687724  0.00076730  1
  N  N8  1  0.06293721  0.06293721  0.64585536  1
  N  N9  1  0.08196045  0.53696716  0.68130682  1
loop_
_geom_bond_atom_site_label_1
_geom_bond_atom_site_label_2
_geom_bond_distance
_geom_bond_site_symmetry_2
Ca0 N8 2.465478 1_655
Ca0 N3 2.470622 1_555
Ca0 N9 2.483064 1_655
Ca0 N1 2.502487 1_546
Ca0 N2 2.694952 1_556
Ca1 N1 2.475872 1_556
Ca1 N9 2.479106 1_655
Ca1 N5 2.479106 1_565
Ca1 N8 2.520465 1_665
Ca1 N2 2.650849 1_556
Ca2 N5 2.572589 1_565
Ca2 N9 2.572589 1_655
Ca2 N0 2.572918 1_555
Ca2 N4 2.572918 1_555
Ca2 N3 2.599984 1_555
Ca3 N8 2.308570 1_655
Ca3 N5 2.499393 1_555
Ca3 N3 2.501323 1_555
Ca3 N0 2.575445 1_555
Ca3 N6 2.623974 1_555
Ca4 N1 2.378182 1_545
Ca4 N7 2.405457 1_555
Ca4 N6 2.519393 1_555
Ca4 N4 2.522456 1_545
Ca5 N8 2.465478 1_565
Ca5 N3 2.470622 1_555
Ca5 N5 2.483064 1_565
Ca5 N1 2.502488 1_456
Ca5 N2 2.694952 1_556
Ca6 N8 2.308570 1_565
Ca6 N9 2.499392 1_555
Ca6 N3 2.501323 1_555
Ca6 N4 2.575445 1_555
Ca6 N6 2.623973 1_555
Ca7 N8 2.306101 1_555
Ca7 N9 2.517649 1_555
Ca7 N5 2.517649 1_555
Ca7 N4 2.718513 1_545
Ca7 N0 2.718513 1_455
Ca7 N6 2.969158 1_555
Ca8 N1 2.356099 1_445
Ca8 N7 2.373316 1_555
Ca8 N0 2.560277 1_455
Ca8 N4 2.560277 1_545
Ca9 N1 2.378182 1_455
Ca9 N7 2.405457 1_555
Ca9 N6 2.519393 1_555
Ca9 N0 2.522456 1_455
N0 Re0 1.883013 1_555
N2 Re0 1.813387 1_555
N3 Nb0 1.996797 1_555
N4 Re0 1.883013 1_555
N5 Nb0 1.991154 1_555
N6 Re0 1.854416 1_555
N7 Nb0 1.954892 1_554
N9 Nb0 1.991154 1_555
