# generated using pymatgen
data_P2Pd3S8
_symmetry_space_group_name_H-M   'P 1'
_cell_length_a   7.05164123
_cell_length_b   7.05164145
_cell_length_c   7.32875312
_cell_angle_alpha   90.00000000
_cell_angle_beta   90.00000000
_cell_angle_gamma   119.99999407
_symmetry_Int_Tables_number   1
_chemical_formula_structural   P2Pd3S8
_chemical_formula_sum   'P2 Pd3 S8'
_cell_volume   315.60304137
_cell_formula_units_Z   1
loop_
 _symmetry_equiv_pos_site_id
 _symmetry_equiv_pos_as_xyz
  1  'x, y, z'
loop_
 _atom_site_type_symbol
 _atom_site_label
 _atom_site_symmetry_multiplicity
 _atom_site_fract_x
 _atom_site_fract_y
 _atom_site_fract_z
 _atom_site_occupancy
  P  P0  1  0.66666700  0.33333300  0.67512673  1
  P  P1  1  0.33333300  0.66666700  0.32487327  1
  Pd  Pd0  1  0.50000000  0.50000000  0.00000000  1
  Pd  Pd1  1  -0.00000000  0.50000000  0.00000000  1
  Pd  Pd2  1  0.50000000  0.00000000  0.00000000  1
  S  S0  1  0.18351623  0.81648377  0.18039738  1
  S  S1  1  0.33333300  0.66666700  0.58470746  1
  S  S2  1  0.66666700  0.33333300  0.41529254  1
  S  S3  1  0.81648377  0.18351623  0.81960262  1
  S  S4  1  0.81648377  0.63296754  0.81960262  1
  S  S5  1  0.36703246  0.18351623  0.81960262  1
  S  S6  1  0.63296754  0.81648377  0.18039738  1
  S  S7  1  0.18351623  0.36703246  0.18039738  1
loop_
_geom_bond_atom_site_label_1
_geom_bond_atom_site_label_2
_geom_bond_distance
_geom_bond_site_symmetry_2
P0 S2 1.904261 1_555
P0 S3 2.114096 1_555
P0 S5 2.114102 1_555
P0 S4 2.114102 1_555
P1 S1 1.904261 1_555
P1 S0 2.114096 1_555
P1 S6 2.114102 1_555
P1 S7 2.114102 1_555
Pd0 S7 2.348435 1_555
Pd0 S4 2.348435 1_554
Pd0 S5 2.348435 1_554
Pd0 S6 2.348435 1_555
Pd1 S7 2.348435 1_555
Pd1 S4 2.348435 1_454
Pd1 S0 2.348435 1_555
Pd1 S3 2.348435 1_454
Pd2 S6 2.348435 1_545
Pd2 S5 2.348435 1_554
Pd2 S0 2.348435 1_545
Pd2 S3 2.348435 1_554
