# generated using pymatgen
data_Lu12AlCo4Sb
_symmetry_space_group_name_H-M   'P 1'
_cell_length_a   8.07986836
_cell_length_b   8.07986870
_cell_length_c   8.07986866
_cell_angle_alpha   111.18485649
_cell_angle_beta   109.65215007
_cell_angle_gamma   107.59657785
_symmetry_Int_Tables_number   1
_chemical_formula_structural   Lu12AlCo4Sb
_chemical_formula_sum   'Lu12 Al1 Co4 Sb1'
_cell_volume   405.66086142
_cell_formula_units_Z   1
loop_
 _symmetry_equiv_pos_site_id
 _symmetry_equiv_pos_as_xyz
  1  'x, y, z'
loop_
 _atom_site_type_symbol
 _atom_site_label
 _atom_site_symmetry_multiplicity
 _atom_site_fract_x
 _atom_site_fract_y
 _atom_site_fract_z
 _atom_site_occupancy
  Lu  Lu0  1  0.43864101  0.23297294  0.20566707  1
  Lu  Lu1  1  0.56135899  0.76702706  0.79433293  1
  Lu  Lu2  1  0.02730486  0.23297294  0.79433293  1
  Lu  Lu3  1  0.97269514  0.76702706  0.20566707  1
  Lu  Lu4  1  0.18030324  0.27890697  0.45921121  1
  Lu  Lu5  1  0.81969676  0.72109303  0.54078879  1
  Lu  Lu6  1  0.18030324  0.72109303  0.90139627  1
  Lu  Lu7  1  0.81969676  0.27890697  0.09860373  1
  Lu  Lu8  1  0.32262156  0.63548698  0.31286642  1
  Lu  Lu9  1  0.67737844  0.36451302  0.68713358  1
  Lu  Lu10  1  0.32262156  0.00975515  0.68713358  1
  Lu  Lu11  1  0.67737844  0.99024485  0.31286642  1
  Al  Al0  1  0.00000000  0.00000000  0.00000000  1
  Co  Co0  1  0.33992610  0.00000000  0.33992610  1
  Co  Co1  1  0.66007390  0.00000000  0.66007390  1
  Co  Co2  1  0.11429649  0.61429649  0.50000000  1
  Co  Co3  1  0.88570351  0.38570351  0.50000000  1
  Sb  Sb0  1  0.50000000  0.50000000  0.00000000  1
loop_
_geom_bond_atom_site_label_1
_geom_bond_atom_site_label_2
_geom_bond_distance
_geom_bond_site_symmetry_2
Lu0 Sb0 3.187626 1_555
Lu1 Sb0 3.187626 1_556
Lu2 Sb0 3.187634 1_556
Lu3 Sb0 3.187634 1_555
Lu4 Sb0 3.596224 1_556
Lu5 Sb0 3.596224 1_555
Lu6 Sb0 3.596230 1_556
Lu7 Sb0 3.596230 1_555
Lu8 Sb0 3.320877 1_555
Lu9 Sb0 3.320877 1_556
Lu10 Sb0 3.320878 1_556
Lu11 Sb0 3.320878 1_555
Al0 Lu2 2.934257 1_554
Al0 Lu3 2.934257 1_445
Al0 Lu1 2.934264 1_444
Al0 Lu0 2.934264 1_555
Al0 Lu7 3.050167 1_455
Al0 Lu6 3.050167 1_544
Al0 Lu4 3.050174 1_555
Al0 Lu5 3.050174 1_444
Al0 Co0 3.164367 1_555
Al0 Co1 3.164367 1_454
Co0 Lu3 2.550758 1_445
Co0 Lu0 2.550766 1_555
Co0 Lu11 2.829604 1_545
Co0 Lu10 2.829604 1_555
Co0 Lu9 2.829607 1_555
Co0 Lu8 2.829612 1_545
Co0 Lu6 2.948617 1_544
Co0 Lu4 2.948618 1_555
Co1 Lu2 2.550758 1_655
Co1 Lu1 2.550766 1_545
Co1 Lu10 2.829604 1_555
Co1 Lu11 2.829604 1_545
Co1 Lu8 2.829607 1_545
Co1 Lu9 2.829612 1_555
Co1 Lu7 2.948617 1_556
Co1 Lu5 2.948618 1_545
Co2 Co3 2.181788 1_455
Co2 Lu8 2.621740 1_555
Co2 Lu10 2.621741 1_565
Co2 Lu5 2.843093 1_455
Co2 Lu6 2.843096 1_555
Co2 Lu7 2.843096 1_455
Co2 Lu4 2.843097 1_555
Co2 Lu1 3.103578 1_555
Co2 Lu3 3.103583 1_455
Co3 Lu9 2.621740 1_555
Co3 Lu11 2.621741 1_545
Co3 Lu4 2.843093 1_655
Co3 Lu7 2.843096 1_555
Co3 Lu6 2.843096 1_655
Co3 Lu5 2.843097 1_555
Co3 Lu0 3.103578 1_555
Co3 Lu2 3.103583 1_655
