# generated using pymatgen
data_Zr5Ir3
_symmetry_space_group_name_H-M   'P 1'
_cell_length_a   7.94545163
_cell_length_b   7.94545076
_cell_length_c   17.16599705
_cell_angle_alpha   90.00000000
_cell_angle_beta   90.00000000
_cell_angle_gamma   119.99999943
_symmetry_Int_Tables_number   1
_chemical_formula_structural   Zr5Ir3
_chemical_formula_sum   'Zr30 Ir18'
_cell_volume   938.50544423
_cell_formula_units_Z   6
loop_
 _symmetry_equiv_pos_site_id
 _symmetry_equiv_pos_as_xyz
  1  'x, y, z'
loop_
 _atom_site_type_symbol
 _atom_site_label
 _atom_site_symmetry_multiplicity
 _atom_site_fract_x
 _atom_site_fract_y
 _atom_site_fract_z
 _atom_site_occupancy
  Zr  Zr0  1  0.23832588  0.23010675  0.82583385  1
  Zr  Zr1  1  0.76989325  0.00821913  0.15916785  1
  Zr  Zr2  1  0.99178087  0.76167412  0.49250085  1
  Zr  Zr3  1  0.00821913  0.23832588  0.99250085  1
  Zr  Zr4  1  0.76167412  0.99178087  0.84083215  1
  Zr  Zr5  1  0.76167412  0.76989325  0.32583385  1
  Zr  Zr6  1  0.23010675  0.99178087  0.65916785  1
  Zr  Zr7  1  0.76989325  0.76167412  0.00749915  1
  Zr  Zr8  1  0.99178087  0.23010675  0.67416615  1
  Zr  Zr9  1  0.00821913  0.76989325  0.17416615  1
  Zr  Zr10  1  0.23010675  0.23832588  0.50749915  1
  Zr  Zr11  1  0.23832588  0.00821913  0.34083215  1
  Zr  Zr12  1  0.34519249  0.69038297  0.75000000  1
  Zr  Zr13  1  0.65480751  0.34519249  0.91666700  1
  Zr  Zr14  1  0.69038297  0.34519249  0.58333300  1
  Zr  Zr15  1  0.30961703  0.65480751  0.08333300  1
  Zr  Zr16  1  0.34519249  0.65480751  0.41666700  1
  Zr  Zr17  1  0.65480751  0.30961703  0.25000000  1
  Zr  Zr18  1  0.25120851  -0.00000000  -0.00000000  1
  Zr  Zr19  1  0.25120851  0.25120851  0.16666700  1
  Zr  Zr20  1  -0.00000000  0.74879149  0.83333300  1
  Zr  Zr21  1  0.00000000  0.25120851  0.33333300  1
  Zr  Zr22  1  0.74879149  0.74879149  0.66666700  1
  Zr  Zr23  1  0.74879149  0.00000000  0.50000000  1
  Zr  Zr24  1  0.37596974  0.75193848  0.25000000  1
  Zr  Zr25  1  0.62403026  0.37596974  0.41666700  1
  Zr  Zr26  1  0.75193848  0.37596974  0.08333300  1
  Zr  Zr27  1  0.24806152  0.62403026  0.58333300  1
  Zr  Zr28  1  0.37596974  0.62403026  0.91666700  1
  Zr  Zr29  1  0.62403026  0.24806152  0.75000000  1
  Ir  Ir0  1  0.41556639  0.39393446  0.02370812  1
  Ir  Ir1  1  0.60606554  0.02163193  0.35704112  1
  Ir  Ir2  1  0.97836807  0.58443361  0.69037412  1
  Ir  Ir3  1  0.02163193  0.41556639  0.19037412  1
  Ir  Ir4  1  0.58443361  0.97836807  0.64295888  1
  Ir  Ir5  1  0.58443361  0.60606554  0.52370812  1
  Ir  Ir6  1  0.39393446  0.97836807  0.85704112  1
  Ir  Ir7  1  0.60606554  0.58443361  0.80962588  1
  Ir  Ir8  1  0.97836807  0.39393446  0.47629188  1
  Ir  Ir9  1  0.02163193  0.60606554  0.97629188  1
  Ir  Ir10  1  0.39393446  0.41556639  0.30962588  1
  Ir  Ir11  1  0.41556639  0.02163193  0.14295888  1
  Ir  Ir12  1  0.38217673  -0.00000000  0.50000000  1
  Ir  Ir13  1  0.38217673  0.38217673  0.66666700  1
  Ir  Ir14  1  -0.00000000  0.61782327  0.33333300  1
  Ir  Ir15  1  0.00000000  0.38217673  0.83333300  1
  Ir  Ir16  1  0.61782327  0.61782327  0.16666700  1
  Ir  Ir17  1  0.61782327  0.00000000  -0.00000000  1
loop_
_geom_bond_atom_site_label_1
_geom_bond_atom_site_label_2
_geom_bond_distance
_geom_bond_site_symmetry_2
Ir0 Zr28 2.718974 1_554
Ir0 Zr19 2.744582 1_555
Ir0 Zr18 2.753247 1_555
Ir0 Zr15 2.792388 1_555
Ir0 Zr13 2.806381 1_554
Ir0 Zr3 2.879115 1_554
Ir0 Zr7 2.883512 1_555
Ir0 Zr26 2.931279 1_555
Ir1 Zr24 2.718977 1_545
Ir1 Zr23 2.744582 1_555
Ir1 Zr21 2.753248 1_655
Ir1 Zr16 2.792405 1_545
Ir1 Zr17 2.806393 1_555
Ir1 Zr5 2.879115 1_545
Ir1 Zr11 2.883512 1_555
Ir1 Zr25 2.931292 1_555
Ir2 Zr27 2.718980 1_655
Ir2 Zr20 2.744582 1_655
Ir2 Zr22 2.753245 1_555
Ir2 Zr12 2.792409 1_655
Ir2 Zr14 2.806389 1_555
Ir2 Zr6 2.879112 1_655
Ir2 Zr8 2.883511 1_555
Ir2 Zr29 2.931289 1_555
Ir3 Zr26 2.718980 1_455
Ir3 Zr21 2.744582 1_555
Ir3 Zr19 2.753245 1_555
Ir3 Zr17 2.792409 1_455
Ir3 Zr15 2.806389 1_555
Ir3 Zr1 2.879112 1_455
Ir3 Zr9 2.883511 1_555
Ir3 Zr24 2.931289 1_555
Ir4 Zr29 2.718980 1_565
Ir4 Zr23 2.744582 1_565
Ir4 Zr22 2.753248 1_555
Ir4 Zr14 2.792409 1_565
Ir4 Zr12 2.806389 1_555
Ir4 Zr8 2.879115 1_565
Ir4 Zr6 2.883512 1_555
Ir4 Zr27 2.931289 1_555
Ir5 Zr25 2.718974 1_555
Ir5 Zr22 2.744582 1_555
Ir5 Zr23 2.753247 1_565
Ir5 Zr14 2.792388 1_555
Ir5 Zr16 2.806381 1_555
Ir5 Zr2 2.879115 1_555
Ir5 Zr10 2.883512 1_555
Ir5 Zr27 2.931279 1_555
Ir6 Zr29 2.718977 1_565
Ir6 Zr18 2.744582 1_566
Ir6 Zr20 2.753248 1_555
Ir6 Zr13 2.792405 1_565
Ir6 Zr12 2.806393 1_555
Ir6 Zr0 2.879115 1_565
Ir6 Zr4 2.883512 1_555
Ir6 Zr28 2.931292 1_555
Ir7 Zr28 2.718974 1_555
Ir7 Zr22 2.744582 1_555
Ir7 Zr20 2.753245 1_655
Ir7 Zr12 2.792395 1_555
Ir7 Zr13 2.806381 1_555
Ir7 Zr4 2.879112 1_555
Ir7 Zr0 2.883511 1_555
Ir7 Zr29 2.931284 1_555
Ir8 Zr27 2.718978 1_655
Ir8 Zr21 2.744582 1_655
Ir8 Zr23 2.753247 1_555
Ir8 Zr16 2.792399 1_655
Ir8 Zr14 2.806393 1_555
Ir8 Zr10 2.879115 1_655
Ir8 Zr2 2.883512 1_555
Ir8 Zr25 2.931286 1_555
Ir9 Zr26 2.718978 1_456
Ir9 Zr20 2.744582 1_555
Ir9 Zr18 2.753247 1_566
Ir9 Zr13 2.792399 1_455
Ir9 Zr15 2.806393 1_556
Ir9 Zr7 2.879115 1_456
Ir9 Zr3 2.883512 1_555
Ir9 Zr28 2.931286 1_555
Ir10 Zr25 2.718974 1_555
Ir10 Zr19 2.744582 1_555
Ir10 Zr21 2.753245 1_555
Ir10 Zr17 2.792395 1_555
Ir10 Zr16 2.806381 1_555
Ir10 Zr11 2.879112 1_555
Ir10 Zr5 2.883511 1_555
Ir10 Zr24 2.931284 1_555
Ir11 Zr24 2.718980 1_545
Ir11 Zr18 2.744582 1_555
Ir11 Zr19 2.753248 1_555
Ir11 Zr15 2.792409 1_545
Ir11 Zr17 2.806389 1_555
Ir11 Zr9 2.879115 1_545
Ir11 Zr1 2.883512 1_555
Ir11 Zr26 2.931289 1_555
Ir12 Zr10 2.711125 1_555
Ir12 Zr2 2.711125 1_445
Ir12 Zr23 2.912920 1_555
Ir12 Zr14 2.974748 1_555
Ir12 Zr16 2.974754 1_545
Ir12 Zr11 2.974994 1_555
Ir12 Zr6 2.974994 1_545
Ir12 Zr25 2.987013 1_555
Ir12 Zr27 2.987015 1_545
Ir13 Zr6 2.711125 1_545
Ir13 Zr8 2.711125 1_455
Ir13 Zr22 2.912920 1_555
Ir13 Zr12 2.974740 1_555
Ir13 Zr14 2.974748 1_555
Ir13 Zr0 2.974978 1_555
Ir13 Zr10 2.974994 1_555
Ir13 Zr29 2.987008 1_555
Ir13 Zr27 2.987016 1_555
Ir14 Zr11 2.711125 1_565
Ir14 Zr5 2.711125 1_455
Ir14 Zr21 2.912920 1_555
Ir14 Zr17 2.974748 1_455
Ir14 Zr16 2.974762 1_555
Ir14 Zr9 2.974978 1_555
Ir14 Zr2 2.974994 1_455
Ir14 Zr24 2.987015 1_555
Ir14 Zr25 2.987022 1_455
Ir15 Zr4 2.711125 1_445
Ir15 Zr0 2.711125 1_555
Ir15 Zr20 2.912920 1_555
Ir15 Zr12 2.974748 1_555
Ir15 Zr13 2.974762 1_455
Ir15 Zr8 2.974978 1_455
Ir15 Zr3 2.974994 1_555
Ir15 Zr29 2.987015 1_455
Ir15 Zr28 2.987022 1_555
Ir16 Zr1 2.711125 1_565
Ir16 Zr9 2.711125 1_655
Ir16 Zr19 2.912920 1_555
Ir16 Zr17 2.974740 1_555
Ir16 Zr15 2.974748 1_555
Ir16 Zr5 2.974978 1_555
Ir16 Zr7 2.974994 1_555
Ir16 Zr24 2.987008 1_555
Ir16 Zr26 2.987016 1_555
Ir17 Zr7 2.711125 1_545
Ir17 Zr3 2.711125 1_654
Ir17 Zr18 2.912920 1_555
Ir17 Zr15 2.974748 1_545
Ir17 Zr13 2.974754 1_554
Ir17 Zr4 2.974994 1_544
Ir17 Zr1 2.974994 1_555
Ir17 Zr28 2.987013 1_544
Ir17 Zr26 2.987015 1_555
