# generated using pymatgen
data_HfTi2AlN
_symmetry_space_group_name_H-M   'P 1'
_cell_length_a   5.61780866
_cell_length_b   5.61780887
_cell_length_c   8.72758495
_cell_angle_alpha   90.00000000
_cell_angle_beta   90.00000000
_cell_angle_gamma   147.67065297
_symmetry_Int_Tables_number   1
_chemical_formula_structural   HfTi2AlN
_chemical_formula_sum   'Hf2 Ti4 Al2 N2'
_cell_volume   147.30157381
_cell_formula_units_Z   2
loop_
 _symmetry_equiv_pos_site_id
 _symmetry_equiv_pos_as_xyz
  1  'x, y, z'
loop_
 _atom_site_type_symbol
 _atom_site_label
 _atom_site_symmetry_multiplicity
 _atom_site_fract_x
 _atom_site_fract_y
 _atom_site_fract_z
 _atom_site_occupancy
  Hf  Hf0  1  0.96101190  0.03898810  0.25000000  1
  Hf  Hf1  1  0.03898810  0.96101190  0.75000000  1
  Ti  Ti0  1  0.62662271  0.37337729  0.46726133  1
  Ti  Ti1  1  0.37337729  0.62662271  0.53273867  1
  Ti  Ti2  1  0.62662271  0.37337729  0.03273867  1
  Ti  Ti3  1  0.37337729  0.62662271  0.96726133  1
  Al  Al0  1  0.24426697  0.75573303  0.25000000  1
  Al  Al1  1  0.75573303  0.24426697  0.75000000  1
  N  N0  1  0.00000000  0.00000000  0.50000000  1
  N  N1  1  0.00000000  0.00000000  0.00000000  1
loop_
_geom_bond_atom_site_label_1
_geom_bond_atom_site_label_2
_geom_bond_distance
_geom_bond_site_symmetry_2
Hf0 N0 2.222092 1_655
Hf0 N1 2.222092 1_655
Hf1 N0 2.222092 1_565
Hf1 N1 2.222092 1_566
Al0 Ti0 2.766455 1_455
Al0 Ti2 2.766455 1_455
Al0 Ti0 2.766455 1_565
Al0 Ti2 2.766455 1_565
Al0 Hf0 2.813704 1_565
Al0 Hf0 2.813704 1_455
Al0 Ti1 2.833799 1_555
Al0 Ti3 2.833799 1_554
Al0 Hf0 3.056725 1_465
Al1 Ti3 2.766455 1_655
Al1 Ti1 2.766455 1_655
Al1 Ti3 2.766455 1_545
Al1 Ti1 2.766455 1_545
Al1 Hf1 2.813704 1_545
Al1 Hf1 2.813704 1_655
Al1 Ti2 2.833799 1_556
Al1 Ti0 2.833799 1_555
Al1 Hf1 3.056725 1_645
N0 Ti0 2.096394 1_555
N0 Ti1 2.096394 1_445
N0 Ti1 2.096394 1_555
N0 Ti0 2.096394 1_445
N1 Ti2 2.096394 1_555
N1 Ti3 2.096394 1_444
N1 Ti3 2.096394 1_554
N1 Ti2 2.096394 1_445
