# generated using pymatgen
data_PdPt5(PbS)4
_symmetry_space_group_name_H-M   'P 1'
_cell_length_a   7.30798871
_cell_length_b   7.40095456
_cell_length_c   7.30798967
_cell_angle_alpha   109.41265657
_cell_angle_beta   108.94029426
_cell_angle_gamma   109.54600727
_symmetry_Int_Tables_number   1
_chemical_formula_structural   PdPt5(PbS)4
_chemical_formula_sum   'Pd1 Pt5 Pb4 S4'
_cell_volume   306.18218565
_cell_formula_units_Z   1
loop_
 _symmetry_equiv_pos_site_id
 _symmetry_equiv_pos_as_xyz
  1  'x, y, z'
loop_
 _atom_site_type_symbol
 _atom_site_label
 _atom_site_symmetry_multiplicity
 _atom_site_fract_x
 _atom_site_fract_y
 _atom_site_fract_z
 _atom_site_occupancy
  Pd  Pd0  1  0.28113328  0.25000000  0.53113328  1
  Pt  Pt0  1  0.96700197  0.20790196  0.74078259  1
  Pt  Pt1  1  0.75224860  0.96287418  0.21519458  1
  Pt  Pt2  1  0.21494013  0.75000000  0.96494013  1
  Pt  Pt3  1  0.53288063  0.29209804  0.25909901  1
  Pt  Pt4  1  0.25232041  0.53712582  0.28937342  1
  Pb  Pb0  1  0.50345745  0.50086548  0.99949907  1
  Pb  Pb1  1  0.49863359  0.99913452  0.50259197  1
  Pb  Pb2  1  0.99253662  0.99194130  0.98828714  1
  Pb  Pb3  1  0.99634584  0.50805870  0.50059532  1
  S  S0  1  0.50330642  0.00905310  0.96796358  1
  S  S1  1  0.54548173  0.55269514  0.55350001  1
  S  S2  1  0.00080486  0.94730486  0.49278558  1
  S  S3  1  0.95891048  0.49094690  0.99425331  1
loop_
_geom_bond_atom_site_label_1
_geom_bond_atom_site_label_2
_geom_bond_distance
_geom_bond_site_symmetry_2
Pd0 S2 2.330913 1_545
Pd0 S1 2.330916 1_555
Pt0 S2 2.313290 1_645
Pt0 S3 2.323257 1_555
Pt1 S2 2.308989 1_655
Pt1 S0 2.320268 1_564
Pt2 S0 2.314183 1_565
Pt2 S3 2.314183 1_455
Pt3 S1 2.313291 1_555
Pt3 S0 2.323252 1_554
Pt4 S1 2.308998 1_555
Pt4 S3 2.320264 1_454
Pb0 Pt1 2.806936 1_556
Pb0 Pt3 2.817570 1_556
Pb0 Pd0 2.819500 1_555
Pb0 Pt4 3.225452 1_556
Pb0 Pt0 3.228136 1_455
Pb0 Pt2 3.236421 1_555
Pb1 Pt4 2.806935 1_555
Pb1 Pt0 2.817576 1_565
Pb1 Pd0 2.819500 1_565
Pb1 Pt1 3.225458 1_555
Pb1 Pt3 3.228142 1_565
Pb1 Pt2 3.236421 1_554
Pb2 Pt1 2.784656 1_556
Pb2 Pt0 2.786261 1_565
Pb2 Pt2 2.793083 1_655
Pb2 Pt3 3.252604 1_666
Pb2 S1 3.259744 1_555
Pb2 Pd0 3.266568 1_666
Pb2 Pt4 3.314666 1_666
Pb3 Pt4 2.784662 1_655
Pb3 Pt3 2.786261 1_555
Pb3 Pt2 2.793084 1_655
Pb3 Pt0 3.252604 1_555
Pb3 S2 3.259746 1_655
Pb3 Pd0 3.266567 1_655
Pb3 Pt1 3.314666 1_545
