# generated using pymatgen
data_LiZrNi3Ir
_symmetry_space_group_name_H-M   'P 1'
_cell_length_a   4.94804151
_cell_length_b   4.94804114
_cell_length_c   4.94804142
_cell_angle_alpha   57.62706967
_cell_angle_beta   57.62707152
_cell_angle_gamma   57.62706834
_symmetry_Int_Tables_number   1
_chemical_formula_structural   LiZrNi3Ir
_chemical_formula_sum   'Li1 Zr1 Ni3 Ir1'
_cell_volume   80.98937925
_cell_formula_units_Z   1
loop_
 _symmetry_equiv_pos_site_id
 _symmetry_equiv_pos_as_xyz
  1  'x, y, z'
loop_
 _atom_site_type_symbol
 _atom_site_label
 _atom_site_symmetry_multiplicity
 _atom_site_fract_x
 _atom_site_fract_y
 _atom_site_fract_z
 _atom_site_occupancy
  Li  Li0  1  0.50371482  0.50371482  0.50371482  1
  Zr  Zr0  1  0.75045381  0.75045381  0.75045381  1
  Ni  Ni0  1  0.62241729  0.12406144  0.12406144  1
  Ni  Ni1  1  0.12406144  0.62241729  0.12406144  1
  Ni  Ni2  1  0.12406144  0.12406144  0.62241729  1
  Ir  Ir0  1  0.12529220  0.12529220  0.12529220  1
loop_
_geom_bond_atom_site_label_1
_geom_bond_atom_site_label_2
_geom_bond_distance
_geom_bond_site_symmetry_2
Li0 Ni2 2.805360 1_565
Li0 Ni0 2.805360 1_565
Li0 Ni0 2.805360 1_556
Li0 Ni2 2.805360 1_655
Li0 Ni1 2.805360 1_556
Li0 Ni1 2.805360 1_655
Li0 Zr0 2.953530 1_545
Li0 Zr0 2.953530 1_554
Li0 Zr0 2.953530 1_455
Li0 Ni0 2.969630 1_555
Li0 Ni2 2.969630 1_555
Li0 Ni1 2.969630 1_555
Li0 Zr0 3.043033 1_555
Ni0 Ni1 2.376919 1_555
Ni0 Ni2 2.376920 1_555
Ni0 Ni1 2.392603 1_645
Ni0 Ni2 2.392603 1_654
Ni0 Zr0 2.852731 1_554
Ni0 Zr0 2.852731 1_545
Ni0 Zr0 2.896113 1_544
Ni1 Ni2 2.376919 1_555
Ni1 Ni2 2.392603 1_564
Ni1 Zr0 2.852731 1_455
Ni1 Zr0 2.852731 1_554
Ni1 Zr0 2.896113 1_454
Ni2 Zr0 2.852731 1_455
Ni2 Zr0 2.852731 1_545
Ni2 Zr0 2.896113 1_445
Ir0 Ni1 2.453289 1_555
Ir0 Ni2 2.453289 1_555
Ir0 Ni0 2.453289 1_555
Ir0 Ni1 2.494781 1_545
Ir0 Ni2 2.494782 1_554
Ir0 Ni0 2.494782 1_455
Ir0 Zr0 2.800858 1_454
Ir0 Zr0 2.800858 1_544
Ir0 Zr0 2.800858 1_445
Ir0 Li0 2.809273 1_545
Ir0 Li0 2.809273 1_455
Ir0 Li0 2.809273 1_554
