# generated using pymatgen
data_Nb3H3WSe8
_symmetry_space_group_name_H-M   'P 1'
_cell_length_a   3.42028563
_cell_length_b   3.42028606
_cell_length_c   27.66417274
_cell_angle_alpha   90.00000000
_cell_angle_beta   90.00000000
_cell_angle_gamma   119.99998619
_symmetry_Int_Tables_number   1
_chemical_formula_structural   Nb3H3WSe8
_chemical_formula_sum   'Nb3 H3 W1 Se8'
_cell_volume   280.26778774
_cell_formula_units_Z   1
loop_
 _symmetry_equiv_pos_site_id
 _symmetry_equiv_pos_as_xyz
  1  'x, y, z'
loop_
 _atom_site_type_symbol
 _atom_site_label
 _atom_site_symmetry_multiplicity
 _atom_site_fract_x
 _atom_site_fract_y
 _atom_site_fract_z
 _atom_site_occupancy
  Nb  Nb0  1  0.66666700  0.33333300  0.50000000  1
  Nb  Nb1  1  0.33333300  0.66666700  0.25020425  1
  Nb  Nb2  1  0.33333300  0.66666700  0.74979575  1
  H  H0  1  0.00000000  0.00000000  0.50000000  1
  H  H1  1  0.00000000  0.00000000  0.25031941  1
  H  H2  1  0.00000000  0.00000000  0.74968059  1
  W  W0  1  0.66666700  0.33333300  0.00000000  1
  Se  Se0  1  0.66666700  0.33333300  0.31417239  1
  Se  Se1  1  0.66666700  0.33333300  0.81373470  1
  Se  Se2  1  0.33333300  0.66666700  0.94111683  1
  Se  Se3  1  0.33333300  0.66666700  0.43615543  1
  Se  Se4  1  0.33333300  0.66666700  0.05888317  1
  Se  Se5  1  0.33333300  0.66666700  0.56384457  1
  Se  Se6  1  0.66666700  0.33333300  0.18626530  1
  Se  Se7  1  0.66666700  0.33333300  0.68582761  1
loop_
_geom_bond_atom_site_label_1
_geom_bond_atom_site_label_2
_geom_bond_distance
_geom_bond_site_symmetry_2
Nb0 Se5 2.649327 1_655
Nb0 Se3 2.649327 1_655
Nb0 Se5 2.649327 1_545
Nb0 Se3 2.649327 1_545
Nb0 Se5 2.649331 1_555
Nb0 Se3 2.649331 1_555
Nb1 Se6 2.651068 1_455
Nb1 Se6 2.651068 1_565
Nb1 Se6 2.651072 1_555
Nb1 Se0 2.651607 1_455
Nb1 Se0 2.651607 1_565
Nb1 Se0 2.651611 1_555
Nb2 Se1 2.651068 1_455
Nb2 Se1 2.651068 1_565
Nb2 Se1 2.651072 1_555
Nb2 Se7 2.651607 1_455
Nb2 Se7 2.651607 1_565
Nb2 Se7 2.651611 1_555
H0 Nb0 1.974701 1_455
H0 Nb0 1.974704 1_555
H0 Nb0 1.974704 1_445
H1 Nb1 1.974703 1_545
H1 Nb1 1.974707 1_445
H1 Nb1 1.974707 1_555
H2 Nb2 1.974703 1_545
H2 Nb2 1.974707 1_445
H2 Nb2 1.974707 1_555
Se2 W0 2.559870 1_456
Se2 W0 2.559870 1_566
Se2 W0 2.559875 1_556
Se4 W0 2.559870 1_455
Se4 W0 2.559870 1_565
Se4 W0 2.559875 1_555
