# generated using pymatgen
data_GaAg(SeO4)2
_symmetry_space_group_name_H-M   'P 1'
_cell_length_a   4.89446323
_cell_length_b   4.89446272
_cell_length_c   7.25757739
_cell_angle_alpha   88.19197454
_cell_angle_beta   88.19197898
_cell_angle_gamma   67.21079381
_symmetry_Int_Tables_number   1
_chemical_formula_structural   GaAg(SeO4)2
_chemical_formula_sum   'Ga1 Ag1 Se2 O8'
_cell_volume   160.17353867
_cell_formula_units_Z   1
loop_
 _symmetry_equiv_pos_site_id
 _symmetry_equiv_pos_as_xyz
  1  'x, y, z'
loop_
 _atom_site_type_symbol
 _atom_site_label
 _atom_site_symmetry_multiplicity
 _atom_site_fract_x
 _atom_site_fract_y
 _atom_site_fract_z
 _atom_site_occupancy
  Ga  Ga0  1  0.00000000  0.00000000  0.00000000  1
  Ag  Ag0  1  0.00000000  0.00000000  0.50000000  1
  Se  Se0  1  0.36401686  0.36401686  0.78232935  1
  Se  Se1  1  0.63598314  0.63598314  0.21767065  1
  O  O0  1  0.28517467  0.28517467  0.58109851  1
  O  O1  1  0.71482533  0.71482533  0.41890149  1
  O  O2  1  0.73333607  0.23650726  0.80067341  1
  O  O3  1  0.26666393  0.76349274  0.19932659  1
  O  O4  1  0.76349274  0.26666393  0.19932659  1
  O  O5  1  0.23650726  0.73333607  0.80067341  1
  O  O6  1  0.23601881  0.23601881  0.96531743  1
  O  O7  1  0.76398119  0.76398119  0.03468257  1
loop_
_geom_bond_atom_site_label_1
_geom_bond_atom_site_label_2
_geom_bond_distance
_geom_bond_site_symmetry_2
Ga0 O6 1.931152 1_554
Ga0 O7 1.931152 1_445
Ga0 O3 1.994806 1_545
Ga0 O2 1.994806 1_454
Ga0 O4 1.994806 1_455
Ga0 O5 1.994806 1_544
Ag0 O0 2.419860 1_555
Ag0 O1 2.419860 1_445
Ag0 O5 2.571876 1_545
Ag0 O4 2.571876 1_455
Ag0 O2 2.571876 1_455
Ag0 O3 2.571876 1_545
O0 Se0 1.617781 1_555
O1 Se1 1.617781 1_555
O2 Se0 1.676517 1_555
O3 Se1 1.676517 1_555
O4 Se1 1.676517 1_555
O5 Se0 1.676517 1_555
O6 Se0 1.657626 1_555
O7 Se1 1.657626 1_555
