# generated using pymatgen
data_RbSc3S5
_symmetry_space_group_name_H-M   'P 1'
_cell_length_a   3.75473662
_cell_length_b   10.48416955
_cell_length_c   11.50312144
_cell_angle_alpha   72.19776689
_cell_angle_beta   80.60702512
_cell_angle_gamma   79.68458240
_symmetry_Int_Tables_number   1
_chemical_formula_structural   RbSc3S5
_chemical_formula_sum   'Rb2 Sc6 S10'
_cell_volume   421.32001719
_cell_formula_units_Z   2
loop_
 _symmetry_equiv_pos_site_id
 _symmetry_equiv_pos_as_xyz
  1  'x, y, z'
loop_
 _atom_site_type_symbol
 _atom_site_label
 _atom_site_symmetry_multiplicity
 _atom_site_fract_x
 _atom_site_fract_y
 _atom_site_fract_z
 _atom_site_occupancy
  Rb  Rb0  1  0.74775642  0.32995676  0.17453040  1
  Rb  Rb1  1  0.25224358  0.67004324  0.82546960  1
  Sc  Sc0  1  0.50000000  0.00000000  0.00000000  1
  Sc  Sc1  1  0.50000000  0.50000000  0.50000000  1
  Sc  Sc2  1  0.83371163  0.93946464  0.39311110  1
  Sc  Sc3  1  0.16628837  0.06053536  0.60688890  1
  Sc  Sc4  1  0.02897857  0.72237625  0.21966560  1
  Sc  Sc5  1  0.97102143  0.27762375  0.78033440  1
  S  S0  1  0.92818960  0.98840510  0.15521670  1
  S  S1  1  0.07181040  0.01159490  0.84478330  1
  S  S2  1  0.60195249  0.72875968  0.06733435  1
  S  S3  1  0.39804751  0.27124032  0.93266565  1
  S  S4  1  0.42964220  0.75796070  0.38275389  1
  S  S5  1  0.57035780  0.24203930  0.61724611  1
  S  S6  1  0.25728568  0.10739168  0.37803696  1
  S  S7  1  0.74271432  0.89260832  0.62196304  1
  S  S8  1  0.08561715  0.48066407  0.34810062  1
  S  S9  1  0.91438285  0.51933593  0.65189938  1
loop_
_geom_bond_atom_site_label_1
_geom_bond_atom_site_label_2
_geom_bond_distance
_geom_bond_site_symmetry_2
Rb0 S6 3.332874 1_655
Rb0 S6 3.332875 1_555
Rb0 S8 3.400855 1_655
Rb0 S8 3.400857 1_555
Rb0 S3 3.517515 1_554
Rb0 S3 3.517518 1_654
Rb0 S0 3.591598 1_545
Rb1 S7 3.332874 1_455
Rb1 S7 3.332875 1_555
Rb1 S9 3.400855 1_455
Rb1 S9 3.400857 1_555
Rb1 S2 3.517515 1_556
Rb1 S2 3.517518 1_456
Rb1 S1 3.591598 1_565
S0 Sc0 2.553780 1_665
S0 Sc0 2.553782 1_565
S0 Sc2 2.601433 1_555
S0 Sc4 2.630797 1_655
S1 Sc0 2.553780 1_456
S1 Sc0 2.553782 1_556
S1 Sc3 2.601433 1_555
S1 Sc5 2.630797 1_455
S2 Sc4 2.540219 1_655
S2 Sc4 2.540219 1_555
S2 Sc0 2.682045 1_565
S3 Sc5 2.540219 1_455
S3 Sc5 2.540219 1_555
S3 Sc0 2.682045 1_556
S4 Sc1 2.614036 1_555
S4 Sc2 2.677441 1_555
S4 Sc2 2.677441 1_455
S4 Sc4 2.733497 1_555
S4 Sc4 2.733498 1_655
S5 Sc1 2.614036 1_555
S5 Sc3 2.677441 1_555
S5 Sc3 2.677441 1_655
S5 Sc5 2.733497 1_555
S5 Sc5 2.733498 1_455
S6 Sc3 2.502787 1_555
S6 Sc2 2.526892 1_545
S6 Sc2 2.526895 1_445
S7 Sc2 2.502787 1_555
S7 Sc3 2.526892 1_565
S7 Sc3 2.526895 1_665
S8 Sc4 2.504020 1_555
S8 Sc1 2.594603 1_455
S8 Sc1 2.594606 1_555
S9 Sc5 2.504020 1_555
S9 Sc1 2.594603 1_655
S9 Sc1 2.594606 1_555
