# generated using pymatgen
data_MoPd3Pt5
_symmetry_space_group_name_H-M   'P 1'
_cell_length_a   6.21809727
_cell_length_b   6.21809815
_cell_length_c   6.22101767
_cell_angle_alpha   95.68041679
_cell_angle_beta   95.68044432
_cell_angle_gamma   143.31648407
_symmetry_Int_Tables_number   1
_chemical_formula_structural   MoPd3Pt5
_chemical_formula_sum   'Mo1 Pd3 Pt5'
_cell_volume   136.40054665
_cell_formula_units_Z   1
loop_
 _symmetry_equiv_pos_site_id
 _symmetry_equiv_pos_as_xyz
  1  'x, y, z'
loop_
 _atom_site_type_symbol
 _atom_site_label
 _atom_site_symmetry_multiplicity
 _atom_site_fract_x
 _atom_site_fract_y
 _atom_site_fract_z
 _atom_site_occupancy
  Mo  Mo0  1  0.00439660  0.00439660  0.00879320  1
  Pd  Pd0  1  0.33673223  0.33673223  0.67346447  1
  Pd  Pd1  1  0.67090788  0.00041426  0.67132013  1
  Pd  Pd2  1  0.00041326  0.67090688  0.67132013  1
  Pt  Pt0  1  0.65876212  0.33802116  0.99678328  1
  Pt  Pt1  1  0.33802216  0.65876312  0.99678428  1
  Pt  Pt2  1  0.32942033  0.99896854  0.32838887  1
  Pt  Pt3  1  0.99896854  0.32942033  0.32838887  1
  Pt  Pt4  1  0.66237789  0.66237789  0.32475477  1
loop_
_geom_bond_atom_site_label_1
_geom_bond_atom_site_label_2
_geom_bond_distance
_geom_bond_site_symmetry_2
Mo0 Pt4 2.703733 1_445
Mo0 Pt4 2.703735 1_555
Mo0 Pt2 2.714023 1_545
Mo0 Pt3 2.714024 1_455
Mo0 Pt1 2.723523 1_444
Mo0 Pt0 2.723525 1_554
Mo0 Pt0 2.723526 1_444
Mo0 Pt1 2.723527 1_554
Mo0 Pd0 2.783889 1_444
Mo0 Pd0 2.783891 1_554
Mo0 Pd1 2.784568 1_454
Mo0 Pd2 2.784569 1_544
Pd0 Pt0 2.688699 1_555
Pd0 Pt1 2.688704 1_555
Pd0 Pd1 2.758851 1_455
Pd0 Pd2 2.758853 1_655
Pd0 Pd2 2.758854 1_545
Pd0 Pd1 2.758857 1_565
Pd0 Pt3 2.820728 1_455
Pd0 Pt2 2.820729 1_545
Pd0 Pt4 2.840637 1_445
Pd0 Pt4 2.840641 1_555
Pd1 Pt1 2.743245 1_655
Pd1 Pt1 2.743250 1_545
Pd1 Pd2 2.807002 1_655
Pd1 Pd2 2.807007 1_545
Pd1 Pt3 2.816004 1_555
Pd1 Pt3 2.816009 1_445
Pd1 Pt0 2.820507 1_555
Pd1 Pt4 2.823245 1_545
Pd1 Pt2 2.851150 1_545
Pd2 Pt0 2.743243 1_565
Pd2 Pt0 2.743244 1_455
Pd2 Pt2 2.816006 1_445
Pd2 Pt2 2.816007 1_555
Pd2 Pt1 2.820510 1_555
Pd2 Pt4 2.823244 1_455
Pd2 Pt3 2.851151 1_455
Pt0 Pt4 2.708280 1_556
Pt0 Pt2 2.768887 1_656
Pt0 Pt2 2.768888 1_546
Pt0 Pt3 2.841301 1_556
Pt0 Pt1 2.882093 1_545
Pt0 Pt1 2.882095 1_655
Pt1 Pt4 2.708275 1_556
Pt1 Pt3 2.768881 1_566
Pt1 Pt3 2.768885 1_456
Pt1 Pt2 2.841298 1_556
Pt2 Pt4 2.762843 1_455
Pt2 Pt4 2.762846 1_565
Pt2 Pt3 2.799014 1_565
Pt2 Pt3 2.799014 1_455
Pt3 Pt4 2.762843 1_545
Pt3 Pt4 2.762846 1_655
