# generated using pymatgen
data_Li3Y3HgAs2
_symmetry_space_group_name_H-M   'P 1'
_cell_length_a   7.10117817
_cell_length_b   7.10117791
_cell_length_c   4.21746737
_cell_angle_alpha   90.00000000
_cell_angle_beta   90.00000000
_cell_angle_gamma   120.00000119
_symmetry_Int_Tables_number   1
_chemical_formula_structural   Li3Y3HgAs2
_chemical_formula_sum   'Li3 Y3 Hg1 As2'
_cell_volume   184.18029334
_cell_formula_units_Z   1
loop_
 _symmetry_equiv_pos_site_id
 _symmetry_equiv_pos_as_xyz
  1  'x, y, z'
loop_
 _atom_site_type_symbol
 _atom_site_label
 _atom_site_symmetry_multiplicity
 _atom_site_fract_x
 _atom_site_fract_y
 _atom_site_fract_z
 _atom_site_occupancy
  Li  Li0  1  0.24888534  0.00000000  0.50000000  1
  Li  Li1  1  0.75111466  0.75111466  0.50000000  1
  Li  Li2  1  0.00000000  0.24888534  0.50000000  1
  Y  Y0  1  1.00000000  0.57880267  0.00000000  1
  Y  Y1  1  0.57880267  0.00000000  0.00000000  1
  Y  Y2  1  0.42119733  0.42119733  0.00000000  1
  Hg  Hg0  1  0.00000000  0.00000000  0.00000000  1
  As  As0  1  0.33333300  0.66666700  0.50000000  1
  As  As1  1  0.66666700  0.33333300  0.50000000  1
loop_
_geom_bond_atom_site_label_1
_geom_bond_atom_site_label_2
_geom_bond_distance
_geom_bond_site_symmetry_2
Hg0 Li2 2.751434 1_554
Hg0 Li2 2.751434 1_555
Hg0 Li1 2.751434 1_444
Hg0 Li1 2.751434 1_445
Hg0 Li0 2.751434 1_555
Hg0 Li0 2.751434 1_554
Hg0 Y2 2.990997 1_555
Hg0 Y0 2.990997 1_445
Hg0 Y1 2.990997 1_455
As0 Li0 2.716992 1_565
As0 Li2 2.716996 1_555
As0 Li1 2.716999 1_555
As0 Y0 2.993679 1_456
As0 Y0 2.993679 1_455
As0 Y1 2.993681 1_565
As0 Y1 2.993681 1_566
As0 Y2 2.993684 1_555
As0 Y2 2.993684 1_556
As1 Li2 2.716992 1_655
As1 Li0 2.716996 1_555
As1 Li1 2.716999 1_555
As1 Y1 2.993679 1_556
As1 Y1 2.993679 1_555
As1 Y0 2.993681 1_556
As1 Y0 2.993681 1_555
As1 Y2 2.993684 1_555
As1 Y2 2.993684 1_556
