# generated using pymatgen
data_Ca6Ta4Al12Os7
_symmetry_space_group_name_H-M   'P 1'
_cell_length_a   9.02393891
_cell_length_b   9.02392703
_cell_length_c   9.02391193
_cell_angle_alpha   60.00011907
_cell_angle_beta   59.99988118
_cell_angle_gamma   60.00018915
_symmetry_Int_Tables_number   1
_chemical_formula_structural   Ca6Ta4Al12Os7
_chemical_formula_sum   'Ca6 Ta4 Al12 Os7'
_cell_volume   519.60365026
_cell_formula_units_Z   1
loop_
 _symmetry_equiv_pos_site_id
 _symmetry_equiv_pos_as_xyz
  1  'x, y, z'
loop_
 _atom_site_type_symbol
 _atom_site_label
 _atom_site_symmetry_multiplicity
 _atom_site_fract_x
 _atom_site_fract_y
 _atom_site_fract_z
 _atom_site_occupancy
  Ca  Ca0  1  0.70676996  0.70676916  0.29323005  1
  Ca  Ca1  1  0.29323030  0.70676993  0.29323183  1
  Ca  Ca2  1  0.70676760  0.29323286  0.29323488  1
  Ca  Ca3  1  0.29323442  0.29323422  0.70676607  1
  Ca  Ca4  1  0.70676800  0.29323190  0.70676570  1
  Ca  Ca5  1  0.29323308  0.70676649  0.70676494  1
  Ta  Ta0  1  0.88002574  0.88000962  0.35993250  1
  Ta  Ta1  1  0.88002097  0.35993711  0.88001493  1
  Ta  Ta2  1  0.35993585  0.88001972  0.88002998  1
  Ta  Ta3  1  0.88001416  0.88002541  0.88004436  1
  Al  Al0  1  0.12008516  0.12008972  0.63973680  1
  Al  Al1  1  0.12008421  0.63973762  0.12009011  1
  Al  Al2  1  0.63973725  0.12008461  0.12008597  1
  Al  Al3  1  0.12008963  0.12008564  0.12008635  1
  Al  Al4  1  0.66925212  0.66925783  0.99223357  1
  Al  Al5  1  0.66925223  0.99223072  0.66925965  1
  Al  Al6  1  0.99223077  0.66925270  0.66925351  1
  Al  Al7  1  0.66925863  0.66925399  0.66925433  1
  Al  Al8  1  0.32850293  0.32849892  0.01449518  1
  Al  Al9  1  0.32850359  0.01449590  0.32849677  1
  Al  Al10  1  0.01449531  0.32850429  0.32850093  1
  Al  Al11  1  0.32849824  0.32850359  0.32850029  1
  Os  Os0  1  0.00000183  0.99999724  0.00000232  1
  Os  Os1  1  0.99490701  0.99490559  0.50508919  1
  Os  Os2  1  0.50510023  0.99490373  0.50509421  1
  Os  Os3  1  0.99490657  0.50510088  0.50508865  1
  Os  Os4  1  0.50509471  0.50509982  0.99490415  1
  Os  Os5  1  0.99490643  0.50509540  0.99490577  1
  Os  Os6  1  0.50509307  0.99490541  0.99490702  1
loop_
_geom_bond_atom_site_label_1
_geom_bond_atom_site_label_2
_geom_bond_distance
_geom_bond_site_symmetry_2
Ca0 Ta3 3.094560 1_554
Ca0 Ta0 3.094641 1_555
Ca0 Os5 3.238426 1_554
Ca0 Os3 3.238429 1_555
Ca0 Os2 3.238435 1_555
Ca0 Os6 3.238448 1_554
Ca0 Ca2 3.731710 1_555
Ca0 Ca5 3.731710 1_555
Ca0 Ca4 3.731726 1_555
Ca0 Ca1 3.731745 1_555
Ca1 Ta2 3.094658 1_554
Ca1 Ta0 3.094698 1_455
Ca1 Os3 3.238400 1_455
Ca1 Os1 3.238402 1_455
Ca1 Os4 3.238424 1_554
Ca1 Os6 3.238429 1_554
Ca1 Ca5 3.731683 1_555
Ca1 Ca3 3.731713 1_555
Ca1 Ca2 3.731743 1_555
Ca2 Ta1 3.094796 1_554
Ca2 Ta0 3.094846 1_545
Ca2 Os1 3.238427 1_545
Ca2 Os2 3.238428 1_545
Ca2 Os5 3.238453 1_554
Ca2 Os4 3.238475 1_554
Ca2 Ca4 3.731663 1_555
Ca2 Ca3 3.731677 1_555
Ca3 Ta1 3.094758 1_455
Ca3 Ta2 3.094772 1_545
Ca3 Os5 3.238449 1_455
Ca3 Os2 3.238459 1_545
Ca3 Os6 3.238459 1_545
Ca3 Os3 3.238485 1_455
Ca3 Ca5 3.731674 1_555
Ca3 Ca4 3.731690 1_555
Ca4 Ta1 3.094705 1_555
Ca4 Ta3 3.094742 1_545
Ca4 Os6 3.238454 1_545
Ca4 Os1 3.238460 1_545
Ca4 Os4 3.238481 1_555
Ca4 Os3 3.238488 1_555
Ca4 Ca5 3.731721 1_555
Ca5 Ta2 3.094811 1_555
Ca5 Ta3 3.094833 1_455
Ca5 Os5 3.238433 1_455
Ca5 Os4 3.238467 1_555
Ca5 Os1 3.238468 1_455
Ca5 Os2 3.238475 1_555
Al0 Os0 2.654433 1_546
Al0 Al10 2.816921 1_555
Al0 Al11 2.816921 1_555
Al0 Al9 2.816959 1_555
Al0 Os1 2.837182 1_445
Al0 Os3 2.837201 1_455
Al0 Os2 2.837225 1_545
Al0 Ta1 3.063620 1_455
Al0 Ta3 3.063684 1_445
Al0 Ta2 3.063750 1_545
Al0 Ca4 3.095108 1_455
Al0 Ca3 3.095144 1_555
Al0 Ca5 3.095155 1_545
Al1 Os0 2.654402 1_555
Al1 Al10 2.816894 1_555
Al1 Al11 2.816915 1_555
Al1 Al8 2.816963 1_555
Al1 Os3 2.837093 1_455
Al1 Os5 2.837141 1_454
Al1 Os4 2.837191 1_554
Al1 Ta0 3.063549 1_455
Al1 Ta3 3.063571 1_454
Al1 Ta2 3.063674 1_554
Al1 Ca0 3.095076 1_455
Al1 Ca1 3.095118 1_555
Al1 Ca5 3.095153 1_554
Al2 Os0 2.654436 1_645
Al2 Al9 2.816893 1_555
Al2 Al8 2.816920 1_555
Al2 Os6 2.837126 1_544
Al2 Os2 2.837164 1_545
Al2 Os4 2.837230 1_554
Al2 Ta3 3.063463 1_544
Al2 Ta1 3.063690 1_554
Al2 Ta0 3.063694 1_545
Al2 Ca0 3.095087 1_545
Al2 Ca4 3.095117 1_554
Al2 Ca2 3.095174 1_555
Al3 Os0 2.654398 1_545
Al3 Al9 2.816912 1_555
Al3 Al8 2.816918 1_555
Al3 Os1 2.837125 1_445
Al3 Os6 2.837140 1_544
Al3 Os5 2.837190 1_454
Al3 Ta2 3.063600 1_544
Al3 Ta0 3.063713 1_445
Al3 Ta1 3.063726 1_454
Al3 Ca1 3.095098 1_545
Al3 Ca3 3.095121 1_554
Al3 Ca2 3.095145 1_455
Al4 Os4 2.551930 1_555
Al4 Os6 2.551965 1_555
Al4 Os5 2.552017 1_555
Al4 Ta2 2.832903 1_555
Al4 Ta1 2.832998 1_555
Al4 Ta3 2.833006 1_555
Al4 Al5 2.914491 1_555
Al4 Al7 2.914524 1_555
Al4 Al6 2.914536 1_555
Al4 Ca1 3.091970 1_556
Al4 Ca0 3.091984 1_556
Al4 Ca2 3.092006 1_556
Al5 Os2 2.551935 1_555
Al5 Os6 2.551954 1_555
Al5 Os1 2.552020 1_555
Al5 Ta2 2.832926 1_555
Al5 Ta0 2.833048 1_555
Al5 Ta3 2.833093 1_555
Al5 Al7 2.914514 1_555
Al5 Al6 2.914543 1_555
Al5 Ca3 3.091980 1_565
Al5 Ca4 3.091989 1_565
Al5 Ca2 3.092003 1_565
Al6 Os3 2.551910 1_555
Al6 Os5 2.552001 1_555
Al6 Os1 2.552012 1_555
Al6 Ta1 2.832917 1_555
Al6 Ta0 2.832939 1_555
Al6 Ta3 2.833178 1_555
Al6 Al7 2.914471 1_555
Al6 Ca1 3.091969 1_655
Al6 Ca3 3.091985 1_655
Al6 Ca5 3.092021 1_655
Al7 Os3 2.551958 1_555
Al7 Os4 2.551959 1_555
Al7 Os2 2.551974 1_555
Al7 Ta0 2.832918 1_555
Al7 Ta1 2.832920 1_555
Al7 Ta2 2.833011 1_555
Al7 Ca0 3.091979 1_555
Al7 Ca4 3.091987 1_555
Al7 Ca5 3.092013 1_555
Al8 Os6 2.661963 1_544
Al8 Os5 2.661995 1_454
Al8 Os4 2.662030 1_554
Al8 Al9 2.833537 1_555
Al8 Ca3 3.127714 1_554
Al8 Ca4 3.127731 1_554
Al8 Ca5 3.127756 1_554
Al9 Os6 2.661929 1_544
Al9 Os1 2.661989 1_445
Al9 Os2 2.662038 1_545
Al9 Ca1 3.127716 1_545
Al9 Ca0 3.127742 1_545
Al9 Ca5 3.127752 1_545
Al10 Os3 2.661973 1_455
Al10 Os5 2.661974 1_454
Al10 Os1 2.662002 1_445
Al10 Al3 2.816955 1_555
Al10 Al11 2.833537 1_555
Al10 Al8 2.833568 1_555
Al10 Al9 2.833598 1_555
Al10 Ca4 3.127718 1_455
Al10 Ca0 3.127730 1_455
Al10 Ca2 3.127732 1_455
Al11 Os3 2.661963 1_455
Al11 Os4 2.662000 1_554
Al11 Os2 2.662042 1_545
Al11 Al2 2.816960 1_555
Al11 Al8 2.833554 1_555
Al11 Al9 2.833574 1_555
Al11 Ca3 3.127744 1_555
Al11 Ca1 3.127745 1_555
Al11 Ca2 3.127776 1_555
Os0 Ta3 2.651872 1_454
Os0 Ta0 2.651962 1_455
Os0 Ta2 2.652000 1_554
Os0 Ta1 2.652046 1_464
Os1 Ta0 2.767011 1_555
Os1 Ta3 2.767171 1_555
Os2 Ta0 2.766957 1_555
Os2 Ta2 2.767023 1_555
Os3 Ta0 2.766838 1_555
Os3 Ta1 2.766955 1_555
Os4 Ta2 2.766920 1_555
Os4 Ta1 2.766965 1_555
Os5 Ta3 2.767000 1_555
Os5 Ta1 2.767016 1_555
Os6 Ta2 2.766911 1_555
Os6 Ta3 2.766934 1_555
