# generated using pymatgen
data_CsSiBiSe4
_symmetry_space_group_name_H-M   'P 1'
_cell_length_a   7.21533737
_cell_length_b   6.81135709
_cell_length_c   19.51819670
_cell_angle_alpha   71.50913538
_cell_angle_beta   90.00000000
_cell_angle_gamma   90.00000000
_symmetry_Int_Tables_number   1
_chemical_formula_structural   CsSiBiSe4
_chemical_formula_sum   'Cs4 Si4 Bi4 Se16'
_cell_volume   909.72415946
_cell_formula_units_Z   4
loop_
 _symmetry_equiv_pos_site_id
 _symmetry_equiv_pos_as_xyz
  1  'x, y, z'
loop_
 _atom_site_type_symbol
 _atom_site_label
 _atom_site_symmetry_multiplicity
 _atom_site_fract_x
 _atom_site_fract_y
 _atom_site_fract_z
 _atom_site_occupancy
  Cs  Cs0  1  0.75309744  0.72870703  0.03237671  1
  Cs  Cs1  1  0.24690256  0.27129297  0.96762329  1
  Cs  Cs2  1  0.74690256  0.72870703  0.53237671  1
  Cs  Cs3  1  0.25309744  0.27129297  0.46762329  1
  Si  Si0  1  0.72166683  0.20149985  0.83644457  1
  Si  Si1  1  0.77833317  0.20149985  0.33644457  1
  Si  Si2  1  0.22166683  0.79850015  0.66355543  1
  Si  Si3  1  0.27833317  0.79850015  0.16355543  1
  Bi  Bi0  1  0.19703254  0.24041736  0.22312350  1
  Bi  Bi1  1  0.69703254  0.75958264  0.27687650  1
  Bi  Bi2  1  0.80296746  0.75958264  0.77687650  1
  Bi  Bi3  1  0.30296746  0.24041736  0.72312350  1
  Se  Se0  1  0.51578131  0.02574893  0.14055803  1
  Se  Se1  1  0.75828459  0.40606893  0.40775582  1
  Se  Se2  1  0.98388115  0.00642859  0.84974210  1
  Se  Se3  1  0.82798873  0.40712181  0.21942615  1
  Se  Se4  1  0.98421869  0.02574893  0.64055803  1
  Se  Se5  1  0.25828459  0.59393107  0.09224418  1
  Se  Se6  1  0.74171541  0.40606893  0.90775582  1
  Se  Se7  1  0.32798873  0.59287819  0.28057385  1
  Se  Se8  1  0.24171541  0.59393107  0.59224418  1
  Se  Se9  1  0.48421869  0.97425107  0.85944197  1
  Se  Se10  1  0.67201127  0.40712181  0.71942615  1
  Se  Se11  1  0.17201127  0.59287819  0.78057385  1
  Se  Se12  1  0.01578131  0.97425107  0.35944197  1
  Se  Se13  1  0.01611885  0.99357141  0.15025790  1
  Se  Se14  1  0.51611885  0.00642859  0.34974210  1
  Se  Se15  1  0.48388115  0.99357141  0.65025790  1
loop_
_geom_bond_atom_site_label_1
_geom_bond_atom_site_label_2
_geom_bond_distance
_geom_bond_site_symmetry_2
Cs0 Se3 3.653257 1_555
Cs0 Se6 3.760755 1_554
Cs0 Se0 3.767477 1_565
Cs0 Se5 3.778141 1_555
Cs0 Se9 3.791217 1_554
Cs0 Se2 3.844610 1_564
Cs0 Se13 3.844877 1_655
Cs0 Se5 3.848954 1_655
Cs1 Se11 3.653257 1_555
Cs1 Se5 3.760755 1_556
Cs1 Se9 3.767477 1_545
Cs1 Se6 3.778141 1_555
Cs1 Se0 3.791217 1_556
Cs1 Se13 3.844610 1_546
Cs1 Se2 3.844877 1_455
Cs1 Se6 3.848954 1_455
Cs2 Se10 3.653257 1_555
Cs2 Se1 3.760755 1_555
Cs2 Se4 3.767477 1_565
Cs2 Se8 3.778141 1_655
Cs2 Se12 3.791217 1_655
Cs2 Se14 3.844610 1_565
Cs2 Se15 3.844877 1_555
Cs2 Se8 3.848954 1_555
Cs3 Se7 3.653257 1_555
Cs3 Se8 3.760755 1_555
Cs3 Se12 3.767477 1_545
Cs3 Se1 3.778141 1_455
Cs3 Se4 3.791217 1_455
Cs3 Se15 3.844610 1_545
Cs3 Se14 3.844877 1_555
Cs3 Se1 3.848954 1_555
Bi0 Se13 2.840836 1_545
Bi0 Se3 2.886681 1_455
Bi0 Se5 2.935523 1_555
Bi0 Se12 3.002778 1_545
Bi0 Se7 3.101821 1_555
Bi0 Se14 3.383789 1_555
Bi0 Se0 3.393980 1_555
Bi1 Se14 2.840836 1_565
Bi1 Se7 2.886681 1_555
Bi1 Se1 2.935523 1_555
Bi1 Se0 3.002778 1_565
Bi1 Se3 3.101821 1_555
Bi1 Se13 3.383789 1_655
Bi1 Se12 3.393980 1_655
Bi2 Se2 2.840836 1_565
Bi2 Se11 2.886681 1_655
Bi2 Se6 2.935523 1_555
Bi2 Se4 3.002778 1_565
Bi2 Se10 3.101821 1_555
Bi2 Se15 3.383789 1_555
Bi2 Se9 3.393980 1_555
Bi3 Se15 2.840836 1_545
Bi3 Se10 2.886681 1_555
Bi3 Se8 2.935523 1_555
Bi3 Se9 3.002778 1_545
Bi3 Se11 3.101821 1_555
Bi3 Se2 3.383789 1_455
Bi3 Se4 3.393980 1_455
Se0 Si3 2.256540 1_545
Se1 Si1 2.264939 1_555
Se2 Si0 2.278946 1_555
Se3 Si1 2.297277 1_555
Se4 Si2 2.256540 1_645
Se5 Si3 2.264939 1_555
Se6 Si0 2.264939 1_555
Se7 Si3 2.297277 1_555
Se8 Si2 2.264939 1_555
Se9 Si0 2.256540 1_565
Se10 Si0 2.297277 1_555
Se11 Si2 2.297277 1_555
Se12 Si1 2.256540 1_465
Se13 Si3 2.278946 1_555
Se14 Si1 2.278946 1_555
Se15 Si2 2.278946 1_555
