# generated using pymatgen
data_Ca3(CoH6)2
_symmetry_space_group_name_H-M   'P 1'
_cell_length_a   4.75702960
_cell_length_b   4.75703005
_cell_length_c   7.88831895
_cell_angle_alpha   90.00000000
_cell_angle_beta   90.00000000
_cell_angle_gamma   120.00000368
_symmetry_Int_Tables_number   1
_chemical_formula_structural   Ca3(CoH6)2
_chemical_formula_sum   'Ca3 Co2 H12'
_cell_volume   154.59193261
_cell_formula_units_Z   1
loop_
 _symmetry_equiv_pos_site_id
 _symmetry_equiv_pos_as_xyz
  1  'x, y, z'
loop_
 _atom_site_type_symbol
 _atom_site_label
 _atom_site_symmetry_multiplicity
 _atom_site_fract_x
 _atom_site_fract_y
 _atom_site_fract_z
 _atom_site_occupancy
  Ca  Ca0  1  0.00000000  0.00000000  0.00000000  1
  Ca  Ca1  1  0.66666700  0.33333300  0.36086060  1
  Ca  Ca2  1  0.33333300  0.66666700  0.63913940  1
  Co  Co0  1  0.66666700  0.33333300  0.74974051  1
  Co  Co1  1  0.33333300  0.66666700  0.25025949  1
  H  H0  1  0.18059423  0.81940577  0.36111977  1
  H  H1  1  0.63881255  0.81940577  0.36111977  1
  H  H2  1  0.18059423  0.36118745  0.36111977  1
  H  H3  1  0.81940577  0.18059423  0.63888023  1
  H  H4  1  0.36118745  0.18059423  0.63888023  1
  H  H5  1  0.81940577  0.63881255  0.63888023  1
  H  H6  1  0.51881877  0.03763854  0.86553961  1
  H  H7  1  0.51881877  0.48118123  0.86553961  1
  H  H8  1  0.96236146  0.48118123  0.86553961  1
  H  H9  1  0.48118123  0.96236146  0.13446039  1
  H  H10  1  0.48118123  0.51881877  0.13446039  1
  H  H11  1  0.03763854  0.51881877  0.13446039  1
loop_
_geom_bond_atom_site_label_1
_geom_bond_atom_site_label_2
_geom_bond_distance
_geom_bond_site_symmetry_2
Ca0 H6 2.608904 1_554
Ca0 H9 2.608904 1_445
Ca0 H11 2.608904 1_555
Ca0 H8 2.608904 1_444
Ca0 H10 2.608906 1_445
Ca0 H7 2.608906 1_554
Ca0 H10 2.608906 1_555
Ca0 H7 2.608906 1_444
Ca0 H9 2.608908 1_545
Ca0 H6 2.608908 1_454
Ca0 H11 2.608908 1_545
Ca0 H8 2.608908 1_454
Ca1 H11 2.350571 1_655
Ca1 H9 2.350571 1_545
Ca1 H10 2.350571 1_555
Ca1 H0 2.381282 1_655
Ca1 H2 2.381282 1_655
Ca1 H0 2.381282 1_545
Ca1 H2 2.381282 1_555
Ca1 H1 2.381282 1_545
Ca1 H1 2.381282 1_555
Ca1 H3 2.528535 1_555
Ca1 H4 2.528539 1_555
Ca1 H5 2.528539 1_555
Ca2 H8 2.350571 1_455
Ca2 H6 2.350571 1_565
Ca2 H7 2.350571 1_555
Ca2 H3 2.381282 1_455
Ca2 H5 2.381282 1_455
Ca2 H3 2.381282 1_565
Ca2 H5 2.381282 1_555
Ca2 H4 2.381282 1_565
Ca2 H4 2.381282 1_555
Ca2 H0 2.528535 1_555
Ca2 H1 2.528539 1_555
Ca2 H2 2.528539 1_555
Co0 H8 1.522616 1_555
Co0 H6 1.522616 1_555
Co0 H7 1.522623 1_555
Co0 H3 1.532488 1_555
Co0 H4 1.532495 1_555
Co0 H5 1.532495 1_555
Co1 H11 1.522616 1_555
Co1 H9 1.522616 1_555
Co1 H10 1.522623 1_555
Co1 H0 1.532488 1_555
Co1 H1 1.532495 1_555
Co1 H2 1.532495 1_555
