# generated using pymatgen
data_CaMgVO4F
_symmetry_space_group_name_H-M   'P 1'
_cell_length_a   5.62914773
_cell_length_b   5.62914779
_cell_length_c   7.10348994
_cell_angle_alpha   76.01746180
_cell_angle_beta   76.01746267
_cell_angle_gamma   106.08967987
_symmetry_Int_Tables_number   1
_chemical_formula_structural   CaMgVO4F
_chemical_formula_sum   'Ca2 Mg2 V2 O8 F2'
_cell_volume   198.03678529
_cell_formula_units_Z   2
loop_
 _symmetry_equiv_pos_site_id
 _symmetry_equiv_pos_as_xyz
  1  'x, y, z'
loop_
 _atom_site_type_symbol
 _atom_site_label
 _atom_site_symmetry_multiplicity
 _atom_site_fract_x
 _atom_site_fract_y
 _atom_site_fract_z
 _atom_site_occupancy
  Ca  Ca0  1  0.66922841  0.33077159  0.25000000  1
  Ca  Ca1  1  0.33077159  0.66922841  0.75000000  1
  Mg  Mg0  1  0.00000000  0.00000000  0.00000000  1
  Mg  Mg1  1  0.00000000  0.00000000  0.50000000  1
  V  V0  1  0.32060628  0.67939372  0.25000000  1
  V  V1  1  0.67939372  0.32060628  0.75000000  1
  O  O0  1  0.62078908  0.74230241  0.07952378  1
  O  O1  1  0.25769759  0.37921092  0.42047622  1
  O  O2  1  0.90174262  0.32834472  0.88135336  1
  O  O3  1  0.67165528  0.09825738  0.61864664  1
  O  O4  1  0.09825738  0.67165528  0.11864664  1
  O  O5  1  0.32834472  0.90174262  0.38135336  1
  O  O6  1  0.37921092  0.25769759  0.92047622  1
  O  O7  1  0.74230241  0.62078908  0.57952378  1
  F  F0  1  0.91981281  0.08018719  0.25000000  1
  F  F1  1  0.08018719  0.91981281  0.75000000  1
loop_
_geom_bond_atom_site_label_1
_geom_bond_atom_site_label_2
_geom_bond_distance
_geom_bond_site_symmetry_2
Ca0 F0 2.254401 1_555
Ca0 O4 2.421238 1_655
Ca0 O5 2.421238 1_545
Ca0 O1 2.461974 1_555
Ca0 O0 2.461974 1_555
Ca0 O3 2.634697 1_555
Ca0 O2 2.634697 1_554
Ca1 F1 2.254401 1_555
Ca1 O2 2.421238 1_455
Ca1 O3 2.421238 1_565
Ca1 O7 2.461974 1_555
Ca1 O6 2.461974 1_555
Ca1 O5 2.634697 1_555
Ca1 O4 2.634697 1_556
Mg0 O6 2.070018 1_554
Mg0 O0 2.070018 1_445
Mg0 O2 2.114614 1_454
Mg0 O4 2.114614 1_545
Mg1 O1 2.070018 1_555
Mg1 O7 2.070018 1_445
Mg1 O3 2.114614 1_455
Mg1 O5 2.114614 1_545
O0 V0 1.708632 1_555
O1 V0 1.708632 1_555
O2 V1 1.729998 1_555
O3 V1 1.729998 1_555
O4 V0 1.729998 1_555
O5 V0 1.729998 1_555
O6 V1 1.708632 1_555
O7 V1 1.708632 1_555
F0 Mg1 1.916809 1_655
F0 Mg0 1.916809 1_655
F1 Mg1 1.916809 1_565
F1 Mg0 1.916809 1_566
