# generated using pymatgen
data_MnSi2Tc4W
_symmetry_space_group_name_H-M   'P 1'
_cell_length_a   7.33687937
_cell_length_b   7.33687954
_cell_length_c   7.33687827
_cell_angle_alpha   33.68387381
_cell_angle_beta   33.68387123
_cell_angle_gamma   33.68388108
_symmetry_Int_Tables_number   1
_chemical_formula_structural   MnSi2Tc4W
_chemical_formula_sum   'Mn1 Si2 Tc4 W1'
_cell_volume   108.22893283
_cell_formula_units_Z   1
loop_
 _symmetry_equiv_pos_site_id
 _symmetry_equiv_pos_as_xyz
  1  'x, y, z'
loop_
 _atom_site_type_symbol
 _atom_site_label
 _atom_site_symmetry_multiplicity
 _atom_site_fract_x
 _atom_site_fract_y
 _atom_site_fract_z
 _atom_site_occupancy
  Mn  Mn0  1  0.00000000  0.00000000  0.00000000  1
  Si  Si0  1  0.25156354  0.25156354  0.25156354  1
  Si  Si1  1  0.74843646  0.74843646  0.74843646  1
  Tc  Tc0  1  0.62643653  0.62643653  0.62643653  1
  Tc  Tc1  1  0.12353824  0.12353824  0.12353824  1
  Tc  Tc2  1  0.87646176  0.87646176  0.87646176  1
  Tc  Tc3  1  0.37356347  0.37356347  0.37356347  1
  W  W0  1  0.50000000  0.50000000  0.50000000  1
loop_
_geom_bond_atom_site_label_1
_geom_bond_atom_site_label_2
_geom_bond_distance
_geom_bond_site_symmetry_2
Mn0 Tc1 2.562468 1_555
Mn0 Tc2 2.562468 1_444
Mn0 Tc3 2.592549 1_554
Mn0 Tc0 2.592549 1_445
Mn0 Tc3 2.592550 1_455
Mn0 Tc0 2.592550 1_544
Mn0 Tc3 2.592550 1_545
Mn0 Tc0 2.592550 1_454
Mn0 Si1 2.983574 1_445
Mn0 Si0 2.983574 1_554
Mn0 Si1 2.983575 1_544
Mn0 Si0 2.983575 1_455
Mn0 Si1 2.983575 1_454
Mn0 Si0 2.983575 1_545
Si0 Tc3 2.530560 1_555
Si0 Tc0 2.601419 1_554
Si0 Tc0 2.601420 1_455
Si0 Tc0 2.601420 1_545
Si0 Tc2 2.602995 1_445
Si0 Tc2 2.602995 1_544
Si0 Tc2 2.602996 1_454
Si0 Tc1 2.655540 1_555
Si0 W0 3.020918 1_554
Si0 W0 3.020919 1_455
Si0 W0 3.020919 1_545
Si1 Tc0 2.530560 1_555
Si1 Tc3 2.601419 1_556
Si1 Tc3 2.601420 1_655
Si1 Tc3 2.601420 1_565
Si1 Tc1 2.602995 1_665
Si1 Tc1 2.602995 1_566
Si1 Tc1 2.602996 1_656
Si1 Tc2 2.655540 1_555
Si1 W0 3.020918 1_556
Si1 W0 3.020919 1_655
Si1 W0 3.020919 1_565
Tc0 W0 2.622585 1_555
Tc1 W0 2.612520 1_554
Tc1 W0 2.612520 1_455
Tc1 W0 2.612520 1_545
Tc2 W0 2.612520 1_556
Tc2 W0 2.612520 1_655
Tc2 W0 2.612520 1_565
Tc3 W0 2.622585 1_555
