# generated using pymatgen
data_Cs2TaFeSe4
_symmetry_space_group_name_H-M   'P 1'
_cell_length_a   14.90326607
_cell_length_b   13.28675796
_cell_length_c   7.90704604
_cell_angle_alpha   85.37243250
_cell_angle_beta   62.70122808
_cell_angle_gamma   31.92633273
_symmetry_Int_Tables_number   1
_chemical_formula_structural   Cs2TaFeSe4
_chemical_formula_sum   'Cs4 Ta2 Fe2 Se8'
_cell_volume   554.93153706
_cell_formula_units_Z   2
loop_
 _symmetry_equiv_pos_site_id
 _symmetry_equiv_pos_as_xyz
  1  'x, y, z'
loop_
 _atom_site_type_symbol
 _atom_site_label
 _atom_site_symmetry_multiplicity
 _atom_site_fract_x
 _atom_site_fract_y
 _atom_site_fract_z
 _atom_site_occupancy
  Cs  Cs0  1  0.57294404  0.57294404  0.92705596  1
  Cs  Cs1  1  0.92705596  0.92705596  0.57294404  1
  Cs  Cs2  1  0.67705596  0.67705596  0.32294404  1
  Cs  Cs3  1  0.32294404  0.32294404  0.67705596  1
  Ta  Ta0  1  0.50000000  0.50000000  0.50000000  1
  Ta  Ta1  1  0.75000000  0.75000000  0.75000000  1
  Fe  Fe0  1  0.25000000  0.25000000  0.25000000  1
  Fe  Fe1  1  0.00000000  0.00000000  0.00000000  1
  Se  Se0  1  0.21107830  0.89505640  0.60025763  1
  Se  Se1  1  0.29360867  0.60025763  0.89505640  1
  Se  Se2  1  0.60025763  0.29360867  0.21107830  1
  Se  Se3  1  0.89505640  0.21107830  0.29360867  1
  Se  Se4  1  0.64974237  0.95639133  0.03892170  1
  Se  Se5  1  0.35494360  0.03892170  0.95639133  1
  Se  Se6  1  0.95639133  0.64974237  0.35494360  1
  Se  Se7  1  0.03892170  0.35494360  0.64974237  1
loop_
_geom_bond_atom_site_label_1
_geom_bond_atom_site_label_2
_geom_bond_distance
_geom_bond_site_symmetry_2
Cs0 Se3 3.728393 1_555
Cs0 Se0 3.728399 1_556
Cs0 Se3 3.749643 1_466
Cs0 Se0 3.749645 1_645
Cs0 Se7 3.786522 1_655
Cs0 Se5 3.786524 1_565
Cs0 Se1 3.989139 1_555
Cs0 Se2 3.989142 1_556
Cs1 Se1 3.728397 1_565
Cs1 Se2 3.728399 1_655
Cs1 Se1 3.749642 1_654
Cs1 Se2 3.749649 1_566
Cs1 Se4 3.786532 1_556
Cs1 Se6 3.786536 1_555
Cs1 Se3 3.989149 1_565
Cs1 Se0 3.989153 1_655
Cs2 Se5 3.728393 1_565
Cs2 Se7 3.728399 1_654
Cs2 Se5 3.749643 1_654
Cs2 Se7 3.749645 1_565
Cs2 Se0 3.786522 1_555
Cs2 Se3 3.786524 1_555
Cs2 Se6 3.989139 1_555
Cs2 Se4 3.989142 1_555
Cs3 Se6 3.728397 1_545
Cs3 Se4 3.728399 1_456
Cs3 Se6 3.749642 1_456
Cs3 Se4 3.749649 1_545
Cs3 Se2 3.786532 1_555
Cs3 Se1 3.786536 1_555
Cs3 Se5 3.989149 1_555
Cs3 Se7 3.989153 1_555
Fe0 Se4 2.444529 1_545
Fe0 Se6 2.444531 1_455
Fe0 Se7 2.444534 1_555
Fe0 Se5 2.444540 1_554
Fe1 Se2 2.444529 1_455
Fe1 Se1 2.444531 1_544
Fe1 Se0 2.444534 1_544
Fe1 Se3 2.444540 1_455
Se0 Ta0 2.428232 1_555
Se1 Ta0 2.428229 1_555
Se2 Ta0 2.428223 1_555
Se3 Ta0 2.428235 1_555
Se4 Ta1 2.428223 1_554
Se5 Ta1 2.428235 1_545
Se6 Ta1 2.428229 1_555
Se7 Ta1 2.428232 1_455
