# generated using pymatgen
data_Hf3Zr6ScSn6
_symmetry_space_group_name_H-M   'P 1'
_cell_length_a   8.48112311
_cell_length_b   8.47971990
_cell_length_c   5.78717666
_cell_angle_alpha   90.00272105
_cell_angle_beta   90.00688769
_cell_angle_gamma   119.97474959
_symmetry_Int_Tables_number   1
_chemical_formula_structural   Hf3Zr6ScSn6
_chemical_formula_sum   'Hf3 Zr6 Sc1 Sn6'
_cell_volume   360.53105994
_cell_formula_units_Z   1
loop_
 _symmetry_equiv_pos_site_id
 _symmetry_equiv_pos_as_xyz
  1  'x, y, z'
loop_
 _atom_site_type_symbol
 _atom_site_label
 _atom_site_symmetry_multiplicity
 _atom_site_fract_x
 _atom_site_fract_y
 _atom_site_fract_z
 _atom_site_occupancy
  Hf  Hf0  1  0.33124187  0.66560504  0.00034107  1
  Hf  Hf1  1  0.33118025  0.66570311  0.49963292  1
  Hf  Hf2  1  0.66566829  0.33104725  0.49976104  1
  Zr  Zr0  1  0.25017145  0.00208898  0.75015632  1
  Zr  Zr1  1  0.00174698  0.25003751  0.75014066  1
  Zr  Zr2  1  0.24747853  0.24730371  0.24948458  1
  Zr  Zr3  1  0.75249200  0.99998774  0.25007761  1
  Zr  Zr4  1  0.99969387  0.75240432  0.24967946  1
  Zr  Zr5  1  0.66566467  0.33152274  0.00051051  1
  Sc  Sc0  1  0.75388360  0.75362487  0.75037502  1
  Sn  Sn0  1  0.39454488  0.39536642  0.74840565  1
  Sn  Sn1  1  0.60822766  0.99686430  0.74902579  1
  Sn  Sn2  1  0.99873762  0.60906728  0.74856183  1
  Sn  Sn3  1  0.60741906  0.60829450  0.25160139  1
  Sn  Sn4  1  0.39141904  0.99878235  0.25119433  1
  Sn  Sn5  1  0.00043326  0.39229988  0.25105283  1
loop_
_geom_bond_atom_site_label_1
_geom_bond_atom_site_label_2
_geom_bond_distance
_geom_bond_site_symmetry_2
Hf0 Sn5 2.975201 1_555
Hf0 Sn0 2.982348 1_554
Hf0 Sn4 2.984737 1_555
Hf0 Sn1 2.988599 1_554
Hf0 Sn2 2.992225 1_454
Hf0 Sn3 2.995590 1_555
Hf1 Sn5 2.968735 1_555
Hf1 Sn0 2.974498 1_555
Hf1 Sn4 2.977279 1_555
Hf1 Sn1 2.982506 1_555
Hf1 Sn2 2.983868 1_455
Hf1 Sn3 2.987728 1_555
Hf2 Zr5 2.889254 1_555
Hf2 Zr5 2.897928 1_556
Hf2 Sn4 2.977937 1_545
Hf2 Sn0 2.984849 1_555
Hf2 Sn5 2.988289 1_655
Hf2 Sn2 2.992468 1_555
Hf2 Sn1 2.994937 1_545
Hf2 Sn3 2.999059 1_555
Sc0 Sn1 2.885560 1_555
Sc0 Sn2 2.891151 1_555
Sc0 Sn0 3.043956 1_555
Sc0 Sn3 3.140496 1_555
Sc0 Sn3 3.153929 1_556
Sn0 Zr1 2.917967 1_555
Sn0 Zr0 2.922422 1_555
Sn0 Zr5 2.992006 1_556
Sn0 Zr2 3.146874 1_555
Sn0 Zr2 3.158720 1_556
Sn1 Zr1 2.930561 1_665
Sn1 Zr5 3.004450 1_566
Sn1 Zr0 3.059102 1_565
Sn1 Zr3 3.131110 1_555
Sn1 Zr3 3.142067 1_556
Sn2 Zr0 2.924547 1_665
Sn2 Zr5 3.000460 1_556
Sn2 Zr1 3.057318 1_655
Sn2 Zr4 3.131031 1_555
Sn2 Zr4 3.142855 1_556
Sn3 Zr3 2.909023 1_555
Sn3 Zr4 2.915385 1_555
Sn3 Zr5 3.003670 1_555
Sn3 Zr2 3.058098 1_555
Sn4 Zr4 2.909764 1_455
Sn4 Zr2 2.915851 1_565
Sn4 Zr5 2.986504 1_565
Sn4 Zr3 3.057218 1_555
Sn4 Zr0 3.131829 1_565
Sn4 Zr0 3.142647 1_564
Sn5 Zr2 2.911347 1_555
Sn5 Zr3 2.915251 1_445
Sn5 Zr5 2.994303 1_455
Sn5 Zr4 3.056733 1_455
Sn5 Zr1 3.132328 1_555
Sn5 Zr1 3.141963 1_554
