# generated using pymatgen
data_Ba5NaMo2N7Cl2
_symmetry_space_group_name_H-M   'P 1'
_cell_length_a   11.34730590
_cell_length_b   6.19749760
_cell_length_c   11.30787166
_cell_angle_alpha   90.00000000
_cell_angle_beta   94.18935065
_cell_angle_gamma   90.00000000
_symmetry_Int_Tables_number   1
_chemical_formula_structural   Ba5NaMo2N7Cl2
_chemical_formula_sum   'Ba10 Na2 Mo4 N14 Cl4'
_cell_volume   793.10017288
_cell_formula_units_Z   2
loop_
 _symmetry_equiv_pos_site_id
 _symmetry_equiv_pos_as_xyz
  1  'x, y, z'
loop_
 _atom_site_type_symbol
 _atom_site_label
 _atom_site_symmetry_multiplicity
 _atom_site_fract_x
 _atom_site_fract_y
 _atom_site_fract_z
 _atom_site_occupancy
  Ba  Ba0  1  0.19583998  0.25000000  0.11337670  1
  Ba  Ba1  1  0.50295811  0.75000000  0.12187592  1
  Ba  Ba2  1  0.80302722  0.25000000  0.30139539  1
  Ba  Ba3  1  0.02114473  0.75000000  0.36630480  1
  Ba  Ba4  1  0.37709040  0.75000000  0.43947986  1
  Ba  Ba5  1  0.62291060  0.25000000  0.56052014  1
  Ba  Ba6  1  0.97885627  0.25000000  0.63369520  1
  Ba  Ba7  1  0.19697278  0.75000000  0.69860361  1
  Ba  Ba8  1  0.49704189  0.25000000  0.87812308  1
  Ba  Ba9  1  0.80416002  0.75000000  0.88662330  1
  Na  Na0  1  0.68458682  0.75000000  0.37663847  1
  Na  Na1  1  0.31541318  0.25000000  0.62336153  1
  Mo  Mo0  1  0.46691227  0.25000000  0.27326678  1
  Mo  Mo1  1  0.16962001  0.25000000  0.41194309  1
  Mo  Mo2  1  0.83037999  0.75000000  0.58805591  1
  Mo  Mo3  1  0.53308673  0.75000000  0.72673322  1
  N  N0  1  0.43737856  0.25000000  0.10915647  1
  N  N1  1  0.04835501  0.25000000  0.29429196  1
  N  N2  1  0.54827714  0.01107300  0.32645223  1
  N  N3  1  0.54827714  0.48892700  0.32645223  1
  N  N4  1  0.31360995  0.25000000  0.33492158  1
  N  N5  1  0.83626339  0.51078293  0.49189677  1
  N  N6  1  0.83626339  0.98921807  0.49189677  1
  N  N7  1  0.16373661  0.01078293  0.50810423  1
  N  N8  1  0.16373661  0.48921907  0.50810423  1
  N  N9  1  0.68639005  0.75000000  0.66507742  1
  N  N10  1  0.45172286  0.51107300  0.67354777  1
  N  N11  1  0.45172286  0.98892600  0.67354777  1
  N  N12  1  0.95164599  0.75000000  0.70570804  1
  N  N13  1  0.56262144  0.75000000  0.89084253  1
  Cl  Cl0  1  0.21422422  0.75000000  0.14270832  1
  Cl  Cl1  1  0.79866552  0.75000000  0.16782515  1
  Cl  Cl2  1  0.20133448  0.25000000  0.83217485  1
  Cl  Cl3  1  0.78577578  0.25000000  0.85729168  1
loop_
_geom_bond_atom_site_label_1
_geom_bond_atom_site_label_2
_geom_bond_distance
_geom_bond_site_symmetry_2
Ba0 N1 2.736088 1_555
Ba0 N0 2.744711 1_555
Ba0 N4 2.751868 1_555
Ba0 Cl0 3.121805 1_545
Ba0 Cl0 3.121805 1_555
Ba0 Cl2 3.184956 1_554
Ba1 N13 2.746253 1_554
Ba1 N2 2.839018 1_565
Ba1 N3 2.839018 1_555
Ba1 N0 3.187641 1_555
Ba1 N0 3.187641 1_565
Ba1 Cl0 3.301930 1_555
Ba1 Cl1 3.357753 1_555
Ba2 N6 2.697416 1_545
Ba2 N5 2.697419 1_555
Ba2 N1 2.790827 1_655
Ba2 N3 3.278547 1_555
Ba2 N2 3.278547 1_555
Ba2 Cl1 3.446022 1_555
Ba2 Cl1 3.446022 1_545
Ba3 N8 2.724351 1_555
Ba3 N7 2.724359 1_565
Ba3 N5 3.008548 1_455
Ba3 N6 3.008552 1_455
Ba3 N1 3.224503 1_565
Ba3 N1 3.224503 1_555
Ba3 Cl1 3.253108 1_455
Ba3 Cl0 3.464441 1_555
Ba4 N2 2.896126 1_565
Ba4 N3 2.896126 1_555
Ba4 N8 3.057764 1_555
Ba4 N7 3.057770 1_565
Ba4 N11 3.096434 1_555
Ba4 N10 3.096437 1_555
Ba4 N4 3.375588 1_565
Ba4 N4 3.375588 1_555
Ba4 Cl0 3.710939 1_555
Ba5 N10 2.896134 1_555
Ba5 N11 2.896137 1_545
Ba5 N6 3.057754 1_545
Ba5 N5 3.057757 1_555
Ba5 N3 3.096440 1_555
Ba5 N2 3.096440 1_555
Ba5 N9 3.375582 1_555
Ba5 N9 3.375582 1_545
Ba5 Cl3 3.710934 1_555
Ba6 N6 2.724355 1_545
Ba6 N5 2.724359 1_555
Ba6 N7 3.008534 1_655
Ba6 N8 3.008540 1_655
Ba6 N12 3.224503 1_545
Ba6 N12 3.224503 1_555
Ba6 Cl2 3.253100 1_655
Ba6 Cl3 3.464449 1_555
Ba7 N8 2.697394 1_555
Ba7 N7 2.697401 1_565
Ba7 N12 2.790817 1_455
Ba7 N11 3.278543 1_555
Ba7 N10 3.278546 1_555
Ba7 Cl2 3.446027 1_565
Ba7 Cl2 3.446027 1_555
Ba8 N0 2.746253 1_556
Ba8 N10 2.839009 1_555
Ba8 N11 2.839013 1_545
Ba8 N13 3.187641 1_545
Ba8 N13 3.187641 1_555
Ba8 Cl3 3.301928 1_555
Ba8 Cl2 3.357752 1_555
Ba9 N12 2.736095 1_555
Ba9 N13 2.744710 1_555
Ba9 N9 2.751878 1_555
Ba9 Cl3 3.121805 1_555
Ba9 Cl3 3.121805 1_565
Ba9 Cl1 3.184956 1_556
Mo0 N3 1.823629 1_555
Mo0 N2 1.823629 1_555
Mo0 N0 1.861508 1_555
Mo0 N4 1.920771 1_555
Mo1 N7 1.842661 1_555
Mo1 N8 1.842671 1_555
Mo1 N1 1.842801 1_555
Mo1 N4 1.906853 1_555
Mo2 N5 1.842648 1_555
Mo2 N6 1.842653 1_555
Mo2 N12 1.842816 1_555
Mo2 N9 1.906853 1_555
Mo3 N11 1.823618 1_555
Mo3 N10 1.823623 1_555
Mo3 N13 1.861498 1_555
Mo3 N9 1.920786 1_555
N2 Na0 2.281262 1_545
N3 Na0 2.281262 1_555
N5 Na0 2.555606 1_555
N6 Na0 2.555609 1_555
N7 Na1 2.555600 1_555
N8 Na1 2.555607 1_555
N10 Na1 2.281262 1_555
N11 Na1 2.281267 1_565
Cl1 Na0 2.774474 1_555
Cl2 Na1 2.774474 1_555
