# generated using pymatgen
data_Ti3Be2CuC
_symmetry_space_group_name_H-M   'P 1'
_cell_length_a   7.77063276
_cell_length_b   7.77063375
_cell_length_c   7.77063275
_cell_angle_alpha   59.99999574
_cell_angle_beta   59.99999154
_cell_angle_gamma   59.99999611
_symmetry_Int_Tables_number   1
_chemical_formula_structural   Ti3Be2CuC
_chemical_formula_sum   'Ti12 Be8 Cu4 C4'
_cell_volume   331.78302066
_cell_formula_units_Z   4
loop_
 _symmetry_equiv_pos_site_id
 _symmetry_equiv_pos_as_xyz
  1  'x, y, z'
loop_
 _atom_site_type_symbol
 _atom_site_label
 _atom_site_symmetry_multiplicity
 _atom_site_fract_x
 _atom_site_fract_y
 _atom_site_fract_z
 _atom_site_occupancy
  Ti  Ti0  1  0.94989636  0.94989636  0.55010364  1
  Ti  Ti1  1  0.55010364  0.94989636  0.55010364  1
  Ti  Ti2  1  0.94989636  0.55010364  0.55010364  1
  Ti  Ti3  1  0.55010364  0.55010364  0.94989636  1
  Ti  Ti4  1  0.94989636  0.55010364  0.94989636  1
  Ti  Ti5  1  0.55010364  0.94989636  0.94989636  1
  Ti  Ti6  1  0.30010364  0.30010364  0.69989636  1
  Ti  Ti7  1  0.69989636  0.30010364  0.69989636  1
  Ti  Ti8  1  0.30010364  0.69989636  0.69989636  1
  Ti  Ti9  1  0.69989636  0.69989636  0.30010364  1
  Ti  Ti10  1  0.30010364  0.69989636  0.30010364  1
  Ti  Ti11  1  0.69989636  0.30010364  0.30010364  1
  Be  Be0  1  0.32426862  0.32426862  0.02719415  1
  Be  Be1  1  0.32426862  0.02719415  0.32426862  1
  Be  Be2  1  0.02719415  0.32426862  0.32426862  1
  Be  Be3  1  0.32426862  0.32426862  0.32426862  1
  Be  Be4  1  0.92573138  0.92573138  0.22280585  1
  Be  Be5  1  0.92573138  0.22280585  0.92573138  1
  Be  Be6  1  0.22280585  0.92573138  0.92573138  1
  Be  Be7  1  0.92573138  0.92573138  0.92573138  1
  Cu  Cu0  1  0.12500000  0.12500000  0.62500000  1
  Cu  Cu1  1  0.12500000  0.62500000  0.12500000  1
  Cu  Cu2  1  0.62500000  0.12500000  0.12500000  1
  Cu  Cu3  1  0.12500000  0.12500000  0.12500000  1
  C  C0  1  0.62500000  0.62500000  0.12500000  1
  C  C1  1  0.62500000  0.12500000  0.62500000  1
  C  C2  1  0.12500000  0.62500000  0.62500000  1
  C  C3  1  0.62500000  0.62500000  0.62500000  1
loop_
_geom_bond_atom_site_label_1
_geom_bond_atom_site_label_2
_geom_bond_distance
_geom_bond_site_symmetry_2
Be0 Be2 2.308456 1_555
Be0 Be1 2.308457 1_555
Be0 Be3 2.308457 1_555
Be0 Cu2 2.327439 1_555
Be0 Cu3 2.327440 1_555
Be0 Cu1 2.327440 1_555
Be0 Ti4 2.737053 1_454
Be0 Ti3 2.737053 1_554
Be0 Ti5 2.737053 1_544
Be0 Ti7 2.743968 1_554
Be0 Ti6 2.743968 1_554
Be0 Ti8 2.743968 1_554
Be1 Be2 2.308457 1_555
Be1 Be3 2.308457 1_555
Be1 Cu2 2.327439 1_555
Be1 Cu0 2.327439 1_555
Be1 Cu3 2.327440 1_555
Be1 Ti0 2.737053 1_445
Be1 Ti5 2.737053 1_544
Be1 Ti1 2.737053 1_545
Be1 Ti8 2.743968 1_545
Be1 Ti9 2.743968 1_545
Be1 Ti10 2.743969 1_545
Be2 Be3 2.308457 1_555
Be2 Cu0 2.327439 1_555
Be2 Cu1 2.327440 1_555
Be2 Cu3 2.327440 1_555
Be2 Ti4 2.737053 1_454
Be2 Ti0 2.737053 1_445
Be2 Ti2 2.737053 1_455
Be2 Ti7 2.743968 1_455
Be2 Ti11 2.743968 1_455
Be2 Ti9 2.743968 1_455
Be3 Cu0 2.327439 1_555
Be3 Cu2 2.327439 1_555
Be3 Cu1 2.327440 1_555
Be3 Ti3 2.737053 1_554
Be3 Ti2 2.737053 1_455
Be3 Ti1 2.737053 1_545
Be3 Ti6 2.743968 1_555
Be3 Ti11 2.743968 1_555
Be3 Ti10 2.743969 1_555
Be4 Be6 2.308456 1_654
Be4 Be5 2.308457 1_564
Be4 Be7 2.308457 1_554
Be4 Cu2 2.327439 1_565
Be4 Cu3 2.327440 1_665
Be4 Cu1 2.327440 1_655
Be4 Ti10 2.737053 1_655
Be4 Ti9 2.737053 1_555
Be4 Ti11 2.737053 1_565
Be4 Ti1 2.743968 1_555
Be4 Ti0 2.743968 1_555
Be4 Ti2 2.743968 1_555
Be5 Be6 2.308457 1_645
Be5 Be7 2.308457 1_545
Be5 Cu2 2.327439 1_556
Be5 Cu0 2.327439 1_655
Be5 Cu3 2.327440 1_656
Be5 Ti6 2.737053 1_655
Be5 Ti11 2.737053 1_556
Be5 Ti7 2.737053 1_555
Be5 Ti2 2.743968 1_555
Be5 Ti3 2.743968 1_555
Be5 Ti4 2.743969 1_555
Be6 Be7 2.308457 1_455
Be6 Cu0 2.327439 1_565
Be6 Cu1 2.327440 1_556
Be6 Cu3 2.327440 1_566
Be6 Ti10 2.737053 1_556
Be6 Ti6 2.737053 1_565
Be6 Ti8 2.737053 1_555
Be6 Ti1 2.743968 1_555
Be6 Ti5 2.743968 1_555
Be6 Ti3 2.743968 1_555
Be7 Cu0 2.327439 1_665
Be7 Cu2 2.327439 1_566
Be7 Cu1 2.327440 1_656
Be7 Ti9 2.737053 1_556
Be7 Ti8 2.737053 1_655
Be7 Ti7 2.737053 1_565
Be7 Ti0 2.743968 1_555
Be7 Ti5 2.743968 1_555
Be7 Ti4 2.743969 1_555
Cu0 Ti1 2.734364 1_545
Cu0 Ti7 2.734364 1_455
Cu0 Ti6 2.734364 1_555
Cu0 Ti0 2.734364 1_445
Cu0 Ti2 2.734364 1_455
Cu0 Ti8 2.734364 1_545
Cu1 Ti2 2.734364 1_455
Cu1 Ti8 2.734364 1_554
Cu1 Ti3 2.734364 1_554
Cu1 Ti9 2.734364 1_455
Cu1 Ti10 2.734364 1_555
Cu1 Ti4 2.734364 1_454
Cu2 Ti1 2.734364 1_545
Cu2 Ti7 2.734364 1_554
Cu2 Ti11 2.734364 1_555
Cu2 Ti5 2.734364 1_544
Cu2 Ti3 2.734364 1_554
Cu2 Ti9 2.734364 1_545
Cu3 Ti0 2.734364 1_445
Cu3 Ti6 2.734364 1_554
Cu3 Ti5 2.734364 1_544
Cu3 Ti11 2.734364 1_455
Cu3 Ti4 2.734364 1_454
Cu3 Ti10 2.734364 1_545
C0 Ti4 2.109822 1_554
C0 Ti10 2.109822 1_555
C0 Ti3 2.109823 1_554
C0 Ti9 2.109823 1_555
C0 Ti5 2.109823 1_554
C0 Ti11 2.109823 1_555
C1 Ti5 2.109822 1_545
C1 Ti11 2.109822 1_555
C1 Ti0 2.109822 1_545
C1 Ti6 2.109822 1_555
C1 Ti7 2.109823 1_555
C1 Ti1 2.109823 1_545
C2 Ti4 2.109822 1_455
C2 Ti10 2.109822 1_555
C2 Ti8 2.109823 1_555
C2 Ti2 2.109823 1_455
C2 Ti0 2.109823 1_455
C2 Ti6 2.109823 1_555
C3 Ti9 2.109822 1_555
C3 Ti3 2.109822 1_555
C3 Ti2 2.109822 1_555
C3 Ti8 2.109822 1_555
C3 Ti1 2.109823 1_555
C3 Ti7 2.109823 1_555
