# generated using pymatgen
data_Mn4CdPd9Au2
_symmetry_space_group_name_H-M   'P 1'
_cell_length_a   6.85760530
_cell_length_b   6.85760543
_cell_length_c   6.85760548
_cell_angle_alpha   107.96235556
_cell_angle_beta   107.96235209
_cell_angle_gamma   112.53302614
_symmetry_Int_Tables_number   1
_chemical_formula_structural   Mn4CdPd9Au2
_chemical_formula_sum   'Mn4 Cd1 Pd9 Au2'
_cell_volume   247.71884149
_cell_formula_units_Z   1
loop_
 _symmetry_equiv_pos_site_id
 _symmetry_equiv_pos_as_xyz
  1  'x, y, z'
loop_
 _atom_site_type_symbol
 _atom_site_label
 _atom_site_symmetry_multiplicity
 _atom_site_fract_x
 _atom_site_fract_y
 _atom_site_fract_z
 _atom_site_occupancy
  Mn  Mn0  1  0.24038371  0.24038371  0.48076842  1
  Mn  Mn1  1  0.75961629  0.75961629  0.51923158  1
  Mn  Mn2  1  0.24038371  0.75961629  0.00000000  1
  Mn  Mn3  1  0.75961629  0.24038371  1.00000000  1
  Cd  Cd0  1  0.50000000  0.50000000  0.00000000  1
  Pd  Pd0  1  0.50265474  0.25333451  0.24931923  1
  Pd  Pd1  1  0.49734526  0.74666549  0.75068077  1
  Pd  Pd2  1  0.00401528  0.25333451  0.75068077  1
  Pd  Pd3  1  0.25333451  0.00401528  0.75068077  1
  Pd  Pd4  1  0.99598472  0.74666549  0.24931923  1
  Pd  Pd5  1  0.74666549  0.99598472  0.24931923  1
  Pd  Pd6  1  0.25333451  0.50265474  0.24931923  1
  Pd  Pd7  1  0.74666549  0.49734526  0.75068077  1
  Pd  Pd8  1  0.00000000  0.00000000  0.00000000  1
  Au  Au0  1  0.50000000  0.00000000  0.50000000  1
  Au  Au1  1  0.00000000  0.50000000  0.50000000  1
loop_
_geom_bond_atom_site_label_1
_geom_bond_atom_site_label_2
_geom_bond_distance
_geom_bond_site_symmetry_2
Mn0 Pd4 2.736237 1_445
Mn0 Pd5 2.736237 1_445
Mn0 Pd0 2.736247 1_555
Mn0 Pd6 2.736248 1_555
Mn0 Pd8 2.741817 1_555
Mn0 Pd2 2.814382 1_555
Mn0 Pd3 2.814382 1_555
Mn0 Pd1 2.814387 1_555
Mn0 Pd7 2.814388 1_555
Mn1 Pd2 2.736237 1_665
Mn1 Pd3 2.736237 1_665
Mn1 Pd1 2.736247 1_555
Mn1 Pd7 2.736248 1_555
Mn1 Pd8 2.741817 1_666
Mn1 Pd4 2.814382 1_555
Mn1 Pd5 2.814382 1_555
Mn1 Pd0 2.814387 1_555
Mn1 Pd6 2.814388 1_555
Mn2 Pd0 2.736236 1_565
Mn2 Pd7 2.736236 1_454
Mn2 Pd4 2.736236 1_455
Mn2 Pd3 2.736236 1_564
Mn2 Pd8 2.741811 1_565
Mn2 Pd1 2.814382 1_554
Mn2 Pd6 2.814382 1_555
Mn2 Pd2 2.814388 1_554
Mn2 Pd5 2.814388 1_555
Mn3 Pd1 2.736236 1_545
Mn3 Pd6 2.736236 1_656
Mn3 Pd2 2.736236 1_655
Mn3 Pd5 2.736236 1_546
Mn3 Pd8 2.741811 1_656
Mn3 Pd0 2.814382 1_556
Mn3 Pd7 2.814382 1_555
Mn3 Pd4 2.814388 1_556
Mn3 Pd3 2.814388 1_555
Cd0 Pd5 2.751907 1_555
Cd0 Pd3 2.751907 1_554
Cd0 Pd4 2.751907 1_555
Cd0 Pd2 2.751907 1_554
Cd0 Pd6 2.751908 1_555
Cd0 Pd7 2.751908 1_554
Cd0 Pd0 2.751908 1_555
Cd0 Pd1 2.751908 1_554
Cd0 Mn1 2.961172 1_555
Cd0 Mn0 2.961172 1_554
Cd0 Mn2 2.961177 1_555
Cd0 Mn3 2.961177 1_554
Pd0 Pd8 2.786837 1_555
Pd0 Pd3 2.843729 1_554
Pd0 Pd6 2.843741 1_555
Pd0 Pd5 2.859705 1_545
Pd0 Pd7 2.859710 1_555
Pd1 Pd8 2.786837 1_666
Pd1 Pd5 2.843729 1_556
Pd1 Pd7 2.843741 1_555
Pd1 Pd3 2.859705 1_565
Pd1 Pd6 2.859710 1_555
Pd2 Pd8 2.786832 1_556
Pd2 Pd3 2.843729 1_555
Pd2 Pd6 2.843729 1_556
Pd2 Pd7 2.859705 1_455
Pd2 Pd5 2.859710 1_445
Pd3 Pd8 2.786832 1_556
Pd3 Pd4 2.859710 1_445
Pd4 Pd8 2.786832 1_665
Pd4 Pd5 2.843729 1_555
Pd4 Pd7 2.843729 1_554
Pd4 Pd6 2.859705 1_655
Pd5 Pd8 2.786832 1_665
Pd6 Pd8 2.786837 1_555
Pd7 Pd8 2.786837 1_666
Au0 Pd7 2.759936 1_555
Au0 Pd6 2.759936 1_545
Au0 Pd3 2.759941 1_555
Au0 Pd5 2.759941 1_545
Au0 Pd1 2.794765 1_545
Au0 Pd0 2.794765 1_555
Au0 Pd2 2.794765 1_655
Au0 Pd4 2.794765 1_445
Au0 Mn0 2.853603 1_555
Au0 Mn1 2.853603 1_545
Au0 Mn3 2.853603 1_555
Au0 Mn2 2.853603 1_545
Au1 Pd1 2.759936 1_555
Au1 Pd0 2.759936 1_455
Au1 Pd2 2.759941 1_555
Au1 Pd4 2.759941 1_455
Au1 Pd7 2.794765 1_455
Au1 Pd6 2.794765 1_555
Au1 Pd3 2.794765 1_565
Au1 Pd5 2.794765 1_445
Au1 Mn1 2.853603 1_455
Au1 Mn0 2.853603 1_555
Au1 Mn2 2.853603 1_556
Au1 Mn3 2.853603 1_454
