# generated using pymatgen
data_CsLuMnS3
_symmetry_space_group_name_H-M   'P 1'
_cell_length_a   8.02044089
_cell_length_b   8.02044085
_cell_length_c   10.48475260
_cell_angle_alpha   90.00000000
_cell_angle_beta   90.00000000
_cell_angle_gamma   151.09524339
_symmetry_Int_Tables_number   1
_chemical_formula_structural   CsLuMnS3
_chemical_formula_sum   'Cs2 Lu2 Mn2 S6'
_cell_volume   326.00250746
_cell_formula_units_Z   2
loop_
 _symmetry_equiv_pos_site_id
 _symmetry_equiv_pos_as_xyz
  1  'x, y, z'
loop_
 _atom_site_type_symbol
 _atom_site_label
 _atom_site_symmetry_multiplicity
 _atom_site_fract_x
 _atom_site_fract_y
 _atom_site_fract_z
 _atom_site_occupancy
  Cs  Cs0  1  0.26100404  0.73899796  0.25000000  1
  Cs  Cs1  1  0.73899796  0.26100404  0.75000000  1
  Lu  Lu0  1  0.00000000  0.00000000  0.00000000  1
  Lu  Lu1  1  0.00000000  0.00000000  0.50000000  1
  Mn  Mn0  1  0.53935117  0.46064983  0.25000000  1
  Mn  Mn1  1  0.46064983  0.53935117  0.75000000  1
  S  S0  1  0.61153304  0.38846896  0.05291383  1
  S  S1  1  0.95027007  0.04973193  0.25000000  1
  S  S2  1  0.61153304  0.38846896  0.44708617  1
  S  S3  1  0.38846896  0.61153304  0.55291383  1
  S  S4  1  0.04973193  0.95027007  0.75000000  1
  S  S5  1  0.38846896  0.61153304  0.94708617  1
loop_
_geom_bond_atom_site_label_1
_geom_bond_atom_site_label_2
_geom_bond_distance
_geom_bond_site_symmetry_2
Cs0 S1 3.556677 1_455
Cs0 S1 3.556677 1_565
Cs0 S2 3.696953 1_565
Cs0 S0 3.696953 1_565
Cs0 S2 3.696953 1_455
Cs0 S0 3.696953 1_455
Cs0 S3 3.742595 1_555
Cs0 S5 3.742595 1_554
Cs1 S4 3.556677 1_655
Cs1 S4 3.556677 1_545
Cs1 S5 3.696953 1_545
Cs1 S3 3.696953 1_545
Cs1 S5 3.696953 1_655
Cs1 S3 3.696953 1_655
Cs1 S0 3.742595 1_556
Cs1 S2 3.742595 1_555
Lu0 S0 2.704811 1_445
Lu0 S5 2.704811 1_444
Lu0 S5 2.704817 1_554
Lu0 S0 2.704817 1_555
Lu0 S1 2.732647 1_455
Lu0 S4 2.732647 1_544
Lu1 S2 2.704811 1_445
Lu1 S3 2.704811 1_445
Lu1 S3 2.704817 1_555
Lu1 S2 2.704817 1_555
Lu1 S1 2.732647 1_455
Lu1 S4 2.732647 1_545
Mn0 S2 2.350984 1_555
Mn0 S0 2.350984 1_555
Mn0 S1 2.433416 1_455
Mn0 S1 2.433419 1_565
Mn1 S5 2.350984 1_555
Mn1 S3 2.350984 1_555
Mn1 S4 2.433416 1_545
Mn1 S4 2.433420 1_655
