# generated using pymatgen
data_KVIrSe4
_symmetry_space_group_name_H-M   'P 1'
_cell_length_a   3.70958268
_cell_length_b   5.88275288
_cell_length_c   8.56309023
_cell_angle_alpha   68.13734342
_cell_angle_beta   90.00000000
_cell_angle_gamma   90.00000000
_symmetry_Int_Tables_number   1
_chemical_formula_structural   KVIrSe4
_chemical_formula_sum   'K1 V1 Ir1 Se4'
_cell_volume   173.42879251
_cell_formula_units_Z   1
loop_
 _symmetry_equiv_pos_site_id
 _symmetry_equiv_pos_as_xyz
  1  'x, y, z'
loop_
 _atom_site_type_symbol
 _atom_site_label
 _atom_site_symmetry_multiplicity
 _atom_site_fract_x
 _atom_site_fract_y
 _atom_site_fract_z
 _atom_site_occupancy
  K  K0  1  0.50000000  0.61120228  0.51079531  1
  V  V0  1  0.50000000  0.56061400  0.00532802  1
  Ir  Ir0  1  0.00000000  0.97481140  0.99419402  1
  Se  Se0  1  0.00000000  0.54598361  0.20636269  1
  Se  Se1  1  0.50000000  0.07960579  0.15207286  1
  Se  Se2  1  0.00000000  0.43357429  0.84170028  1
  Se  Se3  1  0.50000000  0.95930963  0.79424582  1
loop_
_geom_bond_atom_site_label_1
_geom_bond_atom_site_label_2
_geom_bond_distance
_geom_bond_site_symmetry_2
K0 Se2 3.218086 1_555
K0 Se2 3.218086 1_655
K0 Se1 3.274855 1_565
K0 Se0 3.335894 1_555
K0 Se0 3.335894 1_655
K0 Se3 3.696699 1_545
K0 Se3 3.713063 1_555
Ir0 Se0 2.500265 1_556
Ir0 Se1 2.503743 1_466
Ir0 Se1 2.503743 1_566
Ir0 Se2 2.522691 1_565
Ir0 Se3 2.548803 1_455
Ir0 Se3 2.548803 1_555
Se0 V0 2.510139 1_555
Se0 V0 2.510139 1_455
Se1 V0 2.633966 1_555
Se2 V0 2.596517 1_456
Se2 V0 2.596517 1_556
Se3 V0 2.368710 1_556
