# generated using pymatgen
data_Ba3H12IrRh
_symmetry_space_group_name_H-M   'P 1'
_cell_length_a   5.50420633
_cell_length_b   5.50420518
_cell_length_c   8.89314651
_cell_angle_alpha   90.00000000
_cell_angle_beta   90.00000000
_cell_angle_gamma   120.00000099
_symmetry_Int_Tables_number   1
_chemical_formula_structural   Ba3H12IrRh
_chemical_formula_sum   'Ba3 H12 Ir1 Rh1'
_cell_volume   233.33258625
_cell_formula_units_Z   1
loop_
 _symmetry_equiv_pos_site_id
 _symmetry_equiv_pos_as_xyz
  1  'x, y, z'
loop_
 _atom_site_type_symbol
 _atom_site_label
 _atom_site_symmetry_multiplicity
 _atom_site_fract_x
 _atom_site_fract_y
 _atom_site_fract_z
 _atom_site_occupancy
  Ba  Ba0  1  0.00000000  0.00000000  0.00117548  1
  Ba  Ba1  1  0.66666700  0.33333300  0.35964818  1
  Ba  Ba2  1  0.33333300  0.66666700  0.64233347  1
  H  H0  1  0.18696902  0.81303098  0.34705544  1
  H  H1  1  0.62606196  0.81303098  0.34705544  1
  H  H2  1  0.18696902  0.37393804  0.34705544  1
  H  H3  1  0.81206713  0.18793287  0.65348293  1
  H  H4  1  0.37586575  0.18793287  0.65348293  1
  H  H5  1  0.81206713  0.62413425  0.65348293  1
  H  H6  1  0.52915843  0.05831687  0.87126951  1
  H  H7  1  0.52915843  0.47084157  0.87126951  1
  H  H8  1  0.94168313  0.47084157  0.87126951  1
  H  H9  1  0.47269643  0.94539285  0.12728150  1
  H  H10  1  0.47269643  0.52730357  0.12728150  1
  H  H11  1  0.05460715  0.52730357  0.12728150  1
  Ir  Ir0  1  0.33333300  0.66666700  0.23997957  1
  Rh  Rh0  1  0.66666700  0.33333300  0.75959615  1
loop_
_geom_bond_atom_site_label_1
_geom_bond_atom_site_label_2
_geom_bond_distance
_geom_bond_site_symmetry_2
Ba0 H11 2.983210 1_555
Ba0 H11 2.983210 1_545
Ba0 H10 2.983210 1_555
Ba0 H10 2.983210 1_445
Ba0 H9 2.983210 1_545
Ba0 H9 2.983210 1_445
Ba0 H8 2.997666 1_444
Ba0 H8 2.997666 1_454
Ba0 H7 2.997666 1_444
Ba0 H7 2.997666 1_554
Ba0 H6 2.997666 1_454
Ba0 H6 2.997666 1_554
Ba1 H1 2.761170 1_545
Ba1 H2 2.761170 1_655
Ba1 H0 2.761172 1_545
Ba1 H0 2.761173 1_655
Ba1 H1 2.761175 1_555
Ba1 H2 2.761176 1_555
Ba1 H9 2.773074 1_545
Ba1 H11 2.773074 1_655
Ba1 H10 2.773077 1_555
Ba1 H3 2.958018 1_555
Ba1 H5 2.958020 1_555
Ba1 H4 2.958020 1_555
Ba2 H4 2.761338 1_565
Ba2 H5 2.761339 1_455
Ba2 H3 2.761341 1_565
Ba2 H3 2.761341 1_455
Ba2 H4 2.761344 1_555
Ba2 H5 2.761345 1_555
Ba2 H6 2.762334 1_565
Ba2 H8 2.762335 1_455
Ba2 H7 2.762338 1_555
Ba2 H0 2.973664 1_555
Ba2 H2 2.973666 1_555
Ba2 H1 2.973666 1_555
H0 Ir0 1.689326 1_555
H1 Ir0 1.689330 1_555
H2 Ir0 1.689330 1_555
H3 Rh0 1.676911 1_555
H4 Rh0 1.676915 1_555
H5 Rh0 1.676915 1_555
H6 Rh0 1.644649 1_555
H7 Rh0 1.644653 1_555
H8 Rh0 1.644649 1_555
H9 Ir0 1.664251 1_555
H10 Ir0 1.664255 1_555
H11 Ir0 1.664251 1_555
