# generated using pymatgen
data_LiAlZnF6
_symmetry_space_group_name_H-M   'P 1'
_cell_length_a   8.33555915
_cell_length_b   8.33555848
_cell_length_c   4.53757175
_cell_angle_alpha   90.00000000
_cell_angle_beta   90.00000000
_cell_angle_gamma   120.00000264
_symmetry_Int_Tables_number   1
_chemical_formula_structural   LiAlZnF6
_chemical_formula_sum   'Li3 Al3 Zn3 F18'
_cell_volume   273.03829699
_cell_formula_units_Z   3
loop_
 _symmetry_equiv_pos_site_id
 _symmetry_equiv_pos_as_xyz
  1  'x, y, z'
loop_
 _atom_site_type_symbol
 _atom_site_label
 _atom_site_symmetry_multiplicity
 _atom_site_fract_x
 _atom_site_fract_y
 _atom_site_fract_z
 _atom_site_occupancy
  Li  Li0  1  0.29608524  0.29608524  0.50000000  1
  Li  Li1  1  0.00000000  0.70391476  0.50000000  1
  Li  Li2  1  0.70391476  0.00000000  0.50000000  1
  Al  Al0  1  0.00000000  0.00000000  0.00000000  1
  Al  Al1  1  0.33333300  0.66666700  0.49534924  1
  Al  Al2  1  0.66666700  0.33333300  0.50465076  1
  Zn  Zn0  1  0.63805902  0.63805902  0.00000000  1
  Zn  Zn1  1  1.00000000  0.36194098  0.00000000  1
  Zn  Zn2  1  0.36194098  0.00000000  0.00000000  1
  F  F0  1  0.09663418  0.20762288  0.22146076  1
  F  F1  1  0.11098870  0.90336582  0.22146076  1
  F  F2  1  0.79237712  0.88901130  0.22146076  1
  F  F3  1  0.88901130  0.79237712  0.77853924  1
  F  F4  1  0.90336582  0.11098870  0.77853924  1
  F  F5  1  0.20762288  0.09663418  0.77853924  1
  F  F6  1  0.45190874  0.87219827  0.26895398  1
  F  F7  1  0.42028953  0.54809126  0.26895398  1
  F  F8  1  0.12780173  0.57971047  0.26895398  1
  F  F9  1  0.57971047  0.12780173  0.73104602  1
  F  F10  1  0.54809126  0.42028953  0.73104602  1
  F  F11  1  0.87219827  0.45190874  0.73104602  1
  F  F12  1  0.22197954  0.45962679  0.71783431  1
  F  F13  1  0.23764625  0.77802046  0.71783431  1
  F  F14  1  0.54037321  0.76235375  0.71783431  1
  F  F15  1  0.76235375  0.54037321  0.28216569  1
  F  F16  1  0.77802046  0.23764625  0.28216569  1
  F  F17  1  0.45962679  0.22197954  0.28216569  1
loop_
_geom_bond_atom_site_label_1
_geom_bond_atom_site_label_2
_geom_bond_distance
_geom_bond_site_symmetry_2
Al0 F0 1.805481 1_555
Al0 F3 1.805481 1_444
Al0 F4 1.805481 1_454
Al0 F2 1.805481 1_445
Al0 F1 1.805481 1_545
Al0 F5 1.805481 1_554
Al1 F12 1.804776 1_555
Al1 F13 1.804776 1_555
Al1 F14 1.804776 1_555
Al1 F8 1.809424 1_555
Al1 F6 1.809425 1_555
Al1 F7 1.809431 1_555
Al2 F15 1.804776 1_555
Al2 F17 1.804776 1_555
Al2 F16 1.804776 1_555
Al2 F9 1.809424 1_555
Al2 F11 1.809425 1_555
Al2 F10 1.809431 1_555
F0 Li0 1.918139 1_555
F0 Zn1 2.085526 1_455
F1 Li1 1.918139 1_555
F1 Zn2 2.085526 1_565
F2 Li2 1.918139 1_565
F2 Zn0 2.085526 1_555
F3 Li1 1.918139 1_655
F3 Zn0 2.085526 1_556
F4 Li2 1.918139 1_555
F4 Zn1 2.085526 1_556
F5 Li0 1.918139 1_555
F5 Zn2 2.085526 1_556
F6 Zn2 1.996380 1_565
F6 Li2 2.099706 1_565
F7 Zn0 1.996380 1_555
F7 Li0 2.099706 1_555
F8 Zn1 1.996379 1_455
F8 Li1 2.099706 1_555
F9 Zn2 1.996380 1_556
F9 Li2 2.099706 1_555
F10 Zn0 1.996379 1_556
F10 Li0 2.099706 1_555
F11 Zn1 1.996380 1_556
F11 Li1 2.099706 1_655
F12 Li0 2.014694 1_555
F12 Zn1 2.054108 1_456
F13 Li1 2.014688 1_555
F13 Zn2 2.054108 1_566
F14 Li2 2.014689 1_565
F14 Zn0 2.054114 1_556
F15 Li1 2.014689 1_655
F15 Zn0 2.054114 1_555
F16 Li2 2.014687 1_555
F16 Zn1 2.054108 1_555
F17 Li0 2.014695 1_555
F17 Zn2 2.054108 1_555
