# generated using pymatgen
data_Zr3Sc3(PbC2)2
_symmetry_space_group_name_H-M   'P 1'
_cell_length_a   3.37805676
_cell_length_b   3.37805647
_cell_length_c   20.42057570
_cell_angle_alpha   90.00000000
_cell_angle_beta   90.00000000
_cell_angle_gamma   120.00000283
_symmetry_Int_Tables_number   1
_chemical_formula_structural   Zr3Sc3(PbC2)2
_chemical_formula_sum   'Zr3 Sc3 Pb2 C4'
_cell_volume   201.80524472
_cell_formula_units_Z   1
loop_
 _symmetry_equiv_pos_site_id
 _symmetry_equiv_pos_as_xyz
  1  'x, y, z'
loop_
 _atom_site_type_symbol
 _atom_site_label
 _atom_site_symmetry_multiplicity
 _atom_site_fract_x
 _atom_site_fract_y
 _atom_site_fract_z
 _atom_site_occupancy
  Zr  Zr0  1  0.00000000  0.00000000  0.00135491  1
  Zr  Zr1  1  0.00000000  0.00000000  0.50000471  1
  Zr  Zr2  1  0.33333400  0.66666700  0.87357191  1
  Sc  Sc0  1  0.66666700  0.33333200  0.12493529  1
  Sc  Sc1  1  0.66666700  0.33333200  0.37489031  1
  Sc  Sc2  1  0.33333400  0.66666700  0.62505060  1
  Pb  Pb0  1  0.00000000  0.00000000  0.24988171  1
  Pb  Pb1  1  0.00000000  0.00000000  0.75069539  1
  C  C0  1  0.33333400  0.66666700  0.06736973  1
  C  C1  1  0.33333400  0.66666700  0.43286817  1
  C  C2  1  0.66666700  0.33333200  0.56901570  1
  C  C3  1  0.66666700  0.33333200  0.93035958  1
loop_
_geom_bond_atom_site_label_1
_geom_bond_atom_site_label_2
_geom_bond_distance
_geom_bond_site_symmetry_2
Pb0 Sc0 3.211507 1_455
Pb0 Sc0 3.211510 1_555
Pb0 Sc0 3.211512 1_445
Pb0 Sc1 3.212516 1_455
Pb0 Sc1 3.212519 1_555
Pb0 Sc1 3.212521 1_445
Pb1 Zr2 3.178031 1_445
Pb1 Zr2 3.178032 1_555
Pb1 Zr2 3.178032 1_545
Pb1 Sc2 3.222850 1_445
Pb1 Sc2 3.222852 1_555
Pb1 Sc2 3.222852 1_545
C0 Sc0 2.277189 1_565
C0 Sc0 2.277194 1_455
C0 Sc0 2.277196 1_555
C0 Zr0 2.370868 1_665
C0 Zr0 2.370870 1_555
C0 Zr0 2.370871 1_565
C1 Sc1 2.281546 1_565
C1 Sc1 2.281551 1_455
C1 Sc1 2.281554 1_555
C1 Zr1 2.383967 1_665
C1 Zr1 2.383969 1_555
C1 Zr1 2.383969 1_565
C2 Sc2 2.261212 1_545
C2 Sc2 2.261217 1_655
C2 Sc2 2.261219 1_555
C2 Zr1 2.406181 1_655
C2 Zr1 2.406185 1_555
C2 Zr1 2.406188 1_665
C3 Zr2 2.269029 1_545
C3 Zr2 2.269034 1_655
C3 Zr2 2.269037 1_555
C3 Zr0 2.430135 1_656
C3 Zr0 2.430140 1_556
C3 Zr0 2.430142 1_666
