# generated using pymatgen
data_CsAsPRh2
_symmetry_space_group_name_H-M   'P 1'
_cell_length_a   7.90038503
_cell_length_b   7.90038476
_cell_length_c   7.90038471
_cell_angle_alpha   150.92459350
_cell_angle_beta   150.92459379
_cell_angle_gamma   41.58587006
_symmetry_Int_Tables_number   1
_chemical_formula_structural   CsAsPRh2
_chemical_formula_sum   'Cs1 As1 P1 Rh2'
_cell_volume   116.18821766
_cell_formula_units_Z   1
loop_
 _symmetry_equiv_pos_site_id
 _symmetry_equiv_pos_as_xyz
  1  'x, y, z'
loop_
 _atom_site_type_symbol
 _atom_site_label
 _atom_site_symmetry_multiplicity
 _atom_site_fract_x
 _atom_site_fract_y
 _atom_site_fract_z
 _atom_site_occupancy
  Cs  Cs0  1  0.00459924  0.00459924  0.00000000  1
  As  As0  1  0.34130825  0.34130825  0.00000000  1
  P  P0  1  0.66455140  0.66455140  1.00000000  1
  Rh  Rh0  1  0.74477006  0.24477006  0.50000000  1
  Rh  Rh1  1  0.24477006  0.74477006  0.50000000  1
loop_
_geom_bond_atom_site_label_1
_geom_bond_atom_site_label_2
_geom_bond_distance
_geom_bond_site_symmetry_2
Cs0 P0 3.667185 1_443
Cs0 P0 3.667185 1_454
Cs0 P0 3.667185 1_544
Cs0 P0 3.667185 1_555
As0 Rh0 2.442615 1_555
As0 Rh1 2.442615 1_555
As0 Rh1 2.442615 1_544
As0 Rh0 2.442615 1_454
As0 Cs0 3.699154 1_554
As0 Cs0 3.699154 1_565
As0 Cs0 3.699154 1_655
As0 Cs0 3.699154 1_666
P0 Rh1 2.310183 1_555
P0 Rh0 2.310183 1_555
P0 Rh0 2.310183 1_566
P0 Rh1 2.310183 1_656
