# generated using pymatgen
data_Zr10GaCuSb6
_symmetry_space_group_name_H-M   'P 1'
_cell_length_a   8.62864646
_cell_length_b   8.62864571
_cell_length_c   5.85494369
_cell_angle_alpha   90.00000000
_cell_angle_beta   90.00000000
_cell_angle_gamma   119.99999145
_symmetry_Int_Tables_number   1
_chemical_formula_structural   Zr10GaCuSb6
_chemical_formula_sum   'Zr10 Ga1 Cu1 Sb6'
_cell_volume   377.51890476
_cell_formula_units_Z   1
loop_
 _symmetry_equiv_pos_site_id
 _symmetry_equiv_pos_as_xyz
  1  'x, y, z'
loop_
 _atom_site_type_symbol
 _atom_site_label
 _atom_site_symmetry_multiplicity
 _atom_site_fract_x
 _atom_site_fract_y
 _atom_site_fract_z
 _atom_site_occupancy
  Zr  Zr0  1  0.66666700  0.33333300  0.00000000  1
  Zr  Zr1  1  0.33333300  0.66666700  0.00000000  1
  Zr  Zr2  1  0.33333300  0.66666700  0.50000000  1
  Zr  Zr3  1  0.66666700  0.33333300  0.50000000  1
  Zr  Zr4  1  0.73509453  0.73509453  0.75261960  1
  Zr  Zr5  1  0.26490547  0.00000000  0.75261960  1
  Zr  Zr6  1  0.00000000  0.26490547  0.75261960  1
  Zr  Zr7  1  0.26490547  0.26490547  0.24738040  1
  Zr  Zr8  1  0.73509453  1.00000000  0.24738040  1
  Zr  Zr9  1  1.00000000  0.73509453  0.24738040  1
  Ga  Ga0  1  0.00000000  0.00000000  0.50000000  1
  Cu  Cu0  1  0.00000000  0.00000000  0.00000000  1
  Sb  Sb0  1  0.38691326  0.38691326  0.75031595  1
  Sb  Sb1  1  0.61308674  1.00000000  0.75031595  1
  Sb  Sb2  1  1.00000000  0.61308674  0.75031595  1
  Sb  Sb3  1  0.61308674  0.61308674  0.24968405  1
  Sb  Sb4  1  0.38691326  0.00000000  0.24968405  1
  Sb  Sb5  1  0.00000000  0.38691326  0.24968405  1
loop_
_geom_bond_atom_site_label_1
_geom_bond_atom_site_label_2
_geom_bond_distance
_geom_bond_site_symmetry_2
Ga0 Zr6 2.722577 1_555
Ga0 Zr9 2.722577 1_445
Ga0 Zr5 2.722578 1_555
Ga0 Zr8 2.722578 1_445
Ga0 Zr7 2.722578 1_555
Ga0 Zr4 2.722578 1_445
Cu0 Zr6 2.706035 1_554
Cu0 Zr9 2.706035 1_445
Cu0 Zr5 2.706035 1_554
Cu0 Zr8 2.706035 1_445
Cu0 Zr7 2.706036 1_555
Cu0 Zr4 2.706036 1_444
Sb0 Zr5 2.956288 1_555
Sb0 Zr6 2.956288 1_555
Sb0 Zr4 3.004364 1_555
Sb0 Zr1 3.048566 1_556
Sb0 Zr0 3.048566 1_556
Sb0 Zr2 3.050342 1_555
Sb0 Zr3 3.050342 1_555
Sb0 Zr7 3.094845 1_556
Sb0 Zr7 3.127192 1_555
Sb1 Zr4 2.956288 1_555
Sb1 Zr6 2.956288 1_665
Sb1 Zr5 3.004363 1_565
Sb1 Zr0 3.048558 1_566
Sb1 Zr1 3.048561 1_556
Sb1 Zr3 3.050334 1_565
Sb1 Zr2 3.050337 1_555
Sb1 Zr8 3.094845 1_556
Sb1 Zr8 3.127191 1_555
Sb2 Zr4 2.956288 1_555
Sb2 Zr5 2.956288 1_665
Sb2 Zr6 3.004363 1_655
Sb2 Zr1 3.048559 1_656
Sb2 Zr0 3.048562 1_556
Sb2 Zr2 3.050334 1_655
Sb2 Zr3 3.050337 1_555
Sb2 Zr9 3.094845 1_556
Sb2 Zr9 3.127191 1_555
Sb3 Zr8 2.956288 1_555
Sb3 Zr9 2.956288 1_555
Sb3 Zr7 3.004364 1_555
Sb3 Zr0 3.048566 1_555
Sb3 Zr1 3.048566 1_555
Sb3 Zr3 3.050342 1_555
Sb3 Zr2 3.050342 1_555
Sb3 Zr4 3.094845 1_554
Sb3 Zr4 3.127192 1_555
Sb4 Zr7 2.956288 1_555
Sb4 Zr9 2.956288 1_445
Sb4 Zr8 3.004363 1_545
Sb4 Zr1 3.048558 1_545
Sb4 Zr0 3.048561 1_555
Sb4 Zr2 3.050334 1_545
Sb4 Zr3 3.050337 1_555
Sb4 Zr5 3.094845 1_554
Sb4 Zr5 3.127191 1_555
Sb5 Zr7 2.956288 1_555
Sb5 Zr8 2.956288 1_445
Sb5 Zr9 3.004363 1_455
Sb5 Zr0 3.048559 1_455
Sb5 Zr1 3.048562 1_555
Sb5 Zr3 3.050334 1_455
Sb5 Zr2 3.050337 1_555
Sb5 Zr6 3.094845 1_554
Sb5 Zr6 3.127191 1_555
