# generated using pymatgen
data_Ta4Te8H3
_symmetry_space_group_name_H-M   'P 1'
_cell_length_a   3.63294870
_cell_length_b   3.63295064
_cell_length_c   30.24316706
_cell_angle_alpha   90.00000000
_cell_angle_beta   90.00000000
_cell_angle_gamma   119.99999151
_symmetry_Int_Tables_number   1
_chemical_formula_structural   Ta4Te8H3
_chemical_formula_sum   'Ta4 Te8 H3'
_cell_volume   345.68194741
_cell_formula_units_Z   1
loop_
 _symmetry_equiv_pos_site_id
 _symmetry_equiv_pos_as_xyz
  1  'x, y, z'
loop_
 _atom_site_type_symbol
 _atom_site_label
 _atom_site_symmetry_multiplicity
 _atom_site_fract_x
 _atom_site_fract_y
 _atom_site_fract_z
 _atom_site_occupancy
  Ta  Ta0  1  0.66666700  0.33333300  0.00000000  1
  Ta  Ta1  1  0.66666700  0.33333300  0.50000000  1
  Ta  Ta2  1  0.33333300  0.66666700  0.24958566  1
  Ta  Ta3  1  0.33333300  0.66666700  0.75041434  1
  Te  Te0  1  0.66666700  0.33333300  0.31293131  1
  Te  Te1  1  0.66666700  0.33333300  0.81371651  1
  Te  Te2  1  0.33333300  0.66666700  0.93901632  1
  Te  Te3  1  0.33333300  0.66666700  0.43668432  1
  Te  Te4  1  0.33333300  0.66666700  0.06098368  1
  Te  Te5  1  0.33333300  0.66666700  0.56331568  1
  Te  Te6  1  0.66666700  0.33333300  0.18628349  1
  Te  Te7  1  0.66666700  0.33333300  0.68706869  1
  H  H0  1  0.00000000  0.00000000  0.50000000  1
  H  H1  1  0.00000000  0.00000000  0.24954405  1
  H  H2  1  0.00000000  0.00000000  0.75045595  1
loop_
_geom_bond_atom_site_label_1
_geom_bond_atom_site_label_2
_geom_bond_distance
_geom_bond_site_symmetry_2
Ta0 Te4 2.793030 1_655
Ta0 Te2 2.793030 1_654
Ta0 Te4 2.793031 1_545
Ta0 Te2 2.793031 1_544
Ta0 Te4 2.793035 1_555
Ta0 Te2 2.793035 1_554
Ta1 Te5 2.840096 1_655
Ta1 Te3 2.840096 1_655
Ta1 Te5 2.840097 1_545
Ta1 Te3 2.840097 1_545
Ta1 Te5 2.840101 1_555
Ta1 Te3 2.840101 1_555
Ta2 Te6 2.839820 1_455
Ta2 Te6 2.839821 1_565
Ta2 Te6 2.839825 1_555
Ta2 Te0 2.840707 1_455
Ta2 Te0 2.840708 1_565
Ta2 Te0 2.840712 1_555
Ta3 Te1 2.839820 1_455
Ta3 Te1 2.839821 1_565
Ta3 Te1 2.839825 1_555
Ta3 Te7 2.840707 1_455
Ta3 Te7 2.840708 1_565
Ta3 Te7 2.840712 1_555
H0 Ta1 2.097482 1_455
H0 Ta1 2.097485 1_555
H0 Ta1 2.097486 1_445
H1 Ta2 2.097483 1_545
H1 Ta2 2.097486 1_445
H1 Ta2 2.097487 1_555
H2 Ta3 2.097483 1_545
H2 Ta3 2.097486 1_445
H2 Ta3 2.097487 1_555
