# generated using pymatgen
data_KBaAlO3
_symmetry_space_group_name_H-M   'P 1'
_cell_length_a   6.41855663
_cell_length_b   6.41855581
_cell_length_c   12.73327387
_cell_angle_alpha   90.00000000
_cell_angle_beta   90.00000000
_cell_angle_gamma   128.02714609
_symmetry_Int_Tables_number   1
_chemical_formula_structural   KBaAlO3
_chemical_formula_sum   'K4 Ba4 Al4 O12'
_cell_volume   413.22452103
_cell_formula_units_Z   4
loop_
 _symmetry_equiv_pos_site_id
 _symmetry_equiv_pos_as_xyz
  1  'x, y, z'
loop_
 _atom_site_type_symbol
 _atom_site_label
 _atom_site_symmetry_multiplicity
 _atom_site_fract_x
 _atom_site_fract_y
 _atom_site_fract_z
 _atom_site_occupancy
  K  K0  1  0.45293610  0.54706390  0.64067105  1
  K  K1  1  0.54706390  0.45293610  0.35932895  1
  K  K2  1  0.04706390  0.95293610  0.14067105  1
  K  K3  1  0.95293610  0.04706390  0.85932895  1
  Ba  Ba0  1  0.64437163  0.35562837  0.91955884  1
  Ba  Ba1  1  0.85562837  0.14437163  0.41955884  1
  Ba  Ba2  1  0.14437163  0.85562837  0.58044116  1
  Ba  Ba3  1  0.35562837  0.64437163  0.08044116  1
  Al  Al0  1  0.22289945  0.77710055  0.33089779  1
  Al  Al1  1  0.72289945  0.27710055  0.16910221  1
  Al  Al2  1  0.77710055  0.22289945  0.66910221  1
  Al  Al3  1  0.27710055  0.72289945  0.83089779  1
  O  O0  1  0.99957671  0.50042329  0.75000000  1
  O  O1  1  0.50042329  0.99957671  0.25000000  1
  O  O2  1  0.00042329  0.49957671  0.25000000  1
  O  O3  1  0.49957671  0.00042329  0.75000000  1
  O  O4  1  0.42180297  0.57819703  0.87420961  1
  O  O5  1  0.57819703  0.42180297  0.12579039  1
  O  O6  1  0.07819703  0.92180297  0.37420961  1
  O  O7  1  0.67823216  0.32176784  0.56361083  1
  O  O8  1  0.17823216  0.82176784  0.93638917  1
  O  O9  1  0.82176784  0.17823216  0.06361083  1
  O  O10  1  0.32176784  0.67823216  0.43638917  1
  O  O11  1  0.92180297  0.07819703  0.62579039  1
loop_
_geom_bond_atom_site_label_1
_geom_bond_atom_site_label_2
_geom_bond_distance
_geom_bond_site_symmetry_2
K0 O7 2.778759 1_555
K0 O11 2.841521 1_565
K0 O11 2.841521 1_455
K0 O4 2.995332 1_555
K0 O10 3.009495 1_555
K0 O3 3.069512 1_565
K0 O0 3.069513 1_455
K1 O10 2.778759 1_555
K1 O6 2.841521 1_545
K1 O6 2.841521 1_655
K1 O5 2.995332 1_555
K1 O7 3.009495 1_555
K1 O1 3.069512 1_545
K1 O2 3.069513 1_655
K2 O9 2.778759 1_465
K2 O5 2.841521 1_455
K2 O5 2.841521 1_565
K2 O6 2.995332 1_555
K2 O8 3.009495 1_554
K2 O2 3.069512 1_555
K2 O1 3.069513 1_555
K3 O8 2.778759 1_645
K3 O4 2.841521 1_655
K3 O4 2.841521 1_545
K3 O11 2.995332 1_555
K3 O9 3.009495 1_556
K3 O0 3.069512 1_555
K3 O3 3.069513 1_555
Ba0 O4 2.632391 1_555
Ba0 O5 2.734773 1_556
Ba0 O9 2.748595 1_556
Ba0 O8 2.847432 1_545
Ba0 O8 2.847432 1_655
Ba0 O3 2.848251 1_555
Ba0 O0 2.848251 1_555
Ba1 O6 2.632391 1_645
Ba1 O11 2.734773 1_555
Ba1 O7 2.748595 1_555
Ba1 O10 2.847432 1_655
Ba1 O10 2.847432 1_545
Ba1 O2 2.848251 1_655
Ba1 O1 2.848251 1_545
Ba2 O11 2.632391 1_465
Ba2 O6 2.734773 1_555
Ba2 O10 2.748595 1_555
Ba2 O7 2.847432 1_455
Ba2 O7 2.847432 1_565
Ba2 O0 2.848251 1_455
Ba2 O3 2.848251 1_565
Ba3 O5 2.632391 1_555
Ba3 O4 2.734773 1_554
Ba3 O8 2.748595 1_554
Ba3 O9 2.847432 1_565
Ba3 O9 2.847432 1_455
Ba3 O1 2.848251 1_555
Ba3 O2 2.848251 1_555
Al0 O6 1.758478 1_555
Al0 O10 1.762356 1_555
Al0 O2 1.771803 1_555
Al0 O1 1.771803 1_555
Al1 O5 1.758478 1_555
Al1 O9 1.762356 1_555
Al1 O1 1.771803 1_545
Al1 O2 1.771803 1_655
Al2 O11 1.758478 1_555
Al2 O7 1.762356 1_555
Al2 O0 1.771803 1_555
Al2 O3 1.771803 1_555
Al3 O4 1.758478 1_555
Al3 O8 1.762356 1_555
Al3 O3 1.771803 1_565
Al3 O0 1.771803 1_455
