# generated using pymatgen
data_Cd2Ni3SbO8
_symmetry_space_group_name_H-M   'P 1'
_cell_length_a   6.19795204
_cell_length_b   6.13800468
_cell_length_c   6.13181571
_cell_angle_alpha   60.00930358
_cell_angle_beta   90.02075330
_cell_angle_gamma   119.63097127
_symmetry_Int_Tables_number   1
_chemical_formula_structural   Cd2Ni3SbO8
_chemical_formula_sum   'Cd2 Ni3 Sb1 O8'
_cell_volume   165.91542547
_cell_formula_units_Z   1
loop_
 _symmetry_equiv_pos_site_id
 _symmetry_equiv_pos_as_xyz
  1  'x, y, z'
loop_
 _atom_site_type_symbol
 _atom_site_label
 _atom_site_symmetry_multiplicity
 _atom_site_fract_x
 _atom_site_fract_y
 _atom_site_fract_z
 _atom_site_occupancy
  Cd  Cd0  1  0.96752335  0.97808500  0.01122950  1
  Cd  Cd1  1  0.78251157  0.52190023  0.73878869  1
  Ni  Ni0  1  0.37497432  0.25001641  0.37498580  1
  Ni  Ni1  1  0.37499654  0.74999441  0.37497488  1
  Ni  Ni2  1  0.37498307  0.74997869  0.87503395  1
  Sb  Sb0  1  0.87500815  0.24999916  0.37499520  1
  O  O0  1  0.12731192  0.27384990  0.14625901  1
  O  O1  1  0.62288053  0.22640668  0.16968764  1
  O  O2  1  0.54591792  0.69621376  0.15211311  1
  O  O3  1  0.12660367  0.70643246  0.14682395  1
  O  O4  1  0.62267405  0.22618797  0.60376566  1
  O  O5  1  0.12710175  0.27360858  0.58028378  1
  O  O6  1  0.20411981  0.80381415  0.59785937  1
  O  O7  1  0.62339836  0.79351159  0.60319945  1
loop_
_geom_bond_atom_site_label_1
_geom_bond_atom_site_label_2
_geom_bond_distance
_geom_bond_site_symmetry_2
Cd0 O2 2.145892 1_555
Cd0 O3 2.163969 1_655
Cd0 O0 2.164796 1_665
Cd0 O5 2.164998 1_664
Cd1 O6 2.145907 1_655
Cd1 O7 2.163936 1_555
Cd1 O4 2.164518 1_555
Cd1 O1 2.164781 1_556
Ni0 O2 1.970019 1_555
Ni0 O6 1.970124 1_545
Ni0 O0 2.088069 1_555
Ni0 O4 2.088451 1_555
Ni0 O5 2.090340 1_555
Ni0 O1 2.090580 1_555
Ni1 O2 1.973953 1_555
Ni1 O6 1.974077 1_555
Ni1 O3 2.089052 1_555
Ni1 O7 2.089393 1_555
Ni1 O5 2.091530 1_555
Ni1 O1 2.091659 1_565
Ni2 O2 1.975301 1_556
Ni2 O6 1.975482 1_555
Ni2 O3 2.090079 1_556
Ni2 O0 2.090454 1_556
Ni2 O7 2.090481 1_555
Ni2 O4 2.090800 1_565
O0 Sb0 2.000985 1_455
O1 Sb0 2.001209 1_555
O3 Sb0 2.000278 1_455
O4 Sb0 2.001426 1_555
O5 Sb0 2.000974 1_455
O7 Sb0 2.000508 1_565
