# generated using pymatgen
data_Ca(NdTe2)2
_symmetry_space_group_name_H-M   'P 1'
_cell_length_a   8.29391459
_cell_length_b   8.29391459
_cell_length_c   8.29391459
_cell_angle_alpha   109.77016499
_cell_angle_beta   109.77016499
_cell_angle_gamma   108.87497219
_symmetry_Int_Tables_number   1
_chemical_formula_structural   Ca(NdTe2)2
_chemical_formula_sum   'Ca2 Nd4 Te8'
_cell_volume   439.15876383
_cell_formula_units_Z   2
loop_
 _symmetry_equiv_pos_site_id
 _symmetry_equiv_pos_as_xyz
  1  'x, y, z'
loop_
 _atom_site_type_symbol
 _atom_site_label
 _atom_site_symmetry_multiplicity
 _atom_site_fract_x
 _atom_site_fract_y
 _atom_site_fract_z
 _atom_site_occupancy
  Ca  Ca0  1  0.75000000  0.25000000  0.50000000  1
  Ca  Ca1  1  0.00000000  0.00000000  0.00000000  1
  Nd  Nd0  1  0.37500000  0.75063300  0.87563300  1
  Nd  Nd1  1  0.50063300  0.62500000  0.37563300  1
  Nd  Nd2  1  0.87500000  0.49936700  0.12436700  1
  Nd  Nd3  1  0.24936700  0.12500000  0.62436700  1
  Te  Te0  1  0.26909300  0.87185700  0.24745400  1
  Te  Te1  1  0.77163900  0.87440300  0.25254600  1
  Te  Te2  1  0.12559700  0.37814300  0.89723600  1
  Te  Te3  1  0.97836100  0.73090700  0.60276400  1
  Te  Te4  1  0.62185700  0.51909300  0.74745400  1
  Te  Te5  1  0.48090700  0.22836100  0.10276400  1
  Te  Te6  1  0.12814300  0.37559700  0.39723600  1
  Te  Te7  1  0.62440300  0.02163900  0.75254600  1
loop_
_geom_bond_atom_site_label_1
_geom_bond_atom_site_label_2
_geom_bond_distance
_geom_bond_site_symmetry_2
Ca0 Te2 3.199133 1_655
Ca0 Te4 3.199133 1_555
Ca0 Te1 3.199133 1_545
Ca0 Te5 3.199133 1_555
Ca0 Te0 3.455868 1_545
Ca0 Te3 3.455868 1_555
Ca0 Te7 3.455868 1_555
Ca0 Te6 3.455868 1_655
Ca1 Te7 3.199133 1_454
Ca1 Te6 3.199133 1_555
Ca1 Te3 3.199133 1_444
Ca1 Te0 3.199133 1_545
Ca1 Te4 3.455868 1_444
Ca1 Te1 3.455868 1_445
Ca1 Te2 3.455868 1_554
Ca1 Te5 3.455868 1_555
Nd0 Te1 3.214874 1_556
Nd0 Te3 3.214874 1_455
Nd0 Te2 3.216486 1_555
Nd0 Te7 3.216486 1_565
Nd0 Te0 3.405722 1_556
Nd0 Te5 3.405722 1_566
Nd0 Te4 3.412504 1_555
Nd0 Te6 3.412504 1_555
Nd1 Te7 3.214874 1_565
Nd1 Te5 3.214874 1_555
Nd1 Te6 3.216486 1_555
Nd1 Te1 3.216486 1_555
Nd1 Te4 3.405722 1_555
Nd1 Te3 3.405722 1_555
Nd1 Te0 3.412504 1_555
Nd1 Te2 3.412504 1_554
Nd2 Te4 3.214874 1_554
Nd2 Te6 3.214874 1_655
Nd2 Te5 3.216486 1_555
Nd2 Te0 3.216486 1_655
Nd2 Te2 3.405722 1_654
Nd2 Te7 3.405722 1_554
Nd2 Te3 3.412504 1_555
Nd2 Te1 3.412504 1_555
Nd3 Te2 3.214874 1_555
Nd3 Te0 3.214874 1_545
Nd3 Te3 3.216486 1_445
Nd3 Te4 3.216486 1_555
Nd3 Te1 3.405722 1_445
Nd3 Te6 3.405722 1_555
Nd3 Te7 3.412504 1_555
Nd3 Te5 3.412504 1_556
