# generated using pymatgen
data_Hf4Ga3Si3Ir7
_symmetry_space_group_name_H-M   'P 1'
_cell_length_a   6.99096856
_cell_length_b   6.99096927
_cell_length_c   6.99096784
_cell_angle_alpha   109.27843073
_cell_angle_beta   109.27842943
_cell_angle_gamma   109.27843587
_symmetry_Int_Tables_number   1
_chemical_formula_structural   Hf4Ga3Si3Ir7
_chemical_formula_sum   'Hf4 Ga3 Si3 Ir7'
_cell_volume   264.88159539
_cell_formula_units_Z   1
loop_
 _symmetry_equiv_pos_site_id
 _symmetry_equiv_pos_as_xyz
  1  'x, y, z'
loop_
 _atom_site_type_symbol
 _atom_site_label
 _atom_site_symmetry_multiplicity
 _atom_site_fract_x
 _atom_site_fract_y
 _atom_site_fract_z
 _atom_site_occupancy
  Hf  Hf0  1  0.54369053  0.54369053  0.54369053  1
  Hf  Hf1  1  0.00293327  0.00293327  0.52368342  1
  Hf  Hf2  1  0.00293327  0.52368342  0.00293327  1
  Hf  Hf3  1  0.52368342  0.00293327  0.00293327  1
  Ga  Ga0  1  0.01527655  0.30280484  0.30280484  1
  Ga  Ga1  1  0.30280484  0.01527655  0.30280484  1
  Ga  Ga2  1  0.30280484  0.30280484  0.01527655  1
  Si  Si0  1  0.00666117  0.67233686  0.67233686  1
  Si  Si1  1  0.67233686  0.00666117  0.67233686  1
  Si  Si2  1  0.67233686  0.67233686  0.00666117  1
  Ir  Ir0  1  0.50028752  0.75255597  0.25081702  1
  Ir  Ir1  1  0.25081702  0.50028752  0.75255597  1
  Ir  Ir2  1  0.75255597  0.25081702  0.50028752  1
  Ir  Ir3  1  0.75255597  0.50028752  0.25081702  1
  Ir  Ir4  1  0.50028752  0.25081702  0.75255597  1
  Ir  Ir5  1  0.25081702  0.75255597  0.50028752  1
  Ir  Ir6  1  0.94721739  0.94721739  0.94721739  1
loop_
_geom_bond_atom_site_label_1
_geom_bond_atom_site_label_2
_geom_bond_distance
_geom_bond_site_symmetry_2
Hf0 Si2 2.777597 1_556
Hf0 Si0 2.777597 1_655
Hf0 Si1 2.777597 1_565
Hf0 Ir6 2.847781 1_555
Hf0 Ir3 2.876240 1_555
Hf0 Ir1 2.876240 1_555
Hf0 Ir0 2.876240 1_555
Hf0 Ir4 2.876240 1_555
Hf0 Ir5 2.876240 1_555
Hf0 Ir2 2.876240 1_555
Hf1 Si1 2.833753 1_455
Hf1 Si0 2.833753 1_545
Hf1 Ir5 2.845129 1_545
Hf1 Ir2 2.845129 1_455
Hf1 Ir4 2.858232 1_555
Hf1 Ir1 2.858233 1_555
Hf1 Ir0 2.891061 1_445
Hf1 Ir3 2.891061 1_445
Hf1 Si2 3.031215 1_445
Hf1 Ir6 3.239343 1_445
Hf2 Si0 2.833753 1_554
Hf2 Si2 2.833753 1_455
Hf2 Ir3 2.845129 1_455
Hf2 Ir1 2.845129 1_554
Hf2 Ir5 2.858232 1_555
Hf2 Ir0 2.858232 1_555
Hf2 Ir2 2.891061 1_454
Hf2 Ir4 2.891061 1_454
Hf2 Si1 3.031216 1_454
Hf2 Ir6 3.239344 1_454
Hf3 Si1 2.833753 1_554
Hf3 Si2 2.833754 1_545
Hf3 Ir0 2.845129 1_545
Hf3 Ir4 2.845129 1_554
Hf3 Ir2 2.858232 1_555
Hf3 Ir3 2.858233 1_555
Hf3 Ir5 2.891061 1_544
Hf3 Ir1 2.891061 1_544
Hf3 Si0 3.031216 1_544
Hf3 Ir6 3.239343 1_544
Ga0 Ir1 2.591767 1_555
Ga0 Ir5 2.591767 1_555
Ga0 Ir6 2.634992 1_444
Ga0 Ir2 2.641290 1_455
Ga0 Ir3 2.641290 1_455
Ga0 Hf3 2.860755 1_455
Ga0 Hf2 2.982081 1_555
Ga0 Hf1 2.982082 1_555
Ga0 Hf0 3.038115 1_555
Ga1 Ir4 2.591767 1_555
Ga1 Ir2 2.591767 1_555
Ga1 Ir6 2.634992 1_444
Ga1 Ir5 2.641290 1_545
Ga1 Ir0 2.641290 1_545
Ga1 Hf2 2.860756 1_545
Ga1 Hf3 2.982081 1_555
Ga1 Hf1 2.982081 1_555
Ga1 Hf0 3.038115 1_555
Ga2 Ir3 2.591767 1_555
Ga2 Ir0 2.591767 1_555
Ga2 Ir6 2.634992 1_444
Ga2 Ir4 2.641290 1_554
Ga2 Ir1 2.641290 1_554
Ga2 Hf1 2.860755 1_554
Ga2 Hf2 2.982082 1_555
Ga2 Hf3 2.982082 1_555
Ga2 Hf0 3.038115 1_555
Ir0 Si2 2.417365 1_555
Ir0 Si1 2.465410 1_565
Ir1 Si0 2.417365 1_555
Ir1 Si2 2.465410 1_556
Ir2 Si1 2.417365 1_555
Ir2 Si0 2.465410 1_655
Ir3 Si2 2.417365 1_555
Ir3 Si0 2.465410 1_655
Ir4 Si1 2.417365 1_555
Ir4 Si2 2.465410 1_556
Ir5 Si0 2.417365 1_555
Ir5 Si1 2.465410 1_565
Ir6 Si2 2.484875 1_556
Ir6 Si1 2.484875 1_565
Ir6 Si0 2.484875 1_655
