# generated using pymatgen
data_Ca2PtRh3
_symmetry_space_group_name_H-M   'P 1'
_cell_length_a   5.31716405
_cell_length_b   5.31716480
_cell_length_c   5.35438410
_cell_angle_alpha   60.22967276
_cell_angle_beta   60.22966789
_cell_angle_gamma   59.99999538
_symmetry_Int_Tables_number   1
_chemical_formula_structural   Ca2PtRh3
_chemical_formula_sum   'Ca2 Pt1 Rh3'
_cell_volume   107.41220636
_cell_formula_units_Z   1
loop_
 _symmetry_equiv_pos_site_id
 _symmetry_equiv_pos_as_xyz
  1  'x, y, z'
loop_
 _atom_site_type_symbol
 _atom_site_label
 _atom_site_symmetry_multiplicity
 _atom_site_fract_x
 _atom_site_fract_y
 _atom_site_fract_z
 _atom_site_occupancy
  Ca  Ca0  1  0.00080324  0.00080324  0.99759029  1
  Ca  Ca1  1  0.24919676  0.24919676  0.25240971  1
  Pt  Pt0  1  0.62500000  0.62500000  0.12500000  1
  Rh  Rh0  1  0.12500000  0.62500000  0.62500000  1
  Rh  Rh1  1  0.62500000  0.62500000  0.62500000  1
  Rh  Rh2  1  0.62500000  0.12500000  0.62500000  1
loop_
_geom_bond_atom_site_label_1
_geom_bond_atom_site_label_2
_geom_bond_distance
_geom_bond_site_symmetry_2
Ca0 Pt0 3.120335 1_546
Ca0 Pt0 3.120335 1_446
Ca0 Pt0 3.120336 1_456
Ca0 Rh2 3.120859 1_555
Ca0 Rh1 3.120859 1_545
Ca0 Rh1 3.120860 1_455
Ca0 Rh0 3.120860 1_555
Ca0 Rh2 3.120860 1_455
Ca0 Rh0 3.120860 1_545
Ca0 Rh1 3.151478 1_446
Ca0 Rh2 3.151478 1_456
Ca0 Rh0 3.151478 1_546
Ca1 Pt0 3.120335 1_455
Ca1 Pt0 3.120335 1_555
Ca1 Pt0 3.120336 1_545
Ca1 Rh2 3.120859 1_455
Ca1 Rh1 3.120859 1_455
Ca1 Rh1 3.120860 1_545
Ca1 Rh0 3.120860 1_545
Ca1 Rh2 3.120860 1_555
Ca1 Rh0 3.120860 1_555
Ca1 Rh1 3.151478 1_554
Ca1 Rh2 3.151478 1_554
Ca1 Rh0 3.151478 1_554
Pt0 Rh0 2.677191 1_654
Pt0 Rh0 2.677191 1_555
Pt0 Rh2 2.677192 1_564
Pt0 Rh2 2.677192 1_555
Pt0 Rh1 2.677192 1_555
Pt0 Rh1 2.677192 1_554
Rh0 Rh1 2.658582 1_455
Rh0 Rh1 2.658582 1_555
Rh0 Rh2 2.658582 1_555
Rh0 Rh2 2.658582 1_465
Rh1 Rh2 2.658582 1_555
Rh1 Rh2 2.658582 1_565
