# generated using pymatgen
data_Ti5GaSnBi
_symmetry_space_group_name_H-M   'P 1'
_cell_length_a   5.20595567
_cell_length_b   7.91056713
_cell_length_c   7.91683990
_cell_angle_alpha   83.80327973
_cell_angle_beta   70.83267307
_cell_angle_gamma   70.79142108
_symmetry_Int_Tables_number   1
_chemical_formula_structural   Ti5GaSnBi
_chemical_formula_sum   'Ti10 Ga2 Sn2 Bi2'
_cell_volume   290.81291120
_cell_formula_units_Z   2
loop_
 _symmetry_equiv_pos_site_id
 _symmetry_equiv_pos_as_xyz
  1  'x, y, z'
loop_
 _atom_site_type_symbol
 _atom_site_label
 _atom_site_symmetry_multiplicity
 _atom_site_fract_x
 _atom_site_fract_y
 _atom_site_fract_z
 _atom_site_occupancy
  Ti  Ti0  1  0.71386078  0.86290035  0.70906811  1
  Ti  Ti1  1  0.28613922  0.13709965  0.29093189  1
  Ti  Ti2  1  0.78424924  0.28613677  0.14501604  1
  Ti  Ti3  1  0.21575076  0.71386323  0.85498396  1
  Ti  Ti4  1  0.57088674  0.71390937  0.14498516  1
  Ti  Ti5  1  0.42911326  0.28609063  0.85501484  1
  Ti  Ti6  1  0.07693758  0.13707321  0.70905787  1
  Ti  Ti7  1  0.92306242  0.86292679  0.29094213  1
  Ti  Ti8  1  0.74534252  0.50005950  0.49989022  1
  Ti  Ti9  1  0.25465748  0.49994050  0.50010978  1
  Ga  Ga0  1  0.24999534  0.00001224  0.99999977  1
  Ga  Ga1  1  0.75000466  0.99998776  0.00000023  1
  Sn  Sn0  1  0.33556903  0.82879114  0.49994786  1
  Sn  Sn1  1  0.66443097  0.17120886  0.50005214  1
  Bi  Bi0  1  0.16529748  0.50006843  0.16941021  1
  Bi  Bi1  1  0.83470252  0.49993157  0.83058979  1
loop_
_geom_bond_atom_site_label_1
_geom_bond_atom_site_label_2
_geom_bond_distance
_geom_bond_site_symmetry_2
Ti0 Ti3 3.033055 1_555
Ti0 Ti3 3.035168 1_655
Ti0 Ti7 3.126730 1_555
Ti0 Ti5 3.344297 1_565
Ti0 Ti4 3.444633 1_556
Ti1 Ti2 3.033055 1_555
Ti1 Ti2 3.035168 1_455
Ti1 Ti6 3.126730 1_555
Ti1 Ti4 3.344297 1_545
Ti1 Ti5 3.444633 1_554
Ti2 Ti4 3.195532 1_555
Ti2 Ti7 3.344571 1_545
Ti2 Ti8 3.350389 1_555
Ti2 Ti9 3.351618 1_555
Ti2 Ti5 3.387802 1_554
Ti2 Ti5 3.388154 1_654
Ti2 Ti6 3.444911 1_654
Ti3 Ti5 3.195532 1_555
Ti3 Ti6 3.344571 1_565
Ti3 Ti9 3.350389 1_555
Ti3 Ti8 3.351618 1_555
Ti3 Ti4 3.387802 1_556
Ti3 Ti4 3.388154 1_456
Ti3 Ti7 3.444911 1_456
Ti4 Ti7 3.032090 1_555
Ti4 Ti7 3.036103 1_455
Ti4 Ti8 3.349587 1_555
Ti4 Ti9 3.353571 1_555
Ti5 Ti6 3.032090 1_555
Ti5 Ti6 3.036103 1_655
Ti5 Ti9 3.349587 1_555
Ti5 Ti8 3.353571 1_555
Ti8 Ti9 2.554224 1_555
Ti8 Ti9 2.651733 1_655
Ga0 Ga1 2.602964 1_546
Ga0 Ga1 2.602992 1_446
Ga0 Ti5 2.726415 1_555
Ga0 Ti3 2.726665 1_545
Ga0 Ti4 2.727806 1_546
Ga0 Ti2 2.727988 1_456
Ga0 Ti6 2.733746 1_555
Ga0 Ti1 2.733956 1_556
Ga0 Ti0 2.734311 1_545
Ga0 Ti7 2.734802 1_446
Ga1 Ti4 2.726415 1_555
Ga1 Ti2 2.726665 1_565
Ga1 Ti5 2.727806 1_564
Ga1 Ti3 2.727988 1_654
Ga1 Ti7 2.733746 1_555
Ga1 Ti0 2.733956 1_554
Ga1 Ti1 2.734311 1_565
Ga1 Ti6 2.734802 1_664
Sn0 Ti8 2.768117 1_555
Sn0 Ti9 2.768509 1_555
Sn0 Ti6 2.783521 1_565
Sn0 Ti1 2.783523 1_565
Sn0 Ti4 2.789607 1_555
Sn0 Ti3 2.790380 1_555
Sn0 Ti7 3.045958 1_455
Sn0 Ti0 3.046181 1_555
Sn0 Ti7 3.047763 1_555
Sn0 Ti0 3.048339 1_455
Sn1 Ti9 2.768117 1_555
Sn1 Ti8 2.768509 1_555
Sn1 Ti7 2.783521 1_545
Sn1 Ti0 2.783523 1_545
Sn1 Ti5 2.789607 1_555
Sn1 Ti2 2.790380 1_555
Sn1 Ti6 3.045958 1_655
Sn1 Ti1 3.046181 1_555
Sn1 Ti6 3.047763 1_555
Sn1 Ti1 3.048339 1_655
Bi0 Ti8 2.805181 1_455
Bi0 Ti9 2.805304 1_555
Bi0 Ti3 2.842500 1_554
Bi0 Ti5 2.842839 1_554
Bi0 Ti7 2.858830 1_455
Bi0 Ti1 2.859742 1_555
Bi0 Ti4 3.058192 1_455
Bi0 Ti2 3.059048 1_555
Bi0 Ti2 3.060644 1_455
Bi0 Ti4 3.060854 1_555
Bi1 Ti9 2.805181 1_655
Bi1 Ti8 2.805304 1_555
Bi1 Ti2 2.842500 1_556
Bi1 Ti4 2.842839 1_556
Bi1 Ti6 2.858830 1_655
Bi1 Ti0 2.859742 1_555
Bi1 Ti5 3.058192 1_655
Bi1 Ti3 3.059048 1_555
Bi1 Ti3 3.060644 1_655
Bi1 Ti5 3.060854 1_555
