# generated using pymatgen
data_Y6TiAl15Os7
_symmetry_space_group_name_H-M   'P 1'
_cell_length_a   8.93744716
_cell_length_b   8.93744744
_cell_length_c   8.91020023
_cell_angle_alpha   59.89879224
_cell_angle_beta   59.89879429
_cell_angle_gamma   60.00000601
_symmetry_Int_Tables_number   1
_chemical_formula_structural   Y6TiAl15Os7
_chemical_formula_sum   'Y6 Ti1 Al15 Os7'
_cell_volume   502.49693806
_cell_formula_units_Z   1
loop_
 _symmetry_equiv_pos_site_id
 _symmetry_equiv_pos_as_xyz
  1  'x, y, z'
loop_
 _atom_site_type_symbol
 _atom_site_label
 _atom_site_symmetry_multiplicity
 _atom_site_fract_x
 _atom_site_fract_y
 _atom_site_fract_z
 _atom_site_occupancy
  Y  Y0  1  0.70915551  0.70915551  0.28766171  1
  Y  Y1  1  0.29402828  0.70915551  0.28766171  1
  Y  Y2  1  0.70915551  0.29402828  0.28766171  1
  Y  Y3  1  0.28842228  0.28842228  0.71402867  1
  Y  Y4  1  0.70912678  0.28842228  0.71402867  1
  Y  Y5  1  0.28842228  0.70912678  0.71402867  1
  Ti  Ti0  1  0.88067917  0.88067917  0.35796050  1
  Al  Al0  1  0.87871050  0.36336682  0.87921117  1
  Al  Al1  1  0.36336682  0.87871050  0.87921117  1
  Al  Al2  1  0.87871050  0.87871050  0.87921117  1
  Al  Al3  1  0.12274901  0.12274901  0.63175597  1
  Al  Al4  1  0.11940876  0.63767162  0.12351287  1
  Al  Al5  1  0.63767162  0.11940876  0.12351287  1
  Al  Al6  1  0.11940876  0.11940876  0.12351287  1
  Al  Al7  1  0.66983786  0.66983786  0.99048743  1
  Al  Al8  1  0.66946394  0.99145148  0.66962163  1
  Al  Al9  1  0.99145148  0.66946394  0.66962163  1
  Al  Al10  1  0.66946394  0.66946394  0.66962163  1
  Al  Al11  1  0.33012639  0.33012639  0.00961983  1
  Al  Al12  1  0.33132437  0.00715524  0.33019501  1
  Al  Al13  1  0.00715524  0.33132437  0.33019501  1
  Al  Al14  1  0.33132437  0.33132437  0.33019501  1
  Os  Os0  1  0.99887694  0.99887694  0.00337019  1
  Os  Os1  1  0.99998583  0.99998583  0.49932655  1
  Os  Os2  1  0.50070079  0.99998583  0.49932655  1
  Os  Os3  1  0.99998583  0.50070079  0.49932655  1
  Os  Os4  1  0.50018298  0.50018298  0.99871275  1
  Os  Os5  1  0.00092229  0.50018298  0.99871275  1
  Os  Os6  1  0.50018298  0.00092229  0.99871275  1
loop_
_geom_bond_atom_site_label_1
_geom_bond_atom_site_label_2
_geom_bond_distance
_geom_bond_site_symmetry_2
Ti0 Y0 3.060847 1_555
Ti0 Y1 3.060870 1_655
Ti0 Y2 3.060870 1_565
Al0 Os0 2.658497 1_546
Al0 Os3 2.760725 1_555
Al0 Os4 2.762262 1_555
Al0 Os5 2.762276 1_655
Al0 Y2 3.011713 1_556
Al0 Y4 3.025503 1_555
Al0 Y3 3.025510 1_655
Al1 Os0 2.658497 1_456
Al1 Os2 2.760725 1_555
Al1 Os4 2.762262 1_555
Al1 Os6 2.762276 1_565
Al1 Y1 3.011713 1_556
Al1 Y5 3.025503 1_555
Al1 Y3 3.025510 1_565
Al2 Os0 2.658512 1_556
Al2 Os1 2.760725 1_555
Al2 Os6 2.762262 1_565
Al2 Os5 2.762262 1_655
Al2 Y0 3.011710 1_556
Al2 Y4 3.025509 1_565
Al2 Y5 3.025509 1_655
Al3 Os0 2.699405 1_446
Al3 Os2 2.756969 1_545
Al3 Os3 2.756969 1_455
Al3 Os1 2.756997 1_445
Al3 Y3 3.048328 1_555
Al3 Y4 3.048351 1_455
Al3 Y5 3.048351 1_545
Al4 Os0 2.634527 1_455
Al4 Os3 2.731412 1_455
Al4 Os4 2.778644 1_554
Al4 Os5 2.778651 1_554
Al4 Ti0 3.013198 1_455
Al4 Y5 3.016791 1_554
Al4 Y1 3.034297 1_555
Al4 Y0 3.034305 1_455
Al5 Os0 2.634527 1_545
Al5 Os2 2.731412 1_545
Al5 Os4 2.778644 1_554
Al5 Os6 2.778651 1_554
Al5 Ti0 3.013198 1_545
Al5 Y4 3.016791 1_554
Al5 Y2 3.034297 1_555
Al5 Y0 3.034305 1_545
Al6 Os0 2.634534 1_445
Al6 Os1 2.731411 1_445
Al6 Os6 2.778643 1_554
Al6 Os5 2.778643 1_554
Al6 Ti0 3.013223 1_445
Al6 Y3 3.016789 1_554
Al6 Y1 3.034303 1_545
Al6 Y2 3.034303 1_455
Al7 Os4 2.584524 1_555
Al7 Os5 2.584524 1_655
Al7 Os6 2.584525 1_565
Al7 Y0 3.041109 1_556
Al7 Y2 3.041109 1_556
Al7 Y1 3.041109 1_556
Al8 Os6 2.562291 1_565
Al8 Os1 2.578304 1_555
Al8 Os2 2.578319 1_555
Al8 Ti0 2.808162 1_555
Al8 Y4 3.075993 1_565
Al8 Y3 3.075999 1_565
Al8 Y2 3.088406 1_565
Al9 Os5 2.562291 1_655
Al9 Os1 2.578304 1_555
Al9 Os3 2.578319 1_555
Al9 Ti0 2.808162 1_555
Al9 Y5 3.075993 1_655
Al9 Y3 3.075999 1_655
Al9 Y1 3.088406 1_655
Al10 Os4 2.562290 1_555
Al10 Os2 2.578310 1_555
Al10 Os3 2.578310 1_555
Al10 Ti0 2.808148 1_555
Al10 Y5 3.076002 1_555
Al10 Y4 3.076002 1_555
Al10 Y0 3.088406 1_555
Al11 Os5 2.577417 1_554
Al11 Os6 2.577417 1_554
Al11 Os4 2.577432 1_554
Al11 Y3 3.053347 1_554
Al11 Y5 3.053353 1_554
Al11 Y4 3.053353 1_554
Al12 Os6 2.571806 1_554
Al12 Os2 2.580913 1_545
Al12 Os1 2.580913 1_445
Al12 Y1 3.061886 1_545
Al12 Y0 3.061897 1_545
Al12 Y5 3.083333 1_545
Al13 Os5 2.571806 1_554
Al13 Os3 2.580913 1_455
Al13 Os1 2.580913 1_445
Al13 Y2 3.061886 1_455
Al13 Y0 3.061897 1_455
Al13 Y4 3.083333 1_455
Al14 Os4 2.571811 1_554
Al14 Os2 2.580913 1_545
Al14 Os3 2.580913 1_455
Al14 Y2 3.061904 1_555
Al14 Y1 3.061904 1_555
Al14 Y3 3.083336 1_555
Os0 Ti0 2.575744 1_555
Os1 Ti0 2.773443 1_555
Os1 Y5 3.212468 1_655
Os1 Y4 3.212468 1_565
Os1 Y2 3.214701 1_565
Os1 Y1 3.214701 1_655
Os2 Ti0 2.773436 1_555
Os2 Y5 3.212461 1_555
Os2 Y3 3.212469 1_565
Os2 Y0 3.214699 1_555
Os2 Y2 3.214713 1_565
Os3 Ti0 2.773436 1_555
Os3 Y4 3.212461 1_555
Os3 Y3 3.212469 1_655
Os3 Y0 3.214699 1_555
Os3 Y1 3.214713 1_655
Os4 Y5 3.167535 1_555
Os4 Y4 3.167535 1_555
Os4 Y2 3.183614 1_556
Os4 Y1 3.183614 1_556
Os5 Y5 3.167529 1_555
Os5 Y3 3.167534 1_555
Os5 Y2 3.183614 1_456
Os5 Y0 3.183614 1_456
Os6 Y4 3.167529 1_555
Os6 Y3 3.167534 1_555
Os6 Y1 3.183614 1_546
Os6 Y0 3.183614 1_546
