# generated using pymatgen
data_Ce(Ni2Sn)2
_symmetry_space_group_name_H-M   'P 1'
_cell_length_a   6.29175717
_cell_length_b   6.29175717
_cell_length_c   6.29175717
_cell_angle_alpha   111.14196360
_cell_angle_beta   111.14196360
_cell_angle_gamma   106.17905130
_symmetry_Int_Tables_number   1
_chemical_formula_structural   Ce(Ni2Sn)2
_chemical_formula_sum   'Ce2 Ni8 Sn4'
_cell_volume   191.26045073
_cell_formula_units_Z   2
loop_
 _symmetry_equiv_pos_site_id
 _symmetry_equiv_pos_as_xyz
  1  'x, y, z'
loop_
 _atom_site_type_symbol
 _atom_site_label
 _atom_site_symmetry_multiplicity
 _atom_site_fract_x
 _atom_site_fract_y
 _atom_site_fract_z
 _atom_site_occupancy
  Ce  Ce0  1  0.00000000  0.50000000  0.50000000  1
  Ce  Ce1  1  0.50000000  0.00000000  0.50000000  1
  Ni  Ni0  1  0.55118700  0.56512800  0.28306000  1
  Ni  Ni1  1  0.73187300  0.44881300  0.01394100  1
  Ni  Ni2  1  0.23187300  0.21793200  0.28306000  1
  Ni  Ni3  1  0.78206800  0.06512800  0.01394100  1
  Ni  Ni4  1  0.05118700  0.76812700  0.98605900  1
  Ni  Ni5  1  0.43487200  0.71793200  0.98605900  1
  Ni  Ni6  1  0.28206800  0.26812700  0.71694000  1
  Ni  Ni7  1  0.93487200  0.94881300  0.71694000  1
  Sn  Sn0  1  0.40726500  0.09273500  0.00000000  1
  Sn  Sn1  1  0.09273500  0.40726500  0.00000000  1
  Sn  Sn2  1  0.59273500  0.59273500  0.68547000  1
  Sn  Sn3  1  0.90726500  0.90726500  0.31453000  1
loop_
_geom_bond_atom_site_label_1
_geom_bond_atom_site_label_2
_geom_bond_distance
_geom_bond_site_symmetry_2
Ce0 Ni5 2.750859 1_555
Ce0 Ni4 2.750859 1_555
Ce0 Ni1 2.750859 1_455
Ce0 Ni3 2.750859 1_455
Ce0 Ni7 2.876260 1_455
Ce0 Ni6 2.876260 1_555
Ce0 Ni2 2.876260 1_555
Ce0 Ni0 2.876260 1_455
Ce0 Sn3 3.281331 1_445
Ce0 Sn0 3.281331 1_566
Ce0 Sn2 3.281331 1_455
Ce0 Sn3 3.281331 1_455
Ce0 Sn1 3.281331 1_555
Ce0 Sn1 3.281331 1_556
Ce0 Sn2 3.281331 1_555
Ce0 Sn0 3.281331 1_455
Ce1 Ni7 2.750859 1_545
Ce1 Ni6 2.750859 1_555
Ce1 Ni2 2.750859 1_555
Ce1 Ni0 2.750859 1_545
Ce1 Ni1 2.876260 1_556
Ce1 Ni3 2.876260 1_556
Ce1 Ni5 2.876260 1_544
Ce1 Ni4 2.876260 1_544
Ce1 Sn2 3.281331 1_545
Ce1 Sn3 3.281331 1_545
Ce1 Sn0 3.281331 1_555
Ce1 Sn1 3.281331 1_545
Ce1 Sn0 3.281331 1_556
Ce1 Sn2 3.281331 1_555
Ce1 Sn3 3.281331 1_445
Ce1 Sn1 3.281331 1_656
Ni0 Ni5 2.377670 1_554
Ni0 Ni1 2.377670 1_555
Ni0 Sn2 2.385136 1_555
Ni0 Sn1 2.429025 1_555
Ni0 Sn0 2.518741 1_555
Ni0 Ni7 2.520368 1_555
Ni0 Ni2 2.522390 1_555
Ni0 Sn3 2.525318 1_555
Ni1 Ni6 2.377670 1_554
Ni1 Sn1 2.385136 1_655
Ni1 Sn3 2.429025 1_555
Ni1 Sn2 2.518741 1_554
Ni1 Ni3 2.520368 1_555
Ni1 Ni4 2.522390 1_654
Ni1 Sn0 2.525318 1_555
Ni2 Ni3 2.377670 1_455
Ni2 Ni4 2.377670 1_544
Ni2 Sn2 2.385136 1_555
Ni2 Sn0 2.429025 1_555
Ni2 Sn1 2.518741 1_555
Ni2 Ni6 2.520368 1_555
Ni2 Sn3 2.525318 1_445
Ni3 Ni7 2.377670 1_544
Ni3 Sn0 2.385136 1_555
Ni3 Sn3 2.429025 1_545
Ni3 Sn2 2.518741 1_544
Ni3 Ni5 2.522390 1_544
Ni3 Sn1 2.525318 1_655
Ni4 Ni7 2.377670 1_455
Ni4 Sn1 2.385136 1_556
Ni4 Sn2 2.429025 1_455
Ni4 Sn3 2.518741 1_456
Ni4 Ni5 2.520368 1_555
Ni4 Sn0 2.525318 1_566
Ni5 Ni6 2.377670 1_555
Ni5 Sn0 2.385136 1_566
Ni5 Sn2 2.429025 1_555
Ni5 Sn3 2.518741 1_556
Ni5 Sn1 2.525318 1_556
Ni6 Sn3 2.385136 1_445
Ni6 Sn0 2.429025 1_556
Ni6 Sn1 2.518741 1_556
Ni6 Ni7 2.522390 1_445
Ni6 Sn2 2.525318 1_555
Ni7 Sn3 2.385136 1_555
Ni7 Sn1 2.429025 1_666
Ni7 Sn0 2.518741 1_666
Ni7 Sn2 2.525318 1_555
