# generated using pymatgen
data_Cs2LiTaS4
_symmetry_space_group_name_H-M   'P 1'
_cell_length_a   14.35137398
_cell_length_b   12.83669363
_cell_length_c   7.69324370
_cell_angle_alpha   84.76977365
_cell_angle_beta   62.96554587
_cell_angle_gamma   32.26468101
_symmetry_Int_Tables_number   1
_chemical_formula_structural   Cs2LiTaS4
_chemical_formula_sum   'Cs4 Li2 Ta2 S8'
_cell_volume   530.57047853
_cell_formula_units_Z   2
loop_
 _symmetry_equiv_pos_site_id
 _symmetry_equiv_pos_as_xyz
  1  'x, y, z'
loop_
 _atom_site_type_symbol
 _atom_site_label
 _atom_site_symmetry_multiplicity
 _atom_site_fract_x
 _atom_site_fract_y
 _atom_site_fract_z
 _atom_site_occupancy
  Cs  Cs0  1  0.82274772  0.82274772  0.17725228  1
  Cs  Cs1  1  0.42725228  0.42725228  0.07274772  1
  Cs  Cs2  1  0.17725228  0.17725228  0.82274772  1
  Cs  Cs3  1  0.07274772  0.07274772  0.42725228  1
  Li  Li0  1  0.50000000  0.50000000  0.50000000  1
  Li  Li1  1  0.75000000  0.75000000  0.75000000  1
  Ta  Ta0  1  0.00000000  0.00000000  0.00000000  1
  Ta  Ta1  1  0.25000000  0.25000000  0.25000000  1
  S  S0  1  0.51650962  0.88079580  0.16674859  1
  S  S1  1  0.88079580  0.51650962  0.43594500  1
  S  S2  1  0.81405500  0.08325141  0.36920420  1
  S  S3  1  0.08325141  0.81405500  0.73349038  1
  S  S4  1  0.16674859  0.43594500  0.51650962  1
  S  S5  1  0.43594500  0.16674859  0.88079580  1
  S  S6  1  0.36920420  0.73349038  0.81405500  1
  S  S7  1  0.73349038  0.36920420  0.08325141  1
loop_
_geom_bond_atom_site_label_1
_geom_bond_atom_site_label_2
_geom_bond_distance
_geom_bond_site_symmetry_2
Cs0 S3 3.661418 1_654
Cs0 S2 3.661421 1_565
Cs0 S5 3.672430 1_654
Cs0 S4 3.672432 1_565
Cs0 S1 3.827622 1_555
Cs0 S0 3.827625 1_555
Cs0 S5 3.898564 1_565
Cs0 S4 3.898570 1_654
Cs1 S4 3.661418 1_555
Cs1 S5 3.661421 1_554
Cs1 S2 3.672430 1_465
Cs1 S3 3.672432 1_644
Cs1 S6 3.827622 1_554
Cs1 S7 3.827625 1_555
Cs1 S2 3.898564 1_554
Cs1 S3 3.898570 1_555
Cs2 S7 3.661408 1_456
Cs2 S6 3.661409 1_545
Cs2 S1 3.672427 1_456
Cs2 S0 3.672433 1_545
Cs2 S5 3.827611 1_555
Cs2 S4 3.827616 1_555
Cs2 S1 3.898564 1_545
Cs2 S0 3.898565 1_456
Cs3 S0 3.661408 1_545
Cs3 S1 3.661409 1_455
Cs3 S6 3.672427 1_544
Cs3 S7 3.672433 1_456
Cs3 S2 3.827611 1_455
Cs3 S3 3.827616 1_545
Cs3 S6 3.898564 1_455
Cs3 S7 3.898565 1_545
Li0 S3 2.455024 1_555
Li0 S2 2.455026 1_555
Li0 S7 2.455029 1_555
Li0 S6 2.455035 1_555
Li1 S4 2.455024 1_655
Li1 S5 2.455026 1_565
Li1 S0 2.455029 1_556
Li1 S1 2.455035 1_555
S0 Ta1 2.274014 1_565
S1 Ta1 2.274017 1_655
S2 Ta0 2.274012 1_655
S3 Ta0 2.274006 1_566
S4 Ta1 2.274006 1_555
S5 Ta1 2.274012 1_556
S6 Ta0 2.274017 1_566
S7 Ta0 2.274014 1_655
