# generated using pymatgen
data_K3Rb(Sc3Se5)4
_symmetry_space_group_name_H-M   'P 1'
_cell_length_a   3.90778793
_cell_length_b   11.68462632
_cell_length_c   20.83628788
_cell_angle_alpha   90.21859447
_cell_angle_beta   90.00000000
_cell_angle_gamma   90.00000000
_symmetry_Int_Tables_number   1
_chemical_formula_structural   K3Rb(Sc3Se5)4
_chemical_formula_sum   'K3 Rb1 Sc12 Se20'
_cell_volume   951.39968609
_cell_formula_units_Z   1
loop_
 _symmetry_equiv_pos_site_id
 _symmetry_equiv_pos_as_xyz
  1  'x, y, z'
loop_
 _atom_site_type_symbol
 _atom_site_label
 _atom_site_symmetry_multiplicity
 _atom_site_fract_x
 _atom_site_fract_y
 _atom_site_fract_z
 _atom_site_occupancy
  K  K0  1  0.25000000  0.84208090  0.09477267  1
  K  K1  1  0.75000000  0.15690349  0.90582379  1
  K  K2  1  0.75000000  0.34239391  0.40426614  1
  Rb  Rb0  1  0.25000000  0.65056404  0.59055484  1
  Sc  Sc0  1  0.75000000  0.80538275  0.82911358  1
  Sc  Sc1  1  0.25000000  0.19435349  0.17083879  1
  Sc  Sc2  1  0.25000000  0.30324977  0.67324413  1
  Sc  Sc3  1  0.75000000  0.69546903  0.32752999  1
  Sc  Sc4  1  0.25000000  0.96149063  0.69976624  1
  Sc  Sc5  1  0.75000000  0.03841787  0.29973438  1
  Sc  Sc6  1  0.75000000  0.46097168  0.80208785  1
  Sc  Sc7  1  0.25000000  0.53747273  0.19934601  1
  Sc  Sc8  1  0.75000000  0.38891251  0.05391627  1
  Sc  Sc9  1  0.25000000  0.61148057  0.94695167  1
  Sc  Sc10  1  0.25000000  0.89252498  0.44531278  1
  Sc  Sc11  1  0.75000000  0.11222490  0.55370789  1
  Se  Se0  1  0.25000000  0.95098233  0.56943373  1
  Se  Se1  1  0.75000000  0.05349325  0.42960628  1
  Se  Se2  1  0.75000000  0.45004442  0.93115651  1
  Se  Se3  1  0.25000000  0.55023558  0.07029285  1
  Se  Se4  1  0.75000000  0.77055180  0.95744542  1
  Se  Se5  1  0.25000000  0.22981691  0.04295341  1
  Se  Se6  1  0.25000000  0.27167764  0.54416880  1
  Se  Se7  1  0.75000000  0.73369998  0.45477967  1
  Se  Se8  1  0.25000000  0.96096435  0.82924022  1
  Se  Se9  1  0.75000000  0.03878040  0.17048938  1
  Se  Se10  1  0.75000000  0.45800272  0.67366108  1
  Se  Se11  1  0.25000000  0.53959510  0.32861241  1
  Se  Se12  1  0.75000000  0.13184063  0.68468142  1
  Se  Se13  1  0.25000000  0.86833218  0.31480296  1
  Se  Se14  1  0.25000000  0.63254579  0.81634787  1
  Se  Se15  1  0.75000000  0.36672878  0.18424572  1
  Se  Se16  1  0.75000000  0.69039955  0.19920990  1
  Se  Se17  1  0.25000000  0.30798242  0.80187571  1
  Se  Se18  1  0.25000000  0.19098999  0.29953778  1
  Se  Se19  1  0.75000000  0.80944392  0.70049085  1
loop_
_geom_bond_atom_site_label_1
_geom_bond_atom_site_label_2
_geom_bond_distance
_geom_bond_site_symmetry_2
K0 Se9 3.400219 1_465
K0 Se9 3.400219 1_565
K0 Se16 3.423983 1_455
K0 Se16 3.423983 1_555
K0 Se3 3.446114 1_555
K0 Se4 3.561678 1_454
K0 Se4 3.561678 1_554
K1 Se8 3.402622 1_545
K1 Se8 3.402622 1_645
K1 Se17 3.413832 1_555
K1 Se17 3.413832 1_655
K1 Se2 3.463684 1_555
K1 Se5 3.562159 1_656
K1 Se5 3.562159 1_556
K2 Se11 3.411703 1_655
K2 Se11 3.411703 1_555
K2 Se18 3.417563 1_555
K2 Se18 3.417563 1_655
K2 Se1 3.418728 1_555
K2 Se6 3.607821 1_555
K2 Se6 3.607821 1_655
Rb0 Se10 3.450868 1_555
Rb0 Se10 3.450868 1_455
Rb0 Se19 3.532532 1_555
Rb0 Se19 3.532532 1_455
Rb0 Se0 3.539420 1_555
Rb0 Se7 3.575729 1_555
Rb0 Se7 3.575729 1_455
Sc0 Se8 2.668797 1_555
Sc0 Se8 2.668797 1_655
Sc0 Se19 2.680621 1_555
Sc0 Se4 2.706289 1_555
Sc0 Se14 2.821857 1_555
Sc0 Se14 2.821857 1_655
Sc1 Se9 2.668726 1_455
Sc1 Se9 2.668726 1_555
Sc1 Se18 2.682047 1_555
Sc1 Se5 2.698245 1_555
Sc1 Se15 2.819257 1_555
Sc1 Se15 2.819257 1_455
Sc2 Se10 2.662209 1_455
Sc2 Se10 2.662209 1_555
Sc2 Se17 2.680564 1_555
Sc2 Se6 2.713239 1_555
Sc2 Se12 2.808834 1_455
Sc2 Se12 2.808834 1_555
Sc3 Se11 2.671285 1_655
Sc3 Se11 2.671285 1_555
Sc3 Se16 2.674144 1_555
Sc3 Se7 2.687098 1_555
Sc3 Se13 2.823450 1_555
Sc3 Se13 2.823450 1_655
Sc4 Se19 2.640923 1_555
Sc4 Se19 2.640923 1_455
Sc4 Se8 2.697788 1_555
Sc4 Se0 2.717952 1_555
Sc4 Se12 2.807715 1_565
Sc4 Se12 2.807715 1_465
Sc5 Se18 2.644989 1_555
Sc5 Se18 2.644989 1_655
Sc5 Se9 2.693005 1_555
Sc5 Se1 2.711105 1_555
Sc5 Se13 2.805486 1_645
Sc5 Se13 2.805486 1_545
Sc6 Se17 2.648255 1_555
Sc6 Se17 2.648255 1_655
Sc6 Se10 2.676030 1_555
Sc6 Se2 2.692827 1_555
Sc6 Se14 2.814353 1_655
Sc6 Se14 2.814353 1_555
Sc7 Se16 2.647779 1_555
Sc7 Se16 2.647779 1_455
Sc7 Se11 2.693452 1_555
Sc7 Se3 2.693689 1_555
Sc7 Se15 2.809314 1_555
Sc7 Se15 2.809314 1_455
Sc8 Se2 2.658347 1_554
Sc8 Se5 2.705997 1_555
Sc8 Se5 2.705997 1_655
Sc8 Se15 2.728909 1_555
Sc8 Se3 2.735407 1_655
Sc8 Se3 2.735407 1_555
Sc9 Se3 2.670376 1_556
Sc9 Se4 2.705019 1_455
Sc9 Se4 2.705019 1_555
Sc9 Se14 2.733342 1_555
Sc9 Se2 2.734865 1_455
Sc9 Se2 2.734865 1_555
Sc10 Se0 2.672380 1_555
Sc10 Se7 2.702487 1_455
Sc10 Se7 2.702487 1_555
Sc10 Se1 2.732602 1_565
Sc10 Se1 2.732602 1_465
Sc10 Se13 2.732921 1_555
Sc11 Se1 2.672799 1_555
Sc11 Se6 2.707646 1_655
Sc11 Se6 2.707646 1_555
Sc11 Se0 2.734860 1_545
Sc11 Se0 2.734860 1_645
Sc11 Se12 2.737739 1_555
