# generated using pymatgen
data_K2Co(PdO2)3
_symmetry_space_group_name_H-M   'P 1'
_cell_length_a   7.05808094
_cell_length_b   7.05808121
_cell_length_c   7.05807981
_cell_angle_alpha   49.51431827
_cell_angle_beta   49.51431292
_cell_angle_gamma   49.51431931
_symmetry_Int_Tables_number   1
_chemical_formula_structural   K2Co(PdO2)3
_chemical_formula_sum   'K2 Co1 Pd3 O6'
_cell_volume   186.96975882
_cell_formula_units_Z   1
loop_
 _symmetry_equiv_pos_site_id
 _symmetry_equiv_pos_as_xyz
  1  'x, y, z'
loop_
 _atom_site_type_symbol
 _atom_site_label
 _atom_site_symmetry_multiplicity
 _atom_site_fract_x
 _atom_site_fract_y
 _atom_site_fract_z
 _atom_site_occupancy
  K  K0  1  0.82965162  0.82965162  0.82965162  1
  K  K1  1  0.17034838  0.17034838  0.17034838  1
  Co  Co0  1  0.00000000  0.00000000  0.00000000  1
  Pd  Pd0  1  0.00000000  0.50000000  0.50000000  1
  Pd  Pd1  1  0.50000000  0.00000000  0.50000000  1
  Pd  Pd2  1  0.50000000  0.50000000  0.00000000  1
  O  O0  1  0.89549708  0.37334753  0.89549708  1
  O  O1  1  0.89549708  0.89549708  0.37334753  1
  O  O2  1  0.37334753  0.89549708  0.89549708  1
  O  O3  1  0.10450292  0.62665247  0.10450292  1
  O  O4  1  0.10450292  0.10450292  0.62665247  1
  O  O5  1  0.62665247  0.10450292  0.10450292  1
loop_
_geom_bond_atom_site_label_1
_geom_bond_atom_site_label_2
_geom_bond_distance
_geom_bond_site_symmetry_2
K0 O1 2.682862 1_555
K0 O2 2.682863 1_555
K0 O0 2.682863 1_555
K0 O5 2.692164 1_566
K0 O3 2.692164 1_656
K0 O4 2.692165 1_665
K1 O4 2.682862 1_555
K1 O5 2.682863 1_555
K1 O3 2.682863 1_555
K1 O2 2.692164 1_544
K1 O0 2.692164 1_454
K1 O1 2.692165 1_445
Co0 O1 1.921113 1_445
Co0 O4 1.921113 1_554
Co0 O2 1.921114 1_544
Co0 O5 1.921114 1_455
Co0 O0 1.921114 1_454
Co0 O3 1.921114 1_545
O0 Pd0 2.019329 1_655
O0 Pd2 2.019329 1_556
O1 Pd1 2.019329 1_565
O1 Pd0 2.019330 1_655
O2 Pd1 2.019329 1_565
O2 Pd2 2.019330 1_556
O3 Pd0 2.019329 1_555
O3 Pd2 2.019329 1_555
O4 Pd1 2.019329 1_555
O4 Pd0 2.019330 1_555
O5 Pd1 2.019329 1_555
O5 Pd2 2.019330 1_555
