# generated using pymatgen
data_Ba9Nb10O30
_symmetry_space_group_name_H-M   'P 1'
_cell_length_a   9.20097934
_cell_length_b   9.20592041
_cell_length_c   9.19823689
_cell_angle_alpha   113.54420243
_cell_angle_beta   90.03051196
_cell_angle_gamma   101.51314832
_symmetry_Int_Tables_number   1
_chemical_formula_structural   Ba9Nb10O30
_chemical_formula_sum   'Ba9 Nb10 O30'
_cell_volume   697.09152474
_cell_formula_units_Z   1
loop_
 _symmetry_equiv_pos_site_id
 _symmetry_equiv_pos_as_xyz
  1  'x, y, z'
loop_
 _atom_site_type_symbol
 _atom_site_label
 _atom_site_symmetry_multiplicity
 _atom_site_fract_x
 _atom_site_fract_y
 _atom_site_fract_z
 _atom_site_occupancy
  Ba  Ba0  1  0.19750750  0.99952528  0.39535021  1
  Ba  Ba1  1  0.39534434  0.00001229  0.80218852  1
  Ba  Ba2  1  0.60465566  -0.00001229  0.19781148  1
  Ba  Ba3  1  0.09846616  0.49528469  0.19865200  1
  Ba  Ba4  1  0.80249250  0.00047472  0.60464979  1
  Ba  Ba5  1  0.29995165  0.49991985  0.60110787  1
  Ba  Ba6  1  0.50000000  0.50000000  -0.00000000  1
  Ba  Ba7  1  0.70004835  0.50008015  0.39889213  1
  Ba  Ba8  1  0.90153384  0.50471531  0.80134800  1
  Nb  Nb0  1  0.04887095  0.75286307  0.60430263  1
  Nb  Nb1  1  0.24713577  0.75263327  0.99962114  1
  Nb  Nb2  1  0.14749762  0.24706013  0.80230836  1
  Nb  Nb3  1  0.34560978  0.24601375  0.19676821  1
  Nb  Nb4  1  0.44972925  0.74977288  0.39998154  1
  Nb  Nb5  1  0.65439022  0.75398625  0.80323179  1
  Nb  Nb6  1  0.55027075  0.25022712  0.60001846  1
  Nb  Nb7  1  0.85250238  0.75293987  0.19769164  1
  Nb  Nb8  1  0.75286423  0.24736673  0.00037886  1
  Nb  Nb9  1  0.95112905  0.24713693  0.39569737  1
  O  O0  1  0.10108195  0.00001603  0.69480288  1
  O  O1  1  0.15258827  0.25337611  0.30450314  1
  O  O2  1  0.15243390  0.74614717  0.79653579  1
  O  O3  1  0.04999876  0.25001990  0.59995741  1
  O  O4  1  0.30477268  0.99980710  0.10130382  1
  O  O5  1  0.19961232  0.49997364  0.90003413  1
  O  O6  1  0.35013926  0.24990672  0.69984788  1
  O  O7  1  0.05107230  0.74625208  0.10160818  1
  O  O8  1  0.35013840  0.75006934  0.20013265  1
  O  O9  1  0.25379129  0.25349947  0.99963009  1
  O  O10  1  0.39967917  0.49984922  0.29971962  1
  O  O11  1  0.50000000  0.00000000  0.50000000  1
  O  O12  1  0.54981714  0.24961589  0.09981498  1
  O  O13  1  0.25021219  0.75010510  0.49993596  1
  O  O14  1  0.54988135  0.75031507  0.60009554  1
  O  O15  1  0.45011865  0.24968493  0.39990446  1
  O  O16  1  0.69522732  0.00019290  0.89869618  1
  O  O17  1  0.60032083  0.50015078  0.70028038  1
  O  O18  1  0.74978781  0.24989490  0.50006404  1
  O  O19  1  0.45018286  0.75038411  0.90018502  1
  O  O20  1  0.74620871  0.74650053  0.00036991  1
  O  O21  1  0.64986160  0.24993066  0.79986735  1
  O  O22  1  0.89891805  -0.00001603  0.30519712  1
  O  O23  1  0.80038768  0.50002636  0.09996587  1
  O  O24  1  0.94892770  0.25374792  0.89839182  1
  O  O25  1  0.64986074  0.75009328  0.30015212  1
  O  O26  1  0.95000124  0.74998010  0.40004259  1
  O  O27  1  0.84756610  0.25385283  0.20346421  1
  O  O28  1  -0.00000000  0.50000000  0.50000000  1
  O  O29  1  0.84741173  0.74662389  0.69549686  1
loop_
_geom_bond_atom_site_label_1
_geom_bond_atom_site_label_2
_geom_bond_distance
_geom_bond_site_symmetry_2
Ba0 O22 2.870613 1_465
Ba0 O7 2.874224 1_555
Ba0 O1 2.876745 1_565
Ba0 O4 2.880441 1_555
Ba0 O0 2.892809 1_565
Ba0 O26 2.907997 1_455
Ba0 O8 2.909639 1_555
Ba0 O3 2.913189 1_565
Ba0 O15 2.914391 1_565
Ba0 O13 2.939658 1_555
Ba0 O11 2.943109 1_565
Ba0 O6 2.945479 1_565
Ba1 O9 2.875784 1_555
Ba1 O4 2.875808 1_546
Ba1 O2 2.877074 1_545
Ba1 O0 2.881571 1_555
Ba1 O16 2.897529 1_555
Ba1 O12 2.908827 1_556
Ba1 O6 2.909149 1_555
Ba1 O13 2.909504 1_545
Ba1 O19 2.909547 1_545
Ba1 O14 2.941944 1_545
Ba1 O11 2.942120 1_555
Ba1 O21 2.943877 1_555
Ba2 O20 2.875784 1_545
Ba2 O16 2.875808 1_554
Ba2 O27 2.877074 1_555
Ba2 O22 2.881571 1_555
Ba2 O4 2.897529 1_545
Ba2 O19 2.908827 1_544
Ba2 O25 2.909149 1_545
Ba2 O18 2.909504 1_555
Ba2 O12 2.909547 1_555
Ba2 O15 2.941944 1_555
Ba2 O11 2.942120 1_555
Ba2 O8 2.943877 1_545
Ba3 O27 2.881271 1_455
Ba3 O1 2.886158 1_555
Ba3 O24 2.886807 1_454
Ba3 O9 2.892301 1_554
Ba3 O7 2.893823 1_555
Ba3 O23 2.902520 1_455
Ba3 O28 2.903137 1_555
Ba3 O10 2.909729 1_555
Ba3 O5 2.914456 1_554
Ba3 O26 2.933672 1_455
Ba3 O13 2.937195 1_555
Ba3 O8 2.944512 1_555
Ba4 O0 2.870613 1_655
Ba4 O24 2.874224 1_555
Ba4 O29 2.876745 1_545
Ba4 O16 2.880441 1_555
Ba4 O22 2.892809 1_555
Ba4 O3 2.907997 1_655
Ba4 O21 2.909639 1_555
Ba4 O26 2.913189 1_545
Ba4 O14 2.914391 1_545
Ba4 O18 2.939658 1_555
Ba4 O11 2.943109 1_555
Ba4 O25 2.945479 1_545
Ba5 O2 2.861331 1_555
Ba5 O1 2.872922 1_555
Ba5 O5 2.900759 1_555
Ba5 O6 2.903334 1_555
Ba5 O3 2.906942 1_555
Ba5 O19 2.907092 1_555
Ba5 O17 2.909217 1_555
Ba5 O28 2.912099 1_555
Ba5 O14 2.915983 1_555
Ba5 O15 2.916880 1_555
Ba5 O13 2.917669 1_555
Ba5 O10 2.920411 1_555
Ba6 O9 2.867606 1_554
Ba6 O20 2.867606 1_555
Ba6 O17 2.908218 1_554
Ba6 O10 2.908218 1_555
Ba6 O8 2.911009 1_555
Ba6 O21 2.911009 1_554
Ba6 O25 2.911162 1_555
Ba6 O6 2.911162 1_554
Ba6 O12 2.911732 1_555
Ba6 O19 2.911732 1_554
Ba6 O5 2.912262 1_554
Ba6 O23 2.912262 1_555
Ba7 O27 2.861331 1_555
Ba7 O29 2.872922 1_555
Ba7 O23 2.900759 1_555
Ba7 O25 2.903334 1_555
Ba7 O26 2.906942 1_555
Ba7 O12 2.907092 1_555
Ba7 O10 2.909217 1_555
Ba7 O28 2.912099 1_655
Ba7 O15 2.915983 1_555
Ba7 O14 2.916880 1_555
Ba7 O18 2.917669 1_555
Ba7 O17 2.920411 1_555
Ba8 O2 2.881271 1_655
Ba8 O29 2.886158 1_555
Ba8 O7 2.886807 1_656
Ba8 O20 2.892301 1_556
Ba8 O24 2.893823 1_555
Ba8 O5 2.902520 1_655
Ba8 O28 2.903137 1_655
Ba8 O17 2.909729 1_555
Ba8 O23 2.914456 1_556
Ba8 O3 2.933672 1_655
Ba8 O18 2.937195 1_555
Ba8 O21 2.944512 1_555
Nb0 O29 2.034820 1_455
Nb0 O2 2.036521 1_555
Nb0 O0 2.037322 1_565
Nb0 O26 2.075324 1_455
Nb0 O28 2.083011 1_555
Nb0 O13 2.086939 1_555
Nb1 O2 2.034878 1_555
Nb1 O7 2.035028 1_556
Nb1 O4 2.037460 1_556
Nb1 O19 2.080724 1_555
Nb1 O5 2.081296 1_555
Nb1 O8 2.083800 1_556
Nb2 O24 2.031282 1_455
Nb2 O9 2.035506 1_555
Nb2 O0 2.036581 1_555
Nb2 O3 2.078060 1_555
Nb2 O5 2.083449 1_555
Nb2 O6 2.089826 1_555
Nb3 O4 2.029573 1_545
Nb3 O9 2.031761 1_554
Nb3 O1 2.033965 1_555
Nb3 O12 2.080201 1_555
Nb3 O15 2.086079 1_555
Nb3 O10 2.091023 1_555
Nb4 O13 2.053556 1_555
Nb4 O8 2.054769 1_555
Nb4 O14 2.055812 1_555
Nb4 O25 2.058099 1_555
Nb4 O10 2.058539 1_555
Nb4 O11 2.061037 1_565
Nb5 O16 2.029573 1_565
Nb5 O20 2.031761 1_556
Nb5 O29 2.033965 1_555
Nb5 O19 2.080201 1_555
Nb5 O14 2.086079 1_555
Nb5 O17 2.091023 1_555
Nb6 O18 2.053556 1_555
Nb6 O21 2.054769 1_555
Nb6 O15 2.055812 1_555
Nb6 O6 2.058099 1_555
Nb6 O17 2.058539 1_555
Nb6 O11 2.061037 1_555
Nb7 O7 2.031282 1_655
Nb7 O20 2.035506 1_555
Nb7 O22 2.036581 1_565
Nb7 O26 2.078060 1_555
Nb7 O23 2.083449 1_555
Nb7 O25 2.089826 1_555
Nb8 O27 2.034878 1_555
Nb8 O24 2.035028 1_554
Nb8 O16 2.037460 1_554
Nb8 O12 2.080724 1_555
Nb8 O23 2.081296 1_555
Nb8 O21 2.083800 1_554
Nb9 O1 2.034820 1_655
Nb9 O27 2.036521 1_555
Nb9 O22 2.037322 1_555
Nb9 O3 2.075324 1_655
Nb9 O28 2.083011 1_655
Nb9 O18 2.086939 1_555
