# generated using pymatgen
data_K7TaP4
_symmetry_space_group_name_H-M   'P 1'
_cell_length_a   8.16581548
_cell_length_b   8.93886063
_cell_length_c   10.03640413
_cell_angle_alpha   90.00000000
_cell_angle_beta   90.00000000
_cell_angle_gamma   90.00000000
_symmetry_Int_Tables_number   1
_chemical_formula_structural   K7TaP4
_chemical_formula_sum   'K14 Ta2 P8'
_cell_volume   732.58811464
_cell_formula_units_Z   2
loop_
 _symmetry_equiv_pos_site_id
 _symmetry_equiv_pos_as_xyz
  1  'x, y, z'
loop_
 _atom_site_type_symbol
 _atom_site_label
 _atom_site_symmetry_multiplicity
 _atom_site_fract_x
 _atom_site_fract_y
 _atom_site_fract_z
 _atom_site_occupancy
  K  K0  1  0.70824379  0.83432175  0.71627060  1
  K  K1  1  0.20824379  0.16567825  0.78372940  1
  K  K2  1  0.20824379  0.16567825  0.21627060  1
  K  K3  1  0.70824379  0.83432175  0.28372940  1
  K  K4  1  0.87299314  0.46700353  0.70998975  1
  K  K5  1  0.37299314  0.53299647  0.79001025  1
  K  K6  1  0.37299314  0.53299647  0.20998975  1
  K  K7  1  0.87299314  0.46700353  0.29001025  1
  K  K8  1  0.16276526  0.65941851  0.50000000  1
  K  K9  1  0.66276526  0.34058149  0.00000000  1
  K  K10  1  0.87478464  0.04023581  0.00000000  1
  K  K11  1  0.37478464  0.95976419  0.50000000  1
  K  K12  1  0.39296118  0.89867635  0.00000000  1
  K  K13  1  0.89296118  0.10132365  0.50000000  1
  Ta  Ta0  1  0.99854479  0.67456627  0.00000000  1
  Ta  Ta1  1  0.49854479  0.32543373  0.50000000  1
  P  P0  1  0.70531354  0.68477234  0.00000000  1
  P  P1  1  0.20531354  0.31522766  0.50000000  1
  P  P2  1  0.09289671  0.80518150  0.80050675  1
  P  P3  1  0.59289671  0.19481850  0.69949325  1
  P  P4  1  0.59289671  0.19481850  0.30050675  1
  P  P5  1  0.09289671  0.80518150  0.19949325  1
  P  P6  1  0.57571529  0.58640679  0.50000000  1
  P  P7  1  0.07571529  0.41359321  0.00000000  1
loop_
_geom_bond_atom_site_label_1
_geom_bond_atom_site_label_2
_geom_bond_distance
_geom_bond_site_symmetry_2
K0 P0 3.145881 1_556
K0 P2 3.263205 1_655
K0 P6 3.285358 1_555
K0 P3 3.361486 1_565
K1 P1 3.145881 1_555
K1 P3 3.263205 1_555
K1 P7 3.285358 1_556
K1 P2 3.361486 1_545
K2 P1 3.145881 1_555
K2 P4 3.263205 1_555
K2 P7 3.285358 1_555
K2 P5 3.361486 1_545
K3 P0 3.145881 1_555
K3 P5 3.263205 1_655
K3 P6 3.285358 1_555
K3 P4 3.361486 1_565
K4 P3 3.340967 1_555
K4 P7 3.382337 1_656
K4 P6 3.387294 1_555
K4 P2 3.631515 1_655
K5 P2 3.340967 1_555
K5 P6 3.382337 1_555
K5 P7 3.387294 1_556
K5 P3 3.631515 1_555
K6 P5 3.340967 1_555
K6 P6 3.382337 1_555
K6 P7 3.387294 1_555
K6 P4 3.631515 1_555
K7 P4 3.340967 1_555
K7 P7 3.382337 1_655
K7 P6 3.387294 1_555
K7 P5 3.631515 1_655
K8 P1 3.096230 1_555
K8 P2 3.334591 1_555
K8 P5 3.334591 1_555
K8 P6 3.434650 1_555
K9 P0 3.096230 1_555
K9 P4 3.334591 1_555
K9 P3 3.334591 1_554
K9 P7 3.434650 1_655
K10 K9 3.194575 1_555
K10 P5 3.405241 1_645
K10 P2 3.405241 1_644
K10 Ta0 3.421332 1_545
K10 P0 3.465719 1_545
K10 P7 3.718907 1_655
K11 K8 3.194575 1_555
K11 P3 3.405241 1_565
K11 P4 3.405241 1_565
K11 Ta1 3.421332 1_565
K11 P1 3.465719 1_565
K11 P6 3.718907 1_555
K12 P0 3.187724 1_555
K12 P5 3.272777 1_555
K12 P2 3.272777 1_554
K13 P1 3.187724 1_655
K13 P3 3.272777 1_555
K13 P4 3.272777 1_555
P0 Ta0 2.396210 1_555
P1 Ta1 2.396210 1_555
P2 Ta0 2.442452 1_456
P3 Ta1 2.442452 1_555
P4 Ta1 2.442452 1_555
P5 Ta0 2.442452 1_455
P6 Ta1 2.416416 1_555
P7 Ta0 2.416416 1_455
