# generated using pymatgen
data_LiCoRhF6
_symmetry_space_group_name_H-M   'P 1'
_cell_length_a   4.63201561
_cell_length_b   4.63201561
_cell_length_c   9.28065480
_cell_angle_alpha   90.00000000
_cell_angle_beta   90.00000000
_cell_angle_gamma   90.00000000
_symmetry_Int_Tables_number   1
_chemical_formula_structural   LiCoRhF6
_chemical_formula_sum   'Li2 Co2 Rh2 F12'
_cell_volume   199.12172613
_cell_formula_units_Z   2
loop_
 _symmetry_equiv_pos_site_id
 _symmetry_equiv_pos_as_xyz
  1  'x, y, z'
loop_
 _atom_site_type_symbol
 _atom_site_label
 _atom_site_symmetry_multiplicity
 _atom_site_fract_x
 _atom_site_fract_y
 _atom_site_fract_z
 _atom_site_occupancy
  Li  Li0  1  0.50000000  0.50000000  0.49790281  1
  Li  Li1  1  0.00000000  0.00000000  0.99790281  1
  Co  Co0  1  0.50000000  0.50000000  0.16878789  1
  Co  Co1  1  0.00000000  0.00000000  0.66878789  1
  Rh  Rh0  1  0.50000000  0.50000000  0.83270266  1
  Rh  Rh1  1  0.00000000  0.00000000  0.33270266  1
  F  F0  1  0.19549902  0.80450098  0.49710688  1
  F  F1  1  0.80450098  0.19549902  0.49710688  1
  F  F2  1  0.30450098  0.30450098  0.99710688  1
  F  F3  1  0.69549902  0.69549902  0.99710688  1
  F  F4  1  0.19597716  0.80402284  0.16744438  1
  F  F5  1  0.80402284  0.19597716  0.16744438  1
  F  F6  1  0.30402284  0.30402284  0.66744438  1
  F  F7  1  0.69597716  0.69597716  0.66744438  1
  F  F8  1  0.80321521  0.19678479  0.83575257  1
  F  F9  1  0.19678479  0.80321521  0.83575257  1
  F  F10  1  0.69678479  0.69678479  0.33575257  1
  F  F11  1  0.30321521  0.30321521  0.33575257  1
loop_
_geom_bond_atom_site_label_1
_geom_bond_atom_site_label_2
_geom_bond_distance
_geom_bond_site_symmetry_2
Co0 F4 1.991589 1_555
Co0 F5 1.991589 1_555
Co0 F10 2.015634 1_555
Co0 F11 2.015634 1_555
Co0 F2 2.044187 1_554
Co0 F3 2.044187 1_554
Co1 F7 1.991589 1_445
Co1 F6 1.991589 1_555
Co1 F8 2.015634 1_455
Co1 F9 2.015634 1_545
Co1 F0 2.044187 1_545
Co1 F1 2.044187 1_455
F0 Rh1 1.991999 1_565
F0 Li0 1.994696 1_555
F1 Rh1 1.991999 1_655
F1 Li0 1.994696 1_555
F2 Rh0 1.991999 1_555
F2 Li1 1.994696 1_555
F3 Rh0 1.991999 1_555
F3 Li1 1.994696 1_665
F4 Rh1 2.000085 1_565
F4 Li1 2.030728 1_564
F5 Rh1 2.000085 1_655
F5 Li1 2.030728 1_654
F6 Rh0 2.000085 1_555
F6 Li0 2.030728 1_555
F7 Rh0 2.000085 1_555
F7 Li0 2.030728 1_555
F8 Li1 1.981491 1_655
F8 Rh0 1.986461 1_555
F9 Li1 1.981491 1_565
F9 Rh0 1.986461 1_555
F10 Li0 1.981491 1_555
F10 Rh1 1.986461 1_665
F11 Li0 1.981491 1_555
F11 Rh1 1.986461 1_555
