# generated using pymatgen
data_Zr2MnAlFe8
_symmetry_space_group_name_H-M   'P 1'
_cell_length_a   8.44209846
_cell_length_b   8.44209860
_cell_length_c   8.44209910
_cell_angle_alpha   33.58814606
_cell_angle_beta   33.58814771
_cell_angle_gamma   33.58814677
_symmetry_Int_Tables_number   1
_chemical_formula_structural   Zr2MnAlFe8
_chemical_formula_sum   'Zr2 Mn1 Al1 Fe8'
_cell_volume   164.02527421
_cell_formula_units_Z   1
loop_
 _symmetry_equiv_pos_site_id
 _symmetry_equiv_pos_as_xyz
  1  'x, y, z'
loop_
 _atom_site_type_symbol
 _atom_site_label
 _atom_site_symmetry_multiplicity
 _atom_site_fract_x
 _atom_site_fract_y
 _atom_site_fract_z
 _atom_site_occupancy
  Zr  Zr0  1  0.99921448  0.99921448  0.99921448  1
  Zr  Zr1  1  0.50095572  0.50095572  0.50095572  1
  Mn  Mn0  1  0.62537411  0.62537411  0.62537411  1
  Al  Al0  1  0.12505549  0.12505549  0.12505549  1
  Fe  Fe0  1  0.56371962  0.06099247  0.56371962  1
  Fe  Fe1  1  0.06281920  0.56108049  0.06281920  1
  Fe  Fe2  1  0.06099247  0.56371962  0.56371962  1
  Fe  Fe3  1  0.56108049  0.06281920  0.06281920  1
  Fe  Fe4  1  0.81221917  0.81221917  0.81221917  1
  Fe  Fe5  1  0.31203242  0.31203242  0.31203242  1
  Fe  Fe6  1  0.56371962  0.56371962  0.06099247  1
  Fe  Fe7  1  0.06281920  0.06281920  0.56108049  1
loop_
_geom_bond_atom_site_label_1
_geom_bond_atom_site_label_2
_geom_bond_distance
_geom_bond_site_symmetry_2
Mn0 Zr1 2.970513 1_555
Mn0 Zr0 2.977957 1_554
Mn0 Zr0 2.977957 1_545
Mn0 Zr0 2.977958 1_455
Al0 Fe3 2.849066 1_555
Al0 Fe1 2.849066 1_555
Al0 Fe7 2.849066 1_555
Al0 Fe2 2.856269 1_545
Al0 Fe0 2.856269 1_455
Al0 Fe6 2.856269 1_455
Al0 Fe6 2.856269 1_545
Al0 Fe2 2.856269 1_554
Al0 Fe0 2.856269 1_554
Al0 Fe4 2.858742 1_454
Al0 Fe4 2.858742 1_544
Al0 Fe4 2.858742 1_445
Al0 Zr1 2.994290 1_554
Al0 Zr1 2.994290 1_545
Al0 Zr1 2.994290 1_455
Al0 Zr0 3.004479 1_444
Fe0 Fe4 2.421606 1_545
Fe0 Fe2 2.425895 1_645
Fe0 Fe6 2.425895 1_546
Fe0 Fe2 2.452503 1_555
Fe0 Fe6 2.452503 1_555
Fe0 Fe5 2.457174 1_555
Fe0 Mn0 2.852942 1_545
Fe0 Zr0 2.873185 1_445
Fe0 Zr0 2.873186 1_544
Fe0 Zr1 2.875229 1_555
Fe1 Fe5 2.430701 1_555
Fe1 Fe3 2.430717 1_555
Fe1 Fe7 2.430717 1_555
Fe1 Fe4 2.440799 1_454
Fe1 Fe3 2.447681 1_465
Fe1 Fe7 2.447681 1_564
Fe1 Zr1 2.844392 1_455
Fe1 Zr1 2.844393 1_554
Fe1 Zr0 2.849563 1_454
Fe1 Mn0 2.867370 1_554
Fe1 Mn0 2.867371 1_455
Fe2 Fe4 2.421606 1_455
Fe2 Fe6 2.425895 1_456
Fe2 Fe6 2.452503 1_555
Fe2 Fe5 2.457174 1_555
Fe2 Mn0 2.852942 1_455
Fe2 Zr0 2.873185 1_445
Fe2 Zr0 2.873186 1_454
Fe2 Zr1 2.875229 1_555
Fe3 Fe5 2.430701 1_555
Fe3 Fe7 2.430717 1_555
Fe3 Fe4 2.440799 1_544
Fe3 Fe7 2.447681 1_654
Fe3 Zr1 2.844392 1_545
Fe3 Zr1 2.844393 1_554
Fe3 Zr0 2.849563 1_544
Fe3 Mn0 2.867370 1_554
Fe3 Mn0 2.867371 1_545
Fe4 Fe6 2.421606 1_556
Fe4 Fe7 2.440799 1_665
Fe4 Zr1 2.865409 1_565
Fe4 Zr1 2.865409 1_655
Fe4 Zr1 2.865409 1_556
Fe5 Fe7 2.430701 1_555
Fe5 Fe6 2.457174 1_555
Fe5 Mn0 2.856701 1_545
Fe5 Mn0 2.856701 1_455
Fe5 Mn0 2.856701 1_554
Fe5 Zr0 2.858817 1_454
Fe5 Zr0 2.858817 1_544
Fe5 Zr0 2.858817 1_445
Fe6 Mn0 2.852942 1_554
Fe6 Zr0 2.873185 1_454
Fe6 Zr0 2.873186 1_544
Fe6 Zr1 2.875229 1_555
Fe7 Zr1 2.844392 1_455
Fe7 Zr1 2.844392 1_545
Fe7 Zr0 2.849563 1_445
Fe7 Mn0 2.867370 1_545
Fe7 Mn0 2.867371 1_455
