# generated using pymatgen
data_V9B4P2W
_symmetry_space_group_name_H-M   'P 1'
_cell_length_a   6.66463337
_cell_length_b   6.69572833
_cell_length_c   6.68816614
_cell_angle_alpha   129.22012098
_cell_angle_beta   129.09376168
_cell_angle_gamma   74.66855519
_symmetry_Int_Tables_number   1
_chemical_formula_structural   V9B4P2W
_chemical_formula_sum   'V9 B4 P2 W1'
_cell_volume   174.91896056
_cell_formula_units_Z   1
loop_
 _symmetry_equiv_pos_site_id
 _symmetry_equiv_pos_as_xyz
  1  'x, y, z'
loop_
 _atom_site_type_symbol
 _atom_site_label
 _atom_site_symmetry_multiplicity
 _atom_site_fract_x
 _atom_site_fract_y
 _atom_site_fract_z
 _atom_site_occupancy
  V  V0  1  0.02941672  0.52916644  0.83882233  1
  V  V1  1  0.69059439  0.19034511  0.16117767  1
  V  V2  1  0.97256334  0.47057049  0.16280166  1
  V  V3  1  0.18959092  0.03217859  0.50000000  1
  V  V4  1  0.47069371  0.30787635  0.50000000  1
  V  V5  1  0.80866673  0.97094851  0.50000000  1
  V  V6  1  0.30976068  0.80776883  0.83719834  1
  V  V7  1  0.00268395  0.00255423  0.00281778  1
  V  V8  1  0.49986717  0.49973544  0.99718222  1
  B  B0  1  0.61726273  0.12063123  0.73470635  1
  B  B1  1  0.11439240  0.38496892  0.50000000  1
  B  B2  1  0.88653510  0.61487555  0.50000000  1
  B  B3  1  0.38255638  0.88592488  0.26529365  1
  P  P0  1  0.24554181  0.24192128  0.99173389  1
  P  P1  1  0.75380792  0.75018739  0.00826611  1
  W  W0  1  0.52606506  0.69034777  0.50000000  1
loop_
_geom_bond_atom_site_label_1
_geom_bond_atom_site_label_2
_geom_bond_distance
_geom_bond_site_symmetry_2
V2 W0 3.006829 1_655
V3 W0 2.748308 1_545
V4 W0 2.682213 1_555
V6 W0 3.006835 1_555
V7 W0 2.630254 1_444
V8 W0 2.630255 1_556
B0 B3 1.907897 1_545
B0 V4 2.213035 1_555
B0 V5 2.226134 1_545
B0 V3 2.238999 1_555
B0 W0 2.266611 1_545
B0 V8 2.276853 1_555
B0 V2 2.279161 1_556
B0 V1 2.295920 1_556
B0 V7 2.312679 1_656
B1 B2 1.854628 1_455
B1 V1 2.225011 1_455
B1 V0 2.225013 1_555
B1 V6 2.228842 1_555
B1 V2 2.228844 1_455
B1 V3 2.281463 1_555
B1 V4 2.292831 1_555
B1 V7 2.299209 1_555
B1 V8 2.299213 1_555
B2 V6 2.220482 1_655
B2 V2 2.220487 1_555
B2 V1 2.237279 1_555
B2 V0 2.237284 1_655
B2 V5 2.302019 1_555
B2 W0 2.320541 1_555
B2 V8 2.320941 1_554
B2 V7 2.320944 1_666
B3 V4 2.213035 1_565
B3 V5 2.226134 1_555
B3 V3 2.238999 1_565
B3 W0 2.266611 1_555
B3 V7 2.276861 1_565
B3 V6 2.279158 1_554
B3 V0 2.295924 1_554
B3 V8 2.312686 1_554
P0 V5 2.399255 1_445
P0 V6 2.408802 1_545
P0 V3 2.411831 1_555
P0 V2 2.428980 1_456
P0 V1 2.432138 1_556
P0 V0 2.446309 1_555
P0 V4 2.453805 1_556
P0 W0 2.472236 1_556
P0 V7 2.620563 1_556
P0 V8 2.691483 1_555
P1 V5 2.399255 1_555
P1 V2 2.408803 1_555
P1 V3 2.411831 1_665
P1 V6 2.428986 1_554
P1 V0 2.432138 1_654
P1 V1 2.446315 1_565
P1 V4 2.453804 1_554
P1 W0 2.472236 1_554
P1 V8 2.620563 1_554
P1 V7 2.691483 1_665
