# generated using pymatgen
data_Hf4Zr(Re7Tc)3
_symmetry_space_group_name_H-M   'P 1'
_cell_length_a   8.43494445
_cell_length_b   8.41932637
_cell_length_c   8.41932594
_cell_angle_alpha   109.43361221
_cell_angle_beta   109.50879316
_cell_angle_gamma   109.50880553
_symmetry_Int_Tables_number   1
_chemical_formula_structural   Hf4Zr(Re7Tc)3
_chemical_formula_sum   'Hf4 Zr1 Re21 Tc3'
_cell_volume   460.05886100
_cell_formula_units_Z   1
loop_
 _symmetry_equiv_pos_site_id
 _symmetry_equiv_pos_as_xyz
  1  'x, y, z'
loop_
 _atom_site_type_symbol
 _atom_site_label
 _atom_site_symmetry_multiplicity
 _atom_site_fract_x
 _atom_site_fract_y
 _atom_site_fract_z
 _atom_site_occupancy
  Hf  Hf0  1  0.62536364  0.00000000  0.00000000  1
  Hf  Hf1  1  0.99982717  0.62724885  1.00000000  1
  Hf  Hf2  1  0.99982717  0.00000000  0.62724885  1
  Hf  Hf3  1  0.37257833  0.37275115  0.37275115  1
  Zr  Zr0  1  0.99954324  1.00000000  1.00000000  1
  Re  Re0  1  0.67605384  0.39528249  0.00000000  1
  Re  Re1  1  0.00129176  0.39697827  0.67714189  1
  Re  Re2  1  0.32414987  0.71983739  0.32285811  1
  Re  Re3  1  0.32414987  0.32285811  0.71983739  1
  Re  Re4  1  0.00129176  0.67714189  0.39697827  1
  Re  Re5  1  0.67605384  0.00000000  0.39528249  1
  Re  Re6  1  0.60431349  0.60302173  0.28016261  1
  Re  Re7  1  0.28077034  0.60471751  0.60471751  1
  Re  Re8  1  0.60431349  0.28016261  0.60302173  1
  Re  Re9  1  0.37502804  0.19479973  1.00000000  1
  Re  Re10  1  0.18022832  0.80520027  0.80520027  1
  Re  Re11  1  0.37502804  1.00000000  0.19479973  1
  Re  Re12  1  0.19419928  0.37790391  1.00000000  1
  Re  Re13  1  0.00058916  0.37631608  0.19407616  1
  Re  Re14  1  0.80651300  0.18223993  0.80592384  1
  Re  Re15  1  0.80651300  0.80592384  0.18223993  1
  Re  Re16  1  0.00058916  0.19407616  0.37631608  1
  Re  Re17  1  0.19419928  1.00000000  0.37790391  1
  Re  Re18  1  0.62427307  0.62368392  0.81776007  1
  Re  Re19  1  0.81629537  0.62209609  0.62209609  1
  Re  Re20  1  0.62427307  0.81776007  0.62368392  1
  Tc  Tc0  1  0.39704190  0.67838430  0.00000000  1
  Tc  Tc1  1  0.71865960  0.32161570  0.32161570  1
  Tc  Tc2  1  0.39704190  0.00000000  0.67838430  1
loop_
_geom_bond_atom_site_label_1
_geom_bond_atom_site_label_2
_geom_bond_distance
_geom_bond_site_symmetry_2
Hf0 Tc1 2.749193 1_555
Hf0 Tc0 2.749199 1_545
Hf0 Tc2 2.749200 1_554
Hf0 Re14 3.021398 1_554
Hf0 Re20 3.021398 1_544
Hf0 Re18 3.021398 1_544
Hf0 Re15 3.021398 1_545
Hf0 Re13 3.021398 1_655
Hf0 Re16 3.021398 1_655
Hf0 Re11 3.075976 1_545
Hf0 Re9 3.075976 1_554
Hf0 Re10 3.075977 1_544
Hf0 Zr0 3.156184 1_544
Hf0 Re5 3.210621 1_555
Hf0 Re0 3.210621 1_555
Hf0 Re7 3.210623 1_544
Hf1 Re2 2.771158 1_656
Hf1 Re1 2.771161 1_655
Hf1 Re0 2.776734 1_556
Hf1 Re10 3.004885 1_655
Hf1 Re11 3.004885 1_656
Hf1 Re15 3.008231 1_556
Hf1 Re18 3.008232 1_555
Hf1 Re19 3.015816 1_555
Hf1 Re17 3.015816 1_656
Hf1 Re12 3.064961 1_655
Hf1 Re13 3.071252 1_656
Hf1 Re14 3.071252 1_555
Hf1 Zr0 3.139114 1_555
Hf1 Re4 3.222144 1_656
Hf1 Re8 3.222147 1_555
Hf1 Tc0 3.232285 1_656
Hf2 Re3 2.771158 1_655
Hf2 Re4 2.771161 1_645
Hf2 Re5 2.776735 1_555
Hf2 Re10 3.004885 1_645
Hf2 Re9 3.004885 1_655
Hf2 Re14 3.008231 1_555
Hf2 Re20 3.008232 1_545
Hf2 Re19 3.015816 1_545
Hf2 Re12 3.015816 1_655
Hf2 Re17 3.064960 1_645
Hf2 Re16 3.071252 1_655
Hf2 Re15 3.071252 1_545
Hf2 Zr0 3.139114 1_545
Hf2 Re1 3.222144 1_655
Hf2 Re6 3.222147 1_545
Hf2 Tc2 3.232285 1_655
Hf3 Re6 2.771167 1_555
Hf3 Re8 2.771167 1_555
Hf3 Re7 2.776741 1_555
Hf3 Re9 3.004885 1_554
Hf3 Re11 3.004885 1_545
Hf3 Re16 3.008232 1_555
Hf3 Re13 3.008232 1_555
Hf3 Re17 3.015816 1_545
Hf3 Re12 3.015816 1_554
Hf3 Re19 3.064961 1_555
Hf3 Re20 3.071252 1_555
Hf3 Re18 3.071252 1_555
Hf3 Zr0 3.139115 1_444
Hf3 Re3 3.222153 1_555
Hf3 Re2 3.222153 1_555
Hf3 Tc1 3.232302 1_555
Re0 Re9 2.536486 1_554
Re0 Re14 2.768948 1_554
Re0 Re13 2.768949 1_655
Re0 Re6 2.811418 1_555
Re0 Re3 2.811421 1_554
Re0 Re18 2.884365 1_554
Re0 Re15 2.884365 1_555
Re0 Tc1 2.909023 1_555
Re0 Tc2 2.909025 1_554
Re0 Re8 2.928872 1_554
Re0 Re4 2.928874 1_655
Re1 Re16 2.537174 1_555
Re1 Re12 2.751941 1_555
Re1 Re14 2.766565 1_455
Re1 Re7 2.811418 1_555
Re1 Tc1 2.829404 1_455
Re1 Re10 2.869795 1_555
Re1 Re19 2.884252 1_455
Re1 Tc0 2.918392 1_556
Re1 Re8 2.926681 1_455
Re1 Re3 2.926681 1_555
Re1 Re5 2.928874 1_455
Re2 Re20 2.537177 1_555
Re2 Re5 2.811421 1_565
Re2 Tc2 2.829407 1_565
Re2 Tc0 2.918390 1_555
Re2 Re4 2.926680 1_555
Re2 Re6 2.926689 1_555
Re2 Re7 2.928880 1_555
Re3 Tc0 2.829407 1_556
Re3 Re9 2.869788 1_555
Re3 Tc2 2.918390 1_555
Re3 Re8 2.926688 1_555
Re3 Re7 2.928880 1_555
Re4 Re7 2.811419 1_555
Re4 Tc1 2.829404 1_455
Re4 Tc2 2.918392 1_565
Re4 Re6 2.926681 1_455
Re5 Re8 2.811418 1_555
Re5 Tc1 2.909023 1_555
Re5 Tc0 2.909025 1_545
Re5 Re6 2.928872 1_545
Re6 Tc0 2.829405 1_555
Re6 Re9 2.869794 1_554
Re6 Tc1 2.918403 1_555
Re7 Tc2 2.909024 1_565
Re7 Tc0 2.909024 1_556
Re8 Tc2 2.829405 1_555
Re8 Tc1 2.918403 1_555
Re9 Tc2 2.764149 1_555
Re9 Tc1 2.764159 1_556
Re9 Zr0 3.041642 1_445
Re10 Re19 2.504707 1_455
Re10 Re7 2.536480 1_555
Re10 Re9 2.677622 1_565
Re10 Re11 2.677622 1_556
Re10 Tc2 2.764149 1_565
Re10 Tc0 2.764149 1_556
Re10 Re4 2.869795 1_555
Re10 Zr0 3.041642 1_455
Re11 Re17 2.504707 1_555
Re11 Re5 2.536486 1_565
Re11 Re9 2.677622 1_564
Re11 Tc0 2.764149 1_555
Re11 Tc1 2.764159 1_565
Re11 Re2 2.869788 1_555
Re11 Re8 2.869794 1_565
Re11 Zr0 3.041643 1_454
Re12 Re9 2.504707 1_555
Re12 Tc0 2.537027 1_556
Re12 Re13 2.668204 1_556
Re12 Re14 2.668204 1_455
Re12 Re2 2.751946 1_556
Re12 Re3 2.884244 1_555
Re12 Re6 2.884250 1_556
Re12 Zr0 3.054488 1_445
Re13 Re16 2.504981 1_555
Re13 Re4 2.537174 1_555
Re13 Re14 2.667676 1_454
Re13 Re2 2.766570 1_555
Re13 Re7 2.884364 1_555
Re13 Tc1 2.885034 1_455
Re13 Zr0 3.038926 1_444
Re14 Re20 2.504981 1_545
Re14 Re8 2.537168 1_555
Re14 Re5 2.884365 1_555
Re14 Tc2 2.885050 1_555
Re14 Zr0 3.038926 1_545
Re15 Re18 2.504981 1_554
Re15 Re6 2.537167 1_555
Re15 Re16 2.667676 1_665
Re15 Re17 2.668204 1_655
Re15 Re4 2.766565 1_655
Re15 Re5 2.768948 1_565
Re15 Tc0 2.885050 1_555
Re15 Zr0 3.038926 1_554
Re16 Re17 2.668204 1_545
Re16 Re3 2.766570 1_555
Re16 Re5 2.768948 1_455
Re16 Re7 2.884364 1_555
Re16 Tc1 2.885035 1_455
Re16 Zr0 3.038926 1_444
Re17 Tc2 2.537027 1_565
Re17 Re4 2.751940 1_555
Re17 Re3 2.751946 1_565
Re17 Re2 2.884244 1_555
Re17 Re8 2.884250 1_565
Re17 Zr0 3.054488 1_454
Re18 Re3 2.537177 1_555
Re18 Re20 2.667676 1_555
Re18 Re19 2.668204 1_555
Re18 Re8 2.766572 1_555
Re18 Re7 2.768955 1_555
Re18 Tc0 2.885049 1_556
Re18 Zr0 3.038926 1_555
Re19 Tc1 2.537033 1_555
Re19 Re20 2.668204 1_555
Re19 Re8 2.751947 1_555
Re19 Re6 2.751948 1_555
Re19 Re4 2.884251 1_655
Re19 Zr0 3.054488 1_555
Re20 Re6 2.766572 1_555
Re20 Re7 2.768955 1_555
Re20 Re5 2.884365 1_565
Re20 Tc2 2.885050 1_565
Re20 Zr0 3.038926 1_555
