# generated using pymatgen
data_Rb2MnVSe4
_symmetry_space_group_name_H-M   'P 1'
_cell_length_a   14.12768858
_cell_length_b   12.61253334
_cell_length_c   7.59788777
_cell_angle_alpha   84.84745473
_cell_angle_beta   62.76603640
_cell_angle_gamma   32.38651574
_symmetry_Int_Tables_number   1
_chemical_formula_structural   Rb2MnVSe4
_chemical_formula_sum   'Rb4 Mn2 V2 Se8'
_cell_volume   504.42455660
_cell_formula_units_Z   2
loop_
 _symmetry_equiv_pos_site_id
 _symmetry_equiv_pos_as_xyz
  1  'x, y, z'
loop_
 _atom_site_type_symbol
 _atom_site_label
 _atom_site_symmetry_multiplicity
 _atom_site_fract_x
 _atom_site_fract_y
 _atom_site_fract_z
 _atom_site_occupancy
  Rb  Rb0  1  0.57182894  0.57182894  0.92817106  1
  Rb  Rb1  1  0.92817106  0.92817106  0.57182894  1
  Rb  Rb2  1  0.32182894  0.32182894  0.67817106  1
  Rb  Rb3  1  0.67817106  0.67817106  0.32182894  1
  Mn  Mn0  1  0.00000000  0.00000000  0.00000000  1
  Mn  Mn1  1  0.25000000  0.25000000  0.25000000  1
  V  V0  1  0.75000000  0.75000000  0.75000000  1
  V  V1  1  0.50000000  0.50000000  0.50000000  1
  Se  Se0  1  0.22940607  0.88034007  0.57391485  1
  Se  Se1  1  0.31633900  0.57391485  0.88034007  1
  Se  Se2  1  0.57391485  0.31633900  0.22940607  1
  Se  Se3  1  0.88034007  0.22940607  0.31633900  1
  Se  Se4  1  0.36965993  0.02059393  0.93366100  1
  Se  Se5  1  0.93366100  0.67608515  0.36965993  1
  Se  Se6  1  0.67608515  0.93366100  0.02059393  1
  Se  Se7  1  0.02059393  0.36965993  0.67608515  1
loop_
_geom_bond_atom_site_label_1
_geom_bond_atom_site_label_2
_geom_bond_distance
_geom_bond_site_symmetry_2
Rb0 Se0 3.539661 1_556
Rb0 Se3 3.539661 1_555
Rb0 Se7 3.581344 1_655
Rb0 Se4 3.581344 1_565
Rb0 Se3 3.755524 1_466
Rb0 Se0 3.755524 1_645
Rb0 Se1 3.768235 1_555
Rb0 Se2 3.768235 1_556
Rb1 Se2 3.539662 1_655
Rb1 Se1 3.539662 1_565
Rb1 Se6 3.581344 1_556
Rb1 Se5 3.581344 1_555
Rb1 Se1 3.755524 1_654
Rb1 Se2 3.755524 1_566
Rb1 Se0 3.768235 1_655
Rb1 Se3 3.768235 1_565
Rb2 Se6 3.539662 1_456
Rb2 Se5 3.539662 1_545
Rb2 Se2 3.581344 1_555
Rb2 Se1 3.581344 1_555
Rb2 Se5 3.755524 1_456
Rb2 Se6 3.755524 1_545
Rb2 Se7 3.768235 1_555
Rb2 Se4 3.768235 1_555
Rb3 Se7 3.539661 1_654
Rb3 Se4 3.539661 1_565
Rb3 Se0 3.581344 1_555
Rb3 Se3 3.581344 1_555
Rb3 Se4 3.755524 1_654
Rb3 Se7 3.755524 1_565
Rb3 Se5 3.768235 1_555
Rb3 Se6 3.768235 1_555
Mn0 Se0 2.505132 1_544
Mn0 Se3 2.505132 1_455
Mn0 Se2 2.505133 1_455
Mn0 Se1 2.505133 1_544
Mn1 Se7 2.505132 1_555
Mn1 Se4 2.505132 1_554
Mn1 Se6 2.505133 1_545
Mn1 Se5 2.505133 1_455
Se0 V1 2.342714 1_555
Se1 V1 2.342714 1_555
Se2 V1 2.342714 1_555
Se3 V1 2.342714 1_555
Se4 V0 2.342714 1_545
Se5 V0 2.342714 1_555
Se6 V0 2.342714 1_554
Se7 V0 2.342714 1_455
