# generated using pymatgen
data_Ti2Be15(NbCu2)4
_symmetry_space_group_name_H-M   'P 1'
_cell_length_a   7.64944301
_cell_length_b   7.60727039
_cell_length_c   7.60727161
_cell_angle_alpha   60.28552266
_cell_angle_beta   59.81644824
_cell_angle_gamma   59.81644906
_symmetry_Int_Tables_number   1
_chemical_formula_structural   Ti2Be15(NbCu2)4
_chemical_formula_sum   'Ti2 Be15 Nb4 Cu8'
_cell_volume   312.81330604
_cell_formula_units_Z   1
loop_
 _symmetry_equiv_pos_site_id
 _symmetry_equiv_pos_as_xyz
  1  'x, y, z'
loop_
 _atom_site_type_symbol
 _atom_site_label
 _atom_site_symmetry_multiplicity
 _atom_site_fract_x
 _atom_site_fract_y
 _atom_site_fract_z
 _atom_site_occupancy
  Ti  Ti0  1  0.79691468  0.20319277  0.79680723  1
  Ti  Ti1  1  0.79691468  0.79680723  0.20319277  1
  Be  Be0  1  0.49826887  0.50000000  0.50000000  1
  Be  Be1  1  0.49931228  0.50131295  0.00082093  1
  Be  Be2  1  0.00222596  0.50000000  0.50000000  1
  Be  Be3  1  0.49670202  0.00000000  0.00000000  1
  Be  Be4  1  0.00144616  0.99917907  0.49868705  1
  Be  Be5  1  0.00144616  0.49868705  0.99917907  1
  Be  Be6  1  0.49931228  0.00082093  0.50131295  1
  Be  Be7  1  0.82682256  0.52068214  0.82513580  1
  Be  Be8  1  0.17263950  0.17486420  0.47931786  1
  Be  Be9  1  0.48235603  0.17144476  0.17144476  1
  Be  Be10  1  0.17598292  0.17459127  0.17459127  1
  Be  Be11  1  0.52516546  0.82540873  0.82540873  1
  Be  Be12  1  0.82524655  0.82855524  0.82855524  1
  Be  Be13  1  0.82682256  0.82513580  0.52068214  1
  Be  Be14  1  0.17263950  0.47931786  0.17486420  1
  Nb  Nb0  1  0.19744485  0.19655645  0.80344355  1
  Nb  Nb1  1  0.18429315  0.81701832  0.81701832  1
  Nb  Nb2  1  0.81832979  0.18298168  0.18298168  1
  Nb  Nb3  1  0.19744485  0.80344355  0.19655645  1
  Cu  Cu0  1  0.62494839  0.13259873  0.61949676  1
  Cu  Cu1  1  0.37704688  0.38050324  0.86740127  1
  Cu  Cu2  1  0.86633950  0.37661770  0.37661770  1
  Cu  Cu3  1  0.38092835  0.37525478  0.37525478  1
  Cu  Cu4  1  0.13143791  0.62474522  0.62474522  1
  Cu  Cu5  1  0.61957490  0.62338230  0.62338230  1
  Cu  Cu6  1  0.62494839  0.61949676  0.13259873  1
  Cu  Cu7  1  0.37704688  0.86740127  0.38050324  1
loop_
_geom_bond_atom_site_label_1
_geom_bond_atom_site_label_2
_geom_bond_distance
_geom_bond_site_symmetry_2
Ti0 Ti1 3.104817 1_546
Be0 Cu3 2.283098 1_555
Be0 Cu4 2.283098 1_555
Be0 Cu0 2.284867 1_555
Be0 Cu7 2.284867 1_555
Be0 Cu6 2.284867 1_555
Be0 Cu1 2.284867 1_555
Be0 Cu5 2.290832 1_555
Be0 Cu2 2.290832 1_555
Be1 Be11 2.204942 1_554
Be1 Be7 2.212111 1_554
Be1 Be14 2.213430 1_555
Be1 Be9 2.219832 1_555
Be1 Cu3 2.329104 1_555
Be1 Cu6 2.338360 1_555
Be1 Cu1 2.343718 1_554
Be1 Cu5 2.347882 1_554
Be1 Nb3 2.725892 1_555
Be1 Ti0 2.734878 1_554
Be1 Nb1 2.787355 1_554
Be1 Nb2 2.805537 1_555
Be2 Be8 2.186132 1_555
Be2 Be7 2.186132 1_455
Be2 Cu4 2.357352 1_555
Be2 Cu3 2.357352 1_555
Be2 Cu2 2.382827 1_455
Be2 Cu5 2.382827 1_455
Be2 Nb3 2.757654 1_555
Be2 Nb0 2.757654 1_555
Be2 Ti0 2.758382 1_455
Be2 Ti1 2.758382 1_455
Be3 Be9 2.193747 1_555
Be3 Cu6 2.367202 1_545
Be3 Cu1 2.367202 1_554
Be3 Cu0 2.367202 1_554
Be3 Cu7 2.367203 1_545
Be3 Nb3 2.737761 1_545
Be3 Nb0 2.737761 1_554
Be3 Ti0 2.771949 1_554
Be3 Ti1 2.771949 1_545
Be4 Be8 2.212104 1_565
Be4 Cu4 2.329103 1_555
Be4 Cu7 2.338379 1_555
Be4 Cu0 2.343736 1_465
Be4 Cu2 2.347881 1_465
Be4 Nb3 2.725892 1_555
Be4 Ti0 2.734878 1_465
Be4 Nb2 2.787355 1_465
Be4 Nb1 2.805537 1_555
Be5 Be7 2.213424 1_455
Be5 Cu4 2.329104 1_555
Be5 Cu1 2.338379 1_555
Be5 Cu6 2.343736 1_456
Be5 Cu2 2.347882 1_456
Be5 Nb0 2.725892 1_555
Be5 Ti1 2.734878 1_456
Be5 Nb2 2.787355 1_456
Be5 Nb1 2.805536 1_555
Be6 Be8 2.213430 1_555
Be6 Be9 2.219832 1_555
Be6 Cu3 2.329103 1_555
Be6 Cu0 2.338360 1_555
Be6 Cu7 2.343718 1_545
Be6 Cu5 2.347881 1_545
Be6 Nb0 2.725892 1_555
Be6 Ti1 2.734878 1_545
Be6 Nb1 2.787355 1_545
Be6 Nb2 2.805537 1_555
Be7 Cu6 2.316092 1_556
Be7 Cu4 2.338114 1_655
Be7 Cu5 2.343444 1_555
Be7 Nb0 2.654856 1_655
Be7 Ti0 2.655802 1_555
Be7 Nb2 2.659229 1_556
Be8 Cu7 2.316092 1_545
Be8 Cu3 2.338120 1_555
Be8 Cu2 2.343437 1_455
Be8 Be9 2.349005 1_555
Be8 Nb0 2.654860 1_555
Be8 Ti0 2.655798 1_455
Be8 Nb1 2.659229 1_545
Be9 Cu3 2.318095 1_555
Be9 Cu7 2.338067 1_545
Be9 Cu1 2.338067 1_554
Be9 Ti1 2.641369 1_545
Be9 Ti0 2.641369 1_554
Be9 Nb2 2.661131 1_555
Be10 Be3 2.177761 1_555
Be10 Be5 2.204942 1_554
Be10 Be4 2.204942 1_545
Be10 Be14 2.306409 1_555
Be10 Be8 2.306409 1_555
Be10 Cu2 2.314073 1_455
Be10 Be9 2.319759 1_555
Be10 Cu1 2.336615 1_554
Be10 Cu7 2.336615 1_545
Be10 Nb3 2.668401 1_545
Be10 Nb0 2.668402 1_554
Be10 Nb2 2.673175 1_455
Be11 Be3 2.177761 1_566
Be11 Be6 2.204942 1_565
Be11 Be7 2.306413 1_555
Be11 Be13 2.306413 1_555
Be11 Cu5 2.314073 1_555
Be11 Be12 2.319767 1_555
Be11 Cu0 2.336604 1_565
Be11 Cu6 2.336604 1_556
Be11 Nb0 2.668402 1_565
Be11 Nb3 2.668402 1_556
Be11 Nb1 2.673175 1_555
Be12 Be3 2.193751 1_566
Be12 Be5 2.219829 1_655
Be12 Be4 2.219829 1_655
Be12 Cu4 2.318092 1_655
Be12 Cu6 2.338082 1_556
Be12 Cu0 2.338082 1_565
Be12 Be7 2.349005 1_555
Be12 Be13 2.349005 1_555
Be12 Ti0 2.641366 1_565
Be12 Ti1 2.641366 1_556
Be12 Nb1 2.661123 1_655
Be13 Be2 2.186132 1_655
Be13 Be6 2.212111 1_565
Be13 Be4 2.213424 1_655
Be13 Cu0 2.316092 1_565
Be13 Be7 2.326050 1_555
Be13 Cu4 2.338114 1_655
Be13 Cu5 2.343443 1_555
Be13 Nb3 2.654856 1_655
Be13 Ti1 2.655803 1_555
Be13 Nb2 2.659229 1_565
Be14 Be2 2.186132 1_555
Be14 Be5 2.212104 1_554
Be14 Cu1 2.316092 1_554
Be14 Be8 2.326050 1_555
Be14 Cu3 2.338121 1_555
Be14 Cu2 2.343437 1_455
Be14 Be9 2.349005 1_555
Be14 Nb3 2.654860 1_555
Be14 Ti1 2.655798 1_455
Be14 Nb1 2.659229 1_554
Nb0 Nb1 2.888433 1_545
Nb0 Nb2 2.888433 1_456
Nb0 Nb3 3.003413 1_546
Nb0 Ti0 3.064252 1_455
Nb1 Nb3 2.888433 1_556
Nb1 Ti0 2.948145 1_465
Nb1 Ti1 2.948145 1_456
Nb2 Nb3 2.888433 1_645
Nb2 Ti1 2.948145 1_545
Nb2 Ti0 2.948145 1_554
Nb3 Ti1 3.064252 1_455
Cu0 Cu2 2.623973 1_555
Cu0 Cu3 2.639413 1_555
Cu0 Cu1 2.653824 1_555
Cu0 Ti0 2.655338 1_555
Cu0 Nb0 2.713387 1_555
Cu0 Nb2 2.780478 1_555
Cu1 Cu5 2.623957 1_555
Cu1 Cu4 2.639429 1_555
Cu1 Ti0 2.655319 1_555
Cu1 Nb0 2.713406 1_555
Cu1 Nb1 2.780478 1_555
Cu2 Cu6 2.623973 1_555
Cu2 Cu5 2.641621 1_555
Cu2 Ti1 2.656510 1_555
Cu2 Ti0 2.656510 1_555
Cu2 Nb2 2.777339 1_555
Cu3 Cu6 2.639413 1_555
Cu3 Cu4 2.670801 1_555
Cu3 Nb3 2.712903 1_555
Cu3 Nb0 2.712903 1_555
Cu3 Nb2 2.784337 1_555
Cu4 Cu7 2.639429 1_555
Cu4 Nb0 2.712903 1_555
Cu4 Nb3 2.712903 1_555
Cu4 Nb1 2.784337 1_555
Cu5 Cu7 2.623957 1_555
Cu5 Ti0 2.656510 1_555
Cu5 Ti1 2.656510 1_555
Cu5 Nb1 2.777339 1_555
Cu6 Cu7 2.653824 1_555
Cu6 Ti1 2.655338 1_555
Cu6 Nb3 2.713387 1_555
Cu6 Nb2 2.780478 1_555
Cu7 Ti1 2.655319 1_555
Cu7 Nb3 2.713406 1_555
Cu7 Nb1 2.780478 1_555
