# generated using pymatgen
data_Sr3AgAs2H
_symmetry_space_group_name_H-M   'P 1'
_cell_length_a   4.49432744
_cell_length_b   12.19109193
_cell_length_c   12.80788921
_cell_angle_alpha   90.00000000
_cell_angle_beta   90.00000000
_cell_angle_gamma   90.00000000
_symmetry_Int_Tables_number   1
_chemical_formula_structural   Sr3AgAs2H
_chemical_formula_sum   'Sr12 Ag4 As8 H4'
_cell_volume   701.75397026
_cell_formula_units_Z   4
loop_
 _symmetry_equiv_pos_site_id
 _symmetry_equiv_pos_as_xyz
  1  'x, y, z'
loop_
 _atom_site_type_symbol
 _atom_site_label
 _atom_site_symmetry_multiplicity
 _atom_site_fract_x
 _atom_site_fract_y
 _atom_site_fract_z
 _atom_site_occupancy
  Sr  Sr0  1  0.25000000  0.06616144  0.62308321  1
  Sr  Sr1  1  0.25000000  0.56616144  0.87691679  1
  Sr  Sr2  1  0.75000000  0.93383856  0.37691679  1
  Sr  Sr3  1  0.75000000  0.43383856  0.12308321  1
  Sr  Sr4  1  0.25000000  0.36846315  0.55712918  1
  Sr  Sr5  1  0.25000000  0.86846315  0.94287082  1
  Sr  Sr6  1  0.75000000  0.63153685  0.44287082  1
  Sr  Sr7  1  0.75000000  0.13153685  0.05712918  1
  Sr  Sr8  1  0.25000000  0.20834568  0.29761540  1
  Sr  Sr9  1  0.25000000  0.70834568  0.20238460  1
  Sr  Sr10  1  0.75000000  0.79165432  0.70238460  1
  Sr  Sr11  1  0.75000000  0.29165432  0.79761540  1
  Ag  Ag0  1  0.25000000  0.12566103  0.87182893  1
  Ag  Ag1  1  0.25000000  0.62566103  0.62817107  1
  Ag  Ag2  1  0.75000000  0.87433897  0.12817107  1
  Ag  Ag3  1  0.75000000  0.37433897  0.37182893  1
  As  As0  1  0.25000000  0.47966102  0.31944643  1
  As  As1  1  0.25000000  0.97966102  0.18055357  1
  As  As2  1  0.75000000  0.52033898  0.68055357  1
  As  As3  1  0.75000000  0.02033898  0.81944643  1
  As  As4  1  0.25000000  0.31541118  0.98402621  1
  As  As5  1  0.25000000  0.81541118  0.51597379  1
  As  As6  1  0.75000000  0.68458882  0.01597379  1
  As  As7  1  0.75000000  0.18458882  0.48402621  1
  H  H0  1  0.25000000  0.24986096  0.71242723  1
  H  H1  1  0.25000000  0.74986096  0.78757277  1
  H  H2  1  0.75000000  0.75013904  0.28757277  1
  H  H3  1  0.75000000  0.25013904  0.21242723  1
loop_
_geom_bond_atom_site_label_1
_geom_bond_atom_site_label_2
_geom_bond_distance
_geom_bond_site_symmetry_2
Ag0 H0 2.541796 1_555
Ag0 As3 2.673667 1_555
Ag0 As3 2.673667 1_455
Ag0 As4 2.723266 1_555
Ag0 Sr11 3.169913 1_455
Ag0 Sr11 3.169913 1_555
Ag0 Sr5 3.264876 1_545
Ag0 Sr0 3.267440 1_555
Ag0 Sr7 3.269167 1_456
Ag0 Sr7 3.269167 1_556
Ag1 H1 2.541796 1_555
Ag1 As2 2.673667 1_455
Ag1 As2 2.673667 1_555
Ag1 As5 2.723266 1_555
Ag1 Sr10 3.169913 1_555
Ag1 Sr10 3.169913 1_455
Ag1 Sr4 3.264876 1_555
Ag1 Sr1 3.267440 1_555
Ag1 Sr6 3.269167 1_555
Ag1 Sr6 3.269167 1_455
Ag2 H2 2.541796 1_555
Ag2 As1 2.673667 1_555
Ag2 As1 2.673667 1_655
Ag2 As6 2.723266 1_555
Ag2 Sr9 3.169913 1_555
Ag2 Sr9 3.169913 1_655
Ag2 Sr7 3.264876 1_565
Ag2 Sr2 3.267440 1_555
Ag2 Sr5 3.269167 1_554
Ag2 Sr5 3.269167 1_654
Ag3 H3 2.541796 1_555
Ag3 As0 2.673667 1_555
Ag3 As0 2.673667 1_655
Ag3 As7 2.723266 1_555
Ag3 Sr8 3.169913 1_555
Ag3 Sr8 3.169913 1_655
Ag3 Sr6 3.264876 1_555
Ag3 Sr3 3.267440 1_555
Ag3 Sr4 3.269167 1_555
Ag3 Sr4 3.269167 1_655
As0 Sr9 3.165505 1_555
As0 Sr6 3.313135 1_455
As0 Sr6 3.313135 1_555
As0 Sr8 3.319428 1_555
As0 Sr4 3.332410 1_555
As0 Sr3 3.418629 1_455
As0 Sr3 3.418629 1_555
As1 Sr8 3.165505 1_565
As1 Sr7 3.313135 1_465
As1 Sr7 3.313135 1_565
As1 Sr9 3.319428 1_555
As1 Sr5 3.332410 1_554
As1 Sr2 3.418629 1_455
As1 Sr2 3.418629 1_555
As2 Sr11 3.165505 1_555
As2 Sr4 3.313135 1_655
As2 Sr4 3.313135 1_555
As2 Sr10 3.319428 1_555
As2 Sr6 3.332410 1_555
As2 Sr1 3.418629 1_555
As2 Sr1 3.418629 1_655
As3 Sr10 3.165505 1_545
As3 Sr5 3.313135 1_645
As3 Sr5 3.313135 1_545
As3 Sr11 3.319428 1_555
As3 Sr7 3.332410 1_556
As3 Sr0 3.418629 1_655
As3 Sr0 3.418629 1_555
As4 Sr3 3.210333 1_456
As4 Sr3 3.210333 1_556
As4 Sr11 3.291492 1_455
As4 Sr11 3.291492 1_555
As4 Sr7 3.309274 1_556
As4 Sr7 3.309274 1_456
As4 Sr1 3.350629 1_555
As5 Sr2 3.210333 1_455
As5 Sr2 3.210333 1_555
As5 Sr10 3.291492 1_555
As5 Sr10 3.291492 1_455
As5 Sr6 3.309274 1_455
As5 Sr6 3.309274 1_555
As5 Sr0 3.350629 1_565
As6 Sr1 3.210333 1_654
As6 Sr1 3.210333 1_554
As6 Sr9 3.291492 1_555
As6 Sr9 3.291492 1_655
As6 Sr5 3.309274 1_554
As6 Sr5 3.309274 1_654
As6 Sr3 3.350629 1_555
As7 Sr0 3.210333 1_655
As7 Sr0 3.210333 1_555
As7 Sr8 3.291492 1_655
As7 Sr8 3.291492 1_555
As7 Sr4 3.309274 1_555
As7 Sr4 3.309274 1_655
As7 Sr2 3.350629 1_545
H0 Sr4 2.459040 1_555
H0 Sr0 2.514914 1_555
H0 Sr11 2.549470 1_455
H0 Sr11 2.549470 1_555
H1 Sr5 2.459040 1_555
H1 Sr1 2.514914 1_555
H1 Sr10 2.549470 1_555
H1 Sr10 2.549470 1_455
H2 Sr6 2.459040 1_555
H2 Sr2 2.514914 1_555
H2 Sr9 2.549470 1_555
H2 Sr9 2.549470 1_655
H3 Sr7 2.459040 1_555
H3 Sr3 2.514914 1_555
H3 Sr8 2.549470 1_555
H3 Sr8 2.549470 1_655
