# generated using pymatgen
data_MgTi3GaPt11
_symmetry_space_group_name_H-M   'P 1'
_cell_length_a   5.59888720
_cell_length_b   5.53037646
_cell_length_c   9.03645753
_cell_angle_alpha   90.00000000
_cell_angle_beta   90.00000000
_cell_angle_gamma   120.41064747
_symmetry_Int_Tables_number   1
_chemical_formula_structural   MgTi3GaPt11
_chemical_formula_sum   'Mg1 Ti3 Ga1 Pt11'
_cell_volume   241.30885059
_cell_formula_units_Z   1
loop_
 _symmetry_equiv_pos_site_id
 _symmetry_equiv_pos_as_xyz
  1  'x, y, z'
loop_
 _atom_site_type_symbol
 _atom_site_label
 _atom_site_symmetry_multiplicity
 _atom_site_fract_x
 _atom_site_fract_y
 _atom_site_fract_z
 _atom_site_occupancy
  Mg  Mg0  1  0.32397087  0.64794273  0.25000000  1
  Ti  Ti0  1  0.00792371  0.01584741  0.50647036  1
  Ti  Ti1  1  0.00792371  0.01584741  0.99352964  1
  Ti  Ti2  1  0.66919691  0.33839281  0.75000000  1
  Ga  Ga0  1  0.81465759  0.62931719  0.25000000  1
  Pt  Pt0  1  0.50921459  0.50917445  0.49760235  1
  Pt  Pt1  1  0.50426191  0.00852382  0.50335062  1
  Pt  Pt2  1  0.99995886  0.50917445  0.49760235  1
  Pt  Pt3  1  0.50921459  0.50917445  0.00239765  1
  Pt  Pt4  1  0.50426191  0.00852382  0.99664938  1
  Pt  Pt5  1  0.99995886  0.50917445  0.00239765  1
  Pt  Pt6  1  0.31658428  0.14125426  0.25000000  1
  Pt  Pt7  1  0.82466898  0.14125426  0.25000000  1
  Pt  Pt8  1  0.17015977  0.34031954  0.75000000  1
  Pt  Pt9  1  0.66952735  0.83804047  0.75000000  1
  Pt  Pt10  1  0.16851412  0.83804047  0.75000000  1
loop_
_geom_bond_atom_site_label_1
_geom_bond_atom_site_label_2
_geom_bond_distance
_geom_bond_site_symmetry_2
Mg0 Pt2 2.734347 1_455
Mg0 Pt5 2.734347 1_455
Mg0 Pt0 2.734347 1_555
Mg0 Pt3 2.734347 1_555
Mg0 Pt6 2.749364 1_565
Mg0 Pt7 2.749364 1_565
Mg0 Pt7 2.781472 1_455
Mg0 Pt6 2.781472 1_555
Mg0 Pt1 2.863391 1_565
Mg0 Pt4 2.863391 1_564
Ga0 Pt0 2.687355 1_555
Ga0 Pt3 2.687355 1_555
Ga0 Pt2 2.687358 1_555
Ga0 Pt5 2.687358 1_555
Ga0 Pt6 2.727971 1_555
Ga0 Pt7 2.727974 1_555
Ga0 Mg0 2.800850 1_555
Ga0 Mg0 2.800856 1_655
Ga0 Pt7 2.803248 1_565
Ga0 Pt6 2.803251 1_665
Ga0 Ti0 2.961401 1_665
Ga0 Ti1 2.961401 1_664
Pt0 Pt2 2.747622 1_555
Pt0 Ti0 2.752290 1_555
Pt0 Pt1 2.755343 1_555
Pt0 Pt9 2.768171 1_555
Pt0 Pt1 2.776215 1_565
Pt0 Ti0 2.780943 1_665
Pt0 Ti2 2.784388 1_555
Pt0 Pt8 2.807664 1_555
Pt0 Pt6 2.843913 1_555
Pt0 Pt2 2.851265 1_455
Pt1 Ti2 2.728190 1_555
Pt1 Pt2 2.755341 1_555
Pt1 Pt10 2.756092 1_545
Pt1 Pt9 2.756094 1_545
Pt1 Pt7 2.768603 1_555
Pt1 Pt6 2.768606 1_555
Pt1 Pt2 2.776218 1_445
Pt1 Ti0 2.799803 1_555
Pt1 Ti0 2.799803 1_655
Pt2 Ti0 2.752293 1_655
Pt2 Ti0 2.780940 1_665
Pt2 Ti2 2.784382 1_555
Pt2 Pt8 2.807667 1_655
Pt2 Pt7 2.843913 1_555
Pt3 Pt5 2.747622 1_555
Pt3 Ti1 2.752290 1_554
Pt3 Pt4 2.755343 1_554
Pt3 Pt9 2.768171 1_554
Pt3 Pt4 2.776215 1_564
Pt3 Ti1 2.780943 1_664
Pt3 Ti2 2.784388 1_554
Pt3 Pt8 2.807664 1_554
Pt3 Pt6 2.843913 1_555
Pt3 Pt5 2.851265 1_455
Pt4 Ti2 2.728190 1_555
Pt4 Pt5 2.755341 1_556
Pt4 Pt9 2.756094 1_545
Pt4 Pt7 2.768603 1_556
Pt4 Pt6 2.768606 1_556
Pt4 Pt5 2.776218 1_446
Pt4 Ti1 2.799803 1_555
Pt4 Ti1 2.799803 1_655
Pt5 Ti1 2.752293 1_654
Pt5 Ti1 2.780940 1_664
Pt5 Ti2 2.784382 1_554
Pt5 Pt8 2.807667 1_654
Pt5 Pt7 2.843913 1_555
Pt6 Pt7 2.754178 1_455
Pt6 Ti0 2.761398 1_555
Pt6 Ti1 2.761398 1_554
Pt6 Pt7 2.844709 1_555
Pt7 Ti0 2.761401 1_655
Pt7 Ti1 2.761401 1_654
Pt8 Ti1 2.690319 1_555
Pt8 Ti0 2.690319 1_555
Pt8 Pt9 2.757262 1_555
Pt8 Pt9 2.773137 1_445
Pt8 Ti2 2.799456 1_455
Pt8 Ti2 2.799461 1_555
Pt9 Ti1 2.741042 1_665
Pt9 Ti0 2.741042 1_665
Pt9 Ti2 2.762304 1_555
Pt9 Ti2 2.768074 1_565
Pt10 Ti1 2.741045 1_565
Pt10 Ti0 2.741045 1_565
Pt10 Pt4 2.756092 1_565
Pt10 Pt8 2.757260 1_555
Pt10 Ti2 2.762304 1_455
Pt10 Ti2 2.768074 1_565
Pt10 Pt5 2.768172 1_456
Pt10 Pt2 2.768172 1_455
Pt10 Pt8 2.773140 1_565
Pt10 Pt9 2.793771 1_455
Pt10 Pt9 2.805117 1_555
