# generated using pymatgen
data_K8Ti6BCl20
_symmetry_space_group_name_H-M   'P 1'
_cell_length_a   10.78970655
_cell_length_b   10.78970669
_cell_length_c   10.78970717
_cell_angle_alpha   60.00000145
_cell_angle_beta   60.00000101
_cell_angle_gamma   59.99999944
_symmetry_Int_Tables_number   1
_chemical_formula_structural   K8Ti6BCl20
_chemical_formula_sum   'K8 Ti6 B1 Cl20'
_cell_volume   888.20648261
_cell_formula_units_Z   1
loop_
 _symmetry_equiv_pos_site_id
 _symmetry_equiv_pos_as_xyz
  1  'x, y, z'
loop_
 _atom_site_type_symbol
 _atom_site_label
 _atom_site_symmetry_multiplicity
 _atom_site_fract_x
 _atom_site_fract_y
 _atom_site_fract_z
 _atom_site_occupancy
  K  K0  1  0.08112285  0.63962605  0.63962605  1
  K  K1  1  0.63962605  0.08112285  0.63962605  1
  K  K2  1  0.63962605  0.63962605  0.08112285  1
  K  K3  1  0.63962605  0.63962605  0.63962605  1
  K  K4  1  0.36037395  0.91887715  0.36037395  1
  K  K5  1  0.91887715  0.36037395  0.36037395  1
  K  K6  1  0.36037395  0.36037395  0.91887715  1
  K  K7  1  0.36037395  0.36037395  0.36037395  1
  Ti  Ti0  1  0.85924934  0.85924934  0.14075066  1
  Ti  Ti1  1  0.85924934  0.14075066  0.85924934  1
  Ti  Ti2  1  0.14075066  0.14075066  0.85924934  1
  Ti  Ti3  1  0.14075066  0.85924934  0.14075066  1
  Ti  Ti4  1  0.14075066  0.85924934  0.85924934  1
  Ti  Ti5  1  0.85924934  0.14075066  0.14075066  1
  B  B0  1  0.00000000  0.00000000  0.00000000  1
  Cl  Cl0  1  0.68116449  0.31883551  1.00000000  1
  Cl  Cl1  1  1.00000000  0.68116449  0.00000000  1
  Cl  Cl2  1  0.00000000  0.00000000  0.68116449  1
  Cl  Cl3  1  0.68116449  1.00000000  0.31883551  1
  Cl  Cl4  1  0.31883551  0.68116449  0.00000000  1
  Cl  Cl5  1  0.31883551  0.00000000  0.68116449  1
  Cl  Cl6  1  1.00000000  1.00000000  0.31883551  1
  Cl  Cl7  1  0.00000000  0.31883551  1.00000000  1
  Cl  Cl8  1  1.00000000  0.68116449  0.31883551  1
  Cl  Cl9  1  0.68116449  1.00000000  1.00000000  1
  Cl  Cl10  1  0.00000000  0.31883551  0.68116449  1
  Cl  Cl11  1  0.31883551  0.00000000  0.00000000  1
  Cl  Cl12  1  0.68852426  0.68852426  0.31147574  1
  Cl  Cl13  1  0.68852426  0.31147574  0.68852426  1
  Cl  Cl14  1  0.31147574  0.31147574  0.68852426  1
  Cl  Cl15  1  0.31147574  0.68852426  0.31147574  1
  Cl  Cl16  1  0.31147574  0.68852426  0.68852426  1
  Cl  Cl17  1  0.68852426  0.31147574  0.31147574  1
  Cl  Cl18  1  0.75000000  0.75000000  0.75000000  1
  Cl  Cl19  1  0.25000000  0.25000000  0.25000000  1
loop_
_geom_bond_atom_site_label_1
_geom_bond_atom_site_label_2
_geom_bond_distance
_geom_bond_site_symmetry_2
B0 Ti3 2.147707 1_545
B0 Ti5 2.147707 1_455
B0 Ti1 2.147707 1_454
B0 Ti4 2.147707 1_544
B0 Ti2 2.147707 1_554
B0 Ti0 2.147707 1_445
Cl0 Ti5 2.449168 1_556
Cl0 Ti1 2.449168 1_555
Cl1 Ti0 2.449168 1_555
Cl1 Ti4 2.449168 1_654
Cl2 Ti1 2.449168 1_455
Cl2 Ti4 2.449168 1_545
Cl3 Ti0 2.449168 1_555
Cl3 Ti5 2.449168 1_565
Cl4 Ti3 2.449168 1_555
Cl4 Ti4 2.449168 1_554
Cl5 Ti2 2.449168 1_555
Cl5 Ti4 2.449168 1_545
Cl6 Ti5 2.449168 1_565
Cl6 Ti3 2.449168 1_655
Cl7 Ti2 2.449168 1_555
Cl7 Ti5 2.449168 1_456
Cl8 Ti0 2.449168 1_555
Cl8 Ti3 2.449168 1_655
Cl9 Ti0 2.449168 1_556
Cl9 Ti1 2.449168 1_565
Cl10 Ti2 2.449168 1_555
Cl10 Ti1 2.449168 1_455
Cl11 Ti2 2.449168 1_554
Cl11 Ti3 2.449168 1_545
Cl12 Ti0 2.605085 1_555
Cl12 K2 3.104048 1_555
Cl12 K4 3.104055 1_555
Cl12 K5 3.104055 1_555
Cl12 K3 3.104058 1_555
Cl13 Ti1 2.605085 1_555
Cl13 K1 3.104048 1_555
Cl13 K6 3.104055 1_555
Cl13 K5 3.104055 1_555
Cl13 K3 3.104058 1_555
Cl14 Ti2 2.605085 1_555
Cl14 K6 3.104048 1_555
Cl14 K1 3.104055 1_555
Cl14 K0 3.104055 1_555
Cl14 K7 3.104058 1_555
Cl15 Ti3 2.605085 1_555
Cl15 K4 3.104048 1_555
Cl15 K2 3.104055 1_555
Cl15 K0 3.104055 1_555
Cl15 K7 3.104058 1_555
Cl16 Ti4 2.605085 1_555
Cl16 K0 3.104048 1_555
Cl16 K6 3.104055 1_555
Cl16 K4 3.104055 1_555
Cl16 K3 3.104058 1_555
Cl17 Ti5 2.605085 1_555
Cl17 K5 3.104048 1_555
Cl17 K2 3.104055 1_555
Cl17 K1 3.104055 1_555
Cl17 K7 3.104058 1_555
Cl18 K3 2.917104 1_555
Cl18 K0 2.917112 1_655
Cl18 K1 2.917112 1_565
Cl18 K2 2.917113 1_556
Cl19 K7 2.917104 1_555
Cl19 K5 2.917112 1_455
Cl19 K4 2.917112 1_545
Cl19 K6 2.917113 1_554
