# generated using pymatgen
data_Rb2Te6PdPt3
_symmetry_space_group_name_H-M   'P 1'
_cell_length_a   8.37210033
_cell_length_b   8.37209908
_cell_length_c   8.36009522
_cell_angle_alpha   56.78660775
_cell_angle_beta   56.78660529
_cell_angle_gamma   57.04428865
_symmetry_Int_Tables_number   1
_chemical_formula_structural   Rb2Te6PdPt3
_chemical_formula_sum   'Rb2 Te6 Pd1 Pt3'
_cell_volume   384.44345298
_cell_formula_units_Z   1
loop_
 _symmetry_equiv_pos_site_id
 _symmetry_equiv_pos_as_xyz
  1  'x, y, z'
loop_
 _atom_site_type_symbol
 _atom_site_label
 _atom_site_symmetry_multiplicity
 _atom_site_fract_x
 _atom_site_fract_y
 _atom_site_fract_z
 _atom_site_occupancy
  Rb  Rb0  1  0.79401275  0.79401275  0.78913127  1
  Rb  Rb1  1  0.20598725  0.20598725  0.21086873  1
  Te  Te0  1  0.76622127  0.76622127  0.27967223  1
  Te  Te1  1  0.27768867  0.76727593  0.76616903  1
  Te  Te2  1  0.76727593  0.27768867  0.76616903  1
  Te  Te3  1  0.72231133  0.23272407  0.23383097  1
  Te  Te4  1  0.23377873  0.23377873  0.72032777  1
  Te  Te5  1  0.23272407  0.72231133  0.23383097  1
  Pd  Pd0  1  0.50000000  0.50000000  0.00000000  1
  Pt  Pt0  1  0.00000000  0.00000000  0.00000000  1
  Pt  Pt1  1  0.50000000  0.00000000  0.50000000  1
  Pt  Pt2  1  0.00000000  0.50000000  0.50000000  1
loop_
_geom_bond_atom_site_label_1
_geom_bond_atom_site_label_2
_geom_bond_distance
_geom_bond_site_symmetry_2
Rb0 Te2 3.833244 1_565
Rb0 Te1 3.833245 1_655
Rb0 Te0 3.859335 1_556
Rb1 Te5 3.833244 1_545
Rb1 Te3 3.833245 1_455
Rb1 Te4 3.859335 1_554
Pd0 Te5 2.637290 1_555
Pd0 Te2 2.637290 1_554
Pd0 Te3 2.637290 1_555
Pd0 Te1 2.637290 1_554
Pd0 Rb0 3.508588 1_554
Pd0 Rb1 3.508588 1_555
Pt0 Te4 2.696163 1_554
Pt0 Te0 2.696163 1_445
Pt0 Te3 2.699651 1_455
Pt0 Te1 2.699651 1_544
Pt0 Te5 2.699652 1_545
Pt0 Te2 2.699652 1_454
Pt1 Te3 2.621150 1_555
Pt1 Te1 2.621150 1_545
Pt1 Te4 2.626217 1_555
Pt1 Te0 2.626217 1_545
Pt1 Rb0 3.494108 1_545
Pt1 Rb1 3.494108 1_555
Pt2 Te5 2.621150 1_555
Pt2 Te2 2.621150 1_455
Pt2 Te4 2.626217 1_555
Pt2 Te0 2.626217 1_455
Pt2 Rb0 3.494108 1_455
Pt2 Rb1 3.494108 1_555
