# generated using pymatgen
data_K6LuAlAs4
_symmetry_space_group_name_H-M   'P 1'
_cell_length_a   9.08227066
_cell_length_b   9.08227102
_cell_length_c   9.08227125
_cell_angle_alpha   127.86772649
_cell_angle_beta   70.11371062
_cell_angle_gamma   136.57825154
_symmetry_Int_Tables_number   1
_chemical_formula_structural   K6LuAlAs4
_chemical_formula_sum   'K6 Lu1 Al1 As4'
_cell_volume   398.73607885
_cell_formula_units_Z   1
loop_
 _symmetry_equiv_pos_site_id
 _symmetry_equiv_pos_as_xyz
  1  'x, y, z'
loop_
 _atom_site_type_symbol
 _atom_site_label
 _atom_site_symmetry_multiplicity
 _atom_site_fract_x
 _atom_site_fract_y
 _atom_site_fract_z
 _atom_site_occupancy
  K  K0  1  0.79373798  0.17711709  0.00493958  1
  K  K1  1  0.70626202  0.71120059  0.38337810  1
  K  K2  1  0.75000000  0.25000000  0.50000000  1
  K  K3  1  0.25000000  0.75000100  0.50000100  1
  K  K4  1  0.32782249  0.32288291  0.61662090  1
  K  K5  1  0.17217751  0.78879741  0.99505942  1
  Lu  Lu0  1  0.25000000  0.25000000  0.00000000  1
  Al  Al0  1  0.75000000  0.75000000  0.00000000  1
  As  As0  1  0.42289884  0.70434794  0.09000686  1
  As  As1  1  0.07710116  0.16710702  0.28144910  1
  As  As2  1  0.88565692  0.79565106  0.71854990  1
  As  As3  1  0.61434308  0.33289298  0.90999414  1
loop_
_geom_bond_atom_site_label_1
_geom_bond_atom_site_label_2
_geom_bond_distance
_geom_bond_site_symmetry_2
Al0 As0 2.576933 1_555
Al0 As1 2.576933 1_665
Al0 As2 2.576937 1_554
Al0 As3 2.576937 1_554
As0 Lu0 2.735197 1_555
As0 K2 3.276454 1_565
As0 K4 3.335671 1_554
As0 K5 3.346958 1_554
As0 K3 3.402338 1_555
As0 K0 3.416490 1_565
As0 K0 3.859120 1_455
As1 Lu0 2.735201 1_555
As1 K2 3.276458 1_455
As1 K5 3.335672 1_544
As1 K4 3.346954 1_555
As1 K3 3.402346 1_555
As1 K1 3.416484 1_445
As1 K1 3.859120 1_555
As2 Lu0 2.735209 1_666
As2 K2 3.276457 1_555
As2 K0 3.335665 1_566
As2 K1 3.346949 1_555
As2 K3 3.402336 1_655
As2 K4 3.416478 1_555
As2 K4 3.859121 1_665
As3 Lu0 2.735209 1_556
As3 K2 3.276457 1_555
As3 K1 3.335658 1_556
As3 K0 3.346946 1_556
As3 K3 3.402336 1_545
As3 K5 3.416478 1_655
As3 K5 3.859121 1_545
