# generated using pymatgen
data_SrLiRhF6
_symmetry_space_group_name_H-M   'P 1'
_cell_length_a   5.21822727
_cell_length_b   5.21822674
_cell_length_c   10.51601100
_cell_angle_alpha   90.00000000
_cell_angle_beta   90.00000000
_cell_angle_gamma   119.99999738
_symmetry_Int_Tables_number   1
_chemical_formula_structural   SrLiRhF6
_chemical_formula_sum   'Sr2 Li2 Rh2 F12'
_cell_volume   247.98625557
_cell_formula_units_Z   2
loop_
 _symmetry_equiv_pos_site_id
 _symmetry_equiv_pos_as_xyz
  1  'x, y, z'
loop_
 _atom_site_type_symbol
 _atom_site_label
 _atom_site_symmetry_multiplicity
 _atom_site_fract_x
 _atom_site_fract_y
 _atom_site_fract_z
 _atom_site_occupancy
  Sr  Sr0  1  0.00000000  0.00000000  0.50000000  1
  Sr  Sr1  1  0.00000000  0.00000000  0.00000000  1
  Li  Li0  1  0.33333300  0.66666700  0.75000000  1
  Li  Li1  1  0.66666700  0.33333300  0.25000000  1
  Rh  Rh0  1  0.66666700  0.33333300  0.75000000  1
  Rh  Rh1  1  0.33333300  0.66666700  0.25000000  1
  F  F0  1  0.64184878  0.00546276  0.64484806  1
  F  F1  1  0.35815122  0.99453724  0.35515194  1
  F  F2  1  0.99453724  0.63638601  0.64484806  1
  F  F3  1  0.64184878  0.63638601  0.85515194  1
  F  F4  1  0.00546276  0.36361399  0.35515194  1
  F  F5  1  0.35815122  0.36361399  0.14484806  1
  F  F6  1  0.36361399  0.35815122  0.64484806  1
  F  F7  1  0.99453724  0.35815122  0.85515194  1
  F  F8  1  0.63638601  0.64184878  0.35515194  1
  F  F9  1  0.00546276  0.64184878  0.14484806  1
  F  F10  1  0.36361399  0.00546276  0.85515194  1
  F  F11  1  0.63638601  0.99453724  0.14484806  1
loop_
_geom_bond_atom_site_label_1
_geom_bond_atom_site_label_2
_geom_bond_distance
_geom_bond_site_symmetry_2
F0 Rh0 1.986235 1_555
F0 Li0 2.023336 1_545
F0 Sr0 2.422218 1_655
F1 Rh1 1.986235 1_555
F1 Li1 2.023336 1_565
F1 Sr0 2.422218 1_565
F2 Rh0 1.986237 1_555
F2 Li0 2.023334 1_655
F2 Sr0 2.422218 1_665
F3 Rh0 1.986239 1_555
F3 Li0 2.023338 1_555
F3 Sr1 2.422218 1_666
F4 Rh1 1.986237 1_555
F4 Li1 2.023334 1_455
F4 Sr0 2.422218 1_555
F5 Rh1 1.986239 1_555
F5 Li1 2.023338 1_555
F5 Sr1 2.422218 1_555
F6 Rh0 1.986239 1_555
F6 Li0 2.023338 1_555
F6 Sr0 2.422218 1_555
F7 Rh0 1.986235 1_555
F7 Li0 2.023336 1_655
F7 Sr1 2.422218 1_656
F8 Rh1 1.986239 1_555
F8 Li1 2.023338 1_555
F8 Sr0 2.422218 1_665
F9 Rh1 1.986235 1_555
F9 Li1 2.023336 1_455
F9 Sr1 2.422218 1_565
F10 Rh0 1.986237 1_555
F10 Li0 2.023334 1_545
F10 Sr1 2.422218 1_556
F11 Rh1 1.986237 1_555
F11 Li1 2.023334 1_565
F11 Sr1 2.422218 1_665
