# generated using pymatgen
data_Zr6InSn5Ir6
_symmetry_space_group_name_H-M   'P 1'
_cell_length_a   7.37816436
_cell_length_b   7.38311897
_cell_length_c   7.33438790
_cell_angle_alpha   90.10601174
_cell_angle_beta   89.99975613
_cell_angle_gamma   119.97765582
_symmetry_Int_Tables_number   1
_chemical_formula_structural   Zr6InSn5Ir6
_chemical_formula_sum   'Zr6 In1 Sn5 Ir6'
_cell_volume   346.08234923
_cell_formula_units_Z   1
loop_
 _symmetry_equiv_pos_site_id
 _symmetry_equiv_pos_as_xyz
  1  'x, y, z'
loop_
 _atom_site_type_symbol
 _atom_site_label
 _atom_site_symmetry_multiplicity
 _atom_site_fract_x
 _atom_site_fract_y
 _atom_site_fract_z
 _atom_site_occupancy
  Zr  Zr0  1  0.40587688  0.01668288  0.24838581  1
  Zr  Zr1  1  0.98152442  0.38589341  0.24823341  1
  Zr  Zr2  1  0.61265560  0.59868834  0.24693504  1
  Zr  Zr3  1  0.38914537  0.98318798  0.75161598  1
  Zr  Zr4  1  0.59553794  0.61414362  0.75176908  1
  Zr  Zr5  1  0.01406445  0.40138681  0.75308181  1
  In  In0  1  0.73098591  0.00007868  0.99999363  1
  Sn  Sn0  1  0.99902984  0.73386345  0.99952292  1
  Sn  Sn1  1  0.26526275  0.26604900  0.00045528  1
  Sn  Sn2  1  0.00029219  0.72569294  0.50003022  1
  Sn  Sn3  1  0.27468362  0.27422133  0.49998258  1
  Sn  Sn4  1  0.72884577  0.00009442  0.50000728  1
  Ir  Ir0  1  0.32886376  0.66338951  0.03267843  1
  Ir  Ir1  1  0.66547662  0.33661073  0.96730624  1
  Ir  Ir2  1  0.66733175  0.33284240  0.53774538  1
  Ir  Ir3  1  0.33449697  0.66716674  0.46226862  1
  Ir  Ir4  1  0.00295420  0.00007754  0.25552101  1
  Ir  Ir5  1  0.00287396  0.99992620  0.74447526  1
loop_
_geom_bond_atom_site_label_1
_geom_bond_atom_site_label_2
_geom_bond_distance
_geom_bond_site_symmetry_2
In0 Ir5 2.745639 1_645
In0 Ir4 2.745722 1_656
In0 Ir1 2.768923 1_555
In0 Ir0 2.769718 1_546
In0 Zr3 3.062725 1_545
In0 Zr0 3.062809 1_556
In0 Zr1 3.092704 1_556
In0 Zr4 3.093135 1_545
In0 Zr5 3.202541 1_655
In0 Zr2 3.203003 1_546
Sn0 Zr5 3.092031 1_655
Sn0 Zr2 3.095004 1_556
Sn0 Zr1 3.103257 1_556
Sn0 Zr3 3.113977 1_655
Sn0 Zr4 3.210981 1_555
Sn0 Zr0 3.228711 1_666
Sn1 Zr2 3.092285 1_555
Sn1 Zr5 3.095590 1_554
Sn1 Zr4 3.103033 1_554
Sn1 Zr0 3.113496 1_555
Sn1 Zr1 3.211421 1_455
Sn1 Zr3 3.228191 1_544
Sn2 Zr1 3.059318 1_455
Sn2 Zr5 3.073707 1_555
Sn2 Zr3 3.128387 1_555
Sn2 Zr2 3.133457 1_455
Sn2 Zr4 3.248582 1_455
Sn2 Zr0 3.250680 1_565
Sn3 Zr4 3.059198 1_555
Sn3 Zr2 3.073801 1_555
Sn3 Zr0 3.127917 1_555
Sn3 Zr5 3.134105 1_555
Sn3 Zr1 3.248900 1_455
Sn3 Zr3 3.250312 1_545
Sn4 Zr3 3.064491 1_545
Sn4 Zr0 3.064580 1_555
Sn4 Zr1 3.116361 1_555
Sn4 Zr4 3.116963 1_545
Sn4 Zr5 3.225041 1_655
Sn4 Zr2 3.225519 1_545
Ir0 Sn1 2.739321 1_555
Ir0 Sn0 2.741891 1_454
Ir0 Zr1 2.833648 1_455
Ir0 Zr2 2.843280 1_555
Ir0 Zr0 2.851883 1_565
Ir0 Zr5 2.972758 1_554
Ir0 Zr4 2.993399 1_554
Ir0 Zr3 2.998447 1_554
Ir0 Ir3 3.150943 1_555
Ir1 Sn0 2.738420 1_555
Ir1 Sn1 2.740981 1_556
Ir1 Zr4 2.834181 1_555
Ir1 Zr5 2.843558 1_655
Ir1 Zr3 2.852449 1_545
Ir1 Zr2 2.973386 1_556
Ir1 Zr1 2.994106 1_556
Ir1 Zr0 2.999130 1_556
Ir1 Ir2 3.150727 1_555
Ir2 Sn3 2.720906 1_555
Ir2 Sn2 2.721518 1_655
Ir2 Sn4 2.725766 1_555
Ir2 Zr5 2.828150 1_655
Ir2 Zr3 2.838587 1_545
Ir2 Zr4 2.854016 1_555
Ir2 Zr1 3.021882 1_555
Ir2 Zr0 3.025865 1_555
Ir2 Zr2 3.061260 1_555
Ir3 Sn2 2.721765 1_555
Ir3 Sn3 2.722412 1_555
Ir3 Sn4 2.726658 1_565
Ir3 Zr2 2.827683 1_555
Ir3 Zr0 2.837977 1_565
Ir3 Zr1 2.853522 1_455
Ir3 Zr4 3.021219 1_555
Ir3 Zr3 3.025182 1_555
Ir3 Zr5 3.060846 1_555
Ir4 Sn3 2.694882 1_555
Ir4 Sn2 2.700742 1_545
Ir4 Sn4 2.702925 1_455
Ir4 Sn1 2.705014 1_555
Ir4 Sn0 2.705329 1_444
Ir4 Zr0 2.913981 1_555
Ir4 Zr2 2.924044 1_445
Ir4 Zr1 2.931313 1_455
Ir5 Sn2 2.694831 1_555
Ir5 Sn3 2.700644 1_565
Ir5 Sn4 2.702824 1_465
Ir5 Sn0 2.704940 1_455
Ir5 Sn1 2.705256 1_566
Ir5 Zr3 2.914164 1_555
Ir5 Zr5 2.924215 1_565
Ir5 Zr4 2.931567 1_455
