# generated using pymatgen
data_Cs5Rb3(Al2Se5)2
_symmetry_space_group_name_H-M   'P 1'
_cell_length_a   8.46373807
_cell_length_b   8.86170703
_cell_length_c   11.17100726
_cell_angle_alpha   77.67214460
_cell_angle_beta   86.45100038
_cell_angle_gamma   80.96187649
_symmetry_Int_Tables_number   1
_chemical_formula_structural   Cs5Rb3(Al2Se5)2
_chemical_formula_sum   'Cs5 Rb3 Al4 Se10'
_cell_volume   808.02909148
_cell_formula_units_Z   1
loop_
 _symmetry_equiv_pos_site_id
 _symmetry_equiv_pos_as_xyz
  1  'x, y, z'
loop_
 _atom_site_type_symbol
 _atom_site_label
 _atom_site_symmetry_multiplicity
 _atom_site_fract_x
 _atom_site_fract_y
 _atom_site_fract_z
 _atom_site_occupancy
  Cs  Cs0  1  0.05311862  0.60313232  0.75572029  1
  Cs  Cs1  1  0.81944759  0.91321507  0.12372027  1
  Cs  Cs2  1  0.94973276  0.39799122  0.24135331  1
  Cs  Cs3  1  0.55476964  0.71704477  0.51571542  1
  Cs  Cs4  1  0.44494386  0.28203780  0.48375189  1
  Rb  Rb0  1  0.43865064  0.32950944  0.09122850  1
  Rb  Rb1  1  0.56082882  0.67036303  0.90643944  1
  Rb  Rb2  1  0.16625433  0.08713946  0.87605307  1
  Al  Al0  1  0.90165550  0.08714024  0.59698414  1
  Al  Al1  1  0.10135431  0.91481880  0.40490680  1
  Al  Al2  1  0.29451879  0.73361801  0.21040566  1
  Al  Al3  1  0.70559261  0.26575741  0.78962644  1
  Se  Se0  1  0.85355968  0.35670629  0.59867938  1
  Se  Se1  1  0.18207387  0.97873948  0.58910719  1
  Se  Se2  1  0.43359616  0.37355448  0.77866873  1
  Se  Se3  1  0.17956132  0.69408053  0.03541424  1
  Se  Se4  1  0.82525377  0.31484666  0.95922843  1
  Se  Se5  1  0.56200484  0.61232020  0.22588997  1
  Se  Se6  1  0.14350704  0.64558416  0.40094676  1
  Se  Se7  1  0.25266312  0.01368930  0.22553203  1
  Se  Se8  1  0.75544593  0.98441582  0.77739443  1
  Se  Se9  1  0.82146582  0.02429450  0.41323161  1
loop_
_geom_bond_atom_site_label_1
_geom_bond_atom_site_label_2
_geom_bond_distance
_geom_bond_site_symmetry_2
Cs0 Se2 3.520787 1_555
Cs0 Se3 3.649296 1_556
Cs0 Se0 3.722993 1_455
Cs0 Se4 3.733553 1_455
Cs0 Se1 3.738849 1_555
Cs0 Se8 3.927064 1_455
Cs0 Se6 3.938524 1_555
Cs1 Se3 3.552470 1_655
Cs1 Se9 3.577763 1_565
Cs1 Se4 3.646580 1_564
Cs1 Se5 3.657633 1_555
Cs1 Se8 3.843037 1_554
Cs2 Se5 3.518261 1_555
Cs2 Se4 3.637596 1_554
Cs2 Se6 3.720910 1_655
Cs2 Se9 3.740074 1_555
Cs2 Se3 3.799073 1_655
Cs2 Se7 3.957327 1_655
Cs2 Se0 3.974636 1_555
Cs3 Se5 3.547950 1_555
Cs3 Se0 3.733649 1_555
Cs3 Se9 3.754891 1_565
Cs3 Se1 3.767469 1_555
Cs3 Se2 3.966815 1_555
Cs3 Se6 3.968953 1_555
Cs4 Se2 3.549372 1_555
Cs4 Se1 3.709846 1_545
Cs4 Se9 3.763471 1_555
Cs4 Se6 3.765760 1_555
Cs4 Se5 3.847531 1_555
Cs4 Se0 3.959571 1_555
Rb0 Se2 3.431735 1_554
Rb0 Se7 3.443894 1_555
Rb0 Se4 3.499832 1_554
Rb0 Se5 3.501470 1_555
Rb0 Se3 3.566266 1_555
Rb1 Se3 3.445842 1_556
Rb1 Se8 3.459744 1_555
Rb1 Se5 3.495491 1_556
Rb1 Se4 3.526591 1_555
Rb1 Se2 3.577468 1_555
Rb2 Se4 3.450187 1_455
Rb2 Se1 3.526623 1_545
Rb2 Se3 3.545155 1_546
Rb2 Se2 3.614692 1_555
Rb2 Se7 3.913928 1_556
Al0 Se0 2.363334 1_555
Al0 Se8 2.384006 1_545
Al0 Se9 2.400786 1_555
Al0 Se1 2.420211 1_645
Al1 Se6 2.365869 1_555
Al1 Se7 2.389151 1_565
Al1 Se1 2.411452 1_555
Al1 Se9 2.418828 1_465
Al2 Se5 2.348457 1_555
Al2 Se3 2.350710 1_555
Al2 Se6 2.457695 1_555
Al2 Se7 2.491858 1_565
Al3 Se2 2.349732 1_555
Al3 Se4 2.352124 1_555
Al3 Se0 2.453619 1_555
Al3 Se8 2.494075 1_545
