# generated using pymatgen
data_CaZrBr6
_symmetry_space_group_name_H-M   'P 1'
_cell_length_a   7.61903748
_cell_length_b   7.62135251
_cell_length_c   7.63256962
_cell_angle_alpha   55.30422912
_cell_angle_beta   55.32008125
_cell_angle_gamma   55.37360760
_symmetry_Int_Tables_number   1
_chemical_formula_structural   CaZrBr6
_chemical_formula_sum   'Ca1 Zr1 Br6'
_cell_volume   279.40590957
_cell_formula_units_Z   1
loop_
 _symmetry_equiv_pos_site_id
 _symmetry_equiv_pos_as_xyz
  1  'x, y, z'
loop_
 _atom_site_type_symbol
 _atom_site_label
 _atom_site_symmetry_multiplicity
 _atom_site_fract_x
 _atom_site_fract_y
 _atom_site_fract_z
 _atom_site_occupancy
  Ca  Ca0  1  0.33308783  0.33305830  0.33304151  1
  Zr  Zr0  1  0.66701618  0.66703144  0.66695726  1
  Br  Br0  1  0.05375339  0.44628539  0.73992922  1
  Br  Br1  1  0.28708353  0.89233495  0.58061161  1
  Br  Br2  1  0.44733730  0.74064848  0.05214697  1
  Br  Br3  1  0.57887878  0.28756065  0.89302938  1
  Br  Br4  1  0.74088800  0.05313609  0.44593246  1
  Br  Br5  1  0.89195501  0.57994370  0.28835358  1
loop_
_geom_bond_atom_site_label_1
_geom_bond_atom_site_label_2
_geom_bond_distance
_geom_bond_site_symmetry_2
Br0 Zr0 2.643871 1_455
Br0 Ca0 2.891572 1_555
Br1 Zr0 2.645015 1_555
Br1 Ca0 2.886921 1_565
Br2 Zr0 2.640195 1_554
Br2 Ca0 2.893299 1_555
Br3 Zr0 2.645710 1_555
Br3 Ca0 2.887371 1_556
Br4 Zr0 2.640473 1_545
Br4 Ca0 2.892821 1_555
Br5 Zr0 2.642568 1_555
Br5 Ca0 2.887923 1_655
