# generated using pymatgen
data_Hf3Nb2Ga3
_symmetry_space_group_name_H-M   'P 1'
_cell_length_a   7.89428425
_cell_length_b   7.89428533
_cell_length_c   5.45011881
_cell_angle_alpha   90.00000000
_cell_angle_beta   90.00000000
_cell_angle_gamma   119.99999971
_symmetry_Int_Tables_number   1
_chemical_formula_structural   Hf3Nb2Ga3
_chemical_formula_sum   'Hf6 Nb4 Ga6'
_cell_volume   294.14548203
_cell_formula_units_Z   2
loop_
 _symmetry_equiv_pos_site_id
 _symmetry_equiv_pos_as_xyz
  1  'x, y, z'
loop_
 _atom_site_type_symbol
 _atom_site_label
 _atom_site_symmetry_multiplicity
 _atom_site_fract_x
 _atom_site_fract_y
 _atom_site_fract_z
 _atom_site_occupancy
  Hf  Hf0  1  0.75341371  0.75341371  0.25000000  1
  Hf  Hf1  1  0.75341371  -0.00000000  0.75000000  1
  Hf  Hf2  1  -0.00000000  0.24658629  0.25000000  1
  Hf  Hf3  1  0.24658629  0.24658629  0.75000000  1
  Hf  Hf4  1  0.24658629  0.00000000  0.25000000  1
  Hf  Hf5  1  0.00000000  0.75341371  0.75000000  1
  Nb  Nb0  1  0.66666700  0.33333300  0.00000000  1
  Nb  Nb1  1  0.66666700  0.33333300  0.50000000  1
  Nb  Nb2  1  0.33333300  0.66666700  0.50000000  1
  Nb  Nb3  1  0.33333300  0.66666700  0.00000000  1
  Ga  Ga0  1  0.60460239  -0.00000000  0.25000000  1
  Ga  Ga1  1  0.60460239  0.60460239  0.75000000  1
  Ga  Ga2  1  -0.00000000  0.39539761  0.75000000  1
  Ga  Ga3  1  0.00000000  0.60460239  0.25000000  1
  Ga  Ga4  1  0.39539761  0.39539761  0.25000000  1
  Ga  Ga5  1  0.39539761  0.00000000  0.75000000  1
loop_
_geom_bond_atom_site_label_1
_geom_bond_atom_site_label_2
_geom_bond_distance
_geom_bond_site_symmetry_2
Hf0 Nb3 3.324439 1_555
Hf0 Nb2 3.324439 1_555
Hf0 Nb0 3.324440 1_555
Hf0 Nb1 3.324440 1_555
Hf1 Nb0 3.324433 1_556
Hf1 Nb1 3.324433 1_555
Hf1 Nb3 3.324437 1_546
Hf1 Nb2 3.324437 1_545
Hf2 Nb1 3.324432 1_455
Hf2 Nb0 3.324432 1_455
Hf2 Nb3 3.324437 1_555
Hf2 Nb2 3.324437 1_555
Hf3 Nb0 3.324439 1_556
Hf3 Nb1 3.324439 1_555
Hf3 Nb3 3.324440 1_556
Hf3 Nb2 3.324440 1_555
Hf4 Nb3 3.324433 1_545
Hf4 Nb2 3.324433 1_545
Hf4 Nb0 3.324437 1_555
Hf4 Nb1 3.324437 1_555
Hf5 Nb2 3.324432 1_555
Hf5 Nb3 3.324432 1_556
Hf5 Nb1 3.324437 1_455
Hf5 Nb0 3.324437 1_456
Nb0 Nb1 2.725059 1_555
Nb0 Nb1 2.725059 1_554
Nb2 Nb3 2.725059 1_556
Nb2 Nb3 2.725059 1_555
Ga0 Hf2 2.730606 1_655
Ga0 Hf0 2.730606 1_545
Ga0 Nb0 2.780587 1_555
Ga0 Nb1 2.780587 1_555
Ga0 Nb3 2.780589 1_545
Ga0 Nb2 2.780589 1_545
Ga0 Hf4 2.826281 1_555
Ga0 Hf1 2.967492 1_554
Ga0 Hf1 2.967492 1_555
Ga1 Hf5 2.730606 1_655
Ga1 Hf1 2.730606 1_565
Ga1 Nb2 2.780593 1_555
Ga1 Nb3 2.780593 1_556
Ga1 Nb1 2.780594 1_555
Ga1 Nb0 2.780594 1_556
Ga1 Hf3 2.826281 1_555
Ga1 Hf0 2.967492 1_555
Ga1 Hf0 2.967492 1_556
Ga2 Hf3 2.730606 1_555
Ga2 Hf1 2.730606 1_455
Ga2 Nb0 2.780587 1_456
Ga2 Nb1 2.780587 1_455
Ga2 Nb2 2.780589 1_555
Ga2 Nb3 2.780589 1_556
Ga2 Hf5 2.826281 1_555
Ga2 Hf2 2.967492 1_556
Ga2 Hf2 2.967492 1_555
Ga3 Hf0 2.730606 1_455
Ga3 Hf4 2.730606 1_565
Ga3 Nb3 2.780587 1_555
Ga3 Nb2 2.780587 1_555
Ga3 Nb0 2.780589 1_455
Ga3 Nb1 2.780589 1_455
Ga3 Hf2 2.826281 1_555
Ga3 Hf5 2.967492 1_554
Ga3 Hf5 2.967492 1_555
Ga4 Hf2 2.730606 1_555
Ga4 Hf4 2.730606 1_555
Ga4 Nb0 2.780593 1_555
Ga4 Nb1 2.780593 1_555
Ga4 Nb3 2.780594 1_555
Ga4 Nb2 2.780594 1_555
Ga4 Hf0 2.826281 1_555
Ga4 Hf3 2.967492 1_554
Ga4 Hf3 2.967492 1_555
Ga5 Hf5 2.730606 1_545
Ga5 Hf3 2.730606 1_555
Ga5 Nb2 2.780587 1_545
Ga5 Nb3 2.780587 1_546
Ga5 Nb0 2.780589 1_556
Ga5 Nb1 2.780589 1_555
Ga5 Hf1 2.826281 1_555
Ga5 Hf4 2.967492 1_555
Ga5 Hf4 2.967492 1_556
