# generated using pymatgen
data_Cs2NaMnAs2
_symmetry_space_group_name_H-M   'P 1'
_cell_length_a   9.42630790
_cell_length_b   9.42630846
_cell_length_c   9.42630714
_cell_angle_alpha   138.25999732
_cell_angle_beta   136.35967359
_cell_angle_gamma   61.97480163
_symmetry_Int_Tables_number   1
_chemical_formula_structural   Cs2NaMnAs2
_chemical_formula_sum   'Cs4 Na2 Mn2 As4'
_cell_volume   380.31850211
_cell_formula_units_Z   2
loop_
 _symmetry_equiv_pos_site_id
 _symmetry_equiv_pos_as_xyz
  1  'x, y, z'
loop_
 _atom_site_type_symbol
 _atom_site_label
 _atom_site_symmetry_multiplicity
 _atom_site_fract_x
 _atom_site_fract_y
 _atom_site_fract_z
 _atom_site_occupancy
  Cs  Cs0  1  0.09376856  0.32495470  0.76881386  1
  Cs  Cs1  1  0.44386016  0.17504530  0.26881386  1
  Cs  Cs2  1  0.90623144  0.67504530  0.23118614  1
  Cs  Cs3  1  0.55613984  0.82495470  0.73118614  1
  Na  Na0  1  0.50000000  0.75000000  0.25000000  1
  Na  Na1  1  0.50000000  0.25000000  0.75000000  1
  Mn  Mn0  1  0.00000000  0.75000000  0.75000000  1
  Mn  Mn1  1  0.00000000  0.25000000  0.25000000  1
  As  As0  1  0.12300856  0.92001359  0.20299497  1
  As  As1  1  0.87699144  0.07998641  0.79700503  1
  As  As2  1  0.28298138  0.57998641  0.70299497  1
  As  As3  1  0.71701862  0.42001359  0.29700503  1
loop_
_geom_bond_atom_site_label_1
_geom_bond_atom_site_label_2
_geom_bond_distance
_geom_bond_site_symmetry_2
Cs0 Na1 3.667066 1_555
Cs0 Na0 3.667066 1_556
Cs0 Mn1 3.790937 1_555
Cs0 Mn0 3.790937 1_555
Cs1 Na0 3.667069 1_545
Cs1 Na1 3.667071 1_555
Cs1 Mn0 3.790943 1_544
Cs1 Mn1 3.790946 1_555
Cs2 Na0 3.667066 1_555
Cs2 Na1 3.667066 1_554
Cs2 Mn0 3.790937 1_655
Cs2 Mn1 3.790937 1_655
Cs3 Na1 3.667069 1_565
Cs3 Na0 3.667071 1_555
Cs3 Mn1 3.790943 1_666
Cs3 Mn0 3.790946 1_655
As0 Mn0 2.552219 1_554
As0 Mn1 2.552219 1_565
As0 Na1 2.970177 1_565
As0 Na0 2.970177 1_555
As0 Cs3 3.645694 1_454
As0 Cs0 3.721555 1_565
As0 Cs0 3.721556 1_554
As0 Cs2 3.964098 1_455
As0 Cs3 4.007446 1_555
As1 Mn1 2.552219 1_656
As1 Mn0 2.552219 1_645
As1 Na0 2.970177 1_545
As1 Na1 2.970177 1_555
As1 Cs1 3.645694 1_656
As1 Cs2 3.721555 1_545
As1 Cs2 3.721556 1_556
As1 Cs0 3.964098 1_655
As1 Cs1 4.007446 1_555
As2 Mn1 2.552219 1_555
As2 Mn0 2.552219 1_555
As2 Na0 2.970176 1_556
As2 Na1 2.970177 1_555
As2 Cs2 3.645687 1_455
As2 Cs1 3.721556 1_566
As2 Cs1 3.721562 1_555
As2 Cs3 3.964090 1_555
As2 Cs2 4.007446 1_556
As3 Mn0 2.552219 1_655
As3 Mn1 2.552219 1_655
As3 Na1 2.970176 1_554
As3 Na0 2.970177 1_555
As3 Cs0 3.645687 1_655
As3 Cs3 3.721556 1_544
As3 Cs3 3.721562 1_555
As3 Cs1 3.964090 1_555
As3 Cs0 4.007446 1_554
