# generated using pymatgen
data_Li5Al16SnPt7
_symmetry_space_group_name_H-M   'P 1'
_cell_length_a   8.55027066
_cell_length_b   8.58782845
_cell_length_c   8.58782912
_cell_angle_alpha   59.71085668
_cell_angle_beta   60.14457503
_cell_angle_gamma   60.14457238
_symmetry_Int_Tables_number   1
_chemical_formula_structural   Li5Al16SnPt7
_chemical_formula_sum   'Li5 Al16 Sn1 Pt7'
_cell_volume   445.87702046
_cell_formula_units_Z   1
loop_
 _symmetry_equiv_pos_site_id
 _symmetry_equiv_pos_as_xyz
  1  'x, y, z'
loop_
 _atom_site_type_symbol
 _atom_site_label
 _atom_site_symmetry_multiplicity
 _atom_site_fract_x
 _atom_site_fract_y
 _atom_site_fract_z
 _atom_site_occupancy
  Li  Li0  1  0.77021388  0.22978612  0.22978612  1
  Li  Li1  1  0.76552398  0.23447602  0.75065808  1
  Li  Li2  1  0.76552398  0.75065808  0.23447602  1
  Li  Li3  1  0.24934192  0.75065808  0.23447602  1
  Li  Li4  1  0.24934192  0.23447602  0.75065808  1
  Al  Al0  1  0.87696832  0.84825315  0.84825315  1
  Al  Al1  1  0.86530262  0.84392397  0.42547180  1
  Al  Al2  1  0.42652639  0.84825315  0.84825315  1
  Al  Al3  1  0.86530262  0.42547180  0.84392397  1
  Al  Al4  1  0.15607603  0.13469738  0.13469738  1
  Al  Al5  1  0.15174685  0.12303168  0.57347361  1
  Al  Al6  1  0.15174685  0.57347361  0.12303168  1
  Al  Al7  1  0.57452820  0.13469738  0.13469738  1
  Al  Al8  1  0.62095894  0.62015497  0.62015497  1
  Al  Al9  1  0.63400290  0.61796641  0.11402980  1
  Al  Al10  1  0.13873212  0.62015497  0.62015497  1
  Al  Al11  1  0.63400290  0.11402980  0.61796641  1
  Al  Al12  1  0.38203359  0.36599710  0.36599710  1
  Al  Al13  1  0.37984503  0.37904106  0.86126788  1
  Al  Al14  1  0.37984503  0.86126788  0.37904106  1
  Al  Al15  1  0.88597020  0.36599710  0.36599710  1
  Sn  Sn0  1  0.00889259  0.99110741  0.99110741  1
  Pt  Pt0  1  0.00995818  0.49004182  0.49004182  1
  Pt  Pt1  1  0.50995818  0.99004182  0.99004182  1
  Pt  Pt2  1  0.51077164  0.99250360  0.48922836  1
  Pt  Pt3  1  0.51077164  0.48922836  0.99250360  1
  Pt  Pt4  1  0.00749640  0.48922836  0.99250360  1
  Pt  Pt5  1  0.00749640  0.99250360  0.48922836  1
  Pt  Pt6  1  0.51112270  0.48887730  0.48887730  1
loop_
_geom_bond_atom_site_label_1
_geom_bond_atom_site_label_2
_geom_bond_distance
_geom_bond_site_symmetry_2
Li0 Sn0 2.911381 1_644
Li0 Pt4 3.006215 1_654
Li0 Pt5 3.006215 1_645
Li0 Pt3 3.006215 1_554
Li0 Pt2 3.006215 1_545
Li0 Pt6 3.160371 1_555
Li1 Sn0 2.925195 1_645
Li1 Pt0 3.024717 1_655
Li1 Pt1 3.024717 1_545
Li1 Pt3 3.029733 1_555
Li1 Pt5 3.072480 1_645
Li1 Pt6 3.121137 1_555
Li2 Sn0 2.925195 1_654
Li2 Pt0 3.024717 1_655
Li2 Pt1 3.024717 1_554
Li2 Pt2 3.029733 1_555
Li2 Pt4 3.072480 1_654
Li2 Pt6 3.121137 1_555
Li3 Sn0 2.925195 1_554
Li3 Pt0 3.024717 1_555
Li3 Pt1 3.024717 1_554
Li3 Pt5 3.029733 1_555
Li3 Pt3 3.072480 1_554
Li3 Pt6 3.121137 1_555
Li4 Sn0 2.925195 1_545
Li4 Pt0 3.024717 1_555
Li4 Pt1 3.024717 1_545
Li4 Pt4 3.029733 1_555
Li4 Pt2 3.072480 1_545
Li4 Pt6 3.121137 1_555
Al0 Pt4 2.526704 1_655
Al0 Pt5 2.526705 1_655
Al0 Pt1 2.588358 1_555
Al0 Li1 2.730561 1_565
Al0 Li2 2.730561 1_556
Al0 Sn0 2.925100 1_655
Al1 Pt0 2.512722 1_655
Al1 Pt5 2.513586 1_655
Al1 Pt2 2.513593 1_555
Al1 Li3 2.731023 1_655
Al1 Li2 2.731029 1_555
Al1 Li0 2.743444 1_565
Al1 Sn0 3.041206 1_654
Al2 Pt3 2.526705 1_555
Al2 Pt2 2.526705 1_555
Al2 Pt1 2.588351 1_555
Al2 Li4 2.730562 1_565
Al2 Li3 2.730562 1_556
Al2 Sn0 2.925108 1_555
Al3 Pt0 2.512722 1_655
Al3 Pt4 2.513586 1_655
Al3 Pt3 2.513593 1_555
Al3 Li4 2.731023 1_655
Al3 Li1 2.731029 1_555
Al3 Li0 2.743444 1_556
Al3 Sn0 3.041205 1_645
Al4 Pt1 2.512721 1_544
Al4 Pt4 2.513591 1_554
Al4 Pt5 2.513592 1_545
Al4 Li3 2.731021 1_545
Al4 Li4 2.731021 1_554
Al4 Li0 2.743443 1_455
Al4 Sn0 3.041199 1_544
Al5 Pt5 2.526698 1_545
Al5 Pt2 2.526706 1_545
Al5 Pt0 2.588358 1_555
Al5 Li1 2.730563 1_455
Al5 Li4 2.730569 1_555
Al5 Sn0 2.925108 1_545
Al6 Pt4 2.526698 1_554
Al6 Pt3 2.526706 1_554
Al6 Pt0 2.588359 1_555
Al6 Li2 2.730563 1_455
Al6 Li3 2.730569 1_555
Al6 Sn0 2.925107 1_554
Al7 Pt1 2.512714 1_544
Al7 Pt3 2.513593 1_554
Al7 Pt2 2.513593 1_545
Al7 Li2 2.731022 1_545
Al7 Li1 2.731023 1_554
Al7 Li0 2.743450 1_555
Al7 Sn0 3.041206 1_644
Al8 Pt2 2.608711 1_555
Al8 Pt3 2.608711 1_555
Al8 Pt6 2.610432 1_555
Al8 Li1 2.704236 1_555
Al8 Li2 2.704237 1_555
Al8 Pt0 2.723729 1_655
Al9 Pt1 2.605172 1_554
Al9 Pt4 2.615376 1_654
Al9 Pt3 2.615390 1_554
Al9 Pt6 2.624507 1_555
Al9 Li2 2.693695 1_555
Al9 Li3 2.693710 1_555
Al9 Li0 2.720664 1_555
Al10 Pt5 2.608711 1_555
Al10 Pt4 2.608712 1_555
Al10 Pt6 2.610425 1_555
Al10 Li4 2.704237 1_555
Al10 Li3 2.704237 1_555
Al10 Pt0 2.723736 1_555
Al11 Pt1 2.605172 1_545
Al11 Pt5 2.615376 1_645
Al11 Pt2 2.615390 1_545
Al11 Pt6 2.624507 1_555
Al11 Li1 2.693695 1_555
Al11 Li4 2.693710 1_555
Al11 Li0 2.720664 1_555
Al12 Pt0 2.605173 1_555
Al12 Pt2 2.615375 1_545
Al12 Pt3 2.615376 1_554
Al12 Pt6 2.624521 1_555
Al12 Li3 2.693709 1_555
Al12 Li4 2.693709 1_555
Al12 Li0 2.720664 1_555
Al13 Pt4 2.608712 1_555
Al13 Pt3 2.608718 1_555
Al13 Pt6 2.610425 1_555
Al13 Li4 2.704230 1_555
Al13 Li1 2.704237 1_555
Al13 Pt1 2.723729 1_545
Al14 Pt5 2.608712 1_555
Al14 Pt2 2.608718 1_555
Al14 Pt6 2.610424 1_555
Al14 Li3 2.704230 1_555
Al14 Li2 2.704237 1_555
Al14 Pt1 2.723729 1_554
Al15 Pt0 2.605186 1_655
Al15 Pt5 2.615375 1_645
Al15 Pt4 2.615375 1_654
Al15 Pt6 2.624507 1_555
Al15 Li2 2.693709 1_555
Al15 Li1 2.693709 1_555
Al15 Li0 2.720650 1_555
