# generated using pymatgen
data_Ti8CuBi4Os
_symmetry_space_group_name_H-M   'P 1'
_cell_length_a   7.90920750
_cell_length_b   7.90920781
_cell_length_c   7.90920733
_cell_angle_alpha   95.61352382
_cell_angle_beta   95.61351964
_cell_angle_gamma   143.54891780
_symmetry_Int_Tables_number   1
_chemical_formula_structural   Ti8CuBi4Os
_chemical_formula_sum   'Ti8 Cu1 Bi4 Os1'
_cell_volume   279.21073511
_cell_formula_units_Z   1
loop_
 _symmetry_equiv_pos_site_id
 _symmetry_equiv_pos_as_xyz
  1  'x, y, z'
loop_
 _atom_site_type_symbol
 _atom_site_label
 _atom_site_symmetry_multiplicity
 _atom_site_fract_x
 _atom_site_fract_y
 _atom_site_fract_z
 _atom_site_occupancy
  Ti  Ti0  1  0.58243960  0.69983052  0.28354757  1
  Ti  Ti1  1  0.91756040  0.20110797  0.11739192  1
  Ti  Ti2  1  0.29889203  0.58243960  0.88260808  1
  Ti  Ti3  1  0.80016948  0.91756040  0.71645243  1
  Ti  Ti4  1  0.69983052  0.41628395  0.11739192  1
  Ti  Ti5  1  0.08371605  0.80016948  0.88260808  1
  Ti  Ti6  1  0.41628395  0.29889203  0.71645243  1
  Ti  Ti7  1  0.20110797  0.08371605  0.28354757  1
  Cu  Cu0  1  0.75000000  0.75000000  0.00000000  1
  Bi  Bi0  1  0.35921516  0.85921516  0.21843132  1
  Bi  Bi1  1  0.14078484  0.35921516  0.50000000  1
  Bi  Bi2  1  0.64078484  0.14078484  0.78156868  1
  Bi  Bi3  1  0.85921516  0.64078484  0.50000000  1
  Os  Os0  1  0.25000000  0.25000000  0.00000000  1
loop_
_geom_bond_atom_site_label_1
_geom_bond_atom_site_label_2
_geom_bond_distance
_geom_bond_site_symmetry_2
Ti0 Ti7 3.032949 1_555
Ti0 Ti1 3.033812 1_455
Ti0 Ti7 3.043237 1_665
Ti0 Ti1 3.044097 1_565
Ti0 Ti3 3.252171 1_555
Ti0 Ti4 3.260414 1_555
Ti0 Ti2 3.260431 1_554
Ti1 Ti2 3.032956 1_654
Ti1 Ti2 3.043239 1_544
Ti1 Ti4 3.252179 1_555
Ti1 Ti7 3.260428 1_655
Ti1 Ti3 3.260431 1_544
Ti2 Ti3 3.033812 1_445
Ti2 Ti3 3.044097 1_555
Ti2 Ti5 3.252179 1_555
Ti2 Ti6 3.260428 1_555
Ti3 Ti6 3.032949 1_665
Ti3 Ti6 3.043237 1_555
Ti3 Ti5 3.260414 1_655
Ti4 Ti5 3.032952 1_544
Ti4 Ti7 3.033806 1_555
Ti4 Ti5 3.043243 1_654
Ti4 Ti7 3.044091 1_665
Ti4 Ti6 3.260425 1_554
Ti5 Ti6 3.033806 1_565
Ti5 Ti6 3.044091 1_455
Ti5 Ti7 3.260425 1_566
Ti6 Ti7 3.252171 1_555
Cu0 Os0 2.473671 1_555
Cu0 Os0 2.473671 1_665
Cu0 Ti5 2.617776 1_654
Cu0 Ti4 2.617776 1_555
Cu0 Ti0 2.617780 1_555
Cu0 Ti3 2.617780 1_554
Cu0 Ti2 2.617781 1_554
Cu0 Ti7 2.617781 1_665
Cu0 Ti6 2.617781 1_554
Cu0 Ti1 2.617781 1_565
Bi0 Ti7 2.915646 1_565
Bi0 Ti0 2.915653 1_555
Bi0 Ti2 3.001485 1_554
Bi0 Ti5 3.001489 1_554
Bi0 Ti1 3.053478 1_455
Bi0 Ti4 3.053484 1_565
Bi0 Ti1 3.058593 1_565
Bi0 Ti4 3.058595 1_455
Bi1 Ti2 2.915647 1_555
Bi1 Ti1 2.915647 1_455
Bi1 Ti7 3.001478 1_555
Bi1 Ti6 3.001478 1_555
Bi1 Ti0 3.053478 1_555
Bi1 Ti3 3.053478 1_445
Bi1 Ti3 3.058593 1_555
Bi1 Ti0 3.058594 1_445
Bi2 Ti6 2.915646 1_555
Bi2 Ti3 2.915653 1_545
Bi2 Ti1 3.001485 1_556
Bi2 Ti4 3.001489 1_556
Bi2 Ti2 3.053478 1_655
Bi2 Ti5 3.053484 1_545
Bi2 Ti2 3.058593 1_545
Bi2 Ti5 3.058595 1_655
Bi3 Ti4 2.915646 1_555
Bi3 Ti5 2.915646 1_655
Bi3 Ti3 3.001472 1_555
Bi3 Ti0 3.001472 1_555
Bi3 Ti7 3.053478 1_555
Bi3 Ti6 3.053478 1_665
Bi3 Ti6 3.058589 1_555
Bi3 Ti7 3.058589 1_665
Os0 Ti4 2.614789 1_555
Os0 Ti5 2.614789 1_544
Os0 Ti3 2.614792 1_444
Os0 Ti0 2.614792 1_555
Os0 Ti6 2.614796 1_554
Os0 Ti1 2.614796 1_455
Os0 Ti7 2.614796 1_555
Os0 Ti2 2.614796 1_554
