# generated using pymatgen
data_Cs14NbVAs8
_symmetry_space_group_name_H-M   'P 1'
_cell_length_a   8.92562516
_cell_length_b   10.01160632
_cell_length_c   11.07761160
_cell_angle_alpha   90.00000000
_cell_angle_beta   90.00000000
_cell_angle_gamma   89.76317597
_symmetry_Int_Tables_number   1
_chemical_formula_structural   Cs14NbVAs8
_chemical_formula_sum   'Cs14 Nb1 V1 As8'
_cell_volume   989.88520166
_cell_formula_units_Z   1
loop_
 _symmetry_equiv_pos_site_id
 _symmetry_equiv_pos_as_xyz
  1  'x, y, z'
loop_
 _atom_site_type_symbol
 _atom_site_label
 _atom_site_symmetry_multiplicity
 _atom_site_fract_x
 _atom_site_fract_y
 _atom_site_fract_z
 _atom_site_occupancy
  Cs  Cs0  1  0.87321548  0.02390609  0.00000000  1
  Cs  Cs1  1  0.70393396  0.82918972  0.71532866  1
  Cs  Cs2  1  0.39357683  0.89316853  0.00000000  1
  Cs  Cs3  1  0.37833795  0.97057937  0.50000000  1
  Cs  Cs4  1  0.88070661  0.46905634  0.29208007  1
  Cs  Cs5  1  0.89414577  0.09987652  0.50000000  1
  Cs  Cs6  1  0.66945164  0.34439667  0.00000000  1
  Cs  Cs7  1  0.16222221  0.65775769  0.50000000  1
  Cs  Cs8  1  0.20106974  0.17198536  0.21068474  1
  Cs  Cs9  1  0.37990553  0.53486871  0.20423247  1
  Cs  Cs10  1  0.37990553  0.53486871  0.79576753  1
  Cs  Cs11  1  0.88070661  0.46905634  0.70791993  1
  Cs  Cs12  1  0.70393396  0.82918972  0.28467134  1
  Cs  Cs13  1  0.20106974  0.17198536  0.78931526  1
  Nb  Nb0  1  0.49670784  0.32700426  0.50000000  1
  V  V0  1  0.99777523  0.67337073  0.00000000  1
  As  As0  1  0.72972952  0.68299588  0.00000000  1
  As  As1  1  0.21616939  0.31568579  0.50000000  1
  As  As2  1  0.07073264  0.44296457  0.00000000  1
  As  As3  1  0.56849656  0.56958160  0.50000000  1
  As  As4  1  0.08356632  0.78992596  0.18000638  1
  As  As5  1  0.58663881  0.20433006  0.31178693  1
  As  As6  1  0.58663881  0.20433006  0.68821307  1
  As  As7  1  0.08356632  0.78992596  0.81999362  1
loop_
_geom_bond_atom_site_label_1
_geom_bond_atom_site_label_2
_geom_bond_distance
_geom_bond_site_symmetry_2
As0 V0 2.394017 1_555
As0 Cs6 3.434547 1_555
As0 Cs12 3.483803 1_555
As0 Cs1 3.483803 1_554
As0 Cs0 3.650384 1_565
As0 Cs2 3.657535 1_555
As0 Cs9 4.135867 1_555
As0 Cs10 4.135867 1_554
As1 Nb0 2.507012 1_555
As1 Cs7 3.456402 1_555
As1 Cs13 3.515831 1_555
As1 Cs8 3.515831 1_555
As1 Cs5 3.602902 1_455
As1 Cs3 3.740494 1_545
As1 Cs11 4.073085 1_455
As1 Cs4 4.073085 1_455
As2 V0 2.394298 1_455
As2 Cs4 3.661982 1_455
As2 Cs11 3.661982 1_454
As2 Cs9 3.687988 1_555
As2 Cs10 3.687988 1_554
As2 Cs6 3.719072 1_455
As2 Cs8 3.759563 1_555
As2 Cs13 3.759563 1_554
As3 Nb0 2.514255 1_555
As3 Cs10 3.700523 1_555
As3 Cs9 3.700523 1_555
As3 Cs7 3.728613 1_555
As3 Cs1 3.732613 1_555
As3 Cs12 3.732613 1_555
As3 Cs11 3.749695 1_555
As3 Cs4 3.749695 1_555
As4 V0 2.435489 1_455
As4 Cs2 3.567172 1_555
As4 Cs0 3.598928 1_465
As4 Cs12 3.601311 1_455
As4 Cs9 3.678697 1_555
As4 Cs7 3.847267 1_555
As4 Cs4 3.897117 1_455
As4 Cs8 3.984904 1_565
As5 Nb0 2.547857 1_555
As5 Cs5 3.598641 1_555
As5 Cs8 3.634825 1_555
As5 Cs3 3.649151 1_545
As5 Cs4 3.744155 1_555
As5 Cs6 3.801375 1_555
As5 Cs12 3.906341 1_545
As5 Cs9 3.965460 1_555
As6 Nb0 2.547857 1_555
As6 Cs5 3.598641 1_555
As6 Cs13 3.634825 1_555
As6 Cs3 3.649151 1_545
As6 Cs11 3.744155 1_555
As6 Cs6 3.801375 1_556
As6 Cs1 3.906341 1_545
As6 Cs10 3.965460 1_555
As7 V0 2.435489 1_456
As7 Cs2 3.567172 1_556
As7 Cs0 3.598928 1_466
As7 Cs1 3.601311 1_455
As7 Cs10 3.678697 1_555
As7 Cs7 3.847267 1_555
As7 Cs11 3.897117 1_455
As7 Cs13 3.984904 1_565
