# generated using pymatgen
data_NaLu3As6Ir7
_symmetry_space_group_name_H-M   'P 1'
_cell_length_a   7.15940225
_cell_length_b   7.15833155
_cell_length_c   7.15833220
_cell_angle_alpha   109.46819718
_cell_angle_beta   109.47425099
_cell_angle_gamma   109.47424025
_symmetry_Int_Tables_number   1
_chemical_formula_structural   NaLu3As6Ir7
_chemical_formula_sum   'Na1 Lu3 As6 Ir7'
_cell_volume   282.39844953
_cell_formula_units_Z   1
loop_
 _symmetry_equiv_pos_site_id
 _symmetry_equiv_pos_as_xyz
  1  'x, y, z'
loop_
 _atom_site_type_symbol
 _atom_site_label
 _atom_site_symmetry_multiplicity
 _atom_site_fract_x
 _atom_site_fract_y
 _atom_site_fract_z
 _atom_site_occupancy
  Na  Na0  1  0.50000000  0.00000000  0.00000000  1
  Lu  Lu0  1  0.00000000  0.00000000  0.50000000  1
  Lu  Lu1  1  0.00000000  0.50000000  0.00000000  1
  Lu  Lu2  1  0.50000000  0.50000000  0.50000000  1
  As  As0  1  0.32233618  1.00000000  0.31305328  1
  As  As1  1  0.99071611  0.31305328  0.31305328  1
  As  As2  1  0.00928389  0.68694672  0.68694672  1
  As  As3  1  0.32233618  0.31305328  0.00000000  1
  As  As4  1  0.67766382  0.68694672  1.00000000  1
  As  As5  1  0.67766382  0.00000000  0.68694672  1
  Ir  Ir0  1  0.75340909  0.50681618  0.25340909  1
  Ir  Ir1  1  0.50000000  0.74659091  0.25340909  1
  Ir  Ir2  1  0.50000000  0.25340909  0.74659091  1
  Ir  Ir3  1  0.75340909  0.25340909  0.50681618  1
  Ir  Ir4  1  0.24659091  0.74659091  0.49318382  1
  Ir  Ir5  1  0.24659091  0.49318382  0.74659091  1
  Ir  Ir6  1  0.00000000  0.00000000  0.00000000  1
loop_
_geom_bond_atom_site_label_1
_geom_bond_atom_site_label_2
_geom_bond_distance
_geom_bond_site_symmetry_2
As0 Ir1 2.544609 1_555
As0 Ir3 2.544611 1_565
As0 Ir2 2.572285 1_565
As0 Ir4 2.572297 1_555
As0 Ir6 2.626646 1_565
As0 Na0 2.922372 1_565
As0 Lu2 2.975909 1_565
As0 Lu1 2.975909 1_555
As0 Lu0 3.029133 1_565
As1 Ir0 2.544592 1_555
As1 Ir3 2.544592 1_555
As1 Ir4 2.572284 1_655
As1 Ir5 2.572284 1_655
As1 Ir6 2.626650 1_655
As1 Na0 2.922367 1_555
As1 Lu0 2.975910 1_655
As1 Lu1 2.975910 1_655
As1 Lu2 3.029139 1_655
As2 Ir5 2.544592 1_555
As2 Ir4 2.544592 1_555
As2 Ir3 2.572284 1_455
As2 Ir0 2.572284 1_455
As2 Ir6 2.626650 1_566
As2 Na0 2.922367 1_566
As2 Lu0 2.975910 1_565
As2 Lu1 2.975910 1_556
As2 Lu2 3.029139 1_455
As3 Ir2 2.544610 1_554
As3 Ir0 2.544611 1_555
As3 Ir1 2.572285 1_555
As3 Ir5 2.572296 1_554
As3 Ir6 2.626646 1_555
As3 Na0 2.922372 1_555
As3 Lu2 2.975909 1_555
As3 Lu0 2.975909 1_554
As3 Lu1 3.029132 1_555
As4 Ir1 2.544610 1_556
As4 Ir5 2.544611 1_555
As4 Ir2 2.572285 1_555
As4 Ir0 2.572296 1_556
As4 Ir6 2.626646 1_666
As4 Na0 2.922372 1_566
As4 Lu2 2.975909 1_555
As4 Lu0 2.975909 1_666
As4 Lu1 3.029132 1_656
As5 Ir2 2.544609 1_555
As5 Ir4 2.544611 1_545
As5 Ir1 2.572285 1_545
As5 Ir3 2.572297 1_555
As5 Ir6 2.626646 1_656
As5 Na0 2.922372 1_556
As5 Lu2 2.975909 1_545
As5 Lu1 2.975909 1_656
As5 Lu0 3.029133 1_655
Ir0 Lu0 2.882484 1_665
Ir0 Lu1 2.922921 1_655
Ir0 Lu2 2.922921 1_555
Ir0 Na0 2.962160 1_555
Ir1 Lu2 2.882472 1_555
Ir1 Lu1 2.922922 1_555
Ir1 Lu0 2.922922 1_665
Ir1 Na0 2.962172 1_565
Ir2 Lu2 2.882472 1_555
Ir2 Lu1 2.922922 1_656
Ir2 Lu0 2.922922 1_555
Ir2 Na0 2.962172 1_556
Ir3 Lu1 2.882484 1_656
Ir3 Lu0 2.922921 1_655
Ir3 Lu2 2.922921 1_555
Ir3 Na0 2.962160 1_555
Ir4 Lu1 2.882484 1_555
Ir4 Lu0 2.922921 1_565
Ir4 Lu2 2.922921 1_555
Ir4 Na0 2.962160 1_566
Ir5 Lu0 2.882484 1_555
Ir5 Lu1 2.922921 1_556
Ir5 Lu2 2.922921 1_555
Ir5 Na0 2.962160 1_566
