# generated using pymatgen
data_CsCdGeAs2
_symmetry_space_group_name_H-M   'P 1'
_cell_length_a   8.78087867
_cell_length_b   8.68456547
_cell_length_c   8.85449054
_cell_angle_alpha   70.94054763
_cell_angle_beta   75.89717050
_cell_angle_gamma   73.07632386
_symmetry_Int_Tables_number   1
_chemical_formula_structural   CsCdGeAs2
_chemical_formula_sum   'Cs4 Cd4 Ge4 As8'
_cell_volume   602.27060742
_cell_formula_units_Z   4
loop_
 _symmetry_equiv_pos_site_id
 _symmetry_equiv_pos_as_xyz
  1  'x, y, z'
loop_
 _atom_site_type_symbol
 _atom_site_label
 _atom_site_symmetry_multiplicity
 _atom_site_fract_x
 _atom_site_fract_y
 _atom_site_fract_z
 _atom_site_occupancy
  Cs  Cs0  1  0.44778114  0.76809140  0.31861936  1
  Cs  Cs1  1  0.55221886  0.23190860  0.68138064  1
  Cs  Cs2  1  0.43701738  0.80162978  0.81536114  1
  Cs  Cs3  1  0.56298262  0.19837022  0.18463886  1
  Cd  Cd0  1  0.99529903  0.89854206  0.69013547  1
  Cd  Cd1  1  0.00470097  0.10145794  0.30986453  1
  Cd  Cd2  1  0.96224911  0.81477596  0.17264754  1
  Cd  Cd3  1  0.03775089  0.18522404  0.82735246  1
  Ge  Ge0  1  0.96167544  0.58725250  0.59641979  1
  Ge  Ge1  1  0.03832456  0.41274750  0.40358021  1
  Ge  Ge2  1  0.14592200  0.45023266  0.97726987  1
  Ge  Ge3  1  0.85407800  0.54976734  0.02273013  1
  As  As0  1  0.81739466  0.87104855  0.46243010  1
  As  As1  1  0.18260534  0.12895145  0.53756990  1
  As  As2  1  0.79355039  0.40648910  0.31237384  1
  As  As3  1  0.20644961  0.59351090  0.68762616  1
  As  As4  1  0.77721876  0.85852341  0.96088919  1
  As  As5  1  0.22278124  0.14147659  0.03911081  1
  As  As6  1  0.78006265  0.44823453  0.82573733  1
  As  As7  1  0.21993735  0.55176547  0.17426267  1
loop_
_geom_bond_atom_site_label_1
_geom_bond_atom_site_label_2
_geom_bond_distance
_geom_bond_site_symmetry_2
Ge0 Ge1 2.490265 1_655
Ge2 Ge3 2.431312 1_456
As0 Ge0 2.468196 1_555
As0 Cd2 2.703146 1_555
As0 Cd1 2.757153 1_665
As0 Cd0 2.937505 1_555
As0 Cs3 3.679061 1_565
As0 Cs2 4.017519 1_555
As0 Cs1 4.064662 1_565
As0 Cs0 4.171515 1_555
As1 Ge1 2.468196 1_555
As1 Cd3 2.703146 1_555
As1 Cd0 2.757153 1_445
As1 Cd1 2.937505 1_555
As1 Cs2 3.679061 1_545
As1 Cs3 4.017519 1_555
As1 Cs0 4.064662 1_545
As1 Cs1 4.171515 1_555
As2 Ge3 2.458615 1_555
As2 Ge1 2.493460 1_655
As2 Cd1 2.759443 1_655
As2 Cs1 3.567354 1_555
As2 Cs3 3.636808 1_555
As2 Cs0 3.682900 1_555
As3 Ge2 2.458615 1_555
As3 Ge0 2.493460 1_455
As3 Cd0 2.759443 1_455
As3 Cs0 3.567354 1_555
As3 Cs2 3.636808 1_555
As3 Cs1 3.682900 1_555
As4 Ge3 2.472424 1_556
As4 Cd2 2.638128 1_556
As4 Cd0 2.672321 1_555
As4 Cs1 3.735667 1_565
As4 Cs2 3.738895 1_555
As4 Cs0 3.775007 1_556
As4 Cs3 3.865880 1_566
As5 Ge2 2.472424 1_554
As5 Cd3 2.638128 1_554
As5 Cd1 2.672321 1_555
As5 Cs0 3.735667 1_545
As5 Cs3 3.738895 1_555
As5 Cs1 3.775007 1_554
As5 Cs2 3.865880 1_544
As6 Ge0 2.462827 1_555
As6 Ge3 2.476485 1_556
As6 Cd3 2.706075 1_655
As6 Cs2 3.615208 1_555
As6 Cs3 3.659722 1_556
As6 Cs1 3.764146 1_555
As7 Ge1 2.462827 1_555
As7 Ge2 2.476485 1_554
As7 Cd2 2.706075 1_455
As7 Cs3 3.615208 1_555
As7 Cs2 3.659722 1_554
As7 Cs0 3.764146 1_555
