# generated using pymatgen
data_LuMg(Ga2Pt)2
_symmetry_space_group_name_H-M   'P 1'
_cell_length_a   5.25176497
_cell_length_b   5.25176462
_cell_length_c   6.91611676
_cell_angle_alpha   90.00000000
_cell_angle_beta   90.00000000
_cell_angle_gamma   133.17122688
_symmetry_Int_Tables_number   1
_chemical_formula_structural   LuMg(Ga2Pt)2
_chemical_formula_sum   'Lu1 Mg1 Ga4 Pt2'
_cell_volume   139.11898248
_cell_formula_units_Z   1
loop_
 _symmetry_equiv_pos_site_id
 _symmetry_equiv_pos_as_xyz
  1  'x, y, z'
loop_
 _atom_site_type_symbol
 _atom_site_label
 _atom_site_symmetry_multiplicity
 _atom_site_fract_x
 _atom_site_fract_y
 _atom_site_fract_z
 _atom_site_occupancy
  Lu  Lu0  1  0.42290083  0.57709917  0.75000000  1
  Mg  Mg0  1  0.57748971  0.42251029  0.25000000  1
  Ga  Ga0  1  0.86508937  0.13491063  0.05365824  1
  Ga  Ga1  1  0.13298715  0.86701285  0.95375383  1
  Ga  Ga2  1  0.13298715  0.86701285  0.54624617  1
  Ga  Ga3  1  0.86508937  0.13491063  0.44634176  1
  Pt  Pt0  1  0.29335090  0.70664910  0.25000000  1
  Pt  Pt1  1  0.71010952  0.28989048  0.75000000  1
loop_
_geom_bond_atom_site_label_1
_geom_bond_atom_site_label_2
_geom_bond_distance
_geom_bond_site_symmetry_2
Lu0 Pt1 2.768294 1_555
Lu0 Pt1 2.926083 1_565
Lu0 Pt1 2.926084 1_455
Mg0 Pt0 2.738705 1_555
Mg0 Pt0 2.946899 1_545
Mg0 Pt0 2.946900 1_655
Ga0 Pt1 2.577204 1_554
Ga0 Pt0 2.584062 1_655
Ga0 Pt0 2.584062 1_545
Ga0 Ga1 2.673010 1_644
Ga0 Lu0 3.012702 1_544
Ga0 Lu0 3.012702 1_654
Ga0 Mg0 3.086792 1_555
Ga0 Mg0 3.223426 1_545
Ga0 Mg0 3.223426 1_655
Ga1 Pt0 2.566519 1_556
Ga1 Pt1 2.625583 1_455
Ga1 Pt1 2.625583 1_565
Ga1 Ga2 2.818371 1_555
Ga1 Mg0 2.973101 1_566
Ga1 Mg0 2.973101 1_456
Ga1 Lu0 3.129582 1_555
Ga1 Lu0 3.231331 1_565
Ga1 Lu0 3.231331 1_455
Ga2 Pt0 2.566519 1_555
Ga2 Pt1 2.625583 1_455
Ga2 Pt1 2.625583 1_565
Ga2 Ga3 2.673010 1_465
Ga2 Mg0 2.973101 1_565
Ga2 Mg0 2.973101 1_455
Ga2 Lu0 3.129582 1_555
Ga2 Lu0 3.231331 1_565
Ga2 Lu0 3.231331 1_455
Ga3 Pt1 2.577204 1_555
Ga3 Pt0 2.584062 1_655
Ga3 Pt0 2.584062 1_545
Ga3 Lu0 3.012702 1_545
Ga3 Lu0 3.012702 1_655
Ga3 Mg0 3.086792 1_555
Ga3 Mg0 3.223426 1_545
Ga3 Mg0 3.223426 1_655
