# generated using pymatgen
data_Zr4As6PbO24
_symmetry_space_group_name_H-M   'P 1'
_cell_length_a   8.99642514
_cell_length_b   8.99642558
_cell_length_c   9.57722775
_cell_angle_alpha   61.98660547
_cell_angle_beta   61.98660362
_cell_angle_gamma   60.00000056
_symmetry_Int_Tables_number   1
_chemical_formula_structural   Zr4As6PbO24
_chemical_formula_sum   'Zr4 As6 Pb1 O24'
_cell_volume   563.99183028
_cell_formula_units_Z   1
loop_
 _symmetry_equiv_pos_site_id
 _symmetry_equiv_pos_as_xyz
  1  'x, y, z'
loop_
 _atom_site_type_symbol
 _atom_site_label
 _atom_site_symmetry_multiplicity
 _atom_site_fract_x
 _atom_site_fract_y
 _atom_site_fract_z
 _atom_site_occupancy
  Zr  Zr0  1  0.14393408  0.14393408  0.56819576  1
  Zr  Zr1  1  0.85606592  0.85606592  0.43180424  1
  Zr  Zr2  1  0.64695106  0.64695106  0.05914783  1
  Zr  Zr3  1  0.35304894  0.35304894  0.94085217  1
  As  As0  1  0.96119274  0.25435355  0.25750816  1
  As  As1  1  0.25435355  0.52694556  0.25750816  1
  As  As2  1  0.52694556  0.96119274  0.25750816  1
  As  As3  1  0.03880726  0.74564645  0.74249184  1
  As  As4  1  0.74564645  0.47305444  0.74249184  1
  As  As5  1  0.47305444  0.03880726  0.74249184  1
  Pb  Pb0  1  0.50000000  0.50000000  0.50000000  1
  O  O0  1  0.97995956  0.27807220  0.41210251  1
  O  O1  1  0.27807220  0.32986573  0.41210251  1
  O  O2  1  0.32986573  0.97995956  0.41210251  1
  O  O3  1  0.02004044  0.72192780  0.58789749  1
  O  O4  1  0.72192780  0.67013427  0.58789749  1
  O  O5  1  0.67013427  0.02004044  0.58789749  1
  O  O6  1  0.50140654  0.88056361  0.92393055  1
  O  O7  1  0.88056361  0.69409931  0.92393055  1
  O  O8  1  0.69409931  0.50140654  0.92393055  1
  O  O9  1  0.49859346  0.11943639  0.07606945  1
  O  O10  1  0.11943639  0.30590069  0.07606945  1
  O  O11  1  0.30590069  0.49859346  0.07606945  1
  O  O12  1  0.02410238  0.95388960  0.70378765  1
  O  O13  1  0.95388960  0.31822138  0.70378765  1
  O  O14  1  0.31822138  0.02410238  0.70378765  1
  O  O15  1  0.97589762  0.04611040  0.29621235  1
  O  O16  1  0.04611040  0.68177862  0.29621235  1
  O  O17  1  0.68177862  0.97589762  0.29621235  1
  O  O18  1  0.60197407  0.75404232  0.23987486  1
  O  O19  1  0.75404232  0.40410875  0.23987486  1
  O  O20  1  0.40410875  0.60197407  0.23987486  1
  O  O21  1  0.39802593  0.24595768  0.76012514  1
  O  O22  1  0.24595768  0.59589125  0.76012514  1
  O  O23  1  0.59589125  0.39802593  0.76012514  1
loop_
_geom_bond_atom_site_label_1
_geom_bond_atom_site_label_2
_geom_bond_distance
_geom_bond_site_symmetry_2
As0 O15 1.676481 1_555
As0 O0 1.683384 1_555
As0 O10 1.685451 1_655
As0 O19 1.699360 1_555
As1 O16 1.676477 1_555
As1 O1 1.683384 1_555
As1 O11 1.685451 1_555
As1 O20 1.699360 1_555
As2 O17 1.676472 1_555
As2 O2 1.683384 1_555
As2 O9 1.685451 1_565
As2 O18 1.699360 1_555
As3 O12 1.676481 1_555
As3 O3 1.683384 1_555
As3 O7 1.685451 1_455
As3 O22 1.699360 1_555
As4 O13 1.676477 1_555
As4 O4 1.683384 1_555
As4 O8 1.685451 1_555
As4 O23 1.699360 1_555
As5 O14 1.676472 1_555
As5 O5 1.683384 1_555
As5 O6 1.685451 1_545
As5 O21 1.699360 1_555
O0 Zr0 2.112826 1_655
O1 Zr0 2.112840 1_555
O2 Zr0 2.112828 1_565
O3 Zr1 2.112826 1_455
O4 Zr1 2.112840 1_555
O5 Zr1 2.112828 1_545
O6 Zr2 2.023083 1_556
O7 Zr2 2.023079 1_556
O8 Zr2 2.023087 1_556
O9 Zr3 2.023083 1_554
O10 Zr3 2.023079 1_554
O11 Zr3 2.023087 1_554
O12 Zr0 2.052858 1_565
O13 Zr0 2.052876 1_655
O14 Zr0 2.052880 1_555
O15 Zr1 2.052858 1_545
O16 Zr1 2.052876 1_455
O17 Zr1 2.052880 1_555
O18 Zr2 2.146289 1_555
O18 Pb0 2.621606 1_555
O19 Zr2 2.146292 1_555
O19 Pb0 2.621606 1_555
O20 Zr2 2.146295 1_555
O20 Pb0 2.621606 1_555
O21 Zr3 2.146289 1_555
O21 Pb0 2.621606 1_555
O22 Zr3 2.146292 1_555
O22 Pb0 2.621606 1_555
O23 Zr3 2.146295 1_555
O23 Pb0 2.621606 1_555
