# generated using pymatgen
data_Ta16GaNi7C4
_symmetry_space_group_name_H-M   'P 1'
_cell_length_a   8.24211629
_cell_length_b   8.23215819
_cell_length_c   8.23215840
_cell_angle_alpha   60.00000710
_cell_angle_beta   60.03996586
_cell_angle_gamma   60.03996828
_symmetry_Int_Tables_number   1
_chemical_formula_structural   Ta16GaNi7C4
_chemical_formula_sum   'Ta16 Ga1 Ni7 C4'
_cell_volume   395.19667646
_cell_formula_units_Z   1
loop_
 _symmetry_equiv_pos_site_id
 _symmetry_equiv_pos_as_xyz
  1  'x, y, z'
loop_
 _atom_site_type_symbol
 _atom_site_label
 _atom_site_symmetry_multiplicity
 _atom_site_fract_x
 _atom_site_fract_y
 _atom_site_fract_z
 _atom_site_occupancy
  Ta  Ta0  1  0.12699834  0.62433455  0.62433455  1
  Ta  Ta1  1  0.61823720  0.11881010  0.63147635  1
  Ta  Ta2  1  0.61823720  0.63147635  0.11881010  1
  Ta  Ta3  1  0.61823720  0.63147635  0.63147635  1
  Ta  Ta4  1  0.81429499  0.81349856  0.18610423  1
  Ta  Ta5  1  0.18001500  0.18324642  0.81836879  1
  Ta  Ta6  1  0.81429499  0.18610423  0.81349856  1
  Ta  Ta7  1  0.18001500  0.81836879  0.18324642  1
  Ta  Ta8  1  0.18001500  0.81836879  0.81836879  1
  Ta  Ta9  1  0.81429499  0.18610423  0.18610423  1
  Ta  Ta10  1  0.43136197  0.43268525  0.06797589  1
  Ta  Ta11  1  0.06906984  0.05858301  0.43617307  1
  Ta  Ta12  1  0.43136197  0.06797589  0.43268525  1
  Ta  Ta13  1  0.06906984  0.43617307  0.05858301  1
  Ta  Ta14  1  0.06906984  0.43617307  0.43617307  1
  Ta  Ta15  1  0.43136197  0.06797589  0.06797589  1
  Ga  Ga0  1  0.76300870  0.41233110  0.41233110  1
  Ni  Ni0  1  0.42433186  0.73853280  0.41856717  1
  Ni  Ni1  1  0.42433186  0.41856717  0.73853280  1
  Ni  Ni2  1  0.42433186  0.41856717  0.41856717  1
  Ni  Ni3  1  0.50879698  0.83040101  0.83040101  1
  Ni  Ni4  1  0.82976992  0.50970688  0.83026160  1
  Ni  Ni5  1  0.82976992  0.83026160  0.50970688  1
  Ni  Ni6  1  0.82976991  0.83026160  0.83026160  1
  C  C0  1  0.62609818  0.12463427  0.12463427  1
  C  C1  1  0.12461816  0.62398955  0.12569565  1
  C  C2  1  0.12461816  0.12569565  0.62398955  1
  C  C3  1  0.12461816  0.12569565  0.12569565  1
loop_
_geom_bond_atom_site_label_1
_geom_bond_atom_site_label_2
_geom_bond_distance
_geom_bond_site_symmetry_2
Ga0 Ta3 2.624387 1_555
Ga0 Ta1 2.624400 1_555
Ga0 Ta2 2.624400 1_555
Ga0 Ta14 2.732775 1_655
Ga0 Ta13 2.732790 1_655
Ga0 Ta11 2.732790 1_655
Ga0 Ni1 2.741091 1_555
Ga0 Ni0 2.741091 1_555
Ga0 Ni2 2.741102 1_555
Ga0 Ta9 3.001836 1_555
Ga0 Ta4 3.001836 1_555
Ga0 Ta6 3.001836 1_555
Ni0 Ta2 2.499830 1_555
Ni0 Ta3 2.499837 1_555
Ni0 Ta0 2.514218 1_555
Ni0 Ni2 2.634008 1_555
Ni0 Ni1 2.634008 1_555
Ni0 Ta11 2.790898 1_565
Ni0 Ta12 2.801934 1_565
Ni0 Ta15 2.801935 1_565
Ni0 Ta4 3.005058 1_555
Ni0 Ta7 3.088819 1_555
Ni0 Ta8 3.088819 1_555
Ni1 Ta1 2.499830 1_555
Ni1 Ta3 2.499837 1_555
Ni1 Ta0 2.514218 1_555
Ni1 Ni2 2.634008 1_555
Ni1 Ta13 2.790898 1_556
Ni1 Ta10 2.801934 1_556
Ni1 Ta15 2.801935 1_556
Ni1 Ta6 3.005058 1_555
Ni1 Ta5 3.088819 1_555
Ni1 Ta8 3.088819 1_555
Ni2 Ta2 2.499835 1_555
Ni2 Ta1 2.499835 1_555
Ni2 Ta0 2.514231 1_555
Ni2 Ta14 2.790897 1_555
Ni2 Ta12 2.801934 1_555
Ni2 Ta10 2.801934 1_555
Ni2 Ta9 3.005048 1_555
Ni2 Ta5 3.088819 1_555
Ni2 Ta7 3.088819 1_555
Ni3 Ta3 2.430628 1_555
Ni3 Ta1 2.430628 1_565
Ni3 Ta2 2.430628 1_556
Ni3 Ni6 2.644351 1_555
Ni3 Ni5 2.644351 1_555
Ni3 Ni4 2.644351 1_555
Ni3 Ta7 2.812282 1_556
Ni3 Ta5 2.812282 1_565
Ni3 Ta8 2.812286 1_555
Ni3 Ta15 3.064121 1_566
Ni3 Ta10 3.064128 1_556
Ni3 Ta12 3.064128 1_565
Ni4 Ta3 2.487191 1_555
Ni4 Ta2 2.487191 1_556
Ni4 Ta0 2.515357 1_655
Ni4 Ni6 2.638857 1_555
Ni4 Ni5 2.638858 1_555
Ni4 Ta5 2.792419 1_655
Ni4 Ta6 2.802943 1_555
Ni4 Ta9 2.802953 1_556
Ni4 Ta13 3.026841 1_656
Ni4 Ta14 3.026849 1_655
Ni4 Ta10 3.071634 1_556
Ni5 Ta3 2.487191 1_555
Ni5 Ta1 2.487191 1_565
Ni5 Ta0 2.515357 1_655
Ni5 Ni6 2.638857 1_555
Ni5 Ta7 2.792418 1_655
Ni5 Ta4 2.802943 1_555
Ni5 Ta9 2.802953 1_565
Ni5 Ta11 3.026841 1_665
Ni5 Ta14 3.026849 1_655
Ni5 Ta12 3.071634 1_565
Ni6 Ta2 2.487191 1_556
Ni6 Ta1 2.487191 1_565
Ni6 Ta0 2.515348 1_655
Ni6 Ta8 2.792414 1_655
Ni6 Ta6 2.802960 1_565
Ni6 Ta4 2.802960 1_556
Ni6 Ta11 3.026845 1_665
Ni6 Ta13 3.026845 1_656
Ni6 Ta15 3.071631 1_566
C0 Ta12 2.173519 1_555
C0 Ta10 2.173519 1_555
C0 Ta15 2.173530 1_555
C0 Ta6 2.177651 1_554
C0 Ta4 2.177651 1_545
C0 Ta9 2.177656 1_555
C1 Ta10 2.160905 1_555
C1 Ta7 2.167332 1_555
C1 Ta8 2.167333 1_554
C1 Ta13 2.172385 1_555
C1 Ta14 2.172385 1_555
C1 Ta4 2.177857 1_455
C2 Ta12 2.160905 1_555
C2 Ta5 2.167332 1_555
C2 Ta8 2.167333 1_545
C2 Ta11 2.172385 1_555
C2 Ta14 2.172385 1_555
C2 Ta6 2.177857 1_455
C3 Ta15 2.160905 1_555
C3 Ta7 2.167332 1_545
C3 Ta5 2.167333 1_554
C3 Ta13 2.172385 1_555
C3 Ta11 2.172385 1_555
C3 Ta9 2.177850 1_455
