# generated using pymatgen
data_RbCrAs2Pt
_symmetry_space_group_name_H-M   'P 1'
_cell_length_a   7.80355200
_cell_length_b   7.80355143
_cell_length_c   7.80355311
_cell_angle_alpha   150.16905119
_cell_angle_beta   150.16904649
_cell_angle_gamma   42.69331458
_symmetry_Int_Tables_number   1
_chemical_formula_structural   RbCrAs2Pt
_chemical_formula_sum   'Rb1 Cr1 As2 Pt1'
_cell_volume   117.29165993
_cell_formula_units_Z   1
loop_
 _symmetry_equiv_pos_site_id
 _symmetry_equiv_pos_as_xyz
  1  'x, y, z'
loop_
 _atom_site_type_symbol
 _atom_site_label
 _atom_site_symmetry_multiplicity
 _atom_site_fract_x
 _atom_site_fract_y
 _atom_site_fract_z
 _atom_site_occupancy
  Rb  Rb0  1  0.00000000  0.00000000  0.00000000  1
  Cr  Cr0  1  0.75000000  0.25000000  0.50000000  1
  As  As0  1  0.35022330  0.35022330  1.00000000  1
  As  As1  1  0.64977670  0.64977670  0.00000000  1
  Pt  Pt0  1  0.25000000  0.75000000  0.50000000  1
loop_
_geom_bond_atom_site_label_1
_geom_bond_atom_site_label_2
_geom_bond_distance
_geom_bond_site_symmetry_2
Cr0 Pt0 2.840569 1_645
Cr0 Pt0 2.840569 1_555
Cr0 Pt0 2.840570 1_656
Cr0 Pt0 2.840570 1_544
As0 Pt0 2.481315 1_545
As0 Cr0 2.481316 1_455
As0 Pt0 2.481316 1_556
As0 Cr0 2.481316 1_556
As0 Rb0 3.578977 1_667
As0 Rb0 3.578978 1_566
As0 Rb0 3.578978 1_656
As0 Rb0 3.578979 1_555
As1 Cr0 2.481315 1_565
As1 Pt0 2.481316 1_655
As1 Cr0 2.481316 1_554
As1 Pt0 2.481316 1_554
As1 Rb0 3.578977 1_554
As1 Rb0 3.578978 1_655
As1 Rb0 3.578978 1_565
As1 Rb0 3.578979 1_666
