# generated using pymatgen
data_Ca9Mn4Bi9
_symmetry_space_group_name_H-M   'P 1'
_cell_length_a   4.76785200
_cell_length_b   12.60849500
_cell_length_c   22.42838900
_cell_angle_alpha   90.00000000
_cell_angle_beta   90.00000000
_cell_angle_gamma   90.00000000
_symmetry_Int_Tables_number   1
_chemical_formula_structural   Ca9Mn4Bi9
_chemical_formula_sum   'Ca18 Mn8 Bi18'
_cell_volume   1348.29243067
_cell_formula_units_Z   2
loop_
 _symmetry_equiv_pos_site_id
 _symmetry_equiv_pos_as_xyz
  1  'x, y, z'
loop_
 _atom_site_type_symbol
 _atom_site_label
 _atom_site_symmetry_multiplicity
 _atom_site_fract_x
 _atom_site_fract_y
 _atom_site_fract_z
 _atom_site_occupancy
  Ca  Ca0  1  0.50000000  0.50000000  0.50000000  1
  Ca  Ca1  1  0.50000000  0.00000000  0.00000000  1
  Ca  Ca2  1  0.00000000  0.88107300  0.23542200  1
  Ca  Ca3  1  0.00000000  0.11892700  0.76457800  1
  Ca  Ca4  1  0.00000000  0.38107300  0.26457800  1
  Ca  Ca5  1  0.00000000  0.61892700  0.73542200  1
  Ca  Ca6  1  0.50000000  0.71563400  0.10354500  1
  Ca  Ca7  1  0.50000000  0.28436600  0.89645500  1
  Ca  Ca8  1  0.50000000  0.21563400  0.39645500  1
  Ca  Ca9  1  0.50000000  0.78436600  0.60354500  1
  Ca  Ca10  1  0.00000000  0.93839600  0.40912400  1
  Ca  Ca11  1  0.00000000  0.06160400  0.59087600  1
  Ca  Ca12  1  0.00000000  0.43839600  0.09087600  1
  Ca  Ca13  1  0.00000000  0.56160400  0.90912400  1
  Ca  Ca14  1  0.00000000  0.63719600  0.36236200  1
  Ca  Ca15  1  0.00000000  0.36280400  0.63763800  1
  Ca  Ca16  1  0.00000000  0.13719600  0.13763800  1
  Ca  Ca17  1  0.00000000  0.86280400  0.86236200  1
  Mn  Mn0  1  0.50000000  0.72074400  0.95493900  1
  Mn  Mn1  1  0.50000000  0.27925600  0.04506100  1
  Mn  Mn2  1  0.50000000  0.22074400  0.54506100  1
  Mn  Mn3  1  0.50000000  0.77925600  0.45493900  1
  Mn  Mn4  1  0.50000000  0.88355000  0.76075000  1
  Mn  Mn5  1  0.50000000  0.11645000  0.23925000  1
  Mn  Mn6  1  0.50000000  0.38355000  0.73925000  1
  Mn  Mn7  1  0.50000000  0.61645000  0.26075000  1
  Bi  Bi0  1  0.50000000  0.00000000  0.50000000  1
  Bi  Bi1  1  0.50000000  0.50000000  0.00000000  1
  Bi  Bi2  1  0.00000000  0.62431500  0.19368800  1
  Bi  Bi3  1  0.00000000  0.37568500  0.80631200  1
  Bi  Bi4  1  0.00000000  0.12431500  0.30631200  1
  Bi  Bi5  1  0.00000000  0.87568500  0.69368800  1
  Bi  Bi6  1  0.50000000  0.81426500  0.33071400  1
  Bi  Bi7  1  0.50000000  0.18573500  0.66928600  1
  Bi  Bi8  1  0.50000000  0.31426500  0.16928600  1
  Bi  Bi9  1  0.50000000  0.68573500  0.83071400  1
  Bi  Bi10  1  0.50000000  0.96255500  0.14678200  1
  Bi  Bi11  1  0.50000000  0.03744500  0.85321800  1
  Bi  Bi12  1  0.50000000  0.46255500  0.35321800  1
  Bi  Bi13  1  0.50000000  0.53744500  0.64678200  1
  Bi  Bi14  1  0.00000000  0.80336300  0.00548900  1
  Bi  Bi15  1  0.00000000  0.19663700  0.99451100  1
  Bi  Bi16  1  0.00000000  0.30336300  0.49451100  1
  Bi  Bi17  1  0.00000000  0.69663700  0.50548900  1
loop_
_geom_bond_atom_site_label_1
_geom_bond_atom_site_label_2
_geom_bond_distance
_geom_bond_site_symmetry_2
Ca0 Mn3 3.663172 1_555
Ca0 Mn2 3.663172 1_555
Ca1 Mn0 3.663172 1_544
Ca1 Mn1 3.663172 1_555
Ca6 Mn0 3.333616 1_554
Ca6 Mn7 3.741063 1_555
Ca7 Mn1 3.333616 1_556
Ca7 Mn6 3.741063 1_555
Ca8 Mn2 3.333616 1_555
Ca8 Mn5 3.741063 1_555
Ca9 Mn3 3.333616 1_555
Ca9 Mn4 3.741063 1_555
Ca10 Mn3 3.281018 1_555
Ca10 Mn3 3.281018 1_455
Ca11 Mn2 3.281018 1_455
Ca11 Mn2 3.281018 1_555
Ca12 Mn1 3.281018 1_455
Ca12 Mn1 3.281018 1_555
Ca13 Mn0 3.281018 1_555
Ca13 Mn0 3.281018 1_455
Ca14 Mn7 3.308374 1_555
Ca14 Mn7 3.308374 1_455
Ca14 Mn3 3.633539 1_455
Ca14 Mn3 3.633539 1_555
Ca15 Mn6 3.308374 1_555
Ca15 Mn6 3.308374 1_455
Ca15 Mn2 3.633539 1_555
Ca15 Mn2 3.633539 1_455
Ca16 Mn5 3.308374 1_555
Ca16 Mn5 3.308374 1_455
Ca16 Mn1 3.633539 1_455
Ca16 Mn1 3.633539 1_555
Ca17 Mn4 3.308374 1_455
Ca17 Mn4 3.308374 1_555
Ca17 Mn0 3.633539 1_455
Ca17 Mn0 3.633539 1_555
Bi0 Mn3 2.961061 1_545
Bi0 Mn2 2.961061 1_555
Bi0 Ca11 3.231205 1_555
Bi0 Ca11 3.231205 1_655
Bi0 Ca10 3.231205 1_645
Bi0 Ca10 3.231205 1_545
Bi0 Ca8 3.575651 1_555
Bi0 Ca9 3.575651 1_545
Bi1 Mn1 2.961061 1_555
Bi1 Mn0 2.961061 1_554
Bi1 Ca13 3.231205 1_654
Bi1 Ca13 3.231205 1_554
Bi1 Ca12 3.231205 1_555
Bi1 Ca12 3.231205 1_655
Bi1 Ca7 3.575651 1_554
Bi1 Ca6 3.575651 1_555
Bi2 Mn7 2.820502 1_555
Bi2 Mn7 2.820502 1_455
Bi2 Ca12 3.288205 1_555
Bi2 Ca6 3.331116 1_455
Bi2 Ca6 3.331116 1_555
Bi2 Ca2 3.369935 1_555
Bi2 Ca4 3.454549 1_555
Bi3 Mn6 2.820502 1_455
Bi3 Mn6 2.820502 1_555
Bi3 Ca13 3.288205 1_555
Bi3 Ca7 3.331116 1_455
Bi3 Ca7 3.331116 1_555
Bi3 Ca3 3.369935 1_555
Bi3 Ca5 3.454549 1_555
Bi4 Mn5 2.820502 1_455
Bi4 Mn5 2.820502 1_555
Bi4 Ca10 3.288205 1_545
Bi4 Ca8 3.331116 1_555
Bi4 Ca8 3.331116 1_455
Bi4 Ca4 3.369935 1_555
Bi4 Ca2 3.454549 1_545
Bi5 Mn4 2.820502 1_455
Bi5 Mn4 2.820502 1_555
Bi5 Ca11 3.288205 1_565
Bi5 Ca9 3.331116 1_555
Bi5 Ca9 3.331116 1_455
Bi5 Ca5 3.369935 1_555
Bi5 Ca3 3.454549 1_565
Bi6 Mn3 2.820916 1_555
Bi6 Mn7 2.946711 1_555
Bi6 Ca2 3.310661 1_555
Bi6 Ca2 3.310661 1_655
Bi6 Ca14 3.342353 1_555
Bi6 Ca14 3.342353 1_655
Bi6 Ca10 3.350428 1_655
Bi6 Ca10 3.350428 1_555
Bi7 Mn2 2.820916 1_555
Bi7 Mn6 2.946711 1_555
Bi7 Ca3 3.310661 1_555
Bi7 Ca3 3.310661 1_655
Bi7 Ca15 3.342353 1_555
Bi7 Ca15 3.342353 1_655
Bi7 Ca11 3.350428 1_555
Bi7 Ca11 3.350428 1_655
Bi8 Mn1 2.820916 1_555
Bi8 Mn5 2.946711 1_555
Bi8 Ca4 3.310661 1_655
Bi8 Ca4 3.310661 1_555
Bi8 Ca16 3.342353 1_555
Bi8 Ca16 3.342353 1_655
Bi8 Ca12 3.350428 1_555
Bi8 Ca12 3.350428 1_655
Bi9 Mn0 2.820916 1_555
Bi9 Mn4 2.946711 1_555
Bi9 Ca5 3.310661 1_655
Bi9 Ca5 3.310661 1_555
Bi9 Ca17 3.342353 1_655
Bi9 Ca17 3.342353 1_555
Bi9 Ca13 3.350428 1_555
Bi9 Ca13 3.350428 1_655
Bi10 Mn5 2.840103 1_565
Bi10 Ca16 3.251737 1_665
Bi10 Ca16 3.251737 1_565
Bi10 Ca6 3.260834 1_555
Bi10 Ca2 3.269700 1_555
Bi10 Ca2 3.269700 1_655
Bi10 Ca1 3.325766 1_565
Bi11 Mn4 2.840103 1_545
Bi11 Ca17 3.251737 1_545
Bi11 Ca17 3.251737 1_645
Bi11 Ca7 3.260834 1_555
Bi11 Ca3 3.269700 1_655
Bi11 Ca3 3.269700 1_555
Bi11 Ca1 3.325766 1_556
Bi12 Mn7 2.840103 1_555
Bi12 Ca14 3.251737 1_555
Bi12 Ca14 3.251737 1_655
Bi12 Ca8 3.260834 1_555
Bi12 Ca4 3.269700 1_555
Bi12 Ca4 3.269700 1_655
Bi12 Ca0 3.325766 1_555
Bi13 Mn6 2.840103 1_555
Bi13 Ca15 3.251737 1_555
Bi13 Ca15 3.251737 1_655
Bi13 Ca9 3.260834 1_555
Bi13 Ca5 3.269700 1_555
Bi13 Ca5 3.269700 1_655
Bi13 Ca0 3.325766 1_555
Bi14 Mn0 2.837895 1_454
Bi14 Mn0 2.837895 1_554
Bi14 Ca17 3.296435 1_554
Bi14 Ca6 3.426846 1_455
Bi14 Ca6 3.426846 1_555
Bi14 Ca1 3.441681 1_565
Bi14 Ca1 3.441681 1_465
Bi14 Ca13 3.736696 1_554
Bi15 Mn1 2.837895 1_456
Bi15 Mn1 2.837895 1_556
Bi15 Ca16 3.296435 1_556
Bi15 Ca7 3.426846 1_455
Bi15 Ca7 3.426846 1_555
Bi15 Ca1 3.441681 1_456
Bi15 Ca1 3.441681 1_556
Bi15 Ca12 3.736696 1_556
Bi16 Mn2 2.837895 1_555
Bi16 Mn2 2.837895 1_455
Bi16 Ca15 3.296435 1_555
Bi16 Ca8 3.426846 1_555
Bi16 Ca8 3.426846 1_455
Bi16 Ca0 3.441681 1_455
Bi16 Ca0 3.441681 1_555
Bi16 Ca11 3.736696 1_555
Bi17 Mn3 2.837895 1_455
Bi17 Mn3 2.837895 1_555
Bi17 Ca14 3.296435 1_555
Bi17 Ca9 3.426846 1_455
Bi17 Ca9 3.426846 1_555
Bi17 Ca0 3.441681 1_455
Bi17 Ca0 3.441681 1_555
Bi17 Ca10 3.736696 1_555
