# generated using pymatgen
data_CsSnPO4
_symmetry_space_group_name_H-M   'P 1'
_cell_length_a   5.50253342
_cell_length_b   9.34173621
_cell_length_c   10.10693589
_cell_angle_alpha   90.00000000
_cell_angle_beta   90.00000000
_cell_angle_gamma   90.00000000
_symmetry_Int_Tables_number   1
_chemical_formula_structural   CsSnPO4
_chemical_formula_sum   'Cs4 Sn4 P4 O16'
_cell_volume   519.52900574
_cell_formula_units_Z   4
loop_
 _symmetry_equiv_pos_site_id
 _symmetry_equiv_pos_as_xyz
  1  'x, y, z'
loop_
 _atom_site_type_symbol
 _atom_site_label
 _atom_site_symmetry_multiplicity
 _atom_site_fract_x
 _atom_site_fract_y
 _atom_site_fract_z
 _atom_site_occupancy
  Cs  Cs0  1  0.75000000  0.65409227  0.01978443  1
  Cs  Cs1  1  0.75000000  0.84590773  0.51978443  1
  Cs  Cs2  1  0.25000000  0.34590773  0.98021557  1
  Cs  Cs3  1  0.25000000  0.15409227  0.48021557  1
  Sn  Sn0  1  0.75000000  0.09712113  0.15306657  1
  Sn  Sn1  1  0.75000000  0.40287887  0.65306657  1
  Sn  Sn2  1  0.25000000  0.90287887  0.84693343  1
  Sn  Sn3  1  0.25000000  0.59712113  0.34693343  1
  P  P0  1  0.75000000  0.07722690  0.84246781  1
  P  P1  1  0.75000000  0.42277310  0.34246781  1
  P  P2  1  0.25000000  0.92277310  0.15753219  1
  P  P3  1  0.25000000  0.57722690  0.65753219  1
  O  O0  1  0.75000000  0.97276590  0.96316523  1
  O  O1  1  0.75000000  0.52723410  0.46316523  1
  O  O2  1  0.25000000  0.02723410  0.03683477  1
  O  O3  1  0.25000000  0.47276590  0.53683477  1
  O  O4  1  0.75000000  0.23158273  0.88814331  1
  O  O5  1  0.75000000  0.26841727  0.38814331  1
  O  O6  1  0.25000000  0.76841727  0.11185669  1
  O  O7  1  0.25000000  0.73158273  0.61185669  1
  O  O8  1  0.97972413  0.04210461  0.75808674  1
  O  O9  1  0.52027587  0.45789539  0.25808674  1
  O  O10  1  0.47972413  0.95789539  0.24191326  1
  O  O11  1  0.02027587  0.54210461  0.74191326  1
  O  O12  1  0.02027587  0.95789539  0.24191326  1
  O  O13  1  0.47972413  0.54210461  0.74191326  1
  O  O14  1  0.52027587  0.04210461  0.75808674  1
  O  O15  1  0.97972413  0.45789539  0.25808674  1
loop_
_geom_bond_atom_site_label_1
_geom_bond_atom_site_label_2
_geom_bond_distance
_geom_bond_site_symmetry_2
Cs0 O0 3.031466 1_554
Cs0 O6 3.094517 1_655
Cs0 O6 3.094517 1_555
Cs0 O15 3.279937 1_555
Cs0 O9 3.279937 1_555
Cs0 O11 3.345665 1_654
Cs0 O13 3.345665 1_554
Cs1 O1 3.031466 1_555
Cs1 O7 3.094517 1_655
Cs1 O7 3.094517 1_555
Cs1 O8 3.279937 1_565
Cs1 O14 3.279937 1_565
Cs1 O12 3.345665 1_655
Cs1 O10 3.345665 1_555
Cs2 O2 3.031466 1_556
Cs2 O4 3.094517 1_555
Cs2 O4 3.094517 1_455
Cs2 O13 3.279937 1_555
Cs2 O11 3.279937 1_555
Cs2 O9 3.345665 1_556
Cs2 O15 3.345665 1_456
Cs3 O3 3.031466 1_555
Cs3 O5 3.094517 1_555
Cs3 O5 3.094517 1_455
Cs3 O10 3.279937 1_545
Cs3 O12 3.279937 1_545
Cs3 O14 3.345665 1_555
Cs3 O8 3.345665 1_455
O0 P0 1.562174 1_565
O0 Sn0 2.243507 1_566
O1 P1 1.562174 1_555
O1 Sn1 2.243507 1_555
O2 P2 1.562174 1_545
O2 Sn2 2.243507 1_544
O3 P3 1.562174 1_555
O3 Sn3 2.243507 1_555
O4 P0 1.514046 1_555
O5 P1 1.514046 1_555
O6 P2 1.514046 1_555
O7 P3 1.514046 1_555
O8 P0 1.559755 1_555
O8 Sn2 2.170185 1_645
O9 P1 1.559755 1_555
O9 Sn3 2.170185 1_555
O10 P2 1.559755 1_555
O10 Sn0 2.170185 1_565
O11 P3 1.559755 1_555
O11 Sn1 2.170185 1_455
O12 P2 1.559755 1_555
O12 Sn0 2.170185 1_465
O13 P3 1.559755 1_555
O13 Sn1 2.170185 1_555
O14 P0 1.559755 1_555
O14 Sn2 2.170185 1_545
O15 P1 1.559755 1_555
O15 Sn3 2.170185 1_655
