# generated using pymatgen
data_Zn3Cd(In2Ir)4
_symmetry_space_group_name_H-M   'P 1'
_cell_length_a   6.79904686
_cell_length_b   6.93438815
_cell_length_c   7.26520965
_cell_angle_alpha   90.00000000
_cell_angle_beta   90.00000000
_cell_angle_gamma   88.94721500
_symmetry_Int_Tables_number   1
_chemical_formula_structural   Zn3Cd(In2Ir)4
_chemical_formula_sum   'Zn3 Cd1 In8 Ir4'
_cell_volume   342.47668741
_cell_formula_units_Z   1
loop_
 _symmetry_equiv_pos_site_id
 _symmetry_equiv_pos_as_xyz
  1  'x, y, z'
loop_
 _atom_site_type_symbol
 _atom_site_label
 _atom_site_symmetry_multiplicity
 _atom_site_fract_x
 _atom_site_fract_y
 _atom_site_fract_z
 _atom_site_occupancy
  Zn  Zn0  1  0.00000000  0.50000000  0.00000000  1
  Zn  Zn1  1  0.50000000  0.00000000  0.00000000  1
  Zn  Zn2  1  0.00000000  0.50000000  0.50000000  1
  Cd  Cd0  1  0.50000000  0.00000000  0.50000000  1
  In  In0  1  0.33718279  0.33939203  0.26754996  1
  In  In1  1  0.16067781  0.83334736  0.77188314  1
  In  In2  1  0.16067781  0.83334736  0.22811686  1
  In  In3  1  0.83932219  0.16665264  0.22811686  1
  In  In4  1  0.83932219  0.16665264  0.77188314  1
  In  In5  1  0.66281721  0.66060797  0.26754996  1
  In  In6  1  0.66281721  0.66060797  0.73245004  1
  In  In7  1  0.33718279  0.33939203  0.73245004  1
  Ir  Ir0  1  0.15945189  0.15688981  0.00000000  1
  Ir  Ir1  1  0.66505064  0.35205698  0.50000000  1
  Ir  Ir2  1  0.33494936  0.64794302  0.50000000  1
  Ir  Ir3  1  0.84054811  0.84311019  0.00000000  1
loop_
_geom_bond_atom_site_label_1
_geom_bond_atom_site_label_2
_geom_bond_distance
_geom_bond_site_symmetry_2
Cd0 Ir1 2.705535 1_555
Cd0 Ir2 2.705535 1_545
In0 Ir0 2.626101 1_555
In0 Ir2 2.725622 1_555
In0 Ir1 2.799327 1_555
In1 Ir2 2.627292 1_555
In1 Ir3 2.735572 1_456
In1 Ir0 2.789208 1_566
In2 Ir2 2.627292 1_555
In2 Ir3 2.735572 1_455
In2 Ir0 2.789208 1_565
In3 Ir1 2.627292 1_555
In3 Ir0 2.735572 1_655
In3 Ir3 2.789208 1_545
In4 Ir1 2.627292 1_555
In4 Ir0 2.735572 1_656
In4 Ir3 2.789208 1_546
In5 Ir3 2.626101 1_555
In5 Ir1 2.725622 1_555
In5 Ir2 2.799327 1_555
In6 Ir3 2.626101 1_556
In6 Ir1 2.725622 1_555
In6 Ir2 2.799327 1_555
In7 Ir0 2.626101 1_556
In7 Ir2 2.725622 1_555
In7 Ir1 2.799327 1_555
Ir0 Zn1 2.540103 1_555
Ir0 Zn0 2.596422 1_555
Ir1 Zn2 2.514870 1_655
Ir2 Zn2 2.514870 1_555
Ir3 Zn1 2.540103 1_565
Ir3 Zn0 2.596422 1_655
