# generated using pymatgen
data_MgTa(Ni7B2)3
_symmetry_space_group_name_H-M   'P 1'
_cell_length_a   7.37284119
_cell_length_b   7.37284035
_cell_length_c   7.37284129
_cell_angle_alpha   60.00000015
_cell_angle_beta   60.00000390
_cell_angle_gamma   60.00000137
_symmetry_Int_Tables_number   1
_chemical_formula_structural   MgTa(Ni7B2)3
_chemical_formula_sum   'Mg1 Ta1 Ni21 B6'
_cell_volume   283.39332382
_cell_formula_units_Z   1
loop_
 _symmetry_equiv_pos_site_id
 _symmetry_equiv_pos_as_xyz
  1  'x, y, z'
loop_
 _atom_site_type_symbol
 _atom_site_label
 _atom_site_symmetry_multiplicity
 _atom_site_fract_x
 _atom_site_fract_y
 _atom_site_fract_z
 _atom_site_occupancy
  Mg  Mg0  1  0.75000000  0.75000000  0.75000000  1
  Ta  Ta0  1  0.25000000  0.25000000  0.25000000  1
  Ni  Ni0  1  0.00000000  0.00000000  0.00000000  1
  Ni  Ni1  1  0.61449900  0.61449900  0.15650400  1
  Ni  Ni2  1  0.61449900  0.15650400  0.61449900  1
  Ni  Ni3  1  0.15650400  0.61449900  0.61449900  1
  Ni  Ni4  1  0.61449900  0.61449900  0.61449900  1
  Ni  Ni5  1  0.38359440  0.38359440  0.84921781  1
  Ni  Ni6  1  0.38359440  0.84921781  0.38359440  1
  Ni  Ni7  1  0.84921781  0.38359440  0.38359440  1
  Ni  Ni8  1  0.38359440  0.38359440  0.38359440  1
  Ni  Ni9  1  0.00170692  0.00170692  0.33745395  1
  Ni  Ni10  1  0.65913121  0.00170692  0.33745395  1
  Ni  Ni11  1  0.00170692  0.65913121  0.33745395  1
  Ni  Ni12  1  0.65913121  0.33745395  0.00170692  1
  Ni  Ni13  1  0.00170692  0.33745395  0.00170692  1
  Ni  Ni14  1  0.00170692  0.33745395  0.65913121  1
  Ni  Ni15  1  0.33745395  0.65913121  0.00170692  1
  Ni  Ni16  1  0.33745395  0.00170692  0.65913121  1
  Ni  Ni17  1  0.33745395  0.00170692  0.00170692  1
  Ni  Ni18  1  0.00170692  0.00170692  0.65913121  1
  Ni  Ni19  1  0.00170692  0.65913121  0.00170692  1
  Ni  Ni20  1  0.65913121  0.00170692  0.00170692  1
  B  B0  1  0.72935595  0.72935595  0.27064405  1
  B  B1  1  0.27064405  0.72935595  0.27064405  1
  B  B2  1  0.72935595  0.27064405  0.27064405  1
  B  B3  1  0.27064405  0.27064405  0.72935595  1
  B  B4  1  0.72935595  0.27064405  0.72935595  1
  B  B5  1  0.27064405  0.72935595  0.72935595  1
loop_
_geom_bond_atom_site_label_1
_geom_bond_atom_site_label_2
_geom_bond_distance
_geom_bond_site_symmetry_2
Mg0 Ni4 2.447107 1_555
Mg0 Ni2 2.447113 1_565
Mg0 Ni3 2.447113 1_655
Mg0 Ni1 2.447113 1_556
Ni0 Ni13 2.500642 1_555
Ni0 Ni17 2.500643 1_555
Ni0 Ni9 2.500643 1_555
Ni0 Ni11 2.500646 1_545
Ni0 Ni14 2.500646 1_554
Ni0 Ni15 2.500646 1_545
Ni0 Ni12 2.500646 1_455
Ni0 Ni10 2.500646 1_455
Ni0 Ni16 2.500646 1_554
Ni0 Ni19 2.500650 1_545
Ni0 Ni20 2.500650 1_455
Ni0 Ni18 2.500650 1_554
Ni5 Ta0 2.412669 1_556
Ni6 Ta0 2.412668 1_565
Ni7 Ta0 2.412669 1_655
Ni8 Ta0 2.412674 1_555
B0 Ni10 2.058441 1_565
B0 Ni11 2.058441 1_655
B0 Ni20 2.058445 1_565
B0 Ni19 2.058446 1_655
B0 Ni1 2.069968 1_555
B0 Ni4 2.069975 1_555
B0 Ni7 2.081658 1_555
B0 Ni6 2.081658 1_555
B1 Ni17 2.058444 1_565
B1 Ni9 2.058444 1_565
B1 Ni11 2.058448 1_555
B1 Ni15 2.058448 1_555
B1 Ni1 2.069975 1_555
B1 Ni3 2.069975 1_555
B1 Ni8 2.081657 1_555
B1 Ni6 2.081664 1_555
B2 Ni9 2.058444 1_655
B2 Ni13 2.058444 1_655
B2 Ni10 2.058448 1_555
B2 Ni12 2.058448 1_555
B2 Ni1 2.069974 1_555
B2 Ni2 2.069975 1_555
B2 Ni8 2.081658 1_555
B2 Ni7 2.081664 1_555
B3 Ni17 2.058444 1_556
B3 Ni13 2.058444 1_556
B3 Ni16 2.058448 1_555
B3 Ni14 2.058448 1_555
B3 Ni3 2.069974 1_555
B3 Ni2 2.069975 1_555
B3 Ni8 2.081658 1_555
B3 Ni5 2.081664 1_555
B4 Ni14 2.058441 1_655
B4 Ni12 2.058441 1_556
B4 Ni20 2.058445 1_556
B4 Ni18 2.058445 1_655
B4 Ni2 2.069968 1_555
B4 Ni4 2.069974 1_555
B4 Ni5 2.081658 1_555
B4 Ni7 2.081658 1_555
B5 Ni16 2.058441 1_565
B5 Ni15 2.058441 1_556
B5 Ni18 2.058445 1_565
B5 Ni19 2.058446 1_556
B5 Ni3 2.069968 1_555
B5 Ni4 2.069975 1_555
B5 Ni5 2.081658 1_555
B5 Ni6 2.081658 1_555
