# generated using pymatgen
data_Li3SiSnPt3
_symmetry_space_group_name_H-M   'P 1'
_cell_length_a   6.86424682
_cell_length_b   6.86424700
_cell_length_c   6.86424638
_cell_angle_alpha   61.71413806
_cell_angle_beta   61.71413981
_cell_angle_gamma   61.71414139
_symmetry_Int_Tables_number   1
_chemical_formula_structural   Li3SiSnPt3
_chemical_formula_sum   'Li6 Si2 Sn2 Pt6'
_cell_volume   237.48526554
_cell_formula_units_Z   2
loop_
 _symmetry_equiv_pos_site_id
 _symmetry_equiv_pos_as_xyz
  1  'x, y, z'
loop_
 _atom_site_type_symbol
 _atom_site_label
 _atom_site_symmetry_multiplicity
 _atom_site_fract_x
 _atom_site_fract_y
 _atom_site_fract_z
 _atom_site_occupancy
  Li  Li0  1  0.56489255  0.82737683  0.34197383  1
  Li  Li1  1  0.34197383  0.56489255  0.82737683  1
  Li  Li2  1  0.82737683  0.34197383  0.56489255  1
  Li  Li3  1  0.65802617  0.17262317  0.43510745  1
  Li  Li4  1  0.17262317  0.43510745  0.65802617  1
  Li  Li5  1  0.43510745  0.65802617  0.17262317  1
  Si  Si0  1  0.89866705  0.89866705  0.89866705  1
  Si  Si1  1  0.10133295  0.10133295  0.10133295  1
  Sn  Sn0  1  0.28197701  0.28197701  0.28197701  1
  Sn  Sn1  1  0.71802299  0.71802299  0.71802299  1
  Pt  Pt0  1  0.89331272  0.50000000  0.10668728  1
  Pt  Pt1  1  0.10668728  0.89331272  0.50000000  1
  Pt  Pt2  1  0.50000000  0.10668728  0.89331272  1
  Pt  Pt3  1  0.25648201  1.00000000  0.74351799  1
  Pt  Pt4  1  0.74351799  0.25648201  0.00000000  1
  Pt  Pt5  1  0.00000000  0.74351799  0.25648201  1
loop_
_geom_bond_atom_site_label_1
_geom_bond_atom_site_label_2
_geom_bond_distance
_geom_bond_site_symmetry_2
Li0 Pt5 2.574039 1_655
Li0 Pt1 2.675200 1_555
Li0 Sn0 2.734070 1_565
Li0 Si0 2.791445 1_554
Li0 Pt0 2.815714 1_555
Li0 Pt2 2.872919 1_564
Li0 Sn1 2.884223 1_555
Li0 Pt3 2.944607 1_555
Li1 Pt3 2.574039 1_555
Li1 Pt2 2.675200 1_555
Li1 Sn0 2.734069 1_556
Li1 Si0 2.791445 1_455
Li1 Pt1 2.815714 1_555
Li1 Pt0 2.872919 1_456
Li1 Sn1 2.884223 1_555
Li1 Pt4 2.944607 1_556
Li2 Pt4 2.574039 1_556
Li2 Pt0 2.675200 1_555
Li2 Sn0 2.734070 1_655
Li2 Si0 2.791445 1_545
Li2 Pt2 2.815714 1_555
Li2 Pt1 2.872919 1_645
Li2 Sn1 2.884223 1_555
Li2 Pt5 2.944607 1_655
Li3 Pt4 2.574039 1_555
Li3 Pt2 2.675200 1_555
Li3 Sn1 2.734070 1_545
Li3 Si1 2.791445 1_655
Li3 Pt0 2.815714 1_555
Li3 Pt1 2.872919 1_645
Li3 Sn0 2.884223 1_555
Li3 Pt3 2.944607 1_545
Li4 Pt3 2.574039 1_545
Li4 Pt1 2.675200 1_555
Li4 Sn1 2.734070 1_455
Li4 Si1 2.791445 1_556
Li4 Pt2 2.815714 1_555
Li4 Pt0 2.872919 1_456
Li4 Sn0 2.884223 1_555
Li4 Pt5 2.944607 1_555
Li5 Pt5 2.574039 1_555
Li5 Pt0 2.675200 1_555
Li5 Sn1 2.734069 1_554
Li5 Si1 2.791445 1_565
Li5 Pt1 2.815714 1_555
Li5 Pt2 2.872919 1_564
Li5 Sn0 2.884223 1_555
Li5 Pt4 2.944607 1_555
Si0 Sn1 2.997388 1_555
Si1 Sn0 2.997388 1_555
Pt0 Si0 2.423059 1_554
Pt0 Si1 2.423059 1_655
Pt0 Pt5 2.808993 1_655
Pt0 Pt4 2.808993 1_555
Pt0 Sn1 2.890813 1_554
Pt0 Sn0 2.890814 1_655
Pt1 Si1 2.423059 1_565
Pt1 Si0 2.423059 1_455
Pt1 Pt3 2.808993 1_555
Pt1 Pt5 2.808993 1_555
Pt1 Sn1 2.890814 1_455
Pt1 Sn0 2.890814 1_565
Pt2 Si1 2.423059 1_556
Pt2 Si0 2.423059 1_545
Pt2 Pt3 2.808993 1_545
Pt2 Pt4 2.808993 1_556
Pt2 Sn0 2.890813 1_556
Pt2 Sn1 2.890814 1_545
Pt3 Si1 2.467514 1_566
Pt3 Si0 2.467514 1_455
Pt3 Sn0 2.792487 1_565
Pt3 Sn1 2.792488 1_555
Pt4 Si1 2.467514 1_655
Pt4 Si0 2.467514 1_544
Pt4 Sn0 2.792487 1_555
Pt4 Sn1 2.792487 1_554
Pt5 Si0 2.467514 1_454
Pt5 Si1 2.467514 1_565
Pt5 Sn1 2.792487 1_455
Pt5 Sn0 2.792488 1_555
