# generated using pymatgen
data_K3Zn2H9Ru
_symmetry_space_group_name_H-M   'P 1'
_cell_length_a   7.51853323
_cell_length_b   7.51853333
_cell_length_c   7.51853286
_cell_angle_alpha   43.91971184
_cell_angle_beta   43.91971978
_cell_angle_gamma   43.91971782
_symmetry_Int_Tables_number   1
_chemical_formula_structural   K3Zn2H9Ru
_chemical_formula_sum   'K3 Zn2 H9 Ru1'
_cell_volume   185.70474413
_cell_formula_units_Z   1
loop_
 _symmetry_equiv_pos_site_id
 _symmetry_equiv_pos_as_xyz
  1  'x, y, z'
loop_
 _atom_site_type_symbol
 _atom_site_label
 _atom_site_symmetry_multiplicity
 _atom_site_fract_x
 _atom_site_fract_y
 _atom_site_fract_z
 _atom_site_occupancy
  K  K0  1  0.00000000  0.00000000  0.00000000  1
  K  K1  1  0.78443094  0.78443094  0.78443094  1
  K  K2  1  0.21556906  0.21556906  0.21556906  1
  Zn  Zn0  1  0.62087949  0.62087949  0.62087949  1
  Zn  Zn1  1  0.37912051  0.37912051  0.37912051  1
  H  H0  1  0.00000000  0.50000000  0.50000000  1
  H  H1  1  0.50000000  0.00000000  0.50000000  1
  H  H2  1  0.50000000  0.50000000  0.00000000  1
  H  H3  1  0.74098483  0.30702497  0.30702497  1
  H  H4  1  0.30702497  0.74098483  0.30702497  1
  H  H5  1  0.30702497  0.30702497  0.74098483  1
  H  H6  1  0.69297503  0.69297503  0.25901517  1
  H  H7  1  0.69297503  0.25901517  0.69297503  1
  H  H8  1  0.25901517  0.69297503  0.69297503  1
  Ru  Ru0  1  0.50000000  0.50000000  0.50000000  1
loop_
_geom_bond_atom_site_label_1
_geom_bond_atom_site_label_2
_geom_bond_distance
_geom_bond_site_symmetry_2
H0 Zn1 1.871566 1_555
H0 Zn0 1.871566 1_455
H0 K0 2.811607 1_556
H0 K0 2.811607 1_565
H0 K1 2.893976 1_455
H0 K2 2.893976 1_555
H1 Zn1 1.871566 1_555
H1 Zn0 1.871566 1_545
H1 K0 2.811608 1_655
H1 K0 2.811608 1_556
H1 K1 2.893976 1_545
H1 K2 2.893976 1_555
H2 Zn1 1.871566 1_555
H2 Zn0 1.871566 1_554
H2 K0 2.811608 1_565
H2 K0 2.811608 1_655
H2 K1 2.893976 1_554
H2 K2 2.893976 1_555
H3 Ru0 1.717957 1_555
H3 Zn1 2.040572 1_555
H3 K2 2.699895 1_655
H3 K1 2.819795 1_545
H3 K1 2.819795 1_554
H3 K0 3.028842 1_655
H4 Ru0 1.717957 1_555
H4 Zn1 2.040572 1_555
H4 K2 2.699895 1_565
H4 K1 2.819795 1_554
H4 K1 2.819795 1_455
H4 K0 3.028842 1_565
H5 Ru0 1.717957 1_555
H5 Zn1 2.040572 1_555
H5 K2 2.699894 1_556
H5 K1 2.819795 1_545
H5 K1 2.819795 1_455
H5 K0 3.028842 1_556
H6 Ru0 1.717957 1_555
H6 Zn0 2.040572 1_555
H6 K1 2.699894 1_554
H6 K2 2.819795 1_565
H6 K2 2.819795 1_655
H6 K0 3.028842 1_665
H7 Ru0 1.717957 1_555
H7 Zn0 2.040572 1_555
H7 K1 2.699895 1_545
H7 K2 2.819795 1_556
H7 K2 2.819795 1_655
H7 K0 3.028842 1_656
H8 Ru0 1.717957 1_555
H8 Zn0 2.040572 1_555
H8 K1 2.699895 1_455
H8 K2 2.819795 1_565
H8 K2 2.819795 1_556
H8 K0 3.028842 1_566
