# generated using pymatgen
data_Lu6Sc8Al8Os7
_symmetry_space_group_name_H-M   'P 1'
_cell_length_a   9.18230597
_cell_length_b   9.18230582
_cell_length_c   9.18230645
_cell_angle_alpha   60.00000130
_cell_angle_beta   60.00000181
_cell_angle_gamma   59.99999864
_symmetry_Int_Tables_number   1
_chemical_formula_structural   Lu6Sc8Al8Os7
_chemical_formula_sum   'Lu6 Sc8 Al8 Os7'
_cell_volume   547.44476094
_cell_formula_units_Z   1
loop_
 _symmetry_equiv_pos_site_id
 _symmetry_equiv_pos_as_xyz
  1  'x, y, z'
loop_
 _atom_site_type_symbol
 _atom_site_label
 _atom_site_symmetry_multiplicity
 _atom_site_fract_x
 _atom_site_fract_y
 _atom_site_fract_z
 _atom_site_occupancy
  Lu  Lu0  1  0.69610838  0.69610838  0.30389162  1
  Lu  Lu1  1  0.30389162  0.69610838  0.30389162  1
  Lu  Lu2  1  0.69610838  0.30389162  0.30389162  1
  Lu  Lu3  1  0.30389162  0.30389162  0.69610838  1
  Lu  Lu4  1  0.69610838  0.30389162  0.69610838  1
  Lu  Lu5  1  0.30389162  0.69610838  0.69610838  1
  Sc  Sc0  1  0.87726182  0.87726182  0.36821354  1
  Sc  Sc1  1  0.87726182  0.36821354  0.87726182  1
  Sc  Sc2  1  0.36821354  0.87726182  0.87726182  1
  Sc  Sc3  1  0.87726182  0.87726182  0.87726182  1
  Sc  Sc4  1  0.12273818  0.12273818  0.63178646  1
  Sc  Sc5  1  0.12273818  0.63178646  0.12273818  1
  Sc  Sc6  1  0.63178646  0.12273818  0.12273818  1
  Sc  Sc7  1  0.12273818  0.12273818  0.12273818  1
  Al  Al0  1  0.66856317  0.66856317  0.99431349  1
  Al  Al1  1  0.66856317  0.99431349  0.66856317  1
  Al  Al2  1  0.99431349  0.66856317  0.66856317  1
  Al  Al3  1  0.66856317  0.66856317  0.66856317  1
  Al  Al4  1  0.33143683  0.33143683  0.00568651  1
  Al  Al5  1  0.33143683  0.00568651  0.33143683  1
  Al  Al6  1  0.00568651  0.33143683  0.33143683  1
  Al  Al7  1  0.33143683  0.33143683  0.33143683  1
  Os  Os0  1  0.00000000  0.00000000  0.00000000  1
  Os  Os1  1  0.00000000  0.00000000  0.50000000  1
  Os  Os2  1  0.50000000  0.00000000  0.50000000  1
  Os  Os3  1  0.00000000  0.50000000  0.50000000  1
  Os  Os4  1  0.50000000  0.50000000  0.00000000  1
  Os  Os5  1  0.00000000  0.50000000  0.00000000  1
  Os  Os6  1  0.50000000  0.00000000  0.00000000  1
loop_
_geom_bond_atom_site_label_1
_geom_bond_atom_site_label_2
_geom_bond_distance
_geom_bond_site_symmetry_2
Lu0 Sc0 3.257989 1_555
Lu0 Sc3 3.257996 1_554
Lu0 Sc6 3.257997 1_565
Lu0 Sc5 3.257997 1_655
Lu0 Os2 3.321008 1_565
Lu0 Os3 3.321008 1_655
Lu0 Os6 3.321008 1_565
Lu0 Os5 3.321008 1_655
Lu1 Sc5 3.257989 1_555
Lu1 Sc7 3.257995 1_565
Lu1 Sc0 3.257997 1_455
Lu1 Sc2 3.257997 1_554
Lu1 Os1 3.321008 1_565
Lu1 Os3 3.321008 1_555
Lu1 Os4 3.321008 1_555
Lu1 Os6 3.321008 1_565
Lu2 Sc6 3.257989 1_555
Lu2 Sc7 3.257995 1_655
Lu2 Sc0 3.257997 1_545
Lu2 Sc1 3.257997 1_554
Lu2 Os1 3.321008 1_655
Lu2 Os2 3.321008 1_555
Lu2 Os4 3.321008 1_555
Lu2 Os5 3.321008 1_655
Lu3 Sc4 3.257989 1_555
Lu3 Sc7 3.257996 1_556
Lu3 Sc2 3.257997 1_545
Lu3 Sc1 3.257997 1_455
Lu3 Os2 3.321008 1_555
Lu3 Os3 3.321008 1_555
Lu3 Os6 3.321008 1_556
Lu3 Os5 3.321008 1_556
Lu4 Sc1 3.257989 1_555
Lu4 Sc3 3.257995 1_545
Lu4 Sc4 3.257997 1_655
Lu4 Sc6 3.257997 1_556
Lu4 Os1 3.321008 1_655
Lu4 Os3 3.321008 1_655
Lu4 Os4 3.321008 1_556
Lu4 Os6 3.321008 1_556
Lu5 Sc2 3.257989 1_555
Lu5 Sc3 3.257995 1_455
Lu5 Sc4 3.257997 1_565
Lu5 Sc5 3.257997 1_556
Lu5 Os1 3.321008 1_565
Lu5 Os2 3.321008 1_565
Lu5 Os4 3.321008 1_556
Lu5 Os5 3.321008 1_556
Al0 Os6 2.651038 1_566
Al0 Os5 2.651038 1_656
Al0 Os4 2.651062 1_556
Al0 Sc3 2.837755 1_555
Al0 Sc1 2.837785 1_555
Al0 Sc2 2.837785 1_555
Al0 Lu0 3.116167 1_556
Al0 Lu2 3.116183 1_556
Al0 Lu1 3.116183 1_556
Al1 Os1 2.651038 1_665
Al1 Os6 2.651038 1_566
Al1 Os2 2.651062 1_565
Al1 Sc3 2.837755 1_555
Al1 Sc2 2.837785 1_555
Al1 Sc0 2.837785 1_555
Al1 Lu4 3.116167 1_565
Al1 Lu3 3.116183 1_565
Al1 Lu2 3.116183 1_565
Al2 Os1 2.651038 1_665
Al2 Os5 2.651038 1_656
Al2 Os3 2.651062 1_655
Al2 Sc3 2.837755 1_555
Al2 Sc1 2.837785 1_555
Al2 Sc0 2.837785 1_555
Al2 Lu5 3.116167 1_655
Al2 Lu3 3.116183 1_655
Al2 Lu1 3.116183 1_655
Al3 Os2 2.651047 1_565
Al3 Os3 2.651047 1_655
Al3 Os4 2.651047 1_556
Al3 Sc1 2.837766 1_555
Al3 Sc2 2.837766 1_555
Al3 Sc0 2.837766 1_555
Al3 Lu4 3.116194 1_555
Al3 Lu5 3.116194 1_555
Al3 Lu0 3.116195 1_555
Al4 Os6 2.651038 1_555
Al4 Os5 2.651038 1_555
Al4 Os4 2.651062 1_555
Al4 Sc7 2.837755 1_555
Al4 Sc5 2.837785 1_555
Al4 Sc6 2.837785 1_555
Al4 Lu3 3.116167 1_554
Al4 Lu5 3.116183 1_554
Al4 Lu4 3.116183 1_554
Al5 Os1 2.651038 1_555
Al5 Os6 2.651038 1_555
Al5 Os2 2.651062 1_555
Al5 Sc7 2.837755 1_555
Al5 Sc6 2.837785 1_555
Al5 Sc4 2.837785 1_555
Al5 Lu1 3.116167 1_545
Al5 Lu0 3.116183 1_545
Al5 Lu5 3.116183 1_545
Al6 Os1 2.651038 1_555
Al6 Os5 2.651038 1_555
Al6 Os3 2.651062 1_555
Al6 Sc7 2.837755 1_555
Al6 Sc5 2.837785 1_555
Al6 Sc4 2.837785 1_555
Al6 Lu2 3.116167 1_455
Al6 Lu0 3.116183 1_455
Al6 Lu4 3.116183 1_455
Al7 Os2 2.651047 1_555
Al7 Os3 2.651047 1_555
Al7 Os4 2.651047 1_555
Al7 Sc5 2.837766 1_555
Al7 Sc6 2.837766 1_555
Al7 Sc4 2.837766 1_555
Al7 Lu1 3.116194 1_555
Al7 Lu2 3.116194 1_555
Al7 Lu3 3.116195 1_555
Os0 Sc1 2.760615 1_454
Os0 Sc5 2.760615 1_545
Os0 Sc2 2.760615 1_544
Os0 Sc6 2.760615 1_455
Os0 Sc0 2.760616 1_445
Os0 Sc4 2.760616 1_554
Os0 Sc7 2.760623 1_555
Os0 Sc3 2.760623 1_444
Os1 Sc3 2.828860 1_445
Os1 Sc7 2.828860 1_555
Os1 Sc4 2.828867 1_555
Os1 Sc0 2.828867 1_445
Os2 Sc0 2.828860 1_545
Os2 Sc4 2.828860 1_555
Os2 Sc2 2.828860 1_545
Os2 Sc6 2.828860 1_555
Os3 Sc0 2.828860 1_455
Os3 Sc4 2.828860 1_555
Os3 Sc1 2.828860 1_455
Os3 Sc5 2.828860 1_555
Os4 Sc2 2.828860 1_554
Os4 Sc6 2.828860 1_555
Os4 Sc1 2.828860 1_554
Os4 Sc5 2.828860 1_555
Os5 Sc3 2.828860 1_454
Os5 Sc7 2.828860 1_555
Os5 Sc5 2.828867 1_555
Os5 Sc1 2.828867 1_454
Os6 Sc3 2.828860 1_544
Os6 Sc7 2.828860 1_555
Os6 Sc6 2.828867 1_555
Os6 Sc2 2.828867 1_544
