# generated using pymatgen
data_Zr6Al12V4Os7
_symmetry_space_group_name_H-M   'P 1'
_cell_length_a   8.68414237
_cell_length_b   8.68414328
_cell_length_c   8.68414257
_cell_angle_alpha   59.99999897
_cell_angle_beta   59.99999550
_cell_angle_gamma   60.00000480
_symmetry_Int_Tables_number   1
_chemical_formula_structural   Zr6Al12V4Os7
_chemical_formula_sum   'Zr6 Al12 V4 Os7'
_cell_volume   463.09048699
_cell_formula_units_Z   1
loop_
 _symmetry_equiv_pos_site_id
 _symmetry_equiv_pos_as_xyz
  1  'x, y, z'
loop_
 _atom_site_type_symbol
 _atom_site_label
 _atom_site_symmetry_multiplicity
 _atom_site_fract_x
 _atom_site_fract_y
 _atom_site_fract_z
 _atom_site_occupancy
  Zr  Zr0  1  0.70533785  0.70533785  0.29466215  1
  Zr  Zr1  1  0.29466215  0.70533785  0.29466215  1
  Zr  Zr2  1  0.70533785  0.29466215  0.29466215  1
  Zr  Zr3  1  0.29466215  0.29466215  0.70533785  1
  Zr  Zr4  1  0.70533785  0.29466215  0.70533785  1
  Zr  Zr5  1  0.29466215  0.70533785  0.70533785  1
  Al  Al0  1  0.12012751  0.12012751  0.63961848  1
  Al  Al1  1  0.12012751  0.63961848  0.12012751  1
  Al  Al2  1  0.63961848  0.12012751  0.12012751  1
  Al  Al3  1  0.12012751  0.12012751  0.12012751  1
  Al  Al4  1  0.66414012  0.66414012  0.00757964  1
  Al  Al5  1  0.66414012  0.00757964  0.66414012  1
  Al  Al6  1  0.00757964  0.66414012  0.66414012  1
  Al  Al7  1  0.66414012  0.66414012  0.66414012  1
  Al  Al8  1  0.33378670  0.33378670  0.99864089  1
  Al  Al9  1  0.33378670  0.99864089  0.33378670  1
  Al  Al10  1  0.99864089  0.33378670  0.33378670  1
  Al  Al11  1  0.33378670  0.33378670  0.33378670  1
  V  V0  1  0.87971066  0.87971066  0.36086802  1
  V  V1  1  0.87971066  0.36086802  0.87971066  1
  V  V2  1  0.36086802  0.87971066  0.87971066  1
  V  V3  1  0.87971066  0.87971066  0.87971066  1
  Os  Os0  1  0.00000000  0.00000000  0.00000000  1
  Os  Os1  1  0.99697067  0.99697067  0.50302933  1
  Os  Os2  1  0.50302933  0.99697067  0.50302933  1
  Os  Os3  1  0.99697067  0.50302933  0.50302933  1
  Os  Os4  1  0.50302933  0.50302933  0.99697067  1
  Os  Os5  1  0.99697067  0.50302933  0.99697067  1
  Os  Os6  1  0.50302933  0.99697067  0.99697067  1
loop_
_geom_bond_atom_site_label_1
_geom_bond_atom_site_label_2
_geom_bond_distance
_geom_bond_site_symmetry_2
Al0 Os0 2.555311 1_556
Al0 Os2 2.715828 1_545
Al0 Os3 2.715829 1_455
Al0 Os1 2.715836 1_445
Al0 Al11 2.743368 1_555
Al0 Al9 2.743368 1_545
Al0 Al10 2.743369 1_455
Al0 V2 2.952610 1_545
Al0 V1 2.952610 1_455
Al0 V3 2.952616 1_445
Al0 Zr3 2.991264 1_555
Al0 Zr4 2.991271 1_455
Al0 Zr5 2.991272 1_545
Al1 Os0 2.555312 1_565
Al1 Os3 2.715828 1_455
Al1 Os4 2.715828 1_554
Al1 Os5 2.715836 1_454
Al1 Al10 2.743368 1_455
Al1 Al11 2.743369 1_555
Al1 Al8 2.743369 1_554
Al1 V2 2.952610 1_554
Al1 V0 2.952610 1_455
Al1 V3 2.952617 1_454
Al1 Zr1 2.991264 1_555
Al1 Zr5 2.991271 1_554
Al1 Zr0 2.991271 1_455
Al2 Os0 2.555311 1_655
Al2 Os2 2.715828 1_545
Al2 Os4 2.715829 1_554
Al2 Os6 2.715836 1_544
Al2 Al9 2.743368 1_545
Al2 Al8 2.743369 1_554
Al2 V1 2.952610 1_554
Al2 V0 2.952610 1_545
Al2 V3 2.952617 1_544
Al2 Zr2 2.991264 1_555
Al2 Zr4 2.991271 1_554
Al2 Zr0 2.991272 1_545
Al3 Os0 2.555319 1_555
Al3 Os1 2.715828 1_445
Al3 Os6 2.715828 1_544
Al3 Os5 2.715829 1_454
Al3 Al8 2.743368 1_554
Al3 Al9 2.743369 1_545
Al3 V0 2.952616 1_445
Al3 V2 2.952617 1_544
Al3 V1 2.952617 1_454
Al3 Zr3 2.991270 1_554
Al3 Zr2 2.991270 1_455
Al3 Zr1 2.991270 1_545
Al4 Os4 2.477661 1_554
Al4 Os5 2.477661 1_554
Al4 Os6 2.477662 1_554
Al4 Zr1 2.895382 1_555
Al4 Zr0 2.895383 1_555
Al4 Zr2 2.895383 1_555
Al5 Os1 2.477661 1_545
Al5 Os6 2.477661 1_545
Al5 Os2 2.477661 1_545
Al5 Zr2 2.895382 1_555
Al5 Zr4 2.895383 1_555
Al5 Zr3 2.895383 1_555
Al6 Os5 2.477661 1_455
Al6 Os3 2.477661 1_455
Al6 Os1 2.477662 1_455
Al6 Zr1 2.895382 1_555
Al6 Zr5 2.895382 1_555
Al6 Zr3 2.895383 1_555
Al7 Os4 2.477661 1_555
Al7 Os3 2.477661 1_555
Al7 Os2 2.477662 1_555
Al7 Zr5 2.895382 1_555
Al7 Zr0 2.895382 1_555
Al7 Zr4 2.895383 1_555
Al8 Os4 2.537296 1_555
Al8 Os5 2.537303 1_455
Al8 Os6 2.537303 1_545
Al8 Zr4 2.926558 1_555
Al8 Zr5 2.926558 1_555
Al8 Zr3 2.926563 1_555
Al9 Os2 2.537296 1_555
Al9 Os1 2.537303 1_455
Al9 Os6 2.537303 1_554
Al9 Zr5 2.926558 1_555
Al9 Zr0 2.926558 1_555
Al9 Zr1 2.926564 1_555
Al10 Os3 2.537296 1_555
Al10 Os5 2.537303 1_554
Al10 Os1 2.537303 1_545
Al10 Al3 2.743369 1_655
Al10 Zr4 2.926558 1_555
Al10 Zr0 2.926558 1_555
Al10 Zr2 2.926563 1_555
Al11 Os4 2.537300 1_554
Al11 Os3 2.537301 1_455
Al11 Os2 2.537301 1_545
Al11 Al2 2.743369 1_555
Al11 Zr2 2.926555 1_555
Al11 Zr3 2.926555 1_555
Al11 Zr1 2.926555 1_555
V0 Zr1 2.991808 1_655
V0 Zr0 2.991808 1_555
V0 Zr2 2.991809 1_565
V1 Zr2 2.991808 1_556
V1 Zr3 2.991808 1_655
V1 Zr4 2.991808 1_555
V2 Zr1 2.991808 1_556
V2 Zr5 2.991808 1_555
V2 Zr3 2.991809 1_565
V3 Zr0 2.991808 1_556
V3 Zr5 2.991808 1_655
V3 Zr4 2.991809 1_565
Os0 V0 2.558761 1_445
Os0 V2 2.558761 1_544
Os0 V3 2.558761 1_444
Os0 V1 2.558761 1_454
Os1 V3 2.673803 1_555
Os1 V0 2.673803 1_555
Os1 Zr1 3.119140 1_655
Os1 Zr5 3.119140 1_655
Os1 Zr2 3.119140 1_565
Os1 Zr4 3.119140 1_565
Os2 V2 2.673803 1_555
Os2 V0 2.673803 1_555
Os2 Zr5 3.119140 1_555
Os2 Zr2 3.119140 1_565
Os2 Zr0 3.119140 1_555
Os2 Zr3 3.119140 1_565
Os3 V1 2.673803 1_555
Os3 V0 2.673803 1_555
Os3 Zr1 3.119140 1_655
Os3 Zr4 3.119140 1_555
Os3 Zr0 3.119140 1_555
Os3 Zr3 3.119140 1_655
Os4 V1 2.673803 1_555
Os4 V2 2.673803 1_555
Os4 Zr1 3.119140 1_556
Os4 Zr5 3.119140 1_555
Os4 Zr2 3.119140 1_556
Os4 Zr4 3.119140 1_555
Os5 V1 2.673803 1_555
Os5 V3 2.673803 1_555
Os5 Zr5 3.119140 1_655
Os5 Zr2 3.119140 1_556
Os5 Zr0 3.119140 1_556
Os5 Zr3 3.119140 1_655
Os6 V3 2.673803 1_555
Os6 V2 2.673803 1_555
Os6 Zr1 3.119140 1_556
Os6 Zr4 3.119140 1_565
Os6 Zr0 3.119140 1_556
Os6 Zr3 3.119140 1_565
