# generated using pymatgen
data_Ca4CuSi6Ni
_symmetry_space_group_name_H-M   'P 1'
_cell_length_a   8.17622487
_cell_length_b   8.00045636
_cell_length_c   5.90076475
_cell_angle_alpha   70.20460146
_cell_angle_beta   67.02582853
_cell_angle_gamma   42.76956299
_symmetry_Int_Tables_number   1
_chemical_formula_structural   Ca4CuSi6Ni
_chemical_formula_sum   'Ca4 Cu1 Si6 Ni1'
_cell_volume   240.47635344
_cell_formula_units_Z   1
loop_
 _symmetry_equiv_pos_site_id
 _symmetry_equiv_pos_as_xyz
  1  'x, y, z'
loop_
 _atom_site_type_symbol
 _atom_site_label
 _atom_site_symmetry_multiplicity
 _atom_site_fract_x
 _atom_site_fract_y
 _atom_site_fract_z
 _atom_site_occupancy
  Ca  Ca0  1  0.74871102  0.74871102  0.75128898  1
  Ca  Ca1  1  0.75195809  0.25052817  0.74947183  1
  Ca  Ca2  1  0.24871102  0.24871102  0.25128898  1
  Ca  Ca3  1  0.25052817  0.75195809  0.24804191  1
  Cu  Cu0  1  0.33337585  0.33337585  0.66662415  1
  Si  Si0  1  0.82675420  0.34552305  0.17324580  1
  Si  Si1  1  0.66501449  0.16778714  0.33498551  1
  Si  Si2  1  0.16778714  0.66501449  0.83221286  1
  Si  Si3  1  0.34552305  0.82675420  0.65447695  1
  Si  Si4  1  0.16732941  0.16732941  0.83267059  1
  Si  Si5  1  0.82734778  0.82734778  0.17265222  1
  Ni  Ni0  1  0.66696078  0.66696078  0.33303922  1
loop_
_geom_bond_atom_site_label_1
_geom_bond_atom_site_label_2
_geom_bond_distance
_geom_bond_site_symmetry_2
Ca0 Si0 3.128898 1_556
Ca0 Si3 3.128898 1_555
Ca0 Si5 3.145237 1_555
Ca0 Si5 3.145237 1_556
Ca0 Si4 3.158620 1_655
Ca0 Si4 3.158620 1_565
Ca0 Ni0 3.160448 1_556
Ca0 Ni0 3.160448 1_555
Ca0 Cu0 3.175153 1_565
Ca0 Cu0 3.175153 1_655
Ca0 Si1 3.179484 1_565
Ca0 Si2 3.179485 1_655
Ca1 Si3 3.133948 1_555
Ca1 Si0 3.133948 1_555
Ca1 Si4 3.159004 1_655
Ca1 Ni0 3.163806 1_555
Ca1 Si1 3.173348 1_555
Ca1 Si2 3.173348 1_555
Ca1 Si2 3.178826 1_645
Ca1 Si1 3.178826 1_556
Ca1 Cu0 3.185499 1_555
Ca1 Si0 3.219926 1_556
Ca1 Si3 3.219927 1_645
Ca1 Si5 3.238713 1_546
Ca2 Si3 3.128898 1_545
Ca2 Si0 3.128898 1_455
Ca2 Si5 3.145237 1_455
Ca2 Si5 3.145237 1_545
Ca2 Si4 3.158620 1_555
Ca2 Si4 3.158620 1_554
Ca2 Ni0 3.160448 1_545
Ca2 Ni0 3.160448 1_455
Ca2 Cu0 3.175153 1_554
Ca2 Cu0 3.175153 1_555
Ca2 Si2 3.179484 1_554
Ca2 Si1 3.179485 1_555
Ca3 Si3 3.133948 1_555
Ca3 Si0 3.133949 1_555
Ca3 Si4 3.159004 1_564
Ca3 Ni0 3.163806 1_555
Ca3 Si1 3.173347 1_555
Ca3 Si2 3.173347 1_555
Ca3 Si2 3.178827 1_554
Ca3 Si1 3.178827 1_465
Ca3 Cu0 3.185499 1_555
Ca3 Si0 3.219926 1_465
Ca3 Si3 3.219926 1_554
Ca3 Si5 3.238713 1_455
Cu0 Si2 2.297123 1_555
Cu0 Si1 2.297123 1_555
Cu0 Si4 2.301273 1_555
Si0 Si1 2.353302 1_555
Si0 Si4 2.359838 1_654
Si1 Si5 2.358956 1_545
Si2 Si3 2.353302 1_555
Si2 Si5 2.358956 1_456
Si3 Si4 2.359837 1_565
Ni0 Si5 2.222838 1_555
Ni0 Si0 2.226480 1_555
Ni0 Si3 2.226480 1_555
