# generated using pymatgen
data_K3Sc(AsS2)6
_symmetry_space_group_name_H-M   'P 1'
_cell_length_a   9.38610736
_cell_length_b   9.38610820
_cell_length_c   7.69502960
_cell_angle_alpha   90.00000000
_cell_angle_beta   90.00000000
_cell_angle_gamma   119.99999958
_symmetry_Int_Tables_number   1
_chemical_formula_structural   K3Sc(AsS2)6
_chemical_formula_sum   'K3 Sc1 As6 S12'
_cell_volume   587.09989404
_cell_formula_units_Z   1
loop_
 _symmetry_equiv_pos_site_id
 _symmetry_equiv_pos_as_xyz
  1  'x, y, z'
loop_
 _atom_site_type_symbol
 _atom_site_label
 _atom_site_symmetry_multiplicity
 _atom_site_fract_x
 _atom_site_fract_y
 _atom_site_fract_z
 _atom_site_occupancy
  K  K0  1  0.00000000  0.00000000  0.00000000  1
  K  K1  1  0.33333300  0.66666700  0.85615338  1
  K  K2  1  0.66666700  0.33333300  0.14384662  1
  Sc  Sc0  1  0.00000000  0.00000000  0.50000000  1
  As  As0  1  0.28296643  0.83385792  0.38395204  1
  As  As1  1  0.16614208  0.44910852  0.38395204  1
  As  As2  1  0.55089148  0.71703357  0.38395204  1
  As  As3  1  0.71703357  0.16614208  0.61604796  1
  As  As4  1  0.83385792  0.55089148  0.61604796  1
  As  As5  1  0.44910852  0.28296643  0.61604796  1
  S  S0  1  0.24065810  0.03345967  0.29993454  1
  S  S1  1  0.96654033  0.20719943  0.29993454  1
  S  S2  1  0.79280057  0.75934190  0.29993454  1
  S  S3  1  0.75934190  0.96654033  0.70006546  1
  S  S4  1  0.03345967  0.79280057  0.70006546  1
  S  S5  1  0.20719943  0.24065810  0.70006546  1
  S  S6  1  0.51814865  0.90611478  0.22201100  1
  S  S7  1  0.09388522  0.61203287  0.22201100  1
  S  S8  1  0.38796713  0.48185135  0.22201100  1
  S  S9  1  0.48185135  0.09388522  0.77798900  1
  S  S10  1  0.90611478  0.38796713  0.77798900  1
  S  S11  1  0.61203287  0.51814865  0.77798900  1
loop_
_geom_bond_atom_site_label_1
_geom_bond_atom_site_label_2
_geom_bond_distance
_geom_bond_site_symmetry_2
K0 S0 3.133446 1_555
K0 S3 3.133446 1_444
K0 S5 3.133449 1_554
K0 S2 3.133449 1_445
K0 S1 3.133453 1_455
K0 S4 3.133453 1_544
K1 S7 3.476703 1_556
K1 S6 3.476706 1_556
K1 S8 3.476713 1_556
K1 S10 3.576955 1_455
K1 S11 3.576955 1_555
K1 S9 3.576955 1_565
K1 S4 3.754831 1_555
K1 S3 3.754844 1_555
K1 S5 3.754848 1_555
K2 S10 3.476703 1_554
K2 S9 3.476706 1_554
K2 S11 3.476713 1_554
K2 S7 3.576955 1_655
K2 S8 3.576955 1_555
K2 S6 3.576955 1_545
K2 S1 3.754831 1_555
K2 S0 3.754844 1_555
K2 S2 3.754848 1_555
As0 S0 2.197636 1_565
As0 S7 2.311375 1_555
As0 S6 2.321323 1_555
As1 S1 2.197630 1_455
As1 S8 2.311378 1_555
As1 S7 2.321315 1_555
As2 S2 2.197627 1_555
As2 S6 2.311371 1_555
As2 S8 2.321321 1_555
As3 S3 2.197636 1_545
As3 S10 2.311375 1_555
As3 S9 2.321323 1_555
As4 S4 2.197630 1_655
As4 S11 2.311378 1_555
As4 S10 2.321315 1_555
As5 S5 2.197627 1_555
As5 S9 2.311371 1_555
As5 S11 2.321321 1_555
S0 Sc0 2.619482 1_555
S1 Sc0 2.619490 1_655
S2 Sc0 2.619485 1_665
S3 Sc0 2.619482 1_665
S4 Sc0 2.619490 1_565
S5 Sc0 2.619485 1_555
