# generated using pymatgen
data_Ca4Y4InHg7
_symmetry_space_group_name_H-M   'P 1'
_cell_length_a   7.47681226
_cell_length_b   7.48234559
_cell_length_c   7.44334077
_cell_angle_alpha   89.99923918
_cell_angle_beta   89.99920893
_cell_angle_gamma   89.88040627
_symmetry_Int_Tables_number   1
_chemical_formula_structural   Ca4Y4InHg7
_chemical_formula_sum   'Ca4 Y4 In1 Hg7'
_cell_volume   416.41004291
_cell_formula_units_Z   1
loop_
 _symmetry_equiv_pos_site_id
 _symmetry_equiv_pos_as_xyz
  1  'x, y, z'
loop_
 _atom_site_type_symbol
 _atom_site_label
 _atom_site_symmetry_multiplicity
 _atom_site_fract_x
 _atom_site_fract_y
 _atom_site_fract_z
 _atom_site_occupancy
  Ca  Ca0  1  0.74810997  0.24866059  0.99875845  1
  Ca  Ca1  1  0.25077236  0.75124906  0.50121857  1
  Ca  Ca2  1  0.74925679  0.24876179  0.50130058  1
  Ca  Ca3  1  0.25190716  0.75133797  0.99864759  1
  Y  Y0  1  0.24977561  0.25063777  0.99973542  1
  Y  Y1  1  0.75021291  0.74937631  0.99971814  1
  Y  Y2  1  0.75129743  0.74920531  0.50020460  1
  Y  Y3  1  0.24869231  0.25081179  0.50019048  1
  In  In0  1  0.00003852  0.50005485  0.24897740  1
  Hg  Hg0  1  0.00014546  0.99994367  0.24901676  1
  Hg  Hg1  1  0.50010666  0.00005584  0.25105269  1
  Hg  Hg2  1  0.50011029  0.49993224  0.25095637  1
  Hg  Hg3  1  0.49989170  0.50003200  0.74905680  1
  Hg  Hg4  1  0.49989713  0.99996367  0.74897365  1
  Hg  Hg5  1  0.99990360  0.00005587  0.75095260  1
  Hg  Hg6  1  0.99988109  0.49992827  0.75124090  1
loop_
_geom_bond_atom_site_label_1
_geom_bond_atom_site_label_2
_geom_bond_distance
_geom_bond_site_symmetry_2
Ca0 Hg4 3.221523 1_545
Ca0 Hg5 3.223654 1_555
Ca0 Hg3 3.228275 1_555
Ca0 Hg1 3.230982 1_556
Ca0 Hg0 3.235668 1_646
Ca0 Hg2 3.237641 1_556
Ca0 Hg6 3.238385 1_555
Ca0 In0 3.251157 1_656
Ca1 Hg4 3.216855 1_555
Ca1 Hg3 3.223517 1_555
Ca1 Hg1 3.228423 1_565
Ca1 Hg5 3.228743 1_465
Ca1 Hg2 3.235248 1_555
Ca1 Hg0 3.237828 1_555
Ca1 Hg6 3.245443 1_455
Ca1 In0 3.253772 1_555
Ca2 Hg4 3.217829 1_545
Ca2 Hg3 3.224458 1_555
Ca2 Hg5 3.226996 1_555
Ca2 Hg1 3.227601 1_555
Ca2 Hg2 3.234142 1_555
Ca2 Hg0 3.239841 1_645
Ca2 Hg6 3.243325 1_555
Ca2 In0 3.254701 1_655
Ca3 Hg4 3.219718 1_555
Ca3 Hg5 3.224587 1_465
Ca3 Hg3 3.226513 1_555
Ca3 Hg1 3.232852 1_566
Ca3 Hg0 3.234475 1_556
Ca3 Hg2 3.239571 1_556
Ca3 Hg6 3.239703 1_455
Ca3 In0 3.250829 1_556
In0 Y0 3.224370 1_554
In0 Y1 3.224414 1_454
In0 Y3 3.227422 1_555
In0 Y2 3.227458 1_455
Hg0 Y0 3.234099 1_564
Hg0 Y1 3.234988 1_454
Hg0 Y3 3.238349 1_565
Hg0 Y2 3.239084 1_455
Hg1 Y2 3.236475 1_545
Hg1 Y3 3.236972 1_555
Hg1 Y1 3.240395 1_544
Hg1 Y0 3.240869 1_554
Hg2 Y2 3.234607 1_555
Hg2 Y3 3.234833 1_555
Hg2 Y1 3.239107 1_554
Hg2 Y0 3.239449 1_554
Hg3 Y3 3.232802 1_555
Hg3 Y2 3.233379 1_555
Hg3 Y0 3.236547 1_555
Hg3 Y1 3.237203 1_555
Hg4 Y3 3.234953 1_565
Hg4 Y2 3.235350 1_555
Hg4 Y0 3.237978 1_565
Hg4 Y1 3.238367 1_555
Hg5 Y1 3.232096 1_545
Hg5 Y0 3.232588 1_655
Hg5 Y2 3.236700 1_545
Hg5 Y3 3.237076 1_655
Hg6 Y1 3.220934 1_555
Hg6 Y0 3.221307 1_655
Hg6 Y2 3.226505 1_555
Hg6 Y3 3.226850 1_655
