# generated using pymatgen
data_SrAl2CuSi
_symmetry_space_group_name_H-M   'P 1'
_cell_length_a   6.20532630
_cell_length_b   6.20532633
_cell_length_c   6.20532600
_cell_angle_alpha   140.70108024
_cell_angle_beta   140.70108525
_cell_angle_gamma   56.79033399
_symmetry_Int_Tables_number   1
_chemical_formula_structural   SrAl2CuSi
_chemical_formula_sum   'Sr1 Al2 Cu1 Si1'
_cell_volume   95.07038706
_cell_formula_units_Z   1
loop_
 _symmetry_equiv_pos_site_id
 _symmetry_equiv_pos_as_xyz
  1  'x, y, z'
loop_
 _atom_site_type_symbol
 _atom_site_label
 _atom_site_symmetry_multiplicity
 _atom_site_fract_x
 _atom_site_fract_y
 _atom_site_fract_z
 _atom_site_occupancy
  Sr  Sr0  1  0.00359897  0.00359897  1.00000000  1
  Al  Al0  1  0.25505846  0.75505846  0.50000000  1
  Al  Al1  1  0.75505846  0.25505846  0.50000000  1
  Cu  Cu0  1  0.38124259  0.38124259  0.00000000  1
  Si  Si0  1  0.60504152  0.60504152  1.00000000  1
loop_
_geom_bond_atom_site_label_1
_geom_bond_atom_site_label_2
_geom_bond_distance
_geom_bond_site_symmetry_2
Al0 Cu0 2.500372 1_555
Al0 Cu0 2.500372 1_566
Al0 Si0 2.652632 1_555
Al0 Si0 2.652632 1_454
Al0 Sr0 3.422982 1_564
Al0 Sr0 3.422983 1_665
Al0 Sr0 3.448299 1_565
Al0 Sr0 3.448300 1_554
Al1 Cu0 2.500372 1_555
Al1 Cu0 2.500372 1_656
Al1 Si0 2.652632 1_555
Al1 Si0 2.652633 1_544
Al1 Sr0 3.422982 1_654
Al1 Sr0 3.422983 1_665
Al1 Sr0 3.448299 1_655
Al1 Sr0 3.448299 1_554
Cu0 Si0 2.443327 1_554
Cu0 Sr0 3.239212 1_553
Cu0 Sr0 3.239213 1_654
Cu0 Sr0 3.239213 1_564
Cu0 Sr0 3.239213 1_665
Si0 Sr0 3.151923 1_666
Si0 Sr0 3.151923 1_565
Si0 Sr0 3.151923 1_655
Si0 Sr0 3.151924 1_554
