# generated using pymatgen
data_Ce10Ga5Cl4
_symmetry_space_group_name_H-M   'P 1'
_cell_length_a   16.57767287
_cell_length_b   16.57767287
_cell_length_c   16.57767287
_cell_angle_alpha   152.84439716
_cell_angle_beta   152.84439716
_cell_angle_gamma   38.78146747
_symmetry_Int_Tables_number   1
_chemical_formula_structural   Ce10Ga5Cl4
_chemical_formula_sum   'Ce20 Ga10 Cl8'
_cell_volume   947.41065971
_cell_formula_units_Z   2
loop_
 _symmetry_equiv_pos_site_id
 _symmetry_equiv_pos_as_xyz
  1  'x, y, z'
loop_
 _atom_site_type_symbol
 _atom_site_label
 _atom_site_symmetry_multiplicity
 _atom_site_fract_x
 _atom_site_fract_y
 _atom_site_fract_z
 _atom_site_occupancy
  Ce  Ce0  1  0.15342400  0.15342400  0.00000000  1
  Ce  Ce1  1  0.34657600  0.34657600  0.00000000  1
  Ce  Ce2  1  0.65342400  0.65342400  0.00000000  1
  Ce  Ce3  1  0.84657600  0.84657600  0.00000000  1
  Ce  Ce4  1  0.46803900  0.96803900  0.84246700  1
  Ce  Ce5  1  0.53196100  0.03196100  0.15753300  1
  Ce  Ce6  1  0.87442800  0.37442800  0.84246700  1
  Ce  Ce7  1  0.37442800  0.53196100  0.50000000  1
  Ce  Ce8  1  0.03196100  0.87442800  0.50000000  1
  Ce  Ce9  1  0.96803900  0.12557200  0.50000000  1
  Ce  Ce10  1  0.62557200  0.46803900  0.50000000  1
  Ce  Ce11  1  0.12557200  0.62557200  0.15753300  1
  Ce  Ce12  1  0.60276500  0.10276500  0.84284900  1
  Ce  Ce13  1  0.39723500  0.89723500  0.15715100  1
  Ce  Ce14  1  0.74008500  0.24008500  0.84284900  1
  Ce  Ce15  1  0.24008500  0.39723500  0.50000000  1
  Ce  Ce16  1  0.89723500  0.74008500  0.50000000  1
  Ce  Ce17  1  0.10276500  0.25991500  0.50000000  1
  Ce  Ce18  1  0.75991500  0.60276500  0.50000000  1
  Ce  Ce19  1  0.25991500  0.75991500  0.15715100  1
  Ga  Ga0  1  0.25000000  0.25000000  0.00000000  1
  Ga  Ga1  1  0.75000000  0.75000000  0.00000000  1
  Ga  Ga2  1  0.48922500  0.74325200  0.50000000  1
  Ga  Ga3  1  0.75674800  0.01077500  0.50000000  1
  Ga  Ga4  1  0.51077500  0.25674800  0.50000000  1
  Ga  Ga5  1  0.25674800  0.75674800  0.74597300  1
  Ga  Ga6  1  0.01077500  0.51077500  0.25402700  1
  Ga  Ga7  1  0.74325200  0.24325200  0.25402700  1
  Ga  Ga8  1  0.98922500  0.48922500  0.74597300  1
  Ga  Ga9  1  0.24325200  0.98922500  0.50000000  1
  Cl  Cl0  1  0.86001400  0.36001400  0.22002800  1
  Cl  Cl1  1  0.36001400  0.13998600  0.50000000  1
  Cl  Cl2  1  0.63998600  0.86001400  0.50000000  1
  Cl  Cl3  1  0.13998600  0.63998600  0.77997200  1
  Cl  Cl4  1  0.44307400  0.44307400  0.00000000  1
  Cl  Cl5  1  0.05692600  0.05692600  0.00000000  1
  Cl  Cl6  1  0.55692600  0.55692600  0.00000000  1
  Cl  Cl7  1  0.94307400  0.94307400  0.00000000  1
loop_
_geom_bond_atom_site_label_1
_geom_bond_atom_site_label_2
_geom_bond_distance
_geom_bond_site_symmetry_2
Ce0 Cl5 3.017942 1_555
Ce0 Ga0 3.020381 1_555
Ce0 Ga5 3.147423 1_544
Ce0 Ga4 3.147423 1_555
Ce0 Ga3 3.147423 1_454
Ce0 Ga6 3.147423 1_555
Ce1 Cl4 3.017942 1_555
Ce1 Ga0 3.020381 1_555
Ce1 Ga7 3.147423 1_555
Ce1 Ga2 3.147423 1_555
Ce1 Ga8 3.147423 1_454
Ce1 Ga9 3.147423 1_544
Ce2 Cl6 3.017942 1_555
Ce2 Ga1 3.020381 1_555
Ce2 Ga5 3.147423 1_554
Ce2 Ga4 3.147423 1_554
Ce2 Ga3 3.147423 1_565
Ce2 Ga6 3.147423 1_655
Ce3 Cl7 3.017942 1_555
Ce3 Ga1 3.020381 1_555
Ce3 Ga2 3.147423 1_554
Ce3 Ga8 3.147423 1_554
Ce3 Ga9 3.147423 1_655
Ce3 Ga7 3.147423 1_565
Ce4 Ga7 3.137913 1_566
Ce4 Ga2 3.178224 1_555
Ce4 Ga9 3.178224 1_555
Ce4 Ga1 3.235409 1_556
Ce4 Ga0 3.235409 1_566
Ce5 Ga5 3.137913 1_544
Ce5 Ga3 3.178224 1_555
Ce5 Ga4 3.178224 1_555
Ce5 Ga1 3.235409 1_545
Ce5 Ga0 3.235409 1_555
Ce6 Ga6 3.137913 1_656
Ce6 Ga3 3.178224 1_555
Ce6 Ga4 3.178224 1_555
Ce6 Ga0 3.235409 1_656
Ce6 Ga1 3.235409 1_556
Ce7 Ga4 3.137913 1_555
Ce7 Ga5 3.178224 1_555
Ce7 Ga6 3.178224 1_555
Ce7 Ga1 3.235409 1_556
Ce7 Ga0 3.235409 1_555
Ce8 Ga3 3.137913 1_465
Ce8 Ga5 3.178224 1_555
Ce8 Ga6 3.178224 1_555
Ce8 Ga1 3.235409 1_455
Ce8 Ga0 3.235409 1_566
Ce9 Ga9 3.137913 1_645
Ce9 Ga8 3.178224 1_555
Ce9 Ga7 3.178224 1_555
Ce9 Ga0 3.235409 1_656
Ce9 Ga1 3.235409 1_545
Ce10 Ga2 3.137913 1_555
Ce10 Ga8 3.178224 1_555
Ce10 Ga7 3.178224 1_555
Ce10 Ga1 3.235409 1_556
Ce10 Ga0 3.235409 1_555
Ce11 Ga8 3.137913 1_454
Ce11 Ga2 3.178224 1_555
Ce11 Ga9 3.178224 1_555
Ce11 Ga1 3.235409 1_455
Ce11 Ga0 3.235409 1_555
Ce12 Cl4 2.907938 1_556
Ce12 Cl7 2.907938 1_546
Ce12 Cl0 2.986728 1_556
Ce12 Ga7 3.044186 1_556
Ce12 Ga9 3.088547 1_545
Ce12 Ga2 3.088547 1_545
Ce12 Cl2 3.247500 1_545
Ce12 Cl1 3.247500 1_555
Ce13 Cl5 2.907938 1_565
Ce13 Cl6 2.907938 1_555
Ce13 Cl3 2.986728 1_554
Ce13 Ga5 3.044186 1_554
Ce13 Ga3 3.088547 1_565
Ce13 Ga4 3.088547 1_565
Ce13 Cl1 3.247500 1_565
Ce13 Cl2 3.247500 1_555
Ce14 Cl5 2.907942 1_656
Ce14 Cl6 2.907942 1_556
Ce14 Cl0 2.986750 1_556
Ce14 Ga6 3.044165 1_656
Ce14 Ga4 3.088527 1_555
Ce14 Ga3 3.088527 1_555
Ce14 Cl1 3.247520 1_555
Ce14 Cl2 3.247520 1_545
Ce15 Cl5 2.907939 1_555
Ce15 Cl6 2.907939 1_556
Ce15 Cl1 2.986735 1_555
Ce15 Ga4 3.044171 1_555
Ce15 Ga5 3.088540 1_555
Ce15 Ga6 3.088540 1_555
Ce15 Cl0 3.247513 1_455
Ce15 Cl3 3.247513 1_555
Ce16 Cl5 2.907939 1_666
Ce16 Cl6 2.907939 1_555
Ce16 Cl2 2.986735 1_555
Ce16 Ga3 3.044171 1_565
Ce16 Ga5 3.088540 1_655
Ce16 Ga6 3.088540 1_655
Ce16 Cl0 3.247513 1_555
Ce16 Cl3 3.247513 1_655
Ce17 Cl4 2.907939 1_556
Ce17 Cl7 2.907939 1_445
Ce17 Cl1 2.986735 1_555
Ce17 Ga9 3.044171 1_545
Ce17 Ga7 3.088540 1_455
Ce17 Ga8 3.088540 1_455
Ce17 Cl3 3.247513 1_555
Ce17 Cl0 3.247513 1_455
Ce18 Cl4 2.907939 1_555
Ce18 Cl7 2.907939 1_556
Ce18 Cl2 2.986735 1_555
Ce18 Ga2 3.044171 1_555
Ce18 Ga7 3.088540 1_555
Ce18 Ga8 3.088540 1_555
Ce18 Cl3 3.247513 1_655
Ce18 Cl0 3.247513 1_555
Ce19 Cl4 2.907942 1_555
Ce19 Cl7 2.907942 1_455
Ce19 Cl3 2.986750 1_554
Ce19 Ga8 3.044165 1_454
Ce19 Ga9 3.088527 1_555
Ce19 Ga2 3.088527 1_555
Ce19 Cl2 3.247520 1_555
Ce19 Cl1 3.247520 1_565
Ga2 Ga9 2.707636 1_555
Ga3 Ga4 2.707636 1_555
Ga5 Ga6 2.707636 1_555
Ga7 Ga8 2.707636 1_555
