# generated using pymatgen
data_Ta4VSiB2
_symmetry_space_group_name_H-M   'P 1'
_cell_length_a   7.18657969
_cell_length_b   7.18658008
_cell_length_c   7.18657984
_cell_angle_alpha   129.75243844
_cell_angle_beta   129.75244310
_cell_angle_gamma   73.80283556
_symmetry_Int_Tables_number   1
_chemical_formula_structural   Ta4VSiB2
_chemical_formula_sum   'Ta8 V2 Si2 B4'
_cell_volume   214.01625329
_cell_formula_units_Z   2
loop_
 _symmetry_equiv_pos_site_id
 _symmetry_equiv_pos_as_xyz
  1  'x, y, z'
loop_
 _atom_site_type_symbol
 _atom_site_label
 _atom_site_symmetry_multiplicity
 _atom_site_fract_x
 _atom_site_fract_y
 _atom_site_fract_z
 _atom_site_occupancy
  Ta  Ta0  1  0.53327407  0.69356331  0.50000000  1
  Ta  Ta1  1  0.03327407  0.53327407  0.83971076  1
  Ta  Ta2  1  0.69356331  0.19356331  0.16028924  1
  Ta  Ta3  1  0.96672593  0.46672593  0.16028924  1
  Ta  Ta4  1  0.19356331  0.03327407  0.50000000  1
  Ta  Ta5  1  0.46672593  0.30643669  0.50000000  1
  Ta  Ta6  1  0.80643669  0.96672593  0.50000000  1
  Ta  Ta7  1  0.30643669  0.80643669  0.83971076  1
  V  V0  1  0.00000000  0.00000000  0.00000000  1
  V  V1  1  0.50000000  0.50000000  0.00000000  1
  Si  Si0  1  0.25000000  0.25000000  0.00000000  1
  Si  Si1  1  0.75000000  0.75000000  0.00000000  1
  B  B0  1  0.61983921  0.11983921  0.73967742  1
  B  B1  1  0.11983921  0.38016079  0.50000000  1
  B  B2  1  0.88016079  0.61983921  0.50000000  1
  B  B3  1  0.38016079  0.88016079  0.26032258  1
loop_
_geom_bond_atom_site_label_1
_geom_bond_atom_site_label_2
_geom_bond_distance
_geom_bond_site_symmetry_2
Ta0 V1 2.756416 1_555
Ta0 V0 2.756416 1_666
Ta1 V1 2.756416 1_556
Ta1 V0 2.756416 1_566
Ta2 V0 2.756416 1_655
Ta2 V1 2.756416 1_555
Ta3 V1 2.756416 1_555
Ta3 V0 2.756416 1_655
Ta4 V0 2.756416 1_555
Ta4 V1 2.756416 1_556
Ta5 V1 2.756416 1_556
Ta5 V0 2.756416 1_555
Ta6 V0 2.756416 1_666
Ta6 V1 2.756416 1_555
Ta7 V0 2.756416 1_566
Ta7 V1 2.756416 1_556
Si0 Ta2 2.613971 1_555
Si0 Ta1 2.613971 1_554
Si0 Ta3 2.613971 1_455
Si0 Ta5 2.613971 1_555
Si0 Ta4 2.613971 1_554
Si0 Ta7 2.613971 1_544
Si0 Ta6 2.613971 1_444
Si0 Ta0 2.613971 1_555
Si0 V1 2.873445 1_555
Si0 V0 2.873445 1_555
Si1 Ta7 2.613971 1_554
Si1 Ta3 2.613971 1_555
Si1 Ta1 2.613971 1_654
Si1 Ta0 2.613971 1_554
Si1 Ta6 2.613971 1_555
Si1 Ta2 2.613971 1_565
Si1 Ta4 2.613971 1_665
Si1 Ta5 2.613971 1_554
Si1 V1 2.873445 1_555
Si1 V0 2.873445 1_665
B0 B3 2.068469 1_545
B0 Ta5 2.383871 1_555
B0 Ta6 2.383871 1_545
B0 Ta4 2.383878 1_555
B0 Ta0 2.383878 1_545
B0 Ta3 2.399696 1_556
B0 Ta2 2.399704 1_556
B0 V0 2.432466 1_656
B0 V1 2.432467 1_556
B1 B2 2.068478 1_455
B1 Ta3 2.383876 1_455
B1 Ta1 2.383876 1_555
B1 Ta2 2.383876 1_455
B1 Ta7 2.383876 1_555
B1 Ta5 2.399697 1_555
B1 Ta4 2.399697 1_555
B1 V1 2.432465 1_556
B1 V0 2.432465 1_555
B2 Ta1 2.383876 1_655
B2 Ta3 2.383876 1_555
B2 Ta7 2.383876 1_655
B2 Ta2 2.383876 1_555
B2 Ta0 2.399697 1_555
B2 Ta6 2.399697 1_555
B2 V1 2.432465 1_555
B2 V0 2.432465 1_666
B3 Ta0 2.383871 1_555
B3 Ta4 2.383871 1_565
B3 Ta6 2.383878 1_555
B3 Ta5 2.383878 1_565
B3 Ta1 2.399696 1_554
B3 Ta7 2.399704 1_554
B3 V0 2.432466 1_565
B3 V1 2.432467 1_555
