# generated using pymatgen
data_Zn3Au
_symmetry_space_group_name_H-M   'P 1'
_cell_length_a   7.86104362
_cell_length_b   7.86104362
_cell_length_c   7.86104362
_cell_angle_alpha   90.00000000
_cell_angle_beta   90.00000000
_cell_angle_gamma   90.00000000
_symmetry_Int_Tables_number   1
_chemical_formula_structural   Zn3Au
_chemical_formula_sum   'Zn24 Au8'
_cell_volume   485.78110496
_cell_formula_units_Z   8
loop_
 _symmetry_equiv_pos_site_id
 _symmetry_equiv_pos_as_xyz
  1  'x, y, z'
loop_
 _atom_site_type_symbol
 _atom_site_label
 _atom_site_symmetry_multiplicity
 _atom_site_fract_x
 _atom_site_fract_y
 _atom_site_fract_z
 _atom_site_occupancy
  Zn  Zn0  1  0.50000000  0.19892990  0.33692492  1
  Zn  Zn1  1  0.50000000  0.80106910  0.66307608  1
  Zn  Zn2  1  0.19892990  0.33692492  0.50000000  1
  Zn  Zn3  1  0.80106910  0.33692492  0.50000000  1
  Zn  Zn4  1  0.33692492  0.50000000  0.19892990  1
  Zn  Zn5  1  0.66307608  0.50000000  0.19892990  1
  Zn  Zn6  1  -0.00000000  0.83692392  0.30107010  1
  Zn  Zn7  1  0.00000000  0.16307508  0.69893090  1
  Zn  Zn8  1  0.00000000  0.16307508  0.30107010  1
  Zn  Zn9  1  0.50000000  0.19892990  0.66307608  1
  Zn  Zn10  1  0.50000000  0.80106910  0.33692492  1
  Zn  Zn11  1  0.80106910  0.66307608  0.50000000  1
  Zn  Zn12  1  0.19892990  0.66307608  0.50000000  1
  Zn  Zn13  1  0.33692492  0.50000000  0.80106910  1
  Zn  Zn14  1  0.66307608  0.50000000  0.80106910  1
  Zn  Zn15  1  0.30107010  0.00000000  0.16307508  1
  Zn  Zn16  1  0.16307508  0.30107010  0.00000000  1
  Zn  Zn17  1  0.83692392  0.69893090  0.00000000  1
  Zn  Zn18  1  0.30107010  0.00000000  0.83692392  1
  Zn  Zn19  1  0.83692392  0.30107010  0.00000000  1
  Zn  Zn20  1  0.69893090  0.00000000  0.16307508  1
  Zn  Zn21  1  0.69893090  0.00000000  0.83692392  1
  Zn  Zn22  1  0.16307508  0.69893090  0.00000000  1
  Zn  Zn23  1  -0.00000000  0.83692392  0.69893090  1
  Au  Au0  1  0.50000000  0.25000000  0.00000000  1
  Au  Au1  1  0.50000000  0.75000000  0.00000000  1
  Au  Au2  1  -0.00000000  0.50000000  0.75000000  1
  Au  Au3  1  -0.00000000  0.50000000  0.25000000  1
  Au  Au4  1  0.75000000  0.00000000  0.50000000  1
  Au  Au5  1  0.25000000  0.00000000  0.50000000  1
  Au  Au6  1  0.50000000  0.50000000  0.50000000  1
  Au  Au7  1  -0.00000000  0.00000000  0.00000000  1
loop_
_geom_bond_atom_site_label_1
_geom_bond_atom_site_label_2
_geom_bond_distance
_geom_bond_site_symmetry_2
Zn0 Zn9 2.563888 1_555
Zn0 Zn15 2.599736 1_555
Zn0 Zn20 2.599741 1_555
Zn0 Zn3 2.901979 1_555
Zn0 Zn4 2.901985 1_555
Zn0 Zn2 2.901985 1_555
Zn0 Zn5 2.901989 1_555
Zn1 Zn10 2.563888 1_555
Zn1 Zn18 2.599733 1_565
Zn1 Zn21 2.599737 1_565
Zn1 Zn13 2.901973 1_555
Zn1 Zn11 2.901976 1_555
Zn1 Zn14 2.901976 1_555
Zn1 Zn12 2.901983 1_555
Zn2 Zn8 2.599736 1_555
Zn2 Zn7 2.599741 1_555
Zn2 Zn4 2.901985 1_555
Zn2 Zn9 2.901989 1_555
Zn3 Zn8 2.599741 1_655
Zn3 Zn7 2.599746 1_655
Zn3 Zn5 2.901979 1_555
Zn3 Zn9 2.901982 1_555
Zn4 Zn5 2.563888 1_555
Zn6 Zn8 2.563888 1_565
Zn10 Zn15 2.599741 1_565
Zn10 Zn20 2.599746 1_565
Zn10 Zn11 2.901973 1_555
Zn10 Zn4 2.901979 1_555
Zn10 Zn12 2.901979 1_555
Zn10 Zn5 2.901982 1_555
Zn11 Zn3 2.563888 1_555
Zn11 Zn6 2.599733 1_655
Zn11 Zn23 2.599737 1_655
Zn11 Zn14 2.901976 1_555
Zn11 Zn5 2.901983 1_555
Zn12 Zn2 2.563888 1_555
Zn12 Zn6 2.599728 1_555
Zn12 Zn23 2.599733 1_555
Zn12 Zn13 2.901982 1_555
Zn12 Zn4 2.901989 1_555
Zn13 Zn14 2.563888 1_555
Zn13 Zn16 2.599741 1_556
Zn13 Zn22 2.599746 1_556
Zn13 Zn2 2.901979 1_555
Zn13 Zn9 2.901979 1_555
Zn14 Zn19 2.599733 1_556
Zn14 Zn17 2.599737 1_556
Zn14 Zn3 2.901973 1_555
Zn14 Zn9 2.901983 1_555
Zn15 Zn18 2.563888 1_554
Zn15 Zn22 2.901979 1_545
Zn15 Zn8 2.901985 1_555
Zn15 Zn16 2.901985 1_555
Zn15 Zn6 2.901989 1_545
Zn16 Zn19 2.563888 1_455
Zn16 Zn4 2.599736 1_555
Zn16 Zn7 2.901979 1_554
Zn16 Zn8 2.901985 1_555
Zn16 Zn18 2.901989 1_554
Zn17 Zn22 2.563888 1_655
Zn17 Zn5 2.599733 1_555
Zn17 Zn20 2.901973 1_565
Zn17 Zn23 2.901976 1_654
Zn17 Zn21 2.901976 1_564
Zn17 Zn6 2.901983 1_655
Zn18 Zn9 2.599728 1_555
Zn18 Zn7 2.901979 1_555
Zn18 Zn22 2.901982 1_546
Zn18 Zn23 2.901983 1_545
Zn19 Zn5 2.599728 1_555
Zn19 Zn20 2.901979 1_555
Zn19 Zn7 2.901982 1_654
Zn19 Zn21 2.901983 1_554
Zn19 Zn8 2.901989 1_655
Zn20 Zn21 2.563888 1_554
Zn20 Zn8 2.901979 1_655
Zn20 Zn6 2.901982 1_645
Zn21 Zn9 2.599733 1_555
Zn21 Zn7 2.901973 1_655
Zn21 Zn23 2.901976 1_645
Zn22 Zn4 2.599741 1_555
Zn22 Zn23 2.901973 1_554
Zn22 Zn6 2.901979 1_555
Zn23 Zn7 2.563888 1_565
Au0 Zn9 2.678827 1_554
Au0 Zn19 2.678827 1_555
Au0 Zn16 2.678835 1_555
Au0 Zn0 2.678835 1_555
Au0 Zn15 2.819766 1_555
Au0 Zn4 2.819766 1_555
Au0 Zn18 2.819770 1_554
Au0 Zn5 2.819770 1_555
Au0 Zn20 2.819771 1_555
Au0 Zn13 2.819771 1_554
Au0 Zn21 2.819774 1_554
Au0 Zn14 2.819774 1_554
Au1 Zn1 2.678826 1_554
Au1 Zn17 2.678826 1_555
Au1 Zn22 2.678834 1_555
Au1 Zn10 2.678834 1_555
Au1 Zn4 2.819766 1_555
Au1 Zn15 2.819766 1_565
Au1 Zn18 2.819770 1_564
Au1 Zn5 2.819770 1_555
Au1 Zn13 2.819771 1_554
Au1 Zn20 2.819771 1_565
Au1 Zn21 2.819774 1_564
Au1 Zn14 2.819774 1_554
Au2 Zn14 2.678826 1_455
Au2 Zn23 2.678826 1_555
Au2 Zn7 2.678834 1_555
Au2 Zn13 2.678834 1_555
Au2 Zn16 2.819766 1_556
Au2 Zn2 2.819766 1_555
Au2 Zn19 2.819770 1_456
Au2 Zn12 2.819770 1_555
Au2 Zn22 2.819771 1_556
Au2 Zn3 2.819771 1_455
Au2 Zn17 2.819774 1_456
Au2 Zn11 2.819774 1_455
Au3 Zn5 2.678827 1_455
Au3 Zn6 2.678827 1_555
Au3 Zn8 2.678835 1_555
Au3 Zn4 2.678835 1_555
Au3 Zn16 2.819766 1_555
Au3 Zn2 2.819766 1_555
Au3 Zn19 2.819770 1_455
Au3 Zn12 2.819770 1_555
Au3 Zn22 2.819771 1_555
Au3 Zn3 2.819771 1_455
Au3 Zn17 2.819774 1_455
Au3 Zn11 2.819774 1_455
Au4 Zn11 2.678826 1_545
Au4 Zn21 2.678826 1_555
Au4 Zn20 2.678834 1_555
Au4 Zn3 2.678834 1_555
Au4 Zn8 2.819766 1_655
Au4 Zn0 2.819766 1_555
Au4 Zn6 2.819770 1_645
Au4 Zn9 2.819770 1_555
Au4 Zn10 2.819771 1_545
Au4 Zn7 2.819771 1_655
Au4 Zn23 2.819774 1_645
Au4 Zn1 2.819774 1_545
Au5 Zn12 2.678827 1_545
Au5 Zn18 2.678827 1_555
Au5 Zn2 2.678835 1_555
Au5 Zn15 2.678835 1_555
Au5 Zn0 2.819766 1_555
Au5 Zn8 2.819766 1_555
Au5 Zn6 2.819770 1_545
Au5 Zn9 2.819770 1_555
Au5 Zn10 2.819771 1_545
Au5 Zn7 2.819771 1_555
Au5 Zn23 2.819774 1_545
Au5 Zn1 2.819774 1_545
Au6 Zn13 2.691602 1_555
Au6 Zn3 2.691602 1_555
Au6 Zn10 2.691602 1_555
Au6 Zn1 2.691606 1_555
Au6 Zn11 2.691606 1_555
Au6 Zn14 2.691606 1_555
Au6 Zn0 2.691609 1_555
Au6 Zn4 2.691609 1_555
Au6 Zn2 2.691609 1_555
Au6 Zn5 2.691613 1_555
Au6 Zn9 2.691613 1_555
Au6 Zn12 2.691613 1_555
Au7 Zn7 2.691602 1_554
Au7 Zn22 2.691602 1_545
Au7 Zn20 2.691602 1_455
Au7 Zn23 2.691606 1_544
Au7 Zn17 2.691606 1_445
Au7 Zn21 2.691606 1_454
Au7 Zn8 2.691609 1_555
Au7 Zn16 2.691609 1_555
Au7 Zn15 2.691609 1_555
Au7 Zn18 2.691613 1_554
Au7 Zn6 2.691613 1_545
Au7 Zn19 2.691613 1_455
