# generated using pymatgen
data_CsNb2Tc4Te7
_symmetry_space_group_name_H-M   'P 1'
_cell_length_a   10.38066067
_cell_length_b   10.35698798
_cell_length_c   10.35716743
_cell_angle_alpha   62.37701131
_cell_angle_beta   62.46296724
_cell_angle_gamma   62.48997670
_symmetry_Int_Tables_number   1
_chemical_formula_structural   CsNb2Tc4Te7
_chemical_formula_sum   'Cs2 Nb4 Tc8 Te14'
_cell_volume   830.26955663
_cell_formula_units_Z   2
loop_
 _symmetry_equiv_pos_site_id
 _symmetry_equiv_pos_as_xyz
  1  'x, y, z'
loop_
 _atom_site_type_symbol
 _atom_site_label
 _atom_site_symmetry_multiplicity
 _atom_site_fract_x
 _atom_site_fract_y
 _atom_site_fract_z
 _atom_site_occupancy
  Cs  Cs0  1  0.61089248  0.61314519  0.60900296  1
  Cs  Cs1  1  0.38689112  0.38320471  0.38862794  1
  Nb  Nb0  1  0.70599721  0.87705609  0.99978738  1
  Nb  Nb1  1  0.99482526  0.71108905  0.87003754  1
  Nb  Nb2  1  0.87560783  0.99863972  0.70684881  1
  Nb  Nb3  1  0.29031100  0.12207499  0.00449773  1
  Tc  Tc0  1  0.00237577  0.28673499  0.12286212  1
  Tc  Tc1  1  0.12349375  0.99926460  0.28880414  1
  Tc  Tc2  1  0.94186387  0.81390152  0.09843766  1
  Tc  Tc3  1  0.10007289  0.94341315  0.81502370  1
  Tc  Tc4  1  0.81689803  0.09988295  0.94161986  1
  Tc  Tc5  1  0.05941381  0.18334980  0.89857292  1
  Tc  Tc6  1  0.90500139  0.05870401  0.18124693  1
  Tc  Tc7  1  0.18483196  0.89716237  0.05901994  1
  Te  Te0  1  0.40946397  0.80867255  0.17621571  1
  Te  Te1  1  0.16102958  0.41592980  0.81835154  1
  Te  Te2  1  0.82379803  0.16628149  0.40721609  1
  Te  Te3  1  0.57950076  0.19680159  0.83354659  1
  Te  Te4  1  0.83702824  0.57443186  0.19216566  1
  Te  Te5  1  0.19488670  0.83748611  0.57321794  1
  Te  Te6  1  0.65822299  0.98464822  0.24213704  1
  Te  Te7  1  0.23945073  0.65432035  0.98181391  1
  Te  Te8  1  0.98261468  0.24262974  0.65469885  1
  Te  Te9  1  0.34768981  0.01672971  0.76188961  1
  Te  Te10  1  0.76949829  0.35053952  0.01983886  1
  Te  Te11  1  0.02305367  0.76542771  0.34979460  1
  Te  Te12  1  0.75928515  0.77201123  0.76716545  1
  Te  Te13  1  0.21600102  0.22646597  0.23755851  1
loop_
_geom_bond_atom_site_label_1
_geom_bond_atom_site_label_2
_geom_bond_distance
_geom_bond_site_symmetry_2
Cs0 Te12 3.864918 1_555
Cs0 Te3 3.925146 1_555
Cs0 Te5 3.949274 1_555
Cs0 Te4 3.959141 1_555
Cs0 Te6 3.993322 1_555
Cs0 Te8 4.020537 1_555
Cs0 Te7 4.024926 1_555
Cs0 Te9 4.362463 1_565
Cs0 Te11 4.437029 1_655
Cs0 Te10 4.452329 1_556
Cs1 Te0 3.974953 1_555
Cs1 Te13 3.976477 1_555
Cs1 Te9 3.985341 1_555
Cs1 Te11 4.026610 1_555
Cs1 Te10 4.050699 1_555
Cs1 Te1 4.054238 1_555
Cs1 Te2 4.080124 1_555
Cs1 Te6 4.288344 1_545
Cs1 Te8 4.307711 1_455
Cs1 Te7 4.359102 1_554
Nb0 Nb1 2.721291 1_555
Nb0 Nb2 2.730733 1_555
Nb0 Tc4 2.745559 1_565
Nb0 Tc2 2.771397 1_556
Nb0 Te12 2.817223 1_555
Nb0 Te4 2.901785 1_556
Nb0 Te3 2.905425 1_565
Nb0 Te6 2.953004 1_556
Nb0 Te0 2.988143 1_556
Nb1 Nb2 2.668187 1_555
Nb1 Tc2 2.761258 1_556
Nb1 Te12 2.805683 1_555
Nb1 Tc3 2.808842 1_655
Nb1 Te5 2.890298 1_655
Nb1 Te1 2.898175 1_655
Nb1 Te4 2.920147 1_556
Nb1 Te7 2.973576 1_655
Nb2 Tc3 2.756842 1_655
Nb2 Tc4 2.790548 1_565
Nb2 Te12 2.814021 1_555
Nb2 Te3 2.884833 1_565
Nb2 Te5 2.911424 1_655
Nb2 Te2 2.935766 1_565
Nb2 Te8 2.946870 1_565
Nb3 Tc1 2.670969 1_545
Nb3 Tc0 2.680805 1_555
Nb3 Tc7 2.740202 1_545
Nb3 Te13 2.742000 1_555
Nb3 Tc5 2.780624 1_554
Nb3 Te1 2.821125 1_554
Nb3 Te0 2.863706 1_545
Nb3 Te9 2.901211 1_554
Nb3 Te3 2.950720 1_554
Tc0 Te13 2.681022 1_555
Tc0 Tc1 2.682153 1_545
Tc0 Tc6 2.698326 1_455
Tc0 Tc5 2.709707 1_554
Tc0 Te2 2.710661 1_455
Tc0 Te10 2.770310 1_455
Tc0 Te1 2.787364 1_554
Tc0 Te4 2.908467 1_455
Tc1 Tc6 2.678548 1_465
Tc1 Te13 2.683117 1_565
Tc1 Tc7 2.738284 1_555
Tc1 Te0 2.754818 1_555
Tc1 Te2 2.764548 1_465
Tc1 Te11 2.767044 1_555
Tc1 Te5 2.885918 1_555
Tc2 Tc4 2.651671 1_564
Tc2 Tc3 2.653154 1_654
Tc2 Te7 2.723587 1_654
Tc2 Te4 2.749907 1_555
Tc2 Te6 2.755048 1_555
Tc2 Tc7 2.828834 1_655
Tc2 Tc6 2.850805 1_565
Tc2 Te11 2.857566 1_655
Tc3 Tc4 2.644260 1_465
Tc3 Te8 2.730801 1_465
Tc3 Te7 2.748658 1_555
Tc3 Te9 2.755757 1_565
Tc3 Te5 2.777692 1_555
Tc3 Tc5 2.790999 1_565
Tc3 Tc7 2.816725 1_556
Tc4 Te6 2.730598 1_546
Tc4 Te8 2.743094 1_555
Tc4 Te3 2.748988 1_555
Tc4 Tc5 2.810514 1_655
Tc4 Tc6 2.816889 1_556
Tc4 Te10 2.835400 1_556
Tc5 Tc6 2.622013 1_456
Tc5 Tc7 2.666474 1_546
Tc5 Te1 2.699352 1_555
Tc5 Te10 2.709343 1_456
Tc5 Te8 2.713692 1_455
Tc5 Te9 2.741299 1_555
Tc6 Tc7 2.629432 1_645
Tc6 Te2 2.675012 1_555
Tc6 Te11 2.719875 1_645
Tc6 Te6 2.724188 1_545
Tc6 Te10 2.733149 1_555
Tc7 Te0 2.713302 1_555
Tc7 Te11 2.716898 1_555
Tc7 Te7 2.723061 1_554
Tc7 Te9 2.729775 1_564
