# generated using pymatgen
data_Y11In9Rh3Au
_symmetry_space_group_name_H-M   'P 1'
_cell_length_a   13.14318691
_cell_length_b   13.14548088
_cell_length_c   3.69180130
_cell_angle_alpha   90.00000000
_cell_angle_beta   90.00000000
_cell_angle_gamma   112.57166318
_symmetry_Int_Tables_number   1
_chemical_formula_structural   Y11In9Rh3Au
_chemical_formula_sum   'Y11 In9 Rh3 Au1'
_cell_volume   588.98661893
_cell_formula_units_Z   1
loop_
 _symmetry_equiv_pos_site_id
 _symmetry_equiv_pos_as_xyz
  1  'x, y, z'
loop_
 _atom_site_type_symbol
 _atom_site_label
 _atom_site_symmetry_multiplicity
 _atom_site_fract_x
 _atom_site_fract_y
 _atom_site_fract_z
 _atom_site_occupancy
  Y  Y0  1  0.06844194  0.41324439  0.00000000  1
  Y  Y1  1  0.92092112  0.58468654  0.00000000  1
  Y  Y2  1  0.41639465  0.07674207  0.00000000  1
  Y  Y3  1  0.58581478  0.92308741  0.00000000  1
  Y  Y4  1  0.62587080  0.37472051  0.00000000  1
  Y  Y5  1  0.38191683  0.63462545  0.00000000  1
  Y  Y6  1  0.83706325  0.16126581  0.00000000  1
  Y  Y7  1  0.16263776  0.83988613  0.00000000  1
  Y  Y8  1  0.00018585  0.99931252  0.00000000  1
  Y  Y9  1  0.31523663  0.30396819  0.00000000  1
  Y  Y10  1  0.68900893  0.68845141  0.00000000  1
  In  In0  1  0.83855137  0.36848203  0.50000000  1
  In  In1  1  0.15458796  0.63344922  0.50000000  1
  In  In2  1  0.36836100  0.84087198  0.50000000  1
  In  In3  1  0.63157869  0.15953078  0.50000000  1
  In  In4  1  0.07041386  0.21410754  0.50000000  1
  In  In5  1  0.92361316  0.78229202  0.50000000  1
  In  In6  1  0.21833033  0.07524558  0.50000000  1
  In  In7  1  0.78260227  0.92344149  0.50000000  1
  In  In8  1  0.50204513  0.49971397  0.50000000  1
  Rh  Rh0  1  0.75566877  0.55311406  0.50000000  1
  Rh  Rh1  1  0.44850806  0.24432936  0.50000000  1
  Rh  Rh2  1  0.55268260  0.75543881  0.50000000  1
  Au  Au0  1  0.24956227  0.44999274  0.50000000  1
loop_
_geom_bond_atom_site_label_1
_geom_bond_atom_site_label_2
_geom_bond_distance
_geom_bond_site_symmetry_2
In0 Rh0 3.017787 1_555
In0 In3 3.034564 1_555
In0 Y1 3.208571 1_556
In0 Y1 3.208571 1_555
In0 Y6 3.284322 1_555
In0 Y6 3.284322 1_556
In0 Y4 3.376945 1_556
In0 Y4 3.376945 1_555
In0 Y0 3.393841 1_656
In0 Y0 3.393841 1_655
In1 In2 3.073716 1_555
In1 Y0 3.248467 1_556
In1 Y0 3.248467 1_555
In1 Y7 3.249980 1_556
In1 Y7 3.249980 1_555
In1 Y1 3.426193 1_456
In1 Y1 3.426193 1_455
In1 Y5 3.507025 1_556
In1 Y5 3.507025 1_555
In2 Rh2 3.036238 1_555
In2 Y3 3.220639 1_555
In2 Y3 3.220639 1_556
In2 Y7 3.269781 1_556
In2 Y7 3.269781 1_555
In2 Y5 3.340745 1_555
In2 Y5 3.340745 1_556
In2 Y2 3.452113 1_565
In2 Y2 3.452113 1_566
In3 Rh1 3.015145 1_555
In3 Y2 3.198066 1_555
In3 Y2 3.198066 1_556
In3 Y6 3.264120 1_555
In3 Y6 3.264120 1_556
In3 Y4 3.402623 1_555
In3 Y4 3.402623 1_556
In3 Y3 3.463325 1_546
In3 Y3 3.463325 1_545
In4 In6 3.136227 1_555
In4 Y8 3.198625 1_546
In4 Y8 3.198625 1_545
In4 Y0 3.211342 1_556
In4 Y0 3.211342 1_555
In4 Y6 3.414777 1_456
In4 Y6 3.414777 1_455
In4 Y9 3.498386 1_556
In4 Y9 3.498386 1_555
In5 Rh0 2.973783 1_555
In5 In7 3.085051 1_555
In5 Y1 3.175794 1_556
In5 Y1 3.175794 1_555
In5 Y8 3.217888 1_656
In5 Y8 3.217888 1_655
In5 Y10 3.393629 1_556
In5 Y10 3.393629 1_555
In5 Y7 3.467558 1_655
In5 Y7 3.467558 1_656
In6 Rh1 2.988403 1_555
In6 Y2 3.185130 1_555
In6 Y2 3.185130 1_556
In6 Y8 3.229093 1_546
In6 Y8 3.229093 1_545
In6 Y9 3.336138 1_555
In6 Y9 3.336138 1_556
In6 Y7 3.431749 1_545
In6 Y7 3.431749 1_546
In7 Rh2 2.980910 1_555
In7 Y3 3.176109 1_555
In7 Y3 3.176109 1_556
In7 Y8 3.223451 1_655
In7 Y8 3.223451 1_656
In7 Y10 3.397899 1_555
In7 Y10 3.397899 1_556
In7 Y6 3.460585 1_566
In7 Y6 3.460585 1_565
In8 Rh0 3.131794 1_555
In8 Rh1 3.154703 1_555
In8 Rh2 3.166379 1_555
In8 Y4 3.287643 1_555
In8 Y4 3.287643 1_556
In8 Y10 3.304690 1_555
In8 Y10 3.304690 1_556
In8 Y5 3.345887 1_556
In8 Y5 3.345887 1_555
In8 Y9 3.347660 1_556
In8 Y9 3.347660 1_555
Rh0 Y1 2.757703 1_556
Rh0 Y1 2.757703 1_555
Rh0 Y10 2.921749 1_556
Rh0 Y10 2.921749 1_555
Rh0 Y4 2.957335 1_556
Rh0 Y4 2.957335 1_555
Rh1 Y2 2.779381 1_556
Rh1 Y2 2.779381 1_555
Rh1 Y9 2.853825 1_556
Rh1 Y9 2.853825 1_555
Rh1 Y4 2.951617 1_556
Rh1 Y4 2.951617 1_555
Rh2 Y3 2.777963 1_555
Rh2 Y3 2.777963 1_556
Rh2 Y5 2.868899 1_556
Rh2 Y5 2.868899 1_555
Rh2 Y10 2.933329 1_555
Rh2 Y10 2.933329 1_556
Au0 Y0 2.902531 1_556
Au0 Y0 2.902531 1_555
Au0 Y5 3.013799 1_556
Au0 Y5 3.013799 1_555
Au0 Y9 3.018130 1_556
Au0 Y9 3.018130 1_555
Au0 In4 3.090994 1_555
Au0 In1 3.112084 1_555
Au0 In8 3.126359 1_555
