# generated using pymatgen
data_CsYCdTe3
_symmetry_space_group_name_H-M   'P 1'
_cell_length_a   8.85933693
_cell_length_b   8.85933641
_cell_length_c   11.88118034
_cell_angle_alpha   90.00000000
_cell_angle_beta   90.00000000
_cell_angle_gamma   150.30576729
_symmetry_Int_Tables_number   1
_chemical_formula_structural   CsYCdTe3
_chemical_formula_sum   'Cs2 Y2 Cd2 Te6'
_cell_volume   461.94766996
_cell_formula_units_Z   2
loop_
 _symmetry_equiv_pos_site_id
 _symmetry_equiv_pos_as_xyz
  1  'x, y, z'
loop_
 _atom_site_type_symbol
 _atom_site_label
 _atom_site_symmetry_multiplicity
 _atom_site_fract_x
 _atom_site_fract_y
 _atom_site_fract_z
 _atom_site_occupancy
  Cs  Cs0  1  0.74977437  0.25022563  0.25000000  1
  Cs  Cs1  1  0.25022563  0.74977437  0.75000000  1
  Y  Y0  1  0.00000000  0.00000000  0.50000000  1
  Y  Y1  1  0.00000000  0.00000000  0.00000000  1
  Cd  Cd0  1  0.46155229  0.53844771  0.25000000  1
  Cd  Cd1  1  0.53844771  0.46155229  0.75000000  1
  Te  Te0  1  0.06403930  0.93596070  0.25000000  1
  Te  Te1  1  0.93596070  0.06403930  0.75000000  1
  Te  Te2  1  0.62121149  0.37878851  0.54715477  1
  Te  Te3  1  0.62121149  0.37878851  0.95284523  1
  Te  Te4  1  0.37878851  0.62121149  0.04715477  1
  Te  Te5  1  0.37878851  0.62121149  0.45284523  1
loop_
_geom_bond_atom_site_label_1
_geom_bond_atom_site_label_2
_geom_bond_distance
_geom_bond_site_symmetry_2
Cs0 Te0 3.908052 1_655
Cs0 Te0 3.908053 1_545
Cs0 Te5 3.980484 1_545
Cs0 Te4 3.980484 1_545
Cs0 Te5 3.980484 1_655
Cs0 Te4 3.980484 1_655
Cs0 Te2 4.160911 1_555
Cs0 Te3 4.160911 1_554
Cs1 Te1 3.908052 1_455
Cs1 Te1 3.908053 1_565
Cs1 Te3 3.980484 1_565
Cs1 Te2 3.980484 1_565
Cs1 Te3 3.980484 1_455
Cs1 Te2 3.980484 1_455
Cs1 Te4 4.160911 1_556
Cs1 Te5 4.160911 1_555
Cd0 Te5 2.795999 1_555
Cd0 Te4 2.795999 1_555
Cd0 Te0 2.869591 1_545
Cd0 Te0 2.869591 1_655
Cd1 Te3 2.795999 1_555
Cd1 Te2 2.795999 1_555
Cd1 Te1 2.869591 1_565
Cd1 Te1 2.869591 1_455
Te0 Y0 3.166329 1_565
Te0 Y1 3.166329 1_565
Te1 Y1 3.166329 1_656
Te1 Y0 3.166329 1_655
Te2 Y0 3.126839 1_665
Te2 Y0 3.126840 1_555
Te3 Y1 3.126839 1_666
Te3 Y1 3.126840 1_556
Te4 Y1 3.126839 1_555
Te4 Y1 3.126840 1_665
Te5 Y0 3.126839 1_555
Te5 Y0 3.126840 1_665
