# generated using pymatgen
data_Y20Al3Ru2Au3
_symmetry_space_group_name_H-M   'P 1'
_cell_length_a   9.59493547
_cell_length_b   9.59493416
_cell_length_c   9.52000600
_cell_angle_alpha   90.00000000
_cell_angle_beta   90.00000000
_cell_angle_gamma   120.00000452
_symmetry_Int_Tables_number   1
_chemical_formula_structural   Y20Al3Ru2Au3
_chemical_formula_sum   'Y20 Al3 Ru2 Au3'
_cell_volume   759.01767864
_cell_formula_units_Z   1
loop_
 _symmetry_equiv_pos_site_id
 _symmetry_equiv_pos_as_xyz
  1  'x, y, z'
loop_
 _atom_site_type_symbol
 _atom_site_label
 _atom_site_symmetry_multiplicity
 _atom_site_fract_x
 _atom_site_fract_y
 _atom_site_fract_z
 _atom_site_occupancy
  Y  Y0  1  0.00000000  0.00000000  0.46144424  1
  Y  Y1  1  0.00000000  0.00000000  0.03855576  1
  Y  Y2  1  0.20898256  0.79101744  0.44070031  1
  Y  Y3  1  0.20898256  0.41796712  0.44070031  1
  Y  Y4  1  0.58203288  0.79101744  0.44070031  1
  Y  Y5  1  0.79329294  0.20670706  0.56103797  1
  Y  Y6  1  0.79329294  0.58658487  0.56103797  1
  Y  Y7  1  0.41341513  0.20670706  0.56103797  1
  Y  Y8  1  0.79329294  0.20670706  0.93896203  1
  Y  Y9  1  0.79329294  0.58658487  0.93896203  1
  Y  Y10  1  0.41341513  0.20670706  0.93896203  1
  Y  Y11  1  0.20898256  0.79101744  0.05929969  1
  Y  Y12  1  0.20898256  0.41796712  0.05929969  1
  Y  Y13  1  0.58203288  0.79101744  0.05929969  1
  Y  Y14  1  0.54109636  0.45890364  0.25000000  1
  Y  Y15  1  0.54109636  0.08219272  0.25000000  1
  Y  Y16  1  0.91780728  0.45890364  0.25000000  1
  Y  Y17  1  0.45898008  0.54101992  0.75000000  1
  Y  Y18  1  0.45898008  0.91796016  0.75000000  1
  Y  Y19  1  0.08203984  0.54101992  0.75000000  1
  Al  Al0  1  0.10466913  0.89533087  0.75000000  1
  Al  Al1  1  0.10466913  0.20933727  0.75000000  1
  Al  Al2  1  0.79066273  0.89533087  0.75000000  1
  Ru  Ru0  1  0.33333300  0.66666700  0.25000000  1
  Ru  Ru1  1  0.66666700  0.33333300  0.75000000  1
  Au  Au0  1  0.86929991  0.13070009  0.25000000  1
  Au  Au1  1  0.86929991  0.73860082  0.25000000  1
  Au  Au2  1  0.26139918  0.13070009  0.25000000  1
loop_
_geom_bond_atom_site_label_1
_geom_bond_atom_site_label_2
_geom_bond_distance
_geom_bond_site_symmetry_2
Al0 Al1 3.012871 1_565
Al0 Al2 3.012871 1_455
Al0 Y1 3.251479 1_566
Al0 Y0 3.251479 1_565
Al0 Y19 3.296394 1_555
Al0 Y18 3.296395 1_555
Al0 Y11 3.416954 1_556
Al0 Y2 3.416954 1_555
Al0 Y10 3.476681 1_565
Al0 Y7 3.476681 1_565
Al0 Y9 3.476681 1_455
Al0 Y6 3.476681 1_455
Al1 Al2 3.012871 1_445
Al1 Y1 3.251474 1_556
Al1 Y0 3.251474 1_555
Al1 Y17 3.296399 1_555
Al1 Y19 3.296404 1_555
Al1 Y12 3.416966 1_556
Al1 Y3 3.416966 1_555
Al1 Y10 3.476681 1_555
Al1 Y7 3.476681 1_555
Al1 Y8 3.476681 1_455
Al1 Y5 3.476681 1_455
Al2 Y1 3.251474 1_666
Al2 Y0 3.251474 1_665
Al2 Y17 3.296399 1_555
Al2 Y18 3.296404 1_555
Al2 Y13 3.416966 1_556
Al2 Y4 3.416966 1_555
Al2 Y8 3.476681 1_565
Al2 Y5 3.476681 1_565
Al2 Y9 3.476681 1_555
Al2 Y6 3.476681 1_555
Ru0 Y3 2.750745 1_555
Ru0 Y12 2.750745 1_555
Ru0 Y4 2.750745 1_555
Ru0 Y13 2.750745 1_555
Ru0 Y2 2.750751 1_555
Ru0 Y11 2.750751 1_555
Ru1 Y9 2.768492 1_555
Ru1 Y6 2.768492 1_555
Ru1 Y10 2.768493 1_555
Ru1 Y7 2.768493 1_555
Ru1 Y8 2.768493 1_555
Ru1 Y5 2.768493 1_555
Ru1 Y18 3.451522 1_545
Ru1 Y19 3.451523 1_655
Ru1 Y17 3.451531 1_555
Au0 Y16 2.944101 1_555
Au0 Y15 2.944101 1_555
Au0 Y0 2.961412 1_655
Au0 Y1 2.961412 1_655
Au0 Y5 3.219250 1_555
Au0 Y8 3.219250 1_554
Au0 Y4 3.540100 1_545
Au0 Y13 3.540100 1_545
Au0 Y3 3.540100 1_655
Au0 Y12 3.540100 1_655
Au1 Y14 2.944105 1_555
Au1 Y16 2.944111 1_555
Au1 Y0 2.961406 1_665
Au1 Y1 2.961406 1_665
Au1 Y6 3.219257 1_555
Au1 Y9 3.219257 1_554
Au1 Y2 3.540097 1_655
Au1 Y11 3.540097 1_655
Au1 Y4 3.540105 1_555
Au1 Y13 3.540105 1_555
Au2 Y14 2.944105 1_555
Au2 Y15 2.944111 1_555
Au2 Y0 2.961406 1_555
Au2 Y1 2.961406 1_555
Au2 Y7 3.219257 1_555
Au2 Y10 3.219257 1_554
Au2 Y2 3.540097 1_545
Au2 Y11 3.540097 1_545
Au2 Y3 3.540105 1_555
Au2 Y12 3.540105 1_555
