# generated using pymatgen
data_Sc6Be14AlCu8
_symmetry_space_group_name_H-M   'P 1'
_cell_length_a   7.93053577
_cell_length_b   7.93053588
_cell_length_c   7.93053533
_cell_angle_alpha   60.00000231
_cell_angle_beta   60.00000182
_cell_angle_gamma   60.00000407
_symmetry_Int_Tables_number   1
_chemical_formula_structural   Sc6Be14AlCu8
_chemical_formula_sum   'Sc6 Be14 Al1 Cu8'
_cell_volume   352.68955326
_cell_formula_units_Z   1
loop_
 _symmetry_equiv_pos_site_id
 _symmetry_equiv_pos_as_xyz
  1  'x, y, z'
loop_
 _atom_site_type_symbol
 _atom_site_label
 _atom_site_symmetry_multiplicity
 _atom_site_fract_x
 _atom_site_fract_y
 _atom_site_fract_z
 _atom_site_occupancy
  Sc  Sc0  1  0.70616033  0.29383967  0.29383967  1
  Sc  Sc1  1  0.29383967  0.70616033  0.70616033  1
  Sc  Sc2  1  0.29383967  0.70616033  0.29383967  1
  Sc  Sc3  1  0.70616033  0.29383967  0.70616033  1
  Sc  Sc4  1  0.29383967  0.29383967  0.70616033  1
  Sc  Sc5  1  0.70616033  0.70616033  0.29383967  1
  Be  Be0  1  0.32163694  0.32163694  0.32163694  1
  Be  Be1  1  0.67836306  0.67836306  0.67836306  1
  Be  Be2  1  0.32163694  0.32163694  0.03509017  1
  Be  Be3  1  0.32163694  0.03509017  0.32163694  1
  Be  Be4  1  0.67836306  0.67836306  0.96490983  1
  Be  Be5  1  0.67836306  0.96490983  0.67836306  1
  Be  Be6  1  0.03509017  0.32163694  0.32163694  1
  Be  Be7  1  0.96490983  0.67836306  0.67836306  1
  Be  Be8  1  0.50000000  0.00000000  0.00000000  1
  Be  Be9  1  0.00000000  0.50000000  0.50000000  1
  Be  Be10  1  0.00000000  0.50000000  0.00000000  1
  Be  Be11  1  0.50000000  0.00000000  0.50000000  1
  Be  Be12  1  0.00000000  0.00000000  0.50000000  1
  Be  Be13  1  0.50000000  0.50000000  0.00000000  1
  Al  Al0  1  0.00000000  0.00000000  0.00000000  1
  Cu  Cu0  1  0.12719521  0.12719521  0.12719521  1
  Cu  Cu1  1  0.87280479  0.87280479  0.87280479  1
  Cu  Cu2  1  0.12719521  0.12719521  0.61841636  1
  Cu  Cu3  1  0.12719521  0.61841636  0.12719521  1
  Cu  Cu4  1  0.87280479  0.87280479  0.38158364  1
  Cu  Cu5  1  0.87280479  0.38158364  0.87280479  1
  Cu  Cu6  1  0.61841636  0.12719521  0.12719521  1
  Cu  Cu7  1  0.38158364  0.87280479  0.87280479  1
loop_
_geom_bond_atom_site_label_1
_geom_bond_atom_site_label_2
_geom_bond_distance
_geom_bond_site_symmetry_2
Be0 Be2 2.272469 1_555
Be0 Be6 2.272469 1_555
Be0 Be3 2.272469 1_555
Be0 Be13 2.300596 1_555
Be0 Be9 2.300596 1_555
Be0 Be11 2.300596 1_555
Be0 Cu2 2.326882 1_555
Be0 Cu6 2.326882 1_555
Be0 Cu3 2.326882 1_555
Be0 Sc4 2.846155 1_555
Be0 Sc0 2.846155 1_555
Be0 Sc2 2.846155 1_555
Be1 Be4 2.272469 1_555
Be1 Be7 2.272469 1_555
Be1 Be5 2.272469 1_555
Be1 Be13 2.300596 1_556
Be1 Be9 2.300596 1_655
Be1 Be11 2.300596 1_565
Be1 Cu4 2.326882 1_555
Be1 Cu7 2.326882 1_555
Be1 Cu5 2.326882 1_555
Be1 Sc5 2.846155 1_555
Be1 Sc1 2.846155 1_555
Be1 Sc3 2.846155 1_555
Be2 Be6 2.272469 1_555
Be2 Be3 2.272469 1_555
Be2 Be8 2.300599 1_555
Be2 Cu0 2.326879 1_555
Be2 Cu6 2.326886 1_555
Be2 Cu3 2.326886 1_555
Be2 Sc3 2.846159 1_554
Be2 Sc1 2.846159 1_554
Be2 Sc4 2.846163 1_554
Be3 Be6 2.272470 1_555
Be3 Be8 2.300599 1_555
Be3 Cu0 2.326879 1_555
Be3 Cu2 2.326885 1_555
Be3 Cu6 2.326885 1_555
Be3 Sc1 2.846159 1_545
Be3 Sc5 2.846159 1_545
Be3 Sc2 2.846163 1_545
Be4 Be7 2.272469 1_555
Be4 Be5 2.272469 1_555
Be4 Be8 2.300599 1_566
Be4 Cu1 2.326879 1_555
Be4 Cu7 2.326886 1_555
Be4 Cu5 2.326886 1_555
Be4 Sc2 2.846159 1_556
Be4 Sc0 2.846159 1_556
Be4 Sc5 2.846163 1_556
Be5 Be7 2.272470 1_555
Be5 Be8 2.300599 1_566
Be5 Cu1 2.326879 1_555
Be5 Cu4 2.326885 1_555
Be5 Cu7 2.326885 1_555
Be5 Sc0 2.846159 1_565
Be5 Sc4 2.846159 1_565
Be5 Sc3 2.846163 1_565
Be6 Be9 2.300592 1_555
Be6 Cu0 2.326879 1_555
Be6 Cu2 2.326885 1_555
Be6 Cu3 2.326885 1_555
Be6 Sc3 2.846159 1_455
Be6 Sc5 2.846159 1_455
Be6 Sc0 2.846163 1_455
Be7 Be9 2.300592 1_655
Be7 Cu1 2.326879 1_555
Be7 Cu4 2.326885 1_555
Be7 Cu5 2.326885 1_555
Be7 Sc2 2.846159 1_655
Be7 Sc4 2.846159 1_655
Be7 Sc1 2.846163 1_655
Be8 Cu1 2.414341 1_544
Be8 Cu0 2.414341 1_555
Be8 Cu6 2.414354 1_555
Be8 Cu7 2.414354 1_544
Be8 Sc5 2.846652 1_545
Be8 Sc4 2.846652 1_554
Be8 Sc3 2.846652 1_554
Be8 Sc2 2.846652 1_545
Be9 Cu5 2.414341 1_455
Be9 Cu3 2.414341 1_555
Be9 Cu4 2.414341 1_455
Be9 Cu2 2.414341 1_555
Be9 Sc4 2.846652 1_555
Be9 Sc5 2.846652 1_455
Be9 Sc2 2.846652 1_555
Be9 Sc3 2.846652 1_455
Be10 Be6 2.300599 1_555
Be10 Be7 2.300599 1_454
Be10 Be2 2.300599 1_555
Be10 Be4 2.300599 1_454
Be10 Cu1 2.414341 1_454
Be10 Cu0 2.414341 1_555
Be10 Cu3 2.414354 1_555
Be10 Cu5 2.414354 1_454
Be10 Sc5 2.846652 1_455
Be10 Sc4 2.846652 1_554
Be10 Sc1 2.846652 1_554
Be10 Sc0 2.846652 1_455
Be11 Be5 2.300592 1_545
Be11 Be3 2.300592 1_555
Be11 Cu7 2.414341 1_545
Be11 Cu6 2.414341 1_555
Be11 Cu4 2.414341 1_545
Be11 Cu2 2.414341 1_555
Be11 Sc4 2.846652 1_555
Be11 Sc5 2.846652 1_545
Be11 Sc0 2.846652 1_555
Be11 Sc1 2.846652 1_545
Be12 Be3 2.300599 1_555
Be12 Be5 2.300599 1_445
Be12 Be6 2.300599 1_555
Be12 Be7 2.300599 1_445
Be12 Cu1 2.414341 1_445
Be12 Cu0 2.414341 1_555
Be12 Cu2 2.414354 1_555
Be12 Cu4 2.414354 1_445
Be12 Sc1 2.846652 1_545
Be12 Sc3 2.846652 1_455
Be12 Sc2 2.846652 1_545
Be12 Sc0 2.846652 1_455
Be13 Be4 2.300592 1_554
Be13 Be2 2.300592 1_555
Be13 Cu5 2.414341 1_554
Be13 Cu3 2.414341 1_555
Be13 Cu7 2.414341 1_554
Be13 Cu6 2.414341 1_555
Be13 Sc2 2.846652 1_555
Be13 Sc0 2.846652 1_555
Be13 Sc3 2.846652 1_554
Be13 Sc1 2.846652 1_554
Al0 Cu4 2.470851 1_445
Al0 Cu2 2.470851 1_554
Al0 Cu7 2.470852 1_544
Al0 Cu6 2.470852 1_455
Al0 Cu5 2.470852 1_454
Al0 Cu3 2.470852 1_545
Al0 Cu0 2.470864 1_555
Al0 Cu1 2.470864 1_444
Cu0 Sc4 2.750138 1_554
Cu0 Sc0 2.750138 1_455
Cu0 Sc2 2.750138 1_545
Cu1 Sc5 2.750138 1_556
Cu1 Sc1 2.750138 1_655
Cu1 Sc3 2.750138 1_565
Cu2 Sc4 2.750127 1_555
Cu2 Sc3 2.750140 1_455
Cu2 Sc1 2.750140 1_545
Cu3 Sc2 2.750127 1_555
Cu3 Sc1 2.750140 1_554
Cu3 Sc5 2.750140 1_455
Cu4 Sc5 2.750127 1_555
Cu4 Sc2 2.750140 1_655
Cu4 Sc0 2.750140 1_565
Cu5 Sc3 2.750127 1_555
Cu5 Sc0 2.750140 1_556
Cu5 Sc4 2.750140 1_655
Cu6 Sc0 2.750127 1_555
Cu6 Sc3 2.750140 1_554
Cu6 Sc5 2.750140 1_545
Cu7 Sc1 2.750127 1_555
Cu7 Sc2 2.750140 1_556
Cu7 Sc4 2.750140 1_565
