# generated using pymatgen
data_Zr6Ti4Ga12Rh7
_symmetry_space_group_name_H-M   'P 1'
_cell_length_a   8.72251648
_cell_length_b   8.72251734
_cell_length_c   8.72251776
_cell_angle_alpha   60.00000584
_cell_angle_beta   60.00000258
_cell_angle_gamma   60.00000498
_symmetry_Int_Tables_number   1
_chemical_formula_structural   Zr6Ti4Ga12Rh7
_chemical_formula_sum   'Zr6 Ti4 Ga12 Rh7'
_cell_volume   469.25677187
_cell_formula_units_Z   1
loop_
 _symmetry_equiv_pos_site_id
 _symmetry_equiv_pos_as_xyz
  1  'x, y, z'
loop_
 _atom_site_type_symbol
 _atom_site_label
 _atom_site_symmetry_multiplicity
 _atom_site_fract_x
 _atom_site_fract_y
 _atom_site_fract_z
 _atom_site_occupancy
  Zr  Zr0  1  0.69533155  0.69533155  0.30466845  1
  Zr  Zr1  1  0.30466845  0.69533155  0.30466845  1
  Zr  Zr2  1  0.69533155  0.30466845  0.30466845  1
  Zr  Zr3  1  0.30466845  0.30466845  0.69533155  1
  Zr  Zr4  1  0.69533155  0.30466845  0.69533155  1
  Zr  Zr5  1  0.30466845  0.69533155  0.69533155  1
  Ti  Ti0  1  0.87874621  0.87874621  0.36376238  1
  Ti  Ti1  1  0.87874621  0.36376238  0.87874621  1
  Ti  Ti2  1  0.36376238  0.87874621  0.87874621  1
  Ti  Ti3  1  0.87874621  0.87874621  0.87874621  1
  Ga  Ga0  1  0.11998311  0.11998311  0.64005067  1
  Ga  Ga1  1  0.11998311  0.64005067  0.11998311  1
  Ga  Ga2  1  0.64005067  0.11998311  0.11998311  1
  Ga  Ga3  1  0.11998311  0.11998311  0.11998311  1
  Ga  Ga4  1  0.65960081  0.65960081  0.02119556  1
  Ga  Ga5  1  0.65960081  0.02119556  0.65960081  1
  Ga  Ga6  1  0.02119556  0.65960081  0.65960081  1
  Ga  Ga7  1  0.65960081  0.65960081  0.65960081  1
  Ga  Ga8  1  0.33982435  0.33982435  0.98052894  1
  Ga  Ga9  1  0.33982435  0.98052894  0.33982435  1
  Ga  Ga10  1  0.98052894  0.33982435  0.33982435  1
  Ga  Ga11  1  0.33982435  0.33982435  0.33982435  1
  Rh  Rh0  1  0.00000000  0.00000000  0.00000000  1
  Rh  Rh1  1  0.99753149  0.99753149  0.50246851  1
  Rh  Rh2  1  0.50246851  0.99753149  0.50246851  1
  Rh  Rh3  1  0.99753149  0.50246851  0.50246851  1
  Rh  Rh4  1  0.50246851  0.50246851  0.99753149  1
  Rh  Rh5  1  0.99753149  0.50246851  0.99753149  1
  Rh  Rh6  1  0.50246851  0.99753149  0.99753149  1
loop_
_geom_bond_atom_site_label_1
_geom_bond_atom_site_label_2
_geom_bond_distance
_geom_bond_site_symmetry_2
Ti0 Zr1 3.097313 1_655
Ti0 Zr2 3.097313 1_565
Ti0 Zr0 3.097320 1_555
Ti1 Zr3 3.097313 1_655
Ti1 Zr2 3.097313 1_556
Ti1 Zr4 3.097320 1_555
Ti2 Zr3 3.097313 1_565
Ti2 Zr1 3.097313 1_556
Ti2 Zr5 3.097320 1_555
Ti3 Zr5 3.097314 1_655
Ti3 Zr4 3.097315 1_565
Ti3 Zr0 3.097315 1_556
Ga0 Rh0 2.563525 1_556
Ga0 Rh2 2.725090 1_545
Ga0 Rh1 2.725090 1_445
Ga0 Rh3 2.725091 1_455
Ga0 Ga9 2.801020 1_545
Ga0 Ga10 2.801020 1_455
Ga0 Ga11 2.801030 1_555
Ga0 Ti3 2.975861 1_445
Ga0 Ti2 2.975867 1_545
Ga0 Ti1 2.975867 1_455
Ga0 Zr3 3.093742 1_555
Ga0 Zr4 3.093742 1_455
Ga0 Zr5 3.093742 1_545
Ga1 Rh0 2.563525 1_565
Ga1 Rh4 2.725090 1_554
Ga1 Rh5 2.725090 1_454
Ga1 Rh3 2.725091 1_455
Ga1 Ga10 2.801020 1_455
Ga1 Ga8 2.801020 1_554
Ga1 Ga11 2.801030 1_555
Ga1 Ti3 2.975861 1_454
Ga1 Ti2 2.975867 1_554
Ga1 Ti0 2.975867 1_455
Ga1 Zr0 3.093742 1_455
Ga1 Zr1 3.093742 1_555
Ga1 Zr5 3.093743 1_554
Ga2 Rh0 2.563525 1_655
Ga2 Rh6 2.725090 1_544
Ga2 Rh4 2.725091 1_554
Ga2 Rh2 2.725091 1_545
Ga2 Ga9 2.801020 1_545
Ga2 Ga8 2.801020 1_554
Ga2 Ti3 2.975861 1_544
Ga2 Ti1 2.975867 1_554
Ga2 Ti0 2.975867 1_545
Ga2 Zr2 3.093742 1_555
Ga2 Zr0 3.093742 1_545
Ga2 Zr4 3.093743 1_554
Ga3 Rh0 2.563525 1_555
Ga3 Rh6 2.725090 1_544
Ga3 Rh5 2.725091 1_454
Ga3 Rh1 2.725091 1_445
Ga3 Ga8 2.801034 1_554
Ga3 Ga9 2.801034 1_545
Ga3 Ti0 2.975861 1_445
Ga3 Ti2 2.975861 1_544
Ga3 Ti1 2.975861 1_454
Ga3 Zr2 3.093742 1_455
Ga3 Zr1 3.093743 1_545
Ga3 Zr3 3.093743 1_554
Ga4 Rh4 2.498791 1_554
Ga4 Rh5 2.498806 1_554
Ga4 Rh6 2.498806 1_554
Ga4 Ti2 2.784795 1_554
Ga4 Ti1 2.784795 1_554
Ga4 Ti3 2.784815 1_554
Ga4 Zr1 2.818919 1_555
Ga4 Zr2 2.818920 1_555
Ga4 Zr0 2.818930 1_555
Ga5 Rh2 2.498791 1_545
Ga5 Rh1 2.498806 1_545
Ga5 Rh6 2.498806 1_545
Ga5 Ti2 2.784794 1_545
Ga5 Ti0 2.784795 1_545
Ga5 Ti3 2.784816 1_545
Ga5 Zr3 2.818919 1_555
Ga5 Zr2 2.818920 1_555
Ga5 Zr4 2.818930 1_555
Ga6 Rh3 2.498791 1_455
Ga6 Rh1 2.498806 1_455
Ga6 Rh5 2.498807 1_455
Ga6 Ti1 2.784795 1_455
Ga6 Ti0 2.784795 1_455
Ga6 Ti3 2.784816 1_455
Ga6 Zr1 2.818919 1_555
Ga6 Zr3 2.818919 1_555
Ga6 Zr5 2.818930 1_555
Ga7 Rh3 2.498802 1_555
Ga7 Rh4 2.498802 1_555
Ga7 Rh2 2.498802 1_555
Ga7 Ti0 2.784809 1_555
Ga7 Ti2 2.784809 1_555
Ga7 Ti1 2.784810 1_555
Ga7 Zr5 2.818912 1_555
Ga7 Zr4 2.818913 1_555
Ga7 Zr0 2.818913 1_555
Ga8 Rh4 2.545708 1_555
Ga8 Rh5 2.545723 1_455
Ga8 Rh6 2.545723 1_545
Ga8 Zr4 2.827728 1_555
Ga8 Zr5 2.827729 1_555
Ga8 Zr3 2.827739 1_555
Ga9 Rh2 2.545708 1_555
Ga9 Rh1 2.545723 1_455
Ga9 Rh6 2.545723 1_554
Ga9 Zr0 2.827728 1_555
Ga9 Zr5 2.827729 1_555
Ga9 Zr1 2.827739 1_555
Ga10 Rh3 2.545708 1_555
Ga10 Rh1 2.545723 1_545
Ga10 Rh5 2.545723 1_554
Ga10 Ga3 2.801034 1_655
Ga10 Zr4 2.827728 1_555
Ga10 Zr0 2.827728 1_555
Ga10 Zr2 2.827738 1_555
Ga11 Rh3 2.545719 1_455
Ga11 Rh4 2.545719 1_554
Ga11 Rh2 2.545719 1_545
Ga11 Ga2 2.801030 1_555
Ga11 Zr2 2.827721 1_555
Ga11 Zr1 2.827722 1_555
Ga11 Zr3 2.827722 1_555
Rh0 Ti3 2.590674 1_444
Rh0 Ti2 2.590681 1_544
Rh0 Ti1 2.590682 1_454
Rh0 Ti0 2.590682 1_445
Rh1 Ti0 2.681684 1_555
Rh1 Ti3 2.681692 1_555
Rh1 Zr5 3.156894 1_655
Rh1 Zr1 3.156894 1_655
Rh1 Zr4 3.156894 1_565
Rh1 Zr2 3.156894 1_565
Rh2 Ti0 2.681691 1_555
Rh2 Ti2 2.681692 1_555
Rh2 Zr5 3.156894 1_555
Rh2 Zr2 3.156894 1_565
Rh2 Zr0 3.156894 1_555
Rh2 Zr3 3.156894 1_565
Rh3 Ti0 2.681691 1_555
Rh3 Ti1 2.681692 1_555
Rh3 Zr4 3.156894 1_555
Rh3 Zr1 3.156894 1_655
Rh3 Zr3 3.156894 1_655
Rh3 Zr0 3.156894 1_555
Rh4 Ti1 2.681691 1_555
Rh4 Ti2 2.681691 1_555
Rh4 Zr5 3.156894 1_555
Rh4 Zr4 3.156894 1_555
Rh4 Zr1 3.156894 1_556
Rh4 Zr2 3.156894 1_556
Rh5 Ti1 2.681684 1_555
Rh5 Ti3 2.681692 1_555
Rh5 Zr5 3.156894 1_655
Rh5 Zr2 3.156894 1_556
Rh5 Zr3 3.156894 1_655
Rh5 Zr0 3.156894 1_556
Rh6 Ti2 2.681684 1_555
Rh6 Ti3 2.681691 1_555
Rh6 Zr4 3.156894 1_565
Rh6 Zr1 3.156894 1_556
Rh6 Zr3 3.156894 1_565
Rh6 Zr0 3.156894 1_556
