# generated using pymatgen
data_Pt4I7Cl5
_symmetry_space_group_name_H-M   'P 1'
_cell_length_a   6.69967231
_cell_length_b   6.67155911
_cell_length_c   12.89552984
_cell_angle_alpha   85.39934267
_cell_angle_beta   83.71748558
_cell_angle_gamma   119.63058080
_symmetry_Int_Tables_number   1
_chemical_formula_structural   Pt4I7Cl5
_chemical_formula_sum   'Pt4 I7 Cl5'
_cell_volume   491.95720629
_cell_formula_units_Z   1
loop_
 _symmetry_equiv_pos_site_id
 _symmetry_equiv_pos_as_xyz
  1  'x, y, z'
loop_
 _atom_site_type_symbol
 _atom_site_label
 _atom_site_symmetry_multiplicity
 _atom_site_fract_x
 _atom_site_fract_y
 _atom_site_fract_z
 _atom_site_occupancy
  Pt  Pt0  1  0.91152536  0.08210678  0.25228217  1
  Pt  Pt1  1  0.08917857  0.91448858  0.74664418  1
  Pt  Pt2  1  0.49367043  0.00891303  0.50435849  1
  Pt  Pt3  1  0.00355027  0.49093022  0.99639612  1
  I  I0  1  0.35503786  0.84675467  0.87002513  1
  I  I1  1  0.85208567  0.34980950  0.38147282  1
  I  I2  1  0.64934372  0.13962855  0.12342258  1
  I  I3  1  0.74232195  0.53418397  0.87151763  1
  I  I4  1  0.44481237  0.28558885  0.62214021  1
  I  I5  1  0.26516284  0.44413092  0.12041783  1
  I  I6  1  0.54441424  0.73438883  0.38493477  1
  Cl  Cl0  1  0.16831537  0.05298166  0.35561058  1
  Cl  Cl1  1  0.94102063  0.81994944  0.14833992  1
  Cl  Cl2  1  0.83060131  0.94428227  0.64557746  1
  Cl  Cl3  1  0.04512602  0.15224578  0.85784552  1
  Cl  Cl4  1  0.16383540  0.69961694  0.61901361  1
loop_
_geom_bond_atom_site_label_1
_geom_bond_atom_site_label_2
_geom_bond_distance
_geom_bond_site_symmetry_2
I0 Pt3 2.616922 1_555
I0 Pt1 2.684967 1_555
I1 Pt2 2.576559 1_555
I1 Pt0 2.675677 1_555
I2 Pt3 2.615634 1_654
I2 Pt0 2.682728 1_555
I3 Pt3 2.604085 1_655
I3 Pt1 2.669501 1_655
I4 Pt2 2.599936 1_555
I4 Pt1 2.660168 1_545
I5 Pt3 2.608039 1_554
I5 Pt0 2.671979 1_455
I6 Pt2 2.606772 1_565
I6 Pt0 2.675410 1_565
Cl0 Pt0 2.358768 1_455
Cl1 Pt0 2.356809 1_565
Cl2 Pt1 2.352098 1_655
Cl3 Pt1 2.322652 1_545
Cl3 Pt3 3.088116 1_555
Cl4 Pt2 2.369357 1_565
Cl4 Pt1 2.433386 1_555
