# generated using pymatgen
data_CsP2OsPt
_symmetry_space_group_name_H-M   'P 1'
_cell_length_a   7.81533349
_cell_length_b   7.81533390
_cell_length_c   7.81533295
_cell_angle_alpha   150.62722309
_cell_angle_beta   150.62721150
_cell_angle_gamma   42.02148677
_symmetry_Int_Tables_number   1
_chemical_formula_structural   CsP2OsPt
_chemical_formula_sum   'Cs1 P2 Os1 Pt1'
_cell_volume   114.57121810
_cell_formula_units_Z   1
loop_
 _symmetry_equiv_pos_site_id
 _symmetry_equiv_pos_as_xyz
  1  'x, y, z'
loop_
 _atom_site_type_symbol
 _atom_site_label
 _atom_site_symmetry_multiplicity
 _atom_site_fract_x
 _atom_site_fract_y
 _atom_site_fract_z
 _atom_site_occupancy
  Cs  Cs0  1  0.00000000  0.00000000  0.00000000  1
  P  P0  1  0.66170167  0.66170167  1.00000000  1
  P  P1  1  0.33829833  0.33829833  0.00000000  1
  Os  Os0  1  0.75000000  0.25000000  0.50000000  1
  Pt  Pt0  1  0.25000000  0.75000000  0.50000000  1
loop_
_geom_bond_atom_site_label_1
_geom_bond_atom_site_label_2
_geom_bond_distance
_geom_bond_site_symmetry_2
Cs0 P1 3.663195 1_556
Cs0 P0 3.663195 1_443
Cs0 P1 3.663195 1_455
Cs0 P0 3.663195 1_544
Cs0 P0 3.663195 1_454
Cs0 P1 3.663195 1_545
Cs0 P0 3.663196 1_555
Cs0 P1 3.663196 1_444
P0 Pt0 2.363461 1_555
P0 Pt0 2.363461 1_656
P1 Pt0 2.363460 1_555
P1 Pt0 2.363461 1_544
Os0 P0 2.363460 1_555
Os0 P0 2.363461 1_544
Os0 P1 2.363461 1_555
Os0 P1 2.363461 1_656
Os0 Pt0 2.802133 1_656
Os0 Pt0 2.802133 1_544
Os0 Pt0 2.802133 1_555
Os0 Pt0 2.802133 1_645
