# generated using pymatgen
data_Be7VGeMo3
_symmetry_space_group_name_H-M   'P 1'
_cell_length_a   4.46039347
_cell_length_b   4.46039367
_cell_length_c   7.41180586
_cell_angle_alpha   90.00000000
_cell_angle_beta   90.00000000
_cell_angle_gamma   120.00000581
_symmetry_Int_Tables_number   1
_chemical_formula_structural   Be7VGeMo3
_chemical_formula_sum   'Be7 V1 Ge1 Mo3'
_cell_volume   127.70297147
_cell_formula_units_Z   1
loop_
 _symmetry_equiv_pos_site_id
 _symmetry_equiv_pos_as_xyz
  1  'x, y, z'
loop_
 _atom_site_type_symbol
 _atom_site_label
 _atom_site_symmetry_multiplicity
 _atom_site_fract_x
 _atom_site_fract_y
 _atom_site_fract_z
 _atom_site_occupancy
  Be  Be0  1  0.00000000  0.00000000  0.00086036  1
  Be  Be1  1  0.82752480  0.17247520  0.24032350  1
  Be  Be2  1  0.82752480  0.65504760  0.24032350  1
  Be  Be3  1  0.34495240  0.17247520  0.24032350  1
  Be  Be4  1  0.17229001  0.82770999  0.75980994  1
  Be  Be5  1  0.17229001  0.34458102  0.75980994  1
  Be  Be6  1  0.65541898  0.82770999  0.75980994  1
  V  V0  1  0.33333300  0.66666700  0.43625690  1
  Ge  Ge0  1  0.00000000  0.00000000  0.49786641  1
  Mo  Mo0  1  0.66666700  0.33333300  0.56314724  1
  Mo  Mo1  1  0.66666700  0.33333300  0.93740896  1
  Mo  Mo2  1  0.33333300  0.66666700  0.06405682  1
loop_
_geom_bond_atom_site_label_1
_geom_bond_atom_site_label_2
_geom_bond_distance
_geom_bond_site_symmetry_2
Be0 Be1 2.219371 1_455
Be0 Be3 2.219376 1_555
Be0 Be2 2.219376 1_445
Be0 Be4 2.227936 1_544
Be0 Be6 2.227938 1_444
Be0 Be5 2.227938 1_554
Be0 Mo2 2.617459 1_545
Be0 Mo2 2.617462 1_445
Be0 Mo2 2.617462 1_555
Be0 Mo1 2.617797 1_454
Be0 Mo1 2.617801 1_554
Be0 Mo1 2.617801 1_444
Be1 Be3 2.152463 1_555
Be1 Be2 2.152463 1_555
Be1 Be3 2.307931 1_655
Be1 Be2 2.307931 1_545
Be1 Ge0 2.327926 1_655
Be1 Mo1 2.566134 1_554
Be1 Mo2 2.585075 1_655
Be1 Mo2 2.585075 1_545
Be1 V0 2.661716 1_655
Be1 V0 2.661716 1_545
Be1 Mo0 2.696186 1_555
Be2 Be3 2.152463 1_555
Be2 Be3 2.307931 1_665
Be2 Ge0 2.327931 1_665
Be2 Mo1 2.566132 1_554
Be2 Mo2 2.585070 1_655
Be2 Mo2 2.585081 1_555
Be2 V0 2.661711 1_655
Be2 V0 2.661722 1_555
Be2 Mo0 2.696184 1_555
Be3 Ge0 2.327931 1_555
Be3 Mo1 2.566132 1_554
Be3 Mo2 2.585070 1_545
Be3 Mo2 2.585081 1_555
Be3 V0 2.661711 1_545
Be3 V0 2.661722 1_555
Be3 Mo0 2.696184 1_555
Be4 Be6 2.154945 1_555
Be4 Be5 2.154945 1_555
Be4 Be6 2.305448 1_455
Be4 Be5 2.305448 1_565
Be4 Ge0 2.353936 1_565
Be4 Mo2 2.575469 1_556
Be4 Mo1 2.590055 1_455
Be4 Mo1 2.590055 1_565
Be4 Mo0 2.664646 1_455
Be4 Mo0 2.664646 1_565
Be4 V0 2.701643 1_555
Be5 Be6 2.154945 1_555
Be5 Be6 2.305448 1_445
Be5 Ge0 2.353938 1_555
Be5 Mo2 2.575469 1_556
Be5 Mo1 2.590052 1_455
Be5 Mo1 2.590060 1_555
Be5 Mo0 2.664642 1_455
Be5 Mo0 2.664650 1_555
Be5 V0 2.701643 1_555
Be6 Ge0 2.353938 1_665
Be6 Mo2 2.575469 1_556
Be6 Mo1 2.590052 1_565
Be6 Mo1 2.590060 1_555
Be6 Mo0 2.664642 1_565
Be6 Mo0 2.664650 1_555
Be6 V0 2.701643 1_555
Ge0 V0 2.615379 1_545
Ge0 V0 2.615383 1_445
Ge0 V0 2.615383 1_555
Ge0 Mo0 2.620267 1_455
Ge0 Mo0 2.620271 1_555
Ge0 Mo0 2.620271 1_445
Mo0 V0 2.741570 1_655
Mo0 V0 2.741570 1_545
Mo0 V0 2.741577 1_555
Mo0 Mo1 2.773955 1_555
Mo2 V0 2.758675 1_555
