# generated using pymatgen
data_Zr6Al16Ni6Ru
_symmetry_space_group_name_H-M   'P 1'
_cell_length_a   8.51771775
_cell_length_b   8.51771834
_cell_length_c   8.51771923
_cell_angle_alpha   60.00000035
_cell_angle_beta   59.99999808
_cell_angle_gamma   59.99999877
_symmetry_Int_Tables_number   1
_chemical_formula_structural   Zr6Al16Ni6Ru
_chemical_formula_sum   'Zr6 Al16 Ni6 Ru1'
_cell_volume   436.97323140
_cell_formula_units_Z   1
loop_
 _symmetry_equiv_pos_site_id
 _symmetry_equiv_pos_as_xyz
  1  'x, y, z'
loop_
 _atom_site_type_symbol
 _atom_site_label
 _atom_site_symmetry_multiplicity
 _atom_site_fract_x
 _atom_site_fract_y
 _atom_site_fract_z
 _atom_site_occupancy
  Zr  Zr0  1  0.69289463  0.69289463  0.30710537  1
  Zr  Zr1  1  0.30710537  0.69289463  0.30710537  1
  Zr  Zr2  1  0.69289463  0.30710537  0.30710537  1
  Zr  Zr3  1  0.30710537  0.30710537  0.69289463  1
  Zr  Zr4  1  0.69289463  0.30710537  0.69289463  1
  Zr  Zr5  1  0.30710537  0.69289463  0.69289463  1
  Al  Al0  1  0.88025823  0.88025823  0.35922431  1
  Al  Al1  1  0.88025823  0.35922431  0.88025823  1
  Al  Al2  1  0.35922431  0.88025823  0.88025823  1
  Al  Al3  1  0.88025823  0.88025823  0.88025823  1
  Al  Al4  1  0.11974177  0.11974177  0.64077569  1
  Al  Al5  1  0.11974177  0.64077569  0.11974177  1
  Al  Al6  1  0.64077569  0.11974177  0.11974177  1
  Al  Al7  1  0.11974177  0.11974177  0.11974177  1
  Al  Al8  1  0.66668193  0.66668193  0.99995620  1
  Al  Al9  1  0.66668193  0.99995620  0.66668193  1
  Al  Al10  1  0.99995620  0.66668193  0.66668193  1
  Al  Al11  1  0.66668193  0.66668193  0.66668193  1
  Al  Al12  1  0.33331807  0.33331807  0.00004380  1
  Al  Al13  1  0.33331807  0.00004380  0.33331807  1
  Al  Al14  1  0.00004380  0.33331807  0.33331807  1
  Al  Al15  1  0.33331807  0.33331807  0.33331807  1
  Ni  Ni0  1  0.00000000  0.00000000  0.50000000  1
  Ni  Ni1  1  0.50000000  0.00000000  0.50000000  1
  Ni  Ni2  1  0.00000000  0.50000000  0.50000000  1
  Ni  Ni3  1  0.50000000  0.50000000  0.00000000  1
  Ni  Ni4  1  0.00000000  0.50000000  0.00000000  1
  Ni  Ni5  1  0.50000000  0.00000000  0.00000000  1
  Ru  Ru0  1  0.00000000  0.00000000  0.00000000  1
loop_
_geom_bond_atom_site_label_1
_geom_bond_atom_site_label_2
_geom_bond_distance
_geom_bond_site_symmetry_2
Al0 Ru0 2.498293 1_665
Al0 Ni1 2.646599 1_565
Al0 Ni2 2.646600 1_655
Al0 Ni0 2.646606 1_665
Al0 Al11 2.694123 1_555
Al0 Al9 2.694137 1_555
Al0 Al10 2.694137 1_555
Al0 Zr0 3.042175 1_555
Al0 Zr1 3.042182 1_655
Al0 Zr2 3.042182 1_565
Al1 Ru0 2.498293 1_656
Al1 Ni3 2.646599 1_556
Al1 Ni2 2.646600 1_655
Al1 Ni4 2.646606 1_656
Al1 Al11 2.694123 1_555
Al1 Al10 2.694137 1_555
Al1 Al8 2.694137 1_555
Al1 Zr4 3.042175 1_555
Al1 Zr3 3.042182 1_655
Al1 Zr2 3.042182 1_556
Al2 Ru0 2.498293 1_566
Al2 Ni3 2.646600 1_556
Al2 Ni1 2.646600 1_565
Al2 Ni5 2.646606 1_566
Al2 Al9 2.694136 1_555
Al2 Al8 2.694136 1_555
Al2 Zr5 3.042175 1_555
Al2 Zr3 3.042182 1_565
Al2 Zr1 3.042182 1_556
Al3 Ru0 2.498300 1_666
Al3 Ni5 2.646599 1_566
Al3 Ni4 2.646599 1_656
Al3 Ni0 2.646600 1_665
Al3 Al8 2.694115 1_555
Al3 Al9 2.694116 1_555
Al3 Zr5 3.042180 1_655
Al3 Zr4 3.042180 1_565
Al3 Zr0 3.042181 1_556
Al4 Ru0 2.498293 1_556
Al4 Ni1 2.646599 1_555
Al4 Ni2 2.646600 1_555
Al4 Ni0 2.646606 1_555
Al4 Zr3 3.042175 1_555
Al4 Zr4 3.042182 1_455
Al4 Zr5 3.042182 1_545
Al5 Ru0 2.498293 1_565
Al5 Ni3 2.646599 1_555
Al5 Ni2 2.646600 1_555
Al5 Ni4 2.646606 1_555
Al5 Zr1 3.042175 1_555
Al5 Zr0 3.042182 1_455
Al5 Zr5 3.042182 1_554
Al6 Ru0 2.498293 1_655
Al6 Ni3 2.646600 1_555
Al6 Ni1 2.646600 1_555
Al6 Ni5 2.646606 1_555
Al6 Zr2 3.042175 1_555
Al6 Zr0 3.042182 1_545
Al6 Zr4 3.042182 1_554
Al7 Ru0 2.498300 1_555
Al7 Ni5 2.646599 1_555
Al7 Ni4 2.646599 1_555
Al7 Ni0 2.646600 1_555
Al7 Zr2 3.042180 1_455
Al7 Zr1 3.042180 1_545
Al7 Zr3 3.042181 1_554
Al8 Ni4 2.458848 1_656
Al8 Ni5 2.458849 1_566
Al8 Ni3 2.458863 1_556
Al8 Al9 2.838736 1_555
Al8 Zr0 2.856985 1_556
Al8 Zr1 2.856994 1_556
Al8 Zr2 2.856995 1_556
Al9 Ni0 2.458848 1_665
Al9 Ni5 2.458849 1_566
Al9 Ni1 2.458863 1_565
Al9 Zr4 2.856985 1_565
Al9 Zr3 2.856994 1_565
Al9 Zr2 2.856995 1_565
Al10 Ni0 2.458849 1_665
Al10 Ni4 2.458849 1_656
Al10 Ni2 2.458863 1_655
Al10 Al3 2.694116 1_555
Al10 Al11 2.838736 1_555
Al10 Al9 2.838736 1_555
Al10 Al8 2.838736 1_555
Al10 Zr5 2.856985 1_655
Al10 Zr3 2.856994 1_655
Al10 Zr1 2.856995 1_655
Al11 Ni2 2.458853 1_655
Al11 Ni1 2.458854 1_565
Al11 Ni3 2.458854 1_556
Al11 Al2 2.694123 1_555
Al11 Al9 2.838736 1_555
Al11 Al8 2.838737 1_555
Al11 Zr5 2.857001 1_555
Al11 Zr4 2.857002 1_555
Al11 Zr0 2.857002 1_555
Al12 Ni4 2.458848 1_555
Al12 Ni5 2.458849 1_555
Al12 Ni3 2.458863 1_555
Al12 Al7 2.694115 1_555
Al12 Al6 2.694136 1_555
Al12 Al5 2.694137 1_555
Al12 Al14 2.838736 1_555
Al12 Al13 2.838736 1_555
Al12 Al15 2.838737 1_555
Al12 Zr3 2.856985 1_554
Al12 Zr4 2.856994 1_554
Al12 Zr5 2.856995 1_554
Al13 Ni0 2.458848 1_555
Al13 Ni5 2.458849 1_555
Al13 Ni1 2.458863 1_555
Al13 Al7 2.694116 1_555
Al13 Al6 2.694136 1_555
Al13 Al4 2.694137 1_555
Al13 Al14 2.838736 1_555
Al13 Al15 2.838736 1_555
Al13 Zr1 2.856985 1_545
Al13 Zr0 2.856994 1_545
Al13 Zr5 2.856995 1_545
Al14 Ni0 2.458849 1_555
Al14 Ni4 2.458849 1_555
Al14 Ni2 2.458863 1_555
Al14 Al7 2.694116 1_555
Al14 Al5 2.694137 1_555
Al14 Al4 2.694137 1_555
Al14 Al15 2.838736 1_555
Al14 Zr2 2.856985 1_455
Al14 Zr0 2.856994 1_455
Al14 Zr4 2.856995 1_455
Al15 Ni2 2.458853 1_555
Al15 Ni1 2.458854 1_555
Al15 Ni3 2.458854 1_555
Al15 Al6 2.694123 1_555
Al15 Al4 2.694123 1_555
Al15 Al5 2.694123 1_555
Al15 Zr2 2.857001 1_555
Al15 Zr1 2.857002 1_555
Al15 Zr3 2.857002 1_555
Ni0 Zr5 3.089033 1_545
Ni0 Zr2 3.089033 1_455
Ni0 Zr4 3.089033 1_455
Ni0 Zr1 3.089033 1_545
Ni1 Zr2 3.089033 1_555
Ni1 Zr5 3.089033 1_545
Ni1 Zr3 3.089033 1_555
Ni1 Zr0 3.089033 1_545
Ni2 Zr1 3.089033 1_555
Ni2 Zr4 3.089033 1_455
Ni2 Zr3 3.089033 1_555
Ni2 Zr0 3.089033 1_455
Ni3 Zr1 3.089033 1_555
Ni3 Zr4 3.089033 1_554
Ni3 Zr2 3.089033 1_555
Ni3 Zr5 3.089033 1_554
Ni4 Zr5 3.089033 1_554
Ni4 Zr2 3.089033 1_455
Ni4 Zr0 3.089033 1_455
Ni4 Zr3 3.089033 1_554
Ni5 Zr4 3.089033 1_554
Ni5 Zr1 3.089033 1_545
Ni5 Zr0 3.089033 1_545
Ni5 Zr3 3.089033 1_554
