# generated using pymatgen
data_NaCa21Ga9Sn5
_symmetry_space_group_name_H-M   'P 1'
_cell_length_a   11.42534044
_cell_length_b   11.41641267
_cell_length_c   11.42534143
_cell_angle_alpha   60.02585278
_cell_angle_beta   59.94830117
_cell_angle_gamma   60.02585447
_symmetry_Int_Tables_number   1
_chemical_formula_structural   NaCa21Ga9Sn5
_chemical_formula_sum   'Na1 Ca21 Ga9 Sn5'
_cell_volume   1053.78617135
_cell_formula_units_Z   1
loop_
 _symmetry_equiv_pos_site_id
 _symmetry_equiv_pos_as_xyz
  1  'x, y, z'
loop_
 _atom_site_type_symbol
 _atom_site_label
 _atom_site_symmetry_multiplicity
 _atom_site_fract_x
 _atom_site_fract_y
 _atom_site_fract_z
 _atom_site_occupancy
  Na  Na0  1  0.50024212  0.49975788  0.50024212  1
  Ca  Ca0  1  0.99900652  0.00099348  0.99900652  1
  Ca  Ca1  1  0.13037088  0.13072118  0.13037088  1
  Ca  Ca2  1  0.39146193  0.86962912  0.86927882  1
  Ca  Ca3  1  0.86751411  0.38892317  0.86751411  1
  Ca  Ca4  1  0.86927882  0.86962912  0.39146193  1
  Ca  Ca5  1  0.13037088  0.60853807  0.13037088  1
  Ca  Ca6  1  0.12395139  0.13248589  0.61107683  1
  Ca  Ca7  1  0.61107683  0.13248589  0.12395139  1
  Ca  Ca8  1  0.86751411  0.87604861  0.86751411  1
  Ca  Ca9  1  0.49984192  0.83196743  0.49984192  1
  Ca  Ca10  1  0.83130322  0.49397645  0.50602355  1
  Ca  Ca11  1  0.50021995  0.83273485  0.16726515  1
  Ca  Ca12  1  0.16803257  0.50015808  0.83165127  1
  Ca  Ca13  1  0.83165127  0.50015808  0.16803257  1
  Ca  Ca14  1  0.50602355  0.49397645  0.83130322  1
  Ca  Ca15  1  0.16726515  0.83273485  0.50021995  1
  Ca  Ca16  1  0.50602355  0.16869678  0.83130322  1
  Ca  Ca17  1  0.50021995  0.49978005  0.16726515  1
  Ca  Ca18  1  0.83130322  0.16869678  0.50602355  1
  Ca  Ca19  1  0.16726515  0.49978005  0.50021995  1
  Ca  Ca20  1  0.49984192  0.16834873  0.49984192  1
  Ga  Ga0  1  0.78256308  0.21743692  0.78256308  1
  Ga  Ga1  1  0.30858300  0.30801829  0.30858200  1
  Ga  Ga2  1  0.92518330  0.69141800  0.69198171  1
  Ga  Ga3  1  0.69126943  0.92592417  0.69126943  1
  Ga  Ga4  1  0.69198171  0.69141800  0.92518330  1
  Ga  Ga5  1  0.30858200  0.07481670  0.30858200  1
  Ga  Ga6  1  0.30846302  0.30873057  0.07407583  1
  Ga  Ga7  1  0.07407583  0.30873057  0.30846302  1
  Ga  Ga8  1  0.69126943  0.69153698  0.69126843  1
  Sn  Sn0  1  0.21586699  0.78413301  0.21586699  1
  Sn  Sn1  1  0.21835644  0.78164356  0.78283467  1
  Sn  Sn2  1  0.78283467  0.21716533  0.21835644  1
  Sn  Sn3  1  0.78283467  0.78164356  0.21835644  1
  Sn  Sn4  1  0.21835644  0.21716533  0.78283467  1
loop_
_geom_bond_atom_site_label_1
_geom_bond_atom_site_label_2
_geom_bond_distance
_geom_bond_site_symmetry_2
Ca0 Ga0 3.499997 1_555
Ca0 Sn0 3.506740 1_646
Ca0 Sn4 3.515897 1_655
Ca0 Sn3 3.515897 1_546
Ca0 Sn2 3.515897 1_556
Ca0 Sn1 3.515897 1_645
Ca1 Ga6 3.193573 1_555
Ca1 Ga7 3.193573 1_555
Ca1 Ga5 3.202220 1_555
Ca1 Sn0 3.285746 1_545
Ca1 Sn2 3.290741 1_455
Ca1 Sn4 3.290742 1_554
Ca2 Ga3 3.193583 1_555
Ca2 Ga8 3.193583 1_555
Ca2 Ga4 3.202239 1_555
Ca2 Sn0 3.285744 1_556
Ca2 Sn1 3.290731 1_555
Ca2 Sn4 3.290740 1_565
Ca3 Ga8 3.194316 1_555
Ca3 Ga2 3.226756 1_555
Ca3 Ga4 3.226756 1_555
Ca3 Ga0 3.233861 1_555
Ca3 Sn4 3.317600 1_655
Ca3 Sn2 3.317600 1_556
Ca4 Ga8 3.193573 1_555
Ca4 Ga3 3.193583 1_555
Ca4 Ga2 3.202239 1_555
Ca4 Sn0 3.285744 1_655
Ca4 Sn3 3.290731 1_555
Ca4 Sn2 3.290740 1_565
Ca5 Ga7 3.193583 1_555
Ca5 Ga6 3.193583 1_555
Ca5 Ga1 3.202235 1_555
Ca5 Sn0 3.285735 1_555
Ca5 Sn3 3.290740 1_455
Ca5 Sn1 3.290740 1_554
Ca6 Ga7 3.194311 1_555
Ca6 Ga5 3.226755 1_555
Ca6 Ga1 3.226755 1_555
Ca6 Ga0 3.233861 1_455
Ca6 Sn4 3.317600 1_555
Ca6 Sn1 3.317600 1_545
Ca7 Ga6 3.194311 1_555
Ca7 Ga1 3.226746 1_555
Ca7 Ga5 3.226755 1_555
Ca7 Ga0 3.233861 1_554
Ca7 Sn2 3.317600 1_555
Ca7 Sn3 3.317600 1_545
Ca8 Ga3 3.194311 1_555
Ca8 Ga4 3.226745 1_555
Ca8 Ga2 3.226746 1_555
Ca8 Ga0 3.233861 1_565
Ca8 Sn1 3.317600 1_655
Ca8 Sn3 3.317600 1_556
Ca9 Ga5 3.148347 1_565
Ca9 Ga8 3.149743 1_555
Ca9 Sn1 3.271500 1_555
Ca9 Sn3 3.271500 1_555
Ca9 Na0 3.788078 1_555
Ca10 Ga8 3.146250 1_555
Ca10 Ga7 3.146258 1_655
Ca10 Ga0 3.207401 1_555
Ca10 Sn3 3.333874 1_555
Ca10 Na0 3.783166 1_555
Ca11 Ga4 3.148108 1_554
Ca11 Ga5 3.148109 1_565
Ca11 Sn3 3.282207 1_555
Ca11 Sn0 3.295088 1_555
Ca11 Na0 3.804376 1_555
Ca12 Ga2 3.148340 1_455
Ca12 Ga6 3.149752 1_556
Ca12 Sn1 3.271500 1_555
Ca12 Sn4 3.271500 1_555
Ca12 Na0 3.788078 1_555
Ca13 Ga4 3.148340 1_554
Ca13 Ga7 3.149752 1_655
Ca13 Sn2 3.271500 1_555
Ca13 Sn3 3.271500 1_555
Ca13 Na0 3.788078 1_555
Ca14 Ga8 3.146256 1_555
Ca14 Ga6 3.146258 1_556
Ca14 Ga0 3.207401 1_555
Ca14 Sn1 3.333874 1_555
Ca14 Na0 3.783166 1_555
Ca15 Ga2 3.148108 1_455
Ca15 Ga5 3.148108 1_565
Ca15 Sn1 3.282207 1_555
Ca15 Sn0 3.295088 1_555
Ca15 Na0 3.804376 1_555
Ca16 Ga6 3.146258 1_556
Ca16 Ga3 3.146259 1_545
Ca16 Ga0 3.207400 1_555
Ca16 Sn4 3.333873 1_555
Ca16 Na0 3.783166 1_555
Ca17 Ga1 3.148108 1_555
Ca17 Ga4 3.148115 1_554
Ca17 Sn2 3.282207 1_555
Ca17 Sn0 3.295088 1_555
Ca17 Na0 3.804376 1_555
Ca18 Ga7 3.146258 1_655
Ca18 Ga3 3.146258 1_545
Ca18 Ga0 3.207401 1_555
Ca18 Sn2 3.333873 1_555
Ca18 Na0 3.783166 1_555
Ca19 Ga2 3.148115 1_455
Ca19 Ga1 3.148115 1_555
Ca19 Sn4 3.282207 1_555
Ca19 Sn0 3.295088 1_555
Ca19 Na0 3.804376 1_555
Ca20 Ga1 3.148340 1_555
Ca20 Ga3 3.149752 1_545
Ca20 Sn2 3.271500 1_555
Ca20 Sn4 3.271500 1_555
Ca20 Na0 3.788078 1_555
Ga1 Ga5 2.662331 1_555
Ga1 Ga6 2.675945 1_555
Ga1 Ga7 2.675951 1_555
Ga2 Ga4 2.662325 1_555
Ga2 Ga3 2.675946 1_555
Ga2 Ga8 2.675957 1_555
Ga3 Ga8 2.675867 1_555
Ga3 Ga4 2.675946 1_555
Ga4 Ga8 2.675963 1_555
Ga5 Ga7 2.675946 1_555
Ga5 Ga6 2.675946 1_555
Ga6 Ga7 2.675861 1_555
