# generated using pymatgen
data_Ca2Cu(SiPd2)3
_symmetry_space_group_name_H-M   'P 1'
_cell_length_a   6.70771761
_cell_length_b   6.67853015
_cell_length_c   6.70771817
_cell_angle_alpha   130.07051231
_cell_angle_beta   114.20179784
_cell_angle_gamma   87.07075148
_symmetry_Int_Tables_number   1
_chemical_formula_structural   Ca2Cu(SiPd2)3
_chemical_formula_sum   'Ca2 Cu1 Si3 Pd6'
_cell_volume   199.75529091
_cell_formula_units_Z   1
loop_
 _symmetry_equiv_pos_site_id
 _symmetry_equiv_pos_as_xyz
  1  'x, y, z'
loop_
 _atom_site_type_symbol
 _atom_site_label
 _atom_site_symmetry_multiplicity
 _atom_site_fract_x
 _atom_site_fract_y
 _atom_site_fract_z
 _atom_site_occupancy
  Ca  Ca0  1  0.00697890  0.97579228  0.96881238  1
  Ca  Ca1  1  0.49598369  0.05460920  0.55862551  1
  Cu  Cu0  1  0.35480430  0.43085796  0.07605267  1
  Si  Si0  1  0.80874853  0.24175564  0.43300711  1
  Si  Si1  1  0.64124465  0.69798937  0.05674472  1
  Si  Si2  1  0.19826678  0.62055248  0.42228670  1
  Pd  Pd0  1  0.94423997  0.50240741  0.95139268  1
  Pd  Pd1  1  0.55101373  0.50240741  0.55816644  1
  Pd  Pd2  1  0.03341442  0.99417761  0.53284738  1
  Pd  Pd3  1  0.79733009  0.48513851  0.27849380  1
  Pd  Pd4  1  0.20664470  0.48513851  0.68780742  1
  Pd  Pd5  1  0.46132924  0.99417761  0.96076220  1
loop_
_geom_bond_atom_site_label_1
_geom_bond_atom_site_label_2
_geom_bond_distance
_geom_bond_site_symmetry_2
Ca0 Pd5 3.080243 1_555
Ca0 Pd2 3.080244 1_555
Ca0 Pd3 3.123059 1_455
Ca0 Pd4 3.123064 1_555
Ca0 Pd1 3.131452 1_455
Ca0 Pd0 3.131453 1_455
Ca0 Si2 3.153143 1_566
Ca0 Si0 3.263552 1_466
Ca0 Pd4 3.266922 1_566
Ca0 Pd3 3.266922 1_466
Ca0 Cu0 3.425122 1_566
Ca1 Si2 2.984776 1_545
Ca1 Pd0 3.034097 1_555
Ca1 Pd1 3.034101 1_555
Ca1 Cu0 3.042605 1_545
Ca1 Pd5 3.068923 1_545
Ca1 Pd2 3.068927 1_545
Ca1 Si0 3.121982 1_555
Ca1 Si1 3.138622 1_556
Ca1 Si1 3.175615 1_545
Ca1 Pd3 3.222693 1_556
Ca1 Pd4 3.222693 1_555
Ca1 Cu0 3.237342 1_556
Cu0 Si2 2.485286 1_555
Cu0 Pd2 2.636346 1_544
Cu0 Pd5 2.636346 1_544
Cu0 Pd3 2.637757 1_555
Cu0 Pd4 2.637758 1_554
Cu0 Pd0 2.646436 1_454
Cu0 Pd1 2.646436 1_555
Cu0 Si1 2.782635 1_555
Si0 Si1 2.666877 1_545
Pd0 Si0 2.392645 1_555
Pd0 Si2 2.453326 1_656
Pd0 Si1 2.460504 1_556
Pd1 Si0 2.392650 1_555
Pd1 Si2 2.453313 1_555
Pd1 Si1 2.460508 1_556
Pd2 Si0 2.407683 1_465
Pd2 Si2 2.450917 1_555
Pd2 Si1 2.557810 1_455
Pd3 Si0 2.411064 1_555
Pd3 Si2 2.445333 1_655
Pd3 Si1 2.573451 1_555
Pd4 Si0 2.411065 1_455
Pd4 Si2 2.445322 1_555
Pd4 Si1 2.573451 1_556
Pd5 Si0 2.407690 1_566
Pd5 Si2 2.450908 1_555
Pd5 Si1 2.557816 1_556
