# generated using pymatgen
data_V3FeSi2N
_symmetry_space_group_name_H-M   'P 1'
_cell_length_a   7.56883105
_cell_length_b   7.56883021
_cell_length_c   7.56882968
_cell_angle_alpha   59.99999802
_cell_angle_beta   60.00000170
_cell_angle_gamma   59.99999497
_symmetry_Int_Tables_number   1
_chemical_formula_structural   V3FeSi2N
_chemical_formula_sum   'V12 Fe4 Si8 N4'
_cell_volume   306.59939342
_cell_formula_units_Z   4
loop_
 _symmetry_equiv_pos_site_id
 _symmetry_equiv_pos_as_xyz
  1  'x, y, z'
loop_
 _atom_site_type_symbol
 _atom_site_label
 _atom_site_symmetry_multiplicity
 _atom_site_fract_x
 _atom_site_fract_y
 _atom_site_fract_z
 _atom_site_occupancy
  V  V0  1  0.80779345  0.80779345  0.19220655  1
  V  V1  1  0.19220655  0.19220655  0.80779345  1
  V  V2  1  0.80779345  0.19220655  0.80779345  1
  V  V3  1  0.19220655  0.80779345  0.19220655  1
  V  V4  1  0.19220655  0.80779345  0.80779345  1
  V  V5  1  0.80779345  0.19220655  0.19220655  1
  V  V6  1  0.44220655  0.44220655  0.05779345  1
  V  V7  1  0.05779345  0.05779345  0.44220655  1
  V  V8  1  0.44220655  0.05779345  0.44220655  1
  V  V9  1  0.05779345  0.44220655  0.05779345  1
  V  V10  1  0.05779345  0.44220655  0.44220655  1
  V  V11  1  0.44220655  0.05779345  0.05779345  1
  Fe  Fe0  1  0.12500000  0.62500000  0.62500000  1
  Fe  Fe1  1  0.62500000  0.12500000  0.62500000  1
  Fe  Fe2  1  0.62500000  0.62500000  0.12500000  1
  Fe  Fe3  1  0.62500000  0.62500000  0.62500000  1
  Si  Si0  1  0.75726182  0.41424673  0.41424673  1
  Si  Si1  1  0.41424673  0.75726182  0.41424673  1
  Si  Si2  1  0.41424673  0.41424673  0.75726182  1
  Si  Si3  1  0.41424673  0.41424673  0.41424673  1
  Si  Si4  1  0.49273818  0.83575327  0.83575327  1
  Si  Si5  1  0.83575327  0.49273818  0.83575327  1
  Si  Si6  1  0.83575327  0.83575327  0.49273818  1
  Si  Si7  1  0.83575327  0.83575327  0.83575327  1
  N  N0  1  0.62500000  0.12500000  0.12500000  1
  N  N1  1  0.12500000  0.62500000  0.12500000  1
  N  N2  1  0.12500000  0.12500000  0.62500000  1
  N  N3  1  0.12500000  0.12500000  0.12500000  1
loop_
_geom_bond_atom_site_label_1
_geom_bond_atom_site_label_2
_geom_bond_distance
_geom_bond_site_symmetry_2
Fe0 Si7 2.332810 1_455
Fe0 Si3 2.332810 1_555
Fe0 Si2 2.332818 1_555
Fe0 Si6 2.332818 1_455
Fe0 Si1 2.332819 1_555
Fe0 Si5 2.332819 1_455
Fe0 V9 2.721906 1_556
Fe0 V3 2.721906 1_555
Fe0 V7 2.721906 1_565
Fe0 V1 2.721906 1_555
Fe0 V4 2.721906 1_555
Fe0 V10 2.721906 1_555
Fe1 Si7 2.332810 1_545
Fe1 Si3 2.332810 1_555
Fe1 Si2 2.332818 1_555
Fe1 Si6 2.332818 1_545
Fe1 Si0 2.332819 1_555
Fe1 Si4 2.332819 1_545
Fe1 V11 2.721906 1_556
Fe1 V5 2.721906 1_555
Fe1 V2 2.721906 1_555
Fe1 V8 2.721906 1_555
Fe1 V7 2.721907 1_655
Fe1 V1 2.721907 1_555
Fe2 Si7 2.332810 1_554
Fe2 Si3 2.332810 1_555
Fe2 Si0 2.332818 1_555
Fe2 Si4 2.332818 1_554
Fe2 Si1 2.332818 1_555
Fe2 Si5 2.332818 1_554
Fe2 V11 2.721906 1_565
Fe2 V5 2.721906 1_555
Fe2 V0 2.721907 1_555
Fe2 V6 2.721907 1_555
Fe2 V9 2.721907 1_655
Fe2 V3 2.721907 1_555
Fe3 Si4 2.332806 1_555
Fe3 Si0 2.332806 1_555
Fe3 Si5 2.332806 1_555
Fe3 Si1 2.332806 1_555
Fe3 Si6 2.332806 1_555
Fe3 Si2 2.332806 1_555
Fe3 V8 2.721906 1_565
Fe3 V2 2.721906 1_555
Fe3 V6 2.721906 1_556
Fe3 V0 2.721906 1_555
Fe3 V10 2.721907 1_655
Fe3 V4 2.721907 1_555
Si0 V10 2.504244 1_655
Si0 V7 2.504252 1_655
Si0 V9 2.504253 1_655
Si0 Si1 2.596223 1_555
Si0 Si2 2.596223 1_555
Si0 Si3 2.596223 1_555
Si0 V2 2.708093 1_555
Si0 V0 2.708094 1_555
Si0 V5 2.708106 1_555
Si1 V8 2.504244 1_565
Si1 V11 2.504252 1_565
Si1 V7 2.504253 1_565
Si1 Si2 2.596223 1_555
Si1 Si3 2.596223 1_555
Si1 V4 2.708093 1_555
Si1 V0 2.708094 1_555
Si1 V3 2.708107 1_555
Si2 V6 2.504244 1_556
Si2 V11 2.504252 1_556
Si2 V9 2.504253 1_556
Si2 Si3 2.596223 1_555
Si2 V4 2.708093 1_555
Si2 V2 2.708094 1_555
Si2 V1 2.708107 1_555
Si3 V6 2.504259 1_555
Si3 V8 2.504259 1_555
Si3 V10 2.504259 1_555
Si3 V3 2.708099 1_555
Si3 V1 2.708099 1_555
Si3 V5 2.708099 1_555
Si4 V4 2.504244 1_555
Si4 V1 2.504252 1_565
Si4 V3 2.504253 1_556
Si4 Si5 2.596223 1_555
Si4 Si6 2.596223 1_555
Si4 Si7 2.596223 1_555
Si4 V8 2.708093 1_565
Si4 V6 2.708094 1_556
Si4 V11 2.708106 1_566
Si5 V2 2.504244 1_555
Si5 V5 2.504252 1_556
Si5 V1 2.504253 1_655
Si5 Si6 2.596223 1_555
Si5 Si7 2.596223 1_555
Si5 V10 2.708093 1_655
Si5 V6 2.708094 1_556
Si5 V9 2.708107 1_656
Si6 V0 2.504244 1_555
Si6 V5 2.504252 1_565
Si6 V3 2.504253 1_655
Si6 Si7 2.596223 1_555
Si6 V10 2.708093 1_655
Si6 V8 2.708094 1_565
Si6 V7 2.708107 1_665
Si7 V0 2.504259 1_556
Si7 V2 2.504259 1_565
Si7 V4 2.504259 1_655
Si7 V9 2.708099 1_656
Si7 V7 2.708099 1_665
Si7 V11 2.708099 1_566
N0 V6 2.024339 1_555
N0 V0 2.024339 1_545
N0 V8 2.024339 1_555
N0 V2 2.024339 1_554
N0 V5 2.024339 1_555
N0 V11 2.024339 1_555
N1 V10 2.024339 1_555
N1 V4 2.024339 1_554
N1 V3 2.024339 1_555
N1 V9 2.024339 1_555
N1 V6 2.024339 1_555
N1 V0 2.024339 1_455
N2 V10 2.024339 1_555
N2 V4 2.024339 1_545
N2 V1 2.024339 1_555
N2 V7 2.024339 1_555
N2 V8 2.024340 1_555
N2 V2 2.024340 1_455
N3 V7 2.024339 1_555
N3 V1 2.024339 1_554
N3 V9 2.024339 1_555
N3 V3 2.024339 1_545
N3 V11 2.024340 1_555
N3 V5 2.024340 1_455
