# generated using pymatgen
data_Cs4V2PdS8
_symmetry_space_group_name_H-M   'P 1'
_cell_length_a   13.41991983
_cell_length_b   7.36189669
_cell_length_c   9.69263419
_cell_angle_alpha   85.82335294
_cell_angle_beta   90.00000000
_cell_angle_gamma   90.00000000
_symmetry_Int_Tables_number   1
_chemical_formula_structural   Cs4V2PdS8
_chemical_formula_sum   'Cs8 V4 Pd2 S16'
_cell_volume   955.05096640
_cell_formula_units_Z   2
loop_
 _symmetry_equiv_pos_site_id
 _symmetry_equiv_pos_as_xyz
  1  'x, y, z'
loop_
 _atom_site_type_symbol
 _atom_site_label
 _atom_site_symmetry_multiplicity
 _atom_site_fract_x
 _atom_site_fract_y
 _atom_site_fract_z
 _atom_site_occupancy
  Cs  Cs0  1  0.13807413  0.81499901  0.69130675  1
  Cs  Cs1  1  0.63807413  0.18500099  0.80869325  1
  Cs  Cs2  1  0.86192587  0.18500099  0.30869325  1
  Cs  Cs3  1  0.36192587  0.81499901  0.19130675  1
  Cs  Cs4  1  0.34397727  0.26513818  0.54199112  1
  Cs  Cs5  1  0.84397727  0.73486182  0.95800888  1
  Cs  Cs6  1  0.65602273  0.73486182  0.45800888  1
  Cs  Cs7  1  0.15602273  0.26513818  0.04199112  1
  V  V0  1  0.42759029  0.74877031  0.77457452  1
  V  V1  1  0.92759029  0.25122969  0.72542548  1
  V  V2  1  0.57240971  0.25122969  0.22542548  1
  V  V3  1  0.07240971  0.74877031  0.27457452  1
  Pd  Pd0  1  0.00000000  0.50000000  0.50000000  1
  Pd  Pd1  1  0.50000000  0.50000000  0.00000000  1
  S  S0  1  0.08325624  0.30766137  0.66921455  1
  S  S1  1  0.58325624  0.69233863  0.83078545  1
  S  S2  1  0.91674376  0.69233863  0.33078545  1
  S  S3  1  0.41674376  0.30766137  0.16921455  1
  S  S4  1  0.40321652  0.75264523  0.55838763  1
  S  S5  1  0.90321652  0.24735477  0.94161237  1
  S  S6  1  0.59678348  0.24735477  0.44161237  1
  S  S7  1  0.09678348  0.75264523  0.05838763  1
  S  S8  1  0.15311878  0.52453253  0.38144426  1
  S  S9  1  0.65311878  0.47546747  0.11855574  1
  S  S10  1  0.84688122  0.47546747  0.61855574  1
  S  S11  1  0.34688122  0.52453253  0.88144426  1
  S  S12  1  0.37930407  0.99929262  0.84592600  1
  S  S13  1  0.87930407  0.00070738  0.65407400  1
  S  S14  1  0.62069593  0.00070738  0.15407400  1
  S  S15  1  0.12069593  0.99929262  0.34592600  1
loop_
_geom_bond_atom_site_label_1
_geom_bond_atom_site_label_2
_geom_bond_distance
_geom_bond_site_symmetry_2
Cs0 S15 3.527084 1_555
Cs0 Pd0 3.588283 1_555
Cs0 S7 3.597094 1_556
Cs0 S0 3.691683 1_565
Cs0 S13 3.739916 1_465
Cs0 S8 3.816971 1_555
Cs0 S4 3.823269 1_555
Cs0 S0 3.827991 1_555
Cs0 S12 3.855254 1_555
Cs0 S11 3.904770 1_555
Cs1 S14 3.527084 1_556
Cs1 Pd1 3.588283 1_556
Cs1 S6 3.597094 1_555
Cs1 S1 3.691683 1_545
Cs1 S12 3.739916 1_545
Cs1 S9 3.816971 1_556
Cs1 S5 3.823269 1_555
Cs1 S1 3.827991 1_555
Cs1 S13 3.855254 1_555
Cs1 S10 3.904770 1_555
Cs2 S13 3.527084 1_555
Cs2 Pd0 3.588283 1_655
Cs2 S5 3.597094 1_554
Cs2 S2 3.691683 1_545
Cs2 S15 3.739916 1_645
Cs2 S10 3.816971 1_555
Cs2 S6 3.823269 1_555
Cs2 S2 3.827991 1_555
Cs2 S14 3.855254 1_555
Cs2 S9 3.904770 1_555
Cs3 S12 3.527084 1_554
Cs3 Pd1 3.588283 1_555
Cs3 S4 3.597094 1_555
Cs3 S3 3.691683 1_565
Cs3 S14 3.739916 1_565
Cs3 S11 3.816971 1_554
Cs3 S7 3.823269 1_555
Cs3 S3 3.827991 1_555
Cs3 S15 3.855254 1_555
Cs3 S8 3.904770 1_555
Cs4 S12 3.448735 1_545
Cs4 S8 3.492227 1_555
Cs4 S6 3.534444 1_555
Cs4 S4 3.690677 1_555
Cs4 S0 3.730527 1_555
Cs4 S3 3.733892 1_555
Cs4 S4 3.847706 1_545
Cs4 S11 3.922859 1_555
Cs4 S15 4.118508 1_545
Cs5 S13 3.448735 1_565
Cs5 S9 3.492227 1_556
Cs5 S7 3.534444 1_656
Cs5 S5 3.690677 1_555
Cs5 S1 3.730527 1_555
Cs5 S2 3.733892 1_556
Cs5 S5 3.847706 1_565
Cs5 S10 3.922859 1_555
Cs5 S14 4.118508 1_566
Cs6 S14 3.448735 1_565
Cs6 S10 3.492227 1_555
Cs6 S4 3.534444 1_555
Cs6 S6 3.690677 1_555
Cs6 S2 3.730527 1_555
Cs6 S1 3.733892 1_555
Cs6 S6 3.847706 1_565
Cs6 S9 3.922859 1_555
Cs6 S13 4.118508 1_565
Cs7 S15 3.448735 1_545
Cs7 S11 3.492227 1_554
Cs7 S5 3.534444 1_454
Cs7 S7 3.690677 1_555
Cs7 S3 3.730527 1_555
Cs7 S0 3.733892 1_554
Cs7 S7 3.847706 1_545
Cs7 S8 3.922859 1_555
Cs7 S12 4.118508 1_544
Pd0 S8 2.354832 1_555
Pd0 S10 2.354832 1_455
Pd0 S0 2.367506 1_555
Pd0 S2 2.367506 1_455
Pd1 S9 2.354832 1_555
Pd1 S11 2.354832 1_554
Pd1 S1 2.367506 1_554
Pd1 S3 2.367506 1_555
S0 V1 2.191002 1_455
S1 V0 2.191002 1_555
S2 V3 2.191002 1_655
S3 V2 2.191002 1_555
S4 V0 2.118935 1_555
S5 V1 2.118935 1_555
S6 V2 2.118935 1_555
S7 V3 2.118935 1_555
S8 V3 2.173066 1_555
S9 V2 2.173066 1_555
S10 V1 2.173066 1_555
S11 V0 2.173066 1_555
S12 V0 2.117899 1_555
S13 V1 2.117899 1_555
S14 V2 2.117899 1_555
S15 V3 2.117899 1_555
