# generated using pymatgen
data_Ba3IrPbO6
_symmetry_space_group_name_H-M   'P 1'
_cell_length_a   7.20881379
_cell_length_b   7.20881440
_cell_length_c   7.20881411
_cell_angle_alpha   89.65468214
_cell_angle_beta   89.65468336
_cell_angle_gamma   89.65467324
_symmetry_Int_Tables_number   1
_chemical_formula_structural   Ba3IrPbO6
_chemical_formula_sum   'Ba6 Ir2 Pb2 O12'
_cell_volume   374.60011756
_cell_formula_units_Z   2
loop_
 _symmetry_equiv_pos_site_id
 _symmetry_equiv_pos_as_xyz
  1  'x, y, z'
loop_
 _atom_site_type_symbol
 _atom_site_label
 _atom_site_symmetry_multiplicity
 _atom_site_fract_x
 _atom_site_fract_y
 _atom_site_fract_z
 _atom_site_occupancy
  Ba  Ba0  1  0.75000000  0.38774949  0.11225051  1
  Ba  Ba1  1  0.11225051  0.75000000  0.38774949  1
  Ba  Ba2  1  0.25000000  0.61225051  0.88774949  1
  Ba  Ba3  1  0.38774949  0.11225051  0.75000000  1
  Ba  Ba4  1  0.61225051  0.88774949  0.25000000  1
  Ba  Ba5  1  0.88774949  0.25000000  0.61225051  1
  Ir  Ir0  1  0.50000000  0.50000000  0.50000000  1
  Ir  Ir1  1  0.00000000  0.00000000  0.00000000  1
  Pb  Pb0  1  0.25000000  0.25000000  0.25000000  1
  Pb  Pb1  1  0.75000000  0.75000000  0.75000000  1
  O  O0  1  0.08543563  0.26870897  0.94932094  1
  O  O1  1  0.94932094  0.08543563  0.26870897  1
  O  O2  1  0.26870897  0.94932094  0.08543563  1
  O  O3  1  0.41456437  0.55067906  0.23129103  1
  O  O4  1  0.23129103  0.41456437  0.55067906  1
  O  O5  1  0.55067906  0.23129103  0.41456437  1
  O  O6  1  0.91456437  0.73129103  0.05067906  1
  O  O7  1  0.05067906  0.91456437  0.73129103  1
  O  O8  1  0.73129103  0.05067906  0.91456437  1
  O  O9  1  0.58543563  0.44932094  0.76870897  1
  O  O10  1  0.44932094  0.76870897  0.58543563  1
  O  O11  1  0.76870897  0.58543563  0.44932094  1
loop_
_geom_bond_atom_site_label_1
_geom_bond_atom_site_label_2
_geom_bond_distance
_geom_bond_site_symmetry_2
Ba0 O9 2.784484 1_554
Ba0 O6 2.784485 1_555
Ba0 O3 2.813539 1_555
Ba0 O0 2.813539 1_654
Ba0 O11 2.828668 1_555
Ba0 O8 2.828668 1_554
Ba0 O1 2.835193 1_555
Ba0 O5 2.835193 1_555
Ba1 O7 2.784484 1_555
Ba1 O11 2.784484 1_455
Ba1 O1 2.813539 1_465
Ba1 O4 2.813539 1_555
Ba1 O10 2.828668 1_555
Ba1 O6 2.828668 1_455
Ba1 O3 2.835193 1_555
Ba1 O2 2.835193 1_555
Ba2 O3 2.784484 1_556
Ba2 O0 2.784485 1_555
Ba2 O9 2.813539 1_555
Ba2 O6 2.813539 1_456
Ba2 O4 2.828668 1_555
Ba2 O2 2.828668 1_556
Ba2 O7 2.835193 1_555
Ba2 O10 2.835193 1_555
Ba3 O8 2.784484 1_555
Ba3 O10 2.784484 1_545
Ba3 O5 2.813539 1_555
Ba3 O2 2.813539 1_546
Ba3 O7 2.828668 1_545
Ba3 O9 2.828669 1_555
Ba3 O0 2.835193 1_555
Ba3 O4 2.835193 1_555
Ba4 O2 2.784484 1_555
Ba4 O5 2.784484 1_565
Ba4 O10 2.813539 1_555
Ba4 O8 2.813539 1_564
Ba4 O1 2.828668 1_565
Ba4 O3 2.828669 1_555
Ba4 O6 2.835193 1_555
Ba4 O11 2.835193 1_555
Ba5 O1 2.784484 1_555
Ba5 O4 2.784484 1_655
Ba5 O7 2.813539 1_645
Ba5 O11 2.813539 1_555
Ba5 O5 2.828668 1_555
Ba5 O0 2.828668 1_655
Ba5 O9 2.835193 1_555
Ba5 O8 2.835193 1_555
Ir0 O9 2.065957 1_555
Ir0 O3 2.065957 1_555
Ir0 O10 2.065957 1_555
Ir0 O5 2.065957 1_555
Ir0 O11 2.065957 1_555
Ir0 O4 2.065957 1_555
Ir1 O2 2.065957 1_545
Ir1 O8 2.065957 1_454
Ir1 O1 2.065957 1_455
Ir1 O7 2.065957 1_544
Ir1 O0 2.065958 1_554
Ir1 O6 2.065958 1_445
O0 Pb0 2.479778 1_556
O1 Pb0 2.479778 1_655
O2 Pb0 2.479778 1_565
O3 Pb0 2.479779 1_555
O4 Pb0 2.479778 1_555
O5 Pb0 2.479778 1_555
O6 Pb1 2.479778 1_554
O7 Pb1 2.479778 1_455
O8 Pb1 2.479778 1_545
O9 Pb1 2.479779 1_555
O10 Pb1 2.479778 1_555
O11 Pb1 2.479778 1_555
