# generated using pymatgen
data_Lu12Co6Bi
_symmetry_space_group_name_H-M   'P 1'
_cell_length_a   8.14887125
_cell_length_b   8.14887164
_cell_length_c   8.14887177
_cell_angle_alpha   109.47122582
_cell_angle_beta   109.47122678
_cell_angle_gamma   109.47121696
_symmetry_Int_Tables_number   1
_chemical_formula_structural   Lu12Co6Bi
_chemical_formula_sum   'Lu12 Co6 Bi1'
_cell_volume   416.55320909
_cell_formula_units_Z   1
loop_
 _symmetry_equiv_pos_site_id
 _symmetry_equiv_pos_as_xyz
  1  'x, y, z'
loop_
 _atom_site_type_symbol
 _atom_site_label
 _atom_site_symmetry_multiplicity
 _atom_site_fract_x
 _atom_site_fract_y
 _atom_site_fract_z
 _atom_site_occupancy
  Lu  Lu0  1  0.80181679  0.69485891  0.49667570  1
  Lu  Lu1  1  0.19818321  0.30514109  0.50332430  1
  Lu  Lu2  1  0.19818321  0.69485891  0.89304312  1
  Lu  Lu3  1  0.80181679  0.30514109  0.10695688  1
  Lu  Lu4  1  0.69485891  0.49667570  0.80181679  1
  Lu  Lu5  1  0.30514109  0.50332430  0.19818321  1
  Lu  Lu6  1  0.69485891  0.89304312  0.19818321  1
  Lu  Lu7  1  0.30514109  0.10695688  0.80181679  1
  Lu  Lu8  1  0.49667570  0.80181679  0.69485891  1
  Lu  Lu9  1  0.50332430  0.19818321  0.30514109  1
  Lu  Lu10  1  0.10695688  0.80181679  0.30514109  1
  Lu  Lu11  1  0.89304312  0.19818321  0.69485891  1
  Co  Co0  1  0.88716165  0.38716165  0.50000000  1
  Co  Co1  1  0.11283835  0.61283835  0.50000000  1
  Co  Co2  1  0.38716165  0.50000000  0.88716165  1
  Co  Co3  1  0.61283835  0.50000000  0.11283835  1
  Co  Co4  1  0.50000000  0.88716165  0.38716165  1
  Co  Co5  1  0.50000000  0.11283835  0.61283835  1
  Bi  Bi0  1  0.00000000  0.00000000  0.00000000  1
loop_
_geom_bond_atom_site_label_1
_geom_bond_atom_site_label_2
_geom_bond_distance
_geom_bond_site_symmetry_2
Co0 Co1 2.123506 1_655
Co0 Lu9 2.554171 1_555
Co0 Lu11 2.554172 1_555
Co0 Lu1 2.822524 1_655
Co0 Lu0 2.822524 1_555
Co0 Lu2 2.822528 1_655
Co0 Lu3 2.822532 1_555
Co0 Lu6 3.367410 1_545
Co0 Lu4 3.367417 1_555
Co1 Lu8 2.554171 1_555
Co1 Lu10 2.554172 1_555
Co1 Lu0 2.822524 1_455
Co1 Lu1 2.822524 1_555
Co1 Lu3 2.822528 1_455
Co1 Lu2 2.822532 1_555
Co1 Lu7 3.367410 1_565
Co1 Lu5 3.367417 1_555
Co2 Co3 2.123506 1_556
Co2 Lu1 2.554171 1_555
Co2 Lu2 2.554171 1_555
Co2 Lu4 2.822524 1_555
Co2 Lu5 2.822524 1_556
Co2 Lu6 2.822528 1_556
Co2 Lu7 2.822532 1_555
Co2 Lu11 3.367410 1_455
Co2 Lu8 3.367417 1_555
Co3 Lu0 2.554171 1_555
Co3 Lu3 2.554171 1_555
Co3 Lu5 2.822524 1_555
Co3 Lu4 2.822524 1_554
Co3 Lu7 2.822528 1_554
Co3 Lu6 2.822532 1_555
Co3 Lu10 3.367410 1_655
Co3 Lu9 3.367417 1_555
Co4 Co5 2.123506 1_565
Co4 Lu5 2.554171 1_555
Co4 Lu6 2.554172 1_555
Co4 Lu9 2.822524 1_565
Co4 Lu8 2.822524 1_555
Co4 Lu11 2.822528 1_565
Co4 Lu10 2.822531 1_555
Co4 Lu2 3.367410 1_554
Co4 Lu0 3.367416 1_555
Co5 Lu4 2.554171 1_555
Co5 Lu7 2.554172 1_555
Co5 Lu8 2.822524 1_545
Co5 Lu9 2.822524 1_555
Co5 Lu10 2.822528 1_545
Co5 Lu11 2.822531 1_555
Co5 Lu3 3.367410 1_556
Co5 Lu1 3.367416 1_555
Bi0 Lu3 3.423658 1_455
Bi0 Lu2 3.423658 1_544
Bi0 Lu10 3.423659 1_545
Bi0 Lu11 3.423659 1_454
Bi0 Lu7 3.423659 1_554
Bi0 Lu6 3.423659 1_445
Bi0 Lu9 3.423659 1_555
Bi0 Lu8 3.423659 1_444
Bi0 Lu1 3.423660 1_555
Bi0 Lu0 3.423660 1_444
Bi0 Lu5 3.423660 1_555
Bi0 Lu4 3.423660 1_444
