# generated using pymatgen
data_Rb2MgSiSe4
_symmetry_space_group_name_H-M   'P 1'
_cell_length_a   13.80593810
_cell_length_b   12.26353361
_cell_length_c   7.70591219
_cell_angle_alpha   84.17825328
_cell_angle_beta   62.09171754
_cell_angle_gamma   33.73003285
_symmetry_Int_Tables_number   1
_chemical_formula_structural   Rb2MgSiSe4
_chemical_formula_sum   'Rb4 Mg2 Si2 Se8'
_cell_volume   518.50221155
_cell_formula_units_Z   2
loop_
 _symmetry_equiv_pos_site_id
 _symmetry_equiv_pos_as_xyz
  1  'x, y, z'
loop_
 _atom_site_type_symbol
 _atom_site_label
 _atom_site_symmetry_multiplicity
 _atom_site_fract_x
 _atom_site_fract_y
 _atom_site_fract_z
 _atom_site_occupancy
  Rb  Rb0  1  0.68109859  0.68109859  0.31890141  1
  Rb  Rb1  1  0.31890141  0.31890141  0.68109859  1
  Rb  Rb2  1  0.56890141  0.56890141  0.93109859  1
  Rb  Rb3  1  0.93109859  0.93109859  0.56890141  1
  Mg  Mg0  1  0.00000000  0.00000000  0.00000000  1
  Mg  Mg1  1  0.25000000  0.25000000  0.25000000  1
  Si  Si0  1  0.50000000  0.50000000  0.50000000  1
  Si  Si1  1  0.75000000  0.75000000  0.75000000  1
  Se  Se0  1  0.38541947  0.00477552  0.92695688  1
  Se  Se1  1  0.68284713  0.92695688  0.00477552  1
  Se  Se2  1  0.92695688  0.68284713  0.38541947  1
  Se  Se3  1  0.00477552  0.38541947  0.68284713  1
  Se  Se4  1  0.86458053  0.24522448  0.32304312  1
  Se  Se5  1  0.56715287  0.32304312  0.24522448  1
  Se  Se6  1  0.32304312  0.56715287  0.86458053  1
  Se  Se7  1  0.24522448  0.86458053  0.56715287  1
loop_
_geom_bond_atom_site_label_1
_geom_bond_atom_site_label_2
_geom_bond_distance
_geom_bond_site_symmetry_2
Rb0 Se7 3.536860 1_555
Rb0 Se4 3.536862 1_555
Rb0 Se0 3.645673 1_565
Rb0 Se3 3.645680 1_654
Rb0 Se2 3.679199 1_555
Rb0 Se1 3.679204 1_555
Rb0 Se0 3.988546 1_654
Rb0 Se3 3.988547 1_565
Rb1 Se5 3.536869 1_555
Rb1 Se6 3.536873 1_555
Rb1 Se2 3.645677 1_545
Rb1 Se1 3.645678 1_456
Rb1 Se0 3.679209 1_555
Rb1 Se3 3.679213 1_555
Rb1 Se2 3.988544 1_456
Rb1 Se1 3.988551 1_545
Rb2 Se3 3.536860 1_655
Rb2 Se0 3.536862 1_565
Rb2 Se4 3.645673 1_555
Rb2 Se7 3.645680 1_556
Rb2 Se6 3.679199 1_555
Rb2 Se5 3.679204 1_556
Rb2 Se4 3.988546 1_466
Rb2 Se7 3.988547 1_645
Rb3 Se1 3.536869 1_556
Rb3 Se2 3.536873 1_555
Rb3 Se6 3.645677 1_565
Rb3 Se5 3.645678 1_655
Rb3 Se4 3.679209 1_565
Rb3 Se7 3.679213 1_655
Rb3 Se6 3.988544 1_654
Rb3 Se5 3.988551 1_566
Mg0 Se5 2.558537 1_455
Mg0 Se6 2.558539 1_544
Mg0 Se7 2.558541 1_544
Mg0 Se4 2.558547 1_455
Mg1 Se1 2.558537 1_545
Mg1 Se2 2.558539 1_455
Mg1 Se3 2.558541 1_555
Mg1 Se0 2.558547 1_554
Se0 Si1 2.288532 1_545
Se1 Si1 2.288522 1_554
Se2 Si1 2.288527 1_555
Se3 Si1 2.288531 1_455
Se4 Si0 2.288532 1_555
Se5 Si0 2.288522 1_555
Se6 Si0 2.288527 1_555
Se7 Si0 2.288531 1_555
