# generated using pymatgen
data_SrCa(GaSn)2
_symmetry_space_group_name_H-M   'P 1'
_cell_length_a   4.51918120
_cell_length_b   4.51918177
_cell_length_c   18.27143711
_cell_angle_alpha   90.00000000
_cell_angle_beta   90.00000000
_cell_angle_gamma   120.00001679
_symmetry_Int_Tables_number   1
_chemical_formula_structural   SrCa(GaSn)2
_chemical_formula_sum   'Sr2 Ca2 Ga4 Sn4'
_cell_volume   323.16389226
_cell_formula_units_Z   2
loop_
 _symmetry_equiv_pos_site_id
 _symmetry_equiv_pos_as_xyz
  1  'x, y, z'
loop_
 _atom_site_type_symbol
 _atom_site_label
 _atom_site_symmetry_multiplicity
 _atom_site_fract_x
 _atom_site_fract_y
 _atom_site_fract_z
 _atom_site_occupancy
  Sr  Sr0  1  0.00000000  0.00000000  0.00000000  1
  Sr  Sr1  1  0.00000000  0.00000000  0.50000000  1
  Ca  Ca0  1  0.00000000  0.00000000  0.25000000  1
  Ca  Ca1  1  0.00000000  0.00000000  0.75000000  1
  Ga  Ga0  1  0.66666700  0.33333300  0.82977591  1
  Ga  Ga1  1  0.33333300  0.66666700  0.32977591  1
  Ga  Ga2  1  0.66666700  0.33333300  0.67022409  1
  Ga  Ga3  1  0.33333300  0.66666700  0.17022409  1
  Sn  Sn0  1  0.33333300  0.66666700  0.62046736  1
  Sn  Sn1  1  0.66666700  0.33333300  0.12046736  1
  Sn  Sn2  1  0.66666700  0.33333300  0.37953264  1
  Sn  Sn3  1  0.33333300  0.66666700  0.87953264  1
loop_
_geom_bond_atom_site_label_1
_geom_bond_atom_site_label_2
_geom_bond_distance
_geom_bond_site_symmetry_2
Ca0 Ga3 2.988697 1_545
Ca0 Ga1 2.988697 1_545
Ca0 Ga3 2.988700 1_445
Ca0 Ga1 2.988700 1_445
Ca0 Ga3 2.988700 1_555
Ca0 Ga1 2.988700 1_555
Ca0 Sn2 3.522662 1_455
Ca0 Sn1 3.522662 1_455
Ca0 Sn2 3.522664 1_555
Ca0 Sn1 3.522664 1_555
Ca0 Sn2 3.522665 1_445
Ca0 Sn1 3.522665 1_445
Ca1 Ga2 2.988697 1_455
Ca1 Ga0 2.988697 1_455
Ca1 Ga2 2.988700 1_555
Ca1 Ga0 2.988700 1_555
Ca1 Ga2 2.988700 1_445
Ca1 Ga0 2.988700 1_445
Ca1 Sn3 3.522662 1_545
Ca1 Sn0 3.522662 1_545
Ca1 Sn3 3.522664 1_445
Ca1 Sn0 3.522664 1_445
Ca1 Sn3 3.522665 1_555
Ca1 Sn0 3.522665 1_555
Ga0 Sn3 2.762999 1_655
Ga0 Sn3 2.762999 1_545
Ga0 Sn3 2.763007 1_555
Ga0 Ga2 2.915241 1_555
Ga1 Sn2 2.762999 1_455
Ga1 Sn2 2.762999 1_565
Ga1 Sn2 2.763007 1_555
Ga1 Ga3 2.915241 1_555
Ga2 Sn0 2.762999 1_655
Ga2 Sn0 2.762999 1_545
Ga2 Sn0 2.763007 1_555
Ga3 Sn1 2.762999 1_455
Ga3 Sn1 2.762999 1_565
Ga3 Sn1 2.763007 1_555
Sn0 Sr1 3.413583 1_565
Sn0 Sr1 3.413585 1_665
Sn0 Sr1 3.413585 1_555
Sn1 Sr0 3.413583 1_655
Sn1 Sr0 3.413585 1_555
Sn1 Sr0 3.413585 1_665
Sn2 Sr1 3.413583 1_655
Sn2 Sr1 3.413585 1_555
Sn2 Sr1 3.413585 1_665
Sn3 Sr0 3.413583 1_566
Sn3 Sr0 3.413585 1_666
Sn3 Sr0 3.413585 1_556
