# generated using pymatgen
data_Ba7Fe4Ni2O19
_symmetry_space_group_name_H-M   'P 1'
_cell_length_a   7.71675579
_cell_length_b   7.71675586
_cell_length_c   10.86820372
_cell_angle_alpha   80.78761681
_cell_angle_beta   80.78761701
_cell_angle_gamma   43.39826001
_symmetry_Int_Tables_number   1
_chemical_formula_structural   Ba7Fe4Ni2O19
_chemical_formula_sum   'Ba7 Fe4 Ni2 O19'
_cell_volume   438.00686849
_cell_formula_units_Z   1
loop_
 _symmetry_equiv_pos_site_id
 _symmetry_equiv_pos_as_xyz
  1  'x, y, z'
loop_
 _atom_site_type_symbol
 _atom_site_label
 _atom_site_symmetry_multiplicity
 _atom_site_fract_x
 _atom_site_fract_y
 _atom_site_fract_z
 _atom_site_occupancy
  Ba  Ba0  1  0.50000000  0.50000000  0.50000000  1
  Ba  Ba1  1  0.84643914  0.84643914  0.95017301  1
  Ba  Ba2  1  0.15356086  0.15356086  0.04982699  1
  Ba  Ba3  1  0.57277220  0.57277220  0.83471019  1
  Ba  Ba4  1  0.42722780  0.42722780  0.16528981  1
  Ba  Ba5  1  0.79666304  0.79666304  0.59374825  1
  Ba  Ba6  1  0.20333696  0.20333696  0.40625175  1
  Fe  Fe0  1  0.34646766  0.34646766  0.78026066  1
  Fe  Fe1  1  0.65353234  0.65353234  0.21973934  1
  Fe  Fe2  1  0.01866242  0.01866242  0.67217254  1
  Fe  Fe3  1  0.98133758  0.98133758  0.32782746  1
  Ni  Ni0  1  0.18207765  0.18207765  0.72976147  1
  Ni  Ni1  1  0.81792235  0.81792235  0.27023853  1
  O  O0  1  0.00000000  0.00000000  0.50000000  1
  O  O1  1  0.69955308  0.69955308  0.37534006  1
  O  O2  1  0.30044692  0.30044692  0.62465994  1
  O  O3  1  0.06335692  0.06335692  0.83920720  1
  O  O4  1  0.93664308  0.93664308  0.16079280  1
  O  O5  1  0.37689639  0.37689639  0.93320739  1
  O  O6  1  0.62310361  0.62310361  0.06679261  1
  O  O7  1  0.81537796  0.32256664  0.27729455  1
  O  O8  1  0.67743336  0.18462204  0.72270545  1
  O  O9  1  0.18462204  0.67743336  0.72270545  1
  O  O10  1  0.32256664  0.81537796  0.27729455  1
  O  O11  1  0.54096670  0.97954141  0.17785636  1
  O  O12  1  0.02045859  0.45903330  0.82214364  1
  O  O13  1  0.64977680  0.09370398  0.36453894  1
  O  O14  1  0.90629602  0.35022320  0.63546106  1
  O  O15  1  0.35022320  0.90629602  0.63546106  1
  O  O16  1  0.09370398  0.64977680  0.36453894  1
  O  O17  1  0.97954141  0.54096670  0.17785636  1
  O  O18  1  0.45903330  0.02045859  0.82214364  1
loop_
_geom_bond_atom_site_label_1
_geom_bond_atom_site_label_2
_geom_bond_distance
_geom_bond_site_symmetry_2
Ba0 O8 2.826418 1_555
Ba0 O10 2.826418 1_555
Ba0 O9 2.826418 1_555
Ba0 O7 2.826418 1_555
Ba0 O0 2.853137 1_565
Ba0 O0 2.853137 1_655
Ba0 O1 2.947556 1_555
Ba0 O2 2.947556 1_555
Ba0 O16 3.000072 1_555
Ba0 O14 3.000072 1_555
Ba0 O13 3.000072 1_555
Ba0 O15 3.000072 1_555
Ba1 O18 2.752525 1_565
Ba1 O12 2.752525 1_655
Ba1 O4 2.816616 1_556
Ba1 O17 2.857009 1_556
Ba1 O11 2.857009 1_556
Ba1 O5 2.887454 1_655
Ba1 O5 2.887454 1_565
Ba1 O8 2.939999 1_565
Ba1 O9 2.939999 1_655
Ba1 O3 3.136454 1_665
Ba1 O6 3.234852 1_556
Ba2 O11 2.752525 1_545
Ba2 O17 2.752525 1_455
Ba2 O3 2.816616 1_554
Ba2 O12 2.857009 1_554
Ba2 O18 2.857009 1_554
Ba2 O6 2.887454 1_455
Ba2 O6 2.887454 1_545
Ba2 O10 2.939999 1_545
Ba2 O7 2.939999 1_455
Ba2 O4 3.136454 1_445
Ba2 O5 3.234852 1_554
Ba3 O15 2.691800 1_555
Ba3 O14 2.691800 1_555
Ba3 O6 2.740504 1_556
Ba3 O5 2.828305 1_555
Ba3 O3 2.856349 1_565
Ba3 O3 2.856349 1_655
Ba3 O12 2.864412 1_655
Ba3 O18 2.864412 1_565
Ba3 O9 2.905666 1_555
Ba3 O8 2.905666 1_555
Ba4 O13 2.691800 1_555
Ba4 O16 2.691800 1_555
Ba4 O5 2.740504 1_554
Ba4 O6 2.828305 1_555
Ba4 O4 2.856349 1_545
Ba4 O4 2.856349 1_455
Ba4 O17 2.864412 1_455
Ba4 O11 2.864412 1_545
Ba4 O7 2.905666 1_555
Ba4 O10 2.905666 1_555
Ba5 O13 2.836308 1_565
Ba5 O16 2.836308 1_655
Ba5 O15 2.859555 1_555
Ba5 O14 2.859555 1_555
Ba5 O2 2.874453 1_655
Ba5 O2 2.874453 1_565
Ba5 O0 2.918279 1_665
Ba5 O12 2.948793 1_655
Ba5 O18 2.948793 1_565
Ba5 O9 2.949809 1_655
Ba5 O8 2.949809 1_565
Ba5 O1 2.951737 1_555
Ba6 O15 2.836308 1_545
Ba6 O14 2.836308 1_455
Ba6 O13 2.859555 1_555
Ba6 O16 2.859555 1_555
Ba6 O1 2.874453 1_455
Ba6 O1 2.874453 1_545
Ba6 O0 2.918279 1_555
Ba6 O17 2.948793 1_455
Ba6 O11 2.948793 1_545
Ba6 O7 2.949809 1_455
Ba6 O10 2.949809 1_545
Ba6 O2 2.951737 1_555
Fe0 O5 1.789816 1_555
Fe0 O8 1.891360 1_555
Fe0 O9 1.891360 1_555
Fe0 O2 1.918311 1_555
Fe0 O12 1.968495 1_555
Fe0 O18 1.968495 1_555
Fe1 O6 1.789816 1_555
Fe1 O10 1.891360 1_555
Fe1 O7 1.891360 1_555
Fe1 O1 1.918311 1_555
Fe1 O17 1.968495 1_555
Fe1 O11 1.968495 1_555
Fe2 O8 1.933143 1_455
Fe2 O9 1.933143 1_545
Fe2 O0 1.935355 1_555
Fe2 O15 2.004319 1_545
Fe2 O14 2.004319 1_455
Fe2 O3 2.026641 1_555
Fe3 O10 1.933143 1_655
Fe3 O7 1.933143 1_565
Fe3 O0 1.935355 1_665
Fe3 O13 2.004319 1_565
Fe3 O16 2.004319 1_655
Fe3 O4 2.026641 1_555
Ni0 O2 1.875574 1_555
Ni0 O14 1.876902 1_455
Ni0 O15 1.876902 1_545
Ni0 O18 1.882508 1_555
Ni0 O12 1.882508 1_555
Ni0 O3 1.901400 1_555
Ni1 O1 1.875574 1_555
Ni1 O16 1.876902 1_655
Ni1 O13 1.876902 1_565
Ni1 O11 1.882508 1_555
Ni1 O17 1.882508 1_555
Ni1 O4 1.901400 1_555
