# generated using pymatgen
data_Y4ReTc5B12
_symmetry_space_group_name_H-M   'P 1'
_cell_length_a   6.18224470
_cell_length_b   6.18603555
_cell_length_c   7.48575847
_cell_angle_alpha   89.34540360
_cell_angle_beta   89.30043257
_cell_angle_gamma   113.71683890
_symmetry_Int_Tables_number   1
_chemical_formula_structural   Y4ReTc5B12
_chemical_formula_sum   'Y4 Re1 Tc5 B12'
_cell_volume   262.04284908
_cell_formula_units_Z   1
loop_
 _symmetry_equiv_pos_site_id
 _symmetry_equiv_pos_as_xyz
  1  'x, y, z'
loop_
 _atom_site_type_symbol
 _atom_site_label
 _atom_site_symmetry_multiplicity
 _atom_site_fract_x
 _atom_site_fract_y
 _atom_site_fract_z
 _atom_site_occupancy
  Y  Y0  1  0.89962114  0.55778570  0.32196993  1
  Y  Y1  1  0.44077048  0.09986161  0.17738264  1
  Y  Y2  1  0.10060843  0.44516702  0.67791529  1
  Y  Y3  1  0.56092824  0.90059572  0.82228751  1
  Re  Re0  1  0.19389619  0.01049200  0.58970007  1
  Tc  Tc0  1  0.41263453  0.58745502  0.24953208  1
  Tc  Tc1  1  0.58750504  0.41285792  0.74974471  1
  Tc  Tc2  1  0.01022493  0.19498339  0.08902529  1
  Tc  Tc3  1  0.80529009  0.98932829  0.41079620  1
  Tc  Tc4  1  0.98926159  0.80394909  0.91195871  1
  B  B0  1  0.75374197  0.85013585  0.12949110  1
  B  B1  1  0.15050068  0.24593388  0.37160160  1
  B  B2  1  0.24391094  0.14964210  0.86940387  1
  B  B3  1  0.84977848  0.75065579  0.62905311  1
  B  B4  1  0.41498339  0.84214538  0.48180614  1
  B  B5  1  0.15842162  0.58467017  0.01944606  1
  B  B6  1  0.58596020  0.15904366  0.51830806  1
  B  B7  1  0.84134955  0.41442973  0.98132909  1
  B  B8  1  0.55824940  0.65038386  0.53388658  1
  B  B9  1  0.35002774  0.44216498  0.96572864  1
  B  B10  1  0.44279532  0.35098438  0.46552405  1
  B  B11  1  0.64954003  0.55733345  0.03410727  1
loop_
_geom_bond_atom_site_label_1
_geom_bond_atom_site_label_2
_geom_bond_distance
_geom_bond_site_symmetry_2
B0 B11 1.818714 1_555
B0 Tc2 2.099808 1_665
B0 Tc0 2.249183 1_555
B0 Tc3 2.261495 1_555
B0 Tc4 2.267320 1_554
B0 Y3 2.675183 1_554
B0 Y0 2.728417 1_555
B0 Y1 2.942593 1_565
B1 B10 1.810753 1_555
B1 Tc3 2.099858 1_445
B1 Tc0 2.256141 1_555
B1 Re0 2.264819 1_555
B1 Tc2 2.272894 1_555
B1 Y2 2.687939 1_555
B1 Y1 2.724205 1_555
B1 Y0 2.944449 1_455
B2 B9 1.819672 1_555
B2 Tc4 2.101653 1_445
B2 Re0 2.250205 1_555
B2 Tc1 2.259123 1_555
B2 Tc2 2.268742 1_556
B2 Y1 2.691635 1_556
B2 Y2 2.730505 1_555
B2 Y3 2.960313 1_545
B3 B8 1.811821 1_555
B3 Re0 2.102234 1_665
B3 Tc1 2.237716 1_555
B3 Tc4 2.273556 1_555
B3 Tc3 2.281971 1_555
B3 Y0 2.672790 1_555
B3 Y3 2.727924 1_555
B3 Y2 2.909475 1_655
B4 B8 1.785131 1_555
B4 B6 1.840464 1_565
B4 Re0 2.177685 1_565
B4 Tc3 2.263686 1_555
B4 Tc0 2.355957 1_555
B4 Y3 2.693656 1_555
B4 Y1 2.731996 1_565
B4 Y2 2.823399 1_555
B4 Y0 3.210888 1_455
B5 B9 1.782827 1_554
B5 B7 1.841961 1_454
B5 Tc4 2.172063 1_454
B5 Tc2 2.259372 1_555
B5 Tc0 2.341323 1_555
B5 Y2 2.689491 1_554
B5 Y0 2.721200 1_455
B5 Y3 2.849924 1_554
B5 Y1 3.203595 1_565
B6 Tc3 2.174019 1_545
B6 Re0 2.273856 1_555
B6 Tc1 2.348892 1_555
B6 Y1 2.695513 1_555
B6 Y3 2.732623 1_545
B6 Y0 2.829222 1_555
B6 Y2 3.208486 1_655
B7 Tc2 2.172187 1_656
B7 Tc4 2.258153 1_555
B7 Tc1 2.350053 1_555
B7 Y0 2.689904 1_556
B7 Y2 2.723955 1_655
B7 Y1 2.835992 1_556
B7 Y3 3.198496 1_545
B8 Tc3 2.218851 1_555
B8 Tc1 2.229206 1_555
B8 Tc0 2.297116 1_555
B8 Y3 2.667109 1_555
B8 Y2 2.789917 1_555
B8 Y0 2.865328 1_555
B9 Tc2 2.222493 1_556
B9 Tc1 2.228276 1_555
B9 Tc0 2.292356 1_556
B9 Y2 2.668921 1_555
B9 Y3 2.795881 1_555
B9 Y1 2.865215 1_556
B10 B8 1.780098 1_555
B10 B6 1.786757 1_555
B10 Tc0 2.227461 1_555
B10 Re0 2.231912 1_555
B10 Tc1 2.294168 1_555
B10 Y1 2.669723 1_555
B10 Y0 2.784888 1_555
B10 Y2 2.876289 1_555
B11 B9 1.780025 1_554
B11 B7 1.784241 1_554
B11 Tc4 2.217710 1_554
B11 Tc0 2.224648 1_555
B11 Tc1 2.294504 1_554
B11 Y0 2.666795 1_555
B11 Y1 2.789860 1_555
B11 Y3 2.864148 1_554
