# generated using pymatgen
data_K2Sc4Cu4S9
_symmetry_space_group_name_H-M   'P 1'
_cell_length_a   3.79408204
_cell_length_b   6.95210228
_cell_length_c   14.57728670
_cell_angle_alpha   93.98162172
_cell_angle_beta   97.47748922
_cell_angle_gamma   105.83530777
_symmetry_Int_Tables_number   1
_chemical_formula_structural   K2Sc4Cu4S9
_chemical_formula_sum   'K2 Sc4 Cu4 S9'
_cell_volume   364.53867220
_cell_formula_units_Z   1
loop_
 _symmetry_equiv_pos_site_id
 _symmetry_equiv_pos_as_xyz
  1  'x, y, z'
loop_
 _atom_site_type_symbol
 _atom_site_label
 _atom_site_symmetry_multiplicity
 _atom_site_fract_x
 _atom_site_fract_y
 _atom_site_fract_z
 _atom_site_occupancy
  K  K0  1  0.25871655  0.28971996  0.22771314  1
  K  K1  1  0.74128345  0.71028004  0.77228686  1
  Sc  Sc0  1  0.40233234  0.74865391  0.05600877  1
  Sc  Sc1  1  0.62852210  0.86158241  0.39545979  1
  Sc  Sc2  1  0.37147890  0.13841859  0.60454021  1
  Sc  Sc3  1  0.59766766  0.25134509  0.94399123  1
  Cu  Cu0  1  0.98221690  0.73454148  0.22989533  1
  Cu  Cu1  1  0.89065204  0.32160515  0.45970193  1
  Cu  Cu2  1  0.10934796  0.67839485  0.54029807  1
  Cu  Cu3  1  0.01778410  0.26545952  0.77010467  1
  S  S0  1  0.00000000  0.00000000  0.00000000  1
  S  S1  1  0.80430986  0.51084635  0.09777337  1
  S  S2  1  0.57237194  0.92257239  0.22217149  1
  S  S3  1  0.98586524  0.59775194  0.37398054  1
  S  S4  1  0.28133124  0.13712743  0.42553405  1
  S  S5  1  0.71866876  0.86287157  0.57446595  1
  S  S6  1  0.01413576  0.40224906  0.62601946  1
  S  S7  1  0.42762806  0.07742761  0.77782851  1
  S  S8  1  0.19569014  0.48915265  0.90222663  1
loop_
_geom_bond_atom_site_label_1
_geom_bond_atom_site_label_2
_geom_bond_distance
_geom_bond_site_symmetry_2
K0 S2 3.097060 1_445
K0 S2 3.097061 1_545
K0 S4 3.139829 1_555
K0 S1 3.150297 1_555
K0 S1 3.150297 1_455
K0 S3 3.369571 1_555
K0 S3 3.369575 1_455
K0 S0 3.630912 1_555
K1 S7 3.097060 1_665
K1 S7 3.097061 1_565
K1 S5 3.139827 1_555
K1 S8 3.150299 1_555
K1 S8 3.150302 1_655
K1 S6 3.369566 1_555
K1 S6 3.369572 1_655
K1 S0 3.630912 1_666
Cu0 S2 2.285533 1_555
Cu0 S2 2.285542 1_655
Cu0 S1 2.292666 1_555
Cu0 S3 2.364975 1_555
Cu1 S4 2.287114 1_555
Cu1 S4 2.287126 1_655
Cu1 S3 2.334470 1_555
Cu1 S6 2.405009 1_655
Cu2 S5 2.287112 1_555
Cu2 S5 2.287121 1_455
Cu2 S6 2.334464 1_555
Cu2 S3 2.405008 1_455
Cu3 S7 2.285535 1_555
Cu3 S7 2.285547 1_455
Cu3 S8 2.292659 1_555
Cu3 S6 2.364975 1_555
S0 Sc3 2.716522 1_554
S0 Sc0 2.716525 1_445
S0 Sc3 2.716525 1_454
S0 Sc0 2.716531 1_545
S1 Sc0 2.589238 1_555
S1 Sc0 2.589243 1_655
S1 Sc3 2.665281 1_554
S2 Sc0 2.550696 1_555
S2 Sc1 2.581509 1_555
S3 Sc1 2.586170 1_555
S3 Sc1 2.586181 1_655
S4 Sc2 2.586298 1_555
S4 Sc1 2.647221 1_445
S4 Sc1 2.647224 1_545
S5 Sc1 2.586299 1_555
S5 Sc2 2.647230 1_665
S5 Sc2 2.647233 1_565
S6 Sc2 2.586170 1_555
S6 Sc2 2.586181 1_455
S7 Sc3 2.550694 1_555
S7 Sc2 2.581511 1_555
S8 Sc3 2.589238 1_555
S8 Sc3 2.589243 1_455
S8 Sc0 2.665281 1_556
