# generated using pymatgen
data_V3Ni2PN
_symmetry_space_group_name_H-M   'P 1'
_cell_length_a   7.48907399
_cell_length_b   7.48907406
_cell_length_c   7.48907381
_cell_angle_alpha   59.99999676
_cell_angle_beta   59.99999646
_cell_angle_gamma   59.99999794
_symmetry_Int_Tables_number   1
_chemical_formula_structural   V3Ni2PN
_chemical_formula_sum   'V12 Ni8 P4 N4'
_cell_volume   297.00880954
_cell_formula_units_Z   4
loop_
 _symmetry_equiv_pos_site_id
 _symmetry_equiv_pos_as_xyz
  1  'x, y, z'
loop_
 _atom_site_type_symbol
 _atom_site_label
 _atom_site_symmetry_multiplicity
 _atom_site_fract_x
 _atom_site_fract_y
 _atom_site_fract_z
 _atom_site_occupancy
  V  V0  1  0.81448701  0.81448701  0.18551299  1
  V  V1  1  0.18551299  0.18551299  0.81448701  1
  V  V2  1  0.81448701  0.18551299  0.81448701  1
  V  V3  1  0.18551299  0.81448701  0.18551299  1
  V  V4  1  0.18551299  0.81448701  0.81448701  1
  V  V5  1  0.81448701  0.18551299  0.18551299  1
  V  V6  1  0.43551299  0.43551299  0.06448701  1
  V  V7  1  0.06448701  0.06448701  0.43551299  1
  V  V8  1  0.43551299  0.06448701  0.43551299  1
  V  V9  1  0.06448701  0.43551299  0.06448701  1
  V  V10  1  0.06448701  0.43551299  0.43551299  1
  V  V11  1  0.43551299  0.06448701  0.06448701  1
  Ni  Ni0  1  0.74745300  0.41751533  0.41751533  1
  Ni  Ni1  1  0.41751533  0.74745300  0.41751533  1
  Ni  Ni2  1  0.41751533  0.41751533  0.74745300  1
  Ni  Ni3  1  0.41751533  0.41751533  0.41751533  1
  Ni  Ni4  1  0.50254700  0.83248467  0.83248467  1
  Ni  Ni5  1  0.83248467  0.50254700  0.83248467  1
  Ni  Ni6  1  0.83248467  0.83248467  0.50254700  1
  Ni  Ni7  1  0.83248467  0.83248467  0.83248467  1
  P  P0  1  0.12500000  0.62500000  0.62500000  1
  P  P1  1  0.62500000  0.12500000  0.62500000  1
  P  P2  1  0.62500000  0.62500000  0.12500000  1
  P  P3  1  0.62500000  0.62500000  0.62500000  1
  N  N0  1  0.62500000  0.12500000  0.12500000  1
  N  N1  1  0.12500000  0.62500000  0.12500000  1
  N  N2  1  0.12500000  0.12500000  0.62500000  1
  N  N3  1  0.12500000  0.12500000  0.12500000  1
loop_
_geom_bond_atom_site_label_1
_geom_bond_atom_site_label_2
_geom_bond_distance
_geom_bond_site_symmetry_2
Ni0 P2 2.287905 1_555
Ni0 P1 2.287905 1_555
Ni0 P3 2.287911 1_555
Ni0 Ni2 2.470927 1_555
Ni0 Ni1 2.470928 1_555
Ni0 Ni3 2.470928 1_555
Ni0 V9 2.516303 1_655
Ni0 V7 2.516303 1_655
Ni0 V10 2.516307 1_655
Ni0 V5 2.750283 1_555
Ni0 V2 2.750289 1_555
Ni0 V0 2.750289 1_555
Ni1 P2 2.287905 1_555
Ni1 P0 2.287905 1_555
Ni1 P3 2.287911 1_555
Ni1 Ni2 2.470927 1_555
Ni1 Ni3 2.470928 1_555
Ni1 V11 2.516303 1_565
Ni1 V7 2.516303 1_565
Ni1 V8 2.516307 1_565
Ni1 V3 2.750283 1_555
Ni1 V4 2.750289 1_555
Ni1 V0 2.750289 1_555
Ni2 P0 2.287905 1_555
Ni2 P1 2.287905 1_555
Ni2 P3 2.287911 1_555
Ni2 Ni3 2.470928 1_555
Ni2 V9 2.516303 1_556
Ni2 V11 2.516303 1_556
Ni2 V6 2.516307 1_556
Ni2 V1 2.750283 1_555
Ni2 V2 2.750289 1_555
Ni2 V4 2.750289 1_555
Ni3 P2 2.287909 1_555
Ni3 P0 2.287909 1_555
Ni3 P1 2.287909 1_555
Ni3 V6 2.516300 1_555
Ni3 V10 2.516300 1_555
Ni3 V8 2.516300 1_555
Ni3 V1 2.750286 1_555
Ni3 V5 2.750286 1_555
Ni3 V3 2.750286 1_555
Ni4 P2 2.287905 1_556
Ni4 P1 2.287905 1_565
Ni4 P3 2.287911 1_555
Ni4 Ni6 2.470927 1_555
Ni4 Ni5 2.470928 1_555
Ni4 Ni7 2.470928 1_555
Ni4 V3 2.516303 1_556
Ni4 V1 2.516303 1_565
Ni4 V4 2.516307 1_555
Ni4 V11 2.750283 1_566
Ni4 V8 2.750289 1_565
Ni4 V6 2.750289 1_556
Ni5 P2 2.287905 1_556
Ni5 P0 2.287905 1_655
Ni5 P3 2.287911 1_555
Ni5 Ni6 2.470927 1_555
Ni5 Ni7 2.470928 1_555
Ni5 V5 2.516303 1_556
Ni5 V1 2.516303 1_655
Ni5 V2 2.516307 1_555
Ni5 V9 2.750283 1_656
Ni5 V10 2.750289 1_655
Ni5 V6 2.750289 1_556
Ni6 P0 2.287905 1_655
Ni6 P1 2.287905 1_565
Ni6 P3 2.287911 1_555
Ni6 Ni7 2.470928 1_555
Ni6 V3 2.516303 1_655
Ni6 V5 2.516303 1_565
Ni6 V0 2.516307 1_555
Ni6 V7 2.750283 1_665
Ni6 V8 2.750289 1_565
Ni6 V10 2.750289 1_655
Ni7 P2 2.287909 1_556
Ni7 P0 2.287909 1_655
Ni7 P1 2.287909 1_565
Ni7 V0 2.516300 1_556
Ni7 V4 2.516300 1_655
Ni7 V2 2.516300 1_565
Ni7 V7 2.750286 1_665
Ni7 V11 2.750286 1_566
Ni7 V9 2.750286 1_656
P0 V9 2.744627 1_556
P0 V3 2.744627 1_555
P0 V7 2.744627 1_565
P0 V1 2.744627 1_555
P0 V4 2.744627 1_555
P0 V10 2.744627 1_555
P1 V11 2.744627 1_556
P1 V5 2.744627 1_555
P1 V7 2.744627 1_655
P1 V1 2.744627 1_555
P1 V2 2.744627 1_555
P1 V8 2.744627 1_555
P2 V9 2.744627 1_655
P2 V3 2.744627 1_555
P2 V11 2.744627 1_565
P2 V5 2.744627 1_555
P2 V0 2.744627 1_555
P2 V6 2.744627 1_555
P3 V6 2.744627 1_556
P3 V0 2.744627 1_555
P3 V10 2.744627 1_655
P3 V4 2.744627 1_555
P3 V8 2.744627 1_565
P3 V2 2.744627 1_555
N0 V8 1.978925 1_555
N0 V2 1.978925 1_554
N0 V0 1.978925 1_545
N0 V6 1.978925 1_555
N0 V5 1.978925 1_555
N0 V11 1.978925 1_555
N1 V10 1.978925 1_555
N1 V4 1.978925 1_554
N1 V6 1.978925 1_555
N1 V0 1.978925 1_455
N1 V3 1.978925 1_555
N1 V9 1.978925 1_555
N2 V2 1.978925 1_455
N2 V8 1.978925 1_555
N2 V10 1.978925 1_555
N2 V4 1.978925 1_545
N2 V1 1.978925 1_555
N2 V7 1.978925 1_555
N3 V7 1.978925 1_555
N3 V1 1.978925 1_554
N3 V11 1.978925 1_555
N3 V5 1.978925 1_455
N3 V9 1.978925 1_555
N3 V3 1.978925 1_545
