# generated using pymatgen
data_Sc3(Ga3Fe)2
_symmetry_space_group_name_H-M   'P 1'
_cell_length_a   8.15447900
_cell_length_b   8.42243900
_cell_length_c   10.42789000
_cell_angle_alpha   90.00000000
_cell_angle_beta   90.00000000
_cell_angle_gamma   90.00000000
_symmetry_Int_Tables_number   1
_chemical_formula_structural   Sc3(Ga3Fe)2
_chemical_formula_sum   'Sc12 Ga24 Fe8'
_cell_volume   716.19376231
_cell_formula_units_Z   4
loop_
 _symmetry_equiv_pos_site_id
 _symmetry_equiv_pos_as_xyz
  1  'x, y, z'
loop_
 _atom_site_type_symbol
 _atom_site_label
 _atom_site_symmetry_multiplicity
 _atom_site_fract_x
 _atom_site_fract_y
 _atom_site_fract_z
 _atom_site_occupancy
  Sc  Sc0  1  0.56742300  0.94768300  0.13988500  1
  Sc  Sc1  1  0.53987100  0.25000000  0.56416700  1
  Sc  Sc2  1  0.03987100  0.25000000  0.93583300  1
  Sc  Sc3  1  0.46012900  0.75000000  0.43583300  1
  Sc  Sc4  1  0.96012900  0.75000000  0.06416700  1
  Sc  Sc5  1  0.06742300  0.94768300  0.36011500  1
  Sc  Sc6  1  0.56742300  0.55231700  0.13988500  1
  Sc  Sc7  1  0.93257700  0.44768300  0.63988500  1
  Sc  Sc8  1  0.06742300  0.55231700  0.36011500  1
  Sc  Sc9  1  0.43257700  0.05231700  0.86011500  1
  Sc  Sc10  1  0.43257700  0.44768300  0.86011500  1
  Sc  Sc11  1  0.93257700  0.05231700  0.63988500  1
  Ga  Ga0  1  0.11597800  0.58879200  0.84355600  1
  Ga  Ga1  1  0.11597800  0.91120800  0.84355600  1
  Ga  Ga2  1  0.61597800  0.58879200  0.65644400  1
  Ga  Ga3  1  0.88402200  0.41120800  0.15644400  1
  Ga  Ga4  1  0.29547600  0.50571800  0.58716800  1
  Ga  Ga5  1  0.79547600  0.99428200  0.91283200  1
  Ga  Ga6  1  0.70452400  0.00571800  0.41283200  1
  Ga  Ga7  1  0.20452400  0.49428200  0.08716800  1
  Ga  Ga8  1  0.70452400  0.49428200  0.41283200  1
  Ga  Ga9  1  0.20452400  0.00571800  0.08716800  1
  Ga  Ga10  1  0.29547600  0.99428200  0.58716800  1
  Ga  Ga11  1  0.79547600  0.50571800  0.91283200  1
  Ga  Ga12  1  0.61597800  0.91120800  0.65644400  1
  Ga  Ga13  1  0.88402200  0.08879200  0.15644400  1
  Ga  Ga14  1  0.38402200  0.41120800  0.34355600  1
  Ga  Ga15  1  0.09843000  0.75000000  0.59080900  1
  Ga  Ga16  1  0.59843000  0.75000000  0.90919100  1
  Ga  Ga17  1  0.90157000  0.25000000  0.40919100  1
  Ga  Ga18  1  0.40157000  0.25000000  0.09080900  1
  Ga  Ga19  1  0.77983200  0.75000000  0.28431800  1
  Ga  Ga20  1  0.27983200  0.75000000  0.21568200  1
  Ga  Ga21  1  0.22016800  0.25000000  0.71568200  1
  Ga  Ga22  1  0.72016800  0.25000000  0.78431800  1
  Ga  Ga23  1  0.38402200  0.08879200  0.34355600  1
  Fe  Fe0  1  0.31764800  0.75000000  0.97770000  1
  Fe  Fe1  1  0.81764800  0.75000000  0.52230000  1
  Fe  Fe2  1  0.68235200  0.25000000  0.02230000  1
  Fe  Fe3  1  0.18235200  0.25000000  0.47770000  1
  Fe  Fe4  1  0.36289900  0.75000000  0.73592300  1
  Fe  Fe5  1  0.86289900  0.75000000  0.76407700  1
  Fe  Fe6  1  0.63710100  0.25000000  0.26407700  1
  Fe  Fe7  1  0.13710100  0.25000000  0.23592300  1
loop_
_geom_bond_atom_site_label_1
_geom_bond_atom_site_label_2
_geom_bond_distance
_geom_bond_site_symmetry_2
Ga0 Ga1 2.715529 1_555
Ga0 Ga7 2.758333 1_556
Ga0 Ga11 2.800348 1_455
Ga0 Sc10 2.847364 1_555
Ga0 Sc7 2.856555 1_455
Ga0 Sc4 2.958203 1_456
Ga0 Ga15 2.968246 1_555
Ga0 Sc2 3.074622 1_555
Ga1 Ga9 2.758333 1_566
Ga1 Ga5 2.800348 1_455
Ga1 Sc9 2.847364 1_565
Ga1 Sc11 2.856555 1_465
Ga1 Sc4 2.958203 1_456
Ga1 Ga15 2.968246 1_555
Ga1 Sc2 3.074622 1_565
Ga2 Ga8 2.758333 1_555
Ga2 Ga4 2.800348 1_555
Ga2 Sc7 2.847364 1_555
Ga2 Sc10 2.856555 1_555
Ga2 Sc3 2.958203 1_555
Ga2 Sc1 3.074622 1_555
Ga3 Ga7 2.800348 1_655
Ga3 Sc6 2.847364 1_555
Ga3 Sc8 2.856555 1_655
Ga3 Sc2 2.958203 1_654
Ga3 Sc4 3.074622 1_555
Ga4 Sc3 2.919974 1_555
Ga4 Sc1 2.944139 1_555
Ga4 Sc8 3.036161 1_555
Ga4 Sc7 3.049311 1_455
Ga4 Sc10 3.096776 1_555
Ga5 Sc4 2.919974 1_556
Ga5 Sc2 2.944139 1_665
Ga5 Sc0 3.036161 1_556
Ga5 Sc9 3.049311 1_565
Ga5 Sc11 3.096776 1_565
Ga6 Sc1 2.919974 1_555
Ga6 Sc3 2.944139 1_545
Ga6 Sc11 3.036161 1_555
Ga6 Sc5 3.049311 1_645
Ga6 Sc0 3.096776 1_545
Ga7 Sc2 2.919974 1_554
Ga7 Sc4 2.944139 1_455
Ga7 Sc10 3.036161 1_554
Ga7 Sc6 3.049311 1_555
Ga7 Sc8 3.096776 1_555
Ga8 Sc1 2.919974 1_555
Ga8 Sc3 2.944139 1_555
Ga8 Sc7 3.036161 1_555
Ga8 Sc8 3.049311 1_655
Ga8 Sc6 3.096776 1_555
Ga9 Sc2 2.919974 1_554
Ga9 Sc4 2.944139 1_445
Ga9 Sc9 3.036161 1_554
Ga9 Sc0 3.049311 1_545
Ga9 Sc5 3.096776 1_545
Ga10 Ga21 2.609940 1_565
Ga10 Ga15 2.610819 1_555
Ga10 Ga23 2.758333 1_565
Ga10 Ga12 2.800348 1_555
Ga10 Sc3 2.919974 1_555
Ga10 Sc1 2.944139 1_565
Ga10 Sc5 3.036161 1_555
Ga10 Sc11 3.049311 1_465
Ga10 Sc9 3.096776 1_565
Ga11 Ga22 2.609940 1_555
Ga11 Ga16 2.610819 1_555
Ga11 Ga3 2.758333 1_556
Ga11 Sc4 2.919974 1_556
Ga11 Sc2 2.944139 1_655
Ga11 Sc6 3.036161 1_556
Ga11 Sc10 3.049311 1_555
Ga11 Sc7 3.096776 1_555
Ga12 Ga2 2.715529 1_555
Ga12 Ga6 2.758333 1_565
Ga12 Sc11 2.847364 1_565
Ga12 Sc9 2.856555 1_565
Ga12 Sc3 2.958203 1_555
Ga12 Ga16 2.968246 1_555
Ga12 Sc1 3.074622 1_565
Ga13 Ga3 2.715529 1_555
Ga13 Ga5 2.758333 1_544
Ga13 Ga9 2.800348 1_655
Ga13 Sc0 2.847364 1_545
Ga13 Sc5 2.856555 1_645
Ga13 Sc2 2.958203 1_654
Ga13 Ga17 2.968246 1_555
Ga13 Sc4 3.074622 1_545
Ga14 Ga23 2.715529 1_555
Ga14 Ga4 2.758333 1_555
Ga14 Ga8 2.800348 1_555
Ga14 Sc8 2.847364 1_555
Ga14 Sc6 2.856555 1_555
Ga14 Sc1 2.958203 1_555
Ga14 Ga18 2.968246 1_555
Ga14 Sc3 3.074622 1_555
Ga15 Ga4 2.610819 1_555
Ga15 Sc11 2.928203 1_465
Ga15 Sc7 2.928203 1_455
Ga15 Sc5 2.936533 1_555
Ga15 Sc8 2.936533 1_555
Ga15 Sc3 3.363190 1_555
Ga16 Ga5 2.610819 1_555
Ga16 Sc9 2.928203 1_565
Ga16 Sc10 2.928203 1_555
Ga16 Sc0 2.936533 1_556
Ga16 Sc6 2.936533 1_556
Ga16 Ga2 2.968246 1_555
Ga16 Sc4 3.363190 1_556
Ga17 Ga8 2.610819 1_555
Ga17 Ga6 2.610819 1_555
Ga17 Sc8 2.928203 1_655
Ga17 Sc5 2.928203 1_645
Ga17 Sc11 2.936533 1_555
Ga17 Sc7 2.936533 1_555
Ga17 Ga3 2.968246 1_555
Ga17 Sc1 3.363190 1_555
Ga18 Ga9 2.610819 1_555
Ga18 Ga7 2.610819 1_555
Ga18 Sc6 2.928203 1_555
Ga18 Sc0 2.928203 1_545
Ga18 Sc9 2.936533 1_554
Ga18 Sc10 2.936533 1_554
Ga18 Ga23 2.968246 1_555
Ga18 Sc2 3.363190 1_554
Ga19 Ga6 2.609940 1_565
Ga19 Ga8 2.609940 1_555
Ga19 Sc4 2.726143 1_555
Ga19 Sc0 2.835610 1_555
Ga19 Sc6 2.835610 1_555
Ga19 Sc5 2.982721 1_655
Ga19 Sc8 2.982721 1_655
Ga19 Sc3 3.048418 1_555
Ga20 Ga9 2.609940 1_565
Ga20 Ga7 2.609940 1_555
Ga20 Sc3 2.726143 1_555
Ga20 Sc5 2.835610 1_555
Ga20 Sc8 2.835610 1_555
Ga20 Sc6 2.982721 1_555
Ga20 Sc0 2.982721 1_555
Ga20 Sc4 3.048418 1_455
Ga21 Ga4 2.609940 1_555
Ga21 Sc2 2.726143 1_555
Ga21 Sc9 2.835610 1_555
Ga21 Sc10 2.835610 1_555
Ga21 Sc7 2.982721 1_455
Ga21 Sc11 2.982721 1_455
Ga21 Sc1 3.048418 1_555
Ga22 Ga5 2.609940 1_545
Ga22 Sc1 2.726143 1_555
Ga22 Sc7 2.835610 1_555
Ga22 Sc11 2.835610 1_555
Ga22 Sc9 2.982721 1_555
Ga22 Sc10 2.982721 1_555
Ga22 Sc2 3.048418 1_655
Ga23 Ga6 2.800348 1_555
Ga23 Sc5 2.847364 1_545
Ga23 Sc0 2.856555 1_545
Ga23 Sc1 2.958203 1_555
Ga23 Sc3 3.074622 1_545
Fe0 Ga16 2.398496 1_555
Fe0 Ga20 2.500736 1_556
Fe0 Fe4 2.548084 1_555
Fe0 Ga0 2.550431 1_555
Fe0 Ga1 2.550431 1_555
Fe0 Ga9 2.606288 1_566
Fe0 Ga7 2.606288 1_556
Fe0 Sc9 2.977443 1_565
Fe0 Sc10 2.977443 1_555
Fe0 Sc4 3.051631 1_456
Fe0 Sc6 3.127450 1_556
Fe0 Sc0 3.127450 1_556
Fe1 Ga15 2.398496 1_655
Fe1 Ga19 2.500736 1_555
Fe1 Fe5 2.548084 1_555
Fe1 Ga2 2.550431 1_555
Fe1 Ga12 2.550431 1_555
Fe1 Ga6 2.606288 1_565
Fe1 Ga8 2.606288 1_555
Fe1 Sc11 2.977443 1_565
Fe1 Sc7 2.977443 1_555
Fe1 Sc3 3.051631 1_555
Fe1 Sc5 3.127450 1_655
Fe1 Sc8 3.127450 1_655
Fe2 Ga18 2.398496 1_555
Fe2 Ga22 2.500736 1_554
Fe2 Fe6 2.548084 1_555
Fe2 Ga3 2.550431 1_555
Fe2 Ga13 2.550431 1_555
Fe2 Ga5 2.606288 1_544
Fe2 Ga11 2.606288 1_554
Fe2 Sc6 2.977443 1_555
Fe2 Sc0 2.977443 1_545
Fe2 Sc2 3.051631 1_654
Fe2 Sc9 3.127450 1_554
Fe2 Sc10 3.127450 1_554
Fe3 Ga17 2.398496 1_455
Fe3 Ga21 2.500736 1_555
Fe3 Fe7 2.548084 1_555
Fe3 Ga14 2.550431 1_555
Fe3 Ga23 2.550431 1_555
Fe3 Ga4 2.606288 1_555
Fe3 Ga10 2.606288 1_545
Fe3 Sc5 2.977443 1_545
Fe3 Sc8 2.977443 1_555
Fe3 Sc1 3.051631 1_555
Fe3 Sc7 3.127450 1_455
Fe3 Sc11 3.127450 1_455
Fe4 Ga12 2.605648 1_555
Fe4 Ga2 2.605648 1_555
Fe4 Ga15 2.634545 1_555
Fe4 Ga10 2.634693 1_555
Fe4 Ga4 2.634693 1_555
Fe4 Ga16 2.636935 1_555
Fe4 Ga1 2.675351 1_555
Fe4 Ga0 2.675351 1_555
Fe4 Sc9 2.912626 1_565
Fe4 Sc10 2.912626 1_555
Fe4 Sc3 3.228185 1_555
Fe5 Ga1 2.605648 1_655
Fe5 Ga0 2.605648 1_655
Fe5 Ga16 2.634545 1_555
Fe5 Ga11 2.634693 1_555
Fe5 Ga5 2.634693 1_555
Fe5 Ga15 2.636935 1_655
Fe5 Ga2 2.675351 1_555
Fe5 Ga12 2.675351 1_555
Fe5 Sc11 2.912626 1_565
Fe5 Sc7 2.912626 1_555
Fe5 Sc4 3.228185 1_556
Fe6 Ga23 2.605648 1_555
Fe6 Ga14 2.605648 1_555
Fe6 Ga17 2.634545 1_555
Fe6 Ga8 2.634693 1_555
Fe6 Ga6 2.634693 1_555
Fe6 Ga18 2.636935 1_555
Fe6 Ga13 2.675351 1_555
Fe6 Ga3 2.675351 1_555
Fe6 Sc6 2.912626 1_555
Fe6 Sc0 2.912626 1_545
Fe6 Sc1 3.228185 1_555
Fe7 Ga13 2.605648 1_455
Fe7 Ga3 2.605648 1_455
Fe7 Ga18 2.634545 1_555
Fe7 Ga9 2.634693 1_555
Fe7 Ga7 2.634693 1_555
Fe7 Ga17 2.636935 1_455
Fe7 Ga14 2.675351 1_555
Fe7 Ga23 2.675351 1_555
Fe7 Sc5 2.912626 1_545
Fe7 Sc8 2.912626 1_555
Fe7 Sc2 3.228185 1_554
