# generated using pymatgen
data_Ta4GeB2Mo
_symmetry_space_group_name_H-M   'P 1'
_cell_length_a   7.26717225
_cell_length_b   7.26717220
_cell_length_c   7.26717226
_cell_angle_alpha   129.62216874
_cell_angle_beta   129.62216956
_cell_angle_gamma   74.01151692
_symmetry_Int_Tables_number   1
_chemical_formula_structural   Ta4GeB2Mo
_chemical_formula_sum   'Ta8 Ge2 B4 Mo2'
_cell_volume   222.06696219
_cell_formula_units_Z   2
loop_
 _symmetry_equiv_pos_site_id
 _symmetry_equiv_pos_as_xyz
  1  'x, y, z'
loop_
 _atom_site_type_symbol
 _atom_site_label
 _atom_site_symmetry_multiplicity
 _atom_site_fract_x
 _atom_site_fract_y
 _atom_site_fract_z
 _atom_site_occupancy
  Ta  Ta0  1  0.52888197  0.69597620  0.50000000  1
  Ta  Ta1  1  0.19597620  0.02888197  0.50000000  1
  Ta  Ta2  1  0.02888197  0.52888197  0.83290578  1
  Ta  Ta3  1  0.69597620  0.19597620  0.16709422  1
  Ta  Ta4  1  0.47111803  0.30402380  0.50000000  1
  Ta  Ta5  1  0.80402380  0.97111803  0.50000000  1
  Ta  Ta6  1  0.97111803  0.47111803  0.16709422  1
  Ta  Ta7  1  0.30402380  0.80402380  0.83290578  1
  Ge  Ge0  1  0.25000000  0.25000000  0.00000000  1
  Ge  Ge1  1  0.75000000  0.75000000  0.00000000  1
  B  B0  1  0.88025334  0.61974666  0.50000000  1
  B  B1  1  0.11974666  0.38025334  0.50000000  1
  B  B2  1  0.38025334  0.88025334  0.26050668  1
  B  B3  1  0.61974666  0.11974666  0.73949332  1
  Mo  Mo0  1  0.50000000  0.50000000  0.00000000  1
  Mo  Mo1  1  0.00000000  0.00000000  0.00000000  1
loop_
_geom_bond_atom_site_label_1
_geom_bond_atom_site_label_2
_geom_bond_distance
_geom_bond_site_symmetry_2
Ge0 Ta5 2.649564 1_444
Ge0 Ta0 2.649564 1_555
Ge0 Ta4 2.649564 1_555
Ge0 Ta7 2.649564 1_544
Ge0 Ta2 2.649564 1_554
Ge0 Ta3 2.649564 1_555
Ge0 Ta1 2.649564 1_554
Ge0 Ta6 2.649564 1_455
Ge0 Mo0 2.901691 1_555
Ge0 Mo1 2.901691 1_555
Ge1 Ta1 2.649564 1_665
Ge1 Ta4 2.649564 1_554
Ge1 Ta0 2.649564 1_554
Ge1 Ta3 2.649564 1_565
Ge1 Ta6 2.649564 1_555
Ge1 Ta7 2.649564 1_554
Ge1 Ta5 2.649564 1_555
Ge1 Ta2 2.649564 1_654
Ge1 Mo0 2.901691 1_555
Ge1 Mo1 2.901691 1_665
B0 B1 2.095124 1_655
B0 Ta7 2.401540 1_655
B0 Ta3 2.401540 1_555
B0 Ta2 2.401540 1_655
B0 Ta6 2.401540 1_555
B0 Ta5 2.459241 1_555
B0 Ta0 2.459241 1_555
B0 Mo0 2.466078 1_555
B0 Mo1 2.466078 1_666
B1 Ta3 2.401540 1_455
B1 Ta7 2.401540 1_555
B1 Ta6 2.401540 1_455
B1 Ta2 2.401540 1_555
B1 Ta1 2.459241 1_555
B1 Ta4 2.459241 1_555
B1 Mo0 2.466078 1_556
B1 Mo1 2.466078 1_555
B2 B3 2.095124 1_565
B2 Ta4 2.401540 1_565
B2 Ta5 2.401540 1_555
B2 Ta0 2.401540 1_555
B2 Ta1 2.401540 1_565
B2 Ta2 2.459241 1_554
B2 Ta7 2.459241 1_554
B2 Mo1 2.466078 1_565
B2 Mo0 2.466078 1_555
B3 Ta0 2.401540 1_545
B3 Ta1 2.401540 1_555
B3 Ta4 2.401540 1_555
B3 Ta5 2.401540 1_545
B3 Ta6 2.459241 1_556
B3 Ta3 2.459241 1_556
B3 Mo1 2.466078 1_656
B3 Mo0 2.466078 1_556
Mo0 Ta5 2.804808 1_555
Mo0 Ta1 2.804808 1_554
Mo0 Ta7 2.804808 1_554
Mo0 Ta3 2.804808 1_555
Mo0 Ta6 2.804808 1_555
Mo0 Ta2 2.804808 1_554
Mo0 Ta0 2.804808 1_555
Mo0 Ta4 2.804808 1_554
Mo1 Ta4 2.804808 1_555
Mo1 Ta0 2.804808 1_444
Mo1 Ta6 2.804808 1_455
Mo1 Ta2 2.804808 1_544
Mo1 Ta1 2.804808 1_555
Mo1 Ta5 2.804808 1_444
Mo1 Ta7 2.804808 1_544
Mo1 Ta3 2.804808 1_455
