# generated using pymatgen
data_Li7MnAs4
_symmetry_space_group_name_H-M   'P 1'
_cell_length_a   6.03615200
_cell_length_b   12.14141500
_cell_length_c   8.58527759
_cell_angle_alpha   45.00000000
_cell_angle_beta   90.00000000
_cell_angle_gamma   90.00000000
_symmetry_Int_Tables_number   1
_chemical_formula_structural   Li7MnAs4
_chemical_formula_sum   'Li14 Mn2 As8'
_cell_volume   444.90656596
_cell_formula_units_Z   2
loop_
 _symmetry_equiv_pos_site_id
 _symmetry_equiv_pos_as_xyz
  1  'x, y, z'
loop_
 _atom_site_type_symbol
 _atom_site_label
 _atom_site_symmetry_multiplicity
 _atom_site_fract_x
 _atom_site_fract_y
 _atom_site_fract_z
 _atom_site_occupancy
  Li  Li0  1  0.99571600  0.00000000  0.00000000  1
  Li  Li1  1  0.00428400  0.50000000  0.00000000  1
  Li  Li2  1  0.25000000  0.24516700  0.50000000  1
  Li  Li3  1  0.25000000  0.75483300  0.50000000  1
  Li  Li4  1  0.25000000  0.00000000  0.50000000  1
  Li  Li5  1  0.25000000  0.24516700  0.00966700  1
  Li  Li6  1  0.25000000  0.75483300  0.99033300  1
  Li  Li7  1  0.49571600  0.00000000  0.00000000  1
  Li  Li8  1  0.50428400  0.50000000  0.00000000  1
  Li  Li9  1  0.75000000  0.25483300  0.99033300  1
  Li  Li10  1  0.75000000  0.50000000  0.50000000  1
  Li  Li11  1  0.75000000  0.74516700  0.00966700  1
  Li  Li12  1  0.75000000  0.25483300  0.50000000  1
  Li  Li13  1  0.75000000  0.74516700  0.50000000  1
  Mn  Mn0  1  0.25000000  0.50000000  0.50000000  1
  Mn  Mn1  1  0.75000000  0.00000000  0.50000000  1
  As  As0  1  0.00758100  0.50000000  0.27226000  1
  As  As1  1  0.99241900  0.00000000  0.72774000  1
  As  As2  1  0.50758100  0.22774000  0.27226000  1
  As  As3  1  0.49241900  0.27226000  0.72774000  1
  As  As4  1  0.49241900  0.72774000  0.27226000  1
  As  As5  1  0.50758100  0.77226000  0.72774000  1
  As  As6  1  0.00758100  0.50000000  0.72774000  1
  As  As7  1  0.99241900  0.00000000  0.27226000  1
loop_
_geom_bond_atom_site_label_1
_geom_bond_atom_site_label_2
_geom_bond_distance
_geom_bond_site_symmetry_2
As0 Li1 2.337512 1_555
As0 Mn0 2.442137 1_555
As0 Li10 2.498049 1_455
As0 Li11 2.621083 1_455
As0 Li12 2.621083 1_455
As0 Li2 2.642311 1_555
As0 Li6 2.642312 1_554
As1 Li0 2.337512 1_556
As1 Mn1 2.442137 1_555
As1 Li4 2.498049 1_655
As1 Li6 2.621083 1_645
As1 Li2 2.621083 1_655
As1 Li12 2.642311 1_555
As1 Li11 2.642312 1_546
As2 Li8 2.337512 1_555
As2 Mn1 2.442137 1_555
As2 Li4 2.498049 1_555
As2 Li5 2.621076 1_555
As2 Li2 2.621083 1_555
As2 Li12 2.642311 1_555
As2 Li9 2.642318 1_554
As3 Li7 2.337512 1_556
As3 Mn0 2.442137 1_555
As3 Li10 2.498049 1_555
As3 Li9 2.621076 1_555
As3 Li12 2.621083 1_555
As3 Li2 2.642311 1_555
As3 Li5 2.642318 1_556
As4 Li7 2.337512 1_565
As4 Mn0 2.442137 1_555
As4 Li10 2.498049 1_555
As4 Li11 2.621076 1_555
As4 Li13 2.621083 1_555
As4 Li3 2.642311 1_555
As4 Li6 2.642318 1_554
As5 Li8 2.337512 1_556
As5 Mn1 2.442137 1_565
As5 Li4 2.498049 1_565
As5 Li6 2.621076 1_555
As5 Li3 2.621083 1_555
As5 Li13 2.642311 1_555
As5 Li11 2.642318 1_556
As6 Li1 2.337512 1_556
As6 Mn0 2.442137 1_555
As6 Li10 2.498049 1_455
As6 Li9 2.621083 1_455
As6 Li13 2.621083 1_455
As6 Li3 2.642311 1_555
As6 Li5 2.642312 1_556
As7 Li0 2.337512 1_555
As7 Mn1 2.442137 1_555
As7 Li4 2.498049 1_655
As7 Li5 2.621083 1_655
As7 Li3 2.621083 1_645
As7 Li13 2.642311 1_545
As7 Li9 2.642312 1_554
