# generated using pymatgen
data_Ba3ZnPdO6
_symmetry_space_group_name_H-M   'P 1'
_cell_length_a   7.00446385
_cell_length_b   7.00446356
_cell_length_c   7.00446456
_cell_angle_alpha   93.31249811
_cell_angle_beta   93.31250074
_cell_angle_gamma   93.31249257
_symmetry_Int_Tables_number   1
_chemical_formula_structural   Ba3ZnPdO6
_chemical_formula_sum   'Ba6 Zn2 Pd2 O12'
_cell_volume   341.86458819
_cell_formula_units_Z   2
loop_
 _symmetry_equiv_pos_site_id
 _symmetry_equiv_pos_as_xyz
  1  'x, y, z'
loop_
 _atom_site_type_symbol
 _atom_site_label
 _atom_site_symmetry_multiplicity
 _atom_site_fract_x
 _atom_site_fract_y
 _atom_site_fract_z
 _atom_site_occupancy
  Ba  Ba0  1  0.11367298  0.75000000  0.38632702  1
  Ba  Ba1  1  0.38632702  0.11367298  0.75000000  1
  Ba  Ba2  1  0.25000000  0.61367298  0.88632702  1
  Ba  Ba3  1  0.88632702  0.25000000  0.61367298  1
  Ba  Ba4  1  0.61367298  0.88632702  0.25000000  1
  Ba  Ba5  1  0.75000000  0.38632702  0.11367298  1
  Zn  Zn0  1  0.75000000  0.75000000  0.75000000  1
  Zn  Zn1  1  0.25000000  0.25000000  0.25000000  1
  Pd  Pd0  1  0.50000000  0.50000000  0.50000000  1
  Pd  Pd1  1  0.00000000  0.00000000  0.00000000  1
  O  O0  1  0.96859685  0.09693208  0.27534173  1
  O  O1  1  0.27534173  0.96859685  0.09693208  1
  O  O2  1  0.09693208  0.27534173  0.96859685  1
  O  O3  1  0.53140315  0.22465827  0.40306792  1
  O  O4  1  0.40306792  0.53140315  0.22465827  1
  O  O5  1  0.22465827  0.40306792  0.53140315  1
  O  O6  1  0.03140315  0.90306792  0.72465827  1
  O  O7  1  0.72465827  0.03140315  0.90306792  1
  O  O8  1  0.90306792  0.72465827  0.03140315  1
  O  O9  1  0.46859685  0.77534173  0.59693208  1
  O  O10  1  0.77534173  0.59693208  0.46859685  1
  O  O11  1  0.59693208  0.46859685  0.77534173  1
loop_
_geom_bond_atom_site_label_1
_geom_bond_atom_site_label_2
_geom_bond_distance
_geom_bond_site_symmetry_2
Ba0 O10 2.652032 1_455
Ba0 O6 2.652032 1_555
Ba0 O9 2.807674 1_555
Ba0 O8 2.807674 1_455
Ba0 O0 2.820392 1_465
Ba0 O5 2.820392 1_555
Ba0 O4 2.856449 1_555
Ba0 O1 2.856449 1_555
Ba1 O9 2.652032 1_545
Ba1 O7 2.652032 1_555
Ba1 O11 2.807674 1_555
Ba1 O6 2.807674 1_545
Ba1 O1 2.820392 1_546
Ba1 O3 2.820392 1_555
Ba1 O5 2.856449 1_555
Ba1 O2 2.856449 1_555
Ba2 O2 2.652032 1_555
Ba2 O4 2.652032 1_556
Ba2 O1 2.807674 1_556
Ba2 O5 2.807674 1_555
Ba2 O11 2.820392 1_555
Ba2 O8 2.820392 1_456
Ba2 O6 2.856449 1_555
Ba2 O9 2.856449 1_555
Ba3 O5 2.652032 1_655
Ba3 O0 2.652032 1_555
Ba3 O3 2.807674 1_555
Ba3 O2 2.807674 1_655
Ba3 O6 2.820392 1_645
Ba3 O10 2.820392 1_555
Ba3 O11 2.856449 1_555
Ba3 O7 2.856449 1_555
Ba4 O3 2.652032 1_565
Ba4 O1 2.652032 1_555
Ba4 O4 2.807674 1_555
Ba4 O0 2.807674 1_565
Ba4 O7 2.820392 1_564
Ba4 O9 2.820392 1_555
Ba4 O10 2.856449 1_555
Ba4 O8 2.856449 1_555
Ba5 O8 2.652032 1_555
Ba5 O11 2.652032 1_554
Ba5 O7 2.807674 1_554
Ba5 O10 2.807674 1_555
Ba5 O4 2.820392 1_555
Ba5 O2 2.820392 1_654
Ba5 O0 2.856449 1_555
Ba5 O3 2.856449 1_555
O0 Pd1 2.035659 1_655
O0 Zn1 2.210065 1_655
O1 Pd1 2.035658 1_565
O1 Zn1 2.210065 1_565
O2 Pd1 2.035658 1_556
O2 Zn1 2.210065 1_556
O3 Pd0 2.035658 1_555
O3 Zn1 2.210065 1_555
O4 Pd0 2.035658 1_555
O4 Zn1 2.210065 1_555
O5 Pd0 2.035658 1_555
O5 Zn1 2.210065 1_555
O6 Pd1 2.035659 1_566
O6 Zn0 2.210065 1_455
O7 Pd1 2.035658 1_656
O7 Zn0 2.210065 1_545
O8 Pd1 2.035658 1_665
O8 Zn0 2.210065 1_554
O9 Pd0 2.035658 1_555
O9 Zn0 2.210065 1_555
O10 Pd0 2.035658 1_555
O10 Zn0 2.210065 1_555
O11 Pd0 2.035658 1_555
O11 Zn0 2.210065 1_555
