# generated using pymatgen
data_Ba6YCr(BO3)6
_symmetry_space_group_name_H-M   'P 1'
_cell_length_a   8.04038626
_cell_length_b   8.04038579
_cell_length_c   8.04038697
_cell_angle_alpha   105.89367785
_cell_angle_beta   105.89368022
_cell_angle_gamma   105.89368290
_symmetry_Int_Tables_number   1
_chemical_formula_structural   Ba6YCr(BO3)6
_chemical_formula_sum   'Ba6 Y1 Cr1 B6 O18'
_cell_volume   445.30789318
_cell_formula_units_Z   1
loop_
 _symmetry_equiv_pos_site_id
 _symmetry_equiv_pos_as_xyz
  1  'x, y, z'
loop_
 _atom_site_type_symbol
 _atom_site_label
 _atom_site_symmetry_multiplicity
 _atom_site_fract_x
 _atom_site_fract_y
 _atom_site_fract_z
 _atom_site_occupancy
  Ba  Ba0  1  0.34325460  0.73309752  0.83006292  1
  Ba  Ba1  1  0.83006292  0.34325460  0.73309752  1
  Ba  Ba2  1  0.73309752  0.83006292  0.34325460  1
  Ba  Ba3  1  0.65674540  0.26690248  0.16993708  1
  Ba  Ba4  1  0.16993708  0.65674540  0.26690248  1
  Ba  Ba5  1  0.26690248  0.16993708  0.65674540  1
  Y  Y0  1  0.00000000  0.00000000  0.00000000  1
  Cr  Cr0  1  0.50000000  0.50000000  0.50000000  1
  B  B0  1  0.37072610  0.05895112  0.29891749  1
  B  B1  1  0.29891749  0.37072610  0.05895112  1
  B  B2  1  0.05895112  0.29891749  0.37072610  1
  B  B3  1  0.70108251  0.62927390  0.94104888  1
  B  B4  1  0.94104888  0.70108251  0.62927390  1
  B  B5  1  0.62927390  0.94104888  0.70108251  1
  O  O0  1  0.42857155  0.49101515  0.23669408  1
  O  O1  1  0.23669408  0.42857155  0.49101515  1
  O  O2  1  0.81791009  0.00204773  0.72883101  1
  O  O3  1  0.00204773  0.72883101  0.81791009  1
  O  O4  1  0.72883101  0.81791009  0.00204773  1
  O  O5  1  0.27116899  0.18208991  0.99795227  1
  O  O6  1  0.18208991  0.99795227  0.27116899  1
  O  O7  1  0.99795227  0.27116899  0.18208991  1
  O  O8  1  0.55796081  0.05946766  0.78877845  1
  O  O9  1  0.05946766  0.78877845  0.55796081  1
  O  O10  1  0.78877845  0.55796081  0.05946766  1
  O  O11  1  0.44203919  0.94053234  0.21122155  1
  O  O12  1  0.94053234  0.21122155  0.44203919  1
  O  O13  1  0.21122155  0.44203919  0.94053234  1
  O  O14  1  0.50898485  0.76330592  0.57142845  1
  O  O15  1  0.76330592  0.57142845  0.50898485  1
  O  O16  1  0.57142845  0.50898485  0.76330592  1
  O  O17  1  0.49101515  0.23669408  0.42857155  1
loop_
_geom_bond_atom_site_label_1
_geom_bond_atom_site_label_2
_geom_bond_distance
_geom_bond_site_symmetry_2
Ba0 O3 2.708681 1_555
Ba0 O13 2.772502 1_555
Ba0 O14 2.788573 1_555
Ba0 O11 2.818944 1_556
Ba0 O4 2.822403 1_556
Ba0 O1 2.841945 1_555
Ba0 O8 2.878587 1_565
Ba0 O9 2.924916 1_555
Ba0 O16 2.953161 1_555
Ba1 O2 2.708681 1_555
Ba1 O12 2.772503 1_555
Ba1 O16 2.788573 1_555
Ba1 O13 2.818944 1_655
Ba1 O3 2.822403 1_655
Ba1 O17 2.841945 1_555
Ba1 O10 2.878588 1_556
Ba1 O8 2.924916 1_555
Ba1 O15 2.953161 1_555
Ba2 O4 2.708682 1_555
Ba2 O11 2.772503 1_555
Ba2 O15 2.788573 1_555
Ba2 O12 2.818943 1_565
Ba2 O2 2.822403 1_565
Ba2 O0 2.841945 1_555
Ba2 O9 2.878588 1_655
Ba2 O10 2.924916 1_555
Ba2 O14 2.953161 1_555
Ba3 O7 2.708681 1_555
Ba3 O10 2.772502 1_555
Ba3 O17 2.788573 1_555
Ba3 O8 2.818944 1_554
Ba3 O5 2.822403 1_554
Ba3 O15 2.841945 1_555
Ba3 O11 2.878587 1_545
Ba3 O12 2.924916 1_555
Ba3 O0 2.953161 1_555
Ba4 O6 2.708681 1_555
Ba4 O9 2.772503 1_555
Ba4 O0 2.788573 1_555
Ba4 O10 2.818944 1_455
Ba4 O7 2.822403 1_455
Ba4 O14 2.841945 1_555
Ba4 O13 2.878588 1_554
Ba4 O11 2.924916 1_555
Ba4 O1 2.953161 1_555
Ba5 O5 2.708682 1_555
Ba5 O8 2.772503 1_555
Ba5 O1 2.788573 1_555
Ba5 O9 2.818943 1_545
Ba5 O6 2.822403 1_545
Ba5 O16 2.841945 1_555
Ba5 O12 2.878588 1_455
Ba5 O13 2.924916 1_555
Ba5 O17 2.953161 1_555
Cr0 O14 2.011134 1_555
Cr0 O17 2.011134 1_555
Cr0 O15 2.011134 1_555
Cr0 O1 2.011134 1_555
Cr0 O16 2.011134 1_555
Cr0 O0 2.011134 1_555
B0 O11 1.373044 1_545
B0 O6 1.392131 1_545
B0 O17 1.392589 1_555
B1 O13 1.373044 1_554
B1 O5 1.392131 1_554
B1 O0 1.392589 1_555
B2 O12 1.373044 1_455
B2 O7 1.392131 1_455
B2 O1 1.392589 1_555
B3 O10 1.373044 1_556
B3 O4 1.392131 1_556
B3 O16 1.392589 1_555
B4 O9 1.373044 1_655
B4 O3 1.392131 1_655
B4 O15 1.392589 1_555
B5 O8 1.373044 1_565
B5 O2 1.392131 1_565
B5 O14 1.392589 1_555
O2 Y0 2.276406 1_656
O3 Y0 2.276406 1_566
O4 Y0 2.276405 1_665
O5 Y0 2.276405 1_556
O6 Y0 2.276406 1_565
O7 Y0 2.276406 1_655
