# generated using pymatgen
data_Sr3NbAl3(SiO7)2
_symmetry_space_group_name_H-M   'P 1'
_cell_length_a   8.24530287
_cell_length_b   8.24530387
_cell_length_c   5.01771904
_cell_angle_alpha   90.00000000
_cell_angle_beta   90.00000000
_cell_angle_gamma   120.00000772
_symmetry_Int_Tables_number   1
_chemical_formula_structural   Sr3NbAl3(SiO7)2
_chemical_formula_sum   'Sr3 Nb1 Al3 Si2 O14'
_cell_volume   295.42702178
_cell_formula_units_Z   1
loop_
 _symmetry_equiv_pos_site_id
 _symmetry_equiv_pos_as_xyz
  1  'x, y, z'
loop_
 _atom_site_type_symbol
 _atom_site_label
 _atom_site_symmetry_multiplicity
 _atom_site_fract_x
 _atom_site_fract_y
 _atom_site_fract_z
 _atom_site_occupancy
  Sr  Sr0  1  0.42619325  0.00000000  0.00000000  1
  Sr  Sr1  1  0.57380675  0.57380675  0.00000000  1
  Sr  Sr2  1  0.00000000  0.42619325  0.00000000  1
  Nb  Nb0  1  0.00000000  0.00000000  0.00000000  1
  Al  Al0  1  0.74052646  1.00000000  0.50000000  1
  Al  Al1  1  0.25947354  0.25947354  0.50000000  1
  Al  Al2  1  1.00000000  0.74052646  0.50000000  1
  Si  Si0  1  0.66666700  0.33333300  0.52924135  1
  Si  Si1  1  0.33333300  0.66666700  0.47075865  1
  O  O0  1  0.66666700  0.33333300  0.21064817  1
  O  O1  1  0.33333300  0.66666700  0.78935183  1
  O  O2  1  0.16439165  0.69253651  0.34120063  1
  O  O3  1  0.52814386  0.83560835  0.34120063  1
  O  O4  1  0.30746349  0.47185614  0.34120063  1
  O  O5  1  0.83560835  0.52814386  0.65879937  1
  O  O6  1  0.69253651  0.16439165  0.65879937  1
  O  O7  1  0.47185614  0.30746349  0.65879937  1
  O  O8  1  0.12101747  0.89609070  0.76162239  1
  O  O9  1  0.77507223  0.87898253  0.76162239  1
  O  O10  1  0.10390930  0.22492777  0.76162239  1
  O  O11  1  0.87898253  0.77507223  0.23837761  1
  O  O12  1  0.89609070  0.12101747  0.23837761  1
  O  O13  1  0.22492777  0.10390930  0.23837761  1
loop_
_geom_bond_atom_site_label_1
_geom_bond_atom_site_label_2
_geom_bond_distance
_geom_bond_site_symmetry_2
Nb0 O8 2.003818 1_544
Nb0 O12 2.003818 1_455
Nb0 O9 2.003823 1_444
Nb0 O11 2.003823 1_445
Nb0 O13 2.003823 1_555
Nb0 O10 2.003823 1_554
Al0 O9 1.756223 1_555
Al0 O12 1.756226 1_565
Al0 O6 1.779071 1_565
Al0 O3 1.779075 1_555
Al1 O10 1.756228 1_555
Al1 O13 1.756228 1_555
Al1 O7 1.779078 1_555
Al1 O4 1.779078 1_555
Al2 O11 1.756223 1_555
Al2 O8 1.756226 1_655
Al2 O2 1.779071 1_655
Al2 O5 1.779075 1_555
O0 Si0 1.598611 1_555
O0 Sr2 2.674498 1_655
O0 Sr0 2.674500 1_555
O0 Sr1 2.674505 1_555
O1 Si1 1.598611 1_555
O1 Sr0 2.674498 1_566
O1 Sr2 2.674500 1_556
O1 Sr1 2.674505 1_556
O2 Si1 1.644873 1_555
O2 Sr2 2.571858 1_555
O2 Sr0 2.923230 1_565
O3 Si1 1.644872 1_555
O3 Sr0 2.571853 1_565
O3 Sr1 2.923235 1_555
O4 Si1 1.644873 1_555
O4 Sr1 2.571859 1_555
O4 Sr2 2.923228 1_555
O5 Si0 1.644872 1_555
O5 Sr2 2.571853 1_656
O5 Sr1 2.923235 1_556
O6 Si0 1.644873 1_555
O6 Sr0 2.571858 1_556
O6 Sr2 2.923230 1_656
O7 Si0 1.644873 1_555
O7 Sr1 2.571859 1_556
O7 Sr0 2.923228 1_556
O8 Sr0 2.518031 1_566
O9 Sr1 2.518030 1_556
O10 Sr2 2.518024 1_556
O11 Sr1 2.518029 1_555
O12 Sr2 2.518031 1_655
O13 Sr0 2.518024 1_555
