# generated using pymatgen
data_Ti8Al15Cu2Os5
_symmetry_space_group_name_H-M   'P 1'
_cell_length_a   8.61406582
_cell_length_b   8.58939074
_cell_length_c   8.61406612
_cell_angle_alpha   120.29963895
_cell_angle_beta   119.90238097
_cell_angle_gamma   89.90802737
_symmetry_Int_Tables_number   1
_chemical_formula_structural   Ti8Al15Cu2Os5
_chemical_formula_sum   'Ti8 Al15 Cu2 Os5'
_cell_volume   449.65395303
_cell_formula_units_Z   1
loop_
 _symmetry_equiv_pos_site_id
 _symmetry_equiv_pos_as_xyz
  1  'x, y, z'
loop_
 _atom_site_type_symbol
 _atom_site_label
 _atom_site_symmetry_multiplicity
 _atom_site_fract_x
 _atom_site_fract_y
 _atom_site_fract_z
 _atom_site_occupancy
  Ti  Ti0  1  0.79180811  0.28750927  0.06635910  1
  Ti  Ti1  1  0.22115217  0.28750927  0.49570216  1
  Ti  Ti2  1  0.21178463  0.70794686  0.49616223  1
  Ti  Ti3  1  0.20870151  0.71319489  0.92639170  1
  Ti  Ti4  1  0.78680320  0.71319489  0.50449338  1
  Ti  Ti5  1  0.77929455  0.28920553  0.50991098  1
  Ti  Ti6  1  0.38541670  0.12724216  0.74182446  1
  Ti  Ti7  1  0.37872314  0.63462722  0.25590308  1
  Al  Al0  1  0.99597233  0.49401313  0.49803980  1
  Al  Al1  1  0.15683355  0.34410996  0.18727541  1
  Al  Al2  1  0.15878311  0.97003294  0.81124983  1
  Al  Al3  1  0.15140776  0.33975359  0.80269035  1
  Al  Al4  1  0.53706224  0.33975359  0.18834583  1
  Al  Al5  1  0.84330693  0.65742391  0.81411898  1
  Al  Al6  1  0.84441378  0.04057044  0.19615666  1
  Al  Al7  1  0.84504648  0.65773043  0.19201029  1
  Al  Al8  1  0.46572015  0.65773043  0.81268496  1
  Al  Al9  1  0.37509664  0.12115090  0.25764771  1
  Al  Al10  1  0.86350419  0.12115090  0.74605326  1
  Al  Al11  1  0.61871386  0.87534741  0.25663356  1
  Al  Al12  1  0.62204539  0.36859368  0.74654828  1
  Al  Al13  1  0.62200053  0.87700474  0.74029231  1
  Al  Al14  1  0.13671043  0.87700474  0.25500421  1
  Cu  Cu0  1  0.00164458  0.99876670  0.49914650  1
  Cu  Cu1  1  0.49962019  0.99876670  0.99712012  1
  Os  Os0  1  0.49877884  0.50046910  0.00169025  1
  Os  Os1  1  0.49898236  0.49872789  0.49836452  1
  Os  Os2  1  0.00036237  0.49872789  0.99974653  1
  Os  Os3  1  0.99947366  0.00185003  0.00237738  1
  Os  Os4  1  0.50083066  0.00088881  0.50005716  1
loop_
_geom_bond_atom_site_label_1
_geom_bond_atom_site_label_2
_geom_bond_distance
_geom_bond_site_symmetry_2
Ti0 Ti6 2.887869 1_554
Ti1 Ti6 2.887853 1_555
Ti2 Ti7 2.897769 1_555
Ti2 Ti6 2.976107 1_565
Ti3 Ti7 2.905502 1_556
Ti4 Ti7 2.905509 1_555
Al0 Ti4 2.603317 1_555
Al0 Ti3 2.603323 1_655
Al0 Ti0 2.626941 1_555
Al0 Ti1 2.626959 1_655
Al0 Ti2 2.627505 1_655
Al0 Ti5 2.640311 1_555
Al1 Os3 2.480362 1_455
Al1 Os2 2.485577 1_554
Al1 Os1 2.485588 1_555
Al1 Ti2 2.725574 1_555
Al1 Ti0 2.727036 1_455
Al1 Ti1 2.727045 1_555
Al1 Al10 2.755608 1_454
Al1 Al9 2.755612 1_555
Al1 Ti7 2.762222 1_555
Al2 Cu1 2.482165 1_555
Al2 Cu0 2.482165 1_555
Al2 Os3 2.542821 1_466
Al2 Ti2 2.776665 1_555
Al2 Al9 2.787586 1_566
Al2 Ti4 2.795539 1_455
Al2 Ti3 2.795539 1_555
Al2 Ti6 2.824825 1_565
Al3 Cu0 2.449658 1_545
Al3 Os2 2.509254 1_555
Al3 Os0 2.511796 1_556
Al3 Ti5 2.768224 1_455
Al3 Ti3 2.774850 1_555
Al3 Ti6 2.783226 1_555
Al3 Ti7 2.811945 1_556
Al3 Ti1 2.817980 1_555
Al4 Cu1 2.449660 1_544
Al4 Os1 2.509235 1_555
Al4 Os0 2.511798 1_555
Al4 Ti5 2.768226 1_555
Al4 Ti4 2.774852 1_555
Al4 Ti6 2.783233 1_554
Al4 Al9 2.792564 1_555
Al4 Ti7 2.811945 1_555
Al4 Ti0 2.817985 1_555
Al5 Os3 2.487648 1_566
Al5 Os2 2.506330 1_655
Al5 Os1 2.506341 1_555
Al5 Ti5 2.715888 1_555
Al5 Ti3 2.752102 1_655
Al5 Ti4 2.752113 1_555
Al6 Cu0 2.488947 1_645
Al6 Cu1 2.488947 1_544
Al6 Os3 2.518414 1_555
Al6 Ti0 2.799830 1_555
Al6 Ti1 2.799841 1_655
Al6 Ti5 2.804231 1_555
Al7 Cu0 2.456487 1_655
Al7 Os0 2.512380 1_555
Al7 Os2 2.513793 1_654
Al7 Ti0 2.744233 1_555
Al7 Ti2 2.764421 1_655
Al7 Ti4 2.788541 1_555
Al8 Cu1 2.456487 1_555
Al8 Os0 2.512373 1_556
Al8 Os1 2.513814 1_555
Al8 Ti1 2.744228 1_555
Al8 Ti2 2.764427 1_555
Al8 Ti3 2.788535 1_555
Al9 Os4 2.553110 1_555
Al9 Os1 2.641149 1_555
Al9 Os3 2.645326 1_455
Al9 Cu1 2.703356 1_544
Al9 Ti1 2.784576 1_555
Al9 Ti5 2.869826 1_555
Al9 Ti3 2.885198 1_544
Al10 Os4 2.553124 1_555
Al10 Os2 2.641148 1_655
Al10 Os3 2.645340 1_556
Al10 Cu0 2.703327 1_645
Al10 Ti0 2.784598 1_556
Al10 Al2 2.787579 1_645
Al10 Al3 2.792557 1_655
Al10 Ti5 2.869818 1_555
Al10 Ti4 2.885197 1_545
Al10 Al13 2.921298 1_545
Al10 Al12 2.971352 1_555
Al10 Al11 2.974378 1_545
Al11 Os4 2.535488 1_565
Al11 Os0 2.621381 1_555
Al11 Cu0 2.697159 1_655
Al11 Cu1 2.697173 1_554
Al11 Al8 2.761398 1_554
Al11 Al7 2.761405 1_555
Al11 Al6 2.798216 1_565
Al11 Ti5 2.913919 1_565
Al11 Ti3 2.916636 1_554
Al11 Ti4 2.916636 1_555
Al11 Ti7 2.921731 1_555
Al11 Al9 2.974385 1_565
Al12 Os4 2.570444 1_555
Al12 Os0 2.655526 1_556
Al12 Os2 2.662984 1_655
Al12 Os1 2.662991 1_555
Al12 Al5 2.752858 1_555
Al12 Al7 2.762643 1_556
Al12 Al8 2.762643 1_555
Al12 Ti5 2.793274 1_555
Al12 Ti1 2.851110 1_555
Al12 Ti0 2.851125 1_556
Al12 Ti6 2.880938 1_555
Al12 Al9 2.971346 1_555
Al13 Os4 2.562994 1_565
Al13 Os1 2.645707 1_555
Al13 Os3 2.658708 1_566
Al13 Cu1 2.662074 1_555
Al13 Al5 2.754237 1_555
Al13 Al8 2.789040 1_555
Al13 Al6 2.829344 1_566
Al13 Ti4 2.847030 1_555
Al13 Ti0 2.896255 1_566
Al13 Ti2 2.922939 1_555
Al13 Ti7 2.943891 1_555
Al13 Ti6 2.959291 1_565
Al14 Os4 2.563001 1_565
Al14 Os2 2.645707 1_554
Al14 Os3 2.658701 1_465
Al14 Cu0 2.662074 1_555
Al14 Al5 2.754219 1_454
Al14 Al7 2.789019 1_455
Al14 Al6 2.829331 1_465
Al14 Ti3 2.847042 1_554
Al14 Ti1 2.896251 1_565
Al14 Al9 2.921298 1_565
Al14 Ti2 2.922937 1_555
Al14 Ti7 2.943897 1_555
Al14 Ti6 2.959285 1_565
Cu0 Ti6 2.703704 1_565
Cu0 Ti2 3.079652 1_555
Cu0 Ti4 3.107615 1_455
Cu0 Ti1 3.142046 1_565
Cu1 Ti6 2.703697 1_565
Cu1 Ti2 3.079641 1_555
Cu1 Ti3 3.107626 1_555
Cu1 Ti0 3.142031 1_566
Os0 Ti6 2.613632 1_554
Os0 Ti7 2.626886 1_555
Os0 Ti4 3.093267 1_555
Os0 Ti3 3.093268 1_554
Os0 Ti1 3.104686 1_554
Os0 Ti0 3.104694 1_555
Os1 Ti7 2.663982 1_555
Os1 Ti1 2.989457 1_555
Os1 Ti5 3.001057 1_555
Os1 Ti2 3.053442 1_555
Os1 Ti4 3.054383 1_555
Os2 Ti7 2.663982 1_556
Os2 Ti0 2.989452 1_456
Os2 Ti5 3.001064 1_455
Os2 Ti2 3.053434 1_556
Os2 Ti3 3.054396 1_555
Os3 Ti1 3.021330 1_655
Os3 Ti0 3.021330 1_555
Os3 Ti3 3.057504 1_644
Os3 Ti4 3.057509 1_544
Os4 Ti6 2.506735 1_555
Os4 Ti7 2.560351 1_545
