# generated using pymatgen
data_Zr3ScGe6Ir7
_symmetry_space_group_name_H-M   'P 1'
_cell_length_a   7.07982466
_cell_length_b   7.07982460
_cell_length_c   7.07982406
_cell_angle_alpha   109.40676847
_cell_angle_beta   109.40677281
_cell_angle_gamma   109.40677349
_symmetry_Int_Tables_number   1
_chemical_formula_structural   Zr3ScGe6Ir7
_chemical_formula_sum   'Zr3 Sc1 Ge6 Ir7'
_cell_volume   273.82781528
_cell_formula_units_Z   1
loop_
 _symmetry_equiv_pos_site_id
 _symmetry_equiv_pos_as_xyz
  1  'x, y, z'
loop_
 _atom_site_type_symbol
 _atom_site_label
 _atom_site_symmetry_multiplicity
 _atom_site_fract_x
 _atom_site_fract_y
 _atom_site_fract_z
 _atom_site_occupancy
  Zr  Zr0  1  0.00000000  0.00000000  0.50000000  1
  Zr  Zr1  1  0.00000000  0.50000000  0.00000000  1
  Zr  Zr2  1  0.50000000  0.00000000  0.00000000  1
  Sc  Sc0  1  0.50000000  0.50000000  0.50000000  1
  Ge  Ge0  1  0.00285230  0.31650359  0.31650359  1
  Ge  Ge1  1  0.99714770  0.68349641  0.68349641  1
  Ge  Ge2  1  0.31650359  0.00285230  0.31650359  1
  Ge  Ge3  1  0.68349641  0.99714770  0.68349641  1
  Ge  Ge4  1  0.31650359  0.31650359  0.00285230  1
  Ge  Ge5  1  0.68349641  0.68349641  0.99714770  1
  Ir  Ir0  1  0.50000000  0.75086835  0.24913165  1
  Ir  Ir1  1  0.50000000  0.24913165  0.75086835  1
  Ir  Ir2  1  0.24913165  0.50000000  0.75086835  1
  Ir  Ir3  1  0.75086835  0.50000000  0.24913165  1
  Ir  Ir4  1  0.75086835  0.24913165  0.50000000  1
  Ir  Ir5  1  0.24913165  0.75086835  0.50000000  1
  Ir  Ir6  1  0.00000000  0.00000000  0.00000000  1
loop_
_geom_bond_atom_site_label_1
_geom_bond_atom_site_label_2
_geom_bond_distance
_geom_bond_site_symmetry_2
Ge0 Ir2 2.541929 1_555
Ge0 Ir5 2.541929 1_555
Ge0 Ir4 2.546443 1_455
Ge0 Ir3 2.546443 1_455
Ge0 Ir6 2.577939 1_555
Ge0 Sc0 2.926596 1_555
Ge0 Zr1 2.937883 1_555
Ge0 Zr0 2.937884 1_555
Ge0 Zr2 2.962618 1_455
Ge1 Ir3 2.541929 1_555
Ge1 Ir4 2.541929 1_555
Ge1 Ir5 2.546443 1_655
Ge1 Ir2 2.546443 1_655
Ge1 Ir6 2.577939 1_666
Ge1 Sc0 2.926596 1_555
Ge1 Zr1 2.937883 1_656
Ge1 Zr0 2.937884 1_665
Ge1 Zr2 2.962618 1_666
Ge2 Ir1 2.541929 1_555
Ge2 Ir4 2.541929 1_555
Ge2 Ir5 2.546443 1_545
Ge2 Ir0 2.546443 1_545
Ge2 Ir6 2.577939 1_555
Ge2 Sc0 2.926596 1_555
Ge2 Zr2 2.937884 1_555
Ge2 Zr0 2.937884 1_555
Ge2 Zr1 2.962618 1_545
Ge3 Ir0 2.541929 1_555
Ge3 Ir5 2.541929 1_555
Ge3 Ir4 2.546443 1_565
Ge3 Ir1 2.546443 1_565
Ge3 Ir6 2.577939 1_666
Ge3 Sc0 2.926596 1_555
Ge3 Zr2 2.937884 1_566
Ge3 Zr0 2.937884 1_665
Ge3 Zr1 2.962618 1_666
Ge4 Ir3 2.541929 1_555
Ge4 Ir0 2.541929 1_555
Ge4 Ir2 2.546443 1_554
Ge4 Ir1 2.546443 1_554
Ge4 Ir6 2.577939 1_555
Ge4 Sc0 2.926596 1_555
Ge4 Zr2 2.937884 1_555
Ge4 Zr1 2.937884 1_555
Ge4 Zr0 2.962618 1_554
Ge5 Ir2 2.541929 1_555
Ge5 Ir1 2.541929 1_555
Ge5 Ir3 2.546443 1_556
Ge5 Ir0 2.546443 1_556
Ge5 Ir6 2.577939 1_666
Ge5 Sc0 2.926596 1_555
Ge5 Zr2 2.937884 1_566
Ge5 Zr1 2.937884 1_656
Ge5 Zr0 2.962618 1_666
Ir0 Zr2 2.879141 1_565
Ir0 Zr0 2.896086 1_665
Ir0 Zr1 2.896086 1_555
Ir0 Sc0 2.899212 1_555
Ir1 Zr2 2.879141 1_556
Ir1 Zr0 2.896086 1_555
Ir1 Zr1 2.896086 1_656
Ir1 Sc0 2.899212 1_555
Ir2 Zr1 2.879141 1_556
Ir2 Zr2 2.896086 1_566
Ir2 Zr0 2.896086 1_555
Ir2 Sc0 2.899212 1_555
Ir3 Zr1 2.879141 1_655
Ir3 Zr2 2.896086 1_555
Ir3 Zr0 2.896086 1_665
Ir3 Sc0 2.899212 1_555
Ir4 Zr0 2.879141 1_655
Ir4 Zr2 2.896086 1_555
Ir4 Zr1 2.896086 1_656
Ir4 Sc0 2.899212 1_555
Ir5 Zr0 2.879141 1_565
Ir5 Zr2 2.896086 1_566
Ir5 Zr1 2.896086 1_555
Ir5 Sc0 2.899212 1_555
