# generated using pymatgen
data_Ba3LuRhS6
_symmetry_space_group_name_H-M   'P 1'
_cell_length_a   8.23288505
_cell_length_b   8.23288529
_cell_length_c   8.23288558
_cell_angle_alpha   93.48121550
_cell_angle_beta   93.48120861
_cell_angle_gamma   93.48122112
_symmetry_Int_Tables_number   1
_chemical_formula_structural   Ba3LuRhS6
_chemical_formula_sum   'Ba6 Lu2 Rh2 S12'
_cell_volume   554.80779840
_cell_formula_units_Z   2
loop_
 _symmetry_equiv_pos_site_id
 _symmetry_equiv_pos_as_xyz
  1  'x, y, z'
loop_
 _atom_site_type_symbol
 _atom_site_label
 _atom_site_symmetry_multiplicity
 _atom_site_fract_x
 _atom_site_fract_y
 _atom_site_fract_z
 _atom_site_occupancy
  Ba  Ba0  1  0.37230072  0.75000000  0.12769928  1
  Ba  Ba1  1  0.12769928  0.37230072  0.75000000  1
  Ba  Ba2  1  0.75000000  0.12769928  0.37230072  1
  Ba  Ba3  1  0.62769928  0.25000000  0.87230072  1
  Ba  Ba4  1  0.87230072  0.62769928  0.25000000  1
  Ba  Ba5  1  0.25000000  0.87230072  0.62769928  1
  Lu  Lu0  1  0.25000000  0.25000000  0.25000000  1
  Lu  Lu1  1  0.75000000  0.75000000  0.75000000  1
  Rh  Rh0  1  0.50000000  0.50000000  0.50000000  1
  Rh  Rh1  1  0.00000000  0.00000000  0.00000000  1
  S  S0  1  0.53467467  0.41245939  0.21523430  1
  S  S1  1  0.21523430  0.53467467  0.41245939  1
  S  S2  1  0.41245939  0.21523430  0.53467467  1
  S  S3  1  0.96532533  0.28476570  0.08754061  1
  S  S4  1  0.08754061  0.96532533  0.28476570  1
  S  S5  1  0.28476570  0.08754061  0.96532533  1
  S  S6  1  0.46532533  0.58754061  0.78476570  1
  S  S7  1  0.78476570  0.46532533  0.58754061  1
  S  S8  1  0.58754061  0.78476570  0.46532533  1
  S  S9  1  0.03467467  0.71523430  0.91245939  1
  S  S10  1  0.71523430  0.91245939  0.03467467  1
  S  S11  1  0.91245939  0.03467467  0.71523430  1
loop_
_geom_bond_atom_site_label_1
_geom_bond_atom_site_label_2
_geom_bond_distance
_geom_bond_site_symmetry_2
Ba0 S9 3.192499 1_554
Ba0 S8 3.192499 1_555
Ba0 S10 3.205476 1_555
Ba0 S6 3.205477 1_554
Ba0 S5 3.256722 1_564
Ba0 S0 3.256722 1_555
Ba0 S1 3.302341 1_555
Ba0 S4 3.302342 1_555
Ba1 S6 3.192499 1_555
Ba1 S11 3.192499 1_455
Ba1 S9 3.205477 1_555
Ba1 S7 3.205477 1_455
Ba1 S3 3.256722 1_456
Ba1 S1 3.256722 1_555
Ba1 S2 3.302341 1_555
Ba1 S5 3.302342 1_555
Ba2 S7 3.192499 1_555
Ba2 S10 3.192499 1_545
Ba2 S8 3.205476 1_545
Ba2 S11 3.205477 1_555
Ba2 S2 3.256722 1_555
Ba2 S4 3.256722 1_645
Ba2 S3 3.302341 1_555
Ba2 S0 3.302342 1_555
Ba3 S3 3.192499 1_556
Ba3 S2 3.192499 1_555
Ba3 S5 3.205476 1_555
Ba3 S0 3.205477 1_556
Ba3 S10 3.256722 1_546
Ba3 S6 3.256722 1_555
Ba3 S7 3.302341 1_555
Ba3 S11 3.302342 1_555
Ba4 S0 3.192499 1_555
Ba4 S4 3.192499 1_655
Ba4 S3 3.205477 1_555
Ba4 S1 3.205477 1_655
Ba4 S9 3.256722 1_654
Ba4 S7 3.256722 1_555
Ba4 S8 3.302341 1_555
Ba4 S10 3.302342 1_555
Ba5 S1 3.192499 1_555
Ba5 S5 3.192499 1_565
Ba5 S2 3.205476 1_565
Ba5 S4 3.205477 1_555
Ba5 S8 3.256722 1_555
Ba5 S11 3.256722 1_465
Ba5 S9 3.302341 1_555
Ba5 S6 3.302342 1_555
Lu0 S0 2.666650 1_555
Lu0 S4 2.666650 1_545
Lu0 S1 2.666651 1_555
Lu0 S5 2.666651 1_554
Lu0 S3 2.666651 1_455
Lu0 S2 2.666651 1_555
Lu1 S6 2.666650 1_555
Lu1 S11 2.666650 1_565
Lu1 S7 2.666651 1_555
Lu1 S10 2.666651 1_556
Lu1 S9 2.666651 1_655
Lu1 S8 2.666651 1_555
Rh0 S8 2.449163 1_555
Rh0 S2 2.449163 1_555
Rh0 S7 2.449163 1_555
Rh0 S1 2.449163 1_555
Rh0 S0 2.449163 1_555
Rh0 S6 2.449163 1_555
Rh1 S5 2.449163 1_554
Rh1 S10 2.449163 1_445
Rh1 S3 2.449163 1_455
Rh1 S9 2.449163 1_544
Rh1 S4 2.449164 1_545
Rh1 S11 2.449164 1_454
