# generated using pymatgen
data_Ta2Be8VRh
_symmetry_space_group_name_H-M   'P 1'
_cell_length_a   4.44712606
_cell_length_b   4.44712627
_cell_length_c   7.33916161
_cell_angle_alpha   90.00000000
_cell_angle_beta   90.00000000
_cell_angle_gamma   120.00000583
_symmetry_Int_Tables_number   1
_chemical_formula_structural   Ta2Be8VRh
_chemical_formula_sum   'Ta2 Be8 V1 Rh1'
_cell_volume   125.70019716
_cell_formula_units_Z   1
loop_
 _symmetry_equiv_pos_site_id
 _symmetry_equiv_pos_as_xyz
  1  'x, y, z'
loop_
 _atom_site_type_symbol
 _atom_site_label
 _atom_site_symmetry_multiplicity
 _atom_site_fract_x
 _atom_site_fract_y
 _atom_site_fract_z
 _atom_site_occupancy
  Ta  Ta0  1  0.66666700  0.33333300  0.56205283  1
  Ta  Ta1  1  0.66666700  0.33333300  0.94197816  1
  Be  Be0  1  0.00000000  0.00000000  0.00372158  1
  Be  Be1  1  0.00000000  0.00000000  0.49170754  1
  Be  Be2  1  0.83047780  0.66095360  0.25288311  1
  Be  Be3  1  0.16836815  0.83163185  0.74714010  1
  Be  Be4  1  0.66326370  0.83163185  0.74714010  1
  Be  Be5  1  0.33904640  0.16952220  0.25288311  1
  Be  Be6  1  0.83047780  0.16952220  0.25288311  1
  Be  Be7  1  0.16836815  0.33673630  0.74714010  1
  V  V0  1  0.33333300  0.66666700  0.42925815  1
  Rh  Rh0  1  0.33333300  0.66666700  0.07121113  1
loop_
_geom_bond_atom_site_label_1
_geom_bond_atom_site_label_2
_geom_bond_distance
_geom_bond_site_symmetry_2
Ta0 V0 2.746296 1_655
Ta0 V0 2.746297 1_545
Ta0 V0 2.746304 1_555
Ta0 Ta1 2.788333 1_555
Be0 Be6 2.246986 1_455
Be0 Be5 2.246991 1_555
Be0 Be2 2.246991 1_445
Be0 Be4 2.286469 1_444
Be0 Be7 2.286469 1_554
Be0 Be3 2.286469 1_544
Be0 Ta1 2.607228 1_454
Be0 Ta1 2.607232 1_554
Be0 Ta1 2.607232 1_444
Be0 Rh0 2.614887 1_545
Be0 Rh0 2.614891 1_445
Be0 Rh0 2.614891 1_555
Be1 Be6 2.185690 1_455
Be1 Be5 2.185695 1_555
Be1 Be2 2.185695 1_445
Be1 Be4 2.279529 1_445
Be1 Be7 2.279529 1_555
Be1 Be3 2.279529 1_545
Be1 V0 2.608134 1_545
Be1 V0 2.608137 1_445
Be1 V0 2.608137 1_555
Be1 Ta0 2.618938 1_455
Be1 Ta0 2.618942 1_555
Be1 Ta0 2.618942 1_445
Be2 Be5 2.185457 1_555
Be2 Be6 2.185458 1_555
Be2 Be5 2.261668 1_665
Be2 Be6 2.261669 1_565
Be2 V0 2.572989 1_655
Be2 V0 2.573001 1_555
Be2 Rh0 2.592765 1_655
Be2 Rh0 2.592776 1_555
Be2 Ta0 2.596275 1_555
Be2 Ta1 2.607412 1_554
Be3 Be4 2.200863 1_555
Be3 Be7 2.200863 1_555
Be3 Be4 2.246263 1_455
Be3 Be7 2.246263 1_565
Be3 Ta0 2.605689 1_455
Be3 Ta0 2.605689 1_565
Be3 Ta1 2.643701 1_455
Be3 Ta1 2.643701 1_565
Be3 V0 2.656581 1_555
Be3 Rh0 2.696558 1_556
Be4 Be7 2.200863 1_555
Be4 Be7 2.246263 1_665
Be4 Ta0 2.605687 1_565
Be4 Ta0 2.605691 1_555
Be4 Ta1 2.643699 1_565
Be4 Ta1 2.643703 1_555
Be4 V0 2.656582 1_555
Be4 Rh0 2.696560 1_556
Be5 Be6 2.185457 1_555
Be5 Be6 2.261669 1_455
Be5 V0 2.572990 1_545
Be5 V0 2.573001 1_555
Be5 Rh0 2.592765 1_545
Be5 Rh0 2.592776 1_555
Be5 Ta0 2.596275 1_555
Be5 Ta1 2.607412 1_554
Be6 V0 2.572995 1_655
Be6 V0 2.572995 1_545
Be6 Rh0 2.592770 1_655
Be6 Rh0 2.592770 1_545
Be6 Ta0 2.596277 1_555
Be6 Ta1 2.607414 1_554
Be7 Ta0 2.605687 1_455
Be7 Ta0 2.605691 1_555
Be7 Ta1 2.643699 1_455
Be7 Ta1 2.643703 1_555
Be7 V0 2.656583 1_555
Be7 Rh0 2.696560 1_556
Rh0 V0 2.627765 1_555
Rh0 Ta1 2.737129 1_454
Rh0 Ta1 2.737129 1_564
Rh0 Ta1 2.737137 1_554
