# generated using pymatgen
data_BeTc4BMo2
_symmetry_space_group_name_H-M   'P 1'
_cell_length_a   4.85121808
_cell_length_b   4.85121771
_cell_length_c   7.22579371
_cell_angle_alpha   90.00000000
_cell_angle_beta   90.00000000
_cell_angle_gamma   143.54914043
_symmetry_Int_Tables_number   1
_chemical_formula_structural   BeTc4BMo2
_chemical_formula_sum   'Be1 Tc4 B1 Mo2'
_cell_volume   101.03477814
_cell_formula_units_Z   1
loop_
 _symmetry_equiv_pos_site_id
 _symmetry_equiv_pos_as_xyz
  1  'x, y, z'
loop_
 _atom_site_type_symbol
 _atom_site_label
 _atom_site_symmetry_multiplicity
 _atom_site_fract_x
 _atom_site_fract_y
 _atom_site_fract_z
 _atom_site_occupancy
  Be  Be0  1  0.26917647  0.73082353  0.25000000  1
  Tc  Tc0  1  0.86376836  0.13623164  0.45738139  1
  Tc  Tc1  1  0.13966465  0.86033535  0.55355350  1
  Tc  Tc2  1  0.86376836  0.13623164  0.04261861  1
  Tc  Tc3  1  0.13966465  0.86033535  0.94644650  1
  B  B0  1  0.73082239  0.26917761  0.75000000  1
  Mo  Mo0  1  0.56155918  0.43844082  0.25000000  1
  Mo  Mo1  1  0.43157293  0.56842707  0.75000000  1
loop_
_geom_bond_atom_site_label_1
_geom_bond_atom_site_label_2
_geom_bond_distance
_geom_bond_site_symmetry_2
Be0 Tc0 2.303790 1_455
Be0 Tc2 2.303790 1_455
Be0 Tc0 2.303790 1_565
Be0 Tc2 2.303790 1_565
Be0 Mo0 2.441907 1_565
Be0 Mo0 2.441907 1_455
Be0 Tc1 2.497121 1_555
Be0 Tc3 2.497121 1_554
Be0 Mo0 2.694510 1_555
B0 Tc3 2.241141 1_655
B0 Tc1 2.241141 1_655
B0 Tc3 2.241141 1_545
B0 Tc1 2.241141 1_545
B0 Mo1 2.392646 1_545
B0 Mo1 2.392646 1_655
B0 Tc2 2.443724 1_556
B0 Tc0 2.443724 1_555
B0 Mo1 2.757792 1_555
Mo0 Tc1 2.762467 1_545
Mo0 Tc3 2.762467 1_544
Mo0 Tc1 2.762467 1_655
Mo0 Tc3 2.762467 1_654
Mo0 Tc0 2.805363 1_565
Mo0 Tc2 2.805363 1_565
Mo0 Tc0 2.805363 1_455
Mo0 Tc2 2.805363 1_455
Mo1 Tc2 2.676415 1_566
Mo1 Tc0 2.676415 1_565
Mo1 Tc2 2.676416 1_456
Mo1 Tc0 2.676416 1_455
Mo1 Tc3 2.827470 1_545
Mo1 Tc1 2.827470 1_545
Mo1 Tc3 2.827471 1_655
Mo1 Tc1 2.827471 1_655
