# generated using pymatgen
data_KSbOF4
_symmetry_space_group_name_H-M   'P 1'
_cell_length_a   6.14230944
_cell_length_b   5.34892129
_cell_length_c   14.38914281
_cell_angle_alpha   73.55920898
_cell_angle_beta   90.00000000
_cell_angle_gamma   90.00000000
_symmetry_Int_Tables_number   1
_chemical_formula_structural   KSbOF4
_chemical_formula_sum   'K4 Sb4 O4 F16'
_cell_volume   453.42187981
_cell_formula_units_Z   4
loop_
 _symmetry_equiv_pos_site_id
 _symmetry_equiv_pos_as_xyz
  1  'x, y, z'
loop_
 _atom_site_type_symbol
 _atom_site_label
 _atom_site_symmetry_multiplicity
 _atom_site_fract_x
 _atom_site_fract_y
 _atom_site_fract_z
 _atom_site_occupancy
  K  K0  1  0.64181064  0.62890216  0.85199174  1
  K  K1  1  0.14181064  0.37109784  0.64800826  1
  K  K2  1  0.35818936  0.37109784  0.14800826  1
  K  K3  1  0.85818936  0.62890216  0.35199174  1
  Sb  Sb0  1  0.13816918  0.03149668  0.91336690  1
  Sb  Sb1  1  0.63816918  0.96850332  0.58663310  1
  Sb  Sb2  1  0.86183082  0.96850332  0.08663310  1
  Sb  Sb3  1  0.36183082  0.03149668  0.41336690  1
  O  O0  1  0.62942160  0.84972178  0.46970014  1
  O  O1  1  0.12942160  0.15027822  0.03029986  1
  O  O2  1  0.37057840  0.15027822  0.53029986  1
  O  O3  1  0.87057840  0.84972178  0.96970014  1
  F  F0  1  0.17542551  0.73846611  0.46941160  1
  F  F1  1  0.67542551  0.26153389  0.03058840  1
  F  F2  1  0.82457449  0.26153389  0.53058840  1
  F  F3  1  0.32457449  0.73846611  0.96941160  1
  F  F4  1  0.98134387  0.32966743  0.83514633  1
  F  F5  1  0.48134387  0.67033257  0.66485367  1
  F  F6  1  0.01865613  0.67033257  0.16485367  1
  F  F7  1  0.51865613  0.32966743  0.33514633  1
  F  F8  1  0.12217667  0.90449253  0.80210612  1
  F  F9  1  0.62217667  0.09550747  0.69789388  1
  F  F10  1  0.87782333  0.09550747  0.19789388  1
  F  F11  1  0.37782333  0.90449253  0.30210612  1
  F  F12  1  0.39549608  0.21859953  0.86220259  1
  F  F13  1  0.89549608  0.78140047  0.63779741  1
  F  F14  1  0.60450392  0.78140047  0.13779741  1
  F  F15  1  0.10450392  0.21859953  0.36220259  1
loop_
_geom_bond_atom_site_label_1
_geom_bond_atom_site_label_2
_geom_bond_distance
_geom_bond_site_symmetry_2
K0 O3 2.714901 1_555
K1 O2 2.714901 1_555
K2 O1 2.714901 1_555
K3 O0 2.714901 1_555
O0 Sb1 1.960282 1_555
O0 Sb3 1.964128 1_565
O1 Sb0 1.960282 1_554
O1 Sb2 1.964128 1_445
O2 Sb3 1.960282 1_555
O2 Sb1 1.964128 1_545
O3 Sb2 1.960282 1_556
O3 Sb0 1.964128 1_665
F0 Sb3 1.924192 1_565
F0 K3 2.748724 1_455
F0 K1 2.765800 1_555
F1 Sb2 1.924192 1_545
F1 K2 2.748724 1_555
F1 K0 2.765800 1_554
F2 Sb1 1.924192 1_545
F2 K1 2.748724 1_655
F2 K3 2.765800 1_555
F3 Sb0 1.924192 1_565
F3 K0 2.748724 1_555
F3 K2 2.765800 1_556
F4 Sb0 1.929318 1_655
F4 K0 2.681345 1_555
F4 K1 2.816690 1_655
F5 Sb1 1.929318 1_555
F5 K1 2.681345 1_555
F5 K0 2.816690 1_555
F6 Sb2 1.929318 1_455
F6 K2 2.681345 1_555
F6 K3 2.816690 1_455
F7 Sb3 1.929318 1_555
F7 K3 2.681345 1_555
F7 K2 2.816690 1_555
F8 Sb0 1.910445 1_565
F8 K1 2.833327 1_565
F9 Sb1 1.910445 1_545
F9 K0 2.833327 1_545
F10 Sb2 1.910445 1_545
F10 K3 2.833327 1_545
F11 Sb3 1.910445 1_565
F11 K2 2.833327 1_565
F12 Sb0 1.903885 1_555
F12 K0 2.635271 1_555
F13 Sb1 1.903885 1_555
F13 K1 2.635271 1_655
F14 Sb2 1.903885 1_555
F14 K2 2.635271 1_555
F15 Sb3 1.903885 1_555
F15 K3 2.635271 1_455
