# generated using pymatgen
data_Cs4MnHgTe4
_symmetry_space_group_name_H-M   'P 1'
_cell_length_a   9.46811944
_cell_length_b   9.46811965
_cell_length_c   9.46811847
_cell_angle_alpha   134.01997174
_cell_angle_beta   130.10860199
_cell_angle_gamma   70.17505264
_symmetry_Int_Tables_number   1
_chemical_formula_structural   Cs4MnHgTe4
_chemical_formula_sum   'Cs4 Mn1 Hg1 Te4'
_cell_volume   457.63002290
_cell_formula_units_Z   1
loop_
 _symmetry_equiv_pos_site_id
 _symmetry_equiv_pos_as_xyz
  1  'x, y, z'
loop_
 _atom_site_type_symbol
 _atom_site_label
 _atom_site_symmetry_multiplicity
 _atom_site_fract_x
 _atom_site_fract_y
 _atom_site_fract_z
 _atom_site_occupancy
  Cs  Cs0  1  0.96463635  0.63639295  0.31503488  1
  Cs  Cs1  1  0.67864193  0.86360705  0.82824341  1
  Cs  Cs2  1  0.32135807  0.14960147  0.18496512  1
  Cs  Cs3  1  0.03536365  0.35039853  0.67175659  1
  Mn  Mn0  1  0.50000000  0.75000000  0.25000000  1
  Hg  Hg0  1  0.50000000  0.25000000  0.75000000  1
  Te  Te0  1  0.58333412  0.40970152  0.19630335  1
  Te  Te1  1  0.21339818  0.88703177  0.30369665  1
  Te  Te2  1  0.78660182  0.09029848  0.67363360  1
  Te  Te3  1  0.41666588  0.61296823  0.82636640  1
loop_
_geom_bond_atom_site_label_1
_geom_bond_atom_site_label_2
_geom_bond_distance
_geom_bond_site_symmetry_2
Cs0 Hg0 3.840402 1_554
Cs0 Te2 3.875521 1_565
Cs0 Mn0 3.887150 1_555
Cs0 Te2 3.941725 1_554
Cs0 Te0 3.946829 1_555
Cs0 Te1 3.957468 1_655
Cs0 Te3 3.994485 1_655
Cs0 Te3 4.098631 1_554
Cs1 Hg0 3.840402 1_565
Cs1 Te0 3.875517 1_555
Cs1 Mn0 3.887150 1_555
Cs1 Te0 3.941728 1_566
Cs1 Te2 3.946820 1_565
Cs1 Te3 3.957461 1_555
Cs1 Te1 3.994483 1_656
Cs1 Te1 4.098636 1_555
Cs2 Hg0 3.840401 1_555
Cs2 Te3 3.875525 1_544
Cs2 Mn0 3.887150 1_545
Cs2 Te3 3.941721 1_555
Cs2 Te1 3.946821 1_545
Cs2 Te0 3.957461 1_555
Cs2 Te2 3.994483 1_454
Cs2 Te2 4.098636 1_555
Cs3 Hg0 3.840402 1_555
Cs3 Te1 3.875521 1_556
Cs3 Mn0 3.887150 1_556
Cs3 Te1 3.941725 1_545
Cs3 Te3 3.946829 1_555
Cs3 Te2 3.957468 1_455
Cs3 Te0 3.994485 1_455
Cs3 Te0 4.098632 1_556
Mn0 Te1 2.788923 1_555
Mn0 Te0 2.788923 1_555
Mn0 Te2 2.788923 1_565
Mn0 Te3 2.788927 1_554
Hg0 Te3 2.897949 1_555
Hg0 Te2 2.897949 1_555
Hg0 Te1 2.897949 1_545
Hg0 Te0 2.897953 1_556
