# generated using pymatgen
data_Cs2Ca(ICl)2
_symmetry_space_group_name_H-M   'P 1'
_cell_length_a   10.35844105
_cell_length_b   10.35844103
_cell_length_c   7.77429862
_cell_angle_alpha   90.00000000
_cell_angle_beta   90.00000000
_cell_angle_gamma   136.07161591
_symmetry_Int_Tables_number   1
_chemical_formula_structural   Cs2Ca(ICl)2
_chemical_formula_sum   'Cs4 Ca2 I4 Cl4'
_cell_volume   578.70663076
_cell_formula_units_Z   2
loop_
 _symmetry_equiv_pos_site_id
 _symmetry_equiv_pos_as_xyz
  1  'x, y, z'
loop_
 _atom_site_type_symbol
 _atom_site_label
 _atom_site_symmetry_multiplicity
 _atom_site_fract_x
 _atom_site_fract_y
 _atom_site_fract_z
 _atom_site_occupancy
  Cs  Cs0  1  0.13237122  0.86762878  0.50000000  1
  Cs  Cs1  1  0.86762878  0.13237122  0.50000000  1
  Cs  Cs2  1  0.36762878  0.63237122  0.00000000  1
  Cs  Cs3  1  0.63237122  0.36762878  0.00000000  1
  Ca  Ca0  1  0.50000000  0.50000000  0.50000000  1
  Ca  Ca1  1  0.00000000  0.00000000  0.00000000  1
  I  I0  1  0.33637104  0.66362896  0.50000000  1
  I  I1  1  0.66362896  0.33637104  0.50000000  1
  I  I2  1  0.16362896  0.83637104  0.00000000  1
  I  I3  1  0.83637104  0.16362896  0.00000000  1
  Cl  Cl0  1  0.74996182  0.74996182  0.74976943  1
  Cl  Cl1  1  0.25003818  0.25003818  0.25023057  1
  Cl  Cl2  1  0.75003818  0.75003818  0.24976943  1
  Cl  Cl3  1  0.24996182  0.24996182  0.75023057  1
loop_
_geom_bond_atom_site_label_1
_geom_bond_atom_site_label_2
_geom_bond_distance
_geom_bond_site_symmetry_2
Cs0 I0 3.919490 1_555
Cs0 I1 3.920608 1_455
Cs0 I1 3.920608 1_565
Cs0 I2 3.933269 1_556
Cs0 I2 3.933269 1_555
Cs1 I1 3.919490 1_555
Cs1 I0 3.920608 1_655
Cs1 I0 3.920608 1_545
Cs1 I3 3.933269 1_556
Cs1 I3 3.933269 1_555
Cs2 I2 3.919490 1_555
Cs2 I3 3.920608 1_565
Cs2 I3 3.920608 1_455
Cs2 I0 3.933269 1_554
Cs2 I0 3.933269 1_555
Cs3 I3 3.919490 1_555
Cs3 I2 3.920608 1_545
Cs3 I2 3.920608 1_655
Cs3 I1 3.933269 1_555
Cs3 I1 3.933269 1_554
Ca0 Cl0 2.742625 1_555
Ca0 Cl1 2.742625 1_555
Ca0 Cl2 2.745582 1_555
Ca0 Cl3 2.745582 1_555
Ca0 I1 3.143837 1_555
Ca0 I0 3.143837 1_555
Ca1 Cl3 2.742625 1_554
Ca1 Cl2 2.742625 1_445
Ca1 Cl1 2.745582 1_555
Ca1 Cl0 2.745582 1_444
Ca1 I2 3.143837 1_545
Ca1 I3 3.143837 1_455
Cl0 Cs1 3.740660 1_565
Cl0 Cs0 3.740660 1_655
Cl0 Cs3 3.742216 1_556
Cl0 Cs2 3.742216 1_556
Cl1 Cs0 3.740660 1_545
Cl1 Cs1 3.740660 1_455
Cl1 Cs2 3.742216 1_555
Cl1 Cs3 3.742216 1_555
Cl2 Cs3 3.740660 1_555
Cl2 Cs2 3.740660 1_555
Cl2 Cs1 3.742216 1_565
Cl2 Cs0 3.742216 1_655
Cl3 Cs2 3.740660 1_556
Cl3 Cs3 3.740660 1_556
Cl3 Cs0 3.742216 1_545
Cl3 Cs1 3.742216 1_455
