# generated using pymatgen
data_CaY2AsSe2
_symmetry_space_group_name_H-M   'P 1'
_cell_length_a   4.11525953
_cell_length_b   4.11526060
_cell_length_c   10.17534756
_cell_angle_alpha   90.00000000
_cell_angle_beta   90.00000000
_cell_angle_gamma   119.99999934
_symmetry_Int_Tables_number   1
_chemical_formula_structural   CaY2AsSe2
_chemical_formula_sum   'Ca1 Y2 As1 Se2'
_cell_volume   149.23629517
_cell_formula_units_Z   1
loop_
 _symmetry_equiv_pos_site_id
 _symmetry_equiv_pos_as_xyz
  1  'x, y, z'
loop_
 _atom_site_type_symbol
 _atom_site_label
 _atom_site_symmetry_multiplicity
 _atom_site_fract_x
 _atom_site_fract_y
 _atom_site_fract_z
 _atom_site_occupancy
  Ca  Ca0  1  0.00000000  0.00000000  0.00000000  1
  Y  Y0  1  0.33333300  0.66666700  0.65499014  1
  Y  Y1  1  0.66666700  0.33333300  0.34500986  1
  As  As0  1  0.00000000  0.00000000  0.50000000  1
  Se  Se0  1  0.33333300  0.66666700  0.17031603  1
  Se  Se1  1  0.66666700  0.33333300  0.82968397  1
loop_
_geom_bond_atom_site_label_1
_geom_bond_atom_site_label_2
_geom_bond_distance
_geom_bond_site_symmetry_2
Ca0 Se0 2.940831 1_545
Ca0 Se1 2.940831 1_454
Ca0 Se0 2.940833 1_445
Ca0 Se1 2.940833 1_554
Ca0 Se0 2.940834 1_555
Ca0 Se1 2.940834 1_444
As0 Y0 2.851717 1_545
As0 Y1 2.851717 1_455
As0 Y0 2.851719 1_445
As0 Y1 2.851719 1_555
As0 Y0 2.851720 1_555
As0 Y1 2.851720 1_445
Se0 Y1 2.967299 1_455
Se0 Y1 2.967300 1_565
Se0 Y1 2.967305 1_555
Se1 Y0 2.967299 1_655
Se1 Y0 2.967300 1_545
Se1 Y0 2.967305 1_555
