# generated using pymatgen
data_Ta(Pd3Pt)2
_symmetry_space_group_name_H-M   'P 1'
_cell_length_a   6.22902093
_cell_length_b   6.22902061
_cell_length_c   6.20502210
_cell_angle_alpha   95.75324773
_cell_angle_beta   95.75324964
_cell_angle_gamma   143.15717352
_symmetry_Int_Tables_number   1
_chemical_formula_structural   Ta(Pd3Pt)2
_chemical_formula_sum   'Ta1 Pd6 Pt2'
_cell_volume   136.90808385
_cell_formula_units_Z   1
loop_
 _symmetry_equiv_pos_site_id
 _symmetry_equiv_pos_as_xyz
  1  'x, y, z'
loop_
 _atom_site_type_symbol
 _atom_site_label
 _atom_site_symmetry_multiplicity
 _atom_site_fract_x
 _atom_site_fract_y
 _atom_site_fract_z
 _atom_site_occupancy
  Ta  Ta0  1  0.00000000  0.00000000  0.00000000  1
  Pd  Pd0  1  0.33005421  0.99901054  0.32906575  1
  Pd  Pd1  1  0.66994579  0.00098946  0.67093425  1
  Pd  Pd2  1  0.99901054  0.33005421  0.32906575  1
  Pd  Pd3  1  0.00098946  0.66994579  0.67093425  1
  Pd  Pd4  1  0.33470532  0.33470532  0.66940864  1
  Pd  Pd5  1  0.66529468  0.66529468  0.33059136  1
  Pt  Pt0  1  0.66126568  0.33873432  0.00000000  1
  Pt  Pt1  1  0.33873432  0.66126568  1.00000000  1
loop_
_geom_bond_atom_site_label_1
_geom_bond_atom_site_label_2
_geom_bond_distance
_geom_bond_site_symmetry_2
Pd0 Ta0 2.752670 1_565
Pd0 Pt0 2.761654 1_455
Pd0 Pt0 2.761657 1_565
Pd0 Pd5 2.775283 1_565
Pd0 Pd5 2.775286 1_455
Pd0 Pd4 2.799749 1_565
Pd0 Pd2 2.804035 1_455
Pd0 Pd2 2.804035 1_565
Pd0 Pd3 2.814541 1_555
Pd0 Pd3 2.814547 1_665
Pd0 Pt1 2.818001 1_554
Pd0 Pd1 2.834629 1_565
Pd1 Ta0 2.752670 1_656
Pd1 Pt1 2.761654 1_655
Pd1 Pt1 2.761657 1_545
Pd1 Pd4 2.775283 1_545
Pd1 Pd4 2.775286 1_655
Pd1 Pd5 2.799749 1_545
Pd1 Pd3 2.804035 1_655
Pd1 Pd3 2.804035 1_545
Pd1 Pd2 2.814541 1_555
Pd1 Pd2 2.814547 1_445
Pd1 Pt0 2.818001 1_556
Pd2 Ta0 2.752670 1_655
Pd2 Pt1 2.761654 1_544
Pd2 Pt1 2.761657 1_654
Pd2 Pd5 2.775283 1_655
Pd2 Pd5 2.775286 1_545
Pd2 Pd4 2.799749 1_655
Pd2 Pt0 2.818001 1_555
Pd2 Pd3 2.834629 1_655
Pd3 Ta0 2.752670 1_566
Pd3 Pt0 2.761654 1_566
Pd3 Pt0 2.761657 1_456
Pd3 Pd4 2.775283 1_455
Pd3 Pd4 2.775286 1_565
Pd3 Pd5 2.799749 1_455
Pd3 Pt1 2.818001 1_555
Pd4 Pt1 2.723551 1_555
Pd4 Pt0 2.723551 1_556
Pd4 Ta0 2.767498 1_666
Pd4 Ta0 2.767503 1_556
Pd4 Pd5 2.801732 1_555
Pd4 Pd5 2.801744 1_445
Pd5 Pt0 2.723551 1_555
Pd5 Pt1 2.723551 1_554
Pd5 Ta0 2.767498 1_555
Pd5 Ta0 2.767503 1_665
Pt0 Ta0 2.740039 1_665
Pt0 Ta0 2.740039 1_555
Pt0 Pt1 2.876557 1_544
Pt0 Pt1 2.876557 1_654
Pt1 Ta0 2.740039 1_556
Pt1 Ta0 2.740039 1_666
