# generated using pymatgen
data_BaGePRh2
_symmetry_space_group_name_H-M   'P 1'
_cell_length_a   7.08339924
_cell_length_b   7.08339961
_cell_length_c   7.08339935
_cell_angle_alpha   147.02248921
_cell_angle_beta   147.02249488
_cell_angle_gamma   47.33048017
_symmetry_Int_Tables_number   1
_chemical_formula_structural   BaGePRh2
_chemical_formula_sum   'Ba1 Ge1 P1 Rh2'
_cell_volume   104.89241042
_cell_formula_units_Z   1
loop_
 _symmetry_equiv_pos_site_id
 _symmetry_equiv_pos_as_xyz
  1  'x, y, z'
loop_
 _atom_site_type_symbol
 _atom_site_label
 _atom_site_symmetry_multiplicity
 _atom_site_fract_x
 _atom_site_fract_y
 _atom_site_fract_z
 _atom_site_occupancy
  Ba  Ba0  1  0.99319547  0.99319547  1.00000000  1
  Ge  Ge0  1  0.64799950  0.64799950  1.00000000  1
  P  P0  1  0.34516727  0.34516727  0.00000000  1
  Rh  Rh0  1  0.75681838  0.25681838  0.50000000  1
  Rh  Rh1  1  0.25681838  0.75681838  0.50000000  1
loop_
_geom_bond_atom_site_label_1
_geom_bond_atom_site_label_2
_geom_bond_distance
_geom_bond_site_symmetry_2
Ba0 P0 3.431199 1_566
Ba0 P0 3.431199 1_667
Ba0 P0 3.431199 1_555
Ba0 P0 3.431199 1_656
Ba0 Ge0 3.481177 1_655
Ba0 Ge0 3.481177 1_554
Ba0 Ge0 3.481177 1_666
Ba0 Ge0 3.481177 1_565
Ge0 Rh1 2.456751 1_656
Ge0 Rh1 2.456751 1_555
Ge0 Rh0 2.456751 1_555
Ge0 Rh0 2.456752 1_566
P0 Rh0 2.314327 1_454
P0 Rh0 2.314327 1_555
P0 Rh1 2.314328 1_555
P0 Rh1 2.314328 1_544
