# generated using pymatgen
data_Ti12Cd2Sn5Sb3
_symmetry_space_group_name_H-M   'P 1'
_cell_length_a   9.21071938
_cell_length_b   9.21499462
_cell_length_c   5.68667558
_cell_angle_alpha   90.00000000
_cell_angle_beta   90.00000000
_cell_angle_gamma   119.98465405
_symmetry_Int_Tables_number   1
_chemical_formula_structural   Ti12Cd2Sn5Sb3
_chemical_formula_sum   'Ti12 Cd2 Sn5 Sb3'
_cell_volume   418.06600862
_cell_formula_units_Z   1
loop_
 _symmetry_equiv_pos_site_id
 _symmetry_equiv_pos_as_xyz
  1  'x, y, z'
loop_
 _atom_site_type_symbol
 _atom_site_label
 _atom_site_symmetry_multiplicity
 _atom_site_fract_x
 _atom_site_fract_y
 _atom_site_fract_z
 _atom_site_occupancy
  Ti  Ti0  1  0.83947615  0.67895129  0.75000000  1
  Ti  Ti1  1  0.16329940  0.84659766  0.25000000  1
  Ti  Ti2  1  0.68329826  0.84659766  0.25000000  1
  Ti  Ti3  1  0.31215098  0.15990793  0.75000000  1
  Ti  Ti4  1  0.84775695  0.15990793  0.75000000  1
  Ti  Ti5  1  0.15421454  0.30842908  0.25000000  1
  Ti  Ti6  1  0.50147948  0.00295796  0.49817427  1
  Ti  Ti7  1  0.49932375  0.49917882  0.99964631  1
  Ti  Ti8  1  0.99985507  0.49917882  0.99964631  1
  Ti  Ti9  1  0.99985507  0.49917882  0.50035369  1
  Ti  Ti10  1  0.50147948  0.00295796  0.00182573  1
  Ti  Ti11  1  0.49932375  0.49917882  0.50035369  1
  Cd  Cd0  1  0.99476216  0.98952333  0.50123300  1
  Cd  Cd1  1  0.99476216  0.98952333  0.99876700  1
  Sn  Sn0  1  0.60794157  0.80567344  0.75000000  1
  Sn  Sn1  1  0.19773187  0.80567344  0.75000000  1
  Sn  Sn2  1  0.80570656  0.61141311  0.25000000  1
  Sn  Sn3  1  0.66668729  0.33337259  0.75000000  1
  Sn  Sn4  1  0.33359159  0.66718317  0.25000000  1
  Sb  Sb0  1  0.19819953  0.39640007  0.75000000  1
  Sb  Sb1  1  0.80545536  0.19910840  0.25000000  1
  Sb  Sb2  1  0.39365303  0.19910840  0.25000000  1
loop_
_geom_bond_atom_site_label_1
_geom_bond_atom_site_label_2
_geom_bond_distance
_geom_bond_site_symmetry_2
Ti0 Ti8 3.063968 1_555
Ti0 Ti9 3.063968 1_555
Ti0 Ti7 3.063975 1_555
Ti0 Ti11 3.063975 1_555
Ti1 Ti6 3.047010 1_565
Ti1 Ti10 3.047010 1_565
Ti1 Ti9 3.118526 1_455
Ti1 Ti8 3.118526 1_454
Ti2 Ti6 3.047003 1_565
Ti2 Ti7 3.118526 1_554
Ti3 Ti7 3.061776 1_555
Ti3 Ti6 3.115205 1_555
Ti4 Ti8 3.061776 1_555
Ti4 Ti9 3.061776 1_555
Ti4 Ti6 3.115198 1_555
Ti5 Ti9 3.104181 1_455
Ti5 Ti8 3.104181 1_454
Ti5 Ti7 3.104181 1_554
Ti8 Ti9 2.839315 1_555
Ti8 Ti9 2.847360 1_556
Ti10 Ti6 2.822573 1_555
Ti10 Ti6 2.864102 1_554
Ti10 Ti2 3.047003 1_545
Ti10 Ti4 3.115198 1_554
Ti10 Ti3 3.115205 1_554
Ti11 Ti7 2.839315 1_555
Ti11 Ti7 2.847360 1_554
Ti11 Ti3 3.061776 1_555
Ti11 Ti5 3.104181 1_555
Ti11 Ti2 3.118526 1_555
Cd0 Ti0 2.854136 1_555
Cd0 Ti1 2.868649 1_655
Cd0 Ti2 2.868656 1_555
Cd0 Ti3 2.902541 1_665
Cd0 Ti4 2.902548 1_565
Cd0 Ti5 2.918932 1_665
Cd1 Ti0 2.854136 1_555
Cd1 Ti1 2.868649 1_656
Cd1 Ti2 2.868656 1_556
Cd1 Ti3 2.902541 1_665
Cd1 Ti4 2.902548 1_565
Cd1 Ti5 2.918932 1_666
Sn0 Ti10 2.845915 1_566
Sn0 Ti6 2.845915 1_565
Sn0 Ti7 2.858138 1_555
Sn0 Ti11 2.858138 1_555
Sn0 Ti4 2.885751 1_565
Sn0 Ti0 2.898411 1_555
Sn0 Ti2 2.906358 1_555
Sn0 Ti2 2.906358 1_556
Sn1 Ti10 2.845921 1_566
Sn1 Ti6 2.845921 1_565
Sn1 Ti8 2.858138 1_455
Sn1 Ti9 2.858138 1_455
Sn1 Ti3 2.885751 1_565
Sn1 Ti0 2.898402 1_455
Sn1 Ti1 2.906358 1_555
Sn1 Ti1 2.906358 1_556
Sn2 Ti11 2.853587 1_555
Sn2 Ti7 2.853587 1_554
Sn2 Ti9 2.853587 1_555
Sn2 Ti8 2.853587 1_554
Sn2 Ti0 2.893987 1_554
Sn2 Ti0 2.893987 1_555
Sn2 Ti2 2.900067 1_555
Sn2 Ti1 2.900067 1_655
Sn3 Ti0 2.758289 1_555
Sn3 Ti4 2.828656 1_555
Sn3 Ti3 2.828672 1_555
Sn3 Ti10 3.000981 1_556
Sn3 Ti6 3.000981 1_555
Sn3 Ti8 3.013371 1_555
Sn3 Ti9 3.013371 1_555
Sn3 Ti7 3.013385 1_555
Sn3 Ti11 3.013385 1_555
Sn4 Ti1 2.790282 1_555
Sn4 Ti2 2.790282 1_555
Sn4 Ti5 2.863451 1_555
Sn4 Ti9 3.019286 1_455
Sn4 Ti8 3.019286 1_454
Sn4 Ti11 3.019286 1_555
Sn4 Ti7 3.019286 1_554
Sn4 Ti6 3.028916 1_565
Sn4 Ti10 3.028916 1_565
Sb0 Ti8 2.824791 1_455
Sb0 Ti9 2.824791 1_455
Sb0 Ti7 2.824798 1_555
Sb0 Ti11 2.824798 1_555
Sb0 Ti4 2.852552 1_455
Sb0 Ti3 2.852559 1_555
Sb0 Ti5 2.928752 1_555
Sb0 Ti5 2.928752 1_556
Sb1 Ti9 2.816051 1_555
Sb1 Ti8 2.816051 1_554
Sb1 Ti6 2.835407 1_555
Sb1 Ti10 2.835407 1_555
Sb1 Ti5 2.845926 1_655
Sb1 Ti2 2.857400 1_545
Sb1 Ti4 2.916770 1_554
Sb1 Ti4 2.916770 1_555
Sb2 Ti11 2.816051 1_555
Sb2 Ti7 2.816051 1_554
Sb2 Ti6 2.835414 1_555
Sb2 Ti10 2.835414 1_555
Sb2 Ti5 2.845926 1_555
Sb2 Ti1 2.857400 1_545
Sb2 Ti3 2.916770 1_555
Sb2 Ti3 2.916770 1_554
