# generated using pymatgen
data_Hf3Al2AuC
_symmetry_space_group_name_H-M   'P 1'
_cell_length_a   8.60892269
_cell_length_b   8.60892182
_cell_length_c   8.60892403
_cell_angle_alpha   59.99999906
_cell_angle_beta   60.00000238
_cell_angle_gamma   60.00000261
_symmetry_Int_Tables_number   1
_chemical_formula_structural   Hf3Al2AuC
_chemical_formula_sum   'Hf12 Al8 Au4 C4'
_cell_volume   451.16090847
_cell_formula_units_Z   4
loop_
 _symmetry_equiv_pos_site_id
 _symmetry_equiv_pos_as_xyz
  1  'x, y, z'
loop_
 _atom_site_type_symbol
 _atom_site_label
 _atom_site_symmetry_multiplicity
 _atom_site_fract_x
 _atom_site_fract_y
 _atom_site_fract_z
 _atom_site_occupancy
  Hf  Hf0  1  0.43583916  0.43583916  0.06416084  1
  Hf  Hf1  1  0.06416084  0.43583916  0.06416084  1
  Hf  Hf2  1  0.43583916  0.06416084  0.06416084  1
  Hf  Hf3  1  0.06416084  0.06416084  0.43583916  1
  Hf  Hf4  1  0.43583916  0.06416084  0.43583916  1
  Hf  Hf5  1  0.06416084  0.43583916  0.43583916  1
  Hf  Hf6  1  0.81416084  0.81416084  0.18583916  1
  Hf  Hf7  1  0.18583916  0.81416084  0.18583916  1
  Hf  Hf8  1  0.81416084  0.18583916  0.18583916  1
  Hf  Hf9  1  0.18583916  0.18583916  0.81416084  1
  Hf  Hf10  1  0.81416084  0.18583916  0.81416084  1
  Hf  Hf11  1  0.18583916  0.81416084  0.81416084  1
  Al  Al0  1  0.83291935  0.83291935  0.50124096  1
  Al  Al1  1  0.83291935  0.50124096  0.83291935  1
  Al  Al2  1  0.50124096  0.83291935  0.83291935  1
  Al  Al3  1  0.83291935  0.83291935  0.83291935  1
  Al  Al4  1  0.41708065  0.41708065  0.74875904  1
  Al  Al5  1  0.41708065  0.74875904  0.41708065  1
  Al  Al6  1  0.74875904  0.41708065  0.41708065  1
  Al  Al7  1  0.41708065  0.41708065  0.41708065  1
  Au  Au0  1  0.62500000  0.62500000  0.12500000  1
  Au  Au1  1  0.62500000  0.12500000  0.62500000  1
  Au  Au2  1  0.12500000  0.62500000  0.62500000  1
  Au  Au3  1  0.62500000  0.62500000  0.62500000  1
  C  C0  1  0.12500000  0.12500000  0.62500000  1
  C  C1  1  0.12500000  0.62500000  0.12500000  1
  C  C2  1  0.62500000  0.12500000  0.12500000  1
  C  C3  1  0.12500000  0.12500000  0.12500000  1
loop_
_geom_bond_atom_site_label_1
_geom_bond_atom_site_label_2
_geom_bond_distance
_geom_bond_site_symmetry_2
Al0 Au3 2.633034 1_555
Al0 Au1 2.633041 1_565
Al0 Au2 2.633041 1_655
Al1 Au3 2.633034 1_555
Al1 Au2 2.633041 1_655
Al1 Au0 2.633041 1_556
Al2 Au3 2.633034 1_555
Al2 Au1 2.633041 1_565
Al2 Au0 2.633041 1_556
Al3 Au0 2.633036 1_556
Al3 Au1 2.633036 1_565
Al3 Au2 2.633037 1_655
Al4 Au3 2.633034 1_555
Al4 Au1 2.633041 1_555
Al4 Au2 2.633041 1_555
Al5 Au3 2.633034 1_555
Al5 Au2 2.633041 1_555
Al5 Au0 2.633041 1_555
Al6 Au3 2.633034 1_555
Al6 Au1 2.633041 1_555
Al6 Au0 2.633041 1_555
Al7 Au0 2.633036 1_555
Al7 Au1 2.633036 1_555
Al7 Au2 2.633037 1_555
Au0 Hf2 3.152131 1_565
Au0 Hf8 3.152131 1_555
Au0 Hf6 3.152131 1_555
Au0 Hf0 3.152131 1_555
Au0 Hf1 3.152132 1_655
Au0 Hf7 3.152132 1_555
Au1 Hf3 3.152132 1_655
Au1 Hf9 3.152132 1_555
Au1 Hf10 3.152132 1_555
Au1 Hf4 3.152132 1_555
Au1 Hf2 3.152132 1_556
Au1 Hf8 3.152132 1_555
Au2 Hf3 3.152131 1_565
Au2 Hf9 3.152131 1_555
Au2 Hf11 3.152132 1_555
Au2 Hf5 3.152132 1_555
Au2 Hf1 3.152132 1_556
Au2 Hf7 3.152132 1_555
Au3 Hf4 3.152131 1_565
Au3 Hf10 3.152131 1_555
Au3 Hf5 3.152132 1_655
Au3 Hf11 3.152132 1_555
Au3 Hf0 3.152132 1_556
Au3 Hf6 3.152132 1_555
C0 Hf5 2.276125 1_555
C0 Hf11 2.276125 1_545
C0 Hf4 2.276125 1_555
C0 Hf10 2.276125 1_455
C0 Hf9 2.276125 1_555
C0 Hf3 2.276125 1_555
C1 Hf7 2.276125 1_555
C1 Hf1 2.276125 1_555
C1 Hf0 2.276125 1_555
C1 Hf6 2.276125 1_455
C1 Hf5 2.276125 1_555
C1 Hf11 2.276125 1_554
C2 Hf0 2.276125 1_555
C2 Hf6 2.276125 1_545
C2 Hf8 2.276125 1_555
C2 Hf2 2.276125 1_555
C2 Hf4 2.276125 1_555
C2 Hf10 2.276125 1_554
C3 Hf1 2.276125 1_555
C3 Hf7 2.276125 1_545
C3 Hf2 2.276125 1_555
C3 Hf8 2.276125 1_455
C3 Hf3 2.276125 1_555
C3 Hf9 2.276125 1_554
