# generated using pymatgen
data_Zr10SnBi5P
_symmetry_space_group_name_H-M   'P 1'
_cell_length_a   5.89051156
_cell_length_b   8.68917445
_cell_length_c   8.66379561
_cell_angle_alpha   119.90303067
_cell_angle_beta   89.90660911
_cell_angle_gamma   90.04621764
_symmetry_Int_Tables_number   1
_chemical_formula_structural   Zr10SnBi5P
_chemical_formula_sum   'Zr10 Sn1 Bi5 P1'
_cell_volume   384.40879387
_cell_formula_units_Z   1
loop_
 _symmetry_equiv_pos_site_id
 _symmetry_equiv_pos_as_xyz
  1  'x, y, z'
loop_
 _atom_site_type_symbol
 _atom_site_label
 _atom_site_symmetry_multiplicity
 _atom_site_fract_x
 _atom_site_fract_y
 _atom_site_fract_z
 _atom_site_occupancy
  Zr  Zr0  1  0.49845283  0.33072418  0.66440922  1
  Zr  Zr1  1  0.49846160  0.66928497  0.33368620  1
  Zr  Zr2  1  0.00182014  0.66884426  0.33360120  1
  Zr  Zr3  1  0.00183052  0.33116307  0.66476091  1
  Zr  Zr4  1  0.75991510  0.24476415  0.99784274  1
  Zr  Zr5  1  0.75990985  0.75525188  0.75308644  1
  Zr  Zr6  1  0.76193820  0.99998459  0.24595357  1
  Zr  Zr7  1  0.23953352  0.75697045  0.00653755  1
  Zr  Zr8  1  0.23953735  0.24303201  0.24955665  1
  Zr  Zr9  1  0.23944315  0.99999827  0.75122647  1
  Sn  Sn0  1  0.24934802  0.99996849  0.39513490  1
  Bi  Bi0  1  0.75039278  0.60635112  0.99919039  1
  Bi  Bi1  1  0.75039156  0.39365020  0.39285684  1
  Bi  Bi2  1  0.75092934  0.00001543  0.60281611  1
  Bi  Bi3  1  0.24940316  0.39185716  0.00082266  1
  Bi  Bi4  1  0.24940598  0.60814131  0.60898341  1
  P  P0  1  0.49928690  0.00000248  0.99953473  1
loop_
_geom_bond_atom_site_label_1
_geom_bond_atom_site_label_2
_geom_bond_distance
_geom_bond_site_symmetry_2
Sn0 Zr7 2.951107 1_555
Sn0 Zr8 2.951471 1_565
Sn0 Zr2 3.025692 1_555
Sn0 Zr3 3.026094 1_565
Sn0 Zr1 3.028526 1_555
Sn0 Zr0 3.028983 1_565
Sn0 Zr9 3.085432 1_555
Sn0 Zr6 3.150548 1_455
Sn0 Zr6 3.282505 1_555
Bi0 Zr5 2.995574 1_555
Bi0 Zr6 2.997202 1_556
Bi0 Zr1 3.050723 1_556
Bi0 Zr2 3.053938 1_656
Bi0 Zr3 3.064345 1_655
Bi0 Zr0 3.071348 1_555
Bi0 Zr4 3.136634 1_555
Bi0 Zr7 3.151218 1_656
Bi0 Zr7 3.270319 1_556
Bi1 Zr4 2.995682 1_554
Bi1 Zr6 2.997413 1_545
Bi1 Zr0 3.050632 1_555
Bi1 Zr3 3.053831 1_655
Bi1 Zr2 3.064430 1_655
Bi1 Zr1 3.071428 1_555
Bi1 Zr5 3.136676 1_555
Bi1 Zr8 3.151277 1_655
Bi1 Zr8 3.270350 1_555
Bi2 Zr4 2.996986 1_555
Bi2 Zr5 2.997032 1_545
Bi2 Zr3 3.034430 1_655
Bi2 Zr2 3.034540 1_645
Bi2 Zr0 3.038000 1_555
Bi2 Zr1 3.038144 1_545
Bi2 Zr6 3.092225 1_545
Bi2 Zr9 3.153742 1_645
Bi2 Zr9 3.273911 1_545
Bi3 Zr9 2.988625 1_544
Bi3 Zr8 3.016231 1_555
Bi3 Zr2 3.050439 1_555
Bi3 Zr1 3.058865 1_555
Bi3 Zr3 3.060015 1_554
Bi3 Zr0 3.061530 1_554
Bi3 Zr4 3.147899 1_454
Bi3 Zr7 3.148725 1_555
Bi3 Zr4 3.263496 1_554
Bi4 Zr9 2.988628 1_555
Bi4 Zr7 3.016201 1_556
Bi4 Zr3 3.050283 1_555
Bi4 Zr0 3.058674 1_555
Bi4 Zr2 3.060196 1_555
Bi4 Zr1 3.061722 1_555
Bi4 Zr5 3.147946 1_455
Bi4 Zr8 3.148845 1_555
Bi4 Zr5 3.263483 1_555
P0 Zr5 2.627862 1_545
P0 Zr4 2.627942 1_555
P0 Zr8 2.631758 1_556
P0 Zr7 2.631831 1_546
P0 Zr6 2.638687 1_546
P0 Zr9 2.642251 1_545
