# generated using pymatgen
data_CsKNiAs2
_symmetry_space_group_name_H-M   'P 1'
_cell_length_a   7.60127954
_cell_length_b   7.60127862
_cell_length_c   5.97927691
_cell_angle_alpha   90.00000000
_cell_angle_beta   90.00000000
_cell_angle_gamma   123.80885127
_symmetry_Int_Tables_number   1
_chemical_formula_structural   CsKNiAs2
_chemical_formula_sum   'Cs2 K2 Ni2 As4'
_cell_volume   287.05823372
_cell_formula_units_Z   2
loop_
 _symmetry_equiv_pos_site_id
 _symmetry_equiv_pos_as_xyz
  1  'x, y, z'
loop_
 _atom_site_type_symbol
 _atom_site_label
 _atom_site_symmetry_multiplicity
 _atom_site_fract_x
 _atom_site_fract_y
 _atom_site_fract_z
 _atom_site_occupancy
  Cs  Cs0  1  0.39473716  0.60526284  0.25000000  1
  Cs  Cs1  1  0.60526284  0.39473716  0.75000000  1
  K  K0  1  0.79400973  0.20599027  0.25000000  1
  K  K1  1  0.20599027  0.79400973  0.75000000  1
  Ni  Ni0  1  0.00000000  0.00000000  0.00000000  1
  Ni  Ni1  1  0.00000000  0.00000000  0.50000000  1
  As  As0  1  0.93218400  0.73064829  0.25000000  1
  As  As1  1  0.06781600  0.26935171  0.75000000  1
  As  As2  1  0.26935171  0.06781600  0.25000000  1
  As  As3  1  0.73064829  0.93218400  0.75000000  1
loop_
_geom_bond_atom_site_label_1
_geom_bond_atom_site_label_2
_geom_bond_distance
_geom_bond_site_symmetry_2
K0 Ni0 3.141058 1_655
K0 Ni1 3.141058 1_655
K1 Ni0 3.141058 1_566
K1 Ni1 3.141058 1_565
As0 Ni0 2.348959 1_665
As0 Ni1 2.348959 1_665
As0 As2 2.413969 1_665
As0 K0 3.513757 1_555
As0 K1 3.519389 1_655
As0 K1 3.519389 1_654
As0 Cs0 3.642100 1_555
As0 Cs1 3.817290 1_554
As0 Cs1 3.817290 1_555
As0 Cs0 4.123085 1_655
As1 Ni0 2.348959 1_556
As1 Ni1 2.348959 1_555
As1 As3 2.413969 1_445
As1 K1 3.513757 1_555
As1 K0 3.519389 1_455
As1 K0 3.519389 1_456
As1 Cs1 3.642100 1_555
As1 Cs0 3.817290 1_555
As1 Cs0 3.817290 1_556
As1 Cs1 4.123085 1_455
As2 Ni0 2.348959 1_555
As2 Ni1 2.348959 1_555
As2 K0 3.513758 1_555
As2 K1 3.519389 1_544
As2 K1 3.519389 1_545
As2 Cs0 3.642099 1_555
As2 Cs1 3.817290 1_554
As2 Cs1 3.817290 1_555
As2 Cs0 4.123084 1_545
As3 Ni1 2.348959 1_665
As3 Ni0 2.348959 1_666
As3 K1 3.513758 1_555
As3 K0 3.519389 1_565
As3 K0 3.519389 1_566
As3 Cs1 3.642099 1_555
As3 Cs0 3.817290 1_555
As3 Cs0 3.817290 1_556
As3 Cs1 4.123084 1_565
