# generated using pymatgen
data_Zr3Zn2CuN
_symmetry_space_group_name_H-M   'P 1'
_cell_length_a   8.48243075
_cell_length_b   8.48243017
_cell_length_c   8.48243137
_cell_angle_alpha   60.00000298
_cell_angle_beta   60.00000522
_cell_angle_gamma   60.00000786
_symmetry_Int_Tables_number   1
_chemical_formula_structural   Zr3Zn2CuN
_chemical_formula_sum   'Zr12 Zn8 Cu4 N4'
_cell_volume   431.56481046
_cell_formula_units_Z   4
loop_
 _symmetry_equiv_pos_site_id
 _symmetry_equiv_pos_as_xyz
  1  'x, y, z'
loop_
 _atom_site_type_symbol
 _atom_site_label
 _atom_site_symmetry_multiplicity
 _atom_site_fract_x
 _atom_site_fract_y
 _atom_site_fract_z
 _atom_site_occupancy
  Zr  Zr0  1  0.80990278  0.19009722  0.19009722  1
  Zr  Zr1  1  0.19009722  0.80990278  0.19009722  1
  Zr  Zr2  1  0.80990278  0.80990278  0.19009722  1
  Zr  Zr3  1  0.19009722  0.80990278  0.80990278  1
  Zr  Zr4  1  0.80990278  0.19009722  0.80990278  1
  Zr  Zr5  1  0.19009722  0.19009722  0.80990278  1
  Zr  Zr6  1  0.44009722  0.05990278  0.05990278  1
  Zr  Zr7  1  0.05990278  0.44009722  0.05990278  1
  Zr  Zr8  1  0.44009722  0.44009722  0.05990278  1
  Zr  Zr9  1  0.05990278  0.44009722  0.44009722  1
  Zr  Zr10  1  0.44009722  0.05990278  0.44009722  1
  Zr  Zr11  1  0.05990278  0.05990278  0.44009722  1
  Zn  Zn0  1  0.42087009  0.42087009  0.73738872  1
  Zn  Zn1  1  0.42087009  0.42087009  0.42087009  1
  Zn  Zn2  1  0.73738872  0.42087009  0.42087009  1
  Zn  Zn3  1  0.42087009  0.73738872  0.42087009  1
  Zn  Zn4  1  0.82912991  0.82912991  0.51261128  1
  Zn  Zn5  1  0.82912991  0.82912991  0.82912991  1
  Zn  Zn6  1  0.51261128  0.82912991  0.82912991  1
  Zn  Zn7  1  0.82912991  0.51261128  0.82912991  1
  Cu  Cu0  1  0.62500000  0.62500000  0.12500000  1
  Cu  Cu1  1  0.62500000  0.62500000  0.62500000  1
  Cu  Cu2  1  0.12500000  0.62500000  0.62500000  1
  Cu  Cu3  1  0.62500000  0.12500000  0.62500000  1
  N  N0  1  0.12500000  0.12500000  0.62500000  1
  N  N1  1  0.12500000  0.12500000  0.12500000  1
  N  N2  1  0.62500000  0.12500000  0.12500000  1
  N  N3  1  0.12500000  0.62500000  0.12500000  1
loop_
_geom_bond_atom_site_label_1
_geom_bond_atom_site_label_2
_geom_bond_distance
_geom_bond_site_symmetry_2
Zn0 Zn3 2.684847 1_555
Zn0 Zn1 2.684847 1_555
Zn0 Zn2 2.684848 1_555
Zn0 Zr6 2.907953 1_556
Zn0 Zr7 2.907953 1_556
Zn0 Zr8 2.907958 1_556
Zn0 Zr5 3.076657 1_555
Zn0 Zr3 3.076664 1_555
Zn0 Zr4 3.076665 1_555
Zn1 Zn3 2.684847 1_555
Zn1 Zn2 2.684847 1_555
Zn1 Zr10 2.907949 1_555
Zn1 Zr9 2.907949 1_555
Zn1 Zr8 2.907949 1_555
Zn1 Zr5 3.076661 1_555
Zn1 Zr1 3.076661 1_555
Zn1 Zr0 3.076661 1_555
Zn2 Zn3 2.684848 1_555
Zn2 Zr11 2.907953 1_655
Zn2 Zr7 2.907953 1_655
Zn2 Zr9 2.907957 1_655
Zn2 Zr0 3.076657 1_555
Zn2 Zr2 3.076664 1_555
Zn2 Zr4 3.076665 1_555
Zn3 Zr6 2.907953 1_565
Zn3 Zr11 2.907953 1_565
Zn3 Zr10 2.907957 1_565
Zn3 Zr1 3.076657 1_555
Zn3 Zr2 3.076664 1_555
Zn3 Zr3 3.076665 1_555
Zn4 Zn7 2.684847 1_555
Zn4 Zn5 2.684847 1_555
Zn4 Zn6 2.684848 1_555
Zn4 Zr0 2.907953 1_565
Zn4 Zr1 2.907953 1_655
Zn4 Zr2 2.907958 1_555
Zn4 Zr11 3.076657 1_665
Zn4 Zr9 3.076664 1_655
Zn4 Zr10 3.076665 1_565
Zn5 Zn7 2.684847 1_555
Zn5 Zn6 2.684847 1_555
Zn5 Zr4 2.907949 1_565
Zn5 Zr3 2.907949 1_655
Zn5 Zr2 2.907949 1_556
Zn5 Zr11 3.076661 1_665
Zn5 Zr7 3.076661 1_656
Zn5 Zr6 3.076661 1_566
Zn6 Zn7 2.684848 1_555
Zn6 Zr5 2.907953 1_565
Zn6 Zr1 2.907953 1_556
Zn6 Zr3 2.907957 1_555
Zn6 Zr6 3.076657 1_566
Zn6 Zr8 3.076664 1_556
Zn6 Zr10 3.076665 1_565
Zn7 Zr0 2.907953 1_556
Zn7 Zr5 2.907953 1_655
Zn7 Zr4 2.907957 1_555
Zn7 Zr7 3.076657 1_656
Zn7 Zr8 3.076664 1_556
Zn7 Zr9 3.076665 1_655
Cu0 Zn2 2.569407 1_555
Cu0 Zn6 2.569407 1_554
Cu0 Zn3 2.569407 1_555
Cu0 Zn7 2.569407 1_554
Cu0 Zn5 2.569411 1_554
Cu0 Zn1 2.569411 1_555
Cu0 Zr2 3.068695 1_555
Cu0 Zr8 3.068695 1_555
Cu0 Zr6 3.068695 1_565
Cu0 Zr0 3.068695 1_555
Cu0 Zr7 3.068696 1_655
Cu0 Zr1 3.068696 1_555
Cu1 Zn4 2.569413 1_555
Cu1 Zn0 2.569413 1_555
Cu1 Zn6 2.569413 1_555
Cu1 Zn2 2.569413 1_555
Cu1 Zn7 2.569413 1_555
Cu1 Zn3 2.569413 1_555
Cu1 Zr4 3.068695 1_555
Cu1 Zr10 3.068695 1_565
Cu1 Zr2 3.068696 1_555
Cu1 Zr8 3.068696 1_556
Cu1 Zr3 3.068696 1_555
Cu1 Zr9 3.068696 1_655
Cu2 Zn3 2.569406 1_555
Cu2 Zn7 2.569406 1_455
Cu2 Zn0 2.569406 1_555
Cu2 Zn4 2.569406 1_455
Cu2 Zn5 2.569411 1_455
Cu2 Zn1 2.569411 1_555
Cu2 Zr3 3.068695 1_555
Cu2 Zr9 3.068695 1_555
Cu2 Zr11 3.068695 1_565
Cu2 Zr5 3.068695 1_555
Cu2 Zr7 3.068696 1_556
Cu2 Zr1 3.068696 1_555
Cu3 Zn2 2.569406 1_555
Cu3 Zn6 2.569406 1_545
Cu3 Zn0 2.569406 1_555
Cu3 Zn4 2.569406 1_545
Cu3 Zn5 2.569411 1_545
Cu3 Zn1 2.569411 1_555
Cu3 Zr4 3.068695 1_555
Cu3 Zr10 3.068695 1_555
Cu3 Zr11 3.068696 1_655
Cu3 Zr5 3.068696 1_555
Cu3 Zr6 3.068696 1_556
Cu3 Zr0 3.068696 1_555
N0 Zr5 2.259820 1_555
N0 Zr11 2.259820 1_555
N0 Zr9 2.259820 1_555
N0 Zr3 2.259820 1_545
N0 Zr4 2.259821 1_455
N0 Zr10 2.259821 1_555
N1 Zr7 2.259820 1_555
N1 Zr1 2.259820 1_545
N1 Zr6 2.259821 1_555
N1 Zr0 2.259821 1_455
N1 Zr11 2.259821 1_555
N1 Zr5 2.259821 1_554
N2 Zr0 2.259820 1_555
N2 Zr6 2.259820 1_555
N2 Zr8 2.259821 1_555
N2 Zr2 2.259821 1_545
N2 Zr10 2.259821 1_555
N2 Zr4 2.259821 1_554
N3 Zr1 2.259820 1_555
N3 Zr7 2.259820 1_555
N3 Zr9 2.259821 1_555
N3 Zr3 2.259821 1_554
N3 Zr2 2.259821 1_455
N3 Zr8 2.259821 1_555
