# generated using pymatgen
data_Pb3Au
_symmetry_space_group_name_H-M   'P 1'
_cell_length_a   6.08392049
_cell_length_b   9.02435237
_cell_length_c   9.02435163
_cell_angle_alpha   83.59842786
_cell_angle_beta   70.65997533
_cell_angle_gamma   70.65996322
_symmetry_Int_Tables_number   1
_chemical_formula_structural   Pb3Au
_chemical_formula_sum   'Pb12 Au4'
_cell_volume   441.12608745
_cell_formula_units_Z   4
loop_
 _symmetry_equiv_pos_site_id
 _symmetry_equiv_pos_as_xyz
  1  'x, y, z'
loop_
 _atom_site_type_symbol
 _atom_site_label
 _atom_site_symmetry_multiplicity
 _atom_site_fract_x
 _atom_site_fract_y
 _atom_site_fract_z
 _atom_site_occupancy
  Pb  Pb0  1  0.35673131  0.64182437  0.64278383  1
  Pb  Pb1  1  0.00000000  0.64164763  0.35835237  1
  Pb  Pb2  1  -0.00000000  0.35739587  0.64260413  1
  Pb  Pb3  1  0.64326869  0.35721617  0.35817563  1
  Pb  Pb4  1  0.85135939  0.00034083  0.80648051  1
  Pb  Pb5  1  0.34234242  0.80842419  0.99960140  1
  Pb  Pb6  1  0.14864061  0.19351949  0.99965917  1
  Pb  Pb7  1  0.65765758  0.00039860  0.19157581  1
  Pb  Pb8  1  0.48189015  0.99949550  0.59203243  1
  Pb  Pb9  1  0.92478810  0.59509732  0.00139763  1
  Pb  Pb10  1  0.51810985  0.40796757  0.00050550  1
  Pb  Pb11  1  0.07521190  0.99860237  0.40490268  1
  Au  Au0  1  0.79512683  0.70392886  0.70450180  1
  Au  Au1  1  0.50000000  0.70378345  0.29621655  1
  Au  Au2  1  0.50000000  0.29486059  0.70513941  1
  Au  Au3  1  0.20487317  0.29549820  0.29607114  1
loop_
_geom_bond_atom_site_label_1
_geom_bond_atom_site_label_2
_geom_bond_distance
_geom_bond_site_symmetry_2
Au0 Pb1 2.996007 1_655
Au0 Pb2 2.998639 1_655
Au0 Pb9 3.010887 1_556
Au0 Pb8 3.014468 1_555
Au0 Pb4 3.079419 1_565
Au0 Pb5 3.090324 1_555
Au0 Pb0 3.127571 1_555
Au0 Pb0 3.136773 1_655
Au1 Pb0 2.996859 1_555
Au1 Pb3 2.996859 1_555
Au1 Pb11 3.011363 1_555
Au1 Pb9 3.011363 1_555
Au1 Pb5 3.084439 1_554
Au1 Pb7 3.084440 1_565
Au1 Pb1 3.132452 1_655
Au1 Pb1 3.132452 1_555
Au2 Pb3 3.000771 1_555
Au2 Pb0 3.000771 1_555
Au2 Pb8 3.005741 1_545
Au2 Pb10 3.005750 1_556
Au2 Pb4 3.075669 1_555
Au2 Pb6 3.075670 1_555
Au2 Pb2 3.133602 1_555
Au2 Pb2 3.133602 1_655
Au3 Pb1 2.996007 1_555
Au3 Pb2 2.998639 1_555
Au3 Pb11 3.010887 1_545
Au3 Pb10 3.014462 1_555
Au3 Pb6 3.079419 1_554
Au3 Pb7 3.090323 1_555
Au3 Pb3 3.127571 1_555
Au3 Pb3 3.136773 1_455
