# generated using pymatgen
data_BaAs2
_symmetry_space_group_name_H-M   'P 1'
_cell_length_a   6.65310157
_cell_length_b   6.65636290
_cell_length_c   12.74845931
_cell_angle_alpha   90.00000000
_cell_angle_beta   90.00000000
_cell_angle_gamma   104.23244868
_symmetry_Int_Tables_number   1
_chemical_formula_structural   BaAs2
_chemical_formula_sum   'Ba6 As12'
_cell_volume   547.24256248
_cell_formula_units_Z   6
loop_
 _symmetry_equiv_pos_site_id
 _symmetry_equiv_pos_as_xyz
  1  'x, y, z'
loop_
 _atom_site_type_symbol
 _atom_site_label
 _atom_site_symmetry_multiplicity
 _atom_site_fract_x
 _atom_site_fract_y
 _atom_site_fract_z
 _atom_site_occupancy
  Ba  Ba0  1  0.35368110  0.17960096  0.77300194  1
  Ba  Ba1  1  0.85368110  0.67960096  0.22699806  1
  Ba  Ba2  1  0.99332197  0.54818900  0.91563206  1
  Ba  Ba3  1  0.49332197  0.04818900  0.08436794  1
  Ba  Ba4  1  0.64273604  0.75005079  0.57714917  1
  Ba  Ba5  1  0.14273604  0.25005079  0.42285083  1
  As  As0  1  0.16725876  0.84109667  0.57752654  1
  As  As1  1  0.66725876  0.34109667  0.42247346  1
  As  As2  1  0.25374573  0.78891698  0.39293386  1
  As  As3  1  0.75374573  0.28891698  0.60706614  1
  As  As4  1  0.10765073  0.49612498  0.65388741  1
  As  As5  1  0.60765073  0.99612498  0.34611259  1
  As  As6  1  0.00881954  0.01030872  0.01301690  1
  As  As7  1  0.50881954  0.51030872  0.98698310  1
  As  As8  1  0.32985720  0.53545298  0.15075369  1
  As  As9  1  0.82985720  0.03545298  0.84924631  1
  As  As10  1  0.99622993  0.24965592  0.15469166  1
  As  As11  1  0.49622993  0.74965592  0.84530834  1
loop_
_geom_bond_atom_site_label_1
_geom_bond_atom_site_label_2
_geom_bond_distance
_geom_bond_site_symmetry_2
As0 As4 2.435152 1_555
As0 As2 2.467365 1_555
As0 Ba4 3.364085 1_555
As0 Ba0 3.383965 1_565
As0 Ba4 3.391963 1_455
As0 Ba5 3.397556 1_565
As1 As5 2.435152 1_545
As1 As3 2.467365 1_555
As1 Ba5 3.364085 1_655
As1 Ba1 3.383965 1_555
As1 Ba5 3.391963 1_555
As1 Ba4 3.397556 1_555
As2 As5 2.491134 1_555
As2 Ba1 3.337163 1_455
As2 Ba5 3.350718 1_565
As2 Ba5 3.500585 1_555
As2 Ba4 3.550932 1_555
As3 As4 2.491134 1_655
As3 Ba0 3.337163 1_555
As3 Ba4 3.350718 1_555
As3 Ba4 3.500585 1_545
As3 Ba5 3.550932 1_655
As4 Ba0 3.334673 1_555
As4 Ba5 3.405958 1_555
As4 Ba2 3.458728 1_455
As4 Ba4 3.678129 1_555
As5 Ba1 3.334673 1_555
As5 Ba4 3.405958 1_555
As5 Ba3 3.458728 1_565
As5 Ba5 3.678129 1_665
As6 As9 2.429540 1_454
As6 Ba2 3.295151 1_444
As6 Ba3 3.298775 1_555
As6 Ba1 3.497927 1_445
As6 Ba3 3.616455 1_455
As6 Ba2 3.814738 1_454
As6 Ba0 3.824302 1_554
As7 As8 2.429540 1_556
As7 Ba3 3.295151 1_556
As7 Ba2 3.298775 1_555
As7 Ba0 3.497927 1_555
As7 Ba2 3.616455 1_455
As7 Ba3 3.814738 1_566
As7 Ba1 3.824302 1_556
As8 Ba3 3.423765 1_565
As8 Ba1 3.516643 1_555
As8 Ba1 3.660141 1_455
As8 Ba2 3.754769 1_454
As8 Ba3 3.762066 1_555
As8 Ba5 4.003581 1_555
As9 Ba2 3.423765 1_555
As9 Ba0 3.516643 1_655
As9 Ba0 3.660141 1_555
As9 Ba3 3.754769 1_556
As9 Ba2 3.762066 1_545
As9 Ba4 4.003581 1_545
As10 As6 2.423424 1_655
As10 As8 2.544031 1_655
As10 Ba1 3.357685 1_555
As10 Ba3 3.404535 1_555
As10 Ba5 3.554682 1_655
As10 Ba2 3.640898 1_554
As10 Ba1 3.791809 1_545
As11 As7 2.423424 1_555
As11 As9 2.544031 1_565
As11 Ba0 3.357685 1_565
As11 Ba2 3.404535 1_455
As11 Ba4 3.554682 1_555
As11 Ba3 3.640898 1_566
As11 Ba0 3.791809 1_555
