# generated using pymatgen
data_Li5NCl2
_symmetry_space_group_name_H-M   'P 1'
_cell_length_a   3.65927300
_cell_length_b   6.75900900
_cell_length_c   9.24906679
_cell_angle_alpha   85.10913235
_cell_angle_beta   90.00000000
_cell_angle_gamma   90.00000000
_symmetry_Int_Tables_number   1
_chemical_formula_structural   Li5NCl2
_chemical_formula_sum   'Li10 N2 Cl4'
_cell_volume   227.92478587
_cell_formula_units_Z   2
loop_
 _symmetry_equiv_pos_site_id
 _symmetry_equiv_pos_as_xyz
  1  'x, y, z'
loop_
 _atom_site_type_symbol
 _atom_site_label
 _atom_site_symmetry_multiplicity
 _atom_site_fract_x
 _atom_site_fract_y
 _atom_site_fract_z
 _atom_site_occupancy
  Li  Li0  1  0.50000000  0.46913300  0.72998700  1
  Li  Li1  1  0.00000000  0.03914900  0.74678600  1
  Li  Li2  1  0.00000000  0.96085100  0.25321400  1
  Li  Li3  1  0.00000000  0.37207900  0.43593400  1
  Li  Li4  1  0.00000000  0.67521400  0.10737000  1
  Li  Li5  1  0.00000000  0.32478600  0.89263000  1
  Li  Li6  1  0.50000000  0.53086700  0.27001300  1
  Li  Li7  1  0.50000000  0.78615500  0.40178200  1
  Li  Li8  1  0.00000000  0.62792100  0.56406600  1
  Li  Li9  1  0.50000000  0.21384500  0.59821800  1
  N  N0  1  0.00000000  0.33571600  0.66654200  1
  N  N1  1  0.00000000  0.66428400  0.33345800  1
  Cl  Cl0  1  0.50000000  0.83416000  0.66097400  1
  Cl  Cl1  1  0.00000000  0.00000000  0.00000000  1
  Cl  Cl2  1  0.50000000  0.50000000  0.00000000  1
  Cl  Cl3  1  0.50000000  0.16584000  0.33902600  1
loop_
_geom_bond_atom_site_label_1
_geom_bond_atom_site_label_2
_geom_bond_distance
_geom_bond_site_symmetry_2
Li0 N0 2.143671 1_555
Li0 N0 2.143671 1_655
Li1 N0 2.077299 1_555
Li2 N1 2.077299 1_555
Li3 N1 2.116562 1_555
Li3 N0 2.126104 1_555
Li4 N1 2.086103 1_555
Li5 N0 2.086103 1_555
Li6 N1 2.143671 1_655
Li6 N1 2.143671 1_555
Li7 N1 2.124664 1_655
Li7 N1 2.124664 1_555
Li8 N0 2.116562 1_555
Li8 N1 2.126104 1_555
Li9 N0 2.124664 1_555
Li9 N0 2.124664 1_655
Cl0 Li7 2.446402 1_555
Cl0 Li1 2.466715 1_565
Cl0 Li1 2.466715 1_665
Cl0 Li0 2.495211 1_555
Cl0 Li8 2.511402 1_655
Cl0 Li8 2.511402 1_555
Cl0 Li9 2.582397 1_565
Cl1 Li5 2.330988 1_554
Cl1 Li4 2.330988 1_545
Cl1 Li2 2.334369 1_545
Cl1 Li1 2.334369 1_554
Cl2 Li4 2.436556 1_555
Cl2 Li4 2.436556 1_655
Cl2 Li5 2.436556 1_654
Cl2 Li5 2.436556 1_554
Cl2 Li6 2.523731 1_555
Cl2 Li0 2.523731 1_554
Cl3 Li9 2.446402 1_555
Cl3 Li2 2.466715 1_545
Cl3 Li2 2.466715 1_645
Cl3 Li6 2.495211 1_555
Cl3 Li3 2.511402 1_555
Cl3 Li3 2.511402 1_655
Cl3 Li7 2.582397 1_545
