# generated using pymatgen
data_KSrPd4
_symmetry_space_group_name_H-M   'P 1'
_cell_length_a   5.54549420
_cell_length_b   5.54549475
_cell_length_c   5.54549420
_cell_angle_alpha   119.99999675
_cell_angle_beta   90.00000000
_cell_angle_gamma   119.99999675
_symmetry_Int_Tables_number   1
_chemical_formula_structural   KSrPd4
_chemical_formula_sum   'K1 Sr1 Pd4'
_cell_volume   120.58848915
_cell_formula_units_Z   1
loop_
 _symmetry_equiv_pos_site_id
 _symmetry_equiv_pos_as_xyz
  1  'x, y, z'
loop_
 _atom_site_type_symbol
 _atom_site_label
 _atom_site_symmetry_multiplicity
 _atom_site_fract_x
 _atom_site_fract_y
 _atom_site_fract_z
 _atom_site_occupancy
  K  K0  1  0.00000000  0.00000000  0.00000000  1
  Sr  Sr0  1  0.75000100  0.50000100  0.25000000  1
  Pd  Pd0  1  0.37512640  0.75025380  0.12537921  1
  Pd  Pd1  1  0.87462079  0.24974720  0.62487360  1
  Pd  Pd2  1  0.37512640  0.24974720  0.62487460  1
  Pd  Pd3  1  0.37512640  0.75025380  0.62487460  1
loop_
_geom_bond_atom_site_label_1
_geom_bond_atom_site_label_2
_geom_bond_distance
_geom_bond_site_symmetry_2
K0 Pd0 3.251629 1_545
K0 Pd3 3.251629 1_544
K0 Pd2 3.251629 1_554
K0 Pd1 3.251634 1_455
K0 Pd1 3.251634 1_454
K0 Pd0 3.251634 1_445
K0 Pd3 3.251634 1_444
K0 Pd1 3.251634 1_444
K0 Pd2 3.251634 1_444
K0 Pd2 3.251638 1_555
K0 Pd3 3.251639 1_555
K0 Pd0 3.251639 1_555
K0 Sr0 3.395903 1_445
K0 Sr0 3.395908 1_444
K0 Sr0 3.395908 1_455
K0 Sr0 3.395913 1_555
Pd0 Pd1 2.769944 1_565
Pd0 Pd2 2.769944 1_565
Pd0 Pd3 2.769949 1_555
Pd0 Pd3 2.775545 1_554
Pd0 Pd1 2.775551 1_454
Pd0 Pd2 2.775551 1_554
Pd0 Sr0 3.251031 1_455
Pd0 Sr0 3.251036 1_565
Pd0 Sr0 3.251041 1_555
Pd1 Pd2 2.769943 1_555
Pd1 Pd3 2.769944 1_545
Pd1 Pd2 2.775551 1_655
Pd1 Pd3 2.775551 1_655
Pd1 Sr0 3.251033 1_556
Pd1 Sr0 3.251034 1_545
Pd1 Sr0 3.251038 1_555
Pd2 Pd3 2.769938 1_545
Pd2 Pd3 2.775557 1_555
Pd2 Sr0 3.251031 1_556
Pd2 Sr0 3.251032 1_445
Pd2 Sr0 3.251045 1_555
Pd3 Sr0 3.251033 1_455
Pd3 Sr0 3.251034 1_566
Pd3 Sr0 3.251043 1_555
