# generated using pymatgen
data_Li8Zn4Si3Ge
_symmetry_space_group_name_H-M   'P 1'
_cell_length_a   4.19507080
_cell_length_b   4.19507097
_cell_length_c   16.45314094
_cell_angle_alpha   90.00000000
_cell_angle_beta   90.00000000
_cell_angle_gamma   119.99999870
_symmetry_Int_Tables_number   1
_chemical_formula_structural   Li8Zn4Si3Ge
_chemical_formula_sum   'Li8 Zn4 Si3 Ge1'
_cell_volume   250.75988540
_cell_formula_units_Z   1
loop_
 _symmetry_equiv_pos_site_id
 _symmetry_equiv_pos_as_xyz
  1  'x, y, z'
loop_
 _atom_site_type_symbol
 _atom_site_label
 _atom_site_symmetry_multiplicity
 _atom_site_fract_x
 _atom_site_fract_y
 _atom_site_fract_z
 _atom_site_occupancy
  Li  Li0  1  0.66666700  0.33333300  0.79121505  1
  Li  Li1  1  0.33333300  0.66666700  0.20871200  1
  Li  Li2  1  0.66666700  0.33333300  0.45860122  1
  Li  Li3  1  0.66666700  0.33333300  0.29152947  1
  Li  Li4  1  0.33333300  0.66666700  0.04223802  1
  Li  Li5  1  0.66666700  0.33333300  0.95873440  1
  Li  Li6  1  0.33333300  0.66666700  0.70772258  1
  Li  Li7  1  0.33333300  0.66666700  0.54130293  1
  Zn  Zn0  1  0.00000000  0.00000000  0.87368348  1
  Zn  Zn1  1  0.00000000  0.00000000  0.37615248  1
  Zn  Zn2  1  0.00000000  0.00000000  0.62349509  1
  Zn  Zn3  1  0.00000000  0.00000000  0.12643972  1
  Si  Si0  1  0.66666700  0.33333300  0.62486003  1
  Si  Si1  1  0.33333300  0.66666700  0.37513991  1
  Si  Si2  1  0.66666700  0.33333300  0.12515615  1
  Ge  Ge0  1  0.33333300  0.66666700  0.87501648  1
loop_
_geom_bond_atom_site_label_1
_geom_bond_atom_site_label_2
_geom_bond_distance
_geom_bond_site_symmetry_2
Li0 Si0 2.737063 1_555
Li0 Li5 2.756219 1_555
Li0 Zn0 2.776198 1_655
Li0 Zn0 2.776201 1_555
Li0 Zn0 2.776202 1_665
Li0 Li6 2.784472 1_655
Li0 Li6 2.784472 1_545
Li0 Li6 2.784478 1_555
Li1 Si1 2.738262 1_555
Li1 Li4 2.739020 1_555
Li1 Zn3 2.774622 1_565
Li1 Zn3 2.774625 1_665
Li1 Zn3 2.774626 1_555
Li1 Li3 2.779010 1_455
Li1 Li3 2.779010 1_565
Li1 Li3 2.779016 1_555
Li1 Si2 2.784986 1_455
Li1 Si2 2.784986 1_565
Li1 Si2 2.784993 1_555
Li2 Si0 2.735480 1_555
Li2 Li3 2.748855 1_555
Li2 Zn1 2.776040 1_655
Li2 Zn1 2.776043 1_555
Li2 Zn1 2.776043 1_665
Li2 Li7 2.778076 1_655
Li2 Li7 2.778076 1_545
Li2 Li7 2.778083 1_555
Li2 Si1 2.784219 1_655
Li2 Si1 2.784219 1_545
Li2 Si1 2.784225 1_555
Li3 Si2 2.737364 1_555
Li3 Si1 2.785430 1_655
Li3 Si1 2.785430 1_545
Li3 Si1 2.785436 1_555
Li3 Zn1 2.793695 1_655
Li3 Zn1 2.793699 1_555
Li3 Zn1 2.793699 1_665
Li4 Si2 2.779822 1_455
Li4 Si2 2.779822 1_565
Li4 Si2 2.779828 1_555
Li4 Li5 2.784562 1_454
Li4 Li5 2.784562 1_564
Li4 Li5 2.784569 1_554
Li4 Zn3 2.790247 1_565
Li4 Zn3 2.790250 1_665
Li4 Zn3 2.790250 1_555
Li5 Si2 2.738160 1_556
Li5 Zn0 2.797211 1_655
Li5 Zn0 2.797214 1_555
Li5 Zn0 2.797214 1_665
Li6 Li7 2.738126 1_555
Li6 Si0 2.779373 1_455
Li6 Si0 2.779373 1_565
Li6 Si0 2.779380 1_555
Li6 Zn2 2.790458 1_565
Li6 Zn2 2.790461 1_665
Li6 Zn2 2.790461 1_555
Li7 Si1 2.733904 1_555
Li7 Zn2 2.773979 1_565
Li7 Zn2 2.773983 1_665
Li7 Zn2 2.773983 1_555
Li7 Si0 2.784996 1_455
Li7 Si0 2.784997 1_565
Li7 Si0 2.785003 1_555
Si0 Zn2 2.422127 1_655
Si0 Zn2 2.422131 1_555
Si0 Zn2 2.422131 1_665
Si1 Zn1 2.422080 1_565
Si1 Zn1 2.422084 1_665
Si1 Zn1 2.422084 1_555
Si2 Zn3 2.422115 1_655
Si2 Zn3 2.422119 1_555
Si2 Zn3 2.422119 1_665
Ge0 Zn0 2.422122 1_565
Ge0 Zn0 2.422126 1_665
Ge0 Zn0 2.422126 1_555
Ge0 Li4 2.751320 1_556
Ge0 Li6 2.752510 1_555
Ge0 Li5 2.786304 1_455
Ge0 Li5 2.786304 1_565
Ge0 Li5 2.786310 1_555
Ge0 Li0 2.786983 1_455
Ge0 Li0 2.786983 1_565
Ge0 Li0 2.786989 1_555
