# generated using pymatgen
data_Ca(HoS2)2
_symmetry_space_group_name_H-M   'P 1'
_cell_length_a   7.23292494
_cell_length_b   7.23292494
_cell_length_c   7.23292494
_cell_angle_alpha   109.49918211
_cell_angle_beta   109.49918211
_cell_angle_gamma   109.41531214
_symmetry_Int_Tables_number   1
_chemical_formula_structural   Ca(HoS2)2
_chemical_formula_sum   'Ca2 Ho4 S8'
_cell_volume   291.28604213
_cell_formula_units_Z   2
loop_
 _symmetry_equiv_pos_site_id
 _symmetry_equiv_pos_as_xyz
  1  'x, y, z'
loop_
 _atom_site_type_symbol
 _atom_site_label
 _atom_site_symmetry_multiplicity
 _atom_site_fract_x
 _atom_site_fract_y
 _atom_site_fract_z
 _atom_site_occupancy
  Ca  Ca0  1  0.00000000  0.00000000  0.00000000  1
  Ca  Ca1  1  0.75000000  0.25000000  0.50000000  1
  Ho  Ho0  1  0.50196700  0.12500000  0.87696700  1
  Ho  Ho1  1  0.37500000  0.49803300  0.62303300  1
  Ho  Ho2  1  0.24803300  0.62500000  0.12303300  1
  Ho  Ho3  1  0.87500000  0.75196700  0.37696700  1
  S  S0  1  0.61756000  0.86745400  0.10536200  1
  S  S1  1  0.61745400  0.86756000  0.60536200  1
  S  S2  1  0.48780200  0.38244000  0.24989400  1
  S  S3  1  0.13254600  0.23790800  0.75010600  1
  S  S4  1  0.26219800  0.01209200  0.39463800  1
  S  S5  1  0.13244000  0.73780200  0.74989400  1
  S  S6  1  0.98790800  0.38254600  0.25010600  1
  S  S7  1  0.76209200  0.51219800  0.89463800  1
loop_
_geom_bond_atom_site_label_1
_geom_bond_atom_site_label_2
_geom_bond_distance
_geom_bond_site_symmetry_2
Ca0 S6 2.803747 1_455
Ca0 S4 2.803747 1_555
Ca0 S5 2.803747 1_544
Ca0 S1 2.803747 1_444
Ca0 S2 3.046878 1_555
Ca0 S0 3.046878 1_445
Ca0 S3 3.046878 1_554
Ca0 S7 3.046878 1_444
Ca1 S7 2.803747 1_555
Ca1 S0 2.803747 1_545
Ca1 S3 2.803747 1_655
Ca1 S2 2.803747 1_555
Ca1 S1 3.046878 1_545
Ca1 S5 3.046878 1_655
Ca1 S6 3.046878 1_555
Ca1 S4 3.046878 1_555
Ho0 S7 2.738041 1_555
Ho0 S5 2.738041 1_545
Ho0 S2 2.777000 1_556
Ho0 S1 2.777000 1_545
Ho0 S3 2.993765 1_555
Ho0 S4 2.993765 1_555
Ho0 S6 3.010950 1_556
Ho0 S0 3.010950 1_546
Ho1 S3 2.738041 1_555
Ho1 S1 2.738041 1_555
Ho1 S6 2.777000 1_455
Ho1 S7 2.777000 1_555
Ho1 S5 2.993765 1_555
Ho1 S0 2.993765 1_556
Ho1 S4 3.010950 1_555
Ho1 S2 3.010950 1_555
Ho2 S0 2.738041 1_555
Ho2 S6 2.738041 1_455
Ho2 S4 2.777000 1_565
Ho2 S3 2.777000 1_554
Ho2 S2 2.993765 1_555
Ho2 S1 2.993765 1_555
Ho2 S7 3.010950 1_454
Ho2 S5 3.010950 1_554
Ho3 S2 2.738041 1_555
Ho3 S4 2.738041 1_665
Ho3 S5 2.777000 1_655
Ho3 S0 2.777000 1_555
Ho3 S6 2.993765 1_555
Ho3 S7 2.993765 1_554
Ho3 S3 3.010950 1_665
Ho3 S1 3.010950 1_555
