# generated using pymatgen
data_Cs2LiAg3F12
_symmetry_space_group_name_H-M   'P 1'
_cell_length_a   7.19197063
_cell_length_b   7.19197145
_cell_length_c   7.19197016
_cell_angle_alpha   65.72095467
_cell_angle_beta   114.27904608
_cell_angle_gamma   114.27904756
_symmetry_Int_Tables_number   1
_chemical_formula_structural   Cs2LiAg3F12
_chemical_formula_sum   'Cs2 Li1 Ag3 F12'
_cell_volume   295.69424117
_cell_formula_units_Z   1
loop_
 _symmetry_equiv_pos_site_id
 _symmetry_equiv_pos_as_xyz
  1  'x, y, z'
loop_
 _atom_site_type_symbol
 _atom_site_label
 _atom_site_symmetry_multiplicity
 _atom_site_fract_x
 _atom_site_fract_y
 _atom_site_fract_z
 _atom_site_occupancy
  Cs  Cs0  1  0.86793978  0.13206122  0.13205922  1
  Cs  Cs1  1  0.13206022  0.86794078  0.86793878  1
  Li  Li0  1  0.50000100  0.50000100  0.49999900  1
  Ag  Ag0  1  0.49999900  0.50000100  0.00000000  1
  Ag  Ag1  1  0.00000000  0.50000100  0.49999900  1
  Ag  Ag2  1  0.50000000  0.00000000  0.50000000  1
  F  F0  1  0.45269865  0.19639146  0.09306038  1
  F  F1  1  0.36968136  0.46306934  0.20551875  1
  F  F2  1  0.90694062  0.54730235  0.19639246  1
  F  F3  1  0.46306934  0.79448125  0.36968236  1
  F  F4  1  0.19639346  0.90694162  0.45269765  1
  F  F5  1  0.20551875  0.36968036  0.53693166  1
  F  F6  1  0.79448125  0.63031864  0.46306934  1
  F  F7  1  0.80360854  0.09306038  0.54730135  1
  F  F8  1  0.53692966  0.20551875  0.63031764  1
  F  F9  1  0.09305838  0.45269765  0.80360754  1
  F  F10  1  0.63031764  0.53692966  0.79448125  1
  F  F11  1  0.54730235  0.80360754  0.90694162  1
loop_
_geom_bond_atom_site_label_1
_geom_bond_atom_site_label_2
_geom_bond_distance
_geom_bond_site_symmetry_2
Cs0 F9 3.018980 1_654
Cs0 F11 3.018987 1_544
Cs0 F4 3.018997 1_645
Cs0 F0 3.090636 1_555
Cs0 F7 3.090641 1_555
Cs0 F2 3.090642 1_555
Cs0 F1 3.371914 1_655
Cs0 F8 3.371918 1_554
Cs0 F6 3.371924 1_545
Cs0 F10 3.487141 1_554
Cs0 F5 3.487152 1_655
Cs0 F3 3.487158 1_545
Cs1 F7 3.018985 1_465
Cs1 F0 3.018990 1_566
Cs1 F2 3.018997 1_456
Cs1 F4 3.090641 1_555
Cs1 F11 3.090643 1_555
Cs1 F9 3.090646 1_555
Cs1 F5 3.371901 1_565
Cs1 F10 3.371926 1_455
Cs1 F3 3.371926 1_556
Cs1 F8 3.487142 1_565
Cs1 F6 3.487147 1_455
Cs1 F1 3.487156 1_556
Ag0 F11 1.925108 1_554
Ag0 F0 1.925130 1_555
Ag0 F1 1.935294 1_555
Ag0 F10 1.935307 1_554
Ag1 F2 1.925109 1_455
Ag1 F9 1.925121 1_555
Ag1 F6 1.935300 1_455
Ag1 F5 1.935308 1_555
Ag2 F4 1.925109 1_545
Ag2 F7 1.925122 1_555
Ag2 F3 1.935297 1_545
Ag2 F8 1.935300 1_555
F1 Li0 2.014934 1_555
F3 Li0 2.014935 1_555
F5 Li0 2.014950 1_555
F6 Li0 2.014929 1_555
F8 Li0 2.014940 1_555
F10 Li0 2.014940 1_555
