# generated using pymatgen
data_Ta2NiF12
_symmetry_space_group_name_H-M   'P 1'
_cell_length_a   5.00725377
_cell_length_b   5.43054302
_cell_length_c   8.78957214
_cell_angle_alpha   104.93252309
_cell_angle_beta   90.58903414
_cell_angle_gamma   118.31193667
_symmetry_Int_Tables_number   1
_chemical_formula_structural   Ta2NiF12
_chemical_formula_sum   'Ta2 Ni1 F12'
_cell_volume   200.82963957
_cell_formula_units_Z   1
loop_
 _symmetry_equiv_pos_site_id
 _symmetry_equiv_pos_as_xyz
  1  'x, y, z'
loop_
 _atom_site_type_symbol
 _atom_site_label
 _atom_site_symmetry_multiplicity
 _atom_site_fract_x
 _atom_site_fract_y
 _atom_site_fract_z
 _atom_site_occupancy
  Ta  Ta0  1  0.78068274  0.51136301  0.26606482  1
  Ta  Ta1  1  0.21931726  0.48863699  0.73393518  1
  Ni  Ni0  1  0.00000000  0.00000000  0.00000000  1
  F  F0  1  0.79646103  0.25008611  0.70867765  1
  F  F1  1  0.20353897  0.74991389  0.29132235  1
  F  F2  1  0.18936953  0.74829558  0.93235516  1
  F  F3  1  0.70673858  0.73047534  0.44220653  1
  F  F4  1  0.29326142  0.26952466  0.55779347  1
  F  F5  1  0.80099273  0.26009944  0.36895591  1
  F  F6  1  0.19900727  0.73990056  0.63104409  1
  F  F7  1  0.33622886  0.25810550  0.18677250  1
  F  F8  1  0.66377114  0.74189450  0.81322750  1
  F  F9  1  0.75542501  0.73866871  0.12787610  1
  F  F10  1  0.24457499  0.26133129  0.87212390  1
  F  F11  1  0.81063047  0.25170442  0.06764484  1
loop_
_geom_bond_atom_site_label_1
_geom_bond_atom_site_label_2
_geom_bond_distance
_geom_bond_site_symmetry_2
F0 Ta1 1.857684 1_655
F1 Ta0 1.857684 1_455
F2 Ni0 1.985750 1_566
F2 Ta1 1.997752 1_555
F3 Ta0 1.852075 1_555
F4 Ta1 1.852075 1_555
F5 Ta0 1.858972 1_555
F6 Ta1 1.858972 1_555
F7 Ta0 1.975073 1_555
F7 Ni0 2.003257 1_555
F8 Ta1 1.975073 1_555
F8 Ni0 2.003257 1_666
F9 Ta0 1.983089 1_555
F9 Ni0 1.994729 1_665
F10 Ta1 1.983089 1_555
F10 Ni0 1.994729 1_556
F11 Ni0 1.985750 1_655
F11 Ta0 1.997752 1_555
