# generated using pymatgen
data_ZrAlNi2
_symmetry_space_group_name_H-M   'P 1'
_cell_length_a   4.29915626
_cell_length_b   4.29915611
_cell_length_c   4.29915633
_cell_angle_alpha   59.99999056
_cell_angle_beta   59.99999173
_cell_angle_gamma   60.00000225
_symmetry_Int_Tables_number   1
_chemical_formula_structural   ZrAlNi2
_chemical_formula_sum   'Zr1 Al1 Ni2'
_cell_volume   56.18684365
_cell_formula_units_Z   1
loop_
 _symmetry_equiv_pos_site_id
 _symmetry_equiv_pos_as_xyz
  1  'x, y, z'
loop_
 _atom_site_type_symbol
 _atom_site_label
 _atom_site_symmetry_multiplicity
 _atom_site_fract_x
 _atom_site_fract_y
 _atom_site_fract_z
 _atom_site_occupancy
  Zr  Zr0  1  0.50000000  0.50000000  0.50000000  1
  Al  Al0  1  -0.00000000  0.00000000  -0.00000000  1
  Ni  Ni0  1  0.25000000  0.25000000  0.25000000  1
  Ni  Ni1  1  0.75000000  0.75000000  0.75000000  1
loop_
_geom_bond_atom_site_label_1
_geom_bond_atom_site_label_2
_geom_bond_distance
_geom_bond_site_symmetry_2
Al0 Ni1 2.632684 1_445
Al0 Ni0 2.632684 1_554
Al0 Ni1 2.632685 1_454
Al0 Ni0 2.632685 1_545
Al0 Ni1 2.632685 1_544
Al0 Ni0 2.632685 1_455
Al0 Ni0 2.632685 1_555
Al0 Ni1 2.632685 1_444
Ni0 Zr0 2.632684 1_554
Ni0 Zr0 2.632685 1_545
Ni0 Zr0 2.632685 1_455
Ni0 Zr0 2.632685 1_555
Ni1 Zr0 2.632684 1_556
Ni1 Zr0 2.632685 1_565
Ni1 Zr0 2.632685 1_655
Ni1 Zr0 2.632685 1_555
