# generated using pymatgen
data_Ti6Si6Tc5Mo
_symmetry_space_group_name_H-M   'P 1'
_cell_length_a   6.78108100
_cell_length_b   6.47776373
_cell_length_c   7.51444250
_cell_angle_alpha   115.53263075
_cell_angle_beta   116.70060019
_cell_angle_gamma   90.00056896
_symmetry_Int_Tables_number   1
_chemical_formula_structural   Ti6Si6Tc5Mo
_chemical_formula_sum   'Ti6 Si6 Tc5 Mo1'
_cell_volume   258.29093510
_cell_formula_units_Z   1
loop_
 _symmetry_equiv_pos_site_id
 _symmetry_equiv_pos_as_xyz
  1  'x, y, z'
loop_
 _atom_site_type_symbol
 _atom_site_label
 _atom_site_symmetry_multiplicity
 _atom_site_fract_x
 _atom_site_fract_y
 _atom_site_fract_z
 _atom_site_occupancy
  Ti  Ti0  1  0.24867545  0.45169432  0.40241448  1
  Ti  Ti1  1  0.84385206  0.54825399  0.59690610  1
  Ti  Ti2  1  0.64851588  0.75133240  0.00180931  1
  Ti  Ti3  1  0.64903354  0.25069972  0.00226029  1
  Ti  Ti4  1  0.84419223  0.04895601  0.59736319  1
  Ti  Ti5  1  0.24883532  0.95050209  0.40206963  1
  Si  Si0  1  0.24385976  0.25024166  0.99728245  1
  Si  Si1  1  0.24351366  0.74684266  0.99694241  1
  Si  Si2  1  0.58045823  0.83349686  0.66671137  1
  Si  Si3  1  0.91715614  0.16680160  0.33411403  1
  Si  Si4  1  0.91267443  0.66706649  0.33350459  1
  Si  Si5  1  0.58072433  0.33475334  0.66973454  1
  Tc  Tc0  1  0.98441634  0.99971028  0.99930399  1
  Tc  Tc1  1  0.98445600  0.50028738  0.00072677  1
  Tc  Tc2  1  0.50691906  0.63022525  0.26029040  1
  Tc  Tc3  1  0.24724352  0.36901352  0.73811548  1
  Tc  Tc4  1  0.24628126  0.86883180  0.73756042  1
  Mo  Mo0  1  0.50959079  0.13128864  0.26288854  1
loop_
_geom_bond_atom_site_label_1
_geom_bond_atom_site_label_2
_geom_bond_distance
_geom_bond_site_symmetry_2
Si0 Tc3 2.391029 1_555
Si0 Tc1 2.392334 1_456
Si0 Tc0 2.402988 1_445
Si0 Tc2 2.405170 1_556
Si0 Tc4 2.405324 1_545
Si0 Ti4 2.716460 1_455
Si0 Ti3 2.730897 1_556
Si0 Ti0 2.730926 1_556
Si1 Tc3 2.390458 1_555
Si1 Tc1 2.391982 1_456
Si1 Tc0 2.402778 1_455
Si1 Tc4 2.405088 1_555
Si1 Tc2 2.406122 1_556
Si1 Ti1 2.716840 1_455
Si1 Ti5 2.729217 1_556
Si1 Ti2 2.730102 1_556
Si2 Tc0 2.537132 1_555
Si2 Tc4 2.539703 1_555
Si2 Tc2 2.544467 1_555
Si2 Ti5 2.620431 1_555
Si2 Ti0 2.621664 1_555
Si2 Ti4 2.623422 1_565
Si2 Ti1 2.624100 1_555
Si2 Ti2 2.635902 1_556
Si2 Ti3 2.636230 1_566
Si3 Tc0 2.528455 1_544
Si3 Tc3 2.531332 1_655
Si3 Ti5 2.620556 1_645
Si3 Ti0 2.620970 1_655
Si3 Ti3 2.629344 1_555
Si3 Ti2 2.629783 1_545
Si3 Ti4 2.630974 1_555
Si3 Ti1 2.632127 1_555
Si4 Tc1 2.534218 1_555
Si4 Tc4 2.539908 1_655
Si4 Tc2 2.540989 1_555
Si4 Ti4 2.620263 1_565
Si4 Ti1 2.621288 1_555
Si4 Ti2 2.622938 1_555
Si4 Ti3 2.622953 1_555
Si4 Ti5 2.638508 1_655
Si4 Ti0 2.639779 1_655
Si5 Tc3 2.524475 1_555
Si5 Tc1 2.532359 1_556
Si5 Ti2 2.623803 1_556
Si5 Ti3 2.624394 1_556
Si5 Ti4 2.630662 1_555
Si5 Ti5 2.631028 1_545
Si5 Ti1 2.631697 1_555
Si5 Ti0 2.631733 1_555
Tc0 Ti3 2.798298 1_566
Tc0 Ti2 2.800326 1_556
Tc0 Ti4 2.894507 1_565
Tc0 Ti1 2.896720 1_555
Tc0 Ti5 2.903714 1_656
Tc0 Ti0 2.904413 1_666
Tc1 Ti3 2.797694 1_555
Tc1 Ti2 2.799893 1_555
Tc1 Ti5 2.893746 1_655
Tc1 Ti0 2.894710 1_655
Tc1 Ti4 2.899908 1_554
Tc1 Ti1 2.902845 1_554
Tc2 Ti1 2.804402 1_555
Tc2 Ti4 2.806257 1_565
Tc2 Ti5 2.876172 1_555
Tc2 Ti0 2.879237 1_555
Tc2 Ti2 2.880907 1_555
Tc2 Ti3 2.881370 1_555
Tc3 Ti0 2.799499 1_555
Tc3 Ti5 2.801675 1_545
Tc3 Ti2 2.896214 1_556
Tc3 Ti4 2.898067 1_455
Tc3 Ti3 2.898619 1_556
Tc3 Ti1 2.900058 1_455
Tc4 Ti0 2.795464 1_555
Tc4 Ti5 2.797272 1_555
Tc4 Ti4 2.895511 1_465
Tc4 Ti1 2.896937 1_455
Tc4 Ti2 2.897873 1_556
Tc4 Ti3 2.900133 1_566
Mo0 Si0 2.432714 1_554
Mo0 Si1 2.433181 1_544
Mo0 Si5 2.552956 1_555
Mo0 Si3 2.557764 1_555
Mo0 Ti1 2.788561 1_555
Mo0 Ti4 2.789352 1_555
Mo0 Ti2 2.879690 1_545
Mo0 Ti3 2.880657 1_555
Mo0 Ti5 2.882628 1_545
Mo0 Ti0 2.885932 1_555
