# generated using pymatgen
data_KRbSnTe5
_symmetry_space_group_name_H-M   'P 1'
_cell_length_a   9.92015333
_cell_length_b   9.92015309
_cell_length_c   9.92015313
_cell_angle_alpha   128.15048372
_cell_angle_beta   128.15048052
_cell_angle_gamma   76.38138023
_symmetry_Int_Tables_number   1
_chemical_formula_structural   KRbSnTe5
_chemical_formula_sum   'K2 Rb2 Sn2 Te10'
_cell_volume   586.61813714
_cell_formula_units_Z   2
loop_
 _symmetry_equiv_pos_site_id
 _symmetry_equiv_pos_as_xyz
  1  'x, y, z'
loop_
 _atom_site_type_symbol
 _atom_site_label
 _atom_site_symmetry_multiplicity
 _atom_site_fract_x
 _atom_site_fract_y
 _atom_site_fract_z
 _atom_site_occupancy
  K  K0  1  0.24627243  0.24627243  0.00000000  1
  K  K1  1  0.74627243  0.74627243  0.00000000  1
  Rb  Rb0  1  0.99619033  0.99619033  0.00000000  1
  Rb  Rb1  1  0.49619033  0.49619033  0.00000000  1
  Sn  Sn0  1  0.24700957  0.74700957  0.50000000  1
  Sn  Sn1  1  0.74700957  0.24700957  0.50000000  1
  Te  Te0  1  0.95801105  0.45801105  0.14640130  1
  Te  Te1  1  0.45801105  0.31160975  0.50000000  1
  Te  Te2  1  0.81160975  0.95801105  0.50000000  1
  Te  Te3  1  0.31160975  0.81160975  0.85359870  1
  Te  Te4  1  0.68131130  0.18131130  0.14527717  1
  Te  Te5  1  0.18131130  0.03603413  0.50000000  1
  Te  Te6  1  0.53603413  0.68131130  0.50000000  1
  Te  Te7  1  0.03603413  0.53603413  0.85472283  1
  Te  Te8  1  0.99666145  0.49666145  0.50000000  1
  Te  Te9  1  0.49666145  0.99666145  0.50000000  1
loop_
_geom_bond_atom_site_label_1
_geom_bond_atom_site_label_2
_geom_bond_distance
_geom_bond_site_symmetry_2
K0 Te3 3.637589 1_544
K0 Te0 3.637589 1_455
K0 Te1 3.637589 1_555
K0 Te2 3.637589 1_444
K0 Te6 3.642910 1_555
K0 Te5 3.642910 1_554
K0 Te7 3.642910 1_554
K0 Te4 3.642910 1_555
K1 Te1 3.637589 1_554
K1 Te2 3.637589 1_555
K1 Te0 3.637589 1_555
K1 Te3 3.637590 1_554
K1 Te4 3.642910 1_565
K1 Te7 3.642910 1_654
K1 Te6 3.642910 1_554
K1 Te5 3.642910 1_665
Rb0 Te7 3.846711 1_654
Rb0 Te5 3.846711 1_665
Rb0 Te4 3.846711 1_565
Rb0 Te6 3.846711 1_554
Rb0 Te0 3.857920 1_565
Rb0 Te2 3.857920 1_554
Rb0 Te3 3.857920 1_654
Rb0 Te1 3.857920 1_665
Rb1 Te5 3.846711 1_554
Rb1 Te6 3.846711 1_555
Rb1 Te4 3.846711 1_555
Rb1 Te7 3.846711 1_554
Rb1 Te2 3.857920 1_555
Rb1 Te1 3.857920 1_554
Rb1 Te3 3.857920 1_554
Rb1 Te0 3.857920 1_555
Sn0 Te0 2.786515 1_455
Sn0 Te3 2.786515 1_555
Sn0 Te5 2.786654 1_565
Sn0 Te6 2.786654 1_555
Sn1 Te2 2.786515 1_545
Sn1 Te1 2.786515 1_555
Sn1 Te7 2.786654 1_655
Sn1 Te4 2.786654 1_555
Te0 Te8 3.056854 1_555
Te1 Te9 3.056854 1_545
Te2 Te9 3.056854 1_555
Te3 Te8 3.056854 1_455
Te4 Te8 3.059993 1_555
Te5 Te9 3.059993 1_545
Te6 Te9 3.059993 1_555
Te7 Te8 3.059993 1_455
