# generated using pymatgen
data_RbHgAsS3
_symmetry_space_group_name_H-M   'P 1'
_cell_length_a   6.43648183
_cell_length_b   6.43648274
_cell_length_c   16.74829228
_cell_angle_alpha   78.76400373
_cell_angle_beta   78.76400187
_cell_angle_gamma   82.11733360
_symmetry_Int_Tables_number   1
_chemical_formula_structural   RbHgAsS3
_chemical_formula_sum   'Rb4 Hg4 As4 S12'
_cell_volume   663.95335877
_cell_formula_units_Z   4
loop_
 _symmetry_equiv_pos_site_id
 _symmetry_equiv_pos_as_xyz
  1  'x, y, z'
loop_
 _atom_site_type_symbol
 _atom_site_label
 _atom_site_symmetry_multiplicity
 _atom_site_fract_x
 _atom_site_fract_y
 _atom_site_fract_z
 _atom_site_occupancy
  Rb  Rb0  1  0.75098283  0.61624577  0.91524536  1
  Rb  Rb1  1  0.24901717  0.38375423  0.08475464  1
  Rb  Rb2  1  0.38375423  0.24901717  0.58475464  1
  Rb  Rb3  1  0.61624577  0.75098283  0.41524536  1
  Hg  Hg0  1  0.73403043  0.26596957  0.25000000  1
  Hg  Hg1  1  0.26596957  0.73403043  0.75000000  1
  Hg  Hg2  1  0.25056621  0.74943379  0.25000000  1
  Hg  Hg3  1  0.74943379  0.25056621  0.75000000  1
  As  As0  1  0.88466959  0.76284580  0.59644350  1
  As  As1  1  0.23715420  0.11533041  0.90355650  1
  As  As2  1  0.11533041  0.23715420  0.40355650  1
  As  As3  1  0.76284580  0.88466959  0.09644350  1
  S  S0  1  0.84583580  0.41115473  0.60579302  1
  S  S1  1  0.76440081  0.23455393  0.10628064  1
  S  S2  1  0.23455393  0.76440081  0.60628064  1
  S  S3  1  0.23559919  0.76544607  0.89371936  1
  S  S4  1  0.41115473  0.84583580  0.10579302  1
  S  S5  1  0.15416420  0.58884527  0.39420698  1
  S  S6  1  0.58884527  0.15416420  0.89420698  1
  S  S7  1  0.16992705  0.28728417  0.78331382  1
  S  S8  1  0.71271583  0.83007295  0.71668618  1
  S  S9  1  0.83007295  0.71271583  0.21668618  1
  S  S10  1  0.28728417  0.16992705  0.28331382  1
  S  S11  1  0.76544607  0.23559919  0.39371936  1
loop_
_geom_bond_atom_site_label_1
_geom_bond_atom_site_label_2
_geom_bond_distance
_geom_bond_site_symmetry_2
Rb0 S3 3.321178 1_655
Rb0 S8 3.384757 1_555
Rb0 S6 3.385564 1_555
Rb0 S3 3.393192 1_555
Rb0 S6 3.446388 1_565
Rb0 S1 3.642288 1_556
Rb0 S7 3.817346 1_655
Rb1 S1 3.321178 1_455
Rb1 S10 3.384757 1_555
Rb1 S4 3.385564 1_555
Rb1 S1 3.393192 1_555
Rb1 S4 3.446388 1_545
Rb1 S3 3.642288 1_554
Rb1 S9 3.817346 1_455
Rb2 S2 3.321179 1_545
Rb2 S7 3.384757 1_555
Rb2 S0 3.385563 1_555
Rb2 S2 3.393192 1_555
Rb2 S0 3.446387 1_455
Rb2 S11 3.642288 1_555
Rb2 S8 3.817346 1_545
Rb3 S11 3.321179 1_565
Rb3 S9 3.384757 1_555
Rb3 S5 3.385563 1_555
Rb3 S11 3.393192 1_555
Rb3 S5 3.446387 1_655
Rb3 S2 3.642288 1_555
Rb3 S10 3.817346 1_565
Hg0 S1 2.422494 1_555
Hg0 S11 2.422494 1_555
Hg0 S10 2.947834 1_555
Hg0 S9 2.947835 1_555
Hg1 S3 2.422494 1_555
Hg1 S2 2.422494 1_555
Hg1 S8 2.947834 1_555
Hg1 S7 2.947835 1_555
Hg2 S4 2.430169 1_555
Hg2 S5 2.430169 1_555
Hg2 S9 2.916780 1_455
Hg2 S10 2.916780 1_565
Hg3 S6 2.430169 1_555
Hg3 S0 2.430169 1_555
Hg3 S7 2.916780 1_655
Hg3 S8 2.916780 1_545
As0 S8 2.192589 1_555
As0 S0 2.283185 1_555
As0 S2 2.291348 1_655
As1 S7 2.192589 1_555
As1 S6 2.283184 1_555
As1 S3 2.291348 1_545
As2 S10 2.192589 1_555
As2 S5 2.283185 1_555
As2 S11 2.291348 1_455
As3 S9 2.192589 1_555
As3 S4 2.283184 1_555
As3 S1 2.291348 1_565
