# generated using pymatgen
data_Rb2LiAsS4
_symmetry_space_group_name_H-M   'P 1'
_cell_length_a   13.28865405
_cell_length_b   11.85310209
_cell_length_c   7.33754131
_cell_angle_alpha   84.14405593
_cell_angle_beta   62.53801337
_cell_angle_gamma   33.31793602
_symmetry_Int_Tables_number   1
_chemical_formula_structural   Rb2LiAsS4
_chemical_formula_sum   'Rb4 Li2 As2 S8'
_cell_volume   458.33910394
_cell_formula_units_Z   2
loop_
 _symmetry_equiv_pos_site_id
 _symmetry_equiv_pos_as_xyz
  1  'x, y, z'
loop_
 _atom_site_type_symbol
 _atom_site_label
 _atom_site_symmetry_multiplicity
 _atom_site_fract_x
 _atom_site_fract_y
 _atom_site_fract_z
 _atom_site_occupancy
  Rb  Rb0  1  0.68081273  0.68081273  0.31918727  1
  Rb  Rb1  1  0.93081273  0.93081273  0.56918727  1
  Rb  Rb2  1  0.56918727  0.56918727  0.93081273  1
  Rb  Rb3  1  0.31918727  0.31918727  0.68081273  1
  Li  Li0  1  0.00000000  0.00000000  0.00000000  1
  Li  Li1  1  0.25000000  0.25000000  0.25000000  1
  As  As0  1  0.50000000  0.50000000  0.50000000  1
  As  As1  1  0.75000000  0.75000000  0.75000000  1
  S  S0  1  0.92575549  0.68236813  0.38855121  1
  S  S1  1  0.32424451  0.56763187  0.86144879  1
  S  S2  1  0.68236813  0.92575549  0.00332417  1
  S  S3  1  0.86144879  0.24667583  0.32424451  1
  S  S4  1  0.56763187  0.32424451  0.24667583  1
  S  S5  1  0.24667583  0.86144879  0.56763187  1
  S  S6  1  0.38855121  0.00332417  0.92575549  1
  S  S7  1  0.00332417  0.38855121  0.68236813  1
loop_
_geom_bond_atom_site_label_1
_geom_bond_atom_site_label_2
_geom_bond_distance
_geom_bond_site_symmetry_2
Rb0 S5 3.412130 1_555
Rb0 S3 3.412131 1_555
Rb0 S6 3.496022 1_565
Rb0 S7 3.496029 1_654
Rb0 S0 3.533314 1_555
Rb0 S2 3.533318 1_555
Rb0 S6 3.839200 1_654
Rb0 S7 3.839201 1_565
Rb1 S2 3.412139 1_556
Rb1 S0 3.412142 1_555
Rb1 S1 3.496026 1_565
Rb1 S4 3.496028 1_655
Rb1 S3 3.533323 1_565
Rb1 S5 3.533327 1_655
Rb1 S1 3.839198 1_654
Rb1 S4 3.839204 1_566
Rb2 S7 3.412130 1_655
Rb2 S6 3.412131 1_565
Rb2 S3 3.496022 1_555
Rb2 S5 3.496029 1_556
Rb2 S1 3.533314 1_555
Rb2 S4 3.533318 1_556
Rb2 S3 3.839200 1_466
Rb2 S5 3.839201 1_645
Rb3 S4 3.412139 1_555
Rb3 S1 3.412142 1_555
Rb3 S0 3.496026 1_545
Rb3 S2 3.496028 1_456
Rb3 S6 3.533323 1_555
Rb3 S7 3.533327 1_555
Rb3 S0 3.839198 1_456
Rb3 S2 3.839204 1_545
Li0 S4 2.445734 1_455
Li0 S1 2.445735 1_544
Li0 S5 2.445738 1_544
Li0 S3 2.445743 1_455
Li1 S2 2.445734 1_545
Li1 S0 2.445735 1_455
Li1 S7 2.445738 1_555
Li1 S6 2.445743 1_554
As0 S4 2.173240 1_555
As0 S1 2.173246 1_555
As0 S5 2.173249 1_555
As0 S3 2.173251 1_555
As1 S2 2.173240 1_556
As1 S0 2.173246 1_555
As1 S7 2.173249 1_655
As1 S6 2.173251 1_565
