# generated using pymatgen
data_CaYTcH6
_symmetry_space_group_name_H-M   'P 1'
_cell_length_a   5.04719451
_cell_length_b   5.04719609
_cell_length_c   5.04719484
_cell_angle_alpha   60.00000176
_cell_angle_beta   59.99999138
_cell_angle_gamma   59.99999718
_symmetry_Int_Tables_number   1
_chemical_formula_structural   CaYTcH6
_chemical_formula_sum   'Ca1 Y1 Tc1 H6'
_cell_volume   90.91494085
_cell_formula_units_Z   1
loop_
 _symmetry_equiv_pos_site_id
 _symmetry_equiv_pos_as_xyz
  1  'x, y, z'
loop_
 _atom_site_type_symbol
 _atom_site_label
 _atom_site_symmetry_multiplicity
 _atom_site_fract_x
 _atom_site_fract_y
 _atom_site_fract_z
 _atom_site_occupancy
  Ca  Ca0  1  0.75000000  0.75000000  0.75000000  1
  Y  Y0  1  0.25000000  0.25000000  0.25000000  1
  Tc  Tc0  1  0.00000000  0.00000000  0.00000000  1
  H  H0  1  0.75337402  0.75337402  0.24662598  1
  H  H1  1  0.24662598  0.75337402  0.24662598  1
  H  H2  1  0.75337402  0.24662598  0.24662598  1
  H  H3  1  0.24662598  0.24662598  0.75337402  1
  H  H4  1  0.75337402  0.24662598  0.75337402  1
  H  H5  1  0.24662598  0.75337402  0.75337402  1
loop_
_geom_bond_atom_site_label_1
_geom_bond_atom_site_label_2
_geom_bond_distance
_geom_bond_site_symmetry_2
Ca0 H1 2.523712 1_556
Ca0 H1 2.523712 1_655
Ca0 H5 2.523712 1_555
Ca0 H5 2.523712 1_655
Ca0 H0 2.523712 1_555
Ca0 H0 2.523712 1_556
Ca0 H3 2.523712 1_565
Ca0 H3 2.523712 1_655
Ca0 H2 2.523713 1_565
Ca0 H2 2.523713 1_556
Ca0 H4 2.523713 1_565
Ca0 H4 2.523713 1_555
H0 Tc0 1.760370 1_665
H0 Y0 2.523712 1_565
H0 Y0 2.523712 1_655
H1 Tc0 1.760370 1_565
H1 Y0 2.523713 1_565
H1 Y0 2.523713 1_555
H2 Tc0 1.760370 1_655
H2 Y0 2.523712 1_555
H2 Y0 2.523712 1_655
H3 Tc0 1.760370 1_556
H3 Y0 2.523712 1_555
H3 Y0 2.523712 1_556
H4 Tc0 1.760370 1_656
H4 Y0 2.523712 1_556
H4 Y0 2.523712 1_655
H5 Tc0 1.760370 1_566
H5 Y0 2.523713 1_565
H5 Y0 2.523713 1_556
