# generated using pymatgen
data_Rb6ScTe4I
_symmetry_space_group_name_H-M   'P 1'
_cell_length_a   11.77604748
_cell_length_b   11.77604804
_cell_length_c   8.85197093
_cell_angle_alpha   90.00000000
_cell_angle_beta   90.00000000
_cell_angle_gamma   120.00000389
_symmetry_Int_Tables_number   1
_chemical_formula_structural   Rb6ScTe4I
_chemical_formula_sum   'Rb12 Sc2 Te8 I2'
_cell_volume   1063.08921134
_cell_formula_units_Z   2
loop_
 _symmetry_equiv_pos_site_id
 _symmetry_equiv_pos_as_xyz
  1  'x, y, z'
loop_
 _atom_site_type_symbol
 _atom_site_label
 _atom_site_symmetry_multiplicity
 _atom_site_fract_x
 _atom_site_fract_y
 _atom_site_fract_z
 _atom_site_occupancy
  Rb  Rb0  1  0.13669241  0.86330759  0.50974321  1
  Rb  Rb1  1  0.72661418  0.86330759  0.50974321  1
  Rb  Rb2  1  0.94289980  0.47145040  0.32129891  1
  Rb  Rb3  1  0.52854960  0.47145040  0.32129891  1
  Rb  Rb4  1  0.86330759  0.72661418  0.00974321  1
  Rb  Rb5  1  0.27338582  0.13669241  0.00974321  1
  Rb  Rb6  1  0.52854960  0.05710020  0.32129891  1
  Rb  Rb7  1  0.13669241  0.27338582  0.50974321  1
  Rb  Rb8  1  0.86330759  0.13669241  0.00974321  1
  Rb  Rb9  1  0.05710020  0.52854960  0.82129891  1
  Rb  Rb10  1  0.47145040  0.94289980  0.82129891  1
  Rb  Rb11  1  0.47145040  0.52854960  0.82129891  1
  Sc  Sc0  1  0.66666700  0.33333300  0.71485609  1
  Sc  Sc1  1  0.33333300  0.66666700  0.21485609  1
  Te  Te0  1  0.40896505  0.20448352  0.61054145  1
  Te  Te1  1  0.59103495  0.79551648  0.11054145  1
  Te  Te2  1  0.66666700  0.33333300  0.03484278  1
  Te  Te3  1  0.79551648  0.59103495  0.61054145  1
  Te  Te4  1  0.20448352  0.40896505  0.11054145  1
  Te  Te5  1  0.33333300  0.66666700  0.53484278  1
  Te  Te6  1  0.20448352  0.79551648  0.11054145  1
  Te  Te7  1  0.79551648  0.20448352  0.61054145  1
  I  I0  1  0.00000000  0.00000000  0.26614944  1
  I  I1  1  0.00000000  0.00000000  0.76614944  1
loop_
_geom_bond_atom_site_label_1
_geom_bond_atom_site_label_2
_geom_bond_distance
_geom_bond_site_symmetry_2
Rb0 Te3 3.786352 1_455
Rb0 Te0 3.786352 1_565
Rb0 Te6 3.794614 1_555
Rb0 Te5 4.016971 1_555
Rb1 Te3 3.786345 1_555
Rb1 Te7 3.786356 1_565
Rb1 Te1 3.794603 1_555
Rb1 Te5 4.016971 1_555
Rb2 Te7 3.740982 1_555
Rb2 Te3 3.740989 1_555
Rb2 Te2 3.790244 1_555
Rb2 Te6 3.972089 1_655
Rb2 Te4 3.972109 1_655
Rb3 Te3 3.740982 1_555
Rb3 Te0 3.740982 1_555
Rb3 Te2 3.790259 1_555
Rb3 Te4 3.972078 1_555
Rb3 Te1 3.972079 1_555
Rb4 Te1 3.786345 1_555
Rb4 Te6 3.786356 1_655
Rb4 Te3 3.794603 1_554
Rb4 Te2 4.016971 1_555
Rb5 Te4 3.786345 1_555
Rb5 Te6 3.786356 1_545
Rb5 Te0 3.794603 1_554
Rb5 Te2 4.016971 1_555
Rb6 Te7 3.740982 1_555
Rb6 Te0 3.740989 1_555
Rb6 Te2 3.790244 1_555
Rb6 Te6 3.972089 1_545
Rb6 Te1 3.972109 1_545
Rb7 Te0 3.786345 1_555
Rb7 Te7 3.786356 1_455
Rb7 Te4 3.794603 1_555
Rb7 Te5 4.016971 1_555
Rb8 Te4 3.786352 1_655
Rb8 Te1 3.786352 1_545
Rb8 Te7 3.794614 1_554
Rb8 Te2 4.016971 1_555
Rb9 Te6 3.740982 1_556
Rb9 Te4 3.740989 1_556
Rb9 Te5 3.790244 1_555
Rb9 Te7 3.972089 1_455
Rb9 Te3 3.972109 1_455
Rb10 Te6 3.740982 1_556
Rb10 Te1 3.740989 1_556
Rb10 Te5 3.790244 1_555
Rb10 Te7 3.972089 1_565
Rb10 Te0 3.972109 1_565
Rb11 Te4 3.740982 1_556
Rb11 Te1 3.740982 1_556
Rb11 Te5 3.790259 1_555
Rb11 Te3 3.972078 1_555
Rb11 Te0 3.972079 1_555
Sc0 Te7 2.785604 1_555
Sc0 Te0 2.785633 1_555
Sc0 Te3 2.785633 1_555
Sc0 Te2 2.832513 1_556
Sc1 Te6 2.785604 1_555
Sc1 Te1 2.785633 1_555
Sc1 Te4 2.785633 1_555
Sc1 Te5 2.832513 1_555
I0 Rb0 3.524618 1_545
I0 Rb1 3.524626 1_445
I0 Rb7 3.524626 1_555
I0 Rb8 3.595123 1_455
I0 Rb5 3.595131 1_555
I0 Rb4 3.595131 1_445
I1 Rb8 3.524618 1_456
I1 Rb5 3.524626 1_556
I1 Rb4 3.524626 1_446
I1 Rb0 3.595123 1_545
I1 Rb1 3.595131 1_445
I1 Rb7 3.595131 1_555
