# generated using pymatgen
data_V3FeSi2C
_symmetry_space_group_name_H-M   'P 1'
_cell_length_a   7.58505938
_cell_length_b   7.58505893
_cell_length_c   7.58505837
_cell_angle_alpha   59.99999815
_cell_angle_beta   60.00000013
_cell_angle_gamma   59.99999564
_symmetry_Int_Tables_number   1
_chemical_formula_structural   V3FeSi2C
_chemical_formula_sum   'V12 Fe4 Si8 C4'
_cell_volume   308.57579328
_cell_formula_units_Z   4
loop_
 _symmetry_equiv_pos_site_id
 _symmetry_equiv_pos_as_xyz
  1  'x, y, z'
loop_
 _atom_site_type_symbol
 _atom_site_label
 _atom_site_symmetry_multiplicity
 _atom_site_fract_x
 _atom_site_fract_y
 _atom_site_fract_z
 _atom_site_occupancy
  V  V0  1  0.81035265  0.81035265  0.18964735  1
  V  V1  1  0.18964735  0.18964735  0.81035265  1
  V  V2  1  0.81035265  0.18964735  0.81035265  1
  V  V3  1  0.18964735  0.81035265  0.18964735  1
  V  V4  1  0.18964735  0.81035265  0.81035265  1
  V  V5  1  0.81035265  0.18964735  0.18964735  1
  V  V6  1  0.43964735  0.43964735  0.06035265  1
  V  V7  1  0.06035265  0.06035265  0.43964735  1
  V  V8  1  0.43964735  0.06035265  0.43964735  1
  V  V9  1  0.06035265  0.43964735  0.06035265  1
  V  V10  1  0.06035265  0.43964735  0.43964735  1
  V  V11  1  0.43964735  0.06035265  0.06035265  1
  Fe  Fe0  1  0.12500000  0.62500000  0.62500000  1
  Fe  Fe1  1  0.62500000  0.12500000  0.62500000  1
  Fe  Fe2  1  0.62500000  0.62500000  0.12500000  1
  Fe  Fe3  1  0.62500000  0.62500000  0.62500000  1
  Si  Si0  1  0.75664987  0.41445071  0.41445071  1
  Si  Si1  1  0.41445071  0.75664987  0.41445071  1
  Si  Si2  1  0.41445071  0.41445071  0.75664987  1
  Si  Si3  1  0.41445071  0.41445071  0.41445071  1
  Si  Si4  1  0.49335013  0.83554929  0.83554929  1
  Si  Si5  1  0.83554929  0.49335013  0.83554929  1
  Si  Si6  1  0.83554929  0.83554929  0.49335013  1
  Si  Si7  1  0.83554929  0.83554929  0.83554929  1
  C  C0  1  0.62500000  0.12500000  0.12500000  1
  C  C1  1  0.12500000  0.62500000  0.12500000  1
  C  C2  1  0.12500000  0.12500000  0.62500000  1
  C  C3  1  0.12500000  0.12500000  0.12500000  1
loop_
_geom_bond_atom_site_label_1
_geom_bond_atom_site_label_2
_geom_bond_distance
_geom_bond_site_symmetry_2
Fe0 Si7 2.336487 1_455
Fe0 Si3 2.336487 1_555
Fe0 Si2 2.336495 1_555
Fe0 Si6 2.336495 1_455
Fe0 Si1 2.336495 1_555
Fe0 Si5 2.336495 1_455
Fe0 V9 2.747542 1_556
Fe0 V3 2.747542 1_555
Fe0 V7 2.747542 1_565
Fe0 V1 2.747542 1_555
Fe0 V4 2.747542 1_555
Fe0 V10 2.747542 1_555
Fe1 Si7 2.336487 1_545
Fe1 Si3 2.336487 1_555
Fe1 Si2 2.336495 1_555
Fe1 Si6 2.336495 1_545
Fe1 Si0 2.336495 1_555
Fe1 Si4 2.336495 1_545
Fe1 V11 2.747542 1_556
Fe1 V5 2.747542 1_555
Fe1 V2 2.747543 1_555
Fe1 V8 2.747543 1_555
Fe1 V7 2.747543 1_655
Fe1 V1 2.747543 1_555
Fe2 Si7 2.336487 1_554
Fe2 Si3 2.336487 1_555
Fe2 Si0 2.336495 1_555
Fe2 Si4 2.336495 1_554
Fe2 Si1 2.336495 1_555
Fe2 Si5 2.336495 1_554
Fe2 V11 2.747542 1_565
Fe2 V5 2.747542 1_555
Fe2 V9 2.747543 1_655
Fe2 V3 2.747543 1_555
Fe2 V0 2.747543 1_555
Fe2 V6 2.747543 1_555
Fe3 Si4 2.336483 1_555
Fe3 Si0 2.336483 1_555
Fe3 Si5 2.336483 1_555
Fe3 Si1 2.336483 1_555
Fe3 Si6 2.336483 1_555
Fe3 Si2 2.336483 1_555
Fe3 V8 2.747542 1_565
Fe3 V2 2.747542 1_555
Fe3 V6 2.747542 1_556
Fe3 V0 2.747542 1_555
Fe3 V10 2.747543 1_655
Fe3 V4 2.747543 1_555
Si0 V10 2.509320 1_655
Si0 V7 2.509329 1_655
Si0 V9 2.509329 1_655
Si0 Si1 2.595601 1_555
Si0 Si2 2.595601 1_555
Si0 Si3 2.595601 1_555
Si0 V2 2.738482 1_555
Si0 V0 2.738482 1_555
Si0 V5 2.738495 1_555
Si1 V8 2.509320 1_565
Si1 V11 2.509329 1_565
Si1 V7 2.509329 1_565
Si1 Si2 2.595601 1_555
Si1 Si3 2.595601 1_555
Si1 V4 2.738482 1_555
Si1 V0 2.738482 1_555
Si1 V3 2.738495 1_555
Si2 V6 2.509320 1_556
Si2 V11 2.509329 1_556
Si2 V9 2.509329 1_556
Si2 Si3 2.595601 1_555
Si2 V4 2.738482 1_555
Si2 V2 2.738482 1_555
Si2 V1 2.738495 1_555
Si3 V6 2.509335 1_555
Si3 V8 2.509335 1_555
Si3 V10 2.509335 1_555
Si3 V3 2.738488 1_555
Si3 V5 2.738488 1_555
Si3 V1 2.738488 1_555
Si4 V4 2.509320 1_555
Si4 V1 2.509329 1_565
Si4 V3 2.509329 1_556
Si4 Si5 2.595601 1_555
Si4 Si6 2.595601 1_555
Si4 Si7 2.595601 1_555
Si4 V8 2.738482 1_565
Si4 V6 2.738482 1_556
Si4 V11 2.738495 1_566
Si5 V2 2.509320 1_555
Si5 V5 2.509329 1_556
Si5 V1 2.509329 1_655
Si5 Si6 2.595601 1_555
Si5 Si7 2.595601 1_555
Si5 V10 2.738482 1_655
Si5 V6 2.738482 1_556
Si5 V9 2.738495 1_656
Si6 V0 2.509320 1_555
Si6 V5 2.509329 1_565
Si6 V3 2.509329 1_655
Si6 Si7 2.595601 1_555
Si6 V10 2.738482 1_655
Si6 V8 2.738482 1_565
Si6 V7 2.738495 1_665
Si7 V0 2.509335 1_556
Si7 V2 2.509335 1_565
Si7 V4 2.509335 1_655
Si7 V9 2.738488 1_656
Si7 V11 2.738488 1_566
Si7 V7 2.738488 1_665
C0 V6 2.019087 1_555
C0 V0 2.019087 1_545
C0 V8 2.019087 1_555
C0 V2 2.019087 1_554
C0 V5 2.019088 1_555
C0 V11 2.019088 1_555
C1 V10 2.019087 1_555
C1 V4 2.019087 1_554
C1 V6 2.019087 1_555
C1 V0 2.019087 1_455
C1 V3 2.019087 1_555
C1 V9 2.019087 1_555
C2 V10 2.019087 1_555
C2 V4 2.019087 1_545
C2 V1 2.019087 1_555
C2 V7 2.019087 1_555
C2 V8 2.019087 1_555
C2 V2 2.019087 1_455
C3 V7 2.019087 1_555
C3 V1 2.019087 1_554
C3 V9 2.019087 1_555
C3 V3 2.019087 1_545
C3 V11 2.019088 1_555
C3 V5 2.019088 1_455
