# generated using pymatgen
data_Y8Cd2IrRu
_symmetry_space_group_name_H-M   'P 1'
_cell_length_a   9.64324614
_cell_length_b   9.63295211
_cell_length_c   9.64324607
_cell_angle_alpha   60.03530874
_cell_angle_beta   60.07329143
_cell_angle_gamma   60.03530622
_symmetry_Int_Tables_number   1
_chemical_formula_structural   Y8Cd2IrRu
_chemical_formula_sum   'Y16 Cd4 Ir2 Ru2'
_cell_volume   634.10722881
_cell_formula_units_Z   2
loop_
 _symmetry_equiv_pos_site_id
 _symmetry_equiv_pos_as_xyz
  1  'x, y, z'
loop_
 _atom_site_type_symbol
 _atom_site_label
 _atom_site_symmetry_multiplicity
 _atom_site_fract_x
 _atom_site_fract_y
 _atom_site_fract_z
 _atom_site_occupancy
  Y  Y0  1  0.43890507  0.43831449  0.06229243  1
  Y  Y1  1  0.06229243  0.06048801  0.43890507  1
  Y  Y2  1  0.43890507  0.06048801  0.06229243  1
  Y  Y3  1  0.84771753  0.84676856  0.84771753  1
  Y  Y4  1  0.68973344  0.31106666  0.30899487  1
  Y  Y5  1  0.06229243  0.43831449  0.43890507  1
  Y  Y6  1  0.30899487  0.69020603  0.68973344  1
  Y  Y7  1  0.30899487  0.31106666  0.68973344  1
  Y  Y8  1  0.84843063  0.84787659  0.45581618  1
  Y  Y9  1  0.68973344  0.69020603  0.30899487  1
  Y  Y10  1  0.45581618  0.84787659  0.84843063  1
  Y  Y11  1  0.06164550  0.43835450  0.06164550  1
  Y  Y12  1  0.84771753  0.45779739  0.84771753  1
  Y  Y13  1  0.43846906  0.06153094  0.43846906  1
  Y  Y14  1  0.31071213  0.68928787  0.31071213  1
  Y  Y15  1  0.69057289  0.30942711  0.69057289  1
  Cd  Cd0  1  0.07964767  0.76086801  0.07964767  1
  Cd  Cd1  1  0.07934477  0.07940852  0.76183919  1
  Cd  Cd2  1  0.76183919  0.07940852  0.07934477  1
  Cd  Cd3  1  0.07964767  0.07983566  0.07964767  1
  Ir  Ir0  1  0.64018425  0.07776631  0.64018425  1
  Ir  Ir1  1  0.64018425  0.64186318  0.64018425  1
  Ru  Ru0  1  0.63852841  0.64088993  0.07969173  1
  Ru  Ru1  1  0.07969173  0.64088993  0.63852841  1
loop_
_geom_bond_atom_site_label_1
_geom_bond_atom_site_label_2
_geom_bond_distance
_geom_bond_site_symmetry_2
Cd0 Cd2 3.068231 1_465
Cd0 Cd1 3.068232 1_564
Cd0 Cd3 3.072600 1_565
Cd0 Y11 3.289346 1_555
Cd0 Y0 3.297345 1_555
Cd0 Y5 3.297345 1_555
Cd0 Y8 3.454379 1_455
Cd0 Y10 3.454379 1_554
Cd0 Y3 3.461615 1_454
Cd0 Y6 3.499714 1_554
Cd0 Y9 3.499714 1_455
Cd0 Y14 3.505663 1_555
Cd1 Cd2 3.065176 1_456
Cd1 Cd3 3.068222 1_556
Cd1 Y5 3.296349 1_555
Cd1 Y1 3.296355 1_555
Cd1 Y13 3.303384 1_555
Cd1 Y10 3.453620 1_545
Cd1 Y12 3.463780 1_455
Cd1 Y3 3.463780 1_445
Cd1 Y15 3.491221 1_455
Cd1 Y6 3.495401 1_545
Cd1 Y7 3.495401 1_555
Cd2 Cd3 3.068222 1_655
Cd2 Y0 3.296349 1_555
Cd2 Y2 3.296355 1_555
Cd2 Y13 3.303384 1_555
Cd2 Y8 3.453620 1_545
Cd2 Y3 3.463780 1_544
Cd2 Y12 3.463780 1_554
Cd2 Y15 3.491221 1_554
Cd2 Y4 3.495401 1_555
Cd2 Y9 3.495402 1_545
Cd3 Y11 3.289355 1_555
Cd3 Y1 3.297349 1_555
Cd3 Y2 3.297349 1_555
Cd3 Y10 3.454375 1_544
Cd3 Y8 3.454375 1_445
Cd3 Y12 3.461623 1_454
Cd3 Y4 3.499722 1_455
Cd3 Y7 3.499722 1_554
Cd3 Y14 3.505659 1_545
Ir0 Y15 2.802520 1_555
Ir0 Y7 2.803418 1_555
Ir0 Y4 2.803418 1_555
Ir0 Y8 2.833016 1_545
Ir0 Y10 2.833016 1_545
Ir0 Y3 2.839211 1_545
Ir0 Y13 3.460512 1_555
Ir0 Y2 3.482345 1_556
Ir0 Y1 3.482345 1_655
Ir1 Y15 2.802501 1_555
Ir1 Y9 2.803409 1_555
Ir1 Y6 2.803409 1_555
Ir1 Y10 2.833030 1_555
Ir1 Y8 2.833030 1_555
Ir1 Y12 2.839213 1_555
Ir1 Y13 3.460524 1_565
Ir1 Y5 3.482340 1_655
Ir1 Y0 3.482340 1_556
Ru0 Y14 2.777057 1_555
Ru0 Y4 2.780666 1_555
Ru0 Y9 2.780673 1_555
Ru0 Y10 2.832456 1_554
Ru0 Y12 2.840544 1_554
Ru0 Y3 2.840551 1_554
Ru0 Y0 3.455953 1_555
Ru0 Y2 3.455953 1_565
Ru0 Y11 3.487629 1_655
Ru1 Y14 2.777057 1_555
Ru1 Y7 2.780666 1_555
Ru1 Y6 2.780673 1_555
Ru1 Y8 2.832456 1_455
Ru1 Y12 2.840544 1_455
Ru1 Y3 2.840551 1_455
Ru1 Y5 3.455953 1_555
Ru1 Y1 3.455953 1_565
Ru1 Y11 3.487629 1_556
