# generated using pymatgen
data_HfTi(SiRu)2
_symmetry_space_group_name_H-M   'P 1'
_cell_length_a   7.45117198
_cell_length_b   7.45463712
_cell_length_c   7.45117088
_cell_angle_alpha   127.89690108
_cell_angle_beta   122.56183410
_cell_angle_gamma   81.21850608
_symmetry_Int_Tables_number   1
_chemical_formula_structural   HfTi(SiRu)2
_chemical_formula_sum   'Hf3 Ti3 Si6 Ru6'
_cell_volume   265.22968714
_cell_formula_units_Z   3
loop_
 _symmetry_equiv_pos_site_id
 _symmetry_equiv_pos_as_xyz
  1  'x, y, z'
loop_
 _atom_site_type_symbol
 _atom_site_label
 _atom_site_symmetry_multiplicity
 _atom_site_fract_x
 _atom_site_fract_y
 _atom_site_fract_z
 _atom_site_occupancy
  Hf  Hf0  1  0.24259182  0.91058029  0.16798847  1
  Hf  Hf1  1  0.97069789  0.49508564  0.02438675  1
  Hf  Hf2  1  0.03012188  0.04787708  0.51775520  1
  Ti  Ti0  1  0.44367548  0.48196446  0.53828898  1
  Ti  Ti1  1  0.75720867  0.92629727  0.66908860  1
  Ti  Ti2  1  0.55036063  0.10451359  0.05415295  1
  Si  Si0  1  0.78069966  0.55722821  0.27652955  1
  Si  Si1  1  0.17614363  0.16103799  0.00411267  1
  Si  Si2  1  0.65692532  0.16103799  0.48489335  1
  Si  Si3  1  0.35532012  0.82656963  0.51794276  1
  Si  Si4  1  0.22897279  0.46535278  0.73637999  1
  Si  Si5  1  0.80862887  0.82656963  0.97125051  1
  Ru  Ru0  1  0.52581098  0.24671381  0.77404948  1
  Ru  Ru1  1  0.97266433  0.24671381  0.22090284  1
  Ru  Ru2  1  0.84277514  0.49465429  0.58875596  1
  Ru  Ru3  1  0.59001204  0.74767962  0.08618422  1
  Ru  Ru4  1  0.40589733  0.49465429  0.15188015  1
  Ru  Ru5  1  0.16149540  0.74767962  0.65766858  1
loop_
_geom_bond_atom_site_label_1
_geom_bond_atom_site_label_2
_geom_bond_distance
_geom_bond_site_symmetry_2
Hf0 Si1 2.662667 1_565
Hf0 Si2 2.662668 1_565
Hf0 Si5 2.717539 1_454
Hf0 Si3 2.717551 1_555
Hf0 Si4 2.829758 1_554
Hf0 Ru5 2.894268 1_554
Hf0 Ru3 2.894276 1_555
Hf0 Ru0 2.929263 1_565
Hf0 Ru1 2.929264 1_465
Hf0 Ru2 3.107520 1_454
Hf0 Ru4 3.107521 1_555
Hf1 Si2 2.681447 1_554
Hf1 Si1 2.681449 1_655
Hf1 Si0 2.709643 1_555
Hf1 Si5 2.738152 1_554
Hf1 Si3 2.738164 1_655
Hf1 Ru4 2.846488 1_655
Hf1 Ru2 2.846492 1_554
Hf1 Ru0 2.978530 1_554
Hf1 Ru1 2.978534 1_555
Hf2 Si4 2.667615 1_555
Hf2 Si2 2.703468 1_455
Hf2 Si1 2.703469 1_556
Hf2 Si5 2.715098 1_444
Hf2 Si3 2.715103 1_545
Hf2 Ru3 2.855132 1_445
Hf2 Ru5 2.855137 1_545
Si0 Ti1 2.583350 1_555
Si1 Ti0 2.599443 1_555
Si1 Ti2 2.608956 1_555
Si1 Ti1 2.636560 1_444
Si2 Ti0 2.599443 1_555
Si2 Ti2 2.608948 1_555
Si2 Ti1 2.636565 1_545
Si3 Ti1 2.609461 1_555
Si3 Ti2 2.620630 1_566
Si3 Ti0 2.628745 1_555
Si4 Ti0 2.753187 1_555
Si5 Ti1 2.609463 1_555
Si5 Ti2 2.620640 1_566
Si5 Ti0 2.628753 1_555
Ru0 Si0 2.454484 1_556
Ru0 Si3 2.515533 1_545
Ru0 Si2 2.527687 1_555
Ru0 Si4 2.533839 1_555
Ru0 Ti1 2.681221 1_545
Ru0 Ti2 2.785844 1_556
Ru0 Ti0 2.972484 1_555
Ru1 Si0 2.454480 1_555
Ru1 Si5 2.515531 1_544
Ru1 Si1 2.527681 1_655
Ru1 Si4 2.533838 1_655
Ru1 Ti1 2.681221 1_544
Ru1 Ti2 2.785845 1_555
Ru1 Ti0 2.972484 1_655
Ru2 Si0 2.439856 1_555
Ru2 Si4 2.496883 1_655
Ru2 Si5 2.496967 1_555
Ru2 Si2 2.497045 1_555
Ru2 Ti2 2.726465 1_555
Ru2 Ti0 2.798588 1_555
Ru2 Ti1 2.921800 1_555
Ru3 Si0 2.394711 1_555
Ru3 Si4 2.429443 1_554
Ru3 Si5 2.479030 1_554
Ru3 Si2 2.489644 1_565
Ru3 Ti2 2.772054 1_565
Ru3 Ti0 2.777165 1_554
Ru4 Si0 2.439871 1_555
Ru4 Si4 2.496890 1_554
Ru4 Si3 2.496963 1_555
Ru4 Si1 2.497041 1_555
Ru4 Ti2 2.726467 1_555
Ru4 Ti0 2.798577 1_555
Ru4 Ti1 2.921801 1_555
Ru5 Si0 2.394706 1_455
Ru5 Si4 2.429438 1_555
Ru5 Si3 2.479030 1_555
Ru5 Si1 2.489645 1_566
Ru5 Ti2 2.772055 1_566
Ru5 Ti0 2.777168 1_555
