# generated using pymatgen
data_Zr6Ti16BeIr6
_symmetry_space_group_name_H-M   'P 1'
_cell_length_a   8.90746796
_cell_length_b   8.90746704
_cell_length_c   8.90746759
_cell_angle_alpha   59.99999793
_cell_angle_beta   60.00000137
_cell_angle_gamma   60.00000172
_symmetry_Int_Tables_number   1
_chemical_formula_structural   Zr6Ti16BeIr6
_chemical_formula_sum   'Zr6 Ti16 Be1 Ir6'
_cell_volume   499.74418493
_cell_formula_units_Z   1
loop_
 _symmetry_equiv_pos_site_id
 _symmetry_equiv_pos_as_xyz
  1  'x, y, z'
loop_
 _atom_site_type_symbol
 _atom_site_label
 _atom_site_symmetry_multiplicity
 _atom_site_fract_x
 _atom_site_fract_y
 _atom_site_fract_z
 _atom_site_occupancy
  Zr  Zr0  1  0.68691729  0.68691729  0.31308271  1
  Zr  Zr1  1  0.31308271  0.68691729  0.31308271  1
  Zr  Zr2  1  0.68691729  0.31308271  0.31308271  1
  Zr  Zr3  1  0.31308271  0.31308271  0.68691729  1
  Zr  Zr4  1  0.68691729  0.31308271  0.68691729  1
  Zr  Zr5  1  0.31308271  0.68691729  0.68691729  1
  Ti  Ti0  1  0.88477867  0.88477867  0.34566499  1
  Ti  Ti1  1  0.88477867  0.34566499  0.88477867  1
  Ti  Ti2  1  0.34566499  0.88477867  0.88477867  1
  Ti  Ti3  1  0.88477867  0.88477867  0.88477867  1
  Ti  Ti4  1  0.11522133  0.11522133  0.65433501  1
  Ti  Ti5  1  0.11522133  0.65433501  0.11522133  1
  Ti  Ti6  1  0.65433501  0.11522133  0.11522133  1
  Ti  Ti7  1  0.11522133  0.11522133  0.11522133  1
  Ti  Ti8  1  0.66967462  0.66967462  0.99097314  1
  Ti  Ti9  1  0.66967462  0.99097314  0.66967462  1
  Ti  Ti10  1  0.99097314  0.66967462  0.66967462  1
  Ti  Ti11  1  0.66967462  0.66967462  0.66967462  1
  Ti  Ti12  1  0.33032538  0.33032538  0.00902686  1
  Ti  Ti13  1  0.33032538  0.00902686  0.33032538  1
  Ti  Ti14  1  0.00902686  0.33032538  0.33032538  1
  Ti  Ti15  1  0.33032538  0.33032538  0.33032538  1
  Be  Be0  1  0.00000000  0.00000000  0.00000000  1
  Ir  Ir0  1  0.00000000  0.00000000  0.50000000  1
  Ir  Ir1  1  0.50000000  0.00000000  0.50000000  1
  Ir  Ir2  1  0.00000000  0.50000000  0.50000000  1
  Ir  Ir3  1  0.50000000  0.50000000  0.00000000  1
  Ir  Ir4  1  0.00000000  0.50000000  0.00000000  1
  Ir  Ir5  1  0.50000000  0.00000000  0.00000000  1
loop_
_geom_bond_atom_site_label_1
_geom_bond_atom_site_label_2
_geom_bond_distance
_geom_bond_site_symmetry_2
Zr0 Zr2 3.329919 1_555
Zr0 Zr4 3.329919 1_555
Zr0 Zr5 3.329920 1_555
Zr0 Zr1 3.329920 1_555
Zr1 Zr3 3.329919 1_555
Zr1 Zr5 3.329919 1_555
Zr1 Zr2 3.329919 1_555
Zr2 Zr4 3.329919 1_555
Zr2 Zr3 3.329920 1_555
Zr3 Zr5 3.329919 1_555
Zr3 Zr4 3.329920 1_555
Zr4 Zr5 3.329919 1_555
Ti0 Ti10 2.878072 1_555
Ti0 Ti9 2.878072 1_555
Ti0 Ti11 2.878090 1_555
Ti0 Ti7 2.902900 1_665
Ti0 Ti5 2.902913 1_655
Ti0 Ti6 2.902913 1_565
Ti0 Zr2 3.228903 1_565
Ti0 Zr1 3.228904 1_655
Ti0 Zr0 3.228911 1_555
Ti1 Ti10 2.878072 1_555
Ti1 Ti8 2.878072 1_555
Ti1 Ti11 2.878090 1_555
Ti1 Ti7 2.902900 1_656
Ti1 Ti6 2.902913 1_556
Ti1 Ti4 2.902913 1_655
Ti1 Zr2 3.228904 1_556
Ti1 Zr3 3.228904 1_655
Ti1 Zr4 3.228911 1_555
Ti2 Ti9 2.878072 1_555
Ti2 Ti8 2.878072 1_555
Ti2 Ti7 2.902900 1_566
Ti2 Ti5 2.902913 1_556
Ti2 Ti4 2.902913 1_565
Ti2 Zr3 3.228903 1_565
Ti2 Zr1 3.228904 1_556
Ti2 Zr5 3.228911 1_555
Ti3 Ti8 2.878102 1_555
Ti3 Ti9 2.878102 1_555
Ti3 Ti4 2.902900 1_665
Ti3 Ti5 2.902900 1_656
Ti3 Ti6 2.902900 1_566
Ti3 Zr4 3.228905 1_565
Ti3 Zr0 3.228906 1_556
Ti3 Zr5 3.228906 1_655
Ti4 Zr5 3.228903 1_545
Ti4 Zr4 3.228904 1_455
Ti4 Zr3 3.228911 1_555
Ti5 Zr5 3.228904 1_554
Ti5 Zr0 3.228904 1_455
Ti5 Zr1 3.228911 1_555
Ti6 Zr0 3.228903 1_545
Ti6 Zr4 3.228904 1_554
Ti6 Zr2 3.228911 1_555
Ti7 Zr1 3.228905 1_545
Ti7 Zr3 3.228906 1_554
Ti7 Zr2 3.228906 1_455
Ti8 Zr2 3.030548 1_556
Ti8 Zr1 3.030548 1_556
Ti8 Zr0 3.030563 1_556
Ti9 Zr2 3.030548 1_565
Ti9 Zr3 3.030548 1_565
Ti9 Zr4 3.030563 1_565
Ti10 Ti3 2.878102 1_555
Ti10 Zr3 3.030548 1_655
Ti10 Zr1 3.030548 1_655
Ti10 Zr5 3.030563 1_655
Ti11 Ti2 2.878090 1_555
Ti11 Zr4 3.030536 1_555
Ti11 Zr0 3.030536 1_555
Ti11 Zr5 3.030536 1_555
Ti12 Ti5 2.878072 1_555
Ti12 Ti6 2.878072 1_555
Ti12 Ti7 2.878102 1_555
Ti12 Zr5 3.030548 1_554
Ti12 Zr4 3.030548 1_554
Ti12 Zr3 3.030563 1_554
Ti13 Ti4 2.878072 1_555
Ti13 Ti6 2.878072 1_555
Ti13 Ti7 2.878102 1_555
Ti13 Zr5 3.030548 1_545
Ti13 Zr0 3.030548 1_545
Ti13 Zr1 3.030563 1_545
Ti14 Ti5 2.878072 1_555
Ti14 Ti4 2.878072 1_555
Ti14 Ti7 2.878102 1_555
Ti14 Zr0 3.030548 1_455
Ti14 Zr4 3.030548 1_455
Ti14 Zr2 3.030563 1_455
Ti15 Ti4 2.878090 1_555
Ti15 Ti5 2.878090 1_555
Ti15 Ti6 2.878090 1_555
Ti15 Zr1 3.030536 1_555
Ti15 Zr3 3.030536 1_555
Ti15 Zr2 3.030536 1_555
Be0 Ti7 2.513985 1_555
Be0 Ti3 2.513985 1_444
Be0 Ti5 2.513993 1_545
Be0 Ti1 2.513993 1_454
Be0 Ti0 2.513993 1_445
Be0 Ti4 2.513993 1_554
Be0 Ti2 2.513993 1_544
Be0 Ti6 2.513993 1_455
Ir0 Ti14 2.572210 1_555
Ir0 Ti10 2.572210 1_445
Ir0 Ti13 2.572210 1_555
Ir0 Ti9 2.572210 1_445
Ir0 Ti4 2.805676 1_555
Ir0 Ti0 2.805676 1_445
Ir0 Ti3 2.805684 1_445
Ir0 Ti7 2.805684 1_555
Ir0 Zr5 3.247977 1_545
Ir0 Zr4 3.247977 1_455
Ir0 Zr2 3.247977 1_455
Ir0 Zr1 3.247977 1_545
Ir1 Ti9 2.572187 1_545
Ir1 Ti13 2.572187 1_555
Ir1 Ti15 2.572202 1_555
Ir1 Ti11 2.572202 1_545
Ir1 Ti2 2.805683 1_545
Ir1 Ti6 2.805683 1_555
Ir1 Ti0 2.805683 1_545
Ir1 Ti4 2.805683 1_555
Ir1 Zr2 3.247976 1_555
Ir1 Zr5 3.247976 1_545
Ir1 Zr3 3.247977 1_555
Ir1 Zr0 3.247977 1_545
Ir2 Ti10 2.572187 1_455
Ir2 Ti14 2.572187 1_555
Ir2 Ti11 2.572202 1_455
Ir2 Ti15 2.572202 1_555
Ir2 Ti0 2.805683 1_455
Ir2 Ti4 2.805683 1_555
Ir2 Ti1 2.805683 1_455
Ir2 Ti5 2.805683 1_555
Ir2 Zr1 3.247977 1_555
Ir2 Zr4 3.247977 1_455
Ir2 Zr3 3.247977 1_555
Ir2 Zr0 3.247977 1_455
Ir3 Ti8 2.572187 1_554
Ir3 Ti12 2.572187 1_555
Ir3 Ti11 2.572202 1_554
Ir3 Ti15 2.572202 1_555
Ir3 Ti2 2.805683 1_554
Ir3 Ti6 2.805683 1_555
Ir3 Ti1 2.805683 1_554
Ir3 Ti5 2.805683 1_555
Ir3 Zr1 3.247977 1_555
Ir3 Zr2 3.247977 1_555
Ir3 Zr4 3.247977 1_554
Ir3 Zr5 3.247977 1_554
Ir4 Ti14 2.572210 1_555
Ir4 Ti10 2.572210 1_454
Ir4 Ti12 2.572210 1_555
Ir4 Ti8 2.572210 1_454
Ir4 Ti5 2.805676 1_555
Ir4 Ti1 2.805676 1_454
Ir4 Ti3 2.805683 1_454
Ir4 Ti7 2.805683 1_555
Ir4 Zr5 3.247977 1_554
Ir4 Zr2 3.247977 1_455
Ir4 Zr0 3.247977 1_455
Ir4 Zr3 3.247977 1_554
Ir5 Ti12 2.572210 1_555
Ir5 Ti8 2.572210 1_544
Ir5 Ti13 2.572210 1_555
Ir5 Ti9 2.572210 1_544
Ir5 Ti6 2.805676 1_555
Ir5 Ti2 2.805676 1_544
Ir5 Ti3 2.805684 1_544
Ir5 Ti7 2.805684 1_555
Ir5 Zr4 3.247976 1_554
Ir5 Zr1 3.247976 1_545
Ir5 Zr0 3.247977 1_545
Ir5 Zr3 3.247977 1_554
