# generated using pymatgen
data_Hf5Zr5(AlSn3)2
_symmetry_space_group_name_H-M   'P 1'
_cell_length_a   8.65979077
_cell_length_b   8.65775289
_cell_length_c   5.85273335
_cell_angle_alpha   90.00000000
_cell_angle_beta   90.00000000
_cell_angle_gamma   120.00779041
_symmetry_Int_Tables_number   1
_chemical_formula_structural   Hf5Zr5(AlSn3)2
_chemical_formula_sum   'Hf5 Zr5 Al2 Sn6'
_cell_volume   379.98622859
_cell_formula_units_Z   1
loop_
 _symmetry_equiv_pos_site_id
 _symmetry_equiv_pos_as_xyz
  1  'x, y, z'
loop_
 _atom_site_type_symbol
 _atom_site_label
 _atom_site_symmetry_multiplicity
 _atom_site_fract_x
 _atom_site_fract_y
 _atom_site_fract_z
 _atom_site_occupancy
  Hf  Hf0  1  0.33309050  0.66676404  0.00039174  1
  Hf  Hf1  1  0.66632746  0.33323596  0.49960826  1
  Hf  Hf2  1  0.66632746  0.33323596  0.00039174  1
  Hf  Hf3  1  0.33309050  0.66676404  0.49960826  1
  Hf  Hf4  1  0.27058133  1.00000000  0.25000000  1
  Zr  Zr0  1  0.26831999  0.26756582  0.75000000  1
  Zr  Zr1  1  0.00075417  0.73243418  0.75000000  1
  Zr  Zr2  1  0.99901643  0.26901680  0.25000000  1
  Zr  Zr3  1  0.72999964  0.73098320  0.25000000  1
  Zr  Zr4  1  0.73217440  0.00000000  0.75000000  1
  Al  Al0  1  0.00078968  0.00000000  0.00182304  1
  Al  Al1  1  0.00078968  0.00000000  0.49817696  1
  Sn  Sn0  1  0.61193390  1.00000000  0.25000000  1
  Sn  Sn1  1  0.61274770  0.61275034  0.75000000  1
  Sn  Sn2  1  0.99999636  0.38724966  0.75000000  1
  Sn  Sn3  1  0.00049680  0.61463500  0.25000000  1
  Sn  Sn4  1  0.38586181  0.38536500  0.25000000  1
  Sn  Sn5  1  0.38770120  0.00000000  0.75000000  1
loop_
_geom_bond_atom_site_label_1
_geom_bond_atom_site_label_2
_geom_bond_distance
_geom_bond_site_symmetry_2
Hf0 Hf3 2.921781 1_555
Hf0 Hf3 2.930952 1_554
Hf0 Sn0 3.052942 1_555
Hf0 Sn5 3.054538 1_564
Hf0 Sn3 3.055029 1_555
Hf0 Sn2 3.056509 1_454
Hf0 Sn1 3.060076 1_554
Hf0 Sn4 3.064659 1_555
Hf1 Hf2 2.921781 1_555
Hf1 Hf2 2.930952 1_556
Hf1 Sn0 3.052939 1_545
Hf1 Sn5 3.054541 1_555
Hf1 Sn4 3.055036 1_555
Hf1 Sn1 3.056509 1_555
Hf1 Sn2 3.060061 1_555
Hf1 Sn3 3.064654 1_655
Hf2 Sn0 3.052939 1_545
Hf2 Sn5 3.054541 1_554
Hf2 Sn4 3.055036 1_555
Hf2 Sn1 3.056509 1_554
Hf2 Sn2 3.060061 1_554
Hf2 Sn3 3.064654 1_655
Hf3 Sn0 3.052942 1_555
Hf3 Sn5 3.054538 1_565
Hf3 Sn3 3.055029 1_555
Hf3 Sn2 3.056509 1_455
Hf3 Sn1 3.060076 1_555
Hf3 Sn4 3.064659 1_555
Hf4 Sn0 2.956042 1_555
Hf4 Sn3 2.965910 1_555
Hf4 Sn4 2.965910 1_565
Hf4 Sn5 3.097143 1_564
Hf4 Sn5 3.097143 1_565
Al0 Zr0 2.745503 1_554
Al0 Zr1 2.745504 1_544
Al0 Hf4 2.751050 1_545
Al0 Zr3 2.751440 1_445
Al0 Zr2 2.751440 1_455
Al0 Zr4 2.753766 1_454
Al0 Al1 2.905027 1_555
Al0 Al1 2.947706 1_554
Al1 Zr0 2.745503 1_555
Al1 Zr1 2.745504 1_545
Al1 Hf4 2.751050 1_545
Al1 Zr3 2.751440 1_445
Al1 Zr2 2.751440 1_455
Al1 Zr4 2.753766 1_455
Sn0 Zr2 2.975204 1_565
Sn0 Zr3 2.975204 1_555
Sn0 Zr4 3.106097 1_565
Sn0 Zr4 3.106097 1_564
Sn1 Zr4 2.973557 1_565
Sn1 Zr1 2.980131 1_655
Sn1 Zr0 2.985250 1_555
Sn1 Zr3 3.098841 1_556
Sn1 Zr3 3.098841 1_555
Sn2 Zr4 2.973555 1_555
Sn2 Zr0 2.980139 1_655
Sn2 Zr1 2.985246 1_655
Sn2 Zr2 3.098843 1_555
Sn2 Zr2 3.098843 1_556
Sn3 Zr3 2.976892 1_455
Sn3 Zr2 2.985886 1_455
Sn3 Zr1 3.098629 1_554
Sn3 Zr1 3.098629 1_555
Sn4 Zr2 2.976892 1_455
Sn4 Zr3 2.985886 1_555
Sn4 Zr0 3.098629 1_555
Sn4 Zr0 3.098629 1_554
Sn5 Zr1 2.971608 1_545
Sn5 Zr0 2.971608 1_555
Sn5 Zr4 2.983066 1_555
