# generated using pymatgen
data_Na3(WO3)10
_symmetry_space_group_name_H-M   'P 1'
_cell_length_a   5.50430100
_cell_length_b   6.73615400
_cell_length_c   16.03167972
_cell_angle_alpha   81.98692636
_cell_angle_beta   90.00000000
_cell_angle_gamma   90.00000000
_symmetry_Int_Tables_number   1
_chemical_formula_structural   Na3(WO3)10
_chemical_formula_sum   'Na3 W10 O30'
_cell_volume   588.61597852
_cell_formula_units_Z   1
loop_
 _symmetry_equiv_pos_site_id
 _symmetry_equiv_pos_as_xyz
  1  'x, y, z'
loop_
 _atom_site_type_symbol
 _atom_site_label
 _atom_site_symmetry_multiplicity
 _atom_site_fract_x
 _atom_site_fract_y
 _atom_site_fract_z
 _atom_site_occupancy
  Na  Na0  1  0.00000000  0.00000000  0.00000000  1
  Na  Na1  1  0.50000000  0.10011800  0.69987800  1
  Na  Na2  1  0.50000000  0.89988200  0.30012200  1
  W  W0  1  0.50000000  0.20410400  0.89968500  1
  W  W1  1  0.00000000  0.50000000  0.00000000  1
  W  W2  1  0.50000000  0.59912600  0.69853100  1
  W  W3  1  0.00000000  0.89652400  0.79913100  1
  W  W4  1  0.50000000  0.00000000  0.50000000  1
  W  W5  1  0.00000000  0.30185500  0.59823000  1
  W  W6  1  0.50000000  0.40087400  0.30146900  1
  W  W7  1  0.00000000  0.69814500  0.40177000  1
  W  W8  1  0.50000000  0.79589600  0.10031500  1
  W  W9  1  0.00000000  0.10347600  0.20086900  1
  O  O0  1  0.75215600  0.34695600  0.95048300  1
  O  O1  1  0.24784400  0.34695600  0.95048300  1
  O  O2  1  0.00000000  0.70219000  0.90110900  1
  O  O3  1  0.50000000  0.00000000  0.00000000  1
  O  O4  1  0.74776100  0.75286400  0.74967100  1
  O  O5  1  0.75016900  0.04988900  0.85012100  1
  O  O6  1  0.25223900  0.75286400  0.74967100  1
  O  O7  1  0.24983100  0.04988900  0.85012100  1
  O  O8  1  0.50000000  0.39741800  0.79935800  1
  O  O9  1  0.00000000  0.09925300  0.70036900  1
  O  O10  1  0.74765800  0.44718700  0.65052800  1
  O  O11  1  0.74767800  0.14962200  0.55127100  1
  O  O12  1  0.25234200  0.44718700  0.65052800  1
  O  O13  1  0.25232200  0.14962200  0.55127100  1
  O  O14  1  0.50000000  0.80246200  0.60111200  1
  O  O15  1  0.00000000  0.50000000  0.50000000  1
  O  O16  1  0.25234200  0.55281300  0.34947200  1
  O  O17  1  0.25232200  0.85037800  0.44872900  1
  O  O18  1  0.74767800  0.85037800  0.44872900  1
  O  O19  1  0.74765800  0.55281300  0.34947200  1
  O  O20  1  0.00000000  0.90074700  0.29963100  1
  O  O21  1  0.50000000  0.19753800  0.39888800  1
  O  O22  1  0.24983100  0.95011100  0.14987900  1
  O  O23  1  0.75016900  0.95011100  0.14987900  1
  O  O24  1  0.25223900  0.24713600  0.25032900  1
  O  O25  1  0.74776100  0.24713600  0.25032900  1
  O  O26  1  0.00000000  0.29781000  0.09889100  1
  O  O27  1  0.50000000  0.60258200  0.20064200  1
  O  O28  1  0.24784400  0.65304400  0.04951700  1
  O  O29  1  0.75215600  0.65304400  0.04951700  1
loop_
_geom_bond_atom_site_label_1
_geom_bond_atom_site_label_2
_geom_bond_distance
_geom_bond_site_symmetry_2
Na0 O2 2.724807 1_544
Na0 O26 2.724807 1_555
Na0 O0 2.726949 1_454
Na0 O1 2.726949 1_554
Na0 O29 2.726949 1_445
Na0 O28 2.726949 1_545
Na0 O7 2.748152 1_554
Na0 O5 2.748152 1_454
Na0 O23 2.748152 1_445
Na0 O22 2.748152 1_545
Na0 O3 2.752150 1_555
Na0 O3 2.752150 1_455
Na1 O14 2.722587 1_545
Na1 O11 2.724739 1_555
Na1 O13 2.724739 1_555
Na1 O10 2.726601 1_555
Na1 O12 2.726601 1_555
Na1 O8 2.728476 1_555
Na1 O6 2.729122 1_545
Na1 O4 2.729122 1_545
Na1 O9 2.752166 1_555
Na1 O9 2.752166 1_655
Na1 O5 2.754087 1_555
Na1 O7 2.754087 1_555
Na2 O21 2.722587 1_565
Na2 O18 2.724739 1_555
Na2 O17 2.724739 1_555
Na2 O19 2.726601 1_555
Na2 O16 2.726601 1_555
Na2 O27 2.728476 1_555
Na2 O24 2.729122 1_565
Na2 O25 2.729122 1_565
Na2 O20 2.752166 1_655
Na2 O20 2.752166 1_555
Na2 O22 2.754087 1_555
Na2 O23 2.754087 1_555
O0 W0 1.932368 1_555
O0 W1 1.944794 1_656
O1 W0 1.932368 1_555
O1 W1 1.944794 1_556
O2 W1 1.940735 1_556
O2 W3 1.946742 1_555
O3 W8 1.964739 1_545
O3 W0 1.964739 1_554
O4 W3 1.925302 1_655
O4 W2 1.959891 1_555
O5 W0 1.958773 1_555
O5 W3 1.965192 1_645
O6 W3 1.925302 1_555
O6 W2 1.959891 1_555
O7 W0 1.958773 1_555
O7 W3 1.965192 1_545
O8 W0 1.923216 1_555
O8 W2 1.961294 1_555
O9 W3 1.941388 1_545
O9 W5 1.980101 1_555
O10 W2 1.928113 1_555
O10 W5 1.954334 1_655
O11 W5 1.939713 1_655
O11 W4 1.944472 1_555
O12 W2 1.928113 1_555
O12 W5 1.954334 1_555
O13 W5 1.939713 1_555
O13 W4 1.944472 1_555
O14 W2 1.928438 1_555
O14 W4 1.948560 1_565
O15 W7 1.917152 1_555
O15 W5 1.917152 1_555
O16 W6 1.928113 1_555
O16 W7 1.954334 1_555
O17 W7 1.939713 1_555
O17 W4 1.944472 1_565
O18 W7 1.939713 1_655
O18 W4 1.944472 1_565
O19 W6 1.928113 1_555
O19 W7 1.954334 1_655
O20 W9 1.941388 1_565
O20 W7 1.980101 1_555
O21 W6 1.928438 1_555
O21 W4 1.948560 1_555
O22 W8 1.958773 1_555
O22 W9 1.965192 1_565
O23 W8 1.958773 1_555
O23 W9 1.965192 1_665
O24 W9 1.925302 1_555
O24 W6 1.959891 1_555
O25 W9 1.925302 1_655
O25 W6 1.959891 1_555
O26 W1 1.940735 1_555
O26 W9 1.946742 1_555
O27 W8 1.923216 1_555
O27 W6 1.961294 1_555
O28 W8 1.932368 1_555
O28 W1 1.944794 1_555
O29 W8 1.932368 1_555
O29 W1 1.944794 1_655
