# generated using pymatgen
data_Hf2Ta7TiN12
_symmetry_space_group_name_H-M   'P 1'
_cell_length_a   5.23094412
_cell_length_b   5.23094388
_cell_length_c   10.38801013
_cell_angle_alpha   90.00000000
_cell_angle_beta   90.00000000
_cell_angle_gamma   120.00000151
_symmetry_Int_Tables_number   1
_chemical_formula_structural   Hf2Ta7TiN12
_chemical_formula_sum   'Hf2 Ta7 Ti1 N12'
_cell_volume   246.16320138
_cell_formula_units_Z   1
loop_
 _symmetry_equiv_pos_site_id
 _symmetry_equiv_pos_as_xyz
  1  'x, y, z'
loop_
 _atom_site_type_symbol
 _atom_site_label
 _atom_site_symmetry_multiplicity
 _atom_site_fract_x
 _atom_site_fract_y
 _atom_site_fract_z
 _atom_site_occupancy
  Hf  Hf0  1  0.66666700  0.33333300  0.00000000  1
  Hf  Hf1  1  0.33333300  0.66666700  0.00000000  1
  Ta  Ta0  1  0.67862865  0.68068213  0.74520751  1
  Ta  Ta1  1  0.31931787  0.99794652  0.74520751  1
  Ta  Ta2  1  0.00205348  0.32137135  0.74520751  1
  Ta  Ta3  1  0.31931787  0.32137135  0.25479249  1
  Ta  Ta4  1  0.67862865  0.99794652  0.25479249  1
  Ta  Ta5  1  0.00205348  0.68068213  0.25479249  1
  Ta  Ta6  1  0.66666700  0.33333300  0.50000000  1
  Ti  Ti0  1  0.33333300  0.66666700  0.50000000  1
  N  N0  1  0.65354457  0.65470597  0.38187943  1
  N  N1  1  0.34529403  0.99883859  0.38187943  1
  N  N2  1  0.00116141  0.34645543  0.38187943  1
  N  N3  1  0.34529403  0.34645543  0.61812057  1
  N  N4  1  0.65354457  0.99883859  0.61812057  1
  N  N5  1  0.00116141  0.65470597  0.61812057  1
  N  N6  1  0.34551934  0.34522610  0.87170647  1
  N  N7  1  0.65477390  0.00029324  0.87170647  1
  N  N8  1  0.99970676  0.65448066  0.87170647  1
  N  N9  1  0.65477390  0.65448066  0.12829353  1
  N  N10  1  0.34551934  0.00029324  0.12829353  1
  N  N11  1  0.99970676  0.34522610  0.12829353  1
loop_
_geom_bond_atom_site_label_1
_geom_bond_atom_site_label_2
_geom_bond_distance
_geom_bond_site_symmetry_2
Hf0 N7 2.169464 1_554
Hf0 N11 2.169464 1_555
Hf0 N10 2.169466 1_555
Hf0 N8 2.169466 1_554
Hf0 N9 2.169468 1_555
Hf0 N6 2.169468 1_554
Hf1 N10 2.171312 1_565
Hf1 N8 2.171312 1_454
Hf1 N7 2.171314 1_564
Hf1 N11 2.171314 1_455
Hf1 N6 2.171316 1_554
Hf1 N9 2.171316 1_555
N0 Ti0 2.102378 1_555
N0 Ta6 2.109922 1_555
N0 Ta4 2.179042 1_555
N0 Ta3 2.188919 1_555
N0 Ta5 2.199333 1_655
N1 Ti0 2.102373 1_555
N1 Ta6 2.109920 1_565
N1 Ta5 2.179042 1_555
N1 Ta4 2.188919 1_555
N1 Ta3 2.199333 1_565
N2 Ti0 2.102375 1_555
N2 Ta6 2.109918 1_455
N2 Ta3 2.179042 1_555
N2 Ta5 2.188919 1_555
N2 Ta4 2.199333 1_445
N3 Ti0 2.102378 1_555
N3 Ta6 2.109922 1_555
N3 Ta2 2.179042 1_555
N3 Ta0 2.188919 1_555
N3 Ta1 2.199333 1_545
N4 Ti0 2.102375 1_555
N4 Ta6 2.109918 1_565
N4 Ta0 2.179042 1_555
N4 Ta1 2.188919 1_555
N4 Ta2 2.199333 1_665
N5 Ti0 2.102373 1_555
N5 Ta6 2.109920 1_455
N5 Ta1 2.179042 1_555
N5 Ta2 2.188919 1_555
N5 Ta0 2.199333 1_455
N6 Ta2 2.178559 1_555
N6 Ta0 2.187361 1_555
N6 Ta1 2.190120 1_545
N7 Ta0 2.178559 1_545
N7 Ta1 2.187361 1_545
N7 Ta2 2.190120 1_655
N8 Ta1 2.178559 1_655
N8 Ta2 2.187361 1_655
N8 Ta0 2.190120 1_555
N9 Ta4 2.178559 1_555
N9 Ta3 2.187361 1_555
N9 Ta5 2.190120 1_655
N10 Ta5 2.178559 1_545
N10 Ta4 2.187361 1_545
N10 Ta3 2.190120 1_555
N11 Ta3 2.178559 1_655
N11 Ta5 2.187361 1_655
N11 Ta4 2.190120 1_545
