# generated using pymatgen
data_Zn6ReSbN8
_symmetry_space_group_name_H-M   'P 1'
_cell_length_a   6.57233720
_cell_length_b   5.67506455
_cell_length_c   5.35878684
_cell_angle_alpha   89.93999918
_cell_angle_beta   90.00000000
_cell_angle_gamma   90.00000000
_symmetry_Int_Tables_number   1
_chemical_formula_structural   Zn6ReSbN8
_chemical_formula_sum   'Zn6 Re1 Sb1 N8'
_cell_volume   199.87426854
_cell_formula_units_Z   1
loop_
 _symmetry_equiv_pos_site_id
 _symmetry_equiv_pos_as_xyz
  1  'x, y, z'
loop_
 _atom_site_type_symbol
 _atom_site_label
 _atom_site_symmetry_multiplicity
 _atom_site_fract_x
 _atom_site_fract_y
 _atom_site_fract_z
 _atom_site_occupancy
  Zn  Zn0  1  0.24765015  0.83165742  0.73692893  1
  Zn  Zn1  1  0.24571315  0.16408628  0.22460930  1
  Zn  Zn2  1  0.75234985  0.83165742  0.73692893  1
  Zn  Zn3  1  0.75428685  0.16408628  0.22460930  1
  Zn  Zn4  1  0.00000000  0.34146814  0.73607302  1
  Zn  Zn5  1  0.50000000  0.67562245  0.22744584  1
  Re  Re0  1  0.50000000  0.32902389  0.72550610  1
  Sb  Sb0  1  0.00000000  0.66860659  0.23206953  1
  N  N0  1  0.75048407  0.83253496  0.11011520  1
  N  N1  1  0.72984907  0.17721403  0.61138013  1
  N  N2  1  0.24951593  0.83253496  0.11011520  1
  N  N3  1  0.27015093  0.17721403  0.61138013  1
  N  N4  1  0.00000000  0.33719106  0.11038077  1
  N  N5  1  0.50000000  0.63414546  0.61300900  1
  N  N6  1  0.00000000  0.67339301  0.60288959  1
  N  N7  1  0.50000000  0.32956204  0.06507406  1
loop_
_geom_bond_atom_site_label_1
_geom_bond_atom_site_label_2
_geom_bond_distance
_geom_bond_site_symmetry_2
N0 Zn5 1.974162 1_555
N0 Zn3 1.979851 1_565
N0 Sb0 1.995137 1_655
N0 Zn2 1.999875 1_554
N1 Re0 1.843750 1_555
N1 Zn2 2.077858 1_545
N1 Zn3 2.080249 1_555
N1 Zn4 2.114046 1_655
N2 Zn5 1.974162 1_555
N2 Zn1 1.979851 1_565
N2 Sb0 1.995137 1_555
N2 Zn0 1.999875 1_554
N3 Re0 1.843750 1_555
N3 Zn0 2.077858 1_545
N3 Zn1 2.080249 1_555
N3 Zn4 2.114046 1_555
N4 Zn1 1.986566 1_555
N4 Zn3 1.986566 1_455
N4 Sb0 1.991290 1_555
N4 Zn4 2.005957 1_554
N5 Re0 1.832928 1_555
N5 Zn5 2.079271 1_555
N5 Zn2 2.109420 1_555
N5 Zn0 2.109420 1_555
N6 Sb0 1.987360 1_555
N6 Zn0 1.993287 1_555
N6 Zn2 1.993287 1_455
N6 Zn4 2.013669 1_555
N7 Re0 1.819678 1_554
N7 Zn3 2.098616 1_555
N7 Zn1 2.098616 1_555
N7 Zn5 2.148870 1_555
