# generated using pymatgen
data_Ba10ReMoN10
_symmetry_space_group_name_H-M   'P 1'
_cell_length_a   8.10907692
_cell_length_b   8.10907769
_cell_length_c   9.62868139
_cell_angle_alpha   76.28327256
_cell_angle_beta   76.28327695
_cell_angle_gamma   96.93784642
_symmetry_Int_Tables_number   1
_chemical_formula_structural   Ba10ReMoN10
_chemical_formula_sum   'Ba10 Re1 Mo1 N10'
_cell_volume   586.94896508
_cell_formula_units_Z   1
loop_
 _symmetry_equiv_pos_site_id
 _symmetry_equiv_pos_as_xyz
  1  'x, y, z'
loop_
 _atom_site_type_symbol
 _atom_site_label
 _atom_site_symmetry_multiplicity
 _atom_site_fract_x
 _atom_site_fract_y
 _atom_site_fract_z
 _atom_site_occupancy
  Ba  Ba0  1  0.38658000  0.38781757  0.38694448  1
  Ba  Ba1  1  0.61218243  0.61342000  0.61305552  1
  Ba  Ba2  1  0.66608157  0.66727008  0.00922499  1
  Ba  Ba3  1  0.33272992  0.33391843  0.99077501  1
  Ba  Ba4  1  0.92250134  0.91784362  0.20849637  1
  Ba  Ba5  1  0.08215638  0.07749866  0.79150363  1
  Ba  Ba6  1  0.56130584  0.09707041  0.74784746  1
  Ba  Ba7  1  0.90292959  0.43869416  0.25215254  1
  Ba  Ba8  1  0.43239474  0.89740907  0.25234752  1
  Ba  Ba9  1  0.10259093  0.56760526  0.74765248  1
  Re  Re0  1  0.75663439  0.24336561  0.00000000  1
  Mo  Mo0  1  0.24351717  0.75648283  1.00000000  1
  N  N0  1  0.65308973  0.65351161  0.30663986  1
  N  N1  1  0.34648839  0.34691027  0.69336014  1
  N  N2  1  0.71396525  0.01982872  0.99005933  1
  N  N3  1  0.98017128  0.28603475  0.00994067  1
  N  N4  1  0.28601994  0.98459008  0.01015712  1
  N  N5  1  0.01540992  0.71398006  0.98984288  1
  N  N6  1  0.39579006  0.73002019  0.83176210  1
  N  N7  1  0.26997981  0.60420994  0.16823690  1
  N  N8  1  0.60765082  0.27017049  0.16472847  1
  N  N9  1  0.72982951  0.39234918  0.83527053  1
loop_
_geom_bond_atom_site_label_1
_geom_bond_atom_site_label_2
_geom_bond_distance
_geom_bond_site_symmetry_2
Ba0 N0 2.683844 1_555
Ba0 N1 2.824072 1_555
Ba0 N7 2.828508 1_555
Ba0 N8 2.874732 1_555
Ba1 N1 2.683844 1_555
Ba1 N0 2.824072 1_555
Ba1 N6 2.828502 1_555
Ba1 N9 2.874725 1_555
Ba2 N5 2.767528 1_654
Ba2 N2 2.793906 1_564
Ba2 N0 2.815486 1_555
Ba2 N6 3.100966 1_554
Ba2 N9 3.111488 1_554
Ba2 N7 3.134070 1_555
Ba2 N8 3.137502 1_555
Ba3 N4 2.767528 1_546
Ba3 N3 2.793906 1_456
Ba3 N1 2.815486 1_555
Ba3 N7 3.100959 1_556
Ba3 N8 3.111481 1_556
Ba3 N6 3.134072 1_555
Ba3 N9 3.137504 1_555
Ba4 N0 2.681302 1_555
Ba4 N5 2.988682 1_654
Ba4 N4 3.013997 1_655
Ba4 N2 3.027694 1_564
Ba4 N3 3.052830 1_565
Ba5 N1 2.681302 1_555
Ba5 N4 2.988681 1_546
Ba5 N5 3.013997 1_545
Ba5 N3 3.027694 1_456
Ba5 N2 3.052830 1_455
Ba6 N4 2.817098 1_546
Ba6 N1 2.862902 1_555
Ba6 N2 2.868377 1_555
Ba6 N6 2.948482 1_545
Ba6 N9 3.003386 1_555
Ba7 N5 2.817098 1_654
Ba7 N0 2.862902 1_555
Ba7 N3 2.868377 1_555
Ba7 N7 2.948481 1_655
Ba7 N8 3.003392 1_555
Ba8 N4 2.842596 1_555
Ba8 N2 2.847051 1_564
Ba8 N0 2.862890 1_555
Ba8 N7 2.950571 1_555
Ba8 N8 3.008767 1_565
Ba9 N5 2.842596 1_555
Ba9 N3 2.847051 1_456
Ba9 N1 2.862890 1_555
Ba9 N6 2.950565 1_555
Ba9 N9 3.008768 1_455
Mo0 N7 1.864162 1_556
Mo0 N6 1.864169 1_555
Mo0 N5 1.870201 1_555
Mo0 N4 1.870201 1_556
N2 Re0 1.833344 1_556
N3 Re0 1.833344 1_555
N8 Re0 1.827774 1_555
N9 Re0 1.827781 1_556
