# generated using pymatgen
data_MnAlCuS4
_symmetry_space_group_name_H-M   'P 1'
_cell_length_a   6.93717104
_cell_length_b   6.96591702
_cell_length_c   6.96547821
_cell_angle_alpha   60.10166384
_cell_angle_beta   60.13533946
_cell_angle_gamma   60.13745049
_symmetry_Int_Tables_number   1
_chemical_formula_structural   MnAlCuS4
_chemical_formula_sum   'Mn2 Al2 Cu2 S8'
_cell_volume   238.68375085
_cell_formula_units_Z   2
loop_
 _symmetry_equiv_pos_site_id
 _symmetry_equiv_pos_as_xyz
  1  'x, y, z'
loop_
 _atom_site_type_symbol
 _atom_site_label
 _atom_site_symmetry_multiplicity
 _atom_site_fract_x
 _atom_site_fract_y
 _atom_site_fract_z
 _atom_site_occupancy
  Mn  Mn0  1  0.49999600  0.50000220  0.00000578  1
  Mn  Mn1  1  0.50000647  0.00000349  0.49998979  1
  Al  Al0  1  0.49999757  0.50000115  0.50000763  1
  Al  Al1  1  0.00000155  0.49998914  0.50000511  1
  Cu  Cu0  1  0.87110623  0.87898745  0.87878029  1
  Cu  Cu1  1  0.12890085  0.12100384  0.12121464  1
  S  S0  1  0.74099782  0.74442043  0.74437486  1
  S  S1  1  0.25947805  0.25667863  0.72436659  1
  S  S2  1  0.25949612  0.72422848  0.25677484  1
  S  S3  1  0.72981165  0.25558049  0.25561789  1
  S  S4  1  0.74049436  0.27576576  0.74324157  1
  S  S5  1  0.27019555  0.74443516  0.74437428  1
  S  S6  1  0.25899880  0.25558271  0.25561623  1
  S  S7  1  0.74052500  0.74331707  0.27563150  1
loop_
_geom_bond_atom_site_label_1
_geom_bond_atom_site_label_2
_geom_bond_distance
_geom_bond_site_symmetry_2
Mn0 S2 2.374897 1_555
Mn0 S4 2.374921 1_554
Mn0 S6 2.389987 1_555
Mn0 S0 2.390009 1_554
Mn0 S3 2.390040 1_555
Mn0 S5 2.390066 1_554
Mn1 S7 2.375125 1_545
Mn1 S1 2.375156 1_555
Mn1 S0 2.389795 1_545
Mn1 S5 2.389801 1_545
Mn1 S6 2.389816 1_555
Mn1 S3 2.389817 1_555
Al0 S4 2.382303 1_555
Al0 S2 2.382323 1_555
Al0 S1 2.382839 1_555
Al0 S7 2.382840 1_555
Al0 S5 2.412812 1_555
Al0 S3 2.412858 1_555
Al1 S4 2.382308 1_455
Al1 S2 2.382319 1_555
Al1 S1 2.382821 1_555
Al1 S7 2.382880 1_455
Al1 S6 2.412790 1_555
Al1 S0 2.412819 1_455
Cu0 S4 2.260131 1_565
Cu0 S7 2.260363 1_556
Cu0 S0 2.264680 1_555
Cu0 S5 2.264773 1_655
Cu1 S2 2.260115 1_545
Cu1 S1 2.260345 1_554
Cu1 S6 2.264667 1_555
Cu1 S3 2.264774 1_455
