# generated using pymatgen
data_Sr2Ca3(GaSb3)2
_symmetry_space_group_name_H-M   'P 1'
_cell_length_a   4.55550249
_cell_length_b   12.37811855
_cell_length_c   14.11923802
_cell_angle_alpha   90.00000000
_cell_angle_beta   90.00000000
_cell_angle_gamma   90.00000000
_symmetry_Int_Tables_number   1
_chemical_formula_structural   Sr2Ca3(GaSb3)2
_chemical_formula_sum   'Sr4 Ca6 Ga4 Sb12'
_cell_volume   796.16335792
_cell_formula_units_Z   2
loop_
 _symmetry_equiv_pos_site_id
 _symmetry_equiv_pos_as_xyz
  1  'x, y, z'
loop_
 _atom_site_type_symbol
 _atom_site_label
 _atom_site_symmetry_multiplicity
 _atom_site_fract_x
 _atom_site_fract_y
 _atom_site_fract_z
 _atom_site_occupancy
  Sr  Sr0  1  0.50000000  0.67464488  0.47891873  1
  Sr  Sr1  1  0.50000000  0.32535512  0.52108127  1
  Sr  Sr2  1  0.50000000  0.82535512  0.97891873  1
  Sr  Sr3  1  0.50000000  0.17464488  0.02108127  1
  Ca  Ca0  1  0.50000000  0.00000000  0.50000000  1
  Ca  Ca1  1  0.50000000  0.50000000  0.00000000  1
  Ca  Ca2  1  0.50000000  0.91152496  0.24913033  1
  Ca  Ca3  1  0.50000000  0.08847504  0.75086967  1
  Ca  Ca4  1  0.50000000  0.41152496  0.25086967  1
  Ca  Ca5  1  0.50000000  0.58847504  0.74913033  1
  Ga  Ga0  1  0.00000000  0.32327267  0.71107042  1
  Ga  Ga1  1  0.00000000  0.67672733  0.28892958  1
  Ga  Ga2  1  0.00000000  0.82327267  0.78892958  1
  Ga  Ga3  1  0.00000000  0.17672733  0.21107042  1
  Sb  Sb0  1  0.00000000  0.98236072  0.10080674  1
  Sb  Sb1  1  0.00000000  0.01763928  0.89919326  1
  Sb  Sb2  1  0.00000000  0.48236072  0.39919326  1
  Sb  Sb3  1  0.00000000  0.51763928  0.60080674  1
  Sb  Sb4  1  0.50000000  0.16271346  0.31788563  1
  Sb  Sb5  1  0.50000000  0.83728654  0.68211437  1
  Sb  Sb6  1  0.50000000  0.66271346  0.18211437  1
  Sb  Sb7  1  0.50000000  0.33728654  0.81788563  1
  Sb  Sb8  1  0.00000000  0.35480980  0.09964978  1
  Sb  Sb9  1  0.00000000  0.64519020  0.90035022  1
  Sb  Sb10  1  0.00000000  0.85480980  0.40035022  1
  Sb  Sb11  1  0.00000000  0.14519020  0.59964978  1
loop_
_geom_bond_atom_site_label_1
_geom_bond_atom_site_label_2
_geom_bond_distance
_geom_bond_site_symmetry_2
Ca0 Sb11 3.224531 1_555
Ca0 Sb11 3.224531 1_655
Ca0 Sb10 3.224531 1_645
Ca0 Sb10 3.224531 1_545
Ca0 Sb5 3.266223 1_545
Ca0 Sb4 3.266223 1_555
Ca1 Sb9 3.224531 1_554
Ca1 Sb9 3.224531 1_654
Ca1 Sb8 3.224531 1_655
Ca1 Sb8 3.224531 1_555
Ca1 Sb6 3.266223 1_555
Ca1 Sb7 3.266223 1_554
Ca2 Sb10 3.199951 1_555
Ca2 Sb10 3.199951 1_655
Ca2 Sb0 3.216006 1_655
Ca2 Sb0 3.216006 1_555
Ca2 Sb6 3.221894 1_555
Ca2 Sb4 3.257266 1_565
Ca3 Sb11 3.199951 1_555
Ca3 Sb11 3.199951 1_655
Ca3 Sb1 3.216006 1_655
Ca3 Sb1 3.216006 1_555
Ca3 Sb7 3.221894 1_555
Ca3 Sb5 3.257266 1_545
Ca4 Sb8 3.199951 1_555
Ca4 Sb8 3.199951 1_655
Ca4 Sb2 3.216006 1_555
Ca4 Sb2 3.216006 1_655
Ca4 Sb4 3.221894 1_555
Ca4 Sb6 3.257266 1_555
Ca5 Sb9 3.199951 1_655
Ca5 Sb9 3.199951 1_555
Ca5 Sb3 3.216006 1_555
Ca5 Sb3 3.216006 1_655
Ca5 Sb5 3.221894 1_555
Ca5 Sb7 3.257266 1_555
Ga0 Sb11 2.708123 1_555
Ga0 Sb7 2.737290 1_455
Ga0 Sb7 2.737290 1_555
Ga0 Sb3 2.865671 1_555
Ga0 Sr1 3.519181 1_455
Ga0 Sr1 3.519181 1_555
Ga1 Sb10 2.708123 1_555
Ga1 Sb6 2.737290 1_455
Ga1 Sb6 2.737290 1_555
Ga1 Sb2 2.865671 1_555
Ga1 Sr0 3.519181 1_455
Ga1 Sr0 3.519181 1_555
Ga2 Sb9 2.708123 1_555
Ga2 Sb5 2.737290 1_455
Ga2 Sb5 2.737290 1_555
Ga2 Sb1 2.865671 1_565
Ga2 Sr2 3.519181 1_455
Ga2 Sr2 3.519181 1_555
Ga3 Sb8 2.708123 1_555
Ga3 Sb4 2.737290 1_455
Ga3 Sb4 2.737290 1_555
Ga3 Sb0 2.865671 1_545
Ga3 Sr3 3.519181 1_455
Ga3 Sr3 3.519181 1_555
Sb0 Sb1 2.879928 1_564
Sb0 Sr2 3.453521 1_454
Sb0 Sr2 3.453521 1_554
Sb0 Sr3 3.481411 1_465
Sb0 Sr3 3.481411 1_565
Sb1 Sr3 3.453521 1_556
Sb1 Sr3 3.453521 1_456
Sb1 Sr2 3.481411 1_545
Sb1 Sr2 3.481411 1_445
Sb2 Sb3 2.879928 1_555
Sb2 Sr1 3.453521 1_555
Sb2 Sr1 3.453521 1_455
Sb2 Sr0 3.481411 1_555
Sb2 Sr0 3.481411 1_455
Sb3 Sr0 3.453521 1_555
Sb3 Sr0 3.453521 1_455
Sb3 Sr1 3.481411 1_555
Sb3 Sr1 3.481411 1_455
Sb4 Sr1 3.504845 1_555
Sb5 Sr0 3.504845 1_555
Sb6 Sr2 3.504845 1_554
Sb7 Sr3 3.504845 1_556
Sb8 Sr3 3.375221 1_555
Sb8 Sr3 3.375221 1_455
Sb9 Sr2 3.375221 1_555
Sb9 Sr2 3.375221 1_455
Sb10 Sr0 3.375221 1_555
Sb10 Sr0 3.375221 1_455
Sb11 Sr1 3.375221 1_555
Sb11 Sr1 3.375221 1_455
