# generated using pymatgen
data_CaTa4O11
_symmetry_space_group_name_H-M   'P 1'
_cell_length_a   6.22997260
_cell_length_b   6.22997187
_cell_length_c   12.30478874
_cell_angle_alpha   89.99999973
_cell_angle_beta   89.99999913
_cell_angle_gamma   119.99987750
_symmetry_Int_Tables_number   1
_chemical_formula_structural   CaTa4O11
_chemical_formula_sum   'Ca2 Ta8 O22'
_cell_volume   413.59716361
_cell_formula_units_Z   2
loop_
 _symmetry_equiv_pos_site_id
 _symmetry_equiv_pos_as_xyz
  1  'x, y, z'
loop_
 _atom_site_type_symbol
 _atom_site_label
 _atom_site_symmetry_multiplicity
 _atom_site_fract_x
 _atom_site_fract_y
 _atom_site_fract_z
 _atom_site_occupancy
  Ca  Ca0  1  0.33333359  0.66666593  0.75000083  1
  Ca  Ca1  1  0.66666627  0.33333391  0.24999877  1
  Ta  Ta0  1  0.66666684  0.33333330  0.74999576  1
  Ta  Ta1  1  0.33333319  0.66666672  0.25000042  1
  Ta  Ta2  1  0.64154308  0.00000096  0.50002078  1
  Ta  Ta3  1  0.64155179  0.64154951  -0.00001966  1
  Ta  Ta4  1  -0.00000131  0.35845102  -0.00001954  1
  Ta  Ta5  1  -0.00000225  0.64154142  0.50002102  1
  Ta  Ta6  1  0.35845585  0.35845427  0.50002080  1
  Ta  Ta7  1  0.35845288  0.00000283  -0.00001982  1
  O  O0  1  0.33333333  0.66666658  0.53412460  1
  O  O1  1  0.66666666  0.33333341  0.03412751  1
  O  O2  1  0.66666661  0.33333348  0.46587412  1
  O  O3  1  0.33333350  0.66666661  0.96587361  1
  O  O4  1  0.24597605  0.00000023  0.50000039  1
  O  O5  1  0.24598008  0.24597944  -0.00000039  1
  O  O6  1  0.00000013  0.75401863  -0.00000045  1
  O  O7  1  -0.00000142  0.24597537  0.50000032  1
  O  O8  1  0.75402609  0.75402519  0.50000033  1
  O  O9  1  0.75401960  0.00000119  -0.00000039  1
  O  O10  1  0.37938906  0.94542560  0.15576213  1
  O  O11  1  0.43394956  0.37938535  0.65574804  1
  O  O12  1  0.94543571  0.56605020  0.65574815  1
  O  O13  1  0.05457457  0.43396371  0.15576215  1
  O  O14  1  0.56603654  0.62061102  0.15576215  1
  O  O15  1  0.43395205  0.05456443  0.84425212  1
  O  O16  1  0.62061265  0.56604827  0.84425227  1
  O  O17  1  0.62061477  0.05456410  0.65574809  1
  O  O18  1  0.94543571  0.37938742  0.84425216  1
  O  O19  1  0.05457340  0.62061304  0.34423757  1
  O  O20  1  0.56603935  0.94542646  0.34423755  1
  O  O21  1  0.37938707  0.43396040  0.34423760  1
loop_
_geom_bond_atom_site_label_1
_geom_bond_atom_site_label_2
_geom_bond_distance
_geom_bond_site_symmetry_2
Ca0 O16 2.462316 1_555
Ca0 O18 2.462323 1_455
Ca0 O15 2.462325 1_565
Ca0 O11 2.462325 1_555
Ca0 O12 2.462334 1_455
Ca0 O17 2.462336 1_565
Ca0 O3 2.656269 1_555
Ca0 O0 2.656311 1_555
Ca1 O14 2.462266 1_555
Ca1 O13 2.462276 1_655
Ca1 O10 2.462276 1_545
Ca1 O21 2.462277 1_555
Ca1 O19 2.462287 1_655
Ca1 O20 2.462288 1_545
Ca1 O1 2.656250 1_555
Ca1 O2 2.656301 1_555
O0 Ta2 2.046483 1_565
O0 Ta5 2.046486 1_555
O0 Ta6 2.046488 1_555
O1 Ta7 2.046591 1_555
O1 Ta4 2.046594 1_655
O1 Ta3 2.046594 1_555
O2 Ta5 2.046576 1_655
O2 Ta2 2.046580 1_555
O2 Ta6 2.046581 1_555
O3 Ta4 2.046508 1_556
O3 Ta7 2.046512 1_566
O3 Ta3 2.046513 1_556
O4 Ta6 1.978174 1_555
O4 Ta5 1.978203 1_545
O4 Ta2 2.464369 1_555
O5 Ta7 1.978153 1_555
O5 Ta4 1.978176 1_555
O5 Ta3 2.464400 1_555
O6 Ta3 1.978154 1_455
O6 Ta7 1.978183 1_565
O6 Ta4 2.464371 1_555
O7 Ta2 1.978183 1_455
O7 Ta6 1.978194 1_555
O7 Ta5 2.464368 1_555
O8 Ta5 1.978174 1_655
O8 Ta2 1.978195 1_565
O8 Ta6 2.464398 1_555
O9 Ta4 1.978162 1_655
O9 Ta3 1.978175 1_545
O9 Ta7 2.464375 1_555
O10 Ta7 1.962483 1_565
O10 Ta1 1.986115 1_555
O11 Ta6 1.961802 1_555
O11 Ta0 1.986241 1_555
O12 Ta5 1.961798 1_655
O12 Ta0 1.986241 1_555
O13 Ta4 1.962479 1_555
O13 Ta1 1.986116 1_555
O14 Ta3 1.962483 1_555
O14 Ta1 1.986115 1_555
O15 Ta7 1.961816 1_556
O15 Ta0 1.986300 1_555
O16 Ta3 1.961819 1_556
O16 Ta0 1.986300 1_555
O17 Ta2 1.961800 1_555
O17 Ta0 1.986241 1_555
O18 Ta4 1.961820 1_656
O18 Ta0 1.986299 1_555
O19 Ta5 1.962491 1_555
O19 Ta1 1.986116 1_555
O20 Ta2 1.962488 1_565
O20 Ta1 1.986117 1_555
O21 Ta6 1.962490 1_555
O21 Ta1 1.986117 1_555
