# generated using pymatgen
data_Nb10SiB4As
_symmetry_space_group_name_H-M   'P 1'
_cell_length_a   7.33854227
_cell_length_b   7.33854240
_cell_length_c   7.33854329
_cell_angle_alpha   129.33430353
_cell_angle_beta   129.33430853
_cell_angle_gamma   74.47325096
_symmetry_Int_Tables_number   1
_chemical_formula_structural   Nb10SiB4As
_chemical_formula_sum   'Nb10 Si1 B4 As1'
_cell_volume   230.41817545
_cell_formula_units_Z   1
loop_
 _symmetry_equiv_pos_site_id
 _symmetry_equiv_pos_as_xyz
  1  'x, y, z'
loop_
 _atom_site_type_symbol
 _atom_site_label
 _atom_site_symmetry_multiplicity
 _atom_site_fract_x
 _atom_site_fract_y
 _atom_site_fract_z
 _atom_site_occupancy
  Nb  Nb0  1  0.99974851  0.99974851  0.00000000  1
  Nb  Nb1  1  0.50025149  0.50025149  1.00000000  1
  Nb  Nb2  1  0.80375154  0.30769374  0.83570900  1
  Nb  Nb3  1  0.19230626  0.69624846  0.16429100  1
  Nb  Nb4  1  0.47198474  0.96804355  0.16429100  1
  Nb  Nb5  1  0.30769374  0.47198474  0.50394220  1
  Nb  Nb6  1  0.02801526  0.19230626  0.49605780  1
  Nb  Nb7  1  0.53195645  0.02801526  0.83570900  1
  Nb  Nb8  1  0.69624846  0.53195645  0.50394220  1
  Nb  Nb9  1  0.96804355  0.80375154  0.49605780  1
  Si  Si0  1  0.75000000  0.75000000  0.00000000  1
  B  B0  1  0.11337645  0.61337645  0.72675190  1
  B  B1  1  0.88662355  0.38662355  0.27324810  1
  B  B2  1  0.61337645  0.88662355  0.50000000  1
  B  B3  1  0.38662355  0.11337645  0.50000000  1
  As  As0  1  0.25000000  0.25000000  0.00000000  1
loop_
_geom_bond_atom_site_label_1
_geom_bond_atom_site_label_2
_geom_bond_distance
_geom_bond_site_symmetry_2
Nb0 Nb3 2.823195 1_655
Nb0 Nb6 2.823195 1_665
Nb0 Nb8 2.823200 1_554
Nb0 Nb7 2.823202 1_564
Nb0 Nb4 2.853916 1_655
Nb0 Nb2 2.853917 1_564
Nb0 Nb5 2.853917 1_665
Nb0 Nb9 2.853921 1_554
Nb0 Si0 2.918327 1_555
Nb1 Nb2 2.823195 1_555
Nb1 Nb5 2.823195 1_555
Nb1 Nb9 2.823199 1_556
Nb1 Nb4 2.823202 1_556
Nb1 Nb7 2.853916 1_555
Nb1 Nb6 2.853917 1_555
Nb1 Nb3 2.853917 1_556
Nb1 Nb8 2.853921 1_556
Nb1 Si0 2.918327 1_556
Nb2 Si0 2.664841 1_556
Nb3 Si0 2.664841 1_455
Nb4 Si0 2.664842 1_555
Nb5 Si0 2.664841 1_556
Nb6 Si0 2.664841 1_445
Nb7 Si0 2.664842 1_546
Nb8 Si0 2.664840 1_556
Nb9 Si0 2.664840 1_555
B0 B1 2.013835 1_455
B0 Nb5 2.407608 1_555
B0 Nb8 2.407617 1_455
B0 Nb9 2.422208 1_455
B0 Nb6 2.422214 1_555
B0 Nb4 2.524013 1_556
B0 Nb3 2.524017 1_556
B0 Nb1 2.530233 1_555
B0 Nb0 2.530233 1_456
B1 Nb6 2.407608 1_655
B1 Nb9 2.407617 1_555
B1 Nb8 2.422208 1_555
B1 Nb5 2.422214 1_655
B1 Nb7 2.524013 1_554
B1 Nb2 2.524017 1_554
B1 Nb1 2.530233 1_554
B1 Nb0 2.530233 1_545
B2 B3 2.013843 1_565
B2 Nb4 2.407620 1_555
B2 Nb7 2.407620 1_565
B2 Nb3 2.422212 1_555
B2 Nb2 2.422212 1_565
B2 Nb9 2.524017 1_555
B2 Nb8 2.524017 1_555
B2 Nb0 2.530231 1_556
B2 Nb1 2.530231 1_554
B3 Nb2 2.407614 1_555
B3 Nb3 2.407614 1_545
B3 Nb7 2.422214 1_555
B3 Nb4 2.422214 1_545
B3 Nb6 2.524010 1_555
B3 Nb5 2.524010 1_555
B3 Nb0 2.530231 1_445
B3 Nb1 2.530231 1_555
As0 Nb4 2.693848 1_545
As0 Nb7 2.693848 1_554
As0 Nb8 2.693853 1_555
As0 Nb9 2.693853 1_444
As0 Nb2 2.693854 1_454
As0 Nb3 2.693854 1_555
As0 Nb6 2.693854 1_554
As0 Nb5 2.693855 1_555
As0 Nb1 2.924204 1_554
As0 Nb0 2.924204 1_445
