# generated using pymatgen
data_Cs4Ba2HfBi4
_symmetry_space_group_name_H-M   'P 1'
_cell_length_a   11.98658488
_cell_length_b   11.98658522
_cell_length_c   8.80924371
_cell_angle_alpha   87.59519203
_cell_angle_beta   87.59519048
_cell_angle_gamma   60.26480116
_symmetry_Int_Tables_number   1
_chemical_formula_structural   Cs4Ba2HfBi4
_chemical_formula_sum   'Cs8 Ba4 Hf2 Bi8'
_cell_volume   1097.74418452
_cell_formula_units_Z   2
loop_
 _symmetry_equiv_pos_site_id
 _symmetry_equiv_pos_as_xyz
  1  'x, y, z'
loop_
 _atom_site_type_symbol
 _atom_site_label
 _atom_site_symmetry_multiplicity
 _atom_site_fract_x
 _atom_site_fract_y
 _atom_site_fract_z
 _atom_site_occupancy
  Cs  Cs0  1  0.94673537  0.52637428  0.37514930  1
  Cs  Cs1  1  0.52637428  0.94673537  0.37514930  1
  Cs  Cs2  1  0.72492828  0.12976152  0.18211779  1
  Cs  Cs3  1  0.12976152  0.72492828  0.18211779  1
  Cs  Cs4  1  0.14264438  0.14264438  0.21092073  1
  Cs  Cs5  1  0.27003363  0.86994147  0.68725369  1
  Cs  Cs6  1  0.86994147  0.27003363  0.68725369  1
  Cs  Cs7  1  0.84701437  0.84701437  0.62329444  1
  Ba  Ba0  1  0.52855888  0.52855888  0.37263739  1
  Ba  Ba1  1  0.05907558  0.47680942  0.88503070  1
  Ba  Ba2  1  0.47680942  0.05907558  0.88503070  1
  Ba  Ba3  1  0.47813410  0.47813410  0.87117288  1
  Hf  Hf0  1  0.33752852  0.33752852  0.49665486  1
  Hf  Hf1  1  0.66343690  0.66343690  0.97789842  1
  Bi  Bi0  1  0.40188355  0.79417944  0.09301939  1
  Bi  Bi1  1  0.79417944  0.40188355  0.09301939  1
  Bi  Bi2  1  0.79801609  0.79801609  0.04261795  1
  Bi  Bi3  1  0.59471699  0.21373296  0.60507722  1
  Bi  Bi4  1  0.21373296  0.59471699  0.60507722  1
  Bi  Bi5  1  0.21011351  0.21011351  0.63291429  1
  Bi  Bi6  1  0.33852523  0.33852523  0.16098867  1
  Bi  Bi7  1  0.64847054  0.64847054  0.65842117  1
loop_
_geom_bond_atom_site_label_1
_geom_bond_atom_site_label_2
_geom_bond_distance
_geom_bond_site_symmetry_2
Cs0 Cs7 4.111856 1_555
Cs0 Cs3 4.230333 1_655
Cs0 Hf0 4.232153 1_655
Cs0 Cs4 4.280491 1_655
Cs0 Cs6 4.442080 1_555
Cs1 Cs7 4.111856 1_555
Cs1 Cs2 4.230333 1_565
Cs1 Hf0 4.232153 1_565
Cs1 Cs4 4.280491 1_565
Cs1 Cs5 4.442080 1_555
Cs2 Cs4 5.102456 1_655
Cs3 Cs4 5.102457 1_565
Cs4 Cs6 5.005937 1_455
Cs4 Cs5 5.005937 1_545
Ba0 Bi7 3.623056 1_555
Ba0 Bi1 3.656527 1_555
Ba0 Bi0 3.656527 1_555
Ba0 Bi4 3.947348 1_555
Ba0 Bi3 3.947349 1_555
Ba0 Ba3 4.464833 1_555
Ba0 Ba3 4.588648 1_554
Ba1 Bi5 3.598180 1_555
Ba1 Bi4 3.665918 1_555
Ba1 Bi2 3.830863 1_456
Ba1 Bi6 3.835983 1_556
Ba1 Bi1 4.055617 1_456
Ba1 Cs0 4.443134 1_456
Ba1 Cs4 4.537107 1_556
Ba1 Cs0 4.672404 1_455
Ba2 Bi5 3.598180 1_555
Ba2 Bi3 3.665918 1_555
Ba2 Bi2 3.830863 1_546
Ba2 Bi6 3.835983 1_556
Ba2 Bi0 4.055617 1_546
Ba2 Cs1 4.443134 1_546
Ba2 Cs4 4.537107 1_556
Ba2 Cs1 4.672404 1_545
Ba3 Bi3 3.667028 1_555
Ba3 Bi4 3.667028 1_555
Ba3 Bi6 3.765598 1_556
Ba3 Bi7 3.917033 1_555
Ba3 Hf1 3.999420 1_555
Ba3 Bi1 4.005322 1_556
Ba3 Bi0 4.005322 1_556
Ba3 Cs6 4.356977 1_555
Ba3 Cs5 4.356977 1_555
Ba3 Cs3 4.599751 1_556
Ba3 Cs2 4.599751 1_556
Bi0 Hf1 2.882045 1_554
Bi0 Cs3 3.789575 1_555
Bi0 Cs5 3.857119 1_554
Bi0 Cs1 3.891916 1_555
Bi0 Cs4 3.924172 1_565
Bi1 Hf1 2.882045 1_554
Bi1 Cs2 3.789575 1_555
Bi1 Cs6 3.857119 1_554
Bi1 Cs0 3.891916 1_555
Bi1 Cs4 3.924172 1_655
Bi2 Hf1 2.874937 1_554
Bi2 Cs7 3.783255 1_554
Bi2 Cs3 3.867058 1_655
Bi2 Cs2 3.867059 1_565
Bi2 Cs1 4.029981 1_555
Bi2 Cs0 4.029981 1_555
Bi3 Hf0 2.864992 1_555
Bi3 Cs6 3.783225 1_555
Bi3 Cs7 3.910028 1_545
Bi3 Cs2 3.949708 1_555
Bi3 Cs1 4.277868 1_545
Bi4 Hf0 2.864992 1_555
Bi4 Cs5 3.783225 1_555
Bi4 Cs7 3.910028 1_455
Bi4 Cs3 3.949708 1_555
Bi4 Cs0 4.277868 1_455
Bi5 Hf0 2.848176 1_555
Bi5 Cs6 3.785622 1_455
Bi5 Cs5 3.785622 1_545
Bi5 Cs4 4.034952 1_555
Bi5 Cs1 4.183412 1_545
Bi5 Cs0 4.183412 1_455
Bi6 Hf0 2.956035 1_555
Bi6 Cs2 4.035438 1_555
Bi6 Cs3 4.035438 1_555
Bi6 Cs4 4.063798 1_555
Bi6 Cs0 4.450522 1_455
Bi6 Cs1 4.450522 1_545
Bi7 Hf1 2.846333 1_555
Bi7 Cs0 3.939321 1_555
Bi7 Cs1 3.939321 1_555
Bi7 Cs5 3.962700 1_555
Bi7 Cs6 3.962700 1_555
Bi7 Cs7 4.113149 1_555
