# generated using pymatgen
data_Ti2Ga
_symmetry_space_group_name_H-M   'P 1'
_cell_length_a   4.50529807
_cell_length_b   4.50529792
_cell_length_c   5.45079398
_cell_angle_alpha   90.00000000
_cell_angle_beta   90.00000000
_cell_angle_gamma   119.99999368
_symmetry_Int_Tables_number   1
_chemical_formula_structural   Ti2Ga
_chemical_formula_sum   'Ti4 Ga2'
_cell_volume   95.81587521
_cell_formula_units_Z   2
loop_
 _symmetry_equiv_pos_site_id
 _symmetry_equiv_pos_as_xyz
  1  'x, y, z'
loop_
 _atom_site_type_symbol
 _atom_site_label
 _atom_site_symmetry_multiplicity
 _atom_site_fract_x
 _atom_site_fract_y
 _atom_site_fract_z
 _atom_site_occupancy
  Ti  Ti0  1  0.66666700  0.33333300  0.24999451  1
  Ti  Ti1  1  0.33333300  0.66666700  0.75000548  1
  Ti  Ti2  1  -0.00000000  0.00000000  -0.00000660  1
  Ti  Ti3  1  -0.00000000  0.00000000  0.50000660  1
  Ga  Ga0  1  0.66666700  0.33333300  0.74999437  1
  Ga  Ga1  1  0.33333300  0.66666700  0.25000564  1
loop_
_geom_bond_atom_site_label_1
_geom_bond_atom_site_label_2
_geom_bond_distance
_geom_bond_site_symmetry_2
Ti0 Ti2 2.936469 1_655
Ti0 Ti2 2.936473 1_665
Ti0 Ti2 2.936473 1_555
Ti0 Ti3 2.936497 1_655
Ti0 Ti3 2.936501 1_665
Ti0 Ti3 2.936501 1_555
Ti1 Ti2 2.936436 1_566
Ti1 Ti2 2.936440 1_556
Ti1 Ti2 2.936440 1_666
Ti1 Ti3 2.936464 1_565
Ti1 Ti3 2.936467 1_555
Ti1 Ti3 2.936468 1_665
Ti2 Ti3 2.725325 1_554
Ti2 Ti3 2.725469 1_555
Ga0 Ti1 2.601133 1_545
Ga0 Ti1 2.601133 1_655
Ga0 Ti1 2.601140 1_555
Ga0 Ti0 2.725396 1_555
Ga0 Ti0 2.725398 1_556
Ga0 Ti3 2.936436 1_655
Ga0 Ti3 2.936439 1_665
Ga0 Ti3 2.936439 1_555
Ga0 Ti2 2.936464 1_656
Ga0 Ti2 2.936468 1_666
Ga0 Ti2 2.936468 1_556
Ga1 Ti0 2.601133 1_565
Ga1 Ti0 2.601133 1_455
Ga1 Ti0 2.601140 1_555
Ga1 Ti1 2.725396 1_555
Ga1 Ti1 2.725398 1_554
Ga1 Ti3 2.936469 1_565
Ga1 Ti3 2.936473 1_555
Ga1 Ti3 2.936473 1_665
Ga1 Ti2 2.936498 1_565
Ga1 Ti2 2.936501 1_555
Ga1 Ti2 2.936501 1_665
