# generated using pymatgen
data_Ta2Nb2(SnPt)5
_symmetry_space_group_name_H-M   'P 1'
_cell_length_a   6.25300499
_cell_length_b   7.62314078
_cell_length_c   7.62639215
_cell_angle_alpha   80.33326441
_cell_angle_beta   114.20911118
_cell_angle_gamma   114.17491907
_symmetry_Int_Tables_number   1
_chemical_formula_structural   Ta2Nb2(SnPt)5
_chemical_formula_sum   'Ta2 Nb2 Sn5 Pt5'
_cell_volume   302.48250472
_cell_formula_units_Z   1
loop_
 _symmetry_equiv_pos_site_id
 _symmetry_equiv_pos_as_xyz
  1  'x, y, z'
loop_
 _atom_site_type_symbol
 _atom_site_label
 _atom_site_symmetry_multiplicity
 _atom_site_fract_x
 _atom_site_fract_y
 _atom_site_fract_z
 _atom_site_occupancy
  Ta  Ta0  1  0.20234140  0.79731738  0.60051178  1
  Ta  Ta1  1  0.59571936  0.39974180  0.79705003  1
  Nb  Nb0  1  0.39760893  0.60064307  0.20187101  1
  Nb  Nb1  1  0.80377968  0.20218612  0.39950210  1
  Sn  Sn0  1  0.49991743  0.99903840  0.00068217  1
  Sn  Sn1  1  0.90238007  0.63264623  0.19295847  1
  Sn  Sn2  1  0.28889679  0.19409654  0.36616079  1
  Sn  Sn3  1  0.73057764  0.80898874  0.63317895  1
  Sn  Sn4  1  0.07876011  0.36549361  0.80781716  1
  Pt  Pt0  1  0.93696767  0.32288126  0.10394395  1
  Pt  Pt1  1  0.38063067  0.89301754  0.32458555  1
  Pt  Pt2  1  0.75240496  0.50162611  0.50304548  1
  Pt  Pt3  1  0.17026015  0.10609397  0.67786616  1
  Pt  Pt4  1  0.50975214  0.67622624  0.89082640  1
loop_
_geom_bond_atom_site_label_1
_geom_bond_atom_site_label_2
_geom_bond_distance
_geom_bond_site_symmetry_2
Nb0 Pt1 2.613527 1_555
Nb0 Pt4 2.650490 1_554
Nb0 Pt0 2.666333 1_455
Nb0 Pt2 2.716149 1_555
Nb0 Sn2 3.050524 1_555
Nb0 Sn1 3.092941 1_555
Nb0 Sn0 3.104152 1_555
Nb0 Sn1 3.177117 1_455
Nb0 Sn4 3.191806 1_554
Nb0 Sn3 3.332631 1_555
Nb1 Pt0 2.614639 1_555
Nb1 Pt1 2.643277 1_545
Nb1 Pt3 2.675367 1_655
Nb1 Pt2 2.711342 1_555
Nb1 Sn4 3.059501 1_655
Nb1 Sn2 3.099242 1_555
Nb1 Sn0 3.113146 1_545
Nb1 Sn2 3.171953 1_655
Nb1 Sn3 3.181381 1_545
Nb1 Sn1 3.321570 1_555
Sn0 Ta0 3.117053 1_554
Sn0 Ta1 3.126086 1_564
Sn1 Ta0 3.058619 1_655
Sn1 Ta1 3.195186 1_554
Sn2 Ta0 3.205159 1_545
Sn2 Ta1 3.321608 1_555
Sn3 Ta1 3.066918 1_555
Sn3 Ta0 3.097949 1_655
Sn3 Ta0 3.173652 1_555
Sn4 Ta1 3.103761 1_455
Sn4 Ta1 3.169154 1_555
Sn4 Ta0 3.332215 1_555
Pt0 Ta1 2.615716 1_554
Pt0 Sn4 2.674291 1_654
Pt0 Sn1 2.675971 1_555
Pt0 Sn2 2.703069 1_655
Pt0 Sn0 2.746866 1_545
Pt1 Ta0 2.635448 1_555
Pt1 Sn3 2.674986 1_555
Pt1 Sn2 2.677540 1_565
Pt1 Sn1 2.689965 1_455
Pt1 Sn0 2.767386 1_555
Pt2 Ta1 2.680328 1_555
Pt2 Ta0 2.683713 1_655
Pt2 Sn3 2.765414 1_555
Pt2 Sn4 2.770958 1_655
Pt2 Sn1 2.779924 1_555
Pt2 Sn2 2.785911 1_555
Pt3 Ta1 2.595622 1_555
Pt3 Ta0 2.622787 1_545
Pt3 Sn2 2.674790 1_555
Pt3 Sn3 2.682405 1_445
Pt3 Sn4 2.696235 1_555
Pt3 Sn0 2.741760 1_546
Pt4 Ta0 2.593385 1_555
Pt4 Ta1 2.644286 1_555
Pt4 Sn4 2.674047 1_555
Pt4 Sn3 2.684140 1_555
Pt4 Sn1 2.686744 1_556
Pt4 Sn0 2.760441 1_556
