# generated using pymatgen
data_InSnRh6C
_symmetry_space_group_name_H-M   'P 1'
_cell_length_a   5.65851102
_cell_length_b   5.65851155
_cell_length_c   5.65851025
_cell_angle_alpha   59.99999626
_cell_angle_beta   59.99999317
_cell_angle_gamma   60.00000182
_symmetry_Int_Tables_number   1
_chemical_formula_structural   InSnRh6C
_chemical_formula_sum   'In1 Sn1 Rh6 C1'
_cell_volume   128.11248445
_cell_formula_units_Z   1
loop_
 _symmetry_equiv_pos_site_id
 _symmetry_equiv_pos_as_xyz
  1  'x, y, z'
loop_
 _atom_site_type_symbol
 _atom_site_label
 _atom_site_symmetry_multiplicity
 _atom_site_fract_x
 _atom_site_fract_y
 _atom_site_fract_z
 _atom_site_occupancy
  In  In0  1  0.75000000  0.75000000  0.75000000  1
  Sn  Sn0  1  0.25000000  0.25000000  0.25000000  1
  Rh  Rh0  1  0.75359062  0.75359062  0.24640938  1
  Rh  Rh1  1  0.75359062  0.24640938  0.24640938  1
  Rh  Rh2  1  0.24640938  0.75359062  0.24640938  1
  Rh  Rh3  1  0.24640938  0.24640938  0.75359062  1
  Rh  Rh4  1  0.75359062  0.24640938  0.75359062  1
  Rh  Rh5  1  0.24640938  0.75359062  0.75359062  1
  C  C0  1  0.50000000  0.50000000  0.50000000  1
loop_
_geom_bond_atom_site_label_1
_geom_bond_atom_site_label_2
_geom_bond_distance
_geom_bond_site_symmetry_2
In0 Rh2 2.829401 1_655
In0 Rh2 2.829401 1_556
In0 Rh0 2.829401 1_555
In0 Rh0 2.829401 1_556
In0 Rh1 2.829401 1_565
In0 Rh1 2.829401 1_556
In0 Rh5 2.829401 1_555
In0 Rh5 2.829401 1_655
In0 Rh3 2.829402 1_565
In0 Rh3 2.829402 1_655
In0 Rh4 2.829402 1_565
In0 Rh4 2.829402 1_555
Rh0 Sn0 2.829402 1_565
Rh0 Sn0 2.829402 1_655
Rh1 Sn0 2.829401 1_555
Rh1 Sn0 2.829401 1_655
Rh2 Sn0 2.829402 1_565
Rh2 Sn0 2.829402 1_555
Rh3 Sn0 2.829401 1_555
Rh3 Sn0 2.829401 1_556
Rh4 Sn0 2.829401 1_655
Rh4 Sn0 2.829401 1_556
Rh5 Sn0 2.829401 1_565
Rh5 Sn0 2.829401 1_556
C0 Rh0 2.029319 1_555
C0 Rh3 2.029319 1_555
C0 Rh5 2.029319 1_555
C0 Rh4 2.029319 1_555
C0 Rh1 2.029319 1_555
C0 Rh2 2.029319 1_555
