# generated using pymatgen
data_Cs2Zr(AgSe2)2
_symmetry_space_group_name_H-M   'P 1'
_cell_length_a   7.92752067
_cell_length_b   7.92752033
_cell_length_c   6.32151628
_cell_angle_alpha   90.00000000
_cell_angle_beta   90.00000000
_cell_angle_gamma   132.91178168
_symmetry_Int_Tables_number   1
_chemical_formula_structural   Cs2Zr(AgSe2)2
_chemical_formula_sum   'Cs2 Zr1 Ag2 Se4'
_cell_volume   290.96856202
_cell_formula_units_Z   1
loop_
 _symmetry_equiv_pos_site_id
 _symmetry_equiv_pos_as_xyz
  1  'x, y, z'
loop_
 _atom_site_type_symbol
 _atom_site_label
 _atom_site_symmetry_multiplicity
 _atom_site_fract_x
 _atom_site_fract_y
 _atom_site_fract_z
 _atom_site_occupancy
  Cs  Cs0  1  0.50000000  0.00000000  0.26571247  1
  Cs  Cs1  1  0.00000000  0.50000000  0.73428753  1
  Zr  Zr0  1  0.00000000  0.00000000  0.00000000  1
  Ag  Ag0  1  0.00000000  0.00000000  0.50000000  1
  Ag  Ag1  1  0.50000000  0.50000000  0.00000000  1
  Se  Se0  1  0.87161831  0.66578492  0.23053175  1
  Se  Se1  1  0.12838169  0.33421508  0.23053175  1
  Se  Se2  1  0.66578492  0.87161831  0.76946825  1
  Se  Se3  1  0.33421508  0.12838169  0.76946825  1
loop_
_geom_bond_atom_site_label_1
_geom_bond_atom_site_label_2
_geom_bond_distance
_geom_bond_site_symmetry_2
Cs0 Se1 3.729848 1_655
Cs0 Se0 3.729848 1_445
Cs0 Se2 3.798081 1_544
Cs0 Se3 3.798081 1_554
Cs0 Se2 3.837394 1_545
Cs0 Se3 3.837394 1_555
Cs0 Se0 3.925821 1_555
Cs0 Se1 3.925821 1_545
Cs1 Se2 3.729848 1_445
Cs1 Se3 3.729848 1_565
Cs1 Se1 3.798081 1_556
Cs1 Se0 3.798081 1_456
Cs1 Se0 3.837394 1_455
Cs1 Se1 3.837394 1_555
Cs1 Se2 3.925822 1_555
Cs1 Se3 3.925822 1_455
Ag0 Se1 2.699150 1_555
Ag0 Se0 2.699150 1_445
Ag0 Se3 2.699150 1_555
Ag0 Se2 2.699150 1_445
Ag1 Se3 2.693990 1_554
Ag1 Se2 2.693990 1_554
Ag1 Se0 2.693990 1_555
Ag1 Se1 2.693990 1_555
Se0 Zr0 2.550966 1_665
Se1 Zr0 2.550966 1_555
Se2 Zr0 2.550966 1_666
Se3 Zr0 2.550966 1_556
