# generated using pymatgen
data_Hf3Si3MoIr2
_symmetry_space_group_name_H-M   'P 1'
_cell_length_a   7.59583578
_cell_length_b   7.59583438
_cell_length_c   7.59583545
_cell_angle_alpha   126.62960312
_cell_angle_beta   122.91794004
_cell_angle_gamma   81.94770182
_symmetry_Int_Tables_number   1
_chemical_formula_structural   Hf3Si3MoIr2
_chemical_formula_sum   'Hf6 Si6 Mo2 Ir4'
_cell_volume   283.99161668
_cell_formula_units_Z   2
loop_
 _symmetry_equiv_pos_site_id
 _symmetry_equiv_pos_as_xyz
  1  'x, y, z'
loop_
 _atom_site_type_symbol
 _atom_site_label
 _atom_site_symmetry_multiplicity
 _atom_site_fract_x
 _atom_site_fract_y
 _atom_site_fract_z
 _atom_site_occupancy
  Hf  Hf0  1  0.46486743  0.69691834  0.73205091  1
  Hf  Hf1  1  0.53513257  0.26718449  0.23205091  1
  Hf  Hf2  1  0.74761274  0.83224221  0.58462947  1
  Hf  Hf3  1  0.25238726  0.83701573  0.08462947  1
  Hf  Hf4  1  0.05609730  0.26645055  0.71035225  1
  Hf  Hf5  1  0.94390270  0.65425496  0.21035225  1
  Si  Si0  1  0.27629003  0.26191301  0.48562297  1
  Si  Si1  1  0.72370997  0.20933094  0.98562297  1
  Si  Si2  1  0.32546577  0.58936478  0.25149939  1
  Si  Si3  1  0.67453423  0.92603462  0.26390001  1
  Si  Si4  1  0.16213461  0.92603462  0.75149939  1
  Si  Si5  1  0.83786539  0.58936478  0.76390001  1
  Mo  Mo0  1  0.50000000  0.49786537  0.99786537  1
  Mo  Mo1  1  0.00000000  0.49786537  0.49786537  1
  Ir  Ir0  1  0.09737920  0.25244622  0.09881460  1
  Ir  Ir1  1  0.90262080  0.00143540  0.15506802  1
  Ir  Ir2  1  0.34636738  0.00143540  0.59881460  1
  Ir  Ir3  1  0.65363262  0.25244622  0.65506802  1
loop_
_geom_bond_atom_site_label_1
_geom_bond_atom_site_label_2
_geom_bond_distance
_geom_bond_site_symmetry_2
Hf0 Si4 2.698071 1_555
Hf0 Si3 2.698072 1_556
Hf0 Si0 2.739508 1_555
Hf0 Si5 2.756006 1_555
Hf0 Si2 2.756008 1_555
Hf0 Ir2 2.899081 1_565
Hf0 Ir1 2.899081 1_566
Hf0 Mo0 3.062377 1_555
Hf0 Mo1 3.062377 1_555
Hf1 Si2 2.698061 1_555
Hf1 Si5 2.698070 1_555
Hf1 Si1 2.739501 1_554
Hf1 Si4 2.756008 1_544
Hf1 Si3 2.756011 1_545
Hf1 Ir0 2.899081 1_555
Hf1 Ir3 2.899091 1_555
Hf1 Mo0 3.062370 1_554
Hf1 Mo1 3.062375 1_655
Hf2 Si3 2.690966 1_555
Hf2 Si4 2.690968 1_655
Hf2 Si2 2.712281 1_555
Hf2 Si5 2.712286 1_555
Hf2 Si1 2.749435 1_565
Hf2 Mo1 2.927833 1_655
Hf2 Mo0 2.927833 1_554
Hf2 Ir3 2.953377 1_565
Hf2 Ir0 2.953381 1_666
Hf2 Ir2 3.169645 1_565
Hf2 Ir1 3.169645 1_566
Hf3 Si2 2.690960 1_555
Hf3 Si5 2.690966 1_454
Hf3 Si3 2.712280 1_555
Hf3 Si4 2.712292 1_554
Hf3 Si0 2.749445 1_565
Hf3 Mo0 2.927828 1_554
Hf3 Mo1 2.927833 1_554
Hf3 Ir2 2.953382 1_565
Hf3 Ir1 2.953386 1_465
Hf3 Ir0 3.169644 1_565
Hf3 Ir3 3.169645 1_565
Hf4 Si5 2.707905 1_455
Hf4 Si2 2.707910 1_556
Hf4 Si3 2.745866 1_445
Hf4 Si4 2.745866 1_545
Hf4 Ir3 2.859331 1_455
Hf4 Ir0 2.859339 1_556
Hf4 Mo1 2.881763 1_555
Hf4 Mo0 2.881768 1_555
Hf4 Ir1 2.895351 1_455
Hf4 Ir2 2.895355 1_555
Hf4 Si0 2.954522 1_555
Hf5 Si4 2.707911 1_655
Hf5 Si3 2.707916 1_555
Hf5 Si5 2.745859 1_554
Hf5 Si2 2.745867 1_655
Hf5 Ir1 2.859329 1_565
Hf5 Ir2 2.859329 1_665
Hf5 Mo1 2.881770 1_655
Hf5 Mo0 2.881770 1_554
Hf5 Ir3 2.895354 1_554
Hf5 Ir0 2.895358 1_655
Hf5 Si1 2.954538 1_554
Mo0 Si0 2.566059 1_555
Mo0 Si1 2.566070 1_555
Mo0 Si2 2.621513 1_556
Mo0 Si3 2.621517 1_556
Mo1 Si0 2.566059 1_555
Mo1 Si1 2.566060 1_454
Mo1 Si4 2.621519 1_555
Mo1 Si5 2.621519 1_455
Ir0 Si0 2.433135 1_555
Ir0 Si1 2.484886 1_454
Ir0 Si2 2.532311 1_555
Ir0 Si4 2.571492 1_544
Ir0 Mo1 2.918533 1_555
Ir1 Si1 2.433126 1_554
Ir1 Si0 2.484885 1_655
Ir1 Si3 2.532307 1_545
Ir1 Si5 2.571494 1_544
Ir1 Mo1 2.918532 1_655
Ir2 Si1 2.433139 1_555
Ir2 Si0 2.484885 1_555
Ir2 Si4 2.532301 1_545
Ir2 Si2 2.571497 1_545
Ir2 Mo0 2.918532 1_555
Ir3 Si0 2.433141 1_555
Ir3 Si1 2.484891 1_555
Ir3 Si5 2.532307 1_555
Ir3 Si3 2.571488 1_545
Ir3 Mo0 2.918533 1_555
