# generated using pymatgen
data_NdScO3
_symmetry_space_group_name_H-M   'P 1'
_cell_length_a   5.58038856
_cell_length_b   5.80995328
_cell_length_c   8.02978969
_cell_angle_alpha   90.00000000
_cell_angle_beta   90.00000000
_cell_angle_gamma   90.00000000
_symmetry_Int_Tables_number   1
_chemical_formula_structural   NdScO3
_chemical_formula_sum   'Nd4 Sc4 O12'
_cell_volume   260.34020982
_cell_formula_units_Z   4
loop_
 _symmetry_equiv_pos_site_id
 _symmetry_equiv_pos_as_xyz
  1  'x, y, z'
loop_
 _atom_site_type_symbol
 _atom_site_label
 _atom_site_symmetry_multiplicity
 _atom_site_fract_x
 _atom_site_fract_y
 _atom_site_fract_z
 _atom_site_occupancy
  Nd  Nd0  1  0.01538422  0.94341464  0.25000000  1
  Nd  Nd1  1  0.51538422  0.55658536  0.75000000  1
  Nd  Nd2  1  0.48461578  0.44341464  0.25000000  1
  Nd  Nd3  1  0.98461578  0.05658536  0.75000000  1
  Sc  Sc0  1  0.00000000  0.50000000  -0.00000000  1
  Sc  Sc1  1  0.50000000  0.00000000  -0.00000000  1
  Sc  Sc2  1  0.50000000  0.00000000  0.50000000  1
  Sc  Sc3  1  0.00000000  0.50000000  0.50000000  1
  O  O0  1  0.89017972  0.54120546  0.25000000  1
  O  O1  1  0.39017972  0.95879454  0.75000000  1
  O  O2  1  0.60982028  0.04120546  0.25000000  1
  O  O3  1  0.10982028  0.45879454  0.75000000  1
  O  O4  1  0.69793525  0.30072182  0.94224873  1
  O  O5  1  0.19793525  0.19927818  0.05775127  1
  O  O6  1  0.80206475  0.80072182  0.55775127  1
  O  O7  1  0.30206475  0.69927818  0.44224873  1
  O  O8  1  0.30206475  0.69927818  0.05775127  1
  O  O9  1  0.80206475  0.80072182  0.94224873  1
  O  O10  1  0.19793525  0.19927818  0.44224873  1
  O  O11  1  0.69793525  0.30072182  0.55775127  1
loop_
_geom_bond_atom_site_label_1
_geom_bond_atom_site_label_2
_geom_bond_distance
_geom_bond_site_symmetry_2
Nd0 O2 2.333431 1_465
Nd0 O10 2.372903 1_565
Nd0 O5 2.372903 1_565
Nd0 O0 2.439032 1_455
Nd0 O7 2.637102 1_555
Nd0 O8 2.637102 1_555
Nd0 O6 2.865500 1_455
Nd0 O9 2.865500 1_454
Nd1 O3 2.333431 1_555
Nd1 O4 2.372903 1_555
Nd1 O11 2.372903 1_555
Nd1 O1 2.439032 1_555
Nd1 O6 2.637102 1_555
Nd1 O9 2.637102 1_555
Nd1 O7 2.865500 1_555
Nd1 O8 2.865500 1_556
Nd2 O0 2.333431 1_555
Nd2 O7 2.372903 1_555
Nd2 O8 2.372903 1_555
Nd2 O2 2.439032 1_555
Nd2 O10 2.637102 1_555
Nd2 O5 2.637102 1_555
Nd2 O11 2.865500 1_555
Nd2 O4 2.865500 1_554
Nd3 O1 2.333431 1_645
Nd3 O9 2.372903 1_545
Nd3 O6 2.372903 1_545
Nd3 O3 2.439032 1_655
Nd3 O4 2.637102 1_555
Nd3 O11 2.637102 1_555
Nd3 O10 2.865500 1_655
Nd3 O5 2.865500 1_656
O0 Sc3 2.112518 1_655
O0 Sc0 2.112518 1_655
O1 Sc2 2.112518 1_565
O1 Sc1 2.112518 1_566
O2 Sc1 2.112518 1_555
O2 Sc2 2.112518 1_555
O3 Sc0 2.112518 1_556
O3 Sc3 2.112518 1_555
O4 Sc0 2.096883 1_656
O4 Sc1 2.118425 1_556
O5 Sc1 2.096883 1_555
O5 Sc0 2.118425 1_555
O6 Sc2 2.096883 1_565
O6 Sc3 2.118425 1_655
O7 Sc3 2.096883 1_555
O7 Sc2 2.118425 1_565
O8 Sc0 2.096883 1_555
O8 Sc1 2.118425 1_565
O9 Sc1 2.096883 1_566
O9 Sc0 2.118425 1_656
O10 Sc2 2.096883 1_555
O10 Sc3 2.118425 1_555
O11 Sc3 2.096883 1_655
O11 Sc2 2.118425 1_555
