# generated using pymatgen
data_Ti5Ga3
_symmetry_space_group_name_H-M   'P 1'
_cell_length_a   7.57679877
_cell_length_b   7.57679627
_cell_length_c   5.30151484
_cell_angle_alpha   90.00000253
_cell_angle_beta   90.00001804
_cell_angle_gamma   120.00012751
_symmetry_Int_Tables_number   1
_chemical_formula_structural   Ti5Ga3
_chemical_formula_sum   'Ti10 Ga6'
_cell_volume   263.57330246
_cell_formula_units_Z   2
loop_
 _symmetry_equiv_pos_site_id
 _symmetry_equiv_pos_as_xyz
  1  'x, y, z'
loop_
 _atom_site_type_symbol
 _atom_site_label
 _atom_site_symmetry_multiplicity
 _atom_site_fract_x
 _atom_site_fract_y
 _atom_site_fract_z
 _atom_site_occupancy
  Ti  Ti0  1  0.76189536  -0.00001251  0.74999910  1
  Ti  Ti1  1  0.76189423  0.76190925  0.25000112  1
  Ti  Ti2  1  0.00000738  0.23810332  0.25000130  1
  Ti  Ti3  1  0.00000599  0.76190402  0.74999933  1
  Ti  Ti4  1  0.23808971  0.23810596  0.74999926  1
  Ti  Ti5  1  0.23809057  0.99998704  0.25000075  1
  Ti  Ti6  1  0.33333611  0.66666619  0.00000011  1
  Ti  Ti7  1  0.66667114  0.33333415  0.50000033  1
  Ti  Ti8  1  0.66667062  0.33333395  -0.00000023  1
  Ti  Ti9  1  0.33333598  0.66666582  0.49999999  1
  Ga  Ga0  1  0.39445359  0.00000314  0.74999531  1
  Ga  Ga1  1  0.39445536  0.39444960  0.25000294  1
  Ga  Ga2  1  -0.00000663  0.60554754  0.25000149  1
  Ga  Ga3  1  -0.00000697  0.39444595  0.74999935  1
  Ga  Ga4  1  0.60555524  0.60555246  0.74999880  1
  Ga  Ga5  1  0.60555535  0.00000213  0.25000104  1
loop_
_geom_bond_atom_site_label_1
_geom_bond_atom_site_label_2
_geom_bond_distance
_geom_bond_site_symmetry_2
Ti0 Ti4 3.124641 1_655
Ti0 Ti3 3.124644 1_645
Ti0 Ti1 3.206305 1_545
Ti0 Ti1 3.206323 1_546
Ti0 Ti2 3.206457 1_655
Ti0 Ti2 3.206476 1_656
Ti0 Ti9 3.236957 1_545
Ti0 Ti6 3.236961 1_546
Ti0 Ti7 3.237068 1_555
Ti0 Ti8 3.237074 1_556
Ti1 Ti2 3.124638 1_665
Ti1 Ti5 3.124654 1_655
Ti1 Ti3 3.206462 1_655
Ti1 Ti3 3.206479 1_654
Ti1 Ti9 3.236941 1_555
Ti1 Ti6 3.236945 1_555
Ti1 Ti7 3.237098 1_555
Ti1 Ti8 3.237102 1_555
Ti2 Ti5 3.124680 1_545
Ti2 Ti4 3.206319 1_555
Ti2 Ti4 3.206338 1_554
Ti2 Ti9 3.236985 1_555
Ti2 Ti6 3.236993 1_555
Ti2 Ti7 3.237030 1_455
Ti2 Ti8 3.237037 1_455
Ti3 Ti4 3.124689 1_565
Ti3 Ti5 3.206332 1_555
Ti3 Ti5 3.206344 1_556
Ti3 Ti9 3.237023 1_555
Ti3 Ti6 3.237024 1_556
Ti3 Ti7 3.237033 1_455
Ti3 Ti8 3.237039 1_456
Ti4 Ti5 3.206485 1_545
Ti4 Ti5 3.206498 1_546
Ti4 Ti9 3.236946 1_555
Ti4 Ti6 3.236951 1_556
Ti4 Ti8 3.237130 1_556
Ti4 Ti7 3.237130 1_555
Ti5 Ti9 3.236996 1_555
Ti5 Ti6 3.236997 1_555
Ti5 Ti7 3.237110 1_565
Ti5 Ti8 3.237111 1_565
Ti6 Ti9 2.650757 1_555
Ti6 Ti9 2.650758 1_554
Ti7 Ti8 2.650754 1_556
Ti7 Ti8 2.650760 1_555
Ga0 Ti3 2.606706 1_545
Ga0 Ti4 2.606831 1_555
Ga0 Ti7 2.679563 1_555
Ga0 Ti8 2.679585 1_556
Ga0 Ti9 2.679597 1_545
Ga0 Ti6 2.679620 1_546
Ga0 Ti0 2.784092 1_555
Ga0 Ti5 2.903412 1_545
Ga0 Ti5 2.903466 1_546
Ga1 Ti2 2.606712 1_555
Ga1 Ti5 2.606796 1_545
Ga1 Ti7 2.679570 1_555
Ga1 Ti8 2.679583 1_555
Ga1 Ti9 2.679588 1_555
Ga1 Ti6 2.679605 1_555
Ga1 Ti1 2.784083 1_555
Ga1 Ti4 2.903420 1_555
Ga1 Ti4 2.903454 1_554
Ga2 Ti5 2.606655 1_555
Ga2 Ti1 2.606792 1_455
Ga2 Ti7 2.679527 1_455
Ga2 Ti8 2.679536 1_455
Ga2 Ti9 2.679639 1_555
Ga2 Ti6 2.679647 1_555
Ga2 Ti2 2.784103 1_555
Ga2 Ti3 2.903414 1_555
Ga2 Ti3 2.903435 1_554
Ga3 Ti4 2.606643 1_555
Ga3 Ti0 2.606770 1_455
Ga3 Ti7 2.679520 1_455
Ga3 Ti8 2.679528 1_456
Ga3 Ti9 2.679630 1_555
Ga3 Ti6 2.679634 1_556
Ga3 Ti3 2.784106 1_555
Ga3 Ti2 2.903413 1_555
Ga3 Ti2 2.903432 1_556
Ga4 Ti0 2.606627 1_565
Ga4 Ti3 2.606727 1_655
Ga4 Ti9 2.679587 1_555
Ga4 Ti7 2.679591 1_555
Ga4 Ti6 2.679595 1_556
Ga4 Ti8 2.679597 1_556
Ga4 Ti4 2.784134 1_555
Ga4 Ti1 2.903405 1_555
Ga4 Ti1 2.903427 1_556
Ga5 Ti1 2.606610 1_545
Ga5 Ti2 2.606735 1_655
Ga5 Ti7 2.679577 1_555
Ga5 Ti8 2.679583 1_555
Ga5 Ti9 2.679599 1_545
Ga5 Ti6 2.679602 1_545
Ga5 Ti5 2.784150 1_545
Ga5 Ti0 2.903406 1_555
Ga5 Ti0 2.903425 1_554
