# generated using pymatgen
data_SrCa3(H6Pd)2
_symmetry_space_group_name_H-M   'P 1'
_cell_length_a   7.25025310
_cell_length_b   7.25025327
_cell_length_c   5.28921462
_cell_angle_alpha   89.98582516
_cell_angle_beta   89.98582987
_cell_angle_gamma   137.21443834
_symmetry_Int_Tables_number   1
_chemical_formula_structural   SrCa3(H6Pd)2
_chemical_formula_sum   'Sr1 Ca3 H12 Pd2'
_cell_volume   188.85616442
_cell_formula_units_Z   1
loop_
 _symmetry_equiv_pos_site_id
 _symmetry_equiv_pos_as_xyz
  1  'x, y, z'
loop_
 _atom_site_type_symbol
 _atom_site_label
 _atom_site_symmetry_multiplicity
 _atom_site_fract_x
 _atom_site_fract_y
 _atom_site_fract_z
 _atom_site_occupancy
  Sr  Sr0  1  0.14843494  0.85156506  0.50000000  1
  Ca  Ca0  1  0.65470044  0.34529956  0.00000000  1
  Ca  Ca1  1  0.35161337  0.64838663  1.00000000  1
  Ca  Ca2  1  0.85041815  0.14958185  0.50000000  1
  H  H0  1  0.87601695  0.12398305  0.00000000  1
  H  H1  1  0.12229418  0.87770582  0.00000000  1
  H  H2  1  0.62157131  0.37842869  0.50000000  1
  H  H3  1  0.37459492  0.62540508  0.50000000  1
  H  H4  1  0.99889329  0.49000711  0.24368658  1
  H  H5  1  0.99741942  0.48846798  0.75675367  1
  H  H6  1  0.50999289  0.00110671  0.75631342  1
  H  H7  1  0.51153202  0.00258058  0.24324633  1
  H  H8  1  0.23218218  0.23880029  0.23242921  1
  H  H9  1  0.76119971  0.76781782  0.76757079  1
  H  H10  1  0.26453645  0.27116669  0.73701741  1
  H  H11  1  0.72883331  0.73546355  0.26298259  1
  Pd  Pd0  1  0.99832077  0.00167923  1.00000000  1
  Pd  Pd1  1  0.49744471  0.50255529  0.50000000  1
loop_
_geom_bond_atom_site_label_1
_geom_bond_atom_site_label_2
_geom_bond_distance
_geom_bond_site_symmetry_2
Ca0 H7 2.262504 1_555
Ca0 H5 2.262504 1_554
Ca0 H4 2.269092 1_555
Ca0 H6 2.269092 1_554
Ca0 H1 2.680548 1_545
Ca0 H1 2.680548 1_655
Ca0 H2 2.682167 1_554
Ca0 H2 2.682167 1_555
Ca0 H10 2.827784 1_554
Ca0 H11 2.827785 1_555
Ca0 H9 2.831525 1_554
Ca0 H8 2.831525 1_555
Ca1 H6 2.281903 1_565
Ca1 H4 2.281903 1_456
Ca1 H5 2.286103 1_455
Ca1 H7 2.286103 1_566
Ca1 H3 2.662747 1_556
Ca1 H3 2.662747 1_555
Ca1 H0 2.665044 1_566
Ca1 H0 2.665044 1_456
Ca1 H11 2.698372 1_556
Ca1 H10 2.698372 1_555
Ca1 H8 2.702416 1_556
Ca1 H9 2.702416 1_555
Ca2 H7 2.275022 1_555
Ca2 H5 2.275023 1_555
Ca2 H4 2.277355 1_555
Ca2 H6 2.277355 1_555
Ca2 H3 2.664667 1_655
Ca2 H3 2.664667 1_545
Ca2 H0 2.667096 1_556
Ca2 H0 2.667096 1_555
Ca2 H9 2.729860 1_545
Ca2 H8 2.729860 1_655
Ca2 H10 2.735140 1_655
Ca2 H11 2.735140 1_545
H0 Pd0 1.651279 1_554
H1 Pd0 1.673820 1_464
H1 Sr0 2.668054 1_555
H1 Sr0 2.668054 1_554
H2 Pd1 1.675889 1_555
H2 Sr0 2.669354 1_655
H2 Sr0 2.669354 1_545
H3 Pd1 1.658650 1_555
H4 Sr0 2.390791 1_655
H5 Sr0 2.395845 1_655
H6 Sr0 2.390791 1_545
H7 Sr0 2.395845 1_545
H8 Pd0 1.750807 1_454
H8 Pd1 1.990729 1_555
H8 Sr0 2.783768 1_545
H9 Pd0 1.750807 1_565
H9 Pd1 1.990729 1_555
H9 Sr0 2.783768 1_655
H10 Pd1 1.754225 1_555
H10 Pd0 1.984871 1_455
H10 Sr0 2.789063 1_545
H11 Pd1 1.754225 1_555
H11 Pd0 1.984871 1_564
H11 Sr0 2.789063 1_655
