# generated using pymatgen
data_Ta16Ni8CN3
_symmetry_space_group_name_H-M   'P 1'
_cell_length_a   8.17088960
_cell_length_b   8.18841304
_cell_length_c   8.17088984
_cell_angle_alpha   60.07076936
_cell_angle_beta   60.00000300
_cell_angle_gamma   60.07077065
_symmetry_Int_Tables_number   1
_chemical_formula_structural   Ta16Ni8CN3
_chemical_formula_sum   'Ta16 Ni8 C1 N3'
_cell_volume   386.97880939
_cell_formula_units_Z   1
loop_
 _symmetry_equiv_pos_site_id
 _symmetry_equiv_pos_as_xyz
  1  'x, y, z'
loop_
 _atom_site_type_symbol
 _atom_site_label
 _atom_site_symmetry_multiplicity
 _atom_site_fract_x
 _atom_site_fract_y
 _atom_site_fract_z
 _atom_site_occupancy
  Ta  Ta0  1  0.43296506  0.06786925  0.06620163  1
  Ta  Ta1  1  0.06572400  0.43415749  0.43439350  1
  Ta  Ta2  1  0.06572400  0.43415749  0.06572400  1
  Ta  Ta3  1  0.06620163  0.06786925  0.43296506  1
  Ta  Ta4  1  0.43296506  0.06786925  0.43296506  1
  Ta  Ta5  1  0.43439350  0.43415749  0.06572400  1
  Ta  Ta6  1  0.18427600  0.81584251  0.18427600  1
  Ta  Ta7  1  0.81703494  0.18213075  0.81703494  1
  Ta  Ta8  1  0.81703494  0.18213075  0.18379837  1
  Ta  Ta9  1  0.18379837  0.18213075  0.81703494  1
  Ta  Ta10  1  0.18427600  0.81584251  0.81560650  1
  Ta  Ta11  1  0.81560650  0.81584251  0.18427600  1
  Ta  Ta12  1  0.62500000  0.62500000  0.62500000  1
  Ta  Ta13  1  0.62500000  0.62500000  0.12500000  1
  Ta  Ta14  1  0.12500000  0.62500000  0.62500000  1
  Ta  Ta15  1  0.62500000  0.12500000  0.62500000  1
  Ni  Ni0  1  0.82963525  0.83098925  0.82963525  1
  Ni  Ni1  1  0.82963525  0.83098925  0.50973825  1
  Ni  Ni2  1  0.50973825  0.83098925  0.82963525  1
  Ni  Ni3  1  0.83068316  0.50795052  0.83068316  1
  Ni  Ni4  1  0.42036475  0.41901075  0.42036475  1
  Ni  Ni5  1  0.42036475  0.41901075  0.74026175  1
  Ni  Ni6  1  0.41931684  0.74204948  0.41931684  1
  Ni  Ni7  1  0.74026175  0.41901075  0.42036475  1
  C  C0  1  0.12500000  0.62500000  0.12500000  1
  N  N0  1  0.62500000  0.12500000  0.12500000  1
  N  N1  1  0.12500000  0.12500000  0.62500000  1
  N  N2  1  0.12500000  0.12500000  0.12500000  1
loop_
_geom_bond_atom_site_label_1
_geom_bond_atom_site_label_2
_geom_bond_distance
_geom_bond_site_symmetry_2
Ni0 Ta15 2.479839 1_565
Ni0 Ta13 2.486400 1_556
Ni0 Ta14 2.486400 1_655
Ni0 Ni2 2.613843 1_555
Ni0 Ni1 2.613843 1_555
Ni0 Ni3 2.636658 1_555
Ni0 Ta7 2.776385 1_565
Ni0 Ta10 2.783660 1_655
Ni0 Ta11 2.783660 1_556
Ni0 Ta3 3.034248 1_665
Ni0 Ta0 3.034248 1_566
Ni0 Ta2 3.035244 1_656
Ni1 Ta15 2.479848 1_565
Ni1 Ta12 2.486395 1_555
Ni1 Ta14 2.486408 1_655
Ni1 Ni2 2.613843 1_555
Ni1 Ni3 2.636667 1_555
Ni1 Ta8 2.776381 1_565
Ni1 Ta11 2.783635 1_555
Ni1 Ta6 2.783649 1_655
Ni1 Ta4 3.034238 1_565
Ni1 Ta3 3.034258 1_665
Ni1 Ta1 3.035241 1_655
Ni2 Ta15 2.479848 1_565
Ni2 Ta12 2.486395 1_555
Ni2 Ta13 2.486408 1_556
Ni2 Ni3 2.636667 1_555
Ni2 Ta9 2.776381 1_565
Ni2 Ta10 2.783635 1_555
Ni2 Ta6 2.783649 1_556
Ni2 Ta4 3.034238 1_565
Ni2 Ta0 3.034259 1_566
Ni2 Ta5 3.035241 1_556
Ni3 Ta14 2.485427 1_655
Ni3 Ta12 2.485427 1_555
Ni3 Ta13 2.485427 1_556
Ni3 Ta8 2.783703 1_556
Ni3 Ta9 2.783703 1_655
Ni3 Ta7 2.783707 1_555
Ni3 Ta2 3.018949 1_656
Ni3 Ta5 3.018956 1_556
Ni3 Ta1 3.018956 1_655
Ni4 Ta15 2.479839 1_555
Ni4 Ta13 2.486400 1_555
Ni4 Ta14 2.486400 1_555
Ni4 Ni7 2.613843 1_555
Ni4 Ni5 2.613843 1_555
Ni4 Ni6 2.636658 1_555
Ni4 Ta4 2.776385 1_555
Ni4 Ta1 2.783660 1_555
Ni4 Ta5 2.783660 1_555
Ni4 Ta9 3.034248 1_555
Ni4 Ta8 3.034248 1_555
Ni4 Ta6 3.035244 1_555
Ni5 Ta15 2.479848 1_555
Ni5 Ta12 2.486395 1_555
Ni5 Ta14 2.486408 1_555
Ni5 Ni7 2.613843 1_555
Ni5 Ni6 2.636667 1_555
Ni5 Ta0 2.776381 1_556
Ni5 Ta5 2.783635 1_556
Ni5 Ta2 2.783649 1_556
Ni5 Ta7 3.034238 1_555
Ni5 Ta9 3.034258 1_555
Ni5 Ta10 3.035241 1_555
Ni6 Ta14 2.485427 1_555
Ni6 Ta12 2.485427 1_555
Ni6 Ta13 2.485427 1_555
Ni6 Ni7 2.636667 1_555
Ni6 Ta0 2.783703 1_565
Ni6 Ta3 2.783703 1_565
Ni6 Ta4 2.783707 1_565
Ni6 Ta6 3.018949 1_555
Ni6 Ta11 3.018956 1_555
Ni6 Ta10 3.018956 1_555
Ni7 Ta15 2.479848 1_555
Ni7 Ta12 2.486395 1_555
Ni7 Ta13 2.486408 1_555
Ni7 Ta3 2.776381 1_655
Ni7 Ta1 2.783635 1_655
Ni7 Ta2 2.783649 1_655
Ni7 Ta7 3.034238 1_555
Ni7 Ta8 3.034259 1_555
Ni7 Ta11 3.035241 1_555
C0 Ta5 2.157836 1_555
C0 Ta11 2.157836 1_455
C0 Ta10 2.157836 1_554
C0 Ta1 2.157836 1_555
C0 Ta6 2.157841 1_555
C0 Ta2 2.157841 1_555
N0 Ta8 2.149957 1_555
N0 Ta0 2.149957 1_555
N0 Ta7 2.149963 1_554
N0 Ta4 2.149963 1_555
N0 Ta5 2.159939 1_555
N0 Ta11 2.159939 1_545
N1 Ta9 2.149957 1_555
N1 Ta3 2.149957 1_555
N1 Ta4 2.149963 1_555
N1 Ta7 2.149963 1_455
N1 Ta1 2.159939 1_555
N1 Ta10 2.159939 1_545
N2 Ta0 2.149965 1_555
N2 Ta8 2.149965 1_455
N2 Ta3 2.149965 1_555
N2 Ta9 2.149965 1_554
N2 Ta2 2.159936 1_555
N2 Ta6 2.159936 1_545
