# generated using pymatgen
data_Sr8TiTc3O16
_symmetry_space_group_name_H-M   'P 1'
_cell_length_a   5.54302199
_cell_length_b   8.86211376
_cell_length_c   8.86201121
_cell_angle_alpha   88.73264683
_cell_angle_beta   71.77628549
_cell_angle_gamma   108.22468799
_symmetry_Int_Tables_number   1
_chemical_formula_structural   Sr8TiTc3O16
_chemical_formula_sum   'Sr8 Ti1 Tc3 O16'
_cell_volume   389.26580942
_cell_formula_units_Z   1
loop_
 _symmetry_equiv_pos_site_id
 _symmetry_equiv_pos_as_xyz
  1  'x, y, z'
loop_
 _atom_site_type_symbol
 _atom_site_label
 _atom_site_symmetry_multiplicity
 _atom_site_fract_x
 _atom_site_fract_y
 _atom_site_fract_z
 _atom_site_occupancy
  Sr  Sr0  1  0.25061679  0.39636651  0.89500616  1
  Sr  Sr1  1  0.99999333  0.64496869  0.64494816  1
  Sr  Sr2  1  0.74931382  0.89493501  0.39644342  1
  Sr  Sr3  1  0.50005253  0.14723812  0.14712040  1
  Sr  Sr4  1  0.00000310  0.35502632  0.35505389  1
  Sr  Sr5  1  0.74939403  0.60364144  0.10498572  1
  Sr  Sr6  1  0.49995753  0.85276717  0.85287552  1
  Sr  Sr7  1  0.25067230  0.10505225  0.60356536  1
  Ti  Ti0  1  0.49999996  0.49999568  0.49999560  1
  Tc  Tc0  1  0.25043682  0.75043306  0.24960391  1
  Tc  Tc1  1  0.00000217  0.00000493  0.00000180  1
  Tc  Tc2  1  0.74956773  0.24956874  0.75039383  1
  O  O0  1  0.24970592  0.58832930  0.08893306  1
  O  O1  1  0.99982144  0.83777750  0.83811298  1
  O  O2  1  0.75055431  0.08915209  0.58806362  1
  O  O3  1  0.49986434  0.34168084  0.34187795  1
  O  O4  1  0.00017890  0.16223381  0.16188316  1
  O  O5  1  0.75029653  0.41168446  0.91105581  1
  O  O6  1  0.50013584  0.65831319  0.65811913  1
  O  O7  1  0.24944078  0.91083439  0.41195582  1
  O  O8  1  0.87839408  0.12577116  0.87405280  1
  O  O9  1  0.62147779  0.37548442  0.62460722  1
  O  O10  1  0.37851916  0.62450517  0.37538413  1
  O  O11  1  0.12160687  0.87423886  0.12595591  1
  O  O12  1  0.37503280  0.12400937  0.87580183  1
  O  O13  1  0.12760191  0.37723426  0.62289453  1
  O  O14  1  0.87239611  0.62276051  0.37710139  1
  O  O15  1  0.62496109  0.87599473  0.12420488  1
loop_
_geom_bond_atom_site_label_1
_geom_bond_atom_site_label_2
_geom_bond_distance
_geom_bond_site_symmetry_2
O0 Tc0 2.044904 1_555
O0 Sr0 2.444768 1_554
O0 Sr4 2.775812 1_555
O0 Sr5 2.778308 1_455
O0 Sr5 2.778948 1_555
O0 Sr6 2.779778 1_554
O1 Tc1 2.053389 1_666
O1 Sr1 2.445277 1_555
O1 Sr6 2.777792 1_555
O1 Sr6 2.778035 1_655
O1 Sr5 2.784534 1_556
O1 Sr7 2.789029 1_665
O2 Tc2 2.044740 1_555
O2 Sr2 2.444455 1_545
O2 Sr4 2.772854 1_655
O2 Sr7 2.778191 1_655
O2 Sr7 2.779095 1_555
O2 Sr6 2.783674 1_545
O3 Ti0 2.004709 1_555
O3 Sr3 2.465719 1_555
O3 Sr7 2.766434 1_555
O3 Sr5 2.769410 1_555
O3 Sr4 2.776303 1_555
O3 Sr4 2.776896 1_655
O4 Tc1 2.053351 1_555
O4 Sr4 2.445211 1_555
O4 Sr3 2.777864 1_555
O4 Sr3 2.777968 1_455
O4 Sr0 2.784543 1_554
O4 Sr2 2.789237 1_445
O5 Tc2 2.044924 1_555
O5 Sr5 2.444751 1_556
O5 Sr1 2.775639 1_555
O5 Sr0 2.778380 1_655
O5 Sr0 2.778879 1_555
O5 Sr3 2.779864 1_556
O6 Ti0 2.004763 1_555
O6 Sr6 2.465782 1_555
O6 Sr2 2.766330 1_555
O6 Sr0 2.769301 1_555
O6 Sr1 2.776291 1_555
O6 Sr1 2.776903 1_455
O7 Tc0 2.044782 1_555
O7 Sr7 2.444393 1_565
O7 Sr1 2.772714 1_455
O7 Sr2 2.778277 1_455
O7 Sr2 2.779018 1_555
O7 Sr3 2.783910 1_565
O8 Tc1 1.956503 1_656
O8 Tc2 1.959792 1_555
O8 Sr7 2.683379 1_655
O8 Sr0 2.684517 1_655
O8 Sr6 2.716770 1_545
O8 Sr3 2.717729 1_556
O9 Ti0 1.940719 1_555
O9 Tc2 1.981782 1_555
O9 Sr0 2.679333 1_555
O9 Sr7 2.679821 1_555
O9 Sr1 2.694354 1_555
O9 Sr4 2.695135 1_655
O10 Ti0 1.940719 1_555
O10 Tc0 1.981786 1_555
O10 Sr5 2.679316 1_555
O10 Sr2 2.679828 1_555
O10 Sr4 2.694294 1_555
O10 Sr1 2.695214 1_455
O11 Tc1 1.956519 1_565
O11 Tc0 1.959790 1_555
O11 Sr2 2.683355 1_455
O11 Sr5 2.684550 1_455
O11 Sr3 2.716731 1_565
O11 Sr6 2.717843 1_554
O12 Tc1 1.956284 1_556
O12 Tc2 1.959739 1_555
O12 Sr6 2.696977 1_545
O12 Sr3 2.697908 1_556
O12 Sr7 2.703613 1_555
O12 Sr0 2.704856 1_555
O13 Ti0 1.941012 1_555
O13 Tc2 1.981749 1_455
O13 Sr1 2.674322 1_455
O13 Sr4 2.675185 1_555
O13 Sr0 2.698710 1_555
O13 Sr7 2.699520 1_555
O14 Ti0 1.941002 1_555
O14 Tc0 1.981785 1_655
O14 Sr4 2.674315 1_655
O14 Sr1 2.675233 1_555
O14 Sr5 2.698708 1_555
O14 Sr2 2.699489 1_555
O15 Tc1 1.956342 1_665
O15 Tc0 1.959684 1_555
O15 Sr3 2.696940 1_565
O15 Sr6 2.697955 1_554
O15 Sr2 2.703609 1_555
O15 Sr5 2.704872 1_555
