# generated using pymatgen
data_Al4Mo
_symmetry_space_group_name_H-M   'P 1'
_cell_length_a   9.30282286
_cell_length_b   9.30282286
_cell_length_c   5.23831366
_cell_angle_alpha   87.18352263
_cell_angle_beta   87.18352263
_cell_angle_gamma   147.04825592
_symmetry_Int_Tables_number   1
_chemical_formula_structural   Al4Mo
_chemical_formula_sum   'Al12 Mo3'
_cell_volume   242.85554910
_cell_formula_units_Z   3
loop_
 _symmetry_equiv_pos_site_id
 _symmetry_equiv_pos_as_xyz
  1  'x, y, z'
loop_
 _atom_site_type_symbol
 _atom_site_label
 _atom_site_symmetry_multiplicity
 _atom_site_fract_x
 _atom_site_fract_y
 _atom_site_fract_z
 _atom_site_occupancy
  Al  Al0  1  0.83760700  0.83760700  0.52009000  1
  Al  Al1  1  0.48254000  0.48254000  0.15884800  1
  Al  Al2  1  0.24520100  0.39899000  0.69618200  1
  Al  Al3  1  0.39899000  0.24520100  0.69618200  1
  Al  Al4  1  0.04824700  0.28379100  0.22577200  1
  Al  Al5  1  0.28379100  0.04824700  0.22577200  1
  Al  Al6  1  0.67549700  0.92130300  0.82195500  1
  Al  Al7  1  0.92130300  0.67549700  0.82195500  1
  Al  Al8  1  0.05971400  0.53004600  0.59478800  1
  Al  Al9  1  0.53004600  0.05971400  0.59478800  1
  Al  Al10  1  0.20861600  0.70819800  0.08529100  1
  Al  Al11  1  0.70819800  0.20861600  0.08529100  1
  Mo  Mo0  1  0.99351300  0.99351300  0.00250400  1
  Mo  Mo1  1  0.51384900  0.78868700  0.34359200  1
  Mo  Mo2  1  0.78868700  0.51384900  0.34359200  1
loop_
_geom_bond_atom_site_label_1
_geom_bond_atom_site_label_2
_geom_bond_distance
_geom_bond_site_symmetry_2
Al0 Al6 2.690389 1_555
Al0 Al7 2.690389 1_555
Al0 Mo0 2.693499 1_555
Al0 Mo0 2.789819 1_556
Al0 Mo2 2.854449 1_555
Al0 Mo1 2.854449 1_555
Al0 Al1 2.884394 1_555
Al0 Al4 2.978177 1_665
Al0 Al5 2.978177 1_665
Al0 Al2 3.043564 1_555
Al0 Al3 3.043564 1_555
Al1 Al4 2.669245 1_555
Al1 Al5 2.669245 1_555
Al1 Mo0 2.678720 1_555
Al1 Mo2 2.835323 1_555
Al1 Mo1 2.835323 1_555
Al1 Mo0 2.839355 1_445
Al1 Al2 3.030470 1_554
Al1 Al3 3.030470 1_554
Al1 Al6 3.111505 1_554
Al1 Al7 3.111505 1_554
Al1 Al3 3.113823 1_555
Al1 Al2 3.113823 1_555
Al2 Mo1 2.546141 1_555
Al2 Mo0 2.549347 1_446
Al2 Al3 2.743855 1_555
Al2 Al4 2.825858 1_555
Al2 Al6 2.828182 1_555
Al2 Al6 2.848427 1_445
Al2 Al4 2.848591 1_556
Al2 Al8 2.881523 1_555
Al3 Mo2 2.546141 1_555
Al3 Mo0 2.549347 1_446
Al3 Al5 2.825858 1_555
Al3 Al7 2.828182 1_555
Al3 Al7 2.848427 1_445
Al3 Al5 2.848591 1_556
Al3 Al9 2.881523 1_555
Al4 Mo0 2.642082 1_445
Al4 Mo1 2.701996 1_445
Al4 Mo1 2.758223 1_555
Al4 Al8 3.006882 1_555
Al4 Al6 3.109311 1_444
Al5 Mo0 2.642082 1_445
Al5 Mo2 2.701996 1_445
Al5 Mo2 2.758223 1_555
Al5 Al9 3.006882 1_555
Al5 Al7 3.109311 1_444
Al6 Mo0 2.664631 1_556
Al6 Mo1 2.720530 1_556
Al6 Mo1 2.760993 1_555
Al6 Al9 2.799378 1_565
Al7 Mo0 2.664631 1_556
Al7 Mo2 2.720530 1_556
Al7 Mo2 2.760993 1_555
Al7 Al8 2.799378 1_655
Al8 Al9 2.690962 1_565
Al8 Al9 2.690962 1_455
Al8 Mo1 2.729836 1_555
Al8 Mo2 2.796270 1_455
Al9 Mo2 2.729836 1_555
Al9 Mo1 2.796270 1_545
Al10 Al11 2.638399 1_565
Al10 Al11 2.638399 1_455
Al10 Al8 2.671652 1_555
Al10 Mo1 2.713530 1_555
Al10 Al5 2.757595 1_565
Al10 Mo2 2.783379 1_455
Al10 Al4 2.841944 1_555
Al10 Al7 2.859781 1_454
Al10 Al8 2.860558 1_554
Al10 Al9 2.871499 1_564
Al10 Al6 3.064181 1_554
Al11 Al9 2.671652 1_555
Al11 Mo2 2.713530 1_555
Al11 Al4 2.757595 1_655
Al11 Mo1 2.783379 1_545
Al11 Al5 2.841944 1_555
Al11 Al6 2.859781 1_544
Al11 Al9 2.860558 1_554
Al11 Al8 2.871499 1_654
Al11 Al7 3.064181 1_554
