# generated using pymatgen
data_Zr6IrCl15
_symmetry_space_group_name_H-M   'P 1'
_cell_length_a   9.00328094
_cell_length_b   9.00328055
_cell_length_c   9.00327997
_cell_angle_alpha   109.47121931
_cell_angle_beta   109.47121844
_cell_angle_gamma   109.47122067
_symmetry_Int_Tables_number   1
_chemical_formula_structural   Zr6IrCl15
_chemical_formula_sum   'Zr6 Ir1 Cl15'
_cell_volume   561.79836260
_cell_formula_units_Z   1
loop_
 _symmetry_equiv_pos_site_id
 _symmetry_equiv_pos_as_xyz
  1  'x, y, z'
loop_
 _atom_site_type_symbol
 _atom_site_label
 _atom_site_symmetry_multiplicity
 _atom_site_fract_x
 _atom_site_fract_y
 _atom_site_fract_z
 _atom_site_occupancy
  Zr  Zr0  1  0.75436625  1.00000000  0.75436625  1
  Zr  Zr1  1  1.00000000  0.75436625  0.75436625  1
  Zr  Zr2  1  0.24563375  0.00000000  0.24563375  1
  Zr  Zr3  1  0.00000000  0.24563375  0.24563375  1
  Zr  Zr4  1  0.24563375  0.24563375  0.00000000  1
  Zr  Zr5  1  0.75436625  0.75436625  1.00000000  1
  Ir  Ir0  1  0.00000000  0.00000000  0.00000000  1
  Cl  Cl0  1  0.50637834  0.75318867  0.75318867  1
  Cl  Cl1  1  0.24681133  0.49362166  0.24681133  1
  Cl  Cl2  1  1.00000000  0.75318867  0.24681133  1
  Cl  Cl3  1  0.24681133  0.00000000  0.75318867  1
  Cl  Cl4  1  0.75318867  1.00000000  0.24681133  1
  Cl  Cl5  1  0.75318867  0.50637834  0.75318867  1
  Cl  Cl6  1  0.24681133  0.75318867  0.00000000  1
  Cl  Cl7  1  0.75318867  0.24681133  1.00000000  1
  Cl  Cl8  1  0.00000000  0.24681133  0.75318867  1
  Cl  Cl9  1  0.50000000  0.50000000  0.00000000  1
  Cl  Cl10  1  0.75318867  0.75318867  0.50637834  1
  Cl  Cl11  1  0.50000000  0.00000000  0.50000000  1
  Cl  Cl12  1  0.24681133  0.24681133  0.49362166  1
  Cl  Cl13  1  0.49362166  0.24681133  0.24681133  1
  Cl  Cl14  1  0.00000000  0.50000000  0.50000000  1
loop_
_geom_bond_atom_site_label_1
_geom_bond_atom_site_label_2
_geom_bond_distance
_geom_bond_site_symmetry_2
Ir0 Zr3 2.553631 1_555
Ir0 Zr1 2.553631 1_444
Ir0 Zr2 2.553631 1_555
Ir0 Zr0 2.553631 1_444
Ir0 Zr4 2.553631 1_555
Ir0 Zr5 2.553631 1_444
Cl0 Zr5 2.565898 1_555
Cl0 Zr0 2.565898 1_555
Cl1 Zr4 2.565897 1_555
Cl1 Zr3 2.565898 1_555
Cl2 Zr5 2.565903 1_554
Cl2 Zr2 2.565903 1_665
Cl3 Zr4 2.565903 1_556
Cl3 Zr1 2.565903 1_445
Cl4 Zr5 2.565903 1_554
Cl4 Zr3 2.565903 1_665
Cl5 Zr5 2.565897 1_555
Cl5 Zr1 2.565898 1_555
Cl6 Zr2 2.565903 1_565
Cl6 Zr1 2.565903 1_454
Cl7 Zr0 2.565903 1_545
Cl7 Zr3 2.565903 1_656
Cl8 Zr4 2.565903 1_556
Cl8 Zr0 2.565903 1_445
Cl9 Zr5 2.644415 1_554
Cl9 Zr4 2.644415 1_555
Cl10 Zr0 2.565897 1_555
Cl10 Zr1 2.565898 1_555
Cl11 Zr0 2.644415 1_545
Cl11 Zr2 2.644415 1_555
Cl12 Zr2 2.565897 1_555
Cl12 Zr3 2.565898 1_555
Cl13 Zr4 2.565898 1_555
Cl13 Zr2 2.565898 1_555
Cl14 Zr1 2.644415 1_455
Cl14 Zr3 2.644415 1_555
