# generated using pymatgen
data_Hf10CuSn6As
_symmetry_space_group_name_H-M   'P 1'
_cell_length_a   8.55247449
_cell_length_b   8.55247509
_cell_length_c   5.79555815
_cell_angle_alpha   90.00000000
_cell_angle_beta   90.00000000
_cell_angle_gamma   119.99999392
_symmetry_Int_Tables_number   1
_chemical_formula_structural   Hf10CuSn6As
_chemical_formula_sum   'Hf10 Cu1 Sn6 As1'
_cell_volume   367.12125702
_cell_formula_units_Z   1
loop_
 _symmetry_equiv_pos_site_id
 _symmetry_equiv_pos_as_xyz
  1  'x, y, z'
loop_
 _atom_site_type_symbol
 _atom_site_label
 _atom_site_symmetry_multiplicity
 _atom_site_fract_x
 _atom_site_fract_y
 _atom_site_fract_z
 _atom_site_occupancy
  Hf  Hf0  1  0.33333300  0.66666700  0.00000000  1
  Hf  Hf1  1  0.66666700  0.33333300  0.50000000  1
  Hf  Hf2  1  0.66666700  0.33333300  0.00000000  1
  Hf  Hf3  1  0.33333300  0.66666700  0.50000000  1
  Hf  Hf4  1  0.26136577  0.00000000  0.25290891  1
  Hf  Hf5  1  0.26136577  0.26136577  0.74709109  1
  Hf  Hf6  1  1.00000000  0.73863423  0.74709109  1
  Hf  Hf7  1  0.00000000  0.26136577  0.25290891  1
  Hf  Hf8  1  0.73863423  0.73863423  0.25290891  1
  Hf  Hf9  1  0.73863423  1.00000000  0.74709109  1
  Cu  Cu0  1  0.00000000  0.00000000  0.50000000  1
  Sn  Sn0  1  0.60831048  0.00000000  0.25157831  1
  Sn  Sn1  1  0.60831048  0.60831048  0.74842169  1
  Sn  Sn2  1  1.00000000  0.39168952  0.74842169  1
  Sn  Sn3  1  0.00000000  0.60831048  0.25157831  1
  Sn  Sn4  1  0.39168952  0.39168952  0.25157831  1
  Sn  Sn5  1  0.39168952  1.00000000  0.74842169  1
  As  As0  1  0.00000000  0.00000000  0.00000000  1
loop_
_geom_bond_atom_site_label_1
_geom_bond_atom_site_label_2
_geom_bond_distance
_geom_bond_site_symmetry_2
Hf0 Sn3 3.013192 1_555
Hf0 Sn5 3.013192 1_554
Hf0 Sn2 3.013195 1_454
Hf0 Sn0 3.013195 1_565
Hf0 Sn1 3.013199 1_554
Hf0 Sn4 3.013200 1_555
Hf1 Sn2 3.004382 1_555
Hf1 Sn0 3.004383 1_555
Hf1 Sn3 3.004385 1_655
Hf1 Sn5 3.004385 1_545
Hf1 Sn4 3.004390 1_555
Hf1 Sn1 3.004390 1_555
Hf2 Sn2 3.013192 1_554
Hf2 Sn0 3.013192 1_555
Hf2 Sn3 3.013195 1_655
Hf2 Sn5 3.013195 1_544
Hf2 Sn4 3.013199 1_555
Hf2 Sn1 3.013200 1_554
Hf3 Sn3 3.004382 1_555
Hf3 Sn5 3.004383 1_555
Hf3 Sn2 3.004385 1_455
Hf3 Sn0 3.004385 1_565
Hf3 Sn1 3.004390 1_555
Hf3 Sn4 3.004390 1_555
Hf4 Sn4 2.954745 1_555
Hf4 Sn3 2.954745 1_545
Hf4 Sn0 2.967246 1_555
Hf4 Sn5 3.080486 1_545
Hf4 Sn5 3.129030 1_544
Hf5 Sn2 2.954745 1_455
Hf5 Sn5 2.954745 1_545
Hf5 Sn1 2.967246 1_555
Hf5 Sn4 3.080486 1_555
Hf5 Sn4 3.129030 1_556
Hf6 Sn1 2.954745 1_555
Hf6 Sn5 2.954745 1_655
Hf6 Sn2 2.967246 1_555
Hf6 Sn3 3.080486 1_655
Hf6 Sn3 3.129030 1_656
Hf7 Sn4 2.954745 1_555
Hf7 Sn0 2.954745 1_455
Hf7 Sn3 2.967246 1_555
Hf7 Sn2 3.080486 1_455
Hf7 Sn2 3.129030 1_454
Hf8 Sn3 2.954745 1_655
Hf8 Sn0 2.954745 1_565
Hf8 Sn4 2.967246 1_555
Hf8 Sn1 3.080486 1_555
Hf8 Sn1 3.129030 1_554
Hf9 Sn1 2.954745 1_555
Hf9 Sn2 2.954745 1_565
Hf9 Sn5 2.967246 1_555
Hf9 Sn0 3.080486 1_565
Hf9 Sn0 3.129030 1_566
Cu0 Hf4 2.654691 1_555
Cu0 Hf9 2.654691 1_445
Cu0 Hf7 2.654691 1_555
Cu0 Hf6 2.654691 1_445
Cu0 Hf5 2.654692 1_555
Cu0 Hf8 2.654692 1_445
As0 Hf4 2.673030 1_555
As0 Hf9 2.673030 1_444
As0 Hf7 2.673031 1_555
As0 Hf6 2.673031 1_444
As0 Hf5 2.673031 1_554
As0 Hf8 2.673031 1_445
As0 Cu0 2.897779 1_555
As0 Cu0 2.897779 1_554
