# generated using pymatgen
data_V2Ni20B6Mo
_symmetry_space_group_name_H-M   'P 1'
_cell_length_a   7.34639292
_cell_length_b   7.34639255
_cell_length_c   7.34639240
_cell_angle_alpha   59.99999628
_cell_angle_beta   59.99999799
_cell_angle_gamma   59.99999695
_symmetry_Int_Tables_number   1
_chemical_formula_structural   V2Ni20B6Mo
_chemical_formula_sum   'V2 Ni20 B6 Mo1'
_cell_volume   280.35440154
_cell_formula_units_Z   1
loop_
 _symmetry_equiv_pos_site_id
 _symmetry_equiv_pos_as_xyz
  1  'x, y, z'
loop_
 _atom_site_type_symbol
 _atom_site_label
 _atom_site_symmetry_multiplicity
 _atom_site_fract_x
 _atom_site_fract_y
 _atom_site_fract_z
 _atom_site_occupancy
  V  V0  1  0.00000000  0.00000000  0.00000000  1
  V  V1  1  0.25000000  0.25000000  0.25000000  1
  Ni  Ni0  1  0.61554003  0.61554003  0.15337690  1
  Ni  Ni1  1  0.61554003  0.15337690  0.61554003  1
  Ni  Ni2  1  0.15337690  0.61554003  0.61554003  1
  Ni  Ni3  1  0.61554003  0.61554003  0.61554003  1
  Ni  Ni4  1  0.38026347  0.38026347  0.85921258  1
  Ni  Ni5  1  0.38026347  0.85921258  0.38026347  1
  Ni  Ni6  1  0.85921258  0.38026347  0.38026347  1
  Ni  Ni7  1  0.38026347  0.38026347  0.38026347  1
  Ni  Ni8  1  0.99929546  0.99929546  0.34134464  1
  Ni  Ni9  1  0.66006444  0.99929546  0.34134464  1
  Ni  Ni10  1  0.99929546  0.66006444  0.34134464  1
  Ni  Ni11  1  0.66006444  0.34134464  0.99929546  1
  Ni  Ni12  1  0.99929546  0.34134464  0.99929546  1
  Ni  Ni13  1  0.99929546  0.34134464  0.66006444  1
  Ni  Ni14  1  0.34134464  0.66006444  0.99929546  1
  Ni  Ni15  1  0.34134464  0.99929546  0.66006444  1
  Ni  Ni16  1  0.34134464  0.99929546  0.99929546  1
  Ni  Ni17  1  0.99929546  0.99929546  0.66006444  1
  Ni  Ni18  1  0.99929546  0.66006444  0.99929546  1
  Ni  Ni19  1  0.66006444  0.99929546  0.99929546  1
  B  B0  1  0.73217847  0.73217847  0.26782153  1
  B  B1  1  0.26782153  0.73217847  0.26782153  1
  B  B2  1  0.73217847  0.26782153  0.26782153  1
  B  B3  1  0.26782153  0.26782153  0.73217847  1
  B  B4  1  0.73217847  0.26782153  0.73217847  1
  B  B5  1  0.26782153  0.73217847  0.73217847  1
  Mo  Mo0  1  0.75000000  0.75000000  0.75000000  1
loop_
_geom_bond_atom_site_label_1
_geom_bond_atom_site_label_2
_geom_bond_distance
_geom_bond_site_symmetry_2
Ni4 V1 2.344062 1_556
Ni5 V1 2.344062 1_565
Ni6 V1 2.344062 1_655
Ni7 V1 2.344080 1_555
Ni8 V0 2.502487 1_665
Ni9 V0 2.502487 1_665
Ni10 V0 2.502486 1_665
Ni11 V0 2.502487 1_656
Ni12 V0 2.502487 1_656
Ni13 V0 2.502486 1_656
Ni14 V0 2.502487 1_566
Ni15 V0 2.502487 1_566
Ni16 V0 2.502487 1_566
Ni17 V0 2.502487 1_666
Ni18 V0 2.502487 1_666
Ni19 V0 2.502487 1_666
B0 Ni19 2.038963 1_554
B0 Ni18 2.038963 1_554
B0 Ni9 2.038964 1_555
B0 Ni10 2.038964 1_555
B0 Ni3 2.085742 1_555
B0 Ni0 2.085760 1_555
B0 Ni6 2.111801 1_555
B0 Ni5 2.111801 1_555
B1 Ni16 2.038963 1_554
B1 Ni14 2.038963 1_554
B1 Ni8 2.038963 1_455
B1 Ni10 2.038964 1_455
B1 Ni2 2.085742 1_555
B1 Ni0 2.085742 1_555
B1 Ni7 2.111800 1_555
B1 Ni5 2.111818 1_555
B2 Ni8 2.038963 1_545
B2 Ni11 2.038963 1_554
B2 Ni12 2.038964 1_554
B2 Ni9 2.038964 1_545
B2 Ni1 2.085742 1_555
B2 Ni0 2.085742 1_555
B2 Ni7 2.111800 1_555
B2 Ni6 2.111818 1_555
B3 Ni16 2.038963 1_545
B3 Ni12 2.038963 1_455
B3 Ni15 2.038964 1_545
B3 Ni13 2.038964 1_455
B3 Ni2 2.085742 1_555
B3 Ni1 2.085742 1_555
B3 Ni7 2.111800 1_555
B3 Ni4 2.111818 1_555
B4 Ni19 2.038963 1_545
B4 Ni17 2.038963 1_545
B4 Ni11 2.038963 1_555
B4 Ni13 2.038964 1_555
B4 Ni3 2.085742 1_555
B4 Ni1 2.085760 1_555
B4 Ni6 2.111801 1_555
B4 Ni4 2.111801 1_555
B5 Ni17 2.038963 1_455
B5 Ni14 2.038963 1_555
B5 Ni18 2.038964 1_455
B5 Ni15 2.038964 1_555
B5 Ni3 2.085742 1_555
B5 Ni2 2.085760 1_555
B5 Ni5 2.111801 1_555
B5 Ni4 2.111801 1_555
Mo0 Ni0 2.419577 1_556
Mo0 Ni1 2.419577 1_565
Mo0 Ni2 2.419577 1_655
Mo0 Ni3 2.419596 1_555
