# generated using pymatgen
data_HfZr3Ir2N
_symmetry_space_group_name_H-M   'P 1'
_cell_length_a   8.75890489
_cell_length_b   8.75890551
_cell_length_c   8.75890461
_cell_angle_alpha   60.00000342
_cell_angle_beta   60.00000107
_cell_angle_gamma   59.99999878
_symmetry_Int_Tables_number   1
_chemical_formula_structural   HfZr3Ir2N
_chemical_formula_sum   'Hf4 Zr12 Ir8 N4'
_cell_volume   475.15407838
_cell_formula_units_Z   4
loop_
 _symmetry_equiv_pos_site_id
 _symmetry_equiv_pos_as_xyz
  1  'x, y, z'
loop_
 _atom_site_type_symbol
 _atom_site_label
 _atom_site_symmetry_multiplicity
 _atom_site_fract_x
 _atom_site_fract_y
 _atom_site_fract_z
 _atom_site_occupancy
  Hf  Hf0  1  0.12500000  0.62500000  0.62500000  1
  Hf  Hf1  1  0.62500000  0.12500000  0.62500000  1
  Hf  Hf2  1  0.62500000  0.62500000  0.12500000  1
  Hf  Hf3  1  0.62500000  0.62500000  0.62500000  1
  Zr  Zr0  1  0.81489759  0.81489759  0.18510241  1
  Zr  Zr1  1  0.18510241  0.18510241  0.81489759  1
  Zr  Zr2  1  0.81489759  0.18510241  0.81489759  1
  Zr  Zr3  1  0.18510241  0.81489759  0.18510241  1
  Zr  Zr4  1  0.18510241  0.81489759  0.81489759  1
  Zr  Zr5  1  0.81489759  0.18510241  0.18510241  1
  Zr  Zr6  1  0.43510241  0.43510241  0.06489759  1
  Zr  Zr7  1  0.06489759  0.06489759  0.43510241  1
  Zr  Zr8  1  0.43510241  0.06489759  0.43510241  1
  Zr  Zr9  1  0.06489759  0.43510241  0.06489759  1
  Zr  Zr10  1  0.06489759  0.43510241  0.43510241  1
  Zr  Zr11  1  0.43510241  0.06489759  0.06489759  1
  Ir  Ir0  1  0.76172834  0.41275722  0.41275722  1
  Ir  Ir1  1  0.41275722  0.76172834  0.41275722  1
  Ir  Ir2  1  0.41275722  0.41275722  0.76172834  1
  Ir  Ir3  1  0.41275722  0.41275722  0.41275722  1
  Ir  Ir4  1  0.48827166  0.83724278  0.83724278  1
  Ir  Ir5  1  0.83724278  0.48827166  0.83724278  1
  Ir  Ir6  1  0.83724278  0.83724278  0.48827166  1
  Ir  Ir7  1  0.83724278  0.83724278  0.83724278  1
  N  N0  1  0.62500000  0.12500000  0.12500000  1
  N  N1  1  0.12500000  0.62500000  0.12500000  1
  N  N2  1  0.12500000  0.12500000  0.62500000  1
  N  N3  1  0.12500000  0.12500000  0.12500000  1
loop_
_geom_bond_atom_site_label_1
_geom_bond_atom_site_label_2
_geom_bond_distance
_geom_bond_site_symmetry_2
Hf0 Ir7 2.710968 1_455
Hf0 Ir3 2.710968 1_555
Hf0 Ir6 2.710968 1_455
Hf0 Ir2 2.710968 1_555
Hf0 Ir1 2.710969 1_555
Hf0 Ir5 2.710969 1_455
Hf1 Ir7 2.710968 1_545
Hf1 Ir3 2.710968 1_555
Hf1 Ir6 2.710968 1_545
Hf1 Ir2 2.710968 1_555
Hf1 Ir0 2.710969 1_555
Hf1 Ir4 2.710969 1_545
Hf2 Ir1 2.710968 1_555
Hf2 Ir5 2.710968 1_554
Hf2 Ir0 2.710968 1_555
Hf2 Ir4 2.710968 1_554
Hf2 Ir3 2.710969 1_555
Hf2 Ir7 2.710969 1_554
Hf3 Ir5 2.710968 1_555
Hf3 Ir1 2.710968 1_555
Hf3 Ir4 2.710968 1_555
Hf3 Ir0 2.710968 1_555
Hf3 Ir2 2.710969 1_555
Hf3 Ir6 2.710969 1_555
Ir0 Zr10 2.864554 1_655
Ir0 Zr9 2.864554 1_655
Ir0 Zr7 2.864554 1_655
Ir1 Zr7 2.864554 1_565
Ir1 Zr8 2.864554 1_565
Ir1 Zr11 2.864554 1_565
Ir2 Zr6 2.864554 1_556
Ir2 Zr9 2.864554 1_556
Ir2 Zr11 2.864554 1_556
Ir3 Zr6 2.864554 1_555
Ir3 Zr10 2.864554 1_555
Ir3 Zr8 2.864554 1_555
Ir4 Zr4 2.864554 1_555
Ir4 Zr3 2.864554 1_556
Ir4 Zr1 2.864554 1_565
Ir5 Zr1 2.864554 1_655
Ir5 Zr2 2.864554 1_555
Ir5 Zr5 2.864554 1_556
Ir6 Zr0 2.864554 1_555
Ir6 Zr3 2.864554 1_655
Ir6 Zr5 2.864554 1_565
Ir7 Zr0 2.864554 1_556
Ir7 Zr4 2.864554 1_655
Ir7 Zr2 2.864554 1_565
N0 Zr5 2.312825 1_555
N0 Zr11 2.312825 1_555
N0 Zr8 2.312825 1_555
N0 Zr2 2.312825 1_554
N0 Zr6 2.312825 1_555
N0 Zr0 2.312825 1_545
N1 Zr6 2.312825 1_555
N1 Zr0 2.312825 1_455
N1 Zr10 2.312825 1_555
N1 Zr4 2.312825 1_554
N1 Zr3 2.312825 1_555
N1 Zr9 2.312825 1_555
N2 Zr1 2.312825 1_555
N2 Zr7 2.312825 1_555
N2 Zr8 2.312825 1_555
N2 Zr2 2.312825 1_455
N2 Zr10 2.312825 1_555
N2 Zr4 2.312825 1_545
N3 Zr7 2.312825 1_555
N3 Zr1 2.312825 1_554
N3 Zr11 2.312825 1_555
N3 Zr5 2.312825 1_455
N3 Zr9 2.312825 1_555
N3 Zr3 2.312825 1_545
