# generated using pymatgen
data_NaHfCrSe4
_symmetry_space_group_name_H-M   'P 1'
_cell_length_a   7.46381347
_cell_length_b   14.49918810
_cell_length_c   6.43292301
_cell_angle_alpha   90.13581812
_cell_angle_beta   90.03511496
_cell_angle_gamma   89.56431342
_symmetry_Int_Tables_number   1
_chemical_formula_structural   NaHfCrSe4
_chemical_formula_sum   'Na4 Hf4 Cr4 Se16'
_cell_volume   696.14380395
_cell_formula_units_Z   4
loop_
 _symmetry_equiv_pos_site_id
 _symmetry_equiv_pos_as_xyz
  1  'x, y, z'
loop_
 _atom_site_type_symbol
 _atom_site_label
 _atom_site_symmetry_multiplicity
 _atom_site_fract_x
 _atom_site_fract_y
 _atom_site_fract_z
 _atom_site_occupancy
  Na  Na0  1  0.00090266  0.00049552  0.34068557  1
  Na  Na1  1  0.50027764  0.49915268  0.66730809  1
  Na  Na2  1  0.99523691  0.49965630  0.00856174  1
  Na  Na3  1  0.50693529  0.00019284  0.99066193  1
  Hf  Hf0  1  0.51122682  0.74727153  0.00084503  1
  Hf  Hf1  1  0.25020528  0.24981783  0.49964328  1
  Hf  Hf2  1  0.75011386  0.24986083  0.49972255  1
  Hf  Hf3  1  0.23791138  0.75136129  0.50061325  1
  Cr  Cr0  1  0.00047528  0.24877965  0.00007739  1
  Cr  Cr1  1  0.99892680  0.75198493  0.99940156  1
  Cr  Cr2  1  0.50008018  0.25083476  0.00067941  1
  Cr  Cr3  1  0.75045797  0.75013658  0.49869782  1
  Se  Se0  1  0.24959719  0.35093873  0.84552112  1
  Se  Se1  1  0.76192180  0.64806509  0.82276083  1
  Se  Se2  1  0.75274157  0.14845117  0.15455210  1
  Se  Se3  1  0.24342476  0.85504011  0.15837161  1
  Se  Se4  1  0.25126972  0.14837028  0.15454446  1
  Se  Se5  1  0.75721716  0.85204010  0.17379437  1
  Se  Se6  1  0.74775287  0.35089681  0.84593499  1
  Se  Se7  1  0.24426241  0.64550459  0.83909654  1
  Se  Se8  1  0.00183265  0.14504959  0.67493710  1
  Se  Se9  1  0.98672760  0.85238043  0.67308719  1
  Se  Se10  1  0.49845037  0.35502383  0.32567801  1
  Se  Se11  1  0.50638285  0.64559425  0.33881303  1
  Se  Se12  1  0.99840229  0.35424791  0.32641019  1
  Se  Se13  1  0.99114525  0.65022783  0.32399098  1
  Se  Se14  1  0.50183971  0.14567960  0.67368488  1
  Se  Se15  1  0.50428072  0.85294394  0.66192896  1
loop_
_geom_bond_atom_site_label_1
_geom_bond_atom_site_label_2
_geom_bond_distance
_geom_bond_site_symmetry_2
Na0 Se8 2.999195 1_555
Na0 Se3 3.005450 1_545
Na0 Se5 3.023261 1_445
Na0 Se9 3.036618 1_445
Na0 Se2 3.068476 1_455
Na0 Se4 3.098179 1_555
Na1 Se11 2.999803 1_555
Na1 Se10 3.029136 1_555
Na1 Se6 3.049867 1_555
Na1 Se7 3.050445 1_555
Na1 Se0 3.083609 1_555
Na1 Se1 3.086576 1_555
Na2 Se12 2.940391 1_555
Na2 Se13 2.977008 1_555
Na2 Se1 3.007337 1_554
Na2 Se7 3.031204 1_654
Na2 Se6 3.034176 1_554
Na2 Se0 3.046860 1_654
Na3 Se14 2.937370 1_555
Na3 Se15 3.001629 1_545
Na3 Se2 3.024109 1_556
Na3 Se4 3.049268 1_556
Na3 Se5 3.072472 1_546
Na3 Se3 3.088344 1_546
Hf0 Se1 2.614667 1_554
Hf0 Se11 2.630132 1_555
Hf0 Se5 2.635952 1_555
Hf0 Se15 2.667971 1_554
Hf0 Se7 2.695389 1_554
Hf0 Se3 2.722361 1_555
Hf1 Se14 2.650117 1_555
Hf1 Se12 2.651202 1_455
Hf1 Se10 2.658183 1_555
Hf1 Se8 2.658803 1_555
Hf1 Se4 2.660144 1_555
Hf1 Se0 2.661724 1_555
Hf2 Se14 2.649735 1_555
Hf2 Se12 2.649762 1_555
Hf2 Se10 2.658706 1_555
Hf2 Se8 2.659285 1_655
Hf2 Se2 2.660243 1_555
Hf2 Se6 2.662852 1_555
Hf3 Se9 2.616155 1_455
Hf3 Se13 2.619930 1_455
Hf3 Se7 2.667173 1_555
Hf3 Se3 2.669331 1_555
Hf3 Se15 2.689544 1_555
Hf3 Se11 2.720046 1_555
Cr0 Se2 2.563696 1_455
Cr0 Se4 2.563977 1_555
Cr0 Se8 2.573287 1_554
Cr0 Se0 2.586707 1_554
Cr0 Se6 2.587602 1_454
Cr0 Se12 2.594247 1_455
Cr1 Se9 2.558497 1_555
Cr1 Se13 2.560510 1_556
Cr1 Se5 2.563746 1_556
Cr1 Se3 2.576942 1_656
Cr1 Se1 2.592431 1_555
Cr1 Se7 2.598430 1_655
Cr2 Se0 2.561532 1_554
Cr2 Se6 2.561828 1_554
Cr2 Se10 2.576431 1_555
Cr2 Se4 2.585881 1_555
Cr2 Se2 2.588802 1_555
Cr2 Se14 2.595022 1_554
Cr3 Se13 2.558109 1_555
Cr3 Se1 2.560454 1_555
Cr3 Se5 2.563189 1_555
Cr3 Se9 2.568163 1_555
Cr3 Se15 2.579530 1_555
Cr3 Se11 2.589684 1_555
