# generated using pymatgen
data_CoHgTeO6
_symmetry_space_group_name_H-M   'P 1'
_cell_length_a   5.01203385
_cell_length_b   5.01201937
_cell_length_c   4.96864302
_cell_angle_alpha   89.79707352
_cell_angle_beta   89.79777819
_cell_angle_gamma   119.43292546
_symmetry_Int_Tables_number   1
_chemical_formula_structural   CoHgTeO6
_chemical_formula_sum   'Co1 Hg1 Te1 O6'
_cell_volume   108.70208843
_cell_formula_units_Z   1
loop_
 _symmetry_equiv_pos_site_id
 _symmetry_equiv_pos_as_xyz
  1  'x, y, z'
loop_
 _atom_site_type_symbol
 _atom_site_label
 _atom_site_symmetry_multiplicity
 _atom_site_fract_x
 _atom_site_fract_y
 _atom_site_fract_z
 _atom_site_occupancy
  Co  Co0  1  0.00459945  0.99538397  0.50000477  1
  Hg  Hg0  1  0.33490348  0.66509615  0.99999335  1
  Te  Te0  1  0.66562873  0.33442068  0.50000718  1
  O  O0  1  0.71019984  0.03639086  0.70999094  1
  O  O1  1  0.96196324  0.67942301  0.71307671  1
  O  O2  1  0.32632448  0.28780251  0.71509169  1
  O  O3  1  0.71220263  0.67366326  0.28490868  1
  O  O4  1  0.32056946  0.03801832  0.28692707  1
  O  O5  1  0.96360868  0.28980124  0.28999963  1
loop_
_geom_bond_atom_site_label_1
_geom_bond_atom_site_label_2
_geom_bond_distance
_geom_bond_site_symmetry_2
Co0 O1 1.824336 1_455
Co0 O4 1.824405 1_565
Co0 O3 1.894931 1_455
Co0 O2 1.894954 1_565
Co0 O0 1.896506 1_465
Co0 O5 1.896577 1_465
Hg0 O2 2.349696 1_555
Hg0 O3 2.349772 1_556
Hg0 O0 2.366245 1_565
Hg0 O5 2.366254 1_456
Hg0 O1 2.383551 1_455
Hg0 O4 2.383555 1_566
O0 Te0 1.920479 1_555
O1 Te0 1.953638 1_555
O2 Te0 1.919272 1_555
O3 Te0 1.919112 1_555
O4 Te0 1.953924 1_555
O5 Te0 1.920471 1_555
