# generated using pymatgen
data_SrCa7(VN3)4
_symmetry_space_group_name_H-M   'P 1'
_cell_length_a   5.94922161
_cell_length_b   5.95820718
_cell_length_c   11.68662695
_cell_angle_alpha   89.03714912
_cell_angle_beta   89.31448216
_cell_angle_gamma   123.80354108
_symmetry_Int_Tables_number   1
_chemical_formula_structural   SrCa7(VN3)4
_chemical_formula_sum   'Sr1 Ca7 V4 N12'
_cell_volume   344.06111740
_cell_formula_units_Z   1
loop_
 _symmetry_equiv_pos_site_id
 _symmetry_equiv_pos_as_xyz
  1  'x, y, z'
loop_
 _atom_site_type_symbol
 _atom_site_label
 _atom_site_symmetry_multiplicity
 _atom_site_fract_x
 _atom_site_fract_y
 _atom_site_fract_z
 _atom_site_occupancy
  Sr  Sr0  1  0.93332956  0.52251281  0.15133439  1
  Ca  Ca0  1  0.62039687  0.83951599  0.07532771  1
  Ca  Ca1  1  0.44741700  0.04825439  0.35691995  1
  Ca  Ca2  1  0.05916746  0.46281892  0.85150247  1
  Ca  Ca3  1  0.53560352  0.94575611  0.64748185  1
  Ca  Ca4  1  0.38901799  0.16197812  0.92116796  1
  Ca  Ca5  1  0.83702565  0.61514457  0.57810799  1
  Ca  Ca6  1  0.15223306  0.37976747  0.42377936  1
  V  V0  1  0.76793536  0.77005742  0.83514690  1
  V  V1  1  0.23188135  0.23598068  0.66183987  1
  V  V2  1  0.24244976  0.23423888  0.16127713  1
  V  V3  1  0.76055338  0.76392443  0.34009298  1
  N  N0  1  0.08772947  0.91671858  0.74836455  1
  N  N1  1  0.92226249  0.07562844  0.24896837  1
  N  N2  1  0.50594099  0.49691302  0.74841970  1
  N  N3  1  0.48512866  0.51133869  0.25140190  1
  N  N4  1  0.37083022  0.03472963  0.13076670  1
  N  N5  1  0.97323619  0.65063019  0.37562672  1
  N  N6  1  0.65912554  0.98595468  0.86988429  1
  N  N7  1  0.01322869  0.34270213  0.62974295  1
  N  N8  1  0.81301225  0.62861402  0.95729035  1
  N  N9  1  0.62272381  0.81579141  0.46234621  1
  N  N10  1  0.19793371  0.36772883  0.03528019  1
  N  N11  1  0.37183801  0.19330259  0.53792950  1
loop_
_geom_bond_atom_site_label_1
_geom_bond_atom_site_label_2
_geom_bond_distance
_geom_bond_site_symmetry_2
Ca0 N4 2.429173 1_565
Ca0 N6 2.504307 1_554
Ca0 N8 2.533321 1_554
Ca0 N10 2.578529 1_555
Ca0 N1 2.587313 1_565
Ca0 N3 2.603738 1_555
Ca1 N11 2.427963 1_555
Ca1 N9 2.470801 1_545
Ca1 N5 2.479915 1_445
Ca1 N4 2.682256 1_555
Ca1 N3 2.893813 1_555
Ca1 N1 2.998957 1_555
Ca2 N10 2.477357 1_556
Ca2 N6 2.495234 1_445
Ca2 N8 2.501242 1_455
Ca2 N7 2.676758 1_555
Ca2 N2 2.805644 1_555
Ca2 N0 2.858295 1_555
Ca3 N9 2.454695 1_555
Ca3 N7 2.490464 1_665
Ca3 N11 2.515775 1_565
Ca3 N6 2.687688 1_555
Ca3 N0 2.815054 1_555
Ca3 N2 2.817519 1_555
Ca4 N6 2.432016 1_545
Ca4 N10 2.478498 1_556
Ca4 N4 2.535065 1_556
Ca4 N8 2.555867 1_555
Ca4 N0 2.588029 1_545
Ca4 N2 2.613134 1_555
Ca5 N7 2.444098 1_655
Ca5 N5 2.459169 1_555
Ca5 N11 2.554958 1_555
Ca5 N9 2.562762 1_555
Ca5 N0 2.573202 1_655
Ca5 N2 2.579277 1_555
Ca6 N5 2.439524 1_455
Ca6 N7 2.501536 1_555
Ca6 N11 2.515511 1_555
Ca6 N3 2.592105 1_555
Ca6 N1 2.600369 1_455
Ca6 N9 2.601035 1_555
N0 V1 1.864365 1_565
N0 V0 1.867077 1_455
N1 V3 1.851962 1_545
N1 V2 1.868035 1_655
N1 Sr0 2.845500 1_555
N2 V1 1.836040 1_555
N2 V0 1.837398 1_555
N3 V2 1.833622 1_555
N3 V3 1.836659 1_555
N3 Sr0 2.864825 1_555
N4 V2 1.772418 1_555
N4 Sr0 2.695942 1_445
N4 Sr0 2.987299 1_555
N5 V3 1.783988 1_555
N5 Sr0 2.718520 1_555
N6 V0 1.782240 1_555
N7 V1 1.777967 1_555
N8 V0 1.743543 1_555
N8 Sr0 2.559047 1_556
N9 V3 1.754393 1_555
N10 V2 1.753648 1_555
N10 Sr0 2.602771 1_455
N11 V1 1.753290 1_555
