# generated using pymatgen
data_Mn2SCl12
_symmetry_space_group_name_H-M   'P 1'
_cell_length_a   10.64093661
_cell_length_b   8.28878187
_cell_length_c   8.86079783
_cell_angle_alpha   89.70914121
_cell_angle_beta   90.00000000
_cell_angle_gamma   90.00000000
_symmetry_Int_Tables_number   1
_chemical_formula_structural   Mn2SCl12
_chemical_formula_sum   'Mn4 S2 Cl24'
_cell_volume   781.51586476
_cell_formula_units_Z   2
loop_
 _symmetry_equiv_pos_site_id
 _symmetry_equiv_pos_as_xyz
  1  'x, y, z'
loop_
 _atom_site_type_symbol
 _atom_site_label
 _atom_site_symmetry_multiplicity
 _atom_site_fract_x
 _atom_site_fract_y
 _atom_site_fract_z
 _atom_site_occupancy
  Mn  Mn0  1  0.25000000  0.12798039  0.64152486  1
  Mn  Mn1  1  0.75000000  0.62364898  0.62241335  1
  Mn  Mn2  1  0.75000000  0.87201961  0.35847514  1
  Mn  Mn3  1  0.25000000  0.37635102  0.37758665  1
  S  S0  1  0.25000000  0.82760021  0.94252585  1
  S  S1  1  0.75000000  0.17239979  0.05747415  1
  Cl  Cl0  1  0.90035636  0.61721769  0.78863118  1
  Cl  Cl1  1  0.60344234  0.16540084  0.91609558  1
  Cl  Cl2  1  0.25000000  0.63344155  0.42014426  1
  Cl  Cl3  1  0.09964364  0.38278231  0.21136882  1
  Cl  Cl4  1  0.09824780  0.94975564  0.67637676  1
  Cl  Cl5  1  0.75000000  0.36655845  0.57985574  1
  Cl  Cl6  1  0.39500311  0.32942588  0.57882788  1
  Cl  Cl7  1  0.10344234  0.83459916  0.08390442  1
  Cl  Cl8  1  0.39655766  0.83459916  0.08390442  1
  Cl  Cl9  1  0.25000000  0.59940655  0.87446926  1
  Cl  Cl10  1  0.25000000  0.20171053  0.88197133  1
  Cl  Cl11  1  0.89500311  0.67057412  0.42117212  1
  Cl  Cl12  1  0.40035636  0.38278231  0.21136882  1
  Cl  Cl13  1  0.75000000  0.40059345  0.12553074  1
  Cl  Cl14  1  0.40175220  0.94975564  0.67637676  1
  Cl  Cl15  1  0.10499689  0.32942588  0.57882788  1
  Cl  Cl16  1  0.75000000  0.79828947  0.11802867  1
  Cl  Cl17  1  0.25000000  0.08708910  0.38144892  1
  Cl  Cl18  1  0.59824780  0.05024436  0.32362324  1
  Cl  Cl19  1  0.89655766  0.16540084  0.91609558  1
  Cl  Cl20  1  0.75000000  0.91291090  0.61855108  1
  Cl  Cl21  1  0.60499689  0.67057412  0.42117212  1
  Cl  Cl22  1  0.59964364  0.61721769  0.78863118  1
  Cl  Cl23  1  0.90175220  0.05024436  0.32362324  1
loop_
_geom_bond_atom_site_label_1
_geom_bond_atom_site_label_2
_geom_bond_distance
_geom_bond_site_symmetry_2
Cl0 Mn1 2.175094 1_555
Cl1 S1 2.001375 1_556
Cl2 Mn3 2.165960 1_555
Cl3 Mn3 2.175094 1_555
Cl4 Mn0 2.209204 1_565
Cl5 Mn1 2.165960 1_555
Cl6 Mn0 2.338373 1_555
Cl6 Mn3 2.388440 1_555
Cl7 S0 2.001375 1_554
Cl8 S0 2.001375 1_554
Cl9 S0 1.988166 1_555
Cl10 Mn0 2.219445 1_555
Cl11 Mn2 2.338373 1_555
Cl11 Mn1 2.388440 1_555
Cl12 Mn3 2.175094 1_555
Cl13 S1 1.988166 1_555
Cl14 Mn0 2.209204 1_565
Cl15 Mn0 2.338373 1_555
Cl15 Mn3 2.388440 1_555
Cl16 Mn2 2.219445 1_555
Cl17 Mn0 2.330974 1_555
Cl17 Mn3 2.397699 1_555
Cl18 Mn2 2.209204 1_545
Cl19 S1 2.001375 1_556
Cl20 Mn2 2.330974 1_555
Cl20 Mn1 2.397699 1_555
Cl21 Mn2 2.338373 1_555
Cl21 Mn1 2.388440 1_555
Cl22 Mn1 2.175094 1_555
Cl23 Mn2 2.209204 1_545
