# generated using pymatgen
data_Zr3AlAuO
_symmetry_space_group_name_H-M   'P 1'
_cell_length_a   7.35390256
_cell_length_b   7.35390256
_cell_length_c   7.35390256
_cell_angle_alpha   90.00000000
_cell_angle_beta   90.00000000
_cell_angle_gamma   90.00000000
_symmetry_Int_Tables_number   1
_chemical_formula_structural   Zr3AlAuO
_chemical_formula_sum   'Zr12 Al4 Au4 O4'
_cell_volume   397.69818954
_cell_formula_units_Z   4
loop_
 _symmetry_equiv_pos_site_id
 _symmetry_equiv_pos_as_xyz
  1  'x, y, z'
loop_
 _atom_site_type_symbol
 _atom_site_label
 _atom_site_symmetry_multiplicity
 _atom_site_fract_x
 _atom_site_fract_y
 _atom_site_fract_z
 _atom_site_occupancy
  Zr  Zr0  1  0.78868287  0.95386757  0.37694447  1
  Zr  Zr1  1  0.71131713  0.04613243  0.87694447  1
  Zr  Zr2  1  0.21131713  0.45386757  0.12305553  1
  Zr  Zr3  1  0.28868287  0.54613243  0.62305553  1
  Zr  Zr4  1  0.95386757  0.37694447  0.78868287  1
  Zr  Zr5  1  0.04613243  0.87694447  0.71131713  1
  Zr  Zr6  1  0.45386757  0.12305553  0.21131713  1
  Zr  Zr7  1  0.54613243  0.62305553  0.28868287  1
  Zr  Zr8  1  0.37694447  0.78868287  0.95386757  1
  Zr  Zr9  1  0.87694447  0.71131713  0.04613243  1
  Zr  Zr10  1  0.12305553  0.21131713  0.45386757  1
  Zr  Zr11  1  0.62305553  0.28868287  0.54613243  1
  Al  Al0  1  0.57307804  0.42692196  0.92692196  1
  Al  Al1  1  0.42692196  0.92692196  0.57307804  1
  Al  Al2  1  0.92692196  0.57307804  0.42692196  1
  Al  Al3  1  0.07307804  0.07307804  0.07307804  1
  Au  Au0  1  0.18117849  0.81882151  0.31882151  1
  Au  Au1  1  0.31882151  0.18117849  0.81882151  1
  Au  Au2  1  0.81882151  0.31882151  0.18117849  1
  Au  Au3  1  0.68117849  0.68117849  0.68117849  1
  O  O0  1  0.87599834  0.12400166  0.62400166  1
  O  O1  1  0.62400166  0.87599834  0.12400166  1
  O  O2  1  0.12400166  0.62400166  0.87599834  1
  O  O3  1  0.37599834  0.37599834  0.37599834  1
loop_
_geom_bond_atom_site_label_1
_geom_bond_atom_site_label_2
_geom_bond_distance
_geom_bond_site_symmetry_2
Al0 Au2 2.719174 1_556
Al0 Au3 2.719174 1_555
Al0 Au1 2.719174 1_555
Al1 Au1 2.719174 1_565
Al1 Au3 2.719174 1_555
Al1 Au0 2.719174 1_555
Al2 Au0 2.719174 1_655
Al2 Au3 2.719174 1_555
Al2 Au2 2.719174 1_555
Al3 Au1 2.719174 1_554
Al3 Au0 2.719174 1_545
Al3 Au2 2.719174 1_455
Au0 Zr8 3.053633 1_554
Au0 Zr7 3.053633 1_555
Au0 Zr2 3.053633 1_555
Au0 Zr0 3.082229 1_455
Au0 Zr10 3.082229 1_565
Au0 Zr5 3.082229 1_555
Au0 Zr6 3.106751 1_565
Au0 Zr9 3.106751 1_455
Au0 Zr3 3.106751 1_555
Au1 Zr4 3.053633 1_455
Au1 Zr3 3.053633 1_555
Au1 Zr10 3.053633 1_555
Au1 Zr8 3.082229 1_545
Au1 Zr6 3.082229 1_556
Au1 Zr1 3.082229 1_555
Au1 Zr2 3.106751 1_556
Au1 Zr5 3.106751 1_545
Au1 Zr11 3.106751 1_555
Au2 Zr0 3.053633 1_545
Au2 Zr6 3.053633 1_555
Au2 Zr11 3.053633 1_555
Au2 Zr2 3.082229 1_655
Au2 Zr4 3.082229 1_554
Au2 Zr9 3.082229 1_555
Au2 Zr10 3.106751 1_655
Au2 Zr1 3.106751 1_554
Au2 Zr7 3.106751 1_555
Au3 Zr5 3.053633 1_655
Au3 Zr1 3.053633 1_565
Au3 Zr9 3.053633 1_556
Au3 Zr11 3.082229 1_555
Au3 Zr7 3.082229 1_555
Au3 Zr3 3.082229 1_555
Au3 Zr8 3.106751 1_555
Au3 Zr0 3.106751 1_555
Au3 Zr4 3.106751 1_555
O0 Zr1 2.292290 1_555
O0 Zr4 2.292290 1_555
O0 Zr11 2.292290 1_555
O0 Zr10 2.297513 1_655
O0 Zr5 2.297513 1_645
O0 Zr0 2.297513 1_545
O1 Zr9 2.292290 1_555
O1 Zr7 2.292290 1_555
O1 Zr0 2.292290 1_555
O1 Zr1 2.297513 1_564
O1 Zr6 2.297513 1_565
O1 Zr8 2.297513 1_554
O2 Zr5 2.292290 1_555
O2 Zr3 2.292290 1_555
O2 Zr8 2.292290 1_555
O2 Zr2 2.297513 1_556
O2 Zr9 2.297513 1_456
O2 Zr4 2.297513 1_455
O3 Zr2 2.292290 1_555
O3 Zr6 2.292290 1_555
O3 Zr10 2.292290 1_555
O3 Zr7 2.297513 1_555
O3 Zr11 2.297513 1_555
O3 Zr3 2.297513 1_555
