# generated using pymatgen
data_Zr2ScTiFe8
_symmetry_space_group_name_H-M   'P 1'
_cell_length_a   8.58945988
_cell_length_b   8.58945999
_cell_length_c   8.58945890
_cell_angle_alpha   33.54735544
_cell_angle_beta   33.54735600
_cell_angle_gamma   33.54736671
_symmetry_Int_Tables_number   1
_chemical_formula_structural   Zr2ScTiFe8
_chemical_formula_sum   'Zr2 Sc1 Ti1 Fe8'
_cell_volume   172.38365403
_cell_formula_units_Z   1
loop_
 _symmetry_equiv_pos_site_id
 _symmetry_equiv_pos_as_xyz
  1  'x, y, z'
loop_
 _atom_site_type_symbol
 _atom_site_label
 _atom_site_symmetry_multiplicity
 _atom_site_fract_x
 _atom_site_fract_y
 _atom_site_fract_z
 _atom_site_occupancy
  Zr  Zr0  1  0.99925907  0.99925907  0.99925907  1
  Zr  Zr1  1  0.50068068  0.50068068  0.50068068  1
  Sc  Sc0  1  0.37521889  0.37521889  0.37521889  1
  Ti  Ti0  1  0.87464020  0.87464020  0.87464020  1
  Fe  Fe0  1  0.43659975  0.93686314  0.43659975  1
  Fe  Fe1  1  0.93778489  0.43934333  0.93778489  1
  Fe  Fe2  1  0.43659975  0.43659975  0.93686314  1
  Fe  Fe3  1  0.93778489  0.93778489  0.43934333  1
  Fe  Fe4  1  0.18768835  0.18768835  0.18768835  1
  Fe  Fe5  1  0.68753804  0.68753804  0.68753804  1
  Fe  Fe6  1  0.93686314  0.43659975  0.43659975  1
  Fe  Fe7  1  0.43934333  0.93778489  0.93778489  1
loop_
_geom_bond_atom_site_label_1
_geom_bond_atom_site_label_2
_geom_bond_distance
_geom_bond_site_symmetry_2
Sc0 Zr0 3.043922 1_445
Sc0 Zr0 3.043922 1_454
Sc0 Zr0 3.043922 1_544
Sc0 Zr1 3.048161 1_555
Ti0 Zr0 3.027682 1_555
Ti0 Zr1 3.027732 1_556
Ti0 Zr1 3.027733 1_565
Ti0 Zr1 3.027733 1_655
Fe0 Fe4 2.459131 1_565
Fe0 Fe2 2.477543 1_564
Fe0 Fe6 2.477544 1_465
Fe0 Fe2 2.480155 1_555
Fe0 Fe6 2.480156 1_555
Fe0 Fe5 2.496719 1_555
Fe0 Zr1 2.876276 1_555
Fe0 Ti0 2.901236 1_554
Fe0 Ti0 2.901236 1_455
Fe0 Zr0 2.907873 1_455
Fe0 Zr0 2.907873 1_554
Fe0 Sc0 2.928891 1_565
Fe1 Fe4 2.469769 1_656
Fe1 Fe3 2.471123 1_555
Fe1 Fe7 2.471124 1_555
Fe1 Fe3 2.486575 1_546
Fe1 Fe7 2.486576 1_645
Fe1 Fe5 2.492055 1_555
Fe1 Ti0 2.880624 1_555
Fe1 Zr1 2.905400 1_556
Fe1 Zr1 2.905400 1_655
Fe1 Sc0 2.914424 1_655
Fe1 Sc0 2.914424 1_556
Fe1 Zr0 2.942335 1_545
Fe2 Fe4 2.459131 1_556
Fe2 Fe6 2.477543 1_456
Fe2 Fe6 2.480155 1_555
Fe2 Fe5 2.496719 1_555
Fe2 Zr1 2.876276 1_555
Fe2 Ti0 2.901237 1_455
Fe2 Ti0 2.901237 1_545
Fe2 Zr0 2.907874 1_545
Fe2 Zr0 2.907874 1_455
Fe2 Sc0 2.928891 1_556
Fe3 Fe4 2.469769 1_665
Fe3 Fe7 2.471123 1_555
Fe3 Fe7 2.486575 1_654
Fe3 Fe5 2.492055 1_555
Fe3 Ti0 2.880623 1_555
Fe3 Zr1 2.905401 1_655
Fe3 Zr1 2.905401 1_565
Fe3 Sc0 2.914425 1_565
Fe3 Sc0 2.914425 1_655
Fe3 Zr0 2.942334 1_554
Fe4 Fe6 2.459131 1_455
Fe4 Fe7 2.469769 1_544
Fe4 Ti0 2.904447 1_445
Fe4 Ti0 2.904448 1_454
Fe4 Ti0 2.904448 1_544
Fe4 Zr1 2.904677 1_554
Fe4 Zr1 2.904678 1_545
Fe4 Zr1 2.904678 1_455
Fe5 Fe7 2.492055 1_555
Fe5 Fe6 2.496719 1_555
Fe5 Sc0 2.907505 1_556
Fe5 Sc0 2.907506 1_565
Fe5 Sc0 2.907506 1_655
Fe5 Zr0 2.910091 1_554
Fe5 Zr0 2.910093 1_545
Fe5 Zr0 2.910093 1_455
Fe6 Zr1 2.876276 1_555
Fe6 Ti0 2.901236 1_554
Fe6 Ti0 2.901236 1_545
Fe6 Zr0 2.907873 1_545
Fe6 Zr0 2.907874 1_554
Fe6 Sc0 2.928891 1_655
Fe7 Ti0 2.880624 1_555
Fe7 Zr1 2.905400 1_556
Fe7 Zr1 2.905400 1_565
Fe7 Sc0 2.914424 1_565
Fe7 Sc0 2.914424 1_556
Fe7 Zr0 2.942335 1_455
