# generated using pymatgen
data_CsAlSb4
_symmetry_space_group_name_H-M   'P 1'
_cell_length_a   4.28428428
_cell_length_b   10.95102713
_cell_length_c   18.83133666
_cell_angle_alpha   90.00000000
_cell_angle_beta   90.00000000
_cell_angle_gamma   90.00000000
_symmetry_Int_Tables_number   1
_chemical_formula_structural   CsAlSb4
_chemical_formula_sum   'Cs4 Al4 Sb16'
_cell_volume   883.51572305
_cell_formula_units_Z   4
loop_
 _symmetry_equiv_pos_site_id
 _symmetry_equiv_pos_as_xyz
  1  'x, y, z'
loop_
 _atom_site_type_symbol
 _atom_site_label
 _atom_site_symmetry_multiplicity
 _atom_site_fract_x
 _atom_site_fract_y
 _atom_site_fract_z
 _atom_site_occupancy
  Cs  Cs0  1  0.75000000  0.17590672  0.43149666  1
  Cs  Cs1  1  0.25000000  0.82409328  0.56850334  1
  Cs  Cs2  1  0.75000000  0.67590672  0.06850334  1
  Cs  Cs3  1  0.25000000  0.32409328  0.93149666  1
  Al  Al0  1  0.75000000  0.32928438  0.63334932  1
  Al  Al1  1  0.25000000  0.67071562  0.36665068  1
  Al  Al2  1  0.75000000  0.82928438  0.86665068  1
  Al  Al3  1  0.25000000  0.17071562  0.13334932  1
  Sb  Sb0  1  0.75000000  0.81454228  0.38914694  1
  Sb  Sb1  1  0.25000000  0.18545772  0.61085306  1
  Sb  Sb2  1  0.75000000  0.31454228  0.11085306  1
  Sb  Sb3  1  0.25000000  0.68545772  0.88914694  1
  Sb  Sb4  1  0.75000000  0.41339943  0.76783945  1
  Sb  Sb5  1  0.25000000  0.58660057  0.23216055  1
  Sb  Sb6  1  0.75000000  0.91339943  0.73216055  1
  Sb  Sb7  1  0.25000000  0.08660057  0.26783945  1
  Sb  Sb8  1  0.75000000  0.52927012  0.54827815  1
  Sb  Sb9  1  0.25000000  0.47072988  0.45172185  1
  Sb  Sb10  1  0.75000000  0.02927012  0.95172185  1
  Sb  Sb11  1  0.25000000  0.97072988  0.04827815  1
  Sb  Sb12  1  0.75000000  0.91302338  0.24846242  1
  Sb  Sb13  1  0.25000000  0.08697662  0.75153758  1
  Sb  Sb14  1  0.75000000  0.41302338  0.25153758  1
  Sb  Sb15  1  0.25000000  0.58697662  0.74846242  1
loop_
_geom_bond_atom_site_label_1
_geom_bond_atom_site_label_2
_geom_bond_distance
_geom_bond_site_symmetry_2
Cs0 Sb7 3.878563 1_655
Cs0 Sb7 3.878563 1_555
Cs0 Sb9 3.893302 1_555
Cs0 Sb9 3.893302 1_655
Cs0 Sb1 4.000920 1_655
Cs0 Sb1 4.000920 1_555
Cs0 Sb0 4.036871 1_545
Cs0 Sb14 4.269326 1_555
Cs1 Sb6 3.878563 1_555
Cs1 Sb6 3.878563 1_455
Cs1 Sb8 3.893302 1_555
Cs1 Sb8 3.893302 1_455
Cs1 Sb0 4.000920 1_555
Cs1 Sb0 4.000920 1_455
Cs1 Sb1 4.036871 1_565
Cs1 Sb15 4.269326 1_555
Cs2 Sb5 3.878563 1_555
Cs2 Sb5 3.878563 1_655
Cs2 Sb11 3.893302 1_555
Cs2 Sb11 3.893302 1_655
Cs2 Sb3 4.000920 1_654
Cs2 Sb3 4.000920 1_554
Cs2 Sb2 4.036871 1_555
Cs2 Sb12 4.269326 1_555
Cs3 Sb4 3.878563 1_555
Cs3 Sb4 3.878563 1_455
Cs3 Sb10 3.893302 1_455
Cs3 Sb10 3.893302 1_555
Cs3 Sb2 4.000920 1_456
Cs3 Sb2 4.000920 1_556
Cs3 Sb3 4.036871 1_555
Cs3 Sb13 4.269326 1_555
Al0 Sb1 2.692401 1_555
Al0 Sb1 2.692401 1_655
Al0 Sb4 2.694943 1_555
Al0 Sb8 2.713435 1_555
Al1 Sb0 2.692401 1_555
Al1 Sb0 2.692401 1_455
Al1 Sb5 2.694943 1_555
Al1 Sb9 2.713435 1_555
Al2 Sb3 2.692401 1_555
Al2 Sb3 2.692401 1_655
Al2 Sb6 2.694943 1_555
Al2 Sb10 2.713435 1_565
Al3 Sb2 2.692401 1_555
Al3 Sb2 2.692401 1_455
Al3 Sb7 2.694943 1_555
Al3 Sb11 2.713435 1_545
Sb0 Sb12 2.860379 1_555
Sb1 Sb13 2.860379 1_555
Sb8 Sb9 2.881997 1_655
Sb8 Sb9 2.881997 1_555
Sb10 Sb11 2.881997 1_646
Sb10 Sb11 2.881997 1_546
Sb12 Sb7 2.887065 1_665
Sb12 Sb7 2.887065 1_565
Sb13 Sb6 2.887065 1_445
Sb13 Sb6 2.887065 1_545
Sb14 Sb2 2.860379 1_555
Sb14 Sb5 2.887065 1_655
Sb14 Sb5 2.887065 1_555
Sb15 Sb3 2.860379 1_555
Sb15 Sb4 2.887065 1_555
Sb15 Sb4 2.887065 1_455
