# generated using pymatgen
data_Sr8Sb5Br
_symmetry_space_group_name_H-M   'P 1'
_cell_length_a   8.66863553
_cell_length_b   8.66863604
_cell_length_c   8.66863567
_cell_angle_alpha   109.06756698
_cell_angle_beta   109.67342528
_cell_angle_gamma   109.67342073
_symmetry_Int_Tables_number   1
_chemical_formula_structural   Sr8Sb5Br
_chemical_formula_sum   'Sr8 Sb5 Br1'
_cell_volume   501.43451818
_cell_formula_units_Z   1
loop_
 _symmetry_equiv_pos_site_id
 _symmetry_equiv_pos_as_xyz
  1  'x, y, z'
loop_
 _atom_site_type_symbol
 _atom_site_label
 _atom_site_symmetry_multiplicity
 _atom_site_fract_x
 _atom_site_fract_y
 _atom_site_fract_z
 _atom_site_occupancy
  Sr  Sr0  1  0.35210823  0.49677622  0.00237825  1
  Sr  Sr1  1  0.86131568  0.48120301  0.99137886  1
  Sr  Sr2  1  0.14789077  0.15026903  0.14466699  1
  Sr  Sr3  1  0.48982415  0.00862114  0.36993682  1
  Sr  Sr4  1  0.01017585  0.38011267  0.51879699  1
  Sr  Sr5  1  0.00560203  0.85533201  0.50322378  1
  Sr  Sr6  1  0.63868332  0.63006218  0.61988633  1
  Sr  Sr7  1  0.49439797  0.99762175  0.84972997  1
  Sb  Sb0  1  0.63035306  0.37384251  0.24133461  1
  Sb  Sb1  1  0.25000000  0.62500000  0.37500000  1
  Sb  Sb2  1  0.36749209  0.25651055  0.62615749  1
  Sb  Sb3  1  0.86964694  0.11098154  0.74348945  1
  Sb  Sb4  1  0.13250791  0.75866539  0.88901846  1
  Br  Br0  1  0.75000000  0.87500000  0.12500000  1
loop_
_geom_bond_atom_site_label_1
_geom_bond_atom_site_label_2
_geom_bond_distance
_geom_bond_site_symmetry_2
Sb0 Sr6 3.267598 1_555
Sb0 Sr7 3.321710 1_544
Sb0 Sr0 3.324619 1_555
Sb0 Sr4 3.330282 1_655
Sb0 Sr1 3.543090 1_554
Sb0 Sr5 3.584869 1_655
Sb0 Sr2 3.615439 1_555
Sb0 Sr3 3.657014 1_555
Sb1 Sr6 3.299169 1_555
Sb1 Sr1 3.299174 1_454
Sb1 Sr4 3.299174 1_555
Sb1 Sr3 3.299174 1_565
Sb1 Sr5 3.562914 1_555
Sb1 Sr0 3.562915 1_555
Sb1 Sr7 3.562915 1_555
Sb1 Sr2 3.562920 1_555
Sb2 Sr3 3.267603 1_555
Sb2 Sr0 3.321709 1_556
Sb2 Sr5 3.324619 1_545
Sb2 Sr6 3.330278 1_555
Sb2 Sr4 3.543090 1_555
Sb2 Sr2 3.584874 1_555
Sb2 Sr7 3.615434 1_545
Sb2 Sr1 3.657014 1_555
Sb3 Sr1 3.267603 1_555
Sb3 Sr5 3.321709 1_645
Sb3 Sr2 3.324613 1_656
Sb3 Sr3 3.330282 1_555
Sb3 Sr6 3.543097 1_545
Sb3 Sr7 3.584869 1_545
Sb3 Sr0 3.615434 1_656
Sb3 Sr4 3.657014 1_655
Sb4 Sr4 3.267603 1_555
Sb4 Sr2 3.321705 1_566
Sb4 Sr7 3.324619 1_555
Sb4 Sr1 3.330283 1_455
Sb4 Sr3 3.543090 1_566
Sb4 Sr0 3.584869 1_556
Sb4 Sr5 3.615434 1_555
Sb4 Sr6 3.657020 1_455
Br0 Sr2 3.378816 1_665
Br0 Sr5 3.378821 1_655
Br0 Sr7 3.378821 1_554
Br0 Sr0 3.378822 1_555
Br0 Sr3 3.783265 1_565
Br0 Sr1 3.783265 1_554
Br0 Sr4 3.783265 1_665
Br0 Sr6 3.783271 1_554
