# generated using pymatgen
data_CsK2Ag3Bi2
_symmetry_space_group_name_H-M   'P 1'
_cell_length_a   8.64659152
_cell_length_b   8.64659227
_cell_length_c   8.64659219
_cell_angle_alpha   43.03453651
_cell_angle_beta   43.03453072
_cell_angle_gamma   43.03452979
_symmetry_Int_Tables_number   1
_chemical_formula_structural   CsK2Ag3Bi2
_chemical_formula_sum   'Cs1 K2 Ag3 Bi2'
_cell_volume   272.90647817
_cell_formula_units_Z   1
loop_
 _symmetry_equiv_pos_site_id
 _symmetry_equiv_pos_as_xyz
  1  'x, y, z'
loop_
 _atom_site_type_symbol
 _atom_site_label
 _atom_site_symmetry_multiplicity
 _atom_site_fract_x
 _atom_site_fract_y
 _atom_site_fract_z
 _atom_site_occupancy
  Cs  Cs0  1  0.50000000  0.50000000  0.50000000  1
  K  K0  1  0.08319641  0.08319641  0.08319641  1
  K  K1  1  0.91680359  0.91680359  0.91680359  1
  Ag  Ag0  1  0.50000000  0.50000000  0.00000000  1
  Ag  Ag1  1  0.50000100  0.00000000  0.50000000  1
  Ag  Ag2  1  0.00000000  0.50000100  0.50000000  1
  Bi  Bi0  1  0.24319572  0.24319572  0.24319572  1
  Bi  Bi1  1  0.75680428  0.75680428  0.75680428  1
loop_
_geom_bond_atom_site_label_1
_geom_bond_atom_site_label_2
_geom_bond_distance
_geom_bond_site_symmetry_2
Cs0 K1 4.154232 1_455
Cs0 K0 4.154232 1_655
Cs0 K1 4.154232 1_545
Cs0 K0 4.154232 1_565
Cs0 K1 4.154232 1_554
Cs0 K0 4.154232 1_556
Ag0 Bi1 2.799811 1_554
Ag0 Bi0 2.799811 1_555
Ag0 Ag2 3.171411 1_555
Ag0 Ag2 3.171411 1_654
Ag0 Ag1 3.171411 1_555
Ag0 Ag1 3.171411 1_564
Ag0 K0 3.725563 1_655
Ag0 K1 3.725563 1_454
Ag0 K0 3.725564 1_565
Ag0 K1 3.725564 1_544
Ag0 Cs0 4.323296 1_555
Ag0 Cs0 4.323296 1_554
Ag1 Bi1 2.799804 1_545
Ag1 Bi0 2.799818 1_555
Ag1 Ag2 3.171404 1_645
Ag1 Ag2 3.171417 1_555
Ag1 K0 3.725557 1_655
Ag1 K0 3.725562 1_556
Ag1 K1 3.725565 1_544
Ag1 K1 3.725570 1_445
Ag1 Cs0 4.323290 1_555
Ag1 Cs0 4.323302 1_545
Ag2 Bi1 2.799804 1_455
Ag2 Bi0 2.799818 1_555
Ag2 K0 3.725557 1_565
Ag2 K0 3.725562 1_556
Ag2 K1 3.725565 1_454
Ag2 K1 3.725571 1_445
Ag2 Cs0 4.323289 1_555
Ag2 Cs0 4.323302 1_455
Bi0 K1 3.665660 1_544
Bi0 K1 3.665661 1_454
Bi0 K1 3.665661 1_445
Bi0 K0 3.759738 1_555
Bi0 Cs0 4.079754 1_455
Bi0 Cs0 4.079755 1_554
Bi0 Cs0 4.079755 1_545
Bi1 K0 3.665660 1_566
Bi1 K0 3.665661 1_656
Bi1 K0 3.665661 1_665
Bi1 K1 3.759738 1_555
Bi1 Cs0 4.079754 1_655
Bi1 Cs0 4.079755 1_556
Bi1 Cs0 4.079755 1_565
