# generated using pymatgen
data_Y6BCCl6
_symmetry_space_group_name_H-M   'P 1'
_cell_length_a   9.28443842
_cell_length_b   9.28443753
_cell_length_c   9.34531252
_cell_angle_alpha   109.48475902
_cell_angle_beta   109.48475279
_cell_angle_gamma   109.17859445
_symmetry_Int_Tables_number   1
_chemical_formula_structural   Y6BCCl6
_chemical_formula_sum   'Y12 B2 C2 Cl12'
_cell_volume   622.15024241
_cell_formula_units_Z   2
loop_
 _symmetry_equiv_pos_site_id
 _symmetry_equiv_pos_as_xyz
  1  'x, y, z'
loop_
 _atom_site_type_symbol
 _atom_site_label
 _atom_site_symmetry_multiplicity
 _atom_site_fract_x
 _atom_site_fract_y
 _atom_site_fract_z
 _atom_site_occupancy
  Y  Y0  1  0.46838105  0.48085839  0.23594337  1
  Y  Y1  1  0.74491503  0.23243668  0.26405663  1
  Y  Y2  1  0.74518687  0.01379561  0.48063371  1
  Y  Y3  1  0.23544683  0.46684009  0.48063371  1
  Y  Y4  1  0.26756332  0.75508497  0.23594337  1
  Y  Y5  1  0.03315991  0.26455317  0.01936629  1
  Y  Y6  1  0.01914161  0.03161895  0.26405663  1
  Y  Y7  1  0.48620439  0.75481313  0.01936629  1
  Y  Y8  1  0.48142810  0.23142810  0.46285620  1
  Y  Y9  1  0.01367587  0.48632413  0.75000000  1
  Y  Y10  1  0.26857190  0.01857190  0.03714380  1
  Y  Y11  1  0.23632413  0.26367587  0.75000000  1
  B  B0  1  0.99907157  0.24907157  0.49814314  1
  B  B1  1  0.25092843  0.50092843  0.00185686  1
  C  C0  1  0.25033058  0.24966942  0.25000000  1
  C  C1  1  0.49966942  0.00033058  0.25000000  1
  Cl  Cl0  1  0.25237119  0.76014737  0.74588831  1
  Cl  Cl1  1  0.51425906  0.50648288  0.75411169  1
  Cl  Cl2  1  0.98657872  0.74578107  0.99345070  1
  Cl  Cl3  1  0.73985263  0.24762881  0.75411169  1
  Cl  Cl4  1  0.99351712  0.98574094  0.74588831  1
  Cl  Cl5  1  0.25232938  0.99312803  0.50654930  1
  Cl  Cl6  1  0.75421893  0.51342128  0.50654930  1
  Cl  Cl7  1  0.50687197  0.24767062  0.99345070  1
  Cl  Cl8  1  0.75687780  0.74312220  0.25000000  1
  Cl  Cl9  1  0.74326962  0.99326962  0.98653825  1
  Cl  Cl10  1  0.99312220  0.50687780  0.25000000  1
  Cl  Cl11  1  0.50673038  0.75673038  0.51346175  1
loop_
_geom_bond_atom_site_label_1
_geom_bond_atom_site_label_2
_geom_bond_distance
_geom_bond_site_symmetry_2
B0 Y1 2.543449 1_555
B0 Y6 2.543454 1_655
B0 Y2 2.544773 1_555
B0 Y3 2.544783 1_655
B0 Y9 2.557830 1_655
B0 Y11 2.557830 1_655
B1 Y4 2.543449 1_555
B1 Y0 2.543454 1_555
B1 Y7 2.544773 1_555
B1 Y5 2.544783 1_555
B1 Y11 2.557830 1_554
B1 Y9 2.557830 1_554
C0 Y10 2.491083 1_555
C0 Y8 2.491083 1_555
C0 Y3 2.492529 1_555
C0 Y5 2.492529 1_555
C0 Y0 2.496694 1_555
C0 Y6 2.496694 1_555
C1 Y8 2.491083 1_555
C1 Y10 2.491083 1_555
C1 Y7 2.492519 1_545
C1 Y2 2.492519 1_555
C1 Y4 2.496689 1_545
C1 Y1 2.496689 1_555
Cl0 Y7 2.775089 1_556
Cl0 Y9 2.792182 1_555
Cl0 Y10 2.884625 1_566
Cl0 Y3 2.922503 1_555
Cl1 Y3 2.775098 1_555
Cl1 Y11 2.792182 1_555
Cl1 Y8 2.884625 1_555
Cl1 Y7 2.922515 1_556
Cl2 Y10 2.770596 1_666
Cl2 Y4 2.779597 1_656
Cl2 Y6 2.831117 1_666
Cl2 Y9 2.857657 1_655
Cl3 Y2 2.775089 1_555
Cl3 Y9 2.792182 1_655
Cl3 Y8 2.884626 1_555
Cl3 Y5 2.922504 1_656
Cl4 Y5 2.775098 1_666
Cl4 Y11 2.792182 1_665
Cl4 Y10 2.884626 1_666
Cl4 Y2 2.922515 1_565
Cl5 Y8 2.770601 1_565
Cl5 Y6 2.779586 1_565
Cl5 Y4 2.831128 1_555
Cl5 Y11 2.857651 1_565
Cl6 Y8 2.770596 1_555
Cl6 Y1 2.779596 1_555
Cl6 Y0 2.831117 1_555
Cl6 Y9 2.857657 1_655
Cl7 Y10 2.770601 1_556
Cl7 Y0 2.779585 1_556
Cl7 Y1 2.831128 1_556
Cl7 Y11 2.857652 1_555
Cl8 Y2 2.773914 1_565
Cl8 Y7 2.773914 1_555
Cl8 Y6 2.896122 1_665
Cl8 Y0 2.896122 1_555
Cl9 Y1 2.786869 1_566
Cl9 Y6 2.786873 1_666
Cl9 Y5 2.856869 1_666
Cl9 Y7 2.856891 1_556
Cl10 Y5 2.773902 1_655
Cl10 Y3 2.773902 1_655
Cl10 Y1 2.896128 1_555
Cl10 Y4 2.896128 1_655
Cl11 Y4 2.786869 1_555
Cl11 Y0 2.786873 1_555
Cl11 Y3 2.856869 1_555
Cl11 Y2 2.856891 1_565
