# generated using pymatgen
data_Sr3Ga3Si2SbO14
_symmetry_space_group_name_H-M   'P 1'
_cell_length_a   8.28691105
_cell_length_b   8.28689657
_cell_length_c   5.10112655
_cell_angle_alpha   89.99998229
_cell_angle_beta   90.00005180
_cell_angle_gamma   120.00001399
_symmetry_Int_Tables_number   1
_chemical_formula_structural   Sr3Ga3Si2SbO14
_chemical_formula_sum   'Sr3 Ga3 Si2 Sb1 O14'
_cell_volume   303.37603005
_cell_formula_units_Z   1
loop_
 _symmetry_equiv_pos_site_id
 _symmetry_equiv_pos_as_xyz
  1  'x, y, z'
loop_
 _atom_site_type_symbol
 _atom_site_label
 _atom_site_symmetry_multiplicity
 _atom_site_fract_x
 _atom_site_fract_y
 _atom_site_fract_z
 _atom_site_occupancy
  Sr  Sr0  1  0.43317036  0.99999982  0.99999961  1
  Sr  Sr1  1  0.00000000  0.43317078  0.99999900  1
  Sr  Sr2  1  0.56682864  0.56682846  0.00000139  1
  Ga  Ga0  1  0.75021444  0.99999997  0.49999981  1
  Ga  Ga1  1  1.00000000  0.75021512  0.50000000  1
  Ga  Ga2  1  0.24978556  0.24978552  0.50000019  1
  Si  Si0  1  0.66666673  0.33333358  0.46748982  1
  Si  Si1  1  0.33333327  0.66666685  0.53251118  1
  Sb  Sb0  1  0.00000000  0.99999992  1.00000000  1
  O  O0  1  0.33333368  0.66666705  0.21882515  1
  O  O1  1  0.12921584  0.90723196  0.22873529  1
  O  O2  1  0.09276820  0.22198440  0.22873497  1
  O  O3  1  0.77801720  0.87078437  0.22873535  1
  O  O4  1  0.47270764  0.30423839  0.33502364  1
  O  O5  1  0.69576099  0.16846895  0.33502306  1
  O  O6  1  0.83153135  0.52729232  0.33502368  1
  O  O7  1  0.16846865  0.69576097  0.66497632  1
  O  O8  1  0.30423901  0.47270797  0.66497794  1
  O  O9  1  0.52729236  0.83153175  0.66497736  1
  O  O10  1  0.22198380  0.09276817  0.77126465  1
  O  O11  1  0.90723180  0.12921520  0.77126503  1
  O  O12  1  0.87078416  0.77801612  0.77126571  1
  O  O13  1  0.66666632  0.33333237  0.78117385  1
loop_
_geom_bond_atom_site_label_1
_geom_bond_atom_site_label_2
_geom_bond_distance
_geom_bond_site_symmetry_2
Ga0 O11 1.833349 1_565
Ga0 O3 1.833351 1_555
Ga0 O5 1.868395 1_565
Ga0 O9 1.868395 1_555
Ga1 O1 1.833347 1_655
Ga1 O12 1.833353 1_555
Ga1 O6 1.868395 1_555
Ga1 O7 1.868397 1_655
Ga2 O10 1.833347 1_555
Ga2 O2 1.833352 1_555
Ga2 O4 1.868396 1_555
Ga2 O8 1.868397 1_555
O0 Si1 1.600152 1_555
O0 Sr0 2.697301 1_554
O0 Sr2 2.697304 1_555
O0 Sr1 2.697311 1_554
O1 Sb0 1.980461 1_554
O1 Sr0 2.522029 1_554
O2 Sb0 1.980463 1_544
O2 Sr1 2.522026 1_554
O3 Sb0 1.980458 1_654
O3 Sr2 2.522031 1_555
O4 Si0 1.646415 1_555
O4 Sr2 2.562609 1_555
O4 Sr0 2.925474 1_544
O5 Si0 1.646416 1_555
O5 Sr0 2.562617 1_544
O5 Sr1 2.925480 1_654
O6 Si0 1.646414 1_555
O6 Sr1 2.562621 1_654
O6 Sr2 2.925476 1_555
O7 Si1 1.646414 1_555
O7 Sr1 2.562611 1_555
O7 Sr0 2.925474 1_555
O8 Si1 1.646415 1_555
O8 Sr2 2.562613 1_556
O8 Sr1 2.925473 1_555
O9 Si1 1.646417 1_555
O9 Sr0 2.562610 1_555
O9 Sr2 2.925483 1_556
O10 Sb0 1.980464 1_545
O10 Sr0 2.522027 1_545
O11 Sb0 1.980458 1_645
O11 Sr1 2.522027 1_655
O12 Sb0 1.980457 1_655
O12 Sr2 2.522035 1_556
O13 Si0 1.600142 1_555
O13 Sr0 2.697302 1_545
O13 Sr1 2.697308 1_655
O13 Sr2 2.697313 1_556
