# generated using pymatgen
data_Lu4Ga3Si3Ir7
_symmetry_space_group_name_H-M   'P 1'
_cell_length_a   7.10130155
_cell_length_b   7.10130023
_cell_length_c   7.15635507
_cell_angle_alpha   109.62834885
_cell_angle_beta   109.62834505
_cell_angle_gamma   109.31364003
_symmetry_Int_Tables_number   1
_chemical_formula_structural   Lu4Ga3Si3Ir7
_chemical_formula_sum   'Lu4 Ga3 Si3 Ir7'
_cell_volume   277.26814103
_cell_formula_units_Z   1
loop_
 _symmetry_equiv_pos_site_id
 _symmetry_equiv_pos_as_xyz
  1  'x, y, z'
loop_
 _atom_site_type_symbol
 _atom_site_label
 _atom_site_symmetry_multiplicity
 _atom_site_fract_x
 _atom_site_fract_y
 _atom_site_fract_z
 _atom_site_occupancy
  Lu  Lu0  1  1.00000000  1.00000000  0.53135449  1
  Lu  Lu1  1  0.00000000  0.48752821  0.00209610  1
  Lu  Lu2  1  0.48752821  0.00000000  0.00209610  1
  Lu  Lu3  1  0.51247179  0.51247179  0.51456788  1
  Ga  Ga0  1  0.70284110  0.70284110  0.01148973  1
  Ga  Ga1  1  0.29715890  1.00000000  0.30864864  1
  Ga  Ga2  1  0.00000000  0.29715890  0.30864864  1
  Si  Si0  1  0.33375331  0.33375331  0.00529424  1
  Si  Si1  1  0.66624669  1.00000000  0.67154193  1
  Si  Si2  1  1.00000000  0.66624669  0.67154193  1
  Ir  Ir0  1  0.74803667  0.24887425  0.50168466  1
  Ir  Ir1  1  0.75112575  0.49916141  0.25281041  1
  Ir  Ir2  1  0.50083859  0.25196333  0.75364799  1
  Ir  Ir3  1  0.25196333  0.50083859  0.75364799  1
  Ir  Ir4  1  0.24887425  0.74803667  0.50168466  1
  Ir  Ir5  1  0.49916141  0.75112575  0.25281041  1
  Ir  Ir6  1  0.00000000  0.00000000  0.95643221  1
loop_
_geom_bond_atom_site_label_1
_geom_bond_atom_site_label_2
_geom_bond_distance
_geom_bond_site_symmetry_2
Lu0 Si0 2.867261 1_666
Lu0 Si2 2.867266 1_555
Lu0 Si1 2.867266 1_555
Lu1 Si1 2.915925 1_444
Lu1 Si0 2.915926 1_555
Lu1 Si2 3.037035 1_454
Lu2 Si2 2.915925 1_444
Lu2 Si0 2.915926 1_555
Lu2 Si1 3.037035 1_544
Lu3 Si1 2.915925 1_555
Lu3 Si2 2.915926 1_555
Lu3 Si0 3.037042 1_555
Ga0 Ir1 2.607768 1_555
Ga0 Ir5 2.607768 1_555
Ga0 Ir2 2.632209 1_554
Ga0 Ir3 2.632210 1_554
Ga0 Ir6 2.689402 1_664
Ga0 Lu3 2.938160 1_554
Ga0 Lu2 2.992640 1_565
Ga0 Lu1 2.992640 1_655
Ga0 Lu0 3.041806 1_555
Ga1 Ir2 2.607762 1_565
Ga1 Ir4 2.607762 1_555
Ga1 Ir5 2.632203 1_555
Ga1 Ir0 2.632209 1_565
Ga1 Ir6 2.689402 1_564
Ga1 Lu2 2.938161 1_565
Ga1 Lu3 2.992640 1_565
Ga1 Lu1 2.992640 1_555
Ga1 Lu0 3.041807 1_455
Ga2 Ir3 2.607762 1_555
Ga2 Ir0 2.607763 1_455
Ga2 Ir1 2.632203 1_455
Ga2 Ir4 2.632209 1_555
Ga2 Ir6 2.689402 1_554
Ga2 Lu1 2.938160 1_555
Ga2 Lu2 2.992640 1_455
Ga2 Lu3 2.992640 1_555
Ga2 Lu0 3.041806 1_445
Ir0 Si2 2.464560 1_555
Ir0 Si1 2.485359 1_545
Ir0 Lu3 2.893051 1_555
Ir0 Lu0 2.908373 1_545
Ir0 Lu2 2.911493 1_555
Ir0 Lu1 2.917185 1_656
Ir1 Si0 2.464563 1_555
Ir1 Si2 2.485358 1_555
Ir1 Lu2 2.893045 1_555
Ir1 Lu0 2.908378 1_555
Ir1 Lu1 2.911493 1_655
Ir1 Lu3 2.917185 1_555
Ir2 Si1 2.464555 1_545
Ir2 Si0 2.485359 1_556
Ir2 Lu1 2.893045 1_656
Ir2 Lu0 2.908379 1_445
Ir2 Lu3 2.911493 1_555
Ir2 Lu2 2.917185 1_556
Ir3 Si2 2.464555 1_455
Ir3 Si0 2.485359 1_556
Ir3 Lu2 2.893044 1_566
Ir3 Lu0 2.908379 1_445
Ir3 Lu3 2.911493 1_555
Ir3 Lu1 2.917186 1_556
Ir4 Si1 2.464561 1_555
Ir4 Si2 2.485360 1_455
Ir4 Lu3 2.893051 1_555
Ir4 Lu0 2.908373 1_455
Ir4 Lu1 2.911492 1_555
Ir4 Lu2 2.917185 1_566
Ir5 Si0 2.464562 1_555
Ir5 Si1 2.485358 1_555
Ir5 Lu1 2.893045 1_555
Ir5 Lu0 2.908379 1_555
Ir5 Lu2 2.911492 1_565
Ir5 Lu3 2.917185 1_555
Ir6 Si2 2.554906 1_445
Ir6 Si1 2.554906 1_445
Ir6 Si0 2.554910 1_556
Ir6 Lu0 3.042007 1_445
