# generated using pymatgen
data_HfRe6HgO24
_symmetry_space_group_name_H-M   'P 1'
_cell_length_a   10.10969710
_cell_length_b   10.10969733
_cell_length_c   5.92397702
_cell_angle_alpha   90.00000000
_cell_angle_beta   90.00000000
_cell_angle_gamma   119.99999080
_symmetry_Int_Tables_number   1
_chemical_formula_structural   HfRe6HgO24
_chemical_formula_sum   'Hf1 Re6 Hg1 O24'
_cell_volume   524.34886777
_cell_formula_units_Z   1
loop_
 _symmetry_equiv_pos_site_id
 _symmetry_equiv_pos_as_xyz
  1  'x, y, z'
loop_
 _atom_site_type_symbol
 _atom_site_label
 _atom_site_symmetry_multiplicity
 _atom_site_fract_x
 _atom_site_fract_y
 _atom_site_fract_z
 _atom_site_occupancy
  Hf  Hf0  1  0.66666700  0.33333300  0.75000000  1
  Re  Re0  1  0.07815746  0.40004456  0.75000000  1
  Re  Re1  1  0.40400835  0.28635644  0.25000000  1
  Re  Re2  1  0.59995544  0.67811190  0.75000000  1
  Re  Re3  1  0.88234709  0.59599165  0.25000000  1
  Re  Re4  1  0.32188810  0.92184254  0.75000000  1
  Re  Re5  1  0.71364356  0.11765291  0.25000000  1
  Hg  Hg0  1  0.33333300  0.66666700  0.25000000  1
  O  O0  1  0.48302100  0.62752872  0.51227888  1
  O  O1  1  0.37247128  0.85549227  0.51227888  1
  O  O2  1  0.78567085  0.69486151  0.25000000  1
  O  O3  1  0.12911033  0.85492804  0.75000000  1
  O  O4  1  0.30513849  0.09080934  0.25000000  1
  O  O5  1  0.14507196  0.27418229  0.75000000  1
  O  O6  1  0.52217917  0.35203306  0.00757417  1
  O  O7  1  0.90919066  0.21432915  0.25000000  1
  O  O8  1  0.07463311  0.72397329  0.25000000  1
  O  O9  1  0.14450773  0.51697900  0.98772112  1
  O  O10  1  0.14450773  0.51697900  0.51227888  1
  O  O11  1  0.87693372  0.30224796  0.75000000  1
  O  O12  1  0.27602671  0.35065982  0.25000000  1
  O  O13  1  0.69775204  0.57468576  0.75000000  1
  O  O14  1  0.82985390  0.47782083  0.49242583  1
  O  O15  1  0.42531424  0.12306628  0.75000000  1
  O  O16  1  0.64796694  0.17014610  0.00757417  1
  O  O17  1  0.48302100  0.62752872  0.98772112  1
  O  O18  1  0.37247128  0.85549227  0.98772112  1
  O  O19  1  0.64796694  0.17014610  0.49242583  1
  O  O20  1  0.52217917  0.35203306  0.49242583  1
  O  O21  1  0.82985390  0.47782083  0.00757417  1
  O  O22  1  0.72581771  0.87088967  0.75000000  1
  O  O23  1  0.64934018  0.92536689  0.25000000  1
loop_
_geom_bond_atom_site_label_1
_geom_bond_atom_site_label_2
_geom_bond_distance
_geom_bond_site_symmetry_2
Hf0 O16 2.184914 1_556
Hf0 O19 2.184914 1_555
Hf0 O21 2.184917 1_556
Hf0 O14 2.184917 1_555
Hf0 O6 2.184921 1_556
Hf0 O20 2.184921 1_555
Hf0 O11 2.299029 1_555
Hf0 O15 2.299035 1_555
Hf0 O13 2.299039 1_555
Hg0 O1 2.336551 1_555
Hg0 O18 2.336551 1_554
Hg0 O10 2.336553 1_555
Hg0 O9 2.336553 1_554
Hg0 O0 2.336558 1_555
Hg0 O17 2.336558 1_554
O0 Re2 1.742895 1_555
O1 Re4 1.742889 1_555
O2 Re3 1.712092 1_555
O3 Re4 1.713920 1_555
O4 Re1 1.712101 1_555
O5 Re0 1.713910 1_555
O6 Re1 1.771250 1_555
O7 Re5 1.712101 1_555
O8 Re3 1.714008 1_455
O9 Re0 1.742894 1_555
O10 Re0 1.742894 1_555
O11 Re0 1.761995 1_655
O12 Re1 1.714000 1_555
O13 Re2 1.761986 1_555
O14 Re3 1.771250 1_555
O15 Re4 1.761995 1_545
O16 Re5 1.771245 1_555
O17 Re2 1.742895 1_555
O18 Re4 1.742889 1_555
O19 Re5 1.771245 1_555
O20 Re1 1.771250 1_555
O21 Re3 1.771250 1_555
O22 Re2 1.713918 1_555
O23 Re5 1.714010 1_565
