# generated using pymatgen
data_K3Li2GeP3
_symmetry_space_group_name_H-M   'P 1'
_cell_length_a   9.74775383
_cell_length_b   9.74775230
_cell_length_c   14.72477279
_cell_angle_alpha   90.00000000
_cell_angle_beta   90.00000000
_cell_angle_gamma   143.20363557
_symmetry_Int_Tables_number   1
_chemical_formula_structural   K3Li2GeP3
_chemical_formula_sum   'K12 Li8 Ge4 P12'
_cell_volume   838.03997069
_cell_formula_units_Z   4
loop_
 _symmetry_equiv_pos_site_id
 _symmetry_equiv_pos_as_xyz
  1  'x, y, z'
loop_
 _atom_site_type_symbol
 _atom_site_label
 _atom_site_symmetry_multiplicity
 _atom_site_fract_x
 _atom_site_fract_y
 _atom_site_fract_z
 _atom_site_occupancy
  K  K0  1  0.10434020  0.44169851  0.67019885  1
  K  K1  1  0.72456615  0.72456615  0.67526200  1
  K  K2  1  0.22456615  0.22456615  0.82473800  1
  K  K3  1  0.77543385  0.77543385  0.17526200  1
  K  K4  1  0.94169851  0.60434020  0.82980115  1
  K  K5  1  0.55830149  0.89565980  0.32980115  1
  K  K6  1  0.39565980  0.05830149  0.17019885  1
  K  K7  1  0.05830149  0.39565980  0.17019885  1
  K  K8  1  0.89565980  0.55830149  0.32980115  1
  K  K9  1  0.44169851  0.10434020  0.67019885  1
  K  K10  1  0.60434020  0.94169951  0.82980115  1
  K  K11  1  0.27543385  0.27543385  0.32473800  1
  Li  Li0  1  0.91808536  0.08191464  0.00000000  1
  Li  Li1  1  0.58191464  0.41808536  0.50000000  1
  Li  Li2  1  0.08191464  0.91808536  0.00000000  1
  Li  Li3  1  0.41808536  0.58191464  0.50000000  1
  Li  Li4  1  0.75294869  0.24705131  0.00000000  1
  Li  Li5  1  0.74705131  0.25294869  0.50000000  1
  Li  Li6  1  0.24705131  0.75294869  0.00000000  1
  Li  Li7  1  0.25294869  0.74705131  0.50000000  1
  Ge  Ge0  1  0.08910934  0.91089066  0.50000000  1
  Ge  Ge1  1  0.41089066  0.58910934  0.00000000  1
  Ge  Ge2  1  0.91089066  0.08910934  0.50000000  1
  Ge  Ge3  1  0.58910934  0.41089066  0.00000000  1
  P  P0  1  0.88660365  0.56621052  0.09147504  1
  P  P1  1  0.43378948  0.11339635  0.90852496  1
  P  P2  1  0.61339635  0.93378948  0.59147504  1
  P  P3  1  0.93378948  0.61339635  0.59147504  1
  P  P4  1  0.11339635  0.43378948  0.90852496  1
  P  P5  1  0.56621052  0.88660365  0.09147504  1
  P  P6  1  0.38660365  0.06621052  0.40852496  1
  P  P7  1  0.20929023  0.20929023  0.58414090  1
  P  P8  1  0.70929023  0.70929023  0.91585910  1
  P  P9  1  0.29070977  0.29070977  0.08414090  1
  P  P10  1  0.06621052  0.38660365  0.40852496  1
  P  P11  1  0.79070977  0.79070977  0.41585910  1
loop_
_geom_bond_atom_site_label_1
_geom_bond_atom_site_label_2
_geom_bond_distance
_geom_bond_site_symmetry_2
K0 Li7 3.214544 1_555
K0 Li3 3.287486 1_555
K0 P2 3.288154 1_445
K0 P2 3.294752 1_555
K0 P3 3.371194 1_455
K0 P7 3.390635 1_555
K0 Li5 3.396039 1_455
K0 P4 3.512806 1_555
K1 P2 3.224179 1_555
K1 P3 3.224179 1_555
K1 P7 3.270481 1_665
K1 P7 3.442786 1_555
K1 P8 3.543984 1_555
K2 P4 3.224179 1_555
K2 P1 3.224179 1_555
K2 P8 3.270481 1_555
K2 P8 3.442786 1_445
K2 P7 3.543984 1_555
K3 P0 3.224179 1_555
K3 P5 3.224179 1_555
K3 P9 3.270481 1_555
K3 P9 3.442786 1_665
K3 P11 3.543984 1_555
K4 Li6 3.214545 1_656
K4 Li2 3.287486 1_656
K4 P1 3.288154 1_555
K4 P1 3.294752 1_665
K4 P4 3.371194 1_655
K4 P8 3.390635 1_555
K4 Li4 3.396038 1_556
K4 P3 3.512806 1_555
K5 Li7 3.214545 1_555
K5 Li3 3.287486 1_555
K5 P10 3.288154 1_665
K5 P10 3.294752 1_555
K5 P6 3.371194 1_565
K5 P11 3.390635 1_555
K5 Li5 3.396038 1_565
K5 P5 3.512806 1_555
K6 Li6 3.214544 1_545
K6 Li2 3.287486 1_545
K6 P0 3.288154 1_555
K6 P0 3.294752 1_445
K6 P5 3.371194 1_545
K6 P9 3.390635 1_555
K6 Li4 3.396039 1_555
K6 P6 3.512806 1_555
K7 Li4 3.214545 1_455
K7 Li0 3.287486 1_455
K7 P5 3.288154 1_555
K7 P5 3.294752 1_445
K7 P0 3.371194 1_455
K7 P9 3.390635 1_555
K7 Li6 3.396038 1_555
K7 P10 3.512806 1_555
K8 Li5 3.214544 1_555
K8 Li1 3.287486 1_555
K8 P6 3.288154 1_665
K8 P6 3.294752 1_555
K8 P10 3.371194 1_655
K8 P11 3.390635 1_555
K8 Li7 3.396039 1_655
K8 P0 3.512806 1_555
K9 Li5 3.214545 1_555
K9 Li1 3.287486 1_555
K9 P3 3.288154 1_445
K9 P3 3.294752 1_555
K9 P2 3.371194 1_545
K9 P7 3.390635 1_555
K9 Li7 3.396038 1_545
K9 P1 3.512806 1_555
K10 Li4 3.214539 1_566
K10 Li0 3.287490 1_566
K10 P4 3.288158 1_555
K10 P4 3.294750 1_665
K10 P1 3.371185 1_565
K10 P8 3.390644 1_555
K10 Li6 3.396036 1_556
K10 P2 3.512807 1_555
K11 P6 3.224179 1_555
K11 P10 3.224179 1_555
K11 P11 3.270481 1_445
K11 P11 3.442786 1_555
K11 P9 3.543984 1_555
Li0 P4 2.597192 1_654
Li0 P5 2.597193 1_545
Li0 P8 2.651604 1_544
Li0 P9 2.651604 1_655
Li1 P6 2.597192 1_555
Li1 P3 2.597193 1_555
Li1 P11 2.651604 1_555
Li1 P7 2.651604 1_555
Li2 P0 2.597192 1_455
Li2 P1 2.597193 1_564
Li2 P9 2.651604 1_565
Li2 P8 2.651604 1_454
Li3 P2 2.597192 1_555
Li3 P10 2.597193 1_555
Li3 P7 2.651604 1_555
Li3 P11 2.651604 1_555
Li4 P0 2.588261 1_555
Li4 P1 2.588261 1_554
Li4 P5 2.688843 1_545
Li4 P4 2.688843 1_654
Li5 P2 2.588261 1_545
Li5 P10 2.588261 1_655
Li5 P3 2.688843 1_555
Li5 P6 2.688843 1_555
Li6 P4 2.588261 1_554
Li6 P5 2.588261 1_555
Li6 P1 2.688843 1_564
Li6 P0 2.688843 1_455
Li7 P6 2.588261 1_565
Li7 P3 2.588261 1_455
Li7 P10 2.688843 1_555
Li7 P2 2.688843 1_555
Ge0 P3 2.341876 1_455
Ge0 P6 2.341877 1_565
Ge0 P7 2.431206 1_565
Ge0 P11 2.431206 1_455
Ge0 K8 3.357018 1_455
Ge0 K9 3.357019 1_565
Ge1 P5 2.341876 1_555
Ge1 P4 2.341877 1_554
Ge1 P9 2.431206 1_555
Ge1 P8 2.431206 1_554
Ge1 K7 3.357019 1_555
Ge1 K10 3.357024 1_554
Ge2 P10 2.341876 1_655
Ge2 P2 2.341877 1_545
Ge2 P11 2.431206 1_545
Ge2 P7 2.431206 1_655
Ge2 K0 3.357018 1_655
Ge2 K5 3.357019 1_545
Ge3 P1 2.341876 1_554
Ge3 P0 2.341877 1_555
Ge3 P8 2.431206 1_554
Ge3 P9 2.431206 1_555
Ge3 K6 3.357018 1_555
Ge3 K4 3.357019 1_554
