# generated using pymatgen
data_ErTlPd
_symmetry_space_group_name_H-M   'P 1'
_cell_length_a   7.75461426
_cell_length_b   7.75461319
_cell_length_c   3.73723582
_cell_angle_alpha   90.00000000
_cell_angle_beta   90.00000000
_cell_angle_gamma   120.00000023
_symmetry_Int_Tables_number   1
_chemical_formula_structural   ErTlPd
_chemical_formula_sum   'Er3 Tl3 Pd3'
_cell_volume   194.62627569
_cell_formula_units_Z   3
loop_
 _symmetry_equiv_pos_site_id
 _symmetry_equiv_pos_as_xyz
  1  'x, y, z'
loop_
 _atom_site_type_symbol
 _atom_site_label
 _atom_site_symmetry_multiplicity
 _atom_site_fract_x
 _atom_site_fract_y
 _atom_site_fract_z
 _atom_site_occupancy
  Er  Er0  1  0.59843768  -0.00000000  0.50000000  1
  Er  Er1  1  0.40156232  0.40156232  0.50000000  1
  Er  Er2  1  0.00000000  0.59843768  0.50000000  1
  Tl  Tl0  1  0.26942137  0.00000000  0.00000000  1
  Tl  Tl1  1  0.73057863  0.73057863  -0.00000000  1
  Tl  Tl2  1  -0.00000000  0.26942137  -0.00000000  1
  Pd  Pd0  1  0.33333300  0.66666700  -0.00000000  1
  Pd  Pd1  1  0.66666700  0.33333300  -0.00000000  1
  Pd  Pd2  1  -0.00000000  -0.00000000  0.50000000  1
loop_
_geom_bond_atom_site_label_1
_geom_bond_atom_site_label_2
_geom_bond_distance
_geom_bond_site_symmetry_2
Er0 Pd1 3.014230 1_556
Er0 Pd1 3.014230 1_555
Er0 Pd0 3.014232 1_546
Er0 Pd0 3.014232 1_545
Er0 Pd2 3.113961 1_655
Er0 Tl0 3.162491 1_555
Er0 Tl0 3.162491 1_556
Er0 Tl1 3.323795 1_545
Er0 Tl1 3.323795 1_546
Er0 Tl2 3.323796 1_656
Er0 Tl2 3.323796 1_655
Er1 Pd0 3.014236 1_555
Er1 Pd0 3.014236 1_556
Er1 Pd1 3.014236 1_556
Er1 Pd1 3.014236 1_555
Er1 Pd2 3.113961 1_555
Er1 Tl1 3.162491 1_555
Er1 Tl1 3.162491 1_556
Er1 Tl0 3.323795 1_555
Er1 Tl0 3.323795 1_556
Er1 Tl2 3.323796 1_555
Er1 Tl2 3.323796 1_556
Er2 Pd0 3.014230 1_555
Er2 Pd0 3.014230 1_556
Er2 Pd1 3.014232 1_456
Er2 Pd1 3.014232 1_455
Er2 Pd2 3.113960 1_565
Er2 Tl2 3.162490 1_556
Er2 Tl2 3.162490 1_555
Er2 Tl0 3.323795 1_566
Er2 Tl0 3.323795 1_565
Er2 Tl1 3.323796 1_456
Er2 Tl1 3.323796 1_455
Pd0 Tl0 2.865006 1_565
Pd0 Tl2 2.865011 1_555
Pd0 Tl1 2.865014 1_555
Pd1 Tl2 2.865007 1_655
Pd1 Tl0 2.865011 1_555
Pd1 Tl1 2.865014 1_555
Pd2 Tl2 2.802987 1_555
Pd2 Tl2 2.802987 1_556
Pd2 Tl1 2.802987 1_446
Pd2 Tl1 2.802987 1_445
Pd2 Tl0 2.802987 1_555
Pd2 Tl0 2.802987 1_556
