# generated using pymatgen
data_Mg2Zn3(BRh2)4
_symmetry_space_group_name_H-M   'P 1'
_cell_length_a   9.39961714
_cell_length_b   9.39961687
_cell_length_c   2.88354420
_cell_angle_alpha   90.00000000
_cell_angle_beta   90.00000000
_cell_angle_gamma   125.88528195
_symmetry_Int_Tables_number   1
_chemical_formula_structural   Mg2Zn3(BRh2)4
_chemical_formula_sum   'Mg2 Zn3 B4 Rh8'
_cell_volume   206.41203174
_cell_formula_units_Z   1
loop_
 _symmetry_equiv_pos_site_id
 _symmetry_equiv_pos_as_xyz
  1  'x, y, z'
loop_
 _atom_site_type_symbol
 _atom_site_label
 _atom_site_symmetry_multiplicity
 _atom_site_fract_x
 _atom_site_fract_y
 _atom_site_fract_z
 _atom_site_occupancy
  Mg  Mg0  1  0.19936607  0.80063393  0.50000000  1
  Mg  Mg1  1  0.80063393  0.19936607  0.50000000  1
  Zn  Zn0  1  0.35748672  0.35748672  0.50000000  1
  Zn  Zn1  1  0.00000000  0.00000000  0.50000000  1
  Zn  Zn2  1  0.64251328  0.64251328  0.50000000  1
  B  B0  1  0.46320034  0.15336756  0.50000000  1
  B  B1  1  0.15336756  0.46320034  0.50000000  1
  B  B2  1  0.53679966  0.84663244  0.50000000  1
  B  B3  1  0.84663244  0.53679966  0.50000000  1
  Rh  Rh0  1  0.62621537  0.37378463  0.00000000  1
  Rh  Rh1  1  0.37378463  0.62621537  0.00000000  1
  Rh  Rh2  1  0.91208291  0.73144703  0.00000000  1
  Rh  Rh3  1  0.08791709  0.26855297  0.00000000  1
  Rh  Rh4  1  0.50000000  0.00000000  0.00000000  1
  Rh  Rh5  1  0.26855297  0.08791709  0.00000000  1
  Rh  Rh6  1  0.73144703  0.91208291  0.00000000  1
  Rh  Rh7  1  0.00000000  0.50000000  0.00000000  1
loop_
_geom_bond_atom_site_label_1
_geom_bond_atom_site_label_2
_geom_bond_distance
_geom_bond_site_symmetry_2
Mg0 Rh7 2.714358 1_556
Mg0 Rh7 2.714358 1_555
Mg0 Rh4 2.714358 1_566
Mg0 Rh4 2.714358 1_565
Mg0 Rh5 2.781148 1_566
Mg0 Rh5 2.781148 1_565
Mg0 Rh2 2.781148 1_456
Mg0 Rh2 2.781148 1_455
Mg1 Rh7 2.714358 1_655
Mg1 Rh7 2.714358 1_656
Mg1 Rh4 2.714358 1_556
Mg1 Rh4 2.714358 1_555
Mg1 Rh6 2.781148 1_545
Mg1 Rh6 2.781148 1_546
Mg1 Rh3 2.781148 1_656
Mg1 Rh3 2.781148 1_655
Zn0 Zn2 2.437387 1_555
B0 Rh5 2.117805 1_556
B0 Rh5 2.117805 1_555
B0 Rh4 2.204799 1_556
B0 Rh4 2.204799 1_555
B0 Rh0 2.235482 1_555
B0 Rh0 2.235482 1_556
B0 Zn0 2.627470 1_555
B0 Mg0 2.739289 1_545
B1 Rh3 2.117805 1_556
B1 Rh3 2.117805 1_555
B1 Rh7 2.204799 1_556
B1 Rh7 2.204799 1_555
B1 Rh1 2.235482 1_555
B1 Rh1 2.235482 1_556
B1 Zn0 2.627470 1_555
B1 Mg1 2.739289 1_455
B2 Rh6 2.117805 1_556
B2 Rh6 2.117805 1_555
B2 Rh4 2.204799 1_566
B2 Rh4 2.204799 1_565
B2 Rh1 2.235482 1_555
B2 Rh1 2.235482 1_556
B2 Zn2 2.627470 1_555
B2 Mg1 2.739289 1_565
B3 Rh2 2.117805 1_555
B3 Rh2 2.117805 1_556
B3 Rh7 2.204799 1_656
B3 Rh7 2.204799 1_655
B3 Rh0 2.235482 1_555
B3 Rh0 2.235482 1_556
B3 Zn2 2.627470 1_555
B3 Mg0 2.739289 1_655
Rh0 Zn2 2.833538 1_554
Rh0 Zn2 2.833538 1_555
Rh0 Zn0 2.833538 1_554
Rh0 Zn0 2.833538 1_555
Rh1 Zn0 2.833538 1_555
Rh1 Zn0 2.833538 1_554
Rh1 Zn2 2.833538 1_555
Rh1 Zn2 2.833538 1_554
Rh2 Zn1 2.586147 1_664
Rh2 Zn1 2.586147 1_665
Rh2 Zn2 2.591281 1_555
Rh2 Zn2 2.591281 1_554
Rh3 Zn1 2.586147 1_555
Rh3 Zn1 2.586147 1_554
Rh3 Zn0 2.591281 1_554
Rh3 Zn0 2.591281 1_555
Rh5 Zn1 2.586147 1_555
Rh5 Zn1 2.586147 1_554
Rh5 Zn0 2.591281 1_555
Rh5 Zn0 2.591281 1_554
Rh6 Zn1 2.586147 1_664
Rh6 Zn1 2.586147 1_665
Rh6 Zn2 2.591281 1_555
Rh6 Zn2 2.591281 1_554
