# generated using pymatgen
data_Al2CdO4
_symmetry_space_group_name_H-M   'P 1'
_cell_length_a   5.99439591
_cell_length_b   5.99439591
_cell_length_c   5.99439591
_cell_angle_alpha   60.00000000
_cell_angle_beta   60.00000000
_cell_angle_gamma   60.00000000
_symmetry_Int_Tables_number   1
_chemical_formula_structural   Al2CdO4
_chemical_formula_sum   'Al4 Cd2 O8'
_cell_volume   152.30749413
_cell_formula_units_Z   2
loop_
 _symmetry_equiv_pos_site_id
 _symmetry_equiv_pos_as_xyz
  1  'x, y, z'
loop_
 _atom_site_type_symbol
 _atom_site_label
 _atom_site_symmetry_multiplicity
 _atom_site_fract_x
 _atom_site_fract_y
 _atom_site_fract_z
 _atom_site_occupancy
  Al  Al0  1  0.62500000  0.12500000  0.12500000  1
  Al  Al1  1  0.12500000  0.62500000  0.12500000  1
  Al  Al2  1  0.12500000  0.12500000  0.62500000  1
  Al  Al3  1  0.12500000  0.12500000  0.12500000  1
  Cd  Cd0  1  0.50000000  0.50000000  0.50000000  1
  Cd  Cd1  1  0.75000000  0.75000000  0.75000000  1
  O  O0  1  0.93635300  0.35454900  0.35454900  1
  O  O1  1  0.35454900  0.93635300  0.35454900  1
  O  O2  1  0.35454900  0.35454900  0.93635300  1
  O  O3  1  0.35454900  0.35454900  0.35454900  1
  O  O4  1  0.31364700  0.89545100  0.89545100  1
  O  O5  1  0.89545100  0.31364700  0.89545100  1
  O  O6  1  0.89545100  0.89545100  0.31364700  1
  O  O7  1  0.89545100  0.89545100  0.89545100  1
loop_
_geom_bond_atom_site_label_1
_geom_bond_atom_site_label_2
_geom_bond_distance
_geom_bond_site_symmetry_2
Al0 O6 1.961354 1_545
Al0 O2 1.961354 1_554
Al0 O5 1.961354 1_554
Al0 O7 1.961354 1_544
Al0 O1 1.961354 1_545
Al0 O3 1.961354 1_555
Al1 O2 1.961354 1_554
Al1 O0 1.961354 1_455
Al1 O6 1.961354 1_455
Al1 O3 1.961354 1_555
Al1 O7 1.961354 1_454
Al1 O4 1.961354 1_554
Al2 O7 1.961354 1_445
Al2 O0 1.961354 1_455
Al2 O4 1.961354 1_545
Al2 O3 1.961354 1_555
Al2 O1 1.961354 1_545
Al2 O5 1.961354 1_455
Al3 O2 1.961354 1_554
Al3 O4 1.961354 1_544
Al3 O0 1.961354 1_455
Al3 O5 1.961354 1_454
Al3 O1 1.961354 1_545
Al3 O6 1.961354 1_445
Cd0 O2 2.135688 1_555
Cd0 O1 2.135688 1_555
Cd0 O3 2.135688 1_555
Cd0 O0 2.135688 1_555
Cd1 O5 2.135688 1_555
Cd1 O6 2.135688 1_555
Cd1 O7 2.135688 1_555
Cd1 O4 2.135688 1_555
