# generated using pymatgen
data_Zr6Ti4Al12Co7
_symmetry_space_group_name_H-M   'P 1'
_cell_length_a   8.52300349
_cell_length_b   8.52300273
_cell_length_c   8.52300165
_cell_angle_alpha   59.99999657
_cell_angle_beta   59.99999954
_cell_angle_gamma   59.99999672
_symmetry_Int_Tables_number   1
_chemical_formula_structural   Zr6Ti4Al12Co7
_chemical_formula_sum   'Zr6 Ti4 Al12 Co7'
_cell_volume   437.78698401
_cell_formula_units_Z   1
loop_
 _symmetry_equiv_pos_site_id
 _symmetry_equiv_pos_as_xyz
  1  'x, y, z'
loop_
 _atom_site_type_symbol
 _atom_site_label
 _atom_site_symmetry_multiplicity
 _atom_site_fract_x
 _atom_site_fract_y
 _atom_site_fract_z
 _atom_site_occupancy
  Zr  Zr0  1  0.69354060  0.69354060  0.30645940  1
  Zr  Zr1  1  0.30645940  0.69354060  0.30645940  1
  Zr  Zr2  1  0.69354060  0.30645940  0.30645940  1
  Zr  Zr3  1  0.30645940  0.30645940  0.69354060  1
  Zr  Zr4  1  0.69354060  0.30645940  0.69354060  1
  Zr  Zr5  1  0.30645940  0.69354060  0.69354060  1
  Ti  Ti0  1  0.88179068  0.88179068  0.35462497  1
  Ti  Ti1  1  0.88179068  0.35462497  0.88179068  1
  Ti  Ti2  1  0.35462497  0.88179068  0.88179068  1
  Ti  Ti3  1  0.88179068  0.88179068  0.88179068  1
  Al  Al0  1  0.11964109  0.11964109  0.64107773  1
  Al  Al1  1  0.11964109  0.64107773  0.11964109  1
  Al  Al2  1  0.64107773  0.11964109  0.11964109  1
  Al  Al3  1  0.11964109  0.11964109  0.11964109  1
  Al  Al4  1  0.66589401  0.66589401  0.00231598  1
  Al  Al5  1  0.66589401  0.00231598  0.66589401  1
  Al  Al6  1  0.00231598  0.66589401  0.66589401  1
  Al  Al7  1  0.66589401  0.66589401  0.66589401  1
  Al  Al8  1  0.33339797  0.33339797  0.99980510  1
  Al  Al9  1  0.33339797  0.99980510  0.33339797  1
  Al  Al10  1  0.99980510  0.33339797  0.33339797  1
  Al  Al11  1  0.33339797  0.33339797  0.33339797  1
  Co  Co0  1  0.00000000  0.00000000  0.00000000  1
  Co  Co1  1  0.99719147  0.99719147  0.50280853  1
  Co  Co2  1  0.50280853  0.99719147  0.50280853  1
  Co  Co3  1  0.99719147  0.50280853  0.50280853  1
  Co  Co4  1  0.50280853  0.50280853  0.99719147  1
  Co  Co5  1  0.99719147  0.50280853  0.99719147  1
  Co  Co6  1  0.50280853  0.99719147  0.99719147  1
loop_
_geom_bond_atom_site_label_1
_geom_bond_atom_site_label_2
_geom_bond_distance
_geom_bond_site_symmetry_2
Ti0 Zr0 3.034579 1_555
Ti0 Zr2 3.034600 1_565
Ti0 Zr1 3.034601 1_655
Ti1 Zr4 3.034578 1_555
Ti1 Zr2 3.034600 1_556
Ti1 Zr3 3.034601 1_655
Ti2 Zr5 3.034578 1_555
Ti2 Zr1 3.034600 1_556
Ti2 Zr3 3.034600 1_565
Ti3 Zr0 3.034595 1_556
Ti3 Zr4 3.034595 1_565
Ti3 Zr5 3.034596 1_655
Al0 Co0 2.497741 1_556
Al0 Co3 2.667599 1_455
Al0 Co2 2.667600 1_545
Al0 Co1 2.667606 1_445
Al0 Al11 2.697978 1_555
Al0 Al10 2.697987 1_455
Al0 Al9 2.697987 1_545
Al0 Ti2 2.866973 1_545
Al0 Ti1 2.866973 1_455
Al0 Ti3 2.866997 1_445
Al0 Zr3 3.038037 1_555
Al0 Zr5 3.038044 1_545
Al0 Zr4 3.038044 1_455
Al1 Co0 2.497741 1_565
Al1 Co3 2.667599 1_455
Al1 Co4 2.667600 1_554
Al1 Co5 2.667606 1_454
Al1 Al11 2.697978 1_555
Al1 Al8 2.697987 1_554
Al1 Al10 2.697987 1_455
Al1 Ti0 2.866973 1_455
Al1 Ti2 2.866973 1_554
Al1 Ti3 2.866997 1_454
Al1 Zr1 3.038037 1_555
Al1 Zr5 3.038044 1_554
Al1 Zr0 3.038044 1_455
Al2 Co0 2.497741 1_655
Al2 Co2 2.667599 1_545
Al2 Co4 2.667599 1_554
Al2 Co6 2.667606 1_544
Al2 Al8 2.697987 1_554
Al2 Al9 2.697987 1_545
Al2 Ti0 2.866973 1_545
Al2 Ti1 2.866973 1_554
Al2 Ti3 2.866997 1_544
Al2 Zr2 3.038037 1_555
Al2 Zr4 3.038044 1_554
Al2 Zr0 3.038044 1_545
Al3 Co0 2.497748 1_555
Al3 Co1 2.667599 1_445
Al3 Co5 2.667599 1_454
Al3 Co6 2.667599 1_544
Al3 Al9 2.697973 1_545
Al3 Al8 2.697973 1_554
Al3 Ti2 2.866997 1_544
Al3 Ti1 2.866997 1_454
Al3 Ti0 2.866998 1_445
Al3 Zr3 3.038042 1_554
Al3 Zr1 3.038042 1_545
Al3 Zr2 3.038043 1_455
Al4 Co4 2.432990 1_554
Al4 Co6 2.433005 1_554
Al4 Co5 2.433005 1_554
Al4 Ti3 2.726275 1_554
Al4 Ti1 2.726281 1_554
Al4 Ti2 2.726282 1_554
Al4 Zr2 2.847404 1_555
Al4 Zr1 2.847404 1_555
Al4 Zr0 2.847413 1_555
Al4 Al7 2.867325 1_554
Al4 Al5 2.867325 1_564
Al4 Al6 2.867325 1_654
Al5 Co2 2.432990 1_545
Al5 Co6 2.433005 1_545
Al5 Co1 2.433005 1_545
Al5 Ti3 2.726274 1_545
Al5 Ti0 2.726281 1_545
Al5 Ti2 2.726282 1_545
Al5 Zr2 2.847403 1_555
Al5 Zr3 2.847404 1_555
Al5 Zr4 2.847414 1_555
Al5 Al6 2.867325 1_645
Al5 Al7 2.867325 1_545
Al6 Co3 2.432990 1_455
Al6 Co5 2.433005 1_455
Al6 Co1 2.433005 1_455
Al6 Ti3 2.726274 1_455
Al6 Ti0 2.726281 1_455
Al6 Ti1 2.726282 1_455
Al6 Zr1 2.847404 1_555
Al6 Zr3 2.847404 1_555
Al6 Zr5 2.847414 1_555
Al6 Al7 2.867326 1_455
Al7 Co4 2.433000 1_555
Al7 Co2 2.433000 1_555
Al7 Co3 2.433000 1_555
Al7 Ti1 2.726277 1_555
Al7 Ti2 2.726277 1_555
Al7 Ti0 2.726277 1_555
Al7 Zr0 2.847396 1_555
Al7 Zr4 2.847397 1_555
Al7 Zr5 2.847397 1_555
Al8 Co6 2.488083 1_545
Al8 Co5 2.488083 1_455
Al8 Co4 2.488091 1_555
Al8 Al9 2.843213 1_546
Al8 Zr3 2.858392 1_555
Al8 Zr5 2.858397 1_555
Al8 Zr4 2.858398 1_555
Al9 Co6 2.488083 1_554
Al9 Co1 2.488083 1_455
Al9 Co2 2.488091 1_555
Al9 Zr1 2.858393 1_555
Al9 Zr5 2.858397 1_555
Al9 Zr0 2.858398 1_555
Al10 Co5 2.488083 1_554
Al10 Co1 2.488083 1_545
Al10 Co3 2.488090 1_555
Al10 Al3 2.697973 1_655
Al10 Al8 2.843213 1_654
Al10 Al9 2.843213 1_645
Al10 Al11 2.843213 1_655
Al10 Zr2 2.858393 1_555
Al10 Zr4 2.858397 1_555
Al10 Zr0 2.858398 1_555
Al11 Co4 2.488085 1_554
Al11 Co2 2.488086 1_545
Al11 Co3 2.488086 1_455
Al11 Al2 2.697978 1_555
Al11 Al8 2.843213 1_554
Al11 Al9 2.843213 1_545
Al11 Zr3 2.858401 1_555
Al11 Zr1 2.858401 1_555
Al11 Zr2 2.858401 1_555
Co0 Ti0 2.467836 1_445
Co0 Ti1 2.467836 1_454
Co0 Ti2 2.467836 1_544
Co0 Ti3 2.467857 1_444
Co1 Ti3 2.642265 1_555
Co1 Ti0 2.642287 1_555
Co1 Zr2 3.089410 1_565
Co1 Zr4 3.089410 1_565
Co1 Zr1 3.089410 1_655
Co1 Zr5 3.089410 1_655
Co2 Ti2 2.642267 1_555
Co2 Ti0 2.642267 1_555
Co2 Zr0 3.089410 1_555
Co2 Zr3 3.089410 1_565
Co2 Zr2 3.089411 1_565
Co2 Zr5 3.089411 1_555
Co3 Ti1 2.642267 1_555
Co3 Ti0 2.642267 1_555
Co3 Zr0 3.089410 1_555
Co3 Zr3 3.089410 1_655
Co3 Zr4 3.089411 1_555
Co3 Zr1 3.089411 1_655
Co4 Ti2 2.642267 1_555
Co4 Ti1 2.642267 1_555
Co4 Zr2 3.089410 1_556
Co4 Zr1 3.089410 1_556
Co4 Zr4 3.089410 1_555
Co4 Zr5 3.089410 1_555
Co5 Ti3 2.642266 1_555
Co5 Ti1 2.642288 1_555
Co5 Zr0 3.089410 1_556
Co5 Zr3 3.089410 1_655
Co5 Zr2 3.089411 1_556
Co5 Zr5 3.089411 1_655
Co6 Ti3 2.642266 1_555
Co6 Ti2 2.642288 1_555
Co6 Zr0 3.089410 1_556
Co6 Zr3 3.089410 1_565
Co6 Zr1 3.089410 1_556
Co6 Zr4 3.089410 1_565
