# generated using pymatgen
data_Zr6BeNb4Sn7
_symmetry_space_group_name_H-M   'P 1'
_cell_length_a   8.56495595
_cell_length_b   8.56495561
_cell_length_c   5.76199572
_cell_angle_alpha   90.00000000
_cell_angle_beta   90.00000000
_cell_angle_gamma   119.99999750
_symmetry_Int_Tables_number   1
_chemical_formula_structural   Zr6BeNb4Sn7
_chemical_formula_sum   'Zr6 Be1 Nb4 Sn7'
_cell_volume   366.06130531
_cell_formula_units_Z   1
loop_
 _symmetry_equiv_pos_site_id
 _symmetry_equiv_pos_as_xyz
  1  'x, y, z'
loop_
 _atom_site_type_symbol
 _atom_site_label
 _atom_site_symmetry_multiplicity
 _atom_site_fract_x
 _atom_site_fract_y
 _atom_site_fract_z
 _atom_site_occupancy
  Zr  Zr0  1  0.26935963  0.00000000  0.22783494  1
  Zr  Zr1  1  0.26935963  0.26935963  0.77216506  1
  Zr  Zr2  1  1.00000000  0.73064037  0.77216506  1
  Zr  Zr3  1  0.00000000  0.26935963  0.22783494  1
  Zr  Zr4  1  0.73064037  0.73064037  0.22783494  1
  Zr  Zr5  1  0.73064037  1.00000000  0.77216506  1
  Be  Be0  1  0.00000000  0.00000000  0.00000000  1
  Nb  Nb0  1  0.33333300  0.66666700  0.00000000  1
  Nb  Nb1  1  0.66666700  0.33333300  0.50000000  1
  Nb  Nb2  1  0.66666700  0.33333300  0.00000000  1
  Nb  Nb3  1  0.33333300  0.66666700  0.50000000  1
  Sn  Sn0  1  0.00000000  0.00000000  0.50000000  1
  Sn  Sn1  1  0.60923610  1.00000000  0.25967406  1
  Sn  Sn2  1  0.60923610  0.60923610  0.74032594  1
  Sn  Sn3  1  0.00000000  0.39076390  0.74032594  1
  Sn  Sn4  1  0.00000000  0.60923610  0.25967406  1
  Sn  Sn5  1  0.39076390  0.39076390  0.25967406  1
  Sn  Sn6  1  0.39076390  0.00000000  0.74032594  1
loop_
_geom_bond_atom_site_label_1
_geom_bond_atom_site_label_2
_geom_bond_distance
_geom_bond_site_symmetry_2
Be0 Zr3 2.654411 1_555
Be0 Zr2 2.654411 1_444
Be0 Zr0 2.654411 1_555
Be0 Zr5 2.654411 1_444
Be0 Zr1 2.654411 1_554
Be0 Zr4 2.654411 1_445
Be0 Sn0 2.880998 1_555
Be0 Sn0 2.880998 1_554
Nb0 Nb3 2.880998 1_555
Nb0 Nb3 2.880998 1_554
Nb0 Sn6 3.037643 1_564
Nb0 Sn4 3.037643 1_555
Nb0 Sn1 3.037645 1_555
Nb0 Sn3 3.037646 1_554
Nb0 Sn5 3.037650 1_555
Nb0 Sn2 3.037650 1_554
Nb0 Zr0 3.426205 1_565
Nb0 Zr2 3.426205 1_454
Nb0 Zr3 3.426210 1_555
Nb0 Zr5 3.426210 1_554
Nb0 Zr1 3.426213 1_554
Nb0 Zr4 3.426213 1_555
Nb1 Nb2 2.880998 1_556
Nb1 Nb2 2.880998 1_555
Nb1 Sn1 2.984307 1_545
Nb1 Sn3 2.984307 1_655
Nb1 Sn6 2.984310 1_555
Nb1 Sn4 2.984310 1_655
Nb1 Sn2 2.984315 1_555
Nb1 Sn5 2.984315 1_555
Nb1 Zr5 3.531964 1_545
Nb1 Zr3 3.531965 1_655
Nb1 Zr2 3.531969 1_555
Nb1 Zr0 3.531969 1_555
Nb1 Zr4 3.531972 1_555
Nb1 Zr1 3.531972 1_555
Nb2 Sn1 3.037643 1_545
Nb2 Sn3 3.037643 1_654
Nb2 Sn6 3.037645 1_554
Nb2 Sn4 3.037646 1_655
Nb2 Sn2 3.037650 1_554
Nb2 Sn5 3.037650 1_555
Nb2 Zr5 3.426205 1_544
Nb2 Zr3 3.426205 1_655
Nb2 Zr2 3.426210 1_554
Nb2 Zr0 3.426210 1_555
Nb2 Zr4 3.426213 1_555
Nb2 Zr1 3.426213 1_554
Nb3 Sn6 2.984307 1_565
Nb3 Sn4 2.984307 1_555
Nb3 Sn1 2.984310 1_555
Nb3 Sn3 2.984310 1_555
Nb3 Sn5 2.984315 1_555
Nb3 Sn2 2.984315 1_555
Nb3 Zr0 3.531964 1_565
Nb3 Zr2 3.531965 1_455
Nb3 Zr3 3.531969 1_555
Nb3 Zr5 3.531969 1_555
Nb3 Zr1 3.531972 1_555
Nb3 Zr4 3.531972 1_555
Sn0 Zr3 2.789586 1_555
Sn0 Zr2 2.789586 1_445
Sn0 Zr5 2.789586 1_445
Sn0 Zr0 2.789586 1_555
Sn0 Zr1 2.789586 1_555
Sn0 Zr4 2.789586 1_445
Sn1 Zr0 2.916802 1_565
Sn1 Zr4 2.972593 1_555
Sn1 Zr3 2.972593 1_665
Sn1 Zr5 2.995305 1_554
Sn1 Zr5 3.130698 1_555
Sn2 Zr1 2.916802 1_555
Sn2 Zr5 2.972593 1_555
Sn2 Zr2 2.972593 1_555
Sn2 Zr4 2.995305 1_556
Sn2 Zr4 3.130698 1_555
Sn3 Zr2 2.916802 1_455
Sn3 Zr1 2.972593 1_555
Sn3 Zr5 2.972593 1_445
Sn3 Zr3 2.995305 1_556
Sn3 Zr3 3.130698 1_555
Sn4 Zr3 2.916802 1_555
Sn4 Zr4 2.972593 1_455
Sn4 Zr0 2.972593 1_565
Sn4 Zr2 2.995305 1_454
Sn4 Zr2 3.130698 1_455
Sn5 Zr4 2.916802 1_555
Sn5 Zr0 2.972593 1_555
Sn5 Zr3 2.972593 1_555
Sn5 Zr1 2.995305 1_554
Sn5 Zr1 3.130698 1_555
Sn6 Zr5 2.916802 1_545
Sn6 Zr1 2.972593 1_555
Sn6 Zr2 2.972593 1_445
Sn6 Zr0 2.995305 1_556
Sn6 Zr0 3.130698 1_555
