# generated using pymatgen
data_Zr6Sc3(In2Rh)7
_symmetry_space_group_name_H-M   'P 1'
_cell_length_a   9.60245048
_cell_length_b   9.60245159
_cell_length_c   9.60654273
_cell_angle_alpha   59.98590533
_cell_angle_beta   59.98590148
_cell_angle_gamma   59.93730033
_symmetry_Int_Tables_number   1
_chemical_formula_structural   Zr6Sc3(In2Rh)7
_chemical_formula_sum   'Zr6 Sc3 In14 Rh7'
_cell_volume   625.91827067
_cell_formula_units_Z   1
loop_
 _symmetry_equiv_pos_site_id
 _symmetry_equiv_pos_as_xyz
  1  'x, y, z'
loop_
 _atom_site_type_symbol
 _atom_site_label
 _atom_site_symmetry_multiplicity
 _atom_site_fract_x
 _atom_site_fract_y
 _atom_site_fract_z
 _atom_site_occupancy
  Zr  Zr0  1  0.87907159  0.87341049  0.87785022  1
  Zr  Zr1  1  0.62921191  0.12294503  0.12392253  1
  Zr  Zr2  1  0.87907159  0.87341049  0.36966669  1
  Zr  Zr3  1  0.12658951  0.12092841  0.12214978  1
  Zr  Zr4  1  0.87705497  0.37078809  0.87607747  1
  Zr  Zr5  1  0.12658951  0.12092841  0.63033331  1
  Sc  Sc0  1  0.12503635  0.63381429  0.12057418  1
  Sc  Sc1  1  0.36618571  0.87496365  0.87942582  1
  Sc  Sc2  1  0.49707704  0.50292296  0.50000000  1
  In  In0  1  0.50162552  0.84261411  0.15346846  1
  In  In1  1  0.50162552  0.84261411  0.50229290  1
  In  In2  1  0.50000403  0.15610000  0.50058200  1
  In  In3  1  0.49932072  0.50067928  0.84426164  1
  In  In4  1  0.15738589  0.49837448  0.49770710  1
  In  In5  1  0.84305609  0.15694391  0.50000000  1
  In  In6  1  0.15527735  0.84472265  0.50000000  1
  In  In7  1  0.50000403  0.15610000  0.84331397  1
  In  In8  1  0.15738589  0.49837448  0.84653154  1
  In  In9  1  0.49932072  0.50067928  0.15573836  1
  In  In10  1  0.84390000  0.49999597  0.49941800  1
  In  In11  1  0.84390000  0.49999597  0.15668603  1
  In  In12  1  0.24724691  0.25382131  0.24946589  1
  In  In13  1  0.74617869  0.75275309  0.75053411  1
  Rh  Rh0  1  0.77504161  0.78055908  0.22219965  1
  Rh  Rh1  1  0.00029463  0.99970537  1.00000000  1
  Rh  Rh2  1  0.22158442  0.77841558  0.22736518  1
  Rh  Rh3  1  0.22158442  0.77841558  0.77263482  1
  Rh  Rh4  1  0.21944092  0.22495839  0.77780035  1
  Rh  Rh5  1  0.77996724  0.22003276  0.77936897  1
  Rh  Rh6  1  0.77996724  0.22003276  0.22063103  1
loop_
_geom_bond_atom_site_label_1
_geom_bond_atom_site_label_2
_geom_bond_distance
_geom_bond_site_symmetry_2
In0 Rh2 2.725511 1_555
In0 Rh0 2.730807 1_555
In0 Sc2 3.295106 1_555
In1 Rh3 2.725508 1_555
In1 Rh0 2.730813 1_555
In1 Sc2 3.295111 1_555
In2 Rh4 2.754388 1_555
In2 Rh6 2.757807 1_555
In2 Sc2 3.313579 1_555
In3 Rh3 2.751836 1_555
In3 Rh5 2.763569 1_555
In3 Sc2 3.307234 1_555
In4 Rh2 2.725508 1_555
In4 Rh4 2.730813 1_555
In4 Sc2 3.295110 1_555
In5 Rh5 2.751169 1_555
In5 Rh6 2.751169 1_555
In5 Sc2 3.319098 1_555
In6 Rh3 2.695218 1_555
In6 Rh2 2.695218 1_555
In6 Sc2 3.279004 1_555
In7 Rh4 2.754388 1_555
In7 Rh5 2.757807 1_555
In7 Sc2 3.313579 1_555
In8 Rh3 2.725511 1_555
In8 Rh4 2.730807 1_555
In8 Sc2 3.295105 1_555
In9 Rh2 2.751836 1_555
In9 Rh6 2.763569 1_555
In9 Sc2 3.307234 1_555
In10 Rh0 2.754389 1_555
In10 Rh5 2.757807 1_555
In10 Sc2 3.313578 1_555
In11 Rh0 2.754389 1_555
In11 Rh6 2.757807 1_555
In11 Sc2 3.313578 1_555
In12 Sc0 2.977934 1_555
In12 Zr3 2.987819 1_555
In12 Zr5 2.987827 1_555
In12 Zr1 2.993227 1_555
In13 Sc1 2.977934 1_555
In13 Zr0 2.987819 1_555
In13 Zr2 2.987827 1_555
In13 Zr4 2.993227 1_555
Rh0 Zr1 2.695587 1_565
Rh0 Zr2 2.715042 1_555
Rh0 Zr0 2.715051 1_554
Rh0 Sc0 2.753689 1_655
Rh1 Sc1 2.867224 1_555
Rh1 Sc0 2.867225 1_556
Rh1 Zr5 2.899513 1_565
Rh1 Zr2 2.899513 1_456
Rh1 Zr3 2.899520 1_566
Rh1 Zr0 2.899520 1_455
Rh1 Zr1 2.907846 1_466
Rh1 Zr4 2.907847 1_465
Rh2 Zr2 2.694770 1_455
Rh2 Zr3 2.694771 1_565
Rh2 Sc1 2.739756 1_554
Rh2 Sc0 2.739764 1_555
Rh3 Zr5 2.694771 1_565
Rh3 Zr0 2.694771 1_455
Rh3 Sc0 2.739756 1_556
Rh3 Sc1 2.739764 1_555
Rh4 Zr4 2.695587 1_455
Rh4 Zr5 2.715042 1_555
Rh4 Zr3 2.715051 1_556
Rh4 Sc1 2.753689 1_545
Rh5 Zr4 2.718815 1_555
Rh5 Zr1 2.718830 1_556
Rh5 Zr5 2.730575 1_655
Rh5 Zr0 2.730576 1_545
Rh6 Zr1 2.718815 1_555
Rh6 Zr4 2.718830 1_554
Rh6 Zr2 2.730575 1_545
Rh6 Zr3 2.730576 1_655
