# generated using pymatgen
data_Ca12Zn5Ga7N4
_symmetry_space_group_name_H-M   'P 1'
_cell_length_a   9.14470990
_cell_length_b   9.15376454
_cell_length_c   9.14471006
_cell_angle_alpha   60.03271200
_cell_angle_beta   59.99999588
_cell_angle_gamma   60.03271947
_symmetry_Int_Tables_number   1
_chemical_formula_structural   Ca12Zn5Ga7N4
_chemical_formula_sum   'Ca12 Zn5 Ga7 N4'
_cell_volume   541.55077243
_cell_formula_units_Z   1
loop_
 _symmetry_equiv_pos_site_id
 _symmetry_equiv_pos_as_xyz
  1  'x, y, z'
loop_
 _atom_site_type_symbol
 _atom_site_label
 _atom_site_symmetry_multiplicity
 _atom_site_fract_x
 _atom_site_fract_y
 _atom_site_fract_z
 _atom_site_occupancy
  Ca  Ca0  1  0.80389633  0.19671921  0.19548913  1
  Ca  Ca1  1  0.19650213  0.80334371  0.19650213  1
  Ca  Ca2  1  0.80365304  0.80334371  0.19650213  1
  Ca  Ca3  1  0.19650213  0.80334371  0.80365304  1
  Ca  Ca4  1  0.80389633  0.19671921  0.80389633  1
  Ca  Ca5  1  0.19548913  0.19671921  0.80389633  1
  Ca  Ca6  1  0.44635943  0.05365285  0.05362728  1
  Ca  Ca7  1  0.05330685  0.44616073  0.05330685  1
  Ca  Ca8  1  0.44722657  0.44616073  0.05330685  1
  Ca  Ca9  1  0.05330685  0.44616073  0.44722657  1
  Ca  Ca10  1  0.44635943  0.05365285  0.44635943  1
  Ca  Ca11  1  0.05362728  0.05365285  0.44635943  1
  Zn  Zn0  1  0.82388897  0.52833410  0.82388897  1
  Zn  Zn1  1  0.62596873  0.62381331  0.12424923  1
  Zn  Zn2  1  0.62596873  0.62381331  0.62596873  1
  Zn  Zn3  1  0.12424923  0.62381331  0.62596873  1
  Zn  Zn4  1  0.62534007  0.12397980  0.62534007  1
  Ga  Ga0  1  0.42449040  0.42581234  0.72520685  1
  Ga  Ga1  1  0.42449040  0.42581234  0.42449040  1
  Ga  Ga2  1  0.72520685  0.42581234  0.42449040  1
  Ga  Ga3  1  0.42483038  0.72550986  0.42483038  1
  Ga  Ga4  1  0.82486680  0.82476543  0.52550098  1
  Ga  Ga5  1  0.82486680  0.82476543  0.82486680  1
  Ga  Ga6  1  0.52550098  0.82476543  0.82486680  1
  N  N0  1  0.12556744  0.12481322  0.62405290  1
  N  N1  1  0.12556744  0.12481322  0.12556744  1
  N  N2  1  0.62405290  0.12481322  0.12556744  1
  N  N3  1  0.12502239  0.62493284  0.12502239  1
loop_
_geom_bond_atom_site_label_1
_geom_bond_atom_site_label_2
_geom_bond_distance
_geom_bond_site_symmetry_2
Ca0 N1 2.469884 1_655
Ca0 N2 2.469884 1_555
Ca0 Ga4 3.224630 1_545
Ca0 Zn0 3.228551 1_554
Ca0 Zn1 3.242979 1_555
Ca0 Zn4 3.257931 1_555
Ca0 Ga2 3.267064 1_555
Ca0 Ga1 3.267068 1_555
Ca1 N3 2.466142 1_555
Ca1 N1 2.471372 1_565
Ca1 Ga6 3.215402 1_554
Ca1 Ga4 3.215402 1_455
Ca1 Ga1 3.253806 1_555
Ca1 Zn3 3.256289 1_555
Ca1 Zn1 3.256289 1_555
Ca1 Ga3 3.257984 1_555
Ca2 N3 2.466135 1_655
Ca2 N2 2.471372 1_565
Ca2 Ga4 3.215397 1_555
Ca2 Ga5 3.215406 1_554
Ca2 Ga2 3.253810 1_555
Ca2 Zn2 3.256290 1_555
Ca2 Zn1 3.256297 1_555
Ca2 Ga3 3.257983 1_555
Ca3 N3 2.466135 1_556
Ca3 N0 2.471372 1_565
Ca3 Ga6 3.215397 1_555
Ca3 Ga5 3.215406 1_455
Ca3 Ga0 3.253810 1_555
Ca3 Zn2 3.256290 1_555
Ca3 Zn3 3.256297 1_555
Ca3 Ga3 3.257984 1_555
Ca4 N2 2.469884 1_556
Ca4 N0 2.469884 1_655
Ca4 Ga5 3.224634 1_545
Ca4 Zn0 3.228551 1_555
Ca4 Zn2 3.242980 1_555
Ca4 Zn4 3.257939 1_555
Ca4 Ga2 3.267072 1_555
Ca4 Ga0 3.267072 1_555
Ca5 N1 2.469884 1_556
Ca5 N0 2.469884 1_555
Ca5 Ga6 3.224630 1_545
Ca5 Zn0 3.228551 1_455
Ca5 Zn3 3.242979 1_555
Ca5 Zn4 3.257931 1_555
Ca5 Ga0 3.267064 1_555
Ca5 Ga1 3.267068 1_555
Ca6 N1 2.460089 1_555
Ca6 N2 2.460105 1_555
Ca6 Ga3 3.212536 1_545
Ca6 Ga0 3.219328 1_554
Ca6 Zn4 3.249032 1_554
Ca6 Ga6 3.261848 1_544
Ca6 Ga5 3.261852 1_544
Ca6 Zn1 3.265316 1_545
Ca7 N1 2.465548 1_555
Ca7 N3 2.472348 1_555
Ca7 Ga2 3.209516 1_455
Ca7 Ga0 3.209516 1_554
Ca7 Zn3 3.241444 1_554
Ca7 Zn1 3.241444 1_455
Ca7 Zn0 3.258386 1_454
Ca7 Ga5 3.261511 1_454
Ca8 N2 2.465548 1_555
Ca8 N3 2.472355 1_555
Ca8 Ga1 3.209512 1_555
Ca8 Ga0 3.209521 1_554
Ca8 Zn1 3.241436 1_555
Ca8 Zn2 3.241442 1_554
Ca8 Zn0 3.258385 1_554
Ca8 Ga6 3.261507 1_554
Ca9 N0 2.465548 1_555
Ca9 N3 2.472355 1_555
Ca9 Ga1 3.209512 1_555
Ca9 Ga2 3.209521 1_455
Ca9 Zn3 3.241436 1_555
Ca9 Zn2 3.241442 1_455
Ca9 Zn0 3.258385 1_455
Ca9 Ga4 3.261507 1_455
Ca10 N2 2.460092 1_555
Ca10 N0 2.460092 1_555
Ca10 Ga3 3.212526 1_545
Ca10 Ga1 3.219332 1_555
Ca10 Zn4 3.249040 1_555
Ca10 Ga6 3.261856 1_545
Ca10 Ga4 3.261856 1_545
Ca10 Zn2 3.265318 1_545
Ca11 N1 2.460088 1_555
Ca11 N0 2.460106 1_555
Ca11 Ga3 3.212536 1_545
Ca11 Ga2 3.219328 1_455
Ca11 Zn4 3.249032 1_455
Ca11 Ga4 3.261848 1_445
Ca11 Ga5 3.261852 1_445
Ca11 Zn3 3.265316 1_545
Zn0 Zn3 2.725930 1_655
Zn0 Zn1 2.725930 1_556
Zn0 Zn2 2.725938 1_555
Ga0 Zn2 2.743003 1_555
Ga0 Zn3 2.743003 1_555
Ga0 Ga3 2.746465 1_555
Ga0 Ga2 2.749964 1_555
Ga0 Ga1 2.749965 1_555
Ga0 Zn4 2.759510 1_555
Ga1 Zn1 2.743003 1_555
Ga1 Zn3 2.743003 1_555
Ga1 Ga3 2.746470 1_555
Ga1 Ga2 2.749965 1_555
Ga1 Zn4 2.759510 1_555
Ga2 Zn1 2.743003 1_555
Ga2 Zn2 2.743003 1_555
Ga2 Ga3 2.746465 1_555
Ga2 Zn4 2.759509 1_555
Ga3 Zn2 2.755919 1_555
Ga3 Zn3 2.755927 1_555
Ga3 Zn1 2.755927 1_555
Ga4 Zn0 2.722430 1_555
Ga4 Ga6 2.737613 1_555
Ga4 Ga5 2.737614 1_555
Ga4 Zn4 2.739399 1_565
Ga4 Zn2 2.742085 1_555
Ga4 Zn3 2.742085 1_655
Ga5 Zn0 2.722425 1_555
Ga5 Ga6 2.737614 1_555
Ga5 Zn4 2.739399 1_565
Ga5 Zn1 2.742085 1_556
Ga5 Zn3 2.742085 1_655
Ga6 Zn0 2.722430 1_555
Ga6 Zn4 2.739399 1_565
Ga6 Zn1 2.742085 1_556
Ga6 Zn2 2.742085 1_555
