# generated using pymatgen
data_Zn2GaSiRh4
_symmetry_space_group_name_H-M   'P 1'
_cell_length_a   7.26700410
_cell_length_b   7.26700499
_cell_length_c   7.26700545
_cell_angle_alpha   33.61900671
_cell_angle_beta   33.61899560
_cell_angle_gamma   33.61901169
_symmetry_Int_Tables_number   1
_chemical_formula_structural   Zn2GaSiRh4
_chemical_formula_sum   'Zn2 Ga1 Si1 Rh4'
_cell_volume   104.79773669
_cell_formula_units_Z   1
loop_
 _symmetry_equiv_pos_site_id
 _symmetry_equiv_pos_as_xyz
  1  'x, y, z'
loop_
 _atom_site_type_symbol
 _atom_site_label
 _atom_site_symmetry_multiplicity
 _atom_site_fract_x
 _atom_site_fract_y
 _atom_site_fract_z
 _atom_site_occupancy
  Zn  Zn0  1  0.25235646  0.25235646  0.25235646  1
  Zn  Zn1  1  0.74764354  0.74764354  0.74764354  1
  Ga  Ga0  1  0.00000000  0.00000000  0.00000000  1
  Si  Si0  1  0.50000000  0.50000000  0.50000000  1
  Rh  Rh0  1  0.37887609  0.37887609  0.37887609  1
  Rh  Rh1  1  0.87180311  0.87180311  0.87180311  1
  Rh  Rh2  1  0.62112391  0.62112391  0.62112391  1
  Rh  Rh3  1  0.12819689  0.12819689  0.12819689  1
loop_
_geom_bond_atom_site_label_1
_geom_bond_atom_site_label_2
_geom_bond_distance
_geom_bond_site_symmetry_2
Ga0 Rh0 2.600876 1_554
Ga0 Rh2 2.600876 1_445
Ga0 Rh0 2.600877 1_455
Ga0 Rh2 2.600877 1_544
Ga0 Rh0 2.600878 1_545
Ga0 Rh2 2.600878 1_454
Ga0 Rh3 2.634395 1_555
Ga0 Rh1 2.634395 1_444
Rh0 Si0 2.489048 1_555
Rh0 Zn1 2.533552 1_554
Rh0 Zn1 2.533553 1_455
Rh0 Zn1 2.533554 1_545
Rh0 Zn0 2.599928 1_555
Rh1 Zn1 2.551430 1_555
Rh1 Si0 2.552181 1_556
Rh1 Si0 2.552181 1_655
Rh1 Si0 2.552182 1_565
Rh1 Zn0 2.613476 1_665
Rh1 Zn0 2.613477 1_566
Rh1 Zn0 2.613478 1_656
Rh2 Si0 2.489048 1_555
Rh2 Zn0 2.533552 1_556
Rh2 Zn0 2.533553 1_655
Rh2 Zn0 2.533554 1_565
Rh2 Zn1 2.599928 1_555
Rh3 Zn0 2.551430 1_555
Rh3 Si0 2.552181 1_554
Rh3 Si0 2.552181 1_455
Rh3 Si0 2.552182 1_545
Rh3 Zn1 2.613476 1_445
Rh3 Zn1 2.613477 1_544
Rh3 Zn1 2.613478 1_454
