# generated using pymatgen
data_Al4FeCo2Ni
_symmetry_space_group_name_H-M   'P 1'
_cell_length_a   4.94435527
_cell_length_b   4.94435510
_cell_length_c   4.94435472
_cell_angle_alpha   109.78822314
_cell_angle_beta   108.83904192
_cell_angle_gamma   109.78824129
_symmetry_Int_Tables_number   1
_chemical_formula_structural   Al4FeCo2Ni
_chemical_formula_sum   'Al4 Fe1 Co2 Ni1'
_cell_volume   93.03951654
_cell_formula_units_Z   1
loop_
 _symmetry_equiv_pos_site_id
 _symmetry_equiv_pos_as_xyz
  1  'x, y, z'
loop_
 _atom_site_type_symbol
 _atom_site_label
 _atom_site_symmetry_multiplicity
 _atom_site_fract_x
 _atom_site_fract_y
 _atom_site_fract_z
 _atom_site_occupancy
  Al  Al0  1  0.00000000  0.00000000  0.50000000  1
  Al  Al1  1  0.00000000  0.50000000  0.00000000  1
  Al  Al2  1  0.50000000  0.00000000  0.00000000  1
  Al  Al3  1  0.50000000  0.50000000  0.50000000  1
  Fe  Fe0  1  0.00000000  0.00000000  0.00000000  1
  Co  Co0  1  0.00000000  0.50000000  0.50000000  1
  Co  Co1  1  0.50000000  0.50000000  0.00000000  1
  Ni  Ni0  1  0.50000000  0.00000000  0.50000000  1
loop_
_geom_bond_atom_site_label_1
_geom_bond_atom_site_label_2
_geom_bond_distance
_geom_bond_site_symmetry_2
Al0 Fe0 2.472177 1_556
Al0 Fe0 2.472177 1_555
Al0 Co1 2.472177 1_556
Al0 Co1 2.472177 1_445
Al0 Co0 2.472178 1_545
Al0 Co0 2.472178 1_555
Al0 Ni0 2.472178 1_455
Al0 Ni0 2.472178 1_555
Al1 Co0 2.472177 1_554
Al1 Co0 2.472177 1_555
Al1 Ni0 2.472177 1_565
Al1 Ni0 2.472177 1_454
Al1 Fe0 2.472178 1_565
Al1 Fe0 2.472178 1_555
Al1 Co1 2.472178 1_555
Al1 Co1 2.472178 1_455
Al2 Ni0 2.472177 1_555
Al2 Ni0 2.472177 1_554
Al2 Co0 2.472177 1_544
Al2 Co0 2.472177 1_655
Al2 Co1 2.472178 1_555
Al2 Co1 2.472178 1_545
Al2 Fe0 2.472178 1_555
Al2 Fe0 2.472178 1_655
Al3 Co1 2.472177 1_556
Al3 Co1 2.472177 1_555
Al3 Fe0 2.472177 1_555
Al3 Fe0 2.472177 1_666
Al3 Ni0 2.472178 1_555
Al3 Ni0 2.472178 1_565
Al3 Co0 2.472178 1_555
Al3 Co0 2.472178 1_655
