# generated using pymatgen
data_Mn3(AgO2)4
_symmetry_space_group_name_H-M   'P 1'
_cell_length_a   9.07518872
_cell_length_b   9.07518872
_cell_length_c   9.07518877
_cell_angle_alpha   90.53133477
_cell_angle_beta   90.53133477
_cell_angle_gamma   90.53133225
_symmetry_Int_Tables_number   1
_chemical_formula_structural   Mn3(AgO2)4
_chemical_formula_sum   'Mn12 Ag16 O32'
_cell_volume   747.32691254
_cell_formula_units_Z   4
loop_
 _symmetry_equiv_pos_site_id
 _symmetry_equiv_pos_as_xyz
  1  'x, y, z'
loop_
 _atom_site_type_symbol
 _atom_site_label
 _atom_site_symmetry_multiplicity
 _atom_site_fract_x
 _atom_site_fract_y
 _atom_site_fract_z
 _atom_site_occupancy
  Mn  Mn0  1  0.50000000  0.03896400  0.96103600  1
  Mn  Mn1  1  0.96103600  0.50000000  0.03896400  1
  Mn  Mn2  1  0.03896400  0.96103600  0.50000000  1
  Mn  Mn3  1  0.00000000  0.70805800  0.29194200  1
  Mn  Mn4  1  0.29194200  0.00000000  0.70805800  1
  Mn  Mn5  1  0.70805800  0.29194200  0.00000000  1
  Mn  Mn6  1  0.45985200  0.25058000  0.20993800  1
  Mn  Mn7  1  0.20993800  0.45985200  0.25058000  1
  Mn  Mn8  1  0.25058000  0.20993800  0.45985200  1
  Mn  Mn9  1  0.54014800  0.79006200  0.74942000  1
  Mn  Mn10  1  0.74942000  0.54014800  0.79006200  1
  Mn  Mn11  1  0.79006200  0.74942000  0.54014800  1
  Ag  Ag0  1  0.50000000  0.50000000  0.50000000  1
  Ag  Ag1  1  0.13535200  0.21386400  0.94372000  1
  Ag  Ag2  1  0.94372000  0.13535200  0.21386400  1
  Ag  Ag3  1  0.21386400  0.94372000  0.13535200  1
  Ag  Ag4  1  0.86464800  0.05628000  0.78613600  1
  Ag  Ag5  1  0.78613600  0.86464800  0.05628000  1
  Ag  Ag6  1  0.05628000  0.78613600  0.86464800  1
  Ag  Ag7  1  0.39448300  0.78808200  0.38457700  1
  Ag  Ag8  1  0.38457700  0.39448300  0.78808200  1
  Ag  Ag9  1  0.78808200  0.38457700  0.39448300  1
  Ag  Ag10  1  0.60551700  0.61542300  0.21191800  1
  Ag  Ag11  1  0.21191800  0.60551700  0.61542300  1
  Ag  Ag12  1  0.61542300  0.21191800  0.60551700  1
  Ag  Ag13  1  0.00000000  0.33558500  0.66441500  1
  Ag  Ag14  1  0.66441500  0.00000000  0.33558500  1
  Ag  Ag15  1  0.33558500  0.66441500  0.00000000  1
  O  O0  1  0.17170400  0.47464400  0.04113500  1
  O  O1  1  0.04113500  0.17170400  0.47464400  1
  O  O2  1  0.47464400  0.04113500  0.17170400  1
  O  O3  1  0.82829600  0.95886500  0.52535600  1
  O  O4  1  0.52535600  0.82829600  0.95886500  1
  O  O5  1  0.95886500  0.52535600  0.82829600  1
  O  O6  1  0.22258700  0.41941800  0.45813600  1
  O  O7  1  0.45813600  0.22258700  0.41941800  1
  O  O8  1  0.41941800  0.45813600  0.22258700  1
  O  O9  1  0.77741300  0.54186400  0.58058200  1
  O  O10  1  0.58058200  0.77741300  0.54186400  1
  O  O11  1  0.54186400  0.58058200  0.77741300  1
  O  O12  1  0.24036000  0.24036000  0.24036000  1
  O  O13  1  0.75964000  0.75964000  0.75964000  1
  O  O14  1  0.67113700  0.27595800  0.20836300  1
  O  O15  1  0.97066400  0.70701900  0.08111400  1
  O  O16  1  0.70701900  0.08111400  0.97066400  1
  O  O17  1  0.02933600  0.91888600  0.29298100  1
  O  O18  1  0.29298100  0.02933600  0.91888600  1
  O  O19  1  0.91888600  0.29298100  0.02933600  1
  O  O20  1  0.25810400  0.99006300  0.49104600  1
  O  O21  1  0.49104600  0.25810400  0.99006300  1
  O  O22  1  0.99006300  0.49104600  0.25810400  1
  O  O23  1  0.74189600  0.50895400  0.00993700  1
  O  O24  1  0.00993700  0.74189600  0.50895400  1
  O  O25  1  0.50895400  0.00993700  0.74189600  1
  O  O26  1  0.20836300  0.67113700  0.27595800  1
  O  O27  1  0.27595800  0.20836300  0.67113700  1
  O  O28  1  0.72404200  0.32886300  0.79163700  1
  O  O29  1  0.32886300  0.79163700  0.72404200  1
  O  O30  1  0.79163700  0.72404200  0.32886300  1
  O  O31  1  0.08111400  0.97066400  0.70701900  1
loop_
_geom_bond_atom_site_label_1
_geom_bond_atom_site_label_2
_geom_bond_distance
_geom_bond_site_symmetry_2
Mn0 O18 1.914840 1_555
Mn0 O16 1.914840 1_555
Mn0 O4 1.927709 1_545
Mn0 O2 1.927709 1_556
Mn0 O21 2.006178 1_555
Mn0 O25 2.006178 1_555
Mn1 O15 1.914840 1_555
Mn1 O19 1.914840 1_555
Mn1 O0 1.927709 1_655
Mn1 O5 1.927709 1_554
Mn1 O23 2.006178 1_555
Mn1 O22 2.006178 1_555
Mn2 O31 1.914840 1_555
Mn2 O17 1.914840 1_555
Mn2 O3 1.927709 1_455
Mn2 O1 1.927709 1_565
Mn2 O20 2.006178 1_555
Mn2 O24 2.006178 1_555
Mn3 O15 1.929215 1_455
Mn3 O17 1.929215 1_555
Mn3 O26 1.929994 1_555
Mn3 O30 1.929994 1_455
Mn3 O22 1.991493 1_455
Mn3 O24 1.991493 1_555
Mn4 O18 1.929215 1_555
Mn4 O31 1.929215 1_545
Mn4 O29 1.929994 1_545
Mn4 O27 1.929994 1_555
Mn4 O25 1.991493 1_555
Mn4 O20 1.991493 1_545
Mn5 O16 1.929215 1_554
Mn5 O19 1.929215 1_555
Mn5 O28 1.929994 1_554
Mn5 O14 1.929994 1_555
Mn5 O21 1.991493 1_554
Mn5 O23 1.991493 1_555
Mn6 O7 1.920490 1_555
Mn6 O8 1.924942 1_555
Mn6 O14 1.929312 1_555
Mn6 O2 1.935108 1_555
Mn6 O12 2.014910 1_555
Mn6 O21 2.019678 1_554
Mn7 O8 1.920490 1_555
Mn7 O6 1.924942 1_555
Mn7 O26 1.929312 1_555
Mn7 O0 1.935108 1_555
Mn7 O12 2.014910 1_555
Mn7 O22 2.019678 1_455
Mn8 O6 1.920490 1_555
Mn8 O7 1.924942 1_555
Mn8 O27 1.929312 1_555
Mn8 O1 1.935108 1_555
Mn8 O12 2.014910 1_555
Mn8 O20 2.019678 1_545
Mn9 O11 1.920490 1_555
Mn9 O10 1.924942 1_555
Mn9 O29 1.929312 1_555
Mn9 O4 1.935108 1_555
Mn9 O13 2.014910 1_555
Mn9 O25 2.019678 1_565
Mn10 O9 1.920490 1_555
Mn10 O11 1.924942 1_555
Mn10 O28 1.929312 1_555
Mn10 O5 1.935108 1_555
Mn10 O13 2.014910 1_555
Mn10 O23 2.019678 1_556
Mn11 O10 1.920490 1_555
Mn11 O9 1.924942 1_555
Mn11 O30 1.929312 1_555
Mn11 O3 1.935108 1_555
Mn11 O13 2.014910 1_555
Mn11 O24 2.019678 1_655
Ag0 O9 2.638235 1_555
Ag0 O7 2.638235 1_555
Ag0 O8 2.638235 1_555
Ag0 O11 2.638235 1_555
Ag0 O6 2.638235 1_555
Ag0 O10 2.638235 1_555
Ag1 O18 2.223723 1_555
Ag1 O19 2.241091 1_456
Ag1 O0 2.536263 1_556
Ag2 O19 2.223723 1_555
Ag2 O17 2.241091 1_645
Ag2 O1 2.536263 1_655
Ag3 O17 2.223723 1_555
Ag3 O18 2.241091 1_564
Ag3 O2 2.536263 1_565
Ag4 O16 2.223723 1_555
Ag4 O31 2.241091 1_645
Ag4 O3 2.536263 1_545
Ag5 O15 2.223723 1_555
Ag5 O16 2.241091 1_564
Ag5 O4 2.536263 1_554
Ag6 O31 2.223723 1_555
Ag6 O15 2.241091 1_456
Ag6 O5 2.536263 1_455
Ag7 O10 2.204560 1_555
Ag7 O26 2.206235 1_555
Ag7 O20 2.420075 1_555
Ag8 O11 2.204560 1_555
Ag8 O27 2.206235 1_555
Ag8 O21 2.420075 1_555
Ag9 O9 2.204560 1_555
Ag9 O14 2.206235 1_555
Ag9 O22 2.420075 1_555
Ag10 O8 2.204560 1_555
Ag10 O30 2.206235 1_555
Ag10 O23 2.420075 1_555
Ag11 O6 2.204560 1_555
Ag11 O29 2.206235 1_555
Ag11 O24 2.420075 1_555
Ag12 O7 2.204560 1_555
Ag12 O28 2.206235 1_555
Ag12 O25 2.420075 1_555
Ag13 O5 2.300433 1_455
Ag13 O1 2.300433 1_555
Ag14 O2 2.300433 1_555
Ag14 O3 2.300433 1_545
Ag15 O0 2.300433 1_555
Ag15 O4 2.300433 1_554
