# generated using pymatgen
data_Lu4Ge6Ir4Pt3
_symmetry_space_group_name_H-M   'P 1'
_cell_length_a   7.18646812
_cell_length_b   7.19290055
_cell_length_c   7.18646901
_cell_angle_alpha   109.48934466
_cell_angle_beta   109.45307228
_cell_angle_gamma   109.48935718
_symmetry_Int_Tables_number   1
_chemical_formula_structural   Lu4Ge6Ir4Pt3
_chemical_formula_sum   'Lu4 Ge6 Ir4 Pt3'
_cell_volume   285.90125797
_cell_formula_units_Z   1
loop_
 _symmetry_equiv_pos_site_id
 _symmetry_equiv_pos_as_xyz
  1  'x, y, z'
loop_
 _atom_site_type_symbol
 _atom_site_label
 _atom_site_symmetry_multiplicity
 _atom_site_fract_x
 _atom_site_fract_y
 _atom_site_fract_z
 _atom_site_occupancy
  Lu  Lu0  1  0.50263639  0.50000000  0.49736361  1
  Lu  Lu1  1  0.00000000  0.50000000  0.00000000  1
  Lu  Lu2  1  0.99472623  0.99736361  0.49736361  1
  Lu  Lu3  1  0.50263639  0.00263639  0.00527377  1
  Ge  Ge0  1  0.68748336  0.00060974  0.68105323  1
  Ge  Ge1  1  0.31894677  0.99939026  0.31251664  1
  Ge  Ge2  1  0.99356887  0.31312738  0.31251664  1
  Ge  Ge3  1  0.99356887  0.68044349  0.68105323  1
  Ge  Ge4  1  0.68748336  0.68687262  0.00643113  1
  Ge  Ge5  1  0.31894677  0.31955651  0.00643113  1
  Ir  Ir0  1  0.49899238  0.74949719  0.24949719  1
  Ir  Ir1  1  0.75050281  0.50000000  0.24949719  1
  Ir  Ir2  1  0.00000000  0.00000000  0.00000000  1
  Ir  Ir3  1  0.75050281  0.25050281  0.50100762  1
  Pt  Pt0  1  0.25048052  0.50000000  0.74951948  1
  Pt  Pt1  1  0.25048052  0.75048052  0.50096004  1
  Pt  Pt2  1  0.49903996  0.24951948  0.74951948  1
loop_
_geom_bond_atom_site_label_1
_geom_bond_atom_site_label_2
_geom_bond_distance
_geom_bond_site_symmetry_2
Lu0 Pt2 2.951119 1_555
Lu0 Pt1 2.951119 1_555
Lu0 Pt0 2.958832 1_555
Lu1 Pt2 2.939168 1_454
Lu1 Pt1 2.939169 1_555
Lu1 Pt0 2.939173 1_554
Lu2 Pt0 2.951119 1_665
Lu2 Pt1 2.951125 1_655
Lu2 Pt2 2.958844 1_665
Lu3 Pt0 2.951119 1_544
Lu3 Pt2 2.951125 1_554
Lu3 Pt1 2.958845 1_544
Ge0 Ir3 2.551294 1_555
Ge0 Ir0 2.558746 1_545
Ge0 Pt1 2.596836 1_545
Ge0 Pt2 2.599117 1_555
Ge0 Ir2 2.623405 1_656
Ge0 Lu2 2.928075 1_545
Ge0 Lu1 2.982446 1_656
Ge0 Lu0 2.990275 1_545
Ge0 Lu3 3.040659 1_556
Ge1 Ir0 2.551294 1_555
Ge1 Ir3 2.558745 1_565
Ge1 Pt2 2.596837 1_565
Ge1 Pt1 2.599117 1_555
Ge1 Ir2 2.623405 1_565
Ge1 Lu3 2.928075 1_565
Ge1 Lu1 2.982446 1_555
Ge1 Lu0 2.990275 1_565
Ge1 Lu2 3.040659 1_455
Ge2 Ir1 2.551294 1_555
Ge2 Ir3 2.558753 1_555
Ge2 Pt0 2.596840 1_655
Ge2 Pt1 2.599119 1_655
Ge2 Ir2 2.623414 1_655
Ge2 Lu3 2.928077 1_555
Ge2 Lu1 2.982441 1_655
Ge2 Lu2 2.990282 1_545
Ge2 Lu0 3.040660 1_655
Ge3 Ir3 2.551307 1_555
Ge3 Ir1 2.558747 1_555
Ge3 Pt1 2.596849 1_655
Ge3 Pt0 2.599128 1_655
Ge3 Ir2 2.623401 1_666
Ge3 Lu0 2.928075 1_555
Ge3 Lu1 2.982445 1_656
Ge3 Lu2 2.990275 1_555
Ge3 Lu3 3.040659 1_666
Ge4 Ir1 2.551294 1_555
Ge4 Ir0 2.558753 1_555
Ge4 Pt0 2.596839 1_554
Ge4 Pt2 2.599119 1_554
Ge4 Ir2 2.623413 1_665
Ge4 Lu2 2.928077 1_555
Ge4 Lu1 2.982441 1_655
Ge4 Lu3 2.990282 1_565
Ge4 Lu0 3.040661 1_554
Ge5 Ir0 2.551307 1_555
Ge5 Ir1 2.558746 1_555
Ge5 Pt2 2.596849 1_554
Ge5 Pt0 2.599128 1_554
Ge5 Ir2 2.623401 1_555
Ge5 Lu0 2.928076 1_555
Ge5 Lu1 2.982445 1_555
Ge5 Lu3 2.990275 1_555
Ge5 Lu2 3.040659 1_444
Ir0 Lu2 2.908505 1_555
Ir0 Lu3 2.920202 1_565
Ir0 Lu0 2.920208 1_555
Ir0 Lu1 2.927623 1_555
Ir1 Lu0 2.908499 1_555
Ir1 Lu3 2.920208 1_555
Ir1 Lu2 2.920208 1_555
Ir1 Lu1 2.927635 1_655
Ir3 Lu3 2.908506 1_555
Ir3 Lu2 2.920202 1_545
Ir3 Lu0 2.920208 1_555
Ir3 Lu1 2.927624 1_656
