# generated using pymatgen
data_SrHf4(AsO4)6
_symmetry_space_group_name_H-M   'P 1'
_cell_length_a   8.91110033
_cell_length_b   8.91109920
_cell_length_c   9.49720377
_cell_angle_alpha   62.02129384
_cell_angle_beta   62.02129399
_cell_angle_gamma   60.00000022
_symmetry_Int_Tables_number   1
_chemical_formula_structural   SrHf4(AsO4)6
_chemical_formula_sum   'Sr1 Hf4 As6 O24'
_cell_volume   548.98081352
_cell_formula_units_Z   1
loop_
 _symmetry_equiv_pos_site_id
 _symmetry_equiv_pos_as_xyz
  1  'x, y, z'
loop_
 _atom_site_type_symbol
 _atom_site_label
 _atom_site_symmetry_multiplicity
 _atom_site_fract_x
 _atom_site_fract_y
 _atom_site_fract_z
 _atom_site_occupancy
  Sr  Sr0  1  0.50000000  0.50000000  0.50000000  1
  Hf  Hf0  1  0.14467630  0.14467630  0.56596911  1
  Hf  Hf1  1  0.85532370  0.85532370  0.43403089  1
  Hf  Hf2  1  0.64622831  0.64622831  0.06131707  1
  Hf  Hf3  1  0.35377169  0.35377169  0.93868293  1
  As  As0  1  0.96225682  0.25345308  0.25595148  1
  As  As1  1  0.25345308  0.52833762  0.25595148  1
  As  As2  1  0.52833762  0.96225682  0.25595148  1
  As  As3  1  0.03774318  0.74654692  0.74404852  1
  As  As4  1  0.74654692  0.47166238  0.74404852  1
  As  As5  1  0.47166238  0.03774318  0.74404852  1
  O  O0  1  0.97987714  0.27916093  0.41186456  1
  O  O1  1  0.27916093  0.32909738  0.41186456  1
  O  O2  1  0.32909738  0.97987714  0.41186456  1
  O  O3  1  0.02012286  0.72083907  0.58813544  1
  O  O4  1  0.72083907  0.67090262  0.58813544  1
  O  O5  1  0.67090262  0.02012286  0.58813544  1
  O  O6  1  0.49957592  0.87863771  0.92670688  1
  O  O7  1  0.87863771  0.69508150  0.92670688  1
  O  O8  1  0.69508150  0.49957592  0.92670688  1
  O  O9  1  0.50042408  0.12136229  0.07329312  1
  O  O10  1  0.12136229  0.30491850  0.07329312  1
  O  O11  1  0.30491850  0.50042408  0.07329312  1
  O  O12  1  0.02283665  0.95704211  0.70327031  1
  O  O13  1  0.95704211  0.31685093  0.70327031  1
  O  O14  1  0.31685093  0.02283665  0.70327031  1
  O  O15  1  0.97716335  0.04295789  0.29672969  1
  O  O16  1  0.04295789  0.68314907  0.29672969  1
  O  O17  1  0.68314907  0.97716335  0.29672969  1
  O  O18  1  0.60297605  0.75298688  0.23974853  1
  O  O19  1  0.75298688  0.40428754  0.23974853  1
  O  O20  1  0.40428754  0.60297605  0.23974853  1
  O  O21  1  0.39702395  0.24701312  0.76025147  1
  O  O22  1  0.24701312  0.59571246  0.76025147  1
  O  O23  1  0.59571246  0.39702395  0.76025147  1
loop_
_geom_bond_atom_site_label_1
_geom_bond_atom_site_label_2
_geom_bond_distance
_geom_bond_site_symmetry_2
Hf0 O12 2.028810 1_545
Hf0 O13 2.028821 1_455
Hf0 O14 2.028824 1_555
Hf0 O0 2.084672 1_455
Hf0 O2 2.084674 1_545
Hf0 O1 2.084686 1_555
Hf1 O15 2.028810 1_565
Hf1 O16 2.028821 1_655
Hf1 O17 2.028824 1_555
Hf1 O3 2.084672 1_655
Hf1 O5 2.084674 1_565
Hf1 O4 2.084686 1_555
Hf2 O8 2.002040 1_554
Hf2 O6 2.002040 1_554
Hf2 O7 2.002040 1_554
Hf2 O18 2.111493 1_555
Hf2 O19 2.111504 1_555
Hf2 O20 2.111513 1_555
Hf3 O11 2.002040 1_556
Hf3 O9 2.002040 1_556
Hf3 O10 2.002040 1_556
Hf3 O21 2.111493 1_555
Hf3 O22 2.111504 1_555
Hf3 O23 2.111513 1_555
As0 O15 1.674379 1_555
As0 O10 1.681022 1_655
As0 O0 1.685860 1_555
As0 O19 1.696035 1_555
As1 O16 1.674383 1_555
As1 O11 1.681026 1_555
As1 O1 1.685854 1_555
As1 O20 1.696034 1_555
As2 O17 1.674388 1_555
As2 O9 1.681024 1_565
As2 O2 1.685854 1_555
As2 O18 1.696034 1_555
As3 O12 1.674379 1_555
As3 O7 1.681022 1_455
As3 O3 1.685860 1_555
As3 O22 1.696035 1_555
As4 O13 1.674383 1_555
As4 O8 1.681026 1_555
As4 O4 1.685854 1_555
As4 O23 1.696034 1_555
As5 O14 1.674388 1_555
As5 O6 1.681024 1_545
As5 O5 1.685854 1_555
As5 O21 1.696034 1_555
O18 Sr0 2.597270 1_555
O19 Sr0 2.597273 1_555
O20 Sr0 2.597275 1_555
O21 Sr0 2.597270 1_555
O22 Sr0 2.597273 1_555
O23 Sr0 2.597275 1_555
