# generated using pymatgen
data_YNi2HgPt2
_symmetry_space_group_name_H-M   'P 1'
_cell_length_a   5.04400506
_cell_length_b   5.14363987
_cell_length_c   5.14364003
_cell_angle_alpha   63.18822698
_cell_angle_beta   60.63873642
_cell_angle_gamma   60.63873301
_symmetry_Int_Tables_number   1
_chemical_formula_structural   YNi2HgPt2
_chemical_formula_sum   'Y1 Ni2 Hg1 Pt2'
_cell_volume   97.39108129
_cell_formula_units_Z   1
loop_
 _symmetry_equiv_pos_site_id
 _symmetry_equiv_pos_as_xyz
  1  'x, y, z'
loop_
 _atom_site_type_symbol
 _atom_site_label
 _atom_site_symmetry_multiplicity
 _atom_site_fract_x
 _atom_site_fract_y
 _atom_site_fract_z
 _atom_site_occupancy
  Y  Y0  1  0.00076430  0.99923570  0.99923570  1
  Ni  Ni0  1  0.12935611  0.62147284  0.62147284  1
  Ni  Ni1  1  0.62769822  0.62147284  0.62147284  1
  Hg  Hg0  1  0.24088745  0.25911255  0.25911255  1
  Pt  Pt0  1  0.62564696  0.62418214  0.12452393  1
  Pt  Pt1  1  0.62564696  0.12452393  0.62418214  1
loop_
_geom_bond_atom_site_label_1
_geom_bond_atom_site_label_2
_geom_bond_distance
_geom_bond_site_symmetry_2
Ni0 Ni1 2.513640 1_555
Ni0 Ni1 2.530365 1_455
Ni0 Pt1 2.554945 1_555
Ni0 Pt0 2.554945 1_555
Ni0 Pt1 2.588757 1_465
Ni0 Pt0 2.588757 1_456
Ni0 Y0 2.984291 1_555
Ni0 Y0 3.103135 1_545
Ni0 Y0 3.103135 1_554
Ni1 Pt1 2.554944 1_555
Ni1 Pt0 2.554944 1_555
Ni1 Pt1 2.588757 1_565
Ni1 Pt0 2.588757 1_556
Ni1 Y0 2.984292 1_555
Ni1 Y0 3.103135 1_645
Ni1 Y0 3.103135 1_654
Hg0 Ni0 2.888222 1_555
Hg0 Ni1 2.888222 1_455
Hg0 Pt1 2.975775 1_555
Hg0 Pt0 2.975775 1_555
Hg0 Pt0 2.975775 1_455
Hg0 Pt1 2.975775 1_455
Hg0 Pt0 3.068908 1_545
Hg0 Pt1 3.068908 1_554
Hg0 Ni0 3.132708 1_545
Hg0 Ni1 3.132708 1_545
Hg0 Ni0 3.132708 1_554
Hg0 Ni1 3.132708 1_554
Hg0 Y0 3.134926 1_544
Hg0 Y0 3.134927 1_644
Hg0 Y0 3.197162 1_554
Hg0 Y0 3.197162 1_545
Pt0 Pt1 2.692903 1_555
Pt0 Pt1 2.696587 1_564
Pt0 Y0 2.996509 1_654
Pt0 Y0 2.996509 1_554
Pt0 Y0 3.006173 1_644
Pt1 Y0 2.996509 1_645
Pt1 Y0 2.996509 1_545
Pt1 Y0 3.006173 1_644
