# generated using pymatgen
data_SrAl2ZnGa
_symmetry_space_group_name_H-M   'P 1'
_cell_length_a   6.43031197
_cell_length_b   6.43031156
_cell_length_c   6.43031270
_cell_angle_alpha   141.50888851
_cell_angle_beta   141.50888371
_cell_angle_gamma   55.56927133
_symmetry_Int_Tables_number   1
_chemical_formula_structural   SrAl2ZnGa
_chemical_formula_sum   'Sr1 Al2 Zn1 Ga1'
_cell_volume   102.22931917
_cell_formula_units_Z   1
loop_
 _symmetry_equiv_pos_site_id
 _symmetry_equiv_pos_as_xyz
  1  'x, y, z'
loop_
 _atom_site_type_symbol
 _atom_site_label
 _atom_site_symmetry_multiplicity
 _atom_site_fract_x
 _atom_site_fract_y
 _atom_site_fract_z
 _atom_site_occupancy
  Sr  Sr0  1  0.00041026  0.00041026  0.00000000  1
  Al  Al0  1  0.75159750  0.25159750  0.50000000  1
  Al  Al1  1  0.25159750  0.75159750  0.50000000  1
  Zn  Zn0  1  0.38588377  0.38588377  1.00000000  1
  Ga  Ga0  1  0.61051097  0.61051097  0.00000000  1
loop_
_geom_bond_atom_site_label_1
_geom_bond_atom_site_label_2
_geom_bond_distance
_geom_bond_site_symmetry_2
Sr0 Zn0 3.268472 1_544
Sr0 Zn0 3.268472 1_454
Sr0 Zn0 3.268472 1_443
Sr0 Zn0 3.268473 1_555
Al0 Zn0 2.612837 1_655
Al0 Zn0 2.612837 1_554
Al0 Ga0 2.658822 1_545
Al0 Ga0 2.658822 1_556
Al0 Sr0 3.536494 1_666
Al0 Sr0 3.536495 1_655
Al0 Sr0 3.558158 1_555
Al0 Sr0 3.558158 1_656
Al1 Zn0 2.612836 1_565
Al1 Zn0 2.612837 1_554
Al1 Ga0 2.658822 1_455
Al1 Ga0 2.658823 1_556
Al1 Sr0 3.536495 1_666
Al1 Sr0 3.536495 1_565
Al1 Sr0 3.558158 1_555
Al1 Sr0 3.558158 1_566
Ga0 Zn0 2.555779 1_554
Ga0 Sr0 3.248724 1_655
Ga0 Sr0 3.248724 1_565
Ga0 Sr0 3.248725 1_554
Ga0 Sr0 3.248725 1_666
