# generated using pymatgen
data_ScCrFeH6
_symmetry_space_group_name_H-M   'P 1'
_cell_length_a   4.51295449
_cell_length_b   4.51295401
_cell_length_c   4.51295403
_cell_angle_alpha   59.99999258
_cell_angle_beta   59.99999610
_cell_angle_gamma   59.99999811
_symmetry_Int_Tables_number   1
_chemical_formula_structural   ScCrFeH6
_chemical_formula_sum   'Sc1 Cr1 Fe1 H6'
_cell_volume   64.99317161
_cell_formula_units_Z   1
loop_
 _symmetry_equiv_pos_site_id
 _symmetry_equiv_pos_as_xyz
  1  'x, y, z'
loop_
 _atom_site_type_symbol
 _atom_site_label
 _atom_site_symmetry_multiplicity
 _atom_site_fract_x
 _atom_site_fract_y
 _atom_site_fract_z
 _atom_site_occupancy
  Sc  Sc0  1  0.25000000  0.25000000  0.25000000  1
  Cr  Cr0  1  0.75000000  0.75000000  0.75000000  1
  Fe  Fe0  1  0.00000000  0.00000000  0.00000000  1
  H  H0  1  0.75291501  0.75291501  0.24708499  1
  H  H1  1  0.24708499  0.75291501  0.24708499  1
  H  H2  1  0.75291501  0.24708499  0.24708499  1
  H  H3  1  0.24708499  0.24708499  0.75291501  1
  H  H4  1  0.75291501  0.24708499  0.75291501  1
  H  H5  1  0.24708499  0.75291501  0.75291501  1
loop_
_geom_bond_atom_site_label_1
_geom_bond_atom_site_label_2
_geom_bond_distance
_geom_bond_site_symmetry_2
Cr0 H2 2.256553 1_565
Cr0 H2 2.256553 1_556
Cr0 H1 2.256554 1_655
Cr0 H1 2.256554 1_556
Cr0 H4 2.256554 1_555
Cr0 H4 2.256554 1_565
Cr0 H0 2.256554 1_555
Cr0 H0 2.256554 1_556
Cr0 H3 2.256554 1_655
Cr0 H3 2.256554 1_565
Cr0 H5 2.256554 1_655
Cr0 H5 2.256554 1_555
Fe0 H3 1.576966 1_554
Fe0 H0 1.576966 1_445
Fe0 H5 1.576966 1_544
Fe0 H1 1.576966 1_545
Fe0 H2 1.576966 1_455
Fe0 H4 1.576966 1_454
H0 Sc0 2.256554 1_655
H0 Sc0 2.256554 1_565
H1 Sc0 2.256554 1_555
H1 Sc0 2.256554 1_565
H2 Sc0 2.256554 1_655
H2 Sc0 2.256554 1_555
H3 Sc0 2.256554 1_555
H3 Sc0 2.256554 1_556
H4 Sc0 2.256554 1_655
H4 Sc0 2.256554 1_556
H5 Sc0 2.256553 1_565
H5 Sc0 2.256553 1_556
