# generated using pymatgen
data_Be(CN)2
_symmetry_space_group_name_H-M   'P 1'
_cell_length_a   5.36482100
_cell_length_b   5.36482100
_cell_length_c   5.37336600
_cell_angle_alpha   90.00000000
_cell_angle_beta   90.00000000
_cell_angle_gamma   90.00000000
_symmetry_Int_Tables_number   1
_chemical_formula_structural   Be(CN)2
_chemical_formula_sum   'Be2 C4 N4'
_cell_volume   154.65248229
_cell_formula_units_Z   2
loop_
 _symmetry_equiv_pos_site_id
 _symmetry_equiv_pos_as_xyz
  1  'x, y, z'
loop_
 _atom_site_type_symbol
 _atom_site_label
 _atom_site_symmetry_multiplicity
 _atom_site_fract_x
 _atom_site_fract_y
 _atom_site_fract_z
 _atom_site_occupancy
  Be  Be0  1  0.00000000  0.00000000  0.24363400  1
  Be  Be1  1  0.50000000  0.50000000  0.74363400  1
  C  C0  1  0.80773700  0.80773700  0.43881700  1
  C  C1  1  0.19226300  0.19226300  0.43881700  1
  C  C2  1  0.30773700  0.69226300  0.93881700  1
  C  C3  1  0.69226300  0.30773700  0.93881700  1
  N  N0  1  0.81743200  0.18256800  0.06436600  1
  N  N1  1  0.18256800  0.81743200  0.06436600  1
  N  N2  1  0.31743200  0.31743200  0.56436600  1
  N  N3  1  0.68256800  0.68256800  0.56436600  1
loop_
_geom_bond_atom_site_label_1
_geom_bond_atom_site_label_2
_geom_bond_distance
_geom_bond_site_symmetry_2
Be0 N1 1.687163 1_545
Be0 N0 1.687163 1_455
Be0 C1 1.796598 1_555
Be0 C0 1.796598 1_445
Be1 N3 1.687163 1_555
Be1 N2 1.687163 1_555
Be1 C2 1.796598 1_555
Be1 C3 1.796598 1_555
C0 N3 1.164887 1_555
C1 N2 1.164887 1_555
C2 N1 1.164887 1_556
C3 N0 1.164887 1_556
