# generated using pymatgen
data_Li(CuTe)2
_symmetry_space_group_name_H-M   'P 1'
_cell_length_a   8.41605825
_cell_length_b   8.41605789
_cell_length_c   8.41605757
_cell_angle_alpha   59.99999739
_cell_angle_beta   59.99999880
_cell_angle_gamma   59.99999779
_symmetry_Int_Tables_number   1
_chemical_formula_structural   Li(CuTe)2
_chemical_formula_sum   'Li4 Cu8 Te8'
_cell_volume   421.51314910
_cell_formula_units_Z   4
loop_
 _symmetry_equiv_pos_site_id
 _symmetry_equiv_pos_as_xyz
  1  'x, y, z'
loop_
 _atom_site_type_symbol
 _atom_site_label
 _atom_site_symmetry_multiplicity
 _atom_site_fract_x
 _atom_site_fract_y
 _atom_site_fract_z
 _atom_site_occupancy
  Li  Li0  1  0.61478596  0.12840468  0.12840468  1
  Li  Li1  1  0.12840468  0.61478596  0.12840468  1
  Li  Li2  1  0.12840468  0.12840468  0.61478596  1
  Li  Li3  1  0.12840468  0.12840468  0.12840468  1
  Cu  Cu0  1  0.25408410  0.25408410  0.74591590  1
  Cu  Cu1  1  0.74591590  0.74591590  0.25408410  1
  Cu  Cu2  1  0.25408410  0.74591590  0.25408410  1
  Cu  Cu3  1  0.74591590  0.25408410  0.74591590  1
  Cu  Cu4  1  0.74591590  0.25408410  0.25408410  1
  Cu  Cu5  1  0.25408410  0.74591590  0.74591590  1
  Cu  Cu6  1  0.75000000  0.75000000  0.75000000  1
  Cu  Cu7  1  0.50000000  0.50000000  0.50000000  1
  Te  Te0  1  0.37755694  0.87414802  0.87414802  1
  Te  Te1  1  0.87414802  0.37755694  0.87414802  1
  Te  Te2  1  0.87414802  0.87414802  0.37755694  1
  Te  Te3  1  0.87414802  0.87414802  0.87414802  1
  Te  Te4  1  0.88366644  0.37211152  0.37211152  1
  Te  Te5  1  0.37211152  0.88366644  0.37211152  1
  Te  Te6  1  0.37211152  0.37211152  0.88366644  1
  Te  Te7  1  0.37211152  0.37211152  0.37211152  1
loop_
_geom_bond_atom_site_label_1
_geom_bond_atom_site_label_2
_geom_bond_distance
_geom_bond_site_symmetry_2
Li0 Te6 2.900631 1_554
Li0 Te5 2.900631 1_545
Li0 Te7 2.900637 1_555
Li0 Te3 3.026494 1_544
Li0 Te2 3.026500 1_545
Li0 Te1 3.026500 1_554
Li1 Te6 2.900631 1_554
Li1 Te4 2.900631 1_455
Li1 Te7 2.900637 1_555
Li1 Te3 3.026494 1_454
Li1 Te2 3.026500 1_455
Li1 Te0 3.026500 1_554
Li2 Te5 2.900631 1_545
Li2 Te4 2.900631 1_455
Li2 Te7 2.900637 1_555
Li2 Te3 3.026494 1_445
Li2 Te0 3.026500 1_545
Li2 Te1 3.026500 1_455
Li3 Te5 2.900637 1_545
Li3 Te4 2.900637 1_455
Li3 Te6 2.900637 1_554
Li3 Te0 3.026494 1_544
Li3 Te1 3.026494 1_454
Li3 Te2 3.026494 1_445
Cu0 Te7 2.570452 1_555
Cu0 Te6 2.570459 1_555
Cu0 Te0 2.610902 1_545
Cu0 Te1 2.610903 1_455
Cu0 Li3 2.628475 1_556
Cu0 Li2 2.628475 1_555
Cu1 Te4 2.570452 1_555
Cu1 Te5 2.570452 1_555
Cu1 Te3 2.610902 1_554
Cu1 Te2 2.610909 1_555
Cu1 Li0 2.628475 1_565
Cu1 Li1 2.628475 1_655
Cu2 Te7 2.570452 1_555
Cu2 Te5 2.570459 1_555
Cu2 Te0 2.610902 1_554
Cu2 Te2 2.610903 1_455
Cu2 Li3 2.628475 1_565
Cu2 Li1 2.628475 1_555
Cu3 Te4 2.570452 1_555
Cu3 Te6 2.570452 1_555
Cu3 Te3 2.610902 1_545
Cu3 Te1 2.610909 1_555
Cu3 Li0 2.628475 1_556
Cu3 Li2 2.628475 1_655
Cu4 Te7 2.570452 1_555
Cu4 Te4 2.570459 1_555
Cu4 Te1 2.610902 1_554
Cu4 Te2 2.610902 1_545
Cu4 Li0 2.628475 1_555
Cu4 Li3 2.628475 1_655
Cu5 Te5 2.570452 1_555
Cu5 Te6 2.570452 1_555
Cu5 Te3 2.610903 1_455
Cu5 Te0 2.610909 1_555
Cu5 Li1 2.628475 1_556
Cu5 Li2 2.628475 1_565
Cu6 Te2 2.559310 1_555
Cu6 Te1 2.559310 1_555
Cu6 Te0 2.559311 1_555
Cu6 Te3 2.559317 1_555
Cu7 Te7 2.636427 1_555
Cu7 Te6 2.636434 1_555
Cu7 Te5 2.636434 1_555
Cu7 Te4 2.636434 1_555
