# generated using pymatgen
data_Sc12AlNi4Rh
_symmetry_space_group_name_H-M   'P 1'
_cell_length_a   7.71319858
_cell_length_b   7.71319825
_cell_length_c   7.71319794
_cell_angle_alpha   111.30461167
_cell_angle_beta   110.69074109
_cell_angle_gamma   106.46024777
_symmetry_Int_Tables_number   1
_chemical_formula_structural   Sc12AlNi4Rh
_chemical_formula_sum   'Sc12 Al1 Ni4 Rh1'
_cell_volume   352.51206481
_cell_formula_units_Z   1
loop_
 _symmetry_equiv_pos_site_id
 _symmetry_equiv_pos_as_xyz
  1  'x, y, z'
loop_
 _atom_site_type_symbol
 _atom_site_label
 _atom_site_symmetry_multiplicity
 _atom_site_fract_x
 _atom_site_fract_y
 _atom_site_fract_z
 _atom_site_occupancy
  Sc  Sc0  1  0.42068329  0.22620771  0.19447458  1
  Sc  Sc1  1  0.57931671  0.77379229  0.80552542  1
  Sc  Sc2  1  0.03173213  0.22620771  0.80552542  1
  Sc  Sc3  1  0.96826787  0.77379229  0.19447458  1
  Sc  Sc4  1  0.32429030  0.62339596  0.29910465  1
  Sc  Sc5  1  0.67570970  0.37660404  0.70089535  1
  Sc  Sc6  1  0.32429030  0.02518465  0.70089535  1
  Sc  Sc7  1  0.67570970  0.97481535  0.29910465  1
  Sc  Sc8  1  0.18395337  0.28417074  0.46812511  1
  Sc  Sc9  1  0.81604663  0.71582826  0.53187489  1
  Sc  Sc10  1  0.18395337  0.71582826  0.89978163  1
  Sc  Sc11  1  0.81604663  0.28417074  0.10021837  1
  Al  Al0  1  0.50000000  0.50000000  0.00000000  1
  Ni  Ni0  1  0.35442635  1.00000000  0.35442635  1
  Ni  Ni1  1  0.64557365  0.00000000  0.64557365  1
  Ni  Ni2  1  0.12580538  0.62580538  0.50000000  1
  Ni  Ni3  1  0.87419462  0.37419462  0.50000000  1
  Rh  Rh0  1  0.00000000  0.00000000  0.00000000  1
loop_
_geom_bond_atom_site_label_1
_geom_bond_atom_site_label_2
_geom_bond_distance
_geom_bond_site_symmetry_2
Al0 Sc1 3.049965 1_554
Al0 Sc0 3.049965 1_555
Al0 Sc3 3.049973 1_555
Al0 Sc2 3.049973 1_554
Al0 Sc4 3.067584 1_555
Al0 Sc5 3.067584 1_554
Al0 Sc6 3.067589 1_554
Al0 Sc7 3.067589 1_555
Al0 Sc8 3.348824 1_554
Al0 Sc9 3.348825 1_555
Al0 Sc10 3.348825 1_554
Al0 Sc11 3.348831 1_555
Ni0 Sc3 2.516338 1_455
Ni0 Sc0 2.516345 1_565
Ni0 Ni1 2.553911 1_565
Ni0 Sc4 2.705675 1_555
Ni0 Sc5 2.705679 1_565
Ni0 Sc7 2.705680 1_555
Ni0 Sc6 2.705684 1_565
Ni0 Sc8 2.890268 1_565
Ni0 Sc10 2.890274 1_554
Ni0 Rh0 3.108988 1_565
Ni1 Sc2 2.516338 1_655
Ni1 Sc1 2.516345 1_545
Ni1 Sc5 2.705675 1_555
Ni1 Sc4 2.705679 1_545
Ni1 Sc6 2.705680 1_555
Ni1 Sc7 2.705684 1_545
Ni1 Sc11 2.890272 1_556
Ni1 Sc9 2.890274 1_545
Ni1 Rh0 3.108988 1_656
Ni2 Ni3 2.323444 1_455
Ni2 Sc6 2.533138 1_565
Ni2 Sc4 2.533144 1_555
Ni2 Sc10 2.735362 1_555
Ni2 Sc9 2.735362 1_455
Ni2 Sc11 2.735365 1_455
Ni2 Sc8 2.735370 1_555
Ni2 Sc1 3.008324 1_555
Ni2 Sc3 3.008328 1_455
Ni3 Sc7 2.533138 1_545
Ni3 Sc5 2.533144 1_555
Ni3 Sc11 2.735360 1_555
Ni3 Sc9 2.735362 1_555
Ni3 Sc10 2.735362 1_655
Ni3 Sc8 2.735366 1_655
Ni3 Sc0 3.008324 1_555
Ni3 Sc2 3.008328 1_655
Rh0 Sc2 2.696939 1_554
Rh0 Sc3 2.696939 1_445
Rh0 Sc0 2.696946 1_555
Rh0 Sc1 2.696946 1_444
Rh0 Sc11 2.953181 1_455
Rh0 Sc8 2.953186 1_555
Rh0 Sc9 2.953187 1_444
Rh0 Sc10 2.953187 1_544
