# generated using pymatgen
data_Y4Ga18(TcPd)3
_symmetry_space_group_name_H-M   'P 1'
_cell_length_a   7.52112521
_cell_length_b   7.52112243
_cell_length_c   9.66753089
_cell_angle_alpha   89.95075063
_cell_angle_beta   89.95075105
_cell_angle_gamma   119.78226380
_symmetry_Int_Tables_number   1
_chemical_formula_structural   Y4Ga18(TcPd)3
_chemical_formula_sum   'Y4 Ga18 Tc3 Pd3'
_cell_volume   474.63496684
_cell_formula_units_Z   1
loop_
 _symmetry_equiv_pos_site_id
 _symmetry_equiv_pos_as_xyz
  1  'x, y, z'
loop_
 _atom_site_type_symbol
 _atom_site_label
 _atom_site_symmetry_multiplicity
 _atom_site_fract_x
 _atom_site_fract_y
 _atom_site_fract_z
 _atom_site_occupancy
  Y  Y0  1  0.99671442  0.67018718  0.25054148  1
  Y  Y1  1  0.00284547  0.33032627  0.74855044  1
  Y  Y2  1  0.66967473  0.99715553  0.25144956  1
  Y  Y3  1  0.32981282  0.00328458  0.74945852  1
  Ga  Ga0  1  0.13534405  0.13246897  0.24866217  1
  Ga  Ga1  1  0.86753103  0.86465595  0.75133783  1
  Ga  Ga2  1  0.00863015  0.33818224  0.07819202  1
  Ga  Ga3  1  0.99687734  0.66408901  0.92194156  1
  Ga  Ga4  1  0.99327386  0.66090324  0.57767952  1
  Ga  Ga5  1  0.33909576  0.00672614  0.42232048  1
  Ga  Ga6  1  0.01054418  0.33896640  0.41912404  1
  Ga  Ga7  1  0.66103460  0.98945782  0.58087696  1
  Ga  Ga8  1  0.66181776  0.99136885  0.92180798  1
  Ga  Ga9  1  0.33591099  0.00312266  0.07805844  1
  Ga  Ga10  1  0.34688272  0.34564903  0.56540852  1
  Ga  Ga11  1  0.65435097  0.65311728  0.43459248  1
  Ga  Ga12  1  0.65432092  0.66140115  0.06822754  1
  Ga  Ga13  1  0.33859885  0.34567808  0.93177146  1
  Ga  Ga14  1  0.33576882  0.55096535  0.24966009  1
  Ga  Ga15  1  0.66837798  0.45586543  0.74725999  1
  Ga  Ga16  1  0.54413357  0.33162302  0.25273901  1
  Ga  Ga17  1  0.44903565  0.66423018  0.75033991  1
  Tc  Tc0  1  0.32473865  0.67526135  1.00000000  1
  Tc  Tc1  1  0.32387091  0.67613009  0.50000000  1
  Tc  Tc2  1  0.67821649  0.32178351  0.50000000  1
  Pd  Pd0  1  0.67209204  0.32790696  0.99999900  1
  Pd  Pd1  1  0.00059977  0.99940023  0.00000000  1
  Pd  Pd2  1  0.99990650  0.00009350  0.50000000  1
loop_
_geom_bond_atom_site_label_1
_geom_bond_atom_site_label_2
_geom_bond_distance
_geom_bond_site_symmetry_2
Ga0 Pd1 2.609292 1_545
Ga0 Pd2 2.630015 1_455
Ga0 Ga16 2.668977 1_555
Ga0 Ga9 2.720018 1_555
Ga0 Ga6 2.731077 1_555
Ga0 Ga14 2.732435 1_555
Ga0 Ga2 2.735177 1_555
Ga0 Ga5 2.739110 1_555
Ga0 Y0 3.094302 1_445
Ga0 Y2 3.124398 1_445
Ga1 Pd1 2.609292 1_656
Ga1 Pd2 2.630015 1_565
Ga1 Ga15 2.668983 1_555
Ga1 Ga3 2.720018 1_555
Ga1 Ga7 2.731075 1_555
Ga1 Ga17 2.732429 1_555
Ga1 Ga8 2.735172 1_555
Ga1 Ga4 2.739115 1_555
Ga1 Y3 3.094305 1_665
Ga1 Y1 3.124402 1_665
Ga2 Tc0 2.580131 1_554
Ga2 Pd0 2.606371 1_454
Ga2 Pd1 2.630207 1_545
Ga2 Ga3 2.916677 1_454
Ga2 Ga8 3.024557 1_444
Ga2 Y0 3.041167 1_455
Ga2 Y2 3.061521 1_445
Ga2 Y1 3.187352 1_554
Ga3 Tc0 2.540589 1_655
Ga3 Pd0 2.605277 1_555
Ga3 Pd1 2.619825 1_656
Ga3 Ga9 2.972544 1_666
Ga3 Y3 3.032900 1_665
Ga3 Y1 3.038482 1_655
Ga3 Y0 3.177128 1_556
Ga4 Tc1 2.544273 1_655
Ga4 Tc2 2.585857 1_555
Ga4 Pd2 2.635286 1_565
Ga4 Ga6 2.923657 1_655
Ga4 Ga5 3.008658 1_665
Ga4 Y1 3.014406 1_655
Ga4 Y3 3.055366 1_665
Ga4 Y0 3.163128 1_555
Ga5 Tc1 2.544271 1_545
Ga5 Tc2 2.585861 1_555
Ga5 Pd2 2.635279 1_455
Ga5 Ga7 2.923669 1_545
Ga5 Y2 3.014416 1_545
Ga5 Y0 3.055366 1_445
Ga5 Y3 3.163128 1_555
Ga6 Tc2 2.559490 1_455
Ga6 Tc1 2.581729 1_555
Ga6 Pd2 2.628215 1_455
Ga6 Y0 3.020522 1_455
Ga6 Y2 3.045692 1_445
Ga6 Y1 3.185237 1_555
Ga7 Tc2 2.559481 1_565
Ga7 Tc1 2.581735 1_555
Ga7 Pd2 2.628218 1_565
Ga7 Y3 3.020514 1_565
Ga7 Y1 3.045684 1_665
Ga7 Y2 3.185246 1_555
Ga8 Tc0 2.580128 1_555
Ga8 Pd0 2.606368 1_565
Ga8 Pd1 2.630205 1_656
Ga8 Ga9 2.916682 1_566
Ga8 Y3 3.041168 1_565
Ga8 Y1 3.061531 1_665
Ga8 Y2 3.187352 1_556
Ga9 Tc0 2.540588 1_544
Ga9 Pd0 2.605275 1_554
Ga9 Pd1 2.619826 1_545
Ga9 Y0 3.032904 1_445
Ga9 Y2 3.038486 1_545
Ga9 Y3 3.177128 1_554
Ga10 Ga11 2.640503 1_555
Ga10 Tc1 2.651943 1_555
Ga10 Tc2 2.661577 1_555
Ga10 Pd2 2.689371 1_455
Ga10 Ga15 2.764649 1_555
Ga10 Ga17 2.776472 1_555
Ga10 Ga5 2.876226 1_555
Ga10 Ga6 2.877774 1_555
Ga10 Y3 3.078342 1_555
Ga10 Y1 3.088527 1_555
Ga11 Tc1 2.651938 1_555
Ga11 Tc2 2.661574 1_555
Ga11 Pd2 2.689368 1_565
Ga11 Ga16 2.764654 1_555
Ga11 Ga14 2.776485 1_555
Ga11 Ga4 2.876225 1_555
Ga11 Ga7 2.877783 1_555
Ga11 Y0 3.078342 1_555
Ga11 Y2 3.088535 1_555
Ga12 Tc0 2.617235 1_554
Ga12 Pd0 2.660826 1_554
Ga12 Pd1 2.664109 1_655
Ga12 Ga13 2.725228 1_554
Ga12 Ga14 2.742261 1_555
Ga12 Ga16 2.822839 1_555
Ga12 Ga8 2.832075 1_554
Ga12 Ga3 2.929210 1_554
Ga12 Y2 3.040739 1_555
Ga12 Y0 3.095382 1_555
Ga13 Tc0 2.617244 1_555
Ga13 Pd0 2.660817 1_555
Ga13 Pd1 2.664108 1_546
Ga13 Ga17 2.742253 1_555
Ga13 Ga15 2.822845 1_555
Ga13 Ga2 2.832090 1_556
Ga13 Ga9 2.929207 1_556
Ga13 Y1 3.040734 1_555
Ga13 Y3 3.095376 1_555
Ga14 Tc0 2.603800 1_554
Ga14 Tc1 2.615081 1_555
Ga14 Ga6 2.706233 1_555
Ga14 Ga2 2.731807 1_555
Ga14 Ga16 2.783269 1_555
Ga14 Y2 3.032639 1_555
Ga14 Y0 3.094912 1_455
Ga15 Tc2 2.610439 1_555
Ga15 Pd0 2.630547 1_555
Ga15 Ga4 2.698562 1_555
Ga15 Ga3 2.752572 1_555
Ga15 Ga17 2.783269 1_555
Ga15 Y3 3.075776 1_555
Ga15 Y1 3.095050 1_655
Ga16 Tc2 2.610453 1_555
Ga16 Pd0 2.630559 1_554
Ga16 Ga5 2.698572 1_555
Ga16 Ga9 2.752569 1_555
Ga16 Y0 3.075775 1_555
Ga16 Y2 3.095060 1_545
Ga17 Tc0 2.603805 1_555
Ga17 Tc1 2.615084 1_555
Ga17 Ga7 2.706241 1_555
Ga17 Ga8 2.731805 1_555
Ga17 Y1 3.032636 1_555
Ga17 Y3 3.094917 1_565
