# generated using pymatgen
data_Zr4TiCuBi3
_symmetry_space_group_name_H-M   'P 1'
_cell_length_a   8.72203111
_cell_length_b   8.72203264
_cell_length_c   5.83405862
_cell_angle_alpha   90.00000000
_cell_angle_beta   90.00000000
_cell_angle_gamma   120.00000547
_symmetry_Int_Tables_number   1
_chemical_formula_structural   Zr4TiCuBi3
_chemical_formula_sum   'Zr8 Ti2 Cu2 Bi6'
_cell_volume   384.35871756
_cell_formula_units_Z   2
loop_
 _symmetry_equiv_pos_site_id
 _symmetry_equiv_pos_as_xyz
  1  'x, y, z'
loop_
 _atom_site_type_symbol
 _atom_site_label
 _atom_site_symmetry_multiplicity
 _atom_site_fract_x
 _atom_site_fract_y
 _atom_site_fract_z
 _atom_site_occupancy
  Zr  Zr0  1  0.66666700  0.33333300  0.50000000  1
  Zr  Zr1  1  0.33333300  0.66666700  0.50000000  1
  Zr  Zr2  1  0.74144399  0.74144399  0.25432126  1
  Zr  Zr3  1  0.25855601  1.00000000  0.25432126  1
  Zr  Zr4  1  0.00000000  0.25855601  0.25432126  1
  Zr  Zr5  1  0.25855601  0.25855601  0.74567874  1
  Zr  Zr6  1  0.74144399  0.00000000  0.74567874  1
  Zr  Zr7  1  1.00000000  0.74144399  0.74567874  1
  Ti  Ti0  1  0.33333300  0.66666700  0.00000000  1
  Ti  Ti1  1  0.66666700  0.33333300  0.00000000  1
  Cu  Cu0  1  0.00000000  0.00000000  0.00000000  1
  Cu  Cu1  1  0.00000000  0.00000000  0.50000000  1
  Bi  Bi0  1  0.38828197  0.38828197  0.24209314  1
  Bi  Bi1  1  0.61171803  0.00000000  0.24209314  1
  Bi  Bi2  1  1.00000000  0.61171803  0.24209314  1
  Bi  Bi3  1  0.61171803  0.61171803  0.75790686  1
  Bi  Bi4  1  0.38828197  1.00000000  0.75790686  1
  Bi  Bi5  1  0.00000000  0.38828197  0.75790686  1
loop_
_geom_bond_atom_site_label_1
_geom_bond_atom_site_label_2
_geom_bond_distance
_geom_bond_site_symmetry_2
Ti0 Zr1 2.917029 1_554
Ti0 Zr1 2.917029 1_555
Ti1 Zr0 2.917029 1_555
Ti1 Zr0 2.917029 1_554
Cu0 Zr3 2.699457 1_545
Cu0 Zr6 2.699457 1_454
Cu0 Zr5 2.699457 1_554
Cu0 Zr2 2.699457 1_445
Cu0 Zr4 2.699457 1_555
Cu0 Zr7 2.699457 1_444
Cu1 Zr3 2.672076 1_545
Cu1 Zr6 2.672076 1_455
Cu1 Zr5 2.672076 1_555
Cu1 Zr2 2.672076 1_445
Cu1 Zr7 2.672076 1_445
Cu1 Zr4 2.672076 1_555
Bi0 Zr4 2.987068 1_555
Bi0 Zr3 2.987068 1_545
Bi0 Ti1 3.046935 1_555
Bi0 Ti0 3.046936 1_555
Bi0 Zr2 3.081116 1_555
Bi0 Zr0 3.090782 1_555
Bi0 Zr1 3.090783 1_555
Bi0 Zr5 3.109291 1_554
Bi0 Zr5 3.148297 1_555
Bi1 Zr4 2.987068 1_655
Bi1 Zr2 2.987068 1_545
Bi1 Ti1 3.046928 1_555
Bi1 Ti0 3.046931 1_545
Bi1 Zr3 3.081116 1_545
Bi1 Zr0 3.090775 1_555
Bi1 Zr1 3.090778 1_545
Bi1 Zr6 3.109291 1_554
Bi1 Zr6 3.148297 1_555
Bi2 Zr2 2.987068 1_555
Bi2 Zr3 2.987068 1_655
Bi2 Ti0 3.046928 1_655
Bi2 Ti1 3.046930 1_555
Bi2 Zr4 3.081117 1_655
Bi2 Zr1 3.090775 1_655
Bi2 Zr0 3.090777 1_555
Bi2 Zr7 3.109291 1_554
Bi2 Zr7 3.148297 1_555
Bi3 Zr7 2.987068 1_555
Bi3 Zr6 2.987068 1_565
Bi3 Ti0 3.046935 1_556
Bi3 Ti1 3.046936 1_556
Bi3 Zr5 3.081116 1_555
Bi3 Zr1 3.090782 1_555
Bi3 Zr0 3.090783 1_555
Bi3 Zr2 3.109291 1_556
Bi3 Zr2 3.148297 1_555
Bi4 Zr7 2.987068 1_455
Bi4 Zr5 2.987068 1_565
Bi4 Ti0 3.046928 1_556
Bi4 Ti1 3.046931 1_566
Bi4 Zr6 3.081116 1_565
Bi4 Zr1 3.090775 1_555
Bi4 Zr0 3.090778 1_565
Bi4 Zr3 3.109291 1_556
Bi4 Zr3 3.148297 1_555
Bi5 Zr5 2.987068 1_555
Bi5 Zr6 2.987068 1_455
Bi5 Ti1 3.046928 1_456
Bi5 Ti0 3.046930 1_556
Bi5 Zr7 3.081117 1_455
Bi5 Zr0 3.090775 1_455
Bi5 Zr1 3.090777 1_555
Bi5 Zr4 3.109291 1_556
Bi5 Zr4 3.148297 1_555
