# generated using pymatgen
data_NaTc3W3Se8
_symmetry_space_group_name_H-M   'P 1'
_cell_length_a   6.80670546
_cell_length_b   6.80670395
_cell_length_c   6.80670307
_cell_angle_alpha   90.87828014
_cell_angle_beta   90.87827131
_cell_angle_gamma   90.87828201
_symmetry_Int_Tables_number   1
_chemical_formula_structural   NaTc3W3Se8
_chemical_formula_sum   'Na1 Tc3 W3 Se8'
_cell_volume   315.25061881
_cell_formula_units_Z   1
loop_
 _symmetry_equiv_pos_site_id
 _symmetry_equiv_pos_as_xyz
  1  'x, y, z'
loop_
 _atom_site_type_symbol
 _atom_site_label
 _atom_site_symmetry_multiplicity
 _atom_site_fract_x
 _atom_site_fract_y
 _atom_site_fract_z
 _atom_site_occupancy
  Na  Na0  1  0.99837459  0.99837459  0.99837459  1
  Tc  Tc0  1  0.75822680  0.44354314  0.58283942  1
  Tc  Tc1  1  0.58283942  0.75822680  0.44354314  1
  Tc  Tc2  1  0.44354314  0.58283942  0.75822680  1
  W  W0  1  0.24380389  0.55604516  0.41735130  1
  W  W1  1  0.41735130  0.24380389  0.55604516  1
  W  W2  1  0.55604516  0.41735130  0.24380389  1
  Se  Se0  1  0.87724129  0.61974415  0.27019471  1
  Se  Se1  1  0.27019471  0.87724129  0.61974415  1
  Se  Se2  1  0.61974415  0.27019471  0.87724129  1
  Se  Se3  1  0.12059148  0.37970805  0.73929264  1
  Se  Se4  1  0.73929264  0.12059148  0.37970805  1
  Se  Se5  1  0.37970805  0.73929264  0.12059148  1
  Se  Se6  1  0.76107078  0.76107078  0.76107078  1
  Se  Se7  1  0.23197062  0.23197062  0.23197062  1
loop_
_geom_bond_atom_site_label_1
_geom_bond_atom_site_label_2
_geom_bond_distance
_geom_bond_site_symmetry_2
Na0 Se7 2.711451 1_666
Na0 Se6 2.754489 1_555
Na0 Se4 3.264709 1_566
Na0 Se3 3.264709 1_665
Na0 Se5 3.264710 1_656
Na0 Se1 3.297417 1_655
Na0 Se0 3.297417 1_556
Na0 Se2 3.297418 1_565
Tc0 W2 2.670905 1_555
Tc0 W1 2.673558 1_555
Tc1 W0 2.670906 1_555
Tc1 W2 2.673557 1_555
Tc2 W1 2.670905 1_555
Tc2 W0 2.673557 1_555
Se0 Tc1 2.528377 1_555
Se0 W2 2.568661 1_555
Se0 Tc0 2.593207 1_555
Se0 W0 2.717830 1_655
Se1 Tc2 2.528377 1_555
Se1 W0 2.568661 1_555
Se1 Tc1 2.593208 1_555
Se1 W1 2.717830 1_565
Se2 Tc0 2.528377 1_555
Se2 W1 2.568661 1_555
Se2 Tc2 2.593208 1_555
Se2 W2 2.717829 1_556
Se3 W1 2.567274 1_555
Se3 Tc2 2.579392 1_555
Se3 W0 2.655597 1_555
Se3 Tc0 2.715338 1_455
Se4 W2 2.567274 1_555
Se4 Tc0 2.579392 1_555
Se4 W1 2.655598 1_555
Se4 Tc1 2.715337 1_545
Se5 W0 2.567274 1_555
Se5 Tc1 2.579392 1_555
Se5 W2 2.655598 1_555
Se5 Tc2 2.715337 1_554
Se6 Tc0 2.461921 1_555
Se6 Tc1 2.461921 1_555
Se6 Tc2 2.461922 1_555
Se7 W0 2.524028 1_555
Se7 W1 2.524028 1_555
Se7 W2 2.524028 1_555
