# generated using pymatgen
data_KGaCl4
_symmetry_space_group_name_H-M   'P 1'
_cell_length_a   10.29552012
_cell_length_b   7.29367707
_cell_length_c   11.52813571
_cell_angle_alpha   54.31460610
_cell_angle_beta   90.00000000
_cell_angle_gamma   90.00000000
_symmetry_Int_Tables_number   1
_chemical_formula_structural   KGaCl4
_chemical_formula_sum   'K4 Ga4 Cl16'
_cell_volume   703.12758592
_cell_formula_units_Z   4
loop_
 _symmetry_equiv_pos_site_id
 _symmetry_equiv_pos_as_xyz
  1  'x, y, z'
loop_
 _atom_site_type_symbol
 _atom_site_label
 _atom_site_symmetry_multiplicity
 _atom_site_fract_x
 _atom_site_fract_y
 _atom_site_fract_z
 _atom_site_occupancy
  K  K0  1  0.29985326  0.97635388  0.20472106  1
  K  K1  1  0.79985326  0.02364612  0.29527894  1
  K  K2  1  0.70014674  0.02364612  0.79527894  1
  K  K3  1  0.20014674  0.97635388  0.70472106  1
  Ga  Ga0  1  0.54802468  0.43025970  0.31570057  1
  Ga  Ga1  1  0.04802468  0.56974030  0.18429943  1
  Ga  Ga2  1  0.45197532  0.56974030  0.68429943  1
  Ga  Ga3  1  0.95197532  0.43025970  0.81570057  1
  Cl  Cl0  1  0.87286896  0.61967912  0.06286092  1
  Cl  Cl1  1  0.37286896  0.38032088  0.43713908  1
  Cl  Cl2  1  0.12713104  0.38032088  0.93713908  1
  Cl  Cl3  1  0.62713104  0.61967912  0.56286092  1
  Cl  Cl4  1  0.47432960  0.71162905  0.80664588  1
  Cl  Cl5  1  0.97432960  0.28837095  0.69335412  1
  Cl  Cl6  1  0.52567040  0.28837095  0.19335412  1
  Cl  Cl7  1  0.02567040  0.71162905  0.30664588  1
  Cl  Cl8  1  0.91966096  0.79470422  0.67127581  1
  Cl  Cl9  1  0.41966096  0.20529578  0.82872419  1
  Cl  Cl10  1  0.08033904  0.20529578  0.32872419  1
  Cl  Cl11  1  0.58033904  0.79470422  0.17127581  1
  Cl  Cl12  1  0.71755044  0.26044316  0.45220178  1
  Cl  Cl13  1  0.21755044  0.73955684  0.04779822  1
  Cl  Cl14  1  0.28244956  0.73955684  0.54779822  1
  Cl  Cl15  1  0.78244956  0.26044316  0.95220178  1
loop_
_geom_bond_atom_site_label_1
_geom_bond_atom_site_label_2
_geom_bond_distance
_geom_bond_site_symmetry_2
Cl0 Ga1 2.179360 1_655
Cl0 K2 3.279539 1_564
Cl0 K1 3.612977 1_555
Cl1 Ga0 2.179360 1_555
Cl1 K3 3.279539 1_545
Cl1 K0 3.612977 1_555
Cl2 Ga3 2.179360 1_455
Cl2 K0 3.279539 1_546
Cl2 K3 3.612977 1_555
Cl3 Ga2 2.179360 1_555
Cl3 K1 3.279539 1_565
Cl3 K2 3.612977 1_555
Cl4 Ga2 2.194580 1_555
Cl4 K2 3.202106 1_565
Cl4 K3 3.229607 1_555
Cl5 Ga3 2.194580 1_555
Cl5 K3 3.202106 1_645
Cl5 K2 3.229607 1_555
Cl6 Ga0 2.194580 1_555
Cl6 K0 3.202106 1_545
Cl6 K1 3.229607 1_555
Cl7 Ga1 2.194580 1_555
Cl7 K1 3.202106 1_465
Cl7 K0 3.229607 1_555
Cl8 Ga3 2.187502 1_555
Cl8 K3 3.292271 1_655
Cl8 K2 3.567133 1_565
Cl9 Ga2 2.187502 1_555
Cl9 K2 3.292271 1_555
Cl9 K3 3.567133 1_545
Cl10 Ga1 2.187502 1_555
Cl10 K1 3.292271 1_455
Cl10 K0 3.567133 1_545
Cl11 Ga0 2.187502 1_555
Cl11 K0 3.292271 1_555
Cl11 K1 3.567133 1_565
Cl12 Ga0 2.186940 1_555
Cl12 K1 3.258632 1_555
Cl12 K2 3.269263 1_555
Cl13 Ga1 2.186940 1_555
Cl13 K0 3.258632 1_555
Cl13 K3 3.269263 1_554
Cl14 Ga2 2.186940 1_555
Cl14 K3 3.258632 1_555
Cl14 K0 3.269263 1_555
Cl15 Ga3 2.186940 1_555
Cl15 K2 3.258632 1_555
Cl15 K1 3.269263 1_556
