# generated using pymatgen
data_K4Sr2HfP4
_symmetry_space_group_name_H-M   'P 1'
_cell_length_a   10.17462330
_cell_length_b   10.17462336
_cell_length_c   7.66142574
_cell_angle_alpha   88.23814767
_cell_angle_beta   88.23814491
_cell_angle_gamma   119.68965928
_symmetry_Int_Tables_number   1
_chemical_formula_structural   K4Sr2HfP4
_chemical_formula_sum   'K8 Sr4 Hf2 P8'
_cell_volume   687.71994383
_cell_formula_units_Z   2
loop_
 _symmetry_equiv_pos_site_id
 _symmetry_equiv_pos_as_xyz
  1  'x, y, z'
loop_
 _atom_site_type_symbol
 _atom_site_label
 _atom_site_symmetry_multiplicity
 _atom_site_fract_x
 _atom_site_fract_y
 _atom_site_fract_z
 _atom_site_occupancy
  K  K0  1  0.05852721  0.52533527  0.61441409  1
  K  K1  1  0.52533527  0.05852721  0.11441409  1
  K  K2  1  0.27779563  0.13329413  0.82749406  1
  K  K3  1  0.87359787  0.73269247  0.76268340  1
  K  K4  1  0.86150542  0.14419530  0.80006280  1
  K  K5  1  0.73269247  0.87359787  0.26268340  1
  K  K6  1  0.13329413  0.27779563  0.32749406  1
  K  K7  1  0.14419530  0.86150542  0.30006280  1
  Sr  Sr0  1  0.46736147  0.93012710  0.60498566  1
  Sr  Sr1  1  0.46802212  0.52529749  0.62073955  1
  Sr  Sr2  1  0.93012710  0.46736147  0.10498566  1
  Sr  Sr3  1  0.52529749  0.46802212  0.12073955  1
  Hf  Hf0  1  0.66568407  0.33578986  0.50933509  1
  Hf  Hf1  1  0.33578986  0.66568407  0.00933509  1
  P  P0  1  0.66985210  0.35652310  0.83715635  1
  P  P1  1  0.35652310  0.66985210  0.33715635  1
  P  P2  1  0.59778355  0.78966314  0.86860086  1
  P  P3  1  0.20414938  0.39612809  0.92259147  1
  P  P4  1  0.19542470  0.79124554  0.90068068  1
  P  P5  1  0.39612809  0.20414938  0.42259147  1
  P  P6  1  0.78966314  0.59778355  0.36860086  1
  P  P7  1  0.79124554  0.19542470  0.40068068  1
loop_
_geom_bond_atom_site_label_1
_geom_bond_atom_site_label_2
_geom_bond_distance
_geom_bond_site_symmetry_2
K0 P1 3.295877 1_555
K0 P4 3.299978 1_555
K0 P3 3.384083 1_555
K0 P7 3.593553 1_455
K0 P6 3.715178 1_455
K0 P0 3.765310 1_455
K1 P0 3.295877 1_554
K1 P7 3.299978 1_555
K1 P5 3.384083 1_555
K1 P4 3.593553 1_544
K1 P2 3.715178 1_544
K1 P1 3.765310 1_545
K2 P4 3.176550 1_545
K2 P3 3.211718 1_555
K2 P5 3.219554 1_555
K2 P0 3.482808 1_555
K3 P2 3.220272 1_555
K3 P4 3.242531 1_655
K3 P6 3.313822 1_555
K3 P0 3.347404 1_555
K4 P7 3.248211 1_555
K4 P2 3.270542 1_545
K4 P3 3.332071 1_655
K4 P0 3.567518 1_555
K5 P6 3.220272 1_555
K5 P7 3.242531 1_565
K5 P2 3.313822 1_554
K5 P1 3.347404 1_555
K6 P7 3.176550 1_455
K6 P5 3.211718 1_555
K6 P3 3.219554 1_554
K6 P1 3.482808 1_555
K7 P4 3.248211 1_554
K7 P6 3.270542 1_455
K7 P5 3.332071 1_565
K7 P1 3.567518 1_555
Hf0 P7 2.485926 1_555
Hf0 P6 2.503659 1_555
Hf0 P5 2.507096 1_555
Hf0 P0 2.526775 1_555
Hf1 P4 2.485926 1_554
Hf1 P2 2.503659 1_554
Hf1 P3 2.507096 1_554
Hf1 P1 2.526775 1_555
P0 Sr3 3.127071 1_556
P0 Sr2 3.164378 1_556
P0 Sr1 3.666412 1_555
P1 Sr1 3.127072 1_555
P1 Sr0 3.164378 1_555
P1 Sr3 3.666412 1_555
P2 Sr1 3.087827 1_555
P2 Sr0 3.122257 1_555
P2 Sr3 3.481102 1_556
P3 Sr1 3.196810 1_555
P3 Sr3 3.394440 1_556
P3 Sr2 3.475027 1_456
P4 Sr0 3.213906 1_555
P4 Sr2 3.347726 1_456
P5 Sr3 3.196810 1_555
P5 Sr1 3.394439 1_555
P5 Sr0 3.475027 1_545
P6 Sr3 3.087827 1_555
P6 Sr2 3.122257 1_555
P6 Sr1 3.481102 1_555
P7 Sr2 3.213906 1_555
P7 Sr0 3.347726 1_545
