# generated using pymatgen
data_K4CuAg3S4
_symmetry_space_group_name_H-M   'P 1'
_cell_length_a   5.60837259
_cell_length_b   6.30429666
_cell_length_c   10.62987514
_cell_angle_alpha   91.08690896
_cell_angle_beta   88.05204793
_cell_angle_gamma   88.52760686
_symmetry_Int_Tables_number   1
_chemical_formula_structural   K4CuAg3S4
_chemical_formula_sum   'K4 Cu1 Ag3 S4'
_cell_volume   375.42356828
_cell_formula_units_Z   1
loop_
 _symmetry_equiv_pos_site_id
 _symmetry_equiv_pos_as_xyz
  1  'x, y, z'
loop_
 _atom_site_type_symbol
 _atom_site_label
 _atom_site_symmetry_multiplicity
 _atom_site_fract_x
 _atom_site_fract_y
 _atom_site_fract_z
 _atom_site_occupancy
  K  K0  1  0.74963915  0.52529373  0.85057545  1
  K  K1  1  0.24866716  0.02420468  0.65468575  1
  K  K2  1  0.75133284  0.97579532  0.34531425  1
  K  K3  1  0.25036085  0.47470627  0.14942455  1
  Cu  Cu0  1  0.00000000  0.00000000  0.00000000  1
  Ag  Ag0  1  0.50000000  0.00000000  0.00000000  1
  Ag  Ag1  1  0.50000000  0.50000000  0.50000000  1
  Ag  Ag2  1  0.00000000  0.50000000  0.50000000  1
  S  S0  1  0.76974833  0.23523808  0.09260942  1
  S  S1  1  0.74954091  0.25172213  0.59978838  1
  S  S2  1  0.23025167  0.76476192  0.90739058  1
  S  S3  1  0.25045909  0.74827787  0.40021162  1
loop_
_geom_bond_atom_site_label_1
_geom_bond_atom_site_label_2
_geom_bond_distance
_geom_bond_site_symmetry_2
K0 S1 3.147524 1_555
K0 S0 3.188001 1_556
K0 S2 3.192890 1_655
K0 S2 3.278534 1_555
K1 S2 3.171459 1_545
K1 S3 3.187783 1_545
K1 S1 3.189095 1_455
K1 S1 3.227414 1_555
K2 S0 3.171459 1_565
K2 S1 3.187783 1_565
K2 S3 3.189095 1_655
K2 S3 3.227414 1_555
K3 S3 3.147524 1_555
K3 S2 3.188001 1_554
K3 S0 3.192890 1_455
K3 S0 3.278534 1_555
Cu0 S2 2.143768 1_544
Cu0 S0 2.143768 1_455
Ag0 S2 2.370293 1_544
Ag0 S0 2.370293 1_555
Ag1 S1 2.363273 1_555
Ag1 S3 2.363273 1_555
Ag2 S3 2.371254 1_555
Ag2 S1 2.371254 1_455
