# generated using pymatgen
data_CuSb(SeO3)4
_symmetry_space_group_name_H-M   'P 1'
_cell_length_a   8.01935126
_cell_length_b   7.92148335
_cell_length_c   7.96698109
_cell_angle_alpha   89.57293950
_cell_angle_beta   90.00000000
_cell_angle_gamma   90.00000000
_symmetry_Int_Tables_number   1
_chemical_formula_structural   CuSb(SeO3)4
_chemical_formula_sum   'Cu2 Sb2 Se8 O24'
_cell_volume   506.08966993
_cell_formula_units_Z   2
loop_
 _symmetry_equiv_pos_site_id
 _symmetry_equiv_pos_as_xyz
  1  'x, y, z'
loop_
 _atom_site_type_symbol
 _atom_site_label
 _atom_site_symmetry_multiplicity
 _atom_site_fract_x
 _atom_site_fract_y
 _atom_site_fract_z
 _atom_site_occupancy
  Cu  Cu0  1  0.00000000  0.50000000  0.00000000  1
  Cu  Cu1  1  0.50000000  0.50000000  0.50000000  1
  Sb  Sb0  1  0.00000000  0.00000000  0.50000000  1
  Sb  Sb1  1  0.50000000  0.00000000  0.00000000  1
  Se  Se0  1  0.32985810  0.65066925  0.17455071  1
  Se  Se1  1  0.82985810  0.34933075  0.32544929  1
  Se  Se2  1  0.66299016  0.81849724  0.65653477  1
  Se  Se3  1  0.16299016  0.18150276  0.84346523  1
  Se  Se4  1  0.67014190  0.34933075  0.82544929  1
  Se  Se5  1  0.17014190  0.65066925  0.67455071  1
  Se  Se6  1  0.33700984  0.18150276  0.34346523  1
  Se  Se7  1  0.83700984  0.81849724  0.15653477  1
  O  O0  1  0.24333548  0.53072610  0.02294871  1
  O  O1  1  0.74333548  0.46927390  0.47705129  1
  O  O2  1  0.75579103  0.97735940  0.53256833  1
  O  O3  1  0.25579103  0.02264060  0.96743167  1
  O  O4  1  0.52408437  0.95524335  0.75535846  1
  O  O5  1  0.46637121  0.50796922  0.25588419  1
  O  O6  1  0.96637121  0.49203078  0.24411581  1
  O  O7  1  0.02408437  0.04475665  0.74464154  1
  O  O8  1  0.97836453  0.24361563  0.45518188  1
  O  O9  1  0.53287968  0.74595663  0.50921913  1
  O  O10  1  0.47836453  0.75638437  0.04481812  1
  O  O11  1  0.03287968  0.25404337  0.99078087  1
  O  O12  1  0.75666452  0.46927390  0.97705129  1
  O  O13  1  0.25666452  0.53072610  0.52294871  1
  O  O14  1  0.24420897  0.02264060  0.46743167  1
  O  O15  1  0.74420897  0.97735940  0.03256833  1
  O  O16  1  0.47591563  0.04475665  0.24464154  1
  O  O17  1  0.53362879  0.49203078  0.74411581  1
  O  O18  1  0.03362879  0.50796922  0.75588419  1
  O  O19  1  0.97591563  0.95524335  0.25535846  1
  O  O20  1  0.02163547  0.75638437  0.54481812  1
  O  O21  1  0.46712032  0.25404337  0.49078087  1
  O  O22  1  0.52163547  0.24361563  0.95518188  1
  O  O23  1  0.96712032  0.74595663  0.00921913  1
loop_
_geom_bond_atom_site_label_1
_geom_bond_atom_site_label_2
_geom_bond_distance
_geom_bond_site_symmetry_2
Cu0 O18 1.964023 1_554
Cu0 O6 1.964023 1_455
Cu0 O11 1.968016 1_554
Cu0 O23 1.968016 1_455
Cu0 O0 1.975162 1_555
Cu0 O12 1.975162 1_454
Cu1 O17 1.964023 1_555
Cu1 O5 1.964023 1_555
Cu1 O9 1.968016 1_555
Cu1 O21 1.968016 1_555
Cu1 O1 1.975162 1_555
Cu1 O13 1.975162 1_555
O0 Se0 1.691180 1_555
O1 Se1 1.691180 1_555
O2 Se2 1.759082 1_555
O2 Sb0 1.983461 1_665
O3 Se3 1.759082 1_555
O3 Sb1 1.983461 1_556
O4 Se2 1.745519 1_555
O4 Sb1 1.993017 1_566
O5 Se0 1.698596 1_555
O6 Se1 1.698596 1_555
O7 Se3 1.745519 1_555
O7 Sb0 1.993017 1_555
O8 Se1 1.781840 1_555
O8 Sb0 1.967598 1_655
O9 Se2 1.675237 1_555
O10 Se0 1.781840 1_555
O10 Sb1 1.967598 1_565
O11 Se3 1.675237 1_555
O12 Se4 1.691180 1_555
O13 Se5 1.691180 1_555
O14 Se6 1.759082 1_555
O14 Sb0 1.983461 1_555
O15 Se7 1.759082 1_555
O15 Sb1 1.983461 1_565
O16 Se6 1.745519 1_555
O16 Sb1 1.993017 1_555
O17 Se4 1.698596 1_555
O18 Se5 1.698596 1_555
O19 Se7 1.745519 1_555
O19 Sb0 1.993017 1_665
O20 Se5 1.781840 1_555
O20 Sb0 1.967598 1_565
O21 Se6 1.675237 1_555
O22 Se4 1.781840 1_555
O22 Sb1 1.967598 1_556
O23 Se7 1.675237 1_555
