# generated using pymatgen
data_Zr10Ga6CO
_symmetry_space_group_name_H-M   'P 1'
_cell_length_a   8.07057217
_cell_length_b   8.07057442
_cell_length_c   5.75343988
_cell_angle_alpha   90.00000000
_cell_angle_beta   90.00000000
_cell_angle_gamma   119.99999482
_symmetry_Int_Tables_number   1
_chemical_formula_structural   Zr10Ga6CO
_chemical_formula_sum   'Zr10 Ga6 C1 O1'
_cell_volume   324.53908386
_cell_formula_units_Z   1
loop_
 _symmetry_equiv_pos_site_id
 _symmetry_equiv_pos_as_xyz
  1  'x, y, z'
loop_
 _atom_site_type_symbol
 _atom_site_label
 _atom_site_symmetry_multiplicity
 _atom_site_fract_x
 _atom_site_fract_y
 _atom_site_fract_z
 _atom_site_occupancy
  Zr  Zr0  1  0.22898227  0.00000000  0.25282772  1
  Zr  Zr1  1  0.77101773  1.00000000  0.74717228  1
  Zr  Zr2  1  1.00000000  0.22898227  0.25282772  1
  Zr  Zr3  1  0.00000000  0.77101773  0.74717228  1
  Zr  Zr4  1  0.77101773  0.77101773  0.25282772  1
  Zr  Zr5  1  0.22898227  0.22898227  0.74717228  1
  Zr  Zr6  1  0.33333300  0.66666700  0.00000000  1
  Zr  Zr7  1  0.66666700  0.33333300  0.00000000  1
  Zr  Zr8  1  0.66666700  0.33333300  0.50000000  1
  Zr  Zr9  1  0.33333300  0.66666700  0.50000000  1
  Ga  Ga0  1  0.60004739  0.00000000  0.25006266  1
  Ga  Ga1  1  0.39995261  1.00000000  0.74993734  1
  Ga  Ga2  1  1.00000000  0.60004739  0.25006266  1
  Ga  Ga3  1  0.00000000  0.39995261  0.74993734  1
  Ga  Ga4  1  0.39995261  0.39995261  0.25006266  1
  Ga  Ga5  1  0.60004739  0.60004739  0.74993734  1
  C  C0  1  0.00000000  0.00000000  0.50000000  1
  O  O0  1  0.00000000  0.00000000  0.00000000  1
loop_
_geom_bond_atom_site_label_1
_geom_bond_atom_site_label_2
_geom_bond_distance
_geom_bond_site_symmetry_2
Ga0 Zr2 2.805227 1_555
Ga0 Zr4 2.805227 1_545
Ga0 Zr8 2.854406 1_555
Ga0 Zr9 2.854408 1_545
Ga0 Zr7 2.854769 1_555
Ga0 Zr6 2.854771 1_545
Ga0 Zr0 2.994750 1_555
Ga0 Zr1 3.175538 1_545
Ga0 Zr1 3.205526 1_544
Ga1 Zr3 2.805227 1_555
Ga1 Zr5 2.805227 1_565
Ga1 Zr9 2.854406 1_555
Ga1 Zr8 2.854408 1_565
Ga1 Zr6 2.854769 1_556
Ga1 Zr7 2.854771 1_566
Ga1 Zr1 2.994750 1_555
Ga1 Zr0 3.175538 1_565
Ga1 Zr0 3.205526 1_566
Ga2 Zr4 2.805227 1_555
Ga2 Zr0 2.805228 1_665
Ga2 Zr9 2.854405 1_655
Ga2 Zr8 2.854408 1_555
Ga2 Zr6 2.854768 1_655
Ga2 Zr7 2.854771 1_555
Ga2 Zr2 2.994751 1_555
Ga2 Zr3 3.175538 1_655
Ga2 Zr3 3.205526 1_654
Ga3 Zr5 2.805227 1_555
Ga3 Zr1 2.805228 1_445
Ga3 Zr8 2.854405 1_455
Ga3 Zr9 2.854408 1_555
Ga3 Zr7 2.854768 1_456
Ga3 Zr6 2.854771 1_556
Ga3 Zr3 2.994751 1_555
Ga3 Zr2 3.175538 1_455
Ga3 Zr2 3.205526 1_456
Ga4 Zr2 2.805227 1_455
Ga4 Zr0 2.805228 1_555
Ga4 Zr8 2.854412 1_555
Ga4 Zr9 2.854412 1_555
Ga4 Zr7 2.854775 1_555
Ga4 Zr6 2.854776 1_555
Ga4 Zr4 2.994751 1_555
Ga4 Zr5 3.175538 1_555
Ga4 Zr5 3.205526 1_554
Ga5 Zr3 2.805227 1_655
Ga5 Zr1 2.805228 1_555
Ga5 Zr9 2.854412 1_555
Ga5 Zr8 2.854412 1_555
Ga5 Zr6 2.854775 1_556
Ga5 Zr7 2.854776 1_556
Ga5 Zr5 2.994751 1_555
Ga5 Zr4 3.175538 1_555
Ga5 Zr4 3.205526 1_556
C0 Zr0 2.331848 1_555
C0 Zr1 2.331848 1_445
C0 Zr5 2.331848 1_555
C0 Zr4 2.331848 1_445
C0 Zr3 2.331848 1_545
C0 Zr2 2.331848 1_455
O0 Zr0 2.351833 1_555
O0 Zr1 2.351833 1_444
O0 Zr5 2.351833 1_554
O0 Zr4 2.351833 1_445
O0 Zr2 2.351833 1_455
O0 Zr3 2.351833 1_544
