# generated using pymatgen
data_Zr2ScTi2Pb3
_symmetry_space_group_name_H-M   'P 1'
_cell_length_a   8.41405628
_cell_length_b   8.43321206
_cell_length_c   5.72125012
_cell_angle_alpha   90.00000000
_cell_angle_beta   90.00000000
_cell_angle_gamma   119.92488882
_symmetry_Int_Tables_number   1
_chemical_formula_structural   Zr2ScTi2Pb3
_chemical_formula_sum   'Zr4 Sc2 Ti4 Pb6'
_cell_volume   351.84242628
_cell_formula_units_Z   2
loop_
 _symmetry_equiv_pos_site_id
 _symmetry_equiv_pos_as_xyz
  1  'x, y, z'
loop_
 _atom_site_type_symbol
 _atom_site_label
 _atom_site_symmetry_multiplicity
 _atom_site_fract_x
 _atom_site_fract_y
 _atom_site_fract_z
 _atom_site_occupancy
  Zr  Zr0  1  0.76164920  0.00000000  0.75000000  1
  Zr  Zr1  1  0.24417231  0.00000000  0.25000000  1
  Zr  Zr2  1  0.00123756  0.76113065  0.75000000  1
  Zr  Zr3  1  0.24010591  0.23886935  0.75000000  1
  Sc  Sc0  1  0.75911354  0.75693935  0.25000000  1
  Sc  Sc1  1  0.00217519  0.24306065  0.25000000  1
  Ti  Ti0  1  0.33176175  0.66866992  0.50025899  1
  Ti  Ti1  1  0.66309284  0.33133008  0.50025899  1
  Ti  Ti2  1  0.33176175  0.66866992  0.99974101  1
  Ti  Ti3  1  0.66309284  0.33133008  0.99974101  1
  Pb  Pb0  1  0.60153740  0.60246705  0.75000000  1
  Pb  Pb1  1  0.39969124  0.00000000  0.75000000  1
  Pb  Pb2  1  0.60758752  0.00000000  0.25000000  1
  Pb  Pb3  1  0.99906935  0.39753295  0.75000000  1
  Pb  Pb4  1  0.39701319  0.40007477  0.25000000  1
  Pb  Pb5  1  0.99693942  0.59992523  0.25000000  1
loop_
_geom_bond_atom_site_label_1
_geom_bond_atom_site_label_2
_geom_bond_distance
_geom_bond_site_symmetry_2
Zr0 Zr3 3.489053 1_655
Zr0 Zr2 3.489060 1_645
Zr1 Zr2 3.508710 1_545
Zr1 Zr2 3.508710 1_544
Zr1 Zr3 3.508713 1_554
Zr1 Zr3 3.508713 1_555
Zr2 Zr3 3.491743 1_565
Sc0 Zr2 3.501849 1_654
Sc0 Zr2 3.501849 1_655
Sc0 Zr0 3.513062 1_565
Sc0 Zr0 3.513062 1_564
Sc0 Zr1 3.537219 1_665
Sc0 Sc1 3.553011 1_665
Sc0 Ti1 3.562620 1_555
Sc0 Ti3 3.562620 1_554
Sc0 Ti0 3.586513 1_555
Sc0 Ti2 3.586513 1_554
Sc1 Zr3 3.501839 1_554
Sc1 Zr3 3.501839 1_555
Sc1 Zr0 3.513064 1_455
Sc1 Zr0 3.513064 1_454
Sc1 Zr1 3.537211 1_555
Sc1 Ti0 3.562615 1_555
Sc1 Ti2 3.562615 1_554
Sc1 Ti1 3.586513 1_455
Sc1 Ti3 3.586513 1_454
Ti0 Ti2 2.857662 1_555
Ti0 Ti2 2.863589 1_554
Ti0 Zr1 3.529190 1_565
Ti0 Zr2 3.542225 1_555
Ti0 Zr0 3.584483 1_565
Ti0 Zr3 3.603483 1_555
Ti1 Ti3 2.857662 1_555
Ti1 Ti3 2.863589 1_554
Ti1 Zr1 3.529195 1_555
Ti1 Zr3 3.542240 1_555
Ti1 Zr0 3.584478 1_555
Ti1 Zr2 3.603483 1_655
Ti2 Zr1 3.529190 1_566
Ti2 Zr2 3.542225 1_555
Ti2 Zr0 3.584483 1_565
Ti2 Zr3 3.603483 1_555
Ti3 Zr1 3.529195 1_556
Ti3 Zr3 3.542240 1_555
Ti3 Zr0 3.584478 1_555
Ti3 Zr2 3.603483 1_655
Pb0 Zr0 2.923675 1_565
Pb0 Zr2 2.934459 1_655
Pb0 Ti3 2.952920 1_555
Pb0 Ti1 2.952920 1_555
Pb0 Ti2 2.961445 1_555
Pb0 Ti0 2.961445 1_555
Pb0 Zr3 3.057245 1_555
Pb0 Sc0 3.148781 1_555
Pb0 Sc0 3.148781 1_556
Pb0 Pb4 3.335756 1_555
Pb0 Pb4 3.335756 1_556
Pb1 Zr2 2.925692 1_545
Pb1 Zr3 2.925699 1_555
Pb1 Ti2 2.929547 1_545
Pb1 Ti0 2.929547 1_545
Pb1 Ti3 2.929549 1_555
Pb1 Ti1 2.929549 1_555
Pb1 Zr0 3.045535 1_555
Pb1 Zr1 3.145706 1_555
Pb1 Zr1 3.145706 1_556
Pb1 Pb2 3.353066 1_556
Pb1 Pb2 3.353066 1_555
Pb2 Sc0 2.904226 1_545
Pb2 Sc1 2.904233 1_655
Pb2 Ti1 2.962024 1_555
Pb2 Ti3 2.962024 1_554
Pb2 Ti0 2.962027 1_545
Pb2 Ti2 2.962027 1_544
Pb2 Zr1 3.057796 1_555
Pb2 Zr0 3.140625 1_554
Pb2 Zr0 3.140625 1_555
Pb3 Zr0 2.923674 1_555
Pb3 Zr3 2.934459 1_655
Pb3 Ti2 2.952920 1_655
Pb3 Ti0 2.952920 1_655
Pb3 Ti3 2.961431 1_555
Pb3 Ti1 2.961431 1_555
Pb3 Zr2 3.057236 1_655
Pb3 Sc1 3.148785 1_655
Pb3 Sc1 3.148785 1_656
Pb3 Pb5 3.335752 1_555
Pb3 Pb5 3.335752 1_556
Pb4 Sc1 2.898489 1_555
Pb4 Ti1 2.948453 1_555
Pb4 Ti3 2.948453 1_554
Pb4 Zr1 2.950948 1_555
Pb4 Ti0 2.953477 1_555
Pb4 Ti2 2.953477 1_554
Pb4 Sc0 3.031732 1_555
Pb4 Zr3 3.159686 1_554
Pb4 Zr3 3.159686 1_555
Pb5 Sc0 2.898505 1_555
Pb5 Ti0 2.948438 1_655
Pb5 Ti2 2.948438 1_654
Pb5 Zr1 2.950947 1_665
Pb5 Ti1 2.953477 1_555
Pb5 Ti3 2.953477 1_554
Pb5 Sc1 3.031732 1_655
Pb5 Zr2 3.159686 1_654
Pb5 Zr2 3.159686 1_655
