# generated using pymatgen
data_Sr2CdPtRh
_symmetry_space_group_name_H-M   'P 1'
_cell_length_a   5.92518566
_cell_length_b   5.92518542
_cell_length_c   5.92518556
_cell_angle_alpha   135.90156603
_cell_angle_beta   118.74215074
_cell_angle_gamma   78.52069651
_symmetry_Int_Tables_number   1
_chemical_formula_structural   Sr2CdPtRh
_chemical_formula_sum   'Sr2 Cd1 Pt1 Rh1'
_cell_volume   123.22085928
_cell_formula_units_Z   1
loop_
 _symmetry_equiv_pos_site_id
 _symmetry_equiv_pos_as_xyz
  1  'x, y, z'
loop_
 _atom_site_type_symbol
 _atom_site_label
 _atom_site_symmetry_multiplicity
 _atom_site_fract_x
 _atom_site_fract_y
 _atom_site_fract_z
 _atom_site_occupancy
  Sr  Sr0  1  0.29726890  0.79650656  0.50076234  1
  Sr  Sr1  1  0.70425578  0.20349344  0.50076234  1
  Cd  Cd0  1  0.99278309  1.00000000  0.99278309  1
  Pt  Pt0  1  0.28431039  0.50000000  0.78431039  1
  Rh  Rh0  1  0.72138184  0.50000000  0.22138184  1
loop_
_geom_bond_atom_site_label_1
_geom_bond_atom_site_label_2
_geom_bond_distance
_geom_bond_site_symmetry_2
Cd0 Rh0 2.762715 1_555
Cd0 Rh0 2.762715 1_566
Cd0 Pt0 2.836471 1_666
Cd0 Pt0 2.836471 1_655
Pt0 Rh0 2.638809 1_556
Pt0 Sr1 3.184603 1_566
Pt0 Sr0 3.184603 1_545
Pt0 Sr0 3.184603 1_556
Pt0 Sr1 3.184603 1_555
Pt0 Sr0 3.214385 1_555
Pt0 Sr1 3.214385 1_455
Rh0 Sr0 3.195010 1_544
Rh0 Sr1 3.195010 1_565
Rh0 Sr1 3.195010 1_554
Rh0 Sr0 3.195010 1_555
Rh0 Sr1 3.201056 1_555
Rh0 Sr0 3.201056 1_655
