# generated using pymatgen
data_Mg4ZrNb7N12
_symmetry_space_group_name_H-M   'P 1'
_cell_length_a   5.28113607
_cell_length_b   5.28113670
_cell_length_c   10.54123267
_cell_angle_alpha   90.00000000
_cell_angle_beta   90.00000000
_cell_angle_gamma   120.00000225
_symmetry_Int_Tables_number   1
_chemical_formula_structural   Mg4ZrNb7N12
_chemical_formula_sum   'Mg4 Zr1 Nb7 N12'
_cell_volume   254.61078009
_cell_formula_units_Z   1
loop_
 _symmetry_equiv_pos_site_id
 _symmetry_equiv_pos_as_xyz
  1  'x, y, z'
loop_
 _atom_site_type_symbol
 _atom_site_label
 _atom_site_symmetry_multiplicity
 _atom_site_fract_x
 _atom_site_fract_y
 _atom_site_fract_z
 _atom_site_occupancy
  Mg  Mg0  1  0.33333300  0.66666700  0.00000000  1
  Mg  Mg1  1  0.33333300  0.66666700  0.50000000  1
  Mg  Mg2  1  0.66666700  0.33333300  0.50000000  1
  Mg  Mg3  1  0.66666700  0.33333300  0.00000000  1
  Zr  Zr0  1  0.00000000  0.00000000  0.00000000  1
  Nb  Nb0  1  1.00000000  0.33861356  0.25207289  1
  Nb  Nb1  1  0.66138644  1.00000000  0.74792711  1
  Nb  Nb2  1  0.33861356  0.33861356  0.74792711  1
  Nb  Nb3  1  0.00000000  0.00000000  0.50000000  1
  Nb  Nb4  1  0.66138644  0.66138644  0.25207289  1
  Nb  Nb5  1  0.33861356  0.00000000  0.25207289  1
  Nb  Nb6  1  0.00000000  0.66138644  0.74792711  1
  N  N0  1  0.66950467  0.66950467  0.61908810  1
  N  N1  1  0.66557134  0.66557134  0.87570801  1
  N  N2  1  0.33442866  0.33442866  0.12429199  1
  N  N3  1  0.33049533  0.33049533  0.38091190  1
  N  N4  1  0.33442866  1.00000000  0.87570801  1
  N  N5  1  0.33049533  1.00000000  0.61908810  1
  N  N6  1  1.00000000  0.66950467  0.38091190  1
  N  N7  1  1.00000000  0.66557134  0.12429199  1
  N  N8  1  0.66557134  0.00000000  0.12429199  1
  N  N9  1  0.66950467  0.00000000  0.38091190  1
  N  N10  1  0.00000000  0.33442866  0.87570801  1
  N  N11  1  0.00000000  0.33049533  0.61908810  1
loop_
_geom_bond_atom_site_label_1
_geom_bond_atom_site_label_2
_geom_bond_distance
_geom_bond_site_symmetry_2
Mg0 N7 2.192116 1_455
Mg0 N4 2.192117 1_554
Mg0 N10 2.192119 1_554
Mg0 N8 2.192119 1_565
Mg0 N1 2.192121 1_554
Mg0 N2 2.192121 1_555
Mg1 N6 2.168271 1_455
Mg1 N5 2.168271 1_555
Mg1 N9 2.168273 1_565
Mg1 N11 2.168273 1_555
Mg1 N0 2.168275 1_555
Mg1 N3 2.168276 1_555
Mg2 N11 2.168271 1_655
Mg2 N9 2.168271 1_555
Mg2 N5 2.168273 1_545
Mg2 N6 2.168273 1_555
Mg2 N3 2.168275 1_555
Mg2 N0 2.168276 1_555
Mg3 N10 2.192116 1_654
Mg3 N8 2.192117 1_555
Mg3 N7 2.192119 1_555
Mg3 N4 2.192119 1_544
Mg3 N2 2.192121 1_555
Mg3 N1 2.192121 1_554
N0 Nb3 2.149943 1_665
N0 Nb2 2.213184 1_555
N0 Nb6 2.228801 1_655
N0 Nb1 2.228801 1_555
N1 Nb2 2.189942 1_555
N1 Zr0 2.199075 1_666
N1 Nb6 2.230062 1_655
N1 Nb1 2.230063 1_555
N2 Nb4 2.189942 1_555
N2 Zr0 2.199075 1_555
N2 Nb0 2.230062 1_455
N2 Nb5 2.230063 1_555
N3 Nb3 2.149943 1_555
N3 Nb4 2.213184 1_555
N3 Nb0 2.228801 1_455
N3 Nb5 2.228801 1_555
N4 Nb1 2.189942 1_555
N4 Zr0 2.199075 1_566
N4 Nb6 2.230062 1_555
N4 Nb2 2.230063 1_565
N5 Nb3 2.149943 1_565
N5 Nb1 2.213184 1_555
N5 Nb6 2.228801 1_555
N5 Nb2 2.228801 1_565
N6 Nb3 2.149943 1_665
N6 Nb0 2.213185 1_555
N6 Nb4 2.228801 1_555
N6 Nb5 2.228801 1_665
N7 Nb0 2.189942 1_555
N7 Zr0 2.199076 1_665
N7 Nb4 2.230062 1_555
N7 Nb5 2.230062 1_665
N8 Nb5 2.189942 1_555
N8 Zr0 2.199075 1_655
N8 Nb0 2.230062 1_555
N8 Nb4 2.230063 1_545
N9 Nb3 2.149943 1_655
N9 Nb5 2.213184 1_555
N9 Nb0 2.228801 1_555
N9 Nb4 2.228801 1_545
N10 Nb6 2.189942 1_555
N10 Zr0 2.199076 1_556
N10 Nb2 2.230062 1_555
N10 Nb1 2.230062 1_445
N11 Nb3 2.149943 1_555
N11 Nb6 2.213185 1_555
N11 Nb2 2.228801 1_555
N11 Nb1 2.228801 1_445
