# generated using pymatgen
data_Nd3Ni13B2
_symmetry_space_group_name_H-M   'P 1'
_cell_length_a   5.02312264
_cell_length_b   5.02312264
_cell_length_c   10.92091200
_cell_angle_alpha   90.00000000
_cell_angle_beta   90.00000000
_cell_angle_gamma   120.00000846
_symmetry_Int_Tables_number   1
_chemical_formula_structural   Nd3Ni13B2
_chemical_formula_sum   'Nd3 Ni13 B2'
_cell_volume   238.63660725
_cell_formula_units_Z   1
loop_
 _symmetry_equiv_pos_site_id
 _symmetry_equiv_pos_as_xyz
  1  'x, y, z'
loop_
 _atom_site_type_symbol
 _atom_site_label
 _atom_site_symmetry_multiplicity
 _atom_site_fract_x
 _atom_site_fract_y
 _atom_site_fract_z
 _atom_site_occupancy
  Nd  Nd0  1  0.00000000  0.00000000  0.67189300  1
  Nd  Nd1  1  0.00000000  0.00000000  0.32810700  1
  Nd  Nd2  1  0.00000000  0.00000000  0.00000000  1
  Ni  Ni0  1  0.00000000  0.50000000  0.86736700  1
  Ni  Ni1  1  0.50000000  0.00000000  0.50000000  1
  Ni  Ni2  1  0.50000000  0.50000000  0.50000000  1
  Ni  Ni3  1  0.00000000  0.50000000  0.50000000  1
  Ni  Ni4  1  0.33333300  0.66666700  0.31918400  1
  Ni  Ni5  1  0.66666700  0.33333300  0.31918400  1
  Ni  Ni6  1  0.66666700  0.33333300  0.68081600  1
  Ni  Ni7  1  0.33333300  0.66666700  0.68081600  1
  Ni  Ni8  1  0.50000000  0.00000000  0.13263300  1
  Ni  Ni9  1  0.50000000  0.50000000  0.13263300  1
  Ni  Ni10  1  0.00000000  0.50000000  0.13263300  1
  Ni  Ni11  1  0.50000000  0.00000000  0.86736700  1
  Ni  Ni12  1  0.50000000  0.50000000  0.86736700  1
  B  B0  1  0.66666700  0.33333300  0.00000000  1
  B  B1  1  0.33333300  0.66666700  0.00000000  1
loop_
_geom_bond_atom_site_label_1
_geom_bond_atom_site_label_2
_geom_bond_distance
_geom_bond_site_symmetry_2
Nd0 Ni7 2.901735 1_545
Nd0 Ni6 2.901735 1_455
Nd0 Ni7 2.901739 1_445
Nd0 Ni7 2.901739 1_555
Nd0 Ni6 2.901739 1_445
Nd0 Ni6 2.901739 1_555
Nd0 Ni2 3.135590 1_445
Nd0 Ni2 3.135590 1_555
Nd0 Ni3 3.135590 1_545
Nd0 Ni3 3.135590 1_555
Nd0 Ni1 3.135590 1_455
Nd0 Ni1 3.135590 1_555
Nd0 Ni12 3.296227 1_445
Nd0 Ni12 3.296227 1_555
Nd0 Ni11 3.296228 1_555
Nd0 Ni0 3.296228 1_545
Nd0 Ni0 3.296228 1_555
Nd0 Ni11 3.296228 1_455
Nd1 Ni5 2.901735 1_455
Nd1 Ni4 2.901735 1_545
Nd1 Ni4 2.901739 1_555
Nd1 Ni4 2.901739 1_445
Nd1 Ni5 2.901739 1_555
Nd1 Ni5 2.901739 1_445
Nd1 Ni2 3.135590 1_445
Nd1 Ni2 3.135590 1_555
Nd1 Ni3 3.135590 1_545
Nd1 Ni1 3.135590 1_555
Nd1 Ni1 3.135590 1_455
Nd1 Ni3 3.135590 1_555
Nd1 Ni9 3.296227 1_445
Nd1 Ni9 3.296227 1_555
Nd1 Ni10 3.296228 1_555
Nd1 Ni8 3.296228 1_455
Nd1 Ni8 3.296228 1_555
Nd1 Ni10 3.296228 1_545
Nd2 Ni12 2.899313 1_554
Nd2 Ni9 2.899313 1_445
Nd2 Ni9 2.899313 1_555
Nd2 Ni12 2.899313 1_444
Nd2 Ni10 2.899313 1_545
Nd2 Ni10 2.899313 1_555
Nd2 Ni11 2.899313 1_554
Nd2 Ni0 2.899313 1_554
Nd2 Ni11 2.899313 1_454
Nd2 Ni8 2.899313 1_555
Nd2 Ni8 2.899313 1_455
Nd2 Ni0 2.899313 1_544
Ni0 Ni6 2.500652 1_455
Ni0 Ni7 2.500652 1_555
Ni1 Ni6 2.449895 1_555
Ni1 Ni7 2.449895 1_545
Ni1 Ni4 2.449895 1_545
Ni1 Ni5 2.449895 1_555
Ni1 Ni3 2.511561 1_545
Ni1 Ni3 2.511561 1_655
Ni1 Ni2 2.511561 1_545
Ni1 Ni2 2.511561 1_555
Ni2 Ni6 2.449898 1_555
Ni2 Ni7 2.449898 1_555
Ni2 Ni4 2.449898 1_555
Ni2 Ni5 2.449898 1_555
Ni2 Ni3 2.511561 1_555
Ni2 Ni3 2.511561 1_655
Ni3 Ni6 2.449895 1_455
Ni3 Ni7 2.449895 1_555
Ni3 Ni4 2.449895 1_555
Ni3 Ni5 2.449895 1_455
Ni4 Ni8 2.500652 1_565
Ni4 Ni9 2.500655 1_555
Ni5 Ni8 2.500652 1_555
Ni5 Ni9 2.500655 1_555
Ni10 Ni4 2.500652 1_555
Ni10 Ni5 2.500652 1_455
Ni11 Ni6 2.500652 1_555
Ni11 Ni7 2.500652 1_545
Ni12 Ni7 2.500655 1_555
Ni12 Ni6 2.500655 1_555
B0 Ni0 2.049565 1_654
B0 Ni11 2.049565 1_554
B0 Ni8 2.049565 1_555
B0 Ni10 2.049565 1_655
B0 Ni12 2.049568 1_554
B0 Ni9 2.049568 1_555
B0 Nd2 2.900098 1_655
B0 Nd2 2.900102 1_665
B0 Nd2 2.900102 1_555
B1 Ni10 2.049565 1_555
B1 Ni8 2.049565 1_565
B1 Ni0 2.049565 1_554
B1 Ni11 2.049565 1_564
B1 Ni12 2.049568 1_554
B1 Ni9 2.049568 1_555
B1 Nd2 2.900098 1_565
B1 Nd2 2.900102 1_665
B1 Nd2 2.900102 1_555
