# generated using pymatgen
data_SrBeAsH
_symmetry_space_group_name_H-M   'P 1'
_cell_length_a   3.91160479
_cell_length_b   3.91160479
_cell_length_c   8.91884244
_cell_angle_alpha   90.00000000
_cell_angle_beta   90.00000000
_cell_angle_gamma   90.00000000
_symmetry_Int_Tables_number   1
_chemical_formula_structural   SrBeAsH
_chemical_formula_sum   'Sr2 Be2 As2 H2'
_cell_volume   136.46410445
_cell_formula_units_Z   2
loop_
 _symmetry_equiv_pos_site_id
 _symmetry_equiv_pos_as_xyz
  1  'x, y, z'
loop_
 _atom_site_type_symbol
 _atom_site_label
 _atom_site_symmetry_multiplicity
 _atom_site_fract_x
 _atom_site_fract_y
 _atom_site_fract_z
 _atom_site_occupancy
  Sr  Sr0  1  0.00000000  0.50000000  0.83740487  1
  Sr  Sr1  1  0.50000000  0.00000000  0.16259513  1
  Be  Be0  1  0.00000000  0.00000000  0.50000000  1
  Be  Be1  1  0.50000000  0.50000000  0.50000000  1
  As  As0  1  0.00000000  0.50000000  0.35275307  1
  As  As1  1  0.50000000  0.00000000  0.64724693  1
  H  H0  1  0.00000000  0.00000000  0.00000000  1
  H  H1  1  0.50000000  0.50000000  0.00000000  1
loop_
_geom_bond_atom_site_label_1
_geom_bond_atom_site_label_2
_geom_bond_distance
_geom_bond_site_symmetry_2
As0 Be0 2.355811 1_565
As0 Be0 2.355811 1_555
As0 Be1 2.355811 1_455
As0 Be1 2.355811 1_555
As0 Sr1 3.244488 1_455
As0 Sr1 3.244488 1_565
As0 Sr1 3.244488 1_555
As0 Sr1 3.244488 1_465
As1 Be1 2.355811 1_545
As1 Be0 2.355811 1_655
As1 Be1 2.355811 1_555
As1 Be0 2.355811 1_555
As1 Sr0 3.244488 1_655
As1 Sr0 3.244488 1_545
As1 Sr0 3.244488 1_645
As1 Sr0 3.244488 1_555
H0 Sr1 2.434775 1_555
H0 Sr1 2.434775 1_455
H0 Sr0 2.434775 1_544
H0 Sr0 2.434775 1_554
H1 Sr1 2.434775 1_565
H1 Sr1 2.434775 1_555
H1 Sr0 2.434775 1_654
H1 Sr0 2.434775 1_554
