# generated using pymatgen
data_VB3W4
_symmetry_space_group_name_H-M   'P 1'
_cell_length_a   5.80860996
_cell_length_b   5.80861045
_cell_length_c   6.79734607
_cell_angle_alpha   115.29445757
_cell_angle_beta   115.29446467
_cell_angle_gamma   89.99999662
_symmetry_Int_Tables_number   1
_chemical_formula_structural   VB3W4
_chemical_formula_sum   'V2 B6 W8'
_cell_volume   182.73832770
_cell_formula_units_Z   2
loop_
 _symmetry_equiv_pos_site_id
 _symmetry_equiv_pos_as_xyz
  1  'x, y, z'
loop_
 _atom_site_type_symbol
 _atom_site_label
 _atom_site_symmetry_multiplicity
 _atom_site_fract_x
 _atom_site_fract_y
 _atom_site_fract_z
 _atom_site_occupancy
  V  V0  1  0.50000000  0.50000000  0.00000000  1
  V  V1  1  0.00000000  0.00000000  0.00000000  1
  B  B0  1  0.25000000  0.25000000  0.50000000  1
  B  B1  1  0.75000000  0.75000000  0.50000000  1
  B  B2  1  0.62205046  0.12205046  0.00000000  1
  B  B3  1  0.37794954  0.87794954  1.00000000  1
  B  B4  1  0.87794954  0.62205046  0.00000000  1
  B  B5  1  0.12205046  0.37794954  1.00000000  1
  W  W0  1  0.02534220  0.52534220  0.71314883  1
  W  W1  1  0.68780563  0.18780563  0.71314883  1
  W  W2  1  0.18780563  0.02534220  0.71314883  1
  W  W3  1  0.52534220  0.68780563  0.71314883  1
  W  W4  1  0.97465780  0.47465780  0.28685117  1
  W  W5  1  0.31219437  0.81219437  0.28685117  1
  W  W6  1  0.81219437  0.97465780  0.28685117  1
  W  W7  1  0.47465780  0.31219437  0.28685117  1
loop_
_geom_bond_atom_site_label_1
_geom_bond_atom_site_label_2
_geom_bond_distance
_geom_bond_site_symmetry_2
V0 W3 2.660160 1_554
V0 W7 2.660160 1_555
V0 W5 2.660162 1_555
V0 W1 2.660162 1_554
V0 W4 2.660164 1_555
V0 W0 2.660164 1_554
V0 W6 2.660167 1_555
V0 W2 2.660167 1_554
V1 W2 2.660160 1_554
V1 W6 2.660160 1_445
V1 W5 2.660162 1_545
V1 W1 2.660162 1_454
V1 W0 2.660164 1_544
V1 W4 2.660164 1_455
V1 W7 2.660166 1_555
V1 W3 2.660166 1_444
B0 W6 2.448563 1_445
B0 W3 2.448563 1_555
B0 W1 2.448565 1_555
B0 W5 2.448566 1_545
B0 W4 2.448568 1_455
B0 W0 2.448568 1_555
B0 W7 2.448570 1_555
B0 W2 2.448570 1_555
B0 V0 2.708041 1_556
B0 V1 2.708041 1_555
B1 W2 2.448563 1_665
B1 W7 2.448563 1_555
B1 W5 2.448565 1_555
B1 W1 2.448566 1_565
B1 W0 2.448568 1_655
B1 W4 2.448568 1_555
B1 W3 2.448570 1_555
B1 W6 2.448570 1_555
B1 V0 2.708041 1_555
B1 V1 2.708041 1_666
B2 B3 2.005195 1_544
B2 V1 2.306992 1_655
B2 V0 2.306992 1_555
B2 W6 2.311040 1_545
B2 W7 2.311040 1_555
B2 W2 2.311044 1_554
B2 W3 2.311044 1_544
B2 W1 2.316547 1_554
B2 W4 2.316554 1_555
B3 V1 2.306992 1_566
B3 V0 2.306992 1_556
B3 W2 2.311040 1_565
B3 W3 2.311040 1_555
B3 W6 2.311044 1_556
B3 W7 2.311044 1_566
B3 W5 2.316547 1_556
B3 W0 2.316554 1_555
B4 B5 2.005195 1_654
B4 V0 2.306992 1_555
B4 V1 2.306992 1_665
B4 W4 2.311040 1_555
B4 W0 2.311040 1_654
B4 W5 2.311045 1_655
B4 W1 2.311045 1_554
B4 W3 2.316550 1_554
B4 W6 2.316551 1_555
B5 V0 2.306992 1_556
B5 V1 2.306992 1_556
B5 W0 2.311040 1_555
B5 W4 2.311040 1_456
B5 W1 2.311045 1_455
B5 W5 2.311045 1_556
B5 W7 2.316550 1_556
B5 W2 2.316551 1_555
