# generated using pymatgen
data_Ta3Mn2VN
_symmetry_space_group_name_H-M   'P 1'
_cell_length_a   8.08946597
_cell_length_b   8.08950729
_cell_length_c   8.08947493
_cell_angle_alpha   60.00013639
_cell_angle_beta   59.99996743
_cell_angle_gamma   60.00002311
_symmetry_Int_Tables_number   1
_chemical_formula_structural   Ta3Mn2VN
_chemical_formula_sum   'Ta12 Mn8 V4 N4'
_cell_volume   374.32400219
_cell_formula_units_Z   4
loop_
 _symmetry_equiv_pos_site_id
 _symmetry_equiv_pos_as_xyz
  1  'x, y, z'
loop_
 _atom_site_type_symbol
 _atom_site_label
 _atom_site_symmetry_multiplicity
 _atom_site_fract_x
 _atom_site_fract_y
 _atom_site_fract_z
 _atom_site_occupancy
  Ta  Ta0  1  0.80717248  0.80718781  0.19281935  1
  Ta  Ta1  1  0.19281157  0.19283038  0.80717903  1
  Ta  Ta2  1  0.80718010  0.19282271  0.80718050  1
  Ta  Ta3  1  0.19281818  0.80718418  0.19282451  1
  Ta  Ta4  1  0.19281818  0.80718418  0.80717313  1
  Ta  Ta5  1  0.80718010  0.19282271  0.19281770  1
  Ta  Ta6  1  0.44282752  0.44281219  0.05718065  1
  Ta  Ta7  1  0.05718843  0.05716962  0.44282097  1
  Ta  Ta8  1  0.44281990  0.05717729  0.44281950  1
  Ta  Ta9  1  0.05718182  0.44281582  0.05717549  1
  Ta  Ta10  1  0.05718182  0.44281582  0.44282687  1
  Ta  Ta11  1  0.44281990  0.05717729  0.05718230  1
  Mn  Mn0  1  0.74043628  0.41983117  0.41986627  1
  Mn  Mn1  1  0.41985387  0.74041649  0.41986532  1
  Mn  Mn2  1  0.41986232  0.41984444  0.74041960  1
  Mn  Mn3  1  0.41986232  0.41984444  0.41987363  1
  Mn  Mn4  1  0.50956372  0.83016883  0.83013373  1
  Mn  Mn5  1  0.83014613  0.50958351  0.83013468  1
  Mn  Mn6  1  0.83013768  0.83015556  0.50958040  1
  Mn  Mn7  1  0.83013768  0.83015556  0.83012637  1
  V  V0  1  0.12500000  0.62500000  0.62500000  1
  V  V1  1  0.62500000  0.12500000  0.62500000  1
  V  V2  1  0.62500000  0.62500000  0.12500000  1
  V  V3  1  0.62500000  0.62500000  0.62500000  1
  N  N0  1  0.62500000  0.12500000  0.12500000  1
  N  N1  1  0.12500000  0.62500000  0.12500000  1
  N  N2  1  0.12500000  0.12500000  0.62500000  1
  N  N3  1  0.12500000  0.12500000  0.12500000  1
loop_
_geom_bond_atom_site_label_1
_geom_bond_atom_site_label_2
_geom_bond_distance
_geom_bond_site_symmetry_2
Ta0 V2 2.904101 1_555
Ta0 V3 2.904107 1_555
Ta1 V0 2.904055 1_555
Ta1 V1 2.904140 1_555
Ta2 V3 2.904100 1_555
Ta2 V1 2.904119 1_555
Ta3 V0 2.904075 1_555
Ta3 V2 2.904103 1_555
Ta4 V0 2.904074 1_555
Ta4 V3 2.904103 1_555
Ta5 V2 2.904098 1_555
Ta5 V1 2.904113 1_555
Ta6 V2 2.904101 1_555
Ta6 V3 2.904107 1_554
Ta7 V0 2.904055 1_545
Ta7 V1 2.904140 1_455
Ta8 V3 2.904100 1_545
Ta8 V1 2.904119 1_555
Ta9 V0 2.904075 1_554
Ta9 V2 2.904103 1_455
Ta10 V0 2.904074 1_555
Ta10 V3 2.904103 1_455
Ta11 V2 2.904098 1_545
Ta11 V1 2.904113 1_554
Mn0 V1 2.456406 1_555
Mn0 V3 2.456633 1_555
Mn0 V2 2.456633 1_555
Mn0 Mn3 2.593189 1_555
Mn0 Mn2 2.593189 1_555
Mn0 Mn1 2.593360 1_555
Mn0 Ta7 2.760576 1_655
Mn0 Ta10 2.760677 1_655
Mn0 Ta9 2.760677 1_655
Mn0 Ta5 2.902932 1_555
Mn0 Ta2 2.902939 1_555
Mn0 Ta0 2.903218 1_555
Mn1 V0 2.456462 1_555
Mn1 V3 2.456531 1_555
Mn1 V2 2.456538 1_555
Mn1 Mn2 2.593198 1_555
Mn1 Mn3 2.593202 1_555
Mn1 Ta7 2.760593 1_565
Mn1 Ta8 2.760698 1_565
Mn1 Ta11 2.760707 1_565
Mn1 Ta4 2.902968 1_555
Mn1 Ta3 2.902975 1_555
Mn1 Ta0 2.903054 1_555
Mn2 V1 2.456419 1_555
Mn2 V0 2.456532 1_555
Mn2 V3 2.456612 1_555
Mn2 Mn3 2.593049 1_555
Mn2 Ta11 2.760644 1_556
Mn2 Ta9 2.760665 1_556
Mn2 Ta6 2.760748 1_556
Mn2 Ta1 2.902930 1_555
Mn2 Ta2 2.903015 1_555
Mn2 Ta4 2.903154 1_555
Mn3 V1 2.456419 1_555
Mn3 V0 2.456532 1_555
Mn3 V2 2.456612 1_555
Mn3 Ta8 2.760647 1_555
Mn3 Ta10 2.760665 1_555
Mn3 Ta6 2.760740 1_555
Mn3 Ta1 2.902930 1_555
Mn3 Ta5 2.903011 1_555
Mn3 Ta3 2.903154 1_555
Mn4 V1 2.456406 1_565
Mn4 V3 2.456633 1_555
Mn4 V2 2.456633 1_556
Mn4 Mn7 2.593189 1_555
Mn4 Mn6 2.593189 1_555
Mn4 Mn5 2.593360 1_555
Mn4 Ta1 2.760576 1_565
Mn4 Ta4 2.760677 1_555
Mn4 Ta3 2.760677 1_556
Mn4 Ta11 2.902932 1_566
Mn4 Ta8 2.902939 1_565
Mn4 Ta6 2.903218 1_556
Mn5 V0 2.456462 1_655
Mn5 V3 2.456531 1_555
Mn5 V2 2.456538 1_556
Mn5 Mn6 2.593198 1_555
Mn5 Mn7 2.593202 1_555
Mn5 Ta1 2.760593 1_655
Mn5 Ta2 2.760698 1_555
Mn5 Ta5 2.760707 1_556
Mn5 Ta10 2.902968 1_655
Mn5 Ta9 2.902975 1_656
Mn5 Ta6 2.903054 1_556
Mn6 V1 2.456419 1_565
Mn6 V0 2.456532 1_655
Mn6 V3 2.456612 1_555
Mn6 Mn7 2.593049 1_555
Mn6 Ta5 2.760644 1_565
Mn6 Ta3 2.760665 1_655
Mn6 Ta0 2.760748 1_555
Mn6 Ta7 2.902930 1_665
Mn6 Ta8 2.903015 1_565
Mn6 Ta10 2.903154 1_655
Mn7 V1 2.456419 1_565
Mn7 V0 2.456532 1_655
Mn7 V2 2.456612 1_556
Mn7 Ta2 2.760647 1_565
Mn7 Ta4 2.760665 1_655
Mn7 Ta0 2.760740 1_556
Mn7 Ta7 2.902930 1_665
Mn7 Ta11 2.903011 1_566
Mn7 Ta9 2.903154 1_656
N0 Ta6 2.166044 1_555
N0 Ta0 2.166044 1_545
N0 Ta2 2.166091 1_554
N0 Ta8 2.166091 1_555
N0 Ta5 2.166096 1_555
N0 Ta11 2.166096 1_555
N1 Ta3 2.166145 1_555
N1 Ta9 2.166145 1_555
N1 Ta10 2.166145 1_555
N1 Ta4 2.166145 1_554
N1 Ta6 2.166150 1_555
N1 Ta0 2.166150 1_455
N2 Ta10 2.166069 1_555
N2 Ta4 2.166069 1_545
N2 Ta8 2.166090 1_555
N2 Ta2 2.166090 1_455
N2 Ta1 2.166098 1_555
N2 Ta7 2.166098 1_555
N3 Ta9 2.166069 1_555
N3 Ta3 2.166069 1_545
N3 Ta11 2.166089 1_555
N3 Ta5 2.166089 1_455
N3 Ta7 2.166098 1_555
N3 Ta1 2.166098 1_554
