# generated using pymatgen
data_Cs4LiMnSe4
_symmetry_space_group_name_H-M   'P 1'
_cell_length_a   8.84583138
_cell_length_b   8.84583098
_cell_length_c   8.84583119
_cell_angle_alpha   134.73437457
_cell_angle_beta   130.92218645
_cell_angle_gamma   68.97013830
_symmetry_Int_Tables_number   1
_chemical_formula_structural   Cs4LiMnSe4
_chemical_formula_sum   'Cs4 Li1 Mn1 Se4'
_cell_volume   364.73968647
_cell_formula_units_Z   1
loop_
 _symmetry_equiv_pos_site_id
 _symmetry_equiv_pos_as_xyz
  1  'x, y, z'
loop_
 _atom_site_type_symbol
 _atom_site_label
 _atom_site_symmetry_multiplicity
 _atom_site_fract_x
 _atom_site_fract_y
 _atom_site_fract_z
 _atom_site_occupancy
  Cs  Cs0  1  0.52033371  0.86622053  0.67947838  1
  Cs  Cs1  1  0.47966629  0.15914466  0.34588682  1
  Cs  Cs2  1  0.81325785  0.63377947  0.15411318  1
  Cs  Cs3  1  0.18674215  0.34085534  0.82052162  1
  Li  Li0  1  0.00000000  0.25000000  0.25000000  1
  Mn  Mn0  1  0.00000000  0.75000000  0.75000000  1
  Se  Se0  1  0.06478005  0.88337552  0.14653027  1
  Se  Se1  1  0.73684525  0.41824978  0.35346973  1
  Se  Se2  1  0.93521995  0.08175022  0.81859547  1
  Se  Se3  1  0.26315575  0.61662448  0.68140453  1
loop_
_geom_bond_atom_site_label_1
_geom_bond_atom_site_label_2
_geom_bond_distance
_geom_bond_site_symmetry_2
Cs0 Se1 3.659232 1_555
Cs0 Se3 3.709329 1_555
Cs0 Se1 3.718970 1_566
Cs0 Se0 3.723124 1_656
Cs0 Se0 3.763913 1_555
Cs0 Se2 3.797472 1_565
Cs1 Se3 3.659233 1_544
Cs1 Se1 3.709336 1_555
Cs1 Se3 3.718964 1_555
Cs1 Se2 3.723124 1_454
Cs1 Se2 3.763913 1_555
Cs1 Se0 3.797472 1_545
Cs2 Se2 3.659232 1_565
Cs2 Se0 3.709336 1_655
Cs2 Se2 3.718970 1_554
Cs2 Se3 3.723126 1_655
Cs2 Se3 3.763908 1_554
Cs2 Se1 3.797472 1_555
Cs3 Se0 3.659232 1_556
Cs3 Se2 3.709336 1_455
Cs3 Se0 3.718970 1_545
Cs3 Se1 3.723124 1_455
Cs3 Se1 3.763913 1_556
Cs3 Se3 3.797477 1_555
Li0 Se0 2.618922 1_545
Li0 Se2 2.618922 1_454
Li0 Se1 2.618922 1_455
Li0 Se3 2.618926 1_555
Mn0 Se2 2.459781 1_465
Mn0 Se1 2.459781 1_455
Mn0 Se0 2.459781 1_556
Mn0 Se3 2.459789 1_555
