# generated using pymatgen
data_K6Fe2O5
_symmetry_space_group_name_H-M   'P 1'
_cell_length_a   6.63728878
_cell_length_b   6.61504610
_cell_length_c   6.61486074
_cell_angle_alpha   116.92731904
_cell_angle_beta   92.14509928
_cell_angle_gamma   92.14868719
_symmetry_Int_Tables_number   1
_chemical_formula_structural   K6Fe2O5
_chemical_formula_sum   'K6 Fe2 O5'
_cell_volume   258.27873123
_cell_formula_units_Z   1
loop_
 _symmetry_equiv_pos_site_id
 _symmetry_equiv_pos_as_xyz
  1  'x, y, z'
loop_
 _atom_site_type_symbol
 _atom_site_label
 _atom_site_symmetry_multiplicity
 _atom_site_fract_x
 _atom_site_fract_y
 _atom_site_fract_z
 _atom_site_occupancy
  K  K0  1  0.99318992  0.20383291  0.79236444  1
  K  K1  1  0.17115102  0.36142174  0.36142492  1
  K  K2  1  0.50124048  0.75772615  0.24428623  1
  K  K3  1  0.50124092  0.24428924  0.75772700  1
  K  K4  1  0.83201366  0.64307413  0.64307632  1
  K  K5  1  0.99319576  0.79236143  0.20382930  1
  Fe  Fe0  1  0.33158500  0.79449651  0.79449580  1
  Fe  Fe1  1  0.69161130  0.19031892  0.19032196  1
  O  O0  1  0.21923277  0.84145213  0.56173018  1
  O  O1  1  0.21924010  0.56171872  0.84143970  1
  O  O2  1  0.59213355  0.92690833  0.92690880  1
  O  O3  1  0.77164681  0.16503060  0.44575962  1
  O  O4  1  0.77161770  0.44576919  0.16503672  1
loop_
_geom_bond_atom_site_label_1
_geom_bond_atom_site_label_2
_geom_bond_distance
_geom_bond_site_symmetry_2
K0 O3 2.582840 1_555
K0 O1 2.638619 1_655
K0 O0 2.730113 1_645
K0 O4 2.770514 1_556
K1 O1 2.832224 1_555
K1 O0 2.832381 1_555
K1 O3 3.088513 1_455
K1 O4 3.088791 1_455
K2 O4 2.668726 1_555
K2 O0 2.745585 1_555
K2 O2 2.862896 1_554
K2 O3 2.909098 1_565
K2 O1 2.932706 1_554
K3 O3 2.668795 1_555
K3 O1 2.745605 1_555
K3 O2 2.862989 1_545
K3 O4 2.909013 1_556
K3 O0 2.932689 1_545
K4 O2 2.615420 1_555
K4 O4 2.826883 1_555
K4 O3 2.826952 1_555
K4 O0 3.017804 1_655
K4 O1 3.017910 1_655
K5 O4 2.582899 1_555
K5 O0 2.638639 1_655
K5 O1 2.730101 1_654
K5 O3 2.770467 1_565
Fe0 O1 1.840612 1_555
Fe0 O0 1.840615 1_555
Fe0 O2 1.898200 1_555
Fe1 O3 1.833218 1_555
Fe1 O4 1.833246 1_555
Fe1 O2 1.893663 1_544
