# generated using pymatgen
data_Rb4HfPtI12
_symmetry_space_group_name_H-M   'P 1'
_cell_length_a   8.02166234
_cell_length_b   8.02166234
_cell_length_c   11.83773979
_cell_angle_alpha   90.00000000
_cell_angle_beta   90.00000000
_cell_angle_gamma   90.00000000
_symmetry_Int_Tables_number   1
_chemical_formula_structural   Rb4HfPtI12
_chemical_formula_sum   'Rb4 Hf1 Pt1 I12'
_cell_volume   761.72383184
_cell_formula_units_Z   1
loop_
 _symmetry_equiv_pos_site_id
 _symmetry_equiv_pos_as_xyz
  1  'x, y, z'
loop_
 _atom_site_type_symbol
 _atom_site_label
 _atom_site_symmetry_multiplicity
 _atom_site_fract_x
 _atom_site_fract_y
 _atom_site_fract_z
 _atom_site_occupancy
  Rb  Rb0  1  0.50000000  0.00000000  0.76009285  1
  Rb  Rb1  1  0.00000000  0.50000000  0.76009285  1
  Rb  Rb2  1  0.50000000  0.00000000  0.23990715  1
  Rb  Rb3  1  0.00000000  0.50000000  0.23990715  1
  Hf  Hf0  1  0.50000000  0.50000000  0.50000000  1
  Pt  Pt0  1  0.00000000  0.00000000  0.00000000  1
  I  I0  1  0.73960905  0.21253191  0.00000000  1
  I  I1  1  0.69360513  0.20369552  0.50000000  1
  I  I2  1  0.30639487  0.79630448  0.50000000  1
  I  I3  1  0.26039095  0.78746809  0.00000000  1
  I  I4  1  0.79630448  0.69360513  0.50000000  1
  I  I5  1  0.20369552  0.30639487  0.50000000  1
  I  I6  1  0.00000000  0.00000000  0.22796217  1
  I  I7  1  0.50000000  0.50000000  0.25774437  1
  I  I8  1  0.00000000  0.00000000  0.77203783  1
  I  I9  1  0.50000000  0.50000000  0.74225563  1
  I  I10  1  0.78746809  0.73960905  0.00000000  1
  I  I11  1  0.21253191  0.26039095  0.00000000  1
loop_
_geom_bond_atom_site_label_1
_geom_bond_atom_site_label_2
_geom_bond_distance
_geom_bond_site_symmetry_2
Hf0 I4 2.839253 1_555
Hf0 I2 2.839253 1_555
Hf0 I1 2.839253 1_555
Hf0 I5 2.839253 1_555
Hf0 I9 2.867759 1_555
Hf0 I7 2.867759 1_555
I0 Pt0 2.696201 1_655
I0 Rb0 3.829652 1_554
I0 Rb2 3.829652 1_555
I0 Rb1 4.212579 1_654
I0 Rb3 4.212579 1_655
I1 Rb2 3.815952 1_555
I1 Rb0 3.815952 1_555
I2 Rb2 3.815952 1_565
I2 Rb0 3.815952 1_565
I3 Pt0 2.696201 1_565
I3 Rb0 3.829652 1_564
I3 Rb2 3.829652 1_565
I3 Rb1 4.212579 1_554
I3 Rb3 4.212579 1_555
I4 Rb3 3.815952 1_655
I4 Rb1 3.815952 1_655
I5 Rb3 3.815952 1_555
I5 Rb1 3.815952 1_555
I6 Pt0 2.698557 1_555
I6 Rb3 4.013323 1_555
I6 Rb2 4.013323 1_455
I6 Rb3 4.013323 1_545
I6 Rb2 4.013323 1_555
I7 Rb3 4.016385 1_555
I7 Rb3 4.016385 1_655
I7 Rb2 4.016385 1_565
I7 Rb2 4.016385 1_555
I8 Pt0 2.698557 1_556
I8 Rb1 4.013323 1_545
I8 Rb0 4.013323 1_455
I8 Rb0 4.013323 1_555
I8 Rb1 4.013323 1_555
I9 Rb1 4.016385 1_655
I9 Rb0 4.016385 1_565
I9 Rb0 4.016385 1_555
I9 Rb1 4.016385 1_555
I10 Pt0 2.696201 1_665
I10 Rb1 3.829652 1_654
I10 Rb3 3.829652 1_655
I10 Rb0 4.212579 1_564
I10 Rb2 4.212579 1_565
I11 Pt0 2.696201 1_555
I11 Rb1 3.829652 1_554
I11 Rb3 3.829652 1_555
I11 Rb0 4.212579 1_554
I11 Rb2 4.212579 1_555
