# generated using pymatgen
data_HfNb2GaC2
_symmetry_space_group_name_H-M   'P 1'
_cell_length_a   3.18666122
_cell_length_b   3.18666031
_cell_length_c   18.90977426
_cell_angle_alpha   90.00000000
_cell_angle_beta   90.00000000
_cell_angle_gamma   120.00000941
_symmetry_Int_Tables_number   1
_chemical_formula_structural   HfNb2GaC2
_chemical_formula_sum   'Hf2 Nb4 Ga2 C4'
_cell_volume   166.29860342
_cell_formula_units_Z   2
loop_
 _symmetry_equiv_pos_site_id
 _symmetry_equiv_pos_as_xyz
  1  'x, y, z'
loop_
 _atom_site_type_symbol
 _atom_site_label
 _atom_site_symmetry_multiplicity
 _atom_site_fract_x
 _atom_site_fract_y
 _atom_site_fract_z
 _atom_site_occupancy
  Hf  Hf0  1  0.00000000  0.00000000  0.50000000  1
  Hf  Hf1  1  0.00000000  0.00000000  0.00000000  1
  Nb  Nb0  1  0.33333300  0.66666700  0.13662965  1
  Nb  Nb1  1  0.66666700  0.33333300  0.63662965  1
  Nb  Nb2  1  0.33333300  0.66666700  0.36337035  1
  Nb  Nb3  1  0.66666700  0.33333300  0.86337035  1
  Ga  Ga0  1  0.00000000  0.00000000  0.25000000  1
  Ga  Ga1  1  0.00000000  0.00000000  0.75000000  1
  C  C0  1  0.66666700  0.33333300  0.42692317  1
  C  C1  1  0.66666700  0.33333300  0.07307683  1
  C  C2  1  0.33333300  0.66666700  0.57307683  1
  C  C3  1  0.33333300  0.66666700  0.92692317  1
loop_
_geom_bond_atom_site_label_1
_geom_bond_atom_site_label_2
_geom_bond_distance
_geom_bond_site_symmetry_2
Ga0 Nb2 2.825038 1_545
Ga0 Nb0 2.825038 1_545
Ga0 Nb2 2.825040 1_555
Ga0 Nb0 2.825040 1_555
Ga0 Nb2 2.825040 1_445
Ga0 Nb0 2.825040 1_445
Ga1 Nb3 2.825038 1_455
Ga1 Nb1 2.825038 1_455
Ga1 Nb3 2.825040 1_445
Ga1 Nb1 2.825040 1_445
Ga1 Nb3 2.825040 1_555
Ga1 Nb1 2.825040 1_555
C0 Nb2 2.197539 1_545
C0 Nb2 2.197539 1_655
C0 Nb2 2.197544 1_555
C0 Hf0 2.300975 1_655
C0 Hf0 2.300976 1_665
C0 Hf0 2.300977 1_555
C1 Nb0 2.197539 1_545
C1 Nb0 2.197539 1_655
C1 Nb0 2.197544 1_555
C1 Hf1 2.300975 1_655
C1 Hf1 2.300976 1_665
C1 Hf1 2.300977 1_555
C2 Nb1 2.197539 1_565
C2 Nb1 2.197539 1_455
C2 Nb1 2.197544 1_555
C2 Hf0 2.300975 1_565
C2 Hf0 2.300976 1_555
C2 Hf0 2.300977 1_665
C3 Nb3 2.197539 1_565
C3 Nb3 2.197539 1_455
C3 Nb3 2.197544 1_555
C3 Hf1 2.300975 1_566
C3 Hf1 2.300976 1_556
C3 Hf1 2.300977 1_666
