# generated using pymatgen
data_Ta2Co6H
_symmetry_space_group_name_H-M   'P 1'
_cell_length_a   5.13741576
_cell_length_b   5.13741554
_cell_length_c   5.13741616
_cell_angle_alpha   59.99999601
_cell_angle_beta   59.99999747
_cell_angle_gamma   60.00000777
_symmetry_Int_Tables_number   1
_chemical_formula_structural   Ta2Co6H
_chemical_formula_sum   'Ta2 Co6 H1'
_cell_volume   95.87804327
_cell_formula_units_Z   1
loop_
 _symmetry_equiv_pos_site_id
 _symmetry_equiv_pos_as_xyz
  1  'x, y, z'
loop_
 _atom_site_type_symbol
 _atom_site_label
 _atom_site_symmetry_multiplicity
 _atom_site_fract_x
 _atom_site_fract_y
 _atom_site_fract_z
 _atom_site_occupancy
  Ta  Ta0  1  0.24999900  0.24999900  0.24999900  1
  Ta  Ta1  1  0.75000000  0.75000000  0.75000000  1
  Co  Co0  1  0.74797539  0.25202461  0.25202461  1
  Co  Co1  1  0.74797539  0.74797539  0.25202461  1
  Co  Co2  1  0.25202461  0.74797539  0.25202461  1
  Co  Co3  1  0.25202461  0.74797539  0.74797539  1
  Co  Co4  1  0.25202461  0.25202461  0.74797539  1
  Co  Co5  1  0.74797539  0.25202461  0.74797539  1
  H  H0  1  0.00000000  0.00000000  0.00000000  1
loop_
_geom_bond_atom_site_label_1
_geom_bond_atom_site_label_2
_geom_bond_distance
_geom_bond_site_symmetry_2
Co0 H0 1.831061 1_655
Co0 Ta0 2.568740 1_655
Co0 Ta1 2.568750 1_545
Co0 Ta1 2.568750 1_554
Co0 Ta0 2.568760 1_555
Co1 H0 1.831060 1_665
Co1 Ta1 2.568750 1_555
Co1 Ta1 2.568750 1_554
Co1 Ta0 2.568750 1_565
Co1 Ta0 2.568750 1_655
Co2 H0 1.831061 1_565
Co2 Ta0 2.568740 1_565
Co2 Ta1 2.568750 1_554
Co2 Ta1 2.568750 1_455
Co2 Ta0 2.568760 1_555
Co3 H0 1.831061 1_566
Co3 Ta0 2.568750 1_565
Co3 Ta0 2.568750 1_556
Co3 Ta1 2.568750 1_555
Co3 Ta1 2.568750 1_455
Co4 H0 1.831060 1_556
Co4 Ta0 2.568740 1_556
Co4 Ta1 2.568750 1_545
Co4 Ta1 2.568750 1_455
Co4 Ta0 2.568761 1_555
Co5 H0 1.831061 1_656
Co5 Ta1 2.568750 1_545
Co5 Ta1 2.568750 1_555
Co5 Ta0 2.568750 1_556
Co5 Ta0 2.568750 1_655
