# generated using pymatgen
data_Na10TiSnAs6
_symmetry_space_group_name_H-M   'P 1'
_cell_length_a   7.53622945
_cell_length_b   8.37858944
_cell_length_c   15.96681506
_cell_angle_alpha   57.86738169
_cell_angle_beta   90.00000000
_cell_angle_gamma   90.00000000
_symmetry_Int_Tables_number   1
_chemical_formula_structural   Na10TiSnAs6
_chemical_formula_sum   'Na20 Ti2 Sn2 As12'
_cell_volume   853.75654226
_cell_formula_units_Z   2
loop_
 _symmetry_equiv_pos_site_id
 _symmetry_equiv_pos_as_xyz
  1  'x, y, z'
loop_
 _atom_site_type_symbol
 _atom_site_label
 _atom_site_symmetry_multiplicity
 _atom_site_fract_x
 _atom_site_fract_y
 _atom_site_fract_z
 _atom_site_occupancy
  Na  Na0  1  0.16304717  0.99566313  0.57902830  1
  Na  Na1  1  0.48662001  0.91840634  0.75777045  1
  Na  Na2  1  0.98662001  0.08159366  0.74222955  1
  Na  Na3  1  0.51402287  0.07372721  0.24283456  1
  Na  Na4  1  0.01402287  0.92627279  0.25716544  1
  Na  Na5  1  0.02690846  0.59445813  0.58334934  1
  Na  Na6  1  0.52690846  0.40554187  0.91665066  1
  Na  Na7  1  0.96684521  0.41843196  0.41713490  1
  Na  Na8  1  0.46684521  0.58156804  0.08286510  1
  Na  Na9  1  0.52338740  0.74642282  0.58745643  1
  Na  Na10  1  0.02338740  0.25357718  0.91254357  1
  Na  Na11  1  0.48656110  0.26042460  0.40722120  1
  Na  Na12  1  0.85176892  0.68495369  0.74440035  1
  Na  Na13  1  0.35176892  0.31504631  0.75559965  1
  Na  Na14  1  0.14969506  0.31851040  0.26099267  1
  Na  Na15  1  0.64969506  0.68148960  0.23900733  1
  Na  Na16  1  0.84542588  0.01243898  0.41469092  1
  Na  Na17  1  0.34542588  0.98756102  0.08530908  1
  Na  Na18  1  0.66304717  0.00433687  0.92097170  1
  Na  Na19  1  0.98656110  0.73957540  0.09277880  1
  Ti  Ti0  1  0.86059699  0.34745250  0.08283938  1
  Ti  Ti1  1  0.36059699  0.65254750  0.41716062  1
  Sn  Sn0  1  0.13718001  0.65342880  0.91638823  1
  Sn  Sn1  1  0.63718001  0.34657120  0.58361177  1
  As  As0  1  0.76531091  0.35904532  0.22705315  1
  As  As1  1  0.69570230  0.67944748  0.42056475  1
  As  As2  1  0.19570230  0.32055252  0.07943525  1
  As  As3  1  0.28246013  0.33879996  0.56926212  1
  As  As4  1  0.78246013  0.66120004  0.93073788  1
  As  As5  1  0.76377513  0.06132930  0.57854930  1
  As  As6  1  0.26377513  0.93867070  0.92145070  1
  As  As7  1  0.24188017  0.92653465  0.41901223  1
  As  As8  1  0.74188017  0.07346535  0.08098777  1
  As  As9  1  0.73881126  0.36495300  0.73423498  1
  As  As10  1  0.23881126  0.63504700  0.76576502  1
  As  As11  1  0.26531091  0.64095468  0.27294685  1
loop_
_geom_bond_atom_site_label_1
_geom_bond_atom_site_label_2
_geom_bond_distance
_geom_bond_site_symmetry_2
Na1 Sn1 3.358246 1_565
Na1 Sn0 3.506709 1_555
Na2 Sn0 3.358246 1_645
Na2 Sn1 3.506709 1_555
Na5 Sn1 3.595957 1_455
Na6 Sn0 3.595957 1_555
Na7 Sn1 3.449344 1_555
Na8 Sn0 3.449344 1_554
Na9 Sn1 3.490237 1_555
Na10 Sn0 3.490237 1_555
Na11 Sn1 3.450212 1_555
Na12 Sn0 3.386105 1_655
Na13 Sn1 3.386105 1_555
Na19 Sn0 3.450212 1_654
Sn0 Ti0 3.276050 1_456
Sn1 Ti1 3.276050 1_555
As0 Ti0 2.462751 1_555
As0 Na16 2.918690 1_555
As0 Na14 2.933380 1_655
As0 Na15 2.939888 1_555
As0 Na3 2.953616 1_555
As0 Na8 3.044616 1_555
As0 Na19 3.204775 1_555
As0 Na11 3.292822 1_555
As1 Ti1 2.538618 1_555
As1 Sn1 2.650819 1_555
As1 Na15 2.910555 1_555
As1 Na16 2.964409 1_565
As1 Na7 3.014727 1_555
As1 Na9 3.269974 1_555
As1 Na3 3.296733 1_565
As1 Na4 3.331507 1_655
As1 Na5 3.394711 1_655
As2 Ti0 2.538618 1_455
As2 Sn0 2.650819 1_554
As2 Na14 2.910555 1_555
As2 Na17 2.964409 1_545
As2 Na8 3.014727 1_555
As2 Na10 3.269974 1_554
As2 Na4 3.296733 1_545
As2 Na3 3.331507 1_555
As2 Na6 3.394711 1_554
As3 Ti1 2.522680 1_555
As3 Sn1 2.686796 1_555
As3 Na13 2.921380 1_555
As3 Na0 2.936481 1_545
As3 Na5 2.976675 1_555
As3 Na7 3.206035 1_455
As3 Na2 3.303179 1_455
As3 Na11 3.361320 1_555
As3 Na1 3.543386 1_545
As4 Ti0 2.522680 1_556
As4 Sn0 2.686796 1_655
As4 Na12 2.921380 1_555
As4 Na18 2.936481 1_565
As4 Na6 2.976675 1_555
As4 Na8 3.206035 1_556
As4 Na1 3.303179 1_555
As4 Na19 3.361320 1_556
As4 Na2 3.543386 1_565
As5 Sn1 2.614189 1_555
As5 Na12 2.917794 1_545
As5 Na16 2.920873 1_555
As5 Na0 3.058170 1_645
As5 Na7 3.119879 1_555
As5 Na11 3.126704 1_555
As5 Na9 3.140788 1_545
As5 Na2 3.186126 1_555
As5 Na1 3.215610 1_545
As6 Sn0 2.614189 1_555
As6 Na13 2.917794 1_565
As6 Na17 2.920873 1_556
As6 Na18 3.058170 1_565
As6 Na8 3.119879 1_556
As6 Na19 3.126704 1_456
As6 Na10 3.140788 1_565
As6 Na1 3.186126 1_555
As6 Na2 3.215610 1_465
As7 Ti1 2.478591 1_555
As7 Na0 2.964855 1_555
As7 Na14 2.969832 1_565
As7 Na16 3.065413 1_465
As7 Na5 3.079758 1_555
As7 Na4 3.103665 1_555
As7 Na9 3.113538 1_555
As7 Na3 3.154336 1_565
As7 Na11 3.271326 1_565
As8 Ti0 2.478591 1_555
As8 Na18 2.964855 1_554
As8 Na15 2.969832 1_545
As8 Na17 3.065413 1_545
As8 Na6 3.079758 1_554
As8 Na3 3.103665 1_555
As8 Na10 3.113538 1_654
As8 Na4 3.154336 1_645
As8 Na19 3.271326 1_545
As9 Sn1 2.605429 1_555
As9 Na12 2.898711 1_555
As9 Na13 2.940652 1_555
As9 Na18 2.960056 1_555
As9 Na2 2.969550 1_555
As9 Na5 3.047565 1_655
As9 Na9 3.221107 1_555
As9 Na10 3.278661 1_655
As9 Na6 3.493248 1_555
As10 Sn0 2.605429 1_555
As10 Na13 2.898711 1_555
As10 Na12 2.940652 1_455
As10 Na0 2.960056 1_555
As10 Na1 2.969550 1_555
As10 Na6 3.047565 1_555
As10 Na10 3.221107 1_555
As10 Na9 3.278661 1_555
As10 Na5 3.493248 1_555
As11 Ti1 2.462751 1_555
As11 Na17 2.918690 1_555
As11 Na15 2.933380 1_555
As11 Na14 2.939888 1_555
As11 Na4 2.953616 1_555
As11 Na7 3.044616 1_455
As11 Na11 3.204775 1_555
As11 Na19 3.292822 1_455
