# generated using pymatgen
data_KTi2V3O12
_symmetry_space_group_name_H-M   'P 1'
_cell_length_a   9.47684511
_cell_length_b   9.47684463
_cell_length_c   9.47684639
_cell_angle_alpha   56.35897227
_cell_angle_beta   56.35897333
_cell_angle_gamma   56.35898188
_symmetry_Int_Tables_number   1
_chemical_formula_structural   KTi2V3O12
_chemical_formula_sum   'K2 Ti4 V6 O24'
_cell_volume   551.15141145
_cell_formula_units_Z   2
loop_
 _symmetry_equiv_pos_site_id
 _symmetry_equiv_pos_as_xyz
  1  'x, y, z'
loop_
 _atom_site_type_symbol
 _atom_site_label
 _atom_site_symmetry_multiplicity
 _atom_site_fract_x
 _atom_site_fract_y
 _atom_site_fract_z
 _atom_site_occupancy
  K  K0  1  0.50000000  0.50000000  0.50000000  1
  K  K1  1  0.00000000  0.00000000  0.00000000  1
  Ti  Ti0  1  0.35449909  0.35449909  0.35449909  1
  Ti  Ti1  1  0.85449909  0.85449909  0.85449909  1
  Ti  Ti2  1  0.64550091  0.64550091  0.64550091  1
  Ti  Ti3  1  0.14550091  0.14550091  0.14550091  1
  V  V0  1  0.96915923  0.53084077  0.25000000  1
  V  V1  1  0.25000000  0.96915923  0.53084077  1
  V  V2  1  0.53084077  0.25000000  0.96915923  1
  V  V3  1  0.75000000  0.03084077  0.46915923  1
  V  V4  1  0.46915923  0.75000000  0.03084077  1
  V  V5  1  0.03084077  0.46915923  0.75000000  1
  O  O0  1  0.15523901  0.50305916  0.26493391  1
  O  O1  1  0.26493391  0.15523901  0.50305916  1
  O  O2  1  0.50305916  0.26493391  0.15523901  1
  O  O3  1  0.76493391  0.00305916  0.65523901  1
  O  O4  1  0.65523901  0.76493391  0.00305916  1
  O  O5  1  0.00305916  0.65523901  0.76493391  1
  O  O6  1  0.84476099  0.49694084  0.73506609  1
  O  O7  1  0.73506609  0.84476099  0.49694084  1
  O  O8  1  0.49694084  0.73506609  0.84476099  1
  O  O9  1  0.23506609  0.99694084  0.34476099  1
  O  O10  1  0.34476099  0.23506609  0.99694084  1
  O  O11  1  0.99694084  0.34476099  0.23506609  1
  O  O12  1  0.21749946  0.43377303  0.56096808  1
  O  O13  1  0.56096808  0.21749946  0.43377303  1
  O  O14  1  0.43377303  0.56096808  0.21749946  1
  O  O15  1  0.06096808  0.93377303  0.71749946  1
  O  O16  1  0.71749946  0.06096808  0.93377303  1
  O  O17  1  0.93377303  0.71749946  0.06096808  1
  O  O18  1  0.78250054  0.56622697  0.43903192  1
  O  O19  1  0.43903192  0.78250054  0.56622697  1
  O  O20  1  0.56622697  0.43903192  0.78250054  1
  O  O21  1  0.93903192  0.06622697  0.28250054  1
  O  O22  1  0.28250054  0.93903192  0.06622697  1
  O  O23  1  0.06622697  0.28250054  0.93903192  1
loop_
_geom_bond_atom_site_label_1
_geom_bond_atom_site_label_2
_geom_bond_distance
_geom_bond_site_symmetry_2
K0 O18 2.764284 1_555
K0 O12 2.764284 1_555
K0 O19 2.764284 1_555
K0 O13 2.764284 1_555
K0 O20 2.764284 1_555
K0 O14 2.764284 1_555
K1 O23 2.764284 1_554
K1 O17 2.764284 1_445
K1 O22 2.764284 1_545
K1 O16 2.764284 1_454
K1 O21 2.764284 1_455
K1 O15 2.764284 1_544
O0 V0 1.708778 1_455
O0 Ti0 1.942857 1_555
O1 V1 1.708778 1_545
O1 Ti0 1.942856 1_555
O2 V2 1.708778 1_554
O2 Ti0 1.942857 1_555
O3 V3 1.708778 1_555
O3 Ti1 1.942857 1_545
O4 V4 1.708778 1_555
O4 Ti1 1.942856 1_554
O5 V5 1.708778 1_555
O5 Ti1 1.942857 1_455
O6 V5 1.708778 1_655
O6 Ti2 1.942857 1_555
O7 V3 1.708778 1_565
O7 Ti2 1.942856 1_555
O8 V4 1.708778 1_556
O8 Ti2 1.942857 1_555
O9 V1 1.708778 1_555
O9 Ti3 1.942857 1_565
O10 V2 1.708778 1_555
O10 Ti3 1.942856 1_556
O11 V0 1.708778 1_555
O11 Ti3 1.942857 1_655
O12 V5 1.716996 1_555
O12 Ti0 1.952416 1_555
O13 V3 1.716996 1_555
O13 Ti0 1.952415 1_555
O14 V4 1.716995 1_555
O14 Ti0 1.952415 1_555
O15 V1 1.716995 1_555
O15 Ti1 1.952415 1_455
O16 V2 1.716996 1_555
O16 Ti1 1.952415 1_545
O17 V0 1.716996 1_555
O17 Ti1 1.952416 1_554
O18 V0 1.716996 1_555
O18 Ti2 1.952416 1_555
O19 V1 1.716996 1_555
O19 Ti2 1.952415 1_555
O20 V2 1.716995 1_555
O20 Ti2 1.952415 1_555
O21 V3 1.716995 1_555
O21 Ti3 1.952415 1_655
O22 V4 1.716996 1_555
O22 Ti3 1.952415 1_565
O23 V5 1.716996 1_555
O23 Ti3 1.952416 1_556
