# generated using pymatgen
data_Rb2CaCdF6
_symmetry_space_group_name_H-M   'P 1'
_cell_length_a   6.28144054
_cell_length_b   6.28144092
_cell_length_c   6.28144046
_cell_angle_alpha   59.99999740
_cell_angle_beta   60.00000542
_cell_angle_gamma   60.00000060
_symmetry_Int_Tables_number   1
_chemical_formula_structural   Rb2CaCdF6
_chemical_formula_sum   'Rb2 Ca1 Cd1 F6'
_cell_volume   175.25192353
_cell_formula_units_Z   1
loop_
 _symmetry_equiv_pos_site_id
 _symmetry_equiv_pos_as_xyz
  1  'x, y, z'
loop_
 _atom_site_type_symbol
 _atom_site_label
 _atom_site_symmetry_multiplicity
 _atom_site_fract_x
 _atom_site_fract_y
 _atom_site_fract_z
 _atom_site_occupancy
  Rb  Rb0  1  0.25000000  0.25000000  0.25000000  1
  Rb  Rb1  1  0.75000000  0.75000000  0.75000000  1
  Ca  Ca0  1  0.00000000  0.00000000  0.00000000  1
  Cd  Cd0  1  0.50000000  0.50000000  0.50000000  1
  F  F0  1  0.25034213  0.74965787  0.25034213  1
  F  F1  1  0.74965787  0.74965787  0.25034213  1
  F  F2  1  0.74965787  0.25034213  0.74965787  1
  F  F3  1  0.74965787  0.25034213  0.25034213  1
  F  F4  1  0.25034213  0.74965787  0.74965787  1
  F  F5  1  0.25034213  0.25034213  0.74965787  1
loop_
_geom_bond_atom_site_label_1
_geom_bond_atom_site_label_2
_geom_bond_distance
_geom_bond_site_symmetry_2
Ca0 F0 2.223864 1_545
Ca0 F2 2.223864 1_454
Ca0 F5 2.223864 1_554
Ca0 F1 2.223864 1_445
Ca0 F3 2.223864 1_455
Ca0 F4 2.223864 1_544
Cd0 F2 2.217785 1_555
Cd0 F0 2.217785 1_555
Cd0 F1 2.217785 1_555
Cd0 F5 2.217785 1_555
Cd0 F4 2.217786 1_555
Cd0 F3 2.217786 1_555
F0 Rb0 3.140722 1_555
F0 Rb0 3.140722 1_565
F0 Rb1 3.140722 1_554
F0 Rb1 3.140722 1_455
F1 Rb1 3.140722 1_554
F1 Rb1 3.140722 1_555
F1 Rb0 3.140722 1_565
F1 Rb0 3.140722 1_655
F2 Rb1 3.140722 1_555
F2 Rb1 3.140722 1_545
F2 Rb0 3.140722 1_556
F2 Rb0 3.140722 1_655
F3 Rb1 3.140722 1_554
F3 Rb1 3.140722 1_545
F3 Rb0 3.140722 1_555
F3 Rb0 3.140722 1_655
F4 Rb0 3.140722 1_556
F4 Rb0 3.140722 1_565
F4 Rb1 3.140722 1_555
F4 Rb1 3.140722 1_455
F5 Rb0 3.140722 1_555
F5 Rb0 3.140722 1_556
F5 Rb1 3.140722 1_545
F5 Rb1 3.140722 1_455
