# generated using pymatgen
data_Sc22Ga2Tc5Ru
_symmetry_space_group_name_H-M   'P 1'
_cell_length_a   9.62568331
_cell_length_b   9.48888777
_cell_length_c   9.62568106
_cell_angle_alpha   60.46899545
_cell_angle_beta   59.06198798
_cell_angle_gamma   60.46899832
_symmetry_Int_Tables_number   1
_chemical_formula_structural   Sc22Ga2Tc5Ru
_chemical_formula_sum   'Sc22 Ga2 Tc5 Ru1'
_cell_volume   621.42723517
_cell_formula_units_Z   1
loop_
 _symmetry_equiv_pos_site_id
 _symmetry_equiv_pos_as_xyz
  1  'x, y, z'
loop_
 _atom_site_type_symbol
 _atom_site_label
 _atom_site_symmetry_multiplicity
 _atom_site_fract_x
 _atom_site_fract_y
 _atom_site_fract_z
 _atom_site_occupancy
  Sc  Sc0  1  0.80465217  0.80465217  0.19534783  1
  Sc  Sc1  1  0.19466119  0.80533881  0.19466119  1
  Sc  Sc2  1  0.80465217  0.19534783  0.19534783  1
  Sc  Sc3  1  0.19534783  0.19534783  0.80465217  1
  Sc  Sc4  1  0.80533881  0.19466119  0.80533881  1
  Sc  Sc5  1  0.19534783  0.80465217  0.80465217  1
  Sc  Sc6  1  0.60825356  0.61970933  0.15232979  1
  Sc  Sc7  1  0.61970933  0.15232979  0.61970933  1
  Sc  Sc8  1  0.15232979  0.61970933  0.60825356  1
  Sc  Sc9  1  0.61970933  0.60825356  0.61970933  1
  Sc  Sc10  1  0.39174644  0.38029067  0.84767021  1
  Sc  Sc11  1  0.38029067  0.84767021  0.38029067  1
  Sc  Sc12  1  0.84767021  0.38029067  0.39174644  1
  Sc  Sc13  1  0.38029067  0.39174644  0.38029067  1
  Sc  Sc14  1  0.85347501  0.83753156  0.47145988  1
  Sc  Sc15  1  0.83753156  0.47145988  0.83753156  1
  Sc  Sc16  1  0.47145988  0.83753156  0.85347501  1
  Sc  Sc17  1  0.83753156  0.85347501  0.83753156  1
  Sc  Sc18  1  0.14652499  0.16246844  0.52854012  1
  Sc  Sc19  1  0.16246844  0.52854012  0.16246844  1
  Sc  Sc20  1  0.52854012  0.16246844  0.14652499  1
  Sc  Sc21  1  0.16246844  0.14652499  0.16246844  1
  Ga  Ga0  1  0.50000000  0.00000000  0.50000000  1
  Ga  Ga1  1  0.00000000  0.50000000  0.00000000  1
  Tc  Tc0  1  0.00000000  0.00000000  0.00000000  1
  Tc  Tc1  1  0.00000000  0.00000000  0.50000000  1
  Tc  Tc2  1  0.00000000  0.50000000  0.50000000  1
  Tc  Tc3  1  0.50000000  0.50000000  0.00000000  1
  Tc  Tc4  1  0.50000000  0.00000000  0.00000000  1
  Ru  Ru0  1  0.50000000  0.50000000  0.50000000  1
loop_
_geom_bond_atom_site_label_1
_geom_bond_atom_site_label_2
_geom_bond_distance
_geom_bond_site_symmetry_2
Sc0 Tc0 2.621434 1_665
Sc0 Sc14 3.102924 1_555
Sc0 Sc20 3.102935 1_565
Sc0 Sc19 3.102936 1_655
Sc0 Sc17 3.102943 1_554
Sc0 Sc6 3.408328 1_555
Sc0 Sc9 3.408340 1_555
Sc0 Sc12 3.408343 1_555
Sc0 Sc11 3.408345 1_555
Sc1 Tc0 2.687008 1_565
Sc1 Sc19 2.965469 1_555
Sc1 Sc16 2.965480 1_554
Sc1 Sc14 2.965480 1_455
Sc1 Sc21 2.965487 1_565
Sc1 Sc11 3.353292 1_555
Sc1 Sc13 3.353303 1_555
Sc1 Sc8 3.353308 1_555
Sc1 Sc6 3.353309 1_555
Sc2 Tc0 2.621434 1_655
Sc2 Sc20 3.102924 1_555
Sc2 Sc21 3.102943 1_655
Sc2 Sc6 3.408343 1_555
Sc2 Sc7 3.408344 1_555
Sc3 Tc0 2.621434 1_556
Sc3 Sc8 3.408343 1_555
Sc3 Sc7 3.408345 1_555
Sc4 Tc0 2.687008 1_656
Sc4 Sc7 3.353292 1_555
Sc4 Sc9 3.353303 1_555
Sc5 Tc0 2.621434 1_566
Sc5 Sc8 3.408327 1_555
Sc5 Sc9 3.408340 1_555
Sc6 Tc4 2.984235 1_565
Sc6 Tc3 2.984251 1_555
Sc7 Tc4 2.984235 1_556
Sc7 Tc1 2.984236 1_655
Sc8 Tc1 2.984235 1_565
Sc8 Tc2 2.984251 1_555
Sc9 Tc3 2.984234 1_556
Sc9 Tc2 2.984235 1_655
Sc10 Tc4 2.984235 1_556
Sc10 Tc3 2.984251 1_556
Sc10 Sc7 3.059078 1_555
Sc10 Sc9 3.059106 1_555
Sc10 Sc20 3.103494 1_556
Sc10 Sc21 3.208831 1_556
Sc10 Sc19 3.208853 1_556
Sc10 Sc8 3.304791 1_555
Sc10 Sc4 3.353309 1_555
Sc10 Sc3 3.408328 1_555
Sc10 Sc5 3.408343 1_555
Sc11 Tc4 2.984235 1_565
Sc11 Tc1 2.984236 1_565
Sc11 Sc6 3.059078 1_555
Sc11 Sc8 3.059079 1_555
Sc11 Sc21 3.103472 1_565
Sc11 Sc18 3.208852 1_565
Sc11 Sc20 3.208852 1_565
Sc11 Sc9 3.304819 1_555
Sc11 Sc5 3.408344 1_555
Sc12 Tc1 2.984235 1_655
Sc12 Tc2 2.984251 1_655
Sc12 Sc7 3.059079 1_555
Sc12 Sc9 3.059105 1_555
Sc12 Sc18 3.103494 1_655
Sc12 Sc21 3.208831 1_655
Sc12 Sc19 3.208853 1_655
Sc12 Sc6 3.304791 1_555
Sc12 Sc4 3.353308 1_555
Sc12 Sc2 3.408327 1_555
Sc13 Tc3 2.984234 1_555
Sc13 Tc2 2.984235 1_555
Sc13 Sc8 3.059105 1_555
Sc13 Sc6 3.059106 1_555
Sc13 Sc19 3.103463 1_555
Sc13 Sc20 3.208822 1_555
Sc13 Sc18 3.208822 1_555
Sc13 Sc7 3.304819 1_555
Sc13 Sc3 3.408340 1_555
Sc13 Sc2 3.408340 1_555
Sc14 Tc2 2.720408 1_655
Sc14 Tc1 2.720425 1_665
Sc14 Sc2 3.102935 1_565
Sc14 Sc8 3.103494 1_655
Sc14 Sc9 3.208822 1_555
Sc14 Sc7 3.208852 1_565
Sc15 Tc2 2.720408 1_655
Sc15 Tc3 2.720409 1_556
Sc15 Sc4 2.965469 1_555
Sc15 Sc2 3.102936 1_556
Sc15 Sc3 3.102936 1_655
Sc15 Sc9 3.103463 1_555
Sc15 Sc6 3.208853 1_556
Sc15 Sc8 3.208853 1_655
Sc16 Tc3 2.720408 1_556
Sc16 Tc4 2.720425 1_566
Sc16 Sc5 3.102924 1_555
Sc16 Sc3 3.102935 1_565
Sc16 Sc6 3.103494 1_556
Sc16 Sc9 3.208822 1_555
Sc16 Sc7 3.208852 1_565
Sc17 Tc1 2.720412 1_665
Sc17 Tc4 2.720413 1_566
Sc17 Sc4 2.965487 1_565
Sc17 Sc5 3.102943 1_655
Sc17 Sc7 3.103472 1_565
Sc17 Sc6 3.208831 1_556
Sc17 Sc8 3.208831 1_655
Sc18 Tc2 2.720408 1_555
Sc18 Tc1 2.720425 1_555
Sc18 Sc4 2.965480 1_455
Sc18 Sc3 3.102924 1_555
Sc18 Sc5 3.102935 1_545
Sc19 Tc2 2.720408 1_555
Sc19 Tc3 2.720409 1_555
Sc19 Sc5 3.102936 1_554
Sc20 Tc3 2.720408 1_555
Sc20 Tc4 2.720425 1_555
Sc20 Sc4 2.965480 1_554
Sc21 Tc1 2.720412 1_555
Sc21 Tc4 2.720413 1_555
Sc21 Sc3 3.102943 1_554
Ga0 Sc16 2.883457 1_545
Ga0 Sc20 2.883457 1_555
Ga0 Sc14 2.883457 1_545
Ga0 Sc18 2.883457 1_555
Ga0 Sc13 3.064917 1_555
Ga0 Sc9 3.064917 1_545
Ga0 Sc7 3.064934 1_555
Ga0 Sc11 3.064934 1_545
Ga0 Sc3 3.434056 1_555
Ga0 Sc0 3.434056 1_545
Ga0 Sc2 3.434056 1_555
Ga0 Sc5 3.434056 1_545
Ga1 Sc17 2.883462 1_454
Ga1 Sc21 2.883462 1_555
Ga1 Sc19 2.883474 1_555
Ga1 Sc15 2.883474 1_454
Ga1 Sc12 3.064918 1_455
Ga1 Sc8 3.064918 1_554
Ga1 Sc6 3.064919 1_455
Ga1 Sc10 3.064919 1_554
Ga1 Sc0 3.434056 1_455
Ga1 Sc3 3.434056 1_554
Ga1 Sc5 3.434056 1_554
Ga1 Sc2 3.434056 1_455
Ru0 Sc10 2.722027 1_555
Ru0 Sc6 2.722027 1_555
Ru0 Sc12 2.722028 1_555
Ru0 Sc8 2.722028 1_555
Ru0 Sc11 2.722028 1_555
Ru0 Sc7 2.722028 1_555
Ru0 Sc9 2.722044 1_555
Ru0 Sc13 2.722044 1_555
