# generated using pymatgen
data_Y10Cd3Tc
_symmetry_space_group_name_H-M   'P 1'
_cell_length_a   9.63493727
_cell_length_b   9.63493650
_cell_length_c   9.90201103
_cell_angle_alpha   90.00000000
_cell_angle_beta   90.00000000
_cell_angle_gamma   119.99999916
_symmetry_Int_Tables_number   1
_chemical_formula_structural   Y10Cd3Tc
_chemical_formula_sum   'Y20 Cd6 Tc2'
_cell_volume   796.07097445
_cell_formula_units_Z   2
loop_
 _symmetry_equiv_pos_site_id
 _symmetry_equiv_pos_as_xyz
  1  'x, y, z'
loop_
 _atom_site_type_symbol
 _atom_site_label
 _atom_site_symmetry_multiplicity
 _atom_site_fract_x
 _atom_site_fract_y
 _atom_site_fract_z
 _atom_site_occupancy
  Y  Y0  1  0.00000000  0.00000000  0.50000000  1
  Y  Y1  1  0.00000000  0.00000000  0.00000000  1
  Y  Y2  1  0.21013920  0.78986080  0.43916771  1
  Y  Y3  1  0.21013920  0.42027840  0.43916771  1
  Y  Y4  1  0.57972160  0.78986080  0.43916771  1
  Y  Y5  1  0.78986080  0.21013920  0.56083229  1
  Y  Y6  1  0.78986080  0.57972160  0.56083229  1
  Y  Y7  1  0.42027840  0.21013920  0.56083229  1
  Y  Y8  1  0.78986080  0.21013920  0.93916771  1
  Y  Y9  1  0.78986080  0.57972160  0.93916771  1
  Y  Y10  1  0.42027840  0.21013920  0.93916771  1
  Y  Y11  1  0.21013920  0.78986080  0.06083229  1
  Y  Y12  1  0.21013920  0.42027840  0.06083229  1
  Y  Y13  1  0.57972160  0.78986080  0.06083229  1
  Y  Y14  1  0.53988365  0.46011635  0.25000000  1
  Y  Y15  1  0.53988365  0.07976830  0.25000000  1
  Y  Y16  1  0.92023170  0.46011635  0.25000000  1
  Y  Y17  1  0.46011635  0.53988365  0.75000000  1
  Y  Y18  1  0.46011635  0.92023170  0.75000000  1
  Y  Y19  1  0.07976830  0.53988365  0.75000000  1
  Cd  Cd0  1  0.88648731  0.11351269  0.25000000  1
  Cd  Cd1  1  0.88648731  0.77297562  0.25000000  1
  Cd  Cd2  1  0.22702438  0.11351269  0.25000000  1
  Cd  Cd3  1  0.11351269  0.88648731  0.75000000  1
  Cd  Cd4  1  0.11351269  0.22702438  0.75000000  1
  Cd  Cd5  1  0.77297562  0.88648731  0.75000000  1
  Tc  Tc0  1  0.33333300  0.66666700  0.25000000  1
  Tc  Tc1  1  0.66666700  0.33333300  0.75000000  1
loop_
_geom_bond_atom_site_label_1
_geom_bond_atom_site_label_2
_geom_bond_distance
_geom_bond_site_symmetry_2
Cd0 Y1 3.117142 1_655
Cd0 Y0 3.117142 1_655
Cd0 Y16 3.189395 1_555
Cd0 Y15 3.189395 1_555
Cd0 Cd1 3.281053 1_545
Cd0 Cd2 3.281053 1_655
Cd0 Y5 3.474691 1_555
Cd0 Y8 3.474691 1_554
Cd0 Y4 3.570992 1_545
Cd0 Y13 3.570992 1_545
Cd0 Y3 3.570992 1_655
Cd0 Y12 3.570992 1_655
Cd1 Y0 3.117136 1_665
Cd1 Y1 3.117136 1_665
Cd1 Y16 3.189395 1_555
Cd1 Y14 3.189395 1_555
Cd1 Cd2 3.281053 1_665
Cd1 Y6 3.474695 1_555
Cd1 Y9 3.474695 1_554
Cd1 Y4 3.570987 1_555
Cd1 Y13 3.570987 1_555
Cd1 Y2 3.570995 1_655
Cd1 Y11 3.570995 1_655
Cd2 Y1 3.117137 1_555
Cd2 Y0 3.117137 1_555
Cd2 Y14 3.189395 1_555
Cd2 Y15 3.189395 1_555
Cd2 Y7 3.474695 1_555
Cd2 Y10 3.474695 1_554
Cd2 Y3 3.570987 1_555
Cd2 Y12 3.570987 1_555
Cd2 Y2 3.570995 1_545
Cd2 Y11 3.570995 1_545
Cd3 Y0 3.117142 1_565
Cd3 Y1 3.117142 1_566
Cd3 Y19 3.189395 1_555
Cd3 Y18 3.189395 1_555
Cd3 Cd4 3.281053 1_565
Cd3 Cd5 3.281053 1_455
Cd3 Y11 3.474691 1_556
Cd3 Y2 3.474691 1_555
Cd3 Y10 3.570992 1_565
Cd3 Y7 3.570992 1_565
Cd3 Y9 3.570992 1_455
Cd3 Y6 3.570992 1_455
Cd4 Y0 3.117136 1_555
Cd4 Y1 3.117136 1_556
Cd4 Y19 3.189395 1_555
Cd4 Y17 3.189395 1_555
Cd4 Cd5 3.281053 1_445
Cd4 Y12 3.474695 1_556
Cd4 Y3 3.474695 1_555
Cd4 Y10 3.570987 1_555
Cd4 Y7 3.570987 1_555
Cd4 Y8 3.570995 1_455
Cd4 Y5 3.570995 1_455
Cd5 Y1 3.117137 1_666
Cd5 Y0 3.117137 1_665
Cd5 Y17 3.189395 1_555
Cd5 Y18 3.189395 1_555
Cd5 Y13 3.474695 1_556
Cd5 Y4 3.474695 1_555
Cd5 Y9 3.570987 1_555
Cd5 Y6 3.570987 1_555
Cd5 Y8 3.570995 1_565
Cd5 Y5 3.570995 1_565
Tc0 Y2 2.781243 1_555
Tc0 Y11 2.781243 1_555
Tc0 Y3 2.781249 1_555
Tc0 Y12 2.781249 1_555
Tc0 Y4 2.781249 1_555
Tc0 Y13 2.781249 1_555
Tc0 Y15 3.446958 1_565
Tc0 Y14 3.446959 1_555
Tc0 Y16 3.446959 1_455
Tc1 Y8 2.781243 1_555
Tc1 Y5 2.781243 1_555
Tc1 Y9 2.781249 1_555
Tc1 Y6 2.781249 1_555
Tc1 Y10 2.781249 1_555
Tc1 Y7 2.781249 1_555
Tc1 Y18 3.446958 1_545
Tc1 Y17 3.446959 1_555
Tc1 Y19 3.446959 1_655
