# generated using pymatgen
data_Ti4GaSiH2
_symmetry_space_group_name_H-M   'P 1'
_cell_length_a   5.08769006
_cell_length_b   5.08768988
_cell_length_c   5.08769001
_cell_angle_alpha   104.51060497
_cell_angle_beta   104.51061619
_cell_angle_gamma   119.92602812
_symmetry_Int_Tables_number   1
_chemical_formula_structural   Ti4GaSiH2
_chemical_formula_sum   'Ti4 Ga1 Si1 H2'
_cell_volume   98.80624978
_cell_formula_units_Z   1
loop_
 _symmetry_equiv_pos_site_id
 _symmetry_equiv_pos_as_xyz
  1  'x, y, z'
loop_
 _atom_site_type_symbol
 _atom_site_label
 _atom_site_symmetry_multiplicity
 _atom_site_fract_x
 _atom_site_fract_y
 _atom_site_fract_z
 _atom_site_occupancy
  Ti  Ti0  1  0.15970939  0.65970939  0.81941979  1
  Ti  Ti1  1  0.84029061  0.34029061  0.18058021  1
  Ti  Ti2  1  0.34029061  0.15970939  0.50000000  1
  Ti  Ti3  1  0.65970939  0.84029061  0.50000000  1
  Ga  Ga0  1  0.25000000  0.25000000  0.00000000  1
  Si  Si0  1  0.75000000  0.75000000  0.00000000  1
  H  H0  1  0.75000000  0.25000000  0.50000000  1
  H  H1  1  0.25000000  0.75000000  0.50000000  1
loop_
_geom_bond_atom_site_label_1
_geom_bond_atom_site_label_2
_geom_bond_distance
_geom_bond_site_symmetry_2
Ga0 Si0 2.546689 1_555
Ga0 Si0 2.546689 1_445
Ga0 Ti0 2.665281 1_554
Ga0 Ti1 2.665282 1_455
Ga0 Ti3 2.665284 1_444
Ga0 Ti1 2.665284 1_555
Ga0 Ti3 2.665284 1_555
Ga0 Ti0 2.665284 1_544
Ga0 Ti2 2.665284 1_555
Ga0 Ti2 2.665284 1_554
Si0 Ti1 2.665281 1_555
Si0 Ti0 2.665282 1_654
Si0 Ti2 2.665284 1_665
Si0 Ti0 2.665284 1_554
Si0 Ti2 2.665284 1_554
Si0 Ti1 2.665284 1_565
Si0 Ti3 2.665284 1_554
Si0 Ti3 2.665284 1_555
H0 Ti3 1.897538 1_545
H0 Ti2 1.897538 1_555
H0 Ti0 1.897539 1_655
H0 Ti1 1.897543 1_555
H1 Ti2 1.897538 1_565
H1 Ti3 1.897538 1_555
H1 Ti1 1.897539 1_455
H1 Ti0 1.897543 1_555
