# generated using pymatgen
data_AsAu(SeF)6
_symmetry_space_group_name_H-M   'P 1'
_cell_length_a   7.04792496
_cell_length_b   8.66048452
_cell_length_c   11.14002276
_cell_angle_alpha   62.58857087
_cell_angle_beta   90.00000000
_cell_angle_gamma   90.00000000
_symmetry_Int_Tables_number   1
_chemical_formula_structural   AsAu(SeF)6
_chemical_formula_sum   'As2 Au2 Se12 F12'
_cell_volume   603.62509931
_cell_formula_units_Z   2
loop_
 _symmetry_equiv_pos_site_id
 _symmetry_equiv_pos_as_xyz
  1  'x, y, z'
loop_
 _atom_site_type_symbol
 _atom_site_label
 _atom_site_symmetry_multiplicity
 _atom_site_fract_x
 _atom_site_fract_y
 _atom_site_fract_z
 _atom_site_occupancy
  As  As0  1  0.00000000  0.00000000  0.00000000  1
  As  As1  1  0.00000000  0.00000000  0.50000000  1
  Au  Au0  1  0.72332354  0.50000000  0.75000000  1
  Au  Au1  1  0.27667646  0.50000000  0.25000000  1
  Se  Se0  1  0.25447013  0.66809398  0.37261020  1
  Se  Se1  1  0.76351597  0.54552929  0.39435546  1
  Se  Se2  1  0.23648403  0.54552929  0.89435546  1
  Se  Se3  1  0.23648403  0.45447071  0.60564454  1
  Se  Se4  1  0.74552987  0.66809398  0.87261020  1
  Se  Se5  1  0.74552987  0.33190602  0.62738980  1
  Se  Se6  1  0.25447013  0.33190602  0.12738980  1
  Se  Se7  1  0.57099534  0.77044527  0.37435636  1
  Se  Se8  1  0.42900466  0.77044527  0.87435636  1
  Se  Se9  1  0.42900466  0.22955473  0.62564364  1
  Se  Se10  1  0.57099534  0.22955473  0.12564364  1
  Se  Se11  1  0.76351597  0.45447071  0.10564454  1
  F  F0  1  0.90995541  0.92993728  0.38811820  1
  F  F1  1  0.90995541  0.07006272  0.11188180  1
  F  F2  1  0.09004459  0.07006272  0.61188180  1
  F  F3  1  0.09004459  0.92993728  0.88811820  1
  F  F4  1  0.07224852  0.78660535  0.60870585  1
  F  F5  1  0.07224852  0.21339465  0.89129415  1
  F  F6  1  0.92775148  0.21339465  0.39129415  1
  F  F7  1  0.92775148  0.78660535  0.10870585  1
  F  F8  1  0.21925459  0.04045366  0.41737726  1
  F  F9  1  0.21925459  0.95954634  0.08262274  1
  F  F10  1  0.78074541  0.95954634  0.58262274  1
  F  F11  1  0.78074541  0.04045366  0.91737726  1
loop_
_geom_bond_atom_site_label_1
_geom_bond_atom_site_label_2
_geom_bond_distance
_geom_bond_site_symmetry_2
As0 F1 1.738014 1_455
As0 F3 1.738014 1_544
As0 F9 1.749549 1_545
As0 F11 1.749549 1_454
As0 F5 1.755159 1_554
As0 F7 1.755159 1_445
As1 F2 1.738014 1_555
As1 F0 1.738014 1_445
As1 F8 1.749549 1_555
As1 F10 1.749549 1_445
As1 F6 1.755159 1_455
As1 F4 1.755159 1_545
Au0 Se4 2.416660 1_555
Au0 Se5 2.416660 1_555
Au1 Se0 2.416660 1_555
Au1 Se6 2.416660 1_555
Se0 Se3 2.399147 1_555
Se0 Se7 2.403883 1_555
Se1 Se7 2.298999 1_555
Se1 Se5 2.399147 1_555
Se2 Se8 2.298999 1_555
Se2 Se6 2.399147 1_556
Se3 Se9 2.298999 1_555
Se4 Se8 2.403883 1_555
Se5 Se9 2.403883 1_555
Se10 Se11 2.298999 1_555
Se10 Se6 2.403883 1_555
Se11 Se4 2.399147 1_554
