# generated using pymatgen
data_Cs16TiSnSb8
_symmetry_space_group_name_H-M   'P 1'
_cell_length_a   12.46347979
_cell_length_b   12.46347998
_cell_length_c   12.46347923
_cell_angle_alpha   60.00000199
_cell_angle_beta   60.00000149
_cell_angle_gamma   59.99999999
_symmetry_Int_Tables_number   1
_chemical_formula_structural   Cs16TiSnSb8
_chemical_formula_sum   'Cs16 Ti1 Sn1 Sb8'
_cell_volume   1368.99840533
_cell_formula_units_Z   1
loop_
 _symmetry_equiv_pos_site_id
 _symmetry_equiv_pos_as_xyz
  1  'x, y, z'
loop_
 _atom_site_type_symbol
 _atom_site_label
 _atom_site_symmetry_multiplicity
 _atom_site_fract_x
 _atom_site_fract_y
 _atom_site_fract_z
 _atom_site_occupancy
  Cs  Cs0  1  0.62353422  0.12939735  0.62353422  1
  Cs  Cs1  1  0.62353422  0.62353422  0.12939735  1
  Cs  Cs2  1  0.12939735  0.62353422  0.62353422  1
  Cs  Cs3  1  0.62353422  0.62353422  0.62353422  1
  Cs  Cs4  1  0.02135349  0.02135349  0.47864651  1
  Cs  Cs5  1  0.77580664  0.22419336  0.22419336  1
  Cs  Cs6  1  0.22419336  0.77580664  0.77580664  1
  Cs  Cs7  1  0.77580664  0.77580664  0.22419336  1
  Cs  Cs8  1  0.77580664  0.22419336  0.77580664  1
  Cs  Cs9  1  0.22419336  0.77580664  0.22419336  1
  Cs  Cs10  1  0.47864651  0.02135349  0.47864651  1
  Cs  Cs11  1  0.47864651  0.02135349  0.02135349  1
  Cs  Cs12  1  0.02135349  0.47864651  0.47864651  1
  Cs  Cs13  1  0.02135349  0.47864651  0.02135349  1
  Cs  Cs14  1  0.22419336  0.22419336  0.77580664  1
  Cs  Cs15  1  0.47864651  0.47864651  0.02135349  1
  Ti  Ti0  1  0.75000000  0.75000000  0.75000000  1
  Sn  Sn0  1  0.50000000  0.50000000  0.50000000  1
  Sb  Sb0  1  0.40268920  0.79193340  0.40268920  1
  Sb  Sb1  1  0.84180299  0.84180299  0.47459202  1
  Sb  Sb2  1  0.47459202  0.84180299  0.84180299  1
  Sb  Sb3  1  0.84180299  0.84180299  0.84180299  1
  Sb  Sb4  1  0.79193340  0.40268920  0.40268920  1
  Sb  Sb5  1  0.40268920  0.40268920  0.40268920  1
  Sb  Sb6  1  0.40268920  0.40268920  0.79193340  1
  Sb  Sb7  1  0.84180299  0.47459202  0.84180299  1
loop_
_geom_bond_atom_site_label_1
_geom_bond_atom_site_label_2
_geom_bond_distance
_geom_bond_site_symmetry_2
Cs0 Sn0 3.771397 1_555
Cs0 Ti0 3.860895 1_545
Cs0 Sb1 3.943036 1_545
Cs0 Sb2 3.943036 1_545
Cs0 Sb3 3.943043 1_545
Cs0 Sb5 3.947122 1_555
Cs0 Sb6 3.947129 1_555
Cs0 Sb4 3.947129 1_555
Cs1 Sn0 3.771397 1_555
Cs1 Ti0 3.860895 1_554
Cs1 Sb7 3.943036 1_554
Cs1 Sb2 3.943036 1_554
Cs1 Sb3 3.943043 1_554
Cs1 Sb5 3.947122 1_555
Cs1 Sb0 3.947129 1_555
Cs1 Sb4 3.947129 1_555
Cs2 Sn0 3.771397 1_555
Cs2 Ti0 3.860895 1_455
Cs2 Sb1 3.943036 1_455
Cs2 Sb7 3.943036 1_455
Cs2 Sb3 3.943043 1_455
Cs2 Sb5 3.947121 1_555
Cs2 Sb6 3.947129 1_555
Cs2 Sb0 3.947129 1_555
Cs3 Sn0 3.771397 1_555
Cs3 Ti0 3.860895 1_555
Cs3 Sb7 3.943046 1_555
Cs3 Sb2 3.943046 1_555
Cs3 Sb1 3.943046 1_555
Cs3 Sb0 3.947119 1_555
Cs3 Sb4 3.947119 1_555
Cs3 Sb6 3.947120 1_555
Cs4 Sb1 3.905418 1_445
Cs4 Sb3 3.905425 1_445
Cs4 Sb0 4.034682 1_545
Cs4 Sb4 4.034682 1_455
Cs5 Sb5 3.972686 1_555
Cs5 Sb4 3.972694 1_555
Cs5 Sb7 4.111369 1_554
Cs5 Sb1 4.111369 1_545
Cs6 Sb0 3.972683 1_555
Cs6 Sb6 3.972683 1_555
Cs6 Sb3 4.111366 1_455
Cs6 Sb2 4.111378 1_555
Cs7 Sb0 3.972683 1_555
Cs7 Sb4 3.972683 1_555
Cs7 Sb3 4.111366 1_554
Cs7 Sb1 4.111377 1_555
Cs8 Sb4 3.972683 1_555
Cs8 Sb6 3.972683 1_555
Cs8 Sb3 4.111366 1_545
Cs8 Sb7 4.111378 1_555
Cs9 Sb5 3.972686 1_555
Cs9 Sb0 3.972694 1_555
Cs9 Sb2 4.111369 1_554
Cs9 Sb1 4.111369 1_455
Cs10 Sb2 3.905429 1_545
Cs10 Sb1 3.905429 1_545
Cs10 Sb0 4.034673 1_545
Cs10 Sb5 4.034685 1_555
Cs11 Sb2 3.905418 1_544
Cs11 Sb3 3.905425 1_544
Cs11 Sb0 4.034682 1_545
Cs11 Sb6 4.034682 1_554
Cs12 Sb7 3.905429 1_455
Cs12 Sb1 3.905429 1_455
Cs12 Sb4 4.034673 1_455
Cs12 Sb5 4.034685 1_555
Cs13 Sb7 3.905418 1_454
Cs13 Sb3 3.905425 1_454
Cs13 Sb4 4.034682 1_455
Cs13 Sb6 4.034682 1_554
Cs14 Sb5 3.972686 1_555
Cs14 Sb6 3.972694 1_555
Cs14 Sb7 4.111369 1_455
Cs14 Sb2 4.111369 1_545
Cs15 Sb7 3.905429 1_554
Cs15 Sb2 3.905429 1_554
Cs15 Sb6 4.034673 1_554
Cs15 Sb5 4.034684 1_555
Sb0 Sn0 2.970828 1_555
Sb1 Ti0 2.802659 1_555
Sb2 Ti0 2.802659 1_555
Sb3 Ti0 2.802669 1_555
Sb4 Sn0 2.970828 1_555
Sb5 Sn0 2.970817 1_555
Sb6 Sn0 2.970828 1_555
Sb7 Ti0 2.802659 1_555
