# generated using pymatgen
data_Ba5Al3Ga2Bi
_symmetry_space_group_name_H-M   'P 1'
_cell_length_a   6.03819483
_cell_length_b   6.03817427
_cell_length_c   11.21781014
_cell_angle_alpha   90.00000000
_cell_angle_beta   90.00000000
_cell_angle_gamma   119.99967787
_symmetry_Int_Tables_number   1
_chemical_formula_structural   Ba5Al3Ga2Bi
_chemical_formula_sum   'Ba5 Al3 Ga2 Bi1'
_cell_volume   354.20353536
_cell_formula_units_Z   1
loop_
 _symmetry_equiv_pos_site_id
 _symmetry_equiv_pos_as_xyz
  1  'x, y, z'
loop_
 _atom_site_type_symbol
 _atom_site_label
 _atom_site_symmetry_multiplicity
 _atom_site_fract_x
 _atom_site_fract_y
 _atom_site_fract_z
 _atom_site_occupancy
  Ba  Ba0  1  0.99999837  0.99999900  0.67378257  1
  Ba  Ba1  1  0.66666866  0.33333234  0.78387697  1
  Ba  Ba2  1  0.66666866  0.33333234  0.21612303  1
  Ba  Ba3  1  0.33333386  0.66666529  0.00000000  1
  Ba  Ba4  1  0.99999837  0.99999900  0.32621743  1
  Al  Al0  1  0.50710276  0.49289676  0.50000000  1
  Al  Al1  1  0.98579538  0.49289954  0.50000000  1
  Al  Al2  1  0.50710263  0.01420931  0.50000000  1
  Ga  Ga0  1  0.33333411  0.66666689  0.67874729  1
  Ga  Ga1  1  0.33333411  0.66666689  0.32125271  1
  Bi  Bi0  1  0.99999607  0.99999964  0.00000000  1
loop_
_geom_bond_atom_site_label_1
_geom_bond_atom_site_label_2
_geom_bond_distance
_geom_bond_site_symmetry_2
Ba0 Ga0 3.486593 1_655
Ba0 Ga0 3.486597 1_555
Ba0 Ga0 3.486604 1_665
Ba0 Bi0 3.659445 1_556
Ba0 Ba1 3.698422 1_565
Ba0 Ba1 3.698450 1_555
Ba0 Ba1 3.698479 1_665
Ba0 Ba4 3.898920 1_555
Ba1 Ga0 3.680221 1_545
Ba1 Ga0 3.680228 1_555
Ba1 Ga0 3.680232 1_655
Ba1 Bi0 4.246268 1_546
Ba1 Ba3 4.246301 1_556
Ba1 Ba3 4.246307 1_546
Ba1 Bi0 4.246308 1_556
Ba1 Ba3 4.246309 1_656
Ba1 Bi0 4.246340 1_446
Ba1 Ba2 4.848854 1_556
Ba2 Ga1 3.680221 1_545
Ba2 Ga1 3.680228 1_555
Ba2 Ga1 3.680232 1_655
Ba2 Ba4 3.698422 1_545
Ba2 Ba4 3.698450 1_555
Ba2 Ba4 3.698479 1_445
Ba2 Bi0 4.246268 1_545
Ba2 Ba3 4.246301 1_555
Ba2 Ba3 4.246307 1_545
Ba2 Bi0 4.246308 1_555
Ba2 Ba3 4.246309 1_655
Ba2 Bi0 4.246340 1_445
Ba3 Bi0 3.486141 1_555
Ba3 Bi0 3.486148 1_445
Ba3 Bi0 3.486170 1_455
Ba3 Ga1 3.603752 1_555
Ba3 Ga0 3.603752 1_554
Ba4 Ga1 3.486593 1_655
Ba4 Ga1 3.486597 1_555
Ba4 Ga1 3.486604 1_665
Ba4 Bi0 3.659445 1_555
Al0 Ga0 2.706181 1_555
Al0 Ga1 2.706181 1_555
Al0 Al2 2.890398 1_555
Al0 Al1 2.890431 1_555
Al0 Ba0 3.594562 1_555
Al0 Ba4 3.594562 1_555
Al0 Ba0 3.594574 1_445
Al0 Ba4 3.594574 1_445
Al0 Ba2 3.595246 1_555
Al0 Ba1 3.595246 1_555
Al1 Ga0 2.706189 1_655
Al1 Ga1 2.706189 1_655
Al1 Al2 2.890442 1_555
Al1 Ba0 3.594541 1_555
Al1 Ba4 3.594541 1_555
Al1 Ba0 3.594561 1_545
Al1 Ba4 3.594561 1_545
Al1 Ba1 3.595242 1_555
Al1 Ba2 3.595242 1_555
Al2 Ga0 2.706198 1_545
Al2 Ga1 2.706198 1_545
Al2 Ba0 3.594556 1_445
Al2 Ba4 3.594556 1_445
Al2 Ba0 3.594564 1_545
Al2 Ba4 3.594564 1_545
Al2 Ba2 3.595231 1_555
Al2 Ba1 3.595231 1_555
