# generated using pymatgen
data_RbV(CuTe2)2
_symmetry_space_group_name_H-M   'P 1'
_cell_length_a   5.92708056
_cell_length_b   8.15746786
_cell_length_c   10.60327710
_cell_angle_alpha   90.00000000
_cell_angle_beta   106.22992763
_cell_angle_gamma   90.00000000
_symmetry_Int_Tables_number   1
_chemical_formula_structural   RbV(CuTe2)2
_chemical_formula_sum   'Rb2 V2 Cu4 Te8'
_cell_volume   492.23718290
_cell_formula_units_Z   2
loop_
 _symmetry_equiv_pos_site_id
 _symmetry_equiv_pos_as_xyz
  1  'x, y, z'
loop_
 _atom_site_type_symbol
 _atom_site_label
 _atom_site_symmetry_multiplicity
 _atom_site_fract_x
 _atom_site_fract_y
 _atom_site_fract_z
 _atom_site_occupancy
  Rb  Rb0  1  0.82531572  0.75000000  0.12631230  1
  Rb  Rb1  1  0.19900342  0.25000000  0.87368770  1
  V  V0  1  0.35304855  0.75000000  0.70564797  1
  V  V1  1  0.14740059  0.25000000  0.29435203  1
  Cu  Cu0  1  0.25950467  0.50000000  0.50000000  1
  Cu  Cu1  1  0.25950467  0.00000000  0.50000000  1
  Cu  Cu2  1  0.85370711  0.75000000  0.70807763  1
  Cu  Cu3  1  0.64562748  0.25000000  0.29192237  1
  Te  Te0  1  0.99753925  0.75000000  0.50151202  1
  Te  Te1  1  0.99602723  0.25000000  0.49848798  1
  Te  Te2  1  0.21573380  0.75000000  0.90910357  1
  Te  Te3  1  0.80663023  0.25000000  0.09089643  1
  Te  Te4  1  0.59984281  0.49602452  0.71120749  1
  Te  Te5  1  0.38863532  0.50397548  0.28879251  1
  Te  Te6  1  0.59984281  0.00397548  0.71120749  1
  Te  Te7  1  0.38863532  0.99602452  0.28879251  1
loop_
_geom_bond_atom_site_label_1
_geom_bond_atom_site_label_2
_geom_bond_distance
_geom_bond_site_symmetry_2
Rb0 Te2 3.693005 1_654
Rb0 Te2 3.702293 1_554
Rb0 Te0 3.820888 1_555
Rb0 Te7 3.863723 1_655
Rb0 Te5 3.863723 1_655
Rb0 Te7 4.023364 1_555
Rb0 Te5 4.023364 1_555
Rb0 Te3 4.094644 1_565
Rb0 Te3 4.094644 1_555
Rb1 Te3 3.693005 1_556
Rb1 Te3 3.702292 1_456
Rb1 Te1 3.820888 1_455
Rb1 Te4 3.863723 1_555
Rb1 Te6 3.863723 1_555
Rb1 Te4 4.023365 1_455
Rb1 Te6 4.023365 1_455
Rb1 Te2 4.094644 1_555
Rb1 Te2 4.094644 1_545
Cu0 Te5 2.561305 1_555
Cu0 Te4 2.561305 1_555
Cu0 Te0 2.565938 1_455
Cu0 Te1 2.565938 1_455
Cu0 V0 2.923249 1_555
Cu0 V1 2.923249 1_555
Cu1 Te7 2.561305 1_545
Cu1 Te6 2.561305 1_555
Cu1 Te0 2.565938 1_445
Cu1 Te1 2.565938 1_455
Cu1 V0 2.923249 1_545
Cu1 V1 2.923249 1_555
Cu2 Te0 2.562773 1_555
Cu2 Te6 2.566204 1_565
Cu2 Te4 2.566204 1_555
Cu2 Te2 2.567306 1_655
Cu2 V0 2.960347 1_555
Cu2 V0 2.966941 1_655
Cu3 Te1 2.562780 1_555
Cu3 Te5 2.566197 1_555
Cu3 Te7 2.566197 1_545
Cu3 Te3 2.567313 1_555
Cu3 V1 2.960335 1_555
Cu3 V1 2.966952 1_655
Te0 V0 2.564299 1_655
Te1 V1 2.564298 1_655
Te2 V0 2.509536 1_555
Te3 V1 2.509536 1_655
Te4 V0 2.527313 1_555
Te5 V1 2.527313 1_555
Te6 V0 2.527313 1_545
Te7 V1 2.527313 1_565
