# generated using pymatgen
data_LiNi20(SnP3)2
_symmetry_space_group_name_H-M   'P 1'
_cell_length_a   7.79691185
_cell_length_b   7.79691134
_cell_length_c   7.79691158
_cell_angle_alpha   60.00000316
_cell_angle_beta   60.00000533
_cell_angle_gamma   60.00000379
_symmetry_Int_Tables_number   1
_chemical_formula_structural   LiNi20(SnP3)2
_chemical_formula_sum   'Li1 Ni20 Sn2 P6'
_cell_volume   335.16053274
_cell_formula_units_Z   1
loop_
 _symmetry_equiv_pos_site_id
 _symmetry_equiv_pos_as_xyz
  1  'x, y, z'
loop_
 _atom_site_type_symbol
 _atom_site_label
 _atom_site_symmetry_multiplicity
 _atom_site_fract_x
 _atom_site_fract_y
 _atom_site_fract_z
 _atom_site_occupancy
  Li  Li0  1  0.00000000  0.00000000  0.00000000  1
  Ni  Ni0  1  0.38379968  0.38379968  0.84860295  1
  Ni  Ni1  1  0.61620132  0.61620132  0.61620032  1
  Ni  Ni2  1  1.00000000  0.34969774  1.00000000  1
  Ni  Ni3  1  0.34969774  1.00000000  1.00000000  1
  Ni  Ni4  1  0.00000000  0.34969774  0.65030226  1
  Ni  Ni5  1  0.84860295  0.38379968  0.38379868  1
  Ni  Ni6  1  0.34969774  1.00000000  0.65030226  1
  Ni  Ni7  1  1.00000000  1.00000000  0.34969774  1
  Ni  Ni8  1  0.65030226  0.34969774  0.00000000  1
  Ni  Ni9  1  1.00000000  0.65030226  0.34969774  1
  Ni  Ni10  1  0.00000000  0.00000000  0.65030226  1
  Ni  Ni11  1  0.34969774  0.65030226  1.00000000  1
  Ni  Ni12  1  0.65030226  0.00000000  0.00000000  1
  Ni  Ni13  1  0.00000000  0.65030226  0.00000000  1
  Ni  Ni14  1  0.38379968  0.84860395  0.38379968  1
  Ni  Ni15  1  0.61620032  0.61620132  0.15139605  1
  Ni  Ni16  1  0.61620032  0.15139705  0.61620032  1
  Ni  Ni17  1  0.15139705  0.61620132  0.61620132  1
  Ni  Ni18  1  0.38379868  0.38379968  0.38379868  1
  Ni  Ni19  1  0.65030226  0.00000000  0.34969774  1
  Sn  Sn0  1  0.25000000  0.25000000  0.25000000  1
  Sn  Sn1  1  0.75000000  0.75000000  0.75000000  1
  P  P0  1  0.26168081  0.26168081  0.73831919  1
  P  P1  1  0.73831919  0.73831919  0.26168081  1
  P  P2  1  0.73831919  0.26168081  0.26168081  1
  P  P3  1  0.26168081  0.73831919  0.73831919  1
  P  P4  1  0.26168081  0.73831919  0.26168081  1
  P  P5  1  0.73831919  0.26168081  0.73831919  1
loop_
_geom_bond_atom_site_label_1
_geom_bond_atom_site_label_2
_geom_bond_distance
_geom_bond_site_symmetry_2
Li0 Ni2 2.726562 1_454
Li0 Ni13 2.726562 1_545
Li0 Ni7 2.726562 1_445
Li0 Ni10 2.726562 1_554
Li0 Ni4 2.726562 1_554
Li0 Ni9 2.726562 1_445
Li0 Ni3 2.726562 1_544
Li0 Ni12 2.726562 1_455
Li0 Ni8 2.726562 1_455
Li0 Ni11 2.726562 1_544
Li0 Ni6 2.726563 1_544
Li0 Ni19 2.726563 1_455
Li0 P2 2.885423 1_455
Li0 P4 2.885423 1_545
Li0 P5 2.885423 1_454
Li0 P3 2.885423 1_544
Li0 P0 2.885423 1_554
Li0 P1 2.885423 1_445
Ni0 P3 2.257554 1_555
Ni0 P5 2.257554 1_555
Ni0 P0 2.257566 1_555
Ni0 Sn0 2.555355 1_556
Ni1 P1 2.257554 1_555
Ni1 P5 2.257560 1_555
Ni1 P3 2.257560 1_555
Ni1 Sn1 2.555354 1_555
Ni2 P0 2.152623 1_655
Ni2 P2 2.152623 1_556
Ni3 P0 2.152623 1_565
Ni3 P4 2.152623 1_556
Ni4 P0 2.152623 1_555
Ni4 P5 2.152623 1_455
Ni5 P1 2.257554 1_555
Ni5 P2 2.257560 1_555
Ni5 P5 2.257560 1_555
Ni5 Sn0 2.555355 1_655
Ni6 P0 2.152623 1_565
Ni6 P3 2.152623 1_555
Ni7 P2 2.152623 1_565
Ni7 P4 2.152623 1_655
Ni8 P5 2.152623 1_554
Ni8 P2 2.152623 1_555
Ni9 P1 2.152623 1_555
Ni9 P4 2.152623 1_655
Ni10 P3 2.152623 1_545
Ni10 P5 2.152623 1_455
Ni11 P4 2.152623 1_556
Ni11 P3 2.152623 1_555
Ni12 P1 2.152623 1_545
Ni12 P5 2.152623 1_554
Ni13 P1 2.152623 1_455
Ni13 P3 2.152623 1_554
Ni14 P3 2.257554 1_555
Ni14 P1 2.257554 1_555
Ni14 P4 2.257573 1_555
Ni14 Sn0 2.555348 1_565
Ni15 P4 2.257554 1_555
Ni15 P2 2.257560 1_555
Ni15 P1 2.257566 1_555
Ni15 Sn1 2.555348 1_554
Ni16 P2 2.257554 1_555
Ni16 P0 2.257554 1_555
Ni16 P5 2.257566 1_555
Ni16 Sn1 2.555354 1_545
Ni17 P3 2.257553 1_555
Ni17 P0 2.257560 1_555
Ni17 P4 2.257560 1_555
Ni17 Sn1 2.555355 1_455
Ni18 P4 2.257554 1_555
Ni18 P0 2.257560 1_555
Ni18 P2 2.257560 1_555
Ni18 Sn0 2.555354 1_555
Ni19 P1 2.152623 1_545
Ni19 P2 2.152623 1_555
