# generated using pymatgen
data_MgTc20(B3Mo)2
_symmetry_space_group_name_H-M   'P 1'
_cell_length_a   8.05181529
_cell_length_b   8.05181543
_cell_length_c   8.05181447
_cell_angle_alpha   59.99999993
_cell_angle_beta   59.99999933
_cell_angle_gamma   60.00000015
_symmetry_Int_Tables_number   1
_chemical_formula_structural   MgTc20(B3Mo)2
_chemical_formula_sum   'Mg1 Tc20 B6 Mo2'
_cell_volume   369.11897743
_cell_formula_units_Z   1
loop_
 _symmetry_equiv_pos_site_id
 _symmetry_equiv_pos_as_xyz
  1  'x, y, z'
loop_
 _atom_site_type_symbol
 _atom_site_label
 _atom_site_symmetry_multiplicity
 _atom_site_fract_x
 _atom_site_fract_y
 _atom_site_fract_z
 _atom_site_occupancy
  Mg  Mg0  1  0.00000000  0.00000000  0.00000000  1
  Tc  Tc0  1  0.61975989  0.61975989  0.14071833  1
  Tc  Tc1  1  0.61975989  0.14071833  0.61975989  1
  Tc  Tc2  1  0.14071833  0.61975989  0.61975989  1
  Tc  Tc3  1  0.61975989  0.61975989  0.61975989  1
  Tc  Tc4  1  0.38024011  0.38024011  0.85928167  1
  Tc  Tc5  1  0.38024011  0.85928167  0.38024011  1
  Tc  Tc6  1  0.85928167  0.38024011  0.38024011  1
  Tc  Tc7  1  0.38024011  0.38024011  0.38024011  1
  Tc  Tc8  1  1.00000000  1.00000000  0.34202284  1
  Tc  Tc9  1  0.65797716  1.00000000  0.34202284  1
  Tc  Tc10  1  1.00000000  0.65797716  0.34202284  1
  Tc  Tc11  1  0.65797716  0.34202284  0.00000000  1
  Tc  Tc12  1  1.00000000  0.34202284  0.00000000  1
  Tc  Tc13  1  0.00000000  0.34202284  0.65797716  1
  Tc  Tc14  1  0.34202284  0.65797716  1.00000000  1
  Tc  Tc15  1  0.34202284  0.00000000  0.65797716  1
  Tc  Tc16  1  0.34202284  1.00000000  0.00000000  1
  Tc  Tc17  1  0.00000000  0.00000000  0.65797716  1
  Tc  Tc18  1  0.00000000  0.65797716  1.00000000  1
  Tc  Tc19  1  0.65797716  0.00000000  1.00000000  1
  B  B0  1  0.72222474  0.72222474  0.27777526  1
  B  B1  1  0.27777526  0.72222474  0.27777526  1
  B  B2  1  0.72222474  0.27777526  0.27777526  1
  B  B3  1  0.27777526  0.27777526  0.72222474  1
  B  B4  1  0.72222474  0.27777526  0.72222474  1
  B  B5  1  0.27777526  0.72222474  0.72222474  1
  Mo  Mo0  1  0.75000000  0.75000000  0.75000000  1
  Mo  Mo1  1  0.25000000  0.25000000  0.25000000  1
loop_
_geom_bond_atom_site_label_1
_geom_bond_atom_site_label_2
_geom_bond_distance
_geom_bond_site_symmetry_2
Mg0 Tc17 2.753904 1_554
Mg0 Tc8 2.753904 1_445
Mg0 Tc9 2.753905 1_445
Mg0 Tc15 2.753905 1_554
Mg0 Tc10 2.753905 1_445
Mg0 Tc13 2.753905 1_554
Mg0 Tc16 2.753905 1_545
Mg0 Tc19 2.753905 1_454
Mg0 Tc14 2.753905 1_544
Mg0 Tc11 2.753905 1_455
Mg0 Tc12 2.753905 1_455
Mg0 Tc18 2.753905 1_544
Tc0 Tc14 2.806500 1_554
Tc0 Tc11 2.806500 1_555
Tc0 Tc12 2.806508 1_555
Tc0 Tc16 2.806508 1_555
Tc0 Tc18 2.806515 1_654
Tc0 Tc19 2.806515 1_564
Tc1 Tc9 2.806500 1_545
Tc1 Tc15 2.806500 1_555
Tc1 Tc16 2.806508 1_546
Tc1 Tc8 2.806508 1_545
Tc1 Tc19 2.806515 1_555
Tc1 Tc17 2.806515 1_655
Tc2 Tc8 2.806508 1_455
Tc3 Tc9 2.806512 1_555
Tc5 Tc9 2.806500 1_555
Tc5 Tc8 2.806515 1_455
Tc6 Tc8 2.806515 1_545
Tc7 Tc9 2.806512 1_545
Tc8 Tc9 2.753905 1_555
Tc10 Tc13 2.544006 1_655
Tc10 Tc18 2.753904 1_654
Tc10 Tc14 2.753905 1_654
Tc10 Tc9 2.753905 1_555
Tc10 Tc8 2.753905 1_555
Tc10 Tc2 2.806500 1_655
Tc10 Tc6 2.806500 1_555
Tc10 Tc3 2.806512 1_555
Tc10 Tc7 2.806512 1_655
Tc11 Tc14 2.544006 1_554
Tc11 Tc13 2.753905 1_654
Tc11 Tc9 2.753905 1_545
Tc11 Tc12 2.753905 1_555
Tc11 Tc19 2.753905 1_554
Tc11 Tc4 2.806500 1_554
Tc11 Tc7 2.806512 1_555
Tc11 Tc3 2.806512 1_554
Tc12 Tc18 2.544006 1_654
Tc12 Tc13 2.753904 1_654
Tc12 Tc8 2.753905 1_545
Tc12 Tc16 2.753905 1_645
Tc12 Tc2 2.806508 1_654
Tc12 Tc6 2.806515 1_555
Tc12 Tc4 2.806515 1_654
Tc13 Tc15 2.753905 1_555
Tc13 Tc17 2.753905 1_555
Tc13 Tc6 2.806500 1_455
Tc13 Tc2 2.806500 1_555
Tc13 Tc7 2.806512 1_555
Tc13 Tc3 2.806512 1_455
Tc14 Tc15 2.753905 1_565
Tc14 Tc18 2.753905 1_555
Tc14 Tc16 2.753905 1_556
Tc14 Tc4 2.806500 1_555
Tc14 Tc3 2.806512 1_555
Tc14 Tc7 2.806512 1_556
Tc15 Tc9 2.544006 1_545
Tc15 Tc16 2.753904 1_546
Tc15 Tc17 2.753905 1_555
Tc15 Tc5 2.806500 1_545
Tc15 Tc7 2.806512 1_555
Tc15 Tc3 2.806512 1_545
Tc16 Tc19 2.544006 1_564
Tc16 Tc8 2.753905 1_455
Tc16 Tc5 2.806515 1_555
Tc16 Tc4 2.806515 1_564
Tc17 Tc8 2.544006 1_445
Tc17 Tc19 2.753905 1_455
Tc17 Tc18 2.753905 1_545
Tc17 Tc5 2.806508 1_545
Tc17 Tc6 2.806508 1_455
Tc17 Tc2 2.806515 1_545
Tc18 Tc19 2.753905 1_465
Tc18 Tc6 2.806508 1_456
Tc18 Tc4 2.806508 1_555
Tc18 Tc2 2.806515 1_555
Tc19 Tc9 2.753904 1_546
Tc19 Tc5 2.806508 1_546
Tc19 Tc4 2.806508 1_555
B0 Tc3 2.254045 1_555
B0 Tc5 2.254046 1_555
B0 Tc6 2.254047 1_555
B0 Tc0 2.254059 1_555
B0 Tc18 2.295641 1_654
B0 Tc19 2.295641 1_564
B0 Tc10 2.295641 1_555
B0 Tc9 2.295641 1_555
B1 Tc7 2.254046 1_555
B1 Tc2 2.254046 1_555
B1 Tc0 2.254046 1_555
B1 Tc5 2.254059 1_555
B1 Tc14 2.295641 1_554
B1 Tc16 2.295641 1_555
B1 Tc8 2.295641 1_455
B1 Tc10 2.295641 1_455
B2 Tc7 2.254045 1_555
B2 Tc1 2.254046 1_555
B2 Tc0 2.254046 1_555
B2 Tc6 2.254059 1_555
B2 Tc11 2.295641 1_555
B2 Tc12 2.295641 1_555
B2 Tc8 2.295641 1_545
B2 Tc9 2.295641 1_545
B3 Tc7 2.254045 1_555
B3 Tc1 2.254046 1_555
B3 Tc2 2.254047 1_555
B3 Tc4 2.254059 1_555
B3 Tc12 2.295641 1_456
B3 Tc16 2.295641 1_546
B3 Tc13 2.295641 1_555
B3 Tc15 2.295641 1_555
B4 Tc3 2.254046 1_555
B4 Tc6 2.254046 1_555
B4 Tc4 2.254046 1_555
B4 Tc1 2.254059 1_555
B4 Tc11 2.295641 1_556
B4 Tc19 2.295641 1_555
B4 Tc17 2.295641 1_655
B4 Tc13 2.295641 1_655
B5 Tc3 2.254045 1_555
B5 Tc5 2.254046 1_555
B5 Tc4 2.254046 1_555
B5 Tc2 2.254059 1_555
B5 Tc14 2.295641 1_555
B5 Tc18 2.295641 1_555
B5 Tc17 2.295641 1_565
B5 Tc15 2.295641 1_565
Mo0 Tc0 2.568691 1_556
Mo0 Tc2 2.568692 1_655
Mo0 Tc1 2.568692 1_565
Mo0 Tc3 2.568705 1_555
Mo0 Tc10 3.118005 1_555
Mo0 Tc9 3.118005 1_555
Mo0 Tc18 3.118005 1_655
Mo0 Tc8 3.118005 1_555
Mo0 Tc19 3.118005 1_565
Mo0 Tc16 3.118005 1_556
Mo0 Tc12 3.118005 1_556
Mo0 Tc15 3.118005 1_565
Mo0 Tc14 3.118005 1_555
Mo0 Tc13 3.118005 1_655
Mo0 Tc11 3.118005 1_556
Mo0 Tc17 3.118005 1_665
Mo1 Tc4 2.568691 1_554
Mo1 Tc6 2.568692 1_455
Mo1 Tc5 2.568692 1_545
Mo1 Tc7 2.568705 1_555
Mo1 Tc13 3.118005 1_555
Mo1 Tc15 3.118005 1_555
Mo1 Tc12 3.118005 1_455
Mo1 Tc17 3.118005 1_555
Mo1 Tc16 3.118005 1_545
Mo1 Tc19 3.118005 1_554
Mo1 Tc18 3.118005 1_554
Mo1 Tc9 3.118005 1_545
Mo1 Tc11 3.118005 1_555
Mo1 Tc10 3.118005 1_455
Mo1 Tc14 3.118005 1_554
Mo1 Tc8 3.118005 1_445
