# generated using pymatgen
data_Sr3Sc2TcO9
_symmetry_space_group_name_H-M   'P 1'
_cell_length_a   9.82554991
_cell_length_b   9.82554999
_cell_length_c   5.63633202
_cell_angle_alpha   73.14146921
_cell_angle_beta   73.14146433
_cell_angle_gamma   49.06171352
_symmetry_Int_Tables_number   1
_chemical_formula_structural   Sr3Sc2TcO9
_chemical_formula_sum   'Sr6 Sc4 Tc2 O18'
_cell_volume   389.60601322
_cell_formula_units_Z   2
loop_
 _symmetry_equiv_pos_site_id
 _symmetry_equiv_pos_as_xyz
  1  'x, y, z'
loop_
 _atom_site_type_symbol
 _atom_site_label
 _atom_site_symmetry_multiplicity
 _atom_site_fract_x
 _atom_site_fract_y
 _atom_site_fract_z
 _atom_site_occupancy
  Sr  Sr0  1  0.91707102  0.40552476  0.84422136  1
  Sr  Sr1  1  0.23960576  0.76039424  0.50000000  1
  Sr  Sr2  1  0.59447524  0.08292898  0.15577864  1
  Sr  Sr3  1  0.76039424  0.23960576  0.50000000  1
  Sr  Sr4  1  0.08292898  0.59447524  0.15577864  1
  Sr  Sr5  1  0.40552476  0.91707102  0.84422136  1
  Sc  Sc0  1  0.50000000  0.50000000  0.00000000  1
  Sc  Sc1  1  0.83382550  0.83382550  0.66112028  1
  Sc  Sc2  1  0.16617450  0.16617450  0.33887972  1
  Sc  Sc3  1  0.00000000  0.00000000  0.00000000  1
  Tc  Tc0  1  0.33262146  0.33262146  0.66469993  1
  Tc  Tc1  1  0.66737854  0.66737854  0.33530007  1
  O  O0  1  0.43218323  0.90752812  0.33015637  1
  O  O1  1  0.74577801  0.25422199  0.00000000  1
  O  O2  1  0.09247188  0.56781677  0.66984363  1
  O  O3  1  0.90752812  0.43218323  0.33015637  1
  O  O4  1  0.25422199  0.74577801  1.00000000  1
  O  O5  1  0.56781677  0.09247188  0.66984363  1
  O  O6  1  0.07132338  0.07132338  0.22913552  1
  O  O7  1  0.39846043  0.39846043  0.87721985  1
  O  O8  1  0.72718750  0.72718750  0.55712517  1
  O  O9  1  0.60153957  0.60153957  0.12278015  1
  O  O10  1  0.92867662  0.92867662  0.77086448  1
  O  O11  1  0.27281250  0.27281250  0.44287483  1
  O  O12  1  0.57355938  0.57355938  0.61602360  1
  O  O13  1  0.89562559  0.89562559  0.30257183  1
  O  O14  1  0.24234883  0.24234883  0.95070047  1
  O  O15  1  0.10437441  0.10437441  0.69742817  1
  O  O16  1  0.42644062  0.42644062  0.38397640  1
  O  O17  1  0.75765117  0.75765117  0.04929953  1
loop_
_geom_bond_atom_site_label_1
_geom_bond_atom_site_label_2
_geom_bond_distance
_geom_bond_site_symmetry_2
O0 Tc1 1.939635 1_555
O0 Sc2 2.141374 1_565
O0 Sr5 2.795335 1_554
O0 Sr5 2.856179 1_555
O0 Sr2 2.861616 1_565
O0 Sr1 2.884128 1_555
O1 Sc0 2.005255 1_555
O1 Sc3 2.074148 1_655
O1 Sr0 2.734662 1_554
O1 Sr2 2.734662 1_555
O1 Sr3 2.820688 1_554
O1 Sr3 2.820688 1_555
O2 Tc0 1.939635 1_555
O2 Sc1 2.141374 1_455
O2 Sr4 2.795335 1_556
O2 Sr4 2.856179 1_555
O2 Sr0 2.861616 1_455
O2 Sr1 2.884128 1_555
O3 Tc1 1.939635 1_555
O3 Sc2 2.141374 1_655
O3 Sr0 2.795335 1_554
O3 Sr0 2.856179 1_555
O3 Sr4 2.861616 1_655
O3 Sr3 2.884128 1_555
O4 Sc0 2.005255 1_556
O4 Sc3 2.074148 1_566
O4 Sr4 2.734662 1_556
O4 Sr5 2.734662 1_555
O4 Sr1 2.820688 1_556
O4 Sr1 2.820688 1_555
O5 Tc0 1.939635 1_555
O5 Sc1 2.141374 1_545
O5 Sr2 2.795335 1_556
O5 Sr2 2.856179 1_555
O5 Sr5 2.861616 1_545
O5 Sr3 2.884128 1_555
O6 Sc2 1.981588 1_555
O6 Sc3 2.084142 1_555
O6 Sr3 2.556772 1_455
O6 Sr1 2.556772 1_545
O6 Sr5 3.006592 1_544
O6 Sr0 3.006593 1_454
O7 Tc0 1.928494 1_555
O7 Sc0 2.138922 1_556
O7 Sr4 2.625207 1_556
O7 Sr2 2.625207 1_556
O7 Sr3 3.141411 1_555
O7 Sr1 3.141411 1_555
O8 Tc1 1.886469 1_555
O8 Sc1 2.165732 1_555
O8 Sr5 2.673103 1_555
O8 Sr0 2.673104 1_555
O8 Sr4 3.191673 1_655
O8 Sr2 3.191673 1_565
O9 Tc1 1.928494 1_555
O9 Sc0 2.138922 1_555
O9 Sr0 2.625207 1_554
O9 Sr5 2.625207 1_554
O9 Sr1 3.141411 1_555
O9 Sr3 3.141411 1_555
O10 Sc1 1.981588 1_555
O10 Sc3 2.084142 1_666
O10 Sr1 2.556772 1_655
O10 Sr3 2.556772 1_565
O10 Sr2 3.006592 1_566
O10 Sr4 3.006593 1_656
O11 Tc0 1.886469 1_555
O11 Sc2 2.165732 1_555
O11 Sr2 2.673103 1_555
O11 Sr4 2.673104 1_555
O11 Sr0 3.191673 1_455
O11 Sr5 3.191673 1_545
O12 Tc1 1.903854 1_555
O12 Sc0 2.144444 1_556
O12 Sr3 2.686785 1_555
O12 Sr1 2.686785 1_555
O12 Sr5 3.123396 1_555
O12 Sr0 3.123396 1_555
O13 Sc1 1.970062 1_555
O13 Sc3 2.088362 1_665
O13 Sr4 2.495478 1_655
O13 Sr2 2.495478 1_565
O13 Sr3 3.140928 1_565
O13 Sr1 3.140928 1_655
O14 Tc0 1.882648 1_555
O14 Sc2 2.177568 1_556
O14 Sr5 2.642839 1_545
O14 Sr0 2.642839 1_455
O14 Sr4 3.150780 1_556
O14 Sr2 3.150780 1_556
O15 Sc2 1.970062 1_555
O15 Sc3 2.088362 1_556
O15 Sr0 2.495478 1_455
O15 Sr5 2.495478 1_545
O15 Sr1 3.140928 1_545
O15 Sr3 3.140928 1_455
O16 Tc0 1.903854 1_555
O16 Sc0 2.144444 1_555
O16 Sr1 2.686785 1_555
O16 Sr3 2.686785 1_555
O16 Sr2 3.123396 1_555
O16 Sr4 3.123396 1_555
O17 Tc1 1.882648 1_555
O17 Sc1 2.177568 1_554
O17 Sr2 2.642839 1_565
O17 Sr4 2.642839 1_655
O17 Sr0 3.150780 1_554
O17 Sr5 3.150780 1_554
