# generated using pymatgen
data_NaTiCrS4
_symmetry_space_group_name_H-M   'P 1'
_cell_length_a   3.49391284
_cell_length_b   5.95329016
_cell_length_c   6.81682500
_cell_angle_alpha   90.66660171
_cell_angle_beta   90.00000000
_cell_angle_gamma   90.00000000
_symmetry_Int_Tables_number   1
_chemical_formula_structural   NaTiCrS4
_chemical_formula_sum   'Na1 Ti1 Cr1 S4'
_cell_volume   141.78225165
_cell_formula_units_Z   1
loop_
 _symmetry_equiv_pos_site_id
 _symmetry_equiv_pos_as_xyz
  1  'x, y, z'
loop_
 _atom_site_type_symbol
 _atom_site_label
 _atom_site_symmetry_multiplicity
 _atom_site_fract_x
 _atom_site_fract_y
 _atom_site_fract_z
 _atom_site_occupancy
  Na  Na0  1  0.00000000  0.00000000  0.50000000  1
  Ti  Ti0  1  0.50000000  0.50000000  0.00000000  1
  Cr  Cr0  1  0.00000000  0.00000000  0.00000000  1
  S  S0  1  0.00000000  0.33657792  0.20163438  1
  S  S1  1  0.50000000  0.83960590  0.20022798  1
  S  S2  1  0.50000000  0.16039410  0.79977202  1
  S  S3  1  0.00000000  0.66342208  0.79836562  1
loop_
_geom_bond_atom_site_label_1
_geom_bond_atom_site_label_2
_geom_bond_distance
_geom_bond_site_symmetry_2
Na0 S2 2.845013 1_455
Na0 S2 2.845013 1_555
Na0 S1 2.845013 1_445
Na0 S1 2.845013 1_545
Na0 S0 2.871690 1_555
Na0 S3 2.871690 1_545
Cr0 S0 2.416647 1_555
Cr0 S3 2.416647 1_544
Cr0 S2 2.420117 1_454
Cr0 S2 2.420117 1_554
Cr0 S1 2.420117 1_445
Cr0 S1 2.420117 1_545
S0 Ti0 2.432853 1_555
S0 Ti0 2.432853 1_455
S1 Ti0 2.426182 1_555
S2 Ti0 2.426182 1_556
S3 Ti0 2.432853 1_456
S3 Ti0 2.432853 1_556
