# generated using pymatgen
data_Sr4Te3IrO16
_symmetry_space_group_name_H-M   'P 1'
_cell_length_a   5.04496243
_cell_length_b   5.60587003
_cell_length_c   13.05974087
_cell_angle_alpha   90.00000000
_cell_angle_beta   90.00000000
_cell_angle_gamma   89.71845460
_symmetry_Int_Tables_number   1
_chemical_formula_structural   Sr4Te3IrO16
_chemical_formula_sum   'Sr4 Te3 Ir1 O16'
_cell_volume   369.34334483
_cell_formula_units_Z   1
loop_
 _symmetry_equiv_pos_site_id
 _symmetry_equiv_pos_as_xyz
  1  'x, y, z'
loop_
 _atom_site_type_symbol
 _atom_site_label
 _atom_site_symmetry_multiplicity
 _atom_site_fract_x
 _atom_site_fract_y
 _atom_site_fract_z
 _atom_site_occupancy
  Sr  Sr0  1  0.75000000  0.00000000  0.66387478  1
  Sr  Sr1  1  0.25000000  0.50000000  0.83192230  1
  Sr  Sr2  1  0.25000000  0.00000000  0.33751960  1
  Sr  Sr3  1  0.75000000  0.50000000  0.16420448  1
  Te  Te0  1  0.25000000  0.00000000  0.07101939  1
  Te  Te1  1  0.25000000  0.50000000  0.56829113  1
  Te  Te2  1  0.75000000  0.00000000  0.93100186  1
  Ir  Ir0  1  0.75000000  0.50000000  0.43086830  1
  O  O0  1  0.12735115  0.28767043  0.66604159  1
  O  O1  1  0.63039569  0.21449583  0.83422871  1
  O  O2  1  0.86960431  0.78550417  0.83422871  1
  O  O3  1  0.37264885  0.71232957  0.66604159  1
  O  O4  1  0.87157939  0.70982104  0.33182417  1
  O  O5  1  0.36970260  0.78648513  0.16919528  1
  O  O6  1  0.13029740  0.21351487  0.16919528  1
  O  O7  1  0.62842061  0.29017896  0.33182417  1
  O  O8  1  0.56793324  0.31068282  0.54180198  1
  O  O9  1  0.07076494  0.18749448  0.95936651  1
  O  O10  1  0.42923506  0.81250552  0.95936651  1
  O  O11  1  0.93206676  0.68931718  0.54180198  1
  O  O12  1  0.42370964  0.68595453  0.45411837  1
  O  O13  1  0.92907818  0.81387864  0.04407347  1
  O  O14  1  0.57092182  0.18612136  0.04407347  1
  O  O15  1  0.07629036  0.31404547  0.45411837  1
loop_
_geom_bond_atom_site_label_1
_geom_bond_atom_site_label_2
_geom_bond_distance
_geom_bond_site_symmetry_2
Ir0 O4 1.854707 1_555
Ir0 O7 1.854707 1_555
Ir0 O15 1.967671 1_655
Ir0 O12 1.967671 1_555
Ir0 O11 2.019532 1_555
Ir0 O8 2.019532 1_555
O0 Te1 1.853805 1_555
O0 Sr0 2.501149 1_455
O0 Sr1 2.549511 1_555
O1 Te2 1.843932 1_555
O1 Sr1 2.493029 1_555
O1 Sr0 2.598548 1_555
O2 Te2 1.843932 1_565
O2 Sr1 2.493029 1_655
O2 Sr0 2.598548 1_565
O3 Te1 1.853805 1_555
O3 Sr0 2.501149 1_565
O3 Sr1 2.549511 1_555
O4 Sr2 2.515344 1_665
O4 Sr3 2.561025 1_555
O5 Te0 1.853147 1_565
O5 Sr3 2.496832 1_555
O5 Sr2 2.573450 1_565
O6 Te0 1.853147 1_555
O6 Sr3 2.496832 1_455
O6 Sr2 2.573450 1_555
O7 Sr2 2.515344 1_555
O7 Sr3 2.561025 1_555
O8 Te1 1.949864 1_555
O8 Sr0 2.530394 1_555
O9 Te2 1.969114 1_455
O9 Te0 2.009794 1_556
O9 Sr1 2.583104 1_555
O10 Te2 1.969114 1_565
O10 Te0 2.009794 1_566
O10 Sr1 2.583104 1_555
O11 Te1 1.949864 1_655
O11 Sr0 2.530394 1_565
O12 Te1 2.021617 1_555
O12 Sr2 2.484142 1_565
O13 Te0 1.962231 1_665
O13 Te2 2.018953 1_564
O13 Sr3 2.527702 1_555
O14 Te0 1.962231 1_555
O14 Te2 2.018953 1_554
O14 Sr3 2.527702 1_555
O15 Te1 2.021617 1_555
O15 Sr2 2.484142 1_555
