# generated using pymatgen
data_Cd4CuOs3O14
_symmetry_space_group_name_H-M   'P 1'
_cell_length_a   7.24797963
_cell_length_b   7.10921093
_cell_length_c   7.24797942
_cell_angle_alpha   59.35217070
_cell_angle_beta   60.00000096
_cell_angle_gamma   59.35217550
_symmetry_Int_Tables_number   1
_chemical_formula_structural   Cd4CuOs3O14
_chemical_formula_sum   'Cd4 Cu1 Os3 O14'
_cell_volume   261.46743950
_cell_formula_units_Z   1
loop_
 _symmetry_equiv_pos_site_id
 _symmetry_equiv_pos_as_xyz
  1  'x, y, z'
loop_
 _atom_site_type_symbol
 _atom_site_label
 _atom_site_symmetry_multiplicity
 _atom_site_fract_x
 _atom_site_fract_y
 _atom_site_fract_z
 _atom_site_occupancy
  Cd  Cd0  1  0.12500000  0.12500000  0.12500000  1
  Cd  Cd1  1  0.62500000  0.12500000  0.12500000  1
  Cd  Cd2  1  0.12500000  0.62500000  0.12500000  1
  Cd  Cd3  1  0.12500000  0.12500000  0.62500000  1
  Cu  Cu0  1  0.62500000  0.12500000  0.62500000  1
  Os  Os0  1  0.62500000  0.62500000  0.62500000  1
  Os  Os1  1  0.12500000  0.62500000  0.62500000  1
  Os  Os2  1  0.62500000  0.62500000  0.12500000  1
  O  O0  1  0.25229403  0.24311891  0.25229403  1
  O  O1  1  0.99770597  0.00688109  0.99770597  1
  O  O2  1  0.55270772  0.93958910  0.55270772  1
  O  O3  1  0.30494061  0.68808215  0.30494061  1
  O  O4  1  0.54796338  0.56191785  0.94505939  1
  O  O5  1  0.94505939  0.56191785  0.54796338  1
  O  O6  1  0.55270772  0.93958910  0.95499446  1
  O  O7  1  0.95499446  0.93958910  0.55270772  1
  O  O8  1  0.94505939  0.56191785  0.94505939  1
  O  O9  1  0.69729228  0.31041090  0.29500554  1
  O  O10  1  0.30494061  0.68808215  0.70203662  1
  O  O11  1  0.69729228  0.31041090  0.69729228  1
  O  O12  1  0.29500554  0.31041090  0.69729228  1
  O  O13  1  0.70203662  0.68808215  0.30494061  1
loop_
_geom_bond_atom_site_label_1
_geom_bond_atom_site_label_2
_geom_bond_distance
_geom_bond_site_symmetry_2
Cd0 O1 2.199686 1_454
Cd0 O0 2.199686 1_555
Cd0 O8 2.547691 1_454
Cd0 O3 2.547691 1_545
Cd0 O12 2.556552 1_554
Cd0 O7 2.556552 1_445
Cd0 O6 2.556552 1_544
Cd0 O9 2.556552 1_455
Cd1 O1 2.199680 1_554
Cd1 O0 2.199680 1_555
Cd1 O4 2.547691 1_554
Cd1 O13 2.547691 1_545
Cd1 O2 2.556551 1_545
Cd1 O11 2.556551 1_554
Cd1 O9 2.556557 1_555
Cd1 O6 2.556557 1_544
Cd2 O1 2.194731 1_464
Cd2 O0 2.194731 1_555
Cd2 O3 2.548841 1_555
Cd2 O8 2.548841 1_454
Cd2 O5 2.548841 1_455
Cd2 O10 2.548841 1_554
Cd2 O4 2.548841 1_554
Cd2 O13 2.548841 1_455
Cd3 O0 2.199680 1_555
Cd3 O1 2.199680 1_455
Cd3 O5 2.547691 1_455
Cd3 O10 2.547691 1_545
Cd3 O2 2.556551 1_545
Cd3 O11 2.556551 1_455
Cd3 O12 2.556557 1_555
Cd3 O7 2.556557 1_445
Cu0 O6 1.992326 1_545
Cu0 O9 1.992326 1_555
Cu0 O7 1.992326 1_545
Cu0 O12 1.992326 1_555
Cu0 O11 1.992331 1_555
Cu0 O2 1.992331 1_545
O2 Os0 1.853653 1_555
O3 Os1 1.947730 1_555
O3 Os2 1.947731 1_555
O4 Os2 1.947730 1_556
O4 Os0 1.947730 1_555
O5 Os1 1.947730 1_655
O5 Os0 1.947731 1_555
O6 Os2 1.853654 1_556
O7 Os1 1.853654 1_655
O8 Os1 1.947730 1_655
O8 Os2 1.947731 1_556
O9 Os2 1.853654 1_555
O10 Os1 1.947730 1_555
O10 Os0 1.947731 1_555
O11 Os0 1.853653 1_555
O12 Os1 1.853654 1_555
O13 Os2 1.947730 1_555
O13 Os0 1.947730 1_555
