# generated using pymatgen
data_Ba4LiCr3N8
_symmetry_space_group_name_H-M   'P 1'
_cell_length_a   6.40689326
_cell_length_b   6.40689259
_cell_length_c   7.78550430
_cell_angle_alpha   92.35858895
_cell_angle_beta   87.64141294
_cell_angle_gamma   125.69855467
_symmetry_Int_Tables_number   1
_chemical_formula_structural   Ba4LiCr3N8
_chemical_formula_sum   'Ba4 Li1 Cr3 N8'
_cell_volume   259.25388211
_cell_formula_units_Z   1
loop_
 _symmetry_equiv_pos_site_id
 _symmetry_equiv_pos_as_xyz
  1  'x, y, z'
loop_
 _atom_site_type_symbol
 _atom_site_label
 _atom_site_symmetry_multiplicity
 _atom_site_fract_x
 _atom_site_fract_y
 _atom_site_fract_z
 _atom_site_occupancy
  Ba  Ba0  1  0.81965202  0.18034798  0.57343682  1
  Ba  Ba1  1  0.14933241  0.85066759  0.43773056  1
  Ba  Ba2  1  0.66322073  0.33677927  0.04967508  1
  Ba  Ba3  1  0.34387855  0.65612145  0.93023648  1
  Li  Li0  1  0.54871527  0.45128473  0.64725957  1
  Cr  Cr0  1  0.44943908  0.55056092  0.37277654  1
  Cr  Cr1  1  0.94906596  0.05093404  0.13855831  1
  Cr  Cr2  1  0.06068374  0.93931626  0.85963044  1
  N  N0  1  0.89683629  0.10316371  0.91457408  1
  N  N1  1  0.10679073  0.89320927  0.08750634  1
  N  N2  1  0.59624810  0.40375190  0.39472951  1
  N  N3  1  0.37894012  0.62105988  0.56927481  1
  N  N4  1  0.35166729  0.12157856  0.76006392  1
  N  N5  1  0.15035066  0.34324538  0.25224282  1
  N  N6  1  0.65675462  0.84964934  0.25224282  1
  N  N7  1  0.87842144  0.64833271  0.76006392  1
loop_
_geom_bond_atom_site_label_1
_geom_bond_atom_site_label_2
_geom_bond_distance
_geom_bond_site_symmetry_2
Ba0 N0 2.836303 1_555
Ba0 N2 2.958361 1_555
Ba0 N3 3.000645 1_545
Ba0 N3 3.000645 1_655
Ba0 N6 3.004948 1_545
Ba0 N5 3.004948 1_655
Ba0 N7 3.100295 1_555
Ba0 N4 3.100295 1_555
Ba1 N1 2.791479 1_555
Ba1 N3 2.854910 1_555
Ba1 N4 2.876493 1_565
Ba1 N7 2.876494 1_455
Ba1 N2 3.007497 1_565
Ba1 N2 3.007497 1_455
Ba2 N2 2.758662 1_555
Ba2 N4 2.805718 1_554
Ba2 N7 2.805718 1_554
Ba2 N0 2.818189 1_554
Ba2 N1 3.005174 1_655
Ba2 N1 3.005174 1_545
Ba3 N3 2.820196 1_555
Ba3 N1 2.915566 1_556
Ba3 N0 2.986725 1_455
Ba3 N0 2.986726 1_565
Ba3 N5 3.016245 1_556
Ba3 N6 3.016245 1_556
Li0 N4 1.943314 1_555
Li0 N7 1.943314 1_555
Li0 N2 2.015095 1_555
Li0 N3 2.055349 1_555
Cr0 N2 1.690439 1_555
Cr0 N3 1.694927 1_555
Cr0 N6 1.841691 1_555
Cr0 N5 1.841691 1_555
Cr1 N5 1.758628 1_655
Cr1 N6 1.758629 1_545
Cr1 N1 1.823712 1_645
Cr1 N0 1.868593 1_554
Cr2 N7 1.689679 1_455
Cr2 N4 1.689679 1_565
Cr2 N1 1.873544 1_556
Cr2 N0 1.897125 1_465
