# generated using pymatgen
data_Sr20GeBi8As3
_symmetry_space_group_name_H-M   'P 1'
_cell_length_a   8.74542252
_cell_length_b   9.98718048
_cell_length_c   13.47421131
_cell_angle_alpha   90.00000000
_cell_angle_beta   90.64311372
_cell_angle_gamma   90.00000000
_symmetry_Int_Tables_number   1
_chemical_formula_structural   Sr20GeBi8As3
_chemical_formula_sum   'Sr20 Ge1 Bi8 As3'
_cell_volume   1176.79195284
_cell_formula_units_Z   1
loop_
 _symmetry_equiv_pos_site_id
 _symmetry_equiv_pos_as_xyz
  1  'x, y, z'
loop_
 _atom_site_type_symbol
 _atom_site_label
 _atom_site_symmetry_multiplicity
 _atom_site_fract_x
 _atom_site_fract_y
 _atom_site_fract_z
 _atom_site_occupancy
  Sr  Sr0  1  0.81717505  0.53573774  0.07571966  1
  Sr  Sr1  1  0.67883683  0.97049692  0.57426893  1
  Sr  Sr2  1  0.18316178  0.03578249  0.92667019  1
  Sr  Sr3  1  0.32001337  0.46443011  0.42301709  1
  Sr  Sr4  1  0.18316178  0.46421751  0.92667019  1
  Sr  Sr5  1  0.32001337  0.03556989  0.42301709  1
  Sr  Sr6  1  0.81717505  0.96426226  0.07571966  1
  Sr  Sr7  1  0.67883683  0.52950308  0.57426893  1
  Sr  Sr8  1  0.17105318  0.75000000  0.21518731  1
  Sr  Sr9  1  0.33433979  0.75000000  0.71267939  1
  Sr  Sr10  1  0.83192977  0.25000000  0.78745060  1
  Sr  Sr11  1  0.66577298  0.25000000  0.28612300  1
  Sr  Sr12  1  0.45619739  0.75000000  0.00176937  1
  Sr  Sr13  1  0.05713290  0.75000000  0.49863902  1
  Sr  Sr14  1  0.54474357  0.25000000  0.99616945  1
  Sr  Sr15  1  0.95779067  0.25000000  0.49762304  1
  Sr  Sr16  1  0.63870635  0.75000000  0.29706910  1
  Sr  Sr17  1  0.85947361  0.75000000  0.80673513  1
  Sr  Sr18  1  0.35639134  0.25000000  0.70017659  1
  Sr  Sr19  1  0.13872300  0.25000000  0.20166983  1
  Ge  Ge0  1  0.43883692  0.75000000  0.48914652  1
  Bi  Bi0  1  0.93488415  0.50992439  0.32830250  1
  Bi  Bi1  1  0.56554201  0.98993689  0.82852204  1
  Bi  Bi2  1  0.05566327  0.00526510  0.67239981  1
  Bi  Bi3  1  0.43278251  0.48739846  0.16794882  1
  Bi  Bi4  1  0.05566327  0.49473490  0.67239981  1
  Bi  Bi5  1  0.43278251  0.01260154  0.16794882  1
  Bi  Bi6  1  0.93488415  0.99007561  0.32830250  1
  Bi  Bi7  1  0.56554201  0.51006311  0.82852204  1
  As  As0  1  0.07346821  0.75000000  0.98931257  1
  As  As1  1  0.57192646  0.25000000  0.51328885  1
  As  As2  1  0.92739693  0.25000000  0.01326517  1
loop_
_geom_bond_atom_site_label_1
_geom_bond_atom_site_label_2
_geom_bond_distance
_geom_bond_site_symmetry_2
Ge0 Sr16 3.139279 1_555
Ge0 Sr9 3.157320 1_555
Ge0 Sr5 3.160245 1_565
Ge0 Sr3 3.160245 1_555
Ge0 Sr1 3.242882 1_555
Ge0 Sr7 3.242882 1_555
Ge0 Sr13 3.342047 1_555
Bi0 Sr15 3.460302 1_555
Bi0 Sr13 3.479153 1_655
Bi0 Sr8 3.522555 1_655
Bi0 Sr11 3.545512 1_555
Bi0 Sr16 3.551146 1_555
Bi0 Sr0 3.553918 1_555
Bi0 Sr19 3.591139 1_655
Bi0 Sr3 3.617024 1_655
Bi0 Sr7 4.025293 1_555
Bi1 Sr14 3.448328 1_565
Bi1 Sr12 3.486554 1_556
Bi1 Sr9 3.492287 1_555
Bi1 Sr17 3.528895 1_555
Bi1 Sr10 3.536740 1_565
Bi1 Sr1 3.582194 1_555
Bi1 Sr18 3.607112 1_565
Bi1 Sr2 3.638776 1_565
Bi1 Sr6 3.979723 1_556
Bi2 Sr13 3.461475 1_545
Bi2 Sr15 3.493920 1_455
Bi2 Sr10 3.503412 1_455
Bi2 Sr1 3.554072 1_445
Bi2 Sr9 3.564249 1_545
Bi2 Sr17 3.576201 1_445
Bi2 Sr2 3.603961 1_555
Bi2 Sr18 3.606802 1_555
Bi3 Sr12 3.456045 1_555
Bi3 Sr14 3.462412 1_554
Bi3 Sr11 3.497967 1_555
Bi3 Sr19 3.530942 1_555
Bi3 Sr8 3.543352 1_555
Bi3 Sr3 3.593497 1_555
Bi3 Sr16 3.616358 1_555
Bi3 Sr0 3.629332 1_555
Bi3 Sr4 3.902460 1_554
Bi4 Sr13 3.461475 1_555
Bi4 Sr15 3.493920 1_455
Bi4 Sr10 3.503412 1_455
Bi4 Sr7 3.554072 1_455
Bi4 Sr9 3.564249 1_555
Bi4 Sr17 3.576201 1_455
Bi4 Sr4 3.603961 1_555
Bi4 Sr18 3.606802 1_555
Bi5 Sr12 3.456045 1_545
Bi5 Sr14 3.462412 1_554
Bi5 Sr11 3.497967 1_555
Bi5 Sr19 3.530942 1_555
Bi5 Sr8 3.543352 1_545
Bi5 Sr5 3.593497 1_555
Bi5 Sr16 3.616358 1_545
Bi5 Sr6 3.629332 1_545
Bi5 Sr2 3.902460 1_554
Bi6 Sr15 3.460302 1_565
Bi6 Sr13 3.479153 1_655
Bi6 Sr8 3.522555 1_655
Bi6 Sr11 3.545512 1_565
Bi6 Sr16 3.551146 1_555
Bi6 Sr6 3.553918 1_555
Bi6 Sr19 3.591139 1_665
Bi6 Sr5 3.617024 1_665
Bi6 Sr1 4.025293 1_555
Bi7 Sr14 3.448328 1_555
Bi7 Sr12 3.486554 1_556
Bi7 Sr9 3.492287 1_555
Bi7 Sr17 3.528895 1_555
Bi7 Sr10 3.536740 1_555
Bi7 Sr7 3.582194 1_555
Bi7 Sr18 3.607112 1_555
Bi7 Sr4 3.638776 1_555
Bi7 Sr0 3.979723 1_556
As0 Sr17 3.074262 1_455
As0 Sr2 3.130037 1_565
As0 Sr4 3.130037 1_555
As0 Sr8 3.151637 1_556
As0 Sr6 3.319188 1_456
As0 Sr0 3.319188 1_456
As0 Sr12 3.349452 1_556
As1 Sr7 3.053562 1_555
As1 Sr1 3.053562 1_545
As1 Sr18 3.162393 1_555
As1 Sr11 3.177889 1_555
As1 Sr3 3.295325 1_555
As1 Sr5 3.295325 1_555
As1 Sr15 3.383505 1_555
As2 Sr19 3.123267 1_655
As2 Sr0 3.130373 1_555
As2 Sr6 3.130373 1_545
As2 Sr10 3.146092 1_554
As2 Sr4 3.316672 1_654
As2 Sr2 3.316672 1_654
As2 Sr14 3.351804 1_554
