# generated using pymatgen
data_Mg4Be(BRh2)4
_symmetry_space_group_name_H-M   'P 1'
_cell_length_a   18.64381719
_cell_length_b   18.64381909
_cell_length_c   5.77285724
_cell_angle_alpha   90.00000000
_cell_angle_beta   90.00000000
_cell_angle_gamma   125.72357232
_symmetry_Int_Tables_number   1
_chemical_formula_structural   Mg4Be(BRh2)4
_chemical_formula_sum   'Mg32 Be8 B32 Rh64'
_cell_volume   1629.04389960
_cell_formula_units_Z   8
loop_
 _symmetry_equiv_pos_site_id
 _symmetry_equiv_pos_as_xyz
  1  'x, y, z'
loop_
 _atom_site_type_symbol
 _atom_site_label
 _atom_site_symmetry_multiplicity
 _atom_site_fract_x
 _atom_site_fract_y
 _atom_site_fract_z
 _atom_site_occupancy
  Mg  Mg0_0  1  0.10241097  0.39758903  0.25000000  1
  Mg  Mg0_1  1  0.10241097  0.39758903  0.75000000  1
  Mg  Mg0_2  1  0.10241097  0.89758903  0.25000000  1
  Mg  Mg0_3  1  0.10241097  0.89758903  0.75000000  1
  Mg  Mg0_4  1  0.60241097  0.39758903  0.25000000  1
  Mg  Mg0_5  1  0.60241097  0.39758903  0.75000000  1
  Mg  Mg0_6  1  0.60241097  0.89758903  0.25000000  1
  Mg  Mg0_7  1  0.60241097  0.89758903  0.75000000  1
  Mg  Mg1_0  1  0.39758903  0.10241097  0.25000000  1
  Mg  Mg1_1  1  0.39758903  0.10241097  0.75000000  1
  Mg  Mg1_2  1  0.39758903  0.60241097  0.25000000  1
  Mg  Mg1_3  1  0.39758903  0.60241097  0.75000000  1
  Mg  Mg1_4  1  0.89758903  0.10241097  0.25000000  1
  Mg  Mg1_5  1  0.89758903  0.10241097  0.75000000  1
  Mg  Mg1_6  1  0.89758903  0.60241097  0.25000000  1
  Mg  Mg1_7  1  0.89758903  0.60241097  0.75000000  1
  Mg  Mg2_0  1  0.17270660  0.17270660  0.25000000  1
  Mg  Mg2_1  1  0.17270660  0.17270660  0.75000000  1
  Mg  Mg2_2  1  0.17270660  0.67270660  0.25000000  1
  Mg  Mg2_3  1  0.17270660  0.67270660  0.75000000  1
  Mg  Mg2_4  1  0.67270660  0.17270660  0.25000000  1
  Mg  Mg2_5  1  0.67270660  0.17270660  0.75000000  1
  Mg  Mg2_6  1  0.67270660  0.67270660  0.25000000  1
  Mg  Mg2_7  1  0.67270660  0.67270660  0.75000000  1
  Mg  Mg3_0  1  0.32729340  0.32729340  0.25000000  1
  Mg  Mg3_1  1  0.32729340  0.32729340  0.75000000  1
  Mg  Mg3_2  1  0.32729340  0.82729340  0.25000000  1
  Mg  Mg3_3  1  0.32729340  0.82729340  0.75000000  1
  Mg  Mg3_4  1  0.82729340  0.32729340  0.25000000  1
  Mg  Mg3_5  1  0.82729340  0.32729340  0.75000000  1
  Mg  Mg3_6  1  0.82729340  0.82729340  0.25000000  1
  Mg  Mg3_7  1  0.82729340  0.82729340  0.75000000  1
  Be  Be0_0  1  0.00000000  0.00000000  0.25000000  1
  Be  Be0_1  1  0.00000000  0.00000000  0.75000000  1
  Be  Be0_2  1  0.00000000  0.50000000  0.25000000  1
  Be  Be0_3  1  0.00000000  0.50000000  0.75000000  1
  Be  Be0_4  1  0.50000000  0.00000000  0.25000000  1
  Be  Be0_5  1  0.50000000  0.00000000  0.75000000  1
  Be  Be0_6  1  0.50000000  0.50000000  0.25000000  1
  Be  Be0_7  1  0.50000000  0.50000000  0.75000000  1
  B  B0_0  1  0.22792171  0.07554911  0.25000000  1
  B  B0_1  1  0.22792171  0.07554911  0.75000000  1
  B  B0_2  1  0.22792171  0.57554911  0.25000000  1
  B  B0_3  1  0.22792171  0.57554911  0.75000000  1
  B  B0_4  1  0.72792171  0.07554911  0.25000000  1
  B  B0_5  1  0.72792171  0.07554911  0.75000000  1
  B  B0_6  1  0.72792171  0.57554911  0.25000000  1
  B  B0_7  1  0.72792171  0.57554911  0.75000000  1
  B  B1_0  1  0.07554911  0.22792171  0.25000000  1
  B  B1_1  1  0.07554911  0.22792171  0.75000000  1
  B  B1_2  1  0.07554911  0.72792171  0.25000000  1
  B  B1_3  1  0.07554911  0.72792171  0.75000000  1
  B  B1_4  1  0.57554911  0.22792171  0.25000000  1
  B  B1_5  1  0.57554911  0.22792171  0.75000000  1
  B  B1_6  1  0.57554911  0.72792171  0.25000000  1
  B  B1_7  1  0.57554911  0.72792171  0.75000000  1
  B  B2_0  1  0.27207829  0.42445089  0.25000000  1
  B  B2_1  1  0.27207829  0.42445089  0.75000000  1
  B  B2_2  1  0.27207829  0.92445089  0.25000000  1
  B  B2_3  1  0.27207829  0.92445089  0.75000000  1
  B  B2_4  1  0.77207829  0.42445089  0.25000000  1
  B  B2_5  1  0.77207829  0.42445089  0.75000000  1
  B  B2_6  1  0.77207829  0.92445089  0.25000000  1
  B  B2_7  1  0.77207829  0.92445089  0.75000000  1
  B  B3_0  1  0.42445089  0.27207829  0.25000000  1
  B  B3_1  1  0.42445089  0.27207829  0.75000000  1
  B  B3_2  1  0.42445089  0.77207829  0.25000000  1
  B  B3_3  1  0.42445089  0.77207829  0.75000000  1
  B  B3_4  1  0.92445089  0.27207829  0.25000000  1
  B  B3_5  1  0.92445089  0.27207829  0.75000000  1
  B  B3_6  1  0.92445089  0.77207829  0.25000000  1
  B  B3_7  1  0.92445089  0.77207829  0.75000000  1
  Rh  Rh0_0  1  0.31481732  0.18518268  0.00000000  1
  Rh  Rh0_1  1  0.31481732  0.18518268  0.50000000  1
  Rh  Rh0_2  1  0.31481732  0.68518268  0.00000000  1
  Rh  Rh0_3  1  0.31481732  0.68518268  0.50000000  1
  Rh  Rh0_4  1  0.81481732  0.18518268  0.00000000  1
  Rh  Rh0_5  1  0.81481732  0.18518268  0.50000000  1
  Rh  Rh0_6  1  0.81481732  0.68518268  0.00000000  1
  Rh  Rh0_7  1  0.81481732  0.68518268  0.50000000  1
  Rh  Rh1_0  1  0.18518268  0.31481732  0.00000000  1
  Rh  Rh1_1  1  0.18518268  0.31481732  0.50000000  1
  Rh  Rh1_2  1  0.18518268  0.81481732  0.00000000  1
  Rh  Rh1_3  1  0.18518268  0.81481732  0.50000000  1
  Rh  Rh1_4  1  0.68518268  0.31481732  0.00000000  1
  Rh  Rh1_5  1  0.68518268  0.31481732  0.50000000  1
  Rh  Rh1_6  1  0.68518268  0.81481732  0.00000000  1
  Rh  Rh1_7  1  0.68518268  0.81481732  0.50000000  1
  Rh  Rh2_0  1  0.46333606  0.37329407  0.00000000  1
  Rh  Rh2_1  1  0.46333606  0.37329407  0.50000000  1
  Rh  Rh2_2  1  0.46333606  0.87329407  0.00000000  1
  Rh  Rh2_3  1  0.46333606  0.87329407  0.50000000  1
  Rh  Rh2_4  1  0.96333606  0.37329407  0.00000000  1
  Rh  Rh2_5  1  0.96333606  0.37329407  0.50000000  1
  Rh  Rh2_6  1  0.96333606  0.87329407  0.00000000  1
  Rh  Rh2_7  1  0.96333606  0.87329407  0.50000000  1
  Rh  Rh3_0  1  0.03666394  0.12670593  0.00000000  1
  Rh  Rh3_1  1  0.03666394  0.12670593  0.50000000  1
  Rh  Rh3_2  1  0.03666394  0.62670593  0.00000000  1
  Rh  Rh3_3  1  0.03666394  0.62670593  0.50000000  1
  Rh  Rh3_4  1  0.53666394  0.12670593  0.00000000  1
  Rh  Rh3_5  1  0.53666394  0.12670593  0.50000000  1
  Rh  Rh3_6  1  0.53666394  0.62670593  0.00000000  1
  Rh  Rh3_7  1  0.53666394  0.62670593  0.50000000  1
  Rh  Rh4_0  1  0.25000000  0.00000000  0.00000000  1
  Rh  Rh4_1  1  0.25000000  0.00000000  0.50000000  1
  Rh  Rh4_2  1  0.25000000  0.50000000  0.00000000  1
  Rh  Rh4_3  1  0.25000000  0.50000000  0.50000000  1
  Rh  Rh4_4  1  0.75000000  0.00000000  0.00000000  1
  Rh  Rh4_5  1  0.75000000  0.00000000  0.50000000  1
  Rh  Rh4_6  1  0.75000000  0.50000000  0.00000000  1
  Rh  Rh4_7  1  0.75000000  0.50000000  0.50000000  1
  Rh  Rh5_0  1  0.12670593  0.03666394  0.00000000  1
  Rh  Rh5_1  1  0.12670593  0.03666394  0.50000000  1
  Rh  Rh5_2  1  0.12670593  0.53666394  0.00000000  1
  Rh  Rh5_3  1  0.12670593  0.53666394  0.50000000  1
  Rh  Rh5_4  1  0.62670593  0.03666394  0.00000000  1
  Rh  Rh5_5  1  0.62670593  0.03666394  0.50000000  1
  Rh  Rh5_6  1  0.62670593  0.53666394  0.00000000  1
  Rh  Rh5_7  1  0.62670593  0.53666394  0.50000000  1
  Rh  Rh6_0  1  0.37329407  0.46333606  0.00000000  1
  Rh  Rh6_1  1  0.37329407  0.46333606  0.50000000  1
  Rh  Rh6_2  1  0.37329407  0.96333606  0.00000000  1
  Rh  Rh6_3  1  0.37329407  0.96333606  0.50000000  1
  Rh  Rh6_4  1  0.87329407  0.46333606  0.00000000  1
  Rh  Rh6_5  1  0.87329407  0.46333606  0.50000000  1
  Rh  Rh6_6  1  0.87329407  0.96333606  0.00000000  1
  Rh  Rh6_7  1  0.87329407  0.96333606  0.50000000  1
  Rh  Rh7_0  1  0.00000000  0.25000000  0.00000000  1
  Rh  Rh7_1  1  0.00000000  0.25000000  0.50000000  1
  Rh  Rh7_2  1  0.00000000  0.75000000  0.00000000  1
  Rh  Rh7_3  1  0.00000000  0.75000000  0.50000000  1
  Rh  Rh7_4  1  0.50000000  0.25000000  0.00000000  1
  Rh  Rh7_5  1  0.50000000  0.25000000  0.50000000  1
  Rh  Rh7_6  1  0.50000000  0.75000000  0.00000000  1
  Rh  Rh7_7  1  0.50000000  0.75000000  0.50000000  1
loop_
_geom_bond_atom_site_label_1
_geom_bond_atom_site_label_2
_geom_bond_distance
_geom_bond_site_symmetry_2
Mg0_0 Rh4_3 2.676707 1_555
Mg0_0 Rh4_2 2.676707 1_555
Mg0_0 Rh7_0 2.676707 1_555
Mg0_0 Rh7_1 2.676707 1_555
Mg0_0 Rh2_5 2.763988 1_455
Mg0_0 Rh2_4 2.763988 1_455
Mg0_0 Rh5_3 2.763988 1_555
Mg0_0 Rh5_2 2.763988 1_555
Mg0_0 Mg0_1 2.886429 1_555
Mg0_0 Mg0_1 2.886429 1_554
Mg0_0 Rh1_0 3.102671 1_555
Mg0_0 Rh1_1 3.102671 1_555
Mg0_1 Rh4_3 2.676707 1_555
Mg0_1 Rh4_2 2.676707 1_556
Mg0_1 Rh7_1 2.676707 1_555
Mg0_1 Rh7_0 2.676707 1_556
Mg0_1 Rh2_5 2.763988 1_455
Mg0_1 Rh2_4 2.763988 1_456
Mg0_1 Rh5_3 2.763988 1_555
Mg0_1 Rh5_2 2.763988 1_556
Mg0_1 Rh1_1 3.102671 1_555
Mg0_1 Rh1_0 3.102671 1_556
Mg0_2 Rh4_0 2.676707 1_565
Mg0_2 Rh4_1 2.676707 1_565
Mg0_2 Rh7_2 2.676707 1_555
Mg0_2 Rh7_3 2.676707 1_555
Mg0_2 Rh2_6 2.763988 1_455
Mg0_2 Rh2_7 2.763988 1_455
Mg0_2 Rh5_1 2.763988 1_565
Mg0_2 Rh5_0 2.763988 1_565
Mg0_2 Mg0_3 2.886429 1_555
Mg0_2 Mg0_3 2.886429 1_554
Mg0_2 Rh1_3 3.102671 1_555
Mg0_2 Rh1_2 3.102671 1_555
Mg0_3 Rh4_1 2.676707 1_565
Mg0_3 Rh4_0 2.676707 1_566
Mg0_3 Rh7_3 2.676707 1_555
Mg0_3 Rh7_2 2.676707 1_556
Mg0_3 Rh2_7 2.763988 1_455
Mg0_3 Rh2_6 2.763988 1_456
Mg0_3 Rh5_1 2.763988 1_565
Mg0_3 Rh5_0 2.763988 1_566
Mg0_3 Rh1_3 3.102671 1_555
Mg0_3 Rh1_2 3.102671 1_556
Mg0_4 Rh4_7 2.676707 1_555
Mg0_4 Rh4_6 2.676707 1_555
Mg0_4 Rh7_4 2.676707 1_555
Mg0_4 Rh7_5 2.676707 1_555
Mg0_4 Rh2_0 2.763988 1_555
Mg0_4 Rh2_1 2.763988 1_555
Mg0_4 Rh5_6 2.763988 1_555
Mg0_4 Rh5_7 2.763988 1_555
Mg0_4 Mg0_5 2.886429 1_555
Mg0_4 Mg0_5 2.886429 1_554
Mg0_4 Rh1_5 3.102671 1_555
Mg0_4 Rh1_4 3.102671 1_555
Mg0_5 Rh4_7 2.676707 1_555
Mg0_5 Rh4_6 2.676707 1_556
Mg0_5 Rh7_5 2.676707 1_555
Mg0_5 Rh7_4 2.676707 1_556
Mg0_5 Rh2_1 2.763988 1_555
Mg0_5 Rh2_0 2.763988 1_556
Mg0_5 Rh5_7 2.763988 1_555
Mg0_5 Rh5_6 2.763988 1_556
Mg0_5 Rh1_5 3.102671 1_555
Mg0_5 Rh1_4 3.102671 1_556
Mg0_6 Rh4_4 2.676707 1_565
Mg0_6 Rh4_5 2.676707 1_565
Mg0_6 Rh7_6 2.676707 1_555
Mg0_6 Rh7_7 2.676707 1_555
Mg0_6 Rh2_2 2.763988 1_555
Mg0_6 Rh2_3 2.763988 1_555
Mg0_6 Rh5_4 2.763988 1_565
Mg0_6 Rh5_5 2.763988 1_565
Mg0_6 Mg0_7 2.886429 1_555
Mg0_6 Mg0_7 2.886429 1_554
Mg0_6 Rh1_6 3.102671 1_555
Mg0_6 Rh1_7 3.102671 1_555
Mg0_7 Rh4_5 2.676707 1_565
Mg0_7 Rh4_4 2.676707 1_566
Mg0_7 Rh7_7 2.676707 1_555
Mg0_7 Rh7_6 2.676707 1_556
Mg0_7 Rh2_3 2.763988 1_555
Mg0_7 Rh2_2 2.763988 1_556
Mg0_7 Rh5_5 2.763988 1_565
Mg0_7 Rh5_4 2.763988 1_566
Mg0_7 Rh1_7 3.102671 1_555
Mg0_7 Rh1_6 3.102671 1_556
Mg1_0 Rh4_0 2.676707 1_555
Mg1_0 Rh4_1 2.676707 1_555
Mg1_0 Rh7_4 2.676707 1_555
Mg1_0 Rh7_5 2.676707 1_555
Mg1_0 Rh3_4 2.763988 1_555
Mg1_0 Rh3_5 2.763988 1_555
Mg1_0 Rh6_2 2.763988 1_545
Mg1_0 Rh6_3 2.763988 1_545
Mg1_0 Mg1_1 2.886429 1_555
Mg1_0 Mg1_1 2.886429 1_554
Mg1_0 Rh0_0 3.102671 1_555
Mg1_0 Rh0_1 3.102671 1_555
Mg1_1 Rh4_1 2.676707 1_555
Mg1_1 Rh4_0 2.676707 1_556
Mg1_1 Rh7_5 2.676707 1_555
Mg1_1 Rh7_4 2.676707 1_556
Mg1_1 Rh3_5 2.763988 1_555
Mg1_1 Rh3_4 2.763988 1_556
Mg1_1 Rh6_3 2.763988 1_545
Mg1_1 Rh6_2 2.763988 1_546
Mg1_1 Rh0_1 3.102671 1_555
Mg1_1 Rh0_0 3.102671 1_556
Mg1_2 Rh4_3 2.676707 1_555
Mg1_2 Rh4_2 2.676707 1_555
Mg1_2 Rh7_6 2.676707 1_555
Mg1_2 Rh7_7 2.676707 1_555
Mg1_2 Rh3_6 2.763988 1_555
Mg1_2 Rh3_7 2.763988 1_555
Mg1_2 Rh6_0 2.763988 1_555
Mg1_2 Rh6_1 2.763988 1_555
Mg1_2 Mg1_3 2.886429 1_555
Mg1_2 Mg1_3 2.886429 1_554
Mg1_2 Rh0_3 3.102671 1_555
Mg1_2 Rh0_2 3.102671 1_555
Mg1_3 Rh4_3 2.676707 1_555
Mg1_3 Rh4_2 2.676707 1_556
Mg1_3 Rh7_7 2.676707 1_555
Mg1_3 Rh7_6 2.676707 1_556
Mg1_3 Rh3_7 2.763988 1_555
Mg1_3 Rh3_6 2.763988 1_556
Mg1_3 Rh6_1 2.763988 1_555
Mg1_3 Rh6_0 2.763988 1_556
Mg1_3 Rh0_3 3.102671 1_555
Mg1_3 Rh0_2 3.102671 1_556
Mg1_4 Rh4_4 2.676707 1_555
Mg1_4 Rh4_5 2.676707 1_555
Mg1_4 Rh7_0 2.676707 1_655
Mg1_4 Rh7_1 2.676707 1_655
Mg1_4 Rh3_0 2.763988 1_655
Mg1_4 Rh3_1 2.763988 1_655
Mg1_4 Rh6_6 2.763988 1_545
Mg1_4 Rh6_7 2.763988 1_545
Mg1_4 Mg1_5 2.886429 1_555
Mg1_4 Mg1_5 2.886429 1_554
Mg1_4 Rh0_5 3.102671 1_555
Mg1_4 Rh0_4 3.102671 1_555
Mg1_5 Rh4_5 2.676707 1_555
Mg1_5 Rh4_4 2.676707 1_556
Mg1_5 Rh7_1 2.676707 1_655
Mg1_5 Rh7_0 2.676707 1_656
Mg1_5 Rh3_1 2.763988 1_655
Mg1_5 Rh3_0 2.763988 1_656
Mg1_5 Rh6_7 2.763988 1_545
Mg1_5 Rh6_6 2.763988 1_546
Mg1_5 Rh0_5 3.102671 1_555
Mg1_5 Rh0_4 3.102671 1_556
Mg1_6 Rh4_7 2.676707 1_555
Mg1_6 Rh4_6 2.676707 1_555
Mg1_6 Rh7_2 2.676707 1_655
Mg1_6 Rh7_3 2.676707 1_655
Mg1_6 Rh3_2 2.763988 1_655
Mg1_6 Rh3_3 2.763988 1_655
Mg1_6 Rh6_4 2.763988 1_555
Mg1_6 Rh6_5 2.763988 1_555
Mg1_6 Mg1_7 2.886429 1_555
Mg1_6 Mg1_7 2.886429 1_554
Mg1_6 Rh0_7 3.102671 1_555
Mg1_6 Rh0_6 3.102671 1_555
Mg1_7 Rh4_7 2.676707 1_555
Mg1_7 Rh4_6 2.676707 1_556
Mg1_7 Rh7_3 2.676707 1_655
Mg1_7 Rh7_2 2.676707 1_656
Mg1_7 Rh3_3 2.763988 1_655
Mg1_7 Rh3_2 2.763988 1_656
Mg1_7 Rh6_5 2.763988 1_555
Mg1_7 Rh6_4 2.763988 1_556
Mg1_7 Rh0_7 3.102671 1_555
Mg1_7 Rh0_6 3.102671 1_556
Mg2_0 Rh3_1 2.590625 1_555
Mg2_0 Rh3_0 2.590625 1_555
Mg2_0 Rh5_1 2.590626 1_555
Mg2_0 Rh5_0 2.590626 1_555
Mg2_0 Mg3_0 2.629263 1_555
Mg2_0 Mg2_1 2.886429 1_555
Mg2_0 Mg2_1 2.886429 1_554
Mg2_0 Rh0_1 2.904667 1_555
Mg2_0 Rh0_0 2.904667 1_555
Mg2_0 Rh1_1 2.904668 1_555
Mg2_0 Rh1_0 2.904668 1_555
Mg2_1 Rh3_1 2.590625 1_555
Mg2_1 Rh3_0 2.590625 1_556
Mg2_1 Rh5_1 2.590626 1_555
Mg2_1 Rh5_0 2.590626 1_556
Mg2_1 Mg3_1 2.629263 1_555
Mg2_1 Rh0_1 2.904667 1_555
Mg2_1 Rh0_0 2.904667 1_556
Mg2_1 Rh1_1 2.904668 1_555
Mg2_1 Rh1_0 2.904668 1_556
Mg2_2 Rh3_2 2.590625 1_555
Mg2_2 Rh3_3 2.590625 1_555
Mg2_2 Rh5_3 2.590626 1_555
Mg2_2 Rh5_2 2.590626 1_555
Mg2_2 Mg3_2 2.629263 1_555
Mg2_2 Mg2_3 2.886429 1_555
Mg2_2 Mg2_3 2.886429 1_554
Mg2_2 Rh0_3 2.904667 1_555
Mg2_2 Rh0_2 2.904667 1_555
Mg2_2 Rh1_3 2.904668 1_555
Mg2_2 Rh1_2 2.904668 1_555
Mg2_3 Rh3_3 2.590625 1_555
Mg2_3 Rh3_2 2.590625 1_556
Mg2_3 Rh5_3 2.590626 1_555
Mg2_3 Rh5_2 2.590626 1_556
Mg2_3 Mg3_3 2.629263 1_555
Mg2_3 Rh0_3 2.904667 1_555
Mg2_3 Rh0_2 2.904667 1_556
Mg2_3 Rh1_3 2.904668 1_555
Mg2_3 Rh1_2 2.904668 1_556
Mg2_4 Rh3_5 2.590625 1_555
Mg2_4 Rh3_4 2.590625 1_555
Mg2_4 Rh5_4 2.590626 1_555
Mg2_4 Rh5_5 2.590626 1_555
Mg2_4 Mg3_4 2.629263 1_555
Mg2_4 Mg2_5 2.886429 1_555
Mg2_4 Mg2_5 2.886429 1_554
Mg2_4 Rh0_5 2.904667 1_555
Mg2_4 Rh0_4 2.904667 1_555
Mg2_4 Rh1_5 2.904668 1_555
Mg2_4 Rh1_4 2.904668 1_555
Mg2_5 Rh3_5 2.590625 1_555
Mg2_5 Rh3_4 2.590625 1_556
Mg2_5 Rh5_5 2.590626 1_555
Mg2_5 Rh5_4 2.590626 1_556
Mg2_5 Mg3_5 2.629263 1_555
Mg2_5 Rh0_5 2.904667 1_555
Mg2_5 Rh0_4 2.904667 1_556
Mg2_5 Rh1_5 2.904668 1_555
Mg2_5 Rh1_4 2.904668 1_556
Mg2_6 Rh3_6 2.590625 1_555
Mg2_6 Rh3_7 2.590625 1_555
Mg2_6 Rh5_7 2.590626 1_555
Mg2_6 Rh5_6 2.590626 1_555
Mg2_6 Mg3_6 2.629263 1_555
Mg2_6 Mg2_7 2.886429 1_555
Mg2_6 Mg2_7 2.886429 1_554
Mg2_6 Rh0_7 2.904667 1_555
Mg2_6 Rh0_6 2.904667 1_555
Mg2_6 Rh1_6 2.904668 1_555
Mg2_6 Rh1_7 2.904668 1_555
Mg2_7 Rh3_7 2.590625 1_555
Mg2_7 Rh3_6 2.590625 1_556
Mg2_7 Rh5_7 2.590626 1_555
Mg2_7 Rh5_6 2.590626 1_556
Mg2_7 Mg3_7 2.629263 1_555
Mg2_7 Rh0_7 2.904667 1_555
Mg2_7 Rh0_6 2.904667 1_556
Mg2_7 Rh1_7 2.904668 1_555
Mg2_7 Rh1_6 2.904668 1_556
Mg3_0 Rh2_1 2.590625 1_555
Mg3_0 Rh2_0 2.590625 1_555
Mg3_0 Rh6_0 2.590626 1_555
Mg3_0 Rh6_1 2.590626 1_555
Mg3_0 Mg3_1 2.886429 1_555
Mg3_0 Mg3_1 2.886429 1_554
Mg3_0 Rh1_0 2.904667 1_555
Mg3_0 Rh1_1 2.904667 1_555
Mg3_0 Rh0_0 2.904668 1_555
Mg3_0 Rh0_1 2.904668 1_555
Mg3_1 Rh2_1 2.590625 1_555
Mg3_1 Rh2_0 2.590625 1_556
Mg3_1 Rh6_1 2.590626 1_555
Mg3_1 Rh6_0 2.590626 1_556
Mg3_1 Rh1_1 2.904667 1_555
Mg3_1 Rh1_0 2.904667 1_556
Mg3_1 Rh0_1 2.904668 1_555
Mg3_1 Rh0_0 2.904668 1_556
Mg3_2 Rh2_3 2.590625 1_555
Mg3_2 Rh2_2 2.590625 1_555
Mg3_2 Rh6_2 2.590626 1_555
Mg3_2 Rh6_3 2.590626 1_555
Mg3_2 Mg3_3 2.886429 1_555
Mg3_2 Mg3_3 2.886429 1_554
Mg3_2 Rh1_2 2.904667 1_555
Mg3_2 Rh1_3 2.904667 1_555
Mg3_2 Rh0_3 2.904668 1_555
Mg3_2 Rh0_2 2.904668 1_555
Mg3_3 Rh2_3 2.590625 1_555
Mg3_3 Rh2_2 2.590625 1_556
Mg3_3 Rh6_3 2.590626 1_555
Mg3_3 Rh6_2 2.590626 1_556
Mg3_3 Rh1_3 2.904667 1_555
Mg3_3 Rh1_2 2.904667 1_556
Mg3_3 Rh0_3 2.904668 1_555
Mg3_3 Rh0_2 2.904668 1_556
Mg3_4 Rh2_4 2.590625 1_555
Mg3_4 Rh2_5 2.590625 1_555
Mg3_4 Rh6_5 2.590626 1_555
Mg3_4 Rh6_4 2.590626 1_555
Mg3_4 Mg3_5 2.886429 1_555
Mg3_4 Mg3_5 2.886429 1_554
Mg3_4 Rh1_4 2.904667 1_555
Mg3_4 Rh1_5 2.904667 1_555
Mg3_4 Rh0_5 2.904668 1_555
Mg3_4 Rh0_4 2.904668 1_555
Mg3_5 Rh2_5 2.590625 1_555
Mg3_5 Rh2_4 2.590625 1_556
Mg3_5 Rh6_5 2.590626 1_555
Mg3_5 Rh6_4 2.590626 1_556
Mg3_5 Rh1_5 2.904667 1_555
Mg3_5 Rh1_4 2.904667 1_556
Mg3_5 Rh0_5 2.904668 1_555
Mg3_5 Rh0_4 2.904668 1_556
Mg3_6 Rh2_6 2.590625 1_555
Mg3_6 Rh2_7 2.590625 1_555
Mg3_6 Rh6_6 2.590626 1_555
Mg3_6 Rh6_7 2.590626 1_555
Mg3_6 Mg3_7 2.886429 1_555
Mg3_6 Mg3_7 2.886429 1_554
Mg3_6 Rh1_7 2.904667 1_555
Mg3_6 Rh1_6 2.904667 1_555
Mg3_6 Rh0_6 2.904668 1_555
Mg3_6 Rh0_7 2.904668 1_555
Mg3_7 Rh2_7 2.590625 1_555
Mg3_7 Rh2_6 2.590625 1_556
Mg3_7 Rh6_7 2.590626 1_555
Mg3_7 Rh6_6 2.590626 1_556
Mg3_7 Rh1_7 2.904667 1_555
Mg3_7 Rh1_6 2.904667 1_556
Mg3_7 Rh0_7 2.904668 1_555
Mg3_7 Rh0_6 2.904668 1_556
Be0_0 Rh6_7 2.498973 1_445
Be0_0 Rh6_6 2.498973 1_445
Be0_0 Rh5_0 2.498973 1_555
Be0_0 Rh5_1 2.498973 1_555
Be0_0 Rh3_1 2.498973 1_555
Be0_0 Rh3_0 2.498973 1_555
Be0_0 Rh2_7 2.498973 1_445
Be0_0 Rh2_6 2.498973 1_445
Be0_0 Mg2_0 2.937450 1_555
Be0_0 Mg3_6 2.937450 1_445
Be0_1 Rh6_7 2.498973 1_445
Be0_1 Rh6_6 2.498973 1_446
Be0_1 Rh5_1 2.498973 1_555
Be0_1 Rh5_0 2.498973 1_556
Be0_1 Rh3_1 2.498973 1_555
Be0_1 Rh3_0 2.498973 1_556
Be0_1 Rh2_7 2.498973 1_445
Be0_1 Rh2_6 2.498973 1_446
Be0_1 Mg2_1 2.937450 1_555
Be0_1 Mg3_7 2.937450 1_445
Be0_2 Rh6_5 2.498973 1_455
Be0_2 Rh6_4 2.498973 1_455
Be0_2 Rh5_2 2.498973 1_555
Be0_2 Rh5_3 2.498973 1_555
Be0_2 Rh3_3 2.498973 1_555
Be0_2 Rh3_2 2.498973 1_555
Be0_2 Rh2_4 2.498973 1_455
Be0_2 Rh2_5 2.498973 1_455
Be0_2 Mg2_2 2.937450 1_555
Be0_2 Mg3_4 2.937450 1_455
Be0_3 Rh6_5 2.498973 1_455
Be0_3 Rh6_4 2.498973 1_456
Be0_3 Rh5_3 2.498973 1_555
Be0_3 Rh5_2 2.498973 1_556
Be0_3 Rh3_3 2.498973 1_555
Be0_3 Rh3_2 2.498973 1_556
Be0_3 Rh2_5 2.498973 1_455
Be0_3 Rh2_4 2.498973 1_456
Be0_3 Mg2_3 2.937450 1_555
Be0_3 Mg3_5 2.937450 1_455
Be0_4 Rh6_3 2.498973 1_545
Be0_4 Rh6_2 2.498973 1_545
Be0_4 Rh5_4 2.498973 1_555
Be0_4 Rh5_5 2.498973 1_555
Be0_4 Rh3_4 2.498973 1_555
Be0_4 Rh3_5 2.498973 1_555
Be0_4 Rh2_3 2.498973 1_545
Be0_4 Rh2_2 2.498973 1_545
Be0_4 Mg2_4 2.937450 1_555
Be0_4 Mg3_2 2.937450 1_545
Be0_5 Rh6_3 2.498973 1_545
Be0_5 Rh6_2 2.498973 1_546
Be0_5 Rh5_5 2.498973 1_555
Be0_5 Rh5_4 2.498973 1_556
Be0_5 Rh3_5 2.498973 1_555
Be0_5 Rh3_4 2.498973 1_556
Be0_5 Rh2_3 2.498973 1_545
Be0_5 Rh2_2 2.498973 1_546
Be0_5 Mg2_5 2.937450 1_555
Be0_5 Mg3_3 2.937450 1_545
Be0_6 Rh6_0 2.498973 1_555
Be0_6 Rh6_1 2.498973 1_555
Be0_6 Rh5_6 2.498973 1_555
Be0_6 Rh5_7 2.498973 1_555
Be0_6 Rh3_6 2.498973 1_555
Be0_6 Rh3_7 2.498973 1_555
Be0_6 Rh2_0 2.498973 1_555
Be0_6 Rh2_1 2.498973 1_555
Be0_6 Mg2_6 2.937450 1_555
Be0_6 Mg3_0 2.937450 1_555
Be0_7 Rh6_1 2.498973 1_555
Be0_7 Rh6_0 2.498973 1_556
Be0_7 Rh5_7 2.498973 1_555
Be0_7 Rh5_6 2.498973 1_556
Be0_7 Rh3_7 2.498973 1_555
Be0_7 Rh3_6 2.498973 1_556
Be0_7 Rh2_1 2.498973 1_555
Be0_7 Rh2_0 2.498973 1_556
Be0_7 Mg2_7 2.937450 1_555
Be0_7 Mg3_1 2.937450 1_555
B0_0 Rh5_1 2.138190 1_555
B0_0 Rh5_0 2.138190 1_555
B0_0 Rh4_0 2.216592 1_555
B0_0 Rh4_1 2.216592 1_555
B0_0 Rh0_0 2.240198 1_555
B0_0 Rh0_1 2.240198 1_555
B0_0 Mg2_0 2.553098 1_555
B0_0 Mg0_2 2.723528 1_545
B0_0 Mg1_0 2.899485 1_555
B0_1 Rh5_1 2.138190 1_555
B0_1 Rh5_0 2.138190 1_556
B0_1 Rh4_1 2.216592 1_555
B0_1 Rh4_0 2.216592 1_556
B0_1 Rh0_1 2.240198 1_555
B0_1 Rh0_0 2.240198 1_556
B0_1 Mg2_1 2.553098 1_555
B0_1 Mg0_3 2.723528 1_545
B0_1 Mg1_1 2.899485 1_555
B0_2 Rh5_3 2.138190 1_555
B0_2 Rh5_2 2.138190 1_555
B0_2 Rh4_3 2.216592 1_555
B0_2 Rh4_2 2.216592 1_555
B0_2 Rh0_3 2.240198 1_555
B0_2 Rh0_2 2.240198 1_555
B0_2 Mg2_2 2.553098 1_555
B0_2 Mg0_0 2.723528 1_555
B0_2 Mg1_2 2.899485 1_555
B0_3 Rh5_3 2.138190 1_555
B0_3 Rh5_2 2.138190 1_556
B0_3 Rh4_3 2.216592 1_555
B0_3 Rh4_2 2.216592 1_556
B0_3 Rh0_3 2.240198 1_555
B0_3 Rh0_2 2.240198 1_556
B0_3 Mg2_3 2.553098 1_555
B0_3 Mg0_1 2.723528 1_555
B0_3 Mg1_3 2.899485 1_555
B0_4 Rh5_4 2.138190 1_555
B0_4 Rh5_5 2.138190 1_555
B0_4 Rh4_4 2.216592 1_555
B0_4 Rh4_5 2.216592 1_555
B0_4 Rh0_5 2.240198 1_555
B0_4 Rh0_4 2.240198 1_555
B0_4 Mg2_4 2.553098 1_555
B0_4 Mg0_6 2.723528 1_545
B0_4 Mg1_4 2.899485 1_555
B0_5 Rh5_5 2.138190 1_555
B0_5 Rh5_4 2.138190 1_556
B0_5 Rh4_5 2.216592 1_555
B0_5 Rh4_4 2.216592 1_556
B0_5 Rh0_5 2.240198 1_555
B0_5 Rh0_4 2.240198 1_556
B0_5 Mg2_5 2.553098 1_555
B0_5 Mg0_7 2.723528 1_545
B0_5 Mg1_5 2.899485 1_555
B0_6 Rh5_7 2.138190 1_555
B0_6 Rh5_6 2.138190 1_555
B0_6 Rh4_7 2.216592 1_555
B0_6 Rh4_6 2.216592 1_555
B0_6 Rh0_6 2.240198 1_555
B0_6 Rh0_7 2.240198 1_555
B0_6 Mg2_6 2.553098 1_555
B0_6 Mg0_4 2.723528 1_555
B0_6 Mg1_6 2.899485 1_555
B0_7 Rh5_7 2.138190 1_555
B0_7 Rh5_6 2.138190 1_556
B0_7 Rh4_7 2.216592 1_555
B0_7 Rh4_6 2.216592 1_556
B0_7 Rh0_7 2.240198 1_555
B0_7 Rh0_6 2.240198 1_556
B0_7 Mg2_7 2.553098 1_555
B0_7 Mg0_5 2.723528 1_555
B0_7 Mg1_7 2.899485 1_555
B1_0 Rh3_0 2.138190 1_555
B1_0 Rh3_1 2.138190 1_555
B1_0 Rh7_1 2.216592 1_555
B1_0 Rh7_0 2.216592 1_555
B1_0 Rh1_0 2.240198 1_555
B1_0 Rh1_1 2.240198 1_555
B1_0 Mg2_0 2.553098 1_555
B1_0 Mg1_4 2.723528 1_455
B1_0 Mg0_0 2.899485 1_555
B1_1 Rh3_1 2.138190 1_555
B1_1 Rh3_0 2.138190 1_556
B1_1 Rh7_1 2.216592 1_555
B1_1 Rh7_0 2.216592 1_556
B1_1 Rh1_1 2.240198 1_555
B1_1 Rh1_0 2.240198 1_556
B1_1 Mg2_1 2.553098 1_555
B1_1 Mg1_5 2.723528 1_455
B1_1 Mg0_1 2.899485 1_555
B1_2 Rh3_2 2.138190 1_555
B1_2 Rh3_3 2.138190 1_555
B1_2 Rh7_3 2.216592 1_555
B1_2 Rh7_2 2.216592 1_555
B1_2 Rh1_2 2.240198 1_555
B1_2 Rh1_3 2.240198 1_555
B1_2 Mg2_2 2.553098 1_555
B1_2 Mg1_6 2.723528 1_455
B1_2 Mg0_2 2.899485 1_555
B1_3 Rh3_3 2.138190 1_555
B1_3 Rh3_2 2.138190 1_556
B1_3 Rh7_3 2.216592 1_555
B1_3 Rh7_2 2.216592 1_556
B1_3 Rh1_3 2.240198 1_555
B1_3 Rh1_2 2.240198 1_556
B1_3 Mg2_3 2.553098 1_555
B1_3 Mg1_7 2.723528 1_455
B1_3 Mg0_3 2.899485 1_555
B1_4 Rh3_5 2.138190 1_555
B1_4 Rh3_4 2.138190 1_555
B1_4 Rh7_4 2.216592 1_555
B1_4 Rh7_5 2.216592 1_555
B1_4 Rh1_4 2.240198 1_555
B1_4 Rh1_5 2.240198 1_555
B1_4 Mg2_4 2.553098 1_555
B1_4 Mg1_0 2.723528 1_555
B1_4 Mg0_4 2.899485 1_555
B1_5 Rh3_5 2.138190 1_555
B1_5 Rh3_4 2.138190 1_556
B1_5 Rh7_5 2.216592 1_555
B1_5 Rh7_4 2.216592 1_556
B1_5 Rh1_5 2.240198 1_555
B1_5 Rh1_4 2.240198 1_556
B1_5 Mg2_5 2.553098 1_555
B1_5 Mg1_1 2.723528 1_555
B1_5 Mg0_5 2.899485 1_555
B1_6 Rh3_6 2.138190 1_555
B1_6 Rh3_7 2.138190 1_555
B1_6 Rh7_6 2.216592 1_555
B1_6 Rh7_7 2.216592 1_555
B1_6 Rh1_6 2.240198 1_555
B1_6 Rh1_7 2.240198 1_555
B1_6 Mg2_6 2.553098 1_555
B1_6 Mg1_2 2.723528 1_555
B1_6 Mg0_6 2.899485 1_555
B1_7 Rh3_7 2.138190 1_555
B1_7 Rh3_6 2.138190 1_556
B1_7 Rh7_7 2.216592 1_555
B1_7 Rh7_6 2.216592 1_556
B1_7 Rh1_7 2.240198 1_555
B1_7 Rh1_6 2.240198 1_556
B1_7 Mg2_7 2.553098 1_555
B1_7 Mg1_3 2.723528 1_555
B1_7 Mg0_7 2.899485 1_555
B2_0 Rh6_0 2.138190 1_555
B2_0 Rh6_1 2.138190 1_555
B2_0 Rh4_3 2.216592 1_555
B2_0 Rh4_2 2.216592 1_555
B2_0 Rh1_0 2.240198 1_555
B2_0 Rh1_1 2.240198 1_555
B2_0 Mg3_0 2.553098 1_555
B2_0 Mg1_2 2.723528 1_555
B2_0 Mg0_0 2.899485 1_555
B2_1 Rh6_1 2.138190 1_555
B2_1 Rh6_0 2.138190 1_556
B2_1 Rh4_3 2.216592 1_555
B2_1 Rh4_2 2.216592 1_556
B2_1 Rh1_1 2.240198 1_555
B2_1 Rh1_0 2.240198 1_556
B2_1 Mg3_1 2.553098 1_555
B2_1 Mg1_3 2.723528 1_555
B2_1 Mg0_1 2.899485 1_555
B2_2 Rh6_2 2.138190 1_555
B2_2 Rh6_3 2.138190 1_555
B2_2 Rh4_1 2.216592 1_565
B2_2 Rh4_0 2.216592 1_565
B2_2 Rh1_2 2.240198 1_555
B2_2 Rh1_3 2.240198 1_555
B2_2 Mg3_2 2.553098 1_555
B2_2 Mg1_0 2.723528 1_565
B2_2 Mg0_2 2.899485 1_555
B2_3 Rh6_3 2.138190 1_555
B2_3 Rh6_2 2.138190 1_556
B2_3 Rh4_1 2.216592 1_565
B2_3 Rh4_0 2.216592 1_566
B2_3 Rh1_3 2.240198 1_555
B2_3 Rh1_2 2.240198 1_556
B2_3 Mg3_3 2.553098 1_555
B2_3 Mg1_1 2.723528 1_565
B2_3 Mg0_3 2.899485 1_555
B2_4 Rh6_5 2.138190 1_555
B2_4 Rh6_4 2.138190 1_555
B2_4 Rh4_7 2.216592 1_555
B2_4 Rh4_6 2.216592 1_555
B2_4 Rh1_4 2.240198 1_555
B2_4 Rh1_5 2.240198 1_555
B2_4 Mg3_4 2.553098 1_555
B2_4 Mg1_6 2.723528 1_555
B2_4 Mg0_4 2.899485 1_555
B2_5 Rh6_5 2.138190 1_555
B2_5 Rh6_4 2.138190 1_556
B2_5 Rh4_7 2.216592 1_555
B2_5 Rh4_6 2.216592 1_556
B2_5 Rh1_5 2.240198 1_555
B2_5 Rh1_4 2.240198 1_556
B2_5 Mg3_5 2.553098 1_555
B2_5 Mg1_7 2.723528 1_555
B2_5 Mg0_5 2.899485 1_555
B2_6 Rh6_6 2.138190 1_555
B2_6 Rh6_7 2.138190 1_555
B2_6 Rh4_4 2.216592 1_565
B2_6 Rh4_5 2.216592 1_565
B2_6 Rh1_6 2.240198 1_555
B2_6 Rh1_7 2.240198 1_555
B2_6 Mg3_6 2.553098 1_555
B2_6 Mg1_4 2.723528 1_565
B2_6 Mg0_6 2.899485 1_555
B2_7 Rh6_7 2.138190 1_555
B2_7 Rh6_6 2.138190 1_556
B2_7 Rh4_5 2.216592 1_565
B2_7 Rh4_4 2.216592 1_566
B2_7 Rh1_7 2.240198 1_555
B2_7 Rh1_6 2.240198 1_556
B2_7 Mg3_7 2.553098 1_555
B2_7 Mg1_5 2.723528 1_565
B2_7 Mg0_7 2.899485 1_555
B3_0 Rh2_1 2.138190 1_555
B3_0 Rh2_0 2.138190 1_555
B3_0 Rh7_4 2.216592 1_555
B3_0 Rh7_5 2.216592 1_555
B3_0 Rh0_1 2.240198 1_555
B3_0 Rh0_0 2.240198 1_555
B3_0 Mg3_0 2.553098 1_555
B3_0 Mg0_4 2.723528 1_555
B3_0 Mg1_0 2.899485 1_555
B3_1 Rh2_1 2.138190 1_555
B3_1 Rh2_0 2.138190 1_556
B3_1 Rh7_5 2.216592 1_555
B3_1 Rh7_4 2.216592 1_556
B3_1 Rh0_1 2.240198 1_555
B3_1 Rh0_0 2.240198 1_556
B3_1 Mg3_1 2.553098 1_555
B3_1 Mg0_5 2.723528 1_555
B3_1 Mg1_1 2.899485 1_555
B3_2 Rh2_2 2.138190 1_555
B3_2 Rh2_3 2.138190 1_555
B3_2 Rh7_6 2.216592 1_555
B3_2 Rh7_7 2.216592 1_555
B3_2 Rh0_2 2.240198 1_555
B3_2 Rh0_3 2.240198 1_555
B3_2 Mg3_2 2.553098 1_555
B3_2 Mg0_6 2.723528 1_555
B3_2 Mg1_2 2.899485 1_555
B3_3 Rh2_3 2.138190 1_555
B3_3 Rh2_2 2.138190 1_556
B3_3 Rh7_7 2.216592 1_555
B3_3 Rh7_6 2.216592 1_556
B3_3 Rh0_3 2.240198 1_555
B3_3 Rh0_2 2.240198 1_556
B3_3 Mg3_3 2.553098 1_555
B3_3 Mg0_7 2.723528 1_555
B3_3 Mg1_3 2.899485 1_555
B3_4 Rh2_4 2.138190 1_555
B3_4 Rh2_5 2.138190 1_555
B3_4 Rh7_0 2.216592 1_655
B3_4 Rh7_1 2.216592 1_655
B3_4 Rh0_5 2.240198 1_555
B3_4 Rh0_4 2.240198 1_555
B3_4 Mg3_4 2.553098 1_555
B3_4 Mg0_0 2.723528 1_655
B3_4 Mg1_4 2.899485 1_555
B3_5 Rh2_5 2.138190 1_555
B3_5 Rh2_4 2.138190 1_556
B3_5 Rh7_1 2.216592 1_655
B3_5 Rh7_0 2.216592 1_656
B3_5 Rh0_5 2.240198 1_555
B3_5 Rh0_4 2.240198 1_556
B3_5 Mg3_5 2.553098 1_555
B3_5 Mg0_1 2.723528 1_655
B3_5 Mg1_5 2.899485 1_555
B3_6 Rh2_6 2.138190 1_555
B3_6 Rh2_7 2.138190 1_555
B3_6 Rh7_3 2.216592 1_655
B3_6 Rh7_2 2.216592 1_655
B3_6 Rh0_6 2.240198 1_555
B3_6 Rh0_7 2.240198 1_555
B3_6 Mg3_6 2.553098 1_555
B3_6 Mg0_2 2.723528 1_655
B3_6 Mg1_6 2.899485 1_555
B3_7 Rh2_7 2.138190 1_555
B3_7 Rh2_6 2.138190 1_556
B3_7 Rh7_3 2.216592 1_655
B3_7 Rh7_2 2.216592 1_656
B3_7 Rh0_7 2.240198 1_555
B3_7 Rh0_6 2.240198 1_556
B3_7 Mg3_7 2.553098 1_555
B3_7 Mg0_3 2.723528 1_655
B3_7 Mg1_7 2.899485 1_555
