# generated using pymatgen
data_BaCuBiS3
_symmetry_space_group_name_H-M   'P 1'
_cell_length_a   7.07511036
_cell_length_b   7.07511062
_cell_length_c   10.51016616
_cell_angle_alpha   90.00000000
_cell_angle_beta   90.00000000
_cell_angle_gamma   146.39052212
_symmetry_Int_Tables_number   1
_chemical_formula_structural   BaCuBiS3
_chemical_formula_sum   'Ba2 Cu2 Bi2 S6'
_cell_volume   291.21696274
_cell_formula_units_Z   2
loop_
 _symmetry_equiv_pos_site_id
 _symmetry_equiv_pos_as_xyz
  1  'x, y, z'
loop_
 _atom_site_type_symbol
 _atom_site_label
 _atom_site_symmetry_multiplicity
 _atom_site_fract_x
 _atom_site_fract_y
 _atom_site_fract_z
 _atom_site_occupancy
  Ba  Ba0  1  0.25475490  0.74524510  0.25000000  1
  Ba  Ba1  1  0.74524510  0.25475490  0.75000000  1
  Cu  Cu0  1  0.53302180  0.46697820  0.25000000  1
  Cu  Cu1  1  0.46697820  0.53302180  0.75000000  1
  Bi  Bi0  1  0.00000000  0.00000000  0.50000000  1
  Bi  Bi1  1  0.00000000  0.00000000  0.00000000  1
  S  S0  1  0.63488996  0.36511004  0.43333162  1
  S  S1  1  0.36511004  0.63488996  0.56666838  1
  S  S2  1  0.63488996  0.36511004  0.06666838  1
  S  S3  1  0.36511004  0.63488996  0.93333162  1
  S  S4  1  0.93388304  0.06611696  0.25000000  1
  S  S5  1  0.06611696  0.93388304  0.75000000  1
loop_
_geom_bond_atom_site_label_1
_geom_bond_atom_site_label_2
_geom_bond_distance
_geom_bond_site_symmetry_2
Ba0 S4 3.173601 1_565
Ba0 S4 3.173601 1_455
Ba0 S0 3.245477 1_455
Ba0 S2 3.245477 1_455
Ba0 S0 3.245477 1_565
Ba0 S2 3.245477 1_565
Ba0 S1 3.648532 1_555
Ba0 S3 3.648532 1_554
Ba1 S5 3.173601 1_545
Ba1 S5 3.173601 1_655
Ba1 S3 3.245477 1_655
Ba1 S1 3.245477 1_655
Ba1 S3 3.245477 1_545
Ba1 S1 3.245477 1_545
Ba1 S2 3.648532 1_556
Ba1 S0 3.648532 1_555
Cu0 S0 2.369991 1_555
Cu0 S2 2.369991 1_555
Cu0 S4 2.446936 1_455
Cu0 S4 2.446936 1_565
Cu1 S3 2.369991 1_555
Cu1 S1 2.369991 1_555
Cu1 S5 2.446936 1_655
Cu1 S5 2.446936 1_545
Bi0 S4 2.775987 1_455
Bi0 S5 2.775987 1_545
Bi0 S0 2.830851 1_555
Bi0 S1 2.830851 1_445
Bi0 S1 2.830851 1_555
Bi0 S0 2.830851 1_445
Bi1 S4 2.775987 1_455
Bi1 S5 2.775987 1_544
Bi1 S2 2.830851 1_555
Bi1 S3 2.830851 1_444
Bi1 S2 2.830851 1_445
Bi1 S3 2.830851 1_554
