# generated using pymatgen
data_Zr6Be14AlCu8
_symmetry_space_group_name_H-M   'P 1'
_cell_length_a   7.91473257
_cell_length_b   7.91473194
_cell_length_c   7.91473220
_cell_angle_alpha   59.99999476
_cell_angle_beta   59.99999741
_cell_angle_gamma   59.99999562
_symmetry_Int_Tables_number   1
_chemical_formula_structural   Zr6Be14AlCu8
_chemical_formula_sum   'Zr6 Be14 Al1 Cu8'
_cell_volume   350.58525181
_cell_formula_units_Z   1
loop_
 _symmetry_equiv_pos_site_id
 _symmetry_equiv_pos_as_xyz
  1  'x, y, z'
loop_
 _atom_site_type_symbol
 _atom_site_label
 _atom_site_symmetry_multiplicity
 _atom_site_fract_x
 _atom_site_fract_y
 _atom_site_fract_z
 _atom_site_occupancy
  Zr  Zr0  1  0.70348499  0.29651501  0.29651501  1
  Zr  Zr1  1  0.29651501  0.70348499  0.70348499  1
  Zr  Zr2  1  0.29651501  0.70348499  0.29651501  1
  Zr  Zr3  1  0.70348499  0.29651501  0.70348499  1
  Zr  Zr4  1  0.29651501  0.29651501  0.70348499  1
  Zr  Zr5  1  0.70348499  0.70348499  0.29651501  1
  Be  Be0  1  0.32448574  0.32448574  0.32448574  1
  Be  Be1  1  0.67551426  0.67551426  0.67551426  1
  Be  Be2  1  0.32448574  0.32448574  0.02654277  1
  Be  Be3  1  0.32448574  0.02654277  0.32448574  1
  Be  Be4  1  0.67551426  0.67551426  0.97345723  1
  Be  Be5  1  0.67551426  0.97345723  0.67551426  1
  Be  Be6  1  0.02654277  0.32448574  0.32448574  1
  Be  Be7  1  0.97345723  0.67551426  0.67551426  1
  Be  Be8  1  0.50000000  0.00000000  0.00000000  1
  Be  Be9  1  0.00000000  0.50000000  0.50000000  1
  Be  Be10  1  0.00000000  0.50000000  0.00000000  1
  Be  Be11  1  0.50000000  0.00000000  0.50000000  1
  Be  Be12  1  0.00000000  0.00000000  0.50000000  1
  Be  Be13  1  0.50000000  0.50000000  0.00000000  1
  Al  Al0  1  0.00000000  0.00000000  0.00000000  1
  Cu  Cu0  1  0.12709065  0.12709065  0.12709065  1
  Cu  Cu1  1  0.87290935  0.87290935  0.87290935  1
  Cu  Cu2  1  0.12709065  0.12709065  0.61873005  1
  Cu  Cu3  1  0.12709065  0.61873005  0.12709065  1
  Cu  Cu4  1  0.87290935  0.87290935  0.38126995  1
  Cu  Cu5  1  0.87290935  0.38126995  0.87290935  1
  Cu  Cu6  1  0.61873005  0.12709065  0.12709065  1
  Cu  Cu7  1  0.38126995  0.87290935  0.87290935  1
loop_
_geom_bond_atom_site_label_1
_geom_bond_atom_site_label_2
_geom_bond_distance
_geom_bond_site_symmetry_2
Zr0 Zr2 3.221058 1_555
Zr0 Zr5 3.221058 1_555
Zr0 Zr4 3.221058 1_555
Zr0 Zr3 3.221058 1_555
Zr1 Zr3 3.221058 1_555
Zr1 Zr4 3.221058 1_555
Zr1 Zr5 3.221058 1_555
Zr1 Zr2 3.221058 1_555
Zr2 Zr4 3.221058 1_555
Zr2 Zr5 3.221059 1_555
Zr3 Zr5 3.221058 1_555
Zr3 Zr4 3.221059 1_555
Be0 Be11 2.291216 1_555
Be0 Be13 2.291216 1_555
Be0 Be9 2.291216 1_555
Be0 Cu3 2.338658 1_555
Be0 Cu2 2.338658 1_555
Be0 Cu6 2.338658 1_555
Be0 Be3 2.358139 1_555
Be0 Be2 2.358139 1_555
Be0 Be6 2.358139 1_555
Be0 Zr2 2.795881 1_555
Be0 Zr4 2.795881 1_555
Be0 Zr0 2.795881 1_555
Be1 Be11 2.291216 1_565
Be1 Be13 2.291216 1_556
Be1 Be9 2.291216 1_655
Be1 Cu5 2.338658 1_555
Be1 Cu4 2.338658 1_555
Be1 Cu7 2.338658 1_555
Be1 Be5 2.358139 1_555
Be1 Be4 2.358139 1_555
Be1 Be7 2.358139 1_555
Be1 Zr3 2.795881 1_555
Be1 Zr5 2.795881 1_555
Be1 Zr1 2.795881 1_555
Be2 Be8 2.291216 1_555
Be2 Cu0 2.338653 1_555
Be2 Cu3 2.338666 1_555
Be2 Cu6 2.338666 1_555
Be2 Be3 2.358139 1_555
Be2 Be6 2.358139 1_555
Be2 Zr1 2.795881 1_554
Be2 Zr3 2.795881 1_554
Be2 Zr4 2.795881 1_554
Be3 Be8 2.291216 1_555
Be3 Cu0 2.338653 1_555
Be3 Cu2 2.338666 1_555
Be3 Cu6 2.338666 1_555
Be3 Be6 2.358139 1_555
Be3 Zr1 2.795881 1_545
Be3 Zr5 2.795881 1_545
Be3 Zr2 2.795881 1_545
Be4 Be8 2.291216 1_566
Be4 Cu1 2.338653 1_555
Be4 Cu5 2.338666 1_555
Be4 Cu7 2.338666 1_555
Be4 Be5 2.358139 1_555
Be4 Be7 2.358139 1_555
Be4 Zr0 2.795881 1_556
Be4 Zr2 2.795881 1_556
Be4 Zr5 2.795881 1_556
Be5 Be8 2.291216 1_566
Be5 Cu1 2.338653 1_555
Be5 Cu4 2.338666 1_555
Be5 Cu7 2.338666 1_555
Be5 Be7 2.358139 1_555
Be5 Zr0 2.795881 1_565
Be5 Zr4 2.795881 1_565
Be5 Zr3 2.795881 1_565
Be6 Be9 2.291216 1_555
Be6 Cu0 2.338653 1_555
Be6 Cu3 2.338666 1_555
Be6 Cu2 2.338666 1_555
Be6 Zr5 2.795881 1_455
Be6 Zr3 2.795881 1_455
Be6 Zr0 2.795881 1_455
Be7 Be9 2.291216 1_655
Be7 Cu1 2.338653 1_555
Be7 Cu5 2.338666 1_555
Be7 Cu4 2.338666 1_555
Be7 Zr4 2.795881 1_655
Be7 Zr2 2.795881 1_655
Be7 Zr1 2.795881 1_655
Be8 Cu1 2.410174 1_544
Be8 Cu0 2.410174 1_555
Be8 Cu6 2.410187 1_555
Be8 Cu7 2.410187 1_544
Be8 Zr5 2.846304 1_545
Be8 Zr4 2.846304 1_554
Be8 Zr3 2.846304 1_554
Be8 Zr2 2.846304 1_545
Be9 Cu4 2.410174 1_455
Be9 Cu2 2.410174 1_555
Be9 Cu5 2.410174 1_455
Be9 Cu3 2.410174 1_555
Be9 Zr4 2.846304 1_555
Be9 Zr5 2.846304 1_455
Be9 Zr2 2.846304 1_555
Be9 Zr3 2.846304 1_455
Be10 Be6 2.291216 1_555
Be10 Be7 2.291216 1_454
Be10 Be2 2.291216 1_555
Be10 Be4 2.291216 1_454
Be10 Cu1 2.410174 1_454
Be10 Cu0 2.410174 1_555
Be10 Cu3 2.410187 1_555
Be10 Cu5 2.410187 1_454
Be10 Zr5 2.846304 1_455
Be10 Zr4 2.846304 1_554
Be10 Zr1 2.846304 1_554
Be10 Zr0 2.846304 1_455
Be11 Be5 2.291216 1_545
Be11 Be3 2.291216 1_555
Be11 Cu7 2.410174 1_545
Be11 Cu6 2.410174 1_555
Be11 Cu4 2.410174 1_545
Be11 Cu2 2.410174 1_555
Be11 Zr4 2.846304 1_555
Be11 Zr5 2.846304 1_545
Be11 Zr0 2.846304 1_555
Be11 Zr1 2.846304 1_545
Be12 Be6 2.291216 1_555
Be12 Be7 2.291216 1_445
Be12 Be3 2.291216 1_555
Be12 Be5 2.291216 1_445
Be12 Cu1 2.410174 1_445
Be12 Cu0 2.410174 1_555
Be12 Cu2 2.410187 1_555
Be12 Cu4 2.410187 1_445
Be12 Zr1 2.846304 1_545
Be12 Zr3 2.846304 1_455
Be12 Zr0 2.846304 1_455
Be12 Zr2 2.846304 1_545
Be13 Be4 2.291216 1_554
Be13 Be2 2.291216 1_555
Be13 Cu7 2.410174 1_554
Be13 Cu6 2.410174 1_555
Be13 Cu5 2.410174 1_554
Be13 Cu3 2.410174 1_555
Be13 Zr0 2.846304 1_555
Be13 Zr1 2.846304 1_554
Be13 Zr2 2.846304 1_555
Be13 Zr3 2.846304 1_554
Al0 Cu5 2.463900 1_454
Al0 Cu3 2.463900 1_545
Al0 Cu4 2.463900 1_445
Al0 Cu2 2.463900 1_554
Al0 Cu7 2.463901 1_544
Al0 Cu6 2.463901 1_455
Al0 Cu0 2.463914 1_555
Al0 Cu1 2.463914 1_444
Cu0 Zr2 2.764694 1_545
Cu0 Zr4 2.764694 1_554
Cu0 Zr0 2.764694 1_455
Cu0 Cu7 2.845082 1_544
Cu0 Cu5 2.845082 1_454
Cu0 Cu4 2.845082 1_445
Cu1 Zr3 2.764694 1_565
Cu1 Zr5 2.764694 1_556
Cu1 Zr1 2.764694 1_655
Cu1 Cu6 2.845082 1_566
Cu1 Cu3 2.845082 1_656
Cu1 Cu2 2.845082 1_665
Cu2 Zr4 2.764682 1_555
Cu2 Zr1 2.764695 1_545
Cu2 Zr3 2.764696 1_455
Cu2 Cu7 2.845060 1_545
Cu2 Cu5 2.845060 1_455
Cu3 Zr2 2.764682 1_555
Cu3 Zr1 2.764696 1_554
Cu3 Zr5 2.764696 1_455
Cu3 Cu4 2.845060 1_455
Cu3 Cu7 2.845060 1_554
Cu4 Zr5 2.764682 1_555
Cu4 Zr0 2.764695 1_565
Cu4 Zr2 2.764696 1_655
Cu4 Cu6 2.845060 1_565
Cu5 Zr3 2.764682 1_555
Cu5 Zr0 2.764696 1_556
Cu5 Zr4 2.764696 1_655
Cu5 Cu6 2.845060 1_556
Cu6 Zr0 2.764682 1_555
Cu6 Zr5 2.764695 1_545
Cu6 Zr3 2.764696 1_554
Cu7 Zr1 2.764682 1_555
Cu7 Zr4 2.764695 1_565
Cu7 Zr2 2.764696 1_556
