# generated using pymatgen
data_Zr(Se2Cl3)2
_symmetry_space_group_name_H-M   'P 1'
_cell_length_a   10.96113226
_cell_length_b   11.03469702
_cell_length_c   10.68230651
_cell_angle_alpha   90.00000000
_cell_angle_beta   90.00000000
_cell_angle_gamma   90.00000000
_symmetry_Int_Tables_number   1
_chemical_formula_structural   Zr(Se2Cl3)2
_chemical_formula_sum   'Zr4 Se16 Cl24'
_cell_volume   1292.05459960
_cell_formula_units_Z   4
loop_
 _symmetry_equiv_pos_site_id
 _symmetry_equiv_pos_as_xyz
  1  'x, y, z'
loop_
 _atom_site_type_symbol
 _atom_site_label
 _atom_site_symmetry_multiplicity
 _atom_site_fract_x
 _atom_site_fract_y
 _atom_site_fract_z
 _atom_site_occupancy
  Zr  Zr0  1  0.50000000  -0.00000000  0.50000000  1
  Zr  Zr1  1  -0.00000000  0.50000000  0.50000000  1
  Zr  Zr2  1  -0.00000000  -0.00000000  0.00000000  1
  Zr  Zr3  1  0.50000000  0.50000000  0.00000000  1
  Se  Se0  1  0.10897757  0.89998626  0.50519459  1
  Se  Se1  1  0.39102243  0.60001374  0.50519459  1
  Se  Se2  1  0.60897757  0.10001374  0.99480541  1
  Se  Se3  1  0.89102243  0.39998626  0.99480541  1
  Se  Se4  1  0.89102243  0.10001374  0.49480541  1
  Se  Se5  1  0.60897757  0.39998626  0.49480541  1
  Se  Se6  1  0.39102243  0.89998626  0.00519459  1
  Se  Se7  1  0.10897757  0.60001374  0.00519459  1
  Se  Se8  1  0.91513748  0.90510615  0.41991951  1
  Se  Se9  1  0.58486252  0.59489385  0.41991951  1
  Se  Se10  1  0.41513748  0.09489385  0.08008049  1
  Se  Se11  1  0.08486252  0.40510615  0.08008049  1
  Se  Se12  1  0.08486252  0.09489385  0.58008049  1
  Se  Se13  1  0.41513748  0.40510615  0.58008049  1
  Se  Se14  1  0.58486252  0.90510615  0.91991951  1
  Se  Se15  1  0.91513748  0.59489385  0.91991951  1
  Cl  Cl0  1  0.66806742  0.04087504  0.34776006  1
  Cl  Cl1  1  0.83193258  0.45912496  0.34776006  1
  Cl  Cl2  1  0.16806742  0.95912496  0.15223994  1
  Cl  Cl3  1  0.33193258  0.54087504  0.15223994  1
  Cl  Cl4  1  0.33193258  0.95912496  0.65223994  1
  Cl  Cl5  1  0.16806742  0.54087504  0.65223994  1
  Cl  Cl6  1  0.83193258  0.04087504  0.84776006  1
  Cl  Cl7  1  0.66806742  0.45912496  0.84776006  1
  Cl  Cl8  1  0.42708532  0.83118329  0.36286138  1
  Cl  Cl9  1  0.07291468  0.66881671  0.36286138  1
  Cl  Cl10  1  0.92708532  0.16881671  0.13713862  1
  Cl  Cl11  1  0.57291468  0.33118329  0.13713862  1
  Cl  Cl12  1  0.57291468  0.16881671  0.63713862  1
  Cl  Cl13  1  0.92708532  0.33118329  0.63713862  1
  Cl  Cl14  1  0.07291468  0.83118329  0.86286138  1
  Cl  Cl15  1  0.42708532  0.66881671  0.86286138  1
  Cl  Cl16  1  0.63124316  0.85975554  0.61369561  1
  Cl  Cl17  1  0.86875684  0.64024446  0.61369561  1
  Cl  Cl18  1  0.13124316  0.14024446  0.88630439  1
  Cl  Cl19  1  0.36875684  0.35975554  0.88630439  1
  Cl  Cl20  1  0.63124316  0.64024446  0.11369561  1
  Cl  Cl21  1  0.86875684  0.85975554  0.11369561  1
  Cl  Cl22  1  0.13124316  0.35975554  0.38630439  1
  Cl  Cl23  1  0.36875684  0.14024446  0.38630439  1
loop_
_geom_bond_atom_site_label_1
_geom_bond_atom_site_label_2
_geom_bond_distance
_geom_bond_site_symmetry_2
Se0 Se12 2.309871 1_565
Se0 Se8 2.312439 1_455
Se1 Se13 2.309871 1_555
Se1 Se9 2.312439 1_555
Se4 Se8 2.309871 1_545
Se5 Se9 2.309871 1_555
Se10 Se6 2.309871 1_545
Se10 Se2 2.312439 1_554
Se11 Se7 2.309871 1_555
Se11 Se3 2.312439 1_454
Se12 Se4 2.312439 1_455
Se13 Se5 2.312439 1_555
Se14 Se2 2.309871 1_565
Se14 Se6 2.312439 1_556
Se15 Se3 2.309871 1_555
Se15 Se7 2.312439 1_656
Cl0 Zr0 2.498388 1_555
Cl0 Se4 2.977511 1_555
Cl1 Zr1 2.498388 1_655
Cl1 Se5 2.977511 1_555
Cl2 Zr2 2.498388 1_565
Cl2 Se6 2.977511 1_555
Cl3 Zr3 2.498388 1_555
Cl3 Se7 2.977511 1_555
Cl4 Zr0 2.498388 1_565
Cl4 Se0 2.977511 1_555
Cl5 Zr1 2.498388 1_555
Cl5 Se1 2.977511 1_555
Cl6 Zr2 2.498388 1_656
Cl6 Se2 2.977511 1_555
Cl7 Zr3 2.498388 1_556
Cl7 Se3 2.977511 1_555
Cl8 Zr0 2.501008 1_565
Cl8 Se1 2.995836 1_555
Cl9 Zr1 2.501008 1_555
Cl9 Se0 2.995836 1_555
Cl10 Zr2 2.501008 1_655
Cl10 Se3 2.995836 1_554
Cl11 Zr3 2.501008 1_555
Cl11 Se2 2.995836 1_554
Cl12 Zr0 2.501008 1_555
Cl12 Se5 2.995836 1_555
Cl13 Zr1 2.501008 1_655
Cl13 Se4 2.995836 1_555
Cl14 Zr2 2.501008 1_566
Cl14 Se7 2.995836 1_556
Cl15 Zr3 2.501008 1_556
Cl15 Se6 2.995836 1_556
Cl16 Zr0 2.437110 1_565
Cl17 Zr1 2.437110 1_655
Cl18 Zr2 2.437110 1_556
Cl19 Zr3 2.437110 1_556
Cl20 Zr3 2.437110 1_555
Cl21 Zr2 2.437110 1_665
Cl22 Zr1 2.437110 1_555
Cl23 Zr0 2.437110 1_555
