# generated using pymatgen
data_NbAg(OF)2
_symmetry_space_group_name_H-M   'P 1'
_cell_length_a   5.58333762
_cell_length_b   7.72753224
_cell_length_c   8.14383721
_cell_angle_alpha   77.44265545
_cell_angle_beta   90.00000000
_cell_angle_gamma   90.00000000
_symmetry_Int_Tables_number   1
_chemical_formula_structural   NbAg(OF)2
_chemical_formula_sum   'Nb4 Ag4 O8 F8'
_cell_volume   342.96414694
_cell_formula_units_Z   4
loop_
 _symmetry_equiv_pos_site_id
 _symmetry_equiv_pos_as_xyz
  1  'x, y, z'
loop_
 _atom_site_type_symbol
 _atom_site_label
 _atom_site_symmetry_multiplicity
 _atom_site_fract_x
 _atom_site_fract_y
 _atom_site_fract_z
 _atom_site_occupancy
  Nb  Nb0  1  0.73017477  0.68103646  0.15305768  1
  Nb  Nb1  1  0.23017477  0.81896354  0.84694232  1
  Nb  Nb2  1  0.26982523  0.31896354  0.84694232  1
  Nb  Nb3  1  0.76982523  0.18103646  0.15305768  1
  Ag  Ag0  1  0.79202688  0.10446991  0.64927430  1
  Ag  Ag1  1  0.20797312  0.89553009  0.35072570  1
  Ag  Ag2  1  0.70797312  0.60446991  0.64927430  1
  Ag  Ag3  1  0.29202688  0.39553009  0.35072570  1
  O  O0  1  0.44619538  0.79010046  0.03379499  1
  O  O1  1  0.94619538  0.70989954  0.96620501  1
  O  O2  1  0.84507686  0.94417022  0.17574183  1
  O  O3  1  0.65492314  0.44417022  0.17574183  1
  O  O4  1  0.55380462  0.20989954  0.96620501  1
  O  O5  1  0.05380462  0.29010046  0.03379499  1
  O  O6  1  0.15492314  0.05582978  0.82425817  1
  O  O7  1  0.34507686  0.55582978  0.82425817  1
  F  F0  1  0.45469044  0.30689210  0.63100915  1
  F  F1  1  0.50205639  0.88030521  0.67775798  1
  F  F2  1  0.95469044  0.19310790  0.36899085  1
  F  F3  1  0.49794361  0.11969479  0.32224202  1
  F  F4  1  0.00205639  0.61969479  0.32224202  1
  F  F5  1  0.99794361  0.38030521  0.67775798  1
  F  F6  1  0.54530956  0.69310790  0.36899085  1
  F  F7  1  0.04530956  0.80689210  0.63100915  1
loop_
_geom_bond_atom_site_label_1
_geom_bond_atom_site_label_2
_geom_bond_distance
_geom_bond_site_symmetry_2
Nb0 O3 1.847690 1_555
Nb0 O1 1.916362 1_554
Nb0 O0 1.952352 1_555
Nb0 O2 2.177992 1_555
Nb1 O6 1.847690 1_565
Nb1 O0 1.916362 1_556
Nb1 O1 1.952352 1_455
Nb1 O7 2.177992 1_555
Nb2 O7 1.847690 1_555
Nb2 O5 1.916362 1_556
Nb2 O4 1.952352 1_555
Nb2 O6 2.177992 1_555
Nb3 O2 1.847690 1_545
Nb3 O4 1.916362 1_554
Nb3 O5 1.952352 1_655
Nb3 O3 2.177992 1_555
Ag0 F1 2.345402 1_545
Ag0 F2 2.413366 1_555
Ag0 F0 2.432115 1_555
Ag0 O6 2.458553 1_655
Ag0 F5 2.476697 1_555
Ag0 F7 2.731046 1_645
Ag1 F3 2.345402 1_565
Ag1 F7 2.413366 1_555
Ag1 F6 2.432115 1_555
Ag1 O2 2.458553 1_455
Ag1 F4 2.476697 1_555
Ag1 F2 2.731046 1_465
Ag2 F5 2.345402 1_555
Ag2 F6 2.413366 1_555
Ag2 F7 2.432115 1_655
Ag2 O7 2.458553 1_555
Ag2 F1 2.476697 1_555
Ag2 F0 2.731046 1_555
Ag3 F4 2.345402 1_555
Ag3 F0 2.413366 1_555
Ag3 F2 2.432115 1_455
Ag3 O3 2.458553 1_555
Ag3 F3 2.476697 1_555
Ag3 F6 2.731046 1_555
F0 Nb2 2.058593 1_555
F1 Nb1 2.035536 1_555
F2 Nb3 2.058593 1_555
F3 Nb3 2.035536 1_555
F4 Nb0 2.035536 1_455
F5 Nb2 2.035536 1_655
F6 Nb0 2.058593 1_555
F7 Nb1 2.058593 1_555
