# generated using pymatgen
data_HfHg3(SeF3)2
_symmetry_space_group_name_H-M   'P 1'
_cell_length_a   7.29803372
_cell_length_b   4.99909151
_cell_length_c   12.63124394
_cell_angle_alpha   90.02979913
_cell_angle_beta   90.00000000
_cell_angle_gamma   90.00000000
_symmetry_Int_Tables_number   1
_chemical_formula_structural   HfHg3(SeF3)2
_chemical_formula_sum   'Hf2 Hg6 Se4 F12'
_cell_volume   460.83241151
_cell_formula_units_Z   2
loop_
 _symmetry_equiv_pos_site_id
 _symmetry_equiv_pos_as_xyz
  1  'x, y, z'
loop_
 _atom_site_type_symbol
 _atom_site_label
 _atom_site_symmetry_multiplicity
 _atom_site_fract_x
 _atom_site_fract_y
 _atom_site_fract_z
 _atom_site_occupancy
  Hf  Hf0  1  0.50000000  0.50000000  0.50000000  1
  Hf  Hf1  1  0.00000000  0.50000000  0.00000000  1
  Hg  Hg0  1  0.25101592  0.00048605  0.74994767  1
  Hg  Hg1  1  0.75101592  0.99951395  0.75005233  1
  Hg  Hg2  1  0.24898408  0.00048605  0.24994767  1
  Hg  Hg3  1  0.50000000  0.00000000  0.00000000  1
  Hg  Hg4  1  0.74898408  0.99951395  0.25005233  1
  Hg  Hg5  1  0.00000000  0.00000000  0.50000000  1
  Se  Se0  1  0.49899855  0.72758509  0.16663579  1
  Se  Se1  1  0.99899855  0.27241491  0.33336421  1
  Se  Se2  1  0.00100145  0.72758509  0.66663579  1
  Se  Se3  1  0.50100145  0.27241491  0.83336421  1
  F  F0  1  0.30467164  0.72620086  0.43480902  1
  F  F1  1  0.30343549  0.27636546  0.56532459  1
  F  F2  1  0.00082153  0.27569758  0.86899084  1
  F  F3  1  0.19656451  0.27636546  0.06532459  1
  F  F4  1  0.69656451  0.72363454  0.43467541  1
  F  F5  1  0.19532836  0.72620086  0.93480902  1
  F  F6  1  0.49917847  0.27569758  0.36899084  1
  F  F7  1  0.80467164  0.27379914  0.06519098  1
  F  F8  1  0.99917847  0.72430242  0.13100916  1
  F  F9  1  0.50082153  0.72430242  0.63100916  1
  F  F10  1  0.69532836  0.27379914  0.56519098  1
  F  F11  1  0.80343549  0.72363454  0.93467541  1
loop_
_geom_bond_atom_site_label_1
_geom_bond_atom_site_label_2
_geom_bond_distance
_geom_bond_site_symmetry_2
Hg0 Se3 2.507011 1_555
Hg0 Se2 2.509248 1_545
Hg1 Se2 2.507011 1_655
Hg1 Se3 2.509248 1_565
Hg2 Se1 2.507011 1_455
Hg2 Se0 2.509248 1_545
Hg3 Se0 2.507561 1_545
Hg3 Se3 2.507561 1_554
Hg4 Se0 2.507011 1_555
Hg4 Se1 2.509248 1_565
Hg5 Se2 2.507561 1_545
Hg5 Se1 2.507561 1_455
F0 Hf0 1.997453 1_555
F1 Hf0 1.997385 1_555
F2 Hf1 1.998457 1_556
F3 Hf1 1.997385 1_555
F4 Hf0 1.997385 1_555
F5 Hf1 1.997453 1_556
F6 Hf0 1.998457 1_555
F7 Hf1 1.997453 1_655
F8 Hf1 1.998457 1_655
F9 Hf0 1.998457 1_555
F10 Hf0 1.997453 1_555
F11 Hf1 1.997385 1_656
