# generated using pymatgen
data_Rb2Ga6ReIr
_symmetry_space_group_name_H-M   'P 1'
_cell_length_a   6.92801222
_cell_length_b   6.92801216
_cell_length_c   6.92801274
_cell_angle_alpha   120.00000276
_cell_angle_beta   120.00000248
_cell_angle_gamma   60.00000877
_symmetry_Int_Tables_number   1
_chemical_formula_structural   Rb2Ga6ReIr
_chemical_formula_sum   'Rb2 Ga6 Re1 Ir1'
_cell_volume   235.13158876
_cell_formula_units_Z   1
loop_
 _symmetry_equiv_pos_site_id
 _symmetry_equiv_pos_as_xyz
  1  'x, y, z'
loop_
 _atom_site_type_symbol
 _atom_site_label
 _atom_site_symmetry_multiplicity
 _atom_site_fract_x
 _atom_site_fract_y
 _atom_site_fract_z
 _atom_site_occupancy
  Rb  Rb0  1  0.74999900  0.74999900  0.24999800  1
  Rb  Rb1  1  0.25000000  0.25000000  0.74999900  1
  Ga  Ga0  1  0.25026313  0.25026313  0.25026213  1
  Ga  Ga1  1  0.74973787  0.25026413  0.25026413  1
  Ga  Ga2  1  0.25026413  0.74973787  0.25026413  1
  Ga  Ga3  1  0.74973687  0.25026313  0.74973687  1
  Ga  Ga4  1  0.25026313  0.74973687  0.74973687  1
  Ga  Ga5  1  0.74973787  0.74973787  0.74973687  1
  Re  Re0  1  0.00000000  0.00000000  0.00000000  1
  Ir  Ir0  1  0.50000000  0.50000000  0.50000000  1
loop_
_geom_bond_atom_site_label_1
_geom_bond_atom_site_label_2
_geom_bond_distance
_geom_bond_site_symmetry_2
Ga0 Ir0 2.446844 1_555
Ga0 Re0 2.452000 1_555
Ga0 Rb1 3.464007 1_554
Ga0 Rb1 3.464007 1_555
Ga0 Rb0 3.464008 1_545
Ga0 Rb0 3.464008 1_455
Ga1 Ir0 2.446844 1_555
Ga1 Re0 2.452001 1_655
Ga1 Rb0 3.463997 1_555
Ga1 Rb1 3.463997 1_655
Ga1 Rb0 3.464017 1_545
Ga1 Rb1 3.464017 1_554
Ga2 Ir0 2.446844 1_555
Ga2 Re0 2.452001 1_565
Ga2 Rb1 3.463997 1_565
Ga2 Rb0 3.463997 1_555
Ga2 Rb1 3.464017 1_554
Ga2 Rb0 3.464017 1_455
Ga3 Ir0 2.446844 1_555
Ga3 Re0 2.452001 1_656
Ga3 Rb0 3.463997 1_556
Ga3 Rb1 3.464004 1_555
Ga3 Rb1 3.464011 1_655
Ga3 Rb0 3.464017 1_545
Ga4 Ir0 2.446844 1_555
Ga4 Re0 2.452001 1_566
Ga4 Rb0 3.463997 1_556
Ga4 Rb1 3.464004 1_555
Ga4 Rb1 3.464011 1_565
Ga4 Rb0 3.464017 1_455
Ga5 Ir0 2.446854 1_555
Ga5 Re0 2.451990 1_666
Ga5 Rb0 3.464007 1_555
Ga5 Rb0 3.464007 1_556
Ga5 Rb1 3.464008 1_565
Ga5 Rb1 3.464008 1_655
