# generated using pymatgen
data_BaIn2AgPb
_symmetry_space_group_name_H-M   'P 1'
_cell_length_a   7.05318010
_cell_length_b   7.05318054
_cell_length_c   7.05318082
_cell_angle_alpha   139.24615807
_cell_angle_beta   139.24615741
_cell_angle_gamma   58.99970820
_symmetry_Int_Tables_number   1
_chemical_formula_structural   BaIn2AgPb
_chemical_formula_sum   'Ba1 In2 Ag1 Pb1'
_cell_volume   148.10037142
_cell_formula_units_Z   1
loop_
 _symmetry_equiv_pos_site_id
 _symmetry_equiv_pos_as_xyz
  1  'x, y, z'
loop_
 _atom_site_type_symbol
 _atom_site_label
 _atom_site_symmetry_multiplicity
 _atom_site_fract_x
 _atom_site_fract_y
 _atom_site_fract_z
 _atom_site_occupancy
  Ba  Ba0  1  0.98649612  0.98649612  1.00000000  1
  In  In0  1  0.74890382  0.24890382  0.50000000  1
  In  In1  1  0.24890382  0.74890382  0.50000000  1
  Ag  Ag0  1  0.36077332  0.36077332  1.00000000  1
  Pb  Pb0  1  0.59297392  0.59297392  0.00000000  1
loop_
_geom_bond_atom_site_label_1
_geom_bond_atom_site_label_2
_geom_bond_distance
_geom_bond_site_symmetry_2
Ba0 Pb0 3.711021 1_656
Ba0 Pb0 3.711022 1_566
Ba0 Pb0 3.711022 1_667
Ba0 Pb0 3.711022 1_555
Ba0 In1 3.813208 1_555
Ba0 In0 3.813208 1_555
Ba0 In0 3.813208 1_566
Ba0 In1 3.813208 1_656
Ba0 In0 4.051034 1_666
Ba0 In1 4.051034 1_666
Ba0 In1 4.051034 1_655
Ba0 In0 4.051034 1_565
In0 Pb0 3.113908 1_545
In0 Pb0 3.113908 1_556
In1 Pb0 3.113907 1_455
In1 Pb0 3.113908 1_556
Ag0 In0 2.813859 1_455
Ag0 In1 2.813859 1_545
Ag0 In1 2.813859 1_556
Ag0 In0 2.813859 1_556
Ag0 Pb0 2.850859 1_556
Ag0 Ba0 3.800695 1_545
Ag0 Ba0 3.800696 1_455
Ag0 Ba0 3.800696 1_556
Ag0 Ba0 3.800696 1_444
