# generated using pymatgen
data_Lu3Cu6Ni7B2
_symmetry_space_group_name_H-M   'P 1'
_cell_length_a   4.92365034
_cell_length_b   4.91738497
_cell_length_c   10.81625933
_cell_angle_alpha   90.00000000
_cell_angle_beta   90.00000000
_cell_angle_gamma   119.95789678
_symmetry_Int_Tables_number   1
_chemical_formula_structural   Lu3Cu6Ni7B2
_chemical_formula_sum   'Lu3 Cu6 Ni7 B2'
_cell_volume   226.88889171
_cell_formula_units_Z   1
loop_
 _symmetry_equiv_pos_site_id
 _symmetry_equiv_pos_as_xyz
  1  'x, y, z'
loop_
 _atom_site_type_symbol
 _atom_site_label
 _atom_site_symmetry_multiplicity
 _atom_site_fract_x
 _atom_site_fract_y
 _atom_site_fract_z
 _atom_site_occupancy
  Lu  Lu0  1  0.00000000  0.00000000  0.00000000  1
  Lu  Lu1  1  0.00000000  0.00000000  0.67885375  1
  Lu  Lu2  1  0.00000000  0.00000000  0.32114625  1
  Cu  Cu0  1  0.50000000  0.50000000  0.50000000  1
  Cu  Cu1  1  0.50000000  0.00000000  0.50000000  1
  Cu  Cu2  1  0.67049094  0.33524547  0.68382712  1
  Cu  Cu3  1  0.32950906  0.66475453  0.68382712  1
  Cu  Cu4  1  0.32950906  0.66475453  0.31617288  1
  Cu  Cu5  1  0.67049094  0.33524547  0.31617288  1
  Ni  Ni0  1  0.00000000  0.50000000  0.50000000  1
  Ni  Ni1  1  0.50000000  0.50000000  0.86914589  1
  Ni  Ni2  1  0.50000000  0.00000000  0.86914589  1
  Ni  Ni3  1  0.00000000  0.50000000  0.86903309  1
  Ni  Ni4  1  0.50000000  0.50000000  0.13085411  1
  Ni  Ni5  1  0.50000000  0.00000000  0.13085411  1
  Ni  Ni6  1  0.00000000  0.50000000  0.13096691  1
  B  B0  1  0.66711718  0.33355859  0.00000000  1
  B  B1  1  0.33288282  0.66644141  0.00000000  1
loop_
_geom_bond_atom_site_label_1
_geom_bond_atom_site_label_2
_geom_bond_distance
_geom_bond_site_symmetry_2
Lu0 Ni6 2.837577 1_545
Lu0 Ni6 2.837577 1_555
Lu0 Ni3 2.837577 1_554
Lu0 Ni3 2.837577 1_544
Lu0 Ni5 2.839684 1_455
Lu0 Ni5 2.839684 1_555
Lu0 Ni2 2.839684 1_554
Lu0 Ni2 2.839684 1_454
Lu0 Ni4 2.839684 1_555
Lu0 Ni4 2.839684 1_445
Lu0 Ni1 2.839684 1_554
Lu0 Ni1 2.839684 1_444
Lu1 Ni0 3.128509 1_555
Lu1 Ni0 3.128509 1_545
Lu2 Ni0 3.128509 1_545
Lu2 Ni0 3.128509 1_555
Cu0 Cu2 2.448194 1_555
Cu0 Cu3 2.448194 1_555
Cu0 Cu5 2.448194 1_555
Cu0 Cu4 2.448194 1_555
Cu0 Cu1 2.458692 1_565
Cu0 Cu1 2.458692 1_555
Cu0 Ni0 2.461825 1_655
Cu0 Ni0 2.461825 1_555
Cu0 Lu1 3.130972 1_665
Cu0 Lu1 3.130972 1_555
Cu0 Lu2 3.130972 1_555
Cu0 Lu2 3.130972 1_665
Cu1 Cu2 2.448194 1_555
Cu1 Cu3 2.448194 1_545
Cu1 Cu5 2.448194 1_555
Cu1 Cu4 2.448194 1_545
Cu1 Ni0 2.461826 1_545
Cu1 Ni0 2.461826 1_655
Cu1 Lu1 3.130972 1_555
Cu1 Lu1 3.130972 1_655
Cu1 Lu2 3.130972 1_555
Cu1 Lu2 3.130972 1_655
Cu2 Ni0 2.434996 1_655
Cu2 Ni3 2.447189 1_655
Cu2 Ni1 2.461316 1_555
Cu2 Ni2 2.461316 1_555
Cu2 Lu1 2.832638 1_655
Cu2 Lu1 2.832639 1_665
Cu2 Lu1 2.860696 1_555
Cu3 Ni0 2.434996 1_555
Cu3 Ni3 2.447189 1_555
Cu3 Ni1 2.461316 1_555
Cu3 Ni2 2.461316 1_565
Cu3 Lu1 2.832638 1_565
Cu3 Lu1 2.832639 1_555
Cu3 Lu1 2.860696 1_665
Cu4 Ni0 2.434996 1_555
Cu4 Ni6 2.447189 1_555
Cu4 Ni4 2.461316 1_555
Cu4 Ni5 2.461316 1_565
Cu4 Lu2 2.832638 1_565
Cu4 Lu2 2.832639 1_555
Cu4 Lu2 2.860696 1_665
Cu5 Ni0 2.434996 1_655
Cu5 Ni6 2.447189 1_655
Cu5 Ni4 2.461316 1_555
Cu5 Ni5 2.461316 1_555
Cu5 Lu2 2.832638 1_655
Cu5 Lu2 2.832639 1_665
Cu5 Lu2 2.860696 1_555
B0 Ni4 2.005674 1_555
B0 Ni1 2.005674 1_554
B0 Ni5 2.005674 1_555
B0 Ni2 2.005674 1_554
B0 Ni6 2.005772 1_655
B0 Ni3 2.005772 1_654
B0 Lu0 2.839298 1_655
B0 Lu0 2.839299 1_665
B0 Lu0 2.845798 1_555
B1 Ni4 2.005674 1_555
B1 Ni1 2.005674 1_554
B1 Ni5 2.005674 1_565
B1 Ni2 2.005674 1_564
B1 Ni6 2.005772 1_555
B1 Ni3 2.005772 1_554
B1 Lu0 2.839298 1_565
B1 Lu0 2.839299 1_555
B1 Lu0 2.845798 1_665
