# generated using pymatgen
data_Zr2Ti2MoOs
_symmetry_space_group_name_H-M   'P 1'
_cell_length_a   5.41110969
_cell_length_b   5.28025502
_cell_length_c   5.41110909
_cell_angle_alpha   121.91986354
_cell_angle_beta   118.12313304
_cell_angle_gamma   90.74485574
_symmetry_Int_Tables_number   1
_chemical_formula_structural   Zr2Ti2MoOs
_chemical_formula_sum   'Zr2 Ti2 Mo1 Os1'
_cell_volume   108.40161610
_cell_formula_units_Z   1
loop_
 _symmetry_equiv_pos_site_id
 _symmetry_equiv_pos_as_xyz
  1  'x, y, z'
loop_
 _atom_site_type_symbol
 _atom_site_label
 _atom_site_symmetry_multiplicity
 _atom_site_fract_x
 _atom_site_fract_y
 _atom_site_fract_z
 _atom_site_occupancy
  Zr  Zr0  1  0.37246865  0.12231933  0.24984968  1
  Zr  Zr1  1  0.62753135  0.87768067  0.75015032  1
  Ti  Ti0  1  0.50000000  0.50000000  0.00000000  1
  Ti  Ti1  1  0.00000000  0.50000000  0.50000000  1
  Mo  Mo0  1  0.00000000  0.50000000  0.00000000  1
  Os  Os0  1  0.00000000  0.00000000  0.50000000  1
loop_
_geom_bond_atom_site_label_1
_geom_bond_atom_site_label_2
_geom_bond_distance
_geom_bond_site_symmetry_2
Zr0 Zr1 3.171470 1_555
Zr0 Zr1 3.279595 1_544
Zr0 Zr1 3.335294 1_444
Zr0 Zr1 3.335303 1_545
Ti0 Ti1 2.781942 1_554
Ti0 Ti1 2.781942 1_655
Ti0 Zr0 3.056551 1_565
Ti0 Zr1 3.056551 1_544
Ti0 Zr0 3.113398 1_554
Ti0 Zr1 3.113398 1_555
Ti0 Zr1 3.158467 1_554
Ti0 Zr0 3.158467 1_555
Ti1 Zr1 3.056548 1_444
Ti1 Zr0 3.056548 1_566
Ti1 Zr0 3.113396 1_555
Ti1 Zr1 3.113396 1_455
Ti1 Zr1 3.158470 1_555
Ti1 Zr0 3.158470 1_455
Mo0 Os0 2.595537 1_565
Mo0 Os0 2.595537 1_554
Mo0 Ti1 2.705555 1_555
Mo0 Ti1 2.705555 1_554
Mo0 Ti0 2.705555 1_455
Mo0 Ti0 2.705555 1_555
Mo0 Zr0 3.041200 1_565
Mo0 Zr1 3.041200 1_444
Mo0 Zr1 3.202146 1_454
Mo0 Zr0 3.202146 1_555
Mo0 Zr0 3.202151 1_454
Mo0 Zr1 3.202151 1_555
Os0 Ti1 2.640128 1_545
Os0 Ti1 2.640128 1_555
Os0 Ti0 2.640128 1_556
Os0 Ti0 2.640128 1_445
Os0 Zr0 3.126343 1_555
Os0 Zr1 3.126343 1_445
Os0 Zr1 3.229260 1_444
Os0 Zr0 3.229260 1_556
Os0 Zr1 3.229265 1_545
Os0 Zr0 3.229265 1_455
