# generated using pymatgen
data_Hf5Zr3(Pt2N)2
_symmetry_space_group_name_H-M   'P 1'
_cell_length_a   8.76916868
_cell_length_b   8.76916880
_cell_length_c   8.76916944
_cell_angle_alpha   60.00000129
_cell_angle_beta   60.00000085
_cell_angle_gamma   60.00000101
_symmetry_Int_Tables_number   1
_chemical_formula_structural   Hf5Zr3(Pt2N)2
_chemical_formula_sum   'Hf10 Zr6 Pt8 N4'
_cell_volume   476.82643896
_cell_formula_units_Z   2
loop_
 _symmetry_equiv_pos_site_id
 _symmetry_equiv_pos_as_xyz
  1  'x, y, z'
loop_
 _atom_site_type_symbol
 _atom_site_label
 _atom_site_symmetry_multiplicity
 _atom_site_fract_x
 _atom_site_fract_y
 _atom_site_fract_z
 _atom_site_occupancy
  Hf  Hf0  1  0.12416805  0.62527765  0.62527765  1
  Hf  Hf1  1  0.62527765  0.12416805  0.62527765  1
  Hf  Hf2  1  0.62527765  0.62527765  0.12416805  1
  Hf  Hf3  1  0.62527765  0.62527765  0.62527765  1
  Hf  Hf4  1  0.81804783  0.81804783  0.18195217  1
  Hf  Hf5  1  0.18195217  0.18195217  0.81804783  1
  Hf  Hf6  1  0.81804783  0.18195217  0.81804783  1
  Hf  Hf7  1  0.18195217  0.81804783  0.18195217  1
  Hf  Hf8  1  0.18195217  0.81804783  0.81804783  1
  Hf  Hf9  1  0.81804783  0.18195217  0.18195217  1
  Zr  Zr0  1  0.43384075  0.43384075  0.06615925  1
  Zr  Zr1  1  0.06615925  0.06615925  0.43384075  1
  Zr  Zr2  1  0.43384075  0.06615925  0.43384075  1
  Zr  Zr3  1  0.06615925  0.43384075  0.06615925  1
  Zr  Zr4  1  0.06615925  0.43384075  0.43384075  1
  Zr  Zr5  1  0.43384075  0.06615925  0.06615925  1
  Pt  Pt0  1  0.77800723  0.40733126  0.40733126  1
  Pt  Pt1  1  0.40733126  0.77800723  0.40733126  1
  Pt  Pt2  1  0.40733126  0.40733126  0.77800723  1
  Pt  Pt3  1  0.40733126  0.40733126  0.40733126  1
  Pt  Pt4  1  0.46615106  0.84461631  0.84461631  1
  Pt  Pt5  1  0.84461631  0.46615106  0.84461631  1
  Pt  Pt6  1  0.84461631  0.84461631  0.46615106  1
  Pt  Pt7  1  0.84461631  0.84461631  0.84461631  1
  N  N0  1  0.63186813  0.12271096  0.12271096  1
  N  N1  1  0.12271096  0.63186813  0.12271096  1
  N  N2  1  0.12271096  0.12271096  0.63186813  1
  N  N3  1  0.12271096  0.12271096  0.12271096  1
loop_
_geom_bond_atom_site_label_1
_geom_bond_atom_site_label_2
_geom_bond_distance
_geom_bond_site_symmetry_2
Hf0 Pt1 2.762699 1_555
Hf0 Pt2 2.762699 1_555
Hf0 Pt3 2.762699 1_555
Hf0 Pt7 2.770898 1_455
Hf0 Pt5 2.770903 1_455
Hf0 Pt6 2.770903 1_455
Hf1 Pt0 2.762699 1_555
Hf1 Pt2 2.762699 1_555
Hf1 Pt3 2.762699 1_555
Hf1 Pt7 2.770898 1_545
Hf1 Pt4 2.770903 1_545
Hf1 Pt6 2.770903 1_545
Hf2 Pt3 2.762699 1_555
Hf2 Pt1 2.762699 1_555
Hf2 Pt0 2.762699 1_555
Hf2 Pt7 2.770898 1_554
Hf2 Pt5 2.770903 1_554
Hf2 Pt4 2.770903 1_554
Hf3 Pt2 2.762699 1_555
Hf3 Pt1 2.762699 1_555
Hf3 Pt0 2.762699 1_555
Hf3 Pt6 2.770896 1_555
Hf3 Pt5 2.770896 1_555
Hf3 Pt4 2.770896 1_555
Hf4 N1 2.274088 1_655
Hf4 N0 2.274088 1_565
Hf4 Pt6 2.745018 1_555
Hf4 Pt7 2.745018 1_554
Hf5 N2 2.274082 1_555
Hf5 N3 2.274090 1_556
Hf5 Pt5 2.745018 1_455
Hf5 Pt4 2.745018 1_545
Hf6 N2 2.274088 1_655
Hf6 N0 2.274088 1_556
Hf6 Pt5 2.745018 1_555
Hf6 Pt7 2.745018 1_545
Hf7 N1 2.274082 1_555
Hf7 N3 2.274090 1_565
Hf7 Pt6 2.745018 1_455
Hf7 Pt4 2.745018 1_554
Hf8 N2 2.274088 1_565
Hf8 N1 2.274088 1_556
Hf8 Pt7 2.745018 1_455
Hf8 Pt4 2.745018 1_555
Hf9 N0 2.274082 1_555
Hf9 N3 2.274090 1_655
Hf9 Pt6 2.745018 1_545
Hf9 Pt5 2.745018 1_554
Pt0 Zr4 2.778836 1_655
Pt0 Zr1 2.778841 1_655
Pt0 Zr3 2.778841 1_655
Pt1 Zr2 2.778836 1_565
Pt1 Zr1 2.778841 1_565
Pt1 Zr5 2.778841 1_565
Pt2 Zr0 2.778836 1_556
Pt2 Zr3 2.778841 1_556
Pt2 Zr5 2.778841 1_556
Pt3 Zr4 2.778844 1_555
Pt3 Zr2 2.778844 1_555
Pt3 Zr0 2.778845 1_555
Pt4 Zr0 3.209702 1_556
Pt4 Zr5 3.209702 1_566
Pt4 Zr2 3.209702 1_565
Pt5 Zr0 3.209702 1_556
Pt5 Zr3 3.209702 1_656
Pt5 Zr4 3.209702 1_655
Pt6 Zr1 3.209702 1_665
Pt6 Zr2 3.209702 1_565
Pt6 Zr4 3.209702 1_655
Pt7 Zr5 3.209702 1_566
Pt7 Zr3 3.209702 1_656
Pt7 Zr1 3.209702 1_665
N0 Zr0 2.340010 1_555
N0 Zr2 2.340010 1_555
N0 Zr5 2.340016 1_555
N1 Zr0 2.340010 1_555
N1 Zr4 2.340010 1_555
N1 Zr3 2.340016 1_555
N2 Zr2 2.340010 1_555
N2 Zr4 2.340010 1_555
N2 Zr1 2.340016 1_555
N3 Zr5 2.340008 1_555
N3 Zr3 2.340008 1_555
N3 Zr1 2.340008 1_555
