# generated using pymatgen
data_KCuWS4
_symmetry_space_group_name_H-M   'P 1'
_cell_length_a   6.42504900
_cell_length_b   6.42505000
_cell_length_c   6.42504946
_cell_angle_alpha   129.28603936
_cell_angle_beta   99.84256939
_cell_angle_gamma   101.29533035
_symmetry_Int_Tables_number   1
_chemical_formula_structural   KCuWS4
_chemical_formula_sum   'K1 Cu1 W1 S4'
_cell_volume   185.48994322
_cell_formula_units_Z   1
loop_
 _symmetry_equiv_pos_site_id
 _symmetry_equiv_pos_as_xyz
  1  'x, y, z'
loop_
 _atom_site_type_symbol
 _atom_site_label
 _atom_site_symmetry_multiplicity
 _atom_site_fract_x
 _atom_site_fract_y
 _atom_site_fract_z
 _atom_site_occupancy
  K  K0  1  0.50000000  0.00000000  0.50000000  1
  Cu  Cu0  1  0.00000000  0.50000000  0.50000000  1
  W  W0  1  0.00000000  0.00000000  0.00000000  1
  S  S0  1  0.00016777  0.39128873  0.08282479  1
  S  S1  1  0.30846394  0.91734398  0.91717521  1
  S  S2  1  0.99983223  0.08265602  0.39112095  1
  S  S3  1  0.69153606  0.60871127  0.60887905  1
loop_
_geom_bond_atom_site_label_1
_geom_bond_atom_site_label_2
_geom_bond_distance
_geom_bond_site_symmetry_2
K0 S2 3.386605 1_455
K0 S0 3.386607 1_656
K0 S3 3.386608 1_545
K0 S1 3.386612 1_544
K0 S1 3.413975 1_545
K0 S2 3.413977 1_555
K0 S0 3.413978 1_545
K0 S3 3.413978 1_555
Cu0 S3 2.302749 1_455
Cu0 S0 2.302749 1_555
Cu0 S1 2.302750 1_555
Cu0 S2 2.302755 1_455
S0 W0 2.215430 1_555
S1 W0 2.215428 1_566
S2 W0 2.215433 1_655
S3 W0 2.215430 1_666
