# generated using pymatgen
data_Sc4Si6Ir4Pt3
_symmetry_space_group_name_H-M   'P 1'
_cell_length_a   6.97394674
_cell_length_b   6.97394580
_cell_length_c   6.97998274
_cell_angle_alpha   109.48875128
_cell_angle_beta   109.48874855
_cell_angle_gamma   109.45368570
_symmetry_Int_Tables_number   1
_chemical_formula_structural   Sc4Si6Ir4Pt3
_chemical_formula_sum   'Sc4 Si6 Ir4 Pt3'
_cell_volume   261.27367438
_cell_formula_units_Z   1
loop_
 _symmetry_equiv_pos_site_id
 _symmetry_equiv_pos_as_xyz
  1  'x, y, z'
loop_
 _atom_site_type_symbol
 _atom_site_label
 _atom_site_symmetry_multiplicity
 _atom_site_fract_x
 _atom_site_fract_y
 _atom_site_fract_z
 _atom_site_occupancy
  Sc  Sc0  1  0.00000000  0.00000000  0.50000000  1
  Sc  Sc1  1  0.00727433  0.50363767  0.00363767  1
  Sc  Sc2  1  0.49636233  0.99272567  0.99636233  1
  Sc  Sc3  1  0.49636233  0.50363767  0.50000000  1
  Si  Si0  1  0.67869058  0.68441902  0.99969760  1
  Si  Si1  1  0.31558098  0.99427155  0.31527958  1
  Si  Si2  1  0.00572845  0.32130942  0.32100703  1
  Si  Si3  1  0.31558098  0.32130942  0.00030240  1
  Si  Si4  1  0.67869058  0.99427155  0.67899297  1
  Si  Si5  1  0.00572845  0.68441902  0.68472042  1
  Ir  Ir0  1  0.24901064  0.49802129  0.74901064  1
  Ir  Ir1  1  0.24901064  0.75098936  0.50000000  1
  Ir  Ir2  1  0.50197871  0.75098936  0.25098936  1
  Ir  Ir3  1  0.00000000  0.00000000  0.00000000  1
  Pt  Pt0  1  0.74906204  0.25093796  0.50000000  1
  Pt  Pt1  1  0.74906204  0.49812509  0.24906204  1
  Pt  Pt2  1  0.50187491  0.25093796  0.75093796  1
loop_
_geom_bond_atom_site_label_1
_geom_bond_atom_site_label_2
_geom_bond_distance
_geom_bond_site_symmetry_2
Sc0 Si5 2.902641 1_545
Sc0 Si1 2.902641 1_545
Sc0 Si2 2.902646 1_555
Sc0 Si4 2.902646 1_445
Sc0 Si3 2.902646 1_556
Sc0 Si0 2.902646 1_444
Sc1 Si1 2.841664 1_555
Sc1 Si3 2.841669 1_555
Sc1 Si2 2.900083 1_555
Sc1 Si5 2.900091 1_554
Sc1 Si0 2.957502 1_454
Sc1 Si4 2.957508 1_444
Sc2 Si5 2.841664 1_555
Sc2 Si0 2.841669 1_555
Sc2 Si4 2.900083 1_555
Sc2 Si1 2.900091 1_556
Sc2 Si3 2.957502 1_566
Sc2 Si2 2.957508 1_666
Sc3 Si4 2.841662 1_555
Sc3 Si2 2.841663 1_555
Sc3 Si3 2.900084 1_555
Sc3 Si0 2.900084 1_555
Sc3 Si1 2.957509 1_545
Sc3 Si5 2.957510 1_655
Ir0 Si3 2.467979 1_556
Ir0 Si2 2.467980 1_555
Ir0 Si0 2.473871 1_555
Ir0 Si5 2.473872 1_555
Ir0 Sc2 2.816642 1_555
Ir0 Sc3 2.828277 1_555
Ir0 Sc1 2.828282 1_556
Ir0 Sc0 2.835527 1_555
Ir1 Si1 2.467974 1_555
Ir1 Si5 2.467974 1_555
Ir1 Si2 2.473871 1_555
Ir1 Si4 2.473871 1_555
Ir1 Sc3 2.816637 1_555
Ir1 Sc1 2.828277 1_555
Ir1 Sc2 2.828277 1_555
Ir1 Sc0 2.835528 1_565
Ir2 Si0 2.467980 1_554
Ir2 Si4 2.467980 1_555
Ir2 Si3 2.473871 1_555
Ir2 Si1 2.473872 1_555
Ir2 Sc1 2.816643 1_555
Ir2 Sc3 2.828277 1_555
Ir2 Sc2 2.828282 1_554
Ir2 Sc0 2.835528 1_665
Ir3 Si3 2.563925 1_555
Ir3 Si0 2.563925 1_444
Ir3 Si2 2.563925 1_555
Ir3 Si4 2.563926 1_444
Ir3 Si5 2.563930 1_544
Ir3 Si1 2.563930 1_545
Pt0 Si5 2.502066 1_655
Pt0 Si1 2.502066 1_545
Pt0 Si4 2.514351 1_545
Pt0 Si2 2.514351 1_655
Pt0 Sc0 2.857474 1_655
Pt0 Sc2 2.869662 1_544
Pt0 Sc1 2.869662 1_656
Pt0 Sc3 2.877536 1_555
Pt1 Si3 2.502065 1_555
Pt1 Si2 2.502071 1_655
Pt1 Si0 2.514345 1_554
Pt1 Si5 2.514347 1_655
Pt1 Sc0 2.857468 1_665
Pt1 Sc1 2.869656 1_655
Pt1 Sc3 2.869661 1_555
Pt1 Sc2 2.877535 1_544
Pt2 Si0 2.502064 1_555
Pt2 Si4 2.502071 1_545
Pt2 Si3 2.514346 1_556
Pt2 Si1 2.514347 1_545
Pt2 Sc0 2.857469 1_555
Pt2 Sc2 2.869655 1_545
Pt2 Sc3 2.869661 1_555
Pt2 Sc1 2.877536 1_656
