# generated using pymatgen
data_Sr2TaCrH10
_symmetry_space_group_name_H-M   'P 1'
_cell_length_a   4.63113442
_cell_length_b   5.13620817
_cell_length_c   12.43401510
_cell_angle_alpha   90.00125344
_cell_angle_beta   90.00000000
_cell_angle_gamma   90.00000000
_symmetry_Int_Tables_number   1
_chemical_formula_structural   Sr2TaCrH10
_chemical_formula_sum   'Sr4 Ta2 Cr2 H20'
_cell_volume   295.76133273
_cell_formula_units_Z   2
loop_
 _symmetry_equiv_pos_site_id
 _symmetry_equiv_pos_as_xyz
  1  'x, y, z'
loop_
 _atom_site_type_symbol
 _atom_site_label
 _atom_site_symmetry_multiplicity
 _atom_site_fract_x
 _atom_site_fract_y
 _atom_site_fract_z
 _atom_site_occupancy
  Sr  Sr0  1  0.26743774  0.24981836  0.64926783  1
  Sr  Sr1  1  0.76743774  0.25018164  0.35073217  1
  Sr  Sr2  1  0.23595000  0.75020496  0.16138668  1
  Sr  Sr3  1  0.73595000  0.74979504  0.83861332  1
  Ta  Ta0  1  0.26709252  0.24962407  0.93494406  1
  Ta  Ta1  1  0.76709252  0.25037593  0.06505594  1
  Cr  Cr0  1  0.21623676  0.75006605  0.42584662  1
  Cr  Cr1  1  0.71623676  0.74993395  0.57415338  1
  H  H0  1  0.49938731  0.54015158  0.49838860  1
  H  H1  1  0.99938731  0.95984842  0.50161140  1
  H  H2  1  0.02077828  0.49948610  0.99915125  1
  H  H3  1  0.52077828  0.00051390  0.00084875  1
  H  H4  1  0.20099034  0.99172796  0.83335692  1
  H  H5  1  0.70099034  0.50827204  0.16664308  1
  H  H6  1  0.30360135  0.99380515  0.33593567  1
  H  H7  1  0.80360135  0.50619485  0.66406433  1
  H  H8  1  0.20057223  0.50649797  0.83290266  1
  H  H9  1  0.70057223  0.99350203  0.16709734  1
  H  H10  1  0.30370301  0.50638357  0.33590439  1
  H  H11  1  0.80370301  0.99361643  0.66409561  1
  H  H12  1  0.54116417  0.24921018  0.82612963  1
  H  H13  1  0.04116417  0.25078982  0.17387037  1
  H  H14  1  0.92299585  0.75004193  0.34605943  1
  H  H15  1  0.42299585  0.74995807  0.65394057  1
  H  H16  1  0.02064220  0.00056471  0.99951147  1
  H  H17  1  0.52064220  0.49943529  0.00048853  1
  H  H18  1  0.49944823  0.95979923  0.49836876  1
  H  H19  1  0.99944823  0.54020077  0.50163124  1
loop_
_geom_bond_atom_site_label_1
_geom_bond_atom_site_label_2
_geom_bond_distance
_geom_bond_site_symmetry_2
Cr0 H14 1.681809 1_455
Cr0 H6 1.726506 1_555
Cr0 H10 1.726622 1_555
Cr0 H1 1.748412 1_455
Cr0 H19 1.748671 1_455
Cr0 H18 1.921925 1_555
Cr0 H0 1.922392 1_555
Cr1 H15 1.681809 1_555
Cr1 H7 1.726506 1_555
Cr1 H11 1.726622 1_555
Cr1 H0 1.748412 1_555
Cr1 H18 1.748671 1_555
Cr1 H19 1.921925 1_555
Cr1 H1 1.922392 1_555
H0 Sr0 2.626257 1_555
H0 Sr1 2.670170 1_555
H1 Sr1 2.626257 1_565
H1 Sr0 2.670170 1_665
H2 Ta0 1.893548 1_555
H2 Ta1 1.920654 1_456
H2 Sr2 2.592376 1_556
H2 Sr3 2.716153 1_455
H3 Ta1 1.893548 1_555
H3 Ta0 1.920654 1_554
H3 Sr3 2.592376 1_544
H3 Sr2 2.716153 1_545
H4 Ta0 1.855732 1_565
H4 Sr3 2.487297 1_455
H4 Sr0 2.662974 1_565
H4 Sr3 2.772406 1_555
H5 Ta1 1.855732 1_555
H5 Sr2 2.487297 1_555
H5 Sr1 2.662974 1_555
H5 Sr2 2.772406 1_655
H6 Sr2 2.524656 1_555
H6 Sr1 2.526281 1_565
H6 Sr1 2.816616 1_465
H7 Sr3 2.524656 1_555
H7 Sr0 2.526281 1_655
H7 Sr0 2.816616 1_555
H8 Ta0 1.856205 1_555
H8 Sr3 2.489284 1_455
H8 Sr0 2.654689 1_555
H8 Sr3 2.777419 1_555
H9 Ta1 1.856205 1_565
H9 Sr2 2.489284 1_555
H9 Sr1 2.654689 1_565
H9 Sr2 2.777419 1_655
H10 Sr2 2.524991 1_555
H10 Sr1 2.525445 1_555
H10 Sr1 2.816641 1_455
H11 Sr3 2.524991 1_555
H11 Sr0 2.525445 1_665
H11 Sr0 2.816641 1_565
H12 Ta0 1.855166 1_555
H12 Sr0 2.538313 1_555
H12 Sr3 2.723527 1_545
H12 Sr3 2.729179 1_555
H13 Ta1 1.855166 1_455
H13 Sr1 2.538313 1_455
H13 Sr2 2.723527 1_555
H13 Sr2 2.729179 1_545
H14 Sr1 2.667180 1_555
H14 Sr1 2.668559 1_565
H14 Sr2 2.715365 1_655
H15 Sr0 2.667180 1_565
H15 Sr0 2.668559 1_555
H15 Sr3 2.715365 1_555
H16 Ta0 1.893055 1_555
H16 Ta1 1.920741 1_456
H16 Sr2 2.588261 1_546
H16 Sr3 2.720219 1_445
H17 Ta1 1.893055 1_555
H17 Ta0 1.920741 1_554
H17 Sr3 2.588261 1_554
H17 Sr2 2.720219 1_555
H18 Sr0 2.625586 1_565
H18 Sr1 2.671096 1_565
H19 Sr1 2.625586 1_555
H19 Sr0 2.671096 1_655
