# generated using pymatgen
data_MnCr4AgSe8
_symmetry_space_group_name_H-M   'P 1'
_cell_length_a   7.53878896
_cell_length_b   7.53878881
_cell_length_c   7.53878995
_cell_angle_alpha   60.00000370
_cell_angle_beta   60.00000437
_cell_angle_gamma   60.00000225
_symmetry_Int_Tables_number   1
_chemical_formula_structural   MnCr4AgSe8
_chemical_formula_sum   'Mn1 Cr4 Ag1 Se8'
_cell_volume   302.96317414
_cell_formula_units_Z   1
loop_
 _symmetry_equiv_pos_site_id
 _symmetry_equiv_pos_as_xyz
  1  'x, y, z'
loop_
 _atom_site_type_symbol
 _atom_site_label
 _atom_site_symmetry_multiplicity
 _atom_site_fract_x
 _atom_site_fract_y
 _atom_site_fract_z
 _atom_site_occupancy
  Mn  Mn0  1  0.50000000  0.50000000  0.50000000  1
  Cr  Cr0  1  0.62926745  0.12357718  0.12357718  1
  Cr  Cr1  1  0.12357718  0.62926745  0.12357718  1
  Cr  Cr2  1  0.12357718  0.12357718  0.62926745  1
  Cr  Cr3  1  0.12357718  0.12357718  0.12357718  1
  Ag  Ag0  1  0.75000000  0.75000000  0.75000000  1
  Se  Se0  1  0.33531950  0.88822717  0.88822717  1
  Se  Se1  1  0.88822717  0.33531950  0.88822717  1
  Se  Se2  1  0.88822717  0.88822717  0.33531950  1
  Se  Se3  1  0.88822717  0.88822717  0.88822717  1
  Se  Se4  1  0.90577018  0.36474261  0.36474261  1
  Se  Se5  1  0.36474261  0.90577018  0.36474261  1
  Se  Se6  1  0.36474261  0.36474261  0.90577018  1
  Se  Se7  1  0.36474261  0.36474261  0.36474261  1
loop_
_geom_bond_atom_site_label_1
_geom_bond_atom_site_label_2
_geom_bond_distance
_geom_bond_site_symmetry_2
Mn0 Se5 2.497676 1_555
Mn0 Se4 2.497676 1_555
Mn0 Se6 2.497676 1_555
Mn0 Se7 2.497688 1_555
Cr0 Se3 2.515479 1_544
Cr0 Se1 2.515489 1_554
Cr0 Se2 2.515489 1_545
Cr0 Se7 2.577199 1_555
Cr0 Se5 2.577204 1_545
Cr0 Se6 2.577204 1_554
Cr1 Se3 2.515479 1_454
Cr1 Se0 2.515489 1_554
Cr1 Se2 2.515489 1_455
Cr1 Se7 2.577199 1_555
Cr1 Se4 2.577204 1_455
Cr1 Se6 2.577204 1_554
Cr2 Se3 2.515479 1_445
Cr2 Se0 2.515489 1_545
Cr2 Se1 2.515489 1_455
Cr2 Se7 2.577199 1_555
Cr2 Se4 2.577204 1_455
Cr2 Se5 2.577204 1_545
Cr3 Se2 2.515478 1_445
Cr3 Se0 2.515478 1_544
Cr3 Se1 2.515478 1_454
Cr3 Se6 2.577198 1_554
Cr3 Se4 2.577198 1_455
Cr3 Se5 2.577198 1_545
Ag0 Se1 2.552522 1_555
Ag0 Se0 2.552523 1_555
Ag0 Se2 2.552523 1_555
Ag0 Se3 2.552529 1_555
