# generated using pymatgen
data_NbP2IO8
_symmetry_space_group_name_H-M   'P 1'
_cell_length_a   5.26717941
_cell_length_b   5.26571330
_cell_length_c   9.10465229
_cell_angle_alpha   77.50760702
_cell_angle_beta   77.52608225
_cell_angle_gamma   60.09957941
_symmetry_Int_Tables_number   1
_chemical_formula_structural   NbP2IO8
_chemical_formula_sum   'Nb1 P2 I1 O8'
_cell_volume   211.97400707
_cell_formula_units_Z   1
loop_
 _symmetry_equiv_pos_site_id
 _symmetry_equiv_pos_as_xyz
  1  'x, y, z'
loop_
 _atom_site_type_symbol
 _atom_site_label
 _atom_site_symmetry_multiplicity
 _atom_site_fract_x
 _atom_site_fract_y
 _atom_site_fract_z
 _atom_site_occupancy
  Nb  Nb0  1  0.00000000  0.00000000  0.50000000  1
  P  P0  1  0.71022898  0.71006427  0.30795300  1
  P  P1  1  0.28977102  0.28993573  0.69204700  1
  I  I0  1  0.00000000  0.00000000  0.00000000  1
  O  O0  1  0.76431041  0.76806836  0.13881410  1
  O  O1  1  0.84811133  0.37700879  0.36277987  1
  O  O2  1  0.37801801  0.84252110  0.36417433  1
  O  O3  1  0.83865717  0.84084570  0.38893417  1
  O  O4  1  0.16134283  0.15915430  0.61106483  1
  O  O5  1  0.62198099  0.15747790  0.63582467  1
  O  O6  1  0.15188767  0.62299021  0.63721913  1
  O  O7  1  0.23568959  0.23193164  0.86118590  1
loop_
_geom_bond_atom_site_label_1
_geom_bond_atom_site_label_2
_geom_bond_distance
_geom_bond_site_symmetry_2
Nb0 O4 1.973574 1_555
Nb0 O3 1.973580 1_445
Nb0 O5 1.978688 1_455
Nb0 O2 1.978689 1_545
Nb0 O6 1.979225 1_545
Nb0 O1 1.979226 1_455
I0 O7 2.189979 1_554
I0 O0 2.189979 1_445
O0 P0 1.496543 1_555
O1 P0 1.536351 1_555
O2 P0 1.536583 1_555
O3 P0 1.541110 1_555
O4 P1 1.541116 1_555
O5 P1 1.536580 1_555
O6 P1 1.536348 1_555
O7 P1 1.496543 1_555
