# generated using pymatgen
data_KSr3(AgO3)2
_symmetry_space_group_name_H-M   'P 1'
_cell_length_a   7.05934325
_cell_length_b   7.05934208
_cell_length_c   7.12775359
_cell_angle_alpha   75.37187713
_cell_angle_beta   75.37188051
_cell_angle_gamma   33.65105677
_symmetry_Int_Tables_number   1
_chemical_formula_structural   KSr3(AgO3)2
_chemical_formula_sum   'K1 Sr3 Ag2 O6'
_cell_volume   189.85757179
_cell_formula_units_Z   1
loop_
 _symmetry_equiv_pos_site_id
 _symmetry_equiv_pos_as_xyz
  1  'x, y, z'
loop_
 _atom_site_type_symbol
 _atom_site_label
 _atom_site_symmetry_multiplicity
 _atom_site_fract_x
 _atom_site_fract_y
 _atom_site_fract_z
 _atom_site_occupancy
  K  K0  1  0.14991488  0.14991488  0.17611340  1
  Sr  Sr0  1  0.14969924  0.14969924  0.67308687  1
  Sr  Sr1  1  0.84617875  0.84617875  0.82961172  1
  Sr  Sr2  1  0.84869763  0.84869763  0.32407985  1
  Ag  Ag0  1  0.50557032  0.50557032  0.99448721  1
  Ag  Ag1  1  0.50193677  0.50193677  0.50198527  1
  O  O0  1  0.34188808  0.34188808  0.57582327  1
  O  O1  1  0.34884521  0.34884521  0.08119470  1
  O  O2  1  0.65970287  0.65970287  0.44259815  1
  O  O3  1  0.66150756  0.66150756  0.89481897  1
  O  O4  1  0.99156330  0.99156330  0.51700348  1
  O  O5  1  0.99449339  0.99449339  0.98919511  1
loop_
_geom_bond_atom_site_label_1
_geom_bond_atom_site_label_2
_geom_bond_distance
_geom_bond_site_symmetry_2
K0 O1 2.593347 1_555
K0 O5 2.768286 1_444
K0 O4 2.782026 1_445
K0 O2 2.816623 1_545
K0 O2 2.816623 1_455
K0 O3 2.837998 1_454
K0 O3 2.837998 1_544
Ag0 O3 2.038563 1_555
Ag0 O1 2.043835 1_556
Ag0 O5 2.049935 1_545
Ag0 O5 2.049935 1_455
Ag1 O4 2.049053 1_545
Ag1 O4 2.049053 1_455
Ag1 O2 2.061255 1_555
Ag1 O0 2.086773 1_555
O0 Sr0 2.505275 1_555
O0 Sr2 2.704904 1_455
O0 Sr2 2.704904 1_545
O0 Sr1 2.739782 1_545
O0 Sr1 2.739782 1_455
O1 Sr2 2.677825 1_545
O1 Sr2 2.677825 1_455
O1 Sr1 2.725154 1_454
O1 Sr1 2.725154 1_544
O2 Sr2 2.469546 1_555
O2 Sr0 2.602982 1_655
O2 Sr0 2.602982 1_565
O3 Sr1 2.415045 1_555
O3 Sr0 2.613772 1_655
O3 Sr0 2.613772 1_565
O4 Sr1 2.552459 1_555
O4 Sr2 2.649453 1_555
O4 Sr0 2.656965 1_665
O5 Sr1 2.552327 1_555
O5 Sr0 2.642413 1_665
O5 Sr2 2.664226 1_556
