# generated using pymatgen
data_Zn3GeP6N13
_symmetry_space_group_name_H-M   'P 1'
_cell_length_a   6.95947688
_cell_length_b   6.99378412
_cell_length_c   6.95947707
_cell_angle_alpha   109.57109968
_cell_angle_beta   109.37114282
_cell_angle_gamma   109.57111060
_symmetry_Int_Tables_number   1
_chemical_formula_structural   Zn3GeP6N13
_chemical_formula_sum   'Zn3 Ge1 P6 N13'
_cell_volume   260.43943260
_cell_formula_units_Z   1
loop_
 _symmetry_equiv_pos_site_id
 _symmetry_equiv_pos_as_xyz
  1  'x, y, z'
loop_
 _atom_site_type_symbol
 _atom_site_label
 _atom_site_symmetry_multiplicity
 _atom_site_fract_x
 _atom_site_fract_y
 _atom_site_fract_z
 _atom_site_occupancy
  Zn  Zn0  1  0.71011520  0.00166136  1.00000000  1
  Zn  Zn1  1  0.00000000  0.00166136  0.71011520  1
  Zn  Zn2  1  0.28988480  0.29154615  0.28988479  1
  Ge  Ge0  1  0.00000000  0.70680308  0.00000000  1
  P  P0  1  0.49755097  0.24663524  0.74703380  1
  P  P1  1  0.50244903  0.74908427  0.24948283  1
  P  P2  1  0.75051717  0.49960144  0.25296620  1
  P  P3  1  0.24948283  0.74908427  0.50244903  1
  P  P4  1  0.74703380  0.24663524  0.49755097  1
  P  P5  1  0.25296620  0.49960144  0.75051717  1
  N  N0  1  0.00000000  0.73588261  0.45672709  1
  N  N1  1  0.27496643  0.54135252  0.54189211  1
  N  N2  1  0.73705698  0.45451606  0.00000000  1
  N  N3  1  0.26294302  0.71746008  0.26294302  1
  N  N4  1  0.45810789  0.99946041  0.73307532  1
  N  N5  1  0.72503357  0.26638509  0.26692468  1
  N  N6  1  0.54327291  0.27915451  0.54327291  1
  N  N7  1  0.73307532  0.99946041  0.45810789  1
  N  N8  1  0.26692468  0.26638509  0.72503357  1
  N  N9  1  0.45672709  0.73588261  0.00000000  1
  N  N10  1  0.54189211  0.54135252  0.27496643  1
  N  N11  1  0.00000000  0.45451606  0.73705698  1
  N  N12  1  1.00000000  0.01587921  1.00000000  1
loop_
_geom_bond_atom_site_label_1
_geom_bond_atom_site_label_2
_geom_bond_distance
_geom_bond_site_symmetry_2
Ge0 N3 2.073348 1_555
Ge0 N2 2.073352 1_455
Ge0 N11 2.073352 1_554
Ge0 N12 2.161612 1_464
N0 P3 1.621982 1_555
N0 P2 1.621983 1_455
N0 Zn1 2.090179 1_565
N1 P5 1.618126 1_555
N1 P3 1.620195 1_555
N1 Zn2 2.080520 1_555
N2 P2 1.645147 1_555
N2 P0 1.645148 1_554
N3 P1 1.645148 1_555
N3 P3 1.645149 1_555
N4 P3 1.618128 1_555
N4 P0 1.620198 1_565
N4 Zn0 2.080516 1_565
N5 P4 1.618130 1_555
N5 P2 1.620199 1_555
N5 Zn0 2.080512 1_554
N6 P0 1.621980 1_555
N6 P4 1.621980 1_555
N6 Zn2 2.090183 1_555
N7 P1 1.618128 1_555
N7 P4 1.620198 1_565
N7 Zn1 2.080516 1_665
N8 P0 1.618130 1_555
N8 P5 1.620199 1_555
N8 Zn1 2.080512 1_555
N9 P1 1.621982 1_555
N9 P5 1.621983 1_554
N9 Zn0 2.090179 1_564
N10 P2 1.618126 1_555
N10 P1 1.620195 1_555
N10 Zn2 2.080520 1_555
N11 P5 1.645147 1_555
N11 P4 1.645148 1_455
N12 Zn0 1.986348 1_555
N12 Zn1 1.986349 1_655
N12 Zn2 1.986349 1_656
