# generated using pymatgen
data_Na3Li(GaBr3)4
_symmetry_space_group_name_H-M   'P 1'
_cell_length_a   10.83012690
_cell_length_b   6.80770286
_cell_length_c   8.22373252
_cell_angle_alpha   88.01221422
_cell_angle_beta   88.89382718
_cell_angle_gamma   90.43174538
_symmetry_Int_Tables_number   1
_chemical_formula_structural   Na3Li(GaBr3)4
_chemical_formula_sum   'Na3 Li1 Ga4 Br12'
_cell_volume   605.82349206
_cell_formula_units_Z   1
loop_
 _symmetry_equiv_pos_site_id
 _symmetry_equiv_pos_as_xyz
  1  'x, y, z'
loop_
 _atom_site_type_symbol
 _atom_site_label
 _atom_site_symmetry_multiplicity
 _atom_site_fract_x
 _atom_site_fract_y
 _atom_site_fract_z
 _atom_site_occupancy
  Na  Na0  1  0.50000000  0.00000000  0.50000000  1
  Na  Na1  1  0.50000000  0.50000000  0.00000000  1
  Na  Na2  1  0.00000000  0.50000000  0.00000000  1
  Li  Li0  1  0.00000000  0.00000000  0.50000000  1
  Ga  Ga0  1  0.24511262  0.03531885  0.96117091  1
  Ga  Ga1  1  0.75941799  0.86115839  0.75949253  1
  Ga  Ga2  1  0.75488738  0.96468115  0.03882909  1
  Ga  Ga3  1  0.24058201  0.13884161  0.24050747  1
  Br  Br0  1  0.58872477  0.65809253  0.68298248  1
  Br  Br1  1  0.41127523  0.34190747  0.31701752  1
  Br  Br2  1  0.93398874  0.67266409  0.67393229  1
  Br  Br3  1  0.75015089  0.31254385  0.07575179  1
  Br  Br4  1  0.07544118  0.16388336  0.80597703  1
  Br  Br5  1  0.57501940  0.83586027  0.18568526  1
  Br  Br6  1  0.92455882  0.83611664  0.19402297  1
  Br  Br7  1  0.42498060  0.16413973  0.81431474  1
  Br  Br8  1  0.06601126  0.32733591  0.32606771  1
  Br  Br9  1  0.76309945  0.12831281  0.56112697  1
  Br  Br10  1  0.23690055  0.87168719  0.43887303  1
  Br  Br11  1  0.24984911  0.68745615  0.92424821  1
loop_
_geom_bond_atom_site_label_1
_geom_bond_atom_site_label_2
_geom_bond_distance
_geom_bond_site_symmetry_2
Br0 Ga1 2.406475 1_555
Br0 Na0 2.907240 1_565
Br0 Na1 2.927709 1_556
Br1 Ga3 2.406475 1_555
Br1 Na0 2.907240 1_555
Br1 Na1 2.927709 1_555
Br2 Ga1 2.400837 1_555
Br2 Li0 2.690398 1_665
Br2 Na2 2.991856 1_656
Br3 Ga2 2.398762 1_545
Br3 Na2 3.027579 1_655
Br3 Na1 3.068929 1_555
Br4 Ga0 2.410152 1_555
Br4 Li0 2.916212 1_555
Br4 Na2 2.946246 1_556
Br5 Ga2 2.415007 1_555
Br5 Na1 2.912358 1_555
Br5 Na0 2.953488 1_565
Br6 Ga2 2.410152 1_555
Br6 Li0 2.916212 1_665
Br6 Na2 2.946246 1_655
Br7 Ga0 2.415007 1_555
Br7 Na1 2.912358 1_556
Br7 Na0 2.953488 1_555
Br8 Ga3 2.400837 1_555
Br8 Li0 2.690398 1_555
Br8 Na2 2.991856 1_555
Br9 Ga1 2.400213 1_545
Br9 Li0 2.759130 1_655
Br9 Na0 3.030358 1_555
Br10 Ga3 2.400213 1_565
Br10 Li0 2.759130 1_565
Br10 Na0 3.030358 1_565
Br11 Ga0 2.398762 1_565
Br11 Na2 3.027579 1_556
Br11 Na1 3.068929 1_556
