# generated using pymatgen
data_Cs5As2Au
_symmetry_space_group_name_H-M   'P 1'
_cell_length_a   6.27525085
_cell_length_b   6.27525017
_cell_length_c   20.31435338
_cell_angle_alpha   90.00000000
_cell_angle_beta   90.00000000
_cell_angle_gamma   120.00000360
_symmetry_Int_Tables_number   1
_chemical_formula_structural   Cs5As2Au
_chemical_formula_sum   'Cs10 As4 Au2'
_cell_volume   692.78065827
_cell_formula_units_Z   2
loop_
 _symmetry_equiv_pos_site_id
 _symmetry_equiv_pos_as_xyz
  1  'x, y, z'
loop_
 _atom_site_type_symbol
 _atom_site_label
 _atom_site_symmetry_multiplicity
 _atom_site_fract_x
 _atom_site_fract_y
 _atom_site_fract_z
 _atom_site_occupancy
  Cs  Cs0  1  0.00000000  0.00000000  0.84960102  1
  Cs  Cs1  1  0.00000000  0.00000000  0.65039898  1
  Cs  Cs2  1  0.33333300  0.66666700  0.75000000  1
  Cs  Cs3  1  0.00000000  0.00000000  0.34960102  1
  Cs  Cs4  1  0.33333300  0.66666700  0.54929348  1
  Cs  Cs5  1  0.66666700  0.33333300  0.25000000  1
  Cs  Cs6  1  0.66666700  0.33333300  0.45070652  1
  Cs  Cs7  1  0.66666700  0.33333300  0.04929348  1
  Cs  Cs8  1  0.33333300  0.66666700  0.95070652  1
  Cs  Cs9  1  0.00000000  0.00000000  0.15039898  1
  As  As0  1  0.33333300  0.66666700  0.12670866  1
  As  As1  1  0.66666700  0.33333300  0.62670866  1
  As  As2  1  0.66666700  0.33333300  0.87329134  1
  As  As3  1  0.33333300  0.66666700  0.37329134  1
  Au  Au0  1  0.66666700  0.33333300  0.75000000  1
  Au  Au1  1  0.33333300  0.66666700  0.25000000  1
loop_
_geom_bond_atom_site_label_1
_geom_bond_atom_site_label_2
_geom_bond_distance
_geom_bond_site_symmetry_2
As0 Au1 2.504584 1_555
As0 Cs8 3.575370 1_554
As0 Cs9 3.654837 1_565
As0 Cs9 3.654842 1_555
As0 Cs9 3.654843 1_665
As0 Cs7 3.949610 1_565
As0 Cs7 3.949611 1_455
As0 Cs7 3.949621 1_555
As1 Au0 2.504584 1_555
As1 Cs6 3.575370 1_555
As1 Cs1 3.654837 1_655
As1 Cs1 3.654842 1_665
As1 Cs1 3.654843 1_555
As1 Cs4 3.949610 1_545
As1 Cs4 3.949611 1_655
As1 Cs4 3.949621 1_555
As2 Au0 2.504584 1_555
As2 Cs7 3.575370 1_556
As2 Cs0 3.654837 1_655
As2 Cs0 3.654842 1_665
As2 Cs0 3.654843 1_555
As2 Cs8 3.949610 1_545
As2 Cs8 3.949611 1_655
As2 Cs8 3.949621 1_555
As3 Au1 2.504584 1_555
As3 Cs4 3.575370 1_555
As3 Cs3 3.654837 1_565
As3 Cs3 3.654842 1_555
As3 Cs3 3.654843 1_665
As3 Cs6 3.949610 1_565
As3 Cs6 3.949611 1_455
As3 Cs6 3.949621 1_555
Au0 Cs2 3.623014 1_545
Au0 Cs2 3.623014 1_655
Au0 Cs2 3.623025 1_555
Au1 Cs5 3.623014 1_565
Au1 Cs5 3.623014 1_455
Au1 Cs5 3.623025 1_555
