# generated using pymatgen
data_YBeOs2C
_symmetry_space_group_name_H-M   'P 1'
_cell_length_a   5.60642380
_cell_length_b   5.60642303
_cell_length_c   7.04452781
_cell_angle_alpha   90.00000000
_cell_angle_beta   90.00000000
_cell_angle_gamma   140.07533677
_symmetry_Int_Tables_number   1
_chemical_formula_structural   YBeOs2C
_chemical_formula_sum   'Y2 Be2 Os4 C2'
_cell_volume   142.10511829
_cell_formula_units_Z   2
loop_
 _symmetry_equiv_pos_site_id
 _symmetry_equiv_pos_as_xyz
  1  'x, y, z'
loop_
 _atom_site_type_symbol
 _atom_site_label
 _atom_site_symmetry_multiplicity
 _atom_site_fract_x
 _atom_site_fract_y
 _atom_site_fract_z
 _atom_site_occupancy
  Y  Y0  1  0.54404889  0.45595111  0.25000000  1
  Y  Y1  1  0.45595111  0.54404889  0.75000000  1
  Be  Be0  1  0.26937814  0.73062186  0.25000000  1
  Be  Be1  1  0.73062186  0.26937814  0.75000000  1
  Os  Os0  1  0.82380662  0.17619338  0.05882410  1
  Os  Os1  1  0.17619338  0.82380662  0.94117590  1
  Os  Os2  1  0.17619338  0.82380662  0.55882410  1
  Os  Os3  1  0.82380662  0.17619338  0.44117590  1
  C  C0  1  0.00000000  0.00000000  0.00000000  1
  C  C1  1  0.00000000  0.00000000  0.50000000  1
loop_
_geom_bond_atom_site_label_1
_geom_bond_atom_site_label_2
_geom_bond_distance
_geom_bond_site_symmetry_2
Be0 Os2 2.386919 1_555
Be0 Os1 2.386919 1_554
Be0 Os3 2.409635 1_455
Be0 Os0 2.409635 1_455
Be0 Os3 2.409635 1_565
Be0 Os0 2.409635 1_565
Be0 Y0 2.894796 1_555
Be0 Y0 3.050105 1_565
Be0 Y0 3.050106 1_455
Be1 Os0 2.386919 1_556
Be1 Os3 2.386919 1_555
Be1 Os1 2.409635 1_655
Be1 Os2 2.409635 1_655
Be1 Os1 2.409635 1_545
Be1 Os2 2.409635 1_545
Be1 Y1 2.894796 1_555
Be1 Y1 3.050105 1_545
Be1 Y1 3.050106 1_655
C0 Os0 1.902603 1_455
C0 Os1 1.902603 1_544
C0 Y1 2.642096 1_554
C0 Y0 2.642096 1_445
C0 Y0 2.642097 1_555
C0 Y1 2.642097 1_444
C1 Os2 1.902603 1_545
C1 Os3 1.902603 1_455
C1 Y1 2.642096 1_555
C1 Y0 2.642096 1_445
C1 Y0 2.642097 1_555
C1 Y1 2.642097 1_445
