# generated using pymatgen
data_V3Sb4RhO16
_symmetry_space_group_name_H-M   'P 1'
_cell_length_a   5.56895657
_cell_length_b   5.56896171
_cell_length_c   9.02365709
_cell_angle_alpha   87.77650293
_cell_angle_beta   87.77612674
_cell_angle_gamma   71.72613599
_symmetry_Int_Tables_number   1
_chemical_formula_structural   V3Sb4RhO16
_chemical_formula_sum   'V3 Sb4 Rh1 O16'
_cell_volume   265.43529241
_cell_formula_units_Z   1
loop_
 _symmetry_equiv_pos_site_id
 _symmetry_equiv_pos_as_xyz
  1  'x, y, z'
loop_
 _atom_site_type_symbol
 _atom_site_label
 _atom_site_symmetry_multiplicity
 _atom_site_fract_x
 _atom_site_fract_y
 _atom_site_fract_z
 _atom_site_occupancy
  V  V0  1  0.87242261  0.87243329  0.62801799  1
  V  V1  1  0.99601127  0.99601418  0.00434583  1
  V  V2  1  0.37066686  0.37065727  0.12846263  1
  Sb  Sb0  1  0.75299406  0.75298416  0.24610611  1
  Sb  Sb1  1  0.25214904  0.25215281  0.74853256  1
  Sb  Sb2  1  0.62845902  0.62845300  0.87276396  1
  Sb  Sb3  1  0.12621689  0.12620802  0.37240015  1
  Rh  Rh0  1  0.49668917  0.49668374  0.50295634  1
  O  O0  1  0.65337600  0.65338196  0.65512778  1
  O  O1  1  0.14779083  0.14778097  0.15357948  1
  O  O2  1  0.17485230  0.57124027  0.62808454  1
  O  O3  1  0.67458732  0.07051676  0.12670869  1
  O  O4  1  0.07052453  0.67457902  0.12670447  1
  O  O5  1  0.57122882  0.17485480  0.62808561  1
  O  O6  1  0.84729206  0.84729762  0.85132639  1
  O  O7  1  0.34377699  0.34377011  0.34726642  1
  O  O8  1  0.59904020  0.59904261  0.09316613  1
  O  O9  1  0.09867714  0.09867731  0.59384481  1
  O  O10  1  0.81941640  0.43525016  0.37206121  1
  O  O11  1  0.32000870  0.93572246  0.87308374  1
  O  O12  1  0.93570122  0.32002708  0.87308732  1
  O  O13  1  0.43525747  0.81941103  0.37206179  1
  O  O14  1  0.40685054  0.40684934  0.90148312  1
  O  O15  1  0.90600954  0.90600400  0.40074894  1
loop_
_geom_bond_atom_site_label_1
_geom_bond_atom_site_label_2
_geom_bond_distance
_geom_bond_site_symmetry_2
O0 Sb2 1.965987 1_555
O0 V0 1.980639 1_555
O0 Rh0 2.017901 1_555
O1 V1 1.966437 1_445
O1 Sb3 1.974841 1_555
O1 V2 2.013681 1_555
O2 V0 1.969373 1_455
O2 Sb1 1.982683 1_555
O2 Rh0 2.017983 1_555
O3 Sb0 1.970505 1_545
O3 V2 1.970925 1_555
O3 V1 2.002952 1_545
O4 Sb0 1.970507 1_455
O4 V2 1.970936 1_555
O4 V1 2.002988 1_455
O5 V0 1.969348 1_545
O5 Sb1 1.982634 1_555
O5 Rh0 2.017967 1_555
O6 V1 1.971314 1_556
O6 Sb2 1.975534 1_555
O6 V0 2.016966 1_555
O7 Sb3 1.966027 1_555
O7 V2 1.977705 1_555
O7 Rh0 2.016059 1_555
O8 Sb2 1.993838 1_554
O8 Sb0 2.004798 1_555
O8 V2 2.070775 1_555
O9 Sb3 2.001795 1_555
O9 Sb1 2.013119 1_555
O9 V0 2.050713 1_445
O10 Sb0 2.006413 1_555
O10 Sb3 2.009260 1_655
O10 Rh0 2.055066 1_555
O11 Sb1 1.993225 1_565
O11 Sb2 2.008841 1_555
O11 V1 2.063096 1_456
O12 Sb1 1.993306 1_655
O12 Sb2 2.008672 1_555
O12 V1 2.063147 1_546
O13 Sb0 2.006416 1_555
O13 Sb3 2.009243 1_565
O13 Rh0 2.055073 1_555
O14 Sb2 2.004677 1_555
O14 Sb1 2.009796 1_555
O14 V2 2.058567 1_556
O15 Sb3 1.991871 1_665
O15 Sb0 2.009857 1_555
O15 V0 2.058669 1_555
