# generated using pymatgen
data_KMg2CoH8
_symmetry_space_group_name_H-M   'P 1'
_cell_length_a   4.39062207
_cell_length_b   4.39062155
_cell_length_c   7.88341651
_cell_angle_alpha   90.00000000
_cell_angle_beta   90.00000000
_cell_angle_gamma   119.99999658
_symmetry_Int_Tables_number   1
_chemical_formula_structural   KMg2CoH8
_chemical_formula_sum   'K1 Mg2 Co1 H8'
_cell_volume   131.61251257
_cell_formula_units_Z   1
loop_
 _symmetry_equiv_pos_site_id
 _symmetry_equiv_pos_as_xyz
  1  'x, y, z'
loop_
 _atom_site_type_symbol
 _atom_site_label
 _atom_site_symmetry_multiplicity
 _atom_site_fract_x
 _atom_site_fract_y
 _atom_site_fract_z
 _atom_site_occupancy
  K  K0  1  0.00000000  0.00000000  0.50000000  1
  Mg  Mg0  1  0.66666700  0.33333300  0.87000845  1
  Mg  Mg1  1  0.33333300  0.66666700  0.12999155  1
  Co  Co0  1  0.00000000  0.00000000  0.00000000  1
  H  H0  1  0.31797364  0.15898582  0.11461075  1
  H  H1  1  0.84101418  0.68202636  0.11461075  1
  H  H2  1  0.84101418  0.15898582  0.11461075  1
  H  H3  1  0.68202636  0.84101418  0.88538925  1
  H  H4  1  0.15898582  0.31797364  0.88538925  1
  H  H5  1  0.15898582  0.84101418  0.88538925  1
  H  H6  1  0.66666700  0.33333300  0.64226227  1
  H  H7  1  0.33333300  0.66666700  0.35773773  1
loop_
_geom_bond_atom_site_label_1
_geom_bond_atom_site_label_2
_geom_bond_distance
_geom_bond_site_symmetry_2
Co0 H2 1.509359 1_455
Co0 H5 1.509359 1_544
Co0 H1 1.509365 1_445
Co0 H4 1.509365 1_554
Co0 H0 1.509365 1_555
Co0 H3 1.509365 1_444
H6 Mg0 1.795418 1_555
H6 K0 2.771936 1_655
H6 K0 2.771940 1_665
H6 K0 2.771940 1_555
H7 Mg1 1.795418 1_555
H7 K0 2.771936 1_565
H7 K0 2.771940 1_555
H7 K0 2.771940 1_665
