# generated using pymatgen
data_Lu2MgB2Ir5
_symmetry_space_group_name_H-M   'P 1'
_cell_length_a   9.60630755
_cell_length_b   9.60630755
_cell_length_c   3.06755503
_cell_angle_alpha   90.00000000
_cell_angle_beta   90.00000000
_cell_angle_gamma   90.00000000
_symmetry_Int_Tables_number   1
_chemical_formula_structural   Lu2MgB2Ir5
_chemical_formula_sum   'Lu4 Mg2 B4 Ir10'
_cell_volume   283.07749033
_cell_formula_units_Z   2
loop_
 _symmetry_equiv_pos_site_id
 _symmetry_equiv_pos_as_xyz
  1  'x, y, z'
loop_
 _atom_site_type_symbol
 _atom_site_label
 _atom_site_symmetry_multiplicity
 _atom_site_fract_x
 _atom_site_fract_y
 _atom_site_fract_z
 _atom_site_occupancy
  Lu  Lu0  1  0.67807198  0.17807198  0.00000000  1
  Lu  Lu1  1  0.32192802  0.82192802  0.00000000  1
  Lu  Lu2  1  0.17807198  0.32192802  0.00000000  1
  Lu  Lu3  1  0.82192802  0.67807198  0.00000000  1
  Mg  Mg0  1  0.00000000  0.00000000  0.00000000  1
  Mg  Mg1  1  0.50000000  0.50000000  0.00000000  1
  B  B0  1  0.12348016  0.62348016  0.00000000  1
  B  B1  1  0.87651984  0.37651984  0.00000000  1
  B  B2  1  0.62348016  0.87651984  0.00000000  1
  B  B3  1  0.37651984  0.12348016  0.00000000  1
  Ir  Ir0  1  0.22170388  0.06829133  0.50000000  1
  Ir  Ir1  1  0.77829612  0.93170867  0.50000000  1
  Ir  Ir2  1  0.06829133  0.77829612  0.50000000  1
  Ir  Ir3  1  0.72170388  0.43170867  0.50000000  1
  Ir  Ir4  1  0.93170867  0.22170388  0.50000000  1
  Ir  Ir5  1  0.27829612  0.56829133  0.50000000  1
  Ir  Ir6  1  0.56829133  0.72170388  0.50000000  1
  Ir  Ir7  1  0.43170867  0.27829612  0.50000000  1
  Ir  Ir8  1  0.50000000  0.00000000  0.50000000  1
  Ir  Ir9  1  0.00000000  0.50000000  0.50000000  1
loop_
_geom_bond_atom_site_label_1
_geom_bond_atom_site_label_2
_geom_bond_distance
_geom_bond_site_symmetry_2
B0 Ir2 2.201213 1_555
B0 Ir2 2.201213 1_554
B0 Ir5 2.201213 1_554
B0 Ir5 2.201213 1_555
B0 Ir9 2.273007 1_554
B0 Ir9 2.273007 1_555
B0 Lu1 2.695988 1_555
B0 Lu3 2.943890 1_455
B0 Lu2 2.943890 1_555
B1 Ir3 2.201213 1_555
B1 Ir3 2.201213 1_554
B1 Ir4 2.201213 1_555
B1 Ir4 2.201213 1_554
B1 Ir9 2.273007 1_655
B1 Ir9 2.273007 1_654
B1 Lu0 2.695988 1_555
B1 Lu2 2.943890 1_655
B1 Lu3 2.943890 1_555
B2 Ir6 2.201213 1_554
B2 Ir1 2.201213 1_555
B2 Ir1 2.201213 1_554
B2 Ir6 2.201213 1_555
B2 Ir8 2.273007 1_564
B2 Ir8 2.273007 1_565
B2 Lu3 2.695988 1_555
B2 Lu0 2.943890 1_565
B2 Lu1 2.943890 1_555
B3 Ir7 2.201213 1_555
B3 Ir7 2.201213 1_554
B3 Ir0 2.201213 1_554
B3 Ir0 2.201213 1_555
B3 Ir8 2.273007 1_555
B3 Ir8 2.273007 1_554
B3 Lu2 2.695988 1_555
B3 Lu1 2.943890 1_545
B3 Lu0 2.943890 1_555
Ir0 Mg0 2.705310 1_555
Ir0 Mg0 2.705310 1_556
Ir0 Lu2 2.909423 1_556
Ir0 Lu2 2.909423 1_555
Ir0 Lu1 2.980003 1_545
Ir0 Lu1 2.980003 1_546
Ir1 Mg0 2.705310 1_666
Ir1 Mg0 2.705310 1_665
Ir1 Lu3 2.909423 1_555
Ir1 Lu3 2.909423 1_556
Ir1 Lu0 2.980003 1_566
Ir1 Lu0 2.980003 1_565
Ir2 Mg0 2.705310 1_566
Ir2 Mg0 2.705310 1_565
Ir2 Lu1 2.909423 1_556
Ir2 Lu1 2.909423 1_555
Ir2 Lu3 2.980003 1_456
Ir2 Lu3 2.980003 1_455
Ir3 Mg1 2.705310 1_556
Ir3 Mg1 2.705310 1_555
Ir3 Lu0 2.909423 1_556
Ir3 Lu0 2.909423 1_555
Ir3 Lu3 2.980003 1_555
Ir3 Lu3 2.980003 1_556
Ir4 Mg0 2.705310 1_656
Ir4 Mg0 2.705310 1_655
Ir4 Lu0 2.909423 1_556
Ir4 Lu0 2.909423 1_555
Ir4 Lu2 2.980003 1_655
Ir4 Lu2 2.980003 1_656
Ir5 Mg1 2.705310 1_555
Ir5 Mg1 2.705310 1_556
Ir5 Lu1 2.909423 1_556
Ir5 Lu1 2.909423 1_555
Ir5 Lu2 2.980003 1_555
Ir5 Lu2 2.980003 1_556
Ir6 Mg1 2.705310 1_556
Ir6 Mg1 2.705310 1_555
Ir6 Lu3 2.909423 1_555
Ir6 Lu3 2.909423 1_556
Ir6 Lu1 2.980003 1_556
Ir6 Lu1 2.980003 1_555
Ir7 Mg1 2.705310 1_556
Ir7 Mg1 2.705310 1_555
Ir7 Lu2 2.909423 1_556
Ir7 Lu2 2.909423 1_555
Ir7 Lu0 2.980003 1_556
Ir7 Lu0 2.980003 1_555
Ir8 Lu0 2.864415 1_555
Ir8 Lu0 2.864415 1_556
Ir8 Lu1 2.864415 1_545
Ir8 Lu1 2.864415 1_546
Ir9 Lu3 2.864415 1_455
Ir9 Lu2 2.864415 1_556
Ir9 Lu3 2.864415 1_456
Ir9 Lu2 2.864415 1_555
