# generated using pymatgen
data_Cu2SbRh3S8
_symmetry_space_group_name_H-M   'P 1'
_cell_length_a   7.06454199
_cell_length_b   7.06454213
_cell_length_c   7.06454168
_cell_angle_alpha   59.80788655
_cell_angle_beta   59.80788033
_cell_angle_gamma   59.80788872
_symmetry_Int_Tables_number   1
_chemical_formula_structural   Cu2SbRh3S8
_chemical_formula_sum   'Cu2 Sb1 Rh3 S8'
_cell_volume   248.22124121
_cell_formula_units_Z   1
loop_
 _symmetry_equiv_pos_site_id
 _symmetry_equiv_pos_as_xyz
  1  'x, y, z'
loop_
 _atom_site_type_symbol
 _atom_site_label
 _atom_site_symmetry_multiplicity
 _atom_site_fract_x
 _atom_site_fract_y
 _atom_site_fract_z
 _atom_site_occupancy
  Cu  Cu0  1  0.37198821  0.37198821  0.37198821  1
  Cu  Cu1  1  0.62801179  0.62801179  0.62801179  1
  Sb  Sb0  1  0.00000000  0.00000000  0.00000000  1
  Rh  Rh0  1  0.50000000  0.00000000  0.00000000  1
  Rh  Rh1  1  0.00000000  0.00000000  0.50000000  1
  Rh  Rh2  1  0.00000000  0.50000000  0.00000000  1
  S  S0  1  0.23991498  0.23991498  0.23991498  1
  S  S1  1  0.77264301  0.25175907  0.25175907  1
  S  S2  1  0.25175907  0.25175907  0.77264301  1
  S  S3  1  0.25175907  0.77264301  0.25175907  1
  S  S4  1  0.76008502  0.76008502  0.76008502  1
  S  S5  1  0.22735699  0.74824093  0.74824093  1
  S  S6  1  0.74824093  0.74824093  0.22735699  1
  S  S7  1  0.74824093  0.22735699  0.74824093  1
loop_
_geom_bond_atom_site_label_1
_geom_bond_atom_site_label_2
_geom_bond_distance
_geom_bond_site_symmetry_2
Cu0 S0 2.288777 1_555
Cu0 S2 2.311666 1_555
Cu0 S1 2.311666 1_555
Cu0 S3 2.311666 1_555
Cu1 S4 2.288777 1_555
Cu1 S6 2.311666 1_555
Cu1 S5 2.311666 1_555
Cu1 S7 2.311666 1_555
Rh0 S7 2.375130 1_554
Rh0 S3 2.375130 1_545
Rh0 S6 2.375130 1_545
Rh0 S2 2.375130 1_554
Rh0 S0 2.397110 1_555
Rh0 S4 2.397110 1_544
Rh1 S7 2.375130 1_455
Rh1 S3 2.375130 1_545
Rh1 S5 2.375130 1_545
Rh1 S1 2.375130 1_455
Rh1 S0 2.397110 1_555
Rh1 S4 2.397110 1_445
Rh2 S5 2.375130 1_554
Rh2 S1 2.375130 1_455
Rh2 S6 2.375130 1_455
Rh2 S2 2.375130 1_554
Rh2 S0 2.397110 1_555
Rh2 S4 2.397110 1_454
S1 Sb0 2.518232 1_655
S2 Sb0 2.518232 1_556
S3 Sb0 2.518232 1_565
S5 Sb0 2.518232 1_566
S6 Sb0 2.518232 1_665
S7 Sb0 2.518232 1_656
