# generated using pymatgen
data_YLu3Al8
_symmetry_space_group_name_H-M   'P 1'
_cell_length_a   9.47701932
_cell_length_b   9.47701905
_cell_length_c   9.47701895
_cell_angle_alpha   33.62456819
_cell_angle_beta   33.62457094
_cell_angle_gamma   33.62456900
_symmetry_Int_Tables_number   1
_chemical_formula_structural   YLu3Al8
_chemical_formula_sum   'Y1 Lu3 Al8'
_cell_volume   232.50466475
_cell_formula_units_Z   1
loop_
 _symmetry_equiv_pos_site_id
 _symmetry_equiv_pos_as_xyz
  1  'x, y, z'
loop_
 _atom_site_type_symbol
 _atom_site_label
 _atom_site_symmetry_multiplicity
 _atom_site_fract_x
 _atom_site_fract_y
 _atom_site_fract_z
 _atom_site_occupancy
  Y  Y0  1  0.68732984  0.68732984  0.68732984  1
  Lu  Lu0  1  0.18744492  0.18744492  0.18744492  1
  Lu  Lu1  1  0.81307370  0.81307370  0.81307370  1
  Lu  Lu2  1  0.31214394  0.31214394  0.31214394  1
  Al  Al0  1  0.99980411  0.99980411  0.99980411  1
  Al  Al1  1  0.50006890  0.50006890  0.50006890  1
  Al  Al2  1  0.75063004  0.25051686  0.25051686  1
  Al  Al3  1  0.24889678  0.74978703  0.74978703  1
  Al  Al4  1  0.25051686  0.75063004  0.25051686  1
  Al  Al5  1  0.74978703  0.24889678  0.74978703  1
  Al  Al6  1  0.25051686  0.25051686  0.75063004  1
  Al  Al7  1  0.74978703  0.74978703  0.24889678  1
loop_
_geom_bond_atom_site_label_1
_geom_bond_atom_site_label_2
_geom_bond_distance
_geom_bond_site_symmetry_2
Lu0 Lu2 3.341750 1_555
Lu0 Lu1 3.350771 1_454
Lu0 Lu1 3.350772 1_445
Lu0 Lu1 3.350772 1_544
Lu1 Y0 3.369750 1_555
Lu2 Y0 3.358000 1_545
Lu2 Y0 3.358001 1_554
Lu2 Y0 3.358001 1_455
Al0 Al5 2.742354 1_565
Al0 Al3 2.742354 1_655
Al0 Al7 2.742354 1_556
Al0 Al4 2.753340 1_656
Al0 Al2 2.753340 1_566
Al0 Al6 2.753340 1_665
Al0 Y0 3.214138 1_565
Al0 Y0 3.214138 1_556
Al0 Y0 3.214138 1_655
Al0 Lu2 3.214766 1_656
Al0 Lu2 3.214766 1_665
Al0 Lu2 3.214766 1_566
Al1 Al5 2.726113 1_555
Al1 Al3 2.726113 1_555
Al1 Al7 2.726113 1_555
Al1 Al4 2.726711 1_555
Al1 Al2 2.726711 1_555
Al1 Al6 2.726711 1_555
Al1 Lu1 3.211695 1_545
Al1 Lu1 3.211696 1_554
Al1 Lu1 3.211696 1_455
Al1 Lu0 3.213442 1_565
Al1 Lu0 3.213442 1_556
Al1 Lu0 3.213443 1_655
Al2 Al4 2.740485 1_645
Al2 Al6 2.740485 1_654
Al2 Al4 2.741725 1_555
Al2 Al6 2.741726 1_555
Al2 Lu0 3.194529 1_655
Al2 Lu1 3.212583 1_545
Al2 Lu1 3.212583 1_554
Al2 Y0 3.222485 1_554
Al2 Y0 3.222485 1_545
Al2 Lu2 3.230337 1_555
Al3 Al5 2.736225 1_465
Al3 Al7 2.736225 1_456
Al3 Al5 2.745986 1_555
Al3 Al7 2.745986 1_555
Al3 Lu1 3.182284 1_455
Al3 Lu0 3.205981 1_565
Al3 Lu0 3.205981 1_556
Al3 Lu2 3.214466 1_556
Al3 Lu2 3.214466 1_565
Al3 Y0 3.218216 1_555
Al4 Al6 2.740484 1_564
Al4 Al6 2.741725 1_555
Al4 Lu0 3.194529 1_565
Al4 Lu1 3.212583 1_455
Al4 Lu1 3.212583 1_554
Al4 Y0 3.222485 1_554
Al4 Y0 3.222486 1_455
Al4 Lu2 3.230337 1_555
Al5 Al7 2.736224 1_546
Al5 Al7 2.745985 1_555
Al5 Lu1 3.182284 1_545
Al5 Lu0 3.205981 1_655
Al5 Lu0 3.205982 1_556
Al5 Lu2 3.214466 1_556
Al5 Lu2 3.214466 1_655
Al5 Y0 3.218216 1_555
Al6 Lu0 3.194529 1_556
Al6 Lu1 3.212583 1_455
Al6 Lu1 3.212583 1_545
Al6 Y0 3.222485 1_545
Al6 Y0 3.222485 1_455
Al6 Lu2 3.230337 1_555
Al7 Lu1 3.182284 1_554
Al7 Lu0 3.205981 1_655
Al7 Lu0 3.205981 1_565
Al7 Lu2 3.214466 1_565
Al7 Lu2 3.214466 1_655
Al7 Y0 3.218216 1_555
