# generated using pymatgen
data_LiLuFeH6
_symmetry_space_group_name_H-M   'P 1'
_cell_length_a   4.57423478
_cell_length_b   4.57423418
_cell_length_c   4.57423520
_cell_angle_alpha   60.00000672
_cell_angle_beta   60.00001099
_cell_angle_gamma   60.00000711
_symmetry_Int_Tables_number   1
_chemical_formula_structural   LiLuFeH6
_chemical_formula_sum   'Li1 Lu1 Fe1 H6'
_cell_volume   67.67689444
_cell_formula_units_Z   1
loop_
 _symmetry_equiv_pos_site_id
 _symmetry_equiv_pos_as_xyz
  1  'x, y, z'
loop_
 _atom_site_type_symbol
 _atom_site_label
 _atom_site_symmetry_multiplicity
 _atom_site_fract_x
 _atom_site_fract_y
 _atom_site_fract_z
 _atom_site_occupancy
  Li  Li0  1  0.75000000  0.75000000  0.75000000  1
  Lu  Lu0  1  0.25000000  0.25000000  0.25000000  1
  Fe  Fe0  1  0.00000000  0.00000000  0.00000000  1
  H  H0  1  0.24150894  0.75849106  0.24150894  1
  H  H1  1  0.75849006  0.75849006  0.24150994  1
  H  H2  1  0.75849006  0.24150994  0.24150994  1
  H  H3  1  0.24150994  0.75849006  0.75849006  1
  H  H4  1  0.75849106  0.24150894  0.75849106  1
  H  H5  1  0.24150894  0.24150894  0.75849106  1
loop_
_geom_bond_atom_site_label_1
_geom_bond_atom_site_label_2
_geom_bond_distance
_geom_bond_site_symmetry_2
Fe0 H5 1.562308 1_554
Fe0 H0 1.562308 1_545
Fe0 H4 1.562308 1_454
Fe0 H1 1.562315 1_445
Fe0 H2 1.562315 1_455
Fe0 H3 1.562315 1_544
H0 Lu0 2.287777 1_565
H0 Lu0 2.287777 1_555
H0 Li0 2.287777 1_554
H0 Li0 2.287777 1_455
H1 Lu0 2.287777 1_655
H1 Lu0 2.287777 1_565
H1 Li0 2.287777 1_554
H1 Li0 2.287777 1_555
H2 Lu0 2.287777 1_655
H2 Lu0 2.287777 1_555
H2 Li0 2.287777 1_554
H2 Li0 2.287777 1_545
H3 Li0 2.287777 1_455
H3 Li0 2.287777 1_555
H3 Lu0 2.287777 1_556
H3 Lu0 2.287777 1_565
H4 Li0 2.287777 1_545
H4 Li0 2.287777 1_555
H4 Lu0 2.287777 1_556
H4 Lu0 2.287777 1_655
H5 Li0 2.287777 1_455
H5 Li0 2.287777 1_545
H5 Lu0 2.287777 1_556
H5 Lu0 2.287777 1_555
