# generated using pymatgen
data_Be4Co2BW6
_symmetry_space_group_name_H-M   'P 1'
_cell_length_a   7.54238169
_cell_length_b   7.54238224
_cell_length_c   7.54238200
_cell_angle_alpha   60.00000102
_cell_angle_beta   59.99999860
_cell_angle_gamma   60.00000148
_symmetry_Int_Tables_number   1
_chemical_formula_structural   Be4Co2BW6
_chemical_formula_sum   'Be8 Co4 B2 W12'
_cell_volume   303.39650586
_cell_formula_units_Z   2
loop_
 _symmetry_equiv_pos_site_id
 _symmetry_equiv_pos_as_xyz
  1  'x, y, z'
loop_
 _atom_site_type_symbol
 _atom_site_label
 _atom_site_symmetry_multiplicity
 _atom_site_fract_x
 _atom_site_fract_y
 _atom_site_fract_z
 _atom_site_occupancy
  Be  Be0  1  0.92105643  0.23683272  0.92105643  1
  Be  Be1  1  0.32894357  0.01316728  0.32894357  1
  Be  Be2  1  0.32894357  0.32894357  0.32894357  1
  Be  Be3  1  0.01316728  0.32894357  0.32894357  1
  Be  Be4  1  0.92105643  0.92105643  0.23683272  1
  Be  Be5  1  0.23683272  0.92105643  0.92105643  1
  Be  Be6  1  0.32894357  0.32894357  0.01316728  1
  Be  Be7  1  0.92105643  0.92105643  0.92105643  1
  Co  Co0  1  0.12500000  0.12500000  0.62500000  1
  Co  Co1  1  0.12500000  0.62500000  0.12500000  1
  Co  Co2  1  0.12500000  0.12500000  0.12500000  1
  Co  Co3  1  0.62500000  0.12500000  0.12500000  1
  B  B0  1  0.75000000  0.75000000  0.75000000  1
  B  B1  1  0.50000000  0.50000000  0.50000000  1
  W  W0  1  0.29734102  0.70265898  0.70265898  1
  W  W1  1  0.29734102  0.29734102  0.70265898  1
  W  W2  1  0.54734102  0.95265898  0.54734102  1
  W  W3  1  0.95265898  0.54734102  0.54734102  1
  W  W4  1  0.54734102  0.95265898  0.95265898  1
  W  W5  1  0.70265898  0.29734102  0.29734102  1
  W  W6  1  0.95265898  0.54734102  0.95265898  1
  W  W7  1  0.29734102  0.70265898  0.29734102  1
  W  W8  1  0.54734102  0.54734102  0.95265898  1
  W  W9  1  0.70265898  0.29734102  0.70265898  1
  W  W10  1  0.70265898  0.70265898  0.29734102  1
  W  W11  1  0.95265898  0.95265898  0.54734102  1
loop_
_geom_bond_atom_site_label_1
_geom_bond_atom_site_label_2
_geom_bond_distance
_geom_bond_site_symmetry_2
Be0 Co2 2.283616 1_656
Be0 Co3 2.283628 1_556
Be0 Co0 2.283628 1_655
Be0 Be5 2.381705 1_645
Be0 Be7 2.381705 1_545
Be0 Be4 2.381705 1_546
Be0 W6 2.602256 1_555
Be0 W8 2.602265 1_555
Be0 W3 2.602265 1_555
Be0 W1 2.616268 1_655
Be0 W5 2.616268 1_556
Be0 W9 2.616281 1_555
Be1 Co2 2.283616 1_555
Be1 Co3 2.283628 1_555
Be1 Co0 2.283628 1_555
Be1 Be3 2.381705 1_555
Be1 Be2 2.381705 1_555
Be1 Be6 2.381705 1_555
Be1 W7 2.602256 1_545
Be1 W10 2.602265 1_545
Be1 W0 2.602265 1_545
Be1 W11 2.616268 1_445
Be1 W4 2.616268 1_544
Be1 W2 2.616281 1_545
Be2 Co0 2.283620 1_555
Be2 Co3 2.283620 1_555
Be2 Co1 2.283620 1_555
Be2 Be3 2.381705 1_555
Be2 Be6 2.381705 1_555
Be2 W5 2.602271 1_555
Be2 W1 2.602271 1_555
Be2 W7 2.602271 1_555
Be2 W3 2.616274 1_455
Be2 W8 2.616274 1_554
Be2 W2 2.616274 1_545
Be3 Co2 2.283616 1_555
Be3 Co1 2.283628 1_555
Be3 Co0 2.283628 1_555
Be3 Be6 2.381705 1_555
Be3 W5 2.602256 1_455
Be3 W9 2.602265 1_455
Be3 W10 2.602265 1_455
Be3 W6 2.616268 1_454
Be3 W11 2.616268 1_445
Be3 W3 2.616281 1_455
Be4 Co2 2.283616 1_665
Be4 Co3 2.283628 1_565
Be4 Co1 2.283628 1_655
Be4 Be5 2.381705 1_654
Be4 Be7 2.381705 1_554
Be4 W11 2.602256 1_555
Be4 W2 2.602265 1_555
Be4 W3 2.602265 1_555
Be4 W7 2.616268 1_655
Be4 W5 2.616268 1_565
Be4 W10 2.616281 1_555
Be5 Co2 2.283616 1_566
Be5 Co1 2.283628 1_556
Be5 Co0 2.283628 1_565
Be5 Be7 2.381705 1_455
Be5 W4 2.602256 1_555
Be5 W2 2.602265 1_555
Be5 W8 2.602265 1_555
Be5 W7 2.616268 1_556
Be5 W1 2.616268 1_565
Be5 W0 2.616281 1_555
Be6 Co2 2.283616 1_555
Be6 Co3 2.283628 1_555
Be6 Co1 2.283628 1_555
Be6 W1 2.602256 1_554
Be6 W9 2.602265 1_554
Be6 W0 2.602265 1_554
Be6 W6 2.616268 1_454
Be6 W4 2.616268 1_544
Be6 W8 2.616281 1_554
Be7 Co0 2.283620 1_665
Be7 Co3 2.283620 1_566
Be7 Co1 2.283620 1_656
Be7 W4 2.602271 1_555
Be7 W11 2.602271 1_555
Be7 W6 2.602271 1_555
Be7 W0 2.616274 1_655
Be7 W10 2.616274 1_556
Be7 W9 2.616274 1_565
Co0 W2 2.633392 1_545
Co0 W9 2.633392 1_455
Co0 W11 2.633392 1_445
Co0 W1 2.633392 1_555
Co0 W3 2.633392 1_455
Co0 W0 2.633392 1_545
Co1 W8 2.633392 1_554
Co1 W10 2.633392 1_455
Co1 W3 2.633392 1_455
Co1 W0 2.633392 1_554
Co1 W7 2.633392 1_555
Co1 W6 2.633392 1_454
Co2 W4 2.633392 1_544
Co2 W5 2.633392 1_455
Co2 W11 2.633392 1_445
Co2 W1 2.633392 1_554
Co2 W7 2.633392 1_545
Co2 W6 2.633392 1_454
Co3 W5 2.633392 1_555
Co3 W4 2.633392 1_544
Co3 W2 2.633392 1_545
Co3 W9 2.633392 1_554
Co3 W8 2.633392 1_554
Co3 W10 2.633392 1_545
B0 W11 2.161670 1_555
B0 W8 2.161670 1_555
B0 W6 2.161670 1_555
B0 W2 2.161670 1_555
B0 W4 2.161670 1_555
B0 W3 2.161670 1_555
B1 W1 2.161670 1_555
B1 W10 2.161670 1_555
B1 W9 2.161670 1_555
B1 W7 2.161670 1_555
B1 W0 2.161670 1_555
B1 W5 2.161670 1_555
