# generated using pymatgen
data_ZrNi21B6Sb
_symmetry_space_group_name_H-M   'P 1'
_cell_length_a   7.42271356
_cell_length_b   7.42271205
_cell_length_c   7.42271234
_cell_angle_alpha   59.99999869
_cell_angle_beta   60.00000544
_cell_angle_gamma   59.99999938
_symmetry_Int_Tables_number   1
_chemical_formula_structural   ZrNi21B6Sb
_chemical_formula_sum   'Zr1 Ni21 B6 Sb1'
_cell_volume   289.18313301
_cell_formula_units_Z   1
loop_
 _symmetry_equiv_pos_site_id
 _symmetry_equiv_pos_as_xyz
  1  'x, y, z'
loop_
 _atom_site_type_symbol
 _atom_site_label
 _atom_site_symmetry_multiplicity
 _atom_site_fract_x
 _atom_site_fract_y
 _atom_site_fract_z
 _atom_site_occupancy
  Zr  Zr0  1  0.25000000  0.25000000  0.25000000  1
  Ni  Ni0  1  0.00219868  0.00219868  0.66001735  1
  Ni  Ni1  1  0.61744313  0.61744313  0.14767060  1
  Ni  Ni2  1  0.38794904  0.83615189  0.38794904  1
  Ni  Ni3  1  0.66001735  0.33558528  0.00219868  1
  Ni  Ni4  1  0.00219868  0.33558528  0.66001735  1
  Ni  Ni5  1  0.66001735  0.00219868  0.00219868  1
  Ni  Ni6  1  0.00219868  0.00219868  0.33558528  1
  Ni  Ni7  1  0.00219868  0.33558528  0.00219868  1
  Ni  Ni8  1  0.33558528  0.00219868  0.66001735  1
  Ni  Ni9  1  0.66001735  0.00219868  0.33558528  1
  Ni  Ni10  1  0.33558528  0.00219868  0.00219868  1
  Ni  Ni11  1  0.00219868  0.66001735  0.00219868  1
  Ni  Ni12  1  0.38794904  0.38794904  0.83615189  1
  Ni  Ni13  1  0.00219868  0.66001735  0.33558528  1
  Ni  Ni14  1  0.33558528  0.66001735  0.00219868  1
  Ni  Ni15  1  0.00000000  0.00000000  0.00000000  1
  Ni  Ni16  1  0.61744313  0.14767060  0.61744313  1
  Ni  Ni17  1  0.14767060  0.61744313  0.61744313  1
  Ni  Ni18  1  0.38794904  0.38794904  0.38794904  1
  Ni  Ni19  1  0.83615189  0.38794904  0.38794904  1
  Ni  Ni20  1  0.61744313  0.61744313  0.61744313  1
  B  B0  1  0.72952259  0.72952259  0.27047741  1
  B  B1  1  0.72952259  0.27047741  0.72952259  1
  B  B2  1  0.27047741  0.72952259  0.27047741  1
  B  B3  1  0.72952259  0.27047741  0.27047741  1
  B  B4  1  0.27047741  0.72952259  0.72952259  1
  B  B5  1  0.27047741  0.27047741  0.72952259  1
  Sb  Sb0  1  0.75000000  0.75000000  0.75000000  1
loop_
_geom_bond_atom_site_label_1
_geom_bond_atom_site_label_2
_geom_bond_distance
_geom_bond_site_symmetry_2
Ni0 Ni15 2.507379 1_556
Ni0 Zr0 2.866408 1_555
Ni1 Sb0 2.410130 1_554
Ni2 Zr0 2.508176 1_565
Ni3 Zr0 2.866408 1_555
Ni4 Zr0 2.866407 1_555
Ni5 Zr0 2.866408 1_555
Ni6 Zr0 2.866408 1_555
Ni7 Zr0 2.866407 1_555
Ni8 Zr0 2.866407 1_555
Ni9 Zr0 2.866408 1_555
Ni10 Ni15 2.507380 1_555
Ni10 Zr0 2.866407 1_555
Ni11 Ni15 2.507379 1_565
Ni11 Zr0 2.866407 1_555
Ni12 Zr0 2.508176 1_556
Ni13 Ni15 2.507379 1_565
Ni13 Zr0 2.866407 1_555
Ni14 Ni15 2.507380 1_565
Ni14 Zr0 2.866407 1_555
Ni15 Ni7 2.507379 1_555
Ni15 Ni4 2.507379 1_554
Ni15 Ni6 2.507379 1_555
Ni15 Ni3 2.507380 1_455
Ni15 Ni8 2.507380 1_554
Ni15 Ni9 2.507380 1_455
Ni15 Ni5 2.507380 1_455
Ni16 Sb0 2.410130 1_545
Ni17 Sb0 2.410131 1_455
Ni18 Zr0 2.508170 1_555
Ni19 Zr0 2.508176 1_655
Ni20 Sb0 2.410130 1_555
B0 Ni9 2.069032 1_565
B0 Ni5 2.069032 1_565
B0 Ni13 2.069032 1_655
B0 Ni11 2.069032 1_655
B0 Ni19 2.070669 1_555
B0 Ni2 2.070669 1_555
B0 Ni1 2.103330 1_555
B0 Ni20 2.103330 1_555
B1 Ni5 2.069032 1_556
B1 Ni3 2.069032 1_556
B1 Ni0 2.069032 1_655
B1 Ni4 2.069032 1_655
B1 Ni19 2.070669 1_555
B1 Ni12 2.070669 1_555
B1 Ni20 2.103329 1_555
B1 Ni16 2.103330 1_555
B2 Ni10 2.069032 1_565
B2 Ni14 2.069032 1_555
B2 Ni6 2.069032 1_565
B2 Ni13 2.069032 1_555
B2 Ni2 2.070663 1_555
B2 Ni18 2.070668 1_555
B2 Ni17 2.103330 1_555
B2 Ni1 2.103330 1_555
B3 Ni9 2.069032 1_555
B3 Ni3 2.069032 1_555
B3 Ni6 2.069032 1_655
B3 Ni7 2.069032 1_655
B3 Ni19 2.070663 1_555
B3 Ni18 2.070669 1_555
B3 Ni1 2.103329 1_555
B3 Ni16 2.103330 1_555
B4 Ni8 2.069032 1_565
B4 Ni14 2.069032 1_556
B4 Ni0 2.069032 1_565
B4 Ni11 2.069032 1_556
B4 Ni12 2.070669 1_555
B4 Ni2 2.070669 1_555
B4 Ni17 2.103330 1_555
B4 Ni20 2.103330 1_555
B5 Ni8 2.069032 1_555
B5 Ni10 2.069032 1_556
B5 Ni7 2.069032 1_556
B5 Ni4 2.069032 1_555
B5 Ni12 2.070663 1_555
B5 Ni18 2.070669 1_555
B5 Ni17 2.103329 1_555
B5 Ni16 2.103330 1_555
