# generated using pymatgen
data_BiPd2Pb
_symmetry_space_group_name_H-M   'P 1'
_cell_length_a   5.62558243
_cell_length_b   5.68172068
_cell_length_c   5.68171996
_cell_angle_alpha   100.26120418
_cell_angle_beta   101.60636566
_cell_angle_gamma   101.60636169
_symmetry_Int_Tables_number   1
_chemical_formula_structural   BiPd2Pb
_chemical_formula_sum   'Bi2 Pd4 Pb2'
_cell_volume   169.67121551
_cell_formula_units_Z   2
loop_
 _symmetry_equiv_pos_site_id
 _symmetry_equiv_pos_as_xyz
  1  'x, y, z'
loop_
 _atom_site_type_symbol
 _atom_site_label
 _atom_site_symmetry_multiplicity
 _atom_site_fract_x
 _atom_site_fract_y
 _atom_site_fract_z
 _atom_site_occupancy
  Bi  Bi0  1  0.57293672  0.50276861  0.05406806  1
  Bi  Bi1  1  0.57293672  0.05406806  0.50276861  1
  Pd  Pd0  1  0.46617996  0.96044117  0.96044117  1
  Pd  Pd1  1  0.47768939  0.55425421  0.55425421  1
  Pd  Pd2  1  0.12824325  0.17097551  0.65668305  1
  Pd  Pd3  1  0.12824325  0.65668305  0.17097551  1
  Pb  Pb0  1  0.00947530  0.12699659  0.12699659  1
  Pb  Pb1  1  0.00829741  0.64281480  0.64281480  1
loop_
_geom_bond_atom_site_label_1
_geom_bond_atom_site_label_2
_geom_bond_distance
_geom_bond_site_symmetry_2
Bi0 Pd1 2.860755 1_554
Bi0 Pd0 2.897972 1_554
Bi0 Pd0 2.946396 1_544
Bi0 Pd3 2.967525 1_555
Bi0 Pd3 2.970478 1_655
Bi0 Pd1 2.971326 1_555
Bi0 Pd2 3.036965 1_554
Bi1 Pd1 2.860756 1_545
Bi1 Pd0 2.897972 1_545
Bi1 Pd0 2.946395 1_544
Bi1 Pd2 2.967525 1_555
Bi1 Pd2 2.970478 1_655
Bi1 Pd1 2.971326 1_555
Bi1 Pd3 3.036965 1_545
Pd0 Pd2 2.890329 1_565
Pd0 Pd3 2.890329 1_556
Pd0 Pd1 2.979790 1_555
Pd1 Pd3 2.852161 1_555
Pd1 Pd2 2.852161 1_555
Pb0 Pd2 2.902057 1_555
Pb0 Pd3 2.902058 1_555
Pb0 Pd0 2.913027 1_444
Pb0 Pd2 2.922080 1_554
Pb0 Pd3 2.922080 1_545
Pb0 Pd0 3.166944 1_544
Pb0 Pd1 3.388028 1_555
Pb1 Pd1 2.849134 1_455
Pb1 Pd0 2.871835 1_555
Pb1 Pd3 2.903491 1_555
Pb1 Pd2 2.903491 1_555
Pb1 Pd1 2.908301 1_555
Pb1 Pd3 2.923404 1_556
Pb1 Pd2 2.923405 1_565
