# generated using pymatgen
data_Ti2Cu(SnIr)2
_symmetry_space_group_name_H-M   'P 1'
_cell_length_a   7.60964143
_cell_length_b   7.60964027
_cell_length_c   7.60964116
_cell_angle_alpha   33.63771021
_cell_angle_beta   33.63772499
_cell_angle_gamma   33.63771453
_symmetry_Int_Tables_number   1
_chemical_formula_structural   Ti2Cu(SnIr)2
_chemical_formula_sum   'Ti2 Cu1 Sn2 Ir2'
_cell_volume   120.45308782
_cell_formula_units_Z   1
loop_
 _symmetry_equiv_pos_site_id
 _symmetry_equiv_pos_as_xyz
  1  'x, y, z'
loop_
 _atom_site_type_symbol
 _atom_site_label
 _atom_site_symmetry_multiplicity
 _atom_site_fract_x
 _atom_site_fract_y
 _atom_site_fract_z
 _atom_site_occupancy
  Ti  Ti0  1  0.75396197  0.75396197  0.75396197  1
  Ti  Ti1  1  0.24693536  0.24693536  0.24693536  1
  Cu  Cu0  1  0.37589427  0.37589427  0.37589427  1
  Sn  Sn0  1  0.99611585  0.99611585  0.99611585  1
  Sn  Sn1  1  0.50266988  0.50266988  0.50266988  1
  Ir  Ir0  1  0.12329830  0.12329830  0.12329830  1
  Ir  Ir1  1  0.62612538  0.62612538  0.62612538  1
loop_
_geom_bond_atom_site_label_1
_geom_bond_atom_site_label_2
_geom_bond_distance
_geom_bond_site_symmetry_2
Cu0 Ti0 2.718557 1_545
Cu0 Ti0 2.718558 1_554
Cu0 Ti0 2.718558 1_455
Cu0 Sn1 2.727836 1_555
Cu0 Sn0 2.731807 1_454
Cu0 Sn0 2.731808 1_445
Cu0 Sn0 2.731808 1_544
Cu0 Ti1 2.774815 1_555
Cu0 Ir0 3.079287 1_565
Cu0 Ir0 3.079288 1_556
Cu0 Ir0 3.079289 1_655
Cu0 Ir1 3.108279 1_545
Cu0 Ir1 3.108280 1_554
Cu0 Ir1 3.108280 1_455
Sn0 Ti1 3.101013 1_656
Sn0 Ti1 3.101014 1_665
Sn0 Ti1 3.101014 1_566
Sn0 Ti0 3.211408 1_565
Sn0 Ti0 3.211410 1_556
Sn0 Ti0 3.211410 1_655
Sn1 Ti1 3.041699 1_565
Sn1 Ti1 3.041700 1_556
Sn1 Ti1 3.041701 1_655
Sn1 Ti0 3.095202 1_545
Sn1 Ti0 3.095203 1_554
Sn1 Ti0 3.095204 1_455
Ir0 Ti0 2.657851 1_454
Ir0 Ti0 2.657852 1_445
Ir0 Ti0 2.657852 1_544
Ir0 Ti1 2.660304 1_555
Ir0 Sn1 2.728617 1_545
Ir0 Sn1 2.728617 1_554
Ir0 Sn1 2.728618 1_455
Ir0 Sn0 2.736591 1_444
Ir1 Sn1 2.656398 1_555
Ir1 Sn0 2.661988 1_545
Ir1 Sn0 2.661988 1_554
Ir1 Sn0 2.661989 1_455
Ir1 Ti1 2.727201 1_565
Ir1 Ti1 2.727201 1_556
Ir1 Ti1 2.727202 1_655
Ir1 Ti0 2.750666 1_555
