# generated using pymatgen
data_BaAgH9W
_symmetry_space_group_name_H-M   'P 1'
_cell_length_a   8.85800134
_cell_length_b   8.85799991
_cell_length_c   5.22887570
_cell_angle_alpha   90.00000000
_cell_angle_beta   90.00000000
_cell_angle_gamma   120.00000902
_symmetry_Int_Tables_number   1
_chemical_formula_structural   BaAgH9W
_chemical_formula_sum   'Ba3 Ag3 H27 W3'
_cell_volume   355.31236670
_cell_formula_units_Z   3
loop_
 _symmetry_equiv_pos_site_id
 _symmetry_equiv_pos_as_xyz
  1  'x, y, z'
loop_
 _atom_site_type_symbol
 _atom_site_label
 _atom_site_symmetry_multiplicity
 _atom_site_fract_x
 _atom_site_fract_y
 _atom_site_fract_z
 _atom_site_occupancy
  Ba  Ba0  1  0.00000000  0.59807031  0.00000000  1
  Ba  Ba1  1  0.40192969  0.40192969  0.00000000  1
  Ba  Ba2  1  0.59807031  0.00000000  0.00000000  1
  Ag  Ag0  1  0.00000000  0.24677544  0.50000000  1
  Ag  Ag1  1  0.75322456  0.75322456  0.50000000  1
  Ag  Ag2  1  0.24677544  0.00000000  0.50000000  1
  H  H0  1  0.79716682  0.31180251  0.73822526  1
  H  H1  1  0.68819749  0.48536331  0.73822526  1
  H  H2  1  0.51463669  0.20283318  0.73822526  1
  H  H3  1  0.20283318  0.51463669  0.26177474  1
  H  H4  1  0.51463669  0.20283318  0.26177474  1
  H  H5  1  0.79716682  0.31180251  0.26177474  1
  H  H6  1  0.68819749  0.48536331  0.26177474  1
  H  H7  1  0.31180251  0.79716682  0.73822526  1
  H  H8  1  0.48536331  0.68819749  0.73822526  1
  H  H9  1  0.19643345  1.00000000  0.00000000  1
  H  H10  1  0.80356655  0.80356655  0.00000000  1
  H  H11  1  1.00000000  0.19643345  0.00000000  1
  H  H12  1  0.86152531  1.00000000  0.24934187  1
  H  H13  1  0.13847469  0.13847469  0.75065813  1
  H  H14  1  1.00000000  0.86152531  0.75065813  1
  H  H15  1  1.00000000  0.86152531  0.24934187  1
  H  H16  1  0.13847469  0.13847469  0.24934187  1
  H  H17  1  0.86152531  1.00000000  0.75065813  1
  H  H18  1  0.12714538  0.64008759  0.50000000  1
  H  H19  1  0.51294221  0.87285462  0.50000000  1
  H  H20  1  0.35991241  0.48705779  0.50000000  1
  H  H21  1  0.48705779  0.35991241  0.50000000  1
  H  H22  1  0.87285462  0.51294221  0.50000000  1
  H  H23  1  0.64008759  0.12714538  0.50000000  1
  H  H24  1  0.20283318  0.51463669  0.73822526  1
  H  H25  1  0.31180251  0.79716682  0.26177474  1
  H  H26  1  0.48536331  0.68819749  0.26177474  1
  W  W0  1  0.66666700  0.33333300  0.50000000  1
  W  W1  1  0.33333300  0.66666700  0.50000000  1
  W  W2  1  0.00000000  0.00000000  0.00000000  1
loop_
_geom_bond_atom_site_label_1
_geom_bond_atom_site_label_2
_geom_bond_distance
_geom_bond_site_symmetry_2
Ba0 H3 2.641166 1_555
Ba0 H24 2.641166 1_554
Ba0 H5 2.641171 1_455
Ba0 H0 2.641171 1_454
Ba0 H15 2.673185 1_455
Ba0 H14 2.673185 1_454
Ba0 H6 2.782308 1_455
Ba0 H1 2.782308 1_454
Ba0 H25 2.782309 1_555
Ba0 H7 2.782309 1_554
Ba0 H22 2.796977 1_454
Ba0 H22 2.796977 1_455
Ba0 H18 2.796977 1_554
Ba0 H18 2.796977 1_555
Ba1 H26 2.641173 1_555
Ba1 H8 2.641173 1_554
Ba1 H6 2.641173 1_555
Ba1 H1 2.641173 1_554
Ba1 H13 2.673185 1_554
Ba1 H16 2.673185 1_555
Ba1 H4 2.782315 1_555
Ba1 H2 2.782315 1_554
Ba1 H3 2.782315 1_555
Ba1 H24 2.782315 1_554
Ba1 H20 2.796977 1_555
Ba1 H20 2.796977 1_554
Ba1 H21 2.796977 1_555
Ba1 H21 2.796977 1_554
Ba2 H4 2.641166 1_555
Ba2 H2 2.641166 1_554
Ba2 H25 2.641171 1_545
Ba2 H7 2.641171 1_544
Ba2 H12 2.673185 1_545
Ba2 H17 2.673185 1_544
Ba2 H26 2.782307 1_545
Ba2 H8 2.782307 1_544
Ba2 H5 2.782309 1_555
Ba2 H0 2.782309 1_554
Ba2 H19 2.796977 1_545
Ba2 H19 2.796977 1_544
Ba2 H23 2.796977 1_555
Ba2 H23 2.796977 1_554
Ag0 H12 2.306389 1_445
Ag0 H17 2.306389 1_445
Ag0 H16 2.306389 1_555
Ag0 H13 2.306389 1_555
Ag0 H0 2.479207 1_455
Ag0 H5 2.479207 1_455
Ag0 H24 2.479211 1_555
Ag0 H3 2.479211 1_555
Ag1 H12 2.306389 1_555
Ag1 H17 2.306389 1_555
Ag1 H15 2.306389 1_555
Ag1 H14 2.306389 1_555
Ag1 H1 2.479214 1_555
Ag1 H6 2.479214 1_555
Ag1 H8 2.479214 1_555
Ag1 H26 2.479214 1_555
Ag2 H15 2.306389 1_445
Ag2 H14 2.306389 1_445
Ag2 H13 2.306389 1_555
Ag2 H16 2.306389 1_555
Ag2 H7 2.479206 1_545
Ag2 H25 2.479206 1_545
Ag2 H2 2.479212 1_555
Ag2 H4 2.479212 1_555
H0 W0 1.773342 1_555
H1 W0 1.773342 1_555
H2 W0 1.773342 1_555
H3 W1 1.773342 1_555
H4 W0 1.773342 1_555
H5 W0 1.773342 1_555
H6 W0 1.773342 1_555
H7 W1 1.773342 1_555
H8 W1 1.773342 1_555
H9 W2 1.740008 1_565
H10 W2 1.740007 1_665
H11 W2 1.740007 1_655
H12 W2 1.790085 1_665
H13 W2 1.790085 1_556
H14 W2 1.790085 1_666
H15 W2 1.790085 1_665
H16 W2 1.790085 1_555
H17 W2 1.790085 1_666
H18 W1 1.720813 1_555
H19 W1 1.720816 1_555
H20 W1 1.720821 1_555
H21 W0 1.720821 1_555
H22 W0 1.720816 1_555
H23 W0 1.720812 1_555
H24 W1 1.773342 1_555
H25 W1 1.773342 1_555
H26 W1 1.773342 1_555
