# generated using pymatgen
data_CsNa3(Ga2S3)2
_symmetry_space_group_name_H-M   'P 1'
_cell_length_a   6.75114110
_cell_length_b   6.75114104
_cell_length_c   8.58020813
_cell_angle_alpha   82.15923498
_cell_angle_beta   82.15923793
_cell_angle_gamma   120.02778342
_symmetry_Int_Tables_number   1
_chemical_formula_structural   CsNa3(Ga2S3)2
_chemical_formula_sum   'Cs1 Na3 Ga4 S6'
_cell_volume   325.72288895
_cell_formula_units_Z   1
loop_
 _symmetry_equiv_pos_site_id
 _symmetry_equiv_pos_as_xyz
  1  'x, y, z'
loop_
 _atom_site_type_symbol
 _atom_site_label
 _atom_site_symmetry_multiplicity
 _atom_site_fract_x
 _atom_site_fract_y
 _atom_site_fract_z
 _atom_site_occupancy
  Cs  Cs0  1  0.50000000  0.50000000  0.50000000  1
  Na  Na0  1  0.65214718  0.34785282  1.00000000  1
  Na  Na1  1  0.34785282  0.65214718  0.00000000  1
  Na  Na2  1  0.00000000  0.00000000  0.00000000  1
  Ga  Ga0  1  0.88284744  0.21785287  0.34991605  1
  Ga  Ga1  1  0.78214713  0.11715256  0.65008395  1
  Ga  Ga2  1  0.21785287  0.88284744  0.34991605  1
  Ga  Ga3  1  0.11715256  0.78214713  0.65008395  1
  S  S0  1  0.40545116  0.02305695  0.77576052  1
  S  S1  1  0.02305695  0.40545116  0.77576052  1
  S  S2  1  0.97694305  0.59454884  0.22423948  1
  S  S3  1  0.78619600  0.78619600  0.77562181  1
  S  S4  1  0.59454884  0.97694305  0.22423948  1
  S  S5  1  0.21380400  0.21380400  0.22437819  1
loop_
_geom_bond_atom_site_label_1
_geom_bond_atom_site_label_2
_geom_bond_distance
_geom_bond_site_symmetry_2
Cs0 S3 3.437467 1_555
Cs0 S5 3.437467 1_555
Cs0 S0 3.438873 1_555
Cs0 S4 3.438873 1_555
Cs0 S2 3.438873 1_555
Cs0 S1 3.438873 1_555
Na0 S4 2.762287 1_546
Na0 S1 2.762287 1_655
Na0 S3 2.927932 1_555
Na0 S5 2.927932 1_556
Na0 S2 3.107112 1_556
Na0 S0 3.107112 1_555
Na1 S0 2.762287 1_564
Na1 S2 2.762287 1_455
Na1 S5 2.927932 1_555
Na1 S3 2.927932 1_554
Na1 S1 3.107112 1_554
Na1 S4 3.107112 1_555
Na2 S5 2.702692 1_555
Na2 S3 2.702692 1_444
Na2 S1 3.045256 1_554
Na2 S2 3.045256 1_445
Na2 S4 3.045256 1_445
Na2 S0 3.045256 1_554
Ga0 S4 2.340772 1_545
Ga0 S2 2.341332 1_555
Ga0 S5 2.359183 1_655
Ga1 S1 2.340772 1_655
Ga1 S0 2.341332 1_555
Ga1 S3 2.359183 1_545
Ga2 S2 2.340772 1_455
Ga2 S4 2.341332 1_555
Ga2 S5 2.359183 1_565
Ga3 S0 2.340772 1_565
Ga3 S1 2.341332 1_555
Ga3 S3 2.359183 1_455
