# generated using pymatgen
data_RbCoPtSe4
_symmetry_space_group_name_H-M   'P 1'
_cell_length_a   6.33991649
_cell_length_b   7.28315073
_cell_length_c   16.15458055
_cell_angle_alpha   90.00000000
_cell_angle_beta   90.00000000
_cell_angle_gamma   90.00000000
_symmetry_Int_Tables_number   1
_chemical_formula_structural   RbCoPtSe4
_chemical_formula_sum   'Rb4 Co4 Pt4 Se16'
_cell_volume   745.93076829
_cell_formula_units_Z   4
loop_
 _symmetry_equiv_pos_site_id
 _symmetry_equiv_pos_as_xyz
  1  'x, y, z'
loop_
 _atom_site_type_symbol
 _atom_site_label
 _atom_site_symmetry_multiplicity
 _atom_site_fract_x
 _atom_site_fract_y
 _atom_site_fract_z
 _atom_site_occupancy
  Rb  Rb0  1  0.37015457  0.00000000  0.00000000  1
  Rb  Rb1  1  0.62984543  0.50000000  0.50000000  1
  Rb  Rb2  1  0.03867010  0.00000000  0.50000000  1
  Rb  Rb3  1  0.96132990  0.50000000  0.00000000  1
  Co  Co0  1  0.50000000  0.25000000  0.25000000  1
  Co  Co1  1  0.50000000  0.75000000  0.75000000  1
  Co  Co2  1  0.50000000  0.75000000  0.25000000  1
  Co  Co3  1  0.50000000  0.25000000  0.75000000  1
  Pt  Pt0  1  0.00177999  0.00000000  0.25081117  1
  Pt  Pt1  1  0.00177999  0.00000000  0.74918883  1
  Pt  Pt2  1  0.99822001  0.50000000  0.24918883  1
  Pt  Pt3  1  0.99822001  0.50000000  0.75081117  1
  Se  Se0  1  0.81888038  0.25072300  0.32878597  1
  Se  Se1  1  0.81888038  0.74927700  0.67121403  1
  Se  Se2  1  0.18111962  0.75072300  0.17121403  1
  Se  Se3  1  0.18111962  0.24927700  0.82878597  1
  Se  Se4  1  0.18111962  0.24927700  0.17121403  1
  Se  Se5  1  0.18111962  0.75072300  0.82878597  1
  Se  Se6  1  0.81888038  0.74927700  0.32878597  1
  Se  Se7  1  0.81888038  0.25072300  0.67121403  1
  Se  Se8  1  0.65937872  0.00000000  0.17221379  1
  Se  Se9  1  0.65937872  0.00000000  0.82778621  1
  Se  Se10  1  0.34062128  0.50000000  0.32778621  1
  Se  Se11  1  0.34062128  0.50000000  0.67221379  1
  Se  Se12  1  0.34970565  0.00000000  0.32831060  1
  Se  Se13  1  0.34970565  0.00000000  0.67168940  1
  Se  Se14  1  0.65029435  0.50000000  0.17168940  1
  Se  Se15  1  0.65029435  0.50000000  0.82831060  1
loop_
_geom_bond_atom_site_label_1
_geom_bond_atom_site_label_2
_geom_bond_distance
_geom_bond_site_symmetry_2
Rb0 Se8 3.331974 1_555
Rb0 Se9 3.331974 1_554
Rb0 Se4 3.518891 1_555
Rb0 Se2 3.518891 1_545
Rb0 Se3 3.518891 1_554
Rb0 Se5 3.518891 1_544
Rb1 Se11 3.331974 1_555
Rb1 Se10 3.331974 1_555
Rb1 Se1 3.518891 1_555
Rb1 Se7 3.518891 1_555
Rb1 Se6 3.518891 1_555
Rb1 Se0 3.518891 1_555
Rb2 Se13 3.403122 1_555
Rb2 Se12 3.403122 1_555
Rb2 Se7 3.595319 1_455
Rb2 Se1 3.595319 1_445
Rb2 Se0 3.595319 1_455
Rb2 Se6 3.595319 1_445
Rb3 Se14 3.403122 1_555
Rb3 Se15 3.403122 1_554
Rb3 Se2 3.595319 1_655
Rb3 Se4 3.595319 1_655
Rb3 Se5 3.595319 1_654
Rb3 Se3 3.595319 1_654
Co0 Se0 2.388954 1_555
Co0 Se4 2.388954 1_555
Co0 Se12 2.413216 1_555
Co0 Se14 2.413216 1_555
Co0 Se10 2.432144 1_555
Co0 Se8 2.432144 1_555
Co1 Se5 2.388954 1_555
Co1 Se1 2.388954 1_555
Co1 Se15 2.413216 1_555
Co1 Se13 2.413216 1_565
Co1 Se9 2.432144 1_565
Co1 Se11 2.432144 1_555
Co2 Se6 2.388954 1_555
Co2 Se2 2.388954 1_555
Co2 Se12 2.413216 1_565
Co2 Se14 2.413216 1_555
Co2 Se10 2.432144 1_555
Co2 Se8 2.432144 1_565
Co3 Se3 2.388954 1_555
Co3 Se7 2.388954 1_555
Co3 Se15 2.413216 1_555
Co3 Se13 2.413216 1_555
Co3 Se9 2.432144 1_555
Co3 Se11 2.432144 1_555
Pt0 Se4 2.498463 1_555
Pt0 Se2 2.498463 1_545
Pt0 Se0 2.503156 1_455
Pt0 Se6 2.503156 1_445
Pt0 Se8 2.514858 1_455
Pt0 Se12 2.536350 1_555
Pt1 Se3 2.498463 1_555
Pt1 Se5 2.498463 1_545
Pt1 Se7 2.503156 1_455
Pt1 Se1 2.503156 1_445
Pt1 Se9 2.514858 1_455
Pt1 Se13 2.536350 1_555
Pt2 Se6 2.498463 1_555
Pt2 Se0 2.498463 1_555
Pt2 Se2 2.503156 1_655
Pt2 Se4 2.503156 1_655
Pt2 Se10 2.514858 1_655
Pt2 Se14 2.536350 1_555
Pt3 Se1 2.498463 1_555
Pt3 Se7 2.498463 1_555
Pt3 Se5 2.503156 1_655
Pt3 Se3 2.503156 1_655
Pt3 Se11 2.514858 1_655
Pt3 Se15 2.536350 1_555
