# generated using pymatgen
data_LiZn5(SnPt)4
_symmetry_space_group_name_H-M   'P 1'
_cell_length_a   4.31592660
_cell_length_b   4.31592602
_cell_length_c   15.71328570
_cell_angle_alpha   90.00000000
_cell_angle_beta   90.00000000
_cell_angle_gamma   119.99998266
_symmetry_Int_Tables_number   1
_chemical_formula_structural   LiZn5(SnPt)4
_chemical_formula_sum   'Li1 Zn5 Sn4 Pt4'
_cell_volume   253.48120120
_cell_formula_units_Z   1
loop_
 _symmetry_equiv_pos_site_id
 _symmetry_equiv_pos_as_xyz
  1  'x, y, z'
loop_
 _atom_site_type_symbol
 _atom_site_label
 _atom_site_symmetry_multiplicity
 _atom_site_fract_x
 _atom_site_fract_y
 _atom_site_fract_z
 _atom_site_occupancy
  Li  Li0  1  0.00000000  0.00000000  0.16642129  1
  Zn  Zn0  1  0.00000000  0.00000000  0.83150767  1
  Zn  Zn1  1  0.00000000  0.00000000  0.66892466  1
  Zn  Zn2  1  0.00000000  0.00000000  0.32840456  1
  Zn  Zn3  1  0.33333300  0.66666700  0.75103944  1
  Zn  Zn4  1  0.66666700  0.33333300  0.24655056  1
  Sn  Sn0  1  0.33333300  0.66666700  0.07705836  1
  Sn  Sn1  1  0.66666700  0.33333300  0.92787949  1
  Sn  Sn2  1  0.66666700  0.33333300  0.57340383  1
  Sn  Sn3  1  0.33333300  0.66666700  0.42691102  1
  Pt  Pt0  1  0.00000000  0.00000000  0.99844301  1
  Pt  Pt1  1  0.00000000  0.00000000  0.50024599  1
  Pt  Pt2  1  0.33333300  0.66666700  0.25332010  1
  Pt  Pt3  1  0.66666700  0.33333300  0.74989100  1
loop_
_geom_bond_atom_site_label_1
_geom_bond_atom_site_label_2
_geom_bond_distance
_geom_bond_site_symmetry_2
Li0 Zn2 2.545289 1_555
Li0 Pt0 2.639491 1_554
Li0 Zn4 2.791841 1_455
Li0 Zn4 2.791845 1_445
Li0 Zn4 2.791845 1_555
Li0 Pt2 2.841401 1_545
Li0 Pt2 2.841404 1_555
Li0 Pt2 2.841405 1_445
Li0 Sn0 2.860209 1_545
Li0 Sn0 2.860213 1_555
Li0 Sn0 2.860213 1_445
Zn0 Zn1 2.554713 1_555
Zn0 Zn3 2.794247 1_545
Zn0 Zn3 2.794251 1_555
Zn0 Zn3 2.794251 1_445
Zn1 Zn3 2.806050 1_545
Zn1 Zn3 2.806054 1_555
Zn1 Zn3 2.806054 1_445
Zn2 Zn4 2.804168 1_455
Zn2 Zn4 2.804172 1_445
Zn2 Zn4 2.804172 1_555
Sn1 Zn0 2.915856 1_655
Sn1 Zn0 2.915860 1_665
Sn1 Zn0 2.915860 1_555
Sn2 Zn1 2.908934 1_655
Sn2 Zn1 2.908938 1_665
Sn2 Zn1 2.908938 1_555
Sn3 Zn2 2.933416 1_565
Sn3 Zn2 2.933420 1_555
Sn3 Zn2 2.933420 1_665
Pt0 Zn0 2.623103 1_555
Pt0 Sn1 2.727355 1_455
Pt0 Sn1 2.727359 1_445
Pt0 Sn1 2.727359 1_555
Pt0 Sn0 2.781194 1_546
Pt0 Sn0 2.781198 1_556
Pt0 Sn0 2.781198 1_446
Pt1 Zn1 2.650496 1_555
Pt1 Zn2 2.700193 1_555
Pt1 Sn2 2.744180 1_455
Pt1 Sn2 2.744184 1_445
Pt1 Sn2 2.744184 1_555
Pt1 Sn3 2.745347 1_545
Pt1 Sn3 2.745351 1_555
Pt1 Sn3 2.745351 1_445
Pt2 Zn4 2.494068 1_565
Pt2 Zn4 2.494069 1_455
Pt2 Zn4 2.494075 1_555
Pt2 Sn3 2.727684 1_555
Pt2 Zn2 2.756999 1_565
Pt2 Zn2 2.757003 1_555
Pt2 Zn2 2.757003 1_665
Pt2 Sn0 2.769651 1_555
Pt3 Zn3 2.491864 1_545
Pt3 Zn3 2.491865 1_655
Pt3 Zn3 2.491871 1_555
Pt3 Sn2 2.773193 1_555
Pt3 Sn1 2.796784 1_555
Pt3 Zn1 2.797798 1_655
Pt3 Zn1 2.797802 1_665
Pt3 Zn1 2.797802 1_555
Pt3 Zn0 2.802459 1_655
Pt3 Zn0 2.802463 1_665
Pt3 Zn0 2.802463 1_555
