# generated using pymatgen
data_Y9ScCd3Os
_symmetry_space_group_name_H-M   'P 1'
_cell_length_a   9.55997027
_cell_length_b   9.55997050
_cell_length_c   9.82285596
_cell_angle_alpha   90.00000000
_cell_angle_beta   90.00000000
_cell_angle_gamma   119.99999921
_symmetry_Int_Tables_number   1
_chemical_formula_structural   Y9ScCd3Os
_chemical_formula_sum   'Y18 Sc2 Cd6 Os2'
_cell_volume   777.46617769
_cell_formula_units_Z   2
loop_
 _symmetry_equiv_pos_site_id
 _symmetry_equiv_pos_as_xyz
  1  'x, y, z'
loop_
 _atom_site_type_symbol
 _atom_site_label
 _atom_site_symmetry_multiplicity
 _atom_site_fract_x
 _atom_site_fract_y
 _atom_site_fract_z
 _atom_site_occupancy
  Y  Y0  1  0.20885194  0.79114806  0.44056038  1
  Y  Y1  1  0.20885194  0.41770287  0.44056038  1
  Y  Y2  1  0.58229713  0.79114806  0.44056038  1
  Y  Y3  1  0.79114806  0.20885194  0.55943962  1
  Y  Y4  1  0.79114806  0.58229713  0.55943962  1
  Y  Y5  1  0.41770287  0.20885194  0.55943962  1
  Y  Y6  1  0.79114806  0.20885194  0.94056038  1
  Y  Y7  1  0.79114806  0.58229713  0.94056038  1
  Y  Y8  1  0.41770287  0.20885194  0.94056038  1
  Y  Y9  1  0.20885194  0.79114806  0.05943962  1
  Y  Y10  1  0.20885194  0.41770287  0.05943962  1
  Y  Y11  1  0.58229713  0.79114806  0.05943962  1
  Y  Y12  1  0.54003826  0.45996174  0.25000000  1
  Y  Y13  1  0.54003826  0.08007752  0.25000000  1
  Y  Y14  1  0.91992248  0.45996174  0.25000000  1
  Y  Y15  1  0.45996174  0.54003826  0.75000000  1
  Y  Y16  1  0.45996174  0.91992248  0.75000000  1
  Y  Y17  1  0.08007752  0.54003826  0.75000000  1
  Sc  Sc0  1  0.00000000  0.00000000  0.50000000  1
  Sc  Sc1  1  0.00000000  0.00000000  0.00000000  1
  Cd  Cd0  1  0.89111483  0.10888517  0.25000000  1
  Cd  Cd1  1  0.89111483  0.78223266  0.25000000  1
  Cd  Cd2  1  0.21776734  0.10888517  0.25000000  1
  Cd  Cd3  1  0.10888517  0.89111483  0.75000000  1
  Cd  Cd4  1  0.10888517  0.21776734  0.75000000  1
  Cd  Cd5  1  0.78223266  0.89111483  0.75000000  1
  Os  Os0  1  0.33333300  0.66666700  0.25000000  1
  Os  Os1  1  0.66666700  0.33333300  0.75000000  1
loop_
_geom_bond_atom_site_label_1
_geom_bond_atom_site_label_2
_geom_bond_distance
_geom_bond_site_symmetry_2
Y0 Y13 3.523118 1_565
Y0 Y14 3.523118 1_455
Y0 Y16 3.682685 1_555
Y0 Y17 3.682685 1_555
Y1 Y12 3.523111 1_555
Y1 Y14 3.523128 1_455
Y1 Y17 3.682685 1_555
Y1 Y15 3.682685 1_555
Y10 Y12 3.523111 1_555
Y10 Y14 3.523128 1_455
Y10 Y15 3.682685 1_554
Y10 Y17 3.682685 1_554
Y11 Y12 3.523112 1_555
Y11 Y13 3.523128 1_565
Y11 Y16 3.682685 1_554
Y11 Y15 3.682685 1_554
Y12 Y2 3.523112 1_555
Y12 Y14 3.631682 1_555
Y12 Y13 3.631682 1_555
Y12 Y4 3.682685 1_555
Y12 Y7 3.682685 1_554
Y12 Y5 3.682685 1_555
Y12 Y8 3.682685 1_554
Y13 Y9 3.523118 1_545
Y13 Y2 3.523128 1_545
Y13 Y14 3.631682 1_555
Y13 Y5 3.682685 1_555
Y13 Y8 3.682685 1_554
Y13 Y3 3.682685 1_555
Y13 Y6 3.682685 1_554
Y14 Y9 3.523118 1_655
Y14 Y4 3.682685 1_555
Y14 Y7 3.682685 1_554
Y14 Y3 3.682685 1_555
Y14 Y6 3.682685 1_554
Y15 Y7 3.523111 1_555
Y15 Y4 3.523111 1_555
Y15 Y8 3.523112 1_555
Y15 Y5 3.523112 1_555
Y15 Y17 3.631682 1_555
Y15 Y16 3.631682 1_555
Y15 Y2 3.682685 1_555
Y16 Y6 3.523118 1_565
Y16 Y3 3.523118 1_565
Y16 Y8 3.523128 1_565
Y16 Y5 3.523128 1_565
Y16 Y17 3.631682 1_555
Y16 Y2 3.682685 1_555
Y16 Y9 3.682685 1_556
Y17 Y6 3.523118 1_455
Y17 Y3 3.523118 1_455
Y17 Y7 3.523128 1_455
Y17 Y4 3.523128 1_455
Y17 Y9 3.682685 1_556
Sc0 Y5 3.507178 1_555
Sc0 Y2 3.507178 1_445
Sc0 Y1 3.507178 1_555
Sc0 Y4 3.507178 1_445
Sc0 Y3 3.507186 1_455
Sc0 Y0 3.507186 1_545
Sc1 Y8 3.507178 1_554
Sc1 Y11 3.507178 1_445
Sc1 Y10 3.507178 1_555
Sc1 Y7 3.507178 1_444
Sc1 Y9 3.507186 1_545
Sc1 Y6 3.507186 1_454
Cd0 Sc1 3.046505 1_655
Cd0 Sc0 3.046505 1_655
Cd0 Cd2 3.122788 1_655
Cd0 Cd1 3.122788 1_545
Cd0 Y13 3.227406 1_555
Cd0 Y14 3.227406 1_555
Cd0 Y3 3.461072 1_555
Cd0 Y6 3.461072 1_554
Cd0 Y1 3.532538 1_655
Cd0 Y10 3.532538 1_655
Cd0 Y2 3.532538 1_545
Cd0 Y11 3.532538 1_545
Cd1 Sc0 3.046490 1_665
Cd1 Sc1 3.046490 1_665
Cd1 Cd2 3.122788 1_665
Cd1 Y12 3.227414 1_555
Cd1 Y14 3.227425 1_555
Cd1 Y4 3.461080 1_555
Cd1 Y7 3.461080 1_554
Cd1 Y2 3.532521 1_555
Cd1 Y11 3.532521 1_555
Cd1 Y0 3.532554 1_655
Cd1 Y9 3.532554 1_655
Cd2 Sc1 3.046490 1_555
Cd2 Sc0 3.046490 1_555
Cd2 Y12 3.227415 1_555
Cd2 Y13 3.227425 1_555
Cd2 Y5 3.461080 1_555
Cd2 Y8 3.461080 1_554
Cd2 Y1 3.532521 1_555
Cd2 Y10 3.532521 1_555
Cd2 Y0 3.532554 1_545
Cd2 Y9 3.532554 1_545
Cd3 Sc1 3.046505 1_566
Cd3 Sc0 3.046505 1_565
Cd3 Cd5 3.122788 1_455
Cd3 Cd4 3.122788 1_565
Cd3 Y16 3.227406 1_555
Cd3 Y17 3.227406 1_555
Cd3 Y9 3.461072 1_556
Cd3 Y0 3.461072 1_555
Cd3 Y7 3.532538 1_455
Cd3 Y4 3.532538 1_455
Cd3 Y8 3.532538 1_565
Cd3 Y5 3.532538 1_565
Cd4 Sc1 3.046490 1_556
Cd4 Sc0 3.046490 1_555
Cd4 Cd5 3.122788 1_445
Cd4 Y15 3.227414 1_555
Cd4 Y17 3.227425 1_555
Cd4 Y10 3.461080 1_556
Cd4 Y1 3.461080 1_555
Cd4 Y8 3.532521 1_555
Cd4 Y5 3.532521 1_555
Cd4 Y6 3.532554 1_455
Cd4 Y3 3.532554 1_455
Cd5 Sc0 3.046490 1_665
Cd5 Sc1 3.046490 1_666
Cd5 Y15 3.227415 1_555
Cd5 Y16 3.227425 1_555
Cd5 Y11 3.461080 1_556
Cd5 Y2 3.461080 1_555
Cd5 Y7 3.532521 1_555
Cd5 Y4 3.532521 1_555
Cd5 Y6 3.532554 1_565
Cd5 Y3 3.532554 1_565
Os0 Y0 2.784307 1_555
Os0 Y9 2.784307 1_555
Os0 Y2 2.784319 1_555
Os0 Y11 2.784319 1_555
Os0 Y1 2.784319 1_555
Os0 Y10 2.784319 1_555
Os0 Y12 3.422699 1_555
Os0 Y14 3.422699 1_455
Os0 Y13 3.422699 1_565
Os1 Y6 2.784307 1_555
Os1 Y3 2.784307 1_555
Os1 Y8 2.784319 1_555
Os1 Y5 2.784319 1_555
Os1 Y7 2.784319 1_555
Os1 Y4 2.784319 1_555
Os1 Y15 3.422699 1_555
Os1 Y17 3.422699 1_655
Os1 Y16 3.422699 1_545
