# generated using pymatgen
data_Mn4ReSi6Tc5
_symmetry_space_group_name_H-M   'P 1'
_cell_length_a   6.99108991
_cell_length_b   6.98378488
_cell_length_c   4.80321028
_cell_angle_alpha   90.00000000
_cell_angle_beta   90.00000000
_cell_angle_gamma   119.96543904
_symmetry_Int_Tables_number   1
_chemical_formula_structural   Mn4ReSi6Tc5
_chemical_formula_sum   'Mn4 Re1 Si6 Tc5'
_cell_volume   203.16510398
_cell_formula_units_Z   1
loop_
 _symmetry_equiv_pos_site_id
 _symmetry_equiv_pos_as_xyz
  1  'x, y, z'
loop_
 _atom_site_type_symbol
 _atom_site_label
 _atom_site_symmetry_multiplicity
 _atom_site_fract_x
 _atom_site_fract_y
 _atom_site_fract_z
 _atom_site_occupancy
  Mn  Mn0  1  0.33239593  0.66698677  0.50015998  1
  Mn  Mn1  1  0.66760407  0.33458885  0.99984002  1
  Mn  Mn2  1  0.66760407  0.33458885  0.50015998  1
  Mn  Mn3  1  0.33239593  0.66698677  0.99984002  1
  Re  Re0  1  1.00000000  0.75676907  0.75000000  1
  Si  Si0  1  0.40187107  0.00194362  0.75000000  1
  Si  Si1  1  0.39895773  0.39878206  0.25000000  1
  Si  Si2  1  0.00000000  0.59978806  0.25000000  1
  Si  Si3  1  0.00000000  0.39766372  0.75000000  1
  Si  Si4  1  0.59812893  0.60007155  0.75000000  1
  Si  Si5  1  0.60104227  0.99982333  0.25000000  1
  Tc  Tc0  1  0.00000000  0.24422922  0.25000000  1
  Tc  Tc1  1  0.75545108  0.75489810  0.25000000  1
  Tc  Tc2  1  0.75631267  0.99987335  0.75000000  1
  Tc  Tc3  1  0.24368733  0.24355968  0.75000000  1
  Tc  Tc4  1  0.24454892  0.99944702  0.25000000  1
loop_
_geom_bond_atom_site_label_1
_geom_bond_atom_site_label_2
_geom_bond_distance
_geom_bond_site_symmetry_2
Mn0 Si2 2.444316 1_555
Mn0 Si4 2.444795 1_555
Mn0 Si3 2.451870 1_555
Mn0 Si0 2.452173 1_565
Mn0 Si5 2.452179 1_555
Mn0 Si1 2.457533 1_555
Mn0 Tc4 2.938758 1_555
Mn0 Re0 2.947691 1_455
Mn0 Tc0 2.950772 1_555
Mn0 Tc3 2.955888 1_555
Mn0 Tc2 2.957242 1_555
Mn0 Tc1 2.958761 1_555
Mn1 Si2 2.444320 1_656
Mn1 Si0 2.444783 1_555
Mn1 Si3 2.451865 1_655
Mn1 Si4 2.452179 1_555
Mn1 Si1 2.452191 1_556
Mn1 Si5 2.457527 1_546
Mn1 Tc1 2.938771 1_556
Mn1 Re0 2.947699 1_555
Mn1 Tc0 2.950763 1_656
Mn1 Tc2 2.955869 1_545
Mn1 Tc3 2.957244 1_555
Mn1 Tc4 2.958757 1_546
Mn2 Si2 2.444320 1_655
Mn2 Si0 2.444783 1_555
Mn2 Si3 2.451865 1_655
Mn2 Si4 2.452179 1_555
Mn2 Si1 2.452191 1_555
Mn2 Si5 2.457527 1_545
Mn2 Tc1 2.938771 1_555
Mn2 Re0 2.947699 1_555
Mn2 Tc0 2.950763 1_655
Mn2 Tc2 2.955869 1_545
Mn2 Tc3 2.957244 1_555
Mn2 Tc4 2.958757 1_545
Mn3 Si2 2.444316 1_556
Mn3 Si4 2.444795 1_555
Mn3 Si3 2.451870 1_555
Mn3 Si0 2.452173 1_565
Mn3 Si5 2.452179 1_556
Mn3 Si1 2.457533 1_556
Mn3 Tc4 2.938758 1_556
Mn3 Re0 2.947691 1_455
Mn3 Tc0 2.950772 1_556
Mn3 Tc3 2.955888 1_555
Mn3 Tc2 2.957242 1_555
Mn3 Tc1 2.958761 1_556
Re0 Si4 2.453489 1_555
Re0 Si0 2.453490 1_665
Re0 Si3 2.507914 1_655
Re0 Si2 2.640005 1_656
Re0 Si2 2.640005 1_655
Re0 Tc1 2.944234 1_556
Re0 Tc1 2.944234 1_555
Re0 Tc4 2.944234 1_655
Re0 Tc4 2.944234 1_656
Re0 Tc3 2.945206 1_665
Re0 Tc2 2.945211 1_555
Si0 Tc3 2.436055 1_555
Si0 Tc2 2.485186 1_545
Si0 Tc4 2.637903 1_546
Si0 Tc4 2.637903 1_545
Si1 Tc4 2.436326 1_545
Si1 Tc0 2.436600 1_555
Si1 Tc1 2.490962 1_555
Si1 Tc3 2.635465 1_554
Si1 Tc3 2.635465 1_555
Si2 Tc1 2.438536 1_455
Si2 Tc4 2.438536 1_555
Si2 Tc0 2.483146 1_555
Si3 Tc2 2.427390 1_445
Si3 Tc3 2.427396 1_555
Si3 Tc0 2.629816 1_556
Si3 Tc0 2.629816 1_555
Si4 Tc2 2.436068 1_555
Si4 Tc3 2.485186 1_555
Si4 Tc1 2.637904 1_556
Si4 Tc1 2.637904 1_555
Si5 Tc1 2.436320 1_555
Si5 Tc0 2.436601 1_665
Si5 Tc4 2.490965 1_555
Si5 Tc2 2.635462 1_555
Si5 Tc2 2.635462 1_554
Tc0 Tc2 2.945855 1_444
Tc0 Tc2 2.945855 1_445
Tc0 Tc3 2.945857 1_554
Tc0 Tc3 2.945857 1_555
Tc0 Tc4 2.960572 1_545
Tc0 Tc1 2.960572 1_445
Tc1 Tc2 2.946943 1_555
Tc1 Tc2 2.946943 1_554
Tc1 Tc4 2.962255 1_655
Tc2 Tc3 2.951818 1_665
Tc3 Tc4 2.946939 1_546
Tc3 Tc4 2.946939 1_545
