# generated using pymatgen
data_NbRu3(PbO4)4
_symmetry_space_group_name_H-M   'P 1'
_cell_length_a   5.11443661
_cell_length_b   5.18951942
_cell_length_c   13.54842782
_cell_angle_alpha   67.61979494
_cell_angle_beta   89.73651914
_cell_angle_gamma   89.31553430
_symmetry_Int_Tables_number   1
_chemical_formula_structural   NbRu3(PbO4)4
_chemical_formula_sum   'Nb1 Ru3 Pb4 O16'
_cell_volume   332.48587924
_cell_formula_units_Z   1
loop_
 _symmetry_equiv_pos_site_id
 _symmetry_equiv_pos_as_xyz
  1  'x, y, z'
loop_
 _atom_site_type_symbol
 _atom_site_label
 _atom_site_symmetry_multiplicity
 _atom_site_fract_x
 _atom_site_fract_y
 _atom_site_fract_z
 _atom_site_occupancy
  Nb  Nb0  1  0.25016531  0.57875291  0.92159291  1
  Ru  Ru0  1  0.24985860  0.57448842  0.42578403  1
  Ru  Ru1  1  0.75001390  0.42374952  0.07631156  1
  Ru  Ru2  1  0.75001391  0.42526257  0.57397547  1
  Pb  Pb0  1  0.74859442  0.15871984  0.34066815  1
  Pb  Pb1  1  0.24868515  0.83926558  0.16128848  1
  Pb  Pb2  1  0.25150228  0.84638759  0.65369962  1
  Pb  Pb3  1  0.75117504  0.15969785  0.83967173  1
  O  O0  1  0.55177902  0.75403988  0.45585855  1
  O  O1  1  0.05916229  0.24437630  0.05016281  1
  O  O2  1  0.45452824  0.26036412  0.54010695  1
  O  O3  1  0.93026049  0.75525183  0.95833530  1
  O  O4  1  0.94777839  0.33575849  0.45484867  1
  O  O5  1  0.44101168  0.65476843  0.05085067  1
  O  O6  1  0.04558987  0.65721188  0.54116160  1
  O  O7  1  0.57058534  0.33069070  0.95723514  1
  O  O8  1  0.12231530  0.89657733  0.32236001  1
  O  O9  1  0.62213966  0.10336771  0.17954881  1
  O  O10  1  0.87090314  0.10364201  0.67753948  1
  O  O11  1  0.38475837  0.91053912  0.81962726  1
  O  O12  1  0.37816609  0.46182429  0.32152631  1
  O  O13  1  0.87825629  0.53501404  0.18045574  1
  O  O14  1  0.62841567  0.53724572  0.67841920  1
  O  O15  1  0.11434255  0.45300589  0.81897055  1
loop_
_geom_bond_atom_site_label_1
_geom_bond_atom_site_label_2
_geom_bond_distance
_geom_bond_site_symmetry_2
Nb0 O15 1.884717 1_555
Nb0 O11 1.885521 1_555
Nb0 O7 2.014806 1_555
Nb0 O3 2.016832 1_455
Nb0 O1 2.173189 1_556
Nb0 O5 2.173975 1_556
O0 Ru0 1.935959 1_555
O0 Ru2 2.096269 1_555
O0 Pb0 2.323681 1_565
O1 Ru1 1.924257 1_455
O1 Pb1 2.276075 1_545
O2 Ru2 1.887592 1_555
O2 Ru0 2.050270 1_555
O2 Pb2 2.362823 1_545
O3 Ru1 2.072348 1_556
O3 Pb3 2.286251 1_565
O4 Ru0 1.935326 1_655
O4 Ru2 2.094839 1_555
O4 Pb0 2.322527 1_555
O5 Ru1 1.923200 1_555
O5 Pb1 2.275509 1_555
O6 Ru2 1.887217 1_455
O6 Ru0 2.050503 1_555
O6 Pb2 2.361557 1_555
O7 Ru1 2.072578 1_556
O7 Pb3 2.284885 1_555
O8 Ru0 1.838925 1_555
O8 Pb1 2.396904 1_555
O8 Pb0 2.399170 1_465
O9 Ru1 1.842579 1_555
O9 Pb0 2.400171 1_555
O9 Pb1 2.431642 1_545
O10 Ru2 1.826678 1_555
O10 Pb3 2.398912 1_555
O10 Pb2 2.436426 1_645
O11 Pb3 2.363798 1_565
O11 Pb2 2.493695 1_555
O12 Ru0 1.838181 1_555
O12 Pb1 2.394234 1_555
O12 Pb0 2.398627 1_555
O13 Ru1 1.841861 1_555
O13 Pb0 2.398880 1_555
O13 Pb1 2.429896 1_655
O14 Ru2 1.826564 1_555
O14 Pb3 2.393663 1_555
O14 Pb2 2.434103 1_555
O15 Pb3 2.362863 1_455
O15 Pb2 2.492454 1_555
