# generated using pymatgen
data_Cs2LiTi3F12
_symmetry_space_group_name_H-M   'P 1'
_cell_length_a   7.28859663
_cell_length_b   7.28859715
_cell_length_c   7.28859633
_cell_angle_alpha   61.64312929
_cell_angle_beta   61.64312943
_cell_angle_gamma   61.64312178
_symmetry_Int_Tables_number   1
_chemical_formula_structural   Cs2LiTi3F12
_chemical_formula_sum   'Cs2 Li1 Ti3 F12'
_cell_volume   283.87775718
_cell_formula_units_Z   1
loop_
 _symmetry_equiv_pos_site_id
 _symmetry_equiv_pos_as_xyz
  1  'x, y, z'
loop_
 _atom_site_type_symbol
 _atom_site_label
 _atom_site_symmetry_multiplicity
 _atom_site_fract_x
 _atom_site_fract_y
 _atom_site_fract_z
 _atom_site_occupancy
  Cs  Cs0  1  0.37070454  0.37070454  0.37070454  1
  Cs  Cs1  1  0.62929546  0.62929546  0.62929546  1
  Li  Li0  1  0.00000000  0.00000000  0.00000000  1
  Ti  Ti0  1  0.50000000  0.00000000  0.00000000  1
  Ti  Ti1  1  0.00000000  0.00000000  0.50000000  1
  Ti  Ti2  1  0.00000000  0.50000000  0.00000000  1
  F  F0  1  0.92615139  0.32436872  0.32436872  1
  F  F1  1  0.32214999  0.93362908  0.93362908  1
  F  F2  1  0.32436872  0.32436872  0.92615139  1
  F  F3  1  0.93362908  0.93362908  0.32214999  1
  F  F4  1  0.93362908  0.32214999  0.93362908  1
  F  F5  1  0.32436872  0.92615139  0.32436872  1
  F  F6  1  0.07384861  0.67563128  0.67563128  1
  F  F7  1  0.67785001  0.06637092  0.06637092  1
  F  F8  1  0.67563128  0.67563128  0.07384861  1
  F  F9  1  0.06637092  0.06637092  0.67785001  1
  F  F10  1  0.06637092  0.67785001  0.06637092  1
  F  F11  1  0.67563128  0.07384861  0.67563128  1
loop_
_geom_bond_atom_site_label_1
_geom_bond_atom_site_label_2
_geom_bond_distance
_geom_bond_site_symmetry_2
Cs0 F10 3.176771 1_555
Cs0 F7 3.176771 1_555
Cs0 F9 3.176771 1_555
Cs0 F11 3.180663 1_555
Cs0 F6 3.180664 1_555
Cs0 F8 3.180664 1_555
Cs1 F4 3.176771 1_555
Cs1 F1 3.176771 1_555
Cs1 F3 3.176771 1_555
Cs1 F5 3.180663 1_555
Cs1 F0 3.180664 1_555
Cs1 F2 3.180664 1_555
F0 Ti2 2.022038 1_655
F0 Ti1 2.022038 1_655
F1 Ti0 1.887328 1_566
F1 Li0 2.011361 1_566
F2 Ti2 2.022037 1_556
F2 Ti0 2.022038 1_556
F3 Ti1 1.887328 1_665
F3 Li0 2.011361 1_665
F4 Ti2 1.887328 1_656
F4 Li0 2.011361 1_656
F5 Ti1 2.022037 1_565
F5 Ti0 2.022038 1_565
F6 Ti2 2.022038 1_556
F6 Ti1 2.022038 1_565
F7 Ti0 1.887328 1_555
F7 Li0 2.011361 1_655
F8 Ti2 2.022037 1_655
F8 Ti0 2.022038 1_565
F9 Ti1 1.887328 1_555
F9 Li0 2.011361 1_556
F10 Ti2 1.887328 1_555
F10 Li0 2.011361 1_565
F11 Ti1 2.022037 1_655
F11 Ti0 2.022038 1_556
