# generated using pymatgen
data_Cs2HgAs2O7
_symmetry_space_group_name_H-M   'P 1'
_cell_length_a   7.93398660
_cell_length_b   7.93398658
_cell_length_c   10.72682288
_cell_angle_alpha   79.41378478
_cell_angle_beta   79.41378529
_cell_angle_gamma   120.53422844
_symmetry_Int_Tables_number   1
_chemical_formula_structural   Cs2HgAs2O7
_chemical_formula_sum   'Cs4 Hg2 As4 O14'
_cell_volume   540.22277802
_cell_formula_units_Z   2
loop_
 _symmetry_equiv_pos_site_id
 _symmetry_equiv_pos_as_xyz
  1  'x, y, z'
loop_
 _atom_site_type_symbol
 _atom_site_label
 _atom_site_symmetry_multiplicity
 _atom_site_fract_x
 _atom_site_fract_y
 _atom_site_fract_z
 _atom_site_occupancy
  Cs  Cs0  1  0.37090322  0.46956328  0.13318167  1
  Cs  Cs1  1  0.46956328  0.37090322  0.63318167  1
  Cs  Cs2  1  0.59987280  0.01376407  0.31359132  1
  Cs  Cs3  1  0.01376407  0.59987280  0.81359132  1
  Hg  Hg0  1  0.05561927  0.79780993  0.29676463  1
  Hg  Hg1  1  0.79780993  0.05561927  0.79676463  1
  As  As0  1  0.37911463  0.97226228  0.98634421  1
  As  As1  1  0.97226228  0.37911463  0.48634421  1
  As  As2  1  0.02007897  0.05271502  0.00413202  1
  As  As3  1  0.05271502  0.02007897  0.50413202  1
  O  O0  1  0.29300276  0.13841324  0.40021186  1
  O  O1  1  0.13841324  0.29300276  0.90021186  1
  O  O2  1  0.94158817  0.15520828  0.45195936  1
  O  O3  1  0.15520828  0.94158817  0.95195936  1
  O  O4  1  0.55508966  0.22001621  0.96071444  1
  O  O5  1  0.22001621  0.55508966  0.46071444  1
  O  O6  1  0.99475603  0.02891124  0.16674569  1
  O  O7  1  0.02891124  0.99475603  0.66674569  1
  O  O8  1  0.78763609  0.88842860  0.98580887  1
  O  O9  1  0.88842860  0.78763609  0.48580887  1
  O  O10  1  0.43052493  0.85244717  0.88631732  1
  O  O11  1  0.85244717  0.43052493  0.38631732  1
  O  O12  1  0.29156587  0.81748827  0.14917863  1
  O  O13  1  0.81748827  0.29156587  0.64917863  1
loop_
_geom_bond_atom_site_label_1
_geom_bond_atom_site_label_2
_geom_bond_distance
_geom_bond_site_symmetry_2
Cs0 O8 3.075627 1_554
Cs0 O6 3.130474 1_455
Cs0 O12 3.153662 1_555
Cs0 O0 3.228615 1_555
Cs0 O10 3.404135 1_554
Cs0 O1 3.458950 1_554
Cs0 O4 3.573584 1_554
Cs0 O2 3.670149 1_455
Cs0 O5 3.793870 1_555
Cs1 O9 3.075627 1_555
Cs1 O7 3.130474 1_545
Cs1 O13 3.153662 1_555
Cs1 O1 3.228615 1_555
Cs1 O11 3.404135 1_555
Cs1 O0 3.458950 1_555
Cs1 O5 3.573584 1_555
Cs1 O3 3.670149 1_545
Cs1 O4 3.793870 1_555
Cs2 O0 3.118046 1_555
Cs2 O2 3.132384 1_555
Cs2 O5 3.132845 1_545
Cs2 O6 3.169529 1_555
Cs2 O12 3.200388 1_545
Cs2 O11 3.216688 1_555
Cs3 O1 3.118046 1_555
Cs3 O3 3.132384 1_555
Cs3 O4 3.132845 1_455
Cs3 O7 3.169529 1_555
Cs3 O13 3.200388 1_455
Cs3 O10 3.216688 1_555
Hg0 O12 2.135025 1_555
Hg0 O9 2.172774 1_455
Hg0 O11 2.375361 1_455
Hg0 O6 2.397452 1_465
Hg1 O13 2.135025 1_555
Hg1 O8 2.172774 1_545
Hg1 O10 2.375361 1_545
Hg1 O7 2.397452 1_645
As0 O4 1.661490 1_565
As0 O10 1.682039 1_555
As0 O12 1.714864 1_556
As0 O3 1.784811 1_555
As1 O5 1.661490 1_655
As1 O11 1.682039 1_555
As1 O13 1.714864 1_555
As1 O2 1.784811 1_555
As2 O1 1.665682 1_554
As2 O6 1.682364 1_455
As2 O8 1.709813 1_444
As2 O3 1.778009 1_544
As3 O0 1.665682 1_555
As3 O7 1.682364 1_545
As3 O9 1.709813 1_445
As3 O2 1.778009 1_455
