# generated using pymatgen
data_Cs4Lu3Sb9Se20
_symmetry_space_group_name_H-M   'P 1'
_cell_length_a   4.06466238
_cell_length_b   12.22005760
_cell_length_c   22.80396781
_cell_angle_alpha   89.88646350
_cell_angle_beta   90.00000000
_cell_angle_gamma   90.00000000
_symmetry_Int_Tables_number   1
_chemical_formula_structural   Cs4Lu3Sb9Se20
_chemical_formula_sum   'Cs4 Lu3 Sb9 Se20'
_cell_volume   1132.68017000
_cell_formula_units_Z   1
loop_
 _symmetry_equiv_pos_site_id
 _symmetry_equiv_pos_as_xyz
  1  'x, y, z'
loop_
 _atom_site_type_symbol
 _atom_site_label
 _atom_site_symmetry_multiplicity
 _atom_site_fract_x
 _atom_site_fract_y
 _atom_site_fract_z
 _atom_site_occupancy
  Cs  Cs0  1  0.25000000  0.49297728  0.20949119  1
  Cs  Cs1  1  0.75000000  0.50491495  0.79080732  1
  Cs  Cs2  1  0.75000000  0.99302592  0.28914441  1
  Cs  Cs3  1  0.25000000  0.00548981  0.70985545  1
  Lu  Lu0  1  0.25000000  0.36616522  0.02072384  1
  Lu  Lu1  1  0.75000000  0.63338677  0.97886626  1
  Lu  Lu2  1  0.75000000  0.86445629  0.47783662  1
  Sb  Sb0  1  0.25000000  0.13021306  0.52187594  1
  Sb  Sb1  1  0.25000000  0.81461745  0.12058372  1
  Sb  Sb2  1  0.75000000  0.18448169  0.87890103  1
  Sb  Sb3  1  0.75000000  0.31719742  0.37899840  1
  Sb  Sb4  1  0.25000000  0.68268014  0.62244598  1
  Sb  Sb5  1  0.25000000  0.59824084  0.42991079  1
  Sb  Sb6  1  0.75000000  0.40067547  0.56987105  1
  Sb  Sb7  1  0.75000000  0.10035162  0.07060762  1
  Sb  Sb8  1  0.25000000  0.89934144  0.92896378  1
  Se  Se0  1  0.25000000  0.80916622  0.39609186  1
  Se  Se1  1  0.75000000  0.19746233  0.60873729  1
  Se  Se2  1  0.75000000  0.30757901  0.10360931  1
  Se  Se3  1  0.25000000  0.69201229  0.89605833  1
  Se  Se4  1  0.25000000  0.25813247  0.30661639  1
  Se  Se5  1  0.75000000  0.74147133  0.69452900  1
  Se  Se6  1  0.75000000  0.75748152  0.19339309  1
  Se  Se7  1  0.25000000  0.24126235  0.80608158  1
  Se  Se8  1  0.25000000  0.36318741  0.48201105  1
  Se  Se9  1  0.75000000  0.64705272  0.51641026  1
  Se  Se10  1  0.75000000  0.85256926  0.01637451  1
  Se  Se11  1  0.25000000  0.14719939  0.98305228  1
  Se  Se12  1  0.25000000  0.02912346  0.15247422  1
  Se  Se13  1  0.75000000  0.97020587  0.84709172  1
  Se  Se14  1  0.75000000  0.53022693  0.34710129  1
  Se  Se15  1  0.25000000  0.47149762  0.65337285  1
  Se  Se16  1  0.25000000  0.58188543  0.05738909  1
  Se  Se17  1  0.75000000  0.41748662  0.94218715  1
  Se  Se18  1  0.75000000  0.08029566  0.44042622  1
  Se  Se19  1  0.25000000  0.91648575  0.55811313  1
loop_
_geom_bond_atom_site_label_1
_geom_bond_atom_site_label_2
_geom_bond_distance
_geom_bond_site_symmetry_2
Cs0 Se4 3.621626 1_555
Cs0 Se16 3.632654 1_555
Cs0 Se14 3.767045 1_555
Cs0 Se14 3.767045 1_455
Cs0 Se6 3.835090 1_455
Cs0 Se6 3.835090 1_555
Cs0 Se2 3.887780 1_555
Cs0 Se2 3.887780 1_455
Cs1 Se17 3.611584 1_555
Cs1 Se5 3.626503 1_555
Cs1 Se15 3.758255 1_655
Cs1 Se15 3.758255 1_555
Cs1 Se7 3.824600 1_655
Cs1 Se7 3.824600 1_555
Cs1 Se3 3.891034 1_555
Cs1 Se3 3.891034 1_655
Cs2 Se18 3.612918 1_565
Cs2 Se6 3.616299 1_555
Cs2 Se12 3.746043 1_665
Cs2 Se12 3.746043 1_565
Cs2 Se4 3.845693 1_665
Cs2 Se4 3.845693 1_565
Cs2 Se0 3.886455 1_655
Cs2 Se0 3.886455 1_555
Cs3 Se7 3.625082 1_555
Cs3 Se19 3.629288 1_545
Cs3 Se13 3.755649 1_445
Cs3 Se13 3.755649 1_545
Cs3 Se5 3.829640 1_545
Cs3 Se5 3.829640 1_445
Cs3 Se1 3.863859 1_455
Cs3 Se1 3.863859 1_555
Lu0 Se16 2.767113 1_555
Lu0 Se17 2.779700 1_554
Lu0 Se17 2.779700 1_454
Lu0 Se11 2.811915 1_554
Lu0 Se2 2.865328 1_555
Lu0 Se2 2.865328 1_455
Lu1 Se17 2.769305 1_555
Lu1 Se16 2.779991 1_556
Lu1 Se16 2.779991 1_656
Lu1 Se10 2.813295 1_556
Lu1 Se3 2.864282 1_655
Lu1 Se3 2.864282 1_555
Lu2 Se18 2.770495 1_565
Lu2 Se9 2.796866 1_555
Lu2 Se19 2.808987 1_655
Lu2 Se19 2.808987 1_555
Lu2 Se0 2.840202 1_555
Lu2 Se0 2.840202 1_655
Sb0 Se19 2.737808 1_545
Sb0 Se18 2.820780 1_455
Sb0 Se18 2.820780 1_555
Sb0 Se1 2.955615 1_555
Sb0 Se1 2.955615 1_455
Sb0 Se8 2.986862 1_555
Sb1 Se6 2.714775 1_455
Sb1 Se6 2.714775 1_555
Sb1 Se12 2.721673 1_565
Sb1 Se10 3.160425 1_455
Sb1 Se10 3.160425 1_555
Sb1 Se16 3.190816 1_555
Sb2 Se7 2.713807 1_655
Sb2 Se7 2.713807 1_555
Sb2 Se13 2.718465 1_545
Sb2 Se11 3.158253 1_555
Sb2 Se11 3.158253 1_655
Sb2 Se17 3.194737 1_555
Sb3 Se14 2.701555 1_555
Sb3 Se4 2.716712 1_655
Sb3 Se4 2.716712 1_555
Sb3 Se8 3.157484 1_555
Sb3 Se8 3.157484 1_655
Sb3 Se18 3.213552 1_555
Sb4 Se15 2.673947 1_555
Sb4 Se5 2.711679 1_455
Sb4 Se5 2.711679 1_555
Sb4 Se9 3.189198 1_455
Sb4 Se9 3.189198 1_555
Sb4 Se19 3.209164 1_555
Sb5 Se0 2.688957 1_555
Sb5 Se9 2.895117 1_455
Sb5 Se9 2.895117 1_555
Sb5 Se14 2.897132 1_455
Sb5 Se14 2.897132 1_555
Sb5 Se8 3.106208 1_555
Sb6 Se1 2.635047 1_555
Sb6 Se8 2.891039 1_655
Sb6 Se8 2.891039 1_555
Sb6 Se15 2.917495 1_555
Sb6 Se15 2.917495 1_655
Sb6 Se9 3.245964 1_555
Sb7 Se2 2.643220 1_555
Sb7 Se12 2.892542 1_555
Sb7 Se12 2.892542 1_655
Sb7 Se11 2.905172 1_554
Sb7 Se11 2.905172 1_654
Sb7 Se10 3.273012 1_545
Sb8 Se3 2.643784 1_555
Sb8 Se13 2.891294 1_455
Sb8 Se13 2.891294 1_555
Sb8 Se10 2.902727 1_456
Sb8 Se10 2.902727 1_556
Sb8 Se11 3.272617 1_565
