# generated using pymatgen
data_CsHfCdF7
_symmetry_space_group_name_H-M   'P 1'
_cell_length_a   6.59575545
_cell_length_b   6.59575570
_cell_length_c   8.57705920
_cell_angle_alpha   90.00000000
_cell_angle_beta   90.00000000
_cell_angle_gamma   118.00900880
_symmetry_Int_Tables_number   1
_chemical_formula_structural   CsHfCdF7
_chemical_formula_sum   'Cs2 Hf2 Cd2 F14'
_cell_volume   329.43226037
_cell_formula_units_Z   2
loop_
 _symmetry_equiv_pos_site_id
 _symmetry_equiv_pos_as_xyz
  1  'x, y, z'
loop_
 _atom_site_type_symbol
 _atom_site_label
 _atom_site_symmetry_multiplicity
 _atom_site_fract_x
 _atom_site_fract_y
 _atom_site_fract_z
 _atom_site_occupancy
  Cs  Cs0  1  0.00000000  0.00000000  0.00000000  1
  Cs  Cs1  1  0.00000000  0.00000000  0.50000000  1
  Hf  Hf0  1  0.69162859  0.30837141  0.75000000  1
  Hf  Hf1  1  0.30837141  0.69162859  0.25000000  1
  Cd  Cd0  1  0.31008627  0.68991373  0.75000000  1
  Cd  Cd1  1  0.68991373  0.31008627  0.25000000  1
  F  F0  1  0.35112016  0.06319710  0.75000000  1
  F  F1  1  0.64887984  0.93680290  0.25000000  1
  F  F2  1  0.93680290  0.64887984  0.75000000  1
  F  F3  1  0.06319710  0.35112016  0.25000000  1
  F  F4  1  0.51191925  0.48808075  0.75000000  1
  F  F5  1  0.48808075  0.51191925  0.25000000  1
  F  F6  1  0.69885453  0.30114547  0.98367420  1
  F  F7  1  0.30114547  0.69885453  0.01632580  1
  F  F8  1  0.30114547  0.69885453  0.48367420  1
  F  F9  1  0.69885453  0.30114547  0.51632580  1
  F  F10  1  0.66738560  0.98035741  0.75000000  1
  F  F11  1  0.33261440  0.01964259  0.25000000  1
  F  F12  1  0.01964259  0.33261440  0.75000000  1
  F  F13  1  0.98035741  0.66738560  0.25000000  1
loop_
_geom_bond_atom_site_label_1
_geom_bond_atom_site_label_2
_geom_bond_distance
_geom_bond_site_symmetry_2
Cs0 F11 3.026657 1_555
Cs0 F10 3.026657 1_444
Cs0 F12 3.026657 1_554
Cs0 F13 3.026657 1_445
Cs0 F0 3.037821 1_554
Cs0 F1 3.037821 1_445
Cs0 F3 3.037821 1_555
Cs0 F2 3.037821 1_444
Cs0 F6 3.408190 1_454
Cs0 F7 3.408190 1_545
Cs1 F11 3.026657 1_555
Cs1 F10 3.026657 1_445
Cs1 F12 3.026657 1_555
Cs1 F13 3.026657 1_445
Cs1 F0 3.037821 1_555
Cs1 F1 3.037821 1_445
Cs1 F3 3.037821 1_555
Cs1 F2 3.037821 1_445
Cs1 F9 3.408190 1_455
Cs1 F8 3.408190 1_545
Cd0 F10 2.232372 1_555
Cd0 F12 2.232372 1_555
Cd0 F4 2.282300 1_555
Cd0 F7 2.286528 1_556
Cd0 F8 2.286528 1_555
Cd0 F2 2.347180 1_455
Cd0 F0 2.347181 1_565
Cd1 F11 2.232372 1_555
Cd1 F13 2.232372 1_555
Cd1 F5 2.282300 1_555
Cd1 F9 2.286528 1_555
Cd1 F6 2.286528 1_554
Cd1 F3 2.347180 1_655
Cd1 F1 2.347181 1_545
F0 Hf0 2.061072 1_555
F1 Hf1 2.061072 1_555
F2 Hf0 2.061072 1_555
F3 Hf1 2.061072 1_555
F4 Hf0 2.032129 1_555
F5 Hf1 2.032129 1_555
F6 Hf0 2.005902 1_555
F7 Hf1 2.005902 1_555
F8 Hf1 2.005902 1_555
F9 Hf0 2.005902 1_555
F10 Hf0 2.093175 1_565
F11 Hf1 2.093175 1_545
F12 Hf0 2.093175 1_455
F13 Hf1 2.093175 1_655
