# generated using pymatgen
data_ZnCrAg2F7
_symmetry_space_group_name_H-M   'P 1'
_cell_length_a   7.40514423
_cell_length_b   7.40514437
_cell_length_c   7.40514493
_cell_angle_alpha   120.29415789
_cell_angle_beta   118.26871161
_cell_angle_gamma   91.25791939
_symmetry_Int_Tables_number   1
_chemical_formula_structural   ZnCrAg2F7
_chemical_formula_sum   'Zn2 Cr2 Ag4 F14'
_cell_volume   290.06723985
_cell_formula_units_Z   2
loop_
 _symmetry_equiv_pos_site_id
 _symmetry_equiv_pos_as_xyz
  1  'x, y, z'
loop_
 _atom_site_type_symbol
 _atom_site_label
 _atom_site_symmetry_multiplicity
 _atom_site_fract_x
 _atom_site_fract_y
 _atom_site_fract_z
 _atom_site_occupancy
  Zn  Zn0  1  0.00000000  0.50000000  0.50000000  1
  Zn  Zn1  1  0.50000000  0.00000000  0.50000000  1
  Cr  Cr0  1  0.50000000  0.50000000  0.50000000  1
  Cr  Cr1  1  0.50000000  0.00000000  0.00000000  1
  Ag  Ag0  1  0.50000000  0.50000000  0.00000000  1
  Ag  Ag1  1  0.00000000  0.00000000  0.00000000  1
  Ag  Ag2  1  0.00000000  0.50000000  0.00000000  1
  Ag  Ag3  1  0.00000000  0.00000000  0.50000000  1
  F  F0  1  0.87025377  0.59637232  0.27388244  1
  F  F1  1  0.17751012  0.90362768  0.27388244  1
  F  F2  1  0.19883806  0.82535801  0.78134943  1
  F  F3  1  0.45599043  0.67464199  0.37348005  1
  F  F4  1  0.45599043  0.08251138  0.78134943  1
  F  F5  1  0.19883806  0.41748862  0.37348005  1
  F  F6  1  0.80116194  0.58251138  0.62651995  1
  F  F7  1  0.54400957  0.91748862  0.21865057  1
  F  F8  1  0.54400957  0.32535801  0.62651995  1
  F  F9  1  0.80116194  0.17464199  0.21865057  1
  F  F10  1  0.42272501  0.25000000  0.17272501  1
  F  F11  1  0.12974623  0.40362768  0.72611756  1
  F  F12  1  0.82248988  0.09637232  0.72611756  1
  F  F13  1  0.57727499  0.75000000  0.82727499  1
loop_
_geom_bond_atom_site_label_1
_geom_bond_atom_site_label_2
_geom_bond_distance
_geom_bond_site_symmetry_2
Cr0 F8 1.899519 1_555
Cr0 F3 1.899519 1_555
Cr0 F6 1.899519 1_555
Cr0 F5 1.899519 1_555
Cr0 F13 1.934312 1_555
Cr0 F10 1.934312 1_555
Cr1 F4 1.899518 1_554
Cr1 F7 1.899518 1_545
Cr1 F9 1.899519 1_555
Cr1 F2 1.899519 1_544
Cr1 F10 1.934312 1_555
Cr1 F13 1.934312 1_544
Ag0 F0 2.307960 1_555
Ag0 F11 2.307960 1_554
Ag0 F7 2.586776 1_555
Ag0 F4 2.586776 1_554
Ag0 F3 2.586783 1_555
Ag0 F8 2.586783 1_554
Ag1 F1 2.307966 1_545
Ag1 F12 2.307966 1_454
Ag1 F2 2.586778 1_544
Ag1 F9 2.586778 1_455
Ag1 F5 2.586778 1_555
Ag1 F6 2.586778 1_444
Ag2 F1 2.441590 1_555
Ag2 F12 2.441590 1_454
Ag2 F11 2.441596 1_554
Ag2 F0 2.441596 1_455
Ag3 F1 2.441590 1_545
Ag3 F12 2.441590 1_455
Ag3 F11 2.441590 1_555
Ag3 F0 2.441590 1_445
F0 Zn0 1.986947 1_655
F1 Zn1 1.986946 1_565
F2 Zn0 2.046412 1_555
F3 Zn1 2.046412 1_565
F4 Zn1 2.046417 1_555
F5 Zn0 2.046412 1_555
F6 Zn0 2.046412 1_655
F7 Zn1 2.046417 1_565
F8 Zn1 2.046412 1_555
F9 Zn0 2.046412 1_655
F11 Zn0 1.986947 1_555
F12 Zn1 1.986946 1_555
