# generated using pymatgen
data_RbBe4As2P
_symmetry_space_group_name_H-M   'P 1'
_cell_length_a   3.73346786
_cell_length_b   3.73346786
_cell_length_c   9.99612270
_cell_angle_alpha   90.00000000
_cell_angle_beta   90.00000000
_cell_angle_gamma   90.00000000
_symmetry_Int_Tables_number   1
_chemical_formula_structural   RbBe4As2P
_chemical_formula_sum   'Rb1 Be4 As2 P1'
_cell_volume   139.33377771
_cell_formula_units_Z   1
loop_
 _symmetry_equiv_pos_site_id
 _symmetry_equiv_pos_as_xyz
  1  'x, y, z'
loop_
 _atom_site_type_symbol
 _atom_site_label
 _atom_site_symmetry_multiplicity
 _atom_site_fract_x
 _atom_site_fract_y
 _atom_site_fract_z
 _atom_site_occupancy
  Rb  Rb0  1  0.00000000  0.00000000  0.50000000  1
  Be  Be0  1  0.00000000  0.50000000  0.13921271  1
  Be  Be1  1  0.00000000  0.50000000  0.86078729  1
  Be  Be2  1  0.50000000  0.00000000  0.86078729  1
  Be  Be3  1  0.50000000  0.00000000  0.13921271  1
  As  As0  1  0.50000000  0.50000000  0.26369474  1
  As  As1  1  0.50000000  0.50000000  0.73630526  1
  P  P0  1  0.00000000  0.00000000  0.00000000  1
loop_
_geom_bond_atom_site_label_1
_geom_bond_atom_site_label_2
_geom_bond_distance
_geom_bond_site_symmetry_2
Be0 P0 2.328349 1_565
Be0 P0 2.328349 1_555
Be1 P0 2.328349 1_556
Be1 P0 2.328349 1_566
Be2 P0 2.328349 1_556
Be2 P0 2.328349 1_656
Be3 P0 2.328349 1_655
Be3 P0 2.328349 1_555
As0 Be0 2.243451 1_555
As0 Be0 2.243451 1_655
As0 Be3 2.243451 1_565
As0 Be3 2.243451 1_555
As0 Rb0 3.542468 1_565
As0 Rb0 3.542468 1_655
As0 Rb0 3.542468 1_665
As0 Rb0 3.542468 1_555
As1 Be1 2.243451 1_655
As1 Be2 2.243451 1_555
As1 Be2 2.243451 1_565
As1 Be1 2.243451 1_555
As1 Rb0 3.542468 1_665
As1 Rb0 3.542468 1_555
As1 Rb0 3.542468 1_565
As1 Rb0 3.542468 1_655
