# generated using pymatgen
data_CsMn4Al5Se12
_symmetry_space_group_name_H-M   'P 1'
_cell_length_a   8.89136466
_cell_length_b   8.87609618
_cell_length_c   8.92948996
_cell_angle_alpha   107.06318516
_cell_angle_beta   107.90330786
_cell_angle_gamma   107.37555638
_symmetry_Int_Tables_number   1
_chemical_formula_structural   CsMn4Al5Se12
_chemical_formula_sum   'Cs1 Mn4 Al5 Se12'
_cell_volume   579.56252083
_cell_formula_units_Z   1
loop_
 _symmetry_equiv_pos_site_id
 _symmetry_equiv_pos_as_xyz
  1  'x, y, z'
loop_
 _atom_site_type_symbol
 _atom_site_label
 _atom_site_symmetry_multiplicity
 _atom_site_fract_x
 _atom_site_fract_y
 _atom_site_fract_z
 _atom_site_occupancy
  Cs  Cs0  1  0.99676915  0.99579864  0.99306050  1
  Mn  Mn0  1  0.63042729  0.70883927  0.39369573  1
  Mn  Mn1  1  0.39979093  0.63582850  0.71740717  1
  Mn  Mn2  1  0.71079238  0.39144658  0.63096737  1
  Mn  Mn3  1  0.18413225  0.56366950  0.02435574  1
  Al  Al0  1  0.48572189  0.33692806  0.94102392  1
  Al  Al1  1  0.93895104  0.49104098  0.34235396  1
  Al  Al2  1  0.33235099  0.93389966  0.48289205  1
  Al  Al3  1  0.02089047  0.18627380  0.55844842  1
  Al  Al4  1  0.56048938  0.02577174  0.18506633  1
  Se  Se0  1  0.78415646  0.93839634  0.30194514  1
  Se  Se1  1  0.31284722  0.79837583  0.93611679  1
  Se  Se2  1  0.93085255  0.29041235  0.77296651  1
  Se  Se3  1  0.07173979  0.69635617  0.24175715  1
  Se  Se4  1  0.23473699  0.08177363  0.68845491  1
  Se  Se5  1  0.69669806  0.23654086  0.08339628  1
  Se  Se6  1  0.38003525  0.43293673  0.14498161  1
  Se  Se7  1  0.14439552  0.37743901  0.44398031  1
  Se  Se8  1  0.43830322  0.13955638  0.37163392  1
  Se  Se9  1  0.86154786  0.62943822  0.55439607  1
  Se  Se10  1  0.54828108  0.85838971  0.62546341  1
  Se  Se11  1  0.63072920  0.54552805  0.86027672  1
loop_
_geom_bond_atom_site_label_1
_geom_bond_atom_site_label_2
_geom_bond_distance
_geom_bond_site_symmetry_2
Cs0 Se2 3.777247 1_565
Cs0 Se1 3.811099 1_655
Cs0 Se9 3.828522 1_555
Cs0 Se6 3.831399 1_666
Cs0 Se8 3.845154 1_666
Cs0 Se10 3.855081 1_555
Cs0 Se0 3.859539 1_556
Cs0 Se11 3.879298 1_555
Cs0 Se7 3.937120 1_666
Cs0 Se5 4.006503 1_566
Cs0 Se3 4.006526 1_656
Cs0 Se4 4.031073 1_665
Mn0 Se6 2.529440 1_555
Mn0 Se9 2.534617 1_555
Mn0 Se10 2.544578 1_555
Mn0 Se0 2.587658 1_555
Mn1 Se10 2.525900 1_555
Mn1 Se1 2.536554 1_555
Mn1 Se11 2.541402 1_555
Mn1 Se7 2.563653 1_555
Mn2 Se11 2.530650 1_555
Mn2 Se2 2.535823 1_555
Mn2 Se9 2.539004 1_555
Mn2 Se8 2.551094 1_555
Mn3 Se6 2.515540 1_555
Mn3 Se1 2.522766 1_554
Mn3 Se2 2.535303 1_454
Mn3 Se3 2.590029 1_555
Al0 Se11 2.353651 1_555
Al0 Se6 2.354963 1_556
Al0 Se4 2.466811 1_555
Al0 Se5 2.475064 1_556
Al1 Se9 2.347102 1_555
Al1 Se7 2.407274 1_655
Al1 Se3 2.418608 1_655
Al1 Se5 2.460819 1_555
Al2 Se10 2.350015 1_555
Al2 Se3 2.408596 1_555
Al2 Se8 2.412315 1_565
Al2 Se4 2.468074 1_565
Al3 Se2 2.347404 1_455
Al3 Se7 2.392661 1_555
Al3 Se0 2.414528 1_445
Al3 Se4 2.480217 1_555
Al4 Se1 2.359431 1_544
Al4 Se8 2.399247 1_555
Al4 Se0 2.401204 1_545
Al4 Se5 2.471911 1_555
