# generated using pymatgen
data_Fe2AgPbF9
_symmetry_space_group_name_H-M   'P 1'
_cell_length_a   7.23894690
_cell_length_b   7.23894631
_cell_length_c   7.63868687
_cell_angle_alpha   88.38363771
_cell_angle_beta   88.38363938
_cell_angle_gamma   118.91136126
_symmetry_Int_Tables_number   1
_chemical_formula_structural   Fe2AgPbF9
_chemical_formula_sum   'Fe4 Ag2 Pb2 F18'
_cell_volume   349.85692570
_cell_formula_units_Z   2
loop_
 _symmetry_equiv_pos_site_id
 _symmetry_equiv_pos_as_xyz
  1  'x, y, z'
loop_
 _atom_site_type_symbol
 _atom_site_label
 _atom_site_symmetry_multiplicity
 _atom_site_fract_x
 _atom_site_fract_y
 _atom_site_fract_z
 _atom_site_occupancy
  Fe  Fe0  1  0.00000000  0.00000000  0.50000000  1
  Fe  Fe1  1  0.00000000  0.00000000  0.00000000  1
  Fe  Fe2  1  0.50000000  0.00000000  0.50000000  1
  Fe  Fe3  1  0.00000000  0.50000000  0.00000000  1
  Ag  Ag0  1  0.50000000  0.00000000  0.00000000  1
  Ag  Ag1  1  0.00000000  0.50000000  0.50000000  1
  Pb  Pb0  1  0.48189819  0.51810181  0.75000000  1
  Pb  Pb1  1  0.51810181  0.48189819  0.25000000  1
  F  F0  1  0.19619269  0.89739808  0.55272057  1
  F  F1  1  0.80380731  0.10260192  0.44727943  1
  F  F2  1  0.10260192  0.80380731  0.94727943  1
  F  F3  1  0.89739808  0.19619269  0.05272057  1
  F  F4  1  0.96853091  0.03146909  0.75000000  1
  F  F5  1  0.03146909  0.96853091  0.25000000  1
  F  F6  1  0.52199774  0.88983418  0.72595025  1
  F  F7  1  0.47800226  0.11016582  0.27404975  1
  F  F8  1  0.11016582  0.47800226  0.77404975  1
  F  F9  1  0.88983418  0.52199774  0.22595025  1
  F  F10  1  0.57373087  0.27447444  0.58393193  1
  F  F11  1  0.42626913  0.72552556  0.41606807  1
  F  F12  1  0.72552556  0.42626913  0.91606807  1
  F  F13  1  0.27447444  0.57373087  0.08393193  1
  F  F14  1  0.71044554  0.77893277  0.02007667  1
  F  F15  1  0.28955446  0.22106723  0.97992333  1
  F  F16  1  0.22106723  0.28955446  0.47992333  1
  F  F17  1  0.77893277  0.71044554  0.52007667  1
loop_
_geom_bond_atom_site_label_1
_geom_bond_atom_site_label_2
_geom_bond_distance
_geom_bond_site_symmetry_2
Ag0 F7 2.289486 1_555
Ag0 F6 2.289486 1_544
Ag0 F3 2.569447 1_555
Ag0 F2 2.569447 1_544
Ag0 F14 2.694770 1_545
Ag0 F15 2.694770 1_554
Ag0 F13 2.748902 1_545
Ag0 F12 2.748902 1_554
Ag1 F8 2.289486 1_555
Ag1 F9 2.289486 1_455
Ag1 F1 2.569447 1_455
Ag1 F0 2.569447 1_555
Ag1 F17 2.694770 1_455
Ag1 F16 2.694770 1_555
Ag1 F11 2.748903 1_555
Ag1 F10 2.748903 1_455
F0 Fe0 1.940673 1_565
F0 Fe2 1.975923 1_565
F1 Fe0 1.940673 1_655
F1 Fe2 1.975923 1_555
F2 Fe1 1.940673 1_566
F2 Fe3 1.975923 1_556
F3 Fe1 1.940673 1_655
F3 Fe3 1.975923 1_655
F4 Fe1 1.949567 1_656
F4 Fe0 1.949567 1_655
F5 Fe1 1.949567 1_565
F5 Fe0 1.949567 1_565
F6 Fe2 1.923781 1_565
F6 Pb0 2.563796 1_555
F7 Fe2 1.923781 1_555
F7 Pb1 2.563796 1_555
F8 Fe3 1.923781 1_556
F8 Pb0 2.563796 1_555
F9 Fe3 1.923781 1_655
F9 Pb1 2.563796 1_555
F10 Fe2 1.926004 1_555
F10 Pb0 2.524612 1_555
F11 Fe2 1.926004 1_565
F11 Pb1 2.524612 1_555
F12 Fe3 1.926004 1_656
F12 Pb0 2.524612 1_555
F13 Fe3 1.926004 1_555
F13 Pb1 2.524612 1_555
F14 Fe1 1.924227 1_665
F14 Pb1 2.530004 1_555
F15 Fe1 1.924227 1_556
F15 Pb0 2.530004 1_555
F16 Fe0 1.924226 1_555
F16 Pb1 2.530004 1_555
F17 Fe0 1.924226 1_665
F17 Pb0 2.530004 1_555
