# generated using pymatgen
data_Ta5N6
_symmetry_space_group_name_H-M   'P 1'
_cell_length_a   6.55768542
_cell_length_b   6.55768542
_cell_length_c   6.54990000
_cell_angle_alpha   90.00000000
_cell_angle_beta   90.00000000
_cell_angle_gamma   119.99999418
_symmetry_Int_Tables_number   1
_chemical_formula_structural   Ta5N6
_chemical_formula_sum   'Ta10 N12'
_cell_volume   243.93071316
_cell_formula_units_Z   2
loop_
 _symmetry_equiv_pos_site_id
 _symmetry_equiv_pos_as_xyz
  1  'x, y, z'
loop_
 _atom_site_type_symbol
 _atom_site_label
 _atom_site_symmetry_multiplicity
 _atom_site_fract_x
 _atom_site_fract_y
 _atom_site_fract_z
 _atom_site_occupancy
  Ta  Ta0  1  0.66666700  0.33333300  0.50000000  1
  Ta  Ta1  1  0.75893100  0.00000000  0.75000000  1
  Ta  Ta2  1  0.00000000  0.24106900  0.25000000  1
  Ta  Ta3  1  0.75893100  0.75893100  0.25000000  1
  Ta  Ta4  1  0.33333300  0.66666700  0.00000000  1
  Ta  Ta5  1  0.66666700  0.33333300  0.00000000  1
  Ta  Ta6  1  0.24106900  0.24106900  0.75000000  1
  Ta  Ta7  1  0.00000000  0.75893100  0.75000000  1
  Ta  Ta8  1  0.24106900  0.00000000  0.25000000  1
  Ta  Ta9  1  0.33333300  0.66666700  0.50000000  1
  N  N0  1  0.00000000  0.67058300  0.06999800  1
  N  N1  1  0.00000000  0.67058300  0.43000200  1
  N  N2  1  0.00000000  0.32941700  0.56999800  1
  N  N3  1  0.00000000  0.32941700  0.93000200  1
  N  N4  1  0.32941700  0.32941700  0.43000200  1
  N  N5  1  0.32941700  0.32941700  0.06999800  1
  N  N6  1  0.32941700  0.00000000  0.56999800  1
  N  N7  1  0.32941700  0.00000000  0.93000200  1
  N  N8  1  0.67058300  0.67058300  0.56999800  1
  N  N9  1  0.67058300  0.67058300  0.93000200  1
  N  N10  1  0.67058300  0.00000000  0.06999800  1
  N  N11  1  0.67058300  0.00000000  0.43000200  1
loop_
_geom_bond_atom_site_label_1
_geom_bond_atom_site_label_2
_geom_bond_distance
_geom_bond_site_symmetry_2
N0 Ta7 2.174554 1_554
N0 Ta4 2.246136 1_555
N0 Ta5 2.246139 1_455
N0 Ta3 2.267304 1_455
N0 Ta8 2.267304 1_565
N1 Ta7 2.174554 1_555
N1 Ta9 2.246136 1_555
N1 Ta0 2.246139 1_455
N1 Ta3 2.267304 1_455
N1 Ta8 2.267304 1_565
N2 Ta2 2.174554 1_555
N2 Ta0 2.246136 1_455
N2 Ta9 2.246139 1_555
N2 Ta6 2.267304 1_555
N2 Ta1 2.267304 1_455
N3 Ta2 2.174554 1_556
N3 Ta5 2.246136 1_456
N3 Ta4 2.246139 1_556
N3 Ta6 2.267304 1_555
N3 Ta1 2.267304 1_455
N4 Ta6 2.174554 1_555
N4 Ta9 2.246142 1_555
N4 Ta0 2.246142 1_555
N4 Ta2 2.267304 1_555
N4 Ta8 2.267304 1_555
N5 Ta6 2.174554 1_554
N5 Ta4 2.246142 1_555
N5 Ta5 2.246142 1_555
N5 Ta2 2.267304 1_555
N5 Ta8 2.267304 1_555
N6 Ta8 2.174554 1_555
N6 Ta9 2.246136 1_545
N6 Ta0 2.246139 1_555
N6 Ta6 2.267304 1_555
N6 Ta7 2.267304 1_545
N7 Ta8 2.174554 1_556
N7 Ta4 2.246136 1_546
N7 Ta5 2.246139 1_556
N7 Ta6 2.267304 1_555
N7 Ta7 2.267304 1_545
N8 Ta3 2.174554 1_555
N8 Ta9 2.246142 1_555
N8 Ta0 2.246142 1_555
N8 Ta7 2.267304 1_655
N8 Ta1 2.267304 1_565
N9 Ta3 2.174554 1_556
N9 Ta4 2.246142 1_556
N9 Ta5 2.246142 1_556
N9 Ta7 2.267304 1_655
N9 Ta1 2.267304 1_565
N10 Ta1 2.174554 1_554
N10 Ta5 2.246136 1_555
N10 Ta4 2.246139 1_545
N10 Ta3 2.267304 1_545
N10 Ta2 2.267304 1_655
N11 Ta1 2.174554 1_555
N11 Ta0 2.246136 1_555
N11 Ta9 2.246139 1_545
N11 Ta3 2.267304 1_545
N11 Ta2 2.267304 1_655
