# generated using pymatgen
data_Nd2S3
_symmetry_space_group_name_H-M   'P 1'
_cell_length_a   22.32496321
_cell_length_b   8.60282978
_cell_length_c   8.60283588
_cell_angle_alpha   89.99940259
_cell_angle_beta   54.68742301
_cell_angle_gamma   54.68744462
_symmetry_Int_Tables_number   1
_chemical_formula_structural   Nd2S3
_chemical_formula_sum   'Nd16 S24'
_cell_volume   951.66044684
_cell_formula_units_Z   8
loop_
 _symmetry_equiv_pos_site_id
 _symmetry_equiv_pos_as_xyz
  1  'x, y, z'
loop_
 _atom_site_type_symbol
 _atom_site_label
 _atom_site_symmetry_multiplicity
 _atom_site_fract_x
 _atom_site_fract_y
 _atom_site_fract_z
 _atom_site_occupancy
  Nd  Nd0  1  0.99445067  0.39738552  0.24935667  1
  Nd  Nd1  1  0.08607614  0.62086395  0.37087183  1
  Nd  Nd2  1  0.16662987  0.25003508  0.63042605  1
  Nd  Nd3  1  0.24726061  0.87909169  0.12909980  1
  Nd  Nd4  1  0.33886378  0.38075900  0.25064878  1
  Nd  Nd5  1  0.33887328  0.10263544  0.73272701  1
  Nd  Nd6  1  0.16669680  0.74995147  0.86956493  1
  Nd  Nd7  1  0.49448044  0.26725392  0.61923087  1
  Nd  Nd8  1  0.66669680  0.36956493  0.24995147  1
  Nd  Nd9  1  0.58607614  0.87087183  0.12086395  1
  Nd  Nd10  1  0.49445067  0.74935667  0.89738552  1
  Nd  Nd11  1  0.66662987  0.13042605  0.75003508  1
  Nd  Nd12  1  0.74726061  0.62909980  0.37909169  1
  Nd  Nd13  1  0.83887328  0.23272701  0.60263544  1
  Nd  Nd14  1  0.99448044  0.11922987  0.76725392  1
  Nd  Nd15  1  0.83886378  0.75064878  0.88075900  1
  S  S0  1  0.12738489  0.48646485  0.99129862  1
  S  S1  1  0.04977511  0.35253184  0.49533201  1
  S  S2  1  0.28357377  0.14739166  0.14453957  1
  S  S3  1  0.04978311  0.99809608  0.35544457  1
  S  S4  1  0.28359614  0.50176693  0.00469088  1
  S  S5  1  0.12737998  0.63136549  0.62648768  1
  S  S6  1  0.20597338  0.86860163  0.50868534  1
  S  S7  1  0.44974351  0.49552038  0.99588783  1
  S  S8  1  0.38353234  0.34525755  0.50456026  1
  S  S9  1  0.20592440  0.01356933  0.87354169  1
  S  S10  1  0.38354610  0.00421822  0.34481446  1
  S  S11  1  0.62737998  0.12648768  0.13136649  1
  S  S12  1  0.62738489  0.49129862  0.98646485  1
  S  S13  1  0.44978767  0.65520577  0.65482736  1
  S  S14  1  0.54978411  0.85544357  0.49809608  1
  S  S15  1  0.78359714  0.50469088  0.00176693  1
  S  S16  1  0.70592440  0.37354169  0.51356933  1
  S  S17  1  0.54977511  0.99533201  0.85253184  1
  S  S18  1  0.94978867  0.15482736  0.15520577  1
  S  S19  1  0.70597338  0.00868534  0.36860163  1
  S  S20  1  0.94974351  0.49588783  0.99552038  1
  S  S21  1  0.78357377  0.64453957  0.64739166  1
  S  S22  1  0.88354710  0.84481446  0.50421822  1
  S  S23  1  0.88353234  0.00456026  0.84525755  1
loop_
_geom_bond_atom_site_label_1
_geom_bond_atom_site_label_2
_geom_bond_distance
_geom_bond_site_symmetry_2
Nd0 S9 2.824346 1_654
Nd0 S20 2.832797 1_554
Nd0 S21 2.863753 1_555
Nd0 S22 2.908636 1_555
Nd0 S1 2.936453 1_655
Nd0 S0 3.055450 1_654
Nd0 S18 3.056707 1_555
Nd0 S3 3.249004 1_645
Nd1 S5 2.852132 1_555
Nd1 S0 2.852395 1_554
Nd1 S3 2.879291 1_555
Nd1 S1 2.879503 1_555
Nd1 S2 3.022518 1_555
Nd1 S4 3.022583 1_555
Nd1 S22 3.066660 1_455
Nd1 S23 3.067324 1_465
Nd2 S6 2.870636 1_545
Nd2 S5 2.870870 1_555
Nd2 S20 2.891789 1_455
Nd2 S10 2.892337 1_555
Nd2 S0 3.055840 1_555
Nd2 S9 3.056154 1_555
Nd2 S1 3.127244 1_555
Nd2 S2 3.128403 1_555
Nd3 S9 2.852147 1_564
Nd3 S6 2.852675 1_555
Nd3 S2 2.879251 1_565
Nd3 S4 2.879698 1_555
Nd3 S3 3.022226 1_555
Nd3 S1 3.022466 1_565
Nd3 S7 3.066401 1_554
Nd3 S13 3.066842 1_554
Nd4 S5 2.824528 1_555
Nd4 S8 2.832898 1_555
Nd4 S17 2.864035 1_544
Nd4 S7 2.908427 1_554
Nd4 S4 2.935390 1_555
Nd4 S6 3.055334 1_555
Nd4 S10 3.056633 1_555
Nd4 S2 3.248838 1_555
Nd5 S0 2.824617 1_555
Nd5 S10 2.832715 1_555
Nd5 S14 2.864252 1_545
Nd5 S13 2.908518 1_545
Nd5 S2 2.935581 1_556
Nd5 S9 3.055568 1_555
Nd5 S8 3.057244 1_555
Nd5 S4 3.248156 1_556
Nd6 S9 2.870889 1_565
Nd6 S0 2.870941 1_555
Nd6 S8 2.891046 1_555
Nd6 S18 2.892076 1_466
Nd6 S6 3.055607 1_555
Nd6 S5 3.056363 1_555
Nd6 S4 3.128308 1_556
Nd6 S3 3.128501 1_556
Nd7 S19 2.824736 1_555
Nd7 S13 2.832869 1_555
Nd7 S4 2.863996 1_556
Nd7 S8 2.908921 1_555
Nd7 S14 2.935512 1_545
Nd7 S11 3.055293 1_555
Nd7 S7 3.056928 1_555
Nd7 S17 3.248104 1_545
Nd8 S16 2.870891 1_555
Nd8 S12 2.870943 1_554
Nd8 S23 2.891046 1_554
Nd8 S13 2.892088 1_555
Nd8 S19 3.055606 1_555
Nd8 S11 3.056357 1_555
Nd8 S15 3.128322 1_555
Nd8 S14 3.128499 1_555
Nd9 S11 2.852132 1_565
Nd9 S12 2.852393 1_554
Nd9 S14 2.879303 1_555
Nd9 S17 2.879505 1_554
Nd9 S21 3.022519 1_554
Nd9 S15 3.022598 1_555
Nd9 S10 3.066679 1_565
Nd9 S8 3.067324 1_565
Nd10 S16 2.824346 1_555
Nd10 S7 2.832795 1_555
Nd10 S2 2.863752 1_566
Nd10 S10 2.908629 1_566
Nd10 S17 2.936452 1_555
Nd10 S12 3.055451 1_555
Nd10 S13 3.056727 1_555
Nd10 S14 3.248999 1_555
Nd11 S19 2.870638 1_555
Nd11 S11 2.870880 1_556
Nd11 S7 2.891789 1_555
Nd11 S22 2.892354 1_545
Nd11 S12 3.055839 1_555
Nd11 S16 3.056153 1_555
Nd11 S17 3.127243 1_545
Nd11 S21 3.128402 1_545
Nd12 S16 2.852145 1_555
Nd12 S19 2.852673 1_565
Nd12 S21 2.879253 1_555
Nd12 S15 2.879686 1_555
Nd12 S14 3.022208 1_555
Nd12 S17 3.022467 1_555
Nd12 S20 3.066401 1_554
Nd12 S18 3.066849 1_555
Nd13 S12 2.824617 1_555
Nd13 S22 2.832702 1_545
Nd13 S3 2.864236 1_645
Nd13 S18 2.908518 1_555
Nd13 S21 2.935579 1_555
Nd13 S16 3.055569 1_555
Nd13 S23 3.057245 1_555
Nd13 S15 3.248172 1_556
Nd14 S6 2.824738 1_645
Nd14 S18 2.832879 1_556
Nd14 S15 2.863985 1_556
Nd14 S23 2.908913 1_555
Nd14 S3 2.935515 1_645
Nd14 S5 3.055291 1_645
Nd14 S20 3.056934 1_555
Nd14 S1 3.248111 1_655
Nd15 S11 2.824526 1_566
Nd15 S23 2.832896 1_565
Nd15 S1 2.864035 1_655
Nd15 S20 2.908428 1_555
Nd15 S15 2.935374 1_556
Nd15 S19 3.055335 1_566
Nd15 S22 3.056631 1_555
Nd15 S21 3.248839 1_555
