# generated using pymatgen
data_Zr3ZnIr2N
_symmetry_space_group_name_H-M   'P 1'
_cell_length_a   8.51280288
_cell_length_b   8.51280284
_cell_length_c   8.51280348
_cell_angle_alpha   60.00000131
_cell_angle_beta   60.00000147
_cell_angle_gamma   60.00000302
_symmetry_Int_Tables_number   1
_chemical_formula_structural   Zr3ZnIr2N
_chemical_formula_sum   'Zr12 Zn4 Ir8 N4'
_cell_volume   436.21719529
_cell_formula_units_Z   4
loop_
 _symmetry_equiv_pos_site_id
 _symmetry_equiv_pos_as_xyz
  1  'x, y, z'
loop_
 _atom_site_type_symbol
 _atom_site_label
 _atom_site_symmetry_multiplicity
 _atom_site_fract_x
 _atom_site_fract_y
 _atom_site_fract_z
 _atom_site_occupancy
  Zr  Zr0  1  0.80729929  0.19270071  0.19270071  1
  Zr  Zr1  1  0.19270071  0.80729929  0.19270071  1
  Zr  Zr2  1  0.80729929  0.80729929  0.19270071  1
  Zr  Zr3  1  0.19270071  0.80729929  0.80729929  1
  Zr  Zr4  1  0.80729929  0.19270071  0.80729929  1
  Zr  Zr5  1  0.19270071  0.19270071  0.80729929  1
  Zr  Zr6  1  0.44270071  0.05729929  0.05729929  1
  Zr  Zr7  1  0.05729929  0.44270071  0.05729929  1
  Zr  Zr8  1  0.44270071  0.44270071  0.05729929  1
  Zr  Zr9  1  0.05729929  0.44270071  0.44270071  1
  Zr  Zr10  1  0.44270071  0.05729929  0.44270071  1
  Zr  Zr11  1  0.05729929  0.05729929  0.44270071  1
  Zn  Zn0  1  0.62500000  0.62500000  0.12500000  1
  Zn  Zn1  1  0.62500000  0.62500000  0.62500000  1
  Zn  Zn2  1  0.12500000  0.62500000  0.62500000  1
  Zn  Zn3  1  0.62500000  0.12500000  0.62500000  1
  Ir  Ir0  1  0.41479819  0.41479819  0.75560343  1
  Ir  Ir1  1  0.41479819  0.41479819  0.41479819  1
  Ir  Ir2  1  0.75560343  0.41479819  0.41479819  1
  Ir  Ir3  1  0.41479819  0.75560343  0.41479819  1
  Ir  Ir4  1  0.83520181  0.83520181  0.49439657  1
  Ir  Ir5  1  0.83520181  0.83520181  0.83520181  1
  Ir  Ir6  1  0.49439657  0.83520181  0.83520181  1
  Ir  Ir7  1  0.83520181  0.49439657  0.83520181  1
  N  N0  1  0.12500000  0.12500000  0.62500000  1
  N  N1  1  0.12500000  0.12500000  0.12500000  1
  N  N2  1  0.62500000  0.12500000  0.12500000  1
  N  N3  1  0.12500000  0.62500000  0.12500000  1
loop_
_geom_bond_atom_site_label_1
_geom_bond_atom_site_label_2
_geom_bond_distance
_geom_bond_site_symmetry_2
Zn0 Zr2 3.057105 1_555
Zn0 Zr8 3.057105 1_555
Zn0 Zr6 3.057105 1_565
Zn0 Zr0 3.057105 1_555
Zn0 Zr7 3.057105 1_655
Zn0 Zr1 3.057105 1_555
Zn1 Zr10 3.057105 1_565
Zn1 Zr4 3.057105 1_555
Zn1 Zr9 3.057105 1_655
Zn1 Zr3 3.057105 1_555
Zn1 Zr8 3.057105 1_556
Zn1 Zr2 3.057105 1_555
Zn2 Zr11 3.057105 1_565
Zn2 Zr5 3.057105 1_555
Zn2 Zr3 3.057105 1_555
Zn2 Zr9 3.057105 1_555
Zn2 Zr7 3.057105 1_556
Zn2 Zr1 3.057105 1_555
Zn3 Zr4 3.057105 1_555
Zn3 Zr10 3.057105 1_555
Zn3 Zr11 3.057105 1_655
Zn3 Zr5 3.057105 1_555
Zn3 Zr6 3.057105 1_556
Zn3 Zr0 3.057105 1_555
Ir0 Zn3 2.619738 1_555
Ir0 Zn2 2.619738 1_555
Ir0 Zn1 2.619752 1_555
Ir0 Zr6 2.825833 1_556
Ir0 Zr7 2.825833 1_556
Ir0 Zr8 2.825843 1_556
Ir0 Zr5 3.041958 1_555
Ir0 Zr3 3.041973 1_555
Ir0 Zr4 3.041973 1_555
Ir1 Zn0 2.619748 1_555
Ir1 Zn3 2.619748 1_555
Ir1 Zn2 2.619748 1_555
Ir1 Zr10 2.825826 1_555
Ir1 Zr9 2.825826 1_555
Ir1 Zr8 2.825826 1_555
Ir1 Zr5 3.041966 1_555
Ir1 Zr1 3.041966 1_555
Ir1 Zr0 3.041966 1_555
Ir2 Zn3 2.619738 1_555
Ir2 Zn0 2.619738 1_555
Ir2 Zn1 2.619752 1_555
Ir2 Zr11 2.825833 1_655
Ir2 Zr7 2.825833 1_655
Ir2 Zr9 2.825843 1_655
Ir2 Zr0 3.041958 1_555
Ir2 Zr2 3.041973 1_555
Ir2 Zr4 3.041973 1_555
Ir3 Zn2 2.619738 1_555
Ir3 Zn0 2.619738 1_555
Ir3 Zn1 2.619752 1_555
Ir3 Zr11 2.825833 1_565
Ir3 Zr6 2.825833 1_565
Ir3 Zr10 2.825843 1_565
Ir3 Zr1 3.041958 1_555
Ir3 Zr2 3.041973 1_555
Ir3 Zr3 3.041973 1_555
Ir4 Zn3 2.619738 1_565
Ir4 Zn2 2.619738 1_655
Ir4 Zn1 2.619752 1_555
Ir4 Zr0 2.825833 1_565
Ir4 Zr1 2.825833 1_655
Ir4 Zr2 2.825843 1_555
Ir4 Zr11 3.041958 1_665
Ir4 Zr9 3.041973 1_655
Ir4 Zr10 3.041973 1_565
Ir5 Zn0 2.619748 1_556
Ir5 Zn3 2.619748 1_565
Ir5 Zn2 2.619748 1_655
Ir5 Zr4 2.825826 1_565
Ir5 Zr3 2.825826 1_655
Ir5 Zr2 2.825826 1_556
Ir5 Zr11 3.041966 1_665
Ir5 Zr7 3.041966 1_656
Ir5 Zr6 3.041966 1_566
Ir6 Zn3 2.619738 1_565
Ir6 Zn0 2.619738 1_556
Ir6 Zn1 2.619752 1_555
Ir6 Zr5 2.825833 1_565
Ir6 Zr1 2.825833 1_556
Ir6 Zr3 2.825843 1_555
Ir6 Zr6 3.041958 1_566
Ir6 Zr8 3.041973 1_556
Ir6 Zr10 3.041973 1_565
Ir7 Zn2 2.619738 1_655
Ir7 Zn0 2.619738 1_556
Ir7 Zn1 2.619752 1_555
Ir7 Zr5 2.825833 1_655
Ir7 Zr0 2.825833 1_556
Ir7 Zr4 2.825843 1_555
Ir7 Zr7 3.041958 1_656
Ir7 Zr8 3.041973 1_556
Ir7 Zr9 3.041973 1_655
N0 Zr9 2.278933 1_555
N0 Zr3 2.278933 1_545
N0 Zr5 2.278933 1_555
N0 Zr11 2.278933 1_555
N0 Zr10 2.278933 1_555
N0 Zr4 2.278933 1_455
N1 Zr7 2.278933 1_555
N1 Zr1 2.278933 1_545
N1 Zr6 2.278933 1_555
N1 Zr0 2.278933 1_455
N1 Zr11 2.278933 1_555
N1 Zr5 2.278933 1_554
N2 Zr0 2.278933 1_555
N2 Zr6 2.278933 1_555
N2 Zr8 2.278933 1_555
N2 Zr2 2.278933 1_545
N2 Zr10 2.278933 1_555
N2 Zr4 2.278933 1_554
N3 Zr1 2.278933 1_555
N3 Zr7 2.278933 1_555
N3 Zr2 2.278933 1_455
N3 Zr8 2.278933 1_555
N3 Zr9 2.278933 1_555
N3 Zr3 2.278933 1_554
