# generated using pymatgen
data_KMnP2Os
_symmetry_space_group_name_H-M   'P 1'
_cell_length_a   7.22763956
_cell_length_b   7.22763966
_cell_length_c   7.22764006
_cell_angle_alpha   149.02579728
_cell_angle_beta   149.02579319
_cell_angle_gamma   44.37334360
_symmetry_Int_Tables_number   1
_chemical_formula_structural   KMnP2Os
_chemical_formula_sum   'K1 Mn1 P2 Os1'
_cell_volume   99.70875391
_cell_formula_units_Z   1
loop_
 _symmetry_equiv_pos_site_id
 _symmetry_equiv_pos_as_xyz
  1  'x, y, z'
loop_
 _atom_site_type_symbol
 _atom_site_label
 _atom_site_symmetry_multiplicity
 _atom_site_fract_x
 _atom_site_fract_y
 _atom_site_fract_z
 _atom_site_occupancy
  K  K0  1  0.00000000  0.00000000  0.00000000  1
  Mn  Mn0  1  0.25000000  0.75000000  0.50000000  1
  P  P0  1  0.34822726  0.34822726  1.00000000  1
  P  P1  1  0.65177274  0.65177274  0.00000000  1
  Os  Os0  1  0.75000000  0.25000000  0.50000000  1
loop_
_geom_bond_atom_site_label_1
_geom_bond_atom_site_label_2
_geom_bond_distance
_geom_bond_site_symmetry_2
K0 P1 3.402380 1_556
K0 P0 3.402380 1_443
K0 P1 3.402381 1_545
K0 P0 3.402381 1_454
K0 P1 3.402381 1_455
K0 P0 3.402381 1_544
K0 P1 3.402381 1_444
K0 P0 3.402381 1_555
Mn0 P0 2.335224 1_565
Mn0 P1 2.335224 1_455
Mn0 P0 2.335224 1_554
Mn0 P1 2.335224 1_556
Mn0 Os0 2.729340 1_454
Mn0 Os0 2.729340 1_566
Mn0 Os0 2.729340 1_555
Mn0 Os0 2.729340 1_465
Os0 P1 2.335224 1_545
Os0 P0 2.335224 1_655
Os0 P1 2.335224 1_556
Os0 P0 2.335224 1_554
