# generated using pymatgen
data_Y6Zn4Pd4Pt9
_symmetry_space_group_name_H-M   'P 1'
_cell_length_a   8.20756274
_cell_length_b   8.20010429
_cell_length_c   8.20010445
_cell_angle_alpha   109.36648121
_cell_angle_beta   109.46297160
_cell_angle_gamma   109.46297362
_symmetry_Int_Tables_number   1
_chemical_formula_structural   Y6Zn4Pd4Pt9
_chemical_formula_sum   'Y6 Zn4 Pd4 Pt9'
_cell_volume   425.47972479
_cell_formula_units_Z   1
loop_
 _symmetry_equiv_pos_site_id
 _symmetry_equiv_pos_as_xyz
  1  'x, y, z'
loop_
 _atom_site_type_symbol
 _atom_site_label
 _atom_site_symmetry_multiplicity
 _atom_site_fract_x
 _atom_site_fract_y
 _atom_site_fract_z
 _atom_site_occupancy
  Y  Y0  1  0.69988958  0.70003954  0.00200782  1
  Y  Y1  1  0.29813514  0.99729846  0.29999676  1
  Y  Y2  1  0.00040449  0.29900239  0.29900239  1
  Y  Y3  1  0.29813514  0.29999676  0.99729846  1
  Y  Y4  1  0.69988958  0.00200782  0.70003954  1
  Y  Y5  1  0.00409060  0.70251049  0.70251049  1
  Zn  Zn0  1  0.99842579  0.99850611  0.49938956  1
  Zn  Zn1  1  0.99842579  0.49938956  0.99850611  1
  Zn  Zn2  1  0.50132500  0.00107092  0.00107092  1
  Zn  Zn3  1  0.50160148  0.50057263  0.50057263  1
  Pd  Pd0  1  0.66576836  0.33412293  0.33412293  1
  Pd  Pd1  1  0.66761397  0.66711468  0.33670444  1
  Pd  Pd2  1  0.66761397  0.33670444  0.66711468  1
  Pd  Pd3  1  0.33656172  0.66813227  0.66813227  1
  Pt  Pt0  1  0.33094774  0.33107707  0.65968611  1
  Pt  Pt1  1  0.66973164  0.00112467  0.33122624  1
  Pt  Pt2  1  0.99990893  0.66867933  0.33172879  1
  Pt  Pt3  1  0.66973164  0.33122624  0.00112467  1
  Pt  Pt4  1  0.33094774  0.65968611  0.33107707  1
  Pt  Pt5  1  0.99990893  0.33172879  0.66867933  1
  Pt  Pt6  1  0.33107198  0.67080992  0.00069389  1
  Pt  Pt7  1  0.33107198  0.00069389  0.67080992  1
  Pt  Pt8  1  0.99879880  0.99850799  0.99850799  1
loop_
_geom_bond_atom_site_label_1
_geom_bond_atom_site_label_2
_geom_bond_distance
_geom_bond_site_symmetry_2
Y0 Zn0 3.369319 1_555
Y0 Zn1 3.378446 1_554
Y0 Zn2 3.381515 1_565
Y0 Zn3 3.396654 1_554
Y1 Zn1 3.375365 1_454
Y1 Zn0 3.377903 1_455
Y1 Zn2 3.395691 1_565
Y1 Zn3 3.405956 1_565
Y2 Zn2 3.379356 1_455
Y2 Zn0 3.383583 1_445
Y2 Zn1 3.383583 1_454
Y2 Zn3 3.392904 1_555
Y3 Zn0 3.375365 1_445
Y3 Zn1 3.377903 1_455
Y3 Zn2 3.395691 1_556
Y3 Zn3 3.405956 1_556
Y4 Zn1 3.369319 1_555
Y4 Zn0 3.378446 1_545
Y4 Zn2 3.381515 1_556
Y4 Zn3 3.396654 1_545
Y5 Zn2 3.369153 1_566
Y5 Zn0 3.372319 1_455
Y5 Zn1 3.372319 1_455
Y5 Zn3 3.401847 1_455
Pd0 Zn3 2.599425 1_555
Pd0 Zn2 2.622888 1_555
Pd0 Pd1 2.718559 1_555
Pd0 Pd2 2.718559 1_555
Pd0 Pt1 2.733972 1_555
Pd0 Pt3 2.733972 1_555
Pd0 Y2 2.951035 1_655
Pd0 Y5 2.954569 1_655
Pd0 Pt2 3.178937 1_555
Pd0 Pt5 3.178938 1_555
Pd0 Y1 3.190996 1_545
Pd0 Y3 3.190996 1_554
Pd1 Zn3 2.593141 1_555
Pd1 Zn0 2.607938 1_555
Pd1 Pt4 2.728033 1_555
Pd1 Pt2 2.737033 1_555
Pd1 Pt1 2.748524 1_565
Pd1 Y0 2.933238 1_555
Pd1 Y3 2.956350 1_554
Pd1 Y4 3.170363 1_565
Pd1 Y5 3.174407 1_655
Pd1 Pt3 3.193112 1_555
Pd1 Pt6 3.203405 1_555
Pd2 Zn3 2.593141 1_555
Pd2 Zn1 2.607938 1_555
Pd2 Pt0 2.728033 1_555
Pd2 Pt5 2.737033 1_555
Pd2 Pt3 2.748524 1_556
Pd2 Y4 2.933238 1_555
Pd2 Y1 2.956350 1_545
Pd2 Y0 3.170363 1_556
Pd2 Y5 3.174407 1_655
Pd2 Pt1 3.193112 1_555
Pd2 Pt7 3.203405 1_555
Pd3 Zn3 2.615178 1_555
Pd3 Zn2 2.621443 1_566
Pd3 Pt0 2.726178 1_555
Pd3 Pt4 2.726178 1_555
Pd3 Pt7 2.735341 1_565
Pd3 Pt6 2.735341 1_556
Pd3 Y5 2.928774 1_555
Pd3 Y2 2.954569 1_555
Pd3 Y4 3.165592 1_565
Pd3 Y0 3.165593 1_556
Pd3 Pt5 3.190833 1_455
Pd3 Pt2 3.190833 1_455
Pt0 Zn3 2.592143 1_555
Pt0 Zn0 2.624033 1_445
Pt0 Pt7 2.741101 1_555
Pt0 Pt5 2.744196 1_455
Pt0 Y3 2.953116 1_555
Pt0 Y0 2.966580 1_556
Pt0 Y2 3.136623 1_555
Pt0 Y1 3.144632 1_545
Pt0 Pt3 3.221520 1_556
Pt0 Pt6 3.226441 1_556
Pt1 Zn2 2.597138 1_555
Pt1 Zn0 2.599838 1_545
Pt1 Pt5 2.735357 1_555
Pt1 Pt6 2.739033 1_545
Pt1 Y4 2.948420 1_555
Pt1 Y1 2.962919 1_545
Pt1 Y0 3.142758 1_545
Pt1 Y2 3.144895 1_655
Pt1 Pt4 3.221520 1_545
Pt2 Zn0 2.602353 1_555
Pt2 Zn1 2.616187 1_554
Pt2 Pt3 2.735357 1_555
Pt2 Pt4 2.744196 1_655
Pt2 Pt7 2.746452 1_665
Pt2 Y5 2.947401 1_655
Pt2 Y2 2.954787 1_655
Pt2 Y1 3.132806 1_655
Pt2 Y0 3.144252 1_555
Pt3 Zn2 2.597138 1_555
Pt3 Zn1 2.599838 1_554
Pt3 Pt7 2.739033 1_554
Pt3 Y0 2.948420 1_555
Pt3 Y3 2.962919 1_554
Pt3 Y4 3.142758 1_554
Pt3 Y2 3.144895 1_655
Pt4 Zn3 2.592143 1_555
Pt4 Zn1 2.624033 1_454
Pt4 Pt6 2.741101 1_555
Pt4 Y1 2.953116 1_555
Pt4 Y4 2.966580 1_565
Pt4 Y2 3.136623 1_555
Pt4 Y3 3.144632 1_554
Pt4 Pt7 3.226441 1_565
Pt5 Zn1 2.602353 1_555
Pt5 Zn0 2.616187 1_545
Pt5 Pt6 2.746452 1_656
Pt5 Y5 2.947401 1_655
Pt5 Y2 2.954788 1_655
Pt5 Y3 3.132806 1_655
Pt5 Y4 3.144252 1_555
Pt6 Zn2 2.599340 1_565
Pt6 Zn1 2.612174 1_454
Pt6 Y3 2.951408 1_554
Pt6 Y0 2.951933 1_555
Pt6 Y5 3.124441 1_554
Pt6 Y1 3.135430 1_555
Pt7 Zn2 2.599340 1_556
Pt7 Zn0 2.612174 1_445
Pt7 Y1 2.951408 1_545
Pt7 Y4 2.951933 1_555
Pt7 Y5 3.124441 1_545
Pt7 Y3 3.135430 1_555
Pt8 Y5 2.831579 1_655
Pt8 Y2 2.841382 1_666
Pt8 Y0 2.846382 1_556
Pt8 Y4 2.846382 1_565
Pt8 Y3 2.851833 1_665
Pt8 Y1 2.851834 1_656
