# generated using pymatgen
data_SrCa4(InSb3)2
_symmetry_space_group_name_H-M   'P 1'
_cell_length_a   4.64052437
_cell_length_b   12.28380185
_cell_length_c   14.34281667
_cell_angle_alpha   90.00000000
_cell_angle_beta   90.00000000
_cell_angle_gamma   90.00000000
_symmetry_Int_Tables_number   1
_chemical_formula_structural   SrCa4(InSb3)2
_chemical_formula_sum   'Sr2 Ca8 In4 Sb12'
_cell_volume   817.58762175
_cell_formula_units_Z   2
loop_
 _symmetry_equiv_pos_site_id
 _symmetry_equiv_pos_as_xyz
  1  'x, y, z'
loop_
 _atom_site_type_symbol
 _atom_site_label
 _atom_site_symmetry_multiplicity
 _atom_site_fract_x
 _atom_site_fract_y
 _atom_site_fract_z
 _atom_site_occupancy
  Sr  Sr0  1  0.00000000  0.67418767  0.97991402  1
  Sr  Sr1  1  0.00000000  0.82581233  0.47991402  1
  Ca  Ca0  1  0.00000000  0.40890408  0.74874352  1
  Ca  Ca1  1  0.00000000  0.91392119  0.75016266  1
  Ca  Ca2  1  0.00000000  0.58607881  0.25016266  1
  Ca  Ca3  1  0.00000000  0.17894120  0.51565342  1
  Ca  Ca4  1  0.00000000  0.09109592  0.24874352  1
  Ca  Ca5  1  0.00000000  0.00056138  0.00049634  1
  Ca  Ca6  1  0.00000000  0.32105880  0.01565342  1
  Ca  Ca7  1  0.00000000  0.49943862  0.50049634  1
  In  In0  1  0.50000000  0.66638297  0.78674270  1
  In  In1  1  0.50000000  0.16870004  0.71645103  1
  In  In2  1  0.50000000  0.83361703  0.28674270  1
  In  In3  1  0.50000000  0.33129996  0.21645103  1
  Sb  Sb0  1  0.50000000  0.97234137  0.59826315  1
  Sb  Sb1  1  0.50000000  0.85753614  0.90029848  1
  Sb  Sb2  1  0.00000000  0.66094053  0.67392813  1
  Sb  Sb3  1  0.50000000  0.46385328  0.90470990  1
  Sb  Sb4  1  0.50000000  0.64246386  0.40029848  1
  Sb  Sb5  1  0.50000000  0.14953549  0.09407678  1
  Sb  Sb6  1  0.50000000  0.03614672  0.40470990  1
  Sb  Sb7  1  0.00000000  0.16445163  0.83056086  1
  Sb  Sb8  1  0.00000000  0.83905947  0.17392813  1
  Sb  Sb9  1  0.50000000  0.52765863  0.09826315  1
  Sb  Sb10  1  0.50000000  0.35046451  0.59407678  1
  Sb  Sb11  1  0.00000000  0.33554837  0.33056086  1
loop_
_geom_bond_atom_site_label_1
_geom_bond_atom_site_label_2
_geom_bond_distance
_geom_bond_site_symmetry_2
Ca0 Sb7 3.223961 1_555
Ca0 Sb2 3.276655 1_555
Ca0 Sb10 3.289384 1_455
Ca0 Sb10 3.289384 1_555
Ca0 Sb3 3.292929 1_455
Ca0 Sb3 3.292929 1_555
Ca1 Sb1 3.240424 1_455
Ca1 Sb1 3.240424 1_555
Ca1 Sb0 3.262696 1_555
Ca1 Sb0 3.262696 1_455
Ca1 Sb7 3.286415 1_565
Ca1 Sb2 3.294316 1_555
Ca2 Sb4 3.240424 1_555
Ca2 Sb4 3.240424 1_455
Ca2 Sb9 3.262696 1_555
Ca2 Sb9 3.262696 1_455
Ca2 Sb11 3.286415 1_555
Ca2 Sb8 3.294316 1_555
Ca3 Sb11 3.278480 1_555
Ca3 Sb6 3.315478 1_455
Ca3 Sb6 3.315478 1_555
Ca3 Sb10 3.329879 1_455
Ca3 Sb10 3.329879 1_555
Ca3 Sb0 3.637044 1_545
Ca3 Sb0 3.637044 1_445
Ca3 In1 3.700522 1_455
Ca3 In1 3.700522 1_555
Ca4 Sb11 3.223961 1_555
Ca4 Sb8 3.276655 1_545
Ca4 Sb5 3.289384 1_455
Ca4 Sb5 3.289384 1_555
Ca4 Sb6 3.292929 1_455
Ca4 Sb6 3.292929 1_555
Ca5 Sb7 3.161273 1_554
Ca5 Sb8 3.181721 1_545
Ca5 Sb5 3.245600 1_455
Ca5 Sb5 3.245600 1_555
Ca5 Sb1 3.245860 1_544
Ca5 Sb1 3.245860 1_444
Ca6 Sb7 3.278480 1_554
Ca6 Sb3 3.315478 1_454
Ca6 Sb3 3.315478 1_554
Ca6 Sb5 3.329879 1_455
Ca6 Sb5 3.329879 1_555
Ca6 Sb9 3.637044 1_455
Ca6 Sb9 3.637044 1_555
Ca6 In3 3.700522 1_555
Ca6 In3 3.700522 1_455
Ca7 Sb11 3.161273 1_555
Ca7 Sb2 3.181721 1_555
Ca7 Sb10 3.245600 1_555
Ca7 Sb10 3.245600 1_455
Ca7 Sb4 3.245860 1_555
Ca7 Sb4 3.245860 1_455
In0 Sb2 2.829534 1_555
In0 Sb2 2.829534 1_655
In0 Sb1 2.857658 1_555
In0 Sb3 3.008675 1_555
In0 Sr0 3.615128 1_655
In0 Sr0 3.615128 1_555
In1 Sb7 2.839892 1_555
In1 Sb7 2.839892 1_655
In1 Sb10 2.840054 1_555
In1 Sb0 2.948121 1_545
In2 Sb8 2.829534 1_655
In2 Sb8 2.829534 1_555
In2 Sb4 2.857658 1_555
In2 Sb6 3.008675 1_565
In2 Sr1 3.615128 1_555
In2 Sr1 3.615128 1_655
In3 Sb11 2.839892 1_555
In3 Sb11 2.839892 1_655
In3 Sb5 2.840054 1_555
In3 Sb9 2.948121 1_555
Sb0 Sb6 2.884618 1_565
Sb0 Sr1 3.391865 1_655
Sb0 Sr1 3.391865 1_555
Sb1 Sr0 3.429294 1_555
Sb1 Sr0 3.429294 1_655
Sb2 Sr1 3.441674 1_555
Sb3 Sb9 2.884618 1_556
Sb3 Sr0 3.636291 1_655
Sb3 Sr0 3.636291 1_555
Sb4 Sr1 3.429294 1_655
Sb4 Sr1 3.429294 1_555
Sb6 Sr1 3.636291 1_545
Sb6 Sr1 3.636291 1_645
Sb8 Sr0 3.441674 1_554
Sb9 Sr0 3.391865 1_654
Sb9 Sr0 3.391865 1_554
