# generated using pymatgen
data_Y12InNi4Os
_symmetry_space_group_name_H-M   'P 1'
_cell_length_a   8.34705766
_cell_length_b   8.34705770
_cell_length_c   8.34705714
_cell_angle_alpha   111.47181277
_cell_angle_beta   109.38223185
_cell_angle_gamma   107.58304713
_symmetry_Int_Tables_number   1
_chemical_formula_structural   Y12InNi4Os
_chemical_formula_sum   'Y12 In1 Ni4 Os1'
_cell_volume   447.17372562
_cell_formula_units_Z   1
loop_
 _symmetry_equiv_pos_site_id
 _symmetry_equiv_pos_as_xyz
  1  'x, y, z'
loop_
 _atom_site_type_symbol
 _atom_site_label
 _atom_site_symmetry_multiplicity
 _atom_site_fract_x
 _atom_site_fract_y
 _atom_site_fract_z
 _atom_site_occupancy
  Y  Y0  1  0.40990564  0.22014707  0.18975757  1
  Y  Y1  1  0.59009436  0.77985293  0.81024243  1
  Y  Y2  1  0.03038951  0.22014707  0.81024243  1
  Y  Y3  1  0.96961049  0.77985293  0.18975757  1
  Y  Y4  1  0.17841719  0.28081480  0.45923199  1
  Y  Y5  1  0.82158281  0.71918520  0.54076801  1
  Y  Y6  1  0.17841719  0.71918520  0.89760240  1
  Y  Y7  1  0.82158281  0.28081480  0.10239760  1
  Y  Y8  1  0.32333654  0.62926470  0.30592817  1
  Y  Y9  1  0.67666346  0.37073530  0.69407183  1
  Y  Y10  1  0.32333654  0.01740837  0.69407183  1
  Y  Y11  1  0.67666346  0.98259163  0.30592817  1
  In  In0  1  0.50000000  0.50000000  0.00000000  1
  Ni  Ni0  1  0.36088357  0.00000000  0.36088357  1
  Ni  Ni1  1  0.63911643  1.00000000  0.63911643  1
  Ni  Ni2  1  0.11584841  0.61584841  0.50000000  1
  Ni  Ni3  1  0.88415159  0.38415159  0.50000000  1
  Os  Os0  1  0.00000000  0.00000000  0.00000000  1
loop_
_geom_bond_atom_site_label_1
_geom_bond_atom_site_label_2
_geom_bond_distance
_geom_bond_site_symmetry_2
Y0 Y6 3.419278 1_544
Y0 Y4 3.419285 1_555
Y0 Y11 3.531594 1_545
Y0 Y9 3.531599 1_555
Y0 Y10 3.557504 1_554
Y0 Y8 3.557511 1_555
Y0 Y2 3.661921 1_554
Y0 Y7 3.671297 1_555
Y0 Y5 3.671303 1_555
Y1 Y7 3.419278 1_566
Y1 Y5 3.419285 1_555
Y1 Y10 3.531594 1_565
Y1 Y8 3.531599 1_555
Y1 Y11 3.557504 1_556
Y1 Y9 3.557511 1_555
Y1 Y3 3.661921 1_556
Y1 Y6 3.671297 1_555
Y1 Y4 3.671303 1_555
Y2 Y7 3.419278 1_456
Y2 Y5 3.419278 1_445
Y2 Y9 3.531600 1_455
Y2 Y8 3.557507 1_556
Y2 Y4 3.671305 1_555
Y2 Y6 3.671305 1_555
Y3 Y6 3.419278 1_654
Y3 Y4 3.419278 1_665
Y3 Y8 3.531600 1_655
Y3 Y9 3.557507 1_554
Y3 Y5 3.671305 1_555
Y3 Y7 3.671305 1_555
Y4 Y7 3.443071 1_455
Y4 Y8 3.631354 1_555
Y4 Y9 3.650768 1_555
Y5 Y6 3.443071 1_655
Y5 Y9 3.631354 1_555
Y5 Y8 3.650768 1_555
Y6 Y9 3.631355 1_455
Y6 Y8 3.650768 1_556
Y7 Y8 3.631355 1_655
Y7 Y9 3.650768 1_554
Y10 Y3 3.531600 1_445
Y10 Y2 3.557506 1_555
Y10 Y6 3.631354 1_545
Y10 Y5 3.631355 1_445
Y10 Y4 3.650768 1_555
Y10 Y7 3.650768 1_556
Y11 Y2 3.531600 1_665
Y11 Y3 3.557506 1_555
Y11 Y7 3.631354 1_565
Y11 Y4 3.631355 1_665
Y11 Y5 3.650768 1_555
Y11 Y6 3.650768 1_554
In0 Y1 3.311937 1_554
In0 Y0 3.311937 1_555
In0 Y3 3.311939 1_555
In0 Y2 3.311939 1_554
In0 Y8 3.362012 1_555
In0 Y9 3.362012 1_554
In0 Y11 3.362012 1_555
In0 Y10 3.362012 1_554
In0 Y7 3.724542 1_555
In0 Y6 3.724542 1_554
In0 Y5 3.724542 1_555
In0 Y4 3.724542 1_554
Ni0 Ni1 2.684651 1_545
Ni0 Y3 2.727579 1_445
Ni0 Y0 2.727580 1_555
Ni0 Y10 2.857321 1_555
Ni0 Y11 2.857321 1_545
Ni0 Y8 2.857321 1_545
Ni0 Y9 2.857321 1_555
Ni0 Y4 3.172686 1_555
Ni0 Y6 3.172686 1_544
Ni1 Y2 2.727579 1_665
Ni1 Y1 2.727580 1_555
Ni1 Y11 2.857321 1_555
Ni1 Y10 2.857321 1_565
Ni1 Y9 2.857321 1_565
Ni1 Y8 2.857321 1_555
Ni1 Y5 3.172686 1_555
Ni1 Y7 3.172686 1_566
Ni2 Ni3 2.284909 1_455
Ni2 Y8 2.741174 1_555
Ni2 Y10 2.741174 1_565
Ni2 Y6 2.917691 1_555
Ni2 Y5 2.917691 1_455
Ni2 Y4 2.917691 1_555
Ni2 Y7 2.917691 1_455
Ni2 Y1 3.402481 1_555
Ni2 Y3 3.402488 1_455
Ni3 Y9 2.741174 1_555
Ni3 Y11 2.741174 1_545
Ni3 Y7 2.917691 1_555
Ni3 Y4 2.917691 1_655
Ni3 Y5 2.917691 1_555
Ni3 Y6 2.917691 1_655
Ni3 Y0 3.402481 1_555
Ni3 Y2 3.402488 1_655
Os0 Y2 2.840016 1_554
Os0 Y3 2.840016 1_445
Os0 Y0 2.840023 1_555
Os0 Y1 2.840023 1_444
Os0 Y7 3.151173 1_455
Os0 Y6 3.151173 1_544
Os0 Y4 3.151173 1_555
Os0 Y5 3.151173 1_444
