# generated using pymatgen
data_K2V(Si2O5)3
_symmetry_space_group_name_H-M   'P 1'
_cell_length_a   6.93620399
_cell_length_b   7.23615331
_cell_length_c   7.43212804
_cell_angle_alpha   100.13553468
_cell_angle_beta   104.98321437
_cell_angle_gamma   113.12661582
_symmetry_Int_Tables_number   1
_chemical_formula_structural   K2V(Si2O5)3
_chemical_formula_sum   'K2 V1 Si6 O15'
_cell_volume   314.80402090
_cell_formula_units_Z   1
loop_
 _symmetry_equiv_pos_site_id
 _symmetry_equiv_pos_as_xyz
  1  'x, y, z'
loop_
 _atom_site_type_symbol
 _atom_site_label
 _atom_site_symmetry_multiplicity
 _atom_site_fract_x
 _atom_site_fract_y
 _atom_site_fract_z
 _atom_site_occupancy
  K  K0  1  0.28839524  0.72138889  0.82451578  1
  K  K1  1  0.71160476  0.27861111  0.17548422  1
  V  V0  1  0.00000000  0.00000000  0.00000000  1
  Si  Si0  1  0.69677775  0.80710152  0.25450672  1
  Si  Si1  1  0.30322225  0.19289848  0.74549328  1
  Si  Si2  1  0.14695868  0.83075214  0.36441075  1
  Si  Si3  1  0.85304132  0.16924786  0.63558925  1
  Si  Si4  1  0.31491355  0.49330466  0.31224662  1
  Si  Si5  1  0.68508645  0.50669534  0.68775338  1
  O  O0  1  0.44866165  0.60152788  0.17689776  1
  O  O1  1  0.55133835  0.39847212  0.82310224  1
  O  O2  1  0.20391279  0.63622139  0.38947213  1
  O  O3  1  0.79608721  0.36377861  0.61052787  1
  O  O4  1  0.88091493  0.74008835  0.80757356  1
  O  O5  1  0.11908507  0.25991165  0.19242644  1
  O  O6  1  0.88318307  0.73312917  0.34873034  1
  O  O7  1  0.11681693  0.26687083  0.65126966  1
  O  O8  1  0.73512927  0.89540926  0.07806639  1
  O  O9  1  0.50000000  0.50000000  0.50000000  1
  O  O10  1  0.30091189  0.01671253  0.57392307  1
  O  O11  1  0.69908811  0.98328747  0.42607693  1
  O  O12  1  0.82596470  0.09788265  0.82158861  1
  O  O13  1  0.17403530  0.90211735  0.17841139  1
  O  O14  1  0.26487073  0.10459074  0.92193361  1
loop_
_geom_bond_atom_site_label_1
_geom_bond_atom_site_label_2
_geom_bond_distance
_geom_bond_site_symmetry_2
K0 O8 2.796210 1_556
K0 O14 2.819531 1_565
K0 O4 2.853929 1_455
K0 O7 2.921296 1_555
K0 O0 2.983014 1_556
K0 O2 3.035249 1_555
K0 O10 3.062951 1_565
K0 O3 3.112607 1_455
K0 O13 3.152851 1_556
K1 O14 2.796210 1_554
K1 O8 2.819531 1_545
K1 O5 2.853929 1_655
K1 O6 2.921296 1_555
K1 O1 2.983014 1_554
K1 O3 3.035249 1_555
K1 O11 3.062951 1_545
K1 O2 3.112607 1_655
K1 O12 3.152851 1_554
O0 Si4 1.635515 1_555
O0 Si0 1.637392 1_555
O1 Si5 1.635515 1_555
O1 Si1 1.637392 1_555
O2 Si4 1.623808 1_555
O2 Si2 1.631962 1_555
O3 Si5 1.623808 1_555
O3 Si3 1.631962 1_555
O4 Si5 1.591701 1_555
O4 V0 1.867357 1_666
O5 Si4 1.591701 1_555
O5 V0 1.867357 1_555
O6 Si0 1.629733 1_555
O6 Si2 1.644858 1_655
O7 Si1 1.629733 1_555
O7 Si3 1.644858 1_455
O8 Si0 1.593875 1_555
O8 V0 1.974386 1_665
O9 Si5 1.612048 1_555
O9 Si4 1.612048 1_555
O10 Si2 1.627786 1_545
O10 Si1 1.628751 1_555
O11 Si3 1.627786 1_565
O11 Si0 1.628751 1_555
O12 Si3 1.588146 1_555
O12 V0 1.972721 1_656
O13 Si2 1.588146 1_555
O13 V0 1.972721 1_565
O14 Si1 1.593875 1_555
O14 V0 1.974386 1_556
