# generated using pymatgen
data_Ca(NO3)2
_symmetry_space_group_name_H-M   'P 1'
_cell_length_a   7.51127816
_cell_length_b   7.51127816
_cell_length_c   7.51127816
_cell_angle_alpha   90.00000000
_cell_angle_beta   90.00000000
_cell_angle_gamma   90.00000000
_symmetry_Int_Tables_number   1
_chemical_formula_structural   Ca(NO3)2
_chemical_formula_sum   'Ca4 N8 O24'
_cell_volume   423.78105286
_cell_formula_units_Z   4
loop_
 _symmetry_equiv_pos_site_id
 _symmetry_equiv_pos_as_xyz
  1  'x, y, z'
loop_
 _atom_site_type_symbol
 _atom_site_label
 _atom_site_symmetry_multiplicity
 _atom_site_fract_x
 _atom_site_fract_y
 _atom_site_fract_z
 _atom_site_occupancy
  Ca  Ca0  1  -0.00000000  0.50000000  0.50000000  1
  Ca  Ca1  1  0.50000000  0.50000000  0.00000000  1
  Ca  Ca2  1  0.50000000  0.00000000  0.50000000  1
  Ca  Ca3  1  -0.00000000  0.00000000  0.00000000  1
  N  N0  1  0.33770292  0.33770292  0.33770292  1
  N  N1  1  0.33770292  0.16229708  0.83770292  1
  N  N2  1  0.16229708  0.83770292  0.33770292  1
  N  N3  1  0.83770292  0.33770292  0.16229708  1
  N  N4  1  0.66229708  0.66229708  0.66229708  1
  N  N5  1  0.16229708  0.66229708  0.83770292  1
  N  N6  1  0.83770292  0.16229708  0.66229708  1
  N  N7  1  0.66229708  0.83770292  0.16229708  1
  O  O0  1  0.75938098  0.27955833  0.02626214  1
  O  O1  1  0.22044167  0.97373786  0.25938098  1
  O  O2  1  0.24061902  0.77955833  0.47373786  1
  O  O3  1  0.25938098  0.22044167  0.97373786  1
  O  O4  1  0.25938098  0.27955833  0.47373786  1
  O  O5  1  0.47373786  0.25938098  0.27955833  1
  O  O6  1  0.27955833  0.47373786  0.25938098  1
  O  O7  1  0.22044167  0.52626214  0.75938098  1
  O  O8  1  0.97373786  0.24061902  0.72044167  1
  O  O9  1  0.72044167  0.97373786  0.24061902  1
  O  O10  1  0.02626214  0.74061902  0.77955833  1
  O  O11  1  0.52626214  0.75938098  0.22044167  1
  O  O12  1  0.77955833  0.02626214  0.74061902  1
  O  O13  1  0.75938098  0.22044167  0.52626214  1
  O  O14  1  0.74061902  0.77955833  0.02626214  1
  O  O15  1  0.24061902  0.72044167  0.97373786  1
  O  O16  1  0.74061902  0.72044167  0.52626214  1
  O  O17  1  0.52626214  0.74061902  0.72044167  1
  O  O18  1  0.72044167  0.52626214  0.74061902  1
  O  O19  1  0.77955833  0.47373786  0.24061902  1
  O  O20  1  0.02626214  0.75938098  0.27955833  1
  O  O21  1  0.27955833  0.02626214  0.75938098  1
  O  O22  1  0.97373786  0.25938098  0.22044167  1
  O  O23  1  0.47373786  0.24061902  0.77955833  1
loop_
_geom_bond_atom_site_label_1
_geom_bond_atom_site_label_2
_geom_bond_distance
_geom_bond_site_symmetry_2
Ca0 O4 2.564447 1_555
Ca0 O20 2.564447 1_555
Ca0 O16 2.564447 1_455
Ca0 O8 2.564447 1_455
Ca0 O7 2.564447 1_555
Ca0 O19 2.564447 1_455
Ca0 O2 2.777549 1_555
Ca0 O18 2.777549 1_455
Ca0 O22 2.777549 1_455
Ca0 O13 2.777549 1_455
Ca0 O10 2.777549 1_555
Ca0 O6 2.777549 1_555
Ca1 O6 2.564447 1_555
Ca1 O0 2.564447 1_555
Ca1 O11 2.564447 1_555
Ca1 O18 2.564447 1_554
Ca1 O23 2.564447 1_554
Ca1 O15 2.564447 1_554
Ca1 O14 2.777549 1_555
Ca1 O17 2.777549 1_554
Ca1 O5 2.777549 1_555
Ca1 O19 2.777549 1_555
Ca1 O7 2.777549 1_554
Ca1 O3 2.777549 1_554
Ca2 O21 2.564447 1_555
Ca2 O5 2.564447 1_555
Ca2 O9 2.564447 1_545
Ca2 O13 2.564447 1_555
Ca2 O2 2.564447 1_545
Ca2 O17 2.564447 1_545
Ca2 O16 2.777549 1_545
Ca2 O1 2.777549 1_545
Ca2 O11 2.777549 1_545
Ca2 O12 2.777549 1_555
Ca2 O23 2.777549 1_555
Ca2 O4 2.777549 1_555
Ca3 O22 2.564447 1_455
Ca3 O1 2.564447 1_545
Ca3 O3 2.564447 1_554
Ca3 O10 2.564447 1_544
Ca3 O14 2.564447 1_445
Ca3 O12 2.564447 1_454
Ca3 O21 2.777549 1_554
Ca3 O20 2.777549 1_545
Ca3 O0 2.777549 1_455
Ca3 O9 2.777549 1_445
Ca3 O15 2.777549 1_544
Ca3 O8 2.777549 1_454
N0 O4 1.257340 1_555
N0 O6 1.257340 1_555
N0 O5 1.257340 1_555
N1 O3 1.257340 1_555
N1 O23 1.257340 1_555
N1 O21 1.257340 1_555
N2 O1 1.257340 1_555
N2 O2 1.257340 1_555
N2 O20 1.257340 1_555
N3 O22 1.257340 1_555
N3 O19 1.257340 1_555
N3 O0 1.257340 1_555
N4 O16 1.257340 1_555
N4 O18 1.257340 1_555
N4 O17 1.257340 1_555
N5 O15 1.257340 1_555
N5 O7 1.257340 1_555
N5 O10 1.257340 1_555
N6 O13 1.257340 1_555
N6 O8 1.257340 1_555
N6 O12 1.257340 1_555
N7 O9 1.257340 1_555
N7 O11 1.257340 1_555
N7 O14 1.257340 1_555
