# generated using pymatgen
data_K3AgPb4
_symmetry_space_group_name_H-M   'P 1'
_cell_length_a   7.08066054
_cell_length_b   12.70779916
_cell_length_c   6.87934606
_cell_angle_alpha   90.00000000
_cell_angle_beta   90.00000000
_cell_angle_gamma   90.00000000
_symmetry_Int_Tables_number   1
_chemical_formula_structural   K3AgPb4
_chemical_formula_sum   'K6 Ag2 Pb8'
_cell_volume   619.00089019
_cell_formula_units_Z   2
loop_
 _symmetry_equiv_pos_site_id
 _symmetry_equiv_pos_as_xyz
  1  'x, y, z'
loop_
 _atom_site_type_symbol
 _atom_site_label
 _atom_site_symmetry_multiplicity
 _atom_site_fract_x
 _atom_site_fract_y
 _atom_site_fract_z
 _atom_site_occupancy
  K  K0  1  0.25000000  0.00147620  0.16703987  1
  K  K1  1  0.25000000  0.49852480  0.16703987  1
  K  K2  1  0.74999900  0.75000000  0.44128374  1
  K  K3  1  0.25000000  0.25000000  0.55871626  1
  K  K4  1  0.74999900  0.50147520  0.83296013  1
  K  K5  1  0.74999900  0.99852480  0.83296013  1
  Ag  Ag0  1  0.25000000  0.75000000  0.31015748  1
  Ag  Ag1  1  0.74999900  0.25000000  0.68984052  1
  Pb  Pb0  1  0.51821128  0.25000000  0.04519803  1
  Pb  Pb1  1  0.98178872  0.25000000  0.04519803  1
  Pb  Pb2  1  0.74999900  0.12108896  0.33894665  1
  Pb  Pb3  1  0.74999900  0.37891204  0.33894665  1
  Pb  Pb4  1  0.25000000  0.62108796  0.66105235  1
  Pb  Pb5  1  0.25000000  0.87891104  0.66105235  1
  Pb  Pb6  1  0.01821028  0.75000000  0.95480097  1
  Pb  Pb7  1  0.48178772  0.75000000  0.95480097  1
loop_
_geom_bond_atom_site_label_1
_geom_bond_atom_site_label_2
_geom_bond_distance
_geom_bond_site_symmetry_2
K0 Pb5 3.738395 1_545
K0 Pb0 3.779334 1_555
K0 Pb1 3.779334 1_455
K0 Pb5 3.813439 1_544
K0 Pb7 3.877875 1_544
K0 Pb6 3.877881 1_544
K0 Pb2 4.030247 1_555
K0 Pb2 4.030259 1_455
K0 K3 4.151431 1_555
K0 K5 4.221048 1_544
K0 K5 4.221060 1_444
K1 Pb4 3.738384 1_555
K1 Pb0 3.779344 1_555
K1 Pb1 3.779344 1_455
K1 Pb4 3.813429 1_554
K1 Pb7 3.877865 1_554
K1 Pb6 3.877871 1_554
K1 Pb3 4.030247 1_555
K1 Pb3 4.030259 1_455
K1 K3 4.151440 1_555
K1 K4 4.221048 1_554
K1 K4 4.221060 1_454
K2 Pb7 3.847976 1_554
K2 Pb6 3.847976 1_654
K2 Pb7 4.010778 1_555
K2 Pb6 4.010778 1_655
K2 K4 4.151440 1_555
K2 K5 4.151440 1_555
K3 Pb0 3.847970 1_556
K3 Pb1 3.847970 1_456
K3 Pb0 4.010784 1_555
K3 Pb1 4.010784 1_455
K4 Pb3 3.738390 1_555
K4 Pb7 3.779343 1_555
K4 Pb6 3.779343 1_655
K4 Pb3 3.813423 1_556
K4 Pb0 3.877862 1_556
K4 Pb1 3.877868 1_556
K4 Pb4 4.030249 1_555
K4 Pb4 4.030262 1_655
K5 Pb2 3.738396 1_565
K5 Pb7 3.779343 1_555
K5 Pb6 3.779343 1_655
K5 Pb2 3.813428 1_566
K5 Pb0 3.877862 1_566
K5 Pb1 3.877868 1_566
K5 Pb5 4.030254 1_555
K5 Pb5 4.030266 1_655
Ag0 Pb5 2.917304 1_555
Ag0 Pb4 2.917311 1_555
Ag0 Pb7 2.944442 1_554
Ag0 Pb6 2.944450 1_554
Ag0 K1 3.343923 1_555
Ag0 K0 3.343936 1_565
Ag0 K2 3.653438 1_555
Ag0 K2 3.653451 1_455
Ag1 Pb2 2.917299 1_555
Ag1 Pb3 2.917306 1_555
Ag1 Pb0 2.944448 1_556
Ag1 Pb1 2.944456 1_556
Ag1 K5 3.343928 1_545
Ag1 K4 3.343928 1_555
Ag1 K3 3.653434 1_555
Ag1 K3 3.653448 1_655
Pb0 Pb2 3.075844 1_555
Pb0 Pb3 3.075851 1_555
Pb1 Pb2 3.075852 1_555
Pb1 Pb3 3.075858 1_555
Pb4 Pb7 3.075851 1_555
Pb4 Pb6 3.075858 1_555
Pb5 Pb7 3.075844 1_555
Pb5 Pb6 3.075852 1_555
