# generated using pymatgen
data_Rb2CaCdAs2
_symmetry_space_group_name_H-M   'P 1'
_cell_length_a   4.81124465
_cell_length_b   4.81124465
_cell_length_c   8.22827258
_cell_angle_alpha   90.00000000
_cell_angle_beta   90.00000000
_cell_angle_gamma   90.00000000
_symmetry_Int_Tables_number   1
_chemical_formula_structural   Rb2CaCdAs2
_chemical_formula_sum   'Rb2 Ca1 Cd1 As2'
_cell_volume   190.46867136
_cell_formula_units_Z   1
loop_
 _symmetry_equiv_pos_site_id
 _symmetry_equiv_pos_as_xyz
  1  'x, y, z'
loop_
 _atom_site_type_symbol
 _atom_site_label
 _atom_site_symmetry_multiplicity
 _atom_site_fract_x
 _atom_site_fract_y
 _atom_site_fract_z
 _atom_site_occupancy
  Rb  Rb0  1  0.00000000  0.50000000  0.35775690  1
  Rb  Rb1  1  0.50000000  0.00000000  0.64224310  1
  Ca  Ca0  1  0.00000000  0.00000000  0.00000000  1
  Cd  Cd0  1  0.50000000  0.50000000  0.00000000  1
  As  As0  1  0.50000000  0.00000000  0.19448180  1
  As  As1  1  0.00000000  0.50000000  0.80551820  1
loop_
_geom_bond_atom_site_label_1
_geom_bond_atom_site_label_2
_geom_bond_distance
_geom_bond_site_symmetry_2
Ca0 Cd0 3.402064 1_555
Ca0 Cd0 3.402064 1_445
Ca0 Cd0 3.402064 1_455
Ca0 Cd0 3.402064 1_545
Cd0 Rb0 3.801646 1_655
Cd0 Rb0 3.801646 1_555
Cd0 Rb1 3.801646 1_554
Cd0 Rb1 3.801646 1_564
As0 Ca0 2.889259 1_555
As0 Cd0 2.889259 1_545
As0 Ca0 2.889259 1_655
As0 Cd0 2.889259 1_555
As0 Rb0 3.657725 1_545
As0 Rb0 3.657725 1_655
As0 Rb0 3.657725 1_645
As0 Rb0 3.657725 1_555
As0 Rb1 3.684302 1_555
As1 Ca0 2.889259 1_566
As1 Ca0 2.889259 1_556
As1 Cd0 2.889259 1_556
As1 Cd0 2.889259 1_456
As1 Rb1 3.657725 1_565
As1 Rb1 3.657725 1_465
As1 Rb1 3.657725 1_455
As1 Rb1 3.657725 1_555
As1 Rb0 3.684302 1_555
