# generated using pymatgen
data_Li3Ni2IrO6
_symmetry_space_group_name_H-M   'P 1'
_cell_length_a   5.00590020
_cell_length_b   5.13316401
_cell_length_c   5.13316406
_cell_angle_alpha   119.97564779
_cell_angle_beta   99.89078004
_cell_angle_gamma   99.89078563
_symmetry_Int_Tables_number   1
_chemical_formula_structural   Li3Ni2IrO6
_chemical_formula_sum   'Li3 Ni2 Ir1 O6'
_cell_volume   107.31000702
_cell_formula_units_Z   1
loop_
 _symmetry_equiv_pos_site_id
 _symmetry_equiv_pos_as_xyz
  1  'x, y, z'
loop_
 _atom_site_type_symbol
 _atom_site_label
 _atom_site_symmetry_multiplicity
 _atom_site_fract_x
 _atom_site_fract_y
 _atom_site_fract_z
 _atom_site_occupancy
  Li  Li0  1  0.50000000  0.82875139  0.17124861  1
  Li  Li1  1  0.50000000  0.17124861  0.82875139  1
  Li  Li2  1  0.50000000  0.50000000  0.50000000  1
  Ni  Ni0  1  0.00000000  0.66671182  0.33328818  1
  Ni  Ni1  1  1.00000000  0.33328818  0.66671182  1
  Ir  Ir0  1  0.00000000  0.00000000  0.00000000  1
  O  O0  1  0.22867900  0.74863404  0.74863404  1
  O  O1  1  0.77132100  0.25136596  0.25136596  1
  O  O2  1  0.23096686  0.07698693  0.40570316  1
  O  O3  1  0.23096686  0.40570316  0.07698693  1
  O  O4  1  0.76903314  0.92301307  0.59429684  1
  O  O5  1  0.76903314  0.59429684  0.92301307  1
loop_
_geom_bond_atom_site_label_1
_geom_bond_atom_site_label_2
_geom_bond_distance
_geom_bond_site_symmetry_2
Li0 O3 2.117796 1_555
Li0 O4 2.117797 1_555
Li0 O5 2.121266 1_554
Li0 O2 2.121266 1_565
Li0 O1 2.150424 1_565
Li0 O0 2.150424 1_554
Li1 O5 2.117796 1_555
Li1 O2 2.117797 1_555
Li1 O3 2.121266 1_556
Li1 O4 2.121266 1_545
Li1 O0 2.150424 1_545
Li1 O1 2.150424 1_556
Li2 O4 2.117581 1_555
Li2 O2 2.117581 1_555
Li2 O5 2.117581 1_555
Li2 O3 2.117581 1_555
Li2 O1 2.160054 1_555
Li2 O0 2.160054 1_555
Ni0 O1 2.033008 1_455
Ni0 O0 2.033008 1_555
Ni0 O2 2.035637 1_565
Ni0 O5 2.035637 1_454
Ni0 O4 2.038653 1_455
Ni0 O3 2.038653 1_555
Ni1 O0 2.033008 1_655
Ni1 O1 2.033008 1_555
Ni1 O4 2.035637 1_545
Ni1 O3 2.035637 1_656
Ni1 O2 2.038653 1_655
Ni1 O5 2.038653 1_555
Ir0 O0 1.997852 1_544
Ir0 O1 1.997852 1_455
Ir0 O3 2.005841 1_555
Ir0 O5 2.005841 1_444
Ir0 O2 2.005841 1_555
Ir0 O4 2.005841 1_444
