# generated using pymatgen
data_Ta4SiB2Mo
_symmetry_space_group_name_H-M   'P 1'
_cell_length_a   7.22493084
_cell_length_b   7.22493103
_cell_length_c   7.22492981
_cell_angle_alpha   129.54875725
_cell_angle_beta   129.54876046
_cell_angle_gamma   74.12918887
_symmetry_Int_Tables_number   1
_chemical_formula_structural   Ta4SiB2Mo
_chemical_formula_sum   'Ta8 Si2 B4 Mo2'
_cell_volume   218.64232647
_cell_formula_units_Z   2
loop_
 _symmetry_equiv_pos_site_id
 _symmetry_equiv_pos_as_xyz
  1  'x, y, z'
loop_
 _atom_site_type_symbol
 _atom_site_label
 _atom_site_symmetry_multiplicity
 _atom_site_fract_x
 _atom_site_fract_y
 _atom_site_fract_z
 _atom_site_occupancy
  Ta  Ta0  1  0.80715620  0.97106886  0.50000000  1
  Ta  Ta1  1  0.30715620  0.80715620  0.83608734  1
  Ta  Ta2  1  0.19284380  0.02893114  0.50000000  1
  Ta  Ta3  1  0.52893114  0.69284380  0.50000000  1
  Ta  Ta4  1  0.02893114  0.52893114  0.83608734  1
  Ta  Ta5  1  0.69284380  0.19284380  0.16391266  1
  Ta  Ta6  1  0.97106886  0.47106886  0.16391266  1
  Ta  Ta7  1  0.47106886  0.30715620  0.50000000  1
  Si  Si0  1  0.75000000  0.75000000  0.00000000  1
  Si  Si1  1  0.25000000  0.25000000  0.00000000  1
  B  B0  1  0.38241105  0.88241105  0.26482211  1
  B  B1  1  0.88241105  0.61758895  0.50000000  1
  B  B2  1  0.61758895  0.11758895  0.73517789  1
  B  B3  1  0.11758895  0.38241105  0.50000000  1
  Mo  Mo0  1  0.00000000  0.00000000  0.00000000  1
  Mo  Mo1  1  0.50000000  0.50000000  0.00000000  1
loop_
_geom_bond_atom_site_label_1
_geom_bond_atom_site_label_2
_geom_bond_distance
_geom_bond_site_symmetry_2
Si0 Ta3 2.623889 1_554
Si0 Ta0 2.623889 1_555
Si0 Ta2 2.623889 1_665
Si0 Ta7 2.623889 1_554
Si0 Ta6 2.623889 1_555
Si0 Ta4 2.623889 1_654
Si0 Ta1 2.623889 1_554
Si0 Ta5 2.623889 1_565
Si1 Ta7 2.623889 1_555
Si1 Ta2 2.623889 1_554
Si1 Ta0 2.623889 1_444
Si1 Ta3 2.623889 1_555
Si1 Ta4 2.623889 1_554
Si1 Ta6 2.623889 1_455
Si1 Ta5 2.623889 1_555
Si1 Ta1 2.623889 1_544
B0 B2 2.048199 1_565
B0 Ta3 2.400736 1_555
B0 Ta2 2.400736 1_565
B0 Ta0 2.400736 1_555
B0 Ta7 2.400737 1_565
B0 Ta1 2.461382 1_554
B0 Ta4 2.461382 1_554
B0 Mo0 2.463822 1_565
B0 Mo1 2.463822 1_555
B1 B3 2.048199 1_655
B1 Ta4 2.400736 1_655
B1 Ta6 2.400736 1_555
B1 Ta1 2.400736 1_655
B1 Ta5 2.400737 1_555
B1 Ta3 2.461382 1_555
B1 Ta0 2.461382 1_555
B1 Mo1 2.463822 1_555
B1 Mo0 2.463822 1_666
B2 Ta7 2.400736 1_555
B2 Ta0 2.400736 1_545
B2 Ta2 2.400736 1_555
B2 Ta3 2.400737 1_545
B2 Ta5 2.461382 1_556
B2 Ta6 2.461382 1_556
B2 Mo0 2.463822 1_656
B2 Mo1 2.463822 1_556
B3 Ta6 2.400736 1_455
B3 Ta4 2.400736 1_555
B3 Ta5 2.400736 1_455
B3 Ta1 2.400737 1_555
B3 Ta7 2.461382 1_555
B3 Ta2 2.461382 1_555
B3 Mo1 2.463822 1_556
B3 Mo0 2.463822 1_555
Mo0 Ta0 2.796948 1_444
Mo0 Ta2 2.796948 1_555
Mo0 Ta7 2.796948 1_555
Mo0 Ta3 2.796948 1_444
Mo0 Ta1 2.796948 1_544
Mo0 Ta5 2.796948 1_455
Mo0 Ta4 2.796948 1_544
Mo0 Ta6 2.796948 1_455
Mo0 Si1 2.882590 1_555
Mo0 Si0 2.882590 1_445
Mo1 Ta3 2.796948 1_555
Mo1 Ta7 2.796948 1_554
Mo1 Ta0 2.796948 1_555
Mo1 Ta2 2.796948 1_554
Mo1 Ta5 2.796948 1_555
Mo1 Ta1 2.796948 1_554
Mo1 Ta4 2.796948 1_554
Mo1 Ta6 2.796948 1_555
Mo1 Si1 2.882590 1_555
Mo1 Si0 2.882590 1_555
