# generated using pymatgen
data_Hf3Si3MoRu2
_symmetry_space_group_name_H-M   'P 1'
_cell_length_a   7.64828609
_cell_length_b   7.64828580
_cell_length_c   7.64828641
_cell_angle_alpha   126.43065736
_cell_angle_beta   125.65802709
_cell_angle_gamma   79.81683066
_symmetry_Int_Tables_number   1
_chemical_formula_structural   Hf3Si3MoRu2
_chemical_formula_sum   'Hf6 Si6 Mo2 Ru4'
_cell_volume   282.48635285
_cell_formula_units_Z   2
loop_
 _symmetry_equiv_pos_site_id
 _symmetry_equiv_pos_as_xyz
  1  'x, y, z'
loop_
 _atom_site_type_symbol
 _atom_site_label
 _atom_site_symmetry_multiplicity
 _atom_site_fract_x
 _atom_site_fract_y
 _atom_site_fract_z
 _atom_site_occupancy
  Hf  Hf0  1  0.45721221  0.67501368  0.71780146  1
  Hf  Hf1  1  0.54278779  0.26058925  0.21780146  1
  Hf  Hf2  1  0.74722649  0.84020619  0.59297969  1
  Hf  Hf3  1  0.25277351  0.84575220  0.09297969  1
  Hf  Hf4  1  0.05345789  0.25970496  0.70624607  1
  Hf  Hf5  1  0.94654211  0.65278819  0.20624607  1
  Si  Si0  1  0.26375324  0.25715738  0.49340414  1
  Si  Si1  1  0.73624676  0.22964889  0.99340414  1
  Si  Si2  1  0.32734085  0.58813490  0.25272880  1
  Si  Si3  1  0.67265915  0.92538795  0.26079405  1
  Si  Si4  1  0.16459390  0.92538795  0.75272880  1
  Si  Si5  1  0.83540610  0.58813490  0.76079405  1
  Mo  Mo0  1  0.50000000  0.50295952  0.00295952  1
  Mo  Mo1  1  0.00000000  0.50295952  0.50295952  1
  Ru  Ru0  1  0.10655351  0.25241991  0.10702187  1
  Ru  Ru1  1  0.89344649  0.00046835  0.14586740  1
  Ru  Ru2  1  0.35460096  0.00046835  0.60702187  1
  Ru  Ru3  1  0.64539904  0.25241991  0.64586740  1
loop_
_geom_bond_atom_site_label_1
_geom_bond_atom_site_label_2
_geom_bond_distance
_geom_bond_site_symmetry_2
Hf0 Si4 2.705772 1_555
Hf0 Si3 2.705772 1_556
Hf0 Si5 2.717976 1_555
Hf0 Si2 2.717977 1_555
Hf0 Si0 2.746886 1_555
Hf0 Ru2 2.927223 1_565
Hf0 Ru1 2.927223 1_566
Hf0 Mo1 3.003272 1_555
Hf0 Mo0 3.003272 1_556
Hf0 Ru0 3.160251 1_555
Hf0 Ru3 3.160255 1_555
Hf1 Si2 2.705772 1_555
Hf1 Si5 2.705772 1_555
Hf1 Si3 2.717976 1_545
Hf1 Si4 2.717976 1_544
Hf1 Si1 2.746880 1_554
Hf1 Ru0 2.927223 1_555
Hf1 Ru3 2.927228 1_555
Hf1 Mo1 3.003272 1_655
Hf1 Mo0 3.003272 1_555
Hf1 Ru1 3.160248 1_555
Hf1 Ru2 3.160248 1_554
Hf2 Si2 2.699815 1_555
Hf2 Si5 2.699815 1_555
Hf2 Si4 2.711051 1_655
Hf2 Si3 2.711051 1_555
Hf2 Si1 2.763215 1_565
Hf2 Mo1 2.923036 1_655
Hf2 Mo0 2.923036 1_555
Hf2 Ru3 2.948610 1_565
Hf2 Ru0 2.948614 1_666
Hf2 Ru2 3.074021 1_565
Hf2 Ru1 3.074022 1_566
Hf3 Si3 2.699816 1_555
Hf3 Si4 2.699820 1_554
Hf3 Si2 2.711043 1_555
Hf3 Si5 2.711048 1_454
Hf3 Si0 2.763226 1_565
Hf3 Mo0 2.923031 1_555
Hf3 Mo1 2.923036 1_554
Hf3 Ru2 2.948615 1_565
Hf3 Ru1 2.948618 1_465
Hf3 Ru0 3.074021 1_565
Hf3 Ru3 3.074021 1_565
Hf4 Si3 2.710297 1_445
Hf4 Si4 2.710301 1_545
Hf4 Si5 2.711159 1_455
Hf4 Si2 2.711163 1_556
Hf4 Si0 2.870746 1_555
Hf4 Ru3 2.882238 1_455
Hf4 Ru0 2.882246 1_556
Hf4 Ru1 2.906539 1_455
Hf4 Ru2 2.906543 1_555
Hf4 Mo1 2.910572 1_555
Hf4 Mo0 2.910576 1_556
Hf5 Si2 2.710294 1_655
Hf5 Si5 2.710294 1_554
Hf5 Si3 2.711164 1_555
Hf5 Si4 2.711164 1_655
Hf5 Si1 2.870762 1_554
Hf5 Ru1 2.882236 1_565
Hf5 Ru2 2.882236 1_665
Hf5 Ru3 2.906543 1_554
Hf5 Ru0 2.906546 1_655
Hf5 Mo0 2.910579 1_555
Hf5 Mo1 2.910579 1_655
Mo0 Si0 2.505334 1_554
Mo0 Si1 2.505345 1_554
Mo0 Si3 2.641289 1_555
Mo0 Si2 2.641289 1_555
Mo1 Si0 2.505334 1_555
Mo1 Si1 2.505335 1_454
Mo1 Si4 2.641289 1_555
Mo1 Si5 2.641289 1_455
Ru0 Si0 2.434263 1_555
Ru0 Si1 2.435595 1_454
Ru0 Si2 2.574263 1_555
Ru0 Si4 2.599206 1_544
Ru1 Si1 2.434254 1_554
Ru1 Si0 2.435595 1_655
Ru1 Si3 2.574256 1_545
Ru1 Si5 2.599208 1_544
Ru2 Si1 2.434265 1_555
Ru2 Si0 2.435595 1_555
Ru2 Si4 2.574256 1_545
Ru2 Si2 2.599208 1_545
Ru3 Si0 2.434269 1_555
Ru3 Si1 2.435600 1_555
Ru3 Si5 2.574263 1_555
Ru3 Si3 2.599206 1_545
