# generated using pymatgen
data_Ba2LuBrO3
_symmetry_space_group_name_H-M   'P 1'
_cell_length_a   4.33453598
_cell_length_b   4.33453598
_cell_length_c   15.46288075
_cell_angle_alpha   90.00000000
_cell_angle_beta   90.00000000
_cell_angle_gamma   90.00000000
_symmetry_Int_Tables_number   1
_chemical_formula_structural   Ba2LuBrO3
_chemical_formula_sum   'Ba4 Lu2 Br2 O6'
_cell_volume   290.51973000
_cell_formula_units_Z   2
loop_
 _symmetry_equiv_pos_site_id
 _symmetry_equiv_pos_as_xyz
  1  'x, y, z'
loop_
 _atom_site_type_symbol
 _atom_site_label
 _atom_site_symmetry_multiplicity
 _atom_site_fract_x
 _atom_site_fract_y
 _atom_site_fract_z
 _atom_site_occupancy
  Ba  Ba0  1  0.00000000  0.50000000  0.66090127  1
  Ba  Ba1  1  0.50000000  0.00000000  0.33909873  1
  Ba  Ba2  1  0.50000000  0.00000000  0.09224368  1
  Ba  Ba3  1  0.00000000  0.50000000  0.90775632  1
  Lu  Lu0  1  0.00000000  0.50000000  0.20847687  1
  Lu  Lu1  1  0.50000000  0.00000000  0.79152313  1
  Br  Br0  1  0.50000000  0.00000000  0.57820797  1
  Br  Br1  1  0.00000000  0.50000000  0.42179203  1
  O  O0  1  0.00000000  0.00000000  0.77110240  1
  O  O1  1  0.50000000  0.50000000  0.77110240  1
  O  O2  1  0.00000000  0.00000000  0.22889760  1
  O  O3  1  0.50000000  0.00000000  0.92490709  1
  O  O4  1  0.50000000  0.50000000  0.22889760  1
  O  O5  1  0.00000000  0.50000000  0.07509291  1
loop_
_geom_bond_atom_site_label_1
_geom_bond_atom_site_label_2
_geom_bond_distance
_geom_bond_site_symmetry_2
Ba0 O1 2.756947 1_555
Ba0 O0 2.756947 1_565
Ba0 O1 2.756947 1_455
Ba0 O0 2.756947 1_555
Ba0 Br0 3.321011 1_465
Ba0 Br0 3.321011 1_565
Ba0 Br0 3.321011 1_455
Ba0 Br0 3.321011 1_555
Ba0 Br1 3.697318 1_555
Ba1 O2 2.756947 1_555
Ba1 O4 2.756947 1_545
Ba1 O2 2.756947 1_655
Ba1 O4 2.756947 1_555
Ba1 Br1 3.321011 1_555
Ba1 Br1 3.321011 1_655
Ba1 Br1 3.321011 1_645
Ba1 Br1 3.321011 1_545
Ba1 Br0 3.697318 1_555
Ba2 O3 2.587506 1_554
Ba2 O2 3.026894 1_555
Ba2 O4 3.026894 1_545
Ba2 O2 3.026894 1_655
Ba2 O4 3.026894 1_555
Ba2 O5 3.076432 1_545
Ba2 O5 3.076432 1_645
Ba2 O5 3.076432 1_655
Ba2 O5 3.076432 1_555
Ba3 O5 2.587506 1_556
Ba3 O0 3.026894 1_555
Ba3 O1 3.026894 1_455
Ba3 O1 3.026894 1_555
Ba3 O0 3.026894 1_565
Ba3 O3 3.076432 1_555
Ba3 O3 3.076432 1_565
Ba3 O3 3.076432 1_465
Ba3 O3 3.076432 1_455
Lu0 O5 2.062500 1_555
Lu0 O2 2.190150 1_565
Lu0 O4 2.190150 1_555
Lu0 O2 2.190150 1_555
Lu0 O4 2.190150 1_455
Lu1 O3 2.062500 1_555
Lu1 O0 2.190150 1_655
Lu1 O1 2.190150 1_555
Lu1 O1 2.190150 1_545
Lu1 O0 2.190150 1_555
Br0 Lu1 3.298467 1_555
Br1 Lu0 3.298467 1_555
