# generated using pymatgen
data_Cd3GeP7N12
_symmetry_space_group_name_H-M   'P 1'
_cell_length_a   7.29749846
_cell_length_b   7.32631218
_cell_length_c   7.32631226
_cell_angle_alpha   109.55074845
_cell_angle_beta   109.39157232
_cell_angle_gamma   109.39157883
_symmetry_Int_Tables_number   1
_chemical_formula_structural   Cd3GeP7N12
_chemical_formula_sum   'Cd3 Ge1 P7 N12'
_cell_volume   301.82061582
_cell_formula_units_Z   1
loop_
 _symmetry_equiv_pos_site_id
 _symmetry_equiv_pos_as_xyz
  1  'x, y, z'
loop_
 _atom_site_type_symbol
 _atom_site_label
 _atom_site_symmetry_multiplicity
 _atom_site_fract_x
 _atom_site_fract_y
 _atom_site_fract_z
 _atom_site_occupancy
  Cd  Cd0  1  0.00108882  0.00000000  0.67836206  1
  Cd  Cd1  1  0.00108882  0.67836206  1.00000000  1
  Cd  Cd2  1  0.32272676  0.32163794  0.32163794  1
  Ge  Ge0  1  0.63802571  1.00000000  1.00000000  1
  P  P0  1  0.25267465  0.74793978  0.50018575  1
  P  P1  1  0.75248891  0.24775404  0.49981425  1
  P  P2  1  0.75248891  0.49981425  0.24775404  1
  P  P3  1  0.25267465  0.50018575  0.74793978  1
  P  P4  1  0.50473387  0.75224596  0.25206022  1
  P  P5  1  0.50473387  0.25206022  0.75224596  1
  P  P6  1  0.97476984  0.00000000  0.00000000  1
  N  N0  1  0.70540258  0.27689277  0.27689277  1
  N  N1  1  0.29121870  0.71802175  0.28905999  1
  N  N2  1  0.30262516  0.58046959  0.58046959  1
  N  N3  1  0.57319595  0.57103724  0.28197825  1
  N  N4  1  0.42850981  0.72310723  1.00000000  1
  N  N5  1  0.00215871  0.71094001  0.42896276  1
  N  N6  1  0.57319595  0.28197825  0.57103724  1
  N  N7  1  0.72215557  1.00000000  0.41953041  1
  N  N8  1  0.42850981  1.00000000  0.72310723  1
  N  N9  1  0.72215557  0.41953041  1.00000000  1
  N  N10  1  0.29121870  0.28905999  0.71802175  1
  N  N11  1  0.00215871  0.42896276  0.71094001  1
loop_
_geom_bond_atom_site_label_1
_geom_bond_atom_site_label_2
_geom_bond_distance
_geom_bond_site_symmetry_2
Cd0 N7 2.275094 1_445
Cd0 N5 2.292191 1_545
Cd0 N10 2.292195 1_555
Cd0 P6 2.426960 1_456
Cd1 N9 2.275094 1_455
Cd1 N11 2.292191 1_555
Cd1 N1 2.292195 1_556
Cd1 P6 2.426960 1_466
Cd2 N2 2.275094 1_555
Cd2 N3 2.292186 1_555
Cd2 N6 2.292186 1_555
Cd2 P6 2.426960 1_455
Ge0 N4 2.096015 1_555
Ge0 N8 2.096016 1_555
Ge0 N0 2.096016 1_566
Ge0 P6 2.457390 1_566
N0 P2 1.655405 1_555
N0 P1 1.655405 1_555
N1 P0 1.619445 1_555
N1 P4 1.621924 1_555
N2 P3 1.619204 1_555
N2 P0 1.619204 1_555
N3 P4 1.619452 1_555
N3 P2 1.621934 1_555
N4 P3 1.655405 1_555
N4 P4 1.655406 1_556
N5 P2 1.619445 1_455
N5 P0 1.621932 1_555
N6 P5 1.619452 1_555
N6 P1 1.621934 1_555
N7 P1 1.619204 1_565
N7 P4 1.619207 1_555
N8 P0 1.655405 1_555
N8 P5 1.655406 1_565
N9 P2 1.619204 1_556
N9 P5 1.619207 1_555
N10 P3 1.619445 1_555
N10 P5 1.621924 1_555
N11 P1 1.619445 1_455
N11 P3 1.621932 1_555
