# generated using pymatgen
data_Cs12MnP3S16
_symmetry_space_group_name_H-M   'P 1'
_cell_length_a   9.70308791
_cell_length_b   11.71748488
_cell_length_c   9.61734023
_cell_angle_alpha   90.00000000
_cell_angle_beta   89.98660789
_cell_angle_gamma   90.00000000
_symmetry_Int_Tables_number   1
_chemical_formula_structural   Cs12MnP3S16
_chemical_formula_sum   'Cs12 Mn1 P3 S16'
_cell_volume   1093.45102522
_cell_formula_units_Z   1
loop_
 _symmetry_equiv_pos_site_id
 _symmetry_equiv_pos_as_xyz
  1  'x, y, z'
loop_
 _atom_site_type_symbol
 _atom_site_label
 _atom_site_symmetry_multiplicity
 _atom_site_fract_x
 _atom_site_fract_y
 _atom_site_fract_z
 _atom_site_occupancy
  Cs  Cs0  1  0.15994382  0.75000000  0.08950717  1
  Cs  Cs1  1  0.53506181  0.03943919  0.20968008  1
  Cs  Cs2  1  0.53506181  0.46056081  0.20968008  1
  Cs  Cs3  1  0.03577554  0.03965509  0.29048988  1
  Cs  Cs4  1  0.03577554  0.46034491  0.29048988  1
  Cs  Cs5  1  0.66205466  0.75000000  0.40764556  1
  Cs  Cs6  1  0.33862326  0.25000000  0.59578424  1
  Cs  Cs7  1  0.96381810  0.54087187  0.70754621  1
  Cs  Cs8  1  0.96381810  0.95912813  0.70754621  1
  Cs  Cs9  1  0.46475078  0.53883927  0.79199428  1
  Cs  Cs10  1  0.46475078  0.96116073  0.79199428  1
  Cs  Cs11  1  0.84165431  0.25000000  0.90705542  1
  Mn  Mn0  1  0.27533317  0.25000000  0.01868768  1
  P  P0  1  0.77518556  0.25000000  0.48109160  1
  P  P1  1  0.22548774  0.75000000  0.51796700  1
  P  P2  1  0.72319353  0.75000000  0.98173595  1
  S  S0  1  0.82293881  0.60602195  0.04790510  1
  S  S1  1  0.82293881  0.89397805  0.04790510  1
  S  S2  1  0.52680513  0.75000000  0.06149601  1
  S  S3  1  0.28275283  0.25000000  0.23722626  1
  S  S4  1  0.78199810  0.25000000  0.26832784  1
  S  S5  1  0.02908584  0.75000000  0.43791719  1
  S  S6  1  0.32511131  0.60590987  0.45189344  1
  S  S7  1  0.32511131  0.89409013  0.45189344  1
  S  S8  1  0.67570713  0.10605197  0.54775758  1
  S  S9  1  0.67570713  0.39394803  0.54775758  1
  S  S10  1  0.97215095  0.25000000  0.55974993  1
  S  S11  1  0.21803852  0.75000000  0.73057690  1
  S  S12  1  0.71570092  0.75000000  0.76901401  1
  S  S13  1  0.47799739  0.25000000  0.93922190  1
  S  S14  1  0.17383265  0.10102330  0.95122961  1
  S  S15  1  0.17383265  0.39897670  0.95122961  1
loop_
_geom_bond_atom_site_label_1
_geom_bond_atom_site_label_2
_geom_bond_distance
_geom_bond_site_symmetry_2
Cs0 S11 3.497547 1_554
Cs0 S2 3.569804 1_555
Cs0 S5 3.583005 1_555
Cs0 S1 3.701310 1_455
Cs0 S0 3.701310 1_455
Cs1 S4 3.485267 1_555
Cs1 S3 3.485790 1_555
Cs1 S7 3.531968 1_545
Cs1 S8 3.611833 1_555
Cs1 S1 3.623015 1_545
Cs1 S13 3.627700 1_554
Cs1 S2 3.679640 1_545
Cs2 S4 3.485267 1_555
Cs2 S3 3.485790 1_555
Cs2 S6 3.531968 1_555
Cs2 S9 3.611833 1_555
Cs2 S0 3.623015 1_555
Cs2 S13 3.627700 1_554
Cs2 S2 3.679640 1_555
Cs3 S3 3.475569 1_555
Cs3 S4 3.490562 1_455
Cs3 S1 3.553016 1_445
Cs3 S14 3.599341 1_554
Cs3 S10 3.627815 1_455
Cs3 S7 3.633542 1_545
Cs3 S5 3.678849 1_545
Cs4 S3 3.475569 1_555
Cs4 S4 3.490562 1_455
Cs4 S0 3.553016 1_455
Cs4 S15 3.599341 1_554
Cs4 S10 3.627815 1_455
Cs4 S6 3.633542 1_555
Cs4 S5 3.678849 1_555
Cs5 S12 3.514289 1_555
Cs5 S5 3.573284 1_655
Cs5 S2 3.578654 1_555
Cs5 S6 3.704047 1_555
Cs5 S7 3.704047 1_555
Cs6 S3 3.490852 1_555
Cs6 S13 3.569382 1_555
Cs6 S10 3.572841 1_455
Cs6 S9 3.708835 1_555
Cs6 S8 3.708835 1_555
Cs7 S11 3.484074 1_655
Cs7 S12 3.485628 1_555
Cs7 S15 3.523015 1_655
Cs7 S5 3.623434 1_655
Cs7 S9 3.625273 1_555
Cs7 S0 3.628233 1_556
Cs7 S10 3.693684 1_555
Cs8 S11 3.484074 1_655
Cs8 S12 3.485628 1_555
Cs8 S14 3.523015 1_665
Cs8 S5 3.623434 1_655
Cs8 S8 3.625273 1_565
Cs8 S1 3.628233 1_556
Cs8 S10 3.693684 1_565
Cs9 S12 3.478477 1_555
Cs9 S11 3.493164 1_555
Cs9 S9 3.547876 1_555
Cs9 S15 3.605168 1_555
Cs9 S6 3.626860 1_555
Cs9 S2 3.633620 1_556
Cs9 S13 3.670984 1_555
Cs10 S12 3.478477 1_555
Cs10 S11 3.493164 1_555
Cs10 S8 3.547876 1_565
Cs10 S14 3.605168 1_565
Cs10 S7 3.626860 1_555
Cs10 S2 3.633620 1_556
Cs10 S13 3.670984 1_565
Cs11 S4 3.522235 1_556
Cs11 S13 3.542058 1_555
Cs11 S10 3.571830 1_555
Cs11 S15 3.690134 1_655
Cs11 S14 3.690134 1_655
Mn0 S3 2.103009 1_555
Mn0 S15 2.106750 1_554
Mn0 S14 2.106750 1_554
Mn0 S13 2.109591 1_554
P0 S9 2.046332 1_555
P0 S8 2.046332 1_555
P0 S4 2.047273 1_555
P0 S10 2.055608 1_555
P1 S11 2.046002 1_555
P1 S6 2.046593 1_555
P1 S7 2.046593 1_555
P1 S5 2.055503 1_555
P2 S1 2.046494 1_556
P2 S0 2.046494 1_556
P2 S12 2.047128 1_555
P2 S2 2.054006 1_556
