# generated using pymatgen
data_K11Rb(InTe3)4
_symmetry_space_group_name_H-M   'P 1'
_cell_length_a   8.56712429
_cell_length_b   8.78843044
_cell_length_c   17.71515379
_cell_angle_alpha   61.93118189
_cell_angle_beta   90.09853998
_cell_angle_gamma   89.78389292
_symmetry_Int_Tables_number   1
_chemical_formula_structural   K11Rb(InTe3)4
_chemical_formula_sum   'K11 Rb1 In4 Te12'
_cell_volume   1176.90656946
_cell_formula_units_Z   1
loop_
 _symmetry_equiv_pos_site_id
 _symmetry_equiv_pos_as_xyz
  1  'x, y, z'
loop_
 _atom_site_type_symbol
 _atom_site_label
 _atom_site_symmetry_multiplicity
 _atom_site_fract_x
 _atom_site_fract_y
 _atom_site_fract_z
 _atom_site_occupancy
  K  K0  1  0.53373067  0.06194554  0.21804621  1
  K  K1  1  0.96891298  0.05905806  0.71957502  1
  K  K2  1  0.46863656  0.93947636  0.78151626  1
  K  K3  1  0.99379528  0.72120345  0.10547032  1
  K  K4  1  0.49033028  0.28063289  0.39522848  1
  K  K5  1  0.00630058  0.28482782  0.89307592  1
  K  K6  1  0.50468736  0.71348305  0.60714045  1
  K  K7  1  0.99261515  0.31076882  0.40431768  1
  K  K8  1  0.49473265  0.68995003  0.09402490  1
  K  K9  1  0.00541140  0.68448558  0.59780011  1
  K  K10  1  0.50721401  0.31569874  0.90226333  1
  Rb  Rb0  1  0.03175958  0.94215289  0.27855366  1
  In  In0  1  0.63863335  0.66352337  0.41748722  1
  In  In1  1  0.14473493  0.33844144  0.08159426  1
  In  In2  1  0.36046452  0.32871436  0.58512225  1
  In  In3  1  0.85974967  0.66823802  0.91644274  1
  Te  Te0  1  0.80637424  0.35729256  0.06950882  1
  Te  Te1  1  0.30189268  0.63920940  0.43367258  1
  Te  Te2  1  0.19735155  0.64844409  0.92902883  1
  Te  Te3  1  0.69776567  0.35176836  0.56989666  1
  Te  Te4  1  0.24181333  0.35364125  0.22677433  1
  Te  Te5  1  0.73081598  0.64821325  0.27172665  1
  Te  Te6  1  0.76207291  0.65563165  0.77089057  1
  Te  Te7  1  0.26320128  0.34165649  0.73065434  1
  Te  Te8  1  0.74730918  0.95008616  0.42668957  1
  Te  Te9  1  0.25749284  0.05205789  0.07280069  1
  Te  Te10  1  0.24511970  0.04294673  0.57755255  1
  Te  Te11  1  0.74708066  0.95644976  0.92314758  1
loop_
_geom_bond_atom_site_label_1
_geom_bond_atom_site_label_2
_geom_bond_distance
_geom_bond_site_symmetry_2
K0 Te9 3.524168 1_555
K0 Te0 3.571636 1_555
K0 Te4 3.629894 1_555
K0 Te5 3.697341 1_545
K0 Te8 3.810471 1_545
K1 Te10 3.507508 1_655
K1 Te3 3.543896 1_555
K1 Te7 3.614901 1_655
K1 Te6 3.681950 1_545
K1 Te11 3.795603 1_545
K2 Te11 3.513145 1_555
K2 Te2 3.542340 1_555
K2 Te6 3.601964 1_555
K2 Te7 3.654167 1_565
K2 Te10 3.797411 1_565
K3 Te9 3.516205 1_665
K3 Te5 3.523876 1_555
K3 Te11 3.582373 1_554
K3 Te4 3.601032 1_655
K3 Te2 3.887313 1_654
K3 Te0 3.894240 1_555
K4 Te4 3.466409 1_555
K4 Te8 3.467042 1_545
K4 Te5 3.589116 1_555
K4 Te10 3.593888 1_555
K4 Te3 3.864381 1_555
K4 Te1 3.871170 1_555
K5 Te7 3.471328 1_555
K5 Te11 3.485658 1_445
K5 Te9 3.573059 1_556
K5 Te6 3.602454 1_455
K5 Te0 3.871898 1_456
K5 Te2 3.904847 1_555
K6 Te6 3.480997 1_555
K6 Te10 3.481771 1_565
K6 Te8 3.558552 1_555
K6 Te7 3.617173 1_555
K6 Te1 3.842628 1_555
K6 Te3 3.900606 1_555
K7 Te5 3.566354 1_555
K7 Te10 3.574751 1_655
K7 Te8 3.673199 1_545
K7 Te4 3.675064 1_655
K7 Te3 4.015945 1_555
K7 Te1 4.133786 1_655
K8 Te4 3.533540 1_555
K8 Te11 3.565311 1_554
K8 Te5 3.608480 1_555
K8 Te9 3.636241 1_565
K8 Te2 4.018970 1_554
K8 Te0 4.123578 1_555
K9 Te7 3.571167 1_555
K9 Te8 3.578525 1_455
K9 Te6 3.620346 1_455
K9 Te10 3.641207 1_565
K9 Te1 4.021222 1_555
K10 Te9 3.541861 1_556
K10 Te6 3.554194 1_555
K10 Te7 3.603631 1_555
K10 Te11 3.630029 1_545
Rb0 Te8 3.608745 1_455
Rb0 Te1 3.611388 1_555
Rb0 Te5 3.698419 1_455
Rb0 Te4 3.753769 1_565
Rb0 Te9 3.831931 1_565
In0 Te8 2.763958 1_555
In0 Te5 2.764520 1_555
In0 Te3 2.841914 1_555
In0 Te1 2.898336 1_555
In0 K0 3.724838 1_565
In0 K6 3.767639 1_555
In0 K4 3.791070 1_555
In1 Te4 2.764224 1_555
In1 Te9 2.764631 1_555
In1 Te2 2.830987 1_554
In1 Te0 2.904662 1_455
In1 Rb0 3.720479 1_545
In1 K5 3.775331 1_554
In1 K3 3.804570 1_455
In2 Te7 2.763444 1_555
In2 Te10 2.763520 1_555
In2 Te1 2.826936 1_555
In2 Te3 2.901696 1_555
In2 K2 3.664709 1_545
In2 K4 3.752320 1_555
In2 K6 3.792693 1_555
In3 Te6 2.761012 1_555
In3 Te11 2.761633 1_555
In3 Te0 2.840771 1_556
In3 Te2 2.898746 1_655
In3 K1 3.687478 1_565
In3 K3 3.769167 1_556
In3 K5 3.792651 1_655
