# generated using pymatgen
data_Ta3AlS6
_symmetry_space_group_name_H-M   'P 1'
_cell_length_a   5.76134951
_cell_length_b   5.76134926
_cell_length_c   12.09138458
_cell_angle_alpha   90.00000000
_cell_angle_beta   90.00000000
_cell_angle_gamma   120.00000145
_symmetry_Int_Tables_number   1
_chemical_formula_structural   Ta3AlS6
_chemical_formula_sum   'Ta6 Al2 S12'
_cell_volume   347.58024606
_cell_formula_units_Z   2
loop_
 _symmetry_equiv_pos_site_id
 _symmetry_equiv_pos_as_xyz
  1  'x, y, z'
loop_
 _atom_site_type_symbol
 _atom_site_label
 _atom_site_symmetry_multiplicity
 _atom_site_fract_x
 _atom_site_fract_y
 _atom_site_fract_z
 _atom_site_occupancy
  Ta  Ta0  1  0.00000000  0.00000000  0.50000000  1
  Ta  Ta1  1  0.00000000  0.00000000  0.00000000  1
  Ta  Ta2  1  0.33333300  0.66666700  0.99717789  1
  Ta  Ta3  1  0.66666700  0.33333300  0.00282211  1
  Ta  Ta4  1  0.66666700  0.33333300  0.49717789  1
  Ta  Ta5  1  0.33333300  0.66666700  0.50282211  1
  Al  Al0  1  0.33333300  0.66666700  0.25000000  1
  Al  Al1  1  0.66666700  0.33333300  0.75000000  1
  S  S0  1  0.33203630  0.33243830  0.36931056  1
  S  S1  1  0.66756170  0.99959900  0.36931056  1
  S  S2  1  0.00040100  0.66796370  0.36931056  1
  S  S3  1  0.33243830  0.33203630  0.63068944  1
  S  S4  1  0.99959900  0.66756170  0.63068944  1
  S  S5  1  0.66796370  0.00040100  0.63068944  1
  S  S6  1  0.66796370  0.66756170  0.86931056  1
  S  S7  1  0.33243830  0.00040100  0.86931056  1
  S  S8  1  0.99959900  0.33203630  0.86931056  1
  S  S9  1  0.66756170  0.66796370  0.13068944  1
  S  S10  1  0.00040100  0.33243830  0.13068944  1
  S  S11  1  0.33203630  0.99959900  0.13068944  1
loop_
_geom_bond_atom_site_label_1
_geom_bond_atom_site_label_2
_geom_bond_distance
_geom_bond_site_symmetry_2
Al0 S0 2.403085 1_555
Al0 S10 2.403085 1_555
Al0 S1 2.403085 1_555
Al0 S11 2.403085 1_555
Al0 S9 2.403085 1_555
Al0 S2 2.403085 1_555
Al1 S6 2.403085 1_555
Al1 S4 2.403085 1_555
Al1 S7 2.403085 1_555
Al1 S5 2.403085 1_555
Al1 S3 2.403085 1_555
Al1 S8 2.403085 1_555
S0 Ta4 2.469288 1_555
S0 Ta0 2.482136 1_555
S0 Ta5 2.509926 1_555
S1 Ta4 2.469279 1_565
S1 Ta0 2.482139 1_665
S1 Ta5 2.509926 1_555
S2 Ta4 2.469284 1_455
S2 Ta0 2.482134 1_565
S2 Ta5 2.509926 1_555
S3 Ta5 2.469288 1_555
S3 Ta0 2.482136 1_555
S3 Ta4 2.509926 1_555
S4 Ta5 2.469279 1_655
S4 Ta0 2.482139 1_665
S4 Ta4 2.509926 1_555
S5 Ta5 2.469284 1_545
S5 Ta0 2.482134 1_655
S5 Ta4 2.509926 1_555
S6 Ta2 2.469288 1_555
S6 Ta1 2.482136 1_666
S6 Ta3 2.509926 1_556
S7 Ta2 2.469279 1_545
S7 Ta1 2.482139 1_556
S7 Ta3 2.509926 1_556
S8 Ta2 2.469284 1_655
S8 Ta1 2.482134 1_656
S8 Ta3 2.509926 1_556
S9 Ta3 2.469288 1_555
S9 Ta1 2.482136 1_665
S9 Ta2 2.509926 1_554
S10 Ta3 2.469279 1_455
S10 Ta1 2.482139 1_555
S10 Ta2 2.509926 1_554
S11 Ta3 2.469284 1_565
S11 Ta1 2.482134 1_565
S11 Ta2 2.509926 1_554
