# generated using pymatgen
data_Lu6Al16Os6Pt
_symmetry_space_group_name_H-M   'P 1'
_cell_length_a   8.82716464
_cell_length_b   8.82716510
_cell_length_c   8.82716517
_cell_angle_alpha   60.00000343
_cell_angle_beta   60.00000167
_cell_angle_gamma   60.00000287
_symmetry_Int_Tables_number   1
_chemical_formula_structural   Lu6Al16Os6Pt
_chemical_formula_sum   'Lu6 Al16 Os6 Pt1'
_cell_volume   486.34981792
_cell_formula_units_Z   1
loop_
 _symmetry_equiv_pos_site_id
 _symmetry_equiv_pos_as_xyz
  1  'x, y, z'
loop_
 _atom_site_type_symbol
 _atom_site_label
 _atom_site_symmetry_multiplicity
 _atom_site_fract_x
 _atom_site_fract_y
 _atom_site_fract_z
 _atom_site_occupancy
  Lu  Lu0  1  0.70956697  0.70956697  0.29043303  1
  Lu  Lu1  1  0.29043303  0.70956697  0.29043303  1
  Lu  Lu2  1  0.70956697  0.29043303  0.29043303  1
  Lu  Lu3  1  0.29043303  0.29043303  0.70956697  1
  Lu  Lu4  1  0.70956697  0.29043303  0.70956697  1
  Lu  Lu5  1  0.29043303  0.70956697  0.70956697  1
  Al  Al0  1  0.87699823  0.87699823  0.36900330  1
  Al  Al1  1  0.87699823  0.36900330  0.87699823  1
  Al  Al2  1  0.36900330  0.87699823  0.87699823  1
  Al  Al3  1  0.87699823  0.87699823  0.87699823  1
  Al  Al4  1  0.12300177  0.12300177  0.63099670  1
  Al  Al5  1  0.12300177  0.63099670  0.12300177  1
  Al  Al6  1  0.63099670  0.12300177  0.12300177  1
  Al  Al7  1  0.12300177  0.12300177  0.12300177  1
  Al  Al8  1  0.66715740  0.66715740  0.99852979  1
  Al  Al9  1  0.66715740  0.99852979  0.66715740  1
  Al  Al10  1  0.99852979  0.66715740  0.66715740  1
  Al  Al11  1  0.66715740  0.66715740  0.66715740  1
  Al  Al12  1  0.33284260  0.33284260  0.00147021  1
  Al  Al13  1  0.33284260  0.00147021  0.33284260  1
  Al  Al14  1  0.00147021  0.33284260  0.33284260  1
  Al  Al15  1  0.33284260  0.33284260  0.33284260  1
  Os  Os0  1  0.00000000  0.00000000  0.50000000  1
  Os  Os1  1  0.50000000  0.00000000  0.50000000  1
  Os  Os2  1  0.00000000  0.50000000  0.50000000  1
  Os  Os3  1  0.50000000  0.50000000  0.00000000  1
  Os  Os4  1  0.00000000  0.50000000  0.00000000  1
  Os  Os5  1  0.50000000  0.00000000  0.00000000  1
  Pt  Pt0  1  0.00000000  0.00000000  0.00000000  1
loop_
_geom_bond_atom_site_label_1
_geom_bond_atom_site_label_2
_geom_bond_distance
_geom_bond_site_symmetry_2
Lu0 Os2 3.161427 1_655
Lu0 Os1 3.161427 1_565
Lu0 Os4 3.161428 1_655
Lu0 Os5 3.161428 1_565
Lu1 Os2 3.161427 1_555
Lu1 Os5 3.161427 1_565
Lu1 Os3 3.161427 1_555
Lu1 Os0 3.161428 1_565
Lu2 Os1 3.161427 1_555
Lu2 Os4 3.161427 1_655
Lu2 Os3 3.161427 1_555
Lu2 Os0 3.161428 1_655
Lu3 Os2 3.161427 1_555
Lu3 Os1 3.161427 1_555
Lu3 Os4 3.161428 1_556
Lu3 Os5 3.161428 1_556
Lu4 Os2 3.161427 1_655
Lu4 Os5 3.161427 1_556
Lu4 Os3 3.161427 1_556
Lu4 Os0 3.161428 1_655
Lu5 Os1 3.161427 1_565
Lu5 Os4 3.161427 1_556
Lu5 Os3 3.161427 1_556
Lu5 Os0 3.161428 1_565
Al0 Pt0 2.659536 1_665
Al0 Os1 2.717464 1_565
Al0 Os2 2.717464 1_655
Al0 Os0 2.717478 1_665
Al0 Lu0 3.013972 1_555
Al0 Lu1 3.013987 1_655
Al0 Lu2 3.013987 1_565
Al1 Pt0 2.659536 1_656
Al1 Os3 2.717464 1_556
Al1 Os2 2.717464 1_655
Al1 Os4 2.717478 1_656
Al1 Lu4 3.013972 1_555
Al1 Lu3 3.013987 1_655
Al1 Lu2 3.013987 1_556
Al2 Pt0 2.659536 1_566
Al2 Os1 2.717464 1_565
Al2 Os3 2.717464 1_556
Al2 Os5 2.717478 1_566
Al2 Lu5 3.013972 1_555
Al2 Lu3 3.013987 1_565
Al2 Lu1 3.013987 1_556
Al3 Pt0 2.659550 1_666
Al3 Os5 2.717464 1_566
Al3 Os0 2.717464 1_665
Al3 Os4 2.717464 1_656
Al3 Lu5 3.013985 1_655
Al3 Lu0 3.013985 1_556
Al3 Lu4 3.013985 1_565
Al4 Pt0 2.659536 1_556
Al4 Os1 2.717464 1_555
Al4 Os2 2.717464 1_555
Al4 Os0 2.717478 1_555
Al4 Lu3 3.013972 1_555
Al4 Lu4 3.013987 1_455
Al4 Lu5 3.013987 1_545
Al5 Pt0 2.659536 1_565
Al5 Os3 2.717464 1_555
Al5 Os2 2.717464 1_555
Al5 Os4 2.717478 1_555
Al5 Lu1 3.013972 1_555
Al5 Lu0 3.013987 1_455
Al5 Lu5 3.013987 1_554
Al6 Pt0 2.659536 1_655
Al6 Os1 2.717464 1_555
Al6 Os3 2.717464 1_555
Al6 Os5 2.717478 1_555
Al6 Lu2 3.013972 1_555
Al6 Lu0 3.013987 1_545
Al6 Lu4 3.013987 1_554
Al7 Pt0 2.659550 1_555
Al7 Os5 2.717464 1_555
Al7 Os0 2.717464 1_555
Al7 Os4 2.717464 1_555
Al7 Lu2 3.013985 1_455
Al7 Lu3 3.013985 1_554
Al7 Lu1 3.013985 1_545
Al8 Os4 2.548200 1_656
Al8 Os5 2.548200 1_566
Al8 Os3 2.548215 1_556
Al8 Lu0 2.998148 1_556
Al8 Lu1 2.998158 1_556
Al8 Lu2 2.998159 1_556
Al9 Os0 2.548200 1_665
Al9 Os5 2.548200 1_566
Al9 Os1 2.548215 1_565
Al9 Lu4 2.998148 1_565
Al9 Lu3 2.998158 1_565
Al9 Lu2 2.998159 1_565
Al10 Os0 2.548200 1_665
Al10 Os4 2.548200 1_656
Al10 Os2 2.548215 1_655
Al10 Lu5 2.998147 1_655
Al10 Lu1 2.998158 1_655
Al10 Lu3 2.998159 1_655
Al11 Os2 2.548205 1_655
Al11 Os3 2.548205 1_556
Al11 Os1 2.548205 1_565
Al11 Lu5 2.998165 1_555
Al11 Lu4 2.998165 1_555
Al11 Lu0 2.998165 1_555
Al12 Os4 2.548200 1_555
Al12 Os5 2.548200 1_555
Al12 Os3 2.548215 1_555
Al12 Lu3 2.998148 1_554
Al12 Lu4 2.998158 1_554
Al12 Lu5 2.998159 1_554
Al13 Os0 2.548200 1_555
Al13 Os5 2.548200 1_555
Al13 Os1 2.548215 1_555
Al13 Lu1 2.998148 1_545
Al13 Lu0 2.998158 1_545
Al13 Lu5 2.998159 1_545
Al14 Os0 2.548200 1_555
Al14 Os4 2.548200 1_555
Al14 Os2 2.548215 1_555
Al14 Lu2 2.998147 1_455
Al14 Lu4 2.998158 1_455
Al14 Lu0 2.998159 1_455
Al15 Os2 2.548205 1_555
Al15 Os3 2.548205 1_555
Al15 Os1 2.548205 1_555
Al15 Lu2 2.998165 1_555
Al15 Lu1 2.998165 1_555
Al15 Lu3 2.998165 1_555
