# generated using pymatgen
data_SrLaTiMnO6
_symmetry_space_group_name_H-M   'P 1'
_cell_length_a   5.64711200
_cell_length_b   5.68593414
_cell_length_c   7.69024753
_cell_angle_alpha   90.69012661
_cell_angle_beta   90.00003497
_cell_angle_gamma   90.00008076
_symmetry_Int_Tables_number   1
_chemical_formula_structural   SrLaTiMnO6
_chemical_formula_sum   'Sr2 La2 Ti2 Mn2 O12'
_cell_volume   246.90906787
_cell_formula_units_Z   2
loop_
 _symmetry_equiv_pos_site_id
 _symmetry_equiv_pos_as_xyz
  1  'x, y, z'
loop_
 _atom_site_type_symbol
 _atom_site_label
 _atom_site_symmetry_multiplicity
 _atom_site_fract_x
 _atom_site_fract_y
 _atom_site_fract_z
 _atom_site_occupancy
  Sr  Sr0  1  0.00722900  0.99862400  0.25076300  1
  Sr  Sr1  1  0.49277300  0.49862100  0.75076400  1
  La  La0  1  0.51307700  0.51124400  0.25001100  1
  La  La1  1  0.98692200  0.01124300  0.75001700  1
  Ti  Ti0  1  0.49814600  0.00139400  0.50187800  1
  Ti  Ti1  1  0.00185100  0.50139600  0.00187800  1
  Mn  Mn0  1  0.00088200  0.50287700  0.50001300  1
  Mn  Mn1  1  0.49911300  0.00287700  0.99999600  1
  O  O0  1  0.00397700  0.57838900  0.74532900  1
  O  O1  1  0.49602800  0.07838700  0.24533200  1
  O  O2  1  0.24159700  0.22498900  0.53839100  1
  O  O3  1  0.25840200  0.72499100  0.03839300  1
  O  O4  1  0.22722700  0.24273500  0.96045300  1
  O  O5  1  0.27277200  0.74273400  0.46044900  1
  O  O6  1  0.50699800  0.93821200  0.75426400  1
  O  O7  1  0.99300200  0.43820400  0.25425800  1
  O  O8  1  0.74019300  0.24188500  0.53649600  1
  O  O9  1  0.75980800  0.74188400  0.03649500  1
  O  O10  1  0.75438700  0.25965900  0.96241200  1
  O  O11  1  0.74561300  0.75965700  0.46240700  1
loop_
_geom_bond_atom_site_label_1
_geom_bond_atom_site_label_2
_geom_bond_distance
_geom_bond_site_symmetry_2
La0 O1 2.462908 1_555
La0 O5 2.478238 1_555
La0 O3 2.498299 1_555
La0 O11 2.516299 1_555
La0 O9 2.531624 1_555
La0 O4 3.132607 1_554
La1 O0 2.462893 1_645
La1 O4 2.478231 1_655
La1 O2 2.498336 1_655
La1 O10 2.516304 1_555
La1 O8 2.531649 1_555
La1 O5 3.132665 1_645
Mn0 O7 1.921522 1_455
Mn0 O0 1.929812 1_555
Mn0 O11 2.074495 1_455
Mn0 O5 2.078455 1_555
Mn0 O2 2.107778 1_555
Mn0 O8 2.111431 1_455
Mn1 O6 1.921341 1_545
Mn1 O1 1.929959 1_556
Mn1 O10 2.074495 1_555
Mn1 O4 2.078420 1_555
Mn1 O3 2.107774 1_546
Mn1 O9 2.111479 1_546
O0 Ti1 2.026088 1_556
O0 Sr1 2.797695 1_555
O0 Sr1 2.922615 1_455
O1 Ti0 2.026065 1_555
O1 Sr0 2.797705 1_545
O1 Sr0 2.922595 1_645
O2 Ti0 1.945631 1_555
O2 Sr1 2.653058 1_555
O2 Sr0 2.869202 1_545
O3 Ti1 1.945639 1_555
O3 Sr0 2.653042 1_555
O3 Sr1 2.869231 1_554
O4 Ti1 1.968013 1_556
O4 Sr1 2.649991 1_555
O4 Sr0 2.920434 1_546
O5 Ti0 1.968003 1_565
O5 Sr0 2.649981 1_555
O5 Sr1 2.920477 1_555
O6 Ti0 1.978760 1_565
O6 Sr1 2.500597 1_555
O6 Sr1 3.187899 1_565
O7 Ti1 1.978725 1_655
O7 Sr0 2.500535 1_645
O7 Sr0 3.187961 1_655
O8 Ti0 1.949423 1_555
O8 Sr1 2.596225 1_555
O8 Sr0 2.990373 1_645
O9 Ti1 1.949397 1_655
O9 Sr0 2.596237 1_655
O9 Sr1 2.990361 1_554
O10 Ti1 1.980959 1_656
O10 Sr1 2.594450 1_555
O10 Sr0 3.039436 1_646
O11 Ti0 1.980979 1_565
O11 Sr0 2.594451 1_655
O11 Sr1 3.039467 1_555
