# generated using pymatgen
data_Fe5CuO8
_symmetry_space_group_name_H-M   'P 1'
_cell_length_a   6.03536485
_cell_length_b   6.03536485
_cell_length_c   6.03536434
_cell_angle_alpha   60.40796050
_cell_angle_beta   60.40796050
_cell_angle_gamma   60.40795478
_symmetry_Int_Tables_number   1
_chemical_formula_structural   Fe5CuO8
_chemical_formula_sum   'Fe5 Cu1 O8'
_cell_volume   156.88582373
_cell_formula_units_Z   1
loop_
 _symmetry_equiv_pos_site_id
 _symmetry_equiv_pos_as_xyz
  1  'x, y, z'
loop_
 _atom_site_type_symbol
 _atom_site_label
 _atom_site_symmetry_multiplicity
 _atom_site_fract_x
 _atom_site_fract_y
 _atom_site_fract_z
 _atom_site_occupancy
  Fe  Fe0  1  0.37869200  0.37869200  0.37869200  1
  Fe  Fe1  1  0.62130800  0.62130800  0.62130800  1
  Fe  Fe2  1  0.00000000  0.50000000  0.00000000  1
  Fe  Fe3  1  0.50000000  0.00000000  0.00000000  1
  Fe  Fe4  1  0.00000000  0.00000000  0.50000000  1
  Cu  Cu0  1  0.00000000  0.00000000  0.00000000  1
  O  O0  1  0.75855800  0.75855800  0.75855800  1
  O  O1  1  0.22971100  0.75041700  0.75041700  1
  O  O2  1  0.75041700  0.75041700  0.22971100  1
  O  O3  1  0.75041700  0.22971100  0.75041700  1
  O  O4  1  0.24958300  0.77028900  0.24958300  1
  O  O5  1  0.24958300  0.24958300  0.77028900  1
  O  O6  1  0.77028900  0.24958300  0.24958300  1
  O  O7  1  0.24144200  0.24144200  0.24144200  1
loop_
_geom_bond_atom_site_label_1
_geom_bond_atom_site_label_2
_geom_bond_distance
_geom_bond_site_symmetry_2
Fe0 O5 1.939615 1_555
Fe0 O6 1.939615 1_555
Fe0 O4 1.939615 1_555
Fe0 O7 2.022766 1_555
Fe1 O2 1.939615 1_555
Fe1 O3 1.939615 1_555
Fe1 O1 1.939615 1_555
Fe1 O0 2.022766 1_555
Fe2 O2 2.057601 1_455
Fe2 O5 2.057601 1_554
Fe2 O1 2.057601 1_554
Fe2 O6 2.057601 1_455
Fe2 O7 2.070614 1_555
Fe2 O0 2.070614 1_454
Fe3 O5 2.057601 1_554
Fe3 O2 2.057601 1_545
Fe3 O4 2.057601 1_545
Fe3 O3 2.057601 1_554
Fe3 O7 2.070614 1_555
Fe3 O0 2.070614 1_544
Fe4 O3 2.057601 1_455
Fe4 O4 2.057601 1_545
Fe4 O6 2.057601 1_455
Fe4 O1 2.057601 1_545
Fe4 O7 2.070614 1_555
Fe4 O0 2.070614 1_445
Cu0 O4 2.139155 1_545
Cu0 O1 2.139155 1_544
Cu0 O6 2.139155 1_455
Cu0 O3 2.139155 1_454
Cu0 O5 2.139156 1_554
Cu0 O2 2.139156 1_445
