# generated using pymatgen
data_NaMn2(AgO2)3
_symmetry_space_group_name_H-M   'P 1'
_cell_length_a   5.17697806
_cell_length_b   5.17711384
_cell_length_c   6.42323938
_cell_angle_alpha   74.44552807
_cell_angle_beta   97.70527954
_cell_angle_gamma   120.00063197
_symmetry_Int_Tables_number   1
_chemical_formula_structural   NaMn2(AgO2)3
_chemical_formula_sum   'Na1 Mn2 Ag3 O6'
_cell_volume   143.62889303
_cell_formula_units_Z   1
loop_
 _symmetry_equiv_pos_site_id
 _symmetry_equiv_pos_as_xyz
  1  'x, y, z'
loop_
 _atom_site_type_symbol
 _atom_site_label
 _atom_site_symmetry_multiplicity
 _atom_site_fract_x
 _atom_site_fract_y
 _atom_site_fract_z
 _atom_site_occupancy
  Na  Na0  1  0.33333412  0.16666709  0.50000109  1
  Mn  Mn0  1  0.99988430  0.49994040  0.49999770  1
  Mn  Mn1  1  0.66678943  0.83339455  0.50000089  1
  Ag  Ag0  1  0.67870288  0.33935170  0.99999986  1
  Ag  Ag1  1  0.33333254  0.66666684  0.99999999  1
  Ag  Ag2  1  0.98795585  0.99397856  0.00000040  1
  O  O0  1  0.33333325  0.72929521  0.66689073  1
  O  O1  1  0.95387234  0.11224789  0.66596643  1
  O  O2  1  0.71279324  0.49170675  0.66596504  1
  O  O3  1  0.71279260  0.22108694  0.33403470  1
  O  O4  1  0.33333430  0.60403825  0.33310895  1
  O  O5  1  0.95387515  0.84162781  0.33403424  1
loop_
_geom_bond_atom_site_label_1
_geom_bond_atom_site_label_2
_geom_bond_distance
_geom_bond_site_symmetry_2
Na0 O3 2.218535 1_555
Na0 O2 2.218540 1_555
Na0 O1 2.218548 1_455
Na0 O5 2.218550 1_445
Na0 O0 2.230359 1_545
Na0 O4 2.230360 1_555
Mn0 O1 1.914214 1_555
Mn0 O5 1.914226 1_555
Mn0 O4 1.917180 1_655
Mn0 O0 1.917207 1_655
Mn0 O3 1.919461 1_555
Mn0 O2 1.919480 1_555
Mn1 O2 1.914215 1_555
Mn1 O3 1.914224 1_565
Mn1 O0 1.917209 1_555
Mn1 O4 1.917222 1_555
Mn1 O5 1.919455 1_555
Mn1 O1 1.919457 1_565
Ag0 O2 2.076424 1_555
Ag0 O3 2.076425 1_556
Ag1 O4 2.076323 1_556
Ag1 O0 2.076326 1_555
Ag2 O5 2.076415 1_555
Ag2 O1 2.076418 1_564
