# generated using pymatgen
data_Ti4SiBi2
_symmetry_space_group_name_H-M   'P 1'
_cell_length_a   7.83408245
_cell_length_b   7.83408224
_cell_length_c   7.83408325
_cell_angle_alpha   95.69731535
_cell_angle_beta   95.69731499
_cell_angle_gamma   143.26915586
_symmetry_Int_Tables_number   1
_chemical_formula_structural   Ti4SiBi2
_chemical_formula_sum   'Ti8 Si2 Bi4'
_cell_volume   272.89988229
_cell_formula_units_Z   2
loop_
 _symmetry_equiv_pos_site_id
 _symmetry_equiv_pos_as_xyz
  1  'x, y, z'
loop_
 _atom_site_type_symbol
 _atom_site_label
 _atom_site_symmetry_multiplicity
 _atom_site_fract_x
 _atom_site_fract_y
 _atom_site_fract_z
 _atom_site_occupancy
  Ti  Ti0  1  0.08130799  0.19895736  0.28026535  1
  Ti  Ti1  1  0.91869201  0.80104264  0.71973465  1
  Ti  Ti2  1  0.80104264  0.08130799  0.88234863  1
  Ti  Ti3  1  0.41869201  0.69895736  0.11765137  1
  Ti  Ti4  1  0.19895736  0.91869201  0.11765137  1
  Ti  Ti5  1  0.58130799  0.30104264  0.88234863  1
  Ti  Ti6  1  0.69895736  0.58130799  0.28026535  1
  Ti  Ti7  1  0.30104264  0.41869201  0.71973465  1
  Si  Si0  1  0.25000000  0.25000000  0.00000000  1
  Si  Si1  1  0.75000000  0.75000000  0.00000000  1
  Bi  Bi0  1  0.14132276  0.64132276  0.78264352  1
  Bi  Bi1  1  0.85867724  0.35867724  0.21735648  1
  Bi  Bi2  1  0.35867724  0.14132276  0.50000000  1
  Bi  Bi3  1  0.64132276  0.85867724  0.50000000  1
loop_
_geom_bond_atom_site_label_1
_geom_bond_atom_site_label_2
_geom_bond_distance
_geom_bond_site_symmetry_2
Si0 Si1 2.468334 1_445
Si0 Si1 2.468334 1_555
Si0 Ti1 2.574977 1_444
Si0 Ti6 2.574977 1_555
Si0 Ti7 2.574977 1_554
Si0 Ti0 2.574977 1_555
Si0 Ti3 2.574979 1_555
Si0 Ti2 2.574980 1_454
Si0 Ti4 2.574984 1_545
Si0 Ti5 2.574984 1_554
Si1 Ti0 2.574977 1_665
Si1 Ti7 2.574977 1_554
Si1 Ti6 2.574977 1_555
Si1 Ti1 2.574977 1_554
Si1 Ti5 2.574979 1_554
Si1 Ti4 2.574980 1_655
Si1 Ti2 2.574984 1_564
Si1 Ti3 2.574984 1_555
Bi0 Ti7 2.881023 1_555
Bi0 Ti1 2.881023 1_455
Bi0 Ti4 2.978795 1_556
Bi0 Ti3 2.978795 1_556
Bi0 Ti5 3.051447 1_565
Bi0 Ti2 3.051447 1_565
Bi0 Ti2 3.051447 1_455
Bi0 Ti5 3.051447 1_455
Bi1 Ti6 2.881023 1_555
Bi1 Ti0 2.881023 1_655
Bi1 Ti2 2.978795 1_554
Bi1 Ti5 2.978795 1_554
Bi1 Ti3 3.051447 1_545
Bi1 Ti4 3.051447 1_545
Bi1 Ti4 3.051447 1_655
Bi1 Ti3 3.051447 1_655
Bi2 Ti4 2.881011 1_545
Bi2 Ti5 2.881011 1_555
Bi2 Ti7 2.978770 1_555
Bi2 Ti0 2.978770 1_555
Bi2 Ti1 3.051447 1_555
Bi2 Ti6 3.051447 1_445
Bi2 Ti6 3.051447 1_555
Bi2 Ti1 3.051447 1_445
Bi3 Ti2 2.881011 1_565
Bi3 Ti3 2.881011 1_555
Bi3 Ti6 2.978770 1_555
Bi3 Ti1 2.978770 1_555
Bi3 Ti0 3.051447 1_555
Bi3 Ti7 3.051447 1_665
Bi3 Ti7 3.051447 1_555
Bi3 Ti0 3.051447 1_665
