# generated using pymatgen
data_Lu2GaNi2Ru
_symmetry_space_group_name_H-M   'P 1'
_cell_length_a   5.33020841
_cell_length_b   4.92770160
_cell_length_c   4.92770090
_cell_angle_alpha   117.05783749
_cell_angle_beta   120.69695649
_cell_angle_gamma   89.62468505
_symmetry_Int_Tables_number   1
_chemical_formula_structural   Lu2GaNi2Ru
_chemical_formula_sum   'Lu2 Ga1 Ni2 Ru1'
_cell_volume   94.71077904
_cell_formula_units_Z   1
loop_
 _symmetry_equiv_pos_site_id
 _symmetry_equiv_pos_as_xyz
  1  'x, y, z'
loop_
 _atom_site_type_symbol
 _atom_site_label
 _atom_site_symmetry_multiplicity
 _atom_site_fract_x
 _atom_site_fract_y
 _atom_site_fract_z
 _atom_site_occupancy
  Lu  Lu0  1  0.12608727  0.87290041  0.25318686  1
  Lu  Lu1  1  0.87391273  0.12709959  0.74681314  1
  Ga  Ga0  1  0.50000000  0.50000000  0.00000000  1
  Ni  Ni0  1  0.50000000  0.00000000  0.00000000  1
  Ni  Ni1  1  0.50000000  0.50000000  0.50000000  1
  Ru  Ru0  1  0.00000000  0.50000000  0.50000000  1
loop_
_geom_bond_atom_site_label_1
_geom_bond_atom_site_label_2
_geom_bond_distance
_geom_bond_site_symmetry_2
Lu0 Ru0 2.862060 1_555
Lu0 Ni0 2.887615 1_566
Lu0 Ni1 2.887616 1_555
Lu0 Ru0 2.977928 1_554
Lu0 Ru0 2.977929 1_565
Lu0 Lu1 2.999873 1_464
Lu0 Ni0 3.031014 1_565
Lu0 Ni1 3.031014 1_565
Lu0 Ni1 3.085147 1_454
Lu0 Ni0 3.085147 1_465
Lu0 Lu1 3.136345 1_465
Lu0 Lu1 3.136345 1_454
Lu0 Lu1 3.281539 1_565
Lu1 Ru0 2.862060 1_655
Lu1 Ni0 2.887615 1_555
Lu1 Ni1 2.887616 1_555
Lu1 Ru0 2.977928 1_656
Lu1 Ru0 2.977929 1_645
Lu1 Ni0 3.031014 1_556
Lu1 Ni1 3.031014 1_545
Lu1 Ni1 3.085147 1_656
Lu1 Ni0 3.085147 1_656
Ga0 Ni1 2.463850 1_555
Ga0 Ni1 2.463850 1_554
Ga0 Ni0 2.463851 1_555
Ga0 Ni0 2.463851 1_565
Ga0 Ru0 2.543435 1_655
Ga0 Ru0 2.543435 1_554
Ga0 Lu0 3.051290 1_544
Ga0 Lu1 3.051290 1_565
Ga0 Lu1 3.051291 1_554
Ga0 Lu0 3.051291 1_555
Ga0 Lu1 3.132653 1_454
Ga0 Lu0 3.132653 1_655
Ni0 Ni1 2.572596 1_544
Ni0 Ni1 2.572596 1_555
Ni0 Ru0 2.665104 1_544
Ni0 Ru0 2.665104 1_655
Ni1 Ru0 2.665104 1_655
Ni1 Ru0 2.665104 1_555
