# generated using pymatgen
data_Ba4ScMoO8
_symmetry_space_group_name_H-M   'P 1'
_cell_length_a   7.29942562
_cell_length_b   7.29942584
_cell_length_c   5.85118923
_cell_angle_alpha   90.00000000
_cell_angle_beta   90.00000000
_cell_angle_gamma   132.71930042
_symmetry_Int_Tables_number   1
_chemical_formula_structural   Ba4ScMoO8
_chemical_formula_sum   'Ba4 Sc1 Mo1 O8'
_cell_volume   229.04634296
_cell_formula_units_Z   1
loop_
 _symmetry_equiv_pos_site_id
 _symmetry_equiv_pos_as_xyz
  1  'x, y, z'
loop_
 _atom_site_type_symbol
 _atom_site_label
 _atom_site_symmetry_multiplicity
 _atom_site_fract_x
 _atom_site_fract_y
 _atom_site_fract_z
 _atom_site_occupancy
  Ba  Ba0  1  0.35559307  0.64440693  0.00000000  1
  Ba  Ba1  1  0.85735616  0.14264384  0.50000000  1
  Ba  Ba2  1  0.14264384  0.85735616  0.50000000  1
  Ba  Ba3  1  0.64440693  0.35559307  0.00000000  1
  Sc  Sc0  1  0.00000000  0.00000000  0.00000000  1
  Mo  Mo0  1  0.50000000  0.50000000  0.50000000  1
  O  O0  1  0.15832582  0.84167418  0.00000000  1
  O  O1  1  0.64521327  0.35478673  0.50000000  1
  O  O2  1  0.35478673  0.64521327  0.50000000  1
  O  O3  1  0.84167418  0.15832582  0.00000000  1
  O  O4  1  0.25568406  0.25568406  0.25985045  1
  O  O5  1  0.74431594  0.74431594  0.74014955  1
  O  O6  1  0.25568406  0.25568406  0.74014955  1
  O  O7  1  0.74431594  0.74431594  0.25985045  1
loop_
_geom_bond_atom_site_label_1
_geom_bond_atom_site_label_2
_geom_bond_distance
_geom_bond_site_symmetry_2
Ba0 O0 2.638198 1_555
Ba0 O7 2.843776 1_555
Ba0 O5 2.843776 1_554
Ba0 O4 2.843776 1_555
Ba0 O6 2.843776 1_554
Ba0 O2 2.925614 1_554
Ba0 O2 2.925614 1_555
Ba0 O3 2.932941 1_455
Ba0 O3 2.932941 1_565
Ba1 O6 2.802515 1_655
Ba1 O4 2.802515 1_655
Ba1 O5 2.802515 1_545
Ba1 O7 2.802515 1_545
Ba1 O1 2.837140 1_555
Ba1 O2 2.927230 1_545
Ba1 O2 2.927230 1_655
Ba1 O3 2.933102 1_555
Ba1 O3 2.933102 1_556
Ba2 O5 2.802515 1_455
Ba2 O7 2.802515 1_455
Ba2 O6 2.802515 1_565
Ba2 O4 2.802515 1_565
Ba2 O2 2.837140 1_555
Ba2 O1 2.927230 1_565
Ba2 O1 2.927230 1_455
Ba2 O0 2.933102 1_555
Ba2 O0 2.933102 1_556
Ba3 O3 2.638198 1_555
Ba3 O4 2.843776 1_555
Ba3 O6 2.843776 1_554
Ba3 O7 2.843776 1_555
Ba3 O5 2.843776 1_554
Ba3 O1 2.925614 1_554
Ba3 O1 2.925614 1_555
Ba3 O0 2.932941 1_655
Ba3 O0 2.932941 1_545
Mo0 O2 1.942042 1_555
Mo0 O1 1.942042 1_555
Mo0 O5 2.005009 1_555
Mo0 O7 2.005009 1_555
Mo0 O6 2.005009 1_555
Mo0 O4 2.005009 1_555
O0 Sc0 2.117406 1_565
O3 Sc0 2.117406 1_655
O4 Sc0 2.133564 1_555
O5 Sc0 2.133564 1_666
O6 Sc0 2.133564 1_556
O7 Sc0 2.133564 1_665
