# generated using pymatgen
data_Ir2Os2Pb4O13
_symmetry_space_group_name_H-M   'P 1'
_cell_length_a   7.30811345
_cell_length_b   7.30811440
_cell_length_c   7.30811345
_cell_angle_alpha   120.21910003
_cell_angle_beta   90.15586181
_cell_angle_gamma   119.60196415
_symmetry_Int_Tables_number   1
_chemical_formula_structural   Ir2Os2Pb4O13
_chemical_formula_sum   'Ir2 Os2 Pb4 O13'
_cell_volume   276.35693564
_cell_formula_units_Z   1
loop_
 _symmetry_equiv_pos_site_id
 _symmetry_equiv_pos_as_xyz
  1  'x, y, z'
loop_
 _atom_site_type_symbol
 _atom_site_label
 _atom_site_symmetry_multiplicity
 _atom_site_fract_x
 _atom_site_fract_y
 _atom_site_fract_z
 _atom_site_occupancy
  Ir  Ir0  1  0.62426447  0.75050969  0.37477616  1
  Ir  Ir1  1  0.62426547  0.24948931  0.87375478  1
  Os  Os0  1  0.62250740  0.24819777  0.37430963  1
  Os  Os1  1  0.12611186  0.75180123  0.37430963  1
  Pb  Pb0  1  0.11915460  0.24711276  0.36626736  1
  Pb  Pb1  1  0.12426908  0.24818094  0.87608714  1
  Pb  Pb2  1  0.11915460  0.75288624  0.87204084  1
  Pb  Pb3  1  0.62790620  0.75181806  0.87608714  1
  O  O0  1  0.54578535  0.10132989  0.05416350  1
  O  O1  1  0.54098782  0.50000100  0.04098782  1
  O  O2  1  0.95283362  0.50837915  0.05416450  1
  O  O3  1  0.31903870  0.00000000  0.31903870  1
  O  O4  1  0.70501251  0.01119616  0.30949901  1
  O  O5  1  0.29830285  0.60448450  0.30949901  1
  O  O6  1  0.94759943  0.50000100  0.44759843  1
  O  O7  1  0.95283362  0.89866911  0.44445447  1
  O  O8  1  0.54578535  0.49162285  0.44445547  1
  O  O9  1  0.29830285  0.98880384  0.69381735  1
  O  O10  1  0.70420120  1.00000000  0.70420120  1
  O  O11  1  0.70501251  0.39551450  0.69381735  1
  O  O12  1  0.24667452  0.50000100  0.74667552  1
loop_
_geom_bond_atom_site_label_1
_geom_bond_atom_site_label_2
_geom_bond_distance
_geom_bond_site_symmetry_2
Ir0 O10 1.995768 1_555
Ir0 O5 2.002740 1_555
Ir0 O4 2.002754 1_565
Ir0 O8 2.016728 1_555
Ir0 O7 2.016747 1_555
Ir0 O1 2.016999 1_555
Ir1 O10 1.995768 1_545
Ir1 O11 2.002747 1_555
Ir1 O9 2.002747 1_545
Ir1 O0 2.016740 1_556
Ir1 O2 2.016741 1_556
Ir1 O1 2.017005 1_556
O0 Os0 1.952155 1_555
O0 Pb2 2.588237 1_544
O0 Pb3 2.598214 1_544
O1 Pb3 2.514806 1_554
O1 Pb1 2.514811 1_554
O2 Os1 1.952150 1_655
O2 Pb2 2.588239 1_654
O2 Pb1 2.598220 1_654
O3 Os0 1.911850 1_555
O3 Os1 1.911855 1_545
O3 Pb0 2.737868 1_555
O3 Pb2 2.737873 1_544
O4 Os0 1.948166 1_555
O4 Pb0 2.534333 1_655
O4 Pb3 2.614288 1_544
O5 Os1 1.948171 1_555
O5 Pb0 2.534321 1_555
O5 Pb1 2.614286 1_554
O6 Os1 1.999823 1_655
O6 Os0 1.999842 1_555
O6 Pb2 2.555032 1_655
O6 Pb0 2.555038 1_655
O7 Os1 1.952155 1_655
O7 Pb0 2.588238 1_665
O7 Pb1 2.598214 1_665
O8 Os0 1.952162 1_555
O8 Pb0 2.588236 1_555
O8 Pb3 2.598207 1_555
O9 Os1 1.948171 1_555
O9 Pb2 2.534326 1_555
O9 Pb1 2.614281 1_565
O10 Pb1 2.544922 1_665
O10 Pb3 2.544922 1_555
O11 Os0 1.948171 1_555
O11 Pb2 2.534331 1_655
O11 Pb3 2.614276 1_555
O12 Pb2 2.263889 1_555
O12 Pb0 2.263906 1_555
O12 Pb3 2.282912 1_555
O12 Pb1 2.282912 1_555
