# generated using pymatgen
data_Lu2CO
_symmetry_space_group_name_H-M   'P 1'
_cell_length_a   5.89397822
_cell_length_b   5.89397805
_cell_length_c   5.89397730
_cell_angle_alpha   132.26582013
_cell_angle_beta   132.26581419
_cell_angle_gamma   69.80951867
_symmetry_Int_Tables_number   1
_chemical_formula_structural   Lu2CO
_chemical_formula_sum   'Lu4 C2 O2'
_cell_volume   109.96173455
_cell_formula_units_Z   2
loop_
 _symmetry_equiv_pos_site_id
 _symmetry_equiv_pos_as_xyz
  1  'x, y, z'
loop_
 _atom_site_type_symbol
 _atom_site_label
 _atom_site_symmetry_multiplicity
 _atom_site_fract_x
 _atom_site_fract_y
 _atom_site_fract_z
 _atom_site_occupancy
  Lu  Lu0  1  0.75531244  0.75531244  1.00000000  1
  Lu  Lu1  1  0.24468756  0.24468756  0.00000000  1
  Lu  Lu2  1  0.99468756  0.49468756  0.50000000  1
  Lu  Lu3  1  0.50531244  0.00531244  0.50000000  1
  C  C0  1  0.00000000  0.00000000  0.00000000  1
  C  C1  1  0.75000000  0.25000000  0.50000000  1
  O  O0  1  0.50000000  0.50000000  0.00000000  1
  O  O1  1  0.25000000  0.75000000  0.50000000  1
loop_
_geom_bond_atom_site_label_1
_geom_bond_atom_site_label_2
_geom_bond_distance
_geom_bond_site_symmetry_2
Lu0 O1 2.385353 1_656
Lu0 O1 2.385353 1_555
Lu0 O0 2.468196 1_556
Lu1 O1 2.385353 1_544
Lu1 O1 2.385353 1_555
Lu1 O0 2.468196 1_555
Lu2 O0 2.385353 1_555
Lu2 O0 2.385353 1_656
Lu2 O1 2.468196 1_655
Lu3 O0 2.385353 1_556
Lu3 O0 2.385353 1_545
Lu3 O1 2.468196 1_545
C0 Lu1 2.365481 1_555
C0 Lu0 2.365481 1_444
C0 Lu2 2.385353 1_455
C0 Lu2 2.385353 1_444
C0 Lu3 2.385353 1_454
C0 Lu3 2.385353 1_555
C1 Lu2 2.365481 1_555
C1 Lu3 2.365481 1_555
C1 Lu0 2.385353 1_544
C1 Lu0 2.385353 1_555
C1 Lu1 2.385353 1_656
C1 Lu1 2.385353 1_555
