# generated using pymatgen
data_Tl4CuTe3
_symmetry_space_group_name_H-M   'P 1'
_cell_length_a   8.78860128
_cell_length_b   8.78860128
_cell_length_c   8.78860128
_cell_angle_alpha   119.92286408
_cell_angle_beta   119.92286408
_cell_angle_gamma   90.13365534
_symmetry_Int_Tables_number   1
_chemical_formula_structural   Tl4CuTe3
_chemical_formula_sum   'Tl8 Cu2 Te6'
_cell_volume   480.56159588
_cell_formula_units_Z   2
loop_
 _symmetry_equiv_pos_site_id
 _symmetry_equiv_pos_as_xyz
  1  'x, y, z'
loop_
 _atom_site_type_symbol
 _atom_site_label
 _atom_site_symmetry_multiplicity
 _atom_site_fract_x
 _atom_site_fract_y
 _atom_site_fract_z
 _atom_site_occupancy
  Tl  Tl0  1  0.69359500  0.19359500  0.20425300  1
  Tl  Tl1  1  0.48934100  0.69359500  0.50000000  1
  Tl  Tl2  1  0.19359500  0.98934100  0.50000000  1
  Tl  Tl3  1  0.01065900  0.51065900  0.20425300  1
  Tl  Tl4  1  0.98934100  0.48934100  0.79574700  1
  Tl  Tl5  1  0.80640500  0.01065900  0.50000000  1
  Tl  Tl6  1  0.51065900  0.30640500  0.50000000  1
  Tl  Tl7  1  0.30640500  0.80640500  0.79574700  1
  Cu  Cu0  1  0.00000000  0.00000000  0.00000000  1
  Cu  Cu1  1  0.50000000  0.50000000  0.00000000  1
  Te  Te0  1  0.25000000  0.25000000  0.00000000  1
  Te  Te1  1  0.33980400  0.83980400  0.17960900  1
  Te  Te2  1  0.16019600  0.33980400  0.50000000  1
  Te  Te3  1  0.83980400  0.66019600  0.50000000  1
  Te  Te4  1  0.66019600  0.16019600  0.82039100  1
  Te  Te5  1  0.75000000  0.75000000  0.00000000  1
loop_
_geom_bond_atom_site_label_1
_geom_bond_atom_site_label_2
_geom_bond_distance
_geom_bond_site_symmetry_2
Cu0 Te5 3.103613 1_445
Cu0 Te0 3.103613 1_555
Cu0 Te2 3.305481 1_555
Cu0 Te3 3.305481 1_444
Cu0 Te1 3.305483 1_545
Cu0 Te4 3.305483 1_454
Cu1 Te5 3.103613 1_555
Cu1 Te0 3.103613 1_555
Cu1 Te3 3.305481 1_555
Cu1 Te2 3.305481 1_554
Cu1 Te1 3.305483 1_555
Cu1 Te4 3.305483 1_554
Te0 Tl3 3.547085 1_555
Te0 Tl4 3.547085 1_454
Te0 Tl0 3.547089 1_555
Te0 Tl7 3.547089 1_544
Te0 Tl2 3.547089 1_544
Te0 Tl5 3.547089 1_454
Te0 Tl1 3.547089 1_555
Te0 Tl6 3.547089 1_555
Te1 Tl4 3.094716 1_454
Te1 Tl7 3.094716 1_554
Te1 Tl1 3.351524 1_555
Te1 Tl2 3.351524 1_555
Te1 Tl5 3.351531 1_565
Te1 Tl6 3.351531 1_565
Te2 Tl6 3.094716 1_555
Te2 Tl2 3.094716 1_545
Te2 Tl7 3.351531 1_555
Te2 Tl0 3.351531 1_455
Te2 Tl4 3.351538 1_455
Te2 Tl3 3.351538 1_555
Te3 Tl1 3.094716 1_555
Te3 Tl5 3.094716 1_565
Te3 Tl0 3.351531 1_555
Te3 Tl7 3.351531 1_655
Te3 Tl3 3.351538 1_655
Te3 Tl4 3.351538 1_555
Te4 Tl3 3.094716 1_656
Te4 Tl0 3.094716 1_556
Te4 Tl6 3.351524 1_555
Te4 Tl5 3.351524 1_555
Te4 Tl2 3.351531 1_545
Te4 Tl1 3.351531 1_545
Te5 Tl4 3.547085 1_554
Te5 Tl3 3.547085 1_655
Te5 Tl0 3.547089 1_565
Te5 Tl7 3.547089 1_554
Te5 Tl5 3.547089 1_565
Te5 Tl1 3.547089 1_554
Te5 Tl2 3.547089 1_655
Te5 Tl6 3.547089 1_554
