# generated using pymatgen
data_AgHgRu2O7
_symmetry_space_group_name_H-M   'P 1'
_cell_length_a   7.18453800
_cell_length_b   7.23320768
_cell_length_c   7.18453681
_cell_angle_alpha   59.77564114
_cell_angle_beta   59.81599402
_cell_angle_gamma   59.77563826
_symmetry_Int_Tables_number   1
_chemical_formula_structural   AgHgRu2O7
_chemical_formula_sum   'Ag2 Hg2 Ru4 O14'
_cell_volume   262.74167079
_cell_formula_units_Z   2
loop_
 _symmetry_equiv_pos_site_id
 _symmetry_equiv_pos_as_xyz
  1  'x, y, z'
loop_
 _atom_site_type_symbol
 _atom_site_label
 _atom_site_symmetry_multiplicity
 _atom_site_fract_x
 _atom_site_fract_y
 _atom_site_fract_z
 _atom_site_occupancy
  Ag  Ag0  1  0.62500000  0.12500000  0.62500000  1
  Ag  Ag1  1  0.62500000  0.62500000  0.62500000  1
  Hg  Hg0  1  0.62500000  0.62500000  0.12500000  1
  Hg  Hg1  1  0.12500000  0.62500000  0.62500000  1
  Ru  Ru0  1  0.62500000  0.12500000  0.12500000  1
  Ru  Ru1  1  0.12500000  0.62500000  0.12500000  1
  Ru  Ru2  1  0.12500000  0.12500000  0.62500000  1
  Ru  Ru3  1  0.12500000  0.12500000  0.12500000  1
  O  O0  1  0.19142555  0.18773920  0.81010604  1
  O  O1  1  0.19848319  0.80151681  0.19848319  1
  O  O2  1  0.43989396  0.06226080  0.05857445  1
  O  O3  1  0.19142555  0.81072922  0.81010604  1
  O  O4  1  0.05857445  0.43927078  0.43989396  1
  O  O5  1  0.81010604  0.81072922  0.19142555  1
  O  O6  1  0.43989396  0.43927078  0.05857445  1
  O  O7  1  0.50480355  0.49519645  0.50480355  1
  O  O8  1  0.05857445  0.06226080  0.43989396  1
  O  O9  1  0.44789707  0.05210293  0.44789707  1
  O  O10  1  0.05151681  0.44848319  0.05151681  1
  O  O11  1  0.74519645  0.75480355  0.74519645  1
  O  O12  1  0.80210293  0.19789707  0.80210293  1
  O  O13  1  0.81010604  0.18773920  0.19142555  1
loop_
_geom_bond_atom_site_label_1
_geom_bond_atom_site_label_2
_geom_bond_distance
_geom_bond_site_symmetry_2
Ag0 O7 2.180692 1_555
Ag0 O11 2.180692 1_545
Ag0 O12 2.548521 1_555
Ag0 O9 2.548521 1_555
Ag0 O2 2.587799 1_556
Ag0 O13 2.587799 1_555
Ag0 O8 2.587799 1_655
Ag0 O0 2.587799 1_555
Ag1 O11 2.180693 1_555
Ag1 O7 2.180693 1_555
Ag1 O9 2.548521 1_565
Ag1 O12 2.548521 1_555
Ag1 O6 2.587799 1_556
Ag1 O5 2.587799 1_555
Ag1 O4 2.587799 1_655
Ag1 O3 2.587799 1_555
Hg0 O7 2.222742 1_555
Hg0 O11 2.222742 1_554
Hg0 O10 2.532166 1_655
Hg0 O1 2.532166 1_555
Hg0 O2 2.623653 1_565
Hg0 O13 2.623653 1_555
Hg0 O5 2.623654 1_555
Hg0 O6 2.623654 1_555
Hg1 O7 2.222743 1_555
Hg1 O11 2.222743 1_455
Hg1 O10 2.532165 1_556
Hg1 O1 2.532165 1_555
Hg1 O8 2.623653 1_565
Hg1 O0 2.623653 1_555
Hg1 O3 2.623654 1_555
Hg1 O4 2.623654 1_555
O0 Ru3 1.910687 1_556
O0 Ru2 1.914728 1_555
O1 Ru3 1.955802 1_565
O1 Ru1 1.955802 1_555
O2 Ru3 1.910687 1_555
O2 Ru0 1.914728 1_555
O3 Ru1 1.910687 1_556
O3 Ru2 1.914727 1_565
O4 Ru1 1.910687 1_555
O4 Ru2 1.914727 1_555
O5 Ru1 1.910687 1_655
O5 Ru0 1.914727 1_565
O6 Ru1 1.910687 1_555
O6 Ru0 1.914727 1_555
O8 Ru3 1.910687 1_555
O8 Ru2 1.914728 1_555
O9 Ru0 1.937667 1_555
O9 Ru2 1.937668 1_555
O10 Ru3 1.955802 1_555
O10 Ru1 1.955802 1_555
O12 Ru0 1.937667 1_556
O12 Ru2 1.937668 1_655
O13 Ru3 1.910687 1_655
O13 Ru0 1.914728 1_555
