# generated using pymatgen
data_Rb4NaGaSe4
_symmetry_space_group_name_H-M   'P 1'
_cell_length_a   8.49647717
_cell_length_b   8.49647718
_cell_length_c   8.49670280
_cell_angle_alpha   131.81004777
_cell_angle_beta   129.78450734
_cell_angle_gamma   72.14555272
_symmetry_Int_Tables_number   1
_chemical_formula_structural   Rb4NaGaSe4
_chemical_formula_sum   'Rb4 Na1 Ga1 Se4'
_cell_volume   343.53150046
_cell_formula_units_Z   1
loop_
 _symmetry_equiv_pos_site_id
 _symmetry_equiv_pos_as_xyz
  1  'x, y, z'
loop_
 _atom_site_type_symbol
 _atom_site_label
 _atom_site_symmetry_multiplicity
 _atom_site_fract_x
 _atom_site_fract_y
 _atom_site_fract_z
 _atom_site_occupancy
  Rb  Rb0  1  0.81320017  0.65225392  0.17550754  1
  Rb  Rb1  1  0.18680407  0.36232430  0.83906731  1
  Rb  Rb2  1  0.52325700  0.84773576  0.66093269  1
  Rb  Rb3  1  0.47674537  0.13769162  0.32449246  1
  Na  Na0  1  0.99999925  0.74999925  0.75000000  1
  Ga  Ga0  1  0.00000193  0.25000193  0.25000000  1
  Se  Se0  1  0.29280313  0.56391101  0.64918462  1
  Se  Se1  1  0.08528118  0.93607062  0.22888810  1
  Se  Se2  1  0.91472639  0.14361851  0.85081538  1
  Se  Se3  1  0.70718253  0.35639308  0.27111190  1
loop_
_geom_bond_atom_site_label_1
_geom_bond_atom_site_label_2
_geom_bond_distance
_geom_bond_site_symmetry_2
Rb0 Se2 3.448854 1_554
Rb0 Se1 3.461651 1_655
Rb0 Se0 3.516537 1_554
Rb0 Se3 3.583006 1_555
Rb0 Se0 3.811791 1_655
Rb0 Se2 3.876994 1_565
Rb1 Se1 3.449147 1_545
Rb1 Se2 3.461746 1_455
Rb1 Se3 3.516390 1_556
Rb1 Se0 3.582967 1_555
Rb1 Se3 3.811906 1_455
Rb1 Se1 3.876623 1_556
Rb2 Se3 3.449150 1_566
Rb2 Se0 3.461739 1_555
Rb2 Se1 3.516395 1_555
Rb2 Se2 3.582974 1_565
Rb2 Se1 3.811903 1_656
Rb2 Se3 3.876619 1_555
Rb3 Se0 3.448851 1_555
Rb3 Se3 3.461665 1_555
Rb3 Se2 3.516535 1_555
Rb3 Se1 3.582993 1_545
Rb3 Se2 3.811789 1_454
Rb3 Se0 3.876992 1_544
Na0 Se0 2.816434 1_655
Na0 Se2 2.816434 1_565
Na0 Se1 2.816560 1_656
Na0 Se3 2.816561 1_555
Na0 Rb2 3.538651 1_555
Na0 Rb1 3.538651 1_655
Na0 Rb3 3.538901 1_666
Na0 Rb0 3.538908 1_555
Ga0 Se2 2.452513 1_454
Ga0 Se0 2.452513 1_555
Ga0 Se3 2.452552 1_455
Ga0 Se1 2.452552 1_545
Ga0 Rb3 3.587868 1_555
Ga0 Rb0 3.587876 1_455
Ga0 Rb1 3.588107 1_555
Ga0 Rb2 3.588110 1_444
