# generated using pymatgen
data_LiSc2BIr5
_symmetry_space_group_name_H-M   'P 1'
_cell_length_a   5.64900280
_cell_length_b   5.64900233
_cell_length_c   5.69304824
_cell_angle_alpha   59.74171923
_cell_angle_beta   59.74172200
_cell_angle_gamma   60.51652012
_symmetry_Int_Tables_number   1
_chemical_formula_structural   LiSc2BIr5
_chemical_formula_sum   'Li1 Sc2 B1 Ir5'
_cell_volume   128.44584397
_cell_formula_units_Z   1
loop_
 _symmetry_equiv_pos_site_id
 _symmetry_equiv_pos_as_xyz
  1  'x, y, z'
loop_
 _atom_site_type_symbol
 _atom_site_label
 _atom_site_symmetry_multiplicity
 _atom_site_fract_x
 _atom_site_fract_y
 _atom_site_fract_z
 _atom_site_occupancy
  Li  Li0  1  0.73123126  0.73123126  0.26876874  1
  Sc  Sc0  1  0.74920978  0.74920978  0.75079022  1
  Sc  Sc1  1  0.24920978  0.24920978  0.25079022  1
  B  B0  1  0.00434821  0.00434821  0.99565179  1
  Ir  Ir0  1  0.25728238  0.74286208  0.25713792  1
  Ir  Ir1  1  0.74286208  0.25728238  0.25713792  1
  Ir  Ir2  1  0.26571203  0.26571203  0.73428797  1
  Ir  Ir3  1  0.74286208  0.25728238  0.74271762  1
  Ir  Ir4  1  0.25728238  0.74286208  0.74271762  1
loop_
_geom_bond_atom_site_label_1
_geom_bond_atom_site_label_2
_geom_bond_distance
_geom_bond_site_symmetry_2
Li0 Sc1 2.850089 1_565
Li0 Sc1 2.850089 1_655
Li0 Sc0 2.850089 1_554
Li0 Sc0 2.850089 1_555
B0 Ir0 2.071124 1_546
B0 Ir1 2.071124 1_456
B0 Ir4 2.071124 1_545
B0 Ir3 2.071124 1_455
B0 Ir2 2.071600 1_555
B0 Li0 2.164756 1_446
Ir0 Li0 2.679173 1_555
Ir0 Sc0 2.820307 1_554
Ir0 Sc1 2.820307 1_565
Ir0 Sc0 2.829896 1_455
Ir0 Sc1 2.829897 1_555
Ir1 Li0 2.679172 1_555
Ir1 Sc0 2.820306 1_554
Ir1 Sc1 2.820307 1_655
Ir1 Sc0 2.829896 1_545
Ir1 Sc1 2.829897 1_555
Ir2 Sc0 2.849527 1_545
Ir2 Sc0 2.849528 1_455
Ir2 Sc1 2.849528 1_556
Ir2 Sc1 2.849528 1_555
Ir3 Li0 2.679172 1_555
Ir3 Sc1 2.820307 1_655
Ir3 Sc0 2.820307 1_555
Ir3 Sc1 2.829896 1_556
Ir3 Sc0 2.829897 1_545
Ir4 Li0 2.679172 1_555
Ir4 Sc1 2.820306 1_565
Ir4 Sc0 2.820307 1_555
Ir4 Sc1 2.829896 1_556
Ir4 Sc0 2.829897 1_455
