# generated using pymatgen
data_In12TcIrRu2
_symmetry_space_group_name_H-M   'P 1'
_cell_length_a   7.04258958
_cell_length_b   7.04258956
_cell_length_c   7.34884928
_cell_angle_alpha   90.00000000
_cell_angle_beta   90.00000000
_cell_angle_gamma   90.07671502
_symmetry_Int_Tables_number   1
_chemical_formula_structural   In12TcIrRu2
_chemical_formula_sum   'In12 Tc1 Ir1 Ru2'
_cell_volume   364.48839862
_cell_formula_units_Z   1
loop_
 _symmetry_equiv_pos_site_id
 _symmetry_equiv_pos_as_xyz
  1  'x, y, z'
loop_
 _atom_site_type_symbol
 _atom_site_label
 _atom_site_symmetry_multiplicity
 _atom_site_fract_x
 _atom_site_fract_y
 _atom_site_fract_z
 _atom_site_occupancy
  In  In0  1  0.34368285  0.34368285  0.26414463  1
  In  In1  1  0.15900188  0.84642155  0.76229806  1
  In  In2  1  0.15900188  0.84642155  0.23770194  1
  In  In3  1  0.00223793  0.49877993  0.00000000  1
  In  In4  1  0.84642155  0.15900188  0.23770194  1
  In  In5  1  0.84642155  0.15900188  0.76229806  1
  In  In6  1  0.49877993  0.00223793  0.00000000  1
  In  In7  1  0.65322756  0.65322756  0.26588346  1
  In  In8  1  0.65322756  0.65322756  0.73411654  1
  In  In9  1  0.00028476  0.50293490  0.50000000  1
  In  In10  1  0.34368285  0.34368285  0.73585537  1
  In  In11  1  0.50293490  0.00028476  0.50000000  1
  Tc  Tc0  1  0.15220304  0.15220304  0.00000000  1
  Ir  Ir0  1  0.83912117  0.83912117  0.00000000  1
  Ru  Ru0  1  0.65590799  0.34386060  0.50000000  1
  Ru  Ru1  1  0.34386060  0.65590799  0.50000000  1
loop_
_geom_bond_atom_site_label_1
_geom_bond_atom_site_label_2
_geom_bond_distance
_geom_bond_site_symmetry_2
In0 Tc0 2.720332 1_555
In0 Ru1 2.799866 1_555
In0 Ru0 2.799866 1_555
In0 In7 3.080942 1_555
In0 In11 3.180889 1_555
In0 In9 3.180889 1_555
In0 In6 3.278809 1_555
In0 In3 3.278809 1_555
In1 Ru1 2.686142 1_555
In1 Tc0 2.773362 1_566
In1 Ir0 2.851109 1_456
In1 In5 3.115298 1_465
In1 In6 3.158265 1_566
In1 In3 3.202690 1_556
In1 In11 3.278674 1_565
In1 In9 3.287784 1_555
In2 Ru1 2.686142 1_555
In2 Tc0 2.773362 1_565
In2 Ir0 2.851109 1_455
In2 In4 3.115298 1_465
In2 In6 3.158265 1_565
In2 In3 3.202690 1_555
In2 In9 3.287784 1_555
In3 Ir0 2.659339 1_455
In3 Tc0 2.660797 1_555
In3 In4 3.158265 1_455
In3 In5 3.158265 1_454
In3 In7 3.324094 1_455
In3 In8 3.324094 1_454
In4 Ru0 2.686142 1_555
In4 Tc0 2.773362 1_655
In4 Ir0 2.851109 1_545
In4 In6 3.202690 1_555
In4 In9 3.278674 1_655
In5 Ru0 2.686142 1_555
In5 Tc0 2.773362 1_656
In5 Ir0 2.851109 1_546
In5 In6 3.202690 1_556
In5 In9 3.278674 1_655
In6 Ir0 2.659339 1_545
In6 Tc0 2.660797 1_555
In6 In7 3.324094 1_545
In6 In8 3.324094 1_544
In7 Ir0 2.690938 1_555
In7 Ru0 2.776233 1_555
In7 Ru1 2.776233 1_555
In7 In9 3.171962 1_655
In8 Ir0 2.690938 1_556
In8 Ru0 2.776233 1_555
In8 Ru1 2.776233 1_555
In8 In9 3.171962 1_655
In9 Ru1 2.647343 1_555
In9 Ru0 2.670185 1_455
In10 Tc0 2.720332 1_556
In10 Ru1 2.799866 1_555
In10 Ru0 2.799866 1_555
In10 In8 3.080942 1_555
In10 In11 3.180889 1_555
In10 In9 3.180889 1_555
In10 In6 3.278809 1_556
In10 In3 3.278809 1_556
In11 Ru0 2.647343 1_555
In11 Ru1 2.670185 1_545
In11 In8 3.171962 1_545
In11 In7 3.171962 1_545
In11 In2 3.278674 1_545
In11 In5 3.287784 1_555
In11 In4 3.287784 1_555
Ir0 Tc0 3.116121 1_665
