# generated using pymatgen
data_Tb2SmS4
_symmetry_space_group_name_H-M   'P 1'
_cell_length_a   7.25654246
_cell_length_b   7.25654246
_cell_length_c   7.25654246
_cell_angle_alpha   109.34363396
_cell_angle_beta   109.34363396
_cell_angle_gamma   109.72669644
_symmetry_Int_Tables_number   1
_chemical_formula_structural   Tb2SmS4
_chemical_formula_sum   'Tb4 Sm2 S8'
_cell_volume   294.14458185
_cell_formula_units_Z   2
loop_
 _symmetry_equiv_pos_site_id
 _symmetry_equiv_pos_as_xyz
  1  'x, y, z'
loop_
 _atom_site_type_symbol
 _atom_site_label
 _atom_site_symmetry_multiplicity
 _atom_site_fract_x
 _atom_site_fract_y
 _atom_site_fract_z
 _atom_site_occupancy
  Tb  Tb0  1  0.99916200  0.37500000  0.12416200  1
  Tb  Tb1  1  0.12500000  0.00083800  0.37583800  1
  Tb  Tb2  1  0.25083800  0.87500000  0.87583800  1
  Tb  Tb3  1  0.62500000  0.74916200  0.62416200  1
  Sm  Sm0  1  0.50000000  0.50000000  0.00000000  1
  Sm  Sm1  1  0.75000000  0.25000000  0.50000000  1
  S  S0  1  0.87759300  0.62906700  0.89817900  1
  S  S1  1  0.87906700  0.62759300  0.39817900  1
  S  S2  1  0.37240700  0.77058600  0.25147400  1
  S  S3  1  0.02058600  0.12240700  0.75147400  1
  S  S4  1  0.22941400  0.48088800  0.60182100  1
  S  S5  1  0.51911200  0.12093300  0.74852600  1
  S  S6  1  0.37093300  0.26911200  0.24852600  1
  S  S7  1  0.73088800  0.97941400  0.10182100  1
loop_
_geom_bond_atom_site_label_1
_geom_bond_atom_site_label_2
_geom_bond_distance
_geom_bond_site_symmetry_2
S0 Tb2 2.786845 1_655
S0 Tb3 2.807988 1_555
S0 Sm1 2.831176 1_555
S0 Tb1 2.988091 1_666
S0 Sm0 2.999672 1_556
S0 Tb0 3.001471 1_556
S1 Tb1 2.786845 1_665
S1 Tb0 2.807988 1_555
S1 Sm0 2.831176 1_555
S1 Tb2 2.988091 1_655
S1 Sm1 2.999672 1_555
S1 Tb3 3.001471 1_555
S2 Tb0 2.786845 1_455
S2 Tb3 2.807988 1_555
S2 Sm0 2.831176 1_555
S2 Tb1 2.988091 1_565
S2 Sm1 2.999672 1_565
S2 Tb2 3.001471 1_554
S3 Tb3 2.786845 1_445
S3 Tb0 2.807988 1_456
S3 Sm1 2.831176 1_455
S3 Tb2 2.988091 1_545
S3 Sm0 2.999672 1_556
S3 Tb1 3.001471 1_555
S4 Tb3 2.786845 1_555
S4 Tb2 2.807988 1_555
S4 Sm0 2.831176 1_556
S4 Tb0 2.988091 1_455
S4 Sm1 2.999672 1_455
S4 Tb1 3.001471 1_555
S5 Tb2 2.786845 1_545
S5 Tb1 2.807988 1_555
S5 Sm0 2.831176 1_556
S5 Tb3 2.988091 1_545
S5 Sm1 2.999672 1_555
S5 Tb0 3.001471 1_556
S6 Tb1 2.786845 1_555
S6 Tb2 2.807988 1_544
S6 Sm1 2.831176 1_555
S6 Tb0 2.988091 1_455
S6 Sm0 2.999672 1_555
S6 Tb3 3.001471 1_555
S7 Tb0 2.786845 1_565
S7 Tb1 2.807988 1_665
S7 Sm1 2.831176 1_565
S7 Tb3 2.988091 1_554
S7 Sm0 2.999672 1_555
S7 Tb2 3.001471 1_554
