# generated using pymatgen
data_Sc5Al16BiIr7
_symmetry_space_group_name_H-M   'P 1'
_cell_length_a   8.71543819
_cell_length_b   8.74800067
_cell_length_c   8.74800164
_cell_angle_alpha   59.75389414
_cell_angle_beta   60.12306315
_cell_angle_gamma   60.12306313
_symmetry_Int_Tables_number   1
_chemical_formula_structural   Sc5Al16BiIr7
_chemical_formula_sum   'Sc5 Al16 Bi1 Ir7'
_cell_volume   471.60670306
_cell_formula_units_Z   1
loop_
 _symmetry_equiv_pos_site_id
 _symmetry_equiv_pos_as_xyz
  1  'x, y, z'
loop_
 _atom_site_type_symbol
 _atom_site_label
 _atom_site_symmetry_multiplicity
 _atom_site_fract_x
 _atom_site_fract_y
 _atom_site_fract_z
 _atom_site_occupancy
  Sc  Sc0  1  0.79068631  0.20931369  0.20931369  1
  Sc  Sc1  1  0.77387509  0.22612491  0.76659758  1
  Sc  Sc2  1  0.77387509  0.76659758  0.22612491  1
  Sc  Sc3  1  0.23340242  0.76659758  0.22612491  1
  Sc  Sc4  1  0.23340242  0.22612491  0.76659758  1
  Al  Al0  1  0.86314386  0.83325704  0.83325704  1
  Al  Al1  1  0.84768680  0.82206890  0.48255951  1
  Al  Al2  1  0.47034306  0.83325704  0.83325704  1
  Al  Al3  1  0.84768680  0.48255951  0.82206890  1
  Al  Al4  1  0.17793110  0.15231320  0.15231320  1
  Al  Al5  1  0.16674296  0.13685614  0.52965694  1
  Al  Al6  1  0.16674296  0.52965694  0.13685614  1
  Al  Al7  1  0.51744049  0.15231320  0.15231320  1
  Al  Al8  1  0.60558487  0.62427717  0.62427717  1
  Al  Al9  1  0.63219045  0.61577686  0.11984224  1
  Al  Al10  1  0.14585980  0.62427717  0.62427717  1
  Al  Al11  1  0.63219045  0.11984224  0.61577686  1
  Al  Al12  1  0.38422314  0.36780955  0.36780955  1
  Al  Al13  1  0.37572283  0.39441513  0.85414020  1
  Al  Al14  1  0.37572283  0.85414020  0.39441513  1
  Al  Al15  1  0.88015776  0.36780955  0.36780955  1
  Bi  Bi0  1  0.03305775  0.96694225  0.96694225  1
  Ir  Ir0  1  0.51092161  0.48907839  0.48907839  1
  Ir  Ir1  1  0.01120088  0.48879912  0.48879912  1
  Ir  Ir2  1  0.51120088  0.98879912  0.98879912  1
  Ir  Ir3  1  0.51540454  0.99590135  0.48459546  1
  Ir  Ir4  1  0.51540454  0.48459546  0.99590135  1
  Ir  Ir5  1  0.00409865  0.48459546  0.99590135  1
  Ir  Ir6  1  0.00409865  0.99590135  0.48459546  1
loop_
_geom_bond_atom_site_label_1
_geom_bond_atom_site_label_2
_geom_bond_distance
_geom_bond_site_symmetry_2
Al0 Ir5 2.544214 1_655
Al0 Ir6 2.544215 1_655
Al0 Ir2 2.580778 1_555
Al0 Al10 2.673382 1_655
Al0 Al9 2.817626 1_556
Al0 Al11 2.817626 1_565
Al0 Sc1 2.919940 1_565
Al0 Sc2 2.919940 1_556
Al0 Bi0 3.123619 1_655
Al1 Ir6 2.507562 1_655
Al1 Ir3 2.507577 1_555
Al1 Ir1 2.512280 1_655
Al1 Al11 2.770314 1_565
Al1 Al10 2.802333 1_655
Al1 Al8 2.802354 1_555
Al1 Sc3 2.920107 1_655
Al1 Sc2 2.920118 1_555
Al1 Al3 2.958974 1_555
Al1 Sc0 2.963982 1_565
Al2 Ir4 2.544216 1_555
Al2 Ir3 2.544216 1_555
Al2 Ir2 2.580772 1_555
Al2 Al8 2.673386 1_555
Al2 Al9 2.817621 1_556
Al2 Sc4 2.919942 1_565
Al2 Sc3 2.919942 1_556
Al2 Bi0 3.123627 1_555
Al3 Ir5 2.507562 1_655
Al3 Ir4 2.507577 1_555
Al3 Ir1 2.512280 1_655
Al3 Al9 2.770314 1_556
Al3 Al8 2.802354 1_555
Al3 Sc4 2.920107 1_655
Al3 Sc1 2.920118 1_555
Al3 Sc0 2.963982 1_556
Al4 Ir5 2.507572 1_554
Al4 Ir6 2.507573 1_545
Al4 Ir2 2.512275 1_544
Al4 Sc3 2.920101 1_545
Al4 Sc4 2.920102 1_554
Al4 Al7 2.958973 1_555
Al4 Sc0 2.963976 1_455
Al5 Ir6 2.544208 1_545
Al5 Ir3 2.544216 1_545
Al5 Ir1 2.580779 1_555
Al5 Sc1 2.919943 1_455
Al5 Sc4 2.919948 1_555
Al5 Bi0 3.123627 1_545
Al6 Ir5 2.544208 1_554
Al6 Ir4 2.544216 1_554
Al6 Ir1 2.580780 1_555
Al6 Sc2 2.919942 1_455
Al6 Sc3 2.919948 1_555
Al6 Bi0 3.123626 1_554
Al7 Ir4 2.507578 1_554
Al7 Ir3 2.507578 1_545
Al7 Ir2 2.512265 1_544
Al7 Sc2 2.920107 1_545
Al7 Sc1 2.920107 1_554
Al7 Sc0 2.963993 1_555
Al8 Ir0 2.613779 1_555
Al8 Ir3 2.662492 1_555
Al8 Ir4 2.662492 1_555
Al8 Sc1 2.862497 1_555
Al8 Sc2 2.862497 1_555
Al8 Ir1 2.893641 1_655
Al9 Ir0 2.634031 1_555
Al9 Ir4 2.654270 1_554
Al9 Ir5 2.654270 1_654
Al9 Ir2 2.661219 1_554
Al9 Sc2 2.851820 1_555
Al9 Sc3 2.851821 1_555
Al9 Sc0 2.923012 1_555
Al10 Ir0 2.613786 1_555
Al10 Ir6 2.662491 1_555
Al10 Ir5 2.662491 1_555
Al10 Al3 2.802332 1_455
Al10 Al14 2.833175 1_555
Al10 Al13 2.833175 1_555
Al10 Sc4 2.862496 1_555
Al10 Sc3 2.862496 1_555
Al10 Ir1 2.893633 1_555
Al11 Ir0 2.634030 1_555
Al11 Ir3 2.654270 1_545
Al11 Ir6 2.654270 1_645
Al11 Ir2 2.661219 1_545
Al11 Al2 2.817621 1_545
Al11 Sc1 2.851820 1_555
Al11 Sc4 2.851821 1_555
Al11 Sc0 2.923012 1_555
Al12 Ir0 2.634030 1_555
Al12 Ir3 2.654270 1_545
Al12 Ir4 2.654271 1_554
Al12 Ir1 2.661219 1_555
Al12 Al7 2.770328 1_555
Al12 Al5 2.817627 1_555
Al12 Al6 2.817628 1_555
Al12 Sc3 2.851821 1_555
Al12 Sc4 2.851821 1_555
Al12 Sc0 2.923012 1_555
Al13 Ir0 2.613787 1_555
Al13 Ir4 2.662484 1_555
Al13 Ir5 2.662492 1_555
Al13 Al6 2.673372 1_556
Al13 Al7 2.802334 1_556
Al13 Al4 2.802348 1_556
Al13 Al8 2.833163 1_555
Al13 Sc1 2.862496 1_555
Al13 Sc4 2.862503 1_555
Al13 Ir2 2.893641 1_545
Al14 Ir0 2.613787 1_555
Al14 Ir3 2.662484 1_555
Al14 Ir6 2.662492 1_555
Al14 Al5 2.673372 1_565
Al14 Al7 2.802334 1_565
Al14 Al4 2.802348 1_565
Al14 Al8 2.833163 1_555
Al14 Sc2 2.862496 1_555
Al14 Sc3 2.862503 1_555
Al14 Ir2 2.893641 1_554
Al15 Ir0 2.634030 1_555
Al15 Ir6 2.654270 1_645
Al15 Ir5 2.654271 1_654
Al15 Ir1 2.661218 1_655
Al15 Al4 2.770324 1_655
Al15 Al6 2.817621 1_655
Al15 Al5 2.817621 1_655
Al15 Sc2 2.851821 1_555
Al15 Sc1 2.851821 1_555
Al15 Sc0 2.923012 1_555
Bi0 Sc4 2.855414 1_565
Bi0 Sc2 2.855414 1_456
Bi0 Sc1 2.855415 1_465
Bi0 Sc3 2.855415 1_556
Bi0 Sc0 3.009628 1_466
Ir1 Sc3 3.092877 1_555
Ir1 Sc1 3.092877 1_455
Ir1 Sc2 3.092877 1_455
Ir1 Sc4 3.092877 1_555
Ir2 Sc1 3.092877 1_565
Ir2 Sc3 3.092877 1_556
Ir2 Sc2 3.092877 1_556
Ir2 Sc4 3.092877 1_565
Ir3 Sc0 3.036096 1_565
Ir4 Sc0 3.036096 1_556
Ir5 Sc0 3.036096 1_456
Ir6 Sc0 3.036096 1_465
