# generated using pymatgen
data_Cr3GaN
_symmetry_space_group_name_H-M   'P 1'
_cell_length_a   3.82920200
_cell_length_b   3.82920200
_cell_length_c   3.82920200
_cell_angle_alpha   90.00000000
_cell_angle_beta   90.00000000
_cell_angle_gamma   90.00000000
_symmetry_Int_Tables_number   1
_chemical_formula_structural   Cr3GaN
_chemical_formula_sum   'Cr3 Ga1 N1'
_cell_volume   56.14677697
_cell_formula_units_Z   1
loop_
 _symmetry_equiv_pos_site_id
 _symmetry_equiv_pos_as_xyz
  1  'x, y, z'
loop_
 _atom_site_type_symbol
 _atom_site_label
 _atom_site_symmetry_multiplicity
 _atom_site_fract_x
 _atom_site_fract_y
 _atom_site_fract_z
 _atom_site_occupancy
  Cr  Cr0  1  0.50000000  0.00000000  0.50000000  1
  Cr  Cr1  1  0.00000000  0.50000000  0.50000000  1
  Cr  Cr2  1  0.50000000  0.50000000  0.00000000  1
  Ga  Ga0  1  0.00000000  0.00000000  0.00000000  1
  N  N0  1  0.50000000  0.50000000  0.50000000  1
loop_
_geom_bond_atom_site_label_1
_geom_bond_atom_site_label_2
_geom_bond_distance
_geom_bond_site_symmetry_2
Cr0 N0 1.914601 1_555
Cr0 N0 1.914601 1_545
Cr0 Ga0 2.707655 1_555
Cr0 Ga0 2.707655 1_655
Cr0 Ga0 2.707655 1_556
Cr0 Ga0 2.707655 1_656
Cr1 N0 1.914601 1_555
Cr1 N0 1.914601 1_455
Cr1 Ga0 2.707655 1_555
Cr1 Ga0 2.707655 1_566
Cr1 Ga0 2.707655 1_556
Cr1 Ga0 2.707655 1_565
Cr2 N0 1.914601 1_554
Cr2 N0 1.914601 1_555
Cr2 Ga0 2.707655 1_555
Cr2 Ga0 2.707655 1_655
Cr2 Ga0 2.707655 1_565
Cr2 Ga0 2.707655 1_665
