# generated using pymatgen
data_Mg4As6RuRh6
_symmetry_space_group_name_H-M   'P 1'
_cell_length_a   6.98400343
_cell_length_b   6.98400420
_cell_length_c   6.98400312
_cell_angle_alpha   109.47122034
_cell_angle_beta   109.47122257
_cell_angle_gamma   109.47122448
_symmetry_Int_Tables_number   1
_chemical_formula_structural   Mg4As6RuRh6
_chemical_formula_sum   'Mg4 As6 Ru1 Rh6'
_cell_volume   262.23547399
_cell_formula_units_Z   1
loop_
 _symmetry_equiv_pos_site_id
 _symmetry_equiv_pos_as_xyz
  1  'x, y, z'
loop_
 _atom_site_type_symbol
 _atom_site_label
 _atom_site_symmetry_multiplicity
 _atom_site_fract_x
 _atom_site_fract_y
 _atom_site_fract_z
 _atom_site_occupancy
  Mg  Mg0  1  0.00000000  0.00000000  0.50000000  1
  Mg  Mg1  1  0.50000000  0.00000000  0.00000000  1
  Mg  Mg2  1  0.00000000  0.50000000  0.00000000  1
  Mg  Mg3  1  0.50000000  0.50000000  0.50000000  1
  As  As0  1  0.68732207  0.68732207  1.00000000  1
  As  As1  1  0.31267793  0.31267793  0.00000000  1
  As  As2  1  1.00000000  0.68732207  0.68732207  1
  As  As3  1  0.00000000  0.31267793  0.31267793  1
  As  As4  1  0.68732207  1.00000000  0.68732207  1
  As  As5  1  0.31267793  0.00000000  0.31267793  1
  Ru  Ru0  1  0.00000000  0.00000000  0.00000000  1
  Rh  Rh0  1  0.25000000  0.50000000  0.75000000  1
  Rh  Rh1  1  0.75000000  0.25000000  0.50000000  1
  Rh  Rh2  1  0.50000000  0.25000000  0.75000000  1
  Rh  Rh3  1  0.50000000  0.75000000  0.25000000  1
  Rh  Rh4  1  0.75000000  0.50000000  0.25000000  1
  Rh  Rh5  1  0.25000000  0.75000000  0.50000000  1
loop_
_geom_bond_atom_site_label_1
_geom_bond_atom_site_label_2
_geom_bond_distance
_geom_bond_site_symmetry_2
Mg0 Rh2 2.851207 1_555
Mg0 Rh3 2.851207 1_445
Mg0 Rh0 2.851208 1_555
Mg0 Rh4 2.851208 1_445
Mg0 Rh1 2.851208 1_455
Mg0 Rh5 2.851208 1_545
Mg1 Rh5 2.851207 1_544
Mg1 Rh1 2.851207 1_555
Mg1 Rh3 2.851208 1_545
Mg1 Rh2 2.851208 1_554
Mg1 Rh4 2.851208 1_555
Mg1 Rh0 2.851208 1_544
Mg2 Rh5 2.851207 1_555
Mg2 Rh1 2.851207 1_454
Mg2 Rh2 2.851207 1_454
Mg2 Rh3 2.851207 1_555
Mg2 Rh4 2.851207 1_455
Mg2 Rh0 2.851207 1_554
Mg3 Rh4 2.851207 1_555
Mg3 Rh0 2.851207 1_555
Mg3 Rh2 2.851208 1_555
Mg3 Rh3 2.851208 1_555
Mg3 Rh5 2.851208 1_555
Mg3 Rh1 2.851208 1_555
As0 Rh0 2.519274 1_555
As0 Rh3 2.519274 1_556
As0 Rh4 2.519275 1_556
As0 Rh2 2.519275 1_555
As0 Ru0 2.521570 1_666
As0 Mg0 2.895665 1_666
As0 Mg3 2.895665 1_555
As0 Mg2 2.895665 1_656
As0 Mg1 2.895665 1_566
As1 Rh4 2.519274 1_555
As1 Rh2 2.519274 1_554
As1 Rh0 2.519275 1_554
As1 Rh3 2.519275 1_555
As1 Ru0 2.521570 1_555
As1 Mg0 2.895665 1_554
As1 Mg3 2.895665 1_555
As1 Mg2 2.895665 1_555
As1 Mg1 2.895665 1_555
As2 Rh4 2.519274 1_555
As2 Rh5 2.519274 1_655
As2 Rh1 2.519275 1_555
As2 Rh0 2.519275 1_655
As2 Ru0 2.521570 1_666
As2 Mg1 2.895665 1_666
As2 Mg3 2.895665 1_555
As2 Mg2 2.895665 1_656
As2 Mg0 2.895665 1_665
As3 Rh0 2.519274 1_555
As3 Rh1 2.519274 1_455
As3 Rh5 2.519275 1_555
As3 Rh4 2.519275 1_455
As3 Ru0 2.521570 1_555
As3 Mg1 2.895665 1_455
As3 Mg3 2.895665 1_555
As3 Mg2 2.895665 1_555
As3 Mg0 2.895665 1_555
As4 Rh3 2.519274 1_555
As4 Rh5 2.519274 1_555
As4 Rh1 2.519275 1_565
As4 Rh2 2.519275 1_565
As4 Ru0 2.521570 1_666
As4 Mg1 2.895665 1_566
As4 Mg0 2.895665 1_665
As4 Mg2 2.895665 1_666
As4 Mg3 2.895665 1_555
As5 Rh2 2.519274 1_555
As5 Rh1 2.519274 1_555
As5 Rh5 2.519275 1_545
As5 Rh3 2.519275 1_545
As5 Ru0 2.521570 1_555
As5 Mg1 2.895665 1_555
As5 Mg0 2.895665 1_555
As5 Mg2 2.895665 1_545
As5 Mg3 2.895665 1_555
