# generated using pymatgen
data_RbGaSbH
_symmetry_space_group_name_H-M   'P 1'
_cell_length_a   4.39974884
_cell_length_b   4.39974837
_cell_length_c   6.32871030
_cell_angle_alpha   90.00000000
_cell_angle_beta   90.00000000
_cell_angle_gamma   119.99999627
_symmetry_Int_Tables_number   1
_chemical_formula_structural   RbGaSbH
_chemical_formula_sum   'Rb1 Ga1 Sb1 H1'
_cell_volume   106.09662987
_cell_formula_units_Z   1
loop_
 _symmetry_equiv_pos_site_id
 _symmetry_equiv_pos_as_xyz
  1  'x, y, z'
loop_
 _atom_site_type_symbol
 _atom_site_label
 _atom_site_symmetry_multiplicity
 _atom_site_fract_x
 _atom_site_fract_y
 _atom_site_fract_z
 _atom_site_occupancy
  Rb  Rb0  1  0.00000000  0.00000000  0.99849103  1
  Ga  Ga0  1  0.66666700  0.33333300  0.58059473  1
  Sb  Sb0  1  0.33333300  0.66666700  0.44000332  1
  H  H0  1  0.66666700  0.33333300  0.83801092  1
loop_
_geom_bond_atom_site_label_1
_geom_bond_atom_site_label_2
_geom_bond_distance
_geom_bond_site_symmetry_2
Rb0 Sb0 3.776262 1_546
Rb0 Sb0 3.776265 1_556
Rb0 Sb0 3.776265 1_446
Ga0 H0 1.629113 1_555
Ga0 Sb0 2.691516 1_545
Ga0 Sb0 2.691517 1_655
Ga0 Sb0 2.691523 1_555
H0 Rb0 2.735707 1_655
H0 Rb0 2.735710 1_665
H0 Rb0 2.735711 1_555
