# generated using pymatgen
data_ZrPd3(SeO3)8
_symmetry_space_group_name_H-M   'P 1'
_cell_length_a   8.03335496
_cell_length_b   8.03335514
_cell_length_c   8.03335511
_cell_angle_alpha   90.71984349
_cell_angle_beta   89.28016022
_cell_angle_gamma   90.71984411
_symmetry_Int_Tables_number   1
_chemical_formula_structural   ZrPd3(SeO3)8
_chemical_formula_sum   'Zr1 Pd3 Se8 O24'
_cell_volume   518.30918517
_cell_formula_units_Z   1
loop_
 _symmetry_equiv_pos_site_id
 _symmetry_equiv_pos_as_xyz
  1  'x, y, z'
loop_
 _atom_site_type_symbol
 _atom_site_label
 _atom_site_symmetry_multiplicity
 _atom_site_fract_x
 _atom_site_fract_y
 _atom_site_fract_z
 _atom_site_occupancy
  Zr  Zr0  1  0.00000000  0.50000000  0.50000000  1
  Pd  Pd0  1  0.50000000  0.50000000  0.00000000  1
  Pd  Pd1  1  0.50000000  0.00000000  0.50000000  1
  Pd  Pd2  1  0.00000000  0.00000000  0.00000000  1
  Se  Se0  1  0.82375353  0.13575706  0.68613744  1
  Se  Se1  1  0.17624647  0.86424294  0.31386256  1
  Se  Se2  1  0.63575706  0.68613744  0.67624647  1
  Se  Se3  1  0.18613744  0.67624647  0.86424294  1
  Se  Se4  1  0.32937503  0.17062497  0.82937503  1
  Se  Se5  1  0.81386256  0.32375353  0.13575706  1
  Se  Se6  1  0.67062497  0.82937503  0.17062497  1
  Se  Se7  1  0.36424294  0.31386256  0.32375353  1
  O  O0  1  0.24507620  0.43954034  0.44439748  1
  O  O1  1  0.96062988  0.24451659  0.99607626  1
  O  O2  1  0.05560252  0.74507620  0.43954034  1
  O  O3  1  0.48431903  0.25599487  0.95290240  1
  O  O4  1  0.25548341  0.00392374  0.46062988  1
  O  O5  1  0.49607626  0.53937012  0.75548341  1
  O  O6  1  0.97754671  0.00294836  0.75381516  1
  O  O7  1  0.51568097  0.74400513  0.04709760  1
  O  O8  1  0.54709760  0.98431903  0.25599487  1
  O  O9  1  0.45290240  0.01568097  0.74400513  1
  O  O10  1  0.75599487  0.95290240  0.01568097  1
  O  O11  1  0.25381516  0.52245329  0.99705164  1
  O  O12  1  0.06045966  0.55560252  0.74507620  1
  O  O13  1  0.02245329  0.99705164  0.24618484  1
  O  O14  1  0.24400513  0.04709760  0.98431903  1
  O  O15  1  0.50392374  0.46062988  0.24451659  1
  O  O16  1  0.75492380  0.56045966  0.55560252  1
  O  O17  1  0.93954034  0.44439748  0.25492380  1
  O  O18  1  0.03937012  0.75548341  0.00392374  1
  O  O19  1  0.49705164  0.24618484  0.47754671  1
  O  O20  1  0.50294836  0.75381516  0.52245329  1
  O  O21  1  0.94439748  0.25492380  0.56045966  1
  O  O22  1  0.74451659  0.99607626  0.53937012  1
  O  O23  1  0.74618484  0.47754671  0.00294836  1
loop_
_geom_bond_atom_site_label_1
_geom_bond_atom_site_label_2
_geom_bond_distance
_geom_bond_site_symmetry_2
O0 Se7 1.688623 1_555
O0 Zr0 2.075574 1_555
O1 Se5 1.738416 1_556
O1 Pd2 1.994209 1_656
O2 Se1 1.688623 1_555
O2 Zr0 2.075574 1_555
O3 Se4 1.731151 1_555
O3 Pd0 1.994413 1_556
O4 Se1 1.738416 1_545
O4 Pd1 1.994209 1_555
O5 Se2 1.738416 1_555
O5 Pd0 1.994209 1_556
O6 Se0 1.739205 1_555
O6 Pd2 1.988618 1_656
O7 Se6 1.731151 1_555
O7 Pd0 1.994413 1_555
O8 Se6 1.731151 1_555
O8 Pd1 1.994413 1_565
O9 Se4 1.731151 1_555
O9 Pd1 1.994413 1_555
O10 Se6 1.731151 1_555
O10 Pd2 1.994413 1_665
O11 Se3 1.739205 1_555
O11 Pd0 1.988618 1_556
O12 Se3 1.688623 1_555
O12 Zr0 2.075574 1_555
O13 Se1 1.739205 1_555
O13 Pd2 1.988618 1_565
O14 Se4 1.731151 1_555
O14 Pd2 1.994413 1_556
O15 Se7 1.738416 1_555
O15 Pd0 1.994209 1_555
O16 Se2 1.688623 1_555
O16 Zr0 2.075574 1_655
O17 Se5 1.688623 1_555
O17 Zr0 2.075574 1_655
O18 Se3 1.738416 1_554
O18 Pd2 1.994209 1_565
O19 Se7 1.739205 1_555
O19 Pd1 1.988618 1_555
O20 Se2 1.739205 1_555
O20 Pd1 1.988618 1_565
O21 Se0 1.688623 1_555
O21 Zr0 2.075574 1_655
O22 Se0 1.738416 1_565
O22 Pd1 1.994209 1_565
O23 Se5 1.739205 1_555
O23 Pd0 1.988618 1_555
