# generated using pymatgen
data_Ca3Ta4HgO14
_symmetry_space_group_name_H-M   'P 1'
_cell_length_a   7.47241314
_cell_length_b   7.33320622
_cell_length_c   7.47241309
_cell_angle_alpha   59.37003688
_cell_angle_beta   60.00000456
_cell_angle_gamma   59.37003531
_symmetry_Int_Tables_number   1
_chemical_formula_structural   Ca3Ta4HgO14
_chemical_formula_sum   'Ca3 Ta4 Hg1 O14'
_cell_volume   286.74710988
_cell_formula_units_Z   1
loop_
 _symmetry_equiv_pos_site_id
 _symmetry_equiv_pos_as_xyz
  1  'x, y, z'
loop_
 _atom_site_type_symbol
 _atom_site_label
 _atom_site_symmetry_multiplicity
 _atom_site_fract_x
 _atom_site_fract_y
 _atom_site_fract_z
 _atom_site_occupancy
  Ca  Ca0  1  0.12500000  0.12500000  0.62500000  1
  Ca  Ca1  1  0.62500000  0.12500000  0.12500000  1
  Ca  Ca2  1  0.12500000  0.12500000  0.12500000  1
  Ta  Ta0  1  0.62500000  0.62500000  0.12500000  1
  Ta  Ta1  1  0.62500000  0.12500000  0.62500000  1
  Ta  Ta2  1  0.12500000  0.62500000  0.62500000  1
  Ta  Ta3  1  0.62500000  0.62500000  0.62500000  1
  Hg  Hg0  1  0.12500000  0.62500000  0.12500000  1
  O  O0  1  0.31193698  0.69660142  0.31193698  1
  O  O1  1  0.55498639  0.94754900  0.55498639  1
  O  O2  1  0.30752278  0.30245100  0.69501361  1
  O  O3  1  0.69501361  0.30245100  0.30752278  1
  O  O4  1  0.31193698  0.69660142  0.67952461  1
  O  O5  1  0.67952461  0.69660142  0.31193698  1
  O  O6  1  0.94247722  0.94754900  0.55498639  1
  O  O7  1  0.57047539  0.55339858  0.93806302  1
  O  O8  1  0.00647112  0.98058764  0.00647112  1
  O  O9  1  0.24352888  0.26941236  0.24352888  1
  O  O10  1  0.69501361  0.30245100  0.69501361  1
  O  O11  1  0.93806302  0.55339858  0.57047539  1
  O  O12  1  0.55498639  0.94754900  0.94247722  1
  O  O13  1  0.93806302  0.55339858  0.93806302  1
loop_
_geom_bond_atom_site_label_1
_geom_bond_atom_site_label_2
_geom_bond_distance
_geom_bond_site_symmetry_2
Ca0 O8 2.320867 1_546
Ca0 O9 2.320867 1_555
Ca0 O11 2.603794 1_455
Ca0 O4 2.603794 1_545
Ca0 O1 2.653857 1_545
Ca0 O10 2.653857 1_455
Ca0 O2 2.653863 1_555
Ca0 O6 2.653863 1_445
Ca1 O9 2.320867 1_555
Ca1 O8 2.320867 1_645
Ca1 O7 2.603794 1_554
Ca1 O5 2.603794 1_545
Ca1 O1 2.653857 1_545
Ca1 O10 2.653857 1_554
Ca1 O3 2.653863 1_555
Ca1 O12 2.653863 1_544
Ca2 O9 2.320861 1_555
Ca2 O8 2.320861 1_545
Ca2 O13 2.603794 1_454
Ca2 O0 2.603794 1_545
Ca2 O12 2.653858 1_544
Ca2 O3 2.653858 1_455
Ca2 O2 2.653858 1_554
Ca2 O6 2.653858 1_445
Hg0 O8 2.108596 1_555
Hg0 O9 2.108596 1_555
O0 Ta0 1.981776 1_555
O0 Ta2 1.981776 1_555
O1 Ta3 1.973307 1_555
O1 Ta1 1.975323 1_565
O2 Ta2 1.973309 1_555
O2 Ta1 1.975317 1_555
O3 Ta0 1.973309 1_555
O3 Ta1 1.975317 1_555
O4 Ta2 1.981776 1_555
O4 Ta3 1.981776 1_555
O5 Ta0 1.981776 1_555
O5 Ta3 1.981776 1_555
O6 Ta2 1.973309 1_655
O6 Ta1 1.975317 1_565
O7 Ta0 1.981776 1_556
O7 Ta3 1.981776 1_555
O10 Ta3 1.973307 1_555
O10 Ta1 1.975323 1_555
O11 Ta2 1.981776 1_655
O11 Ta3 1.981776 1_555
O12 Ta0 1.973309 1_556
O12 Ta1 1.975317 1_565
O13 Ta0 1.981776 1_556
O13 Ta2 1.981776 1_655
