# generated using pymatgen
data_Yb(InSe2)2
_symmetry_space_group_name_H-M   'P 1'
_cell_length_a   6.08114134
_cell_length_b   6.08114134
_cell_length_c   10.29679799
_cell_angle_alpha   90.00000000
_cell_angle_beta   90.00000000
_cell_angle_gamma   109.49354207
_symmetry_Int_Tables_number   1
_chemical_formula_structural   Yb(InSe2)2
_chemical_formula_sum   'Yb2 In4 Se8'
_cell_volume   358.95191106
_cell_formula_units_Z   2
loop_
 _symmetry_equiv_pos_site_id
 _symmetry_equiv_pos_as_xyz
  1  'x, y, z'
loop_
 _atom_site_type_symbol
 _atom_site_label
 _atom_site_symmetry_multiplicity
 _atom_site_fract_x
 _atom_site_fract_y
 _atom_site_fract_z
 _atom_site_occupancy
  Yb  Yb0  1  0.50000000  0.50000000  0.25000000  1
  Yb  Yb1  1  0.50000000  0.50000000  0.75000000  1
  In  In0  1  0.78739930  0.18083404  0.50000000  1
  In  In1  1  0.21260070  0.81916596  0.50000000  1
  In  In2  1  0.81916596  0.21260070  0.00000000  1
  In  In3  1  0.18083404  0.78739930  0.00000000  1
  Se  Se0  1  0.75139655  0.63819184  0.50000000  1
  Se  Se1  1  0.24860345  0.36180816  0.50000000  1
  Se  Se2  1  0.36180816  0.24860345  0.00000000  1
  Se  Se3  1  0.63819184  0.75139655  0.00000000  1
  Se  Se4  1  0.00000000  0.50000000  0.20172067  1
  Se  Se5  1  0.50000000  0.00000000  0.29827933  1
  Se  Se6  1  0.00000000  0.50000000  0.79827933  1
  Se  Se7  1  0.50000000  0.00000000  0.70172067  1
loop_
_geom_bond_atom_site_label_1
_geom_bond_atom_site_label_2
_geom_bond_distance
_geom_bond_site_symmetry_2
In0 Se1 2.649003 1_655
In0 Se7 2.700992 1_555
In0 Se5 2.700992 1_555
In0 Se0 2.861769 1_555
In0 Se0 3.233418 1_545
In1 Se0 2.649003 1_455
In1 Se7 2.700992 1_565
In1 Se5 2.700992 1_565
In1 Se1 2.861769 1_555
In1 Se1 3.233418 1_565
In2 Se3 2.649003 1_545
In2 Se4 2.700992 1_655
In2 Se6 2.700992 1_654
In2 Se2 2.861769 1_555
In2 Se2 3.233418 1_655
In3 Se2 2.649003 1_565
In3 Se4 2.700992 1_555
In3 Se6 2.700992 1_554
In3 Se3 2.861769 1_555
In3 Se3 3.233418 1_455
Se0 Yb0 2.968577 1_555
Se0 Yb1 2.968577 1_555
Se1 Yb1 2.968577 1_555
Se1 Yb0 2.968577 1_555
Se2 Yb1 2.968577 1_554
Se2 Yb0 2.968577 1_555
Se3 Yb0 2.968577 1_555
Se3 Yb1 2.968577 1_554
Se4 Yb0 3.080942 1_555
Se4 Yb0 3.080942 1_455
Se5 Yb0 3.080942 1_545
Se5 Yb0 3.080942 1_555
Se6 Yb1 3.080942 1_455
Se6 Yb1 3.080942 1_555
Se7 Yb1 3.080942 1_545
Se7 Yb1 3.080942 1_555
