# generated using pymatgen
data_TiNb11(Zn3C)4
_symmetry_space_group_name_H-M   'P 1'
_cell_length_a   8.29873333
_cell_length_b   8.30513210
_cell_length_c   8.30514186
_cell_angle_alpha   59.84165759
_cell_angle_beta   60.02544277
_cell_angle_gamma   60.02555249
_symmetry_Int_Tables_number   1
_chemical_formula_structural   TiNb11(Zn3C)4
_chemical_formula_sum   'Ti1 Nb11 Zn12 C4'
_cell_volume   404.42209623
_cell_formula_units_Z   1
loop_
 _symmetry_equiv_pos_site_id
 _symmetry_equiv_pos_as_xyz
  1  'x, y, z'
loop_
 _atom_site_type_symbol
 _atom_site_label
 _atom_site_symmetry_multiplicity
 _atom_site_fract_x
 _atom_site_fract_y
 _atom_site_fract_z
 _atom_site_occupancy
  Ti  Ti0  1  0.67843215  0.32156785  0.32156785  1
  Nb  Nb0  1  0.93044280  0.93221717  0.56808919  1
  Nb  Nb1  1  0.56925084  0.93221717  0.56808819  1
  Nb  Nb2  1  0.93079556  0.56920444  0.56920444  1
  Nb  Nb3  1  0.56925084  0.56808919  0.93221717  1
  Nb  Nb4  1  0.93044380  0.56808819  0.93221717  1
  Nb  Nb5  1  0.57021008  0.92978992  0.92978992  1
  Nb  Nb6  1  0.31894060  0.31769695  0.68302849  1
  Nb  Nb7  1  0.68033297  0.31769695  0.68302649  1
  Nb  Nb8  1  0.31918181  0.68081819  0.68081819  1
  Nb  Nb9  1  0.68033397  0.68302849  0.31769695  1
  Nb  Nb10  1  0.31894260  0.68302649  0.31769695  1
  Zn  Zn0  1  0.33138158  0.33150015  0.00573568  1
  Zn  Zn1  1  0.33138258  0.00573568  0.33150015  1
  Zn  Zn2  1  0.99995324  0.33205979  0.33205979  1
  Zn  Zn3  1  0.33592617  0.33205979  0.33205979  1
  Zn  Zn4  1  0.91873453  0.91812197  0.24441097  1
  Zn  Zn5  1  0.91873553  0.24441097  0.91812197  1
  Zn  Zn6  1  0.24548824  0.91802400  0.91802300  1
  Zn  Zn7  1  0.91846476  0.91802300  0.91802400  1
  Zn  Zn8  1  0.12534844  0.12580072  0.62350439  1
  Zn  Zn9  1  0.12534744  0.62350439  0.12580072  1
  Zn  Zn10  1  0.62536403  0.12438102  0.12438202  1
  Zn  Zn11  1  0.12587193  0.12438202  0.12438102  1
  C  C0  1  0.62577315  0.61930781  0.12914588  1
  C  C1  1  0.62577215  0.12914588  0.61930781  1
  C  C2  1  0.12472544  0.62505141  0.62505141  1
  C  C3  1  0.62517075  0.62505141  0.62505141  1
loop_
_geom_bond_atom_site_label_1
_geom_bond_atom_site_label_2
_geom_bond_distance
_geom_bond_site_symmetry_2
Ti0 Zn2 2.758051 1_555
Ti0 Zn3 2.758059 1_555
Ti0 Zn11 3.113496 1_655
Ti0 Zn10 3.113502 1_555
Ti0 Zn4 3.133398 1_545
Ti0 Zn5 3.133399 1_554
Nb0 Zn4 2.799657 1_555
Nb0 Zn7 2.801592 1_555
Nb0 Zn2 3.073475 1_565
Nb0 Zn11 3.076062 1_665
Nb0 Zn8 3.081981 1_665
Nb0 Zn1 3.097788 1_665
Nb1 Zn4 2.799659 1_555
Nb1 Zn6 2.801588 1_555
Nb1 Zn3 3.073480 1_565
Nb1 Zn10 3.076051 1_565
Nb1 Zn8 3.081967 1_565
Nb1 Zn1 3.097779 1_565
Nb2 Zn4 2.794537 1_555
Nb2 Zn5 2.794537 1_555
Nb2 Zn8 3.080425 1_655
Nb2 Zn9 3.080426 1_655
Nb2 Zn3 3.118649 1_655
Nb2 Zn2 3.118653 1_555
Nb3 Zn5 2.799670 1_555
Nb3 Zn6 2.801591 1_555
Nb3 Zn3 3.073479 1_556
Nb3 Zn10 3.076063 1_556
Nb3 Zn9 3.081973 1_556
Nb3 Zn0 3.097788 1_556
Nb4 Zn5 2.799646 1_555
Nb4 Zn7 2.801588 1_555
Nb4 Zn2 3.073477 1_556
Nb4 Zn11 3.076050 1_656
Nb4 Zn9 3.081974 1_656
Nb4 Zn0 3.097779 1_656
Nb5 Zn7 2.795855 1_555
Nb5 Zn6 2.795855 1_555
Nb5 Zn10 3.087992 1_566
Nb5 Zn11 3.087997 1_566
Nb5 Zn0 3.116829 1_566
Nb5 Zn1 3.116829 1_566
Nb6 Zn3 2.790574 1_555
Nb6 Zn0 2.793551 1_556
Nb6 Zn11 3.060960 1_556
Nb6 Zn8 3.083683 1_555
Nb6 Zn6 3.085834 1_545
Nb6 Zn5 3.091798 1_455
Nb7 Zn2 2.790561 1_555
Nb7 Zn0 2.793555 1_556
Nb7 Zn10 3.060983 1_556
Nb7 Zn8 3.083709 1_655
Nb7 Zn7 3.085856 1_545
Nb7 Zn5 3.091853 1_555
Nb8 Zn0 2.796791 1_556
Nb8 Zn1 2.796791 1_565
Nb8 Zn8 3.086952 1_565
Nb8 Zn9 3.086952 1_556
Nb8 Zn7 3.102871 1_455
Nb8 Zn6 3.102871 1_555
Nb9 Zn2 2.790570 1_555
Nb9 Zn1 2.793551 1_565
Nb9 Zn10 3.060958 1_565
Nb9 Zn9 3.083690 1_655
Nb9 Zn7 3.085834 1_554
Nb9 Zn4 3.091819 1_555
Nb10 Zn3 2.790561 1_555
Nb10 Zn1 2.793560 1_565
Nb10 Zn11 3.060983 1_565
Nb10 Zn9 3.083695 1_555
Nb10 Zn6 3.085853 1_554
Nb10 Zn4 3.091824 1_455
Zn0 Zn9 2.526242 1_555
Zn0 Zn11 2.527361 1_555
Zn0 Zn10 2.527371 1_555
Zn0 Zn1 2.699041 1_555
Zn0 Zn2 2.731557 1_455
Zn0 Zn3 2.731560 1_555
Zn1 Zn8 2.526242 1_555
Zn1 Zn10 2.527355 1_555
Zn1 Zn11 2.527378 1_555
Zn1 Zn3 2.731553 1_555
Zn1 Zn2 2.731564 1_455
Zn2 Zn9 2.538802 1_655
Zn2 Zn8 2.538812 1_655
Zn2 Zn3 2.788150 1_655
Zn3 Zn8 2.538793 1_555
Zn3 Zn9 2.538803 1_555
Zn4 Zn9 2.537572 1_655
Zn4 Zn5 2.703387 1_564
Zn4 Zn6 2.712215 1_654
Zn4 Zn7 2.712222 1_554
Zn5 Zn8 2.537572 1_655
Zn5 Zn6 2.712210 1_645
Zn5 Zn7 2.712228 1_545
Zn6 Zn8 2.536022 1_565
Zn6 Zn9 2.536028 1_556
Zn6 Zn7 2.713881 1_455
Zn7 Zn9 2.536026 1_656
Zn7 Zn8 2.536033 1_665
Zn10 Zn4 2.529315 1_545
Zn10 Zn5 2.529322 1_554
Zn10 Zn7 2.532035 1_544
Zn10 Zn3 2.535552 1_555
Zn11 Zn5 2.529288 1_454
Zn11 Zn4 2.529294 1_445
Zn11 Zn6 2.532033 1_544
Zn11 Zn2 2.535552 1_455
C0 Ti0 2.122948 1_555
C0 Nb10 2.172048 1_555
C0 Nb9 2.172062 1_555
C0 Nb3 2.177357 1_554
C0 Nb4 2.177361 1_554
C0 Nb5 2.210898 1_554
C1 Ti0 2.122948 1_555
C1 Nb7 2.172049 1_555
C1 Nb6 2.172056 1_555
C1 Nb1 2.177355 1_545
C1 Nb0 2.177363 1_545
C1 Nb5 2.210898 1_545
C2 Nb2 2.174452 1_455
C2 Nb8 2.177699 1_555
C2 Nb4 2.184220 1_455
C2 Nb0 2.184224 1_455
C2 Nb6 2.185160 1_555
C2 Nb10 2.185163 1_555
C3 Nb2 2.174460 1_555
C3 Nb8 2.177691 1_555
C3 Nb1 2.184223 1_555
C3 Nb3 2.184227 1_555
C3 Nb9 2.185158 1_555
C3 Nb7 2.185163 1_555
