# generated using pymatgen
data_YLuWO6
_symmetry_space_group_name_H-M   'P 1'
_cell_length_a   5.30820454
_cell_length_b   7.56831276
_cell_length_c   11.20154390
_cell_angle_alpha   75.55159646
_cell_angle_beta   90.00000000
_cell_angle_gamma   90.00000000
_symmetry_Int_Tables_number   1
_chemical_formula_structural   YLuWO6
_chemical_formula_sum   'Y4 Lu4 W4 O24'
_cell_volume   435.77985743
_cell_formula_units_Z   4
loop_
 _symmetry_equiv_pos_site_id
 _symmetry_equiv_pos_as_xyz
  1  'x, y, z'
loop_
 _atom_site_type_symbol
 _atom_site_label
 _atom_site_symmetry_multiplicity
 _atom_site_fract_x
 _atom_site_fract_y
 _atom_site_fract_z
 _atom_site_occupancy
  Y  Y0  1  0.25609902  0.00000000  0.75000000  1
  Y  Y1  1  0.74390098  0.00000000  0.25000000  1
  Y  Y2  1  0.31695151  0.50000000  0.75000000  1
  Y  Y3  1  0.68304849  0.50000000  0.25000000  1
  Lu  Lu0  1  0.18164133  0.79404153  0.07938104  1
  Lu  Lu1  1  0.18164133  0.20595847  0.42061896  1
  Lu  Lu2  1  0.81835867  0.20595847  0.92061896  1
  Lu  Lu3  1  0.81835867  0.79404153  0.57938104  1
  W  W0  1  0.74315638  0.72311347  0.88692252  1
  W  W1  1  0.25684362  0.72311347  0.38692252  1
  W  W2  1  0.74315638  0.27688653  0.61307748  1
  W  W3  1  0.25684362  0.27688653  0.11307748  1
  O  O0  1  0.53939509  0.15850104  0.06713136  1
  O  O1  1  0.04911015  0.05969831  0.10127213  1
  O  O2  1  0.01587455  0.71448116  0.76987905  1
  O  O3  1  0.46060491  0.15850104  0.56713136  1
  O  O4  1  0.35155478  0.48785280  0.38694176  1
  O  O5  1  0.95088985  0.05969831  0.60127213  1
  O  O6  1  0.54327504  0.79049666  0.72499874  1
  O  O7  1  0.45672496  0.79049666  0.22499874  1
  O  O8  1  0.14914904  0.63426069  0.55012159  1
  O  O9  1  0.04911015  0.94030169  0.39872787  1
  O  O10  1  0.46060491  0.84149896  0.93286864  1
  O  O11  1  0.45672496  0.20950334  0.27500126  1
  O  O12  1  0.85085096  0.36573931  0.44987841  1
  O  O13  1  0.64844522  0.48785280  0.88694176  1
  O  O14  1  0.35155478  0.51214720  0.11305824  1
  O  O15  1  0.95088985  0.94030169  0.89872787  1
  O  O16  1  0.53939509  0.84149896  0.43286864  1
  O  O17  1  0.98412545  0.28551884  0.23012095  1
  O  O18  1  0.54327504  0.20950334  0.77500126  1
  O  O19  1  0.85085096  0.63426069  0.05012159  1
  O  O20  1  0.01587455  0.28551884  0.73012095  1
  O  O21  1  0.14914904  0.36573931  0.94987841  1
  O  O22  1  0.98412545  0.71448116  0.26987905  1
  O  O23  1  0.64844522  0.51214720  0.61305824  1
loop_
_geom_bond_atom_site_label_1
_geom_bond_atom_site_label_2
_geom_bond_distance
_geom_bond_site_symmetry_2
Lu0 O10 2.172794 1_554
Lu0 O7 2.184421 1_555
Lu0 O1 2.200790 1_565
Lu0 O19 2.202438 1_455
Lu0 O14 2.259612 1_555
Lu0 O22 2.318201 1_455
Lu0 O15 2.388049 1_454
Lu1 O3 2.172794 1_555
Lu1 O11 2.184421 1_555
Lu1 O9 2.200790 1_545
Lu1 O12 2.202438 1_455
Lu1 O4 2.259612 1_555
Lu1 O17 2.318201 1_455
Lu1 O5 2.388049 1_455
Lu2 O0 2.172794 1_556
Lu2 O18 2.184421 1_555
Lu2 O15 2.200790 1_545
Lu2 O21 2.202438 1_655
Lu2 O13 2.259612 1_555
Lu2 O20 2.318201 1_655
Lu2 O1 2.388049 1_656
Lu3 O16 2.172794 1_555
Lu3 O6 2.184421 1_555
Lu3 O5 2.200790 1_565
Lu3 O8 2.202438 1_655
Lu3 O23 2.259612 1_555
Lu3 O2 2.318201 1_655
Lu3 O9 2.388049 1_655
O0 W3 1.883426 1_555
O0 Y1 2.363732 1_555
O1 W3 2.010919 1_555
O1 Y1 2.286653 1_455
O2 W0 1.965091 1_455
O2 Y2 2.327898 1_555
O2 Y0 2.470824 1_565
O3 W2 1.883426 1_555
O3 Y0 2.363732 1_555
O4 W1 1.850091 1_555
O4 Y3 2.321084 1_555
O5 W2 2.010919 1_555
O5 Y0 2.286653 1_655
O6 W0 2.052825 1_555
O6 Y0 2.266686 1_565
O6 Y2 2.459305 1_555
O7 W1 2.052825 1_555
O7 Y1 2.266686 1_565
O7 Y3 2.459305 1_555
O8 W1 1.872816 1_555
O8 Y2 2.388202 1_555
O9 W1 2.010919 1_555
O9 Y1 2.286653 1_465
O10 W0 1.883426 1_555
O10 Y0 2.363732 1_565
O11 W3 2.052825 1_555
O11 Y1 2.266686 1_555
O11 Y3 2.459305 1_555
O12 W2 1.872816 1_555
O12 Y3 2.388202 1_555
O13 W0 1.850091 1_555
O13 Y2 2.321084 1_555
O14 W3 1.850091 1_555
O14 Y3 2.321084 1_555
O15 W0 2.010919 1_555
O15 Y0 2.286653 1_665
O16 W1 1.883426 1_555
O16 Y1 2.363732 1_565
O17 W3 1.965091 1_655
O17 Y3 2.327898 1_555
O17 Y1 2.470824 1_555
O18 W2 2.052825 1_555
O18 Y0 2.266686 1_555
O18 Y2 2.459305 1_555
O19 W0 1.872816 1_554
O19 Y3 2.388202 1_555
O20 W2 1.965091 1_455
O20 Y2 2.327898 1_555
O20 Y0 2.470824 1_555
O21 W3 1.872816 1_556
O21 Y2 2.388202 1_555
O22 W1 1.965091 1_655
O22 Y3 2.327898 1_555
O22 Y1 2.470824 1_565
O23 W2 1.850091 1_555
O23 Y2 2.321084 1_555
