# generated using pymatgen
data_CaCdPbO4
_symmetry_space_group_name_H-M   'P 1'
_cell_length_a   3.36567065
_cell_length_b   5.76260997
_cell_length_c   9.87537893
_cell_angle_alpha   90.90116692
_cell_angle_beta   90.00000000
_cell_angle_gamma   90.00000000
_symmetry_Int_Tables_number   1
_chemical_formula_structural   CaCdPbO4
_chemical_formula_sum   'Ca2 Cd2 Pb2 O8'
_cell_volume   191.50975058
_cell_formula_units_Z   2
loop_
 _symmetry_equiv_pos_site_id
 _symmetry_equiv_pos_as_xyz
  1  'x, y, z'
loop_
 _atom_site_type_symbol
 _atom_site_label
 _atom_site_symmetry_multiplicity
 _atom_site_fract_x
 _atom_site_fract_y
 _atom_site_fract_z
 _atom_site_occupancy
  Ca  Ca0  1  0.50000000  0.93066663  0.31681052  1
  Ca  Ca1  1  0.50000000  0.06933337  0.68318948  1
  Cd  Cd0  1  0.50000000  0.43248884  0.17647078  1
  Cd  Cd1  1  0.50000000  0.56751116  0.82352922  1
  Pb  Pb0  1  0.00000000  0.50000000  0.50000000  1
  Pb  Pb1  1  0.00000000  0.00000000  0.00000000  1
  O  O0  1  0.00000000  0.14516565  0.19967305  1
  O  O1  1  0.00000000  0.85483435  0.80032695  1
  O  O2  1  0.00000000  0.63693335  0.29766818  1
  O  O3  1  0.00000000  0.36306665  0.70233182  1
  O  O4  1  0.50000000  0.25420318  0.46088275  1
  O  O5  1  0.50000000  0.74579682  0.53911725  1
  O  O6  1  0.50000000  0.76064129  0.04750852  1
  O  O7  1  0.50000000  0.23935871  0.95249148  1
loop_
_geom_bond_atom_site_label_1
_geom_bond_atom_site_label_2
_geom_bond_distance
_geom_bond_site_symmetry_2
Ca0 O4 2.327417 1_565
Ca0 O2 2.392224 1_555
Ca0 O2 2.392224 1_655
Ca0 O0 2.396440 1_665
Ca0 O0 2.396440 1_565
Ca0 O5 2.455223 1_555
Ca0 O6 2.819707 1_555
Ca1 O5 2.327417 1_545
Ca1 O3 2.392224 1_555
Ca1 O3 2.392224 1_655
Ca1 O1 2.396440 1_545
Ca1 O1 2.396440 1_645
Ca1 O4 2.455223 1_555
Ca1 O7 2.819707 1_555
Cd0 O6 2.296437 1_555
Cd0 O2 2.368138 1_555
Cd0 O2 2.368138 1_655
Cd0 O0 2.374409 1_655
Cd0 O0 2.374409 1_555
Cd0 O7 2.460407 1_554
Cd1 O7 2.296437 1_555
Cd1 O3 2.368138 1_555
Cd1 O3 2.368138 1_655
Cd1 O1 2.374409 1_655
Cd1 O1 2.374409 1_555
Cd1 O6 2.460407 1_556
O0 Pb1 2.129808 1_555
O1 Pb1 2.129808 1_566
O2 Pb0 2.159787 1_555
O3 Pb0 2.159787 1_555
O4 Pb0 2.229401 1_655
O4 Pb0 2.229401 1_555
O5 Pb0 2.229401 1_555
O5 Pb0 2.229401 1_655
O6 Pb1 2.230462 1_565
O6 Pb1 2.230462 1_665
O7 Pb1 2.230462 1_556
O7 Pb1 2.230462 1_656
