# generated using pymatgen
data_RbCdH6Ir
_symmetry_space_group_name_H-M   'P 1'
_cell_length_a   7.56354305
_cell_length_b   7.56354305
_cell_length_c   7.56354305
_cell_angle_alpha   90.00000000
_cell_angle_beta   90.00000000
_cell_angle_gamma   90.00000000
_symmetry_Int_Tables_number   1
_chemical_formula_structural   RbCdH6Ir
_chemical_formula_sum   'Rb4 Cd4 H24 Ir4'
_cell_volume   432.68899542
_cell_formula_units_Z   4
loop_
 _symmetry_equiv_pos_site_id
 _symmetry_equiv_pos_as_xyz
  1  'x, y, z'
loop_
 _atom_site_type_symbol
 _atom_site_label
 _atom_site_symmetry_multiplicity
 _atom_site_fract_x
 _atom_site_fract_y
 _atom_site_fract_z
 _atom_site_occupancy
  Rb  Rb0  1  0.00000000  0.00000000  0.50000000  1
  Rb  Rb1  1  0.00000000  0.50000000  0.00000000  1
  Rb  Rb2  1  0.50000000  0.00000000  0.00000000  1
  Rb  Rb3  1  0.00000000  0.00000000  0.00000000  1
  Cd  Cd0  1  0.50000000  0.50000000  0.50000000  1
  Cd  Cd1  1  0.00000000  0.50000000  0.50000000  1
  Cd  Cd2  1  0.50000000  0.00000000  0.50000000  1
  Cd  Cd3  1  0.50000000  0.50000000  0.00000000  1
  H  H0  1  0.72757094  0.72757094  0.50125358  1
  H  H1  1  0.27242906  0.27242906  0.50125358  1
  H  H2  1  0.06058457  0.71868577  0.71868577  1
  H  H3  1  0.28131423  0.93941543  0.71868577  1
  H  H4  1  0.71868577  0.06058457  0.71868577  1
  H  H5  1  0.93941543  0.28131423  0.71868577  1
  H  H6  1  0.72757094  0.50125358  0.72757094  1
  H  H7  1  0.50125358  0.72757094  0.72757094  1
  H  H8  1  0.49874642  0.27242906  0.72757094  1
  H  H9  1  0.27242906  0.49874642  0.72757094  1
  H  H10  1  0.28131423  0.71868577  0.93941543  1
  H  H11  1  0.71868577  0.28131423  0.93941543  1
  H  H12  1  0.71868577  0.71868577  0.06058457  1
  H  H13  1  0.28131423  0.28131423  0.06058457  1
  H  H14  1  0.27242906  0.50125358  0.27242906  1
  H  H15  1  0.49874642  0.72757094  0.27242906  1
  H  H16  1  0.50125358  0.27242906  0.27242906  1
  H  H17  1  0.72757094  0.49874642  0.27242906  1
  H  H18  1  0.93941543  0.71868577  0.28131423  1
  H  H19  1  0.71868577  0.93941543  0.28131423  1
  H  H20  1  0.28131423  0.06058457  0.28131423  1
  H  H21  1  0.06058457  0.28131423  0.28131423  1
  H  H22  1  0.27242906  0.72757094  0.49874642  1
  H  H23  1  0.72757094  0.27242906  0.49874642  1
  Ir  Ir0  1  0.28434000  0.71566000  0.71566000  1
  Ir  Ir1  1  0.71566000  0.28434000  0.71566000  1
  Ir  Ir2  1  0.71566000  0.71566000  0.28434000  1
  Ir  Ir3  1  0.28434000  0.28434000  0.28434000  1
loop_
_geom_bond_atom_site_label_1
_geom_bond_atom_site_label_2
_geom_bond_distance
_geom_bond_site_symmetry_2
Cd0 H6 2.434223 1_555
Cd0 H7 2.434223 1_555
Cd0 H0 2.434223 1_555
Cd0 H15 2.434223 1_555
Cd0 H22 2.434223 1_555
Cd0 H23 2.434223 1_555
Cd0 H17 2.434223 1_555
Cd0 H8 2.434223 1_555
Cd0 H9 2.434223 1_555
Cd0 H16 2.434223 1_555
Cd0 H14 2.434223 1_555
Cd0 H1 2.434223 1_555
Cd1 H2 2.383625 1_555
Cd1 H5 2.383625 1_455
Cd1 H18 2.383625 1_455
Cd1 H21 2.383625 1_555
Cd2 H4 2.383625 1_555
Cd2 H19 2.383625 1_545
Cd2 H3 2.383625 1_545
Cd2 H20 2.383625 1_555
Cd3 H12 2.383625 1_555
Cd3 H11 2.383625 1_554
Cd3 H10 2.383625 1_554
Cd3 H13 2.383625 1_555
H0 Ir2 1.645575 1_555
H0 Rb0 2.914043 1_665
H1 Ir3 1.645575 1_555
H1 Rb0 2.914043 1_555
H2 Ir0 1.692693 1_555
H2 Rb1 2.733691 1_556
H2 Rb0 2.733691 1_565
H2 Rb3 3.043759 1_566
H3 Ir0 1.692693 1_555
H3 Rb0 2.733691 1_565
H3 Rb2 2.733691 1_566
H3 Rb3 3.043759 1_566
H4 Ir1 1.692693 1_555
H4 Rb2 2.733691 1_556
H4 Rb0 2.733691 1_655
H4 Rb3 3.043759 1_656
H5 Ir1 1.692693 1_555
H5 Rb0 2.733691 1_655
H5 Rb1 2.733691 1_656
H5 Rb3 3.043759 1_656
H6 Ir1 1.645575 1_555
H6 Rb1 2.914043 1_656
H7 Ir0 1.645575 1_555
H7 Rb2 2.914043 1_566
H8 Ir1 1.645575 1_555
H8 Rb2 2.914043 1_556
H9 Ir0 1.645575 1_555
H9 Rb1 2.914043 1_556
H10 Ir0 1.692693 1_555
H10 Rb1 2.733691 1_556
H10 Rb2 2.733691 1_566
H10 Rb3 3.043759 1_566
H11 Ir1 1.692693 1_555
H11 Rb2 2.733691 1_556
H11 Rb1 2.733691 1_656
H11 Rb3 3.043759 1_656
H12 Ir2 1.692693 1_555
H12 Rb2 2.733691 1_565
H12 Rb1 2.733691 1_655
H12 Rb3 3.043759 1_665
H13 Ir3 1.692693 1_555
H13 Rb1 2.733691 1_555
H13 Rb2 2.733691 1_555
H13 Rb3 3.043759 1_555
H14 Ir3 1.645575 1_555
H14 Rb1 2.914043 1_555
H15 Ir2 1.645575 1_555
H15 Rb2 2.914043 1_565
H16 Ir3 1.645575 1_555
H16 Rb2 2.914043 1_555
H17 Ir2 1.645575 1_555
H17 Rb1 2.914043 1_655
H18 Ir2 1.692693 1_555
H18 Rb1 2.733691 1_655
H18 Rb0 2.733691 1_665
H18 Rb3 3.043759 1_665
H19 Ir2 1.692693 1_555
H19 Rb2 2.733691 1_565
H19 Rb0 2.733691 1_665
H19 Rb3 3.043759 1_665
H20 Ir3 1.692693 1_555
H20 Rb0 2.733691 1_555
H20 Rb2 2.733691 1_555
H20 Rb3 3.043759 1_555
H21 Ir3 1.692693 1_555
H21 Rb0 2.733691 1_555
H21 Rb1 2.733691 1_555
H21 Rb3 3.043759 1_555
H22 Ir0 1.645575 1_555
H22 Rb0 2.914043 1_565
H23 Ir1 1.645575 1_555
H23 Rb0 2.914043 1_655
