# generated using pymatgen
data_Sr3LiIr2N3
_symmetry_space_group_name_H-M   'P 1'
_cell_length_a   5.48246524
_cell_length_b   9.23054620
_cell_length_c   13.37413005
_cell_angle_alpha   90.00000000
_cell_angle_beta   90.00000000
_cell_angle_gamma   90.00000000
_symmetry_Int_Tables_number   1
_chemical_formula_structural   Sr3LiIr2N3
_chemical_formula_sum   'Sr12 Li4 Ir8 N12'
_cell_volume   676.81321329
_cell_formula_units_Z   4
loop_
 _symmetry_equiv_pos_site_id
 _symmetry_equiv_pos_as_xyz
  1  'x, y, z'
loop_
 _atom_site_type_symbol
 _atom_site_label
 _atom_site_symmetry_multiplicity
 _atom_site_fract_x
 _atom_site_fract_y
 _atom_site_fract_z
 _atom_site_occupancy
  Sr  Sr0  1  0.49674936  0.48176497  0.74560192  1
  Sr  Sr1  1  0.99674936  0.01823503  0.25439808  1
  Sr  Sr2  1  0.00325064  0.98176497  0.75439808  1
  Sr  Sr3  1  0.50325064  0.51823503  0.24560192  1
  Sr  Sr4  1  0.97352819  0.34195003  0.40803440  1
  Sr  Sr5  1  0.47352819  0.15804997  0.59196560  1
  Sr  Sr6  1  0.52647181  0.84195003  0.09196560  1
  Sr  Sr7  1  0.02647181  0.65804997  0.90803440  1
  Sr  Sr8  1  0.99559890  0.66502868  0.58086871  1
  Sr  Sr9  1  0.49559890  0.83497132  0.41913129  1
  Sr  Sr10  1  0.50440110  0.16502868  0.91913129  1
  Sr  Sr11  1  0.00440110  0.33497132  0.08086871  1
  Li  Li0  1  0.51860801  0.81208699  0.85676998  1
  Li  Li1  1  0.01860801  0.68791301  0.14323002  1
  Li  Li2  1  0.98139199  0.31208699  0.64323002  1
  Li  Li3  1  0.48139199  0.18791301  0.35676998  1
  Ir  Ir0  1  0.48847527  0.17358738  0.16678836  1
  Ir  Ir1  1  0.98847527  0.32641262  0.83321164  1
  Ir  Ir2  1  0.01152473  0.67358738  0.33321164  1
  Ir  Ir3  1  0.51152473  0.82641262  0.66678836  1
  Ir  Ir4  1  0.02624117  0.99022017  0.00647804  1
  Ir  Ir5  1  0.52624117  0.50977983  0.99352196  1
  Ir  Ir6  1  0.47375883  0.49022017  0.49352196  1
  Ir  Ir7  1  0.97375883  0.00977983  0.50647804  1
  N  N0  1  0.27240857  0.74132922  0.75018918  1
  N  N1  1  0.77240857  0.75867078  0.24981082  1
  N  N2  1  0.22759143  0.24132922  0.74981082  1
  N  N3  1  0.72759143  0.25867078  0.25018918  1
  N  N4  1  0.22441595  0.08758702  0.42718912  1
  N  N5  1  0.72441595  0.41241298  0.57281088  1
  N  N6  1  0.27558405  0.58758702  0.07281088  1
  N  N7  1  0.77558405  0.91241298  0.92718912  1
  N  N8  1  0.74179762  0.91826862  0.58594125  1
  N  N9  1  0.24179762  0.58173138  0.41405875  1
  N  N10  1  0.75820238  0.41826862  0.91405875  1
  N  N11  1  0.25820238  0.08173138  0.08594125  1
loop_
_geom_bond_atom_site_label_1
_geom_bond_atom_site_label_2
_geom_bond_distance
_geom_bond_site_symmetry_2
Li0 N7 1.931182 1_555
Li0 N0 2.068895 1_555
Li1 N6 1.931182 1_555
Li1 N1 2.068895 1_455
Li2 N5 1.931182 1_555
Li2 N2 2.068895 1_655
Li3 N4 1.931182 1_555
Li3 N3 2.068895 1_555
Ir0 N11 1.865968 1_555
Ir0 N3 1.891964 1_555
Ir1 N10 1.865968 1_555
Ir1 N2 1.891964 1_655
Ir2 N9 1.865968 1_555
Ir2 N1 1.891964 1_455
Ir3 N8 1.865968 1_555
Ir3 N0 1.891964 1_555
Ir4 N11 1.860168 1_565
Ir4 N7 1.878506 1_454
Ir5 N10 1.860168 1_555
Ir5 N6 1.878506 1_556
Ir6 N9 1.860168 1_555
Ir6 N5 1.878506 1_555
Ir7 N8 1.860168 1_545
Ir7 N4 1.878506 1_655
N0 Sr7 2.620198 1_555
N0 Sr2 2.665753 1_555
N0 Sr0 2.693873 1_555
N0 Sr8 2.815522 1_455
N1 Sr6 2.620198 1_555
N1 Sr3 2.665753 1_555
N1 Sr1 2.693873 1_565
N1 Sr9 2.815522 1_555
N2 Sr5 2.620198 1_555
N2 Sr0 2.665753 1_555
N2 Sr2 2.693873 1_545
N2 Sr10 2.815522 1_555
N3 Sr4 2.620198 1_555
N3 Sr1 2.665753 1_555
N3 Sr3 2.693873 1_555
N3 Sr11 2.815522 1_655
N4 Sr5 2.672973 1_555
N4 Sr1 2.703356 1_455
N4 Sr4 2.733178 1_455
N4 Sr9 2.767534 1_545
N5 Sr4 2.672973 1_555
N5 Sr0 2.703356 1_555
N5 Sr5 2.733178 1_555
N5 Sr8 2.767534 1_555
N6 Sr7 2.672973 1_554
N6 Sr3 2.703356 1_555
N6 Sr6 2.733178 1_555
N6 Sr11 2.767534 1_555
N7 Sr6 2.672973 1_556
N7 Sr2 2.703356 1_655
N7 Sr7 2.733178 1_655
N7 Sr10 2.767534 1_565
N8 Sr5 2.658652 1_565
N8 Sr9 2.718484 1_555
N8 Sr8 2.721187 1_555
N8 Sr2 2.733865 1_655
N9 Sr4 2.658652 1_455
N9 Sr8 2.718484 1_455
N9 Sr9 2.721187 1_555
N9 Sr3 2.733865 1_555
N10 Sr7 2.658652 1_655
N10 Sr11 2.718484 1_656
N10 Sr10 2.721187 1_555
N10 Sr0 2.733865 1_555
N11 Sr6 2.658652 1_545
N11 Sr10 2.718484 1_554
N11 Sr11 2.721187 1_555
N11 Sr1 2.733865 1_455
