# generated using pymatgen
data_Hg4SbS2Cl5
_symmetry_space_group_name_H-M   'P 1'
_cell_length_a   8.00382914
_cell_length_b   10.65391292
_cell_length_c   8.82932977
_cell_angle_alpha   90.00000000
_cell_angle_beta   112.02750047
_cell_angle_gamma   90.00000000
_symmetry_Int_Tables_number   1
_chemical_formula_structural   Hg4SbS2Cl5
_chemical_formula_sum   'Hg8 Sb2 S4 Cl10'
_cell_volume   697.93708063
_cell_formula_units_Z   2
loop_
 _symmetry_equiv_pos_site_id
 _symmetry_equiv_pos_as_xyz
  1  'x, y, z'
loop_
 _atom_site_type_symbol
 _atom_site_label
 _atom_site_symmetry_multiplicity
 _atom_site_fract_x
 _atom_site_fract_y
 _atom_site_fract_z
 _atom_site_occupancy
  Hg  Hg0  1  0.92356440  0.17873453  0.32899210  1
  Hg  Hg1  1  0.07643560  0.67873453  0.67100790  1
  Hg  Hg2  1  0.95348572  0.66922170  0.35546099  1
  Hg  Hg3  1  0.04651428  0.16922170  0.64453901  1
  Hg  Hg4  1  0.49398099  0.18294325  0.98492971  1
  Hg  Hg5  1  0.50601901  0.68294325  0.01507029  1
  Hg  Hg6  1  0.80975818  0.43131744  0.02065526  1
  Hg  Hg7  1  0.19024182  0.93131744  0.97934474  1
  Sb  Sb0  1  0.50180392  0.42956766  0.52142466  1
  Sb  Sb1  1  0.49819608  0.92956766  0.47857534  1
  S  S0  1  0.80431395  0.20499490  0.02729802  1
  S  S1  1  0.19568605  0.70499490  0.97270198  1
  S  S2  1  0.18588515  0.15615874  0.94701770  1
  S  S3  1  0.81411485  0.65615874  0.05298230  1
  Cl  Cl0  1  0.83270750  0.92032059  0.67293994  1
  Cl  Cl1  1  0.16729250  0.42032059  0.32706006  1
  Cl  Cl2  1  0.85946375  0.43063517  0.70925969  1
  Cl  Cl3  1  0.14053625  0.93063517  0.29074031  1
  Cl  Cl4  1  0.39831888  0.45007646  0.78676084  1
  Cl  Cl5  1  0.60168112  0.95007646  0.21323916  1
  Cl  Cl6  1  0.58937729  0.39343112  0.27500715  1
  Cl  Cl7  1  0.41062271  0.89343112  0.72499285  1
  Cl  Cl8  1  0.49920977  0.20620043  0.57440045  1
  Cl  Cl9  1  0.50079023  0.70620043  0.42559955  1
loop_
_geom_bond_atom_site_label_1
_geom_bond_atom_site_label_2
_geom_bond_distance
_geom_bond_site_symmetry_2
Hg0 S0 2.485512 1_555
Hg1 S1 2.485512 1_555
Hg2 S3 2.482256 1_555
Hg3 S2 2.482256 1_555
Hg4 S2 2.378067 1_555
Hg4 S0 2.380689 1_556
Hg5 S3 2.378067 1_555
Hg5 S1 2.380689 1_554
Hg6 S3 2.411089 1_555
Hg6 S0 2.412725 1_555
Hg7 S2 2.411089 1_565
Hg7 S1 2.412725 1_555
Cl0 Sb1 2.583909 1_555
Cl1 Sb0 2.583909 1_555
Cl2 Sb0 2.717387 1_555
Cl2 Hg6 2.921999 1_556
Cl3 Sb1 2.717387 1_555
Cl3 Hg7 2.921999 1_554
Cl4 Sb0 2.770875 1_555
Cl5 Sb1 2.770875 1_555
Cl6 Sb0 2.552860 1_555
Cl7 Sb1 2.552860 1_555
Cl8 Sb0 2.426857 1_555
Cl8 Sb1 3.065431 1_545
Cl9 Sb1 2.426857 1_555
Cl9 Sb0 3.065431 1_555
