# generated using pymatgen
data_Zr6Al8Si8Os7
_symmetry_space_group_name_H-M   'P 1'
_cell_length_a   8.57588247
_cell_length_b   8.57588265
_cell_length_c   8.57588191
_cell_angle_alpha   60.00000286
_cell_angle_beta   60.00000216
_cell_angle_gamma   59.99999777
_symmetry_Int_Tables_number   1
_chemical_formula_structural   Zr6Al8Si8Os7
_chemical_formula_sum   'Zr6 Al8 Si8 Os7'
_cell_volume   445.98623353
_cell_formula_units_Z   1
loop_
 _symmetry_equiv_pos_site_id
 _symmetry_equiv_pos_as_xyz
  1  'x, y, z'
loop_
 _atom_site_type_symbol
 _atom_site_label
 _atom_site_symmetry_multiplicity
 _atom_site_fract_x
 _atom_site_fract_y
 _atom_site_fract_z
 _atom_site_occupancy
  Zr  Zr0  1  0.19324422  0.80675578  0.80675578  1
  Zr  Zr1  1  0.80675578  0.19324422  0.19324422  1
  Zr  Zr2  1  0.80675578  0.19324422  0.80675578  1
  Zr  Zr3  1  0.80675578  0.80675578  0.19324422  1
  Zr  Zr4  1  0.19324422  0.80675578  0.19324422  1
  Zr  Zr5  1  0.19324422  0.19324422  0.80675578  1
  Al  Al0  1  0.62243346  0.62243346  0.62243346  1
  Al  Al1  1  0.62243346  0.62243346  0.13270262  1
  Al  Al2  1  0.13270262  0.62243346  0.62243346  1
  Al  Al3  1  0.62243346  0.13270262  0.62243346  1
  Al  Al4  1  0.37756654  0.37756654  0.37756654  1
  Al  Al5  1  0.37756654  0.37756654  0.86729738  1
  Al  Al6  1  0.37756654  0.86729738  0.37756654  1
  Al  Al7  1  0.86729738  0.37756654  0.37756654  1
  Si  Si0  1  0.84438605  0.84438605  0.84438605  1
  Si  Si1  1  0.84438605  0.84438605  0.46684184  1
  Si  Si2  1  0.46684184  0.84438605  0.84438605  1
  Si  Si3  1  0.84438605  0.46684184  0.84438605  1
  Si  Si4  1  0.15561395  0.15561395  0.15561395  1
  Si  Si5  1  0.15561395  0.15561395  0.53315816  1
  Si  Si6  1  0.15561395  0.53315816  0.15561395  1
  Si  Si7  1  0.53315816  0.15561395  0.15561395  1
  Os  Os0  1  0.50000000  0.50000000  0.50000000  1
  Os  Os1  1  0.00000000  0.50000000  0.50000000  1
  Os  Os2  1  0.50000000  0.00000000  0.00000000  1
  Os  Os3  1  0.50000000  0.00000000  0.50000000  1
  Os  Os4  1  0.50000000  0.50000000  0.00000000  1
  Os  Os5  1  0.00000000  0.50000000  0.00000000  1
  Os  Os6  1  0.00000000  0.00000000  0.50000000  1
loop_
_geom_bond_atom_site_label_1
_geom_bond_atom_site_label_2
_geom_bond_distance
_geom_bond_site_symmetry_2
Al0 Os0 2.571903 1_555
Al0 Os4 2.644277 1_556
Al0 Os1 2.644277 1_655
Al0 Os3 2.644277 1_565
Al0 Si3 2.751371 1_555
Al0 Si2 2.751371 1_555
Al0 Si1 2.751371 1_555
Al0 Al6 2.969778 1_555
Al0 Al7 2.969778 1_555
Al0 Al5 2.969778 1_555
Al0 Zr0 3.067113 1_555
Al0 Zr3 3.067113 1_555
Al0 Zr2 3.067113 1_555
Al1 Os0 2.571882 1_555
Al1 Os5 2.644277 1_655
Al1 Os2 2.644277 1_565
Al1 Os4 2.644298 1_555
Al1 Si0 2.751376 1_554
Al1 Si3 2.751391 1_554
Al1 Si2 2.751391 1_554
Al1 Al6 2.969741 1_555
Al1 Al7 2.969741 1_555
Al1 Al4 2.969778 1_555
Al1 Zr3 3.067095 1_555
Al1 Zr4 3.067117 1_555
Al1 Zr1 3.067118 1_555
Al2 Os0 2.571882 1_555
Al2 Os5 2.644277 1_556
Al2 Os6 2.644277 1_565
Al2 Os1 2.644298 1_555
Al2 Si0 2.751376 1_455
Al2 Si1 2.751391 1_455
Al2 Si3 2.751392 1_455
Al2 Al5 2.969741 1_555
Al2 Al6 2.969741 1_555
Al2 Al4 2.969778 1_555
Al2 Zr0 3.067095 1_555
Al2 Zr4 3.067117 1_555
Al2 Zr5 3.067118 1_555
Al3 Os0 2.571882 1_555
Al3 Os2 2.644277 1_556
Al3 Os6 2.644277 1_655
Al3 Os3 2.644298 1_555
Al3 Si0 2.751376 1_545
Al3 Si1 2.751391 1_545
Al3 Si2 2.751392 1_545
Al3 Al5 2.969741 1_555
Al3 Al7 2.969741 1_555
Al3 Al4 2.969778 1_555
Al3 Zr2 3.067095 1_555
Al3 Zr1 3.067117 1_555
Al3 Zr5 3.067118 1_555
Al4 Os0 2.571903 1_555
Al4 Os4 2.644277 1_555
Al4 Os1 2.644277 1_555
Al4 Os3 2.644277 1_555
Al4 Si6 2.751371 1_555
Al4 Si7 2.751371 1_555
Al4 Si5 2.751371 1_555
Al4 Zr1 3.067113 1_555
Al4 Zr5 3.067113 1_555
Al4 Zr4 3.067113 1_555
Al5 Os0 2.571882 1_555
Al5 Os5 2.644277 1_556
Al5 Os2 2.644277 1_556
Al5 Os4 2.644298 1_556
Al5 Si4 2.751376 1_556
Al5 Si6 2.751391 1_556
Al5 Si7 2.751391 1_556
Al5 Zr5 3.067095 1_555
Al5 Zr2 3.067117 1_555
Al5 Zr0 3.067118 1_555
Al6 Os0 2.571882 1_555
Al6 Os2 2.644277 1_565
Al6 Os6 2.644277 1_565
Al6 Os3 2.644298 1_565
Al6 Si4 2.751376 1_565
Al6 Si5 2.751391 1_565
Al6 Si7 2.751392 1_565
Al6 Zr4 3.067095 1_555
Al6 Zr0 3.067117 1_555
Al6 Zr3 3.067118 1_555
Al7 Os0 2.571882 1_555
Al7 Os5 2.644277 1_655
Al7 Os6 2.644277 1_655
Al7 Os1 2.644298 1_655
Al7 Si4 2.751376 1_655
Al7 Si5 2.751391 1_655
Al7 Si6 2.751392 1_655
Al7 Zr1 3.067095 1_555
Al7 Zr2 3.067117 1_555
Al7 Zr3 3.067118 1_555
Si0 Zr3 2.707791 1_556
Si0 Zr0 2.707792 1_655
Si0 Zr2 2.707792 1_565
Si1 Zr3 2.707791 1_555
Si1 Zr4 2.707792 1_655
Si1 Zr1 2.707792 1_565
Si2 Zr5 2.707792 1_565
Si2 Zr4 2.707792 1_556
Si2 Zr0 2.707792 1_555
Si3 Zr5 2.707792 1_655
Si3 Zr2 2.707792 1_555
Si3 Zr1 2.707792 1_556
Si4 Zr5 2.707791 1_554
Si4 Zr1 2.707792 1_455
Si4 Zr4 2.707792 1_545
Si5 Zr5 2.707791 1_555
Si5 Zr2 2.707792 1_455
Si5 Zr0 2.707792 1_545
Si6 Zr3 2.707792 1_455
Si6 Zr4 2.707792 1_555
Si6 Zr0 2.707792 1_554
Si7 Zr3 2.707792 1_545
Si7 Zr2 2.707792 1_554
Si7 Zr1 2.707792 1_555
Os1 Si3 2.486508 1_455
Os1 Si6 2.486508 1_555
Os1 Si1 2.486508 1_455
Os1 Si5 2.486508 1_555
Os2 Si7 2.486508 1_555
Os2 Si2 2.486508 1_544
Os2 Si4 2.486508 1_555
Os2 Si0 2.486508 1_544
Os3 Si2 2.486508 1_545
Os3 Si7 2.486508 1_555
Os3 Si1 2.486508 1_545
Os3 Si5 2.486508 1_555
Os4 Si3 2.486508 1_554
Os4 Si6 2.486508 1_555
Os4 Si2 2.486508 1_554
Os4 Si7 2.486508 1_555
Os5 Si6 2.486508 1_555
Os5 Si3 2.486508 1_454
Os5 Si0 2.486508 1_454
Os5 Si4 2.486508 1_555
Os6 Si5 2.486508 1_555
Os6 Si0 2.486508 1_445
Os6 Si4 2.486508 1_555
Os6 Si1 2.486508 1_445
