# generated using pymatgen
data_Sr4Cr(IN2)2
_symmetry_space_group_name_H-M   'P 1'
_cell_length_a   5.92976239
_cell_length_b   8.00248312
_cell_length_c   11.04735911
_cell_angle_alpha   84.06787317
_cell_angle_beta   90.00000000
_cell_angle_gamma   90.00000000
_symmetry_Int_Tables_number   1
_chemical_formula_structural   Sr4Cr(IN2)2
_chemical_formula_sum   'Sr8 Cr2 I4 N8'
_cell_volume   521.42114998
_cell_formula_units_Z   2
loop_
 _symmetry_equiv_pos_site_id
 _symmetry_equiv_pos_as_xyz
  1  'x, y, z'
loop_
 _atom_site_type_symbol
 _atom_site_label
 _atom_site_symmetry_multiplicity
 _atom_site_fract_x
 _atom_site_fract_y
 _atom_site_fract_z
 _atom_site_occupancy
  Sr  Sr0  1  0.75000000  0.26524208  0.31119546  1
  Sr  Sr1  1  0.75000000  0.00945857  0.61254194  1
  Sr  Sr2  1  0.75000000  0.45300911  0.59042195  1
  Sr  Sr3  1  0.75000000  0.76192667  0.13794444  1
  Sr  Sr4  1  0.25000000  0.99054143  0.38745806  1
  Sr  Sr5  1  0.25000000  0.54699089  0.40957805  1
  Sr  Sr6  1  0.25000000  0.23807333  0.86205556  1
  Sr  Sr7  1  0.25000000  0.73475792  0.68880454  1
  Cr  Cr0  1  0.75000000  0.76696525  0.41365585  1
  Cr  Cr1  1  0.25000000  0.23303475  0.58634415  1
  I  I0  1  0.25000000  0.35383413  0.15453471  1
  I  I1  1  0.75000000  0.64616587  0.84546529  1
  I  I2  1  0.25000000  0.86795705  0.08133907  1
  I  I3  1  0.75000000  0.13204295  0.91866093  1
  N  N0  1  0.25000000  0.05793482  0.69035309  1
  N  N1  1  0.01190115  0.23532385  0.49272378  1
  N  N2  1  0.51190115  0.76467615  0.50727622  1
  N  N3  1  0.98809885  0.76467615  0.50727622  1
  N  N4  1  0.75000000  0.58685767  0.33653390  1
  N  N5  1  0.75000000  0.94206518  0.30964691  1
  N  N6  1  0.48809885  0.23532385  0.49272378  1
  N  N7  1  0.25000000  0.41314233  0.66346610  1
loop_
_geom_bond_atom_site_label_1
_geom_bond_atom_site_label_2
_geom_bond_distance
_geom_bond_site_symmetry_2
Cr0 N5 1.717823 1_555
Cr0 N4 1.748453 1_555
Cr0 N3 1.749138 1_555
Cr0 N2 1.749138 1_555
Cr1 N0 1.717823 1_555
Cr1 N7 1.748453 1_555
Cr1 N6 1.749138 1_555
Cr1 N1 1.749138 1_555
I0 Sr5 3.350840 1_555
I0 Sr6 3.452104 1_554
I0 Sr0 3.469121 1_455
I0 Sr0 3.469121 1_555
I0 Sr4 3.677915 1_545
I1 Sr2 3.350840 1_555
I1 Sr3 3.452104 1_556
I1 Sr7 3.469121 1_555
I1 Sr7 3.469121 1_655
I1 Sr1 3.677915 1_565
I2 Sr3 3.129194 1_555
I2 Sr3 3.129194 1_455
I2 Sr4 3.617273 1_555
I2 Sr6 3.627393 1_564
I3 Sr6 3.129194 1_655
I3 Sr6 3.129194 1_555
I3 Sr1 3.617273 1_555
I3 Sr3 3.627393 1_546
N0 Sr6 2.498272 1_555
N0 Sr7 2.588042 1_545
N0 Sr1 3.122317 1_455
N0 Sr1 3.122317 1_555
N1 Sr0 2.528159 1_455
N1 Sr1 2.633708 1_455
N1 Sr2 2.645756 1_455
N1 Sr4 2.766542 1_545
N1 Sr5 2.929870 1_555
N2 Sr7 2.528159 1_555
N2 Sr4 2.633708 1_555
N2 Sr5 2.645756 1_555
N2 Sr1 2.766542 1_565
N2 Sr2 2.929870 1_555
N3 Sr7 2.528159 1_655
N3 Sr4 2.633708 1_655
N3 Sr5 2.645756 1_655
N3 Sr1 2.766542 1_565
N3 Sr2 2.929870 1_555
N4 Sr3 2.478023 1_555
N4 Sr0 2.617504 1_555
N4 Sr2 2.897098 1_555
N4 Sr5 3.080625 1_655
N4 Sr5 3.080625 1_555
N5 Sr3 2.498272 1_555
N5 Sr0 2.588042 1_565
N5 Sr4 3.122317 1_555
N5 Sr4 3.122317 1_655
N6 Sr0 2.528159 1_555
N6 Sr1 2.633708 1_555
N6 Sr2 2.645756 1_555
N6 Sr4 2.766542 1_545
N6 Sr5 2.929870 1_555
N7 Sr6 2.478023 1_555
N7 Sr7 2.617504 1_555
N7 Sr5 2.897098 1_555
N7 Sr2 3.080625 1_555
N7 Sr2 3.080625 1_455
