# generated using pymatgen
data_Tb2Se2O7
_symmetry_space_group_name_H-M   'P 1'
_cell_length_a   10.59637512
_cell_length_b   10.59637512
_cell_length_c   5.21773064
_cell_angle_alpha   90.00000000
_cell_angle_beta   90.00000000
_cell_angle_gamma   90.00000000
_symmetry_Int_Tables_number   1
_chemical_formula_structural   Tb2Se2O7
_chemical_formula_sum   'Tb8 Se8 O28'
_cell_volume   585.86331394
_cell_formula_units_Z   4
loop_
 _symmetry_equiv_pos_site_id
 _symmetry_equiv_pos_as_xyz
  1  'x, y, z'
loop_
 _atom_site_type_symbol
 _atom_site_label
 _atom_site_symmetry_multiplicity
 _atom_site_fract_x
 _atom_site_fract_y
 _atom_site_fract_z
 _atom_site_occupancy
  Tb  Tb0  1  0.12197393  0.87802607  0.75000000  1
  Tb  Tb1  1  0.37802607  0.37802607  0.25000000  1
  Tb  Tb2  1  0.62197393  0.62197393  0.25000000  1
  Tb  Tb3  1  0.87802607  0.12197393  0.75000000  1
  Tb  Tb4  1  0.37802607  0.62197393  0.75000000  1
  Tb  Tb5  1  0.12197393  0.12197393  0.25000000  1
  Tb  Tb6  1  0.87802607  0.87802607  0.25000000  1
  Tb  Tb7  1  0.62197393  0.37802607  0.75000000  1
  Se  Se0  1  0.62173209  0.12173209  0.21398745  1
  Se  Se1  1  0.37826791  0.87826791  0.21398745  1
  Se  Se2  1  0.37826791  0.12173209  0.71398745  1
  Se  Se3  1  0.62173209  0.87826791  0.71398745  1
  Se  Se4  1  0.12173209  0.62173209  0.28601255  1
  Se  Se5  1  0.12173209  0.37826791  0.78601255  1
  Se  Se6  1  0.87826791  0.62173209  0.78601255  1
  Se  Se7  1  0.87826791  0.37826791  0.28601255  1
  O  O0  1  0.75234787  0.92985105  0.87747733  1
  O  O1  1  0.24765213  0.07014895  0.87747733  1
  O  O2  1  0.57014895  0.25234787  0.37747733  1
  O  O3  1  0.42985105  0.74765213  0.37747733  1
  O  O4  1  0.92985105  0.75234787  0.62252267  1
  O  O5  1  0.25234787  0.57014895  0.12252267  1
  O  O6  1  0.74765213  0.42985105  0.12252267  1
  O  O7  1  0.07014895  0.24765213  0.62252267  1
  O  O8  1  0.74765213  0.57014895  0.62252267  1
  O  O9  1  0.25234787  0.42985105  0.62252267  1
  O  O10  1  0.92985105  0.24765213  0.12252267  1
  O  O11  1  0.07014895  0.75234787  0.12252267  1
  O  O12  1  0.57014895  0.74765213  0.87747733  1
  O  O13  1  0.24765213  0.92985105  0.37747733  1
  O  O14  1  0.75234787  0.07014895  0.37747733  1
  O  O15  1  0.42985105  0.25234787  0.87747733  1
  O  O16  1  -0.00000000  0.00000000  0.50000000  1
  O  O17  1  0.50000000  0.50000000  0.00000000  1
  O  O18  1  0.50000000  0.50000000  0.50000000  1
  O  O19  1  -0.00000000  0.00000000  0.00000000  1
  O  O20  1  0.81429940  0.31429940  0.55799408  1
  O  O21  1  0.81429940  0.68570060  0.05799408  1
  O  O22  1  0.18570060  0.31429940  0.05799408  1
  O  O23  1  0.18570060  0.68570060  0.55799408  1
  O  O24  1  0.68570060  0.81429940  0.44200592  1
  O  O25  1  0.31429940  0.18570060  0.44200592  1
  O  O26  1  0.31429940  0.81429940  0.94200592  1
  O  O27  1  0.68570060  0.18570060  0.94200592  1
loop_
_geom_bond_atom_site_label_1
_geom_bond_atom_site_label_2
_geom_bond_distance
_geom_bond_site_symmetry_2
O0 Se3 1.715243 1_555
O0 Tb6 2.419328 1_556
O0 Tb3 2.521990 1_565
O1 Se2 1.715243 1_555
O1 Tb5 2.419328 1_556
O1 Tb0 2.521990 1_545
O2 Se0 1.715243 1_555
O2 Tb7 2.419328 1_555
O2 Tb1 2.521990 1_555
O3 Se1 1.715243 1_555
O3 Tb4 2.419328 1_555
O3 Tb2 2.521990 1_555
O4 Se6 1.715243 1_555
O4 Tb6 2.419328 1_555
O4 Tb0 2.521990 1_655
O5 Se4 1.715243 1_555
O5 Tb4 2.419328 1_554
O5 Tb1 2.521990 1_555
O6 Se7 1.715243 1_555
O6 Tb7 2.419328 1_554
O6 Tb2 2.521990 1_555
O7 Se5 1.715243 1_555
O7 Tb5 2.419328 1_555
O7 Tb3 2.521990 1_455
O8 Se6 1.715243 1_555
O8 Tb2 2.419328 1_555
O8 Tb7 2.521990 1_555
O9 Se5 1.715243 1_555
O9 Tb1 2.419328 1_555
O9 Tb4 2.521990 1_555
O10 Se7 1.715243 1_555
O10 Tb3 2.419328 1_554
O10 Tb5 2.521990 1_655
O11 Se4 1.715243 1_555
O11 Tb0 2.419328 1_554
O11 Tb6 2.521990 1_455
O12 Se3 1.715243 1_555
O12 Tb2 2.419328 1_556
O12 Tb4 2.521990 1_555
O13 Se1 1.715243 1_555
O13 Tb0 2.419328 1_555
O13 Tb5 2.521990 1_565
O14 Se0 1.715243 1_555
O14 Tb3 2.419328 1_555
O14 Tb6 2.521990 1_545
O15 Se2 1.715243 1_555
O15 Tb1 2.419328 1_556
O15 Tb7 2.521990 1_555
O16 Tb5 2.245565 1_555
O16 Tb0 2.245565 1_545
O16 Tb3 2.245565 1_455
O16 Tb6 2.245565 1_445
O17 Tb2 2.245565 1_555
O17 Tb7 2.245565 1_554
O17 Tb1 2.245565 1_555
O17 Tb4 2.245565 1_554
O18 Tb4 2.245565 1_555
O18 Tb7 2.245565 1_555
O18 Tb2 2.245565 1_555
O18 Tb1 2.245565 1_555
O19 Tb0 2.245565 1_544
O19 Tb5 2.245565 1_555
O19 Tb3 2.245565 1_454
O19 Tb6 2.245565 1_445
O20 Se7 1.712553 1_555
O20 Tb3 2.369160 1_555
O20 Tb7 2.369160 1_555
O21 Se6 1.712553 1_554
O21 Tb6 2.369160 1_555
O21 Tb2 2.369160 1_555
O22 Se5 1.712553 1_554
O22 Tb5 2.369160 1_555
O22 Tb1 2.369160 1_555
O23 Se4 1.712553 1_555
O23 Tb0 2.369160 1_555
O23 Tb4 2.369160 1_555
O24 Se3 1.712553 1_555
O24 Tb6 2.369160 1_555
O24 Tb2 2.369160 1_555
O25 Se2 1.712553 1_555
O25 Tb5 2.369160 1_555
O25 Tb1 2.369160 1_555
O26 Se1 1.712553 1_556
O26 Tb4 2.369160 1_555
O26 Tb0 2.369160 1_555
O27 Se0 1.712553 1_556
O27 Tb7 2.369160 1_555
O27 Tb3 2.369160 1_555
