# generated using pymatgen
data_ZrHg3(TeCl3)2
_symmetry_space_group_name_H-M   'P 1'
_cell_length_a   7.98619910
_cell_length_b   6.78173881
_cell_length_c   13.74850485
_cell_angle_alpha   89.34450224
_cell_angle_beta   90.00000000
_cell_angle_gamma   90.00000000
_symmetry_Int_Tables_number   1
_chemical_formula_structural   ZrHg3(TeCl3)2
_chemical_formula_sum   'Zr2 Hg6 Te4 Cl12'
_cell_volume   744.57464180
_cell_formula_units_Z   2
loop_
 _symmetry_equiv_pos_site_id
 _symmetry_equiv_pos_as_xyz
  1  'x, y, z'
loop_
 _atom_site_type_symbol
 _atom_site_label
 _atom_site_symmetry_multiplicity
 _atom_site_fract_x
 _atom_site_fract_y
 _atom_site_fract_z
 _atom_site_occupancy
  Zr  Zr0  1  0.50000000  0.50000000  0.50000000  1
  Zr  Zr1  1  0.00000000  0.50000000  0.00000000  1
  Hg  Hg0  1  0.28060307  0.00386682  0.74033500  1
  Hg  Hg1  1  0.78060307  0.99613318  0.75966500  1
  Hg  Hg2  1  0.21939693  0.00386682  0.24033500  1
  Hg  Hg3  1  0.50000000  0.00000000  0.00000000  1
  Hg  Hg4  1  0.71939693  0.99613318  0.25966500  1
  Hg  Hg5  1  0.00000000  0.00000000  0.50000000  1
  Te  Te0  1  0.47684647  0.79228846  0.16832302  1
  Te  Te1  1  0.97684647  0.20771154  0.33167698  1
  Te  Te2  1  0.02315353  0.79228846  0.66832302  1
  Te  Te3  1  0.52315353  0.20771154  0.83167698  1
  Cl  Cl0  1  0.31130912  0.75667788  0.43347495  1
  Cl  Cl1  1  0.25527137  0.32529195  0.57191900  1
  Cl  Cl2  1  0.02949554  0.31358904  0.84681737  1
  Cl  Cl3  1  0.24472863  0.32529195  0.07191900  1
  Cl  Cl4  1  0.74472863  0.67470805  0.42808100  1
  Cl  Cl5  1  0.18869088  0.75667788  0.93347495  1
  Cl  Cl6  1  0.47050446  0.31358904  0.34681737  1
  Cl  Cl7  1  0.81130912  0.24332212  0.06652505  1
  Cl  Cl8  1  0.97050446  0.68641096  0.15318263  1
  Cl  Cl9  1  0.52949554  0.68641096  0.65318263  1
  Cl  Cl10  1  0.68869088  0.24332212  0.56652505  1
  Cl  Cl11  1  0.75527137  0.67470805  0.92808100  1
loop_
_geom_bond_atom_site_label_1
_geom_bond_atom_site_label_2
_geom_bond_distance
_geom_bond_site_symmetry_2
Hg0 Te3 2.698161 1_555
Hg0 Te2 2.701644 1_545
Hg1 Te2 2.698161 1_655
Hg1 Te3 2.701644 1_565
Hg2 Te1 2.698161 1_455
Hg2 Te0 2.701644 1_545
Hg3 Te0 2.701733 1_545
Hg3 Te3 2.701733 1_554
Hg4 Te0 2.698161 1_555
Hg4 Te1 2.701644 1_565
Hg5 Te2 2.701733 1_545
Hg5 Te1 2.701733 1_455
Cl0 Zr0 2.470027 1_555
Cl1 Zr0 2.484868 1_555
Cl2 Zr1 2.479910 1_556
Cl3 Zr1 2.484868 1_555
Cl4 Zr0 2.484868 1_555
Cl5 Zr1 2.470027 1_556
Cl6 Zr0 2.479910 1_555
Cl7 Zr1 2.470027 1_655
Cl8 Zr1 2.479910 1_655
Cl9 Zr0 2.479910 1_555
Cl10 Zr0 2.470027 1_555
Cl11 Zr1 2.484868 1_656
