# generated using pymatgen
data_Zr6Zn21Ag2As
_symmetry_space_group_name_H-M   'P 1'
_cell_length_a   8.73736523
_cell_length_b   8.73736505
_cell_length_c   8.73736559
_cell_angle_alpha   59.91663535
_cell_angle_beta   59.91663804
_cell_angle_gamma   59.91663306
_symmetry_Int_Tables_number   1
_chemical_formula_structural   Zr6Zn21Ag2As
_chemical_formula_sum   'Zr6 Zn21 Ag2 As1'
_cell_volume   470.76527668
_cell_formula_units_Z   1
loop_
 _symmetry_equiv_pos_site_id
 _symmetry_equiv_pos_as_xyz
  1  'x, y, z'
loop_
 _atom_site_type_symbol
 _atom_site_label
 _atom_site_symmetry_multiplicity
 _atom_site_fract_x
 _atom_site_fract_y
 _atom_site_fract_z
 _atom_site_occupancy
  Zr  Zr0  1  0.70901561  0.28971486  0.28971486  1
  Zr  Zr1  1  0.28604704  0.71405268  0.71405268  1
  Zr  Zr2  1  0.28971486  0.70901561  0.28971486  1
  Zr  Zr3  1  0.71405268  0.28604704  0.71405268  1
  Zr  Zr4  1  0.28971486  0.28971486  0.70901561  1
  Zr  Zr5  1  0.71405268  0.71405268  0.28604704  1
  Zn  Zn0  1  0.87179446  0.87179446  0.87179446  1
  Zn  Zn1  1  0.12707074  0.12707074  0.62282652  1
  Zn  Zn2  1  0.12707074  0.62282652  0.12707074  1
  Zn  Zn3  1  0.87866497  0.87866497  0.36971140  1
  Zn  Zn4  1  0.87866497  0.36971140  0.87866497  1
  Zn  Zn5  1  0.62282652  0.12707074  0.12707074  1
  Zn  Zn6  1  0.36971140  0.87866497  0.87866497  1
  Zn  Zn7  1  0.50336926  0.99977060  0.99977060  1
  Zn  Zn8  1  0.99960654  0.50080996  0.50080996  1
  Zn  Zn9  1  0.99977060  0.50336926  0.99977060  1
  Zn  Zn10  1  0.50080996  0.99960654  0.50080996  1
  Zn  Zn11  1  0.99977060  0.99977060  0.50336926  1
  Zn  Zn12  1  0.50080996  0.50080996  0.99960654  1
  Zn  Zn13  1  0.33396065  0.33396065  0.33396065  1
  Zn  Zn14  1  0.66801370  0.66801370  0.66801370  1
  Zn  Zn15  1  0.33334357  0.33334357  0.00107505  1
  Zn  Zn16  1  0.33334357  0.00107505  0.33334357  1
  Zn  Zn17  1  0.66627323  0.66627323  0.00065048  1
  Zn  Zn18  1  0.66627323  0.00065048  0.66627323  1
  Zn  Zn19  1  0.00107505  0.33334357  0.33334357  1
  Zn  Zn20  1  0.00065048  0.66627323  0.66627323  1
  Ag  Ag0  1  0.12017845  0.12017845  0.12017845  1
  Ag  Ag1  1  0.99236877  0.99236877  0.99236877  1
  As  As0  1  0.50197989  0.50197989  0.50197989  1
loop_
_geom_bond_atom_site_label_1
_geom_bond_atom_site_label_2
_geom_bond_distance
_geom_bond_site_symmetry_2
Zn0 Zn18 2.625989 1_565
Zn0 Zn17 2.625989 1_556
Zn0 Zn20 2.625989 1_655
Zn0 Zn9 2.626668 1_555
Zn0 Zn7 2.626668 1_555
Zn0 Zn11 2.626669 1_555
Zn0 Zr3 2.966798 1_565
Zn0 Zr1 2.966798 1_655
Zn0 Zr5 2.966798 1_556
Zn1 Zn13 2.652099 1_555
Zn1 Zn19 2.662696 1_555
Zn1 Zn16 2.662696 1_555
Zn1 Zn8 2.663570 1_455
Zn1 Zn10 2.663571 1_545
Zn1 Zn11 2.670510 1_445
Zn1 Zr4 2.962488 1_555
Zn1 Zr1 2.964536 1_545
Zn1 Zr3 2.964536 1_455
Zn2 Zn8 2.663571 1_455
Zn2 Zn9 2.670510 1_454
Zn2 Zr2 2.962488 1_555
Zn2 Zr5 2.964536 1_455
Zn2 Zr1 2.964537 1_554
Zn3 Zn8 2.693161 1_555
Zn3 Zr0 2.961342 1_565
Zn3 Zr2 2.961342 1_655
Zn3 Zr5 2.975498 1_555
Zn4 Zn9 2.683894 1_555
Zn4 Zn8 2.693162 1_555
Zn4 Zr4 2.961342 1_655
Zn4 Zr0 2.961342 1_556
Zn4 Zr3 2.975498 1_555
Zn5 Zn7 2.670510 1_544
Zn5 Zr0 2.962488 1_555
Zn5 Zr5 2.964536 1_545
Zn5 Zr3 2.964537 1_554
Zn6 Zn7 2.683894 1_555
Zn6 Zr4 2.961342 1_565
Zn6 Zr2 2.961342 1_556
Zn6 Zr1 2.975498 1_555
Zn7 Zr5 3.102614 1_556
Zn7 Zr3 3.102614 1_565
Zn7 Zr4 3.149246 1_565
Zn7 Zr2 3.149246 1_556
Zn8 Zr4 3.115839 1_655
Zn8 Zr2 3.115839 1_655
Zn8 Zr5 3.121818 1_555
Zn8 Zr3 3.121818 1_555
Zn9 Zr5 3.102614 1_556
Zn9 Zr1 3.102614 1_655
Zn9 Zr4 3.149246 1_655
Zn9 Zr0 3.149246 1_556
Zn10 Zn18 2.510388 1_565
Zn10 Zn14 2.513098 1_555
Zn10 Zn13 2.525148 1_565
Zn10 Zn16 2.528025 1_565
Zn10 Zn5 2.663571 1_565
Zn10 Zn3 2.693161 1_555
Zn10 Zn6 2.693162 1_555
Zn10 Zr4 3.115839 1_565
Zn10 Zr0 3.115839 1_565
Zn10 Zr5 3.121818 1_555
Zn10 Zr1 3.121818 1_555
Zn11 Zn20 2.519387 1_655
Zn11 Zn18 2.519387 1_565
Zn11 Zn19 2.525331 1_665
Zn11 Zn16 2.525331 1_665
Zn11 Zn3 2.683894 1_555
Zn11 Zr1 3.102614 1_655
Zn11 Zr3 3.102614 1_565
Zn11 Zr0 3.149246 1_565
Zn11 Zr2 3.149246 1_655
Zn12 Zn17 2.510388 1_556
Zn12 Zn14 2.513099 1_555
Zn12 Zn13 2.525149 1_556
Zn12 Zn15 2.528025 1_556
Zn12 Zn5 2.663571 1_556
Zn12 Zn2 2.663571 1_556
Zn12 Zn6 2.693161 1_555
Zn12 Zn4 2.693161 1_555
Zn12 Zr0 3.115839 1_556
Zn12 Zr2 3.115839 1_556
Zn12 Zr1 3.121818 1_555
Zn12 Zr3 3.121818 1_555
Zn13 Zn8 2.525149 1_455
Zn13 Zn2 2.652098 1_555
Zn13 Zn5 2.652098 1_555
Zn13 Zn16 2.913958 1_555
Zn13 Zn19 2.913958 1_555
Zn13 Zn15 2.913958 1_555
Zn13 Zr2 2.940632 1_555
Zn13 Zr0 2.940632 1_555
Zn13 Zr4 2.940632 1_555
Zn14 Zn8 2.513099 1_555
Zn14 Zn4 2.710356 1_555
Zn14 Zn6 2.710356 1_555
Zn14 Zn3 2.710356 1_555
Zn14 Zn18 2.891203 1_565
Zn14 Zn20 2.891203 1_655
Zn14 Zn17 2.891204 1_556
Zn14 Zr3 2.988681 1_555
Zn14 Zr1 2.988681 1_555
Zn14 Zr5 2.988681 1_555
Zn15 Zn7 2.525331 1_544
Zn15 Zn9 2.525331 1_454
Zn15 Zn5 2.662696 1_555
Zn15 Zn2 2.662696 1_555
Zn15 Zn16 2.899493 1_555
Zn15 Zn19 2.899493 1_555
Zn15 Zr1 2.970302 1_554
Zn15 Zr3 2.970302 1_554
Zn15 Zr4 2.983045 1_554
Zn16 Zn7 2.525331 1_544
Zn16 Zn5 2.662696 1_555
Zn16 Zn19 2.899492 1_555
Zn16 Zr5 2.970302 1_545
Zn16 Zr1 2.970302 1_545
Zn16 Zr2 2.983045 1_545
Zn17 Zn7 2.519387 1_554
Zn17 Zn9 2.519387 1_554
Zn17 Zn6 2.694271 1_554
Zn17 Zn4 2.694271 1_554
Zn17 Zn18 2.917894 1_564
Zn17 Zn20 2.917894 1_654
Zn17 Zr0 2.954062 1_555
Zn17 Zr2 2.954062 1_555
Zn17 Zr5 2.971301 1_555
Zn18 Zn7 2.519387 1_545
Zn18 Zn6 2.694271 1_545
Zn18 Zn3 2.694271 1_545
Zn18 Zn20 2.917894 1_645
Zn18 Zr4 2.954062 1_555
Zn18 Zr0 2.954062 1_555
Zn18 Zr3 2.971301 1_555
Zn19 Zn9 2.525331 1_454
Zn19 Zn8 2.528025 1_455
Zn19 Zn2 2.662696 1_555
Zn19 Zr5 2.970302 1_455
Zn19 Zr3 2.970302 1_455
Zn19 Zr0 2.983045 1_455
Zn20 Zn8 2.510388 1_455
Zn20 Zn9 2.519387 1_455
Zn20 Zn3 2.694271 1_455
Zn20 Zn4 2.694271 1_455
Zn20 Zr4 2.954062 1_555
Zn20 Zr2 2.954062 1_555
Zn20 Zr1 2.971301 1_555
Ag0 Zn9 2.733204 1_454
Ag0 Zn7 2.733204 1_544
Ag0 Zn11 2.733205 1_445
Ag0 Ag1 2.737116 1_444
Ag0 Zn16 2.759028 1_555
Ag0 Zn15 2.759028 1_555
Ag0 Zn19 2.759028 1_555
Ag0 Zr2 2.970572 1_545
Ag0 Zr0 2.970572 1_455
Ag0 Zr4 2.970572 1_554
Ag0 Zn4 2.983080 1_454
Ag0 Zn6 2.983080 1_544
Ag0 Zn3 2.983080 1_445
Ag1 Zn0 2.582166 1_555
Ag1 Zn2 2.639120 1_656
Ag1 Zn5 2.639120 1_566
Ag1 Zn1 2.639120 1_665
Ag1 Zn4 2.695572 1_565
Ag1 Zn6 2.695572 1_655
Ag1 Zn3 2.695572 1_556
As0 Zr3 2.618984 1_555
As0 Zr1 2.618984 1_555
As0 Zr5 2.618984 1_555
As0 Zr2 2.621680 1_555
As0 Zr0 2.621680 1_555
As0 Zr4 2.621680 1_555
