# generated using pymatgen
data_CsYBeF6
_symmetry_space_group_name_H-M   'P 1'
_cell_length_a   5.88426646
_cell_length_b   6.60543235
_cell_length_c   7.53510531
_cell_angle_alpha   64.50787505
_cell_angle_beta   90.00000000
_cell_angle_gamma   90.00000000
_symmetry_Int_Tables_number   1
_chemical_formula_structural   CsYBeF6
_chemical_formula_sum   'Cs2 Y2 Be2 F12'
_cell_volume   264.36236074
_cell_formula_units_Z   2
loop_
 _symmetry_equiv_pos_site_id
 _symmetry_equiv_pos_as_xyz
  1  'x, y, z'
loop_
 _atom_site_type_symbol
 _atom_site_label
 _atom_site_symmetry_multiplicity
 _atom_site_fract_x
 _atom_site_fract_y
 _atom_site_fract_z
 _atom_site_occupancy
  Cs  Cs0  1  0.25000000  0.10850992  0.77358455  1
  Cs  Cs1  1  0.75000000  0.89149008  0.22641545  1
  Y  Y0  1  0.25000000  0.40778556  0.17665012  1
  Y  Y1  1  0.75000000  0.59221444  0.82334988  1
  Be  Be0  1  0.25000000  0.76698001  0.46813906  1
  Be  Be1  1  0.75000000  0.23301999  0.53186094  1
  F  F0  1  0.46257465  0.71200735  0.60267548  1
  F  F1  1  0.53742535  0.28799265  0.39732452  1
  F  F2  1  0.96257465  0.28799265  0.39732452  1
  F  F3  1  0.03742535  0.71200735  0.60267548  1
  F  F4  1  0.25000000  0.62888217  0.34536832  1
  F  F5  1  0.75000000  0.37111783  0.65463168  1
  F  F6  1  0.49951340  0.68410907  0.00576044  1
  F  F7  1  0.50048660  0.31589093  0.99423956  1
  F  F8  1  0.99951340  0.31589093  0.99423956  1
  F  F9  1  0.00048660  0.68410907  0.00576044  1
  F  F10  1  0.25000000  0.01890237  0.31852654  1
  F  F11  1  0.75000000  0.98109763  0.68147346  1
loop_
_geom_bond_atom_site_label_1
_geom_bond_atom_site_label_2
_geom_bond_distance
_geom_bond_site_symmetry_2
Cs0 F7 2.962068 1_555
Cs0 F8 2.962068 1_455
Cs0 F6 2.975480 1_546
Cs0 F9 2.975480 1_546
Cs0 F1 3.067711 1_555
Cs0 F2 3.067711 1_455
Cs1 F9 2.962068 1_655
Cs1 F6 2.962068 1_555
Cs1 F8 2.975480 1_564
Cs1 F7 2.975480 1_564
Cs1 F3 3.067711 1_655
Cs1 F0 3.067711 1_555
Be0 F0 1.551545 1_555
Be0 F3 1.551545 1_555
Be0 F4 1.553792 1_555
Be0 F10 1.557308 1_565
Be1 F2 1.551545 1_555
Be1 F1 1.551545 1_555
Be1 F5 1.553792 1_555
Be1 F11 1.557308 1_545
F0 Y1 2.262507 1_555
F1 Y0 2.262507 1_555
F2 Y0 2.262507 1_655
F3 Y1 2.262507 1_455
F4 Y0 2.312419 1_555
F5 Y1 2.312419 1_555
F6 Y0 2.263211 1_555
F6 Y1 2.268983 1_554
F7 Y1 2.263211 1_555
F7 Y0 2.268983 1_556
F8 Y1 2.263211 1_555
F8 Y0 2.268983 1_656
F9 Y0 2.263211 1_555
F9 Y1 2.268983 1_454
F10 Y0 2.318948 1_555
F11 Y1 2.318948 1_555
