# generated using pymatgen
data_Y5ScAl16Os7
_symmetry_space_group_name_H-M   'P 1'
_cell_length_a   8.85414319
_cell_length_b   8.88769268
_cell_length_c   8.88769313
_cell_angle_alpha   59.75042296
_cell_angle_beta   60.12478734
_cell_angle_gamma   60.12479218
_symmetry_Int_Tables_number   1
_chemical_formula_structural   Y5ScAl16Os7
_chemical_formula_sum   'Y5 Sc1 Al16 Os7'
_cell_volume   494.53530572
_cell_formula_units_Z   1
loop_
 _symmetry_equiv_pos_site_id
 _symmetry_equiv_pos_as_xyz
  1  'x, y, z'
loop_
 _atom_site_type_symbol
 _atom_site_label
 _atom_site_symmetry_multiplicity
 _atom_site_fract_x
 _atom_site_fract_y
 _atom_site_fract_z
 _atom_site_occupancy
  Y  Y0  1  0.71059479  0.71004336  0.28940521  1
  Y  Y1  1  0.28995664  0.71004336  0.28940521  1
  Y  Y2  1  0.71217280  0.28782720  0.28782720  1
  Y  Y3  1  0.28995664  0.28940521  0.71004336  1
  Y  Y4  1  0.71059479  0.28940521  0.71004336  1
  Sc  Sc0  1  0.28494553  0.71505447  0.71505447  1
  Al  Al0  1  0.87881077  0.87794531  0.36443115  1
  Al  Al1  1  0.87881077  0.36443115  0.87794531  1
  Al  Al2  1  0.36093112  0.87768033  0.87768033  1
  Al  Al3  1  0.88370621  0.87768033  0.87768033  1
  Al  Al4  1  0.12231967  0.11629379  0.63906888  1
  Al  Al5  1  0.12231967  0.63906888  0.11629379  1
  Al  Al6  1  0.63556885  0.12118923  0.12118923  1
  Al  Al7  1  0.12205469  0.12118923  0.12118923  1
  Al  Al8  1  0.66957704  0.67016938  0.99067754  1
  Al  Al9  1  0.66957704  0.99067754  0.67016938  1
  Al  Al10  1  0.99610630  0.66927950  0.66927950  1
  Al  Al11  1  0.66533569  0.66927950  0.66927950  1
  Al  Al12  1  0.33072050  0.33466431  0.00389370  1
  Al  Al13  1  0.33072050  0.00389370  0.33466431  1
  Al  Al14  1  0.00932246  0.33042296  0.33042296  1
  Al  Al15  1  0.32983062  0.33042296  0.33042296  1
  Os  Os0  1  0.99904683  0.00095317  0.00095317  1
  Os  Os1  1  0.00112793  0.99887207  0.50200462  1
  Os  Os2  1  0.49799538  0.99887207  0.50200462  1
  Os  Os3  1  0.99938625  0.50061375  0.50061375  1
  Os  Os4  1  0.49799538  0.50200462  0.99887207  1
  Os  Os5  1  0.00112793  0.50200462  0.99887207  1
  Os  Os6  1  0.49938625  0.00061375  0.00061375  1
loop_
_geom_bond_atom_site_label_1
_geom_bond_atom_site_label_2
_geom_bond_distance
_geom_bond_site_symmetry_2
Al0 Os0 2.634299 1_565
Al0 Os3 2.735374 1_555
Al0 Os2 2.761484 1_555
Al0 Os1 2.761498 1_655
Al0 Y2 3.009726 1_565
Al0 Y0 3.015950 1_555
Al0 Y1 3.015965 1_655
Al1 Os0 2.634299 1_556
Al1 Os3 2.735374 1_555
Al1 Os4 2.761484 1_555
Al1 Os5 2.761498 1_655
Al1 Y2 3.009726 1_556
Al1 Y4 3.015950 1_555
Al1 Y3 3.015965 1_655
Al2 Os0 2.623417 1_466
Al2 Os2 2.724553 1_555
Al2 Os4 2.724553 1_555
Al2 Os6 2.786007 1_566
Al2 Sc0 2.945024 1_555
Al2 Y3 3.025539 1_565
Al2 Y1 3.025539 1_556
Al3 Os0 2.623432 1_566
Al3 Os5 2.724553 1_655
Al3 Os1 2.724553 1_655
Al3 Os6 2.785992 1_566
Al3 Sc0 2.945037 1_655
Al3 Y0 3.025537 1_556
Al3 Y4 3.025537 1_565
Al4 Os0 2.623417 1_456
Al4 Os2 2.724553 1_545
Al4 Os1 2.724567 1_545
Al4 Os3 2.785992 1_455
Al4 Sc0 2.945039 1_545
Al4 Y3 3.025524 1_555
Al4 Y4 3.025539 1_455
Al5 Os0 2.623417 1_465
Al5 Os4 2.724553 1_554
Al5 Os5 2.724567 1_554
Al5 Os3 2.785992 1_455
Al5 Sc0 2.945039 1_554
Al5 Y1 3.025524 1_555
Al5 Y0 3.025539 1_455
Al6 Os0 2.634299 1_555
Al6 Os6 2.735388 1_555
Al6 Os2 2.761484 1_545
Al6 Os4 2.761484 1_554
Al6 Y2 3.009711 1_555
Al6 Y0 3.015966 1_545
Al6 Y4 3.015966 1_554
Al7 Os0 2.634313 1_455
Al7 Os6 2.735373 1_555
Al7 Os5 2.761483 1_554
Al7 Os1 2.761483 1_545
Al7 Y2 3.009723 1_455
Al7 Y3 3.015963 1_554
Al7 Y1 3.015963 1_545
Al8 Os5 2.566946 1_655
Al8 Os4 2.566954 1_555
Al8 Os6 2.573656 1_566
Al8 Y2 3.055787 1_556
Al8 Y0 3.056684 1_556
Al8 Y1 3.056689 1_556
Al9 Os1 2.566946 1_655
Al9 Os2 2.566954 1_555
Al9 Os6 2.573656 1_566
Al9 Y2 3.055787 1_565
Al9 Y4 3.056684 1_565
Al9 Y3 3.056689 1_565
Al10 Os1 2.543467 1_655
Al10 Os5 2.543467 1_655
Al10 Os3 2.583115 1_555
Al10 Sc0 3.018484 1_655
Al10 Y1 3.042200 1_655
Al10 Y3 3.042200 1_655
Al11 Os4 2.543469 1_555
Al11 Os2 2.543469 1_555
Al11 Os3 2.583110 1_555
Al11 Sc0 3.018492 1_555
Al11 Y4 3.042203 1_555
Al11 Y0 3.042203 1_555
Al12 Os5 2.543466 1_554
Al12 Os4 2.543474 1_554
Al12 Os6 2.583107 1_555
Al12 Sc0 3.018490 1_554
Al12 Y3 3.042194 1_554
Al12 Y4 3.042199 1_554
Al13 Os1 2.543466 1_545
Al13 Os2 2.543474 1_545
Al13 Os6 2.583107 1_555
Al13 Sc0 3.018490 1_545
Al13 Y1 3.042194 1_545
Al13 Y0 3.042200 1_545
Al14 Os1 2.566946 1_545
Al14 Os5 2.566946 1_554
Al14 Os3 2.573664 1_455
Al14 Y2 3.055781 1_455
Al14 Y4 3.056689 1_455
Al14 Y0 3.056689 1_455
Al15 Os4 2.566949 1_554
Al15 Os2 2.566949 1_545
Al15 Os3 2.573659 1_455
Al15 Y2 3.055790 1_555
Al15 Y1 3.056693 1_555
Al15 Y3 3.056693 1_555
Os1 Sc0 3.142669 1_555
Os1 Y2 3.185148 1_465
Os1 Y4 3.187208 1_465
Os1 Y1 3.198902 1_555
Os2 Sc0 3.142668 1_555
Os2 Y2 3.185148 1_565
Os2 Y3 3.187208 1_565
Os2 Y0 3.198902 1_555
Os3 Y1 3.169619 1_655
Os3 Y4 3.169619 1_555
Os3 Y3 3.169620 1_655
Os3 Y0 3.169620 1_555
Os4 Sc0 3.142669 1_555
Os4 Y2 3.185148 1_556
Os4 Y1 3.187208 1_556
Os4 Y4 3.198902 1_555
Os5 Sc0 3.142668 1_555
Os5 Y2 3.185148 1_456
Os5 Y0 3.187208 1_456
Os5 Y3 3.198902 1_555
Os6 Y4 3.169620 1_554
Os6 Y1 3.169620 1_545
Os6 Y0 3.169620 1_545
Os6 Y3 3.169620 1_554
