# generated using pymatgen
data_CsZnH6Ir
_symmetry_space_group_name_H-M   'P 1'
_cell_length_a   7.17689891
_cell_length_b   7.19275917
_cell_length_c   7.21201834
_cell_angle_alpha   38.11443879
_cell_angle_beta   38.16791711
_cell_angle_gamma   38.22991882
_symmetry_Int_Tables_number   1
_chemical_formula_structural   CsZnH6Ir
_chemical_formula_sum   'Cs1 Zn1 H6 Ir1'
_cell_volume   127.67781650
_cell_formula_units_Z   1
loop_
 _symmetry_equiv_pos_site_id
 _symmetry_equiv_pos_as_xyz
  1  'x, y, z'
loop_
 _atom_site_type_symbol
 _atom_site_label
 _atom_site_symmetry_multiplicity
 _atom_site_fract_x
 _atom_site_fract_y
 _atom_site_fract_z
 _atom_site_occupancy
  Cs  Cs0  1  0.79556501  0.79343180  0.79060790  1
  Zn  Zn0  1  0.31322406  0.31569115  0.31813673  1
  H  H0  1  0.77060948  0.76982076  0.25549266  1
  H  H1  1  0.19150456  0.72601540  0.19401218  1
  H  H2  1  0.72476182  0.19196795  0.19318429  1
  H  H3  1  0.19243216  0.19361475  0.72715248  1
  H  H4  1  0.77134460  0.25743562  0.76989066  1
  H  H5  1  0.25949193  0.77110721  0.77057658  1
  Ir  Ir0  1  0.98106738  0.98091335  0.98094653  1
loop_
_geom_bond_atom_site_label_1
_geom_bond_atom_site_label_2
_geom_bond_distance
_geom_bond_site_symmetry_2
Cs0 H3 2.947361 1_655
Cs0 H3 2.949389 1_565
Cs0 H1 2.952291 1_655
Cs0 H1 2.957089 1_556
Cs0 H2 2.959542 1_565
Cs0 H2 2.961892 1_556
Cs0 H0 3.083748 1_556
Cs0 H4 3.088034 1_565
Cs0 H5 3.093994 1_655
H0 Ir0 1.636157 1_554
H1 Ir0 1.693918 1_454
H1 Zn0 1.815689 1_555
H2 Ir0 1.695022 1_544
H2 Zn0 1.809673 1_555
H3 Ir0 1.692862 1_445
H3 Zn0 1.822955 1_555
H4 Ir0 1.635126 1_545
H5 Ir0 1.634105 1_455
