# generated using pymatgen
data_Y2SiRhBr2
_symmetry_space_group_name_H-M   'P 1'
_cell_length_a   4.08635308
_cell_length_b   4.08635403
_cell_length_c   11.11316521
_cell_angle_alpha   90.00000000
_cell_angle_beta   90.00000000
_cell_angle_gamma   119.99998439
_symmetry_Int_Tables_number   1
_chemical_formula_structural   Y2SiRhBr2
_chemical_formula_sum   'Y2 Si1 Rh1 Br2'
_cell_volume   160.70905564
_cell_formula_units_Z   1
loop_
 _symmetry_equiv_pos_site_id
 _symmetry_equiv_pos_as_xyz
  1  'x, y, z'
loop_
 _atom_site_type_symbol
 _atom_site_label
 _atom_site_symmetry_multiplicity
 _atom_site_fract_x
 _atom_site_fract_y
 _atom_site_fract_z
 _atom_site_occupancy
  Y  Y0  1  0.00000000  0.00000000  0.17050707  1
  Y  Y1  1  0.00000000  0.00000000  0.82785272  1
  Si  Si0  1  0.66666700  0.33333300  0.99033253  1
  Rh  Rh0  1  0.33333300  0.66666700  0.01040004  1
  Br  Br0  1  0.33333300  0.66666700  0.66500865  1
  Br  Br1  1  0.66666700  0.33333300  0.33589898  1
loop_
_geom_bond_atom_site_label_1
_geom_bond_atom_site_label_2
_geom_bond_distance
_geom_bond_site_symmetry_2
Si0 Y1 2.970944 1_655
Si0 Y1 2.970947 1_555
Si0 Y1 2.970948 1_665
Si0 Y0 3.094402 1_656
Si0 Y0 3.094405 1_556
Si0 Y0 3.094406 1_666
Rh0 Si0 2.369772 1_454
Rh0 Si0 2.369773 1_564
Rh0 Si0 2.369779 1_554
Rh0 Y0 2.954992 1_565
Rh0 Y0 2.954995 1_665
Rh0 Y0 2.954995 1_555
Rh0 Y1 3.111530 1_564
Rh0 Y1 3.111533 1_664
Rh0 Y1 3.111533 1_554
Br0 Y1 2.973406 1_565
Br0 Y1 2.973409 1_665
Br0 Y1 2.973410 1_555
Br1 Y0 2.990724 1_655
Br1 Y0 2.990727 1_555
Br1 Y0 2.990727 1_665
