# generated using pymatgen
data_Lu12In2Fe2Os
_symmetry_space_group_name_H-M   'P 1'
_cell_length_a   8.17200730
_cell_length_b   8.17197973
_cell_length_c   8.17200826
_cell_angle_alpha   108.81562611
_cell_angle_beta   108.81573065
_cell_angle_gamma   110.79055150
_symmetry_Int_Tables_number   1
_chemical_formula_structural   Lu12In2Fe2Os
_chemical_formula_sum   'Lu12 In2 Fe2 Os1'
_cell_volume   419.94171766
_cell_formula_units_Z   1
loop_
 _symmetry_equiv_pos_site_id
 _symmetry_equiv_pos_as_xyz
  1  'x, y, z'
loop_
 _atom_site_type_symbol
 _atom_site_label
 _atom_site_symmetry_multiplicity
 _atom_site_fract_x
 _atom_site_fract_y
 _atom_site_fract_z
 _atom_site_occupancy
  Lu  Lu0  1  0.30989873  0.30989812  0.61982261  1
  Lu  Lu1  1  0.69010127  0.69010188  0.38017739  1
  Lu  Lu2  1  0.69007552  0.30989812  0.00000040  1
  Lu  Lu3  1  0.30992448  0.69010188  0.99999960  1
  Lu  Lu4  1  0.18971943  0.42915885  0.23943942  1
  Lu  Lu5  1  0.81028057  0.57084115  0.76056058  1
  Lu  Lu6  1  0.18970810  0.95027040  0.76056331  1
  Lu  Lu7  1  0.95027469  0.18972498  0.76057145  1
  Lu  Lu8  1  0.81029190  0.04972960  0.23943669  1
  Lu  Lu9  1  0.04972531  0.81027502  0.23942855  1
  Lu  Lu10  1  0.42915352  0.18972498  0.23945029  1
  Lu  Lu11  1  0.57084648  0.81027502  0.76054971  1
  In  In0  1  0.00000000  0.50000000  0.50000000  1
  In  In1  1  0.50000000  0.00000000  0.50000000  1
  Fe  Fe0  1  0.37837464  0.37839691  0.00002327  1
  Fe  Fe1  1  0.62162536  0.62160309  0.99997673  1
  Os  Os0  1  0.00000000  0.00000000  0.00000000  1
loop_
_geom_bond_atom_site_label_1
_geom_bond_atom_site_label_2
_geom_bond_distance
_geom_bond_site_symmetry_2
Lu0 Lu6 3.432829 1_545
Lu0 Lu7 3.432846 1_455
Lu0 Lu11 3.432922 1_555
Lu0 Lu5 3.432941 1_555
Lu0 Lu8 3.498619 1_455
Lu0 Lu10 3.498679 1_555
Lu0 Lu9 3.498718 1_545
Lu0 Lu4 3.498790 1_555
Lu1 Lu8 3.432829 1_565
Lu1 Lu9 3.432846 1_655
Lu1 Lu10 3.432922 1_555
Lu1 Lu4 3.432941 1_555
Lu1 Lu6 3.498619 1_655
Lu1 Lu11 3.498679 1_555
Lu1 Lu7 3.498718 1_565
Lu1 Lu5 3.498790 1_555
Lu2 Lu6 3.432823 1_544
Lu2 Lu9 3.432923 1_655
Lu2 Lu5 3.432949 1_554
Lu2 Lu8 3.498605 1_555
Lu2 Lu7 3.498684 1_554
Lu2 Lu4 3.498789 1_655
Lu3 Lu8 3.432823 1_566
Lu3 Lu7 3.432923 1_455
Lu3 Lu4 3.432949 1_556
Lu3 Lu6 3.498605 1_555
Lu3 Lu9 3.498684 1_556
Lu3 Lu5 3.498789 1_455
Lu4 Os0 2.878995 1_555
Lu4 Lu7 3.221002 1_454
Lu4 Lu8 3.521819 1_455
Lu4 Lu9 3.679444 1_555
Lu5 Os0 2.878995 1_666
Lu5 Lu9 3.221002 1_656
Lu5 Lu6 3.521819 1_655
Lu5 Lu7 3.679444 1_555
Lu6 Os0 2.878925 1_566
Lu6 Lu7 3.221136 1_465
Lu6 Lu9 3.679642 1_555
Lu7 Os0 2.878973 1_656
Lu7 Lu8 3.679642 1_555
Lu8 Os0 2.878925 1_655
Lu8 Lu9 3.221136 1_645
Lu9 Os0 2.878973 1_565
Lu10 Os0 2.878973 1_555
Lu10 Lu4 3.221001 1_555
Lu10 Lu6 3.221130 1_544
Lu10 Lu2 3.432839 1_555
Lu10 Lu3 3.498718 1_544
Lu10 Lu9 3.521830 1_545
Lu10 Lu5 3.679444 1_555
Lu10 Lu8 3.679635 1_555
Lu11 Os0 2.878973 1_666
Lu11 Lu5 3.221001 1_555
Lu11 Lu8 3.221130 1_566
Lu11 Lu3 3.432839 1_555
Lu11 Lu2 3.498718 1_566
Lu11 Lu7 3.521830 1_565
Lu11 Lu4 3.679444 1_555
Lu11 Lu6 3.679635 1_555
In0 Lu6 3.040380 1_555
In0 Lu8 3.040380 1_455
In0 Lu5 3.040441 1_455
In0 Lu4 3.040441 1_555
In0 Lu3 3.458364 1_555
In0 Lu2 3.458364 1_455
In0 Lu0 3.458370 1_555
In0 Lu1 3.458370 1_455
In0 Lu11 3.799732 1_555
In0 Lu10 3.799732 1_455
In0 Lu7 3.799732 1_455
In0 Lu9 3.799732 1_555
In1 Lu7 3.040406 1_555
In1 Lu9 3.040406 1_545
In1 Lu11 3.040406 1_545
In1 Lu10 3.040406 1_555
In1 Lu0 3.458361 1_555
In1 Lu1 3.458361 1_545
In1 Lu2 3.458368 1_556
In1 Lu3 3.458368 1_544
In1 Lu5 3.799684 1_555
In1 Lu4 3.799684 1_545
In1 Lu6 3.799801 1_545
In1 Lu8 3.799801 1_555
Fe0 Fe1 2.257848 1_554
Fe0 Lu1 2.795191 1_555
Fe0 Lu3 2.795199 1_554
Fe0 Lu2 2.795380 1_555
Fe0 Lu0 2.795388 1_554
Fe0 Lu4 2.872803 1_555
Fe0 Lu10 2.872995 1_555
Fe0 Lu7 2.873003 1_454
Fe0 Lu6 2.873183 1_544
Fe1 Lu0 2.795191 1_555
Fe1 Lu2 2.795199 1_556
Fe1 Lu3 2.795380 1_555
Fe1 Lu1 2.795388 1_556
Fe1 Lu5 2.872803 1_555
Fe1 Lu11 2.872995 1_555
Fe1 Lu9 2.873003 1_656
Fe1 Lu8 2.873183 1_566
