# generated using pymatgen
data_Sc7(SbTe3)2
_symmetry_space_group_name_H-M   'P 1'
_cell_length_a   7.99155345
_cell_length_b   7.99155202
_cell_length_c   9.92758390
_cell_angle_alpha   54.23573246
_cell_angle_beta   54.23573720
_cell_angle_gamma   62.98952428
_symmetry_Int_Tables_number   1
_chemical_formula_structural   Sc7(SbTe3)2
_chemical_formula_sum   'Sc7 Sb2 Te6'
_cell_volume   411.30538912
_cell_formula_units_Z   1
loop_
 _symmetry_equiv_pos_site_id
 _symmetry_equiv_pos_as_xyz
  1  'x, y, z'
loop_
 _atom_site_type_symbol
 _atom_site_label
 _atom_site_symmetry_multiplicity
 _atom_site_fract_x
 _atom_site_fract_y
 _atom_site_fract_z
 _atom_site_occupancy
  Sc  Sc0  1  0.74739865  0.25260135  0.50000000  1
  Sc  Sc1  1  0.25260135  0.74739865  0.50000000  1
  Sc  Sc2  1  0.50000000  0.00000000  0.50000000  1
  Sc  Sc3  1  0.00000000  0.50000000  0.50000000  1
  Sc  Sc4  1  0.75144035  0.75144035  0.99959140  1
  Sc  Sc5  1  0.24855965  0.24855965  0.00040860  1
  Sc  Sc6  1  0.00000000  0.00000000  0.00000000  1
  Sb  Sb0  1  0.95840890  0.95840890  0.33375185  1
  Sb  Sb1  1  0.04159110  0.04159110  0.66624815  1
  Te  Te0  1  0.54114128  0.04370209  0.16524951  1
  Te  Te1  1  0.45885872  0.95629791  0.83475049  1
  Te  Te2  1  0.95629791  0.45885872  0.83475049  1
  Te  Te3  1  0.04370209  0.54114128  0.16524951  1
  Te  Te4  1  0.45836820  0.45836820  0.32922998  1
  Te  Te5  1  0.54163180  0.54163180  0.67077002  1
loop_
_geom_bond_atom_site_label_1
_geom_bond_atom_site_label_2
_geom_bond_distance
_geom_bond_site_symmetry_2
Sc0 Te1 2.961754 1_545
Sc0 Te3 2.961754 1_655
Sc0 Te5 2.963451 1_555
Sc0 Te4 2.963452 1_555
Sc1 Te0 2.961754 1_565
Sc1 Te2 2.961754 1_455
Sc1 Te4 2.963451 1_555
Sc1 Te5 2.963452 1_555
Sc2 Te4 2.948941 1_555
Sc2 Te5 2.948941 1_545
Sc2 Te1 2.957126 1_545
Sc2 Te0 2.957126 1_555
Sc3 Te4 2.948942 1_555
Sc3 Te5 2.948942 1_455
Sc3 Te2 2.957126 1_455
Sc3 Te3 2.957126 1_555
Sc4 Te0 2.945857 1_566
Sc4 Te3 2.945857 1_656
Sc4 Te2 2.947785 1_555
Sc4 Te1 2.947786 1_555
Sc4 Te4 2.957098 1_556
Sc5 Te1 2.945857 1_544
Sc5 Te2 2.945857 1_454
Sc5 Te3 2.947785 1_555
Sc5 Te0 2.947786 1_555
Sc5 Te5 2.957098 1_554
Sc6 Te2 2.955455 1_454
Sc6 Te3 2.955455 1_545
Sc6 Te1 2.955456 1_544
Sc6 Te0 2.955456 1_455
Sb0 Sc5 2.940965 1_665
Sb0 Sc3 2.953423 1_655
Sb0 Sc2 2.953424 1_565
Sb0 Sc6 2.953810 1_665
Sb0 Sc0 2.962502 1_565
Sb0 Sc1 2.962502 1_655
Sb1 Sc4 2.940965 1_445
Sb1 Sc3 2.953423 1_555
Sb1 Sc2 2.953424 1_555
Sb1 Sc6 2.953810 1_556
Sb1 Sc1 2.962502 1_545
Sb1 Sc0 2.962502 1_455
