# generated using pymatgen
data_Sr4(NiH4)3
_symmetry_space_group_name_H-M   'P 1'
_cell_length_a   6.39371112
_cell_length_b   6.39371149
_cell_length_c   6.39371071
_cell_angle_alpha   109.47122128
_cell_angle_beta   109.47122244
_cell_angle_gamma   109.47121767
_symmetry_Int_Tables_number   1
_chemical_formula_structural   Sr4(NiH4)3
_chemical_formula_sum   'Sr4 Ni3 H12'
_cell_volume   201.20424527
_cell_formula_units_Z   1
loop_
 _symmetry_equiv_pos_site_id
 _symmetry_equiv_pos_as_xyz
  1  'x, y, z'
loop_
 _atom_site_type_symbol
 _atom_site_label
 _atom_site_symmetry_multiplicity
 _atom_site_fract_x
 _atom_site_fract_y
 _atom_site_fract_z
 _atom_site_occupancy
  Sr  Sr0  1  0.00000000  0.00000000  0.50000000  1
  Sr  Sr1  1  0.00000000  0.50000000  0.00000000  1
  Sr  Sr2  1  0.50000000  0.00000000  0.00000000  1
  Sr  Sr3  1  0.50000000  0.50000000  0.50000000  1
  Ni  Ni0  1  0.00000000  0.50000000  0.50000000  1
  Ni  Ni1  1  0.50000000  0.50000000  0.00000000  1
  Ni  Ni2  1  0.50000000  0.00000000  0.50000000  1
  H  H0  1  0.71551376  0.71551376  1.00000000  1
  H  H1  1  0.28448624  1.00000000  0.28448624  1
  H  H2  1  0.00000000  0.28448624  0.28448624  1
  H  H3  1  0.28448624  0.28448624  0.00000000  1
  H  H4  1  0.71551376  0.00000000  0.71551376  1
  H  H5  1  1.00000000  0.71551376  0.71551376  1
  H  H6  1  0.75000000  0.25000000  0.50000000  1
  H  H7  1  0.75000000  0.50000000  0.25000000  1
  H  H8  1  0.50000000  0.25000000  0.75000000  1
  H  H9  1  0.25000000  0.50000000  0.75000000  1
  H  H10  1  0.25000000  0.75000000  0.50000000  1
  H  H11  1  0.50000000  0.75000000  0.25000000  1
loop_
_geom_bond_atom_site_label_1
_geom_bond_atom_site_label_2
_geom_bond_distance
_geom_bond_site_symmetry_2
H0 Ni1 1.591100 1_556
H0 Sr3 2.622609 1_555
H0 Sr0 2.622609 1_666
H0 Sr1 2.622610 1_656
H0 Sr2 2.622610 1_566
H1 Ni2 1.591100 1_565
H1 Sr2 2.622610 1_565
H1 Sr0 2.622610 1_565
H1 Sr1 2.622610 1_555
H1 Sr3 2.622610 1_565
H2 Ni0 1.591100 1_555
H2 Sr1 2.622610 1_555
H2 Sr3 2.622610 1_555
H2 Sr2 2.622610 1_455
H2 Sr0 2.622610 1_555
H3 Ni1 1.591100 1_555
H3 Sr3 2.622609 1_555
H3 Sr0 2.622609 1_554
H3 Sr1 2.622610 1_555
H3 Sr2 2.622610 1_555
H4 Ni2 1.591100 1_555
H4 Sr2 2.622610 1_556
H4 Sr0 2.622610 1_655
H4 Sr1 2.622610 1_656
H4 Sr3 2.622610 1_545
H5 Ni0 1.591100 1_655
H5 Sr1 2.622610 1_656
H5 Sr3 2.622610 1_555
H5 Sr2 2.622610 1_666
H5 Sr0 2.622610 1_665
H6 Ni0 1.845706 1_655
H6 Ni2 1.845706 1_555
H6 Sr1 2.610221 1_656
H6 Sr2 2.610221 1_555
H6 Sr3 2.610222 1_555
H6 Sr0 2.610222 1_655
H7 Ni1 1.845705 1_555
H7 Ni0 1.845705 1_655
H7 Sr3 2.610222 1_555
H7 Sr1 2.610222 1_655
H7 Sr2 2.610222 1_555
H7 Sr0 2.610222 1_665
H8 Ni2 1.845705 1_555
H8 Ni1 1.845705 1_556
H8 Sr2 2.610222 1_556
H8 Sr3 2.610222 1_555
H8 Sr0 2.610222 1_555
H8 Sr1 2.610222 1_656
H9 Ni1 1.845705 1_556
H9 Ni0 1.845705 1_555
H9 Sr3 2.610222 1_555
H9 Sr1 2.610222 1_556
H9 Sr2 2.610222 1_566
H9 Sr0 2.610222 1_555
H10 Ni2 1.845706 1_565
H10 Ni0 1.845706 1_555
H10 Sr1 2.610221 1_555
H10 Sr2 2.610221 1_566
H10 Sr3 2.610222 1_555
H10 Sr0 2.610222 1_565
H11 Ni2 1.845705 1_565
H11 Ni1 1.845705 1_555
H11 Sr2 2.610222 1_565
H11 Sr3 2.610222 1_555
H11 Sr1 2.610222 1_555
H11 Sr0 2.610222 1_665
