# generated using pymatgen
data_Hf3SnIr2N
_symmetry_space_group_name_H-M   'P 1'
_cell_length_a   8.62231202
_cell_length_b   8.62348630
_cell_length_c   8.62198330
_cell_angle_alpha   59.99504104
_cell_angle_beta   59.99241810
_cell_angle_gamma   59.99544278
_symmetry_Int_Tables_number   1
_chemical_formula_structural   Hf3SnIr2N
_chemical_formula_sum   'Hf12 Sn4 Ir8 N4'
_cell_volume   453.25506613
_cell_formula_units_Z   4
loop_
 _symmetry_equiv_pos_site_id
 _symmetry_equiv_pos_as_xyz
  1  'x, y, z'
loop_
 _atom_site_type_symbol
 _atom_site_label
 _atom_site_symmetry_multiplicity
 _atom_site_fract_x
 _atom_site_fract_y
 _atom_site_fract_z
 _atom_site_occupancy
  Hf  Hf0  1  0.81397564  0.81395795  0.18603106  1
  Hf  Hf1  1  0.18603620  0.18604728  0.81397732  1
  Hf  Hf2  1  0.81394779  0.18603416  0.81397397  1
  Hf  Hf3  1  0.18602545  0.81396281  0.18604258  1
  Hf  Hf4  1  0.18602810  0.81393925  0.81398313  1
  Hf  Hf5  1  0.81397002  0.18603270  0.18603846  1
  Hf  Hf6  1  0.43602948  0.43604633  0.06396165  1
  Hf  Hf7  1  0.06395794  0.06395028  0.43602605  1
  Hf  Hf8  1  0.43605721  0.06396164  0.43602862  1
  Hf  Hf9  1  0.06396850  0.43604387  0.06395093  1
  Hf  Hf10  1  0.06396510  0.43606641  0.43601999  1
  Hf  Hf11  1  0.43603577  0.06396409  0.06395407  1
  Sn  Sn0  1  0.12491190  0.62503052  0.62502856  1
  Sn  Sn1  1  0.62503341  0.12490263  0.62503156  1
  Sn  Sn2  1  0.62502774  0.62502899  0.12491471  1
  Sn  Sn3  1  0.62503106  0.62502799  0.62503036  1
  Ir  Ir0  1  0.77452181  0.40849980  0.40847910  1
  Ir  Ir1  1  0.40849855  0.77448700  0.40850012  1
  Ir  Ir2  1  0.40848061  0.40849394  0.77453274  1
  Ir  Ir3  1  0.40849593  0.40851294  0.40849668  1
  Ir  Ir4  1  0.47550688  0.84149040  0.84151357  1
  Ir  Ir5  1  0.84148781  0.47554473  0.84149470  1
  Ir  Ir6  1  0.84151292  0.84149661  0.47549420  1
  Ir  Ir7  1  0.84149451  0.84147360  0.84149486  1
  N  N0  1  0.62500148  0.12500018  0.12499866  1
  N  N1  1  0.12500031  0.62500098  0.12499885  1
  N  N2  1  0.12499907  0.12499979  0.62500149  1
  N  N3  1  0.12499980  0.12499913  0.12499903  1
loop_
_geom_bond_atom_site_label_1
_geom_bond_atom_site_label_2
_geom_bond_distance
_geom_bond_site_symmetry_2
Hf0 N1 2.280243 1_655
Hf0 N0 2.280628 1_565
Hf0 Ir7 2.753781 1_554
Hf0 Ir6 2.753798 1_555
Hf0 Ir1 3.138108 1_555
Hf0 Ir0 3.138385 1_555
Hf0 Sn3 3.155036 1_555
Hf0 Sn2 3.155662 1_555
Hf1 N3 2.280082 1_556
Hf1 N2 2.280692 1_555
Hf1 Ir5 2.753941 1_455
Hf1 Ir4 2.754004 1_545
Hf1 Ir3 3.137974 1_555
Hf1 Ir2 3.138290 1_555
Hf1 Sn1 3.155103 1_555
Hf1 Sn0 3.155573 1_555
Hf2 N0 2.280030 1_556
Hf2 N2 2.280309 1_655
Hf2 Ir7 2.754416 1_545
Hf2 Ir5 2.754527 1_555
Hf2 Ir2 3.138036 1_555
Hf2 Ir0 3.138073 1_555
Hf2 Sn1 3.155448 1_555
Hf2 Sn3 3.155511 1_555
Hf3 N1 2.280674 1_555
Hf3 N3 2.280731 1_565
Hf3 Ir6 2.753309 1_455
Hf3 Ir4 2.753467 1_554
Hf3 Ir3 3.138175 1_555
Hf3 Ir1 3.138194 1_555
Hf3 Sn0 3.155002 1_555
Hf3 Sn2 3.155242 1_555
Hf4 N1 2.280064 1_556
Hf4 N2 2.280732 1_565
Hf4 Ir7 2.753835 1_455
Hf4 Ir4 2.754049 1_555
Hf4 Ir1 3.137983 1_555
Hf4 Ir2 3.138289 1_555
Hf4 Sn3 3.155146 1_555
Hf4 Sn0 3.155525 1_555
Hf5 N3 2.280278 1_655
Hf5 N0 2.280601 1_555
Hf5 Ir6 2.753792 1_545
Hf5 Ir5 2.753885 1_554
Hf5 Ir3 3.138047 1_555
Hf5 Ir0 3.138337 1_555
Hf5 Sn1 3.154965 1_555
Hf5 Sn2 3.155682 1_555
Hf6 N1 2.280265 1_555
Hf6 N0 2.280647 1_555
Hf6 Ir2 2.753633 1_554
Hf6 Ir3 2.753656 1_555
Hf6 Ir5 3.138054 1_554
Hf6 Ir4 3.138353 1_554
Hf6 Sn3 3.154799 1_554
Hf6 Sn2 3.155470 1_555
Hf7 N3 2.280112 1_555
Hf7 N2 2.280725 1_555
Hf7 Ir1 2.753781 1_545
Hf7 Ir0 2.753844 1_455
Hf7 Ir7 3.137968 1_445
Hf7 Ir6 3.138244 1_445
Hf7 Sn1 3.154855 1_455
Hf7 Sn0 3.155361 1_545
Hf8 N0 2.280057 1_555
Hf8 N2 2.280351 1_555
Hf8 Ir3 2.754246 1_555
Hf8 Ir1 2.754352 1_545
Hf8 Ir6 3.138027 1_545
Hf8 Ir4 3.138073 1_545
Hf8 Sn1 3.155231 1_555
Hf8 Sn3 3.155330 1_545
Hf9 N1 2.280702 1_555
Hf9 N3 2.280778 1_555
Hf9 Ir2 2.753188 1_554
Hf9 Ir0 2.753340 1_455
Hf9 Ir7 3.138105 1_454
Hf9 Ir5 3.138132 1_454
Hf9 Sn0 3.154789 1_554
Hf9 Sn2 3.155035 1_455
Hf10 N1 2.280089 1_555
Hf10 N2 2.280768 1_555
Hf10 Ir3 2.753703 1_555
Hf10 Ir0 2.753875 1_455
Hf10 Ir5 3.138002 1_455
Hf10 Ir6 3.138251 1_455
Hf10 Sn3 3.154903 1_455
Hf10 Sn0 3.155336 1_555
Hf11 N3 2.280313 1_555
Hf11 N0 2.280628 1_555
Hf11 Ir2 2.753640 1_554
Hf11 Ir1 2.753773 1_545
Hf11 Ir7 3.138015 1_544
Hf11 Ir4 3.138286 1_544
Hf11 Sn1 3.154732 1_554
Hf11 Sn2 3.155476 1_545
Ir0 Sn2 2.702709 1_555
Ir0 Sn3 2.703067 1_555
Ir0 Sn1 2.703152 1_555
Ir1 Sn2 2.702661 1_555
Ir1 Sn0 2.702724 1_555
Ir1 Sn3 2.702857 1_555
Ir2 Sn0 2.702840 1_555
Ir2 Sn3 2.703135 1_555
Ir2 Sn1 2.703164 1_555
Ir3 Sn2 2.702714 1_555
Ir3 Sn0 2.702722 1_555
Ir3 Sn1 2.702927 1_555
Ir4 Sn2 2.701721 1_556
Ir4 Sn1 2.702072 1_565
Ir4 Sn3 2.702085 1_555
Ir5 Sn2 2.701656 1_556
Ir5 Sn0 2.701753 1_655
Ir5 Sn3 2.701838 1_555
Ir6 Sn0 2.701824 1_655
Ir6 Sn1 2.702072 1_565
Ir6 Sn3 2.702150 1_555
Ir7 Sn0 2.701710 1_655
Ir7 Sn2 2.701728 1_556
Ir7 Sn1 2.701847 1_565
