# generated using pymatgen
data_KSb12(RuPt)2
_symmetry_space_group_name_H-M   'P 1'
_cell_length_a   8.15731301
_cell_length_b   8.17212602
_cell_length_c   8.15731366
_cell_angle_alpha   109.45928479
_cell_angle_beta   109.33619789
_cell_angle_gamma   109.54457407
_symmetry_Int_Tables_number   1
_chemical_formula_structural   KSb12(RuPt)2
_chemical_formula_sum   'K1 Sb12 Ru2 Pt2'
_cell_volume   418.98670835
_cell_formula_units_Z   1
loop_
 _symmetry_equiv_pos_site_id
 _symmetry_equiv_pos_as_xyz
  1  'x, y, z'
loop_
 _atom_site_type_symbol
 _atom_site_label
 _atom_site_symmetry_multiplicity
 _atom_site_fract_x
 _atom_site_fract_y
 _atom_site_fract_z
 _atom_site_occupancy
  K  K0  1  0.00000000  0.00000000  0.00000000  1
  Sb  Sb0  1  0.15767433  0.49579740  0.33812306  1
  Sb  Sb1  1  0.50128111  0.65215909  0.83944999  1
  Sb  Sb2  1  0.33826528  0.83967677  0.18714208  1
  Sb  Sb3  1  0.81270711  0.65215909  0.15087799  1
  Sb  Sb4  1  0.65253568  0.83967677  0.50141149  1
  Sb  Sb5  1  0.18729289  0.34784091  0.84912201  1
  Sb  Sb6  1  0.66173472  0.16032323  0.81285792  1
  Sb  Sb7  1  0.34746432  0.16032323  0.49858851  1
  Sb  Sb8  1  0.49871889  0.34784091  0.16055001  1
  Sb  Sb9  1  0.84232567  0.50420260  0.66187694  1
  Sb  Sb10  1  0.84696837  0.19475579  0.34778542  1
  Sb  Sb11  1  0.15303163  0.80524421  0.65221458  1
  Ru  Ru0  1  0.50000000  0.50000000  0.50000000  1
  Ru  Ru1  1  0.00000000  0.50000000  0.00000000  1
  Pt  Pt0  1  0.50000000  0.00000000  0.00000000  1
  Pt  Pt1  1  0.00000000  0.00000000  0.50000000  1
loop_
_geom_bond_atom_site_label_1
_geom_bond_atom_site_label_2
_geom_bond_distance
_geom_bond_site_symmetry_2
K0 Sb0 3.520847 1_555
K0 Sb9 3.520847 1_444
K0 Sb8 3.549611 1_555
K0 Sb1 3.549611 1_444
K0 Sb5 3.549615 1_554
K0 Sb3 3.549615 1_445
K0 Sb7 3.552875 1_555
K0 Sb4 3.552875 1_444
K0 Sb2 3.552877 1_545
K0 Sb6 3.552877 1_454
K0 Sb10 3.578565 1_455
K0 Sb11 3.578565 1_544
Sb0 Sb10 2.927786 1_455
Sb0 Sb11 2.961827 1_555
Sb1 Sb3 2.938296 1_556
Sb1 Sb5 2.958709 1_555
Sb2 Sb7 2.938210 1_565
Sb2 Sb4 2.965119 1_555
Sb3 Sb8 2.958709 1_555
Sb4 Sb6 2.938210 1_565
Sb5 Sb8 2.938296 1_556
Sb6 Sb7 2.965119 1_555
Sb10 Sb9 2.961827 1_555
Sb11 Sb9 2.927786 1_455
Ru0 Sb1 2.625211 1_555
Ru0 Sb8 2.625211 1_555
Ru0 Sb4 2.629090 1_555
Ru0 Sb7 2.629090 1_555
Ru0 Sb9 2.646964 1_555
Ru0 Sb0 2.646964 1_555
Ru1 Sb3 2.625226 1_455
Ru1 Sb5 2.625226 1_554
Ru1 Sb2 2.629089 1_555
Ru1 Sb6 2.629089 1_454
Ru1 Sb9 2.646964 1_454
Ru1 Sb0 2.646964 1_555
Pt0 Sb10 2.693068 1_555
Pt0 Sb11 2.693068 1_544
Pt0 Sb6 2.701376 1_554
Pt0 Sb2 2.701376 1_545
Pt0 Sb8 2.710018 1_555
Pt0 Sb1 2.710018 1_544
Pt1 Sb10 2.693085 1_455
Pt1 Sb11 2.693085 1_545
Pt1 Sb7 2.701369 1_555
Pt1 Sb4 2.701369 1_445
Pt1 Sb5 2.710016 1_555
Pt1 Sb3 2.710016 1_445
