# generated using pymatgen
data_Na14Mg2Se9
_symmetry_space_group_name_H-M   'P 1'
_cell_length_a   8.18642811
_cell_length_b   8.18642733
_cell_length_c   11.51654929
_cell_angle_alpha   90.00000000
_cell_angle_beta   90.00000000
_cell_angle_gamma   120.00000315
_symmetry_Int_Tables_number   1
_chemical_formula_structural   Na14Mg2Se9
_chemical_formula_sum   'Na14 Mg2 Se9'
_cell_volume   668.40832817
_cell_formula_units_Z   1
loop_
 _symmetry_equiv_pos_site_id
 _symmetry_equiv_pos_as_xyz
  1  'x, y, z'
loop_
 _atom_site_type_symbol
 _atom_site_label
 _atom_site_symmetry_multiplicity
 _atom_site_fract_x
 _atom_site_fract_y
 _atom_site_fract_z
 _atom_site_occupancy
  Na  Na0  1  0.02782165  0.67526061  0.90988477  1
  Na  Na1  1  0.31530384  0.94355004  0.59174050  1
  Na  Na2  1  0.05644996  0.37175480  0.59174050  1
  Na  Na3  1  0.00000000  0.00000000  0.25031964  1
  Na  Na4  1  0.00000000  0.00000000  0.74968036  1
  Na  Na5  1  0.32473939  0.35256103  0.90988477  1
  Na  Na6  1  0.64743897  0.97217835  0.90988477  1
  Na  Na7  1  0.37175480  0.31530384  0.40825950  1
  Na  Na8  1  0.62824520  0.68469616  0.59174050  1
  Na  Na9  1  0.35256103  0.02782165  0.09011523  1
  Na  Na10  1  0.67526061  0.64743897  0.09011523  1
  Na  Na11  1  0.94355004  0.62824520  0.40825950  1
  Na  Na12  1  0.68469616  0.05644996  0.40825950  1
  Na  Na13  1  0.97217835  0.32473939  0.09011523  1
  Mg  Mg0  1  0.33333300  0.66666700  0.25876324  1
  Mg  Mg1  1  0.66666700  0.33333300  0.74123676  1
  Se  Se0  1  0.30646918  0.95133768  0.33664924  1
  Se  Se1  1  0.04866232  0.35513251  0.33664924  1
  Se  Se2  1  0.33333300  0.66666700  0.03283291  1
  Se  Se3  1  0.00000000  0.00000000  0.00000000  1
  Se  Se4  1  0.35513251  0.30646918  0.66335076  1
  Se  Se5  1  0.64486749  0.69353082  0.33664924  1
  Se  Se6  1  0.66666700  0.33333300  0.96716709  1
  Se  Se7  1  0.95133768  0.64486749  0.66335076  1
  Se  Se8  1  0.69353082  0.04866232  0.66335076  1
loop_
_geom_bond_atom_site_label_1
_geom_bond_atom_site_label_2
_geom_bond_distance
_geom_bond_site_symmetry_2
Na0 Se7 2.891251 1_455
Na0 Se2 2.905343 1_556
Na0 Se6 2.955654 1_455
Na0 Se3 2.966785 1_566
Na1 Se7 2.872502 1_455
Na1 Se8 2.888505 1_565
Na1 Se0 2.940137 1_555
Na1 Se4 2.940177 1_565
Na2 Se4 2.872512 1_555
Na2 Se7 2.888490 1_455
Na2 Se1 2.940137 1_555
Na2 Se8 2.940184 1_455
Na3 Se3 2.882818 1_555
Na3 Se0 2.905367 1_545
Na3 Se5 2.905371 1_445
Na3 Se1 2.905374 1_555
Na4 Se3 2.882818 1_556
Na4 Se8 2.905367 1_455
Na4 Se4 2.905371 1_555
Na4 Se7 2.905374 1_445
Na5 Se4 2.891253 1_555
Na5 Se2 2.905350 1_556
Na5 Se6 2.955659 1_555
Na5 Se3 2.966785 1_556
Na6 Se8 2.891252 1_565
Na6 Se2 2.905346 1_556
Na6 Se6 2.955650 1_565
Na6 Se3 2.966785 1_666
Na7 Se0 2.872496 1_545
Na7 Se5 2.888501 1_555
Na7 Se4 2.940137 1_555
Na7 Se1 2.940193 1_555
Na8 Se8 2.872496 1_565
Na8 Se4 2.888501 1_555
Na8 Se5 2.940137 1_555
Na8 Se7 2.940193 1_555
Na9 Se0 2.891252 1_545
Na9 Se6 2.905346 1_554
Na9 Se2 2.955650 1_545
Na9 Se3 2.966785 1_555
Na10 Se5 2.891253 1_555
Na10 Se6 2.905350 1_554
Na10 Se2 2.955659 1_555
Na10 Se3 2.966785 1_665
Na11 Se5 2.872512 1_555
Na11 Se1 2.888490 1_655
Na11 Se7 2.940137 1_555
Na11 Se0 2.940184 1_655
Na12 Se1 2.872502 1_655
Na12 Se0 2.888505 1_545
Na12 Se8 2.940137 1_555
Na12 Se5 2.940177 1_545
Na13 Se1 2.891251 1_655
Na13 Se6 2.905343 1_554
Na13 Se2 2.955654 1_655
Na13 Se3 2.966785 1_655
Mg0 Se2 2.601938 1_555
Mg0 Se1 2.606985 1_555
Mg0 Se0 2.606985 1_555
Mg0 Se5 2.606985 1_555
Mg1 Se6 2.601938 1_555
Mg1 Se7 2.606985 1_555
Mg1 Se8 2.606985 1_555
Mg1 Se4 2.606985 1_555
