# generated using pymatgen
data_CsLi5(TcH9)3
_symmetry_space_group_name_H-M   'P 1'
_cell_length_a   9.11347301
_cell_length_b   9.11347212
_cell_length_c   5.25304376
_cell_angle_alpha   90.00000000
_cell_angle_beta   90.00000000
_cell_angle_gamma   110.16271457
_symmetry_Int_Tables_number   1
_chemical_formula_structural   CsLi5(TcH9)3
_chemical_formula_sum   'Cs1 Li5 Tc3 H27'
_cell_volume   409.55640906
_cell_formula_units_Z   1
loop_
 _symmetry_equiv_pos_site_id
 _symmetry_equiv_pos_as_xyz
  1  'x, y, z'
loop_
 _atom_site_type_symbol
 _atom_site_label
 _atom_site_symmetry_multiplicity
 _atom_site_fract_x
 _atom_site_fract_y
 _atom_site_fract_z
 _atom_site_occupancy
  Cs  Cs0  1  0.34273515  0.34273515  0.00000000  1
  Li  Li0  1  0.48767206  0.98503589  0.50000000  1
  Li  Li1  1  0.98503589  0.48767206  0.50000000  1
  Li  Li2  1  0.90069848  0.90069848  0.50000000  1
  Li  Li3  1  0.76942763  0.16488806  0.00000000  1
  Li  Li4  1  0.16488806  0.76942763  0.00000000  1
  Tc  Tc0  1  0.95719849  0.95719849  0.00000000  1
  Tc  Tc1  1  0.28628067  0.68717172  0.50000000  1
  Tc  Tc2  1  0.68717172  0.28628067  0.50000000  1
  H  H0  1  0.81824941  0.97361062  0.19717321  1
  H  H1  1  0.97361062  0.81824941  0.19717321  1
  H  H2  1  0.81824941  0.97361062  0.80282679  1
  H  H3  1  0.97361062  0.81824941  0.80282679  1
  H  H4  1  0.04824351  0.04824351  0.25915296  1
  H  H5  1  0.04824351  0.04824351  0.74084704  1
  H  H6  1  0.14865271  0.98478512  0.00000000  1
  H  H7  1  0.98478512  0.14865271  0.00000000  1
  H  H8  1  0.80051346  0.80051346  0.00000000  1
  H  H9  1  0.15564842  0.58530472  0.27586408  1
  H  H10  1  0.37984517  0.65214747  0.25386158  1
  H  H11  1  0.15564842  0.58530472  0.72413592  1
  H  H12  1  0.58530472  0.15564842  0.72413592  1
  H  H13  1  0.32367281  0.83720370  0.29109189  1
  H  H14  1  0.37984517  0.65214747  0.74613842  1
  H  H15  1  0.65214747  0.37984517  0.74613842  1
  H  H16  1  0.58530472  0.15564842  0.27586408  1
  H  H17  1  0.32367281  0.83720370  0.70890811  1
  H  H18  1  0.65214747  0.37984517  0.25386158  1
  H  H19  1  0.83720370  0.32367281  0.70890811  1
  H  H20  1  0.83720370  0.32367281  0.29109189  1
  H  H21  1  0.29188137  0.50699574  0.50000000  1
  H  H22  1  0.47963053  0.76671050  0.50000000  1
  H  H23  1  0.50699574  0.29188137  0.50000000  1
  H  H24  1  0.13879071  0.75308207  0.50000000  1
  H  H25  1  0.76671050  0.47963053  0.50000000  1
  H  H26  1  0.75308207  0.13879071  0.50000000  1
loop_
_geom_bond_atom_site_label_1
_geom_bond_atom_site_label_2
_geom_bond_distance
_geom_bond_site_symmetry_2
Cs0 H10 3.030954 1_555
Cs0 H14 3.030954 1_554
Cs0 H18 3.030954 1_555
Cs0 H15 3.030954 1_554
Cs0 H6 3.129308 1_545
Cs0 H7 3.129308 1_455
Cs0 H21 3.135705 1_554
Cs0 H21 3.135705 1_555
Cs0 H23 3.135705 1_554
Cs0 H23 3.135705 1_555
H0 Tc0 1.682046 1_555
H0 Li2 1.969990 1_555
H0 Li3 2.200956 1_565
H1 Tc0 1.682045 1_555
H1 Li2 1.969990 1_555
H1 Li4 2.200956 1_655
H2 Tc0 1.682046 1_556
H2 Li2 1.969990 1_555
H2 Li3 2.200956 1_566
H3 Tc0 1.682045 1_556
H3 Li2 1.969990 1_555
H3 Li4 2.200956 1_656
H4 Tc0 1.659990 1_445
H4 Li2 1.992584 1_445
H5 Tc0 1.659990 1_446
H5 Li2 1.992584 1_445
H6 Tc0 1.674866 1_455
H6 Li4 2.018439 1_555
H7 Tc0 1.674866 1_545
H7 Li3 2.018439 1_555
H8 Tc0 1.634747 1_555
H9 Tc1 1.703973 1_555
H9 Li1 1.908362 1_455
H9 Li4 2.196664 1_555
H10 Tc1 1.639632 1_555
H11 Tc1 1.703973 1_555
H11 Li1 1.908362 1_455
H11 Li4 2.196664 1_556
H12 Tc2 1.703973 1_555
H12 Li0 1.908362 1_545
H12 Li3 2.196664 1_556
H13 Tc1 1.693740 1_555
H13 Li0 1.965989 1_555
H13 Li4 2.048801 1_555
H14 Tc1 1.639632 1_555
H15 Tc2 1.639632 1_555
H16 Tc2 1.703973 1_555
H16 Li0 1.908362 1_545
H16 Li3 2.196664 1_555
H17 Tc1 1.693740 1_555
H17 Li0 1.965989 1_555
H17 Li4 2.048801 1_556
H18 Tc2 1.639632 1_555
H19 Tc2 1.693740 1_555
H19 Li1 1.965988 1_555
H19 Li3 2.048801 1_556
H20 Tc2 1.693740 1_555
H20 Li1 1.965988 1_555
H20 Li3 2.048801 1_555
H21 Tc1 1.660314 1_555
H22 Tc1 1.658272 1_555
H22 Li0 1.965646 1_555
H23 Tc2 1.660314 1_555
H24 Tc1 1.650494 1_555
H25 Tc2 1.658272 1_555
H25 Li1 1.965646 1_555
H26 Tc2 1.650494 1_555
