# generated using pymatgen
data_Ta2MoPbS6
_symmetry_space_group_name_H-M   'P 1'
_cell_length_a   5.73155793
_cell_length_b   5.73155733
_cell_length_c   15.06496713
_cell_angle_alpha   90.00000000
_cell_angle_beta   90.00000000
_cell_angle_gamma   119.99999201
_symmetry_Int_Tables_number   1
_chemical_formula_structural   Ta2MoPbS6
_chemical_formula_sum   'Ta4 Mo2 Pb2 S12'
_cell_volume   428.59212029
_cell_formula_units_Z   2
loop_
 _symmetry_equiv_pos_site_id
 _symmetry_equiv_pos_as_xyz
  1  'x, y, z'
loop_
 _atom_site_type_symbol
 _atom_site_label
 _atom_site_symmetry_multiplicity
 _atom_site_fract_x
 _atom_site_fract_y
 _atom_site_fract_z
 _atom_site_occupancy
  Ta  Ta0  1  0.33333300  0.66666700  0.25000000  1
  Ta  Ta1  1  0.66666700  0.33333300  0.75000000  1
  Ta  Ta2  1  0.66666700  0.33333300  0.25000000  1
  Ta  Ta3  1  0.33333300  0.66666700  0.75000000  1
  Mo  Mo0  1  0.00000000  0.00000000  0.25000000  1
  Mo  Mo1  1  0.00000000  0.00000000  0.75000000  1
  Pb  Pb0  1  0.00000000  0.00000000  0.50000000  1
  Pb  Pb1  1  0.00000000  0.00000000  0.00000000  1
  S  S0  1  0.33379923  1.00000000  0.14717310  1
  S  S1  1  1.00000000  0.33379923  0.14717310  1
  S  S2  1  0.66620077  0.66620077  0.14717310  1
  S  S3  1  0.33379923  0.33379923  0.64717310  1
  S  S4  1  0.66620077  0.66620077  0.35282690  1
  S  S5  1  0.66620077  0.00000000  0.64717310  1
  S  S6  1  0.00000000  0.66620077  0.64717310  1
  S  S7  1  0.00000000  0.66620077  0.85282690  1
  S  S8  1  0.33379923  0.33379923  0.85282690  1
  S  S9  1  1.00000000  0.33379923  0.35282690  1
  S  S10  1  0.33379923  1.00000000  0.35282690  1
  S  S11  1  0.66620077  0.00000000  0.85282690  1
loop_
_geom_bond_atom_site_label_1
_geom_bond_atom_site_label_2
_geom_bond_distance
_geom_bond_site_symmetry_2
Mo0 S9 2.461697 1_455
Mo0 S1 2.461697 1_455
Mo0 S10 2.461698 1_545
Mo0 S0 2.461698 1_545
Mo0 S4 2.461698 1_445
Mo0 S2 2.461698 1_445
Mo1 S7 2.461697 1_545
Mo1 S6 2.461697 1_545
Mo1 S11 2.461698 1_455
Mo1 S5 2.461698 1_455
Mo1 S8 2.461698 1_555
Mo1 S3 2.461698 1_555
Pb0 S6 2.928495 1_545
Pb0 S9 2.928495 1_455
Pb0 S5 2.928495 1_455
Pb0 S10 2.928495 1_545
Pb0 S3 2.928495 1_555
Pb0 S4 2.928495 1_445
Pb1 S1 2.928495 1_455
Pb1 S7 2.928495 1_544
Pb1 S0 2.928495 1_545
Pb1 S11 2.928495 1_454
Pb1 S2 2.928495 1_445
Pb1 S8 2.928495 1_554
S0 Ta0 2.458585 1_555
S0 Ta2 2.458587 1_565
S1 Ta2 2.458585 1_555
S1 Ta0 2.458587 1_655
S2 Ta2 2.458589 1_555
S2 Ta0 2.458589 1_555
S3 Ta3 2.458589 1_555
S3 Ta1 2.458589 1_555
S4 Ta2 2.458589 1_555
S4 Ta0 2.458589 1_555
S5 Ta1 2.458585 1_555
S5 Ta3 2.458587 1_545
S6 Ta3 2.458585 1_555
S6 Ta1 2.458587 1_455
S7 Ta3 2.458585 1_555
S7 Ta1 2.458587 1_455
S8 Ta3 2.458589 1_555
S8 Ta1 2.458589 1_555
S9 Ta2 2.458585 1_555
S9 Ta0 2.458587 1_655
S10 Ta0 2.458585 1_555
S10 Ta2 2.458587 1_565
S11 Ta1 2.458585 1_555
S11 Ta3 2.458587 1_545
