# generated using pymatgen
data_Ce3(Al3Ru)4
_symmetry_space_group_name_H-M   'P 1'
_cell_length_a   8.85345651
_cell_length_b   8.85348305
_cell_length_c   9.54034555
_cell_angle_alpha   89.99999910
_cell_angle_beta   89.99999973
_cell_angle_gamma   119.99983171
_symmetry_Int_Tables_number   1
_chemical_formula_structural   Ce3(Al3Ru)4
_chemical_formula_sum   'Ce6 Al24 Ru8'
_cell_volume   647.62333935
_cell_formula_units_Z   2
loop_
 _symmetry_equiv_pos_site_id
 _symmetry_equiv_pos_as_xyz
  1  'x, y, z'
loop_
 _atom_site_type_symbol
 _atom_site_label
 _atom_site_symmetry_multiplicity
 _atom_site_fract_x
 _atom_site_fract_y
 _atom_site_fract_z
 _atom_site_occupancy
  Ce  Ce0  1  0.80648003  0.61294980  0.75003012  1
  Ce  Ce1  1  0.19340953  0.80659351  0.24997019  1
  Ce  Ce2  1  0.61321086  0.80660984  0.24997085  1
  Ce  Ce3  1  0.38704168  0.19351448  0.75002926  1
  Ce  Ce4  1  0.80647698  0.19351761  0.75002911  1
  Ce  Ce5  1  0.19340416  0.38681548  0.24996959  1
  Al  Al0  1  0.33334145  0.66667324  0.49788832  1
  Al  Al1  1  0.66667795  0.33333659  0.99770218  1
  Al  Al2  1  0.66667114  0.33333135  0.50229038  1
  Al  Al3  1  0.33334216  0.66667367  0.00212105  1
  Al  Al4  1  0.16191015  0.32385059  0.57772328  1
  Al  Al5  1  0.67614522  0.83807499  0.57772841  1
  Al  Al6  1  0.16191539  0.83806248  0.57772468  1
  Al  Al7  1  0.83801775  0.16196709  0.07750071  1
  Al  Al8  1  0.83802740  0.16196826  0.42249480  1
  Al  Al9  1  0.83802095  0.67605486  0.07750223  1
  Al  Al10  1  0.32394721  0.16197220  0.07750640  1
  Al  Al11  1  0.67612751  0.83806618  0.92227579  1
  Al  Al12  1  0.16192092  0.32386921  0.92227914  1
  Al  Al13  1  0.83802453  0.67605454  0.42249711  1
  Al  Al14  1  -0.00000756  -0.00000194  0.24999521  1
  Al  Al15  1  -0.00002703  -0.00000942  0.75000202  1
  Al  Al16  1  0.56200735  0.12399408  0.24999316  1
  Al  Al17  1  0.43801898  0.56199740  0.75000641  1
  Al  Al18  1  0.12397159  0.56198356  0.75000633  1
  Al  Al19  1  0.87599225  0.43799729  0.24999137  1
  Al  Al20  1  0.56201159  0.43801437  0.24999338  1
  Al  Al21  1  0.43802192  0.87602252  0.75000797  1
  Al  Al22  1  0.16192278  0.83805407  0.92227899  1
  Al  Al23  1  0.32394037  0.16197062  0.42249237  1
  Ru  Ru0  1  -0.00003989  -0.00001644  0.50005087  1
  Ru  Ru1  1  -0.00003942  -0.00001510  -0.00005317  1
  Ru  Ru2  1  0.50006848  0.00005844  0.50012125  1
  Ru  Ru3  1  0.50006332  0.50000783  0.99988166  1
  Ru  Ru4  1  0.99992502  0.49995884  0.99984745  1
  Ru  Ru5  1  0.99992399  0.49995772  0.50015306  1
  Ru  Ru6  1  0.50006228  0.50000790  0.50011895  1
  Ru  Ru7  1  0.50006900  0.00006028  0.99987815  1
loop_
_geom_bond_atom_site_label_1
_geom_bond_atom_site_label_2
_geom_bond_distance
_geom_bond_site_symmetry_2
Ce0 Ru4 3.365638 1_555
Ce0 Ru3 3.365804 1_555
Ce0 Ru5 3.366041 1_555
Ce0 Ru6 3.366213 1_555
Ce1 Ru7 3.368610 1_564
Ce1 Ru4 3.368717 1_454
Ce1 Ru2 3.369004 1_565
Ce1 Ru5 3.369129 1_455
Ce2 Ru7 3.368269 1_564
Ce2 Ru3 3.368302 1_554
Ce2 Ru2 3.368651 1_565
Ce2 Ru6 3.368698 1_555
Ce3 Ru7 3.366084 1_555
Ce3 Ru3 3.366187 1_555
Ce3 Ru2 3.366492 1_555
Ce3 Ru6 3.366580 1_555
Ce4 Ru4 3.365681 1_555
Ce4 Ru7 3.365731 1_555
Ce4 Ru5 3.366064 1_555
Ce4 Ru2 3.366133 1_555
Ce5 Ru3 3.368578 1_554
Ce5 Ru4 3.368641 1_454
Ce5 Ru6 3.368987 1_555
Ce5 Ru5 3.369056 1_455
Al0 Ru6 2.556268 1_555
Al0 Ru2 2.556271 1_565
Al0 Ru5 2.556513 1_455
Al0 Ce1 3.193492 1_555
Al0 Ce5 3.193531 1_555
Al0 Ce2 3.193577 1_555
Al1 Ru4 2.555198 1_555
Al1 Ru7 2.555432 1_555
Al1 Ru3 2.555495 1_555
Al1 Ce0 3.190528 1_555
Al1 Ce4 3.190554 1_555
Al1 Ce3 3.190648 1_555
Al2 Ru5 2.555241 1_555
Al2 Ru2 2.555405 1_555
Al2 Ru6 2.555491 1_555
Al2 Ce4 3.191026 1_555
Al2 Ce0 3.191033 1_555
Al2 Ce3 3.191079 1_555
Al3 Ru3 2.556275 1_554
Al3 Ru7 2.556283 1_564
Al3 Ru4 2.556512 1_454
Al3 Ce1 3.193006 1_555
Al3 Ce5 3.193037 1_555
Al3 Ce2 3.193096 1_555
Al4 Ru0 2.591411 1_555
Al4 Ru5 2.696562 1_455
Al4 Ru6 2.697092 1_555
Al4 Ce5 3.163933 1_555
Al4 Ce4 3.210154 1_455
Al4 Ce3 3.210394 1_555
Al5 Ru0 2.591035 1_665
Al5 Ru2 2.696411 1_565
Al5 Ru6 2.696479 1_555
Al5 Ce2 3.163933 1_555
Al5 Ce4 3.210205 1_565
Al5 Ce0 3.210323 1_555
Al6 Ru0 2.591474 1_565
Al6 Ru5 2.696660 1_455
Al6 Ru2 2.697096 1_565
Al6 Ce1 3.163938 1_555
Al6 Ce0 3.210183 1_455
Al6 Ce3 3.210299 1_565
Al7 Ru1 2.591504 1_655
Al7 Ru7 2.695637 1_554
Al7 Ru4 2.696046 1_554
Al7 Ce4 3.161421 1_554
Al7 Ce2 3.210177 1_545
Al7 Ce5 3.210386 1_655
Al8 Ru0 2.591455 1_655
Al8 Ru2 2.695722 1_555
Al8 Ru5 2.696045 1_555
Al8 Ce4 3.162022 1_555
Al8 Ce2 3.210459 1_545
Al8 Ce5 3.210603 1_655
Al9 Ru1 2.591555 1_665
Al9 Ru3 2.695698 1_554
Al9 Ru4 2.696103 1_554
Al9 Ce0 3.161442 1_554
Al9 Ce2 3.210209 1_555
Al9 Ce1 3.210393 1_655
Al10 Ru1 2.591975 1_555
Al10 Ru7 2.696283 1_554
Al10 Ru3 2.696297 1_554
Al10 Ce3 3.161477 1_554
Al10 Ce1 3.210312 1_545
Al10 Ce5 3.210349 1_555
Al11 Ru1 2.591151 1_666
Al11 Ru7 2.696340 1_565
Al11 Ru3 2.696402 1_555
Al11 Ce2 3.163323 1_556
Al11 Ce4 3.209983 1_565
Al11 Ce0 3.210091 1_555
Al12 Ru1 2.591525 1_556
Al12 Ru4 2.696497 1_455
Al12 Ru3 2.697012 1_555
Al12 Ce5 3.163315 1_556
Al12 Ce4 3.209936 1_455
Al12 Ce3 3.210154 1_555
Al13 Ru0 2.591543 1_665
Al13 Ru6 2.695735 1_555
Al13 Ru5 2.696079 1_555
Al13 Ce0 3.162016 1_555
Al13 Ce2 3.210518 1_555
Al13 Ce1 3.210656 1_655
Al14 Ru1 2.385548 1_555
Al14 Ru0 2.385617 1_555
Al14 Ce2 2.965583 1_445
Al14 Ce5 2.965866 1_555
Al14 Ce1 2.965887 1_545
Al15 Ru1 2.384560 1_556
Al15 Ru0 2.384620 1_555
Al15 Ce4 2.967431 1_455
Al15 Ce0 2.967579 1_445
Al15 Ce3 2.967784 1_555
Al16 Ru7 2.568431 1_554
Al16 Ru2 2.568552 1_555
Al16 Ce2 3.061892 1_545
Al16 Ce1 3.062006 1_545
Al17 Ru3 2.566589 1_555
Al17 Ru6 2.566694 1_555
Al17 Ce0 3.061629 1_555
Al17 Ce3 3.061747 1_555
Al18 Ru4 2.566323 1_455
Al18 Ru5 2.566433 1_455
Al18 Ce0 3.061553 1_455
Al18 Ce4 3.061621 1_455
Al19 Ru4 2.568683 1_554
Al19 Ru5 2.568838 1_555
Al19 Ce5 3.062011 1_655
Al19 Ce1 3.062057 1_655
Al20 Ru3 2.568423 1_554
Al20 Ru6 2.568549 1_555
Al20 Ce2 3.061978 1_555
Al20 Ce5 3.062074 1_555
Al21 Ru7 2.566556 1_565
Al21 Ru2 2.566697 1_565
Al21 Ce4 3.061561 1_565
Al21 Ce3 3.061639 1_565
Al22 Ru1 2.591580 1_566
Al22 Ru4 2.696579 1_455
Al22 Ru7 2.697031 1_565
Al22 Ce1 3.163323 1_556
Al22 Ce0 3.209941 1_455
Al22 Ce3 3.210072 1_565
Al23 Ru0 2.591925 1_555
Al23 Ru6 2.696315 1_555
Al23 Ru2 2.696334 1_555
Al23 Ce3 3.162048 1_555
Al23 Ce1 3.210594 1_545
Al23 Ce5 3.210611 1_555
