# generated using pymatgen
data_Zn2Cr3RhO8
_symmetry_space_group_name_H-M   'P 1'
_cell_length_a   5.92425295
_cell_length_b   5.92829010
_cell_length_c   5.92829021
_cell_angle_alpha   60.00000470
_cell_angle_beta   59.97745963
_cell_angle_gamma   59.97746332
_symmetry_Int_Tables_number   1
_chemical_formula_structural   Zn2Cr3RhO8
_chemical_formula_sum   'Zn2 Cr3 Rh1 O8'
_cell_volume   147.17345299
_cell_formula_units_Z   1
loop_
 _symmetry_equiv_pos_site_id
 _symmetry_equiv_pos_as_xyz
  1  'x, y, z'
loop_
 _atom_site_type_symbol
 _atom_site_label
 _atom_site_symmetry_multiplicity
 _atom_site_fract_x
 _atom_site_fract_y
 _atom_site_fract_z
 _atom_site_occupancy
  Zn  Zn0  1  0.50355092  0.49881603  0.49881603  1
  Zn  Zn1  1  0.74644908  0.75118397  0.75118397  1
  Cr  Cr0  1  0.12500000  0.12500000  0.12500000  1
  Cr  Cr1  1  0.12500000  0.62500000  0.12500000  1
  Cr  Cr2  1  0.12500000  0.12500000  0.62500000  1
  Rh  Rh0  1  0.62500000  0.12500000  0.12500000  1
  O  O0  1  0.35560708  0.36900259  0.36900259  1
  O  O1  1  0.33919552  0.88693516  0.88693516  1
  O  O2  1  0.89439292  0.88099741  0.34361326  1
  O  O3  1  0.89439292  0.34361326  0.88099741  1
  O  O4  1  0.35560708  0.36900259  0.90638674  1
  O  O5  1  0.35560708  0.90638674  0.36900259  1
  O  O6  1  0.89439292  0.88099741  0.88099741  1
  O  O7  1  0.91080448  0.36306484  0.36306484  1
loop_
_geom_bond_atom_site_label_1
_geom_bond_atom_site_label_2
_geom_bond_distance
_geom_bond_site_symmetry_2
Cr0 O4 1.992373 1_554
Cr0 O2 1.992373 1_445
Cr0 O3 1.992373 1_454
Cr0 O5 1.992373 1_545
Cr0 O7 2.000366 1_455
Cr0 O1 2.000366 1_544
Cr1 O0 1.992373 1_555
Cr1 O6 1.992373 1_454
Cr1 O2 1.992378 1_455
Cr1 O4 1.992378 1_554
Cr1 O7 2.000370 1_455
Cr1 O1 2.000370 1_554
Cr2 O0 1.992373 1_555
Cr2 O6 1.992373 1_445
Cr2 O3 1.992378 1_455
Cr2 O5 1.992378 1_545
Cr2 O1 2.000370 1_545
Cr2 O7 2.000370 1_455
O0 Zn0 1.973527 1_555
O0 Rh0 2.050369 1_555
O1 Zn1 1.969268 1_555
O2 Zn1 1.973527 1_555
O2 Rh0 2.050373 1_565
O3 Zn1 1.973527 1_555
O3 Rh0 2.050373 1_556
O4 Zn0 1.973527 1_555
O4 Rh0 2.050373 1_556
O5 Zn0 1.973527 1_555
O5 Rh0 2.050373 1_565
O6 Zn1 1.973527 1_555
O6 Rh0 2.050369 1_566
O7 Zn0 1.969268 1_555
