# generated using pymatgen
data_AgBiIr2O7
_symmetry_space_group_name_H-M   'P 1'
_cell_length_a   7.20319683
_cell_length_b   7.09693378
_cell_length_c   7.20319618
_cell_angle_alpha   60.48681159
_cell_angle_beta   61.22782873
_cell_angle_gamma   60.48680865
_symmetry_Int_Tables_number   1
_chemical_formula_structural   AgBiIr2O7
_chemical_formula_sum   'Ag2 Bi2 Ir4 O14'
_cell_volume   264.66170677
_cell_formula_units_Z   2
loop_
 _symmetry_equiv_pos_site_id
 _symmetry_equiv_pos_as_xyz
  1  'x, y, z'
loop_
 _atom_site_type_symbol
 _atom_site_label
 _atom_site_symmetry_multiplicity
 _atom_site_fract_x
 _atom_site_fract_y
 _atom_site_fract_z
 _atom_site_occupancy
  Ag  Ag0  1  0.12500000  0.62500000  0.12500000  1
  Ag  Ag1  1  0.12500000  0.12500000  0.12500000  1
  Bi  Bi0  1  0.62500000  0.12500000  0.12500000  1
  Bi  Bi1  1  0.12500000  0.12500000  0.62500000  1
  Ir  Ir0  1  0.12500000  0.62500000  0.62500000  1
  Ir  Ir1  1  0.62500000  0.12500000  0.62500000  1
  Ir  Ir2  1  0.62500000  0.62500000  0.12500000  1
  Ir  Ir3  1  0.62500000  0.62500000  0.62500000  1
  O  O0  1  0.69401472  0.71243384  0.29881393  1
  O  O1  1  0.29881393  0.29473751  0.69401472  1
  O  O2  1  0.70962131  0.29037869  0.70962131  1
  O  O3  1  0.30639576  0.69360424  0.30639576  1
  O  O4  1  0.29881393  0.71243384  0.69401472  1
  O  O5  1  0.69401472  0.29473751  0.29881393  1
  O  O6  1  0.55598528  0.53756616  0.95118607  1
  O  O7  1  0.95118607  0.95526249  0.55598528  1
  O  O8  1  0.54037869  0.95962131  0.54037869  1
  O  O9  1  0.94360424  0.55639576  0.94360424  1
  O  O10  1  0.95118607  0.53756616  0.55598528  1
  O  O11  1  0.55598528  0.95526249  0.95118607  1
  O  O12  1  0.24079157  0.25920843  0.24079157  1
  O  O13  1  0.00920843  0.99079157  0.00920843  1
loop_
_geom_bond_atom_site_label_1
_geom_bond_atom_site_label_2
_geom_bond_distance
_geom_bond_site_symmetry_2
Ag0 O13 2.129235 1_555
Ag0 O12 2.129235 1_555
Ag0 O3 2.559044 1_555
Ag0 O9 2.559044 1_454
Ag0 O10 2.591546 1_455
Ag0 O4 2.591546 1_554
Ag0 O6 2.591546 1_554
Ag0 O0 2.591546 1_455
Ag1 O12 2.129235 1_555
Ag1 O13 2.129235 1_545
Ag1 O9 2.559045 1_454
Ag1 O3 2.559045 1_545
Ag1 O1 2.591546 1_554
Ag1 O7 2.591546 1_445
Ag1 O11 2.591546 1_544
Ag1 O5 2.591546 1_455
Bi0 O13 2.285953 1_645
Bi0 O12 2.285953 1_555
Bi0 O5 2.437397 1_555
Bi0 O11 2.437397 1_544
Bi0 O6 2.437397 1_554
Bi0 O0 2.437397 1_545
Bi0 O8 2.488116 1_545
Bi0 O2 2.488116 1_554
Bi1 O13 2.285953 1_546
Bi1 O12 2.285953 1_555
Bi1 O10 2.437397 1_455
Bi1 O4 2.437397 1_545
Bi1 O1 2.437397 1_555
Bi1 O7 2.437397 1_445
Bi1 O8 2.488117 1_545
Bi1 O2 2.488117 1_455
Ir0 O9 1.962249 1_455
Ir0 O3 1.962249 1_555
Ir0 O7 1.966783 1_455
Ir0 O1 1.966783 1_555
Ir0 O4 1.966783 1_555
Ir0 O10 1.966783 1_455
Ir1 O2 1.971801 1_555
Ir1 O8 1.971801 1_545
Ir1 O11 1.973771 1_545
Ir1 O5 1.973771 1_555
Ir1 O7 1.973771 1_545
Ir1 O1 1.973771 1_555
Ir2 O3 1.962249 1_555
Ir2 O9 1.962249 1_554
Ir2 O0 1.966783 1_555
Ir2 O6 1.966783 1_554
Ir2 O11 1.966783 1_554
Ir2 O5 1.966783 1_555
Ir3 O8 1.971801 1_555
Ir3 O2 1.971801 1_555
Ir3 O6 1.973771 1_555
Ir3 O0 1.973771 1_555
Ir3 O10 1.973771 1_555
Ir3 O4 1.973771 1_555
