# generated using pymatgen
data_Bi(PAu)2
_symmetry_space_group_name_H-M   'P 1'
_cell_length_a   5.94171034
_cell_length_b   5.94171134
_cell_length_c   11.23641795
_cell_angle_alpha   90.00000000
_cell_angle_beta   90.00000000
_cell_angle_gamma   147.83934337
_symmetry_Int_Tables_number   1
_chemical_formula_structural   Bi(PAu)2
_chemical_formula_sum   'Bi2 P4 Au4'
_cell_volume   211.15597417
_cell_formula_units_Z   2
loop_
 _symmetry_equiv_pos_site_id
 _symmetry_equiv_pos_as_xyz
  1  'x, y, z'
loop_
 _atom_site_type_symbol
 _atom_site_label
 _atom_site_symmetry_multiplicity
 _atom_site_fract_x
 _atom_site_fract_y
 _atom_site_fract_z
 _atom_site_occupancy
  Bi  Bi0  1  0.51687321  0.48312679  0.75000000  1
  Bi  Bi1  1  0.48315755  0.51684245  0.25000000  1
  P  P0  1  0.79755247  0.20244753  0.54366812  1
  P  P1  1  0.20241489  0.79758511  0.04362711  1
  P  P2  1  0.20241489  0.79758511  0.45637289  1
  P  P3  1  0.79755247  0.20244753  0.95633188  1
  Au  Au0  1  0.00000642  0.99999358  0.99992104  1
  Au  Au1  1  0.77114923  0.22885077  0.75000000  1
  Au  Au2  1  0.00000642  0.99999358  0.50007896  1
  Au  Au3  1  0.22887145  0.77112855  0.25000000  1
loop_
_geom_bond_atom_site_label_1
_geom_bond_atom_site_label_2
_geom_bond_distance
_geom_bond_site_symmetry_2
P0 P2 2.202448 1_545
P0 P2 2.202448 1_655
P1 P3 2.202448 1_564
P1 P3 2.202448 1_454
Au0 P1 2.362796 1_556
Au0 P3 2.363032 1_465
Au0 Bi0 3.260631 1_565
Au0 Bi0 3.260631 1_455
Au0 Bi1 3.262147 1_456
Au0 Bi1 3.262147 1_566
Au1 P3 2.337951 1_555
Au1 P0 2.337951 1_555
Au1 Bi0 2.903444 1_555
Au1 Bi0 3.252846 1_655
Au1 Bi0 3.252847 1_545
Au2 P2 2.362796 1_555
Au2 P0 2.363032 1_465
Au2 Bi0 3.260631 1_565
Au2 Bi0 3.260631 1_455
Au2 Bi1 3.262147 1_455
Au2 Bi1 3.262147 1_565
Au3 P2 2.338487 1_555
Au3 P1 2.338487 1_555
Au3 Bi1 2.903559 1_555
Au3 Bi1 3.252747 1_455
Au3 Bi1 3.252748 1_565
