# generated using pymatgen
data_H3SBr
_symmetry_space_group_name_H-M   'P 1'
_cell_length_a   4.37263687
_cell_length_b   4.37263638
_cell_length_c   4.37263758
_cell_angle_alpha   78.59375170
_cell_angle_beta   78.59375415
_cell_angle_gamma   78.59375076
_symmetry_Int_Tables_number   1
_chemical_formula_structural   H3SBr
_chemical_formula_sum   'H3 S1 Br1'
_cell_volume   79.23218469
_cell_formula_units_Z   1
loop_
 _symmetry_equiv_pos_site_id
 _symmetry_equiv_pos_as_xyz
  1  'x, y, z'
loop_
 _atom_site_type_symbol
 _atom_site_label
 _atom_site_symmetry_multiplicity
 _atom_site_fract_x
 _atom_site_fract_y
 _atom_site_fract_z
 _atom_site_occupancy
  H  H0  1  0.28918610  0.66190081  0.28918610  1
  H  H1  1  0.28918610  0.28918610  0.66190081  1
  H  H2  1  0.66190081  0.28918610  0.28918610  1
  S  S0  1  0.49398938  0.49398938  0.49398938  1
  Br  Br0  1  0.96973860  0.96973860  0.96973860  1
loop_
_geom_bond_atom_site_label_1
_geom_bond_atom_site_label_2
_geom_bond_distance
_geom_bond_site_symmetry_2
H0 S0 1.392873 1_555
H1 S0 1.392873 1_555
H2 S0 1.392873 1_555
Br0 H1 2.235735 1_665
Br0 H0 2.235735 1_656
Br0 H2 2.235735 1_566
