# generated using pymatgen
data_BaLi2SnS4
_symmetry_space_group_name_H-M   'P 1'
_cell_length_a   6.51530830
_cell_length_b   6.51530897
_cell_length_c   16.16648717
_cell_angle_alpha   90.00000000
_cell_angle_beta   90.00000000
_cell_angle_gamma   120.00000154
_symmetry_Int_Tables_number   1
_chemical_formula_structural   BaLi2SnS4
_chemical_formula_sum   'Ba3 Li6 Sn3 S12'
_cell_volume   594.31442778
_cell_formula_units_Z   3
loop_
 _symmetry_equiv_pos_site_id
 _symmetry_equiv_pos_as_xyz
  1  'x, y, z'
loop_
 _atom_site_type_symbol
 _atom_site_label
 _atom_site_symmetry_multiplicity
 _atom_site_fract_x
 _atom_site_fract_y
 _atom_site_fract_z
 _atom_site_occupancy
  Ba  Ba0  1  0.43645330  0.43645330  0.50000000  1
  Ba  Ba1  1  1.00000000  0.56354670  0.16666700  1
  Ba  Ba2  1  0.56354670  0.00000000  0.83333300  1
  Li  Li0  1  0.34140520  0.41712816  0.74454898  1
  Li  Li1  1  0.92427705  0.58287184  0.92211802  1
  Li  Li2  1  0.41712816  0.34140520  0.25545102  1
  Li  Li3  1  0.07572295  0.65859480  0.41121498  1
  Li  Li4  1  0.58287184  0.92427705  0.07788198  1
  Li  Li5  1  0.65859480  0.07572295  0.58878502  1
  Sn  Sn0  1  0.71474101  1.00000000  0.33333300  1
  Sn  Sn1  1  0.00000000  0.71474101  0.66666700  1
  Sn  Sn2  1  0.28525899  0.28525899  0.00000000  1
  S  S0  1  0.76140396  0.65648932  0.33073223  1
  S  S1  1  0.89508436  0.23859604  0.99739923  1
  S  S2  1  0.34351068  0.10491564  0.66406623  1
  S  S3  1  0.10491564  0.34351068  0.33593377  1
  S  S4  1  0.23859604  0.89508436  0.00260077  1
  S  S5  1  0.65648932  0.76140396  0.66926777  1
  S  S6  1  0.95426500  0.47457488  0.54861984  1
  S  S7  1  0.52030988  0.04573500  0.21528684  1
  S  S8  1  0.04573500  0.52030988  0.78471316  1
  S  S9  1  0.47457488  0.95426500  0.45138016  1
  S  S10  1  0.47969012  0.52542512  0.11804716  1
  S  S11  1  0.52542512  0.47969012  0.88195284  1
loop_
_geom_bond_atom_site_label_1
_geom_bond_atom_site_label_2
_geom_bond_distance
_geom_bond_site_symmetry_2
Ba0 S3 3.280191 1_555
Ba0 S2 3.280191 1_555
Ba0 S0 3.315214 1_555
Ba0 S5 3.315214 1_555
Ba0 S6 3.350140 1_555
Ba0 S9 3.350140 1_555
Ba0 S6 3.365930 1_455
Ba0 S9 3.365930 1_545
Ba1 S0 3.280182 1_555
Ba1 S4 3.280192 1_655
Ba1 S3 3.315203 1_655
Ba1 S1 3.315213 1_554
Ba1 S10 3.350140 1_655
Ba1 S7 3.350140 1_555
Ba1 S10 3.365930 1_555
Ba1 S7 3.365930 1_665
Ba2 S5 3.280182 1_545
Ba2 S1 3.280192 1_555
Ba2 S2 3.315203 1_555
Ba2 S4 3.315213 1_546
Ba2 S8 3.350140 1_545
Ba2 S11 3.350140 1_555
Ba2 S8 3.365930 1_655
Ba2 S11 3.365930 1_545
Li0 S2 2.420501 1_555
Li0 S8 2.424773 1_555
Li0 S11 2.459524 1_555
Li0 S5 2.474280 1_555
Li1 S4 2.420504 1_656
Li1 S11 2.424777 1_555
Li1 S8 2.459538 1_655
Li1 S1 2.474277 1_555
Li2 S3 2.420501 1_555
Li2 S7 2.424773 1_555
Li2 S10 2.459524 1_555
Li2 S0 2.474280 1_555
Li3 S0 2.420506 1_455
Li3 S9 2.424777 1_555
Li3 S6 2.459538 1_455
Li3 S3 2.474283 1_555
Li4 S1 2.420504 1_564
Li4 S10 2.424778 1_555
Li4 S7 2.459538 1_565
Li4 S4 2.474277 1_555
Li5 S5 2.420507 1_545
Li5 S6 2.424777 1_555
Li5 S9 2.459538 1_545
Li5 S2 2.474283 1_555
S0 Sn0 2.404916 1_555
S1 Sn2 2.404922 1_656
S2 Sn1 2.404920 1_545
S3 Sn0 2.404920 1_445
S4 Sn2 2.404922 1_565
S5 Sn1 2.404916 1_655
S6 Sn1 2.390191 1_655
S7 Sn0 2.390178 1_545
S8 Sn1 2.390178 1_555
S9 Sn0 2.390191 1_555
S10 Sn2 2.390191 1_555
S11 Sn2 2.390191 1_556
