# generated using pymatgen
data_Y4Ge6Ir6Rh
_symmetry_space_group_name_H-M   'P 1'
_cell_length_a   7.24268721
_cell_length_b   7.24268776
_cell_length_c   7.24268771
_cell_angle_alpha   109.53316834
_cell_angle_beta   109.53316950
_cell_angle_gamma   109.34740378
_symmetry_Int_Tables_number   1
_chemical_formula_structural   Y4Ge6Ir6Rh
_chemical_formula_sum   'Y4 Ge6 Ir6 Rh1'
_cell_volume   292.46627489
_cell_formula_units_Z   1
loop_
 _symmetry_equiv_pos_site_id
 _symmetry_equiv_pos_as_xyz
  1  'x, y, z'
loop_
 _atom_site_type_symbol
 _atom_site_label
 _atom_site_symmetry_multiplicity
 _atom_site_fract_x
 _atom_site_fract_y
 _atom_site_fract_z
 _atom_site_occupancy
  Y  Y0  1  0.99986240  0.00013760  0.50000000  1
  Y  Y1  1  0.99986240  0.49986240  0.99972480  1
  Y  Y2  1  0.50013760  0.00013760  0.00027520  1
  Y  Y3  1  0.50013760  0.49986240  0.50000000  1
  Ge  Ge0  1  0.67981428  0.67981428  1.00000000  1
  Ge  Ge1  1  0.32060389  0.99996871  0.32063618  1
  Ge  Ge2  1  0.00003129  0.32066747  0.32063618  1
  Ge  Ge3  1  0.32018572  0.32018572  0.00000000  1
  Ge  Ge4  1  0.67933253  0.99996871  0.67936382  1
  Ge  Ge5  1  0.00003129  0.67939611  0.67936382  1
  Ir  Ir0  1  0.75034960  0.50001358  0.25033502  1
  Ir  Ir1  1  0.49998642  0.24965040  0.74966498  1
  Ir  Ir2  1  0.24967856  0.50001358  0.74966498  1
  Ir  Ir3  1  0.25000000  0.75000000  0.50000000  1
  Ir  Ir4  1  0.49998642  0.75032144  0.25033502  1
  Ir  Ir5  1  0.00000000  0.00000000  0.00000000  1
  Rh  Rh0  1  0.75000000  0.25000000  0.50000000  1
loop_
_geom_bond_atom_site_label_1
_geom_bond_atom_site_label_2
_geom_bond_distance
_geom_bond_site_symmetry_2
Ge0 Ir2 2.577677 1_555
Ge0 Ir0 2.577678 1_556
Ge0 Ir4 2.577810 1_556
Ge0 Ir1 2.577816 1_555
Ge0 Ir5 2.681847 1_666
Ge0 Y0 3.012471 1_566
Ge0 Y3 3.012471 1_555
Ge0 Y1 3.012471 1_555
Ge0 Y2 3.012471 1_566
Ge1 Ir1 2.568985 1_565
Ge1 Ir4 2.568993 1_555
Ge1 Ir3 2.574943 1_555
Ge1 Rh0 2.575376 1_565
Ge1 Ir5 2.679469 1_565
Ge1 Y3 3.015429 1_565
Ge1 Y2 3.015434 1_565
Ge1 Y0 3.017102 1_465
Ge1 Y1 3.017107 1_454
Ge2 Ir0 2.568982 1_455
Ge2 Ir2 2.568987 1_555
Ge2 Ir3 2.574944 1_555
Ge2 Rh0 2.575370 1_455
Ge2 Ir5 2.679473 1_555
Ge2 Y2 3.015429 1_455
Ge2 Y0 3.015430 1_455
Ge2 Y3 3.017108 1_555
Ge2 Y1 3.017109 1_454
Ge3 Ir4 2.577677 1_555
Ge3 Ir1 2.577678 1_554
Ge3 Ir2 2.577810 1_554
Ge3 Ir0 2.577816 1_555
Ge3 Ir5 2.681847 1_555
Ge3 Y0 3.012471 1_454
Ge3 Y3 3.012471 1_555
Ge3 Y1 3.012471 1_454
Ge3 Y2 3.012471 1_555
Ge4 Ir1 2.568982 1_565
Ge4 Ir4 2.568987 1_555
Ge4 Ir3 2.574944 1_555
Ge4 Rh0 2.575370 1_565
Ge4 Ir5 2.679473 1_666
Ge4 Y1 3.015429 1_565
Ge4 Y0 3.015429 1_565
Ge4 Y3 3.017108 1_555
Ge4 Y2 3.017109 1_566
Ge5 Ir0 2.568985 1_455
Ge5 Ir2 2.568993 1_555
Ge5 Ir3 2.574943 1_555
Ge5 Rh0 2.575376 1_455
Ge5 Ir5 2.679469 1_566
Ge5 Y3 3.015428 1_455
Ge5 Y1 3.015434 1_455
Ge5 Y0 3.017102 1_465
Ge5 Y2 3.017107 1_566
Ir0 Y2 2.957213 1_555
Ir0 Y3 2.957219 1_555
Ir0 Y1 2.958673 1_554
Ir0 Y0 2.958679 1_565
Ir1 Y1 2.957213 1_555
Ir1 Y3 2.957220 1_555
Ir1 Y2 2.958673 1_556
Ir1 Y0 2.958679 1_455
Ir2 Y0 2.957213 1_455
Ir2 Y1 2.957214 1_455
Ir2 Y2 2.958679 1_566
Ir2 Y3 2.958679 1_555
Ir3 Y2 2.956180 1_566
Ir3 Y1 2.956180 1_454
Ir3 Y0 2.956180 1_465
Ir3 Y3 2.956180 1_555
Ir4 Y0 2.957213 1_565
Ir4 Y2 2.957214 1_565
Ir4 Y1 2.958679 1_454
Ir4 Y3 2.958679 1_555
Rh0 Y1 2.952928 1_555
Rh0 Y2 2.952928 1_555
Rh0 Y3 2.952928 1_555
Rh0 Y0 2.952928 1_555
