# generated using pymatgen
data_CaCdGePd3
_symmetry_space_group_name_H-M   'P 1'
_cell_length_a   5.13394925
_cell_length_b   5.13394888
_cell_length_c   5.13394893
_cell_angle_alpha   65.37288825
_cell_angle_beta   65.37289261
_cell_angle_gamma   65.37289330
_symmetry_Int_Tables_number   1
_chemical_formula_structural   CaCdGePd3
_chemical_formula_sum   'Ca1 Cd1 Ge1 Pd3'
_cell_volume   106.87341657
_cell_formula_units_Z   1
loop_
 _symmetry_equiv_pos_site_id
 _symmetry_equiv_pos_as_xyz
  1  'x, y, z'
loop_
 _atom_site_type_symbol
 _atom_site_label
 _atom_site_symmetry_multiplicity
 _atom_site_fract_x
 _atom_site_fract_y
 _atom_site_fract_z
 _atom_site_occupancy
  Ca  Ca0  1  0.12516937  0.12516937  0.12516937  1
  Cd  Cd0  1  0.87056857  0.87056857  0.87056857  1
  Ge  Ge0  1  0.50063621  0.50063621  0.50063621  1
  Pd  Pd0  1  0.50207696  0.50207696  0.99947194  1
  Pd  Pd1  1  0.99947194  0.50207696  0.50207696  1
  Pd  Pd2  1  0.50207696  0.99947194  0.50207696  1
loop_
_geom_bond_atom_site_label_1
_geom_bond_atom_site_label_2
_geom_bond_distance
_geom_bond_site_symmetry_2
Ca0 Pd0 2.990696 1_554
Ca0 Pd1 2.990696 1_455
Ca0 Pd2 2.990696 1_545
Ca0 Cd0 3.065513 1_444
Ca0 Pd1 3.148771 1_445
Ca0 Pd1 3.148771 1_454
Ca0 Pd0 3.148772 1_544
Ca0 Pd2 3.148772 1_544
Ca0 Pd2 3.148772 1_445
Ca0 Pd0 3.148772 1_454
Ca0 Ge0 3.241403 1_554
Ca0 Ge0 3.241403 1_545
Ca0 Ge0 3.241403 1_455
Ca0 Cd0 3.338861 1_454
Ca0 Cd0 3.338861 1_445
Ca0 Cd0 3.338861 1_544
Cd0 Pd0 2.914078 1_555
Cd0 Pd1 2.914078 1_555
Cd0 Pd2 2.914078 1_555
Cd0 Pd1 3.187679 1_565
Cd0 Pd1 3.187679 1_556
Cd0 Pd0 3.187679 1_565
Cd0 Pd2 3.187679 1_556
Cd0 Pd2 3.187679 1_655
Cd0 Pd0 3.187679 1_655
Cd0 Ge0 3.231644 1_556
Cd0 Ge0 3.231644 1_565
Cd0 Ge0 3.231644 1_655
Ge0 Pd2 2.566810 1_545
Ge0 Pd0 2.566810 1_554
Ge0 Pd1 2.566810 1_455
Ge0 Pd2 2.567185 1_555
Ge0 Pd0 2.567185 1_555
Ge0 Pd1 2.567185 1_555
Pd0 Pd2 2.758099 1_555
Pd0 Pd1 2.758099 1_555
Pd0 Pd2 2.786989 1_546
Pd0 Pd1 2.786989 1_456
Pd1 Pd2 2.758099 1_555
Pd1 Pd2 2.786989 1_645
