# generated using pymatgen
data_Sc12Co4SnRh
_symmetry_space_group_name_H-M   'P 1'
_cell_length_a   7.71070119
_cell_length_b   7.71070017
_cell_length_c   7.71070032
_cell_angle_alpha   110.93482200
_cell_angle_beta   111.07461191
_cell_angle_gamma   106.44596435
_symmetry_Int_Tables_number   1
_chemical_formula_structural   Sc12Co4SnRh
_chemical_formula_sum   'Sc12 Co4 Sn1 Rh1'
_cell_volume   352.17295785
_cell_formula_units_Z   1
loop_
 _symmetry_equiv_pos_site_id
 _symmetry_equiv_pos_as_xyz
  1  'x, y, z'
loop_
 _atom_site_type_symbol
 _atom_site_label
 _atom_site_symmetry_multiplicity
 _atom_site_fract_x
 _atom_site_fract_y
 _atom_site_fract_z
 _atom_site_occupancy
  Sc  Sc0  1  0.42096329  0.22065226  0.20031003  1
  Sc  Sc1  1  0.57903671  0.77934774  0.79968997  1
  Sc  Sc2  1  0.02034223  0.22065226  0.79968997  1
  Sc  Sc3  1  0.97965777  0.77934774  0.20031003  1
  Sc  Sc4  1  0.31120259  0.61354063  0.30233704  1
  Sc  Sc5  1  0.68879741  0.38645937  0.69766296  1
  Sc  Sc6  1  0.31120259  0.00886356  0.69766296  1
  Sc  Sc7  1  0.68879741  0.99113644  0.30233704  1
  Sc  Sc8  1  0.18675557  0.28138856  0.46814512  1
  Sc  Sc9  1  0.81324443  0.71861044  0.53185488  1
  Sc  Sc10  1  0.18675557  0.71861044  0.90536701  1
  Sc  Sc11  1  0.81324443  0.28138856  0.09463299  1
  Co  Co0  1  0.37041652  0.00000000  0.37041652  1
  Co  Co1  1  0.62958348  1.00000000  0.62958348  1
  Co  Co2  1  0.11587959  0.61587959  0.50000000  1
  Co  Co3  1  0.88412041  0.38412041  0.50000000  1
  Sn  Sn0  1  0.50000000  0.50000000  0.00000000  1
  Rh  Rh0  1  0.00000000  0.00000000  0.00000000  1
loop_
_geom_bond_atom_site_label_1
_geom_bond_atom_site_label_2
_geom_bond_distance
_geom_bond_site_symmetry_2
Sc0 Sn0 3.115707 1_555
Sc1 Sn0 3.115707 1_556
Sc2 Sn0 3.115709 1_556
Sc3 Sn0 3.115709 1_555
Sc4 Sn0 3.166093 1_555
Sc5 Sn0 3.166093 1_556
Sc6 Sn0 3.166104 1_556
Sc7 Sn0 3.166104 1_555
Sc8 Sn0 3.335333 1_556
Sc9 Sn0 3.335334 1_555
Sc10 Sn0 3.335333 1_556
Sc11 Sn0 3.335339 1_555
Co0 Co1 2.261621 1_545
Co0 Sc3 2.520697 1_445
Co0 Sc0 2.520698 1_555
Co0 Sc4 2.702423 1_545
Co0 Sc5 2.702427 1_555
Co0 Sc7 2.702428 1_545
Co0 Sc6 2.702435 1_555
Co0 Sc10 2.935953 1_544
Co0 Sc8 2.935953 1_555
Co1 Sc2 2.520697 1_665
Co1 Sc1 2.520698 1_555
Co1 Sc5 2.702423 1_565
Co1 Sc4 2.702427 1_555
Co1 Sc6 2.702428 1_565
Co1 Sc7 2.702435 1_555
Co1 Sc11 2.935952 1_566
Co1 Sc9 2.935959 1_555
Co2 Co3 2.139793 1_455
Co2 Sc6 2.497601 1_565
Co2 Sc4 2.497615 1_555
Co2 Sc9 2.730010 1_455
Co2 Sc11 2.730016 1_455
Co2 Sc10 2.730017 1_555
Co2 Sc8 2.730017 1_555
Co2 Sc1 3.019499 1_555
Co2 Sc3 3.019505 1_455
Co3 Sc7 2.497601 1_545
Co3 Sc5 2.497615 1_555
Co3 Sc9 2.730010 1_555
Co3 Sc10 2.730013 1_655
Co3 Sc8 2.730014 1_655
Co3 Sc11 2.730016 1_555
Co3 Sc0 3.019499 1_555
Co3 Sc2 3.019505 1_655
Rh0 Sc2 2.684379 1_554
Rh0 Sc3 2.684379 1_445
Rh0 Sc0 2.684385 1_555
Rh0 Sc1 2.684385 1_444
Rh0 Sc11 2.950780 1_455
Rh0 Sc8 2.950786 1_555
Rh0 Sc10 2.950786 1_544
Rh0 Sc9 2.950788 1_444
