# generated using pymatgen
data_LuMn2PC
_symmetry_space_group_name_H-M   'P 1'
_cell_length_a   5.53016211
_cell_length_b   5.53016279
_cell_length_c   6.80705740
_cell_angle_alpha   90.00000000
_cell_angle_beta   90.00000000
_cell_angle_gamma   142.64991681
_symmetry_Int_Tables_number   1
_chemical_formula_structural   LuMn2PC
_chemical_formula_sum   'Lu2 Mn4 P2 C2'
_cell_volume   126.29826320
_cell_formula_units_Z   2
loop_
 _symmetry_equiv_pos_site_id
 _symmetry_equiv_pos_as_xyz
  1  'x, y, z'
loop_
 _atom_site_type_symbol
 _atom_site_label
 _atom_site_symmetry_multiplicity
 _atom_site_fract_x
 _atom_site_fract_y
 _atom_site_fract_z
 _atom_site_occupancy
  Lu  Lu0  1  0.54033906  0.45966094  0.25000000  1
  Lu  Lu1  1  0.45966094  0.54033906  0.75000000  1
  Mn  Mn0  1  0.83059634  0.16940366  0.05667850  1
  Mn  Mn1  1  0.16940366  0.83059634  0.94332150  1
  Mn  Mn2  1  0.16940366  0.83059634  0.55667850  1
  Mn  Mn3  1  0.83059634  0.16940366  0.44332150  1
  P  P0  1  0.26375735  0.73624265  0.25000000  1
  P  P1  1  0.73624265  0.26375735  0.75000000  1
  C  C0  1  0.00000000  0.00000000  0.00000000  1
  C  C1  1  0.00000000  0.00000000  0.50000000  1
loop_
_geom_bond_atom_site_label_1
_geom_bond_atom_site_label_2
_geom_bond_distance
_geom_bond_site_symmetry_2
Lu0 P0 2.898022 1_555
Lu0 P0 2.935261 1_655
Lu0 P0 2.935262 1_545
Lu1 P1 2.898022 1_555
Lu1 P1 2.935261 1_455
Lu1 P1 2.935262 1_565
Mn0 P1 2.309846 1_554
Mn0 P0 2.314690 1_545
Mn0 P0 2.314690 1_655
Mn1 P0 2.309846 1_556
Mn1 P1 2.314690 1_565
Mn1 P1 2.314690 1_455
Mn2 P0 2.309846 1_555
Mn2 P1 2.314690 1_565
Mn2 P1 2.314690 1_455
Mn3 P1 2.309846 1_555
Mn3 P0 2.314690 1_545
Mn3 P0 2.314690 1_655
C0 Mn0 1.816457 1_455
C0 Mn1 1.816457 1_544
C0 Lu0 2.492036 1_555
C0 Lu1 2.492036 1_444
C0 Lu1 2.492036 1_554
C0 Lu0 2.492036 1_445
C1 Mn2 1.816457 1_545
C1 Mn3 1.816457 1_455
C1 Lu0 2.492036 1_555
C1 Lu1 2.492036 1_445
C1 Lu1 2.492036 1_555
C1 Lu0 2.492036 1_445
