# generated using pymatgen
data_RbGaFeF6
_symmetry_space_group_name_H-M   'P 1'
_cell_length_a   7.24483659
_cell_length_b   7.24376324
_cell_length_c   7.24380394
_cell_angle_alpha   118.35759946
_cell_angle_beta   121.59275389
_cell_angle_gamma   90.06160036
_symmetry_Int_Tables_number   1
_chemical_formula_structural   RbGaFeF6
_chemical_formula_sum   'Rb2 Ga2 Fe2 F12'
_cell_volume   268.65241511
_cell_formula_units_Z   2
loop_
 _symmetry_equiv_pos_site_id
 _symmetry_equiv_pos_as_xyz
  1  'x, y, z'
loop_
 _atom_site_type_symbol
 _atom_site_label
 _atom_site_symmetry_multiplicity
 _atom_site_fract_x
 _atom_site_fract_y
 _atom_site_fract_z
 _atom_site_occupancy
  Rb  Rb0  1  0.62805301  0.87805907  0.75000384  1
  Rb  Rb1  1  0.37194699  0.12194093  0.24999616  1
  Ga  Ga0  1  0.00000000  0.50000000  0.00000000  1
  Ga  Ga1  1  0.00000000  0.00000000  0.50000000  1
  Fe  Fe0  1  0.50000000  0.50000000  0.00000000  1
  Fe  Fe1  1  0.00000000  0.50000000  0.50000000  1
  F  F0  1  0.04552796  0.79558863  0.24999402  1
  F  F1  1  0.66073775  0.41082808  0.24996494  1
  F  F2  1  0.06311437  0.84195539  0.65832853  1
  F  F3  1  0.68355985  0.40468976  0.84165292  1
  F  F4  1  0.68355808  0.84193416  0.27887018  1
  F  F5  1  0.06309234  0.40472488  0.22114561  1
  F  F6  1  0.95447204  0.20441137  0.75000598  1
  F  F7  1  0.33926225  0.58917192  0.75003506  1
  F  F8  1  0.93688563  0.15804461  0.34167147  1
  F  F9  1  0.31644015  0.59531024  0.15834708  1
  F  F10  1  0.31644192  0.15806584  0.72112982  1
  F  F11  1  0.93690766  0.59527512  0.77885439  1
loop_
_geom_bond_atom_site_label_1
_geom_bond_atom_site_label_2
_geom_bond_distance
_geom_bond_site_symmetry_2
F0 Ga1 1.913264 1_565
F0 Ga0 1.913652 1_555
F0 Rb1 3.342008 1_565
F1 Fe0 1.988807 1_555
F1 Fe1 1.989932 1_655
F1 Rb1 2.957720 1_555
F2 Ga1 1.879911 1_565
F2 Fe1 2.099900 1_555
F2 Rb1 3.028871 1_566
F3 Ga0 1.880760 1_656
F3 Fe0 2.099719 1_556
F3 Rb1 3.028816 1_555
F4 Ga1 1.880728 1_665
F4 Fe0 2.099847 1_555
F4 Rb1 3.028613 1_565
F5 Ga0 1.880200 1_555
F5 Fe1 2.099831 1_555
F5 Rb1 3.028716 1_555
F6 Ga1 1.913264 1_655
F6 Ga0 1.913652 1_656
F6 Rb0 3.342008 1_545
F7 Fe0 1.988807 1_556
F7 Fe1 1.989932 1_555
F7 Rb0 2.957720 1_555
F8 Ga1 1.879911 1_655
F8 Fe1 2.099900 1_655
F8 Rb0 3.028871 1_544
F9 Ga0 1.880760 1_555
F9 Fe0 2.099719 1_555
F9 Rb0 3.028816 1_555
F10 Ga1 1.880728 1_555
F10 Fe0 2.099847 1_556
F10 Rb0 3.028613 1_545
F11 Ga0 1.880200 1_656
F11 Fe1 2.099831 1_655
F11 Rb0 3.028716 1_555
