# generated using pymatgen
data_CeGaNi
_symmetry_space_group_name_H-M   'P 1'
_cell_length_a   6.84695501
_cell_length_b   6.84661031
_cell_length_c   3.96830758
_cell_angle_alpha   90.00000000
_cell_angle_beta   90.00000000
_cell_angle_gamma   119.99834245
_symmetry_Int_Tables_number   1
_chemical_formula_structural   CeGaNi
_chemical_formula_sum   'Ce3 Ga3 Ni3'
_cell_volume   161.10769943
_cell_formula_units_Z   3
loop_
 _symmetry_equiv_pos_site_id
 _symmetry_equiv_pos_as_xyz
  1  'x, y, z'
loop_
 _atom_site_type_symbol
 _atom_site_label
 _atom_site_symmetry_multiplicity
 _atom_site_fract_x
 _atom_site_fract_y
 _atom_site_fract_z
 _atom_site_occupancy
  Ce  Ce0  1  0.00000000  0.57734003  0.50000000  1
  Ce  Ce1  1  0.42265709  0.42265441  0.50000000  1
  Ce  Ce2  1  0.57734291  -0.00000167  0.50000000  1
  Ga  Ga0  1  0.23464877  0.99998326  0.00000000  1
  Ga  Ga1  1  0.76535123  0.76533449  -0.00000000  1
  Ga  Ga2  1  0.00000000  0.23465337  0.00000000  1
  Ni  Ni0  1  0.66677808  0.33342955  0.00000000  1
  Ni  Ni1  1  0.33322192  0.66665246  -0.00000000  1
  Ni  Ni2  1  1.00000000  0.99995411  0.50000000  1
loop_
_geom_bond_atom_site_label_1
_geom_bond_atom_site_label_2
_geom_bond_distance
_geom_bond_site_symmetry_2
Ce0 Ni1 2.849773 1_555
Ce0 Ni1 2.849773 1_556
Ce0 Ni0 2.849774 1_456
Ce0 Ni0 2.849774 1_455
Ce0 Ni2 2.893474 1_455
Ce0 Ga2 3.072738 1_555
Ce0 Ga2 3.072738 1_556
Ce0 Ga0 3.200413 1_555
Ce0 Ga0 3.200413 1_556
Ce0 Ga1 3.200413 1_456
Ce0 Ga1 3.200413 1_455
Ce1 Ni0 2.850430 1_556
Ce1 Ni0 2.850430 1_555
Ce1 Ni1 2.850535 1_555
Ce1 Ni1 2.850535 1_556
Ce1 Ni2 2.894062 1_445
Ce1 Ga1 3.072830 1_555
Ce1 Ga1 3.072830 1_556
Ce1 Ga0 3.200528 1_545
Ce1 Ga0 3.200528 1_546
Ce1 Ga2 3.200569 1_556
Ce1 Ga2 3.200569 1_555
Ce2 Ni1 2.850430 1_546
Ce2 Ni1 2.850430 1_545
Ce2 Ni0 2.850525 1_556
Ce2 Ni0 2.850525 1_555
Ce2 Ni2 2.894065 1_545
Ce2 Ga0 3.072828 1_546
Ce2 Ga0 3.072828 1_545
Ce2 Ga1 3.200533 1_546
Ce2 Ga1 3.200533 1_545
Ce2 Ga2 3.200568 1_656
Ce2 Ga2 3.200568 1_655
Ga0 Ni2 2.552999 1_455
Ga0 Ni2 2.552999 1_454
Ga0 Ni1 2.684051 1_555
Ga0 Ni0 2.685487 1_565
Ga0 Ga2 2.782797 1_565
Ga0 Ga1 2.782811 1_455
Ga1 Ni2 2.552999 1_555
Ga1 Ni2 2.552999 1_554
Ga1 Ni0 2.684057 1_555
Ga1 Ni1 2.685489 1_555
Ga1 Ga2 2.782797 1_665
Ga2 Ni2 2.553229 1_445
Ga2 Ni2 2.553229 1_444
Ga2 Ni0 2.684353 1_455
Ga2 Ni1 2.684357 1_555
