# generated using pymatgen
data_YMgCu3Ir
_symmetry_space_group_name_H-M   'P 1'
_cell_length_a   5.00004481
_cell_length_b   5.20879409
_cell_length_c   5.00004431
_cell_angle_alpha   61.31708715
_cell_angle_beta   59.99999691
_cell_angle_gamma   61.31708817
_symmetry_Int_Tables_number   1
_chemical_formula_structural   YMgCu3Ir
_chemical_formula_sum   'Y1 Mg1 Cu3 Ir1'
_cell_volume   93.87172360
_cell_formula_units_Z   1
loop_
 _symmetry_equiv_pos_site_id
 _symmetry_equiv_pos_as_xyz
  1  'x, y, z'
loop_
 _atom_site_type_symbol
 _atom_site_label
 _atom_site_symmetry_multiplicity
 _atom_site_fract_x
 _atom_site_fract_y
 _atom_site_fract_z
 _atom_site_occupancy
  Y  Y0  1  0.74806873  0.75579380  0.74806873  1
  Mg  Mg0  1  0.99985077  0.00044670  0.99985077  1
  Cu  Cu0  1  0.37562453  0.37196507  0.87678688  1
  Cu  Cu1  1  0.87678688  0.37196507  0.37562453  1
  Cu  Cu2  1  0.37562453  0.37196507  0.37562453  1
  Ir  Ir0  1  0.37404557  0.87786529  0.37404557  1
loop_
_geom_bond_atom_site_label_1
_geom_bond_atom_site_label_2
_geom_bond_distance
_geom_bond_site_symmetry_2
Mg0 Y0 3.075488 1_545
Mg0 Y0 3.075491 1_546
Mg0 Y0 3.075492 1_645
Mg0 Y0 3.274937 1_555
Cu0 Cu2 2.494210 1_556
Cu0 Cu1 2.494210 1_456
Cu0 Cu2 2.505834 1_555
Cu0 Cu1 2.505834 1_555
Cu0 Ir0 2.581270 1_546
Cu0 Ir0 2.627574 1_555
Cu0 Mg0 2.974007 1_555
Cu0 Mg0 2.974015 1_455
Cu0 Y0 3.003252 1_555
Cu0 Y0 3.003256 1_455
Cu0 Y0 3.038104 1_545
Cu0 Mg0 3.081998 1_465
Cu1 Cu2 2.494211 1_655
Cu1 Cu2 2.505834 1_555
Cu1 Ir0 2.581270 1_645
Cu1 Ir0 2.627574 1_555
Cu1 Mg0 2.974006 1_555
Cu1 Mg0 2.974015 1_554
Cu1 Y0 3.003252 1_555
Cu1 Y0 3.003256 1_554
Cu1 Y0 3.038104 1_545
Cu1 Mg0 3.081998 1_564
Cu2 Ir0 2.581268 1_545
Cu2 Ir0 2.627576 1_555
Cu2 Mg0 2.974011 1_455
Cu2 Mg0 2.974011 1_554
Cu2 Y0 3.003254 1_554
Cu2 Y0 3.003254 1_455
Cu2 Y0 3.038101 1_545
Cu2 Mg0 3.082002 1_464
Ir0 Y0 2.934888 1_555
Ir0 Y0 2.934896 1_554
Ir0 Y0 2.934896 1_455
Ir0 Mg0 2.935289 1_465
Ir0 Mg0 2.935289 1_564
Ir0 Mg0 2.935302 1_464
