# generated using pymatgen
data_Sr2LiIO6
_symmetry_space_group_name_H-M   'P 1'
_cell_length_a   5.61074320
_cell_length_b   5.61074273
_cell_length_c   5.61074293
_cell_angle_alpha   120.60461410
_cell_angle_beta   120.60460966
_cell_angle_gamma   88.95593290
_symmetry_Int_Tables_number   1
_chemical_formula_structural   Sr2LiIO6
_chemical_formula_sum   'Sr2 Li1 I1 O6'
_cell_volume   123.73164713
_cell_formula_units_Z   1
loop_
 _symmetry_equiv_pos_site_id
 _symmetry_equiv_pos_as_xyz
  1  'x, y, z'
loop_
 _atom_site_type_symbol
 _atom_site_label
 _atom_site_symmetry_multiplicity
 _atom_site_fract_x
 _atom_site_fract_y
 _atom_site_fract_z
 _atom_site_occupancy
  Sr  Sr0  1  0.25000000  0.75000000  0.50000000  1
  Sr  Sr1  1  0.75000000  0.25000000  0.50000000  1
  Li  Li0  1  0.50000000  0.50000000  0.00000000  1
  I  I0  1  0.00000000  0.00000000  0.00000000  1
  O  O0  1  0.73392506  0.79384454  0.52776961  1
  O  O1  1  0.26607494  0.20615546  0.47223039  1
  O  O2  1  0.79384454  0.26607494  0.05991948  1
  O  O3  1  0.20615546  0.73392506  0.94008052  1
  O  O4  1  0.23413315  0.23413315  0.00000000  1
  O  O5  1  0.76586685  0.76586685  1.00000000  1
loop_
_geom_bond_atom_site_label_1
_geom_bond_atom_site_label_2
_geom_bond_distance
_geom_bond_site_symmetry_2
Li0 O0 2.088034 1_555
Li0 O1 2.088034 1_554
Li0 O2 2.088034 1_555
Li0 O3 2.088034 1_554
Li0 O5 2.128730 1_554
Li0 O4 2.128730 1_555
I0 O2 1.871261 1_455
I0 O3 1.871261 1_544
I0 O1 1.871261 1_555
I0 O0 1.871261 1_444
I0 O4 1.874646 1_555
I0 O5 1.874646 1_444
O0 Sr1 2.647933 1_565
O0 Sr0 2.647933 1_555
O0 Sr1 2.977158 1_555
O0 Sr0 2.977158 1_655
O1 Sr0 2.647933 1_545
O1 Sr1 2.647933 1_555
O1 Sr0 2.977158 1_555
O1 Sr1 2.977158 1_455
O2 Sr1 2.647933 1_555
O2 Sr0 2.647933 1_655
O2 Sr1 2.977158 1_554
O2 Sr0 2.977158 1_544
O3 Sr0 2.647933 1_555
O3 Sr1 2.647933 1_455
O3 Sr0 2.977158 1_556
O3 Sr1 2.977158 1_566
O4 Sr0 2.782597 1_555
O4 Sr0 2.782597 1_544
O4 Sr1 2.782597 1_454
O4 Sr1 2.782597 1_555
O5 Sr1 2.782597 1_555
O5 Sr1 2.782597 1_566
O5 Sr0 2.782597 1_656
O5 Sr0 2.782597 1_555
