# generated using pymatgen
data_V2GaSiOs4
_symmetry_space_group_name_H-M   'P 1'
_cell_length_a   7.33347491
_cell_length_b   7.33347333
_cell_length_c   7.33347464
_cell_angle_alpha   33.53088196
_cell_angle_beta   33.53087396
_cell_angle_gamma   33.53087835
_symmetry_Int_Tables_number   1
_chemical_formula_structural   V2GaSiOs4
_chemical_formula_sum   'V2 Ga1 Si1 Os4'
_cell_volume   107.18627808
_cell_formula_units_Z   1
loop_
 _symmetry_equiv_pos_site_id
 _symmetry_equiv_pos_as_xyz
  1  'x, y, z'
loop_
 _atom_site_type_symbol
 _atom_site_label
 _atom_site_symmetry_multiplicity
 _atom_site_fract_x
 _atom_site_fract_y
 _atom_site_fract_z
 _atom_site_occupancy
  V  V0  1  0.25199031  0.25199031  0.25199031  1
  V  V1  1  0.74800969  0.74800969  0.74800969  1
  Ga  Ga0  1  0.00000000  0.00000000  0.00000000  1
  Si  Si0  1  0.50000000  0.50000000  0.50000000  1
  Os  Os0  1  0.87216724  0.87216724  0.87216724  1
  Os  Os1  1  0.37800820  0.37800820  0.37800820  1
  Os  Os2  1  0.12783276  0.12783276  0.12783276  1
  Os  Os3  1  0.62199180  0.62199180  0.62199180  1
loop_
_geom_bond_atom_site_label_1
_geom_bond_atom_site_label_2
_geom_bond_distance
_geom_bond_site_symmetry_2
Ga0 Os3 2.612518 1_544
Ga0 Os1 2.612518 1_455
Ga0 Os1 2.612518 1_554
Ga0 Os3 2.612518 1_445
Ga0 Os3 2.612519 1_454
Ga0 Os1 2.612519 1_545
Ga0 Os2 2.651786 1_555
Ga0 Os0 2.651786 1_444
Os0 Si0 2.572033 1_655
Os0 Si0 2.572033 1_556
Os0 Si0 2.572034 1_565
Os0 V1 2.575547 1_555
Os0 V0 2.626109 1_566
Os0 V0 2.626109 1_665
Os0 V0 2.626110 1_656
Os1 Si0 2.530620 1_555
Os1 V1 2.558317 1_455
Os1 V1 2.558317 1_554
Os1 V1 2.558318 1_545
Os1 V0 2.614138 1_555
Os2 Si0 2.572033 1_455
Os2 Si0 2.572033 1_554
Os2 Si0 2.572034 1_545
Os2 V0 2.575547 1_555
Os2 V1 2.626109 1_544
Os2 V1 2.626109 1_445
Os2 V1 2.626110 1_454
Os3 Si0 2.530620 1_555
Os3 V0 2.558317 1_655
Os3 V0 2.558317 1_556
Os3 V0 2.558318 1_565
Os3 V1 2.614138 1_555
