# generated using pymatgen
data_Li4Ta3Nb5N12
_symmetry_space_group_name_H-M   'P 1'
_cell_length_a   5.24856490
_cell_length_b   5.23466859
_cell_length_c   10.31620416
_cell_angle_alpha   90.00000000
_cell_angle_beta   90.00000000
_cell_angle_gamma   119.91246732
_symmetry_Int_Tables_number   1
_chemical_formula_structural   Li4Ta3Nb5N12
_chemical_formula_sum   'Li4 Ta3 Nb5 N12'
_cell_volume   245.67598871
_cell_formula_units_Z   1
loop_
 _symmetry_equiv_pos_site_id
 _symmetry_equiv_pos_as_xyz
  1  'x, y, z'
loop_
 _atom_site_type_symbol
 _atom_site_label
 _atom_site_symmetry_multiplicity
 _atom_site_fract_x
 _atom_site_fract_y
 _atom_site_fract_z
 _atom_site_occupancy
  Li  Li0  1  0.33332617  0.66683115  0.00004471  1
  Li  Li1  1  0.33332617  0.66683115  0.49995529  1
  Li  Li2  1  0.66667383  0.33350398  0.49995529  1
  Li  Li3  1  0.66667383  0.33350398  0.00004471  1
  Ta  Ta0  1  1.00000000  0.00149152  0.49973153  1
  Ta  Ta1  1  1.00000000  0.00149152  0.00026847  1
  Ta  Ta2  1  1.00000000  0.64388477  0.75000000  1
  Nb  Nb0  1  0.00000000  0.35469612  0.25000000  1
  Nb  Nb1  1  0.64462312  0.99852315  0.75000000  1
  Nb  Nb2  1  0.35537688  0.35390003  0.75000000  1
  Nb  Nb3  1  0.64597017  0.64599705  0.25000000  1
  Nb  Nb4  1  0.35402983  0.00002588  0.25000000  1
  N  N0  1  0.68665204  0.68151890  0.62433447  1
  N  N1  1  0.68665204  0.68151890  0.87566553  1
  N  N2  1  0.31842195  0.31878522  0.12306250  1
  N  N3  1  0.31842195  0.31878522  0.37693750  1
  N  N4  1  0.31334796  0.99486686  0.87566553  1
  N  N5  1  0.31334796  0.99486686  0.62433447  1
  N  N6  1  0.00000000  0.68242638  0.37664469  1
  N  N7  1  0.00000000  0.68242638  0.12335531  1
  N  N8  1  0.68157805  0.00036326  0.12306250  1
  N  N9  1  0.68157805  0.00036326  0.37693750  1
  N  N10  1  1.00000000  0.32169824  0.87651861  1
  N  N11  1  1.00000000  0.32169824  0.62348139  1
loop_
_geom_bond_atom_site_label_1
_geom_bond_atom_site_label_2
_geom_bond_distance
_geom_bond_site_symmetry_2
Li0 N4 2.187603 1_554
Li0 N2 2.189491 1_555
Li0 N10 2.190033 1_454
Li0 N8 2.194757 1_565
Li0 N7 2.197279 1_555
Li0 N1 2.224659 1_554
Li1 N5 2.187603 1_555
Li1 N3 2.189491 1_555
Li1 N11 2.190033 1_455
Li1 N9 2.194757 1_565
Li1 N6 2.197279 1_555
Li1 N0 2.224659 1_555
Li2 N0 2.187607 1_555
Li2 N9 2.189487 1_555
Li2 N11 2.190031 1_555
Li2 N3 2.194760 1_555
Li2 N6 2.197281 1_655
Li2 N5 2.224657 1_545
Li3 N1 2.187607 1_554
Li3 N8 2.189487 1_555
Li3 N10 2.190031 1_554
Li3 N2 2.194760 1_555
Li3 N7 2.197281 1_655
Li3 N4 2.224657 1_544
N0 Ta0 2.101240 1_565
N0 Nb2 2.161238 1_555
N0 Ta2 2.178847 1_555
N0 Nb1 2.201823 1_555
N1 Ta1 2.101240 1_566
N1 Nb2 2.161238 1_555
N1 Ta2 2.178847 1_555
N1 Nb1 2.201823 1_555
N2 Ta1 2.094754 1_455
N2 Nb3 2.160396 1_555
N2 Nb4 2.201135 1_555
N2 Nb0 2.203770 1_555
N3 Ta0 2.094754 1_455
N3 Nb3 2.160396 1_555
N3 Nb4 2.201135 1_555
N3 Nb0 2.203770 1_555
N4 Ta1 2.101240 1_466
N4 Nb1 2.161238 1_555
N4 Ta2 2.178847 1_455
N4 Nb2 2.201823 1_565
N5 Ta0 2.101240 1_465
N5 Nb1 2.161238 1_555
N5 Ta2 2.178847 1_455
N5 Nb2 2.201823 1_565
N6 Ta0 2.098078 1_465
N6 Nb0 2.156401 1_555
N6 Nb4 2.200589 1_565
N6 Nb3 2.200591 1_455
N7 Ta1 2.098078 1_465
N7 Nb0 2.156401 1_555
N7 Nb4 2.200589 1_565
N7 Nb3 2.200591 1_455
N8 Ta1 2.094755 1_555
N8 Nb4 2.160394 1_555
N8 Nb3 2.201131 1_545
N8 Nb0 2.203769 1_655
N9 Ta0 2.094755 1_555
N9 Nb4 2.160394 1_555
N9 Nb3 2.201131 1_545
N9 Nb0 2.203769 1_655
N10 Ta1 2.106976 1_556
N10 Ta2 2.132590 1_555
N10 Nb1 2.213007 1_545
N10 Nb2 2.213007 1_655
N11 Ta0 2.106976 1_555
N11 Ta2 2.132590 1_555
N11 Nb1 2.213007 1_545
N11 Nb2 2.213007 1_655
