# generated using pymatgen
data_Cs8HfAs4
_symmetry_space_group_name_H-M   'P 1'
_cell_length_a   11.86653302
_cell_length_b   11.86653312
_cell_length_c   11.86653316
_cell_angle_alpha   60.00000258
_cell_angle_beta   60.00000231
_cell_angle_gamma   60.00000338
_symmetry_Int_Tables_number   1
_chemical_formula_structural   Cs8HfAs4
_chemical_formula_sum   'Cs16 Hf2 As8'
_cell_volume   1181.56221541
_cell_formula_units_Z   2
loop_
 _symmetry_equiv_pos_site_id
 _symmetry_equiv_pos_as_xyz
  1  'x, y, z'
loop_
 _atom_site_type_symbol
 _atom_site_label
 _atom_site_symmetry_multiplicity
 _atom_site_fract_x
 _atom_site_fract_y
 _atom_site_fract_z
 _atom_site_occupancy
  Cs  Cs0  1  0.62500000  0.12500000  0.62500000  1
  Cs  Cs1  1  0.62500000  0.62500000  0.12500000  1
  Cs  Cs2  1  0.12500000  0.62500000  0.62500000  1
  Cs  Cs3  1  0.62500000  0.62500000  0.62500000  1
  Cs  Cs4  1  0.02511386  0.02511386  0.47488614  1
  Cs  Cs5  1  0.77511386  0.22488614  0.22488614  1
  Cs  Cs6  1  0.22488614  0.77511386  0.77511386  1
  Cs  Cs7  1  0.77511386  0.77511386  0.22488614  1
  Cs  Cs8  1  0.77511386  0.22488614  0.77511386  1
  Cs  Cs9  1  0.22488614  0.77511386  0.22488614  1
  Cs  Cs10  1  0.47488614  0.02511386  0.47488614  1
  Cs  Cs11  1  0.47488614  0.02511386  0.02511386  1
  Cs  Cs12  1  0.02511386  0.47488614  0.47488614  1
  Cs  Cs13  1  0.02511386  0.47488614  0.02511386  1
  Cs  Cs14  1  0.22488614  0.22488614  0.77511386  1
  Cs  Cs15  1  0.47488614  0.47488614  0.02511386  1
  Hf  Hf0  1  0.75000000  0.75000000  0.75000000  1
  Hf  Hf1  1  0.50000000  0.50000000  0.50000000  1
  As  As0  1  0.40806659  0.77580023  0.40806659  1
  As  As1  1  0.84193341  0.84193341  0.47419977  1
  As  As2  1  0.47419977  0.84193341  0.84193341  1
  As  As3  1  0.84193341  0.84193341  0.84193341  1
  As  As4  1  0.77580023  0.40806659  0.40806659  1
  As  As5  1  0.40806659  0.40806659  0.40806659  1
  As  As6  1  0.40806659  0.40806659  0.77580023  1
  As  As7  1  0.84193341  0.47419977  0.84193341  1
loop_
_geom_bond_atom_site_label_1
_geom_bond_atom_site_label_2
_geom_bond_distance
_geom_bond_site_symmetry_2
Cs0 Hf0 3.633369 1_545
Cs0 Hf1 3.633369 1_555
Cs0 Cs8 3.891940 1_555
Cs0 Cs10 3.891940 1_555
Cs0 Cs4 3.891940 1_655
Cs0 Cs14 3.891940 1_555
Cs0 Cs11 3.891940 1_556
Cs0 Cs5 3.891940 1_555
Cs1 Hf0 3.633369 1_554
Cs1 Hf1 3.633369 1_555
Cs1 Cs7 3.891940 1_555
Cs1 Cs15 3.891940 1_555
Cs1 Cs13 3.891940 1_655
Cs1 Cs9 3.891940 1_555
Cs1 Cs11 3.891940 1_565
Cs1 Cs5 3.891940 1_555
Cs2 Hf0 3.633369 1_455
Cs2 Hf1 3.633369 1_555
Cs2 Cs6 3.891940 1_555
Cs2 Cs9 3.891940 1_555
Cs2 Cs4 3.891940 1_565
Cs3 Hf1 3.633369 1_555
Cs3 Hf0 3.633369 1_555
Cs3 Cs6 3.891940 1_555
Cs3 Cs7 3.891940 1_555
Cs3 Cs8 3.891940 1_555
Cs10 Cs3 3.891940 1_545
Cs12 Cs2 3.891940 1_555
Cs12 Cs3 3.891940 1_455
Cs13 Cs2 3.891940 1_554
Cs14 Cs2 3.891940 1_555
Cs15 Cs3 3.891940 1_554
As0 Hf1 2.672224 1_555
As0 Cs2 3.724160 1_555
As0 Cs3 3.724160 1_555
As0 Cs1 3.724160 1_555
As0 Cs9 3.769696 1_555
As0 Cs7 3.769696 1_555
As0 Cs6 3.769696 1_555
As0 Cs10 3.915414 1_565
As0 Cs11 3.915415 1_565
As0 Cs4 3.915415 1_565
As1 Hf0 2.672224 1_555
As1 Cs3 3.724160 1_555
As1 Cs2 3.724160 1_655
As1 Cs0 3.724160 1_565
As1 Cs4 3.769696 1_665
As1 Cs10 3.769696 1_565
As1 Cs12 3.769697 1_655
As1 Cs7 3.915415 1_555
As1 Cs9 3.915415 1_655
As1 Cs5 3.915415 1_565
As2 Hf0 2.672224 1_555
As2 Cs0 3.724160 1_565
As2 Cs3 3.724160 1_555
As2 Cs1 3.724160 1_556
As2 Cs11 3.769696 1_566
As2 Cs15 3.769696 1_556
As2 Cs10 3.769697 1_565
As2 Cs6 3.915414 1_555
As2 Cs9 3.915415 1_556
As2 Cs14 3.915415 1_565
As3 Hf0 2.672224 1_555
As3 Cs1 3.724160 1_556
As3 Cs2 3.724160 1_655
As3 Cs0 3.724160 1_565
As3 Cs4 3.769697 1_665
As3 Cs11 3.769697 1_566
As3 Cs13 3.769697 1_656
As3 Cs6 3.915415 1_655
As3 Cs8 3.915415 1_565
As3 Cs7 3.915415 1_556
As4 Hf1 2.672224 1_555
As4 Cs0 3.724160 1_555
As4 Cs3 3.724160 1_555
As4 Cs1 3.724160 1_555
As4 Cs5 3.769696 1_555
As4 Cs7 3.769696 1_555
As4 Cs8 3.769697 1_555
As4 Cs12 3.915414 1_655
As4 Cs13 3.915415 1_655
As4 Cs4 3.915415 1_655
As5 Hf1 2.672224 1_555
As5 Cs1 3.724160 1_555
As5 Cs2 3.724160 1_555
As5 Cs0 3.724160 1_555
As5 Cs14 3.769697 1_555
As5 Cs5 3.769697 1_555
As5 Cs9 3.769697 1_555
As5 Cs12 3.915415 1_555
As5 Cs10 3.915415 1_555
As5 Cs15 3.915415 1_555
As6 Hf1 2.672224 1_555
As6 Cs3 3.724160 1_555
As6 Cs2 3.724160 1_555
As6 Cs0 3.724160 1_555
As6 Cs14 3.769696 1_555
As6 Cs8 3.769696 1_555
As6 Cs6 3.769697 1_555
As6 Cs15 3.915415 1_556
As6 Cs13 3.915415 1_556
As6 Cs11 3.915415 1_556
As7 Hf0 2.672224 1_555
As7 Cs2 3.724160 1_655
As7 Cs3 3.724160 1_555
As7 Cs1 3.724160 1_556
As7 Cs13 3.769696 1_656
As7 Cs15 3.769696 1_556
As7 Cs12 3.769696 1_655
As7 Cs8 3.915414 1_555
As7 Cs5 3.915415 1_556
As7 Cs14 3.915415 1_655
