# generated using pymatgen
data_ZrZnTeO6
_symmetry_space_group_name_H-M   'P 1'
_cell_length_a   4.91732748
_cell_length_b   4.90712267
_cell_length_c   8.87790879
_cell_angle_alpha   90.00000000
_cell_angle_beta   90.00000000
_cell_angle_gamma   90.00000000
_symmetry_Int_Tables_number   1
_chemical_formula_structural   ZrZnTeO6
_chemical_formula_sum   'Zr2 Zn2 Te2 O12'
_cell_volume   214.22331006
_cell_formula_units_Z   2
loop_
 _symmetry_equiv_pos_site_id
 _symmetry_equiv_pos_as_xyz
  1  'x, y, z'
loop_
 _atom_site_type_symbol
 _atom_site_label
 _atom_site_symmetry_multiplicity
 _atom_site_fract_x
 _atom_site_fract_y
 _atom_site_fract_z
 _atom_site_occupancy
  Zr  Zr0  1  0.50000000  0.00000000  0.11591880  1
  Zr  Zr1  1  0.00000000  0.49999900  0.88408020  1
  Zn  Zn0  1  0.50000000  0.49999900  0.49847071  1
  Zn  Zn1  1  0.00000000  0.00000000  0.50152829  1
  Te  Te0  1  0.00000000  0.49999900  0.25193162  1
  Te  Te1  1  0.50000000  0.00000000  0.74806938  1
  O  O0  1  0.81528972  0.31203525  0.08582901  1
  O  O1  1  0.18471028  0.68796275  0.08582901  1
  O  O2  1  0.27457406  0.22936805  0.25071784  1
  O  O3  1  0.72542694  0.77063195  0.25071784  1
  O  O4  1  0.80178780  0.29971107  0.39747034  1
  O  O5  1  0.19821320  0.70028893  0.39747034  1
  O  O6  1  0.30178680  0.20028993  0.60252966  1
  O  O7  1  0.69821220  0.79971107  0.60252966  1
  O  O8  1  0.77457406  0.27063295  0.74928216  1
  O  O9  1  0.22542694  0.72936705  0.74928216  1
  O  O10  1  0.31528972  0.18796375  0.91417099  1
  O  O11  1  0.68471128  0.81203625  0.91417099  1
loop_
_geom_bond_atom_site_label_1
_geom_bond_atom_site_label_2
_geom_bond_distance
_geom_bond_site_symmetry_2
O0 Te0 1.962218 1_655
O0 Zr0 2.195360 1_555
O0 Zr1 2.209930 1_654
O1 Te0 1.962218 1_555
O1 Zr0 2.195367 1_565
O1 Zr1 2.209930 1_554
O2 Te0 1.893862 1_555
O2 Zr0 1.981858 1_555
O3 Te0 1.893865 1_655
O3 Zr0 1.981861 1_565
O4 Te0 1.893523 1_655
O4 Zn1 1.991593 1_655
O4 Zn0 1.993042 1_555
O5 Te0 1.893531 1_555
O5 Zn1 1.991595 1_565
O5 Zn0 1.993043 1_555
O6 Te1 1.893537 1_555
O6 Zn0 1.991592 1_555
O6 Zn1 1.993047 1_555
O7 Te1 1.893532 1_565
O7 Zn0 1.991601 1_555
O7 Zn1 1.993048 1_665
O8 Te1 1.893868 1_555
O8 Zr1 1.981847 1_655
O9 Te1 1.893865 1_565
O9 Zr1 1.981856 1_555
O10 Te1 1.962211 1_555
O10 Zr1 2.195361 1_555
O10 Zr0 2.209923 1_556
O11 Te1 1.962213 1_565
O11 Zr1 2.195365 1_655
O11 Zr0 2.209925 1_566
