# generated using pymatgen
data_Sc7Br12N
_symmetry_space_group_name_H-M   'P 1'
_cell_length_a   8.52425368
_cell_length_b   8.52425373
_cell_length_c   8.52425339
_cell_angle_alpha   107.82960775
_cell_angle_beta   107.82960957
_cell_angle_gamma   107.82961921
_symmetry_Int_Tables_number   1
_chemical_formula_structural   Sc7Br12N
_chemical_formula_sum   'Sc7 Br12 N1'
_cell_volume   503.71004740
_cell_formula_units_Z   1
loop_
 _symmetry_equiv_pos_site_id
 _symmetry_equiv_pos_as_xyz
  1  'x, y, z'
loop_
 _atom_site_type_symbol
 _atom_site_label
 _atom_site_symmetry_multiplicity
 _atom_site_fract_x
 _atom_site_fract_y
 _atom_site_fract_z
 _atom_site_occupancy
  Sc  Sc0  1  0.47373875  0.47373875  0.47373875  1
  Sc  Sc1  1  0.91239589  0.97940252  0.71497152  1
  Sc  Sc2  1  0.97940252  0.71497152  0.91239589  1
  Sc  Sc3  1  0.71497152  0.91239589  0.97940252  1
  Sc  Sc4  1  0.03944701  0.29157485  0.10360571  1
  Sc  Sc5  1  0.29157485  0.10360571  0.03944701  1
  Sc  Sc6  1  0.10360571  0.03944701  0.29157485  1
  Br  Br0  1  0.22995949  0.07829941  0.69647593  1
  Br  Br1  1  0.07829941  0.69647593  0.22995949  1
  Br  Br2  1  0.69647593  0.22995949  0.07829941  1
  Br  Br3  1  0.54552936  0.84197465  0.61930466  1
  Br  Br4  1  0.84197465  0.61930466  0.54552936  1
  Br  Br5  1  0.61930466  0.54552936  0.84197465  1
  Br  Br6  1  0.92509475  0.31209953  0.78100573  1
  Br  Br7  1  0.31209953  0.78100573  0.92509475  1
  Br  Br8  1  0.78100573  0.92509475  0.31209953  1
  Br  Br9  1  0.38797317  0.46766630  0.14675424  1
  Br  Br10  1  0.46766630  0.14675424  0.38797317  1
  Br  Br11  1  0.14675424  0.38797317  0.46766630  1
  N  N0  1  0.99692753  0.99692753  0.99692753  1
loop_
_geom_bond_atom_site_label_1
_geom_bond_atom_site_label_2
_geom_bond_distance
_geom_bond_site_symmetry_2
Br0 Sc1 2.647381 1_445
Br0 Sc5 2.733819 1_556
Br0 Sc6 3.160307 1_555
Br1 Sc2 2.647381 1_454
Br1 Sc6 2.733819 1_565
Br1 Sc4 3.160307 1_555
Br2 Sc3 2.647381 1_544
Br2 Sc4 2.733819 1_655
Br2 Sc5 3.160307 1_555
Br3 Sc1 2.725250 1_555
Br3 Sc3 2.737597 1_555
Br3 Sc0 2.782199 1_555
Br4 Sc2 2.725250 1_555
Br4 Sc1 2.737597 1_555
Br4 Sc0 2.782199 1_555
Br5 Sc3 2.725250 1_555
Br5 Sc2 2.737596 1_555
Br5 Sc0 2.782199 1_555
Br6 Sc1 2.677415 1_545
Br6 Sc4 2.701931 1_656
Br6 Sc2 3.100950 1_555
Br7 Sc2 2.677415 1_455
Br7 Sc5 2.701932 1_566
Br7 Sc3 3.100950 1_555
Br8 Sc3 2.677415 1_554
Br8 Sc6 2.701931 1_665
Br8 Sc1 3.100950 1_555
Br9 Sc0 2.635679 1_555
Br9 Sc5 2.717067 1_555
Br9 Sc4 2.734353 1_555
Br10 Sc0 2.635679 1_555
Br10 Sc6 2.717066 1_555
Br10 Sc5 2.734353 1_555
Br11 Sc0 2.635679 1_555
Br11 Sc4 2.717066 1_555
Br11 Sc6 2.734353 1_555
N0 Sc3 2.229762 1_555
N0 Sc1 2.229762 1_555
N0 Sc2 2.229762 1_555
N0 Sc5 2.260247 1_666
N0 Sc6 2.260247 1_666
N0 Sc4 2.260247 1_666
