# generated using pymatgen
data_VBiF7
_symmetry_space_group_name_H-M   'P 1'
_cell_length_a   5.43648501
_cell_length_b   9.00066721
_cell_length_c   11.95125057
_cell_angle_alpha   61.92914839
_cell_angle_beta   90.00000000
_cell_angle_gamma   90.00000000
_symmetry_Int_Tables_number   1
_chemical_formula_structural   VBiF7
_chemical_formula_sum   'V4 Bi4 F28'
_cell_volume   516.00653255
_cell_formula_units_Z   4
loop_
 _symmetry_equiv_pos_site_id
 _symmetry_equiv_pos_as_xyz
  1  'x, y, z'
loop_
 _atom_site_type_symbol
 _atom_site_label
 _atom_site_symmetry_multiplicity
 _atom_site_fract_x
 _atom_site_fract_y
 _atom_site_fract_z
 _atom_site_occupancy
  V  V0  1  0.75292712  0.27213828  0.95676183  1
  V  V1  1  0.25292712  0.72786172  0.54323817  1
  V  V2  1  0.24707288  0.72786172  0.04323817  1
  V  V3  1  0.74707288  0.27213828  0.45676183  1
  Bi  Bi0  1  0.76012653  0.81009851  0.76799107  1
  Bi  Bi1  1  0.26012653  0.18990149  0.73200893  1
  Bi  Bi2  1  0.23987347  0.18990149  0.23200893  1
  Bi  Bi3  1  0.73987347  0.81009851  0.26799107  1
  F  F0  1  0.43592671  0.71074441  0.91867656  1
  F  F1  1  0.93592671  0.28925559  0.58132344  1
  F  F2  1  0.56407329  0.28925559  0.08132344  1
  F  F3  1  0.06407329  0.71074441  0.41867656  1
  F  F4  1  0.45318543  0.27984115  0.54032883  1
  F  F5  1  0.95318543  0.72015885  0.95967117  1
  F  F6  1  0.54681457  0.72015885  0.45967117  1
  F  F7  1  0.04681457  0.27984115  0.04032883  1
  F  F8  1  0.76713928  0.49834213  0.86647729  1
  F  F9  1  0.26713928  0.50165787  0.63352271  1
  F  F10  1  0.23286072  0.50165787  0.13352271  1
  F  F11  1  0.73286072  0.49834213  0.36647729  1
  F  F12  1  0.76176059  0.04441987  0.04970854  1
  F  F13  1  0.26176059  0.95558013  0.45029146  1
  F  F14  1  0.23823941  0.95558013  0.95029146  1
  F  F15  1  0.73823941  0.04441987  0.54970854  1
  F  F16  1  0.96880275  0.73372028  0.62708652  1
  F  F17  1  0.46880275  0.26627972  0.87291348  1
  F  F18  1  0.03119725  0.26627972  0.37291348  1
  F  F19  1  0.53119725  0.73372028  0.12708652  1
  F  F20  1  0.06216487  0.74629317  0.16862203  1
  F  F21  1  0.56216487  0.25370683  0.33137797  1
  F  F22  1  0.93783513  0.25370683  0.83137797  1
  F  F23  1  0.43783513  0.74629317  0.66862203  1
  F  F24  1  0.39060025  0.96691392  0.22453090  1
  F  F25  1  0.89060025  0.03308608  0.27546910  1
  F  F26  1  0.60939975  0.03308608  0.77546910  1
  F  F27  1  0.10939975  0.96691392  0.72453090  1
loop_
_geom_bond_atom_site_label_1
_geom_bond_atom_site_label_2
_geom_bond_distance
_geom_bond_site_symmetry_2
Bi0 F26 2.208269 1_565
Bi0 F27 2.275416 1_655
Bi0 F5 2.293352 1_555
Bi0 F23 2.334952 1_555
Bi0 F0 2.373533 1_555
Bi0 F16 2.384307 1_555
Bi0 F15 2.467744 1_565
Bi0 F8 2.480374 1_555
Bi1 F27 2.208269 1_545
Bi1 F26 2.275416 1_555
Bi1 F4 2.293352 1_555
Bi1 F22 2.334952 1_455
Bi1 F1 2.373533 1_455
Bi1 F17 2.384307 1_555
Bi1 F14 2.467744 1_545
Bi1 F9 2.480374 1_555
Bi2 F24 2.208269 1_545
Bi2 F25 2.275416 1_455
Bi2 F7 2.293352 1_555
Bi2 F21 2.334952 1_555
Bi2 F2 2.373533 1_555
Bi2 F18 2.384307 1_555
Bi2 F13 2.467744 1_545
Bi2 F10 2.480374 1_555
Bi3 F25 2.208269 1_565
Bi3 F24 2.275416 1_555
Bi3 F6 2.293352 1_555
Bi3 F20 2.334952 1_655
Bi3 F3 2.373533 1_655
Bi3 F19 2.384307 1_555
Bi3 F12 2.467744 1_565
Bi3 F11 2.480374 1_555
F0 V2 1.873455 1_556
F1 V3 1.873455 1_555
F2 V0 1.873455 1_554
F3 V1 1.873455 1_555
F4 V3 1.902663 1_555
F5 V2 1.902663 1_656
F6 V1 1.902663 1_555
F7 V0 1.902663 1_454
F8 V0 1.802209 1_555
F9 V1 1.802209 1_555
F10 V2 1.802209 1_555
F11 V3 1.802209 1_555
F12 V0 1.815061 1_554
F13 V1 1.815061 1_555
F14 V2 1.815061 1_556
F15 V3 1.815061 1_555
F16 V1 1.855426 1_655
F17 V0 1.855426 1_555
F18 V3 1.855426 1_455
F19 V2 1.855426 1_555
F20 V2 1.875497 1_555
F21 V3 1.875497 1_555
F22 V0 1.875497 1_555
F23 V1 1.875497 1_555
