# generated using pymatgen
data_Li4As6Ir4Pd3
_symmetry_space_group_name_H-M   'P 1'
_cell_length_a   6.99758742
_cell_length_b   6.96361729
_cell_length_c   6.96361741
_cell_angle_alpha   109.37219341
_cell_angle_beta   109.57007428
_cell_angle_gamma   109.57006986
_symmetry_Int_Tables_number   1
_chemical_formula_structural   Li4As6Ir4Pd3
_chemical_formula_sum   'Li4 As6 Ir4 Pd3'
_cell_volume   260.89450790
_cell_formula_units_Z   1
loop_
 _symmetry_equiv_pos_site_id
 _symmetry_equiv_pos_as_xyz
  1  'x, y, z'
loop_
 _atom_site_type_symbol
 _atom_site_label
 _atom_site_symmetry_multiplicity
 _atom_site_fract_x
 _atom_site_fract_y
 _atom_site_fract_z
 _atom_site_occupancy
  Li  Li0  1  0.99799836  0.99599772  0.49799836  1
  Li  Li1  1  0.50000000  0.00000000  0.00000000  1
  Li  Li2  1  0.00200164  0.50200164  0.00400228  1
  Li  Li3  1  0.50000000  0.50200164  0.49799836  1
  As  As0  1  0.69523258  0.69451278  0.01127953  1
  As  As1  1  0.31604695  0.31676675  0.01127953  1
  As  As2  1  0.99928020  0.69451278  0.68323325  1
  As  As3  1  0.00071980  0.31676675  0.30548722  1
  As  As4  1  0.68395305  0.98872047  0.68323325  1
  As  As5  1  0.30476742  0.98872047  0.30548722  1
  Ir  Ir0  1  0.00000000  0.00000000  0.00000000  1
  Ir  Ir1  1  0.50000000  0.74915990  0.25084010  1
  Ir  Ir2  1  0.75084010  0.50167921  0.25084010  1
  Ir  Ir3  1  0.24915990  0.74915990  0.49832079  1
  Pd  Pd0  1  0.25075338  0.50150776  0.75075338  1
  Pd  Pd1  1  0.74924662  0.24924662  0.49849224  1
  Pd  Pd2  1  0.50000000  0.24924662  0.75075338  1
loop_
_geom_bond_atom_site_label_1
_geom_bond_atom_site_label_2
_geom_bond_distance
_geom_bond_site_symmetry_2
Li0 Pd1 2.862934 1_565
Li0 Pd2 2.862939 1_665
Li0 Pd0 2.872456 1_665
Li1 Pd1 2.832579 1_555
Li1 Pd0 2.832579 1_544
Li1 Pd2 2.832585 1_554
Li2 Pd0 2.862934 1_554
Li2 Pd2 2.862939 1_454
Li2 Pd1 2.872456 1_454
Li3 Pd1 2.862940 1_555
Li3 Pd0 2.862940 1_555
Li3 Pd2 2.872456 1_555
As0 Ir2 2.477655 1_555
As0 Ir1 2.499603 1_555
As0 Ir0 2.502701 1_665
As0 Pd2 2.557705 1_554
As0 Pd0 2.563863 1_554
As0 Li0 2.805869 1_555
As0 Li2 2.891961 1_655
As0 Li1 2.895486 1_565
As0 Li3 2.960094 1_554
As1 Ir1 2.477649 1_555
As1 Ir2 2.499604 1_555
As1 Ir0 2.502701 1_555
As1 Pd0 2.557711 1_554
As1 Pd2 2.563862 1_554
As1 Li3 2.805868 1_555
As1 Li2 2.891960 1_555
As1 Li1 2.895486 1_555
As1 Li0 2.960093 1_444
As2 Ir2 2.477648 1_555
As2 Ir3 2.499597 1_655
As2 Ir0 2.502701 1_666
As2 Pd1 2.557705 1_555
As2 Pd0 2.563856 1_655
As2 Li0 2.805875 1_555
As2 Li3 2.891960 1_555
As2 Li1 2.895485 1_666
As2 Li2 2.960088 1_656
As3 Ir3 2.477648 1_555
As3 Ir2 2.499597 1_455
As3 Ir0 2.502701 1_555
As3 Pd0 2.557705 1_555
As3 Pd1 2.563856 1_455
As3 Li2 2.805875 1_555
As3 Li3 2.891960 1_555
As3 Li1 2.895485 1_455
As3 Li0 2.960088 1_445
As4 Ir1 2.477649 1_555
As4 Ir3 2.499604 1_555
As4 Ir0 2.502701 1_666
As4 Pd1 2.557711 1_565
As4 Pd2 2.563862 1_565
As4 Li3 2.805868 1_555
As4 Li0 2.891960 1_555
As4 Li1 2.895486 1_566
As4 Li2 2.960093 1_666
As5 Ir3 2.477655 1_555
As5 Ir1 2.499603 1_555
As5 Ir0 2.502701 1_565
As5 Pd2 2.557705 1_565
As5 Pd1 2.563863 1_565
As5 Li2 2.805869 1_555
As5 Li0 2.891961 1_455
As5 Li1 2.895486 1_565
As5 Li3 2.960094 1_565
Ir1 Li3 2.808851 1_555
Ir1 Li0 2.840274 1_555
Ir1 Li2 2.840274 1_555
Ir1 Li1 2.850694 1_565
Ir2 Li0 2.808863 1_555
Ir2 Li3 2.840275 1_555
Ir2 Li2 2.840280 1_655
Ir2 Li1 2.850688 1_555
Ir3 Li2 2.808863 1_555
Ir3 Li3 2.840274 1_555
Ir3 Li0 2.840280 1_455
Ir3 Li1 2.850688 1_566
