# generated using pymatgen
data_SrCa11(InAs3)4
_symmetry_space_group_name_H-M   'P 1'
_cell_length_a   4.28507068
_cell_length_b   12.38559983
_cell_length_c   13.88742307
_cell_angle_alpha   90.09855344
_cell_angle_beta   90.00000000
_cell_angle_gamma   90.00000000
_symmetry_Int_Tables_number   1
_chemical_formula_structural   SrCa11(InAs3)4
_chemical_formula_sum   'Sr1 Ca11 In4 As12'
_cell_volume   737.04848523
_cell_formula_units_Z   1
loop_
 _symmetry_equiv_pos_site_id
 _symmetry_equiv_pos_as_xyz
  1  'x, y, z'
loop_
 _atom_site_type_symbol
 _atom_site_label
 _atom_site_symmetry_multiplicity
 _atom_site_fract_x
 _atom_site_fract_y
 _atom_site_fract_z
 _atom_site_occupancy
  Sr  Sr0  1  0.75000000  0.84375450  0.00160007  1
  Ca  Ca0  1  0.75000000  0.76886891  0.29173864  1
  Ca  Ca1  1  0.75000000  0.34474329  0.49502133  1
  Ca  Ca2  1  0.25000000  0.65366900  0.50464422  1
  Ca  Ca3  1  0.25000000  0.15490326  0.99517460  1
  Ca  Ca4  1  0.25000000  0.43705579  0.89617880  1
  Ca  Ca5  1  0.25000000  0.93841042  0.60417426  1
  Ca  Ca6  1  0.75000000  0.56199425  0.10615322  1
  Ca  Ca7  1  0.25000000  0.23127836  0.71157082  1
  Ca  Ca8  1  0.25000000  0.72847416  0.78310515  1
  Ca  Ca9  1  0.75000000  0.06384079  0.39450151  1
  Ca  Ca10  1  0.75000000  0.27128571  0.21378535  1
  In  In0  1  0.25000000  0.44638395  0.30043624  1
  In  In1  1  0.75000000  0.05682163  0.79694518  1
  In  In2  1  0.75000000  0.55262453  0.69943595  1
  In  In3  1  0.25000000  0.94505385  0.20198404  1
  As  As0  1  0.25000000  0.95098271  0.85897923  1
  As  As1  1  0.75000000  0.54955323  0.36792220  1
  As  As2  1  0.25000000  0.24427913  0.37315013  1
  As  As3  1  0.75000000  0.25711401  0.87308379  1
  As  As4  1  0.25000000  0.39354971  0.11162650  1
  As  As5  1  0.25000000  0.89475268  0.39035594  1
  As  As6  1  0.25000000  0.73899681  0.13541474  1
  As  As7  1  0.75000000  0.60559331  0.88720910  1
  As  As8  1  0.75000000  0.75552084  0.62568882  1
  As  As9  1  0.25000000  0.44911721  0.63283707  1
  As  As10  1  0.75000000  0.10869294  0.60954321  1
  As  As11  1  0.75000000  0.05268604  0.13773988  1
loop_
_geom_bond_atom_site_label_1
_geom_bond_atom_site_label_2
_geom_bond_distance
_geom_bond_site_symmetry_2
Ca7 In1 3.267084 1_455
Ca7 In1 3.267084 1_555
Ca8 In2 3.267350 1_455
Ca8 In2 3.267350 1_555
Ca10 In0 3.276094 1_655
Ca10 In0 3.276094 1_555
As0 In1 2.656109 1_465
As0 In1 2.656109 1_565
As0 Ca8 2.948776 1_555
As0 Ca3 3.152780 1_565
As0 Sr0 3.207216 1_556
As0 Sr0 3.207216 1_456
As0 Ca5 3.541741 1_555
As1 In0 2.664113 1_555
As1 In0 2.664113 1_655
As1 Ca0 2.916818 1_555
As1 Ca1 3.092851 1_555
As1 Ca2 3.138481 1_655
As1 Ca2 3.138481 1_555
As2 In0 2.700808 1_555
As2 Ca1 2.999332 1_555
As2 Ca1 2.999332 1_455
As2 Ca10 3.098870 1_455
As2 Ca10 3.098870 1_555
As2 Ca9 3.110491 1_455
As2 Ca9 3.110491 1_555
As3 In1 2.695011 1_555
As3 Ca3 3.012517 1_655
As3 Ca3 3.012517 1_555
As3 Ca4 3.107718 1_655
As3 Ca4 3.107718 1_555
As3 Ca7 3.117920 1_655
As3 Ca7 3.117920 1_555
As4 In0 2.701411 1_555
As4 Ca10 2.983918 1_455
As4 Ca10 2.983918 1_555
As4 Ca6 2.991550 1_455
As4 Ca6 2.991550 1_555
As4 Ca4 3.041060 1_554
As4 Ca3 3.366835 1_554
As5 In3 2.690205 1_555
As5 Ca0 2.981558 1_555
As5 Ca0 2.981558 1_455
As5 Ca9 2.996543 1_565
As5 Ca9 2.996543 1_465
As5 Ca5 3.017302 1_555
As5 Ca2 3.383992 1_555
As6 In3 2.712924 1_555
As6 Ca0 3.072059 1_555
As6 Ca0 3.072059 1_455
As6 Ca6 3.091704 1_455
As6 Ca6 3.091704 1_555
As6 Sr0 3.120201 1_555
As6 Sr0 3.120201 1_455
As7 In2 2.687850 1_555
As7 Ca4 2.994039 1_655
As7 Ca4 2.994039 1_555
As7 Ca8 3.000753 1_655
As7 Ca8 3.000753 1_555
As7 Ca6 3.089063 1_556
As7 Sr0 3.347933 1_556
As8 In2 2.715305 1_555
As8 Ca2 3.000048 1_555
As8 Ca2 3.000048 1_655
As8 Ca8 3.079652 1_555
As8 Ca8 3.079652 1_655
As8 Ca5 3.132599 1_655
As8 Ca5 3.132599 1_555
As9 In2 2.661826 1_455
As9 In2 2.661826 1_555
As9 Ca7 2.912945 1_555
As9 Ca2 3.098948 1_555
As9 Ca1 3.148990 1_455
As9 Ca1 3.148990 1_555
As10 In1 2.681728 1_555
As10 Ca7 2.982596 1_555
As10 Ca7 2.982596 1_655
As10 Ca5 3.007253 1_645
As10 Ca5 3.007253 1_545
As10 Ca9 3.036665 1_555
As10 Ca1 3.330615 1_555
As11 In3 2.677251 1_645
As11 In3 2.677251 1_545
As11 Ca10 2.904471 1_555
As11 Ca3 3.181470 1_654
As11 Ca3 3.181470 1_554
As11 Sr0 3.202197 1_545
As11 Ca9 3.568196 1_555
