# generated using pymatgen
data_K7NbP4
_symmetry_space_group_name_H-M   'P 1'
_cell_length_a   8.17567139
_cell_length_b   8.94998367
_cell_length_c   10.04354338
_cell_angle_alpha   90.00000000
_cell_angle_beta   90.00000000
_cell_angle_gamma   90.00000000
_symmetry_Int_Tables_number   1
_chemical_formula_structural   K7NbP4
_chemical_formula_sum   'K14 Nb2 P8'
_cell_volume   734.90741595
_cell_formula_units_Z   2
loop_
 _symmetry_equiv_pos_site_id
 _symmetry_equiv_pos_as_xyz
  1  'x, y, z'
loop_
 _atom_site_type_symbol
 _atom_site_label
 _atom_site_symmetry_multiplicity
 _atom_site_fract_x
 _atom_site_fract_y
 _atom_site_fract_z
 _atom_site_occupancy
  K  K0  1  0.87549955  0.03925860  0.00000000  1
  K  K1  1  0.70849603  0.83492309  0.71623362  1
  K  K2  1  0.39304957  0.89859961  0.00000000  1
  K  K3  1  0.37549955  0.96074140  0.50000000  1
  K  K4  1  0.87309883  0.46767423  0.28962253  1
  K  K5  1  0.89304957  0.10140039  0.50000000  1
  K  K6  1  0.66337699  0.34007171  0.00000000  1
  K  K7  1  0.16337699  0.65992829  0.50000000  1
  K  K8  1  0.20849603  0.16507691  0.21623362  1
  K  K9  1  0.37309883  0.53232577  0.21037747  1
  K  K10  1  0.37309883  0.53232577  0.78962253  1
  K  K11  1  0.87309883  0.46767423  0.71037747  1
  K  K12  1  0.70849603  0.83492309  0.28376638  1
  K  K13  1  0.20849603  0.16507691  0.78376638  1
  Nb  Nb0  1  0.99873938  0.67454666  0.00000000  1
  Nb  Nb1  1  0.49873938  0.32545334  0.50000000  1
  P  P0  1  0.70456729  0.68433163  0.00000000  1
  P  P1  1  0.20456729  0.31566837  0.50000000  1
  P  P2  1  0.07597633  0.41248473  0.00000000  1
  P  P3  1  0.57597633  0.58751527  0.50000000  1
  P  P4  1  0.09335259  0.80577724  0.20060430  1
  P  P5  1  0.59335259  0.19422276  0.29939570  1
  P  P6  1  0.59335259  0.19422276  0.70060430  1
  P  P7  1  0.09335259  0.80577724  0.79939570  1
loop_
_geom_bond_atom_site_label_1
_geom_bond_atom_site_label_2
_geom_bond_distance
_geom_bond_site_symmetry_2
K0 K6 3.202489 1_555
K0 P4 3.405625 1_645
K0 P7 3.405625 1_644
K0 Nb0 3.416134 1_545
K0 P0 3.470403 1_545
K0 P2 3.720818 1_655
K1 P0 3.152806 1_556
K1 P7 3.265867 1_655
K1 P3 3.285338 1_555
K1 P6 3.354359 1_565
K2 P0 3.188116 1_555
K2 P4 3.279190 1_555
K2 P7 3.279190 1_554
K3 K7 3.202489 1_555
K3 P6 3.405625 1_565
K3 P5 3.405625 1_565
K3 Nb1 3.416134 1_565
K3 P1 3.470403 1_565
K3 P3 3.720818 1_555
K4 P5 3.351152 1_555
K4 P2 3.384740 1_655
K4 P3 3.393495 1_555
K4 P4 3.633004 1_655
K5 P1 3.188116 1_655
K5 P6 3.279190 1_555
K5 P5 3.279190 1_555
K6 P0 3.099469 1_555
K6 P5 3.327716 1_555
K6 P6 3.327716 1_554
K6 P2 3.434971 1_655
K7 P1 3.099469 1_555
K7 P7 3.327716 1_555
K7 P4 3.327716 1_555
K7 P3 3.434971 1_555
K8 P1 3.152806 1_555
K8 P5 3.265867 1_555
K8 P2 3.285338 1_555
K8 P4 3.354359 1_545
K9 P4 3.351152 1_555
K9 P3 3.384740 1_555
K9 P2 3.393495 1_555
K9 P5 3.633004 1_555
K10 P7 3.351152 1_555
K10 P3 3.384740 1_555
K10 P2 3.393495 1_556
K10 P6 3.633004 1_555
K11 P6 3.351152 1_555
K11 P2 3.384740 1_656
K11 P3 3.393495 1_555
K11 P7 3.633004 1_655
K12 P0 3.152806 1_555
K12 P4 3.265867 1_655
K12 P3 3.285338 1_555
K12 P5 3.354359 1_565
K13 P1 3.152806 1_555
K13 P6 3.265867 1_555
K13 P2 3.285338 1_556
K13 P7 3.354359 1_545
Nb0 P0 2.406648 1_555
Nb0 P2 2.428967 1_655
Nb0 P4 2.457061 1_655
Nb0 P7 2.457061 1_654
Nb1 P1 2.406648 1_555
Nb1 P3 2.428967 1_555
Nb1 P6 2.457061 1_555
Nb1 P5 2.457061 1_555
