# generated using pymatgen
data_AlV3RuS8
_symmetry_space_group_name_H-M   'P 1'
_cell_length_a   6.81890796
_cell_length_b   6.81890791
_cell_length_c   6.81162998
_cell_angle_alpha   59.96464804
_cell_angle_beta   59.96465086
_cell_angle_gamma   60.00000419
_symmetry_Int_Tables_number   1
_chemical_formula_structural   AlV3RuS8
_chemical_formula_sum   'Al1 V3 Ru1 S8'
_cell_volume   223.83781521
_cell_formula_units_Z   1
loop_
 _symmetry_equiv_pos_site_id
 _symmetry_equiv_pos_as_xyz
  1  'x, y, z'
loop_
 _atom_site_type_symbol
 _atom_site_label
 _atom_site_symmetry_multiplicity
 _atom_site_fract_x
 _atom_site_fract_y
 _atom_site_fract_z
 _atom_site_occupancy
  Al  Al0  1  0.99833249  0.99833249  0.00500354  1
  V  V0  1  0.60494902  0.19148415  0.59861682  1
  V  V1  1  0.19148415  0.60494902  0.59861682  1
  V  V2  1  0.60494902  0.60494902  0.59861682  1
  Ru  Ru0  1  0.60850732  0.60850732  0.17447603  1
  S  S0  1  0.37026020  0.37026020  0.88922139  1
  S  S1  1  0.36758753  0.88908764  0.37573930  1
  S  S2  1  0.88908764  0.36758753  0.37573930  1
  S  S3  1  0.36758753  0.36758753  0.37573930  1
  S  S4  1  0.86490979  0.86490979  0.40527063  1
  S  S5  1  0.86289046  0.40656439  0.86765269  1
  S  S6  1  0.40656439  0.86289046  0.86765269  1
  S  S7  1  0.86289046  0.86289046  0.86765269  1
loop_
_geom_bond_atom_site_label_1
_geom_bond_atom_site_label_2
_geom_bond_distance
_geom_bond_site_symmetry_2
Al0 S4 2.224964 1_555
Al0 S5 2.272479 1_564
Al0 S6 2.272479 1_654
Al0 S7 2.272495 1_554
Ru0 S3 2.338109 1_555
Ru0 S2 2.338130 1_555
Ru0 S1 2.338130 1_555
Ru0 S7 2.477157 1_554
Ru0 S6 2.477157 1_554
Ru0 S5 2.477157 1_554
S0 V2 2.293263 1_555
S0 V1 2.293276 1_555
S0 V0 2.293276 1_555
S1 V2 2.248943 1_555
S1 V1 2.248955 1_555
S2 V2 2.248943 1_555
S2 V0 2.248955 1_555
S3 V0 2.248939 1_555
S3 V1 2.248939 1_555
S4 V1 2.546991 1_655
S4 V0 2.546991 1_565
S4 V2 2.546996 1_555
S5 V2 2.578300 1_555
S5 V1 2.578305 1_655
S6 V2 2.578300 1_555
S6 V0 2.578305 1_565
S7 V0 2.578301 1_565
S7 V1 2.578301 1_655
