# generated using pymatgen
data_MgFeBr18
_symmetry_space_group_name_H-M   'P 1'
_cell_length_a   8.87238480
_cell_length_b   8.87161848
_cell_length_c   8.87802242
_cell_angle_alpha   93.40951532
_cell_angle_beta   93.42960505
_cell_angle_gamma   93.44571080
_symmetry_Int_Tables_number   1
_chemical_formula_structural   MgFeBr18
_chemical_formula_sum   'Mg1 Fe1 Br18'
_cell_volume   694.90179917
_cell_formula_units_Z   1
loop_
 _symmetry_equiv_pos_site_id
 _symmetry_equiv_pos_as_xyz
  1  'x, y, z'
loop_
 _atom_site_type_symbol
 _atom_site_label
 _atom_site_symmetry_multiplicity
 _atom_site_fract_x
 _atom_site_fract_y
 _atom_site_fract_z
 _atom_site_occupancy
  Mg  Mg0  1  0.50000000  0.50000000  0.50000000  1
  Fe  Fe0  1  0.00000000  0.00000000  0.00000000  1
  Br  Br0  1  0.79736001  0.47428373  0.51326439  1
  Br  Br1  1  0.51277871  0.79731485  0.47398996  1
  Br  Br2  1  0.47401090  0.51282233  0.79718171  1
  Br  Br3  1  0.20263999  0.52571627  0.48673561  1
  Br  Br4  1  0.48722129  0.20268515  0.52601004  1
  Br  Br5  1  0.52598910  0.48717767  0.20281829  1
  Br  Br6  1  0.90147766  0.36680635  0.74648140  1
  Br  Br7  1  0.74638720  0.90143295  0.36677244  1
  Br  Br8  1  0.36669689  0.74607658  0.90109964  1
  Br  Br9  1  0.09852234  0.63319365  0.25351860  1
  Br  Br10  1  0.25361280  0.09856705  0.63322756  1
  Br  Br11  1  0.63330311  0.25392342  0.09890036  1
  Br  Br12  1  0.01033402  0.95980236  0.72888028  1
  Br  Br13  1  0.72877823  0.01051704  0.95997361  1
  Br  Br14  1  0.95964865  0.72876529  0.01060860  1
  Br  Br15  1  0.98966598  0.04019764  0.27111972  1
  Br  Br16  1  0.27122177  0.98948296  0.04002639  1
  Br  Br17  1  0.04035135  0.27123471  0.98939140  1
loop_
_geom_bond_atom_site_label_1
_geom_bond_atom_site_label_2
_geom_bond_distance
_geom_bond_site_symmetry_2
Br0 Br6 2.482210 1_555
Br0 Mg0 2.657985 1_555
Br1 Br7 2.483087 1_555
Br1 Mg0 2.657646 1_555
Br2 Br8 2.480877 1_555
Br2 Mg0 2.658464 1_555
Br3 Br9 2.482210 1_555
Br3 Mg0 2.657985 1_555
Br4 Mg0 2.657646 1_555
Br5 Mg0 2.658464 1_555
Br10 Br4 2.483087 1_555
Br10 Br12 2.630567 1_545
Br11 Br5 2.480877 1_555
Br11 Br13 2.632482 1_554
Br12 Fe0 2.420227 1_566
Br13 Fe0 2.419564 1_656
Br14 Fe0 2.419652 1_665
Br14 Br9 2.629252 1_655
Br15 Fe0 2.420227 1_655
Br15 Br7 2.630567 1_545
Br16 Fe0 2.419564 1_565
Br16 Br8 2.632482 1_554
Br17 Fe0 2.419652 1_556
Br17 Br6 2.629252 1_455
