# generated using pymatgen
data_Cs3YPBr9
_symmetry_space_group_name_H-M   'P 1'
_cell_length_a   10.18048927
_cell_length_b   10.18049032
_cell_length_c   10.18049023
_cell_angle_alpha   82.38997192
_cell_angle_beta   82.38996661
_cell_angle_gamma   82.38996142
_symmetry_Int_Tables_number   1
_chemical_formula_structural   Cs3YPBr9
_chemical_formula_sum   'Cs6 Y2 P2 Br18'
_cell_volume   1029.51291178
_cell_formula_units_Z   2
loop_
 _symmetry_equiv_pos_site_id
 _symmetry_equiv_pos_as_xyz
  1  'x, y, z'
loop_
 _atom_site_type_symbol
 _atom_site_label
 _atom_site_symmetry_multiplicity
 _atom_site_fract_x
 _atom_site_fract_y
 _atom_site_fract_z
 _atom_site_occupancy
  Cs  Cs0  1  0.76384287  0.40690226  0.06244700  1
  Cs  Cs1  1  0.06244700  0.76384287  0.40690226  1
  Cs  Cs2  1  0.23615713  0.59309774  0.93755300  1
  Cs  Cs3  1  0.40690226  0.06244700  0.76384287  1
  Cs  Cs4  1  0.93755300  0.23615713  0.59309774  1
  Cs  Cs5  1  0.59309774  0.93755300  0.23615713  1
  Y  Y0  1  0.83564144  0.83564144  0.83564144  1
  Y  Y1  1  0.16435856  0.16435856  0.16435856  1
  P  P0  1  0.35865227  0.35865227  0.35865227  1
  P  P1  1  0.64134773  0.64134773  0.64134773  1
  Br  Br0  1  0.43394768  0.73585260  0.59062248  1
  Br  Br1  1  0.26414740  0.40937752  0.56605232  1
  Br  Br2  1  0.41576153  0.25743610  0.07326502  1
  Br  Br3  1  0.07326502  0.41576153  0.25743610  1
  Br  Br4  1  0.90114449  0.73932354  0.08862155  1
  Br  Br5  1  0.91137845  0.09885551  0.26067646  1
  Br  Br6  1  0.58423847  0.74256390  0.92673498  1
  Br  Br7  1  0.74256390  0.92673498  0.58423847  1
  Br  Br8  1  0.59062248  0.43394768  0.73585260  1
  Br  Br9  1  0.25743610  0.07326502  0.41576153  1
  Br  Br10  1  0.73585260  0.59062248  0.43394768  1
  Br  Br11  1  0.73932354  0.08862155  0.90114449  1
  Br  Br12  1  0.09885551  0.26067646  0.91137845  1
  Br  Br13  1  0.40937752  0.56605232  0.26414740  1
  Br  Br14  1  0.56605232  0.26414740  0.40937752  1
  Br  Br15  1  0.92673498  0.58423847  0.74256390  1
  Br  Br16  1  0.26067646  0.91137845  0.09885551  1
  Br  Br17  1  0.08862155  0.90114449  0.73932354  1
loop_
_geom_bond_atom_site_label_1
_geom_bond_atom_site_label_2
_geom_bond_distance
_geom_bond_site_symmetry_2
Br0 P1 2.295569 1_555
Br0 Cs3 3.927139 1_565
Br0 Cs2 4.021581 1_555
Br0 Cs5 4.151365 1_555
Br1 P0 2.295569 1_555
Br1 Cs4 3.927139 1_455
Br1 Cs3 4.021581 1_555
Br1 Cs1 4.151365 1_555
Br2 Y1 2.844192 1_555
Br2 Cs5 3.797371 1_545
Br2 Cs2 3.833159 1_554
Br2 Cs3 3.956073 1_554
Br2 Cs0 4.020609 1_555
Br3 Y1 2.844192 1_555
Br3 Cs2 3.797371 1_554
Br3 Cs4 3.833159 1_455
Br3 Cs0 3.956072 1_455
Br3 Cs1 4.020609 1_555
Br4 Y0 2.766228 1_554
Br4 Cs5 3.747330 1_555
Br4 Cs2 3.753117 1_654
Br4 Cs1 3.871727 1_655
Br4 Cs0 3.881770 1_555
Br5 Y1 2.766228 1_655
Br5 Cs0 3.747331 1_555
Br5 Cs1 3.753117 1_645
Br5 Cs5 3.871727 1_545
Br5 Cs4 3.881770 1_555
Br6 Y0 2.844192 1_555
Br6 Cs3 3.797371 1_565
Br6 Cs0 3.833159 1_556
Br6 Cs5 3.956073 1_556
Br6 Cs2 4.020609 1_555
Br7 Y0 2.844192 1_555
Br7 Cs1 3.797370 1_655
Br7 Cs3 3.833159 1_565
Br7 Cs4 3.956073 1_565
Br7 Cs5 4.020609 1_555
Br8 P1 2.295569 1_555
Br8 Cs0 3.927139 1_556
Br8 Cs4 4.021580 1_555
Br8 Cs2 4.151364 1_555
Br9 Y1 2.844192 1_555
Br9 Cs4 3.797370 1_455
Br9 Cs5 3.833159 1_545
Br9 Cs1 3.956073 1_545
Br9 Cs3 4.020609 1_555
Br10 P1 2.295569 1_555
Br10 Cs1 3.927139 1_655
Br10 Cs5 4.021581 1_555
Br10 Cs4 4.151365 1_555
Br11 Y0 2.766228 1_545
Br11 Cs4 3.747331 1_555
Br11 Cs5 3.753118 1_546
Br11 Cs0 3.871727 1_556
Br11 Cs3 3.881770 1_555
Br12 Y1 2.766228 1_556
Br12 Cs3 3.747330 1_555
Br12 Cs0 3.753117 1_456
Br12 Cs4 3.871727 1_455
Br12 Cs2 3.881770 1_555
Br13 P0 2.295569 1_555
Br13 Cs2 3.927139 1_554
Br13 Cs1 4.021580 1_555
Br13 Cs0 4.151364 1_555
Br14 P0 2.295569 1_555
Br14 Cs5 3.927139 1_545
Br14 Cs0 4.021581 1_555
Br14 Cs3 4.151365 1_555
Br15 Y0 2.844192 1_555
Br15 Cs0 3.797371 1_556
Br15 Cs1 3.833159 1_655
Br15 Cs2 3.956072 1_655
Br15 Cs4 4.020609 1_555
Br16 Y1 2.766228 1_565
Br16 Cs1 3.747331 1_555
Br16 Cs3 3.753118 1_564
Br16 Cs2 3.871727 1_554
Br16 Cs5 3.881770 1_555
Br17 Y0 2.766228 1_455
Br17 Cs2 3.747331 1_555
Br17 Cs4 3.753117 1_465
Br17 Cs3 3.871727 1_565
Br17 Cs1 3.881770 1_555
