# generated using pymatgen
data_Sc22CoIr6Ru
_symmetry_space_group_name_H-M   'P 1'
_cell_length_a   9.42396856
_cell_length_b   9.42396878
_cell_length_c   9.42396919
_cell_angle_alpha   60.00000204
_cell_angle_beta   60.00000126
_cell_angle_gamma   60.00000363
_symmetry_Int_Tables_number   1
_chemical_formula_structural   Sc22CoIr6Ru
_chemical_formula_sum   'Sc22 Co1 Ir6 Ru1'
_cell_volume   591.81579177
_cell_formula_units_Z   1
loop_
 _symmetry_equiv_pos_site_id
 _symmetry_equiv_pos_as_xyz
  1  'x, y, z'
loop_
 _atom_site_type_symbol
 _atom_site_label
 _atom_site_symmetry_multiplicity
 _atom_site_fract_x
 _atom_site_fract_y
 _atom_site_fract_z
 _atom_site_occupancy
  Sc  Sc0  1  0.80403861  0.80403861  0.19596139  1
  Sc  Sc1  1  0.19596139  0.80403861  0.19596139  1
  Sc  Sc2  1  0.80403861  0.19596139  0.19596139  1
  Sc  Sc3  1  0.19596139  0.19596139  0.80403861  1
  Sc  Sc4  1  0.80403861  0.19596139  0.80403861  1
  Sc  Sc5  1  0.19596139  0.80403861  0.80403861  1
  Sc  Sc6  1  0.61521334  0.61521334  0.15435898  1
  Sc  Sc7  1  0.61521334  0.15435898  0.61521334  1
  Sc  Sc8  1  0.15435898  0.61521334  0.61521334  1
  Sc  Sc9  1  0.61521334  0.61521334  0.61521334  1
  Sc  Sc10  1  0.38478666  0.38478666  0.84564102  1
  Sc  Sc11  1  0.38478666  0.84564102  0.38478666  1
  Sc  Sc12  1  0.84564102  0.38478666  0.38478666  1
  Sc  Sc13  1  0.38478666  0.38478666  0.38478666  1
  Sc  Sc14  1  0.84309300  0.84309300  0.47072101  1
  Sc  Sc15  1  0.84309300  0.47072101  0.84309300  1
  Sc  Sc16  1  0.47072101  0.84309300  0.84309300  1
  Sc  Sc17  1  0.84309300  0.84309300  0.84309300  1
  Sc  Sc18  1  0.15690700  0.15690700  0.52927899  1
  Sc  Sc19  1  0.15690700  0.52927899  0.15690700  1
  Sc  Sc20  1  0.52927899  0.15690700  0.15690700  1
  Sc  Sc21  1  0.15690700  0.15690700  0.15690700  1
  Co  Co0  1  0.50000000  0.50000000  0.50000000  1
  Ir  Ir0  1  0.00000000  0.00000000  0.50000000  1
  Ir  Ir1  1  0.50000000  0.00000000  0.50000000  1
  Ir  Ir2  1  0.00000000  0.50000000  0.50000000  1
  Ir  Ir3  1  0.50000000  0.50000000  0.00000000  1
  Ir  Ir4  1  0.00000000  0.50000000  0.00000000  1
  Ir  Ir5  1  0.50000000  0.00000000  0.00000000  1
  Ru  Ru0  1  0.00000000  0.00000000  0.00000000  1
loop_
_geom_bond_atom_site_label_1
_geom_bond_atom_site_label_2
_geom_bond_distance
_geom_bond_site_symmetry_2
Co0 Sc9 2.659575 1_555
Co0 Sc13 2.659575 1_555
Co0 Sc12 2.659583 1_555
Co0 Sc8 2.659583 1_555
Co0 Sc11 2.659583 1_555
Co0 Sc7 2.659583 1_555
Co0 Sc10 2.659583 1_555
Co0 Sc6 2.659583 1_555
Ir0 Sc18 2.729778 1_555
Ir0 Sc14 2.729778 1_445
Ir0 Sc17 2.729778 1_445
Ir0 Sc21 2.729778 1_555
Ir0 Sc11 2.968445 1_545
Ir0 Sc7 2.968445 1_455
Ir0 Sc12 2.968445 1_455
Ir0 Sc8 2.968445 1_545
Ir1 Sc14 2.729778 1_545
Ir1 Sc18 2.729778 1_555
Ir1 Sc16 2.729778 1_545
Ir1 Sc20 2.729778 1_555
Ir1 Sc7 2.968437 1_555
Ir1 Sc11 2.968437 1_545
Ir1 Sc13 2.968446 1_555
Ir1 Sc9 2.968446 1_545
Ir2 Sc14 2.729778 1_455
Ir2 Sc18 2.729778 1_555
Ir2 Sc15 2.729778 1_455
Ir2 Sc19 2.729778 1_555
Ir2 Sc8 2.968437 1_555
Ir2 Sc12 2.968437 1_455
Ir2 Sc13 2.968445 1_555
Ir2 Sc9 2.968445 1_455
Ir3 Sc15 2.729778 1_554
Ir3 Sc19 2.729778 1_555
Ir3 Sc16 2.729778 1_554
Ir3 Sc20 2.729778 1_555
Ir3 Sc6 2.968437 1_555
Ir3 Sc10 2.968437 1_554
Ir3 Sc13 2.968446 1_555
Ir3 Sc9 2.968446 1_554
Ir4 Sc19 2.729778 1_555
Ir4 Sc15 2.729778 1_454
Ir4 Sc21 2.729778 1_555
Ir4 Sc17 2.729778 1_454
Ir4 Sc10 2.968445 1_554
Ir4 Sc6 2.968445 1_455
Ir4 Sc12 2.968445 1_455
Ir4 Sc8 2.968445 1_554
Ir5 Sc20 2.729778 1_555
Ir5 Sc16 2.729778 1_544
Ir5 Sc17 2.729778 1_544
Ir5 Sc21 2.729778 1_555
Ir5 Sc6 2.968445 1_545
Ir5 Sc10 2.968445 1_554
Ir5 Sc7 2.968445 1_554
Ir5 Sc11 2.968445 1_545
Ru0 Sc3 2.611676 1_554
Ru0 Sc0 2.611676 1_445
Ru0 Sc1 2.611676 1_545
Ru0 Sc2 2.611676 1_455
Ru0 Sc4 2.611676 1_454
Ru0 Sc5 2.611676 1_544
