# generated using pymatgen
data_Rb2NbAgTe4
_symmetry_space_group_name_H-M   'P 1'
_cell_length_a   15.12148850
_cell_length_b   13.53913027
_cell_length_c   8.11009780
_cell_angle_alpha   84.66408304
_cell_angle_beta   63.05944015
_cell_angle_gamma   32.27646908
_symmetry_Int_Tables_number   1
_chemical_formula_structural   Rb2NbAgTe4
_chemical_formula_sum   'Rb4 Nb2 Ag2 Te8'
_cell_volume   626.76265115
_cell_formula_units_Z   2
loop_
 _symmetry_equiv_pos_site_id
 _symmetry_equiv_pos_as_xyz
  1  'x, y, z'
loop_
 _atom_site_type_symbol
 _atom_site_label
 _atom_site_symmetry_multiplicity
 _atom_site_fract_x
 _atom_site_fract_y
 _atom_site_fract_z
 _atom_site_occupancy
  Rb  Rb0  1  0.31869386  0.31869386  0.68130614  1
  Rb  Rb1  1  0.93130614  0.93130614  0.56869386  1
  Rb  Rb2  1  0.68130614  0.68130614  0.31869386  1
  Rb  Rb3  1  0.56869386  0.56869386  0.93130614  1
  Nb  Nb0  1  0.75000000  0.75000000  0.75000000  1
  Nb  Nb1  1  0.50000000  0.50000000  0.50000000  1
  Ag  Ag0  1  0.25000000  0.25000000  0.25000000  1
  Ag  Ag1  1  0.00000000  0.00000000  0.00000000  1
  Te  Te0  1  0.35723843  0.02515268  0.93419619  1
  Te  Te1  1  0.56658730  0.31580381  0.22484732  1
  Te  Te2  1  0.22484732  0.89276157  0.56658730  1
  Te  Te3  1  0.31580381  0.56658730  0.89276157  1
  Te  Te4  1  0.68341270  0.93419619  0.02515268  1
  Te  Te5  1  0.93419619  0.68341270  0.35723843  1
  Te  Te6  1  0.02515268  0.35723843  0.68341270  1
  Te  Te7  1  0.89276157  0.22484732  0.31580381  1
loop_
_geom_bond_atom_site_label_1
_geom_bond_atom_site_label_2
_geom_bond_distance
_geom_bond_site_symmetry_2
Rb0 Te4 3.766260 1_456
Rb0 Te5 3.766260 1_545
Rb0 Te1 3.868067 1_555
Rb0 Te3 3.868067 1_555
Rb0 Te5 3.980590 1_456
Rb0 Te4 3.980590 1_545
Rb0 Te0 3.998919 1_555
Rb0 Te6 3.998919 1_555
Rb1 Te1 3.766260 1_655
Rb1 Te3 3.766260 1_565
Rb1 Te4 3.868067 1_556
Rb1 Te5 3.868067 1_555
Rb1 Te3 3.980590 1_654
Rb1 Te1 3.980590 1_566
Rb1 Te7 3.998919 1_565
Rb1 Te2 3.998919 1_655
Rb2 Te6 3.766260 1_654
Rb2 Te0 3.766260 1_565
Rb2 Te2 3.868067 1_555
Rb2 Te7 3.868067 1_555
Rb2 Te0 3.980589 1_654
Rb2 Te6 3.980589 1_565
Rb2 Te4 3.998919 1_555
Rb2 Te5 3.998919 1_555
Rb3 Te2 3.766260 1_556
Rb3 Te7 3.766260 1_555
Rb3 Te6 3.868067 1_655
Rb3 Te0 3.868067 1_565
Rb3 Te7 3.980589 1_466
Rb3 Te2 3.980589 1_645
Rb3 Te1 3.998919 1_556
Rb3 Te3 3.998919 1_555
Nb0 Te0 2.639273 1_565
Nb0 Te6 2.639273 1_655
Nb0 Te5 2.639273 1_555
Nb0 Te4 2.639273 1_556
Nb1 Te7 2.639273 1_555
Nb1 Te2 2.639273 1_555
Nb1 Te3 2.639273 1_555
Nb1 Te1 2.639273 1_555
Ag0 Te4 2.792123 1_545
Ag0 Te5 2.792123 1_455
Ag0 Te6 2.792123 1_555
Ag0 Te0 2.792123 1_554
Ag0 Nb0 3.195490 1_544
Ag0 Nb0 3.195490 1_455
Ag1 Te1 2.792123 1_455
Ag1 Te3 2.792123 1_544
Ag1 Te2 2.792123 1_544
Ag1 Te7 2.792123 1_455
Ag1 Nb1 3.195490 1_544
Ag1 Nb1 3.195490 1_455
