# generated using pymatgen
data_MgNi20(B3Sb)2
_symmetry_space_group_name_H-M   'P 1'
_cell_length_a   7.44367864
_cell_length_b   7.44367878
_cell_length_c   7.44367851
_cell_angle_alpha   60.00000554
_cell_angle_beta   60.00000490
_cell_angle_gamma   60.00000890
_symmetry_Int_Tables_number   1
_chemical_formula_structural   MgNi20(B3Sb)2
_chemical_formula_sum   'Mg1 Ni20 B6 Sb2'
_cell_volume   291.64055275
_cell_formula_units_Z   1
loop_
 _symmetry_equiv_pos_site_id
 _symmetry_equiv_pos_as_xyz
  1  'x, y, z'
loop_
 _atom_site_type_symbol
 _atom_site_label
 _atom_site_symmetry_multiplicity
 _atom_site_fract_x
 _atom_site_fract_y
 _atom_site_fract_z
 _atom_site_occupancy
  Mg  Mg0  1  0.00000000  0.00000000  0.00000000  1
  Ni  Ni0  1  1.00000000  1.00000000  0.66105169  1
  Ni  Ni1  1  0.38439304  0.84682087  0.38439304  1
  Ni  Ni2  1  0.66105169  0.33894831  0.00000000  1
  Ni  Ni3  1  0.00000000  0.33894831  0.66105169  1
  Ni  Ni4  1  0.66105169  1.00000000  1.00000000  1
  Ni  Ni5  1  0.00000000  0.00000000  0.33894831  1
  Ni  Ni6  1  0.66105169  1.00000000  0.33894831  1
  Ni  Ni7  1  0.00000000  0.33894831  0.00000000  1
  Ni  Ni8  1  1.00000000  0.66105169  0.33894831  1
  Ni  Ni9  1  0.33894831  0.00000000  0.00000000  1
  Ni  Ni10  1  1.00000000  0.66105169  1.00000000  1
  Ni  Ni11  1  0.33894831  0.00000000  0.66105169  1
  Ni  Ni12  1  0.38439304  0.38439304  0.38439304  1
  Ni  Ni13  1  0.33894831  0.66105169  1.00000000  1
  Ni  Ni14  1  0.61560696  0.15317913  0.61560696  1
  Ni  Ni15  1  0.38439304  0.38439304  0.84682087  1
  Ni  Ni16  1  0.84682087  0.38439304  0.38439304  1
  Ni  Ni17  1  0.61560696  0.61560696  0.61560696  1
  Ni  Ni18  1  0.15317913  0.61560696  0.61560696  1
  Ni  Ni19  1  0.61560696  0.61560696  0.15317913  1
  B  B0  1  0.72940526  0.72940526  0.27059474  1
  B  B1  1  0.72940526  0.27059474  0.72940526  1
  B  B2  1  0.27059474  0.72940526  0.27059474  1
  B  B3  1  0.72940526  0.27059474  0.27059474  1
  B  B4  1  0.27059474  0.72940526  0.72940526  1
  B  B5  1  0.27059474  0.27059474  0.72940526  1
  Sb  Sb0  1  0.25000000  0.25000000  0.25000000  1
  Sb  Sb1  1  0.75000000  0.75000000  0.75000000  1
loop_
_geom_bond_atom_site_label_1
_geom_bond_atom_site_label_2
_geom_bond_distance
_geom_bond_site_symmetry_2
Mg0 Ni5 2.523022 1_555
Mg0 Ni0 2.523022 1_444
Mg0 Ni9 2.523022 1_555
Mg0 Ni4 2.523022 1_444
Mg0 Ni7 2.523022 1_555
Mg0 Ni10 2.523022 1_444
Mg0 Ni6 2.523022 1_445
Mg0 Ni11 2.523022 1_554
Mg0 Ni3 2.523022 1_554
Mg0 Ni8 2.523022 1_445
Mg0 Ni13 2.523023 1_544
Mg0 Ni2 2.523023 1_455
Ni1 Sb0 2.450417 1_565
Ni12 Sb0 2.450417 1_555
Ni14 Sb1 2.450417 1_545
Ni15 Sb0 2.450417 1_556
Ni16 Sb0 2.450417 1_655
Ni17 Sb1 2.450417 1_555
Ni18 Sb1 2.450417 1_455
Ni19 Sb1 2.450417 1_554
B0 Ni8 2.077490 1_555
B0 Ni6 2.077490 1_555
B0 Ni10 2.077490 1_554
B0 Ni4 2.077490 1_554
B0 Ni19 2.096951 1_555
B0 Ni17 2.096952 1_555
B0 Ni1 2.096952 1_555
B0 Ni16 2.096952 1_555
B1 Ni2 2.077490 1_556
B1 Ni3 2.077490 1_655
B1 Ni4 2.077490 1_545
B1 Ni0 2.077490 1_545
B1 Ni14 2.096951 1_555
B1 Ni16 2.096952 1_555
B1 Ni15 2.096952 1_555
B1 Ni17 2.096952 1_555
B2 Ni13 2.077490 1_554
B2 Ni8 2.077490 1_455
B2 Ni9 2.077490 1_565
B2 Ni5 2.077490 1_565
B2 Ni1 2.096951 1_555
B2 Ni18 2.096952 1_555
B2 Ni19 2.096952 1_555
B2 Ni12 2.096952 1_555
B3 Ni2 2.077490 1_555
B3 Ni6 2.077490 1_545
B3 Ni7 2.077490 1_655
B3 Ni5 2.077490 1_655
B3 Ni16 2.096951 1_555
B3 Ni14 2.096952 1_555
B3 Ni12 2.096952 1_555
B3 Ni19 2.096952 1_555
B4 Ni13 2.077490 1_555
B4 Ni11 2.077490 1_565
B4 Ni10 2.077490 1_455
B4 Ni0 2.077490 1_455
B4 Ni18 2.096951 1_555
B4 Ni1 2.096952 1_555
B4 Ni17 2.096952 1_555
B4 Ni15 2.096952 1_555
B5 Ni3 2.077490 1_555
B5 Ni11 2.077490 1_555
B5 Ni7 2.077490 1_556
B5 Ni9 2.077490 1_556
B5 Ni15 2.096951 1_555
B5 Ni12 2.096952 1_555
B5 Ni14 2.096952 1_555
B5 Ni18 2.096952 1_555
