# generated using pymatgen
data_Sr2Mg(SiNi)4
_symmetry_space_group_name_H-M   'P 1'
_cell_length_a   6.12942396
_cell_length_b   6.12942439
_cell_length_c   10.77682728
_cell_angle_alpha   90.00000000
_cell_angle_beta   90.00000000
_cell_angle_gamma   113.13032181
_symmetry_Int_Tables_number   1
_chemical_formula_structural   Sr2Mg(SiNi)4
_chemical_formula_sum   'Sr4 Mg2 Si8 Ni8'
_cell_volume   372.33659811
_cell_formula_units_Z   2
loop_
 _symmetry_equiv_pos_site_id
 _symmetry_equiv_pos_as_xyz
  1  'x, y, z'
loop_
 _atom_site_type_symbol
 _atom_site_label
 _atom_site_symmetry_multiplicity
 _atom_site_fract_x
 _atom_site_fract_y
 _atom_site_fract_z
 _atom_site_occupancy
  Sr  Sr0  1  0.20632664  0.79367336  0.50000000  1
  Sr  Sr1  1  0.20632664  0.79367336  0.00000000  1
  Sr  Sr2  1  0.79367336  0.20632664  0.50000000  1
  Sr  Sr3  1  0.79367336  0.20632664  0.00000000  1
  Mg  Mg0  1  0.02922871  0.02922871  0.25000000  1
  Mg  Mg1  1  0.97077129  0.97077129  0.75000000  1
  Si  Si0  1  0.52186224  0.89416345  0.25000000  1
  Si  Si1  1  0.10583655  0.47813776  0.75000000  1
  Si  Si2  1  0.47813776  0.10583655  0.75000000  1
  Si  Si3  1  0.89416345  0.52186224  0.25000000  1
  Si  Si4  1  0.34760773  0.34760773  0.42603307  1
  Si  Si5  1  0.65239227  0.65239227  0.57396693  1
  Si  Si6  1  0.34760773  0.34760773  0.07396693  1
  Si  Si7  1  0.65239227  0.65239227  0.92603307  1
  Ni  Ni0  1  0.50023142  0.24468384  0.25000000  1
  Ni  Ni1  1  0.75531616  0.49976858  0.75000000  1
  Ni  Ni2  1  0.49976858  0.75531616  0.75000000  1
  Ni  Ni3  1  0.24468384  0.50023142  0.25000000  1
  Ni  Ni4  1  0.67809196  0.67809196  0.36713113  1
  Ni  Ni5  1  0.32190804  0.32190804  0.63286887  1
  Ni  Ni6  1  0.67809196  0.67809196  0.13286887  1
  Ni  Ni7  1  0.32190804  0.32190804  0.86713113  1
loop_
_geom_bond_atom_site_label_1
_geom_bond_atom_site_label_2
_geom_bond_distance
_geom_bond_site_symmetry_2
Mg0 Ni0 2.661448 1_555
Mg0 Ni3 2.661448 1_555
Mg0 Ni4 2.686743 1_445
Mg0 Ni6 2.686743 1_445
Mg0 Si4 2.867663 1_555
Mg0 Si6 2.867663 1_555
Mg0 Si0 2.886853 1_445
Mg0 Si3 2.886854 1_445
Mg0 Sr2 3.428268 1_455
Mg0 Sr3 3.428268 1_455
Mg0 Sr0 3.428268 1_545
Mg0 Sr1 3.428268 1_545
Mg1 Ni2 2.661448 1_555
Mg1 Ni1 2.661448 1_555
Mg1 Ni7 2.686743 1_665
Mg1 Ni5 2.686743 1_665
Mg1 Si7 2.867663 1_555
Mg1 Si5 2.867663 1_555
Mg1 Si2 2.886853 1_665
Mg1 Si1 2.886854 1_665
Mg1 Sr0 3.428268 1_655
Mg1 Sr1 3.428268 1_656
Mg1 Sr2 3.428268 1_565
Mg1 Sr3 3.428268 1_566
Si0 Sr0 3.231528 1_555
Si0 Sr1 3.231528 1_555
Si0 Sr2 3.345297 1_565
Si0 Sr3 3.345297 1_565
Si1 Sr1 3.231528 1_556
Si1 Sr0 3.231528 1_555
Si1 Sr3 3.345297 1_456
Si1 Sr2 3.345297 1_455
Si2 Sr3 3.231528 1_556
Si2 Sr2 3.231528 1_555
Si2 Sr0 3.345297 1_545
Si2 Sr1 3.345297 1_546
Si3 Sr2 3.231528 1_555
Si3 Sr3 3.231528 1_555
Si3 Sr1 3.345297 1_655
Si3 Sr0 3.345297 1_655
Si4 Si5 2.603794 1_555
Si4 Sr2 3.256284 1_455
Si4 Sr0 3.256284 1_545
Si4 Sr2 3.274282 1_555
Si4 Sr0 3.274282 1_555
Si5 Sr0 3.256284 1_655
Si5 Sr2 3.256284 1_565
Si5 Sr0 3.274282 1_555
Si5 Sr2 3.274282 1_555
Si6 Si7 2.603794 1_554
Si6 Sr3 3.256284 1_455
Si6 Sr1 3.256284 1_545
Si6 Sr3 3.274282 1_555
Si6 Sr1 3.274282 1_555
Si7 Sr1 3.256284 1_656
Si7 Sr3 3.256284 1_566
Si7 Sr1 3.274282 1_556
Si7 Sr3 3.274282 1_556
Ni0 Si0 2.203946 1_545
Ni0 Si4 2.309916 1_555
Ni0 Si6 2.309916 1_555
Ni0 Si3 2.343861 1_555
Ni0 Sr3 3.298685 1_555
Ni0 Sr2 3.298685 1_555
Ni1 Si1 2.203946 1_655
Ni1 Si7 2.309916 1_555
Ni1 Si5 2.309916 1_555
Ni1 Si2 2.343861 1_555
Ni1 Sr3 3.298685 1_556
Ni1 Sr2 3.298685 1_555
Ni2 Si2 2.203946 1_565
Ni2 Si7 2.309916 1_555
Ni2 Si5 2.309916 1_555
Ni2 Si1 2.343861 1_555
Ni2 Sr1 3.298685 1_556
Ni2 Sr0 3.298685 1_555
Ni3 Si3 2.203946 1_455
Ni3 Si4 2.309916 1_555
Ni3 Si6 2.309916 1_555
Ni3 Si0 2.343861 1_555
Ni3 Sr0 3.298685 1_555
Ni3 Sr1 3.298685 1_555
Ni4 Si5 2.235783 1_555
Ni4 Si3 2.293645 1_555
Ni4 Si0 2.293645 1_555
Ni4 Si4 2.320750 1_555
Ni4 Sr0 3.351614 1_655
Ni4 Sr2 3.351615 1_565
Ni5 Si4 2.235783 1_555
Ni5 Si1 2.293645 1_555
Ni5 Si2 2.293645 1_555
Ni5 Si5 2.320750 1_555
Ni5 Sr2 3.351614 1_455
Ni5 Sr0 3.351615 1_545
Ni6 Si7 2.235783 1_554
Ni6 Si3 2.293645 1_555
Ni6 Si0 2.293645 1_555
Ni6 Si6 2.320750 1_555
Ni6 Sr1 3.351614 1_655
Ni6 Sr3 3.351615 1_565
Ni7 Si6 2.235783 1_556
Ni7 Si1 2.293645 1_555
Ni7 Si2 2.293645 1_555
Ni7 Si7 2.320750 1_555
Ni7 Sr3 3.351614 1_456
Ni7 Sr1 3.351615 1_546
