# generated using pymatgen
data_Ti2ZnCo4Si
_symmetry_space_group_name_H-M   'P 1'
_cell_length_a   7.02648117
_cell_length_b   7.02648229
_cell_length_c   7.02648208
_cell_angle_alpha   33.52486147
_cell_angle_beta   33.52485904
_cell_angle_gamma   33.52486829
_symmetry_Int_Tables_number   1
_chemical_formula_structural   Ti2ZnCo4Si
_chemical_formula_sum   'Ti2 Zn1 Co4 Si1'
_cell_volume   94.25008209
_cell_formula_units_Z   1
loop_
 _symmetry_equiv_pos_site_id
 _symmetry_equiv_pos_as_xyz
  1  'x, y, z'
loop_
 _atom_site_type_symbol
 _atom_site_label
 _atom_site_symmetry_multiplicity
 _atom_site_fract_x
 _atom_site_fract_y
 _atom_site_fract_z
 _atom_site_occupancy
  Ti  Ti0  1  0.25135847  0.25135847  0.25135847  1
  Ti  Ti1  1  0.74864153  0.74864153  0.74864153  1
  Zn  Zn0  1  0.00000000  0.00000000  0.00000000  1
  Co  Co0  1  0.87197735  0.87197735  0.87197735  1
  Co  Co1  1  0.37853267  0.37853267  0.37853267  1
  Co  Co2  1  0.12802265  0.12802265  0.12802265  1
  Co  Co3  1  0.62146733  0.62146733  0.62146733  1
  Si  Si0  1  0.50000000  0.50000000  0.50000000  1
loop_
_geom_bond_atom_site_label_1
_geom_bond_atom_site_label_2
_geom_bond_distance
_geom_bond_site_symmetry_2
Co0 Ti1 2.451450 1_555
Co0 Si0 2.462801 1_556
Co0 Si0 2.462802 1_655
Co0 Si0 2.462802 1_565
Co0 Ti0 2.512590 1_665
Co0 Ti0 2.512591 1_656
Co0 Ti0 2.512591 1_566
Co0 Zn0 2.544607 1_666
Co1 Si0 2.414312 1_555
Co1 Ti1 2.451472 1_554
Co1 Ti1 2.451473 1_455
Co1 Ti1 2.451473 1_545
Co1 Zn0 2.506496 1_556
Co1 Zn0 2.506497 1_565
Co1 Zn0 2.506497 1_655
Co1 Ti0 2.527743 1_555
Co2 Ti0 2.451450 1_555
Co2 Si0 2.462801 1_554
Co2 Si0 2.462802 1_455
Co2 Si0 2.462802 1_545
Co2 Ti1 2.512590 1_445
Co2 Ti1 2.512591 1_454
Co2 Ti1 2.512591 1_544
Co2 Zn0 2.544607 1_555
Co3 Si0 2.414312 1_555
Co3 Ti0 2.451472 1_556
Co3 Ti0 2.451473 1_655
Co3 Ti0 2.451473 1_565
Co3 Zn0 2.506496 1_665
Co3 Zn0 2.506497 1_656
Co3 Zn0 2.506497 1_566
Co3 Ti1 2.527743 1_555
Si0 Ti0 2.882550 1_655
Si0 Ti1 2.882550 1_455
Si0 Ti0 2.882550 1_556
Si0 Ti1 2.882550 1_554
Si0 Ti0 2.882551 1_565
Si0 Ti1 2.882551 1_545
