# generated using pymatgen
data_CaP4O11
_symmetry_space_group_name_H-M   'P 1'
_cell_length_a   12.94270200
_cell_length_b   8.80597100
_cell_length_c   12.27544805
_cell_angle_alpha   46.67039848
_cell_angle_beta   90.00000000
_cell_angle_gamma   90.00000000
_symmetry_Int_Tables_number   1
_chemical_formula_structural   CaP4O11
_chemical_formula_sum   'Ca4 P16 O44'
_cell_volume   1017.70943271
_cell_formula_units_Z   4
loop_
 _symmetry_equiv_pos_site_id
 _symmetry_equiv_pos_as_xyz
  1  'x, y, z'
loop_
 _atom_site_type_symbol
 _atom_site_label
 _atom_site_symmetry_multiplicity
 _atom_site_fract_x
 _atom_site_fract_y
 _atom_site_fract_z
 _atom_site_occupancy
  Ca  Ca0  1  0.46868800  0.50280200  0.76570700  1
  Ca  Ca1  1  0.96868800  0.49719800  0.73429300  1
  Ca  Ca2  1  0.53131200  0.49719800  0.23429300  1
  Ca  Ca3  1  0.03131200  0.50280200  0.26570700  1
  P  P0  1  0.20987100  0.49871700  0.90386400  1
  P  P1  1  0.70987100  0.50128300  0.59613600  1
  P  P2  1  0.79012900  0.50128300  0.09613600  1
  P  P3  1  0.29012900  0.49871700  0.40386400  1
  P  P4  1  0.33566300  0.15219900  0.73143900  1
  P  P5  1  0.83566300  0.84780100  0.76856100  1
  P  P6  1  0.66433700  0.84780100  0.26856100  1
  P  P7  1  0.16433700  0.15219900  0.23143900  1
  P  P8  1  0.34037000  0.84727600  0.39091500  1
  P  P9  1  0.84037000  0.15272400  0.10908500  1
  P  P10  1  0.65963000  0.15272400  0.60908500  1
  P  P11  1  0.15963000  0.84727600  0.89091500  1
  P  P12  1  0.99803100  0.85751800  0.32547700  1
  P  P13  1  0.49803100  0.14248200  0.17452300  1
  P  P14  1  0.00196900  0.14248200  0.67452300  1
  P  P15  1  0.50196900  0.85751800  0.82547700  1
  O  O0  1  0.39793600  0.49837000  0.36292600  1
  O  O1  1  0.89793600  0.50163000  0.13707400  1
  O  O2  1  0.60206400  0.50163000  0.63707400  1
  O  O3  1  0.10206400  0.49837000  0.86292600  1
  O  O4  1  0.19842600  0.51261500  0.32594600  1
  O  O5  1  0.69842600  0.48738500  0.17405400  1
  O  O6  1  0.80157400  0.48738500  0.67405400  1
  O  O7  1  0.30157400  0.51261500  0.82594600  1
  O  O8  1  0.60709200  0.74012000  0.23517500  1
  O  O9  1  0.10709200  0.25988000  0.26482500  1
  O  O10  1  0.39290800  0.25988000  0.76482500  1
  O  O11  1  0.89290800  0.74012000  0.73517500  1
  O  O12  1  0.40032300  0.76898900  0.52224100  1
  O  O13  1  0.90032300  0.23101100  0.97775900  1
  O  O14  1  0.59967700  0.23101100  0.47775900  1
  O  O15  1  0.97635000  0.74063400  0.28107400  1
  O  O16  1  0.09967700  0.76898900  0.02224100  1
  O  O17  1  0.51567900  0.24081000  0.01819300  1
  O  O18  1  0.98432100  0.24081000  0.51819300  1
  O  O19  1  0.48432100  0.75919000  0.98180700  1
  O  O20  1  0.09534900  0.96865200  0.74145700  1
  O  O21  1  0.59534900  0.03134800  0.75854300  1
  O  O22  1  0.90465100  0.03134800  0.25854300  1
  O  O23  1  0.40465100  0.96865200  0.24145700  1
  O  O24  1  0.90298100  0.98761200  0.77884900  1
  O  O25  1  0.40298100  0.01238800  0.72115100  1
  O  O26  1  0.09701900  0.01238800  0.22115100  1
  O  O27  1  0.59701900  0.98761200  0.27884900  1
  O  O28  1  0.24846400  0.00343000  0.85517800  1
  O  O29  1  0.74846400  0.99657000  0.64482200  1
  O  O30  1  0.75153600  0.99657000  0.14482200  1
  O  O31  1  0.25153600  0.00343000  0.35517800  1
  O  O32  1  0.22444600  0.68317900  0.90557700  1
  O  O33  1  0.72444600  0.31682100  0.59442300  1
  O  O34  1  0.77555400  0.31682100  0.09442300  1
  O  O35  1  0.27555400  0.68317900  0.40557700  1
  O  O36  1  0.22992300  0.29183400  0.08294300  1
  O  O37  1  0.72992300  0.70816600  0.41705700  1
  O  O38  1  0.77007700  0.70816600  0.91705700  1
  O  O39  1  0.27007700  0.29183400  0.58294300  1
  O  O40  1  0.52365000  0.74063400  0.78107400  1
  O  O41  1  0.02365000  0.25936600  0.71892600  1
  O  O42  1  0.47635000  0.25936600  0.21892600  1
  O  O43  1  0.01567900  0.75919000  0.48180700  1
loop_
_geom_bond_atom_site_label_1
_geom_bond_atom_site_label_2
_geom_bond_distance
_geom_bond_site_symmetry_2
Ca0 O7 2.306540 1_555
Ca0 O40 2.338818 1_555
Ca0 O17 2.342090 1_556
Ca0 O2 2.344296 1_555
Ca0 O10 2.360061 1_555
Ca0 O12 2.365416 1_555
Ca1 O6 2.306540 1_555
Ca1 O41 2.338818 1_655
Ca1 O43 2.342090 1_655
Ca1 O3 2.344296 1_655
Ca1 O11 2.360061 1_555
Ca1 O13 2.365416 1_555
Ca2 O5 2.306540 1_555
Ca2 O42 2.338818 1_555
Ca2 O19 2.342090 1_554
Ca2 O0 2.344296 1_555
Ca2 O8 2.360061 1_555
Ca2 O14 2.365416 1_555
Ca3 O4 2.306540 1_555
Ca3 O15 2.338818 1_455
Ca3 O18 2.342090 1_455
Ca3 O1 2.344296 1_455
Ca3 O9 2.360061 1_555
Ca3 O16 2.365416 1_555
O0 P3 1.483764 1_555
O1 P2 1.483764 1_555
O2 P1 1.483764 1_555
O3 P0 1.483764 1_555
O4 P3 1.475762 1_555
O5 P2 1.475762 1_555
O6 P1 1.475762 1_555
O7 P0 1.475762 1_555
O8 P6 1.466076 1_555
O9 P7 1.466076 1_555
O10 P4 1.466076 1_555
O11 P5 1.466076 1_555
O12 P8 1.466618 1_555
O13 P9 1.466618 1_556
O14 P10 1.466618 1_555
O15 P12 1.484990 1_555
O16 P11 1.466618 1_554
O17 P13 1.484638 1_555
O18 P14 1.484638 1_655
O19 P15 1.484638 1_555
O20 P11 1.584104 1_555
O20 P14 1.659178 1_565
O21 P10 1.584104 1_555
O21 P15 1.659178 1_545
O22 P9 1.584104 1_555
O22 P12 1.659178 1_545
O23 P8 1.584104 1_555
O23 P13 1.659178 1_565
O24 P5 1.582479 1_555
O24 P14 1.656639 1_665
O25 P4 1.582479 1_555
O25 P15 1.656639 1_545
O26 P7 1.582479 1_555
O26 P12 1.656639 1_445
O27 P6 1.582479 1_555
O27 P13 1.656639 1_565
O28 P4 1.601951 1_555
O28 P11 1.605419 1_545
O29 P5 1.601951 1_555
O29 P10 1.605419 1_565
O30 P6 1.601951 1_555
O30 P9 1.605419 1_565
O31 P7 1.601951 1_555
O31 P8 1.605419 1_545
O32 P11 1.570773 1_555
O32 P0 1.649688 1_555
O33 P10 1.570773 1_555
O33 P1 1.649688 1_555
O34 P9 1.570773 1_555
O34 P2 1.649688 1_555
O35 P8 1.570773 1_555
O35 P3 1.649688 1_555
O36 P7 1.574557 1_555
O36 P0 1.650018 1_554
O37 P6 1.574557 1_555
O37 P1 1.650018 1_555
O38 P5 1.574557 1_555
O38 P2 1.650018 1_556
O39 P4 1.574557 1_555
O39 P3 1.650018 1_555
O40 P15 1.484990 1_555
O41 P14 1.484990 1_555
O42 P13 1.484990 1_555
O43 P12 1.484638 1_455
