# generated using pymatgen
data_ZrZn2Ni2Au
_symmetry_space_group_name_H-M   'P 1'
_cell_length_a   4.98928137
_cell_length_b   4.89745333
_cell_length_c   4.89745259
_cell_angle_alpha   60.45296337
_cell_angle_beta   59.37778479
_cell_angle_gamma   59.37778117
_symmetry_Int_Tables_number   1
_chemical_formula_structural   ZrZn2Ni2Au
_chemical_formula_sum   'Zr1 Zn2 Ni2 Au1'
_cell_volume   84.09112280
_cell_formula_units_Z   1
loop_
 _symmetry_equiv_pos_site_id
 _symmetry_equiv_pos_as_xyz
  1  'x, y, z'
loop_
 _atom_site_type_symbol
 _atom_site_label
 _atom_site_symmetry_multiplicity
 _atom_site_fract_x
 _atom_site_fract_y
 _atom_site_fract_z
 _atom_site_occupancy
  Zr  Zr0  1  0.98925902  0.01074098  0.01074098  1
  Zn  Zn0  1  0.37853293  0.86955339  0.37338075  1
  Zn  Zn1  1  0.37853293  0.37338075  0.86955339  1
  Ni  Ni0  1  0.87883892  0.37141524  0.37141524  1
  Ni  Ni1  1  0.37832959  0.37141524  0.37141524  1
  Au  Au0  1  0.74650561  0.75349439  0.75349439  1
loop_
_geom_bond_atom_site_label_1
_geom_bond_atom_site_label_2
_geom_bond_distance
_geom_bond_site_symmetry_2
Zn0 Zn1 2.446600 1_555
Zn0 Zn1 2.484345 1_564
Zn0 Zr0 2.887764 1_465
Zn0 Zr0 2.887765 1_565
Zn0 Zr0 2.928842 1_466
Zn1 Zr0 2.887764 1_556
Zn1 Zr0 2.887765 1_456
Zn1 Zr0 2.928842 1_466
Ni0 Zn1 2.444885 1_555
Ni0 Zn0 2.444885 1_555
Ni0 Zn1 2.452599 1_654
Ni0 Zn0 2.452599 1_645
Ni0 Ni1 2.492099 1_655
Ni0 Ni1 2.497182 1_555
Ni0 Zr0 2.763744 1_555
Ni0 Zr0 2.922048 1_556
Ni0 Zr0 2.922049 1_565
Ni1 Zn1 2.444887 1_555
Ni1 Zn0 2.444888 1_555
Ni1 Zn1 2.452596 1_554
Ni1 Zn0 2.452597 1_545
Ni1 Zr0 2.763747 1_555
Ni1 Zr0 2.922046 1_465
Ni1 Zr0 2.922046 1_456
Au0 Zn0 2.805499 1_556
Au0 Zn1 2.805500 1_565
Au0 Ni0 2.878778 1_556
Au0 Ni0 2.878779 1_565
Au0 Ni1 2.878781 1_565
Au0 Ni1 2.878781 1_556
Au0 Ni1 2.893947 1_655
Au0 Ni0 2.893949 1_555
Au0 Zn0 2.921354 1_555
Au0 Zn1 2.921354 1_655
Au0 Zn0 2.921354 1_655
Au0 Zn1 2.921354 1_555
Au0 Zr0 2.971951 1_565
Au0 Zr0 2.971952 1_556
Au0 Zr0 3.052184 1_466
Au0 Zr0 3.052184 1_566
