# generated using pymatgen
data_Lu8Hf5SnO24
_symmetry_space_group_name_H-M   'P 1'
_cell_length_a   6.22201509
_cell_length_b   6.28285940
_cell_length_c   12.48275865
_cell_angle_alpha   99.33069880
_cell_angle_beta   99.33936141
_cell_angle_gamma   99.42461905
_symmetry_Int_Tables_number   1
_chemical_formula_structural   Lu8Hf5SnO24
_chemical_formula_sum   'Lu8 Hf5 Sn1 O24'
_cell_volume   465.99764093
_cell_formula_units_Z   1
loop_
 _symmetry_equiv_pos_site_id
 _symmetry_equiv_pos_as_xyz
  1  'x, y, z'
loop_
 _atom_site_type_symbol
 _atom_site_label
 _atom_site_symmetry_multiplicity
 _atom_site_fract_x
 _atom_site_fract_y
 _atom_site_fract_z
 _atom_site_occupancy
  Lu  Lu0  1  0.29941444  0.61000619  0.81847726  1
  Lu  Lu1  1  0.38993157  0.86483540  0.59626548  1
  Lu  Lu2  1  0.85865539  0.68966642  0.94732454  1
  Lu  Lu3  1  0.31156805  0.60839572  0.31763303  1
  Lu  Lu4  1  0.14121547  0.30999512  0.05293921  1
  Lu  Lu5  1  0.70136238  0.39113903  0.18162704  1
  Lu  Lu6  1  0.68804133  0.39092311  0.68183541  1
  Lu  Lu7  1  0.60925328  0.13614102  0.40273834  1
  Hf  Hf0  1  0.39260480  0.85715165  0.09479519  1
  Hf  Hf1  1  0.99326930  0.99425466  0.74832107  1
  Hf  Hf2  1  0.85485746  0.67896316  0.44639006  1
  Hf  Hf3  1  0.14490494  0.32437086  0.55286244  1
  Hf  Hf4  1  0.60825633  0.14308155  0.90650992  1
  Sn  Sn0  1  0.00648419  0.00467648  0.25185670  1
  O  O0  1  0.31789043  0.96039760  0.79723294  1
  O  O1  1  0.07011803  0.91782786  0.09344995  1
  O  O2  1  0.32141277  0.94433038  0.28431961  1
  O  O3  1  0.03639236  0.89162561  0.58946359  1
  O  O4  1  0.57123586  0.83113190  0.96301260  1
  O  O5  1  0.58645403  0.81992242  0.46162468  1
  O  O6  1  0.18593098  0.59226707  0.96877330  1
  O  O7  1  0.92335520  0.68031376  0.77883143  1
  O  O8  1  0.42923600  0.58354607  0.15863136  1
  O  O9  1  0.17287902  0.57426414  0.46307746  1
  O  O10  1  0.92333285  0.69349675  0.28863399  1
  O  O11  1  0.57060270  0.41648204  0.84158783  1
  O  O12  1  0.40954984  0.56999218  0.65761805  1
  O  O13  1  0.07593827  0.31893900  0.22138158  1
  O  O14  1  0.81505819  0.40931591  0.03169120  1
  O  O15  1  0.59184849  0.43185278  0.34189546  1
  O  O16  1  0.07960954  0.30658625  0.70972879  1
  O  O17  1  0.82612618  0.42506921  0.53563591  1
  O  O18  1  0.43006641  0.16951265  0.03835355  1
  O  O19  1  0.41132528  0.18023418  0.53734661  1
  O  O20  1  0.92892216  0.08281711  0.90689785  1
  O  O21  1  0.68359166  0.04118833  0.20580470  1
  O  O22  1  0.96104267  0.09870404  0.41218365  1
  O  O23  1  0.67826017  0.05658038  0.71325020  1
loop_
_geom_bond_atom_site_label_1
_geom_bond_atom_site_label_2
_geom_bond_distance
_geom_bond_site_symmetry_2
Lu0 O6 2.121971 1_555
Lu0 O12 2.214508 1_555
Lu0 O11 2.244184 1_555
Lu0 O0 2.246394 1_555
Lu0 O16 2.247613 1_555
Lu0 O4 2.339449 1_555
Lu0 O7 2.438950 1_455
Lu1 O12 2.129971 1_555
Lu1 O23 2.161857 1_565
Lu1 O19 2.214356 1_565
Lu1 O3 2.222523 1_555
Lu1 O5 2.241812 1_555
Lu1 O9 2.323883 1_555
Lu1 O0 2.611382 1_555
Lu2 O4 2.145746 1_555
Lu2 O14 2.196121 1_556
Lu2 O7 2.198109 1_555
Lu2 O1 2.206515 1_656
Lu2 O6 2.208396 1_655
Lu2 O11 2.321732 1_555
Lu2 O20 2.582514 1_565
Lu3 O9 2.158928 1_555
Lu3 O13 2.178740 1_555
Lu3 O2 2.209518 1_555
Lu3 O8 2.215474 1_555
Lu3 O15 2.221319 1_555
Lu3 O5 2.324955 1_555
Lu3 O10 2.540474 1_455
Lu4 O18 2.148452 1_555
Lu4 O13 2.198975 1_555
Lu4 O20 2.205132 1_454
Lu4 O6 2.205424 1_554
Lu4 O14 2.207201 1_455
Lu4 O8 2.322641 1_555
Lu4 O1 2.577215 1_545
Lu5 O14 2.118724 1_555
Lu5 O15 2.205831 1_555
Lu5 O10 2.240445 1_555
Lu5 O8 2.244037 1_555
Lu5 O21 2.254759 1_555
Lu5 O18 2.330171 1_555
Lu5 O13 2.434680 1_655
Lu6 O17 2.165689 1_555
Lu6 O7 2.180473 1_555
Lu6 O23 2.191600 1_555
Lu6 O12 2.222253 1_555
Lu6 O11 2.223483 1_555
Lu6 O19 2.332635 1_555
Lu6 O16 2.558331 1_655
Lu7 O15 2.130060 1_555
Lu7 O2 2.168209 1_545
Lu7 O5 2.218725 1_545
Lu7 O22 2.225777 1_555
Lu7 O19 2.247025 1_555
Lu7 O17 2.315795 1_555
Lu7 O21 2.568427 1_555
Hf0 O8 2.038508 1_555
Hf0 O1 2.100804 1_555
Hf0 O21 2.125019 1_565
Hf0 O4 2.129274 1_554
Hf0 O6 2.166002 1_554
Hf0 O18 2.180378 1_565
Hf0 O2 2.468313 1_555
Hf1 O23 2.053049 1_565
Hf1 O3 2.057839 1_655
Hf1 O7 2.059414 1_555
Hf1 O0 2.068860 1_655
Hf1 O20 2.088362 1_565
Hf1 O16 2.101598 1_665
Hf2 O5 2.035257 1_555
Hf2 O3 2.080361 1_655
Hf2 O17 2.089287 1_555
Hf2 O10 2.094184 1_555
Hf2 O15 2.146686 1_555
Hf2 O9 2.174496 1_655
Hf3 O19 2.035791 1_555
Hf3 O9 2.072645 1_555
Hf3 O16 2.079921 1_555
Hf3 O22 2.100509 1_455
Hf3 O12 2.148807 1_555
Hf3 O17 2.167310 1_455
Hf4 O11 2.045444 1_555
Hf4 O20 2.090222 1_555
Hf4 O0 2.110795 1_545
Hf4 O18 2.128205 1_556
Hf4 O14 2.165720 1_556
Hf4 O4 2.178301 1_545
Hf4 O23 2.509632 1_555
O1 Sn0 2.083126 1_565
O2 Sn0 2.045233 1_565
O10 Sn0 2.082715 1_665
O13 Sn0 2.060937 1_555
O21 Sn0 2.058686 1_655
O22 Sn0 2.071041 1_655
