# generated using pymatgen
data_CsTiTc2Te3
_symmetry_space_group_name_H-M   'P 1'
_cell_length_a   10.44310513
_cell_length_b   10.25769642
_cell_length_c   4.52427861
_cell_angle_alpha   90.00000000
_cell_angle_beta   90.00000000
_cell_angle_gamma   120.55153668
_symmetry_Int_Tables_number   1
_chemical_formula_structural   CsTiTc2Te3
_chemical_formula_sum   'Cs2 Ti2 Tc4 Te6'
_cell_volume   417.36774147
_cell_formula_units_Z   2
loop_
 _symmetry_equiv_pos_site_id
 _symmetry_equiv_pos_as_xyz
  1  'x, y, z'
loop_
 _atom_site_type_symbol
 _atom_site_label
 _atom_site_symmetry_multiplicity
 _atom_site_fract_x
 _atom_site_fract_y
 _atom_site_fract_z
 _atom_site_occupancy
  Cs  Cs0  1  0.34192916  0.67096074  0.25000000  1
  Cs  Cs1  1  0.66967949  0.32995626  0.75000000  1
  Ti  Ti0  1  0.97507763  0.13919547  0.75000000  1
  Ti  Ti1  1  0.85769823  0.83677285  0.75000000  1
  Tc  Tc0  1  0.83722671  0.97586635  0.25000000  1
  Tc  Tc1  1  0.13272944  0.15575881  0.25000000  1
  Tc  Tc2  1  0.02148824  0.86706474  0.25000000  1
  Tc  Tc3  1  0.14997062  0.02190826  0.75000000  1
  Te  Te0  1  0.32593389  0.04846068  0.25000000  1
  Te  Te1  1  0.95742753  0.28642860  0.25000000  1
  Te  Te2  1  0.71869341  0.66547317  0.25000000  1
  Te  Te3  1  0.65832607  0.95078408  0.75000000  1
  Te  Te4  1  0.29568587  0.33202844  0.75000000  1
  Te  Te5  1  0.05813472  0.71934054  0.75000000  1
loop_
_geom_bond_atom_site_label_1
_geom_bond_atom_site_label_2
_geom_bond_distance
_geom_bond_site_symmetry_2
Cs0 Te3 3.825164 1_554
Cs0 Te3 3.825164 1_555
Cs0 Te1 3.947159 1_455
Cs0 Te5 3.955032 1_555
Cs0 Te5 3.955032 1_554
Cs0 Te0 3.959802 1_565
Cs0 Te2 3.963498 1_555
Cs0 Te4 3.966208 1_554
Cs0 Te4 3.966208 1_555
Cs1 Te3 3.830526 1_545
Cs1 Te4 3.916502 1_555
Cs1 Te2 3.928509 1_555
Cs1 Te2 3.928509 1_556
Cs1 Te1 3.963656 1_556
Cs1 Te1 3.963656 1_555
Cs1 Te0 3.975371 1_556
Cs1 Te0 3.975371 1_555
Cs1 Te5 3.992197 1_655
Ti0 Ti1 2.694462 1_545
Tc0 Tc2 2.670515 1_655
Tc0 Tc1 2.671909 1_665
Tc0 Ti1 2.740214 1_555
Tc0 Ti1 2.740214 1_554
Tc0 Ti0 2.746750 1_565
Tc0 Ti0 2.746750 1_564
Tc0 Te1 2.767444 1_565
Tc0 Te2 2.768188 1_555
Tc0 Te3 2.860989 1_555
Tc0 Te3 2.860989 1_554
Tc1 Tc2 2.573261 1_545
Tc1 Tc3 2.699285 1_555
Tc1 Tc3 2.699285 1_554
Tc1 Te0 2.745894 1_555
Tc1 Ti0 2.751784 1_455
Tc1 Ti0 2.751784 1_454
Tc1 Te1 2.764535 1_455
Tc1 Te4 2.855597 1_555
Tc1 Te4 2.855597 1_554
Tc2 Tc3 2.696999 1_565
Tc2 Tc3 2.696999 1_564
Tc2 Te0 2.748879 1_565
Tc2 Ti1 2.756670 1_454
Tc2 Ti1 2.756670 1_455
Tc2 Te2 2.761794 1_455
Tc2 Te5 2.854725 1_554
Tc2 Te5 2.854725 1_555
Tc3 Ti0 2.648995 1_455
Tc3 Ti1 2.651378 1_445
Tc3 Te4 2.741148 1_555
Tc3 Te5 2.743422 1_545
Tc3 Te0 2.838912 1_555
Tc3 Te0 2.838912 1_556
Te1 Ti0 2.777621 1_554
Te1 Ti0 2.777621 1_555
Te2 Ti1 2.778297 1_555
Te2 Ti1 2.778297 1_554
Te3 Ti0 2.859703 1_565
Te3 Ti1 2.859746 1_555
Te4 Ti0 2.896521 1_455
Te5 Ti1 2.897544 1_455
