# generated using pymatgen
data_Zr2Ga3
_symmetry_space_group_name_H-M   'P 1'
_cell_length_a   5.46760223
_cell_length_b   5.46760292
_cell_length_c   7.42579765
_cell_angle_alpha   100.73693124
_cell_angle_beta   100.73694002
_cell_angle_gamma   119.60088675
_symmetry_Int_Tables_number   1
_chemical_formula_structural   Zr2Ga3
_chemical_formula_sum   'Zr4 Ga6'
_cell_volume   179.29254198
_cell_formula_units_Z   2
loop_
 _symmetry_equiv_pos_site_id
 _symmetry_equiv_pos_as_xyz
  1  'x, y, z'
loop_
 _atom_site_type_symbol
 _atom_site_label
 _atom_site_symmetry_multiplicity
 _atom_site_fract_x
 _atom_site_fract_y
 _atom_site_fract_z
 _atom_site_occupancy
  Zr  Zr0  1  0.11262457  0.75467182  0.89583835  1
  Zr  Zr1  1  0.85883547  0.21678622  0.10416165  1
  Zr  Zr2  1  0.00467182  0.86262557  0.39583835  1
  Zr  Zr3  1  0.46678622  0.60883547  0.60416165  1
  Ga  Ga0  1  0.59549173  0.59549173  0.00000000  1
  Ga  Ga1  1  0.84549173  0.34549173  0.50000000  1
  Ga  Ga2  1  0.52277788  0.16330903  0.73303767  1
  Ga  Ga3  1  0.43027036  0.78973820  0.26696233  1
  Ga  Ga4  1  0.41330903  0.27277788  0.23303767  1
  Ga  Ga5  1  0.03973820  0.18027036  0.76696233  1
loop_
_geom_bond_atom_site_label_1
_geom_bond_atom_site_label_2
_geom_bond_distance
_geom_bond_site_symmetry_2
Ga0 Ga3 2.589324 1_555
Ga0 Ga2 2.589325 1_554
Ga0 Ga4 2.672788 1_555
Ga0 Ga5 2.672795 1_554
Ga0 Zr1 2.825772 1_565
Ga0 Zr0 2.825773 1_654
Ga0 Zr2 2.915574 1_655
Ga0 Zr3 2.915579 1_554
Ga0 Zr0 3.175843 1_554
Ga0 Zr1 3.175851 1_555
Ga1 Ga5 2.589324 1_655
Ga1 Ga4 2.589324 1_555
Ga1 Ga2 2.672788 1_555
Ga1 Ga3 2.672795 1_545
Ga1 Zr3 2.825771 1_655
Ga1 Zr2 2.825778 1_655
Ga1 Zr0 2.915575 1_655
Ga1 Zr1 2.915579 1_555
Ga1 Zr2 3.175838 1_645
Ga1 Zr3 3.175851 1_555
Ga2 Ga5 2.743789 1_655
Ga2 Ga5 2.743806 1_555
Ga2 Zr3 2.844883 1_545
Ga2 Zr2 2.867015 1_545
Ga2 Zr1 2.887702 1_556
Ga2 Zr3 2.905112 1_555
Ga2 Zr0 2.923896 1_545
Ga2 Zr0 3.017639 1_655
Ga3 Ga4 2.743790 1_555
Ga3 Ga4 2.743806 1_565
Ga3 Zr2 2.844896 1_555
Ga3 Zr3 2.867003 1_555
Ga3 Zr0 2.887700 1_554
Ga3 Zr2 2.905099 1_655
Ga3 Zr1 2.923883 1_455
Ga3 Zr1 3.017652 1_565
Ga4 Zr1 2.844882 1_455
Ga4 Zr0 2.867014 1_544
Ga4 Zr3 2.887703 1_555
Ga4 Zr1 2.905112 1_555
Ga4 Zr2 2.923894 1_545
Ga4 Zr2 3.017642 1_655
Ga5 Zr0 2.844893 1_545
Ga5 Zr1 2.867003 1_456
Ga5 Zr2 2.887699 1_545
Ga5 Zr0 2.905102 1_555
Ga5 Zr3 2.923883 1_445
Ga5 Zr3 3.017652 1_555
