# generated using pymatgen
data_K6InAsP2
_symmetry_space_group_name_H-M   'P 1'
_cell_length_a   8.99748795
_cell_length_b   8.99330763
_cell_length_c   9.96732199
_cell_angle_alpha   81.82514981
_cell_angle_beta   107.26669698
_cell_angle_gamma   119.25051707
_symmetry_Int_Tables_number   1
_chemical_formula_structural   K6InAsP2
_chemical_formula_sum   'K12 In2 As2 P4'
_cell_volume   671.97182443
_cell_formula_units_Z   2
loop_
 _symmetry_equiv_pos_site_id
 _symmetry_equiv_pos_as_xyz
  1  'x, y, z'
loop_
 _atom_site_type_symbol
 _atom_site_label
 _atom_site_symmetry_multiplicity
 _atom_site_fract_x
 _atom_site_fract_y
 _atom_site_fract_z
 _atom_site_occupancy
  K  K0  1  0.73284623  0.12304585  0.61762718  1
  K  K1  1  0.25796740  0.85934470  0.39391179  1
  K  K2  1  0.97031567  0.81776951  0.62281648  1
  K  K3  1  0.02210579  0.19862052  0.39346135  1
  K  K4  1  0.62710754  0.44892751  0.39735522  1
  K  K5  1  0.39695392  0.56190548  0.59553768  1
  K  K6  1  0.86445528  0.48749828  0.13694209  1
  K  K7  1  0.11871578  0.50388936  0.84655305  1
  K  K8  1  0.75491936  0.09737240  0.98837819  1
  K  K9  1  0.23470719  0.86975913  0.00376419  1
  K  K10  1  0.56780642  0.62862345  0.94842164  1
  K  K11  1  0.24451068  0.19977384  0.10804827  1
  In  In0  1  0.59225498  0.83427530  0.25832353  1
  In  In1  1  0.41402495  0.17075136  0.74973327  1
  As  As0  1  0.28793188  0.55063772  0.22863698  1
  As  As1  1  0.71771480  0.44528041  0.76458552  1
  P  P0  1  0.59644133  0.11711046  0.26047571  1
  P  P1  1  0.38950331  0.87584711  0.74236099  1
  P  P2  1  0.86635949  0.82752656  0.24579328  1
  P  P3  1  0.15273698  0.19878303  0.75865658  1
loop_
_geom_bond_atom_site_label_1
_geom_bond_atom_site_label_2
_geom_bond_distance
_geom_bond_site_symmetry_2
K0 P1 3.288423 1_545
K0 P3 3.364197 1_655
K0 P0 3.402647 1_555
K1 P2 3.274633 1_455
K1 P1 3.319637 1_555
K1 P0 3.323520 1_565
K2 P3 3.282149 1_665
K2 P1 3.391429 1_655
K2 P2 3.592254 1_555
K3 P2 3.297002 1_445
K3 P0 3.388446 1_455
K3 P3 3.477248 1_555
K4 P0 3.312441 1_555
K4 P2 3.437152 1_555
K5 P1 3.396443 1_555
K5 P3 3.425577 1_555
K6 P0 3.342629 1_555
K6 P2 3.377863 1_555
K7 P3 3.170802 1_555
K7 P1 3.279304 1_555
K8 P1 3.315702 1_545
K8 P0 3.478518 1_556
K8 P2 3.543696 1_546
K9 P1 3.281851 1_554
K9 P0 3.418783 1_565
K10 P2 3.359516 1_556
K10 P1 3.459264 1_555
K11 P3 3.332307 1_554
K11 P0 3.465685 1_555
In0 P0 2.528499 1_565
In0 P2 2.536330 1_555
In0 K8 3.481811 1_564
In1 P3 2.511583 1_555
In1 P1 2.561641 1_545
In1 K8 3.563950 1_555
As0 In0 2.645700 1_555
As0 K11 3.339030 1_555
As0 K6 3.411966 1_455
As0 K3 3.449010 1_555
As0 K4 3.495956 1_555
As0 K5 3.496422 1_555
As0 K9 3.516579 1_555
As0 K1 3.576319 1_555
As0 K7 3.658699 1_554
As1 In1 2.618166 1_555
As1 K7 3.236831 1_655
As1 K2 3.391756 1_555
As1 K5 3.440522 1_555
As1 K0 3.503342 1_555
As1 K4 3.504863 1_555
As1 K10 3.520698 1_555
As1 K6 3.558616 1_556
As1 K8 3.670535 1_555
