# generated using pymatgen
data_Ba4Bi3
_symmetry_space_group_name_H-M   'P 1'
_cell_length_a   9.28891061
_cell_length_b   9.28891086
_cell_length_c   9.28891127
_cell_angle_alpha   109.47121696
_cell_angle_beta   109.47121753
_cell_angle_gamma   109.47122321
_symmetry_Int_Tables_number   1
_chemical_formula_structural   Ba4Bi3
_chemical_formula_sum   'Ba8 Bi6'
_cell_volume   616.98204367
_cell_formula_units_Z   2
loop_
 _symmetry_equiv_pos_site_id
 _symmetry_equiv_pos_as_xyz
  1  'x, y, z'
loop_
 _atom_site_type_symbol
 _atom_site_label
 _atom_site_symmetry_multiplicity
 _atom_site_fract_x
 _atom_site_fract_y
 _atom_site_fract_z
 _atom_site_occupancy
  Ba  Ba0  1  0.64430057  0.64430057  0.64430057  1
  Ba  Ba1  1  0.35569943  0.50000000  -0.00000000  1
  Ba  Ba2  1  0.50000000  -0.00000000  0.35569943  1
  Ba  Ba3  1  0.00000000  0.35569943  0.50000000  1
  Ba  Ba4  1  0.50000000  -0.00000000  0.85569943  1
  Ba  Ba5  1  0.00000000  0.85569943  0.50000000  1
  Ba  Ba6  1  0.14430057  0.14430057  0.14430057  1
  Ba  Ba7  1  0.85569943  0.50000000  -0.00000000  1
  Bi  Bi0  1  0.75000000  0.87500000  0.12500000  1
  Bi  Bi1  1  0.62500000  0.37500000  0.25000000  1
  Bi  Bi2  1  0.87500000  0.12500000  0.75000000  1
  Bi  Bi3  1  0.12500000  0.75000000  0.87500000  1
  Bi  Bi4  1  0.37500000  0.25000000  0.62500000  1
  Bi  Bi5  1  0.25000000  0.62500000  0.37500000  1
loop_
_geom_bond_atom_site_label_1
_geom_bond_atom_site_label_2
_geom_bond_distance
_geom_bond_site_symmetry_2
Ba0 Bi4 3.586042 1_555
Ba0 Bi5 3.586042 1_555
Ba0 Bi1 3.586042 1_555
Ba0 Bi2 3.845716 1_565
Ba0 Bi3 3.845716 1_655
Ba0 Bi0 3.845716 1_556
Ba0 Ba5 4.117195 1_655
Ba0 Ba4 4.117196 1_565
Ba0 Ba7 4.117196 1_556
Ba1 Bi0 3.586042 1_555
Ba1 Bi1 3.586042 1_555
Ba1 Bi4 3.586042 1_554
Ba1 Bi2 3.845716 1_454
Ba1 Bi3 3.845716 1_554
Ba1 Bi5 3.845716 1_555
Ba1 Ba6 4.117195 1_555
Ba1 Ba2 4.117196 1_565
Ba1 Ba3 4.117196 1_554
Ba2 Bi5 3.586042 1_545
Ba2 Bi4 3.586042 1_555
Ba2 Bi2 3.586042 1_555
Ba2 Bi1 3.845716 1_555
Ba2 Bi0 3.845716 1_545
Ba2 Bi3 3.845716 1_544
Ba2 Ba3 4.117195 1_655
Ba2 Ba6 4.117195 1_555
Ba3 Bi5 3.586042 1_555
Ba3 Bi1 3.586042 1_455
Ba3 Bi3 3.586042 1_555
Ba3 Bi2 3.845716 1_455
Ba3 Bi4 3.845716 1_555
Ba3 Bi0 3.845716 1_445
Ba3 Ba6 4.117196 1_555
Ba4 Bi3 3.586042 1_545
Ba4 Bi0 3.586042 1_546
Ba4 Bi1 3.586042 1_556
Ba4 Bi2 3.845716 1_555
Ba4 Bi4 3.845716 1_555
Ba4 Bi5 3.845716 1_545
Ba4 Ba7 4.117195 1_556
Ba4 Ba5 4.117196 1_545
Ba5 Bi4 3.586042 1_565
Ba5 Bi2 3.586042 1_465
Ba5 Bi0 3.586042 1_455
Ba5 Bi5 3.845716 1_555
Ba5 Bi1 3.845716 1_455
Ba5 Bi3 3.845716 1_555
Ba5 Ba7 4.117196 1_455
Ba6 Bi0 3.586042 1_445
Ba6 Bi3 3.586042 1_544
Ba6 Bi2 3.586042 1_454
Ba6 Bi1 3.845716 1_555
Ba6 Bi5 3.845716 1_555
Ba6 Bi4 3.845716 1_555
Ba7 Bi3 3.586042 1_654
Ba7 Bi2 3.586042 1_554
Ba7 Bi5 3.586042 1_655
Ba7 Bi1 3.845716 1_555
Ba7 Bi0 3.845716 1_555
Ba7 Bi4 3.845716 1_554
