# generated using pymatgen
data_RbYZnSe3
_symmetry_space_group_name_H-M   'P 1'
_cell_length_a   7.93105441
_cell_length_b   7.93105392
_cell_length_c   10.96473334
_cell_angle_alpha   90.00000000
_cell_angle_beta   90.00000000
_cell_angle_gamma   149.72083303
_symmetry_Int_Tables_number   1
_chemical_formula_structural   RbYZnSe3
_chemical_formula_sum   'Rb2 Y2 Zn2 Se6'
_cell_volume   347.75590196
_cell_formula_units_Z   2
loop_
 _symmetry_equiv_pos_site_id
 _symmetry_equiv_pos_as_xyz
  1  'x, y, z'
loop_
 _atom_site_type_symbol
 _atom_site_label
 _atom_site_symmetry_multiplicity
 _atom_site_fract_x
 _atom_site_fract_y
 _atom_site_fract_z
 _atom_site_occupancy
  Rb  Rb0  1  0.25496125  0.74503875  0.25000000  1
  Rb  Rb1  1  0.74503875  0.25496125  0.75000000  1
  Y  Y0  1  0.00000000  0.00000000  0.50000000  1
  Y  Y1  1  0.00000000  0.00000000  0.00000000  1
  Zn  Zn0  1  0.53745881  0.46254119  0.25000000  1
  Zn  Zn1  1  0.46254119  0.53745881  0.75000000  1
  Se  Se0  1  0.62173201  0.37826799  0.43780105  1
  Se  Se1  1  0.37826799  0.62173201  0.56219895  1
  Se  Se2  1  0.62173201  0.37826799  0.06219895  1
  Se  Se3  1  0.37826799  0.62173201  0.93780105  1
  Se  Se4  1  0.93990547  0.06009453  0.25000000  1
  Se  Se5  1  0.06009453  0.93990547  0.75000000  1
loop_
_geom_bond_atom_site_label_1
_geom_bond_atom_site_label_2
_geom_bond_distance
_geom_bond_site_symmetry_2
Rb0 Se4 3.508499 1_455
Rb0 Se4 3.508500 1_565
Rb0 Se0 3.562612 1_565
Rb0 Se2 3.562612 1_565
Rb0 Se0 3.562612 1_455
Rb0 Se2 3.562612 1_455
Rb0 Se1 3.909318 1_555
Rb0 Se3 3.909318 1_554
Rb1 Se5 3.508499 1_655
Rb1 Se5 3.508500 1_545
Rb1 Se3 3.562612 1_545
Rb1 Se1 3.562612 1_545
Rb1 Se3 3.562612 1_655
Rb1 Se1 3.562612 1_655
Rb1 Se2 3.909318 1_556
Rb1 Se0 3.909318 1_555
Se0 Zn0 2.430077 1_555
Se0 Y0 2.868767 1_665
Se0 Y0 2.868767 1_555
Se1 Zn1 2.430077 1_555
Se1 Y0 2.868767 1_555
Se1 Y0 2.868767 1_665
Se2 Zn0 2.430077 1_555
Se2 Y1 2.868767 1_665
Se2 Y1 2.868767 1_555
Se3 Zn1 2.430077 1_555
Se3 Y1 2.868767 1_556
Se3 Y1 2.868767 1_666
Se4 Zn0 2.553757 1_545
Se4 Zn0 2.553758 1_655
Se4 Y1 2.891496 1_655
Se4 Y0 2.891496 1_655
Se5 Zn1 2.553757 1_565
Se5 Zn1 2.553758 1_455
Se5 Y1 2.891496 1_566
Se5 Y0 2.891496 1_565
