# generated using pymatgen
data_La5TlTe8
_symmetry_space_group_name_H-M   'P 1'
_cell_length_a   8.47889645
_cell_length_b   8.47889593
_cell_length_c   8.47889763
_cell_angle_alpha   109.26502298
_cell_angle_beta   109.88441332
_cell_angle_gamma   109.26502844
_symmetry_Int_Tables_number   1
_chemical_formula_structural   La5TlTe8
_chemical_formula_sum   'La5 Tl1 Te8'
_cell_volume   469.22281854
_cell_formula_units_Z   1
loop_
 _symmetry_equiv_pos_site_id
 _symmetry_equiv_pos_as_xyz
  1  'x, y, z'
loop_
 _atom_site_type_symbol
 _atom_site_label
 _atom_site_symmetry_multiplicity
 _atom_site_fract_x
 _atom_site_fract_y
 _atom_site_fract_z
 _atom_site_occupancy
  La  La0  1  0.24270707  0.62742845  0.37623288  1
  La  La1  1  0.37500000  0.25000000  0.62500000  1
  La  La2  1  0.62376712  0.36647319  0.25119557  1
  La  La3  1  0.74880443  0.87257155  0.11527861  1
  La  La4  1  0.88472139  0.13352681  0.75729293  1
  Tl  Tl0  1  0.12500000  0.75000000  0.87500000  1
  Te  Te0  1  0.99459769  0.85514785  0.49045880  1
  Te  Te1  1  0.15247851  0.15930673  0.15767888  1
  Te  Te2  1  0.36054916  0.49585911  0.00540231  1
  Te  Te3  1  0.63531095  0.64485215  0.63945084  1
  Te  Te4  1  0.50682822  0.00520037  0.84752149  1
  Te  Te5  1  0.50954120  0.00414089  0.36468905  1
  Te  Te6  1  0.84232112  0.49479963  0.00162785  1
  Te  Te7  1  0.99837215  0.34069327  0.49317178  1
loop_
_geom_bond_atom_site_label_1
_geom_bond_atom_site_label_2
_geom_bond_distance
_geom_bond_site_symmetry_2
La0 Te3 3.238536 1_555
La0 Te6 3.266017 1_455
La0 Te7 3.293950 1_455
La0 Te5 3.304381 1_565
La0 Te0 3.453095 1_455
La0 Te1 3.457133 1_555
La0 Te4 3.460639 1_565
La0 Te2 3.561891 1_555
La1 Te5 3.280899 1_555
La1 Te3 3.280903 1_555
La1 Te0 3.280907 1_445
La1 Te2 3.280907 1_556
La1 Te6 3.434814 1_556
La1 Te7 3.434815 1_455
La1 Te4 3.434815 1_555
La1 Te1 3.434815 1_555
La2 Te2 3.238532 1_555
La2 Te7 3.266012 1_555
La2 Te4 3.293946 1_554
La2 Te3 3.304378 1_555
La2 Te5 3.453072 1_555
La2 Te6 3.457137 1_555
La2 Te1 3.460638 1_555
La2 Te0 3.561899 1_555
La3 Te0 3.238534 1_555
La3 Te4 3.266017 1_564
La3 Te1 3.293949 1_665
La3 Te2 3.304382 1_555
La3 Te3 3.453088 1_554
La3 Te7 3.457133 1_565
La3 Te6 3.460639 1_555
La3 Te5 3.561899 1_565
La4 Te5 3.238536 1_555
La4 Te1 3.266021 1_656
La4 Te6 3.293943 1_556
La4 Te0 3.304373 1_545
La4 Te2 3.453081 1_656
La4 Te4 3.457134 1_555
La4 Te7 3.460634 1_555
La4 Te3 3.561903 1_545
Te0 Tl0 3.572735 1_655
Te1 Tl0 3.382427 1_544
Te2 Tl0 3.572744 1_554
Te3 Tl0 3.572733 1_655
Te4 Tl0 3.382427 1_545
Te5 Tl0 3.572733 1_544
Te6 Tl0 3.382427 1_654
Te7 Tl0 3.382427 1_655
