# generated using pymatgen
data_Hf3Ta5(NbN6)2
_symmetry_space_group_name_H-M   'P 1'
_cell_length_a   5.26501007
_cell_length_b   5.27664413
_cell_length_c   10.48318986
_cell_angle_alpha   89.98448290
_cell_angle_beta   90.00693377
_cell_angle_gamma   120.05871531
_symmetry_Int_Tables_number   1
_chemical_formula_structural   Hf3Ta5(NbN6)2
_chemical_formula_sum   'Hf3 Ta5 Nb2 N12'
_cell_volume   252.07154440
_cell_formula_units_Z   1
loop_
 _symmetry_equiv_pos_site_id
 _symmetry_equiv_pos_as_xyz
  1  'x, y, z'
loop_
 _atom_site_type_symbol
 _atom_site_label
 _atom_site_symmetry_multiplicity
 _atom_site_fract_x
 _atom_site_fract_y
 _atom_site_fract_z
 _atom_site_occupancy
  Hf  Hf0  1  0.66550689  0.33359089  0.99991956  1
  Hf  Hf1  1  0.33456284  0.66818356  0.99988098  1
  Hf  Hf2  1  0.33447304  0.66783163  0.49933118  1
  Ta  Ta0  1  0.00163884  0.32125917  0.74860931  1
  Ta  Ta1  1  0.31874889  0.32078026  0.25183018  1
  Ta  Ta2  1  0.67987713  0.99902810  0.25176708  1
  Ta  Ta3  1  0.00161224  0.68128436  0.25179929  1
  Ta  Ta4  1  0.66545196  0.33310054  0.50047281  1
  Nb  Nb0  1  0.67752221  0.67869653  0.74802456  1
  Nb  Nb1  1  0.32092223  0.99804654  0.74802938  1
  N  N0  1  0.65839386  0.65234923  0.37781542  1
  N  N1  1  0.34777507  0.00633527  0.37777828  1
  N  N2  1  0.99373773  0.34303009  0.37768107  1
  N  N3  1  0.34376582  0.34145852  0.61985142  1
  N  N4  1  0.66233586  0.01043758  0.61982894  1
  N  N5  1  0.99338470  0.64511579  0.62075352  1
  N  N6  1  0.34144451  0.34548097  0.87484853  1
  N  N7  1  0.65879037  0.00440902  0.87480983  1
  N  N8  1  0.99987507  0.64768429  0.87404360  1
  N  N9  1  0.65422068  0.65418304  0.12762556  1
  N  N10  1  0.34613771  0.00053058  0.12761464  1
  N  N11  1  0.99981634  0.34719104  0.12768387  1
loop_
_geom_bond_atom_site_label_1
_geom_bond_atom_site_label_2
_geom_bond_distance
_geom_bond_site_symmetry_2
Hf0 N8 2.159589 1_555
Hf0 N7 2.162911 1_555
Hf0 N6 2.177332 1_555
Hf0 N10 2.178736 1_556
Hf0 N9 2.181617 1_556
Hf0 N11 2.184062 1_556
Hf1 N8 2.160004 1_455
Hf1 N6 2.163760 1_555
Hf1 N7 2.178549 1_565
Hf1 N9 2.180662 1_556
Hf1 N10 2.183199 1_566
Hf1 N11 2.186079 1_456
Hf2 N5 2.155105 1_455
Hf2 N3 2.155852 1_555
Hf2 N0 2.162898 1_555
Hf2 N1 2.166218 1_565
Hf2 N2 2.168539 1_455
Hf2 N4 2.172131 1_565
N0 Ta4 2.134020 1_555
N0 Ta3 2.181281 1_655
N0 Ta1 2.206714 1_555
N0 Ta2 2.212838 1_555
N1 Ta4 2.129908 1_555
N1 Ta1 2.184587 1_555
N1 Ta2 2.207255 1_545
N1 Ta3 2.208342 1_545
N2 Ta4 2.134713 1_555
N2 Ta2 2.182615 1_545
N2 Ta3 2.203058 1_655
N2 Ta1 2.210076 1_655
N3 Ta4 2.124157 1_555
N3 Nb1 2.209977 1_545
N3 Ta0 2.210468 1_555
N3 Nb0 2.219925 1_555
N4 Ta4 2.106061 1_555
N4 Ta0 2.183880 1_655
N4 Nb1 2.219110 1_545
N4 Nb0 2.239541 1_545
N5 Ta4 2.105832 1_555
N5 Ta0 2.189016 1_655
N5 Nb0 2.207488 1_555
N5 Nb1 2.237369 1_655
N6 Ta0 2.176914 1_555
N6 Nb0 2.207417 1_555
N6 Nb1 2.223276 1_545
N7 Ta0 2.186323 1_655
N7 Nb1 2.207164 1_545
N7 Nb0 2.213857 1_545
N8 Ta0 2.170990 1_655
N8 Nb1 2.211073 1_655
N8 Nb0 2.220373 1_555
N9 Ta2 2.185847 1_555
N9 Ta1 2.190093 1_555
N9 Ta3 2.190385 1_655
N10 Ta3 2.182011 1_545
N10 Ta2 2.189736 1_545
N10 Ta1 2.194852 1_555
N11 Ta1 2.183265 1_655
N11 Ta3 2.187543 1_655
N11 Ta2 2.191737 1_545
