# generated using pymatgen
data_NaLu(CO3)2
_symmetry_space_group_name_H-M   'P 1'
_cell_length_a   6.13493275
_cell_length_b   6.13493316
_cell_length_c   6.13493325
_cell_angle_alpha   47.60869785
_cell_angle_beta   47.60868946
_cell_angle_gamma   47.60869355
_symmetry_Int_Tables_number   1
_chemical_formula_structural   NaLu(CO3)2
_chemical_formula_sum   'Na1 Lu1 C2 O6'
_cell_volume   115.28629921
_cell_formula_units_Z   1
loop_
 _symmetry_equiv_pos_site_id
 _symmetry_equiv_pos_as_xyz
  1  'x, y, z'
loop_
 _atom_site_type_symbol
 _atom_site_label
 _atom_site_symmetry_multiplicity
 _atom_site_fract_x
 _atom_site_fract_y
 _atom_site_fract_z
 _atom_site_occupancy
  Na  Na0  1  0.50000000  0.50000000  0.50000000  1
  Lu  Lu0  1  0.00000000  0.00000000  0.00000000  1
  C  C0  1  0.25522266  0.25522266  0.25522266  1
  C  C1  1  0.74477734  0.74477734  0.74477734  1
  O  O0  1  0.47291683  0.76978255  0.99168437  1
  O  O1  1  0.00831663  0.52708317  0.23021645  1
  O  O2  1  0.76978355  0.99168437  0.47291583  1
  O  O3  1  0.23021645  0.00831563  0.52708417  1
  O  O4  1  0.99168337  0.47291683  0.76978355  1
  O  O5  1  0.52708317  0.23021745  0.00831563  1
loop_
_geom_bond_atom_site_label_1
_geom_bond_atom_site_label_2
_geom_bond_distance
_geom_bond_site_symmetry_2
Na0 O5 2.420789 1_556
Na0 O0 2.420789 1_554
Na0 O3 2.420790 1_565
Na0 O2 2.420790 1_545
Na0 O1 2.420793 1_655
Na0 O4 2.420793 1_455
Lu0 O2 2.187984 1_445
Lu0 O3 2.187984 1_554
Lu0 O4 2.187987 1_454
Lu0 O1 2.187987 1_545
Lu0 O0 2.187988 1_544
Lu0 O5 2.187988 1_455
C0 O1 1.289007 1_555
C0 O5 1.289008 1_555
C0 O3 1.289012 1_555
C1 O4 1.289007 1_555
C1 O0 1.289008 1_555
C1 O2 1.289012 1_555
