# generated using pymatgen
data_GaFeF6
_symmetry_space_group_name_H-M   'P 1'
_cell_length_a   5.29416151
_cell_length_b   5.29416162
_cell_length_c   5.29416082
_cell_angle_alpha   56.63734245
_cell_angle_beta   56.63733795
_cell_angle_gamma   56.63733942
_symmetry_Int_Tables_number   1
_chemical_formula_structural   GaFeF6
_chemical_formula_sum   'Ga1 Fe1 F6'
_cell_volume   96.77468866
_cell_formula_units_Z   1
loop_
 _symmetry_equiv_pos_site_id
 _symmetry_equiv_pos_as_xyz
  1  'x, y, z'
loop_
 _atom_site_type_symbol
 _atom_site_label
 _atom_site_symmetry_multiplicity
 _atom_site_fract_x
 _atom_site_fract_y
 _atom_site_fract_z
 _atom_site_occupancy
  Ga  Ga0  1  0.50000000  0.50000000  0.50000000  1
  Fe  Fe0  1  0.00000000  0.00000000  0.00000000  1
  F  F0  1  0.13722778  0.36826032  0.74693349  1
  F  F1  1  0.36826032  0.74693349  0.13722778  1
  F  F2  1  0.74693349  0.13722778  0.36826032  1
  F  F3  1  0.86277222  0.63173968  0.25306651  1
  F  F4  1  0.63173968  0.25306651  0.86277222  1
  F  F5  1  0.25306651  0.86277222  0.63173968  1
loop_
_geom_bond_atom_site_label_1
_geom_bond_atom_site_label_2
_geom_bond_distance
_geom_bond_site_symmetry_2
F0 Ga0 1.895521 1_555
F0 Fe0 1.933452 1_556
F1 Ga0 1.895521 1_555
F1 Fe0 1.933452 1_565
F2 Ga0 1.895521 1_555
F2 Fe0 1.933452 1_655
F3 Ga0 1.895521 1_555
F3 Fe0 1.933452 1_665
F4 Ga0 1.895521 1_555
F4 Fe0 1.933452 1_656
F5 Ga0 1.895521 1_555
F5 Fe0 1.933452 1_566
