# generated using pymatgen
data_Tc2Ag6PtF18
_symmetry_space_group_name_H-M   'P 1'
_cell_length_a   9.77173641
_cell_length_b   9.77173659
_cell_length_c   5.22264256
_cell_angle_alpha   90.00000000
_cell_angle_beta   90.00000000
_cell_angle_gamma   120.00000070
_symmetry_Int_Tables_number   1
_chemical_formula_structural   Tc2Ag6PtF18
_chemical_formula_sum   'Tc2 Ag6 Pt1 F18'
_cell_volume   431.88132707
_cell_formula_units_Z   1
loop_
 _symmetry_equiv_pos_site_id
 _symmetry_equiv_pos_as_xyz
  1  'x, y, z'
loop_
 _atom_site_type_symbol
 _atom_site_label
 _atom_site_symmetry_multiplicity
 _atom_site_fract_x
 _atom_site_fract_y
 _atom_site_fract_z
 _atom_site_occupancy
  Tc  Tc0  1  0.00000000  0.00000000  0.49817182  1
  Tc  Tc1  1  0.33333300  0.66666700  0.99980246  1
  Ag  Ag0  1  0.99928131  0.62508572  0.50178752  1
  Ag  Ag1  1  0.62580441  0.00071869  0.50178752  1
  Ag  Ag2  1  0.37491428  0.37419559  0.50178752  1
  Ag  Ag3  1  0.29326000  0.00188580  0.00148676  1
  Ag  Ag4  1  0.70862580  0.70674000  0.00148676  1
  Ag  Ag5  1  0.99811420  0.29137420  0.00148676  1
  Pt  Pt0  1  0.66666700  0.33333300  0.00038014  1
  F  F0  1  0.08395664  0.89315403  0.29051818  1
  F  F1  1  0.80919739  0.91604336  0.29051818  1
  F  F2  1  0.10684597  0.19080261  0.29051818  1
  F  F3  1  0.91555379  0.80965084  0.70614049  1
  F  F4  1  0.89409806  0.08444621  0.70614049  1
  F  F5  1  0.19034916  0.10590194  0.70614049  1
  F  F6  1  0.22386393  0.74585254  0.78741276  1
  F  F7  1  0.52198760  0.77613607  0.78741276  1
  F  F8  1  0.25414746  0.47801240  0.78741276  1
  F  F9  1  0.77969371  0.52416080  0.21294322  1
  F  F10  1  0.74446809  0.22030629  0.21294322  1
  F  F11  1  0.47583920  0.25553191  0.21294322  1
  F  F12  1  0.40702872  0.85420808  0.21288676  1
  F  F13  1  0.44718035  0.59297128  0.21288676  1
  F  F14  1  0.14579192  0.55281965  0.21288676  1
  F  F15  1  0.59239923  0.44929623  0.78737250  1
  F  F16  1  0.85689600  0.40760077  0.78737250  1
  F  F17  1  0.55070377  0.14310400  0.78737250  1
loop_
_geom_bond_atom_site_label_1
_geom_bond_atom_site_label_2
_geom_bond_distance
_geom_bond_site_symmetry_2
Ag0 F16 2.391662 1_555
Ag0 F9 2.395071 1_555
Ag0 F14 2.415755 1_655
Ag0 F6 2.417470 1_655
Ag0 F3 2.556698 1_555
Ag0 F0 2.568345 1_655
Ag1 F17 2.391668 1_555
Ag1 F10 2.395071 1_555
Ag1 F12 2.415749 1_545
Ag1 F7 2.417470 1_545
Ag1 F4 2.556707 1_555
Ag1 F1 2.568345 1_545
Ag2 F15 2.391661 1_555
Ag2 F11 2.395078 1_555
Ag2 F13 2.415748 1_555
Ag2 F8 2.417476 1_555
Ag2 F5 2.556705 1_555
Ag2 F2 2.568345 1_555
Ag3 F0 2.327555 1_545
Ag3 F5 2.333617 1_554
Ag3 F17 2.451904 1_554
Ag3 F11 2.474655 1_555
Ag3 F12 2.478227 1_545
Ag3 F6 2.504538 1_544
Ag4 F1 2.327555 1_555
Ag4 F3 2.333624 1_554
Ag4 F15 2.451904 1_554
Ag4 F9 2.474661 1_555
Ag4 F13 2.478219 1_555
Ag4 F7 2.504547 1_554
Ag5 F2 2.327555 1_655
Ag5 F4 2.333624 1_554
Ag5 F16 2.451911 1_554
Ag5 F10 2.474652 1_555
Ag5 F14 2.478220 1_655
Ag5 F8 2.504540 1_654
F0 Tc0 1.948292 1_565
F1 Tc0 1.948292 1_665
F2 Tc0 1.948292 1_555
F3 Tc0 1.945641 1_665
F4 Tc0 1.945634 1_655
F5 Tc0 1.945641 1_555
F6 Tc1 1.949646 1_555
F7 Tc1 1.949646 1_555
F8 Tc1 1.949646 1_555
F9 Pt0 1.967210 1_555
F10 Pt0 1.967210 1_555
F11 Pt0 1.967210 1_555
F12 Tc1 1.948273 1_554
F13 Tc1 1.948288 1_554
F14 Tc1 1.948275 1_554
F15 Pt0 1.967402 1_556
F16 Pt0 1.967387 1_556
F17 Pt0 1.967389 1_556
