# generated using pymatgen
data_Zr2Ta3Ir
_symmetry_space_group_name_H-M   'P 1'
_cell_length_a   5.56105391
_cell_length_b   5.40291715
_cell_length_c   5.56105493
_cell_angle_alpha   59.02697976
_cell_angle_beta   59.99999984
_cell_angle_gamma   59.02697630
_symmetry_Int_Tables_number   1
_chemical_formula_structural   Zr2Ta3Ir
_chemical_formula_sum   'Zr2 Ta3 Ir1'
_cell_volume   116.38077631
_cell_formula_units_Z   1
loop_
 _symmetry_equiv_pos_site_id
 _symmetry_equiv_pos_as_xyz
  1  'x, y, z'
loop_
 _atom_site_type_symbol
 _atom_site_label
 _atom_site_symmetry_multiplicity
 _atom_site_fract_x
 _atom_site_fract_y
 _atom_site_fract_z
 _atom_site_occupancy
  Zr  Zr0  1  0.49970583  0.50088250  0.49970583  1
  Zr  Zr1  1  0.75029417  0.74911750  0.75029417  1
  Ta  Ta0  1  0.62500000  0.12500000  0.12500000  1
  Ta  Ta1  1  0.12500000  0.12500000  0.12500000  1
  Ta  Ta2  1  0.12500000  0.12500000  0.62500000  1
  Ir  Ir0  1  0.12500000  0.62500000  0.12500000  1
loop_
_geom_bond_atom_site_label_1
_geom_bond_atom_site_label_2
_geom_bond_distance
_geom_bond_site_symmetry_2
Zr0 Zr1 3.266769 1_545
Zr0 Zr1 3.387038 1_455
Zr0 Zr1 3.387038 1_555
Zr0 Zr1 3.387039 1_554
Ta0 Zr1 3.151586 1_554
Ta0 Zr0 3.151586 1_545
Ta0 Zr0 3.224791 1_555
Ta0 Zr1 3.224791 1_544
Ta0 Zr1 3.224791 1_545
Ta0 Zr0 3.224791 1_554
Ta1 Zr0 3.151586 1_545
Ta1 Zr1 3.151586 1_454
Ta1 Zr0 3.224791 1_455
Ta1 Zr1 3.224791 1_544
Ta1 Zr0 3.224791 1_554
Ta1 Zr1 3.224791 1_445
Ta2 Zr1 3.151586 1_455
Ta2 Zr0 3.151586 1_545
Ta2 Zr1 3.224791 1_545
Ta2 Zr0 3.224791 1_455
Ta2 Zr0 3.224791 1_555
Ta2 Zr1 3.224791 1_445
Ir0 Ta0 2.701458 1_555
Ir0 Ta0 2.701458 1_465
Ir0 Ta1 2.701459 1_565
Ir0 Ta1 2.701459 1_555
Ir0 Ta2 2.701459 1_555
Ir0 Ta2 2.701459 1_564
Ir0 Zr1 3.255662 1_554
Ir0 Zr0 3.255662 1_455
Ir0 Zr0 3.255663 1_555
Ir0 Zr1 3.255663 1_454
Ir0 Zr1 3.255663 1_455
Ir0 Zr0 3.255663 1_554
