# generated using pymatgen
data_Zr5ZnIn2Sb
_symmetry_space_group_name_H-M   'P 1'
_cell_length_a   8.69793596
_cell_length_b   8.68754662
_cell_length_c   5.88709909
_cell_angle_alpha   90.00000000
_cell_angle_beta   90.00000000
_cell_angle_gamma   119.96138439
_symmetry_Int_Tables_number   1
_chemical_formula_structural   Zr5ZnIn2Sb
_chemical_formula_sum   'Zr10 Zn2 In4 Sb2'
_cell_volume   385.40220107
_cell_formula_units_Z   2
loop_
 _symmetry_equiv_pos_site_id
 _symmetry_equiv_pos_as_xyz
  1  'x, y, z'
loop_
 _atom_site_type_symbol
 _atom_site_label
 _atom_site_symmetry_multiplicity
 _atom_site_fract_x
 _atom_site_fract_y
 _atom_site_fract_z
 _atom_site_occupancy
  Zr  Zr0  1  0.66390133  0.33199673  0.00121290  1
  Zr  Zr1  1  0.33609473  0.66808948  0.00119845  1
  Zr  Zr2  1  0.33609473  0.66808948  0.49880155  1
  Zr  Zr3  1  0.66390133  0.33199673  0.49878710  1
  Zr  Zr4  1  0.73032001  0.73921125  0.75000000  1
  Zr  Zr5  1  0.26963054  0.00880660  0.75000000  1
  Zr  Zr6  1  0.00004462  0.26045822  0.75000000  1
  Zr  Zr7  1  0.26880897  0.26843012  0.25000000  1
  Zr  Zr8  1  0.73116865  0.99960818  0.25000000  1
  Zr  Zr9  1  0.00003154  0.72503154  0.25000000  1
  Zn  Zn0  1  0.99998953  0.99359331  0.01045214  1
  Zn  Zn1  1  0.99998953  0.99359331  0.48954786  1
  In  In0  1  0.00002424  0.61862440  0.75000000  1
  In  In1  1  0.62052601  0.61972486  0.25000000  1
  In  In2  1  0.37945597  0.99916830  0.25000000  1
  In  In3  1  0.00002262  0.38159653  0.25000000  1
  Sb  Sb0  1  0.38583722  0.38892739  0.75000000  1
  Sb  Sb1  1  0.61415841  0.00305454  0.75000000  1
loop_
_geom_bond_atom_site_label_1
_geom_bond_atom_site_label_2
_geom_bond_distance
_geom_bond_site_symmetry_2
Zr0 Zr3 2.929269 1_555
Zr0 Zr3 2.957830 1_554
Zr1 Zr2 2.929439 1_555
Zr1 Zr2 2.957660 1_554
Zn0 Zr9 2.726388 1_655
Zn0 Zr4 2.749378 1_554
Zn0 Zr5 2.749439 1_664
Zn0 Zr7 2.753272 1_665
Zn0 Zr8 2.753301 1_555
Zn0 Zr6 2.779372 1_664
Zn1 Zr9 2.726388 1_655
Zn1 Zr4 2.749378 1_555
Zn1 Zr5 2.749439 1_665
Zn1 Zr7 2.753272 1_665
Zn1 Zr8 2.753301 1_555
Zn1 Zr6 2.779372 1_665
In0 Zr5 3.008266 1_565
In0 Zr4 3.009195 1_455
In0 Zr9 3.085283 1_556
In0 Zr9 3.085283 1_555
In0 Zr1 3.108303 1_556
In0 Zr2 3.108303 1_555
In0 Zr0 3.108628 1_456
In0 Zr3 3.108628 1_455
In0 Zr6 3.111674 1_555
In1 Zr8 2.940321 1_555
In1 Zr9 2.952400 1_655
In1 Zr7 3.057341 1_555
In1 Zr3 3.078588 1_555
In1 Zr0 3.078588 1_555
In1 Zr2 3.079078 1_555
In1 Zr1 3.079078 1_555
In1 Zr4 3.108674 1_555
In1 Zr4 3.108674 1_554
In2 Zr7 2.940549 1_565
In2 Zr9 2.951739 1_555
In2 Zr8 3.057268 1_555
In2 Zr2 3.078475 1_555
In2 Zr1 3.078475 1_555
In2 Zr3 3.079195 1_565
In2 Zr0 3.079195 1_565
In2 Zr5 3.108681 1_565
In2 Zr5 3.108681 1_564
In3 Zr7 2.954328 1_555
In3 Zr8 2.954643 1_445
In3 Zr9 2.983569 1_555
In3 Zr2 3.101272 1_555
In3 Zr1 3.101272 1_555
In3 Zr3 3.101572 1_455
In3 Zr0 3.101572 1_455
In3 Zr6 3.126055 1_554
In3 Zr6 3.126055 1_555
Sb0 Zr5 2.931379 1_555
Sb0 Zr6 2.960563 1_555
Sb0 Zr4 3.021733 1_555
Sb0 Zr1 3.050239 1_556
Sb0 Zr2 3.050239 1_555
Sb0 Zr0 3.078337 1_556
Sb0 Zr3 3.078337 1_555
Sb0 Zr7 3.119637 1_555
Sb0 Zr7 3.119637 1_556
Sb1 Zr4 2.930529 1_545
Sb1 Zr6 2.961294 1_655
Sb1 Zr5 3.021948 1_555
Sb1 Zr0 3.050552 1_556
Sb1 Zr3 3.050552 1_555
Sb1 Zr1 3.078117 1_546
Sb1 Zr2 3.078117 1_545
Sb1 Zr8 3.119556 1_545
Sb1 Zr8 3.119556 1_546
