# generated using pymatgen
data_Rb2Si(TeO4)3
_symmetry_space_group_name_H-M   'P 1'
_cell_length_a   6.85797820
_cell_length_b   6.85797895
_cell_length_c   6.85797856
_cell_angle_alpha   62.31159530
_cell_angle_beta   62.31158832
_cell_angle_gamma   62.31159198
_symmetry_Int_Tables_number   1
_chemical_formula_structural   Rb2Si(TeO4)3
_chemical_formula_sum   'Rb2 Si1 Te3 O12'
_cell_volume   239.83827657
_cell_formula_units_Z   1
loop_
 _symmetry_equiv_pos_site_id
 _symmetry_equiv_pos_as_xyz
  1  'x, y, z'
loop_
 _atom_site_type_symbol
 _atom_site_label
 _atom_site_symmetry_multiplicity
 _atom_site_fract_x
 _atom_site_fract_y
 _atom_site_fract_z
 _atom_site_occupancy
  Rb  Rb0  1  0.36791739  0.36791739  0.36791739  1
  Rb  Rb1  1  0.63208261  0.63208261  0.63208261  1
  Si  Si0  1  0.00000000  0.00000000  0.00000000  1
  Te  Te0  1  0.50000000  0.00000000  0.00000000  1
  Te  Te1  1  0.00000000  0.00000000  0.50000000  1
  Te  Te2  1  0.00000000  0.50000000  0.00000000  1
  O  O0  1  0.93588873  0.32996611  0.32996611  1
  O  O1  1  0.30231803  0.93674344  0.93674344  1
  O  O2  1  0.32996611  0.32996611  0.93588873  1
  O  O3  1  0.93674344  0.93674344  0.30231803  1
  O  O4  1  0.93674344  0.30231803  0.93674344  1
  O  O5  1  0.32996611  0.93588873  0.32996611  1
  O  O6  1  0.06411127  0.67003389  0.67003389  1
  O  O7  1  0.69768197  0.06325656  0.06325656  1
  O  O8  1  0.67003389  0.67003389  0.06411127  1
  O  O9  1  0.06325656  0.06325656  0.69768197  1
  O  O10  1  0.06325656  0.69768197  0.06325656  1
  O  O11  1  0.67003389  0.06411127  0.67003389  1
loop_
_geom_bond_atom_site_label_1
_geom_bond_atom_site_label_2
_geom_bond_distance
_geom_bond_site_symmetry_2
O0 Te2 1.942520 1_655
O0 Te1 1.942521 1_655
O0 Rb1 2.982034 1_555
O0 Rb0 3.226476 1_655
O1 Si0 1.782724 1_566
O1 Te0 1.866093 1_566
O1 Rb1 3.019906 1_555
O2 Te2 1.942520 1_556
O2 Te0 1.942521 1_556
O2 Rb1 2.982034 1_555
O2 Rb0 3.226476 1_556
O3 Si0 1.782724 1_665
O3 Te1 1.866094 1_665
O3 Rb1 3.019906 1_555
O4 Si0 1.782725 1_656
O4 Te2 1.866094 1_656
O4 Rb1 3.019906 1_555
O5 Te1 1.942520 1_565
O5 Te0 1.942520 1_565
O5 Rb1 2.982034 1_555
O5 Rb0 3.226476 1_565
O6 Te2 1.942520 1_556
O6 Te1 1.942521 1_565
O6 Rb0 2.982034 1_555
O6 Rb1 3.226476 1_455
O7 Si0 1.782724 1_655
O7 Te0 1.866093 1_555
O7 Rb0 3.019906 1_555
O8 Te2 1.942520 1_655
O8 Te0 1.942521 1_565
O8 Rb0 2.982034 1_555
O8 Rb1 3.226476 1_554
O9 Si0 1.782724 1_556
O9 Te1 1.866094 1_555
O9 Rb0 3.019906 1_555
O10 Si0 1.782725 1_565
O10 Te2 1.866094 1_555
O10 Rb0 3.019906 1_555
O11 Te1 1.942520 1_655
O11 Te0 1.942520 1_556
O11 Rb0 2.982034 1_555
O11 Rb1 3.226476 1_545
