# generated using pymatgen
data_RbBa3(BeP)8
_symmetry_space_group_name_H-M   'P 1'
_cell_length_a   7.14643259
_cell_length_b   8.32151269
_cell_length_c   7.39731693
_cell_angle_alpha   63.58794261
_cell_angle_beta   75.06354463
_cell_angle_gamma   96.79627814
_symmetry_Int_Tables_number   1
_chemical_formula_structural   RbBa3(BeP)8
_chemical_formula_sum   'Rb1 Ba3 Be8 P8'
_cell_volume   366.62332364
_cell_formula_units_Z   1
loop_
 _symmetry_equiv_pos_site_id
 _symmetry_equiv_pos_as_xyz
  1  'x, y, z'
loop_
 _atom_site_type_symbol
 _atom_site_label
 _atom_site_symmetry_multiplicity
 _atom_site_fract_x
 _atom_site_fract_y
 _atom_site_fract_z
 _atom_site_occupancy
  Rb  Rb0  1  0.00000000  0.00000000  0.00000000  1
  Ba  Ba0  1  0.99911467  0.48413193  0.75830540  1
  Ba  Ba1  1  0.00000000  0.00000000  0.50000000  1
  Ba  Ba2  1  0.00088533  0.51586807  0.24169460  1
  Be  Be0  1  0.50301181  0.62515718  0.31015010  1
  Be  Be1  1  0.49769295  0.62071688  0.81489165  1
  Be  Be2  1  0.49811803  0.12511284  0.06502830  1
  Be  Be3  1  0.49127951  0.12534179  0.56409556  1
  Be  Be4  1  0.49698819  0.37484282  0.68984990  1
  Be  Be5  1  0.50230705  0.37928312  0.18510835  1
  Be  Be6  1  0.50872049  0.87465821  0.43590444  1
  Be  Be7  1  0.50188197  0.87488716  0.93497170  1
  P  P0  1  0.30938663  0.33191696  0.50366724  1
  P  P1  1  0.30929492  0.32746695  0.01228775  1
  P  P2  1  0.31692977  0.82704038  0.25997299  1
  P  P3  1  0.31222439  0.82533936  0.75525530  1
  P  P4  1  0.69061337  0.66808304  0.49633276  1
  P  P5  1  0.69070508  0.67253305  0.98771225  1
  P  P6  1  0.68777561  0.17466064  0.24474470  1
  P  P7  1  0.68307023  0.17295962  0.74002701  1
loop_
_geom_bond_atom_site_label_1
_geom_bond_atom_site_label_2
_geom_bond_distance
_geom_bond_site_symmetry_2
Ba0 P0 3.271610 1_655
Ba0 P1 3.285561 1_656
Ba0 P6 3.286818 1_556
Ba0 P7 3.302928 1_555
Ba0 P4 3.364723 1_555
Ba0 P5 3.384104 1_555
Ba0 P3 3.388610 1_655
Ba0 P2 3.417890 1_655
Ba1 P1 3.323352 1_555
Ba1 P5 3.323352 1_445
Ba1 P3 3.339810 1_545
Ba1 P6 3.339810 1_455
Ba1 P0 3.342219 1_555
Ba1 P4 3.342219 1_445
Ba1 P7 3.365412 1_455
Ba1 P2 3.365412 1_545
Ba2 P4 3.271610 1_455
Ba2 P5 3.285561 1_454
Ba2 P3 3.286818 1_554
Ba2 P2 3.302928 1_555
Ba2 P0 3.364723 1_555
Ba2 P1 3.384104 1_555
Ba2 P6 3.388610 1_455
Ba2 P7 3.417890 1_455
Be0 P2 2.226424 1_555
Be0 P0 2.233954 1_555
Be0 P5 2.243371 1_554
Be0 P4 2.257879 1_555
Be1 P1 2.222327 1_556
Be1 P4 2.231466 1_555
Be1 P5 2.231928 1_555
Be1 P3 2.240117 1_555
Be2 P2 2.236901 1_545
Be2 P1 2.243511 1_555
Be2 P6 2.249140 1_555
Be2 P7 2.251934 1_554
Be3 P7 2.231382 1_555
Be3 P0 2.233679 1_555
Be3 P6 2.238750 1_555
Be3 P3 2.244974 1_545
Be4 P7 2.226424 1_555
Be4 P4 2.233954 1_555
Be4 P1 2.243371 1_556
Be4 P0 2.257879 1_555
Be5 P5 2.222327 1_554
Be5 P0 2.231466 1_555
Be5 P1 2.231928 1_555
Be5 P6 2.240117 1_555
Be6 P2 2.231382 1_555
Be6 P4 2.233679 1_555
Be6 P3 2.238750 1_555
Be6 P6 2.244974 1_565
Be7 P7 2.236901 1_565
Be7 P5 2.243511 1_555
Be7 P3 2.249140 1_555
Be7 P2 2.251934 1_556
P0 Rb0 3.368337 1_556
P1 Rb0 3.349331 1_555
P2 Rb0 3.384396 1_565
P3 Rb0 3.375654 1_566
P4 Rb0 3.368337 1_665
P5 Rb0 3.349331 1_666
P6 Rb0 3.375654 1_655
P7 Rb0 3.384396 1_656
