# generated using pymatgen
data_CsSrBO3
_symmetry_space_group_name_H-M   'P 1'
_cell_length_a   7.88550191
_cell_length_b   7.88550191
_cell_length_c   7.88550191
_cell_angle_alpha   90.00000000
_cell_angle_beta   90.00000000
_cell_angle_gamma   90.00000000
_symmetry_Int_Tables_number   1
_chemical_formula_structural   CsSrBO3
_chemical_formula_sum   'Cs4 Sr4 B4 O12'
_cell_volume   490.32950123
_cell_formula_units_Z   4
loop_
 _symmetry_equiv_pos_site_id
 _symmetry_equiv_pos_as_xyz
  1  'x, y, z'
loop_
 _atom_site_type_symbol
 _atom_site_label
 _atom_site_symmetry_multiplicity
 _atom_site_fract_x
 _atom_site_fract_y
 _atom_site_fract_z
 _atom_site_occupancy
  Cs  Cs0  1  0.63565110  0.13565110  0.36434890  1
  Cs  Cs1  1  0.13565110  0.36434890  0.63565110  1
  Cs  Cs2  1  0.36434890  0.63565110  0.13565110  1
  Cs  Cs3  1  0.86434890  0.86434890  0.86434890  1
  Sr  Sr0  1  0.64987768  0.35012232  0.85012232  1
  Sr  Sr1  1  0.14987768  0.14987768  0.14987768  1
  Sr  Sr2  1  0.85012232  0.64987768  0.35012232  1
  Sr  Sr3  1  0.35012232  0.85012232  0.64987768  1
  B  B0  1  0.57614387  0.57614387  0.57614387  1
  B  B1  1  0.42385613  0.07614387  0.92385613  1
  B  B2  1  0.07614387  0.92385613  0.42385613  1
  B  B3  1  0.92385613  0.42385613  0.07614387  1
  O  O0  1  0.53858195  0.06150136  0.79021781  1
  O  O1  1  0.20978219  0.03858195  0.43849864  1
  O  O2  1  0.56150136  0.70978219  0.46141805  1
  O  O3  1  0.03858195  0.43849864  0.20978219  1
  O  O4  1  0.70978219  0.46141805  0.56150136  1
  O  O5  1  0.06150136  0.79021781  0.53858195  1
  O  O6  1  0.46141805  0.56150136  0.70978219  1
  O  O7  1  0.79021781  0.53858195  0.06150136  1
  O  O8  1  0.43849864  0.20978219  0.03858195  1
  O  O9  1  0.96141805  0.93849864  0.29021781  1
  O  O10  1  0.29021781  0.96141805  0.93849864  1
  O  O11  1  0.93849864  0.29021781  0.96141805  1
loop_
_geom_bond_atom_site_label_1
_geom_bond_atom_site_label_2
_geom_bond_distance
_geom_bond_site_symmetry_2
Cs0 O9 3.059012 1_545
Cs0 O4 3.059012 1_555
Cs0 O8 3.059012 1_555
Cs0 O1 3.493597 1_555
Cs0 O2 3.493597 1_545
Cs0 O0 3.493597 1_555
Cs1 O11 3.059012 1_455
Cs1 O1 3.059012 1_555
Cs1 O6 3.059012 1_555
Cs1 O3 3.493597 1_555
Cs1 O4 3.493597 1_455
Cs1 O5 3.493597 1_555
Cs2 O2 3.059012 1_555
Cs2 O3 3.059012 1_555
Cs2 O10 3.059012 1_554
Cs2 O8 3.493597 1_555
Cs2 O6 3.493597 1_554
Cs2 O7 3.493597 1_555
Cs3 O0 3.059012 1_565
Cs3 O7 3.059012 1_556
Cs3 O5 3.059012 1_655
Cs3 O10 3.493597 1_655
Cs3 O11 3.493597 1_565
Cs3 O9 3.493597 1_556
B0 O6 1.393652 1_555
B0 O4 1.393652 1_555
B0 O2 1.393652 1_555
B1 O10 1.393652 1_545
B1 O8 1.393652 1_556
B1 O0 1.393652 1_555
B2 O1 1.393652 1_565
B2 O5 1.393652 1_555
B2 O9 1.393652 1_455
B3 O11 1.393652 1_554
B3 O3 1.393652 1_655
B3 O7 1.393652 1_555
O0 Sr0 2.484588 1_555
O0 Sr3 2.492286 1_545
O1 Sr1 2.484588 1_555
O1 Sr3 2.492286 1_545
O2 Sr2 2.484588 1_555
O2 Sr3 2.492286 1_555
O3 Sr1 2.484588 1_555
O3 Sr2 2.492286 1_455
O4 Sr0 2.484588 1_555
O4 Sr2 2.492286 1_555
O5 Sr3 2.484588 1_555
O5 Sr2 2.492286 1_455
O6 Sr3 2.484588 1_555
O6 Sr0 2.492286 1_555
O7 Sr2 2.484588 1_555
O7 Sr0 2.492286 1_554
O8 Sr1 2.484588 1_555
O8 Sr0 2.492286 1_554
O9 Sr2 2.484588 1_555
O9 Sr1 2.492286 1_665
O10 Sr3 2.484588 1_555
O10 Sr1 2.492286 1_566
O11 Sr0 2.484588 1_555
O11 Sr1 2.492286 1_656
