# generated using pymatgen
data_SrMn4Al2O12
_symmetry_space_group_name_H-M   'P 1'
_cell_length_a   7.91914522
_cell_length_b   7.91914528
_cell_length_c   9.32985324
_cell_angle_alpha   55.32544397
_cell_angle_beta   55.32544237
_cell_angle_gamma   65.14393301
_symmetry_Int_Tables_number   1
_chemical_formula_structural   SrMn4Al2O12
_chemical_formula_sum   'Sr2 Mn8 Al4 O24'
_cell_volume   391.66199941
_cell_formula_units_Z   2
loop_
 _symmetry_equiv_pos_site_id
 _symmetry_equiv_pos_as_xyz
  1  'x, y, z'
loop_
 _atom_site_type_symbol
 _atom_site_label
 _atom_site_symmetry_multiplicity
 _atom_site_fract_x
 _atom_site_fract_y
 _atom_site_fract_z
 _atom_site_occupancy
  Sr  Sr0  1  0.28023328  0.71976672  1.00000000  1
  Sr  Sr1  1  0.71976672  0.28023328  0.00000000  1
  Mn  Mn0  1  0.66962664  0.00221564  0.81885267  1
  Mn  Mn1  1  0.18751902  0.51963816  0.47588305  1
  Mn  Mn2  1  0.81248098  0.48036184  0.52411695  1
  Mn  Mn3  1  0.33037336  0.99778436  0.18114733  1
  Mn  Mn4  1  0.99778436  0.33037336  0.18114733  1
  Mn  Mn5  1  0.00221564  0.66962664  0.81885267  1
  Mn  Mn6  1  0.51963816  0.18751902  0.47588305  1
  Mn  Mn7  1  0.48036184  0.81248098  0.52411695  1
  Al  Al0  1  0.85621524  0.85621524  0.47375643  1
  Al  Al1  1  0.33743552  0.33743552  0.81670223  1
  Al  Al2  1  0.14378476  0.14378476  0.52624357  1
  Al  Al3  1  0.66256448  0.66256448  0.18329777  1
  O  O0  1  0.70344795  0.70344795  0.94043801  1
  O  O1  1  0.00736677  0.67319653  0.35132771  1
  O  O2  1  0.67319653  0.00736677  0.35132771  1
  O  O3  1  0.68636438  0.01865141  0.60534654  1
  O  O4  1  0.01865141  0.68636438  0.60534654  1
  O  O5  1  0.04297437  0.04297437  0.27436037  1
  O  O6  1  0.70896498  0.37570769  0.26818007  1
  O  O7  1  0.37570769  0.70896498  0.26818007  1
  O  O8  1  0.98134859  0.31363562  0.39465346  1
  O  O9  1  0.99263323  0.32680347  0.64867229  1
  O  O10  1  0.03957665  0.37298905  0.93907990  1
  O  O11  1  0.37298905  0.03957665  0.93907990  1
  O  O12  1  0.29655205  0.29655205  0.05956199  1
  O  O13  1  0.96042335  0.62701095  0.06092010  1
  O  O14  1  0.34099629  0.34099629  0.34921320  1
  O  O15  1  0.35551748  0.35551748  0.60335047  1
  O  O16  1  0.29103502  0.62429231  0.73181993  1
  O  O17  1  0.62429231  0.29103502  0.73181993  1
  O  O18  1  0.95702563  0.95702563  0.72563963  1
  O  O19  1  0.64448252  0.64448252  0.39664953  1
  O  O20  1  0.31363562  0.98134859  0.39465346  1
  O  O21  1  0.65900371  0.65900371  0.65078680  1
  O  O22  1  0.32680347  0.99263323  0.64867229  1
  O  O23  1  0.62701095  0.96042335  0.06092010  1
loop_
_geom_bond_atom_site_label_1
_geom_bond_atom_site_label_2
_geom_bond_distance
_geom_bond_site_symmetry_2
Mn0 O3 1.849749 1_555
Mn0 O18 1.865911 1_545
Mn0 O17 1.883542 1_555
Mn0 O11 1.912912 1_555
Mn0 O23 1.923597 1_546
Mn0 O0 1.927579 1_545
Mn1 O15 1.860490 1_555
Mn1 O4 1.866255 1_555
Mn1 O7 1.873681 1_555
Mn1 O9 1.913633 1_455
Mn1 O1 1.919515 1_555
Mn1 O14 1.922949 1_555
Mn2 O19 1.860490 1_555
Mn2 O8 1.866255 1_555
Mn2 O17 1.873681 1_555
Mn2 O1 1.913633 1_655
Mn2 O9 1.919515 1_555
Mn2 O21 1.922949 1_555
Mn3 O20 1.849749 1_555
Mn3 O5 1.865911 1_565
Mn3 O7 1.883542 1_555
Mn3 O23 1.912912 1_555
Mn3 O11 1.923597 1_564
Mn3 O12 1.927579 1_565
Mn4 O8 1.849749 1_555
Mn4 O5 1.865911 1_655
Mn4 O6 1.883542 1_555
Mn4 O13 1.912912 1_555
Mn4 O10 1.923597 1_654
Mn4 O12 1.927579 1_655
Mn5 O4 1.849749 1_555
Mn5 O18 1.865911 1_455
Mn5 O16 1.883542 1_555
Mn5 O10 1.912912 1_555
Mn5 O13 1.923597 1_456
Mn5 O0 1.927579 1_455
Mn6 O15 1.860490 1_555
Mn6 O3 1.866255 1_555
Mn6 O6 1.873681 1_555
Mn6 O22 1.913633 1_545
Mn6 O2 1.919515 1_555
Mn6 O14 1.922949 1_555
Mn7 O19 1.860490 1_555
Mn7 O20 1.866255 1_555
Mn7 O16 1.873681 1_555
Mn7 O2 1.913633 1_565
Mn7 O22 1.919515 1_555
Mn7 O21 1.922949 1_555
Al0 O5 1.847493 1_665
Al0 O3 1.853271 1_565
Al0 O4 1.853272 1_655
Al0 O1 1.925525 1_655
Al0 O2 1.925525 1_565
Al0 O21 1.945905 1_555
Al1 O15 1.836263 1_555
Al1 O17 1.872172 1_555
Al1 O16 1.872172 1_555
Al1 O10 1.920900 1_555
Al1 O11 1.920900 1_555
Al1 O12 1.939694 1_556
Al2 O18 1.847493 1_445
Al2 O20 1.853271 1_545
Al2 O8 1.853272 1_455
Al2 O9 1.925525 1_455
Al2 O22 1.925525 1_545
Al2 O14 1.945905 1_555
Al3 O19 1.836263 1_555
Al3 O7 1.872172 1_555
Al3 O6 1.872172 1_555
Al3 O13 1.920900 1_555
Al3 O23 1.920900 1_555
Al3 O0 1.939694 1_554
O0 Sr0 3.025972 1_555
O0 Sr1 3.025972 1_556
O1 Sr0 2.604774 1_554
O2 Sr1 2.604774 1_555
O6 Sr1 2.948555 1_555
O7 Sr0 2.948555 1_554
O9 Sr1 2.604774 1_556
O10 Sr1 2.593800 1_456
O11 Sr0 2.593800 1_545
O12 Sr1 3.025972 1_555
O12 Sr0 3.025972 1_554
O13 Sr0 2.593800 1_654
O14 Sr1 3.048722 1_555
O14 Sr0 3.048722 1_554
O16 Sr0 2.948555 1_555
O17 Sr1 2.948555 1_556
O21 Sr0 3.048722 1_555
O21 Sr1 3.048722 1_556
O22 Sr0 2.604774 1_555
O23 Sr1 2.593800 1_565
