# generated using pymatgen
data_Zr5Sn2BiB
_symmetry_space_group_name_H-M   'P 1'
_cell_length_a   8.60083135
_cell_length_b   8.57728573
_cell_length_c   5.83590518
_cell_angle_alpha   90.00000000
_cell_angle_beta   90.00000000
_cell_angle_gamma   119.90948801
_symmetry_Int_Tables_number   1
_chemical_formula_structural   Zr5Sn2BiB
_chemical_formula_sum   'Zr10 Sn4 Bi2 B2'
_cell_volume   373.18531729
_cell_formula_units_Z   2
loop_
 _symmetry_equiv_pos_site_id
 _symmetry_equiv_pos_as_xyz
  1  'x, y, z'
loop_
 _atom_site_type_symbol
 _atom_site_label
 _atom_site_symmetry_multiplicity
 _atom_site_fract_x
 _atom_site_fract_y
 _atom_site_fract_z
 _atom_site_occupancy
  Zr  Zr0  1  0.66908488  0.33518578  0.00320412  1
  Zr  Zr1  1  0.33091512  0.66610191  0.00320412  1
  Zr  Zr2  1  0.33091512  0.66610191  0.49679588  1
  Zr  Zr3  1  0.66908488  0.33518578  0.49679588  1
  Zr  Zr4  1  0.77487006  0.77025791  0.75000000  1
  Zr  Zr5  1  0.22512994  0.99538785  0.75000000  1
  Zr  Zr6  1  0.00000000  0.23037624  0.75000000  1
  Zr  Zr7  1  0.22961212  0.23038286  0.25000000  1
  Zr  Zr8  1  0.77038788  0.00077073  0.25000000  1
  Zr  Zr9  1  1.00000000  0.76870073  0.25000000  1
  Sn  Sn0  1  1.00000000  0.59704619  0.75000000  1
  Sn  Sn1  1  0.60224343  0.60293835  0.25000000  1
  Sn  Sn2  1  0.39775657  0.00069492  0.25000000  1
  Sn  Sn3  1  0.00000000  0.40047621  0.25000000  1
  Bi  Bi0  1  0.40106195  0.40034652  0.75000000  1
  Bi  Bi1  1  0.59893805  0.99928457  0.75000000  1
  B  B0  1  0.00000000  0.00038077  0.00101533  1
  B  B1  1  0.00000000  0.00038077  0.49898467  1
loop_
_geom_bond_atom_site_label_1
_geom_bond_atom_site_label_2
_geom_bond_distance
_geom_bond_site_symmetry_2
Sn0 Zr5 2.970758 1_655
Sn0 Zr4 2.970759 1_555
Sn0 Zr1 2.992275 1_656
Sn0 Zr2 2.992275 1_655
Sn0 Zr0 2.992277 1_556
Sn0 Zr3 2.992277 1_555
Sn0 Zr6 3.145033 1_655
Sn0 Zr9 3.268364 1_556
Sn0 Zr9 3.268364 1_555
Sn1 Zr8 2.968847 1_565
Sn1 Zr9 2.978976 1_555
Sn1 Zr3 2.999317 1_555
Sn1 Zr0 2.999317 1_555
Sn1 Zr2 3.012421 1_555
Sn1 Zr1 3.012421 1_555
Sn1 Zr7 3.204615 1_555
Sn1 Zr4 3.263978 1_555
Sn1 Zr4 3.263978 1_554
Sn2 Zr7 2.968848 1_555
Sn2 Zr9 2.978976 1_445
Sn2 Zr2 2.999310 1_545
Sn2 Zr1 2.999310 1_545
Sn2 Zr3 3.012415 1_555
Sn2 Zr0 3.012415 1_555
Sn2 Zr8 3.204615 1_555
Sn2 Zr5 3.263978 1_544
Sn2 Zr5 3.263978 1_545
Sn3 Zr3 2.983125 1_455
Sn3 Zr0 2.983125 1_455
Sn3 Zr2 2.983128 1_555
Sn3 Zr1 2.983128 1_555
Sn3 Zr8 2.983599 1_455
Sn3 Zr7 2.983599 1_555
Sn3 Zr9 3.158367 1_455
Sn3 Zr6 3.262379 1_554
Sn3 Zr6 3.262379 1_555
Bi0 Zr6 3.001514 1_555
Bi0 Zr0 3.015759 1_556
Bi0 Zr3 3.015759 1_555
Bi0 Zr5 3.018773 1_545
Bi0 Zr1 3.019096 1_556
Bi0 Zr2 3.019096 1_555
Bi0 Zr4 3.198526 1_555
Bi0 Zr7 3.266549 1_556
Bi0 Zr7 3.266549 1_555
Bi1 Zr6 3.001514 1_665
Bi1 Zr1 3.015754 1_556
Bi1 Zr2 3.015754 1_555
Bi1 Zr4 3.018773 1_555
Bi1 Zr0 3.019088 1_566
Bi1 Zr3 3.019088 1_565
Bi1 Zr5 3.198526 1_555
Bi1 Zr8 3.266549 1_566
Bi1 Zr8 3.266549 1_565
B0 Zr4 2.445351 1_444
B0 Zr5 2.445351 1_544
B0 Zr7 2.453163 1_555
B0 Zr8 2.453163 1_455
B0 Zr6 2.457158 1_554
B0 Zr9 2.461761 1_445
B1 Zr4 2.445351 1_445
B1 Zr5 2.445351 1_545
B1 Zr7 2.453163 1_555
B1 Zr8 2.453163 1_455
B1 Zr6 2.457158 1_555
B1 Zr9 2.461761 1_445
