# generated using pymatgen
data_Nb16CoCu7N4
_symmetry_space_group_name_H-M   'P 1'
_cell_length_a   8.26913215
_cell_length_b   8.26913142
_cell_length_c   8.26913132
_cell_angle_alpha   60.12484543
_cell_angle_beta   60.12484753
_cell_angle_gamma   60.12484656
_symmetry_Int_Tables_number   1
_chemical_formula_structural   Nb16CoCu7N4
_chemical_formula_sum   'Nb16 Co1 Cu7 N4'
_cell_volume   400.95101678
_cell_formula_units_Z   1
loop_
 _symmetry_equiv_pos_site_id
 _symmetry_equiv_pos_as_xyz
  1  'x, y, z'
loop_
 _atom_site_type_symbol
 _atom_site_label
 _atom_site_symmetry_multiplicity
 _atom_site_fract_x
 _atom_site_fract_y
 _atom_site_fract_z
 _atom_site_occupancy
  Nb  Nb0  1  0.11985598  0.63114557  0.63114557  1
  Nb  Nb1  1  0.63114557  0.11985598  0.63114557  1
  Nb  Nb2  1  0.63114557  0.63114557  0.11985598  1
  Nb  Nb3  1  0.62484312  0.62484312  0.62484312  1
  Nb  Nb4  1  0.81578051  0.81578051  0.18130982  1
  Nb  Nb5  1  0.18518128  0.18518128  0.81508872  1
  Nb  Nb6  1  0.81578051  0.18130982  0.81578051  1
  Nb  Nb7  1  0.18518128  0.81508872  0.18518128  1
  Nb  Nb8  1  0.18130982  0.81578051  0.81578051  1
  Nb  Nb9  1  0.81508872  0.18518128  0.18518128  1
  Nb  Nb10  1  0.43596351  0.43596351  0.06521991  1
  Nb  Nb11  1  0.06610037  0.06610037  0.43343058  1
  Nb  Nb12  1  0.43596351  0.06521991  0.43596351  1
  Nb  Nb13  1  0.06610037  0.43343058  0.06610037  1
  Nb  Nb14  1  0.06521991  0.43596351  0.43596351  1
  Nb  Nb15  1  0.43343058  0.06610037  0.06610037  1
  Co  Co0  1  0.82534910  0.82534910  0.82534910  1
  Cu  Cu0  1  0.74847443  0.41727418  0.41727418  1
  Cu  Cu1  1  0.41727418  0.74847443  0.41727418  1
  Cu  Cu2  1  0.41727418  0.41727418  0.74847443  1
  Cu  Cu3  1  0.41819741  0.41819741  0.41819741  1
  Cu  Cu4  1  0.50039159  0.83243864  0.83243864  1
  Cu  Cu5  1  0.83243864  0.50039159  0.83243864  1
  Cu  Cu6  1  0.83243864  0.83243864  0.50039159  1
  N  N0  1  0.62409172  0.12549345  0.12549345  1
  N  N1  1  0.12549345  0.62409172  0.12549345  1
  N  N2  1  0.12549345  0.12549345  0.62409172  1
  N  N3  1  0.12499265  0.12499265  0.12499265  1
loop_
_geom_bond_atom_site_label_1
_geom_bond_atom_site_label_2
_geom_bond_distance
_geom_bond_site_symmetry_2
Co0 Nb1 2.421887 1_565
Co0 Nb2 2.421887 1_556
Co0 Nb0 2.421887 1_655
Co0 Cu6 2.630023 1_555
Co0 Cu5 2.630023 1_555
Co0 Cu4 2.630023 1_555
Co0 Nb4 2.866850 1_556
Co0 Nb6 2.866850 1_565
Co0 Nb8 2.866850 1_655
Co0 Nb13 3.085923 1_656
Co0 Nb11 3.085923 1_665
Co0 Nb15 3.085923 1_566
Cu0 Nb3 2.525084 1_555
Cu0 Nb2 2.540132 1_555
Cu0 Nb1 2.540132 1_555
Cu0 Cu3 2.723520 1_555
Cu0 Cu1 2.743905 1_555
Cu0 Cu2 2.743905 1_555
Cu0 Nb11 2.777366 1_655
Cu0 Nb13 2.777366 1_655
Cu0 Nb14 2.781787 1_655
Cu0 Nb9 3.038619 1_555
Cu0 Nb6 3.052163 1_555
Cu0 Nb4 3.052163 1_555
Cu1 Nb3 2.525084 1_555
Cu1 Nb2 2.540132 1_555
Cu1 Nb0 2.540132 1_555
Cu1 Cu3 2.723520 1_555
Cu1 Cu2 2.743905 1_555
Cu1 Nb15 2.777366 1_565
Cu1 Nb11 2.777366 1_565
Cu1 Nb12 2.781786 1_565
Cu1 Nb7 3.038619 1_555
Cu1 Nb8 3.052163 1_555
Cu1 Nb4 3.052163 1_555
Cu2 Nb3 2.525084 1_555
Cu2 Nb1 2.540132 1_555
Cu2 Nb0 2.540132 1_555
Cu2 Cu3 2.723520 1_555
Cu2 Nb15 2.777366 1_556
Cu2 Nb13 2.777366 1_556
Cu2 Nb10 2.781786 1_556
Cu2 Nb5 3.038619 1_555
Cu2 Nb8 3.052163 1_555
Cu2 Nb6 3.052163 1_555
Cu3 Nb1 2.592534 1_555
Cu3 Nb2 2.592534 1_555
Cu3 Nb0 2.592534 1_555
Cu3 Nb10 2.780250 1_555
Cu3 Nb12 2.780250 1_555
Cu3 Nb14 2.780251 1_555
Cu3 Nb7 3.048850 1_555
Cu3 Nb5 3.048850 1_555
Cu3 Nb9 3.048850 1_555
Cu4 Nb3 2.523604 1_555
Cu4 Nb2 2.532652 1_556
Cu4 Nb1 2.532652 1_565
Cu4 Cu5 2.750921 1_555
Cu4 Cu6 2.750921 1_555
Cu4 Nb5 2.775633 1_565
Cu4 Nb7 2.775633 1_556
Cu4 Nb8 2.782598 1_555
Cu4 Nb12 3.028059 1_565
Cu4 Nb10 3.028059 1_556
Cu4 Nb15 3.059542 1_566
Cu5 Nb3 2.523604 1_555
Cu5 Nb2 2.532652 1_556
Cu5 Nb0 2.532653 1_655
Cu5 Cu6 2.750920 1_555
Cu5 Nb9 2.775633 1_556
Cu5 Nb5 2.775633 1_655
Cu5 Nb6 2.782597 1_555
Cu5 Nb14 3.028059 1_655
Cu5 Nb10 3.028059 1_556
Cu5 Nb13 3.059542 1_656
Cu6 Nb3 2.523604 1_555
Cu6 Nb1 2.532652 1_565
Cu6 Nb0 2.532653 1_655
Cu6 Nb9 2.775633 1_565
Cu6 Nb7 2.775633 1_655
Cu6 Nb4 2.782597 1_555
Cu6 Nb14 3.028059 1_655
Cu6 Nb12 3.028059 1_565
Cu6 Nb11 3.059542 1_665
N0 Nb15 2.179718 1_555
N0 Nb9 2.185752 1_555
N0 Nb10 2.185978 1_555
N0 Nb12 2.185978 1_555
N0 Nb4 2.188979 1_545
N0 Nb6 2.188979 1_554
N1 Nb13 2.179718 1_555
N1 Nb7 2.185752 1_555
N1 Nb14 2.185978 1_555
N1 Nb10 2.185978 1_555
N1 Nb8 2.188979 1_554
N1 Nb4 2.188980 1_455
N2 Nb11 2.179718 1_555
N2 Nb5 2.185752 1_555
N2 Nb14 2.185978 1_555
N2 Nb12 2.185978 1_555
N2 Nb8 2.188979 1_545
N2 Nb6 2.188980 1_455
N3 Nb11 2.177370 1_555
N3 Nb13 2.177370 1_555
N3 Nb15 2.177370 1_555
N3 Nb5 2.183587 1_554
N3 Nb7 2.183587 1_545
N3 Nb9 2.183588 1_455
