# generated using pymatgen
data_Ta2Al3Au
_symmetry_space_group_name_H-M   'P 1'
_cell_length_a   5.05896176
_cell_length_b   5.05896142
_cell_length_c   5.05896253
_cell_angle_alpha   61.55773761
_cell_angle_beta   61.55774448
_cell_angle_gamma   61.55773903
_symmetry_Int_Tables_number   1
_chemical_formula_structural   Ta2Al3Au
_chemical_formula_sum   'Ta2 Al3 Au1'
_cell_volume   94.75233049
_cell_formula_units_Z   1
loop_
 _symmetry_equiv_pos_site_id
 _symmetry_equiv_pos_as_xyz
  1  'x, y, z'
loop_
 _atom_site_type_symbol
 _atom_site_label
 _atom_site_symmetry_multiplicity
 _atom_site_fract_x
 _atom_site_fract_y
 _atom_site_fract_z
 _atom_site_occupancy
  Ta  Ta0  1  0.38003062  0.38003062  0.38003062  1
  Ta  Ta1  1  0.61996938  0.61996938  0.61996938  1
  Al  Al0  1  0.50000000  0.00000000  0.00000000  1
  Al  Al1  1  0.00000000  0.00000000  0.50000000  1
  Al  Al2  1  0.00000000  0.50000000  0.00000000  1
  Au  Au0  1  0.00000000  0.00000000  0.00000000  1
loop_
_geom_bond_atom_site_label_1
_geom_bond_atom_site_label_2
_geom_bond_distance
_geom_bond_site_symmetry_2
Ta0 Ta1 2.937806 1_555
Ta0 Ta1 3.200547 1_545
Ta0 Ta1 3.200548 1_455
Ta0 Ta1 3.200548 1_554
Al0 Au0 2.529481 1_555
Al0 Au0 2.529481 1_655
Al0 Al2 2.588802 1_645
Al0 Al2 2.588802 1_555
Al0 Al1 2.588803 1_555
Al0 Al1 2.588803 1_654
Al0 Ta1 2.976503 1_554
Al0 Ta0 2.976503 1_545
Al0 Ta1 2.976504 1_545
Al0 Ta0 2.976504 1_554
Al0 Ta0 3.009772 1_555
Al0 Ta1 3.009772 1_544
Al1 Au0 2.529481 1_556
Al1 Au0 2.529481 1_555
Al1 Al2 2.588803 1_555
Al1 Al2 2.588803 1_546
Al1 Ta1 2.976504 1_455
Al1 Ta0 2.976504 1_545
Al1 Ta1 2.976504 1_545
Al1 Ta0 2.976504 1_455
Al1 Ta0 3.009772 1_555
Al1 Ta1 3.009772 1_445
Al2 Au0 2.529481 1_565
Al2 Au0 2.529481 1_555
Al2 Ta1 2.976504 1_554
Al2 Ta0 2.976504 1_455
Al2 Ta1 2.976504 1_455
Al2 Ta0 2.976504 1_554
Al2 Ta0 3.009772 1_555
Al2 Ta1 3.009772 1_454
Au0 Ta0 3.043481 1_545
Au0 Ta1 3.043481 1_454
Au0 Ta0 3.043481 1_455
Au0 Ta1 3.043481 1_544
Au0 Ta0 3.043481 1_554
Au0 Ta1 3.043481 1_445
