# generated using pymatgen
data_Hf10Be2Sn5Bi
_symmetry_space_group_name_H-M   'P 1'
_cell_length_a   8.52815133
_cell_length_b   8.50629178
_cell_length_c   5.75408430
_cell_angle_alpha   90.00000000
_cell_angle_beta   90.00000000
_cell_angle_gamma   120.08491146
_symmetry_Int_Tables_number   1
_chemical_formula_structural   Hf10Be2Sn5Bi
_chemical_formula_sum   'Hf10 Be2 Sn5 Bi1'
_cell_volume   361.18507559
_cell_formula_units_Z   1
loop_
 _symmetry_equiv_pos_site_id
 _symmetry_equiv_pos_as_xyz
  1  'x, y, z'
loop_
 _atom_site_type_symbol
 _atom_site_label
 _atom_site_symmetry_multiplicity
 _atom_site_fract_x
 _atom_site_fract_y
 _atom_site_fract_z
 _atom_site_occupancy
  Hf  Hf0  1  0.33071880  0.66328353  0.99739078  1
  Hf  Hf1  1  0.66743527  0.33671547  0.50260922  1
  Hf  Hf2  1  0.66743527  0.33671547  0.99739078  1
  Hf  Hf3  1  0.33071880  0.66328353  0.50260922  1
  Hf  Hf4  1  0.23718500  1.00000000  0.25000000  1
  Hf  Hf5  1  0.25562903  0.25704903  0.75000000  1
  Hf  Hf6  1  0.99858000  0.74295097  0.75000000  1
  Hf  Hf7  1  0.00657867  0.24447155  0.25000000  1
  Hf  Hf8  1  0.76210611  0.75552645  0.25000000  1
  Hf  Hf9  1  0.74429732  0.00000200  0.75000000  1
  Be  Be0  1  0.99961204  1.00000000  0.97553953  1
  Be  Be1  1  0.99961204  1.00000000  0.52446047  1
  Sn  Sn0  1  0.61088736  0.61250212  0.75000000  1
  Sn  Sn1  1  0.99838524  0.38749888  0.75000000  1
  Sn  Sn2  1  0.00114737  0.60328915  0.25000000  1
  Sn  Sn3  1  0.39785622  0.39670985  0.25000000  1
  Sn  Sn4  1  0.38587292  1.00000000  0.75000000  1
  Bi  Bi0  1  0.60594255  0.99999900  0.25000000  1
loop_
_geom_bond_atom_site_label_1
_geom_bond_atom_site_label_2
_geom_bond_distance
_geom_bond_site_symmetry_2
Hf0 Sn2 2.972346 1_556
Hf0 Sn3 2.980608 1_556
Hf0 Sn1 2.982697 1_455
Hf0 Sn0 2.992751 1_555
Hf0 Sn4 3.016725 1_555
Hf1 Sn3 2.972358 1_555
Hf1 Sn2 2.980618 1_655
Hf1 Sn0 2.982701 1_555
Hf1 Sn1 2.992747 1_555
Hf1 Sn4 3.016724 1_545
Hf2 Sn3 2.972358 1_556
Hf2 Sn2 2.980618 1_656
Hf2 Sn0 2.982701 1_555
Hf2 Sn1 2.992747 1_555
Hf2 Sn4 3.016724 1_545
Hf3 Sn2 2.972346 1_555
Hf3 Sn3 2.980608 1_555
Hf3 Sn1 2.982697 1_455
Hf3 Sn0 2.992751 1_555
Hf3 Sn4 3.016725 1_555
Hf4 Sn3 2.937556 1_565
Hf4 Sn2 2.937564 1_555
Hf4 Sn4 3.144086 1_554
Hf4 Sn4 3.144086 1_555
Hf5 Sn4 2.906815 1_545
Hf5 Sn1 2.912856 1_455
Hf5 Sn0 3.022762 1_555
Hf5 Sn3 3.116931 1_555
Hf5 Sn3 3.116931 1_556
Hf6 Sn4 2.906822 1_655
Hf6 Sn0 2.912854 1_555
Hf6 Sn1 3.022747 1_555
Hf6 Sn2 3.116935 1_656
Hf6 Sn2 3.116935 1_655
Hf7 Sn3 2.911946 1_555
Hf7 Sn2 3.075687 1_555
Hf7 Sn1 3.138101 1_454
Hf7 Sn1 3.138101 1_455
Hf8 Sn2 2.911950 1_655
Hf8 Sn3 3.075694 1_555
Hf8 Sn0 3.138094 1_555
Hf8 Sn0 3.138094 1_554
Hf9 Sn1 2.898165 1_555
Hf9 Sn0 2.898185 1_545
Hf9 Sn4 3.056689 1_545
Be0 Hf9 2.534790 1_565
Be0 Hf6 2.538884 1_555
Be0 Hf5 2.538888 1_665
Be0 Hf4 2.568852 1_656
Be0 Hf7 2.588101 1_666
Be0 Hf8 2.588114 1_556
Be1 Hf9 2.534790 1_565
Be1 Hf6 2.538884 1_555
Be1 Hf5 2.538888 1_665
Be1 Hf4 2.568852 1_655
Be1 Hf7 2.588101 1_665
Be1 Hf8 2.588114 1_555
Bi0 Hf8 2.979066 1_555
Bi0 Hf7 2.979072 1_665
Bi0 Hf3 3.014227 1_555
Bi0 Hf0 3.014227 1_554
Bi0 Hf1 3.014228 1_565
Bi0 Hf2 3.014228 1_564
Bi0 Hf9 3.109587 1_565
Bi0 Hf9 3.109587 1_564
Bi0 Hf4 3.144824 1_555
