# generated using pymatgen
data_Ba2VSbF14
_symmetry_space_group_name_H-M   'P 1'
_cell_length_a   4.78979331
_cell_length_b   7.55704348
_cell_length_c   7.72837561
_cell_angle_alpha   107.29855782
_cell_angle_beta   102.84345474
_cell_angle_gamma   90.19210278
_symmetry_Int_Tables_number   1
_chemical_formula_structural   Ba2VSbF14
_chemical_formula_sum   'Ba2 V1 Sb1 F14'
_cell_volume   259.68030092
_cell_formula_units_Z   1
loop_
 _symmetry_equiv_pos_site_id
 _symmetry_equiv_pos_as_xyz
  1  'x, y, z'
loop_
 _atom_site_type_symbol
 _atom_site_label
 _atom_site_symmetry_multiplicity
 _atom_site_fract_x
 _atom_site_fract_y
 _atom_site_fract_z
 _atom_site_occupancy
  Ba  Ba0  1  0.16345732  0.33804468  0.76836724  1
  Ba  Ba1  1  0.84131692  0.65469152  0.22293177  1
  V  V0  1  0.35196595  0.18167458  0.28412062  1
  Sb  Sb0  1  0.64644876  0.81811394  0.71759133  1
  F  F0  1  0.12413094  0.18355073  0.06981605  1
  F  F1  1  0.40848907  0.80314825  0.48030424  1
  F  F2  1  0.57935099  0.19664403  0.50994739  1
  F  F3  1  0.51293681  0.04970958  0.82747230  1
  F  F4  1  0.48475263  0.96583956  0.18309827  1
  F  F5  1  0.35044048  0.69063569  0.76822574  1
  F  F6  1  0.88979679  0.82110787  0.94654486  1
  F  F7  1  0.29334013  0.56635461  0.10167776  1
  F  F8  1  0.07762470  0.05891119  0.34021325  1
  F  F9  1  0.21087780  0.39587280  0.40255489  1
  F  F10  1  0.71298071  0.43087780  0.89046056  1
  F  F11  1  0.78917038  0.59242480  0.59194618  1
  F  F12  1  0.62875171  0.30765358  0.24095867  1
  F  F13  1  0.93416892  0.94474578  0.65376789  1
loop_
_geom_bond_atom_site_label_1
_geom_bond_atom_site_label_2
_geom_bond_distance
_geom_bond_site_symmetry_2
Ba0 F10 2.561202 1_455
Ba0 F7 2.576164 1_556
Ba0 F10 2.607734 1_555
Ba0 F5 2.808574 1_555
Ba0 F3 2.834611 1_555
Ba0 F0 2.938932 1_556
Ba0 F13 2.967254 1_445
Ba0 F2 3.030611 1_455
Ba0 F9 3.042174 1_555
Ba0 F11 3.043616 1_455
Ba0 F2 3.100418 1_555
Ba0 F8 3.287271 1_555
Ba1 F10 2.558720 1_554
Ba1 F7 2.559513 1_655
Ba1 F7 2.595297 1_555
Ba1 F6 2.830937 1_554
Ba1 F12 2.862936 1_555
Ba1 F4 2.960430 1_555
Ba1 F1 2.974111 1_655
Ba1 F8 3.050905 1_665
Ba1 F9 3.071069 1_655
Ba1 F11 3.087231 1_555
Ba1 F1 3.167776 1_555
Ba1 F13 3.329237 1_555
F0 V0 1.773336 1_555
F1 Sb0 1.903003 1_555
F2 V0 1.811539 1_555
F3 Sb0 1.886340 1_545
F4 V0 1.773381 1_565
F5 Sb0 1.884966 1_555
F6 Sb0 1.883912 1_555
F8 V0 1.805422 1_555
F9 V0 1.820957 1_555
F11 Sb0 1.907124 1_555
F12 V0 1.775453 1_555
F13 Sb0 1.905876 1_555
