# generated using pymatgen
data_Dy5Bi3
_symmetry_space_group_name_H-M   'P 1'
_cell_length_a   8.23636724
_cell_length_b   9.46108646
_cell_length_c   12.03281098
_cell_angle_alpha   90.00000000
_cell_angle_beta   90.00000000
_cell_angle_gamma   90.00000000
_symmetry_Int_Tables_number   1
_chemical_formula_structural   Dy5Bi3
_chemical_formula_sum   'Dy20 Bi12'
_cell_volume   937.65658593
_cell_formula_units_Z   4
loop_
 _symmetry_equiv_pos_site_id
 _symmetry_equiv_pos_as_xyz
  1  'x, y, z'
loop_
 _atom_site_type_symbol
 _atom_site_label
 _atom_site_symmetry_multiplicity
 _atom_site_fract_x
 _atom_site_fract_y
 _atom_site_fract_z
 _atom_site_occupancy
  Dy  Dy0  1  0.35497946  0.75000000  0.21469397  1
  Dy  Dy1  1  0.85497946  0.75000000  0.28530603  1
  Dy  Dy2  1  0.64502054  0.25000000  0.78530603  1
  Dy  Dy3  1  0.14502054  0.25000000  0.71469397  1
  Dy  Dy4  1  0.69397541  0.56363902  0.05900497  1
  Dy  Dy5  1  0.19397541  0.93636098  0.44099503  1
  Dy  Dy6  1  0.30602459  0.06363902  0.94099503  1
  Dy  Dy7  1  0.80602459  0.43636098  0.55900497  1
  Dy  Dy8  1  0.30602459  0.43636098  0.94099503  1
  Dy  Dy9  1  0.80602459  0.06363902  0.55900497  1
  Dy  Dy10  1  0.69397541  0.93636098  0.05900497  1
  Dy  Dy11  1  0.19397541  0.56363902  0.44099503  1
  Dy  Dy12  1  0.47528908  0.25000000  0.48821865  1
  Dy  Dy13  1  0.97528908  0.25000000  0.01178135  1
  Dy  Dy14  1  0.52471092  0.75000000  0.51178135  1
  Dy  Dy15  1  0.02471092  0.75000000  0.98821865  1
  Dy  Dy16  1  0.31481481  0.25000000  0.21849110  1
  Dy  Dy17  1  0.81481481  0.25000000  0.28150890  1
  Dy  Dy18  1  0.68518519  0.75000000  0.78150890  1
  Dy  Dy19  1  0.18518519  0.75000000  0.71849110  1
  Bi  Bi0  1  0.40875175  0.75000000  0.95821096  1
  Bi  Bi1  1  0.90875175  0.75000000  0.54178904  1
  Bi  Bi2  1  0.59124825  0.25000000  0.04178904  1
  Bi  Bi3  1  0.09124825  0.25000000  0.45821096  1
  Bi  Bi4  1  0.56626059  0.99570251  0.32603413  1
  Bi  Bi5  1  0.06626059  0.50429749  0.17396587  1
  Bi  Bi6  1  0.43373941  0.49570251  0.67396587  1
  Bi  Bi7  1  0.93373941  0.00429749  0.82603413  1
  Bi  Bi8  1  0.43373941  0.00429749  0.67396587  1
  Bi  Bi9  1  0.93373941  0.49570251  0.82603413  1
  Bi  Bi10  1  0.56626059  0.50429749  0.32603413  1
  Bi  Bi11  1  0.06626059  0.99570251  0.17396587  1
loop_
_geom_bond_atom_site_label_1
_geom_bond_atom_site_label_2
_geom_bond_distance
_geom_bond_site_symmetry_2
Dy0 Dy11 3.504603 1_555
Dy0 Dy5 3.504603 1_555
Dy0 Dy4 3.796594 1_555
Dy0 Dy10 3.796594 1_555
Dy0 Dy14 3.838423 1_555
Dy0 Dy15 3.850444 1_554
Dy1 Dy4 3.504603 1_555
Dy1 Dy10 3.504603 1_555
Dy1 Dy5 3.796594 1_655
Dy1 Dy11 3.796594 1_655
Dy1 Dy15 3.838423 1_654
Dy1 Dy14 3.850444 1_555
Dy2 Dy7 3.504603 1_555
Dy2 Dy9 3.504603 1_555
Dy2 Dy8 3.796594 1_555
Dy2 Dy6 3.796594 1_555
Dy3 Dy8 3.504603 1_555
Dy3 Dy6 3.504603 1_555
Dy3 Dy9 3.796594 1_455
Dy3 Dy7 3.796594 1_455
Dy4 Dy8 3.698165 1_554
Dy5 Dy9 3.698165 1_465
Dy6 Dy8 3.526355 1_555
Dy7 Dy9 3.526355 1_555
Dy10 Dy15 3.354815 1_654
Dy10 Dy4 3.526355 1_555
Dy10 Dy6 3.698165 1_564
Dy10 Dy18 3.776684 1_554
Dy10 Dy13 3.807447 1_565
Dy11 Dy14 3.354815 1_555
Dy11 Dy5 3.526355 1_555
Dy11 Dy7 3.698165 1_455
Dy11 Dy19 3.776684 1_555
Dy11 Dy12 3.807447 1_555
Dy12 Dy9 3.354815 1_555
Dy12 Dy7 3.354815 1_555
Dy12 Dy16 3.504390 1_555
Dy12 Dy17 3.742571 1_555
Dy12 Dy5 3.807447 1_545
Dy12 Dy2 3.838423 1_555
Dy12 Dy3 3.850444 1_555
Dy13 Dy8 3.354815 1_654
Dy13 Dy6 3.354815 1_654
Dy13 Dy17 3.504390 1_555
Dy13 Dy16 3.742571 1_655
Dy13 Dy4 3.807447 1_555
Dy13 Dy3 3.838423 1_654
Dy13 Dy2 3.850444 1_554
Dy14 Dy5 3.354815 1_555
Dy14 Dy18 3.504390 1_555
Dy14 Dy19 3.742571 1_555
Dy14 Dy7 3.807447 1_555
Dy14 Dy9 3.807447 1_565
Dy15 Dy4 3.354815 1_456
Dy15 Dy19 3.504390 1_555
Dy15 Dy18 3.742571 1_455
Dy15 Dy8 3.807447 1_555
Dy15 Dy6 3.807447 1_565
Dy16 Dy6 3.776684 1_554
Dy16 Dy8 3.776684 1_554
Dy17 Dy7 3.776684 1_555
Dy17 Dy9 3.776684 1_555
Dy18 Dy4 3.776684 1_556
Dy19 Dy5 3.776684 1_555
Bi0 Dy8 3.092581 1_555
Bi0 Dy6 3.092581 1_565
Bi0 Dy18 3.115233 1_555
Bi0 Dy0 3.117828 1_556
Bi0 Dy4 3.177819 1_556
Bi0 Dy10 3.177819 1_556
Bi0 Dy15 3.183644 1_555
Bi0 Dy19 3.422138 1_555
Bi1 Dy7 3.092581 1_555
Bi1 Dy9 3.092581 1_565
Bi1 Dy19 3.115233 1_655
Bi1 Dy1 3.117828 1_555
Bi1 Dy11 3.177819 1_655
Bi1 Dy5 3.177819 1_655
Bi1 Dy14 3.183644 1_555
Bi1 Dy18 3.422138 1_555
Bi2 Dy10 3.092581 1_545
Bi2 Dy4 3.092581 1_555
Bi2 Dy16 3.115233 1_555
Bi2 Dy2 3.117828 1_554
Bi2 Dy8 3.177819 1_554
Bi2 Dy6 3.177819 1_554
Bi2 Dy13 3.183644 1_555
Bi2 Dy17 3.422138 1_555
Bi3 Dy11 3.092581 1_555
Bi3 Dy5 3.092581 1_545
Bi3 Dy17 3.115233 1_455
Bi3 Dy3 3.117828 1_555
Bi3 Dy9 3.177819 1_455
Bi3 Dy7 3.177819 1_455
Bi3 Dy12 3.183644 1_555
Bi3 Dy16 3.422138 1_555
Bi4 Dy12 3.187225 1_565
Bi4 Dy0 3.197964 1_555
Bi4 Dy17 3.204139 1_565
Bi4 Dy14 3.242905 1_555
Bi4 Dy1 3.361377 1_555
Bi4 Dy5 3.410395 1_555
Bi4 Dy10 3.427215 1_555
Bi4 Dy16 3.428133 1_565
Bi4 Dy9 3.488748 1_565
Bi5 Dy13 3.187225 1_455
Bi5 Dy1 3.197964 1_455
Bi5 Dy16 3.204139 1_555
Bi5 Dy15 3.242905 1_554
Bi5 Dy0 3.361377 1_555
Bi5 Dy4 3.410395 1_455
Bi5 Dy11 3.427215 1_555
Bi5 Dy17 3.428133 1_455
Bi5 Dy8 3.488748 1_554
Bi6 Dy14 3.187225 1_555
Bi6 Dy2 3.197964 1_555
Bi6 Dy19 3.204139 1_555
Bi6 Dy12 3.242905 1_555
Bi6 Dy3 3.361377 1_555
Bi6 Dy7 3.410395 1_555
Bi6 Dy8 3.427215 1_555
Bi6 Dy18 3.428133 1_555
Bi6 Dy11 3.488748 1_555
Bi7 Dy15 3.187225 1_645
Bi7 Dy3 3.197964 1_655
Bi7 Dy18 3.204139 1_545
Bi7 Dy13 3.242905 1_556
Bi7 Dy2 3.361377 1_555
Bi7 Dy6 3.410395 1_655
Bi7 Dy9 3.427215 1_555
Bi7 Dy19 3.428133 1_645
Bi7 Dy10 3.488748 1_546
Bi8 Dy14 3.187225 1_545
Bi8 Dy2 3.197964 1_555
Bi8 Dy19 3.204139 1_545
Bi8 Dy12 3.242905 1_555
Bi8 Dy3 3.361377 1_555
Bi8 Dy9 3.410395 1_555
Bi8 Dy6 3.427215 1_555
Bi8 Dy18 3.428133 1_545
Bi8 Dy5 3.488748 1_545
Bi9 Dy15 3.187225 1_655
Bi9 Dy3 3.197964 1_655
Bi9 Dy18 3.204139 1_555
Bi9 Dy13 3.242905 1_556
Bi9 Dy2 3.361377 1_555
Bi9 Dy8 3.410395 1_655
Bi9 Dy7 3.427215 1_555
Bi9 Dy19 3.428133 1_655
Bi9 Dy4 3.488748 1_556
Bi10 Dy12 3.187225 1_555
Bi10 Dy0 3.197964 1_555
Bi10 Dy17 3.204139 1_555
Bi10 Dy14 3.242905 1_555
Bi10 Dy1 3.361377 1_555
Bi10 Dy11 3.410395 1_555
Bi10 Dy4 3.427215 1_555
Bi10 Dy16 3.428133 1_555
Bi10 Dy7 3.488748 1_555
Bi11 Dy13 3.187225 1_465
Bi11 Dy1 3.197964 1_455
Bi11 Dy16 3.204139 1_565
Bi11 Dy15 3.242905 1_554
Bi11 Dy0 3.361377 1_555
Bi11 Dy10 3.410395 1_455
Bi11 Dy5 3.427215 1_555
Bi11 Dy17 3.428133 1_465
Bi11 Dy6 3.488748 1_564
