# generated using pymatgen
data_Hf5ZnSnBi2
_symmetry_space_group_name_H-M   'P 1'
_cell_length_a   8.66825586
_cell_length_b   8.66825640
_cell_length_c   5.81843002
_cell_angle_alpha   90.00000000
_cell_angle_beta   90.00000000
_cell_angle_gamma   119.84882795
_symmetry_Int_Tables_number   1
_chemical_formula_structural   Hf5ZnSnBi2
_chemical_formula_sum   'Hf10 Zn2 Sn2 Bi4'
_cell_volume   379.19226439
_cell_formula_units_Z   2
loop_
 _symmetry_equiv_pos_site_id
 _symmetry_equiv_pos_as_xyz
  1  'x, y, z'
loop_
 _atom_site_type_symbol
 _atom_site_label
 _atom_site_symmetry_multiplicity
 _atom_site_fract_x
 _atom_site_fract_y
 _atom_site_fract_z
 _atom_site_occupancy
  Hf  Hf0  1  0.66717008  0.33034646  0.00347160  1
  Hf  Hf1  1  0.33034646  0.66717008  0.00347160  1
  Hf  Hf2  1  0.33034646  0.66717008  0.49652840  1
  Hf  Hf3  1  0.66717008  0.33034646  0.49652840  1
  Hf  Hf4  1  0.73911900  0.73911900  0.75000000  1
  Hf  Hf5  1  0.26054958  0.99831956  0.75000000  1
  Hf  Hf6  1  0.99831956  0.26054958  0.75000000  1
  Hf  Hf7  1  0.26465038  0.26465038  0.25000000  1
  Hf  Hf8  1  0.73544171  0.00733609  0.25000000  1
  Hf  Hf9  1  0.00733609  0.73544171  0.25000000  1
  Zn  Zn0  1  0.99973340  0.99973340  0.00707299  1
  Zn  Zn1  1  0.99973340  0.99973340  0.49292701  1
  Sn  Sn0  1  0.38636177  0.00121368  0.25000000  1
  Sn  Sn1  1  0.00121368  0.38636177  0.25000000  1
  Bi  Bi0  1  0.38768599  0.38768599  0.75000000  1
  Bi  Bi1  1  0.60933798  0.99822755  0.75000000  1
  Bi  Bi2  1  0.99822755  0.60933798  0.75000000  1
  Bi  Bi3  1  0.61725683  0.61725683  0.25000000  1
loop_
_geom_bond_atom_site_label_1
_geom_bond_atom_site_label_2
_geom_bond_distance
_geom_bond_site_symmetry_2
Hf0 Sn0 3.034685 1_555
Hf0 Sn1 3.046000 1_655
Hf1 Sn1 3.034685 1_555
Hf1 Sn0 3.046000 1_565
Hf2 Sn1 3.034685 1_555
Hf2 Sn0 3.046000 1_565
Hf3 Sn0 3.034685 1_555
Hf3 Sn1 3.046000 1_655
Hf4 Zn0 2.713678 1_556
Hf4 Zn1 2.713678 1_555
Hf5 Zn1 2.715943 1_455
Hf5 Zn0 2.715943 1_456
Hf5 Sn0 3.102624 1_565
Hf5 Sn0 3.102624 1_566
Hf6 Zn0 2.715943 1_546
Hf6 Zn1 2.715943 1_545
Hf6 Sn1 3.102624 1_655
Hf6 Sn1 3.102624 1_656
Hf7 Zn0 2.700977 1_445
Hf7 Zn1 2.700977 1_445
Hf7 Sn1 2.953945 1_555
Hf7 Sn0 2.953945 1_555
Hf8 Zn0 2.720464 1_545
Hf8 Zn1 2.720464 1_545
Hf8 Sn1 2.927016 1_655
Hf8 Sn0 2.999853 1_555
Hf9 Zn1 2.720464 1_455
Hf9 Zn0 2.720464 1_455
Hf9 Sn0 2.927016 1_565
Hf9 Sn1 2.999854 1_555
Bi0 Hf6 2.983865 1_455
Bi0 Hf5 2.983866 1_545
Bi0 Hf4 3.053269 1_555
Bi0 Hf0 3.080569 1_556
Bi0 Hf3 3.080569 1_555
Bi0 Hf1 3.080569 1_556
Bi0 Hf2 3.080569 1_555
Bi0 Hf7 3.099381 1_555
Bi0 Hf7 3.099381 1_556
Bi1 Hf4 2.970746 1_555
Bi1 Hf6 2.984547 1_565
Bi1 Hf5 3.023784 1_555
Bi1 Hf0 3.045945 1_566
Bi1 Hf3 3.045945 1_565
Bi1 Hf1 3.057852 1_556
Bi1 Hf2 3.057852 1_555
Bi1 Hf8 3.094951 1_565
Bi1 Hf8 3.094951 1_566
Bi2 Hf4 2.970746 1_555
Bi2 Hf5 2.984547 1_655
Bi2 Hf6 3.023784 1_555
Bi2 Hf1 3.045945 1_656
Bi2 Hf2 3.045945 1_655
Bi2 Hf0 3.057852 1_556
Bi2 Hf3 3.057852 1_555
Bi2 Hf9 3.094951 1_656
Bi2 Hf9 3.094951 1_655
Bi3 Hf9 3.005759 1_655
Bi3 Hf8 3.005759 1_565
Bi3 Hf7 3.063464 1_555
Bi3 Hf2 3.082380 1_555
Bi3 Hf1 3.082380 1_555
Bi3 Hf3 3.082380 1_555
Bi3 Hf0 3.082380 1_555
Bi3 Hf4 3.095880 1_555
Bi3 Hf4 3.095880 1_554
