# generated using pymatgen
data_Zr3SnRh2O
_symmetry_space_group_name_H-M   'P 1'
_cell_length_a   8.70878751
_cell_length_b   8.70878744
_cell_length_c   8.70878772
_cell_angle_alpha   60.00000262
_cell_angle_beta   60.00000291
_cell_angle_gamma   59.99999950
_symmetry_Int_Tables_number   1
_chemical_formula_structural   Zr3SnRh2O
_chemical_formula_sum   'Zr12 Sn4 Rh8 O4'
_cell_volume   467.04433448
_cell_formula_units_Z   4
loop_
 _symmetry_equiv_pos_site_id
 _symmetry_equiv_pos_as_xyz
  1  'x, y, z'
loop_
 _atom_site_type_symbol
 _atom_site_label
 _atom_site_symmetry_multiplicity
 _atom_site_fract_x
 _atom_site_fract_y
 _atom_site_fract_z
 _atom_site_occupancy
  Zr  Zr0  1  0.81153436  0.81153436  0.18846564  1
  Zr  Zr1  1  0.18846564  0.18846564  0.81153436  1
  Zr  Zr2  1  0.81153436  0.18846564  0.81153436  1
  Zr  Zr3  1  0.18846564  0.81153436  0.18846564  1
  Zr  Zr4  1  0.18846564  0.81153436  0.81153436  1
  Zr  Zr5  1  0.81153436  0.18846564  0.18846564  1
  Zr  Zr6  1  0.43846564  0.43846564  0.06153436  1
  Zr  Zr7  1  0.06153436  0.06153436  0.43846564  1
  Zr  Zr8  1  0.43846564  0.06153436  0.43846564  1
  Zr  Zr9  1  0.06153436  0.43846564  0.06153436  1
  Zr  Zr10  1  0.06153436  0.43846564  0.43846564  1
  Zr  Zr11  1  0.43846564  0.06153436  0.06153436  1
  Sn  Sn0  1  0.12500000  0.62500000  0.62500000  1
  Sn  Sn1  1  0.62500000  0.12500000  0.62500000  1
  Sn  Sn2  1  0.62500000  0.62500000  0.12500000  1
  Sn  Sn3  1  0.62500000  0.62500000  0.62500000  1
  Rh  Rh0  1  0.78428619  0.40523694  0.40523694  1
  Rh  Rh1  1  0.40523694  0.78428619  0.40523694  1
  Rh  Rh2  1  0.40523694  0.40523694  0.78428619  1
  Rh  Rh3  1  0.40523694  0.40523694  0.40523694  1
  Rh  Rh4  1  0.46571381  0.84476306  0.84476306  1
  Rh  Rh5  1  0.84476306  0.46571381  0.84476306  1
  Rh  Rh6  1  0.84476306  0.84476306  0.46571381  1
  Rh  Rh7  1  0.84476306  0.84476306  0.84476306  1
  O  O0  1  0.62500000  0.12500000  0.12500000  1
  O  O1  1  0.12500000  0.62500000  0.12500000  1
  O  O2  1  0.12500000  0.12500000  0.62500000  1
  O  O3  1  0.12500000  0.12500000  0.12500000  1
loop_
_geom_bond_atom_site_label_1
_geom_bond_atom_site_label_2
_geom_bond_distance
_geom_bond_site_symmetry_2
Sn0 Zr4 3.165140 1_555
Sn0 Zr10 3.165140 1_555
Sn0 Zr7 3.165140 1_565
Sn0 Zr1 3.165140 1_555
Sn0 Zr9 3.165140 1_556
Sn0 Zr3 3.165140 1_555
Sn1 Zr2 3.165140 1_555
Sn1 Zr8 3.165140 1_555
Sn1 Zr7 3.165140 1_655
Sn1 Zr1 3.165140 1_555
Sn1 Zr11 3.165140 1_556
Sn1 Zr5 3.165140 1_555
Sn2 Zr11 3.165140 1_565
Sn2 Zr5 3.165140 1_555
Sn2 Zr0 3.165140 1_555
Sn2 Zr6 3.165140 1_555
Sn2 Zr9 3.165140 1_655
Sn2 Zr3 3.165140 1_555
Sn3 Zr8 3.165140 1_565
Sn3 Zr2 3.165140 1_555
Sn3 Zr10 3.165140 1_655
Sn3 Zr4 3.165140 1_555
Sn3 Zr6 3.165140 1_556
Sn3 Zr0 3.165140 1_555
Rh0 Zr7 2.734657 1_655
Rh0 Zr9 2.734657 1_655
Rh0 Zr10 2.734673 1_655
Rh0 Sn2 2.757367 1_555
Rh0 Sn1 2.757367 1_555
Rh0 Sn3 2.757388 1_555
Rh0 Zr5 3.138773 1_555
Rh0 Zr0 3.138796 1_555
Rh0 Zr2 3.138796 1_555
Rh1 Zr7 2.734657 1_565
Rh1 Zr11 2.734657 1_565
Rh1 Zr8 2.734673 1_565
Rh1 Sn2 2.757367 1_555
Rh1 Sn0 2.757367 1_555
Rh1 Sn3 2.757388 1_555
Rh1 Zr3 3.138773 1_555
Rh1 Zr0 3.138796 1_555
Rh1 Zr4 3.138796 1_555
Rh2 Zr11 2.734657 1_556
Rh2 Zr9 2.734657 1_556
Rh2 Zr6 2.734673 1_556
Rh2 Sn1 2.757367 1_555
Rh2 Sn0 2.757367 1_555
Rh2 Sn3 2.757388 1_555
Rh2 Zr1 3.138773 1_555
Rh2 Zr4 3.138796 1_555
Rh2 Zr2 3.138796 1_555
Rh3 Zr8 2.734647 1_555
Rh3 Zr10 2.734647 1_555
Rh3 Zr6 2.734647 1_555
Rh3 Sn1 2.757383 1_555
Rh3 Sn0 2.757383 1_555
Rh3 Sn2 2.757383 1_555
Rh3 Zr3 3.138787 1_555
Rh3 Zr5 3.138787 1_555
Rh3 Zr1 3.138787 1_555
Rh4 Zr1 2.734657 1_565
Rh4 Zr3 2.734657 1_556
Rh4 Zr4 2.734673 1_555
Rh4 Sn2 2.757367 1_556
Rh4 Sn1 2.757367 1_565
Rh4 Sn3 2.757388 1_555
Rh4 Zr11 3.138773 1_566
Rh4 Zr6 3.138796 1_556
Rh4 Zr8 3.138796 1_565
Rh5 Zr1 2.734657 1_655
Rh5 Zr5 2.734657 1_556
Rh5 Zr2 2.734673 1_555
Rh5 Sn2 2.757367 1_556
Rh5 Sn0 2.757367 1_655
Rh5 Sn3 2.757388 1_555
Rh5 Zr9 3.138773 1_656
Rh5 Zr6 3.138796 1_556
Rh5 Zr10 3.138796 1_655
Rh6 Zr5 2.734657 1_565
Rh6 Zr3 2.734657 1_655
Rh6 Zr0 2.734673 1_555
Rh6 Sn1 2.757367 1_565
Rh6 Sn0 2.757367 1_655
Rh6 Sn3 2.757388 1_555
Rh6 Zr7 3.138773 1_665
Rh6 Zr10 3.138796 1_655
Rh6 Zr8 3.138796 1_565
Rh7 Zr2 2.734647 1_565
Rh7 Zr4 2.734647 1_655
Rh7 Zr0 2.734647 1_556
Rh7 Sn1 2.757383 1_565
Rh7 Sn0 2.757383 1_655
Rh7 Sn2 2.757383 1_556
Rh7 Zr9 3.138787 1_656
Rh7 Zr11 3.138787 1_566
Rh7 Zr7 3.138787 1_665
O0 Zr6 2.313257 1_555
O0 Zr0 2.313257 1_545
O0 Zr5 2.313257 1_555
O0 Zr11 2.313257 1_555
O0 Zr2 2.313258 1_554
O0 Zr8 2.313258 1_555
O1 Zr3 2.313257 1_555
O1 Zr9 2.313257 1_555
O1 Zr0 2.313257 1_455
O1 Zr6 2.313257 1_555
O1 Zr4 2.313258 1_554
O1 Zr10 2.313258 1_555
O2 Zr1 2.313257 1_555
O2 Zr7 2.313257 1_555
O2 Zr10 2.313258 1_555
O2 Zr4 2.313258 1_545
O2 Zr8 2.313258 1_555
O2 Zr2 2.313258 1_455
O3 Zr9 2.313257 1_555
O3 Zr3 2.313257 1_545
O3 Zr11 2.313257 1_555
O3 Zr5 2.313257 1_455
O3 Zr7 2.313258 1_555
O3 Zr1 2.313258 1_554
