# generated using pymatgen
data_Y6MnFeB14
_symmetry_space_group_name_H-M   'P 1'
_cell_length_a   8.04207078
_cell_length_b   8.04207026
_cell_length_c   9.29806615
_cell_angle_alpha   90.00000000
_cell_angle_beta   90.00000000
_cell_angle_gamma   155.34985922
_symmetry_Int_Tables_number   1
_chemical_formula_structural   Y6MnFeB14
_chemical_formula_sum   'Y6 Mn1 Fe1 B14'
_cell_volume   250.80946608
_cell_formula_units_Z   1
loop_
 _symmetry_equiv_pos_site_id
 _symmetry_equiv_pos_as_xyz
  1  'x, y, z'
loop_
 _atom_site_type_symbol
 _atom_site_label
 _atom_site_symmetry_multiplicity
 _atom_site_fract_x
 _atom_site_fract_y
 _atom_site_fract_z
 _atom_site_occupancy
  Y  Y0  1  0.75927603  0.24072397  0.25000000  1
  Y  Y1  1  0.24144060  0.75855940  0.75000000  1
  Y  Y2  1  0.89543640  0.10456360  0.55897954  1
  Y  Y3  1  0.10424387  0.89575613  0.43866851  1
  Y  Y4  1  0.10424387  0.89575613  0.06133149  1
  Y  Y5  1  0.89543640  0.10456360  0.94102046  1
  Mn  Mn0  1  0.94609629  0.05390371  0.25000000  1
  Fe  Fe0  1  0.05474024  0.94525976  0.75000000  1
  B  B0  1  0.54017062  0.45982938  0.25000000  1
  B  B1  1  0.46057506  0.53942494  0.75000000  1
  B  B2  1  0.52169851  0.47830149  0.90082381  1
  B  B3  1  0.47836424  0.52163576  0.09923591  1
  B  B4  1  0.47836424  0.52163576  0.40076409  1
  B  B5  1  0.52169851  0.47830149  0.59917619  1
  B  B6  1  0.62928459  0.37071541  0.84666639  1
  B  B7  1  0.37032279  0.62967721  0.15304154  1
  B  B8  1  0.72731111  0.27268889  0.96546199  1
  B  B9  1  0.27219057  0.72780943  0.03331104  1
  B  B10  1  0.27219057  0.72780943  0.46668896  1
  B  B11  1  0.72731111  0.27268889  0.53453801  1
  B  B12  1  0.62928459  0.37071541  0.65333361  1
  B  B13  1  0.37032279  0.62967721  0.34695846  1
loop_
_geom_bond_atom_site_label_1
_geom_bond_atom_site_label_2
_geom_bond_distance
_geom_bond_site_symmetry_2
B0 B4 1.705372 1_555
B0 B3 1.705372 1_555
B0 Mn0 2.265399 1_565
B0 Mn0 2.265399 1_455
B0 Y3 2.652910 1_545
B0 Y4 2.652910 1_545
B0 Y3 2.652911 1_655
B0 Y4 2.652911 1_655
B1 B2 1.699742 1_555
B1 B5 1.699742 1_555
B1 Fe0 2.266330 1_545
B1 Fe0 2.266331 1_655
B1 Y2 2.673785 1_565
B1 Y5 2.673785 1_565
B1 Y2 2.673786 1_455
B1 Y5 2.673786 1_455
B2 B6 1.763951 1_555
B2 B3 1.966503 1_556
B2 Fe0 2.276636 1_545
B2 Fe0 2.276636 1_655
B2 Y4 2.618501 1_546
B2 Y4 2.618501 1_656
B2 Y5 2.650067 1_565
B2 Y5 2.650068 1_455
B3 B7 1.769882 1_555
B3 Mn0 2.273552 1_565
B3 Mn0 2.273552 1_455
B3 Y5 2.609409 1_564
B3 Y5 2.609409 1_454
B3 Y4 2.642644 1_545
B3 Y4 2.642644 1_655
B4 B5 1.966503 1_555
B4 Mn0 2.273552 1_565
B4 Mn0 2.273552 1_455
B4 Y2 2.609409 1_565
B4 Y2 2.609409 1_455
B4 Y3 2.642644 1_545
B4 Y3 2.642644 1_655
B5 Fe0 2.276636 1_545
B5 Fe0 2.276636 1_655
B5 Y3 2.618501 1_545
B5 Y3 2.618501 1_655
B5 Y2 2.650067 1_565
B5 Y2 2.650068 1_455
B6 B8 1.895442 1_555
B6 Fe0 2.264239 1_655
B6 Fe0 2.264240 1_545
B6 Y1 2.619279 1_545
B6 Y1 2.619280 1_655
B6 Y4 2.661876 1_656
B6 Y4 2.661876 1_546
B7 B9 1.901867 1_555
B7 Mn0 2.275366 1_455
B7 Mn0 2.275366 1_565
B7 Y0 2.608521 1_565
B7 Y0 2.608521 1_455
B7 Y5 2.643663 1_454
B7 Y5 2.643663 1_564
B8 B9 1.960147 1_546
B8 B9 1.960147 1_656
B8 Y1 2.647582 1_545
B8 Y1 2.647582 1_655
B8 Y5 2.651583 1_555
B8 Y0 2.692910 1_556
B8 Y4 2.735156 1_656
B8 Y4 2.735156 1_546
B9 Y4 2.651850 1_555
B9 Y0 2.654697 1_565
B9 Y0 2.654697 1_455
B9 Y1 2.678193 1_554
B9 Y5 2.726485 1_454
B9 Y5 2.726485 1_564
B10 B13 1.901867 1_555
B10 B11 1.960147 1_565
B10 B11 1.960147 1_455
B10 Y3 2.651850 1_555
B10 Y0 2.654697 1_565
B10 Y0 2.654697 1_455
B10 Y1 2.678193 1_555
B10 Y2 2.726485 1_455
B10 Y2 2.726485 1_565
B11 B12 1.895442 1_555
B11 Y1 2.647582 1_545
B11 Y1 2.647582 1_655
B11 Y2 2.651583 1_555
B11 Y0 2.692910 1_555
B11 Y3 2.735156 1_655
B11 Y3 2.735156 1_545
B12 B5 1.763951 1_555
B12 B6 1.797621 1_555
B12 Fe0 2.264239 1_655
B12 Fe0 2.264240 1_545
B12 Y1 2.619279 1_545
B12 Y1 2.619280 1_655
B12 Y3 2.661876 1_655
B12 Y3 2.661876 1_545
B13 B4 1.769882 1_555
B13 B7 1.803052 1_555
B13 Mn0 2.275366 1_455
B13 Mn0 2.275366 1_565
B13 Y0 2.608521 1_565
B13 Y0 2.608521 1_455
B13 Y2 2.643663 1_455
B13 Y2 2.643663 1_565
