# generated using pymatgen
data_BaAl2(SeO3)4
_symmetry_space_group_name_H-M   'P 1'
_cell_length_a   7.27442565
_cell_length_b   5.24279993
_cell_length_c   7.15510693
_cell_angle_alpha   90.00000000
_cell_angle_beta   91.45555280
_cell_angle_gamma   90.00000000
_symmetry_Int_Tables_number   1
_chemical_formula_structural   BaAl2(SeO3)4
_chemical_formula_sum   'Ba1 Al2 Se4 O12'
_cell_volume   272.79598040
_cell_formula_units_Z   1
loop_
 _symmetry_equiv_pos_site_id
 _symmetry_equiv_pos_as_xyz
  1  'x, y, z'
loop_
 _atom_site_type_symbol
 _atom_site_label
 _atom_site_symmetry_multiplicity
 _atom_site_fract_x
 _atom_site_fract_y
 _atom_site_fract_z
 _atom_site_occupancy
  Ba  Ba0  1  0.50000100  0.50000000  0.50000100  1
  Al  Al0  1  0.49999900  0.00000000  0.99999900  1
  Al  Al1  1  0.00000000  0.50000000  0.50000000  1
  Se  Se0  1  0.72723946  0.50000000  0.08739311  1
  Se  Se1  1  0.10545005  0.00000000  0.28368046  1
  Se  Se2  1  0.89454995  0.00000000  0.71631854  1
  Se  Se3  1  0.27276054  0.50000000  0.91260689  1
  O  O0  1  0.26893117  0.00000000  0.12191610  1
  O  O1  1  0.59084119  0.25575244  0.16658557  1
  O  O2  1  0.59084119  0.74424756  0.16658557  1
  O  O3  1  0.90028322  0.50000000  0.24926204  1
  O  O4  1  0.17292644  0.24828555  0.42749022  1
  O  O5  1  0.17292644  0.75171645  0.42749022  1
  O  O6  1  0.82707356  0.24828555  0.57250978  1
  O  O7  1  0.82707356  0.75171645  0.57250978  1
  O  O8  1  0.09971878  0.50000000  0.75073896  1
  O  O9  1  0.40915881  0.25575244  0.83341443  1
  O  O10  1  0.40915881  0.74424756  0.83341443  1
  O  O11  1  0.73106883  0.00000000  0.87808390  1
loop_
_geom_bond_atom_site_label_1
_geom_bond_atom_site_label_2
_geom_bond_distance
_geom_bond_site_symmetry_2
Ba0 O6 2.758429 1_555
Ba0 O7 2.758434 1_555
Ba0 O4 2.758444 1_555
Ba0 O5 2.758449 1_555
Ba0 O10 2.801373 1_555
Ba0 O9 2.801373 1_555
Ba0 O2 2.801382 1_555
Ba0 O1 2.801382 1_555
Al0 O9 1.901383 1_555
Al0 O10 1.901383 1_545
Al0 O1 1.901396 1_556
Al0 O2 1.901396 1_546
Al0 O0 1.913329 1_556
Al0 O11 1.913335 1_555
Al1 O4 1.904289 1_555
Al1 O6 1.904289 1_455
Al1 O5 1.904296 1_555
Al1 O7 1.904296 1_455
Al1 O3 1.917995 1_455
Al1 O8 1.918007 1_555
O0 Se1 1.680437 1_555
O1 Se0 1.724505 1_555
O2 Se0 1.724505 1_555
O3 Se0 1.688756 1_555
O4 Se1 1.722939 1_555
O5 Se1 1.722931 1_565
O6 Se2 1.722934 1_555
O7 Se2 1.722926 1_565
O8 Se3 1.688741 1_555
O9 Se3 1.724505 1_555
O10 Se3 1.724505 1_555
O11 Se2 1.680442 1_555
