# generated using pymatgen
data_Ba2VBrF14
_symmetry_space_group_name_H-M   'P 1'
_cell_length_a   4.78136735
_cell_length_b   7.56319873
_cell_length_c   7.68264877
_cell_angle_alpha   107.39502400
_cell_angle_beta   102.60857557
_cell_angle_gamma   90.37791057
_symmetry_Int_Tables_number   1
_chemical_formula_structural   Ba2VBrF14
_chemical_formula_sum   'Ba2 V1 Br1 F14'
_cell_volume   257.95251188
_cell_formula_units_Z   1
loop_
 _symmetry_equiv_pos_site_id
 _symmetry_equiv_pos_as_xyz
  1  'x, y, z'
loop_
 _atom_site_type_symbol
 _atom_site_label
 _atom_site_symmetry_multiplicity
 _atom_site_fract_x
 _atom_site_fract_y
 _atom_site_fract_z
 _atom_site_occupancy
  Ba  Ba0  1  0.15312610  0.33872776  0.76844421  1
  Ba  Ba1  1  0.83053984  0.65758723  0.22738307  1
  V  V0  1  0.35108687  0.18182784  0.28344230  1
  Br  Br0  1  0.65337196  0.81751525  0.71685173  1
  F  F0  1  0.12541777  0.18309156  0.06750427  1
  F  F1  1  0.41079927  0.80265570  0.48130904  1
  F  F2  1  0.57799978  0.19714967  0.50990572  1
  F  F3  1  0.52581606  0.04388988  0.82806190  1
  F  F4  1  0.48459819  0.96638333  0.18177210  1
  F  F5  1  0.36284551  0.69889414  0.77374540  1
  F  F6  1  0.89301253  0.82245790  0.94444090  1
  F  F7  1  0.28197098  0.57177527  0.10174722  1
  F  F8  1  0.07598219  0.05775318  0.33888924  1
  F  F9  1  0.20878518  0.39496324  0.40261545  1
  F  F10  1  0.70332021  0.42585661  0.89485490  1
  F  F11  1  0.79317507  0.58690322  0.59073324  1
  F  F12  1  0.62843513  0.30827754  0.23964338  1
  F  F13  1  0.93971733  0.94429270  0.64865295  1
loop_
_geom_bond_atom_site_label_1
_geom_bond_atom_site_label_2
_geom_bond_distance
_geom_bond_site_symmetry_2
Ba0 F10 2.559451 1_455
Ba0 F7 2.577114 1_556
Ba0 F10 2.603265 1_555
Ba0 F5 2.882220 1_555
Ba0 F0 2.903424 1_556
Ba0 F3 2.943552 1_555
Ba0 F13 2.948880 1_445
Ba0 F11 2.982986 1_455
Ba0 F2 2.993090 1_455
Ba0 F9 3.031601 1_555
Ba0 F2 3.120470 1_555
Ba0 F8 3.287524 1_555
Ba1 F7 2.562281 1_655
Ba1 F10 2.568766 1_554
Ba1 F7 2.594268 1_555
Ba1 F12 2.842034 1_555
Ba1 F6 2.875503 1_554
Ba1 F4 2.932659 1_555
Ba1 F1 3.004016 1_655
Ba1 F11 3.036262 1_555
Ba1 F8 3.038916 1_665
Ba1 F1 3.081534 1_555
Ba1 F9 3.100281 1_655
Ba1 F13 3.240453 1_555
Br0 F3 1.843887 1_565
Br0 F5 1.846262 1_555
Br0 F6 1.859350 1_555
Br0 F1 1.895479 1_555
Br0 F13 1.914325 1_555
Br0 F11 1.927547 1_555
F0 V0 1.773322 1_555
F2 V0 1.808668 1_555
F4 V0 1.772890 1_565
F8 V0 1.805443 1_555
F9 V0 1.817603 1_555
F12 V0 1.776769 1_555
