# generated using pymatgen
data_Sr4NiH12Pd
_symmetry_space_group_name_H-M   'P 1'
_cell_length_a   7.47091185
_cell_length_b   7.47091318
_cell_length_c   5.47311421
_cell_angle_alpha   89.53963467
_cell_angle_beta   89.53963171
_cell_angle_gamma   136.98764598
_symmetry_Int_Tables_number   1
_chemical_formula_structural   Sr4NiH12Pd
_chemical_formula_sum   'Sr4 Ni1 H12 Pd1'
_cell_volume   208.33450562
_cell_formula_units_Z   1
loop_
 _symmetry_equiv_pos_site_id
 _symmetry_equiv_pos_as_xyz
  1  'x, y, z'
loop_
 _atom_site_type_symbol
 _atom_site_label
 _atom_site_symmetry_multiplicity
 _atom_site_fract_x
 _atom_site_fract_y
 _atom_site_fract_z
 _atom_site_occupancy
  Sr  Sr0  1  0.64459606  0.35540394  1.00000000  1
  Sr  Sr1  1  0.35540394  0.64459606  0.00000000  1
  Sr  Sr2  1  0.85464152  0.14535848  0.50000000  1
  Sr  Sr3  1  0.14535848  0.85464152  0.50000000  1
  Ni  Ni0  1  0.00000000  0.00000000  0.00000000  1
  H  H0  1  0.88995373  0.11004627  0.00000000  1
  H  H1  1  0.11004627  0.88995373  1.00000000  1
  H  H2  1  0.61930880  0.38069120  0.50000000  1
  H  H3  1  0.38069120  0.61930880  0.50000000  1
  H  H4  1  0.00027127  0.50167543  0.24870297  1
  H  H5  1  0.99972873  0.49832457  0.75129703  1
  H  H6  1  0.49832457  0.99972873  0.75129703  1
  H  H7  1  0.50167543  0.00027127  0.24870297  1
  H  H8  1  0.19774976  0.19774976  0.20021907  1
  H  H9  1  0.80225024  0.80225024  0.79978093  1
  H  H10  1  0.27463066  0.27463066  0.72725922  1
  H  H11  1  0.72536934  0.72536934  0.27274078  1
  Pd  Pd0  1  0.50000000  0.50000000  0.50000000  1
loop_
_geom_bond_atom_site_label_1
_geom_bond_atom_site_label_2
_geom_bond_distance
_geom_bond_site_symmetry_2
H0 Ni0 1.529813 1_655
H0 Sr2 2.780238 1_555
H0 Sr2 2.780238 1_554
H0 Sr1 2.780642 1_545
H0 Sr1 2.780643 1_655
H1 Ni0 1.529813 1_566
H1 Sr3 2.780238 1_555
H1 Sr3 2.780238 1_556
H1 Sr0 2.780642 1_565
H1 Sr0 2.780643 1_455
H2 Pd0 1.658577 1_555
H2 Sr0 2.759043 1_554
H2 Sr0 2.759043 1_555
H2 Sr3 2.762685 1_655
H2 Sr3 2.762685 1_545
H3 Pd0 1.658577 1_555
H3 Sr1 2.759043 1_556
H3 Sr1 2.759043 1_555
H3 Sr2 2.762685 1_455
H3 Sr2 2.762685 1_565
H4 Sr1 2.409959 1_555
H4 Sr2 2.417295 1_455
H4 Sr3 2.433607 1_555
H4 Sr0 2.437893 1_454
H5 Sr0 2.409959 1_555
H5 Sr3 2.417295 1_655
H5 Sr2 2.433607 1_555
H5 Sr1 2.437893 1_656
H6 Sr1 2.409960 1_556
H6 Sr2 2.417295 1_565
H6 Sr3 2.433606 1_555
H6 Sr0 2.437893 1_565
H7 Sr0 2.409960 1_554
H7 Sr3 2.417295 1_545
H7 Sr2 2.433606 1_555
H7 Sr1 2.437893 1_545
H8 Ni0 1.557629 1_555
H8 Sr2 2.805480 1_455
H8 Sr3 2.805480 1_545
H8 Sr0 2.811221 1_554
H8 Sr1 2.811221 1_555
H9 Ni0 1.557629 1_666
H9 Sr3 2.805480 1_655
H9 Sr2 2.805480 1_565
H9 Sr1 2.811221 1_556
H9 Sr0 2.811221 1_555
H10 Pd0 1.733139 1_555
H10 Ni0 2.095923 1_556
H10 Sr0 2.805992 1_555
H10 Sr1 2.805993 1_556
H10 Sr2 2.824076 1_455
H10 Sr3 2.824076 1_545
H11 Pd0 1.733139 1_555
H11 Ni0 2.095923 1_665
H11 Sr1 2.805992 1_555
H11 Sr0 2.805993 1_554
H11 Sr3 2.824076 1_655
H11 Sr2 2.824076 1_565
