# generated using pymatgen
data_Hf2Sn2IrRh
_symmetry_space_group_name_H-M   'P 1'
_cell_length_a   7.32680486
_cell_length_b   7.32680535
_cell_length_c   7.23249603
_cell_angle_alpha   90.00000000
_cell_angle_beta   90.00000000
_cell_angle_gamma   120.00000215
_symmetry_Int_Tables_number   1
_chemical_formula_structural   Hf2Sn2IrRh
_chemical_formula_sum   'Hf6 Sn6 Ir3 Rh3'
_cell_volume   336.23901547
_cell_formula_units_Z   3
loop_
 _symmetry_equiv_pos_site_id
 _symmetry_equiv_pos_as_xyz
  1  'x, y, z'
loop_
 _atom_site_type_symbol
 _atom_site_label
 _atom_site_symmetry_multiplicity
 _atom_site_fract_x
 _atom_site_fract_y
 _atom_site_fract_z
 _atom_site_occupancy
  Hf  Hf0  1  0.02439845  0.41153983  0.74998249  1
  Hf  Hf1  1  0.58846017  0.61285862  0.74998249  1
  Hf  Hf2  1  0.38714138  0.97560155  0.74998249  1
  Hf  Hf3  1  0.98061526  0.38853353  0.25159529  1
  Hf  Hf4  1  0.61146647  0.59208173  0.25159529  1
  Hf  Hf5  1  0.40791827  0.01938474  0.25159529  1
  Sn  Sn0  1  0.26835253  0.26731691  0.50088329  1
  Sn  Sn1  1  0.99896437  0.73164747  0.50088329  1
  Sn  Sn2  1  0.99591612  0.72724669  0.00067914  1
  Sn  Sn3  1  0.73268309  0.00103563  0.50088329  1
  Sn  Sn4  1  0.73133057  0.00408388  0.00067914  1
  Sn  Sn5  1  0.27275331  0.26866943  0.00067914  1
  Ir  Ir0  1  0.33333300  0.66666700  0.46110141  1
  Ir  Ir1  1  0.66666700  0.33333300  0.53413287  1
  Ir  Ir2  1  0.33333300  0.66666700  0.03859657  1
  Rh  Rh0  1  0.00000000  0.00000000  0.75213984  1
  Rh  Rh1  1  0.00000000  0.00000000  0.24945028  1
  Rh  Rh2  1  0.66666700  0.33333300  0.95515740  1
loop_
_geom_bond_atom_site_label_1
_geom_bond_atom_site_label_2
_geom_bond_distance
_geom_bond_site_symmetry_2
Hf0 Rh2 2.810391 1_455
Hf0 Ir1 2.851910 1_455
Hf0 Rh0 2.930025 1_555
Hf0 Ir2 2.956984 1_556
Hf0 Ir0 2.958347 1_555
Hf0 Sn2 3.027269 1_456
Hf0 Sn1 3.036169 1_455
Hf0 Sn0 3.073426 1_555
Hf0 Sn5 3.098259 1_556
Hf0 Sn4 3.224944 1_456
Hf0 Sn3 3.229820 1_455
Hf1 Rh2 2.810398 1_555
Hf1 Ir1 2.851916 1_555
Hf1 Rh0 2.930025 1_665
Hf1 Ir2 2.956987 1_556
Hf1 Ir0 2.958351 1_555
Hf1 Sn5 3.027269 1_556
Hf1 Sn0 3.036169 1_555
Hf1 Sn3 3.073426 1_565
Hf1 Sn4 3.098259 1_566
Hf1 Sn2 3.224944 1_556
Hf1 Sn1 3.229820 1_555
Hf2 Rh2 2.810393 1_565
Hf2 Ir1 2.851912 1_565
Hf2 Rh0 2.930025 1_565
Hf2 Ir2 2.956982 1_556
Hf2 Ir0 2.958346 1_555
Hf2 Sn4 3.027269 1_566
Hf2 Sn3 3.036169 1_565
Hf2 Sn1 3.073426 1_455
Hf2 Sn2 3.098259 1_456
Hf2 Sn5 3.224944 1_566
Hf2 Sn0 3.229821 1_565
Hf3 Ir0 2.803741 1_655
Hf3 Ir2 2.817473 1_655
Hf3 Rh1 2.920356 1_655
Hf3 Ir1 2.949584 1_555
Hf3 Rh2 3.020104 1_554
Hf3 Sn2 3.030913 1_555
Hf3 Sn1 3.041489 1_555
Hf3 Sn4 3.069009 1_555
Hf3 Sn3 3.074699 1_555
Hf3 Sn0 3.218125 1_655
Hf3 Sn5 3.244356 1_655
Hf4 Ir0 2.803745 1_555
Hf4 Ir2 2.817477 1_555
Hf4 Rh1 2.920356 1_665
Hf4 Ir1 2.949590 1_555
Hf4 Rh2 3.020109 1_554
Hf4 Sn5 3.030913 1_555
Hf4 Sn0 3.041489 1_555
Hf4 Sn2 3.069009 1_555
Hf4 Sn1 3.074699 1_555
Hf4 Sn3 3.218125 1_565
Hf4 Sn4 3.244356 1_565
Hf5 Ir0 2.803739 1_545
Hf5 Ir2 2.817471 1_545
Hf5 Rh1 2.920356 1_555
Hf5 Ir1 2.949586 1_555
Hf5 Rh2 3.020106 1_554
Hf5 Sn4 3.030913 1_555
Hf5 Sn3 3.041489 1_555
Hf5 Sn5 3.069009 1_555
Hf5 Sn0 3.074699 1_555
Hf5 Sn1 3.218125 1_445
Hf5 Sn2 3.244356 1_445
Ir0 Sn1 2.734522 1_455
Ir0 Sn3 2.734527 1_565
Ir0 Sn0 2.734529 1_555
Ir1 Sn3 2.719754 1_555
Ir1 Sn1 2.719759 1_555
Ir1 Sn0 2.719761 1_555
Ir1 Rh2 3.045058 1_555
Ir2 Sn2 2.735182 1_455
Ir2 Sn4 2.735186 1_565
Ir2 Sn5 2.735189 1_555
Rh0 Sn3 2.674548 1_455
Rh0 Sn0 2.674548 1_555
Rh0 Sn1 2.674549 1_445
Rh0 Sn5 2.676932 1_556
Rh0 Sn4 2.676932 1_456
Rh0 Sn2 2.676932 1_446
Rh1 Sn3 2.675416 1_455
Rh1 Sn0 2.675416 1_555
Rh1 Sn1 2.675416 1_445
Rh1 Sn5 2.678058 1_555
Rh1 Sn4 2.678058 1_455
Rh1 Sn2 2.678058 1_445
Rh2 Sn4 2.700959 1_556
Rh2 Sn2 2.700963 1_556
Rh2 Sn5 2.700966 1_556
