# generated using pymatgen
data_Be3V2P
_symmetry_space_group_name_H-M   'P 1'
_cell_length_a   4.28455621
_cell_length_b   4.28455582
_cell_length_c   7.35904387
_cell_angle_alpha   90.00000000
_cell_angle_beta   90.00000000
_cell_angle_gamma   119.99999537
_symmetry_Int_Tables_number   1
_chemical_formula_structural   Be3V2P
_chemical_formula_sum   'Be6 V4 P2'
_cell_volume   116.99402835
_cell_formula_units_Z   2
loop_
 _symmetry_equiv_pos_site_id
 _symmetry_equiv_pos_as_xyz
  1  'x, y, z'
loop_
 _atom_site_type_symbol
 _atom_site_label
 _atom_site_symmetry_multiplicity
 _atom_site_fract_x
 _atom_site_fract_y
 _atom_site_fract_z
 _atom_site_occupancy
  Be  Be0  1  0.82768774  0.65537649  0.25000000  1
  Be  Be1  1  0.17231226  0.82768774  0.75000000  1
  Be  Be2  1  0.65537649  0.82768774  0.75000000  1
  Be  Be3  1  0.34462351  0.17231226  0.25000000  1
  Be  Be4  1  0.82768774  0.17231226  0.25000000  1
  Be  Be5  1  0.17231226  0.34462351  0.75000000  1
  V  V0  1  0.33333300  0.66666700  0.06207039  1
  V  V1  1  0.66666700  0.33333300  0.56207039  1
  V  V2  1  0.66666700  0.33333300  0.93792961  1
  V  V3  1  0.33333300  0.66666700  0.43792961  1
  P  P0  1  0.00000000  0.00000000  0.00000000  1
  P  P1  1  0.00000000  0.00000000  0.50000000  1
loop_
_geom_bond_atom_site_label_1
_geom_bond_atom_site_label_2
_geom_bond_distance
_geom_bond_site_symmetry_2
Be0 Be4 2.069716 1_555
Be0 Be3 2.069716 1_555
Be0 Be4 2.214840 1_565
Be0 Be3 2.214840 1_665
Be0 P0 2.240511 1_665
Be0 P1 2.240511 1_665
Be0 V3 2.550245 1_555
Be0 V0 2.550245 1_555
Be0 V3 2.550245 1_655
Be0 V0 2.550245 1_655
Be0 V1 2.588824 1_555
Be0 V2 2.588824 1_554
Be1 Be5 2.069716 1_555
Be1 Be2 2.069716 1_555
Be1 Be5 2.214840 1_565
Be1 Be2 2.214840 1_455
Be1 P0 2.240513 1_566
Be1 P1 2.240513 1_565
Be1 V2 2.550245 1_565
Be1 V1 2.550245 1_565
Be1 V2 2.550245 1_455
Be1 V1 2.550245 1_455
Be1 V0 2.588820 1_556
Be1 V3 2.588820 1_555
Be2 Be5 2.069716 1_555
Be2 Be5 2.214840 1_665
Be2 P0 2.240511 1_666
Be2 P1 2.240511 1_665
Be2 V2 2.550245 1_555
Be2 V1 2.550245 1_555
Be2 V2 2.550245 1_565
Be2 V1 2.550245 1_565
Be2 V0 2.588824 1_556
Be2 V3 2.588824 1_555
Be3 Be4 2.069716 1_555
Be3 Be4 2.214840 1_455
Be3 P1 2.240511 1_555
Be3 P0 2.240511 1_555
Be3 V3 2.550245 1_555
Be3 V0 2.550245 1_555
Be3 V3 2.550245 1_545
Be3 V0 2.550245 1_545
Be3 V1 2.588824 1_555
Be3 V2 2.588824 1_554
Be4 P0 2.240513 1_655
Be4 P1 2.240513 1_655
Be4 V3 2.550245 1_545
Be4 V0 2.550245 1_545
Be4 V3 2.550245 1_655
Be4 V0 2.550245 1_655
Be4 V1 2.588820 1_555
Be4 V2 2.588820 1_554
Be5 P1 2.240511 1_555
Be5 P0 2.240511 1_556
Be5 V2 2.550245 1_555
Be5 V1 2.550245 1_555
Be5 V2 2.550245 1_455
Be5 V1 2.550245 1_455
Be5 V0 2.588824 1_556
Be5 V3 2.588824 1_555
V0 V2 2.636990 1_564
V0 V2 2.636990 1_454
V0 V2 2.636997 1_554
V0 V3 2.765965 1_555
V1 V3 2.636990 1_545
V1 V3 2.636990 1_655
V1 V3 2.636997 1_555
V1 V2 2.765965 1_555
P0 V0 2.515507 1_545
P0 V2 2.515507 1_454
P0 V0 2.515510 1_555
P0 V2 2.515510 1_444
P0 V2 2.515511 1_554
P0 V0 2.515511 1_445
P1 V1 2.515507 1_455
P1 V3 2.515507 1_545
P1 V3 2.515510 1_555
P1 V1 2.515510 1_445
P1 V1 2.515511 1_555
P1 V3 2.515511 1_445
