# generated using pymatgen
data_Be22Mo
_symmetry_space_group_name_H-M   'P 1'
_cell_length_a   8.18387632
_cell_length_b   8.18387600
_cell_length_c   8.18381659
_cell_angle_alpha   60.00023607
_cell_angle_beta   60.00023737
_cell_angle_gamma   60.00049357
_symmetry_Int_Tables_number   1
_chemical_formula_structural   Be22Mo
_chemical_formula_sum   'Be44 Mo2'
_cell_volume   387.58071716
_cell_formula_units_Z   2
loop_
 _symmetry_equiv_pos_site_id
 _symmetry_equiv_pos_as_xyz
  1  'x, y, z'
loop_
 _atom_site_type_symbol
 _atom_site_label
 _atom_site_symmetry_multiplicity
 _atom_site_fract_x
 _atom_site_fract_y
 _atom_site_fract_z
 _atom_site_occupancy
  Be  Be0  1  -0.00000000  0.00000000  0.00000000  1
  Be  Be1  1  -0.00000000  0.00000000  0.50000000  1
  Be  Be2  1  0.50000000  0.00000000  0.00000000  1
  Be  Be3  1  -0.00000000  0.50000000  0.00000000  1
  Be  Be4  1  0.50000000  0.50000000  0.50000000  1
  Be  Be5  1  0.50000000  0.50000000  0.00000000  1
  Be  Be6  1  -0.00000000  0.50000000  0.50000000  1
  Be  Be7  1  0.50000000  0.00000000  0.50000000  1
  Be  Be8  1  0.74025308  0.00974892  0.00976375  1
  Be  Be9  1  0.99024378  0.99024378  0.25975622  1
  Be  Be10  1  0.25975640  0.25975640  0.99024360  1
  Be  Be11  1  0.99025108  0.25974692  0.25976575  1
  Be  Be12  1  0.99025108  0.25974692  0.99023625  1
  Be  Be13  1  0.25974692  0.99025108  0.25976575  1
  Be  Be14  1  0.00974892  0.74025308  0.00976375  1
  Be  Be15  1  0.00975622  0.00975622  0.74024378  1
  Be  Be16  1  0.74024360  0.74024360  0.00975640  1
  Be  Be17  1  0.74025308  0.00974892  0.74023425  1
  Be  Be18  1  0.25974692  0.99025108  0.99023625  1
  Be  Be19  1  0.00974892  0.74025308  0.74023425  1
  Be  Be20  1  0.17612523  0.17612523  0.70439101  1
  Be  Be21  1  0.82386664  0.29561376  0.55664398  1
  Be  Be22  1  0.55664636  0.82387308  0.82388091  1
  Be  Be23  1  0.82387308  0.55664736  0.82388091  1
  Be  Be24  1  0.29561376  0.82386664  0.55664398  1
  Be  Be25  1  0.29560398  0.55665031  0.82387285  1
  Be  Be26  1  0.55665031  0.29560298  0.82387285  1
  Be  Be27  1  0.70438624  0.17613336  0.17612538  1
  Be  Be28  1  0.17613336  0.70438624  0.17612538  1
  Be  Be29  1  0.44335364  0.17612692  0.70440135  1
  Be  Be30  1  0.17612692  0.44335264  0.70440135  1
  Be  Be31  1  0.44335364  0.17612692  0.17611909  1
  Be  Be32  1  0.70438624  0.17613336  0.44335602  1
  Be  Be33  1  0.17613336  0.70438624  0.44335602  1
  Be  Be34  1  0.17612692  0.44335264  0.17611909  1
  Be  Be35  1  0.55664636  0.82387308  0.29559865  1
  Be  Be36  1  0.82387308  0.55664736  0.29559865  1
  Be  Be37  1  0.82387477  0.82387477  0.55664048  1
  Be  Be38  1  0.82387477  0.82387477  0.29560899  1
  Be  Be39  1  0.29561376  0.82386664  0.82387462  1
  Be  Be40  1  0.82386664  0.29561376  0.82387462  1
  Be  Be41  1  0.70439602  0.44334969  0.17612715  1
  Be  Be42  1  0.44334969  0.70439702  0.17612715  1
  Be  Be43  1  0.17612523  0.17612523  0.44335952  1
  Mo  Mo0  1  0.37500008  0.37500008  0.37499992  1
  Mo  Mo1  1  0.62499992  0.62499992  0.62500008  1
loop_
_geom_bond_atom_site_label_1
_geom_bond_atom_site_label_2
_geom_bond_distance
_geom_bond_site_symmetry_2
Be0 Be14 2.049007 1_545
Be0 Be12 2.049007 1_454
Be0 Be18 2.049007 1_544
Be0 Be8 2.049007 1_455
Be0 Be9 2.049068 1_445
Be0 Be15 2.049068 1_554
Be0 Be20 2.260829 1_554
Be0 Be38 2.260829 1_445
Be0 Be40 2.260888 1_454
Be0 Be28 2.260888 1_545
Be0 Be39 2.260888 1_544
Be0 Be27 2.260888 1_455
Be1 Be19 2.049007 1_545
Be1 Be11 2.049007 1_455
Be1 Be13 2.049007 1_545
Be1 Be17 2.049007 1_455
Be1 Be15 2.049068 1_555
Be1 Be9 2.049068 1_445
Be1 Be43 2.260833 1_555
Be1 Be37 2.260833 1_445
Be1 Be33 2.260884 1_545
Be1 Be21 2.260884 1_455
Be1 Be32 2.260884 1_455
Be1 Be24 2.260884 1_545
Be2 Be8 2.049158 1_555
Be2 Be29 2.260768 1_554
Be2 Be35 2.260768 1_545
Be2 Be31 2.260775 1_555
Be2 Be22 2.260775 1_544
Be2 Be42 2.260824 1_545
Be2 Be26 2.260824 1_554
Be3 Be30 2.260772 1_554
Be3 Be36 2.260772 1_455
Be3 Be34 2.260772 1_555
Be3 Be41 2.260831 1_455
Be4 Be41 2.461294 1_555
Be4 Be42 2.461294 1_555
Be4 Mo1 2.505777 1_555
Be4 Mo0 2.505777 1_555
Be5 Mo0 2.505777 1_555
Be5 Mo1 2.505777 1_554
Be6 Mo0 2.505803 1_555
Be6 Mo1 2.505803 1_455
Be7 Mo1 2.505803 1_545
Be7 Mo0 2.505803 1_555
Be10 Be2 2.049098 1_556
Be10 Be3 2.049098 1_556
Be10 Be26 2.201977 1_555
Be10 Be25 2.201980 1_555
Be10 Be13 2.205667 1_546
Be10 Be11 2.205667 1_456
Be10 Be18 2.205667 1_545
Be10 Be12 2.205667 1_455
Be10 Be29 2.292624 1_555
Be10 Be30 2.292624 1_555
Be10 Be34 2.292624 1_556
Be10 Be31 2.292631 1_556
Be11 Be3 2.049158 1_655
Be11 Be21 2.201915 1_555
Be11 Be36 2.201987 1_555
Be11 Be13 2.205537 1_645
Be11 Be9 2.205649 1_545
Be11 Be12 2.205780 1_554
Be11 Be43 2.292621 1_655
Be11 Be34 2.292646 1_655
Be11 Be32 2.292727 1_555
Be11 Be41 2.292764 1_555
Be12 Be3 2.049158 1_656
Be12 Be40 2.201922 1_555
Be12 Be23 2.201987 1_555
Be12 Be18 2.205537 1_645
Be12 Be9 2.205649 1_546
Be12 Be20 2.292614 1_655
Be12 Be30 2.292646 1_655
Be12 Be27 2.292727 1_556
Be12 Be41 2.292764 1_556
Be13 Be2 2.049158 1_565
Be13 Be24 2.201915 1_555
Be13 Be35 2.201980 1_555
Be13 Be9 2.205649 1_455
Be13 Be18 2.205780 1_554
Be13 Be43 2.292621 1_565
Be13 Be31 2.292653 1_565
Be13 Be33 2.292727 1_555
Be13 Be42 2.292757 1_555
Be14 Be3 2.049158 1_555
Be14 Be28 2.201922 1_555
Be14 Be34 2.201987 1_555
Be14 Be8 2.205537 1_465
Be14 Be15 2.205649 1_564
Be14 Be16 2.205667 1_455
Be14 Be19 2.205780 1_554
Be14 Be38 2.292614 1_455
Be14 Be36 2.292646 1_455
Be14 Be39 2.292727 1_554
Be14 Be25 2.292764 1_554
Be15 Be43 2.201923 1_555
Be15 Be20 2.201927 1_555
Be15 Be8 2.205649 1_456
Be15 Be19 2.205649 1_545
Be15 Be17 2.205649 1_455
Be15 Be40 2.292751 1_455
Be15 Be39 2.292751 1_545
Be15 Be21 2.292755 1_455
Be15 Be24 2.292755 1_545
Be16 Be2 2.049098 1_565
Be16 Be3 2.049098 1_655
Be16 Be42 2.201977 1_555
Be16 Be41 2.201980 1_555
Be16 Be17 2.205667 1_564
Be16 Be19 2.205667 1_654
Be16 Be8 2.205667 1_565
Be16 Be35 2.292624 1_555
Be16 Be36 2.292624 1_555
Be16 Be23 2.292624 1_554
Be16 Be22 2.292631 1_554
Be17 Be2 2.049158 1_556
Be17 Be32 2.201915 1_555
Be17 Be29 2.201980 1_555
Be17 Be19 2.205537 1_645
Be17 Be8 2.205780 1_556
Be17 Be37 2.292621 1_545
Be17 Be22 2.292653 1_545
Be17 Be21 2.292727 1_555
Be17 Be26 2.292757 1_555
Be18 Be2 2.049158 1_566
Be18 Be39 2.201922 1_555
Be18 Be22 2.201983 1_555
Be18 Be9 2.205649 1_456
Be18 Be20 2.292614 1_565
Be18 Be29 2.292650 1_565
Be18 Be28 2.292727 1_556
Be18 Be42 2.292761 1_556
Be19 Be3 2.049158 1_556
Be19 Be33 2.201915 1_555
Be19 Be30 2.201987 1_555
Be19 Be37 2.292621 1_455
Be19 Be23 2.292646 1_455
Be19 Be24 2.292727 1_555
Be19 Be25 2.292764 1_555
Be20 Be43 2.136234 1_555
Be20 Be30 2.187005 1_555
Be20 Be29 2.187013 1_555
Be20 Be39 2.354023 1_545
Be20 Be40 2.354024 1_455
Be20 Be6 2.461295 1_555
Be20 Be7 2.461295 1_555
Be20 Mo0 2.537485 1_555
Be21 Be36 2.136314 1_555
Be21 Be26 2.186917 1_555
Be21 Be40 2.186967 1_555
Be21 Be32 2.353934 1_555
Be21 Be43 2.354024 1_655
Be21 Be4 2.461248 1_555
Be21 Be6 2.461294 1_655
Be21 Mo1 2.537456 1_555
Be22 Be39 2.136311 1_555
Be22 Be23 2.186963 1_555
Be22 Be37 2.187013 1_555
Be22 Be42 2.353916 1_556
Be22 Be29 2.353991 1_565
Be22 Be5 2.461296 1_556
Be22 Be7 2.461335 1_565
Be22 Mo1 2.537526 1_555
Be23 Be40 2.136319 1_555
Be23 Be37 2.187009 1_555
Be23 Be3 2.260772 1_656
Be23 Be41 2.353916 1_556
Be23 Be30 2.353991 1_655
Be23 Be5 2.461300 1_556
Be23 Be6 2.461339 1_655
Be23 Mo1 2.537530 1_555
Be24 Be35 2.136310 1_555
Be24 Be25 2.186916 1_555
Be24 Be39 2.186967 1_555
Be24 Be33 2.353934 1_555
Be24 Be43 2.354024 1_565
Be24 Be4 2.461248 1_555
Be24 Be7 2.461294 1_565
Be24 Mo1 2.537456 1_555
Be25 Be26 2.136391 1_555
Be25 Be39 2.186913 1_555
Be25 Be3 2.260831 1_556
Be25 Be34 2.353916 1_556
Be25 Be30 2.353916 1_555
Be25 Be4 2.461294 1_555
Be25 Be5 2.461294 1_556
Be25 Mo1 2.537494 1_555
Be26 Be40 2.186917 1_555
Be26 Be8 2.292761 1_556
Be26 Be29 2.353903 1_555
Be26 Be31 2.353916 1_556
Be26 Be4 2.461294 1_555
Be26 Be5 2.461301 1_556
Be26 Mo1 2.537501 1_555
Be27 Be31 2.136311 1_555
Be27 Be41 2.186913 1_555
Be27 Be32 2.186967 1_555
Be27 Be8 2.201922 1_555
Be27 Be9 2.292751 1_545
Be27 Be40 2.353948 1_554
Be27 Be38 2.354023 1_545
Be27 Be5 2.461251 1_555
Be27 Be7 2.461290 1_555
Be27 Mo0 2.537452 1_555
Be28 Be34 2.136319 1_555
Be28 Be42 2.186917 1_555
Be28 Be33 2.186967 1_555
Be28 Be9 2.292751 1_455
Be28 Be39 2.353948 1_554
Be28 Be38 2.354024 1_455
Be28 Be5 2.461251 1_555
Be28 Be6 2.461290 1_555
Be28 Mo0 2.537452 1_555
Be29 Be32 2.136310 1_555
Be29 Be30 2.186963 1_555
Be29 Be4 2.461297 1_555
Be29 Be7 2.461343 1_555
Be29 Mo0 2.537533 1_555
Be30 Be33 2.136314 1_555
Be30 Be4 2.461300 1_555
Be30 Be6 2.461339 1_555
Be30 Mo0 2.537529 1_555
Be31 Be34 2.186963 1_555
Be31 Be43 2.187013 1_555
Be31 Be8 2.201983 1_555
Be31 Be35 2.353991 1_545
Be31 Be5 2.461296 1_555
Be31 Be7 2.461335 1_555
Be31 Mo0 2.537526 1_555
Be32 Be41 2.186916 1_555
Be32 Be9 2.292755 1_545
Be32 Be37 2.354024 1_545
Be32 Be4 2.461248 1_555
Be32 Be7 2.461294 1_555
Be32 Mo0 2.537456 1_555
Be33 Be42 2.186917 1_555
Be33 Be9 2.292755 1_455
Be33 Be37 2.354024 1_455
Be33 Be4 2.461248 1_555
Be33 Be6 2.461294 1_555
Be33 Mo0 2.537456 1_555
Be34 Be43 2.187009 1_555
Be34 Be36 2.353991 1_455
Be34 Be5 2.461300 1_555
Be34 Be6 2.461339 1_555
Be34 Mo0 2.537530 1_555
Be35 Be36 2.186963 1_555
Be35 Be38 2.187013 1_555
Be35 Be8 2.292650 1_565
Be35 Be42 2.353903 1_555
Be35 Be4 2.461297 1_555
Be35 Be7 2.461343 1_565
Be35 Mo1 2.537533 1_555
Be36 Be38 2.187005 1_555
Be36 Be41 2.353916 1_555
Be36 Be4 2.461300 1_555
Be36 Be6 2.461339 1_655
Be36 Mo1 2.537529 1_555
Be37 Be38 2.136234 1_555
Be37 Be9 2.201923 1_555
Be37 Be6 2.461291 1_655
Be37 Be7 2.461291 1_565
Be37 Mo1 2.537482 1_555
Be38 Be9 2.201927 1_555
Be38 Be8 2.292614 1_565
Be38 Be6 2.461295 1_655
Be38 Be7 2.461295 1_565
Be38 Mo1 2.537485 1_555
Be39 Be5 2.461251 1_556
Be39 Be7 2.461290 1_565
Be39 Mo1 2.537452 1_555
Be40 Be8 2.292727 1_556
Be40 Be5 2.461251 1_556
Be40 Be6 2.461290 1_655
Be40 Mo1 2.537452 1_555
Be41 Be42 2.136391 1_555
Be41 Be5 2.461294 1_555
Be41 Mo0 2.537494 1_555
Be42 Be5 2.461301 1_555
Be42 Mo0 2.537501 1_555
Be43 Be6 2.461291 1_555
Be43 Be7 2.461291 1_555
Be43 Mo0 2.537482 1_555
