# generated using pymatgen
data_Hf4IrPtN
_symmetry_space_group_name_H-M   'P 1'
_cell_length_a   8.69791489
_cell_length_b   8.69791444
_cell_length_c   8.69791489
_cell_angle_alpha   60.00000205
_cell_angle_beta   60.00000375
_cell_angle_gamma   60.00000080
_symmetry_Int_Tables_number   1
_chemical_formula_structural   Hf4IrPtN
_chemical_formula_sum   'Hf16 Ir4 Pt4 N4'
_cell_volume   465.29722526
_cell_formula_units_Z   4
loop_
 _symmetry_equiv_pos_site_id
 _symmetry_equiv_pos_as_xyz
  1  'x, y, z'
loop_
 _atom_site_type_symbol
 _atom_site_label
 _atom_site_symmetry_multiplicity
 _atom_site_fract_x
 _atom_site_fract_y
 _atom_site_fract_z
 _atom_site_occupancy
  Hf  Hf0  1  0.12020089  0.62659937  0.62659937  1
  Hf  Hf1  1  0.62659937  0.12020089  0.62659937  1
  Hf  Hf2  1  0.62659937  0.62659937  0.12020089  1
  Hf  Hf3  1  0.62659937  0.62659937  0.62659937  1
  Hf  Hf4  1  0.81484029  0.81484029  0.18515971  1
  Hf  Hf5  1  0.18515971  0.18515971  0.81484029  1
  Hf  Hf6  1  0.81484029  0.18515971  0.81484029  1
  Hf  Hf7  1  0.18515971  0.81484029  0.18515971  1
  Hf  Hf8  1  0.18515971  0.81484029  0.81484029  1
  Hf  Hf9  1  0.81484029  0.18515971  0.18515971  1
  Hf  Hf10  1  0.43187311  0.43187311  0.06812689  1
  Hf  Hf11  1  0.06812689  0.06812689  0.43187311  1
  Hf  Hf12  1  0.43187311  0.06812689  0.43187311  1
  Hf  Hf13  1  0.06812689  0.43187311  0.06812689  1
  Hf  Hf14  1  0.06812689  0.43187311  0.43187311  1
  Hf  Hf15  1  0.43187311  0.06812689  0.06812689  1
  Ir  Ir0  1  0.76436285  0.41187872  0.41187872  1
  Ir  Ir1  1  0.41187872  0.76436285  0.41187872  1
  Ir  Ir2  1  0.41187872  0.41187872  0.76436285  1
  Ir  Ir3  1  0.41187872  0.41187872  0.41187872  1
  Pt  Pt0  1  0.46302395  0.84565868  0.84565868  1
  Pt  Pt1  1  0.84565868  0.46302395  0.84565868  1
  Pt  Pt2  1  0.84565868  0.84565868  0.46302395  1
  Pt  Pt3  1  0.84565868  0.84565868  0.84565868  1
  N  N0  1  0.62467343  0.12510852  0.12510852  1
  N  N1  1  0.12510852  0.62467343  0.12510852  1
  N  N2  1  0.12510852  0.12510852  0.62467343  1
  N  N3  1  0.12510852  0.12510852  0.12510852  1
loop_
_geom_bond_atom_site_label_1
_geom_bond_atom_site_label_2
_geom_bond_distance
_geom_bond_site_symmetry_2
Hf0 Ir2 2.724716 1_555
Hf0 Ir3 2.724716 1_555
Hf0 Ir1 2.724716 1_555
Hf0 Pt2 2.737453 1_455
Hf0 Pt1 2.737453 1_455
Hf0 Pt3 2.737458 1_455
Hf1 Ir2 2.724716 1_555
Hf1 Ir3 2.724716 1_555
Hf1 Ir0 2.724716 1_555
Hf1 Pt2 2.737453 1_545
Hf1 Pt0 2.737453 1_545
Hf1 Pt3 2.737458 1_545
Hf2 Ir0 2.724716 1_555
Hf2 Ir1 2.724716 1_555
Hf2 Ir3 2.724716 1_555
Hf2 Pt0 2.737453 1_554
Hf2 Pt1 2.737453 1_554
Hf2 Pt3 2.737458 1_554
Hf3 Ir0 2.724716 1_555
Hf3 Ir1 2.724716 1_555
Hf3 Ir2 2.724716 1_555
Hf3 Pt0 2.737460 1_555
Hf3 Pt1 2.737460 1_555
Hf3 Pt2 2.737460 1_555
Hf4 N0 2.298308 1_565
Hf4 N1 2.298308 1_655
Hf4 Pt2 2.711525 1_555
Hf4 Pt3 2.711525 1_554
Hf5 N3 2.298306 1_556
Hf5 N2 2.298314 1_555
Hf5 Pt0 2.711525 1_545
Hf5 Pt1 2.711525 1_455
Hf6 N2 2.298308 1_655
Hf6 N0 2.298308 1_556
Hf6 Pt3 2.711525 1_545
Hf6 Pt1 2.711525 1_555
Hf7 N3 2.298305 1_565
Hf7 N1 2.298314 1_555
Hf7 Pt2 2.711526 1_455
Hf7 Pt0 2.711526 1_554
Hf8 N2 2.298308 1_565
Hf8 N1 2.298308 1_556
Hf8 Pt0 2.711525 1_555
Hf8 Pt3 2.711525 1_455
Hf9 N3 2.298306 1_655
Hf9 N0 2.298314 1_555
Hf9 Pt2 2.711525 1_545
Hf9 Pt1 2.711526 1_554
Hf10 N0 2.282854 1_555
Hf10 N1 2.282854 1_555
Hf10 Ir3 2.826734 1_555
Hf10 Ir2 2.826743 1_554
Hf11 N2 2.282848 1_555
Hf11 N3 2.282856 1_555
Hf11 Ir0 2.826738 1_455
Hf11 Ir1 2.826738 1_545
Hf12 N2 2.282854 1_555
Hf12 N0 2.282854 1_555
Hf12 Ir3 2.826734 1_555
Hf12 Ir1 2.826743 1_545
Hf13 N1 2.282848 1_555
Hf13 N3 2.282856 1_555
Hf13 Ir2 2.826738 1_554
Hf13 Ir0 2.826738 1_455
Hf14 N2 2.282854 1_555
Hf14 N1 2.282854 1_555
Hf14 Ir3 2.826734 1_555
Hf14 Ir0 2.826743 1_455
Hf15 N0 2.282848 1_555
Hf15 N3 2.282856 1_555
Hf15 Ir2 2.826738 1_554
Hf15 Ir1 2.826738 1_545
