# generated using pymatgen
data_SrTeF6
_symmetry_space_group_name_H-M   'P 1'
_cell_length_a   12.40217904
_cell_length_b   4.52184256
_cell_length_c   8.25312765
_cell_angle_alpha   78.37732884
_cell_angle_beta   90.00000000
_cell_angle_gamma   90.00000000
_symmetry_Int_Tables_number   1
_chemical_formula_structural   SrTeF6
_chemical_formula_sum   'Sr4 Te4 F24'
_cell_volume   453.35090724
_cell_formula_units_Z   4
loop_
 _symmetry_equiv_pos_site_id
 _symmetry_equiv_pos_as_xyz
  1  'x, y, z'
loop_
 _atom_site_type_symbol
 _atom_site_label
 _atom_site_symmetry_multiplicity
 _atom_site_fract_x
 _atom_site_fract_y
 _atom_site_fract_z
 _atom_site_occupancy
  Sr  Sr0  1  0.50597092  0.34758036  0.79398985  1
  Sr  Sr1  1  0.00597092  0.65241964  0.70601015  1
  Sr  Sr2  1  0.49402908  0.65241964  0.20601015  1
  Sr  Sr3  1  0.99402908  0.34758036  0.29398985  1
  Te  Te0  1  0.77525314  0.92938087  0.96527303  1
  Te  Te1  1  0.27525314  0.07061913  0.53472697  1
  Te  Te2  1  0.22474686  0.07061913  0.03472697  1
  Te  Te3  1  0.72474686  0.92938087  0.46527303  1
  F  F0  1  0.66012459  0.10534939  0.63332723  1
  F  F1  1  0.16012459  0.89465061  0.86667277  1
  F  F2  1  0.33987541  0.89465061  0.36667277  1
  F  F3  1  0.83987541  0.10534939  0.13332723  1
  F  F4  1  0.80559825  0.73424948  0.67546817  1
  F  F5  1  0.30559825  0.26575052  0.82453183  1
  F  F6  1  0.19440175  0.26575052  0.32453183  1
  F  F7  1  0.69440175  0.73424948  0.17546817  1
  F  F8  1  0.45455309  0.20260559  0.08964152  1
  F  F9  1  0.95455309  0.79739441  0.41035848  1
  F  F10  1  0.54544691  0.79739441  0.91035848  1
  F  F11  1  0.04544691  0.20260559  0.58964152  1
  F  F12  1  0.40707187  0.33452254  0.47868403  1
  F  F13  1  0.90707187  0.66547746  0.02131597  1
  F  F14  1  0.59292813  0.66547746  0.52131597  1
  F  F15  1  0.09292813  0.33452254  0.97868403  1
  F  F16  1  0.88369168  0.18366956  0.82857544  1
  F  F17  1  0.38369168  0.81633044  0.67142456  1
  F  F18  1  0.11630832  0.81633044  0.17142456  1
  F  F19  1  0.61630832  0.18366956  0.32857544  1
  F  F20  1  0.68805552  0.30452574  0.94353016  1
  F  F21  1  0.18805552  0.69547426  0.55646984  1
  F  F22  1  0.31194448  0.69547426  0.05646984  1
  F  F23  1  0.81194448  0.30452574  0.44353016  1
loop_
_geom_bond_atom_site_label_1
_geom_bond_atom_site_label_2
_geom_bond_distance
_geom_bond_site_symmetry_2
F0 Te3 1.908887 1_545
F0 Sr0 2.682962 1_555
F1 Te2 1.908887 1_566
F1 Sr1 2.682962 1_555
F2 Te1 1.908887 1_565
F2 Sr2 2.682962 1_555
F3 Te0 1.908887 1_544
F3 Sr3 2.682962 1_555
F4 Te3 2.043693 1_555
F4 Sr1 2.517615 1_655
F5 Te2 2.043693 1_556
F5 Sr0 2.517615 1_555
F6 Te1 2.043693 1_555
F6 Sr3 2.517615 1_455
F7 Te0 2.043693 1_554
F7 Sr2 2.517615 1_555
F8 Sr2 2.467041 1_555
F8 Sr0 2.479058 1_554
F8 Sr2 2.527598 1_545
F9 Sr3 2.467041 1_555
F9 Sr1 2.479058 1_655
F9 Sr3 2.527598 1_565
F10 Sr0 2.467041 1_555
F10 Sr2 2.479058 1_556
F10 Sr0 2.527598 1_565
F11 Sr1 2.467041 1_555
F11 Sr3 2.479058 1_455
F11 Sr1 2.527598 1_545
F12 Te1 2.021947 1_555
F12 Sr2 2.643923 1_555
F12 Sr0 2.888184 1_555
F13 Te0 2.021947 1_554
F13 Sr3 2.643923 1_555
F13 Sr1 2.888184 1_654
F14 Te3 2.021947 1_555
F14 Sr0 2.643923 1_555
F14 Sr2 2.888184 1_555
F15 Te2 2.021947 1_556
F15 Sr1 2.643923 1_555
F15 Sr3 2.888184 1_456
F16 Te0 1.970012 1_545
F16 Sr1 2.636652 1_655
F17 Te1 1.970012 1_565
F17 Sr0 2.636652 1_555
F18 Te2 1.970012 1_565
F18 Sr3 2.636652 1_455
F19 Te3 1.970012 1_545
F19 Sr2 2.636652 1_555
F20 Te0 1.989133 1_545
F20 Sr0 2.562021 1_555
F21 Te1 1.989133 1_565
F21 Sr1 2.562021 1_555
F22 Te2 1.989133 1_565
F22 Sr2 2.562021 1_555
F23 Te3 1.989133 1_545
F23 Sr3 2.562021 1_555
