# generated using pymatgen
data_Lu7Sc3(Ga2Te)2
_symmetry_space_group_name_H-M   'P 1'
_cell_length_a   8.37909023
_cell_length_b   8.37528228
_cell_length_c   6.13570845
_cell_angle_alpha   89.96664792
_cell_angle_beta   90.01666325
_cell_angle_gamma   119.98495981
_symmetry_Int_Tables_number   1
_chemical_formula_structural   Lu7Sc3(Ga2Te)2
_chemical_formula_sum   'Lu7 Sc3 Ga4 Te2'
_cell_volume   372.95582379
_cell_formula_units_Z   1
loop_
 _symmetry_equiv_pos_site_id
 _symmetry_equiv_pos_as_xyz
  1  'x, y, z'
loop_
 _atom_site_type_symbol
 _atom_site_label
 _atom_site_symmetry_multiplicity
 _atom_site_fract_x
 _atom_site_fract_y
 _atom_site_fract_z
 _atom_site_occupancy
  Lu  Lu0  1  0.31153388  0.65576794  0.00000000  1
  Lu  Lu1  1  0.23292171  0.99940779  0.25048227  1
  Lu  Lu2  1  0.23292171  0.23351392  0.74951773  1
  Lu  Lu3  1  0.01426202  0.76363694  0.74664459  1
  Lu  Lu4  1  0.01426202  0.25062508  0.25335541  1
  Lu  Lu5  1  0.76377178  0.74711929  0.24904982  1
  Lu  Lu6  1  0.76377178  0.01665249  0.75095018  1
  Sc  Sc0  1  0.66970164  0.33484932  0.50000000  1
  Sc  Sc1  1  0.67587818  0.33793859  1.00000000  1
  Sc  Sc2  1  0.31676240  0.65838170  0.50000000  1
  Ga  Ga0  1  0.99454792  0.39742970  0.74166487  1
  Ga  Ga1  1  0.99454792  0.59711921  0.25833513  1
  Ga  Ga2  1  0.40098838  0.39549583  0.25062160  1
  Ga  Ga3  1  0.40098838  0.00549356  0.74937840  1
  Te  Te0  1  0.60656865  0.99780857  0.25297224  1
  Te  Te1  1  0.60656865  0.60876007  0.74702776  1
loop_
_geom_bond_atom_site_label_1
_geom_bond_atom_site_label_2
_geom_bond_distance
_geom_bond_site_symmetry_2
Lu0 Sc2 3.068089 1_554
Lu0 Sc2 3.068089 1_555
Lu0 Te0 3.106661 1_555
Lu0 Te1 3.106669 1_554
Lu1 Te0 3.137569 1_555
Lu2 Te1 3.137570 1_555
Lu3 Te1 2.987168 1_455
Lu4 Te0 2.987168 1_445
Lu5 Te0 2.984691 1_555
Lu5 Te1 3.299418 1_555
Lu5 Te1 3.322948 1_554
Lu6 Te1 2.984692 1_545
Lu6 Te0 3.299418 1_545
Lu6 Te0 3.322948 1_546
Sc0 Te0 3.009544 1_545
Sc0 Te1 3.009565 1_555
Sc1 Te0 3.033685 1_546
Sc1 Te1 3.033692 1_555
Sc2 Te0 3.061466 1_555
Sc2 Te1 3.061470 1_555
Ga0 Lu6 2.783660 1_555
Ga0 Sc2 2.892247 1_655
Ga0 Sc0 2.907707 1_555
Ga0 Lu0 2.916478 1_656
Ga0 Sc1 2.926123 1_555
Ga0 Lu2 2.935492 1_655
Ga0 Lu3 2.988135 1_655
Ga0 Lu4 3.274657 1_655
Ga0 Lu4 3.405030 1_656
Ga1 Lu5 2.783653 1_555
Ga1 Sc2 2.892247 1_655
Ga1 Sc0 2.907717 1_555
Ga1 Lu0 2.916475 1_655
Ga1 Sc1 2.926128 1_554
Ga1 Lu1 2.935486 1_655
Ga1 Lu4 2.988143 1_655
Ga1 Lu3 3.274654 1_655
Ga1 Lu3 3.405027 1_654
Ga2 Lu4 2.835990 1_555
Ga2 Lu1 2.884172 1_545
Ga2 Sc0 2.968002 1_555
Ga2 Lu5 2.994190 1_555
Ga2 Sc1 3.002515 1_554
Ga2 Sc2 3.040507 1_555
Ga2 Lu0 3.050707 1_555
Ga2 Lu2 3.358856 1_555
Ga2 Lu2 3.371897 1_554
Ga3 Lu3 2.835992 1_545
Ga3 Lu2 2.884164 1_555
Ga3 Sc0 2.967984 1_555
Ga3 Lu6 2.994194 1_555
Ga3 Sc1 3.002506 1_555
Ga3 Sc2 3.040507 1_545
Ga3 Lu0 3.050700 1_546
Ga3 Lu1 3.358854 1_545
Ga3 Lu1 3.371895 1_546
