# generated using pymatgen
data_Ca6Al24Os7Rh
_symmetry_space_group_name_H-M   'P 1'
_cell_length_a   8.81859643
_cell_length_b   8.81859617
_cell_length_c   9.59182183
_cell_angle_alpha   89.83374018
_cell_angle_beta   90.16626147
_cell_angle_gamma   119.93146455
_symmetry_Int_Tables_number   1
_chemical_formula_structural   Ca6Al24Os7Rh
_chemical_formula_sum   'Ca6 Al24 Os7 Rh1'
_cell_volume   646.43927141
_cell_formula_units_Z   1
loop_
 _symmetry_equiv_pos_site_id
 _symmetry_equiv_pos_as_xyz
  1  'x, y, z'
loop_
 _atom_site_type_symbol
 _atom_site_label
 _atom_site_symmetry_multiplicity
 _atom_site_fract_x
 _atom_site_fract_y
 _atom_site_fract_z
 _atom_site_occupancy
  Ca  Ca0  1  0.19180434  0.38702254  0.25090545  1
  Ca  Ca1  1  0.80819566  0.61297746  0.74909455  1
  Ca  Ca2  1  0.61297746  0.80819566  0.25090545  1
  Ca  Ca3  1  0.38702254  0.19180434  0.74909455  1
  Ca  Ca4  1  0.19522414  0.80477586  0.24993792  1
  Ca  Ca5  1  0.80477586  0.19522414  0.75006208  1
  Al  Al0  1  0.33272894  0.66727106  0.99271595  1
  Al  Al1  1  0.66727106  0.33272894  0.00728405  1
  Al  Al2  1  0.66646063  0.33353937  0.49688607  1
  Al  Al3  1  0.33353937  0.66646063  0.50311393  1
  Al  Al4  1  0.16297355  0.32499638  0.57191213  1
  Al  Al5  1  0.83702645  0.67500362  0.42808787  1
  Al  Al6  1  0.67500362  0.83702645  0.57191213  1
  Al  Al7  1  0.84027266  0.67579904  0.07331125  1
  Al  Al8  1  0.32499638  0.16297355  0.42808787  1
  Al  Al9  1  0.15972734  0.32420096  0.92668875  1
  Al  Al10  1  0.16291495  0.83708505  0.56997391  1
  Al  Al11  1  0.32420096  0.15972734  0.07331125  1
  Al  Al12  1  0.83708505  0.16291495  0.43002609  1
  Al  Al13  1  0.67579904  0.84027266  0.92668875  1
  Al  Al14  1  0.83764696  0.16235304  0.07101012  1
  Al  Al15  1  0.16235304  0.83764696  0.92898988  1
  Al  Al16  1  0.56039753  0.12324253  0.25003065  1
  Al  Al17  1  0.43960247  0.87675747  0.74996935  1
  Al  Al18  1  0.87675747  0.43960247  0.25003065  1
  Al  Al19  1  0.12324253  0.56039753  0.74996935  1
  Al  Al20  1  0.56144388  0.43855612  0.25044386  1
  Al  Al21  1  0.43855612  0.56144388  0.74955614  1
  Al  Al22  1  0.00058388  0.99941612  0.25014280  1
  Al  Al23  1  0.99941612  0.00058388  0.74985720  1
  Os  Os0  1  0.50000000  0.00000000  0.00000000  1
  Os  Os1  1  0.00000000  0.50000000  0.00000000  1
  Os  Os2  1  0.50000000  0.00000000  0.50000000  1
  Os  Os3  1  0.00000000  0.50000000  0.50000000  1
  Os  Os4  1  0.50000000  0.50000000  0.50000000  1
  Os  Os5  1  0.00000000  0.00000000  0.00000000  1
  Os  Os6  1  0.00000000  0.00000000  0.50000000  1
  Rh  Rh0  1  0.50000000  0.50000000  0.00000000  1
loop_
_geom_bond_atom_site_label_1
_geom_bond_atom_site_label_2
_geom_bond_distance
_geom_bond_site_symmetry_2
Ca0 Os3 3.358748 1_555
Ca0 Os1 3.360012 1_555
Ca0 Os4 3.370741 1_555
Ca0 Rh0 3.390150 1_555
Ca0 Ca4 3.669028 1_555
Ca0 Ca2 3.718003 1_555
Ca1 Os3 3.358748 1_655
Ca1 Os1 3.360012 1_656
Ca1 Os4 3.370741 1_555
Ca1 Rh0 3.390150 1_556
Ca1 Ca5 3.669028 1_555
Ca1 Ca3 3.718003 1_555
Ca2 Os2 3.358748 1_565
Ca2 Os0 3.360012 1_565
Ca2 Os4 3.370741 1_555
Ca2 Rh0 3.390150 1_555
Ca2 Ca4 3.669028 1_555
Ca3 Os2 3.358748 1_555
Ca3 Os0 3.360012 1_556
Ca3 Os4 3.370741 1_555
Ca3 Rh0 3.390150 1_556
Ca3 Ca5 3.669028 1_555
Ca4 Os2 3.362985 1_565
Ca4 Os3 3.362985 1_555
Ca4 Os1 3.366132 1_555
Ca4 Os0 3.366132 1_565
Ca5 Os2 3.362985 1_555
Ca5 Os3 3.362985 1_655
Ca5 Os1 3.366132 1_656
Ca5 Os0 3.366132 1_556
Al0 Os0 2.543947 1_566
Al0 Os1 2.543947 1_556
Al0 Rh0 2.554780 1_556
Al0 Al15 2.670317 1_555
Al0 Al9 2.698353 1_555
Al0 Al13 2.698353 1_555
Al0 Al19 2.823596 1_555
Al0 Al17 2.823596 1_555
Al0 Al21 2.841856 1_555
Al0 Ca4 3.245009 1_556
Al0 Ca2 3.271499 1_556
Al0 Ca0 3.271499 1_556
Al1 Os0 2.543947 1_555
Al1 Os1 2.543947 1_655
Al1 Rh0 2.554780 1_555
Al1 Al14 2.670317 1_555
Al1 Al7 2.698353 1_555
Al1 Al11 2.698353 1_555
Al1 Al18 2.823596 1_555
Al1 Al16 2.823596 1_555
Al1 Al20 2.841856 1_555
Al1 Ca5 3.245009 1_554
Al1 Ca3 3.271499 1_554
Al1 Ca1 3.271499 1_554
Al2 Os4 2.541960 1_555
Al2 Os2 2.549165 1_555
Al2 Os3 2.549165 1_655
Al2 Al5 2.690676 1_555
Al2 Al8 2.690676 1_555
Al2 Al20 2.851927 1_555
Al2 Ca5 3.212958 1_555
Al2 Ca1 3.229610 1_555
Al2 Ca3 3.229610 1_555
Al3 Os4 2.541960 1_555
Al3 Os2 2.549165 1_565
Al3 Os3 2.549165 1_555
Al3 Al4 2.690676 1_555
Al3 Al6 2.690676 1_555
Al3 Ca4 3.212958 1_555
Al3 Ca0 3.229610 1_555
Al3 Ca2 3.229610 1_555
Al4 Os6 2.578870 1_555
Al4 Os4 2.668205 1_555
Al4 Os3 2.669182 1_555
Al4 Al8 2.836600 1_555
Al4 Ca0 3.114531 1_555
Al4 Ca3 3.233653 1_555
Al4 Ca5 3.258856 1_455
Al5 Os6 2.578870 1_665
Al5 Os4 2.668205 1_555
Al5 Os3 2.669182 1_655
Al5 Al6 2.836600 1_555
Al5 Ca1 3.114531 1_555
Al5 Ca2 3.233653 1_555
Al5 Ca4 3.258856 1_655
Al6 Os6 2.578870 1_665
Al6 Os4 2.668205 1_555
Al6 Os2 2.669182 1_565
Al6 Ca2 3.114531 1_555
Al6 Ca1 3.233653 1_555
Al6 Ca5 3.258856 1_565
Al7 Os5 2.574439 1_665
Al7 Os1 2.659556 1_655
Al7 Rh0 2.693318 1_555
Al7 Ca1 3.147455 1_554
Al7 Ca4 3.223261 1_655
Al7 Ca2 3.263346 1_555
Al8 Os6 2.578870 1_555
Al8 Os4 2.668205 1_555
Al8 Os2 2.669182 1_555
Al8 Ca3 3.114531 1_555
Al8 Ca0 3.233653 1_555
Al8 Ca4 3.258856 1_545
Al9 Os5 2.574439 1_556
Al9 Os1 2.659556 1_556
Al9 Rh0 2.693318 1_556
Al9 Ca0 3.147455 1_556
Al9 Ca5 3.223261 1_455
Al9 Ca3 3.263346 1_555
Al10 Os6 2.574328 1_565
Al10 Os3 2.663666 1_555
Al10 Os2 2.663666 1_565
Al10 Al3 2.685119 1_555
Al10 Al8 2.836145 1_565
Al10 Al5 2.836145 1_455
Al10 Al19 2.860753 1_555
Al10 Al17 2.860753 1_555
Al10 Al23 3.039445 1_465
Al10 Ca4 3.110748 1_555
Al10 Ca3 3.238051 1_565
Al10 Ca1 3.238051 1_455
Al11 Os5 2.574440 1_555
Al11 Os0 2.659556 1_555
Al11 Rh0 2.693318 1_555
Al11 Al16 2.821425 1_555
Al11 Al15 2.826052 1_544
Al11 Al20 2.860034 1_555
Al11 Al9 2.874208 1_554
Al11 Al22 3.001321 1_545
Al11 Ca3 3.147455 1_554
Al11 Ca4 3.223261 1_545
Al11 Ca0 3.263346 1_555
Al12 Os6 2.574328 1_655
Al12 Os3 2.663666 1_655
Al12 Os2 2.663666 1_555
Al12 Al2 2.685119 1_555
Al12 Al6 2.836145 1_545
Al12 Al4 2.836145 1_655
Al12 Al18 2.860753 1_555
Al12 Al16 2.860753 1_555
Al12 Al22 3.039445 1_645
Al12 Ca5 3.110748 1_555
Al12 Ca2 3.238051 1_545
Al12 Ca0 3.238051 1_655
Al13 Os5 2.574440 1_666
Al13 Os0 2.659556 1_566
Al13 Rh0 2.693318 1_556
Al13 Al17 2.821425 1_555
Al13 Al14 2.826052 1_566
Al13 Al21 2.860034 1_555
Al13 Al7 2.874208 1_556
Al13 Al23 3.001321 1_565
Al13 Ca2 3.147455 1_556
Al13 Ca5 3.223261 1_565
Al13 Ca1 3.263346 1_555
Al14 Os5 2.573035 1_655
Al14 Os1 2.668212 1_655
Al14 Os0 2.668212 1_555
Al14 Al9 2.826052 1_654
Al14 Al18 2.867874 1_555
Al14 Al16 2.867874 1_555
Al14 Al22 3.018797 1_645
Al14 Ca5 3.117462 1_554
Al14 Ca0 3.235831 1_655
Al14 Ca2 3.235831 1_545
Al15 Os5 2.573035 1_566
Al15 Os1 2.668212 1_556
Al15 Os0 2.668212 1_566
Al15 Al7 2.826052 1_456
Al15 Al19 2.867874 1_555
Al15 Al17 2.867874 1_555
Al15 Al23 3.018797 1_465
Al15 Ca4 3.117462 1_556
Al15 Ca1 3.235831 1_455
Al15 Ca3 3.235831 1_565
Al16 Os2 2.574544 1_555
Al16 Os0 2.578085 1_555
Al16 Al20 2.776045 1_555
Al16 Al18 2.792740 1_555
Al16 Al8 2.845863 1_555
Al16 Al2 2.863944 1_555
Al16 Ca2 3.036324 1_545
Al16 Ca4 3.038491 1_545
Al17 Os2 2.574544 1_565
Al17 Os0 2.578085 1_566
Al17 Al21 2.776045 1_555
Al17 Al19 2.792740 1_555
Al17 Al6 2.845863 1_555
Al17 Al3 2.863944 1_555
Al17 Ca3 3.036324 1_565
Al17 Ca5 3.038491 1_565
Al18 Os3 2.574544 1_655
Al18 Os1 2.578085 1_655
Al18 Al20 2.776045 1_555
Al18 Al7 2.821425 1_555
Al18 Al5 2.845862 1_555
Al18 Al2 2.863944 1_555
Al18 Ca0 3.036324 1_655
Al18 Ca4 3.038491 1_655
Al19 Os3 2.574544 1_555
Al19 Os1 2.578085 1_556
Al19 Al21 2.776045 1_555
Al19 Al9 2.821425 1_555
Al19 Al4 2.845862 1_555
Al19 Al3 2.863944 1_555
Al19 Ca1 3.036324 1_455
Al19 Ca5 3.038491 1_455
Al20 Os4 2.573915 1_555
Al20 Rh0 2.575987 1_555
Al20 Al5 2.845518 1_555
Al20 Al8 2.845518 1_555
Al20 Al7 2.860034 1_555
Al20 Ca2 3.058425 1_555
Al20 Ca0 3.058425 1_555
Al21 Os4 2.573915 1_555
Al21 Rh0 2.575987 1_556
Al21 Al4 2.845518 1_555
Al21 Al6 2.845518 1_555
Al21 Al3 2.851927 1_555
Al21 Al9 2.860034 1_555
Al21 Ca3 3.058425 1_555
Al21 Ca1 3.058425 1_555
Al22 Os6 2.396632 1_565
Al22 Os5 2.399312 1_565
Al22 Ca0 2.962326 1_565
Al22 Ca2 2.962326 1_455
Al22 Ca4 2.971965 1_555
Al22 Al7 3.001321 1_455
Al22 Al8 3.007702 1_565
Al22 Al5 3.007702 1_455
Al23 Os6 2.396632 1_655
Al23 Os5 2.399312 1_656
Al23 Ca1 2.962326 1_545
Al23 Ca3 2.962326 1_655
Al23 Ca5 2.971965 1_555
Al23 Al9 3.001321 1_655
Al23 Al6 3.007702 1_545
Al23 Al4 3.007702 1_655
