# generated using pymatgen
data_Zr5ZnSn2Sb
_symmetry_space_group_name_H-M   'P 1'
_cell_length_a   8.66401985
_cell_length_b   8.65820754
_cell_length_c   5.87090593
_cell_angle_alpha   90.00000000
_cell_angle_beta   90.00000000
_cell_angle_gamma   119.97780833
_symmetry_Int_Tables_number   1
_chemical_formula_structural   Zr5ZnSn2Sb
_chemical_formula_sum   'Zr10 Zn2 Sn4 Sb2'
_cell_volume   381.48745120
_cell_formula_units_Z   2
loop_
 _symmetry_equiv_pos_site_id
 _symmetry_equiv_pos_as_xyz
  1  'x, y, z'
loop_
 _atom_site_type_symbol
 _atom_site_label
 _atom_site_symmetry_multiplicity
 _atom_site_fract_x
 _atom_site_fract_y
 _atom_site_fract_z
 _atom_site_occupancy
  Zr  Zr0  1  0.66578220  0.33270854  0.00099157  1
  Zr  Zr1  1  0.33421780  0.66692734  0.00099157  1
  Zr  Zr2  1  0.33421780  0.66692734  0.49900843  1
  Zr  Zr3  1  0.66578220  0.33270854  0.49900843  1
  Zr  Zr4  1  0.73451835  0.73524583  0.75000000  1
  Zr  Zr5  1  0.26548165  0.00072749  0.75000000  1
  Zr  Zr6  1  0.00000000  0.26434095  0.75000000  1
  Zr  Zr7  1  0.26827773  0.26834349  0.25000000  1
  Zr  Zr8  1  0.73172227  0.00006676  0.25000000  1
  Zr  Zr9  1  1.00000000  0.73180045  0.25000000  1
  Zn  Zn0  1  0.00000000  0.99919621  0.00470165  1
  Zn  Zn1  1  0.00000000  0.99919621  0.49529835  1
  Sn  Sn0  1  0.00000000  0.61313170  0.75000000  1
  Sn  Sn1  1  0.61647354  0.61600223  0.25000000  1
  Sn  Sn2  1  0.38352646  0.99952869  0.25000000  1
  Sn  Sn3  1  1.00000000  0.38534595  0.25000000  1
  Sb  Sb0  1  0.38752603  0.38766366  0.75000000  1
  Sb  Sb1  1  0.61247397  0.00013763  0.75000000  1
loop_
_geom_bond_atom_site_label_1
_geom_bond_atom_site_label_2
_geom_bond_distance
_geom_bond_site_symmetry_2
Zn0 Zr9 2.726529 1_455
Zn0 Zr7 2.737548 1_565
Zn0 Zr8 2.737551 1_465
Zn0 Zr5 2.737946 1_564
Zn0 Zr4 2.737946 1_454
Zn0 Zr6 2.739735 1_564
Zn1 Zr9 2.726529 1_455
Zn1 Zr7 2.737548 1_565
Zn1 Zr8 2.737551 1_465
Zn1 Zr5 2.737946 1_565
Zn1 Zr4 2.737946 1_455
Zn1 Zr6 2.739735 1_565
Sn0 Zr4 2.973008 1_455
Sn0 Zr5 2.973008 1_565
Sn0 Zr6 3.019903 1_555
Sn0 Zr1 3.070076 1_556
Sn0 Zr2 3.070076 1_555
Sn0 Zr0 3.070079 1_456
Sn0 Zr3 3.070079 1_455
Sn0 Zr9 3.110073 1_455
Sn0 Zr9 3.110073 1_456
Sn1 Zr9 2.952533 1_555
Sn1 Zr8 2.955770 1_565
Sn1 Zr7 3.014455 1_555
Sn1 Zr3 3.063192 1_555
Sn1 Zr0 3.063192 1_555
Sn1 Zr2 3.064218 1_555
Sn1 Zr1 3.064218 1_555
Sn1 Zr4 3.110242 1_554
Sn1 Zr4 3.110242 1_555
Sn2 Zr9 2.952533 1_455
Sn2 Zr7 2.955761 1_565
Sn2 Zr8 3.014450 1_565
Sn2 Zr2 3.063185 1_555
Sn2 Zr1 3.063185 1_555
Sn2 Zr3 3.064213 1_565
Sn2 Zr0 3.064213 1_565
Sn2 Zr5 3.110242 1_565
Sn2 Zr5 3.110242 1_564
Sn3 Zr8 2.963433 1_555
Sn3 Zr7 2.963439 1_655
Sn3 Zr9 2.999675 1_555
Sn3 Zr3 3.067730 1_555
Sn3 Zr0 3.067730 1_555
Sn3 Zr2 3.067733 1_655
Sn3 Zr1 3.067733 1_655
Sn3 Zr6 3.116814 1_655
Sn3 Zr6 3.116814 1_654
Sb0 Zr5 2.966760 1_555
Sb0 Zr6 2.971618 1_555
Sb0 Zr4 3.008904 1_555
Sb0 Zr1 3.057289 1_556
Sb0 Zr2 3.057289 1_555
Sb0 Zr0 3.058776 1_556
Sb0 Zr3 3.058776 1_555
Sb0 Zr7 3.112068 1_555
Sb0 Zr7 3.112068 1_556
Sb1 Zr4 2.966760 1_545
Sb1 Zr6 2.971618 1_655
Sb1 Zr5 3.008903 1_555
Sb1 Zr0 3.057281 1_556
Sb1 Zr3 3.057281 1_555
Sb1 Zr1 3.058771 1_546
Sb1 Zr2 3.058771 1_545
Sb1 Zr8 3.112066 1_555
Sb1 Zr8 3.112066 1_556
