# generated using pymatgen
data_RbZnPdF5
_symmetry_space_group_name_H-M   'P 1'
_cell_length_a   6.14776192
_cell_length_b   7.43276496
_cell_length_c   10.59178966
_cell_angle_alpha   90.00000000
_cell_angle_beta   90.00000000
_cell_angle_gamma   90.00000000
_symmetry_Int_Tables_number   1
_chemical_formula_structural   RbZnPdF5
_chemical_formula_sum   'Rb4 Zn4 Pd4 F20'
_cell_volume   483.99044539
_cell_formula_units_Z   4
loop_
 _symmetry_equiv_pos_site_id
 _symmetry_equiv_pos_as_xyz
  1  'x, y, z'
loop_
 _atom_site_type_symbol
 _atom_site_label
 _atom_site_symmetry_multiplicity
 _atom_site_fract_x
 _atom_site_fract_y
 _atom_site_fract_z
 _atom_site_occupancy
  Rb  Rb0  1  0.97962779  0.25000000  0.86460125  1
  Rb  Rb1  1  0.52037221  0.75000000  0.36460125  1
  Rb  Rb2  1  0.02037221  0.75000000  0.13539875  1
  Rb  Rb3  1  0.47962779  0.25000000  0.63539875  1
  Zn  Zn0  1  0.50000000  0.00000000  0.00000000  1
  Zn  Zn1  1  0.00000000  0.00000000  0.50000000  1
  Zn  Zn2  1  0.50000000  0.50000000  0.00000000  1
  Zn  Zn3  1  0.00000000  0.50000000  0.50000000  1
  Pd  Pd0  1  0.19944577  0.75000000  0.78020278  1
  Pd  Pd1  1  0.69944577  0.75000000  0.71979722  1
  Pd  Pd2  1  0.30055423  0.25000000  0.28020278  1
  Pd  Pd3  1  0.80055423  0.25000000  0.21979722  1
  F  F0  1  0.18770974  0.55436530  0.65347034  1
  F  F1  1  0.71346506  0.93557287  0.58656694  1
  F  F2  1  0.81229026  0.44563470  0.34652966  1
  F  F3  1  0.21346506  0.56442713  0.91343306  1
  F  F4  1  0.78653494  0.06442713  0.08656694  1
  F  F5  1  0.02930073  0.75000000  0.43017029  1
  F  F6  1  0.28653494  0.43557287  0.41343306  1
  F  F7  1  0.68770974  0.55436530  0.84652966  1
  F  F8  1  0.97069927  0.25000000  0.56982971  1
  F  F9  1  0.18770974  0.94563470  0.65347034  1
  F  F10  1  0.78653494  0.43557287  0.08656694  1
  F  F11  1  0.81229026  0.05436530  0.34652966  1
  F  F12  1  0.68770974  0.94563470  0.84652966  1
  F  F13  1  0.31229026  0.44563470  0.15347034  1
  F  F14  1  0.52930073  0.75000000  0.06982971  1
  F  F15  1  0.28653494  0.06442713  0.41343306  1
  F  F16  1  0.31229026  0.05436530  0.15347034  1
  F  F17  1  0.21346506  0.93557287  0.91343306  1
  F  F18  1  0.47069927  0.25000000  0.93017029  1
  F  F19  1  0.71346506  0.56442713  0.58656694  1
loop_
_geom_bond_atom_site_label_1
_geom_bond_atom_site_label_2
_geom_bond_distance
_geom_bond_site_symmetry_2
F0 Pd0 1.980269 1_555
F0 Zn3 2.034041 1_555
F0 Rb3 2.894006 1_555
F0 Rb0 3.428582 1_455
F1 Pd1 1.975168 1_555
F1 Zn1 2.042811 1_665
F1 Rb3 2.792132 1_565
F1 Rb1 2.973040 1_555
F2 Pd3 1.980269 1_555
F2 Zn3 2.034041 1_655
F2 Rb1 2.894006 1_555
F2 Rb2 3.428582 1_655
F3 Pd0 1.975168 1_555
F3 Zn2 2.042811 1_556
F3 Rb0 2.792132 1_455
F3 Rb2 2.973040 1_556
F4 Pd3 1.975168 1_555
F4 Zn0 2.042811 1_555
F4 Rb2 2.792132 1_645
F4 Rb0 2.973040 1_554
F5 Zn3 2.008074 1_555
F5 Zn1 2.008074 1_565
F5 Rb1 3.097842 1_555
F5 Rb2 3.122641 1_555
F5 Rb1 3.204923 1_455
F6 Pd2 1.975168 1_555
F6 Zn3 2.042811 1_555
F6 Rb1 2.792132 1_555
F6 Rb3 2.973040 1_555
F7 Pd1 1.980269 1_555
F7 Zn2 2.034041 1_556
F7 Rb0 2.894006 1_555
F7 Rb3 3.428582 1_555
F8 Zn3 2.008074 1_655
F8 Zn1 2.008074 1_655
F8 Rb3 3.097842 1_555
F8 Rb0 3.122641 1_555
F8 Rb3 3.204923 1_655
F9 Pd0 1.980269 1_555
F9 Zn1 2.034041 1_565
F9 Rb3 2.894006 1_565
F9 Rb0 3.428582 1_465
F10 Pd3 1.975168 1_555
F10 Zn2 2.042811 1_555
F10 Rb2 2.792132 1_655
F10 Rb0 2.973040 1_554
F11 Pd3 1.980269 1_555
F11 Zn1 2.034041 1_655
F11 Rb1 2.894006 1_545
F11 Rb2 3.428582 1_645
F12 Pd1 1.980269 1_555
F12 Zn0 2.034041 1_566
F12 Rb0 2.894006 1_565
F12 Rb3 3.428582 1_565
F13 Pd2 1.980269 1_555
F13 Zn2 2.034041 1_555
F13 Rb2 2.894006 1_555
F13 Rb1 3.428582 1_555
F14 Zn0 2.008074 1_565
F14 Zn2 2.008074 1_555
F14 Rb2 3.097842 1_655
F14 Rb1 3.122641 1_555
F14 Rb2 3.204923 1_555
F15 Pd2 1.975168 1_555
F15 Zn1 2.042811 1_555
F15 Rb1 2.792132 1_545
F15 Rb3 2.973040 1_555
F16 Pd2 1.980269 1_555
F16 Zn0 2.034041 1_555
F16 Rb2 2.894006 1_545
F16 Rb1 3.428582 1_545
F17 Pd0 1.975168 1_555
F17 Zn0 2.042811 1_566
F17 Rb0 2.792132 1_465
F17 Rb2 2.973040 1_556
F18 Zn2 2.008074 1_556
F18 Zn0 2.008074 1_556
F18 Rb0 3.097842 1_455
F18 Rb3 3.122641 1_555
F18 Rb0 3.204923 1_555
F19 Pd1 1.975168 1_555
F19 Zn3 2.042811 1_655
F19 Rb3 2.792132 1_555
F19 Rb1 2.973040 1_555
