# generated using pymatgen
data_Zr3PN
_symmetry_space_group_name_H-M   'P 1'
_cell_length_a   5.78514102
_cell_length_b   5.78513980
_cell_length_c   8.42250159
_cell_angle_alpha   90.00000000
_cell_angle_beta   90.00000000
_cell_angle_gamma   145.20406457
_symmetry_Int_Tables_number   1
_chemical_formula_structural   Zr3PN
_chemical_formula_sum   'Zr6 P2 N2'
_cell_volume   160.85804114
_cell_formula_units_Z   2
loop_
 _symmetry_equiv_pos_site_id
 _symmetry_equiv_pos_as_xyz
  1  'x, y, z'
loop_
 _atom_site_type_symbol
 _atom_site_label
 _atom_site_symmetry_multiplicity
 _atom_site_fract_x
 _atom_site_fract_y
 _atom_site_fract_z
 _atom_site_occupancy
  Zr  Zr0  1  0.93577098  0.06422902  0.25000000  1
  Zr  Zr1  1  0.06422902  0.93577098  0.75000000  1
  Zr  Zr2  1  0.63439579  0.36560421  0.44267643  1
  Zr  Zr3  1  0.36560421  0.63439579  0.55732357  1
  Zr  Zr4  1  0.63439579  0.36560421  0.05732357  1
  Zr  Zr5  1  0.36560421  0.63439579  0.94267643  1
  P  P0  1  0.25511875  0.74488125  0.25000000  1
  P  P1  1  0.74488125  0.25511875  0.75000000  1
  N  N0  1  0.00000000  0.00000000  0.50000000  1
  N  N1  1  0.00000000  0.00000000  0.00000000  1
loop_
_geom_bond_atom_site_label_1
_geom_bond_atom_site_label_2
_geom_bond_distance
_geom_bond_site_symmetry_2
P0 Zr0 2.640173 1_455
P0 Zr0 2.640174 1_565
P0 Zr2 2.720725 1_565
P0 Zr4 2.720725 1_565
P0 Zr2 2.720726 1_455
P0 Zr4 2.720726 1_455
P0 Zr3 2.861478 1_555
P0 Zr5 2.861478 1_554
P1 Zr1 2.640173 1_655
P1 Zr1 2.640174 1_545
P1 Zr5 2.720725 1_545
P1 Zr3 2.720725 1_545
P1 Zr5 2.720726 1_655
P1 Zr3 2.720726 1_655
P1 Zr4 2.861478 1_556
P1 Zr2 2.861478 1_555
N0 Zr1 2.221835 1_545
N0 Zr0 2.221835 1_455
N0 Zr3 2.329621 1_555
N0 Zr2 2.329621 1_445
N0 Zr3 2.329621 1_445
N0 Zr2 2.329621 1_555
N1 Zr0 2.221835 1_455
N1 Zr1 2.221835 1_544
N1 Zr5 2.329621 1_554
N1 Zr4 2.329621 1_445
N1 Zr5 2.329621 1_444
N1 Zr4 2.329621 1_555
