# generated using pymatgen
data_NaSr2TcH6
_symmetry_space_group_name_H-M   'P 1'
_cell_length_a   5.54609102
_cell_length_b   5.54608950
_cell_length_c   5.54609102
_cell_angle_alpha   119.99999729
_cell_angle_beta   90.00000000
_cell_angle_gamma   119.99999729
_symmetry_Int_Tables_number   1
_chemical_formula_structural   NaSr2TcH6
_chemical_formula_sum   'Na1 Sr2 Tc1 H6'
_cell_volume   120.62738033
_cell_formula_units_Z   1
loop_
 _symmetry_equiv_pos_site_id
 _symmetry_equiv_pos_as_xyz
  1  'x, y, z'
loop_
 _atom_site_type_symbol
 _atom_site_label
 _atom_site_symmetry_multiplicity
 _atom_site_fract_x
 _atom_site_fract_y
 _atom_site_fract_z
 _atom_site_occupancy
  Na  Na0  1  0.50000100  0.00000000  0.50000100  1
  Sr  Sr0  1  0.74999800  0.49999800  0.25000000  1
  Sr  Sr1  1  0.24999900  0.49999800  0.75000100  1
  Tc  Tc0  1  0.00000000  0.00000000  0.00000000  1
  H  H0  1  0.22787158  1.00000000  0.22787158  1
  H  H1  1  0.22787158  0.45574315  0.22787158  1
  H  H2  1  0.77212842  0.00000000  0.22787258  1
  H  H3  1  0.77212842  0.54425685  0.77212842  1
  H  H4  1  0.22787258  0.00000000  0.77212842  1
  H  H5  1  0.77212942  0.00000000  0.77212942  1
loop_
_geom_bond_atom_site_label_1
_geom_bond_atom_site_label_2
_geom_bond_distance
_geom_bond_site_symmetry_2
H0 Tc0 1.787278 1_565
H0 Na0 2.134408 1_565
H0 Sr0 2.778460 1_565
H0 Sr1 2.778472 1_554
H0 Sr1 2.778472 1_565
H0 Sr0 2.778482 1_455
H1 Tc0 1.787278 1_555
H1 Na0 2.134400 1_565
H1 Sr1 2.778460 1_554
H1 Sr0 2.778466 1_555
H1 Sr0 2.778477 1_455
H1 Sr1 2.778482 1_555
H2 Tc0 1.787282 1_655
H2 Na0 2.134396 1_555
H2 Sr0 2.778468 1_555
H2 Sr1 2.778469 1_655
H2 Sr0 2.778474 1_545
H2 Sr1 2.778475 1_544
H3 Tc0 1.787278 1_666
H3 Na0 2.134400 1_555
H3 Sr0 2.778467 1_555
H3 Sr1 2.778472 1_655
H3 Sr1 2.778472 1_555
H3 Sr0 2.778478 1_556
H4 Tc0 1.787282 1_556
H4 Na0 2.134396 1_555
H4 Sr1 2.778462 1_555
H4 Sr0 2.778463 1_556
H4 Sr1 2.778478 1_545
H4 Sr0 2.778479 1_445
H5 Tc0 1.787270 1_656
H5 Na0 2.134400 1_555
H5 Sr1 2.778460 1_655
H5 Sr0 2.778472 1_556
H5 Sr0 2.778472 1_545
H5 Sr1 2.778483 1_545
