# generated using pymatgen
data_Li2Y6Ru3Rh
_symmetry_space_group_name_H-M   'P 1'
_cell_length_a   4.88625747
_cell_length_b   6.86907400
_cell_length_c   14.69980273
_cell_angle_alpha   90.00000000
_cell_angle_beta   90.00000000
_cell_angle_gamma   90.00000000
_symmetry_Int_Tables_number   1
_chemical_formula_structural   Li2Y6Ru3Rh
_chemical_formula_sum   'Li4 Y12 Ru6 Rh2'
_cell_volume   493.38512218
_cell_formula_units_Z   2
loop_
 _symmetry_equiv_pos_site_id
 _symmetry_equiv_pos_as_xyz
  1  'x, y, z'
loop_
 _atom_site_type_symbol
 _atom_site_label
 _atom_site_symmetry_multiplicity
 _atom_site_fract_x
 _atom_site_fract_y
 _atom_site_fract_z
 _atom_site_occupancy
  Li  Li0  1  0.00004951  0.00000000  0.99456068  1
  Li  Li1  1  0.49990738  0.50000100  0.16367255  1
  Li  Li2  1  0.99990738  0.00000000  0.33632845  1
  Li  Li3  1  0.50004951  0.50000100  0.50543932  1
  Y  Y0  1  0.50001414  0.25535337  0.99484621  1
  Y  Y1  1  0.50001414  0.74464663  0.99484621  1
  Y  Y2  1  0.99996344  0.24984519  0.16596895  1
  Y  Y3  1  0.99996344  0.75015481  0.16596895  1
  Y  Y4  1  0.49996344  0.25015381  0.33403205  1
  Y  Y5  1  0.49996344  0.74984619  0.33403205  1
  Y  Y6  1  0.00001414  0.24464663  0.50515379  1
  Y  Y7  1  0.00001414  0.75535337  0.50515379  1
  Y  Y8  1  0.50002720  0.24568250  0.67081997  1
  Y  Y9  1  0.50002720  0.75431750  0.67081997  1
  Y  Y10  1  0.00002720  0.25431650  0.82918003  1
  Y  Y11  1  0.00002720  0.74568350  0.82918003  1
  Ru  Ru0  1  0.00001535  0.50000100  0.00189312  1
  Ru  Ru1  1  0.49996473  0.00000000  0.16782872  1
  Ru  Ru2  1  0.99996473  0.50000100  0.33217128  1
  Ru  Ru3  1  0.50001535  0.00000000  0.49810688  1
  Ru  Ru4  1  0.00003870  0.50000100  0.66426204  1
  Ru  Ru5  1  0.50003870  0.00000000  0.83573796  1
  Rh  Rh0  1  0.00001578  0.00000000  0.66811600  1
  Rh  Rh1  1  0.50001578  0.50000100  0.83188400  1
loop_
_geom_bond_atom_site_label_1
_geom_bond_atom_site_label_2
_geom_bond_distance
_geom_bond_site_symmetry_2
Li0 Y10 2.993625 1_555
Li0 Y11 2.993625 1_545
Li0 Y0 3.007443 1_555
Li0 Y1 3.007443 1_545
Li0 Y1 3.007723 1_445
Li0 Y0 3.007723 1_455
Li0 Y2 3.048620 1_456
Li0 Y3 3.048620 1_446
Li1 Y3 2.986858 1_455
Li1 Y2 2.986866 1_455
Li1 Y3 2.987306 1_555
Li1 Y2 2.987314 1_555
Li1 Y1 2.997157 1_554
Li1 Y0 2.997164 1_554
Li1 Y5 3.035891 1_555
Li1 Y4 3.035899 1_555
Li2 Y4 2.986858 1_555
Li2 Y5 2.986858 1_545
Li2 Y4 2.987306 1_655
Li2 Y5 2.987306 1_645
Li2 Y7 2.997148 1_645
Li2 Y6 2.997148 1_655
Li2 Y2 3.035891 1_555
Li2 Y3 3.035891 1_545
Li3 Y9 2.993625 1_555
Li3 Y8 2.993633 1_555
Li3 Y7 3.007439 1_655
Li3 Y6 3.007447 1_655
Li3 Y7 3.007719 1_555
Li3 Y6 3.007728 1_555
Li3 Y5 3.048608 1_555
Li3 Y4 3.048616 1_555
Ru0 Y3 2.961388 1_455
Ru0 Y2 2.961396 1_455
Ru0 Y1 2.967090 1_554
Ru0 Y0 2.967098 1_554
Ru0 Y1 2.967100 1_454
Ru0 Y0 2.967107 1_454
Ru0 Y11 3.048571 1_554
Ru0 Y10 3.048578 1_554
Ru1 Y2 2.985792 1_555
Ru1 Y3 2.985792 1_545
Ru1 Y2 2.985802 1_455
Ru1 Y3 2.985802 1_445
Ru1 Y4 2.986914 1_555
Ru1 Y5 2.986914 1_545
Ru1 Y1 3.089100 1_544
Ru1 Y0 3.089100 1_554
Ru2 Y5 2.985792 1_655
Ru2 Y4 2.985800 1_655
Ru2 Y5 2.985803 1_555
Ru2 Y4 2.985810 1_555
Ru2 Y3 2.986902 1_555
Ru2 Y2 2.986910 1_555
Ru2 Y7 3.089096 1_655
Ru2 Y6 3.089104 1_655
Ru3 Y4 2.961376 1_555
Ru3 Y5 2.961376 1_545
Ru3 Y7 2.967094 1_645
Ru3 Y6 2.967094 1_655
Ru3 Y7 2.967104 1_545
Ru3 Y6 2.967104 1_555
Ru3 Y8 3.048571 1_555
Ru3 Y9 3.048571 1_545
Ru4 Y7 2.923509 1_555
Ru4 Y6 2.923517 1_555
Ru4 Y11 2.953824 1_555
Ru4 Y10 2.953832 1_555
Ru4 Y9 3.004933 1_555
Ru4 Y8 3.004941 1_555
Ru4 Y9 3.005024 1_455
Ru4 Y8 3.005032 1_455
Ru5 Y1 2.923513 1_545
Ru5 Y0 2.923513 1_555
Ru5 Y8 2.953824 1_555
Ru5 Y9 2.953824 1_545
Ru5 Y11 3.004933 1_645
Ru5 Y10 3.004933 1_655
Ru5 Y10 3.005024 1_555
Ru5 Y11 3.005024 1_545
Rh0 Y7 2.926183 1_545
Rh0 Y6 2.926183 1_555
Rh0 Y11 2.942329 1_545
Rh0 Y10 2.942329 1_555
Rh0 Y8 2.969548 1_455
Rh0 Y9 2.969548 1_445
Rh0 Y8 2.969640 1_555
Rh0 Y9 2.969640 1_545
Rh1 Y1 2.926179 1_555
Rh1 Y0 2.926187 1_555
Rh1 Y9 2.942329 1_555
Rh1 Y8 2.942337 1_555
Rh1 Y11 2.969548 1_555
Rh1 Y10 2.969556 1_555
Rh1 Y11 2.969640 1_655
Rh1 Y10 2.969648 1_655
