# generated using pymatgen
data_Na2AlAgP2
_symmetry_space_group_name_H-M   'P 1'
_cell_length_a   8.00270411
_cell_length_b   8.00270334
_cell_length_c   8.00270450
_cell_angle_alpha   136.51497828
_cell_angle_beta   137.73088555
_cell_angle_gamma   62.25429886
_symmetry_Int_Tables_number   1
_chemical_formula_structural   Na2AlAgP2
_chemical_formula_sum   'Na4 Al2 Ag2 P4'
_cell_volume   234.39340420
_cell_formula_units_Z   2
loop_
 _symmetry_equiv_pos_site_id
 _symmetry_equiv_pos_as_xyz
  1  'x, y, z'
loop_
 _atom_site_type_symbol
 _atom_site_label
 _atom_site_symmetry_multiplicity
 _atom_site_fract_x
 _atom_site_fract_y
 _atom_site_fract_z
 _atom_site_occupancy
  Na  Na0  1  0.10457191  0.82207579  0.28249512  1
  Na  Na1  1  0.53958167  0.32207579  0.21750488  1
  Na  Na2  1  0.46041833  0.67792421  0.78249512  1
  Na  Na3  1  0.89542809  0.17792421  0.71750488  1
  Al  Al0  1  0.00000000  0.25000000  0.25000000  1
  Al  Al1  1  0.00000000  0.75000000  0.75000000  1
  Ag  Ag0  1  0.50000000  0.75000000  0.25000000  1
  Ag  Ag1  1  0.50000000  0.25000000  0.75000000  1
  P  P0  1  0.09976090  0.39188000  0.70788089  1
  P  P1  1  0.90023910  0.60812000  0.29211911  1
  P  P2  1  0.68399911  0.89188000  0.79211911  1
  P  P3  1  0.31600089  0.10812000  0.20788089  1
loop_
_geom_bond_atom_site_label_1
_geom_bond_atom_site_label_2
_geom_bond_distance
_geom_bond_site_symmetry_2
Na0 P1 2.931938 1_455
Na0 P2 2.987152 1_454
Na0 P2 3.092582 1_555
Na0 P0 3.144560 1_554
Na0 P0 3.144565 1_565
Na1 P3 2.931938 1_555
Na1 P0 2.987147 1_655
Na1 P0 3.092588 1_554
Na1 P2 3.144559 1_544
Na1 P2 3.144564 1_555
Na2 P2 2.931938 1_555
Na2 P1 2.987147 1_455
Na2 P1 3.092588 1_556
Na2 P3 3.144559 1_566
Na2 P3 3.144564 1_555
Na3 P0 2.931938 1_655
Na3 P3 2.987152 1_656
Na3 P3 3.092582 1_555
Na3 P1 3.144560 1_556
Na3 P1 3.144565 1_545
Al0 P1 2.414670 1_455
Al0 P2 2.414670 1_444
Al0 P3 2.414670 1_555
Al0 P0 2.414671 1_555
Al1 P0 2.414670 1_555
Al1 P3 2.414670 1_566
Al1 P2 2.414670 1_455
Al1 P1 2.414671 1_455
Ag0 P3 2.689486 1_565
Ag0 P1 2.689487 1_555
Ag0 P0 2.689487 1_554
Ag0 P2 2.689487 1_555
Ag0 Al1 2.885451 1_655
Ag0 Al1 2.885451 1_554
Ag0 Ag1 2.964490 1_565
Ag0 Ag1 2.964490 1_554
Ag0 Na0 3.116903 1_555
Ag0 Na2 3.116906 1_554
Ag0 Na3 3.116906 1_565
Ag0 Na1 3.116908 1_555
Ag1 P2 2.689486 1_545
Ag1 P0 2.689487 1_555
Ag1 P1 2.689487 1_556
Ag1 P3 2.689487 1_555
Ag1 Al0 2.885451 1_555
Ag1 Al0 2.885451 1_656
Ag1 Na3 3.116903 1_555
Ag1 Na1 3.116906 1_556
Ag1 Na0 3.116906 1_545
Ag1 Na2 3.116908 1_555
