# generated using pymatgen
data_IrRhF6
_symmetry_space_group_name_H-M   'P 1'
_cell_length_a   5.35712428
_cell_length_b   5.35712384
_cell_length_c   5.35712455
_cell_angle_alpha   54.75736476
_cell_angle_beta   54.75737470
_cell_angle_gamma   54.75735533
_symmetry_Int_Tables_number   1
_chemical_formula_structural   IrRhF6
_chemical_formula_sum   'Ir1 Rh1 F6'
_cell_volume   95.43884785
_cell_formula_units_Z   1
loop_
 _symmetry_equiv_pos_site_id
 _symmetry_equiv_pos_as_xyz
  1  'x, y, z'
loop_
 _atom_site_type_symbol
 _atom_site_label
 _atom_site_symmetry_multiplicity
 _atom_site_fract_x
 _atom_site_fract_y
 _atom_site_fract_z
 _atom_site_occupancy
  Ir  Ir0  1  0.00000000  0.00000000  0.00000000  1
  Rh  Rh0  1  0.50000000  0.50000000  0.50000000  1
  F  F0  1  0.74917938  0.41992372  0.08114123  1
  F  F1  1  0.08114123  0.74917938  0.41992372  1
  F  F2  1  0.58007628  0.91885877  0.25082062  1
  F  F3  1  0.91885877  0.25082062  0.58007628  1
  F  F4  1  0.25082062  0.58007628  0.91885877  1
  F  F5  1  0.41992372  0.08114123  0.74917938  1
loop_
_geom_bond_atom_site_label_1
_geom_bond_atom_site_label_2
_geom_bond_distance
_geom_bond_site_symmetry_2
F0 Rh0 1.998528 1_555
F0 Ir0 2.005254 1_655
F1 Rh0 1.998527 1_555
F1 Ir0 2.005255 1_565
F2 Rh0 1.998527 1_555
F2 Ir0 2.005255 1_665
F3 Rh0 1.998527 1_555
F3 Ir0 2.005255 1_656
F4 Rh0 1.998528 1_555
F4 Ir0 2.005254 1_566
F5 Rh0 1.998527 1_555
F5 Ir0 2.005255 1_556
