# generated using pymatgen
data_Hf10C8O
_symmetry_space_group_name_H-M   'P 1'
_cell_length_a   8.65172423
_cell_length_b   8.65246384
_cell_length_c   10.83520178
_cell_angle_alpha   62.90515940
_cell_angle_beta   62.92622963
_cell_angle_gamma   44.37159914
_symmetry_Int_Tables_number   1
_chemical_formula_structural   Hf10C8O
_chemical_formula_sum   'Hf20 C16 O2'
_cell_volume   493.91025087
_cell_formula_units_Z   2
loop_
 _symmetry_equiv_pos_site_id
 _symmetry_equiv_pos_as_xyz
  1  'x, y, z'
loop_
 _atom_site_type_symbol
 _atom_site_label
 _atom_site_symmetry_multiplicity
 _atom_site_fract_x
 _atom_site_fract_y
 _atom_site_fract_z
 _atom_site_occupancy
  Hf  Hf0  1  0.23796181  0.47711508  0.94461522  1
  Hf  Hf1  1  0.71895777  0.97234155  0.95886139  1
  Hf  Hf2  1  0.56505953  0.33031715  0.64860733  1
  Hf  Hf3  1  0.43494047  0.66968285  0.35139267  1
  Hf  Hf4  1  0.28104223  0.02765845  0.04113861  1
  Hf  Hf5  1  0.08507707  0.81800077  0.64061347  1
  Hf  Hf6  1  0.12815411  0.36650921  0.74741406  1
  Hf  Hf7  1  0.91492293  0.18199923  0.35938653  1
  Hf  Hf8  1  0.96814789  0.72102388  0.45674507  1
  Hf  Hf9  1  0.76203819  0.52288492  0.05538478  1
  Hf  Hf10  1  0.61999581  0.88150235  0.74553651  1
  Hf  Hf11  1  0.81602897  0.08108585  0.14559964  1
  Hf  Hf12  1  0.47666783  0.22515646  0.44718064  1
  Hf  Hf13  1  0.67200759  0.43542717  0.85048698  1
  Hf  Hf14  1  0.52333217  0.77484354  0.55281936  1
  Hf  Hf15  1  0.32799241  0.56457283  0.14951302  1
  Hf  Hf16  1  0.38000419  0.11849765  0.25446349  1
  Hf  Hf17  1  0.18397103  0.91891415  0.85440036  1
  Hf  Hf18  1  0.03185211  0.27897612  0.54325493  1
  Hf  Hf19  1  0.87184589  0.63349079  0.25258594  1
  C  C0  1  0.57743872  0.82609331  0.14668040  1
  C  C1  1  0.77826203  0.02380651  0.55162412  1
  C  C2  1  0.42256128  0.17390669  0.85331960  1
  C  C3  1  0.62889460  0.37487291  0.24848666  1
  C  C4  1  0.27327597  0.52837154  0.55205122  1
  C  C5  1  0.47612193  0.72551989  0.95012616  1
  C  C6  1  0.32386447  0.07532963  0.65150117  1
  C  C7  1  0.17395316  0.42355938  0.35033693  1
  C  C8  1  0.97527802  0.22696137  0.95176319  1
  C  C9  1  0.82604684  0.57644062  0.64966307  1
  C  C10  1  0.02472198  0.77303863  0.04823681  1
  C  C11  1  0.67613553  0.92467037  0.34849883  1
  C  C12  1  0.72672403  0.47162846  0.44794878  1
  C  C13  1  0.52387807  0.27448011  0.04987384  1
  C  C14  1  0.37110540  0.62512709  0.75151334  1
  C  C15  1  0.22173797  0.97619349  0.44837588  1
  O  O0  1  0.07390319  0.32569190  0.14710203  1
  O  O1  1  0.92609681  0.67430810  0.85289797  1
loop_
_geom_bond_atom_site_label_1
_geom_bond_atom_site_label_2
_geom_bond_distance
_geom_bond_site_symmetry_2
Hf0 O1 2.343831 1_455
Hf0 O0 2.397972 1_556
Hf1 O1 2.323114 1_555
Hf4 O0 2.323114 1_555
Hf5 O1 2.385001 1_455
Hf6 O1 2.398567 1_455
Hf7 O0 2.385001 1_655
Hf9 O0 2.343831 1_655
Hf9 O1 2.397972 1_554
Hf10 O1 2.386990 1_555
Hf16 O0 2.386990 1_555
Hf19 O0 2.398567 1_655
C0 Hf1 2.200660 1_554
C0 Hf9 2.312520 1_555
C0 Hf16 2.319457 1_565
C0 Hf4 2.320360 1_565
C0 Hf19 2.330659 1_555
C0 Hf3 2.330886 1_555
C1 Hf7 2.254961 1_555
C1 Hf5 2.270456 1_645
C1 Hf10 2.289194 1_545
C1 Hf2 2.306668 1_555
C1 Hf8 2.319945 1_545
C1 Hf12 2.348904 1_555
C2 Hf4 2.200660 1_556
C2 Hf0 2.312520 1_555
C2 Hf10 2.319457 1_545
C2 Hf1 2.320360 1_545
C2 Hf6 2.330659 1_555
C2 Hf2 2.330886 1_555
C3 Hf9 2.195224 1_555
C3 Hf7 2.308410 1_555
C3 Hf3 2.309567 1_555
C3 Hf12 2.316292 1_555
C3 Hf11 2.319571 1_555
C3 Hf15 2.334617 1_555
C4 Hf5 2.187891 1_555
C4 Hf2 2.233884 1_555
C4 Hf6 2.326530 1_555
C4 Hf3 2.330992 1_555
C4 Hf8 2.331604 1_455
C4 Hf12 2.359252 1_555
C5 Hf17 2.241287 1_555
C5 Hf9 2.244980 1_556
C5 Hf13 2.249316 1_555
C5 Hf4 2.276121 1_566
C5 Hf10 2.334447 1_555
C5 Hf15 2.353653 1_556
C6 Hf6 2.231372 1_555
C6 Hf10 2.256472 1_545
C6 Hf18 2.305133 1_555
C6 Hf14 2.306361 1_545
C6 Hf17 2.310643 1_545
C6 Hf12 2.345443 1_555
C7 Hf18 2.218853 1_555
C7 Hf19 2.287548 1_455
C7 Hf15 2.294799 1_555
C7 Hf16 2.304159 1_555
C7 Hf12 2.310910 1_555
C7 Hf8 2.325259 1_455
C8 Hf4 2.280029 1_656
C8 Hf9 2.280377 1_556
C8 Hf6 2.300396 1_655
C8 Hf11 2.310794 1_556
C8 Hf13 2.322474 1_555
C8 Hf17 2.329065 1_645
C9 Hf8 2.218853 1_555
C9 Hf6 2.287548 1_655
C9 Hf13 2.294799 1_555
C9 Hf10 2.304159 1_555
C9 Hf14 2.310910 1_555
C9 Hf18 2.325259 1_655
C10 Hf1 2.280029 1_454
C10 Hf0 2.280377 1_554
C10 Hf19 2.300396 1_455
C10 Hf17 2.310794 1_554
C10 Hf15 2.322474 1_555
C10 Hf11 2.329065 1_465
C11 Hf19 2.231372 1_555
C11 Hf16 2.256472 1_565
C11 Hf8 2.305133 1_555
C11 Hf12 2.306361 1_565
C11 Hf11 2.310643 1_565
C11 Hf14 2.345443 1_555
C12 Hf7 2.187891 1_555
C12 Hf3 2.233884 1_555
C12 Hf19 2.326530 1_555
C12 Hf2 2.330992 1_555
C12 Hf18 2.331604 1_655
C12 Hf14 2.359252 1_555
C13 Hf11 2.241287 1_555
C13 Hf0 2.244980 1_554
C13 Hf15 2.249316 1_555
C13 Hf1 2.276121 1_544
C13 Hf16 2.334447 1_555
C13 Hf13 2.353653 1_554
C14 Hf0 2.195224 1_555
C14 Hf5 2.308410 1_555
C14 Hf2 2.309567 1_555
C14 Hf14 2.316292 1_555
C14 Hf17 2.319571 1_555
C14 Hf13 2.334617 1_555
C15 Hf5 2.254961 1_555
C15 Hf7 2.270456 1_465
C15 Hf16 2.289194 1_565
C15 Hf3 2.306668 1_555
C15 Hf18 2.319945 1_565
C15 Hf14 2.348904 1_555
