# generated using pymatgen
data_Sr2Mn(PtO3)6
_symmetry_space_group_name_H-M   'P 1'
_cell_length_a   6.66538083
_cell_length_b   7.03806366
_cell_length_c   7.41378368
_cell_angle_alpha   92.31793051
_cell_angle_beta   96.48470182
_cell_angle_gamma   114.66245733
_symmetry_Int_Tables_number   1
_chemical_formula_structural   Sr2Mn(PtO3)6
_chemical_formula_sum   'Sr2 Mn1 Pt6 O18'
_cell_volume   312.56343927
_cell_formula_units_Z   1
loop_
 _symmetry_equiv_pos_site_id
 _symmetry_equiv_pos_as_xyz
  1  'x, y, z'
loop_
 _atom_site_type_symbol
 _atom_site_label
 _atom_site_symmetry_multiplicity
 _atom_site_fract_x
 _atom_site_fract_y
 _atom_site_fract_z
 _atom_site_occupancy
  Sr  Sr0  1  0.68317055  0.31079477  0.37895037  1
  Sr  Sr1  1  0.31612673  0.68877559  0.61852242  1
  Mn  Mn0  1  0.60053894  0.71937701  0.11815578  1
  Pt  Pt0  1  0.19308696  0.87321385  0.18257512  1
  Pt  Pt1  1  0.18274954  0.38459801  0.19983134  1
  Pt  Pt2  1  0.99733361  0.99753243  0.49856723  1
  Pt  Pt3  1  0.82149083  0.62121814  0.80211401  1
  Pt  Pt4  1  0.80325885  0.12223763  0.81811832  1
  Pt  Pt5  1  0.40007746  0.28918267  0.88660506  1
  O  O0  1  0.69254631  0.49595487  0.02687125  1
  O  O1  1  0.88073863  0.22499339  0.07653460  1
  O  O2  1  0.30948574  0.17909493  0.12640943  1
  O  O3  1  0.50319701  0.91679067  0.16769610  1
  O  O4  1  0.89803574  0.87838121  0.23579234  1
  O  O5  1  0.09130696  0.60059134  0.28454169  1
  O  O6  1  0.49525108  0.56941007  0.31333143  1
  O  O7  1  0.07871158  0.28282367  0.43164068  1
  O  O8  1  0.28425863  0.00205597  0.43890271  1
  O  O9  1  0.71176765  0.99432721  0.56099048  1
  O  O10  1  0.92026004  0.71499966  0.56763975  1
  O  O11  1  0.51302042  0.44382156  0.67631038  1
  O  O12  1  0.90661243  0.39777995  0.71598583  1
  O  O13  1  0.08891348  0.10337532  0.76494602  1
  O  O14  1  0.49261224  0.07295055  0.81848485  1
  O  O15  1  0.69479245  0.82204990  0.88623937  1
  O  O16  1  0.12219991  0.77487690  0.92528865  1
  O  O17  1  0.31845522  0.51878972  0.97895479  1
loop_
_geom_bond_atom_site_label_1
_geom_bond_atom_site_label_2
_geom_bond_distance
_geom_bond_site_symmetry_2
Mn0 O3 1.803107 1_555
Mn0 O6 1.853392 1_555
Mn0 O4 1.903548 1_555
Mn0 O17 1.954965 1_554
Mn0 O15 1.959271 1_554
Mn0 O0 2.029575 1_555
O0 Pt5 2.012857 1_554
O0 Pt3 2.025449 1_554
O0 Sr0 2.959650 1_555
O1 Pt1 1.940062 1_655
O1 Pt4 1.952672 1_554
O1 Sr0 2.889047 1_555
O2 Pt5 2.022171 1_554
O2 Pt0 2.039977 1_545
O2 Pt1 2.040005 1_555
O2 Sr0 2.729105 1_555
O3 Pt0 1.975832 1_555
O3 Sr0 2.833702 1_565
O4 Pt2 2.012466 1_555
O4 Pt0 2.063590 1_655
O5 Pt1 1.964514 1_555
O5 Pt0 1.964716 1_555
O5 Sr1 2.650104 1_555
O5 Sr0 2.822316 1_455
O6 Pt1 1.998275 1_555
O6 Sr0 2.637257 1_555
O6 Sr1 2.923045 1_555
O7 Pt2 1.950520 1_445
O7 Pt1 1.975277 1_555
O7 Sr0 2.710877 1_455
O7 Sr1 2.828121 1_555
O8 Pt0 1.985652 1_545
O8 Pt2 1.998901 1_445
O8 Sr1 2.691549 1_545
O8 Sr0 2.740861 1_555
O9 Pt4 1.989148 1_565
O9 Pt2 2.000405 1_555
O9 Sr1 2.712258 1_555
O9 Sr0 2.712576 1_565
O10 Pt2 1.941518 1_555
O10 Pt3 1.969660 1_555
O10 Sr1 2.706624 1_655
O10 Sr0 2.823861 1_555
O11 Pt5 1.974987 1_555
O11 Pt3 1.996617 1_555
O11 Sr1 2.588238 1_555
O11 Sr0 2.882152 1_555
O12 Pt4 1.982527 1_555
O12 Pt3 1.986914 1_555
O12 Sr0 2.666684 1_555
O12 Sr1 2.840250 1_655
O13 Pt5 2.010921 1_555
O13 Pt2 2.014171 1_445
O13 Pt4 2.043153 1_455
O14 Pt5 1.934696 1_555
O14 Pt4 1.951810 1_555
O14 Sr1 2.742223 1_545
O15 Pt4 2.033587 1_565
O15 Pt3 2.035649 1_555
O15 Sr1 2.816329 1_555
O16 Pt3 1.928359 1_455
O16 Pt0 1.938405 1_556
O16 Sr1 2.901153 1_555
O17 Pt5 2.025958 1_555
O17 Pt1 2.034305 1_556
O17 Sr1 2.972667 1_555
