# generated using pymatgen
data_CaSn2F6
_symmetry_space_group_name_H-M   'P 1'
_cell_length_a   4.37706105
_cell_length_b   7.19743156
_cell_length_c   9.72729818
_cell_angle_alpha   99.09374662
_cell_angle_beta   101.20625752
_cell_angle_gamma   92.68299004
_symmetry_Int_Tables_number   1
_chemical_formula_structural   CaSn2F6
_chemical_formula_sum   'Ca2 Sn4 F12'
_cell_volume   295.87165981
_cell_formula_units_Z   2
loop_
 _symmetry_equiv_pos_site_id
 _symmetry_equiv_pos_as_xyz
  1  'x, y, z'
loop_
 _atom_site_type_symbol
 _atom_site_label
 _atom_site_symmetry_multiplicity
 _atom_site_fract_x
 _atom_site_fract_y
 _atom_site_fract_z
 _atom_site_occupancy
  Ca  Ca0  1  0.39786327  0.25632473  0.05185916  1
  Ca  Ca1  1  0.60213673  0.74367527  0.94814084  1
  Sn  Sn0  1  0.36751979  0.79424539  0.27551241  1
  Sn  Sn1  1  0.63248021  0.20575461  0.72448759  1
  Sn  Sn2  1  0.98157811  0.73180123  0.63127447  1
  Sn  Sn3  1  0.01842189  0.26819877  0.36872553  1
  F  F0  1  0.90992990  0.44256316  0.61189293  1
  F  F1  1  0.09007010  0.55743684  0.38810707  1
  F  F2  1  0.05830818  0.73414966  0.85446561  1
  F  F3  1  0.94169182  0.26585034  0.14553439  1
  F  F4  1  0.89422819  0.79047983  0.18208327  1
  F  F5  1  0.10577181  0.20952017  0.81791673  1
  F  F6  1  0.61960299  0.04088302  0.88986470  1
  F  F7  1  0.38039701  0.95911698  0.11013530  1
  F  F8  1  0.52798093  0.31641374  0.30799413  1
  F  F9  1  0.47201907  0.68358626  0.69200587  1
  F  F10  1  0.64342967  0.42121404  0.89642214  1
  F  F11  1  0.35657033  0.57878596  0.10357786  1
loop_
_geom_bond_atom_site_label_1
_geom_bond_atom_site_label_2
_geom_bond_distance
_geom_bond_site_symmetry_2
Ca0 F7 2.299546 1_545
Ca0 F11 2.319016 1_555
Ca0 F5 2.347990 1_554
Ca0 F3 2.349895 1_455
Ca0 F3 2.371303 1_555
Ca0 F6 2.406755 1_554
Ca0 F8 2.409104 1_555
Ca0 F10 2.435019 1_554
Ca1 F6 2.299546 1_565
Ca1 F10 2.319016 1_555
Ca1 F4 2.347990 1_556
Ca1 F2 2.349895 1_655
Ca1 F2 2.371303 1_555
Ca1 F7 2.406755 1_556
Ca1 F9 2.409104 1_555
Ca1 F11 2.435019 1_556
F0 Sn2 2.063856 1_555
F0 Sn1 2.548070 1_555
F0 Sn3 2.636182 1_655
F1 Sn3 2.063856 1_555
F1 Sn0 2.548070 1_555
F1 Sn2 2.636182 1_455
F2 Sn2 2.128611 1_455
F3 Sn3 2.128611 1_655
F4 Sn0 2.091288 1_655
F4 Sn0 2.637071 1_555
F5 Sn1 2.091288 1_455
F5 Sn1 2.637071 1_555
F6 Sn1 2.152102 1_555
F7 Sn0 2.152102 1_555
F8 Sn3 2.172400 1_655
F8 Sn3 2.438942 1_555
F9 Sn2 2.172400 1_455
F9 Sn2 2.438942 1_555
F10 Sn1 2.084781 1_555
F11 Sn0 2.084781 1_555
