# generated using pymatgen
data_Hf12Ga3Cu9N4
_symmetry_space_group_name_H-M   'P 1'
_cell_length_a   8.29924235
_cell_length_b   8.29924226
_cell_length_c   8.33625194
_cell_angle_alpha   60.14675398
_cell_angle_beta   60.14675964
_cell_angle_gamma   59.99999933
_symmetry_Int_Tables_number   1
_chemical_formula_structural   Hf12Ga3Cu9N4
_chemical_formula_sum   'Hf12 Ga3 Cu9 N4'
_cell_volume   406.90453615
_cell_formula_units_Z   1
loop_
 _symmetry_equiv_pos_site_id
 _symmetry_equiv_pos_as_xyz
  1  'x, y, z'
loop_
 _atom_site_type_symbol
 _atom_site_label
 _atom_site_symmetry_multiplicity
 _atom_site_fract_x
 _atom_site_fract_y
 _atom_site_fract_z
 _atom_site_occupancy
  Hf  Hf0  1  0.80844155  0.19414956  0.18896733  1
  Hf  Hf1  1  0.19414956  0.80844155  0.18896733  1
  Hf  Hf2  1  0.80844155  0.80844155  0.18896733  1
  Hf  Hf3  1  0.19091502  0.80839932  0.80976963  1
  Hf  Hf4  1  0.80839932  0.19091502  0.80976963  1
  Hf  Hf5  1  0.19091502  0.19091502  0.80976963  1
  Hf  Hf6  1  0.44155845  0.05585044  0.06103267  1
  Hf  Hf7  1  0.05585044  0.44155845  0.06103267  1
  Hf  Hf8  1  0.44155845  0.44155845  0.06103267  1
  Hf  Hf9  1  0.05908498  0.44160068  0.44023037  1
  Hf  Hf10  1  0.44160068  0.05908498  0.44023037  1
  Hf  Hf11  1  0.05908498  0.05908498  0.44023037  1
  Ga  Ga0  1  0.62500000  0.62500000  0.62500000  1
  Ga  Ga1  1  0.12500000  0.62500000  0.62500000  1
  Ga  Ga2  1  0.62500000  0.12500000  0.62500000  1
  Cu  Cu0  1  0.41697166  0.41697166  0.74908201  1
  Cu  Cu1  1  0.41932590  0.41932590  0.41428566  1
  Cu  Cu2  1  0.74706054  0.41932590  0.41428566  1
  Cu  Cu3  1  0.41932590  0.74706054  0.41428566  1
  Cu  Cu4  1  0.83302834  0.83302834  0.50091799  1
  Cu  Cu5  1  0.83067410  0.83067410  0.83571434  1
  Cu  Cu6  1  0.50293946  0.83067410  0.83571434  1
  Cu  Cu7  1  0.83067410  0.50293946  0.83571434  1
  Cu  Cu8  1  0.62500000  0.62500000  0.12500000  1
  N  N0  1  0.12500000  0.12500000  0.62500000  1
  N  N1  1  0.12500000  0.12500000  0.12500000  1
  N  N2  1  0.62500000  0.12500000  0.12500000  1
  N  N3  1  0.12500000  0.62500000  0.12500000  1
loop_
_geom_bond_atom_site_label_1
_geom_bond_atom_site_label_2
_geom_bond_distance
_geom_bond_site_symmetry_2
Hf0 N2 2.217674 1_555
Hf0 N1 2.217674 1_655
Hf1 N3 2.217674 1_555
Hf1 N1 2.217674 1_565
Hf2 N2 2.217674 1_565
Hf2 N3 2.217674 1_655
Hf3 N3 2.222832 1_556
Hf3 N0 2.224413 1_565
Hf4 N2 2.222832 1_556
Hf4 N0 2.224413 1_655
Hf5 N1 2.222833 1_556
Hf5 N0 2.224407 1_555
Hf6 N2 2.217674 1_555
Hf6 N1 2.217674 1_555
Hf7 N3 2.217674 1_555
Hf7 N1 2.217674 1_555
Hf8 N2 2.217674 1_555
Hf8 N3 2.217674 1_555
Hf9 N3 2.222832 1_555
Hf9 N0 2.224413 1_555
Hf10 N2 2.222832 1_555
Hf10 N0 2.224413 1_555
Hf11 N1 2.222833 1_555
Hf11 N0 2.224407 1_555
Ga0 Hf10 2.999003 1_565
Ga0 Hf4 2.999003 1_555
Ga0 Hf9 2.999003 1_655
Ga0 Hf3 2.999003 1_555
Ga0 Hf8 3.024426 1_556
Ga0 Hf2 3.024426 1_555
Ga1 Hf3 2.998997 1_555
Ga1 Hf9 2.998997 1_555
Ga1 Hf11 2.999004 1_565
Ga1 Hf5 2.999004 1_555
Ga1 Hf7 3.024426 1_556
Ga1 Hf1 3.024426 1_555
Ga2 Hf4 2.998997 1_555
Ga2 Hf10 2.998997 1_555
Ga2 Hf11 2.999005 1_655
Ga2 Hf5 2.999005 1_555
Ga2 Hf6 3.024426 1_556
Ga2 Hf0 3.024426 1_555
Cu0 Ga1 2.540906 1_555
Cu0 Ga2 2.540906 1_555
Cu0 Ga0 2.540927 1_555
Cu0 Cu1 2.771633 1_555
Cu0 Cu3 2.771638 1_555
Cu0 Cu2 2.771638 1_555
Cu0 Hf6 2.818508 1_556
Cu0 Hf7 2.818509 1_556
Cu0 Hf8 2.818522 1_556
Cu0 Hf5 2.987532 1_555
Cu0 Hf4 2.987546 1_555
Cu0 Hf3 2.987546 1_555
Cu1 Cu8 2.521968 1_555
Cu1 Ga2 2.551414 1_555
Cu1 Ga1 2.551414 1_555
Cu1 Cu3 2.719949 1_555
Cu1 Cu2 2.719949 1_555
Cu1 Hf8 2.773469 1_555
Cu1 Hf10 2.804065 1_555
Cu1 Hf9 2.804065 1_555
Cu1 Hf1 2.978253 1_555
Cu1 Hf0 2.978253 1_555
Cu1 Hf5 3.034103 1_555
Cu2 Cu8 2.521959 1_555
Cu2 Ga2 2.551405 1_555
Cu2 Ga0 2.551419 1_555
Cu2 Cu3 2.719949 1_555
Cu2 Hf7 2.773476 1_655
Cu2 Hf11 2.804075 1_655
Cu2 Hf9 2.804089 1_655
Cu2 Hf0 2.978245 1_555
Cu2 Hf2 2.978260 1_555
Cu2 Hf4 3.034106 1_555
Cu3 Cu8 2.521959 1_555
Cu3 Ga1 2.551405 1_555
Cu3 Ga0 2.551418 1_555
Cu3 Hf6 2.773476 1_565
Cu3 Hf11 2.804075 1_565
Cu3 Hf10 2.804089 1_565
Cu3 Hf1 2.978245 1_555
Cu3 Hf2 2.978260 1_555
Cu3 Hf3 3.034107 1_555
Cu4 Ga1 2.540906 1_655
Cu4 Ga2 2.540906 1_565
Cu4 Ga0 2.540927 1_555
Cu4 Cu5 2.771633 1_555
Cu4 Cu7 2.771638 1_555
Cu4 Cu6 2.771638 1_555
Cu4 Hf0 2.818508 1_565
Cu4 Hf1 2.818509 1_655
Cu4 Hf2 2.818522 1_555
Cu4 Hf11 2.987532 1_665
Cu4 Hf10 2.987546 1_565
Cu4 Hf9 2.987546 1_655
Cu5 Cu8 2.521968 1_556
Cu5 Ga2 2.551414 1_565
Cu5 Ga1 2.551414 1_655
Cu5 Cu7 2.719949 1_555
Cu5 Cu6 2.719949 1_555
Cu5 Hf2 2.773469 1_556
Cu5 Hf4 2.804065 1_565
Cu5 Hf3 2.804065 1_655
Cu5 Hf7 2.978253 1_656
Cu5 Hf6 2.978253 1_566
Cu5 Hf11 3.034103 1_665
Cu6 Cu8 2.521959 1_556
Cu6 Ga2 2.551405 1_565
Cu6 Ga0 2.551419 1_555
Cu6 Cu7 2.719949 1_555
Cu6 Hf1 2.773476 1_556
Cu6 Hf5 2.804075 1_565
Cu6 Hf3 2.804089 1_555
Cu6 Hf6 2.978245 1_566
Cu6 Hf8 2.978260 1_556
Cu6 Hf10 3.034106 1_565
Cu7 Cu8 2.521959 1_556
Cu7 Ga1 2.551405 1_655
Cu7 Ga0 2.551418 1_555
Cu7 Hf0 2.773476 1_556
Cu7 Hf5 2.804075 1_655
Cu7 Hf4 2.804089 1_555
Cu7 Hf7 2.978245 1_656
Cu7 Hf8 2.978260 1_556
Cu7 Hf9 3.034107 1_655
Cu8 Hf6 2.975592 1_565
Cu8 Hf0 2.975592 1_555
Cu8 Hf2 2.975592 1_555
Cu8 Hf8 2.975592 1_555
Cu8 Hf7 2.975592 1_655
Cu8 Hf1 2.975592 1_555
