# generated using pymatgen
data_Ga2Pd7Au
_symmetry_space_group_name_H-M   'P 1'
_cell_length_a   7.38569030
_cell_length_b   7.38568993
_cell_length_c   5.49656540
_cell_angle_alpha   71.37384976
_cell_angle_beta   71.37385298
_cell_angle_gamma   32.09611637
_symmetry_Int_Tables_number   1
_chemical_formula_structural   Ga2Pd7Au
_chemical_formula_sum   'Ga2 Pd7 Au1'
_cell_volume   150.25596385
_cell_formula_units_Z   1
loop_
 _symmetry_equiv_pos_site_id
 _symmetry_equiv_pos_as_xyz
  1  'x, y, z'
loop_
 _atom_site_type_symbol
 _atom_site_label
 _atom_site_symmetry_multiplicity
 _atom_site_fract_x
 _atom_site_fract_y
 _atom_site_fract_z
 _atom_site_occupancy
  Ga  Ga0  1  0.18926961  0.18926961  0.34749399  1
  Ga  Ga1  1  0.81073039  0.81073039  0.65250601  1
  Pd  Pd0  1  0.00000000  0.00000000  0.50000000  1
  Pd  Pd1  1  0.20908175  0.20908175  0.85482252  1
  Pd  Pd2  1  0.79091825  0.79091825  0.14517748  1
  Pd  Pd3  1  0.37862223  0.37862223  0.35613227  1
  Pd  Pd4  1  0.62137777  0.62137777  0.64386773  1
  Pd  Pd5  1  0.40513531  0.40513531  0.83068958  1
  Pd  Pd6  1  0.59486469  0.59486469  0.16931042  1
  Au  Au0  1  0.00000000  0.00000000  0.00000000  1
loop_
_geom_bond_atom_site_label_1
_geom_bond_atom_site_label_2
_geom_bond_distance
_geom_bond_site_symmetry_2
Ga0 Pd2 2.533946 1_455
Ga0 Pd2 2.533946 1_545
Ga0 Pd0 2.534690 1_555
Ga0 Pd4 2.589922 1_545
Ga0 Pd4 2.589922 1_455
Ga0 Pd1 2.627952 1_554
Ga0 Pd3 2.704152 1_555
Ga0 Pd6 2.792183 1_545
Ga0 Pd6 2.792183 1_455
Ga0 Pd1 2.894217 1_555
Ga1 Pd1 2.533946 1_655
Ga1 Pd1 2.533946 1_565
Ga1 Pd0 2.534690 1_665
Ga1 Pd3 2.589922 1_565
Ga1 Pd3 2.589922 1_655
Ga1 Pd2 2.627952 1_556
Ga1 Pd4 2.704152 1_555
Ga1 Pd5 2.792183 1_565
Ga1 Pd5 2.792183 1_655
Ga1 Pd2 2.894217 1_555
Pd0 Pd5 2.767497 1_545
Pd0 Pd6 2.767497 1_455
Pd0 Pd6 2.767497 1_545
Pd0 Pd5 2.767497 1_455
Pd0 Pd4 2.944238 1_455
Pd0 Pd3 2.944238 1_545
Pd0 Pd4 2.944238 1_545
Pd0 Pd3 2.944238 1_455
Pd1 Pd5 2.741897 1_555
Pd1 Pd6 2.814727 1_546
Pd1 Pd6 2.814728 1_456
Pd1 Pd4 2.832454 1_545
Pd1 Pd4 2.832454 1_455
Pd1 Pd3 2.986803 1_555
Pd1 Pd2 3.049215 1_456
Pd1 Pd2 3.049215 1_546
Pd2 Pd6 2.741897 1_555
Pd2 Pd5 2.814727 1_564
Pd2 Pd5 2.814728 1_654
Pd2 Pd3 2.832454 1_565
Pd2 Pd3 2.832454 1_655
Pd2 Pd4 2.986803 1_555
Pd3 Pd5 2.756473 1_555
Pd3 Pd5 2.785755 1_554
Pd3 Pd6 2.895242 1_555
Pd4 Pd6 2.756473 1_555
Pd4 Pd6 2.785755 1_556
Pd4 Pd5 2.895242 1_555
Au0 Pd0 2.748283 1_555
Au0 Pd0 2.748283 1_554
Au0 Pd6 2.771509 1_455
Au0 Pd5 2.771509 1_544
Au0 Pd6 2.771509 1_545
Au0 Pd5 2.771509 1_454
Au0 Pd1 2.805696 1_554
Au0 Pd2 2.805696 1_445
Au0 Pd3 2.954227 1_545
Au0 Pd4 2.954227 1_454
Au0 Pd4 2.954228 1_544
Au0 Pd3 2.954228 1_455
