# generated using pymatgen
data_Y4AsSe3
_symmetry_space_group_name_H-M   'P 1'
_cell_length_a   7.08405765
_cell_length_b   7.08405765
_cell_length_c   7.08405765
_cell_angle_alpha   131.92197578
_cell_angle_beta   131.92197578
_cell_angle_gamma   70.35228560
_symmetry_Int_Tables_number   1
_chemical_formula_structural   Y4AsSe3
_chemical_formula_sum   'Y4 As1 Se3'
_cell_volume   192.87971387
_cell_formula_units_Z   1
loop_
 _symmetry_equiv_pos_site_id
 _symmetry_equiv_pos_as_xyz
  1  'x, y, z'
loop_
 _atom_site_type_symbol
 _atom_site_label
 _atom_site_symmetry_multiplicity
 _atom_site_fract_x
 _atom_site_fract_y
 _atom_site_fract_z
 _atom_site_occupancy
  Y  Y0  1  0.24194479  0.24194479  0.00000000  1
  Y  Y1  1  0.75805521  0.75805521  -0.00000000  1
  Y  Y2  1  0.50000000  0.00000000  0.50000000  1
  Y  Y3  1  0.00000000  0.50000000  0.50000000  1
  As  As0  1  0.00000000  0.00000000  -0.00000000  1
  Se  Se0  1  0.75000000  0.25000000  0.50000000  1
  Se  Se1  1  0.25000000  0.75000000  0.50000000  1
  Se  Se2  1  0.50000000  0.50000000  -0.00000000  1
loop_
_geom_bond_atom_site_label_1
_geom_bond_atom_site_label_2
_geom_bond_distance
_geom_bond_site_symmetry_2
As0 Y0 2.801915 1_555
As0 Y1 2.801915 1_445
As0 Y2 2.885752 1_454
As0 Y2 2.885752 1_555
As0 Y3 2.885752 1_555
As0 Y3 2.885752 1_544
Se0 Y1 2.887259 1_545
Se0 Y1 2.887259 1_556
Se0 Y0 2.887259 1_555
Se0 Y0 2.887259 1_656
Se0 Y2 2.895201 1_555
Se0 Y3 2.895201 1_655
Se1 Y1 2.887259 1_556
Se1 Y0 2.887259 1_555
Se1 Y0 2.887259 1_566
Se1 Y1 2.887259 1_455
Se1 Y3 2.895201 1_555
Se1 Y2 2.895201 1_565
Se2 Y3 2.885752 1_554
Se2 Y3 2.885752 1_655
Se2 Y2 2.885752 1_565
Se2 Y2 2.885752 1_554
Se2 Y0 2.988486 1_555
Se2 Y1 2.988486 1_555
