# generated using pymatgen
data_Zr3AlPt2C
_symmetry_space_group_name_H-M   'P 1'
_cell_length_a   8.64672371
_cell_length_b   8.64672356
_cell_length_c   8.64672443
_cell_angle_alpha   60.00000044
_cell_angle_beta   60.00000100
_cell_angle_gamma   60.00000010
_symmetry_Int_Tables_number   1
_chemical_formula_structural   Zr3AlPt2C
_chemical_formula_sum   'Zr12 Al4 Pt8 C4'
_cell_volume   457.13006145
_cell_formula_units_Z   4
loop_
 _symmetry_equiv_pos_site_id
 _symmetry_equiv_pos_as_xyz
  1  'x, y, z'
loop_
 _atom_site_type_symbol
 _atom_site_label
 _atom_site_symmetry_multiplicity
 _atom_site_fract_x
 _atom_site_fract_y
 _atom_site_fract_z
 _atom_site_occupancy
  Zr  Zr0  1  0.80720434  0.80720434  0.19279566  1
  Zr  Zr1  1  0.19279566  0.19279566  0.80720434  1
  Zr  Zr2  1  0.80720434  0.19279566  0.80720434  1
  Zr  Zr3  1  0.19279566  0.80720434  0.19279566  1
  Zr  Zr4  1  0.19279566  0.80720434  0.80720434  1
  Zr  Zr5  1  0.80720434  0.19279566  0.19279566  1
  Zr  Zr6  1  0.44279566  0.44279566  0.05720434  1
  Zr  Zr7  1  0.05720434  0.05720434  0.44279566  1
  Zr  Zr8  1  0.44279566  0.05720434  0.44279566  1
  Zr  Zr9  1  0.05720434  0.44279566  0.05720434  1
  Zr  Zr10  1  0.05720434  0.44279566  0.44279566  1
  Zr  Zr11  1  0.44279566  0.05720434  0.05720434  1
  Al  Al0  1  0.12500000  0.62500000  0.62500000  1
  Al  Al1  1  0.62500000  0.12500000  0.62500000  1
  Al  Al2  1  0.62500000  0.62500000  0.12500000  1
  Al  Al3  1  0.62500000  0.62500000  0.62500000  1
  Pt  Pt0  1  0.75869043  0.41376986  0.41376986  1
  Pt  Pt1  1  0.41376986  0.75869043  0.41376986  1
  Pt  Pt2  1  0.41376986  0.41376986  0.75869043  1
  Pt  Pt3  1  0.41376986  0.41376986  0.41376986  1
  Pt  Pt4  1  0.49130957  0.83623014  0.83623014  1
  Pt  Pt5  1  0.83623014  0.49130957  0.83623014  1
  Pt  Pt6  1  0.83623014  0.83623014  0.49130957  1
  Pt  Pt7  1  0.83623014  0.83623014  0.83623014  1
  C  C0  1  0.62500000  0.12500000  0.12500000  1
  C  C1  1  0.12500000  0.62500000  0.12500000  1
  C  C2  1  0.12500000  0.12500000  0.62500000  1
  C  C3  1  0.12500000  0.12500000  0.12500000  1
loop_
_geom_bond_atom_site_label_1
_geom_bond_atom_site_label_2
_geom_bond_distance
_geom_bond_site_symmetry_2
Al0 Pt1 2.668586 1_555
Al0 Pt5 2.668586 1_455
Al0 Pt2 2.668586 1_555
Al0 Pt6 2.668586 1_455
Al0 Pt7 2.668586 1_455
Al0 Pt3 2.668586 1_555
Al1 Pt0 2.668586 1_555
Al1 Pt4 2.668586 1_545
Al1 Pt2 2.668586 1_555
Al1 Pt6 2.668586 1_545
Al1 Pt7 2.668586 1_545
Al1 Pt3 2.668586 1_555
Al2 Pt7 2.668586 1_554
Al2 Pt3 2.668586 1_555
Al2 Pt0 2.668586 1_555
Al2 Pt4 2.668586 1_554
Al2 Pt1 2.668586 1_555
Al2 Pt5 2.668586 1_554
Al3 Pt6 2.668586 1_555
Al3 Pt2 2.668586 1_555
Al3 Pt4 2.668586 1_555
Al3 Pt0 2.668586 1_555
Al3 Pt5 2.668586 1_555
Al3 Pt1 2.668586 1_555
Pt0 Zr7 2.854300 1_655
Pt0 Zr10 2.854300 1_655
Pt0 Zr9 2.854300 1_655
Pt0 Zr0 3.086308 1_555
Pt0 Zr5 3.086308 1_555
Pt0 Zr2 3.086308 1_555
Pt1 Zr8 2.854300 1_565
Pt1 Zr7 2.854300 1_565
Pt1 Zr11 2.854300 1_565
Pt1 Zr0 3.086308 1_555
Pt1 Zr3 3.086308 1_555
Pt1 Zr4 3.086308 1_555
Pt2 Zr11 2.854300 1_556
Pt2 Zr9 2.854300 1_556
Pt2 Zr6 2.854300 1_556
Pt2 Zr1 3.086308 1_555
Pt2 Zr4 3.086308 1_555
Pt2 Zr2 3.086308 1_555
Pt3 Zr8 2.854300 1_555
Pt3 Zr10 2.854300 1_555
Pt3 Zr6 2.854300 1_555
Pt3 Zr3 3.086308 1_555
Pt3 Zr5 3.086308 1_555
Pt3 Zr1 3.086308 1_555
Pt4 Zr1 2.854300 1_565
Pt4 Zr4 2.854300 1_555
Pt4 Zr3 2.854300 1_556
Pt4 Zr6 3.086308 1_556
Pt4 Zr11 3.086308 1_566
Pt4 Zr8 3.086308 1_565
Pt5 Zr2 2.854300 1_555
Pt5 Zr1 2.854300 1_655
Pt5 Zr5 2.854300 1_556
Pt5 Zr6 3.086308 1_556
Pt5 Zr9 3.086308 1_656
Pt5 Zr10 3.086308 1_655
Pt6 Zr5 2.854300 1_565
Pt6 Zr3 2.854300 1_655
Pt6 Zr0 2.854300 1_555
Pt6 Zr7 3.086308 1_665
Pt6 Zr10 3.086308 1_655
Pt6 Zr8 3.086308 1_565
Pt7 Zr2 2.854300 1_565
Pt7 Zr4 2.854300 1_655
Pt7 Zr0 2.854300 1_556
Pt7 Zr9 3.086308 1_656
Pt7 Zr11 3.086308 1_566
Pt7 Zr7 3.086308 1_665
C0 Zr6 2.315200 1_555
C0 Zr0 2.315200 1_545
C0 Zr5 2.315200 1_555
C0 Zr11 2.315200 1_555
C0 Zr8 2.315200 1_555
C0 Zr2 2.315200 1_554
C1 Zr3 2.315200 1_555
C1 Zr9 2.315200 1_555
C1 Zr6 2.315200 1_555
C1 Zr0 2.315200 1_455
C1 Zr10 2.315200 1_555
C1 Zr4 2.315200 1_554
C2 Zr10 2.315200 1_555
C2 Zr4 2.315200 1_545
C2 Zr8 2.315200 1_555
C2 Zr2 2.315200 1_455
C2 Zr1 2.315200 1_555
C2 Zr7 2.315200 1_555
C3 Zr9 2.315200 1_555
C3 Zr3 2.315200 1_545
C3 Zr11 2.315200 1_555
C3 Zr5 2.315200 1_455
C3 Zr7 2.315200 1_555
C3 Zr1 2.315200 1_554
