# generated using pymatgen
data_NbAgSe2O7
_symmetry_space_group_name_H-M   'P 1'
_cell_length_a   6.69817117
_cell_length_b   6.69817018
_cell_length_c   7.41272345
_cell_angle_alpha   90.00000000
_cell_angle_beta   90.00000000
_cell_angle_gamma   108.85284125
_symmetry_Int_Tables_number   1
_chemical_formula_structural   NbAgSe2O7
_chemical_formula_sum   'Nb2 Ag2 Se4 O14'
_cell_volume   314.73334651
_cell_formula_units_Z   2
loop_
 _symmetry_equiv_pos_site_id
 _symmetry_equiv_pos_as_xyz
  1  'x, y, z'
loop_
 _atom_site_type_symbol
 _atom_site_label
 _atom_site_symmetry_multiplicity
 _atom_site_fract_x
 _atom_site_fract_y
 _atom_site_fract_z
 _atom_site_occupancy
  Nb  Nb0  1  0.51168430  0.51168430  0.89773784  1
  Nb  Nb1  1  0.48831570  0.48831570  0.39773784  1
  Ag  Ag0  1  0.98912951  0.98912951  0.36853290  1
  Ag  Ag1  1  0.01087049  0.01087049  0.86853290  1
  Se  Se0  1  0.55747985  0.97321678  0.62559247  1
  Se  Se1  1  0.97321678  0.55747985  0.62559247  1
  Se  Se2  1  0.44252015  0.02678322  0.12559247  1
  Se  Se3  1  0.02678322  0.44252015  0.12559247  1
  O  O0  1  0.54272946  0.80443271  0.80928888  1
  O  O1  1  0.80443271  0.54272946  0.80928888  1
  O  O2  1  0.45727054  0.19556729  0.30928888  1
  O  O3  1  0.19556729  0.45727054  0.30928888  1
  O  O4  1  0.53682108  0.79831255  0.44562368  1
  O  O5  1  0.79831255  0.53682108  0.44562368  1
  O  O6  1  0.46317892  0.20168745  0.94562368  1
  O  O7  1  0.20168745  0.46317892  0.94562368  1
  O  O8  1  0.81737703  0.09921517  0.62140363  1
  O  O9  1  0.09921517  0.81737703  0.62140363  1
  O  O10  1  0.18262297  0.90078483  0.12140363  1
  O  O11  1  0.90078483  0.18262297  0.12140363  1
  O  O12  1  0.41278486  0.41278486  0.63284895  1
  O  O13  1  0.58721514  0.58721514  0.13284895  1
loop_
_geom_bond_atom_site_label_1
_geom_bond_atom_site_label_2
_geom_bond_distance
_geom_bond_site_symmetry_2
Nb0 O13 1.839535 1_556
Nb0 O0 2.013613 1_555
Nb0 O1 2.013613 1_555
Nb0 O6 2.026586 1_555
Nb0 O7 2.026586 1_555
Nb0 O12 2.109403 1_555
Nb1 O12 1.839535 1_555
Nb1 O2 2.013613 1_555
Nb1 O3 2.013613 1_555
Nb1 O4 2.026586 1_555
Nb1 O5 2.026586 1_555
Nb1 O13 2.109403 1_555
Ag0 O11 2.425166 1_565
Ag0 O10 2.425166 1_655
Ag0 O9 2.434962 1_655
Ag0 O8 2.434962 1_565
Ag1 O9 2.425166 1_545
Ag1 O8 2.425166 1_455
Ag1 O11 2.434962 1_456
Ag1 O10 2.434962 1_546
O0 Se0 1.752115 1_555
O1 Se1 1.752115 1_555
O2 Se2 1.752115 1_555
O3 Se3 1.752115 1_555
O4 Se0 1.751169 1_555
O5 Se1 1.751169 1_555
O6 Se2 1.751169 1_556
O7 Se3 1.751169 1_556
O8 Se0 1.671596 1_545
O9 Se1 1.671596 1_455
O10 Se2 1.671596 1_565
O11 Se3 1.671596 1_655
