# generated using pymatgen
data_Zr12Ti5Pd7N4
_symmetry_space_group_name_H-M   'P 1'
_cell_length_a   8.67223142
_cell_length_b   8.70573897
_cell_length_c   8.67223361
_cell_angle_alpha   60.12723841
_cell_angle_beta   59.99999916
_cell_angle_gamma   60.12723004
_symmetry_Int_Tables_number   1
_chemical_formula_structural   Zr12Ti5Pd7N4
_chemical_formula_sum   'Zr12 Ti5 Pd7 N4'
_cell_volume   463.85795295
_cell_formula_units_Z   1
loop_
 _symmetry_equiv_pos_site_id
 _symmetry_equiv_pos_as_xyz
  1  'x, y, z'
loop_
 _atom_site_type_symbol
 _atom_site_label
 _atom_site_symmetry_multiplicity
 _atom_site_fract_x
 _atom_site_fract_y
 _atom_site_fract_z
 _atom_site_occupancy
  Zr  Zr0  1  0.81458845  0.19388341  0.17693869  1
  Zr  Zr1  1  0.18286940  0.81795113  0.18286940  1
  Zr  Zr2  1  0.81631007  0.81795113  0.18286940  1
  Zr  Zr3  1  0.18286940  0.81795113  0.81631007  1
  Zr  Zr4  1  0.81458845  0.19388341  0.81458845  1
  Zr  Zr5  1  0.17693869  0.19388341  0.81458845  1
  Zr  Zr6  1  0.43542813  0.06569227  0.06345147  1
  Zr  Zr7  1  0.06303725  0.43420172  0.06303725  1
  Zr  Zr8  1  0.43972478  0.43420172  0.06303725  1
  Zr  Zr9  1  0.06303725  0.43420172  0.43972478  1
  Zr  Zr10  1  0.43542813  0.06569227  0.43542813  1
  Zr  Zr11  1  0.06345147  0.06569227  0.43542813  1
  Ti  Ti0  1  0.83072303  0.50783092  0.83072303  1
  Ti  Ti1  1  0.62170452  0.62303917  0.13355180  1
  Ti  Ti2  1  0.62170452  0.62303917  0.62170452  1
  Ti  Ti3  1  0.13355180  0.62303917  0.62170452  1
  Ti  Ti4  1  0.62751477  0.11745569  0.62751477  1
  Pd  Pd0  1  0.41826867  0.41060800  0.75285465  1
  Pd  Pd1  1  0.41826867  0.41060800  0.41826867  1
  Pd  Pd2  1  0.75285465  0.41060800  0.41826867  1
  Pd  Pd3  1  0.41455017  0.75634950  0.41455017  1
  Pd  Pd4  1  0.83643507  0.82907691  0.49805496  1
  Pd  Pd5  1  0.83643507  0.82907691  0.83643507  1
  Pd  Pd6  1  0.49805496  0.82907691  0.83643507  1
  N  N0  1  0.12659333  0.12197435  0.62483798  1
  N  N1  1  0.12659333  0.12197435  0.12659333  1
  N  N2  1  0.62483798  0.12197435  0.12659333  1
  N  N3  1  0.12363899  0.62908203  0.12363899  1
loop_
_geom_bond_atom_site_label_1
_geom_bond_atom_site_label_2
_geom_bond_distance
_geom_bond_site_symmetry_2
Ti0 Ti3 2.690917 1_655
Ti0 Ti2 2.690917 1_555
Ti0 Ti1 2.690917 1_556
Ti0 Zr5 2.879358 1_655
Ti0 Zr0 2.879359 1_556
Ti0 Zr4 2.879363 1_555
Ti0 Zr8 3.164617 1_556
Ti0 Zr9 3.164618 1_655
Ti0 Zr7 3.164625 1_656
Pd0 Ti3 2.640947 1_555
Pd0 Ti2 2.640947 1_555
Pd0 Ti4 2.676806 1_555
Pd0 Zr6 2.862286 1_556
Pd0 Zr7 2.898577 1_556
Pd0 Zr8 2.898583 1_556
Pd1 Ti3 2.640947 1_555
Pd1 Ti1 2.640947 1_555
Pd1 Ti4 2.676806 1_555
Pd1 Zr10 2.862285 1_555
Pd1 Zr9 2.898573 1_555
Pd1 Zr8 2.898574 1_555
Pd2 Ti2 2.640947 1_555
Pd2 Ti1 2.640948 1_555
Pd2 Ti4 2.676806 1_555
Pd2 Zr11 2.862285 1_655
Pd2 Zr7 2.898578 1_655
Pd2 Zr9 2.898582 1_655
Pd3 Ti3 2.622062 1_555
Pd3 Ti2 2.622062 1_555
Pd3 Ti1 2.622062 1_555
Pd3 Zr11 2.884849 1_565
Pd3 Zr10 2.884849 1_565
Pd3 Zr6 2.884849 1_565
Pd4 Ti4 2.662421 1_565
Pd4 Ti3 2.692479 1_655
Pd4 Ti2 2.692493 1_555
Pd4 Ti0 2.846886 1_555
Pd4 Zr1 2.875530 1_655
Pd4 Zr2 2.875540 1_555
Pd4 Pd6 2.934511 1_555
Pd4 Pd5 2.934511 1_555
Pd4 Zr0 2.999230 1_565
Pd4 Zr9 3.153408 1_655
Pd4 Zr11 3.204723 1_665
Pd4 Zr10 3.204737 1_565
Pd5 Ti4 2.662430 1_565
Pd5 Ti3 2.692488 1_655
Pd5 Ti1 2.692489 1_556
Pd5 Ti0 2.846895 1_555
Pd5 Zr3 2.875522 1_655
Pd5 Zr2 2.875523 1_556
Pd5 Pd6 2.934511 1_555
Pd5 Zr4 2.999219 1_565
Pd5 Zr7 3.153404 1_656
Pd5 Zr6 3.204731 1_566
Pd5 Zr11 3.204731 1_665
Pd6 Ti4 2.662421 1_565
Pd6 Ti1 2.692479 1_556
Pd6 Ti2 2.692493 1_555
Pd6 Ti0 2.846885 1_555
Pd6 Zr1 2.875531 1_556
Pd6 Zr3 2.875540 1_555
Pd6 Zr5 2.999229 1_565
Pd6 Zr8 3.153408 1_556
Pd6 Zr6 3.204723 1_566
Pd6 Zr10 3.204738 1_565
N0 Zr3 2.268554 1_545
N0 Zr11 2.281786 1_555
N0 Zr10 2.281792 1_555
N0 Zr4 2.303763 1_455
N0 Zr5 2.303763 1_555
N0 Zr9 2.305423 1_555
N1 Zr1 2.268552 1_545
N1 Zr6 2.281794 1_555
N1 Zr11 2.281795 1_555
N1 Zr0 2.303762 1_455
N1 Zr5 2.303763 1_554
N1 Zr7 2.305426 1_555
N2 Zr2 2.268554 1_545
N2 Zr6 2.281786 1_555
N2 Zr10 2.281793 1_555
N2 Zr0 2.303763 1_555
N2 Zr4 2.303763 1_554
N2 Zr8 2.305422 1_555
N3 Zr2 2.275460 1_455
N3 Zr3 2.275460 1_554
N3 Zr1 2.275466 1_555
N3 Zr7 2.341668 1_555
N3 Zr8 2.341679 1_555
N3 Zr9 2.341680 1_555
