# generated using pymatgen
data_PrGaCo2
_symmetry_space_group_name_H-M   'P 1'
_cell_length_a   3.73405300
_cell_length_b   5.28220000
_cell_length_c   6.94404100
_cell_angle_alpha   90.00000000
_cell_angle_beta   90.00000000
_cell_angle_gamma   90.00000000
_symmetry_Int_Tables_number   1
_chemical_formula_structural   PrGaCo2
_chemical_formula_sum   'Pr2 Ga2 Co4'
_cell_volume   136.96436715
_cell_formula_units_Z   2
loop_
 _symmetry_equiv_pos_site_id
 _symmetry_equiv_pos_as_xyz
  1  'x, y, z'
loop_
 _atom_site_type_symbol
 _atom_site_label
 _atom_site_symmetry_multiplicity
 _atom_site_fract_x
 _atom_site_fract_y
 _atom_site_fract_z
 _atom_site_occupancy
  Pr  Pr0  1  0.00000000  0.25000000  0.67221400  1
  Pr  Pr1  1  0.00000000  0.75000000  0.32778600  1
  Ga  Ga0  1  0.00000000  0.25000000  0.11515300  1
  Ga  Ga1  1  0.00000000  0.75000000  0.88484700  1
  Co  Co0  1  0.50000000  0.50000000  0.00000000  1
  Co  Co1  1  0.50000000  0.00000000  0.00000000  1
  Co  Co2  1  0.50000000  0.25000000  0.33232500  1
  Co  Co3  1  0.50000000  0.75000000  0.66767500  1
loop_
_geom_bond_atom_site_label_1
_geom_bond_atom_site_label_2
_geom_bond_distance
_geom_bond_site_symmetry_2
Ga0 Pr1 3.025815 1_545
Ga0 Pr1 3.025815 1_555
Ga0 Pr0 3.075787 1_554
Ga1 Pr0 3.025815 1_565
Ga1 Pr0 3.025815 1_555
Ga1 Pr1 3.075787 1_556
Co0 Ga0 2.422611 1_555
Co0 Ga0 2.422611 1_655
Co0 Ga1 2.422611 1_554
Co0 Ga1 2.422611 1_654
Co0 Co1 2.641100 1_565
Co0 Co1 2.641100 1_555
Co0 Co3 2.658803 1_554
Co0 Co2 2.658803 1_555
Co0 Pr1 3.226537 1_655
Co0 Pr1 3.226537 1_555
Co0 Pr0 3.226537 1_654
Co0 Pr0 3.226537 1_554
Co1 Ga0 2.422611 1_555
Co1 Ga0 2.422611 1_655
Co1 Ga1 2.422611 1_544
Co1 Ga1 2.422611 1_644
Co1 Co2 2.658803 1_555
Co1 Co3 2.658803 1_544
Co1 Pr1 3.226537 1_645
Co1 Pr1 3.226537 1_545
Co1 Pr0 3.226537 1_654
Co1 Pr0 3.226537 1_554
Co2 Ga0 2.400001 1_555
Co2 Ga0 2.400001 1_655
Co2 Pr0 3.009376 1_555
Co2 Pr0 3.009376 1_655
Co2 Pr1 3.234531 1_545
Co2 Pr1 3.234531 1_645
Co2 Pr1 3.234531 1_555
Co2 Pr1 3.234531 1_655
Co3 Ga1 2.400001 1_555
Co3 Ga1 2.400001 1_655
Co3 Pr1 3.009376 1_655
Co3 Pr1 3.009376 1_555
Co3 Pr0 3.234531 1_565
Co3 Pr0 3.234531 1_555
Co3 Pr0 3.234531 1_655
Co3 Pr0 3.234531 1_665
