# generated using pymatgen
data_LuZn2Cu2Ag
_symmetry_space_group_name_H-M   'P 1'
_cell_length_a   5.04800732
_cell_length_b   5.02946045
_cell_length_c   5.02945888
_cell_angle_alpha   60.28339919
_cell_angle_beta   59.87793231
_cell_angle_gamma   59.87793557
_symmetry_Int_Tables_number   1
_chemical_formula_structural   LuZn2Cu2Ag
_chemical_formula_sum   'Lu1 Zn2 Cu2 Ag1'
_cell_volume   90.31543041
_cell_formula_units_Z   1
loop_
 _symmetry_equiv_pos_site_id
 _symmetry_equiv_pos_as_xyz
  1  'x, y, z'
loop_
 _atom_site_type_symbol
 _atom_site_label
 _atom_site_symmetry_multiplicity
 _atom_site_fract_x
 _atom_site_fract_y
 _atom_site_fract_z
 _atom_site_occupancy
  Lu  Lu0  1  0.00379590  0.99620410  0.99620410  1
  Zn  Zn0  1  0.62264337  0.62444631  0.13026596  1
  Zn  Zn1  1  0.62264337  0.13026596  0.62444631  1
  Cu  Cu0  1  0.12523383  0.62509992  0.62509992  1
  Cu  Cu1  1  0.62456633  0.62509992  0.62509992  1
  Ag  Ag0  1  0.25111820  0.24888180  0.24888180  1
loop_
_geom_bond_atom_site_label_1
_geom_bond_atom_site_label_2
_geom_bond_distance
_geom_bond_site_symmetry_2
Lu0 Zn1 2.951496 1_565
Lu0 Zn0 2.951496 1_556
Lu0 Zn1 2.951500 1_465
Lu0 Zn0 2.951501 1_456
Lu0 Zn1 2.974666 1_466
Lu0 Zn0 2.974666 1_466
Zn0 Zn1 2.496099 1_555
Zn0 Zn1 2.554889 1_564
Cu0 Zn0 2.495265 1_555
Cu0 Zn1 2.495265 1_555
Cu0 Cu1 2.520634 1_555
Cu0 Cu1 2.527373 1_455
Cu0 Zn0 2.534232 1_456
Cu0 Zn1 2.534233 1_465
Cu0 Lu0 2.915488 1_555
Cu0 Lu0 2.967968 1_554
Cu0 Lu0 2.967969 1_545
Cu1 Zn0 2.495267 1_555
Cu1 Zn1 2.495268 1_555
Cu1 Zn0 2.534230 1_556
Cu1 Zn1 2.534230 1_565
Cu1 Lu0 2.915488 1_555
Cu1 Lu0 2.967969 1_654
Cu1 Lu0 2.967969 1_645
Ag0 Zn1 2.925618 1_554
Ag0 Zn0 2.925619 1_545
Ag0 Cu0 2.949640 1_555
Ag0 Cu1 2.949640 1_455
Ag0 Cu0 2.955585 1_554
Ag0 Cu1 2.955585 1_554
Ag0 Cu1 2.955585 1_545
Ag0 Cu0 2.955585 1_545
Ag0 Zn1 2.959151 1_555
Ag0 Zn0 2.959152 1_555
Ag0 Zn1 2.959156 1_455
Ag0 Zn0 2.959156 1_455
Ag0 Lu0 3.073755 1_545
Ag0 Lu0 3.073756 1_554
Ag0 Lu0 3.094323 1_544
Ag0 Lu0 3.094323 1_644
