# generated using pymatgen
data_Ba2BHN2
_symmetry_space_group_name_H-M   'P 1'
_cell_length_a   4.21972358
_cell_length_b   10.69506940
_cell_length_c   10.58929234
_cell_angle_alpha   90.00000000
_cell_angle_beta   90.00000000
_cell_angle_gamma   90.00000000
_symmetry_Int_Tables_number   1
_chemical_formula_structural   Ba2BHN2
_chemical_formula_sum   'Ba8 B4 H4 N8'
_cell_volume   477.89726800
_cell_formula_units_Z   4
loop_
 _symmetry_equiv_pos_site_id
 _symmetry_equiv_pos_as_xyz
  1  'x, y, z'
loop_
 _atom_site_type_symbol
 _atom_site_label
 _atom_site_symmetry_multiplicity
 _atom_site_fract_x
 _atom_site_fract_y
 _atom_site_fract_z
 _atom_site_occupancy
  Ba  Ba0  1  0.25000000  0.67931627  0.51137195  1
  Ba  Ba1  1  0.75000000  0.32068373  0.48862805  1
  Ba  Ba2  1  0.25000000  0.17931627  0.98862805  1
  Ba  Ba3  1  0.75000000  0.82068373  0.01137195  1
  Ba  Ba4  1  0.25000000  0.53013920  0.16468345  1
  Ba  Ba5  1  0.75000000  0.46986080  0.83531655  1
  Ba  Ba6  1  0.25000000  0.03013920  0.33531655  1
  Ba  Ba7  1  0.75000000  0.96986080  0.66468345  1
  B  B0  1  0.25000000  0.72085010  0.82867842  1
  B  B1  1  0.75000000  0.27914990  0.17132158  1
  B  B2  1  0.25000000  0.22085010  0.67132158  1
  B  B3  1  0.75000000  0.77914990  0.32867842  1
  H  H0  1  0.25000000  0.94997988  0.09427997  1
  H  H1  1  0.75000000  0.05002012  0.90572003  1
  H  H2  1  0.25000000  0.44997988  0.40572003  1
  H  H3  1  0.75000000  0.55002012  0.59427997  1
  N  N0  1  0.75000000  0.68997137  0.24033577  1
  N  N1  1  0.25000000  0.31002863  0.75966423  1
  N  N2  1  0.75000000  0.18997137  0.25966423  1
  N  N3  1  0.25000000  0.81002863  0.74033577  1
  N  N4  1  0.75000000  0.85940694  0.42720850  1
  N  N5  1  0.25000000  0.14059306  0.57279150  1
  N  N6  1  0.75000000  0.35940694  0.07279150  1
  N  N7  1  0.25000000  0.64059306  0.92720850  1
loop_
_geom_bond_atom_site_label_1
_geom_bond_atom_site_label_2
_geom_bond_distance
_geom_bond_site_symmetry_2
Ba0 H3 2.671051 1_455
Ba0 H3 2.671051 1_555
Ba0 H2 2.695875 1_555
Ba0 N3 2.798724 1_555
Ba0 N4 2.992591 1_555
Ba0 N4 2.992591 1_455
Ba1 H2 2.671051 1_555
Ba1 H2 2.671051 1_655
Ba1 H3 2.695875 1_555
Ba1 N2 2.798724 1_555
Ba1 N5 2.992591 1_555
Ba1 N5 2.992591 1_655
Ba2 H1 2.671051 1_555
Ba2 H1 2.671051 1_455
Ba2 H0 2.695875 1_546
Ba2 N1 2.798724 1_555
Ba2 N6 2.992591 1_556
Ba2 N6 2.992591 1_456
Ba3 H0 2.671051 1_555
Ba3 H0 2.671051 1_655
Ba3 H1 2.695875 1_564
Ba3 N0 2.798724 1_555
Ba3 N7 2.992591 1_554
Ba3 N7 2.992591 1_654
Ba4 H2 2.692538 1_555
Ba4 N7 2.778340 1_554
Ba4 N0 2.831146 1_455
Ba4 N0 2.831146 1_555
Ba4 N6 2.955103 1_455
Ba4 N6 2.955103 1_555
Ba5 H3 2.692538 1_555
Ba5 N6 2.778340 1_556
Ba5 N1 2.831146 1_555
Ba5 N1 2.831146 1_655
Ba5 N7 2.955103 1_555
Ba5 N7 2.955103 1_655
Ba6 H0 2.692538 1_545
Ba6 N5 2.778340 1_555
Ba6 N2 2.831146 1_555
Ba6 N2 2.831146 1_455
Ba6 N4 2.955103 1_445
Ba6 N4 2.955103 1_545
Ba7 H1 2.692538 1_565
Ba7 N4 2.778340 1_555
Ba7 N3 2.831146 1_655
Ba7 N3 2.831146 1_555
Ba7 N5 2.955103 1_665
Ba7 N5 2.955103 1_565
B0 N3 1.335969 1_555
B0 N7 1.351067 1_555
B0 Ba3 3.055195 1_556
B0 Ba3 3.055195 1_456
B1 N2 1.335969 1_555
B1 N6 1.351067 1_555
B1 Ba2 3.055195 1_554
B1 Ba2 3.055195 1_654
B2 N1 1.335969 1_555
B2 N5 1.351067 1_555
B2 Ba1 3.055195 1_555
B2 Ba1 3.055195 1_455
B3 N0 1.335969 1_555
B3 N4 1.351067 1_555
B3 Ba0 3.055195 1_655
B3 Ba0 3.055195 1_555
