# generated using pymatgen
data_Ti13Al9(OsRh3)2
_symmetry_space_group_name_H-M   'P 1'
_cell_length_a   8.70458213
_cell_length_b   8.70458159
_cell_length_c   8.70458113
_cell_angle_alpha   59.58200886
_cell_angle_beta   59.58201332
_cell_angle_gamma   59.58201518
_symmetry_Int_Tables_number   1
_chemical_formula_structural   Ti13Al9(OsRh3)2
_chemical_formula_sum   'Ti13 Al9 Os2 Rh6'
_cell_volume   461.93680574
_cell_formula_units_Z   1
loop_
 _symmetry_equiv_pos_site_id
 _symmetry_equiv_pos_as_xyz
  1  'x, y, z'
loop_
 _atom_site_type_symbol
 _atom_site_label
 _atom_site_symmetry_multiplicity
 _atom_site_fract_x
 _atom_site_fract_y
 _atom_site_fract_z
 _atom_site_occupancy
  Ti  Ti0  1  0.21389586  0.21389586  0.78797874  1
  Ti  Ti1  1  0.78797874  0.21389586  0.21389586  1
  Ti  Ti2  1  0.21389586  0.78797874  0.21389586  1
  Ti  Ti3  1  0.79791946  0.79791946  0.18378593  1
  Ti  Ti4  1  0.18378593  0.79791946  0.79791946  1
  Ti  Ti5  1  0.79791946  0.18378593  0.79791946  1
  Ti  Ti6  1  0.37868609  0.37868609  0.37868609  1
  Ti  Ti7  1  0.37980030  0.86605740  0.37980030  1
  Ti  Ti8  1  0.86605740  0.37980030  0.37980030  1
  Ti  Ti9  1  0.37980030  0.37980030  0.86605740  1
  Ti  Ti10  1  0.84660220  0.46267636  0.84660220  1
  Ti  Ti11  1  0.46267636  0.84660220  0.84660220  1
  Ti  Ti12  1  0.84660220  0.84660220  0.46267636  1
  Al  Al0  1  0.15222117  0.15222117  0.15222117  1
  Al  Al1  1  0.15724524  0.53606836  0.15724524  1
  Al  Al2  1  0.53606836  0.15724524  0.15724524  1
  Al  Al3  1  0.15724524  0.15724524  0.53606836  1
  Al  Al4  1  0.61929780  0.61929780  0.61929780  1
  Al  Al5  1  0.62019452  0.14193959  0.62019452  1
  Al  Al6  1  0.14193959  0.62019452  0.62019452  1
  Al  Al7  1  0.62019452  0.62019452  0.14193959  1
  Al  Al8  1  0.82705893  0.82705893  0.82705893  1
  Os  Os0  1  0.50032029  0.50032029  0.50032029  1
  Os  Os1  1  0.00386493  0.00386493  0.00386493  1
  Rh  Rh0  1  0.00452743  0.00452743  0.49866206  1
  Rh  Rh1  1  0.49866206  0.00452743  0.00452743  1
  Rh  Rh2  1  0.00452743  0.49866206  0.00452743  1
  Rh  Rh3  1  0.50003813  0.50003813  0.00093408  1
  Rh  Rh4  1  0.00093408  0.50003813  0.50003813  1
  Rh  Rh5  1  0.50003813  0.00093408  0.50003813  1
loop_
_geom_bond_atom_site_label_1
_geom_bond_atom_site_label_2
_geom_bond_distance
_geom_bond_site_symmetry_2
Al0 Rh0 2.494315 1_555
Al0 Rh2 2.494315 1_555
Al0 Rh1 2.494315 1_555
Al1 Rh4 2.495296 1_555
Al1 Rh3 2.495296 1_555
Al1 Rh2 2.511249 1_555
Al2 Rh5 2.495296 1_555
Al2 Rh3 2.495296 1_555
Al2 Rh1 2.511249 1_555
Al3 Rh4 2.495296 1_555
Al3 Rh5 2.495296 1_555
Al3 Rh0 2.511250 1_555
Al4 Os0 2.544797 1_555
Al4 Rh3 2.701490 1_556
Al4 Rh5 2.701490 1_565
Al4 Rh4 2.701491 1_655
Al5 Os0 2.533658 1_555
Al5 Rh1 2.717988 1_556
Al5 Rh0 2.717989 1_655
Al5 Rh5 2.720651 1_555
Al6 Os0 2.533659 1_555
Al6 Rh2 2.717988 1_556
Al6 Rh0 2.717988 1_565
Al6 Rh4 2.720651 1_555
Al7 Os0 2.533658 1_555
Al7 Rh1 2.717988 1_565
Al7 Rh2 2.717989 1_655
Al7 Rh3 2.720651 1_555
Al8 Rh0 2.533271 1_665
Al8 Rh2 2.533271 1_656
Al8 Rh1 2.533272 1_566
Os0 Ti9 2.585907 1_555
Os0 Ti7 2.585907 1_555
Os0 Ti8 2.585908 1_555
Os0 Ti6 2.601620 1_555
Os1 Ti5 2.539363 1_454
Os1 Ti3 2.539363 1_445
Os1 Ti4 2.539363 1_544
Os1 Ti0 2.577394 1_554
Os1 Ti2 2.577394 1_545
Os1 Ti1 2.577395 1_455
Rh0 Ti12 2.581316 1_445
Rh0 Ti8 2.654695 1_455
Rh0 Ti7 2.654695 1_545
Rh0 Ti4 2.997518 1_545
Rh0 Ti5 2.997518 1_455
Rh0 Ti1 3.114010 1_455
Rh0 Ti2 3.114010 1_545
Rh1 Ti11 2.581316 1_544
Rh1 Ti7 2.654695 1_545
Rh1 Ti9 2.654695 1_554
Rh1 Ti5 2.997519 1_554
Rh1 Ti3 2.997519 1_545
Rh1 Ti0 3.114010 1_554
Rh1 Ti2 3.114010 1_545
Rh2 Ti10 2.581316 1_454
Rh2 Ti8 2.654695 1_455
Rh2 Ti9 2.654695 1_554
Rh2 Ti4 2.997518 1_554
Rh2 Ti3 2.997519 1_455
Rh2 Ti1 3.114010 1_455
Rh2 Ti0 3.114010 1_554
Rh3 Ti11 2.521143 1_554
Rh3 Ti10 2.521144 1_554
Rh3 Ti6 2.671941 1_555
Rh3 Ti9 2.677122 1_554
Rh4 Ti10 2.521143 1_455
Rh4 Ti12 2.521144 1_455
Rh4 Ti6 2.671942 1_555
Rh4 Ti8 2.677122 1_455
Rh5 Ti11 2.521143 1_545
Rh5 Ti12 2.521144 1_545
Rh5 Ti6 2.671941 1_555
Rh5 Ti7 2.677122 1_545
