# generated using pymatgen
data_Cs6BiSbTe6
_symmetry_space_group_name_H-M   'P 1'
_cell_length_a   11.37240929
_cell_length_b   11.38641783
_cell_length_c   11.38126831
_cell_angle_alpha   90.00000000
_cell_angle_beta   90.00000000
_cell_angle_gamma   89.34918102
_symmetry_Int_Tables_number   1
_chemical_formula_structural   Cs6BiSbTe6
_chemical_formula_sum   'Cs12 Bi2 Sb2 Te12'
_cell_volume   1473.67678245
_cell_formula_units_Z   2
loop_
 _symmetry_equiv_pos_site_id
 _symmetry_equiv_pos_as_xyz
  1  'x, y, z'
loop_
 _atom_site_type_symbol
 _atom_site_label
 _atom_site_symmetry_multiplicity
 _atom_site_fract_x
 _atom_site_fract_y
 _atom_site_fract_z
 _atom_site_occupancy
  Cs  Cs0  1  0.32232373  0.32213117  0.32079633  1
  Cs  Cs1  1  0.17767627  0.67786883  0.82079633  1
  Cs  Cs2  1  0.82064741  0.17951043  0.67791751  1
  Cs  Cs3  1  0.67935259  0.82048957  0.17791751  1
  Cs  Cs4  1  0.57015793  0.58248272  0.57372810  1
  Cs  Cs5  1  0.92984207  0.41751728  0.07372810  1
  Cs  Cs6  1  0.07974029  0.93026363  0.42250376  1
  Cs  Cs7  1  0.42025971  0.06973637  0.92250376  1
  Cs  Cs8  1  0.81342929  0.81584462  0.81478021  1
  Cs  Cs9  1  0.68657071  0.18415538  0.31478021  1
  Cs  Cs10  1  0.31540536  0.68632293  0.18571016  1
  Cs  Cs11  1  0.18459464  0.31367707  0.68571016  1
  Bi  Bi0  1  0.52980982  0.47453107  0.97464679  1
  Bi  Bi1  1  0.97019018  0.52546893  0.47464679  1
  Sb  Sb0  1  0.02249149  0.02572992  0.02502683  1
  Sb  Sb1  1  0.47750851  0.97427008  0.52502683  1
  Te  Te0  1  0.21018297  0.60457911  0.49525125  1
  Te  Te1  1  0.49570981  0.20792202  0.60130392  1
  Te  Te2  1  0.60663370  0.49596863  0.21642610  1
  Te  Te3  1  0.89336630  0.50403137  0.71642610  1
  Te  Te4  1  0.99683845  0.28485110  0.39690415  1
  Te  Te5  1  0.40132794  0.99578345  0.29134214  1
  Te  Te6  1  0.00429019  0.79207798  0.10130392  1
  Te  Te7  1  0.50316155  0.71514890  0.89690415  1
  Te  Te8  1  0.09867206  0.00421655  0.79134214  1
  Te  Te9  1  0.71235021  0.89715690  0.50366276  1
  Te  Te10  1  0.78764979  0.10284310  0.00366276  1
  Te  Te11  1  0.28981703  0.39542089  0.99525125  1
loop_
_geom_bond_atom_site_label_1
_geom_bond_atom_site_label_2
_geom_bond_distance
_geom_bond_site_symmetry_2
Cs0 Te11 3.814963 1_554
Cs0 Te5 3.827783 1_545
Cs0 Te4 3.829841 1_455
Cs0 Te1 3.963988 1_555
Cs0 Te0 3.977264 1_555
Cs0 Te2 3.991058 1_555
Cs1 Te0 3.814963 1_555
Cs1 Te8 3.827783 1_565
Cs1 Te7 3.829841 1_555
Cs1 Te6 3.963988 1_556
Cs1 Te11 3.977264 1_555
Cs1 Te3 3.991058 1_455
Cs2 Te1 3.806997 1_555
Cs2 Te3 3.820918 1_555
Cs2 Te10 3.828199 1_556
Cs2 Te8 3.937516 1_655
Cs2 Te4 3.967016 1_555
Cs2 Te9 3.984498 1_545
Cs3 Te6 3.806997 1_655
Cs3 Te2 3.820918 1_555
Cs3 Te9 3.828199 1_555
Cs3 Te5 3.937516 1_555
Cs3 Te7 3.967016 1_554
Cs3 Te10 3.984498 1_565
Cs4 Te9 4.027457 1_555
Cs4 Te7 4.045375 1_555
Cs4 Te3 4.107489 1_555
Cs4 Te0 4.194843 1_555
Cs4 Te2 4.203571 1_555
Cs4 Te1 4.368840 1_555
Cs5 Te10 4.027457 1_555
Cs5 Te4 4.045375 1_555
Cs5 Te2 4.107489 1_555
Cs5 Te11 4.194843 1_654
Cs5 Te3 4.203571 1_554
Cs5 Te6 4.368840 1_655
Cs6 Te5 4.027687 1_555
Cs6 Te0 4.063649 1_555
Cs6 Te6 4.075107 1_555
Cs6 Te4 4.145905 1_465
Cs6 Te8 4.287362 1_565
Cs6 Te9 4.299732 1_455
Cs7 Te8 4.027687 1_555
Cs7 Te11 4.063649 1_555
Cs7 Te1 4.075107 1_555
Cs7 Te7 4.145905 1_545
Cs7 Te5 4.287362 1_546
Cs7 Te10 4.299732 1_556
Cs8 Te3 3.822530 1_555
Cs8 Te9 3.833075 1_555
Cs8 Te7 3.838018 1_555
Cs8 Te8 3.918240 1_665
Cs8 Te10 3.919766 1_566
Cs8 Te6 3.924960 1_656
Cs9 Te2 3.822530 1_555
Cs9 Te10 3.833075 1_555
Cs9 Te4 3.838018 1_555
Cs9 Te5 3.918240 1_545
Cs9 Te9 3.919766 1_545
Cs9 Te1 3.924960 1_555
Cs10 Te0 3.838604 1_555
Cs10 Te6 3.846355 1_555
Cs10 Te5 3.859335 1_555
Cs10 Te7 3.935369 1_554
Cs10 Te2 3.952989 1_555
Cs10 Te11 3.972013 1_554
Cs11 Te11 3.838604 1_555
Cs11 Te1 3.846355 1_555
Cs11 Te8 3.859335 1_555
Cs11 Te4 3.935369 1_455
Cs11 Te3 3.952989 1_455
Cs11 Te0 3.972013 1_555
Bi0 Te7 2.891753 1_555
Bi0 Te11 2.893321 1_555
Bi0 Te2 2.898256 1_556
Bi1 Te4 2.891753 1_555
Bi1 Te0 2.893321 1_655
Bi1 Te3 2.898256 1_555
Sb0 Te8 2.807023 1_554
Sb0 Te6 2.808389 1_545
Sb0 Te10 2.812389 1_455
Sb1 Te5 2.807023 1_555
Sb1 Te1 2.808389 1_565
Sb1 Te9 2.812389 1_555
