# generated using pymatgen
data_Lu2Zn17
_symmetry_space_group_name_H-M   'P 1'
_cell_length_a   6.65813508
_cell_length_b   6.65813330
_cell_length_c   6.65813470
_cell_angle_alpha   82.79845616
_cell_angle_beta   82.79844911
_cell_angle_gamma   82.79845087
_symmetry_Int_Tables_number   1
_chemical_formula_structural   Lu2Zn17
_chemical_formula_sum   'Lu2 Zn17'
_cell_volume   288.71346680
_cell_formula_units_Z   1
loop_
 _symmetry_equiv_pos_site_id
 _symmetry_equiv_pos_as_xyz
  1  'x, y, z'
loop_
 _atom_site_type_symbol
 _atom_site_label
 _atom_site_symmetry_multiplicity
 _atom_site_fract_x
 _atom_site_fract_y
 _atom_site_fract_z
 _atom_site_occupancy
  Lu  Lu0  1  0.66484778  0.66484778  0.66484778  1
  Lu  Lu1  1  0.33515222  0.33515222  0.33515222  1
  Zn  Zn0  1  0.35233858  0.35233858  0.83832830  1
  Zn  Zn1  1  0.35233858  0.83832830  0.35233858  1
  Zn  Zn2  1  0.10074766  0.10074766  0.10074766  1
  Zn  Zn3  1  0.89925234  0.89925234  0.89925234  1
  Zn  Zn4  1  0.00000000  -0.00000000  0.50000000  1
  Zn  Zn5  1  0.50000000  -0.00000000  -0.00000000  1
  Zn  Zn6  1  0.00000000  0.50000000  -0.00000000  1
  Zn  Zn7  1  0.70142755  0.29857245  0.00000000  1
  Zn  Zn8  1  0.00000000  0.70142755  0.29857245  1
  Zn  Zn9  1  0.29857245  1.00000000  0.70142755  1
  Zn  Zn10  1  0.29857245  0.70142755  1.00000000  1
  Zn  Zn11  1  -0.00000000  0.29857245  0.70142755  1
  Zn  Zn12  1  0.70142755  0.00000000  0.29857245  1
  Zn  Zn13  1  0.64766142  0.16167170  0.64766142  1
  Zn  Zn14  1  0.64766142  0.64766142  0.16167170  1
  Zn  Zn15  1  0.16167170  0.64766142  0.64766142  1
  Zn  Zn16  1  0.83832830  0.35233858  0.35233858  1
loop_
_geom_bond_atom_site_label_1
_geom_bond_atom_site_label_2
_geom_bond_distance
_geom_bond_site_symmetry_2
Lu0 Zn3 3.023147 1_555
Lu0 Zn11 3.099856 1_655
Lu0 Zn9 3.099856 1_555
Lu0 Zn7 3.099856 1_556
Lu0 Zn12 3.099856 1_565
Lu0 Zn10 3.099856 1_555
Lu0 Zn8 3.099856 1_655
Lu0 Zn16 3.142188 1_555
Lu0 Zn0 3.142189 1_555
Lu0 Zn1 3.142189 1_555
Lu0 Zn13 3.283595 1_565
Lu0 Zn14 3.283596 1_556
Lu0 Zn15 3.283596 1_655
Lu0 Zn5 3.344262 1_566
Lu0 Zn4 3.344262 1_665
Lu0 Zn6 3.344262 1_656
Lu0 Zn13 3.383140 1_555
Lu0 Zn14 3.383140 1_555
Lu0 Zn15 3.383141 1_555
Lu1 Zn2 3.023147 1_555
Lu1 Zn8 3.099856 1_555
Lu1 Zn12 3.099856 1_555
Lu1 Zn10 3.099856 1_554
Lu1 Zn9 3.099856 1_545
Lu1 Zn7 3.099856 1_555
Lu1 Zn11 3.099856 1_555
Lu1 Zn15 3.142188 1_555
Lu1 Zn14 3.142189 1_555
Lu1 Zn13 3.142189 1_555
Lu1 Zn1 3.283595 1_545
Lu1 Zn0 3.283596 1_554
Lu1 Zn16 3.283596 1_455
Lu1 Zn5 3.344262 1_555
Lu1 Zn4 3.344262 1_555
Lu1 Zn6 3.344262 1_555
Lu1 Zn1 3.383140 1_555
Lu1 Zn0 3.383140 1_555
Lu1 Zn16 3.383141 1_555
Zn0 Zn13 2.498377 1_555
Zn0 Zn15 2.498377 1_555
Zn0 Zn5 2.585067 1_556
Zn0 Zn6 2.585067 1_556
Zn0 Zn10 2.647867 1_555
Zn0 Zn7 2.647867 1_556
Zn0 Zn9 2.700148 1_545
Zn0 Zn11 2.700149 1_555
Zn0 Zn2 2.810835 1_556
Zn1 Zn14 2.498377 1_555
Zn1 Zn15 2.498378 1_555
Zn1 Zn4 2.585067 1_565
Zn1 Zn5 2.585067 1_565
Zn1 Zn9 2.647867 1_555
Zn1 Zn12 2.647867 1_565
Zn1 Zn10 2.700148 1_554
Zn1 Zn8 2.700149 1_555
Zn1 Zn2 2.810835 1_565
Zn2 Zn3 2.598712 1_444
Zn2 Zn6 2.680489 1_555
Zn2 Zn4 2.680490 1_555
Zn2 Zn5 2.680490 1_555
Zn2 Zn8 2.932794 1_545
Zn2 Zn9 2.932795 1_544
Zn2 Zn7 2.932795 1_455
Zn3 Zn6 2.680489 1_656
Zn3 Zn4 2.680490 1_665
Zn3 Zn5 2.680490 1_566
Zn3 Zn7 2.932794 1_566
Zn3 Zn8 2.932795 1_656
Zn3 Zn9 2.932795 1_655
Zn4 Zn8 2.533567 1_545
Zn4 Zn9 2.533567 1_545
Zn5 Zn7 2.533567 1_555
Zn5 Zn9 2.533567 1_544
Zn6 Zn8 2.533567 1_555
Zn6 Zn7 2.533567 1_455
Zn10 Zn5 2.533567 1_566
Zn10 Zn6 2.533567 1_556
Zn10 Zn9 2.629250 1_555
Zn10 Zn8 2.629250 1_556
Zn10 Zn14 2.647867 1_556
Zn10 Zn15 2.700149 1_555
Zn10 Zn2 2.932794 1_566
Zn10 Zn3 2.932795 1_455
Zn11 Zn4 2.533567 1_555
Zn11 Zn6 2.533567 1_556
Zn11 Zn9 2.629250 1_545
Zn11 Zn7 2.629250 1_456
Zn11 Zn15 2.647867 1_555
Zn11 Zn16 2.647867 1_455
Zn11 Zn13 2.700149 1_455
Zn11 Zn3 2.932794 1_445
Zn11 Zn2 2.932795 1_556
Zn12 Zn5 2.533567 1_555
Zn12 Zn4 2.533567 1_655
Zn12 Zn8 2.629250 1_645
Zn12 Zn7 2.629250 1_555
Zn12 Zn13 2.647867 1_555
Zn12 Zn14 2.700148 1_545
Zn12 Zn16 2.700148 1_555
Zn12 Zn3 2.932795 1_544
Zn12 Zn2 2.932795 1_655
Zn13 Zn16 2.498378 1_555
Zn13 Zn4 2.585067 1_655
Zn13 Zn5 2.585067 1_556
Zn13 Zn9 2.647867 1_545
Zn13 Zn7 2.700148 1_556
Zn13 Zn3 2.810835 1_545
Zn14 Zn16 2.498377 1_555
Zn14 Zn5 2.585067 1_565
Zn14 Zn6 2.585067 1_655
Zn14 Zn7 2.647867 1_555
Zn14 Zn8 2.700149 1_655
Zn14 Zn3 2.810835 1_554
Zn15 Zn4 2.585067 1_565
Zn15 Zn6 2.585067 1_556
Zn15 Zn8 2.647867 1_555
Zn15 Zn9 2.700148 1_555
Zn15 Zn3 2.810835 1_455
Zn16 Zn4 2.585067 1_655
Zn16 Zn6 2.585067 1_655
Zn16 Zn8 2.647867 1_655
Zn16 Zn7 2.700149 1_555
Zn16 Zn2 2.810835 1_655
