# generated using pymatgen
data_Sr3AsP5Ir6
_symmetry_space_group_name_H-M   'P 1'
_cell_length_a   6.80168167
_cell_length_b   6.76969867
_cell_length_c   7.15726106
_cell_angle_alpha   90.36762777
_cell_angle_beta   89.79468307
_cell_angle_gamma   120.15245078
_symmetry_Int_Tables_number   1
_chemical_formula_structural   Sr3AsP5Ir6
_chemical_formula_sum   'Sr3 As1 P5 Ir6'
_cell_volume   284.96068118
_cell_formula_units_Z   1
loop_
 _symmetry_equiv_pos_site_id
 _symmetry_equiv_pos_as_xyz
  1  'x, y, z'
loop_
 _atom_site_type_symbol
 _atom_site_label
 _atom_site_symmetry_multiplicity
 _atom_site_fract_x
 _atom_site_fract_y
 _atom_site_fract_z
 _atom_site_occupancy
  Sr  Sr0  1  0.00082439  0.60312571  0.83747193  1
  Sr  Sr1  1  0.40069302  0.39757584  0.50198571  1
  Sr  Sr2  1  0.59879155  0.99782390  0.16385512  1
  As  As0  1  0.87545559  0.22108351  0.54172042  1
  P  P0  1  0.21572954  0.87781588  0.45781296  1
  P  P1  1  0.12692248  0.34252080  0.12285256  1
  P  P2  1  0.78302598  0.66373476  0.20648515  1
  P  P3  1  0.33898627  0.12139913  0.87896933  1
  P  P4  1  0.66270662  0.78389559  0.78987762  1
  Ir  Ir0  1  0.86994399  0.86114480  0.50018399  1
  Ir  Ir1  1  0.12994923  0.00258667  0.16930881  1
  Ir  Ir2  1  0.49193399  0.48938080  0.00007276  1
  Ir  Ir3  1  0.00517186  0.52323344  0.32026006  1
  Ir  Ir4  1  0.49568025  0.98839247  0.67131103  1
  Ir  Ir5  1  0.00418525  0.12628772  0.83783155  1
loop_
_geom_bond_atom_site_label_1
_geom_bond_atom_site_label_2
_geom_bond_distance
_geom_bond_site_symmetry_2
As0 Ir3 2.386068 1_655
As0 Ir0 2.434378 1_545
As0 Ir4 2.434738 1_545
As0 Ir5 2.503062 1_655
As0 Sr0 3.102254 1_655
As0 Sr1 3.159140 1_655
As0 Sr2 3.204129 1_545
P0 Sr1 3.099177 1_565
P0 Sr2 3.119484 1_555
P0 Sr0 3.206888 1_555
P1 Sr0 3.098218 1_554
P1 Sr2 3.164707 1_445
P1 Sr1 3.208696 1_555
P2 Sr2 3.104407 1_555
P2 Sr1 3.128029 1_555
P2 Sr0 3.147554 1_654
P3 Sr2 3.084297 1_546
P3 Sr0 3.094015 1_545
P3 Sr1 3.196890 1_555
P4 Sr1 3.088091 1_555
P4 Sr0 3.121033 1_655
P4 Sr2 3.166267 1_556
Ir0 P0 2.316229 1_655
Ir0 P2 2.394446 1_555
Ir0 P4 2.410773 1_555
Ir0 Sr1 3.158065 1_555
Ir0 Sr0 3.361956 1_655
Ir0 Sr2 3.439022 1_555
Ir1 P1 2.337563 1_555
Ir1 P2 2.338036 1_445
Ir1 P3 2.416218 1_554
Ir1 P0 2.417391 1_545
Ir1 Sr2 3.205329 1_545
Ir1 Sr1 3.348666 1_555
Ir1 Sr0 3.357321 1_544
Ir2 P2 2.268627 1_555
Ir2 P4 2.299360 1_554
Ir2 P3 2.326912 1_554
Ir2 P1 2.332454 1_555
Ir2 Sr2 3.345282 1_555
Ir2 Sr0 3.351575 1_654
Ir3 P1 2.272853 1_555
Ir3 P0 2.304015 1_555
Ir3 P2 2.305071 1_455
Ir3 Sr2 3.411580 1_445
Ir3 Sr1 3.462780 1_555
Ir4 P3 2.256360 1_565
Ir4 P0 2.257276 1_555
Ir4 P4 2.351438 1_555
Ir4 Sr0 3.276852 1_555
Ir4 Sr1 3.377259 1_565
Ir5 P3 2.313895 1_555
Ir5 P4 2.339260 1_445
Ir5 P1 2.397379 1_556
Ir5 Sr0 3.239610 1_555
Ir5 Sr2 3.372711 1_446
Ir5 Sr1 3.385053 1_555
