# generated using pymatgen
data_Re4As6Se2S
_symmetry_space_group_name_H-M   'P 1'
_cell_length_a   7.08592993
_cell_length_b   7.08593000
_cell_length_c   7.07646343
_cell_angle_alpha   59.86160362
_cell_angle_beta   59.86160311
_cell_angle_gamma   59.96454131
_symmetry_Int_Tables_number   1
_chemical_formula_structural   Re4As6Se2S
_chemical_formula_sum   'Re4 As6 Se2 S1'
_cell_volume   250.64975999
_cell_formula_units_Z   1
loop_
 _symmetry_equiv_pos_site_id
 _symmetry_equiv_pos_as_xyz
  1  'x, y, z'
loop_
 _atom_site_type_symbol
 _atom_site_label
 _atom_site_symmetry_multiplicity
 _atom_site_fract_x
 _atom_site_fract_y
 _atom_site_fract_z
 _atom_site_occupancy
  Re  Re0  1  0.40115444  0.40115444  0.39697608  1
  Re  Re1  1  0.40103274  0.79903711  0.39645315  1
  Re  Re2  1  0.79903711  0.40103274  0.39645315  1
  Re  Re3  1  0.39964148  0.39964148  0.79925547  1
  As  As0  1  0.00230458  0.00230458  0.99720716  1
  As  As1  1  0.14377004  0.14377004  0.14184590  1
  As  As2  1  0.14372505  0.57171819  0.14088469  1
  As  As3  1  0.57171819  0.14372505  0.14088469  1
  As  As4  1  0.14450410  0.14450410  0.56574390  1
  As  As5  1  0.63848289  0.63848289  0.63825535  1
  Se  Se0  1  0.63727864  0.08699228  0.63839780  1
  Se  Se1  1  0.08699228  0.63727864  0.63839780  1
  S  S0  1  0.63036045  0.63036045  0.10924486  1
loop_
_geom_bond_atom_site_label_1
_geom_bond_atom_site_label_2
_geom_bond_distance
_geom_bond_site_symmetry_2
Re0 S0 2.328208 1_555
Re0 Se1 2.448770 1_555
Re0 Se0 2.448770 1_555
Re1 S0 2.319154 1_555
Re1 Se1 2.440045 1_555
Re2 S0 2.319154 1_555
Re2 Se0 2.440045 1_555
Re3 Se1 2.431526 1_555
Re3 Se0 2.431526 1_555
As0 As1 2.474627 1_556
As0 As4 2.488071 1_555
As0 As3 2.488856 1_456
As0 As2 2.488856 1_546
As1 Re3 2.629630 1_554
As1 Re2 2.637650 1_455
As1 Re1 2.637650 1_545
As2 Re3 2.638923 1_554
As2 Re0 2.642996 1_555
As2 Re2 2.650301 1_455
As3 Re3 2.638923 1_554
As3 Re0 2.642996 1_555
As3 Re1 2.650301 1_545
As4 Re0 2.643828 1_555
As4 Re2 2.652441 1_455
As4 Re1 2.652441 1_545
As5 Re3 2.453853 1_555
As5 Re1 2.464379 1_555
As5 Re2 2.464379 1_555
