# generated using pymatgen
data_Bi3Sb(AsRh)4
_symmetry_space_group_name_H-M   'P 1'
_cell_length_a   6.44407858
_cell_length_b   6.49712979
_cell_length_c   6.53541997
_cell_angle_alpha   114.81522475
_cell_angle_beta   89.62691633
_cell_angle_gamma   90.39906128
_symmetry_Int_Tables_number   1
_chemical_formula_structural   Bi3Sb(AsRh)4
_chemical_formula_sum   'Bi3 Sb1 As4 Rh4'
_cell_volume   248.35219647
_cell_formula_units_Z   1
loop_
 _symmetry_equiv_pos_site_id
 _symmetry_equiv_pos_as_xyz
  1  'x, y, z'
loop_
 _atom_site_type_symbol
 _atom_site_label
 _atom_site_symmetry_multiplicity
 _atom_site_fract_x
 _atom_site_fract_y
 _atom_site_fract_z
 _atom_site_occupancy
  Bi  Bi0  1  0.13167800  0.84473923  0.13628362  1
  Bi  Bi1  1  0.63023877  0.15418001  0.36338976  1
  Bi  Bi2  1  0.86939454  0.15565975  0.86276783  1
  Sb  Sb0  1  0.37179429  0.84515999  0.63620645  1
  As  As0  1  0.85915815  0.64850396  0.33097018  1
  As  As1  1  0.35875081  0.34858024  0.16983164  1
  As  As2  1  0.14150806  0.35301101  0.66899593  1
  As  As3  1  0.63550687  0.65185548  0.82835284  1
  Rh  Rh0  1  0.51278797  0.70518526  0.20815473  1
  Rh  Rh1  1  0.01519487  0.29402243  0.29725255  1
  Rh  Rh2  1  0.48240715  0.28958835  0.79620601  1
  Rh  Rh3  1  0.99158254  0.70951430  0.70158847  1
loop_
_geom_bond_atom_site_label_1
_geom_bond_atom_site_label_2
_geom_bond_distance
_geom_bond_site_symmetry_2
Bi0 Rh0 2.734540 1_555
Bi0 Rh3 2.754087 1_454
Bi0 Rh1 2.762900 1_565
Bi1 Rh1 2.729547 1_655
Bi1 Rh2 2.751441 1_555
Bi1 Rh0 2.758090 1_545
Bi2 Rh2 2.743612 1_555
Bi2 Rh3 2.754971 1_545
Bi2 Rh1 2.763006 1_656
As0 Rh1 2.442809 1_655
As0 Rh3 2.443036 1_555
As0 Rh0 2.458607 1_555
As0 Bi0 2.762216 1_655
As1 Rh0 2.429037 1_555
As1 Rh1 2.435839 1_555
As1 Rh2 2.436720 1_554
As1 Bi1 2.767109 1_555
As2 Rh1 2.439619 1_555
As2 Rh3 2.440932 1_455
As2 Rh2 2.451687 1_555
As2 Bi2 2.761408 1_455
As3 Rh2 2.472379 1_555
As3 Rh0 2.482523 1_556
As3 Rh3 2.513077 1_555
As3 Sb0 2.724615 1_555
Rh0 Sb0 2.705820 1_555
Rh2 Sb0 2.717687 1_545
Rh3 Sb0 2.689746 1_655
