# generated using pymatgen
data_CdGaRhO4
_symmetry_space_group_name_H-M   'P 1'
_cell_length_a   6.27708304
_cell_length_b   6.16245769
_cell_length_c   6.16245830
_cell_angle_alpha   58.86044677
_cell_angle_beta   59.38276812
_cell_angle_gamma   59.38277661
_symmetry_Int_Tables_number   1
_chemical_formula_structural   CdGaRhO4
_chemical_formula_sum   'Cd2 Ga2 Rh2 O8'
_cell_volume   165.51032808
_cell_formula_units_Z   2
loop_
 _symmetry_equiv_pos_site_id
 _symmetry_equiv_pos_as_xyz
  1  'x, y, z'
loop_
 _atom_site_type_symbol
 _atom_site_label
 _atom_site_symmetry_multiplicity
 _atom_site_fract_x
 _atom_site_fract_y
 _atom_site_fract_z
 _atom_site_occupancy
  Cd  Cd0  1  0.24322687  0.25677313  0.25677313  1
  Cd  Cd1  1  0.00677313  0.99322687  0.99322687  1
  Ga  Ga0  1  0.62500000  0.62500000  0.12500000  1
  Ga  Ga1  1  0.62500000  0.12500000  0.62500000  1
  Rh  Rh0  1  0.12500000  0.62500000  0.62500000  1
  Rh  Rh1  1  0.62500000  0.62500000  0.62500000  1
  O  O0  1  0.85226812  0.86512843  0.43033633  1
  O  O1  1  0.85226812  0.43033633  0.86512843  1
  O  O2  1  0.42930748  0.86072809  0.86072809  1
  O  O3  1  0.84923734  0.86072809  0.86072809  1
  O  O4  1  0.39773188  0.38487157  0.81966367  1
  O  O5  1  0.39773188  0.81966367  0.38487157  1
  O  O6  1  0.82069252  0.38927191  0.38927191  1
  O  O7  1  0.40076266  0.38927191  0.38927191  1
loop_
_geom_bond_atom_site_label_1
_geom_bond_atom_site_label_2
_geom_bond_distance
_geom_bond_site_symmetry_2
Cd0 O7 2.155385 1_555
Cd0 O6 2.155390 1_455
Cd0 O5 2.176970 1_545
Cd0 O4 2.176970 1_554
Cd1 O3 2.155385 1_455
Cd1 O2 2.155390 1_555
Cd1 O1 2.176970 1_465
Cd1 O0 2.176970 1_456
Ga0 O5 1.988836 1_555
Ga0 O1 1.988836 1_554
Ga0 O6 2.011139 1_555
Ga0 O2 2.011139 1_554
Ga0 O3 2.011143 1_554
Ga0 O7 2.011143 1_555
Ga1 O4 1.988836 1_555
Ga1 O0 1.988836 1_545
Ga1 O6 2.011138 1_555
Ga1 O2 2.011138 1_545
Ga1 O3 2.011143 1_545
Ga1 O7 2.011143 1_555
O0 Rh0 2.057935 1_655
O0 Rh1 2.057940 1_555
O1 Rh0 2.057935 1_655
O1 Rh1 2.057940 1_555
O2 Rh1 2.068009 1_555
O3 Rh0 2.068009 1_655
O4 Rh0 2.057935 1_555
O4 Rh1 2.057940 1_555
O5 Rh0 2.057935 1_555
O5 Rh1 2.057940 1_555
O6 Rh1 2.068009 1_555
O7 Rh0 2.068009 1_555
