# generated using pymatgen
data_Cs2Mg2CdSe4
_symmetry_space_group_name_H-M   'P 1'
_cell_length_a   10.13386231
_cell_length_b   10.13386222
_cell_length_c   10.13386151
_cell_angle_alpha   143.46829995
_cell_angle_beta   105.50433831
_cell_angle_gamma   85.93782463
_symmetry_Int_Tables_number   1
_chemical_formula_structural   Cs2Mg2CdSe4
_chemical_formula_sum   'Cs4 Mg4 Cd2 Se8'
_cell_volume   577.84652248
_cell_formula_units_Z   2
loop_
 _symmetry_equiv_pos_site_id
 _symmetry_equiv_pos_as_xyz
  1  'x, y, z'
loop_
 _atom_site_type_symbol
 _atom_site_label
 _atom_site_symmetry_multiplicity
 _atom_site_fract_x
 _atom_site_fract_y
 _atom_site_fract_z
 _atom_site_occupancy
  Cs  Cs0  1  0.61650616  0.23804635  0.85455251  1
  Cs  Cs1  1  0.38349384  0.76195365  0.14544749  1
  Cs  Cs2  1  0.11650616  0.26195365  0.37845981  1
  Cs  Cs3  1  0.88349384  0.73804635  0.62154019  1
  Mg  Mg0  1  0.01948723  0.75000000  0.26948723  1
  Mg  Mg1  1  0.48051277  0.75000000  0.73051277  1
  Mg  Mg2  1  0.98051277  0.25000000  0.73051277  1
  Mg  Mg3  1  0.51948723  0.25000000  0.26948723  1
  Cd  Cd0  1  0.75000000  0.75000000  0.00000000  1
  Cd  Cd1  1  0.25000000  0.25000000  0.00000000  1
  Se  Se0  1  0.98991038  0.62660514  0.91338930  1
  Se  Se1  1  0.71321684  0.07652109  0.08661070  1
  Se  Se2  1  0.78678316  0.87339486  0.36330424  1
  Se  Se3  1  0.51008962  0.42347891  0.63669576  1
  Se  Se4  1  0.01008962  0.37339486  0.08661070  1
  Se  Se5  1  0.28678316  0.92347891  0.91338930  1
  Se  Se6  1  0.21321684  0.12660514  0.63669576  1
  Se  Se7  1  0.48991038  0.57652109  0.36330424  1
loop_
_geom_bond_atom_site_label_1
_geom_bond_atom_site_label_2
_geom_bond_distance
_geom_bond_site_symmetry_2
Cs0 Se4 3.727837 1_656
Cs0 Se1 3.727837 1_556
Cs0 Se7 3.805905 1_556
Cs0 Se2 3.805911 1_556
Cs0 Se6 3.830847 1_555
Cs0 Se3 3.830847 1_555
Cs0 Se7 3.942243 1_545
Cs0 Se2 3.942244 1_545
Cs1 Se0 3.727837 1_454
Cs1 Se5 3.727837 1_554
Cs1 Se3 3.805905 1_554
Cs1 Se6 3.805911 1_554
Cs1 Se2 3.830847 1_555
Cs1 Se7 3.830847 1_555
Cs1 Se3 3.942243 1_565
Cs1 Se6 3.942244 1_565
Cs2 Se3 3.727837 1_555
Cs2 Se6 3.727846 1_555
Cs2 Se5 3.805905 1_544
Cs2 Se0 3.805912 1_444
Cs2 Se1 3.830848 1_455
Cs2 Se4 3.830856 1_555
Cs2 Se5 3.942243 1_555
Cs2 Se0 3.942244 1_455
Cs3 Se7 3.727837 1_555
Cs3 Se2 3.727846 1_555
Cs3 Se1 3.805905 1_566
Cs3 Se4 3.805912 1_666
Cs3 Se5 3.830848 1_655
Cs3 Se0 3.830856 1_555
Cs3 Se1 3.942243 1_555
Cs3 Se4 3.942244 1_655
Mg0 Se4 2.568983 1_555
Mg0 Se6 2.568988 1_565
Mg0 Se0 2.626568 1_454
Mg0 Se2 2.626576 1_455
Mg1 Se7 2.568992 1_555
Mg1 Se5 2.568992 1_555
Mg1 Se1 2.626574 1_566
Mg1 Se3 2.626575 1_555
Mg2 Se0 2.568983 1_555
Mg2 Se2 2.568988 1_545
Mg2 Se4 2.626568 1_656
Mg2 Se6 2.626576 1_655
Mg3 Se3 2.568992 1_555
Mg3 Se1 2.568992 1_555
Mg3 Se5 2.626574 1_544
Mg3 Se7 2.626575 1_555
Cd0 Se2 2.681624 1_555
Cd0 Se3 2.681630 1_554
Cd0 Se1 2.681630 1_565
Cd0 Se0 2.681632 1_554
Cd1 Se6 2.681624 1_554
Cd1 Se7 2.681630 1_555
Cd1 Se5 2.681630 1_544
Cd1 Se4 2.681632 1_555
