# generated using pymatgen
data_Ca10Cd2Cu3Au
_symmetry_space_group_name_H-M   'P 1'
_cell_length_a   9.26699146
_cell_length_b   9.26699038
_cell_length_c   9.24885836
_cell_angle_alpha   129.28296570
_cell_angle_beta   129.28296383
_cell_angle_gamma   74.70292790
_symmetry_Int_Tables_number   1
_chemical_formula_structural   Ca10Cd2Cu3Au
_chemical_formula_sum   'Ca10 Cd2 Cu3 Au1'
_cell_volume   463.24160387
_cell_formula_units_Z   1
loop_
 _symmetry_equiv_pos_site_id
 _symmetry_equiv_pos_as_xyz
  1  'x, y, z'
loop_
 _atom_site_type_symbol
 _atom_site_label
 _atom_site_symmetry_multiplicity
 _atom_site_fract_x
 _atom_site_fract_y
 _atom_site_fract_z
 _atom_site_occupancy
  Ca  Ca0  1  0.52958396  0.03022278  0.83892968  1
  Ca  Ca1  1  0.19065428  0.69129310  0.16107032  1
  Ca  Ca2  1  0.02875432  0.19190831  0.50000000  1
  Ca  Ca3  1  0.69231684  0.52823868  0.50000000  1
  Ca  Ca4  1  0.46977722  0.97041604  0.16107032  1
  Ca  Ca5  1  0.80870690  0.30934572  0.83892968  1
  Ca  Ca6  1  0.97176132  0.80768316  0.50000000  1
  Ca  Ca7  1  0.30809169  0.47124568  0.50000000  1
  Ca  Ca8  1  0.49984947  0.50037526  0.00022473  1
  Ca  Ca9  1  0.99962474  0.00015053  0.99977527  1
  Cd  Cd0  1  0.25011698  0.24988302  0.00000000  1
  Cd  Cd1  1  0.75011698  0.74988302  0.00000000  1
  Cu  Cu0  1  0.38153557  0.11846443  0.50000000  1
  Cu  Cu1  1  0.11126645  0.61090304  0.72216949  1
  Cu  Cu2  1  0.88909696  0.38873355  0.27783051  1
  Au  Au0  1  0.61874633  0.88125367  0.50000000  1
loop_
_geom_bond_atom_site_label_1
_geom_bond_atom_site_label_2
_geom_bond_distance
_geom_bond_site_symmetry_2
Ca0 Cu0 3.096033 1_555
Ca0 Cu2 3.201950 1_556
Ca0 Cd0 3.366585 1_556
Ca0 Cd1 3.374770 1_546
Ca1 Cu0 3.096033 1_565
Ca1 Cu1 3.201950 1_554
Ca1 Cd1 3.366585 1_455
Ca1 Cd0 3.374770 1_555
Ca2 Cu1 3.058927 1_555
Ca2 Cu2 3.058927 1_455
Ca2 Cu0 3.158637 1_555
Ca2 Cd1 3.362271 1_445
Ca2 Cd0 3.362271 1_556
Ca3 Cu2 3.058772 1_555
Ca3 Cu1 3.058772 1_655
Ca3 Cd1 3.362592 1_556
Ca3 Cd0 3.362592 1_555
Ca4 Cu0 3.096033 1_565
Ca4 Cu1 3.201950 1_554
Ca4 Cd0 3.366585 1_565
Ca4 Cd1 3.374770 1_555
Ca5 Cu0 3.096033 1_555
Ca5 Cu2 3.201950 1_556
Ca5 Cd1 3.366585 1_556
Ca5 Cd0 3.374770 1_656
Ca6 Cu2 3.058772 1_555
Ca6 Cu1 3.058772 1_655
Ca6 Cd0 3.362591 1_666
Ca6 Cd1 3.362592 1_555
Ca7 Cu1 3.058927 1_555
Ca7 Cu2 3.058927 1_455
Ca7 Cu0 3.158637 1_555
Ca7 Cd0 3.362271 1_555
Ca7 Cd1 3.362271 1_556
Ca8 Cu0 3.165766 1_554
Ca8 Cu1 3.208191 1_554
Ca8 Cu2 3.215727 1_555
Ca8 Cd0 3.683302 1_555
Ca8 Cd1 3.683302 1_555
Ca9 Cu0 3.165766 1_656
Ca9 Cu2 3.208191 1_556
Ca9 Cu1 3.215726 1_645
Ca9 Cd1 3.683302 1_546
Ca9 Cd0 3.683302 1_656
Cu1 Cu2 2.484908 1_455
Au0 Cu0 2.667344 1_565
Au0 Ca5 3.100490 1_565
Au0 Ca4 3.100490 1_555
Au0 Ca0 3.100490 1_565
Au0 Ca1 3.100490 1_555
Au0 Ca8 3.159300 1_555
Au0 Ca9 3.159301 1_565
Au0 Ca3 3.160688 1_555
Au0 Ca6 3.160688 1_555
