# generated using pymatgen
data_Be3Ni2(BW2)3
_symmetry_space_group_name_H-M   'P 1'
_cell_length_a   4.56832283
_cell_length_b   4.56832256
_cell_length_c   10.92333413
_cell_angle_alpha   89.94475724
_cell_angle_beta   90.05524178
_cell_angle_gamma   138.87944686
_symmetry_Int_Tables_number   1
_chemical_formula_structural   Be3Ni2(BW2)3
_chemical_formula_sum   'Be3 Ni2 B3 W6'
_cell_volume   149.92028606
_cell_formula_units_Z   1
loop_
 _symmetry_equiv_pos_site_id
 _symmetry_equiv_pos_as_xyz
  1  'x, y, z'
loop_
 _atom_site_type_symbol
 _atom_site_label
 _atom_site_symmetry_multiplicity
 _atom_site_fract_x
 _atom_site_fract_y
 _atom_site_fract_z
 _atom_site_occupancy
  Be  Be0  1  0.08426044  0.91573956  0.39883786  1
  Be  Be1  1  0.91759432  0.08240568  0.60178585  1
  Be  Be2  1  0.08287987  0.91712013  0.10062974  1
  Ni  Ni0  1  0.50119718  0.49880282  0.50121839  1
  Ni  Ni1  1  0.49530214  0.50469786  0.99412291  1
  B  B0  1  0.91293241  0.08706759  0.89699716  1
  B  B1  1  0.21185759  0.78814241  0.24961186  1
  B  B2  1  0.79065153  0.20934847  0.75257008  1
  W  W0  1  0.79203950  0.20796050  0.39139461  1
  W  W1  1  0.21053433  0.78946567  0.61035281  1
  W  W2  1  0.79110171  0.20889829  0.10759817  1
  W  W3  1  0.21132602  0.78867398  0.89240475  1
  W  W4  1  0.49594869  0.50405131  0.24947419  1
  W  W5  1  0.50237527  0.49762473  0.75299962  1
loop_
_geom_bond_atom_site_label_1
_geom_bond_atom_site_label_2
_geom_bond_distance
_geom_bond_site_symmetry_2
Be0 Ni0 2.081156 1_565
Be0 Ni0 2.081156 1_455
Be0 W0 2.395897 1_455
Be0 W0 2.395897 1_565
Be0 W4 2.409177 1_565
Be0 W4 2.409177 1_455
Be0 W0 2.501092 1_465
Be0 W1 2.549497 1_555
Be1 Ni0 2.072165 1_545
Be1 Ni0 2.072165 1_655
Be1 W1 2.391795 1_655
Be1 W1 2.391795 1_545
Be1 W5 2.413677 1_545
Be1 W5 2.413677 1_655
Be1 W1 2.507656 1_645
Be1 W0 2.535777 1_555
Be2 Ni1 2.118254 1_564
Be2 Ni1 2.118254 1_454
Be2 W2 2.398418 1_455
Be2 W2 2.398418 1_565
Be2 W4 2.402704 1_565
Be2 W4 2.402704 1_455
Be2 W2 2.497305 1_465
Be2 W3 2.527042 1_554
Ni1 W3 2.670317 1_555
Ni1 W2 2.677015 1_566
Ni1 W2 2.677015 1_456
Ni1 W3 2.688476 1_545
Ni1 W3 2.688476 1_655
B0 B2 1.892028 1_555
B0 Ni1 2.048059 1_545
B0 Ni1 2.048060 1_655
B0 W3 2.356018 1_655
B0 W3 2.356018 1_545
B0 W5 2.374033 1_545
B0 W5 2.374033 1_655
B0 W2 2.526520 1_556
B0 W3 2.553204 1_645
B1 Be0 1.962702 1_555
B1 Be2 1.965218 1_555
B1 W0 2.332570 1_455
B1 W0 2.332570 1_565
B1 W2 2.332834 1_455
B1 W2 2.332834 1_565
B1 W4 2.430308 1_555
B1 W4 2.446526 1_565
B1 W4 2.446526 1_455
B2 Be1 1.973780 1_555
B2 W3 2.317272 1_655
B2 W3 2.317272 1_545
B2 W1 2.335560 1_655
B2 W1 2.335561 1_545
B2 W5 2.419612 1_545
B2 W5 2.419612 1_655
B2 W5 2.466118 1_555
