# generated using pymatgen
data_YbGa4
_symmetry_space_group_name_H-M   'P 1'
_cell_length_a   4.21295506
_cell_length_b   4.21295506
_cell_length_c   5.74529036
_cell_angle_alpha   77.51959303
_cell_angle_beta   77.51959303
_cell_angle_gamma   81.69691060
_symmetry_Int_Tables_number   1
_chemical_formula_structural   YbGa4
_chemical_formula_sum   'Yb1 Ga4'
_cell_volume   96.69883230
_cell_formula_units_Z   1
loop_
 _symmetry_equiv_pos_site_id
 _symmetry_equiv_pos_as_xyz
  1  'x, y, z'
loop_
 _atom_site_type_symbol
 _atom_site_label
 _atom_site_symmetry_multiplicity
 _atom_site_fract_x
 _atom_site_fract_y
 _atom_site_fract_z
 _atom_site_occupancy
  Yb  Yb0  1  0.00000000  0.00000000  0.00000000  1
  Ga  Ga0  1  0.37357610  0.37357610  0.21154942  1
  Ga  Ga1  1  0.62642390  0.62642390  0.78845058  1
  Ga  Ga2  1  0.76939486  0.23060514  0.50000000  1
  Ga  Ga3  1  0.23060514  0.76939486  0.50000000  1
loop_
_geom_bond_atom_site_label_1
_geom_bond_atom_site_label_2
_geom_bond_distance
_geom_bond_site_symmetry_2
Ga0 Ga1 2.503550 1_554
Ga0 Ga3 2.522480 1_555
Ga0 Ga2 2.522480 1_555
Ga0 Ga3 2.788619 1_545
Ga0 Ga2 2.788619 1_455
Ga0 Yb0 2.966522 1_555
Ga0 Yb0 3.026528 1_655
Ga0 Yb0 3.026528 1_565
Ga1 Ga2 2.522480 1_555
Ga1 Ga3 2.522480 1_555
Ga1 Ga2 2.788619 1_565
Ga1 Ga3 2.788619 1_655
Ga1 Yb0 2.966522 1_666
Ga1 Yb0 3.026528 1_566
Ga1 Yb0 3.026528 1_656
Ga2 Ga3 2.541755 1_645
Ga2 Yb0 3.141213 1_655
Ga2 Yb0 3.141213 1_656
Ga3 Yb0 3.141213 1_566
Ga3 Yb0 3.141213 1_565
