# generated using pymatgen
data_Yb2SmS4
_symmetry_space_group_name_H-M   'P 1'
_cell_length_a   7.32667532
_cell_length_b   7.32667532
_cell_length_c   7.32667532
_cell_angle_alpha   106.12400149
_cell_angle_beta   106.12400149
_cell_angle_gamma   116.39556159
_symmetry_Int_Tables_number   1
_chemical_formula_structural   Yb2SmS4
_chemical_formula_sum   'Yb4 Sm2 S8'
_cell_volume   299.40529655
_cell_formula_units_Z   2
loop_
 _symmetry_equiv_pos_site_id
 _symmetry_equiv_pos_as_xyz
  1  'x, y, z'
loop_
 _atom_site_type_symbol
 _atom_site_label
 _atom_site_symmetry_multiplicity
 _atom_site_fract_x
 _atom_site_fract_y
 _atom_site_fract_z
 _atom_site_occupancy
  Yb  Yb0  1  0.93210953  0.37500000  0.05710953  1
  Yb  Yb1  1  0.62500000  0.68210953  0.55710953  1
  Yb  Yb2  1  0.31789047  0.87500000  0.94289047  1
  Yb  Yb3  1  0.12500000  0.06789047  0.44289047  1
  Sm  Sm0  1  0.75000000  0.25000000  0.50000000  1
  Sm  Sm1  1  0.50000000  0.50000000  0.00000000  1
  S  S0  1  0.98450051  0.12122122  0.75547626  1
  S  S1  1  0.77097575  0.01549949  0.13672070  1
  S  S2  1  0.88425505  0.62877878  0.36327930  1
  S  S3  1  0.36574495  0.22902425  0.24452374  1
  S  S4  1  0.87877878  0.63425505  0.86327930  1
  S  S5  1  0.26549949  0.52097575  0.63672070  1
  S  S6  1  0.47902425  0.11574495  0.74452374  1
  S  S7  1  0.37122122  0.73450051  0.25547626  1
loop_
_geom_bond_atom_site_label_1
_geom_bond_atom_site_label_2
_geom_bond_distance
_geom_bond_site_symmetry_2
S0 Yb1 2.672571 1_545
S0 Yb0 2.704057 1_556
S0 Yb3 2.761784 1_655
S0 Sm0 2.825203 1_555
S0 Sm1 3.055626 1_656
S1 Yb0 2.672571 1_555
S1 Yb3 2.704057 1_655
S1 Yb2 2.761784 1_544
S1 Sm0 2.825203 1_555
S1 Sm1 3.055626 1_545
S2 Yb3 2.672571 1_665
S2 Yb0 2.704057 1_555
S2 Yb1 2.761784 1_555
S2 Sm1 2.825203 1_555
S2 Sm0 3.055626 1_555
S3 Yb3 2.672571 1_555
S3 Yb2 2.704057 1_544
S3 Yb1 2.761784 1_555
S3 Sm0 2.825203 1_555
S3 Sm1 3.055626 1_555
S4 Yb2 2.672571 1_655
S4 Yb1 2.704057 1_555
S4 Yb0 2.761784 1_556
S4 Sm0 2.825203 1_555
S4 Sm1 3.055626 1_556
S5 Yb1 2.672571 1_555
S5 Yb2 2.704057 1_555
S5 Yb3 2.761784 1_555
S5 Sm1 2.825203 1_556
S5 Sm0 3.055626 1_455
S6 Yb2 2.672571 1_545
S6 Yb3 2.704057 1_555
S6 Yb0 2.761784 1_556
S6 Sm1 2.825203 1_556
S6 Sm0 3.055626 1_555
S7 Yb0 2.672571 1_455
S7 Yb1 2.704057 1_555
S7 Yb2 2.761784 1_554
S7 Sm1 2.825203 1_555
S7 Sm0 3.055626 1_565
