# generated using pymatgen
data_Ba2Ga6OsRu
_symmetry_space_group_name_H-M   'P 1'
_cell_length_a   6.85791760
_cell_length_b   6.85791759
_cell_length_c   6.85791800
_cell_angle_alpha   119.99999725
_cell_angle_beta   119.99999720
_cell_angle_gamma   60.00000727
_symmetry_Int_Tables_number   1
_chemical_formula_structural   Ba2Ga6OsRu
_chemical_formula_sum   'Ba2 Ga6 Os1 Ru1'
_cell_volume   228.06668879
_cell_formula_units_Z   1
loop_
 _symmetry_equiv_pos_site_id
 _symmetry_equiv_pos_as_xyz
  1  'x, y, z'
loop_
 _atom_site_type_symbol
 _atom_site_label
 _atom_site_symmetry_multiplicity
 _atom_site_fract_x
 _atom_site_fract_y
 _atom_site_fract_z
 _atom_site_occupancy
  Ba  Ba0  1  0.74999900  0.74999900  0.24999800  1
  Ba  Ba1  1  0.25000000  0.25000000  0.74999700  1
  Ga  Ga0  1  0.25085111  0.25085111  0.25085111  1
  Ga  Ga1  1  0.74914889  0.25085111  0.25085111  1
  Ga  Ga2  1  0.25085111  0.74914889  0.25085111  1
  Ga  Ga3  1  0.74914889  0.25085111  0.74914789  1
  Ga  Ga4  1  0.25085111  0.74914889  0.74914789  1
  Ga  Ga5  1  0.74914889  0.74914889  0.74914989  1
  Os  Os0  1  0.00000000  0.00000000  0.00000000  1
  Ru  Ru0  1  0.50000000  0.50000000  0.50000100  1
loop_
_geom_bond_atom_site_label_1
_geom_bond_atom_site_label_2
_geom_bond_distance
_geom_bond_site_symmetry_2
Ba0 Ga5 3.428955 1_554
Ba0 Ga3 3.428962 1_554
Ba0 Ga4 3.428962 1_554
Ba0 Ga1 3.428965 1_555
Ba0 Ga2 3.428965 1_555
Ba0 Ga0 3.428969 1_565
Ba0 Ga0 3.428969 1_655
Ba0 Ga1 3.428972 1_565
Ba0 Ga2 3.428972 1_655
Ba0 Ga3 3.428976 1_565
Ba0 Ga4 3.428976 1_655
Ba0 Ga5 3.428983 1_555
Ba1 Ga0 3.428948 1_555
Ba1 Ga2 3.428959 1_545
Ba1 Ga1 3.428959 1_455
Ba1 Ga4 3.428962 1_555
Ba1 Ga3 3.428962 1_555
Ba1 Ga5 3.428969 1_545
Ba1 Ga5 3.428969 1_455
Ba1 Ga4 3.428976 1_545
Ba1 Ga3 3.428976 1_455
Ba1 Ga2 3.428979 1_556
Ba1 Ga1 3.428979 1_556
Ba1 Ga0 3.428990 1_556
Ga0 Ru0 2.416385 1_555
Ga0 Os0 2.432895 1_555
Ga1 Ru0 2.416391 1_555
Ga1 Os0 2.432895 1_655
Ga2 Ru0 2.416391 1_555
Ga2 Os0 2.432895 1_565
Ga3 Ru0 2.416376 1_555
Ga3 Os0 2.432900 1_656
Ga4 Ru0 2.416376 1_555
Ga4 Os0 2.432900 1_566
Ga5 Ru0 2.416385 1_555
Ga5 Os0 2.432895 1_666
