# generated using pymatgen
data_Rb2CaCoO4
_symmetry_space_group_name_H-M   'P 1'
_cell_length_a   6.08726849
_cell_length_b   6.08540142
_cell_length_c   7.92166853
_cell_angle_alpha   86.49768441
_cell_angle_beta   90.00000000
_cell_angle_gamma   90.00000000
_symmetry_Int_Tables_number   1
_chemical_formula_structural   Rb2CaCoO4
_chemical_formula_sum   'Rb4 Ca2 Co2 O8'
_cell_volume   292.89804848
_cell_formula_units_Z   2
loop_
 _symmetry_equiv_pos_site_id
 _symmetry_equiv_pos_as_xyz
  1  'x, y, z'
loop_
 _atom_site_type_symbol
 _atom_site_label
 _atom_site_symmetry_multiplicity
 _atom_site_fract_x
 _atom_site_fract_y
 _atom_site_fract_z
 _atom_site_occupancy
  Rb  Rb0  1  0.75000000  0.11067746  0.81804375  1
  Rb  Rb1  1  0.25000000  0.88932254  0.18195625  1
  Rb  Rb2  1  0.25000000  0.30631584  0.47522512  1
  Rb  Rb3  1  0.75000000  0.69368416  0.52477488  1
  Ca  Ca0  1  0.75000000  0.61189199  0.04033081  1
  Ca  Ca1  1  0.25000000  0.38810801  0.95966919  1
  Co  Co0  1  0.25000000  0.81453478  0.74630285  1
  Co  Co1  1  0.75000000  0.18546522  0.25369715  1
  O  O0  1  0.51805334  0.33742477  0.15670832  1
  O  O1  1  0.01805334  0.66257523  0.84329068  1
  O  O2  1  0.48194666  0.66257523  0.84329068  1
  O  O3  1  0.98194666  0.33742477  0.15670832  1
  O  O4  1  0.75000000  0.20457005  0.47340160  1
  O  O5  1  0.75000000  0.90756467  0.19062428  1
  O  O6  1  0.25000000  0.79542995  0.52659840  1
  O  O7  1  0.25000000  0.09243533  0.80937572  1
loop_
_geom_bond_atom_site_label_1
_geom_bond_atom_site_label_2
_geom_bond_distance
_geom_bond_site_symmetry_2
Ca0 O5 2.217348 1_555
Ca0 O1 2.266090 1_654
Ca0 O2 2.266090 1_554
Ca0 O3 2.333455 1_555
Ca0 O0 2.333455 1_555
Ca1 O7 2.217348 1_555
Ca1 O0 2.266084 1_556
Ca1 O3 2.266084 1_456
Ca1 O2 2.333458 1_555
Ca1 O1 2.333458 1_555
Co0 O6 1.751377 1_555
Co0 O7 1.792434 1_565
Co0 O2 1.830887 1_555
Co0 O1 1.830887 1_555
Co1 O4 1.751377 1_555
Co1 O5 1.792434 1_545
Co1 O3 1.830890 1_555
Co1 O0 1.830890 1_555
O0 Rb2 3.001071 1_555
O0 Rb1 3.173600 1_545
O0 Rb0 3.398108 1_554
O1 Rb3 3.001064 1_455
O1 Rb0 3.173600 1_465
O1 Rb1 3.398115 1_556
O2 Rb3 3.001064 1_555
O2 Rb0 3.173600 1_565
O2 Rb1 3.398115 1_556
O3 Rb2 3.001071 1_655
O3 Rb1 3.173600 1_645
O3 Rb0 3.398108 1_554
O4 Rb0 2.754914 1_555
O4 Rb3 3.028680 1_555
O4 Rb2 3.106183 1_655
O4 Rb2 3.106183 1_555
O4 Rb3 3.110720 1_545
O5 Rb3 2.877476 1_555
O5 Rb1 3.046585 1_655
O5 Rb1 3.046585 1_555
O5 Rb0 3.129401 1_564
O6 Rb1 2.754914 1_555
O6 Rb2 3.028680 1_555
O6 Rb3 3.106183 1_555
O6 Rb3 3.106183 1_455
O6 Rb2 3.110720 1_565
O7 Rb2 2.877476 1_555
O7 Rb0 3.046585 1_455
O7 Rb0 3.046585 1_555
O7 Rb1 3.129401 1_546
