# generated using pymatgen
data_KRb2H6Ir
_symmetry_space_group_name_H-M   'P 1'
_cell_length_a   6.04920955
_cell_length_b   6.04920994
_cell_length_c   6.04921023
_cell_angle_alpha   60.00000362
_cell_angle_beta   60.00000149
_cell_angle_gamma   60.00000613
_symmetry_Int_Tables_number   1
_chemical_formula_structural   KRb2H6Ir
_chemical_formula_sum   'K1 Rb2 H6 Ir1'
_cell_volume   156.52402364
_cell_formula_units_Z   1
loop_
 _symmetry_equiv_pos_site_id
 _symmetry_equiv_pos_as_xyz
  1  'x, y, z'
loop_
 _atom_site_type_symbol
 _atom_site_label
 _atom_site_symmetry_multiplicity
 _atom_site_fract_x
 _atom_site_fract_y
 _atom_site_fract_z
 _atom_site_occupancy
  K  K0  1  0.50000000  0.50000000  0.50000000  1
  Rb  Rb0  1  0.24999900  0.24999900  0.24999900  1
  Rb  Rb1  1  0.74999900  0.74999900  0.74999900  1
  H  H0  1  0.19676088  0.80323912  0.19676088  1
  H  H1  1  0.80323912  0.19676088  0.19676088  1
  H  H2  1  0.80323912  0.80323912  0.19676088  1
  H  H3  1  0.19676088  0.19676088  0.80323912  1
  H  H4  1  0.80323912  0.19676088  0.80323912  1
  H  H5  1  0.19676088  0.80323912  0.80323912  1
  Ir  Ir0  1  0.00000000  0.00000000  0.00000000  1
loop_
_geom_bond_atom_site_label_1
_geom_bond_atom_site_label_2
_geom_bond_distance
_geom_bond_site_symmetry_2
H0 Ir0 1.683265 1_565
H0 K0 2.594173 1_555
H0 Rb0 3.058691 1_565
H0 Rb1 3.058703 1_554
H0 Rb1 3.058703 1_455
H0 Rb0 3.058715 1_555
H1 Ir0 1.683265 1_655
H1 K0 2.594173 1_555
H1 Rb0 3.058691 1_655
H1 Rb1 3.058704 1_554
H1 Rb1 3.058704 1_545
H1 Rb0 3.058715 1_555
H2 Ir0 1.683265 1_665
H2 K0 2.594173 1_555
H2 Rb1 3.058694 1_555
H2 Rb0 3.058706 1_565
H2 Rb0 3.058706 1_655
H2 Rb1 3.058718 1_554
H3 Ir0 1.683265 1_556
H3 K0 2.594173 1_555
H3 Rb0 3.058691 1_556
H3 Rb1 3.058703 1_545
H3 Rb1 3.058703 1_455
H3 Rb0 3.058715 1_555
H4 Ir0 1.683265 1_656
H4 K0 2.594173 1_555
H4 Rb1 3.058694 1_555
H4 Rb0 3.058706 1_556
H4 Rb0 3.058706 1_655
H4 Rb1 3.058718 1_545
H5 Ir0 1.683265 1_566
H5 K0 2.594173 1_555
H5 Rb1 3.058694 1_555
H5 Rb0 3.058706 1_556
H5 Rb0 3.058706 1_565
H5 Rb1 3.058718 1_455
