# generated using pymatgen
data_Cs2MgSiSe4
_symmetry_space_group_name_H-M   'P 1'
_cell_length_a   14.50863301
_cell_length_b   12.94868520
_cell_length_c   7.89515486
_cell_angle_alpha   84.52688044
_cell_angle_beta   62.67445293
_cell_angle_gamma   32.79866284
_symmetry_Int_Tables_number   1
_chemical_formula_structural   Cs2MgSiSe4
_chemical_formula_sum   'Cs4 Mg2 Si2 Se8'
_cell_volume   569.09640423
_cell_formula_units_Z   2
loop_
 _symmetry_equiv_pos_site_id
 _symmetry_equiv_pos_as_xyz
  1  'x, y, z'
loop_
 _atom_site_type_symbol
 _atom_site_label
 _atom_site_symmetry_multiplicity
 _atom_site_fract_x
 _atom_site_fract_y
 _atom_site_fract_z
 _atom_site_occupancy
  Cs  Cs0  1  0.57031655  0.57031655  0.92968345  1
  Cs  Cs1  1  0.92968345  0.92968345  0.57031655  1
  Cs  Cs2  1  0.32031655  0.32031655  0.67968345  1
  Cs  Cs3  1  0.67968345  0.67968345  0.32031655  1
  Mg  Mg0  1  0.00000000  0.00000000  0.00000000  1
  Mg  Mg1  1  0.25000000  0.25000000  0.25000000  1
  Si  Si0  1  0.75000000  0.75000000  0.75000000  1
  Si  Si1  1  0.50000000  0.50000000  0.50000000  1
  Se  Se0  1  0.24504473  0.85884744  0.57474152  1
  Se  Se1  1  0.32136730  0.57474152  0.85884744  1
  Se  Se2  1  0.57474152  0.32136730  0.24504473  1
  Se  Se3  1  0.85884744  0.24504473  0.32136730  1
  Se  Se4  1  0.39115256  0.00495527  0.92863270  1
  Se  Se5  1  0.92863270  0.67525848  0.39115256  1
  Se  Se6  1  0.67525848  0.92863270  0.00495527  1
  Se  Se7  1  0.00495527  0.39115256  0.67525848  1
loop_
_geom_bond_atom_site_label_1
_geom_bond_atom_site_label_2
_geom_bond_distance
_geom_bond_site_symmetry_2
Cs0 Se7 3.721254 1_655
Cs0 Se4 3.721255 1_565
Cs0 Se3 3.753537 1_555
Cs0 Se0 3.753544 1_556
Cs0 Se1 3.855189 1_555
Cs0 Se2 3.855194 1_556
Cs0 Se3 4.084030 1_466
Cs0 Se0 4.084032 1_645
Cs1 Se6 3.721264 1_556
Cs1 Se5 3.721267 1_555
Cs1 Se1 3.753540 1_565
Cs1 Se2 3.753542 1_655
Cs1 Se3 3.855200 1_565
Cs1 Se0 3.855204 1_655
Cs1 Se1 4.084029 1_654
Cs1 Se2 4.084036 1_566
Cs2 Se2 3.721264 1_555
Cs2 Se1 3.721267 1_555
Cs2 Se5 3.753540 1_545
Cs2 Se6 3.753542 1_456
Cs2 Se4 3.855200 1_555
Cs2 Se7 3.855204 1_555
Cs2 Se5 4.084029 1_456
Cs2 Se6 4.084036 1_545
Cs3 Se0 3.721254 1_555
Cs3 Se3 3.721255 1_555
Cs3 Se4 3.753537 1_565
Cs3 Se7 3.753544 1_654
Cs3 Se5 3.855189 1_555
Cs3 Se6 3.855194 1_555
Cs3 Se4 4.084030 1_654
Cs3 Se7 4.084032 1_565
Mg0 Se2 2.557431 1_455
Mg0 Se1 2.557432 1_544
Mg0 Se0 2.557435 1_544
Mg0 Se3 2.557441 1_455
Mg1 Se6 2.557431 1_545
Mg1 Se5 2.557432 1_455
Mg1 Se7 2.557435 1_555
Mg1 Se4 2.557441 1_554
Se0 Si1 2.290275 1_555
Se1 Si1 2.290272 1_555
Se2 Si1 2.290266 1_555
Se3 Si1 2.290278 1_555
Se4 Si0 2.290278 1_545
Se5 Si0 2.290272 1_555
Se6 Si0 2.290266 1_554
Se7 Si0 2.290275 1_455
