# generated using pymatgen
data_Hf3ScSi6Ir7
_symmetry_space_group_name_H-M   'P 1'
_cell_length_a   6.94916425
_cell_length_b   6.96388430
_cell_length_c   6.94916463
_cell_angle_alpha   109.51414011
_cell_angle_beta   109.42826473
_cell_angle_gamma   109.51414232
_symmetry_Int_Tables_number   1
_chemical_formula_structural   Hf3ScSi6Ir7
_chemical_formula_sum   'Hf3 Sc1 Si6 Ir7'
_cell_volume   258.74056446
_cell_formula_units_Z   1
loop_
 _symmetry_equiv_pos_site_id
 _symmetry_equiv_pos_as_xyz
  1  'x, y, z'
loop_
 _atom_site_type_symbol
 _atom_site_label
 _atom_site_symmetry_multiplicity
 _atom_site_fract_x
 _atom_site_fract_y
 _atom_site_fract_z
 _atom_site_occupancy
  Hf  Hf0  1  0.00000000  0.00000000  0.50000000  1
  Hf  Hf1  1  0.50000000  0.00000000  0.00000000  1
  Hf  Hf2  1  0.50000000  0.50000000  0.50000000  1
  Sc  Sc0  1  0.00000000  0.50000000  0.00000000  1
  Si  Si0  1  0.68132512  0.67909289  1.00000000  1
  Si  Si1  1  0.31867488  0.99776776  0.31867488  1
  Si  Si2  1  0.00000000  0.32090711  0.31867488  1
  Si  Si3  1  0.31867488  0.32090711  0.00000000  1
  Si  Si4  1  0.68132512  0.00223224  0.68132512  1
  Si  Si5  1  1.00000000  0.67909289  0.68132512  1
  Ir  Ir0  1  0.74902492  0.24902492  0.49805084  1
  Ir  Ir1  1  0.74902492  0.50000000  0.25097508  1
  Ir  Ir2  1  0.49805084  0.24902492  0.74902492  1
  Ir  Ir3  1  0.25097508  0.50000000  0.74902492  1
  Ir  Ir4  1  0.25097508  0.75097508  0.50194916  1
  Ir  Ir5  1  0.50194916  0.75097508  0.25097508  1
  Ir  Ir6  1  0.00000000  0.00000000  0.00000000  1
loop_
_geom_bond_atom_site_label_1
_geom_bond_atom_site_label_2
_geom_bond_distance
_geom_bond_site_symmetry_2
Hf0 Ir2 2.825176 1_555
Hf0 Ir5 2.825176 1_445
Hf0 Ir1 2.840763 1_445
Hf0 Ir3 2.840763 1_555
Hf0 Ir0 2.840763 1_455
Hf0 Ir4 2.840763 1_545
Hf0 Si1 2.891083 1_545
Hf0 Si4 2.891083 1_455
Hf0 Si3 2.891083 1_556
Hf0 Si0 2.891083 1_444
Hf0 Si2 2.909151 1_555
Hf0 Si5 2.909151 1_445
Hf1 Ir4 2.825176 1_544
Hf1 Ir0 2.825176 1_555
Hf1 Ir3 2.840763 1_544
Hf1 Ir1 2.840763 1_555
Hf1 Ir2 2.840763 1_554
Hf1 Ir5 2.840763 1_545
Hf1 Si2 2.891082 1_655
Hf1 Si5 2.891082 1_444
Hf1 Si1 2.891083 1_545
Hf1 Si4 2.891083 1_554
Hf1 Si3 2.909151 1_555
Hf1 Si0 2.909151 1_544
Hf2 Ir1 2.825170 1_555
Hf2 Ir3 2.825170 1_555
Hf2 Ir0 2.840763 1_555
Hf2 Ir4 2.840763 1_555
Hf2 Ir5 2.840763 1_555
Hf2 Ir2 2.840763 1_555
Hf2 Si5 2.891083 1_555
Hf2 Si2 2.891083 1_555
Hf2 Si0 2.891083 1_555
Hf2 Si3 2.891083 1_555
Hf2 Si4 2.909151 1_565
Hf2 Si1 2.909151 1_545
Sc0 Si1 2.881797 1_555
Sc0 Si4 2.881797 1_454
Sc0 Si0 2.881798 1_454
Sc0 Si3 2.881798 1_555
Sc0 Si2 2.881798 1_555
Sc0 Si5 2.881798 1_454
Ir0 Si4 2.473432 1_555
Ir0 Si5 2.473438 1_555
Ir0 Si1 2.475071 1_545
Ir0 Si2 2.475078 1_655
Ir0 Sc0 2.847289 1_656
Ir1 Si2 2.473438 1_655
Ir1 Si0 2.473438 1_554
Ir1 Si3 2.475072 1_555
Ir1 Si5 2.475072 1_555
Ir1 Sc0 2.847295 1_655
Ir2 Si4 2.473432 1_555
Ir2 Si0 2.473438 1_555
Ir2 Si1 2.475071 1_545
Ir2 Si3 2.475078 1_556
Ir2 Sc0 2.847289 1_656
Ir3 Si5 2.473438 1_455
Ir3 Si3 2.473438 1_556
Ir3 Si0 2.475072 1_555
Ir3 Si2 2.475072 1_555
Ir3 Sc0 2.847295 1_556
Ir4 Si1 2.473432 1_555
Ir4 Si2 2.473438 1_555
Ir4 Si4 2.475071 1_565
Ir4 Si5 2.475078 1_455
Ir4 Sc0 2.847289 1_555
Ir5 Si1 2.473432 1_555
Ir5 Si3 2.473438 1_555
Ir5 Si4 2.475071 1_565
Ir5 Si0 2.475078 1_554
Ir5 Sc0 2.847289 1_555
Ir6 Si3 2.567488 1_555
Ir6 Si0 2.567488 1_444
Ir6 Si2 2.567488 1_555
Ir6 Si5 2.567488 1_444
Ir6 Si1 2.567488 1_545
Ir6 Si4 2.567488 1_454
