# generated using pymatgen
data_Al11ReTc2Ru
_symmetry_space_group_name_H-M   'P 1'
_cell_length_a   5.14182755
_cell_length_b   5.11250487
_cell_length_c   8.94719662
_cell_angle_alpha   104.94922232
_cell_angle_beta   90.69168220
_cell_angle_gamma   99.92336272
_symmetry_Int_Tables_number   1
_chemical_formula_structural   Al11ReTc2Ru
_chemical_formula_sum   'Al11 Re1 Tc2 Ru1'
_cell_volume   223.44519634
_cell_formula_units_Z   1
loop_
 _symmetry_equiv_pos_site_id
 _symmetry_equiv_pos_as_xyz
  1  'x, y, z'
loop_
 _atom_site_type_symbol
 _atom_site_label
 _atom_site_symmetry_multiplicity
 _atom_site_fract_x
 _atom_site_fract_y
 _atom_site_fract_z
 _atom_site_occupancy
  Al  Al0  1  0.79535284  0.25695240  0.63517608  1
  Al  Al1  1  0.20520028  0.74777560  0.36389407  1
  Al  Al2  1  0.14880427  0.46704886  0.87137647  1
  Al  Al3  1  0.85389641  0.53238622  0.12948541  1
  Al  Al4  1  0.99765723  0.99731942  0.00015637  1
  Al  Al5  1  0.49972794  0.09850551  0.87413353  1
  Al  Al6  1  0.50144503  0.90054959  0.12647767  1
  Al  Al7  1  0.56229665  0.31715811  0.37640174  1
  Al  Al8  1  0.43743741  0.67880209  0.62287147  1
  Al  Al9  1  0.94646827  0.80235687  0.66760173  1
  Al  Al10  1  0.04921506  0.20389813  0.33223905  1
  Re  Re0  1  0.33855613  0.38755386  0.13253164  1
  Tc  Tc0  1  0.72446939  0.84626614  0.40139530  1
  Tc  Tc1  1  0.66202713  0.60775030  0.86501624  1
  Ru  Ru0  1  0.27744398  0.15567593  0.60124222  1
loop_
_geom_bond_atom_site_label_1
_geom_bond_atom_site_label_2
_geom_bond_distance
_geom_bond_site_symmetry_2
Al0 Tc0 2.523580 1_545
Al0 Tc1 2.543685 1_555
Al0 Ru0 2.622208 1_555
Al0 Ru0 2.623795 1_655
Al0 Al2 2.643127 1_655
Al0 Al9 2.655993 1_545
Al0 Al9 2.700637 1_555
Al0 Al7 2.705403 1_555
Al0 Al5 2.843485 1_555
Al0 Al10 2.991996 1_655
Al1 Ru0 2.534895 1_565
Al1 Re0 2.578671 1_555
Al1 Tc0 2.614945 1_455
Al1 Al3 2.627846 1_455
Al1 Tc0 2.631125 1_555
Al1 Al10 2.672317 1_565
Al1 Al10 2.697158 1_555
Al1 Al8 2.723823 1_555
Al1 Al6 2.822523 1_555
Al1 Al9 3.009257 1_455
Al2 Tc1 2.618202 1_555
Al2 Re0 2.673651 1_556
Al2 Ru0 2.688816 1_555
Al2 Tc1 2.724617 1_455
Al2 Al3 2.757750 1_456
Al2 Al5 2.828647 1_555
Al2 Al4 2.901274 1_456
Al2 Al4 2.916286 1_446
Al2 Al8 3.014289 1_555
Al2 Al6 3.051946 1_556
Al2 Al9 3.086519 1_455
Al3 Re0 2.627988 1_555
Al3 Tc1 2.695544 1_554
Al3 Tc0 2.707330 1_555
Al3 Re0 2.721033 1_655
Al3 Al6 2.833441 1_555
Al3 Al4 2.893004 1_555
Al3 Al4 2.907402 1_545
Al3 Al7 3.017444 1_555
Al3 Al5 3.057642 1_554
Al4 Tc1 2.435056 1_554
Al4 Re0 2.445615 1_665
Al4 Al6 2.820469 1_555
Al4 Al5 2.848574 1_664
Al4 Al9 2.876897 1_554
Al4 Al5 2.963390 1_564
Al4 Al6 2.981910 1_655
Al5 Tc1 2.616055 1_555
Al5 Re0 2.630837 1_556
Al5 Al8 2.649094 1_545
Al5 Al6 2.702469 1_546
Al5 Tc1 2.759672 1_545
Al5 Ru0 2.787324 1_555
Al6 Re0 2.626829 1_555
Al6 Al7 2.632652 1_565
Al6 Tc1 2.657266 1_554
Al6 Re0 2.748423 1_565
Al6 Tc0 2.799316 1_555
Al7 Re0 2.588667 1_555
Al7 Tc0 2.639829 1_555
Al7 Al8 2.652044 1_555
Al7 Ru0 2.717527 1_555
Al7 Tc0 2.739752 1_545
Al8 Tc1 2.578666 1_555
Al8 Al9 2.585371 1_555
Al8 Ru0 2.614937 1_555
Al8 Tc0 2.710776 1_555
Al8 Al9 2.715834 1_455
Al8 Ru0 2.754815 1_565
Al9 Ru0 2.455564 1_665
Al9 Tc1 2.591576 1_555
Al9 Tc0 2.706452 1_555
Al10 Tc0 2.463826 1_445
Al10 Re0 2.595384 1_555
Al10 Al7 2.604165 1_555
Al10 Al7 2.676787 1_455
Al10 Ru0 2.751068 1_555
Al10 Al4 2.877376 1_445
Al10 Al3 3.037923 1_455
