# generated using pymatgen
data_Li2VCl4
_symmetry_space_group_name_H-M   'P 1'
_cell_length_a   7.32450555
_cell_length_b   7.32393211
_cell_length_c   7.32409105
_cell_angle_alpha   120.56490051
_cell_angle_beta   119.54597118
_cell_angle_gamma   89.90672074
_symmetry_Int_Tables_number   1
_chemical_formula_structural   Li2VCl4
_chemical_formula_sum   'Li4 V2 Cl8'
_cell_volume   277.55687528
_cell_formula_units_Z   2
loop_
 _symmetry_equiv_pos_site_id
 _symmetry_equiv_pos_as_xyz
  1  'x, y, z'
loop_
 _atom_site_type_symbol
 _atom_site_label
 _atom_site_symmetry_multiplicity
 _atom_site_fract_x
 _atom_site_fract_y
 _atom_site_fract_z
 _atom_site_occupancy
  Li  Li0  1  0.88948881  0.13948864  0.75008090  1
  Li  Li1  1  0.11051336  0.86051126  0.24991930  1
  Li  Li2  1  0.50000189  0.50000090  0.50000146  1
  Li  Li3  1  0.49999882  -0.00000211  -0.00000064  1
  V  V0  1  0.50000104  0.49999799  -0.00000123  1
  V  V1  1  -0.00000186  0.49999845  0.49999731  1
  Cl  Cl0  1  0.25144194  0.26666539  0.51520875  1
  Cl  Cl1  1  0.25146188  0.73622724  0.98476809  1
  Cl  Cl2  1  0.72393179  0.73891285  0.98500721  1
  Cl  Cl3  1  0.25387553  0.73893797  0.51494326  1
  Cl  Cl4  1  0.74612086  0.26106044  0.48505554  1
  Cl  Cl5  1  0.74853782  0.26377341  0.01523224  1
  Cl  Cl6  1  0.27606899  0.26108782  0.01499346  1
  Cl  Cl7  1  0.74855914  0.73333976  0.48479434  1
loop_
_geom_bond_atom_site_label_1
_geom_bond_atom_site_label_2
_geom_bond_distance
_geom_bond_site_symmetry_2
Cl0 Li1 2.417245 1_545
Cl0 V1 2.511114 1_555
Cl0 V0 2.511122 1_556
Cl0 Li2 2.578966 1_555
Cl1 Li1 2.417048 1_556
Cl1 V1 2.511026 1_555
Cl1 V0 2.511073 1_556
Cl1 Li3 2.578823 1_566
Cl2 Li1 2.325459 1_656
Cl2 V0 2.479193 1_556
Cl2 Li2 2.512366 1_555
Cl2 Li3 2.512483 1_566
Cl3 Li1 2.325434 1_555
Cl3 V1 2.479366 1_555
Cl3 Li3 2.512616 1_566
Cl3 Li2 2.512724 1_555
Cl4 Li0 2.325435 1_555
Cl4 V1 2.479379 1_655
Cl4 Li3 2.512617 1_555
Cl4 Li2 2.512703 1_555
Cl5 Li0 2.417064 1_554
Cl5 V1 2.510997 1_655
Cl5 V0 2.511037 1_555
Cl5 Li3 2.578851 1_555
Cl6 Li0 2.325451 1_454
Cl6 V0 2.479191 1_555
Cl6 Li2 2.512377 1_555
Cl6 Li3 2.512493 1_555
Cl7 Li0 2.417214 1_565
Cl7 V1 2.511129 1_655
Cl7 V0 2.511149 1_555
Cl7 Li2 2.578967 1_555
