# generated using pymatgen
data_CsH3O2
_symmetry_space_group_name_H-M   'P 1'
_cell_length_a   7.82996411
_cell_length_b   7.82996411
_cell_length_c   7.82996411
_cell_angle_alpha   147.45001382
_cell_angle_beta   147.45001382
_cell_angle_gamma   46.69792223
_symmetry_Int_Tables_number   1
_chemical_formula_structural   CsH3O2
_chemical_formula_sum   'Cs2 H6 O4'
_cell_volume   138.45780248
_cell_formula_units_Z   2
loop_
 _symmetry_equiv_pos_site_id
 _symmetry_equiv_pos_as_xyz
  1  'x, y, z'
loop_
 _atom_site_type_symbol
 _atom_site_label
 _atom_site_symmetry_multiplicity
 _atom_site_fract_x
 _atom_site_fract_y
 _atom_site_fract_z
 _atom_site_occupancy
  Cs  Cs0  1  0.75000000  0.25000000  0.50000000  1
  Cs  Cs1  1  0.00000000  0.00000000  0.00000000  1
  H  H0  1  0.37500000  0.62500000  0.25000000  1
  H  H1  1  0.37500000  0.62500000  0.75000000  1
  H  H2  1  0.87500000  0.62500000  0.25000000  1
  H  H3  1  0.37500000  0.12500000  0.75000000  1
  H  H4  1  0.25000000  0.75000000  0.50000000  1
  H  H5  1  0.50000000  0.50000000  0.00000000  1
  O  O0  1  0.33558400  0.83558400  0.50000000  1
  O  O1  1  0.41441600  0.41441600  0.00000000  1
  O  O2  1  0.58558400  0.58558400  0.00000000  1
  O  O3  1  0.16441600  0.66441600  0.50000000  1
loop_
_geom_bond_atom_site_label_1
_geom_bond_atom_site_label_2
_geom_bond_distance
_geom_bond_site_symmetry_2
Cs0 H3 3.041174 1_655
Cs0 H0 3.041174 1_555
Cs0 H3 3.041174 1_554
Cs0 H1 3.041174 1_544
Cs0 H1 3.041174 1_555
Cs0 H2 3.041174 1_556
Cs0 H2 3.041174 1_545
Cs0 H0 3.041174 1_656
Cs0 H4 3.103251 1_645
Cs0 H4 3.103251 1_656
Cs0 H4 3.103251 1_555
Cs0 H4 3.103251 1_544
Cs1 H3 3.041174 1_555
Cs1 H0 3.041174 1_545
Cs1 H2 3.041174 1_444
Cs1 H1 3.041174 1_544
Cs1 H2 3.041174 1_455
Cs1 H1 3.041174 1_555
Cs1 H0 3.041174 1_444
Cs1 H3 3.041174 1_454
Cs1 H5 3.103251 1_545
Cs1 H5 3.103251 1_444
Cs1 H5 3.103251 1_556
Cs1 H5 3.103251 1_455
H0 O0 1.234878 1_555
H0 O1 1.234878 1_555
H1 O3 1.234878 1_555
H1 O2 1.234878 1_556
H2 O3 1.234878 1_655
H2 O2 1.234878 1_555
H3 O0 1.234878 1_545
H3 O1 1.234878 1_556
H4 O0 1.230484 1_555
H4 O3 1.230484 1_555
H5 O1 1.230484 1_555
H5 O2 1.230484 1_555
