# generated using pymatgen
data_Sc4PtAuO
_symmetry_space_group_name_H-M   'P 1'
_cell_length_a   8.78429917
_cell_length_b   8.78429962
_cell_length_c   8.78429958
_cell_angle_alpha   60.00000014
_cell_angle_beta   59.99999846
_cell_angle_gamma   59.99999423
_symmetry_Int_Tables_number   1
_chemical_formula_structural   Sc4PtAuO
_chemical_formula_sum   'Sc16 Pt4 Au4 O4'
_cell_volume   479.29883755
_cell_formula_units_Z   4
loop_
 _symmetry_equiv_pos_site_id
 _symmetry_equiv_pos_as_xyz
  1  'x, y, z'
loop_
 _atom_site_type_symbol
 _atom_site_label
 _atom_site_symmetry_multiplicity
 _atom_site_fract_x
 _atom_site_fract_y
 _atom_site_fract_z
 _atom_site_occupancy
  Sc  Sc0  1  0.11262727  0.62912458  0.62912458  1
  Sc  Sc1  1  0.62912458  0.11262727  0.62912458  1
  Sc  Sc2  1  0.62912458  0.62912458  0.11262727  1
  Sc  Sc3  1  0.62912458  0.62912458  0.62912458  1
  Sc  Sc4  1  0.82032944  0.82032944  0.17967056  1
  Sc  Sc5  1  0.17967056  0.17967056  0.82032944  1
  Sc  Sc6  1  0.82032944  0.17967056  0.82032944  1
  Sc  Sc7  1  0.17967056  0.82032944  0.17967056  1
  Sc  Sc8  1  0.17967056  0.82032944  0.82032944  1
  Sc  Sc9  1  0.82032944  0.17967056  0.17967056  1
  Sc  Sc10  1  0.43316589  0.43316589  0.06683411  1
  Sc  Sc11  1  0.06683411  0.06683411  0.43316589  1
  Sc  Sc12  1  0.43316589  0.06683411  0.43316589  1
  Sc  Sc13  1  0.06683411  0.43316589  0.06683411  1
  Sc  Sc14  1  0.06683411  0.43316589  0.43316589  1
  Sc  Sc15  1  0.43316589  0.06683411  0.06683411  1
  Pt  Pt0  1  0.47409179  0.84196974  0.84196974  1
  Pt  Pt1  1  0.84196974  0.47409179  0.84196974  1
  Pt  Pt2  1  0.84196974  0.84196974  0.47409179  1
  Pt  Pt3  1  0.84196974  0.84196974  0.84196974  1
  Au  Au0  1  0.76333167  0.41222211  0.41222211  1
  Au  Au1  1  0.41222211  0.76333167  0.41222211  1
  Au  Au2  1  0.41222211  0.41222211  0.76333167  1
  Au  Au3  1  0.41222211  0.41222211  0.41222211  1
  O  O0  1  0.62315055  0.12561682  0.12561682  1
  O  O1  1  0.12561682  0.62315055  0.12561682  1
  O  O2  1  0.12561682  0.12561682  0.62315055  1
  O  O3  1  0.12561682  0.12561682  0.12561682  1
loop_
_geom_bond_atom_site_label_1
_geom_bond_atom_site_label_2
_geom_bond_distance
_geom_bond_site_symmetry_2
Pt0 Sc2 2.692476 1_556
Pt0 Sc3 2.692476 1_555
Pt0 Sc1 2.692476 1_565
Pt0 Sc5 2.789359 1_565
Pt0 Sc7 2.789359 1_556
Pt0 Sc8 2.789364 1_555
Pt1 Sc2 2.692476 1_556
Pt1 Sc3 2.692476 1_555
Pt1 Sc0 2.692476 1_655
Pt1 Sc5 2.789359 1_655
Pt1 Sc9 2.789359 1_556
Pt1 Sc6 2.789364 1_555
Pt2 Sc0 2.692476 1_655
Pt2 Sc1 2.692476 1_565
Pt2 Sc3 2.692476 1_555
Pt2 Sc7 2.789359 1_655
Pt2 Sc9 2.789359 1_565
Pt2 Sc4 2.789364 1_555
Pt3 Sc0 2.692476 1_655
Pt3 Sc1 2.692476 1_565
Pt3 Sc2 2.692476 1_556
Pt3 Sc8 2.789355 1_655
Pt3 Sc6 2.789356 1_565
Pt3 Sc4 2.789356 1_556
Au0 Sc2 2.790731 1_555
Au0 Sc1 2.790731 1_555
Au0 Sc3 2.790753 1_555
Au0 Sc11 2.861874 1_655
Au0 Sc13 2.861874 1_655
Au0 Sc14 2.861884 1_655
Au1 Sc2 2.790731 1_555
Au1 Sc0 2.790731 1_555
Au1 Sc3 2.790752 1_555
Au1 Sc11 2.861874 1_565
Au1 Sc15 2.861874 1_565
Au1 Sc12 2.861884 1_565
Au2 Sc0 2.790731 1_555
Au2 Sc1 2.790731 1_555
Au2 Sc3 2.790753 1_555
Au2 Sc13 2.861874 1_556
Au2 Sc15 2.861874 1_556
Au2 Sc10 2.861884 1_556
Au3 Sc0 2.790745 1_555
Au3 Sc1 2.790746 1_555
Au3 Sc2 2.790746 1_555
Au3 Sc14 2.861867 1_555
Au3 Sc12 2.861867 1_555
Au3 Sc10 2.861867 1_555
O0 Sc10 2.304027 1_555
O0 Sc12 2.304027 1_555
O0 Sc15 2.304033 1_555
O0 Sc9 2.306802 1_555
O0 Sc4 2.306808 1_545
O0 Sc6 2.306808 1_554
O1 Sc10 2.304027 1_555
O1 Sc14 2.304027 1_555
O1 Sc13 2.304033 1_555
O1 Sc7 2.306802 1_555
O1 Sc4 2.306808 1_455
O1 Sc8 2.306808 1_554
O2 Sc12 2.304027 1_555
O2 Sc14 2.304027 1_555
O2 Sc11 2.304033 1_555
O2 Sc5 2.306802 1_555
O2 Sc6 2.306808 1_455
O2 Sc8 2.306808 1_545
O3 Sc15 2.304025 1_555
O3 Sc13 2.304025 1_555
O3 Sc11 2.304025 1_555
O3 Sc9 2.306810 1_455
O3 Sc7 2.306810 1_545
O3 Sc5 2.306810 1_554
