# generated using pymatgen
data_Hf12Al4Ir5Os3
_symmetry_space_group_name_H-M   'P 1'
_cell_length_a   8.44282526
_cell_length_b   8.44282494
_cell_length_c   8.44282563
_cell_angle_alpha   59.99279673
_cell_angle_beta   59.99279955
_cell_angle_gamma   59.99280245
_symmetry_Int_Tables_number   1
_chemical_formula_structural   Hf12Al4Ir5Os3
_chemical_formula_sum   'Hf12 Al4 Ir5 Os3'
_cell_volume   425.47838246
_cell_formula_units_Z   1
loop_
 _symmetry_equiv_pos_site_id
 _symmetry_equiv_pos_as_xyz
  1  'x, y, z'
loop_
 _atom_site_type_symbol
 _atom_site_label
 _atom_site_symmetry_multiplicity
 _atom_site_fract_x
 _atom_site_fract_y
 _atom_site_fract_z
 _atom_site_occupancy
  Hf  Hf0  1  0.80399336  0.80399336  0.19585101  1
  Hf  Hf1  1  0.19555077  0.19555077  0.80522355  1
  Hf  Hf2  1  0.80399336  0.19585101  0.80399336  1
  Hf  Hf3  1  0.19555077  0.80522355  0.19555077  1
  Hf  Hf4  1  0.19585101  0.80399336  0.80399336  1
  Hf  Hf5  1  0.80522355  0.19555077  0.19555077  1
  Hf  Hf6  1  0.44353459  0.44353459  0.05368652  1
  Hf  Hf7  1  0.05632920  0.05632920  0.44356458  1
  Hf  Hf8  1  0.44353459  0.05368652  0.44353459  1
  Hf  Hf9  1  0.05632920  0.44356458  0.05632920  1
  Hf  Hf10  1  0.05368652  0.44353459  0.44353459  1
  Hf  Hf11  1  0.44356458  0.05632920  0.05632920  1
  Al  Al0  1  0.12315127  0.62590452  0.62590452  1
  Al  Al1  1  0.62590452  0.12315127  0.62590452  1
  Al  Al2  1  0.62590452  0.62590452  0.12315127  1
  Al  Al3  1  0.62637893  0.62637893  0.62637893  1
  Ir  Ir0  1  0.41267835  0.41267835  0.41267835  1
  Ir  Ir1  1  0.48586996  0.83855637  0.83855637  1
  Ir  Ir2  1  0.83855637  0.48586996  0.83855637  1
  Ir  Ir3  1  0.83855637  0.83855637  0.48586996  1
  Ir  Ir4  1  0.83794472  0.83794472  0.83794472  1
  Os  Os0  1  0.76021769  0.41384742  0.41384742  1
  Os  Os1  1  0.41384742  0.76021769  0.41384742  1
  Os  Os2  1  0.41384742  0.41384742  0.76021769  1
loop_
_geom_bond_atom_site_label_1
_geom_bond_atom_site_label_2
_geom_bond_distance
_geom_bond_site_symmetry_2
Hf0 Ir4 2.764908 1_554
Hf0 Ir3 2.771347 1_555
Hf0 Os0 2.974479 1_555
Hf0 Os1 2.974479 1_555
Hf0 Hf10 3.115390 1_655
Hf0 Hf8 3.115390 1_565
Hf0 Hf9 3.126860 1_655
Hf0 Hf11 3.126860 1_565
Hf0 Hf2 3.308025 1_564
Hf0 Hf4 3.308026 1_654
Hf0 Hf5 3.309788 1_565
Hf0 Hf3 3.309788 1_655
Hf1 Ir1 2.761120 1_545
Hf1 Ir2 2.761120 1_455
Hf1 Ir0 2.985387 1_555
Hf1 Os2 2.989078 1_555
Hf1 Hf11 3.121967 1_556
Hf1 Hf9 3.121967 1_556
Hf1 Hf10 3.146151 1_555
Hf1 Hf8 3.146151 1_555
Hf1 Hf3 3.295106 1_546
Hf1 Hf5 3.295106 1_456
Hf1 Hf4 3.309788 1_545
Hf1 Hf2 3.309788 1_455
Hf2 Ir4 2.764908 1_545
Hf2 Ir2 2.771347 1_555
Hf2 Os0 2.974479 1_555
Hf2 Os2 2.974479 1_555
Hf2 Hf6 3.115390 1_556
Hf2 Hf7 3.126860 1_655
Hf2 Hf4 3.308026 1_645
Hf2 Hf5 3.309789 1_556
Hf3 Ir1 2.761120 1_554
Hf3 Ir3 2.761120 1_455
Hf3 Ir0 2.985387 1_555
Hf3 Os1 2.989078 1_555
Hf3 Hf7 3.121967 1_565
Hf3 Hf6 3.146151 1_555
Hf3 Hf5 3.295106 1_465
Hf3 Hf4 3.309789 1_554
Hf4 Ir4 2.764908 1_455
Hf4 Ir1 2.771347 1_555
Hf4 Os2 2.974479 1_555
Hf4 Os1 2.974479 1_555
Hf4 Hf8 3.115390 1_565
Hf4 Hf6 3.115390 1_556
Hf4 Hf9 3.126859 1_556
Hf4 Hf7 3.126860 1_565
Hf5 Ir3 2.761120 1_545
Hf5 Ir2 2.761120 1_554
Hf5 Ir0 2.985387 1_555
Hf5 Os0 2.989078 1_555
Hf5 Hf9 3.121967 1_655
Hf5 Hf7 3.121967 1_655
Hf5 Hf8 3.146151 1_555
Hf5 Hf6 3.146151 1_555
Hf6 Os2 2.751331 1_554
Hf6 Ir0 2.794723 1_555
Hf6 Ir1 3.005614 1_554
Hf6 Ir2 3.005614 1_554
Hf6 Hf9 3.257880 1_555
Hf6 Hf8 3.291061 1_555
Hf7 Os0 2.783200 1_455
Hf7 Os1 2.783200 1_545
Hf7 Ir3 2.992683 1_445
Hf7 Ir4 3.000839 1_445
Hf7 Hf8 3.257880 1_555
Hf7 Hf9 3.269005 1_555
Hf8 Os1 2.751331 1_545
Hf8 Ir0 2.794723 1_555
Hf8 Ir1 3.005614 1_545
Hf8 Ir3 3.005614 1_545
Hf9 Os0 2.783200 1_455
Hf9 Os2 2.783200 1_554
Hf9 Ir2 2.992683 1_454
Hf9 Ir4 3.000839 1_454
Hf10 Os0 2.751331 1_455
Hf10 Ir0 2.794723 1_555
Hf10 Ir3 3.005614 1_455
Hf10 Ir2 3.005614 1_455
Hf10 Hf2 3.115390 1_455
Hf10 Hf3 3.146151 1_555
Hf10 Hf7 3.257880 1_555
Hf10 Hf9 3.257880 1_555
Hf10 Hf6 3.291061 1_555
Hf10 Hf8 3.291061 1_555
Hf11 Os2 2.783200 1_554
Hf11 Os1 2.783200 1_545
Hf11 Ir1 2.992683 1_544
Hf11 Ir4 3.000839 1_544
Hf11 Hf3 3.121967 1_545
Hf11 Hf2 3.126860 1_554
Hf11 Hf6 3.257880 1_555
Hf11 Hf8 3.257880 1_555
Hf11 Hf7 3.269005 1_555
Hf11 Hf9 3.269005 1_555
Al0 Ir4 2.605797 1_455
Al0 Ir2 2.607298 1_455
Al0 Ir3 2.607298 1_455
Al0 Os1 2.621622 1_555
Al0 Os2 2.621622 1_555
Al0 Ir0 2.625918 1_555
Al0 Hf4 3.000931 1_555
Al0 Hf1 3.011559 1_555
Al0 Hf3 3.011559 1_555
Al0 Hf7 3.019377 1_565
Al0 Hf9 3.019377 1_556
Al0 Hf10 3.043531 1_555
Al1 Ir4 2.605797 1_545
Al1 Ir1 2.607297 1_545
Al1 Ir3 2.607298 1_545
Al1 Os0 2.621622 1_555
Al1 Os2 2.621622 1_555
Al1 Ir0 2.625918 1_555
Al1 Hf2 3.000931 1_555
Al1 Hf1 3.011559 1_555
Al1 Hf5 3.011559 1_555
Al1 Hf7 3.019377 1_655
Al1 Hf11 3.019377 1_556
Al1 Hf8 3.043531 1_555
Al2 Ir4 2.605796 1_554
Al2 Ir1 2.607298 1_554
Al2 Ir2 2.607298 1_554
Al2 Os0 2.621622 1_555
Al2 Os1 2.621622 1_555
Al2 Ir0 2.625917 1_555
Al2 Hf0 3.000931 1_555
Al2 Hf5 3.011559 1_555
Al2 Hf3 3.011559 1_555
Al2 Hf11 3.019377 1_565
Al2 Hf9 3.019377 1_655
Al2 Hf6 3.043531 1_555
Al3 Ir3 2.604604 1_555
Al3 Ir2 2.604604 1_555
Al3 Ir1 2.604604 1_555
Al3 Os2 2.623115 1_555
Al3 Os1 2.623115 1_555
Al3 Os0 2.623115 1_555
Al3 Hf8 3.004028 1_565
Al3 Hf6 3.004029 1_556
Al3 Hf10 3.004029 1_655
Al3 Hf2 3.009161 1_555
Al3 Hf0 3.009161 1_555
Al3 Hf4 3.009161 1_555
Ir0 Os1 2.944119 1_555
Ir0 Os0 2.944119 1_555
Ir0 Os2 2.944120 1_555
Ir1 Ir4 2.967349 1_555
Ir1 Ir3 2.977346 1_555
Ir1 Ir2 2.977346 1_555
Ir2 Ir4 2.967349 1_555
Ir2 Ir3 2.977346 1_555
Ir3 Ir4 2.967350 1_555
Os0 Os2 2.924025 1_555
Os0 Os1 2.924025 1_555
Os1 Os2 2.924025 1_555
