# generated using pymatgen
data_BiRh5Pb6
_symmetry_space_group_name_H-M   'P 1'
_cell_length_a   7.12163739
_cell_length_b   7.12163757
_cell_length_c   7.12163765
_cell_angle_alpha   102.62018590
_cell_angle_beta   102.62019123
_cell_angle_gamma   124.26530796
_symmetry_Int_Tables_number   1
_chemical_formula_structural   BiRh5Pb6
_chemical_formula_sum   'Bi1 Rh5 Pb6'
_cell_volume   263.88740947
_cell_formula_units_Z   1
loop_
 _symmetry_equiv_pos_site_id
 _symmetry_equiv_pos_as_xyz
  1  'x, y, z'
loop_
 _atom_site_type_symbol
 _atom_site_label
 _atom_site_symmetry_multiplicity
 _atom_site_fract_x
 _atom_site_fract_y
 _atom_site_fract_z
 _atom_site_occupancy
  Bi  Bi0  1  0.08963114  0.08963114  0.00000000  1
  Rh  Rh0  1  0.49028717  0.49028717  0.00000000  1
  Rh  Rh1  1  0.81926680  0.05294351  0.23367672  1
  Rh  Rh2  1  0.05294351  0.81926680  0.23367672  1
  Rh  Rh3  1  0.81926680  0.58559008  0.76632328  1
  Rh  Rh4  1  0.58559008  0.81926680  0.76632328  1
  Pb  Pb0  1  0.70568711  0.27749367  1.00000000  1
  Pb  Pb1  1  0.27749367  0.70568711  1.00000000  1
  Pb  Pb2  1  0.70568711  0.70568711  0.42819344  1
  Pb  Pb3  1  0.59504148  0.09504148  0.50000000  1
  Pb  Pb4  1  0.09504148  0.59504148  0.50000000  1
  Pb  Pb5  1  0.27749267  0.27749267  0.57180656  1
loop_
_geom_bond_atom_site_label_1
_geom_bond_atom_site_label_2
_geom_bond_distance
_geom_bond_site_symmetry_2
Bi0 Rh0 2.667439 1_555
Bi0 Rh2 2.751125 1_545
Bi0 Rh4 2.751125 1_444
Bi0 Rh1 2.751125 1_455
Bi0 Rh3 2.751125 1_444
Rh0 Rh4 3.020901 1_554
Rh0 Rh3 3.020901 1_554
Rh0 Rh2 3.020901 1_655
Rh0 Rh1 3.020902 1_565
Rh1 Rh2 2.942343 1_645
Rh1 Rh4 2.942344 1_544
Rh2 Rh3 2.942344 1_454
Rh3 Rh4 2.942343 1_555
Pb0 Rh0 2.695816 1_556
Pb0 Rh1 2.830601 1_556
Pb0 Rh4 2.830602 1_545
Pb0 Rh3 2.902290 1_555
Pb0 Rh2 2.902290 1_656
Pb0 Pb3 3.253902 1_555
Pb0 Pb4 3.253902 1_656
Pb0 Pb1 3.449444 1_655
Pb0 Pb1 3.449444 1_545
Pb1 Rh0 2.695816 1_556
Pb1 Rh3 2.830601 1_455
Pb1 Rh2 2.830601 1_556
Pb1 Rh4 2.902290 1_555
Pb1 Rh1 2.902290 1_566
Pb1 Pb4 3.253902 1_555
Pb1 Pb3 3.253902 1_566
Pb2 Rh0 2.695816 1_555
Pb2 Rh3 2.830601 1_555
Pb2 Rh4 2.830601 1_555
Pb2 Rh1 2.902290 1_565
Pb2 Rh2 2.902290 1_655
Pb2 Pb4 3.253902 1_655
Pb2 Pb3 3.253902 1_565
Pb2 Pb5 3.449437 1_665
Pb2 Pb5 3.449450 1_555
Pb3 Rh1 2.802000 1_555
Pb3 Rh3 2.802000 1_555
Pb3 Rh4 2.998942 1_545
Pb3 Rh2 2.998942 1_545
Pb3 Pb5 3.253904 1_555
Pb3 Pb4 3.328839 1_655
Pb3 Pb4 3.328839 1_545
Pb4 Rh2 2.802000 1_555
Pb4 Rh4 2.802000 1_555
Pb4 Rh3 2.998942 1_455
Pb4 Rh1 2.998943 1_455
Pb4 Pb5 3.253904 1_555
Pb5 Rh0 2.695816 1_556
Pb5 Rh1 2.830599 1_455
Pb5 Rh2 2.830599 1_545
Pb5 Rh3 2.902295 1_555
Pb5 Rh4 2.902295 1_555
