# generated using pymatgen
data_BaCd2H8Ru
_symmetry_space_group_name_H-M   'P 1'
_cell_length_a   5.09974845
_cell_length_b   5.09974845
_cell_length_c   10.87100619
_cell_angle_alpha   90.00000000
_cell_angle_beta   90.00000000
_cell_angle_gamma   90.00000000
_symmetry_Int_Tables_number   1
_chemical_formula_structural   BaCd2H8Ru
_chemical_formula_sum   'Ba2 Cd4 H16 Ru2'
_cell_volume   282.72697902
_cell_formula_units_Z   2
loop_
 _symmetry_equiv_pos_site_id
 _symmetry_equiv_pos_as_xyz
  1  'x, y, z'
loop_
 _atom_site_type_symbol
 _atom_site_label
 _atom_site_symmetry_multiplicity
 _atom_site_fract_x
 _atom_site_fract_y
 _atom_site_fract_z
 _atom_site_occupancy
  Ba  Ba0  1  0.50000000  0.00000000  0.00000000  1
  Ba  Ba1  1  0.00000000  0.50000000  0.50000000  1
  Cd  Cd0  1  0.50000000  0.00000000  0.63830687  1
  Cd  Cd1  1  0.00000000  0.50000000  0.13830687  1
  Cd  Cd2  1  0.50000000  0.00000000  0.36169313  1
  Cd  Cd3  1  0.00000000  0.50000000  0.86169313  1
  H  H0  1  0.23657703  0.23657703  0.75000000  1
  H  H1  1  0.76342297  0.76342297  0.75000000  1
  H  H2  1  0.76342297  0.23657703  0.25000000  1
  H  H3  1  0.23657703  0.76342297  0.25000000  1
  H  H4  1  0.76342297  0.76342297  0.25000000  1
  H  H5  1  0.23657703  0.23657703  0.25000000  1
  H  H6  1  0.23657703  0.76342297  0.75000000  1
  H  H7  1  0.76342297  0.23657703  0.75000000  1
  H  H8  1  0.50000000  0.26252903  0.50000000  1
  H  H9  1  0.50000000  0.73747097  0.50000000  1
  H  H10  1  0.73747097  0.50000000  0.00000000  1
  H  H11  1  0.26252903  0.50000000  0.00000000  1
  H  H12  1  0.00000000  0.00000000  0.59490698  1
  H  H13  1  0.00000000  0.00000000  0.09490698  1
  H  H14  1  0.00000000  0.00000000  0.40509302  1
  H  H15  1  0.00000000  0.00000000  0.90509302  1
  Ru  Ru0  1  0.00000000  0.00000000  0.75000000  1
  Ru  Ru1  1  0.00000000  0.00000000  0.25000000  1
loop_
_geom_bond_atom_site_label_1
_geom_bond_atom_site_label_2
_geom_bond_distance
_geom_bond_site_symmetry_2
Ba0 H13 2.750697 1_555
Ba0 H13 2.750697 1_655
Ba0 H15 2.750697 1_654
Ba0 H15 2.750697 1_554
Ba0 H10 2.822850 1_545
Ba0 H10 2.822850 1_555
Ba0 H11 2.822850 1_555
Ba0 H11 2.822850 1_545
Ba1 H12 2.750697 1_555
Ba1 H12 2.750697 1_565
Ba1 H14 2.750697 1_555
Ba1 H14 2.750697 1_565
Ba1 H9 2.822850 1_455
Ba1 H9 2.822850 1_555
Ba1 H8 2.822850 1_555
Ba1 H8 2.822850 1_455
Cd0 H8 2.013228 1_555
Cd0 H9 2.013228 1_545
Cd0 H7 2.175919 1_555
Cd0 H1 2.175919 1_545
Cd0 H0 2.175919 1_555
Cd0 H6 2.175919 1_545
Cd1 H11 2.013228 1_555
Cd1 H10 2.013228 1_455
Cd1 H3 2.175919 1_555
Cd1 H4 2.175919 1_455
Cd1 H5 2.175919 1_555
Cd1 H2 2.175919 1_455
Cd2 H8 2.013228 1_555
Cd2 H9 2.013228 1_545
Cd2 H2 2.175919 1_555
Cd2 H4 2.175919 1_545
Cd2 H5 2.175919 1_555
Cd2 H3 2.175919 1_545
Cd3 H11 2.013228 1_556
Cd3 H10 2.013228 1_456
Cd3 H6 2.175919 1_555
Cd3 H1 2.175919 1_455
Cd3 H0 2.175919 1_555
Cd3 H7 2.175919 1_455
H0 Ru0 1.706225 1_555
H1 Ru0 1.706225 1_665
H2 Ru1 1.706225 1_655
H3 Ru1 1.706225 1_565
H4 Ru1 1.706225 1_665
H5 Ru1 1.706225 1_555
H6 Ru0 1.706225 1_565
H7 Ru0 1.706225 1_655
H12 Ru0 1.686017 1_555
H13 Ru1 1.686017 1_555
H14 Ru1 1.686017 1_555
H15 Ru0 1.686017 1_555
