# generated using pymatgen
data_Y16Cd4Ir3Ru
_symmetry_space_group_name_H-M   'P 1'
_cell_length_a   9.64715232
_cell_length_b   9.64715146
_cell_length_c   9.64715195
_cell_angle_alpha   59.89938621
_cell_angle_beta   59.89938958
_cell_angle_gamma   59.89939063
_symmetry_Int_Tables_number   1
_chemical_formula_structural   Y16Cd4Ir3Ru
_chemical_formula_sum   'Y16 Cd4 Ir3 Ru1'
_cell_volume   633.41730323
_cell_formula_units_Z   1
loop_
 _symmetry_equiv_pos_site_id
 _symmetry_equiv_pos_as_xyz
  1  'x, y, z'
loop_
 _atom_site_type_symbol
 _atom_site_label
 _atom_site_symmetry_multiplicity
 _atom_site_fract_x
 _atom_site_fract_y
 _atom_site_fract_z
 _atom_site_occupancy
  Y  Y0  1  0.34918638  0.34918638  0.34918638  1
  Y  Y1  1  0.34792709  0.34792709  0.95534561  1
  Y  Y2  1  0.34792709  0.95534561  0.34792709  1
  Y  Y3  1  0.95534561  0.34792709  0.34792709  1
  Y  Y4  1  0.81125499  0.19019659  0.19019659  1
  Y  Y5  1  0.19061285  0.80932313  0.80932313  1
  Y  Y6  1  0.19019659  0.81125499  0.19019659  1
  Y  Y7  1  0.80932313  0.19061285  0.80932313  1
  Y  Y8  1  0.19019659  0.19019659  0.81125499  1
  Y  Y9  1  0.80932313  0.80932313  0.19061285  1
  Y  Y10  1  0.93856877  0.56101411  0.56101411  1
  Y  Y11  1  0.56012281  0.93843078  0.93843078  1
  Y  Y12  1  0.56101411  0.93856877  0.56101411  1
  Y  Y13  1  0.93843078  0.56012281  0.93843078  1
  Y  Y14  1  0.56101411  0.56101411  0.93856877  1
  Y  Y15  1  0.93843078  0.93843078  0.56012281  1
  Cd  Cd0  1  0.57940719  0.57940719  0.57940719  1
  Cd  Cd1  1  0.57987879  0.57987879  0.26063046  1
  Cd  Cd2  1  0.57987879  0.26063046  0.57987879  1
  Cd  Cd3  1  0.26063046  0.57987879  0.57987879  1
  Ir  Ir0  1  0.14185588  0.14185588  0.57716858  1
  Ir  Ir1  1  0.14185588  0.57716858  0.14185588  1
  Ir  Ir2  1  0.57716858  0.14185588  0.14185588  1
  Ru  Ru0  1  0.14045560  0.14045560  0.14045560  1
loop_
_geom_bond_atom_site_label_1
_geom_bond_atom_site_label_2
_geom_bond_distance
_geom_bond_site_symmetry_2
Cd0 Cd2 3.070731 1_555
Cd0 Cd1 3.070731 1_555
Cd0 Cd3 3.070731 1_555
Cd0 Y12 3.296456 1_555
Cd0 Y14 3.296457 1_555
Cd0 Y10 3.296457 1_555
Cd0 Y1 3.446992 1_555
Cd0 Y2 3.446992 1_555
Cd0 Y3 3.446992 1_555
Cd0 Y9 3.486111 1_555
Cd0 Y7 3.486111 1_555
Cd0 Y5 3.486111 1_555
Cd1 Cd2 3.075152 1_555
Cd1 Cd3 3.075152 1_555
Cd1 Y11 3.288045 1_554
Cd1 Y13 3.288046 1_554
Cd1 Y14 3.299560 1_554
Cd1 Y0 3.433605 1_555
Cd1 Y2 3.446197 1_555
Cd1 Y3 3.446197 1_555
Cd1 Y9 3.488598 1_555
Cd1 Y4 3.492946 1_555
Cd1 Y6 3.492946 1_555
Cd2 Cd3 3.075152 1_555
Cd2 Y11 3.288045 1_545
Cd2 Y15 3.288046 1_545
Cd2 Y12 3.299559 1_545
Cd2 Y0 3.433605 1_555
Cd2 Y1 3.446197 1_555
Cd2 Y3 3.446197 1_555
Cd2 Y7 3.488598 1_555
Cd2 Y4 3.492946 1_555
Cd2 Y8 3.492946 1_555
Cd3 Y15 3.288046 1_455
Cd3 Y13 3.288046 1_455
Cd3 Y10 3.299560 1_455
Cd3 Y0 3.433605 1_555
Cd3 Y2 3.446197 1_555
Cd3 Y1 3.446197 1_555
Cd3 Y5 3.488598 1_555
Cd3 Y8 3.492946 1_555
Cd3 Y6 3.492946 1_555
Ir0 Y5 2.804457 1_545
Ir0 Y7 2.804458 1_455
Ir0 Y8 2.804562 1_555
Ir0 Y0 2.833072 1_555
Ir0 Y3 2.841476 1_455
Ir0 Y2 2.841476 1_545
Ir0 Y10 3.455699 1_455
Ir0 Y12 3.455699 1_545
Ir0 Y15 3.498577 1_445
Ir1 Y5 2.804457 1_554
Ir1 Y9 2.804458 1_455
Ir1 Y6 2.804562 1_555
Ir1 Y0 2.833072 1_555
Ir1 Y3 2.841476 1_455
Ir1 Y1 2.841476 1_554
Ir1 Y10 3.455699 1_455
Ir1 Y14 3.455699 1_554
Ir1 Y13 3.498577 1_454
Ir2 Y9 2.804457 1_545
Ir2 Y7 2.804457 1_554
Ir2 Y4 2.804562 1_555
Ir2 Y0 2.833072 1_555
Ir2 Y2 2.841476 1_545
Ir2 Y1 2.841476 1_554
Ir2 Y14 3.455699 1_554
Ir2 Y12 3.455699 1_545
Ir2 Y11 3.498577 1_544
Ru0 Y6 2.778547 1_545
Ru0 Y8 2.778547 1_554
Ru0 Y4 2.778547 1_455
Ru0 Y1 2.837087 1_554
Ru0 Y3 2.837087 1_455
Ru0 Y2 2.837087 1_545
Ru0 Y13 3.459615 1_454
Ru0 Y15 3.459615 1_445
Ru0 Y11 3.459616 1_544
