# generated using pymatgen
data_Sc22Tc4Ir3Os
_symmetry_space_group_name_H-M   'P 1'
_cell_length_a   9.46122140
_cell_length_b   9.47788479
_cell_length_c   9.48687955
_cell_angle_alpha   60.00961245
_cell_angle_beta   60.02724910
_cell_angle_gamma   60.12104542
_symmetry_Int_Tables_number   1
_chemical_formula_structural   Sc22Tc4Ir3Os
_chemical_formula_sum   'Sc22 Tc4 Ir3 Os1'
_cell_volume   602.25979159
_cell_formula_units_Z   1
loop_
 _symmetry_equiv_pos_site_id
 _symmetry_equiv_pos_as_xyz
  1  'x, y, z'
loop_
 _atom_site_type_symbol
 _atom_site_label
 _atom_site_symmetry_multiplicity
 _atom_site_fract_x
 _atom_site_fract_y
 _atom_site_fract_z
 _atom_site_occupancy
  Sc  Sc0  1  0.80338336  0.80145525  0.19854275  1
  Sc  Sc1  1  0.19616356  0.80242480  0.19757720  1
  Sc  Sc2  1  0.80217516  0.19782584  0.19782584  1
  Sc  Sc3  1  0.19661664  0.19854475  0.80145725  1
  Sc  Sc4  1  0.80383644  0.19757520  0.80242280  1
  Sc  Sc5  1  0.19782484  0.80217416  0.80217416  1
  Sc  Sc6  1  0.61603166  0.61528336  0.15143782  1
  Sc  Sc7  1  0.61724616  0.15144082  0.61528336  1
  Sc  Sc8  1  0.14905248  0.61656381  0.61594208  1
  Sc  Sc9  1  0.61844063  0.61593908  0.61656781  1
  Sc  Sc10  1  0.38396834  0.38471664  0.84856218  1
  Sc  Sc11  1  0.38275384  0.84855918  0.38471664  1
  Sc  Sc12  1  0.85094752  0.38343619  0.38405792  1
  Sc  Sc13  1  0.38155937  0.38406092  0.38343219  1
  Sc  Sc14  1  0.84269224  0.84641797  0.46785719  1
  Sc  Sc15  1  0.84303461  0.46785819  0.84641497  1
  Sc  Sc16  1  0.46798711  0.84535425  0.84405644  1
  Sc  Sc17  1  0.84260219  0.84405944  0.84534725  1
  Sc  Sc18  1  0.15730776  0.15358203  0.53214281  1
  Sc  Sc19  1  0.15696539  0.53214181  0.15358503  1
  Sc  Sc20  1  0.53201289  0.15464575  0.15594356  1
  Sc  Sc21  1  0.15739781  0.15594056  0.15465275  1
  Tc  Tc0  1  0.00000000  0.00000000  0.00000000  1
  Tc  Tc1  1  0.00000000  0.00000000  0.50000000  1
  Tc  Tc2  1  0.00000000  0.50000000  0.50000000  1
  Tc  Tc3  1  0.50000000  0.50000000  0.00000000  1
  Ir  Ir0  1  0.50000000  0.00000000  0.50000000  1
  Ir  Ir1  1  0.00000000  0.50000000  0.00000000  1
  Ir  Ir2  1  0.50000000  0.00000000  0.00000000  1
  Os  Os0  1  0.50000000  0.50000000  0.50000000  1
loop_
_geom_bond_atom_site_label_1
_geom_bond_atom_site_label_2
_geom_bond_distance
_geom_bond_site_symmetry_2
Sc0 Tc0 2.644375 1_665
Sc0 Sc19 3.007228 1_655
Sc0 Sc14 3.007246 1_555
Sc0 Sc20 3.013669 1_565
Sc0 Sc17 3.013711 1_554
Sc0 Sc12 3.322807 1_555
Sc0 Sc9 3.322874 1_555
Sc0 Sc6 3.339356 1_555
Sc0 Sc11 3.339390 1_555
Sc1 Tc0 2.639835 1_565
Sc1 Sc19 3.007343 1_555
Sc1 Sc14 3.007350 1_455
Sc1 Sc21 3.014558 1_565
Sc1 Sc16 3.014609 1_554
Sc1 Sc13 3.328587 1_555
Sc1 Sc8 3.328613 1_555
Sc1 Sc11 3.337129 1_555
Sc1 Sc6 3.337168 1_555
Sc2 Tc0 2.655643 1_655
Sc2 Sc20 3.013042 1_555
Sc2 Sc21 3.013045 1_655
Sc2 Sc6 3.322820 1_555
Sc2 Sc7 3.322847 1_555
Sc3 Tc0 2.644375 1_556
Sc3 Sc8 3.322807 1_555
Sc3 Sc7 3.339390 1_555
Sc4 Tc0 2.639835 1_656
Sc4 Sc9 3.328587 1_555
Sc4 Sc7 3.337129 1_555
Sc5 Tc0 2.655643 1_566
Sc5 Sc8 3.340615 1_555
Sc5 Sc9 3.340643 1_555
Sc6 Tc3 2.967047 1_555
Sc7 Tc1 2.967076 1_655
Sc8 Tc2 2.955682 1_555
Sc8 Tc1 2.975434 1_565
Sc9 Tc2 2.955709 1_655
Sc9 Tc3 2.975422 1_556
Sc10 Tc3 2.967047 1_556
Sc10 Sc9 3.116312 1_555
Sc10 Sc19 3.127472 1_556
Sc10 Sc7 3.131549 1_555
Sc10 Sc8 3.134571 1_555
Sc10 Sc21 3.137809 1_556
Sc10 Sc20 3.146671 1_556
Sc10 Sc5 3.322820 1_555
Sc10 Sc4 3.337168 1_555
Sc10 Sc3 3.339356 1_555
Sc11 Tc1 2.967076 1_565
Sc11 Sc8 3.116326 1_555
Sc11 Sc18 3.127468 1_565
Sc11 Sc6 3.131549 1_555
Sc11 Sc9 3.134584 1_555
Sc11 Sc20 3.137785 1_565
Sc11 Sc21 3.146637 1_565
Sc11 Sc5 3.322847 1_555
Sc12 Tc2 2.955682 1_655
Sc12 Tc1 2.975434 1_655
Sc12 Sc7 3.116326 1_555
Sc12 Sc9 3.121200 1_555
Sc12 Sc19 3.132027 1_655
Sc12 Sc6 3.134571 1_555
Sc12 Sc18 3.136685 1_655
Sc12 Sc21 3.154309 1_655
Sc12 Sc4 3.328613 1_555
Sc12 Sc2 3.340615 1_555
Sc13 Tc2 2.955709 1_555
Sc13 Tc3 2.975422 1_555
Sc13 Sc6 3.116312 1_555
Sc13 Sc8 3.121200 1_555
Sc13 Sc18 3.132059 1_555
Sc13 Sc7 3.134584 1_555
Sc13 Sc19 3.136661 1_555
Sc13 Sc20 3.154315 1_555
Sc13 Sc3 3.322874 1_555
Sc13 Sc2 3.340643 1_555
Sc14 Tc1 2.735451 1_665
Sc14 Tc2 2.769845 1_655
Sc14 Sc2 2.996979 1_565
Sc14 Sc7 3.127468 1_565
Sc14 Sc9 3.132059 1_555
Sc14 Sc8 3.136685 1_655
Sc15 Tc3 2.735489 1_556
Sc15 Tc2 2.769841 1_655
Sc15 Sc2 2.997007 1_556
Sc15 Sc3 3.007228 1_655
Sc15 Sc4 3.007343 1_555
Sc15 Sc6 3.127472 1_556
Sc15 Sc8 3.132027 1_655
Sc15 Sc9 3.136661 1_555
Sc16 Tc3 2.759225 1_556
Sc16 Sc5 3.013042 1_555
Sc16 Sc3 3.013669 1_565
Sc16 Sc7 3.137785 1_565
Sc16 Sc6 3.146671 1_556
Sc16 Sc9 3.154315 1_555
Sc17 Tc1 2.759194 1_665
Sc17 Sc5 3.013045 1_655
Sc17 Sc4 3.014558 1_565
Sc17 Sc6 3.137809 1_556
Sc17 Sc7 3.146637 1_565
Sc17 Sc8 3.154309 1_655
Sc18 Tc1 2.735451 1_555
Sc18 Tc2 2.769845 1_555
Sc18 Sc5 2.996979 1_545
Sc18 Sc3 3.007246 1_555
Sc18 Sc4 3.007350 1_455
Sc19 Tc3 2.735489 1_555
Sc19 Tc2 2.769841 1_555
Sc19 Sc5 2.997007 1_554
Sc20 Tc3 2.759225 1_555
Sc20 Sc4 3.014609 1_554
Sc21 Tc1 2.759194 1_555
Sc21 Sc3 3.013711 1_554
Ir0 Sc14 2.734566 1_545
Ir0 Sc18 2.734566 1_555
Ir0 Sc16 2.750578 1_545
Ir0 Sc20 2.750578 1_555
Ir0 Sc7 2.975701 1_555
Ir0 Sc11 2.975701 1_545
Ir0 Sc13 2.979714 1_555
Ir0 Sc9 2.979714 1_545
Ir1 Sc19 2.734556 1_555
Ir1 Sc15 2.734556 1_454
Ir1 Sc17 2.750600 1_454
Ir1 Sc21 2.750600 1_555
Ir1 Sc10 2.975706 1_554
Ir1 Sc6 2.975706 1_455
Ir1 Sc12 2.979712 1_455
Ir1 Sc8 2.979712 1_554
Ir2 Sc20 2.736154 1_555
Ir2 Sc16 2.736154 1_544
Ir2 Sc17 2.736181 1_544
Ir2 Sc21 2.736181 1_555
Ir2 Sc10 2.985851 1_554
Ir2 Sc6 2.985851 1_545
Ir2 Sc11 2.985870 1_545
Ir2 Sc7 2.985870 1_554
Os0 Sc11 2.699888 1_555
Os0 Sc7 2.699888 1_555
Os0 Sc6 2.699928 1_555
Os0 Sc10 2.699928 1_555
Os0 Sc9 2.714047 1_555
Os0 Sc13 2.714047 1_555
Os0 Sc12 2.714066 1_555
Os0 Sc8 2.714066 1_555
