# generated using pymatgen
data_In5AgS8
_symmetry_space_group_name_H-M   'P 1'
_cell_length_a   7.69617699
_cell_length_b   7.69617819
_cell_length_c   7.69617765
_cell_angle_alpha   59.99999780
_cell_angle_beta   59.99999402
_cell_angle_gamma   59.99999638
_symmetry_Int_Tables_number   1
_chemical_formula_structural   In5AgS8
_chemical_formula_sum   'In5 Ag1 S8'
_cell_volume   322.33703642
_cell_formula_units_Z   1
loop_
 _symmetry_equiv_pos_site_id
 _symmetry_equiv_pos_as_xyz
  1  'x, y, z'
loop_
 _atom_site_type_symbol
 _atom_site_label
 _atom_site_symmetry_multiplicity
 _atom_site_fract_x
 _atom_site_fract_y
 _atom_site_fract_z
 _atom_site_occupancy
  In  In0  1  0.00000000  0.00000000  -0.00000000  1
  In  In1  1  0.14286668  0.61904511  0.61904511  1
  In  In2  1  0.61904511  0.14286568  0.61904511  1
  In  In3  1  0.61904511  0.61904511  0.14286568  1
  In  In4  1  0.61904511  0.61904511  0.61904511  1
  Ag  Ag0  1  0.25000000  0.25000000  0.25000000  1
  S  S0  1  0.38230961  0.38230961  0.38230961  1
  S  S1  1  0.38230961  0.38230961  0.85306916  1
  S  S2  1  0.38230961  0.85306916  0.38230961  1
  S  S3  1  0.85306916  0.38230961  0.38230961  1
  S  S4  1  0.40165616  0.86611495  0.86611495  1
  S  S5  1  0.86611495  0.86611495  0.40165616  1
  S  S6  1  0.86611495  0.40165616  0.86611495  1
  S  S7  1  0.86611495  0.86611495  0.86611495  1
loop_
_geom_bond_atom_site_label_1
_geom_bond_atom_site_label_2
_geom_bond_distance
_geom_bond_site_symmetry_2
In0 S7 2.523962 1_444
In0 S4 2.523968 1_544
In0 S5 2.523968 1_445
In0 S6 2.523968 1_454
In1 S2 2.576701 1_555
In1 S1 2.576701 1_555
In1 S0 2.576723 1_555
In1 S7 2.698803 1_455
In1 S6 2.698808 1_455
In1 S5 2.698808 1_455
In2 S3 2.576706 1_555
In2 S1 2.576706 1_555
In2 S0 2.576723 1_555
In2 S7 2.698802 1_545
In2 S4 2.698802 1_545
In2 S5 2.698802 1_545
In3 S3 2.576706 1_555
In3 S2 2.576706 1_555
In3 S0 2.576723 1_555
In3 S7 2.698802 1_554
In3 S4 2.698802 1_554
In3 S6 2.698802 1_554
In4 S2 2.576723 1_555
In4 S1 2.576723 1_555
In4 S3 2.576723 1_555
In4 S6 2.698802 1_555
In4 S5 2.698802 1_555
In4 S4 2.698802 1_555
Ag0 S0 2.494262 1_555
Ag0 S3 2.494274 1_455
Ag0 S1 2.494275 1_554
Ag0 S2 2.494275 1_545
