# generated using pymatgen
data_U3O8
_symmetry_space_group_name_H-M   'P 1'
_cell_length_a   6.79353435
_cell_length_b   6.79326337
_cell_length_c   4.13286379
_cell_angle_alpha   90.00000000
_cell_angle_beta   90.00000000
_cell_angle_gamma   120.00178305
_symmetry_Int_Tables_number   1
_chemical_formula_structural   U3O8
_chemical_formula_sum   'U3 O8'
_cell_volume   165.17645786
_cell_formula_units_Z   1
loop_
 _symmetry_equiv_pos_site_id
 _symmetry_equiv_pos_as_xyz
  1  'x, y, z'
loop_
 _atom_site_type_symbol
 _atom_site_label
 _atom_site_symmetry_multiplicity
 _atom_site_fract_x
 _atom_site_fract_y
 _atom_site_fract_z
 _atom_site_occupancy
  U  U0  1  0.00001787  0.35155528  0.00000000  1
  U  U1  1  0.64845118  0.64843666  0.00000000  1
  U  U2  1  0.35153916  0.00000457  0.00000000  1
  O  O0  1  -0.00000250  0.35900506  0.50000000  1
  O  O1  1  0.64099021  0.64098948  0.50000000  1
  O  O2  1  0.35902123  -0.00000017  0.50000000  1
  O  O3  1  0.33333015  0.66657660  -0.00000000  1
  O  O4  1  0.66674609  0.33343330  -0.00000000  1
  O  O5  1  0.74733793  -0.00000761  0.00000000  1
  O  O6  1  0.25266734  0.25275444  0.00000000  1
  O  O7  1  -0.00009566  0.74725241  -0.00000000  1
loop_
_geom_bond_atom_site_label_1
_geom_bond_atom_site_label_2
_geom_bond_distance
_geom_bond_site_symmetry_2
O0 U0 2.067053 1_555
O0 U0 2.067053 1_556
O1 U1 2.067052 1_556
O1 U1 2.067052 1_555
O2 U2 2.067057 1_555
O2 U2 2.067057 1_556
O3 U0 2.204768 1_555
O3 U1 2.204988 1_555
O3 U2 2.205812 1_565
O4 U1 2.204677 1_555
O4 U0 2.205115 1_655
O4 U2 2.205763 1_555
O5 U1 2.133164 1_545
O5 U0 2.133209 1_655
O5 U2 2.688914 1_555
O6 U0 2.132725 1_555
O6 U2 2.133681 1_555
O6 U1 2.688300 1_555
O7 U1 2.132710 1_455
O7 U2 2.133731 1_565
O7 U0 2.688461 1_555
