# generated using pymatgen
data_Mg2InSn7Os2
_symmetry_space_group_name_H-M   'P 1'
_cell_length_a   7.38149706
_cell_length_b   7.38149638
_cell_length_c   7.33726362
_cell_angle_alpha   124.74373337
_cell_angle_beta   124.74373104
_cell_angle_gamma   82.13258221
_symmetry_Int_Tables_number   1
_chemical_formula_structural   Mg2InSn7Os2
_chemical_formula_sum   'Mg2 In1 Sn7 Os2'
_cell_volume   259.27079297
_cell_formula_units_Z   1
loop_
 _symmetry_equiv_pos_site_id
 _symmetry_equiv_pos_as_xyz
  1  'x, y, z'
loop_
 _atom_site_type_symbol
 _atom_site_label
 _atom_site_symmetry_multiplicity
 _atom_site_fract_x
 _atom_site_fract_y
 _atom_site_fract_z
 _atom_site_occupancy
  Mg  Mg0  1  0.99829732  0.00078841  0.00062403  1
  Mg  Mg1  1  0.50078841  0.49829732  0.00062403  1
  In  In0  1  0.70637858  0.20637858  0.18911784  1
  Sn  Sn0  1  0.98418975  0.48418875  0.19279402  1
  Sn  Sn1  1  0.20570629  0.01376704  0.50001345  1
  Sn  Sn2  1  0.48767678  0.29350660  0.49848305  1
  Sn  Sn3  1  0.51376804  0.70570629  0.50001345  1
  Sn  Sn4  1  0.79350560  0.98767678  0.49848305  1
  Sn  Sn5  1  0.01319608  0.51319608  0.80598643  1
  Sn  Sn6  1  0.29938934  0.79938834  0.81465376  1
  Os  Os0  1  0.24585600  0.25124880  0.99960594  1
  Os  Os1  1  0.75124880  0.74585600  0.99960594  1
loop_
_geom_bond_atom_site_label_1
_geom_bond_atom_site_label_2
_geom_bond_distance
_geom_bond_site_symmetry_2
Mg0 Os0 2.777302 1_654
Mg0 Os1 2.788284 1_544
Mg0 Sn1 3.004173 1_655
Mg0 Sn0 3.010339 1_555
Mg0 Sn3 3.011227 1_544
Mg0 Sn4 3.025606 1_544
Mg0 Sn2 3.026773 1_655
Mg0 Sn5 3.036045 1_644
Mg0 Sn6 3.041628 1_644
Mg1 Os1 2.777302 1_554
Mg1 Os0 2.788284 1_554
Mg1 Sn3 3.004169 1_555
Mg1 Sn0 3.010347 1_555
Mg1 Sn1 3.011232 1_554
Mg1 Sn2 3.025608 1_554
Mg1 Sn4 3.026771 1_555
Mg1 Sn5 3.036046 1_554
Mg1 Sn6 3.041620 1_554
In0 Os1 2.903066 1_544
In0 Os0 2.903066 1_554
In0 Sn5 2.963231 1_655
In0 Mg1 2.994701 1_555
In0 Mg0 2.994701 1_555
In0 Sn6 3.041992 1_544
In0 Sn0 3.071850 1_555
In0 Sn2 3.225011 1_555
In0 Sn4 3.225013 1_545
Sn0 Sn6 2.987791 1_655
Sn0 Sn5 3.089399 1_654
Sn0 Sn1 3.246658 1_665
Sn0 Sn3 3.246660 1_655
Sn1 Sn6 3.218181 1_545
Sn3 Sn6 3.218183 1_555
Sn5 Sn6 3.137691 1_555
Os0 Sn4 2.843357 1_445
Os0 Sn2 2.843537 1_556
Os0 Sn0 2.851274 1_456
Os0 Sn3 2.854130 1_556
Os0 Sn5 2.854339 1_555
Os0 Sn1 2.859626 1_555
Os0 Sn6 2.865994 1_545
Os1 Sn2 2.843353 1_555
Os1 Sn4 2.843541 1_556
Os1 Sn0 2.851283 1_556
Os1 Sn1 2.854129 1_666
Os1 Sn5 2.854339 1_655
Os1 Sn3 2.859627 1_555
Os1 Sn6 2.865986 1_555
