# generated using pymatgen
data_Li3Y3HgBi2
_symmetry_space_group_name_H-M   'P 1'
_cell_length_a   7.42922342
_cell_length_b   7.42922448
_cell_length_c   4.53482281
_cell_angle_alpha   90.00000000
_cell_angle_beta   90.00000000
_cell_angle_gamma   119.99999081
_symmetry_Int_Tables_number   1
_chemical_formula_structural   Li3Y3HgBi2
_chemical_formula_sum   'Li3 Y3 Hg1 Bi2'
_cell_volume   216.75937737
_cell_formula_units_Z   1
loop_
 _symmetry_equiv_pos_site_id
 _symmetry_equiv_pos_as_xyz
  1  'x, y, z'
loop_
 _atom_site_type_symbol
 _atom_site_label
 _atom_site_symmetry_multiplicity
 _atom_site_fract_x
 _atom_site_fract_y
 _atom_site_fract_z
 _atom_site_occupancy
  Li  Li0  1  0.23229022  1.00000000  0.50000000  1
  Li  Li1  1  0.76770978  0.76770978  0.50000000  1
  Li  Li2  1  1.00000000  0.23229022  0.50000000  1
  Y  Y0  1  0.00000000  0.59242548  0.00000000  1
  Y  Y1  1  0.59242548  0.00000000  0.00000000  1
  Y  Y2  1  0.40757452  0.40757452  0.00000000  1
  Hg  Hg0  1  0.00000000  0.00000000  0.00000000  1
  Bi  Bi0  1  0.33333300  0.66666700  0.50000000  1
  Bi  Bi1  1  0.66666700  0.33333300  0.50000000  1
loop_
_geom_bond_atom_site_label_1
_geom_bond_atom_site_label_2
_geom_bond_distance
_geom_bond_site_symmetry_2
Li0 Li2 2.989062 1_465
Li0 Li1 2.989063 1_455
Li0 Y2 3.473099 1_565
Li0 Y2 3.473099 1_566
Li0 Y0 3.473099 1_556
Li0 Y0 3.473099 1_555
Li0 Y1 3.507077 1_566
Li0 Y1 3.507077 1_565
Li1 Li2 2.989063 1_565
Li1 Y0 3.473098 1_656
Li1 Y0 3.473098 1_655
Li1 Y1 3.473098 1_565
Li1 Y1 3.473098 1_566
Li1 Y2 3.507078 1_555
Li1 Y2 3.507078 1_556
Li2 Y2 3.473098 1_655
Li2 Y2 3.473098 1_656
Li2 Y1 3.473098 1_555
Li2 Y1 3.473098 1_556
Li2 Y0 3.507077 1_656
Li2 Y0 3.507077 1_655
Hg0 Li0 2.849442 1_544
Hg0 Li0 2.849442 1_545
Hg0 Li2 2.849442 1_455
Hg0 Li2 2.849442 1_454
Hg0 Li1 2.849442 1_444
Hg0 Li1 2.849442 1_445
Hg0 Y1 3.027962 1_455
Hg0 Y0 3.027963 1_545
Hg0 Y2 3.027963 1_555
Bi0 Li0 2.924902 1_555
Bi0 Li2 2.924907 1_455
Bi0 Li1 2.924909 1_555
Bi0 Y0 3.195634 1_555
Bi0 Y0 3.195634 1_556
Bi0 Y1 3.195636 1_565
Bi0 Y1 3.195636 1_566
Bi0 Y2 3.195639 1_556
Bi0 Y2 3.195639 1_555
Bi1 Li2 2.924902 1_555
Bi1 Li0 2.924907 1_545
Bi1 Li1 2.924909 1_555
Bi1 Y1 3.195634 1_555
Bi1 Y1 3.195634 1_556
Bi1 Y0 3.195636 1_656
Bi1 Y0 3.195636 1_655
Bi1 Y2 3.195639 1_556
Bi1 Y2 3.195639 1_555
