# generated using pymatgen
data_Cs6Sc(IrBr6)3
_symmetry_space_group_name_H-M   'P 1'
_cell_length_a   7.64192790
_cell_length_b   7.64192794
_cell_length_c   19.24011993
_cell_angle_alpha   90.00000000
_cell_angle_beta   90.00000000
_cell_angle_gamma   119.99998780
_symmetry_Int_Tables_number   1
_chemical_formula_structural   Cs6Sc(IrBr6)3
_chemical_formula_sum   'Cs6 Sc1 Ir3 Br18'
_cell_volume   973.07056162
_cell_formula_units_Z   1
loop_
 _symmetry_equiv_pos_site_id
 _symmetry_equiv_pos_as_xyz
  1  'x, y, z'
loop_
 _atom_site_type_symbol
 _atom_site_label
 _atom_site_symmetry_multiplicity
 _atom_site_fract_x
 _atom_site_fract_y
 _atom_site_fract_z
 _atom_site_occupancy
  Cs  Cs0  1  0.33333300  0.66666700  0.07130283  1
  Cs  Cs1  1  0.66666700  0.33333300  0.93185758  1
  Cs  Cs2  1  0.66666700  0.33333300  0.57271167  1
  Cs  Cs3  1  0.33333300  0.66666700  0.43078204  1
  Cs  Cs4  1  0.00000000  0.00000000  0.25140470  1
  Cs  Cs5  1  0.00000000  0.00000000  0.74591766  1
  Sc  Sc0  1  0.33333300  0.66666700  0.83767827  1
  Ir  Ir0  1  0.33333300  0.66666700  0.66645193  1
  Ir  Ir1  1  0.66666700  0.33333300  0.33623209  1
  Ir  Ir2  1  0.66666700  0.33333300  0.16549503  1
  Br  Br0  1  0.17920612  0.35841224  0.59273209  1
  Br  Br1  1  0.82149434  0.64298768  0.40849598  1
  Br  Br2  1  0.64158776  0.82079388  0.59273209  1
  Br  Br3  1  0.82158452  0.64316905  0.09313801  1
  Br  Br4  1  0.35701232  0.17850566  0.40849598  1
  Br  Br5  1  0.16897063  0.33794127  0.90843047  1
  Br  Br6  1  0.17920612  0.82079388  0.59273209  1
  Br  Br7  1  0.35683095  0.17841548  0.09313801  1
  Br  Br8  1  0.82149434  0.17850566  0.40849598  1
  Br  Br9  1  0.66205873  0.83102937  0.90843047  1
  Br  Br10  1  0.82158452  0.17841548  0.09313801  1
  Br  Br11  1  0.16897063  0.83102937  0.90843047  1
  Br  Br12  1  0.51891797  0.03783594  0.25072350  1
  Br  Br13  1  0.49015921  0.98031742  0.74320168  1
  Br  Br14  1  0.96216406  0.48108203  0.25072350  1
  Br  Br15  1  0.01968258  0.50984079  0.74320168  1
  Br  Br16  1  0.51891797  0.48108203  0.25072350  1
  Br  Br17  1  0.49015921  0.50984079  0.74320168  1
loop_
_geom_bond_atom_site_label_1
_geom_bond_atom_site_label_2
_geom_bond_distance
_geom_bond_site_symmetry_2
Br0 Ir0 2.484683 1_555
Br0 Cs3 3.724369 1_555
Br0 Cs5 3.783260 1_555
Br0 Cs2 3.843912 1_455
Br0 Cs2 3.843920 1_555
Br1 Ir1 2.476461 1_555
Br1 Cs2 3.765949 1_555
Br1 Cs4 3.836378 1_665
Br1 Cs3 3.848133 1_655
Br1 Cs3 3.848148 1_555
Br2 Ir0 2.484683 1_555
Br2 Cs3 3.724369 1_555
Br2 Cs5 3.783260 1_665
Br2 Cs2 3.843912 1_565
Br2 Cs2 3.843920 1_555
Br3 Ir2 2.478460 1_555
Br3 Cs1 3.719356 1_554
Br3 Cs0 3.847131 1_655
Br3 Cs0 3.847138 1_555
Br3 Cs4 3.853485 1_665
Br4 Ir1 2.476461 1_555
Br4 Cs2 3.765949 1_555
Br4 Cs4 3.836378 1_555
Br4 Cs3 3.848133 1_545
Br4 Cs3 3.848148 1_555
Br5 Sc0 2.566333 1_555
Br5 Cs0 3.814833 1_556
Br5 Cs5 3.844312 1_555
Br5 Cs1 3.847575 1_455
Br5 Cs1 3.847583 1_555
Br6 Ir0 2.484678 1_555
Br6 Cs3 3.724365 1_555
Br6 Cs5 3.783260 1_565
Br6 Cs2 3.843916 1_455
Br6 Cs2 3.843916 1_565
Br7 Ir2 2.478460 1_555
Br7 Cs1 3.719356 1_554
Br7 Cs0 3.847131 1_545
Br7 Cs0 3.847138 1_555
Br7 Cs4 3.853485 1_555
Br8 Ir1 2.476461 1_555
Br8 Cs2 3.765948 1_555
Br8 Cs4 3.836374 1_655
Br8 Cs3 3.848140 1_655
Br8 Cs3 3.848140 1_545
Br9 Sc0 2.566333 1_555
Br9 Cs0 3.814833 1_556
Br9 Cs5 3.844312 1_665
Br9 Cs1 3.847575 1_565
Br9 Cs1 3.847583 1_555
Br10 Ir2 2.478455 1_555
Br10 Cs1 3.719352 1_554
Br10 Cs0 3.847135 1_655
Br10 Cs0 3.847135 1_545
Br10 Cs4 3.853485 1_655
Br11 Sc0 2.566327 1_555
Br11 Cs0 3.814829 1_556
Br11 Cs5 3.844312 1_565
Br11 Cs1 3.847579 1_455
Br11 Cs1 3.847579 1_565
Br12 Ir2 2.552147 1_555
Br12 Ir1 2.555613 1_555
Br12 Cs4 3.829182 1_655
Br12 Cs4 3.829183 1_555
Br12 Cs0 4.236850 1_545
Br12 Cs3 4.246855 1_545
Br13 Ir0 2.547429 1_555
Br13 Sc0 2.759168 1_555
Br13 Cs5 3.823537 1_665
Br13 Cs5 3.823545 1_565
Br13 Cs2 4.027195 1_565
Br14 Ir2 2.552147 1_555
Br14 Ir1 2.555613 1_555
Br14 Cs4 3.829182 1_655
Br14 Cs4 3.829183 1_665
Br14 Cs0 4.236850 1_655
Br14 Cs3 4.246855 1_655
Br15 Ir0 2.547429 1_555
Br15 Sc0 2.759168 1_555
Br15 Cs5 3.823537 1_555
Br15 Cs5 3.823545 1_565
Br15 Cs2 4.027195 1_455
Br16 Ir2 2.552152 1_555
Br16 Ir1 2.555618 1_555
Br16 Cs4 3.829183 1_555
Br16 Cs4 3.829183 1_665
Br16 Cs0 4.236853 1_555
Br16 Cs3 4.246859 1_555
Br17 Ir0 2.547439 1_555
Br17 Sc0 2.759178 1_555
Br17 Cs5 3.823541 1_665
Br17 Cs5 3.823541 1_555
Br17 Cs2 4.027195 1_555
