# generated using pymatgen
data_K3Os2(O2F3)2
_symmetry_space_group_name_H-M   'P 1'
_cell_length_a   8.00900261
_cell_length_b   8.00900205
_cell_length_c   8.61446807
_cell_angle_alpha   72.84277964
_cell_angle_beta   72.84278507
_cell_angle_gamma   91.04634977
_symmetry_Int_Tables_number   1
_chemical_formula_structural   K3Os2(O2F3)2
_chemical_formula_sum   'K6 Os4 O8 F12'
_cell_volume   501.11640838
_cell_formula_units_Z   2
loop_
 _symmetry_equiv_pos_site_id
 _symmetry_equiv_pos_as_xyz
  1  'x, y, z'
loop_
 _atom_site_type_symbol
 _atom_site_label
 _atom_site_symmetry_multiplicity
 _atom_site_fract_x
 _atom_site_fract_y
 _atom_site_fract_z
 _atom_site_occupancy
  K  K0  1  0.95570343  0.75068702  0.99193890  1
  K  K1  1  0.24931298  0.04429657  0.50806110  1
  K  K2  1  0.04429657  0.24931298  0.00806110  1
  K  K3  1  0.75068702  0.95570343  0.49193890  1
  K  K4  1  0.50000000  0.50000000  0.00000000  1
  K  K5  1  0.50000000  0.50000000  0.50000000  1
  Os  Os0  1  0.02069447  0.42779151  0.35374066  1
  Os  Os1  1  0.57220849  0.97930553  0.14625934  1
  Os  Os2  1  0.97930553  0.57220849  0.64625934  1
  Os  Os3  1  0.42779151  0.02069447  0.85374066  1
  O  O0  1  0.95202879  0.35782994  0.59683015  1
  O  O1  1  0.64217006  0.04797121  0.90316985  1
  O  O2  1  0.04797121  0.64217006  0.40316985  1
  O  O3  1  0.35782994  0.95202879  0.09683015  1
  O  O4  1  0.82776149  0.43548768  0.30271730  1
  O  O5  1  0.56451232  0.17223851  0.19728270  1
  O  O6  1  0.17223851  0.56451232  0.69728270  1
  O  O7  1  0.43548768  0.82776149  0.80271730  1
  F  F0  1  0.15683640  0.51597455  0.10053038  1
  F  F1  1  0.48402545  0.84316360  0.39946962  1
  F  F2  1  0.84316360  0.48402545  0.89946962  1
  F  F3  1  0.51597455  0.15683640  0.60053038  1
  F  F4  1  0.03903827  0.18217720  0.33272744  1
  F  F5  1  0.81782280  0.96096173  0.16727256  1
  F  F6  1  0.96096173  0.81782280  0.66727256  1
  F  F7  1  0.18217720  0.03903827  0.83272744  1
  F  F8  1  0.73164687  0.60485354  0.63963394  1
  F  F9  1  0.39514646  0.26835313  0.86036606  1
  F  F10  1  0.26835313  0.39514646  0.36036606  1
  F  F11  1  0.60485354  0.73164687  0.13963394  1
loop_
_geom_bond_atom_site_label_1
_geom_bond_atom_site_label_2
_geom_bond_distance
_geom_bond_site_symmetry_2
K0 O4 2.981566 1_556
K1 O5 2.981566 1_555
K2 O6 2.981566 1_554
K3 O7 2.981566 1_555
K4 O5 2.825169 1_555
K4 O7 2.825169 1_554
K5 O4 2.825170 1_555
K5 O6 2.825170 1_555
O0 Os0 1.902268 1_655
O0 Os2 1.910366 1_555
O1 Os1 1.902268 1_546
O1 Os3 1.910367 1_555
O2 Os2 1.902268 1_455
O2 Os0 1.910366 1_555
O3 Os3 1.902268 1_564
O3 Os1 1.910367 1_555
O4 Os0 1.724193 1_655
O5 Os1 1.724193 1_545
O6 Os2 1.724193 1_455
O7 Os3 1.724193 1_565
F0 Os0 2.026177 1_555
F0 K0 2.639291 1_454
F0 K4 2.644615 1_555
F0 K2 2.713875 1_555
F1 Os1 2.026177 1_555
F1 K1 2.639291 1_565
F1 K5 2.644615 1_555
F1 K3 2.713875 1_555
F2 Os2 2.026177 1_555
F2 K2 2.639291 1_656
F2 K4 2.644615 1_556
F2 K0 2.713875 1_555
F3 Os3 2.026177 1_555
F3 K3 2.639291 1_545
F3 K5 2.644615 1_555
F3 K1 2.713875 1_555
F4 Os0 2.031966 1_555
F4 K1 2.630881 1_555
F4 K3 2.648578 1_445
F4 K2 2.674990 1_555
F5 Os1 2.031966 1_555
F5 K0 2.630881 1_554
F5 K2 2.648577 1_665
F5 K3 2.674990 1_555
F6 Os2 2.031966 1_555
F6 K3 2.630881 1_555
F6 K1 2.648578 1_665
F6 K0 2.674990 1_555
F7 Os3 2.031966 1_555
F7 K2 2.630881 1_556
F7 K0 2.648577 1_445
F7 K1 2.674990 1_555
F8 Os2 2.020597 1_555
F8 K3 2.701570 1_555
F8 K5 2.729436 1_555
F8 K4 2.965014 1_556
F9 Os3 2.020597 1_555
F9 K2 2.701570 1_556
F9 K4 2.729436 1_556
F9 K5 2.965014 1_555
F10 Os0 2.020597 1_555
F10 K1 2.701570 1_555
F10 K5 2.729436 1_555
F10 K4 2.965014 1_555
F11 Os1 2.020597 1_555
F11 K0 2.701570 1_554
F11 K4 2.729436 1_555
F11 K5 2.965014 1_555
