# generated using pymatgen
data_NdTlPd
_symmetry_space_group_name_H-M   'P 1'
_cell_length_a   7.93237342
_cell_length_b   7.93237338
_cell_length_c   3.89328318
_cell_angle_alpha   90.00000000
_cell_angle_beta   90.00000000
_cell_angle_gamma   120.00000016
_symmetry_Int_Tables_number   1
_chemical_formula_structural   NdTlPd
_chemical_formula_sum   'Nd3 Tl3 Pd3'
_cell_volume   212.15483006
_cell_formula_units_Z   3
loop_
 _symmetry_equiv_pos_site_id
 _symmetry_equiv_pos_as_xyz
  1  'x, y, z'
loop_
 _atom_site_type_symbol
 _atom_site_label
 _atom_site_symmetry_multiplicity
 _atom_site_fract_x
 _atom_site_fract_y
 _atom_site_fract_z
 _atom_site_occupancy
  Nd  Nd0  1  0.59711770  -0.00000000  0.50000000  1
  Nd  Nd1  1  0.40288230  0.40288230  0.50000000  1
  Nd  Nd2  1  0.00000000  0.59711770  0.50000000  1
  Tl  Tl0  1  0.26413775  0.00000000  -0.00000000  1
  Tl  Tl1  1  0.73586225  0.73586225  -0.00000000  1
  Tl  Tl2  1  -0.00000000  0.26413775  0.00000000  1
  Pd  Pd0  1  0.33333300  0.66666700  0.00000000  1
  Pd  Pd1  1  0.66666700  0.33333300  0.00000000  1
  Pd  Pd2  1  -0.00000000  0.00000000  0.50000000  1
loop_
_geom_bond_atom_site_label_1
_geom_bond_atom_site_label_2
_geom_bond_distance
_geom_bond_site_symmetry_2
Nd0 Pd1 3.102647 1_556
Nd0 Pd1 3.102647 1_555
Nd0 Pd0 3.102649 1_545
Nd0 Pd0 3.102649 1_546
Nd0 Pd2 3.195813 1_655
Nd0 Tl0 3.281157 1_555
Nd0 Tl0 3.281157 1_556
Nd0 Tl1 3.420039 1_545
Nd0 Tl1 3.420039 1_546
Nd0 Tl2 3.420039 1_656
Nd0 Tl2 3.420039 1_655
Nd1 Pd0 3.102653 1_555
Nd1 Pd0 3.102653 1_556
Nd1 Pd1 3.102653 1_556
Nd1 Pd1 3.102653 1_555
Nd1 Pd2 3.195813 1_555
Nd1 Tl1 3.281157 1_555
Nd1 Tl1 3.281157 1_556
Nd1 Tl0 3.420039 1_555
Nd1 Tl0 3.420039 1_556
Nd1 Tl2 3.420039 1_555
Nd1 Tl2 3.420039 1_556
Nd2 Pd0 3.102647 1_556
Nd2 Pd0 3.102647 1_555
Nd2 Pd1 3.102649 1_456
Nd2 Pd1 3.102649 1_455
Nd2 Pd2 3.195813 1_565
Nd2 Tl2 3.281157 1_555
Nd2 Tl2 3.281157 1_556
Nd2 Tl0 3.420039 1_565
Nd2 Tl0 3.420039 1_566
Nd2 Tl1 3.420039 1_455
Nd2 Tl1 3.420039 1_456
Pd0 Tl0 2.957020 1_565
Pd0 Tl2 2.957025 1_555
Pd0 Tl1 2.957027 1_555
Pd1 Tl2 2.957020 1_655
Pd1 Tl0 2.957025 1_555
Pd1 Tl1 2.957027 1_555
Pd2 Tl1 2.859972 1_446
Pd2 Tl1 2.859972 1_445
Pd2 Tl2 2.859972 1_555
Pd2 Tl2 2.859972 1_556
Pd2 Tl0 2.859972 1_555
Pd2 Tl0 2.859972 1_556
