# generated using pymatgen
data_LiMn4(PO4)3
_symmetry_space_group_name_H-M   'P 1'
_cell_length_a   9.78624748
_cell_length_b   9.78624748
_cell_length_c   9.78624690
_cell_angle_alpha   52.51857427
_cell_angle_beta   52.51857427
_cell_angle_gamma   52.51857168
_symmetry_Int_Tables_number   1
_chemical_formula_structural   LiMn4(PO4)3
_chemical_formula_sum   'Li2 Mn8 P6 O24'
_cell_volume   546.33536900
_cell_formula_units_Z   2
loop_
 _symmetry_equiv_pos_site_id
 _symmetry_equiv_pos_as_xyz
  1  'x, y, z'
loop_
 _atom_site_type_symbol
 _atom_site_label
 _atom_site_symmetry_multiplicity
 _atom_site_fract_x
 _atom_site_fract_y
 _atom_site_fract_z
 _atom_site_occupancy
  Li  Li0  1  0.04244500  0.04244500  0.04244500  1
  Li  Li1  1  0.54244500  0.54244500  0.54244500  1
  Mn  Mn0  1  0.03419500  0.66955200  0.25504000  1
  Mn  Mn1  1  0.66955200  0.25504000  0.03419500  1
  Mn  Mn2  1  0.21182100  0.21182100  0.21182100  1
  Mn  Mn3  1  0.53419500  0.75504000  0.16955200  1
  Mn  Mn4  1  0.25504000  0.03419500  0.66955200  1
  Mn  Mn5  1  0.16955200  0.53419500  0.75504000  1
  Mn  Mn6  1  0.75504000  0.16955200  0.53419500  1
  Mn  Mn7  1  0.71182100  0.71182100  0.71182100  1
  P  P0  1  0.60975000  0.91657600  0.32305600  1
  P  P1  1  0.10975000  0.82305600  0.41657600  1
  P  P2  1  0.82305600  0.41657600  0.10975000  1
  P  P3  1  0.91657600  0.32305600  0.60975000  1
  P  P4  1  0.32305600  0.60975000  0.91657600  1
  P  P5  1  0.41657600  0.10975000  0.82305600  1
  O  O0  1  0.22147700  0.48300200  0.11034200  1
  O  O1  1  0.02530100  0.39587700  0.04036200  1
  O  O2  1  0.39587700  0.04036200  0.02530100  1
  O  O3  1  0.48300200  0.11034200  0.22147700  1
  O  O4  1  0.11034200  0.22147700  0.48300200  1
  O  O5  1  0.80715800  0.92179000  0.20537600  1
  O  O6  1  0.04036200  0.02530100  0.39587700  1
  O  O7  1  0.72147700  0.61034200  0.98300200  1
  O  O8  1  0.11025400  0.82739700  0.25672300  1
  O  O9  1  0.61025400  0.75672300  0.32739700  1
  O  O10  1  0.54036200  0.89587700  0.52530100  1
  O  O11  1  0.30715800  0.70537600  0.42179000  1
  O  O12  1  0.82739700  0.25672300  0.11025400  1
  O  O13  1  0.70537600  0.42179000  0.30715800  1
  O  O14  1  0.89587700  0.52530100  0.54036200  1
  O  O15  1  0.20537600  0.80715800  0.92179000  1
  O  O16  1  0.32739700  0.61025400  0.75672300  1
  O  O17  1  0.75672300  0.32739700  0.61025400  1
  O  O18  1  0.52530100  0.54036200  0.89587700  1
  O  O19  1  0.42179000  0.30715800  0.70537600  1
  O  O20  1  0.92179000  0.20537600  0.80715800  1
  O  O21  1  0.25672300  0.11025400  0.82739700  1
  O  O22  1  0.61034200  0.98300200  0.72147700  1
  O  O23  1  0.98300200  0.72147700  0.61034200  1
loop_
_geom_bond_atom_site_label_1
_geom_bond_atom_site_label_2
_geom_bond_distance
_geom_bond_site_symmetry_2
Li0 O8 1.972248 1_545
Li0 O12 1.972248 1_455
Li0 O21 1.972248 1_554
Li0 O20 2.405786 1_454
Li0 O15 2.405786 1_544
Li0 O5 2.405786 1_445
Li1 O16 1.972248 1_555
Li1 O17 1.972248 1_555
Li1 O9 1.972248 1_555
Li1 O13 2.405786 1_555
Li1 O11 2.405786 1_555
Li1 O19 2.405786 1_555
Mn0 O8 2.094183 1_555
Mn0 O5 2.108437 1_455
Mn0 O14 2.133137 1_455
Mn0 O0 2.147739 1_555
Mn0 O15 2.451002 1_554
Mn1 O12 2.094183 1_555
Mn1 O20 2.108437 1_554
Mn1 O18 2.133137 1_554
Mn1 O3 2.147739 1_555
Mn1 O5 2.451002 1_545
Mn2 O4 2.240891 1_555
Mn2 O3 2.240891 1_555
Mn2 O0 2.240891 1_555
Mn2 O2 2.332303 1_555
Mn2 O1 2.332303 1_555
Mn2 O6 2.332304 1_555
Mn3 O9 2.094183 1_555
Mn3 O11 2.108437 1_555
Mn3 O2 2.133137 1_565
Mn3 O7 2.147738 1_554
Mn3 O13 2.451002 1_555
Mn4 O21 2.094183 1_555
Mn4 O15 2.108437 1_545
Mn4 O10 2.133137 1_545
Mn4 O4 2.147738 1_555
Mn4 O20 2.451002 1_455
Mn5 O16 2.094183 1_555
Mn5 O19 2.108437 1_555
Mn5 O1 2.133137 1_556
Mn5 O23 2.147739 1_455
Mn5 O11 2.451002 1_555
Mn6 O17 2.094183 1_555
Mn6 O13 2.108437 1_555
Mn6 O6 2.133137 1_655
Mn6 O22 2.147739 1_545
Mn6 O19 2.451002 1_555
Mn7 O7 2.240891 1_555
Mn7 O22 2.240891 1_555
Mn7 O23 2.240891 1_555
Mn7 O10 2.332303 1_555
Mn7 O14 2.332303 1_555
Mn7 O18 2.332304 1_555
O0 P4 1.570521 1_554
O1 P2 1.569485 1_455
O2 P5 1.569485 1_554
O3 P0 1.570521 1_545
O4 P3 1.570521 1_455
O5 P0 1.549794 1_555
O6 P1 1.569485 1_545
O7 P2 1.570521 1_556
O8 P1 1.535917 1_555
O9 P0 1.535917 1_555
O10 P0 1.569485 1_555
O11 P1 1.549794 1_555
O12 P2 1.535917 1_555
O13 P2 1.549794 1_555
O14 P3 1.569485 1_555
O15 P4 1.549794 1_555
O16 P4 1.535917 1_555
O17 P3 1.535917 1_555
O18 P4 1.569485 1_555
O19 P5 1.549794 1_555
O20 P3 1.549794 1_555
O21 P5 1.535917 1_555
O22 P5 1.570521 1_565
O23 P1 1.570521 1_655
