# generated using pymatgen
data_Y2Ga9Ru2Pt
_symmetry_space_group_name_H-M   'P 1'
_cell_length_a   7.49293893
_cell_length_b   7.49293844
_cell_length_c   9.55668945
_cell_angle_alpha   90.00000000
_cell_angle_beta   90.00000000
_cell_angle_gamma   119.68738334
_symmetry_Int_Tables_number   1
_chemical_formula_structural   Y2Ga9Ru2Pt
_chemical_formula_sum   'Y4 Ga18 Ru4 Pt2'
_cell_volume   466.12451771
_cell_formula_units_Z   2
loop_
 _symmetry_equiv_pos_site_id
 _symmetry_equiv_pos_as_xyz
  1  'x, y, z'
loop_
 _atom_site_type_symbol
 _atom_site_label
 _atom_site_symmetry_multiplicity
 _atom_site_fract_x
 _atom_site_fract_y
 _atom_site_fract_z
 _atom_site_occupancy
  Y  Y0  1  0.99784836  0.67288283  0.25000000  1
  Y  Y1  1  0.00215164  0.32711717  0.75000000  1
  Y  Y2  1  0.67288283  0.99784836  0.25000000  1
  Y  Y3  1  0.32711717  0.00215164  0.75000000  1
  Ga  Ga0  1  0.13952037  0.13952037  0.25000000  1
  Ga  Ga1  1  0.86047963  0.86047963  0.75000000  1
  Ga  Ga2  1  0.00463687  0.34103755  0.07850655  1
  Ga  Ga3  1  0.99536313  0.65896245  0.92149345  1
  Ga  Ga4  1  0.99536313  0.65896245  0.57850655  1
  Ga  Ga5  1  0.34103755  0.00463687  0.42149345  1
  Ga  Ga6  1  0.00463687  0.34103755  0.42149345  1
  Ga  Ga7  1  0.65896245  0.99536313  0.57850655  1
  Ga  Ga8  1  0.65896245  0.99536313  0.92149345  1
  Ga  Ga9  1  0.34103755  0.00463687  0.07850655  1
  Ga  Ga10  1  0.34348536  0.34348536  0.56635424  1
  Ga  Ga11  1  0.65651464  0.65651464  0.43364576  1
  Ga  Ga12  1  0.65651464  0.65651464  0.06635424  1
  Ga  Ga13  1  0.34348536  0.34348536  0.93364576  1
  Ga  Ga14  1  0.33483884  0.55059919  0.25000000  1
  Ga  Ga15  1  0.66516116  0.44940081  0.75000000  1
  Ga  Ga16  1  0.55059919  0.33483884  0.25000000  1
  Ga  Ga17  1  0.44940081  0.66516116  0.75000000  1
  Ru  Ru0  1  0.67360204  0.32639796  0.00000000  1
  Ru  Ru1  1  0.32639796  0.67360204  0.00000000  1
  Ru  Ru2  1  0.32639796  0.67360204  0.50000000  1
  Ru  Ru3  1  0.67360204  0.32639796  0.50000000  1
  Pt  Pt0  1  0.00000000  0.00000000  0.00000000  1
  Pt  Pt1  1  0.00000000  0.00000000  0.50000000  1
loop_
_geom_bond_atom_site_label_1
_geom_bond_atom_site_label_2
_geom_bond_distance
_geom_bond_site_symmetry_2
Ga0 Pt1 2.609863 1_555
Ga0 Pt0 2.609863 1_555
Ga0 Ga14 2.676603 1_555
Ga0 Ga16 2.676603 1_555
Ga0 Ga6 2.738445 1_555
Ga0 Ga2 2.738445 1_555
Ga0 Ga5 2.738445 1_555
Ga0 Ga9 2.738445 1_555
Ga0 Y0 3.110588 1_445
Ga0 Y2 3.110588 1_445
Ga1 Pt0 2.609863 1_666
Ga1 Pt1 2.609863 1_665
Ga1 Ga15 2.676603 1_555
Ga1 Ga17 2.676603 1_555
Ga1 Ga3 2.738445 1_555
Ga1 Ga4 2.738445 1_555
Ga1 Ga8 2.738445 1_555
Ga1 Ga7 2.738445 1_555
Ga1 Y1 3.110588 1_665
Ga1 Y3 3.110588 1_665
Ga2 Ru0 2.541243 1_455
Ga2 Ru1 2.575672 1_555
Ga2 Pt0 2.646902 1_555
Ga2 Ga3 2.845208 1_454
Ga2 Y0 2.999426 1_455
Ga2 Ga8 3.003961 1_444
Ga2 Y2 3.024256 1_445
Ga2 Y1 3.140916 1_554
Ga3 Ru1 2.541243 1_656
Ga3 Ru0 2.575672 1_556
Ga3 Pt0 2.646902 1_666
Ga3 Y1 2.999426 1_655
Ga3 Ga9 3.003961 1_666
Ga3 Y3 3.024256 1_665
Ga3 Y0 3.140916 1_556
Ga4 Ru2 2.541243 1_655
Ga4 Ru3 2.575672 1_555
Ga4 Pt1 2.646902 1_665
Ga4 Ga6 2.845208 1_655
Ga4 Y1 2.999426 1_655
Ga4 Ga5 3.003961 1_665
Ga4 Y3 3.024256 1_665
Ga4 Y0 3.140916 1_555
Ga5 Ru2 2.541243 1_545
Ga5 Ru3 2.575672 1_555
Ga5 Pt1 2.646902 1_555
Ga5 Ga7 2.845208 1_545
Ga5 Y2 2.999426 1_545
Ga5 Y0 3.024256 1_445
Ga5 Y3 3.140916 1_555
Ga6 Ru3 2.541243 1_455
Ga6 Ru2 2.575672 1_555
Ga6 Pt1 2.646902 1_555
Ga6 Y0 2.999426 1_455
Ga6 Ga7 3.003961 1_445
Ga6 Y2 3.024256 1_445
Ga6 Y1 3.140916 1_555
Ga7 Ru3 2.541243 1_565
Ga7 Ru2 2.575672 1_555
Ga7 Pt1 2.646902 1_665
Ga7 Y3 2.999426 1_565
Ga7 Y1 3.024256 1_665
Ga7 Y2 3.140916 1_555
Ga8 Ru0 2.541243 1_566
Ga8 Ru1 2.575672 1_556
Ga8 Pt0 2.646902 1_666
Ga8 Ga9 2.845208 1_566
Ga8 Y3 2.999426 1_565
Ga8 Y1 3.024256 1_665
Ga8 Y2 3.140916 1_556
Ga9 Ru1 2.541243 1_545
Ga9 Ru0 2.575672 1_555
Ga9 Pt0 2.646902 1_555
Ga9 Y2 2.999426 1_545
Ga9 Y0 3.024256 1_445
Ga9 Y3 3.140916 1_554
Ga10 Ru2 2.617371 1_555
Ga10 Ru3 2.617371 1_555
Ga10 Pt1 2.662484 1_555
Ga10 Ga11 2.676183 1_555
Ga10 Ga17 2.761303 1_555
Ga10 Ga15 2.761303 1_555
Ga10 Ga5 2.883941 1_555
Ga10 Ga6 2.883941 1_555
Ga10 Y3 3.053817 1_555
Ga10 Y1 3.053817 1_555
Ga11 Ru3 2.617371 1_555
Ga11 Ru2 2.617371 1_555
Ga11 Pt1 2.662484 1_665
Ga11 Ga16 2.761303 1_555
Ga11 Ga14 2.761303 1_555
Ga11 Ga7 2.883941 1_555
Ga11 Ga4 2.883941 1_555
Ga11 Y2 3.053817 1_555
Ga11 Y0 3.053817 1_555
Ga12 Ru0 2.617371 1_555
Ga12 Ru1 2.617371 1_555
Ga12 Pt0 2.662484 1_665
Ga12 Ga13 2.676183 1_554
Ga12 Ga16 2.761303 1_555
Ga12 Ga14 2.761303 1_555
Ga12 Ga8 2.883941 1_554
Ga12 Ga3 2.883941 1_554
Ga12 Y2 3.053817 1_555
Ga12 Y0 3.053817 1_555
Ga13 Ru1 2.617371 1_556
Ga13 Ru0 2.617371 1_556
Ga13 Pt0 2.662484 1_556
Ga13 Ga17 2.761303 1_555
Ga13 Ga15 2.761303 1_555
Ga13 Ga9 2.883941 1_556
Ga13 Ga2 2.883941 1_556
Ga13 Y3 3.053817 1_555
Ga13 Y1 3.053817 1_555
Ga14 Ru1 2.572806 1_555
Ga14 Ru2 2.572806 1_555
Ga14 Ga6 2.724879 1_555
Ga14 Ga2 2.724879 1_555
Ga14 Ga16 2.795749 1_555
Ga14 Y2 3.039462 1_555
Ga14 Y0 3.083363 1_455
Ga15 Ru0 2.572806 1_556
Ga15 Ru3 2.572806 1_555
Ga15 Ga3 2.724879 1_555
Ga15 Ga4 2.724879 1_555
Ga15 Ga17 2.795749 1_555
Ga15 Y3 3.039462 1_555
Ga15 Y1 3.083363 1_655
Ga16 Ru0 2.572806 1_555
Ga16 Ru3 2.572806 1_555
Ga16 Ga5 2.724879 1_555
Ga16 Ga9 2.724879 1_555
Ga16 Y0 3.039463 1_555
Ga16 Y2 3.083362 1_545
Ga17 Ru2 2.572806 1_555
Ga17 Ru1 2.572806 1_556
Ga17 Ga8 2.724879 1_555
Ga17 Ga7 2.724879 1_555
Ga17 Y1 3.039463 1_555
Ga17 Y3 3.083362 1_565
