# generated using pymatgen
data_HfTa2Be9
_symmetry_space_group_name_H-M   'P 1'
_cell_length_a   7.57266349
_cell_length_b   7.57266384
_cell_length_c   7.57266450
_cell_angle_alpha   35.29533003
_cell_angle_beta   35.29532928
_cell_angle_gamma   35.29532489
_symmetry_Int_Tables_number   1
_chemical_formula_structural   HfTa2Be9
_chemical_formula_sum   'Hf1 Ta2 Be9'
_cell_volume   129.50934713
_cell_formula_units_Z   1
loop_
 _symmetry_equiv_pos_site_id
 _symmetry_equiv_pos_as_xyz
  1  'x, y, z'
loop_
 _atom_site_type_symbol
 _atom_site_label
 _atom_site_symmetry_multiplicity
 _atom_site_fract_x
 _atom_site_fract_y
 _atom_site_fract_z
 _atom_site_occupancy
  Hf  Hf0  1  0.00000000  0.00000000  0.00000000  1
  Ta  Ta0  1  0.85779122  0.85779122  0.85779122  1
  Ta  Ta1  1  0.14220878  0.14220878  0.14220878  1
  Be  Be0  1  0.41324527  0.92449169  0.41324527  1
  Be  Be1  1  0.41324527  0.41324527  0.92449169  1
  Be  Be2  1  0.92449169  0.41324527  0.41324527  1
  Be  Be3  1  0.58675473  0.07550831  0.58675473  1
  Be  Be4  1  0.58675473  0.58675473  0.07550831  1
  Be  Be5  1  0.07550831  0.58675473  0.58675473  1
  Be  Be6  1  0.66473040  0.66473040  0.66473040  1
  Be  Be7  1  0.33526960  0.33526960  0.33526960  1
  Be  Be8  1  0.50000000  0.50000000  0.50000000  1
loop_
_geom_bond_atom_site_label_1
_geom_bond_atom_site_label_2
_geom_bond_distance
_geom_bond_site_symmetry_2
Hf0 Ta1 3.026280 1_555
Hf0 Ta0 3.026280 1_444
Ta0 Ta1 2.847959 1_566
Ta0 Ta1 2.847959 1_656
Ta0 Ta1 2.847960 1_665
Be0 Be6 2.193873 1_555
Be0 Be7 2.223995 1_565
Be0 Be8 2.237493 1_555
Be0 Be2 2.244111 1_465
Be0 Be1 2.244112 1_564
Be0 Be2 2.347387 1_555
Be0 Be1 2.347388 1_555
Be0 Ta0 2.618898 1_455
Be0 Ta0 2.618898 1_554
Be0 Ta1 2.640543 1_565
Be0 Hf0 2.896819 1_665
Be0 Hf0 2.896820 1_566
Be1 Be6 2.193873 1_555
Be1 Be7 2.223995 1_556
Be1 Be8 2.237493 1_555
Be1 Be2 2.244112 1_456
Be1 Be2 2.347388 1_555
Be1 Ta0 2.618897 1_455
Be1 Ta0 2.618897 1_545
Be1 Ta1 2.640543 1_556
Be1 Hf0 2.896819 1_656
Be1 Hf0 2.896819 1_566
Be2 Be6 2.193873 1_555
Be2 Be7 2.223995 1_655
Be2 Be8 2.237493 1_555
Be2 Ta0 2.618898 1_545
Be2 Ta0 2.618898 1_554
Be2 Ta1 2.640543 1_655
Be2 Hf0 2.896819 1_665
Be2 Hf0 2.896820 1_656
Be3 Be7 2.193873 1_555
Be3 Be6 2.223995 1_545
Be3 Be8 2.237493 1_555
Be3 Be5 2.244111 1_645
Be3 Be4 2.244112 1_546
Be3 Be5 2.347387 1_555
Be3 Be4 2.347388 1_555
Be3 Ta1 2.618898 1_655
Be3 Ta1 2.618898 1_556
Be3 Ta0 2.640543 1_545
Be3 Hf0 2.896819 1_556
Be3 Hf0 2.896820 1_655
Be4 Be7 2.193873 1_555
Be4 Be6 2.223995 1_554
Be4 Be8 2.237493 1_555
Be4 Be5 2.244112 1_654
Be4 Be5 2.347388 1_555
Be4 Ta1 2.618897 1_655
Be4 Ta1 2.618897 1_565
Be4 Ta0 2.640543 1_554
Be4 Hf0 2.896819 1_565
Be4 Hf0 2.896819 1_655
Be5 Be7 2.193873 1_555
Be5 Be6 2.223995 1_455
Be5 Be8 2.237493 1_555
Be5 Ta1 2.618898 1_565
Be5 Ta1 2.618898 1_556
Be5 Ta0 2.640543 1_455
Be5 Hf0 2.896819 1_556
Be5 Hf0 2.896820 1_565
Be6 Hf0 2.651223 1_566
Be6 Hf0 2.651223 1_656
Be6 Hf0 2.651224 1_665
Be7 Hf0 2.651223 1_655
Be7 Hf0 2.651223 1_565
Be7 Hf0 2.651224 1_556
Be8 Ta0 2.701515 1_455
Be8 Ta1 2.701515 1_655
Be8 Ta0 2.701515 1_545
Be8 Ta1 2.701515 1_565
Be8 Ta0 2.701515 1_554
Be8 Ta1 2.701515 1_556
