# generated using pymatgen
data_Cs10Zn4Sn4S17
_symmetry_space_group_name_H-M   'P 1'
_cell_length_a   10.53722774
_cell_length_b   10.53722785
_cell_length_c   10.53722861
_cell_angle_alpha   89.43125329
_cell_angle_beta   89.43124951
_cell_angle_gamma   89.43124732
_symmetry_Int_Tables_number   1
_chemical_formula_structural   Cs10Zn4Sn4S17
_chemical_formula_sum   'Cs10 Zn4 Sn4 S17'
_cell_volume   1169.81010100
_cell_formula_units_Z   1
loop_
 _symmetry_equiv_pos_site_id
 _symmetry_equiv_pos_as_xyz
  1  'x, y, z'
loop_
 _atom_site_type_symbol
 _atom_site_label
 _atom_site_symmetry_multiplicity
 _atom_site_fract_x
 _atom_site_fract_y
 _atom_site_fract_z
 _atom_site_occupancy
  Cs  Cs0  1  0.99903193  0.99903193  0.49881836  1
  Cs  Cs1  1  0.49881836  0.99903193  0.99903193  1
  Cs  Cs2  1  0.99903193  0.49881836  0.99903193  1
  Cs  Cs3  1  0.49663552  0.98180215  0.49663552  1
  Cs  Cs4  1  0.49663552  0.49663552  0.98180215  1
  Cs  Cs5  1  0.98180215  0.49663552  0.49663552  1
  Cs  Cs6  1  0.66529628  0.32678137  0.32678137  1
  Cs  Cs7  1  0.32678137  0.66529628  0.32678137  1
  Cs  Cs8  1  0.32678137  0.32678137  0.66529628  1
  Cs  Cs9  1  0.67584839  0.67584839  0.67584839  1
  Zn  Zn0  1  0.87011536  0.12564790  0.12564790  1
  Zn  Zn1  1  0.12564790  0.87011536  0.12564790  1
  Zn  Zn2  1  0.12564790  0.12564790  0.87011536  1
  Zn  Zn3  1  0.87294753  0.87294753  0.87294753  1
  Sn  Sn0  1  0.21047039  0.21047039  0.21047039  1
  Sn  Sn1  1  0.21583724  0.78477212  0.78477212  1
  Sn  Sn2  1  0.78477212  0.78477212  0.21583724  1
  Sn  Sn3  1  0.78477212  0.21583724  0.78477212  1
  S  S0  1  0.99871463  0.99871463  0.99871463  1
  S  S1  1  0.33838764  0.33838764  0.33838764  1
  S  S2  1  0.35013878  0.65722299  0.65722299  1
  S  S3  1  0.65722299  0.65722299  0.35013878  1
  S  S4  1  0.65722299  0.35013878  0.65722299  1
  S  S5  1  0.25713362  0.99017956  0.25713362  1
  S  S6  1  0.25713362  0.25713362  0.99017956  1
  S  S7  1  0.99017956  0.25713362  0.25713362  1
  S  S8  1  0.25989329  0.00467096  0.73772494  1
  S  S9  1  0.25989329  0.73772494  0.00467096  1
  S  S10  1  0.99644720  0.73988060  0.73988060  1
  S  S11  1  0.73772494  0.00467096  0.25989329  1
  S  S12  1  0.73988060  0.73988060  0.99644720  1
  S  S13  1  0.00467096  0.73772494  0.25989329  1
  S  S14  1  0.73988060  0.99644720  0.73988060  1
  S  S15  1  0.73772494  0.25989329  0.00467096  1
  S  S16  1  0.00467096  0.25989329  0.73772494  1
loop_
_geom_bond_atom_site_label_1
_geom_bond_atom_site_label_2
_geom_bond_distance
_geom_bond_site_symmetry_2
Cs0 S5 3.708522 1_655
Cs0 S7 3.708522 1_565
Cs0 S14 3.711106 1_555
Cs0 S10 3.711106 1_555
Cs0 S16 3.747018 1_665
Cs0 S8 3.747018 1_665
Cs0 S13 3.748970 1_655
Cs0 S11 3.748970 1_565
Cs1 S6 3.708521 1_565
Cs1 S5 3.708522 1_556
Cs1 S12 3.711106 1_555
Cs1 S14 3.711106 1_555
Cs1 S15 3.747018 1_566
Cs1 S11 3.747018 1_566
Cs1 S9 3.748970 1_556
Cs1 S8 3.748970 1_565
Cs2 S6 3.708521 1_655
Cs2 S7 3.708522 1_556
Cs2 S12 3.711106 1_555
Cs2 S10 3.711106 1_555
Cs2 S13 3.747018 1_656
Cs2 S9 3.747018 1_656
Cs2 S16 3.748970 1_655
Cs2 S15 3.748970 1_556
Cs3 S8 3.550949 1_565
Cs3 S11 3.550949 1_565
Cs3 S5 3.586555 1_555
Cs3 S14 3.648178 1_555
Cs4 S9 3.550949 1_556
Cs4 S15 3.550949 1_556
Cs4 S6 3.586555 1_555
Cs4 S12 3.648178 1_555
Cs5 S16 3.550950 1_655
Cs5 S13 3.550950 1_655
Cs5 S7 3.586554 1_555
Cs5 S10 3.648178 1_555
Cs6 S1 3.446667 1_555
Cs6 S3 3.493197 1_555
Cs6 S4 3.493197 1_555
Cs6 S11 3.547518 1_555
Cs6 S15 3.547518 1_555
Cs6 S7 3.564771 1_555
Cs7 S1 3.446667 1_555
Cs7 S3 3.493197 1_555
Cs7 S2 3.493198 1_555
Cs7 S13 3.547518 1_555
Cs7 S9 3.547518 1_555
Cs7 S5 3.564771 1_555
Cs8 S1 3.446668 1_555
Cs8 S4 3.493197 1_555
Cs8 S2 3.493197 1_555
Cs8 S16 3.547518 1_555
Cs8 S8 3.547518 1_555
Cs8 S6 3.564772 1_555
Cs9 S2 3.447273 1_555
Cs9 S4 3.447273 1_555
Cs9 S3 3.447274 1_555
Cs9 S14 3.524547 1_555
Cs9 S10 3.524547 1_555
Cs9 S12 3.524547 1_555
S0 Zn3 2.318050 1_555
S0 Zn0 2.318995 1_566
S0 Zn1 2.318995 1_656
S0 Zn2 2.318995 1_665
S1 Sn0 2.357680 1_555
S2 Sn1 2.361310 1_555
S3 Sn2 2.361310 1_555
S4 Sn3 2.361310 1_555
S5 Zn1 2.355311 1_555
S5 Sn0 2.414797 1_565
S6 Zn2 2.355311 1_555
S6 Sn0 2.414797 1_556
S7 Zn0 2.355311 1_555
S7 Sn0 2.414797 1_655
S8 Zn2 2.352120 1_555
S8 Sn1 2.413363 1_545
S9 Zn1 2.352120 1_555
S9 Sn1 2.413363 1_554
S10 Zn3 2.364776 1_555
S10 Sn1 2.416532 1_655
S11 Zn0 2.352120 1_555
S11 Sn2 2.413363 1_545
S12 Zn3 2.364776 1_555
S12 Sn2 2.416532 1_556
S13 Zn1 2.352120 1_555
S13 Sn2 2.413363 1_455
S14 Zn3 2.364776 1_555
S14 Sn3 2.416532 1_565
S15 Zn0 2.352120 1_555
S15 Sn3 2.413363 1_554
S16 Zn2 2.352120 1_555
S16 Sn3 2.413363 1_455
