# generated using pymatgen
data_YAl4(CuO4)3
_symmetry_space_group_name_H-M   'P 1'
_cell_length_a   6.15520579
_cell_length_b   6.15520665
_cell_length_c   6.15520695
_cell_angle_alpha   109.47122163
_cell_angle_beta   109.47122446
_cell_angle_gamma   109.47122297
_symmetry_Int_Tables_number   1
_chemical_formula_structural   YAl4(CuO4)3
_chemical_formula_sum   'Y1 Al4 Cu3 O12'
_cell_volume   179.51715045
_cell_formula_units_Z   1
loop_
 _symmetry_equiv_pos_site_id
 _symmetry_equiv_pos_as_xyz
  1  'x, y, z'
loop_
 _atom_site_type_symbol
 _atom_site_label
 _atom_site_symmetry_multiplicity
 _atom_site_fract_x
 _atom_site_fract_y
 _atom_site_fract_z
 _atom_site_occupancy
  Y  Y0  1  0.00000000  0.00000000  0.00000000  1
  Al  Al0  1  0.00000000  0.00000000  0.50000000  1
  Al  Al1  1  0.00000000  0.50000000  0.00000000  1
  Al  Al2  1  0.50000000  0.00000000  0.00000000  1
  Al  Al3  1  0.50000000  0.50000000  0.50000000  1
  Cu  Cu0  1  0.00000000  0.50000000  0.50000000  1
  Cu  Cu1  1  0.50000000  0.00000000  0.50000000  1
  Cu  Cu2  1  0.50000000  0.50000000  0.00000000  1
  O  O0  1  0.30450408  0.13023781  0.82573473  1
  O  O1  1  0.69549592  0.86976219  0.17426527  1
  O  O2  1  0.69549592  0.52123065  0.82573473  1
  O  O3  1  0.47876935  0.17426527  0.30450408  1
  O  O4  1  0.17426527  0.30450408  0.47876935  1
  O  O5  1  0.82573473  0.30450408  0.13023781  1
  O  O6  1  0.86976219  0.17426527  0.69549592  1
  O  O7  1  0.82573473  0.69549592  0.52123065  1
  O  O8  1  0.30450408  0.47876935  0.17426527  1
  O  O9  1  0.52123065  0.82573473  0.69549592  1
  O  O10  1  0.17426527  0.69549592  0.86976219  1
  O  O11  1  0.13023781  0.82573473  0.30450408  1
loop_
_geom_bond_atom_site_label_1
_geom_bond_atom_site_label_2
_geom_bond_distance
_geom_bond_site_symmetry_2
Al0 O6 1.896577 1_455
Al0 O11 1.896577 1_545
Al0 O4 1.896582 1_555
Al0 O7 1.896582 1_445
Al0 O0 1.896583 1_555
Al0 O1 1.896583 1_445
Al1 O10 1.896577 1_554
Al1 O5 1.896577 1_455
Al1 O8 1.896582 1_555
Al1 O2 1.896582 1_454
Al1 O11 1.896584 1_555
Al1 O6 1.896584 1_454
Al2 O1 1.896577 1_545
Al2 O0 1.896577 1_554
Al2 O9 1.896582 1_544
Al2 O3 1.896582 1_555
Al2 O5 1.896583 1_555
Al2 O10 1.896583 1_544
Al3 O7 1.896582 1_555
Al3 O4 1.896582 1_555
Al3 O2 1.896582 1_555
Al3 O8 1.896582 1_555
Al3 O9 1.896582 1_555
Al3 O3 1.896582 1_555
Cu0 O7 1.861371 1_455
Cu0 O4 1.861371 1_555
Cu0 O10 1.861376 1_555
Cu0 O5 1.861376 1_455
Cu1 O3 1.861371 1_555
Cu1 O9 1.861371 1_545
Cu1 O6 1.861376 1_555
Cu1 O11 1.861376 1_545
Cu2 O2 1.861371 1_554
Cu2 O8 1.861371 1_555
Cu2 O1 1.861376 1_555
Cu2 O0 1.861376 1_554
O0 Y0 2.493590 1_556
O1 Y0 2.493590 1_665
O2 Y0 2.493592 1_666
O3 Y0 2.493591 1_555
O4 Y0 2.493592 1_555
O5 Y0 2.493590 1_655
O6 Y0 2.493591 1_656
O7 Y0 2.493592 1_666
O8 Y0 2.493592 1_555
O9 Y0 2.493591 1_666
O10 Y0 2.493590 1_566
O11 Y0 2.493591 1_565
