# generated using pymatgen
data_Ba2Ca(AlSb2)2
_symmetry_space_group_name_H-M   'P 1'
_cell_length_a   9.25773153
_cell_length_b   9.25773137
_cell_length_c   7.36675172
_cell_angle_alpha   89.04473380
_cell_angle_beta   89.04472791
_cell_angle_gamma   77.04666432
_symmetry_Int_Tables_number   1
_chemical_formula_structural   Ba2Ca(AlSb2)2
_chemical_formula_sum   'Ba4 Ca2 Al4 Sb8'
_cell_volume   615.16554219
_cell_formula_units_Z   2
loop_
 _symmetry_equiv_pos_site_id
 _symmetry_equiv_pos_as_xyz
  1  'x, y, z'
loop_
 _atom_site_type_symbol
 _atom_site_label
 _atom_site_symmetry_multiplicity
 _atom_site_fract_x
 _atom_site_fract_y
 _atom_site_fract_z
 _atom_site_occupancy
  Ba  Ba0  1  0.00089301  0.74363654  0.54598556  1
  Ba  Ba1  1  0.25636346  0.99910699  0.95401444  1
  Ba  Ba2  1  0.99910699  0.25636346  0.45401444  1
  Ba  Ba3  1  0.74363654  0.00089301  0.04598556  1
  Ca  Ca0  1  0.39735073  0.60264927  0.25000000  1
  Ca  Ca1  1  0.60264927  0.39735073  0.75000000  1
  Al  Al0  1  0.82521584  0.57653219  0.07833286  1
  Al  Al1  1  0.42346781  0.17478416  0.42166714  1
  Al  Al2  1  0.17478416  0.42346781  0.92166714  1
  Al  Al3  1  0.57653219  0.82521584  0.57833286  1
  Sb  Sb0  1  0.06405129  0.70437030  0.03935138  1
  Sb  Sb1  1  0.29562970  0.93594871  0.46064862  1
  Sb  Sb2  1  0.93594871  0.29562970  0.96064862  1
  Sb  Sb3  1  0.70437030  0.06405129  0.53935138  1
  Sb  Sb4  1  0.72038585  0.57108210  0.42116916  1
  Sb  Sb5  1  0.42891790  0.27961415  0.07883084  1
  Sb  Sb6  1  0.27961415  0.42891790  0.57883084  1
  Sb  Sb7  1  0.57108210  0.72038585  0.92116916  1
loop_
_geom_bond_atom_site_label_1
_geom_bond_atom_site_label_2
_geom_bond_distance
_geom_bond_site_symmetry_2
Ba0 Sb6 3.439835 1_555
Ba0 Sb4 3.482730 1_455
Ba0 Sb3 3.561767 1_465
Ba0 Sb1 3.618497 1_555
Ba0 Sb0 3.689872 1_556
Ba0 Sb0 3.779006 1_555
Ba1 Sb7 3.439835 1_555
Ba1 Sb5 3.482730 1_566
Ba1 Sb2 3.561767 1_465
Ba1 Sb0 3.618497 1_556
Ba1 Sb1 3.689872 1_555
Ba1 Sb1 3.779006 1_556
Ba2 Sb4 3.439835 1_555
Ba2 Sb6 3.482730 1_655
Ba2 Sb1 3.561767 1_645
Ba2 Sb3 3.618497 1_555
Ba2 Sb2 3.689872 1_554
Ba2 Sb2 3.779006 1_555
Ba3 Sb5 3.439835 1_555
Ba3 Sb7 3.482730 1_544
Ba3 Sb0 3.561767 1_645
Ba3 Sb2 3.618497 1_554
Ba3 Sb3 3.689872 1_555
Ba3 Sb3 3.779006 1_554
Ca0 Sb7 3.195455 1_554
Ca0 Sb6 3.195455 1_555
Ca0 Sb5 3.215679 1_555
Ca0 Sb4 3.215679 1_555
Ca0 Sb1 3.409404 1_555
Ca0 Sb0 3.409405 1_555
Ca1 Sb5 3.195455 1_556
Ca1 Sb4 3.195455 1_555
Ca1 Sb7 3.215679 1_555
Ca1 Sb6 3.215679 1_555
Ca1 Sb3 3.409404 1_555
Ca1 Sb2 3.409405 1_555
Al0 Sb4 2.694248 1_555
Al0 Sb7 2.698888 1_554
Al0 Sb2 2.723159 1_554
Al0 Sb0 2.740913 1_655
Al1 Sb5 2.694248 1_555
Al1 Sb6 2.698888 1_555
Al1 Sb3 2.723159 1_555
Al1 Sb1 2.740913 1_545
Al2 Sb6 2.694248 1_555
Al2 Sb5 2.698888 1_556
Al2 Sb0 2.723159 1_556
Al2 Sb2 2.740913 1_455
Al3 Sb7 2.694248 1_555
Al3 Sb4 2.698888 1_555
Al3 Sb1 2.723159 1_555
Al3 Sb3 2.740913 1_565
