# generated using pymatgen
data_K5Ag(BrO)2
_symmetry_space_group_name_H-M   'P 1'
_cell_length_a   5.33962691
_cell_length_b   7.10172045
_cell_length_c   13.81875844
_cell_angle_alpha   90.00000000
_cell_angle_beta   90.00000000
_cell_angle_gamma   90.00000000
_symmetry_Int_Tables_number   1
_chemical_formula_structural   K5Ag(BrO)2
_chemical_formula_sum   'K10 Ag2 Br4 O4'
_cell_volume   524.01474891
_cell_formula_units_Z   2
loop_
 _symmetry_equiv_pos_site_id
 _symmetry_equiv_pos_as_xyz
  1  'x, y, z'
loop_
 _atom_site_type_symbol
 _atom_site_label
 _atom_site_symmetry_multiplicity
 _atom_site_fract_x
 _atom_site_fract_y
 _atom_site_fract_z
 _atom_site_occupancy
  K  K0  1  0.50000000  0.31590855  0.60672974  1
  K  K1  1  0.50000000  0.18409145  0.10672974  1
  K  K2  1  0.00000000  0.60252361  0.73598055  1
  K  K3  1  0.00000000  0.50000000  0.00000000  1
  K  K4  1  0.50000000  0.68409145  0.39327026  1
  K  K5  1  0.50000000  0.81590855  0.89327026  1
  K  K6  1  0.00000000  0.89747639  0.23598055  1
  K  K7  1  0.00000000  0.39747639  0.26401945  1
  K  K8  1  0.00000000  0.10252361  0.76401945  1
  K  K9  1  0.00000000  0.00000000  0.50000000  1
  Ag  Ag0  1  0.00000000  0.50000000  0.50000000  1
  Ag  Ag1  1  0.00000000  0.00000000  0.00000000  1
  Br  Br0  1  0.50000000  0.64881566  0.14687708  1
  Br  Br1  1  0.50000000  0.35118434  0.85312292  1
  Br  Br2  1  0.50000000  0.14881566  0.35312292  1
  Br  Br3  1  0.50000000  0.85118434  0.64687708  1
  O  O0  1  0.00000000  0.68591537  0.38840029  1
  O  O1  1  0.00000000  0.81408463  0.88840029  1
  O  O2  1  0.00000000  0.18591537  0.11159971  1
  O  O3  1  0.00000000  0.31408463  0.61159971  1
loop_
_geom_bond_atom_site_label_1
_geom_bond_atom_site_label_2
_geom_bond_distance
_geom_bond_site_symmetry_2
K0 O3 2.670693 1_655
K0 O3 2.670693 1_555
K1 O2 2.670693 1_655
K1 O2 2.670693 1_555
K2 O1 2.587208 1_555
K2 O3 2.673991 1_555
K3 O2 2.711752 1_555
K3 O1 2.711752 1_554
K4 O0 2.670693 1_655
K4 O0 2.670693 1_555
K5 O1 2.670693 1_555
K5 O1 2.670693 1_655
K6 O0 2.587208 1_555
K6 O2 2.673991 1_565
K7 O2 2.587208 1_555
K7 O0 2.673991 1_555
K8 O3 2.587208 1_555
K8 O1 2.673991 1_545
K9 O3 2.711752 1_555
K9 O0 2.711752 1_545
Ag0 O3 2.030155 1_555
Ag0 O0 2.030155 1_555
Ag1 O2 2.030155 1_555
Ag1 O1 2.030155 1_544
Br0 K1 3.346646 1_555
Br0 K4 3.414052 1_555
Br0 K6 3.429646 1_555
Br0 K6 3.429646 1_655
Br0 K3 3.516297 1_555
Br0 K3 3.516297 1_655
Br0 K7 3.596430 1_655
Br0 K7 3.596430 1_555
Br0 K5 3.699983 1_554
Br0 K1 3.841649 1_565
Br1 K5 3.346646 1_555
Br1 K0 3.414052 1_555
Br1 K8 3.429646 1_655
Br1 K8 3.429646 1_555
Br1 K3 3.516297 1_556
Br1 K3 3.516297 1_656
Br1 K2 3.596430 1_555
Br1 K2 3.596430 1_655
Br1 K1 3.699983 1_556
Br1 K5 3.841649 1_545
Br2 K4 3.346646 1_545
Br2 K1 3.414052 1_555
Br2 K7 3.429646 1_555
Br2 K7 3.429646 1_655
Br2 K9 3.516297 1_655
Br2 K9 3.516297 1_555
Br2 K6 3.596430 1_545
Br2 K6 3.596430 1_645
Br2 K0 3.699983 1_555
Br2 K4 3.841649 1_555
Br3 K0 3.346646 1_565
Br3 K5 3.414052 1_555
Br3 K2 3.429646 1_555
Br3 K2 3.429646 1_655
Br3 K9 3.516297 1_565
Br3 K9 3.516297 1_665
Br3 K8 3.596430 1_665
Br3 K8 3.596430 1_565
Br3 K4 3.699983 1_555
Br3 K0 3.841649 1_555
