# generated using pymatgen
data_AgBi3(Rh2O7)2
_symmetry_space_group_name_H-M   'P 1'
_cell_length_a   7.28585710
_cell_length_b   7.09775410
_cell_length_c   7.28585616
_cell_angle_alpha   59.11938689
_cell_angle_beta   59.99999987
_cell_angle_gamma   59.11938693
_symmetry_Int_Tables_number   1
_chemical_formula_structural   AgBi3(Rh2O7)2
_chemical_formula_sum   'Ag1 Bi3 Rh4 O14'
_cell_volume   262.81880186
_cell_formula_units_Z   1
loop_
 _symmetry_equiv_pos_site_id
 _symmetry_equiv_pos_as_xyz
  1  'x, y, z'
loop_
 _atom_site_type_symbol
 _atom_site_label
 _atom_site_symmetry_multiplicity
 _atom_site_fract_x
 _atom_site_fract_y
 _atom_site_fract_z
 _atom_site_occupancy
  Ag  Ag0  1  0.12500000  0.62500000  0.12500000  1
  Bi  Bi0  1  0.12500000  0.12500000  0.12500000  1
  Bi  Bi1  1  0.62500000  0.12500000  0.12500000  1
  Bi  Bi2  1  0.12500000  0.12500000  0.62500000  1
  Rh  Rh0  1  0.62500000  0.62500000  0.62500000  1
  Rh  Rh1  1  0.62500000  0.62500000  0.12500000  1
  Rh  Rh2  1  0.12500000  0.62500000  0.62500000  1
  Rh  Rh3  1  0.62500000  0.12500000  0.62500000  1
  O  O0  1  0.24482805  0.26551485  0.24482805  1
  O  O1  1  0.29800336  0.70807032  0.29800336  1
  O  O2  1  0.95723195  0.96215772  0.54030516  1
  O  O3  1  0.54030516  0.96215772  0.54030516  1
  O  O4  1  0.69592396  0.70807032  0.29800336  1
  O  O5  1  0.95199664  0.54192968  0.55407604  1
  O  O6  1  0.70969484  0.28784228  0.70969484  1
  O  O7  1  0.29276805  0.28784228  0.70969484  1
  O  O8  1  0.70969484  0.28784228  0.29276805  1
  O  O9  1  0.29800336  0.70807032  0.69592396  1
  O  O10  1  0.95199664  0.54192968  0.95199664  1
  O  O11  1  0.55407604  0.54192968  0.95199664  1
  O  O12  1  0.00517195  0.98448515  0.00517195  1
  O  O13  1  0.54030516  0.96215772  0.95723195  1
loop_
_geom_bond_atom_site_label_1
_geom_bond_atom_site_label_2
_geom_bond_distance
_geom_bond_site_symmetry_2
Ag0 O12 2.055159 1_555
Ag0 O0 2.055159 1_555
Ag0 O5 2.576781 1_455
Ag0 O9 2.576781 1_554
Ag0 O11 2.576782 1_554
Ag0 O4 2.576782 1_455
Ag0 O1 2.576788 1_555
Ag0 O10 2.576788 1_454
Bi0 O0 2.251431 1_555
Bi0 O12 2.251431 1_545
Bi0 O10 2.421936 1_454
Bi0 O1 2.421936 1_545
Bi0 O2 2.479398 1_445
Bi0 O7 2.479398 1_554
Bi0 O13 2.479399 1_544
Bi0 O8 2.479399 1_455
Bi1 O12 2.251437 1_645
Bi1 O0 2.251437 1_555
Bi1 O11 2.421935 1_554
Bi1 O4 2.421935 1_545
Bi1 O3 2.479398 1_545
Bi1 O6 2.479398 1_554
Bi1 O8 2.479399 1_555
Bi1 O13 2.479399 1_544
Bi2 O12 2.251437 1_546
Bi2 O0 2.251437 1_555
Bi2 O5 2.421935 1_455
Bi2 O9 2.421935 1_545
Bi2 O7 2.479399 1_555
Bi2 O2 2.479399 1_445
Bi2 O3 2.479399 1_545
Bi2 O6 2.479399 1_455
O1 Rh2 1.982531 1_555
O1 Rh1 1.982532 1_555
O2 Rh2 1.958935 1_655
O2 Rh3 1.985573 1_565
O3 Rh0 1.958935 1_555
O3 Rh3 1.985573 1_565
O4 Rh0 1.982530 1_555
O4 Rh1 1.982537 1_555
O5 Rh0 1.982530 1_555
O5 Rh2 1.982537 1_655
O6 Rh0 1.958935 1_555
O6 Rh3 1.985573 1_555
O7 Rh2 1.958935 1_555
O7 Rh3 1.985573 1_555
O8 Rh1 1.958935 1_555
O8 Rh3 1.985573 1_555
O9 Rh0 1.982530 1_555
O9 Rh2 1.982537 1_555
O10 Rh2 1.982531 1_655
O10 Rh1 1.982532 1_556
O11 Rh0 1.982530 1_555
O11 Rh1 1.982537 1_556
O13 Rh1 1.958935 1_556
O13 Rh3 1.985573 1_565
