# generated using pymatgen
data_TiBe(BMo)3
_symmetry_space_group_name_H-M   'P 1'
_cell_length_a   4.53119655
_cell_length_b   4.53119633
_cell_length_c   6.27082913
_cell_angle_alpha   90.00000000
_cell_angle_beta   90.00000000
_cell_angle_gamma   139.06058613
_symmetry_Int_Tables_number   1
_chemical_formula_structural   TiBe(BMo)3
_chemical_formula_sum   'Ti1 Be1 B3 Mo3'
_cell_volume   84.36548571
_cell_formula_units_Z   1
loop_
 _symmetry_equiv_pos_site_id
 _symmetry_equiv_pos_as_xyz
  1  'x, y, z'
loop_
 _atom_site_type_symbol
 _atom_site_label
 _atom_site_symmetry_multiplicity
 _atom_site_fract_x
 _atom_site_fract_y
 _atom_site_fract_z
 _atom_site_occupancy
  Ti  Ti0  1  0.84955606  0.15044394  0.00000000  1
  Be  Be0  1  0.56672098  0.43327902  0.50000000  1
  B  B0  1  0.55769738  0.44230262  0.00000000  1
  B  B1  1  0.43765065  0.56234935  0.24384531  1
  B  B2  1  0.43765065  0.56234935  0.75615469  1
  Mo  Mo0  1  0.85605238  0.14394762  0.50000000  1
  Mo  Mo1  1  0.14733545  0.85266455  0.24294688  1
  Mo  Mo2  1  0.14733545  0.85266455  0.75705312  1
loop_
_geom_bond_atom_site_label_1
_geom_bond_atom_site_label_2
_geom_bond_distance
_geom_bond_site_symmetry_2
Be0 Mo1 2.361734 1_545
Be0 Mo2 2.361734 1_545
Be0 Mo1 2.361734 1_655
Be0 Mo2 2.361734 1_655
Be0 Mo0 2.389589 1_565
Be0 Mo0 2.389589 1_455
Be0 Mo0 2.456472 1_555
B0 B1 1.837658 1_555
B0 B2 1.837658 1_554
B0 Mo2 2.326193 1_544
B0 Mo1 2.326193 1_545
B0 Mo2 2.326193 1_654
B0 Mo1 2.326193 1_655
B0 Ti0 2.373571 1_565
B0 Ti0 2.373571 1_455
B0 Ti0 2.477929 1_555
B1 Be0 1.944492 1_555
B1 Ti0 2.325639 1_565
B1 Ti0 2.325639 1_455
B1 Mo0 2.360330 1_565
B1 Mo0 2.360330 1_455
B1 Mo1 2.383350 1_545
B1 Mo1 2.383350 1_655
B1 Mo1 2.464831 1_555
B2 Be0 1.944492 1_555
B2 Ti0 2.325639 1_566
B2 Ti0 2.325639 1_456
B2 Mo0 2.360330 1_565
B2 Mo0 2.360330 1_455
B2 Mo2 2.383350 1_545
B2 Mo2 2.383350 1_655
B2 Mo2 2.464831 1_555
Mo1 Ti0 2.789209 1_455
Mo1 Ti0 2.789210 1_565
Mo2 Ti0 2.789209 1_456
Mo2 Ti0 2.789210 1_566
