# generated using pymatgen
data_Hf3AlSi2Ir3
_symmetry_space_group_name_H-M   'P 1'
_cell_length_a   7.57194134
_cell_length_b   7.57194100
_cell_length_c   7.57194203
_cell_angle_alpha   129.74777695
_cell_angle_beta   116.25719122
_cell_angle_gamma   85.30736109
_symmetry_Int_Tables_number   1
_chemical_formula_structural   Hf3AlSi2Ir3
_chemical_formula_sum   'Hf6 Al2 Si4 Ir6'
_cell_volume   286.33903865
_cell_formula_units_Z   2
loop_
 _symmetry_equiv_pos_site_id
 _symmetry_equiv_pos_as_xyz
  1  'x, y, z'
loop_
 _atom_site_type_symbol
 _atom_site_label
 _atom_site_symmetry_multiplicity
 _atom_site_fract_x
 _atom_site_fract_y
 _atom_site_fract_z
 _atom_site_occupancy
  Hf  Hf0  1  0.47008415  0.69331859  0.72323445  1
  Hf  Hf1  1  0.52991585  0.25314930  0.22323445  1
  Hf  Hf2  1  0.74998988  0.81361483  0.56362495  1
  Hf  Hf3  1  0.25001012  0.81363707  0.06362495  1
  Hf  Hf4  1  0.03003289  0.25334443  0.72331055  1
  Hf  Hf5  1  0.96996711  0.69327766  0.22331055  1
  Al  Al0  1  0.25001436  0.25308512  0.50307176  1
  Al  Al1  1  0.74998564  0.25305740  0.00307176  1
  Si  Si0  1  0.33334604  0.58664967  0.25326727  1
  Si  Si1  1  0.66665396  0.91992123  0.25330363  1
  Si  Si2  1  0.16661760  0.91992123  0.75326727  1
  Si  Si3  1  0.83338240  0.58664967  0.75330363  1
  Ir  Ir0  1  0.50000000  0.50386642  0.00386642  1
  Ir  Ir1  1  1.00000000  0.50386642  0.50386642  1
  Ir  Ir2  1  0.12537407  0.25343501  0.12806003  1
  Ir  Ir3  1  0.87462593  0.00268595  0.12806094  1
  Ir  Ir4  1  0.37462501  0.00268595  0.62806003  1
  Ir  Ir5  1  0.62537499  0.25343501  0.62806094  1
loop_
_geom_bond_atom_site_label_1
_geom_bond_atom_site_label_2
_geom_bond_distance
_geom_bond_site_symmetry_2
Hf0 Si3 2.754807 1_555
Hf0 Si0 2.754807 1_555
Hf0 Si2 2.755730 1_555
Hf0 Si1 2.755730 1_556
Hf0 Ir4 2.819584 1_565
Hf0 Ir3 2.819584 1_566
Hf0 Ir5 3.167867 1_555
Hf0 Ir2 3.167868 1_555
Hf0 Ir1 3.169162 1_455
Hf0 Ir0 3.169162 1_556
Hf1 Si1 2.754800 1_545
Hf1 Si2 2.754806 1_544
Hf1 Si3 2.755731 1_555
Hf1 Si0 2.755736 1_555
Hf1 Ir5 2.819579 1_555
Hf1 Ir2 2.819585 1_555
Hf1 Ir3 3.167864 1_555
Hf1 Ir4 3.167870 1_554
Hf1 Ir1 3.169164 1_555
Hf1 Ir0 3.169169 1_555
Hf2 Si2 2.755199 1_655
Hf2 Si1 2.755199 1_555
Hf2 Si3 2.755258 1_555
Hf2 Si0 2.755258 1_555
Hf2 Ir1 2.821983 1_555
Hf2 Ir0 2.821983 1_555
Hf2 Ir4 3.167634 1_565
Hf2 Ir3 3.167635 1_566
Hf2 Ir5 3.167729 1_565
Hf2 Ir2 3.167729 1_666
Hf3 Si3 2.755201 1_454
Hf3 Si0 2.755213 1_555
Hf3 Si2 2.755246 1_554
Hf3 Si1 2.755257 1_555
Hf3 Ir1 2.821982 1_454
Hf3 Ir0 2.821993 1_555
Hf3 Ir2 3.167620 1_565
Hf3 Ir5 3.167631 1_565
Hf3 Ir3 3.167725 1_465
Hf3 Ir4 3.167736 1_565
Hf4 Si3 2.754912 1_455
Hf4 Si0 2.754918 1_556
Hf4 Si1 2.755446 1_445
Hf4 Si2 2.755451 1_545
Hf4 Ir5 2.820202 1_455
Hf4 Ir2 2.820208 1_556
Hf4 Ir3 3.167770 1_455
Hf4 Ir4 3.167775 1_555
Hf4 Ir1 3.168116 1_455
Hf4 Ir0 3.168122 1_556
Hf5 Si1 2.754918 1_555
Hf5 Si2 2.754918 1_655
Hf5 Si0 2.755444 1_655
Hf5 Si3 2.755445 1_554
Hf5 Ir3 2.820202 1_565
Hf5 Ir4 2.820202 1_665
Hf5 Ir2 3.167772 1_655
Hf5 Ir5 3.167772 1_554
Hf5 Ir0 3.168123 1_555
Hf5 Ir1 3.168124 1_555
Al0 Ir5 2.567460 1_555
Al0 Ir2 2.567466 1_555
Al0 Ir4 2.567622 1_555
Al0 Ir3 2.567628 1_455
Al0 Ir0 2.568447 1_556
Al0 Ir1 2.568453 1_455
Al0 Hf3 2.825754 1_545
Al0 Hf4 2.829941 1_555
Al0 Hf0 2.830561 1_555
Al1 Ir3 2.567461 1_555
Al1 Ir4 2.567461 1_554
Al1 Ir2 2.567629 1_655
Al1 Ir5 2.567629 1_554
Al1 Ir0 2.568448 1_555
Al1 Ir1 2.568448 1_555
Al1 Hf2 2.825764 1_544
Al1 Hf5 2.829948 1_555
Al1 Hf1 2.830558 1_555
Ir0 Si1 2.452922 1_555
Ir0 Si0 2.452922 1_555
Ir1 Si2 2.452922 1_655
Ir1 Si3 2.452922 1_555
Ir2 Si0 2.452499 1_555
Ir2 Si2 2.453333 1_544
Ir3 Si1 2.452499 1_545
Ir3 Si3 2.453333 1_544
Ir4 Si2 2.452499 1_545
Ir4 Si0 2.453333 1_545
Ir5 Si3 2.452499 1_555
Ir5 Si1 2.453333 1_545
