# generated using pymatgen
data_Hf4Zr8(Ga3Sb)3
_symmetry_space_group_name_H-M   'P 1'
_cell_length_a   5.68097683
_cell_length_b   8.73195741
_cell_length_c   9.34517468
_cell_angle_alpha   89.89051043
_cell_angle_beta   90.00000000
_cell_angle_gamma   90.00000000
_symmetry_Int_Tables_number   1
_chemical_formula_structural   Hf4Zr8(Ga3Sb)3
_chemical_formula_sum   'Hf4 Zr8 Ga9 Sb3'
_cell_volume   463.57633460
_cell_formula_units_Z   1
loop_
 _symmetry_equiv_pos_site_id
 _symmetry_equiv_pos_as_xyz
  1  'x, y, z'
loop_
 _atom_site_type_symbol
 _atom_site_label
 _atom_site_symmetry_multiplicity
 _atom_site_fract_x
 _atom_site_fract_y
 _atom_site_fract_z
 _atom_site_occupancy
  Hf  Hf0  1  0.00217984  0.74539498  0.11855807  1
  Hf  Hf1  1  0.49717798  0.25338937  0.88427225  1
  Hf  Hf2  1  0.00282202  0.25338937  0.88427225  1
  Hf  Hf3  1  0.49782016  0.74539498  0.11855807  1
  Zr  Zr0  1  0.75000000  0.47121164  0.61062569  1
  Zr  Zr1  1  0.25000000  0.52811450  0.37991316  1
  Zr  Zr2  1  0.75000000  0.97009594  0.39125516  1
  Zr  Zr3  1  0.25000000  0.02993814  0.60963888  1
  Zr  Zr4  1  0.75000000  0.37931627  0.19831571  1
  Zr  Zr5  1  0.25000000  0.61631795  0.80631052  1
  Zr  Zr6  1  0.75000000  0.87667935  0.80246680  1
  Zr  Zr7  1  0.25000000  0.13120166  0.19462474  1
  Ga  Ga0  1  0.00357649  0.74837331  0.56989487  1
  Ga  Ga1  1  0.49982305  0.25054381  0.43022646  1
  Ga  Ga2  1  0.00017695  0.25054381  0.43022646  1
  Ga  Ga3  1  0.49642351  0.74837331  0.56989487  1
  Ga  Ga4  1  0.25000000  0.44916191  0.08369228  1
  Ga  Ga5  1  0.75000000  0.14307037  0.64764255  1
  Ga  Ga6  1  0.25000000  0.86187369  0.35238434  1
  Ga  Ga7  1  0.75000000  0.64108943  0.35471323  1
  Ga  Ga8  1  0.25000000  0.35911904  0.64422919  1
  Sb  Sb0  1  0.75000000  0.05179768  0.08668821  1
  Sb  Sb1  1  0.25000000  0.94708712  0.91407311  1
  Sb  Sb2  1  0.75000000  0.54852138  0.91752211  1
loop_
_geom_bond_atom_site_label_1
_geom_bond_atom_site_label_2
_geom_bond_distance
_geom_bond_site_symmetry_2
Hf0 Sb2 2.923973 1_454
Hf0 Sb1 2.953412 1_554
Hf0 Sb0 3.048992 1_465
Hf1 Sb0 2.954147 1_556
Hf1 Sb2 2.967127 1_555
Hf1 Sb1 3.033168 1_545
Hf2 Sb0 2.954147 1_456
Hf2 Sb2 2.967127 1_455
Hf2 Sb1 3.033168 1_545
Hf3 Sb2 2.923973 1_554
Hf3 Sb1 2.953412 1_554
Hf3 Sb0 3.048992 1_565
Ga0 Ga7 2.646464 1_455
Ga0 Ga6 2.658213 1_555
Ga0 Ga3 2.799852 1_555
Ga0 Zr6 2.839633 1_455
Ga0 Zr0 2.841439 1_455
Ga0 Zr3 2.854121 1_565
Ga0 Zr5 2.856730 1_555
Ga0 Ga3 2.881124 1_455
Ga0 Zr2 2.932269 1_455
Ga0 Zr1 2.970518 1_555
Ga1 Ga8 2.630571 1_555
Ga1 Ga5 2.649818 1_555
Ga1 Zr7 2.820748 1_555
Ga1 Zr4 2.823464 1_555
Ga1 Ga2 2.838478 1_555
Ga1 Ga2 2.842499 1_655
Ga1 Zr1 2.847008 1_555
Ga1 Zr2 2.855329 1_545
Ga1 Zr3 2.919542 1_555
Ga1 Zr0 2.930409 1_555
Ga2 Ga8 2.630571 1_555
Ga2 Ga5 2.649818 1_455
Ga2 Zr7 2.820748 1_555
Ga2 Zr4 2.823464 1_455
Ga2 Zr1 2.847008 1_555
Ga2 Zr2 2.855329 1_445
Ga2 Zr3 2.919542 1_555
Ga2 Zr0 2.930409 1_455
Ga3 Ga7 2.646464 1_555
Ga3 Ga6 2.658213 1_555
Ga3 Zr6 2.839633 1_555
Ga3 Zr0 2.841439 1_555
Ga3 Zr3 2.854121 1_565
Ga3 Zr5 2.856730 1_555
Ga3 Zr2 2.932269 1_555
Ga3 Zr1 2.970518 1_555
Ga4 Zr1 2.854069 1_555
Ga4 Hf1 2.894713 1_554
Ga4 Hf2 2.894713 1_554
Ga4 Zr7 2.961789 1_555
Ga4 Hf3 2.963519 1_555
Ga4 Hf0 2.963519 1_555
Ga4 Zr5 2.972435 1_554
Ga4 Zr4 3.096007 1_455
Ga4 Zr4 3.096007 1_555
Ga5 Zr6 2.737033 1_545
Ga5 Hf2 2.808742 1_655
Ga5 Hf1 2.808742 1_555
Ga5 Zr2 2.834766 1_545
Ga5 Zr0 2.885466 1_555
Ga5 Zr3 3.028486 1_655
Ga5 Zr3 3.028486 1_555
Ga6 Zr7 2.773276 1_565
Ga6 Hf3 2.792830 1_555
Ga6 Hf0 2.792830 1_555
Ga6 Zr3 2.819003 1_565
Ga6 Zr1 2.925214 1_555
Ga6 Zr2 3.015734 1_555
Ga6 Zr2 3.015734 1_455
Ga7 Zr4 2.715470 1_555
Ga7 Hf0 2.782937 1_655
Ga7 Hf3 2.782937 1_555
Ga7 Zr0 2.811816 1_555
Ga7 Zr2 2.893744 1_555
Ga7 Zr1 3.015976 1_555
Ga7 Zr1 3.015976 1_655
Ga8 Zr5 2.711290 1_555
Ga8 Hf1 2.801498 1_555
Ga8 Hf2 2.801498 1_555
Ga8 Zr1 2.874880 1_555
Ga8 Zr3 2.893127 1_555
Ga8 Zr0 3.020570 1_455
Ga8 Zr0 3.020570 1_555
Sb0 Zr2 2.932957 1_545
Sb0 Zr4 3.046068 1_555
Sb0 Zr6 3.067346 1_544
Sb0 Zr7 3.093417 1_555
Sb0 Zr7 3.093417 1_655
Sb1 Zr3 2.934193 1_565
Sb1 Zr5 3.060612 1_555
Sb1 Zr7 3.078084 1_566
Sb1 Zr6 3.088140 1_555
Sb1 Zr6 3.088140 1_455
Sb2 Zr0 2.947633 1_555
Sb2 Zr4 3.008967 1_556
Sb2 Zr6 3.058623 1_555
Sb2 Zr5 3.081657 1_655
Sb2 Zr5 3.081657 1_555
