# generated using pymatgen
data_Cs2LiInBi2
_symmetry_space_group_name_H-M   'P 1'
_cell_length_a   11.59439678
_cell_length_b   11.59439706
_cell_length_c   7.23733785
_cell_angle_alpha   90.00000000
_cell_angle_beta   90.00000000
_cell_angle_gamma   102.57288630
_symmetry_Int_Tables_number   1
_chemical_formula_structural   Cs2LiInBi2
_chemical_formula_sum   'Cs8 Li4 In4 Bi8'
_cell_volume   949.58498665
_cell_formula_units_Z   4
loop_
 _symmetry_equiv_pos_site_id
 _symmetry_equiv_pos_as_xyz
  1  'x, y, z'
loop_
 _atom_site_type_symbol
 _atom_site_label
 _atom_site_symmetry_multiplicity
 _atom_site_fract_x
 _atom_site_fract_y
 _atom_site_fract_z
 _atom_site_occupancy
  Cs  Cs0  1  0.57884660  0.92115340  0.75000000  1
  Cs  Cs1  1  0.92115340  0.57884660  0.25000000  1
  Cs  Cs2  1  0.42115340  0.07884660  0.25000000  1
  Cs  Cs3  1  0.07884660  0.42115340  0.75000000  1
  Cs  Cs4  1  0.67016057  0.32983943  0.77086942  1
  Cs  Cs5  1  0.82983943  0.17016057  0.27086942  1
  Cs  Cs6  1  0.32983943  0.67016057  0.22913058  1
  Cs  Cs7  1  0.17016057  0.82983943  0.72913058  1
  Li  Li0  1  0.62038881  0.62038881  0.00000000  1
  Li  Li1  1  0.87961119  0.87961119  0.50000000  1
  Li  Li2  1  0.37961119  0.37961119  0.00000000  1
  Li  Li3  1  0.12038881  0.12038881  0.50000000  1
  In  In0  1  0.86821639  0.86821639  0.00000000  1
  In  In1  1  0.63178361  0.63178361  0.50000000  1
  In  In2  1  0.13178361  0.13178361  0.00000000  1
  In  In3  1  0.36821639  0.36821639  0.50000000  1
  Bi  Bi0  1  0.34328366  0.15671634  0.75000000  1
  Bi  Bi1  1  0.15671634  0.34328366  0.25000000  1
  Bi  Bi2  1  0.65671634  0.84328366  0.25000000  1
  Bi  Bi3  1  0.84328366  0.65671634  0.75000000  1
  Bi  Bi4  1  0.90962236  0.09037764  0.77260623  1
  Bi  Bi5  1  0.59037764  0.40962236  0.27260623  1
  Bi  Bi6  1  0.09037764  0.90962236  0.22739377  1
  Bi  Bi7  1  0.40962236  0.59037764  0.72739377  1
loop_
_geom_bond_atom_site_label_1
_geom_bond_atom_site_label_2
_geom_bond_distance
_geom_bond_site_symmetry_2
Cs0 In0 3.975350 1_556
Cs0 In1 3.975351 1_555
Cs0 Li1 4.049368 1_555
Cs0 Li0 4.049368 1_556
Cs0 Cs2 4.608245 1_565
Cs0 Cs2 4.608245 1_566
Cs0 Cs7 4.627385 1_555
Cs0 Cs4 4.627385 1_565
Cs1 In1 3.975350 1_555
Cs1 In0 3.975351 1_555
Cs1 Li0 4.049368 1_555
Cs1 Li1 4.049368 1_555
Cs1 Cs3 4.608245 1_655
Cs1 Cs3 4.608245 1_654
Cs1 Cs6 4.627385 1_655
Cs1 Cs5 4.627385 1_555
Cs2 In2 3.975350 1_555
Cs2 In3 3.975351 1_555
Cs2 Li3 4.049368 1_555
Cs2 Li2 4.049368 1_555
Cs2 Cs5 4.627385 1_555
Cs2 Cs6 4.627385 1_545
Cs3 In3 3.975350 1_555
Cs3 In2 3.975351 1_556
Cs3 Li2 4.049368 1_556
Cs3 Li3 4.049368 1_555
Cs3 Cs4 4.627385 1_455
Cs3 Cs7 4.627385 1_555
Cs4 Li2 3.908676 1_556
Cs4 Li0 3.908676 1_556
Cs4 In3 4.120104 1_555
Cs4 In1 4.120104 1_555
Cs4 Cs5 4.630576 1_556
Cs4 Cs5 4.630576 1_555
Cs5 Li3 3.908676 1_655
Cs5 Li1 3.908676 1_545
Cs5 In2 4.120104 1_655
Cs5 In0 4.120104 1_545
Cs6 Li0 3.908676 1_555
Cs6 Li2 3.908676 1_555
Cs6 In1 4.120104 1_555
Cs6 In3 4.120104 1_555
Cs6 Cs7 4.630576 1_555
Cs6 Cs7 4.630576 1_554
Cs7 Li1 3.908676 1_455
Cs7 Li3 3.908676 1_565
Cs7 In0 4.120104 1_456
Cs7 In2 4.120104 1_566
Bi0 In2 3.010315 1_556
Bi0 In3 3.010315 1_555
Bi0 Li3 3.107406 1_555
Bi0 Li2 3.107406 1_556
Bi0 Cs2 3.883289 1_555
Bi0 Cs2 3.883289 1_556
Bi0 Cs4 3.886332 1_555
Bi0 Cs7 3.886332 1_545
Bi0 Cs0 4.262231 1_545
Bi1 In3 3.010315 1_555
Bi1 In2 3.010315 1_555
Bi1 Li2 3.107406 1_555
Bi1 Li3 3.107406 1_555
Bi1 Cs3 3.883289 1_555
Bi1 Cs3 3.883289 1_554
Bi1 Cs5 3.886332 1_455
Bi1 Cs6 3.886332 1_555
Bi1 Cs1 4.262231 1_455
Bi2 In0 3.010315 1_555
Bi2 In1 3.010315 1_555
Bi2 Li1 3.107406 1_555
Bi2 Li0 3.107406 1_555
Bi2 Cs0 3.883289 1_555
Bi2 Cs0 3.883289 1_554
Bi2 Cs6 3.886332 1_555
Bi2 Cs5 3.886332 1_565
Bi2 Cs2 4.262231 1_565
Bi3 In1 3.010315 1_555
Bi3 In0 3.010315 1_556
Bi3 Li0 3.107406 1_556
Bi3 Li1 3.107406 1_555
Bi3 Cs1 3.883289 1_556
Bi3 Cs1 3.883289 1_555
Bi3 Cs7 3.886332 1_655
Bi3 Cs4 3.886332 1_555
Bi3 Cs3 4.262231 1_655
Bi4 In2 3.005894 1_656
Bi4 In0 3.005894 1_546
Bi4 Li3 3.100823 1_655
Bi4 Li1 3.100823 1_545
Bi4 Cs5 3.884310 1_556
Bi4 Cs5 3.907660 1_555
Bi4 Cs0 3.912641 1_545
Bi4 Cs3 3.912641 1_655
Bi4 Cs4 4.332794 1_555
Bi5 In3 3.005894 1_555
Bi5 In1 3.005894 1_555
Bi5 Li2 3.100823 1_555
Bi5 Li0 3.100823 1_555
Bi5 Cs4 3.884310 1_555
Bi5 Cs4 3.907660 1_554
Bi5 Cs1 3.912641 1_555
Bi5 Cs2 3.912641 1_555
Bi5 Cs5 4.332794 1_555
Bi6 In0 3.005894 1_455
Bi6 In2 3.005894 1_565
Bi6 Li1 3.100823 1_455
Bi6 Li3 3.100823 1_565
Bi6 Cs7 3.884310 1_554
Bi6 Cs7 3.907660 1_555
Bi6 Cs2 3.912641 1_565
Bi6 Cs1 3.912641 1_455
Bi6 Cs6 4.332794 1_555
Bi7 In1 3.005894 1_555
Bi7 In3 3.005894 1_555
Bi7 Li0 3.100823 1_556
Bi7 Li2 3.100823 1_556
Bi7 Cs6 3.884310 1_555
Bi7 Cs6 3.907660 1_556
Bi7 Cs3 3.912641 1_555
Bi7 Cs0 3.912641 1_555
Bi7 Cs7 4.332794 1_555
