# generated using pymatgen
data_MgNb2F12
_symmetry_space_group_name_H-M   'P 1'
_cell_length_a   5.06249837
_cell_length_b   5.45471475
_cell_length_c   8.91043052
_cell_angle_alpha   104.96886206
_cell_angle_beta   90.88971137
_cell_angle_gamma   118.63304592
_symmetry_Int_Tables_number   1
_chemical_formula_structural   MgNb2F12
_chemical_formula_sum   'Mg1 Nb2 F12'
_cell_volume   205.80252280
_cell_formula_units_Z   1
loop_
 _symmetry_equiv_pos_site_id
 _symmetry_equiv_pos_as_xyz
  1  'x, y, z'
loop_
 _atom_site_type_symbol
 _atom_site_label
 _atom_site_symmetry_multiplicity
 _atom_site_fract_x
 _atom_site_fract_y
 _atom_site_fract_z
 _atom_site_occupancy
  Mg  Mg0  1  0.00000000  0.00000000  0.00000000  1
  Nb  Nb0  1  0.78469396  0.51310463  0.26733297  1
  Nb  Nb1  1  0.21530604  0.48689537  0.73266703  1
  F  F0  1  0.79137063  0.24615809  0.70443225  1
  F  F1  1  0.20862937  0.75384191  0.29556775  1
  F  F2  1  0.18169896  0.74967842  0.92792246  1
  F  F3  1  0.70691872  0.73044683  0.44155193  1
  F  F4  1  0.29308128  0.26955317  0.55844807  1
  F  F5  1  0.79928971  0.25899207  0.37005946  1
  F  F6  1  0.20071029  0.74100793  0.62994054  1
  F  F7  1  0.34123309  0.25824350  0.18155853  1
  F  F8  1  0.65876691  0.74175650  0.81844147  1
  F  F9  1  0.76925502  0.74423803  0.12901520  1
  F  F10  1  0.23074498  0.25576197  0.87098480  1
  F  F11  1  0.81830104  0.25032158  0.07207754  1
loop_
_geom_bond_atom_site_label_1
_geom_bond_atom_site_label_2
_geom_bond_distance
_geom_bond_site_symmetry_2
F0 Nb1 1.872241 1_655
F1 Nb0 1.872241 1_455
F2 Mg0 1.972835 1_566
F2 Nb1 2.016225 1_555
F3 Nb0 1.867084 1_555
F4 Nb1 1.867084 1_555
F5 Nb0 1.875125 1_555
F6 Nb1 1.875125 1_555
F7 Nb0 1.990868 1_555
F7 Mg0 1.997365 1_555
F8 Nb1 1.990868 1_555
F8 Mg0 1.997365 1_666
F9 Mg0 1.985131 1_665
F9 Nb0 2.002194 1_555
F10 Mg0 1.985131 1_556
F10 Nb1 2.002194 1_555
F11 Mg0 1.972835 1_655
F11 Nb0 2.016225 1_555
