# generated using pymatgen
data_Tc(Sb4Pd)3
_symmetry_space_group_name_H-M   'P 1'
_cell_length_a   8.17116553
_cell_length_b   8.17540967
_cell_length_c   8.17116593
_cell_angle_alpha   109.48174623
_cell_angle_beta   109.46069774
_cell_angle_gamma   109.48174171
_symmetry_Int_Tables_number   1
_chemical_formula_structural   Tc(Sb4Pd)3
_chemical_formula_sum   'Tc1 Sb12 Pd3'
_cell_volume   420.14503829
_cell_formula_units_Z   1
loop_
 _symmetry_equiv_pos_site_id
 _symmetry_equiv_pos_as_xyz
  1  'x, y, z'
loop_
 _atom_site_type_symbol
 _atom_site_label
 _atom_site_symmetry_multiplicity
 _atom_site_fract_x
 _atom_site_fract_y
 _atom_site_fract_z
 _atom_site_occupancy
  Tc  Tc0  1  0.00000000  0.50000000  0.00000000  1
  Sb  Sb0  1  0.65426841  0.84567631  0.49858794  1
  Sb  Sb1  1  0.85227899  0.50938665  0.66645499  1
  Sb  Sb2  1  0.49858794  0.65291063  0.84431852  1
  Sb  Sb3  1  0.66645499  0.15706834  0.81417700  1
  Sb  Sb4  1  0.84431852  0.19140690  0.34573159  1
  Sb  Sb5  1  0.15568148  0.80859310  0.65426841  1
  Sb  Sb6  1  0.18582300  0.34289234  0.85227899  1
  Sb  Sb7  1  0.14772101  0.49061335  0.33354501  1
  Sb  Sb8  1  0.34573159  0.15432369  0.50141206  1
  Sb  Sb9  1  0.50141206  0.34708937  0.15568148  1
  Sb  Sb10  1  0.33354501  0.84293166  0.18582300  1
  Sb  Sb11  1  0.81417700  0.65710766  0.14772101  1
  Pd  Pd0  1  0.50000000  0.50000000  0.50000000  1
  Pd  Pd1  1  0.50000000  0.00000000  0.00000000  1
  Pd  Pd2  1  0.00000000  0.00000000  0.50000000  1
loop_
_geom_bond_atom_site_label_1
_geom_bond_atom_site_label_2
_geom_bond_distance
_geom_bond_site_symmetry_2
Sb0 Sb3 2.902005 1_565
Sb0 Sb10 2.976518 1_555
Sb1 Tc0 2.626824 1_656
Sb1 Sb5 2.902010 1_655
Sb1 Sb4 2.976514 1_555
Sb2 Sb6 2.976519 1_555
Sb3 Tc0 2.626825 1_656
Sb3 Sb8 2.976518 1_555
Sb4 Sb7 2.902010 1_655
Sb5 Sb7 2.976514 1_555
Sb6 Tc0 2.626817 1_556
Sb6 Sb9 2.902005 1_556
Sb7 Tc0 2.626824 1_555
Sb10 Tc0 2.626825 1_555
Sb10 Sb8 2.902005 1_565
Sb11 Tc0 2.626817 1_655
Sb11 Sb2 2.902005 1_554
Sb11 Sb9 2.976519 1_555
Pd0 Sb2 2.676538 1_555
Pd0 Sb9 2.676538 1_555
Pd0 Sb8 2.689042 1_555
Pd0 Sb0 2.689042 1_555
Pd0 Sb1 2.704821 1_555
Pd0 Sb7 2.704821 1_555
Pd1 Sb5 2.676543 1_544
Pd1 Sb4 2.676543 1_555
Pd1 Sb2 2.689050 1_544
Pd1 Sb9 2.689050 1_555
Pd1 Sb10 2.704814 1_545
Pd1 Sb3 2.704814 1_554
Pd2 Sb0 2.676546 1_445
Pd2 Sb8 2.676546 1_555
Pd2 Sb4 2.689039 1_455
Pd2 Sb5 2.689039 1_545
Pd2 Sb6 2.704822 1_555
Pd2 Sb11 2.704822 1_445
