# generated using pymatgen
data_Nb15Ni8MoN4
_symmetry_space_group_name_H-M   'P 1'
_cell_length_a   8.20074251
_cell_length_b   8.22294503
_cell_length_c   8.20074189
_cell_angle_alpha   60.08927599
_cell_angle_beta   59.99999853
_cell_angle_gamma   60.08928106
_symmetry_Int_Tables_number   1
_chemical_formula_structural   Nb15Ni8MoN4
_chemical_formula_sum   'Nb15 Ni8 Mo1 N4'
_cell_volume   391.56461916
_cell_formula_units_Z   1
loop_
 _symmetry_equiv_pos_site_id
 _symmetry_equiv_pos_as_xyz
  1  'x, y, z'
loop_
 _atom_site_type_symbol
 _atom_site_label
 _atom_site_symmetry_multiplicity
 _atom_site_fract_x
 _atom_site_fract_y
 _atom_site_fract_z
 _atom_site_occupancy
  Nb  Nb0  1  0.31494819  0.68365182  0.68645079  1
  Nb  Nb1  1  0.12500000  0.12500000  0.62500000  1
  Nb  Nb2  1  0.56354921  0.56634818  0.93505181  1
  Nb  Nb3  1  0.31494819  0.68365182  0.31494819  1
  Nb  Nb4  1  0.31666075  0.31648105  0.68342910  1
  Nb  Nb5  1  0.68342910  0.31648105  0.31666075  1
  Nb  Nb6  1  0.93333925  0.93351895  0.56657090  1
  Nb  Nb7  1  0.93505181  0.56634818  0.93505181  1
  Nb  Nb8  1  0.93505181  0.56634818  0.56354921  1
  Nb  Nb9  1  0.56657090  0.93351895  0.93333925  1
  Nb  Nb10  1  0.12500000  0.12500000  0.12500000  1
  Nb  Nb11  1  0.68645079  0.68365182  0.31494819  1
  Nb  Nb12  1  0.68342910  0.31648105  0.68342910  1
  Nb  Nb13  1  0.56657090  0.93351895  0.56657090  1
  Nb  Nb14  1  0.62500000  0.12500000  0.12500000  1
  Ni  Ni0  1  0.01421376  0.33311621  0.32633551  1
  Ni  Ni1  1  0.92366449  0.91688379  0.92366449  1
  Ni  Ni2  1  0.32633551  0.33311621  0.01421376  1
  Ni  Ni3  1  0.92366449  0.91688379  0.23578624  1
  Ni  Ni4  1  0.23578624  0.91688379  0.92366449  1
  Ni  Ni5  1  0.32986732  0.01039804  0.32986732  1
  Ni  Ni6  1  0.92013268  0.23960196  0.92013268  1
  Ni  Ni7  1  0.32633551  0.33311621  0.32633551  1
  Mo  Mo0  1  0.12500000  0.62500000  0.12500000  1
  N  N0  1  0.62500000  0.12500000  0.62500000  1
  N  N1  1  0.62500000  0.62500000  0.12500000  1
  N  N2  1  0.12500000  0.62500000  0.62500000  1
  N  N3  1  0.62500000  0.62500000  0.62500000  1
loop_
_geom_bond_atom_site_label_1
_geom_bond_atom_site_label_2
_geom_bond_distance
_geom_bond_site_symmetry_2
Nb0 Ni2 2.792443 1_556
Nb0 Ni5 2.814168 1_565
Nb0 Ni4 3.016641 1_555
Nb0 Ni1 3.016641 1_455
Nb1 Ni6 2.489574 1_455
Nb1 Ni5 2.489574 1_555
Nb1 Ni4 2.499489 1_545
Nb1 Ni0 2.499489 1_555
Nb1 Ni7 2.499494 1_555
Nb1 Ni1 2.499494 1_445
Nb2 Ni4 2.792444 1_555
Nb2 Ni6 2.814168 1_555
Nb2 Ni7 3.016641 1_556
Nb2 Ni2 3.016641 1_556
Nb3 Ni7 2.792436 1_555
Nb3 Ni5 2.814172 1_565
Nb3 Ni4 3.016641 1_554
Nb3 Ni3 3.016641 1_455
Nb4 Ni7 2.824837 1_555
Nb4 Ni2 2.824845 1_556
Nb4 Ni6 3.042388 1_455
Nb4 Ni4 3.086884 1_545
Nb5 Ni7 2.824837 1_555
Nb5 Ni0 2.824846 1_655
Nb5 Ni6 3.042388 1_554
Nb5 Ni3 3.086884 1_545
Nb6 Ni1 2.824837 1_555
Nb6 Ni3 2.824845 1_555
Nb6 Ni5 3.042388 1_665
Nb6 Ni0 3.086884 1_665
Nb7 Ni1 2.792436 1_555
Nb7 Ni6 2.814172 1_555
Nb7 Ni0 3.016641 1_656
Nb7 Ni2 3.016641 1_656
Nb8 Ni3 2.792443 1_555
Nb8 Ni6 2.814168 1_555
Nb8 Ni0 3.016641 1_655
Nb8 Ni7 3.016641 1_655
Nb9 Ni1 2.824837 1_555
Nb9 Ni4 2.824846 1_555
Nb9 Ni5 3.042388 1_566
Nb9 Ni2 3.086884 1_566
Nb10 Ni5 2.489574 1_555
Nb10 Ni6 2.489574 1_454
Nb10 Ni2 2.499496 1_555
Nb10 Ni3 2.499496 1_445
Nb10 Ni0 2.499496 1_555
Nb10 Ni4 2.499496 1_544
Nb11 Ni0 2.792444 1_655
Nb11 Ni5 2.814168 1_565
Nb11 Ni1 3.016641 1_554
Nb11 Ni3 3.016641 1_555
Nb12 Ni0 2.824841 1_655
Nb12 Ni2 2.824841 1_556
Nb12 Ni6 3.042388 1_555
Nb12 Ni1 3.086881 1_545
Nb13 Ni4 2.824841 1_555
Nb13 Ni3 2.824841 1_555
Nb13 Ni5 3.042388 1_565
Nb13 Ni7 3.086881 1_565
Nb14 Ni6 2.489574 1_554
Nb14 Ni5 2.489574 1_555
Nb14 Ni3 2.499490 1_545
Nb14 Ni2 2.499490 1_555
Nb14 Ni7 2.499494 1_555
Nb14 Ni1 2.499494 1_544
Ni0 Ni2 2.559630 1_555
Ni0 Ni7 2.559630 1_555
Ni0 Ni5 2.625125 1_555
Ni1 Ni3 2.559630 1_556
Ni1 Ni4 2.559630 1_655
Ni1 Ni6 2.625129 1_565
Ni2 Ni7 2.559630 1_555
Ni2 Ni5 2.625125 1_555
Ni3 Ni4 2.559630 1_654
Ni3 Ni6 2.625125 1_564
Ni4 Ni6 2.625125 1_465
Ni5 Ni7 2.625129 1_555
Mo0 Ni4 2.456565 1_554
Mo0 Ni0 2.456565 1_555
Mo0 Ni3 2.456565 1_455
Mo0 Ni2 2.456565 1_555
Mo0 Ni7 2.456569 1_555
Mo0 Ni1 2.456569 1_454
Mo0 Nb3 3.001755 1_555
Mo0 Nb7 3.001755 1_454
Mo0 Nb8 3.001761 1_455
Mo0 Nb0 3.001761 1_554
Mo0 Nb2 3.001762 1_554
Mo0 Nb11 3.001762 1_455
N0 Nb5 2.161666 1_555
N0 Nb9 2.161666 1_545
N0 Nb12 2.161667 1_555
N0 Nb13 2.161667 1_545
N0 Nb6 2.161667 1_545
N0 Nb4 2.161667 1_555
N1 Nb11 2.165566 1_555
N1 Nb2 2.165566 1_554
N1 Nb7 2.165571 1_554
N1 Nb3 2.165571 1_555
N1 Nb9 2.167991 1_554
N1 Nb5 2.167991 1_555
N2 Nb0 2.165566 1_555
N2 Nb8 2.165566 1_455
N2 Nb7 2.165571 1_455
N2 Nb3 2.165571 1_555
N2 Nb6 2.167991 1_455
N2 Nb4 2.167991 1_555
N3 Nb2 2.165573 1_555
N3 Nb11 2.165573 1_555
N3 Nb8 2.165573 1_555
N3 Nb0 2.165573 1_555
N3 Nb13 2.167991 1_555
N3 Nb12 2.167991 1_555
