# generated using pymatgen
data_Sc3Al3RhAu2
_symmetry_space_group_name_H-M   'P 1'
_cell_length_a   7.18871300
_cell_length_b   7.18871368
_cell_length_c   7.23136203
_cell_angle_alpha   90.00000000
_cell_angle_beta   90.00000000
_cell_angle_gamma   119.99999262
_symmetry_Int_Tables_number   1
_chemical_formula_structural   Sc3Al3RhAu2
_chemical_formula_sum   'Sc6 Al6 Rh2 Au4'
_cell_volume   323.63322453
_cell_formula_units_Z   2
loop_
 _symmetry_equiv_pos_site_id
 _symmetry_equiv_pos_as_xyz
  1  'x, y, z'
loop_
 _atom_site_type_symbol
 _atom_site_label
 _atom_site_symmetry_multiplicity
 _atom_site_fract_x
 _atom_site_fract_y
 _atom_site_fract_z
 _atom_site_occupancy
  Sc  Sc0  1  0.60060467  0.99794586  0.75000000  1
  Sc  Sc1  1  0.00205414  0.60265881  0.75000000  1
  Sc  Sc2  1  0.39734119  0.39939533  0.75000000  1
  Sc  Sc3  1  0.99794586  0.60060467  0.25000000  1
  Sc  Sc4  1  0.60265881  0.00205414  0.25000000  1
  Sc  Sc5  1  0.39939533  0.39734119  0.25000000  1
  Al  Al0  1  0.74925799  0.74925799  0.00000000  1
  Al  Al1  1  0.25074201  1.00000000  0.00000000  1
  Al  Al2  1  1.00000000  0.25074201  0.00000000  1
  Al  Al3  1  0.74925799  0.74925799  0.50000000  1
  Al  Al4  1  0.25074201  1.00000000  0.50000000  1
  Al  Al5  1  1.00000000  0.25074201  0.50000000  1
  Rh  Rh0  1  0.00000000  0.00000000  0.75000000  1
  Rh  Rh1  1  0.00000000  0.00000000  0.25000000  1
  Au  Au0  1  0.66666700  0.33333300  0.99734864  1
  Au  Au1  1  0.66666700  0.33333300  0.50265136  1
  Au  Au2  1  0.33333300  0.66666700  0.49734864  1
  Au  Au3  1  0.33333300  0.66666700  0.00265136  1
loop_
_geom_bond_atom_site_label_1
_geom_bond_atom_site_label_2
_geom_bond_distance
_geom_bond_site_symmetry_2
Al0 Rh0 2.552908 1_664
Al0 Rh1 2.552908 1_665
Al0 Au3 2.741816 1_555
Al0 Au0 2.741817 1_554
Al0 Sc3 3.084917 1_555
Al0 Sc0 3.084917 1_554
Al0 Sc1 3.097833 1_654
Al0 Sc4 3.097833 1_565
Al0 Sc2 3.103415 1_554
Al0 Sc5 3.103415 1_555
Al1 Rh0 2.552908 1_564
Al1 Rh1 2.552908 1_565
Al1 Au3 2.741809 1_555
Al1 Au0 2.741814 1_564
Al1 Sc5 3.084918 1_565
Al1 Sc1 3.084918 1_554
Al1 Sc2 3.097833 1_564
Al1 Sc3 3.097833 1_455
Al1 Sc0 3.103415 1_554
Al1 Sc4 3.103415 1_565
Al2 Rh0 2.552908 1_654
Al2 Rh1 2.552908 1_655
Al2 Au0 2.741809 1_554
Al2 Au3 2.741814 1_655
Al2 Sc2 3.084917 1_654
Al2 Sc4 3.084918 1_555
Al2 Sc5 3.097833 1_655
Al2 Sc0 3.097833 1_544
Al2 Sc3 3.103415 1_555
Al2 Sc1 3.103415 1_654
Al3 Rh0 2.552908 1_665
Al3 Rh1 2.552908 1_665
Al3 Au2 2.741816 1_555
Al3 Au1 2.741817 1_555
Al3 Sc3 3.084917 1_555
Al3 Sc0 3.084917 1_555
Al3 Sc1 3.097833 1_655
Al3 Sc4 3.097833 1_565
Al3 Sc2 3.103415 1_555
Al3 Sc5 3.103415 1_555
Al4 Rh0 2.552908 1_565
Al4 Rh1 2.552908 1_565
Al4 Au2 2.741809 1_555
Al4 Au1 2.741814 1_565
Al4 Sc5 3.084918 1_565
Al4 Sc1 3.084918 1_555
Al4 Sc2 3.097833 1_565
Al4 Sc3 3.097833 1_455
Al4 Sc0 3.103415 1_555
Al4 Sc4 3.103415 1_565
Al5 Rh0 2.552908 1_655
Al5 Rh1 2.552908 1_655
Al5 Au1 2.741809 1_555
Al5 Au2 2.741814 1_655
Al5 Sc2 3.084917 1_655
Al5 Sc4 3.084918 1_555
Al5 Sc5 3.097833 1_655
Al5 Sc0 3.097833 1_545
Al5 Sc3 3.103415 1_555
Al5 Sc1 3.103415 1_655
Rh0 Sc0 2.863784 1_445
Rh0 Sc1 2.863784 1_545
Rh0 Sc2 2.863784 1_555
Rh1 Sc4 2.863784 1_455
Rh1 Sc3 2.863784 1_445
Rh1 Sc5 2.863784 1_555
Au0 Sc0 2.844785 1_545
Au0 Sc1 2.844787 1_655
Au0 Sc2 2.844791 1_555
Au0 Sc4 2.850491 1_556
Au0 Sc3 2.850493 1_556
Au0 Sc5 2.850496 1_556
Au1 Sc0 2.844785 1_545
Au1 Sc1 2.844787 1_655
Au1 Sc2 2.844791 1_555
Au1 Sc4 2.850491 1_555
Au1 Sc3 2.850493 1_555
Au1 Sc5 2.850496 1_555
Au2 Sc3 2.844785 1_455
Au2 Sc4 2.844787 1_565
Au2 Sc5 2.844791 1_555
Au2 Sc1 2.850491 1_555
Au2 Sc0 2.850493 1_555
Au2 Sc2 2.850496 1_555
Au3 Sc3 2.844785 1_455
Au3 Sc4 2.844787 1_565
Au3 Sc5 2.844791 1_555
Au3 Sc1 2.850491 1_554
Au3 Sc0 2.850493 1_554
Au3 Sc2 2.850496 1_554
