# generated using pymatgen
data_Zr6Al16Co2Ni5
_symmetry_space_group_name_H-M   'P 1'
_cell_length_a   8.48756024
_cell_length_b   8.48756114
_cell_length_c   8.46928409
_cell_angle_alpha   60.07120426
_cell_angle_beta   60.07120080
_cell_angle_gamma   59.76508006
_symmetry_Int_Tables_number   1
_chemical_formula_structural   Zr6Al16Co2Ni5
_chemical_formula_sum   'Zr6 Al16 Co2 Ni5'
_cell_volume   431.10734007
_cell_formula_units_Z   1
loop_
 _symmetry_equiv_pos_site_id
 _symmetry_equiv_pos_as_xyz
  1  'x, y, z'
loop_
 _atom_site_type_symbol
 _atom_site_label
 _atom_site_symmetry_multiplicity
 _atom_site_fract_x
 _atom_site_fract_y
 _atom_site_fract_z
 _atom_site_occupancy
  Zr  Zr0  1  0.69592397  0.69592397  0.30407603  1
  Zr  Zr1  1  0.30964610  0.69035390  0.30869677  1
  Zr  Zr2  1  0.69035390  0.30964610  0.30869677  1
  Zr  Zr3  1  0.30407603  0.30407603  0.69592397  1
  Zr  Zr4  1  0.69035390  0.30964610  0.69130323  1
  Zr  Zr5  1  0.30964610  0.69035390  0.69130323  1
  Al  Al0  1  0.88218235  0.88218235  0.35358646  1
  Al  Al1  1  0.87758292  0.35445962  0.88397823  1
  Al  Al2  1  0.35445962  0.87758292  0.88397823  1
  Al  Al3  1  0.88218235  0.88218235  0.88204785  1
  Al  Al4  1  0.11781765  0.11781765  0.64641354  1
  Al  Al5  1  0.12241708  0.64554038  0.11602177  1
  Al  Al6  1  0.64554038  0.12241708  0.11602177  1
  Al  Al7  1  0.11781765  0.11781765  0.11795215  1
  Al  Al8  1  0.66627372  0.66627372  0.99908423  1
  Al  Al9  1  0.66633321  0.99884601  0.66741089  1
  Al  Al10  1  0.99884601  0.66633321  0.66741089  1
  Al  Al11  1  0.66627372  0.66627372  0.66836833  1
  Al  Al12  1  0.33372628  0.33372628  0.00091577  1
  Al  Al13  1  0.33366679  0.00115399  0.33258911  1
  Al  Al14  1  0.00115399  0.33366679  0.33258911  1
  Al  Al15  1  0.33372628  0.33372628  0.33163167  1
  Co  Co0  1  0.00000000  0.00000000  0.00000000  1
  Co  Co1  1  0.50000000  0.50000000  0.00000000  1
  Ni  Ni0  1  0.00000000  0.00000000  0.50000000  1
  Ni  Ni1  1  0.50000000  0.00000000  0.50000000  1
  Ni  Ni2  1  0.00000000  0.50000000  0.50000000  1
  Ni  Ni3  1  0.00000000  0.50000000  0.00000000  1
  Ni  Ni4  1  0.50000000  0.00000000  0.00000000  1
loop_
_geom_bond_atom_site_label_1
_geom_bond_atom_site_label_2
_geom_bond_distance
_geom_bond_site_symmetry_2
Zr0 Zr5 3.283127 1_555
Zr0 Zr1 3.283127 1_555
Zr0 Zr4 3.283127 1_555
Zr0 Zr2 3.283127 1_555
Zr1 Zr2 3.219800 1_555
Zr1 Zr5 3.240403 1_555
Zr1 Zr3 3.283127 1_555
Zr2 Zr4 3.240403 1_555
Zr2 Zr3 3.283127 1_555
Zr3 Zr4 3.283127 1_555
Zr3 Zr5 3.283127 1_555
Zr4 Zr5 3.219800 1_555
Al0 Co0 2.449186 1_665
Al0 Ni1 2.648904 1_565
Al0 Ni2 2.648905 1_655
Al0 Ni0 2.649396 1_665
Al0 Al9 2.709514 1_555
Al0 Al10 2.709514 1_555
Al0 Al11 2.730544 1_555
Al0 Al7 2.836429 1_665
Al0 Al5 2.837990 1_655
Al0 Al6 2.837990 1_565
Al0 Zr0 3.002336 1_555
Al0 Zr1 3.041537 1_655
Al0 Zr2 3.041537 1_565
Al1 Co0 2.452962 1_656
Al1 Co1 2.616103 1_556
Al1 Ni2 2.663373 1_655
Al1 Ni3 2.663380 1_656
Al1 Al11 2.687142 1_555
Al1 Al8 2.687146 1_555
Al1 Al10 2.728679 1_555
Al1 Al6 2.793182 1_556
Al1 Al4 2.837990 1_655
Al1 Al7 2.838002 1_656
Al1 Zr4 3.024637 1_555
Al1 Zr2 3.024644 1_556
Al1 Zr3 3.031636 1_655
Al2 Co0 2.452961 1_566
Al2 Co1 2.616104 1_556
Al2 Ni1 2.663373 1_565
Al2 Ni4 2.663380 1_566
Al2 Al8 2.687146 1_555
Al2 Al9 2.728679 1_555
Al2 Al5 2.793182 1_556
Al2 Al4 2.837990 1_565
Al2 Al7 2.838002 1_566
Al2 Zr5 3.024637 1_555
Al2 Zr1 3.024644 1_556
Al2 Zr3 3.031637 1_565
Al3 Co0 2.449194 1_666
Al3 Ni4 2.648904 1_566
Al3 Ni3 2.648904 1_656
Al3 Ni0 2.649389 1_665
Al3 Al9 2.709500 1_555
Al3 Al8 2.730541 1_555
Al3 Al4 2.836429 1_665
Al3 Al5 2.838002 1_656
Al3 Al6 2.838002 1_566
Al3 Zr0 3.002341 1_556
Al3 Zr5 3.041535 1_655
Al3 Zr4 3.041536 1_565
Al4 Co0 2.449186 1_556
Al4 Ni1 2.648904 1_555
Al4 Ni2 2.648905 1_555
Al4 Ni0 2.649396 1_555
Al4 Zr3 3.002336 1_555
Al4 Zr4 3.041537 1_455
Al4 Zr5 3.041537 1_545
Al5 Co0 2.452962 1_565
Al5 Co1 2.616103 1_555
Al5 Ni2 2.663373 1_555
Al5 Ni3 2.663380 1_555
Al5 Zr1 3.024637 1_555
Al5 Zr5 3.024644 1_554
Al5 Zr0 3.031636 1_455
Al6 Co0 2.452961 1_655
Al6 Co1 2.616104 1_555
Al6 Ni1 2.663373 1_555
Al6 Ni4 2.663380 1_555
Al6 Zr2 3.024637 1_555
Al6 Zr4 3.024644 1_554
Al6 Zr0 3.031637 1_545
Al7 Co0 2.449194 1_555
Al7 Ni4 2.648904 1_555
Al7 Ni3 2.648904 1_555
Al7 Ni0 2.649389 1_555
Al7 Zr3 3.002341 1_554
Al7 Zr2 3.041535 1_455
Al7 Zr1 3.041536 1_545
Al8 Co1 2.442804 1_556
Al8 Ni3 2.449513 1_656
Al8 Ni4 2.449514 1_566
Al8 Al9 2.818940 1_555
Al8 Zr1 2.841041 1_556
Al8 Zr2 2.841041 1_556
Al8 Zr0 2.856563 1_556
Al9 Ni4 2.443974 1_566
Al9 Ni1 2.443982 1_565
Al9 Ni0 2.457247 1_665
Al9 Zr3 2.843396 1_565
Al9 Zr4 2.855984 1_565
Al9 Zr2 2.855989 1_565
Al10 Ni3 2.443974 1_656
Al10 Ni2 2.443982 1_655
Al10 Ni0 2.457247 1_665
Al10 Al3 2.709500 1_555
Al10 Al9 2.812195 1_555
Al10 Al8 2.818940 1_555
Al10 Al11 2.818944 1_555
Al10 Zr3 2.843397 1_655
Al10 Zr5 2.855984 1_655
Al10 Zr1 2.855989 1_655
Al11 Co1 2.442804 1_556
Al11 Ni2 2.449513 1_655
Al11 Ni1 2.449514 1_565
Al11 Al2 2.687142 1_555
Al11 Al8 2.800927 1_555
Al11 Al9 2.818945 1_555
Al11 Zr5 2.841041 1_555
Al11 Zr4 2.841041 1_555
Al11 Zr0 2.856563 1_555
Al12 Co1 2.442804 1_555
Al12 Ni3 2.449513 1_555
Al12 Ni4 2.449514 1_555
Al12 Al6 2.687146 1_555
Al12 Al5 2.687146 1_555
Al12 Al7 2.730541 1_555
Al12 Al15 2.800927 1_555
Al12 Al14 2.818940 1_555
Al12 Al13 2.818940 1_555
Al12 Zr4 2.841041 1_554
Al12 Zr5 2.841041 1_554
Al12 Zr3 2.856563 1_554
Al13 Ni4 2.443974 1_555
Al13 Ni1 2.443982 1_555
Al13 Ni0 2.457247 1_555
Al13 Al7 2.709500 1_555
Al13 Al4 2.709514 1_555
Al13 Al6 2.728679 1_555
Al13 Al14 2.812195 1_555
Al13 Al15 2.818945 1_555
Al13 Zr0 2.843396 1_545
Al13 Zr1 2.855984 1_545
Al13 Zr5 2.855989 1_545
Al14 Ni3 2.443974 1_555
Al14 Ni2 2.443982 1_555
Al14 Ni0 2.457247 1_555
Al14 Al7 2.709500 1_555
Al14 Al4 2.709514 1_555
Al14 Al5 2.728679 1_555
Al14 Al15 2.818944 1_555
Al14 Zr0 2.843397 1_455
Al14 Zr2 2.855984 1_455
Al14 Zr4 2.855989 1_455
Al15 Co1 2.442804 1_555
Al15 Ni2 2.449513 1_555
Al15 Ni1 2.449514 1_555
Al15 Al6 2.687142 1_555
Al15 Al5 2.687142 1_555
Al15 Al4 2.730544 1_555
Al15 Zr2 2.841041 1_555
Al15 Zr1 2.841041 1_555
Al15 Zr3 2.856563 1_555
Co1 Zr2 3.070355 1_555
Co1 Zr5 3.070355 1_554
Co1 Zr1 3.070355 1_555
Co1 Zr4 3.070355 1_554
Ni0 Zr4 3.079477 1_455
Ni0 Zr1 3.079477 1_545
Ni0 Zr5 3.079477 1_545
Ni0 Zr2 3.079477 1_455
Ni1 Zr3 3.062229 1_555
Ni1 Zr0 3.062229 1_545
Ni1 Zr2 3.091560 1_555
Ni1 Zr5 3.091560 1_545
Ni2 Zr3 3.062229 1_555
Ni2 Zr0 3.062229 1_455
Ni2 Zr1 3.091559 1_555
Ni2 Zr4 3.091559 1_455
Ni3 Zr0 3.062228 1_455
Ni3 Zr3 3.062228 1_554
Ni3 Zr5 3.091559 1_554
Ni3 Zr2 3.091559 1_455
Ni4 Zr0 3.062229 1_545
Ni4 Zr3 3.062229 1_554
Ni4 Zr4 3.091559 1_554
Ni4 Zr1 3.091559 1_545
