# generated using pymatgen
data_RbFeTe3O8
_symmetry_space_group_name_H-M   'P 1'
_cell_length_a   5.58864742
_cell_length_b   7.54445669
_cell_length_c   10.90501795
_cell_angle_alpha   99.58839212
_cell_angle_beta   89.42116665
_cell_angle_gamma   108.84474362
_symmetry_Int_Tables_number   1
_chemical_formula_structural   RbFeTe3O8
_chemical_formula_sum   'Rb2 Fe2 Te6 O16'
_cell_volume   428.59576515
_cell_formula_units_Z   2
loop_
 _symmetry_equiv_pos_site_id
 _symmetry_equiv_pos_as_xyz
  1  'x, y, z'
loop_
 _atom_site_type_symbol
 _atom_site_label
 _atom_site_symmetry_multiplicity
 _atom_site_fract_x
 _atom_site_fract_y
 _atom_site_fract_z
 _atom_site_occupancy
  Rb  Rb0  1  0.83711530  0.11707666  0.16552081  1
  Rb  Rb1  1  0.16288470  0.88292334  0.83447919  1
  Fe  Fe0  1  0.50000000  0.50000000  0.00000000  1
  Fe  Fe1  1  0.00000000  0.50000000  0.50000000  1
  Te  Te0  1  0.22628211  0.98402246  0.41603061  1
  Te  Te1  1  0.77371789  0.01597754  0.58396939  1
  Te  Te2  1  0.05543571  0.66039690  0.14651423  1
  Te  Te3  1  0.94456429  0.33960310  0.85348577  1
  Te  Te4  1  0.51908832  0.53073182  0.33632249  1
  Te  Te5  1  0.48091168  0.46926818  0.66367751  1
  O  O0  1  0.16590525  0.72570282  0.41907561  1
  O  O1  1  0.83409475  0.27429718  0.58092439  1
  O  O2  1  0.23779010  0.91817634  0.22416959  1
  O  O3  1  0.76220990  0.08182366  0.77583041  1
  O  O4  1  0.88525642  0.97343348  0.39486851  1
  O  O5  1  0.11474358  0.02656652  0.60513149  1
  O  O6  1  0.26159714  0.65904119  0.00971092  1
  O  O7  1  0.73840286  0.34095881  0.99028908  1
  O  O8  1  0.80192891  0.72576678  0.07296411  1
  O  O9  1  0.19807109  0.27423322  0.92703589  1
  O  O10  1  0.39957005  0.43198602  0.16961600  1
  O  O11  1  0.60042995  0.56801398  0.83038400  1
  O  O12  1  0.24137445  0.37475903  0.41117936  1
  O  O13  1  0.75862555  0.62524097  0.58882064  1
  O  O14  1  0.73850085  0.39252510  0.35277872  1
  O  O15  1  0.26149915  0.60747490  0.64722128  1
loop_
_geom_bond_atom_site_label_1
_geom_bond_atom_site_label_2
_geom_bond_distance
_geom_bond_site_symmetry_2
Fe0 O9 2.024962 1_554
Fe0 O8 2.024962 1_555
Fe0 O10 2.027004 1_555
Fe0 O11 2.027004 1_554
Fe0 O6 2.052717 1_555
Fe0 O7 2.052717 1_554
Fe1 O0 2.000534 1_555
Fe1 O1 2.000534 1_455
Fe1 O13 2.035376 1_455
Fe1 O12 2.035376 1_555
Fe1 O15 2.054003 1_555
Fe1 O14 2.054003 1_455
O0 Te0 1.873396 1_555
O1 Te1 1.873396 1_555
O2 Te2 1.930387 1_555
O2 Te0 2.073665 1_555
O2 Rb0 3.192859 1_465
O2 Rb0 3.302869 1_565
O3 Te3 1.930387 1_555
O3 Te1 2.073665 1_555
O3 Rb1 3.192859 1_645
O3 Rb1 3.302869 1_545
O4 Te0 1.896411 1_655
O4 Te1 2.151005 1_565
O4 Rb0 2.933752 1_565
O5 Te1 1.896411 1_455
O5 Te0 2.151005 1_545
O5 Rb1 2.933752 1_545
O6 Te2 1.876428 1_555
O6 Rb1 2.916738 1_554
O7 Te3 1.876428 1_555
O7 Rb0 2.916738 1_556
O8 Te2 1.870791 1_655
O8 Rb0 2.899884 1_565
O8 Rb1 3.408047 1_654
O9 Te3 1.870791 1_455
O9 Rb1 2.899884 1_545
O9 Rb0 3.408047 1_456
O10 Te4 1.886251 1_555
O10 Rb0 3.266540 1_455
O11 Te5 1.886251 1_555
O11 Rb1 3.266540 1_655
O12 Te4 1.890631 1_555
O12 Rb0 3.407370 1_455
O13 Te5 1.890631 1_555
O13 Rb1 3.407370 1_655
O14 Te4 1.875042 1_555
O14 Rb0 2.845289 1_555
O15 Te5 1.875042 1_555
O15 Rb1 2.845289 1_555
