# generated using pymatgen
data_Rb6Lu(IrBr6)3
_symmetry_space_group_name_H-M   'P 1'
_cell_length_a   7.47839174
_cell_length_b   7.47839187
_cell_length_c   19.14709560
_cell_angle_alpha   90.00000000
_cell_angle_beta   90.00000000
_cell_angle_gamma   119.99999529
_symmetry_Int_Tables_number   1
_chemical_formula_structural   Rb6Lu(IrBr6)3
_chemical_formula_sum   'Rb6 Lu1 Ir3 Br18'
_cell_volume   927.36347655
_cell_formula_units_Z   1
loop_
 _symmetry_equiv_pos_site_id
 _symmetry_equiv_pos_as_xyz
  1  'x, y, z'
loop_
 _atom_site_type_symbol
 _atom_site_label
 _atom_site_symmetry_multiplicity
 _atom_site_fract_x
 _atom_site_fract_y
 _atom_site_fract_z
 _atom_site_occupancy
  Rb  Rb0  1  0.33333300  0.66666700  0.06380372  1
  Rb  Rb1  1  0.66666700  0.33333300  0.94198982  1
  Rb  Rb2  1  0.66666700  0.33333300  0.56528696  1
  Rb  Rb3  1  0.33333300  0.66666700  0.43913629  1
  Rb  Rb4  1  0.00000000  0.00000000  0.25119858  1
  Rb  Rb5  1  0.00000000  0.00000000  0.74462610  1
  Lu  Lu0  1  0.33333300  0.66666700  0.83770756  1
  Ir  Ir0  1  0.33333300  0.66666700  0.66517662  1
  Ir  Ir1  1  0.66666700  0.33333300  0.33638645  1
  Ir  Ir2  1  0.66666700  0.33333300  0.16521545  1
  Br  Br0  1  0.17598238  0.35196575  0.59145252  1
  Br  Br1  1  0.82469758  0.64939416  0.40901497  1
  Br  Br2  1  0.64803425  0.82401762  0.59145252  1
  Br  Br3  1  0.82479009  0.64958018  0.09259080  1
  Br  Br4  1  0.35060584  0.17530242  0.40901497  1
  Br  Br5  1  0.16301727  0.32603654  0.91230143  1
  Br  Br6  1  0.17598238  0.82401762  0.59145252  1
  Br  Br7  1  0.35041982  0.17520991  0.09259080  1
  Br  Br8  1  0.82469758  0.17530242  0.40901497  1
  Br  Br9  1  0.67396346  0.83698273  0.91230143  1
  Br  Br10  1  0.82479009  0.17520991  0.09259080  1
  Br  Br11  1  0.16301727  0.83698273  0.91230143  1
  Br  Br12  1  0.51575205  0.03150510  0.25064166  1
  Br  Br13  1  0.49561995  0.99123990  0.74048944  1
  Br  Br14  1  0.96849490  0.48424795  0.25064166  1
  Br  Br15  1  0.00876010  0.50438005  0.74048944  1
  Br  Br16  1  0.51575205  0.48424795  0.25064166  1
  Br  Br17  1  0.49561995  0.50438005  0.74048944  1
loop_
_geom_bond_atom_site_label_1
_geom_bond_atom_site_label_2
_geom_bond_distance
_geom_bond_site_symmetry_2
Br0 Ir0 2.479254 1_555
Br0 Rb3 3.558025 1_555
Br0 Rb5 3.714512 1_555
Br0 Rb2 3.774531 1_455
Br0 Rb2 3.774546 1_555
Br1 Ir1 2.474651 1_555
Br1 Rb2 3.625334 1_555
Br1 Rb4 3.779797 1_665
Br1 Rb3 3.785059 1_655
Br1 Rb3 3.785073 1_555
Br2 Ir0 2.479254 1_555
Br2 Rb3 3.558025 1_555
Br2 Rb5 3.714512 1_665
Br2 Rb2 3.774532 1_565
Br2 Rb2 3.774546 1_555
Br3 Ir2 2.475606 1_555
Br3 Rb1 3.536944 1_554
Br3 Rb0 3.781219 1_655
Br3 Rb0 3.781226 1_555
Br3 Rb4 3.791200 1_665
Br4 Ir1 2.474651 1_555
Br4 Rb2 3.625334 1_555
Br4 Rb4 3.779797 1_555
Br4 Rb3 3.785059 1_545
Br4 Rb3 3.785073 1_555
Br5 Lu0 2.628066 1_555
Br5 Rb0 3.644396 1_556
Br5 Rb1 3.782442 1_455
Br5 Rb1 3.782464 1_555
Br5 Rb5 3.842656 1_555
Br6 Ir0 2.479254 1_555
Br6 Rb3 3.558025 1_555
Br6 Rb5 3.714508 1_565
Br6 Rb2 3.774539 1_455
Br6 Rb2 3.774539 1_565
Br7 Ir2 2.475606 1_555
Br7 Rb1 3.536944 1_554
Br7 Rb0 3.781219 1_545
Br7 Rb0 3.781226 1_555
Br7 Rb4 3.791200 1_555
Br8 Ir1 2.474651 1_555
Br8 Rb2 3.625334 1_555
Br8 Rb4 3.779793 1_655
Br8 Rb3 3.785066 1_655
Br8 Rb3 3.785066 1_545
Br9 Lu0 2.628066 1_555
Br9 Rb0 3.644396 1_556
Br9 Rb1 3.782442 1_565
Br9 Rb1 3.782464 1_555
Br9 Rb5 3.842656 1_665
Br10 Ir2 2.475600 1_555
Br10 Rb1 3.536941 1_554
Br10 Rb0 3.781222 1_655
Br10 Rb0 3.781222 1_545
Br10 Rb4 3.791200 1_655
Br11 Lu0 2.628071 1_555
Br11 Rb0 3.644400 1_556
Br11 Rb1 3.782453 1_565
Br11 Rb1 3.782453 1_455
Br11 Rb5 3.842649 1_565
Br12 Ir2 2.548836 1_555
Br12 Ir1 2.552755 1_555
Br12 Rb4 3.744770 1_555
Br12 Rb4 3.744778 1_655
Br13 Ir0 2.549158 1_555
Br13 Lu0 2.807803 1_555
Br13 Rb5 3.740465 1_565
Br13 Rb5 3.740465 1_665
Br13 Rb2 4.020219 1_565
Br14 Ir2 2.548836 1_555
Br14 Ir1 2.552755 1_555
Br14 Rb4 3.744770 1_665
Br14 Rb4 3.744778 1_655
Br15 Ir0 2.549158 1_555
Br15 Lu0 2.807803 1_555
Br15 Rb5 3.740465 1_565
Br15 Rb5 3.740465 1_555
Br15 Rb2 4.020219 1_455
Br16 Ir2 2.548846 1_555
Br16 Ir1 2.552765 1_555
Br16 Rb4 3.744774 1_555
Br16 Rb4 3.744774 1_665
Br17 Ir0 2.549163 1_555
Br17 Lu0 2.807807 1_555
Br17 Rb5 3.740465 1_665
Br17 Rb5 3.740465 1_555
Br17 Rb2 4.020223 1_555
