# generated using pymatgen
data_Hf6Ti2Mn3Os
_symmetry_space_group_name_H-M   'P 1'
_cell_length_a   8.49079613
_cell_length_b   8.48614351
_cell_length_c   8.48614309
_cell_angle_alpha   60.05401468
_cell_angle_beta   59.98186278
_cell_angle_gamma   59.98186705
_symmetry_Int_Tables_number   1
_chemical_formula_structural   Hf6Ti2Mn3Os
_chemical_formula_sum   'Hf12 Ti4 Mn6 Os2'
_cell_volume   432.42611466
_cell_formula_units_Z   2
loop_
 _symmetry_equiv_pos_site_id
 _symmetry_equiv_pos_as_xyz
  1  'x, y, z'
loop_
 _atom_site_type_symbol
 _atom_site_label
 _atom_site_symmetry_multiplicity
 _atom_site_fract_x
 _atom_site_fract_y
 _atom_site_fract_z
 _atom_site_occupancy
  Hf  Hf0  1  0.43070937  0.81929063  0.81929063  1
  Hf  Hf1  1  0.81694000  0.43306000  0.43306000  1
  Hf  Hf2  1  0.81725759  0.43336417  0.81839674  1
  Hf  Hf3  1  0.43098050  0.81839674  0.43336417  1
  Hf  Hf4  1  0.81725759  0.81839674  0.43336417  1
  Hf  Hf5  1  0.43098050  0.43336417  0.81839674  1
  Hf  Hf6  1  0.56625055  0.18374945  0.18374945  1
  Hf  Hf7  1  0.18309306  0.56690694  0.56690694  1
  Hf  Hf8  1  0.18298154  0.56690150  0.18284889  1
  Hf  Hf9  1  0.56726808  0.18284889  0.56690150  1
  Hf  Hf10  1  0.18298154  0.18284889  0.56690150  1
  Hf  Hf11  1  0.56726808  0.56690150  0.18284889  1
  Ti  Ti0  1  0.99872659  0.99763502  0.50491280  1
  Ti  Ti1  1  0.99872659  0.50491280  0.99763502  1
  Ti  Ti2  1  0.50759476  0.99726494  0.99726494  1
  Ti  Ti3  1  0.99787435  0.99726494  0.99726494  1
  Mn  Mn0  1  0.87534582  0.20815931  0.20815931  1
  Mn  Mn1  1  0.20833555  0.20815931  0.20815931  1
  Mn  Mn2  1  0.79111985  0.79025686  0.12750445  1
  Mn  Mn3  1  0.79111985  0.12750445  0.79025686  1
  Mn  Mn4  1  0.12798061  0.79026089  0.79026089  1
  Mn  Mn5  1  0.79149861  0.79026089  0.79026089  1
  Os  Os0  1  0.20885401  0.21039725  0.87189372  1
  Os  Os1  1  0.20885401  0.87189372  0.21039725  1
loop_
_geom_bond_atom_site_label_1
_geom_bond_atom_site_label_2
_geom_bond_distance
_geom_bond_site_symmetry_2
Hf0 Mn4 2.838327 1_555
Hf0 Mn5 2.838336 1_555
Hf0 Os1 3.024185 1_556
Hf0 Os0 3.024185 1_565
Hf0 Ti2 3.039508 1_555
Hf0 Ti3 3.039514 1_455
Hf0 Hf8 3.153982 1_556
Hf0 Hf11 3.153982 1_556
Hf0 Hf9 3.153982 1_565
Hf0 Hf10 3.153982 1_565
Hf0 Hf4 3.277664 1_555
Hf0 Hf2 3.277664 1_555
Hf0 Hf3 3.277668 1_555
Hf0 Hf5 3.277668 1_555
Hf1 Mn3 2.831387 1_555
Hf1 Mn2 2.831387 1_555
Hf1 Mn0 3.045255 1_555
Hf1 Mn1 3.045255 1_655
Hf1 Ti1 3.064895 1_554
Hf1 Ti0 3.064895 1_545
Hf1 Hf9 3.159032 1_555
Hf1 Hf8 3.159032 1_655
Hf1 Hf11 3.159032 1_555
Hf1 Hf10 3.159032 1_655
Hf1 Hf2 3.272662 1_555
Hf1 Hf4 3.272663 1_555
Hf1 Hf5 3.272667 1_555
Hf1 Hf3 3.272667 1_555
Hf2 Mn5 2.818730 1_555
Hf2 Mn3 2.844546 1_555
Hf2 Os0 3.033092 1_655
Hf2 Mn0 3.035458 1_556
Hf2 Ti1 3.042918 1_555
Hf2 Ti3 3.064973 1_545
Hf2 Hf7 3.156308 1_655
Hf2 Hf6 3.160816 1_556
Hf2 Hf4 3.270109 1_555
Hf2 Hf5 3.279800 1_555
Hf3 Mn4 2.818723 1_555
Hf3 Mn2 2.844556 1_555
Hf3 Os1 3.033092 1_555
Hf3 Mn1 3.035455 1_565
Hf3 Ti0 3.042904 1_455
Hf3 Ti2 3.064972 1_554
Hf3 Hf7 3.156300 1_555
Hf3 Hf6 3.160821 1_565
Hf3 Hf5 3.270109 1_555
Hf3 Hf4 3.279800 1_555
Hf4 Mn5 2.818730 1_555
Hf4 Mn2 2.844546 1_555
Hf4 Os1 3.033092 1_655
Hf4 Mn0 3.035458 1_565
Hf4 Ti0 3.042918 1_555
Hf4 Ti3 3.064972 1_554
Hf4 Hf9 3.143090 1_565
Hf4 Hf7 3.156308 1_655
Hf4 Hf6 3.160817 1_565
Hf4 Hf8 3.163981 1_655
Hf5 Mn4 2.818723 1_555
Hf5 Mn3 2.844556 1_555
Hf5 Os0 3.033092 1_555
Hf5 Mn1 3.035455 1_556
Hf5 Ti1 3.042904 1_455
Hf5 Ti2 3.064972 1_545
Hf5 Hf8 3.143090 1_556
Hf5 Hf7 3.156301 1_555
Hf5 Hf6 3.160821 1_556
Hf5 Hf9 3.163979 1_555
Hf6 Mn0 2.846816 1_555
Hf6 Mn1 2.846816 1_555
Hf6 Mn3 3.053530 1_554
Hf6 Mn2 3.053530 1_545
Hf6 Ti3 3.055214 1_544
Hf6 Ti2 3.055220 1_544
Hf6 Hf9 3.252001 1_555
Hf6 Hf8 3.252001 1_555
Hf7 Os1 2.826008 1_555
Hf7 Os0 2.826008 1_555
Hf7 Mn5 3.035783 1_455
Hf7 Mn4 3.035787 1_555
Hf7 Ti1 3.044178 1_455
Hf7 Ti0 3.044179 1_455
Hf7 Hf8 3.259668 1_555
Hf7 Hf9 3.259669 1_555
Hf8 Os1 2.833034 1_555
Hf8 Mn1 2.845731 1_555
Hf8 Mn2 3.041121 1_455
Hf8 Mn4 3.045758 1_554
Hf8 Ti3 3.046255 1_454
Hf8 Ti1 3.050229 1_454
Hf9 Os0 2.833039 1_555
Hf9 Mn0 2.845731 1_555
Hf9 Mn3 3.041128 1_555
Hf9 Mn5 3.045762 1_545
Hf9 Ti2 3.046253 1_545
Hf9 Ti0 3.050237 1_545
Hf10 Os0 2.833034 1_555
Hf10 Mn1 2.845731 1_555
Hf10 Mn3 3.041120 1_455
Hf10 Mn4 3.045759 1_545
Hf10 Ti3 3.046255 1_445
Hf10 Ti0 3.050229 1_445
Hf10 Hf3 3.143090 1_545
Hf10 Hf2 3.163981 1_455
Hf10 Hf6 3.252001 1_555
Hf10 Hf7 3.259669 1_555
Hf10 Hf8 3.261786 1_555
Hf10 Hf9 3.262899 1_555
Hf11 Os1 2.833039 1_555
Hf11 Mn0 2.845731 1_555
Hf11 Mn2 3.041128 1_555
Hf11 Mn5 3.045762 1_554
Hf11 Ti2 3.046254 1_554
Hf11 Ti1 3.050237 1_554
Hf11 Hf2 3.143090 1_554
Hf11 Hf3 3.163979 1_555
Hf11 Hf6 3.252001 1_555
Hf11 Hf7 3.259669 1_555
Hf11 Hf9 3.261786 1_555
Hf11 Hf8 3.262899 1_555
Mn0 Ti1 2.627987 1_554
Mn0 Ti0 2.627987 1_545
Mn0 Ti3 2.638202 1_544
Mn0 Mn1 2.827348 1_655
Mn0 Os0 2.841969 1_654
Mn0 Os1 2.841969 1_645
Mn1 Ti0 2.627982 1_445
Mn1 Ti1 2.627982 1_454
Mn1 Ti2 2.638199 1_544
Mn1 Os0 2.841973 1_554
Mn1 Os1 2.841973 1_545
Mn2 Ti3 2.568121 1_554
Mn2 Ti2 2.568135 1_554
Mn2 Ti1 2.575882 1_554
Mn2 Mn5 2.860273 1_554
Mn2 Mn4 2.860273 1_654
Mn2 Mn3 2.864268 1_564
Mn3 Ti3 2.568121 1_545
Mn3 Ti2 2.568135 1_545
Mn3 Ti0 2.575882 1_545
Mn3 Mn5 2.860273 1_545
Mn3 Mn4 2.860273 1_645
Mn4 Ti3 2.567029 1_455
Mn4 Ti1 2.576279 1_455
Mn4 Ti0 2.576279 1_455
Mn4 Mn5 2.857000 1_455
Mn5 Ti2 2.567033 1_555
Mn5 Ti0 2.576279 1_555
Mn5 Ti1 2.576280 1_555
Os0 Ti1 2.620009 1_455
Os0 Ti3 2.650662 1_445
Os0 Ti2 2.650663 1_545
Os1 Ti0 2.620009 1_455
Os1 Ti2 2.650662 1_554
Os1 Ti3 2.650662 1_454
