# generated using pymatgen
data_Zr8Sc14Os5Ru3
_symmetry_space_group_name_H-M   'P 1'
_cell_length_a   9.47506396
_cell_length_b   9.47506409
_cell_length_c   9.48869981
_cell_angle_alpha   59.95238645
_cell_angle_beta   59.95238601
_cell_angle_gamma   59.97672249
_symmetry_Int_Tables_number   1
_chemical_formula_structural   Zr8Sc14Os5Ru3
_chemical_formula_sum   'Zr8 Sc14 Os5 Ru3'
_cell_volume   601.82016798
_cell_formula_units_Z   1
loop_
 _symmetry_equiv_pos_site_id
 _symmetry_equiv_pos_as_xyz
  1  'x, y, z'
loop_
 _atom_site_type_symbol
 _atom_site_label
 _atom_site_symmetry_multiplicity
 _atom_site_fract_x
 _atom_site_fract_y
 _atom_site_fract_z
 _atom_site_occupancy
  Zr  Zr0  1  0.84299750  0.84299750  0.84247645  1
  Zr  Zr1  1  0.52829552  0.15710993  0.15729678  1
  Zr  Zr2  1  0.15700250  0.15700250  0.52847144  1
  Zr  Zr3  1  0.15710993  0.52829552  0.15729678  1
  Zr  Zr4  1  0.84299750  0.84299750  0.47152856  1
  Zr  Zr5  1  0.84289007  0.47170448  0.84270322  1
  Zr  Zr6  1  0.47170448  0.84289007  0.84270322  1
  Zr  Zr7  1  0.15700250  0.15700250  0.15752355  1
  Sc  Sc0  1  0.19822340  0.80177660  0.19630215  1
  Sc  Sc1  1  0.19822340  0.80177660  0.80369785  1
  Sc  Sc2  1  0.80177660  0.19822340  0.19630215  1
  Sc  Sc3  1  0.80232280  0.80232280  0.19767720  1
  Sc  Sc4  1  0.19767720  0.19767720  0.80232280  1
  Sc  Sc5  1  0.80177660  0.19822340  0.80369785  1
  Sc  Sc6  1  0.38315106  0.38315106  0.38385305  1
  Sc  Sc7  1  0.15035491  0.61546744  0.61708933  1
  Sc  Sc8  1  0.61546744  0.15035491  0.61708933  1
  Sc  Sc9  1  0.61684894  0.61684894  0.15015818  1
  Sc  Sc10  1  0.38453256  0.84964509  0.38291067  1
  Sc  Sc11  1  0.38315106  0.38315106  0.84984182  1
  Sc  Sc12  1  0.84964509  0.38453256  0.38291067  1
  Sc  Sc13  1  0.61684894  0.61684894  0.61614695  1
  Os  Os0  1  0.50000000  0.50000000  0.00000000  1
  Os  Os1  1  0.50000000  0.00000000  0.50000000  1
  Os  Os2  1  0.00000000  0.50000000  0.50000000  1
  Os  Os3  1  0.50000000  0.00000000  0.00000000  1
  Os  Os4  1  0.00000000  0.50000000  0.00000000  1
  Ru  Ru0  1  0.00000000  0.00000000  0.50000000  1
  Ru  Ru1  1  0.50000000  0.50000000  0.50000000  1
  Ru  Ru2  1  0.00000000  0.00000000  0.00000000  1
loop_
_geom_bond_atom_site_label_1
_geom_bond_atom_site_label_2
_geom_bond_distance
_geom_bond_site_symmetry_2
Sc0 Zr6 3.019641 1_554
Sc0 Zr3 3.019647 1_555
Sc0 Zr7 3.033914 1_565
Sc0 Zr4 3.033914 1_455
Sc0 Sc6 3.327027 1_555
Sc0 Sc9 3.327033 1_555
Sc0 Sc10 3.345591 1_555
Sc0 Sc7 3.345599 1_555
Sc1 Zr3 3.019641 1_556
Sc1 Zr6 3.019647 1_555
Sc1 Zr0 3.033914 1_455
Sc1 Zr2 3.033914 1_565
Sc1 Sc13 3.327027 1_555
Sc1 Sc11 3.327033 1_555
Sc1 Sc7 3.345591 1_555
Sc1 Sc10 3.345599 1_555
Sc2 Zr5 3.019641 1_554
Sc2 Zr1 3.019647 1_555
Sc2 Zr7 3.033914 1_655
Sc2 Zr4 3.033914 1_545
Sc2 Sc6 3.327027 1_555
Sc2 Sc9 3.327033 1_555
Sc2 Sc8 3.345599 1_555
Sc3 Zr3 3.026684 1_655
Sc3 Zr1 3.026684 1_565
Sc3 Zr4 3.033750 1_555
Sc3 Zr0 3.033750 1_554
Sc3 Sc9 3.325306 1_555
Sc4 Zr5 3.026684 1_455
Sc4 Zr6 3.026684 1_545
Sc4 Zr2 3.033750 1_555
Sc4 Zr7 3.033750 1_556
Sc4 Sc8 3.317530 1_555
Sc4 Sc7 3.317530 1_555
Sc4 Sc6 3.325325 1_555
Sc5 Zr1 3.019641 1_556
Sc5 Zr5 3.019647 1_555
Sc5 Zr0 3.033914 1_545
Sc5 Zr2 3.033914 1_655
Sc5 Sc8 3.345591 1_555
Sc6 Sc7 3.120853 1_555
Sc6 Sc8 3.120853 1_555
Sc6 Zr2 3.125929 1_555
Sc6 Sc9 3.129792 1_555
Sc6 Zr3 3.130872 1_555
Sc6 Zr1 3.130872 1_555
Sc7 Zr5 3.119403 1_455
Sc7 Zr0 3.130473 1_455
Sc7 Zr4 3.130479 1_455
Sc8 Zr6 3.119403 1_545
Sc8 Zr0 3.130473 1_545
Sc8 Zr4 3.130479 1_545
Sc9 Zr0 3.125936 1_554
Sc9 Zr5 3.130887 1_554
Sc9 Zr6 3.130887 1_554
Sc10 Zr1 3.119403 1_565
Sc10 Sc9 3.120826 1_555
Sc10 Sc13 3.120853 1_555
Sc10 Zr7 3.130473 1_565
Sc10 Zr2 3.130479 1_565
Sc10 Sc7 3.136217 1_555
Sc10 Sc3 3.317530 1_555
Sc11 Sc7 3.120826 1_555
Sc11 Sc8 3.120826 1_555
Sc11 Zr7 3.125936 1_556
Sc11 Sc13 3.129792 1_555
Sc11 Zr3 3.130887 1_556
Sc11 Zr1 3.130887 1_556
Sc11 Sc4 3.325306 1_555
Sc11 Sc5 3.327033 1_555
Sc12 Zr3 3.119403 1_655
Sc12 Sc9 3.120826 1_555
Sc12 Sc13 3.120853 1_555
Sc12 Zr7 3.130473 1_655
Sc12 Zr2 3.130479 1_655
Sc12 Sc8 3.136217 1_555
Sc12 Sc3 3.317530 1_555
Sc12 Sc2 3.345591 1_555
Sc12 Sc5 3.345599 1_555
Sc13 Zr4 3.125929 1_555
Sc13 Zr5 3.130872 1_555
Sc13 Zr6 3.130872 1_555
Sc13 Sc3 3.325325 1_555
Sc13 Sc5 3.327027 1_555
Os0 Zr5 2.743705 1_554
Os0 Zr3 2.743705 1_555
Os0 Zr6 2.743705 1_554
Os0 Zr1 2.743705 1_555
Os0 Sc6 2.977857 1_555
Os0 Sc13 2.977857 1_554
Os0 Sc9 2.977881 1_555
Os0 Sc11 2.977881 1_554
Os1 Zr4 2.744661 1_545
Os1 Zr2 2.744661 1_555
Os1 Zr6 2.746045 1_545
Os1 Zr1 2.746045 1_555
Os1 Sc6 2.968673 1_555
Os1 Sc13 2.968673 1_545
Os1 Sc8 2.970348 1_555
Os1 Sc10 2.970348 1_545
Os2 Zr2 2.744661 1_555
Os2 Zr4 2.744661 1_455
Os2 Zr5 2.746045 1_455
Os2 Zr3 2.746045 1_555
Os2 Sc6 2.968673 1_555
Os2 Sc13 2.968673 1_455
Os2 Sc7 2.970348 1_555
Os2 Sc12 2.970348 1_455
Os3 Zr0 2.744661 1_544
Os3 Zr7 2.744661 1_555
Os3 Zr1 2.746037 1_555
Os3 Zr6 2.746037 1_544
Os3 Sc11 2.968674 1_554
Os3 Sc9 2.968674 1_545
Os3 Sc10 2.970340 1_545
Os3 Sc8 2.970340 1_554
Os4 Zr0 2.744661 1_454
Os4 Zr7 2.744661 1_555
Os4 Zr3 2.746037 1_555
Os4 Zr5 2.746037 1_454
Os4 Sc11 2.968674 1_554
Os4 Sc9 2.968674 1_455
Os4 Sc12 2.970340 1_455
Os4 Sc7 2.970340 1_554
Ru0 Zr2 2.741973 1_555
Ru0 Zr4 2.741973 1_445
Ru0 Zr0 2.741973 1_445
Ru0 Zr7 2.741973 1_555
Ru0 Sc10 2.979235 1_545
Ru0 Sc8 2.979235 1_455
Ru0 Sc12 2.979235 1_455
Ru0 Sc7 2.979235 1_545
Ru1 Sc12 2.703867 1_555
Ru1 Sc7 2.703867 1_555
Ru1 Sc10 2.703867 1_555
Ru1 Sc8 2.703867 1_555
Ru1 Sc11 2.708604 1_555
Ru1 Sc9 2.708604 1_555
Ru1 Sc13 2.708627 1_555
Ru1 Sc6 2.708627 1_555
Ru2 Sc2 2.644721 1_455
Ru2 Sc1 2.644721 1_544
Ru2 Sc0 2.644721 1_545
Ru2 Sc5 2.644721 1_454
Ru2 Sc4 2.647386 1_554
Ru2 Sc3 2.647386 1_445
