# generated using pymatgen
data_Rb4TaInBr12
_symmetry_space_group_name_H-M   'P 1'
_cell_length_a   7.57877845
_cell_length_b   7.57877845
_cell_length_c   10.89985253
_cell_angle_alpha   90.00000000
_cell_angle_beta   90.00000000
_cell_angle_gamma   90.00000000
_symmetry_Int_Tables_number   1
_chemical_formula_structural   Rb4TaInBr12
_chemical_formula_sum   'Rb4 Ta1 In1 Br12'
_cell_volume   626.06445212
_cell_formula_units_Z   1
loop_
 _symmetry_equiv_pos_site_id
 _symmetry_equiv_pos_as_xyz
  1  'x, y, z'
loop_
 _atom_site_type_symbol
 _atom_site_label
 _atom_site_symmetry_multiplicity
 _atom_site_fract_x
 _atom_site_fract_y
 _atom_site_fract_z
 _atom_site_occupancy
  Rb  Rb0  1  0.50000000  0.00000000  0.78400968  1
  Rb  Rb1  1  0.00000000  0.50000000  0.21599032  1
  Rb  Rb2  1  0.50000000  0.00000000  0.21599032  1
  Rb  Rb3  1  0.00000000  0.50000000  0.78400968  1
  Ta  Ta0  1  0.50000000  0.50000000  0.50000000  1
  In  In0  1  0.00000000  0.00000000  0.00000000  1
  Br  Br0  1  0.00000000  0.00000000  0.75166830  1
  Br  Br1  1  0.50000000  0.50000000  0.26745496  1
  Br  Br2  1  0.73526411  0.73526411  0.50000000  1
  Br  Br3  1  0.25015424  0.25015424  0.00000000  1
  Br  Br4  1  0.73526411  0.26473589  0.50000000  1
  Br  Br5  1  0.25015424  0.74984576  0.00000000  1
  Br  Br6  1  0.00000000  0.00000000  0.24833170  1
  Br  Br7  1  0.50000000  0.50000000  0.73254504  1
  Br  Br8  1  0.26473589  0.26473589  0.50000000  1
  Br  Br9  1  0.74984576  0.74984576  0.00000000  1
  Br  Br10  1  0.26473589  0.73526411  0.50000000  1
  Br  Br11  1  0.74984576  0.25015424  0.00000000  1
loop_
_geom_bond_atom_site_label_1
_geom_bond_atom_site_label_2
_geom_bond_distance
_geom_bond_site_symmetry_2
Br0 In0 2.706779 1_556
Br0 Rb0 3.805751 1_455
Br0 Rb0 3.805751 1_555
Br0 Rb3 3.805751 1_545
Br0 Rb3 3.805751 1_555
Br1 Ta0 2.534707 1_555
Br1 Rb2 3.830684 1_555
Br1 Rb2 3.830684 1_565
Br1 Rb1 3.830684 1_555
Br1 Rb1 3.830684 1_655
Br2 Ta0 2.521563 1_555
Br2 Rb0 4.097293 1_565
Br2 Rb3 4.097293 1_655
Br2 Rb2 4.097293 1_565
Br2 Rb1 4.097293 1_655
Br3 In0 2.681156 1_555
Br3 Rb1 3.566832 1_555
Br3 Rb2 3.566832 1_555
Br3 Rb0 3.566832 1_554
Br3 Rb3 3.566832 1_554
Br4 Ta0 2.521563 1_555
Br4 Rb0 4.097293 1_555
Br4 Rb3 4.097293 1_655
Br4 Rb2 4.097293 1_555
Br4 Rb1 4.097293 1_655
Br5 In0 2.681156 1_565
Br5 Rb1 3.566832 1_555
Br5 Rb3 3.566832 1_554
Br5 Rb2 3.566832 1_565
Br5 Rb0 3.566832 1_564
Br6 In0 2.706779 1_555
Br6 Rb1 3.805751 1_555
Br6 Rb2 3.805751 1_555
Br6 Rb2 3.805751 1_455
Br6 Rb1 3.805751 1_545
Br7 Ta0 2.534707 1_555
Br7 Rb0 3.830684 1_555
Br7 Rb0 3.830684 1_565
Br7 Rb3 3.830684 1_655
Br7 Rb3 3.830684 1_555
Br8 Ta0 2.521563 1_555
Br8 Rb3 4.097293 1_555
Br8 Rb0 4.097293 1_555
Br8 Rb1 4.097293 1_555
Br8 Rb2 4.097293 1_555
Br9 In0 2.681156 1_665
Br9 Rb2 3.566832 1_565
Br9 Rb1 3.566832 1_655
Br9 Rb0 3.566832 1_564
Br9 Rb3 3.566832 1_654
Br10 Ta0 2.521563 1_555
Br10 Rb3 4.097293 1_555
Br10 Rb0 4.097293 1_565
Br10 Rb1 4.097293 1_555
Br10 Rb2 4.097293 1_565
Br11 In0 2.681156 1_655
Br11 Rb2 3.566832 1_555
Br11 Rb0 3.566832 1_554
Br11 Rb1 3.566832 1_655
Br11 Rb3 3.566832 1_654
