# generated using pymatgen
data_Y2Tc2C3
_symmetry_space_group_name_H-M   'P 1'
_cell_length_a   5.69933070
_cell_length_b   5.69933007
_cell_length_c   5.65944549
_cell_angle_alpha   75.12161217
_cell_angle_beta   75.12161269
_cell_angle_gamma   34.81844194
_symmetry_Int_Tables_number   1
_chemical_formula_structural   Y2Tc2C3
_chemical_formula_sum   'Y2 Tc2 C3'
_cell_volume   101.09236344
_cell_formula_units_Z   1
loop_
 _symmetry_equiv_pos_site_id
 _symmetry_equiv_pos_as_xyz
  1  'x, y, z'
loop_
 _atom_site_type_symbol
 _atom_site_label
 _atom_site_symmetry_multiplicity
 _atom_site_fract_x
 _atom_site_fract_y
 _atom_site_fract_z
 _atom_site_occupancy
  Y  Y0  1  0.38993998  0.38993998  0.32591096  1
  Y  Y1  1  0.61006002  0.61006002  0.67408904  1
  Tc  Tc0  1  0.15419656  0.15419656  0.11476895  1
  Tc  Tc1  1  0.84580344  0.84580344  0.88523105  1
  C  C0  1  0.72091079  0.72091079  0.23956759  1
  C  C1  1  0.27908921  0.27908921  0.76043241  1
  C  C2  1  0.00000000  0.00000000  0.00000000  1
loop_
_geom_bond_atom_site_label_1
_geom_bond_atom_site_label_2
_geom_bond_distance
_geom_bond_site_symmetry_2
C0 Tc0 2.051566 1_655
C0 Tc0 2.051566 1_565
C0 Tc1 2.097761 1_554
C0 Y1 2.430097 1_555
C0 Y0 2.647622 1_565
C0 Y0 2.647622 1_655
C1 Tc1 2.051566 1_455
C1 Tc1 2.051566 1_545
C1 Tc0 2.097761 1_556
C1 Y0 2.430097 1_555
C1 Y1 2.647622 1_545
C1 Y1 2.647622 1_455
C2 Tc0 1.954710 1_555
C2 Tc1 1.954710 1_444
C2 Y0 2.560174 1_545
C2 Y1 2.560174 1_454
C2 Y0 2.560174 1_455
C2 Y1 2.560174 1_544
