# generated using pymatgen
data_CsSb(PS3)2
_symmetry_space_group_name_H-M   'P 1'
_cell_length_a   7.79958084
_cell_length_b   7.01898316
_cell_length_c   10.30362784
_cell_angle_alpha   86.65804587
_cell_angle_beta   90.00000000
_cell_angle_gamma   90.00000000
_symmetry_Int_Tables_number   1
_chemical_formula_structural   CsSb(PS3)2
_chemical_formula_sum   'Cs2 Sb2 P4 S12'
_cell_volume   563.11414577
_cell_formula_units_Z   2
loop_
 _symmetry_equiv_pos_site_id
 _symmetry_equiv_pos_as_xyz
  1  'x, y, z'
loop_
 _atom_site_type_symbol
 _atom_site_label
 _atom_site_symmetry_multiplicity
 _atom_site_fract_x
 _atom_site_fract_y
 _atom_site_fract_z
 _atom_site_occupancy
  Cs  Cs0  1  0.46655749  0.72085418  0.49380412  1
  Cs  Cs1  1  0.96655749  0.27914582  0.50619588  1
  Sb  Sb0  1  0.73704126  0.80659912  0.01561764  1
  Sb  Sb1  1  0.23704126  0.19340088  0.98438236  1
  P  P0  1  0.92791539  0.77485719  0.28510916  1
  P  P1  1  0.65285424  0.29934862  0.83825630  1
  P  P2  1  0.15285424  0.70065138  0.16174370  1
  P  P3  1  0.42791539  0.22514281  0.71489084  1
  S  S0  1  0.34531475  0.97559793  0.81075663  1
  S  S1  1  0.04129839  0.69159961  0.97917315  1
  S  S2  1  0.25394243  0.42533090  0.75796624  1
  S  S3  1  0.54129839  0.30840039  0.02082685  1
  S  S4  1  0.83197059  0.08747367  0.83409163  1
  S  S5  1  0.33197059  0.91252633  0.16590837  1
  S  S6  1  0.75394243  0.57466910  0.24203376  1
  S  S7  1  0.84531475  0.02440207  0.18924337  1
  S  S8  1  0.49382388  0.21081943  0.53221719  1
  S  S9  1  0.74243359  0.54980561  0.76976471  1
  S  S10  1  0.99382388  0.78918057  0.46778281  1
  S  S11  1  0.24243359  0.45019439  0.23023529  1
loop_
_geom_bond_atom_site_label_1
_geom_bond_atom_site_label_2
_geom_bond_distance
_geom_bond_site_symmetry_2
Cs0 S8 3.491088 1_565
Cs0 S8 3.585045 1_555
Cs0 S6 3.621741 1_555
Cs0 S9 3.709203 1_555
Cs0 S5 3.714337 1_555
Cs0 S2 3.715198 1_555
Cs0 S10 3.725826 1_455
Cs0 S11 3.826415 1_555
Cs0 S0 3.929037 1_555
Cs0 S10 4.147191 1_555
Cs1 S10 3.491088 1_545
Cs1 S10 3.585045 1_555
Cs1 S2 3.621741 1_655
Cs1 S11 3.709203 1_655
Cs1 S4 3.714337 1_555
Cs1 S6 3.715198 1_555
Cs1 S8 3.725826 1_555
Cs1 S9 3.826415 1_555
Cs1 S7 3.929037 1_555
Cs1 S8 4.147191 1_655
P0 S10 1.959364 1_555
P0 S6 2.021206 1_555
P0 S7 2.063239 1_565
P0 P2 2.245489 1_655
P1 S9 1.982913 1_555
P1 S4 2.042691 1_555
P1 S3 2.076947 1_556
P1 P3 2.245489 1_555
P2 S11 1.982913 1_555
P2 S5 2.042691 1_555
P2 S1 2.076947 1_554
P3 S8 1.959364 1_555
P3 S2 2.021206 1_555
P3 S0 2.063239 1_545
S0 Sb1 2.563113 1_565
S1 Sb0 2.541532 1_456
S2 Sb1 2.768962 1_555
S3 Sb1 2.541532 1_554
S4 Sb0 2.739203 1_546
S5 Sb1 2.739203 1_564
S6 Sb0 2.768962 1_555
S7 Sb0 2.563113 1_545
