# generated using pymatgen
data_RbBa(B2Pt3)3
_symmetry_space_group_name_H-M   'P 1'
_cell_length_a   8.16894620
_cell_length_b   8.16894638
_cell_length_c   8.16896474
_cell_angle_alpha   82.81113394
_cell_angle_beta   82.81113468
_cell_angle_gamma   82.81157512
_symmetry_Int_Tables_number   1
_chemical_formula_structural   RbBa(B2Pt3)3
_chemical_formula_sum   'Rb2 Ba2 B12 Pt18'
_cell_volume   533.26320662
_cell_formula_units_Z   2
loop_
 _symmetry_equiv_pos_site_id
 _symmetry_equiv_pos_as_xyz
  1  'x, y, z'
loop_
 _atom_site_type_symbol
 _atom_site_label
 _atom_site_symmetry_multiplicity
 _atom_site_fract_x
 _atom_site_fract_y
 _atom_site_fract_z
 _atom_site_occupancy
  Rb  Rb0  1  0.63643366  0.63643458  0.63645148  1
  Rb  Rb1  1  0.86356542  0.86356634  0.86354852  1
  Ba  Ba0  1  0.37547188  0.37546935  0.37548865  1
  Ba  Ba1  1  0.12453065  0.12452812  0.12451135  1
  B  B0  1  0.54200622  0.18921879  0.84217523  1
  B  B1  1  0.84217898  0.54200640  0.18921109  1
  B  B2  1  0.18921183  0.84217995  0.54202102  1
  B  B3  1  0.95799360  0.65782102  0.31078891  1
  B  B4  1  0.46289004  0.80971754  0.15203118  1
  B  B5  1  0.15204438  0.46288950  0.80971625  1
  B  B6  1  0.80971720  0.15204247  0.46290155  1
  B  B7  1  0.03711050  0.34795562  0.69028375  1
  B  B8  1  0.69028246  0.03710996  0.34796882  1
  B  B9  1  0.34795753  0.69028280  0.03709845  1
  B  B10  1  0.31078121  0.95799378  0.65782477  1
  B  B11  1  0.65782005  0.31078817  0.95797898  1
  Pt  Pt0  1  0.41541583  0.93414226  0.39966705  1
  Pt  Pt1  1  0.08458005  0.10034954  0.56587092  1
  Pt  Pt2  1  0.93415843  0.39964534  0.41542228  1
  Pt  Pt3  1  0.56585774  0.08458417  0.10033295  1
  Pt  Pt4  1  0.60201845  0.57647295  0.07385411  1
  Pt  Pt5  1  0.57646477  0.07387421  0.60202890  1
  Pt  Pt6  1  0.07386573  0.60201447  0.57648028  1
  Pt  Pt7  1  0.92352705  0.89798155  0.42614589  1
  Pt  Pt8  1  0.89798553  0.42613427  0.92351972  1
  Pt  Pt9  1  0.42612579  0.92353523  0.89797110  1
  Pt  Pt10  1  0.75000538  0.27851210  0.22149237  1
  Pt  Pt11  1  0.22148790  0.74999462  0.27850763  1
  Pt  Pt12  1  0.27850663  0.22149337  0.75000000  1
  Pt  Pt13  1  0.24999270  0.71443360  0.78556616  1
  Pt  Pt14  1  0.78556640  0.25000730  0.71443384  1
  Pt  Pt15  1  0.71444087  0.78555913  0.25000000  1
  Pt  Pt16  1  0.10035466  0.56584157  0.08457772  1
  Pt  Pt17  1  0.39965046  0.41541995  0.93412908  1
loop_
_geom_bond_atom_site_label_1
_geom_bond_atom_site_label_2
_geom_bond_distance
_geom_bond_site_symmetry_2
Rb0 Rb1 3.593235 1_555
Ba0 Pt12 3.201406 1_555
Ba0 Pt11 3.201555 1_555
Ba0 Pt10 3.201607 1_555
Ba0 Pt5 3.285945 1_555
Ba0 Pt6 3.286018 1_555
Ba0 Pt4 3.286198 1_555
Ba0 Pt1 3.557136 1_555
Ba0 Pt16 3.557229 1_555
Ba0 Pt3 3.557322 1_555
Ba0 Pt2 3.561674 1_455
Ba0 Pt0 3.561783 1_545
Ba0 Pt17 3.562050 1_554
Ba0 Rb0 4.128662 1_555
Ba1 Pt12 3.201406 1_554
Ba1 Pt10 3.201555 1_455
Ba1 Pt11 3.201607 1_545
Ba1 Pt9 3.285945 1_544
Ba1 Pt8 3.286018 1_454
Ba1 Pt7 3.286198 1_445
Ba1 Pt17 3.557136 1_554
Ba1 Pt2 3.557229 1_455
Ba1 Pt0 3.557322 1_545
Ba1 Pt16 3.561674 1_555
Ba1 Pt3 3.561782 1_555
Ba1 Pt1 3.562050 1_555
Ba1 Rb1 4.128662 1_444
B0 B11 1.862920 1_555
B0 Pt3 2.196807 1_556
B0 Pt14 2.211804 1_555
B0 Pt17 2.218565 1_555
B0 Pt5 2.252455 1_555
B0 Pt12 2.341739 1_555
B0 Pt9 2.443947 1_545
B0 Rb1 3.501018 1_545
B1 B3 1.863026 1_555
B1 Pt16 2.196912 1_655
B1 Pt15 2.211753 1_555
B1 Pt2 2.218725 1_555
B1 Pt4 2.252608 1_555
B1 Pt10 2.341682 1_555
B1 Pt8 2.443988 1_554
B1 Rb1 3.501070 1_554
B2 Pt1 2.196889 1_565
B2 Pt13 2.211702 1_555
B2 Pt0 2.218592 1_555
B2 Pt6 2.252592 1_555
B2 Pt11 2.341882 1_555
B2 Pt7 2.443947 1_455
B2 Rb1 3.500809 1_455
B3 Pt2 2.196912 1_555
B3 Pt15 2.211753 1_555
B3 Pt16 2.218725 1_655
B3 Pt7 2.252608 1_555
B3 Pt11 2.341682 1_655
B3 Pt6 2.443988 1_655
B3 Rb0 3.501070 1_555
B4 B9 1.842289 1_555
B4 Pt11 2.190653 1_555
B4 Pt9 2.205708 1_554
B4 Pt4 2.216053 1_555
B4 Pt15 2.274345 1_555
B4 Pt0 2.344218 1_555
B4 Pt3 2.464546 1_565
B5 B7 1.842290 1_555
B5 Pt12 2.190567 1_555
B5 Pt8 2.205644 1_455
B5 Pt6 2.215986 1_555
B5 Pt13 2.274215 1_555
B5 Pt17 2.343948 1_555
B5 Pt16 2.464462 1_556
B6 B8 1.842289 1_555
B6 Pt10 2.190668 1_555
B6 Pt7 2.205683 1_545
B6 Pt5 2.216068 1_555
B6 Pt14 2.274196 1_555
B6 Pt2 2.344035 1_555
B6 Pt1 2.464532 1_655
B7 Pt12 2.190567 1_555
B7 Pt6 2.205644 1_555
B7 Pt8 2.215986 1_455
B7 Pt14 2.274215 1_455
B7 Pt1 2.343948 1_555
B7 Pt2 2.464462 1_455
B8 Pt10 2.190653 1_555
B8 Pt5 2.205708 1_555
B8 Pt7 2.216053 1_545
B8 Pt15 2.274345 1_545
B8 Pt3 2.344218 1_555
B8 Pt0 2.464546 1_545
B9 Pt11 2.190668 1_555
B9 Pt4 2.205683 1_555
B9 Pt9 2.216068 1_554
B9 Pt13 2.274196 1_554
B9 Pt16 2.344035 1_555
B9 Pt17 2.464532 1_554
B10 B2 1.862920 1_555
B10 Pt0 2.196807 1_555
B10 Pt13 2.211804 1_555
B10 Pt1 2.218565 1_565
B10 Pt9 2.252455 1_555
B10 Pt12 2.341739 1_565
B10 Pt5 2.443947 1_565
B10 Rb0 3.501018 1_555
B11 Pt17 2.196889 1_555
B11 Pt14 2.211702 1_555
B11 Pt3 2.218592 1_556
B11 Pt8 2.252592 1_555
B11 Pt10 2.341882 1_556
B11 Pt4 2.443947 1_556
B11 Rb0 3.500809 1_555
Pt0 Rb0 3.393151 1_555
Pt1 Rb1 3.392973 1_445
Pt2 Rb0 3.393302 1_555
Pt3 Rb1 3.393151 1_544
Pt4 Rb1 3.513332 1_554
Pt4 Rb0 3.525791 1_554
Pt5 Rb1 3.513259 1_545
Pt5 Rb0 3.526085 1_545
Pt6 Rb1 3.513224 1_455
Pt6 Rb0 3.526023 1_455
Pt7 Rb0 3.513332 1_555
Pt7 Rb1 3.525791 1_555
Pt8 Rb0 3.513224 1_555
Pt8 Rb1 3.526024 1_555
Pt9 Rb0 3.513259 1_555
Pt9 Rb1 3.526085 1_555
Pt13 Rb1 3.253189 1_455
Pt13 Rb0 3.253262 1_555
Pt14 Rb0 3.253189 1_555
Pt14 Rb1 3.253262 1_545
Pt15 Rb0 3.253368 1_555
Pt15 Rb1 3.253368 1_554
Pt16 Rb1 3.393302 1_454
Pt17 Rb0 3.392973 1_555
