# generated using pymatgen
data_Lu12InCuTc3
_symmetry_space_group_name_H-M   'P 1'
_cell_length_a   8.13456512
_cell_length_b   8.13456405
_cell_length_c   8.13456499
_cell_angle_alpha   106.99274200
_cell_angle_beta   113.08583404
_cell_angle_gamma   108.39943741
_symmetry_Int_Tables_number   1
_chemical_formula_structural   Lu12InCuTc3
_chemical_formula_sum   'Lu12 In1 Cu1 Tc3'
_cell_volume   413.05960997
_cell_formula_units_Z   1
loop_
 _symmetry_equiv_pos_site_id
 _symmetry_equiv_pos_as_xyz
  1  'x, y, z'
loop_
 _atom_site_type_symbol
 _atom_site_label
 _atom_site_symmetry_multiplicity
 _atom_site_fract_x
 _atom_site_fract_y
 _atom_site_fract_z
 _atom_site_occupancy
  Lu  Lu0  1  0.31736316  0.32135410  0.63871826  1
  Lu  Lu1  1  0.68263684  0.67864590  0.36128174  1
  Lu  Lu2  1  0.68263684  0.32135410  0.00398993  1
  Lu  Lu3  1  0.31736316  0.67864590  0.99601007  1
  Lu  Lu4  1  0.18346182  0.41902398  0.23556215  1
  Lu  Lu5  1  0.81653818  0.58097602  0.76443785  1
  Lu  Lu6  1  0.18346182  0.94789867  0.76443785  1
  Lu  Lu7  1  0.92181084  0.18524475  0.73656710  1
  Lu  Lu8  1  0.81653818  0.05210133  0.23556215  1
  Lu  Lu9  1  0.07818916  0.81475525  0.26343290  1
  Lu  Lu10  1  0.44867765  0.18524475  0.26343290  1
  Lu  Lu11  1  0.55132235  0.81475525  0.73656710  1
  In  In0  1  0.00000000  0.50000000  0.50000000  1
  Cu  Cu0  1  0.50000000  0.00000000  0.50000000  1
  Tc  Tc0  1  0.33535711  0.33535711  0.00000000  1
  Tc  Tc1  1  0.66464289  0.66464289  1.00000000  1
  Tc  Tc2  1  0.00000000  0.00000000  0.00000000  1
loop_
_geom_bond_atom_site_label_1
_geom_bond_atom_site_label_2
_geom_bond_distance
_geom_bond_site_symmetry_2
Lu0 Tc0 2.850932 1_556
Lu0 Tc1 2.850937 1_555
Lu1 Tc1 2.850932 1_554
Lu1 Tc0 2.850937 1_555
Lu2 Tc1 2.850938 1_554
Lu2 Tc0 2.850943 1_555
Lu3 Tc0 2.850938 1_556
Lu3 Tc1 2.850943 1_555
Lu4 Tc0 2.699459 1_555
Lu4 Tc2 2.871560 1_555
Lu5 Tc1 2.699459 1_555
Lu5 Tc2 2.871560 1_666
Lu6 Tc0 2.699466 1_566
Lu6 Tc2 2.871561 1_566
Lu7 Tc0 2.761134 1_656
Lu7 Tc2 2.948036 1_656
Lu8 Tc1 2.699466 1_544
Lu8 Tc2 2.871561 1_655
Lu9 Tc1 2.761134 1_454
Lu9 Tc2 2.948036 1_565
Lu10 Tc0 2.761128 1_555
Lu10 Tc2 2.948035 1_555
Lu11 Tc1 2.761128 1_555
Lu11 Tc2 2.948035 1_666
In0 Lu6 3.098086 1_555
In0 Lu8 3.098086 1_455
In0 Lu5 3.098093 1_455
In0 Lu4 3.098093 1_555
In0 Lu0 3.330481 1_555
In0 Lu1 3.330481 1_455
In0 Lu3 3.330487 1_555
In0 Lu2 3.330487 1_455
In0 Lu11 3.670846 1_555
In0 Lu10 3.670846 1_455
In0 Lu9 3.670847 1_555
In0 Lu7 3.670847 1_455
Cu0 Lu9 2.758660 1_545
Cu0 Lu7 2.758660 1_555
Cu0 Lu11 2.758666 1_545
Cu0 Lu10 2.758666 1_555
