# generated using pymatgen
data_Na3HfF7
_symmetry_space_group_name_H-M   'P 1'
_cell_length_a   5.35919199
_cell_length_b   5.35919199
_cell_length_c   6.18220861
_cell_angle_alpha   113.37504854
_cell_angle_beta   113.37504854
_cell_angle_gamma   90.39500039
_symmetry_Int_Tables_number   1
_chemical_formula_structural   Na3HfF7
_chemical_formula_sum   'Na3 Hf1 F7'
_cell_volume   146.73751213
_cell_formula_units_Z   1
loop_
 _symmetry_equiv_pos_site_id
 _symmetry_equiv_pos_as_xyz
  1  'x, y, z'
loop_
 _atom_site_type_symbol
 _atom_site_label
 _atom_site_symmetry_multiplicity
 _atom_site_fract_x
 _atom_site_fract_y
 _atom_site_fract_z
 _atom_site_occupancy
  Na  Na0  1  0.23789700  0.77459949  0.50900728  1
  Na  Na1  1  0.48601068  0.48601068  0.95494866  1
  Na  Na2  1  0.77459949  0.23789700  0.50900728  1
  Hf  Hf0  1  0.95255487  0.95255487  0.97216688  1
  F  F0  1  0.15123072  0.15123072  0.84654083  1
  F  F1  1  0.10464044  0.64357493  0.76719281  1
  F  F2  1  0.33090907  0.97543106  0.24891307  1
  F  F3  1  0.64357493  0.10464044  0.76719281  1
  F  F4  1  0.62273910  0.62273910  0.71242950  1
  F  F5  1  0.97543106  0.33090907  0.24891307  1
  F  F6  1  0.84541164  0.84541164  0.21368980  1
loop_
_geom_bond_atom_site_label_1
_geom_bond_atom_site_label_2
_geom_bond_distance
_geom_bond_site_symmetry_2
F0 Hf0 2.041379 1_445
F0 Na1 2.221367 1_555
F0 Na0 2.466579 1_545
F0 Na2 2.466579 1_455
F1 Hf0 2.045773 1_455
F1 Na1 2.270839 1_555
F1 Na0 2.310351 1_555
F1 Na2 2.314328 1_455
F2 Hf0 2.032499 1_454
F2 Na2 2.311581 1_565
F2 Na0 2.448319 1_555
F3 Hf0 2.045773 1_545
F3 Na1 2.270839 1_555
F3 Na2 2.310351 1_555
F3 Na0 2.314328 1_545
F4 Hf0 2.068703 1_555
F4 Na1 2.248971 1_555
F4 Na2 2.296682 1_555
F4 Na0 2.296682 1_555
F5 Hf0 2.032499 1_544
F5 Na0 2.311581 1_655
F5 Na2 2.448319 1_555
F6 Hf0 2.060336 1_554
F6 Na1 2.244499 1_554
F6 Na2 2.327046 1_565
F6 Na0 2.327046 1_655
