# generated using pymatgen
data_LiZr2BRh5
_symmetry_space_group_name_H-M   'P 1'
_cell_length_a   5.62356834
_cell_length_b   5.62356818
_cell_length_c   5.74093709
_cell_angle_alpha   59.30714941
_cell_angle_beta   59.30715036
_cell_angle_gamma   61.38567525
_symmetry_Int_Tables_number   1
_chemical_formula_structural   LiZr2BRh5
_chemical_formula_sum   'Li1 Zr2 B1 Rh5'
_cell_volume   128.26406878
_cell_formula_units_Z   1
loop_
 _symmetry_equiv_pos_site_id
 _symmetry_equiv_pos_as_xyz
  1  'x, y, z'
loop_
 _atom_site_type_symbol
 _atom_site_label
 _atom_site_symmetry_multiplicity
 _atom_site_fract_x
 _atom_site_fract_y
 _atom_site_fract_z
 _atom_site_occupancy
  Li  Li0  1  0.72512690  0.72512690  0.27487310  1
  Zr  Zr0  1  0.75012255  0.75012255  0.74987745  1
  Zr  Zr1  1  0.25012255  0.25012255  0.24987745  1
  B  B0  1  0.00526426  0.00526426  0.99473574  1
  Rh  Rh0  1  0.25460759  0.74784909  0.25215091  1
  Rh  Rh1  1  0.74784909  0.25460759  0.25215091  1
  Rh  Rh2  1  0.26445138  0.26445138  0.73554862  1
  Rh  Rh3  1  0.74784909  0.25460759  0.74539241  1
  Rh  Rh4  1  0.25460759  0.74784909  0.74539241  1
loop_
_geom_bond_atom_site_label_1
_geom_bond_atom_site_label_2
_geom_bond_distance
_geom_bond_site_symmetry_2
Li0 Rh3 2.654458 1_555
Li0 Rh4 2.654458 1_555
Li0 Rh1 2.654459 1_555
Li0 Rh0 2.654459 1_555
Li0 Zr1 2.877054 1_565
Li0 Zr1 2.877054 1_655
Li0 Zr0 2.877054 1_554
Li0 Zr0 2.877054 1_555
B0 Rh2 2.017357 1_555
B0 Rh0 2.057403 1_546
B0 Rh1 2.057403 1_456
B0 Rh4 2.057403 1_545
B0 Rh3 2.057403 1_455
B0 Li0 2.180422 1_446
Rh0 Zr0 2.805968 1_554
Rh0 Zr1 2.805969 1_565
Rh0 Zr0 2.817880 1_455
Rh0 Zr1 2.817881 1_555
Rh1 Zr0 2.805968 1_554
Rh1 Zr1 2.805969 1_655
Rh1 Zr0 2.817880 1_545
Rh1 Zr1 2.817881 1_555
Rh2 Zr0 2.872634 1_545
Rh2 Zr0 2.872634 1_455
Rh2 Zr1 2.872634 1_556
Rh2 Zr1 2.872634 1_555
Rh3 Zr1 2.805969 1_655
Rh3 Zr0 2.805969 1_555
Rh3 Zr1 2.817880 1_556
Rh3 Zr0 2.817881 1_545
Rh4 Zr1 2.805968 1_565
Rh4 Zr0 2.805969 1_555
Rh4 Zr1 2.817880 1_556
Rh4 Zr0 2.817881 1_455
