# generated using pymatgen
data_LuCuTeO6
_symmetry_space_group_name_H-M   'P 1'
_cell_length_a   5.05401187
_cell_length_b   5.05308666
_cell_length_c   9.50038630
_cell_angle_alpha   89.99414343
_cell_angle_beta   90.00293500
_cell_angle_gamma   119.99391335
_symmetry_Int_Tables_number   1
_chemical_formula_structural   LuCuTeO6
_chemical_formula_sum   'Lu2 Cu2 Te2 O12'
_cell_volume   210.13167965
_cell_formula_units_Z   2
loop_
 _symmetry_equiv_pos_site_id
 _symmetry_equiv_pos_as_xyz
  1  'x, y, z'
loop_
 _atom_site_type_symbol
 _atom_site_label
 _atom_site_symmetry_multiplicity
 _atom_site_fract_x
 _atom_site_fract_y
 _atom_site_fract_z
 _atom_site_occupancy
  Lu  Lu0  1  0.00000000  0.00000000  0.00000000  1
  Lu  Lu1  1  0.00000000  0.00000000  0.50000000  1
  Cu  Cu0  1  0.33308373  0.66654287  0.25000000  1
  Cu  Cu1  1  0.66691627  0.33345713  0.75000000  1
  Te  Te0  1  0.33305666  0.66652733  0.75000000  1
  Te  Te1  1  0.66694334  0.33347267  0.25000000  1
  O  O0  1  0.36172927  0.35140471  0.13677226  1
  O  O1  1  0.64822128  0.00989522  0.13714503  1
  O  O2  1  0.99037731  0.63853156  0.13715252  1
  O  O3  1  0.63827073  0.64859529  0.86322774  1
  O  O4  1  0.35177872  0.99010478  0.86285497  1
  O  O5  1  0.00962269  0.36146844  0.86284748  1
  O  O6  1  0.64822128  0.63832406  0.36285497  1
  O  O7  1  0.36172927  0.01032356  0.36322774  1
  O  O8  1  0.99037731  0.35184775  0.36284748  1
  O  O9  1  0.35177872  0.36167594  0.63714503  1
  O  O10  1  0.63827073  0.98967644  0.63677226  1
  O  O11  1  0.00962269  0.64815225  0.63715252  1
loop_
_geom_bond_atom_site_label_1
_geom_bond_atom_site_label_2
_geom_bond_distance
_geom_bond_site_symmetry_2
Lu0 O0 2.222220 1_555
Lu0 O3 2.222220 1_444
Lu0 O2 2.224208 1_445
Lu0 O5 2.224208 1_554
Lu0 O1 2.224897 1_455
Lu0 O4 2.224897 1_544
Lu1 O10 2.222222 1_445
Lu1 O7 2.222222 1_555
Lu1 O11 2.224216 1_545
Lu1 O8 2.224216 1_455
Lu1 O9 2.224902 1_555
Lu1 O6 2.224902 1_445
Cu0 O2 1.980939 1_455
Cu0 O8 1.980940 1_455
Cu0 O1 1.983285 1_565
Cu0 O6 1.983294 1_555
Cu0 O7 1.986133 1_565
Cu0 O0 1.986146 1_555
Cu1 O5 1.980939 1_655
Cu1 O11 1.980940 1_655
Cu1 O4 1.983285 1_545
Cu1 O9 1.983294 1_555
Cu1 O10 1.986133 1_545
Cu1 O3 1.986146 1_555
O0 Te1 1.919477 1_555
O1 Te1 1.917705 1_555
O2 Te1 1.917850 1_555
O3 Te0 1.919477 1_555
O4 Te0 1.917705 1_555
O5 Te0 1.917850 1_555
O6 Te1 1.917689 1_555
O7 Te1 1.919485 1_555
O8 Te1 1.917849 1_555
O9 Te0 1.917689 1_555
O10 Te0 1.919485 1_555
O11 Te0 1.917849 1_555
