# generated using pymatgen
data_Sc3(TaRe12)2
_symmetry_space_group_name_H-M   'P 1'
_cell_length_a   8.39022635
_cell_length_b   8.40436102
_cell_length_c   8.39022577
_cell_angle_alpha   109.47556014
_cell_angle_beta   109.39429565
_cell_angle_gamma   109.47555481
_symmetry_Int_Tables_number   1
_chemical_formula_structural   Sc3(TaRe12)2
_chemical_formula_sum   'Sc3 Ta2 Re24'
_cell_volume   455.82190143
_cell_formula_units_Z   1
loop_
 _symmetry_equiv_pos_site_id
 _symmetry_equiv_pos_as_xyz
  1  'x, y, z'
loop_
 _atom_site_type_symbol
 _atom_site_label
 _atom_site_symmetry_multiplicity
 _atom_site_fract_x
 _atom_site_fract_y
 _atom_site_fract_z
 _atom_site_occupancy
  Sc  Sc0  1  0.63059347  0.00000000  0.00014080  1
  Sc  Sc1  1  0.00014080  1.00000000  0.63059347  1
  Sc  Sc2  1  0.99799846  1.00000000  0.99799846  1
  Ta  Ta0  1  0.36945056  0.36936446  0.36945056  1
  Ta  Ta1  1  0.00008610  0.63063554  0.00008610  1
  Re  Re0  1  0.99788335  0.39760964  0.68032146  1
  Re  Re1  1  0.28271282  0.60239036  0.60027371  1
  Re  Re2  1  0.72068054  0.32542465  0.32358738  1
  Re  Re3  1  0.31830823  0.71961696  0.31830823  1
  Re  Re4  1  0.67625504  0.00000000  0.39496034  1
  Re  Re5  1  0.99816373  0.67457535  0.39525689  1
  Re  Re6  1  0.60027371  0.60239036  0.28271282  1
  Re  Re7  1  0.80827919  0.80747554  0.18420957  1
  Re  Re8  1  0.37673403  0.19252446  0.00080365  1
  Re  Re9  1  0.19570712  0.37667203  0.00134716  1
  Re  Re10  1  0.62370368  0.81534064  0.62370368  1
  Re  Re11  1  0.37646388  0.00000000  0.19531829  1
  Re  Re12  1  0.00134716  0.37667203  0.19570712  1
  Re  Re13  1  0.81903509  0.62332797  0.62467414  1
  Re  Re14  1  0.18420957  0.80747554  0.80827919  1
  Re  Re15  1  0.80836304  0.18465936  0.80836304  1
  Re  Re16  1  0.19531829  1.00000000  0.37646388  1
  Re  Re17  1  0.00080365  0.19252446  0.37673403  1
  Re  Re18  1  0.62467414  0.62332797  0.81903509  1
  Re  Re19  1  0.39496034  1.00000000  0.67625504  1
  Re  Re20  1  0.59869027  0.28038304  0.59869027  1
  Re  Re21  1  0.68032146  0.39760964  0.99788335  1
  Re  Re22  1  0.39525689  0.67457535  0.99816373  1
  Re  Re23  1  0.32358738  0.32542465  0.72068054  1
loop_
_geom_bond_atom_site_label_1
_geom_bond_atom_site_label_2
_geom_bond_distance
_geom_bond_site_symmetry_2
Sc0 Sc2 3.088626 1_544
Sc1 Sc2 3.088626 1_455
Sc2 Ta1 3.115996 1_656
Sc2 Ta0 3.115996 1_666
Re0 Re17 2.569357 1_655
Re0 Re15 2.721138 1_555
Re0 Ta1 2.733693 1_656
Re0 Re9 2.753615 1_656
Re0 Re2 2.821525 1_555
Re0 Re13 2.844618 1_555
Re0 Re1 2.866761 1_655
Re0 Re14 2.879372 1_655
Re0 Re22 2.902892 1_655
Re0 Re20 2.912714 1_555
Re0 Re4 2.922712 1_555
Re0 Re23 2.928895 1_655
Re0 Sc1 3.234016 1_645
Re1 Re14 2.569363 1_555
Re1 Re10 2.721132 1_555
Re1 Ta0 2.733687 1_555
Re1 Re18 2.753602 1_555
Re1 Re5 2.821522 1_455
Re1 Re12 2.844618 1_555
Re1 Re17 2.879374 1_555
Re1 Re23 2.902882 1_555
Re1 Re3 2.912706 1_555
Re1 Re19 2.922713 1_555
Re1 Re22 2.928903 1_555
Re1 Sc0 3.234014 1_566
Re2 Re8 2.748277 1_555
Re2 Sc0 2.779603 1_555
Re2 Re5 2.780413 1_555
Re2 Re20 2.900319 1_555
Re2 Re6 2.902882 1_555
Re2 Re4 2.922031 1_555
Re2 Re21 2.928895 1_554
Re2 Ta0 3.217556 1_555
Re3 Ta1 2.723854 1_555
Re3 Re9 2.744606 1_555
Re3 Re4 2.823766 1_565
Re3 Re5 2.900319 1_455
Re3 Re6 2.912706 1_555
Re3 Ta0 3.255078 1_555
Re4 Re7 2.749540 1_545
Re4 Sc1 2.779425 1_645
Re4 Re6 2.922713 1_545
Re4 Sc0 3.205839 1_555
Re5 Re7 2.748286 1_555
Re5 Sc1 2.779605 1_655
Re5 Re6 2.928903 1_555
Re5 Ta1 3.217561 1_655
Re6 Re7 2.569363 1_555
Re6 Ta0 2.733687 1_555
Re6 Re9 2.844618 1_555
Re6 Re8 2.879374 1_555
Re6 Sc1 3.234014 1_655
Re7 Ta1 2.983329 1_655
Re7 Sc0 2.995228 1_565
Re7 Sc2 3.035244 1_554
Re7 Sc1 3.074842 1_655
Re8 Re9 2.503891 1_555
Re8 Ta0 2.983329 1_555
Re8 Sc1 2.995228 1_544
Re8 Sc2 3.035244 1_444
Re8 Sc0 3.074842 1_555
Re9 Ta0 2.977172 1_555
Re9 Sc1 2.995076 1_544
Re9 Sc2 3.030210 1_444
Re9 Ta1 3.096636 1_555
Re10 Re15 2.535244 1_565
Re10 Re3 2.582407 1_555
Re10 Re18 2.655856 1_555
Re10 Re13 2.655856 1_555
Re10 Re6 2.721131 1_555
Re10 Re4 2.894496 1_565
Re10 Re19 2.894496 1_555
Re10 Sc0 2.989611 1_566
Re10 Sc1 2.989611 1_655
Re10 Sc2 3.013869 1_555
Re10 Ta0 3.076447 1_555
Re11 Re16 2.480730 1_545
Re11 Re4 2.516825 1_555
Re11 Re14 2.653755 1_544
Re11 Re8 2.653755 1_555
Re11 Re2 2.772242 1_555
Re11 Re22 2.772245 1_544
Re11 Re20 2.836345 1_555
Re11 Re3 2.836351 1_545
Re11 Ta0 2.988175 1_555
Re11 Ta1 2.988175 1_545
Re11 Sc2 3.054947 1_444
Re11 Sc0 3.089807 1_555
Re12 Re17 2.503891 1_555
Re12 Re5 2.520211 1_455
Re12 Re15 2.655856 1_454
Re12 Re9 2.661696 1_555
Re12 Re3 2.744606 1_555
Re12 Re21 2.753616 1_454
Re12 Re2 2.862154 1_455
Re12 Ta0 2.977173 1_555
Re12 Sc0 2.995076 1_455
Re12 Sc2 3.030209 1_444
Re12 Ta1 3.096636 1_555
Re13 Re14 2.503892 1_655
Re13 Re2 2.520209 1_555
Re13 Re18 2.661710 1_555
Re13 Re20 2.744609 1_555
Re13 Re6 2.753602 1_555
Re13 Re5 2.862145 1_555
Re13 Ta1 2.977180 1_656
Re13 Sc1 2.995072 1_655
Re13 Sc2 3.030214 1_555
Re13 Ta0 3.096636 1_555
Re14 Re8 2.643226 1_566
Re14 Re22 2.748286 1_555
Re14 Re19 2.749540 1_555
Re14 Re5 2.890812 1_455
Re14 Ta1 2.983329 1_556
Re14 Sc1 2.995228 1_555
Re14 Sc2 3.035244 1_455
Re14 Sc0 3.074842 1_566
Re15 Re20 2.582416 1_555
Re15 Re9 2.655856 1_656
Re15 Re21 2.721138 1_555
Re15 Re4 2.894496 1_555
Re15 Re19 2.894496 1_545
Re15 Sc1 2.989611 1_645
Re15 Sc0 2.989611 1_556
Re15 Sc2 3.013869 1_545
Re15 Ta1 3.076447 1_656
Re16 Re19 2.516825 1_555
Re16 Re17 2.653755 1_565
Re16 Re7 2.653755 1_455
Re16 Re23 2.772242 1_565
Re16 Re5 2.772245 1_455
Re16 Re20 2.836345 1_565
Re16 Re3 2.836351 1_555
Re16 Ta1 2.988175 1_555
Re16 Ta0 2.988175 1_565
Re16 Sc2 3.054946 1_454
Re16 Sc1 3.089807 1_555
Re17 Re7 2.643226 1_445
Re17 Re23 2.748277 1_555
Re17 Re4 2.749540 1_455
Re17 Re2 2.890819 1_455
Re17 Ta0 2.983329 1_555
Re17 Sc0 2.995228 1_455
Re17 Sc2 3.035244 1_444
Re17 Sc1 3.074842 1_545
Re18 Re7 2.503891 1_556
Re18 Re23 2.520209 1_555
Re18 Re20 2.744608 1_555
Re18 Re21 2.844618 1_555
Re18 Re22 2.862145 1_555
Re18 Ta1 2.977180 1_656
Re18 Sc0 2.995072 1_566
Re18 Sc2 3.030214 1_555
Re18 Ta0 3.096635 1_555
Re19 Re8 2.749540 1_566
Re19 Sc0 2.779425 1_566
Re19 Re3 2.823766 1_555
Re19 Re20 2.823768 1_565
Re19 Re5 2.922025 1_455
Re19 Re23 2.922031 1_565
Re19 Re21 2.922712 1_565
Re19 Sc1 3.205839 1_555
Re20 Ta0 2.723845 1_555
Re20 Re4 2.823768 1_555
Re20 Re23 2.900319 1_555
Re20 Re21 2.912714 1_555
Re20 Ta1 3.255085 1_656
Re21 Re8 2.569357 1_556
Re21 Ta1 2.733693 1_656
Re21 Re23 2.821525 1_555
Re21 Re6 2.866761 1_556
Re21 Re7 2.879372 1_556
Re21 Re5 2.902892 1_556
Re21 Sc0 3.234016 1_556
Re22 Re9 2.520212 1_556
Re22 Sc0 2.779605 1_566
Re22 Re23 2.780413 1_555
Re22 Re6 2.821522 1_556
Re22 Re7 2.890812 1_556
Re22 Re3 2.900318 1_556
Re22 Re4 2.922025 1_566
Re22 Ta1 3.217562 1_556
Re23 Sc1 2.779604 1_545
Re23 Re9 2.862154 1_556
Re23 Re8 2.890819 1_556
Re23 Ta0 3.217556 1_555
