# generated using pymatgen
data_V5Os(PbO3)8
_symmetry_space_group_name_H-M   'P 1'
_cell_length_a   9.44528303
_cell_length_b   9.44528229
_cell_length_c   9.44528234
_cell_angle_alpha   109.32588453
_cell_angle_beta   109.32588530
_cell_angle_gamma   109.76227818
_symmetry_Int_Tables_number   1
_chemical_formula_structural   V5Os(PbO3)8
_chemical_formula_sum   'V5 Os1 Pb8 O24'
_cell_volume   648.65623480
_cell_formula_units_Z   1
loop_
 _symmetry_equiv_pos_site_id
 _symmetry_equiv_pos_as_xyz
  1  'x, y, z'
loop_
 _atom_site_type_symbol
 _atom_site_label
 _atom_site_symmetry_multiplicity
 _atom_site_fract_x
 _atom_site_fract_y
 _atom_site_fract_z
 _atom_site_occupancy
  V  V0  1  0.37500000  0.62500000  0.75000000  1
  V  V1  1  0.87982908  0.26000507  0.12994761  1
  V  V2  1  0.63005646  0.74988147  0.37005239  1
  V  V3  1  0.25011853  0.12017092  0.88017499  1
  V  V4  1  0.73999493  0.36994354  0.61982501  1
  Os  Os0  1  0.12500000  0.87500000  0.25000000  1
  Pb  Pb0  1  0.35496237  0.36789034  0.34130259  1
  Pb  Pb1  1  0.16066973  0.48810318  0.99104852  1
  Pb  Pb2  1  0.99705466  0.16962122  0.50895148  1
  Pb  Pb3  1  0.83037878  0.83933027  0.82743445  1
  Pb  Pb4  1  0.52658774  0.01365977  0.15869741  1
  Pb  Pb5  1  0.63210966  0.47341226  0.98707203  1
  Pb  Pb6  1  0.51189682  0.00294534  0.67256555  1
  Pb  Pb7  1  0.98634023  0.64503763  0.51292797  1
  O  O0  1  0.30044638  0.15458930  0.08434312  1
  O  O1  1  0.18805811  0.26220429  0.84144282  1
  O  O2  1  0.92076147  0.34661629  0.65855718  1
  O  O3  1  0.11787517  0.06433115  0.27394397  1
  O  O4  1  0.79525973  0.57207847  0.63551473  1
  O  O5  1  0.57024718  0.21610325  0.41565688  1
  O  O6  1  0.29038719  0.84393220  0.22605603  1
  O  O7  1  0.67760635  0.34637288  0.76544212  1
  O  O8  1  0.34452613  0.65290222  0.92520335  1
  O  O9  1  0.43656374  0.15974400  0.86448527  1
  O  O10  1  0.22769787  0.41932178  0.57479665  1
  O  O11  1  0.08093076  0.91216423  0.73455788  1
  O  O12  1  0.08783577  0.32239365  0.16876553  1
  O  O13  1  0.65338371  0.81194189  0.57414618  1
  O  O14  1  0.65362712  0.91906924  0.33123447  1
  O  O15  1  0.84541070  0.42975282  0.14585607  1
  O  O16  1  0.42792153  0.56343626  0.22318026  1
  O  O17  1  0.73779571  0.07923853  0.92585382  1
  O  O18  1  0.84025600  0.20474027  0.27681974  1
  O  O19  1  0.78389675  0.69955362  0.35414393  1
  O  O20  1  0.58067822  0.65547387  0.80837608  1
  O  O21  1  0.34709778  0.77230213  0.69162392  1
  O  O22  1  0.93566885  0.70961281  0.05354501  1
  O  O23  1  0.15606780  0.88212483  0.44645499  1
loop_
_geom_bond_atom_site_label_1
_geom_bond_atom_site_label_2
_geom_bond_distance
_geom_bond_site_symmetry_2
O0 V3 1.710055 1_554
O0 Pb0 2.334429 1_555
O0 Pb4 2.894138 1_555
O1 V3 1.729703 1_555
O1 Pb1 2.288205 1_555
O1 Pb2 2.692108 1_455
O2 V4 1.729707 1_555
O2 Pb2 2.288211 1_555
O2 Pb1 2.692110 1_655
O3 Os0 1.754255 1_545
O3 Pb0 2.673583 1_555
O3 Pb2 2.863812 1_455
O4 V4 1.739873 1_555
O4 Pb3 2.403143 1_555
O4 Pb7 2.478527 1_555
O5 V4 1.710049 1_555
O5 Pb4 2.334425 1_555
O5 Pb0 2.894146 1_555
O6 Os0 1.754251 1_555
O6 Pb4 2.673580 1_565
O6 Pb1 2.863819 1_554
O7 V4 1.714330 1_555
O7 Pb5 2.299604 1_555
O7 Pb6 2.741504 1_555
O8 V0 1.722997 1_555
O8 Pb1 2.313669 1_555
O8 Pb4 2.825804 1_566
O9 V3 1.739875 1_555
O9 Pb6 2.403141 1_555
O9 Pb5 2.478535 1_555
O10 V0 1.723003 1_555
O10 Pb2 2.313658 1_455
O10 Pb0 2.825810 1_555
O11 V3 1.714336 1_565
O11 Pb7 2.299604 1_455
O11 Pb3 2.741513 1_455
O12 V1 1.714339 1_455
O12 Pb0 2.299606 1_555
O12 Pb1 2.741498 1_554
O13 V2 1.729706 1_555
O13 Pb3 2.288215 1_555
O13 Pb6 2.692097 1_565
O14 V2 1.714330 1_555
O14 Pb4 2.299610 1_565
O14 Pb2 2.741508 1_565
O15 V1 1.710038 1_555
O15 Pb5 2.334431 1_554
O15 Pb7 2.894147 1_555
O16 V2 1.739875 1_555
O16 Pb1 2.403135 1_554
O16 Pb0 2.478534 1_555
O17 V1 1.729706 1_556
O17 Pb6 2.288211 1_555
O17 Pb3 2.692106 1_545
O18 V1 1.739884 1_555
O18 Pb2 2.403129 1_555
O18 Pb4 2.478533 1_555
O19 V2 1.710052 1_555
O19 Pb7 2.334425 1_555
O19 Pb5 2.894146 1_554
O20 V0 1.723006 1_555
O20 Pb3 2.313657 1_555
O20 Pb5 2.825802 1_555
O21 V0 1.723006 1_555
O21 Pb6 2.313668 1_565
O21 Pb7 2.825802 1_455
O22 Os0 1.754251 1_655
O22 Pb5 2.673580 1_554
O22 Pb3 2.863812 1_554
O23 Os0 1.754248 1_555
O23 Pb7 2.673586 1_455
O23 Pb6 2.863820 1_565
