# generated using pymatgen
data_Ca(Nd2Se3)4
_symmetry_space_group_name_H-M   'P 1'
_cell_length_a   8.95632525
_cell_length_b   8.95632525
_cell_length_c   14.82602339
_cell_angle_alpha   72.45218960
_cell_angle_beta   72.45218960
_cell_angle_gamma   90.03642349
_symmetry_Int_Tables_number   1
_chemical_formula_structural   Ca(Nd2Se3)4
_chemical_formula_sum   'Ca2 Nd16 Se24'
_cell_volume   1075.67646635
_cell_formula_units_Z   2
loop_
 _symmetry_equiv_pos_site_id
 _symmetry_equiv_pos_as_xyz
  1  'x, y, z'
loop_
 _atom_site_type_symbol
 _atom_site_label
 _atom_site_symmetry_multiplicity
 _atom_site_fract_x
 _atom_site_fract_y
 _atom_site_fract_z
 _atom_site_occupancy
  Ca  Ca0  1  0.79160200  0.41682700  0.16672500  1
  Ca  Ca1  1  0.41682700  0.79160200  0.66672500  1
  Nd  Nd0  1  0.45964000  0.70763300  0.08291700  1
  Nd  Nd1  1  0.58353900  0.71142300  0.33326500  1
  Nd  Nd2  1  0.37765400  0.12446100  0.24999500  1
  Nd  Nd3  1  0.08168300  0.45874300  0.33271400  1
  Nd  Nd4  1  0.03891200  0.91679200  0.16664200  1
  Nd  Nd5  1  0.79155600  0.04237100  0.41658800  1
  Nd  Nd6  1  0.12315400  0.74924900  0.50097800  1
  Nd  Nd7  1  0.91679200  0.03891200  0.66664200  1
  Nd  Nd8  1  0.70763300  0.45964000  0.58291700  1
  Nd  Nd9  1  0.37694600  0.24814700  0.49977400  1
  Nd  Nd10  1  0.12446100  0.37765400  0.74999500  1
  Nd  Nd11  1  0.45874300  0.08168300  0.83271400  1
  Nd  Nd12  1  0.24814700  0.37694600  0.99977400  1
  Nd  Nd13  1  0.04237100  0.79155600  0.91658800  1
  Nd  Nd14  1  0.74924900  0.12315400  0.00097800  1
  Nd  Nd15  1  0.71142300  0.58353900  0.83326500  1
  Se  Se0  1  0.40086200  0.04886000  0.04948000  1
  Se  Se1  1  0.12035100  0.61821100  0.11729200  1
  Se  Se2  1  0.54651700  0.40090900  0.04848600  1
  Se  Se3  1  0.42829200  0.43231100  0.28516600  1
  Se  Se4  1  0.28373700  0.78447100  0.28364400  1
  Se  Se5  1  0.07118200  0.21427000  0.21655400  1
  Se  Se6  1  0.76787600  0.76428500  0.11703700  1
  Se  Se7  1  0.73330700  0.38309100  0.38222100  1
  Se  Se8  1  0.71850100  0.06909300  0.21586700  1
  Se  Se9  1  0.45014700  0.94842700  0.45038800  1
  Se  Se10  1  0.88350900  0.73351000  0.38357600  1
  Se  Se11  1  0.76428500  0.76787600  0.61703700  1
  Se  Se12  1  0.61821100  0.12035100  0.61729200  1
  Se  Se13  1  0.09884300  0.09910300  0.45069100  1
  Se  Se14  1  0.40090900  0.54651700  0.54848600  1
  Se  Se15  1  0.06909300  0.71850100  0.71586700  1
  Se  Se16  1  0.04886000  0.40086200  0.54948000  1
  Se  Se17  1  0.78447100  0.28373700  0.78364400  1
  Se  Se18  1  0.21427000  0.07118200  0.71655400  1
  Se  Se19  1  0.09910300  0.09884300  0.95069100  1
  Se  Se20  1  0.94842700  0.45014700  0.95038800  1
  Se  Se21  1  0.73351000  0.88350900  0.88357600  1
  Se  Se22  1  0.43231100  0.42829200  0.78516600  1
  Se  Se23  1  0.38309100  0.73330700  0.88222100  1
loop_
_geom_bond_atom_site_label_1
_geom_bond_atom_site_label_2
_geom_bond_distance
_geom_bond_site_symmetry_2
Ca0 Se7 2.997232 1_555
Ca0 Se6 2.997485 1_555
Ca0 Se8 3.000096 1_555
Ca0 Se20 3.009176 1_554
Ca0 Se1 3.217860 1_655
Ca0 Se2 3.222161 1_555
Ca0 Se3 3.223774 1_555
Ca0 Se5 3.228022 1_655
Ca1 Se23 2.997232 1_555
Ca1 Se11 2.997485 1_555
Ca1 Se15 3.000096 1_555
Ca1 Se9 3.009176 1_555
Ca1 Se12 3.217860 1_565
Ca1 Se14 3.222161 1_555
Ca1 Se22 3.223774 1_555
Ca1 Se18 3.228022 1_565
Nd0 Se1 2.992035 1_555
Nd0 Se2 3.003582 1_555
Nd0 Se0 3.018065 1_565
Nd0 Se6 3.021539 1_555
Nd0 Se21 3.170006 1_554
Nd0 Se3 3.191157 1_555
Nd0 Se23 3.192869 1_554
Nd0 Se4 3.197072 1_555
Nd1 Se14 3.007726 1_555
Nd1 Se4 3.013689 1_555
Nd1 Se10 3.018311 1_555
Nd1 Se6 3.019819 1_555
Nd1 Se9 3.150133 1_555
Nd1 Se8 3.180676 1_565
Nd1 Se7 3.206019 1_555
Nd1 Se3 3.218601 1_555
Nd2 Se5 3.001672 1_555
Nd2 Se8 3.007148 1_555
Nd2 Se4 3.009399 1_545
Nd2 Se3 3.014589 1_555
Nd2 Se9 3.173992 1_545
Nd2 Se2 3.186451 1_555
Nd2 Se0 3.190741 1_555
Nd2 Se13 3.201915 1_555
Nd3 Se1 2.990358 1_555
Nd3 Se3 2.995312 1_555
Nd3 Se7 3.008277 1_455
Nd3 Se16 3.018115 1_555
Nd3 Se10 3.176865 1_455
Nd3 Se5 3.184384 1_555
Nd3 Se13 3.197444 1_555
Nd3 Se4 3.199146 1_555
Nd4 Se19 3.001701 1_564
Nd4 Se5 3.007745 1_565
Nd4 Se1 3.013162 1_555
Nd4 Se10 3.015020 1_455
Nd4 Se8 3.157667 1_465
Nd4 Se6 3.158689 1_455
Nd4 Se4 3.206080 1_555
Nd4 Se0 3.207173 1_565
Nd5 Se7 3.011439 1_555
Nd5 Se13 3.013378 1_655
Nd5 Se9 3.021178 1_545
Nd5 Se10 3.024275 1_545
Nd5 Se8 3.175877 1_555
Nd5 Se11 3.176718 1_545
Nd5 Se5 3.193892 1_655
Nd5 Se12 3.197093 1_555
Nd6 Se15 3.000188 1_555
Nd6 Se16 3.008614 1_555
Nd6 Se13 3.018536 1_565
Nd6 Se4 3.023673 1_555
Nd6 Se10 3.171228 1_455
Nd6 Se11 3.187193 1_455
Nd6 Se9 3.191216 1_555
Nd6 Se14 3.205091 1_555
Nd7 Se13 3.001701 1_655
Nd7 Se18 3.007745 1_655
Nd7 Se12 3.013162 1_555
Nd7 Se21 3.015020 1_545
Nd7 Se15 3.157667 1_645
Nd7 Se11 3.158689 1_545
Nd7 Se17 3.206080 1_555
Nd7 Se16 3.207173 1_655
Nd8 Se12 2.992035 1_555
Nd8 Se14 3.003582 1_555
Nd8 Se16 3.018065 1_655
Nd8 Se11 3.021539 1_555
Nd8 Se10 3.170006 1_555
Nd8 Se22 3.191157 1_555
Nd8 Se7 3.192869 1_555
Nd8 Se17 3.197072 1_555
Nd9 Se14 2.994215 1_555
Nd9 Se3 3.001321 1_555
Nd9 Se18 3.011020 1_555
Nd9 Se9 3.011622 1_545
Nd9 Se7 3.171078 1_555
Nd9 Se12 3.175829 1_555
Nd9 Se13 3.192174 1_555
Nd9 Se16 3.217990 1_555
Nd10 Se18 3.001672 1_555
Nd10 Se15 3.007148 1_555
Nd10 Se17 3.009399 1_455
Nd10 Se22 3.014589 1_555
Nd10 Se20 3.173992 1_455
Nd10 Se14 3.186451 1_555
Nd10 Se16 3.190741 1_555
Nd10 Se19 3.201915 1_555
Nd11 Se12 2.990358 1_555
Nd11 Se22 2.995312 1_555
Nd11 Se23 3.008277 1_545
Nd11 Se0 3.018115 1_556
Nd11 Se21 3.176865 1_545
Nd11 Se18 3.184384 1_555
Nd11 Se19 3.197444 1_555
Nd11 Se17 3.199146 1_555
Nd12 Se2 2.994215 1_556
Nd12 Se22 3.001321 1_555
Nd12 Se5 3.011020 1_556
Nd12 Se20 3.011622 1_455
Nd12 Se23 3.171078 1_555
Nd12 Se1 3.175829 1_556
Nd12 Se19 3.192174 1_555
Nd12 Se0 3.217990 1_556
Nd13 Se23 3.011439 1_555
Nd13 Se19 3.013378 1_565
Nd13 Se20 3.021178 1_455
Nd13 Se21 3.024275 1_455
Nd13 Se15 3.175877 1_555
Nd13 Se6 3.176718 1_456
Nd13 Se18 3.193892 1_565
Nd13 Se1 3.197093 1_556
Nd14 Se8 3.000188 1_555
Nd14 Se0 3.008614 1_555
Nd14 Se19 3.018536 1_654
Nd14 Se17 3.023673 1_554
Nd14 Se21 3.171228 1_544
Nd14 Se6 3.187193 1_545
Nd14 Se20 3.191216 1_554
Nd14 Se2 3.205091 1_555
Nd15 Se2 3.007726 1_556
Nd15 Se17 3.013689 1_555
Nd15 Se21 3.018311 1_555
Nd15 Se11 3.019819 1_555
Nd15 Se20 3.150133 1_555
Nd15 Se15 3.180676 1_655
Nd15 Se23 3.206019 1_555
Nd15 Se22 3.218601 1_555
