# generated using pymatgen
data_BaMgNiH4
_symmetry_space_group_name_H-M   'P 1'
_cell_length_a   7.11544911
_cell_length_b   7.11544911
_cell_length_c   7.11544911
_cell_angle_alpha   90.00000000
_cell_angle_beta   90.00000000
_cell_angle_gamma   90.00000000
_symmetry_Int_Tables_number   1
_chemical_formula_structural   BaMgNiH4
_chemical_formula_sum   'Ba4 Mg4 Ni4 H16'
_cell_volume   360.25245568
_cell_formula_units_Z   4
loop_
 _symmetry_equiv_pos_site_id
 _symmetry_equiv_pos_as_xyz
  1  'x, y, z'
loop_
 _atom_site_type_symbol
 _atom_site_label
 _atom_site_symmetry_multiplicity
 _atom_site_fract_x
 _atom_site_fract_y
 _atom_site_fract_z
 _atom_site_occupancy
  Ba  Ba0  1  0.16025960  0.66025960  0.83974040  1
  Ba  Ba1  1  0.66025960  0.83974040  0.16025960  1
  Ba  Ba2  1  0.83974040  0.16025960  0.66025960  1
  Ba  Ba3  1  0.33974040  0.33974040  0.33974040  1
  Mg  Mg0  1  0.85417186  0.35417186  0.14582814  1
  Mg  Mg1  1  0.35417186  0.14582814  0.85417186  1
  Mg  Mg2  1  0.14582814  0.85417186  0.35417186  1
  Mg  Mg3  1  0.64582814  0.64582814  0.64582814  1
  Ni  Ni0  1  0.42563877  0.92563877  0.57436123  1
  Ni  Ni1  1  0.92563877  0.57436123  0.42563877  1
  Ni  Ni2  1  0.57436123  0.42563877  0.92563877  1
  Ni  Ni3  1  0.07436123  0.07436123  0.07436123  1
  H  H0  1  0.55504603  0.05504603  0.44495397  1
  H  H1  1  0.05504603  0.44495397  0.55504603  1
  H  H2  1  0.44495397  0.55504603  0.05504603  1
  H  H3  1  0.94495397  0.94495397  0.94495397  1
  H  H4  1  0.27084266  0.97303807  0.09650649  1
  H  H5  1  0.90349351  0.77084266  0.52696193  1
  H  H6  1  0.47303807  0.40349351  0.72915734  1
  H  H7  1  0.77084266  0.52696193  0.90349351  1
  H  H8  1  0.40349351  0.72915734  0.47303807  1
  H  H9  1  0.97303807  0.09650649  0.27084266  1
  H  H10  1  0.72915734  0.47303807  0.40349351  1
  H  H11  1  0.09650649  0.27084266  0.97303807  1
  H  H12  1  0.52696193  0.90349351  0.77084266  1
  H  H13  1  0.22915734  0.02696193  0.59650649  1
  H  H14  1  0.59650649  0.22915734  0.02696193  1
  H  H15  1  0.02696193  0.59650649  0.22915734  1
loop_
_geom_bond_atom_site_label_1
_geom_bond_atom_site_label_2
_geom_bond_distance
_geom_bond_site_symmetry_2
Ba0 H2 2.647839 1_556
Ba0 H1 2.647839 1_555
Ba0 H3 2.647839 1_455
Ba0 H15 2.963636 1_556
Ba0 H7 2.963636 1_455
Ba0 H11 2.963636 1_555
Ba0 H4 2.984995 1_556
Ba0 H6 2.984995 1_555
Ba0 H5 2.984995 1_455
Ba1 H0 2.647839 1_565
Ba1 H3 2.647839 1_554
Ba1 H2 2.647839 1_555
Ba1 H14 2.963636 1_565
Ba1 H12 2.963636 1_554
Ba1 H4 2.963636 1_555
Ba1 H9 2.984995 1_565
Ba1 H8 2.984995 1_555
Ba1 H7 2.984995 1_554
Ba2 H0 2.647839 1_555
Ba2 H1 2.647839 1_655
Ba2 H3 2.647839 1_545
Ba2 H13 2.963636 1_655
Ba2 H5 2.963636 1_545
Ba2 H9 2.963636 1_555
Ba2 H11 2.984995 1_655
Ba2 H12 2.984995 1_545
Ba2 H10 2.984995 1_555
Ba3 H2 2.647839 1_555
Ba3 H0 2.647839 1_555
Ba3 H1 2.647839 1_555
Ba3 H6 2.963636 1_555
Ba3 H10 2.963636 1_555
Ba3 H8 2.963636 1_555
Ba3 H13 2.984995 1_555
Ba3 H14 2.984995 1_555
Ba3 H15 2.984995 1_555
H0 Ni0 1.594856 1_545
H1 Ni1 1.594856 1_455
H2 Ni2 1.594856 1_554
H3 Ni3 1.594856 1_666
H4 Ni3 1.580875 1_565
H4 Mg1 2.199195 1_564
H4 Mg2 2.206354 1_555
H5 Ni1 1.580875 1_555
H5 Mg2 2.199195 1_655
H5 Mg3 2.206354 1_555
H6 Ni2 1.580875 1_555
H6 Mg3 2.199195 1_555
H6 Mg1 2.206354 1_555
H7 Ni2 1.580875 1_555
H7 Mg0 2.199195 1_556
H7 Mg3 2.206354 1_555
H8 Ni0 1.580875 1_555
H8 Mg3 2.199195 1_555
H8 Mg2 2.206354 1_555
H9 Ni3 1.580875 1_655
H9 Mg2 2.199195 1_645
H9 Mg0 2.206354 1_555
H10 Ni1 1.580875 1_555
H10 Mg3 2.199195 1_555
H10 Mg0 2.206354 1_555
H11 Ni3 1.580875 1_556
H11 Mg0 2.199195 1_456
H11 Mg1 2.206354 1_555
H12 Ni0 1.580875 1_555
H12 Mg1 2.199195 1_565
H12 Mg3 2.206354 1_555
H13 Ni0 1.580875 1_545
H13 Mg2 2.199195 1_545
H13 Mg1 2.206354 1_555
H14 Ni2 1.580875 1_554
H14 Mg1 2.199195 1_554
H14 Mg0 2.206354 1_555
H15 Ni1 1.580875 1_455
H15 Mg0 2.199195 1_455
H15 Mg2 2.206354 1_555
