# generated using pymatgen
data_Hf6Zn2CN
_symmetry_space_group_name_H-M   'P 1'
_cell_length_a   5.87247324
_cell_length_b   5.87247367
_cell_length_c   8.82518269
_cell_angle_alpha   89.96318640
_cell_angle_beta   90.03681546
_cell_angle_gamma   147.15549970
_symmetry_Int_Tables_number   1
_chemical_formula_structural   Hf6Zn2CN
_chemical_formula_sum   'Hf6 Zn2 C1 N1'
_cell_volume   165.06465969
_cell_formula_units_Z   1
loop_
 _symmetry_equiv_pos_site_id
 _symmetry_equiv_pos_as_xyz
  1  'x, y, z'
loop_
 _atom_site_type_symbol
 _atom_site_label
 _atom_site_symmetry_multiplicity
 _atom_site_fract_x
 _atom_site_fract_y
 _atom_site_fract_z
 _atom_site_occupancy
  Hf  Hf0  1  0.62980825  0.37019175  0.95124574  1
  Hf  Hf1  1  0.37177236  0.62822764  0.45582383  1
  Hf  Hf2  1  0.37019175  0.62980825  0.04875426  1
  Hf  Hf3  1  0.62822764  0.37177236  0.54417617  1
  Hf  Hf4  1  0.95215867  0.04784133  0.74971658  1
  Hf  Hf5  1  0.04784133  0.95215867  0.25028342  1
  Zn  Zn0  1  0.25284437  0.74715563  0.74723435  1
  Zn  Zn1  1  0.74715563  0.25284437  0.25276565  1
  C  C0  1  0.00000000  0.00000000  0.00000000  1
  N  N0  1  0.00000000  0.00000000  0.50000000  1
loop_
_geom_bond_atom_site_label_1
_geom_bond_atom_site_label_2
_geom_bond_distance
_geom_bond_site_symmetry_2
Hf0 Zn0 2.814704 1_655
Hf0 Zn0 2.814704 1_545
Hf0 Zn1 2.970481 1_556
Hf1 N0 2.234823 1_665
Hf1 N0 2.234824 1_555
Hf1 Zn1 2.816967 1_455
Hf1 Zn1 2.816968 1_565
Hf1 Zn0 2.900627 1_555
Hf2 Zn1 2.814704 1_455
Hf2 Zn1 2.814704 1_565
Hf2 Zn0 2.970481 1_554
Hf3 N0 2.234823 1_555
Hf3 N0 2.234824 1_665
Hf3 Zn0 2.816967 1_655
Hf3 Zn0 2.816968 1_545
Hf3 Zn1 2.900627 1_555
Hf4 N0 2.269095 1_655
Hf4 Zn0 2.792626 1_545
Hf4 Zn0 2.792626 1_655
Hf5 N0 2.269095 1_565
Hf5 Zn1 2.792626 1_565
Hf5 Zn1 2.792626 1_455
C0 Hf0 2.254092 1_554
C0 Hf2 2.254092 1_445
C0 Hf2 2.254093 1_555
C0 Hf0 2.254093 1_444
C0 Hf5 2.273253 1_545
C0 Hf4 2.273253 1_454
