# generated using pymatgen
data_ZrCd(SbPt)2
_symmetry_space_group_name_H-M   'P 1'
_cell_length_a   6.40253577
_cell_length_b   6.40253705
_cell_length_c   7.87156981
_cell_angle_alpha   66.00310475
_cell_angle_beta   66.00309414
_cell_angle_gamma   90.00000267
_symmetry_Int_Tables_number   1
_chemical_formula_structural   ZrCd(SbPt)2
_chemical_formula_sum   'Zr2 Cd2 Sb4 Pt4'
_cell_volume   263.96539526
_cell_formula_units_Z   2
loop_
 _symmetry_equiv_pos_site_id
 _symmetry_equiv_pos_as_xyz
  1  'x, y, z'
loop_
 _atom_site_type_symbol
 _atom_site_label
 _atom_site_symmetry_multiplicity
 _atom_site_fract_x
 _atom_site_fract_y
 _atom_site_fract_z
 _atom_site_occupancy
  Zr  Zr0  1  0.50000000  0.50000000  0.00000000  1
  Zr  Zr1  1  0.75000000  0.25000000  0.50000000  1
  Cd  Cd0  1  0.00000000  0.00000000  0.00000000  1
  Cd  Cd1  1  0.25000000  0.75000000  0.50000000  1
  Sb  Sb0  1  0.49543702  0.99543602  0.00912596  1
  Sb  Sb1  1  0.75456298  0.75456298  0.49087304  1
  Sb  Sb2  1  0.24543702  0.24543702  0.50912596  1
  Sb  Sb3  1  0.00456298  0.50456298  0.99087304  1
  Pt  Pt0  1  0.62500100  0.60649458  0.25000000  1
  Pt  Pt1  1  0.12499800  0.14350342  0.25000100  1
  Pt  Pt2  1  0.85649458  0.37499900  0.74999900  1
  Pt  Pt3  1  0.39350342  0.87499800  0.75000100  1
loop_
_geom_bond_atom_site_label_1
_geom_bond_atom_site_label_2
_geom_bond_distance
_geom_bond_site_symmetry_2
Cd0 Pt1 2.847618 1_555
Cd0 Pt3 2.847622 1_544
Cd0 Pt0 2.847623 1_445
Cd0 Pt2 2.847627 1_454
Cd0 Sb1 3.160909 1_445
Cd0 Sb2 3.160916 1_554
Cd0 Sb3 3.201805 1_554
Cd0 Sb0 3.201807 1_545
Cd0 Sb0 3.201807 1_445
Cd0 Sb3 3.201811 1_544
Cd1 Pt3 2.847618 1_555
Cd1 Pt1 2.847623 1_565
Cd1 Pt0 2.847630 1_555
Cd1 Pt2 2.847630 1_455
Cd1 Sb3 3.160909 1_555
Cd1 Sb0 3.160916 1_555
Cd1 Sb1 3.201804 1_555
Cd1 Sb2 3.201808 1_565
Cd1 Sb2 3.201808 1_555
Cd1 Sb1 3.201811 1_455
Sb0 Zr0 3.201801 1_555
Sb0 Zr0 3.201814 1_565
Sb0 Zr1 3.278447 1_564
Sb1 Zr1 3.201805 1_555
Sb1 Zr1 3.201811 1_565
Sb1 Zr0 3.278453 1_556
Sb2 Zr1 3.201807 1_455
Sb2 Zr1 3.201807 1_555
Sb2 Zr0 3.278447 1_555
Sb3 Zr0 3.201804 1_456
Sb3 Zr0 3.201811 1_556
Sb3 Zr1 3.278453 1_456
Pt0 Zr1 2.711157 1_555
Pt0 Zr0 2.711164 1_555
Pt0 Sb3 2.746461 1_654
Pt0 Sb2 2.746466 1_555
Pt0 Sb1 2.814811 1_555
Pt0 Sb0 2.814822 1_555
Pt1 Zr1 2.711156 1_455
Pt1 Zr0 2.711176 1_555
Pt1 Sb2 2.746468 1_555
Pt1 Sb3 2.746470 1_554
Pt1 Sb1 2.814808 1_445
Pt1 Sb0 2.814829 1_545
Pt2 Zr1 2.711149 1_555
Pt2 Zr0 2.711168 1_556
Pt2 Sb0 2.746462 1_546
Pt2 Sb1 2.746466 1_555
Pt2 Sb2 2.814815 1_655
Pt2 Sb3 2.814825 1_655
Pt3 Zr0 2.711157 1_556
Pt3 Zr1 2.711176 1_565
Pt3 Sb0 2.746464 1_556
Pt3 Sb1 2.746469 1_555
Pt3 Sb3 2.814808 1_555
Pt3 Sb2 2.814825 1_565
