# generated using pymatgen
data_Hf16Ni4Mo3Rh
_symmetry_space_group_name_H-M   'P 1'
_cell_length_a   8.62773840
_cell_length_b   8.62773850
_cell_length_c   8.62773964
_cell_angle_alpha   59.97304648
_cell_angle_beta   59.97304216
_cell_angle_gamma   59.97304803
_symmetry_Int_Tables_number   1
_chemical_formula_structural   Hf16Ni4Mo3Rh
_chemical_formula_sum   'Hf16 Ni4 Mo3 Rh1'
_cell_volume   453.84801559
_cell_formula_units_Z   1
loop_
 _symmetry_equiv_pos_site_id
 _symmetry_equiv_pos_as_xyz
  1  'x, y, z'
loop_
 _atom_site_type_symbol
 _atom_site_label
 _atom_site_symmetry_multiplicity
 _atom_site_fract_x
 _atom_site_fract_y
 _atom_site_fract_z
 _atom_site_occupancy
  Hf  Hf0  1  0.69381078  0.10198413  0.10198413  1
  Hf  Hf1  1  0.10198413  0.69381078  0.10198413  1
  Hf  Hf2  1  0.10198413  0.10198413  0.69381078  1
  Hf  Hf3  1  0.10255751  0.10255751  0.10255751  1
  Hf  Hf4  1  0.31540608  0.31540608  0.68784475  1
  Hf  Hf5  1  0.68515503  0.68515503  0.31513723  1
  Hf  Hf6  1  0.31540608  0.68784475  0.31540608  1
  Hf  Hf7  1  0.68515503  0.31513723  0.68515503  1
  Hf  Hf8  1  0.68784475  0.31540608  0.31540608  1
  Hf  Hf9  1  0.31513723  0.68515503  0.68515503  1
  Hf  Hf10  1  0.95198689  0.95198689  0.54734407  1
  Hf  Hf11  1  0.54895311  0.54895311  0.94996069  1
  Hf  Hf12  1  0.95198689  0.54734407  0.95198689  1
  Hf  Hf13  1  0.54895311  0.94996069  0.54895311  1
  Hf  Hf14  1  0.54734407  0.95198689  0.95198689  1
  Hf  Hf15  1  0.94996069  0.54895311  0.54895311  1
  Ni  Ni0  1  0.32497054  0.89067412  0.89067412  1
  Ni  Ni1  1  0.89067412  0.32497054  0.89067412  1
  Ni  Ni2  1  0.89067412  0.89067412  0.32497054  1
  Ni  Ni3  1  0.89148375  0.89148375  0.89148375  1
  Mo  Mo0  1  0.00040864  0.33226488  0.33226488  1
  Mo  Mo1  1  0.33226488  0.00040864  0.33226488  1
  Mo  Mo2  1  0.33226488  0.33226488  0.00040864  1
  Rh  Rh0  1  0.33362956  0.33362956  0.33362956  1
loop_
_geom_bond_atom_site_label_1
_geom_bond_atom_site_label_2
_geom_bond_distance
_geom_bond_site_symmetry_2
Hf0 Ni1 2.563366 1_554
Hf0 Ni2 2.563367 1_545
Hf0 Ni3 2.570337 1_544
Hf0 Rh0 3.035057 1_555
Hf0 Mo1 3.039139 1_555
Hf0 Mo2 3.039139 1_555
Hf1 Ni0 2.563366 1_554
Hf1 Ni2 2.563367 1_455
Hf1 Ni3 2.570338 1_454
Hf1 Rh0 3.035057 1_555
Hf1 Mo0 3.039139 1_555
Hf1 Mo2 3.039139 1_555
Hf2 Ni1 2.563367 1_455
Hf2 Ni0 2.563367 1_545
Hf2 Ni3 2.570337 1_445
Hf2 Rh0 3.035057 1_555
Hf2 Mo1 3.039139 1_555
Hf2 Mo0 3.039139 1_555
Hf3 Ni2 2.586305 1_445
Hf3 Ni0 2.586305 1_544
Hf3 Ni1 2.586305 1_454
Hf3 Mo2 3.011153 1_555
Hf3 Mo0 3.011154 1_555
Hf3 Mo1 3.011154 1_555
Hf4 Mo2 2.849723 1_556
Hf4 Rh0 2.907233 1_555
Hf5 Mo1 2.890279 1_565
Hf5 Mo0 2.890279 1_655
Hf6 Mo1 2.849722 1_565
Hf6 Rh0 2.907233 1_555
Hf7 Mo2 2.890279 1_556
Hf7 Mo0 2.890279 1_655
Hf8 Mo0 2.849722 1_655
Hf8 Rh0 2.907233 1_555
Hf9 Mo2 2.890279 1_556
Hf9 Mo1 2.890279 1_565
Hf10 Ni3 2.555618 1_555
Hf10 Ni2 2.559717 1_555
Hf10 Mo1 2.980809 1_665
Hf10 Mo0 2.980809 1_665
Hf11 Ni1 2.542892 1_555
Hf11 Ni0 2.542892 1_555
Hf11 Rh0 3.000813 1_556
Hf11 Mo2 3.008148 1_556
Hf12 Ni3 2.555617 1_555
Hf12 Ni1 2.559716 1_555
Hf12 Mo2 2.980809 1_656
Hf12 Mo0 2.980810 1_656
Hf13 Ni2 2.542892 1_555
Hf13 Ni0 2.542892 1_555
Hf13 Rh0 3.000814 1_565
Hf13 Mo1 3.008148 1_565
Hf14 Ni3 2.555617 1_555
Hf14 Ni0 2.559716 1_555
Hf14 Mo2 2.980809 1_566
Hf14 Mo1 2.980809 1_566
Hf15 Ni2 2.542892 1_555
Hf15 Ni1 2.542893 1_555
Hf15 Rh0 3.000813 1_655
Hf15 Mo0 3.008148 1_655
Mo0 Mo2 2.862002 1_555
Mo0 Mo1 2.862002 1_555
Mo0 Rh0 2.886775 1_555
Mo1 Mo2 2.862003 1_555
Mo1 Rh0 2.886775 1_555
Mo2 Rh0 2.886775 1_555
