# generated using pymatgen
data_Sc6Al12V4Os7
_symmetry_space_group_name_H-M   'P 1'
_cell_length_a   8.70260933
_cell_length_b   8.70260982
_cell_length_c   8.70261015
_cell_angle_alpha   60.00000623
_cell_angle_beta   60.00000437
_cell_angle_gamma   60.00000477
_symmetry_Int_Tables_number   1
_chemical_formula_structural   Sc6Al12V4Os7
_chemical_formula_sum   'Sc6 Al12 V4 Os7'
_cell_volume   466.05114747
_cell_formula_units_Z   1
loop_
 _symmetry_equiv_pos_site_id
 _symmetry_equiv_pos_as_xyz
  1  'x, y, z'
loop_
 _atom_site_type_symbol
 _atom_site_label
 _atom_site_symmetry_multiplicity
 _atom_site_fract_x
 _atom_site_fract_y
 _atom_site_fract_z
 _atom_site_occupancy
  Sc  Sc0  1  0.71346006  0.71346006  0.28653994  1
  Sc  Sc1  1  0.28653994  0.71346006  0.28653994  1
  Sc  Sc2  1  0.71346006  0.28653994  0.28653994  1
  Sc  Sc3  1  0.28653994  0.28653994  0.71346006  1
  Sc  Sc4  1  0.71346006  0.28653994  0.71346006  1
  Sc  Sc5  1  0.28653994  0.71346006  0.71346006  1
  Al  Al0  1  0.12058156  0.12058156  0.63825631  1
  Al  Al1  1  0.12058156  0.63825631  0.12058156  1
  Al  Al2  1  0.63825631  0.12058156  0.12058156  1
  Al  Al3  1  0.12058156  0.12058156  0.12058156  1
  Al  Al4  1  0.66494272  0.66494272  0.00517185  1
  Al  Al5  1  0.66494272  0.00517185  0.66494272  1
  Al  Al6  1  0.00517185  0.66494272  0.66494272  1
  Al  Al7  1  0.66494272  0.66494272  0.66494272  1
  Al  Al8  1  0.33467144  0.33467144  0.99598468  1
  Al  Al9  1  0.33467144  0.99598468  0.33467144  1
  Al  Al10  1  0.99598468  0.33467144  0.33467144  1
  Al  Al11  1  0.33467144  0.33467144  0.33467144  1
  V  V0  1  0.87949206  0.87949206  0.36152383  1
  V  V1  1  0.87949206  0.36152383  0.87949206  1
  V  V2  1  0.36152383  0.87949206  0.87949206  1
  V  V3  1  0.87949206  0.87949206  0.87949206  1
  Os  Os0  1  0.00000000  0.00000000  0.00000000  1
  Os  Os1  1  0.99619499  0.99619499  0.50380501  1
  Os  Os2  1  0.50380501  0.99619499  0.50380501  1
  Os  Os3  1  0.99619499  0.50380501  0.50380501  1
  Os  Os4  1  0.50380501  0.50380501  0.99619499  1
  Os  Os5  1  0.99619499  0.50380501  0.99619499  1
  Os  Os6  1  0.50380501  0.99619499  0.99619499  1
loop_
_geom_bond_atom_site_label_1
_geom_bond_atom_site_label_2
_geom_bond_distance
_geom_bond_site_symmetry_2
Sc0 V0 2.928294 1_555
Sc0 V3 2.928295 1_554
Sc1 V0 2.928294 1_455
Sc1 V2 2.928295 1_554
Sc2 V0 2.928295 1_545
Sc2 V1 2.928295 1_554
Sc3 V1 2.928294 1_455
Sc3 V2 2.928295 1_545
Sc4 V1 2.928294 1_555
Sc4 V3 2.928295 1_545
Sc5 V2 2.928294 1_555
Sc5 V3 2.928294 1_455
Al0 Os0 2.570425 1_556
Al0 Os2 2.723522 1_545
Al0 Os3 2.723522 1_455
Al0 Os1 2.723529 1_445
Al0 Al11 2.747577 1_555
Al0 Al9 2.747586 1_545
Al0 Al10 2.747586 1_455
Al0 Sc3 2.928574 1_555
Al0 Sc4 2.928582 1_455
Al0 Sc5 2.928582 1_545
Al0 V1 2.967167 1_455
Al0 V2 2.967167 1_545
Al0 V3 2.967173 1_445
Al1 Os0 2.570425 1_565
Al1 Os4 2.723522 1_554
Al1 Os3 2.723522 1_455
Al1 Os5 2.723529 1_454
Al1 Al11 2.747577 1_555
Al1 Al8 2.747586 1_554
Al1 Al10 2.747586 1_455
Al1 Sc1 2.928574 1_555
Al1 Sc0 2.928582 1_455
Al1 Sc5 2.928582 1_554
Al1 V2 2.967167 1_554
Al1 V0 2.967167 1_455
Al1 V3 2.967173 1_454
Al2 Os0 2.570424 1_655
Al2 Os4 2.723522 1_554
Al2 Os2 2.723522 1_545
Al2 Os6 2.723529 1_544
Al2 Al9 2.747586 1_545
Al2 Al8 2.747586 1_554
Al2 Sc2 2.928574 1_555
Al2 Sc0 2.928582 1_545
Al2 Sc4 2.928582 1_554
Al2 V1 2.967167 1_554
Al2 V0 2.967167 1_545
Al2 V3 2.967173 1_544
Al3 Os0 2.570431 1_555
Al3 Os6 2.723522 1_544
Al3 Os5 2.723522 1_454
Al3 Os1 2.723522 1_445
Al3 Al8 2.747572 1_554
Al3 Al9 2.747572 1_545
Al3 Sc2 2.928580 1_455
Al3 Sc1 2.928581 1_545
Al3 Sc3 2.928581 1_554
Al3 V0 2.967173 1_445
Al3 V1 2.967173 1_454
Al3 V2 2.967173 1_544
Al4 Os4 2.474813 1_554
Al4 Os5 2.474813 1_554
Al4 Os6 2.474813 1_554
Al4 V3 2.751465 1_554
Al4 V2 2.751465 1_554
Al4 V1 2.751465 1_554
Al4 Sc0 2.932305 1_555
Al4 Sc1 2.932305 1_555
Al4 Sc2 2.932305 1_555
Al5 Os2 2.474813 1_545
Al5 Os1 2.474813 1_545
Al5 Os6 2.474813 1_545
Al5 V2 2.751465 1_545
Al5 V3 2.751465 1_545
Al5 V0 2.751465 1_545
Al5 Sc4 2.932305 1_555
Al5 Sc3 2.932305 1_555
Al5 Sc2 2.932305 1_555
Al6 Os3 2.474813 1_455
Al6 Os1 2.474813 1_455
Al6 Os5 2.474813 1_455
Al6 V3 2.751465 1_455
Al6 V1 2.751465 1_455
Al6 V0 2.751465 1_455
Al6 Sc5 2.932305 1_555
Al6 Sc3 2.932305 1_555
Al6 Sc1 2.932305 1_555
Al7 Os3 2.474813 1_555
Al7 Os2 2.474813 1_555
Al7 Os4 2.474813 1_555
Al7 V2 2.751465 1_555
Al7 V0 2.751465 1_555
Al7 V1 2.751465 1_555
Al7 Sc5 2.932305 1_555
Al7 Sc4 2.932305 1_555
Al7 Sc0 2.932305 1_555
Al8 Os5 2.550461 1_455
Al8 Os6 2.550461 1_545
Al8 Os4 2.550469 1_555
Al8 Sc3 2.937911 1_555
Al8 Sc4 2.937916 1_555
Al8 Sc5 2.937917 1_555
Al9 Os1 2.550461 1_455
Al9 Os6 2.550461 1_554
Al9 Os2 2.550469 1_555
Al9 Sc1 2.937911 1_555
Al9 Sc0 2.937916 1_555
Al9 Sc5 2.937917 1_555
Al10 Os1 2.550461 1_545
Al10 Os5 2.550461 1_554
Al10 Os3 2.550469 1_555
Al10 Al3 2.747572 1_655
Al10 Sc2 2.937911 1_555
Al10 Sc0 2.937916 1_555
Al10 Sc4 2.937916 1_555
Al11 Os3 2.550464 1_455
Al11 Os2 2.550464 1_545
Al11 Os4 2.550464 1_554
Al11 Al2 2.747577 1_555
Al11 Sc2 2.937919 1_555
Al11 Sc1 2.937919 1_555
Al11 Sc3 2.937919 1_555
Os0 V3 2.568862 1_444
Os0 V2 2.568862 1_544
Os0 V1 2.568862 1_454
Os0 V0 2.568862 1_445
Os1 V0 2.672593 1_555
Os1 V3 2.672593 1_555
Os1 Sc5 3.109881 1_655
Os1 Sc4 3.109881 1_565
Os1 Sc1 3.109881 1_655
Os1 Sc2 3.109881 1_565
Os2 V0 2.672593 1_555
Os2 V2 2.672593 1_555
Os2 Sc5 3.109881 1_555
Os2 Sc2 3.109881 1_565
Os2 Sc0 3.109881 1_555
Os2 Sc3 3.109881 1_565
Os3 V0 2.672593 1_555
Os3 V1 2.672593 1_555
Os3 Sc4 3.109881 1_555
Os3 Sc1 3.109881 1_655
Os3 Sc0 3.109881 1_555
Os3 Sc3 3.109881 1_655
Os4 V1 2.672593 1_555
Os4 V2 2.672593 1_555
Os4 Sc5 3.109881 1_555
Os4 Sc4 3.109881 1_555
Os4 Sc1 3.109881 1_556
Os4 Sc2 3.109881 1_556
Os5 V1 2.672593 1_555
Os5 V3 2.672593 1_555
Os5 Sc5 3.109881 1_655
Os5 Sc2 3.109881 1_556
Os5 Sc3 3.109881 1_655
Os5 Sc0 3.109881 1_556
Os6 V2 2.672593 1_555
Os6 V3 2.672593 1_555
Os6 Sc4 3.109881 1_565
Os6 Sc1 3.109881 1_556
Os6 Sc3 3.109881 1_565
Os6 Sc0 3.109881 1_556
