# generated using pymatgen
data_TiNb6SiP3
_symmetry_space_group_name_H-M   'P 1'
_cell_length_a   7.71016035
_cell_length_b   7.71016122
_cell_length_c   13.84219186
_cell_angle_alpha   76.10254201
_cell_angle_beta   76.10254095
_cell_angle_gamma   26.05830511
_symmetry_Int_Tables_number   1
_chemical_formula_structural   TiNb6SiP3
_chemical_formula_sum   'Ti2 Nb12 Si2 P6'
_cell_volume   350.31827290
_cell_formula_units_Z   2
loop_
 _symmetry_equiv_pos_site_id
 _symmetry_equiv_pos_as_xyz
  1  'x, y, z'
loop_
 _atom_site_type_symbol
 _atom_site_label
 _atom_site_symmetry_multiplicity
 _atom_site_fract_x
 _atom_site_fract_y
 _atom_site_fract_z
 _atom_site_occupancy
  Ti  Ti0  1  0.00000000  0.00000000  0.00000000  1
  Ti  Ti1  1  0.50000000  0.50000000  0.50000000  1
  Nb  Nb0  1  0.43049926  0.43049926  0.17446577  1
  Nb  Nb1  1  0.56950074  0.56950074  0.82553423  1
  Nb  Nb2  1  0.19747426  0.19747426  0.68617978  1
  Nb  Nb3  1  0.80252574  0.80252574  0.31382022  1
  Nb  Nb4  1  0.20654958  0.20654958  0.20526516  1
  Nb  Nb5  1  0.79345042  0.79345042  0.79473484  1
  Nb  Nb6  1  0.33800618  0.33800618  0.96844772  1
  Nb  Nb7  1  0.66199382  0.66199382  0.03155228  1
  Nb  Nb8  1  0.00261230  0.00261230  0.33602130  1
  Nb  Nb9  1  0.99738770  0.99738770  0.66397870  1
  Nb  Nb10  1  0.17350473  0.17350473  0.45839768  1
  Nb  Nb11  1  0.82649527  0.82649527  0.54160232  1
  Si  Si0  1  0.17560216  0.17560216  0.88932643  1
  Si  Si1  1  0.82439784  0.82439784  0.11067357  1
  P  P0  1  0.37617402  0.37617402  0.39811220  1
  P  P1  1  0.62382598  0.62382598  0.60188780  1
  P  P2  1  0.37243292  0.37243292  0.66122455  1
  P  P3  1  0.62756708  0.62756708  0.33877545  1
  P  P4  1  0.06175339  0.06175339  0.15008294  1
  P  P5  1  0.93824661  0.93824661  0.84991706  1
loop_
_geom_bond_atom_site_label_1
_geom_bond_atom_site_label_2
_geom_bond_distance
_geom_bond_site_symmetry_2
Nb0 P4 2.587566 1_655
Nb0 P4 2.587567 1_565
Nb0 Si1 2.652548 1_455
Nb0 Si1 2.652548 1_545
Nb0 P0 3.000672 1_555
Nb1 P5 2.587566 1_455
Nb1 P5 2.587567 1_545
Nb1 Si0 2.652548 1_655
Nb1 Si0 2.652548 1_565
Nb1 P1 3.000672 1_555
Nb2 P1 2.498717 1_455
Nb2 P1 2.498717 1_545
Nb2 P2 2.565240 1_555
Nb2 Si0 2.749490 1_555
Nb3 P0 2.498717 1_655
Nb3 P0 2.498717 1_565
Nb3 P3 2.565240 1_555
Nb3 Si1 2.749490 1_555
Nb4 P4 2.476844 1_555
Nb4 Si1 2.593728 1_545
Nb4 Si1 2.593728 1_455
Nb4 P3 2.600686 1_455
Nb4 P3 2.600686 1_545
Nb5 P5 2.476844 1_555
Nb5 Si0 2.593728 1_565
Nb5 Si0 2.593728 1_655
Nb5 P2 2.600686 1_655
Nb5 P2 2.600686 1_565
Nb6 Si1 2.596274 1_456
Nb6 Si1 2.596274 1_546
Nb6 P5 2.600579 1_545
Nb6 P5 2.600579 1_455
Nb6 Si0 2.910309 1_555
Nb7 Si0 2.596274 1_654
Nb7 Si0 2.596274 1_564
Nb7 P4 2.600579 1_565
Nb7 P4 2.600579 1_655
Nb7 Si1 2.910309 1_555
Nb8 P4 2.507250 1_555
Nb8 P0 2.561906 1_455
Nb8 P0 2.561907 1_545
Nb8 P3 2.565581 1_545
Nb8 P3 2.565582 1_455
Nb9 P5 2.507250 1_555
Nb9 P1 2.561906 1_655
Nb9 P1 2.561907 1_565
Nb9 P2 2.565581 1_565
Nb9 P2 2.565582 1_655
Nb10 P1 2.606265 1_455
Nb10 P1 2.606265 1_545
Nb10 P3 2.608250 1_455
Nb10 P3 2.608251 1_545
Nb10 P0 2.951982 1_555
Nb11 P0 2.606265 1_655
Nb11 P0 2.606265 1_565
Nb11 P2 2.608250 1_655
Nb11 P2 2.608251 1_565
Nb11 P1 2.951982 1_555
Si0 Ti0 2.704425 1_556
Si1 Ti0 2.704425 1_665
P0 Ti1 2.596796 1_555
P1 Ti1 2.596796 1_555
P2 Ti1 2.558233 1_555
P3 Ti1 2.558233 1_555
P4 Ti0 2.475263 1_555
P5 Ti0 2.475263 1_666
