# generated using pymatgen
data_CsSb12OsRh3
_symmetry_space_group_name_H-M   'P 1'
_cell_length_a   8.14301328
_cell_length_b   8.14301291
_cell_length_c   8.14301267
_cell_angle_alpha   109.47185482
_cell_angle_beta   109.47185642
_cell_angle_gamma   109.47183246
_symmetry_Int_Tables_number   1
_chemical_formula_structural   CsSb12OsRh3
_chemical_formula_sum   'Cs1 Sb12 Os1 Rh3'
_cell_volume   415.64580297
_cell_formula_units_Z   1
loop_
 _symmetry_equiv_pos_site_id
 _symmetry_equiv_pos_as_xyz
  1  'x, y, z'
loop_
 _atom_site_type_symbol
 _atom_site_label
 _atom_site_symmetry_multiplicity
 _atom_site_fract_x
 _atom_site_fract_y
 _atom_site_fract_z
 _atom_site_occupancy
  Cs  Cs0  1  0.00000000  0.00000000  0.00000000  1
  Sb  Sb0  1  0.15673122  0.81190043  0.65501120  1
  Sb  Sb1  1  0.15844621  0.50013114  0.34395134  1
  Sb  Sb2  1  0.49986886  0.65604866  0.84155379  1
  Sb  Sb3  1  0.34498880  0.84326878  0.18809957  1
  Sb  Sb4  1  0.81190043  0.65501120  0.15673122  1
  Sb  Sb5  1  0.65604866  0.84155379  0.49986886  1
  Sb  Sb6  1  0.18809957  0.34498880  0.84326878  1
  Sb  Sb7  1  0.65501120  0.15673122  0.81190043  1
  Sb  Sb8  1  0.34395134  0.15844621  0.50013114  1
  Sb  Sb9  1  0.50013114  0.34395134  0.15844621  1
  Sb  Sb10  1  0.84155379  0.49986886  0.65604866  1
  Sb  Sb11  1  0.84326878  0.18809957  0.34498880  1
  Os  Os0  1  0.50000000  0.50000000  0.50000000  1
  Rh  Rh0  1  0.00000000  0.00000000  0.50000000  1
  Rh  Rh1  1  0.50000000  0.00000000  0.00000000  1
  Rh  Rh2  1  0.00000000  0.50000000  0.00000000  1
loop_
_geom_bond_atom_site_label_1
_geom_bond_atom_site_label_2
_geom_bond_distance
_geom_bond_site_symmetry_2
Cs0 Sb8 3.546569 1_555
Cs0 Sb5 3.546569 1_444
Cs0 Sb1 3.546569 1_555
Cs0 Sb10 3.546569 1_444
Cs0 Sb9 3.546570 1_555
Cs0 Sb2 3.546570 1_444
Cs0 Sb3 3.562541 1_545
Cs0 Sb7 3.562541 1_454
Cs0 Sb0 3.562541 1_544
Cs0 Sb11 3.562541 1_455
Cs0 Sb6 3.562542 1_554
Cs0 Sb4 3.562542 1_445
Sb0 Sb1 2.936217 1_555
Sb0 Sb10 2.953680 1_455
Sb1 Sb11 2.953680 1_455
Sb2 Sb6 2.936218 1_555
Sb2 Sb4 2.953679 1_556
Sb3 Sb5 2.936217 1_555
Sb3 Sb8 2.953679 1_565
Sb4 Sb9 2.936218 1_555
Sb5 Sb7 2.953679 1_565
Sb6 Sb9 2.953679 1_556
Sb7 Sb8 2.936217 1_555
Sb10 Sb11 2.936217 1_555
Os0 Sb2 2.645162 1_555
Os0 Sb9 2.645162 1_555
Os0 Sb10 2.645162 1_555
Os0 Sb1 2.645162 1_555
Os0 Sb5 2.645163 1_555
Os0 Sb8 2.645163 1_555
Rh0 Sb11 2.662043 1_455
Rh0 Sb0 2.662043 1_545
Rh0 Sb6 2.663282 1_555
Rh0 Sb4 2.663282 1_445
Rh0 Sb5 2.664033 1_445
Rh0 Sb8 2.664033 1_555
Rh1 Sb7 2.662043 1_554
Rh1 Sb3 2.662043 1_545
Rh1 Sb11 2.663282 1_555
Rh1 Sb0 2.663282 1_544
Rh1 Sb9 2.664033 1_555
Rh1 Sb2 2.664033 1_544
Rh2 Sb4 2.662043 1_455
Rh2 Sb6 2.662043 1_554
Rh2 Sb3 2.663282 1_555
Rh2 Sb7 2.663282 1_454
Rh2 Sb1 2.664033 1_555
Rh2 Sb10 2.664033 1_454
