# generated using pymatgen
data_AlAu2
_symmetry_space_group_name_H-M   'P 1'
_cell_length_a   3.21506488
_cell_length_b   8.89481825
_cell_length_c   17.21672134
_cell_angle_alpha   90.00000000
_cell_angle_beta   90.00000000
_cell_angle_gamma   90.00000000
_symmetry_Int_Tables_number   1
_chemical_formula_structural   AlAu2
_chemical_formula_sum   'Al10 Au20'
_cell_volume   492.35377278
_cell_formula_units_Z   10
loop_
 _symmetry_equiv_pos_site_id
 _symmetry_equiv_pos_as_xyz
  1  'x, y, z'
loop_
 _atom_site_type_symbol
 _atom_site_label
 _atom_site_symmetry_multiplicity
 _atom_site_fract_x
 _atom_site_fract_y
 _atom_site_fract_z
 _atom_site_occupancy
  Al  Al0  1  -0.00000000  -0.00000000  -0.00000000  1
  Al  Al1  1  0.50000000  0.50000000  0.50000000  1
  Al  Al2  1  -0.00000000  0.97901155  0.20206121  1
  Al  Al3  1  -0.00000000  0.02098845  0.79793879  1
  Al  Al4  1  0.50000000  0.47901155  0.29793879  1
  Al  Al5  1  0.50000000  0.52098845  0.70206121  1
  Al  Al6  1  -0.00000000  0.02881532  0.40154526  1
  Al  Al7  1  -0.00000000  0.97118468  0.59845474  1
  Al  Al8  1  0.50000000  0.52881532  0.09845474  1
  Al  Al9  1  0.50000000  0.47118468  0.90154526  1
  Au  Au0  1  -0.00000000  0.34449143  0.01431275  1
  Au  Au1  1  -0.00000000  0.65550857  0.98568725  1
  Au  Au2  1  0.50000000  0.84449143  0.48568725  1
  Au  Au3  1  0.50000000  0.15550857  0.51431275  1
  Au  Au4  1  -0.00000000  0.36156421  0.18637179  1
  Au  Au5  1  -0.00000000  0.63843579  0.81362821  1
  Au  Au6  1  0.50000000  0.86156421  0.31362821  1
  Au  Au7  1  0.50000000  0.13843579  0.68637179  1
  Au  Au8  1  0.00000000  0.32623276  0.40461510  1
  Au  Au9  1  0.00000000  0.67376724  0.59538490  1
  Au  Au10  1  0.50000000  0.82623276  0.09538490  1
  Au  Au11  1  0.50000000  0.17376724  0.90461510  1
  Au  Au12  1  0.00000000  0.36515418  0.60681207  1
  Au  Au13  1  -0.00000000  0.63484582  0.39318793  1
  Au  Au14  1  0.50000000  0.86515418  0.89318793  1
  Au  Au15  1  0.50000000  0.13484582  0.10681207  1
  Au  Au16  1  0.00000000  0.33029152  0.78729706  1
  Au  Au17  1  -0.00000000  0.66970848  0.21270294  1
  Au  Au18  1  0.50000000  0.83029152  0.71270294  1
  Au  Au19  1  0.50000000  0.16970848  0.28729706  1
loop_
_geom_bond_atom_site_label_1
_geom_bond_atom_site_label_2
_geom_bond_distance
_geom_bond_site_symmetry_2
Al0 Au15 2.721129 1_455
Al0 Au15 2.721129 1_555
Al0 Au14 2.721129 1_544
Al0 Au14 2.721129 1_444
Al0 Au10 2.769476 1_545
Al0 Au10 2.769476 1_445
Al0 Au11 2.769476 1_554
Al0 Au11 2.769476 1_454
Al0 Au0 3.074081 1_555
Al0 Au1 3.074081 1_544
Al1 Au13 2.721129 1_555
Al1 Au13 2.721129 1_655
Al1 Au12 2.721129 1_555
Al1 Au12 2.721129 1_655
Al1 Au8 2.769476 1_555
Al1 Au8 2.769476 1_655
Al1 Au9 2.769476 1_555
Al1 Au9 2.769476 1_655
Al1 Au3 3.074081 1_555
Al1 Au2 3.074081 1_555
Al2 Au15 2.682290 1_565
Al2 Au15 2.682290 1_465
Al2 Au6 2.713861 1_455
Al2 Au6 2.713861 1_555
Al2 Au17 2.757288 1_555
Al2 Au19 2.759494 1_465
Al2 Au19 2.759494 1_565
Al2 Au10 2.793571 1_455
Al2 Au10 2.793571 1_555
Al3 Au14 2.682290 1_545
Al3 Au14 2.682290 1_445
Al3 Au7 2.713861 1_555
Al3 Au7 2.713861 1_455
Al3 Au16 2.757288 1_555
Al3 Au18 2.759494 1_545
Al3 Au18 2.759494 1_445
Al3 Au11 2.793571 1_555
Al3 Au11 2.793571 1_455
Al4 Au13 2.682290 1_655
Al4 Au13 2.682290 1_555
Al4 Au4 2.713861 1_655
Al4 Au4 2.713861 1_555
Al4 Au19 2.757288 1_555
Al4 Au17 2.759494 1_555
Al4 Au17 2.759494 1_655
Al4 Au8 2.793571 1_555
Al4 Au8 2.793571 1_655
Al5 Au12 2.682290 1_655
Al5 Au12 2.682290 1_555
Al5 Au5 2.713861 1_555
Al5 Au5 2.713861 1_655
Al5 Au18 2.757288 1_555
Al5 Au16 2.759494 1_555
Al5 Au16 2.759494 1_655
Al5 Au9 2.793571 1_555
Al5 Au9 2.793571 1_655
Al6 Au8 2.646002 1_555
Al6 Au6 2.662411 1_545
Al6 Au6 2.662411 1_445
Al6 Au2 2.714921 1_445
Al6 Au2 2.714921 1_545
Al6 Au3 2.761062 1_455
Al6 Au3 2.761062 1_555
Al6 Au19 2.832618 1_455
Al6 Au19 2.832618 1_555
Al7 Au9 2.646002 1_555
Al7 Au7 2.662411 1_465
Al7 Au7 2.662411 1_565
Al7 Au3 2.714921 1_465
Al7 Au3 2.714921 1_565
Al7 Au2 2.761062 1_455
Al7 Au2 2.761062 1_555
Al7 Au18 2.832618 1_555
Al7 Au18 2.832618 1_455
Al8 Au10 2.646002 1_555
Al8 Au4 2.662411 1_555
Al8 Au4 2.662411 1_655
Al8 Au0 2.714921 1_655
Al8 Au0 2.714921 1_555
Al8 Au1 2.761062 1_654
Al8 Au1 2.761062 1_554
Al8 Au17 2.832618 1_555
Al8 Au17 2.832618 1_655
Al9 Au11 2.646002 1_555
Al9 Au5 2.662411 1_655
Al9 Au5 2.662411 1_555
Al9 Au1 2.714921 1_655
Al9 Au1 2.714921 1_555
Al9 Au0 2.761062 1_556
Al9 Au0 2.761062 1_656
Al9 Au16 2.832618 1_555
Al9 Au16 2.832618 1_655
