# generated using pymatgen
data_Ca10BiPb5F2
_symmetry_space_group_name_H-M   'P 1'
_cell_length_a   9.52468023
_cell_length_b   9.52468003
_cell_length_c   9.52468077
_cell_angle_alpha   128.65348534
_cell_angle_beta   128.65348702
_cell_angle_gamma   75.56877419
_symmetry_Int_Tables_number   1
_chemical_formula_structural   Ca10BiPb5F2
_chemical_formula_sum   'Ca10 Bi1 Pb5 F2'
_cell_volume   512.70704736
_cell_formula_units_Z   1
loop_
 _symmetry_equiv_pos_site_id
 _symmetry_equiv_pos_as_xyz
  1  'x, y, z'
loop_
 _atom_site_type_symbol
 _atom_site_label
 _atom_site_symmetry_multiplicity
 _atom_site_fract_x
 _atom_site_fract_y
 _atom_site_fract_z
 _atom_site_occupancy
  Ca  Ca0  1  0.49715125  0.49715125  0.00000000  1
  Ca  Ca1  1  0.00284875  0.00284875  1.00000000  1
  Ca  Ca2  1  0.51013490  0.00387903  0.81402489  1
  Ca  Ca3  1  0.18985514  0.69611001  0.18597511  1
  Ca  Ca4  1  0.00387903  0.18985514  0.49374513  1
  Ca  Ca5  1  0.69611001  0.51013490  0.50625487  1
  Ca  Ca6  1  0.49612097  0.98986510  0.18597511  1
  Ca  Ca7  1  0.80388999  0.31014486  0.81402489  1
  Ca  Ca8  1  0.98986510  0.80388999  0.49374513  1
  Ca  Ca9  1  0.31014486  0.49612097  0.50625487  1
  Bi  Bi0  1  0.25000000  0.25000000  0.00000000  1
  Pb  Pb0  1  0.75000000  0.75000000  0.00000000  1
  Pb  Pb1  1  0.86647929  0.36647929  0.23296059  1
  Pb  Pb2  1  0.13352071  0.63352071  0.76704041  1
  Pb  Pb3  1  0.36647929  0.13352071  0.50000000  1
  Pb  Pb4  1  0.63352071  0.86647929  0.50000000  1
  F  F0  1  0.25000000  0.75000000  0.50000000  1
  F  F1  1  0.75000000  0.25000000  0.50000000  1
loop_
_geom_bond_atom_site_label_1
_geom_bond_atom_site_label_2
_geom_bond_distance
_geom_bond_site_symmetry_2
Ca0 Pb4 3.219292 1_555
Ca0 Pb3 3.219292 1_554
Ca0 Pb2 3.219294 1_554
Ca0 Pb1 3.219296 1_555
Ca0 Pb0 3.806670 1_555
Ca1 Pb4 3.219292 1_445
Ca1 Pb3 3.219292 1_556
Ca1 Pb2 3.219294 1_545
Ca1 Pb1 3.219297 1_456
Ca1 Pb0 3.806670 1_446
Ca2 F0 2.371898 1_545
Ca2 Pb4 3.282449 1_545
Ca2 Pb3 3.316933 1_555
Ca2 Pb1 3.328418 1_556
Ca2 Pb0 3.427287 1_546
Ca3 F0 2.371903 1_555
Ca3 Pb3 3.282447 1_565
Ca3 Pb4 3.316924 1_555
Ca3 Pb2 3.328424 1_554
Ca3 Pb0 3.427295 1_455
Ca4 F1 2.371894 1_455
Ca4 Pb1 3.282433 1_455
Ca4 Pb2 3.316929 1_555
Ca4 Pb3 3.328424 1_555
Ca4 Pb0 3.427294 1_445
Ca5 F1 2.371903 1_555
Ca5 Pb2 3.282449 1_655
Ca5 Pb1 3.316909 1_555
Ca5 Pb4 3.328414 1_555
Ca5 Pb0 3.427296 1_556
Ca6 F1 2.371898 1_565
Ca6 Pb4 3.282449 1_555
Ca6 Pb3 3.316933 1_565
Ca6 Pb2 3.328419 1_554
Ca6 Pb0 3.427287 1_555
Ca7 F1 2.371903 1_555
Ca7 Pb3 3.282447 1_555
Ca7 Pb4 3.316924 1_545
Ca7 Pb1 3.328434 1_556
Ca7 Pb0 3.427295 1_556
Ca8 F0 2.371903 1_655
Ca8 Pb1 3.282452 1_555
Ca8 Pb2 3.316917 1_655
Ca8 Pb4 3.328415 1_555
Ca8 Pb0 3.427296 1_555
Ca9 F0 2.371894 1_555
Ca9 Pb2 3.282441 1_555
Ca9 Pb1 3.316931 1_455
Ca9 Pb3 3.328424 1_555
Ca9 Pb0 3.427294 1_556
Bi0 Ca4 3.488892 1_554
Bi0 Ca9 3.488892 1_555
Bi0 Ca5 3.488893 1_555
Bi0 Ca8 3.488893 1_444
Bi0 Ca3 3.488893 1_555
Bi0 Ca7 3.488893 1_454
Bi0 Ca6 3.488895 1_545
Bi0 Ca2 3.488895 1_554
Bi0 Ca0 3.720894 1_555
Bi0 Ca1 3.720894 1_554
