# generated using pymatgen
data_Y3B6(IrRu)4
_symmetry_space_group_name_H-M   'P 1'
_cell_length_a   9.96651466
_cell_length_b   9.17232679
_cell_length_c   5.52440223
_cell_angle_alpha   81.30575228
_cell_angle_beta   65.46932235
_cell_angle_gamma   33.04576401
_symmetry_Int_Tables_number   1
_chemical_formula_structural   Y3B6(IrRu)4
_chemical_formula_sum   'Y3 B6 Ir4 Ru4'
_cell_volume   229.96481105
_cell_formula_units_Z   1
loop_
 _symmetry_equiv_pos_site_id
 _symmetry_equiv_pos_as_xyz
  1  'x, y, z'
loop_
 _atom_site_type_symbol
 _atom_site_label
 _atom_site_symmetry_multiplicity
 _atom_site_fract_x
 _atom_site_fract_y
 _atom_site_fract_z
 _atom_site_occupancy
  Y  Y0  1  0.99993868  0.99993868  0.00006132  1
  Y  Y1  1  0.82143748  0.82143748  0.17856252  1
  Y  Y2  1  0.17876157  0.17876157  0.82123843  1
  B  B0  1  0.67026325  0.33006051  0.67764334  1
  B  B1  1  0.33006051  0.67026325  0.32203290  1
  B  B2  1  0.16905701  0.48526036  0.51496706  1
  B  B3  1  0.48526036  0.16905701  0.83071557  1
  B  B4  1  0.82580656  0.51916959  0.49149811  1
  B  B5  1  0.51916959  0.82580656  0.16352575  1
  Ir  Ir0  1  0.91425990  0.91425990  0.58574010  1
  Ir  Ir1  1  0.41406911  0.41406911  0.58593089  1
  Ir  Ir2  1  0.58532045  0.58532045  0.41467955  1
  Ir  Ir3  1  0.24966515  0.24966515  0.25033485  1
  Ru  Ru0  1  0.75051277  0.75051277  0.74948723  1
  Ru  Ru1  1  0.08638175  0.08638175  0.41361825  1
  Ru  Ru2  1  0.58615236  0.58615236  0.91384764  1
  Ru  Ru3  1  0.41388452  0.41388452  0.08611548  1
loop_
_geom_bond_atom_site_label_1
_geom_bond_atom_site_label_2
_geom_bond_distance
_geom_bond_site_symmetry_2
Y0 Y1 3.123518 1_555
Y0 Y2 3.129147 1_664
B0 Ru2 2.154125 1_555
B0 Ru3 2.157634 1_556
B0 Ir0 2.174545 1_545
B0 Ru1 2.178394 1_655
B0 Ir2 2.231335 1_555
B0 Ir1 2.242285 1_555
B0 Y0 3.112375 1_546
B0 Y0 3.188827 1_456
B0 Y0 3.242060 1_545
B1 Ru2 2.154125 1_554
B1 Ru3 2.157635 1_555
B1 Ir0 2.174545 1_455
B1 Ru1 2.178394 1_565
B1 Ir2 2.231335 1_555
B1 Ir1 2.242285 1_555
B1 Y0 3.112375 1_455
B1 Y0 3.188827 1_545
B1 Y0 3.242060 1_456
B2 Ru0 2.109399 1_455
B2 Ir3 2.126446 1_555
B2 Ir1 2.141811 1_555
B2 Ir0 2.230199 1_455
B2 Ru3 2.232937 1_555
B2 Y2 3.002923 1_555
B2 Y1 3.133699 1_545
B2 Y1 3.148319 1_456
B2 Y1 3.266369 1_455
B3 Ru0 2.109399 1_545
B3 Ir3 2.126445 1_556
B3 Ir1 2.141811 1_555
B3 Ir0 2.230199 1_545
B3 Ru3 2.232937 1_556
B3 Y2 3.002923 1_555
B3 Y1 3.133699 1_456
B3 Y1 3.148319 1_545
B3 Y1 3.266369 1_546
B4 Ru0 2.110405 1_555
B4 Ir3 2.132308 1_655
B4 Ir2 2.149799 1_555
B4 Ru2 2.207279 1_555
B4 Ru1 2.234542 1_655
B4 Y1 3.014698 1_555
B4 Y2 3.110830 1_565
B4 Y2 3.178037 1_654
B4 Y2 3.260295 1_655
B5 Ru0 2.110405 1_554
B5 Ir3 2.132308 1_565
B5 Ir2 2.149799 1_555
B5 Ru2 2.207279 1_554
B5 Ru1 2.234542 1_565
B5 Y1 3.014698 1_555
B5 Y2 3.110830 1_654
B5 Y2 3.178037 1_565
B5 Y2 3.260295 1_564
Ir0 Y0 3.142853 1_555
Ir0 Y0 3.142854 1_556
Ir0 Y1 3.204368 1_556
Ir0 Y1 3.204369 1_555
Ir1 Y0 3.136761 1_545
Ir1 Y0 3.136761 1_456
Ir1 Y1 3.195131 1_456
Ir1 Y1 3.195131 1_545
Ir2 Y0 3.132681 1_456
Ir2 Y0 3.132681 1_545
Ir2 Y2 3.202341 1_654
Ir2 Y2 3.202341 1_565
Ir3 Y1 3.021416 1_455
Ir3 Y1 3.021416 1_545
Ir3 Y2 3.028056 1_555
Ir3 Y2 3.028056 1_554
Ru0 Y2 3.021263 1_655
Ru0 Y2 3.021263 1_565
Ru0 Y1 3.028207 1_555
Ru0 Y1 3.028207 1_556
Ru1 Y0 3.149255 1_446
Ru1 Y0 3.149255 1_445
Ru1 Y2 3.200450 1_554
Ru1 Y2 3.200450 1_555
Ru2 Y0 3.134894 1_546
Ru2 Y0 3.134894 1_456
Ru2 Y2 3.190259 1_565
Ru2 Y2 3.190259 1_655
Ru3 Y0 3.133552 1_455
Ru3 Y0 3.133552 1_545
Ru3 Y1 3.188818 1_545
Ru3 Y1 3.188819 1_455
