# generated using pymatgen
data_FeHgBr4
_symmetry_space_group_name_H-M   'P 1'
_cell_length_a   6.82514150
_cell_length_b   6.89111185
_cell_length_c   9.87777901
_cell_angle_alpha   83.15674344
_cell_angle_beta   75.70960020
_cell_angle_gamma   61.51072947
_symmetry_Int_Tables_number   1
_chemical_formula_structural   FeHgBr4
_chemical_formula_sum   'Fe2 Hg2 Br8'
_cell_volume   395.68691423
_cell_formula_units_Z   2
loop_
 _symmetry_equiv_pos_site_id
 _symmetry_equiv_pos_as_xyz
  1  'x, y, z'
loop_
 _atom_site_type_symbol
 _atom_site_label
 _atom_site_symmetry_multiplicity
 _atom_site_fract_x
 _atom_site_fract_y
 _atom_site_fract_z
 _atom_site_occupancy
  Fe  Fe0  1  0.38908191  0.84510884  0.75894952  1
  Fe  Fe1  1  0.61091809  0.15489116  0.24105048  1
  Hg  Hg0  1  0.94577640  0.50529981  0.88168549  1
  Hg  Hg1  1  0.05422360  0.49470019  0.11831451  1
  Br  Br0  1  0.75659111  0.53132818  0.67229809  1
  Br  Br1  1  0.24340889  0.46867182  0.32770191  1
  Br  Br2  1  0.32487517  0.82516447  0.00108371  1
  Br  Br3  1  0.67512483  0.17483553  0.99891629  1
  Br  Br4  1  0.11563561  0.81781169  0.67359216  1
  Br  Br5  1  0.88436439  0.18218831  0.32640784  1
  Br  Br6  1  0.40489252  0.17227932  0.68498850  1
  Br  Br7  1  0.59510748  0.82772068  0.31501150  1
loop_
_geom_bond_atom_site_label_1
_geom_bond_atom_site_label_2
_geom_bond_distance
_geom_bond_site_symmetry_2
Hg0 Hg1 2.603515 1_656
Br0 Fe0 2.430380 1_555
Br0 Hg0 2.643153 1_555
Br1 Fe1 2.430380 1_555
Br1 Hg1 2.643153 1_555
Br2 Fe0 2.322301 1_554
Br3 Fe1 2.322301 1_556
Br4 Fe0 2.319250 1_555
Br4 Hg0 3.218283 1_455
Br5 Fe1 2.319250 1_555
Br5 Hg1 3.218283 1_655
Br6 Fe0 2.330046 1_545
Br6 Hg0 3.171314 1_455
Br7 Fe1 2.330046 1_565
Br7 Hg1 3.171314 1_655
