# generated using pymatgen
data_In4Pd7PtAu4
_symmetry_space_group_name_H-M   'P 1'
_cell_length_a   5.86069455
_cell_length_b   5.86180543
_cell_length_c   7.77457665
_cell_angle_alpha   90.00002764
_cell_angle_beta   89.99998383
_cell_angle_gamma   90.11599743
_symmetry_Int_Tables_number   1
_chemical_formula_structural   In4Pd7PtAu4
_chemical_formula_sum   'In4 Pd7 Pt1 Au4'
_cell_volume   267.08921122
_cell_formula_units_Z   1
loop_
 _symmetry_equiv_pos_site_id
 _symmetry_equiv_pos_as_xyz
  1  'x, y, z'
loop_
 _atom_site_type_symbol
 _atom_site_label
 _atom_site_symmetry_multiplicity
 _atom_site_fract_x
 _atom_site_fract_y
 _atom_site_fract_z
 _atom_site_occupancy
  In  In0  1  0.25030007  0.25018231  0.99962867  1
  In  In1  1  0.74970381  0.74982450  0.99963795  1
  In  In2  1  0.25003795  0.25018684  0.50036415  1
  In  In3  1  0.74996311  0.74981283  0.50035463  1
  Pd  Pd0  1  0.99999148  0.50000979  0.24986473  1
  Pd  Pd1  1  0.49996131  0.00000434  0.25013678  1
  Pd  Pd2  1  0.49998104  0.50002125  0.25014552  1
  Pd  Pd3  1  0.50003404  0.99998109  0.74986769  1
  Pd  Pd4  1  0.50002198  0.49997853  0.74986093  1
  Pd  Pd5  1  0.00001316  0.00000439  0.75013165  1
  Pd  Pd6  1  0.00001108  0.49999058  0.75013907  1
  Pt  Pt0  1  0.99998902  0.00000139  0.24988544  1
  Au  Au0  1  0.74937369  0.25049516  0.99956877  1
  Au  Au1  1  0.25062277  0.74951580  0.99955346  1
  Au  Au2  1  0.74957997  0.25049319  0.50042040  1
  Au  Au3  1  0.25041251  0.74950200  0.50043816  1
loop_
_geom_bond_atom_site_label_1
_geom_bond_atom_site_label_2
_geom_bond_distance
_geom_bond_site_symmetry_2
In0 Pd4 2.836912 1_555
In0 Pd5 2.838331 1_555
In0 Pd6 2.840246 1_555
In0 Pd2 2.840907 1_556
In0 Pd3 2.841196 1_545
In0 Pt0 2.842454 1_456
In0 Pd0 2.844329 1_456
In0 Pd1 2.844880 1_556
In1 Pd4 2.836990 1_555
In1 Pd5 2.838455 1_665
In1 Pd6 2.840427 1_655
In1 Pd2 2.840876 1_556
In1 Pd3 2.840917 1_555
In1 Pt0 2.842314 1_566
In1 Pd0 2.844179 1_556
In1 Pd1 2.845080 1_566
In2 Pd4 2.836248 1_555
In2 Pd5 2.838991 1_555
In2 Pd2 2.840095 1_555
In2 Pd3 2.840637 1_545
In2 Pd6 2.840952 1_555
In2 Pt0 2.842858 1_455
In2 Pd1 2.844191 1_555
In2 Pd0 2.844924 1_455
In3 Pd4 2.836298 1_555
In3 Pd5 2.839145 1_665
In3 Pd2 2.840032 1_555
In3 Pd3 2.840370 1_555
In3 Pd6 2.841124 1_655
In3 Pt0 2.842747 1_565
In3 Pd1 2.844406 1_565
In3 Pd0 2.844757 1_555
Pd0 Pd2 2.930287 1_655
Pd0 Pd2 2.930409 1_555
Pd0 Pt0 2.930853 1_565
Pd0 Pt0 2.930952 1_555
Pd1 Pt0 2.930185 1_455
Pd1 Pt0 2.930510 1_555
Pd1 Pd2 2.930804 1_545
Pd1 Pd2 2.931002 1_555
Au0 Pd6 2.836974 1_655
Au0 Pd3 2.837575 1_545
Au0 Pd4 2.837584 1_555
Au0 Pd0 2.841580 1_556
Au0 Pd1 2.842339 1_556
Au0 Pd2 2.842461 1_556
Au0 Pd5 2.843098 1_655
Au0 Pt0 2.847704 1_556
Au0 In0 2.924915 1_555
Au0 In1 2.926968 1_555
Au0 In1 2.934839 1_545
Au0 In0 2.935781 1_655
Au1 Pd6 2.836904 1_555
Au1 Pd3 2.837562 1_555
Au1 Pd4 2.837808 1_555
Au1 Pd0 2.841677 1_456
Au1 Pd1 2.842191 1_566
Au1 Pd2 2.842345 1_556
Au1 Pd5 2.842921 1_565
Au1 Pt0 2.847815 1_466
Au1 In1 2.924958 1_555
Au1 In0 2.926993 1_555
Au1 In0 2.934814 1_565
Au1 In1 2.935737 1_455
Au2 Pd4 2.836791 1_555
Au2 Pd3 2.836842 1_545
Au2 Pd6 2.837891 1_655
Au2 Pd1 2.841439 1_555
Au2 Pd2 2.841484 1_555
Au2 Pd0 2.842346 1_555
Au2 Pd5 2.843922 1_655
Au2 Pt0 2.848232 1_555
Au2 In3 2.926911 1_555
Au2 In2 2.927660 1_555
Au2 In2 2.933036 1_655
Au2 In3 2.934896 1_545
Au3 Pd3 2.836875 1_555
Au3 Pd4 2.836970 1_555
Au3 Pd6 2.837750 1_555
Au3 Pd2 2.841342 1_555
Au3 Pd1 2.841364 1_565
Au3 Pd0 2.842396 1_455
Au3 Pd5 2.843765 1_565
Au3 Pt0 2.848395 1_465
Au3 In2 2.926885 1_555
Au3 In3 2.927710 1_555
Au3 In3 2.932985 1_455
Au3 In2 2.934922 1_565
