# generated using pymatgen
data_Y2MgNi7B2
_symmetry_space_group_name_H-M   'P 1'
_cell_length_a   5.00419199
_cell_length_b   5.00419164
_cell_length_c   7.56590891
_cell_angle_alpha   109.34019920
_cell_angle_beta   109.34019806
_cell_angle_gamma   59.94885693
_symmetry_Int_Tables_number   1
_chemical_formula_structural   Y2MgNi7B2
_chemical_formula_sum   'Y2 Mg1 Ni7 B2'
_cell_volume   151.53863482
_cell_formula_units_Z   1
loop_
 _symmetry_equiv_pos_site_id
 _symmetry_equiv_pos_as_xyz
  1  'x, y, z'
loop_
 _atom_site_type_symbol
 _atom_site_label
 _atom_site_symmetry_multiplicity
 _atom_site_fract_x
 _atom_site_fract_y
 _atom_site_fract_z
 _atom_site_occupancy
  Y  Y0  1  0.35267438  0.35267438  0.05835009  1
  Y  Y1  1  0.50418505  0.50418505  0.51236547  1
  Mg  Mg0  1  0.64655053  0.64655053  0.94058303  1
  Ni  Ni0  1  0.99877060  0.99877060  0.99629714  1
  Ni  Ni1  1  0.93332490  0.93332490  0.29491512  1
  Ni  Ni2  1  0.93356645  0.42836303  0.29536026  1
  Ni  Ni3  1  0.42836303  0.93356645  0.29536026  1
  Ni  Ni4  1  0.57243364  0.06587248  0.70388333  1
  Ni  Ni5  1  0.06587248  0.57243364  0.70388333  1
  Ni  Ni6  1  0.06596755  0.06596755  0.70417643  1
  B  B0  1  0.83163896  0.83163896  0.49403900  1
  B  B1  1  0.16664743  0.16664743  0.50078654  1
loop_
_geom_bond_atom_site_label_1
_geom_bond_atom_site_label_2
_geom_bond_distance
_geom_bond_site_symmetry_2
Y0 Y1 3.174092 1_555
Mg0 Ni1 2.876108 1_556
Mg0 Ni3 2.876986 1_556
Mg0 Ni2 2.876986 1_556
Mg0 Ni0 2.912551 1_545
Mg0 Ni0 2.912551 1_455
Mg0 Ni0 2.918612 1_555
Mg0 Y1 2.993738 1_555
Mg0 Ni4 2.996862 1_555
Mg0 Ni5 2.996862 1_555
Mg0 Ni6 2.997103 1_655
Mg0 Ni6 2.997103 1_565
Mg0 Ni4 3.002907 1_565
Mg0 Ni5 3.002907 1_655
Mg0 Y0 3.003454 1_566
Mg0 Y0 3.003455 1_656
Mg0 Y0 3.003526 1_556
Ni0 Ni5 2.491442 1_655
Ni0 Ni4 2.491442 1_565
Ni0 Ni6 2.491732 1_665
Ni0 Ni1 2.531135 1_556
Ni0 Ni2 2.532257 1_566
Ni0 Ni3 2.532257 1_656
Ni0 Y0 2.920657 1_656
Ni0 Y0 2.920657 1_566
Ni0 Y0 2.921159 1_666
Ni1 Y1 2.926110 1_565
Ni1 Y1 2.926110 1_655
Ni1 Y0 2.997714 1_655
Ni1 Y0 2.997715 1_565
Ni2 Y1 2.925856 1_655
Ni2 Y1 2.926442 1_555
Ni2 Y0 3.000537 1_655
Ni2 Y0 3.001551 1_555
Ni3 Y1 2.925855 1_565
Ni3 Y1 2.926442 1_555
Ni3 Y0 3.000537 1_565
Ni3 Y0 3.001550 1_555
Ni4 Y1 2.837747 1_545
Ni4 Y1 2.838017 1_555
Ni4 Y0 2.878347 1_556
Ni5 Y1 2.837748 1_455
Ni5 Y1 2.838017 1_555
Ni5 Y0 2.878347 1_556
Ni6 Y1 2.837147 1_545
Ni6 Y1 2.837147 1_455
Ni6 Y0 2.875090 1_556
B0 Ni2 2.014937 1_555
B0 Ni3 2.014937 1_555
B0 Ni1 2.015552 1_555
B0 Ni6 2.045801 1_665
B0 Ni5 2.045913 1_655
B0 Ni4 2.045913 1_565
B0 Y1 2.889506 1_565
B0 Y1 2.889506 1_655
B0 Y1 2.894789 1_555
B1 Ni1 2.027036 1_445
B1 Ni2 2.027047 1_455
B1 Ni3 2.027047 1_545
B1 Ni6 2.038856 1_555
B1 Ni5 2.039574 1_555
B1 Ni4 2.039574 1_555
B1 Y1 2.887339 1_545
B1 Y1 2.887339 1_455
B1 Y1 2.894006 1_555
