# generated using pymatgen
data_Ti6AsC2Se
_symmetry_space_group_name_H-M   'P 1'
_cell_length_a   5.45756552
_cell_length_b   5.45756572
_cell_length_c   8.08582114
_cell_angle_alpha   90.00000000
_cell_angle_beta   90.00000000
_cell_angle_gamma   145.17443215
_symmetry_Int_Tables_number   1
_chemical_formula_structural   Ti6AsC2Se
_chemical_formula_sum   'Ti6 As1 C2 Se1'
_cell_volume   137.53681733
_cell_formula_units_Z   1
loop_
 _symmetry_equiv_pos_site_id
 _symmetry_equiv_pos_as_xyz
  1  'x, y, z'
loop_
 _atom_site_type_symbol
 _atom_site_label
 _atom_site_symmetry_multiplicity
 _atom_site_fract_x
 _atom_site_fract_y
 _atom_site_fract_z
 _atom_site_occupancy
  Ti  Ti0  1  0.12802581  0.87197419  0.05305966  1
  Ti  Ti1  1  0.44449831  0.55550169  0.25000000  1
  Ti  Ti2  1  0.12802581  0.87197419  0.44694034  1
  Ti  Ti3  1  0.87138498  0.12861502  0.55466263  1
  Ti  Ti4  1  0.55488457  0.44511543  0.75000000  1
  Ti  Ti5  1  0.87138498  0.12861502  0.94533737  1
  As  As0  1  0.24530942  0.75469058  0.75000000  1
  C  C0  1  0.50046493  0.49953507  0.00107144  1
  C  C1  1  0.50046493  0.49953507  0.49892856  1
  Se  Se0  1  0.75555626  0.24444374  0.25000000  1
loop_
_geom_bond_atom_site_label_1
_geom_bond_atom_site_label_2
_geom_bond_distance
_geom_bond_site_symmetry_2
As0 Ti4 2.569174 1_455
As0 Ti4 2.569175 1_565
As0 Ti5 2.624154 1_565
As0 Ti3 2.624154 1_565
As0 Ti5 2.624154 1_455
As0 Ti3 2.624154 1_455
As0 Ti0 2.738055 1_556
As0 Ti2 2.738055 1_555
C0 Ti1 2.095493 1_555
C0 Ti4 2.107752 1_554
C0 Ti0 2.146870 1_655
C0 Ti0 2.146870 1_545
C0 Ti5 2.162804 1_454
C0 Ti5 2.162804 1_564
C1 Ti1 2.095493 1_555
C1 Ti4 2.107752 1_555
C1 Ti2 2.146870 1_655
C1 Ti2 2.146870 1_545
C1 Ti3 2.162804 1_455
C1 Ti3 2.162804 1_565
Se0 Ti1 2.557272 1_655
Se0 Ti1 2.557272 1_545
Se0 Ti2 2.639568 1_545
Se0 Ti0 2.639568 1_545
Se0 Ti2 2.639568 1_655
Se0 Ti0 2.639568 1_655
Se0 Ti3 2.742964 1_555
Se0 Ti5 2.742964 1_554
