# generated using pymatgen
data_YMgNi4
_symmetry_space_group_name_H-M   'P 1'
_cell_length_a   4.90892436
_cell_length_b   4.90892372
_cell_length_c   4.90891859
_cell_angle_alpha   60.00405427
_cell_angle_beta   60.00405593
_cell_angle_gamma   60.00409206
_symmetry_Int_Tables_number   1
_chemical_formula_structural   YMgNi4
_chemical_formula_sum   'Y1 Mg1 Ni4'
_cell_volume   83.65338205
_cell_formula_units_Z   1
loop_
 _symmetry_equiv_pos_site_id
 _symmetry_equiv_pos_as_xyz
  1  'x, y, z'
loop_
 _atom_site_type_symbol
 _atom_site_label
 _atom_site_symmetry_multiplicity
 _atom_site_fract_x
 _atom_site_fract_y
 _atom_site_fract_z
 _atom_site_occupancy
  Y  Y0  1  0.99999907  -0.00000075  -0.00000025  1
  Mg  Mg0  1  0.24999992  0.24999987  0.24999826  1
  Ni  Ni0  1  0.62344985  0.62345023  0.62344929  1
  Ni  Ni1  1  0.62345319  0.12964627  0.62345308  1
  Ni  Ni2  1  0.62345284  0.62345354  0.12964626  1
  Ni  Ni3  1  0.12964613  0.62345285  0.62345337  1
loop_
_geom_bond_atom_site_label_1
_geom_bond_atom_site_label_2
_geom_bond_distance
_geom_bond_site_symmetry_2
Mg0 Ni2 2.874924 1_555
Mg0 Ni3 2.874925 1_555
Mg0 Ni1 2.874925 1_555
Mg0 Ni3 2.875014 1_554
Mg0 Ni1 2.875015 1_554
Mg0 Ni2 2.875020 1_545
Mg0 Ni2 2.875023 1_455
Mg0 Ni1 2.875024 1_455
Mg0 Ni3 2.875025 1_545
Mg0 Ni0 2.875091 1_554
Mg0 Ni0 2.875096 1_545
Mg0 Ni0 2.875098 1_455
Mg0 Y0 3.005996 1_455
Mg0 Y0 3.006241 1_555
Mg0 Y0 3.006241 1_465
Mg0 Y0 3.006246 1_456
Ni0 Ni2 2.424023 1_555
Ni0 Ni1 2.424028 1_555
Ni0 Ni3 2.424029 1_555
Ni0 Ni2 2.484895 1_556
Ni0 Ni1 2.484895 1_565
Ni0 Ni3 2.484896 1_655
Ni0 Y0 2.881576 1_565
Ni0 Y0 2.881583 1_466
Ni0 Y0 2.881584 1_556
Ni1 Ni2 2.424208 1_555
Ni1 Ni3 2.424210 1_555
Ni1 Ni2 2.485014 1_546
Ni1 Ni3 2.485018 1_645
Ni1 Y0 2.881366 1_556
Ni1 Y0 2.881524 1_555
Ni1 Y0 2.881529 1_456
Ni2 Ni3 2.424208 1_555
Ni2 Ni3 2.485014 1_654
Ni2 Y0 2.881365 1_565
Ni2 Y0 2.881528 1_465
Ni2 Y0 2.881530 1_555
Ni3 Y0 2.881366 1_466
Ni3 Y0 2.881525 1_465
Ni3 Y0 2.881527 1_456
