# generated using pymatgen
data_Ba4NiRh3
_symmetry_space_group_name_H-M   'P 1'
_cell_length_a   4.36768631
_cell_length_b   4.36768673
_cell_length_c   17.22547840
_cell_angle_alpha   90.00000000
_cell_angle_beta   90.00000000
_cell_angle_gamma   120.00000421
_symmetry_Int_Tables_number   1
_chemical_formula_structural   Ba4NiRh3
_chemical_formula_sum   'Ba4 Ni1 Rh3'
_cell_volume   284.58029590
_cell_formula_units_Z   1
loop_
 _symmetry_equiv_pos_site_id
 _symmetry_equiv_pos_as_xyz
  1  'x, y, z'
loop_
 _atom_site_type_symbol
 _atom_site_label
 _atom_site_symmetry_multiplicity
 _atom_site_fract_x
 _atom_site_fract_y
 _atom_site_fract_z
 _atom_site_occupancy
  Ba  Ba0  1  0.66666700  0.33333400  0.12602841  1
  Ba  Ba1  1  0.66666700  0.33333400  0.37397159  1
  Ba  Ba2  1  0.33333400  0.66666800  0.63155855  1
  Ba  Ba3  1  0.33333400  0.66666800  0.86844145  1
  Ni  Ni0  1  0.66666700  0.33333400  0.75000000  1
  Rh  Rh0  1  0.00000000  0.00000000  0.25000000  1
  Rh  Rh1  1  0.33333400  0.66666800  0.25000000  1
  Rh  Rh2  1  0.00000000  0.00000000  0.75000000  1
loop_
_geom_bond_atom_site_label_1
_geom_bond_atom_site_label_2
_geom_bond_distance
_geom_bond_site_symmetry_2
Ba0 Rh1 3.304408 1_545
Ba0 Rh0 3.304408 1_665
Ba0 Rh0 3.304411 1_555
Ba0 Rh1 3.304411 1_655
Ba0 Rh1 3.304411 1_555
Ba0 Rh0 3.304411 1_655
Ba1 Rh1 3.304408 1_545
Ba1 Rh0 3.304408 1_665
Ba1 Rh0 3.304411 1_555
Ba1 Rh1 3.304411 1_655
Ba1 Rh1 3.304411 1_555
Ba1 Rh0 3.304411 1_655
Ba2 Rh2 3.243662 1_665
Ba2 Ni0 3.243662 1_565
Ba2 Rh2 3.243662 1_565
Ba2 Ni0 3.243665 1_455
Ba2 Ni0 3.243665 1_555
Ba2 Rh2 3.243668 1_555
Ba3 Rh2 3.243662 1_665
Ba3 Ni0 3.243662 1_565
Ba3 Rh2 3.243662 1_565
Ba3 Ni0 3.243665 1_455
Ba3 Ni0 3.243665 1_555
Ba3 Rh2 3.243668 1_555
Ni0 Rh2 2.521682 1_665
Ni0 Rh2 2.521686 1_555
Ni0 Rh2 2.521686 1_655
Rh0 Rh1 2.521682 1_445
Rh0 Rh1 2.521683 1_545
Rh0 Rh1 2.521690 1_555
