# generated using pymatgen
data_Ti4Co6Si6Os
_symmetry_space_group_name_H-M   'P 1'
_cell_length_a   6.48969090
_cell_length_b   6.48969189
_cell_length_c   6.48969200
_cell_angle_alpha   109.47122403
_cell_angle_beta   109.47122711
_cell_angle_gamma   109.47121540
_symmetry_Int_Tables_number   1
_chemical_formula_structural   Ti4Co6Si6Os
_chemical_formula_sum   'Ti4 Co6 Si6 Os1'
_cell_volume   210.40219236
_cell_formula_units_Z   1
loop_
 _symmetry_equiv_pos_site_id
 _symmetry_equiv_pos_as_xyz
  1  'x, y, z'
loop_
 _atom_site_type_symbol
 _atom_site_label
 _atom_site_symmetry_multiplicity
 _atom_site_fract_x
 _atom_site_fract_y
 _atom_site_fract_z
 _atom_site_occupancy
  Ti  Ti0  1  0.50000000  0.00000000  0.00000000  1
  Ti  Ti1  1  0.00000000  0.50000000  0.00000000  1
  Ti  Ti2  1  0.00000000  0.00000000  0.50000000  1
  Ti  Ti3  1  0.50000000  0.50000000  0.50000000  1
  Co  Co0  1  0.50000000  0.75000000  0.25000000  1
  Co  Co1  1  0.75000000  0.50000000  0.25000000  1
  Co  Co2  1  0.25000000  0.75000000  0.50000000  1
  Co  Co3  1  0.25000000  0.50000000  0.75000000  1
  Co  Co4  1  0.50000000  0.25000000  0.75000000  1
  Co  Co5  1  0.75000000  0.25000000  0.50000000  1
  Si  Si0  1  1.00000000  0.32527150  0.32527150  1
  Si  Si1  1  0.67472850  1.00000000  0.67472850  1
  Si  Si2  1  0.67472850  0.67472850  1.00000000  1
  Si  Si3  1  0.00000000  0.67472850  0.67472850  1
  Si  Si4  1  0.32527150  0.00000000  0.32527150  1
  Si  Si5  1  0.32527150  0.32527150  0.00000000  1
  Os  Os0  1  0.00000000  0.00000000  0.00000000  1
loop_
_geom_bond_atom_site_label_1
_geom_bond_atom_site_label_2
_geom_bond_distance
_geom_bond_site_symmetry_2
Co0 Si4 2.285625 1_565
Co0 Si1 2.285625 1_555
Co0 Si2 2.285625 1_554
Co0 Si5 2.285625 1_555
Co0 Ti2 2.649405 1_665
Co0 Ti1 2.649405 1_555
Co0 Ti3 2.649406 1_555
Co0 Ti0 2.649406 1_565
Co1 Si5 2.285625 1_555
Co1 Si0 2.285625 1_555
Co1 Si3 2.285625 1_655
Co1 Si2 2.285625 1_554
Co1 Ti1 2.649406 1_655
Co1 Ti3 2.649406 1_555
Co1 Ti0 2.649406 1_555
Co1 Ti2 2.649406 1_665
Co2 Si1 2.285625 1_555
Co2 Si3 2.285625 1_555
Co2 Si0 2.285625 1_455
Co2 Si4 2.285626 1_565
Co2 Ti3 2.649405 1_555
Co2 Ti2 2.649405 1_565
Co2 Ti0 2.649405 1_566
Co2 Ti1 2.649405 1_555
Co3 Si2 2.285625 1_555
Co3 Si3 2.285625 1_555
Co3 Si0 2.285625 1_455
Co3 Si5 2.285625 1_556
Co3 Ti1 2.649406 1_556
Co3 Ti3 2.649406 1_555
Co3 Ti0 2.649406 1_566
Co3 Ti2 2.649406 1_555
Co4 Si1 2.285625 1_545
Co4 Si4 2.285625 1_555
Co4 Si5 2.285625 1_556
Co4 Si2 2.285625 1_555
Co4 Ti1 2.649405 1_656
Co4 Ti2 2.649405 1_555
Co4 Ti3 2.649406 1_555
Co4 Ti0 2.649406 1_556
Co5 Si4 2.285625 1_555
Co5 Si0 2.285625 1_555
Co5 Si3 2.285625 1_655
Co5 Si1 2.285626 1_545
Co5 Ti3 2.649405 1_555
Co5 Ti2 2.649405 1_655
Co5 Ti1 2.649405 1_656
Co5 Ti0 2.649405 1_555
Si0 Ti3 2.708784 1_655
Si0 Ti0 2.708784 1_555
Si0 Ti2 2.708784 1_655
Si0 Ti1 2.708784 1_655
Si1 Ti2 2.708784 1_665
Si1 Ti1 2.708784 1_666
Si1 Ti3 2.708784 1_555
Si1 Ti0 2.708784 1_566
Si2 Ti1 2.708784 1_656
Si2 Ti2 2.708784 1_666
Si2 Ti0 2.708784 1_566
Si2 Ti3 2.708784 1_555
Si3 Ti3 2.708784 1_455
Si3 Ti0 2.708784 1_566
Si3 Ti2 2.708784 1_565
Si3 Ti1 2.708784 1_556
Si4 Ti2 2.708784 1_555
Si4 Ti1 2.708784 1_545
Si4 Ti3 2.708784 1_555
Si4 Ti0 2.708784 1_555
Si5 Ti1 2.708784 1_555
Si5 Ti2 2.708784 1_554
Si5 Ti0 2.708784 1_555
Si5 Ti3 2.708784 1_555
Os0 Si4 2.437471 1_555
Os0 Si1 2.437471 1_444
Os0 Si0 2.437471 1_455
Os0 Si3 2.437471 1_544
Os0 Si5 2.437471 1_555
Os0 Si2 2.437471 1_444
