# generated using pymatgen
data_LiIrPtS4
_symmetry_space_group_name_H-M   'P 1'
_cell_length_a   7.15040263
_cell_length_b   7.15038150
_cell_length_c   7.15195534
_cell_angle_alpha   59.99276392
_cell_angle_beta   59.99224925
_cell_angle_gamma   60.19294586
_symmetry_Int_Tables_number   1
_chemical_formula_structural   LiIrPtS4
_chemical_formula_sum   'Li2 Ir2 Pt2 S8'
_cell_volume   258.91037142
_cell_formula_units_Z   2
loop_
 _symmetry_equiv_pos_site_id
 _symmetry_equiv_pos_as_xyz
  1  'x, y, z'
loop_
 _atom_site_type_symbol
 _atom_site_label
 _atom_site_symmetry_multiplicity
 _atom_site_fract_x
 _atom_site_fract_y
 _atom_site_fract_z
 _atom_site_occupancy
  Li  Li0  1  0.25489486  0.25489387  0.24509451  1
  Li  Li1  1  0.99510514  0.99510613  0.00490549  1
  Ir  Ir0  1  0.12500000  0.62500000  0.62500000  1
  Ir  Ir1  1  0.62500000  0.12500000  0.62500000  1
  Pt  Pt0  1  0.62500000  0.62500000  0.12500000  1
  Pt  Pt1  1  0.62500000  0.62500000  0.62500000  1
  S  S0  1  0.41978566  0.86179916  0.85921410  1
  S  S1  1  0.86189866  0.86188631  0.41904355  1
  S  S2  1  0.86188462  0.86190040  0.85717382  1
  S  S3  1  0.83021434  0.38820084  0.39078590  1
  S  S4  1  0.38820140  0.83021535  0.39079519  1
  S  S5  1  0.38810134  0.38811369  0.83095645  1
  S  S6  1  0.86179860  0.41978465  0.85920481  1
  S  S7  1  0.38811538  0.38809960  0.39282618  1
loop_
_geom_bond_atom_site_label_1
_geom_bond_atom_site_label_2
_geom_bond_distance
_geom_bond_site_symmetry_2
Li0 S5 2.417769 1_554
Li0 S7 2.417900 1_555
Li0 S4 2.483223 1_545
Li0 S3 2.483230 1_455
Li1 S1 2.417769 1_555
Li1 S2 2.417900 1_554
Li1 S6 2.483223 1_564
Li1 S0 2.483230 1_654
Ir0 S4 2.373752 1_555
Ir0 S6 2.373752 1_455
Ir0 S5 2.384582 1_555
Ir0 S1 2.384582 1_455
Ir0 S2 2.384646 1_455
Ir0 S7 2.384646 1_555
Ir1 S3 2.373745 1_555
Ir1 S0 2.373745 1_545
Ir1 S2 2.384583 1_545
Ir1 S7 2.384583 1_555
Ir1 S5 2.384627 1_555
Ir1 S1 2.384627 1_545
Pt0 S3 2.394596 1_555
Pt0 S0 2.394596 1_554
Pt0 S4 2.394628 1_555
Pt0 S6 2.394628 1_554
Pt0 S2 2.401938 1_554
Pt0 S7 2.401938 1_555
Pt1 S6 2.394613 1_555
Pt1 S4 2.394613 1_555
Pt1 S0 2.394645 1_555
Pt1 S3 2.394645 1_555
Pt1 S1 2.401942 1_555
Pt1 S5 2.401942 1_555
