# generated using pymatgen
data_Al2GeI8
_symmetry_space_group_name_H-M   'P 1'
_cell_length_a   7.76561761
_cell_length_b   8.20983109
_cell_length_c   14.94880406
_cell_angle_alpha   87.26061131
_cell_angle_beta   90.00000000
_cell_angle_gamma   90.00000000
_symmetry_Int_Tables_number   1
_chemical_formula_structural   Al2GeI8
_chemical_formula_sum   'Al4 Ge2 I16'
_cell_volume   951.96307039
_cell_formula_units_Z   2
loop_
 _symmetry_equiv_pos_site_id
 _symmetry_equiv_pos_as_xyz
  1  'x, y, z'
loop_
 _atom_site_type_symbol
 _atom_site_label
 _atom_site_symmetry_multiplicity
 _atom_site_fract_x
 _atom_site_fract_y
 _atom_site_fract_z
 _atom_site_occupancy
  Al  Al0  1  0.93244890  0.22254737  0.58083956  1
  Al  Al1  1  0.06755110  0.22254737  0.08083956  1
  Al  Al2  1  0.57606686  0.63995703  0.77687796  1
  Al  Al3  1  0.42393314  0.63995703  0.27687796  1
  Ge  Ge0  1  0.75751529  0.06545444  0.80427997  1
  Ge  Ge1  1  0.24248471  0.06545444  0.30427997  1
  I  I0  1  0.42131949  0.61185344  0.63273997  1
  I  I1  1  0.57868051  0.61185344  0.13273997  1
  I  I2  1  0.89061031  0.74382458  0.75654945  1
  I  I3  1  0.10938969  0.74382458  0.25654945  1
  I  I4  1  0.92639462  0.49129008  0.49779348  1
  I  I5  1  0.07360538  0.49129008  0.99779348  1
  I  I6  1  0.91604589  0.99632122  0.99907883  1
  I  I7  1  0.08395411  0.99632122  0.49907883  1
  I  I8  1  0.62384164  0.12039857  0.62256868  1
  I  I9  1  0.37615836  0.12039857  0.12256868  1
  I  I10  1  0.57807923  0.37542556  0.87565386  1
  I  I11  1  0.42192077  0.37542556  0.37565386  1
  I  I12  1  0.44115328  0.86676389  0.86802996  1
  I  I13  1  0.55884672  0.86676389  0.36802996  1
  I  I14  1  0.92670286  0.23356382  0.23778827  1
  I  I15  1  0.07329714  0.23356382  0.73778827  1
loop_
_geom_bond_atom_site_label_1
_geom_bond_atom_site_label_2
_geom_bond_distance
_geom_bond_site_symmetry_2
Al0 I4 2.479813 1_555
Al0 I7 2.558227 1_645
Al0 I15 2.594116 1_655
Al0 I8 2.604947 1_555
Al1 I5 2.479813 1_554
Al1 I6 2.558227 1_444
Al1 I14 2.594116 1_455
Al1 I9 2.604947 1_555
Al2 I0 2.487479 1_555
Al2 I10 2.567206 1_555
Al2 I12 2.581493 1_555
Al2 I2 2.600221 1_555
Al3 I1 2.487479 1_555
Al3 I11 2.567206 1_555
Al3 I13 2.581493 1_555
Al3 I3 2.600221 1_555
Ge0 I8 2.922767 1_555
Ge0 I2 2.954629 1_545
Ge0 I15 2.962288 1_655
Ge0 I12 3.075071 1_545
Ge0 I10 3.132992 1_555
Ge0 I6 3.187402 1_545
Ge1 I9 2.922767 1_555
Ge1 I3 2.954629 1_545
Ge1 I14 2.962288 1_455
Ge1 I13 3.075071 1_545
Ge1 I11 3.132992 1_555
Ge1 I7 3.187402 1_545
