# generated using pymatgen
data_Mn2Zn2P7N12
_symmetry_space_group_name_H-M   'P 1'
_cell_length_a   7.13964803
_cell_length_b   7.10723310
_cell_length_c   7.13964819
_cell_angle_alpha   109.95219323
_cell_angle_beta   108.70081599
_cell_angle_gamma   109.95219789
_symmetry_Int_Tables_number   1
_chemical_formula_structural   Mn2Zn2P7N12
_chemical_formula_sum   'Mn2 Zn2 P7 N12'
_cell_volume   278.19531006
_cell_formula_units_Z   1
loop_
 _symmetry_equiv_pos_site_id
 _symmetry_equiv_pos_as_xyz
  1  'x, y, z'
loop_
 _atom_site_type_symbol
 _atom_site_label
 _atom_site_symmetry_multiplicity
 _atom_site_fract_x
 _atom_site_fract_y
 _atom_site_fract_z
 _atom_site_occupancy
  Mn  Mn0  1  0.99013393  0.32146538  0.99013393  1
  Mn  Mn1  1  0.66866855  0.67853462  0.66866855  1
  Zn  Zn0  1  0.33228895  0.00000000  0.00212588  1
  Zn  Zn1  1  0.00212588  1.00000000  0.33228895  1
  P  P0  1  0.75031938  0.25013075  0.49780094  1
  P  P1  1  0.24767019  0.74986925  0.50018863  1
  P  P2  1  0.50018863  0.74986925  0.24767019  1
  P  P3  1  0.49780094  0.25013075  0.75031938  1
  P  P4  1  0.74968276  0.50000000  0.24968276  1
  P  P5  1  0.24968276  0.50000000  0.74968276  1
  P  P6  1  0.01235866  1.00000000  0.01235866  1
  N  N0  1  0.55632193  0.27155526  0.99954873  1
  N  N1  1  0.44709801  0.44806980  0.72095270  1
  N  N2  1  0.99954873  0.27155526  0.55632193  1
  N  N3  1  0.26942898  1.00000000  0.55679026  1
  N  N4  1  0.72095270  0.44806980  0.44709801  1
  N  N5  1  0.99902720  0.55193020  0.27288290  1
  N  N6  1  0.55679026  1.00000000  0.26942898  1
  N  N7  1  0.44107648  0.71788745  0.44107648  1
  N  N8  1  0.27288290  0.55193020  0.99902720  1
  N  N9  1  0.72318903  0.28211255  0.72318903  1
  N  N10  1  0.72799347  0.72844474  0.28476667  1
  N  N11  1  0.28476667  0.72844474  0.72799347  1
loop_
_geom_bond_atom_site_label_1
_geom_bond_atom_site_label_2
_geom_bond_distance
_geom_bond_site_symmetry_2
Mn0 N9 2.070309 1_555
Mn0 N8 2.086238 1_655
Mn0 N5 2.086238 1_556
Mn0 P6 2.397715 1_646
Mn1 N7 2.070309 1_555
Mn1 N1 2.086234 1_555
Mn1 N4 2.086234 1_555
Mn1 P6 2.397715 1_656
P6 Zn0 2.308651 1_565
P6 Zn1 2.308652 1_555
N0 P4 1.625343 1_556
N0 P3 1.630635 1_555
N0 Zn0 2.054259 1_556
N1 P5 1.629010 1_555
N1 P3 1.629195 1_555
N2 P5 1.625343 1_655
N2 P0 1.630635 1_555
N2 Zn1 2.054260 1_645
N3 P1 1.621345 1_555
N3 P3 1.621346 1_565
N3 Zn1 2.061496 1_555
N4 P4 1.629010 1_555
N4 P0 1.629195 1_555
N5 P4 1.629003 1_555
N5 P1 1.629199 1_655
N6 P2 1.621345 1_555
N6 P0 1.621346 1_565
N6 Zn0 2.061496 1_565
N7 P1 1.630639 1_555
N7 P2 1.630639 1_555
N8 P5 1.629003 1_555
N8 P2 1.629199 1_556
N9 P3 1.630639 1_555
N9 P0 1.630639 1_555
N10 P4 1.625343 1_555
N10 P2 1.630635 1_555
N10 Zn1 2.054259 1_655
N11 P5 1.625343 1_555
N11 P1 1.630635 1_555
N11 Zn0 2.054260 1_566
