# generated using pymatgen
data_Ba5Al3Zn2Sn
_symmetry_space_group_name_H-M   'P 1'
_cell_length_a   6.15644031
_cell_length_b   6.15644003
_cell_length_c   10.88801782
_cell_angle_alpha   90.00000000
_cell_angle_beta   90.00000000
_cell_angle_gamma   119.99999609
_symmetry_Int_Tables_number   1
_chemical_formula_structural   Ba5Al3Zn2Sn
_chemical_formula_sum   'Ba5 Al3 Zn2 Sn1'
_cell_volume   357.38703916
_cell_formula_units_Z   1
loop_
 _symmetry_equiv_pos_site_id
 _symmetry_equiv_pos_as_xyz
  1  'x, y, z'
loop_
 _atom_site_type_symbol
 _atom_site_label
 _atom_site_symmetry_multiplicity
 _atom_site_fract_x
 _atom_site_fract_y
 _atom_site_fract_z
 _atom_site_occupancy
  Ba  Ba0  1  0.66666700  0.33333300  0.80053143  1
  Ba  Ba1  1  0.66666700  0.33333300  0.19946857  1
  Ba  Ba2  1  0.00000000  0.00000000  0.66855808  1
  Ba  Ba3  1  0.00000000  0.00000000  0.33144192  1
  Ba  Ba4  1  0.33333300  0.66666700  0.00000000  1
  Al  Al0  1  0.96577987  0.48288944  0.50000000  1
  Al  Al1  1  0.51711056  0.48288944  0.50000000  1
  Al  Al2  1  0.51711056  0.03422013  0.50000000  1
  Zn  Zn0  1  0.33333300  0.66666700  0.65927599  1
  Zn  Zn1  1  0.33333300  0.66666700  0.34072401  1
  Sn  Sn0  1  0.00000000  0.00000000  0.00000000  1
loop_
_geom_bond_atom_site_label_1
_geom_bond_atom_site_label_2
_geom_bond_distance
_geom_bond_site_symmetry_2
Ba0 Ba2 3.833883 1_655
Ba0 Ba2 3.833888 1_665
Ba0 Ba2 3.833888 1_555
Ba0 Zn0 3.872895 1_545
Ba0 Zn0 3.872895 1_655
Ba0 Zn0 3.872904 1_555
Ba0 Sn0 4.165415 1_656
Ba0 Ba4 4.165415 1_546
Ba0 Ba4 4.165415 1_656
Ba0 Sn0 4.165420 1_666
Ba0 Sn0 4.165420 1_556
Ba0 Ba4 4.165424 1_556
Ba0 Ba1 4.343635 1_556
Ba1 Ba3 3.833883 1_655
Ba1 Ba3 3.833888 1_665
Ba1 Ba3 3.833888 1_555
Ba1 Zn1 3.872895 1_545
Ba1 Zn1 3.872895 1_655
Ba1 Zn1 3.872904 1_555
Ba1 Sn0 4.165415 1_655
Ba1 Ba4 4.165415 1_545
Ba1 Ba4 4.165415 1_655
Ba1 Sn0 4.165420 1_665
Ba1 Sn0 4.165420 1_555
Ba1 Ba4 4.165424 1_555
Ba2 Zn0 3.555855 1_545
Ba2 Zn0 3.555861 1_555
Ba2 Zn0 3.555861 1_445
Ba2 Sn0 3.608745 1_556
Ba3 Zn1 3.555855 1_545
Ba3 Zn1 3.555861 1_555
Ba3 Zn1 3.555861 1_445
Ba3 Sn0 3.608745 1_555
Ba4 Sn0 3.554419 1_565
Ba4 Sn0 3.554424 1_555
Ba4 Sn0 3.554424 1_665
Ba4 Zn1 3.709809 1_555
Ba4 Zn0 3.709809 1_554
Al0 Zn0 2.616813 1_655
Al0 Zn1 2.616813 1_655
Al0 Al1 2.762206 1_555
Al0 Al2 2.762206 1_555
Al0 Ba2 3.588440 1_655
Al0 Ba3 3.588440 1_655
Al0 Ba2 3.588445 1_665
Al0 Ba3 3.588445 1_665
Al0 Ba0 3.640123 1_555
Al0 Ba1 3.640123 1_555
Al1 Zn0 2.616821 1_555
Al1 Zn1 2.616821 1_555
Al1 Al2 2.762206 1_555
Al1 Ba2 3.588443 1_665
Al1 Ba3 3.588443 1_665
Al1 Ba2 3.588443 1_555
Al1 Ba3 3.588443 1_555
Al1 Ba0 3.640123 1_555
Al1 Ba1 3.640123 1_555
Al2 Zn0 2.616813 1_545
Al2 Zn1 2.616813 1_545
Al2 Ba2 3.588440 1_655
Al2 Ba3 3.588440 1_655
Al2 Ba2 3.588445 1_555
Al2 Ba3 3.588445 1_555
Al2 Ba0 3.640123 1_555
Al2 Ba1 3.640123 1_555
