# generated using pymatgen
data_Sc(TaSe2)3
_symmetry_space_group_name_H-M   'P 1'
_cell_length_a   6.02584133
_cell_length_b   6.02584170
_cell_length_c   13.56511794
_cell_angle_alpha   90.00000000
_cell_angle_beta   90.00000000
_cell_angle_gamma   119.99999800
_symmetry_Int_Tables_number   1
_chemical_formula_structural   Sc(TaSe2)3
_chemical_formula_sum   'Sc2 Ta6 Se12'
_cell_volume   426.56932768
_cell_formula_units_Z   2
loop_
 _symmetry_equiv_pos_site_id
 _symmetry_equiv_pos_as_xyz
  1  'x, y, z'
loop_
 _atom_site_type_symbol
 _atom_site_label
 _atom_site_symmetry_multiplicity
 _atom_site_fract_x
 _atom_site_fract_y
 _atom_site_fract_z
 _atom_site_occupancy
  Sc  Sc0  1  0.66666700  0.33333300  0.75000000  1
  Sc  Sc1  1  0.33333300  0.66666700  0.25000000  1
  Ta  Ta0  1  0.00000000  0.00000000  0.00000000  1
  Ta  Ta1  1  0.66666700  0.33333300  0.99921578  1
  Ta  Ta2  1  0.33333300  0.66666700  0.49921578  1
  Ta  Ta3  1  0.00000000  0.00000000  0.50000000  1
  Ta  Ta4  1  0.33333300  0.66666700  0.00078422  1
  Ta  Ta5  1  0.66666700  0.33333300  0.50078422  1
  Se  Se0  1  0.67217572  0.66629695  0.12281054  1
  Se  Se1  1  0.32782428  0.33370305  0.62281054  1
  Se  Se2  1  0.66629695  0.67217572  0.87718946  1
  Se  Se3  1  0.32782428  0.99412123  0.87718946  1
  Se  Se4  1  0.00587877  0.67217572  0.62281054  1
  Se  Se5  1  0.00587877  0.33370305  0.87718946  1
  Se  Se6  1  0.99412123  0.66629695  0.37718946  1
  Se  Se7  1  0.33370305  0.32782428  0.37718946  1
  Se  Se8  1  0.67217572  0.00587877  0.37718946  1
  Se  Se9  1  0.99412123  0.32782428  0.12281054  1
  Se  Se10  1  0.66629695  0.99412123  0.62281054  1
  Se  Se11  1  0.33370305  0.00587877  0.12281054  1
loop_
_geom_bond_atom_site_label_1
_geom_bond_atom_site_label_2
_geom_bond_distance
_geom_bond_site_symmetry_2
Sc0 Se5 2.674010 1_655
Sc0 Se10 2.674010 1_545
Sc0 Se4 2.674012 1_655
Sc0 Se3 2.674012 1_545
Sc0 Se1 2.674015 1_555
Sc0 Se2 2.674015 1_555
Sc1 Se6 2.674010 1_455
Sc1 Se11 2.674010 1_565
Sc1 Se9 2.674012 1_455
Sc1 Se8 2.674012 1_565
Sc1 Se0 2.674015 1_555
Sc1 Se7 2.674015 1_555
Se0 Ta0 2.597857 1_665
Se0 Ta1 2.602116 1_554
Se0 Ta4 2.629369 1_555
Se1 Ta3 2.597857 1_555
Se1 Ta2 2.602116 1_555
Se1 Ta5 2.629369 1_555
Se2 Ta0 2.597857 1_666
Se2 Ta4 2.602115 1_556
Se2 Ta1 2.629369 1_555
Se3 Ta0 2.597857 1_566
Se3 Ta4 2.602111 1_556
Se3 Ta1 2.629366 1_565
Se4 Ta3 2.597857 1_565
Se4 Ta2 2.602111 1_555
Se4 Ta5 2.629366 1_455
Se5 Ta0 2.597857 1_556
Se5 Ta4 2.602113 1_556
Se5 Ta1 2.629364 1_455
Se6 Ta3 2.597857 1_665
Se6 Ta5 2.602113 1_555
Se6 Ta2 2.629364 1_655
Se7 Ta3 2.597857 1_555
Se7 Ta5 2.602115 1_555
Se7 Ta2 2.629369 1_555
Se8 Ta3 2.597857 1_655
Se8 Ta5 2.602111 1_555
Se8 Ta2 2.629366 1_545
Se9 Ta0 2.597857 1_655
Se9 Ta1 2.602111 1_554
Se9 Ta4 2.629366 1_655
Se10 Ta3 2.597857 1_665
Se10 Ta2 2.602113 1_555
Se10 Ta5 2.629364 1_565
Se11 Ta0 2.597857 1_555
Se11 Ta1 2.602113 1_554
Se11 Ta4 2.629364 1_545
