# generated using pymatgen
data_Lu2Ga4CuRh
_symmetry_space_group_name_H-M   'P 1'
_cell_length_a   5.34835579
_cell_length_b   5.34835692
_cell_length_c   6.62730148
_cell_angle_alpha   90.00000000
_cell_angle_beta   90.00000000
_cell_angle_gamma   134.04215940
_symmetry_Int_Tables_number   1
_chemical_formula_structural   Lu2Ga4CuRh
_chemical_formula_sum   'Lu2 Ga4 Cu1 Rh1'
_cell_volume   136.27075577
_cell_formula_units_Z   1
loop_
 _symmetry_equiv_pos_site_id
 _symmetry_equiv_pos_as_xyz
  1  'x, y, z'
loop_
 _atom_site_type_symbol
 _atom_site_label
 _atom_site_symmetry_multiplicity
 _atom_site_fract_x
 _atom_site_fract_y
 _atom_site_fract_z
 _atom_site_occupancy
  Lu  Lu0  1  0.57977897  0.42022103  0.25000000  1
  Lu  Lu1  1  0.41961766  0.58038234  0.75000000  1
  Ga  Ga0  1  0.86678252  0.13321748  0.05042961  1
  Ga  Ga1  1  0.13336980  0.86663020  0.94338543  1
  Ga  Ga2  1  0.13336980  0.86663020  0.55661457  1
  Ga  Ga3  1  0.86678252  0.13321748  0.44957039  1
  Cu  Cu0  1  0.70695801  0.29304199  0.75000000  1
  Rh  Rh0  1  0.29334171  0.70665829  0.25000000  1
loop_
_geom_bond_atom_site_label_1
_geom_bond_atom_site_label_2
_geom_bond_distance
_geom_bond_site_symmetry_2
Lu0 Rh0 2.820809 1_555
Lu0 Rh0 2.963578 1_655
Lu0 Rh0 2.963579 1_545
Ga0 Rh0 2.575257 1_545
Ga0 Rh0 2.575257 1_655
Ga0 Ga3 2.645226 1_555
Ga0 Ga1 2.719488 1_644
Ga0 Lu1 2.931642 1_654
Ga0 Lu1 2.931643 1_544
Ga0 Lu0 3.120539 1_555
Ga0 Lu0 3.241708 1_655
Ga0 Lu0 3.241709 1_545
Ga1 Ga2 2.563247 1_555
Ga1 Rh0 2.571184 1_556
Ga1 Lu0 2.960951 1_456
Ga1 Lu0 2.960951 1_566
Ga1 Lu1 3.096612 1_555
Ga1 Lu1 3.230047 1_455
Ga1 Lu1 3.230048 1_565
Ga2 Rh0 2.571184 1_555
Ga2 Ga3 2.719488 1_465
Ga2 Lu0 2.960951 1_455
Ga2 Lu0 2.960951 1_565
Ga2 Lu1 3.096612 1_555
Ga2 Lu1 3.230047 1_455
Ga2 Lu1 3.230048 1_565
Ga3 Rh0 2.575257 1_545
Ga3 Rh0 2.575257 1_655
Ga3 Lu1 2.931642 1_655
Ga3 Lu1 2.931643 1_545
Ga3 Lu0 3.120539 1_555
Ga3 Lu0 3.241708 1_655
Ga3 Lu0 3.241709 1_545
Cu0 Ga0 2.538013 1_556
Cu0 Ga3 2.538013 1_555
Cu0 Ga1 2.554859 1_545
Cu0 Ga2 2.554859 1_545
Cu0 Ga1 2.554859 1_655
Cu0 Ga2 2.554859 1_655
Cu0 Lu1 2.829703 1_555
Cu0 Lu1 2.957273 1_655
Cu0 Lu1 2.957274 1_545
