# generated using pymatgen
data_NaSrCrN3
_symmetry_space_group_name_H-M   'P 1'
_cell_length_a   6.10077603
_cell_length_b   6.10077600
_cell_length_c   12.06769967
_cell_angle_alpha   90.00000000
_cell_angle_beta   90.00000000
_cell_angle_gamma   125.28734451
_symmetry_Int_Tables_number   1
_chemical_formula_structural   NaSrCrN3
_chemical_formula_sum   'Na4 Sr4 Cr4 N12'
_cell_volume   366.62826209
_cell_formula_units_Z   4
loop_
 _symmetry_equiv_pos_site_id
 _symmetry_equiv_pos_as_xyz
  1  'x, y, z'
loop_
 _atom_site_type_symbol
 _atom_site_label
 _atom_site_symmetry_multiplicity
 _atom_site_fract_x
 _atom_site_fract_y
 _atom_site_fract_z
 _atom_site_occupancy
  Na  Na0  1  0.55169495  0.44830505  0.64366628  1
  Na  Na1  1  0.44830505  0.55169495  0.35633372  1
  Na  Na2  1  0.94830505  0.05169495  0.14366628  1
  Na  Na3  1  0.05169495  0.94830505  0.85633372  1
  Sr  Sr0  1  0.85973169  0.14026831  0.58191293  1
  Sr  Sr1  1  0.14026831  0.85973169  0.41808707  1
  Sr  Sr2  1  0.64026831  0.35973169  0.08191293  1
  Sr  Sr3  1  0.35973169  0.64026831  0.91808707  1
  Cr  Cr0  1  0.73976309  0.26023691  0.83371383  1
  Cr  Cr1  1  0.26023691  0.73976309  0.16628617  1
  Cr  Cr2  1  0.76023691  0.23976309  0.33371383  1
  Cr  Cr3  1  0.23976309  0.76023691  0.66628617  1
  N  N0  1  0.82937849  0.17062151  0.94773357  1
  N  N1  1  0.17062151  0.82937849  0.05226643  1
  N  N2  1  0.67062151  0.32937849  0.44773357  1
  N  N3  1  0.32937849  0.67062151  0.55226643  1
  N  N4  1  0.58977930  0.41022070  0.86736152  1
  N  N5  1  0.41022070  0.58977930  0.13263848  1
  N  N6  1  0.91022070  0.08977930  0.36736152  1
  N  N7  1  0.08977930  0.91022070  0.63263848  1
  N  N8  1  0.52886280  0.97113720  0.75000000  1
  N  N9  1  0.97113720  0.52886280  0.25000000  1
  N  N10  1  0.47113720  0.02886280  0.25000000  1
  N  N11  1  0.02886280  0.47113720  0.75000000  1
loop_
_geom_bond_atom_site_label_1
_geom_bond_atom_site_label_2
_geom_bond_distance
_geom_bond_site_symmetry_2
Cr0 N4 1.675327 1_555
Cr0 N0 1.684165 1_555
Cr0 N8 1.779028 1_545
Cr0 N11 1.779028 1_655
Cr1 N5 1.675327 1_555
Cr1 N1 1.684165 1_555
Cr1 N10 1.779028 1_565
Cr1 N9 1.779028 1_455
Cr2 N6 1.675327 1_555
Cr2 N2 1.684165 1_555
Cr2 N9 1.779028 1_555
Cr2 N10 1.779028 1_555
Cr3 N7 1.675327 1_555
Cr3 N3 1.684165 1_555
Cr3 N11 1.779028 1_555
Cr3 N8 1.779028 1_555
N0 Sr2 2.611880 1_556
N0 Na3 2.649724 1_645
N0 Na2 2.692895 1_556
N0 Sr3 2.845261 1_545
N0 Sr3 2.845261 1_655
N1 Sr3 2.611880 1_554
N1 Na2 2.649724 1_465
N1 Na3 2.692895 1_554
N1 Sr2 2.845261 1_565
N1 Sr2 2.845261 1_455
N2 Sr0 2.611880 1_555
N2 Na1 2.649724 1_555
N2 Na0 2.692895 1_555
N2 Sr1 2.845261 1_655
N2 Sr1 2.845261 1_545
N3 Sr1 2.611880 1_555
N3 Na0 2.649724 1_555
N3 Na1 2.692895 1_555
N3 Sr0 2.845261 1_455
N3 Sr0 2.845261 1_565
N4 Sr3 2.567080 1_555
N4 Sr2 2.646324 1_556
N4 Na0 2.730855 1_555
N4 Na3 2.836787 1_655
N4 Na3 2.836787 1_545
N5 Sr2 2.567080 1_555
N5 Sr3 2.646324 1_554
N5 Na1 2.730855 1_555
N5 Na2 2.836787 1_455
N5 Na2 2.836787 1_565
N6 Sr1 2.567080 1_645
N6 Sr0 2.646324 1_555
N6 Na2 2.730855 1_555
N6 Na1 2.836787 1_545
N6 Na1 2.836787 1_655
N7 Sr0 2.567080 1_465
N7 Sr1 2.646324 1_555
N7 Na3 2.730855 1_555
N7 Na0 2.836787 1_565
N7 Na0 2.836787 1_455
N8 Sr3 2.616748 1_555
N8 Sr0 2.616748 1_565
N9 Sr1 2.616748 1_655
N9 Sr2 2.616748 1_555
N10 Sr2 2.616748 1_555
N10 Sr1 2.616748 1_545
N11 Sr0 2.616748 1_455
N11 Sr3 2.616748 1_555
