# generated using pymatgen
data_VP4RuO14
_symmetry_space_group_name_H-M   'P 1'
_cell_length_a   4.81135799
_cell_length_b   7.88540642
_cell_length_c   6.95115975
_cell_angle_alpha   89.96996509
_cell_angle_beta   106.61339139
_cell_angle_gamma   90.34285022
_symmetry_Int_Tables_number   1
_chemical_formula_structural   VP4RuO14
_chemical_formula_sum   'V1 P4 Ru1 O14'
_cell_volume   252.70996113
_cell_formula_units_Z   1
loop_
 _symmetry_equiv_pos_site_id
 _symmetry_equiv_pos_as_xyz
  1  'x, y, z'
loop_
 _atom_site_type_symbol
 _atom_site_label
 _atom_site_symmetry_multiplicity
 _atom_site_fract_x
 _atom_site_fract_y
 _atom_site_fract_z
 _atom_site_occupancy
  V  V0  1  0.21495317  0.50397349  0.72728873  1
  P  P0  1  0.39726899  0.18830994  0.50841464  1
  P  P1  1  0.22391555  0.77299991  0.10227261  1
  P  P2  1  0.76945274  0.27250296  0.89648638  1
  P  P3  1  0.60818507  0.68684992  0.49209307  1
  Ru  Ru0  1  0.78464546  0.00345572  0.27464285  1
  O  O0  1  0.03084476  0.32996800  0.82961368  1
  O  O1  1  0.14691412  0.67149149  0.91178010  1
  O  O2  1  0.17291724  0.04789832  0.45961276  1
  O  O3  1  0.27188847  0.36256757  0.51467198  1
  O  O4  1  0.41355431  0.67562857  0.63013514  1
  O  O5  1  0.57878970  0.42238357  0.90827072  1
  O  O6  1  0.58837266  0.14403677  0.73015806  1
  O  O7  1  0.41590318  0.64922473  0.26955595  1
  O  O8  1  0.39807691  0.93414226  0.09412791  1
  O  O9  1  0.59937721  0.19146567  0.37475622  1
  O  O10  1  0.72212086  0.86761595  0.49590377  1
  O  O11  1  0.84444881  0.55693764  0.53807897  1
  O  O12  1  0.87387333  0.17049241  0.08470409  1
  O  O13  1  0.94979944  0.81161710  0.16203138  1
loop_
_geom_bond_atom_site_label_1
_geom_bond_atom_site_label_2
_geom_bond_distance
_geom_bond_site_symmetry_2
O0 P2 1.526548 1_455
O0 V0 1.875623 1_555
O1 P1 1.499450 1_556
O1 V0 1.934865 1_555
O2 P0 1.510913 1_555
O2 Ru0 1.971036 1_455
O3 P0 1.509609 1_555
O3 V0 1.933789 1_555
O4 P3 1.522572 1_555
O4 V0 1.885165 1_555
O5 P2 1.516937 1_555
O5 V0 1.953029 1_555
O6 P0 1.592481 1_555
O6 P2 1.592686 1_555
O7 P3 1.586077 1_555
O7 P1 1.597936 1_555
O8 P1 1.527838 1_555
O8 Ru0 1.996636 1_565
O9 P0 1.525026 1_555
O9 Ru0 1.961730 1_555
O10 P3 1.521643 1_555
O10 Ru0 1.965288 1_565
O11 P3 1.499869 1_555
O11 V0 1.936407 1_655
O12 P2 1.496348 1_554
O12 Ru0 1.994467 1_555
O13 P1 1.524110 1_655
O13 Ru0 1.975804 1_565
