# generated using pymatgen
data_Hf3AlRh2N
_symmetry_space_group_name_H-M   'P 1'
_cell_length_a   8.43011671
_cell_length_b   8.43011677
_cell_length_c   8.43011783
_cell_angle_alpha   60.00000351
_cell_angle_beta   60.00000330
_cell_angle_gamma   59.99999797
_symmetry_Int_Tables_number   1
_chemical_formula_structural   Hf3AlRh2N
_chemical_formula_sum   'Hf12 Al4 Rh8 N4'
_cell_volume   423.62915414
_cell_formula_units_Z   4
loop_
 _symmetry_equiv_pos_site_id
 _symmetry_equiv_pos_as_xyz
  1  'x, y, z'
loop_
 _atom_site_type_symbol
 _atom_site_label
 _atom_site_symmetry_multiplicity
 _atom_site_fract_x
 _atom_site_fract_y
 _atom_site_fract_z
 _atom_site_occupancy
  Hf  Hf0  1  0.81032263  0.81032263  0.18967737  1
  Hf  Hf1  1  0.18967737  0.18967737  0.81032263  1
  Hf  Hf2  1  0.81032263  0.18967737  0.81032263  1
  Hf  Hf3  1  0.18967737  0.81032263  0.18967737  1
  Hf  Hf4  1  0.18967737  0.81032263  0.81032263  1
  Hf  Hf5  1  0.81032263  0.18967737  0.18967737  1
  Hf  Hf6  1  0.43967737  0.43967737  0.06032263  1
  Hf  Hf7  1  0.06032263  0.06032263  0.43967737  1
  Hf  Hf8  1  0.43967737  0.06032263  0.43967737  1
  Hf  Hf9  1  0.06032263  0.43967737  0.06032263  1
  Hf  Hf10  1  0.06032263  0.43967737  0.43967737  1
  Hf  Hf11  1  0.43967737  0.06032263  0.06032263  1
  Al  Al0  1  0.12500000  0.62500000  0.62500000  1
  Al  Al1  1  0.62500000  0.12500000  0.62500000  1
  Al  Al2  1  0.62500000  0.62500000  0.12500000  1
  Al  Al3  1  0.62500000  0.62500000  0.62500000  1
  Rh  Rh0  1  0.75579827  0.41473358  0.41473358  1
  Rh  Rh1  1  0.41473358  0.75579827  0.41473358  1
  Rh  Rh2  1  0.41473358  0.41473358  0.75579827  1
  Rh  Rh3  1  0.41473358  0.41473358  0.41473358  1
  Rh  Rh4  1  0.49420173  0.83526642  0.83526642  1
  Rh  Rh5  1  0.83526642  0.49420173  0.83526642  1
  Rh  Rh6  1  0.83526642  0.83526642  0.49420173  1
  Rh  Rh7  1  0.83526642  0.83526642  0.83526642  1
  N  N0  1  0.62500000  0.12500000  0.12500000  1
  N  N1  1  0.12500000  0.62500000  0.12500000  1
  N  N2  1  0.12500000  0.12500000  0.62500000  1
  N  N3  1  0.12500000  0.12500000  0.12500000  1
loop_
_geom_bond_atom_site_label_1
_geom_bond_atom_site_label_2
_geom_bond_distance
_geom_bond_site_symmetry_2
Hf0 N1 2.244159 1_655
Hf0 N0 2.244159 1_565
Hf0 Rh7 2.793322 1_554
Hf0 Rh6 2.793330 1_555
Hf0 Rh1 3.043988 1_555
Hf0 Rh0 3.043988 1_555
Hf1 N2 2.244159 1_555
Hf1 N3 2.244159 1_556
Hf1 Rh5 2.793325 1_455
Hf1 Rh4 2.793325 1_545
Hf1 Rh2 3.043981 1_555
Hf1 Rh3 3.043985 1_555
Hf2 N2 2.244159 1_655
Hf2 N0 2.244159 1_556
Hf2 Rh7 2.793321 1_545
Hf2 Rh5 2.793330 1_555
Hf2 Rh2 3.043988 1_555
Hf2 Rh0 3.043989 1_555
Hf3 N3 2.244159 1_565
Hf3 N1 2.244159 1_555
Hf3 Rh6 2.793325 1_455
Hf3 Rh4 2.793325 1_554
Hf3 Rh1 3.043981 1_555
Hf3 Rh3 3.043985 1_555
Hf4 N2 2.244159 1_565
Hf4 N1 2.244159 1_556
Hf4 Rh7 2.793321 1_455
Hf4 Rh4 2.793330 1_555
Hf4 Rh2 3.043988 1_555
Hf4 Rh1 3.043989 1_555
Hf5 N3 2.244159 1_655
Hf5 N0 2.244159 1_555
Hf5 Rh6 2.793325 1_545
Hf5 Rh5 2.793325 1_554
Hf5 Rh0 3.043981 1_555
Hf5 Rh3 3.043985 1_555
Hf6 N1 2.244159 1_555
Hf6 N0 2.244159 1_555
Hf6 Rh3 2.793322 1_555
Hf6 Rh2 2.793330 1_554
Hf6 Rh5 3.043988 1_554
Hf6 Rh4 3.043988 1_554
Hf7 N2 2.244159 1_555
Hf7 N3 2.244159 1_555
Hf7 Rh1 2.793325 1_545
Hf7 Rh0 2.793325 1_455
Hf7 Rh6 3.043981 1_445
Hf7 Rh7 3.043985 1_445
Hf8 N2 2.244159 1_555
Hf8 N0 2.244159 1_555
Hf8 Rh3 2.793321 1_555
Hf8 Rh1 2.793330 1_545
Hf8 Rh6 3.043988 1_545
Hf8 Rh4 3.043989 1_545
Hf9 N3 2.244159 1_555
Hf9 N1 2.244159 1_555
Hf9 Rh2 2.793325 1_554
Hf9 Rh0 2.793325 1_455
Hf9 Rh5 3.043981 1_454
Hf9 Rh7 3.043985 1_454
Hf10 N2 2.244159 1_555
Hf10 N1 2.244159 1_555
Hf10 Rh3 2.793321 1_555
Hf10 Rh0 2.793330 1_455
Hf10 Rh6 3.043988 1_455
Hf10 Rh5 3.043989 1_455
Hf11 N3 2.244159 1_555
Hf11 N0 2.244159 1_555
Hf11 Rh2 2.793325 1_554
Hf11 Rh1 2.793325 1_545
Hf11 Rh4 3.043981 1_544
Hf11 Rh7 3.043985 1_544
Al0 Rh2 2.594760 1_555
Al0 Rh6 2.594760 1_455
Al0 Rh1 2.594760 1_555
Al0 Rh5 2.594760 1_455
Al0 Rh7 2.594764 1_455
Al0 Rh3 2.594764 1_555
Al1 Rh2 2.594760 1_555
Al1 Rh6 2.594760 1_545
Al1 Rh0 2.594760 1_555
Al1 Rh4 2.594760 1_545
Al1 Rh7 2.594764 1_545
Al1 Rh3 2.594764 1_555
Al2 Rh1 2.594760 1_555
Al2 Rh5 2.594760 1_554
Al2 Rh0 2.594760 1_555
Al2 Rh4 2.594760 1_554
Al2 Rh7 2.594765 1_554
Al2 Rh3 2.594765 1_555
Al3 Rh6 2.594767 1_555
Al3 Rh2 2.594767 1_555
Al3 Rh5 2.594767 1_555
Al3 Rh1 2.594767 1_555
Al3 Rh4 2.594767 1_555
Al3 Rh0 2.594767 1_555
