# generated using pymatgen
data_Hf3ScF15
_symmetry_space_group_name_H-M   'P 1'
_cell_length_a   7.82220736
_cell_length_b   7.82220747
_cell_length_c   7.82220684
_cell_angle_alpha   99.91060228
_cell_angle_beta   99.91060660
_cell_angle_gamma   99.91061822
_symmetry_Int_Tables_number   1
_chemical_formula_structural   Hf3ScF15
_chemical_formula_sum   'Hf6 Sc2 F30'
_cell_volume   454.29187259
_cell_formula_units_Z   2
loop_
 _symmetry_equiv_pos_site_id
 _symmetry_equiv_pos_as_xyz
  1  'x, y, z'
loop_
 _atom_site_type_symbol
 _atom_site_label
 _atom_site_symmetry_multiplicity
 _atom_site_fract_x
 _atom_site_fract_y
 _atom_site_fract_z
 _atom_site_occupancy
  Hf  Hf0  1  0.67987861  0.82012139  0.25000000  1
  Hf  Hf1  1  0.75000000  0.32012139  0.17987861  1
  Hf  Hf2  1  0.82012139  0.25000000  0.67987861  1
  Hf  Hf3  1  0.17987861  0.75000000  0.32012139  1
  Hf  Hf4  1  0.25000000  0.67987861  0.82012139  1
  Hf  Hf5  1  0.32012139  0.17987861  0.75000000  1
  Sc  Sc0  1  0.75000000  0.75000000  0.75000000  1
  Sc  Sc1  1  0.25000000  0.25000000  0.25000000  1
  F  F0  1  0.96025277  0.53974723  0.25000000  1
  F  F1  1  0.28006250  0.51671554  0.27779842  1
  F  F2  1  0.14748876  0.67595755  0.04856671  1
  F  F3  1  0.75000000  0.03974723  0.46025277  1
  F  F4  1  0.77779842  0.01671554  0.78006250  1
  F  F5  1  0.54856671  0.17595755  0.64748876  1
  F  F6  1  0.98328446  0.21993750  0.22220158  1
  F  F7  1  0.21993750  0.22220158  0.98328446  1
  F  F8  1  0.67595755  0.04856671  0.14748876  1
  F  F9  1  0.82404245  0.35251124  0.45143329  1
  F  F10  1  0.53974723  0.25000000  0.96025277  1
  F  F11  1  0.04856671  0.14748876  0.67595755  1
  F  F12  1  0.35251124  0.45143329  0.82404245  1
  F  F13  1  0.51671554  0.27779842  0.28006250  1
  F  F14  1  0.27779842  0.28006250  0.51671554  1
  F  F15  1  0.72220158  0.71993750  0.48328446  1
  F  F16  1  0.48328446  0.72220158  0.71993750  1
  F  F17  1  0.64748876  0.54856671  0.17595755  1
  F  F18  1  0.95143329  0.85251124  0.32404245  1
  F  F19  1  0.46025277  0.75000000  0.03974723  1
  F  F20  1  0.17595755  0.64748876  0.54856671  1
  F  F21  1  0.32404245  0.95143329  0.85251124  1
  F  F22  1  0.78006250  0.77779842  0.01671554  1
  F  F23  1  0.01671554  0.78006250  0.77779842  1
  F  F24  1  0.45143329  0.82404245  0.35251124  1
  F  F25  1  0.22220158  0.98328446  0.21993750  1
  F  F26  1  0.25000000  0.96025277  0.53974723  1
  F  F27  1  0.85251124  0.32404245  0.95143329  1
  F  F28  1  0.71993750  0.48328446  0.72220158  1
  F  F29  1  0.03974723  0.46025277  0.75000000  1
loop_
_geom_bond_atom_site_label_1
_geom_bond_atom_site_label_2
_geom_bond_distance
_geom_bond_site_symmetry_2
F0 Hf3 2.085574 1_655
F0 Hf1 2.085574 1_555
F1 Sc1 2.027957 1_555
F1 Hf3 2.104095 1_555
F2 Hf3 2.062142 1_555
F2 Hf4 2.083444 1_554
F3 Hf2 2.085575 1_555
F3 Hf0 2.085575 1_545
F4 Sc0 2.027957 1_545
F4 Hf2 2.104095 1_555
F5 Hf2 2.062142 1_555
F5 Hf5 2.083444 1_555
F6 Sc1 2.027957 1_655
F6 Hf1 2.104095 1_555
F7 Sc1 2.027956 1_556
F7 Hf5 2.104095 1_555
F8 Hf1 2.062142 1_555
F8 Hf0 2.083444 1_545
F9 Hf1 2.062142 1_555
F9 Hf2 2.083444 1_555
F10 Hf1 2.085575 1_556
F10 Hf5 2.085575 1_555
F11 Hf5 2.062142 1_555
F11 Hf2 2.083444 1_455
F12 Hf5 2.062142 1_555
F12 Hf4 2.083444 1_555
F13 Sc1 2.027957 1_555
F13 Hf1 2.104095 1_555
F14 Sc1 2.027956 1_555
F14 Hf5 2.104095 1_555
F15 Sc0 2.027956 1_555
F15 Hf0 2.104095 1_555
F16 Sc0 2.027957 1_555
F16 Hf4 2.104095 1_555
F17 Hf0 2.062142 1_555
F17 Hf1 2.083444 1_555
F18 Hf0 2.062142 1_555
F18 Hf3 2.083444 1_655
F19 Hf4 2.085575 1_554
F19 Hf0 2.085575 1_555
F20 Hf4 2.062142 1_555
F20 Hf3 2.083444 1_555
F21 Hf4 2.062142 1_555
F21 Hf5 2.083444 1_565
F22 Sc0 2.027956 1_554
F22 Hf0 2.104095 1_555
F23 Sc0 2.027957 1_455
F23 Hf4 2.104095 1_555
F24 Hf3 2.062142 1_555
F24 Hf0 2.083444 1_555
F25 Sc1 2.027957 1_565
F25 Hf3 2.104095 1_555
F26 Hf3 2.085575 1_555
F26 Hf5 2.085575 1_565
F27 Hf2 2.062142 1_555
F27 Hf1 2.083444 1_556
F28 Sc0 2.027957 1_555
F28 Hf2 2.104095 1_555
F29 Hf2 2.085574 1_455
F29 Hf4 2.085574 1_555
