# generated using pymatgen
data_TcTeS
_symmetry_space_group_name_H-M   'P 1'
_cell_length_a   7.16496327
_cell_length_b   7.16496373
_cell_length_c   7.16496323
_cell_angle_alpha   60.00000230
_cell_angle_beta   60.00000020
_cell_angle_gamma   59.99999960
_symmetry_Int_Tables_number   1
_chemical_formula_structural   TcTeS
_chemical_formula_sum   'Tc4 Te4 S4'
_cell_volume   260.09196715
_cell_formula_units_Z   4
loop_
 _symmetry_equiv_pos_site_id
 _symmetry_equiv_pos_as_xyz
  1  'x, y, z'
loop_
 _atom_site_type_symbol
 _atom_site_label
 _atom_site_symmetry_multiplicity
 _atom_site_fract_x
 _atom_site_fract_y
 _atom_site_fract_z
 _atom_site_occupancy
  Tc  Tc0  1  0.15295897  0.15295897  0.15295897  1
  Tc  Tc1  1  0.54112209  0.15295897  0.15295897  1
  Tc  Tc2  1  0.15295897  0.15295897  0.54112209  1
  Tc  Tc3  1  0.15295897  0.54112209  0.15295897  1
  Te  Te0  1  0.87883229  0.36350213  0.87883229  1
  Te  Te1  1  0.87883229  0.87883229  0.36350213  1
  Te  Te2  1  0.36350213  0.87883229  0.87883229  1
  Te  Te3  1  0.87883229  0.87883229  0.87883229  1
  S  S0  1  0.37718925  0.37718925  0.37718925  1
  S  S1  1  0.86843425  0.37718925  0.37718925  1
  S  S2  1  0.37718925  0.37718925  0.86843425  1
  S  S3  1  0.37718925  0.86843425  0.37718925  1
loop_
_geom_bond_atom_site_label_1
_geom_bond_atom_site_label_2
_geom_bond_distance
_geom_bond_site_symmetry_2
Tc0 Te0 2.814780 1_454
Tc0 Te2 2.814780 1_544
Tc0 Te1 2.814780 1_445
Tc1 Te1 2.814780 1_545
Tc1 Te3 2.814780 1_544
Tc1 Te0 2.814780 1_554
Tc2 Te0 2.814780 1_455
Tc2 Te2 2.814780 1_545
Tc2 Te3 2.814780 1_445
Tc3 Te1 2.814780 1_455
Tc3 Te3 2.814780 1_454
Tc3 Te2 2.814780 1_554
S0 Tc3 2.312788 1_555
S0 Tc1 2.312788 1_555
S0 Tc2 2.312788 1_555
S1 Tc2 2.312771 1_655
S1 Tc3 2.312771 1_655
S1 Tc0 2.312784 1_655
S2 Tc3 2.312771 1_556
S2 Tc1 2.312771 1_556
S2 Tc0 2.312784 1_556
S3 Tc2 2.312771 1_565
S3 Tc1 2.312771 1_565
S3 Tc0 2.312784 1_565
