# generated using pymatgen
data_Cu2Pd(CO4)2
_symmetry_space_group_name_H-M   'P 1'
_cell_length_a   5.67653138
_cell_length_b   5.01511476
_cell_length_c   10.50318235
_cell_angle_alpha   81.78488797
_cell_angle_beta   90.00000000
_cell_angle_gamma   90.00000000
_symmetry_Int_Tables_number   1
_chemical_formula_structural   Cu2Pd(CO4)2
_chemical_formula_sum   'Cu4 Pd2 C4 O16'
_cell_volume   295.94112621
_cell_formula_units_Z   2
loop_
 _symmetry_equiv_pos_site_id
 _symmetry_equiv_pos_as_xyz
  1  'x, y, z'
loop_
 _atom_site_type_symbol
 _atom_site_label
 _atom_site_symmetry_multiplicity
 _atom_site_fract_x
 _atom_site_fract_y
 _atom_site_fract_z
 _atom_site_occupancy
  Cu  Cu0  1  0.00029534  0.75501860  0.58165503  1
  Cu  Cu1  1  0.50029534  0.24498140  0.91834497  1
  Cu  Cu2  1  0.99970466  0.24498140  0.41834497  1
  Cu  Cu3  1  0.49970466  0.75501860  0.08165503  1
  Pd  Pd0  1  0.50000000  0.00000000  0.50000000  1
  Pd  Pd1  1  0.00000000  0.00000000  0.00000000  1
  C  C0  1  0.80547679  0.67471508  0.81687193  1
  C  C1  1  0.30547679  0.32528492  0.68312807  1
  C  C2  1  0.19452321  0.32528492  0.18312807  1
  C  C3  1  0.69452321  0.67471508  0.31687193  1
  O  O0  1  0.32255364  0.93809187  0.95072148  1
  O  O1  1  0.82255364  0.06190813  0.54927852  1
  O  O2  1  0.67744636  0.06190813  0.04927852  1
  O  O3  1  0.17744636  0.93809187  0.45072148  1
  O  O4  1  0.91634295  0.89279290  0.82733078  1
  O  O5  1  0.41634295  0.10720710  0.67266922  1
  O  O6  1  0.08365705  0.10720710  0.17266922  1
  O  O7  1  0.58365705  0.89279290  0.32733078  1
  O  O8  1  0.69972383  0.54391089  0.91568117  1
  O  O9  1  0.19972383  0.45608911  0.58431883  1
  O  O10  1  0.30027617  0.45608911  0.08431883  1
  O  O11  1  0.80027617  0.54391089  0.41568117  1
  O  O12  1  0.79924279  0.58357521  0.70863584  1
  O  O13  1  0.29924279  0.41642479  0.79136416  1
  O  O14  1  0.20075721  0.41642479  0.29136416  1
  O  O15  1  0.70075721  0.58357521  0.20863584  1
loop_
_geom_bond_atom_site_label_1
_geom_bond_atom_site_label_2
_geom_bond_distance
_geom_bond_site_symmetry_2
Cu0 O1 1.831078 1_465
Cu0 O3 1.839728 1_555
Cu0 O12 1.868915 1_455
Cu0 O9 1.875595 1_555
Cu0 O11 2.444679 1_455
Cu1 O0 1.831078 1_545
Cu1 O2 1.839728 1_556
Cu1 O13 1.868915 1_555
Cu1 O8 1.875595 1_555
Cu1 O10 2.444679 1_556
Cu2 O3 1.831078 1_645
Cu2 O1 1.839728 1_555
Cu2 O14 1.868915 1_655
Cu2 O11 1.875595 1_555
Cu2 O9 2.444679 1_655
Cu3 O2 1.831078 1_565
Cu3 O0 1.839728 1_554
Cu3 O15 1.868915 1_555
Cu3 O10 1.875595 1_555
Cu3 O8 2.444679 1_554
C0 O4 1.280083 1_555
C0 O12 1.284926 1_555
C0 O8 1.293522 1_555
C1 O5 1.280083 1_555
C1 O13 1.284926 1_555
C1 O9 1.293522 1_555
C2 O6 1.280083 1_555
C2 O14 1.284926 1_555
C2 O10 1.293522 1_555
C3 O7 1.280083 1_555
C3 O15 1.284926 1_555
C3 O11 1.293522 1_555
O0 Pd1 1.939773 1_566
O1 Pd0 1.939773 1_555
O2 Pd1 1.939773 1_655
O3 Pd0 1.939773 1_565
O4 Pd1 2.020471 1_666
O5 Pd0 2.020471 1_555
O6 Pd1 2.020471 1_555
O7 Pd0 2.020471 1_565
