# generated using pymatgen
data_Cs3ScPBr9
_symmetry_space_group_name_H-M   'P 1'
_cell_length_a   7.76006405
_cell_length_b   7.76006395
_cell_length_c   19.07658669
_cell_angle_alpha   90.00000000
_cell_angle_beta   90.00000000
_cell_angle_gamma   119.99999635
_symmetry_Int_Tables_number   1
_chemical_formula_structural   Cs3ScPBr9
_chemical_formula_sum   'Cs6 Sc2 P2 Br18'
_cell_volume   994.85989576
_cell_formula_units_Z   2
loop_
 _symmetry_equiv_pos_site_id
 _symmetry_equiv_pos_as_xyz
  1  'x, y, z'
loop_
 _atom_site_type_symbol
 _atom_site_label
 _atom_site_symmetry_multiplicity
 _atom_site_fract_x
 _atom_site_fract_y
 _atom_site_fract_z
 _atom_site_occupancy
  Cs  Cs0  1  0.66666700  0.33333300  0.90839027  1
  Cs  Cs1  1  0.33333300  0.66666700  0.40839027  1
  Cs  Cs2  1  0.66666700  0.33333300  0.58180931  1
  Cs  Cs3  1  0.33333300  0.66666700  0.08180931  1
  Cs  Cs4  1  0.00000000  0.00000000  0.76190230  1
  Cs  Cs5  1  0.00000000  0.00000000  0.26190230  1
  Sc  Sc0  1  0.66666700  0.33333300  0.34136291  1
  Sc  Sc1  1  0.33333300  0.66666700  0.84136291  1
  P  P0  1  0.33333300  0.66666700  0.64584916  1
  P  P1  1  0.66666700  0.33333300  0.14584916  1
  Br  Br0  1  0.82795808  0.65591516  0.41677692  1
  Br  Br1  1  0.17204192  0.34408484  0.91677692  1
  Br  Br2  1  0.17204192  0.82795808  0.91677692  1
  Br  Br3  1  0.18280474  0.36561147  0.58357961  1
  Br  Br4  1  0.65591516  0.82795808  0.91677692  1
  Br  Br5  1  0.34408484  0.17204192  0.41677692  1
  Br  Br6  1  0.01210738  0.50605369  0.75320515  1
  Br  Br7  1  0.82795808  0.17204192  0.41677692  1
  Br  Br8  1  0.50605369  0.01210738  0.25320515  1
  Br  Br9  1  0.49394631  0.50605369  0.75320515  1
  Br  Br10  1  0.50605369  0.49394631  0.25320515  1
  Br  Br11  1  0.98789262  0.49394631  0.25320515  1
  Br  Br12  1  0.36561147  0.18280474  0.08357961  1
  Br  Br13  1  0.49394631  0.98789262  0.75320515  1
  Br  Br14  1  0.81719526  0.63438853  0.08357961  1
  Br  Br15  1  0.18280474  0.81719526  0.58357961  1
  Br  Br16  1  0.63438853  0.81719526  0.58357961  1
  Br  Br17  1  0.81719526  0.18280474  0.08357961  1
loop_
_geom_bond_atom_site_label_1
_geom_bond_atom_site_label_2
_geom_bond_distance
_geom_bond_site_symmetry_2
Br0 Sc0 2.601810 1_555
Br0 Cs5 3.751813 1_665
Br0 Cs2 3.822464 1_555
Br0 Cs1 3.883994 1_655
Br0 Cs1 3.884009 1_555
Br1 Sc1 2.601810 1_555
Br1 Cs4 3.751813 1_555
Br1 Cs3 3.822464 1_556
Br1 Cs0 3.883994 1_455
Br1 Cs0 3.884009 1_555
Br2 Sc1 2.601810 1_555
Br2 Cs4 3.751809 1_565
Br2 Cs3 3.822464 1_556
Br2 Cs0 3.884001 1_565
Br2 Cs0 3.884001 1_455
Br3 P0 2.346165 1_555
Br3 Cs2 3.886226 1_455
Br3 Cs2 3.886250 1_555
Br3 Cs1 3.906721 1_555
Br3 Cs4 4.196344 1_555
Br4 Sc1 2.601810 1_555
Br4 Cs4 3.751813 1_665
Br4 Cs3 3.822464 1_556
Br4 Cs0 3.883993 1_565
Br4 Cs0 3.884009 1_555
Br5 Sc0 2.601810 1_555
Br5 Cs5 3.751813 1_555
Br5 Cs2 3.822464 1_555
Br5 Cs1 3.883993 1_545
Br5 Cs1 3.884009 1_555
Br6 Sc1 2.736524 1_555
Br6 P0 2.975656 1_555
Br6 Cs0 3.762094 1_455
Br6 Cs4 3.884430 1_565
Br6 Cs4 3.884430 1_555
Br6 Cs2 4.009984 1_455
Br7 Sc0 2.601810 1_555
Br7 Cs5 3.751809 1_655
Br7 Cs2 3.822464 1_555
Br7 Cs1 3.884001 1_545
Br7 Cs1 3.884001 1_655
Br8 Sc0 2.736524 1_555
Br8 P1 2.975656 1_555
Br8 Cs1 3.762094 1_545
Br8 Cs5 3.884430 1_655
Br8 Cs5 3.884430 1_555
Br8 Cs3 4.009984 1_545
Br9 Sc1 2.736529 1_555
Br9 P0 2.975661 1_555
Br9 Cs0 3.762098 1_555
Br9 Cs4 3.884430 1_555
Br9 Cs4 3.884430 1_665
Br9 Cs2 4.009987 1_555
Br10 Sc0 2.736529 1_555
Br10 P1 2.975661 1_555
Br10 Cs1 3.762098 1_555
Br10 Cs5 3.884430 1_665
Br10 Cs5 3.884430 1_555
Br10 Cs3 4.009987 1_555
Br11 Sc0 2.736524 1_555
Br11 P1 2.975656 1_555
Br11 Cs1 3.762094 1_655
Br11 Cs5 3.884430 1_655
Br11 Cs5 3.884430 1_665
Br11 Cs3 4.009984 1_655
Br12 P1 2.346165 1_555
Br12 Cs3 3.886226 1_545
Br12 Cs3 3.886250 1_555
Br12 Cs0 3.906721 1_554
Br12 Cs5 4.196344 1_555
Br13 Sc1 2.736524 1_555
Br13 P0 2.975656 1_555
Br13 Cs0 3.762094 1_565
Br13 Cs4 3.884430 1_565
Br13 Cs4 3.884430 1_665
Br13 Cs2 4.009984 1_565
Br14 P1 2.346165 1_555
Br14 Cs3 3.886226 1_655
Br14 Cs3 3.886250 1_555
Br14 Cs0 3.906721 1_554
Br14 Cs5 4.196344 1_665
Br15 P0 2.346171 1_555
Br15 Cs2 3.886237 1_565
Br15 Cs2 3.886237 1_455
Br15 Cs1 3.906725 1_555
Br15 Cs4 4.196336 1_565
Br16 P0 2.346165 1_555
Br16 Cs2 3.886226 1_565
Br16 Cs2 3.886250 1_555
Br16 Cs1 3.906721 1_555
Br16 Cs4 4.196344 1_665
Br17 P1 2.346171 1_555
Br17 Cs3 3.886237 1_545
Br17 Cs3 3.886237 1_655
Br17 Cs0 3.906725 1_554
Br17 Cs5 4.196336 1_655
