# generated using pymatgen
data_AlGa(AsI6)2
_symmetry_space_group_name_H-M   'P 1'
_cell_length_a   10.42719565
_cell_length_b   10.42719646
_cell_length_c   7.35051962
_cell_angle_alpha   70.93603933
_cell_angle_beta   70.93603760
_cell_angle_gamma   79.21177086
_symmetry_Int_Tables_number   1
_chemical_formula_structural   AlGa(AsI6)2
_chemical_formula_sum   'Al1 Ga1 As2 I12'
_cell_volume   711.03075727
_cell_formula_units_Z   1
loop_
 _symmetry_equiv_pos_site_id
 _symmetry_equiv_pos_as_xyz
  1  'x, y, z'
loop_
 _atom_site_type_symbol
 _atom_site_label
 _atom_site_symmetry_multiplicity
 _atom_site_fract_x
 _atom_site_fract_y
 _atom_site_fract_z
 _atom_site_occupancy
  Al  Al0  1  0.80654933  0.80654933  0.33193904  1
  Ga  Ga0  1  0.19332762  0.19332762  0.67118280  1
  As  As0  1  0.79836435  0.20237430  0.99834048  1
  As  As1  1  0.20237430  0.79836435  0.99834048  1
  I  I0  1  0.22450867  0.57346652  0.91493849  1
  I  I1  1  0.42682945  0.77716709  0.08234026  1
  I  I2  1  0.77716709  0.42682945  0.08234026  1
  I  I3  1  0.57346652  0.22450867  0.91493849  1
  I  I4  1  0.03196991  0.71706836  0.42816903  1
  I  I5  1  0.28274399  0.96666538  0.57239637  1
  I  I6  1  0.96666538  0.28274399  0.57239637  1
  I  I7  1  0.71706836  0.03196991  0.42816903  1
  I  I8  1  0.86572082  0.86572082  0.95162462  1
  I  I9  1  0.13286668  0.13286668  0.05355828  1
  I  I10  1  0.63553603  0.63553603  0.51578598  1
  I  I11  1  0.36484251  0.36484251  0.48354302  1
loop_
_geom_bond_atom_site_label_1
_geom_bond_atom_site_label_2
_geom_bond_distance
_geom_bond_site_symmetry_2
Al0 I10 2.495552 1_555
Al0 I8 2.542693 1_554
Al0 I4 2.594170 1_655
Al0 I7 2.594170 1_565
Ga0 I11 2.504773 1_555
Ga0 I9 2.555085 1_556
Ga0 I6 2.614644 1_455
Ga0 I5 2.614644 1_545
As0 I2 2.562992 1_556
As0 I3 2.563680 1_555
As0 I6 2.971856 1_555
As0 I7 3.000836 1_556
As1 I1 2.562992 1_556
As1 I0 2.563680 1_555
As1 I5 2.971856 1_555
As1 I4 3.000836 1_556
