# generated using pymatgen
data_Ti8Al15Co6Cu
_symmetry_space_group_name_H-M   'P 1'
_cell_length_a   8.38115818
_cell_length_b   8.34710889
_cell_length_c   8.37718598
_cell_angle_alpha   119.93178795
_cell_angle_beta   119.89443815
_cell_angle_gamma   90.02988768
_symmetry_Int_Tables_number   1
_chemical_formula_structural   Ti8Al15Co6Cu
_chemical_formula_sum   'Ti8 Al15 Co6 Cu1'
_cell_volume   415.38205182
_cell_formula_units_Z   1
loop_
 _symmetry_equiv_pos_site_id
 _symmetry_equiv_pos_as_xyz
  1  'x, y, z'
loop_
 _atom_site_type_symbol
 _atom_site_label
 _atom_site_symmetry_multiplicity
 _atom_site_fract_x
 _atom_site_fract_y
 _atom_site_fract_z
 _atom_site_occupancy
  Ti  Ti0  1  0.79029110  0.28911587  0.07539618  1
  Ti  Ti1  1  0.21495233  0.28782329  0.49763158  1
  Ti  Ti2  1  0.21142166  0.71033001  0.50044035  1
  Ti  Ti3  1  0.21262133  0.71594626  0.92322750  1
  Ti  Ti4  1  0.78965953  0.71594613  0.50258023  1
  Ti  Ti5  1  0.78329244  0.28421389  0.49968642  1
  Ti  Ti6  1  0.38995119  0.12474899  0.74852340  1
  Ti  Ti7  1  0.38088122  0.63926818  0.26116153  1
  Al  Al0  1  0.99709409  0.49654502  0.49955086  1
  Al  Al1  1  0.15808003  0.34065985  0.18409756  1
  Al  Al2  1  0.16126598  0.97778636  0.82329491  1
  Al  Al3  1  0.15715702  0.34699320  0.81680266  1
  Al  Al4  1  0.53019122  0.34244786  0.18928193  1
  Al  Al5  1  0.84101260  0.65657366  0.81537713  1
  Al  Al6  1  0.83818532  0.02540245  0.17727520  1
  Al  Al7  1  0.83738229  0.65226035  0.17572212  1
  Al  Al8  1  0.47566227  0.65733115  0.81667623  1
  Al  Al9  1  0.38032816  0.12104906  0.26119699  1
  Al  Al10  1  0.85818750  0.12429971  0.74815182  1
  Al  Al11  1  0.61251464  0.87658200  0.25242266  1
  Al  Al12  1  0.61978412  0.36151120  0.73895050  1
  Al  Al13  1  0.62090410  0.87733044  0.74038055  1
  Al  Al14  1  0.13956007  0.87716167  0.25232208  1
  Co  Co0  1  0.49833544  0.00013771  0.99660061  1
  Co  Co1  1  0.49805884  0.49742446  0.00103637  1
  Co  Co2  1  0.49763591  0.50139682  0.49735995  1
  Co  Co3  1  0.00463732  0.50131761  0.00425347  1
  Co  Co4  1  0.00030568  0.00019645  0.99926476  1
  Co  Co5  1  0.49882523  0.99845215  0.50129063  1
  Cu  Cu0  1  0.00181436  0.99974319  0.50004280  1
loop_
_geom_bond_atom_site_label_1
_geom_bond_atom_site_label_2
_geom_bond_distance
_geom_bond_site_symmetry_2
Ti0 Ti6 2.779614 1_554
Ti1 Ti6 2.864573 1_555
Ti2 Ti7 2.835333 1_555
Ti2 Ti6 2.871357 1_565
Ti3 Ti7 2.870922 1_556
Ti4 Ti7 2.834916 1_555
Al0 Ti3 2.516571 1_655
Al0 Ti0 2.519095 1_555
Al0 Ti5 2.520492 1_555
Al0 Ti1 2.524709 1_655
Al0 Ti4 2.525468 1_555
Al0 Ti2 2.526110 1_655
Al1 Co4 2.405464 1_554
Al1 Co3 2.410126 1_555
Al1 Co2 2.413240 1_555
Al1 Al10 2.679498 1_454
Al1 Ti1 2.688614 1_555
Al1 Al9 2.689417 1_555
Al1 Ti0 2.706613 1_455
Al1 Ti2 2.720538 1_555
Al2 Co4 2.394856 1_565
Al2 Co0 2.400875 1_565
Al2 Cu0 2.457784 1_555
Al2 Ti3 2.670335 1_555
Al2 Al9 2.676622 1_566
Al2 Ti4 2.736284 1_455
Al2 Ti6 2.744405 1_565
Al2 Ti2 2.753969 1_555
Al3 Co3 2.396508 1_556
Al3 Co1 2.405982 1_556
Al3 Cu0 2.452483 1_545
Al3 Ti3 2.709395 1_555
Al3 Ti5 2.731613 1_455
Al3 Ti1 2.756984 1_555
Al3 Ti6 2.762714 1_555
Al4 Co2 2.404297 1_555
Al4 Co0 2.409968 1_554
Al4 Co1 2.417762 1_555
Al4 Al9 2.686762 1_555
Al4 Ti5 2.694775 1_555
Al4 Ti6 2.700530 1_554
Al4 Ti4 2.734072 1_555
Al4 Ti0 2.740583 1_555
Al5 Co4 2.432888 1_665
Al5 Co3 2.439023 1_656
Al5 Co2 2.442826 1_555
Al5 Ti5 2.721902 1_555
Al5 Ti4 2.732964 1_555
Al5 Ti3 2.740202 1_655
Al6 Co4 2.412713 1_654
Al6 Co0 2.414919 1_554
Al6 Cu0 2.473775 1_645
Al6 Ti0 2.696150 1_555
Al6 Ti5 2.755068 1_555
Al6 Ti1 2.765988 1_655
Al7 Co3 2.412195 1_655
Al7 Co1 2.420757 1_555
Al7 Cu0 2.468409 1_655
Al7 Ti0 2.678829 1_555
Al7 Ti4 2.753066 1_555
Al7 Ti2 2.764834 1_655
Al8 Co2 2.429054 1_555
Al8 Co0 2.430162 1_565
Al8 Co1 2.443462 1_556
Al8 Ti1 2.715876 1_555
Al8 Ti3 2.724548 1_555
Al8 Ti2 2.727777 1_555
Al9 Co5 2.478469 1_545
Al9 Co2 2.598047 1_555
Al9 Co4 2.607306 1_554
Al9 Co0 2.619891 1_554
Al9 Ti1 2.787288 1_555
Al9 Ti5 2.794018 1_555
Al9 Ti3 2.810692 1_544
Al10 Co5 2.464067 1_545
Al10 Co4 2.568142 1_655
Al10 Co3 2.578056 1_656
Al10 Cu0 2.681185 1_645
Al10 Al2 2.742600 1_645
Al10 Ti0 2.742963 1_556
Al10 Al3 2.748914 1_655
Al10 Al12 2.814563 1_555
Al10 Al13 2.818092 1_545
Al10 Ti5 2.824764 1_555
Al10 Ti4 2.828930 1_545
Al10 Al11 2.943448 1_545
Al11 Co5 2.480714 1_555
Al11 Co1 2.589096 1_555
Al11 Co0 2.595105 1_564
Al11 Cu0 2.669716 1_655
Al11 Al8 2.673456 1_554
Al11 Al7 2.735128 1_555
Al11 Al6 2.735242 1_565
Al11 Ti3 2.779927 1_554
Al11 Ti5 2.814742 1_565
Al11 Al9 2.820168 1_565
Al11 Ti7 2.824977 1_555
Al11 Ti4 2.845793 1_555
Al12 Co5 2.477753 1_545
Al12 Co2 2.607990 1_555
Al12 Co1 2.626127 1_556
Al12 Co3 2.639562 1_656
Al12 Al7 2.661922 1_556
Al12 Al5 2.674335 1_555
Al12 Al8 2.676339 1_555
Al12 Ti5 2.785688 1_555
Al12 Ti1 2.810160 1_555
Al12 Ti6 2.816165 1_555
Al12 Ti0 2.834926 1_556
Al12 Al9 2.836725 1_555
Al13 Co5 2.461655 1_555
Al13 Co2 2.565859 1_555
Al13 Co0 2.591603 1_565
Al13 Co4 2.601789 1_665
Al13 Al6 2.660599 1_566
Al13 Al5 2.682702 1_555
Al13 Al8 2.684586 1_555
Al13 Ti4 2.813554 1_555
Al13 Ti6 2.830509 1_565
Al13 Ti2 2.843267 1_555
Al13 Ti7 2.845457 1_555
Al13 Ti0 2.846583 1_566
Al14 Co5 2.463952 1_555
Al14 Co3 2.566554 1_555
Al14 Co4 2.572637 1_564
Al14 Cu0 2.637532 1_555
Al14 Al5 2.681265 1_454
Al14 Al6 2.739169 1_465
Al14 Al7 2.742795 1_455
Al14 Ti3 2.787044 1_554
Al14 Al9 2.813705 1_565
Al14 Ti7 2.835653 1_555
Al14 Ti1 2.836559 1_565
Al14 Ti2 2.874682 1_555
Al14 Ti6 2.946348 1_565
Co0 Ti6 2.549962 1_555
Co0 Ti3 2.968339 1_545
Co0 Ti2 2.984505 1_545
Co0 Ti0 3.006066 1_556
Co0 Ti5 3.012688 1_556
Co1 Ti6 2.547991 1_554
Co1 Ti7 2.583524 1_555
Co1 Ti0 2.995778 1_555
Co1 Ti4 3.010767 1_555
Co1 Ti3 3.018558 1_554
Co1 Ti1 3.022176 1_554
Co2 Ti7 2.557474 1_555
Co2 Ti1 2.965856 1_555
Co2 Ti2 2.969443 1_555
Co2 Ti4 3.001655 1_555
Co2 Ti5 3.001991 1_555
Co3 Ti7 2.580633 1_555
Co3 Ti0 2.972753 1_455
Co3 Ti2 2.983990 1_555
Co3 Ti3 3.016380 1_554
Co3 Ti5 3.021247 1_454
Co4 Ti3 2.971157 1_545
Co4 Ti4 2.979977 1_445
Co4 Ti0 2.984874 1_456
Co4 Ti1 2.989402 1_556
Co5 Ti6 2.437103 1_565
Co5 Ti7 2.451268 1_555
Cu0 Ti6 2.661407 1_565
Cu0 Ti4 2.976113 1_455
Cu0 Ti2 2.988097 1_555
Cu0 Ti5 2.999788 1_465
Cu0 Ti1 3.008930 1_565
