# generated using pymatgen
data_Cs6MgTe4
_symmetry_space_group_name_H-M   'P 1'
_cell_length_a   11.85351571
_cell_length_b   11.85351508
_cell_length_c   9.23771614
_cell_angle_alpha   90.00000000
_cell_angle_beta   90.00000000
_cell_angle_gamma   119.99999903
_symmetry_Int_Tables_number   1
_chemical_formula_structural   Cs6MgTe4
_chemical_formula_sum   'Cs12 Mg2 Te8'
_cell_volume   1124.06023702
_cell_formula_units_Z   2
loop_
 _symmetry_equiv_pos_site_id
 _symmetry_equiv_pos_as_xyz
  1  'x, y, z'
loop_
 _atom_site_type_symbol
 _atom_site_label
 _atom_site_symmetry_multiplicity
 _atom_site_fract_x
 _atom_site_fract_y
 _atom_site_fract_z
 _atom_site_occupancy
  Cs  Cs0  1  0.14768581  0.85231419  0.54525226  1
  Cs  Cs1  1  0.29537062  0.14768581  0.04525226  1
  Cs  Cs2  1  0.85231419  0.70462938  0.04525226  1
  Cs  Cs3  1  0.14768581  0.29537062  0.54525226  1
  Cs  Cs4  1  0.70462938  0.85231419  0.54525226  1
  Cs  Cs5  1  0.85231419  0.14768581  0.04525226  1
  Cs  Cs6  1  0.52685716  0.47314284  0.36411494  1
  Cs  Cs7  1  0.05371332  0.52685716  0.86411494  1
  Cs  Cs8  1  0.47314284  0.94628668  0.86411494  1
  Cs  Cs9  1  0.52685716  0.05371332  0.36411494  1
  Cs  Cs10  1  0.94628668  0.47314284  0.36411494  1
  Cs  Cs11  1  0.47314284  0.52685716  0.86411494  1
  Mg  Mg0  1  0.33333300  0.66666700  0.24985795  1
  Mg  Mg1  1  0.66666700  0.33333300  0.74985795  1
  Te  Te0  1  0.33333300  0.66666700  0.56213908  1
  Te  Te1  1  0.66666700  0.33333300  0.06213908  1
  Te  Te2  1  0.19976935  0.80023065  0.15380079  1
  Te  Te3  1  0.39953870  0.19976935  0.65380079  1
  Te  Te4  1  0.80023065  0.60046130  0.65380079  1
  Te  Te5  1  0.19976935  0.39953870  0.15380079  1
  Te  Te6  1  0.60046130  0.80023065  0.15380079  1
  Te  Te7  1  0.80023065  0.19976935  0.65380079  1
loop_
_geom_bond_atom_site_label_1
_geom_bond_atom_site_label_2
_geom_bond_distance
_geom_bond_site_symmetry_2
Cs0 Te2 3.770909 1_555
Cs0 Te0 3.814693 1_555
Cs0 Te3 3.819032 1_565
Cs0 Te4 3.819033 1_455
Cs1 Te3 3.770912 1_554
Cs1 Te1 3.814714 1_555
Cs1 Te5 3.819024 1_555
Cs1 Te2 3.819035 1_545
Cs2 Te4 3.770912 1_554
Cs2 Te1 3.814714 1_555
Cs2 Te6 3.819024 1_555
Cs2 Te2 3.819035 1_655
Cs3 Te5 3.770912 1_555
Cs3 Te0 3.814714 1_555
Cs3 Te3 3.819024 1_555
Cs3 Te7 3.819035 1_455
Cs4 Te6 3.770912 1_555
Cs4 Te0 3.814714 1_555
Cs4 Te4 3.819024 1_555
Cs4 Te7 3.819035 1_565
Cs5 Te7 3.770909 1_554
Cs5 Te1 3.814693 1_555
Cs5 Te6 3.819032 1_545
Cs5 Te5 3.819033 1_655
Cs6 Te3 3.879281 1_555
Cs6 Te4 3.879281 1_555
Cs6 Te1 4.002624 1_555
Cs6 Te6 4.023095 1_555
Cs6 Te5 4.023096 1_555
Cs7 Te2 3.879281 1_556
Cs7 Te5 3.879289 1_556
Cs7 Te0 4.002624 1_555
Cs7 Te4 4.023085 1_455
Cs7 Te7 4.023092 1_455
Cs8 Te2 3.879281 1_556
Cs8 Te6 3.879289 1_556
Cs8 Te0 4.002624 1_555
Cs8 Te3 4.023085 1_565
Cs8 Te7 4.023092 1_565
Cs9 Te7 3.879281 1_555
Cs9 Te3 3.879289 1_555
Cs9 Te1 4.002624 1_555
Cs9 Te6 4.023085 1_545
Cs9 Te2 4.023092 1_545
Cs10 Te7 3.879281 1_555
Cs10 Te4 3.879289 1_555
Cs10 Te1 4.002624 1_555
Cs10 Te5 4.023085 1_655
Cs10 Te2 4.023092 1_655
Cs11 Te6 3.879281 1_556
Cs11 Te5 3.879281 1_556
Cs11 Te0 4.002624 1_555
Cs11 Te3 4.023095 1_555
Cs11 Te4 4.023096 1_555
Mg0 Te2 2.882177 1_555
Mg0 Te5 2.882187 1_555
Mg0 Te6 2.882187 1_555
Mg0 Te0 2.884764 1_555
Mg1 Te7 2.882177 1_555
Mg1 Te4 2.882187 1_555
Mg1 Te3 2.882187 1_555
Mg1 Te1 2.884764 1_556
