# generated using pymatgen
data_NaVIrS4
_symmetry_space_group_name_H-M   'P 1'
_cell_length_a   3.52590344
_cell_length_b   5.62677250
_cell_length_c   6.90237641
_cell_angle_alpha   84.07325924
_cell_angle_beta   90.00000000
_cell_angle_gamma   90.00000000
_symmetry_Int_Tables_number   1
_chemical_formula_structural   NaVIrS4
_chemical_formula_sum   'Na1 V1 Ir1 S4'
_cell_volume   136.20741904
_cell_formula_units_Z   1
loop_
 _symmetry_equiv_pos_site_id
 _symmetry_equiv_pos_as_xyz
  1  'x, y, z'
loop_
 _atom_site_type_symbol
 _atom_site_label
 _atom_site_symmetry_multiplicity
 _atom_site_fract_x
 _atom_site_fract_y
 _atom_site_fract_z
 _atom_site_occupancy
  Na  Na0  1  0.50000000  0.62388041  0.49745940  1
  V  V0  1  0.50000000  0.45327011  0.00415537  1
  Ir  Ir0  1  0.00000000  0.03683501  0.01107763  1
  S  S0  1  0.00000000  0.64573414  0.18486183  1
  S  S1  1  0.00000000  0.38159689  0.78500349  1
  S  S2  1  0.50000000  0.13620640  0.22886713  1
  S  S3  1  0.50000000  0.87247604  0.83857515  1
loop_
_geom_bond_atom_site_label_1
_geom_bond_atom_site_label_2
_geom_bond_distance
_geom_bond_site_symmetry_2
Na0 S0 2.779182 1_655
Na0 S0 2.779182 1_555
Na0 S3 2.860153 1_555
Na0 S1 2.889105 1_555
Na0 S1 2.889105 1_655
Na0 S2 3.262445 1_565
Ir0 S1 2.360733 1_554
Ir0 S3 2.368203 1_444
Ir0 S3 2.368203 1_544
Ir0 S0 2.395103 1_545
Ir0 S2 2.419509 1_455
Ir0 S2 2.419509 1_555
S0 V0 2.472954 1_555
S0 V0 2.472954 1_455
S1 V0 2.384280 1_556
S1 V0 2.384280 1_456
S2 V0 2.239890 1_555
S3 V0 2.512631 1_556
