# generated using pymatgen
data_SrY6FeI12
_symmetry_space_group_name_H-M   'P 1'
_cell_length_a   9.71258130
_cell_length_b   9.71258028
_cell_length_c   9.71258076
_cell_angle_alpha   106.33467034
_cell_angle_beta   106.33466991
_cell_angle_gamma   106.33466648
_symmetry_Int_Tables_number   1
_chemical_formula_structural   SrY6FeI12
_chemical_formula_sum   'Sr1 Y6 Fe1 I12'
_cell_volume   776.47687115
_cell_formula_units_Z   1
loop_
 _symmetry_equiv_pos_site_id
 _symmetry_equiv_pos_as_xyz
  1  'x, y, z'
loop_
 _atom_site_type_symbol
 _atom_site_label
 _atom_site_symmetry_multiplicity
 _atom_site_fract_x
 _atom_site_fract_y
 _atom_site_fract_z
 _atom_site_occupancy
  Sr  Sr0  1  0.50000000  0.50000000  0.50000000  1
  Y  Y0  1  0.70900057  0.98042063  0.90878563  1
  Y  Y1  1  0.98042063  0.90878563  0.70900057  1
  Y  Y2  1  0.09121437  0.29099943  0.01957937  1
  Y  Y3  1  0.29099943  0.01957937  0.09121437  1
  Y  Y4  1  0.90878563  0.70900057  0.98042063  1
  Y  Y5  1  0.01957937  0.09121437  0.29099943  1
  Fe  Fe0  1  0.00000000  0.00000000  0.00000000  1
  I  I0  1  0.07340526  0.22551228  0.67692239  1
  I  I1  1  0.36804351  0.13323720  0.44814756  1
  I  I2  1  0.63195649  0.86676280  0.55185244  1
  I  I3  1  0.22551228  0.67692239  0.07340526  1
  I  I4  1  0.77448772  0.32307761  0.92659474  1
  I  I5  1  0.67692239  0.07340526  0.22551228  1
  I  I6  1  0.55185244  0.63195649  0.86676280  1
  I  I7  1  0.86676280  0.55185244  0.63195649  1
  I  I8  1  0.92659474  0.77448772  0.32307761  1
  I  I9  1  0.32307761  0.92659474  0.77448772  1
  I  I10  1  0.44814756  0.36804351  0.13323720  1
  I  I11  1  0.13323720  0.44814756  0.36804351  1
loop_
_geom_bond_atom_site_label_1
_geom_bond_atom_site_label_2
_geom_bond_distance
_geom_bond_site_symmetry_2
Fe0 Y2 2.646463 1_555
Fe0 Y4 2.646463 1_444
Fe0 Y1 2.646463 1_444
Fe0 Y5 2.646463 1_555
Fe0 Y3 2.646463 1_555
Fe0 Y0 2.646463 1_444
I0 Y1 3.083921 1_445
I0 Y2 3.151860 1_556
I0 Y5 3.433445 1_555
I1 Y3 3.117751 1_555
I1 Y5 3.149255 1_555
I1 Sr0 3.262722 1_555
I2 Y0 3.117751 1_555
I2 Y1 3.149255 1_555
I2 Sr0 3.262722 1_555
I3 Y4 3.083921 1_454
I3 Y3 3.151860 1_565
I3 Y2 3.433445 1_555
I4 Y2 3.083921 1_656
I4 Y0 3.151860 1_545
I4 Y4 3.433445 1_555
I5 Y0 3.083921 1_544
I5 Y5 3.151860 1_655
I5 Y3 3.433445 1_555
I6 Y4 3.117751 1_555
I6 Y0 3.149255 1_555
I6 Sr0 3.262722 1_555
I7 Y1 3.117750 1_555
I7 Y4 3.149255 1_555
I7 Sr0 3.262722 1_555
I8 Y5 3.083921 1_665
I8 Y4 3.151860 1_554
I8 Y1 3.433445 1_555
I9 Y3 3.083921 1_566
I9 Y1 3.151860 1_455
I9 Y0 3.433445 1_555
I10 Y2 3.117751 1_555
I10 Y3 3.149255 1_555
I10 Sr0 3.262722 1_555
I11 Y5 3.117750 1_555
I11 Y2 3.149255 1_555
I11 Sr0 3.262722 1_555
