# generated using pymatgen
data_Rb2LiTaO4
_symmetry_space_group_name_H-M   'P 1'
_cell_length_a   5.98569163
_cell_length_b   5.98569156
_cell_length_c   8.10017374
_cell_angle_alpha   90.19704172
_cell_angle_beta   90.19703672
_cell_angle_gamma   83.81457431
_symmetry_Int_Tables_number   1
_chemical_formula_structural   Rb2LiTaO4
_chemical_formula_sum   'Rb4 Li2 Ta2 O8'
_cell_volume   288.52449898
_cell_formula_units_Z   2
loop_
 _symmetry_equiv_pos_site_id
 _symmetry_equiv_pos_as_xyz
  1  'x, y, z'
loop_
 _atom_site_type_symbol
 _atom_site_label
 _atom_site_symmetry_multiplicity
 _atom_site_fract_x
 _atom_site_fract_y
 _atom_site_fract_z
 _atom_site_occupancy
  Rb  Rb0  1  0.28472886  0.28472886  0.19087770  1
  Rb  Rb1  1  0.21664279  0.78335721  0.50000000  1
  Rb  Rb2  1  0.71527114  0.71527114  0.80912230  1
  Rb  Rb3  1  0.78335721  0.21664279  0.50000000  1
  Li  Li0  1  0.17169943  0.82830057  0.00000000  1
  Li  Li1  1  0.82830057  0.17169943  1.00000000  1
  Ta  Ta0  1  0.29561168  0.29561168  0.76851841  1
  Ta  Ta1  1  0.70438832  0.70438832  0.23148159  1
  O  O0  1  0.78549909  0.40722282  0.17104186  1
  O  O1  1  0.88928709  0.88928709  0.12658991  1
  O  O2  1  0.40722282  0.78549909  0.17104186  1
  O  O3  1  0.11071291  0.11071291  0.87341009  1
  O  O4  1  0.72896322  0.72896322  0.46040461  1
  O  O5  1  0.59277718  0.21450091  0.82895814  1
  O  O6  1  0.21450091  0.59277718  0.82895814  1
  O  O7  1  0.27103678  0.27103678  0.53959539  1
loop_
_geom_bond_atom_site_label_1
_geom_bond_atom_site_label_2
_geom_bond_distance
_geom_bond_site_symmetry_2
Li0 O6 1.970733 1_554
Li0 O2 1.970733 1_555
Li0 O1 1.979555 1_455
Li0 O3 1.979555 1_564
Li1 O0 1.970733 1_556
Li1 O5 1.970733 1_555
Li1 O3 1.979555 1_655
Li1 O1 1.979555 1_546
O0 Ta1 1.857112 1_555
O0 Rb3 2.902751 1_555
O0 Rb0 3.003053 1_655
O0 Rb0 3.166368 1_555
O1 Ta1 1.857029 1_555
O1 Rb2 2.996610 1_554
O2 Ta1 1.857112 1_555
O2 Rb1 2.902751 1_555
O2 Rb0 3.003053 1_565
O2 Rb0 3.166368 1_555
O3 Ta0 1.857029 1_555
O3 Rb0 2.996610 1_556
O4 Ta1 1.866193 1_555
O4 Rb2 2.827870 1_555
O4 Rb3 2.987920 1_565
O4 Rb1 2.987920 1_655
O4 Rb3 3.066554 1_555
O4 Rb1 3.066554 1_555
O5 Ta0 1.857112 1_555
O5 Rb3 2.902751 1_555
O5 Rb2 3.003053 1_545
O5 Rb2 3.166368 1_555
O6 Ta0 1.857112 1_555
O6 Rb1 2.902751 1_555
O6 Rb2 3.003053 1_455
O6 Rb2 3.166368 1_555
O7 Ta0 1.866193 1_555
O7 Rb0 2.827870 1_555
O7 Rb1 2.987920 1_545
O7 Rb3 2.987920 1_455
O7 Rb1 3.066554 1_555
O7 Rb3 3.066554 1_555
