# generated using pymatgen
data_RhSF
_symmetry_space_group_name_H-M   'P 1'
_cell_length_a   3.28396278
_cell_length_b   3.28396321
_cell_length_c   4.97648478
_cell_angle_alpha   90.00000000
_cell_angle_beta   90.00000000
_cell_angle_gamma   120.00000553
_symmetry_Int_Tables_number   1
_chemical_formula_structural   RhSF
_chemical_formula_sum   'Rh1 S1 F1'
_cell_volume   46.47825312
_cell_formula_units_Z   1
loop_
 _symmetry_equiv_pos_site_id
 _symmetry_equiv_pos_as_xyz
  1  'x, y, z'
loop_
 _atom_site_type_symbol
 _atom_site_label
 _atom_site_symmetry_multiplicity
 _atom_site_fract_x
 _atom_site_fract_y
 _atom_site_fract_z
 _atom_site_occupancy
  Rh  Rh0  1  0.00000000  0.00000000  0.99901883  1
  S  S0  1  0.66666600  0.33333400  0.76057773  1
  F  F0  1  0.33333300  0.66666600  0.24040344  1
loop_
_geom_bond_atom_site_label_1
_geom_bond_atom_site_label_2
_geom_bond_distance
_geom_bond_site_symmetry_2
Rh0 S0 2.236697 1_555
Rh0 S0 2.236697 1_445
Rh0 S0 2.236702 1_455
F0 Rh0 2.244502 1_554
F0 Rh0 2.244505 1_664
F0 Rh0 2.244505 1_564
