# generated using pymatgen
data_Hf3Al2CoC
_symmetry_space_group_name_H-M   'P 1'
_cell_length_a   8.42885136
_cell_length_b   8.42879075
_cell_length_c   8.42882429
_cell_angle_alpha   60.00161013
_cell_angle_beta   60.00305262
_cell_angle_gamma   60.00144765
_symmetry_Int_Tables_number   1
_chemical_formula_structural   Hf3Al2CoC
_chemical_formula_sum   'Hf12 Al8 Co4 C4'
_cell_volume   423.45349826
_cell_formula_units_Z   4
loop_
 _symmetry_equiv_pos_site_id
 _symmetry_equiv_pos_as_xyz
  1  'x, y, z'
loop_
 _atom_site_type_symbol
 _atom_site_label
 _atom_site_symmetry_multiplicity
 _atom_site_fract_x
 _atom_site_fract_y
 _atom_site_fract_z
 _atom_site_occupancy
  Hf  Hf0  1  0.55063501  0.94933562  0.55063401  1
  Hf  Hf1  1  0.30062620  0.69935440  0.69936184  1
  Hf  Hf2  1  0.69935834  0.30068202  0.30059617  1
  Hf  Hf3  1  0.30065300  0.69933925  0.30065800  1
  Hf  Hf4  1  0.69935884  0.69935440  0.30063020  1
  Hf  Hf5  1  0.30059317  0.30068502  0.69935834  1
  Hf  Hf6  1  0.55064116  0.55064560  0.94936980  1
  Hf  Hf7  1  0.94937380  0.55064560  0.55063816  1
  Hf  Hf8  1  0.55064166  0.94931798  0.94940383  1
  Hf  Hf9  1  0.94940683  0.94931498  0.55064166  1
  Hf  Hf10  1  0.69936499  0.30066438  0.69936599  1
  Hf  Hf11  1  0.94934700  0.55066075  0.94934200  1
  Al  Al0  1  0.92099766  0.92097498  0.92099766  1
  Al  Al1  1  0.01297468  0.32901725  0.32900345  1
  Al  Al2  1  0.32900599  0.01296681  0.32900699  1
  Al  Al3  1  0.32900645  0.32901425  0.01297768  1
  Al  Al4  1  0.92099401  0.23703319  0.92099301  1
  Al  Al5  1  0.92099355  0.92098575  0.23702232  1
  Al  Al6  1  0.23702532  0.92098275  0.92099655  1
  Al  Al7  1  0.32900234  0.32902502  0.32900234  1
  Co  Co0  1  0.12500000  0.12500000  0.12500000  1
  Co  Co1  1  0.62500000  0.12500000  0.12500000  1
  Co  Co2  1  0.12500000  0.62500000  0.12500000  1
  Co  Co3  1  0.12500000  0.12500000  0.62500000  1
  C  C0  1  0.62500000  0.62500000  0.62500000  1
  C  C1  1  0.12500000  0.62500000  0.62500000  1
  C  C2  1  0.62500000  0.12500000  0.62500000  1
  C  C3  1  0.62500000  0.62500000  0.12500000  1
loop_
_geom_bond_atom_site_label_1
_geom_bond_atom_site_label_2
_geom_bond_distance
_geom_bond_site_symmetry_2
Al0 Co2 2.552342 1_656
Al0 Co1 2.552561 1_566
Al0 Co3 2.552568 1_665
Al0 Al5 2.663744 1_556
Al0 Al6 2.663778 1_655
Al0 Al4 2.663953 1_565
Al0 Hf11 2.902119 1_555
Al0 Hf9 2.902295 1_555
Al0 Hf8 2.902305 1_555
Al0 Hf1 2.958642 1_655
Al0 Hf4 2.958674 1_556
Al0 Hf10 2.958826 1_565
Al1 Co2 2.552396 1_555
Al1 Co0 2.552449 1_555
Al1 Co3 2.552463 1_555
Al1 Al7 2.663778 1_555
Al1 Al3 2.663878 1_555
Al1 Al2 2.663910 1_555
Al1 Hf4 2.902271 1_455
Al1 Hf2 2.902317 1_455
Al1 Hf10 2.902455 1_455
Al1 Hf7 2.958670 1_455
Al1 Hf11 2.958800 1_454
Al1 Hf9 2.958901 1_445
Al2 Co0 2.552349 1_555
Al2 Co3 2.552526 1_555
Al2 Co1 2.552543 1_555
Al2 Al3 2.663891 1_555
Al2 Al7 2.663953 1_555
Al2 Hf3 2.902200 1_545
Al2 Hf4 2.902352 1_545
Al2 Hf1 2.902363 1_545
Al2 Hf0 2.958484 1_545
Al2 Hf9 2.958499 1_445
Al2 Hf8 2.958506 1_544
Al3 Co2 2.552396 1_555
Al3 Co1 2.552431 1_555
Al3 Co0 2.552467 1_555
Al3 Al7 2.663744 1_555
Al3 Hf1 2.902289 1_554
Al3 Hf5 2.902334 1_554
Al3 Hf10 2.902444 1_554
Al3 Hf6 2.958674 1_554
Al3 Hf11 2.958816 1_454
Al3 Hf8 2.958871 1_544
Al4 Co0 2.552349 1_656
Al4 Co3 2.552526 1_655
Al4 Co1 2.552543 1_556
Al4 Al5 2.663891 1_546
Al4 Al6 2.663910 1_645
Al4 Hf11 2.902200 1_555
Al4 Hf6 2.902352 1_555
Al4 Hf7 2.902363 1_555
Al4 Hf10 2.958484 1_555
Al4 Hf5 2.958499 1_655
Al4 Hf2 2.958506 1_556
Al5 Co2 2.552396 1_655
Al5 Co1 2.552431 1_565
Al5 Co0 2.552467 1_665
Al5 Al6 2.663878 1_654
Al5 Hf7 2.902289 1_555
Al5 Hf9 2.902334 1_555
Al5 Hf0 2.902444 1_555
Al5 Hf4 2.958674 1_555
Al5 Hf3 2.958816 1_655
Al5 Hf2 2.958871 1_565
Al6 Co2 2.552396 1_556
Al6 Co0 2.552449 1_566
Al6 Co3 2.552463 1_565
Al6 Hf6 2.902271 1_555
Al6 Hf8 2.902317 1_555
Al6 Hf0 2.902455 1_555
Al6 Hf1 2.958670 1_555
Al6 Hf3 2.958800 1_556
Al6 Hf5 2.958901 1_565
Al7 Co2 2.552342 1_555
Al7 Co1 2.552561 1_555
Al7 Co3 2.552568 1_555
Al7 Hf3 2.902119 1_555
Al7 Hf5 2.902295 1_555
Al7 Hf2 2.902305 1_555
Al7 Hf7 2.958642 1_455
Al7 Hf6 2.958674 1_554
Al7 Hf0 2.958826 1_545
Co0 Hf9 2.970591 1_445
Co0 Hf5 2.970591 1_554
Co0 Hf8 2.970593 1_544
Co0 Hf2 2.970593 1_455
Co0 Hf11 2.970675 1_454
Co0 Hf3 2.970675 1_545
Co1 Hf2 2.970408 1_555
Co1 Hf8 2.970408 1_544
Co1 Hf0 2.970496 1_545
Co1 Hf10 2.970496 1_554
Co1 Hf6 2.970549 1_554
Co1 Hf4 2.970549 1_545
Co2 Hf3 2.970526 1_555
Co2 Hf11 2.970526 1_454
Co2 Hf7 2.970562 1_455
Co2 Hf1 2.970562 1_554
Co2 Hf6 2.970591 1_554
Co2 Hf4 2.970591 1_455
Co3 Hf5 2.970412 1_555
Co3 Hf9 2.970412 1_445
Co3 Hf0 2.970507 1_545
Co3 Hf10 2.970507 1_455
Co3 Hf7 2.970543 1_455
Co3 Hf1 2.970543 1_545
C0 Hf0 2.285852 1_555
C0 Hf10 2.285852 1_555
C0 Hf6 2.286179 1_555
C0 Hf4 2.286179 1_555
C0 Hf7 2.286211 1_555
C0 Hf1 2.286211 1_555
C1 Hf9 2.285721 1_455
C1 Hf5 2.285721 1_555
C1 Hf1 2.285883 1_555
C1 Hf7 2.285883 1_455
C1 Hf11 2.286044 1_455
C1 Hf3 2.286044 1_555
C2 Hf10 2.286270 1_555
C2 Hf0 2.286270 1_545
C2 Hf8 2.286448 1_545
C2 Hf2 2.286448 1_555
C2 Hf9 2.286473 1_545
C2 Hf5 2.286473 1_555
C3 Hf8 2.285746 1_554
C3 Hf2 2.285746 1_555
C3 Hf4 2.285892 1_555
C3 Hf6 2.285892 1_554
C3 Hf3 2.286085 1_555
C3 Hf11 2.286085 1_554
