# generated using pymatgen
data_Ba3CdSnO6
_symmetry_space_group_name_H-M   'P 1'
_cell_length_a   7.21483971
_cell_length_b   7.21484053
_cell_length_c   7.21484102
_cell_angle_alpha   92.43392268
_cell_angle_beta   92.43391724
_cell_angle_gamma   92.43391334
_symmetry_Int_Tables_number   1
_chemical_formula_structural   Ba3CdSnO6
_chemical_formula_sum   'Ba6 Cd2 Sn2 O12'
_cell_volume   374.51456174
_cell_formula_units_Z   2
loop_
 _symmetry_equiv_pos_site_id
 _symmetry_equiv_pos_as_xyz
  1  'x, y, z'
loop_
 _atom_site_type_symbol
 _atom_site_label
 _atom_site_symmetry_multiplicity
 _atom_site_fract_x
 _atom_site_fract_y
 _atom_site_fract_z
 _atom_site_occupancy
  Ba  Ba0  1  0.75000000  0.39327925  0.10672075  1
  Ba  Ba1  1  0.10672075  0.75000000  0.39327925  1
  Ba  Ba2  1  0.25000000  0.60672075  0.89327925  1
  Ba  Ba3  1  0.39327925  0.10672075  0.75000000  1
  Ba  Ba4  1  0.60672075  0.89327925  0.25000000  1
  Ba  Ba5  1  0.89327925  0.25000000  0.60672075  1
  Cd  Cd0  1  0.25000000  0.25000000  0.25000000  1
  Cd  Cd1  1  0.75000000  0.75000000  0.75000000  1
  Sn  Sn0  1  0.50000000  0.50000000  0.50000000  1
  Sn  Sn1  1  0.00000000  0.00000000  0.00000000  1
  O  O0  1  0.08757024  0.27589375  0.95626854  1
  O  O1  1  0.95626854  0.08757024  0.27589375  1
  O  O2  1  0.27589375  0.95626854  0.08757024  1
  O  O3  1  0.41242976  0.54373146  0.22410625  1
  O  O4  1  0.22410625  0.41242976  0.54373146  1
  O  O5  1  0.54373146  0.22410625  0.41242976  1
  O  O6  1  0.91242976  0.72410625  0.04373146  1
  O  O7  1  0.04373146  0.91242976  0.72410625  1
  O  O8  1  0.72410625  0.04373146  0.91242976  1
  O  O9  1  0.58757024  0.45626854  0.77589375  1
  O  O10  1  0.45626854  0.77589375  0.58757024  1
  O  O11  1  0.77589375  0.58757024  0.45626854  1
loop_
_geom_bond_atom_site_label_1
_geom_bond_atom_site_label_2
_geom_bond_distance
_geom_bond_site_symmetry_2
Ba0 O6 2.678955 1_555
Ba0 O9 2.678955 1_554
Ba0 O8 2.827986 1_554
Ba0 O11 2.827986 1_555
Ba0 O3 2.854635 1_555
Ba0 O0 2.854635 1_654
Ba0 O1 2.987056 1_555
Ba0 O5 2.987056 1_555
Ba1 O11 2.678955 1_455
Ba1 O7 2.678955 1_555
Ba1 O10 2.827986 1_555
Ba1 O6 2.827986 1_455
Ba1 O1 2.854635 1_465
Ba1 O4 2.854636 1_555
Ba1 O3 2.987055 1_555
Ba1 O2 2.987056 1_555
Ba2 O0 2.678955 1_555
Ba2 O3 2.678955 1_556
Ba2 O2 2.827986 1_556
Ba2 O4 2.827986 1_555
Ba2 O9 2.854635 1_555
Ba2 O6 2.854635 1_456
Ba2 O7 2.987056 1_555
Ba2 O10 2.987056 1_555
Ba3 O8 2.678955 1_555
Ba3 O10 2.678955 1_545
Ba3 O7 2.827986 1_545
Ba3 O9 2.827986 1_555
Ba3 O5 2.854636 1_555
Ba3 O2 2.854636 1_546
Ba3 O0 2.987055 1_555
Ba3 O4 2.987056 1_555
Ba4 O2 2.678955 1_555
Ba4 O5 2.678955 1_565
Ba4 O1 2.827986 1_565
Ba4 O3 2.827986 1_555
Ba4 O10 2.854636 1_555
Ba4 O8 2.854636 1_564
Ba4 O6 2.987055 1_555
Ba4 O11 2.987056 1_555
Ba5 O4 2.678955 1_655
Ba5 O1 2.678955 1_555
Ba5 O5 2.827986 1_555
Ba5 O0 2.827986 1_655
Ba5 O7 2.854635 1_645
Ba5 O11 2.854636 1_555
Ba5 O9 2.987055 1_555
Ba5 O8 2.987056 1_555
Cd0 O5 2.395968 1_555
Cd0 O1 2.395968 1_455
Cd0 O2 2.395968 1_545
Cd0 O4 2.395968 1_555
Cd0 O3 2.395968 1_555
Cd0 O0 2.395968 1_554
Cd1 O10 2.395968 1_555
Cd1 O7 2.395968 1_655
Cd1 O8 2.395968 1_565
Cd1 O11 2.395968 1_555
Cd1 O9 2.395968 1_555
Cd1 O6 2.395968 1_556
O0 Sn1 2.103424 1_556
O1 Sn1 2.103424 1_655
O2 Sn1 2.103424 1_565
O3 Sn0 2.103424 1_555
O4 Sn0 2.103424 1_555
O5 Sn0 2.103424 1_555
O6 Sn1 2.103424 1_665
O7 Sn1 2.103424 1_566
O8 Sn1 2.103424 1_656
O9 Sn0 2.103424 1_555
O10 Sn0 2.103424 1_555
O11 Sn0 2.103424 1_555
