# generated using pymatgen
data_Zr6MnCo17P12
_symmetry_space_group_name_H-M   'P 1'
_cell_length_a   3.61155715
_cell_length_b   10.25548006
_cell_length_c   11.85887899
_cell_angle_alpha   90.00000000
_cell_angle_beta   90.00000000
_cell_angle_gamma   90.00000000
_symmetry_Int_Tables_number   1
_chemical_formula_structural   Zr6MnCo17P12
_chemical_formula_sum   'Zr6 Mn1 Co17 P12'
_cell_volume   439.23215276
_cell_formula_units_Z   1
loop_
 _symmetry_equiv_pos_site_id
 _symmetry_equiv_pos_as_xyz
  1  'x, y, z'
loop_
 _atom_site_type_symbol
 _atom_site_label
 _atom_site_symmetry_multiplicity
 _atom_site_fract_x
 _atom_site_fract_y
 _atom_site_fract_z
 _atom_site_occupancy
  Zr  Zr0  1  0.00000000  0.50000000  0.52821812  1
  Zr  Zr1  1  0.50000000  0.00000000  0.47278699  1
  Zr  Zr2  1  0.50000000  0.82316045  0.20796438  1
  Zr  Zr3  1  0.50000000  0.17683955  0.20796438  1
  Zr  Zr4  1  0.00000000  0.67792211  0.79294557  1
  Zr  Zr5  1  0.00000000  0.32207789  0.79294557  1
  Mn  Mn0  1  0.50000000  0.50000000  0.15708410  1
  Co  Co0  1  0.00000000  0.00000000  0.83893253  1
  Co  Co1  1  0.50000000  0.50000000  0.70397336  1
  Co  Co2  1  0.00000000  0.00000000  0.29676543  1
  Co  Co3  1  0.00000000  0.50000000  0.98911820  1
  Co  Co4  1  0.50000000  0.00000000  0.01055855  1
  Co  Co5  1  0.50000000  0.33090845  0.99375539  1
  Co  Co6  1  0.50000000  0.66909155  0.99375539  1
  Co  Co7  1  0.00000000  0.16570865  0.00401587  1
  Co  Co8  1  0.00000000  0.83429135  0.00401587  1
  Co  Co9  1  0.50000000  0.29899778  0.43338236  1
  Co  Co10  1  0.50000000  0.70100222  0.43338236  1
  Co  Co11  1  0.00000000  0.20064542  0.56784468  1
  Co  Co12  1  0.00000000  0.79935458  0.56784468  1
  Co  Co13  1  0.50000000  0.87738659  0.70699201  1
  Co  Co14  1  0.50000000  0.12261341  0.70699201  1
  Co  Co15  1  0.00000000  0.62499833  0.29284642  1
  Co  Co16  1  0.00000000  0.37500167  0.29284642  1
  P  P0  1  0.50000000  0.50000000  0.88077229  1
  P  P1  1  0.00000000  0.00000000  0.11982674  1
  P  P2  1  0.50000000  0.50000000  0.35575730  1
  P  P3  1  0.00000000  0.00000000  0.64859295  1
  P  P4  1  0.50000000  0.31599736  0.61749191  1
  P  P5  1  0.50000000  0.68400264  0.61749191  1
  P  P6  1  0.00000000  0.18376279  0.38357641  1
  P  P7  1  0.00000000  0.81623721  0.38357641  1
  P  P8  1  0.50000000  0.84418668  0.88842001  1
  P  P9  1  0.50000000  0.15581332  0.88842001  1
  P  P10  1  0.00000000  0.66005661  0.10957171  1
  P  P11  1  0.00000000  0.33994339  0.10957171  1
loop_
_geom_bond_atom_site_label_1
_geom_bond_atom_site_label_2
_geom_bond_distance
_geom_bond_site_symmetry_2
Mn0 P2 2.356041 1_555
Mn0 P10 2.504533 1_655
Mn0 P10 2.504533 1_555
Mn0 P11 2.504533 1_655
Mn0 P11 2.504533 1_555
Co0 P3 2.257214 1_555
Co0 P8 2.481665 1_445
Co0 P9 2.481665 1_555
Co0 P9 2.481665 1_455
Co0 P8 2.481665 1_545
Co1 P0 2.096637 1_555
Co1 P5 2.147720 1_555
Co1 P4 2.147720 1_555
Co1 Zr0 2.757712 1_555
Co1 Zr0 2.757712 1_655
Co1 Zr4 2.775525 1_555
Co1 Zr4 2.775525 1_655
Co1 Zr5 2.775525 1_555
Co1 Zr5 2.775525 1_655
Co2 P1 2.098295 1_555
Co2 P6 2.147430 1_555
Co2 P7 2.147430 1_545
Co2 Zr1 2.760100 1_555
Co2 Zr1 2.760100 1_455
Co2 Zr3 2.767466 1_455
Co2 Zr3 2.767466 1_555
Co2 Zr2 2.767466 1_445
Co2 Zr2 2.767466 1_545
Co3 P10 2.175967 1_556
Co3 P11 2.175967 1_556
Co3 P0 2.216236 1_555
Co3 P0 2.216236 1_455
Co3 Mn0 2.688578 1_556
Co3 Mn0 2.688578 1_456
Co3 Zr4 2.956607 1_555
Co3 Zr5 2.956607 1_555
Co4 P8 2.156699 1_544
Co4 P9 2.156699 1_554
Co4 P1 2.222595 1_655
Co4 P1 2.222595 1_555
Co4 Zr3 2.961315 1_555
Co4 Zr2 2.961315 1_545
Co5 P9 2.187437 1_555
Co5 P0 2.191429 1_555
Co5 P11 2.270637 1_656
Co5 P11 2.270637 1_556
Co5 Mn0 2.599754 1_556
Co5 Zr5 2.989984 1_555
Co5 Zr5 2.989984 1_655
Co5 Zr3 2.991584 1_556
Co6 P8 2.187437 1_555
Co6 P0 2.191429 1_555
Co6 P10 2.270637 1_656
Co6 P10 2.270637 1_556
Co6 Mn0 2.599754 1_556
Co6 Zr4 2.989984 1_555
Co6 Zr4 2.989984 1_655
Co6 Zr2 2.991584 1_556
Co7 P11 2.181699 1_555
Co7 P1 2.185000 1_555
Co7 P9 2.269434 1_554
Co7 P9 2.269434 1_454
Co7 Zr5 2.972703 1_554
Co7 Zr3 3.020513 1_455
Co7 Zr3 3.020513 1_555
Co8 P10 2.181699 1_555
Co8 P1 2.185000 1_565
Co8 P8 2.269434 1_554
Co8 P8 2.269434 1_454
Co8 Zr4 2.972703 1_554
Co8 Zr2 3.020513 1_555
Co8 Zr2 3.020513 1_455
Co9 P4 2.190282 1_555
Co9 P6 2.237481 1_655
Co9 P6 2.237481 1_555
Co9 P2 2.257580 1_555
Co9 Zr3 2.952204 1_555
Co9 Zr0 2.962251 1_655
Co9 Zr0 2.962251 1_555
Co9 Zr1 3.101768 1_555
Co10 P5 2.190282 1_555
Co10 P7 2.237481 1_655
Co10 P7 2.237481 1_555
Co10 P2 2.257580 1_555
Co10 Zr2 2.952204 1_555
Co10 Zr0 2.962251 1_655
Co10 Zr0 2.962251 1_555
Co10 Zr1 3.101768 1_565
Co11 P6 2.192063 1_555
Co11 P4 2.237619 1_555
Co11 P4 2.237619 1_455
Co11 P3 2.269616 1_555
Co11 Zr5 2.945645 1_555
Co11 Zr1 2.960706 1_555
Co11 Zr1 2.960706 1_455
Co11 Zr0 3.105782 1_555
Co12 P7 2.192063 1_555
Co12 P5 2.237619 1_455
Co12 P5 2.237619 1_555
Co12 P3 2.269616 1_565
Co12 Zr4 2.945645 1_555
Co12 Zr1 2.960706 1_565
Co12 Zr1 2.960706 1_465
Co12 Zr0 3.105782 1_555
Co13 P8 2.178307 1_555
Co13 P5 2.249393 1_555
Co13 P3 2.306873 1_665
Co13 P3 2.306873 1_565
Co13 Zr4 2.912787 1_655
Co13 Zr4 2.912787 1_555
Co13 Zr1 3.048804 1_565
Co14 P9 2.178307 1_555
Co14 P4 2.249393 1_555
Co14 P3 2.306873 1_655
Co14 P3 2.306873 1_555
Co14 Zr5 2.912787 1_655
Co14 Zr5 2.912787 1_555
Co14 Zr1 3.048804 1_555
Co15 P10 2.202970 1_555
Co15 P7 2.237000 1_555
Co15 P2 2.336824 1_555
Co15 P2 2.336824 1_455
Co15 Mn0 2.737921 1_555
Co15 Mn0 2.737921 1_455
Co15 Zr2 2.898986 1_555
Co15 Zr2 2.898986 1_455
Co15 Zr0 3.071540 1_555
Co16 P11 2.202970 1_555
Co16 P6 2.237000 1_555
Co16 P2 2.336824 1_555
Co16 P2 2.336824 1_455
Co16 Mn0 2.737921 1_455
Co16 Mn0 2.737921 1_555
Co16 Zr3 2.898986 1_455
Co16 Zr3 2.898986 1_555
Co16 Zr0 3.071540 1_555
P0 Zr4 2.770390 1_555
P0 Zr4 2.770390 1_655
P0 Zr5 2.770390 1_655
P0 Zr5 2.770390 1_555
P1 Zr3 2.764482 1_555
P1 Zr3 2.764482 1_455
P1 Zr2 2.764482 1_445
P1 Zr2 2.764482 1_545
P2 Zr0 2.728305 1_555
P2 Zr0 2.728305 1_655
P3 Zr1 2.758167 1_455
P3 Zr1 2.758167 1_555
P4 Zr5 2.755716 1_555
P4 Zr5 2.755716 1_655
P4 Zr0 2.818254 1_655
P4 Zr0 2.818254 1_555
P5 Zr4 2.755716 1_655
P5 Zr4 2.755716 1_555
P5 Zr0 2.818254 1_555
P5 Zr0 2.818254 1_655
P6 Zr3 2.757343 1_455
P6 Zr3 2.757343 1_555
P6 Zr1 2.816326 1_555
P6 Zr1 2.816326 1_455
P7 Zr2 2.757343 1_555
P7 Zr2 2.757343 1_455
P7 Zr1 2.816326 1_465
P7 Zr1 2.816326 1_565
P8 Zr4 2.729506 1_655
P8 Zr4 2.729506 1_555
P9 Zr5 2.729506 1_555
P9 Zr5 2.729506 1_655
P10 Zr2 2.724018 1_555
P10 Zr2 2.724018 1_455
P11 Zr3 2.724018 1_555
P11 Zr3 2.724018 1_455
