# generated using pymatgen
data_Nb15V(Ni2N)4
_symmetry_space_group_name_H-M   'P 1'
_cell_length_a   8.19317831
_cell_length_b   8.19835693
_cell_length_c   8.19317775
_cell_angle_alpha   60.02089138
_cell_angle_beta   59.99999825
_cell_angle_gamma   60.02089196
_symmetry_Int_Tables_number   1
_chemical_formula_structural   Nb15V(Ni2N)4
_chemical_formula_sum   'Nb15 V1 Ni8 N4'
_cell_volume   389.27245123
_cell_formula_units_Z   1
loop_
 _symmetry_equiv_pos_site_id
 _symmetry_equiv_pos_as_xyz
  1  'x, y, z'
loop_
 _atom_site_type_symbol
 _atom_site_label
 _atom_site_symmetry_multiplicity
 _atom_site_fract_x
 _atom_site_fract_y
 _atom_site_fract_z
 _atom_site_occupancy
  Nb  Nb0  1  0.12500000  0.62500000  0.62500000  1
  Nb  Nb1  1  0.62500000  0.62500000  0.12500000  1
  Nb  Nb2  1  0.62500000  0.62500000  0.62500000  1
  Nb  Nb3  1  0.81639413  0.81580184  0.18390152  1
  Nb  Nb4  1  0.18563109  0.18325694  0.81555599  1
  Nb  Nb5  1  0.81555599  0.18325694  0.81555599  1
  Nb  Nb6  1  0.18390152  0.81580184  0.18390152  1
  Nb  Nb7  1  0.18390152  0.81580184  0.81639413  1
  Nb  Nb8  1  0.81555599  0.18325694  0.18563109  1
  Nb  Nb9  1  0.43360587  0.43419816  0.06609848  1
  Nb  Nb10  1  0.06436891  0.06674306  0.43444401  1
  Nb  Nb11  1  0.43444401  0.06674306  0.43444401  1
  Nb  Nb12  1  0.06609848  0.43419816  0.06609848  1
  Nb  Nb13  1  0.06609848  0.43419816  0.43360587  1
  Nb  Nb14  1  0.43444401  0.06674306  0.06436891  1
  V  V0  1  0.62500000  0.12500000  0.62500000  1
  Ni  Ni0  1  0.73527436  0.40956089  0.42758238  1
  Ni  Ni1  1  0.42072387  0.73782738  0.42072387  1
  Ni  Ni2  1  0.42758238  0.40956089  0.73527436  1
  Ni  Ni3  1  0.42758238  0.40956089  0.42758238  1
  Ni  Ni4  1  0.51472564  0.84043911  0.82241762  1
  Ni  Ni5  1  0.82927613  0.51217262  0.82927613  1
  Ni  Ni6  1  0.82241762  0.84043911  0.51472564  1
  Ni  Ni7  1  0.82241762  0.84043911  0.82241762  1
  N  N0  1  0.62500000  0.12500000  0.12500000  1
  N  N1  1  0.12500000  0.62500000  0.12500000  1
  N  N2  1  0.12500000  0.12500000  0.62500000  1
  N  N3  1  0.12500000  0.12500000  0.12500000  1
loop_
_geom_bond_atom_site_label_1
_geom_bond_atom_site_label_2
_geom_bond_distance
_geom_bond_site_symmetry_2
Nb0 Ni1 2.482897 1_555
Nb0 Ni5 2.482897 1_455
Nb0 Ni7 2.520129 1_455
Nb0 Ni3 2.520129 1_555
Nb0 Ni6 2.520129 1_455
Nb0 Ni2 2.520129 1_555
Nb1 Ni1 2.482897 1_555
Nb1 Ni5 2.482897 1_554
Nb1 Ni0 2.520129 1_555
Nb1 Ni4 2.520129 1_554
Nb1 Ni7 2.520129 1_554
Nb1 Ni3 2.520129 1_555
Nb2 Ni5 2.482904 1_555
Nb2 Ni1 2.482904 1_555
Nb2 Ni4 2.520129 1_555
Nb2 Ni0 2.520129 1_555
Nb2 Ni2 2.520129 1_555
Nb2 Ni6 2.520129 1_555
Nb3 Ni7 2.842686 1_554
Nb3 Ni6 2.842695 1_555
Nb3 Ni1 3.037117 1_555
Nb3 Ni0 3.124114 1_555
Nb4 Ni4 2.755508 1_545
Nb4 Ni5 2.813402 1_455
Nb4 Ni3 2.992766 1_555
Nb4 Ni2 2.992766 1_555
Nb5 Ni7 2.755508 1_545
Nb5 Ni5 2.813407 1_555
Nb5 Ni0 2.992765 1_555
Nb5 Ni2 2.992766 1_555
Nb6 Ni4 2.842690 1_554
Nb6 Ni6 2.842690 1_455
Nb6 Ni1 3.037117 1_555
Nb6 Ni3 3.124118 1_555
Nb7 Ni7 2.842687 1_455
Nb7 Ni4 2.842695 1_555
Nb7 Ni1 3.037117 1_555
Nb7 Ni2 3.124114 1_555
Nb8 Ni6 2.755508 1_545
Nb8 Ni5 2.813402 1_554
Nb8 Ni3 2.992766 1_555
Nb8 Ni0 2.992766 1_555
Nb9 Ni3 2.842686 1_555
Nb9 Ni2 2.842695 1_554
Nb9 Ni5 3.037117 1_554
Nb9 Ni4 3.124114 1_554
Nb10 Ni0 2.755508 1_455
Nb10 Ni1 2.813402 1_545
Nb10 Ni7 2.992766 1_445
Nb10 Ni6 2.992766 1_445
Nb11 Ni3 2.755508 1_555
Nb11 Ni1 2.813407 1_545
Nb11 Ni4 2.992765 1_545
Nb11 Ni6 2.992766 1_545
Nb12 Ni0 2.842690 1_455
Nb12 Ni2 2.842690 1_554
Nb12 Ni5 3.037117 1_454
Nb12 Ni7 3.124118 1_454
Nb13 Ni3 2.842687 1_555
Nb13 Ni0 2.842695 1_455
Nb13 Ni5 3.037117 1_455
Nb13 Ni6 3.124114 1_455
Nb14 Ni2 2.755508 1_554
Nb14 Ni1 2.813402 1_545
Nb14 Ni7 2.992766 1_544
Nb14 Ni4 2.992766 1_544
Ni0 V0 2.397730 1_555
Ni0 Ni2 2.520975 1_555
Ni0 Ni3 2.520975 1_555
Ni0 Ni1 2.636291 1_555
Ni1 Ni3 2.636287 1_555
Ni1 Ni2 2.636291 1_555
Ni2 V0 2.397730 1_555
Ni2 Ni3 2.520975 1_555
Ni3 V0 2.397730 1_555
Ni4 V0 2.397730 1_565
Ni4 Ni6 2.520975 1_555
Ni4 Ni7 2.520975 1_555
Ni4 Ni5 2.636291 1_555
Ni5 Ni7 2.636287 1_555
Ni5 Ni6 2.636291 1_555
Ni6 V0 2.397730 1_565
Ni6 Ni7 2.520975 1_555
Ni7 V0 2.397730 1_565
N0 Nb11 2.161088 1_555
N0 Nb5 2.161088 1_554
N0 Nb8 2.161088 1_555
N0 Nb14 2.161088 1_555
N0 Nb9 2.163184 1_555
N0 Nb3 2.163184 1_545
N1 Nb6 2.157415 1_555
N1 Nb12 2.157415 1_555
N1 Nb13 2.157420 1_555
N1 Nb7 2.157420 1_554
N1 Nb3 2.157420 1_455
N1 Nb9 2.157420 1_555
N2 Nb4 2.161088 1_555
N2 Nb10 2.161088 1_555
N2 Nb11 2.161088 1_555
N2 Nb5 2.161088 1_455
N2 Nb13 2.163184 1_555
N2 Nb7 2.163184 1_545
N3 Nb10 2.161088 1_555
N3 Nb4 2.161088 1_554
N3 Nb14 2.161088 1_555
N3 Nb8 2.161088 1_455
N3 Nb12 2.163187 1_555
N3 Nb6 2.163187 1_545
