# generated using pymatgen
data_K3B2Pd2Pt5
_symmetry_space_group_name_H-M   'P 1'
_cell_length_a   8.27959253
_cell_length_b   8.32591713
_cell_length_c   8.27959129
_cell_angle_alpha   39.77993219
_cell_angle_beta   39.62500059
_cell_angle_gamma   39.77992894
_symmetry_Int_Tables_number   1
_chemical_formula_structural   K3B2Pd2Pt5
_chemical_formula_sum   'K3 B2 Pd2 Pt5'
_cell_volume   209.97104560
_cell_formula_units_Z   1
loop_
 _symmetry_equiv_pos_site_id
 _symmetry_equiv_pos_as_xyz
  1  'x, y, z'
loop_
 _atom_site_type_symbol
 _atom_site_label
 _atom_site_symmetry_multiplicity
 _atom_site_fract_x
 _atom_site_fract_y
 _atom_site_fract_z
 _atom_site_occupancy
  K  K0  1  0.85709465  0.85843994  0.85709465  1
  K  K1  1  0.14379684  0.13969358  0.14379684  1
  K  K2  1  0.99869108  0.00017843  0.99869108  1
  B  B0  1  0.67109142  0.66544762  0.67109142  1
  B  B1  1  0.32946863  0.33716923  0.32946863  1
  Pd  Pd0  1  0.43448679  0.93645024  0.43448679  1
  Pd  Pd1  1  0.50397283  0.49225132  0.50397283  1
  Pt  Pt0  1  0.43853313  0.44663100  0.92682580  1
  Pt  Pt1  1  0.92682580  0.44663100  0.43853313  1
  Pt  Pt2  1  0.56063673  0.06305041  0.56063673  1
  Pt  Pt3  1  0.56218082  0.55702962  0.07322229  1
  Pt  Pt4  1  0.07322229  0.55702962  0.56218082  1
loop_
_geom_bond_atom_site_label_1
_geom_bond_atom_site_label_2
_geom_bond_distance
_geom_bond_site_symmetry_2
K0 K2 3.242177 1_565
K0 Pd1 3.268576 1_565
K0 Pd1 3.318024 1_655
K0 Pd1 3.318024 1_556
K0 Pd0 3.321191 1_556
K0 Pd0 3.321191 1_655
K0 Pt1 3.336705 1_556
K0 Pt0 3.336705 1_655
K0 Pt4 3.353680 1_655
K0 Pt3 3.353680 1_556
K0 Pt2 3.373246 1_565
K0 Pt0 3.391786 1_565
K0 Pt1 3.391786 1_565
K1 K2 3.278657 1_454
K1 Pd1 3.284898 1_455
K1 Pd1 3.284898 1_554
K1 Pd0 3.294311 1_545
K1 Pt4 3.331693 1_554
K1 Pt3 3.331693 1_455
K1 Pd1 3.335815 1_545
K1 Pt3 3.359299 1_545
K1 Pt4 3.359299 1_545
K1 Pt2 3.363283 1_554
K1 Pt2 3.363283 1_455
K1 Pt1 3.389521 1_455
K1 Pt0 3.389522 1_554
K2 Pt2 3.147385 1_556
K2 Pt2 3.147386 1_655
K2 Pt0 3.152287 1_645
K2 Pt1 3.152288 1_546
K2 Pd0 3.166140 1_645
K2 Pd0 3.166140 1_546
K2 Pt1 3.167822 1_555
K2 Pt0 3.167822 1_555
K2 Pt3 3.185164 1_556
K2 Pt4 3.185165 1_655
K2 Pt4 3.199735 1_646
K2 Pt3 3.199735 1_646
B0 Pt2 2.147891 1_565
B0 Pt1 2.166131 1_555
B0 Pt0 2.166131 1_555
B0 Pt3 2.172577 1_556
B0 Pt4 2.172578 1_655
B0 Pd0 2.256202 1_555
B0 K2 3.247136 1_555
B0 K2 3.259953 1_564
B0 K2 3.259953 1_465
B1 Pt0 2.171955 1_554
B1 Pt1 2.171955 1_455
B1 Pt4 2.172348 1_555
B1 Pt3 2.172349 1_555
B1 Pt2 2.179575 1_555
B1 Pd0 2.211399 1_545
B1 K2 3.248692 1_464
B1 K2 3.257823 1_554
B1 K2 3.257823 1_455
Pd0 Pd1 2.882542 1_555
Pd1 Pt3 2.835120 1_555
Pd1 Pt4 2.835120 1_555
Pd1 Pt0 2.836445 1_555
Pd1 Pt1 2.836445 1_555
Pd1 Pt2 2.897490 1_555
