# generated using pymatgen
data_IrRhPb2O7
_symmetry_space_group_name_H-M   'P 1'
_cell_length_a   7.24013855
_cell_length_b   7.24567293
_cell_length_c   7.24013953
_cell_angle_alpha   59.97471014
_cell_angle_beta   59.95327989
_cell_angle_gamma   59.97471124
_symmetry_Int_Tables_number   1
_chemical_formula_structural   IrRhPb2O7
_chemical_formula_sum   'Ir2 Rh2 Pb4 O14'
_cell_volume   268.37247193
_cell_formula_units_Z   2
loop_
 _symmetry_equiv_pos_site_id
 _symmetry_equiv_pos_as_xyz
  1  'x, y, z'
loop_
 _atom_site_type_symbol
 _atom_site_label
 _atom_site_symmetry_multiplicity
 _atom_site_fract_x
 _atom_site_fract_y
 _atom_site_fract_z
 _atom_site_occupancy
  Ir  Ir0  1  0.12500000  0.62500000  0.62500000  1
  Ir  Ir1  1  0.62500000  0.62500000  0.12500000  1
  Rh  Rh0  1  0.62500000  0.12500000  0.62500000  1
  Rh  Rh1  1  0.62500000  0.62500000  0.62500000  1
  Pb  Pb0  1  0.62500000  0.12500000  0.12500000  1
  Pb  Pb1  1  0.12500000  0.62500000  0.12500000  1
  Pb  Pb2  1  0.12500000  0.12500000  0.62500000  1
  Pb  Pb3  1  0.12500000  0.12500000  0.12500000  1
  O  O0  1  0.70719261  0.70605213  0.29219861  1
  O  O1  1  0.29219861  0.29455665  0.70719261  1
  O  O2  1  0.70687296  0.29312704  0.70687296  1
  O  O3  1  0.29357869  0.70642131  0.29357869  1
  O  O4  1  0.29219861  0.70605213  0.70719261  1
  O  O5  1  0.70719261  0.29455665  0.29219861  1
  O  O6  1  0.54280739  0.54394787  0.95780139  1
  O  O7  1  0.95780139  0.95544335  0.54280739  1
  O  O8  1  0.54312704  0.95687296  0.54312704  1
  O  O9  1  0.95642131  0.54357869  0.95642131  1
  O  O10  1  0.95780139  0.54394787  0.54280739  1
  O  O11  1  0.54280739  0.95544335  0.95780139  1
  O  O12  1  0.25045345  0.24954655  0.25045345  1
  O  O13  1  0.99954655  0.00045345  0.99954655  1
loop_
_geom_bond_atom_site_label_1
_geom_bond_atom_site_label_2
_geom_bond_distance
_geom_bond_site_symmetry_2
Ir0 O7 1.986716 1_455
Ir0 O1 1.986716 1_555
Ir0 O4 1.986716 1_555
Ir0 O10 1.986716 1_455
Ir0 O9 1.991628 1_455
Ir0 O3 1.991628 1_555
Ir1 O11 1.986716 1_554
Ir1 O5 1.986716 1_555
Ir1 O0 1.986716 1_555
Ir1 O6 1.986716 1_554
Ir1 O9 1.991628 1_554
Ir1 O3 1.991628 1_555
O0 Rh1 2.000638 1_555
O0 Pb1 2.495475 1_655
O0 Pb0 2.504051 1_565
O1 Rh0 2.000638 1_555
O1 Pb3 2.495475 1_556
O1 Pb2 2.504051 1_555
O2 Rh1 1.995984 1_555
O2 Rh0 1.995984 1_555
O2 Pb2 2.496975 1_655
O2 Pb0 2.496975 1_556
O3 Pb3 2.502092 1_565
O3 Pb1 2.502092 1_555
O4 Rh1 2.000638 1_555
O4 Pb1 2.495475 1_556
O4 Pb2 2.504051 1_565
O5 Rh0 2.000638 1_555
O5 Pb3 2.495475 1_655
O5 Pb0 2.504051 1_555
O6 Rh1 2.000638 1_555
O6 Pb1 2.495475 1_556
O6 Pb0 2.504051 1_556
O7 Rh0 2.000638 1_565
O7 Pb3 2.495475 1_665
O7 Pb2 2.504051 1_665
O8 Rh1 1.995984 1_555
O8 Rh0 1.995984 1_565
O8 Pb2 2.496975 1_565
O8 Pb0 2.496975 1_565
O9 Pb3 2.502092 1_656
O9 Pb1 2.502092 1_656
O10 Rh1 2.000638 1_555
O10 Pb1 2.495475 1_655
O10 Pb2 2.504051 1_655
O11 Rh0 2.000638 1_565
O11 Pb3 2.495475 1_566
O11 Pb0 2.504051 1_566
O12 Pb0 2.213087 1_555
O12 Pb2 2.213087 1_555
O12 Pb1 2.220621 1_555
O12 Pb3 2.220621 1_555
O13 Pb0 2.213087 1_556
O13 Pb2 2.213087 1_655
O13 Pb1 2.220621 1_646
O13 Pb3 2.220621 1_656
