# generated using pymatgen
data_Tl9BiTe6
_symmetry_space_group_name_H-M   'P 1'
_cell_length_a   8.96340037
_cell_length_b   8.96629082
_cell_length_c   9.22638870
_cell_angle_alpha   119.07924207
_cell_angle_beta   119.07422582
_cell_angle_gamma   90.00684008
_symmetry_Int_Tables_number   1
_chemical_formula_structural   Tl9BiTe6
_chemical_formula_sum   'Tl9 Bi1 Te6'
_cell_volume   538.59883907
_cell_formula_units_Z   1
loop_
 _symmetry_equiv_pos_site_id
 _symmetry_equiv_pos_as_xyz
  1  'x, y, z'
loop_
 _atom_site_type_symbol
 _atom_site_label
 _atom_site_symmetry_multiplicity
 _atom_site_fract_x
 _atom_site_fract_y
 _atom_site_fract_z
 _atom_site_occupancy
  Tl  Tl0  1  0.01182154  0.51105144  0.31644887  1
  Tl  Tl1  1  0.19458203  0.98815782  0.68358067  1
  Tl  Tl2  1  0.00000000  0.00000000  0.00000000  1
  Tl  Tl3  1  0.30462997  0.80537804  0.31635629  1
  Tl  Tl4  1  0.48895975  0.69540473  0.68348373  1
  Tl  Tl5  1  0.51104025  0.30459527  0.31651627  1
  Tl  Tl6  1  0.69537003  0.19462196  0.68364371  1
  Tl  Tl7  1  0.80541797  0.01184218  0.31641933  1
  Tl  Tl8  1  0.98817846  0.48894856  0.68355113  1
  Bi  Bi0  1  0.50000000  0.50000000  0.00000000  1
  Te  Te0  1  0.26172670  0.26216986  0.52377961  1
  Te  Te1  1  0.17630589  0.34693012  0.00000738  1
  Te  Te2  1  0.34694281  0.82360463  0.00000153  1
  Te  Te3  1  0.73827330  0.73783014  0.47622039  1
  Te  Te4  1  0.65305719  0.17639537  -0.00000153  1
  Te  Te5  1  0.82369411  0.65306988  -0.00000638  1
loop_
_geom_bond_atom_site_label_1
_geom_bond_atom_site_label_2
_geom_bond_distance
_geom_bond_site_symmetry_2
Bi0 Te0 3.191450 1_554
Bi0 Te3 3.191450 1_555
Bi0 Te5 3.209531 1_555
Bi0 Te1 3.209537 1_555
Bi0 Te4 3.209668 1_555
Bi0 Te2 3.209668 1_555
Te0 Tl2 3.510173 1_555
Te1 Tl1 3.199118 1_544
Te1 Tl5 3.199430 1_555
Te1 Tl3 3.436969 1_555
Te1 Tl8 3.437930 1_454
Te1 Tl2 3.488864 1_555
Te1 Tl6 3.586493 1_454
Te1 Tl0 3.587624 1_555
Te2 Tl8 3.197833 1_454
Te2 Tl3 3.198367 1_555
Te2 Tl7 3.436325 1_565
Te2 Tl4 3.438059 1_554
Te2 Tl2 3.489044 1_565
Te2 Tl5 3.587849 1_565
Te2 Tl1 3.588530 1_554
Te3 Tl2 3.510173 1_666
Te4 Tl0 3.197833 1_655
Te4 Tl6 3.198367 1_554
Te4 Tl1 3.436325 1_544
Te4 Tl5 3.438059 1_555
Te4 Tl2 3.489044 1_655
Te4 Tl4 3.587849 1_544
Te4 Tl7 3.588530 1_555
Te5 Tl7 3.199114 1_565
Te5 Tl4 3.199435 1_554
Te5 Tl6 3.436970 1_554
Te5 Tl0 3.437923 1_655
Te5 Tl2 3.488870 1_665
Te5 Tl3 3.586493 1_655
Te5 Tl8 3.587632 1_554
