# generated using pymatgen
data_KBaCuH4
_symmetry_space_group_name_H-M   'P 1'
_cell_length_a   5.73644780
_cell_length_b   7.68859645
_cell_length_c   9.88670220
_cell_angle_alpha   90.00000000
_cell_angle_beta   90.00000000
_cell_angle_gamma   90.00000000
_symmetry_Int_Tables_number   1
_chemical_formula_structural   KBaCuH4
_chemical_formula_sum   'K4 Ba4 Cu4 H16'
_cell_volume   436.05529615
_cell_formula_units_Z   4
loop_
 _symmetry_equiv_pos_site_id
 _symmetry_equiv_pos_as_xyz
  1  'x, y, z'
loop_
 _atom_site_type_symbol
 _atom_site_label
 _atom_site_symmetry_multiplicity
 _atom_site_fract_x
 _atom_site_fract_y
 _atom_site_fract_z
 _atom_site_occupancy
  K  K0  1  0.25000000  0.48250668  0.32591219  1
  K  K1  1  0.25000000  0.98250668  0.17408781  1
  K  K2  1  0.75000000  0.51749332  0.67408781  1
  K  K3  1  0.75000000  0.01749332  0.82591219  1
  Ba  Ba0  1  0.25000000  0.16142889  0.60247311  1
  Ba  Ba1  1  0.25000000  0.66142889  0.89752689  1
  Ba  Ba2  1  0.75000000  0.83857111  0.39752689  1
  Ba  Ba3  1  0.75000000  0.33857111  0.10247311  1
  Cu  Cu0  1  0.25000000  0.24775432  0.92013429  1
  Cu  Cu1  1  0.25000000  0.74775432  0.57986571  1
  Cu  Cu2  1  0.75000000  0.75224568  0.07986571  1
  Cu  Cu3  1  0.75000000  0.25224568  0.42013429  1
  H  H0  1  0.02081146  0.33218285  0.84780099  1
  H  H1  1  0.47918854  0.83218285  0.65219901  1
  H  H2  1  0.52081146  0.66781715  0.15219901  1
  H  H3  1  0.97918854  0.16781715  0.34780099  1
  H  H4  1  0.97918854  0.66781715  0.15219901  1
  H  H5  1  0.52081146  0.16781715  0.34780099  1
  H  H6  1  0.47918854  0.33218285  0.84780099  1
  H  H7  1  0.02081146  0.83218285  0.65219901  1
  H  H8  1  0.25000000  0.03856218  0.89469818  1
  H  H9  1  0.25000000  0.53856218  0.60530182  1
  H  H10  1  0.75000000  0.96143782  0.10530182  1
  H  H11  1  0.75000000  0.46143782  0.39469818  1
  H  H12  1  0.25000000  0.82076285  0.42471325  1
  H  H13  1  0.25000000  0.32076285  0.07528675  1
  H  H14  1  0.75000000  0.17923715  0.57528675  1
  H  H15  1  0.75000000  0.67923715  0.92471325  1
loop_
_geom_bond_atom_site_label_1
_geom_bond_atom_site_label_2
_geom_bond_distance
_geom_bond_site_symmetry_2
Ba0 H14 2.884042 1_455
Ba0 H14 2.884042 1_555
Ba0 H1 2.894545 1_545
Ba0 H7 2.894545 1_545
Ba0 H9 2.899761 1_555
Ba0 H5 2.958956 1_555
Ba0 H3 2.958956 1_455
Ba0 H8 3.039663 1_555
Ba0 H6 3.055336 1_555
Ba0 H0 3.055336 1_555
Ba1 H15 2.884042 1_455
Ba1 H15 2.884042 1_555
Ba1 H6 2.894545 1_555
Ba1 H0 2.894545 1_555
Ba1 H8 2.899761 1_565
Ba1 H2 2.958956 1_556
Ba1 H4 2.958956 1_456
Ba1 H9 3.039663 1_555
Ba1 H1 3.055336 1_555
Ba1 H7 3.055336 1_555
Ba2 H12 2.884042 1_555
Ba2 H12 2.884042 1_655
Ba2 H3 2.894545 1_565
Ba2 H5 2.894545 1_565
Ba2 H11 2.899761 1_555
Ba2 H7 2.958956 1_655
Ba2 H1 2.958956 1_555
Ba2 H10 3.039663 1_555
Ba2 H4 3.055336 1_555
Ba2 H2 3.055336 1_555
Ba3 H13 2.884042 1_655
Ba3 H13 2.884042 1_555
Ba3 H4 2.894545 1_555
Ba3 H2 2.894545 1_555
Ba3 H10 2.899761 1_545
Ba3 H0 2.958956 1_654
Ba3 H6 2.958956 1_554
Ba3 H11 3.039663 1_555
Ba3 H3 3.055336 1_555
Ba3 H5 3.055336 1_555
Cu0 H8 1.627935 1_555
Cu0 H6 1.631352 1_555
Cu0 H0 1.631352 1_555
Cu0 H13 1.633428 1_556
Cu1 H9 1.627935 1_555
Cu1 H1 1.631352 1_555
Cu1 H7 1.631352 1_555
Cu1 H12 1.633428 1_555
Cu2 H10 1.627935 1_555
Cu2 H4 1.631352 1_555
Cu2 H2 1.631352 1_555
Cu2 H15 1.633428 1_554
Cu3 H11 1.627935 1_555
Cu3 H3 1.631352 1_555
Cu3 H5 1.631352 1_555
Cu3 H14 1.633428 1_555
H0 K2 2.719003 1_455
H0 K3 2.883446 1_455
H1 K3 2.719003 1_565
H1 K2 2.883446 1_555
H2 K0 2.719003 1_555
H2 K1 2.883446 1_555
H3 K1 2.719003 1_645
H3 K0 2.883446 1_655
H4 K0 2.719003 1_655
H4 K1 2.883446 1_655
H5 K1 2.719003 1_545
H5 K0 2.883446 1_555
H6 K2 2.719003 1_555
H6 K3 2.883446 1_555
H7 K3 2.719003 1_465
H7 K2 2.883446 1_455
H8 K1 2.795663 1_546
H8 K3 2.952192 1_555
H8 K3 2.952192 1_455
H9 K0 2.795663 1_555
H9 K2 2.952192 1_455
H9 K2 2.952192 1_555
H10 K3 2.795663 1_564
H10 K1 2.952192 1_555
H10 K1 2.952192 1_655
H11 K2 2.795663 1_555
H11 K0 2.952192 1_555
H11 K0 2.952192 1_655
H12 K1 2.772415 1_555
H12 K0 2.778109 1_555
H13 K0 2.772415 1_555
H13 K1 2.778109 1_545
H14 K3 2.772415 1_555
H14 K2 2.778109 1_555
H15 K2 2.772415 1_555
H15 K3 2.778109 1_565
