# generated using pymatgen
data_Sr10POsN10
_symmetry_space_group_name_H-M   'P 1'
_cell_length_a   7.58239636
_cell_length_b   7.58239512
_cell_length_c   8.89741673
_cell_angle_alpha   76.47941234
_cell_angle_beta   76.47941072
_cell_angle_gamma   96.74157503
_symmetry_Int_Tables_number   1
_chemical_formula_structural   Sr10POsN10
_chemical_formula_sum   'Sr10 P1 Os1 N10'
_cell_volume   475.49976052
_cell_formula_units_Z   1
loop_
 _symmetry_equiv_pos_site_id
 _symmetry_equiv_pos_as_xyz
  1  'x, y, z'
loop_
 _atom_site_type_symbol
 _atom_site_label
 _atom_site_symmetry_multiplicity
 _atom_site_fract_x
 _atom_site_fract_y
 _atom_site_fract_z
 _atom_site_occupancy
  Sr  Sr0  1  0.38419555  0.40213549  0.38237038  1
  Sr  Sr1  1  0.59786451  0.61580445  0.61762962  1
  Sr  Sr2  1  0.66955532  0.66880197  0.00997825  1
  Sr  Sr3  1  0.33119803  0.33044468  0.99002175  1
  Sr  Sr4  1  0.93923242  0.91505705  0.20438422  1
  Sr  Sr5  1  0.08494295  0.06076758  0.79561578  1
  Sr  Sr6  1  0.54624799  0.08634018  0.75272845  1
  Sr  Sr7  1  0.91365982  0.45375201  0.24727155  1
  Sr  Sr8  1  0.43514520  0.89352254  0.24130484  1
  Sr  Sr9  1  0.10647746  0.56485480  0.75869516  1
  P  P0  1  0.24252054  0.75747946  1.00000000  1
  Os  Os0  1  0.75680019  0.24319981  0.00000000  1
  N  N0  1  0.65702493  0.66292401  0.31546339  1
  N  N1  1  0.33707599  0.34297507  0.68453661  1
  N  N2  1  0.72376862  0.01123810  0.97280478  1
  N  N3  1  0.98876190  0.27623138  0.02719522  1
  N  N4  1  0.28062421  0.97620630  0.01037796  1
  N  N5  1  0.02379370  0.71937579  0.98962204  1
  N  N6  1  0.38921411  0.72958893  0.83801673  1
  N  N7  1  0.27041107  0.61078589  0.16198227  1
  N  N8  1  0.59533772  0.27385123  0.17587430  1
  N  N9  1  0.72614877  0.40466228  0.82412470  1
loop_
_geom_bond_atom_site_label_1
_geom_bond_atom_site_label_2
_geom_bond_distance
_geom_bond_site_symmetry_2
N0 Sr4 2.525396 1_555
N0 Sr0 2.541132 1_555
N0 Sr1 2.550728 1_555
N0 Sr8 2.644471 1_555
N0 Sr2 2.687062 1_555
N0 Sr7 2.700491 1_555
N1 Sr5 2.525396 1_555
N1 Sr1 2.541132 1_555
N1 Sr0 2.550728 1_555
N1 Sr9 2.644471 1_555
N1 Sr3 2.687062 1_555
N1 Sr6 2.700491 1_555
N2 Os0 1.827198 1_556
N2 Sr2 2.510854 1_546
N2 Sr6 2.619402 1_555
N2 Sr8 2.718982 1_546
N2 Sr5 2.754837 1_655
N2 Sr4 2.932157 1_546
N3 Os0 1.827198 1_555
N3 Sr3 2.510855 1_654
N3 Sr7 2.619402 1_555
N3 Sr9 2.718982 1_654
N3 Sr4 2.754836 1_545
N3 Sr5 2.932157 1_654
N4 P0 1.677532 1_554
N4 Sr6 2.561264 1_564
N4 Sr8 2.585181 1_555
N4 Sr3 2.625366 1_564
N4 Sr4 2.673936 1_455
N4 Sr5 2.690726 1_564
N5 P0 1.677532 1_555
N5 Sr7 2.561264 1_456
N5 Sr9 2.585181 1_555
N5 Sr2 2.625366 1_456
N5 Sr5 2.673936 1_565
N5 Sr4 2.690725 1_456
N6 P0 1.675478 1_555
N6 Sr1 2.598706 1_555
N6 Sr9 2.673057 1_555
N6 Sr6 2.678108 1_565
N6 Sr2 2.914244 1_556
N6 Sr3 2.945755 1_555
N7 P0 1.675471 1_554
N7 Sr0 2.598712 1_555
N7 Sr8 2.673062 1_555
N7 Sr7 2.678108 1_455
N7 Sr3 2.914238 1_554
N7 Sr2 2.945754 1_555
N8 Os0 1.828279 1_555
N8 Sr0 2.590506 1_555
N8 Sr8 2.862262 1_545
N8 Sr3 2.889358 1_554
N8 Sr7 2.905006 1_555
N8 Sr2 2.934710 1_555
N9 Os0 1.828285 1_556
N9 Sr1 2.590500 1_555
N9 Sr9 2.862263 1_655
N9 Sr2 2.889364 1_556
N9 Sr6 2.905001 1_555
N9 Sr3 2.934712 1_555
