# generated using pymatgen
data_Ca4CuH12Ir
_symmetry_space_group_name_H-M   'P 1'
_cell_length_a   7.13443785
_cell_length_b   7.13443768
_cell_length_c   5.18284982
_cell_angle_alpha   90.00077583
_cell_angle_beta   90.00077629
_cell_angle_gamma   137.40834672
_symmetry_Int_Tables_number   1
_chemical_formula_structural   Ca4CuH12Ir
_chemical_formula_sum   'Ca4 Cu1 H12 Ir1'
_cell_volume   178.53707520
_cell_formula_units_Z   1
loop_
 _symmetry_equiv_pos_site_id
 _symmetry_equiv_pos_as_xyz
  1  'x, y, z'
loop_
 _atom_site_type_symbol
 _atom_site_label
 _atom_site_symmetry_multiplicity
 _atom_site_fract_x
 _atom_site_fract_y
 _atom_site_fract_z
 _atom_site_occupancy
  Ca  Ca0  1  0.14996160  0.85003840  0.50000000  1
  Ca  Ca1  1  0.65025383  0.34974617  0.00000000  1
  Ca  Ca2  1  0.85003840  0.14996160  0.50000000  1
  Ca  Ca3  1  0.34974617  0.65025383  0.00000000  1
  Cu  Cu0  1  0.00000000  0.00000000  0.00000000  1
  H  H0  1  0.99998388  0.50002058  0.75046981  1
  H  H1  1  0.49997942  0.00001612  0.24953019  1
  H  H2  1  0.00001612  0.49997942  0.24953019  1
  H  H3  1  0.50002058  0.99998388  0.75046981  1
  H  H4  1  0.37440723  0.62559277  0.50000000  1
  H  H5  1  0.88212541  0.11787459  0.00000000  1
  H  H6  1  0.62559277  0.37440723  0.50000000  1
  H  H7  1  0.11787459  0.88212541  0.00000000  1
  H  H8  1  0.26818451  0.26818451  0.73189785  1
  H  H9  1  0.73181549  0.73181549  0.26810215  1
  H  H10  1  0.26801993  0.26801993  0.26824677  1
  H  H11  1  0.73198007  0.73198007  0.73175323  1
  Ir  Ir0  1  0.50000000  0.50000000  0.50000000  1
loop_
_geom_bond_atom_site_label_1
_geom_bond_atom_site_label_2
_geom_bond_distance
_geom_bond_site_symmetry_2
Ca0 H0 2.265371 1_455
Ca0 H1 2.265371 1_565
Ca0 H2 2.265616 1_555
Ca0 H3 2.265616 1_555
Ca0 H6 2.611284 1_565
Ca0 H6 2.611284 1_455
Ca0 H7 2.626301 1_555
Ca0 H7 2.626301 1_556
Ca0 H10 2.710489 1_565
Ca0 H11 2.710489 1_455
Ca0 H8 2.711212 1_565
Ca0 H9 2.711213 1_455
Ca1 H1 2.260316 1_555
Ca1 H0 2.260316 1_554
Ca1 H3 2.260534 1_544
Ca1 H2 2.260534 1_655
Ca1 H6 2.612082 1_554
Ca1 H6 2.612082 1_555
Ca1 H7 2.626623 1_655
Ca1 H7 2.626623 1_545
Ca1 H9 2.713685 1_555
Ca1 H8 2.713685 1_554
Ca1 H11 2.714492 1_554
Ca1 H10 2.714492 1_555
Ca2 H2 2.265371 1_655
Ca2 H3 2.265371 1_545
Ca2 H0 2.265616 1_555
Ca2 H1 2.265616 1_555
Ca2 H4 2.611284 1_545
Ca2 H4 2.611284 1_655
Ca2 H5 2.626301 1_556
Ca2 H5 2.626301 1_555
Ca2 H11 2.710489 1_545
Ca2 H10 2.710489 1_655
Ca2 H9 2.711212 1_545
Ca2 H8 2.711213 1_655
Ca3 H3 2.260316 1_554
Ca3 H2 2.260316 1_555
Ca3 H1 2.260534 1_565
Ca3 H0 2.260534 1_454
Ca3 H4 2.612082 1_555
Ca3 H4 2.612082 1_554
Ca3 H5 2.626623 1_455
Ca3 H5 2.626623 1_565
Ca3 H8 2.713685 1_554
Ca3 H9 2.713685 1_555
Ca3 H10 2.714492 1_555
Ca3 H11 2.714492 1_554
Cu0 H5 1.567091 1_455
Cu0 H7 1.567091 1_545
Cu0 H10 1.965169 1_555
Cu0 H11 1.965169 1_444
Cu0 H9 1.965315 1_445
Cu0 H8 1.965315 1_554
H4 Ir0 1.669701 1_555
H6 Ir0 1.669701 1_555
H8 Ir0 1.699358 1_555
H9 Ir0 1.699358 1_555
H10 Ir0 1.699368 1_555
H11 Ir0 1.699368 1_555
