# generated using pymatgen
data_K8Ti6BeCl20
_symmetry_space_group_name_H-M   'P 1'
_cell_length_a   10.81486190
_cell_length_b   10.81486230
_cell_length_c   10.81486234
_cell_angle_alpha   60.00000277
_cell_angle_beta   60.00000155
_cell_angle_gamma   59.99999890
_symmetry_Int_Tables_number   1
_chemical_formula_structural   K8Ti6BeCl20
_chemical_formula_sum   'K8 Ti6 Be1 Cl20'
_cell_volume   894.43334288
_cell_formula_units_Z   1
loop_
 _symmetry_equiv_pos_site_id
 _symmetry_equiv_pos_as_xyz
  1  'x, y, z'
loop_
 _atom_site_type_symbol
 _atom_site_label
 _atom_site_symmetry_multiplicity
 _atom_site_fract_x
 _atom_site_fract_y
 _atom_site_fract_z
 _atom_site_occupancy
  K  K0  1  0.36031886  0.36031886  0.36031886  1
  K  K1  1  0.63968114  0.63968114  0.63968114  1
  K  K2  1  0.36031886  0.36031886  0.91904341  1
  K  K3  1  0.36031886  0.91904341  0.36031886  1
  K  K4  1  0.63968114  0.63968114  0.08095659  1
  K  K5  1  0.63968114  0.08095659  0.63968114  1
  K  K6  1  0.91904341  0.36031886  0.36031886  1
  K  K7  1  0.08095659  0.63968114  0.63968114  1
  Ti  Ti0  1  0.85573829  0.14426171  0.14426171  1
  Ti  Ti1  1  0.14426171  0.85573829  0.85573829  1
  Ti  Ti2  1  0.14426171  0.85573829  0.14426171  1
  Ti  Ti3  1  0.85573829  0.14426171  0.85573829  1
  Ti  Ti4  1  0.14426171  0.14426171  0.85573829  1
  Ti  Ti5  1  0.85573829  0.85573829  0.14426171  1
  Be  Be0  1  0.00000000  0.00000000  0.00000000  1
  Cl  Cl0  1  0.31932556  0.00000000  1.00000000  1
  Cl  Cl1  1  0.68067444  1.00000000  0.00000000  1
  Cl  Cl2  1  0.00000000  0.31932556  0.68067444  1
  Cl  Cl3  1  1.00000000  0.68067444  0.31932556  1
  Cl  Cl4  1  0.00000000  0.31932556  1.00000000  1
  Cl  Cl5  1  0.68067444  1.00000000  0.31932556  1
  Cl  Cl6  1  1.00000000  0.68067444  0.00000000  1
  Cl  Cl7  1  0.31932556  0.00000000  0.68067444  1
  Cl  Cl8  1  1.00000000  1.00000000  0.31932556  1
  Cl  Cl9  1  0.00000000  0.00000000  0.68067444  1
  Cl  Cl10  1  0.68067444  0.31932556  1.00000000  1
  Cl  Cl11  1  0.31932556  0.68067444  0.00000000  1
  Cl  Cl12  1  0.68686621  0.31313379  0.31313379  1
  Cl  Cl13  1  0.31313379  0.68686621  0.68686621  1
  Cl  Cl14  1  0.31313379  0.68686621  0.31313379  1
  Cl  Cl15  1  0.68686621  0.31313379  0.68686621  1
  Cl  Cl16  1  0.31313379  0.31313379  0.68686621  1
  Cl  Cl17  1  0.68686621  0.68686621  0.31313379  1
  Cl  Cl18  1  0.25000000  0.25000000  0.25000000  1
  Cl  Cl19  1  0.75000000  0.75000000  0.75000000  1
loop_
_geom_bond_atom_site_label_1
_geom_bond_atom_site_label_2
_geom_bond_distance
_geom_bond_site_symmetry_2
Be0 Ti2 2.206414 1_545
Be0 Ti0 2.206414 1_455
Be0 Ti3 2.206414 1_454
Be0 Ti1 2.206414 1_544
Be0 Ti4 2.206414 1_554
Be0 Ti5 2.206414 1_445
Cl0 Ti4 2.453301 1_555
Cl0 Ti2 2.453301 1_546
Cl1 Ti5 2.453301 1_555
Cl1 Ti3 2.453301 1_564
Cl2 Ti4 2.453301 1_555
Cl2 Ti3 2.453301 1_455
Cl3 Ti5 2.453301 1_555
Cl3 Ti2 2.453301 1_655
Cl4 Ti4 2.453301 1_555
Cl4 Ti0 2.453301 1_456
Cl5 Ti5 2.453301 1_555
Cl5 Ti0 2.453301 1_565
Cl6 Ti5 2.453301 1_555
Cl6 Ti1 2.453301 1_654
Cl7 Ti4 2.453301 1_555
Cl7 Ti1 2.453301 1_545
Cl8 Ti0 2.453301 1_565
Cl8 Ti2 2.453301 1_655
Cl9 Ti3 2.453301 1_455
Cl9 Ti1 2.453301 1_545
Cl10 Ti3 2.453301 1_555
Cl10 Ti0 2.453301 1_556
Cl11 Ti2 2.453301 1_555
Cl11 Ti1 2.453301 1_554
Cl12 Ti0 2.582818 1_555
Cl12 K0 3.106260 1_555
Cl12 K6 3.106260 1_555
Cl12 K4 3.106260 1_555
Cl12 K5 3.106260 1_555
Cl13 Ti1 2.582818 1_555
Cl13 K1 3.106260 1_555
Cl13 K7 3.106260 1_555
Cl13 K2 3.106260 1_555
Cl13 K3 3.106260 1_555
Cl14 Ti2 2.582818 1_555
Cl14 K4 3.106260 1_555
Cl14 K3 3.106260 1_555
Cl14 K0 3.106260 1_555
Cl14 K7 3.106260 1_555
Cl15 Ti3 2.582818 1_555
Cl15 K2 3.106260 1_555
Cl15 K5 3.106260 1_555
Cl15 K1 3.106260 1_555
Cl15 K6 3.106260 1_555
Cl16 Ti4 2.582818 1_555
Cl16 K5 3.106260 1_555
Cl16 K7 3.106260 1_555
Cl16 K2 3.106260 1_555
Cl16 K0 3.106260 1_555
Cl17 Ti5 2.582818 1_555
Cl17 K3 3.106260 1_555
Cl17 K6 3.106260 1_555
Cl17 K4 3.106260 1_555
Cl17 K1 3.106260 1_555
Cl18 K6 2.922445 1_455
Cl18 K0 2.922445 1_555
Cl18 K3 2.922445 1_545
Cl18 K2 2.922445 1_554
Cl19 K7 2.922445 1_655
Cl19 K1 2.922445 1_555
Cl19 K5 2.922445 1_565
Cl19 K4 2.922445 1_556
