# generated using pymatgen
data_CsLiHfTe3
_symmetry_space_group_name_H-M   'P 1'
_cell_length_a   4.28191150
_cell_length_b   9.84205383
_cell_length_c   10.87301032
_cell_angle_alpha   67.20974310
_cell_angle_beta   90.00000000
_cell_angle_gamma   90.00000000
_symmetry_Int_Tables_number   1
_chemical_formula_structural   CsLiHfTe3
_chemical_formula_sum   'Cs2 Li2 Hf2 Te6'
_cell_volume   422.44552705
_cell_formula_units_Z   2
loop_
 _symmetry_equiv_pos_site_id
 _symmetry_equiv_pos_as_xyz
  1  'x, y, z'
loop_
 _atom_site_type_symbol
 _atom_site_label
 _atom_site_symmetry_multiplicity
 _atom_site_fract_x
 _atom_site_fract_y
 _atom_site_fract_z
 _atom_site_occupancy
  Cs  Cs0  1  0.75000000  0.76581403  0.26971006  1
  Cs  Cs1  1  0.25000000  0.23418597  0.73028994  1
  Li  Li0  1  0.25000000  0.07735124  0.39605314  1
  Li  Li1  1  0.75000000  0.92264876  0.60394686  1
  Hf  Hf0  1  0.25000000  0.68332913  0.84380810  1
  Hf  Hf1  1  0.75000000  0.31667087  0.15619190  1
  Te  Te0  1  0.25000000  0.77345873  0.56540956  1
  Te  Te1  1  0.75000000  0.87218466  0.86901703  1
  Te  Te2  1  0.75000000  0.47066451  0.86222283  1
  Te  Te3  1  0.75000000  0.22654127  0.43459044  1
  Te  Te4  1  0.25000000  0.52933549  0.13777717  1
  Te  Te5  1  0.25000000  0.12781534  0.13098297  1
loop_
_geom_bond_atom_site_label_1
_geom_bond_atom_site_label_2
_geom_bond_distance
_geom_bond_site_symmetry_2
Cs0 Te4 3.826882 1_555
Cs0 Te4 3.826882 1_655
Cs0 Te0 3.887661 1_555
Cs0 Te0 3.887661 1_655
Cs0 Te5 3.922918 1_665
Cs0 Te5 3.922918 1_565
Cs0 Te1 4.067386 1_554
Cs1 Te2 3.826882 1_555
Cs1 Te2 3.826882 1_455
Cs1 Te3 3.887661 1_555
Cs1 Te3 3.887661 1_455
Cs1 Te1 3.922918 1_445
Cs1 Te1 3.922918 1_545
Cs1 Te5 4.067386 1_556
Li0 Te3 2.718810 1_455
Li0 Te3 2.718810 1_555
Li0 Te5 2.728418 1_555
Li0 Te0 2.840715 1_545
Li1 Te0 2.718810 1_555
Li1 Te0 2.718810 1_655
Li1 Te1 2.728418 1_555
Li1 Te3 2.840715 1_565
Hf0 Te0 2.805271 1_555
Hf0 Te1 2.916913 1_455
Hf0 Te1 2.916913 1_555
Hf0 Te2 2.946184 1_455
Hf0 Te2 2.946184 1_555
Hf0 Te4 2.959824 1_556
Hf1 Te3 2.805271 1_555
Hf1 Te5 2.916913 1_555
Hf1 Te5 2.916913 1_655
Hf1 Te4 2.946184 1_555
Hf1 Te4 2.946184 1_655
Hf1 Te2 2.959824 1_554
