# generated using pymatgen
data_Sr(LaS2)2
_symmetry_space_group_name_H-M   'P 1'
_cell_length_a   7.63022455
_cell_length_b   7.63022427
_cell_length_c   7.63022481
_cell_angle_alpha   109.35652723
_cell_angle_beta   109.70086003
_cell_angle_gamma   109.35651262
_symmetry_Int_Tables_number   1
_chemical_formula_structural   Sr(LaS2)2
_chemical_formula_sum   'Sr2 La4 S8'
_cell_volume   341.96752418
_cell_formula_units_Z   2
loop_
 _symmetry_equiv_pos_site_id
 _symmetry_equiv_pos_as_xyz
  1  'x, y, z'
loop_
 _atom_site_type_symbol
 _atom_site_label
 _atom_site_symmetry_multiplicity
 _atom_site_fract_x
 _atom_site_fract_y
 _atom_site_fract_z
 _atom_site_occupancy
  Sr  Sr0  1  0.12500000  0.75000000  0.87500000  1
  Sr  Sr1  1  0.37500000  0.25000000  0.62500000  1
  La  La0  1  0.25000000  0.62944273  0.37944273  1
  La  La1  1  0.62055727  0.37055727  0.25000000  1
  La  La2  1  0.75000000  0.87055727  0.12055727  1
  La  La3  1  0.87944273  0.12944273  0.75000000  1
  S  S0  1  0.99196282  0.85030284  0.49288007  1
  S  S1  1  0.14165998  0.14969716  0.14257622  1
  S  S2  1  0.35834002  0.50091724  0.00803718  1
  S  S3  1  0.50803718  0.00091724  0.85834002  1
  S  S4  1  0.64257622  0.64969716  0.64165998  1
  S  S5  1  0.50711993  0.99908276  0.35742378  1
  S  S6  1  0.85742378  0.49908276  0.00711993  1
  S  S7  1  0.99288007  0.35030284  0.49196282  1
loop_
_geom_bond_atom_site_label_1
_geom_bond_atom_site_label_2
_geom_bond_distance
_geom_bond_site_symmetry_2
La0 S4 2.906388 1_555
La0 S6 2.906390 1_455
La0 S5 2.949645 1_555
La0 S7 2.949650 1_455
La0 S0 3.138015 1_455
La0 S3 3.138016 1_565
La0 S2 3.154477 1_555
La0 S1 3.154478 1_555
La1 S2 2.906394 1_555
La1 S7 2.906394 1_555
La1 S3 2.949650 1_554
La1 S4 2.949654 1_555
La1 S1 3.138013 1_555
La1 S5 3.138021 1_545
La1 S0 3.154477 1_555
La1 S6 3.154482 1_555
La2 S3 2.906394 1_564
La2 S0 2.906395 1_555
La2 S2 2.949650 1_555
La2 S1 2.949654 1_665
La2 S4 3.138013 1_554
La2 S6 3.138020 1_555
La2 S7 3.154477 1_565
La2 S5 3.154482 1_555
La3 S1 2.906389 1_656
La3 S5 2.906390 1_545
La3 S6 2.949645 1_556
La3 S0 2.949650 1_545
La3 S7 3.138016 1_555
La3 S2 3.138016 1_656
La3 S3 3.154477 1_555
La3 S4 3.154478 1_545
S0 Sr1 2.987671 1_665
S0 Sr0 3.180561 1_655
S1 Sr0 2.987668 1_544
S1 Sr1 3.180568 1_555
S2 Sr1 2.987671 1_554
S2 Sr0 3.180561 1_554
S3 Sr0 2.987671 1_545
S3 Sr1 3.180561 1_555
S4 Sr1 2.987668 1_555
S4 Sr0 3.180568 1_655
S5 Sr1 2.987666 1_565
S5 Sr0 3.180566 1_554
S6 Sr0 2.987666 1_654
S6 Sr1 3.180566 1_554
S7 Sr0 2.987671 1_655
S7 Sr1 3.180561 1_655
