# generated using pymatgen
data_Na4AlIn3I16
_symmetry_space_group_name_H-M   'P 1'
_cell_length_a   7.84666852
_cell_length_b   8.56456017
_cell_length_c   15.64553624
_cell_angle_alpha   87.23350556
_cell_angle_beta   90.25803519
_cell_angle_gamma   90.02018604
_symmetry_Int_Tables_number   1
_chemical_formula_structural   Na4AlIn3I16
_chemical_formula_sum   'Na4 Al1 In3 I16'
_cell_volume   1050.19504431
_cell_formula_units_Z   1
loop_
 _symmetry_equiv_pos_site_id
 _symmetry_equiv_pos_as_xyz
  1  'x, y, z'
loop_
 _atom_site_type_symbol
 _atom_site_label
 _atom_site_symmetry_multiplicity
 _atom_site_fract_x
 _atom_site_fract_y
 _atom_site_fract_z
 _atom_site_occupancy
  Na  Na0  1  0.00065225  0.85034960  0.37457165  1
  Na  Na1  1  0.49705367  0.14844298  0.12652528  1
  Na  Na2  1  0.00888533  0.15267265  0.62695834  1
  Na  Na3  1  0.50194439  0.84934445  0.87265290  1
  Al  Al0  1  0.18397856  0.70925347  0.60061012  1
  In  In0  1  0.68619397  0.29758874  0.89877484  1
  In  In1  1  0.81361788  0.29795475  0.39964217  1
  In  In2  1  0.31043706  0.70068143  0.10038127  1
  I  I0  1  0.32387180  0.68250451  0.45608630  1
  I  I1  1  0.83071456  0.31676328  0.05658269  1
  I  I2  1  0.67106500  0.31437040  0.55744019  1
  I  I3  1  0.16577313  0.68201025  0.94262326  1
  I  I4  1  0.14338222  0.19106851  0.42856873  1
  I  I5  1  0.63984387  0.80724382  0.07059144  1
  I  I6  1  0.87458698  0.80185354  0.57461976  1
  I  I7  1  0.35702490  0.18984368  0.92691280  1
  I  I8  1  0.33399812  0.93017844  0.67900556  1
  I  I9  1  0.83789270  0.05718651  0.81417859  1
  I  I10  1  0.66249227  0.05607611  0.31531470  1
  I  I11  1  0.16197063  0.94221393  0.18549509  1
  I  I12  1  0.20187892  0.45731167  0.69239477  1
  I  I13  1  0.70324386  0.56561065  0.79926946  1
  I  I14  1  0.79490596  0.56703113  0.30073903  1
  I  I15  1  0.29459397  0.43244548  0.20005905  1
loop_
_geom_bond_atom_site_label_1
_geom_bond_atom_site_label_2
_geom_bond_distance
_geom_bond_site_symmetry_2
Al0 I12 2.537152 1_555
Al0 I0 2.538261 1_555
Al0 I6 2.578634 1_455
Al0 I8 2.584507 1_555
I0 Na0 3.149875 1_555
I1 In0 2.724450 1_554
I1 Na1 3.162452 1_555
I2 In1 2.724810 1_555
I2 Na2 3.155727 1_655
I3 In2 2.723762 1_556
I3 Na3 3.175270 1_555
I4 In1 2.772975 1_455
I4 Na0 3.272692 1_545
I4 Na2 3.284343 1_555
I5 In2 2.774746 1_555
I5 Na3 3.279277 1_554
I5 Na1 3.289157 1_565
I6 Na0 3.293804 1_655
I6 Na2 3.322079 1_665
I7 In0 2.772357 1_555
I7 Na3 3.281484 1_545
I7 Na1 3.308908 1_556
I8 Na2 3.261452 1_565
I8 Na3 3.340258 1_555
I9 In0 2.772524 1_555
I9 Na3 3.288730 1_545
I9 Na2 3.294296 1_655
I10 In1 2.772427 1_555
I10 Na1 3.282686 1_555
I10 Na0 3.290617 1_645
I11 In2 2.773304 1_555
I11 Na1 3.278004 1_565
I11 Na0 3.283386 1_555
I12 Na2 3.223340 1_555
I13 In0 2.714320 1_555
I13 Na3 3.163326 1_555
I14 In1 2.716755 1_555
I14 Na0 3.174846 1_655
I15 In2 2.716786 1_555
I15 Na1 3.170651 1_555
