# generated using pymatgen
data_Ti8Al15Co5Pt2
_symmetry_space_group_name_H-M   'P 1'
_cell_length_a   8.43802440
_cell_length_b   8.43902625
_cell_length_c   8.43802338
_cell_angle_alpha   119.99344423
_cell_angle_beta   119.74394859
_cell_angle_gamma   90.22428418
_symmetry_Int_Tables_number   1
_chemical_formula_structural   Ti8Al15Co5Pt2
_chemical_formula_sum   'Ti8 Al15 Co5 Pt2'
_cell_volume   425.72256553
_cell_formula_units_Z   1
loop_
 _symmetry_equiv_pos_site_id
 _symmetry_equiv_pos_as_xyz
  1  'x, y, z'
loop_
 _atom_site_type_symbol
 _atom_site_label
 _atom_site_symmetry_multiplicity
 _atom_site_fract_x
 _atom_site_fract_y
 _atom_site_fract_z
 _atom_site_occupancy
  Ti  Ti0  1  0.79369363  0.29120316  0.07692160  1
  Ti  Ti1  1  0.21428155  0.29120316  0.49750952  1
  Ti  Ti2  1  0.20990236  0.70670705  0.49680469  1
  Ti  Ti3  1  0.21235554  0.71454515  0.92421137  1
  Ti  Ti4  1  0.79033378  0.71454515  0.50218961  1
  Ti  Ti5  1  0.78549359  0.28668448  0.50119088  1
  Ti  Ti6  1  0.38649810  0.12999129  0.74349319  1
  Ti  Ti7  1  0.37901159  0.63989206  0.26088047  1
  Al  Al0  1  0.99745650  0.49789620  0.50043970  1
  Al  Al1  1  0.15824166  0.33915566  0.18091200  1
  Al  Al2  1  0.15163230  0.97224657  0.82061328  1
  Al  Al3  1  0.15792469  0.35286710  0.82037138  1
  Al  Al4  1  0.53249571  0.35286710  0.19494241  1
  Al  Al5  1  0.84099080  0.65719390  0.81620411  1
  Al  Al6  1  0.84821996  0.02859782  0.18037886  1
  Al  Al7  1  0.83521784  0.64806336  0.17220292  1
  Al  Al8  1  0.47586045  0.64806336  0.81284652  1
  Al  Al9  1  0.37838775  0.12426245  0.26711762  1
  Al  Al10  1  0.85714583  0.12426245  0.74587471  1
  Al  Al11  1  0.61504355  0.87250725  0.25746370  1
  Al  Al12  1  0.62192772  0.35978238  0.73785266  1
  Al  Al13  1  0.62361899  0.87532912  0.73598920  1
  Al  Al14  1  0.13933892  0.87532912  0.25171114  1
  Co  Co0  1  0.49672694  0.49459896  0.99787202  1
  Co  Co1  1  0.49704475  0.50164257  0.49738034  1
  Co  Co2  1  0.00426222  0.50164257  0.00459681  1
  Co  Co3  1  0.00047772  0.00039785  0.99992013  1
  Co  Co4  1  0.49685327  0.99865693  0.50180366  1
  Pt  Pt0  1  0.00041954  0.99993089  0.50079415  1
  Pt  Pt1  1  0.49913673  0.99993089  0.99951134  1
loop_
_geom_bond_atom_site_label_1
_geom_bond_atom_site_label_2
_geom_bond_distance
_geom_bond_site_symmetry_2
Ti0 Ti6 2.848974 1_554
Ti1 Ti6 2.848974 1_555
Ti2 Ti7 2.831930 1_555
Ti2 Ti6 2.959697 1_565
Ti3 Ti7 2.876988 1_556
Ti4 Ti7 2.876988 1_555
Al0 Ti5 2.524590 1_555
Al0 Ti2 2.530516 1_655
Al0 Ti0 2.533228 1_555
Al0 Ti1 2.533229 1_655
Al0 Ti3 2.533975 1_655
Al0 Ti4 2.533975 1_555
Al1 Co3 2.421771 1_554
Al1 Co2 2.432567 1_555
Al1 Co1 2.432576 1_555
Al1 Al10 2.696840 1_454
Al1 Al9 2.696856 1_555
Al1 Ti0 2.711621 1_455
Al1 Ti1 2.711631 1_555
Al1 Ti7 2.714803 1_555
Al1 Ti2 2.736108 1_555
Al2 Co3 2.351626 1_565
Al2 Pt0 2.486230 1_555
Al2 Pt1 2.486238 1_555
Al2 Ti4 2.687229 1_455
Al2 Ti3 2.687234 1_555
Al2 Al9 2.738079 1_566
Al2 Ti2 2.819380 1_555
Al3 Co2 2.394863 1_556
Al3 Co0 2.404217 1_555
Al3 Pt0 2.508371 1_545
Al3 Ti3 2.685247 1_555
Al3 Ti7 2.691857 1_556
Al3 Ti5 2.743271 1_455
Al3 Ti1 2.790850 1_555
Al4 Co1 2.394868 1_555
Al4 Co0 2.404217 1_554
Al4 Pt1 2.508371 1_544
Al4 Ti4 2.685247 1_555
Al4 Ti7 2.691858 1_555
Al4 Ti5 2.743271 1_555
Al4 Al9 2.779302 1_555
Al4 Ti0 2.790851 1_555
Al5 Co3 2.452197 1_665
Al5 Co2 2.464883 1_656
Al5 Co1 2.464896 1_555
Al5 Ti5 2.739554 1_555
Al5 Ti3 2.756374 1_655
Al5 Ti4 2.756379 1_555
Al6 Co3 2.367938 1_654
Al6 Pt0 2.495749 1_645
Al6 Pt1 2.495756 1_544
Al6 Ti1 2.725560 1_655
Al6 Ti0 2.725566 1_555
Al6 Ti5 2.808518 1_555
Al7 Co2 2.414513 1_655
Al7 Co0 2.428246 1_554
Al7 Pt0 2.519768 1_655
Al7 Ti0 2.670218 1_555
Al7 Ti4 2.774430 1_555
Al7 Ti2 2.789755 1_655
Al8 Co1 2.414515 1_555
Al8 Co0 2.428238 1_555
Al8 Pt1 2.519769 1_555
Al8 Ti1 2.670218 1_555
Al8 Ti3 2.774425 1_555
Al8 Ti2 2.789761 1_555
Al9 Co4 2.487392 1_545
Al9 Co1 2.603499 1_555
Al9 Co3 2.613097 1_554
Al9 Pt1 2.675885 1_544
Al9 Ti1 2.762194 1_555
Al9 Ti5 2.846820 1_555
Al9 Ti3 2.868323 1_544
Al10 Co4 2.487399 1_545
Al10 Co2 2.603498 1_656
Al10 Co3 2.613096 1_655
Al10 Pt0 2.675877 1_645
Al10 Al2 2.738065 1_645
Al10 Ti0 2.762200 1_556
Al10 Al3 2.779295 1_655
Al10 Al12 2.815386 1_555
Al10 Al13 2.816437 1_545
Al10 Ti5 2.846819 1_555
Al10 Ti4 2.868321 1_545
Al10 Al11 2.920557 1_545
Al11 Co4 2.496558 1_555
Al11 Co0 2.605084 1_554
Al11 Pt1 2.662059 1_554
Al11 Pt0 2.662060 1_655
Al11 Ti7 2.811401 1_555
Al11 Ti4 2.822402 1_555
Al11 Ti3 2.822402 1_554
Al11 Ti5 2.890283 1_565
Al11 Al9 2.920558 1_565
Al12 Co4 2.487719 1_545
Al12 Co1 2.641561 1_555
Al12 Co2 2.641575 1_656
Al12 Co0 2.652916 1_555
Al12 Al8 2.663888 1_555
Al12 Al7 2.663897 1_556
Al12 Al5 2.691722 1_555
Al12 Ti5 2.789816 1_555
Al12 Ti6 2.804491 1_555
Al12 Al9 2.815367 1_555
Al12 Ti1 2.858096 1_555
Al12 Ti0 2.858110 1_556
Al13 Co4 2.469775 1_555
Al13 Co1 2.575107 1_555
Al13 Co3 2.604306 1_665
Al13 Pt1 2.672435 1_555
Al13 Al5 2.692847 1_555
Al13 Al6 2.721347 1_566
Al13 Al8 2.771382 1_555
Al13 Ti4 2.793624 1_555
Al13 Ti7 2.841375 1_555
Al13 Ti2 2.895464 1_555
Al13 Ti0 2.902123 1_566
Al13 Ti6 2.940968 1_565
Al14 Co4 2.469781 1_555
Al14 Co2 2.575107 1_555
Al14 Co3 2.604312 1_564
Al14 Pt0 2.672421 1_555
Al14 Al5 2.692842 1_454
Al14 Al6 2.721334 1_465
Al14 Al7 2.771364 1_455
Al14 Ti3 2.793637 1_554
Al14 Al9 2.816443 1_565
Al14 Ti7 2.841381 1_555
Al14 Ti2 2.895456 1_555
Al14 Ti1 2.902122 1_565
Al14 Ti6 2.940962 1_565
Co0 Ti6 2.516611 1_555
Co0 Ti7 2.625151 1_556
Co0 Ti1 3.031525 1_555
Co0 Ti0 3.031525 1_556
Co0 Ti4 3.049222 1_556
Co0 Ti3 3.049222 1_555
Co1 Ti7 2.588482 1_555
Co1 Ti1 2.969511 1_555
Co1 Ti2 2.982428 1_555
Co1 Ti4 3.024388 1_555
Co1 Ti5 3.038264 1_555
Co2 Ti7 2.588482 1_555
Co2 Ti0 2.969518 1_455
Co2 Ti2 2.982434 1_555
Co2 Ti3 3.024381 1_554
Co2 Ti5 3.038257 1_454
Co3 Ti4 3.008321 1_445
Co3 Ti3 3.008322 1_545
Co3 Ti1 3.008911 1_556
Co3 Ti0 3.008912 1_456
Co4 Ti6 2.426335 1_565
Co4 Ti7 2.470825 1_555
Pt0 Ti6 2.667648 1_565
Pt0 Ti4 2.993085 1_455
Pt0 Ti5 3.029402 1_465
Pt0 Ti2 3.042842 1_555
Pt0 Ti1 3.063053 1_565
Pt1 Ti6 2.667648 1_565
Pt1 Ti3 2.993085 1_555
Pt1 Ti5 3.029402 1_566
Pt1 Ti2 3.042842 1_555
Pt1 Ti0 3.063053 1_566
