# generated using pymatgen
data_Ti3Ge3MoRh2
_symmetry_space_group_name_H-M   'P 1'
_cell_length_a   7.51326887
_cell_length_b   7.51326995
_cell_length_c   7.51326897
_cell_angle_alpha   126.50701391
_cell_angle_beta   124.11330963
_cell_angle_gamma   81.03955733
_symmetry_Int_Tables_number   1
_chemical_formula_structural   Ti3Ge3MoRh2
_chemical_formula_sum   'Ti6 Ge6 Mo2 Rh4'
_cell_volume   271.96919794
_cell_formula_units_Z   2
loop_
 _symmetry_equiv_pos_site_id
 _symmetry_equiv_pos_as_xyz
  1  'x, y, z'
loop_
 _atom_site_type_symbol
 _atom_site_label
 _atom_site_symmetry_multiplicity
 _atom_site_fract_x
 _atom_site_fract_y
 _atom_site_fract_z
 _atom_site_occupancy
  Ti  Ti0  1  0.96372062  0.72907829  0.26535668  1
  Ti  Ti1  1  0.03627938  0.30163706  0.76535668  1
  Ti  Ti2  1  0.24859172  0.17134175  0.42275003  1
  Ti  Ti3  1  0.75140828  0.17416030  0.92275003  1
  Ti  Ti4  1  0.56197543  0.34893439  0.28695796  1
  Ti  Ti5  1  0.43802457  0.72498252  0.78695796  1
  Ge  Ge0  1  0.78516466  0.80682742  0.52166276  1
  Ge  Ge1  1  0.21483534  0.73649810  0.02166276  1
  Ge  Ge2  1  0.33511319  0.06812482  0.74285303  1
  Ge  Ge3  1  0.66488681  0.40773984  0.73301163  1
  Ge  Ge4  1  0.17472821  0.40773984  0.24285303  1
  Ge  Ge5  1  0.82527179  0.06812482  0.23301163  1
  Mo  Mo0  1  0.50000000  0.49839090  0.99839090  1
  Mo  Mo1  1  1.00000000  0.49839090  0.49839090  1
  Rh  Rh0  1  0.17025101  0.00275302  0.91671502  1
  Rh  Rh1  1  0.82974899  0.74646400  0.83250200  1
  Rh  Rh2  1  0.41396200  0.74646400  0.41671502  1
  Rh  Rh3  1  0.58603800  0.00275302  0.33250200  1
loop_
_geom_bond_atom_site_label_1
_geom_bond_atom_site_label_2
_geom_bond_distance
_geom_bond_site_symmetry_2
Ge0 Rh0 2.417296 1_665
Ge0 Rh3 2.417296 1_565
Ge0 Rh2 2.471340 1_555
Ge0 Rh1 2.471340 1_555
Ge0 Mo0 2.583679 1_554
Ge0 Mo1 2.583679 1_555
Ge0 Ti0 2.676640 1_555
Ge0 Ti3 2.739669 1_565
Ge1 Rh1 2.417296 1_454
Ge1 Rh2 2.417296 1_555
Ge1 Rh3 2.471340 1_565
Ge1 Rh0 2.471340 1_564
Ge1 Mo1 2.583679 1_454
Ge1 Mo0 2.583679 1_554
Ge1 Ti1 2.676632 1_554
Ge1 Ti2 2.739664 1_565
Ge2 Rh0 2.499922 1_555
Ge2 Rh2 2.516341 1_545
Ge2 Mo0 2.620318 1_555
Ge2 Ti1 2.644514 1_555
Ge2 Ti3 2.645270 1_555
Ge2 Ti4 2.666573 1_556
Ge2 Ti2 2.667696 1_555
Ge2 Ti0 2.694012 1_445
Ge2 Ti5 2.731760 1_545
Ge3 Rh1 2.499922 1_555
Ge3 Rh3 2.516341 1_555
Ge3 Mo0 2.620317 1_555
Ge3 Ti0 2.644511 1_556
Ge3 Ti2 2.645267 1_555
Ge3 Ti5 2.666573 1_555
Ge3 Ti3 2.667682 1_555
Ge3 Ti1 2.694013 1_655
Ge3 Ti4 2.731763 1_555
Ge4 Rh2 2.499922 1_555
Ge4 Rh0 2.516341 1_554
Ge4 Mo1 2.620317 1_455
Ge4 Ti0 2.644516 1_455
Ge4 Ti2 2.645267 1_555
Ge4 Ti5 2.666573 1_555
Ge4 Ti3 2.667691 1_454
Ge4 Ti1 2.694018 1_554
Ge4 Ti4 2.731759 1_555
Ge5 Rh3 2.499922 1_555
Ge5 Rh1 2.516340 1_544
Ge5 Mo1 2.620318 1_555
Ge5 Ti1 2.644509 1_655
Ge5 Ti3 2.645279 1_554
Ge5 Ti4 2.666577 1_555
Ge5 Ti2 2.667696 1_655
Ge5 Ti0 2.694008 1_545
Ge5 Ti5 2.731760 1_544
Mo0 Ti4 2.789232 1_556
Mo0 Ti5 2.789238 1_555
Mo0 Ti3 2.819333 1_555
Mo0 Ti2 2.819342 1_555
Mo0 Rh2 2.950180 1_556
Mo0 Rh3 2.950181 1_566
Mo0 Ti1 3.011973 1_555
Mo0 Ti0 3.011978 1_556
Mo1 Ti4 2.789236 1_555
Mo1 Ti5 2.789238 1_655
Mo1 Ti3 2.819342 1_554
Mo1 Ti2 2.819343 1_655
Mo1 Rh1 2.950180 1_555
Mo1 Rh0 2.950181 1_665
Mo1 Ti1 3.011969 1_655
Mo1 Ti0 3.011982 1_555
Rh0 Ti4 2.785286 1_556
Rh0 Ti5 2.797258 1_545
Rh0 Ti2 2.897933 1_556
Rh0 Ti1 2.898196 1_555
Rh1 Ti5 2.785282 1_555
Rh1 Ti4 2.797256 1_555
Rh1 Ti3 2.897948 1_565
Rh1 Ti0 2.898184 1_556
Rh2 Ti5 2.785282 1_555
Rh2 Ti4 2.797252 1_555
Rh2 Ti3 2.897940 1_565
Rh2 Ti0 2.898189 1_455
Rh3 Ti4 2.785290 1_555
Rh3 Ti5 2.797258 1_544
Rh3 Ti2 2.897933 1_555
Rh3 Ti1 2.898191 1_655
