# generated using pymatgen
data_Tb10Ti6O27
_symmetry_space_group_name_H-M   'P 1'
_cell_length_a   7.46916874
_cell_length_b   7.46916874
_cell_length_c   12.61817088
_cell_angle_alpha   72.00396158
_cell_angle_beta   72.00396158
_cell_angle_gamma   58.58101655
_symmetry_Int_Tables_number   1
_chemical_formula_structural   Tb10Ti6O27
_chemical_formula_sum   'Tb10 Ti6 O27'
_cell_volume   561.77925937
_cell_formula_units_Z   1
loop_
 _symmetry_equiv_pos_site_id
 _symmetry_equiv_pos_as_xyz
  1  'x, y, z'
loop_
 _atom_site_type_symbol
 _atom_site_label
 _atom_site_symmetry_multiplicity
 _atom_site_fract_x
 _atom_site_fract_y
 _atom_site_fract_z
 _atom_site_occupancy
  Tb  Tb0  1  0.78024600  0.27243100  0.23080300  1
  Tb  Tb1  1  0.27243100  0.78024600  0.23080300  1
  Tb  Tb2  1  0.01933800  0.01933800  0.49727800  1
  Tb  Tb3  1  0.48114700  0.48114700  0.49095400  1
  Tb  Tb4  1  0.24915600  0.75735200  0.75338600  1
  Tb  Tb5  1  0.75735200  0.24915600  0.75338600  1
  Tb  Tb6  1  0.75000100  0.75000100  0.26743700  1
  Tb  Tb7  1  0.01728100  0.01728100  0.00282700  1
  Tb  Tb8  1  0.75700900  0.75700900  0.77567300  1
  Tb  Tb9  1  0.24584600  0.24584600  0.73319600  1
  Ti  Ti0  1  0.02020500  0.50862000  0.99445900  1
  Ti  Ti1  1  0.50862000  0.02020500  0.99445900  1
  Ti  Ti2  1  0.50165400  0.50165400  0.00668900  1
  Ti  Ti3  1  0.24846500  0.24846500  0.25800300  1
  Ti  Ti4  1  0.52229900  0.99540100  0.50403200  1
  Ti  Ti5  1  0.99540100  0.52229900  0.50403200  1
  O  O0  1  0.42225900  0.05736900  0.36222000  1
  O  O1  1  0.76770500  0.76770500  0.95803100  1
  O  O2  1  0.93244400  0.93244400  0.18958800  1
  O  O3  1  0.78135900  0.37990200  0.03746100  1
  O  O4  1  0.05736900  0.42225900  0.36222000  1
  O  O5  1  0.12557000  0.69778900  0.44388300  1
  O  O6  1  0.10637800  0.52617200  0.81774200  1
  O  O7  1  0.40490000  0.40490000  0.17314400  1
  O  O8  1  0.28781600  0.28781600  0.54002100  1
  O  O9  1  0.37990200  0.78135900  0.03746100  1
  O  O10  1  0.08816300  0.08816300  0.29591200  1
  O  O11  1  0.47453300  0.96389500  0.15934900  1
  O  O12  1  0.33339000  0.77658800  0.56491000  1
  O  O13  1  0.56422300  0.56422300  0.31121000  1
  O  O14  1  0.69778900  0.12557000  0.44388300  1
  O  O15  1  0.52617200  0.10637800  0.81774200  1
  O  O16  1  0.93623400  0.93623400  0.68788100  1
  O  O17  1  0.64213300  0.17959200  0.97645100  1
  O  O18  1  0.55919400  0.55919400  0.84298800  1
  O  O19  1  0.77658800  0.33339000  0.56491000  1
  O  O20  1  0.73733400  0.73733400  0.45225900  1
  O  O21  1  0.96389500  0.47453300  0.15934900  1
  O  O22  1  0.92343000  0.49982000  0.66268900  1
  O  O23  1  0.07048200  0.07048200  0.81474900  1
  O  O24  1  0.17959200  0.64213300  0.97645100  1
  O  O25  1  0.49982000  0.92343000  0.66268900  1
  O  O26  1  0.19735200  0.19735200  0.99988700  1
loop_
_geom_bond_atom_site_label_1
_geom_bond_atom_site_label_2
_geom_bond_distance
_geom_bond_site_symmetry_2
O0 Ti3 1.847945 1_555
O0 Ti4 1.982015 1_545
O0 Tb6 2.592633 1_545
O1 Ti0 1.921962 1_655
O1 Ti1 1.921962 1_565
O1 Tb8 2.353999 1_555
O2 Tb7 2.220307 1_665
O2 Tb6 2.227242 1_555
O2 Tb0 2.335040 1_565
O2 Tb1 2.335040 1_655
O3 Ti2 1.909096 1_555
O3 Ti0 2.295441 1_654
O3 Tb0 2.319602 1_555
O3 Tb7 2.431369 1_655
O4 Ti3 1.847945 1_555
O4 Ti5 1.982015 1_455
O4 Tb6 2.592633 1_455
O5 Ti5 1.870138 1_455
O5 Tb2 2.352532 1_565
O5 Tb3 2.434142 1_555
O5 Tb1 2.582702 1_555
O6 Ti0 2.103375 1_555
O6 Tb9 2.242046 1_555
O6 Tb4 2.301437 1_555
O6 Tb8 2.379830 1_455
O7 Ti3 1.937597 1_555
O7 Ti2 2.030940 1_555
O7 Tb0 2.700288 1_555
O7 Tb1 2.700288 1_555
O8 Ti4 2.043817 1_545
O8 Ti5 2.043817 1_455
O8 Tb9 2.301343 1_555
O8 Tb3 2.371257 1_555
O9 Ti2 1.909096 1_555
O9 Ti1 2.295441 1_564
O9 Tb1 2.319602 1_555
O9 Tb7 2.431369 1_565
O10 Ti3 1.970488 1_555
O10 Tb1 2.242174 1_545
O10 Tb0 2.242174 1_455
O10 Tb2 2.376108 1_555
O11 Ti1 1.953014 1_564
O11 Ti3 2.347937 1_565
O11 Tb1 2.350920 1_555
O11 Tb6 2.367778 1_555
O12 Tb4 2.242985 1_555
O12 Tb3 2.248406 1_555
O12 Tb2 2.316185 1_565
O12 Ti4 2.492161 1_555
O13 Tb3 2.139229 1_555
O13 Tb1 2.251948 1_555
O13 Tb0 2.251948 1_555
O13 Tb6 2.283918 1_555
O14 Ti4 1.870138 1_545
O14 Tb2 2.352532 1_655
O14 Tb3 2.434142 1_555
O14 Tb0 2.582702 1_555
O15 Ti1 2.103375 1_555
O15 Tb9 2.242046 1_555
O15 Tb5 2.301437 1_555
O15 Tb8 2.379830 1_545
O16 Tb8 2.201569 1_555
O16 Tb2 2.260909 1_665
O16 Tb4 2.277430 1_655
O16 Tb5 2.277430 1_565
O17 Ti1 1.842267 1_555
O17 Ti2 2.172870 1_556
O17 Tb7 2.493436 1_656
O17 Tb5 2.645518 1_555
O18 Ti2 1.931745 1_556
O18 Tb8 2.410944 1_555
O18 Tb4 2.416999 1_555
O18 Tb5 2.416999 1_555
O19 Tb5 2.242985 1_555
O19 Tb3 2.248406 1_555
O19 Tb2 2.316185 1_655
O19 Ti5 2.492161 1_555
O20 Ti5 1.903649 1_555
O20 Ti4 1.903649 1_555
O20 Tb6 2.278886 1_555
O21 Ti0 1.953014 1_654
O21 Ti3 2.347937 1_655
O21 Tb0 2.350920 1_555
O21 Tb6 2.367778 1_555
O22 Ti5 1.883200 1_555
O22 Tb8 2.318511 1_555
O22 Tb9 2.389055 1_655
O22 Tb5 2.563985 1_555
O23 Tb9 2.147838 1_555
O23 Tb7 2.224208 1_556
O23 Tb4 2.253201 1_545
O23 Tb5 2.253201 1_455
O24 Ti0 1.842267 1_555
O24 Ti2 2.172870 1_556
O24 Tb7 2.493436 1_566
O24 Tb4 2.645518 1_555
O25 Ti4 1.883200 1_555
O25 Tb8 2.318511 1_555
O25 Tb9 2.389055 1_565
O25 Tb4 2.563985 1_555
O26 Ti1 1.977633 1_555
O26 Ti0 1.977633 1_555
O26 Tb7 2.333167 1_556
