# generated using pymatgen
data_CsMnInF6
_symmetry_space_group_name_H-M   'P 1'
_cell_length_a   7.74661518
_cell_length_b   7.74661545
_cell_length_c   7.74661456
_cell_angle_alpha   121.27687050
_cell_angle_beta   119.12899256
_cell_angle_gamma   89.65899718
_symmetry_Int_Tables_number   1
_chemical_formula_structural   CsMnInF6
_chemical_formula_sum   'Cs2 Mn2 In2 F12'
_cell_volume   327.55651137
_cell_formula_units_Z   2
loop_
 _symmetry_equiv_pos_site_id
 _symmetry_equiv_pos_as_xyz
  1  'x, y, z'
loop_
 _atom_site_type_symbol
 _atom_site_label
 _atom_site_symmetry_multiplicity
 _atom_site_fract_x
 _atom_site_fract_y
 _atom_site_fract_z
 _atom_site_occupancy
  Cs  Cs0  1  0.35060808  0.60060808  0.75000000  1
  Cs  Cs1  1  0.64939192  0.39939192  0.25000000  1
  Mn  Mn0  1  0.00000000  0.00000000  0.50000000  1
  Mn  Mn1  1  0.00000000  0.50000000  0.00000000  1
  In  In0  1  0.00000000  0.00000000  0.00000000  1
  In  In1  1  0.50000000  0.00000000  0.50000000  1
  F  F0  1  0.32225345  0.07225345  0.25000000  1
  F  F1  1  0.93110769  0.68110769  0.25000000  1
  F  F2  1  0.32465317  0.67891551  0.24645858  1
  F  F3  1  0.93245793  0.07819459  0.25354142  1
  F  F4  1  0.32465317  0.07819459  0.64573666  1
  F  F5  1  0.93245793  0.67891551  0.85426334  1
  F  F6  1  0.67774655  0.92774655  0.75000000  1
  F  F7  1  0.06889231  0.31889231  0.75000000  1
  F  F8  1  0.67534683  0.32108449  0.75354142  1
  F  F9  1  0.06754207  0.92180541  0.74645858  1
  F  F10  1  0.67534683  0.92180541  0.35426334  1
  F  F11  1  0.06754207  0.32108449  0.14573666  1
loop_
_geom_bond_atom_site_label_1
_geom_bond_atom_site_label_2
_geom_bond_distance
_geom_bond_site_symmetry_2
Cs0 F7 3.095471 1_555
Cs0 F8 3.308712 1_555
Cs0 F10 3.308717 1_556
Cs0 F9 3.308717 1_555
Cs0 F11 3.308717 1_555
Cs0 F6 3.594572 1_555
Cs1 F1 3.095471 1_555
Cs1 F2 3.308712 1_555
Cs1 F4 3.308717 1_554
Cs1 F3 3.308717 1_555
Cs1 F5 3.308717 1_555
Cs1 F0 3.594572 1_555
F0 In1 2.116628 1_555
F0 In0 2.116628 1_555
F1 Mn1 2.044461 1_655
F1 Mn0 2.044461 1_665
F2 In1 2.063904 1_565
F2 Mn1 2.123757 1_555
F3 In0 2.063898 1_655
F3 Mn0 2.123759 1_655
F4 In1 2.063898 1_555
F4 Mn0 2.123759 1_555
F5 In0 2.063906 1_666
F5 Mn1 2.123752 1_656
F6 In1 2.116628 1_565
F6 In0 2.116628 1_666
F7 Mn1 2.044461 1_556
F7 Mn0 2.044461 1_555
F8 In1 2.063904 1_555
F8 Mn1 2.123757 1_656
F9 In0 2.063898 1_566
F9 Mn0 2.123759 1_565
F10 In1 2.063898 1_565
F10 Mn0 2.123759 1_665
F11 In0 2.063906 1_555
F11 Mn1 2.123752 1_555
