# generated using pymatgen
data_Mg4Ni2Ge6Ir5
_symmetry_space_group_name_H-M   'P 1'
_cell_length_a   6.92638066
_cell_length_b   6.96037246
_cell_length_c   6.96037126
_cell_angle_alpha   109.24877454
_cell_angle_beta   109.68260729
_cell_angle_gamma   109.68261776
_symmetry_Int_Tables_number   1
_chemical_formula_structural   Mg4Ni2Ge6Ir5
_chemical_formula_sum   'Mg4 Ni2 Ge6 Ir5'
_cell_volume   257.67050476
_cell_formula_units_Z   1
loop_
 _symmetry_equiv_pos_site_id
 _symmetry_equiv_pos_as_xyz
  1  'x, y, z'
loop_
 _atom_site_type_symbol
 _atom_site_label
 _atom_site_symmetry_multiplicity
 _atom_site_fract_x
 _atom_site_fract_y
 _atom_site_fract_z
 _atom_site_occupancy
  Mg  Mg0  1  0.00645807  0.00322853  0.50322853  1
  Mg  Mg1  1  0.00645807  0.50322853  0.00322853  1
  Mg  Mg2  1  0.49060626  0.99186523  0.99186523  1
  Mg  Mg3  1  0.49060626  0.49874103  0.49874103  1
  Ni  Ni0  1  0.74674830  0.25184283  0.49490547  1
  Ni  Ni1  1  0.74674830  0.49490547  0.25184283  1
  Ge  Ge0  1  0.69211324  0.68948733  0.00262591  1
  Ge  Ge1  1  0.31945468  0.00420319  0.31525049  1
  Ge  Ge2  1  0.98674871  0.30804775  0.30804775  1
  Ge  Ge3  1  0.31945468  0.31525049  0.00420319  1
  Ge  Ge4  1  0.69211324  0.00262591  0.68948733  1
  Ge  Ge5  1  0.98674871  0.67870096  0.67870096  1
  Ir  Ir0  1  0.51655058  0.25827479  0.75827479  1
  Ir  Ir1  1  0.23971213  0.49330422  0.74640691  1
  Ir  Ir2  1  0.23971213  0.74640691  0.49330422  1
  Ir  Ir3  1  0.51655058  0.75827479  0.25827479  1
  Ir  Ir4  1  0.00321804  0.00160902  0.00160902  1
loop_
_geom_bond_atom_site_label_1
_geom_bond_atom_site_label_2
_geom_bond_distance
_geom_bond_site_symmetry_2
Mg0 Ni1 2.885547 1_445
Mg0 Ni0 2.885553 1_455
Mg1 Ni0 2.885547 1_454
Mg1 Ni1 2.885552 1_455
Mg2 Ni0 2.856039 1_566
Mg2 Ni1 2.856039 1_566
Mg3 Ni1 2.856038 1_555
Mg3 Ni0 2.856039 1_555
Ni0 Ni1 2.758911 1_555
Ge0 Ir3 2.482389 1_555
Ge0 Ir0 2.482396 1_554
Ge0 Ir4 2.495998 1_665
Ge0 Ni1 2.537432 1_555
Ge0 Ir1 2.571307 1_554
Ge0 Mg0 2.884454 1_665
Ge0 Mg1 2.884460 1_655
Ge0 Mg3 2.897501 1_554
Ge0 Mg2 2.897501 1_554
Ge1 Ni0 2.437914 1_555
Ge1 Ir4 2.508014 1_555
Ge1 Ir2 2.514046 1_545
Ge1 Ir0 2.538162 1_555
Ge1 Ir3 2.538162 1_545
Ge1 Mg2 2.866658 1_544
Ge1 Mg3 2.866664 1_555
Ge1 Mg0 2.884192 1_555
Ge1 Mg1 2.884192 1_545
Ge2 Ni0 2.441669 1_555
Ge2 Ni1 2.441670 1_555
Ge2 Ir1 2.514955 1_655
Ge2 Ir2 2.514955 1_655
Ge2 Ir4 2.537711 1_655
Ge2 Mg2 2.848445 1_544
Ge2 Mg3 2.881098 1_655
Ge2 Mg1 2.887261 1_655
Ge2 Mg0 2.887262 1_655
Ge3 Ni1 2.437914 1_555
Ge3 Ir4 2.508014 1_555
Ge3 Ir1 2.514046 1_554
Ge3 Ir0 2.538161 1_554
Ge3 Ir3 2.538162 1_555
Ge3 Mg2 2.866658 1_544
Ge3 Mg3 2.866664 1_555
Ge3 Mg1 2.884192 1_555
Ge3 Mg0 2.884192 1_554
Ge4 Ir0 2.482390 1_555
Ge4 Ir3 2.482396 1_545
Ge4 Ir4 2.495998 1_656
Ge4 Ni0 2.537431 1_555
Ge4 Ir2 2.571307 1_545
Ge4 Mg1 2.884455 1_656
Ge4 Mg0 2.884460 1_655
Ge4 Mg2 2.897501 1_545
Ge4 Mg3 2.897501 1_545
Ge5 Ni1 2.441670 1_555
Ge5 Ni0 2.441670 1_555
Ge5 Ir2 2.514960 1_655
Ge5 Ir1 2.514960 1_655
Ge5 Ir4 2.537711 1_666
Ge5 Mg3 2.848444 1_555
Ge5 Mg2 2.881098 1_655
Ge5 Mg1 2.887260 1_656
Ge5 Mg0 2.887260 1_665
Ir0 Mg1 2.759928 1_656
Ir0 Ni0 2.804910 1_555
Ir0 Ni1 2.804916 1_556
Ir0 Mg2 2.841551 1_545
Ir0 Mg3 2.841551 1_555
Ir0 Mg0 2.873641 1_555
Ir1 Ni0 2.777730 1_455
Ir1 Mg1 2.783803 1_556
Ir1 Mg0 2.783804 1_555
Ir1 Mg3 2.830132 1_555
Ir1 Mg2 2.830138 1_555
Ir2 Ni1 2.777730 1_455
Ir2 Mg1 2.783803 1_555
Ir2 Mg0 2.783803 1_565
Ir2 Mg3 2.830132 1_555
Ir2 Mg2 2.830138 1_555
Ir3 Mg0 2.759928 1_665
Ir3 Ni1 2.804910 1_555
Ir3 Ni0 2.804916 1_565
Ir3 Mg2 2.841551 1_554
Ir3 Mg3 2.841551 1_555
Ir3 Mg1 2.873641 1_555
