# generated using pymatgen
data_SrLi2(P3Pd10)2
_symmetry_space_group_name_H-M   'P 1'
_cell_length_a   8.55050930
_cell_length_b   8.55050929
_cell_length_c   8.55050912
_cell_angle_alpha   60.00000066
_cell_angle_beta   60.00000072
_cell_angle_gamma   59.99999606
_symmetry_Int_Tables_number   1
_chemical_formula_structural   SrLi2(P3Pd10)2
_chemical_formula_sum   'Sr1 Li2 P6 Pd20'
_cell_volume   442.03935347
_cell_formula_units_Z   1
loop_
 _symmetry_equiv_pos_site_id
 _symmetry_equiv_pos_as_xyz
  1  'x, y, z'
loop_
 _atom_site_type_symbol
 _atom_site_label
 _atom_site_symmetry_multiplicity
 _atom_site_fract_x
 _atom_site_fract_y
 _atom_site_fract_z
 _atom_site_occupancy
  Sr  Sr0  1  0.25000000  0.25000000  0.25000000  1
  Li  Li0  1  0.00000000  0.00000000  0.00000000  1
  Li  Li1  1  0.75000000  0.75000000  0.75000000  1
  P  P0  1  0.73856276  0.26143724  0.26143724  1
  P  P1  1  0.73856276  0.73856276  0.26143724  1
  P  P2  1  0.73856276  0.26143724  0.73856276  1
  P  P3  1  0.26143724  0.73856276  0.26143724  1
  P  P4  1  0.26143724  0.73856276  0.73856276  1
  P  P5  1  0.26143724  0.26143724  0.73856276  1
  Pd  Pd0  1  0.34546174  0.99820861  0.99820861  1
  Pd  Pd1  1  0.99820861  0.65812004  0.34546174  1
  Pd  Pd2  1  0.34546174  0.99820861  0.65812004  1
  Pd  Pd3  1  0.99820861  0.65812004  0.99820861  1
  Pd  Pd4  1  0.65812004  0.34546174  0.99820861  1
  Pd  Pd5  1  0.62049448  0.62049448  0.13851456  1
  Pd  Pd6  1  0.39123332  0.82630103  0.39123332  1
  Pd  Pd7  1  0.13851456  0.62049448  0.62049448  1
  Pd  Pd8  1  0.65812004  0.99820861  0.34546174  1
  Pd  Pd9  1  0.99820861  0.34546174  0.65812004  1
  Pd  Pd10  1  0.65812004  0.99820861  0.99820861  1
  Pd  Pd11  1  0.99820861  0.99820861  0.34546174  1
  Pd  Pd12  1  0.62049448  0.13851456  0.62049448  1
  Pd  Pd13  1  0.34546174  0.65812004  0.99820861  1
  Pd  Pd14  1  0.39123332  0.39123332  0.39123332  1
  Pd  Pd15  1  0.62049448  0.62049448  0.62049448  1
  Pd  Pd16  1  0.39123332  0.39123332  0.82630103  1
  Pd  Pd17  1  0.99820861  0.99820861  0.65812004  1
  Pd  Pd18  1  0.82630103  0.39123332  0.39123332  1
  Pd  Pd19  1  0.99820861  0.34546174  0.99820861  1
loop_
_geom_bond_atom_site_label_1
_geom_bond_atom_site_label_2
_geom_bond_distance
_geom_bond_site_symmetry_2
Li0 Pd11 2.938636 1_445
Li0 Pd19 2.938636 1_454
Li0 Pd0 2.938636 1_544
Li0 Pd4 2.938640 1_454
Li0 Pd13 2.938640 1_544
Li0 Pd9 2.938641 1_454
Li0 Pd1 2.938641 1_445
Li0 Pd2 2.938641 1_544
Li0 Pd8 2.938641 1_445
Li0 Pd17 2.938645 1_444
Li0 Pd3 2.938645 1_444
Li0 Pd10 2.938645 1_444
Li1 Pd12 2.712399 1_565
Li1 Pd7 2.712399 1_655
Li1 Pd5 2.712399 1_556
Li1 Pd15 2.712413 1_555
Li1 Pd10 3.285596 1_555
Li1 Pd3 3.285596 1_555
Li1 Pd17 3.285596 1_555
Li1 Pd19 3.285599 1_555
Li1 Pd0 3.285599 1_555
Li1 Pd11 3.285599 1_555
Li1 Pd9 3.285603 1_555
Li1 Pd2 3.285603 1_555
Li1 Pd8 3.285603 1_555
Li1 Pd1 3.285603 1_555
Li1 Pd4 3.285603 1_555
Li1 Pd13 3.285603 1_555
P0 Pd11 2.343497 1_545
P0 Pd19 2.343497 1_554
P0 Pd4 2.343502 1_554
P0 Pd8 2.343502 1_545
P0 Pd14 2.433740 1_555
P0 Pd18 2.433747 1_555
P0 Pd5 2.506859 1_555
P0 Pd12 2.506859 1_555
P1 Pd8 2.343494 1_555
P1 Pd1 2.343494 1_555
P1 Pd10 2.343499 1_554
P1 Pd3 2.343499 1_554
P1 Pd18 2.433739 1_555
P1 Pd6 2.433739 1_555
P1 Pd15 2.506859 1_555
P1 Pd5 2.506873 1_555
P2 Pd4 2.343494 1_555
P2 Pd9 2.343494 1_555
P2 Pd17 2.343499 1_545
P2 Pd10 2.343499 1_545
P2 Pd16 2.433739 1_555
P2 Pd18 2.433739 1_555
P2 Pd15 2.506859 1_555
P2 Pd12 2.506873 1_555
P3 Pd11 2.343497 1_455
P3 Pd0 2.343497 1_554
P3 Pd13 2.343502 1_554
P3 Pd1 2.343502 1_455
P3 Pd14 2.433740 1_555
P3 Pd6 2.433747 1_555
P3 Pd5 2.506859 1_555
P3 Pd7 2.506859 1_555
P4 Pd13 2.343494 1_555
P4 Pd2 2.343494 1_555
P4 Pd17 2.343499 1_455
P4 Pd3 2.343500 1_455
P4 Pd16 2.433739 1_555
P4 Pd6 2.433739 1_555
P4 Pd15 2.506859 1_555
P4 Pd7 2.506873 1_555
P5 Pd0 2.343497 1_545
P5 Pd19 2.343497 1_455
P5 Pd2 2.343502 1_545
P5 Pd9 2.343502 1_455
P5 Pd14 2.433740 1_555
P5 Pd16 2.433747 1_555
P5 Pd7 2.506859 1_555
P5 Pd12 2.506859 1_555
Pd0 Pd10 2.673388 1_555
Pd0 Pd2 2.907930 1_555
Pd0 Pd13 2.907931 1_555
Pd0 Pd5 2.958355 1_556
Pd0 Pd12 2.958355 1_565
Pd0 Pd19 2.969191 1_465
Pd0 Pd11 2.969191 1_456
Pd0 Pd6 3.067150 1_556
Pd0 Pd16 3.067150 1_565
Pd0 Sr0 3.325222 1_566
Pd1 Pd9 2.673388 1_555
Pd1 Pd8 2.907930 1_555
Pd1 Pd11 2.907931 1_555
Pd1 Pd7 2.958350 1_655
Pd1 Pd15 2.958357 1_555
Pd1 Pd3 2.969191 1_554
Pd1 Pd13 2.969191 1_654
Pd1 Pd18 3.067135 1_555
Pd1 Pd14 3.067148 1_655
Pd1 Sr0 3.325215 1_655
Pd2 Pd8 2.673388 1_555
Pd2 Pd9 2.969191 1_465
Pd2 Pd6 3.067135 1_555
Pd2 Sr0 3.325215 1_565
Pd3 Pd7 2.958359 1_655
Pd3 Pd5 2.958359 1_556
Pd3 Sr0 3.325219 1_656
Pd4 Pd9 2.907931 1_555
Pd4 Pd5 2.958351 1_556
Pd4 Pd8 2.969191 1_546
Pd4 Sr0 3.325215 1_556
Pd6 Sr0 2.958038 1_565
Pd6 Pd8 3.067135 1_555
Pd7 Pd9 2.958351 1_455
Pd8 Sr0 3.325215 1_565
Pd9 Sr0 3.325215 1_655
Pd10 Pd3 2.907930 1_555
Pd10 Pd17 2.907931 1_555
Pd10 Pd12 2.958359 1_565
Pd10 Pd5 2.958359 1_556
Pd10 Pd8 2.969191 1_556
Pd10 Pd4 2.969191 1_565
Pd10 Pd16 3.067143 1_565
Pd10 Pd6 3.067143 1_556
Pd10 Sr0 3.325219 1_566
Pd11 Pd17 2.673388 1_555
Pd11 Pd8 2.907931 1_555
Pd11 Pd7 2.958355 1_655
Pd11 Pd12 2.958355 1_565
Pd11 Pd19 2.969191 1_564
Pd11 Pd18 3.067150 1_565
Pd11 Pd6 3.067150 1_655
Pd11 Sr0 3.325222 1_665
Pd12 Pd8 2.958350 1_545
Pd12 Pd2 2.958351 1_545
Pd12 Pd17 2.958359 1_545
Pd13 Pd4 2.673388 1_555
Pd13 Pd2 2.907931 1_555
Pd13 Pd5 2.958351 1_556
Pd13 Pd15 2.958357 1_555
Pd13 Pd3 2.969191 1_455
Pd13 Pd16 3.067135 1_555
Pd13 Pd14 3.067148 1_556
Pd13 Sr0 3.325215 1_556
Pd14 Sr0 2.958045 1_555
Pd14 Pd8 3.067148 1_545
Pd14 Pd4 3.067148 1_554
Pd14 Pd2 3.067148 1_545
Pd14 Pd9 3.067148 1_455
Pd15 Pd2 2.958357 1_555
Pd15 Pd9 2.958357 1_555
Pd15 Pd4 2.958357 1_555
Pd15 Pd8 2.958357 1_555
Pd16 Sr0 2.958038 1_556
Pd16 Pd4 3.067135 1_555
Pd16 Pd3 3.067143 1_455
Pd16 Pd19 3.067150 1_455
Pd17 Pd3 2.907931 1_555
Pd17 Pd7 2.958359 1_655
Pd17 Pd9 2.969191 1_565
Pd17 Pd2 2.969191 1_655
Pd17 Pd18 3.067143 1_565
Pd17 Pd6 3.067143 1_655
Pd17 Sr0 3.325219 1_665
Pd18 Sr0 2.958038 1_655
Pd18 Pd9 3.067135 1_555
Pd18 Pd3 3.067143 1_554
Pd18 Pd19 3.067150 1_554
Pd19 Pd3 2.673388 1_555
Pd19 Pd9 2.907930 1_555
Pd19 Pd4 2.907931 1_555
Pd19 Pd5 2.958355 1_556
Pd19 Pd7 2.958355 1_655
Pd19 Sr0 3.325222 1_656
