# generated using pymatgen
data_CsZnGaF6
_symmetry_space_group_name_H-M   'P 1'
_cell_length_a   7.31192845
_cell_length_b   7.31192850
_cell_length_c   7.31192828
_cell_angle_alpha   119.78936800
_cell_angle_beta   120.39876789
_cell_angle_gamma   89.83795902
_symmetry_Int_Tables_number   1
_chemical_formula_structural   CsZnGaF6
_chemical_formula_sum   'Cs2 Zn2 Ga2 F12'
_cell_volume   276.02318985
_cell_formula_units_Z   2
loop_
 _symmetry_equiv_pos_site_id
 _symmetry_equiv_pos_as_xyz
  1  'x, y, z'
loop_
 _atom_site_type_symbol
 _atom_site_label
 _atom_site_symmetry_multiplicity
 _atom_site_fract_x
 _atom_site_fract_y
 _atom_site_fract_z
 _atom_site_occupancy
  Cs  Cs0  1  0.62211330  0.87211330  0.75000000  1
  Cs  Cs1  1  0.37788670  0.12788670  0.25000000  1
  Zn  Zn0  1  0.50000000  0.50000000  0.00000000  1
  Zn  Zn1  1  0.00000000  0.50000000  0.50000000  1
  Ga  Ga0  1  0.00000000  0.50000000  0.00000000  1
  Ga  Ga1  1  0.00000000  0.00000000  0.50000000  1
  F  F0  1  0.05774230  0.80774230  0.25000000  1
  F  F1  1  0.67520806  0.42520806  0.25000000  1
  F  F2  1  0.06291093  0.83148431  0.63908678  1
  F  F3  1  0.69239753  0.42382315  0.86091322  1
  F  F4  1  0.69239753  0.83148431  0.26857338  1
  F  F5  1  0.06291093  0.42382315  0.23142662  1
  F  F6  1  0.94225770  0.19225770  0.75000000  1
  F  F7  1  0.32479194  0.57479194  0.75000000  1
  F  F8  1  0.93708907  0.16851569  0.36091322  1
  F  F9  1  0.30760247  0.57617685  0.13908678  1
  F  F10  1  0.30760247  0.16851569  0.73142662  1
  F  F11  1  0.93708907  0.57617685  0.76857338  1
loop_
_geom_bond_atom_site_label_1
_geom_bond_atom_site_label_2
_geom_bond_distance
_geom_bond_site_symmetry_2
Cs0 F7 3.078834 1_555
Cs0 F11 3.154712 1_555
Cs0 F8 3.154717 1_566
Cs0 F10 3.154717 1_565
Cs0 F9 3.154717 1_555
Cs0 F6 3.315172 1_565
Cs1 F1 3.078834 1_555
Cs1 F5 3.154712 1_555
Cs1 F2 3.154717 1_544
Cs1 F4 3.154717 1_545
Cs1 F3 3.154717 1_555
Cs1 F0 3.315172 1_545
F0 Ga1 1.928819 1_565
F0 Ga0 1.928820 1_555
F1 Zn0 1.975133 1_555
F1 Zn1 1.975133 1_655
F2 Ga1 1.879522 1_565
F2 Zn1 2.050421 1_555
F3 Ga0 1.879522 1_656
F3 Zn0 2.050421 1_556
F4 Ga1 1.879522 1_665
F4 Zn0 2.050421 1_555
F5 Ga0 1.879527 1_555
F5 Zn1 2.050420 1_555
F6 Ga1 1.928819 1_655
F6 Ga0 1.928820 1_656
F7 Zn0 1.975133 1_556
F7 Zn1 1.975133 1_555
F8 Ga1 1.879522 1_655
F8 Zn1 2.050421 1_655
F9 Ga0 1.879522 1_555
F9 Zn0 2.050421 1_555
F10 Ga1 1.879522 1_555
F10 Zn0 2.050421 1_556
F11 Ga0 1.879527 1_656
F11 Zn1 2.050420 1_655
