# generated using pymatgen
data_Lu2NbSi2Ru5
_symmetry_space_group_name_H-M   'P 1'
_cell_length_a   9.93419571
_cell_length_b   9.93419571
_cell_length_c   3.20427700
_cell_angle_alpha   90.00000000
_cell_angle_beta   90.00000000
_cell_angle_gamma   90.00000000
_symmetry_Int_Tables_number   1
_chemical_formula_structural   Lu2NbSi2Ru5
_chemical_formula_sum   'Lu4 Nb2 Si4 Ru10'
_cell_volume   316.22447206
_cell_formula_units_Z   2
loop_
 _symmetry_equiv_pos_site_id
 _symmetry_equiv_pos_as_xyz
  1  'x, y, z'
loop_
 _atom_site_type_symbol
 _atom_site_label
 _atom_site_symmetry_multiplicity
 _atom_site_fract_x
 _atom_site_fract_y
 _atom_site_fract_z
 _atom_site_occupancy
  Lu  Lu0  1  0.82718164  0.67281836  0.00000000  1
  Lu  Lu1  1  0.17281836  0.32718164  0.00000000  1
  Lu  Lu2  1  0.32718164  0.82718164  0.00000000  1
  Lu  Lu3  1  0.67281836  0.17281836  0.00000000  1
  Nb  Nb0  1  0.50000000  0.50000000  0.00000000  1
  Nb  Nb1  1  0.00000000  0.00000000  0.00000000  1
  Si  Si0  1  0.62622114  0.87377886  0.00000000  1
  Si  Si1  1  0.37377886  0.12622114  0.00000000  1
  Si  Si2  1  0.12622114  0.62622114  0.00000000  1
  Si  Si3  1  0.87377886  0.37377886  0.00000000  1
  Ru  Ru0  1  0.56827630  0.70826997  0.50000000  1
  Ru  Ru1  1  0.43172370  0.29173003  0.50000000  1
  Ru  Ru2  1  0.06827630  0.79173003  0.50000000  1
  Ru  Ru3  1  0.93172370  0.20826997  0.50000000  1
  Ru  Ru4  1  0.29173003  0.56827630  0.50000000  1
  Ru  Ru5  1  0.70826997  0.43172370  0.50000000  1
  Ru  Ru6  1  0.20826997  0.06827630  0.50000000  1
  Ru  Ru7  1  0.79173003  0.93172370  0.50000000  1
  Ru  Ru8  1  0.50000000  0.00000000  0.50000000  1
  Ru  Ru9  1  0.00000000  0.50000000  0.50000000  1
loop_
_geom_bond_atom_site_label_1
_geom_bond_atom_site_label_2
_geom_bond_distance
_geom_bond_site_symmetry_2
Lu0 Si0 2.823309 1_555
Lu0 Ru9 2.908905 1_654
Lu0 Ru9 2.908905 1_655
Lu0 Si2 3.006566 1_655
Lu0 Si3 3.006566 1_555
Lu0 Ru0 3.050598 1_555
Lu0 Ru0 3.050598 1_554
Lu0 Ru7 3.050598 1_554
Lu0 Ru7 3.050598 1_555
Lu0 Ru5 3.114276 1_554
Lu0 Ru5 3.114276 1_555
Lu0 Ru2 3.114276 1_654
Lu0 Ru2 3.114276 1_655
Lu1 Si1 2.823309 1_555
Lu1 Ru9 2.908905 1_554
Lu1 Ru9 2.908905 1_555
Lu1 Si3 3.006566 1_455
Lu1 Si2 3.006566 1_555
Lu1 Ru1 3.050598 1_555
Lu1 Ru1 3.050598 1_554
Lu1 Ru6 3.050598 1_555
Lu1 Ru6 3.050598 1_554
Lu1 Ru3 3.114276 1_455
Lu1 Ru3 3.114276 1_454
Lu1 Ru4 3.114276 1_554
Lu1 Ru4 3.114276 1_555
Lu2 Si2 2.823309 1_555
Lu2 Ru8 2.908905 1_565
Lu2 Ru8 2.908905 1_564
Lu2 Si1 3.006566 1_565
Lu2 Si0 3.006566 1_555
Lu2 Ru2 3.050598 1_554
Lu2 Ru4 3.050598 1_555
Lu2 Ru2 3.050598 1_555
Lu2 Ru4 3.050598 1_554
Lu2 Ru6 3.114276 1_565
Lu2 Ru6 3.114276 1_564
Lu2 Ru0 3.114276 1_554
Lu2 Ru0 3.114276 1_555
Lu3 Si3 2.823309 1_555
Lu3 Ru8 2.908905 1_554
Lu3 Ru8 2.908905 1_555
Lu3 Si1 3.006566 1_555
Lu3 Si0 3.006566 1_545
Lu3 Ru5 3.050598 1_554
Lu3 Ru5 3.050598 1_555
Lu3 Ru3 3.050598 1_554
Lu3 Ru3 3.050598 1_555
Lu3 Ru7 3.114276 1_544
Lu3 Ru7 3.114276 1_545
Lu3 Ru1 3.114276 1_554
Lu3 Ru1 3.114276 1_555
Nb0 Ru4 2.703264 1_555
Nb0 Ru0 2.703264 1_554
Nb0 Ru4 2.703264 1_554
Nb0 Ru0 2.703264 1_555
Nb0 Ru1 2.703264 1_555
Nb0 Ru1 2.703264 1_554
Nb0 Ru5 2.703264 1_554
Nb0 Ru5 2.703264 1_555
Nb1 Ru7 2.703264 1_444
Nb1 Ru7 2.703264 1_445
Nb1 Ru2 2.703264 1_544
Nb1 Ru2 2.703264 1_545
Nb1 Ru3 2.703264 1_454
Nb1 Ru6 2.703264 1_555
Nb1 Ru3 2.703264 1_455
Nb1 Ru6 2.703264 1_554
Ru0 Si0 2.366768 1_556
Ru0 Si0 2.366768 1_555
Ru1 Si1 2.366768 1_555
Ru1 Si1 2.366768 1_556
Ru2 Si2 2.366768 1_555
Ru2 Si2 2.366768 1_556
Ru3 Si3 2.366768 1_555
Ru3 Si3 2.366768 1_556
Ru4 Si2 2.366768 1_556
Ru4 Si2 2.366768 1_555
Ru5 Si3 2.366768 1_556
Ru5 Si3 2.366768 1_555
Ru6 Si1 2.366768 1_555
Ru6 Si1 2.366768 1_556
Ru7 Si0 2.366768 1_556
Ru7 Si0 2.366768 1_555
Ru8 Si1 2.389855 1_555
Ru8 Si1 2.389855 1_556
Ru8 Si0 2.389855 1_545
Ru8 Si0 2.389855 1_546
Ru9 Si2 2.389855 1_556
Ru9 Si2 2.389855 1_555
Ru9 Si3 2.389855 1_455
Ru9 Si3 2.389855 1_456
