# generated using pymatgen
data_Hf6FeBr15
_symmetry_space_group_name_H-M   'P 1'
_cell_length_a   9.22747099
_cell_length_b   9.22747081
_cell_length_c   9.22747047
_cell_angle_alpha   109.47122198
_cell_angle_beta   109.47122159
_cell_angle_gamma   109.47122007
_symmetry_Int_Tables_number   1
_chemical_formula_structural   Hf6FeBr15
_chemical_formula_sum   'Hf6 Fe1 Br15'
_cell_volume   604.81998401
_cell_formula_units_Z   1
loop_
 _symmetry_equiv_pos_site_id
 _symmetry_equiv_pos_as_xyz
  1  'x, y, z'
loop_
 _atom_site_type_symbol
 _atom_site_label
 _atom_site_symmetry_multiplicity
 _atom_site_fract_x
 _atom_site_fract_y
 _atom_site_fract_z
 _atom_site_occupancy
  Hf  Hf0  1  0.22877480  1.00000000  0.22877480  1
  Hf  Hf1  1  0.22877480  0.22877480  0.00000000  1
  Hf  Hf2  1  0.77122520  0.00000000  0.77122520  1
  Hf  Hf3  1  1.00000000  0.22877480  0.22877480  1
  Hf  Hf4  1  0.00000000  0.77122520  0.77122520  1
  Hf  Hf5  1  0.77122520  0.77122520  0.00000000  1
  Fe  Fe0  1  0.00000000  0.00000000  0.00000000  1
  Br  Br0  1  0.00000000  0.75093671  0.24906329  1
  Br  Br1  1  0.24906329  0.75093671  1.00000000  1
  Br  Br2  1  0.50187342  0.75093671  0.75093671  1
  Br  Br3  1  0.00000000  0.24906329  0.75093671  1
  Br  Br4  1  0.75093671  0.00000000  0.24906329  1
  Br  Br5  1  0.24906329  0.49812658  0.24906329  1
  Br  Br6  1  0.75093671  0.24906329  0.00000000  1
  Br  Br7  1  0.50000000  0.50000000  0.00000000  1
  Br  Br8  1  0.24906329  0.24906329  0.49812658  1
  Br  Br9  1  0.75093671  0.50187342  0.75093671  1
  Br  Br10  1  0.75093671  0.75093671  0.50187342  1
  Br  Br11  1  0.49812658  0.24906329  0.24906329  1
  Br  Br12  1  0.24906329  1.00000000  0.75093671  1
  Br  Br13  1  0.00000000  0.50000000  0.50000000  1
  Br  Br14  1  0.50000000  0.00000000  0.50000000  1
loop_
_geom_bond_atom_site_label_1
_geom_bond_atom_site_label_2
_geom_bond_distance
_geom_bond_site_symmetry_2
Fe0 Hf3 2.437588 1_455
Fe0 Hf4 2.437588 1_544
Fe0 Hf0 2.437588 1_545
Fe0 Hf2 2.437588 1_454
Fe0 Hf1 2.437588 1_555
Fe0 Hf5 2.437588 1_445
Br0 Hf5 2.662551 1_455
Br0 Hf0 2.662551 1_555
Br1 Hf0 2.662551 1_556
Br1 Hf4 2.662551 1_555
Br2 Hf5 2.662551 1_556
Br2 Hf2 2.662551 1_565
Br3 Hf1 2.662551 1_556
Br3 Hf2 2.662551 1_455
Br4 Hf5 2.662551 1_545
Br4 Hf3 2.662551 1_555
Br5 Hf1 2.662551 1_555
Br5 Hf3 2.662551 1_455
Br6 Hf2 2.662551 1_554
Br6 Hf3 2.662551 1_555
Br7 Hf5 2.889895 1_555
Br7 Hf1 2.889895 1_555
Br8 Hf0 2.662551 1_545
Br8 Hf3 2.662551 1_455
Br9 Hf5 2.662551 1_556
Br9 Hf4 2.662551 1_655
Br10 Hf2 2.662551 1_565
Br10 Hf4 2.662551 1_655
Br11 Hf1 2.662551 1_555
Br11 Hf0 2.662551 1_545
Br12 Hf1 2.662551 1_566
Br12 Hf4 2.662551 1_555
Br13 Hf4 2.889895 1_555
Br13 Hf3 2.889895 1_455
Br14 Hf2 2.889895 1_555
Br14 Hf0 2.889895 1_545
