# generated using pymatgen
data_Rb3NaSn3Te8
_symmetry_space_group_name_H-M   'P 1'
_cell_length_a   9.07460491
_cell_length_b   9.07460491
_cell_length_c   14.75970472
_cell_angle_alpha   90.00000000
_cell_angle_beta   90.00000000
_cell_angle_gamma   90.00000000
_symmetry_Int_Tables_number   1
_chemical_formula_structural   Rb3NaSn3Te8
_chemical_formula_sum   'Rb6 Na2 Sn6 Te16'
_cell_volume   1215.43886839
_cell_formula_units_Z   2
loop_
 _symmetry_equiv_pos_site_id
 _symmetry_equiv_pos_as_xyz
  1  'x, y, z'
loop_
 _atom_site_type_symbol
 _atom_site_label
 _atom_site_symmetry_multiplicity
 _atom_site_fract_x
 _atom_site_fract_y
 _atom_site_fract_z
 _atom_site_occupancy
  Rb  Rb0  1  0.00000000  0.00000000  0.72279040  1
  Rb  Rb1  1  0.50000000  0.50000000  0.72279040  1
  Rb  Rb2  1  0.50000000  0.50000000  0.27720960  1
  Rb  Rb3  1  0.00000000  0.00000000  0.27720960  1
  Rb  Rb4  1  0.50000000  0.50000000  0.00000000  1
  Rb  Rb5  1  0.00000000  0.00000000  0.00000000  1
  Na  Na0  1  0.00000000  0.50000000  0.00000000  1
  Na  Na1  1  0.50000000  0.00000000  0.00000000  1
  Sn  Sn0  1  0.50000000  0.00000000  0.75357724  1
  Sn  Sn1  1  0.50000000  0.00000000  0.24642276  1
  Sn  Sn2  1  0.00000000  0.50000000  0.75357724  1
  Sn  Sn3  1  0.00000000  0.50000000  0.24642276  1
  Sn  Sn4  1  0.50000000  0.00000000  0.50000000  1
  Sn  Sn5  1  0.00000000  0.50000000  0.50000000  1
  Te  Te0  1  0.33634007  0.83634007  0.62310879  1
  Te  Te1  1  0.17910155  0.67910155  0.85376387  1
  Te  Te2  1  0.83634007  0.33634007  0.37689121  1
  Te  Te3  1  0.33634007  0.16365993  0.37689121  1
  Te  Te4  1  0.67910155  0.82089845  0.85376387  1
  Te  Te5  1  0.67910155  0.17910155  0.14623613  1
  Te  Te6  1  0.82089845  0.67910155  0.14623613  1
  Te  Te7  1  0.32089845  0.82089845  0.14623613  1
  Te  Te8  1  0.83634007  0.66365993  0.62310879  1
  Te  Te9  1  0.82089845  0.32089845  0.85376387  1
  Te  Te10  1  0.66365993  0.83634007  0.37689121  1
  Te  Te11  1  0.66365993  0.16365993  0.62310879  1
  Te  Te12  1  0.16365993  0.66365993  0.37689121  1
  Te  Te13  1  0.17910155  0.32089845  0.14623613  1
  Te  Te14  1  0.16365993  0.33634007  0.62310879  1
  Te  Te15  1  0.32089845  0.17910155  0.85376387  1
loop_
_geom_bond_atom_site_label_1
_geom_bond_atom_site_label_2
_geom_bond_distance
_geom_bond_site_symmetry_2
Rb0 Te8 3.699452 1_445
Rb0 Te11 3.699452 1_455
Rb0 Te0 3.699452 1_545
Rb0 Te14 3.699452 1_555
Rb0 Te15 3.854661 1_555
Rb0 Te9 3.854661 1_455
Rb0 Te1 3.854661 1_545
Rb0 Te4 3.854661 1_445
Rb1 Te14 3.699452 1_555
Rb1 Te0 3.699452 1_555
Rb1 Te11 3.699452 1_555
Rb1 Te8 3.699452 1_555
Rb1 Te4 3.854661 1_555
Rb1 Te9 3.854661 1_555
Rb1 Te1 3.854661 1_555
Rb1 Te15 3.854661 1_555
Rb2 Te2 3.699452 1_555
Rb2 Te3 3.699452 1_555
Rb2 Te10 3.699452 1_555
Rb2 Te12 3.699452 1_555
Rb2 Te6 3.854661 1_555
Rb2 Te7 3.854661 1_555
Rb2 Te5 3.854661 1_555
Rb2 Te13 3.854661 1_555
Rb3 Te10 3.699452 1_445
Rb3 Te12 3.699452 1_545
Rb3 Te2 3.699452 1_455
Rb3 Te3 3.699452 1_555
Rb3 Te13 3.854661 1_555
Rb3 Te7 3.854661 1_545
Rb3 Te5 3.854661 1_455
Rb3 Te6 3.854661 1_445
Rb4 Te4 3.972420 1_554
Rb4 Te9 3.972420 1_554
Rb4 Te1 3.972420 1_554
Rb4 Te15 3.972420 1_554
Rb4 Te6 3.972420 1_555
Rb4 Te7 3.972420 1_555
Rb4 Te5 3.972420 1_555
Rb4 Te13 3.972420 1_555
Rb5 Te15 3.972420 1_554
Rb5 Te9 3.972420 1_454
Rb5 Te1 3.972420 1_544
Rb5 Te4 3.972420 1_444
Rb5 Te13 3.972420 1_555
Rb5 Te7 3.972420 1_545
Rb5 Te5 3.972420 1_455
Rb5 Te6 3.972420 1_445
Na0 Te1 3.153053 1_554
Na0 Te9 3.153053 1_454
Na0 Te6 3.153053 1_455
Na0 Te13 3.153053 1_555
Na1 Te4 3.153053 1_544
Na1 Te15 3.153053 1_554
Na1 Te5 3.153053 1_555
Na1 Te7 3.153053 1_545
Sn0 Te4 2.733070 1_545
Sn0 Te15 2.733070 1_555
Sn0 Te0 2.849485 1_545
Sn0 Te11 2.849485 1_555
Sn1 Te5 2.733070 1_555
Sn1 Te7 2.733070 1_545
Sn1 Te3 2.849485 1_555
Sn1 Te10 2.849485 1_545
Sn2 Te1 2.733070 1_555
Sn2 Te9 2.733070 1_455
Sn2 Te14 2.849485 1_555
Sn2 Te8 2.849485 1_455
Sn3 Te6 2.733070 1_455
Sn3 Te13 2.733070 1_555
Sn3 Te2 2.849485 1_455
Sn3 Te12 2.849485 1_555
Sn4 Te0 2.777230 1_545
Sn4 Te11 2.777230 1_555
Sn4 Te10 2.777230 1_545
Sn4 Te3 2.777230 1_555
Sn5 Te14 2.777230 1_555
Sn5 Te8 2.777230 1_455
Sn5 Te2 2.777230 1_455
Sn5 Te12 2.777230 1_555
