# generated using pymatgen
data_Ca5Ge2SbH
_symmetry_space_group_name_H-M   'P 1'
_cell_length_a   9.14634554
_cell_length_b   9.14634531
_cell_length_c   9.14634563
_cell_angle_alpha   129.27069816
_cell_angle_beta   129.27069658
_cell_angle_gamma   74.57539664
_symmetry_Int_Tables_number   1
_chemical_formula_structural   Ca5Ge2SbH
_chemical_formula_sum   'Ca10 Ge4 Sb2 H2'
_cell_volume   446.84130234
_cell_formula_units_Z   2
loop_
 _symmetry_equiv_pos_site_id
 _symmetry_equiv_pos_as_xyz
  1  'x, y, z'
loop_
 _atom_site_type_symbol
 _atom_site_label
 _atom_site_symmetry_multiplicity
 _atom_site_fract_x
 _atom_site_fract_y
 _atom_site_fract_z
 _atom_site_occupancy
  Ca  Ca0  1  0.50000000  0.50000000  0.00000000  1
  Ca  Ca1  1  0.00000000  0.00000000  0.00000000  1
  Ca  Ca2  1  0.51991449  0.01991449  0.82410134  1
  Ca  Ca3  1  0.19581415  0.69581415  0.17589866  1
  Ca  Ca4  1  0.01991449  0.19581415  0.50000000  1
  Ca  Ca5  1  0.69581415  0.51991449  0.50000000  1
  Ca  Ca6  1  0.48008551  0.98008551  0.17589866  1
  Ca  Ca7  1  0.80418585  0.30418585  0.82410134  1
  Ca  Ca8  1  0.98008551  0.80418585  0.50000000  1
  Ca  Ca9  1  0.30418585  0.48008551  0.50000000  1
  Ge  Ge0  1  0.87866362  0.37866362  0.25732723  1
  Ge  Ge1  1  0.12133638  0.62133638  0.74267277  1
  Ge  Ge2  1  0.37866362  0.12133638  0.50000000  1
  Ge  Ge3  1  0.62133638  0.87866362  0.50000000  1
  Sb  Sb0  1  0.25000000  0.25000000  0.00000000  1
  Sb  Sb1  1  0.75000000  0.75000000  0.00000000  1
  H  H0  1  0.25000000  0.75000000  0.50000000  1
  H  H1  1  0.75000000  0.25000000  0.50000000  1
loop_
_geom_bond_atom_site_label_1
_geom_bond_atom_site_label_2
_geom_bond_distance
_geom_bond_site_symmetry_2
Ca0 Ge0 3.115891 1_555
Ca0 Ge1 3.115891 1_554
Ca0 Ge3 3.115891 1_555
Ca0 Ge2 3.115891 1_554
Ca0 Sb1 3.638433 1_555
Ca0 Sb0 3.638433 1_555
Ca1 Ge0 3.115891 1_455
Ca1 Ge1 3.115891 1_544
Ca1 Ge2 3.115891 1_555
Ca1 Ge3 3.115891 1_444
Ca1 Sb1 3.638433 1_445
Ca1 Sb0 3.638433 1_555
Ca2 H0 2.385250 1_545
Ca2 Ge3 3.051611 1_545
Ca2 Ge2 3.051611 1_555
Ca2 Ge0 3.168850 1_556
Ca2 Sb1 3.330167 1_546
Ca2 Sb0 3.330167 1_556
Ca3 H0 2.385260 1_555
Ca3 Ge2 3.051601 1_565
Ca3 Ge3 3.051601 1_555
Ca3 Ge1 3.168841 1_554
Ca3 Sb0 3.330174 1_555
Ca3 Sb1 3.330174 1_455
Ca4 H1 2.385251 1_455
Ca4 Ge1 3.051603 1_555
Ca4 Ge0 3.051603 1_455
Ca4 Ge2 3.168850 1_555
Ca4 Sb1 3.330172 1_445
Ca4 Sb0 3.330172 1_556
Ca5 H1 2.385251 1_555
Ca5 Ge0 3.051603 1_555
Ca5 Ge1 3.051603 1_655
Ca5 Ge3 3.168850 1_555
Ca5 Sb1 3.330172 1_556
Ca5 Sb0 3.330172 1_555
Ca6 H1 2.385250 1_565
Ca6 Ge2 3.051611 1_565
Ca6 Ge3 3.051611 1_555
Ca6 Ge1 3.168850 1_554
Ca6 Sb0 3.330167 1_565
Ca6 Sb1 3.330167 1_555
Ca7 H1 2.385260 1_555
Ca7 Ge3 3.051601 1_545
Ca7 Ge2 3.051601 1_555
Ca7 Ge0 3.168841 1_556
Ca7 Sb1 3.330174 1_556
Ca7 Sb0 3.330174 1_656
Ca8 H0 2.385251 1_655
Ca8 Ge0 3.051603 1_555
Ca8 Ge1 3.051603 1_655
Ca8 Ge3 3.168850 1_555
Ca8 Sb0 3.330172 1_666
Ca8 Sb1 3.330172 1_555
Ca9 H0 2.385251 1_555
Ca9 Ge1 3.051603 1_555
Ca9 Ge0 3.051603 1_455
Ca9 Ge2 3.168850 1_555
Ca9 Sb0 3.330172 1_555
Ca9 Sb1 3.330172 1_556
Ge0 Ge1 2.689308 1_655
Ge2 Ge3 2.689308 1_545
