# generated using pymatgen
data_Mn(ReO4)2
_symmetry_space_group_name_H-M   'P 1'
_cell_length_a   5.96165603
_cell_length_b   14.44223145
_cell_length_c   10.32430506
_cell_angle_alpha   69.05367824
_cell_angle_beta   90.01090299
_cell_angle_gamma   78.09087419
_symmetry_Int_Tables_number   1
_chemical_formula_structural   Mn(ReO4)2
_chemical_formula_sum   'Mn4 Re8 O32'
_cell_volume   809.64151407
_cell_formula_units_Z   4
loop_
 _symmetry_equiv_pos_site_id
 _symmetry_equiv_pos_as_xyz
  1  'x, y, z'
loop_
 _atom_site_type_symbol
 _atom_site_label
 _atom_site_symmetry_multiplicity
 _atom_site_fract_x
 _atom_site_fract_y
 _atom_site_fract_z
 _atom_site_occupancy
  Mn  Mn0  1  0.50000200  0.00000100  0.49999900  1
  Mn  Mn1  1  0.25000100  0.49999900  0.25000200  1
  Mn  Mn2  1  0.74999700  0.50000000  0.74999800  1
  Mn  Mn3  1  0.00000000  0.00000000  0.00000000  1
  Re  Re0  1  0.68114500  0.63764400  0.34787600  1
  Re  Re1  1  0.43115900  0.13763000  0.09784700  1
  Re  Re2  1  0.18115700  0.63763100  0.84785300  1
  Re  Re3  1  0.93115500  0.13764300  0.59788400  1
  Re  Re4  1  0.06885100  0.86236200  0.40211900  1
  Re  Re5  1  0.81884800  0.36236200  0.15211600  1
  Re  Re6  1  0.56884900  0.86236100  0.90215000  1
  Re  Re7  1  0.31884400  0.36236000  0.65215600  1
  O  O0  1  0.13472400  0.73057000  0.46802700  1
  O  O1  1  0.88472300  0.23057100  0.21801900  1
  O  O2  1  0.63472200  0.73057400  0.96803000  1
  O  O3  1  0.38472100  0.23057200  0.71803600  1
  O  O4  1  0.61527500  0.76943300  0.28197200  1
  O  O5  1  0.36528000  0.26942700  0.03196500  1
  O  O6  1  0.11528100  0.76942700  0.78197100  1
  O  O7  1  0.86527900  0.26943000  0.53198200  1
  O  O8  1  0.28643300  0.90644000  0.46226400  1
  O  O9  1  0.03642800  0.40644100  0.21226200  1
  O  O10  1  0.78644600  0.90644900  0.96227700  1
  O  O11  1  0.53644100  0.40644700  0.71228000  1
  O  O12  1  0.69982900  0.59353200  0.53084100  1
  O  O13  1  0.44982900  0.09354100  0.28079200  1
  O  O14  1  0.19982800  0.59353900  0.03080300  1
  O  O15  1  0.94983300  0.09353000  0.78085100  1
  O  O16  1  0.94620500  0.59356200  0.29120000  1
  O  O17  1  0.69624100  0.09355300  0.04118000  1
  O  O18  1  0.44623800  0.59355000  0.79118500  1
  O  O19  1  0.19621400  0.09355900  0.54120000  1
  O  O20  1  0.80379500  0.90643900  0.45880000  1
  O  O21  1  0.55379200  0.40644100  0.20879900  1
  O  O22  1  0.30376700  0.90644900  0.95881400  1
  O  O23  1  0.05376200  0.40644800  0.70881900  1
  O  O24  1  0.05017200  0.90647000  0.21915600  1
  O  O25  1  0.80017100  0.40646900  0.96915300  1
  O  O26  1  0.55017500  0.90646200  0.71919700  1
  O  O27  1  0.30017400  0.40646100  0.46920600  1
  O  O28  1  0.46356200  0.59356000  0.28773500  1
  O  O29  1  0.21355200  0.09355300  0.03771900  1
  O  O30  1  0.96355400  0.59355100  0.78772200  1
  O  O31  1  0.71357800  0.09356000  0.53774000  1
loop_
_geom_bond_atom_site_label_1
_geom_bond_atom_site_label_2
_geom_bond_distance
_geom_bond_site_symmetry_2
Mn0 O26 2.164028 1_545
Mn0 O13 2.164108 1_555
Mn0 O8 2.164474 1_545
Mn0 O31 2.164506 1_555
Mn0 O19 2.165161 1_555
Mn0 O20 2.165203 1_545
Mn1 O14 2.164040 1_555
Mn1 O27 2.164076 1_555
Mn1 O28 2.164432 1_555
Mn1 O9 2.164477 1_555
Mn1 O21 2.165182 1_555
Mn1 O16 2.165219 1_455
Mn2 O25 2.163637 1_555
Mn2 O12 2.163657 1_555
Mn2 O11 2.164254 1_555
Mn2 O30 2.164260 1_555
Mn2 O18 2.164917 1_555
Mn2 O23 2.164923 1_655
Mn3 O15 2.163583 1_454
Mn3 O24 2.163642 1_545
Mn3 O29 2.164242 1_555
Mn3 O10 2.164243 1_444
Mn3 O17 2.164910 1_455
Mn3 O22 2.164954 1_544
O0 Re4 1.733621 1_555
O1 Re5 1.733608 1_555
O2 Re6 1.733555 1_555
O3 Re7 1.733568 1_555
O4 Re0 1.733581 1_555
O5 Re1 1.733687 1_555
O6 Re2 1.733673 1_555
O7 Re3 1.733555 1_555
O8 Re4 1.759700 1_555
O9 Re5 1.759704 1_455
O10 Re6 1.759775 1_555
O11 Re7 1.759751 1_555
O12 Re0 1.759756 1_555
O13 Re1 1.759574 1_555
O14 Re2 1.759621 1_554
O15 Re3 1.759775 1_555
O16 Re0 1.759608 1_555
O17 Re1 1.759652 1_555
O18 Re2 1.759669 1_555
O19 Re3 1.759650 1_455
O20 Re4 1.759591 1_655
O21 Re5 1.759609 1_555
O22 Re6 1.759685 1_555
O23 Re7 1.759680 1_555
O24 Re4 1.759739 1_555
O25 Re5 1.759739 1_556
O26 Re6 1.759645 1_555
O27 Re7 1.759616 1_555
O28 Re0 1.759740 1_555
O29 Re1 1.759727 1_555
O30 Re2 1.759750 1_655
O31 Re3 1.759717 1_555
