# generated using pymatgen
data_Cs3K2CuAs2
_symmetry_space_group_name_H-M   'P 1'
_cell_length_a   5.95414545
_cell_length_b   5.95414415
_cell_length_c   20.10527668
_cell_angle_alpha   90.00000000
_cell_angle_beta   90.00000000
_cell_angle_gamma   119.99999663
_symmetry_Int_Tables_number   1
_chemical_formula_structural   Cs3K2CuAs2
_chemical_formula_sum   'Cs6 K4 Cu2 As4'
_cell_volume   617.27613174
_cell_formula_units_Z   2
loop_
 _symmetry_equiv_pos_site_id
 _symmetry_equiv_pos_as_xyz
  1  'x, y, z'
loop_
 _atom_site_type_symbol
 _atom_site_label
 _atom_site_symmetry_multiplicity
 _atom_site_fract_x
 _atom_site_fract_y
 _atom_site_fract_z
 _atom_site_occupancy
  Cs  Cs0  1  0.33333300  0.66666700  0.54998484  1
  Cs  Cs1  1  0.66666700  0.33333300  0.04998484  1
  Cs  Cs2  1  0.66666700  0.33333300  0.45001516  1
  Cs  Cs3  1  0.33333300  0.66666700  0.95001516  1
  Cs  Cs4  1  0.33333300  0.66666700  0.75000000  1
  Cs  Cs5  1  0.66666700  0.33333300  0.25000000  1
  K  K0  1  0.00000000  0.00000000  0.15156454  1
  K  K1  1  0.00000000  0.00000000  0.65156454  1
  K  K2  1  0.00000000  0.00000000  0.84843546  1
  K  K3  1  0.00000000  0.00000000  0.34843546  1
  Cu  Cu0  1  0.33333300  0.66666700  0.25000000  1
  Cu  Cu1  1  0.66666700  0.33333300  0.75000000  1
  As  As0  1  0.33333300  0.66666700  0.36560315  1
  As  As1  1  0.66666700  0.33333300  0.86560315  1
  As  As2  1  0.66666700  0.33333300  0.63439685  1
  As  As3  1  0.33333300  0.66666700  0.13439685  1
loop_
_geom_bond_atom_site_label_1
_geom_bond_atom_site_label_2
_geom_bond_distance
_geom_bond_site_symmetry_2
Cs4 Cu1 3.437623 1_565
Cs4 Cu1 3.437624 1_455
Cs4 Cu1 3.437634 1_555
Cs5 Cu0 3.437623 1_545
Cs5 Cu0 3.437624 1_655
Cs5 Cu0 3.437634 1_555
As0 Cu0 2.324233 1_555
As0 K3 3.454908 1_565
As0 K3 3.454913 1_555
As0 K3 3.454914 1_665
As0 Cs0 3.707045 1_555
As0 Cs2 3.833731 1_565
As0 Cs2 3.833732 1_455
As0 Cs2 3.833741 1_555
As1 Cu1 2.324233 1_555
As1 K2 3.454908 1_655
As1 K2 3.454913 1_665
As1 K2 3.454914 1_555
As1 Cs1 3.707045 1_556
As1 Cs3 3.833731 1_545
As1 Cs3 3.833732 1_655
As1 Cs3 3.833741 1_555
As2 Cu1 2.324233 1_555
As2 K1 3.454908 1_655
As2 K1 3.454913 1_665
As2 K1 3.454914 1_555
As2 Cs2 3.707045 1_555
As2 Cs0 3.833731 1_545
As2 Cs0 3.833732 1_655
As2 Cs0 3.833741 1_555
As3 Cu0 2.324233 1_555
As3 K0 3.454908 1_565
As3 K0 3.454913 1_555
As3 K0 3.454914 1_665
As3 Cs3 3.707045 1_554
As3 Cs1 3.833731 1_565
As3 Cs1 3.833732 1_455
As3 Cs1 3.833741 1_555
