# generated using pymatgen
data_Y8Cd4In3Ru
_symmetry_space_group_name_H-M   'P 1'
_cell_length_a   7.45196918
_cell_length_b   7.30589702
_cell_length_c   7.45179676
_cell_angle_alpha   90.00000000
_cell_angle_beta   90.00086745
_cell_angle_gamma   90.00000000
_symmetry_Int_Tables_number   1
_chemical_formula_structural   Y8Cd4In3Ru
_chemical_formula_sum   'Y8 Cd4 In3 Ru1'
_cell_volume   405.70055103
_cell_formula_units_Z   1
loop_
 _symmetry_equiv_pos_site_id
 _symmetry_equiv_pos_as_xyz
  1  'x, y, z'
loop_
 _atom_site_type_symbol
 _atom_site_label
 _atom_site_symmetry_multiplicity
 _atom_site_fract_x
 _atom_site_fract_y
 _atom_site_fract_z
 _atom_site_occupancy
  Y  Y0  1  0.26077760  0.01038806  0.23922189  1
  Y  Y1  1  0.26077760  0.48960894  0.23922189  1
  Y  Y2  1  0.73926369  0.01036694  0.23926400  1
  Y  Y3  1  0.73926369  0.48963706  0.23926400  1
  Y  Y4  1  0.26073334  0.01036507  0.76073523  1
  Y  Y5  1  0.26073334  0.48963193  0.76073523  1
  Y  Y6  1  0.73921825  0.01038732  0.76077589  1
  Y  Y7  1  0.73921825  0.48961668  0.76077589  1
  Cd  Cd0  1  0.00001173  0.25000100  0.00001441  1
  Cd  Cd1  1  0.00001726  0.75000000  0.00001115  1
  Cd  Cd2  1  0.50000431  0.75000000  0.49997178  1
  Cd  Cd3  1  0.49999101  0.25000100  0.49997959  1
  In  In0  1  0.50000023  0.75000000  0.99998766  1
  In  In1  1  0.99998788  0.25000100  0.50002850  1
  In  In2  1  0.00000067  0.75000000  0.50003469  1
  Ru  Ru0  1  0.50000116  0.25000100  0.99998220  1
loop_
_geom_bond_atom_site_label_1
_geom_bond_atom_site_label_2
_geom_bond_distance
_geom_bond_site_symmetry_2
Cd0 Y1 3.165094 1_555
Cd0 Y0 3.165115 1_555
Cd0 Y5 3.165319 1_554
Cd0 Y2 3.165328 1_455
Cd0 Y3 3.165336 1_455
Cd0 Y4 3.165339 1_554
Cd0 Y6 3.165374 1_454
Cd0 Y7 3.165382 1_454
Cd1 Y0 3.251511 1_565
Cd1 Y4 3.251514 1_564
Cd1 Y1 3.251524 1_555
Cd1 Y5 3.251527 1_554
Cd1 Y3 3.251578 1_455
Cd1 Y2 3.251595 1_465
Cd1 Y7 3.251763 1_454
Cd1 Y6 3.251780 1_464
Cd2 Y3 3.251397 1_555
Cd2 Y2 3.251414 1_565
Cd2 Y0 3.251526 1_565
Cd2 Y1 3.251538 1_555
Cd2 Y7 3.251695 1_555
Cd2 Y4 3.251701 1_565
Cd2 Y6 3.251712 1_565
Cd2 Y5 3.251714 1_555
Cd3 Y1 3.165077 1_555
Cd3 Y0 3.165098 1_555
Cd3 Y2 3.165272 1_555
Cd3 Y3 3.165280 1_555
Cd3 Y6 3.165335 1_555
Cd3 Y7 3.165343 1_555
Cd3 Y5 3.165380 1_555
Cd3 Y4 3.165400 1_555
In0 Y7 3.158212 1_555
In0 Y6 3.158230 1_565
In0 Y0 3.158347 1_566
In0 Y1 3.158360 1_556
In0 Y4 3.158478 1_565
In0 Y5 3.158491 1_555
In0 Y3 3.158555 1_556
In0 Y2 3.158573 1_566
In1 Y5 3.258010 1_655
In1 Y4 3.258029 1_655
In1 Y2 3.258184 1_555
In1 Y3 3.258192 1_555
In1 Y6 3.258265 1_555
In1 Y7 3.258273 1_555
In1 Y1 3.258595 1_655
In1 Y0 3.258615 1_655
In2 Y4 3.341770 1_565
In2 Y5 3.341782 1_555
In2 Y3 3.342084 1_455
In2 Y2 3.342100 1_465
In2 Y7 3.342272 1_455
In2 Y6 3.342288 1_465
In2 Y0 3.342578 1_565
In2 Y1 3.342590 1_555
Ru0 Y6 3.069175 1_555
Ru0 Y7 3.069184 1_555
Ru0 Y1 3.069324 1_556
Ru0 Y0 3.069345 1_556
Ru0 Y5 3.069611 1_555
Ru0 Y4 3.069632 1_555
Ru0 Y2 3.069752 1_556
Ru0 Y3 3.069761 1_556
