# generated using pymatgen
data_Li2Fe(PO3)4
_symmetry_space_group_name_H-M   'P 1'
_cell_length_a   8.51873529
_cell_length_b   8.51873529
_cell_length_c   7.47816280
_cell_angle_alpha   85.72954205
_cell_angle_beta   85.72954205
_cell_angle_gamma   114.34111224
_symmetry_Int_Tables_number   1
_chemical_formula_structural   Li2Fe(PO3)4
_chemical_formula_sum   'Li4 Fe2 P8 O24'
_cell_volume   489.75525733
_cell_formula_units_Z   2
loop_
 _symmetry_equiv_pos_site_id
 _symmetry_equiv_pos_as_xyz
  1  'x, y, z'
loop_
 _atom_site_type_symbol
 _atom_site_label
 _atom_site_symmetry_multiplicity
 _atom_site_fract_x
 _atom_site_fract_y
 _atom_site_fract_z
 _atom_site_occupancy
  Li  Li0  1  0.48590000  0.18547700  0.71016600  1
  Li  Li1  1  0.51410000  0.81452300  0.28983400  1
  Li  Li2  1  0.81452300  0.51410000  0.78983400  1
  Li  Li3  1  0.18547700  0.48590000  0.21016600  1
  Fe  Fe0  1  0.86512600  0.13487400  0.25000000  1
  Fe  Fe1  1  0.13487400  0.86512600  0.75000000  1
  P  P0  1  0.44292700  0.76888600  0.88090500  1
  P  P1  1  0.78957900  0.93475900  0.66831500  1
  P  P2  1  0.06524100  0.21042100  0.83168500  1
  P  P3  1  0.76888600  0.44292700  0.38090500  1
  P  P4  1  0.23111400  0.55707300  0.61909500  1
  P  P5  1  0.93475900  0.78957900  0.16831500  1
  P  P6  1  0.55707300  0.23111400  0.11909500  1
  P  P7  1  0.21042100  0.06524100  0.33168500  1
  O  O0  1  0.61289700  0.09026700  0.18059200  1
  O  O1  1  0.16790300  0.35321000  0.66115600  1
  O  O2  1  0.29321300  0.03517700  0.49400600  1
  O  O3  1  0.70678700  0.96482300  0.50599400  1
  O  O4  1  0.38166900  0.61833100  0.75000000  1
  O  O5  1  0.96482300  0.70678700  0.00599400  1
  O  O6  1  0.35321000  0.16790300  0.16115600  1
  O  O7  1  0.90973300  0.38710300  0.31940800  1
  O  O8  1  0.03517700  0.29321300  0.99400600  1
  O  O9  1  0.09552500  0.15949500  0.34718500  1
  O  O10  1  0.09026700  0.61289700  0.68059200  1
  O  O11  1  0.61833100  0.38166900  0.25000000  1
  O  O12  1  0.68813400  0.39419700  0.57359900  1
  O  O13  1  0.60580300  0.31186600  0.92640100  1
  O  O14  1  0.83209700  0.64679000  0.33884400  1
  O  O15  1  0.90447500  0.84050500  0.65281500  1
  O  O16  1  0.31186600  0.60580300  0.42640100  1
  O  O17  1  0.38710300  0.90973300  0.81940800  1
  O  O18  1  0.11633700  0.88366300  0.25000000  1
  O  O19  1  0.84050500  0.90447500  0.15281500  1
  O  O20  1  0.88366300  0.11633700  0.75000000  1
  O  O21  1  0.15949500  0.09552500  0.84718500  1
  O  O22  1  0.64679000  0.83209700  0.83884400  1
  O  O23  1  0.39419700  0.68813400  0.07359900  1
loop_
_geom_bond_atom_site_label_1
_geom_bond_atom_site_label_2
_geom_bond_distance
_geom_bond_site_symmetry_2
Li0 O12 2.028502 1_555
Li0 O13 2.101444 1_555
Li0 O17 2.208073 1_545
Li0 O2 2.432618 1_555
Li1 O16 2.028502 1_555
Li1 O23 2.101444 1_555
Li1 O0 2.208073 1_565
Li1 O3 2.432618 1_555
Li2 O13 2.028502 1_555
Li2 O12 2.101444 1_555
Li2 O10 2.208073 1_655
Li2 O5 2.432618 1_556
Li3 O23 2.028502 1_555
Li3 O16 2.101444 1_555
Li3 O7 2.208073 1_455
Li3 O8 2.432618 1_554
Fe0 O19 2.078508 1_545
Fe0 O9 2.078508 1_655
Fe0 O0 2.133777 1_555
Fe0 O7 2.133777 1_555
Fe0 O3 2.274727 1_545
Fe0 O8 2.274727 1_654
Fe1 O15 2.078508 1_455
Fe1 O21 2.078508 1_565
Fe1 O10 2.133777 1_555
Fe1 O17 2.133777 1_555
Fe1 O5 2.274727 1_456
Fe1 O2 2.274727 1_565
O0 P6 1.515915 1_555
O1 P4 1.589783 1_555
O1 P2 1.611409 1_555
O2 P7 1.505516 1_555
O3 P1 1.505516 1_555
O4 P4 1.608376 1_555
O4 P0 1.608376 1_555
O5 P5 1.505516 1_555
O6 P6 1.589783 1_555
O6 P7 1.611409 1_555
O7 P3 1.515915 1_555
O8 P2 1.505516 1_555
O9 P7 1.503630 1_555
O10 P4 1.515915 1_555
O11 P6 1.608376 1_555
O11 P3 1.608376 1_555
O12 P3 1.499965 1_555
O13 P6 1.499965 1_556
O14 P3 1.589783 1_555
O14 P5 1.611409 1_555
O15 P1 1.503630 1_555
O16 P4 1.499965 1_555
O17 P0 1.515915 1_555
O18 P7 1.612395 1_565
O18 P5 1.612395 1_455
O19 P5 1.503630 1_555
O20 P2 1.612395 1_655
O20 P1 1.612395 1_545
O21 P2 1.503630 1_555
O22 P0 1.589783 1_555
O22 P1 1.611409 1_555
O23 P0 1.499965 1_554
