# generated using pymatgen
data_Rb2Hf3(CuS4)2
_symmetry_space_group_name_H-M   'P 1'
_cell_length_a   3.70363533
_cell_length_b   7.68351486
_cell_length_c   12.84996876
_cell_angle_alpha   93.32114259
_cell_angle_beta   98.28577814
_cell_angle_gamma   103.94626299
_symmetry_Int_Tables_number   1
_chemical_formula_structural   Rb2Hf3(CuS4)2
_chemical_formula_sum   'Rb2 Hf3 Cu2 S8'
_cell_volume   349.54854340
_cell_formula_units_Z   1
loop_
 _symmetry_equiv_pos_site_id
 _symmetry_equiv_pos_as_xyz
  1  'x, y, z'
loop_
 _atom_site_type_symbol
 _atom_site_label
 _atom_site_symmetry_multiplicity
 _atom_site_fract_x
 _atom_site_fract_y
 _atom_site_fract_z
 _atom_site_occupancy
  Rb  Rb0  1  0.86970326  0.54063570  0.19876882  1
  Rb  Rb1  1  0.13029674  0.45936430  0.80123018  1
  Hf  Hf0  1  0.50000000  0.00000000  0.00000000  1
  Hf  Hf1  1  0.72090884  0.06194947  0.37986821  1
  Hf  Hf2  1  0.27909016  0.93805053  0.62013079  1
  Cu  Cu0  1  0.14745563  0.09975264  0.19515961  1
  Cu  Cu1  1  0.85254337  0.90024836  0.80483939  1
  S  S0  1  0.13773843  0.23398457  0.04149029  1
  S  S1  1  0.55059110  0.91057699  0.19060521  1
  S  S2  1  0.31586509  0.28266751  0.34906267  1
  S  S3  1  0.13097058  0.83911806  0.42282510  1
  S  S4  1  0.86902942  0.16088294  0.57717390  1
  S  S5  1  0.68413591  0.71733349  0.65093833  1
  S  S6  1  0.44940890  0.08942301  0.80939479  1
  S  S7  1  0.86226057  0.76601443  0.95850871  1
loop_
_geom_bond_atom_site_label_1
_geom_bond_atom_site_label_2
_geom_bond_distance
_geom_bond_site_symmetry_2
Rb0 S1 3.332485 1_655
Rb0 S1 3.332489 1_555
Rb0 S2 3.389915 1_655
Rb0 S2 3.389919 1_555
Rb0 S0 3.431537 1_655
Rb0 S0 3.431537 1_555
Rb0 S3 3.442031 1_655
Rb0 S7 3.626171 1_554
Rb1 S6 3.332488 1_455
Rb1 S6 3.332490 1_555
Rb1 S5 3.389905 1_455
Rb1 S5 3.389907 1_555
Rb1 S7 3.431531 1_555
Rb1 S7 3.431533 1_455
Rb1 S4 3.442027 1_455
Rb1 S0 3.626175 1_556
Hf0 S0 2.564048 1_555
Hf0 S0 2.564054 1_655
Hf0 S7 2.564055 1_544
Hf0 S7 2.564061 1_444
Hf0 S1 2.575051 1_545
Hf0 S6 2.575051 1_554
Hf1 S2 2.532996 1_555
Hf1 S2 2.532996 1_655
Hf1 S4 2.545919 1_555
Hf1 S1 2.557702 1_545
Hf1 S3 2.581443 1_645
Hf1 S3 2.581448 1_545
Hf2 S5 2.532996 1_455
Hf2 S5 2.532998 1_555
Hf2 S3 2.545918 1_555
Hf2 S6 2.557713 1_565
Hf2 S4 2.581446 1_465
Hf2 S4 2.581454 1_565
Cu0 S2 2.274919 1_555
Cu0 S0 2.279831 1_555
Cu0 S1 2.325263 1_445
Cu0 S1 2.325266 1_545
Cu1 S5 2.274898 1_555
Cu1 S7 2.279839 1_555
Cu1 S6 2.325258 1_565
Cu1 S6 2.325261 1_665
