# generated using pymatgen
data_Li4LuIn3O8
_symmetry_space_group_name_H-M   'P 1'
_cell_length_a   3.22403282
_cell_length_b   5.18492307
_cell_length_c   10.66840500
_cell_angle_alpha   90.33060507
_cell_angle_beta   90.00000000
_cell_angle_gamma   90.00000000
_symmetry_Int_Tables_number   1
_chemical_formula_structural   Li4LuIn3O8
_chemical_formula_sum   'Li4 Lu1 In3 O8'
_cell_volume   178.33395263
_cell_formula_units_Z   1
loop_
 _symmetry_equiv_pos_site_id
 _symmetry_equiv_pos_as_xyz
  1  'x, y, z'
loop_
 _atom_site_type_symbol
 _atom_site_label
 _atom_site_symmetry_multiplicity
 _atom_site_fract_x
 _atom_site_fract_y
 _atom_site_fract_z
 _atom_site_occupancy
  Li  Li0  1  0.25000000  0.09946620  0.07460351  1
  Li  Li1  1  0.25000000  0.40463666  0.57214009  1
  Li  Li2  1  0.75000000  0.59615864  0.42295016  1
  Li  Li3  1  0.75000000  0.89619731  0.92985202  1
  Lu  Lu0  1  0.75000000  0.94635048  0.63937440  1
  In  In0  1  0.25000000  0.05370428  0.36110033  1
  In  In1  1  0.25000000  0.44535365  0.86194014  1
  In  In2  1  0.75000000  0.55217154  0.13877097  1
  O  O0  1  0.25000000  0.17559861  0.71247563  1
  O  O1  1  0.75000000  0.24189467  0.47595481  1
  O  O2  1  0.75000000  0.25569109  0.97645734  1
  O  O3  1  0.25000000  0.33000269  0.21462873  1
  O  O4  1  0.75000000  0.67303691  0.78736177  1
  O  O5  1  0.25000000  0.74024774  0.02437511  1
  O  O6  1  0.25000000  0.75850394  0.52341067  1
  O  O7  1  0.75000000  0.83098458  0.28460631  1
loop_
_geom_bond_atom_site_label_1
_geom_bond_atom_site_label_2
_geom_bond_distance
_geom_bond_site_symmetry_2
Li0 O3 1.907811 1_555
Li0 O5 1.935098 1_545
Li0 O2 2.088264 1_554
Li0 O2 2.088264 1_454
Li1 O6 1.909886 1_555
Li1 O0 1.916313 1_555
Li1 O1 2.086524 1_455
Li1 O1 2.086524 1_555
Li2 O7 1.918719 1_555
Li2 O1 1.925019 1_555
Li2 O6 2.108407 1_655
Li2 O6 2.108407 1_555
Li3 O4 1.905085 1_555
Li3 O2 1.926348 1_565
Li3 O5 2.068504 1_656
Li3 O5 2.068504 1_556
Lu0 O4 2.127580 1_555
Lu0 O0 2.146847 1_565
Lu0 O0 2.146847 1_665
Lu0 O6 2.250299 1_555
Lu0 O6 2.250299 1_655
Lu0 O1 2.327775 1_565
In0 O3 2.126009 1_555
In0 O7 2.141779 1_545
In0 O7 2.141779 1_445
In0 O1 2.244613 1_455
In0 O1 2.244613 1_555
In0 O6 2.317694 1_545
In1 O0 2.114969 1_555
In1 O4 2.153159 1_455
In1 O4 2.153159 1_555
In1 O2 2.252132 1_555
In1 O2 2.252132 1_455
In1 O5 2.304407 1_556
In2 O7 2.117660 1_555
In2 O3 2.142716 1_555
In2 O3 2.142716 1_655
In2 O5 2.247821 1_655
In2 O5 2.247821 1_555
In2 O2 2.308871 1_554
