# generated using pymatgen
data_LiAl2VRh4
_symmetry_space_group_name_H-M   'P 1'
_cell_length_a   7.27311354
_cell_length_b   7.27311388
_cell_length_c   7.27311418
_cell_angle_alpha   131.91527363
_cell_angle_beta   131.91527313
_cell_angle_gamma   70.36287889
_symmetry_Int_Tables_number   1
_chemical_formula_structural   LiAl2VRh4
_chemical_formula_sum   'Li2 Al4 V2 Rh8'
_cell_volume   208.77911069
_cell_formula_units_Z   2
loop_
 _symmetry_equiv_pos_site_id
 _symmetry_equiv_pos_as_xyz
  1  'x, y, z'
loop_
 _atom_site_type_symbol
 _atom_site_label
 _atom_site_symmetry_multiplicity
 _atom_site_fract_x
 _atom_site_fract_y
 _atom_site_fract_z
 _atom_site_occupancy
  Li  Li0  1  0.25000000  0.25000000  0.00000000  1
  Li  Li1  1  0.49999900  0.00000000  0.49999900  1
  Al  Al0  1  0.50060496  0.50060496  0.00000000  1
  Al  Al1  1  0.99939504  0.99939504  1.00000000  1
  Al  Al2  1  0.75060496  0.25060496  0.49999900  1
  Al  Al3  1  0.24939504  0.74939504  0.49999900  1
  V  V0  1  0.75000000  0.75000000  0.00000000  1
  V  V1  1  0.00000000  0.49999900  0.49999900  1
  Rh  Rh0  1  0.87500000  0.37769939  0.00269939  1
  Rh  Rh1  1  0.62770039  0.12499900  0.00269939  1
  Rh  Rh2  1  0.12230061  0.12500000  0.49730161  1
  Rh  Rh3  1  0.87500000  0.87230061  0.49730161  1
  Rh  Rh4  1  0.37500100  0.37770139  0.50270139  1
  Rh  Rh5  1  0.62770039  0.62500000  0.50270139  1
  Rh  Rh6  1  0.37500000  0.87229961  0.99730061  1
  Rh  Rh7  1  0.12230061  0.62500000  0.99730061  1
loop_
_geom_bond_atom_site_label_1
_geom_bond_atom_site_label_2
_geom_bond_distance
_geom_bond_site_symmetry_2
Li0 Rh2 2.578055 1_554
Li0 Rh3 2.578061 1_444
Li0 Rh0 2.578061 1_455
Li0 Rh7 2.578061 1_554
Li0 Rh5 2.578065 1_555
Li0 Rh4 2.578065 1_555
Li0 Rh1 2.578068 1_555
Li0 Rh6 2.578068 1_544
Li1 Rh6 2.578055 1_544
Li1 Rh7 2.578058 1_544
Li1 Rh3 2.578061 1_545
Li1 Rh2 2.578061 1_555
Li1 Rh0 2.578065 1_556
Li1 Rh4 2.578065 1_555
Li1 Rh1 2.578065 1_556
Li1 Rh5 2.578072 1_545
Al0 Rh6 2.555432 1_554
Al0 Rh4 2.555436 1_554
Al0 Rh3 2.555439 1_555
Al0 Rh0 2.555439 1_555
Al0 Rh2 2.582214 1_554
Al0 Rh7 2.582214 1_554
Al0 Rh1 2.582221 1_555
Al0 Rh5 2.582225 1_555
Al1 Rh1 2.555432 1_566
Al1 Rh5 2.555435 1_555
Al1 Rh7 2.555439 1_655
Al1 Rh2 2.555446 1_666
Al1 Rh3 2.582207 1_555
Al1 Rh6 2.582214 1_655
Al1 Rh0 2.582214 1_566
Al1 Rh4 2.582224 1_666
Al2 Rh5 2.555429 1_555
Al2 Rh2 2.555432 1_655
Al2 Rh1 2.555432 1_555
Al2 Rh7 2.555439 1_655
Al2 Rh6 2.582217 1_544
Al2 Rh4 2.582218 1_555
Al2 Rh3 2.582221 1_545
Al2 Rh0 2.582221 1_556
Al3 Rh4 2.555436 1_555
Al3 Rh0 2.555439 1_455
Al3 Rh3 2.555446 1_455
Al3 Rh6 2.555450 1_555
Al3 Rh2 2.582207 1_565
Al3 Rh7 2.582207 1_554
Al3 Rh5 2.582211 1_555
Al3 Rh1 2.582214 1_566
Rh0 V1 2.559605 1_655
Rh0 V0 2.559608 1_555
Rh1 V0 2.559602 1_545
Rh1 V1 2.559605 1_655
Rh2 V0 2.559608 1_445
Rh2 V1 2.559608 1_555
Rh3 V1 2.559608 1_655
Rh3 V0 2.559615 1_555
Rh4 V0 2.559598 1_556
Rh4 V1 2.559605 1_555
Rh5 V0 2.559598 1_556
Rh5 V1 2.559612 1_655
Rh6 V1 2.559608 1_555
Rh6 V0 2.559608 1_556
Rh7 V0 2.559608 1_456
Rh7 V1 2.559612 1_555
