# generated using pymatgen
data_Ho4Ge9Ir13
_symmetry_space_group_name_H-M   'P 1'
_cell_length_a   3.97476200
_cell_length_b   11.21706003
_cell_length_c   19.35726096
_cell_angle_alpha   90.00000000
_cell_angle_beta   90.00000000
_cell_angle_gamma   90.00000000
_symmetry_Int_Tables_number   1
_chemical_formula_structural   Ho4Ge9Ir13
_chemical_formula_sum   'Ho8 Ge18 Ir26'
_cell_volume   863.04626655
_cell_formula_units_Z   2
loop_
 _symmetry_equiv_pos_site_id
 _symmetry_equiv_pos_as_xyz
  1  'x, y, z'
loop_
 _atom_site_type_symbol
 _atom_site_label
 _atom_site_symmetry_multiplicity
 _atom_site_fract_x
 _atom_site_fract_y
 _atom_site_fract_z
 _atom_site_occupancy
  Ho  Ho0  1  0.50000000  0.50000000  0.02329885  1
  Ho  Ho1  1  0.00000000  0.00000000  0.97670115  1
  Ho  Ho2  1  -0.00000000  0.19095086  0.79249067  1
  Ho  Ho3  1  0.50000000  0.30904914  0.20750933  1
  Ho  Ho4  1  0.50000000  0.69095086  0.20750933  1
  Ho  Ho5  1  0.00000000  0.80904914  0.79249067  1
  Ho  Ho6  1  -0.00000000  0.50000000  0.48126083  1
  Ho  Ho7  1  0.50000000  0.00000000  0.51873917  1
  Ge  Ge0  1  0.50000000  0.18657517  0.91896490  1
  Ge  Ge1  1  -0.00000000  0.00000000  0.39876876  1
  Ge  Ge2  1  0.50000000  0.50000000  0.60123124  1
  Ge  Ge3  1  0.50000000  0.00000000  0.10003974  1
  Ge  Ge4  1  -0.00000000  0.50000000  0.89996026  1
  Ge  Ge5  1  0.00000000  0.82013454  0.58493405  1
  Ge  Ge6  1  0.50000000  0.67986546  0.41506595  1
  Ge  Ge7  1  0.50000000  0.32013454  0.41506595  1
  Ge  Ge8  1  -0.00000000  0.31342483  0.08103510  1
  Ge  Ge9  1  -0.00000000  0.68657517  0.08103510  1
  Ge  Ge10  1  0.50000000  0.81342483  0.91896490  1
  Ge  Ge11  1  -0.00000000  0.50000000  0.26560465  1
  Ge  Ge12  1  -0.00000000  0.17986546  0.58493405  1
  Ge  Ge13  1  0.50000000  0.00000000  0.73439535  1
  Ge  Ge14  1  0.50000000  0.36983947  0.73110587  1
  Ge  Ge15  1  0.50000000  0.63016053  0.73110587  1
  Ge  Ge16  1  -0.00000000  0.86983947  0.26889413  1
  Ge  Ge17  1  -0.00000000  0.13016053  0.26889413  1
  Ir  Ir0  1  0.50000000  0.20032536  0.04633507  1
  Ir  Ir1  1  0.50000000  0.69001487  0.53960756  1
  Ir  Ir2  1  0.50000000  0.30998513  0.53960756  1
  Ir  Ir3  1  0.00000000  0.19001487  0.46039244  1
  Ir  Ir4  1  0.50000000  0.87280084  0.35463135  1
  Ir  Ir5  1  0.00000000  0.62719916  0.64536865  1
  Ir  Ir6  1  -0.00000000  0.37280084  0.64536865  1
  Ir  Ir7  1  0.50000000  0.12719916  0.35463135  1
  Ir  Ir8  1  0.00000000  0.29967464  0.95366493  1
  Ir  Ir9  1  -0.00000000  0.70032536  0.95366493  1
  Ir  Ir10  1  0.50000000  0.79967464  0.04633507  1
  Ir  Ir11  1  0.50000000  0.50000000  0.34237548  1
  Ir  Ir12  1  -0.00000000  0.00000000  0.65762452  1
  Ir  Ir13  1  0.00000000  0.50000000  0.14111730  1
  Ir  Ir14  1  0.50000000  0.00000000  0.85888270  1
  Ir  Ir15  1  0.00000000  0.50000000  0.77288963  1
  Ir  Ir16  1  0.50000000  0.00000000  0.22711037  1
  Ir  Ir17  1  0.50000000  0.18330130  0.66463867  1
  Ir  Ir18  1  0.00000000  0.31669870  0.33536133  1
  Ir  Ir19  1  0.00000000  0.68330130  0.33536133  1
  Ir  Ir20  1  0.50000000  0.81669870  0.66463867  1
  Ir  Ir21  1  0.00000000  0.12392772  0.14226782  1
  Ir  Ir22  1  0.50000000  0.37607228  0.85773218  1
  Ir  Ir23  1  0.50000000  0.62392772  0.85773218  1
  Ir  Ir24  1  -0.00000000  0.87607228  0.14226782  1
  Ir  Ir25  1  -0.00000000  0.80998513  0.46039244  1
loop_
_geom_bond_atom_site_label_1
_geom_bond_atom_site_label_2
_geom_bond_distance
_geom_bond_site_symmetry_2
Ho0 Ir13 3.025064 1_655
Ho0 Ir13 3.025064 1_555
Ho0 Ir8 3.288748 1_654
Ho0 Ir8 3.288748 1_554
Ho0 Ir9 3.288748 1_554
Ho0 Ir9 3.288748 1_654
Ho0 Ir10 3.390916 1_555
Ho0 Ir0 3.390916 1_555
Ho0 Ir23 3.493406 1_554
Ho0 Ir22 3.493406 1_554
Ho1 Ir14 3.025064 1_555
Ho1 Ir14 3.025064 1_455
Ho1 Ir10 3.288748 1_446
Ho1 Ir10 3.288748 1_546
Ho1 Ir0 3.288748 1_456
Ho1 Ir0 3.288748 1_556
Ho1 Ir8 3.390916 1_555
Ho1 Ir9 3.390916 1_545
Ho1 Ir21 3.493406 1_556
Ho1 Ir24 3.493406 1_546
Ho2 Ir22 3.139509 1_455
Ho2 Ir22 3.139509 1_555
Ho2 Ir17 3.175217 1_555
Ho2 Ir17 3.175217 1_455
Ho2 Ir14 3.192038 1_555
Ho2 Ir14 3.192038 1_455
Ho2 Ir8 3.349785 1_555
Ho2 Ir12 3.376863 1_555
Ho2 Ir15 3.487325 1_555
Ho2 Ir6 3.503040 1_555
Ho3 Ir21 3.139509 1_555
Ho3 Ir21 3.139509 1_655
Ho3 Ir18 3.175217 1_555
Ho3 Ir18 3.175217 1_655
Ho3 Ir13 3.192038 1_555
Ho3 Ir13 3.192038 1_655
Ho3 Ir0 3.349785 1_555
Ho3 Ir11 3.376863 1_555
Ho3 Ir16 3.487325 1_555
Ho3 Ir7 3.503040 1_555
Ho4 Ir24 3.139509 1_555
Ho4 Ir24 3.139509 1_655
Ho4 Ir19 3.175217 1_655
Ho4 Ir19 3.175217 1_555
Ho4 Ir13 3.192038 1_655
Ho4 Ir13 3.192038 1_555
Ho4 Ir10 3.349785 1_555
Ho4 Ir11 3.376863 1_555
Ho4 Ir16 3.487325 1_565
Ho4 Ir4 3.503040 1_555
Ho5 Ir23 3.139509 1_455
Ho5 Ir23 3.139509 1_555
Ho5 Ir20 3.175217 1_455
Ho5 Ir20 3.175217 1_555
Ho5 Ir14 3.192038 1_565
Ho5 Ir14 3.192038 1_465
Ho5 Ir9 3.349785 1_555
Ho5 Ir12 3.376863 1_565
Ho5 Ir15 3.487325 1_555
Ho5 Ir5 3.503040 1_555
Ho6 Ir1 3.125412 1_455
Ho6 Ir1 3.125412 1_555
Ho6 Ir2 3.125412 1_555
Ho6 Ir2 3.125412 1_455
Ho6 Ir11 3.343261 1_455
Ho6 Ir11 3.343261 1_555
Ho6 Ir5 3.482390 1_555
Ho6 Ir6 3.482390 1_555
Ho6 Ir18 3.493386 1_555
Ho6 Ir19 3.493386 1_555
Ho6 Ir25 3.500508 1_555
Ho6 Ir3 3.500508 1_555
Ho7 Ir25 3.125412 1_645
Ho7 Ir25 3.125412 1_545
Ho7 Ir3 3.125412 1_555
Ho7 Ir3 3.125412 1_655
Ho7 Ir12 3.343261 1_555
Ho7 Ir12 3.343261 1_655
Ho7 Ir7 3.482390 1_555
Ho7 Ir4 3.482390 1_545
Ho7 Ir17 3.493386 1_555
Ho7 Ir20 3.493386 1_545
Ho7 Ir1 3.500508 1_545
Ho7 Ir2 3.500508 1_555
Ge0 Ir14 2.394274 1_555
Ge0 Ir22 2.433744 1_555
Ge0 Ir8 2.451595 1_555
Ge0 Ir8 2.451595 1_655
Ge0 Ir0 2.470357 1_556
Ge0 Ho1 3.094942 1_655
Ge0 Ho1 3.094942 1_555
Ge0 Ho2 3.153688 1_555
Ge0 Ho2 3.153688 1_655
Ge1 Ir25 2.442505 1_545
Ge1 Ir3 2.442505 1_555
Ge1 Ir7 2.591410 1_455
Ge1 Ir7 2.591410 1_555
Ge1 Ir4 2.591410 1_445
Ge1 Ir4 2.591410 1_545
Ge1 Ho7 3.056592 1_455
Ge1 Ho7 3.056592 1_555
Ge2 Ir1 2.442505 1_555
Ge2 Ir2 2.442505 1_555
Ge2 Ir6 2.591410 1_555
Ge2 Ir5 2.591410 1_555
Ge2 Ir6 2.591410 1_655
Ge2 Ir5 2.591410 1_655
Ge2 Ho6 3.056592 1_555
Ge2 Ho6 3.056592 1_655
Ge3 Ir16 2.459739 1_555
Ge3 Ir0 2.475884 1_555
Ge3 Ir10 2.475884 1_545
Ge3 Ir24 2.559346 1_545
Ge3 Ir24 2.559346 1_645
Ge3 Ir21 2.559346 1_655
Ge3 Ir21 2.559346 1_555
Ge3 Ho1 3.106417 1_654
Ge3 Ho1 3.106417 1_554
Ge4 Ir15 2.459739 1_555
Ge4 Ir8 2.475884 1_555
Ge4 Ir9 2.475884 1_555
Ge4 Ir23 2.559346 1_555
Ge4 Ir23 2.559346 1_455
Ge4 Ir22 2.559346 1_455
Ge4 Ir22 2.559346 1_555
Ge4 Ho0 3.106417 1_556
Ge4 Ho0 3.106417 1_456
Ge5 Ir25 2.413471 1_555
Ge5 Ir12 2.459767 1_565
Ge5 Ir5 2.460115 1_555
Ge5 Ir20 2.516266 1_455
Ge5 Ir20 2.516266 1_555
Ge5 Ir1 2.617217 1_455
Ge5 Ir1 2.617217 1_555
Ge5 Ho7 3.108392 1_565
Ge5 Ho7 3.108392 1_465
Ge6 Ir1 2.413471 1_555
Ge6 Ir11 2.459767 1_555
Ge6 Ir4 2.460115 1_555
Ge6 Ir19 2.516266 1_655
Ge6 Ir19 2.516266 1_555
Ge6 Ir25 2.617217 1_555
Ge6 Ir25 2.617217 1_655
Ge6 Ho6 3.108392 1_555
Ge6 Ho6 3.108392 1_655
Ge7 Ir2 2.413471 1_555
Ge7 Ir11 2.459767 1_555
Ge7 Ir7 2.460115 1_555
Ge7 Ir18 2.516266 1_555
Ge7 Ir18 2.516266 1_655
Ge7 Ir3 2.617217 1_555
Ge7 Ir3 2.617217 1_655
Ge7 Ho6 3.108392 1_655
Ge7 Ho6 3.108392 1_555
Ge8 Ir13 2.394274 1_555
Ge8 Ir21 2.433744 1_555
Ge8 Ir0 2.451595 1_455
Ge8 Ir0 2.451595 1_555
Ge8 Ir8 2.470357 1_554
Ge8 Ho0 3.094942 1_555
Ge8 Ho0 3.094942 1_455
Ge8 Ho3 3.153688 1_555
Ge8 Ho3 3.153688 1_455
Ge9 Ir13 2.394274 1_555
Ge9 Ir24 2.433744 1_555
Ge9 Ir10 2.451595 1_555
Ge9 Ir10 2.451595 1_455
Ge9 Ir9 2.470357 1_554
Ge9 Ho0 3.094942 1_555
Ge9 Ho0 3.094942 1_455
Ge9 Ho4 3.153688 1_555
Ge9 Ho4 3.153688 1_455
Ge10 Ir14 2.394274 1_565
Ge10 Ir23 2.433744 1_555
Ge10 Ir9 2.451595 1_655
Ge10 Ir9 2.451595 1_555
Ge10 Ir10 2.470357 1_556
Ge10 Ho1 3.094942 1_565
Ge10 Ho1 3.094942 1_665
Ge10 Ho5 3.153688 1_555
Ge10 Ho5 3.153688 1_655
Ge11 Ir13 2.409734 1_555
Ge11 Ir18 2.459849 1_555
Ge11 Ir19 2.459849 1_555
Ge11 Ir11 2.481551 1_555
Ge11 Ir11 2.481551 1_455
Ge11 Ho4 3.130830 1_455
Ge11 Ho4 3.130830 1_555
Ge11 Ho3 3.130830 1_455
Ge11 Ho3 3.130830 1_555
Ge12 Ir3 2.413471 1_555
Ge12 Ir12 2.459767 1_555
Ge12 Ir6 2.460115 1_555
Ge12 Ir17 2.516266 1_555
Ge12 Ir17 2.516266 1_455
Ge12 Ir2 2.617217 1_555
Ge12 Ir2 2.617217 1_455
Ge12 Ho7 3.108392 1_455
Ge12 Ho7 3.108392 1_555
Ge13 Ir14 2.409734 1_555
Ge13 Ir17 2.459849 1_555
Ge13 Ir20 2.459849 1_545
Ge13 Ir12 2.481551 1_555
Ge13 Ir12 2.481551 1_655
Ge13 Ho5 3.130830 1_545
Ge13 Ho5 3.130830 1_645
Ge13 Ho2 3.130830 1_655
Ge13 Ho2 3.130830 1_555
Ge14 Ir22 2.452135 1_555
Ge14 Ir17 2.456334 1_555
Ge14 Ir6 2.589437 1_655
Ge14 Ir6 2.589437 1_555
Ge14 Ir15 2.595289 1_555
Ge14 Ir15 2.595289 1_655
Ge14 Ho2 3.063994 1_655
Ge14 Ho2 3.063994 1_555
Ge15 Ir23 2.452135 1_555
Ge15 Ir20 2.456334 1_555
Ge15 Ir5 2.589437 1_555
Ge15 Ir5 2.589437 1_655
Ge15 Ir15 2.595289 1_555
Ge15 Ir15 2.595289 1_655
Ge15 Ho5 3.063994 1_655
Ge15 Ho5 3.063994 1_555
Ge16 Ir24 2.452135 1_555
Ge16 Ir19 2.456334 1_555
Ge16 Ir4 2.589437 1_555
Ge16 Ir4 2.589437 1_455
Ge16 Ir16 2.595289 1_465
Ge16 Ir16 2.595289 1_565
Ge16 Ho4 3.063994 1_455
Ge16 Ho4 3.063994 1_555
Ge17 Ir21 2.452135 1_555
Ge17 Ir18 2.456334 1_555
Ge17 Ir7 2.589437 1_555
Ge17 Ir7 2.589437 1_455
Ge17 Ir16 2.595289 1_555
Ge17 Ir16 2.595289 1_455
Ge17 Ho3 3.063994 1_555
Ge17 Ho3 3.063994 1_455
