# generated using pymatgen
data_KRbP2Pd
_symmetry_space_group_name_H-M   'P 1'
_cell_length_a   7.59755048
_cell_length_b   7.59755111
_cell_length_c   6.00267928
_cell_angle_alpha   90.00000000
_cell_angle_beta   90.00000000
_cell_angle_gamma   128.34017787
_symmetry_Int_Tables_number   1
_chemical_formula_structural   KRbP2Pd
_chemical_formula_sum   'K2 Rb2 P4 Pd2'
_cell_volume   271.76754763
_cell_formula_units_Z   2
loop_
 _symmetry_equiv_pos_site_id
 _symmetry_equiv_pos_as_xyz
  1  'x, y, z'
loop_
 _atom_site_type_symbol
 _atom_site_label
 _atom_site_symmetry_multiplicity
 _atom_site_fract_x
 _atom_site_fract_y
 _atom_site_fract_z
 _atom_site_occupancy
  K  K0  1  0.78924519  0.21075481  0.25000000  1
  K  K1  1  0.21075481  0.78924519  0.75000000  1
  Rb  Rb0  1  0.41056609  0.58943391  0.25000000  1
  Rb  Rb1  1  0.58943391  0.41056609  0.75000000  1
  P  P0  1  0.94991643  0.72406964  0.25000000  1
  P  P1  1  0.05008357  0.27593036  0.75000000  1
  P  P2  1  0.27593036  0.05008357  0.25000000  1
  P  P3  1  0.72406964  0.94991643  0.75000000  1
  Pd  Pd0  1  0.00000000  0.00000000  0.00000000  1
  Pd  Pd1  1  0.00000000  0.00000000  0.50000000  1
loop_
_geom_bond_atom_site_label_1
_geom_bond_atom_site_label_2
_geom_bond_distance
_geom_bond_site_symmetry_2
K0 Pd0 3.249732 1_655
K0 Pd1 3.249732 1_655
K0 P2 3.285307 1_555
K0 P0 3.285308 1_555
K0 P1 3.458763 1_654
K0 P1 3.458763 1_655
K0 P3 3.458763 1_544
K0 P3 3.458763 1_545
K1 Pd1 3.249732 1_565
K1 Pd0 3.249732 1_566
K1 P3 3.285307 1_555
K1 P1 3.285308 1_555
K1 P0 3.458763 1_455
K1 P0 3.458763 1_456
K1 P2 3.458763 1_565
K1 P2 3.458763 1_566
P0 P2 2.158382 1_665
P0 Pd1 2.408733 1_665
P0 Pd0 2.408733 1_665
P0 Rb0 3.554924 1_555
P0 Rb1 3.753521 1_554
P0 Rb1 3.753521 1_555
P1 P3 2.158382 1_445
P1 Pd0 2.408733 1_556
P1 Pd1 2.408733 1_555
P1 Rb1 3.554924 1_555
P1 Rb0 3.753521 1_556
P1 Rb0 3.753521 1_555
P2 Pd0 2.408733 1_555
P2 Pd1 2.408733 1_555
P2 Rb0 3.554924 1_555
P2 Rb1 3.753521 1_555
P2 Rb1 3.753521 1_554
P3 Pd0 2.408733 1_666
P3 Pd1 2.408733 1_665
P3 Rb1 3.554924 1_555
P3 Rb0 3.753521 1_556
P3 Rb0 3.753521 1_555
