# generated using pymatgen
data_CaLu2(BPt2)3
_symmetry_space_group_name_H-M   'P 1'
_cell_length_a   5.30002096
_cell_length_b   5.30002154
_cell_length_c   7.78877885
_cell_angle_alpha   90.00000000
_cell_angle_beta   90.00000000
_cell_angle_gamma   119.36605165
_symmetry_Int_Tables_number   1
_chemical_formula_structural   CaLu2(BPt2)3
_chemical_formula_sum   'Ca1 Lu2 B3 Pt6'
_cell_volume   190.67521301
_cell_formula_units_Z   1
loop_
 _symmetry_equiv_pos_site_id
 _symmetry_equiv_pos_as_xyz
  1  'x, y, z'
loop_
 _atom_site_type_symbol
 _atom_site_label
 _atom_site_symmetry_multiplicity
 _atom_site_fract_x
 _atom_site_fract_y
 _atom_site_fract_z
 _atom_site_occupancy
  Ca  Ca0  1  0.50000000  0.50000000  0.83333300  1
  Lu  Lu0  1  0.50000000  0.00000000  0.50188174  1
  Lu  Lu1  1  0.00000000  0.50000000  0.16478526  1
  B  B0  1  0.50000000  0.50000000  0.33333300  1
  B  B1  1  0.50000000  0.00000000  0.99808466  1
  B  B2  1  0.00000000  0.50000000  0.66858234  1
  Pt  Pt0  1  0.14996400  0.85003600  0.83333300  1
  Pt  Pt1  1  0.14203425  0.30001207  0.49499906  1
  Pt  Pt2  1  0.69998793  0.85796575  0.17166794  1
  Pt  Pt3  1  0.85003600  0.14996400  0.83333300  1
  Pt  Pt4  1  0.85796575  0.69998793  0.49499906  1
  Pt  Pt5  1  0.30001207  0.14203425  0.17166794  1
loop_
_geom_bond_atom_site_label_1
_geom_bond_atom_site_label_2
_geom_bond_distance
_geom_bond_site_symmetry_2
Ca0 Pt0 3.006759 1_655
Ca0 Pt3 3.006759 1_455
Ca0 Pt3 3.006759 1_565
Ca0 Pt0 3.006759 1_545
Ca0 Pt4 3.113676 1_555
Ca0 Pt1 3.113676 1_555
Ca0 Pt2 3.113682 1_556
Ca0 Pt5 3.113682 1_556
Ca0 Pt0 3.202985 1_555
Ca0 Pt3 3.202985 1_555
Lu0 Pt1 2.967077 1_655
Lu0 Pt4 2.967077 1_445
Lu0 Pt2 3.014584 1_545
Lu0 Pt5 3.014584 1_555
Lu0 Pt4 3.014862 1_545
Lu0 Pt1 3.014862 1_555
Lu0 Pt0 3.048272 1_545
Lu0 Pt3 3.048272 1_555
Lu0 Pt1 3.234622 1_545
Lu0 Pt4 3.234622 1_555
Lu1 Pt5 2.967078 1_565
Lu1 Pt2 2.967078 1_445
Lu1 Pt1 3.014584 1_555
Lu1 Pt4 3.014584 1_455
Lu1 Pt2 3.014862 1_455
Lu1 Pt5 3.014862 1_555
Lu1 Pt0 3.048279 1_554
Lu1 Pt3 3.048279 1_454
Lu1 Pt2 3.234622 1_555
Lu1 Pt5 3.234622 1_455
B0 Pt2 2.082348 1_555
B0 Pt5 2.082348 1_555
B0 Pt4 2.082352 1_555
B0 Pt1 2.082352 1_555
B0 Lu1 2.957355 1_555
B0 Lu1 2.957355 1_655
B0 Lu0 2.957359 1_555
B0 Lu0 2.957359 1_565
B1 Pt0 2.067351 1_545
B1 Pt3 2.067351 1_555
B1 Pt2 2.073797 1_546
B1 Pt5 2.073797 1_556
B1 Ca0 2.944350 1_555
B1 Ca0 2.944350 1_545
B1 Lu1 2.973784 1_656
B1 Lu1 2.973784 1_546
B2 Pt0 2.067346 1_555
B2 Pt3 2.067346 1_455
B2 Pt1 2.073797 1_555
B2 Pt4 2.073797 1_455
B2 Ca0 2.944346 1_455
B2 Ca0 2.944346 1_555
B2 Lu0 2.973784 1_565
B2 Lu0 2.973784 1_455
