# generated using pymatgen
data_Cs4TiSnSe6
_symmetry_space_group_name_H-M   'P 1'
_cell_length_a   8.26386755
_cell_length_b   8.26386680
_cell_length_c   10.60073071
_cell_angle_alpha   59.40659369
_cell_angle_beta   59.40659587
_cell_angle_gamma   54.53524012
_symmetry_Int_Tables_number   1
_chemical_formula_structural   Cs4TiSnSe6
_chemical_formula_sum   'Cs4 Ti1 Sn1 Se6'
_cell_volume   483.41157087
_cell_formula_units_Z   1
loop_
 _symmetry_equiv_pos_site_id
 _symmetry_equiv_pos_as_xyz
  1  'x, y, z'
loop_
 _atom_site_type_symbol
 _atom_site_label
 _atom_site_symmetry_multiplicity
 _atom_site_fract_x
 _atom_site_fract_y
 _atom_site_fract_z
 _atom_site_occupancy
  Cs  Cs0  1  0.30077701  0.30077701  0.31817575  1
  Cs  Cs1  1  0.69369571  0.69369571  0.68825329  1
  Cs  Cs2  1  0.08510060  0.08510060  0.13617540  1
  Cs  Cs3  1  0.91779618  0.91779618  0.86580701  1
  Ti  Ti0  1  0.38931441  0.38931441  0.67091386  1
  Sn  Sn0  1  0.61664466  0.61664466  0.31846128  1
  Se  Se0  1  0.38483531  0.38483531  0.89456415  1
  Se  Se1  1  0.60734659  0.60734659  0.09296215  1
  Se  Se2  1  0.21081313  0.21081313  0.72599903  1
  Se  Se3  1  0.80070006  0.80070006  0.27657466  1
  Se  Se4  1  0.75190744  0.24107089  0.50605621  1
  Se  Se5  1  0.24107089  0.75190744  0.50605621  1
loop_
_geom_bond_atom_site_label_1
_geom_bond_atom_site_label_2
_geom_bond_distance
_geom_bond_site_symmetry_2
Cs0 Se1 3.697465 1_555
Cs0 Se2 3.727454 1_555
Cs0 Se3 3.811741 1_545
Cs0 Se3 3.811741 1_455
Cs0 Se0 3.916643 1_554
Cs0 Se5 4.145464 1_545
Cs0 Se4 4.145464 1_455
Cs1 Se3 3.696003 1_555
Cs1 Se1 3.712527 1_556
Cs1 Se0 3.742737 1_555
Cs1 Se2 3.830520 1_565
Cs1 Se2 3.830520 1_655
Cs1 Se4 4.136385 1_565
Cs1 Se5 4.136386 1_655
Cs2 Se3 3.542757 1_445
Cs2 Se0 3.610409 1_554
Cs2 Se2 3.622361 1_554
Cs2 Se1 3.805198 1_455
Cs2 Se1 3.805198 1_545
Cs2 Se5 3.828016 1_545
Cs2 Se4 3.828016 1_455
Cs3 Se3 3.652732 1_556
Cs3 Se2 3.663532 1_665
Cs3 Se1 3.744772 1_556
Cs3 Se4 3.776427 1_565
Cs3 Se5 3.776428 1_655
Cs3 Se0 3.806926 1_655
Cs3 Se0 3.806926 1_565
Se0 Ti0 2.333803 1_555
Se1 Sn0 2.471207 1_555
Se2 Ti0 2.337585 1_555
Se3 Sn0 2.476643 1_555
Se4 Ti0 2.474437 1_555
Se4 Sn0 2.606035 1_555
Se5 Ti0 2.474437 1_555
Se5 Sn0 2.606035 1_555
