# generated using pymatgen
data_BaAg3(NO3)8
_symmetry_space_group_name_H-M   'P 1'
_cell_length_a   7.80776446
_cell_length_b   7.80776538
_cell_length_c   7.80776425
_cell_angle_alpha   86.18162325
_cell_angle_beta   86.18162799
_cell_angle_gamma   86.18162034
_symmetry_Int_Tables_number   1
_chemical_formula_structural   BaAg3(NO3)8
_chemical_formula_sum   'Ba1 Ag3 N8 O24'
_cell_volume   472.93529699
_cell_formula_units_Z   1
loop_
 _symmetry_equiv_pos_site_id
 _symmetry_equiv_pos_as_xyz
  1  'x, y, z'
loop_
 _atom_site_type_symbol
 _atom_site_label
 _atom_site_symmetry_multiplicity
 _atom_site_fract_x
 _atom_site_fract_y
 _atom_site_fract_z
 _atom_site_occupancy
  Ba  Ba0  1  0.50000000  0.50000000  0.50000000  1
  Ag  Ag0  1  0.50000000  0.00000000  0.00000000  1
  Ag  Ag1  1  0.00000000  0.00000000  0.50000000  1
  Ag  Ag2  1  0.00000000  0.50000000  0.00000000  1
  N  N0  1  0.64995063  0.88457206  0.32514089  1
  N  N1  1  0.35004937  0.11542794  0.67485911  1
  N  N2  1  0.16504027  0.16504027  0.16504027  1
  N  N3  1  0.88457206  0.32514089  0.64995063  1
  N  N4  1  0.32514089  0.64995063  0.88457206  1
  N  N5  1  0.83495973  0.83495973  0.83495973  1
  N  N6  1  0.11542794  0.67485911  0.35004937  1
  N  N7  1  0.67485911  0.35004937  0.11542794  1
  O  O0  1  0.03909642  0.18314137  0.27236630  1
  O  O1  1  0.80909216  0.47020622  0.66544367  1
  O  O2  1  0.27552676  0.72658932  0.01336562  1
  O  O3  1  0.96090358  0.81685863  0.72763370  1
  O  O4  1  0.19090784  0.52979378  0.33455633  1
  O  O5  1  0.72447324  0.27341068  0.98663438  1
  O  O6  1  0.27236630  0.03909642  0.18314137  1
  O  O7  1  0.82088359  0.22482734  0.54802568  1
  O  O8  1  0.47020622  0.66544367  0.80909216  1
  O  O9  1  0.72763370  0.96090358  0.81685863  1
  O  O10  1  0.17911641  0.77517266  0.45197432  1
  O  O11  1  0.52979378  0.33455633  0.19090784  1
  O  O12  1  0.18314137  0.27236630  0.03909642  1
  O  O13  1  0.01336562  0.27552676  0.72658932  1
  O  O14  1  0.22482734  0.54802568  0.82088359  1
  O  O15  1  0.81685863  0.72763370  0.96090358  1
  O  O16  1  0.98663438  0.72447324  0.27341068  1
  O  O17  1  0.77517266  0.45197432  0.17911641  1
  O  O18  1  0.72658932  0.01336562  0.27552676  1
  O  O19  1  0.66544367  0.80909216  0.47020622  1
  O  O20  1  0.54802568  0.82088359  0.22482734  1
  O  O21  1  0.27341068  0.98663438  0.72447324  1
  O  O22  1  0.33455633  0.19090784  0.52979378  1
  O  O23  1  0.45197432  0.17911641  0.77517266  1
loop_
_geom_bond_atom_site_label_1
_geom_bond_atom_site_label_2
_geom_bond_distance
_geom_bond_site_symmetry_2
Ba0 O1 2.801291 1_555
Ba0 O4 2.801291 1_555
Ba0 O8 2.801291 1_555
Ba0 O11 2.801291 1_555
Ba0 O19 2.801292 1_555
Ba0 O22 2.801292 1_555
Ba0 O7 3.214722 1_555
Ba0 O10 3.214722 1_555
Ba0 O17 3.214722 1_555
Ba0 O14 3.214722 1_555
Ba0 O20 3.214722 1_555
Ba0 O23 3.214722 1_555
Ag0 O20 2.206510 1_545
Ag0 O23 2.206510 1_554
Ag0 O9 2.223531 1_544
Ag0 O6 2.223531 1_555
Ag1 O7 2.206510 1_455
Ag1 O10 2.206510 1_545
Ag1 O0 2.223531 1_555
Ag1 O3 2.223531 1_445
Ag2 O14 2.206510 1_554
Ag2 O17 2.206510 1_455
Ag2 O15 2.223531 1_454
Ag2 O12 2.223531 1_555
N0 O18 1.231549 1_565
N0 O19 1.250863 1_555
N0 O20 1.296771 1_555
N1 O21 1.231549 1_545
N1 O22 1.250863 1_555
N1 O23 1.296771 1_555
N2 O0 1.255648 1_555
N2 O6 1.255648 1_555
N2 O12 1.255648 1_555
N3 O13 1.231549 1_655
N3 O1 1.250863 1_555
N3 O7 1.296771 1_555
N4 O2 1.231549 1_556
N4 O8 1.250863 1_555
N4 O14 1.296771 1_555
N5 O3 1.255648 1_555
N5 O9 1.255648 1_555
N5 O15 1.255648 1_555
N6 O16 1.231549 1_455
N6 O4 1.250863 1_555
N6 O10 1.296771 1_555
N7 O5 1.231549 1_554
N7 O11 1.250863 1_555
N7 O17 1.296771 1_555
