# generated using pymatgen
data_Pt7RhW
_symmetry_space_group_name_H-M   'P 1'
_cell_length_a   6.22759461
_cell_length_b   6.22759297
_cell_length_c   6.21941484
_cell_angle_alpha   95.64388955
_cell_angle_beta   95.64388020
_cell_angle_gamma   143.47219006
_symmetry_Int_Tables_number   1
_chemical_formula_structural   Pt7RhW
_chemical_formula_sum   'Pt7 Rh1 W1'
_cell_volume   136.31743761
_cell_formula_units_Z   1
loop_
 _symmetry_equiv_pos_site_id
 _symmetry_equiv_pos_as_xyz
  1  'x, y, z'
loop_
 _atom_site_type_symbol
 _atom_site_label
 _atom_site_symmetry_multiplicity
 _atom_site_fract_x
 _atom_site_fract_y
 _atom_site_fract_z
 _atom_site_occupancy
  Pt  Pt0  1  0.66260170  0.66260170  0.32520341  1
  Pt  Pt1  1  0.66024221  0.33897511  0.99921632  1
  Pt  Pt2  1  0.33897511  0.66024221  0.99921632  1
  Pt  Pt3  1  0.00184552  0.32897263  0.33081916  1
  Pt  Pt4  1  0.99780396  0.67213875  0.66994271  1
  Pt  Pt5  1  0.67213875  0.99780396  0.66994271  1
  Pt  Pt6  1  0.32897264  0.00184552  0.33081916  1
  Rh  Rh0  1  0.34173212  0.34173212  0.68346425  1
  W  W0  1  0.99568798  0.99568798  0.99137596  1
loop_
_geom_bond_atom_site_label_1
_geom_bond_atom_site_label_2
_geom_bond_distance
_geom_bond_site_symmetry_2
Pt0 Pt1 2.704718 1_554
Pt0 Pt2 2.704719 1_554
Pt0 Pt3 2.748239 1_665
Pt0 Pt6 2.748240 1_665
Pt0 Pt6 2.748241 1_555
Pt0 Pt3 2.748243 1_555
Pt0 W0 2.774034 1_444
Pt0 W0 2.774034 1_554
Pt0 Pt5 2.802431 1_555
Pt0 Pt4 2.802431 1_555
Pt0 Rh0 2.878360 1_665
Pt0 Rh0 2.878360 1_555
Pt1 Rh0 2.662040 1_555
Pt1 W0 2.724146 1_555
Pt1 W0 2.724150 1_445
Pt1 Pt4 2.755111 1_555
Pt1 Pt4 2.755113 1_445
Pt1 Pt6 2.764929 1_666
Pt1 Pt6 2.764934 1_556
Pt1 Pt5 2.853171 1_545
Pt1 Pt3 2.856263 1_656
Pt1 Pt2 2.877172 1_545
Pt1 Pt2 2.877173 1_655
Pt2 Rh0 2.662039 1_555
Pt2 W0 2.724147 1_555
Pt2 W0 2.724149 1_445
Pt2 Pt5 2.755111 1_555
Pt2 Pt5 2.755113 1_445
Pt2 Pt3 2.764929 1_666
Pt2 Pt3 2.764934 1_556
Pt2 Pt4 2.853172 1_455
Pt2 Pt6 2.856263 1_566
Pt3 W0 2.785792 1_444
Pt3 Pt5 2.796358 1_445
Pt3 Pt5 2.796361 1_555
Pt3 Pt6 2.826637 1_565
Pt3 Pt6 2.826638 1_455
Pt3 Rh0 2.842404 1_555
Pt3 Pt4 2.868214 1_455
Pt4 W0 2.704108 1_555
Pt4 Rh0 2.743123 1_665
Pt4 Rh0 2.743124 1_555
Pt4 Pt6 2.796358 1_665
Pt4 Pt6 2.796361 1_555
Pt4 Pt5 2.839169 1_545
Pt4 Pt5 2.839171 1_655
Pt5 W0 2.704109 1_555
Pt5 Rh0 2.743123 1_555
Pt5 Rh0 2.743124 1_665
Pt5 Pt6 2.868215 1_565
Pt6 W0 2.785792 1_444
Pt6 Rh0 2.842403 1_555
Rh0 W0 2.667453 1_555
Rh0 W0 2.667453 1_445
