# generated using pymatgen
data_La5AgS8
_symmetry_space_group_name_H-M   'P 1'
_cell_length_a   7.55856791
_cell_length_b   7.55856791
_cell_length_c   7.55856791
_cell_angle_alpha   109.72975993
_cell_angle_beta   109.72975993
_cell_angle_gamma   108.95537031
_symmetry_Int_Tables_number   1
_chemical_formula_structural   La5AgS8
_chemical_formula_sum   'La5 Ag1 S8'
_cell_volume   332.40710049
_cell_formula_units_Z   1
loop_
 _symmetry_equiv_pos_site_id
 _symmetry_equiv_pos_as_xyz
  1  'x, y, z'
loop_
 _atom_site_type_symbol
 _atom_site_label
 _atom_site_symmetry_multiplicity
 _atom_site_fract_x
 _atom_site_fract_y
 _atom_site_fract_z
 _atom_site_occupancy
  La  La0  1  0.38024100  0.76501400  0.88290500  1
  La  La1  1  0.50266400  0.61975900  0.38477300  1
  La  La2  1  0.88210900  0.49733600  0.11709500  1
  La  La3  1  0.23498600  0.11789100  0.61522700  1
  La  La4  1  0.75000000  0.25000000  0.50000000  1
  Ag  Ag0  1  0.00000000  0.00000000  0.00000000  1
  S  S0  1  0.13277500  0.39238600  0.89505600  1
  S  S1  1  0.97804200  0.72618600  0.60999600  1
  S  S2  1  0.60761400  0.50266900  0.74038900  1
  S  S3  1  0.49733100  0.23772000  0.10494400  1
  S  S4  1  0.11619000  0.36804600  0.39000400  1
  S  S5  1  0.27381400  0.88381000  0.25185600  1
  S  S6  1  0.63195400  0.02195800  0.74814400  1
  S  S7  1  0.76228000  0.86722500  0.25961100  1
loop_
_geom_bond_atom_site_label_1
_geom_bond_atom_site_label_2
_geom_bond_distance
_geom_bond_site_symmetry_2
La0 S0 2.882369 1_555
La0 S1 2.891506 1_455
La0 S7 2.925231 1_556
La0 S6 2.944965 1_565
La0 S3 3.043068 1_566
La0 S5 3.086050 1_556
La0 S2 3.172993 1_555
La0 S4 3.226181 1_555
La1 S7 2.882365 1_555
La1 S6 2.891506 1_565
La1 S3 2.925234 1_555
La1 S4 2.944965 1_555
La1 S2 3.043068 1_555
La1 S1 3.086050 1_555
La1 S0 3.172988 1_554
La1 S5 3.226181 1_555
La2 S3 2.882361 1_555
La2 S4 2.891506 1_655
La2 S2 2.925231 1_554
La2 S5 2.944965 1_655
La2 S0 3.043063 1_654
La2 S6 3.086050 1_554
La2 S7 3.172993 1_555
La2 S1 3.226181 1_555
La3 S2 2.882365 1_555
La3 S5 2.891506 1_545
La3 S0 2.925236 1_555
La3 S1 2.944965 1_445
La3 S7 3.043068 1_445
La3 S4 3.086050 1_555
La3 S3 3.172986 1_556
La3 S6 3.226181 1_555
La4 S7 2.901699 1_545
La4 S2 2.901699 1_555
La4 S0 2.901703 1_655
La4 S3 2.901705 1_555
La4 S4 3.098166 1_655
La4 S5 3.098166 1_545
La4 S1 3.098166 1_555
La4 S6 3.098166 1_555
Ag0 S1 2.885860 1_444
Ag0 S5 2.885860 1_545
Ag0 S6 2.885860 1_454
Ag0 S4 2.885860 1_555
