# generated using pymatgen
data_Ca(ZrSe2)4
_symmetry_space_group_name_H-M   'P 1'
_cell_length_a   8.23112281
_cell_length_b   8.23112290
_cell_length_c   8.23112235
_cell_angle_alpha   54.84492913
_cell_angle_beta   54.84493164
_cell_angle_gamma   54.84492691
_symmetry_Int_Tables_number   1
_chemical_formula_structural   Ca(ZrSe2)4
_chemical_formula_sum   'Ca1 Zr4 Se8'
_cell_volume   347.00501788
_cell_formula_units_Z   1
loop_
 _symmetry_equiv_pos_site_id
 _symmetry_equiv_pos_as_xyz
  1  'x, y, z'
loop_
 _atom_site_type_symbol
 _atom_site_label
 _atom_site_symmetry_multiplicity
 _atom_site_fract_x
 _atom_site_fract_y
 _atom_site_fract_z
 _atom_site_occupancy
  Ca  Ca0  1  0.50000000  0.50000000  0.50000000  1
  Zr  Zr0  1  0.00000000  0.50000000  0.50000000  1
  Zr  Zr1  1  0.50000000  0.00000000  0.50000000  1
  Zr  Zr2  1  0.50000000  0.50000000  0.00000000  1
  Zr  Zr3  1  0.00000000  0.00000000  0.00000000  1
  Se  Se0  1  0.25151303  0.75832133  0.75832133  1
  Se  Se1  1  0.24167867  0.24167867  0.74848697  1
  Se  Se2  1  0.74848697  0.24167867  0.24167867  1
  Se  Se3  1  0.24167867  0.74848697  0.24167867  1
  Se  Se4  1  0.25808915  0.25808915  0.25808915  1
  Se  Se5  1  0.74191085  0.74191085  0.74191085  1
  Se  Se6  1  0.75832133  0.25151303  0.75832133  1
  Se  Se7  1  0.75832133  0.75832133  0.25151303  1
loop_
_geom_bond_atom_site_label_1
_geom_bond_atom_site_label_2
_geom_bond_distance
_geom_bond_site_symmetry_2
Ca0 Se6 2.900949 1_555
Ca0 Se3 2.900949 1_555
Ca0 Se0 2.900949 1_555
Ca0 Se2 2.900949 1_555
Ca0 Se7 2.900950 1_555
Ca0 Se1 2.900950 1_555
Se0 Zr3 2.696740 1_566
Se0 Zr2 2.732779 1_556
Se0 Zr1 2.732779 1_565
Se1 Zr3 2.696740 1_556
Se1 Zr0 2.732779 1_555
Se1 Zr1 2.732779 1_555
Se2 Zr3 2.696740 1_655
Se2 Zr2 2.732779 1_555
Se2 Zr1 2.732779 1_555
Se3 Zr3 2.696740 1_565
Se3 Zr2 2.732779 1_555
Se3 Zr0 2.732779 1_555
Se4 Zr1 2.695566 1_555
Se4 Zr0 2.695566 1_555
Se4 Zr2 2.695567 1_555
Se5 Zr1 2.695566 1_565
Se5 Zr0 2.695566 1_655
Se5 Zr2 2.695567 1_556
Se6 Zr3 2.696740 1_656
Se6 Zr2 2.732779 1_556
Se6 Zr0 2.732779 1_655
Se7 Zr3 2.696740 1_665
Se7 Zr0 2.732779 1_655
Se7 Zr1 2.732779 1_565
