# generated using pymatgen
data_K(IrO2)4
_symmetry_space_group_name_H-M   'P 1'
_cell_length_a   7.29659809
_cell_length_b   7.29659809
_cell_length_c   9.92527878
_cell_angle_alpha   48.80747416
_cell_angle_beta   48.80747416
_cell_angle_gamma   25.40353535
_symmetry_Int_Tables_number   1
_chemical_formula_structural   K(IrO2)4
_chemical_formula_sum   'K1 Ir4 O8'
_cell_volume   167.23221080
_cell_formula_units_Z   1
loop_
 _symmetry_equiv_pos_site_id
 _symmetry_equiv_pos_as_xyz
  1  'x, y, z'
loop_
 _atom_site_type_symbol
 _atom_site_label
 _atom_site_symmetry_multiplicity
 _atom_site_fract_x
 _atom_site_fract_y
 _atom_site_fract_z
 _atom_site_occupancy
  K  K0  1  0.00000000  0.00000000  0.00000000  1
  Ir  Ir0  1  0.83837900  0.83837900  0.81362900  1
  Ir  Ir1  1  0.16162100  0.16162100  0.18637100  1
  Ir  Ir2  1  0.64498000  0.64498000  0.52276000  1
  Ir  Ir3  1  0.35502000  0.35502000  0.47724000  1
  O  O0  1  0.78718400  0.78718400  0.06233000  1
  O  O1  1  0.14511500  0.14511500  0.40019000  1
  O  O2  1  0.85488500  0.85488500  0.59981000  1
  O  O3  1  0.45557600  0.45557600  0.72092800  1
  O  O4  1  0.15999700  0.15999700  0.63973800  1
  O  O5  1  0.84000300  0.84000300  0.36026200  1
  O  O6  1  0.21281600  0.21281600  0.93767000  1
  O  O7  1  0.54442400  0.54442400  0.27907200  1
loop_
_geom_bond_atom_site_label_1
_geom_bond_atom_site_label_2
_geom_bond_distance
_geom_bond_site_symmetry_2
K0 O4 2.641364 1_554
K0 O5 2.641364 1_445
K0 O6 2.651580 1_554
K0 O0 2.651580 1_445
Ir0 O2 1.971212 1_555
Ir0 O3 2.032588 1_655
Ir0 O3 2.032588 1_565
Ir0 O0 2.048221 1_556
Ir0 O6 2.076885 1_655
Ir0 O6 2.076885 1_565
Ir1 O1 1.971212 1_555
Ir1 O7 2.032588 1_455
Ir1 O7 2.032588 1_545
Ir1 O6 2.048221 1_554
Ir1 O0 2.076885 1_545
Ir1 O0 2.076885 1_455
Ir2 O3 1.994539 1_555
Ir2 O1 2.012649 1_655
Ir2 O1 2.012649 1_565
Ir2 O5 2.064790 1_555
Ir2 O4 2.074317 1_565
Ir2 O4 2.074317 1_655
Ir3 O7 1.994539 1_555
Ir3 O2 2.012649 1_545
Ir3 O2 2.012649 1_455
Ir3 O4 2.064790 1_555
Ir3 O5 2.074317 1_545
Ir3 O5 2.074317 1_455
