# generated using pymatgen
data_Hf3MgSi6Ir7
_symmetry_space_group_name_H-M   'P 1'
_cell_length_a   6.91834131
_cell_length_b   6.91834265
_cell_length_c   7.00137776
_cell_angle_alpha   109.71453623
_cell_angle_beta   109.71454021
_cell_angle_gamma   109.22680910
_symmetry_Int_Tables_number   1
_chemical_formula_structural   Hf3MgSi6Ir7
_chemical_formula_sum   'Hf3 Mg1 Si6 Ir7'
_cell_volume   257.18920339
_cell_formula_units_Z   1
loop_
 _symmetry_equiv_pos_site_id
 _symmetry_equiv_pos_as_xyz
  1  'x, y, z'
loop_
 _atom_site_type_symbol
 _atom_site_label
 _atom_site_symmetry_multiplicity
 _atom_site_fract_x
 _atom_site_fract_y
 _atom_site_fract_z
 _atom_site_occupancy
  Hf  Hf0  1  0.50000000  0.50000000  0.50000000  1
  Hf  Hf1  1  0.00000000  0.50000000  0.00000000  1
  Hf  Hf2  1  0.50000000  0.00000000  0.00000000  1
  Mg  Mg0  1  0.00000000  0.00000000  0.50000000  1
  Si  Si0  1  1.00000000  0.31456797  0.32185890  1
  Si  Si1  1  0.00000000  0.68543203  0.67814110  1
  Si  Si2  1  0.31456797  0.00000000  0.32185890  1
  Si  Si3  1  0.68543203  1.00000000  0.67814110  1
  Si  Si4  1  0.31456797  0.31456797  0.99270908  1
  Si  Si5  1  0.68543203  0.68543203  0.00729092  1
  Ir  Ir0  1  0.49839510  0.74919705  0.24919705  1
  Ir  Ir1  1  0.50160490  0.25080295  0.75080295  1
  Ir  Ir2  1  0.25080295  0.50160490  0.75080295  1
  Ir  Ir3  1  0.74919705  0.49839510  0.24919705  1
  Ir  Ir4  1  0.74919705  0.25080295  0.50000000  1
  Ir  Ir5  1  0.25080295  0.74919705  0.50000000  1
  Ir  Ir6  1  0.00000000  0.00000000  0.00000000  1
loop_
_geom_bond_atom_site_label_1
_geom_bond_atom_site_label_2
_geom_bond_distance
_geom_bond_site_symmetry_2
Hf0 Ir5 2.811077 1_555
Hf0 Ir4 2.811077 1_555
Hf0 Ir2 2.845650 1_555
Hf0 Ir3 2.845650 1_555
Hf0 Ir0 2.845650 1_555
Hf0 Ir1 2.845650 1_555
Hf0 Si0 2.873012 1_455
Hf0 Si1 2.873012 1_655
Hf0 Si3 2.873013 1_555
Hf0 Si2 2.873013 1_555
Hf0 Si5 2.945210 1_556
Hf0 Si4 2.945210 1_554
Hf1 Ir0 2.811083 1_555
Hf1 Ir1 2.811083 1_454
Hf1 Ir5 2.845650 1_555
Hf1 Ir4 2.845650 1_454
Hf1 Ir2 2.845650 1_554
Hf1 Ir3 2.845650 1_455
Hf1 Si4 2.873012 1_554
Hf1 Si5 2.873012 1_455
Hf1 Si2 2.873013 1_565
Hf1 Si3 2.873013 1_444
Hf1 Si0 2.945210 1_455
Hf1 Si1 2.945210 1_554
Hf2 Ir3 2.811083 1_555
Hf2 Ir2 2.811083 1_544
Hf2 Ir4 2.845650 1_555
Hf2 Ir5 2.845650 1_544
Hf2 Ir0 2.845650 1_545
Hf2 Ir1 2.845650 1_554
Hf2 Si0 2.873012 1_555
Hf2 Si1 2.873012 1_544
Hf2 Si4 2.873013 1_554
Hf2 Si5 2.873013 1_545
Hf2 Si2 2.945210 1_555
Hf2 Si3 2.945210 1_544
Mg0 Si4 2.850106 1_555
Mg0 Si5 2.850106 1_445
Mg0 Si2 2.850106 1_555
Mg0 Si3 2.850106 1_445
Mg0 Si0 2.850106 1_455
Mg0 Si1 2.850106 1_545
Ir0 Si5 2.467392 1_555
Ir0 Si3 2.467399 1_555
Ir0 Si4 2.486213 1_554
Ir0 Si2 2.486219 1_565
Ir0 Mg0 2.829187 1_665
Ir1 Si4 2.467392 1_555
Ir1 Si2 2.467399 1_555
Ir1 Si5 2.486213 1_556
Ir1 Si3 2.486219 1_545
Ir1 Mg0 2.829187 1_555
Ir2 Si4 2.467392 1_555
Ir2 Si0 2.467399 1_455
Ir2 Si5 2.486212 1_556
Ir2 Si1 2.486219 1_555
Ir2 Mg0 2.829188 1_555
Ir3 Si5 2.467392 1_555
Ir3 Si1 2.467399 1_655
Ir3 Si4 2.486212 1_554
Ir3 Si0 2.486219 1_555
Ir3 Mg0 2.829188 1_665
Ir4 Si0 2.467398 1_555
Ir4 Si3 2.467398 1_545
Ir4 Si2 2.486214 1_555
Ir4 Si1 2.486214 1_655
Ir4 Mg0 2.829193 1_655
Ir5 Si1 2.467398 1_555
Ir5 Si2 2.467398 1_565
Ir5 Si3 2.486214 1_555
Ir5 Si0 2.486214 1_455
Ir5 Mg0 2.829193 1_565
Ir6 Si2 2.550609 1_555
Ir6 Si3 2.550609 1_444
Ir6 Si0 2.550609 1_455
Ir6 Si1 2.550609 1_544
Ir6 Si4 2.550609 1_554
Ir6 Si5 2.550609 1_445
