# generated using pymatgen
data_Cs2LuBr5
_symmetry_space_group_name_H-M   'P 1'
_cell_length_a   7.79024194
_cell_length_b   9.96117099
_cell_length_c   15.94278128
_cell_angle_alpha   90.00000000
_cell_angle_beta   90.00000000
_cell_angle_gamma   90.00000000
_symmetry_Int_Tables_number   1
_chemical_formula_structural   Cs2LuBr5
_chemical_formula_sum   'Cs8 Lu4 Br20'
_cell_volume   1237.15874314
_cell_formula_units_Z   4
loop_
 _symmetry_equiv_pos_site_id
 _symmetry_equiv_pos_as_xyz
  1  'x, y, z'
loop_
 _atom_site_type_symbol
 _atom_site_label
 _atom_site_symmetry_multiplicity
 _atom_site_fract_x
 _atom_site_fract_y
 _atom_site_fract_z
 _atom_site_occupancy
  Cs  Cs0  1  0.25000000  0.66677150  0.91706639  1
  Cs  Cs1  1  0.75000000  0.33322850  0.08293361  1
  Cs  Cs2  1  0.75000000  0.83322850  0.41706639  1
  Cs  Cs3  1  0.25000000  0.16677150  0.58293361  1
  Cs  Cs4  1  0.25000000  0.96924344  0.20698438  1
  Cs  Cs5  1  0.75000000  0.03075656  0.79301562  1
  Cs  Cs6  1  0.75000000  0.53075656  0.70698438  1
  Cs  Cs7  1  0.25000000  0.46924344  0.29301562  1
  Lu  Lu0  1  0.25000000  0.68024024  0.56457236  1
  Lu  Lu1  1  0.75000000  0.31975976  0.43542764  1
  Lu  Lu2  1  0.75000000  0.81975976  0.06457236  1
  Lu  Lu3  1  0.25000000  0.18024024  0.93542764  1
  Br  Br0  1  0.25000000  0.52261857  0.70143132  1
  Br  Br1  1  0.75000000  0.47738143  0.29856868  1
  Br  Br2  1  0.75000000  0.97738143  0.20143132  1
  Br  Br3  1  0.25000000  0.02261857  0.79856868  1
  Br  Br4  1  0.50372454  0.83703760  0.61775255  1
  Br  Br5  1  0.49627546  0.16296240  0.38224745  1
  Br  Br6  1  0.49627546  0.66296240  0.11775255  1
  Br  Br7  1  0.00372454  0.16296240  0.38224745  1
  Br  Br8  1  0.50372454  0.33703760  0.88224745  1
  Br  Br9  1  0.99627546  0.83703760  0.61775255  1
  Br  Br10  1  0.99627546  0.33703760  0.88224745  1
  Br  Br11  1  0.00372454  0.66296240  0.11775255  1
  Br  Br12  1  0.25000000  0.79068762  0.40714127  1
  Br  Br13  1  0.75000000  0.20931238  0.59285873  1
  Br  Br14  1  0.75000000  0.70931238  0.90714127  1
  Br  Br15  1  0.25000000  0.29068762  0.09285873  1
  Br  Br16  1  0.00000000  0.50000000  0.50000000  1
  Br  Br17  1  0.00000000  0.00000000  0.00000000  1
  Br  Br18  1  0.50000000  0.50000000  0.50000000  1
  Br  Br19  1  0.50000000  0.00000000  0.00000000  1
loop_
_geom_bond_atom_site_label_1
_geom_bond_atom_site_label_2
_geom_bond_distance
_geom_bond_site_symmetry_2
Br0 Lu0 2.688112 1_555
Br0 Cs0 3.725658 1_555
Br0 Cs6 3.896970 1_455
Br0 Cs6 3.896970 1_555
Br0 Cs3 4.016663 1_555
Br1 Lu1 2.688112 1_555
Br1 Cs1 3.725658 1_555
Br1 Cs7 3.896970 1_555
Br1 Cs7 3.896970 1_655
Br1 Cs2 4.016663 1_555
Br2 Lu2 2.688112 1_555
Br2 Cs2 3.725658 1_555
Br2 Cs4 3.896970 1_655
Br2 Cs4 3.896970 1_555
Br2 Cs1 4.016663 1_565
Br3 Lu3 2.688112 1_555
Br3 Cs3 3.725658 1_555
Br3 Cs5 3.896970 1_555
Br3 Cs5 3.896970 1_455
Br3 Cs0 4.016663 1_545
Br4 Lu0 2.658039 1_555
Br4 Cs2 3.730821 1_555
Br4 Cs3 3.873393 1_565
Br4 Cs6 3.874625 1_555
Br4 Cs5 3.900241 1_565
Br5 Lu1 2.658039 1_555
Br5 Cs3 3.730821 1_555
Br5 Cs2 3.873393 1_545
Br5 Cs7 3.874625 1_555
Br5 Cs4 3.900241 1_545
Br6 Lu2 2.658039 1_555
Br6 Cs0 3.730821 1_554
Br6 Cs1 3.873393 1_555
Br6 Cs4 3.874625 1_555
Br6 Cs7 3.900241 1_555
Br7 Lu1 2.658039 1_455
Br7 Cs3 3.730821 1_555
Br7 Cs2 3.873393 1_445
Br7 Cs7 3.874625 1_555
Br7 Cs4 3.900241 1_545
Br8 Lu3 2.658039 1_555
Br8 Cs1 3.730821 1_556
Br8 Cs0 3.873393 1_555
Br8 Cs5 3.874625 1_555
Br8 Cs6 3.900241 1_555
Br9 Lu0 2.658039 1_655
Br9 Cs2 3.730821 1_555
Br9 Cs3 3.873393 1_665
Br9 Cs6 3.874625 1_555
Br9 Cs5 3.900241 1_565
Br10 Lu3 2.658039 1_655
Br10 Cs1 3.730821 1_556
Br10 Cs0 3.873393 1_655
Br10 Cs5 3.874625 1_555
Br10 Cs6 3.900241 1_555
Br11 Lu2 2.658039 1_455
Br11 Cs0 3.730821 1_554
Br11 Cs1 3.873393 1_455
Br11 Cs4 3.874625 1_555
Br11 Cs7 3.900241 1_555
Br12 Lu0 2.740429 1_555
Br12 Cs4 3.653266 1_555
Br12 Cs7 3.682806 1_555
Br12 Cs2 3.921298 1_455
Br12 Cs2 3.921298 1_555
Br13 Lu1 2.740429 1_555
Br13 Cs5 3.653266 1_555
Br13 Cs6 3.682806 1_555
Br13 Cs3 3.921298 1_555
Br13 Cs3 3.921298 1_655
Br14 Lu2 2.740429 1_556
Br14 Cs6 3.653266 1_555
Br14 Cs5 3.682806 1_565
Br14 Cs0 3.921298 1_555
Br14 Cs0 3.921298 1_655
Br15 Lu3 2.740429 1_554
Br15 Cs7 3.653266 1_555
Br15 Cs4 3.682806 1_545
Br15 Cs1 3.921298 1_555
Br15 Cs1 3.921298 1_455
Br16 Lu0 2.841876 1_555
Br16 Lu1 2.841876 1_455
Br16 Cs6 3.843988 1_455
Br16 Cs7 3.843988 1_555
Br16 Cs2 4.069305 1_455
Br16 Cs3 4.069305 1_555
Br17 Lu3 2.841876 1_554
Br17 Lu2 2.841876 1_445
Br17 Cs4 3.843988 1_545
Br17 Cs5 3.843988 1_454
Br17 Cs1 4.069305 1_455
Br17 Cs0 4.069305 1_544
Br18 Lu0 2.841876 1_555
Br18 Lu1 2.841876 1_555
Br18 Cs6 3.843988 1_555
Br18 Cs7 3.843988 1_555
Br18 Cs2 4.069305 1_555
Br18 Cs3 4.069305 1_555
Br19 Lu3 2.841876 1_554
Br19 Lu2 2.841876 1_545
Br19 Cs4 3.843988 1_545
Br19 Cs5 3.843988 1_554
Br19 Cs1 4.069305 1_555
Br19 Cs0 4.069305 1_544
