# generated using pymatgen
data_K2BaB2Pt7
_symmetry_space_group_name_H-M   'P 1'
_cell_length_a   8.38556613
_cell_length_b   8.38556494
_cell_length_c   8.38556506
_cell_angle_alpha   39.35780536
_cell_angle_beta   39.35781546
_cell_angle_gamma   39.35780508
_symmetry_Int_Tables_number   1
_chemical_formula_structural   K2BaB2Pt7
_chemical_formula_sum   'K2 Ba1 B2 Pt7'
_cell_volume   213.40376390
_cell_formula_units_Z   1
loop_
 _symmetry_equiv_pos_site_id
 _symmetry_equiv_pos_as_xyz
  1  'x, y, z'
loop_
 _atom_site_type_symbol
 _atom_site_label
 _atom_site_symmetry_multiplicity
 _atom_site_fract_x
 _atom_site_fract_y
 _atom_site_fract_z
 _atom_site_occupancy
  K  K0  1  0.13963018  0.13963018  0.13963018  1
  K  K1  1  0.00324786  0.00324786  0.00324786  1
  Ba  Ba0  1  0.85758571  0.85758571  0.85758571  1
  B  B0  1  0.66958534  0.66958534  0.66958534  1
  B  B1  1  0.33054124  0.33054124  0.33054124  1
  Pt  Pt0  1  0.44001142  0.93115248  0.44001142  1
  Pt  Pt1  1  0.44001142  0.44001142  0.93115248  1
  Pt  Pt2  1  0.93115248  0.44001142  0.44001142  1
  Pt  Pt3  1  0.55956471  0.06944162  0.55956471  1
  Pt  Pt4  1  0.55956471  0.55956471  0.06944162  1
  Pt  Pt5  1  0.06944162  0.55956471  0.55956471  1
  Pt  Pt6  1  0.49966131  0.49966131  0.49966131  1
loop_
_geom_bond_atom_site_label_1
_geom_bond_atom_site_label_2
_geom_bond_distance
_geom_bond_site_symmetry_2
K0 K1 3.160927 1_555
K0 Pt6 3.318867 1_545
K0 Pt6 3.318868 1_455
K0 Pt6 3.318868 1_554
K0 Pt4 3.337842 1_545
K0 Pt5 3.337842 1_554
K0 Pt5 3.337842 1_545
K0 Pt4 3.337842 1_455
K0 Pt3 3.337842 1_554
K0 Pt3 3.337843 1_455
K0 Pt2 3.455126 1_455
K0 Pt0 3.455126 1_545
K0 Pt1 3.455127 1_554
K1 Pt5 3.143842 1_545
K1 Pt4 3.143842 1_455
K1 Pt5 3.143842 1_554
K1 Pt4 3.143842 1_545
K1 Pt3 3.143842 1_455
K1 Pt3 3.143843 1_554
K1 Pt2 3.213752 1_454
K1 Pt1 3.213752 1_544
K1 Pt2 3.213752 1_445
K1 Pt1 3.213752 1_454
K1 Pt0 3.213753 1_544
K1 Pt0 3.213753 1_445
Ba0 Pt6 3.310111 1_565
Ba0 Pt6 3.310112 1_655
Ba0 Pt6 3.310112 1_556
Ba0 Pt1 3.371581 1_565
Ba0 Pt2 3.371582 1_556
Ba0 Pt2 3.371582 1_565
Ba0 Pt1 3.371582 1_655
Ba0 Pt0 3.371582 1_556
Ba0 Pt0 3.371583 1_655
Ba0 K1 3.376005 1_666
Ba0 Pt5 3.401999 1_655
Ba0 Pt3 3.401999 1_565
Ba0 Pt4 3.401999 1_556
Ba0 K0 3.470598 1_656
Ba0 K0 3.470599 1_665
Ba0 K0 3.470599 1_566
B0 Pt3 2.166539 1_565
B0 Pt4 2.166539 1_556
B0 Pt5 2.166540 1_655
B0 Pt0 2.212389 1_555
B0 Pt2 2.212389 1_555
B0 Pt1 2.212389 1_555
B0 K1 3.260683 1_656
B0 K1 3.260684 1_665
B0 K1 3.260684 1_566
B1 Pt0 2.167138 1_545
B1 Pt1 2.167138 1_554
B1 Pt2 2.167138 1_455
B1 Pt3 2.206610 1_555
B1 Pt5 2.206610 1_555
B1 Pt4 2.206611 1_555
B1 K1 3.263678 1_565
B1 K1 3.263679 1_556
B1 K1 3.263679 1_655
Pt0 Pt6 2.895137 1_555
Pt1 Pt6 2.895138 1_555
Pt2 Pt6 2.895138 1_555
Pt3 Pt6 2.881859 1_555
Pt4 Pt6 2.881859 1_555
Pt5 Pt6 2.881859 1_555
