# generated using pymatgen
data_BaAs12Ru3Pt
_symmetry_space_group_name_H-M   'P 1'
_cell_length_a   7.45960861
_cell_length_b   7.45960859
_cell_length_c   7.45960946
_cell_angle_alpha   109.46666982
_cell_angle_beta   109.46666744
_cell_angle_gamma   109.46667370
_symmetry_Int_Tables_number   1
_chemical_formula_structural   BaAs12Ru3Pt
_chemical_formula_sum   'Ba1 As12 Ru3 Pt1'
_cell_volume   319.59459556
_cell_formula_units_Z   1
loop_
 _symmetry_equiv_pos_site_id
 _symmetry_equiv_pos_as_xyz
  1  'x, y, z'
loop_
 _atom_site_type_symbol
 _atom_site_label
 _atom_site_symmetry_multiplicity
 _atom_site_fract_x
 _atom_site_fract_y
 _atom_site_fract_z
 _atom_site_occupancy
  Ba  Ba0  1  0.00000000  0.00000000  0.00000000  1
  As  As0  1  0.85803260  0.65130085  0.49880978  1
  As  As1  1  0.14196740  0.34869915  0.50119022  1
  As  As2  1  0.15123352  0.65061976  0.80113815  1
  As  As3  1  0.84876648  0.34938024  0.19886185  1
  As  As4  1  0.65130085  0.49880978  0.85803260  1
  As  As5  1  0.34869915  0.50119022  0.14196740  1
  As  As6  1  0.65061976  0.80113815  0.15123352  1
  As  As7  1  0.34938024  0.19886185  0.84876648  1
  As  As8  1  0.49880978  0.85803260  0.65130085  1
  As  As9  1  0.50119022  0.14196740  0.34869915  1
  As  As10  1  0.19886185  0.84876648  0.34938024  1
  As  As11  1  0.80113815  0.15123352  0.65061976  1
  Ru  Ru0  1  0.50000000  0.00000000  0.00000000  1
  Ru  Ru1  1  0.00000000  0.50000000  0.00000000  1
  Ru  Ru2  1  0.00000000  0.00000000  0.50000000  1
  Pt  Pt0  1  0.50000000  0.50000000  0.50000000  1
loop_
_geom_bond_atom_site_label_1
_geom_bond_atom_site_label_2
_geom_bond_distance
_geom_bond_site_symmetry_2
As0 Ru2 2.455592 1_665
As0 Pt0 2.533843 1_555
As0 As3 2.553034 1_555
As0 As2 2.568512 1_655
As0 Ba0 3.302798 1_666
As1 Ru2 2.455592 1_555
As1 Pt0 2.533843 1_555
As1 As2 2.553034 1_555
As1 As3 2.568512 1_455
As1 Ba0 3.302798 1_555
As2 Ru0 2.468425 1_566
As2 Ru1 2.473292 1_556
As2 Ba0 3.280857 1_566
As3 Ru0 2.468425 1_555
As3 Ru1 2.473292 1_655
As3 Ba0 3.280857 1_655
As4 Ru1 2.455592 1_656
As4 Pt0 2.533843 1_555
As4 As7 2.553033 1_555
As4 As6 2.568511 1_556
As4 Ba0 3.302798 1_666
As5 Ru1 2.455592 1_555
As5 Pt0 2.533843 1_555
As5 As6 2.553033 1_555
As5 As7 2.568511 1_554
As5 Ba0 3.302798 1_555
As6 Ru2 2.468426 1_665
As6 Ru0 2.473292 1_565
As6 Ba0 3.280857 1_665
As7 Ru2 2.468426 1_555
As7 Ru0 2.473292 1_556
As7 Ba0 3.280857 1_556
As8 Ru0 2.455592 1_566
As8 Pt0 2.533843 1_555
As8 Ba0 3.302798 1_666
As9 Ru0 2.455592 1_555
As9 Pt0 2.533843 1_555
As9 Ba0 3.302798 1_555
As10 Ru1 2.468426 1_555
As10 Ru2 2.473292 1_565
As10 As8 2.553034 1_555
As10 As9 2.568511 1_565
As10 Ba0 3.280857 1_565
As11 Ru1 2.468426 1_656
As11 Ru2 2.473292 1_655
As11 As9 2.553034 1_555
As11 As8 2.568511 1_545
As11 Ba0 3.280857 1_656
