# generated using pymatgen
data_SrTa4Hg3O14
_symmetry_space_group_name_H-M   'P 1'
_cell_length_a   7.50841811
_cell_length_b   7.39863832
_cell_length_c   7.39863929
_cell_angle_alpha   60.00000436
_cell_angle_beta   60.48249237
_cell_angle_gamma   60.48249213
_symmetry_Int_Tables_number   1
_chemical_formula_structural   SrTa4Hg3O14
_chemical_formula_sum   'Sr1 Ta4 Hg3 O14'
_cell_volume   292.72928252
_cell_formula_units_Z   1
loop_
 _symmetry_equiv_pos_site_id
 _symmetry_equiv_pos_as_xyz
  1  'x, y, z'
loop_
 _atom_site_type_symbol
 _atom_site_label
 _atom_site_symmetry_multiplicity
 _atom_site_fract_x
 _atom_site_fract_y
 _atom_site_fract_z
 _atom_site_occupancy
  Sr  Sr0  1  0.12500000  0.62500000  0.62500000  1
  Ta  Ta0  1  0.12500000  0.62500000  0.12500000  1
  Ta  Ta1  1  0.12500000  0.12500000  0.62500000  1
  Ta  Ta2  1  0.62500000  0.12500000  0.12500000  1
  Ta  Ta3  1  0.12500000  0.12500000  0.12500000  1
  Hg  Hg0  1  0.62500000  0.62500000  0.62500000  1
  Hg  Hg1  1  0.62500000  0.12500000  0.62500000  1
  Hg  Hg2  1  0.62500000  0.62500000  0.12500000  1
  O  O0  1  0.71078216  0.76307195  0.76307195  1
  O  O1  1  0.18507773  0.80944570  0.80944570  1
  O  O2  1  0.18507773  0.80944570  0.19603088  1
  O  O3  1  0.81499347  0.81146010  0.18677272  1
  O  O4  1  0.81499347  0.18677272  0.81146010  1
  O  O5  1  0.18507773  0.19603088  0.80944570  1
  O  O6  1  0.43500653  0.06322728  0.06322728  1
  O  O7  1  0.81499347  0.18677272  0.18677272  1
  O  O8  1  0.06492227  0.44055430  0.05396912  1
  O  O9  1  0.06492227  0.05396912  0.44055430  1
  O  O10  1  0.43500653  0.43853990  0.06322728  1
  O  O11  1  0.43500653  0.06322728  0.43853990  1
  O  O12  1  0.06492227  0.44055430  0.44055430  1
  O  O13  1  0.53921784  0.48692805  0.48692805  1
loop_
_geom_bond_atom_site_label_1
_geom_bond_atom_site_label_2
_geom_bond_distance
_geom_bond_site_symmetry_2
Hg0 O0 2.200500 1_555
Hg0 O13 2.200500 1_555
Hg1 O13 2.200512 1_555
Hg1 O0 2.200512 1_545
Hg2 O13 2.200512 1_555
Hg2 O0 2.200512 1_554
O0 Sr0 2.557765 1_655
O1 Ta1 1.974655 1_565
O1 Ta0 1.974656 1_556
O1 Sr0 2.646397 1_555
O2 Ta0 1.974655 1_555
O2 Ta3 1.974655 1_565
O2 Sr0 2.646398 1_555
O3 Ta2 1.986607 1_565
O3 Ta0 1.986982 1_655
O4 Ta2 1.986607 1_556
O4 Ta1 1.986982 1_655
O5 Ta1 1.974655 1_555
O5 Ta3 1.974656 1_556
O5 Sr0 2.646397 1_555
O6 Ta2 1.986601 1_555
O6 Ta3 1.986984 1_555
O7 Ta2 1.986601 1_555
O7 Ta3 1.986984 1_655
O8 Ta0 1.974655 1_555
O8 Ta3 1.974655 1_555
O8 Sr0 2.646398 1_554
O9 Ta1 1.974655 1_555
O9 Ta3 1.974656 1_555
O9 Sr0 2.646397 1_545
O10 Ta2 1.986607 1_555
O10 Ta0 1.986982 1_555
O11 Ta2 1.986607 1_555
O11 Ta1 1.986982 1_555
O12 Ta1 1.974655 1_555
O12 Ta0 1.974656 1_555
O12 Sr0 2.646397 1_555
O13 Sr0 2.557765 1_555
