# generated using pymatgen
data_BaRuO3
_symmetry_space_group_name_H-M   'P 1'
_cell_length_a   5.78154876
_cell_length_b   5.78154901
_cell_length_c   9.63265614
_cell_angle_alpha   90.00001575
_cell_angle_beta   89.99998765
_cell_angle_gamma   119.99995873
_symmetry_Int_Tables_number   1
_chemical_formula_structural   BaRuO3
_chemical_formula_sum   'Ba4 Ru4 O12'
_cell_volume   278.84654877
_cell_formula_units_Z   4
loop_
 _symmetry_equiv_pos_site_id
 _symmetry_equiv_pos_as_xyz
  1  'x, y, z'
loop_
 _atom_site_type_symbol
 _atom_site_label
 _atom_site_symmetry_multiplicity
 _atom_site_fract_x
 _atom_site_fract_y
 _atom_site_fract_z
 _atom_site_occupancy
  Ba  Ba0  1  0.66666665  0.33333338  0.74999328  1
  Ba  Ba1  1  0.33333344  0.66666665  0.25000323  1
  Ba  Ba2  1  0.00000001  0.00000002  0.50001731  1
  Ba  Ba3  1  0.00000008  0.00000005  -0.00005128  1
  Ru  Ru0  1  0.66666674  0.33333346  0.38732360  1
  Ru  Ru1  1  0.33333328  0.66666658  0.88730919  1
  Ru  Ru2  1  0.33333319  0.66666648  0.61269140  1
  Ru  Ru3  1  0.66666674  0.33333338  0.11267801  1
  O  O0  1  0.63623852  0.81811846  0.75000444  1
  O  O1  1  0.81810423  0.63621013  0.25000818  1
  O  O2  1  0.81810610  0.18189587  0.25000813  1
  O  O3  1  0.18188158  0.81812035  0.75000451  1
  O  O4  1  0.18187946  0.36376136  0.75000442  1
  O  O5  1  0.36378993  0.18189380  0.25000814  1
  O  O6  1  0.49999722  0.50000165  0.50000853  1
  O  O7  1  0.00000859  0.50000484  -0.00000933  1
  O  O8  1  0.49999527  0.50000375  -0.00000940  1
  O  O9  1  0.00000440  0.50000285  0.50000849  1
  O  O10  1  0.49999828  -0.00000446  0.50000849  1
  O  O11  1  0.49999630  -0.00000861  -0.00000935  1
loop_
_geom_bond_atom_site_label_1
_geom_bond_atom_site_label_2
_geom_bond_distance
_geom_bond_site_symmetry_2
Ba0 O4 2.894780 1_655
Ba0 O0 2.894781 1_555
Ba0 O3 2.894783 1_545
Ba0 O0 2.894792 1_545
Ba0 O4 2.894793 1_555
Ba0 O3 2.894794 1_655
Ba0 O6 2.929871 1_555
Ba0 O9 2.929872 1_655
Ba0 O10 2.929872 1_555
Ba0 O8 2.929982 1_556
Ba0 O7 2.929984 1_656
Ba0 O11 2.929984 1_556
Ba1 O5 2.894788 1_565
Ba1 O1 2.894788 1_555
Ba1 O2 2.894790 1_455
Ba1 O1 2.894799 1_455
Ba1 O5 2.894800 1_555
Ba1 O2 2.894801 1_565
Ba1 O10 2.930009 1_565
Ba1 O6 2.930009 1_555
Ba1 O9 2.930009 1_555
Ba1 O8 2.930054 1_555
Ba1 O7 2.930055 1_555
Ba1 O11 2.930055 1_565
Ba2 O9 2.890771 1_545
Ba2 O10 2.890771 1_455
Ba2 O6 2.890773 1_555
Ba2 O10 2.890777 1_555
Ba2 O9 2.890778 1_555
Ba2 O6 2.890780 1_445
Ba2 O4 3.019262 1_555
Ba2 O3 3.019262 1_545
Ba2 O0 3.019263 1_445
Ba2 O2 3.019517 1_455
Ba2 O1 3.019517 1_445
Ba2 O5 3.019518 1_555
Ba3 O11 2.890771 1_455
Ba3 O7 2.890771 1_545
Ba3 O8 2.890773 1_555
Ba3 O11 2.890778 1_555
Ba3 O7 2.890778 1_555
Ba3 O8 2.890779 1_445
Ba3 O3 3.018931 1_544
Ba3 O4 3.018933 1_554
Ba3 O0 3.018934 1_444
Ba3 O2 3.019902 1_455
Ba3 O5 3.019904 1_555
Ba3 O1 3.019905 1_445
O0 Ru1 2.012333 1_555
O0 Ru2 2.012386 1_555
O1 Ru0 2.012293 1_555
O1 Ru3 2.012387 1_555
O2 Ru0 2.012293 1_555
O2 Ru3 2.012386 1_555
O3 Ru1 2.012333 1_555
O3 Ru2 2.012386 1_555
O4 Ru1 2.012333 1_555
O4 Ru2 2.012385 1_555
O5 Ru0 2.012294 1_555
O5 Ru3 2.012387 1_555
O6 Ru2 1.990884 1_555
O6 Ru0 1.990932 1_555
O7 Ru1 1.990860 1_554
O7 Ru3 1.990963 1_455
O8 Ru1 1.990860 1_554
O8 Ru3 1.990963 1_555
O9 Ru2 1.990885 1_555
O9 Ru0 1.990933 1_455
O10 Ru2 1.990886 1_545
O10 Ru0 1.990934 1_555
O11 Ru1 1.990860 1_544
O11 Ru3 1.990964 1_555
