# generated using pymatgen
data_BaRuO3
_symmetry_space_group_name_H-M   'P 1'
_cell_length_a   5.79852392
_cell_length_b   5.79852392
_cell_length_c   14.25288500
_cell_angle_alpha   90.00000000
_cell_angle_beta   90.00000000
_cell_angle_gamma   119.99999913
_symmetry_Int_Tables_number   1
_chemical_formula_structural   BaRuO3
_chemical_formula_sum   'Ba6 Ru6 O18'
_cell_volume   415.01932829
_cell_formula_units_Z   6
loop_
 _symmetry_equiv_pos_site_id
 _symmetry_equiv_pos_as_xyz
  1  'x, y, z'
loop_
 _atom_site_type_symbol
 _atom_site_label
 _atom_site_symmetry_multiplicity
 _atom_site_fract_x
 _atom_site_fract_y
 _atom_site_fract_z
 _atom_site_occupancy
  Ba  Ba0  1  0.33333300  0.66666700  0.41194500  1
  Ba  Ba1  1  0.66666700  0.33333300  0.91194500  1
  Ba  Ba2  1  0.66666700  0.33333300  0.58805500  1
  Ba  Ba3  1  0.33333300  0.66666700  0.08805500  1
  Ba  Ba4  1  0.00000000  0.00000000  0.75000000  1
  Ba  Ba5  1  0.00000000  0.00000000  0.25000000  1
  Ru  Ru0  1  0.33333300  0.66666700  0.83940900  1
  Ru  Ru1  1  0.66666700  0.33333300  0.33940900  1
  Ru  Ru2  1  0.66666700  0.33333300  0.16059100  1
  Ru  Ru3  1  0.33333300  0.66666700  0.66059100  1
  Ru  Ru4  1  0.00000000  0.00000000  0.50000000  1
  Ru  Ru5  1  0.00000000  0.00000000  0.00000000  1
  O  O0  1  0.83516400  0.67032900  0.41969800  1
  O  O1  1  0.32967100  0.16483600  0.41969800  1
  O  O2  1  0.83516400  0.16483600  0.41969800  1
  O  O3  1  0.16483600  0.83516400  0.91969800  1
  O  O4  1  0.16483600  0.83516400  0.58030200  1
  O  O5  1  0.16483600  0.32967100  0.91969800  1
  O  O6  1  0.67032900  0.83516400  0.91969800  1
  O  O7  1  0.32967100  0.16483600  0.08030200  1
  O  O8  1  0.83516400  0.67032900  0.08030200  1
  O  O9  1  0.16483600  0.32967100  0.58030200  1
  O  O10  1  0.67032900  0.83516400  0.58030200  1
  O  O11  1  0.83516400  0.16483600  0.08030200  1
  O  O12  1  0.51082400  0.48917600  0.25000000  1
  O  O13  1  0.02164800  0.51082400  0.75000000  1
  O  O14  1  0.48917600  0.97835200  0.75000000  1
  O  O15  1  0.51082400  0.02164800  0.25000000  1
  O  O16  1  0.97835200  0.48917600  0.25000000  1
  O  O17  1  0.48917600  0.51082400  0.75000000  1
loop_
_geom_bond_atom_site_label_1
_geom_bond_atom_site_label_2
_geom_bond_distance
_geom_bond_site_symmetry_2
Ba0 O1 2.901425 1_565
Ba0 O0 2.901425 1_455
Ba0 O0 2.901425 1_555
Ba0 O1 2.901425 1_555
Ba0 O2 2.901425 1_565
Ba0 O2 2.901425 1_455
Ba0 O16 2.916396 1_455
Ba0 O15 2.916396 1_565
Ba0 O12 2.916399 1_555
Ba0 O4 2.936279 1_555
Ba0 O9 2.936285 1_555
Ba0 O10 2.936285 1_555
Ba1 O6 2.901425 1_545
Ba1 O5 2.901425 1_655
Ba1 O6 2.901425 1_555
Ba1 O5 2.901425 1_555
Ba1 O3 2.901425 1_655
Ba1 O3 2.901425 1_545
Ba1 O14 2.916396 1_545
Ba1 O13 2.916396 1_655
Ba1 O17 2.916399 1_555
Ba1 O11 2.936279 1_556
Ba1 O8 2.936285 1_556
Ba1 O7 2.936285 1_556
Ba2 O10 2.901425 1_545
Ba2 O9 2.901425 1_655
Ba2 O9 2.901425 1_555
Ba2 O10 2.901425 1_555
Ba2 O4 2.901425 1_545
Ba2 O4 2.901425 1_655
Ba2 O14 2.916396 1_545
Ba2 O13 2.916396 1_655
Ba2 O17 2.916399 1_555
Ba2 O2 2.936279 1_555
Ba2 O0 2.936285 1_555
Ba2 O1 2.936285 1_555
Ba3 O8 2.901425 1_455
Ba3 O7 2.901425 1_565
Ba3 O7 2.901425 1_555
Ba3 O8 2.901425 1_555
Ba3 O11 2.901425 1_565
Ba3 O11 2.901425 1_455
Ba3 O16 2.916396 1_455
Ba3 O15 2.916396 1_565
Ba3 O12 2.916399 1_555
Ba3 O3 2.936279 1_554
Ba3 O5 2.936285 1_554
Ba3 O6 2.936285 1_554
Ba4 O14 2.901299 1_545
Ba4 O13 2.901299 1_545
Ba4 O13 2.901299 1_555
Ba4 O14 2.901299 1_445
Ba4 O17 2.901299 1_445
Ba4 O17 2.901299 1_555
Ba4 O10 2.930993 1_445
Ba4 O5 2.930993 1_555
Ba4 O9 2.930993 1_555
Ba4 O6 2.930993 1_445
Ba4 O3 2.930996 1_545
Ba4 O4 2.930996 1_545
Ba5 O16 2.901299 1_455
Ba5 O15 2.901299 1_455
Ba5 O16 2.901299 1_445
Ba5 O15 2.901299 1_555
Ba5 O12 2.901299 1_555
Ba5 O12 2.901299 1_445
Ba5 O7 2.930993 1_555
Ba5 O8 2.930993 1_445
Ba5 O1 2.930993 1_555
Ba5 O0 2.930993 1_445
Ba5 O2 2.930996 1_455
Ba5 O11 2.930996 1_455
O0 Ru4 2.012619 1_665
O0 Ru1 2.042879 1_555
O1 Ru4 2.012619 1_555
O1 Ru1 2.042879 1_555
O2 Ru4 2.012623 1_655
O2 Ru1 2.042871 1_555
O3 Ru5 2.012623 1_566
O3 Ru0 2.042871 1_555
O4 Ru4 2.012623 1_565
O4 Ru3 2.042871 1_555
O5 Ru5 2.012619 1_556
O5 Ru0 2.042879 1_555
O6 Ru5 2.012619 1_666
O6 Ru0 2.042879 1_555
O7 Ru5 2.012619 1_555
O7 Ru2 2.042879 1_555
O8 Ru5 2.012619 1_665
O8 Ru2 2.042879 1_555
O9 Ru4 2.012619 1_555
O9 Ru3 2.042879 1_555
O10 Ru4 2.012619 1_665
O10 Ru3 2.042879 1_555
O11 Ru5 2.012623 1_655
O11 Ru2 2.042871 1_555
O12 Ru1 2.018349 1_555
O12 Ru2 2.018349 1_555
O13 Ru3 2.018345 1_555
O13 Ru0 2.018345 1_555
O14 Ru3 2.018345 1_555
O14 Ru0 2.018345 1_555
O15 Ru1 2.018345 1_555
O15 Ru2 2.018345 1_555
O16 Ru1 2.018345 1_555
O16 Ru2 2.018345 1_555
O17 Ru0 2.018349 1_555
O17 Ru3 2.018349 1_555
