# generated using pymatgen
data_Ca3C3F2
_symmetry_space_group_name_H-M   'P 1'
_cell_length_a   6.17387022
_cell_length_b   6.17387131
_cell_length_c   11.07783320
_cell_angle_alpha   90.00000000
_cell_angle_beta   90.00000000
_cell_angle_gamma   145.76887440
_symmetry_Int_Tables_number   1
_chemical_formula_structural   Ca3C3F2
_chemical_formula_sum   'Ca6 C6 F4'
_cell_volume   237.52951812
_cell_formula_units_Z   2
loop_
 _symmetry_equiv_pos_site_id
 _symmetry_equiv_pos_as_xyz
  1  'x, y, z'
loop_
 _atom_site_type_symbol
 _atom_site_label
 _atom_site_symmetry_multiplicity
 _atom_site_fract_x
 _atom_site_fract_y
 _atom_site_fract_z
 _atom_site_occupancy
  Ca  Ca0  1  0.63941775  0.36058225  0.56715614  1
  Ca  Ca1  1  0.36058225  0.63941775  0.43284386  1
  Ca  Ca2  1  0.36058225  0.63941775  0.06715614  1
  Ca  Ca3  1  0.63941775  0.36058225  0.93284386  1
  Ca  Ca4  1  0.09923429  0.90076571  0.25000000  1
  Ca  Ca5  1  0.90076571  0.09923429  0.75000000  1
  C  C0  1  0.27205656  0.72794344  0.63172237  1
  C  C1  1  0.72794344  0.27205656  0.36827763  1
  C  C2  1  0.72794344  0.27205656  0.13172237  1
  C  C3  1  0.27205656  0.72794344  0.86827763  1
  C  C4  1  0.74112388  0.25887612  0.25000000  1
  C  C5  1  0.25887612  0.74112388  0.75000000  1
  F  F0  1  0.00000000  0.00000000  0.00000000  1
  F  F1  1  0.00000000  0.00000000  0.50000000  1
  F  F2  1  0.53129256  0.46870744  0.75000000  1
  F  F3  1  0.46870744  0.53129256  0.25000000  1
loop_
_geom_bond_atom_site_label_1
_geom_bond_atom_site_label_2
_geom_bond_distance
_geom_bond_site_symmetry_2
Ca0 F2 2.393912 1_555
Ca0 F1 2.561580 1_555
Ca0 F1 2.561581 1_665
Ca1 F3 2.393912 1_555
Ca1 F1 2.561580 1_665
Ca1 F1 2.561581 1_555
Ca2 F3 2.393912 1_555
Ca2 F0 2.561580 1_665
Ca2 F0 2.561581 1_555
Ca3 F2 2.393912 1_555
Ca3 F0 2.561580 1_556
Ca3 F0 2.561581 1_666
Ca4 F3 2.382017 1_455
Ca4 F3 2.382018 1_565
Ca4 F0 3.006870 1_565
Ca4 F1 3.006870 1_565
Ca5 F2 2.382017 1_655
Ca5 F2 2.382018 1_545
Ca5 F0 3.006870 1_656
Ca5 F1 3.006870 1_655
C0 C5 1.319460 1_555
C0 Ca1 2.438278 1_555
C0 Ca0 2.502598 1_455
C0 Ca0 2.502598 1_565
C0 Ca5 2.706504 1_565
C0 Ca5 2.706505 1_455
C1 C4 1.319460 1_555
C1 Ca0 2.438278 1_555
C1 Ca1 2.502598 1_655
C1 Ca1 2.502598 1_545
C1 Ca4 2.706504 1_545
C1 Ca4 2.706505 1_655
C2 C4 1.319460 1_555
C2 Ca3 2.438278 1_554
C2 Ca2 2.502598 1_655
C2 Ca2 2.502598 1_545
C2 Ca4 2.706504 1_545
C2 Ca4 2.706505 1_655
C3 C5 1.319460 1_555
C3 Ca2 2.438278 1_556
C3 Ca3 2.502598 1_455
C3 Ca3 2.502598 1_565
C3 Ca5 2.706504 1_565
C3 Ca5 2.706505 1_455
C4 Ca4 2.470845 1_545
C4 Ca4 2.470846 1_655
C5 Ca5 2.470845 1_565
C5 Ca5 2.470846 1_455
