# generated using pymatgen
data_PrAu2
_symmetry_space_group_name_H-M   'P 1'
_cell_length_a   4.55775252
_cell_length_b   6.02842640
_cell_length_c   6.02842641
_cell_angle_alpha   73.91428619
_cell_angle_beta   67.78879104
_cell_angle_gamma   67.78879885
_symmetry_Int_Tables_number   1
_chemical_formula_structural   PrAu2
_chemical_formula_sum   'Pr2 Au4'
_cell_volume   140.21747173
_cell_formula_units_Z   2
loop_
 _symmetry_equiv_pos_site_id
 _symmetry_equiv_pos_as_xyz
  1  'x, y, z'
loop_
 _atom_site_type_symbol
 _atom_site_label
 _atom_site_symmetry_multiplicity
 _atom_site_fract_x
 _atom_site_fract_y
 _atom_site_fract_z
 _atom_site_occupancy
  Pr  Pr0  1  0.53434292  0.71565708  0.21565708  1
  Pr  Pr1  1  0.46565708  0.28434292  0.78434292  1
  Au  Au0  1  0.16034742  0.30805995  0.37124521  1
  Au  Au1  1  0.83965258  0.69194005  0.62875479  1
  Au  Au2  1  0.16034742  0.87124521  0.80805995  1
  Au  Au3  1  0.83965258  0.12875479  0.19194005  1
loop_
_geom_bond_atom_site_label_1
_geom_bond_atom_site_label_2
_geom_bond_distance
_geom_bond_site_symmetry_2
Pr0 Pr1 3.670988 1_555
Pr0 Pr1 3.670988 1_564
Au0 Au3 2.740382 1_555
Au0 Au3 2.740383 1_455
Au0 Au1 2.760387 1_455
Au0 Au2 3.166379 1_545
Au0 Pr1 3.229668 1_455
Au0 Pr1 3.229669 1_555
Au0 Pr0 3.240947 1_555
Au0 Pr0 3.240948 1_455
Au0 Pr1 3.298872 1_554
Au0 Pr0 3.547430 1_545
Au1 Au2 2.740382 1_555
Au1 Au2 2.740383 1_655
Au1 Au3 3.166379 1_565
Au1 Pr0 3.229668 1_655
Au1 Pr0 3.229669 1_555
Au1 Pr1 3.240947 1_555
Au1 Pr1 3.240948 1_655
Au1 Pr0 3.298872 1_556
Au1 Pr1 3.547430 1_565
Au2 Au3 2.760387 1_466
Au2 Pr1 3.229668 1_465
Au2 Pr1 3.229668 1_565
Au2 Pr0 3.240947 1_456
Au2 Pr0 3.240948 1_556
Au2 Pr1 3.298872 1_555
Au2 Pr0 3.547430 1_555
Au3 Pr0 3.229668 1_645
Au3 Pr0 3.229668 1_545
Au3 Pr1 3.240947 1_654
Au3 Pr1 3.240948 1_554
Au3 Pr0 3.298872 1_555
Au3 Pr1 3.547430 1_555
