# generated using pymatgen
data_Rb4HfZrI12
_symmetry_space_group_name_H-M   'P 1'
_cell_length_a   8.09662761
_cell_length_b   8.09662761
_cell_length_c   12.13581484
_cell_angle_alpha   90.00000000
_cell_angle_beta   90.00000000
_cell_angle_gamma   90.00000000
_symmetry_Int_Tables_number   1
_chemical_formula_structural   Rb4HfZrI12
_chemical_formula_sum   'Rb4 Hf1 Zr1 I12'
_cell_volume   795.56793725
_cell_formula_units_Z   1
loop_
 _symmetry_equiv_pos_site_id
 _symmetry_equiv_pos_as_xyz
  1  'x, y, z'
loop_
 _atom_site_type_symbol
 _atom_site_label
 _atom_site_symmetry_multiplicity
 _atom_site_fract_x
 _atom_site_fract_y
 _atom_site_fract_z
 _atom_site_occupancy
  Rb  Rb0  1  0.00000000  0.50000000  0.24965023  1
  Rb  Rb1  1  0.50000000  0.00000000  0.24965023  1
  Rb  Rb2  1  0.00000000  0.50000000  0.75034977  1
  Rb  Rb3  1  0.50000000  0.00000000  0.75034977  1
  Hf  Hf0  1  0.00000000  0.00000000  0.00000000  1
  Zr  Zr0  1  0.50000000  0.50000000  0.50000000  1
  I  I0  1  0.00000000  0.00000000  0.23609092  1
  I  I1  1  0.50000000  0.50000000  0.26164278  1
  I  I2  1  0.00000000  0.00000000  0.76390808  1
  I  I3  1  0.50000000  0.50000000  0.73835722  1
  I  I4  1  0.19500610  0.29165574  0.00000000  1
  I  I5  1  0.70834426  0.19500610  0.00000000  1
  I  I6  1  0.29165574  0.80499390  0.00000000  1
  I  I7  1  0.69584458  0.20501224  0.50000000  1
  I  I8  1  0.30415542  0.79498776  0.50000000  1
  I  I9  1  0.80499390  0.70834426  0.00000000  1
  I  I10  1  0.79498776  0.69584458  0.50000000  1
  I  I11  1  0.20501224  0.30415542  0.50000000  1
loop_
_geom_bond_atom_site_label_1
_geom_bond_atom_site_label_2
_geom_bond_distance
_geom_bond_site_symmetry_2
Hf0 I4 2.840641 1_555
Hf0 I6 2.840641 1_545
Hf0 I5 2.840641 1_455
Hf0 I9 2.840641 1_445
Hf0 I0 2.865156 1_555
Hf0 I2 2.865168 1_554
I0 Rb0 4.051657 1_555
I0 Rb1 4.051657 1_555
I0 Rb1 4.051657 1_455
I0 Rb0 4.051657 1_545
I1 Zr0 2.892659 1_555
I1 Rb0 4.050929 1_555
I1 Rb1 4.050929 1_555
I1 Rb1 4.050929 1_565
I1 Rb0 4.050929 1_655
I2 Rb3 4.051656 1_555
I2 Rb3 4.051656 1_455
I2 Rb2 4.051656 1_545
I2 Rb2 4.051656 1_555
I3 Zr0 2.892659 1_555
I3 Rb3 4.050929 1_565
I3 Rb2 4.050929 1_655
I3 Rb2 4.050929 1_555
I3 Rb3 4.050929 1_555
I4 Rb0 3.810199 1_555
I4 Rb2 3.810199 1_554
I5 Rb1 3.810199 1_555
I5 Rb3 3.810199 1_554
I6 Rb1 3.810199 1_565
I6 Rb3 3.810199 1_564
I7 Zr0 2.866857 1_555
I7 Rb3 3.807929 1_555
I7 Rb1 3.807929 1_555
I8 Zr0 2.866857 1_555
I8 Rb3 3.807929 1_565
I8 Rb1 3.807929 1_565
I9 Rb0 3.810199 1_655
I9 Rb2 3.810199 1_654
I10 Zr0 2.866857 1_555
I10 Rb2 3.807929 1_655
I10 Rb0 3.807929 1_655
I11 Zr0 2.866857 1_555
I11 Rb2 3.807929 1_555
I11 Rb0 3.807929 1_555
