# generated using pymatgen
data_Zr6Zn18TeIr5
_symmetry_space_group_name_H-M   'P 1'
_cell_length_a   8.74214066
_cell_length_b   8.74213910
_cell_length_c   8.74214006
_cell_angle_alpha   60.04415760
_cell_angle_beta   60.04415240
_cell_angle_gamma   60.04416050
_symmetry_Int_Tables_number   1
_chemical_formula_structural   Zr6Zn18TeIr5
_chemical_formula_sum   'Zr6 Zn18 Te1 Ir5'
_cell_volume   472.90370693
_cell_formula_units_Z   1
loop_
 _symmetry_equiv_pos_site_id
 _symmetry_equiv_pos_as_xyz
  1  'x, y, z'
loop_
 _atom_site_type_symbol
 _atom_site_label
 _atom_site_symmetry_multiplicity
 _atom_site_fract_x
 _atom_site_fract_y
 _atom_site_fract_z
 _atom_site_occupancy
  Zr  Zr0  1  0.72645493  0.27278858  0.27278858  1
  Zr  Zr1  1  0.27354507  0.72721142  0.72721142  1
  Zr  Zr2  1  0.27278858  0.72645493  0.27278858  1
  Zr  Zr3  1  0.72721142  0.27354507  0.72721142  1
  Zr  Zr4  1  0.27278858  0.27278858  0.72645493  1
  Zr  Zr5  1  0.72721142  0.72721142  0.27354507  1
  Zn  Zn0  1  0.12622283  0.12622283  0.61931521  1
  Zn  Zn1  1  0.12622283  0.61931521  0.12622283  1
  Zn  Zn2  1  0.87377717  0.87377717  0.38068479  1
  Zn  Zn3  1  0.87377717  0.38068479  0.87377717  1
  Zn  Zn4  1  0.61931521  0.12622283  0.12622283  1
  Zn  Zn5  1  0.38068479  0.87377717  0.87377717  1
  Zn  Zn6  1  0.50000000  0.00000000  0.00000000  1
  Zn  Zn7  1  0.00000000  0.50000000  0.00000000  1
  Zn  Zn8  1  0.00000000  0.00000000  0.50000000  1
  Zn  Zn9  1  0.33958960  0.33958960  0.33958960  1
  Zn  Zn10  1  0.66041040  0.66041040  0.66041040  1
  Zn  Zn11  1  0.33204070  0.33204070  0.99398738  1
  Zn  Zn12  1  0.33204070  0.99398738  0.33204070  1
  Zn  Zn13  1  0.66795930  0.66795930  0.00601262  1
  Zn  Zn14  1  0.66795930  0.00601262  0.66795930  1
  Zn  Zn15  1  0.99398738  0.33204070  0.33204070  1
  Zn  Zn16  1  0.00601262  0.66795930  0.66795930  1
  Zn  Zn17  1  0.00000000  0.00000000  0.00000000  1
  Te  Te0  1  0.50000000  0.50000000  0.50000000  1
  Ir  Ir0  1  0.11745546  0.11745546  0.11745546  1
  Ir  Ir1  1  0.88254454  0.88254454  0.88254454  1
  Ir  Ir2  1  0.00000000  0.50000000  0.50000000  1
  Ir  Ir3  1  0.50000000  0.00000000  0.50000000  1
  Ir  Ir4  1  0.50000000  0.50000000  0.00000000  1
loop_
_geom_bond_atom_site_label_1
_geom_bond_atom_site_label_2
_geom_bond_distance
_geom_bond_site_symmetry_2
Zn0 Zn8 2.652946 1_555
Zn0 Zn12 2.681481 1_545
Zn0 Zn15 2.681482 1_455
Zn0 Zn9 2.702337 1_555
Zn0 Zn17 2.718824 1_556
Zn0 Zr1 2.856028 1_545
Zn0 Zr3 2.856028 1_455
Zn0 Zr4 2.863086 1_555
Zn1 Zn7 2.652946 1_555
Zn1 Zn15 2.681481 1_455
Zn1 Zn11 2.681481 1_554
Zn1 Zn9 2.702338 1_555
Zn1 Zn17 2.718824 1_565
Zn1 Zr1 2.856028 1_554
Zn1 Zr5 2.856028 1_455
Zn1 Zr2 2.863086 1_555
Zn2 Zn8 2.652946 1_665
Zn2 Zr0 2.856028 1_565
Zn2 Zr2 2.856028 1_655
Zn2 Zr5 2.863086 1_555
Zn3 Zn7 2.652946 1_656
Zn3 Zr0 2.856028 1_556
Zn3 Zr4 2.856028 1_655
Zn3 Zr3 2.863086 1_555
Zn4 Zn6 2.652946 1_555
Zn4 Zn9 2.702337 1_555
Zn4 Zr5 2.856028 1_545
Zn4 Zr3 2.856028 1_554
Zn4 Zr0 2.863086 1_555
Zn5 Zn6 2.652946 1_566
Zn5 Zr4 2.856028 1_565
Zn5 Zr2 2.856028 1_556
Zn5 Zr1 2.863086 1_555
Zn6 Zr3 3.109510 1_554
Zn6 Zr2 3.109510 1_545
Zn6 Zr5 3.109510 1_545
Zn6 Zr4 3.109510 1_554
Zn7 Zr1 3.109510 1_554
Zn7 Zr0 3.109510 1_455
Zn7 Zr5 3.109510 1_455
Zn7 Zr4 3.109510 1_554
Zn8 Zr3 3.109510 1_455
Zn8 Zr2 3.109510 1_545
Zn8 Zr1 3.109510 1_545
Zn8 Zr0 3.109510 1_455
Zn9 Zr2 2.918212 1_555
Zn9 Zr4 2.918212 1_555
Zn9 Zr0 2.918212 1_555
Zn10 Zn2 2.702337 1_555
Zn10 Zn5 2.702337 1_555
Zn10 Zn3 2.702338 1_555
Zn10 Zr3 2.918212 1_555
Zn10 Zr5 2.918212 1_555
Zn10 Zr1 2.918212 1_555
Zn11 Zn6 2.500579 1_556
Zn11 Zn7 2.500579 1_556
Zn11 Zn4 2.681482 1_556
Zn11 Zr4 2.948613 1_555
Zn11 Zr1 3.002632 1_555
Zn11 Zr3 3.002632 1_555
Zn12 Zn6 2.500579 1_565
Zn12 Zn8 2.500579 1_565
Zn12 Zn4 2.681481 1_565
Zn12 Zr2 2.948613 1_555
Zn12 Zr1 3.002632 1_555
Zn12 Zr5 3.002633 1_555
Zn13 Zn6 2.500579 1_565
Zn13 Zn7 2.500579 1_655
Zn13 Zn3 2.681481 1_554
Zn13 Zn5 2.681482 1_554
Zn13 Zr5 2.948613 1_555
Zn13 Zr0 3.002632 1_555
Zn13 Zr2 3.002632 1_555
Zn14 Zn6 2.500579 1_556
Zn14 Zn8 2.500579 1_655
Zn14 Zn2 2.681481 1_545
Zn14 Zn5 2.681481 1_545
Zn14 Zr3 2.948613 1_555
Zn14 Zr0 3.002632 1_555
Zn14 Zr4 3.002633 1_555
Zn15 Zn8 2.500579 1_655
Zn15 Zn7 2.500579 1_655
Zn15 Zr0 2.948613 1_555
Zn15 Zr3 3.002632 1_555
Zn15 Zr5 3.002632 1_555
Zn16 Zn8 2.500579 1_565
Zn16 Zn7 2.500579 1_556
Zn16 Zn3 2.681481 1_455
Zn16 Zn2 2.681482 1_455
Zn16 Zr1 2.948613 1_555
Zn16 Zr2 3.002632 1_555
Zn16 Zr4 3.002632 1_555
Zn17 Zn3 2.718824 1_454
Zn17 Zn2 2.718824 1_445
Zn17 Zn5 2.718824 1_544
Zn17 Zn4 2.718824 1_455
Te0 Zr5 2.810011 1_555
Te0 Zr4 2.810011 1_555
Te0 Zr1 2.810011 1_555
Te0 Zr0 2.810011 1_555
Te0 Zr3 2.810012 1_555
Te0 Zr2 2.810012 1_555
Ir0 Zn17 2.514326 1_555
Ir0 Zn7 2.736239 1_555
Ir0 Zn8 2.736239 1_555
Ir0 Zn6 2.736239 1_555
Ir0 Zn15 2.770103 1_455
Ir0 Zn11 2.770103 1_554
Ir0 Zn12 2.770104 1_545
Ir0 Zr4 2.818250 1_554
Ir0 Zr2 2.818250 1_545
Ir0 Zr0 2.818250 1_455
Ir0 Zn2 3.018665 1_445
Ir0 Zn5 3.018665 1_544
Ir0 Zn3 3.018666 1_454
Ir1 Zn17 2.514326 1_666
Ir1 Zn7 2.736239 1_656
Ir1 Zn8 2.736239 1_665
Ir1 Zn6 2.736239 1_566
Ir1 Zn16 2.770103 1_655
Ir1 Zn13 2.770103 1_556
Ir1 Zn14 2.770104 1_565
Ir1 Zr5 2.818250 1_556
Ir1 Zr3 2.818250 1_565
Ir1 Zr1 2.818250 1_655
Ir1 Zn0 3.018665 1_665
Ir1 Zn4 3.018665 1_566
Ir1 Zn1 3.018666 1_656
Ir2 Zn9 2.528871 1_555
Ir2 Zn10 2.528871 1_455
Ir2 Zn16 2.573317 1_555
Ir2 Zn15 2.573317 1_455
Ir2 Zn0 2.669774 1_555
Ir2 Zn2 2.669774 1_455
Ir2 Zn3 2.669774 1_455
Ir2 Zn1 2.669774 1_555
Ir2 Zr2 3.099824 1_555
Ir2 Zr3 3.099824 1_455
Ir2 Zr4 3.099825 1_555
Ir2 Zr5 3.099825 1_455
Ir3 Zn9 2.528871 1_555
Ir3 Zn10 2.528871 1_545
Ir3 Zn14 2.573317 1_555
Ir3 Zn12 2.573317 1_545
Ir3 Zn4 2.669774 1_555
Ir3 Zn5 2.669774 1_545
Ir3 Zn2 2.669775 1_545
Ir3 Zn0 2.669775 1_555
Ir3 Zr0 3.099824 1_555
Ir3 Zr1 3.099824 1_545
Ir3 Zr4 3.099824 1_555
Ir3 Zr5 3.099824 1_545
Ir4 Zn9 2.528871 1_555
Ir4 Zn10 2.528871 1_554
Ir4 Zn13 2.573317 1_555
Ir4 Zn11 2.573317 1_554
Ir4 Zn4 2.669774 1_555
Ir4 Zn5 2.669774 1_554
Ir4 Zn3 2.669775 1_554
Ir4 Zn1 2.669775 1_555
Ir4 Zr2 3.099824 1_555
Ir4 Zr3 3.099824 1_554
Ir4 Zr0 3.099825 1_555
Ir4 Zr1 3.099825 1_554
