# generated using pymatgen
data_Re2TcTe4Cl
_symmetry_space_group_name_H-M   'P 1'
_cell_length_a   12.23774756
_cell_length_b   7.06005053
_cell_length_c   11.79572788
_cell_angle_alpha   66.86727755
_cell_angle_beta   90.00000000
_cell_angle_gamma   90.00000000
_symmetry_Int_Tables_number   1
_chemical_formula_structural   Re2TcTe4Cl
_chemical_formula_sum   'Re8 Tc4 Te16 Cl4'
_cell_volume   937.19879576
_cell_formula_units_Z   4
loop_
 _symmetry_equiv_pos_site_id
 _symmetry_equiv_pos_as_xyz
  1  'x, y, z'
loop_
 _atom_site_type_symbol
 _atom_site_label
 _atom_site_symmetry_multiplicity
 _atom_site_fract_x
 _atom_site_fract_y
 _atom_site_fract_z
 _atom_site_occupancy
  Re  Re0  1  0.58400921  0.01594309  0.36210939  1
  Re  Re1  1  0.91599079  0.01594309  0.86210939  1
  Re  Re2  1  0.41599079  0.98405691  0.63789061  1
  Re  Re3  1  0.08400921  0.98405691  0.13789061  1
  Re  Re4  1  0.36940371  0.98058539  0.41961310  1
  Re  Re5  1  0.13059629  0.98058539  0.91961310  1
  Re  Re6  1  0.63059629  0.01941461  0.58038690  1
  Re  Re7  1  0.86940371  0.01941461  0.08038690  1
  Tc  Tc0  1  0.51268412  0.71109720  0.56376523  1
  Tc  Tc1  1  0.98731588  0.71109720  0.06376523  1
  Tc  Tc2  1  0.48731588  0.28890280  0.43623477  1
  Tc  Tc3  1  0.01268412  0.28890280  0.93623477  1
  Te  Te0  1  0.46246743  0.72107724  0.32883677  1
  Te  Te1  1  0.03753257  0.72107724  0.82883677  1
  Te  Te2  1  0.53753257  0.27892276  0.67116323  1
  Te  Te3  1  0.96246743  0.27892276  0.17116323  1
  Te  Te4  1  0.30039587  0.66886594  0.62685657  1
  Te  Te5  1  0.19960413  0.66886594  0.12685657  1
  Te  Te6  1  0.69960413  0.33113406  0.37314343  1
  Te  Te7  1  0.80039587  0.33113406  0.87314343  1
  Te  Te8  1  0.44032313  0.28922590  0.21276891  1
  Te  Te9  1  0.05967687  0.28922590  0.71276891  1
  Te  Te10  1  0.55967687  0.71077410  0.78723109  1
  Te  Te11  1  0.94032313  0.71077410  0.28723109  1
  Te  Te12  1  0.72702790  0.73989609  0.51084583  1
  Te  Te13  1  0.77297210  0.73989609  0.01084583  1
  Te  Te14  1  0.27297210  0.26010391  0.48915417  1
  Te  Te15  1  0.22702790  0.26010391  0.98915417  1
  Cl  Cl0  1  0.18373414  0.94341273  0.33438614  1
  Cl  Cl1  1  0.31626586  0.94341273  0.83438614  1
  Cl  Cl2  1  0.81626586  0.05658727  0.66561386  1
  Cl  Cl3  1  0.68373414  0.05658727  0.16561386  1
loop_
_geom_bond_atom_site_label_1
_geom_bond_atom_site_label_2
_geom_bond_distance
_geom_bond_site_symmetry_2
Re0 Tc0 2.651337 1_545
Re0 Te6 2.682809 1_555
Re0 Tc2 2.683733 1_555
Re0 Te8 2.692055 1_555
Re0 Te12 2.693146 1_545
Re0 Te0 2.709634 1_545
Re1 Tc1 2.651337 1_546
Re1 Te7 2.682809 1_555
Re1 Tc3 2.683733 1_655
Re1 Te9 2.692055 1_655
Re1 Te13 2.693146 1_546
Re1 Te1 2.709634 1_645
Re2 Tc2 2.651337 1_565
Re2 Te4 2.682809 1_555
Re2 Tc0 2.683733 1_555
Re2 Te10 2.692055 1_555
Re2 Te14 2.693146 1_565
Re2 Te2 2.709634 1_565
Re3 Tc3 2.651337 1_564
Re3 Te5 2.682809 1_555
Re3 Tc1 2.683733 1_455
Re3 Te11 2.692055 1_455
Re3 Te15 2.693146 1_564
Re3 Te3 2.709634 1_465
Re4 Tc0 2.654009 1_555
Re4 Tc2 2.682190 1_565
Re4 Te14 2.689199 1_565
Re4 Te8 2.697596 1_565
Re4 Te4 2.702843 1_555
Re4 Te0 2.709577 1_555
Re5 Tc1 2.654009 1_456
Re5 Tc3 2.682190 1_565
Re5 Te15 2.689199 1_565
Re5 Te9 2.697596 1_565
Re5 Te5 2.702843 1_556
Re5 Te1 2.709577 1_555
Re6 Tc2 2.654009 1_555
Re6 Tc0 2.682190 1_545
Re6 Te12 2.689199 1_545
Re6 Te10 2.697596 1_545
Re6 Te6 2.702843 1_555
Re6 Te2 2.709577 1_555
Re7 Tc3 2.654009 1_654
Re7 Tc1 2.682190 1_545
Re7 Te13 2.689199 1_545
Re7 Te11 2.697596 1_545
Re7 Te7 2.702843 1_554
Re7 Te3 2.709577 1_555
Tc0 Te12 2.685488 1_555
Tc0 Te4 2.686566 1_555
Tc0 Te10 2.697072 1_555
Tc0 Te0 2.812204 1_555
Tc0 Te2 2.823103 1_555
Tc1 Te13 2.685488 1_555
Tc1 Te5 2.686566 1_655
Tc1 Te11 2.697072 1_555
Tc1 Te1 2.812204 1_654
Tc1 Te3 2.823103 1_555
Tc2 Te14 2.685488 1_555
Tc2 Te6 2.686566 1_555
Tc2 Te8 2.697072 1_555
Tc2 Te2 2.812204 1_555
Tc2 Te0 2.823103 1_555
Tc3 Te15 2.685488 1_555
Tc3 Te7 2.686566 1_455
Tc3 Te9 2.697072 1_555
Tc3 Te3 2.812204 1_456
Tc3 Te1 2.823103 1_555
Cl0 Re3 2.534046 1_555
Cl0 Re4 2.539611 1_555
Cl1 Re2 2.534046 1_555
Cl1 Re5 2.539611 1_555
Cl2 Re1 2.534046 1_555
Cl2 Re6 2.539611 1_555
Cl3 Re0 2.534046 1_555
Cl3 Re7 2.539611 1_555
