# generated using pymatgen
data_Zr6Al16Os4Pd3
_symmetry_space_group_name_H-M   'P 1'
_cell_length_a   8.70409923
_cell_length_b   8.76127392
_cell_length_c   8.70409970
_cell_angle_alpha   59.78247732
_cell_angle_beta   60.43505745
_cell_angle_gamma   59.78247774
_symmetry_Int_Tables_number   1
_chemical_formula_structural   Zr6Al16Os4Pd3
_chemical_formula_sum   'Zr6 Al16 Os4 Pd3'
_cell_volume   469.31265579
_cell_formula_units_Z   1
loop_
 _symmetry_equiv_pos_site_id
 _symmetry_equiv_pos_as_xyz
  1  'x, y, z'
loop_
 _atom_site_type_symbol
 _atom_site_label
 _atom_site_symmetry_multiplicity
 _atom_site_fract_x
 _atom_site_fract_y
 _atom_site_fract_z
 _atom_site_occupancy
  Zr  Zr0  1  0.70548391  0.70548391  0.29451609  1
  Zr  Zr1  1  0.32948079  0.67051921  0.32948079  1
  Zr  Zr2  1  0.70548391  0.29451609  0.29451609  1
  Zr  Zr3  1  0.29451609  0.29451609  0.70548391  1
  Zr  Zr4  1  0.67051921  0.32948079  0.67051921  1
  Zr  Zr5  1  0.29451609  0.70548391  0.70548391  1
  Al  Al0  1  0.89315023  0.87182003  0.36321070  1
  Al  Al1  1  0.87182003  0.36321070  0.87182003  1
  Al  Al2  1  0.36321070  0.87182003  0.89315023  1
  Al  Al3  1  0.87182003  0.89315023  0.87182003  1
  Al  Al4  1  0.10684977  0.12817997  0.63678930  1
  Al  Al5  1  0.12817997  0.63678930  0.12817997  1
  Al  Al6  1  0.63678930  0.12817997  0.10684977  1
  Al  Al7  1  0.12817997  0.10684977  0.12817997  1
  Al  Al8  1  0.66369020  0.66273111  0.01084759  1
  Al  Al9  1  0.66273111  0.01084759  0.66273111  1
  Al  Al10  1  0.01084759  0.66273111  0.66369020  1
  Al  Al11  1  0.66273111  0.66369020  0.66273111  1
  Al  Al12  1  0.33630980  0.33726889  0.98915241  1
  Al  Al13  1  0.33726889  0.98915241  0.33726889  1
  Al  Al14  1  0.98915241  0.33726889  0.33630980  1
  Al  Al15  1  0.33726889  0.33630980  0.33726889  1
  Os  Os0  1  0.00000000  0.00000000  0.50000000  1
  Os  Os1  1  0.00000000  0.50000000  0.50000000  1
  Os  Os2  1  0.50000000  0.50000000  0.00000000  1
  Os  Os3  1  0.50000000  0.00000000  0.00000000  1
  Pd  Pd0  1  0.00000000  0.00000000  0.00000000  1
  Pd  Pd1  1  0.50000000  0.00000000  0.50000000  1
  Pd  Pd2  1  0.00000000  0.50000000  0.00000000  1
loop_
_geom_bond_atom_site_label_1
_geom_bond_atom_site_label_2
_geom_bond_distance
_geom_bond_site_symmetry_2
Zr0 Zr1 3.290880 1_555
Zr0 Zr4 3.290880 1_555
Zr1 Zr5 3.290880 1_555
Zr1 Zr2 3.290880 1_555
Zr1 Zr3 3.290880 1_555
Zr2 Zr4 3.290880 1_555
Zr3 Zr4 3.290880 1_555
Zr4 Zr5 3.290880 1_555
Al0 Pd0 2.587836 1_665
Al0 Os0 2.652100 1_665
Al0 Os1 2.652108 1_655
Al0 Al10 2.679194 1_655
Al0 Pd1 2.801067 1_565
Al0 Al9 2.807216 1_565
Al0 Al11 2.807221 1_555
Al0 Al7 2.912092 1_665
Al0 Al5 2.912104 1_655
Al0 Zr2 3.063735 1_565
Al0 Zr0 3.063742 1_555
Al0 Al6 3.134798 1_565
Al0 Zr1 3.209238 1_655
Al1 Pd0 2.587836 1_656
Al1 Os2 2.652107 1_556
Al1 Os1 2.652107 1_655
Al1 Al11 2.679198 1_555
Al1 Pd2 2.801060 1_656
Al1 Al10 2.807215 1_655
Al1 Al8 2.807216 1_556
Al1 Al6 2.912104 1_556
Al1 Al4 2.912104 1_655
Al1 Zr3 3.063735 1_655
Al1 Zr2 3.063735 1_556
Al1 Al7 3.134786 1_656
Al1 Zr4 3.209245 1_555
Al2 Pd0 2.587836 1_566
Al2 Os3 2.652100 1_566
Al2 Os2 2.652108 1_556
Al2 Al8 2.679194 1_556
Al2 Pd1 2.801067 1_565
Al2 Al9 2.807216 1_565
Al2 Al7 2.912092 1_566
Al2 Al5 2.912104 1_556
Al2 Zr3 3.063735 1_565
Al2 Zr5 3.063742 1_555
Al2 Al4 3.134798 1_565
Al2 Zr1 3.209238 1_556
Al3 Pd0 2.587829 1_666
Al3 Os3 2.652108 1_566
Al3 Os0 2.652108 1_665
Al3 Al9 2.679201 1_565
Al3 Pd2 2.801067 1_656
Al3 Al8 2.807223 1_556
Al3 Al4 2.912092 1_665
Al3 Al6 2.912092 1_566
Al3 Zr5 3.063736 1_655
Al3 Zr0 3.063736 1_556
Al3 Al5 3.134786 1_656
Al3 Zr4 3.209240 1_565
Al4 Pd0 2.587836 1_556
Al4 Os0 2.652100 1_555
Al4 Os1 2.652108 1_555
Al4 Pd1 2.801067 1_555
Al4 Zr5 3.063735 1_545
Al4 Zr3 3.063742 1_555
Al4 Zr4 3.209238 1_455
Al5 Pd0 2.587836 1_565
Al5 Os2 2.652107 1_555
Al5 Os1 2.652107 1_555
Al5 Pd2 2.801060 1_555
Al5 Zr0 3.063735 1_455
Al5 Zr5 3.063735 1_554
Al5 Zr1 3.209245 1_555
Al6 Pd0 2.587836 1_655
Al6 Os3 2.652100 1_555
Al6 Os2 2.652108 1_555
Al6 Pd1 2.801067 1_555
Al6 Zr0 3.063735 1_545
Al6 Zr2 3.063742 1_555
Al6 Zr4 3.209238 1_554
Al7 Pd0 2.587829 1_555
Al7 Os3 2.652108 1_555
Al7 Os0 2.652108 1_555
Al7 Pd2 2.801067 1_555
Al7 Zr2 3.063736 1_455
Al7 Zr3 3.063736 1_554
Al7 Zr1 3.209240 1_545
Al8 Pd2 2.504474 1_655
Al8 Os2 2.526768 1_555
Al8 Os3 2.526768 1_565
Al8 Zr1 2.861452 1_555
Al8 Zr0 2.885032 1_555
Al8 Zr2 2.885032 1_555
Al8 Al9 3.029942 1_564
Al9 Pd1 2.504474 1_555
Al9 Os0 2.526768 1_655
Al9 Os3 2.526768 1_556
Al9 Zr4 2.861452 1_555
Al9 Zr3 2.885032 1_555
Al9 Zr2 2.885032 1_555
Al10 Pd2 2.504474 1_556
Al10 Os1 2.526768 1_555
Al10 Os0 2.526768 1_565
Al10 Al3 2.807223 1_455
Al10 Zr1 2.861452 1_555
Al10 Zr5 2.885032 1_555
Al10 Zr3 2.885032 1_555
Al10 Al11 3.029942 1_455
Al10 Al9 3.029942 1_465
Al10 Al8 3.041541 1_456
Al11 Pd1 2.504474 1_565
Al11 Os1 2.526768 1_655
Al11 Os2 2.526768 1_556
Al11 Al2 2.807221 1_555
Al11 Zr4 2.861452 1_555
Al11 Zr5 2.885032 1_555
Al11 Zr0 2.885032 1_555
Al11 Al8 3.029942 1_556
Al11 Al9 3.041541 1_565
Al12 Pd2 2.504474 1_556
Al12 Os2 2.526768 1_556
Al12 Os3 2.526768 1_556
Al12 Al6 2.679194 1_556
Al12 Al5 2.807216 1_556
Al12 Al7 2.807223 1_556
Al12 Zr4 2.861452 1_555
Al12 Zr3 2.885032 1_555
Al12 Zr5 2.885032 1_555
Al12 Al15 3.029942 1_556
Al12 Al13 3.029942 1_546
Al12 Al14 3.041541 1_456
Al13 Pd1 2.504474 1_565
Al13 Os0 2.526768 1_565
Al13 Os3 2.526768 1_565
Al13 Al7 2.679201 1_565
Al13 Al6 2.807216 1_565
Al13 Al4 2.807216 1_565
Al13 Zr1 2.861452 1_555
Al13 Zr0 2.885032 1_555
Al13 Zr5 2.885032 1_555
Al13 Al14 3.029942 1_465
Al13 Al15 3.041541 1_565
Al14 Pd2 2.504474 1_655
Al14 Os1 2.526768 1_655
Al14 Os0 2.526768 1_655
Al14 Al4 2.679194 1_655
Al14 Al5 2.807215 1_655
Al14 Al7 2.807223 1_655
Al14 Zr4 2.861452 1_555
Al14 Zr2 2.885032 1_555
Al14 Zr0 2.885032 1_555
Al14 Al15 3.029942 1_655
Al15 Pd1 2.504474 1_555
Al15 Os1 2.526768 1_555
Al15 Os2 2.526768 1_555
Al15 Al5 2.679198 1_555
Al15 Al4 2.807221 1_555
Al15 Al6 2.807221 1_555
Al15 Zr1 2.861452 1_555
Al15 Zr2 2.885032 1_555
Al15 Zr3 2.885032 1_555
Os0 Zr5 3.106377 1_545
Os0 Zr2 3.106377 1_455
Os0 Zr4 3.246471 1_455
Os0 Zr1 3.246471 1_545
Os1 Zr3 3.106377 1_555
Os1 Zr0 3.106377 1_455
Os1 Zr1 3.246471 1_555
Os1 Zr4 3.246471 1_455
Os2 Zr2 3.106377 1_555
Os2 Zr5 3.106377 1_554
Os2 Zr1 3.246471 1_555
Os2 Zr4 3.246471 1_554
Os3 Zr0 3.106377 1_545
Os3 Zr3 3.106377 1_554
Os3 Zr4 3.246471 1_554
Os3 Zr1 3.246471 1_545
Pd1 Zr2 3.146302 1_555
Pd1 Zr5 3.146302 1_545
Pd1 Zr3 3.146302 1_555
Pd1 Zr0 3.146302 1_545
Pd2 Zr5 3.146302 1_554
Pd2 Zr2 3.146302 1_455
Pd2 Zr0 3.146302 1_455
Pd2 Zr3 3.146302 1_554
