# generated using pymatgen
data_Sr4CrCuH12
_symmetry_space_group_name_H-M   'P 1'
_cell_length_a   7.55950374
_cell_length_b   7.55950413
_cell_length_c   5.50137690
_cell_angle_alpha   90.00569774
_cell_angle_beta   90.00570125
_cell_angle_gamma   137.32464466
_symmetry_Int_Tables_number   1
_chemical_formula_structural   Sr4CrCuH12
_chemical_formula_sum   'Sr4 Cr1 Cu1 H12'
_cell_volume   213.10194464
_cell_formula_units_Z   1
loop_
 _symmetry_equiv_pos_site_id
 _symmetry_equiv_pos_as_xyz
  1  'x, y, z'
loop_
 _atom_site_type_symbol
 _atom_site_label
 _atom_site_symmetry_multiplicity
 _atom_site_fract_x
 _atom_site_fract_y
 _atom_site_fract_z
 _atom_site_occupancy
  Sr  Sr0  1  0.14822355  0.85177645  0.50000000  1
  Sr  Sr1  1  0.64735151  0.35264849  0.00000000  1
  Sr  Sr2  1  0.85177645  0.14822355  0.50000000  1
  Sr  Sr3  1  0.35264849  0.64735151  0.00000000  1
  Cr  Cr0  1  0.50000000  0.50000000  0.50000000  1
  Cu  Cu0  1  0.00000000  0.00000000  0.00000000  1
  H  H0  1  0.99984587  0.50023363  0.75173060  1
  H  H1  1  0.49976637  0.00015413  0.24826940  1
  H  H2  1  0.00015413  0.49976637  0.24826940  1
  H  H3  1  0.50023363  0.99984587  0.75173060  1
  H  H4  1  0.37828818  0.62171182  0.50000000  1
  H  H5  1  0.88785391  0.11214609  1.00000000  1
  H  H6  1  0.62171182  0.37828818  0.50000000  1
  H  H7  1  0.11214609  0.88785391  0.00000000  1
  H  H8  1  0.27303489  0.27303489  0.72715656  1
  H  H9  1  0.72696511  0.72696511  0.27284344  1
  H  H10  1  0.27280882  0.27280882  0.27300714  1
  H  H11  1  0.72719118  0.72719118  0.72699286  1
loop_
_geom_bond_atom_site_label_1
_geom_bond_atom_site_label_2
_geom_bond_distance
_geom_bond_site_symmetry_2
Cr0 H6 1.714023 1_555
Cr0 H4 1.714023 1_555
Cr0 H11 1.766543 1_555
Cr0 H10 1.766543 1_555
Cr0 H8 1.766784 1_555
Cr0 H9 1.766784 1_555
Cu0 H7 1.579312 1_545
Cu0 H5 1.579312 1_454
Cu0 H10 2.122945 1_555
Cu0 H11 2.122945 1_444
Cu0 H8 2.123768 1_554
Cu0 H9 2.123768 1_445
H0 Sr1 2.416682 1_556
H0 Sr3 2.419274 1_656
H0 Sr0 2.419970 1_655
H0 Sr2 2.423021 1_555
H1 Sr1 2.416683 1_555
H1 Sr3 2.419274 1_545
H1 Sr0 2.419970 1_545
H1 Sr2 2.423021 1_555
H2 Sr3 2.416682 1_555
H2 Sr1 2.419274 1_455
H2 Sr2 2.419970 1_455
H2 Sr0 2.423021 1_555
H3 Sr3 2.416683 1_556
H3 Sr1 2.419274 1_566
H3 Sr2 2.419970 1_565
H3 Sr0 2.423021 1_555
H4 Sr3 2.774286 1_555
H4 Sr3 2.774286 1_556
H4 Sr2 2.775853 1_455
H4 Sr2 2.775853 1_565
H5 Sr3 2.794954 1_546
H5 Sr3 2.794954 1_656
H5 Sr2 2.797216 1_555
H5 Sr2 2.797216 1_556
H6 Sr1 2.774286 1_556
H6 Sr1 2.774286 1_555
H6 Sr0 2.775853 1_655
H6 Sr0 2.775853 1_545
H7 Sr1 2.794954 1_565
H7 Sr1 2.794954 1_455
H7 Sr0 2.797216 1_555
H7 Sr0 2.797216 1_554
H8 Sr1 2.849041 1_556
H8 Sr3 2.849041 1_556
H8 Sr2 2.859006 1_455
H8 Sr0 2.859006 1_545
H9 Sr3 2.849041 1_555
H9 Sr1 2.849041 1_555
H9 Sr0 2.859006 1_655
H9 Sr2 2.859006 1_565
H10 Sr1 2.850421 1_555
H10 Sr3 2.850421 1_555
H10 Sr2 2.858318 1_455
H10 Sr0 2.858318 1_545
H11 Sr3 2.850421 1_556
H11 Sr1 2.850421 1_556
H11 Sr0 2.858318 1_655
H11 Sr2 2.858318 1_565
