# generated using pymatgen
data_Ca9Mg(Cu2Hg)2
_symmetry_space_group_name_H-M   'P 1'
_cell_length_a   9.15898776
_cell_length_b   9.15898746
_cell_length_c   9.15898715
_cell_angle_alpha   130.23156258
_cell_angle_beta   130.23155184
_cell_angle_gamma   73.03684992
_symmetry_Int_Tables_number   1
_chemical_formula_structural   Ca9Mg(Cu2Hg)2
_chemical_formula_sum   'Ca9 Mg1 Cu4 Hg2'
_cell_volume   437.32097704
_cell_formula_units_Z   1
loop_
 _symmetry_equiv_pos_site_id
 _symmetry_equiv_pos_as_xyz
  1  'x, y, z'
loop_
 _atom_site_type_symbol
 _atom_site_label
 _atom_site_symmetry_multiplicity
 _atom_site_fract_x
 _atom_site_fract_y
 _atom_site_fract_z
 _atom_site_occupancy
  Ca  Ca0  1  0.54590680  0.02433493  0.84734438  1
  Ca  Ca1  1  0.17699155  0.69856342  0.15265562  1
  Ca  Ca2  1  0.02433493  0.17699155  0.47842812  1
  Ca  Ca3  1  0.69856342  0.54590680  0.52157188  1
  Ca  Ca4  1  0.45409320  0.97566507  0.15265562  1
  Ca  Ca5  1  0.82300845  0.30143658  0.84734438  1
  Ca  Ca6  1  0.97566507  0.82300845  0.52157188  1
  Ca  Ca7  1  0.30143658  0.45409320  0.47842812  1
  Ca  Ca8  1  0.50000000  0.50000000  0.00000000  1
  Mg  Mg0  1  0.00000000  0.00000000  0.00000000  1
  Cu  Cu0  1  0.61763978  0.89206137  0.50970115  1
  Cu  Cu1  1  0.38236022  0.10793863  0.49029885  1
  Cu  Cu2  1  0.10793863  0.61763978  0.72557841  1
  Cu  Cu3  1  0.89206137  0.38236022  0.27442159  1
  Hg  Hg0  1  0.26585809  0.26585809  0.00000000  1
  Hg  Hg1  1  0.73414191  0.73414191  1.00000000  1
loop_
_geom_bond_atom_site_label_1
_geom_bond_atom_site_label_2
_geom_bond_distance
_geom_bond_site_symmetry_2
Ca0 Cu0 2.963655 1_545
Ca0 Cu3 3.095606 1_556
Ca0 Cu1 3.124399 1_555
Ca0 Hg0 3.279297 1_556
Ca0 Hg1 3.317268 1_545
Ca0 Mg0 3.413525 1_656
Ca1 Cu1 2.963645 1_565
Ca1 Cu2 3.095596 1_554
Ca1 Cu0 3.124390 1_555
Ca1 Hg0 3.279303 1_555
Ca1 Hg1 3.317276 1_454
Ca1 Mg0 3.413516 1_565
Ca2 Cu3 2.963647 1_455
Ca2 Cu1 3.095605 1_555
Ca2 Cu2 3.124391 1_555
Ca2 Hg0 3.279301 1_556
Ca2 Hg1 3.317273 1_444
Ca2 Mg0 3.413521 1_555
Ca3 Cu2 2.963647 1_655
Ca3 Cu0 3.095605 1_555
Ca3 Cu3 3.124391 1_555
Ca3 Hg0 3.279302 1_555
Ca3 Hg1 3.317273 1_555
Ca3 Mg0 3.413522 1_666
Ca4 Cu1 2.963655 1_565
Ca4 Cu2 3.095606 1_554
Ca4 Cu0 3.124399 1_555
Ca4 Hg1 3.279297 1_554
Ca4 Hg0 3.317268 1_565
Ca4 Mg0 3.413525 1_565
Ca5 Cu0 2.963645 1_545
Ca5 Cu3 3.095596 1_556
Ca5 Cu1 3.124390 1_555
Ca5 Hg1 3.279303 1_555
Ca5 Hg0 3.317276 1_656
Ca5 Mg0 3.413516 1_656
Ca6 Cu2 2.963647 1_655
Ca6 Cu0 3.095605 1_555
Ca6 Cu3 3.124391 1_555
Ca6 Hg1 3.279301 1_554
Ca6 Hg0 3.317273 1_666
Ca6 Mg0 3.413521 1_666
Ca7 Cu3 2.963647 1_455
Ca7 Cu1 3.095605 1_555
Ca7 Cu2 3.124391 1_555
Ca7 Hg1 3.279302 1_555
Ca7 Hg0 3.317273 1_555
Ca7 Mg0 3.413522 1_555
Ca8 Cu0 3.155096 1_555
Ca8 Cu1 3.155096 1_554
Ca8 Cu3 3.155096 1_555
Ca8 Cu2 3.155096 1_554
Ca8 Hg1 3.446926 1_554
Ca8 Hg0 3.446926 1_555
Cu0 Cu1 2.461232 1_565
Cu0 Mg0 3.062395 1_666
Cu1 Mg0 3.062395 1_555
Cu2 Cu3 2.461232 1_455
Cu2 Mg0 3.062394 1_566
Cu3 Mg0 3.062394 1_655
