# generated using pymatgen
data_KTa4AsO13
_symmetry_space_group_name_H-M   'P 1'
_cell_length_a   7.36175568
_cell_length_b   7.36175656
_cell_length_c   10.04257692
_cell_angle_alpha   90.00000000
_cell_angle_beta   90.00000000
_cell_angle_gamma   91.49447950
_symmetry_Int_Tables_number   1
_chemical_formula_structural   KTa4AsO13
_chemical_formula_sum   'K2 Ta8 As2 O26'
_cell_volume   544.07687247
_cell_formula_units_Z   2
loop_
 _symmetry_equiv_pos_site_id
 _symmetry_equiv_pos_as_xyz
  1  'x, y, z'
loop_
 _atom_site_type_symbol
 _atom_site_label
 _atom_site_symmetry_multiplicity
 _atom_site_fract_x
 _atom_site_fract_y
 _atom_site_fract_z
 _atom_site_occupancy
  K  K0  1  0.44170664  0.44170664  0.44294297  1
  K  K1  1  0.55829336  0.55829336  0.94294297  1
  Ta  Ta0  1  0.55251638  0.89486389  0.25095058  1
  Ta  Ta1  1  0.10513611  0.44748362  0.75095058  1
  Ta  Ta2  1  0.44748362  0.10513611  0.75095058  1
  Ta  Ta3  1  0.89486389  0.55251638  0.25095058  1
  Ta  Ta4  1  0.17348081  0.82963345  0.50030272  1
  Ta  Ta5  1  0.17036655  0.82651919  0.00030272  1
  Ta  Ta6  1  0.82963345  0.17348081  0.50030272  1
  Ta  Ta7  1  0.82651919  0.17036655  0.00030272  1
  As  As0  1  0.16609906  0.16609906  0.24900540  1
  As  As1  1  0.83390094  0.83390094  0.74900540  1
  O  O0  1  0.65944808  0.65944808  0.24999550  1
  O  O1  1  0.34055192  0.34055192  0.74999550  1
  O  O2  1  0.39072229  0.13225792  0.25419437  1
  O  O3  1  0.86774208  0.60927771  0.75419437  1
  O  O4  1  0.60927771  0.86774208  0.75419437  1
  O  O5  1  0.13225792  0.39072229  0.25419437  1
  O  O6  1  0.79680490  0.36443854  0.38445253  1
  O  O7  1  0.63587704  0.19902358  0.61381573  1
  O  O8  1  0.80097642  0.36412296  0.11381573  1
  O  O9  1  0.63556146  0.20319510  0.88445253  1
  O  O10  1  0.19902358  0.63587704  0.61381573  1
  O  O11  1  0.36443854  0.79680490  0.38445253  1
  O  O12  1  0.20319510  0.63556146  0.88445253  1
  O  O13  1  0.36412296  0.80097642  0.11381573  1
  O  O14  1  0.06988506  0.06988506  0.38945922  1
  O  O15  1  0.92931930  0.92931930  0.60880346  1
  O  O16  1  0.07068070  0.07068070  0.10880346  1
  O  O17  1  0.93011494  0.93011494  0.88945922  1
  O  O18  1  0.69780489  0.99496749  0.38753481  1
  O  O19  1  0.01007251  0.30456395  0.60884449  1
  O  O20  1  0.69543605  0.98992749  0.10884449  1
  O  O21  1  0.00503251  0.30219511  0.88753481  1
  O  O22  1  0.30456395  0.01007251  0.60884449  1
  O  O23  1  0.99496749  0.69780489  0.38753481  1
  O  O24  1  0.30219511  0.00503251  0.88753481  1
  O  O25  1  0.98992749  0.69543605  0.10884449  1
loop_
_geom_bond_atom_site_label_1
_geom_bond_atom_site_label_2
_geom_bond_distance
_geom_bond_site_symmetry_2
K0 O6 2.753166 1_555
K0 O11 2.753167 1_555
K0 O10 2.883228 1_555
K0 O7 2.883228 1_555
K0 O0 2.959657 1_555
K0 O5 2.979758 1_555
K0 O2 2.979758 1_555
K0 O1 3.254035 1_555
K1 O12 2.753166 1_555
K1 O9 2.753167 1_555
K1 O8 2.883228 1_556
K1 O13 2.883228 1_556
K1 O1 2.959657 1_555
K1 O3 2.979758 1_555
K1 O4 2.979758 1_555
K1 O0 3.254035 1_556
As0 O2 1.679504 1_555
As0 O5 1.679504 1_555
As0 O16 1.715680 1_555
As0 O14 1.722435 1_555
As1 O4 1.679504 1_555
As1 O3 1.679504 1_555
As1 O15 1.715680 1_555
As1 O17 1.722435 1_555
O0 Ta3 1.922106 1_555
O0 Ta0 1.922106 1_555
O1 Ta1 1.922106 1_555
O1 Ta2 1.922106 1_555
O2 Ta0 2.140693 1_545
O3 Ta1 2.140693 1_655
O4 Ta2 2.140693 1_565
O5 Ta3 2.140693 1_455
O6 Ta6 1.845518 1_555
O6 Ta3 2.045371 1_555
O7 Ta6 1.839415 1_555
O7 Ta2 2.061038 1_555
O8 Ta7 1.839415 1_555
O8 Ta3 2.061038 1_555
O9 Ta7 1.845518 1_556
O9 Ta2 2.045371 1_555
O10 Ta4 1.839415 1_555
O10 Ta1 2.061038 1_555
O11 Ta4 1.845518 1_555
O11 Ta0 2.045371 1_555
O12 Ta5 1.845518 1_556
O12 Ta1 2.045371 1_555
O13 Ta5 1.839415 1_555
O13 Ta0 2.061038 1_555
O14 Ta6 2.240381 1_455
O14 Ta4 2.240381 1_545
O15 Ta4 2.241763 1_655
O15 Ta6 2.241763 1_565
O16 Ta7 2.241763 1_455
O16 Ta5 2.241763 1_545
O17 Ta5 2.240381 1_656
O17 Ta7 2.240381 1_566
O18 Ta0 1.878139 1_555
O18 Ta6 1.971011 1_565
O19 Ta1 1.896050 1_555
O19 Ta6 1.953730 1_455
O20 Ta0 1.896050 1_555
O20 Ta7 1.953730 1_565
O21 Ta1 1.878139 1_555
O21 Ta7 1.971011 1_456
O22 Ta2 1.896050 1_555
O22 Ta4 1.953730 1_545
O23 Ta3 1.878139 1_555
O23 Ta4 1.971011 1_655
O24 Ta2 1.878139 1_555
O24 Ta5 1.971011 1_546
O25 Ta3 1.896050 1_555
O25 Ta5 1.953730 1_655
