# generated using pymatgen
data_AgPb(AuO2)4
_symmetry_space_group_name_H-M   'P 1'
_cell_length_a   6.68502336
_cell_length_b   6.68502172
_cell_length_c   6.68502276
_cell_angle_alpha   125.74608984
_cell_angle_beta   125.74608252
_cell_angle_gamma   80.30587016
_symmetry_Int_Tables_number   1
_chemical_formula_structural   AgPb(AuO2)4
_chemical_formula_sum   'Ag1 Pb1 Au4 O8'
_cell_volume   189.89248209
_cell_formula_units_Z   1
loop_
 _symmetry_equiv_pos_site_id
 _symmetry_equiv_pos_as_xyz
  1  'x, y, z'
loop_
 _atom_site_type_symbol
 _atom_site_label
 _atom_site_symmetry_multiplicity
 _atom_site_fract_x
 _atom_site_fract_y
 _atom_site_fract_z
 _atom_site_occupancy
  Ag  Ag0  1  0.75000000  0.25000000  0.50000000  1
  Pb  Pb0  1  0.00000000  0.00000000  0.00000000  1
  Au  Au0  1  0.37734491  0.63032357  0.75611134  1
  Au  Au1  1  0.36967643  0.12578777  0.74702234  1
  Au  Au2  1  0.87421223  0.62123457  0.24388866  1
  Au  Au3  1  0.37876543  0.62265509  0.25297766  1
  O  O0  1  0.04580005  0.41428907  0.05014374  1
  O  O1  1  0.73618727  0.29639021  0.12605415  1
  O  O2  1  0.17033606  0.61013112  0.87394585  1
  O  O3  1  0.36414433  0.99565731  0.94985626  1
  O  O4  1  0.70360979  0.82966394  0.43979506  1
  O  O5  1  0.00434269  0.95419995  0.36848902  1
  O  O6  1  0.38986888  0.26381273  0.56020494  1
  O  O7  1  0.58571093  0.63585567  0.63151098  1
loop_
_geom_bond_atom_site_label_1
_geom_bond_atom_site_label_2
_geom_bond_distance
_geom_bond_site_symmetry_2
Ag0 O5 2.481356 1_645
Ag0 O0 2.481361 1_656
Ag0 O3 2.481363 1_544
Ag0 O7 2.481365 1_555
Ag0 O4 2.642024 1_545
Ag0 O2 2.642024 1_655
Ag0 O6 2.642027 1_555
Ag0 O1 2.642031 1_555
Au0 O2 2.003650 1_555
Au0 O3 2.003765 1_555
Au0 O6 2.008788 1_555
Au0 O7 2.011071 1_555
Au1 O6 2.003644 1_555
Au1 O5 2.003764 1_545
Au1 O1 2.008783 1_556
Au1 O3 2.011060 1_545
Au2 O1 2.003650 1_555
Au2 O0 2.003760 1_655
Au2 O4 2.008776 1_555
Au2 O5 2.011059 1_655
Au3 O4 2.003652 1_555
Au3 O7 2.003760 1_555
Au3 O2 2.008772 1_554
Au3 O0 2.011065 1_555
O0 Pb0 2.637681 1_555
O1 Pb0 2.520908 1_655
O2 Pb0 2.520918 1_566
O3 Pb0 2.637677 1_566
O4 Pb0 2.520919 1_666
O5 Pb0 2.637685 1_565
O6 Pb0 2.520918 1_555
O7 Pb0 2.637678 1_666
