# generated using pymatgen
data_Ba2Li(CuP2)2
_symmetry_space_group_name_H-M   'P 1'
_cell_length_a   8.47420417
_cell_length_b   8.47420392
_cell_length_c   8.47420349
_cell_angle_alpha   136.86870916
_cell_angle_beta   112.40428045
_cell_angle_gamma   83.63116107
_symmetry_Int_Tables_number   1
_chemical_formula_structural   Ba2Li(CuP2)2
_chemical_formula_sum   'Ba4 Li2 Cu4 P8'
_cell_volume   370.93914437
_cell_formula_units_Z   2
loop_
 _symmetry_equiv_pos_site_id
 _symmetry_equiv_pos_as_xyz
  1  'x, y, z'
loop_
 _atom_site_type_symbol
 _atom_site_label
 _atom_site_symmetry_multiplicity
 _atom_site_fract_x
 _atom_site_fract_y
 _atom_site_fract_z
 _atom_site_occupancy
  Ba  Ba0  1  0.09298182  0.89177571  0.20120712  1
  Ba  Ba1  1  0.90701818  0.10822429  0.79879288  1
  Ba  Ba2  1  0.30943241  0.60822429  0.70120712  1
  Ba  Ba3  1  0.69056759  0.39177571  0.29879288  1
  Li  Li0  1  0.50000000  0.75000000  0.25000000  1
  Li  Li1  1  0.50000000  0.25000000  0.75000000  1
  Cu  Cu0  1  0.27848950  0.02848950  0.75000000  1
  Cu  Cu1  1  0.72151050  0.47151050  0.75000000  1
  Cu  Cu2  1  0.27848950  0.52848950  0.25000000  1
  Cu  Cu3  1  0.72151050  0.97151050  0.25000000  1
  P  P0  1  0.49144394  0.13034751  0.36109643  1
  P  P1  1  0.50855606  0.86965249  0.63890357  1
  P  P2  1  0.23074892  0.36965249  0.86109643  1
  P  P3  1  0.76925108  0.63034751  0.13890357  1
  P  P4  1  0.96665259  0.33702955  0.62962305  1
  P  P5  1  0.03334741  0.66297045  0.37037695  1
  P  P6  1  0.70740650  0.83702955  0.87037695  1
  P  P7  1  0.29259350  0.16297045  0.12962305  1
loop_
_geom_bond_atom_site_label_1
_geom_bond_atom_site_label_2
_geom_bond_distance
_geom_bond_site_symmetry_2
Ba0 P6 3.194736 1_454
Ba0 P4 3.261266 1_465
Ba0 P4 3.261272 1_454
Ba0 Cu3 3.263350 1_455
Ba0 Cu1 3.263353 1_454
Ba0 P5 3.301022 1_555
Ba0 P3 3.354072 1_455
Ba0 P0 3.369526 1_565
Ba0 P2 3.471680 1_565
Ba0 P2 3.471686 1_554
Ba0 P7 3.491464 1_565
Ba0 Li1 3.497091 1_565
Ba0 Li0 3.497094 1_555
Ba0 Cu0 3.522573 1_565
Ba0 Cu2 3.522576 1_555
Ba1 P7 3.194736 1_656
Ba1 P5 3.261266 1_645
Ba1 P5 3.261272 1_656
Ba1 Cu0 3.263350 1_655
Ba1 Cu2 3.263353 1_656
Ba1 P4 3.301022 1_555
Ba1 P2 3.354072 1_655
Ba1 P1 3.369526 1_545
Ba1 P3 3.471680 1_545
Ba1 P3 3.471686 1_556
Ba1 P6 3.491464 1_545
Ba1 Li0 3.497091 1_545
Ba1 Li1 3.497094 1_555
Ba1 Cu3 3.522573 1_545
Ba1 Cu1 3.522576 1_555
Ba2 P5 3.194745 1_555
Ba2 P7 3.261268 1_555
Ba2 P7 3.261274 1_566
Ba2 Cu2 3.263356 1_555
Ba2 Cu0 3.263359 1_565
Ba2 P6 3.301018 1_555
Ba2 P1 3.354074 1_555
Ba2 P2 3.369522 1_555
Ba2 P0 3.471676 1_555
Ba2 P0 3.471682 1_566
Ba2 P4 3.491466 1_455
Ba2 Li1 3.497084 1_555
Ba2 Li0 3.497086 1_556
Ba2 Cu1 3.522565 1_555
Ba2 Cu3 3.522568 1_556
Ba3 P4 3.194745 1_555
Ba3 P6 3.261268 1_555
Ba3 P6 3.261274 1_544
Ba3 Cu1 3.263356 1_555
Ba3 Cu3 3.263359 1_545
Ba3 P7 3.301018 1_555
Ba3 P0 3.354074 1_555
Ba3 P3 3.369522 1_555
Ba3 P1 3.471676 1_555
Ba3 P1 3.471682 1_544
Ba3 P5 3.491466 1_655
Ba3 Li0 3.497084 1_555
Ba3 Li1 3.497086 1_554
Ba3 Cu2 3.522565 1_555
Ba3 Cu0 3.522568 1_554
Li0 P1 2.617522 1_555
Li0 P2 2.617523 1_554
Li0 P0 2.617523 1_565
Li0 P3 2.617523 1_555
Li1 P0 2.617522 1_555
Li1 P3 2.617523 1_556
Li1 P1 2.617523 1_545
Li1 P2 2.617523 1_555
Cu0 P2 2.338057 1_555
Cu0 P1 2.338057 1_545
Cu0 P7 2.459310 1_556
Cu0 P5 2.459310 1_545
Cu0 Li1 2.798023 1_555
Cu1 P3 2.338057 1_556
Cu1 P0 2.338057 1_555
Cu1 P6 2.459310 1_555
Cu1 P4 2.459310 1_555
Cu1 Li1 2.798023 1_555
Cu2 P2 2.338057 1_554
Cu2 P1 2.338057 1_555
Cu2 P7 2.459310 1_555
Cu2 P5 2.459310 1_555
Cu2 Li0 2.798023 1_555
Cu3 P3 2.338057 1_555
Cu3 P0 2.338057 1_565
Cu3 P6 2.459310 1_554
Cu3 P4 2.459310 1_565
Cu3 Li0 2.798023 1_555
P0 P7 2.220850 1_555
P1 P6 2.220850 1_555
P2 P4 2.220850 1_455
P3 P5 2.220850 1_655
