# generated using pymatgen
data_ScTa(SiTc)2
_symmetry_space_group_name_H-M   'P 1'
_cell_length_a   7.61326192
_cell_length_b   7.64154413
_cell_length_c   7.61326128
_cell_angle_alpha   126.20817422
_cell_angle_beta   128.31889746
_cell_angle_gamma   77.75074519
_symmetry_Int_Tables_number   1
_chemical_formula_structural   ScTa(SiTc)2
_chemical_formula_sum   'Sc3 Ta3 Si6 Tc6'
_cell_volume   271.95520381
_cell_formula_units_Z   3
loop_
 _symmetry_equiv_pos_site_id
 _symmetry_equiv_pos_as_xyz
  1  'x, y, z'
loop_
 _atom_site_type_symbol
 _atom_site_label
 _atom_site_symmetry_multiplicity
 _atom_site_fract_x
 _atom_site_fract_y
 _atom_site_fract_z
 _atom_site_occupancy
  Sc  Sc0  1  0.54920762  0.09308544  0.04387781  1
  Sc  Sc1  1  0.45190401  0.49612456  0.54422056  1
  Sc  Sc2  1  0.94978680  0.49520068  0.04541289  1
  Ta  Ta0  1  0.04945459  0.09395152  0.54449793  1
  Ta  Ta1  1  0.75041301  0.90311931  0.65270630  1
  Ta  Ta2  1  0.25097631  0.89667827  0.14570296  1
  Si  Si0  1  0.74856890  0.49693957  0.24837067  1
  Si  Si1  1  0.25164388  0.49800552  0.74636163  1
  Si  Si2  1  0.33060044  0.82990874  0.49250790  1
  Si  Si3  1  0.66833661  0.16199775  0.49785857  1
  Si  Si4  1  0.83739984  0.82990874  0.99930830  1
  Si  Si5  1  0.16413818  0.16199775  0.99366114  1
  Tc  Tc0  1  0.49571907  0.23439722  0.73421026  1
  Tc  Tc1  1  0.00018796  0.23439722  0.23867815  1
  Tc  Tc2  1  0.12191970  0.75766170  0.62599449  1
  Tc  Tc3  1  0.87882453  0.50058066  0.63133031  1
  Tc  Tc4  1  0.63166820  0.75766170  0.13574199  1
  Tc  Tc5  1  0.36925135  0.50058066  0.12175713  1
loop_
_geom_bond_atom_site_label_1
_geom_bond_atom_site_label_2
_geom_bond_distance
_geom_bond_site_symmetry_2
Sc0 Si3 2.685295 1_555
Sc0 Si5 2.685302 1_554
Sc0 Si4 2.686678 1_544
Sc0 Si2 2.686684 1_544
Sc0 Si0 2.762658 1_555
Sc0 Tc4 2.888536 1_545
Sc0 Tc2 2.888537 1_544
Sc0 Tc0 2.919016 1_554
Sc0 Tc1 2.919024 1_655
Sc0 Tc5 2.990105 1_555
Sc0 Tc3 2.990109 1_555
Sc1 Si3 2.688874 1_555
Sc1 Si5 2.688875 1_554
Sc1 Si4 2.692497 1_555
Sc1 Si2 2.692501 1_555
Sc1 Si1 2.750871 1_555
Sc1 Tc5 2.890050 1_555
Sc1 Tc3 2.890054 1_555
Sc1 Tc1 2.956312 1_555
Sc1 Tc0 2.956318 1_555
Sc1 Tc4 3.005370 1_556
Sc1 Tc2 3.005373 1_555
Sc2 Si3 2.674022 1_554
Sc2 Si5 2.674023 1_654
Sc2 Si4 2.675196 1_554
Sc2 Si2 2.675200 1_655
Sc2 Si0 2.763511 1_555
Sc2 Tc3 2.874645 1_554
Sc2 Tc5 2.874653 1_655
Sc2 Tc0 2.953607 1_554
Sc2 Tc1 2.953608 1_655
Sc2 Tc4 2.955646 1_555
Sc2 Tc2 2.955656 1_655
Ta0 Tc4 2.854947 1_445
Ta0 Tc2 2.854947 1_545
Ta0 Tc0 2.900302 1_555
Ta0 Tc1 2.900309 1_555
Ta0 Tc3 2.950422 1_455
Ta0 Tc5 2.950422 1_556
Ta1 Tc1 2.847221 1_666
Ta1 Tc0 2.847222 1_565
Ta1 Tc2 2.896337 1_655
Ta1 Tc4 2.896340 1_555
Ta1 Tc5 2.962082 1_555
Ta1 Tc3 2.962086 1_555
Ta2 Tc1 2.869404 1_565
Ta2 Tc0 2.869405 1_565
Ta2 Tc5 2.898396 1_555
Ta2 Tc3 2.898396 1_454
Ta2 Tc2 2.899194 1_554
Ta2 Tc4 2.899197 1_555
Si0 Tc5 2.411468 1_555
Si0 Tc3 2.411472 1_555
Si0 Tc4 2.411690 1_555
Si0 Tc2 2.411690 1_655
Si0 Tc0 2.463668 1_554
Si0 Tc1 2.463673 1_655
Si0 Ta1 2.790473 1_555
Si1 Tc3 2.395382 1_455
Si1 Tc5 2.395386 1_556
Si1 Tc0 2.433904 1_555
Si1 Tc1 2.433905 1_555
Si1 Tc2 2.438533 1_555
Si1 Tc4 2.438538 1_556
Si1 Ta2 2.755772 1_556
Si1 Ta0 2.782381 1_555
Si2 Tc0 2.565275 1_565
Si2 Tc5 2.590466 1_555
Si2 Tc2 2.626584 1_555
Si2 Ta2 2.659811 1_555
Si2 Ta0 2.661528 1_565
Si2 Ta1 2.671041 1_555
Si3 Tc4 2.563767 1_545
Si3 Tc0 2.592072 1_555
Si3 Tc3 2.632217 1_555
Si3 Ta1 2.647809 1_545
Si3 Ta0 2.667539 1_655
Si3 Ta2 2.672528 1_545
Si4 Tc1 2.565279 1_666
Si4 Tc3 2.590470 1_555
Si4 Tc4 2.626571 1_556
Si4 Ta2 2.659823 1_656
Si4 Ta0 2.661530 1_666
Si4 Ta1 2.671043 1_555
Si5 Tc2 2.563767 1_545
Si5 Tc1 2.592058 1_556
Si5 Tc5 2.632221 1_556
Si5 Ta1 2.647803 1_445
Si5 Ta0 2.667538 1_555
Si5 Ta2 2.672530 1_546
