# generated using pymatgen
data_MgZr4(Re3Tc5)3
_symmetry_space_group_name_H-M   'P 1'
_cell_length_a   8.36713794
_cell_length_b   8.40110380
_cell_length_c   8.40110222
_cell_angle_alpha   109.55297786
_cell_angle_beta   109.38933266
_cell_angle_gamma   109.38934633
_symmetry_Int_Tables_number   1
_chemical_formula_structural   MgZr4(Re3Tc5)3
_chemical_formula_sum   'Mg1 Zr4 Re9 Tc15'
_cell_volume   455.05671038
_cell_formula_units_Z   1
loop_
 _symmetry_equiv_pos_site_id
 _symmetry_equiv_pos_as_xyz
  1  'x, y, z'
loop_
 _atom_site_type_symbol
 _atom_site_label
 _atom_site_symmetry_multiplicity
 _atom_site_fract_x
 _atom_site_fract_y
 _atom_site_fract_z
 _atom_site_occupancy
  Mg  Mg0  1  0.00004691  0.00000000  0.00000000  1
  Zr  Zr0  1  0.62863377  0.00000000  0.00000000  1
  Zr  Zr1  1  0.00065347  0.63040173  1.00000000  1
  Zr  Zr2  1  0.00065347  1.00000000  0.63040173  1
  Zr  Zr3  1  0.37025174  0.36959827  0.36959827  1
  Re  Re0  1  0.19628839  0.37519461  1.00000000  1
  Re  Re1  1  0.99940067  0.37579596  0.19258589  1
  Re  Re2  1  0.80681478  0.18321107  0.80741411  1
  Re  Re3  1  0.80681478  0.80741411  0.18321107  1
  Re  Re4  1  0.99940067  0.19258589  0.37579596  1
  Re  Re5  1  0.19628839  0.00000000  0.37519461  1
  Re  Re6  1  0.62360371  0.62420404  0.81678893  1
  Re  Re7  1  0.82109478  0.62480539  0.62480539  1
  Re  Re8  1  0.62360371  0.81678893  0.62420404  1
  Tc  Tc0  1  0.39678727  0.67413926  0.00000000  1
  Tc  Tc1  1  0.72264701  0.32586074  0.32586074  1
  Tc  Tc2  1  0.39678727  1.00000000  0.67413926  1
  Tc  Tc3  1  0.67250171  0.39548763  0.00000000  1
  Tc  Tc4  1  0.99918058  0.39474400  0.67533054  1
  Tc  Tc5  1  0.32385004  0.71941346  0.32466946  1
  Tc  Tc6  1  0.32385004  0.32466946  0.71941346  1
  Tc  Tc7  1  0.99918058  0.67533054  0.39474400  1
  Tc  Tc8  1  0.67250171  1.00000000  0.39548763  1
  Tc  Tc9  1  0.60443658  0.60525600  0.28058654  1
  Tc  Tc10  1  0.27701409  0.60451237  0.60451237  1
  Tc  Tc11  1  0.60443658  0.28058654  0.60525600  1
  Tc  Tc12  1  0.37555308  0.19337993  1.00000000  1
  Tc  Tc13  1  0.18217214  0.80662007  0.80662007  1
  Tc  Tc14  1  0.37555308  0.00000000  0.19337993  1
loop_
_geom_bond_atom_site_label_1
_geom_bond_atom_site_label_2
_geom_bond_distance
_geom_bond_site_symmetry_2
Mg0 Tc13 3.020224 1_544
Mg0 Tc12 3.020231 1_554
Mg0 Tc14 3.020232 1_555
Mg0 Re4 3.030364 1_455
Mg0 Re1 3.030364 1_455
Mg0 Re6 3.030367 1_444
Mg0 Re8 3.030367 1_444
Mg0 Re3 3.030371 1_445
Mg0 Re2 3.030372 1_454
Mg0 Re5 3.032335 1_555
Mg0 Re0 3.032335 1_554
Mg0 Re7 3.032337 1_444
Mg0 Zr2 3.106721 1_544
Mg0 Zr3 3.106722 1_555
Mg0 Zr1 3.106722 1_544
Mg0 Zr0 3.107665 1_455
Re0 Tc12 2.470644 1_555
Re0 Tc0 2.514823 1_556
Re0 Re1 2.664845 1_456
Re0 Re2 2.664845 1_455
Re0 Tc5 2.771193 1_556
Re0 Tc4 2.771194 1_455
Re0 Tc6 2.859633 1_555
Re0 Tc9 2.859634 1_556
Re0 Zr2 2.984025 1_545
Re0 Zr3 2.984025 1_556
Re0 Zr1 3.099440 1_555
Re1 Re4 2.514716 1_555
Re1 Tc7 2.522153 1_555
Re1 Re2 2.643407 1_554
Re1 Tc5 2.754406 1_655
Re1 Tc3 2.769064 1_555
Re1 Tc1 2.860537 1_555
Re1 Tc10 2.883039 1_655
Re1 Zr3 2.989618 1_655
Re1 Zr0 2.992369 1_555
Re1 Zr1 3.083153 1_654
Re2 Re8 2.514730 1_545
Re2 Tc11 2.522146 1_555
Re2 Tc4 2.754401 1_555
Re2 Tc3 2.769059 1_556
Re2 Tc2 2.860530 1_545
Re2 Tc8 2.883039 1_545
Re2 Zr2 2.989622 1_645
Re2 Zr0 2.992373 1_556
Re2 Zr1 3.083146 1_655
Re3 Re6 2.514730 1_554
Re3 Tc9 2.522146 1_555
Re3 Re4 2.643407 1_565
Re3 Re5 2.664845 1_665
Re3 Tc7 2.754402 1_555
Re3 Tc8 2.769058 1_555
Re3 Tc0 2.860530 1_555
Re3 Tc3 2.883040 1_555
Re3 Zr1 2.989622 1_654
Re3 Zr0 2.992374 1_565
Re3 Zr2 3.083146 1_655
Re4 Tc4 2.522152 1_555
Re4 Re5 2.664845 1_655
Re4 Tc6 2.754406 1_655
Re4 Tc8 2.769063 1_545
Re4 Tc1 2.860538 1_555
Re4 Tc10 2.883040 1_655
Re4 Zr3 2.989617 1_655
Re4 Zr0 2.992369 1_555
Re4 Zr2 3.083153 1_645
Re5 Tc14 2.470644 1_555
Re5 Tc2 2.514823 1_545
Re5 Tc6 2.771193 1_555
Re5 Tc7 2.771194 1_445
Re5 Tc11 2.859634 1_555
Re5 Tc5 2.859634 1_545
Re5 Zr1 2.984025 1_544
Re5 Zr3 2.984025 1_555
Re5 Zr2 3.099440 1_545
Re6 Tc6 2.522151 1_555
Re6 Re8 2.643394 1_555
Re6 Re7 2.664851 1_555
Re6 Tc11 2.754408 1_555
Re6 Tc10 2.769055 1_555
Re6 Tc0 2.860528 1_556
Re6 Tc3 2.883047 1_556
Re6 Zr1 2.989626 1_655
Re6 Zr0 2.992366 1_566
Re6 Zr3 3.083146 1_555
Re7 Tc13 2.470631 1_655
Re7 Tc1 2.514817 1_555
Re7 Re8 2.664852 1_555
Re7 Tc9 2.771196 1_555
Re7 Tc11 2.771196 1_555
Re7 Tc7 2.859627 1_555
Re7 Tc4 2.859628 1_555
Re7 Zr1 2.984024 1_655
Re7 Zr2 2.984024 1_655
Re7 Zr3 3.099447 1_555
Re8 Tc5 2.522151 1_555
Re8 Tc9 2.754408 1_555
Re8 Tc10 2.769054 1_555
Re8 Tc2 2.860529 1_555
Re8 Tc8 2.883047 1_555
Re8 Zr2 2.989626 1_655
Re8 Zr0 2.992366 1_566
Re8 Zr3 3.083146 1_555
Tc0 Tc14 2.775417 1_565
Tc0 Tc13 2.775422 1_554
Tc0 Zr0 2.780553 1_565
Tc0 Tc6 2.787735 1_554
Tc0 Tc9 2.787735 1_555
Tc0 Tc10 2.912861 1_554
Tc0 Tc8 2.912861 1_555
Tc0 Tc5 2.919201 1_555
Tc0 Tc4 2.919202 1_454
Tc0 Zr1 3.211280 1_554
Tc1 Tc14 2.775412 1_555
Tc1 Tc12 2.775412 1_554
Tc1 Zr0 2.780555 1_555
Tc1 Tc7 2.787739 1_555
Tc1 Tc4 2.787739 1_555
Tc1 Tc3 2.912862 1_555
Tc1 Tc8 2.912862 1_545
Tc1 Tc11 2.919197 1_555
Tc1 Tc9 2.919197 1_555
Tc1 Zr3 3.211272 1_555
Tc2 Zr0 2.780553 1_566
Tc2 Tc5 2.787735 1_555
Tc2 Tc3 2.912861 1_566
Tc2 Tc7 2.919202 1_455
Tc2 Tc6 2.919202 1_565
Tc2 Zr2 3.211280 1_555
Tc3 Tc9 2.786344 1_555
Tc3 Tc6 2.786345 1_554
Tc3 Zr1 2.799248 1_654
Tc3 Tc7 2.914123 1_555
Tc3 Zr0 3.219350 1_555
Tc4 Zr1 2.776029 1_655
Tc4 Tc6 2.898825 1_655
Tc4 Tc8 2.914123 1_545
Tc4 Zr2 3.214457 1_645
Tc5 Zr1 2.776030 1_554
Tc5 Tc8 2.786345 1_555
Tc5 Tc7 2.898825 1_455
Tc5 Tc9 2.898825 1_555
Tc5 Zr3 3.214457 1_555
Tc6 Zr2 2.776030 1_545
Tc6 Zr3 3.214457 1_555
Tc7 Zr2 2.776030 1_655
Tc7 Tc9 2.898825 1_555
Tc7 Zr1 3.214457 1_654
Tc8 Zr2 2.799249 1_655
Tc8 Tc9 2.914123 1_555
Tc8 Zr0 3.219349 1_565
Tc9 Zr3 2.776030 1_555
Tc9 Zr2 3.214457 1_655
Tc10 Tc13 2.501038 1_555
Tc10 Tc4 2.786345 1_455
Tc10 Tc7 2.786345 1_455
Tc10 Zr3 2.799248 1_555
Tc10 Tc2 2.912861 1_555
Tc10 Tc5 2.914123 1_555
Tc10 Tc6 2.914123 1_555
Tc10 Zr0 3.219350 1_566
Tc11 Zr3 2.776030 1_555
Tc11 Tc8 2.786345 1_545
Tc11 Tc2 2.787735 1_545
Tc11 Tc14 2.887959 1_555
Tc11 Tc6 2.898825 1_555
Tc11 Tc4 2.898825 1_555
Tc11 Tc3 2.914123 1_556
Tc11 Zr1 3.214457 1_655
Tc12 Tc3 2.501031 1_556
Tc12 Tc14 2.654306 1_556
Tc12 Tc13 2.654306 1_545
Tc12 Tc2 2.775416 1_545
Tc12 Tc6 2.887959 1_555
Tc12 Tc9 2.887960 1_556
Tc12 Zr3 2.982118 1_556
Tc12 Zr2 2.982119 1_545
Tc12 Zr0 3.067181 1_556
Tc13 Tc14 2.654306 1_566
Tc13 Tc2 2.775421 1_555
Tc13 Tc7 2.887959 1_455
Tc13 Tc4 2.887960 1_455
Tc13 Zr1 2.982114 1_555
Tc13 Zr2 2.982115 1_555
Tc13 Zr0 3.067188 1_566
Tc14 Tc8 2.501032 1_545
Tc14 Tc5 2.887960 1_545
Tc14 Zr3 2.982119 1_555
Tc14 Zr1 2.982119 1_544
Tc14 Zr0 3.067181 1_555
