# generated using pymatgen
data_Lu2Ga3Co
_symmetry_space_group_name_H-M   'P 1'
_cell_length_a   8.65382810
_cell_length_b   8.65382810
_cell_length_c   6.83180200
_cell_angle_alpha   90.00000000
_cell_angle_beta   90.00000000
_cell_angle_gamma   120.00000074
_symmetry_Int_Tables_number   1
_chemical_formula_structural   Lu2Ga3Co
_chemical_formula_sum   'Lu8 Ga12 Co4'
_cell_volume   443.08028609
_cell_formula_units_Z   4
loop_
 _symmetry_equiv_pos_site_id
 _symmetry_equiv_pos_as_xyz
  1  'x, y, z'
loop_
 _atom_site_type_symbol
 _atom_site_label
 _atom_site_symmetry_multiplicity
 _atom_site_fract_x
 _atom_site_fract_y
 _atom_site_fract_z
 _atom_site_occupancy
  Lu  Lu0  1  0.00000000  0.00000000  0.25000000  1
  Lu  Lu1  1  0.00000000  0.00000000  0.75000000  1
  Lu  Lu2  1  0.52639800  0.05279700  0.25000000  1
  Lu  Lu3  1  0.52639800  0.47360200  0.25000000  1
  Lu  Lu4  1  0.94720300  0.47360200  0.25000000  1
  Lu  Lu5  1  0.47360200  0.94720300  0.75000000  1
  Lu  Lu6  1  0.47360200  0.52639800  0.75000000  1
  Lu  Lu7  1  0.05279700  0.52639800  0.75000000  1
  Ga  Ga0  1  0.17274000  0.34548000  0.04711900  1
  Ga  Ga1  1  0.17274000  0.82726000  0.45288100  1
  Ga  Ga2  1  0.65452000  0.82726000  0.45288100  1
  Ga  Ga3  1  0.65452000  0.82726000  0.04711900  1
  Ga  Ga4  1  0.17274000  0.82726000  0.04711900  1
  Ga  Ga5  1  0.82726000  0.65452000  0.95288100  1
  Ga  Ga6  1  0.82726000  0.17274000  0.95288100  1
  Ga  Ga7  1  0.34548000  0.17274000  0.95288100  1
  Ga  Ga8  1  0.17274000  0.34548000  0.45288100  1
  Ga  Ga9  1  0.34548000  0.17274000  0.54711900  1
  Ga  Ga10  1  0.82726000  0.65452000  0.54711900  1
  Ga  Ga11  1  0.82726000  0.17274000  0.54711900  1
  Co  Co0  1  0.33333300  0.66666700  0.02444900  1
  Co  Co1  1  0.33333300  0.66666700  0.47555100  1
  Co  Co2  1  0.66666700  0.33333300  0.97555100  1
  Co  Co3  1  0.66666700  0.33333300  0.52444900  1
loop_
_geom_bond_atom_site_label_1
_geom_bond_atom_site_label_2
_geom_bond_distance
_geom_bond_site_symmetry_2
Lu0 Lu1 3.415901 1_554
Lu0 Lu1 3.415901 1_555
Ga0 Ga6 2.668021 1_454
Ga0 Ga7 2.668021 1_554
Ga0 Ga8 2.772086 1_555
Ga0 Lu0 2.936827 1_555
Ga0 Lu3 3.020555 1_555
Ga0 Lu4 3.020562 1_455
Ga0 Lu7 3.045321 1_554
Ga0 Lu6 3.045326 1_554
Ga0 Lu1 3.290010 1_554
Ga1 Ga10 2.668021 1_455
Ga1 Ga9 2.668021 1_565
Ga1 Ga4 2.772086 1_555
Ga1 Lu0 2.936827 1_565
Ga1 Lu2 3.020556 1_565
Ga1 Lu4 3.020556 1_455
Ga1 Lu5 3.045327 1_555
Ga1 Lu7 3.045327 1_555
Ga1 Lu1 3.290010 1_565
Ga2 Ga3 2.772086 1_555
Ga2 Lu0 2.936827 1_665
Ga2 Lu3 3.020555 1_555
Ga2 Lu2 3.020562 1_565
Ga2 Lu5 3.045321 1_555
Ga2 Lu6 3.045326 1_555
Ga2 Lu1 3.290010 1_665
Ga3 Ga6 2.668021 1_564
Ga3 Ga5 2.668021 1_554
Ga3 Lu0 2.936827 1_665
Ga3 Lu3 3.020555 1_555
Ga3 Lu2 3.020562 1_565
Ga3 Lu5 3.045321 1_554
Ga3 Lu6 3.045326 1_554
Ga3 Lu1 3.290010 1_664
Ga4 Ga5 2.668021 1_454
Ga4 Ga7 2.668021 1_564
Ga4 Lu0 2.936827 1_565
Ga4 Lu2 3.020556 1_565
Ga4 Lu4 3.020556 1_455
Ga4 Lu5 3.045327 1_554
Ga4 Lu7 3.045327 1_554
Ga4 Lu1 3.290010 1_564
Ga5 Lu1 2.936827 1_665
Ga5 Lu6 3.020555 1_555
Ga5 Lu7 3.020562 1_655
Ga5 Lu4 3.045321 1_556
Ga5 Lu3 3.045326 1_556
Ga5 Lu0 3.290010 1_666
Ga6 Lu1 2.936827 1_655
Ga6 Lu7 3.020556 1_655
Ga6 Lu5 3.020556 1_545
Ga6 Lu4 3.045327 1_556
Ga6 Lu2 3.045327 1_556
Ga6 Lu0 3.290010 1_656
Ga7 Ga9 2.772086 1_555
Ga7 Lu1 2.936827 1_555
Ga7 Lu6 3.020555 1_555
Ga7 Lu5 3.020562 1_545
Ga7 Lu2 3.045321 1_556
Ga7 Lu3 3.045326 1_556
Ga7 Lu0 3.290010 1_556
Ga8 Ga9 2.668021 1_555
Ga8 Lu0 2.936827 1_555
Ga8 Lu3 3.020555 1_555
Ga8 Lu4 3.020562 1_455
Ga8 Lu7 3.045321 1_555
Ga8 Lu6 3.045326 1_555
Ga8 Lu1 3.290010 1_555
Ga9 Lu1 2.936827 1_555
Ga9 Lu6 3.020555 1_555
Ga9 Lu5 3.020562 1_545
Ga9 Lu2 3.045321 1_555
Ga9 Lu3 3.045326 1_555
Ga9 Lu0 3.290010 1_555
Ga10 Ga2 2.668021 1_555
Ga10 Ga5 2.772086 1_555
Ga10 Lu1 2.936827 1_665
Ga10 Lu6 3.020555 1_555
Ga10 Lu7 3.020562 1_655
Ga10 Lu4 3.045321 1_555
Ga10 Lu3 3.045326 1_555
Ga10 Lu0 3.290010 1_665
Ga11 Ga2 2.668021 1_545
Ga11 Ga8 2.668021 1_655
Ga11 Ga6 2.772086 1_555
Ga11 Lu1 2.936827 1_655
Ga11 Lu7 3.020556 1_655
Ga11 Lu5 3.020556 1_545
Ga11 Lu4 3.045327 1_555
Ga11 Lu2 3.045327 1_555
Ga11 Lu0 3.290010 1_655
Co0 Ga4 2.412085 1_555
Co0 Ga0 2.412092 1_555
Co0 Ga3 2.412092 1_555
Co0 Lu5 2.817071 1_554
Co0 Lu7 2.817071 1_554
Co0 Lu6 2.817082 1_554
Co0 Co1 3.081840 1_555
Co1 Ga1 2.412085 1_555
Co1 Ga8 2.412092 1_555
Co1 Ga2 2.412092 1_555
Co1 Lu5 2.817071 1_555
Co1 Lu7 2.817071 1_555
Co1 Lu6 2.817082 1_555
Co2 Ga6 2.412085 1_555
Co2 Ga7 2.412092 1_555
Co2 Ga5 2.412092 1_555
Co2 Lu4 2.817071 1_556
Co2 Lu2 2.817071 1_556
Co2 Lu3 2.817082 1_556
Co2 Co3 3.081840 1_555
Co3 Ga11 2.412085 1_555
Co3 Ga9 2.412092 1_555
Co3 Ga10 2.412092 1_555
Co3 Lu4 2.817071 1_555
Co3 Lu2 2.817071 1_555
Co3 Lu3 2.817082 1_555
