# generated using pymatgen
data_Zr5NiSnBi2
_symmetry_space_group_name_H-M   'P 1'
_cell_length_a   5.86336891
_cell_length_b   8.75198012
_cell_length_c   8.75198106
_cell_angle_alpha   120.26251674
_cell_angle_beta   90.00000000
_cell_angle_gamma   90.00000000
_symmetry_Int_Tables_number   1
_chemical_formula_structural   Zr5NiSnBi2
_chemical_formula_sum   'Zr10 Ni2 Sn2 Bi4'
_cell_volume   387.91414692
_cell_formula_units_Z   2
loop_
 _symmetry_equiv_pos_site_id
 _symmetry_equiv_pos_as_xyz
  1  'x, y, z'
loop_
 _atom_site_type_symbol
 _atom_site_label
 _atom_site_symmetry_multiplicity
 _atom_site_fract_x
 _atom_site_fract_y
 _atom_site_fract_z
 _atom_site_occupancy
  Zr  Zr0  1  0.75000000  0.74842453  0.74842453  1
  Zr  Zr1  1  0.25000000  0.25157547  0.25157547  1
  Zr  Zr2  1  0.75000000  0.00781924  0.25198066  1
  Zr  Zr3  1  0.25000000  0.99218076  0.74801934  1
  Zr  Zr4  1  0.75000000  0.25198066  0.00781924  1
  Zr  Zr5  1  0.25000000  0.74801934  0.99218076  1
  Zr  Zr6  1  0.00000000  0.66430797  0.33569203  1
  Zr  Zr7  1  0.00000000  0.33569203  0.66430797  1
  Zr  Zr8  1  0.50000000  0.33569203  0.66430797  1
  Zr  Zr9  1  0.50000000  0.66430797  0.33569203  1
  Ni  Ni0  1  0.00000000  0.00000000  0.00000000  1
  Ni  Ni1  1  0.50000000  0.00000000  0.00000000  1
  Sn  Sn0  1  0.75000000  0.39541119  0.39541119  1
  Sn  Sn1  1  0.25000000  0.60458881  0.60458881  1
  Bi  Bi0  1  0.75000000  0.00165897  0.61225983  1
  Bi  Bi1  1  0.25000000  0.99834103  0.38774017  1
  Bi  Bi2  1  0.75000000  0.61225983  0.00165897  1
  Bi  Bi3  1  0.25000000  0.38774017  0.99834103  1
loop_
_geom_bond_atom_site_label_1
_geom_bond_atom_site_label_2
_geom_bond_distance
_geom_bond_site_symmetry_2
Zr6 Zr9 2.931684 1_455
Zr6 Zr9 2.931684 1_555
Zr7 Zr8 2.931684 1_455
Zr7 Zr8 2.931684 1_555
Ni0 Zr4 2.620065 1_455
Ni0 Zr5 2.620065 1_544
Ni0 Zr2 2.620065 1_455
Ni0 Zr3 2.620065 1_544
Ni0 Zr1 2.637826 1_555
Ni0 Zr0 2.637826 1_444
Ni0 Ni1 2.931684 1_455
Ni0 Ni1 2.931684 1_555
Ni1 Zr4 2.620065 1_555
Ni1 Zr5 2.620065 1_544
Ni1 Zr2 2.620065 1_555
Ni1 Zr3 2.620065 1_544
Ni1 Zr1 2.637826 1_555
Ni1 Zr0 2.637826 1_544
Sn0 Zr2 2.964929 1_555
Sn0 Zr4 2.964930 1_555
Sn0 Zr6 3.033155 1_655
Sn0 Zr9 3.033155 1_555
Sn0 Zr7 3.033155 1_655
Sn0 Zr8 3.033155 1_555
Sn0 Zr0 3.077299 1_555
Sn0 Zr1 3.188559 1_655
Sn0 Zr1 3.188559 1_555
Sn1 Zr3 2.964929 1_555
Sn1 Zr5 2.964930 1_555
Sn1 Zr8 3.033155 1_555
Sn1 Zr7 3.033155 1_555
Sn1 Zr9 3.033155 1_555
Sn1 Zr6 3.033155 1_555
Sn1 Zr1 3.077299 1_555
Sn1 Zr0 3.188559 1_555
Sn1 Zr0 3.188559 1_455
Bi0 Zr0 2.999049 1_545
Bi0 Zr4 3.023253 1_556
Bi0 Zr6 3.085709 1_645
Bi0 Zr9 3.085709 1_545
Bi0 Zr8 3.092006 1_555
Bi0 Zr7 3.092006 1_655
Bi0 Zr3 3.180052 1_545
Bi0 Zr3 3.180052 1_645
Bi0 Zr2 3.180668 1_555
Bi1 Zr1 2.999049 1_565
Bi1 Zr5 3.023253 1_554
Bi1 Zr8 3.085709 1_565
Bi1 Zr7 3.085709 1_565
Bi1 Zr9 3.092006 1_555
Bi1 Zr6 3.092006 1_555
Bi1 Zr2 3.180052 1_465
Bi1 Zr2 3.180052 1_565
Bi1 Zr3 3.180668 1_555
Bi2 Zr0 2.999050 1_554
Bi2 Zr2 3.023253 1_565
Bi2 Zr7 3.085709 1_654
Bi2 Zr8 3.085709 1_554
Bi2 Zr9 3.092007 1_555
Bi2 Zr6 3.092007 1_655
Bi2 Zr5 3.180052 1_554
Bi2 Zr5 3.180052 1_654
Bi2 Zr4 3.180668 1_555
Bi3 Zr1 2.999050 1_556
Bi3 Zr3 3.023253 1_545
Bi3 Zr9 3.085709 1_556
Bi3 Zr6 3.085709 1_556
Bi3 Zr7 3.092007 1_555
Bi3 Zr8 3.092007 1_555
Bi3 Zr4 3.180052 1_556
Bi3 Zr4 3.180052 1_456
Bi3 Zr5 3.180668 1_555
