# generated using pymatgen
data_Tm(MnGe)2
_symmetry_space_group_name_H-M   'P 1'
_cell_length_a   4.04053495
_cell_length_b   4.04053489
_cell_length_c   6.16234064
_cell_angle_alpha   109.13779185
_cell_angle_beta   109.13779363
_cell_angle_gamma   89.99999087
_symmetry_Int_Tables_number   1
_chemical_formula_structural   Tm(MnGe)2
_chemical_formula_sum   'Tm1 Mn2 Ge2'
_cell_volume   89.13934568
_cell_formula_units_Z   1
loop_
 _symmetry_equiv_pos_site_id
 _symmetry_equiv_pos_as_xyz
  1  'x, y, z'
loop_
 _atom_site_type_symbol
 _atom_site_label
 _atom_site_symmetry_multiplicity
 _atom_site_fract_x
 _atom_site_fract_y
 _atom_site_fract_z
 _atom_site_occupancy
  Tm  Tm0  1  0.00000000  0.00000000  -0.00000000  1
  Mn  Mn0  1  0.25000000  0.75000000  0.50000000  1
  Mn  Mn1  1  0.75000000  0.25000000  0.50000000  1
  Ge  Ge0  1  0.61224735  0.61224735  0.22449570  1
  Ge  Ge1  1  0.38775265  0.38775265  0.77550430  1
loop_
_geom_bond_atom_site_label_1
_geom_bond_atom_site_label_2
_geom_bond_distance
_geom_bond_site_symmetry_2
Ge0 Ge1 2.451488 1_554
Ge0 Mn1 2.518778 1_555
Ge0 Mn0 2.518778 1_555
Ge0 Mn0 2.518781 1_655
Ge0 Mn1 2.518781 1_565
Ge0 Tm0 3.108921 1_555
Ge0 Tm0 3.108924 1_565
Ge0 Tm0 3.108924 1_655
Ge0 Tm0 3.108927 1_665
Ge1 Mn0 2.518778 1_555
Ge1 Mn1 2.518778 1_555
Ge1 Mn1 2.518781 1_455
Ge1 Mn0 2.518781 1_545
Ge1 Tm0 3.108921 1_666
Ge1 Tm0 3.108924 1_656
Ge1 Tm0 3.108924 1_566
Ge1 Tm0 3.108927 1_556
