# generated using pymatgen
data_KBaCrH6
_symmetry_space_group_name_H-M   'P 1'
_cell_length_a   5.69582774
_cell_length_b   5.69582723
_cell_length_c   5.69582785
_cell_angle_alpha   60.00000202
_cell_angle_beta   60.00000494
_cell_angle_gamma   59.99999713
_symmetry_Int_Tables_number   1
_chemical_formula_structural   KBaCrH6
_chemical_formula_sum   'K1 Ba1 Cr1 H6'
_cell_volume   130.66387212
_cell_formula_units_Z   1
loop_
 _symmetry_equiv_pos_site_id
 _symmetry_equiv_pos_as_xyz
  1  'x, y, z'
loop_
 _atom_site_type_symbol
 _atom_site_label
 _atom_site_symmetry_multiplicity
 _atom_site_fract_x
 _atom_site_fract_y
 _atom_site_fract_z
 _atom_site_occupancy
  K  K0  1  0.25000000  0.25000000  0.25000000  1
  Ba  Ba0  1  0.75000000  0.75000000  0.75000000  1
  Cr  Cr0  1  0.00000000  0.00000000  0.00000000  1
  H  H0  1  0.78518371  0.21481629  0.21481629  1
  H  H1  1  0.21481629  0.78518371  0.21481629  1
  H  H2  1  0.78518371  0.78518371  0.21481629  1
  H  H3  1  0.21481629  0.78518371  0.78518371  1
  H  H4  1  0.78518371  0.21481629  0.78518371  1
  H  H5  1  0.21481629  0.21481629  0.78518371  1
loop_
_geom_bond_atom_site_label_1
_geom_bond_atom_site_label_2
_geom_bond_distance
_geom_bond_site_symmetry_2
Ba0 H5 2.861981 1_655
Ba0 H4 2.861981 1_555
Ba0 H4 2.861981 1_565
Ba0 H5 2.861981 1_565
Ba0 H0 2.861981 1_556
Ba0 H3 2.861981 1_655
Ba0 H3 2.861981 1_555
Ba0 H2 2.861981 1_556
Ba0 H0 2.861981 1_565
Ba0 H2 2.861981 1_555
Ba0 H1 2.861981 1_556
Ba0 H1 2.861981 1_655
Cr0 H0 1.730370 1_455
Cr0 H1 1.730370 1_545
Cr0 H3 1.730370 1_544
Cr0 H4 1.730370 1_454
Cr0 H5 1.730370 1_554
Cr0 H2 1.730370 1_445
H0 K0 2.861981 1_655
H0 K0 2.861981 1_555
H1 K0 2.861981 1_555
H1 K0 2.861981 1_565
H2 K0 2.861981 1_655
H2 K0 2.861981 1_565
H3 K0 2.861981 1_556
H3 K0 2.861981 1_565
H4 K0 2.861981 1_556
H4 K0 2.861981 1_655
H5 K0 2.861981 1_556
H5 K0 2.861981 1_555
