# generated using pymatgen
data_Lu5GaBiPd
_symmetry_space_group_name_H-M   'P 1'
_cell_length_a   8.43290656
_cell_length_b   8.43290677
_cell_length_c   8.51591782
_cell_angle_alpha   124.75715746
_cell_angle_beta   124.75716086
_cell_angle_gamma   81.29062390
_symmetry_Int_Tables_number   1
_chemical_formula_structural   Lu5GaBiPd
_chemical_formula_sum   'Lu10 Ga2 Bi2 Pd2'
_cell_volume   395.02279943
_cell_formula_units_Z   2
loop_
 _symmetry_equiv_pos_site_id
 _symmetry_equiv_pos_as_xyz
  1  'x, y, z'
loop_
 _atom_site_type_symbol
 _atom_site_label
 _atom_site_symmetry_multiplicity
 _atom_site_fract_x
 _atom_site_fract_y
 _atom_site_fract_z
 _atom_site_occupancy
  Lu  Lu0  1  0.00000000  0.00000000  0.00000000  1
  Lu  Lu1  1  0.50000000  0.50000000  0.00000000  1
  Lu  Lu2  1  0.78678911  0.28678911  0.79571111  1
  Lu  Lu3  1  0.21321089  0.71321089  0.20428889  1
  Lu  Lu4  1  0.49107900  0.99107900  0.20428889  1
  Lu  Lu5  1  0.29739237  0.47552798  0.50000000  1
  Lu  Lu6  1  0.02447202  0.20260763  0.50000000  1
  Lu  Lu7  1  0.50892100  0.00892100  0.79571111  1
  Lu  Lu8  1  0.70260763  0.52447202  0.50000000  1
  Lu  Lu9  1  0.97552798  0.79739237  0.50000000  1
  Ga  Ga0  1  0.14227258  0.64227258  0.78454416  1
  Ga  Ga1  1  0.85772742  0.35772742  0.21545584  1
  Bi  Bi0  1  0.25000000  0.25000000  0.00000000  1
  Bi  Bi1  1  0.75000000  0.75000000  0.00000000  1
  Pd  Pd0  1  0.63555954  0.86444046  0.50000000  1
  Pd  Pd1  1  0.36444046  0.13555954  0.50000000  1
loop_
_geom_bond_atom_site_label_1
_geom_bond_atom_site_label_2
_geom_bond_distance
_geom_bond_site_symmetry_2
Lu0 Pd1 3.078245 1_555
Lu0 Pd0 3.078245 1_444
Lu1 Pd0 3.078245 1_555
Lu1 Pd1 3.078245 1_554
Lu2 Pd1 2.853144 1_555
Lu2 Pd0 2.853144 1_545
Lu3 Pd0 2.853144 1_555
Lu3 Pd1 2.853144 1_565
Lu4 Pd0 2.853152 1_555
Lu4 Pd1 2.853152 1_565
Lu5 Pd1 2.836904 1_555
Lu6 Pd1 2.836904 1_555
Lu7 Pd1 2.853152 1_555
Lu7 Pd0 2.853152 1_545
Lu8 Pd0 2.836904 1_555
Lu9 Pd0 2.836904 1_555
Ga0 Lu4 2.953809 1_556
Ga0 Lu3 2.953810 1_556
Ga0 Lu9 2.955024 1_455
Ga0 Lu5 2.955024 1_555
Ga0 Lu8 2.955032 1_455
Ga0 Lu6 2.955032 1_555
Ga0 Lu1 3.001529 1_556
Ga0 Lu0 3.001530 1_566
Ga1 Lu7 2.953809 1_554
Ga1 Lu2 2.953810 1_554
Ga1 Lu6 2.955024 1_655
Ga1 Lu8 2.955024 1_555
Ga1 Lu5 2.955032 1_655
Ga1 Lu9 2.955032 1_555
Ga1 Lu1 3.001529 1_555
Ga1 Lu0 3.001530 1_655
Bi0 Lu1 3.199261 1_555
Bi0 Lu0 3.199261 1_555
Bi0 Lu4 3.298678 1_545
Bi0 Lu7 3.298678 1_554
Bi0 Lu2 3.298683 1_454
Bi0 Lu3 3.298684 1_555
Bi0 Lu8 3.311122 1_555
Bi0 Lu9 3.311122 1_444
Bi0 Lu6 3.311122 1_554
Bi0 Lu5 3.311122 1_555
Bi1 Lu0 3.199261 1_665
Bi1 Lu1 3.199261 1_555
Bi1 Lu7 3.298678 1_564
Bi1 Lu4 3.298678 1_555
Bi1 Lu3 3.298683 1_655
Bi1 Lu2 3.298684 1_554
Bi1 Lu5 3.311122 1_554
Bi1 Lu6 3.311122 1_665
Bi1 Lu9 3.311122 1_555
Bi1 Lu8 3.311122 1_554
