# generated using pymatgen
data_Rb2Hf(IO3)6
_symmetry_space_group_name_H-M   'P 1'
_cell_length_a   7.69596574
_cell_length_b   7.69596623
_cell_length_c   7.69596537
_cell_angle_alpha   97.32165538
_cell_angle_beta   97.32165781
_cell_angle_gamma   97.32165186
_symmetry_Int_Tables_number   1
_chemical_formula_structural   Rb2Hf(IO3)6
_chemical_formula_sum   'Rb2 Hf1 I6 O18'
_cell_volume   443.60459316
_cell_formula_units_Z   1
loop_
 _symmetry_equiv_pos_site_id
 _symmetry_equiv_pos_as_xyz
  1  'x, y, z'
loop_
 _atom_site_type_symbol
 _atom_site_label
 _atom_site_symmetry_multiplicity
 _atom_site_fract_x
 _atom_site_fract_y
 _atom_site_fract_z
 _atom_site_occupancy
  Rb  Rb0  1  0.16611010  0.16611010  0.16611010  1
  Rb  Rb1  1  0.83388990  0.83388990  0.83388990  1
  Hf  Hf0  1  0.50000000  0.50000000  0.50000000  1
  I  I0  1  0.70545652  0.33715334  0.11636968  1
  I  I1  1  0.66284666  0.88363032  0.29454348  1
  I  I2  1  0.11636968  0.70545652  0.33715334  1
  I  I3  1  0.88363032  0.29454348  0.66284666  1
  I  I4  1  0.29454348  0.66284666  0.88363032  1
  I  I5  1  0.33715334  0.11636968  0.70545652  1
  O  O0  1  0.90158474  0.39141649  0.28065177  1
  O  O1  1  0.60858351  0.71934823  0.09841526  1
  O  O2  1  0.71934823  0.09841526  0.60858351  1
  O  O3  1  0.65972236  0.71815273  0.45054481  1
  O  O4  1  0.69024594  0.09974383  0.07586065  1
  O  O5  1  0.45054481  0.65972236  0.71815273  1
  O  O6  1  0.28184727  0.54945519  0.34027764  1
  O  O7  1  0.34027764  0.28184727  0.54945519  1
  O  O8  1  0.09974383  0.07586065  0.69024594  1
  O  O9  1  0.92413935  0.30975406  0.90025617  1
  O  O10  1  0.71815273  0.45054481  0.65972236  1
  O  O11  1  0.09841526  0.60858351  0.71934823  1
  O  O12  1  0.54945519  0.34027764  0.28184727  1
  O  O13  1  0.30975406  0.90025617  0.92413935  1
  O  O14  1  0.90025617  0.92413935  0.30975406  1
  O  O15  1  0.39141649  0.28065177  0.90158474  1
  O  O16  1  0.28065177  0.90158474  0.39141649  1
  O  O17  1  0.07586065  0.69024594  0.09974383  1
loop_
_geom_bond_atom_site_label_1
_geom_bond_atom_site_label_2
_geom_bond_distance
_geom_bond_site_symmetry_2
Hf0 O10 2.056852 1_555
Hf0 O6 2.056852 1_555
Hf0 O5 2.056852 1_555
Hf0 O12 2.056852 1_555
Hf0 O3 2.056852 1_555
Hf0 O7 2.056852 1_555
I0 O4 1.800049 1_555
I0 O0 1.808182 1_555
I0 O12 1.858239 1_555
I0 O9 2.521431 1_554
I1 O14 1.800049 1_555
I1 O1 1.808182 1_555
I1 O3 1.858239 1_555
I1 O4 2.521431 1_565
I2 O17 1.800049 1_555
I2 O16 1.808182 1_555
I2 O6 1.858239 1_555
I2 O14 2.521431 1_455
I3 O9 1.800049 1_555
I3 O2 1.808182 1_555
I3 O10 1.858239 1_555
I3 O8 2.521431 1_655
I4 O13 1.800049 1_555
I4 O11 1.808182 1_555
I4 O5 1.858239 1_555
I4 O17 2.521431 1_556
I5 O8 1.800049 1_555
I5 O15 1.808182 1_555
I5 O7 1.858239 1_555
I5 O13 2.521431 1_545
O0 Rb0 2.982542 1_655
O1 Rb1 2.982542 1_554
O2 Rb1 2.982542 1_545
O3 Rb1 3.051521 1_555
O4 Rb1 3.001013 1_544
O5 Rb1 3.051521 1_555
O6 Rb0 3.051521 1_555
O7 Rb0 3.051521 1_555
O8 Rb1 3.001013 1_445
O9 Rb0 3.001013 1_656
O10 Rb1 3.051521 1_555
O11 Rb1 2.982542 1_455
O12 Rb0 3.051521 1_555
O13 Rb0 3.001013 1_566
O14 Rb0 3.001013 1_665
O15 Rb0 2.982542 1_556
O16 Rb0 2.982542 1_565
O17 Rb1 3.001013 1_454
