# generated using pymatgen
data_Ti5GaBi2
_symmetry_space_group_name_H-M   'P 1'
_cell_length_a   5.24286746
_cell_length_b   7.96607702
_cell_length_c   7.96607699
_cell_angle_alpha   83.78325409
_cell_angle_beta   70.78739382
_cell_angle_gamma   70.78739513
_symmetry_Int_Tables_number   1
_chemical_formula_structural   Ti5GaBi2
_chemical_formula_sum   'Ti10 Ga2 Bi4'
_cell_volume   296.67539760
_cell_formula_units_Z   2
loop_
 _symmetry_equiv_pos_site_id
 _symmetry_equiv_pos_as_xyz
  1  'x, y, z'
loop_
 _atom_site_type_symbol
 _atom_site_label
 _atom_site_symmetry_multiplicity
 _atom_site_fract_x
 _atom_site_fract_y
 _atom_site_fract_z
 _atom_site_occupancy
  Ti  Ti0  1  0.71214007  0.85999245  0.71572740  1
  Ti  Ti1  1  0.28785993  0.14000755  0.28427260  1
  Ti  Ti2  1  0.78785993  0.28427260  0.14000755  1
  Ti  Ti3  1  0.21214007  0.71572740  0.85999245  1
  Ti  Ti4  1  0.57213153  0.71572740  0.14000755  1
  Ti  Ti5  1  0.42786847  0.28427260  0.85999245  1
  Ti  Ti6  1  0.07213153  0.14000755  0.71572740  1
  Ti  Ti7  1  0.92786847  0.85999245  0.28427260  1
  Ti  Ti8  1  0.75000000  0.50000000  0.50000000  1
  Ti  Ti9  1  0.25000000  0.50000000  0.50000000  1
  Ga  Ga0  1  0.25000000  0.00000000  0.00000000  1
  Ga  Ga1  1  0.75000000  0.00000000  0.00000000  1
  Bi  Bi0  1  0.16502103  0.50000000  0.16995894  1
  Bi  Bi1  1  0.83497897  0.50000000  0.83004106  1
  Bi  Bi2  1  0.33497897  0.83004106  0.50000000  1
  Bi  Bi3  1  0.66502103  0.16995894  0.50000000  1
loop_
_geom_bond_atom_site_label_1
_geom_bond_atom_site_label_2
_geom_bond_distance
_geom_bond_site_symmetry_2
Ti0 Ti3 3.037650 1_555
Ti0 Ti3 3.037650 1_655
Ti0 Ti7 3.245575 1_555
Ti0 Ti6 3.362847 1_665
Ti0 Ti6 3.362856 1_565
Ti0 Ti5 3.371059 1_565
Ti0 Ti4 3.371059 1_556
Ti0 Ti8 3.418291 1_555
Ti0 Ti9 3.418292 1_655
Ti1 Ti2 3.037650 1_555
Ti1 Ti2 3.037650 1_455
Ti1 Ti6 3.245575 1_555
Ti1 Ti7 3.362847 1_445
Ti1 Ti7 3.362856 1_545
Ti1 Ti4 3.371059 1_545
Ti1 Ti5 3.371059 1_554
Ti1 Ti9 3.418291 1_555
Ti1 Ti8 3.418292 1_455
Ti2 Ti4 3.245575 1_555
Ti2 Ti5 3.362847 1_554
Ti2 Ti5 3.362856 1_654
Ti2 Ti6 3.371059 1_654
Ti2 Ti7 3.371059 1_545
Ti2 Ti8 3.418291 1_555
Ti2 Ti9 3.418292 1_555
Ti3 Ti5 3.245575 1_555
Ti3 Ti4 3.362847 1_556
Ti3 Ti4 3.362856 1_456
Ti3 Ti7 3.371059 1_456
Ti3 Ti6 3.371059 1_565
Ti3 Ti9 3.418291 1_555
Ti3 Ti8 3.418292 1_555
Ti4 Ti7 3.037641 1_455
Ti4 Ti7 3.037658 1_555
Ti4 Ti9 3.418290 1_555
Ti4 Ti8 3.418294 1_555
Ti5 Ti6 3.037641 1_655
Ti5 Ti6 3.037658 1_555
Ti5 Ti8 3.418290 1_555
Ti5 Ti9 3.418294 1_555
Ti6 Ti8 3.418290 1_455
Ti6 Ti9 3.418294 1_555
Ti7 Ti9 3.418290 1_655
Ti7 Ti8 3.418294 1_555
Ti8 Ti9 2.621434 1_555
Ti8 Ti9 2.621434 1_655
Ga0 Ga1 2.621434 1_555
Ga0 Ga1 2.621434 1_455
Ga0 Ti7 2.720291 1_445
Ga0 Ti4 2.720291 1_545
Ga0 Ti1 2.720293 1_555
Ga0 Ti3 2.720293 1_544
Ga0 Ti0 2.720294 1_544
Ga0 Ti2 2.720294 1_455
Ga0 Ti5 2.720296 1_554
Ga0 Ti6 2.720296 1_554
Ga1 Ti6 2.720291 1_654
Ga1 Ti5 2.720291 1_554
Ga1 Ti0 2.720293 1_544
Ga1 Ti2 2.720293 1_555
Ga1 Ti1 2.720294 1_555
Ga1 Ti3 2.720294 1_644
Ga1 Ti4 2.720296 1_545
Ga1 Ti7 2.720296 1_545
Bi0 Ti9 2.807449 1_555
Bi0 Ti8 2.807452 1_455
Bi0 Ti5 2.840814 1_554
Bi0 Ti3 2.840814 1_554
Bi0 Ti7 2.841258 1_455
Bi0 Ti1 2.841259 1_555
Bi0 Ti4 3.091290 1_555
Bi0 Ti2 3.091295 1_555
Bi0 Ti2 3.091299 1_455
Bi0 Ti4 3.091304 1_455
Bi1 Ti8 2.807449 1_555
Bi1 Ti9 2.807452 1_655
Bi1 Ti4 2.840814 1_556
Bi1 Ti2 2.840814 1_556
Bi1 Ti6 2.841258 1_655
Bi1 Ti0 2.841259 1_555
Bi1 Ti5 3.091290 1_555
Bi1 Ti3 3.091295 1_555
Bi1 Ti3 3.091299 1_655
Bi1 Ti5 3.091304 1_655
Bi2 Ti9 2.807449 1_555
Bi2 Ti8 2.807452 1_555
Bi2 Ti6 2.840814 1_565
Bi2 Ti1 2.840814 1_565
Bi2 Ti4 2.841258 1_555
Bi2 Ti3 2.841259 1_555
Bi2 Ti7 3.091290 1_455
Bi2 Ti0 3.091295 1_455
Bi2 Ti0 3.091299 1_555
Bi2 Ti7 3.091304 1_555
Bi3 Ti8 2.807449 1_555
Bi3 Ti9 2.807452 1_555
Bi3 Ti7 2.840814 1_545
Bi3 Ti0 2.840814 1_545
Bi3 Ti5 2.841258 1_555
Bi3 Ti2 2.841259 1_555
Bi3 Ti6 3.091290 1_655
Bi3 Ti1 3.091295 1_655
Bi3 Ti1 3.091299 1_555
Bi3 Ti6 3.091304 1_555
