# generated using pymatgen
data_SmSF
_symmetry_space_group_name_H-M   'P 1'
_cell_length_a   3.87544003
_cell_length_b   3.87544003
_cell_length_c   6.88513885
_cell_angle_alpha   90.00000000
_cell_angle_beta   90.00000000
_cell_angle_gamma   90.00000000
_symmetry_Int_Tables_number   1
_chemical_formula_structural   SmSF
_chemical_formula_sum   'Sm2 S2 F2'
_cell_volume   103.40814430
_cell_formula_units_Z   2
loop_
 _symmetry_equiv_pos_site_id
 _symmetry_equiv_pos_as_xyz
  1  'x, y, z'
loop_
 _atom_site_type_symbol
 _atom_site_label
 _atom_site_symmetry_multiplicity
 _atom_site_fract_x
 _atom_site_fract_y
 _atom_site_fract_z
 _atom_site_occupancy
  Sm  Sm0  1  0.75000000  0.75000000  0.77248875  1
  Sm  Sm1  1  0.25000000  0.25000000  0.22751125  1
  S  S0  1  0.25000000  0.25000000  0.64724136  1
  S  S1  1  0.75000000  0.75000000  0.35275864  1
  F  F0  1  0.25000000  0.75000000  -0.00000000  1
  F  F1  1  0.75000000  0.25000000  -0.00000000  1
loop_
_geom_bond_atom_site_label_1
_geom_bond_atom_site_label_2
_geom_bond_distance
_geom_bond_site_symmetry_2
S0 Sm0 2.872831 1_555
S0 Sm0 2.872831 1_445
S0 Sm0 2.872831 1_545
S0 Sm0 2.872831 1_455
S0 Sm1 2.889900 1_555
S1 Sm1 2.872831 1_565
S1 Sm1 2.872831 1_655
S1 Sm1 2.872831 1_665
S1 Sm1 2.872831 1_555
S1 Sm0 2.889900 1_555
F0 Sm0 2.491689 1_454
F0 Sm0 2.491689 1_554
F0 Sm1 2.491689 1_565
F0 Sm1 2.491689 1_555
F1 Sm0 2.491689 1_544
F1 Sm0 2.491689 1_554
F1 Sm1 2.491689 1_555
F1 Sm1 2.491689 1_655
