# generated using pymatgen
data_Li2MgSnS4
_symmetry_space_group_name_H-M   'P 1'
_cell_length_a   6.87414618
_cell_length_b   6.44315376
_cell_length_c   10.29185810
_cell_angle_alpha   51.41620780
_cell_angle_beta   90.00000000
_cell_angle_gamma   90.00000000
_symmetry_Int_Tables_number   1
_chemical_formula_structural   Li2MgSnS4
_chemical_formula_sum   'Li4 Mg2 Sn2 S8'
_cell_volume   356.32759087
_cell_formula_units_Z   2
loop_
 _symmetry_equiv_pos_site_id
 _symmetry_equiv_pos_as_xyz
  1  'x, y, z'
loop_
 _atom_site_type_symbol
 _atom_site_label
 _atom_site_symmetry_multiplicity
 _atom_site_fract_x
 _atom_site_fract_y
 _atom_site_fract_z
 _atom_site_occupancy
  Li  Li0  1  0.34082456  0.16143177  0.22766656  1
  Li  Li1  1  0.65917544  0.16143177  0.72766656  1
  Li  Li2  1  0.82985759  0.91354420  0.47858567  1
  Li  Li3  1  0.17014241  0.91354420  0.97858567  1
  Mg  Mg0  1  0.17086827  0.41756862  0.47428087  1
  Mg  Mg1  1  0.82913173  0.41756862  0.97428087  1
  Sn  Sn0  1  0.66982251  0.66707592  0.22733533  1
  Sn  Sn1  1  0.33017749  0.66707592  0.72733533  1
  S  S0  1  0.34104636  0.54462375  0.22535358  1
  S  S1  1  0.65895364  0.54462375  0.72535358  1
  S  S2  1  0.83196383  0.29880907  0.47262356  1
  S  S3  1  0.16803617  0.29880907  0.97262356  1
  S  S4  1  0.83155551  0.79301958  0.98076225  1
  S  S5  1  0.16844449  0.79301958  0.48076225  1
  S  S6  1  0.67537574  0.03885509  0.22849318  1
  S  S7  1  0.32462426  0.03885509  0.72849318  1
loop_
_geom_bond_atom_site_label_1
_geom_bond_atom_site_label_2
_geom_bond_distance
_geom_bond_site_symmetry_2
Li0 S6 2.429879 1_555
Li0 S0 2.454190 1_555
Li0 S5 2.472147 1_545
Li0 S3 2.487210 1_554
Li1 S7 2.429879 1_555
Li1 S1 2.454190 1_555
Li1 S4 2.472147 1_545
Li1 S2 2.487210 1_555
Li2 S6 2.410911 1_565
Li2 S1 2.439372 1_555
Li2 S2 2.444566 1_565
Li2 S5 2.449303 1_655
Li3 S7 2.410911 1_565
Li3 S0 2.439372 1_556
Li3 S3 2.444566 1_565
Li3 S4 2.449303 1_455
Mg0 S7 2.439954 1_555
Mg0 S0 2.446660 1_555
Mg0 S2 2.455501 1_455
Mg0 S5 2.461298 1_555
Mg1 S6 2.439954 1_556
Mg1 S1 2.446660 1_555
Mg1 S3 2.455501 1_655
Mg1 S4 2.461298 1_555
S0 Sn0 2.398088 1_555
S1 Sn1 2.398088 1_555
S2 Sn0 2.402898 1_555
S3 Sn1 2.402898 1_555
S4 Sn0 2.401222 1_556
S5 Sn1 2.401222 1_555
S6 Sn0 2.403183 1_545
S7 Sn1 2.403183 1_545
