# generated using pymatgen
data_V10B4PS
_symmetry_space_group_name_H-M   'P 1'
_cell_length_a   6.63698444
_cell_length_b   6.63698487
_cell_length_c   6.63698427
_cell_angle_alpha   129.15619554
_cell_angle_beta   129.15620370
_cell_angle_gamma   74.75937645
_symmetry_Int_Tables_number   1
_chemical_formula_structural   V10B4PS
_chemical_formula_sum   'V10 B4 P1 S1'
_cell_volume   171.24558812
_cell_formula_units_Z   1
loop_
 _symmetry_equiv_pos_site_id
 _symmetry_equiv_pos_as_xyz
  1  'x, y, z'
loop_
 _atom_site_type_symbol
 _atom_site_label
 _atom_site_symmetry_multiplicity
 _atom_site_fract_x
 _atom_site_fract_y
 _atom_site_fract_z
 _atom_site_occupancy
  V  V0  1  0.52851729  0.68982107  0.49923193  1
  V  V1  1  0.02928636  0.52851729  0.83869622  1
  V  V2  1  0.68982107  0.19058914  0.16130378  1
  V  V3  1  0.97148271  0.47071364  0.16130378  1
  V  V4  1  0.19058914  0.02928636  0.50076807  1
  V  V5  1  0.47071364  0.30941086  0.49923193  1
  V  V6  1  0.81017893  0.97148271  0.50076807  1
  V  V7  1  0.30941086  0.81017893  0.83869622  1
  V  V8  1  0.99859176  0.99859176  1.00000000  1
  V  V9  1  0.50140824  0.50140824  0.00000000  1
  B  B0  1  0.61511377  0.11511377  0.73022654  1
  B  B1  1  0.11511377  0.38488623  0.50000000  1
  B  B2  1  0.88488623  0.61511377  0.50000000  1
  B  B3  1  0.38488623  0.88488623  0.26977346  1
  P  P0  1  0.75000000  0.75000000  0.00000000  1
  S  S0  1  0.25000000  0.25000000  0.00000000  1
loop_
_geom_bond_atom_site_label_1
_geom_bond_atom_site_label_2
_geom_bond_distance
_geom_bond_site_symmetry_2
B0 B3 1.855292 1_545
B0 V6 2.216254 1_545
B0 V4 2.216260 1_555
B0 V5 2.218843 1_555
B0 V0 2.218851 1_545
B0 V3 2.282870 1_556
B0 V2 2.282881 1_556
B0 V8 2.289221 1_545
B0 V9 2.289221 1_556
B1 B2 1.855300 1_455
B1 V3 2.216254 1_455
B1 V1 2.216254 1_555
B1 V2 2.218849 1_455
B1 V7 2.218849 1_555
B1 V5 2.282868 1_555
B1 V4 2.282868 1_555
B1 V9 2.289219 1_556
B1 V8 2.289219 1_444
B2 V7 2.216259 1_655
B2 V2 2.216260 1_555
B2 V1 2.218847 1_655
B2 V3 2.218847 1_555
B2 V0 2.282874 1_555
B2 V6 2.282874 1_555
B2 V9 2.289219 1_555
B2 V8 2.289219 1_555
B3 V0 2.216254 1_555
B3 V5 2.216261 1_565
B3 V4 2.218843 1_565
B3 V6 2.218850 1_555
B3 V1 2.282870 1_554
B3 V7 2.282881 1_554
B3 V8 2.289221 1_454
B3 V9 2.289222 1_555
P0 V0 2.414326 1_554
P0 V6 2.414326 1_555
P0 V7 2.414326 1_554
P0 V2 2.414326 1_565
P0 V4 2.414327 1_665
P0 V5 2.414327 1_554
P0 V3 2.414332 1_555
P0 V1 2.414332 1_654
P0 V8 2.622119 1_554
P0 V9 2.622119 1_555
S0 V1 2.409155 1_554
S0 V3 2.409155 1_455
S0 V6 2.409155 1_444
S0 V2 2.409155 1_555
S0 V0 2.409155 1_555
S0 V7 2.409156 1_544
S0 V5 2.409157 1_555
S0 V4 2.409157 1_554
S0 V9 2.651827 1_555
S0 V8 2.651827 1_444
