# generated using pymatgen
data_CdHg3(CO3)4
_symmetry_space_group_name_H-M   'P 1'
_cell_length_a   11.46659835
_cell_length_b   11.46659820
_cell_length_c   11.46659729
_cell_angle_alpha   25.36687091
_cell_angle_beta   25.36687140
_cell_angle_gamma   25.36686996
_symmetry_Int_Tables_number   1
_chemical_formula_structural   CdHg3(CO3)4
_chemical_formula_sum   'Cd1 Hg3 C4 O12'
_cell_volume   243.55145518
_cell_formula_units_Z   1
loop_
 _symmetry_equiv_pos_site_id
 _symmetry_equiv_pos_as_xyz
  1  'x, y, z'
loop_
 _atom_site_type_symbol
 _atom_site_label
 _atom_site_symmetry_multiplicity
 _atom_site_fract_x
 _atom_site_fract_y
 _atom_site_fract_z
 _atom_site_occupancy
  Cd  Cd0  1  0.50000000  0.50000000  0.50000000  1
  Hg  Hg0  1  0.00000000  0.00000000  0.00000000  1
  Hg  Hg1  1  0.75169537  0.75169537  0.75169537  1
  Hg  Hg2  1  0.24830463  0.24830463  0.24830463  1
  C  C0  1  0.87371722  0.87371722  0.87371722  1
  C  C1  1  0.37566014  0.37566014  0.37566014  1
  C  C2  1  0.12628278  0.12628278  0.12628278  1
  C  C3  1  0.62433986  0.62433986  0.62433986  1
  O  O0  1  0.86123679  0.13610563  0.62378376  1
  O  O1  1  0.37710392  0.63135778  0.11850014  1
  O  O2  1  0.62378376  0.86123679  0.13610563  1
  O  O3  1  0.11850014  0.37710392  0.63135778  1
  O  O4  1  0.13610563  0.62378376  0.86123679  1
  O  O5  1  0.63135778  0.11850014  0.37710392  1
  O  O6  1  0.37621624  0.13876321  0.86389437  1
  O  O7  1  0.88149986  0.62289608  0.36864222  1
  O  O8  1  0.86389437  0.37621624  0.13876321  1
  O  O9  1  0.36864222  0.88149986  0.62289608  1
  O  O10  1  0.13876321  0.86389437  0.37621624  1
  O  O11  1  0.62289608  0.36864222  0.88149986  1
loop_
_geom_bond_atom_site_label_1
_geom_bond_atom_site_label_2
_geom_bond_distance
_geom_bond_site_symmetry_2
Cd0 O4 2.295708 1_555
Cd0 O8 2.295708 1_555
Cd0 O0 2.295708 1_555
Cd0 O10 2.295708 1_555
Cd0 O2 2.295708 1_555
Cd0 O6 2.295708 1_555
Hg0 O5 2.370371 1_455
Hg0 O9 2.370371 1_544
Hg0 O1 2.370371 1_545
Hg0 O11 2.370371 1_454
Hg0 O3 2.370371 1_554
Hg0 O7 2.370371 1_445
Hg1 O5 2.370311 1_565
Hg1 O3 2.370311 1_655
Hg1 O1 2.370312 1_556
Hg1 O8 2.380481 1_556
Hg1 O6 2.380481 1_565
Hg1 O10 2.380482 1_655
Hg2 O9 2.370311 1_545
Hg2 O7 2.370311 1_455
Hg2 O11 2.370312 1_554
Hg2 O4 2.380481 1_554
Hg2 O2 2.380481 1_545
Hg2 O0 2.380482 1_455
C0 O0 1.290995 1_565
C0 O4 1.290995 1_655
C0 O2 1.290995 1_556
C1 O1 1.291214 1_555
C1 O5 1.291214 1_555
C1 O3 1.291214 1_555
C2 O10 1.290995 1_545
C2 O8 1.290995 1_455
C2 O6 1.290995 1_554
C3 O11 1.291214 1_555
C3 O9 1.291214 1_555
C3 O7 1.291214 1_555
