# generated using pymatgen
data_Pr2Ru2O7
_symmetry_space_group_name_H-M   'P 1'
_cell_length_a   7.44049716
_cell_length_b   7.44049716
_cell_length_c   7.44049716
_cell_angle_alpha   60.00000000
_cell_angle_beta   60.00000000
_cell_angle_gamma   60.00000000
_symmetry_Int_Tables_number   1
_chemical_formula_structural   Pr2Ru2O7
_chemical_formula_sum   'Pr4 Ru4 O14'
_cell_volume   291.26672231
_cell_formula_units_Z   2
loop_
 _symmetry_equiv_pos_site_id
 _symmetry_equiv_pos_as_xyz
  1  'x, y, z'
loop_
 _atom_site_type_symbol
 _atom_site_label
 _atom_site_symmetry_multiplicity
 _atom_site_fract_x
 _atom_site_fract_y
 _atom_site_fract_z
 _atom_site_occupancy
  Pr  Pr0  1  0.62500000  0.62500000  0.12500000  1
  Pr  Pr1  1  0.62500000  0.12500000  0.62500000  1
  Pr  Pr2  1  0.12500000  0.62500000  0.62500000  1
  Pr  Pr3  1  0.62500000  0.62500000  0.62500000  1
  Ru  Ru0  1  0.12500000  0.12500000  0.62500000  1
  Ru  Ru1  1  0.12500000  0.62500000  0.12500000  1
  Ru  Ru2  1  0.62500000  0.12500000  0.12500000  1
  Ru  Ru3  1  0.12500000  0.12500000  0.12500000  1
  O  O0  1  0.75000000  0.75000000  0.75000000  1
  O  O1  1  0.50000000  0.50000000  0.50000000  1
  O  O2  1  0.04590100  0.45409900  0.04590100  1
  O  O3  1  0.79590100  0.20409900  0.79590100  1
  O  O4  1  0.04590100  0.04590100  0.45409900  1
  O  O5  1  0.45409900  0.04590100  0.04590100  1
  O  O6  1  0.04590100  0.45409900  0.45409900  1
  O  O7  1  0.45409900  0.45409900  0.04590100  1
  O  O8  1  0.45409900  0.04590100  0.45409900  1
  O  O9  1  0.20409900  0.79590100  0.79590100  1
  O  O10  1  0.79590100  0.20409900  0.20409900  1
  O  O11  1  0.20409900  0.79590100  0.20409900  1
  O  O12  1  0.79590100  0.79590100  0.20409900  1
  O  O13  1  0.20409900  0.20409900  0.79590100  1
loop_
_geom_bond_atom_site_label_1
_geom_bond_atom_site_label_2
_geom_bond_distance
_geom_bond_site_symmetry_2
O0 Pr2 2.278178 1_655
O0 Pr0 2.278178 1_556
O0 Pr3 2.278178 1_555
O0 Pr1 2.278178 1_565
O1 Pr2 2.278178 1_555
O1 Pr3 2.278178 1_555
O1 Pr1 2.278178 1_555
O1 Pr0 2.278178 1_555
O2 Ru3 2.037845 1_555
O2 Ru1 2.037845 1_555
O2 Pr2 2.587264 1_554
O2 Pr0 2.587264 1_455
O3 Ru2 2.037845 1_556
O3 Ru0 2.037845 1_655
O3 Pr3 2.587264 1_555
O3 Pr1 2.587264 1_555
O4 Ru3 2.037845 1_555
O4 Ru0 2.037845 1_555
O4 Pr2 2.587264 1_545
O4 Pr1 2.587264 1_455
O5 Ru3 2.037845 1_555
O5 Ru2 2.037845 1_555
O5 Pr0 2.587264 1_545
O5 Pr1 2.587264 1_554
O6 Ru1 2.037845 1_555
O6 Ru0 2.037845 1_555
O6 Pr3 2.587264 1_455
O6 Pr2 2.587264 1_555
O7 Ru1 2.037845 1_555
O7 Ru2 2.037845 1_555
O7 Pr3 2.587264 1_554
O7 Pr0 2.587264 1_555
O8 Ru0 2.037845 1_555
O8 Ru2 2.037845 1_555
O8 Pr3 2.587264 1_545
O8 Pr1 2.587264 1_555
O9 Ru0 2.037845 1_565
O9 Ru1 2.037845 1_556
O9 Pr2 2.587264 1_555
O9 Pr3 2.587264 1_555
O10 Ru2 2.037845 1_555
O10 Ru3 2.037845 1_655
O10 Pr0 2.587264 1_555
O10 Pr1 2.587264 1_555
O11 Ru1 2.037845 1_555
O11 Ru3 2.037845 1_565
O11 Pr2 2.587264 1_555
O11 Pr0 2.587264 1_555
O12 Ru2 2.037845 1_565
O12 Ru1 2.037845 1_655
O12 Pr0 2.587264 1_555
O12 Pr3 2.587264 1_555
O13 Ru0 2.037845 1_555
O13 Ru3 2.037845 1_556
O13 Pr2 2.587264 1_555
O13 Pr1 2.587264 1_555
