# generated using pymatgen
data_Ti8CoAg3
_symmetry_space_group_name_H-M   'P 1'
_cell_length_a   5.90410886
_cell_length_b   5.90410886
_cell_length_c   45.24941339
_cell_angle_alpha   90.00000000
_cell_angle_beta   90.00000000
_cell_angle_gamma   90.00000000
_symmetry_Int_Tables_number   1
_chemical_formula_structural   Ti8CoAg3
_chemical_formula_sum   'Ti64 Co8 Ag24'
_cell_volume   1577.32674307
_cell_formula_units_Z   8
loop_
 _symmetry_equiv_pos_site_id
 _symmetry_equiv_pos_as_xyz
  1  'x, y, z'
loop_
 _atom_site_type_symbol
 _atom_site_label
 _atom_site_symmetry_multiplicity
 _atom_site_fract_x
 _atom_site_fract_y
 _atom_site_fract_z
 _atom_site_occupancy
  Ti  Ti0_0  1  0.25000000  0.25000000  0.03347138  1
  Ti  Ti0_1  1  0.25000000  0.25000000  0.53347138  1
  Ti  Ti0_2  1  0.25000000  0.75000000  0.03347138  1
  Ti  Ti0_3  1  0.25000000  0.75000000  0.53347138  1
  Ti  Ti0_4  1  0.75000000  0.25000000  0.03347138  1
  Ti  Ti0_5  1  0.75000000  0.25000000  0.53347138  1
  Ti  Ti0_6  1  0.75000000  0.75000000  0.03347138  1
  Ti  Ti0_7  1  0.75000000  0.75000000  0.53347138  1
  Ti  Ti1_0  1  0.00000000  0.00000000  0.16411699  1
  Ti  Ti1_1  1  0.00000000  0.00000000  0.66411699  1
  Ti  Ti1_2  1  0.00000000  0.50000000  0.16411699  1
  Ti  Ti1_3  1  0.00000000  0.50000000  0.66411699  1
  Ti  Ti1_4  1  0.50000000  0.00000000  0.16411699  1
  Ti  Ti1_5  1  0.50000000  0.00000000  0.66411699  1
  Ti  Ti1_6  1  0.50000000  0.50000000  0.16411699  1
  Ti  Ti1_7  1  0.50000000  0.50000000  0.66411699  1
  Ti  Ti2_0  1  0.25000000  0.25000000  0.29500415  1
  Ti  Ti2_1  1  0.25000000  0.25000000  0.79500415  1
  Ti  Ti2_2  1  0.25000000  0.75000000  0.29500415  1
  Ti  Ti2_3  1  0.25000000  0.75000000  0.79500415  1
  Ti  Ti2_4  1  0.75000000  0.25000000  0.29500415  1
  Ti  Ti2_5  1  0.75000000  0.25000000  0.79500415  1
  Ti  Ti2_6  1  0.75000000  0.75000000  0.29500415  1
  Ti  Ti2_7  1  0.75000000  0.75000000  0.79500415  1
  Ti  Ti3_0  1  0.00000000  0.00000000  0.42548854  1
  Ti  Ti3_1  1  0.00000000  0.00000000  0.92548854  1
  Ti  Ti3_2  1  0.00000000  0.50000000  0.42548854  1
  Ti  Ti3_3  1  0.00000000  0.50000000  0.92548854  1
  Ti  Ti3_4  1  0.50000000  0.00000000  0.42548854  1
  Ti  Ti3_5  1  0.50000000  0.00000000  0.92548854  1
  Ti  Ti3_6  1  0.50000000  0.50000000  0.42548854  1
  Ti  Ti3_7  1  0.50000000  0.50000000  0.92548854  1
  Ti  Ti4_0  1  0.00000000  0.00000000  0.07451146  1
  Ti  Ti4_1  1  0.00000000  0.00000000  0.57451146  1
  Ti  Ti4_2  1  0.00000000  0.50000000  0.07451146  1
  Ti  Ti4_3  1  0.00000000  0.50000000  0.57451146  1
  Ti  Ti4_4  1  0.50000000  0.00000000  0.07451146  1
  Ti  Ti4_5  1  0.50000000  0.00000000  0.57451146  1
  Ti  Ti4_6  1  0.50000000  0.50000000  0.07451146  1
  Ti  Ti4_7  1  0.50000000  0.50000000  0.57451146  1
  Ti  Ti5_0  1  0.25000000  0.25000000  0.20499585  1
  Ti  Ti5_1  1  0.25000000  0.25000000  0.70499585  1
  Ti  Ti5_2  1  0.25000000  0.75000000  0.20499585  1
  Ti  Ti5_3  1  0.25000000  0.75000000  0.70499585  1
  Ti  Ti5_4  1  0.75000000  0.25000000  0.20499585  1
  Ti  Ti5_5  1  0.75000000  0.25000000  0.70499585  1
  Ti  Ti5_6  1  0.75000000  0.75000000  0.20499585  1
  Ti  Ti5_7  1  0.75000000  0.75000000  0.70499585  1
  Ti  Ti6_0  1  0.00000000  0.00000000  0.33588301  1
  Ti  Ti6_1  1  0.00000000  0.00000000  0.83588301  1
  Ti  Ti6_2  1  0.00000000  0.50000000  0.33588301  1
  Ti  Ti6_3  1  0.00000000  0.50000000  0.83588301  1
  Ti  Ti6_4  1  0.50000000  0.00000000  0.33588301  1
  Ti  Ti6_5  1  0.50000000  0.00000000  0.83588301  1
  Ti  Ti6_6  1  0.50000000  0.50000000  0.33588301  1
  Ti  Ti6_7  1  0.50000000  0.50000000  0.83588301  1
  Ti  Ti7_0  1  0.25000000  0.25000000  0.46652862  1
  Ti  Ti7_1  1  0.25000000  0.25000000  0.96652862  1
  Ti  Ti7_2  1  0.25000000  0.75000000  0.46652862  1
  Ti  Ti7_3  1  0.25000000  0.75000000  0.96652862  1
  Ti  Ti7_4  1  0.75000000  0.25000000  0.46652862  1
  Ti  Ti7_5  1  0.75000000  0.25000000  0.96652862  1
  Ti  Ti7_6  1  0.75000000  0.75000000  0.46652862  1
  Ti  Ti7_7  1  0.75000000  0.75000000  0.96652862  1
  Co  Co0_0  1  0.00000000  0.00000000  0.00000000  1
  Co  Co0_1  1  0.00000000  0.00000000  0.50000000  1
  Co  Co0_2  1  0.00000000  0.50000000  0.00000000  1
  Co  Co0_3  1  0.00000000  0.50000000  0.50000000  1
  Co  Co0_4  1  0.50000000  0.00000000  0.00000000  1
  Co  Co0_5  1  0.50000000  0.00000000  0.50000000  1
  Co  Co0_6  1  0.50000000  0.50000000  0.00000000  1
  Co  Co0_7  1  0.50000000  0.50000000  0.50000000  1
  Ag  Ag0_0  1  0.25000000  0.25000000  0.11918734  1
  Ag  Ag0_1  1  0.25000000  0.25000000  0.61918734  1
  Ag  Ag0_2  1  0.25000000  0.75000000  0.11918734  1
  Ag  Ag0_3  1  0.25000000  0.75000000  0.61918734  1
  Ag  Ag0_4  1  0.75000000  0.25000000  0.11918734  1
  Ag  Ag0_5  1  0.75000000  0.25000000  0.61918734  1
  Ag  Ag0_6  1  0.75000000  0.75000000  0.11918734  1
  Ag  Ag0_7  1  0.75000000  0.75000000  0.61918734  1
  Ag  Ag1_0  1  0.00000000  0.00000000  0.25000000  1
  Ag  Ag1_1  1  0.00000000  0.00000000  0.75000000  1
  Ag  Ag1_2  1  0.00000000  0.50000000  0.25000000  1
  Ag  Ag1_3  1  0.00000000  0.50000000  0.75000000  1
  Ag  Ag1_4  1  0.50000000  0.00000000  0.25000000  1
  Ag  Ag1_5  1  0.50000000  0.00000000  0.75000000  1
  Ag  Ag1_6  1  0.50000000  0.50000000  0.25000000  1
  Ag  Ag1_7  1  0.50000000  0.50000000  0.75000000  1
  Ag  Ag2_0  1  0.25000000  0.25000000  0.38081266  1
  Ag  Ag2_1  1  0.25000000  0.25000000  0.88081266  1
  Ag  Ag2_2  1  0.25000000  0.75000000  0.38081266  1
  Ag  Ag2_3  1  0.25000000  0.75000000  0.88081266  1
  Ag  Ag2_4  1  0.75000000  0.25000000  0.38081266  1
  Ag  Ag2_5  1  0.75000000  0.25000000  0.88081266  1
  Ag  Ag2_6  1  0.75000000  0.75000000  0.38081266  1
  Ag  Ag2_7  1  0.75000000  0.75000000  0.88081266  1
loop_
_geom_bond_atom_site_label_1
_geom_bond_atom_site_label_2
_geom_bond_distance
_geom_bond_site_symmetry_2
Ti1_0 Ti5_0 2.789062 1_555
Ti1_0 Ti5_2 2.789062 1_545
Ti1_0 Ti5_4 2.789062 1_455
Ti1_0 Ti5_6 2.789062 1_445
Ti1_0 Ti1_4 2.952054 1_455
Ti1_0 Ti1_4 2.952054 1_555
Ti1_0 Ti1_2 2.952054 1_545
Ti1_0 Ti1_2 2.952054 1_555
Ti1_1 Ti5_1 2.789062 1_555
Ti1_1 Ti5_5 2.789062 1_455
Ti1_1 Ti5_3 2.789062 1_545
Ti1_1 Ti5_7 2.789062 1_445
Ti1_1 Ti1_3 2.952054 1_555
Ti1_1 Ti1_3 2.952054 1_545
Ti1_1 Ti1_5 2.952054 1_455
Ti1_1 Ti1_5 2.952054 1_555
Ti1_2 Ti5_0 2.789062 1_555
Ti1_2 Ti5_2 2.789062 1_555
Ti1_2 Ti5_6 2.789062 1_455
Ti1_2 Ti5_4 2.789062 1_455
Ti1_2 Ti1_6 2.952054 1_555
Ti1_2 Ti1_6 2.952054 1_455
Ti1_3 Ti5_3 2.789062 1_555
Ti1_3 Ti5_1 2.789062 1_555
Ti1_3 Ti5_7 2.789062 1_455
Ti1_3 Ti5_5 2.789062 1_455
Ti1_3 Ti1_7 2.952054 1_455
Ti1_3 Ti1_7 2.952054 1_555
Ti1_4 Ti5_4 2.789062 1_555
Ti1_4 Ti5_6 2.789062 1_545
Ti1_4 Ti5_0 2.789062 1_555
Ti1_4 Ti5_2 2.789062 1_545
Ti1_4 Ti1_6 2.952054 1_555
Ti1_4 Ti1_6 2.952054 1_545
Ti1_5 Ti5_5 2.789062 1_555
Ti1_5 Ti5_7 2.789062 1_545
Ti1_5 Ti5_1 2.789062 1_555
Ti1_5 Ti5_3 2.789062 1_545
Ti1_5 Ti1_7 2.952054 1_555
Ti1_5 Ti1_7 2.952054 1_545
Ti1_6 Ti5_6 2.789062 1_555
Ti1_6 Ti5_4 2.789062 1_555
Ti1_6 Ti5_0 2.789062 1_555
Ti1_6 Ti5_2 2.789062 1_555
Ti1_7 Ti5_7 2.789062 1_555
Ti1_7 Ti5_3 2.789062 1_555
Ti1_7 Ti5_5 2.789062 1_555
Ti1_7 Ti5_1 2.789062 1_555
Ti2_0 Ti6_6 2.789062 1_555
Ti2_0 Ti6_0 2.789062 1_555
Ti2_0 Ti6_2 2.789062 1_555
Ti2_0 Ti6_4 2.789062 1_555
Ti2_0 Ti2_4 2.952054 1_555
Ti2_0 Ti2_2 2.952054 1_555
Ti2_0 Ti2_4 2.952054 1_455
Ti2_0 Ti2_2 2.952054 1_545
Ti2_1 Ti6_5 2.789062 1_555
Ti2_1 Ti6_3 2.789062 1_555
Ti2_1 Ti6_1 2.789062 1_555
Ti2_1 Ti6_7 2.789062 1_555
Ti2_1 Ti2_3 2.952054 1_555
Ti2_1 Ti2_5 2.952054 1_555
Ti2_1 Ti2_3 2.952054 1_545
Ti2_1 Ti2_5 2.952054 1_455
Ti2_2 Ti6_2 2.789062 1_555
Ti2_2 Ti6_6 2.789062 1_555
Ti2_2 Ti6_4 2.789062 1_565
Ti2_2 Ti6_0 2.789062 1_565
Ti2_2 Ti2_6 2.952054 1_555
Ti2_2 Ti2_6 2.952054 1_455
Ti2_3 Ti6_3 2.789062 1_555
Ti2_3 Ti6_7 2.789062 1_555
Ti2_3 Ti6_5 2.789062 1_565
Ti2_3 Ti6_1 2.789062 1_565
Ti2_3 Ti2_7 2.952054 1_555
Ti2_3 Ti2_7 2.952054 1_455
Ti2_4 Ti6_4 2.789062 1_555
Ti2_4 Ti6_6 2.789062 1_555
Ti2_4 Ti6_2 2.789062 1_655
Ti2_4 Ti6_0 2.789062 1_655
Ti2_4 Ti2_6 2.952054 1_555
Ti2_4 Ti2_6 2.952054 1_545
Ti2_5 Ti6_7 2.789062 1_555
Ti2_5 Ti6_5 2.789062 1_555
Ti2_5 Ti6_3 2.789062 1_655
Ti2_5 Ti6_1 2.789062 1_655
Ti2_5 Ti2_7 2.952054 1_555
Ti2_5 Ti2_7 2.952054 1_545
Ti2_6 Ti6_6 2.789062 1_555
Ti2_6 Ti6_4 2.789062 1_565
Ti2_6 Ti6_2 2.789062 1_655
Ti2_6 Ti6_0 2.789062 1_665
Ti2_7 Ti6_7 2.789062 1_555
Ti2_7 Ti6_3 2.789062 1_655
Ti2_7 Ti6_5 2.789062 1_565
Ti2_7 Ti6_1 2.789062 1_665
Ti5_0 Ti5_2 2.952054 1_555
Ti5_0 Ti5_4 2.952054 1_555
Ti5_0 Ti5_2 2.952054 1_545
Ti5_0 Ti5_4 2.952054 1_455
Ti5_1 Ti5_3 2.952054 1_555
Ti5_1 Ti5_5 2.952054 1_555
Ti5_1 Ti5_5 2.952054 1_455
Ti5_1 Ti5_3 2.952054 1_545
Ti5_2 Ti5_6 2.952054 1_555
Ti5_2 Ti5_6 2.952054 1_455
Ti5_3 Ti5_7 2.952054 1_555
Ti5_3 Ti5_7 2.952054 1_455
Ti5_4 Ti5_6 2.952054 1_555
Ti5_4 Ti5_6 2.952054 1_545
Ti5_5 Ti5_7 2.952054 1_555
Ti5_5 Ti5_7 2.952054 1_545
Ti6_0 Ti6_4 2.952054 1_555
Ti6_0 Ti6_2 2.952054 1_555
Ti6_0 Ti6_2 2.952054 1_545
Ti6_0 Ti6_4 2.952054 1_455
Ti6_1 Ti6_5 2.952054 1_555
Ti6_1 Ti6_5 2.952054 1_455
Ti6_1 Ti6_3 2.952054 1_545
Ti6_1 Ti6_3 2.952054 1_555
Ti6_2 Ti6_6 2.952054 1_455
Ti6_2 Ti6_6 2.952054 1_555
Ti6_3 Ti6_7 2.952054 1_455
Ti6_3 Ti6_7 2.952054 1_555
Ti6_4 Ti6_6 2.952054 1_545
Ti6_4 Ti6_6 2.952054 1_555
Ti6_5 Ti6_7 2.952054 1_545
Ti6_5 Ti6_7 2.952054 1_555
Co0_0 Ti0_0 2.578993 1_555
Co0_0 Ti0_2 2.578993 1_545
Co0_0 Ti0_4 2.578993 1_455
Co0_0 Ti0_6 2.578993 1_445
Co0_0 Ti7_1 2.578993 1_554
Co0_0 Ti7_5 2.578993 1_454
Co0_0 Ti7_3 2.578993 1_544
Co0_0 Ti7_7 2.578993 1_444
Co0_1 Ti0_1 2.578993 1_555
Co0_1 Ti0_3 2.578993 1_545
Co0_1 Ti0_5 2.578993 1_455
Co0_1 Ti0_7 2.578993 1_445
Co0_1 Ti7_0 2.578993 1_555
Co0_1 Ti7_4 2.578993 1_455
Co0_1 Ti7_2 2.578993 1_545
Co0_1 Ti7_6 2.578993 1_445
Co0_2 Ti0_2 2.578993 1_555
Co0_2 Ti0_6 2.578993 1_455
Co0_2 Ti0_0 2.578993 1_555
Co0_2 Ti0_4 2.578993 1_455
Co0_2 Ti7_3 2.578993 1_554
Co0_2 Ti7_7 2.578993 1_454
Co0_2 Ti7_1 2.578993 1_554
Co0_2 Ti7_5 2.578993 1_454
Co0_3 Ti0_3 2.578993 1_555
Co0_3 Ti0_1 2.578993 1_555
Co0_3 Ti0_7 2.578993 1_455
Co0_3 Ti0_5 2.578993 1_455
Co0_3 Ti7_2 2.578993 1_555
Co0_3 Ti7_6 2.578993 1_455
Co0_3 Ti7_0 2.578993 1_555
Co0_3 Ti7_4 2.578993 1_455
Co0_4 Ti0_4 2.578993 1_555
Co0_4 Ti0_0 2.578993 1_555
Co0_4 Ti0_6 2.578993 1_545
Co0_4 Ti0_2 2.578993 1_545
Co0_4 Ti7_5 2.578993 1_554
Co0_4 Ti7_1 2.578993 1_554
Co0_4 Ti7_7 2.578993 1_544
Co0_4 Ti7_3 2.578993 1_544
Co0_5 Ti0_5 2.578993 1_555
Co0_5 Ti0_1 2.578993 1_555
Co0_5 Ti0_7 2.578993 1_545
Co0_5 Ti0_3 2.578993 1_545
Co0_5 Ti7_4 2.578993 1_555
Co0_5 Ti7_0 2.578993 1_555
Co0_5 Ti7_6 2.578993 1_545
Co0_5 Ti7_2 2.578993 1_545
Co0_6 Ti0_6 2.578993 1_555
Co0_6 Ti0_4 2.578993 1_555
Co0_6 Ti0_2 2.578993 1_555
Co0_6 Ti0_0 2.578993 1_555
Co0_6 Ti7_7 2.578993 1_554
Co0_6 Ti7_5 2.578993 1_554
Co0_6 Ti7_3 2.578993 1_554
Co0_6 Ti7_1 2.578993 1_554
Co0_7 Ti0_7 2.578993 1_555
Co0_7 Ti0_3 2.578993 1_555
Co0_7 Ti0_5 2.578993 1_555
Co0_7 Ti0_1 2.578993 1_555
Co0_7 Ti7_6 2.578993 1_555
Co0_7 Ti7_4 2.578993 1_555
Co0_7 Ti7_2 2.578993 1_555
Co0_7 Ti7_0 2.578993 1_555
Ag0_0 Ti4_2 2.905857 1_555
Ag0_0 Ti4_6 2.905857 1_555
Ag0_0 Ti4_0 2.905857 1_555
Ag0_0 Ti4_4 2.905857 1_555
Ag0_0 Ti1_4 2.913857 1_555
Ag0_0 Ti1_2 2.913857 1_555
Ag0_0 Ti1_6 2.913857 1_555
Ag0_0 Ti1_0 2.913857 1_555
Ag0_0 Ag0_4 2.952054 1_555
Ag0_0 Ag0_2 2.952054 1_555
Ag0_0 Ag0_4 2.952054 1_455
Ag0_0 Ag0_2 2.952054 1_545
Ag0_1 Ti4_1 2.905857 1_555
Ag0_1 Ti4_5 2.905857 1_555
Ag0_1 Ti4_3 2.905857 1_555
Ag0_1 Ti4_7 2.905857 1_555
Ag0_1 Ti1_5 2.913857 1_555
Ag0_1 Ti1_3 2.913857 1_555
Ag0_1 Ti1_7 2.913857 1_555
Ag0_1 Ti1_1 2.913857 1_555
Ag0_1 Ag0_3 2.952054 1_555
Ag0_1 Ag0_5 2.952054 1_555
Ag0_1 Ag0_3 2.952054 1_545
Ag0_1 Ag0_5 2.952054 1_455
Ag0_2 Ti4_2 2.905857 1_555
Ag0_2 Ti4_6 2.905857 1_555
Ag0_2 Ti4_4 2.905857 1_565
Ag0_2 Ti4_0 2.905857 1_565
Ag0_2 Ti1_2 2.913857 1_555
Ag0_2 Ti1_6 2.913857 1_555
Ag0_2 Ti1_4 2.913857 1_565
Ag0_2 Ti1_0 2.913857 1_565
Ag0_2 Ag0_6 2.952054 1_555
Ag0_2 Ag0_6 2.952054 1_455
Ag0_3 Ti4_3 2.905857 1_555
Ag0_3 Ti4_7 2.905857 1_555
Ag0_3 Ti4_1 2.905857 1_565
Ag0_3 Ti4_5 2.905857 1_565
Ag0_3 Ti1_3 2.913857 1_555
Ag0_3 Ti1_7 2.913857 1_555
Ag0_3 Ti1_5 2.913857 1_565
Ag0_3 Ti1_1 2.913857 1_565
Ag0_3 Ag0_7 2.952054 1_555
Ag0_3 Ag0_7 2.952054 1_455
Ag0_4 Ti4_6 2.905857 1_555
Ag0_4 Ti4_4 2.905857 1_555
Ag0_4 Ti4_0 2.905857 1_655
Ag0_4 Ti4_2 2.905857 1_655
Ag0_4 Ti1_4 2.913857 1_555
Ag0_4 Ti1_6 2.913857 1_555
Ag0_4 Ti1_0 2.913857 1_655
Ag0_4 Ti1_2 2.913857 1_655
Ag0_4 Ag0_6 2.952054 1_555
Ag0_4 Ag0_6 2.952054 1_545
Ag0_5 Ti4_7 2.905857 1_555
Ag0_5 Ti4_5 2.905857 1_555
Ag0_5 Ti4_3 2.905857 1_655
Ag0_5 Ti4_1 2.905857 1_655
Ag0_5 Ti1_7 2.913857 1_555
Ag0_5 Ti1_5 2.913857 1_555
Ag0_5 Ti1_3 2.913857 1_655
Ag0_5 Ti1_1 2.913857 1_655
Ag0_5 Ag0_7 2.952054 1_555
Ag0_5 Ag0_7 2.952054 1_545
Ag0_6 Ti4_6 2.905857 1_555
Ag0_6 Ti4_4 2.905857 1_565
Ag0_6 Ti4_2 2.905857 1_655
Ag0_6 Ti4_0 2.905857 1_665
Ag0_6 Ti1_6 2.913857 1_555
Ag0_6 Ti1_4 2.913857 1_565
Ag0_6 Ti1_2 2.913857 1_655
Ag0_6 Ti1_0 2.913857 1_665
Ag0_7 Ti4_7 2.905857 1_555
Ag0_7 Ti4_3 2.905857 1_655
Ag0_7 Ti4_5 2.905857 1_565
Ag0_7 Ti4_1 2.905857 1_665
Ag0_7 Ti1_7 2.913857 1_555
Ag0_7 Ti1_3 2.913857 1_655
Ag0_7 Ti1_5 2.913857 1_565
Ag0_7 Ti1_1 2.913857 1_665
Ag1_0 Ti2_0 2.916210 1_555
Ag1_0 Ti2_2 2.916210 1_545
Ag1_0 Ti2_4 2.916210 1_455
Ag1_0 Ti2_6 2.916210 1_445
Ag1_0 Ti5_0 2.916210 1_555
Ag1_0 Ti5_2 2.916210 1_545
Ag1_0 Ti5_4 2.916210 1_455
Ag1_0 Ti5_6 2.916210 1_445
Ag1_0 Ag1_4 2.952054 1_455
Ag1_0 Ag1_4 2.952054 1_555
Ag1_0 Ag1_2 2.952054 1_545
Ag1_0 Ag1_2 2.952054 1_555
Ag1_1 Ti2_1 2.916210 1_555
Ag1_1 Ti2_5 2.916210 1_455
Ag1_1 Ti2_3 2.916210 1_545
Ag1_1 Ti2_7 2.916210 1_445
Ag1_1 Ti5_1 2.916210 1_555
Ag1_1 Ti5_3 2.916210 1_545
Ag1_1 Ti5_5 2.916210 1_455
Ag1_1 Ti5_7 2.916210 1_445
Ag1_1 Ag1_5 2.952054 1_455
Ag1_1 Ag1_3 2.952054 1_545
Ag1_1 Ag1_3 2.952054 1_555
Ag1_1 Ag1_5 2.952054 1_555
Ag1_2 Ti2_2 2.916210 1_555
Ag1_2 Ti2_6 2.916210 1_455
Ag1_2 Ti2_0 2.916210 1_555
Ag1_2 Ti2_4 2.916210 1_455
Ag1_2 Ti5_2 2.916210 1_555
Ag1_2 Ti5_6 2.916210 1_455
Ag1_2 Ti5_0 2.916210 1_555
Ag1_2 Ti5_4 2.916210 1_455
Ag1_2 Ag1_6 2.952054 1_555
Ag1_2 Ag1_6 2.952054 1_455
Ag1_3 Ti2_3 2.916210 1_555
Ag1_3 Ti2_1 2.916210 1_555
Ag1_3 Ti2_7 2.916210 1_455
Ag1_3 Ti2_5 2.916210 1_455
Ag1_3 Ti5_3 2.916210 1_555
Ag1_3 Ti5_1 2.916210 1_555
Ag1_3 Ti5_7 2.916210 1_455
Ag1_3 Ti5_5 2.916210 1_455
Ag1_3 Ag1_7 2.952054 1_455
Ag1_3 Ag1_7 2.952054 1_555
Ag1_4 Ti2_4 2.916210 1_555
Ag1_4 Ti2_0 2.916210 1_555
Ag1_4 Ti2_6 2.916210 1_545
Ag1_4 Ti2_2 2.916210 1_545
Ag1_4 Ti5_4 2.916210 1_555
Ag1_4 Ti5_0 2.916210 1_555
Ag1_4 Ti5_2 2.916210 1_545
Ag1_4 Ti5_6 2.916210 1_545
Ag1_4 Ag1_6 2.952054 1_555
Ag1_4 Ag1_6 2.952054 1_545
Ag1_5 Ti2_5 2.916210 1_555
Ag1_5 Ti2_1 2.916210 1_555
Ag1_5 Ti2_7 2.916210 1_545
Ag1_5 Ti2_3 2.916210 1_545
Ag1_5 Ti5_5 2.916210 1_555
Ag1_5 Ti5_7 2.916210 1_545
Ag1_5 Ti5_1 2.916210 1_555
Ag1_5 Ti5_3 2.916210 1_545
Ag1_5 Ag1_7 2.952054 1_555
Ag1_5 Ag1_7 2.952054 1_545
Ag1_6 Ti2_4 2.916210 1_555
Ag1_6 Ti2_2 2.916210 1_555
Ag1_6 Ti2_6 2.916210 1_555
Ag1_6 Ti2_0 2.916210 1_555
Ag1_6 Ti5_6 2.916210 1_555
Ag1_6 Ti5_4 2.916210 1_555
Ag1_6 Ti5_2 2.916210 1_555
Ag1_6 Ti5_0 2.916210 1_555
Ag1_7 Ti2_7 2.916210 1_555
Ag1_7 Ti2_5 2.916210 1_555
Ag1_7 Ti2_3 2.916210 1_555
Ag1_7 Ti2_1 2.916210 1_555
Ag1_7 Ti5_5 2.916210 1_555
Ag1_7 Ti5_7 2.916210 1_555
Ag1_7 Ti5_3 2.916210 1_555
Ag1_7 Ti5_1 2.916210 1_555
Ag2_0 Ti3_2 2.905857 1_555
Ag2_0 Ti3_6 2.905857 1_555
Ag2_0 Ti3_0 2.905857 1_555
Ag2_0 Ti3_4 2.905857 1_555
Ag2_0 Ti6_0 2.913857 1_555
Ag2_0 Ti6_6 2.913857 1_555
Ag2_0 Ti6_4 2.913857 1_555
Ag2_0 Ti6_2 2.913857 1_555
Ag2_0 Ag2_4 2.952054 1_555
Ag2_0 Ag2_2 2.952054 1_555
Ag2_0 Ag2_4 2.952054 1_455
Ag2_0 Ag2_2 2.952054 1_545
Ag2_1 Ti3_5 2.905857 1_555
Ag2_1 Ti3_3 2.905857 1_555
Ag2_1 Ti3_1 2.905857 1_555
Ag2_1 Ti3_7 2.905857 1_555
Ag2_1 Ti6_3 2.913857 1_555
Ag2_1 Ti6_7 2.913857 1_555
Ag2_1 Ti6_1 2.913857 1_555
Ag2_1 Ti6_5 2.913857 1_555
Ag2_1 Ag2_3 2.952054 1_555
Ag2_1 Ag2_5 2.952054 1_555
Ag2_1 Ag2_5 2.952054 1_455
Ag2_1 Ag2_3 2.952054 1_545
Ag2_2 Ti3_2 2.905857 1_555
Ag2_2 Ti3_6 2.905857 1_555
Ag2_2 Ti3_0 2.905857 1_565
Ag2_2 Ti3_4 2.905857 1_565
Ag2_2 Ti6_6 2.913857 1_555
Ag2_2 Ti6_2 2.913857 1_555
Ag2_2 Ti6_0 2.913857 1_565
Ag2_2 Ti6_4 2.913857 1_565
Ag2_2 Ag2_6 2.952054 1_555
Ag2_2 Ag2_6 2.952054 1_455
Ag2_3 Ti3_7 2.905857 1_555
Ag2_3 Ti3_3 2.905857 1_555
Ag2_3 Ti3_5 2.905857 1_565
Ag2_3 Ti3_1 2.905857 1_565
Ag2_3 Ti6_3 2.913857 1_555
Ag2_3 Ti6_7 2.913857 1_555
Ag2_3 Ti6_1 2.913857 1_565
Ag2_3 Ti6_5 2.913857 1_565
Ag2_3 Ag2_7 2.952054 1_555
Ag2_3 Ag2_7 2.952054 1_455
Ag2_4 Ti3_4 2.905857 1_555
Ag2_4 Ti3_6 2.905857 1_555
Ag2_4 Ti3_2 2.905857 1_655
Ag2_4 Ti3_0 2.905857 1_655
Ag2_4 Ti6_6 2.913857 1_555
Ag2_4 Ti6_4 2.913857 1_555
Ag2_4 Ti6_0 2.913857 1_655
Ag2_4 Ti6_2 2.913857 1_655
Ag2_4 Ag2_6 2.952054 1_555
Ag2_4 Ag2_6 2.952054 1_545
Ag2_5 Ti3_7 2.905857 1_555
Ag2_5 Ti3_5 2.905857 1_555
Ag2_5 Ti3_3 2.905857 1_655
Ag2_5 Ti3_1 2.905857 1_655
Ag2_5 Ti6_7 2.913857 1_555
Ag2_5 Ti6_5 2.913857 1_555
Ag2_5 Ti6_1 2.913857 1_655
Ag2_5 Ti6_3 2.913857 1_655
Ag2_5 Ag2_7 2.952054 1_555
Ag2_5 Ag2_7 2.952054 1_545
Ag2_6 Ti3_6 2.905857 1_555
Ag2_6 Ti3_2 2.905857 1_655
Ag2_6 Ti3_4 2.905857 1_565
Ag2_6 Ti3_0 2.905857 1_665
Ag2_6 Ti6_6 2.913857 1_555
Ag2_6 Ti6_4 2.913857 1_565
Ag2_6 Ti6_2 2.913857 1_655
Ag2_6 Ti6_0 2.913857 1_665
Ag2_7 Ti3_7 2.905857 1_555
Ag2_7 Ti3_3 2.905857 1_655
Ag2_7 Ti3_5 2.905857 1_565
Ag2_7 Ti3_1 2.905857 1_665
Ag2_7 Ti6_7 2.913857 1_555
Ag2_7 Ti6_3 2.913857 1_655
Ag2_7 Ti6_5 2.913857 1_565
Ag2_7 Ti6_1 2.913857 1_665
