# generated using pymatgen
data_PSe6IF6
_symmetry_space_group_name_H-M   'P 1'
_cell_length_a   6.98193043
_cell_length_b   8.99410120
_cell_length_c   11.62377630
_cell_angle_alpha   59.31233103
_cell_angle_beta   90.00000000
_cell_angle_gamma   90.00000000
_symmetry_Int_Tables_number   1
_chemical_formula_structural   PSe6IF6
_chemical_formula_sum   'P2 Se12 I2 F12'
_cell_volume   627.71117009
_cell_formula_units_Z   2
loop_
 _symmetry_equiv_pos_site_id
 _symmetry_equiv_pos_as_xyz
  1  'x, y, z'
loop_
 _atom_site_type_symbol
 _atom_site_label
 _atom_site_symmetry_multiplicity
 _atom_site_fract_x
 _atom_site_fract_y
 _atom_site_fract_z
 _atom_site_occupancy
  P  P0  1  0.00000000  0.00000000  0.00000000  1
  P  P1  1  0.00000000  0.00000000  0.50000000  1
  Se  Se0  1  0.25352131  0.67644594  0.38465043  1
  Se  Se1  1  0.76287590  0.55610340  0.38685241  1
  Se  Se2  1  0.23712410  0.55610340  0.88685241  1
  Se  Se3  1  0.23712410  0.44389660  0.61314759  1
  Se  Se4  1  0.74647869  0.67644594  0.88465043  1
  Se  Se5  1  0.74647869  0.32355406  0.61534957  1
  Se  Se6  1  0.25352131  0.32355406  0.11534957  1
  Se  Se7  1  0.57568076  0.77074335  0.38003293  1
  Se  Se8  1  0.42431924  0.77074335  0.88003293  1
  Se  Se9  1  0.42431924  0.22925665  0.61996707  1
  Se  Se10  1  0.57568076  0.22925665  0.11996707  1
  Se  Se11  1  0.76287590  0.44389660  0.11314759  1
  I  I0  1  0.72758622  0.50000000  0.75000000  1
  I  I1  1  0.27241378  0.50000000  0.25000000  1
  F  F0  1  0.91312928  0.93309192  0.40529491  1
  F  F1  1  0.91312928  0.06690808  0.09470509  1
  F  F2  1  0.08687072  0.06690808  0.59470509  1
  F  F3  1  0.08687072  0.93309192  0.90529491  1
  F  F4  1  0.08403133  0.80768796  0.60133108  1
  F  F5  1  0.08403133  0.19231204  0.89866892  1
  F  F6  1  0.91596867  0.19231204  0.39866892  1
  F  F7  1  0.91596867  0.80768796  0.10133108  1
  F  F8  1  0.19843247  0.05016338  0.41581737  1
  F  F9  1  0.19843247  0.94983662  0.08418263  1
  F  F10  1  0.80156753  0.94983662  0.58418263  1
  F  F11  1  0.80156753  0.05016338  0.91581737  1
loop_
_geom_bond_atom_site_label_1
_geom_bond_atom_site_label_2
_geom_bond_distance
_geom_bond_site_symmetry_2
Se0 Se7 2.394797 1_555
Se0 Se3 2.402461 1_555
Se1 Se7 2.298934 1_555
Se1 Se5 2.402461 1_555
Se2 Se8 2.298934 1_555
Se2 Se6 2.402461 1_556
Se3 Se9 2.298934 1_555
Se4 Se8 2.394797 1_555
Se5 Se9 2.394797 1_555
Se10 Se11 2.298934 1_555
Se10 Se6 2.394797 1_555
Se11 Se4 2.402461 1_554
I0 Se4 2.742419 1_555
I0 Se5 2.742419 1_555
I1 Se0 2.742419 1_555
I1 Se6 2.742419 1_555
F0 P1 1.618029 1_665
F1 P0 1.618029 1_655
F2 P1 1.618029 1_555
F3 P0 1.618029 1_566
F4 P1 1.625983 1_565
F5 P0 1.625983 1_556
F6 P1 1.625983 1_655
F7 P0 1.625983 1_665
F8 P1 1.621690 1_555
F9 P0 1.621690 1_565
F10 P1 1.621690 1_665
F11 P0 1.621690 1_656
