# generated using pymatgen
data_Zr6Nb4Al12Ru7
_symmetry_space_group_name_H-M   'P 1'
_cell_length_a   8.81066063
_cell_length_b   8.81066023
_cell_length_c   8.81066109
_cell_angle_alpha   60.00000047
_cell_angle_beta   60.00000198
_cell_angle_gamma   60.00000622
_symmetry_Int_Tables_number   1
_chemical_formula_structural   Zr6Nb4Al12Ru7
_chemical_formula_sum   'Zr6 Nb4 Al12 Ru7'
_cell_volume   483.62690486
_cell_formula_units_Z   1
loop_
 _symmetry_equiv_pos_site_id
 _symmetry_equiv_pos_as_xyz
  1  'x, y, z'
loop_
 _atom_site_type_symbol
 _atom_site_label
 _atom_site_symmetry_multiplicity
 _atom_site_fract_x
 _atom_site_fract_y
 _atom_site_fract_z
 _atom_site_occupancy
  Zr  Zr0  1  0.69940343  0.69940343  0.30059657  1
  Zr  Zr1  1  0.30059657  0.69940343  0.30059657  1
  Zr  Zr2  1  0.69940343  0.30059657  0.30059657  1
  Zr  Zr3  1  0.30059657  0.30059657  0.69940343  1
  Zr  Zr4  1  0.69940343  0.30059657  0.69940343  1
  Zr  Zr5  1  0.30059657  0.69940343  0.69940343  1
  Nb  Nb0  1  0.87969470  0.87969470  0.36091790  1
  Nb  Nb1  1  0.87969470  0.36091790  0.87969470  1
  Nb  Nb2  1  0.36091790  0.87969470  0.87969470  1
  Nb  Nb3  1  0.87969470  0.87969470  0.87969470  1
  Al  Al0  1  0.12126301  0.12126301  0.63620896  1
  Al  Al1  1  0.12126301  0.63620896  0.12126301  1
  Al  Al2  1  0.63620896  0.12126301  0.12126301  1
  Al  Al3  1  0.12126301  0.12126301  0.12126301  1
  Al  Al4  1  0.66170073  0.66170073  0.01489681  1
  Al  Al5  1  0.66170073  0.01489681  0.66170073  1
  Al  Al6  1  0.01489681  0.66170073  0.66170073  1
  Al  Al7  1  0.66170073  0.66170073  0.66170073  1
  Al  Al8  1  0.33344327  0.33344327  0.99967018  1
  Al  Al9  1  0.33344327  0.99967018  0.33344327  1
  Al  Al10  1  0.99967018  0.33344327  0.33344327  1
  Al  Al11  1  0.33344327  0.33344327  0.33344327  1
  Ru  Ru0  1  0.00000000  0.00000000  0.00000000  1
  Ru  Ru1  1  0.99783633  0.99783633  0.50216367  1
  Ru  Ru2  1  0.50216367  0.99783633  0.50216367  1
  Ru  Ru3  1  0.99783633  0.50216367  0.50216367  1
  Ru  Ru4  1  0.50216367  0.50216367  0.99783633  1
  Ru  Ru5  1  0.99783633  0.50216367  0.99783633  1
  Ru  Ru6  1  0.50216367  0.99783633  0.99783633  1
loop_
_geom_bond_atom_site_label_1
_geom_bond_atom_site_label_2
_geom_bond_distance
_geom_bond_site_symmetry_2
Zr0 Zr2 3.513752 1_555
Zr0 Zr1 3.513752 1_555
Zr0 Zr4 3.513752 1_555
Zr0 Zr5 3.513752 1_555
Zr1 Zr3 3.513752 1_555
Zr1 Zr5 3.513752 1_555
Zr1 Zr2 3.513752 1_555
Zr2 Zr4 3.513752 1_555
Zr2 Zr3 3.513752 1_555
Zr3 Zr5 3.513752 1_555
Zr3 Zr4 3.513752 1_555
Zr4 Zr5 3.513752 1_555
Nb0 Ru0 2.596398 1_665
Nb0 Ru1 2.718438 1_555
Nb0 Ru3 2.718452 1_555
Nb0 Ru2 2.718452 1_555
Nb0 Zr2 3.088801 1_565
Nb0 Zr1 3.088801 1_655
Nb0 Zr0 3.088816 1_555
Nb1 Ru0 2.596398 1_656
Nb1 Ru5 2.718438 1_555
Nb1 Ru3 2.718452 1_555
Nb1 Ru4 2.718452 1_555
Nb1 Zr3 3.088801 1_655
Nb1 Zr2 3.088801 1_556
Nb1 Zr4 3.088816 1_555
Nb2 Ru0 2.596398 1_566
Nb2 Ru6 2.718438 1_555
Nb2 Ru4 2.718452 1_555
Nb2 Ru2 2.718452 1_555
Nb2 Zr3 3.088801 1_565
Nb2 Zr1 3.088801 1_556
Nb2 Zr5 3.088816 1_555
Nb3 Ru0 2.596384 1_666
Nb3 Ru5 2.718453 1_555
Nb3 Ru6 2.718453 1_555
Nb3 Ru1 2.718453 1_555
Nb3 Zr4 3.088804 1_565
Nb3 Zr0 3.088804 1_556
Nb3 Zr5 3.088804 1_655
Al0 Ru0 2.617067 1_556
Al0 Ru1 2.740669 1_445
Al0 Ru3 2.740684 1_455
Al0 Ru2 2.740684 1_545
Al0 Al10 2.761633 1_455
Al0 Al9 2.761633 1_545
Al0 Al11 2.761642 1_555
Al0 Nb3 3.010026 1_445
Al0 Nb2 3.010051 1_545
Al0 Nb1 3.010051 1_455
Al0 Zr5 3.091772 1_545
Al0 Zr4 3.091773 1_455
Al0 Zr3 3.091787 1_555
Al1 Ru0 2.617067 1_565
Al1 Ru5 2.740669 1_454
Al1 Ru3 2.740684 1_455
Al1 Ru4 2.740684 1_554
Al1 Al10 2.761632 1_455
Al1 Al8 2.761632 1_554
Al1 Al11 2.761642 1_555
Al1 Nb3 3.010026 1_454
Al1 Nb2 3.010051 1_554
Al1 Nb0 3.010051 1_455
Al1 Zr0 3.091772 1_455
Al1 Zr5 3.091773 1_554
Al1 Zr1 3.091787 1_555
Al2 Ru0 2.617067 1_655
Al2 Ru6 2.740669 1_544
Al2 Ru4 2.740684 1_554
Al2 Ru2 2.740684 1_545
Al2 Al9 2.761632 1_545
Al2 Al8 2.761633 1_554
Al2 Nb3 3.010026 1_544
Al2 Nb1 3.010051 1_554
Al2 Nb0 3.010051 1_545
Al2 Zr0 3.091772 1_545
Al2 Zr4 3.091773 1_554
Al2 Zr2 3.091787 1_555
Al3 Ru0 2.617053 1_555
Al3 Ru5 2.740684 1_454
Al3 Ru1 2.740684 1_445
Al3 Ru6 2.740684 1_544
Al3 Al8 2.761647 1_554
Al3 Al9 2.761647 1_545
Al3 Nb0 3.010026 1_445
Al3 Nb2 3.010026 1_544
Al3 Nb1 3.010026 1_454
Al3 Zr1 3.091775 1_545
Al3 Zr3 3.091775 1_554
Al3 Zr2 3.091775 1_455
Al4 Ru4 2.524386 1_554
Al4 Ru6 2.524394 1_554
Al4 Ru5 2.524394 1_554
Al4 Nb1 2.812460 1_554
Al4 Nb2 2.812460 1_554
Al4 Nb3 2.812481 1_554
Al4 Zr2 2.887851 1_555
Al4 Zr1 2.887851 1_555
Al4 Zr0 2.887856 1_555
Al5 Ru2 2.524386 1_545
Al5 Ru1 2.524394 1_545
Al5 Ru6 2.524394 1_545
Al5 Nb2 2.812460 1_545
Al5 Nb0 2.812460 1_545
Al5 Nb3 2.812482 1_545
Al5 Zr2 2.887851 1_555
Al5 Zr3 2.887851 1_555
Al5 Zr4 2.887856 1_555
Al6 Ru3 2.524386 1_455
Al6 Ru1 2.524394 1_455
Al6 Ru5 2.524394 1_455
Al6 Nb1 2.812460 1_455
Al6 Nb0 2.812460 1_455
Al6 Nb3 2.812482 1_455
Al6 Zr1 2.887851 1_555
Al6 Zr3 2.887851 1_555
Al6 Zr5 2.887856 1_555
Al7 Ru4 2.524392 1_555
Al7 Ru2 2.524392 1_555
Al7 Ru3 2.524392 1_555
Al7 Nb0 2.812475 1_555
Al7 Nb1 2.812475 1_555
Al7 Nb2 2.812475 1_555
Al7 Zr4 2.887848 1_555
Al7 Zr5 2.887848 1_555
Al7 Zr0 2.887848 1_555
Al8 Ru4 2.565465 1_555
Al8 Ru6 2.565465 1_545
Al8 Ru5 2.565465 1_455
Al8 Al9 2.940762 1_546
Al8 Zr5 2.963349 1_555
Al8 Zr3 2.963349 1_555
Al8 Zr4 2.963349 1_555
Al9 Ru2 2.565465 1_555
Al9 Ru1 2.565465 1_455
Al9 Ru6 2.565465 1_554
Al9 Zr1 2.963348 1_555
Al9 Zr5 2.963349 1_555
Al9 Zr0 2.963349 1_555
Al10 Ru1 2.565465 1_545
Al10 Ru3 2.565465 1_555
Al10 Ru5 2.565465 1_554
Al10 Al3 2.761647 1_655
Al10 Al11 2.940762 1_655
Al10 Al8 2.940762 1_654
Al10 Al9 2.940762 1_645
Al10 Zr2 2.963349 1_555
Al10 Zr4 2.963349 1_555
Al10 Zr0 2.963349 1_555
Al11 Ru4 2.565465 1_554
Al11 Ru2 2.565465 1_545
Al11 Ru3 2.565465 1_455
Al11 Al2 2.761642 1_555
Al11 Al9 2.940761 1_545
Al11 Al8 2.940762 1_554
Al11 Zr1 2.963348 1_555
Al11 Zr2 2.963349 1_555
Al11 Zr3 2.963349 1_555
Ru1 Zr4 3.178310 1_565
Ru1 Zr2 3.178310 1_565
Ru1 Zr5 3.178310 1_655
Ru1 Zr1 3.178310 1_655
Ru2 Zr5 3.178309 1_555
Ru2 Zr2 3.178309 1_565
Ru2 Zr0 3.178309 1_555
Ru2 Zr3 3.178309 1_565
Ru3 Zr4 3.178309 1_555
Ru3 Zr1 3.178309 1_655
Ru3 Zr0 3.178310 1_555
Ru3 Zr3 3.178310 1_655
Ru4 Zr4 3.178310 1_555
Ru4 Zr5 3.178310 1_555
Ru4 Zr2 3.178310 1_556
Ru4 Zr1 3.178310 1_556
Ru5 Zr5 3.178309 1_655
Ru5 Zr2 3.178309 1_556
Ru5 Zr0 3.178310 1_556
Ru5 Zr3 3.178310 1_655
Ru6 Zr4 3.178309 1_565
Ru6 Zr1 3.178309 1_556
Ru6 Zr3 3.178310 1_565
Ru6 Zr0 3.178310 1_556
