# generated using pymatgen
data_Na3Mg2AuO6
_symmetry_space_group_name_H-M   'P 1'
_cell_length_a   5.30595312
_cell_length_b   5.30595303
_cell_length_c   5.60962218
_cell_angle_alpha   99.12563598
_cell_angle_beta   99.12563336
_cell_angle_gamma   119.90988821
_symmetry_Int_Tables_number   1
_chemical_formula_structural   Na3Mg2AuO6
_chemical_formula_sum   'Na3 Mg2 Au1 O6'
_cell_volume   129.84444455
_cell_formula_units_Z   1
loop_
 _symmetry_equiv_pos_site_id
 _symmetry_equiv_pos_as_xyz
  1  'x, y, z'
loop_
 _atom_site_type_symbol
 _atom_site_label
 _atom_site_symmetry_multiplicity
 _atom_site_fract_x
 _atom_site_fract_y
 _atom_site_fract_z
 _atom_site_occupancy
  Na  Na0  1  0.83296956  0.16703144  0.50000000  1
  Na  Na1  1  0.50000000  0.50000000  0.50000000  1
  Na  Na2  1  0.16703144  0.83296956  0.50000000  1
  Mg  Mg0  1  0.66658487  0.33341713  0.00000000  1
  Mg  Mg1  1  0.33341713  0.66658487  1.00000000  1
  Au  Au0  1  0.00000000  0.00000000  0.00000000  1
  O  O0  1  0.74505192  0.74505192  0.20480093  1
  O  O1  1  0.39216830  0.06851794  0.20615747  1
  O  O2  1  0.06851794  0.39216830  0.20615747  1
  O  O3  1  0.93148106  0.60783170  0.79384153  1
  O  O4  1  0.60783170  0.93148106  0.79384153  1
  O  O5  1  0.25494908  0.25494908  0.79520007  1
loop_
_geom_bond_atom_site_label_1
_geom_bond_atom_site_label_2
_geom_bond_distance
_geom_bond_site_symmetry_2
Na0 O2 2.344183 1_655
Na0 O4 2.344184 1_545
Na0 O0 2.347383 1_545
Na0 O5 2.347386 1_655
Na0 O3 2.396907 1_555
Na0 O1 2.396910 1_555
Na1 O4 2.341648 1_555
Na1 O3 2.341648 1_555
Na1 O1 2.341655 1_555
Na1 O2 2.341655 1_555
Na1 O0 2.409014 1_555
Na1 O5 2.409015 1_555
Na2 O1 2.344183 1_565
Na2 O3 2.344184 1_455
Na2 O0 2.347383 1_455
Na2 O5 2.347386 1_565
Na2 O4 2.396908 1_555
Na2 O2 2.396910 1_555
Mg0 O0 2.099775 1_555
Mg0 O5 2.099776 1_554
Mg0 O2 2.103109 1_655
Mg0 O4 2.103120 1_544
Mg0 O3 2.107547 1_554
Mg0 O1 2.107554 1_555
Mg1 O0 2.099776 1_556
Mg1 O5 2.099776 1_555
Mg1 O1 2.103109 1_566
Mg1 O3 2.103120 1_455
Mg1 O4 2.107547 1_555
Mg1 O2 2.107554 1_556
Au0 O0 2.034869 1_445
Au0 O5 2.034869 1_554
Au0 O3 2.036743 1_444
Au0 O4 2.036743 1_444
Au0 O2 2.036743 1_555
Au0 O1 2.036743 1_555
