# generated using pymatgen
data_Ti7Tc5P6
_symmetry_space_group_name_H-M   'P 1'
_cell_length_a   7.35787940
_cell_length_b   7.34151195
_cell_length_c   7.34151195
_cell_angle_alpha   127.12373719
_cell_angle_beta   125.20243900
_cell_angle_gamma   79.57855683
_symmetry_Int_Tables_number   1
_chemical_formula_structural   Ti7Tc5P6
_chemical_formula_sum   'Ti7 Tc5 P6'
_cell_volume   249.73915033
_cell_formula_units_Z   1
loop_
 _symmetry_equiv_pos_site_id
 _symmetry_equiv_pos_as_xyz
  1  'x, y, z'
loop_
 _atom_site_type_symbol
 _atom_site_label
 _atom_site_symmetry_multiplicity
 _atom_site_fract_x
 _atom_site_fract_y
 _atom_site_fract_z
 _atom_site_occupancy
  Ti  Ti0  1  0.45840149  0.24765638  0.28899335  1
  Ti  Ti1  1  0.54159851  0.83059186  0.78925489  1
  Ti  Ti2  1  0.74492078  0.65234834  0.40313273  1
  Ti  Ti3  1  0.25507922  0.65821295  0.90742756  1
  Ti  Ti4  1  0.05049775  0.84350327  0.29033907  1
  Ti  Ti5  1  0.94950225  0.23984233  0.79300552  1
  Ti  Ti6  1  0.50000000  0.99346084  0.49346084  1
  Tc  Tc0  1  0.65672940  0.50229732  0.90361473  1
  Tc  Tc1  1  0.34327060  0.24688633  0.84557092  1
  Tc  Tc2  1  0.89707076  0.24485499  0.39649801  1
  Tc  Tc3  1  0.10292924  0.49942625  0.34778522  1
  Tc  Tc4  1  1.00000000  0.99206631  0.99206631  1
  P  P0  1  0.83338614  0.57673133  0.74553727  1
  P  P1  1  0.16661386  0.91214913  0.74334519  1
  P  P2  1  0.66947870  0.91328436  0.24823491  1
  P  P3  1  0.33052130  0.57875521  0.24380566  1
  P  P4  1  0.26706166  0.27250603  0.50288343  1
  P  P5  1  0.73293834  0.23582178  0.00544537  1
loop_
_geom_bond_atom_site_label_1
_geom_bond_atom_site_label_2
_geom_bond_distance
_geom_bond_site_symmetry_2
Ti2 Ti6 2.774760 1_555
Ti3 Ti6 2.774759 1_556
Tc0 Ti4 2.699450 1_656
Tc0 Ti5 2.763889 1_555
Tc0 Ti2 2.778800 1_556
Tc0 Ti3 2.979542 1_555
Tc1 Ti5 2.699439 1_455
Tc1 Ti4 2.763902 1_545
Tc1 Ti3 2.778808 1_555
Tc1 Ti2 2.979533 1_556
Tc2 Ti5 2.730077 1_555
Tc2 Ti4 2.757334 1_645
Tc2 Ti3 2.824532 1_655
Tc2 Ti2 2.980064 1_555
Tc3 Ti4 2.730093 1_555
Tc3 Ti5 2.757341 1_454
Tc3 Ti2 2.824527 1_455
Tc3 Ti3 2.980051 1_555
Tc4 Ti3 2.785319 1_655
Tc4 Ti2 2.785323 1_555
Tc4 Ti4 2.814423 1_656
Tc4 Ti5 2.814430 1_565
Tc4 Ti0 2.919653 1_666
Tc4 Ti1 2.919653 1_555
P0 Tc0 2.469132 1_555
P0 Tc2 2.481395 1_555
P0 Tc4 2.491759 1_555
P0 Ti0 2.580403 1_555
P0 Ti4 2.587446 1_656
P0 Ti2 2.591941 1_555
P0 Ti1 2.609724 1_555
P0 Ti5 2.627001 1_555
P0 Ti3 2.638028 1_655
P1 Tc1 2.469139 1_565
P1 Tc3 2.481389 1_555
P1 Tc4 2.491754 1_455
P1 Ti1 2.580401 1_555
P1 Ti5 2.587463 1_465
P1 Ti3 2.591920 1_555
P1 Ti0 2.609726 1_566
P1 Ti4 2.627015 1_555
P1 Ti2 2.638021 1_455
P2 Tc2 2.467682 1_565
P2 Tc0 2.475473 1_554
P2 Ti6 2.487236 1_555
P2 Ti3 2.584234 1_554
P2 Ti1 2.586525 1_554
P2 Ti5 2.588605 1_565
P2 Ti2 2.605413 1_555
P2 Ti0 2.607202 1_565
P2 Ti4 2.624883 1_655
P3 Tc3 2.467688 1_555
P3 Tc1 2.475455 1_554
P3 Ti6 2.487242 1_555
P3 Ti2 2.584238 1_555
P3 Ti0 2.586518 1_555
P3 Ti4 2.588608 1_555
P3 Ti3 2.605424 1_554
P3 Ti1 2.607201 1_555
P3 Ti5 2.624877 1_454
P4 Tc3 2.346659 1_555
P4 Tc1 2.363437 1_555
P4 Tc2 2.370556 1_455
P4 Tc0 2.399081 1_555
P4 Tc4 2.410710 1_444
P4 Ti6 2.415480 1_545
P4 Ti0 2.567336 1_555
P4 Ti3 2.628104 1_555
P4 Ti4 2.812507 1_545
P5 Tc2 2.346664 1_555
P5 Tc0 2.363425 1_554
P5 Tc3 2.370553 1_655
P5 Tc1 2.399085 1_554
P5 Tc4 2.410711 1_544
P5 Ti6 2.415485 1_544
P5 Ti1 2.567333 1_544
P5 Ti2 2.628099 1_555
P5 Ti5 2.812517 1_554
