# generated using pymatgen
data_CdBi6(SO8)2
_symmetry_space_group_name_H-M   'P 1'
_cell_length_a   5.71788265
_cell_length_b   8.08606701
_cell_length_c   9.03749740
_cell_angle_alpha   94.25938001
_cell_angle_beta   97.16909670
_cell_angle_gamma   106.70596536
_symmetry_Int_Tables_number   1
_chemical_formula_structural   CdBi6(SO8)2
_chemical_formula_sum   'Cd1 Bi6 S2 O16'
_cell_volume   394.40885097
_cell_formula_units_Z   1
loop_
 _symmetry_equiv_pos_site_id
 _symmetry_equiv_pos_as_xyz
  1  'x, y, z'
loop_
 _atom_site_type_symbol
 _atom_site_label
 _atom_site_symmetry_multiplicity
 _atom_site_fract_x
 _atom_site_fract_y
 _atom_site_fract_z
 _atom_site_occupancy
  Cd  Cd0  1  0.00000000  0.50000000  0.50000000  1
  Bi  Bi0  1  0.68255778  0.50592246  0.80264432  1
  Bi  Bi1  1  0.31744222  0.49407754  0.19735568  1
  Bi  Bi2  1  0.65161204  0.83400837  0.53338647  1
  Bi  Bi3  1  0.34838796  0.16599163  0.46661353  1
  Bi  Bi4  1  0.30969522  0.85240175  0.82197172  1
  Bi  Bi5  1  0.69030478  0.14759825  0.17802828  1
  S  S0  1  0.12186840  0.22085795  0.84271445  1
  S  S1  1  0.87813160  0.77914205  0.15728555  1
  O  O0  1  0.98540986  0.66810731  0.70670361  1
  O  O1  1  0.01459014  0.33189269  0.29329639  1
  O  O2  1  0.49961176  0.68742154  0.72256335  1
  O  O3  1  0.50038824  0.31257846  0.27743665  1
  O  O4  1  0.99701049  0.03525358  0.78776314  1
  O  O5  1  0.00298951  0.96474642  0.21223686  1
  O  O6  1  0.65646266  0.36485818  0.59067865  1
  O  O7  1  0.34353734  0.63514182  0.40932135  1
  O  O8  1  0.35250030  0.23488657  0.94506601  1
  O  O9  1  0.64749970  0.76511343  0.05493399  1
  O  O10  1  0.40957359  0.96584367  0.62538198  1
  O  O11  1  0.59042641  0.03415633  0.37461802  1
  O  O12  1  0.19152108  0.32061882  0.71478178  1
  O  O13  1  0.80847892  0.67938118  0.28521822  1
  O  O14  1  0.95983610  0.29541913  0.92389005  1
  O  O15  1  0.04016390  0.70458087  0.07610995  1
loop_
_geom_bond_atom_site_label_1
_geom_bond_atom_site_label_2
_geom_bond_distance
_geom_bond_site_symmetry_2
Cd0 O7 2.241643 1_555
Cd0 O6 2.241643 1_455
Cd0 O0 2.251968 1_455
Cd0 O1 2.251968 1_555
Bi0 O6 2.121146 1_555
Bi0 O2 2.150202 1_555
Bi0 O0 2.169884 1_555
Bi1 O7 2.121146 1_555
Bi1 O3 2.150202 1_555
Bi1 O1 2.169884 1_555
Bi2 O7 2.134633 1_555
Bi2 O10 2.178693 1_555
Bi2 O2 2.272222 1_555
Bi2 O11 2.312071 1_565
Bi3 O6 2.134633 1_555
Bi3 O11 2.178693 1_555
Bi3 O3 2.272222 1_555
Bi3 O10 2.312071 1_545
Bi4 O0 2.107788 1_455
Bi4 O10 2.125638 1_555
Bi4 O2 2.159712 1_555
Bi4 O4 2.632109 1_465
Bi5 O1 2.107788 1_655
Bi5 O11 2.125638 1_555
Bi5 O3 2.159712 1_555
Bi5 O5 2.632109 1_645
O4 S0 1.481058 1_655
O5 S1 1.481058 1_455
O8 S0 1.483739 1_555
O9 S1 1.483739 1_555
O12 S0 1.488249 1_555
O13 S1 1.488249 1_555
O14 S0 1.478227 1_655
O15 S1 1.478227 1_455
