# generated using pymatgen
data_MnNbRh3S8
_symmetry_space_group_name_H-M   'P 1'
_cell_length_a   6.86731703
_cell_length_b   6.86731588
_cell_length_c   6.86731821
_cell_angle_alpha   62.71390139
_cell_angle_beta   62.71388941
_cell_angle_gamma   62.71390556
_symmetry_Int_Tables_number   1
_chemical_formula_structural   MnNbRh3S8
_chemical_formula_sum   'Mn1 Nb1 Rh3 S8'
_cell_volume   242.83361189
_cell_formula_units_Z   1
loop_
 _symmetry_equiv_pos_site_id
 _symmetry_equiv_pos_as_xyz
  1  'x, y, z'
loop_
 _atom_site_type_symbol
 _atom_site_label
 _atom_site_symmetry_multiplicity
 _atom_site_fract_x
 _atom_site_fract_y
 _atom_site_fract_z
 _atom_site_occupancy
  Mn  Mn0  1  0.01277204  0.01277204  0.01277204  1
  Nb  Nb0  1  0.59526342  0.59526342  0.59526342  1
  Rh  Rh0  1  0.62614395  0.62614395  0.13707533  1
  Rh  Rh1  1  0.62614395  0.13707533  0.62614395  1
  Rh  Rh2  1  0.13707533  0.62614395  0.62614395  1
  S  S0  1  0.36386026  0.36386026  0.87654140  1
  S  S1  1  0.36386026  0.87654140  0.36386026  1
  S  S2  1  0.87654140  0.36386026  0.36386026  1
  S  S3  1  0.38756519  0.38756519  0.38756519  1
  S  S4  1  0.86064023  0.86064023  0.42014993  1
  S  S5  1  0.86064023  0.42014993  0.86064023  1
  S  S6  1  0.42014993  0.86064023  0.86064023  1
  S  S7  1  0.86934083  0.86934083  0.86934083  1
loop_
_geom_bond_atom_site_label_1
_geom_bond_atom_site_label_2
_geom_bond_distance
_geom_bond_site_symmetry_2
Mn0 S7 2.362041 1_444
Mn0 S5 2.377113 1_454
Mn0 S6 2.377113 1_544
Mn0 S4 2.377113 1_445
Nb0 S0 2.338447 1_555
Nb0 S2 2.338447 1_555
Nb0 S1 2.338448 1_555
Nb0 S4 2.667394 1_555
Nb0 S6 2.667394 1_555
Nb0 S5 2.667395 1_555
Rh0 S3 2.370824 1_555
Rh0 S1 2.381247 1_555
Rh0 S2 2.381247 1_555
Rh0 S5 2.401846 1_554
Rh0 S6 2.401846 1_554
Rh0 S7 2.426025 1_554
Rh1 S3 2.370825 1_555
Rh1 S2 2.381247 1_555
Rh1 S0 2.381247 1_555
Rh1 S6 2.401845 1_545
Rh1 S4 2.401846 1_545
Rh1 S7 2.426026 1_545
Rh2 S3 2.370825 1_555
Rh2 S1 2.381247 1_555
Rh2 S0 2.381247 1_555
Rh2 S5 2.401845 1_455
Rh2 S4 2.401846 1_455
Rh2 S7 2.426025 1_455
