# generated using pymatgen
data_Y12Co5Sb
_symmetry_space_group_name_H-M   'P 1'
_cell_length_a   8.35002187
_cell_length_b   8.35002172
_cell_length_c   8.35002114
_cell_angle_alpha   110.35683455
_cell_angle_beta   111.06361162
_cell_angle_gamma   107.02146340
_symmetry_Int_Tables_number   1
_chemical_formula_structural   Y12Co5Sb
_chemical_formula_sum   'Y12 Co5 Sb1'
_cell_volume   447.53906706
_cell_formula_units_Z   1
loop_
 _symmetry_equiv_pos_site_id
 _symmetry_equiv_pos_as_xyz
  1  'x, y, z'
loop_
 _atom_site_type_symbol
 _atom_site_label
 _atom_site_symmetry_multiplicity
 _atom_site_fract_x
 _atom_site_fract_y
 _atom_site_fract_z
 _atom_site_occupancy
  Y  Y0  1  0.28691864  0.18237118  0.46928982  1
  Y  Y1  1  0.71308136  0.81762882  0.53071018  1
  Y  Y2  1  0.28691864  0.81762882  0.10454846  1
  Y  Y3  1  0.71308136  0.18237118  0.89545154  1
  Y  Y4  1  0.61818073  0.31178231  0.30639842  1
  Y  Y5  1  0.38181927  0.68821769  0.69360158  1
  Y  Y6  1  0.00538390  0.31178231  0.69360158  1
  Y  Y7  1  0.99461610  0.68821769  0.30639842  1
  Y  Y8  1  0.21153004  0.40891165  0.19738161  1
  Y  Y9  1  0.78846996  0.59108835  0.80261839  1
  Y  Y10  1  0.21153004  0.01414843  0.80261839  1
  Y  Y11  1  0.78846996  0.98585157  0.19738161  1
  Co  Co0  1  1.00000000  0.38255130  0.38255130  1
  Co  Co1  1  0.00000000  0.61744870  0.61744870  1
  Co  Co2  1  0.39114322  0.89114322  0.50000000  1
  Co  Co3  1  0.60885678  0.10885678  0.50000000  1
  Co  Co4  1  0.00000000  0.00000000  0.00000000  1
  Sb  Sb0  1  0.50000000  0.50000000  0.00000000  1
loop_
_geom_bond_atom_site_label_1
_geom_bond_atom_site_label_2
_geom_bond_distance
_geom_bond_site_symmetry_2
Co0 Co1 2.240007 1_655
Co0 Y8 2.744276 1_655
Co0 Y11 2.744276 1_545
Co0 Y6 2.845431 1_655
Co0 Y7 2.845432 1_555
Co0 Y4 2.845432 1_555
Co0 Y5 2.845432 1_655
Co0 Y0 3.316287 1_655
Co0 Y3 3.316294 1_554
Co1 Y9 2.744276 1_455
Co1 Y10 2.744276 1_565
Co1 Y7 2.845431 1_455
Co1 Y6 2.845432 1_555
Co1 Y5 2.845432 1_555
Co1 Y4 2.845432 1_455
Co1 Y1 3.316287 1_455
Co1 Y2 3.316294 1_556
Co2 Co3 2.162125 1_565
Co2 Y5 2.722031 1_555
Co2 Y7 2.722032 1_455
Co2 Y2 2.872105 1_555
Co2 Y3 2.872109 1_565
Co2 Y0 2.872114 1_565
Co2 Y1 2.872114 1_555
Co2 Y10 3.392581 1_565
Co2 Y8 3.392581 1_555
Co3 Y4 2.722031 1_555
Co3 Y6 2.722032 1_655
Co3 Y3 2.872105 1_555
Co3 Y2 2.872109 1_545
Co3 Y1 2.872114 1_545
Co3 Y0 2.872114 1_555
Co3 Y11 3.392581 1_545
Co3 Y9 3.392581 1_555
Co4 Y11 2.820617 1_445
Co4 Y10 2.820617 1_554
Co4 Y8 2.820617 1_555
Co4 Y9 2.820617 1_444
Co4 Y0 3.221525 1_555
Co4 Y1 3.221525 1_444
Co4 Y2 3.221526 1_545
Co4 Y3 3.221526 1_454
Sb0 Y8 3.427829 1_555
Sb0 Y9 3.427829 1_554
Sb0 Y10 3.427829 1_554
Sb0 Y11 3.427829 1_555
Sb0 Y5 3.446745 1_554
Sb0 Y4 3.446745 1_555
Sb0 Y7 3.446745 1_555
Sb0 Y6 3.446745 1_554
Sb0 Y1 3.637351 1_555
Sb0 Y0 3.637351 1_554
Sb0 Y2 3.637353 1_555
Sb0 Y3 3.637353 1_554
