# generated using pymatgen
data_Sr6Sn8AsBr
_symmetry_space_group_name_H-M   'P 1'
_cell_length_a   8.91774196
_cell_length_b   8.91774208
_cell_length_c   8.91774242
_cell_angle_alpha   120.23276874
_cell_angle_beta   120.23276659
_cell_angle_gamma   89.59730828
_symmetry_Int_Tables_number   1
_chemical_formula_structural   Sr6Sn8AsBr
_chemical_formula_sum   'Sr6 Sn8 As1 Br1'
_cell_volume   499.69779694
_cell_formula_units_Z   1
loop_
 _symmetry_equiv_pos_site_id
 _symmetry_equiv_pos_as_xyz
  1  'x, y, z'
loop_
 _atom_site_type_symbol
 _atom_site_label
 _atom_site_symmetry_multiplicity
 _atom_site_fract_x
 _atom_site_fract_y
 _atom_site_fract_z
 _atom_site_occupancy
  Sr  Sr0  1  0.24238391  0.24238391  0.00000000  1
  Sr  Sr1  1  0.75761609  0.75761609  1.00000000  1
  Sr  Sr2  1  0.15147691  0.68131410  0.83279301  1
  Sr  Sr3  1  0.84852309  0.31868590  0.16720699  1
  Sr  Sr4  1  0.68131410  0.84852309  0.52983619  1
  Sr  Sr5  1  0.31868590  0.15147691  0.47016381  1
  Sn  Sn0  1  0.82993989  0.33370090  0.78342865  1
  Sn  Sn1  1  0.17006011  0.66629910  0.21657135  1
  Sn  Sn2  1  0.55027225  0.04651224  0.21657135  1
  Sn  Sn3  1  0.33370090  0.55027225  0.50376201  1
  Sn  Sn4  1  0.95348776  0.17006011  0.50376201  1
  Sn  Sn5  1  0.44972775  0.95348776  0.78342865  1
  Sn  Sn6  1  0.66629910  0.44972775  0.49623799  1
  Sn  Sn7  1  0.04651224  0.82993989  0.49623799  1
  As  As0  1  0.00000000  0.00000000  0.00000000  1
  Br  Br0  1  0.50000000  0.50000000  0.00000000  1
loop_
_geom_bond_atom_site_label_1
_geom_bond_atom_site_label_2
_geom_bond_distance
_geom_bond_site_symmetry_2
Sn0 Sn4 2.939883 1_555
Sn0 Sn6 2.939904 1_555
Sn0 Sn1 3.115791 1_656
Sn0 Sr3 3.412987 1_556
Sn0 Sr1 3.507828 1_555
Sn0 Sr0 3.508504 1_656
Sn0 Sr4 3.577698 1_545
Sn0 Sr5 3.733346 1_555
Sn0 Sr2 3.937611 1_655
Sn1 Sn7 2.939883 1_555
Sn1 Sn3 2.939904 1_555
Sn1 Sr2 3.412987 1_554
Sn1 Sr0 3.507828 1_555
Sn1 Sr1 3.508504 1_454
Sn1 Sr5 3.577698 1_565
Sn1 Sr4 3.733346 1_555
Sn1 Sr3 3.937611 1_455
Sn2 Sn6 2.939890 1_555
Sn2 Sn4 2.939891 1_555
Sn2 Sn5 3.115785 1_544
Sn2 Sr2 3.413009 1_544
Sn2 Sr1 3.507832 1_544
Sn2 Sr0 3.508497 1_555
Sn2 Sr5 3.577707 1_555
Sn2 Sr4 3.733345 1_545
Sn2 Sr3 3.937630 1_555
Sn3 Sn5 2.939890 1_555
Sn3 Sn6 3.115798 1_555
Sn3 Sr5 3.413005 1_555
Sn3 Sr1 3.507824 1_555
Sn3 Sr0 3.508511 1_555
Sn3 Sr3 3.577698 1_455
Sn3 Sr2 3.733353 1_555
Sn3 Sr4 3.937635 1_555
Sn4 Sn7 3.115790 1_645
Sn4 Sr5 3.413014 1_655
Sn4 Sr0 3.507822 1_656
Sn4 Sr1 3.508510 1_544
Sn4 Sr3 3.577725 1_555
Sn4 Sr2 3.733345 1_655
Sn4 Sr4 3.937604 1_545
Sn5 Sn7 2.939891 1_555
Sn5 Sr3 3.413009 1_566
Sn5 Sr0 3.507832 1_566
Sn5 Sr1 3.508497 1_555
Sn5 Sr4 3.577707 1_555
Sn5 Sr5 3.733345 1_565
Sn5 Sr2 3.937630 1_555
Sn6 Sr4 3.413005 1_555
Sn6 Sr0 3.507824 1_555
Sn6 Sr1 3.508511 1_555
Sn6 Sr2 3.577698 1_655
Sn6 Sr3 3.733353 1_555
Sn6 Sr5 3.937635 1_555
Sn7 Sr4 3.413014 1_455
Sn7 Sr1 3.507822 1_454
Sn7 Sr0 3.508510 1_566
Sn7 Sr2 3.577725 1_555
Sn7 Sr3 3.733345 1_455
Sn7 Sr5 3.937604 1_565
As0 Sr0 3.067570 1_555
As0 Sr1 3.067570 1_444
As0 Sr3 3.135580 1_455
As0 Sr2 3.135580 1_544
As0 Sr5 3.135590 1_555
As0 Sr4 3.135590 1_444
Br0 Sr1 3.260346 1_554
Br0 Sr0 3.260346 1_555
Br0 Sr4 3.491132 1_555
Br0 Sr5 3.491132 1_554
Br0 Sr2 3.491134 1_554
Br0 Sr3 3.491134 1_555
