# generated using pymatgen
data_BaNaNbS4
_symmetry_space_group_name_H-M   'P 1'
_cell_length_a   9.52916187
_cell_length_b   6.77817622
_cell_length_c   12.58645495
_cell_angle_alpha   69.23713631
_cell_angle_beta   90.00000000
_cell_angle_gamma   90.00000000
_symmetry_Int_Tables_number   1
_chemical_formula_structural   BaNaNbS4
_chemical_formula_sum   'Ba4 Na4 Nb4 S16'
_cell_volume   760.16600004
_cell_formula_units_Z   4
loop_
 _symmetry_equiv_pos_site_id
 _symmetry_equiv_pos_as_xyz
  1  'x, y, z'
loop_
 _atom_site_type_symbol
 _atom_site_label
 _atom_site_symmetry_multiplicity
 _atom_site_fract_x
 _atom_site_fract_y
 _atom_site_fract_z
 _atom_site_occupancy
  Ba  Ba0  1  0.87920211  0.38650329  0.34365715  1
  Ba  Ba1  1  0.62079789  0.38650329  0.84365715  1
  Ba  Ba2  1  0.12079789  0.61349671  0.65634285  1
  Ba  Ba3  1  0.37920211  0.61349671  0.15634285  1
  Na  Na0  1  0.11040258  0.23353759  0.02568746  1
  Na  Na1  1  0.38959742  0.23353759  0.52568746  1
  Na  Na2  1  0.88959742  0.76646241  0.97431254  1
  Na  Na3  1  0.61040258  0.76646241  0.47431254  1
  Nb  Nb0  1  0.61894687  0.11603300  0.18419421  1
  Nb  Nb1  1  0.88105313  0.11603300  0.68419421  1
  Nb  Nb2  1  0.38105313  0.88396700  0.81580579  1
  Nb  Nb3  1  0.11894687  0.88396700  0.31580579  1
  S  S0  1  0.80408043  0.32169004  0.09046399  1
  S  S1  1  0.69591957  0.32169004  0.59046399  1
  S  S2  1  0.19591957  0.67830996  0.90953601  1
  S  S3  1  0.30408043  0.67830996  0.40953601  1
  S  S4  1  0.92818333  0.81084551  0.43128336  1
  S  S5  1  0.57181667  0.81084551  0.93128336  1
  S  S6  1  0.07181667  0.18915449  0.56871664  1
  S  S7  1  0.42818333  0.18915449  0.06871664  1
  S  S8  1  0.56591950  0.20517966  0.33940074  1
  S  S9  1  0.93408050  0.20517966  0.83940074  1
  S  S10  1  0.43408050  0.79482034  0.66059926  1
  S  S11  1  0.06591950  0.79482034  0.16059926  1
  S  S12  1  0.16137403  0.23568366  0.26100945  1
  S  S13  1  0.33862597  0.23568366  0.76100945  1
  S  S14  1  0.83862597  0.76431634  0.73899055  1
  S  S15  1  0.66137403  0.76431634  0.23899055  1
loop_
_geom_bond_atom_site_label_1
_geom_bond_atom_site_label_2
_geom_bond_distance
_geom_bond_site_symmetry_2
Ba0 S12 3.179797 1_655
Ba0 S15 3.195355 1_555
Ba0 S8 3.236084 1_555
Ba0 S6 3.239735 1_655
Ba0 S11 3.407802 1_655
Ba0 S0 3.442930 1_555
Ba0 S1 3.453354 1_555
Ba0 S4 3.457786 1_555
Ba0 S4 3.688904 1_545
Ba1 S13 3.179797 1_555
Ba1 S14 3.195355 1_555
Ba1 S9 3.236084 1_555
Ba1 S7 3.239735 1_556
Ba1 S10 3.407802 1_555
Ba1 S1 3.442930 1_555
Ba1 S0 3.453354 1_556
Ba1 S5 3.457786 1_555
Ba1 S5 3.688904 1_545
Ba2 S14 3.179797 1_455
Ba2 S13 3.195355 1_555
Ba2 S10 3.236084 1_555
Ba2 S4 3.239735 1_455
Ba2 S9 3.407802 1_455
Ba2 S2 3.442930 1_555
Ba2 S3 3.453354 1_555
Ba2 S6 3.457786 1_555
Ba2 S6 3.688904 1_565
Ba3 S15 3.179797 1_555
Ba3 S12 3.195355 1_555
Ba3 S11 3.236084 1_555
Ba3 S5 3.239735 1_554
Ba3 S8 3.407802 1_555
Ba3 S3 3.442930 1_555
Ba3 S2 3.453354 1_554
Ba3 S7 3.457786 1_555
Ba3 S7 3.688904 1_565
Na0 S11 2.885459 1_545
Na0 S9 2.945697 1_454
Na0 S2 2.960606 1_554
Na0 S12 3.006551 1_555
Na0 S7 3.072165 1_555
Na0 S0 3.144466 1_455
Na1 S10 2.885459 1_545
Na1 S8 2.945697 1_555
Na1 S3 2.960606 1_555
Na1 S13 3.006551 1_555
Na1 S6 3.072165 1_555
Na1 S1 3.144466 1_555
Na2 S9 2.885459 1_565
Na2 S11 2.945697 1_656
Na2 S0 2.960606 1_556
Na2 S14 3.006551 1_555
Na2 S5 3.072165 1_555
Na2 S2 3.144466 1_655
Na3 S8 2.885459 1_565
Na3 S10 2.945697 1_555
Na3 S1 2.960606 1_555
Na3 S15 3.006551 1_555
Na3 S4 3.072165 1_555
Na3 S3 3.144466 1_555
Nb0 S7 2.269776 1_555
Nb0 S15 2.270862 1_545
Nb0 S8 2.296416 1_555
Nb0 S0 2.298100 1_555
Nb1 S6 2.269776 1_655
Nb1 S14 2.270862 1_545
Nb1 S9 2.296416 1_555
Nb1 S1 2.298100 1_555
Nb2 S5 2.269776 1_555
Nb2 S13 2.270862 1_565
Nb2 S10 2.296416 1_555
Nb2 S2 2.298100 1_555
Nb3 S4 2.269776 1_455
Nb3 S12 2.270862 1_565
Nb3 S11 2.296416 1_555
Nb3 S3 2.298100 1_555
