# generated using pymatgen
data_Rb4Br2O
_symmetry_space_group_name_H-M   'P 1'
_cell_length_a   5.44173087
_cell_length_b   5.44173087
_cell_length_c   9.46384756
_cell_angle_alpha   106.70840419
_cell_angle_beta   106.70840795
_cell_angle_gamma   89.99999650
_symmetry_Int_Tables_number   1
_chemical_formula_structural   Rb4Br2O
_chemical_formula_sum   'Rb4 Br2 O1'
_cell_volume   256.03745429
_cell_formula_units_Z   1
loop_
 _symmetry_equiv_pos_site_id
 _symmetry_equiv_pos_as_xyz
  1  'x, y, z'
loop_
 _atom_site_type_symbol
 _atom_site_label
 _atom_site_symmetry_multiplicity
 _atom_site_fract_x
 _atom_site_fract_y
 _atom_site_fract_z
 _atom_site_occupancy
  Rb  Rb0  1  0.84498365  0.84498365  0.68996530  1
  Rb  Rb1  1  0.15501635  0.15501635  0.31003470  1
  Rb  Rb2  1  -0.00000000  0.50000000  -0.00000000  1
  Rb  Rb3  1  0.50000000  -0.00000000  -0.00000000  1
  Br  Br0  1  0.64172328  0.64172328  0.28344557  1
  Br  Br1  1  0.35827672  0.35827672  0.71655443  1
  O  O0  1  -0.00000000  -0.00000000  -0.00000000  1
loop_
_geom_bond_atom_site_label_1
_geom_bond_atom_site_label_2
_geom_bond_distance
_geom_bond_site_symmetry_2
Br0 Rb0 3.514884 1_555
Br0 Rb3 3.661867 1_565
Br0 Rb2 3.661867 1_655
Br0 Rb2 3.661871 1_555
Br0 Rb3 3.661871 1_555
Br0 Rb1 3.854735 1_665
Br0 Rb1 3.854746 1_655
Br0 Rb1 3.854746 1_565
Br0 Rb1 3.854758 1_555
Br1 Rb1 3.514884 1_555
Br1 Rb3 3.661867 1_556
Br1 Rb2 3.661867 1_556
Br1 Rb2 3.661871 1_656
Br1 Rb3 3.661871 1_566
Br1 Rb0 3.854735 1_445
Br1 Rb0 3.854746 1_455
Br1 Rb0 3.854746 1_545
Br1 Rb0 3.854758 1_555
O0 Rb0 2.680647 1_444
O0 Rb1 2.680647 1_555
O0 Rb3 2.720865 1_455
O0 Rb3 2.720865 1_555
O0 Rb2 2.720865 1_555
O0 Rb2 2.720865 1_545
