# generated using pymatgen
data_CsGaGeSe4
_symmetry_space_group_name_H-M   'P 1'
_cell_length_a   17.28555839
_cell_length_b   7.28456753
_cell_length_c   8.09694923
_cell_angle_alpha   69.34844167
_cell_angle_beta   90.00000000
_cell_angle_gamma   90.00000000
_symmetry_Int_Tables_number   1
_chemical_formula_structural   CsGaGeSe4
_chemical_formula_sum   'Cs4 Ga4 Ge4 Se16'
_cell_volume   954.03647756
_cell_formula_units_Z   4
loop_
 _symmetry_equiv_pos_site_id
 _symmetry_equiv_pos_as_xyz
  1  'x, y, z'
loop_
 _atom_site_type_symbol
 _atom_site_label
 _atom_site_symmetry_multiplicity
 _atom_site_fract_x
 _atom_site_fract_y
 _atom_site_fract_z
 _atom_site_occupancy
  Cs  Cs0  1  0.39835012  0.94745462  0.17569769  1
  Cs  Cs1  1  0.89835012  0.05254538  0.82430231  1
  Cs  Cs2  1  0.59870849  0.52868727  0.84044809  1
  Cs  Cs3  1  0.09870849  0.47131273  0.15955191  1
  Ga  Ga0  1  0.58543038  0.16894173  0.48116061  1
  Ga  Ga1  1  0.08543038  0.83105827  0.51883939  1
  Ga  Ga2  1  0.27075462  0.58706949  0.69789327  1
  Ga  Ga3  1  0.77075462  0.41293051  0.30210673  1
  Ge  Ge0  1  0.42006117  0.31990170  0.53778550  1
  Ge  Ge1  1  0.92006117  0.68009830  0.46221450  1
  Ge  Ge2  1  0.72556829  0.91649742  0.28536421  1
  Ge  Ge3  1  0.22556829  0.08350258  0.71463579  1
  Se  Se0  1  0.59702530  0.89074232  0.38683826  1
  Se  Se1  1  0.09702530  0.10925768  0.61316174  1
  Se  Se2  1  0.40729108  0.59121854  0.62930816  1
  Se  Se3  1  0.90729108  0.40878146  0.37069184  1
  Se  Se4  1  0.80234122  0.79138902  0.54725371  1
  Se  Se5  1  0.30234122  0.20861098  0.45274629  1
  Se  Se6  1  0.20030356  0.71512238  0.43102089  1
  Se  Se7  1  0.70030356  0.28487762  0.56897911  1
  Se  Se8  1  0.76328459  0.23341454  0.10162165  1
  Se  Se9  1  0.26328459  0.76658546  0.89837835  1
  Se  Se10  1  0.23644222  0.26439236  0.90290433  1
  Se  Se11  1  0.73644222  0.73560764  0.09709567  1
  Se  Se12  1  0.99877989  0.92383853  0.26188921  1
  Se  Se13  1  0.49877989  0.07616147  0.73811079  1
  Se  Se14  1  0.99565506  0.59695258  0.72208626  1
  Se  Se15  1  0.49565506  0.40304742  0.27791374  1
loop_
_geom_bond_atom_site_label_1
_geom_bond_atom_site_label_2
_geom_bond_distance
_geom_bond_site_symmetry_2
Cs0 Se2 3.677632 1_555
Cs0 Se13 3.755422 1_564
Cs0 Se9 3.783585 1_554
Cs0 Se0 3.793285 1_555
Cs0 Se5 3.796803 1_565
Cs0 Se10 3.800605 1_564
Cs0 Se6 4.048403 1_555
Cs0 Se15 4.057819 1_565
Cs0 Se15 4.114143 1_555
Cs1 Se3 3.677632 1_555
Cs1 Se12 3.755422 1_546
Cs1 Se8 3.783585 1_556
Cs1 Se1 3.793285 1_655
Cs1 Se4 3.796803 1_545
Cs1 Se11 3.800605 1_546
Cs1 Se7 4.048403 1_555
Cs1 Se14 4.057819 1_545
Cs1 Se14 4.114143 1_555
Cs2 Se2 3.678146 1_555
Cs2 Se0 3.689700 1_555
Cs2 Se7 3.717999 1_555
Cs2 Se8 3.739372 1_556
Cs2 Se15 3.777675 1_556
Cs2 Se11 3.803687 1_556
Cs2 Se13 4.057534 1_555
Cs2 Se13 4.152628 1_565
Cs2 Se4 4.299203 1_555
Cs3 Se3 3.678146 1_455
Cs3 Se1 3.689700 1_555
Cs3 Se6 3.717999 1_555
Cs3 Se9 3.739372 1_554
Cs3 Se14 3.777675 1_454
Cs3 Se10 3.803687 1_554
Cs3 Se12 4.057534 1_455
Cs3 Se12 4.152628 1_445
Cs3 Se5 4.299203 1_555
Ga0 Se7 2.363312 1_555
Ga0 Se0 2.412907 1_545
Ga0 Se13 2.457008 1_555
Ga0 Se15 2.458668 1_555
Ga1 Se6 2.363312 1_555
Ga1 Se1 2.412907 1_565
Ga1 Se12 2.457008 1_455
Ga1 Se14 2.458668 1_455
Ga2 Se6 2.366566 1_555
Ga2 Se9 2.420591 1_555
Ga2 Se2 2.422309 1_555
Ga2 Se10 2.424906 1_555
Ga3 Se7 2.366566 1_555
Ga3 Se8 2.420591 1_555
Ga3 Se3 2.422309 1_555
Ga3 Se11 2.424906 1_555
Ge0 Se2 2.353137 1_555
Ge0 Se15 2.367031 1_555
Ge0 Se13 2.367186 1_555
Ge0 Se5 2.380281 1_555
Ge1 Se3 2.353137 1_555
Ge1 Se14 2.367031 1_555
Ge1 Se12 2.367186 1_555
Ge1 Se4 2.380281 1_555
Ge2 Se11 2.347839 1_555
Ge2 Se0 2.353412 1_555
Ge2 Se8 2.354872 1_565
Ge2 Se4 2.392711 1_555
Ge3 Se10 2.347839 1_555
Ge3 Se1 2.353412 1_555
Ge3 Se9 2.354872 1_545
Ge3 Se5 2.392711 1_555
