# generated using pymatgen
data_LiBePdPt
_symmetry_space_group_name_H-M   'P 1'
_cell_length_a   4.04633661
_cell_length_b   4.04633658
_cell_length_c   4.04633615
_cell_angle_alpha   60.00000353
_cell_angle_beta   60.00000372
_cell_angle_gamma   60.00000229
_symmetry_Int_Tables_number   1
_chemical_formula_structural   LiBePdPt
_chemical_formula_sum   'Li1 Be1 Pd1 Pt1'
_cell_volume   46.84583731
_cell_formula_units_Z   1
loop_
 _symmetry_equiv_pos_site_id
 _symmetry_equiv_pos_as_xyz
  1  'x, y, z'
loop_
 _atom_site_type_symbol
 _atom_site_label
 _atom_site_symmetry_multiplicity
 _atom_site_fract_x
 _atom_site_fract_y
 _atom_site_fract_z
 _atom_site_occupancy
  Li  Li0  1  0.75000000  0.75000000  0.75000000  1
  Be  Be0  1  0.25000000  0.25000000  0.25000000  1
  Pd  Pd0  1  0.50000000  0.50000000  0.50000000  1
  Pt  Pt0  1  0.00000000  0.00000000  0.00000000  1
loop_
_geom_bond_atom_site_label_1
_geom_bond_atom_site_label_2
_geom_bond_distance
_geom_bond_site_symmetry_2
Li0 Pd0 2.477865 1_555
Li0 Pt0 2.477865 1_666
Li0 Pt0 2.477865 1_665
Li0 Pd0 2.477865 1_556
Li0 Pd0 2.477865 1_565
Li0 Pt0 2.477865 1_656
Li0 Pd0 2.477865 1_655
Li0 Pt0 2.477865 1_566
Be0 Pt0 2.477865 1_555
Be0 Pd0 2.477865 1_555
Be0 Pt0 2.477865 1_556
Be0 Pd0 2.477865 1_554
Be0 Pt0 2.477865 1_565
Be0 Pd0 2.477865 1_545
Be0 Pd0 2.477865 1_455
Be0 Pt0 2.477865 1_655
