# generated using pymatgen
data_HfZrHgN
_symmetry_space_group_name_H-M   'P 1'
_cell_length_a   3.29622490
_cell_length_b   3.29622642
_cell_length_c   14.36708171
_cell_angle_alpha   90.00000000
_cell_angle_beta   90.00000000
_cell_angle_gamma   119.99999478
_symmetry_Int_Tables_number   1
_chemical_formula_structural   HfZrHgN
_chemical_formula_sum   'Hf2 Zr2 Hg2 N2'
_cell_volume   135.18642660
_cell_formula_units_Z   2
loop_
 _symmetry_equiv_pos_site_id
 _symmetry_equiv_pos_as_xyz
  1  'x, y, z'
loop_
 _atom_site_type_symbol
 _atom_site_label
 _atom_site_symmetry_multiplicity
 _atom_site_fract_x
 _atom_site_fract_y
 _atom_site_fract_z
 _atom_site_occupancy
  Hf  Hf0  1  0.33333400  0.66666700  0.58541489  1
  Hf  Hf1  1  0.33333400  0.66666700  0.91458611  1
  Zr  Zr0  1  0.66666600  0.33333200  0.08205803  1
  Zr  Zr1  1  0.66666600  0.33333200  0.41794197  1
  Hg  Hg0  1  0.33333400  0.66666700  0.25000000  1
  Hg  Hg1  1  0.66666600  0.33333200  0.75000000  1
  N  N0  1  0.00000000  0.00000000  0.99375076  1
  N  N1  1  0.00000000  0.00000000  0.50624924  1
loop_
_geom_bond_atom_site_label_1
_geom_bond_atom_site_label_2
_geom_bond_distance
_geom_bond_site_symmetry_2
Hf0 N1 2.217053 1_665
Hf0 N1 2.217056 1_565
Hf0 N1 2.217056 1_555
Hf0 Hg1 3.035301 1_565
Hf0 Hg1 3.035305 1_555
Hf0 Hg1 3.035306 1_455
Hf1 N0 2.217046 1_665
Hf1 N0 2.217048 1_565
Hf1 N0 2.217049 1_555
Hf1 Hg1 3.035313 1_565
Hf1 Hg1 3.035316 1_555
Hf1 Hg1 3.035317 1_455
Hg0 Zr1 3.073022 1_565
Hg0 Zr0 3.073022 1_565
Hg0 Zr1 3.073025 1_555
Hg0 Zr0 3.073025 1_555
Hg0 Zr1 3.073027 1_455
Hg0 Zr0 3.073027 1_455
N0 Zr0 2.287212 1_556
N0 Zr0 2.287212 1_456
N0 Zr0 2.287217 1_446
N1 Zr1 2.287212 1_555
N1 Zr1 2.287212 1_455
N1 Zr1 2.287217 1_445
