# generated using pymatgen
data_Cs4TcP4W
_symmetry_space_group_name_H-M   'P 1'
_cell_length_a   8.68304789
_cell_length_b   8.68304819
_cell_length_c   8.68304880
_cell_angle_alpha   138.92247969
_cell_angle_beta   126.06512415
_cell_angle_gamma   69.96916945
_symmetry_Int_Tables_number   1
_chemical_formula_structural   Cs4TcP4W
_chemical_formula_sum   'Cs4 Tc1 P4 W1'
_cell_volume   341.34634335
_cell_formula_units_Z   1
loop_
 _symmetry_equiv_pos_site_id
 _symmetry_equiv_pos_as_xyz
  1  'x, y, z'
loop_
 _atom_site_type_symbol
 _atom_site_label
 _atom_site_symmetry_multiplicity
 _atom_site_fract_x
 _atom_site_fract_y
 _atom_site_fract_z
 _atom_site_occupancy
  Cs  Cs0  1  0.99761062  0.15393171  0.84376713  1
  Cs  Cs1  1  0.00238938  0.84615851  0.15632309  1
  Cs  Cs2  1  0.68983542  0.34606829  0.34367691  1
  Cs  Cs3  1  0.31016458  0.65384149  0.65623287  1
  Tc  Tc0  1  0.50000000  0.25000000  0.75000000  1
  P  P0  1  0.74521258  0.58488139  0.15537953  1
  P  P1  1  0.57049815  0.91511861  0.66033119  1
  P  P2  1  0.42950185  0.08983405  0.34462047  1
  P  P3  1  0.25478742  0.41016595  0.83966881  1
  W  W0  1  0.50000000  0.75000000  0.25000000  1
loop_
_geom_bond_atom_site_label_1
_geom_bond_atom_site_label_2
_geom_bond_distance
_geom_bond_site_symmetry_2
Cs0 P0 3.496525 1_556
Cs0 P0 3.523178 1_545
Cs0 P3 3.681654 1_655
Cs0 P1 3.731572 1_545
Cs0 P2 4.037745 1_656
Cs1 P3 3.496512 1_565
Cs1 P3 3.523190 1_554
Cs1 P0 3.681661 1_455
Cs1 P2 3.731577 1_565
Cs1 P1 4.037750 1_454
Cs2 P1 3.496513 1_544
Cs2 P1 3.523175 1_555
Cs2 P2 3.681668 1_555
Cs2 P0 3.731556 1_555
Cs2 P3 4.037757 1_655
Cs3 P2 3.496507 1_555
Cs3 P2 3.523175 1_566
Cs3 P1 3.681675 1_555
Cs3 P3 3.731564 1_555
Cs3 P0 4.037754 1_455
P0 Tc0 2.316175 1_554
P0 W0 2.335931 1_555
P1 Tc0 2.316175 1_565
P1 W0 2.335931 1_555
P2 Tc0 2.316179 1_555
P2 W0 2.335939 1_545
P3 Tc0 2.316175 1_555
P3 W0 2.335935 1_556
