# generated using pymatgen
data_Sr3LiP2H
_symmetry_space_group_name_H-M   'P 1'
_cell_length_a   4.37967887
_cell_length_b   11.82109916
_cell_length_c   12.44336872
_cell_angle_alpha   90.00000000
_cell_angle_beta   90.00000000
_cell_angle_gamma   90.00000000
_symmetry_Int_Tables_number   1
_chemical_formula_structural   Sr3LiP2H
_chemical_formula_sum   'Sr12 Li4 P8 H4'
_cell_volume   644.22577805
_cell_formula_units_Z   4
loop_
 _symmetry_equiv_pos_site_id
 _symmetry_equiv_pos_as_xyz
  1  'x, y, z'
loop_
 _atom_site_type_symbol
 _atom_site_label
 _atom_site_symmetry_multiplicity
 _atom_site_fract_x
 _atom_site_fract_y
 _atom_site_fract_z
 _atom_site_occupancy
  Sr  Sr0  1  0.25000000  0.06286433  0.62043953  1
  Sr  Sr1  1  0.25000000  0.56286433  0.87956047  1
  Sr  Sr2  1  0.75000000  0.93713567  0.37956047  1
  Sr  Sr3  1  0.75000000  0.43713567  0.12043953  1
  Sr  Sr4  1  0.25000000  0.36964725  0.55957240  1
  Sr  Sr5  1  0.25000000  0.86964725  0.94042760  1
  Sr  Sr6  1  0.75000000  0.63035275  0.44042760  1
  Sr  Sr7  1  0.75000000  0.13035275  0.05957240  1
  Sr  Sr8  1  0.25000000  0.20315155  0.30040432  1
  Sr  Sr9  1  0.25000000  0.70315155  0.19959568  1
  Sr  Sr10  1  0.75000000  0.79684845  0.69959568  1
  Sr  Sr11  1  0.75000000  0.29684845  0.80040432  1
  Li  Li0  1  0.25000000  0.13399676  0.85597623  1
  Li  Li1  1  0.25000000  0.63399676  0.64402377  1
  Li  Li2  1  0.75000000  0.86600324  0.14402377  1
  Li  Li3  1  0.75000000  0.36600324  0.35597623  1
  P  P0  1  0.25000000  0.47368037  0.32484012  1
  P  P1  1  0.25000000  0.97368037  0.17515988  1
  P  P2  1  0.75000000  0.52631963  0.67515988  1
  P  P3  1  0.75000000  0.02631963  0.82484012  1
  P  P4  1  0.25000000  0.31246235  0.98381374  1
  P  P5  1  0.25000000  0.81246235  0.51618626  1
  P  P6  1  0.75000000  0.68753765  0.01618626  1
  P  P7  1  0.75000000  0.18753765  0.48381374  1
  H  H0  1  0.25000000  0.23885935  0.72455570  1
  H  H1  1  0.25000000  0.73885935  0.77544430  1
  H  H2  1  0.75000000  0.76114065  0.27544430  1
  H  H3  1  0.75000000  0.26114065  0.22455570  1
loop_
_geom_bond_atom_site_label_1
_geom_bond_atom_site_label_2
_geom_bond_distance
_geom_bond_site_symmetry_2
Li0 P3 2.562359 1_555
Li0 P3 2.562359 1_455
Li0 P4 2.642174 1_555
Li1 P2 2.562359 1_555
Li1 P2 2.562359 1_455
Li1 P5 2.642174 1_555
Li2 P1 2.562359 1_555
Li2 P1 2.562359 1_655
Li2 P6 2.642174 1_555
Li3 P0 2.562359 1_555
Li3 P0 2.562359 1_655
Li3 P7 2.642174 1_555
P0 Sr9 3.128420 1_555
P0 Sr4 3.169195 1_555
P0 Sr6 3.208449 1_455
P0 Sr6 3.208449 1_555
P0 Sr8 3.212371 1_555
P0 Sr3 3.383942 1_455
P0 Sr3 3.383942 1_555
P1 Sr8 3.128420 1_565
P1 Sr5 3.169195 1_554
P1 Sr7 3.208449 1_465
P1 Sr7 3.208449 1_565
P1 Sr9 3.212371 1_555
P1 Sr2 3.383942 1_555
P1 Sr2 3.383942 1_455
P2 Sr11 3.128420 1_555
P2 Sr6 3.169195 1_555
P2 Sr4 3.208449 1_555
P2 Sr4 3.208449 1_655
P2 Sr10 3.212371 1_555
P2 Sr1 3.383942 1_655
P2 Sr1 3.383942 1_555
P3 Sr10 3.128420 1_545
P3 Sr7 3.169195 1_556
P3 Sr5 3.208449 1_545
P3 Sr5 3.208449 1_645
P3 Sr11 3.212371 1_555
P3 Sr0 3.383942 1_655
P3 Sr0 3.383942 1_555
P4 Sr3 3.139698 1_456
P4 Sr3 3.139698 1_556
P4 Sr11 3.168287 1_455
P4 Sr11 3.168287 1_555
P4 Sr7 3.212217 1_456
P4 Sr7 3.212217 1_556
P4 Sr1 3.231818 1_555
P5 Sr2 3.139698 1_455
P5 Sr2 3.139698 1_555
P5 Sr10 3.168287 1_455
P5 Sr10 3.168287 1_555
P5 Sr6 3.212217 1_455
P5 Sr6 3.212217 1_555
P5 Sr0 3.231818 1_565
P6 Sr1 3.139698 1_654
P6 Sr1 3.139698 1_554
P6 Sr9 3.168287 1_655
P6 Sr9 3.168287 1_555
P6 Sr5 3.212217 1_554
P6 Sr5 3.212217 1_654
P6 Sr3 3.231818 1_555
P7 Sr0 3.139698 1_655
P7 Sr0 3.139698 1_555
P7 Sr8 3.168287 1_555
P7 Sr8 3.168287 1_655
P7 Sr4 3.212217 1_555
P7 Sr4 3.212217 1_655
P7 Sr2 3.231818 1_545
H0 Li0 2.052033 1_555
H0 Sr0 2.450868 1_555
H0 Sr11 2.481145 1_555
H0 Sr11 2.481145 1_455
H0 Sr4 2.569998 1_555
H1 Li1 2.052033 1_555
H1 Sr1 2.450868 1_555
H1 Sr10 2.481145 1_455
H1 Sr10 2.481145 1_555
H1 Sr5 2.569998 1_555
H2 Li2 2.052033 1_555
H2 Sr2 2.450868 1_555
H2 Sr9 2.481145 1_555
H2 Sr9 2.481145 1_655
H2 Sr6 2.569998 1_555
H3 Li3 2.052033 1_555
H3 Sr3 2.450868 1_555
H3 Sr8 2.481145 1_555
H3 Sr8 2.481145 1_655
H3 Sr7 2.569998 1_555
