# generated using pymatgen
data_Nb10GeB4As
_symmetry_space_group_name_H-M   'P 1'
_cell_length_a   7.35978530
_cell_length_b   7.35978648
_cell_length_c   7.35978632
_cell_angle_alpha   129.36634521
_cell_angle_beta   129.36635996
_cell_angle_gamma   74.42180609
_symmetry_Int_Tables_number   1
_chemical_formula_structural   Nb10GeB4As
_chemical_formula_sum   'Nb10 Ge1 B4 As1'
_cell_volume   232.22964001
_cell_formula_units_Z   1
loop_
 _symmetry_equiv_pos_site_id
 _symmetry_equiv_pos_as_xyz
  1  'x, y, z'
loop_
 _atom_site_type_symbol
 _atom_site_label
 _atom_site_symmetry_multiplicity
 _atom_site_fract_x
 _atom_site_fract_y
 _atom_site_fract_z
 _atom_site_occupancy
  Nb  Nb0  1  0.99922994  0.99922994  0.00000000  1
  Nb  Nb1  1  0.50077006  0.50077006  1.00000000  1
  Nb  Nb2  1  0.80460035  0.30398948  0.83448820  1
  Nb  Nb3  1  0.19601052  0.69539965  0.16551180  1
  Nb  Nb4  1  0.46950228  0.97011315  0.16551180  1
  Nb  Nb5  1  0.30398948  0.46950228  0.49939013  1
  Nb  Nb6  1  0.03049772  0.19601052  0.50060987  1
  Nb  Nb7  1  0.52988685  0.03049772  0.83448820  1
  Nb  Nb8  1  0.69539965  0.52988685  0.49939013  1
  Nb  Nb9  1  0.97011315  0.80460035  0.50060987  1
  Ge  Ge0  1  0.75000000  0.75000000  0.00000000  1
  B  B0  1  0.11416917  0.61416917  0.72833735  1
  B  B1  1  0.88583083  0.38583083  0.27166265  1
  B  B2  1  0.61416917  0.88583083  0.50000000  1
  B  B3  1  0.38583083  0.11416917  0.50000000  1
  As  As0  1  0.25000000  0.25000000  0.00000000  1
loop_
_geom_bond_atom_site_label_1
_geom_bond_atom_site_label_2
_geom_bond_distance
_geom_bond_site_symmetry_2
Nb0 Nb6 2.838943 1_665
Nb0 Nb3 2.838945 1_655
Nb0 Nb8 2.838949 1_554
Nb0 Nb7 2.838951 1_564
Nb0 Nb2 2.844893 1_564
Nb0 Nb5 2.844898 1_665
Nb0 Nb4 2.844900 1_655
Nb0 Nb9 2.844905 1_554
Nb1 Nb5 2.838942 1_555
Nb1 Nb2 2.838945 1_555
Nb1 Nb9 2.838949 1_556
Nb1 Nb4 2.838952 1_556
Nb1 Nb3 2.844893 1_556
Nb1 Nb6 2.844898 1_555
Nb1 Nb7 2.844900 1_555
Nb1 Nb8 2.844905 1_556
Ge0 Nb9 2.694521 1_555
Ge0 Nb8 2.694521 1_554
Ge0 Nb7 2.694523 1_564
Ge0 Nb4 2.694523 1_555
Ge0 Nb5 2.694526 1_554
Ge0 Nb6 2.694527 1_665
Ge0 Nb3 2.694528 1_655
Ge0 Nb2 2.694529 1_554
Ge0 Nb0 2.921694 1_555
Ge0 Nb1 2.921694 1_554
B0 B1 2.032584 1_455
B0 Nb9 2.413502 1_455
B0 Nb6 2.413502 1_555
B0 Nb5 2.415779 1_555
B0 Nb8 2.415794 1_455
B0 Nb4 2.523370 1_556
B0 Nb3 2.523370 1_556
B0 Nb1 2.532696 1_555
B0 Nb0 2.532697 1_456
B1 Nb5 2.413501 1_655
B1 Nb8 2.413502 1_555
B1 Nb6 2.415779 1_655
B1 Nb9 2.415795 1_555
B1 Nb7 2.523370 1_554
B1 Nb2 2.523370 1_554
B1 Nb1 2.532696 1_554
B1 Nb0 2.532697 1_545
B2 B3 2.032593 1_565
B2 Nb3 2.413500 1_555
B2 Nb2 2.413501 1_565
B2 Nb4 2.415797 1_555
B2 Nb7 2.415797 1_565
B2 Nb9 2.523373 1_555
B2 Nb8 2.523374 1_555
B2 Nb0 2.532694 1_556
B2 Nb1 2.532695 1_554
B3 Nb7 2.413508 1_555
B3 Nb4 2.413509 1_545
B3 Nb2 2.415789 1_555
B3 Nb3 2.415790 1_545
B3 Nb6 2.523366 1_555
B3 Nb5 2.523366 1_555
B3 Nb0 2.532694 1_445
B3 Nb1 2.532695 1_555
As0 Nb4 2.690028 1_545
As0 Nb7 2.690028 1_554
As0 Nb8 2.690033 1_555
As0 Nb9 2.690033 1_444
As0 Nb2 2.690033 1_454
As0 Nb3 2.690034 1_555
As0 Nb6 2.690039 1_554
As0 Nb5 2.690039 1_555
As0 Nb0 2.939749 1_445
As0 Nb1 2.939749 1_554
