# generated using pymatgen
data_AlCdSbSe
_symmetry_space_group_name_H-M   'P 1'
_cell_length_a   7.51440686
_cell_length_b   7.51440708
_cell_length_c   7.51440699
_cell_angle_alpha   33.69365955
_cell_angle_beta   33.69365854
_cell_angle_gamma   33.69366303
_symmetry_Int_Tables_number   1
_chemical_formula_structural   AlCdSbSe
_chemical_formula_sum   'Al1 Cd1 Sb1 Se1'
_cell_volume   116.33836706
_cell_formula_units_Z   1
loop_
 _symmetry_equiv_pos_site_id
 _symmetry_equiv_pos_as_xyz
  1  'x, y, z'
loop_
 _atom_site_type_symbol
 _atom_site_label
 _atom_site_symmetry_multiplicity
 _atom_site_fract_x
 _atom_site_fract_y
 _atom_site_fract_z
 _atom_site_occupancy
  Al  Al0  1  0.50361729  0.50361729  0.50361729  1
  Cd  Cd0  1  0.99881380  0.99881380  0.99881380  1
  Sb  Sb0  1  0.12966641  0.12966641  0.12966641  1
  Se  Se0  1  0.61790050  0.61790050  0.61790050  1
loop_
_geom_bond_atom_site_label_1
_geom_bond_atom_site_label_2
_geom_bond_distance
_geom_bond_site_symmetry_2
Al0 Se0 2.427769 1_555
Al0 Sb0 2.658602 1_556
Al0 Sb0 2.658602 1_655
Al0 Sb0 2.658602 1_565
Cd0 Se0 2.710218 1_556
Cd0 Se0 2.710218 1_655
Cd0 Se0 2.710219 1_565
Cd0 Sb0 2.779760 1_666
