# generated using pymatgen
data_Nb3Ni2SbN
_symmetry_space_group_name_H-M   'P 1'
_cell_length_a   8.23755178
_cell_length_b   8.23755226
_cell_length_c   8.23755221
_cell_angle_alpha   60.00000020
_cell_angle_beta   59.99999828
_cell_angle_gamma   60.00000306
_symmetry_Int_Tables_number   1
_chemical_formula_structural   Nb3Ni2SbN
_chemical_formula_sum   'Nb12 Ni8 Sb4 N4'
_cell_volume   395.25696160
_cell_formula_units_Z   4
loop_
 _symmetry_equiv_pos_site_id
 _symmetry_equiv_pos_as_xyz
  1  'x, y, z'
loop_
 _atom_site_type_symbol
 _atom_site_label
 _atom_site_symmetry_multiplicity
 _atom_site_fract_x
 _atom_site_fract_y
 _atom_site_fract_z
 _atom_site_occupancy
  Nb  Nb0  1  0.81765578  0.81765578  0.18234422  1
  Nb  Nb1  1  0.18234422  0.18234422  0.81765578  1
  Nb  Nb2  1  0.81765578  0.18234422  0.81765578  1
  Nb  Nb3  1  0.18234422  0.81765578  0.18234422  1
  Nb  Nb4  1  0.18234422  0.81765578  0.81765578  1
  Nb  Nb5  1  0.81765578  0.18234422  0.18234422  1
  Nb  Nb6  1  0.43234422  0.43234422  0.06765578  1
  Nb  Nb7  1  0.06765578  0.06765578  0.43234422  1
  Nb  Nb8  1  0.43234422  0.06765578  0.43234422  1
  Nb  Nb9  1  0.06765578  0.43234422  0.06765578  1
  Nb  Nb10  1  0.06765578  0.43234422  0.43234422  1
  Nb  Nb11  1  0.43234422  0.06765578  0.06765578  1
  Ni  Ni0  1  0.75124036  0.41625321  0.41625321  1
  Ni  Ni1  1  0.41625321  0.75124036  0.41625321  1
  Ni  Ni2  1  0.41625321  0.41625321  0.75124036  1
  Ni  Ni3  1  0.41625321  0.41625321  0.41625321  1
  Ni  Ni4  1  0.49875964  0.83374679  0.83374679  1
  Ni  Ni5  1  0.83374679  0.49875964  0.83374679  1
  Ni  Ni6  1  0.83374679  0.83374679  0.49875964  1
  Ni  Ni7  1  0.83374679  0.83374679  0.83374679  1
  Sb  Sb0  1  0.12500000  0.62500000  0.62500000  1
  Sb  Sb1  1  0.62500000  0.12500000  0.62500000  1
  Sb  Sb2  1  0.62500000  0.62500000  0.12500000  1
  Sb  Sb3  1  0.62500000  0.62500000  0.62500000  1
  N  N0  1  0.62500000  0.12500000  0.12500000  1
  N  N1  1  0.12500000  0.62500000  0.12500000  1
  N  N2  1  0.12500000  0.12500000  0.62500000  1
  N  N3  1  0.12500000  0.12500000  0.12500000  1
loop_
_geom_bond_atom_site_label_1
_geom_bond_atom_site_label_2
_geom_bond_distance
_geom_bond_site_symmetry_2
Nb0 Ni7 2.745446 1_554
Nb0 Ni6 2.745446 1_555
Nb0 Sb2 3.046029 1_555
Nb0 Sb3 3.046029 1_555
Nb0 Ni1 3.054354 1_555
Nb0 Ni0 3.054354 1_555
Nb1 Ni5 2.745446 1_455
Nb1 Ni4 2.745446 1_545
Nb1 Sb1 3.046029 1_555
Nb1 Sb0 3.046029 1_555
Nb1 Ni3 3.054354 1_555
Nb1 Ni2 3.054354 1_555
Nb2 Ni5 2.745446 1_555
Nb2 Ni7 2.745446 1_545
Nb2 Sb1 3.046029 1_555
Nb2 Sb3 3.046029 1_555
Nb2 Ni2 3.054354 1_555
Nb2 Ni0 3.054354 1_555
Nb3 Ni6 2.745446 1_455
Nb3 Ni4 2.745446 1_554
Nb3 Sb2 3.046029 1_555
Nb3 Sb0 3.046029 1_555
Nb3 Ni1 3.054354 1_555
Nb3 Ni3 3.054354 1_555
Nb4 Ni7 2.745446 1_455
Nb4 Ni4 2.745446 1_555
Nb4 Sb3 3.046029 1_555
Nb4 Sb0 3.046029 1_555
Nb4 Ni1 3.054354 1_555
Nb4 Ni2 3.054354 1_555
Nb5 Ni5 2.745446 1_554
Nb5 Ni6 2.745446 1_545
Nb5 Sb1 3.046029 1_555
Nb5 Sb2 3.046029 1_555
Nb5 Ni3 3.054354 1_555
Nb5 Ni0 3.054354 1_555
Nb6 Ni2 2.745446 1_554
Nb6 Ni3 2.745446 1_555
Nb6 Sb2 3.046029 1_555
Nb6 Sb3 3.046029 1_554
Nb6 Ni5 3.054354 1_554
Nb6 Ni4 3.054354 1_554
Nb7 Ni1 2.745446 1_545
Nb7 Ni0 2.745446 1_455
Nb7 Sb1 3.046029 1_455
Nb7 Sb0 3.046029 1_545
Nb7 Ni6 3.054354 1_445
Nb7 Ni7 3.054354 1_445
Nb8 Ni1 2.745446 1_545
Nb8 Ni3 2.745446 1_555
Nb8 Sb1 3.046029 1_555
Nb8 Sb3 3.046029 1_545
Nb8 Ni6 3.054354 1_545
Nb8 Ni4 3.054354 1_545
Nb9 Ni2 2.745446 1_554
Nb9 Ni0 2.745446 1_455
Nb9 Sb2 3.046029 1_455
Nb9 Sb0 3.046029 1_554
Nb9 Ni5 3.054354 1_454
Nb9 Ni7 3.054354 1_454
Nb10 Ni3 2.745446 1_555
Nb10 Ni0 2.745446 1_455
Nb10 Sb3 3.046029 1_455
Nb10 Sb0 3.046029 1_555
Nb10 Ni5 3.054354 1_455
Nb10 Ni6 3.054354 1_455
Nb11 Ni1 2.745446 1_545
Nb11 Ni2 2.745446 1_554
Nb11 Sb1 3.046029 1_554
Nb11 Sb2 3.046029 1_545
Nb11 Ni7 3.054354 1_544
Nb11 Ni4 3.054354 1_544
Ni0 Sb1 2.525018 1_555
Ni0 Sb2 2.525018 1_555
Ni0 Sb3 2.525018 1_555
Ni0 Ni3 2.759474 1_555
Ni0 Ni2 2.759474 1_555
Ni0 Ni1 2.759474 1_555
Ni1 Sb0 2.525018 1_555
Ni1 Sb2 2.525018 1_555
Ni1 Sb3 2.525018 1_555
Ni1 Ni3 2.759474 1_555
Ni1 Ni2 2.759474 1_555
Ni2 Sb3 2.525018 1_555
Ni2 Sb0 2.525018 1_555
Ni2 Sb1 2.525018 1_555
Ni2 Ni3 2.759474 1_555
Ni3 Sb2 2.525018 1_555
Ni3 Sb0 2.525018 1_555
Ni3 Sb1 2.525018 1_555
Ni4 Sb1 2.525018 1_565
Ni4 Sb3 2.525018 1_555
Ni4 Sb2 2.525018 1_556
Ni4 Ni7 2.759474 1_555
Ni4 Ni6 2.759474 1_555
Ni4 Ni5 2.759474 1_555
Ni5 Sb0 2.525018 1_655
Ni5 Sb3 2.525018 1_555
Ni5 Sb2 2.525018 1_556
Ni5 Ni7 2.759474 1_555
Ni5 Ni6 2.759474 1_555
Ni6 Sb3 2.525018 1_555
Ni6 Sb0 2.525018 1_655
Ni6 Sb1 2.525018 1_565
Ni6 Ni7 2.759474 1_555
Ni7 Sb2 2.525018 1_556
Ni7 Sb0 2.525018 1_655
Ni7 Sb1 2.525018 1_565
N0 Nb5 2.165030 1_555
N0 Nb11 2.165030 1_555
N0 Nb8 2.165030 1_555
N0 Nb2 2.165030 1_554
N0 Nb6 2.165031 1_555
N0 Nb0 2.165031 1_545
N1 Nb10 2.165031 1_555
N1 Nb4 2.165031 1_554
N1 Nb3 2.165031 1_555
N1 Nb9 2.165031 1_555
N1 Nb6 2.165031 1_555
N1 Nb0 2.165031 1_455
N2 Nb2 2.165030 1_455
N2 Nb8 2.165030 1_555
N2 Nb1 2.165031 1_555
N2 Nb7 2.165031 1_555
N2 Nb10 2.165031 1_555
N2 Nb4 2.165031 1_545
N3 Nb11 2.165030 1_555
N3 Nb5 2.165030 1_455
N3 Nb7 2.165031 1_555
N3 Nb1 2.165031 1_554
N3 Nb9 2.165031 1_555
N3 Nb3 2.165031 1_545
