# generated using pymatgen
data_HfMg3Ge6Ir7
_symmetry_space_group_name_H-M   'P 1'
_cell_length_a   7.04907389
_cell_length_b   6.93191521
_cell_length_c   7.04907470
_cell_angle_alpha   109.13489264
_cell_angle_beta   109.80545337
_cell_angle_gamma   109.13488726
_symmetry_Int_Tables_number   1
_chemical_formula_structural   HfMg3Ge6Ir7
_chemical_formula_sum   'Hf1 Mg3 Ge6 Ir7'
_cell_volume   266.24492504
_cell_formula_units_Z   1
loop_
 _symmetry_equiv_pos_site_id
 _symmetry_equiv_pos_as_xyz
  1  'x, y, z'
loop_
 _atom_site_type_symbol
 _atom_site_label
 _atom_site_symmetry_multiplicity
 _atom_site_fract_x
 _atom_site_fract_y
 _atom_site_fract_z
 _atom_site_occupancy
  Hf  Hf0  1  0.00000000  0.50000000  0.00000000  1
  Mg  Mg0  1  0.00000000  0.00000000  0.50000000  1
  Mg  Mg1  1  0.50000000  0.00000000  0.00000000  1
  Mg  Mg2  1  0.50000000  0.50000000  0.50000000  1
  Ge  Ge0  1  0.68702331  0.69399057  1.00000000  1
  Ge  Ge1  1  0.31297669  0.00696626  0.31297669  1
  Ge  Ge2  1  0.00000000  0.30600943  0.31297669  1
  Ge  Ge3  1  0.31297669  0.30600943  0.00000000  1
  Ge  Ge4  1  0.68702331  0.99303374  0.68702331  1
  Ge  Ge5  1  1.00000000  0.69399057  0.68702331  1
  Ir  Ir0  1  0.75138931  0.25138931  0.50278062  1
  Ir  Ir1  1  0.75138931  0.50000000  0.24861069  1
  Ir  Ir2  1  0.50278062  0.25138931  0.75138931  1
  Ir  Ir3  1  0.24861069  0.50000000  0.75138931  1
  Ir  Ir4  1  0.24861069  0.74861069  0.49721938  1
  Ir  Ir5  1  0.49721938  0.74861069  0.24861069  1
  Ir  Ir6  1  0.00000000  0.00000000  0.00000000  1
loop_
_geom_bond_atom_site_label_1
_geom_bond_atom_site_label_2
_geom_bond_distance
_geom_bond_site_symmetry_2
Hf0 Ir5 2.867658 1_555
Hf0 Ir2 2.867658 1_454
Hf0 Ir4 2.867658 1_555
Hf0 Ir0 2.867658 1_454
Hf0 Ir1 2.867670 1_455
Hf0 Ir3 2.867670 1_554
Ge0 Ir6 2.509756 1_666
Ge0 Ir3 2.547658 1_555
Ge0 Ir5 2.547670 1_556
Ge0 Ir1 2.547831 1_556
Ge0 Ir2 2.547832 1_555
Ge0 Mg1 2.840950 1_566
Ge0 Mg0 2.924126 1_666
Ge0 Mg2 2.924127 1_555
Ge0 Hf0 2.936075 1_656
Ge1 Ir6 2.509760 1_555
Ge1 Ir0 2.547657 1_555
Ge1 Ir2 2.547658 1_555
Ge1 Ir5 2.547814 1_545
Ge1 Ir4 2.547814 1_545
Ge1 Mg2 2.840956 1_555
Ge1 Mg0 2.924127 1_555
Ge1 Mg1 2.924127 1_555
Ge1 Hf0 2.936070 1_545
Ge2 Ir6 2.509756 1_555
Ge2 Ir3 2.547658 1_555
Ge2 Ir0 2.547670 1_455
Ge2 Ir1 2.547831 1_455
Ge2 Ir4 2.547832 1_555
Ge2 Mg0 2.840950 1_555
Ge2 Mg1 2.924126 1_455
Ge2 Mg2 2.924126 1_555
Ge2 Hf0 2.936075 1_555
Ge3 Ir6 2.509756 1_555
Ge3 Ir1 2.547658 1_555
Ge3 Ir2 2.547670 1_554
Ge3 Ir3 2.547831 1_554
Ge3 Ir5 2.547832 1_555
Ge3 Mg1 2.840950 1_555
Ge3 Mg0 2.924126 1_554
Ge3 Mg2 2.924127 1_555
Ge3 Hf0 2.936075 1_555
Ge4 Ir6 2.509760 1_666
Ge4 Ir4 2.547657 1_555
Ge4 Ir5 2.547658 1_555
Ge4 Ir2 2.547814 1_565
Ge4 Ir0 2.547814 1_565
Ge4 Mg2 2.840956 1_555
Ge4 Mg0 2.924127 1_665
Ge4 Mg1 2.924127 1_566
Ge4 Hf0 2.936070 1_666
Ge5 Ir6 2.509756 1_666
Ge5 Ir1 2.547658 1_555
Ge5 Ir4 2.547670 1_655
Ge5 Ir3 2.547831 1_655
Ge5 Ir0 2.547832 1_555
Ge5 Mg0 2.840950 1_665
Ge5 Mg1 2.924126 1_666
Ge5 Mg2 2.924126 1_555
Ge5 Hf0 2.936075 1_656
Ir0 Mg2 2.848018 1_555
Ir0 Mg0 2.848018 1_655
Ir0 Mg1 2.899732 1_555
Ir1 Mg0 2.848018 1_665
Ir1 Mg1 2.848018 1_555
Ir1 Mg2 2.899721 1_555
Ir2 Mg2 2.848018 1_555
Ir2 Mg1 2.848018 1_556
Ir2 Mg0 2.899732 1_555
Ir3 Mg0 2.848018 1_555
Ir3 Mg1 2.848018 1_566
Ir3 Mg2 2.899721 1_555
Ir4 Mg2 2.848018 1_555
Ir4 Mg0 2.848018 1_565
Ir4 Mg1 2.899732 1_566
Ir5 Mg2 2.848018 1_555
Ir5 Mg1 2.848018 1_565
Ir5 Mg0 2.899732 1_665
