# generated using pymatgen
data_InAg(RhSe2)4
_symmetry_space_group_name_H-M   'P 1'
_cell_length_a   7.54672963
_cell_length_b   7.54672983
_cell_length_c   7.54672942
_cell_angle_alpha   59.99999757
_cell_angle_beta   59.99999669
_cell_angle_gamma   59.99999868
_symmetry_Int_Tables_number   1
_chemical_formula_structural   InAg(RhSe2)4
_chemical_formula_sum   'In1 Ag1 Rh4 Se8'
_cell_volume   303.92144938
_cell_formula_units_Z   1
loop_
 _symmetry_equiv_pos_site_id
 _symmetry_equiv_pos_as_xyz
  1  'x, y, z'
loop_
 _atom_site_type_symbol
 _atom_site_label
 _atom_site_symmetry_multiplicity
 _atom_site_fract_x
 _atom_site_fract_y
 _atom_site_fract_z
 _atom_site_occupancy
  In  In0  1  0.00000000  0.00000000  0.00000000  1
  Ag  Ag0  1  0.75000000  0.75000000  0.75000000  1
  Rh  Rh0  1  0.37774204  0.37774204  0.37774204  1
  Rh  Rh1  1  0.37774204  0.86677288  0.37774204  1
  Rh  Rh2  1  0.86677288  0.37774204  0.37774204  1
  Rh  Rh3  1  0.37774204  0.37774204  0.86677288  1
  Se  Se0  1  0.14155632  0.14155632  0.14155632  1
  Se  Se1  1  0.14155632  0.57532904  0.14155632  1
  Se  Se2  1  0.57532904  0.14155632  0.14155632  1
  Se  Se3  1  0.14155632  0.14155632  0.57532904  1
  Se  Se4  1  0.60818795  0.60818795  0.60818795  1
  Se  Se5  1  0.60818795  0.17543715  0.60818795  1
  Se  Se6  1  0.17543715  0.60818795  0.60818795  1
  Se  Se7  1  0.60818795  0.60818795  0.17543715  1
loop_
_geom_bond_atom_site_label_1
_geom_bond_atom_site_label_2
_geom_bond_distance
_geom_bond_site_symmetry_2
In0 Se0 2.616759 1_555
In0 Se3 2.616771 1_554
In0 Se2 2.616771 1_455
In0 Se1 2.616771 1_545
Ag0 Se4 2.621486 1_555
Ag0 Se7 2.621492 1_556
Ag0 Se6 2.621492 1_655
Ag0 Se5 2.621492 1_565
Rh0 Se5 2.468629 1_555
Rh0 Se6 2.468629 1_555
Rh0 Se7 2.468629 1_555
Rh0 Se1 2.537511 1_555
Rh0 Se2 2.537511 1_555
Rh0 Se3 2.537511 1_555
Rh1 Se6 2.468618 1_555
Rh1 Se7 2.468618 1_555
Rh1 Se4 2.468628 1_555
Rh1 Se2 2.537506 1_565
Rh1 Se3 2.537506 1_565
Rh1 Se0 2.537510 1_565
Rh2 Se5 2.468618 1_555
Rh2 Se7 2.468618 1_555
Rh2 Se4 2.468628 1_555
Rh2 Se1 2.537506 1_655
Rh2 Se3 2.537506 1_655
Rh2 Se0 2.537510 1_655
Rh3 Se5 2.468618 1_555
Rh3 Se6 2.468618 1_555
Rh3 Se4 2.468628 1_555
Rh3 Se1 2.537506 1_556
Rh3 Se2 2.537506 1_556
Rh3 Se0 2.537510 1_556
