# generated using pymatgen
data_SmRhO3
_symmetry_space_group_name_H-M   'P 1'
_cell_length_a   5.29624651
_cell_length_b   5.82438090
_cell_length_c   7.70683536
_cell_angle_alpha   90.00000000
_cell_angle_beta   90.00000000
_cell_angle_gamma   90.00000000
_symmetry_Int_Tables_number   1
_chemical_formula_structural   SmRhO3
_chemical_formula_sum   'Sm4 Rh4 O12'
_cell_volume   237.73550180
_cell_formula_units_Z   4
loop_
 _symmetry_equiv_pos_site_id
 _symmetry_equiv_pos_as_xyz
  1  'x, y, z'
loop_
 _atom_site_type_symbol
 _atom_site_label
 _atom_site_symmetry_multiplicity
 _atom_site_fract_x
 _atom_site_fract_y
 _atom_site_fract_z
 _atom_site_occupancy
  Sm  Sm0  1  0.47224408  0.58069394  0.75000000  1
  Sm  Sm1  1  0.97224408  0.91930606  0.25000000  1
  Sm  Sm2  1  0.02775592  0.08069394  0.75000000  1
  Sm  Sm3  1  0.52775592  0.41930606  0.25000000  1
  Rh  Rh0  1  0.50000000  -0.00000000  0.50000000  1
  Rh  Rh1  1  -0.00000000  0.50000000  0.50000000  1
  Rh  Rh2  1  -0.00000000  0.50000000  0.00000000  1
  Rh  Rh3  1  0.50000000  -0.00000000  0.00000000  1
  O  O0  1  0.81955348  0.19349432  0.44418807  1
  O  O1  1  0.31955348  0.30650568  0.55581193  1
  O  O2  1  0.68044652  0.69349432  0.05581193  1
  O  O3  1  0.18044652  0.80650568  0.94418807  1
  O  O4  1  0.18044652  0.80650568  0.55581193  1
  O  O5  1  0.68044652  0.69349432  0.44418807  1
  O  O6  1  0.31955348  0.30650568  0.94418807  1
  O  O7  1  0.81955348  0.19349432  0.05581193  1
  O  O8  1  0.38122409  0.04055915  0.25000000  1
  O  O9  1  0.88122409  0.45944085  0.75000000  1
  O  O10  1  0.11877591  0.54055915  0.25000000  1
  O  O11  1  0.61877591  0.95944085  0.75000000  1
loop_
_geom_bond_atom_site_label_1
_geom_bond_atom_site_label_2
_geom_bond_distance
_geom_bond_site_symmetry_2
O0 Rh1 2.070101 1_655
O0 Rh0 2.078327 1_555
O0 Sm1 2.333248 1_545
O0 Sm3 2.521485 1_555
O0 Sm2 2.683705 1_655
O1 Rh0 2.070101 1_555
O1 Rh1 2.078327 1_555
O1 Sm0 2.333248 1_555
O1 Sm2 2.521485 1_555
O1 Sm3 2.683705 1_555
O2 Rh3 2.070101 1_565
O2 Rh2 2.078327 1_655
O2 Sm3 2.333248 1_555
O2 Sm1 2.521485 1_555
O2 Sm0 2.683705 1_554
O3 Rh2 2.070101 1_556
O3 Rh3 2.078327 1_566
O3 Sm2 2.333248 1_565
O3 Sm0 2.521485 1_555
O3 Sm1 2.683705 1_456
O4 Rh1 2.070101 1_555
O4 Rh0 2.078327 1_565
O4 Sm2 2.333248 1_565
O4 Sm0 2.521485 1_555
O4 Sm1 2.683705 1_455
O5 Rh0 2.070101 1_565
O5 Rh1 2.078327 1_655
O5 Sm3 2.333248 1_555
O5 Sm1 2.521485 1_555
O5 Sm0 2.683705 1_555
O6 Rh3 2.070101 1_556
O6 Rh2 2.078327 1_556
O6 Sm0 2.333248 1_555
O6 Sm2 2.521485 1_555
O6 Sm3 2.683705 1_556
O7 Rh2 2.070101 1_655
O7 Rh3 2.078327 1_555
O7 Sm1 2.333248 1_545
O7 Sm3 2.521485 1_555
O7 Sm2 2.683705 1_654
O8 Rh0 2.040524 1_555
O8 Rh3 2.040524 1_555
O8 Sm1 2.278281 1_445
O8 Sm3 2.338497 1_555
O9 Rh1 2.040524 1_655
O9 Rh2 2.040524 1_656
O9 Sm0 2.278281 1_555
O9 Sm2 2.338497 1_655
O10 Rh1 2.040524 1_555
O10 Rh2 2.040524 1_555
O10 Sm3 2.278281 1_555
O10 Sm1 2.338497 1_455
O11 Rh3 2.040524 1_566
O11 Rh0 2.040524 1_565
O11 Sm2 2.278281 1_665
O11 Sm0 2.338497 1_555
