# generated using pymatgen
data_Na3As(CO3)3
_symmetry_space_group_name_H-M   'P 1'
_cell_length_a   6.62803439
_cell_length_b   6.62803418
_cell_length_c   10.13781770
_cell_angle_alpha   90.00000000
_cell_angle_beta   90.00000000
_cell_angle_gamma   115.81454338
_symmetry_Int_Tables_number   1
_chemical_formula_structural   Na3As(CO3)3
_chemical_formula_sum   'Na6 As2 C6 O18'
_cell_volume   400.91930351
_cell_formula_units_Z   2
loop_
 _symmetry_equiv_pos_site_id
 _symmetry_equiv_pos_as_xyz
  1  'x, y, z'
loop_
 _atom_site_type_symbol
 _atom_site_label
 _atom_site_symmetry_multiplicity
 _atom_site_fract_x
 _atom_site_fract_y
 _atom_site_fract_z
 _atom_site_occupancy
  Na  Na0  1  0.06385491  0.06385491  0.00000000  1
  Na  Na1  1  0.34706472  0.36649943  0.25000000  1
  Na  Na2  1  0.15213182  0.72181590  0.25000000  1
  Na  Na3  1  0.06385491  0.06385491  0.50000000  1
  Na  Na4  1  0.72181590  0.15213182  0.75000000  1
  Na  Na5  1  0.36649943  0.34706472  0.75000000  1
  As  As0  1  0.69427558  0.15509185  0.25000000  1
  As  As1  1  0.15509185  0.69427558  0.75000000  1
  C  C0  1  0.55407435  0.13670297  0.00372744  1
  C  C1  1  0.77655989  0.79785150  0.25000000  1
  C  C2  1  0.55407435  0.13670297  0.49627256  1
  C  C3  1  0.13670297  0.55407435  0.50372744  1
  C  C4  1  0.79785150  0.77655989  0.75000000  1
  C  C5  1  0.13670297  0.55407435  0.99627256  1
  O  O0  1  0.72696377  0.10377842  0.99429925  1
  O  O1  1  0.47591282  0.13757184  0.12911919  1
  O  O2  1  0.16865689  0.44511825  0.08825787  1
  O  O3  1  0.73196503  0.59484867  0.25000000  1
  O  O4  1  0.97104924  0.96215500  0.25000000  1
  O  O5  1  0.59649273  0.84924617  0.25000000  1
  O  O6  1  0.16865689  0.44511825  0.41174213  1
  O  O7  1  0.47591282  0.13757184  0.37088081  1
  O  O8  1  0.72696377  0.10377842  0.50570075  1
  O  O9  1  0.10377842  0.72696377  0.49429925  1
  O  O10  1  0.13757184  0.47591282  0.62911919  1
  O  O11  1  0.44511825  0.16865689  0.58825787  1
  O  O12  1  0.84924617  0.59649273  0.75000000  1
  O  O13  1  0.59484867  0.73196503  0.75000000  1
  O  O14  1  0.96215500  0.97104924  0.75000000  1
  O  O15  1  0.44511825  0.16865689  0.91174213  1
  O  O16  1  0.13757184  0.47591282  0.87088081  1
  O  O17  1  0.10377842  0.72696377  0.00570075  1
loop_
_geom_bond_atom_site_label_1
_geom_bond_atom_site_label_2
_geom_bond_distance
_geom_bond_site_symmetry_2
Na0 O17 2.360914 1_545
Na0 O0 2.360914 1_454
Na0 O2 2.477937 1_555
Na0 O15 2.477937 1_554
Na0 O4 2.625850 1_445
Na0 O14 2.625850 1_444
Na0 O16 2.872123 1_554
Na0 O1 2.872123 1_555
Na1 O6 2.212493 1_555
Na1 O2 2.212493 1_555
Na1 O3 2.331571 1_555
Na1 O1 2.379492 1_555
Na1 O7 2.379492 1_555
Na1 O4 2.752572 1_445
Na1 O5 2.892063 1_555
Na2 O4 2.375549 1_455
Na2 O6 2.497801 1_555
Na2 O2 2.497801 1_555
Na2 O9 2.499450 1_555
Na2 O17 2.499450 1_555
Na2 O3 2.534298 1_455
Na2 O5 2.687251 1_555
Na2 O1 2.924114 1_565
Na2 O7 2.924114 1_565
Na3 O9 2.360914 1_545
Na3 O8 2.360914 1_455
Na3 O6 2.477937 1_555
Na3 O11 2.477937 1_555
Na3 O4 2.625850 1_445
Na3 O14 2.625850 1_445
Na3 O10 2.872123 1_555
Na3 O7 2.872123 1_555
Na4 O14 2.375549 1_545
Na4 O15 2.497801 1_555
Na4 O11 2.497801 1_555
Na4 O0 2.499450 1_555
Na4 O8 2.499450 1_555
Na4 O13 2.534298 1_545
Na4 O12 2.687251 1_555
Na4 O10 2.924114 1_655
Na4 O16 2.924114 1_655
Na5 O15 2.212493 1_555
Na5 O11 2.212493 1_555
Na5 O13 2.331571 1_555
Na5 O10 2.379492 1_555
Na5 O16 2.379492 1_555
Na5 O14 2.752572 1_445
Na5 O12 2.892063 1_555
As0 O5 1.839885 1_545
As0 O1 1.861077 1_555
As0 O7 1.861077 1_555
As1 O12 1.839885 1_455
As1 O10 1.861077 1_555
As1 O16 1.861077 1_555
C0 O15 1.252676 1_554
C0 O0 1.260029 1_554
C0 O1 1.373667 1_555
C1 O3 1.245551 1_555
C1 O4 1.274778 1_555
C1 O5 1.376423 1_555
C2 O11 1.252676 1_555
C2 O8 1.260029 1_555
C2 O7 1.373667 1_555
C3 O6 1.252676 1_555
C3 O9 1.260029 1_555
C3 O10 1.373667 1_555
C4 O13 1.245551 1_555
C4 O14 1.274778 1_555
C4 O12 1.376423 1_555
C5 O2 1.252676 1_556
C5 O17 1.260029 1_556
C5 O16 1.373667 1_555
