# generated using pymatgen
data_Hf10Sn6Se
_symmetry_space_group_name_H-M   'P 1'
_cell_length_a   8.46664134
_cell_length_b   8.46664206
_cell_length_c   5.78561010
_cell_angle_alpha   90.00000000
_cell_angle_beta   90.00000000
_cell_angle_gamma   119.99999336
_symmetry_Int_Tables_number   1
_chemical_formula_structural   Hf10Sn6Se
_chemical_formula_sum   'Hf10 Sn6 Se1'
_cell_volume   359.17176226
_cell_formula_units_Z   1
loop_
 _symmetry_equiv_pos_site_id
 _symmetry_equiv_pos_as_xyz
  1  'x, y, z'
loop_
 _atom_site_type_symbol
 _atom_site_label
 _atom_site_symmetry_multiplicity
 _atom_site_fract_x
 _atom_site_fract_y
 _atom_site_fract_z
 _atom_site_occupancy
  Hf  Hf0  1  0.66666700  0.33333300  0.50000000  1
  Hf  Hf1  1  0.33333300  0.66666700  0.50000000  1
  Hf  Hf2  1  0.33333300  0.66666700  0.00000000  1
  Hf  Hf3  1  0.66666700  0.33333300  0.00000000  1
  Hf  Hf4  1  0.74251543  0.74251543  0.23091812  1
  Hf  Hf5  1  0.25748457  1.00000000  0.23091812  1
  Hf  Hf6  1  1.00000000  0.25748457  0.23091812  1
  Hf  Hf7  1  0.25748457  0.25748457  0.76908188  1
  Hf  Hf8  1  0.74251543  0.00000000  0.76908188  1
  Hf  Hf9  1  0.00000000  0.74251543  0.76908188  1
  Sn  Sn0  1  0.39231508  0.39231508  0.25401070  1
  Sn  Sn1  1  0.60768492  0.00000000  0.25401070  1
  Sn  Sn2  1  0.00000000  0.60768492  0.25401070  1
  Sn  Sn3  1  0.60768492  0.60768492  0.74598930  1
  Sn  Sn4  1  0.39231508  1.00000000  0.74598930  1
  Sn  Sn5  1  1.00000000  0.39231508  0.74598930  1
  Se  Se0  1  0.00000000  0.00000000  0.50000000  1
loop_
_geom_bond_atom_site_label_1
_geom_bond_atom_site_label_2
_geom_bond_distance
_geom_bond_site_symmetry_2
Hf0 Sn5 2.971598 1_555
Hf0 Sn1 2.971598 1_555
Hf0 Sn2 2.971600 1_655
Hf0 Sn4 2.971601 1_545
Hf0 Sn0 2.971605 1_555
Hf0 Sn3 2.971605 1_555
Hf1 Sn2 2.971598 1_555
Hf1 Sn4 2.971598 1_555
Hf1 Sn5 2.971600 1_455
Hf1 Sn1 2.971601 1_565
Hf1 Sn3 2.971605 1_555
Hf1 Sn0 2.971605 1_555
Hf2 Sn2 2.994101 1_555
Hf2 Sn4 2.994102 1_554
Hf2 Sn5 2.994104 1_454
Hf2 Sn1 2.994104 1_565
Hf2 Sn3 2.994109 1_554
Hf2 Sn0 2.994109 1_555
Hf3 Sn5 2.994101 1_554
Hf3 Sn1 2.994102 1_555
Hf3 Sn2 2.994104 1_655
Hf3 Sn4 2.994104 1_544
Hf3 Sn0 2.994109 1_555
Hf3 Sn3 2.994109 1_554
Hf4 Se0 2.678836 1_665
Hf4 Sn2 2.926120 1_655
Hf4 Sn1 2.926120 1_565
Hf4 Sn0 2.968030 1_555
Hf4 Sn3 3.028961 1_554
Hf4 Sn3 3.191171 1_555
Hf5 Se0 2.678836 1_565
Hf5 Sn0 2.926121 1_565
Hf5 Sn2 2.926121 1_555
Hf5 Sn1 2.968029 1_565
Hf5 Sn4 3.028961 1_554
Hf5 Sn4 3.191170 1_555
Hf6 Se0 2.678836 1_655
Hf6 Sn0 2.926120 1_655
Hf6 Sn1 2.926121 1_555
Hf6 Sn2 2.968030 1_655
Hf6 Sn5 3.028961 1_554
Hf6 Sn5 3.191170 1_555
Hf7 Se0 2.678836 1_555
Hf7 Sn5 2.926120 1_455
Hf7 Sn4 2.926120 1_545
Hf7 Sn3 2.968030 1_555
Hf7 Sn0 3.028961 1_556
Hf7 Sn0 3.191171 1_555
Hf8 Se0 2.678836 1_655
Hf8 Sn3 2.926121 1_545
Hf8 Sn5 2.926121 1_555
Hf8 Sn4 2.968029 1_545
Hf8 Sn1 3.028961 1_556
Hf8 Sn1 3.191170 1_555
Hf9 Se0 2.678836 1_565
Hf9 Sn3 2.926120 1_455
Hf9 Sn4 2.926121 1_555
Hf9 Sn5 2.968030 1_455
Hf9 Sn2 3.028961 1_556
Hf9 Sn2 3.191170 1_555
