# generated using pymatgen
data_Ba2SrTcN4
_symmetry_space_group_name_H-M   'P 1'
_cell_length_a   11.08014666
_cell_length_b   10.69773829
_cell_length_c   8.12321475
_cell_angle_alpha   70.62482862
_cell_angle_beta   65.61727540
_cell_angle_gamma   43.75789611
_symmetry_Int_Tables_number   1
_chemical_formula_structural   Ba2SrTcN4
_chemical_formula_sum   'Ba8 Sr4 Tc4 N16'
_cell_volume   605.67178296
_cell_formula_units_Z   4
loop_
 _symmetry_equiv_pos_site_id
 _symmetry_equiv_pos_as_xyz
  1  'x, y, z'
loop_
 _atom_site_type_symbol
 _atom_site_label
 _atom_site_symmetry_multiplicity
 _atom_site_fract_x
 _atom_site_fract_y
 _atom_site_fract_z
 _atom_site_occupancy
  Ba  Ba0  1  0.56773923  0.93226077  0.93226077  1
  Ba  Ba1  1  0.93226077  0.56773923  0.56773923  1
  Ba  Ba2  1  0.31773923  0.68226077  0.68226077  1
  Ba  Ba3  1  0.11367368  0.11367368  0.88632632  1
  Ba  Ba4  1  0.13632632  0.13632632  0.36367368  1
  Ba  Ba5  1  0.36367368  0.36367368  0.13632632  1
  Ba  Ba6  1  0.68226077  0.31773923  0.31773923  1
  Ba  Ba7  1  0.88632632  0.88632632  0.11367368  1
  Sr  Sr0  1  0.34192666  0.34192666  0.65807334  1
  Sr  Sr1  1  0.90807334  0.90807334  0.59192666  1
  Sr  Sr2  1  0.65807334  0.65807334  0.34192666  1
  Sr  Sr3  1  0.59192666  0.59192666  0.90807334  1
  Tc  Tc0  1  0.48762123  0.01237877  0.48762123  1
  Tc  Tc1  1  0.01237877  0.48762123  0.01237877  1
  Tc  Tc2  1  0.76237877  0.23762123  0.76237877  1
  Tc  Tc3  1  0.23762123  0.76237877  0.23762123  1
  N  N0  1  0.01557765  0.64619436  0.83772646  1
  N  N1  1  0.70846304  0.27306637  0.99910059  1
  N  N2  1  0.64619436  0.01557765  0.50050154  1
  N  N3  1  0.50050154  0.83772646  0.64619436  1
  N  N4  1  0.23442235  0.60380564  0.41227354  1
  N  N5  1  0.74949846  0.41227354  0.60380564  1
  N  N6  1  0.99910059  0.01937201  0.70846304  1
  N  N7  1  0.54153696  0.97693363  0.25089941  1
  N  N8  1  0.41227354  0.74949846  0.23442235  1
  N  N9  1  0.97693363  0.54153696  0.23062799  1
  N  N10  1  0.27306637  0.70846304  0.01937201  1
  N  N11  1  0.83772646  0.50050154  0.01557765  1
  N  N12  1  0.23062799  0.25089941  0.97693363  1
  N  N13  1  0.60380564  0.23442235  0.74949846  1
  N  N14  1  0.25089941  0.23062799  0.54153696  1
  N  N15  1  0.01937201  0.99910059  0.27306637  1
loop_
_geom_bond_atom_site_label_1
_geom_bond_atom_site_label_2
_geom_bond_distance
_geom_bond_site_symmetry_2
Ba0 N7 2.648055 1_556
Ba0 N12 2.648065 1_565
Ba0 N2 3.221619 1_565
Ba0 N11 3.221620 1_556
Ba0 N8 3.317303 1_556
Ba0 N13 3.317303 1_565
Ba0 N3 3.324865 1_555
Ba0 N0 3.324866 1_655
Ba1 N14 2.648064 1_655
Ba1 N9 2.648071 1_555
Ba1 N0 3.221620 1_655
Ba1 N3 3.221620 1_555
Ba1 N5 3.317304 1_555
Ba1 N4 3.317304 1_655
Ba1 N11 3.324865 1_556
Ba1 N2 3.324865 1_565
Ba2 N6 2.648064 1_465
Ba2 N10 2.648071 1_556
Ba2 N4 3.221620 1_555
Ba2 N5 3.221620 1_555
Ba2 N3 3.317304 1_555
Ba2 N0 3.317304 1_555
Ba2 N8 3.324865 1_555
Ba2 N13 3.324865 1_555
Ba3 N12 2.937426 1_555
Ba3 N14 2.937435 1_555
Ba3 N6 3.008040 1_455
Ba3 N15 3.008052 1_546
Ba3 N11 3.087151 1_456
Ba3 N3 3.087151 1_545
Ba3 N1 3.238277 1_455
Ba3 N10 3.238278 1_546
Ba4 N15 2.937426 1_545
Ba4 N6 2.937435 1_455
Ba4 N14 3.008040 1_555
Ba4 N12 3.008052 1_554
Ba4 N8 3.087151 1_545
Ba4 N5 3.087151 1_455
Ba4 N7 3.238277 1_545
Ba4 N9 3.238278 1_455
Ba5 N10 2.937445 1_555
Ba5 N1 2.937446 1_554
Ba5 N7 3.008057 1_545
Ba5 N9 3.008059 1_455
Ba5 N13 3.087151 1_554
Ba5 N4 3.087151 1_555
Ba5 N14 3.238285 1_555
Ba5 N12 3.238296 1_554
Ba6 N1 2.648055 1_554
Ba6 N15 2.648065 1_645
Ba6 N13 3.221619 1_555
Ba6 N8 3.221620 1_555
Ba6 N11 3.317303 1_555
Ba6 N2 3.317303 1_555
Ba6 N5 3.324865 1_555
Ba6 N4 3.324866 1_555
Ba7 N9 2.937445 1_555
Ba7 N7 2.937446 1_555
Ba7 N1 3.008057 1_564
Ba7 N10 3.008059 1_655
Ba7 N2 3.087151 1_565
Ba7 N0 3.087151 1_654
Ba7 N6 3.238285 1_564
Ba7 N15 3.238296 1_655
N0 Tc1 1.827630 1_556
N0 Sr1 2.585700 1_455
N0 Sr0 2.755464 1_555
N1 Tc2 1.845660 1_555
N1 Sr3 2.569405 1_555
N2 Tc0 1.827630 1_555
N2 Sr1 2.585700 1_545
N2 Sr0 2.755464 1_555
N3 Tc0 1.827630 1_565
N3 Sr3 2.585700 1_555
N3 Sr2 2.755464 1_555
N4 Tc3 1.827630 1_555
N4 Sr0 2.585700 1_555
N4 Sr1 2.755464 1_455
N5 Tc2 1.827630 1_555
N5 Sr2 2.585700 1_555
N5 Sr3 2.755464 1_555
N6 Tc2 1.845653 1_555
N6 Sr1 2.569424 1_545
N7 Tc0 1.845660 1_565
N7 Sr2 2.569405 1_555
N8 Tc3 1.827630 1_555
N8 Sr2 2.585700 1_555
N8 Sr3 2.755464 1_554
N9 Tc1 1.845644 1_655
N9 Sr2 2.569404 1_555
N10 Tc3 1.845644 1_555
N10 Sr3 2.569404 1_554
N11 Tc1 1.827630 1_655
N11 Sr3 2.585700 1_554
N11 Sr2 2.755464 1_555
N12 Tc1 1.845654 1_556
N12 Sr0 2.569412 1_555
N13 Tc2 1.827630 1_555
N13 Sr0 2.585700 1_555
N13 Sr1 2.755464 1_545
N14 Tc0 1.845653 1_555
N14 Sr0 2.569424 1_555
N15 Tc3 1.845654 1_555
N15 Sr1 2.569412 1_455
