# generated using pymatgen
data_Li14TaNbP8
_symmetry_space_group_name_H-M   'P 1'
_cell_length_a   7.19035313
_cell_length_b   7.19035411
_cell_length_c   11.74009629
_cell_angle_alpha   65.86848491
_cell_angle_beta   65.86849746
_cell_angle_gamma   48.79620330
_symmetry_Int_Tables_number   1
_chemical_formula_structural   Li14TaNbP8
_chemical_formula_sum   'Li14 Ta1 Nb1 P8'
_cell_volume   408.06872280
_cell_formula_units_Z   1
loop_
 _symmetry_equiv_pos_site_id
 _symmetry_equiv_pos_as_xyz
  1  'x, y, z'
loop_
 _atom_site_type_symbol
 _atom_site_label
 _atom_site_symmetry_multiplicity
 _atom_site_fract_x
 _atom_site_fract_y
 _atom_site_fract_z
 _atom_site_occupancy
  Li  Li0  1  0.52035026  0.98097867  0.87482032  1
  Li  Li1  1  0.75845291  0.24154709  0.75000000  1
  Li  Li2  1  0.00853228  0.46997034  0.87999687  1
  Li  Li3  1  0.01902133  0.47964974  0.62517968  1
  Li  Li4  1  0.25009086  0.74964548  0.49057971  1
  Li  Li5  1  0.53002966  0.99146772  0.62000313  1
  Li  Li6  1  0.47046180  0.00835348  0.38021278  1
  Li  Li7  1  0.75003858  0.25035365  0.50949701  1
  Li  Li8  1  0.98037393  0.52032976  0.37544636  1
  Li  Li9  1  0.25035452  0.74990914  0.00942029  1
  Li  Li10  1  0.99164652  0.52953820  0.11978722  1
  Li  Li11  1  0.47967024  0.01962607  0.12455364  1
  Li  Li12  1  0.24147226  0.75852774  0.25000000  1
  Li  Li13  1  0.74964635  0.24996142  0.99050299  1
  Ta  Ta0  1  0.25862917  0.74137083  0.75000000  1
  Nb  Nb0  1  0.74130431  0.25869569  0.25000000  1
  P  P0  1  0.36805359  0.39376638  0.92651554  1
  P  P1  1  0.91172401  0.84990644  0.69235507  1
  P  P2  1  0.15009356  0.08827599  0.80764493  1
  P  P3  1  0.39226162  0.36847903  0.42741891  1
  P  P4  1  0.60623362  0.63194641  0.57348446  1
  P  P5  1  0.85023715  0.91020150  0.19215775  1
  P  P6  1  0.08979850  0.14976285  0.30784225  1
  P  P7  1  0.63152097  0.60773838  0.07258109  1
loop_
_geom_bond_atom_site_label_1
_geom_bond_atom_site_label_2
_geom_bond_distance
_geom_bond_site_symmetry_2
Li0 P1 2.573672 1_555
Li0 P2 2.611151 1_565
Li0 P7 2.613080 1_556
Li0 P0 2.650359 1_565
Li1 P4 2.534270 1_555
Li1 P0 2.534271 1_555
Li1 P2 2.542103 1_655
Li1 P1 2.542104 1_545
Li2 P0 2.514897 1_555
Li2 P1 2.574540 1_455
Li2 P7 2.593022 1_456
Li2 P2 2.609349 1_555
Li3 P2 2.573672 1_555
Li3 P1 2.611151 1_455
Li3 P3 2.613081 1_555
Li3 P4 2.650358 1_455
Li4 P1 2.534489 1_455
Li4 P3 2.541086 1_555
Li4 P4 2.594310 1_555
Li4 P6 2.610442 1_565
Li5 P4 2.514898 1_555
Li5 P2 2.574541 1_565
Li5 P3 2.593022 1_565
Li5 P1 2.609349 1_555
Li6 P3 2.515713 1_555
Li6 P5 2.575780 1_545
Li6 P4 2.595281 1_545
Li6 P6 2.603076 1_555
Li7 P6 2.537564 1_655
Li7 P4 2.544460 1_555
Li7 P3 2.597481 1_555
Li7 P1 2.612882 1_545
Li8 P5 2.573445 1_555
Li8 P6 2.608665 1_655
Li8 P4 2.617982 1_555
Li8 P3 2.647297 1_655
Li9 P2 2.534488 1_564
Li9 P7 2.541086 1_555
Li9 P0 2.594310 1_554
Li9 P5 2.610442 1_455
Li10 P7 2.515713 1_555
Li10 P6 2.575779 1_655
Li10 P0 2.595281 1_654
Li10 P5 2.603077 1_555
Li11 P6 2.573445 1_555
Li11 P5 2.608664 1_545
Li11 P0 2.617982 1_554
Li11 P7 2.647297 1_545
Li12 P3 2.538425 1_555
Li12 P7 2.538426 1_555
Li12 P5 2.545317 1_455
Li12 P6 2.545318 1_565
Li13 P5 2.537563 1_546
Li13 P0 2.544460 1_555
Li13 P7 2.597482 1_556
Li13 P2 2.612882 1_655
Nb0 P7 2.391726 1_555
Nb0 P3 2.391726 1_555
Nb0 P6 2.392547 1_655
Nb0 P5 2.392548 1_545
P0 Ta0 2.380701 1_555
P1 Ta0 2.381747 1_655
P2 Ta0 2.381747 1_545
P4 Ta0 2.380701 1_555
