# generated using pymatgen
data_MnSi12(P4Ir)3
_symmetry_space_group_name_H-M   'P 1'
_cell_length_a   5.87279234
_cell_length_b   6.06750902
_cell_length_c   13.03470889
_cell_angle_alpha   89.94991489
_cell_angle_beta   90.16204899
_cell_angle_gamma   90.22790053
_symmetry_Int_Tables_number   1
_chemical_formula_structural   MnSi12(P4Ir)3
_chemical_formula_sum   'Mn1 Si12 P12 Ir3'
_cell_volume   464.46295123
_cell_formula_units_Z   1
loop_
 _symmetry_equiv_pos_site_id
 _symmetry_equiv_pos_as_xyz
  1  'x, y, z'
loop_
 _atom_site_type_symbol
 _atom_site_label
 _atom_site_symmetry_multiplicity
 _atom_site_fract_x
 _atom_site_fract_y
 _atom_site_fract_z
 _atom_site_occupancy
  Mn  Mn0  1  0.03043005  0.51974137  0.38706212  1
  Si  Si0  1  0.97435288  0.16659728  0.31610471  1
  Si  Si1  1  0.46669897  0.84092608  0.68129591  1
  Si  Si2  1  0.93121798  0.62713304  0.21726078  1
  Si  Si3  1  0.43097015  0.36937456  0.78578028  1
  Si  Si4  1  0.34123757  0.91443407  0.95063809  1
  Si  Si5  1  0.84173377  0.08328207  0.04850135  1
  Si  Si6  1  0.91749504  0.52819452  0.67296814  1
  Si  Si7  1  0.41059156  0.46865501  0.32709535  1
  Si  Si8  1  0.99736948  0.06067283  0.56836340  1
  Si  Si9  1  0.49517930  0.94037425  0.42846947  1
  Si  Si10  1  0.90720670  0.62325430  0.92782354  1
  Si  Si11  1  0.40642457  0.37528159  0.07245054  1
  P  P0  1  0.57850785  0.02788056  0.82521136  1
  P  P1  1  0.08038798  0.96973727  0.17435711  1
  P  P2  1  0.51709088  0.55888545  0.92985891  1
  P  P3  1  0.01664043  0.44031430  0.07126055  1
  P  P4  1  0.61113788  0.11305572  0.57235436  1
  P  P5  1  0.10887075  0.88443997  0.42432259  1
  P  P6  1  0.54461142  0.64349527  0.18161554  1
  P  P7  1  0.04543877  0.35570117  0.81938517  1
  P  P8  1  0.58358994  0.13409068  0.28799768  1
  P  P9  1  0.08021785  0.86836711  0.71012710  1
  P  P10  1  0.15472265  0.40350529  0.55221360  1
  P  P11  1  0.65143529  0.60015237  0.44767256  1
  Ir  Ir0  1  0.96596287  0.98564670  0.87891762  1
  Ir  Ir1  1  0.46706333  0.01259961  0.12045707  1
  Ir  Ir2  1  0.53721410  0.48420857  0.62043209  1
loop_
_geom_bond_atom_site_label_1
_geom_bond_atom_site_label_2
_geom_bond_distance
_geom_bond_site_symmetry_2
Mn0 P5 2.310225 1_555
Mn0 Si0 2.356104 1_455
Mn0 Si2 2.378238 1_455
Mn0 P10 2.378422 1_555
Mn0 Si7 2.389017 1_555
Mn0 P11 2.415670 1_455
P0 Si4 2.256473 1_545
P0 Si1 2.286421 1_545
P0 Si3 2.306096 1_555
P1 Si5 2.263391 1_465
P1 Si0 2.290097 1_465
P1 Si2 2.321136 1_455
P2 Si3 2.258036 1_555
P2 Si11 2.261732 1_556
P2 Si10 2.322810 1_555
P2 Si4 2.411261 1_555
P3 Si10 2.266273 1_454
P3 Si2 2.274186 1_455
P3 Si11 2.324433 1_555
P3 Si5 2.411984 1_455
P4 Si9 2.251568 1_545
P4 Si8 2.292411 1_555
P4 Si1 2.335352 1_545
P5 Si8 2.261269 1_465
P5 Si9 2.293111 1_555
P5 Si0 2.354783 1_465
P6 Si11 2.306241 1_555
P6 Si7 2.310641 1_555
P6 Si2 2.318721 1_555
P7 Si6 2.301522 1_455
P7 Si10 2.305051 1_455
P7 Si3 2.308498 1_555
P8 Si9 2.236168 1_545
P8 Si0 2.330520 1_555
P8 Si7 2.331067 1_555
P9 Si8 2.237945 1_465
P9 Si1 2.308362 1_555
P9 Si6 2.321934 1_455
P10 Si6 2.239128 1_455
P10 Si8 2.282608 1_455
P11 Si7 2.255666 1_555
P11 Si9 2.275731 1_555
Ir0 Si10 2.313656 1_555
Ir0 P0 2.393467 1_565
Ir0 Si5 2.405050 1_566
Ir0 P9 2.410826 1_655
Ir0 P7 2.419109 1_665
Ir0 Si4 2.431684 1_655
Ir1 Si11 2.315920 1_555
Ir1 P1 2.392085 1_545
Ir1 P8 2.402337 1_555
Ir1 Si4 2.406267 1_544
Ir1 P6 2.421034 1_545
Ir1 Si5 2.430777 1_555
Ir2 Si1 2.344664 1_555
Ir2 Si6 2.348355 1_555
Ir2 Si3 2.349782 1_555
Ir2 P4 2.379994 1_555
Ir2 P11 2.453122 1_555
Ir2 P10 2.461099 1_555
