# generated using pymatgen
data_LiY19(Cd3Os)2
_symmetry_space_group_name_H-M   'P 1'
_cell_length_a   9.55414326
_cell_length_b   9.55408339
_cell_length_c   9.84475120
_cell_angle_alpha   90.00019348
_cell_angle_beta   89.99987154
_cell_angle_gamma   120.00241319
_symmetry_Int_Tables_number   1
_chemical_formula_structural   LiY19(Cd3Os)2
_chemical_formula_sum   'Li1 Y19 Cd6 Os2'
_cell_volume   778.22574175
_cell_formula_units_Z   1
loop_
 _symmetry_equiv_pos_site_id
 _symmetry_equiv_pos_as_xyz
  1  'x, y, z'
loop_
 _atom_site_type_symbol
 _atom_site_label
 _atom_site_symmetry_multiplicity
 _atom_site_fract_x
 _atom_site_fract_y
 _atom_site_fract_z
 _atom_site_occupancy
  Li  Li0  1  0.00000000  0.00000000  0.50000000  1
  Y  Y0  1  0.00000000  0.00000000  0.00000000  1
  Y  Y1  1  0.20701793  0.79299425  0.43850420  1
  Y  Y2  1  0.20699877  0.41403558  0.43850158  1
  Y  Y3  1  0.58597568  0.79301588  0.43849492  1
  Y  Y4  1  0.79298207  0.20700575  0.56149580  1
  Y  Y5  1  0.79300123  0.58596442  0.56149842  1
  Y  Y6  1  0.41402432  0.20698412  0.56150508  1
  Y  Y7  1  0.78962249  0.21036611  0.94048637  1
  Y  Y8  1  0.78963564  0.57923700  0.94048294  1
  Y  Y9  1  0.42075479  0.21035602  0.94048157  1
  Y  Y10  1  0.21037751  0.78963389  0.05951363  1
  Y  Y11  1  0.21036436  0.42076300  0.05951706  1
  Y  Y12  1  0.57924521  0.78964398  0.05951843  1
  Y  Y13  1  0.54047829  0.45952865  0.25160696  1
  Y  Y14  1  0.54047347  0.08092981  0.25160545  1
  Y  Y15  1  0.91906774  0.45953113  0.25160330  1
  Y  Y16  1  0.45952171  0.54047135  0.74839304  1
  Y  Y17  1  0.45952653  0.91907019  0.74839455  1
  Y  Y18  1  0.08093226  0.54046887  0.74839670  1
  Cd  Cd0  1  0.88989293  0.11008365  0.25872842  1
  Cd  Cd1  1  0.88991724  0.77982131  0.25872570  1
  Cd  Cd2  1  0.22018344  0.11007259  0.25872602  1
  Cd  Cd3  1  0.11010707  0.88991635  0.74127158  1
  Cd  Cd4  1  0.11008276  0.22017869  0.74127430  1
  Cd  Cd5  1  0.77981656  0.88992741  0.74127398  1
  Os  Os0  1  0.33331795  0.66668917  0.25069353  1
  Os  Os1  1  0.66668205  0.33331083  0.74930647  1
loop_
_geom_bond_atom_site_label_1
_geom_bond_atom_site_label_2
_geom_bond_distance
_geom_bond_site_symmetry_2
Li0 Y6 3.478710 1_555
Li0 Y3 3.478710 1_445
Li0 Y2 3.478771 1_555
Li0 Y5 3.478771 1_445
Li0 Y1 3.478800 1_545
Li0 Y4 3.478800 1_455
Y0 Y12 3.530262 1_445
Y0 Y9 3.530262 1_554
Y0 Y10 3.530279 1_545
Y0 Y7 3.530279 1_454
Y0 Y11 3.530304 1_555
Y0 Y8 3.530304 1_444
Y1 Y14 3.512585 1_565
Y1 Y15 3.512672 1_455
Y1 Y17 3.697603 1_555
Y1 Y18 3.697695 1_555
Y10 Y14 3.534150 1_565
Y10 Y15 3.534216 1_455
Y10 Y17 3.692286 1_554
Y10 Y18 3.692332 1_554
Y11 Y15 3.534077 1_455
Y11 Y13 3.534486 1_555
Y11 Y18 3.692292 1_554
Y11 Y16 3.692368 1_554
Y12 Y14 3.533997 1_565
Y12 Y13 3.534470 1_555
Y12 Y17 3.692351 1_554
Y12 Y16 3.692438 1_554
Y13 Y3 3.512916 1_555
Y13 Y2 3.512922 1_555
Y13 Y15 3.617086 1_555
Y13 Y14 3.617142 1_555
Y13 Y8 3.692368 1_554
Y13 Y9 3.692438 1_554
Y13 Y5 3.697679 1_555
Y13 Y6 3.697830 1_555
Y14 Y3 3.512374 1_545
Y14 Y15 3.617034 1_555
Y14 Y7 3.692286 1_554
Y14 Y9 3.692351 1_554
Y14 Y4 3.697603 1_555
Y14 Y6 3.697687 1_555
Y15 Y2 3.512537 1_655
Y15 Y8 3.692292 1_554
Y15 Y7 3.692332 1_554
Y15 Y5 3.697633 1_555
Y15 Y4 3.697695 1_555
Y16 Y6 3.512916 1_555
Y16 Y5 3.512922 1_555
Y16 Y9 3.534470 1_555
Y16 Y8 3.534486 1_555
Y16 Y18 3.617086 1_555
Y16 Y17 3.617142 1_555
Y16 Y2 3.697679 1_555
Y16 Y3 3.697830 1_555
Y17 Y6 3.512374 1_565
Y17 Y4 3.512585 1_565
Y17 Y9 3.533997 1_565
Y17 Y7 3.534150 1_565
Y17 Y18 3.617034 1_555
Y17 Y3 3.697687 1_555
Y18 Y5 3.512537 1_455
Y18 Y4 3.512672 1_455
Y18 Y8 3.534077 1_455
Y18 Y7 3.534216 1_455
Y18 Y2 3.697633 1_555
Cd0 Li0 2.993529 1_655
Cd0 Y0 3.131630 1_655
Cd0 Cd1 3.155470 1_545
Cd0 Cd2 3.155696 1_655
Cd0 Y14 3.208972 1_555
Cd0 Y15 3.209131 1_555
Cd0 Y4 3.384757 1_555
Cd0 Y3 3.455901 1_545
Cd0 Y2 3.456232 1_655
Cd0 Y7 3.545345 1_554
Cd0 Y12 3.597324 1_545
Cd0 Y11 3.597590 1_655
Cd1 Li0 2.993437 1_665
Cd1 Y0 3.131517 1_665
Cd1 Cd2 3.155214 1_665
Cd1 Y13 3.209073 1_555
Cd1 Y15 3.209188 1_555
Cd1 Y5 3.384875 1_555
Cd1 Y1 3.456245 1_655
Cd1 Y3 3.456406 1_555
Cd1 Y8 3.545433 1_554
Cd1 Y10 3.597518 1_655
Cd1 Y12 3.597742 1_555
Cd2 Li0 2.993468 1_555
Cd2 Y0 3.131546 1_555
Cd2 Y14 3.209162 1_555
Cd2 Y13 3.209171 1_555
Cd2 Y6 3.384869 1_555
Cd2 Y1 3.456073 1_545
Cd2 Y2 3.456553 1_555
Cd2 Y9 3.545406 1_554
Cd2 Y10 3.597354 1_545
Cd2 Y11 3.597869 1_555
Cd3 Li0 2.993529 1_565
Cd3 Y0 3.131630 1_566
Cd3 Cd4 3.155470 1_565
Cd3 Cd5 3.155696 1_455
Cd3 Y17 3.208972 1_555
Cd3 Y18 3.209131 1_555
Cd3 Y1 3.384757 1_555
Cd3 Y6 3.455901 1_565
Cd3 Y5 3.456232 1_455
Cd3 Y10 3.545345 1_556
Cd3 Y9 3.597324 1_565
Cd3 Y8 3.597590 1_455
Cd4 Li0 2.993437 1_555
Cd4 Y0 3.131517 1_556
Cd4 Cd5 3.155214 1_445
Cd4 Y16 3.209073 1_555
Cd4 Y18 3.209188 1_555
Cd4 Y2 3.384875 1_555
Cd4 Y4 3.456245 1_455
Cd4 Y6 3.456406 1_555
Cd4 Y11 3.545433 1_556
Cd4 Y7 3.597518 1_455
Cd4 Y9 3.597742 1_555
Cd5 Li0 2.993468 1_665
Cd5 Y0 3.131546 1_666
Cd5 Y17 3.209162 1_555
Cd5 Y16 3.209171 1_555
Cd5 Y3 3.384869 1_555
Cd5 Y4 3.456073 1_565
Cd5 Y5 3.456553 1_555
Cd5 Y12 3.545406 1_556
Cd5 Y7 3.597354 1_565
Cd5 Y8 3.597869 1_555
Os0 Y10 2.771571 1_555
Os0 Y11 2.771729 1_555
Os0 Y12 2.771739 1_555
Os0 Y1 2.790544 1_555
Os0 Y3 2.790762 1_555
Os0 Y2 2.790773 1_555
Os0 Y14 3.427388 1_565
Os0 Y15 3.427489 1_455
Os0 Y13 3.428188 1_555
Os1 Y7 2.771571 1_555
Os1 Y8 2.771729 1_555
Os1 Y9 2.771739 1_555
Os1 Y4 2.790544 1_555
Os1 Y6 2.790762 1_555
Os1 Y5 2.790773 1_555
Os1 Y17 3.427388 1_545
Os1 Y18 3.427489 1_655
Os1 Y16 3.428188 1_555
