# generated using pymatgen
data_Nb2RuSe6
_symmetry_space_group_name_H-M   'P 1'
_cell_length_a   5.89100659
_cell_length_b   5.89100665
_cell_length_c   7.02298146
_cell_angle_alpha   81.91187188
_cell_angle_beta   81.91187346
_cell_angle_gamma   120.04140097
_symmetry_Int_Tables_number   1
_chemical_formula_structural   Nb2RuSe6
_chemical_formula_sum   'Nb2 Ru1 Se6'
_cell_volume   202.44798328
_cell_formula_units_Z   1
loop_
 _symmetry_equiv_pos_site_id
 _symmetry_equiv_pos_as_xyz
  1  'x, y, z'
loop_
 _atom_site_type_symbol
 _atom_site_label
 _atom_site_symmetry_multiplicity
 _atom_site_fract_x
 _atom_site_fract_y
 _atom_site_fract_z
 _atom_site_occupancy
  Nb  Nb0  1  0.83320277  0.50029183  0.49982257  1
  Nb  Nb1  1  0.50029183  0.83320277  0.49982257  1
  Ru  Ru0  1  0.16650110  0.16650110  0.50020808  1
  Se  Se0  1  0.57222540  0.24893855  0.25499965  1
  Se  Se1  1  0.24893855  0.57222540  0.25499965  1
  Se  Se2  1  0.92601412  0.92601412  0.25533077  1
  Se  Se3  1  0.76109577  0.76109577  0.74525951  1
  Se  Se4  1  0.40761089  0.08402255  0.74492761  1
  Se  Se5  1  0.08402255  0.40761089  0.74492761  1
loop_
_geom_bond_atom_site_label_1
_geom_bond_atom_site_label_2
_geom_bond_distance
_geom_bond_site_symmetry_2
Nb0 Se2 2.586137 1_555
Nb0 Se0 2.587160 1_555
Nb0 Se5 2.589101 1_655
Nb0 Se4 2.589281 1_555
Nb0 Se3 2.589348 1_555
Nb0 Se1 2.589378 1_655
Nb1 Se2 2.586137 1_555
Nb1 Se1 2.587160 1_555
Nb1 Se4 2.589101 1_565
Nb1 Se5 2.589281 1_555
Nb1 Se3 2.589348 1_555
Nb1 Se0 2.589378 1_565
Ru0 Se2 2.516612 1_445
Ru0 Se3 2.518981 1_445
Ru0 Se4 2.519979 1_555
Ru0 Se5 2.519979 1_555
Ru0 Se1 2.521589 1_555
Ru0 Se0 2.521589 1_555
