# generated using pymatgen
data_SrSn4(AsO4)6
_symmetry_space_group_name_H-M   'P 1'
_cell_length_a   8.62559378
_cell_length_b   8.62559267
_cell_length_c   9.40096076
_cell_angle_alpha   62.69279512
_cell_angle_beta   62.69279682
_cell_angle_gamma   59.99999914
_symmetry_Int_Tables_number   1
_chemical_formula_structural   SrSn4(AsO4)6
_chemical_formula_sum   'Sr1 Sn4 As6 O24'
_cell_volume   513.76112337
_cell_formula_units_Z   1
loop_
 _symmetry_equiv_pos_site_id
 _symmetry_equiv_pos_as_xyz
  1  'x, y, z'
loop_
 _atom_site_type_symbol
 _atom_site_label
 _atom_site_symmetry_multiplicity
 _atom_site_fract_x
 _atom_site_fract_y
 _atom_site_fract_z
 _atom_site_occupancy
  Sr  Sr0  1  0.50000000  0.50000000  0.50000000  1
  Sn  Sn0  1  0.14924315  0.14924315  0.55226854  1
  Sn  Sn1  1  0.85075685  0.85075685  0.44773146  1
  Sn  Sn2  1  0.64535020  0.64535020  0.06395139  1
  Sn  Sn3  1  0.35464980  0.35464980  0.93604861  1
  As  As0  1  0.96463340  0.24778500  0.25307729  1
  As  As1  1  0.24778500  0.53450531  0.25307729  1
  As  As2  1  0.53450531  0.96463340  0.25307729  1
  As  As3  1  0.03536660  0.75221500  0.74692271  1
  As  As4  1  0.75221500  0.46549469  0.74692271  1
  As  As5  1  0.46549469  0.03536660  0.74692271  1
  O  O0  1  0.97304881  0.29841990  0.40372579  1
  O  O1  1  0.29841990  0.32480550  0.40372579  1
  O  O2  1  0.32480550  0.97304881  0.40372579  1
  O  O3  1  0.02695119  0.70158010  0.59627421  1
  O  O4  1  0.70158010  0.67519450  0.59627421  1
  O  O5  1  0.67519450  0.02695119  0.59627421  1
  O  O6  1  0.48184007  0.88253924  0.93606074  1
  O  O7  1  0.88253924  0.69955995  0.93606074  1
  O  O8  1  0.69955995  0.48184007  0.93606074  1
  O  O9  1  0.51815993  0.11746076  0.06393926  1
  O  O10  1  0.11746076  0.30044005  0.06393926  1
  O  O11  1  0.30044005  0.51815993  0.06393926  1
  O  O12  1  0.00141410  0.97755367  0.69834631  1
  O  O13  1  0.97755367  0.32268593  0.69834631  1
  O  O14  1  0.32268593  0.00141410  0.69834631  1
  O  O15  1  0.99858590  0.02244633  0.30165369  1
  O  O16  1  0.02244633  0.67731407  0.30165369  1
  O  O17  1  0.67731407  0.99858590  0.30165369  1
  O  O18  1  0.62301046  0.74368679  0.24036272  1
  O  O19  1  0.74368679  0.39294003  0.24036272  1
  O  O20  1  0.39294003  0.62301046  0.24036272  1
  O  O21  1  0.37698954  0.25631321  0.75963728  1
  O  O22  1  0.25631321  0.60705997  0.75963728  1
  O  O23  1  0.60705997  0.37698954  0.75963728  1
loop_
_geom_bond_atom_site_label_1
_geom_bond_atom_site_label_2
_geom_bond_distance
_geom_bond_site_symmetry_2
As0 O15 1.676687 1_555
As0 O10 1.677118 1_655
As0 O0 1.701565 1_555
As0 O19 1.702797 1_555
As1 O16 1.676685 1_555
As1 O11 1.677122 1_555
As1 O1 1.701570 1_555
As1 O20 1.702790 1_555
As2 O17 1.676679 1_555
As2 O9 1.677120 1_565
As2 O2 1.701571 1_555
As2 O18 1.702798 1_555
As3 O12 1.676687 1_555
As3 O7 1.677118 1_455
As3 O3 1.701565 1_555
As3 O22 1.702797 1_555
As4 O13 1.676685 1_555
As4 O8 1.677122 1_555
As4 O4 1.701570 1_555
As4 O23 1.702790 1_555
As5 O14 1.676679 1_555
As5 O6 1.677120 1_545
As5 O5 1.701571 1_555
As5 O21 1.702798 1_555
O0 Sn0 2.063617 1_655
O1 Sn0 2.063630 1_555
O2 Sn0 2.063618 1_565
O3 Sn1 2.063617 1_455
O4 Sn1 2.063630 1_555
O5 Sn1 2.063618 1_545
O6 Sn2 2.008435 1_556
O7 Sn2 2.008427 1_556
O8 Sn2 2.008442 1_556
O9 Sn3 2.008435 1_554
O10 Sn3 2.008427 1_554
O11 Sn3 2.008442 1_554
O12 Sn0 2.029936 1_565
O13 Sn0 2.029948 1_655
O14 Sn0 2.029949 1_555
O15 Sn1 2.029936 1_545
O16 Sn1 2.029948 1_455
O17 Sn1 2.029949 1_555
O18 Sn2 2.083514 1_555
O18 Sr0 2.578436 1_555
O19 Sn2 2.083522 1_555
O19 Sr0 2.578436 1_555
O20 Sn2 2.083526 1_555
O20 Sr0 2.578436 1_555
O21 Sn3 2.083514 1_555
O21 Sr0 2.578436 1_555
O22 Sn3 2.083522 1_555
O22 Sr0 2.578436 1_555
O23 Sn3 2.083526 1_555
O23 Sr0 2.578436 1_555
