# generated using pymatgen
data_Tc(PtRh3)2
_symmetry_space_group_name_H-M   'P 1'
_cell_length_a   6.07056216
_cell_length_b   6.07056245
_cell_length_c   6.07056135
_cell_angle_alpha   95.77573397
_cell_angle_beta   95.63077648
_cell_angle_gamma   143.24938185
_symmetry_Int_Tables_number   1
_chemical_formula_structural   Tc(PtRh3)2
_chemical_formula_sum   'Tc1 Pt2 Rh6'
_cell_volume   127.02849173
_cell_formula_units_Z   1
loop_
 _symmetry_equiv_pos_site_id
 _symmetry_equiv_pos_as_xyz
  1  'x, y, z'
loop_
 _atom_site_type_symbol
 _atom_site_label
 _atom_site_symmetry_multiplicity
 _atom_site_fract_x
 _atom_site_fract_y
 _atom_site_fract_z
 _atom_site_occupancy
  Tc  Tc0  1  0.00000000  0.00000000  0.00000000  1
  Pt  Pt0  1  0.66994685  1.00000000  0.66994685  1
  Pt  Pt1  1  0.33005315  0.00000000  0.33005315  1
  Rh  Rh0  1  0.33915162  0.33807589  0.67722251  1
  Rh  Rh1  1  0.66084838  0.66192411  0.32277749  1
  Rh  Rh2  1  0.66085338  0.33807589  0.99892526  1
  Rh  Rh3  1  0.33914662  0.66192411  0.00107474  1
  Rh  Rh4  1  0.00000200  0.32557294  0.32557094  1
  Rh  Rh5  1  0.99999800  0.67442706  0.67442906  1
loop_
_geom_bond_atom_site_label_1
_geom_bond_atom_site_label_2
_geom_bond_distance
_geom_bond_site_symmetry_2
Pt0 Tc0 2.690932 1_666
Pt0 Rh3 2.702449 1_666
Pt0 Rh0 2.702452 1_555
Pt0 Rh3 2.702459 1_556
Pt0 Rh0 2.702465 1_665
Pt0 Rh1 2.753471 1_555
Pt0 Rh2 2.753475 1_565
Pt0 Rh5 2.756590 1_565
Pt0 Rh4 2.756591 1_555
Pt0 Rh4 2.756600 1_665
Pt0 Rh5 2.756601 1_455
Pt0 Pt1 2.771162 1_565
Pt1 Tc0 2.690932 1_555
Pt1 Rh2 2.702449 1_444
Pt1 Rh1 2.702452 1_555
Pt1 Rh2 2.702459 1_554
Pt1 Rh1 2.702465 1_445
Pt1 Rh0 2.753471 1_555
Pt1 Rh3 2.753475 1_545
Pt1 Rh4 2.756590 1_545
Pt1 Rh5 2.756591 1_555
Pt1 Rh5 2.756600 1_445
Pt1 Rh4 2.756601 1_655
Rh0 Rh2 2.622847 1_555
Rh0 Rh3 2.636692 1_556
Rh0 Tc0 2.668337 1_666
Rh0 Tc0 2.668350 1_556
Rh0 Rh5 2.675268 1_555
Rh0 Rh5 2.675293 1_445
Rh0 Rh4 2.766965 1_555
Rh0 Rh1 2.798568 1_555
Rh0 Rh1 2.798595 1_445
Rh1 Rh3 2.622847 1_555
Rh1 Rh2 2.636692 1_554
Rh1 Tc0 2.668337 1_555
Rh1 Tc0 2.668350 1_665
Rh1 Rh4 2.675268 1_555
Rh1 Rh4 2.675293 1_665
Rh1 Rh5 2.766965 1_555
Rh2 Tc0 2.668338 1_666
Rh2 Tc0 2.668349 1_556
Rh2 Rh5 2.675273 1_555
Rh2 Rh5 2.675296 1_445
Rh2 Rh4 2.766961 1_656
Rh2 Rh3 2.798571 1_656
Rh2 Rh3 2.798592 1_546
Rh3 Tc0 2.668338 1_555
Rh3 Tc0 2.668349 1_665
Rh3 Rh4 2.675273 1_555
Rh3 Rh4 2.675296 1_665
Rh3 Rh5 2.766961 1_454
Rh4 Tc0 2.650681 1_555
Rh4 Rh5 2.840277 1_455
Rh5 Tc0 2.650681 1_666
