# generated using pymatgen
data_SrCa9(SiN3)4
_symmetry_space_group_name_H-M   'P 1'
_cell_length_a   5.79948151
_cell_length_b   5.76599570
_cell_length_c   12.79037749
_cell_angle_alpha   81.52763968
_cell_angle_beta   81.86076532
_cell_angle_gamma   63.57416891
_symmetry_Int_Tables_number   1
_chemical_formula_structural   SrCa9(SiN3)4
_chemical_formula_sum   'Sr1 Ca9 Si4 N12'
_cell_volume   377.43947120
_cell_formula_units_Z   1
loop_
 _symmetry_equiv_pos_site_id
 _symmetry_equiv_pos_as_xyz
  1  'x, y, z'
loop_
 _atom_site_type_symbol
 _atom_site_label
 _atom_site_symmetry_multiplicity
 _atom_site_fract_x
 _atom_site_fract_y
 _atom_site_fract_z
 _atom_site_occupancy
  Sr  Sr0  1  0.32651783  0.79130758  0.00422891  1
  Ca  Ca0  1  0.60871488  0.37383635  0.25797826  1
  Ca  Ca1  1  0.07418415  0.23490975  0.78309347  1
  Ca  Ca2  1  0.39002117  0.61988972  0.74510834  1
  Ca  Ca3  1  0.20105823  0.67537724  0.49763794  1
  Ca  Ca4  1  0.79873397  0.32516455  0.50310744  1
  Ca  Ca5  1  0.22937139  0.07362597  0.28597039  1
  Ca  Ca6  1  0.67622482  0.17444214  0.99980775  1
  Ca  Ca7  1  0.92432981  0.76577356  0.21813184  1
  Ca  Ca8  1  0.76783019  0.92765775  0.71327478  1
  Si  Si0  1  0.08517350  0.36322119  0.07815250  1
  Si  Si1  1  0.35315249  0.09471069  0.57459320  1
  Si  Si2  1  0.64559938  0.90476385  0.42518684  1
  Si  Si3  1  0.91655667  0.64357488  0.91983801  1
  N  N0  1  0.60391786  0.69646598  0.35211145  1
  N  N1  1  0.10242663  0.01861649  0.62377583  1
  N  N2  1  0.64677345  0.79092432  0.56219255  1
  N  N3  1  0.99075285  0.12493148  0.13153793  1
  N  N4  1  0.39526986  0.30406328  0.64686067  1
  N  N5  1  0.35218948  0.20833362  0.43715050  1
  N  N6  1  0.98969269  0.89491119  0.86535665  1
  N  N7  1  0.70695518  0.60095832  0.84822187  1
  N  N8  1  0.20838486  0.34499810  0.94139992  1
  N  N9  1  0.89700659  0.98044420  0.37584997  1
  N  N10  1  0.80839231  0.67621282  0.05697585  1
  N  N11  1  0.30077076  0.39088601  0.15245714  1
loop_
_geom_bond_atom_site_label_1
_geom_bond_atom_site_label_2
_geom_bond_distance
_geom_bond_site_symmetry_2
Ca0 N11 2.346887 1_555
Ca0 N0 2.348503 1_555
Ca0 N3 2.534396 1_555
Ca0 N9 2.558120 1_545
Ca0 N5 2.833657 1_555
Ca1 N6 2.300370 1_445
Ca1 N7 2.387303 1_455
Ca1 N4 2.490002 1_555
Ca1 N1 2.491400 1_555
Ca1 N8 2.524514 1_555
Ca2 N4 2.347425 1_555
Ca2 N7 2.365408 1_555
Ca2 N6 2.588637 1_455
Ca2 N1 2.597002 1_565
Ca2 N2 2.881678 1_555
Ca2 N8 3.080574 1_555
Ca3 N9 2.416520 1_455
Ca3 N1 2.553217 1_565
Ca3 N4 2.598751 1_555
Ca3 N5 2.634365 1_555
Ca3 N0 2.809414 1_555
Ca3 N2 2.993881 1_455
Ca4 N1 2.409002 1_655
Ca4 N9 2.570457 1_545
Ca4 N0 2.614665 1_555
Ca4 N2 2.619715 1_555
Ca4 N4 2.799961 1_555
Ca4 N5 2.990681 1_655
Ca5 N9 2.331956 1_445
Ca5 N0 2.436593 1_545
Ca5 N11 2.446947 1_555
Ca5 N3 2.478234 1_455
Ca5 N5 2.484881 1_555
Ca6 N6 2.486668 1_545
Ca6 N3 2.551994 1_556
Ca6 N8 2.620942 1_555
Ca6 N10 2.637210 1_546
Ca6 N11 2.684447 1_556
Ca6 N7 2.954021 1_555
Ca7 N3 2.361595 1_565
Ca7 N11 2.441249 1_655
Ca7 N10 2.445945 1_555
Ca7 N9 2.469271 1_555
Ca7 N0 2.471193 1_555
Ca8 N1 2.334717 1_665
Ca8 N6 2.420577 1_555
Ca8 N4 2.429606 1_565
Ca8 N7 2.472575 1_555
Ca8 N2 2.484832 1_555
N0 Si2 1.740031 1_555
N1 Si1 1.711755 1_555
N2 Si2 1.778234 1_555
N2 Si1 1.828540 1_565
N3 Si0 1.715011 1_655
N3 Sr0 2.614352 1_645
N4 Si1 1.739641 1_555
N5 Si1 1.783192 1_555
N5 Si2 1.826714 1_545
N6 Si3 1.712172 1_555
N6 Sr0 2.637958 1_656
N7 Si3 1.739123 1_555
N7 Sr0 2.701382 1_556
N8 Si0 1.792895 1_556
N8 Si3 1.817460 1_455
N8 Sr0 2.959862 1_546
N9 Si2 1.714388 1_555
N10 Si3 1.784999 1_554
N10 Si0 1.818674 1_655
N10 Sr0 2.730691 1_555
N11 Si0 1.746635 1_555
N11 Sr0 2.807894 1_555
