# generated using pymatgen
data_Te3Pd10
_symmetry_space_group_name_H-M   'P 1'
_cell_length_a   8.94438035
_cell_length_b   8.94438035
_cell_length_c   8.94438035
_cell_angle_alpha   60.00000000
_cell_angle_beta   60.00000000
_cell_angle_gamma   60.00000000
_symmetry_Int_Tables_number   1
_chemical_formula_structural   Te3Pd10
_chemical_formula_sum   'Te6 Pd20'
_cell_volume   505.98282897
_cell_formula_units_Z   2
loop_
 _symmetry_equiv_pos_site_id
 _symmetry_equiv_pos_as_xyz
  1  'x, y, z'
loop_
 _atom_site_type_symbol
 _atom_site_label
 _atom_site_symmetry_multiplicity
 _atom_site_fract_x
 _atom_site_fract_y
 _atom_site_fract_z
 _atom_site_occupancy
  Te  Te0  1  0.25000000  0.25000000  0.25000000  1
  Te  Te1  1  0.00000000  0.00000000  0.00000000  1
  Te  Te2  1  0.62500000  0.12500000  0.62500000  1
  Te  Te3  1  0.62500000  0.62500000  0.12500000  1
  Te  Te4  1  0.12500000  0.62500000  0.62500000  1
  Te  Te5  1  0.62500000  0.62500000  0.62500000  1
  Pd  Pd0  1  0.88411800  0.34764500  0.88411800  1
  Pd  Pd1  1  0.88411800  0.88411800  0.34764500  1
  Pd  Pd2  1  0.34764500  0.88411800  0.88411800  1
  Pd  Pd3  1  0.88411800  0.88411800  0.88411800  1
  Pd  Pd4  1  0.36588200  0.90235500  0.36588200  1
  Pd  Pd5  1  0.36588200  0.36588200  0.90235500  1
  Pd  Pd6  1  0.90235500  0.36588200  0.36588200  1
  Pd  Pd7  1  0.36588200  0.36588200  0.36588200  1
  Pd  Pd8  1  0.50809000  0.50809000  0.99191000  1
  Pd  Pd9  1  0.99191000  0.50809000  0.50809000  1
  Pd  Pd10  1  0.50809000  0.99191000  0.99191000  1
  Pd  Pd11  1  0.99191000  0.99191000  0.50809000  1
  Pd  Pd12  1  0.99191000  0.50809000  0.99191000  1
  Pd  Pd13  1  0.50809000  0.99191000  0.50809000  1
  Pd  Pd14  1  0.74191000  0.74191000  0.25809000  1
  Pd  Pd15  1  0.25809000  0.74191000  0.74191000  1
  Pd  Pd16  1  0.74191000  0.25809000  0.25809000  1
  Pd  Pd17  1  0.25809000  0.25809000  0.74191000  1
  Pd  Pd18  1  0.25809000  0.74191000  0.25809000  1
  Pd  Pd19  1  0.74191000  0.25809000  0.74191000  1
loop_
_geom_bond_atom_site_label_1
_geom_bond_atom_site_label_2
_geom_bond_distance
_geom_bond_site_symmetry_2
Pd0 Te1 2.538871 1_656
Pd0 Pd19 2.744633 1_555
Pd0 Pd17 2.744640 1_655
Pd0 Pd16 2.744640 1_556
Pd0 Pd9 2.759582 1_555
Pd0 Pd8 2.759582 1_555
Pd0 Pd12 2.759589 1_555
Pd1 Te1 2.538871 1_665
Pd1 Pd14 2.744633 1_555
Pd1 Pd18 2.744640 1_655
Pd1 Pd16 2.744640 1_565
Pd1 Pd9 2.759582 1_555
Pd1 Pd13 2.759582 1_555
Pd1 Pd11 2.759589 1_555
Pd2 Te1 2.538871 1_566
Pd2 Pd8 2.759582 1_555
Pd3 Te1 2.538878 1_666
Pd4 Te0 2.538871 1_565
Pd5 Te0 2.538871 1_556
Pd5 Pd8 2.744633 1_555
Pd6 Te0 2.538871 1_655
Pd6 Pd9 2.744633 1_555
Pd7 Te0 2.538878 1_555
Pd7 Pd8 2.744639 1_554
Pd7 Pd9 2.744639 1_455
Pd8 Te3 2.680867 1_556
Pd8 Te5 2.680867 1_555
Pd9 Te4 2.680867 1_655
Pd9 Te5 2.680867 1_555
Pd10 Te3 2.680867 1_556
Pd10 Te2 2.680867 1_565
Pd10 Pd5 2.744640 1_565
Pd10 Pd4 2.744640 1_556
Pd10 Pd3 2.759581 1_555
Pd10 Pd2 2.759589 1_555
Pd11 Te4 2.680867 1_655
Pd11 Te2 2.680867 1_565
Pd11 Pd6 2.744640 1_565
Pd11 Pd4 2.744640 1_655
Pd11 Pd3 2.759581 1_555
Pd12 Te4 2.680867 1_655
Pd12 Te3 2.680867 1_556
Pd12 Pd5 2.744640 1_655
Pd12 Pd6 2.744640 1_556
Pd12 Pd3 2.759581 1_555
Pd13 Te2 2.680867 1_565
Pd13 Te5 2.680867 1_555
Pd13 Pd4 2.744633 1_555
Pd13 Pd7 2.744639 1_565
Pd13 Pd2 2.759582 1_555
Pd14 Te5 2.680867 1_555
Pd14 Te3 2.680867 1_555
Pd14 Pd3 2.744639 1_554
Pd14 Pd6 2.759582 1_555
Pd14 Pd4 2.759582 1_555
Pd15 Te5 2.680867 1_555
Pd15 Te4 2.680867 1_555
Pd15 Pd2 2.744633 1_555
Pd15 Pd3 2.744639 1_455
Pd15 Pd5 2.759582 1_555
Pd15 Pd4 2.759582 1_555
Pd16 Te2 2.680867 1_555
Pd16 Te3 2.680867 1_555
Pd16 Pd7 2.759581 1_555
Pd16 Pd6 2.759589 1_555
Pd17 Te2 2.680867 1_555
Pd17 Te4 2.680867 1_555
Pd17 Pd2 2.744640 1_545
Pd17 Pd7 2.759581 1_555
Pd17 Pd5 2.759589 1_555
Pd18 Te3 2.680867 1_555
Pd18 Te4 2.680867 1_555
Pd18 Pd2 2.744640 1_554
Pd18 Pd7 2.759581 1_555
Pd18 Pd4 2.759589 1_555
Pd19 Te5 2.680867 1_555
Pd19 Te2 2.680867 1_555
Pd19 Pd3 2.744639 1_545
Pd19 Pd6 2.759582 1_555
Pd19 Pd5 2.759582 1_555
