# generated using pymatgen
data_Sc2TiB2RuRh4
_symmetry_space_group_name_H-M   'P 1'
_cell_length_a   9.38882620
_cell_length_b   9.38882620
_cell_length_c   3.03469781
_cell_angle_alpha   90.00000000
_cell_angle_beta   90.00000000
_cell_angle_gamma   90.00000000
_symmetry_Int_Tables_number   1
_chemical_formula_structural   Sc2TiB2RuRh4
_chemical_formula_sum   'Sc4 Ti2 B4 Ru2 Rh8'
_cell_volume   267.50878646
_cell_formula_units_Z   2
loop_
 _symmetry_equiv_pos_site_id
 _symmetry_equiv_pos_as_xyz
  1  'x, y, z'
loop_
 _atom_site_type_symbol
 _atom_site_label
 _atom_site_symmetry_multiplicity
 _atom_site_fract_x
 _atom_site_fract_y
 _atom_site_fract_z
 _atom_site_occupancy
  Sc  Sc0  1  0.67314355  0.17314355  0.00000000  1
  Sc  Sc1  1  0.32685645  0.82685645  0.00000000  1
  Sc  Sc2  1  0.17314355  0.32685645  0.00000000  1
  Sc  Sc3  1  0.82685645  0.67314355  0.00000000  1
  Ti  Ti0  1  0.50000000  0.50000000  0.00000000  1
  Ti  Ti1  1  0.00000000  0.00000000  0.00000000  1
  B  B0  1  0.12152943  0.62152943  0.00000000  1
  B  B1  1  0.87847057  0.37847057  0.00000000  1
  B  B2  1  0.62152943  0.87847057  0.00000000  1
  B  B3  1  0.37847057  0.12152943  0.00000000  1
  Ru  Ru0  1  0.50000000  0.00000000  0.50000000  1
  Ru  Ru1  1  0.00000000  0.50000000  0.50000000  1
  Rh  Rh0  1  0.57288332  0.71609675  0.50000000  1
  Rh  Rh1  1  0.42711668  0.28390325  0.50000000  1
  Rh  Rh2  1  0.07288332  0.78390325  0.50000000  1
  Rh  Rh3  1  0.92711668  0.21609675  0.50000000  1
  Rh  Rh4  1  0.28390325  0.57288332  0.50000000  1
  Rh  Rh5  1  0.71609675  0.42711668  0.50000000  1
  Rh  Rh6  1  0.21609675  0.07288332  0.50000000  1
  Rh  Rh7  1  0.78390325  0.92711668  0.50000000  1
loop_
_geom_bond_atom_site_label_1
_geom_bond_atom_site_label_2
_geom_bond_distance
_geom_bond_site_symmetry_2
B0 Rh2 2.198874 1_555
B0 Rh2 2.198874 1_554
B0 Rh4 2.198874 1_555
B0 Rh4 2.198874 1_554
B0 Ru1 2.214993 1_555
B0 Ru1 2.214993 1_554
B0 Sc1 2.726292 1_555
B0 Sc3 2.808753 1_455
B0 Sc2 2.808753 1_555
B1 Rh5 2.198874 1_555
B1 Rh5 2.198874 1_554
B1 Rh3 2.198874 1_554
B1 Rh3 2.198874 1_555
B1 Ru1 2.214993 1_654
B1 Ru1 2.214993 1_655
B1 Sc0 2.726292 1_555
B1 Sc3 2.808753 1_555
B1 Sc2 2.808753 1_655
B2 Rh7 2.198874 1_555
B2 Rh0 2.198874 1_554
B2 Rh7 2.198874 1_554
B2 Rh0 2.198874 1_555
B2 Ru0 2.214993 1_565
B2 Ru0 2.214993 1_564
B2 Sc3 2.726292 1_555
B2 Sc1 2.808753 1_555
B2 Sc0 2.808753 1_565
B3 Rh1 2.198874 1_554
B3 Rh6 2.198874 1_555
B3 Rh6 2.198874 1_554
B3 Rh1 2.198874 1_555
B3 Ru0 2.214993 1_555
B3 Ru0 2.214993 1_554
B3 Sc2 2.726292 1_555
B3 Sc1 2.808753 1_545
B3 Sc0 2.808753 1_555
Ru0 Sc0 2.754559 1_555
Ru0 Sc0 2.754559 1_556
Ru0 Sc1 2.754559 1_545
Ru0 Sc1 2.754559 1_546
Ru1 Sc3 2.754559 1_455
Ru1 Sc3 2.754559 1_456
Ru1 Sc2 2.754559 1_556
Ru1 Sc2 2.754559 1_555
Rh0 Ti0 2.624312 1_556
Rh0 Ti0 2.624312 1_555
Rh0 Sc3 2.854973 1_556
Rh0 Sc3 2.854973 1_555
Rh0 Sc1 2.952863 1_555
Rh0 Sc1 2.952863 1_556
Rh1 Ti0 2.624312 1_556
Rh1 Ti0 2.624312 1_555
Rh1 Sc2 2.854973 1_555
Rh1 Sc2 2.854973 1_556
Rh1 Sc0 2.952863 1_555
Rh1 Sc0 2.952863 1_556
Rh2 Ti1 2.624312 1_566
Rh2 Ti1 2.624312 1_565
Rh2 Sc1 2.854973 1_555
Rh2 Sc1 2.854973 1_556
Rh2 Sc3 2.952863 1_455
Rh2 Sc3 2.952863 1_456
Rh3 Ti1 2.624312 1_656
Rh3 Ti1 2.624312 1_655
Rh3 Sc0 2.854973 1_555
Rh3 Sc0 2.854973 1_556
Rh3 Sc2 2.952863 1_655
Rh3 Sc2 2.952863 1_656
Rh4 Ti0 2.624312 1_556
Rh4 Ti0 2.624312 1_555
Rh4 Sc1 2.854973 1_555
Rh4 Sc1 2.854973 1_556
Rh4 Sc2 2.952863 1_555
Rh4 Sc2 2.952863 1_556
Rh5 Ti0 2.624312 1_556
Rh5 Ti0 2.624312 1_555
Rh5 Sc0 2.854973 1_555
Rh5 Sc0 2.854973 1_556
Rh5 Sc3 2.952863 1_556
Rh5 Sc3 2.952863 1_555
Rh6 Ti1 2.624312 1_555
Rh6 Ti1 2.624312 1_556
Rh6 Sc2 2.854973 1_555
Rh6 Sc2 2.854973 1_556
Rh6 Sc1 2.952863 1_546
Rh6 Sc1 2.952863 1_545
Rh7 Ti1 2.624312 1_665
Rh7 Ti1 2.624312 1_666
Rh7 Sc3 2.854973 1_556
Rh7 Sc3 2.854973 1_555
Rh7 Sc0 2.952863 1_565
Rh7 Sc0 2.952863 1_566
