# generated using pymatgen
data_Ba10POsN10
_symmetry_space_group_name_H-M   'P 1'
_cell_length_a   8.00971022
_cell_length_b   8.00971047
_cell_length_c   9.40172817
_cell_angle_alpha   76.20533473
_cell_angle_beta   76.20533380
_cell_angle_gamma   96.20407587
_symmetry_Int_Tables_number   1
_chemical_formula_structural   Ba10POsN10
_chemical_formula_sum   'Ba10 P1 Os1 N10'
_cell_volume   560.11351364
_cell_formula_units_Z   1
loop_
 _symmetry_equiv_pos_site_id
 _symmetry_equiv_pos_as_xyz
  1  'x, y, z'
loop_
 _atom_site_type_symbol
 _atom_site_label
 _atom_site_symmetry_multiplicity
 _atom_site_fract_x
 _atom_site_fract_y
 _atom_site_fract_z
 _atom_site_occupancy
  Ba  Ba0  1  0.39897346  0.38139489  0.38031802  1
  Ba  Ba1  1  0.61860511  0.60102654  0.61968198  1
  Ba  Ba2  1  0.67323409  0.66966359  0.00716505  1
  Ba  Ba3  1  0.33033641  0.32676591  0.99283495  1
  Ba  Ba4  1  0.91471828  0.93569337  0.20784651  1
  Ba  Ba5  1  0.06430663  0.08528172  0.79215349  1
  Ba  Ba6  1  0.57379387  0.10423736  0.75524901  1
  Ba  Ba7  1  0.89576264  0.42620613  0.24475099  1
  Ba  Ba8  1  0.44698723  0.91500433  0.24786302  1
  Ba  Ba9  1  0.08499567  0.55301277  0.75213698  1
  P  P0  1  0.75762433  0.24237567  1.00000000  1
  Os  Os0  1  0.24456015  0.75543985  1.00000000  1
  N  N0  1  0.65214315  0.65109413  0.30947966  1
  N  N1  1  0.34890587  0.34785685  0.69052034  1
  N  N2  1  0.72015114  0.03330966  0.99455203  1
  N  N3  1  0.96669034  0.27984886  0.00544797  1
  N  N4  1  0.27935079  0.98131804  0.01244043  1
  N  N5  1  0.01868196  0.72064921  0.98755957  1
  N  N6  1  0.39124973  0.73142667  0.82963452  1
  N  N7  1  0.26857333  0.60875027  0.17036448  1
  N  N8  1  0.62129911  0.27094128  0.15436128  1
  N  N9  1  0.72905872  0.37870089  0.84563772  1
loop_
_geom_bond_atom_site_label_1
_geom_bond_atom_site_label_2
_geom_bond_distance
_geom_bond_site_symmetry_2
Ba0 N0 2.635368 1_555
Ba0 N1 2.789972 1_555
Ba0 N8 2.810614 1_555
Ba0 N7 2.825526 1_555
Ba1 N1 2.635368 1_555
Ba1 N0 2.789972 1_555
Ba1 N9 2.810607 1_555
Ba1 N6 2.825520 1_555
Ba2 N5 2.708015 1_654
Ba2 N0 2.773662 1_555
Ba2 N2 2.866453 1_564
Ba2 N9 3.086545 1_554
Ba2 N8 3.101331 1_555
Ba2 N6 3.126893 1_554
Ba2 N7 3.166596 1_555
Ba3 N4 2.708015 1_546
Ba3 N1 2.773662 1_555
Ba3 N3 2.866453 1_456
Ba3 N8 3.086539 1_556
Ba3 N9 3.101333 1_555
Ba3 N7 3.126886 1_556
Ba3 N6 3.166598 1_555
Ba4 N0 2.738490 1_555
Ba4 N2 2.840316 1_564
Ba4 N3 2.875027 1_565
Ba4 N4 2.988137 1_655
Ba4 N5 3.022971 1_654
Ba5 N1 2.738490 1_555
Ba5 N3 2.840316 1_456
Ba5 N2 2.875027 1_455
Ba5 N5 2.988137 1_545
Ba5 N4 3.022971 1_546
Ba6 N2 2.747916 1_555
Ba6 N9 2.811695 1_555
Ba6 N4 2.832244 1_546
Ba6 N1 2.852860 1_555
Ba6 N6 3.019357 1_545
Ba7 N3 2.747916 1_555
Ba7 N8 2.811700 1_555
Ba7 N5 2.832244 1_654
Ba7 N0 2.852860 1_555
Ba7 N7 3.019356 1_655
Ba8 N2 2.710659 1_564
Ba8 N4 2.827516 1_555
Ba8 N0 2.850426 1_555
Ba8 N8 2.865174 1_565
Ba8 N7 3.030102 1_555
Ba9 N3 2.710659 1_456
Ba9 N5 2.827516 1_555
Ba9 N1 2.850426 1_555
Ba9 N9 2.865174 1_455
Ba9 N6 3.030096 1_555
N2 P0 1.684178 1_555
N3 P0 1.684178 1_554
N4 Os0 1.836326 1_554
N5 Os0 1.836326 1_555
N6 Os0 1.811439 1_555
N7 Os0 1.811432 1_554
N8 P0 1.675547 1_554
N9 P0 1.675554 1_555
