# generated using pymatgen
data_MoWBr8N
_symmetry_space_group_name_H-M   'P 1'
_cell_length_a   6.85563400
_cell_length_b   6.92941302
_cell_length_c   7.14977284
_cell_angle_alpha   91.57320428
_cell_angle_beta   96.50868433
_cell_angle_gamma   95.44652891
_symmetry_Int_Tables_number   1
_chemical_formula_structural   MoWBr8N
_chemical_formula_sum   'Mo1 W1 Br8 N1'
_cell_volume   335.69009265
_cell_formula_units_Z   1
loop_
 _symmetry_equiv_pos_site_id
 _symmetry_equiv_pos_as_xyz
  1  'x, y, z'
loop_
 _atom_site_type_symbol
 _atom_site_label
 _atom_site_symmetry_multiplicity
 _atom_site_fract_x
 _atom_site_fract_y
 _atom_site_fract_z
 _atom_site_occupancy
  Mo  Mo0  1  0.94830616  0.59015500  0.22613278  1
  W  W0  1  0.04978059  0.41272501  0.77063162  1
  Br  Br0  1  0.63993945  0.38133910  0.21639709  1
  Br  Br1  1  0.88725481  0.69443589  0.59889398  1
  Br  Br2  1  0.27221627  0.77383665  0.29489254  1
  Br  Br3  1  0.78654944  0.87103929  0.12091661  1
  Br  Br4  1  0.21273272  0.12943334  0.87040268  1
  Br  Br5  1  0.36276325  0.61742390  0.78889713  1
  Br  Br6  1  0.11379676  0.30473895  0.40561173  1
  Br  Br7  1  0.72746746  0.22364341  0.70907081  1
  N  N0  1  0.99919408  0.50122946  0.99815502  1
loop_
_geom_bond_atom_site_label_1
_geom_bond_atom_site_label_2
_geom_bond_distance
_geom_bond_site_symmetry_2
Mo0 N0 1.809104 1_554
Br0 Mo0 2.438891 1_555
Br1 W0 2.606566 1_655
Br1 Mo0 2.829305 1_555
Br2 Mo0 2.444264 1_455
Br3 Mo0 2.425904 1_555
Br4 W0 2.433707 1_555
Br5 W0 2.445726 1_555
Br6 Mo0 2.660956 1_455
Br6 W0 2.788981 1_555
Br7 W0 2.447706 1_655
N0 W0 1.804486 1_655
