# generated using pymatgen
data_Ca6SbOsO12
_symmetry_space_group_name_H-M   'P 1'
_cell_length_a   5.85330473
_cell_length_b   5.57942100
_cell_length_c   9.73873840
_cell_angle_alpha   55.18096292
_cell_angle_beta   90.07224494
_cell_angle_gamma   90.14385641
_symmetry_Int_Tables_number   1
_chemical_formula_structural   Ca6SbOsO12
_chemical_formula_sum   'Ca6 Sb1 Os1 O12'
_cell_volume   261.10389014
_cell_formula_units_Z   1
loop_
 _symmetry_equiv_pos_site_id
 _symmetry_equiv_pos_as_xyz
  1  'x, y, z'
loop_
 _atom_site_type_symbol
 _atom_site_label
 _atom_site_symmetry_multiplicity
 _atom_site_fract_x
 _atom_site_fract_y
 _atom_site_fract_z
 _atom_site_occupancy
  Ca  Ca0  1  0.05488551  0.72015144  0.76383835  1
  Ca  Ca1  1  0.94511449  0.27984856  0.23616165  1
  Ca  Ca2  1  0.56263094  0.26796496  0.75507107  1
  Ca  Ca3  1  0.43736906  0.73203504  0.24492893  1
  Ca  Ca4  1  0.50000000  0.50000000  0.00000000  1
  Ca  Ca5  1  0.00000000  0.50000000  0.50000000  1
  Sb  Sb0  1  0.00000000  0.00000000  0.00000000  1
  Os  Os0  1  0.50000000  0.00000000  0.50000000  1
  O  O0  1  0.45205527  0.89315942  0.71831728  1
  O  O1  1  0.54794473  0.10684058  0.28168272  1
  O  O2  1  0.94203487  0.10980570  0.76849908  1
  O  O3  1  0.05796513  0.89019430  0.23150092  1
  O  O4  1  0.77157029  0.76459132  0.56988572  1
  O  O5  1  0.22842971  0.23540868  0.43011428  1
  O  O6  1  0.27898696  0.25335441  0.92475640  1
  O  O7  1  0.72101304  0.74664559  0.07524360  1
  O  O8  1  0.32604176  0.66923310  0.55289180  1
  O  O9  1  0.67395824  0.33076690  0.44710820  1
  O  O10  1  0.81367316  0.33892050  0.94636841  1
  O  O11  1  0.18632684  0.66107950  0.05363159  1
loop_
_geom_bond_atom_site_label_1
_geom_bond_atom_site_label_2
_geom_bond_distance
_geom_bond_site_symmetry_2
Ca0 O2 2.298877 1_465
Ca0 O10 2.313232 1_455
Ca0 O4 2.416328 1_455
Ca0 O0 2.456714 1_555
Ca0 O6 2.512116 1_555
Ca0 O8 2.738089 1_555
Ca0 O11 2.756638 1_556
Ca0 O5 3.030376 1_565
Ca1 O3 2.298877 1_645
Ca1 O11 2.313232 1_655
Ca1 O5 2.416328 1_655
Ca1 O1 2.456714 1_555
Ca1 O7 2.512116 1_555
Ca1 O9 2.738089 1_555
Ca1 O10 2.756638 1_554
Ca1 O4 3.030376 1_545
Ca2 O6 2.312211 1_555
Ca2 O2 2.367473 1_555
Ca2 O0 2.401570 1_545
Ca2 O8 2.404505 1_555
Ca2 O10 2.572766 1_555
Ca2 O4 2.589958 1_555
Ca2 O9 2.888962 1_555
Ca2 O7 2.948111 1_546
Ca3 O7 2.312211 1_555
Ca3 O3 2.367473 1_555
Ca3 O1 2.401570 1_565
Ca3 O9 2.404505 1_555
Ca3 O11 2.572766 1_555
Ca3 O5 2.589958 1_555
Ca3 O8 2.888962 1_555
Ca3 O6 2.948111 1_564
Ca4 O11 2.235679 1_555
Ca4 O10 2.235679 1_554
Ca4 O7 2.290090 1_555
Ca4 O6 2.290090 1_554
Ca4 O0 2.354832 1_554
Ca4 O1 2.354832 1_555
Ca5 O2 2.278104 1_455
Ca5 O3 2.278104 1_555
Ca5 O8 2.311460 1_555
Ca5 O9 2.311460 1_455
Ca5 O4 2.364303 1_455
Ca5 O5 2.364303 1_555
O0 Os0 1.872931 1_565
O1 Os0 1.872931 1_555
O2 Sb0 1.998781 1_656
O3 Sb0 1.998781 1_565
O4 Os0 1.924069 1_565
O5 Os0 1.924069 1_555
O6 Sb0 2.002587 1_556
O7 Sb0 2.002587 1_665
O8 Os0 1.901121 1_565
O9 Os0 1.901121 1_555
O10 Sb0 1.979674 1_656
O11 Sb0 1.979674 1_565
