# generated using pymatgen
data_Ta4CrSiB2
_symmetry_space_group_name_H-M   'P 1'
_cell_length_a   7.15150110
_cell_length_b   7.15150203
_cell_length_c   7.15150180
_cell_angle_alpha   129.93634584
_cell_angle_beta   129.93634962
_cell_angle_gamma   73.50854443
_symmetry_Int_Tables_number   1
_chemical_formula_structural   Ta4CrSiB2
_chemical_formula_sum   'Ta8 Cr2 Si2 B4'
_cell_volume   209.85923607
_cell_formula_units_Z   2
loop_
 _symmetry_equiv_pos_site_id
 _symmetry_equiv_pos_as_xyz
  1  'x, y, z'
loop_
 _atom_site_type_symbol
 _atom_site_label
 _atom_site_symmetry_multiplicity
 _atom_site_fract_x
 _atom_site_fract_y
 _atom_site_fract_z
 _atom_site_occupancy
  Ta  Ta0  1  0.53325004  0.69291430  0.50000000  1
  Ta  Ta1  1  0.19291430  0.03325004  0.50000000  1
  Ta  Ta2  1  0.03325004  0.53325004  0.84033574  1
  Ta  Ta3  1  0.69291430  0.19291430  0.15966426  1
  Ta  Ta4  1  0.46674996  0.30708570  0.50000000  1
  Ta  Ta5  1  0.80708570  0.96674996  0.50000000  1
  Ta  Ta6  1  0.96674996  0.46674996  0.15966426  1
  Ta  Ta7  1  0.30708570  0.80708570  0.84033574  1
  Cr  Cr0  1  0.50000000  0.50000000  0.00000000  1
  Cr  Cr1  1  0.00000000  0.00000000  0.00000000  1
  Si  Si0  1  0.25000000  0.25000000  0.00000000  1
  Si  Si1  1  0.75000000  0.75000000  0.00000000  1
  B  B0  1  0.88037326  0.61962674  0.50000000  1
  B  B1  1  0.11962674  0.38037326  0.50000000  1
  B  B2  1  0.38037326  0.88037326  0.26074552  1
  B  B3  1  0.61962674  0.11962674  0.73925448  1
loop_
_geom_bond_atom_site_label_1
_geom_bond_atom_site_label_2
_geom_bond_distance
_geom_bond_site_symmetry_2
Cr0 Ta6 2.739876 1_555
Cr0 Ta2 2.739876 1_554
Cr0 Ta5 2.739876 1_555
Cr0 Ta1 2.739876 1_554
Cr0 Ta0 2.739876 1_555
Cr0 Ta4 2.739876 1_554
Cr0 Ta7 2.739876 1_554
Cr0 Ta3 2.739876 1_555
Cr0 Si0 2.864924 1_555
Cr0 Si1 2.864924 1_555
Cr1 Ta4 2.739876 1_555
Cr1 Ta0 2.739876 1_444
Cr1 Ta7 2.739876 1_544
Cr1 Ta3 2.739876 1_455
Cr1 Ta1 2.739876 1_555
Cr1 Ta5 2.739876 1_444
Cr1 Ta6 2.739876 1_455
Cr1 Ta2 2.739876 1_544
Cr1 Si0 2.864924 1_555
Cr1 Si1 2.864924 1_445
Si0 Ta3 2.593139 1_555
Si0 Ta5 2.593139 1_444
Si0 Ta6 2.593139 1_455
Si0 Ta4 2.593139 1_555
Si0 Ta2 2.593139 1_554
Si0 Ta0 2.593139 1_555
Si0 Ta1 2.593139 1_554
Si0 Ta7 2.593139 1_544
Si1 Ta7 2.593139 1_554
Si1 Ta1 2.593139 1_665
Si1 Ta2 2.593139 1_654
Si1 Ta0 2.593139 1_554
Si1 Ta6 2.593139 1_555
Si1 Ta4 2.593139 1_554
Si1 Ta5 2.593139 1_555
Si1 Ta3 2.593139 1_565
B0 B1 2.047697 1_655
B0 Ta7 2.373033 1_655
B0 Ta6 2.373033 1_555
B0 Ta2 2.373033 1_655
B0 Ta3 2.373033 1_555
B0 Ta0 2.387169 1_555
B0 Ta5 2.387170 1_555
B0 Cr0 2.413144 1_555
B0 Cr1 2.413145 1_666
B1 Ta3 2.373033 1_455
B1 Ta2 2.373033 1_555
B1 Ta6 2.373033 1_455
B1 Ta7 2.373033 1_555
B1 Ta4 2.387169 1_555
B1 Ta1 2.387170 1_555
B1 Cr0 2.413144 1_556
B1 Cr1 2.413145 1_555
B2 B3 2.047706 1_565
B2 Ta5 2.373031 1_555
B2 Ta4 2.373031 1_565
B2 Ta1 2.373039 1_565
B2 Ta0 2.373039 1_555
B2 Ta7 2.387163 1_554
B2 Ta2 2.387170 1_554
B2 Cr1 2.413142 1_565
B2 Cr0 2.413143 1_555
B3 Ta1 2.373031 1_555
B3 Ta0 2.373031 1_545
B3 Ta5 2.373039 1_545
B3 Ta4 2.373039 1_555
B3 Ta3 2.387163 1_556
B3 Ta6 2.387170 1_556
B3 Cr1 2.413142 1_656
B3 Cr0 2.413143 1_556
