# generated using pymatgen
data_LuSb3Pb4O13
_symmetry_space_group_name_H-M   'P 1'
_cell_length_a   7.54275701
_cell_length_b   7.54275772
_cell_length_c   7.54275640
_cell_angle_alpha   59.84576162
_cell_angle_beta   59.84575843
_cell_angle_gamma   59.84576013
_symmetry_Int_Tables_number   1
_chemical_formula_structural   LuSb3Pb4O13
_chemical_formula_sum   'Lu1 Sb3 Pb4 O13'
_cell_volume   302.37960507
_cell_formula_units_Z   1
loop_
 _symmetry_equiv_pos_site_id
 _symmetry_equiv_pos_as_xyz
  1  'x, y, z'
loop_
 _atom_site_type_symbol
 _atom_site_label
 _atom_site_symmetry_multiplicity
 _atom_site_fract_x
 _atom_site_fract_y
 _atom_site_fract_z
 _atom_site_occupancy
  Lu  Lu0  1  0.50001152  0.50001152  0.50001152  1
  Sb  Sb0  1  0.00133428  0.49987297  0.49987297  1
  Sb  Sb1  1  0.49987297  0.49987297  0.00133428  1
  Sb  Sb2  1  0.49987297  0.00133428  0.49987297  1
  Pb  Pb0  1  0.99781108  0.99781108  0.99781108  1
  Pb  Pb1  1  0.50049967  0.00095793  0.00095793  1
  Pb  Pb2  1  0.00095793  0.00095793  0.50049967  1
  Pb  Pb3  1  0.00095793  0.50049967  0.00095793  1
  O  O0  1  0.84879137  0.41945614  0.41945614  1
  O  O1  1  0.42214335  0.81644531  0.81644531  1
  O  O2  1  0.41945614  0.41945614  0.84879137  1
  O  O3  1  0.81644531  0.81644531  0.42214335  1
  O  O4  1  0.81644531  0.42214335  0.81644531  1
  O  O5  1  0.41945614  0.84879137  0.41945614  1
  O  O6  1  0.15730327  0.57695294  0.57695294  1
  O  O7  1  0.57762187  0.18528148  0.18528148  1
  O  O8  1  0.57695294  0.57695294  0.15730327  1
  O  O9  1  0.18528148  0.18528148  0.57762187  1
  O  O10  1  0.18528148  0.57762187  0.18528148  1
  O  O11  1  0.57695294  0.15730327  0.57695294  1
  O  O12  1  0.12155402  0.12155402  0.12155402  1
loop_
_geom_bond_atom_site_label_1
_geom_bond_atom_site_label_2
_geom_bond_distance
_geom_bond_site_symmetry_2
Lu0 O8 2.163257 1_555
Lu0 O6 2.163258 1_555
Lu0 O11 2.163258 1_555
Lu0 O2 2.195073 1_555
Lu0 O0 2.195074 1_555
Lu0 O5 2.195074 1_555
O0 Sb0 1.957464 1_655
O0 Pb3 2.604167 1_655
O0 Pb2 2.604167 1_655
O1 Sb2 2.014877 1_565
O1 Sb1 2.014877 1_556
O1 Pb0 2.658819 1_455
O1 Pb1 2.796758 1_566
O2 Sb1 1.957464 1_556
O2 Pb3 2.604167 1_556
O2 Pb1 2.604167 1_556
O3 Sb2 2.014877 1_565
O3 Sb0 2.014877 1_655
O3 Pb0 2.658818 1_554
O3 Pb2 2.796759 1_665
O4 Sb0 2.014877 1_655
O4 Sb1 2.014877 1_556
O4 Pb0 2.658819 1_545
O4 Pb3 2.796758 1_656
O5 Sb2 1.957464 1_565
O5 Pb1 2.604167 1_565
O5 Pb2 2.604167 1_565
O6 Sb0 1.942669 1_555
O6 Pb3 2.644383 1_556
O6 Pb2 2.644383 1_565
O7 Sb2 2.002835 1_555
O7 Sb1 2.002835 1_555
O7 Pb0 2.654773 1_544
O7 Pb1 2.787709 1_555
O8 Sb1 1.942669 1_555
O8 Pb3 2.644383 1_655
O8 Pb1 2.644383 1_565
O9 Sb2 2.002835 1_555
O9 Sb0 2.002835 1_555
O9 Pb0 2.654773 1_445
O9 Pb2 2.787709 1_555
O10 Sb0 2.002835 1_555
O10 Sb1 2.002835 1_555
O10 Pb0 2.654773 1_454
O10 Pb3 2.787709 1_555
O11 Sb2 1.942669 1_555
O11 Pb1 2.644383 1_556
O11 Pb2 2.644383 1_655
O12 Pb0 2.288924 1_444
O12 Pb2 2.330617 1_555
O12 Pb1 2.330617 1_555
O12 Pb3 2.330618 1_555
