# generated using pymatgen
data_Y6InGa2
_symmetry_space_group_name_H-M   'P 1'
_cell_length_a   8.67281284
_cell_length_b   8.67281348
_cell_length_c   8.67281307
_cell_angle_alpha   112.19291712
_cell_angle_beta   111.83277757
_cell_angle_gamma   104.49968443
_symmetry_Int_Tables_number   1
_chemical_formula_structural   Y6InGa2
_chemical_formula_sum   'Y12 In2 Ga4'
_cell_volume   499.37013629
_cell_formula_units_Z   2
loop_
 _symmetry_equiv_pos_site_id
 _symmetry_equiv_pos_as_xyz
  1  'x, y, z'
loop_
 _atom_site_type_symbol
 _atom_site_label
 _atom_site_symmetry_multiplicity
 _atom_site_fract_x
 _atom_site_fract_y
 _atom_site_fract_z
 _atom_site_occupancy
  Y  Y0  1  0.43875221  0.23845489  0.20029732  1
  Y  Y1  1  0.56124779  0.76154511  0.79970268  1
  Y  Y2  1  0.03815756  0.23845489  0.79970268  1
  Y  Y3  1  0.96184244  0.76154511  0.20029732  1
  Y  Y4  1  0.18156942  0.27797429  0.45954372  1
  Y  Y5  1  0.81843058  0.72202571  0.54045628  1
  Y  Y6  1  0.18156942  0.72202571  0.90359613  1
  Y  Y7  1  0.81843058  0.27797429  0.09640387  1
  Y  Y8  1  0.32019209  0.62032908  0.30013699  1
  Y  Y9  1  0.67980791  0.37967092  0.69986301  1
  Y  Y10  1  0.32019209  0.02005510  0.69986301  1
  Y  Y11  1  0.67980791  0.97994490  0.30013699  1
  In  In0  1  0.50000000  0.50000000  0.00000000  1
  In  In1  1  0.00000000  0.00000000  0.00000000  1
  Ga  Ga0  1  0.35121851  0.00000000  0.35121851  1
  Ga  Ga1  1  0.64878149  1.00000000  0.64878149  1
  Ga  Ga2  1  0.11943019  0.61943019  0.50000000  1
  Ga  Ga3  1  0.88056981  0.38056981  0.50000000  1
loop_
_geom_bond_atom_site_label_1
_geom_bond_atom_site_label_2
_geom_bond_distance
_geom_bond_site_symmetry_2
Y0 Y11 3.551668 1_545
Y0 Y9 3.551668 1_555
Y0 Y10 3.602357 1_554
Y0 Y8 3.602357 1_555
Y0 Y5 3.694241 1_555
Y0 Y7 3.694246 1_555
Y0 Y4 3.698473 1_555
Y0 Y6 3.698473 1_544
Y0 Y2 3.893990 1_554
Y1 Y10 3.551668 1_565
Y1 Y8 3.551668 1_555
Y1 Y11 3.602357 1_556
Y1 Y9 3.602357 1_555
Y1 Y4 3.694241 1_555
Y1 Y6 3.694246 1_555
Y1 Y5 3.698473 1_555
Y1 Y7 3.698473 1_566
Y1 Y3 3.893990 1_556
Y2 Y9 3.551668 1_455
Y2 Y8 3.602357 1_556
Y2 Y6 3.694238 1_555
Y2 Y4 3.694240 1_555
Y2 Y7 3.698466 1_456
Y2 Y5 3.698474 1_445
Y3 Y8 3.551668 1_655
Y3 Y9 3.602357 1_554
Y3 Y7 3.694238 1_555
Y3 Y5 3.694240 1_555
Y3 Y6 3.698466 1_654
Y3 Y4 3.698474 1_665
Y10 Y3 3.551668 1_445
Y10 Y2 3.602357 1_555
Y11 Y2 3.551668 1_665
Y11 Y3 3.602357 1_555
In0 Y3 3.391892 1_555
In0 Y2 3.391892 1_554
In0 Y0 3.391892 1_555
In0 Y1 3.391892 1_554
In0 Y8 3.475447 1_555
In0 Y9 3.475447 1_554
In0 Y11 3.475447 1_555
In0 Y10 3.475447 1_554
In0 Y7 3.767704 1_555
In0 Y6 3.767704 1_554
In0 Y5 3.767705 1_555
In0 Y4 3.767705 1_554
In1 Y1 3.194211 1_444
In1 Y0 3.194211 1_555
In1 Y2 3.194211 1_554
In1 Y3 3.194211 1_445
In1 Y7 3.216894 1_455
In1 Y6 3.216894 1_544
In1 Y4 3.216896 1_555
In1 Y5 3.216896 1_444
Ga0 Ga1 2.892468 1_545
Ga0 Y3 2.926496 1_445
Ga0 Y0 2.926496 1_555
Ga0 Y11 3.078458 1_545
Ga0 Y10 3.078458 1_555
Ga0 Y8 3.078458 1_545
Ga0 Y9 3.078458 1_555
Ga0 Y6 3.154804 1_544
Ga0 Y4 3.154810 1_555
Ga1 Y2 2.926496 1_665
Ga1 Y1 2.926496 1_555
Ga1 Y10 3.078458 1_565
Ga1 Y11 3.078458 1_555
Ga1 Y9 3.078458 1_565
Ga1 Y8 3.078458 1_555
Ga1 Y7 3.154804 1_566
Ga1 Y5 3.154810 1_555
Ga2 Ga3 2.536537 1_455
Ga2 Y8 2.878296 1_555
Ga2 Y10 2.878297 1_565
Ga2 Y5 3.055846 1_455
Ga2 Y4 3.055846 1_555
Ga2 Y7 3.055850 1_455
Ga2 Y6 3.055855 1_555
Ga2 Y1 3.280961 1_555
Ga2 Y3 3.280961 1_455
Ga3 Y9 2.878296 1_555
Ga3 Y11 2.878297 1_545
Ga3 Y4 3.055846 1_655
Ga3 Y5 3.055846 1_555
Ga3 Y6 3.055850 1_655
Ga3 Y7 3.055855 1_555
Ga3 Y0 3.280961 1_555
Ga3 Y2 3.280961 1_655
