# generated using pymatgen
data_NaRh2PbF9
_symmetry_space_group_name_H-M   'P 1'
_cell_length_a   7.18294836
_cell_length_b   7.18294920
_cell_length_c   7.59387570
_cell_angle_alpha   88.30754903
_cell_angle_beta   88.30754857
_cell_angle_gamma   117.81671343
_symmetry_Int_Tables_number   1
_chemical_formula_structural   NaRh2PbF9
_chemical_formula_sum   'Na2 Rh4 Pb2 F18'
_cell_volume   345.96196753
_cell_formula_units_Z   2
loop_
 _symmetry_equiv_pos_site_id
 _symmetry_equiv_pos_as_xyz
  1  'x, y, z'
loop_
 _atom_site_type_symbol
 _atom_site_label
 _atom_site_symmetry_multiplicity
 _atom_site_fract_x
 _atom_site_fract_y
 _atom_site_fract_z
 _atom_site_occupancy
  Na  Na0  1  0.50000000  0.00000000  0.00000000  1
  Na  Na1  1  0.00000000  0.50000000  0.50000000  1
  Rh  Rh0  1  0.00000000  0.00000000  0.50000000  1
  Rh  Rh1  1  0.00000000  0.00000000  0.00000000  1
  Rh  Rh2  1  0.50000000  0.00000000  0.50000000  1
  Rh  Rh3  1  0.00000000  0.50000000  0.00000000  1
  Pb  Pb0  1  0.47099324  0.52900676  0.75000000  1
  Pb  Pb1  1  0.52900676  0.47099324  0.25000000  1
  F  F0  1  0.19447891  0.88646828  0.56410086  1
  F  F1  1  0.80552109  0.11353172  0.43589914  1
  F  F2  1  0.11353172  0.80552109  0.93589914  1
  F  F3  1  0.88646828  0.19447891  0.06410086  1
  F  F4  1  0.95138777  0.04861223  0.75000000  1
  F  F5  1  0.04861223  0.95138777  0.25000000  1
  F  F6  1  0.52455975  0.89630191  0.73728414  1
  F  F7  1  0.47544025  0.10369809  0.26271586  1
  F  F8  1  0.10369809  0.47544025  0.76271586  1
  F  F9  1  0.89630191  0.52455975  0.23728414  1
  F  F10  1  0.58611471  0.29361787  0.56487280  1
  F  F11  1  0.41388529  0.70638213  0.43512720  1
  F  F12  1  0.70638213  0.41388529  0.93512720  1
  F  F13  1  0.29361787  0.58611471  0.06487280  1
  F  F14  1  0.70073077  0.78470447  0.02534745  1
  F  F15  1  0.29926923  0.21529553  0.97465255  1
  F  F16  1  0.21529553  0.29926923  0.47465255  1
  F  F17  1  0.78470447  0.70073077  0.52534745  1
loop_
_geom_bond_atom_site_label_1
_geom_bond_atom_site_label_2
_geom_bond_distance
_geom_bond_site_symmetry_2
F0 Rh0 1.983256 1_565
F0 Rh2 1.990276 1_565
F0 Na1 2.528886 1_555
F1 Rh0 1.983256 1_655
F1 Rh2 1.990276 1_555
F1 Na1 2.528886 1_655
F2 Rh1 1.983256 1_566
F2 Rh3 1.990276 1_556
F2 Na0 2.528886 1_566
F3 Rh1 1.983256 1_655
F3 Rh3 1.990276 1_655
F3 Na0 2.528886 1_555
F4 Rh0 1.990434 1_655
F4 Rh1 1.990434 1_656
F5 Rh0 1.990434 1_565
F5 Rh1 1.990434 1_565
F6 Rh2 1.973558 1_565
F6 Na0 2.180759 1_566
F6 Pb0 2.480557 1_555
F7 Rh2 1.973558 1_555
F7 Na0 2.180759 1_555
F7 Pb1 2.480557 1_555
F8 Rh3 1.973558 1_556
F8 Na1 2.180759 1_555
F8 Pb0 2.480556 1_555
F9 Rh3 1.973558 1_655
F9 Na1 2.180759 1_655
F9 Pb1 2.480556 1_555
F10 Rh2 1.983734 1_555
F10 Pb0 2.625929 1_555
F10 Na1 2.652496 1_655
F11 Rh2 1.983734 1_565
F11 Pb1 2.625929 1_555
F11 Na1 2.652496 1_555
F12 Rh3 1.983733 1_656
F12 Pb0 2.625929 1_555
F12 Na0 2.652497 1_556
F13 Rh3 1.983733 1_555
F13 Pb1 2.625929 1_555
F13 Na0 2.652497 1_565
F14 Rh1 1.976091 1_665
F14 Pb1 2.562050 1_555
F14 Na0 2.566570 1_565
F15 Rh1 1.976091 1_556
F15 Pb0 2.562050 1_555
F15 Na0 2.566570 1_556
F16 Rh0 1.976091 1_555
F16 Pb1 2.562049 1_555
F16 Na1 2.566570 1_555
F17 Rh0 1.976091 1_665
F17 Pb0 2.562049 1_555
F17 Na1 2.566570 1_655
