# generated using pymatgen
data_Cs2Ti7BBr18
_symmetry_space_group_name_H-M   'P 1'
_cell_length_a   10.61788240
_cell_length_b   10.61788254
_cell_length_c   10.61788209
_cell_angle_alpha   55.41641466
_cell_angle_beta   55.41640565
_cell_angle_gamma   55.41640985
_symmetry_Int_Tables_number   1
_chemical_formula_structural   Cs2Ti7BBr18
_chemical_formula_sum   'Cs2 Ti7 B1 Br18'
_cell_volume   756.33171020
_cell_formula_units_Z   1
loop_
 _symmetry_equiv_pos_site_id
 _symmetry_equiv_pos_as_xyz
  1  'x, y, z'
loop_
 _atom_site_type_symbol
 _atom_site_label
 _atom_site_symmetry_multiplicity
 _atom_site_fract_x
 _atom_site_fract_y
 _atom_site_fract_z
 _atom_site_occupancy
  Cs  Cs0  1  0.77486723  0.77486723  0.77486723  1
  Cs  Cs1  1  0.22513277  0.22513277  0.22513277  1
  Ti  Ti0  1  0.15374998  0.90440476  0.80117184  1
  Ti  Ti1  1  0.84625002  0.09559524  0.19882816  1
  Ti  Ti2  1  0.09559524  0.19882816  0.84625002  1
  Ti  Ti3  1  0.19882816  0.84625002  0.09559524  1
  Ti  Ti4  1  0.90440476  0.80117184  0.15374998  1
  Ti  Ti5  1  0.80117184  0.15374998  0.90440476  1
  Ti  Ti6  1  0.50000000  0.50000000  0.50000000  1
  B  B0  1  0.00000000  0.00000000  0.00000000  1
  Br  Br0  1  0.21568041  0.46915123  0.64696466  1
  Br  Br1  1  0.78431959  0.53084877  0.35303534  1
  Br  Br2  1  0.34032594  0.05322766  0.93227202  1
  Br  Br3  1  0.65967406  0.94677234  0.06772798  1
  Br  Br4  1  0.93227202  0.34032594  0.05322766  1
  Br  Br5  1  0.71306525  0.88032958  0.40611957  1
  Br  Br6  1  0.35303534  0.78431959  0.53084877  1
  Br  Br7  1  0.59388043  0.28693475  0.11967042  1
  Br  Br8  1  0.28693475  0.11967042  0.59388043  1
  Br  Br9  1  0.11967042  0.59388043  0.28693475  1
  Br  Br10  1  0.94677234  0.06772798  0.65967406  1
  Br  Br11  1  0.40611957  0.71306525  0.88032958  1
  Br  Br12  1  0.88032958  0.40611957  0.71306525  1
  Br  Br13  1  0.06772798  0.65967406  0.94677234  1
  Br  Br14  1  0.46915123  0.64696466  0.21568041  1
  Br  Br15  1  0.64696466  0.21568041  0.46915123  1
  Br  Br16  1  0.53084877  0.35303534  0.78431959  1
  Br  Br17  1  0.05322766  0.93227202  0.34032594  1
loop_
_geom_bond_atom_site_label_1
_geom_bond_atom_site_label_2
_geom_bond_distance
_geom_bond_site_symmetry_2
B0 Ti1 2.188900 1_455
B0 Ti0 2.188900 1_544
B0 Ti2 2.188900 1_554
B0 Ti4 2.188900 1_445
B0 Ti3 2.188900 1_545
B0 Ti5 2.188900 1_454
Br0 Ti6 2.617327 1_555
Br0 Ti2 2.922098 1_555
Br0 Cs0 3.850883 1_455
Br1 Ti6 2.617327 1_555
Br1 Ti4 2.922098 1_555
Br1 Cs1 3.850883 1_655
Br2 Ti2 2.550984 1_555
Br2 Ti3 2.560934 1_546
Br2 Cs1 3.753430 1_556
Br2 Cs0 3.766947 1_545
Br3 Ti4 2.550984 1_555
Br3 Ti5 2.560934 1_564
Br3 Cs0 3.753430 1_554
Br3 Cs1 3.766947 1_565
Br4 Ti1 2.550984 1_555
Br4 Ti2 2.560934 1_654
Br4 Cs1 3.753430 1_655
Br4 Cs0 3.766948 1_554
Br5 Ti4 2.540178 1_555
Br5 Ti1 2.548213 1_565
Br5 Cs0 3.757605 1_555
Br6 Ti6 2.617327 1_555
Br6 Ti0 2.922098 1_555
Br6 Cs1 3.850883 1_565
Br7 Ti1 2.540178 1_555
Br7 Ti5 2.548213 1_554
Br7 Cs1 3.757605 1_555
Br8 Ti2 2.540178 1_555
Br8 Ti0 2.548213 1_545
Br8 Cs1 3.757605 1_555
Br9 Ti3 2.540178 1_555
Br9 Ti4 2.548213 1_455
Br9 Cs1 3.757605 1_555
Br10 Ti5 2.550984 1_555
Br10 Ti0 2.560934 1_645
Br10 Cs0 3.753430 1_545
Br10 Cs1 3.766947 1_655
Br11 Ti0 2.540178 1_555
Br11 Ti3 2.548213 1_556
Br11 Cs0 3.757605 1_555
Br12 Ti5 2.540178 1_555
Br12 Ti2 2.548213 1_655
Br12 Cs0 3.757605 1_555
Br13 Ti0 2.550984 1_555
Br13 Ti4 2.560934 1_456
Br13 Cs0 3.753430 1_455
Br13 Cs1 3.766948 1_556
Br14 Ti6 2.617327 1_555
Br14 Ti3 2.922098 1_555
Br14 Cs0 3.850883 1_554
Br15 Ti6 2.617327 1_555
Br15 Ti1 2.922098 1_555
Br15 Cs0 3.850883 1_545
Br16 Ti6 2.617327 1_555
Br16 Ti5 2.922098 1_555
Br16 Cs1 3.850883 1_556
Br17 Ti3 2.550984 1_555
Br17 Ti1 2.560934 1_465
Br17 Cs1 3.753430 1_565
Br17 Cs0 3.766947 1_455
