# generated using pymatgen
data_BaSr2TcH7
_symmetry_space_group_name_H-M   'P 1'
_cell_length_a   5.46888515
_cell_length_b   5.46888614
_cell_length_c   13.63558519
_cell_angle_alpha   90.00000000
_cell_angle_beta   90.00000000
_cell_angle_gamma   119.99999402
_symmetry_Int_Tables_number   1
_chemical_formula_structural   BaSr2TcH7
_chemical_formula_sum   'Ba2 Sr4 Tc2 H14'
_cell_volume   353.18489673
_cell_formula_units_Z   2
loop_
 _symmetry_equiv_pos_site_id
 _symmetry_equiv_pos_as_xyz
  1  'x, y, z'
loop_
 _atom_site_type_symbol
 _atom_site_label
 _atom_site_symmetry_multiplicity
 _atom_site_fract_x
 _atom_site_fract_y
 _atom_site_fract_z
 _atom_site_occupancy
  Ba  Ba0  1  0.00000000  0.00000000  0.25000000  1
  Ba  Ba1  1  0.00000000  0.00000000  0.75000000  1
  Sr  Sr0  1  0.33333300  0.66666700  0.43892097  1
  Sr  Sr1  1  0.66666700  0.33333300  0.56107903  1
  Sr  Sr2  1  0.66666700  0.33333300  0.93892097  1
  Sr  Sr3  1  0.33333300  0.66666700  0.06107903  1
  Tc  Tc0  1  0.00000000  0.00000000  0.50000000  1
  Tc  Tc1  1  0.00000000  0.00000000  0.00000000  1
  H  H0  1  0.33333300  0.66666700  0.25000000  1
  H  H1  1  0.66666700  0.33333300  0.75000000  1
  H  H2  1  0.15333021  0.84666979  0.92144661  1
  H  H3  1  0.15333021  0.30665942  0.92144661  1
  H  H4  1  0.69334058  0.84666979  0.92144661  1
  H  H5  1  0.84666979  0.15333021  0.07855339  1
  H  H6  1  0.84666979  0.69334058  0.07855339  1
  H  H7  1  0.30665942  0.15333021  0.07855339  1
  H  H8  1  0.84666979  0.15333021  0.42144661  1
  H  H9  1  0.84666979  0.69334058  0.42144661  1
  H  H10  1  0.30665942  0.15333021  0.42144661  1
  H  H11  1  0.15333021  0.84666979  0.57855339  1
  H  H12  1  0.15333021  0.30665942  0.57855339  1
  H  H13  1  0.69334058  0.84666979  0.57855339  1
loop_
_geom_bond_atom_site_label_1
_geom_bond_atom_site_label_2
_geom_bond_distance
_geom_bond_site_symmetry_2
Ba0 H10 2.752209 1_555
Ba0 H7 2.752209 1_555
Ba0 H9 2.752209 1_445
Ba0 H6 2.752209 1_445
Ba0 H8 2.752211 1_455
Ba0 H5 2.752211 1_455
Ba0 H0 3.157459 1_545
Ba0 H0 3.157464 1_445
Ba0 H0 3.157465 1_555
Ba1 H4 2.752209 1_445
Ba1 H13 2.752209 1_445
Ba1 H3 2.752209 1_555
Ba1 H12 2.752209 1_555
Ba1 H2 2.752211 1_545
Ba1 H11 2.752211 1_545
Ba1 H1 3.157459 1_455
Ba1 H1 3.157464 1_555
Ba1 H1 3.157465 1_445
H0 Sr0 2.576048 1_555
H0 Sr3 2.576048 1_555
H1 Sr2 2.576048 1_555
H1 Sr1 2.576048 1_555
H2 Tc1 1.804654 1_566
H2 Sr3 2.555840 1_556
H2 Sr2 2.747710 1_565
H2 Sr2 2.747710 1_455
H3 Tc1 1.804650 1_556
H3 Sr3 2.555846 1_556
H3 Sr2 2.747710 1_555
H3 Sr2 2.747710 1_455
H4 Tc1 1.804650 1_666
H4 Sr3 2.555846 1_556
H4 Sr2 2.747710 1_565
H4 Sr2 2.747710 1_555
H5 Tc1 1.804654 1_655
H5 Sr2 2.555840 1_554
H5 Sr3 2.747710 1_545
H5 Sr3 2.747710 1_655
H6 Tc1 1.804650 1_665
H6 Sr2 2.555846 1_554
H6 Sr3 2.747710 1_555
H6 Sr3 2.747710 1_655
H7 Tc1 1.804650 1_555
H7 Sr2 2.555846 1_554
H7 Sr3 2.747710 1_545
H7 Sr3 2.747710 1_555
H8 Tc0 1.804654 1_655
H8 Sr1 2.555840 1_555
H8 Sr0 2.747710 1_545
H8 Sr0 2.747710 1_655
H9 Tc0 1.804650 1_665
H9 Sr1 2.555846 1_555
H9 Sr0 2.747710 1_555
H9 Sr0 2.747710 1_655
H10 Tc0 1.804650 1_555
H10 Sr1 2.555846 1_555
H10 Sr0 2.747710 1_545
H10 Sr0 2.747710 1_555
H11 Tc0 1.804654 1_565
H11 Sr0 2.555840 1_555
H11 Sr1 2.747710 1_565
H11 Sr1 2.747710 1_455
H12 Tc0 1.804650 1_555
H12 Sr0 2.555846 1_555
H12 Sr1 2.747710 1_555
H12 Sr1 2.747710 1_455
H13 Tc0 1.804650 1_665
H13 Sr0 2.555846 1_555
H13 Sr1 2.747710 1_565
H13 Sr1 2.747710 1_555
