# generated using pymatgen
data_RbZr2V3O12
_symmetry_space_group_name_H-M   'P 1'
_cell_length_a   9.95266601
_cell_length_b   9.95266690
_cell_length_c   9.95266720
_cell_angle_alpha   55.26901671
_cell_angle_beta   55.26901705
_cell_angle_gamma   55.26901244
_symmetry_Int_Tables_number   1
_chemical_formula_structural   RbZr2V3O12
_chemical_formula_sum   'Rb2 Zr4 V6 O24'
_cell_volume   620.46364263
_cell_formula_units_Z   2
loop_
 _symmetry_equiv_pos_site_id
 _symmetry_equiv_pos_as_xyz
  1  'x, y, z'
loop_
 _atom_site_type_symbol
 _atom_site_label
 _atom_site_symmetry_multiplicity
 _atom_site_fract_x
 _atom_site_fract_y
 _atom_site_fract_z
 _atom_site_occupancy
  Rb  Rb0  1  0.50000000  0.50000000  0.50000000  1
  Rb  Rb1  1  0.00000000  0.00000000  0.00000000  1
  Zr  Zr0  1  0.64816460  0.64816460  0.64816460  1
  Zr  Zr1  1  0.85183540  0.85183540  0.85183540  1
  Zr  Zr2  1  0.35183540  0.35183540  0.35183540  1
  Zr  Zr3  1  0.14816460  0.14816460  0.14816460  1
  V  V0  1  0.46619590  0.03380410  0.75000000  1
  V  V1  1  0.03380410  0.75000000  0.46619590  1
  V  V2  1  0.75000000  0.46619590  0.03380410  1
  V  V3  1  0.53380410  0.96619590  0.25000000  1
  V  V4  1  0.96619590  0.25000000  0.53380410  1
  V  V5  1  0.25000000  0.53380410  0.96619590  1
  O  O0  1  0.49317259  0.85286674  0.74080610  1
  O  O1  1  0.85286674  0.74080610  0.49317259  1
  O  O2  1  0.74080610  0.49317259  0.85286674  1
  O  O3  1  0.64713326  0.00682741  0.75919390  1
  O  O4  1  0.00682741  0.75919390  0.64713326  1
  O  O5  1  0.75919390  0.64713326  0.00682741  1
  O  O6  1  0.50682741  0.14713326  0.25919390  1
  O  O7  1  0.14713326  0.25919390  0.50682741  1
  O  O8  1  0.25919390  0.50682741  0.14713326  1
  O  O9  1  0.35286674  0.99317259  0.24080610  1
  O  O10  1  0.99317259  0.24080610  0.35286674  1
  O  O11  1  0.24080610  0.35286674  0.99317259  1
  O  O12  1  0.57023203  0.78758772  0.43322657  1
  O  O13  1  0.78758772  0.43322657  0.57023203  1
  O  O14  1  0.43322657  0.57023203  0.78758772  1
  O  O15  1  0.71241228  0.92976797  0.06677343  1
  O  O16  1  0.92976797  0.06677343  0.71241228  1
  O  O17  1  0.06677343  0.71241228  0.92976797  1
  O  O18  1  0.42976797  0.21241228  0.56677343  1
  O  O19  1  0.21241228  0.56677343  0.42976797  1
  O  O20  1  0.56677343  0.42976797  0.21241228  1
  O  O21  1  0.28758772  0.07023203  0.93322657  1
  O  O22  1  0.07023203  0.93322657  0.28758772  1
  O  O23  1  0.93322657  0.28758772  0.07023203  1
loop_
_geom_bond_atom_site_label_1
_geom_bond_atom_site_label_2
_geom_bond_distance
_geom_bond_site_symmetry_2
O0 V0 1.712372 1_565
O0 Zr0 2.078270 1_555
O1 V1 1.712372 1_655
O1 Zr0 2.078270 1_555
O2 V2 1.712372 1_556
O2 Zr0 2.078270 1_555
O3 V0 1.712372 1_555
O3 Zr1 2.078269 1_545
O4 V1 1.712372 1_555
O4 Zr1 2.078270 1_455
O5 V2 1.712372 1_555
O5 Zr1 2.078270 1_554
O6 V3 1.712372 1_545
O6 Zr2 2.078270 1_555
O7 V4 1.712372 1_455
O7 Zr2 2.078270 1_555
O8 V5 1.712372 1_554
O8 Zr2 2.078270 1_555
O9 V3 1.712372 1_555
O9 Zr3 2.078269 1_565
O10 V4 1.712372 1_555
O10 Zr3 2.078270 1_655
O11 V5 1.712372 1_555
O11 Zr3 2.078270 1_556
O12 V3 1.715276 1_555
O12 Zr0 2.094089 1_555
O12 Rb0 2.950553 1_555
O13 V4 1.715276 1_555
O13 Zr0 2.094089 1_555
O13 Rb0 2.950553 1_555
O14 V5 1.715276 1_555
O14 Zr0 2.094089 1_555
O14 Rb0 2.950553 1_555
O15 V3 1.715276 1_555
O15 Zr1 2.094089 1_554
O15 Rb1 2.950553 1_665
O16 V4 1.715276 1_555
O16 Zr1 2.094089 1_545
O16 Rb1 2.950553 1_656
O17 V5 1.715276 1_555
O17 Zr1 2.094088 1_455
O17 Rb1 2.950553 1_566
O18 V0 1.715276 1_555
O18 Zr2 2.094089 1_555
O18 Rb0 2.950553 1_555
O19 V1 1.715276 1_555
O19 Zr2 2.094089 1_555
O19 Rb0 2.950553 1_555
O20 V2 1.715276 1_555
O20 Zr2 2.094089 1_555
O20 Rb0 2.950553 1_555
O21 V0 1.715276 1_555
O21 Zr3 2.094089 1_556
O21 Rb1 2.950553 1_556
O22 V1 1.715276 1_555
O22 Zr3 2.094089 1_565
O22 Rb1 2.950553 1_565
O23 V2 1.715276 1_555
O23 Zr3 2.094088 1_655
O23 Rb1 2.950553 1_655
