# generated using pymatgen
data_AgHg(PtO3)2
_symmetry_space_group_name_H-M   'P 1'
_cell_length_a   6.50277815
_cell_length_b   6.50277822
_cell_length_c   3.14068260
_cell_angle_alpha   90.00000000
_cell_angle_beta   90.00000000
_cell_angle_gamma   111.14441260
_symmetry_Int_Tables_number   1
_chemical_formula_structural   AgHg(PtO3)2
_chemical_formula_sum   'Ag1 Hg1 Pt2 O6'
_cell_volume   123.86593735
_cell_formula_units_Z   1
loop_
 _symmetry_equiv_pos_site_id
 _symmetry_equiv_pos_as_xyz
  1  'x, y, z'
loop_
 _atom_site_type_symbol
 _atom_site_label
 _atom_site_symmetry_multiplicity
 _atom_site_fract_x
 _atom_site_fract_y
 _atom_site_fract_z
 _atom_site_occupancy
  Ag  Ag0  1  0.00000000  0.00000000  0.00000000  1
  Hg  Hg0  1  0.50000000  0.50000000  0.00000000  1
  Pt  Pt0  1  0.49999900  0.00000000  0.50000000  1
  Pt  Pt1  1  0.00000000  0.49999900  0.50000000  1
  O  O0  1  0.34510315  0.07567747  0.00000000  1
  O  O1  1  0.07567747  0.34510315  0.00000000  1
  O  O2  1  0.92432353  0.65489785  0.00000000  1
  O  O3  1  0.65489785  0.92432353  0.00000000  1
  O  O4  1  0.67203063  0.32797037  0.50000000  1
  O  O5  1  0.32797037  0.67203063  0.50000000  1
loop_
_geom_bond_atom_site_label_1
_geom_bond_atom_site_label_2
_geom_bond_distance
_geom_bond_site_symmetry_2
Ag0 O3 2.116964 1_445
Ag0 O2 2.116964 1_445
Ag0 O0 2.116969 1_555
Ag0 O1 2.116969 1_555
Hg0 O4 2.423152 1_554
Hg0 O4 2.423152 1_555
Hg0 O5 2.423152 1_555
Hg0 O5 2.423152 1_554
Hg0 O1 2.573533 1_555
Hg0 O0 2.573533 1_555
Hg0 O2 2.573539 1_555
Hg0 O3 2.573539 1_555
O0 Pt0 2.019978 1_555
O0 Pt0 2.019978 1_554
O1 Pt1 2.019978 1_555
O1 Pt1 2.019978 1_554
O2 Pt1 2.019987 1_654
O2 Pt1 2.019987 1_655
O3 Pt0 2.019987 1_565
O3 Pt0 2.019987 1_564
O4 Pt1 2.019571 1_655
O4 Pt0 2.019580 1_555
O5 Pt0 2.019571 1_565
O5 Pt1 2.019580 1_555
