# generated using pymatgen
data_Rb2BeI4
_symmetry_space_group_name_H-M   'P 1'
_cell_length_a   8.05360090
_cell_length_b   7.63146759
_cell_length_c   10.29418624
_cell_angle_alpha   71.09651039
_cell_angle_beta   90.00000000
_cell_angle_gamma   90.00000000
_symmetry_Int_Tables_number   1
_chemical_formula_structural   Rb2BeI4
_chemical_formula_sum   'Rb4 Be2 I8'
_cell_volume   598.56518604
_cell_formula_units_Z   2
loop_
 _symmetry_equiv_pos_site_id
 _symmetry_equiv_pos_as_xyz
  1  'x, y, z'
loop_
 _atom_site_type_symbol
 _atom_site_label
 _atom_site_symmetry_multiplicity
 _atom_site_fract_x
 _atom_site_fract_y
 _atom_site_fract_z
 _atom_site_occupancy
  Rb  Rb0  1  0.25000000  0.69932291  0.96275031  1
  Rb  Rb1  1  0.75000000  0.30067709  0.03724969  1
  Rb  Rb2  1  0.75000000  0.19884236  0.58496647  1
  Rb  Rb3  1  0.25000000  0.80115764  0.41503353  1
  Be  Be0  1  0.75000000  0.69300041  0.21436421  1
  Be  Be1  1  0.25000000  0.30699959  0.78563579  1
  I  I0  1  0.25000000  0.14852409  0.03402556  1
  I  I1  1  0.75000000  0.85147591  0.96597444  1
  I  I2  1  0.25000000  0.09464080  0.65244700  1
  I  I3  1  0.75000000  0.90535920  0.34755300  1
  I  I4  1  0.00702712  0.50618525  0.72473329  1
  I  I5  1  0.50702712  0.49381475  0.27526671  1
  I  I6  1  0.99297288  0.49381475  0.27526671  1
  I  I7  1  0.49297288  0.50618525  0.72473329  1
loop_
_geom_bond_atom_site_label_1
_geom_bond_atom_site_label_2
_geom_bond_distance
_geom_bond_site_symmetry_2
Be0 I6 2.432137 1_555
Be0 I5 2.432137 1_555
Be0 I3 2.438428 1_555
Be0 I1 2.448883 1_554
Be1 I7 2.432137 1_555
Be1 I4 2.432137 1_555
Be1 I2 2.438428 1_555
Be1 I0 2.448883 1_556
I0 Rb0 3.730914 1_544
I0 Rb3 3.959014 1_545
I0 Rb0 4.025989 1_554
I0 Rb1 4.193980 1_555
I0 Rb1 4.193980 1_455
I1 Rb1 3.730914 1_566
I1 Rb2 3.959014 1_565
I1 Rb1 4.025989 1_556
I1 Rb0 4.193980 1_655
I1 Rb0 4.193980 1_555
I2 Rb0 3.613991 1_545
I2 Rb3 3.812619 1_545
I2 Rb2 4.119721 1_555
I2 Rb2 4.119721 1_455
I3 Rb1 3.613991 1_565
I3 Rb2 3.812619 1_565
I3 Rb3 4.119721 1_655
I3 Rb3 4.119721 1_555
I4 Rb1 3.718207 1_456
I4 Rb2 3.747378 1_455
I4 Rb0 3.787478 1_555
I4 Rb3 3.796094 1_555
I5 Rb0 3.718207 1_554
I5 Rb3 3.747378 1_555
I5 Rb1 3.787478 1_555
I5 Rb2 3.796094 1_555
I6 Rb0 3.718207 1_654
I6 Rb3 3.747378 1_655
I6 Rb1 3.787478 1_555
I6 Rb2 3.796094 1_555
I7 Rb1 3.718207 1_556
I7 Rb2 3.747378 1_555
I7 Rb0 3.787478 1_555
I7 Rb3 3.796094 1_555
