# generated using pymatgen
data_K3Cu2AgP2
_symmetry_space_group_name_H-M   'P 1'
_cell_length_a   7.47935647
_cell_length_b   7.52239894
_cell_length_c   7.52239883
_cell_angle_alpha   44.13572635
_cell_angle_beta   45.58702625
_cell_angle_gamma   45.58702730
_symmetry_Int_Tables_number   1
_chemical_formula_structural   K3Cu2AgP2
_chemical_formula_sum   'K3 Cu2 Ag1 P2'
_cell_volume   193.20575654
_cell_formula_units_Z   1
loop_
 _symmetry_equiv_pos_site_id
 _symmetry_equiv_pos_as_xyz
  1  'x, y, z'
loop_
 _atom_site_type_symbol
 _atom_site_label
 _atom_site_symmetry_multiplicity
 _atom_site_fract_x
 _atom_site_fract_y
 _atom_site_fract_z
 _atom_site_occupancy
  K  K0  1  0.91737569  0.90249994  0.90249994  1
  K  K1  1  0.50000000  0.50000000  0.50000000  1
  K  K2  1  0.08262431  0.09750006  0.09750006  1
  Cu  Cu0  1  0.50000000  0.50000000  0.00000000  1
  Cu  Cu1  1  0.50000000  0.00000000  0.50000000  1
  Ag  Ag0  1  0.00000000  0.50000000  0.50000000  1
  P  P0  1  0.28350626  0.23993888  0.23993888  1
  P  P1  1  0.71649374  0.76006112  0.76006112  1
loop_
_geom_bond_atom_site_label_1
_geom_bond_atom_site_label_2
_geom_bond_distance
_geom_bond_site_symmetry_2
K0 P1 3.272305 1_555
K0 P0 3.305178 1_566
K0 P0 3.354033 1_665
K0 P0 3.354033 1_656
K0 K1 3.629219 1_556
K0 K1 3.629219 1_565
K0 K1 3.680859 1_655
K1 K2 3.629219 1_556
K1 K2 3.629219 1_565
K1 K2 3.680859 1_655
K1 P0 3.690483 1_556
K1 P1 3.690483 1_554
K1 P0 3.690483 1_565
K1 P1 3.690483 1_545
K2 P0 3.272305 1_555
K2 P1 3.305178 1_544
K2 P1 3.354033 1_445
K2 P1 3.354033 1_454
Cu0 P1 2.231927 1_554
Cu0 P0 2.231927 1_555
Cu0 K2 3.393135 1_655
Cu0 K0 3.393135 1_454
Cu0 K2 3.517599 1_565
Cu0 K0 3.517599 1_544
Cu0 K1 3.761199 1_555
Cu0 K1 3.761199 1_554
Cu1 P1 2.231927 1_545
Cu1 P0 2.231927 1_555
Cu1 K2 3.393135 1_655
Cu1 K0 3.393135 1_445
Cu1 K2 3.517599 1_556
Cu1 K0 3.517599 1_544
Cu1 K1 3.761199 1_555
Cu1 K1 3.761199 1_545
Ag0 P1 2.455937 1_455
Ag0 P0 2.455937 1_555
Ag0 Cu0 2.905992 1_555
Ag0 Cu0 2.905992 1_456
Ag0 Cu1 2.905992 1_555
Ag0 Cu1 2.905992 1_465
Ag0 K2 3.389107 1_556
Ag0 K0 3.389107 1_454
Ag0 K2 3.389108 1_565
Ag0 K0 3.389108 1_445
Ag0 K1 3.739678 1_555
Ag0 K1 3.739678 1_455
