# generated using pymatgen
data_SrRu2F12
_symmetry_space_group_name_H-M   'P 1'
_cell_length_a   5.22515344
_cell_length_b   5.20544062
_cell_length_c   9.82117095
_cell_angle_alpha   96.42959288
_cell_angle_beta   95.44326936
_cell_angle_gamma   118.76809424
_symmetry_Int_Tables_number   1
_chemical_formula_structural   SrRu2F12
_chemical_formula_sum   'Sr1 Ru2 F12'
_cell_volume   229.26706109
_cell_formula_units_Z   1
loop_
 _symmetry_equiv_pos_site_id
 _symmetry_equiv_pos_as_xyz
  1  'x, y, z'
loop_
 _atom_site_type_symbol
 _atom_site_label
 _atom_site_symmetry_multiplicity
 _atom_site_fract_x
 _atom_site_fract_y
 _atom_site_fract_z
 _atom_site_occupancy
  Sr  Sr0  1  0.95908791  0.93786154  0.86618826  1
  Ru  Ru0  1  0.20820171  0.50132153  0.59247403  1
  Ru  Ru1  1  0.39037301  0.69489388  0.13790089  1
  F  F0  1  0.39168288  0.00938629  0.24218676  1
  F  F1  1  0.52488950  0.51758007  0.71819698  1
  F  F2  1  0.04975024  0.62687529  0.00999195  1
  F  F3  1  0.14189099  0.42210968  0.23410856  1
  F  F4  1  0.38044212  0.37601252  0.01253241  1
  F  F5  1  0.15816812  0.16321384  0.48704823  1
  F  F6  1  0.72679760  0.75203881  0.24341808  1
  F  F7  1  0.26819534  0.84418131  0.71990486  1
  F  F8  1  0.89519760  0.49325389  0.48761086  1
  F  F9  1  0.94883053  0.26741743  0.71152062  1
  F  F10  1  0.48056309  0.75035720  0.49625056  1
  F  F11  1  0.62392638  0.95349872  0.01866396  1
loop_
_geom_bond_atom_site_label_1
_geom_bond_atom_site_label_2
_geom_bond_distance
_geom_bond_site_symmetry_2
F0 Ru1 1.827955 1_545
F1 Ru0 1.929792 1_555
F1 Sr0 2.435313 1_555
F2 Ru1 1.934114 1_555
F2 Sr0 2.441905 1_454
F3 Ru1 1.831256 1_555
F4 Ru1 1.929059 1_555
F4 Sr0 2.438662 1_444
F5 Ru0 1.826373 1_555
F6 Ru1 1.826076 1_555
F7 Ru0 1.933044 1_555
F7 Sr0 2.439655 1_455
F8 Ru0 1.828087 1_655
F9 Ru0 1.928037 1_655
F9 Sr0 2.431016 1_545
F10 Ru0 1.831028 1_555
F11 Ru1 1.927613 1_555
F11 Sr0 2.433825 1_554
