# generated using pymatgen
data_K3Ga2Pt7
_symmetry_space_group_name_H-M   'P 1'
_cell_length_a   8.95296947
_cell_length_b   8.95297038
_cell_length_c   8.95296930
_cell_angle_alpha   36.71310559
_cell_angle_beta   36.71310953
_cell_angle_gamma   36.71311202
_symmetry_Int_Tables_number   1
_chemical_formula_structural   K3Ga2Pt7
_chemical_formula_sum   'K3 Ga2 Pt7'
_cell_volume   229.67733189
_cell_formula_units_Z   1
loop_
 _symmetry_equiv_pos_site_id
 _symmetry_equiv_pos_as_xyz
  1  'x, y, z'
loop_
 _atom_site_type_symbol
 _atom_site_label
 _atom_site_symmetry_multiplicity
 _atom_site_fract_x
 _atom_site_fract_y
 _atom_site_fract_z
 _atom_site_occupancy
  K  K0  1  0.35915887  0.35915887  0.35915887  1
  K  K1  1  0.50000000  0.50000000  0.50000000  1
  K  K2  1  0.64084013  0.64084013  0.64084013  1
  Ga  Ga0  1  0.16625223  0.16625223  0.16625223  1
  Ga  Ga1  1  0.83374777  0.83374777  0.83374777  1
  Pt  Pt0  1  0.00000000  0.00000000  0.00000000  1
  Pt  Pt1  1  0.57652117  0.07708639  0.07708739  1
  Pt  Pt2  1  0.07708639  0.57652117  0.07708739  1
  Pt  Pt3  1  0.92291361  0.92291361  0.42347783  1
  Pt  Pt4  1  0.07708639  0.07708639  0.57652217  1
  Pt  Pt5  1  0.92291361  0.42347883  0.92291261  1
  Pt  Pt6  1  0.42347883  0.92291361  0.92291261  1
loop_
_geom_bond_atom_site_label_1
_geom_bond_atom_site_label_2
_geom_bond_distance
_geom_bond_site_symmetry_2
K0 Pt6 3.241820 1_545
K0 Pt5 3.241820 1_455
K0 Pt3 3.241822 1_545
K0 Pt3 3.241823 1_455
K0 Pt5 3.241825 1_554
K0 Pt6 3.241825 1_554
K0 Pt2 3.317918 1_555
K0 Pt1 3.317918 1_555
K0 Pt4 3.317920 1_555
K0 Pt0 3.319241 1_556
K0 Pt0 3.319241 1_565
K0 Pt0 3.319242 1_655
K0 K2 3.502853 1_554
K0 K2 3.502853 1_455
K0 K2 3.502853 1_545
K0 K1 3.523851 1_555
K1 Pt2 3.413450 1_655
K1 Pt5 3.413450 1_455
K1 Pt6 3.413450 1_545
K1 Pt1 3.413450 1_565
K1 Pt4 3.413453 1_655
K1 Pt3 3.413453 1_455
K1 Pt4 3.413453 1_565
K1 Pt3 3.413453 1_545
K1 Pt6 3.413454 1_554
K1 Pt1 3.413454 1_556
K1 Pt2 3.413455 1_556
K1 Pt5 3.413455 1_554
K1 K2 3.523826 1_555
K2 Pt1 3.241807 1_565
K2 Pt2 3.241808 1_655
K2 Pt4 3.241810 1_565
K2 Pt4 3.241811 1_655
K2 Pt2 3.241813 1_556
K2 Pt1 3.241813 1_556
K2 Pt5 3.317939 1_555
K2 Pt6 3.317940 1_555
K2 Pt3 3.317942 1_555
K2 Pt0 3.319246 1_665
K2 Pt0 3.319246 1_656
K2 Pt0 3.319246 1_566
Ga0 Pt3 2.513548 1_445
Ga0 Pt5 2.513551 1_454
Ga0 Pt6 2.513551 1_544
Ga0 Pt1 2.527004 1_555
Ga0 Pt2 2.527004 1_555
Ga0 Pt4 2.527007 1_555
Ga0 K1 3.255756 1_554
Ga0 K1 3.255757 1_545
Ga0 K1 3.255757 1_455
Ga1 Pt4 2.513548 1_665
Ga1 Pt2 2.513551 1_656
Ga1 Pt1 2.513551 1_566
Ga1 Pt6 2.527004 1_555
Ga1 Pt5 2.527004 1_555
Ga1 Pt3 2.527007 1_555
Ga1 K1 3.255756 1_556
Ga1 K1 3.255757 1_565
Ga1 K1 3.255757 1_655
Pt0 Pt3 2.774977 1_445
Pt0 Pt4 2.774977 1_554
Pt0 Pt1 2.774980 1_455
Pt0 Pt6 2.774980 1_544
Pt0 Pt5 2.774980 1_454
Pt0 Pt2 2.774980 1_545
Pt1 Pt4 2.816366 1_555
Pt1 Pt2 2.816367 1_555
Pt1 Pt4 2.822741 1_654
Pt1 Pt2 2.822741 1_645
Pt2 Pt4 2.816366 1_555
Pt2 Pt4 2.822741 1_564
Pt3 Pt5 2.816366 1_555
Pt3 Pt6 2.816366 1_555
Pt3 Pt5 2.822741 1_564
Pt3 Pt6 2.822741 1_654
Pt5 Pt6 2.816367 1_555
Pt5 Pt6 2.822741 1_645
