# generated using pymatgen
data_Zr10Sn5GeBi
_symmetry_space_group_name_H-M   'P 1'
_cell_length_a   5.88935770
_cell_length_b   8.63566764
_cell_length_c   8.62433963
_cell_angle_alpha   120.04347445
_cell_angle_beta   89.96304897
_cell_angle_gamma   90.07380017
_symmetry_Int_Tables_number   1
_chemical_formula_structural   Zr10Sn5GeBi
_chemical_formula_sum   'Zr10 Sn5 Ge1 Bi1'
_cell_volume   379.69034431
_cell_formula_units_Z   1
loop_
 _symmetry_equiv_pos_site_id
 _symmetry_equiv_pos_as_xyz
  1  'x, y, z'
loop_
 _atom_site_type_symbol
 _atom_site_label
 _atom_site_symmetry_multiplicity
 _atom_site_fract_x
 _atom_site_fract_y
 _atom_site_fract_z
 _atom_site_occupancy
  Zr  Zr0  1  0.49879035  0.33194290  0.66460720  1
  Zr  Zr1  1  0.49879035  0.66733670  0.33539280  1
  Zr  Zr2  1  0.00169892  0.66741155  0.33647401  1
  Zr  Zr3  1  0.00169892  0.33093754  0.66352599  1
  Zr  Zr4  1  0.75963569  0.25257939  1.00000000  1
  Zr  Zr5  1  0.75889900  0.74597239  0.74080462  1
  Zr  Zr6  1  0.75889900  0.00516677  0.25919538  1
  Zr  Zr7  1  0.24275117  0.74360956  1.00000000  1
  Zr  Zr8  1  0.24028893  0.25630780  0.25675907  1
  Zr  Zr9  1  0.24028893  0.99954972  0.74324093  1
  Sn  Sn0  1  0.74628819  0.39288560  0.39199504  1
  Sn  Sn1  1  0.74628819  0.00089056  0.60800496  1
  Sn  Sn2  1  0.25306794  0.38933514  0.00000000  1
  Sn  Sn3  1  0.25299494  0.60834390  0.60927668  1
  Sn  Sn4  1  0.25299494  0.99906722  0.39072332  1
  Ge  Ge0  1  0.49886975  0.99936326  1.00000000  1
  Bi  Bi0  1  0.74775480  0.60929899  1.00000000  1
loop_
_geom_bond_atom_site_label_1
_geom_bond_atom_site_label_2
_geom_bond_distance
_geom_bond_site_symmetry_2
Sn0 Zr6 2.947630 1_555
Sn0 Zr4 2.966767 1_554
Sn0 Zr1 3.024637 1_555
Sn0 Zr0 3.026849 1_555
Sn0 Zr5 3.027775 1_555
Sn0 Zr2 3.039532 1_655
Sn0 Zr3 3.048566 1_655
Sn0 Zr8 3.137313 1_655
Sn0 Zr8 3.201541 1_555
Sn1 Zr5 2.947622 1_545
Sn1 Zr4 2.966767 1_555
Sn1 Zr0 3.024630 1_555
Sn1 Zr1 3.026844 1_545
Sn1 Zr6 3.027772 1_555
Sn1 Zr3 3.039532 1_655
Sn1 Zr2 3.048565 1_645
Sn1 Zr9 3.137312 1_645
Sn1 Zr9 3.201539 1_545
Sn2 Zr9 2.962351 1_544
Sn2 Zr8 2.962358 1_555
Sn2 Zr0 3.044279 1_554
Sn2 Zr1 3.044281 1_555
Sn2 Zr7 3.060078 1_554
Sn2 Zr2 3.066759 1_555
Sn2 Zr3 3.066760 1_554
Sn2 Zr4 3.135394 1_454
Sn2 Zr4 3.210018 1_554
Sn3 Zr7 2.963400 1_555
Sn3 Zr9 2.974183 1_555
Sn3 Zr1 3.022082 1_555
Sn3 Zr0 3.028334 1_555
Sn3 Zr2 3.032165 1_555
Sn3 Zr8 3.039025 1_555
Sn3 Zr3 3.043077 1_555
Sn3 Zr5 3.133937 1_455
Sn3 Zr5 3.197140 1_555
Sn4 Zr7 2.963399 1_554
Sn4 Zr8 2.974175 1_565
Sn4 Zr0 3.022077 1_565
Sn4 Zr1 3.028327 1_555
Sn4 Zr3 3.032165 1_565
Sn4 Zr9 3.039021 1_555
Sn4 Zr2 3.043077 1_555
Sn4 Zr6 3.133935 1_465
Sn4 Zr6 3.197138 1_565
Ge0 Zr4 2.670482 1_565
Ge0 Zr7 2.672927 1_555
Ge0 Zr8 2.688963 1_566
Ge0 Zr9 2.688967 1_555
Ge0 Zr5 2.690111 1_555
Ge0 Zr6 2.690115 1_566
Bi0 Zr6 3.005942 1_566
Bi0 Zr5 3.005949 1_555
Bi0 Zr1 3.051663 1_556
Bi0 Zr0 3.051665 1_555
Bi0 Zr3 3.074877 1_655
Bi0 Zr2 3.074877 1_656
Bi0 Zr4 3.081397 1_555
Bi0 Zr7 3.136084 1_655
Bi0 Zr7 3.193699 1_555
