# generated using pymatgen
data_Y3B6IrRh7
_symmetry_space_group_name_H-M   'P 1'
_cell_length_a   9.90033035
_cell_length_b   9.07665776
_cell_length_c   5.52819342
_cell_angle_alpha   81.44418815
_cell_angle_beta   65.03974114
_cell_angle_gamma   33.51605779
_symmetry_Int_Tables_number   1
_chemical_formula_structural   Y3B6IrRh7
_chemical_formula_sum   'Y3 B6 Ir1 Rh7'
_cell_volume   227.30770895
_cell_formula_units_Z   1
loop_
 _symmetry_equiv_pos_site_id
 _symmetry_equiv_pos_as_xyz
  1  'x, y, z'
loop_
 _atom_site_type_symbol
 _atom_site_label
 _atom_site_symmetry_multiplicity
 _atom_site_fract_x
 _atom_site_fract_y
 _atom_site_fract_z
 _atom_site_occupancy
  Y  Y0  1  0.00000000  0.00000000  0.00000000  1
  Y  Y1  1  0.17988400  0.17988400  0.82011600  1
  Y  Y2  1  0.82011600  0.82011600  0.17988400  1
  B  B0  1  0.82392429  0.52408399  0.48020409  1
  B  B1  1  0.17178664  0.48020409  0.52408399  1
  B  B2  1  0.48020409  0.17178664  0.82392429  1
  B  B3  1  0.66958548  0.33041452  0.66958548  1
  B  B4  1  0.52408399  0.82392429  0.17178664  1
  B  B5  1  0.33041452  0.66958548  0.33041452  1
  Ir  Ir0  1  0.75000000  0.75000000  0.75000000  1
  Rh  Rh0  1  0.41459213  0.41459213  0.58540787  1
  Rh  Rh1  1  0.58525752  0.58525752  0.91474248  1
  Rh  Rh2  1  0.08585317  0.08585317  0.41414683  1
  Rh  Rh3  1  0.91474248  0.91474248  0.58525752  1
  Rh  Rh4  1  0.58540787  0.58540787  0.41459213  1
  Rh  Rh5  1  0.25000000  0.25000000  0.25000000  1
  Rh  Rh6  1  0.41414683  0.41414683  0.08585317  1
loop_
_geom_bond_atom_site_label_1
_geom_bond_atom_site_label_2
_geom_bond_distance
_geom_bond_site_symmetry_2
Y0 Y1 3.114034 1_554
Y0 Y2 3.114034 1_445
B0 Ir0 2.109800 1_555
B0 Rh4 2.118648 1_555
B0 Rh5 2.124918 1_655
B0 Rh1 2.254055 1_555
B0 Rh2 2.261241 1_655
B0 Y2 2.921335 1_555
B0 Y1 3.089943 1_565
B0 Y1 3.110594 1_654
B1 Ir0 2.109792 1_455
B1 Rh0 2.118657 1_555
B1 Rh5 2.124911 1_555
B1 Rh3 2.254059 1_455
B1 Rh6 2.261244 1_555
B1 Y1 2.921330 1_555
B1 Y2 3.089945 1_456
B1 Y2 3.110596 1_545
B2 Ir0 2.109793 1_545
B2 Rh0 2.118654 1_555
B2 Rh5 2.124914 1_556
B2 Rh3 2.254059 1_545
B2 Rh6 2.261249 1_556
B2 Y1 2.921327 1_555
B2 Y2 3.089941 1_545
B2 Y2 3.110596 1_456
B3 Rh3 2.154531 1_545
B3 Rh1 2.154531 1_555
B3 Rh2 2.161608 1_655
B3 Rh6 2.161608 1_556
B3 Rh0 2.200663 1_555
B3 Rh4 2.200663 1_555
B3 Y0 3.175823 1_656
B3 Y0 3.181497 1_566
B3 Y0 3.181497 1_655
B4 Ir0 2.109796 1_554
B4 Rh4 2.118651 1_555
B4 Rh5 2.124918 1_565
B4 Rh1 2.254052 1_554
B4 Rh2 2.261240 1_565
B4 Y2 2.921337 1_555
B4 Y1 3.089943 1_654
B4 Y1 3.110598 1_565
B5 Rh3 2.154531 1_455
B5 Rh1 2.154531 1_554
B5 Rh2 2.161608 1_565
B5 Rh6 2.161608 1_555
B5 Rh4 2.200663 1_555
B5 Rh0 2.200663 1_555
B5 Y0 3.175823 1_565
B5 Y0 3.181497 1_655
B5 Y0 3.181497 1_566
Ir0 Y1 3.018865 1_565
Ir0 Y2 3.018865 1_555
Ir0 Y1 3.018865 1_655
Ir0 Y2 3.018865 1_556
Rh0 Y0 3.106618 1_655
Rh0 Y0 3.106619 1_566
Rh0 Y2 3.184326 1_456
Rh0 Y2 3.184326 1_545
Rh1 Y0 3.133461 1_566
Rh1 Y0 3.133461 1_656
Rh1 Y1 3.213042 1_655
Rh1 Y1 3.213042 1_565
Rh2 Y0 3.138331 1_556
Rh2 Y0 3.138331 1_555
Rh2 Y1 3.207797 1_554
Rh2 Y1 3.207798 1_555
Rh3 Y0 3.133461 1_665
Rh3 Y0 3.133461 1_666
Rh3 Y2 3.213042 1_556
Rh3 Y2 3.213042 1_555
Rh4 Y0 3.106618 1_566
Rh4 Y0 3.106619 1_655
Rh4 Y1 3.184326 1_654
Rh4 Y1 3.184326 1_565
Rh5 Y2 3.018865 1_545
Rh5 Y1 3.018865 1_555
Rh5 Y2 3.018865 1_455
Rh5 Y1 3.018865 1_554
Rh6 Y0 3.138331 1_655
Rh6 Y0 3.138331 1_565
Rh6 Y2 3.207797 1_455
Rh6 Y2 3.207797 1_545
