# generated using pymatgen
data_B4Ir3Pd4Pt
_symmetry_space_group_name_H-M   'P 1'
_cell_length_a   6.72813495
_cell_length_b   6.12553609
_cell_length_c   5.52510750
_cell_angle_alpha   70.69046311
_cell_angle_beta   58.87456747
_cell_angle_gamma   50.46799248
_symmetry_Int_Tables_number   1
_chemical_formula_structural   B4Ir3Pd4Pt
_chemical_formula_sum   'B4 Ir3 Pd4 Pt1'
_cell_volume   150.34085620
_cell_formula_units_Z   1
loop_
 _symmetry_equiv_pos_site_id
 _symmetry_equiv_pos_as_xyz
  1  'x, y, z'
loop_
 _atom_site_type_symbol
 _atom_site_label
 _atom_site_symmetry_multiplicity
 _atom_site_fract_x
 _atom_site_fract_y
 _atom_site_fract_z
 _atom_site_occupancy
  B  B0  1  0.04908887  0.99206606  0.56170598  1
  B  B1  1  0.67623645  0.85343991  0.20453838  1
  B  B2  1  0.42199235  0.55618714  0.97785868  1
  B  B3  1  0.27672423  0.18542437  0.85004700  1
  Ir  Ir0  1  0.38045614  0.85328753  0.15141255  1
  Ir  Ir1  1  0.61816383  0.14679175  0.85769732  1
  Ir  Ir2  1  0.39489585  0.86511048  0.63783956  1
  Pd  Pd0  1  0.93607724  0.79790435  0.38615818  1
  Pd  Pd1  1  0.45160664  0.30951196  0.37393487  1
  Pd  Pd2  1  0.85961997  0.36953029  0.29850064  1
  Pd  Pd3  1  0.88755646  0.38618088  0.77483958  1
  Pt  Pt0  1  0.10278197  0.62936428  0.87026425  1
loop_
_geom_bond_atom_site_label_1
_geom_bond_atom_site_label_2
_geom_bond_distance
_geom_bond_site_symmetry_2
B0 Ir0 2.113978 1_555
B0 Ir1 2.145661 1_465
B0 Ir2 2.164962 1_555
B0 Pd2 2.242003 1_465
B0 Pt0 2.254565 1_555
B0 Pd0 2.368542 1_455
B0 Pd3 2.369178 1_465
B1 Ir2 2.139052 1_555
B1 Ir0 2.157057 1_555
B1 Ir1 2.157990 1_564
B1 Pt0 2.171041 1_654
B1 Pd0 2.238264 1_555
B1 Pd2 2.359453 1_555
B1 Pd1 2.420063 1_565
B2 Ir1 2.110283 1_555
B2 Ir0 2.130553 1_556
B2 Ir2 2.169619 1_555
B2 Pd1 2.234388 1_556
B2 Pt0 2.255008 1_555
B2 Pd3 2.267593 1_555
B2 Pd0 2.528195 1_456
B3 Ir2 2.104376 1_545
B3 Ir0 2.133601 1_546
B3 Ir1 2.176435 1_555
B3 Pt0 2.188934 1_555
B3 Pd3 2.286626 1_455
B3 Pd1 2.344864 1_555
B3 Pd2 2.432500 1_456
