# generated using pymatgen
data_Sr3Ta2NiO9
_symmetry_space_group_name_H-M   'P 1'
_cell_length_a   5.64226173
_cell_length_b   5.64226128
_cell_length_c   6.94880998
_cell_angle_alpha   90.00000000
_cell_angle_beta   90.00000000
_cell_angle_gamma   119.99998559
_symmetry_Int_Tables_number   1
_chemical_formula_structural   Sr3Ta2NiO9
_chemical_formula_sum   'Sr3 Ta2 Ni1 O9'
_cell_volume   191.57884579
_cell_formula_units_Z   1
loop_
 _symmetry_equiv_pos_site_id
 _symmetry_equiv_pos_as_xyz
  1  'x, y, z'
loop_
 _atom_site_type_symbol
 _atom_site_label
 _atom_site_symmetry_multiplicity
 _atom_site_fract_x
 _atom_site_fract_y
 _atom_site_fract_z
 _atom_site_occupancy
  Sr  Sr0  1  0.00000000  0.00000000  0.00000000  1
  Sr  Sr1  1  0.33333300  0.66666700  0.66003863  1
  Sr  Sr2  1  0.66666700  0.33333300  0.33996137  1
  Ta  Ta0  1  0.33333300  0.66666700  0.17907877  1
  Ta  Ta1  1  0.66666700  0.33333300  0.82092123  1
  Ni  Ni0  1  0.00000000  0.00000000  0.50000000  1
  O  O0  1  0.16837984  0.83162016  0.32845743  1
  O  O1  1  0.83162016  0.16837984  0.67154257  1
  O  O2  1  0.16837984  0.33675867  0.32845743  1
  O  O3  1  0.83162016  0.66324133  0.67154257  1
  O  O4  1  0.66324133  0.83162016  0.32845743  1
  O  O5  1  0.33675867  0.16837984  0.67154257  1
  O  O6  1  0.50000000  0.00000000  0.00000000  1
  O  O7  1  0.00000000  0.50000000  0.00000000  1
  O  O8  1  0.50000000  0.50000000  0.00000000  1
loop_
_geom_bond_atom_site_label_1
_geom_bond_atom_site_label_2
_geom_bond_distance
_geom_bond_site_symmetry_2
Ni0 O3 2.031904 1_445
Ni0 O2 2.031904 1_555
Ni0 O5 2.031904 1_555
Ni0 O4 2.031904 1_445
Ni0 O0 2.031908 1_545
Ni0 O1 2.031908 1_455
O0 Ta0 1.917318 1_555
O0 Sr1 2.812029 1_555
O0 Sr0 2.813724 1_565
O0 Sr2 2.822313 1_565
O0 Sr2 2.822313 1_455
O1 Ta1 1.917318 1_555
O1 Sr2 2.812029 1_555
O1 Sr0 2.813724 1_656
O1 Sr1 2.822313 1_545
O1 Sr1 2.822313 1_655
O2 Ta0 1.917327 1_555
O2 Sr1 2.812035 1_555
O2 Sr0 2.813721 1_555
O2 Sr2 2.822313 1_555
O2 Sr2 2.822313 1_455
O3 Ta1 1.917327 1_555
O3 Sr2 2.812035 1_555
O3 Sr0 2.813721 1_666
O3 Sr1 2.822313 1_555
O3 Sr1 2.822313 1_655
O4 Ta0 1.917327 1_555
O4 Sr1 2.812035 1_555
O4 Sr0 2.813721 1_665
O4 Sr2 2.822313 1_555
O4 Sr2 2.822313 1_565
O5 Ta1 1.917327 1_555
O5 Sr2 2.812035 1_555
O5 Sr0 2.813721 1_556
O5 Sr1 2.822313 1_555
O5 Sr1 2.822313 1_545
O6 Ta1 2.049735 1_554
O6 Ta0 2.049735 1_545
O6 Sr0 2.821131 1_555
O6 Sr0 2.821131 1_655
O6 Sr2 2.869409 1_555
O6 Sr1 2.869409 1_544
O7 Ta1 2.049735 1_454
O7 Ta0 2.049735 1_555
O7 Sr0 2.821131 1_565
O7 Sr0 2.821131 1_555
O7 Sr2 2.869409 1_455
O7 Sr1 2.869409 1_554
O8 Ta1 2.049739 1_554
O8 Ta0 2.049739 1_555
O8 Sr0 2.821131 1_555
O8 Sr0 2.821131 1_665
O8 Sr2 2.869412 1_555
O8 Sr1 2.869412 1_554
