# generated using pymatgen
data_Ti4Co4SiP3
_symmetry_space_group_name_H-M   'P 1'
_cell_length_a   3.55717185
_cell_length_b   6.03652713
_cell_length_c   6.81042951
_cell_angle_alpha   90.00031075
_cell_angle_beta   90.00000000
_cell_angle_gamma   90.00000000
_symmetry_Int_Tables_number   1
_chemical_formula_structural   Ti4Co4SiP3
_chemical_formula_sum   'Ti4 Co4 Si1 P3'
_cell_volume   146.24011003
_cell_formula_units_Z   1
loop_
 _symmetry_equiv_pos_site_id
 _symmetry_equiv_pos_as_xyz
  1  'x, y, z'
loop_
 _atom_site_type_symbol
 _atom_site_label
 _atom_site_symmetry_multiplicity
 _atom_site_fract_x
 _atom_site_fract_y
 _atom_site_fract_z
 _atom_site_occupancy
  Ti  Ti0  1  0.25000000  0.97913774  0.32020722  1
  Ti  Ti1  1  0.25000000  0.47944560  0.18211442  1
  Ti  Ti2  1  0.75000000  0.02014344  0.67719472  1
  Ti  Ti3  1  0.75000000  0.52585707  0.81947974  1
  Co  Co0  1  0.25000000  0.85482280  0.93870125  1
  Co  Co1  1  0.25000000  0.36230503  0.55798527  1
  Co  Co2  1  0.75000000  0.13736629  0.06705137  1
  Co  Co3  1  0.75000000  0.64109068  0.43640679  1
  Si  Si0  1  0.25000000  0.22927243  0.88063266  1
  P  P0  1  0.25000000  0.73059757  0.61965967  1
  P  P1  1  0.75000000  0.77061426  0.11995914  1
  P  P2  1  0.75000000  0.26934608  0.38060873  1
loop_
_geom_bond_atom_site_label_1
_geom_bond_atom_site_label_2
_geom_bond_distance
_geom_bond_site_symmetry_2
Co0 P1 2.223876 1_456
Co0 P1 2.223876 1_556
Co0 Si0 2.294712 1_565
Co0 P0 2.298569 1_555
Co0 Co2 2.614660 1_566
Co0 Co2 2.614660 1_466
Co0 Ti0 2.704417 1_556
Co0 Ti2 2.707615 1_465
Co0 Ti2 2.707615 1_565
Co0 Ti3 2.786764 1_455
Co0 Ti3 2.786764 1_555
Co0 Ti1 2.807634 1_556
Co1 P2 2.222057 1_555
Co1 P2 2.222057 1_455
Co1 P0 2.262536 1_555
Co1 Si0 2.339517 1_555
Co1 Ti1 2.655717 1_555
Co1 Ti3 2.703637 1_555
Co1 Ti3 2.703637 1_455
Co1 Ti0 2.823524 1_545
Co1 Ti2 2.844059 1_555
Co1 Ti2 2.844059 1_455
Co2 P1 2.243041 1_545
Co2 Si0 2.254559 1_554
Co2 Si0 2.254559 1_654
Co2 P2 2.279233 1_555
Co2 Ti0 2.654848 1_645
Co2 Ti0 2.654848 1_545
Co2 Ti2 2.747765 1_554
Co2 Ti1 2.835759 1_555
Co2 Ti1 2.835759 1_655
Co2 Ti3 2.888344 1_554
Co3 P0 2.238946 1_555
Co3 P0 2.238946 1_655
Co3 P2 2.275992 1_555
Co3 P1 2.292595 1_555
Co3 Ti1 2.667350 1_555
Co3 Ti1 2.667350 1_655
Co3 Ti3 2.700039 1_555
Co3 Ti2 2.815105 1_565
Co3 Ti0 2.820252 1_555
Co3 Ti0 2.820252 1_655
Si0 Ti1 2.548787 1_556
Si0 Ti3 2.557763 1_455
Si0 Ti3 2.557763 1_555
Si0 Ti2 2.583920 1_555
Si0 Ti2 2.583920 1_455
P0 Ti2 2.524259 1_465
P0 Ti2 2.524259 1_565
P0 Ti0 2.531826 1_555
P0 Ti3 2.557896 1_455
P0 Ti3 2.557896 1_555
P1 Ti3 2.524015 1_554
P1 Ti1 2.536117 1_555
P1 Ti1 2.536117 1_655
P1 Ti0 2.570545 1_555
P1 Ti0 2.570545 1_655
P2 Ti2 2.518514 1_555
P2 Ti0 2.530130 1_545
P2 Ti0 2.530130 1_645
P2 Ti1 2.568919 1_655
P2 Ti1 2.568919 1_555
