# generated using pymatgen
data_HfTa3AlRe24
_symmetry_space_group_name_H-M   'P 1'
_cell_length_a   8.37022119
_cell_length_b   8.37022117
_cell_length_c   8.37022122
_cell_angle_alpha   109.53332289
_cell_angle_beta   109.53331930
_cell_angle_gamma   109.53331898
_symmetry_Int_Tables_number   1
_chemical_formula_structural   HfTa3AlRe24
_chemical_formula_sum   'Hf1 Ta3 Al1 Re24'
_cell_volume   450.38753099
_cell_formula_units_Z   1
loop_
 _symmetry_equiv_pos_site_id
 _symmetry_equiv_pos_as_xyz
  1  'x, y, z'
loop_
 _atom_site_type_symbol
 _atom_site_label
 _atom_site_symmetry_multiplicity
 _atom_site_fract_x
 _atom_site_fract_y
 _atom_site_fract_z
 _atom_site_occupancy
  Hf  Hf0  1  0.00255257  0.00255257  0.00255257  1
  Ta  Ta0  1  0.62905201  0.99819166  0.99819166  1
  Ta  Ta1  1  0.99819166  0.62905201  0.99819166  1
  Ta  Ta2  1  0.99819166  0.99819166  0.62905201  1
  Al  Al0  1  0.36493408  0.36493408  0.36493408  1
  Re  Re0  1  0.39961534  0.68562994  0.00468819  1
  Re  Re1  1  0.72334919  0.31881367  0.31881367  1
  Re  Re2  1  0.39961534  0.00468819  0.68562994  1
  Re  Re3  1  0.68562994  0.39961534  0.00468819  1
  Re  Re4  1  0.00468819  0.39961534  0.68562994  1
  Re  Re5  1  0.31881367  0.72334919  0.31881367  1
  Re  Re6  1  0.31881367  0.31881367  0.72334919  1
  Re  Re7  1  0.00468819  0.68562994  0.39961534  1
  Re  Re8  1  0.68562994  0.00468819  0.39961534  1
  Re  Re9  1  0.60115817  0.60115817  0.27997180  1
  Re  Re10  1  0.27997180  0.60115817  0.60115817  1
  Re  Re11  1  0.60115817  0.27997180  0.60115817  1
  Re  Re12  1  0.37644366  0.19399563  0.00396218  1
  Re  Re13  1  0.17741085  0.80156898  0.80156898  1
  Re  Re14  1  0.37644366  0.00396218  0.19399563  1
  Re  Re15  1  0.19399563  0.37644366  0.00396218  1
  Re  Re16  1  0.00396218  0.37644366  0.19399563  1
  Re  Re17  1  0.80156898  0.17741085  0.80156898  1
  Re  Re18  1  0.80156898  0.80156898  0.17741085  1
  Re  Re19  1  0.00396218  0.19399563  0.37644366  1
  Re  Re20  1  0.19399563  0.00396218  0.37644366  1
  Re  Re21  1  0.62034373  0.62034373  0.81390720  1
  Re  Re22  1  0.81390720  0.62034373  0.62034373  1
  Re  Re23  1  0.62034373  0.81390720  0.62034373  1
loop_
_geom_bond_atom_site_label_1
_geom_bond_atom_site_label_2
_geom_bond_distance
_geom_bond_site_symmetry_2
Hf0 Re16 2.995190 1_555
Hf0 Re19 2.995190 1_555
Hf0 Re14 2.995190 1_555
Hf0 Re15 2.995190 1_555
Hf0 Re12 2.995190 1_555
Hf0 Re20 2.995190 1_555
Hf0 Re13 3.033601 1_544
Hf0 Re17 3.033601 1_454
Hf0 Re18 3.033601 1_445
Hf0 Re22 3.059841 1_444
Hf0 Re21 3.059841 1_444
Hf0 Re23 3.059841 1_444
Hf0 Ta1 3.102063 1_444
Hf0 Ta0 3.102063 1_444
Hf0 Ta2 3.102063 1_444
Al0 Re10 2.755179 1_555
Al0 Re11 2.755179 1_555
Al0 Re9 2.755179 1_555
Al0 Re14 2.929397 1_555
Al0 Re12 2.929397 1_555
Al0 Re16 2.929398 1_555
Al0 Re20 2.929398 1_555
Al0 Re19 2.929398 1_555
Al0 Re15 2.929398 1_555
Al0 Hf0 3.023902 1_555
Al0 Re23 3.076072 1_555
Al0 Re21 3.076072 1_555
Al0 Re22 3.076072 1_555
Al0 Re1 3.278318 1_555
Al0 Re5 3.278318 1_555
Al0 Re6 3.278318 1_555
Re0 Re15 2.581411 1_555
Re0 Ta0 2.709387 1_554
Re0 Re14 2.715841 1_565
Re0 Re13 2.736278 1_554
Re0 Re9 2.818287 1_555
Re0 Re18 2.824390 1_555
Re0 Re6 2.853280 1_554
Re0 Re5 2.871784 1_555
Re0 Re8 2.884411 1_565
Re0 Re4 2.884411 1_554
Re0 Re21 2.885579 1_554
Re0 Re10 2.928965 1_554
Re0 Ta1 3.211450 1_454
Re1 Re22 2.548765 1_555
Re1 Ta0 2.716279 1_544
Re1 Re14 2.735162 1_555
Re1 Re12 2.735162 1_555
Re1 Re19 2.839250 1_655
Re1 Re16 2.839250 1_655
Re1 Re7 2.853280 1_655
Re1 Re4 2.853280 1_655
Re1 Re8 2.871784 1_555
Re1 Re3 2.871784 1_555
Re1 Re9 2.940177 1_555
Re1 Re11 2.940177 1_555
Re2 Re20 2.581411 1_555
Re2 Ta0 2.709387 1_545
Re2 Re5 2.853280 1_545
Re2 Re6 2.871784 1_555
Re2 Re3 2.884411 1_556
Re2 Re7 2.884411 1_545
Re2 Re23 2.885579 1_545
Re2 Ta2 3.211450 1_445
Re3 Ta1 2.709387 1_554
Re3 Re9 2.818287 1_555
Re3 Re6 2.853280 1_554
Re3 Re7 2.884411 1_655
Re3 Ta0 3.211450 1_544
Re4 Ta1 2.709387 1_455
Re4 Re6 2.871784 1_555
Re4 Re8 2.884411 1_455
Re4 Ta2 3.211450 1_445
Re5 Ta1 2.716280 1_454
Re5 Re8 2.853280 1_565
Re5 Re7 2.871784 1_555
Re5 Re9 2.940177 1_555
Re6 Ta2 2.716280 1_445
Re7 Ta2 2.709387 1_455
Re7 Re9 2.928965 1_455
Re7 Ta1 3.211450 1_454
Re8 Ta2 2.709387 1_545
Re8 Re9 2.928965 1_545
Re8 Ta0 3.211450 1_544
Re9 Ta2 3.202131 1_555
Re10 Re13 2.531616 1_555
Re10 Re21 2.724673 1_555
Re10 Re23 2.724673 1_555
Re10 Re7 2.818287 1_555
Re10 Re4 2.818287 1_555
Re10 Re19 2.834153 1_555
Re10 Re16 2.834153 1_555
Re10 Re2 2.928965 1_565
Re10 Re6 2.940177 1_555
Re10 Re5 2.940177 1_555
Re10 Ta0 3.202131 1_555
Re11 Re17 2.531616 1_555
Re11 Re21 2.724673 1_555
Re11 Re22 2.724673 1_555
Re11 Re8 2.818287 1_555
Re11 Re2 2.818287 1_555
Re11 Re14 2.834153 1_555
Re11 Re20 2.834153 1_555
Re11 Re3 2.928965 1_556
Re11 Re4 2.928965 1_655
Re11 Re6 2.940177 1_555
Re11 Ta1 3.202131 1_555
Re12 Re15 2.494749 1_555
Re12 Re3 2.581411 1_555
Re12 Re14 2.598470 1_555
Re12 Re13 2.677112 1_544
Re12 Re2 2.715841 1_554
Re12 Re9 2.834153 1_555
Re12 Re6 2.839250 1_554
Re12 Ta2 3.000759 1_444
Re12 Ta0 3.080858 1_544
Re13 Re22 2.479536 1_455
Re13 Re14 2.677112 1_566
Re13 Re2 2.736278 1_565
Re13 Re4 2.824390 1_555
Re13 Re7 2.824390 1_555
Re13 Ta2 2.972480 1_455
Re13 Ta1 2.972480 1_455
Re13 Ta0 3.094507 1_555
Re14 Re20 2.494749 1_555
Re14 Re8 2.581411 1_555
Re14 Re5 2.839250 1_545
Re14 Ta1 3.000759 1_444
Re14 Ta0 3.080858 1_544
Re15 Re16 2.598470 1_555
Re15 Re17 2.677112 1_454
Re15 Re4 2.715841 1_554
Re15 Re5 2.735161 1_555
Re15 Re9 2.834153 1_555
Re15 Re6 2.839250 1_554
Re15 Ta2 3.000759 1_444
Re15 Ta1 3.080858 1_454
Re16 Re19 2.494749 1_555
Re16 Re7 2.581411 1_555
Re16 Re17 2.677112 1_454
Re16 Re3 2.715841 1_455
Re16 Re5 2.735162 1_555
Re16 Ta0 3.000759 1_444
Re16 Ta1 3.080858 1_454
Re17 Re23 2.479536 1_545
Re17 Re3 2.736278 1_556
Re17 Re4 2.736278 1_655
Re17 Re8 2.824390 1_555
Re17 Re2 2.824390 1_555
Re17 Ta2 2.972480 1_545
Re17 Ta0 2.972480 1_545
Re17 Ta1 3.094507 1_555
Re18 Re21 2.479536 1_554
Re18 Re9 2.531616 1_555
Re18 Re19 2.677112 1_665
Re18 Re20 2.677112 1_665
Re18 Re8 2.736278 1_565
Re18 Re7 2.736278 1_655
Re18 Re3 2.824390 1_555
Re18 Ta1 2.972480 1_554
Re18 Ta0 2.972480 1_554
Re18 Ta2 3.094507 1_555
Re19 Re4 2.581411 1_555
Re19 Re20 2.598470 1_555
Re19 Re8 2.715841 1_455
Re19 Re6 2.735162 1_555
Re19 Ta0 3.000759 1_444
Re19 Ta2 3.080858 1_445
Re20 Re7 2.715841 1_545
Re20 Re6 2.735161 1_555
Re20 Re5 2.839250 1_545
Re20 Ta1 3.000759 1_444
Re20 Ta2 3.080858 1_445
Re21 Re6 2.548765 1_555
Re21 Re22 2.646738 1_555
Re21 Re23 2.646738 1_555
Re21 Re3 2.885579 1_556
Re21 Ta0 2.982535 1_555
Re21 Ta1 2.982535 1_555
Re22 Re23 2.646738 1_555
Re22 Re9 2.724673 1_555
Re22 Re4 2.885579 1_655
Re22 Re7 2.885579 1_655
Re22 Ta2 2.982535 1_555
Re22 Ta1 2.982535 1_555
Re23 Re5 2.548765 1_555
Re23 Re9 2.724673 1_555
Re23 Re8 2.885579 1_565
Re23 Ta0 2.982535 1_555
Re23 Ta2 2.982535 1_555
