# generated using pymatgen
data_Nd2USe4
_symmetry_space_group_name_H-M   'P 1'
_cell_length_a   7.69828792
_cell_length_b   7.69828792
_cell_length_c   7.69828792
_cell_angle_alpha   109.23708914
_cell_angle_beta   109.23708914
_cell_angle_gamma   109.94050530
_symmetry_Int_Tables_number   1
_chemical_formula_structural   Nd2USe4
_chemical_formula_sum   'Nd4 U2 Se8'
_cell_volume   351.18720683
_cell_formula_units_Z   2
loop_
 _symmetry_equiv_pos_site_id
 _symmetry_equiv_pos_as_xyz
  1  'x, y, z'
loop_
 _atom_site_type_symbol
 _atom_site_label
 _atom_site_symmetry_multiplicity
 _atom_site_fract_x
 _atom_site_fract_y
 _atom_site_fract_z
 _atom_site_occupancy
  Nd  Nd0  1  0.50212500  0.87500000  0.12712500  1
  Nd  Nd1  1  0.12500000  0.25212500  0.62712500  1
  Nd  Nd2  1  0.74787500  0.37500000  0.87287500  1
  Nd  Nd3  1  0.62500000  0.49787500  0.37287500  1
  U  U0  1  0.25000000  0.75000000  0.50000000  1
  U  U1  1  0.00000000  0.00000000  0.00000000  1
  Se  Se0  1  0.02947100  0.63071100  0.75163200  1
  Se  Se1  1  0.52783800  0.62907900  0.74836800  1
  Se  Se2  1  0.88071100  0.77947100  0.25163200  1
  Se  Se3  1  0.72216200  0.97052900  0.60124100  1
  Se  Se4  1  0.37092100  0.11928900  0.89875900  1
  Se  Se5  1  0.87907900  0.27783800  0.24836800  1
  Se  Se6  1  0.36928900  0.12092100  0.39875900  1
  Se  Se7  1  0.22052900  0.47216200  0.10124100  1
loop_
_geom_bond_atom_site_label_1
_geom_bond_atom_site_label_2
_geom_bond_distance
_geom_bond_site_symmetry_2
Nd0 Se5 3.013130 1_565
Nd0 Se7 3.013133 1_555
Nd0 Se6 3.020515 1_565
Nd0 Se1 3.020515 1_554
Nd0 Se0 3.154623 1_554
Nd0 Se4 3.154628 1_564
Nd0 Se2 3.168481 1_555
Nd0 Se3 3.168489 1_555
Nd1 Se1 3.013130 1_555
Nd1 Se3 3.013133 1_445
Nd1 Se5 3.020515 1_455
Nd1 Se4 3.020515 1_555
Nd1 Se2 3.154623 1_445
Nd1 Se6 3.154628 1_555
Nd1 Se0 3.168481 1_555
Nd1 Se7 3.168489 1_556
Nd2 Se4 3.013130 1_555
Nd2 Se0 3.013135 1_655
Nd2 Se2 3.020519 1_556
Nd2 Se3 3.020521 1_545
Nd2 Se7 3.154621 1_656
Nd2 Se5 3.154628 1_556
Nd2 Se1 3.168486 1_555
Nd2 Se6 3.168486 1_555
Nd3 Se6 3.013130 1_555
Nd3 Se2 3.013135 1_555
Nd3 Se0 3.020519 1_655
Nd3 Se7 3.020521 1_555
Nd3 Se3 3.154621 1_555
Nd3 Se1 3.154628 1_555
Nd3 Se5 3.168486 1_555
Nd3 Se4 3.168486 1_554
Se0 U1 2.988851 1_566
Se0 U0 3.123122 1_555
Se1 U0 2.988846 1_555
Se1 U1 3.123127 1_666
Se2 U0 2.988851 1_655
Se2 U1 3.123122 1_665
Se3 U1 2.988843 1_666
Se3 U0 3.123127 1_555
Se4 U0 2.988846 1_545
Se4 U1 3.123127 1_556
Se5 U1 2.988846 1_655
Se5 U0 3.123127 1_655
Se6 U1 2.988846 1_555
Se6 U0 3.123127 1_545
Se7 U0 2.988843 1_555
Se7 U1 3.123127 1_555
