# generated using pymatgen
data_Na12Ga8AgPt3
_symmetry_space_group_name_H-M   'P 1'
_cell_length_a   8.91564346
_cell_length_b   9.07159262
_cell_length_c   8.91564278
_cell_angle_alpha   60.56705265
_cell_angle_beta   59.99999183
_cell_angle_gamma   60.56705737
_symmetry_Int_Tables_number   1
_chemical_formula_structural   Na12Ga8AgPt3
_chemical_formula_sum   'Na12 Ga8 Ag1 Pt3'
_cell_volume   514.21355834
_cell_formula_units_Z   1
loop_
 _symmetry_equiv_pos_site_id
 _symmetry_equiv_pos_as_xyz
  1  'x, y, z'
loop_
 _atom_site_type_symbol
 _atom_site_label
 _atom_site_symmetry_multiplicity
 _atom_site_fract_x
 _atom_site_fract_y
 _atom_site_fract_z
 _atom_site_occupancy
  Na  Na0  1  0.04542416  0.45414599  0.04542416  1
  Na  Na1  1  0.79257687  0.21152983  0.20331643  1
  Na  Na2  1  0.20457584  0.79585401  0.79499432  1
  Na  Na3  1  0.79257687  0.21152983  0.79257687  1
  Na  Na4  1  0.20331643  0.21152983  0.79257687  1
  Na  Na5  1  0.79499432  0.79585401  0.20457584  1
  Na  Na6  1  0.04668357  0.03847017  0.45742313  1
  Na  Na7  1  0.45742313  0.03847017  0.04668357  1
  Na  Na8  1  0.04542416  0.45414599  0.45500568  1
  Na  Na9  1  0.45500568  0.45414599  0.04542416  1
  Na  Na10  1  0.20457584  0.79585401  0.20457584  1
  Na  Na11  1  0.45742313  0.03847017  0.45742313  1
  Ga  Ga0  1  0.83172102  0.81627974  0.83172102  1
  Ga  Ga1  1  0.72972379  0.43372026  0.41827898  1
  Ga  Ga2  1  0.42242045  0.73273965  0.42242045  1
  Ga  Ga3  1  0.41827898  0.43372026  0.72972379  1
  Ga  Ga4  1  0.82757955  0.51726035  0.82757955  1
  Ga  Ga5  1  0.83172102  0.81627974  0.52027621  1
  Ga  Ga6  1  0.52027621  0.81627974  0.83172102  1
  Ga  Ga7  1  0.41827898  0.43372026  0.41827898  1
  Ag  Ag0  1  0.62500000  0.12500000  0.62500000  1
  Pt  Pt0  1  0.62500000  0.62500000  0.62500000  1
  Pt  Pt1  1  0.12500000  0.62500000  0.62500000  1
  Pt  Pt2  1  0.62500000  0.62500000  0.12500000  1
loop_
_geom_bond_atom_site_label_1
_geom_bond_atom_site_label_2
_geom_bond_distance
_geom_bond_site_symmetry_2
Na0 Pt1 3.109235 1_554
Na0 Pt2 3.109235 1_455
Na1 Pt2 3.122518 1_555
Na2 Pt0 3.109235 1_555
Na2 Pt1 3.109235 1_555
Na3 Pt0 3.122518 1_555
Na4 Pt1 3.122518 1_555
Na5 Pt0 3.109235 1_555
Na5 Pt2 3.109235 1_555
Na6 Pt1 3.122518 1_545
Na7 Pt2 3.122518 1_545
Na8 Pt0 3.109235 1_455
Na8 Pt1 3.109235 1_555
Na9 Pt0 3.109235 1_554
Na9 Pt2 3.109235 1_555
Na10 Pt1 3.109235 1_555
Na10 Pt2 3.109235 1_555
Na11 Pt0 3.122518 1_545
Ga0 Pt2 2.666381 1_556
Ga0 Pt1 2.666381 1_655
Ga0 Ga4 2.749376 1_555
Ga0 Ga5 2.776731 1_555
Ga0 Ga6 2.776731 1_555
Ga0 Na0 3.062592 1_656
Ga0 Na5 3.091583 1_556
Ga0 Na2 3.091583 1_655
Ga0 Na6 3.108425 1_665
Ga0 Na7 3.108425 1_566
Ga0 Na3 3.280532 1_565
Ga1 Pt0 2.666376 1_555
Ga1 Pt2 2.666391 1_555
Ga1 Ga2 2.749380 1_555
Ga1 Ga3 2.776730 1_555
Ga1 Ga7 2.776731 1_555
Ga1 Na5 3.062585 1_555
Ga1 Na8 3.091566 1_655
Ga1 Na0 3.091576 1_655
Ga1 Na3 3.108418 1_555
Ga1 Na1 3.108433 1_555
Ga1 Na6 3.280525 1_655
Ga2 Pt0 2.696613 1_555
Ga2 Pt2 2.696620 1_555
Ga2 Pt1 2.696620 1_555
Ga2 Ga7 2.749376 1_555
Ga2 Ga3 2.749380 1_555
Ga2 Na2 3.075496 1_555
Ga2 Na5 3.075496 1_555
Ga2 Na10 3.075504 1_555
Ga2 Na11 3.112160 1_565
Ga2 Na7 3.112165 1_565
Ga2 Na6 3.112165 1_565
Ga3 Pt0 2.666376 1_555
Ga3 Pt1 2.666391 1_555
Ga3 Ga7 2.776731 1_555
Ga3 Na2 3.062585 1_555
Ga3 Na9 3.091566 1_556
Ga3 Na0 3.091576 1_556
Ga3 Na3 3.108418 1_555
Ga3 Na4 3.108433 1_555
Ga3 Na7 3.280525 1_556
Ga4 Pt0 2.696613 1_555
Ga4 Pt2 2.696620 1_556
Ga4 Pt1 2.696620 1_655
Ga4 Ga5 2.749380 1_555
Ga4 Ga6 2.749380 1_555
Ga4 Na8 3.075496 1_655
Ga4 Na9 3.075496 1_556
Ga4 Na0 3.075504 1_656
Ga4 Na3 3.112160 1_555
Ga4 Na1 3.112165 1_556
Ga4 Na4 3.112165 1_655
Ga5 Pt0 2.666376 1_555
Ga5 Pt1 2.666391 1_655
Ga5 Ga6 2.776730 1_555
Ga5 Na8 3.062585 1_655
Ga5 Na5 3.091566 1_555
Ga5 Na10 3.091576 1_655
Ga5 Na11 3.108418 1_565
Ga5 Na6 3.108433 1_665
Ga5 Na1 3.280525 1_565
Ga6 Pt0 2.666376 1_555
Ga6 Pt2 2.666391 1_556
Ga6 Na9 3.062585 1_556
Ga6 Na2 3.091566 1_555
Ga6 Na10 3.091576 1_556
Ga6 Na11 3.108418 1_565
Ga6 Na7 3.108433 1_566
Ga6 Na4 3.280525 1_565
Ga7 Pt2 2.666381 1_555
Ga7 Pt1 2.666381 1_555
Ga7 Na10 3.062592 1_555
Ga7 Na9 3.091583 1_555
Ga7 Na8 3.091583 1_555
Ga7 Na4 3.108425 1_555
Ga7 Na1 3.108425 1_555
Ga7 Na11 3.280532 1_555
Ag0 Ga0 2.808560 1_545
Ag0 Ga7 2.808560 1_555
Ag0 Ga1 2.808569 1_555
Ag0 Ga6 2.808569 1_545
Ag0 Ga3 2.808569 1_555
Ag0 Ga5 2.808569 1_545
Ag0 Na7 3.101291 1_556
Ag0 Na1 3.101291 1_555
Ag0 Na6 3.101291 1_655
Ag0 Na4 3.101291 1_555
Ag0 Na3 3.101292 1_555
Ag0 Na11 3.101292 1_555
