# generated using pymatgen
data_Zr10AlSn5O
_symmetry_space_group_name_H-M   'P 1'
_cell_length_a   8.42724580
_cell_length_b   8.43695069
_cell_length_c   5.74635235
_cell_angle_alpha   90.13483327
_cell_angle_beta   89.73002219
_cell_angle_gamma   119.96196393
_symmetry_Int_Tables_number   1
_chemical_formula_structural   Zr10AlSn5O
_chemical_formula_sum   'Zr10 Al1 Sn5 O1'
_cell_volume   353.96112093
_cell_formula_units_Z   1
loop_
 _symmetry_equiv_pos_site_id
 _symmetry_equiv_pos_as_xyz
  1  'x, y, z'
loop_
 _atom_site_type_symbol
 _atom_site_label
 _atom_site_symmetry_multiplicity
 _atom_site_fract_x
 _atom_site_fract_y
 _atom_site_fract_z
 _atom_site_occupancy
  Zr  Zr0  1  0.00079435  0.76587068  0.25914839  1
  Zr  Zr1  1  0.23492367  0.23412932  0.25914839  1
  Zr  Zr2  1  0.76336046  1.00000000  0.25322117  1
  Zr  Zr3  1  0.99107844  0.22901367  0.74234682  1
  Zr  Zr4  1  0.76206477  0.77098633  0.74234682  1
  Zr  Zr5  1  0.24321253  0.00000000  0.74664363  1
  Zr  Zr6  1  0.33598946  0.67019735  0.50199563  1
  Zr  Zr7  1  0.66579311  0.32980265  0.50199563  1
  Zr  Zr8  1  0.66492073  0.32718817  0.99741173  1
  Zr  Zr9  1  0.33773157  0.67281183  0.99741173  1
  Al  Al0  1  0.60136522  1.00000000  0.75035934  1
  Sn  Sn0  1  0.00216166  0.39862371  0.24517041  1
  Sn  Sn1  1  0.60353795  0.60137629  0.24517041  1
  Sn  Sn2  1  0.39996177  1.00000000  0.24811082  1
  Sn  Sn3  1  0.99827798  0.60400644  0.75523579  1
  Sn  Sn4  1  0.39427154  0.39599356  0.75523579  1
  O  O0  1  0.00055277  0.00000000  0.49904650  1
loop_
_geom_bond_atom_site_label_1
_geom_bond_atom_site_label_2
_geom_bond_distance
_geom_bond_site_symmetry_2
Zr6 Zr9 2.846919 1_555
Zr6 Zr9 2.899565 1_554
Zr7 Zr8 2.846919 1_555
Zr7 Zr8 2.899565 1_554
Al0 Zr3 2.860433 1_565
Al0 Zr4 2.860433 1_555
Al0 Zr8 2.904202 1_565
Al0 Zr9 2.904204 1_555
Al0 Zr7 2.928561 1_565
Al0 Zr6 2.928564 1_555
Al0 Zr5 3.018417 1_565
Al0 Zr2 3.160357 1_555
Al0 Zr2 3.201685 1_556
Sn0 Zr1 2.915707 1_555
Sn0 Zr2 2.932988 1_445
Sn0 Zr8 2.964863 1_454
Sn0 Zr9 2.969637 1_554
Sn0 Zr7 2.978429 1_455
Sn0 Zr6 2.987805 1_555
Sn0 Zr0 3.105064 1_555
Sn0 Zr3 3.178341 1_455
Sn0 Zr3 3.202293 1_454
Sn1 Zr0 2.915706 1_655
Sn1 Zr2 2.932988 1_555
Sn1 Zr9 2.964870 1_554
Sn1 Zr8 2.969642 1_554
Sn1 Zr6 2.978436 1_555
Sn1 Zr7 2.987810 1_555
Sn1 Zr1 3.105064 1_555
Sn1 Zr4 3.178341 1_555
Sn1 Zr4 3.202293 1_554
Sn2 Zr9 2.917698 1_554
Sn2 Zr8 2.917701 1_564
Sn2 Zr0 2.929693 1_555
Sn2 Zr1 2.929694 1_565
Sn2 Zr6 2.945311 1_555
Sn2 Zr7 2.945313 1_565
Sn2 Zr2 3.062729 1_555
Sn2 Zr5 3.148976 1_565
Sn2 Zr5 3.175607 1_564
Sn3 Zr5 2.921769 1_665
Sn3 Zr8 2.950963 1_555
Sn3 Zr4 2.959029 1_555
Sn3 Zr9 2.971864 1_655
Sn3 Zr7 2.977985 1_555
Sn3 Zr6 2.984354 1_655
Sn3 Zr3 3.134641 1_555
Sn3 Zr0 3.159225 1_655
Sn3 Zr0 3.194262 1_656
Sn4 Zr5 2.921769 1_555
Sn4 Zr9 2.950968 1_555
Sn4 Zr3 2.959029 1_455
Sn4 Zr8 2.971872 1_555
Sn4 Zr6 2.977990 1_555
Sn4 Zr7 2.984362 1_555
Sn4 Zr4 3.134641 1_555
Sn4 Zr1 3.159225 1_555
Sn4 Zr1 3.194262 1_556
O0 Zr1 2.406970 1_555
O0 Zr0 2.406970 1_545
O0 Zr4 2.415505 1_445
O0 Zr3 2.415505 1_455
O0 Zr2 2.453071 1_445
O0 Zr5 2.496709 1_555
