# generated using pymatgen
data_RbZrSbSe4
_symmetry_space_group_name_H-M   'P 1'
_cell_length_a   4.00578480
_cell_length_b   6.96880568
_cell_length_c   8.43010649
_cell_angle_alpha   74.73696474
_cell_angle_beta   90.00000000
_cell_angle_gamma   90.00000000
_symmetry_Int_Tables_number   1
_chemical_formula_structural   RbZrSbSe4
_chemical_formula_sum   'Rb1 Zr1 Sb1 Se4'
_cell_volume   227.03021945
_cell_formula_units_Z   1
loop_
 _symmetry_equiv_pos_site_id
 _symmetry_equiv_pos_as_xyz
  1  'x, y, z'
loop_
 _atom_site_type_symbol
 _atom_site_label
 _atom_site_symmetry_multiplicity
 _atom_site_fract_x
 _atom_site_fract_y
 _atom_site_fract_z
 _atom_site_occupancy
  Rb  Rb0  1  0.00000000  0.50000000  0.50000000  1
  Zr  Zr0  1  0.00000000  0.00000000  0.00000000  1
  Sb  Sb0  1  0.50000000  0.50000000  0.00000000  1
  Se  Se0  1  0.50000000  0.78536931  0.18668779  1
  Se  Se1  1  0.00000000  0.25244870  0.19090399  1
  Se  Se2  1  0.50000000  0.21463069  0.81331221  1
  Se  Se3  1  0.00000000  0.74755130  0.80909601  1
loop_
_geom_bond_atom_site_label_1
_geom_bond_atom_site_label_2
_geom_bond_distance
_geom_bond_site_symmetry_2
Rb0 Se3 3.483184 1_555
Rb0 Se1 3.483184 1_555
Rb0 Se2 3.489578 1_555
Rb0 Se2 3.489578 1_455
Rb0 Se0 3.489578 1_455
Rb0 Se0 3.489578 1_555
Sb0 Se0 2.842453 1_555
Sb0 Se2 2.842453 1_554
Sb0 Se1 2.848844 1_555
Sb0 Se1 2.848844 1_655
Sb0 Se3 2.848844 1_554
Sb0 Se3 2.848844 1_654
Se0 Zr0 2.736098 1_565
Se0 Zr0 2.736098 1_665
Se1 Zr0 2.678742 1_555
Se2 Zr0 2.736098 1_556
Se2 Zr0 2.736098 1_656
Se3 Zr0 2.678742 1_566
