# generated using pymatgen
data_Lu2CoSi5Os2
_symmetry_space_group_name_H-M   'P 1'
_cell_length_a   8.04164108
_cell_length_b   8.01878372
_cell_length_c   5.46628756
_cell_angle_alpha   70.88581754
_cell_angle_beta   71.09623164
_cell_angle_gamma   95.02929296
_symmetry_Int_Tables_number   1
_chemical_formula_structural   Lu2CoSi5Os2
_chemical_formula_sum   'Lu4 Co2 Si10 Os4'
_cell_volume   307.60140144
_cell_formula_units_Z   2
loop_
 _symmetry_equiv_pos_site_id
 _symmetry_equiv_pos_as_xyz
  1  'x, y, z'
loop_
 _atom_site_type_symbol
 _atom_site_label
 _atom_site_symmetry_multiplicity
 _atom_site_fract_x
 _atom_site_fract_y
 _atom_site_fract_z
 _atom_site_occupancy
  Lu  Lu0  1  0.13246834  0.40959440  0.72302092  1
  Lu  Lu1  1  0.59985944  0.87439709  0.77028595  1
  Lu  Lu2  1  0.86719053  0.58843659  0.25576221  1
  Lu  Lu3  1  0.40509404  0.13182304  0.24755739  1
  Co  Co0  1  0.00169377  0.99536104  0.25315965  1
  Co  Co1  1  0.74622416  0.45438251  0.86768331  1
  Si  Si0  1  0.78153759  0.22429204  0.23741532  1
  Si  Si1  1  0.20449584  0.78589980  0.74464317  1
  Si  Si2  1  0.51868334  0.48995496  0.23669566  1
  Si  Si3  1  0.50578644  0.50192395  0.75380665  1
  Si  Si4  1  0.20023635  0.79150778  0.26199991  1
  Si  Si5  1  0.79477382  0.21207770  0.76175708  1
  Si  Si6  1  0.73996520  0.93114768  0.18031521  1
  Si  Si7  1  0.92256557  0.72968688  0.65771990  1
  Si  Si8  1  0.25506009  0.07370359  0.85123154  1
  Si  Si9  1  0.06739926  0.26360363  0.32050340  1
  Os  Os0  1  0.99719635  0.99952798  0.75076244  1
  Os  Os1  1  0.54415990  0.24930978  0.63090723  1
  Os  Os2  1  0.26088413  0.55430697  0.09718855  1
  Os  Os3  1  0.45472685  0.73906157  0.39758351  1
loop_
_geom_bond_atom_site_label_1
_geom_bond_atom_site_label_2
_geom_bond_distance
_geom_bond_site_symmetry_2
Lu0 Si8 2.897352 1_555
Lu0 Si5 2.929444 1_455
Lu0 Si9 2.931276 1_556
Lu0 Si9 2.968331 1_555
Lu0 Os2 3.002846 1_555
Lu0 Os2 3.051082 1_556
Lu0 Si1 3.070233 1_555
Lu0 Si0 3.076553 1_456
Lu0 Os3 3.097534 1_555
Lu0 Si3 3.099720 1_555
Lu0 Si4 3.128852 1_555
Lu0 Si7 3.180388 1_455
Lu0 Si2 3.210247 1_555
Lu0 Os0 3.310319 1_445
Lu1 Si7 2.901818 1_555
Lu1 Si6 2.910572 1_555
Lu1 Si6 2.952025 1_556
Lu1 Os1 2.962494 1_565
Lu1 Si5 2.986127 1_565
Lu1 Os3 3.007586 1_556
Lu1 Si3 3.053764 1_555
Lu1 Os3 3.075222 1_555
Lu1 Si0 3.108494 1_565
Lu1 Os2 3.134509 1_556
Lu1 Si2 3.138651 1_556
Lu1 Os0 3.220955 1_555
Lu1 Si1 3.254224 1_555
Lu1 Si4 3.294282 1_556
Lu1 Si8 3.298983 1_565
Lu2 Si2 2.888601 1_555
Lu2 Si7 2.912794 1_555
Lu2 Si7 2.951510 1_554
Lu2 Si6 2.965322 1_555
Lu2 Si0 2.982412 1_555
Lu2 Si1 3.018271 1_654
Lu2 Si4 3.025991 1_655
Lu2 Os2 3.062442 1_655
Lu2 Si3 3.101987 1_555
Lu2 Si9 3.162742 1_655
Lu2 Os1 3.163220 1_555
Lu2 Si5 3.206061 1_555
Lu2 Os0 3.338578 1_554
Lu3 Si2 2.911753 1_555
Lu3 Si8 2.936429 1_554
Lu3 Si9 2.954268 1_555
Lu3 Os1 2.965365 1_554
Lu3 Si8 2.979335 1_555
Lu3 Si1 3.019773 1_545
Lu3 Si4 3.025480 1_545
Lu3 Os1 3.025877 1_555
Lu3 Si0 3.031129 1_555
Lu3 Os3 3.080906 1_545
Lu3 Si3 3.108797 1_554
Lu3 Si5 3.228162 1_554
Lu3 Si6 3.237605 1_545
Lu3 Os0 3.329205 1_445
Co0 Si6 2.311032 1_455
Co0 Si8 2.311740 1_564
Co0 Si9 2.342379 1_565
Co0 Si7 2.366230 1_455
Co0 Si4 2.383159 1_555
Co0 Si0 2.660234 1_465
Co0 Os0 2.719749 1_455
Co0 Os0 2.747503 1_454
Co0 Lu3 3.318611 1_565
Co0 Lu1 3.333087 1_455
Co0 Lu2 3.340414 1_455
Co1 Si7 2.222367 1_555
Co1 Si5 2.232984 1_555
Co1 Si3 2.241648 1_555
Co1 Si2 2.361164 1_556
Co1 Si0 2.364567 1_556
Co1 Lu2 2.940051 1_555
Co1 Lu0 3.031807 1_655
Co1 Lu2 3.041235 1_556
Co1 Lu3 3.174100 1_556
Si0 Si6 2.478937 1_545
Si0 Si9 2.496668 1_655
Si0 Si5 2.602046 1_554
Si1 Si7 2.495628 1_455
Si1 Si8 2.588535 1_565
Si2 Si3 2.645889 1_554
Si2 Si3 2.828345 1_555
Si4 Si7 2.425852 1_455
Si4 Si8 2.492539 1_564
Si5 Si6 2.510139 1_546
Si5 Si9 2.560679 1_655
Os0 Si8 2.385583 1_665
Os0 Si6 2.429758 1_556
Os0 Si7 2.447793 1_555
Os0 Si9 2.450048 1_665
Os0 Si5 2.459361 1_565
Os0 Si1 2.493328 1_655
Os1 Si8 2.310701 1_555
Os1 Si3 2.348687 1_555
Os1 Si5 2.358398 1_555
Os1 Si0 2.449482 1_555
Os1 Si2 2.457899 1_555
Os2 Si9 2.369563 1_555
Os2 Si4 2.380652 1_555
Os2 Si1 2.395468 1_554
Os2 Si3 2.417516 1_554
Os2 Si2 2.469801 1_555
Os3 Si6 2.337049 1_555
Os3 Si3 2.409603 1_555
Os3 Si4 2.417431 1_555
Os3 Si1 2.432063 1_555
Os3 Si2 2.462853 1_555
