# generated using pymatgen
data_Hf(NbCl3)6
_symmetry_space_group_name_H-M   'P 1'
_cell_length_a   10.00754400
_cell_length_b   10.00754479
_cell_length_c   10.00754387
_cell_angle_alpha   55.98658936
_cell_angle_beta   55.98658796
_cell_angle_gamma   55.98659175
_symmetry_Int_Tables_number   1
_chemical_formula_structural   Hf(NbCl3)6
_chemical_formula_sum   'Hf1 Nb6 Cl18'
_cell_volume   642.80942242
_cell_formula_units_Z   1
loop_
 _symmetry_equiv_pos_site_id
 _symmetry_equiv_pos_as_xyz
  1  'x, y, z'
loop_
 _atom_site_type_symbol
 _atom_site_label
 _atom_site_symmetry_multiplicity
 _atom_site_fract_x
 _atom_site_fract_y
 _atom_site_fract_z
 _atom_site_occupancy
  Hf  Hf0  1  0.00000000  0.00000000  0.00000000  1
  Nb  Nb0  1  0.40502375  0.30333165  0.65055182  1
  Nb  Nb1  1  0.34944818  0.59497625  0.69666835  1
  Nb  Nb2  1  0.69666835  0.34944818  0.59497625  1
  Nb  Nb3  1  0.30333165  0.65055182  0.40502375  1
  Nb  Nb4  1  0.65055182  0.40502375  0.30333165  1
  Nb  Nb5  1  0.59497625  0.69666835  0.34944818  1
  Cl  Cl0  1  0.56700906  0.15431964  0.44504261  1
  Cl  Cl1  1  0.21439533  0.37476016  0.91438845  1
  Cl  Cl2  1  0.91438845  0.21439533  0.37476016  1
  Cl  Cl3  1  0.37476016  0.91438845  0.21439533  1
  Cl  Cl4  1  0.78560467  0.62523984  0.08561155  1
  Cl  Cl5  1  0.08561155  0.78560467  0.62523984  1
  Cl  Cl6  1  0.72027022  0.96488098  0.14702533  1
  Cl  Cl7  1  0.96488098  0.14702533  0.72027022  1
  Cl  Cl8  1  0.14702533  0.72027022  0.96488098  1
  Cl  Cl9  1  0.27972978  0.03511902  0.85297467  1
  Cl  Cl10  1  0.03511902  0.85297467  0.27972978  1
  Cl  Cl11  1  0.85297467  0.27972978  0.03511902  1
  Cl  Cl12  1  0.55495739  0.43299094  0.84568036  1
  Cl  Cl13  1  0.15431964  0.44504261  0.56700906  1
  Cl  Cl14  1  0.44504261  0.56700906  0.15431964  1
  Cl  Cl15  1  0.43299094  0.84568036  0.55495739  1
  Cl  Cl16  1  0.84568036  0.55495739  0.43299094  1
  Cl  Cl17  1  0.62523984  0.08561155  0.78560467  1
loop_
_geom_bond_atom_site_label_1
_geom_bond_atom_site_label_2
_geom_bond_distance
_geom_bond_site_symmetry_2
Cl0 Nb4 2.458554 1_555
Cl0 Nb0 2.465400 1_555
Cl1 Nb0 2.464230 1_555
Cl1 Nb1 2.469116 1_555
Cl2 Nb4 2.464230 1_555
Cl2 Nb2 2.469116 1_555
Cl3 Nb3 2.464230 1_555
Cl3 Nb5 2.469116 1_555
Cl4 Nb5 2.464230 1_555
Cl4 Nb4 2.469116 1_555
Cl5 Nb1 2.464230 1_555
Cl5 Nb3 2.469116 1_555
Cl6 Hf0 2.457465 1_665
Cl6 Nb5 2.778655 1_555
Cl7 Hf0 2.457465 1_656
Cl7 Nb2 2.778655 1_555
Cl8 Hf0 2.457465 1_566
Cl8 Nb1 2.778655 1_555
Cl9 Hf0 2.457465 1_556
Cl9 Nb0 2.778655 1_555
Cl10 Hf0 2.457465 1_565
Cl10 Nb3 2.778655 1_555
Cl11 Hf0 2.457465 1_655
Cl11 Nb4 2.778655 1_555
Cl12 Nb2 2.458554 1_555
Cl12 Nb1 2.465400 1_555
Cl13 Nb0 2.458554 1_555
Cl13 Nb3 2.465400 1_555
Cl14 Nb3 2.458554 1_555
Cl14 Nb4 2.465400 1_555
Cl15 Nb1 2.458554 1_555
Cl15 Nb5 2.465400 1_555
Cl16 Nb5 2.458554 1_555
Cl16 Nb2 2.465400 1_555
Cl17 Nb2 2.464230 1_555
Cl17 Nb0 2.469116 1_555
