# generated using pymatgen
data_CaSiPRu2
_symmetry_space_group_name_H-M   'P 1'
_cell_length_a   5.63060537
_cell_length_b   5.63060566
_cell_length_c   5.63060504
_cell_angle_alpha   137.09772546
_cell_angle_beta   137.09772659
_cell_angle_gamma   62.28772504
_symmetry_Int_Tables_number   1
_chemical_formula_structural   CaSiPRu2
_chemical_formula_sum   'Ca1 Si1 P1 Ru2'
_cell_volume   81.73381696
_cell_formula_units_Z   1
loop_
 _symmetry_equiv_pos_site_id
 _symmetry_equiv_pos_as_xyz
  1  'x, y, z'
loop_
 _atom_site_type_symbol
 _atom_site_label
 _atom_site_symmetry_multiplicity
 _atom_site_fract_x
 _atom_site_fract_y
 _atom_site_fract_z
 _atom_site_occupancy
  Ca  Ca0  1  0.99925676  0.99925676  0.00000000  1
  Si  Si0  1  0.63136878  0.63136878  1.00000000  1
  P  P0  1  0.36463126  0.36463126  0.00000000  1
  Ru  Ru0  1  0.75237210  0.25237210  0.50000000  1
  Ru  Ru1  1  0.25237210  0.75237210  0.50000000  1
loop_
_geom_bond_atom_site_label_1
_geom_bond_atom_site_label_2
_geom_bond_distance
_geom_bond_site_symmetry_2
Ca0 Ru0 3.146775 1_565
Ca0 Ru1 3.146775 1_655
Ca0 Ru1 3.146775 1_554
Ca0 Ru0 3.146775 1_554
Ca0 Si0 3.178297 1_553
Ca0 Si0 3.178297 1_665
Ca0 Si0 3.178297 1_654
Ca0 Si0 3.178297 1_564
Ca0 P0 3.188079 1_666
Ca0 P0 3.188080 1_554
Ca0 P0 3.188080 1_565
Ca0 P0 3.188080 1_655
Ca0 Ru1 3.192427 1_654
Ca0 Ru0 3.192427 1_564
Ca0 Ru0 3.192427 1_665
Ca0 Ru1 3.192427 1_665
P0 Ru0 2.326108 1_555
P0 Ru1 2.326108 1_555
P0 Ru0 2.326108 1_454
P0 Ru1 2.326109 1_544
P0 Si0 2.570856 1_554
Ru0 Si0 2.366486 1_555
Ru0 Si0 2.366486 1_544
Ru1 Si0 2.366486 1_555
Ru1 Si0 2.366486 1_454
