# generated using pymatgen
data_TaBe4Re
_symmetry_space_group_name_H-M   'P 1'
_cell_length_a   4.47241792
_cell_length_b   4.47241804
_cell_length_c   4.47241803
_cell_angle_alpha   60.00000007
_cell_angle_beta   59.99999916
_cell_angle_gamma   60.00000035
_symmetry_Int_Tables_number   1
_chemical_formula_structural   TaBe4Re
_chemical_formula_sum   'Ta1 Be4 Re1'
_cell_volume   63.25751974
_cell_formula_units_Z   1
loop_
 _symmetry_equiv_pos_site_id
 _symmetry_equiv_pos_as_xyz
  1  'x, y, z'
loop_
 _atom_site_type_symbol
 _atom_site_label
 _atom_site_symmetry_multiplicity
 _atom_site_fract_x
 _atom_site_fract_y
 _atom_site_fract_z
 _atom_site_occupancy
  Ta  Ta0  1  0.25000000  0.25000000  0.25000000  1
  Be  Be0  1  0.62592353  0.62592353  0.12223042  1
  Be  Be1  1  0.62592353  0.12223042  0.62592353  1
  Be  Be2  1  0.12223042  0.62592353  0.62592353  1
  Be  Be3  1  0.62592353  0.62592353  0.62592353  1
  Re  Re0  1  0.00000000  0.00000000  0.00000000  1
loop_
_geom_bond_atom_site_label_1
_geom_bond_atom_site_label_2
_geom_bond_distance
_geom_bond_site_symmetry_2
Be0 Be2 2.219692 1_654
Be0 Be3 2.219692 1_554
Be0 Be1 2.219692 1_564
Be0 Be2 2.252726 1_555
Be0 Be3 2.252726 1_555
Be0 Be1 2.252726 1_555
Be0 Re0 2.620443 1_665
Be0 Re0 2.620447 1_565
Be0 Re0 2.620447 1_655
Be0 Ta0 2.623966 1_655
Be0 Ta0 2.623966 1_565
Be0 Ta0 2.623969 1_555
Be1 Be2 2.219692 1_645
Be1 Be3 2.219692 1_545
Be1 Be2 2.252726 1_555
Be1 Be3 2.252726 1_555
Be1 Re0 2.620443 1_656
Be1 Re0 2.620447 1_556
Be1 Re0 2.620447 1_655
Be1 Ta0 2.623966 1_655
Be1 Ta0 2.623966 1_556
Be1 Ta0 2.623969 1_555
Be2 Be3 2.219692 1_455
Be2 Be3 2.252726 1_555
Be2 Re0 2.620443 1_566
Be2 Re0 2.620447 1_556
Be2 Re0 2.620447 1_565
Be2 Ta0 2.623966 1_565
Be2 Ta0 2.623966 1_556
Be2 Ta0 2.623970 1_555
Be3 Re0 2.620445 1_566
Be3 Re0 2.620445 1_665
Be3 Re0 2.620445 1_656
Be3 Ta0 2.623968 1_556
Be3 Ta0 2.623968 1_655
Be3 Ta0 2.623968 1_565
Re0 Ta0 2.738785 1_455
Re0 Ta0 2.738786 1_555
Re0 Ta0 2.738786 1_554
Re0 Ta0 2.738786 1_545
