# generated using pymatgen
data_Rb6In2AsP3
_symmetry_space_group_name_H-M   'P 1'
_cell_length_a   9.24853911
_cell_length_b   9.24853845
_cell_length_c   9.20713648
_cell_angle_alpha   128.12245236
_cell_angle_beta   70.66754733
_cell_angle_gamma   135.64208065
_symmetry_Int_Tables_number   1
_chemical_formula_structural   Rb6In2AsP3
_chemical_formula_sum   'Rb6 In2 As1 P3'
_cell_volume   424.34450151
_cell_formula_units_Z   1
loop_
 _symmetry_equiv_pos_site_id
 _symmetry_equiv_pos_as_xyz
  1  'x, y, z'
loop_
 _atom_site_type_symbol
 _atom_site_label
 _atom_site_symmetry_multiplicity
 _atom_site_fract_x
 _atom_site_fract_y
 _atom_site_fract_z
 _atom_site_occupancy
  Rb  Rb0  1  0.82162196  0.20364649  0.02526746  1
  Rb  Rb1  1  0.67933018  0.71320300  0.39253419  1
  Rb  Rb2  1  0.74911599  0.25011666  0.49551039  1
  Rb  Rb3  1  0.24539373  0.74639441  0.49551139  1
  Rb  Rb4  1  0.31723166  0.29637777  0.61360943  1
  Rb  Rb5  1  0.18306512  0.79785677  0.98092189  1
  In  In0  1  0.24718534  0.24753896  0.99962942  1
  In  In1  1  0.75209145  0.75244508  0.99962942  1
  As  As0  1  0.59781420  0.31484237  0.91265657  1
  P  P0  1  0.40901670  0.67662687  0.08564357  1
  P  P1  1  0.09117874  0.18138489  0.27256364  1
  P  P2  1  0.90695491  0.81956772  0.72652264  1
loop_
_geom_bond_atom_site_label_1
_geom_bond_atom_site_label_2
_geom_bond_distance
_geom_bond_site_symmetry_2
In0 P1 2.646954 1_556
In0 P0 2.650809 1_556
In0 P2 2.651607 1_445
In0 Rb0 3.595807 1_456
In0 Rb4 3.646208 1_555
In0 Rb1 3.651169 1_556
In0 Rb5 3.651607 1_545
In1 P1 2.646949 1_666
In1 P0 2.650814 1_556
In1 P2 2.651603 1_555
In1 Rb0 3.595806 1_566
In1 Rb4 3.646212 1_555
In1 Rb1 3.651176 1_556
In1 Rb5 3.651604 1_655
As0 In0 2.748488 1_555
As0 In1 2.748492 1_555
As0 Rb1 3.434911 1_556
As0 Rb3 3.445040 1_545
As0 Rb2 3.445044 1_555
As0 Rb0 3.492631 1_556
As0 Rb5 3.722619 1_545
As0 Rb5 3.722619 1_655
P0 Rb4 3.358461 1_554
P0 Rb2 3.399411 1_565
P0 Rb3 3.399419 1_555
P0 Rb5 3.545829 1_554
P0 Rb0 3.737909 1_455
P0 Rb0 3.737915 1_565
P1 Rb5 3.399101 1_544
P1 Rb3 3.404539 1_555
P1 Rb2 3.404542 1_455
P1 Rb4 3.522171 1_555
P1 Rb1 3.743338 1_555
P1 Rb1 3.743345 1_445
P2 Rb0 3.363687 1_566
P2 Rb3 3.409272 1_655
P2 Rb2 3.409273 1_555
P2 Rb1 3.527823 1_555
P2 Rb4 3.747818 1_665
P2 Rb4 3.747818 1_555
