# generated using pymatgen
data_Hf5SiPb3
_symmetry_space_group_name_H-M   'P 1'
_cell_length_a   8.68024821
_cell_length_b   8.68024696
_cell_length_c   5.84465309
_cell_angle_alpha   90.00000000
_cell_angle_beta   90.00000000
_cell_angle_gamma   119.99999726
_symmetry_Int_Tables_number   1
_chemical_formula_structural   Hf5SiPb3
_chemical_formula_sum   'Hf10 Si2 Pb6'
_cell_volume   381.37621765
_cell_formula_units_Z   2
loop_
 _symmetry_equiv_pos_site_id
 _symmetry_equiv_pos_as_xyz
  1  'x, y, z'
loop_
 _atom_site_type_symbol
 _atom_site_label
 _atom_site_symmetry_multiplicity
 _atom_site_fract_x
 _atom_site_fract_y
 _atom_site_fract_z
 _atom_site_occupancy
  Hf  Hf0  1  0.66666700  0.33333300  0.00000000  1
  Hf  Hf1  1  1.00000000  0.25624807  0.25000000  1
  Hf  Hf2  1  0.74375193  1.00000000  0.75000000  1
  Hf  Hf3  1  0.25624807  0.25624807  0.75000000  1
  Hf  Hf4  1  0.33333300  0.66666700  0.50000000  1
  Hf  Hf5  1  0.33333300  0.66666700  0.00000000  1
  Hf  Hf6  1  0.00000000  0.74375193  0.75000000  1
  Hf  Hf7  1  0.66666700  0.33333300  0.50000000  1
  Hf  Hf8  1  0.74375193  0.74375193  0.25000000  1
  Hf  Hf9  1  0.25624807  0.00000000  0.25000000  1
  Si  Si0  1  0.00000000  0.00000000  0.00000000  1
  Si  Si1  1  0.00000000  0.00000000  0.50000000  1
  Pb  Pb0  1  0.60557251  0.60557251  0.75000000  1
  Pb  Pb1  1  0.39442749  1.00000000  0.75000000  1
  Pb  Pb2  1  1.00000000  0.60557251  0.25000000  1
  Pb  Pb3  1  0.39442749  0.39442749  0.25000000  1
  Pb  Pb4  1  0.00000000  0.39442749  0.75000000  1
  Pb  Pb5  1  0.60557251  0.00000000  0.25000000  1
loop_
_geom_bond_atom_site_label_1
_geom_bond_atom_site_label_2
_geom_bond_distance
_geom_bond_site_symmetry_2
Hf0 Pb5 3.041981 1_555
Hf0 Pb4 3.041981 1_654
Hf0 Pb1 3.041984 1_544
Hf0 Pb2 3.041984 1_555
Hf0 Pb0 3.041989 1_554
Hf0 Pb3 3.041989 1_555
Hf1 Si1 2.661295 1_655
Hf1 Si0 2.661295 1_655
Hf1 Pb5 3.008991 1_555
Hf1 Pb3 3.008991 1_655
Hf1 Pb2 3.032222 1_555
Hf1 Pb4 3.158897 1_654
Hf1 Pb4 3.158897 1_655
Hf2 Si0 2.661296 1_666
Hf2 Si1 2.661296 1_665
Hf2 Pb0 3.008990 1_555
Hf2 Pb4 3.008990 1_665
Hf2 Pb1 3.032223 1_555
Hf2 Pb5 3.158897 1_566
Hf2 Pb5 3.158897 1_565
Hf3 Si1 2.661296 1_555
Hf3 Si0 2.661296 1_556
Hf3 Pb1 3.008990 1_545
Hf3 Pb4 3.008991 1_555
Hf3 Pb0 3.032223 1_555
Hf3 Pb3 3.158897 1_555
Hf3 Pb3 3.158897 1_556
Hf4 Pb1 3.041981 1_555
Hf4 Pb2 3.041981 1_455
Hf4 Pb5 3.041984 1_565
Hf4 Pb4 3.041984 1_555
Hf4 Pb3 3.041989 1_555
Hf4 Pb0 3.041989 1_555
Hf5 Pb1 3.041981 1_554
Hf5 Pb2 3.041981 1_455
Hf5 Pb5 3.041984 1_565
Hf5 Pb4 3.041984 1_554
Hf5 Pb3 3.041989 1_555
Hf5 Pb0 3.041989 1_554
Hf6 Si1 2.661295 1_565
Hf6 Si0 2.661295 1_566
Hf6 Pb1 3.008991 1_555
Hf6 Pb0 3.008991 1_455
Hf6 Pb4 3.032222 1_555
Hf6 Pb2 3.158897 1_455
Hf6 Pb2 3.158897 1_456
Hf7 Pb5 3.041981 1_555
Hf7 Pb4 3.041981 1_655
Hf7 Pb1 3.041984 1_545
Hf7 Pb2 3.041984 1_555
Hf7 Pb0 3.041989 1_555
Hf7 Pb3 3.041989 1_555
Hf8 Si1 2.661296 1_665
Hf8 Si0 2.661296 1_665
Hf8 Pb5 3.008990 1_565
Hf8 Pb2 3.008991 1_555
Hf8 Pb3 3.032223 1_555
Hf8 Pb0 3.158897 1_554
Hf8 Pb0 3.158897 1_555
Hf9 Si1 2.661296 1_555
Hf9 Si0 2.661296 1_555
Hf9 Pb3 3.008990 1_555
Hf9 Pb2 3.008990 1_445
Hf9 Pb5 3.032223 1_555
Hf9 Pb1 3.158897 1_544
Hf9 Pb1 3.158897 1_545
