# generated using pymatgen
data_ThIr5
_symmetry_space_group_name_H-M   'P 1'
_cell_length_a   5.30491275
_cell_length_b   5.30491208
_cell_length_c   4.35680152
_cell_angle_alpha   90.00000000
_cell_angle_beta   90.00000000
_cell_angle_gamma   120.00000409
_symmetry_Int_Tables_number   1
_chemical_formula_structural   ThIr5
_chemical_formula_sum   'Th1 Ir5'
_cell_volume   106.18295949
_cell_formula_units_Z   1
loop_
 _symmetry_equiv_pos_site_id
 _symmetry_equiv_pos_as_xyz
  1  'x, y, z'
loop_
 _atom_site_type_symbol
 _atom_site_label
 _atom_site_symmetry_multiplicity
 _atom_site_fract_x
 _atom_site_fract_y
 _atom_site_fract_z
 _atom_site_occupancy
  Th  Th0  1  -0.00000000  0.00000000  -0.00000000  1
  Ir  Ir0  1  0.33333300  0.66666700  -0.00000000  1
  Ir  Ir1  1  0.66666700  0.33333300  0.00000000  1
  Ir  Ir2  1  0.50000000  0.00000000  0.50000000  1
  Ir  Ir3  1  0.50000000  0.50000000  0.50000000  1
  Ir  Ir4  1  -0.00000000  0.50000000  0.50000000  1
loop_
_geom_bond_atom_site_label_1
_geom_bond_atom_site_label_2
_geom_bond_distance
_geom_bond_site_symmetry_2
Ir0 Ir2 2.662818 1_565
Ir0 Ir2 2.662818 1_564
Ir0 Ir4 2.662818 1_554
Ir0 Ir4 2.662818 1_555
Ir0 Ir3 2.662821 1_554
Ir0 Ir3 2.662821 1_555
Ir0 Ir1 3.062789 1_565
Ir0 Th0 3.062790 1_565
Ir0 Ir1 3.062790 1_455
Ir0 Th0 3.062794 1_555
Ir0 Th0 3.062794 1_665
Ir0 Ir1 3.062799 1_555
Ir1 Ir2 2.662818 1_555
Ir1 Ir2 2.662818 1_554
Ir1 Ir4 2.662818 1_655
Ir1 Ir4 2.662818 1_654
Ir1 Ir3 2.662821 1_554
Ir1 Ir3 2.662821 1_555
Ir1 Th0 3.062790 1_655
Ir1 Th0 3.062794 1_665
Ir1 Th0 3.062794 1_555
Ir2 Ir3 2.652456 1_555
Ir2 Ir3 2.652456 1_545
Ir2 Ir4 2.652456 1_545
Ir2 Ir4 2.652456 1_655
Ir2 Th0 3.432340 1_555
Ir2 Th0 3.432340 1_656
Ir2 Th0 3.432340 1_556
Ir2 Th0 3.432340 1_655
Ir3 Ir4 2.652456 1_555
Ir3 Ir4 2.652456 1_655
Ir3 Th0 3.432339 1_555
Ir3 Th0 3.432339 1_556
Ir3 Th0 3.432339 1_665
Ir3 Th0 3.432339 1_666
Ir4 Th0 3.432339 1_565
Ir4 Th0 3.432339 1_566
Ir4 Th0 3.432339 1_555
Ir4 Th0 3.432339 1_556
