# generated using pymatgen
data_Er3Ru2
_symmetry_space_group_name_H-M   'P 1'
_cell_length_a   7.51441263
_cell_length_b   7.51441248
_cell_length_c   4.63823702
_cell_angle_alpha   90.00000000
_cell_angle_beta   90.00000000
_cell_angle_gamma   120.00000127
_symmetry_Int_Tables_number   1
_chemical_formula_structural   Er3Ru2
_chemical_formula_sum   'Er6 Ru4'
_cell_volume   226.81597216
_cell_formula_units_Z   2
loop_
 _symmetry_equiv_pos_site_id
 _symmetry_equiv_pos_as_xyz
  1  'x, y, z'
loop_
 _atom_site_type_symbol
 _atom_site_label
 _atom_site_symmetry_multiplicity
 _atom_site_fract_x
 _atom_site_fract_y
 _atom_site_fract_z
 _atom_site_occupancy
  Er  Er0  1  0.69494624  0.61584170  0.25000000  1
  Er  Er1  1  0.61584170  0.92089546  0.75000000  1
  Er  Er2  1  0.92089546  0.30505376  0.25000000  1
  Er  Er3  1  0.07910454  0.69494624  0.75000000  1
  Er  Er4  1  0.30505376  0.38415830  0.75000000  1
  Er  Er5  1  0.38415830  0.07910454  0.25000000  1
  Ru  Ru0  1  0.66666700  0.33333300  0.75000000  1
  Ru  Ru1  1  0.33333300  0.66666700  0.25000000  1
  Ru  Ru2  1  0.00000000  0.00000000  0.50000000  1
  Ru  Ru3  1  0.00000000  0.00000000  0.00000000  1
loop_
_geom_bond_atom_site_label_1
_geom_bond_atom_site_label_2
_geom_bond_distance
_geom_bond_site_symmetry_2
Er0 Ru3 2.883601 1_665
Er0 Ru2 2.883601 1_665
Er0 Ru1 2.927020 1_555
Er0 Ru0 3.078798 1_555
Er0 Ru0 3.078798 1_554
Er1 Ru3 2.883601 1_666
Er1 Ru2 2.883601 1_665
Er1 Ru0 2.927012 1_565
Er1 Ru1 3.078796 1_555
Er1 Ru1 3.078796 1_556
Er2 Ru3 2.883601 1_655
Er2 Ru2 2.883601 1_655
Er2 Ru1 2.927015 1_655
Er2 Ru0 3.078793 1_555
Er2 Ru0 3.078793 1_554
Er3 Ru3 2.883601 1_566
Er3 Ru2 2.883601 1_565
Er3 Ru0 2.927015 1_455
Er3 Ru1 3.078793 1_555
Er3 Ru1 3.078793 1_556
Er4 Ru2 2.883601 1_555
Er4 Ru3 2.883601 1_556
Er4 Ru0 2.927020 1_555
Er4 Ru1 3.078798 1_555
Er4 Ru1 3.078798 1_556
Er5 Ru3 2.883601 1_555
Er5 Ru2 2.883601 1_555
Er5 Ru1 2.927012 1_545
Er5 Ru0 3.078796 1_554
Er5 Ru0 3.078796 1_555
Ru2 Ru3 2.319119 1_556
Ru2 Ru3 2.319119 1_555
