# generated using pymatgen
data_Tc2Mo4PbS8
_symmetry_space_group_name_H-M   'P 1'
_cell_length_a   6.56194682
_cell_length_b   6.55941728
_cell_length_c   6.59955422
_cell_angle_alpha   89.07837261
_cell_angle_beta   90.25518823
_cell_angle_gamma   90.08830288
_symmetry_Int_Tables_number   1
_chemical_formula_structural   Tc2Mo4PbS8
_chemical_formula_sum   'Tc2 Mo4 Pb1 S8'
_cell_volume   284.02175277
_cell_formula_units_Z   1
loop_
 _symmetry_equiv_pos_site_id
 _symmetry_equiv_pos_as_xyz
  1  'x, y, z'
loop_
 _atom_site_type_symbol
 _atom_site_label
 _atom_site_symmetry_multiplicity
 _atom_site_fract_x
 _atom_site_fract_y
 _atom_site_fract_z
 _atom_site_occupancy
  Tc  Tc0  1  0.56258944  0.41715733  0.23527093  1
  Tc  Tc1  1  0.43741056  0.58284267  0.76472907  1
  Mo  Mo0  1  0.41850643  0.23437754  0.56476549  1
  Mo  Mo1  1  0.58149357  0.76562246  0.43523451  1
  Mo  Mo2  1  0.23503042  0.55926095  0.41567999  1
  Mo  Mo3  1  0.76496958  0.44073905  0.58432001  1
  Pb  Pb0  1  0.00000000  0.00000000  0.00000000  1
  S  S0  1  0.24999485  0.24370040  0.24492971  1
  S  S1  1  0.75000515  0.75629960  0.75507029  1
  S  S2  1  0.38057356  0.73038030  0.11982607  1
  S  S3  1  0.61942644  0.26961970  0.88017393  1
  S  S4  1  0.73515687  0.12825636  0.37940174  1
  S  S5  1  0.26484313  0.87174364  0.62059826  1
  S  S6  1  0.12726692  0.37974963  0.73700924  1
  S  S7  1  0.87273308  0.62025037  0.26299076  1
loop_
_geom_bond_atom_site_label_1
_geom_bond_atom_site_label_2
_geom_bond_distance
_geom_bond_site_symmetry_2
Mo0 S0 2.378463 1_555
Mo0 S6 2.431782 1_555
Mo0 S3 2.472782 1_555
Mo0 S4 2.520512 1_555
Mo0 S5 2.603513 1_545
Mo0 Tc0 2.644014 1_555
Mo0 Tc1 2.660108 1_555
Mo1 S1 2.378463 1_555
Mo1 S7 2.431782 1_555
Mo1 S2 2.472782 1_555
Mo1 S5 2.520512 1_555
Mo1 S4 2.603513 1_565
Mo1 Tc1 2.644014 1_555
Mo1 Tc0 2.660108 1_555
Mo2 S0 2.374994 1_555
Mo2 S2 2.434557 1_555
Mo2 S5 2.480734 1_555
Mo2 S6 2.512780 1_555
Mo2 S7 2.606915 1_455
Mo2 Tc0 2.640287 1_555
Mo2 Tc1 2.660364 1_555
Mo3 S1 2.374994 1_555
Mo3 S3 2.434557 1_555
Mo3 S4 2.480734 1_555
Mo3 S7 2.512780 1_555
Mo3 S6 2.606915 1_655
Mo3 Tc1 2.640287 1_555
Mo3 Tc0 2.660364 1_555
Pb0 S0 2.812587 1_555
Pb0 S1 2.812587 1_444
Pb0 S6 3.127617 1_554
Pb0 S7 3.127617 1_445
Pb0 S2 3.152884 1_545
Pb0 S3 3.152884 1_454
Pb0 S4 3.179382 1_455
Pb0 S5 3.179382 1_544
S0 Tc0 2.344734 1_555
S1 Tc1 2.344734 1_555
S2 Tc0 2.485423 1_555
S2 Tc1 2.578648 1_554
S3 Tc1 2.485423 1_555
S3 Tc0 2.578648 1_556
S4 Tc0 2.391067 1_555
S5 Tc1 2.391067 1_555
S6 Tc1 2.438470 1_555
S7 Tc0 2.438470 1_555
