# generated using pymatgen
data_Co(SeBr3)3
_symmetry_space_group_name_H-M   'P 1'
_cell_length_a   7.92010340
_cell_length_b   8.42560128
_cell_length_c   13.67178988
_cell_angle_alpha   81.85177739
_cell_angle_beta   85.97214343
_cell_angle_gamma   67.60520399
_symmetry_Int_Tables_number   1
_chemical_formula_structural   Co(SeBr3)3
_chemical_formula_sum   'Co2 Se6 Br18'
_cell_volume   834.88550408
_cell_formula_units_Z   2
loop_
 _symmetry_equiv_pos_site_id
 _symmetry_equiv_pos_as_xyz
  1  'x, y, z'
loop_
 _atom_site_type_symbol
 _atom_site_label
 _atom_site_symmetry_multiplicity
 _atom_site_fract_x
 _atom_site_fract_y
 _atom_site_fract_z
 _atom_site_occupancy
  Co  Co0  1  0.71640756  0.78550646  0.74655141  1
  Co  Co1  1  0.28359244  0.21449354  0.25344859  1
  Se  Se0  1  0.86001019  0.92046728  0.62737555  1
  Se  Se1  1  0.13998981  0.07953272  0.37262445  1
  Se  Se2  1  0.84557363  0.84949315  0.87667785  1
  Se  Se3  1  0.15442637  0.15050685  0.12332215  1
  Se  Se4  1  0.93677007  0.50846473  0.74893674  1
  Se  Se5  1  0.06322993  0.49153527  0.25106326  1
  Br  Br0  1  0.42917542  0.01913511  0.73849485  1
  Br  Br1  1  0.57082458  0.98086489  0.26150515  1
  Br  Br2  1  0.62484601  0.61749164  0.88707505  1
  Br  Br3  1  0.37515399  0.38250836  0.11292495  1
  Br  Br4  1  0.62329225  0.63680984  0.63400900  1
  Br  Br5  1  0.37670775  0.36319016  0.36599100  1
  Br  Br6  1  0.74387727  0.94292119  0.47069862  1
  Br  Br7  1  0.25612273  0.05707881  0.52930138  1
  Br  Br8  1  0.74144639  0.21751202  0.64290194  1
  Br  Br9  1  0.25855361  0.78248798  0.35709806  1
  Br  Br10  1  0.10551971  0.91460327  0.81411278  1
  Br  Br11  1  0.89448029  0.08539673  0.18588722  1
  Br  Br12  1  0.65955593  0.11577098  0.92543368  1
  Br  Br13  1  0.34044407  0.88422902  0.07456632  1
  Br  Br14  1  0.14053805  0.51494714  0.61344740  1
  Br  Br15  1  0.85946195  0.48505286  0.38655260  1
  Br  Br16  1  0.14998999  0.44769002  0.87959409  1
  Br  Br17  1  0.85001001  0.55230998  0.12040591  1
loop_
_geom_bond_atom_site_label_1
_geom_bond_atom_site_label_2
_geom_bond_distance
_geom_bond_site_symmetry_2
Co0 Se4 2.319050 1_555
Co0 Se0 2.332663 1_555
Co0 Se2 2.334540 1_555
Co1 Se5 2.319050 1_555
Co1 Se1 2.332663 1_555
Co1 Se3 2.334540 1_555
Br0 Co0 2.371446 1_545
Br1 Co1 2.371446 1_565
Br2 Co0 2.456923 1_555
Br2 Se4 2.936152 1_555
Br3 Co1 2.456923 1_555
Br3 Se5 2.936152 1_555
Br4 Co0 2.427116 1_555
Br4 Se4 2.796975 1_555
Br5 Co1 2.427116 1_555
Br5 Se5 2.796975 1_555
Br6 Se0 2.345103 1_555
Br7 Se1 2.345103 1_555
Br8 Se0 2.350014 1_545
Br9 Se1 2.350014 1_565
Br10 Se2 2.398221 1_455
Br11 Se3 2.398221 1_655
Br12 Se2 2.327179 1_545
Br13 Se3 2.327179 1_565
Br14 Se4 2.378523 1_455
Br15 Se5 2.378523 1_655
Br16 Se4 2.410502 1_455
Br17 Se5 2.410502 1_655
