# generated using pymatgen
data_HfNbBRh6
_symmetry_space_group_name_H-M   'P 1'
_cell_length_a   5.62564821
_cell_length_b   5.62564770
_cell_length_c   5.62564721
_cell_angle_alpha   59.99999714
_cell_angle_beta   60.00000016
_cell_angle_gamma   59.99999708
_symmetry_Int_Tables_number   1
_chemical_formula_structural   HfNbBRh6
_chemical_formula_sum   'Hf1 Nb1 B1 Rh6'
_cell_volume   125.89328907
_cell_formula_units_Z   1
loop_
 _symmetry_equiv_pos_site_id
 _symmetry_equiv_pos_as_xyz
  1  'x, y, z'
loop_
 _atom_site_type_symbol
 _atom_site_label
 _atom_site_symmetry_multiplicity
 _atom_site_fract_x
 _atom_site_fract_y
 _atom_site_fract_z
 _atom_site_occupancy
  Hf  Hf0  1  0.25000000  0.25000000  0.25000000  1
  Nb  Nb0  1  0.75000000  0.75000000  0.75000000  1
  B  B0  1  0.50000000  0.50000000  0.50000000  1
  Rh  Rh0  1  0.75739048  0.75739048  0.24260952  1
  Rh  Rh1  1  0.75739048  0.24260952  0.24260952  1
  Rh  Rh2  1  0.24260952  0.75739048  0.24260952  1
  Rh  Rh3  1  0.24260952  0.24260952  0.75739048  1
  Rh  Rh4  1  0.75739048  0.24260952  0.75739048  1
  Rh  Rh5  1  0.24260952  0.75739048  0.75739048  1
loop_
_geom_bond_atom_site_label_1
_geom_bond_atom_site_label_2
_geom_bond_distance
_geom_bond_site_symmetry_2
Hf0 Rh3 2.813438 1_555
Hf0 Rh5 2.813438 1_545
Hf0 Rh5 2.813438 1_554
Hf0 Rh3 2.813438 1_554
Hf0 Rh2 2.813438 1_555
Hf0 Rh0 2.813438 1_455
Hf0 Rh4 2.813438 1_455
Hf0 Rh2 2.813438 1_545
Hf0 Rh0 2.813438 1_545
Hf0 Rh4 2.813438 1_554
Hf0 Rh1 2.813439 1_455
Hf0 Rh1 2.813439 1_555
Nb0 Rh0 2.813438 1_555
Nb0 Rh1 2.813438 1_565
Nb0 Rh1 2.813438 1_556
Nb0 Rh0 2.813438 1_556
Nb0 Rh4 2.813438 1_555
Nb0 Rh3 2.813438 1_655
Nb0 Rh2 2.813438 1_655
Nb0 Rh4 2.813438 1_565
Nb0 Rh3 2.813438 1_565
Nb0 Rh2 2.813438 1_556
Nb0 Rh5 2.813439 1_655
Nb0 Rh5 2.813439 1_555
B0 Rh5 2.047764 1_555
B0 Rh1 2.047764 1_555
B0 Rh4 2.047764 1_555
B0 Rh2 2.047764 1_555
B0 Rh0 2.047765 1_555
B0 Rh3 2.047765 1_555
