# generated using pymatgen
data_Zr2Ti2NbOs
_symmetry_space_group_name_H-M   'P 1'
_cell_length_a   5.60562471
_cell_length_b   5.60562459
_cell_length_c   5.25202057
_cell_angle_alpha   57.46053191
_cell_angle_beta   57.46053666
_cell_angle_gamma   60.10250829
_symmetry_Int_Tables_number   1
_chemical_formula_structural   Zr2Ti2NbOs
_chemical_formula_sum   'Zr2 Ti2 Nb1 Os1'
_cell_volume   112.09412965
_cell_formula_units_Z   1
loop_
 _symmetry_equiv_pos_site_id
 _symmetry_equiv_pos_as_xyz
  1  'x, y, z'
loop_
 _atom_site_type_symbol
 _atom_site_label
 _atom_site_symmetry_multiplicity
 _atom_site_fract_x
 _atom_site_fract_y
 _atom_site_fract_z
 _atom_site_occupancy
  Zr  Zr0  1  0.25101051  0.25101051  0.24755457  1
  Zr  Zr1  1  0.99898949  0.99898949  0.00244543  1
  Ti  Ti0  1  0.62500000  0.12500000  0.62500000  1
  Ti  Ti1  1  0.12500000  0.62500000  0.62500000  1
  Nb  Nb0  1  0.62500000  0.62500000  0.62500000  1
  Os  Os0  1  0.62500000  0.62500000  0.12500000  1
loop_
_geom_bond_atom_site_label_1
_geom_bond_atom_site_label_2
_geom_bond_distance
_geom_bond_site_symmetry_2
Zr0 Zr1 3.106333 1_446
Zr0 Zr1 3.387944 1_455
Zr0 Zr1 3.387944 1_545
Zr0 Zr1 3.398721 1_445
Ti0 Ti1 2.807154 1_555
Ti0 Ti1 2.807154 1_645
Ti0 Zr0 3.036293 1_556
Ti0 Zr1 3.036293 1_545
Ti0 Zr0 3.197545 1_655
Ti0 Zr1 3.197545 1_446
Ti0 Zr1 3.211210 1_546
Ti0 Zr0 3.211210 1_555
Ti1 Zr1 3.036292 1_455
Ti1 Zr0 3.036292 1_556
Ti1 Zr0 3.197545 1_565
Ti1 Zr1 3.197545 1_446
Ti1 Zr1 3.211210 1_456
Ti1 Zr0 3.211210 1_555
Nb0 Os0 2.626010 1_555
Nb0 Os0 2.626010 1_556
Nb0 Ti0 2.802812 1_555
Nb0 Ti0 2.802812 1_565
Nb0 Ti1 2.802812 1_655
Nb0 Ti1 2.802812 1_555
Nb0 Zr1 3.018999 1_555
Nb0 Zr0 3.018999 1_556
Nb0 Zr0 3.208183 1_565
Nb0 Zr1 3.208183 1_546
Nb0 Zr1 3.208183 1_456
Nb0 Zr0 3.208183 1_655
Os0 Ti0 2.614165 1_564
Os0 Ti0 2.614165 1_555
Os0 Ti1 2.614165 1_555
Os0 Ti1 2.614165 1_654
Os0 Zr1 3.268434 1_555
Os0 Zr0 3.268434 1_555
Os0 Zr1 3.281454 1_455
Os0 Zr0 3.281454 1_655
Os0 Zr0 3.281454 1_565
Os0 Zr1 3.281454 1_545
