# generated using pymatgen
data_Hf16CoRe4Ni3
_symmetry_space_group_name_H-M   'P 1'
_cell_length_a   8.59354645
_cell_length_b   8.59551329
_cell_length_c   8.59551382
_cell_angle_alpha   60.00000175
_cell_angle_beta   59.99243035
_cell_angle_gamma   59.99242820
_symmetry_Int_Tables_number   1
_chemical_formula_structural   Hf16CoRe4Ni3
_chemical_formula_sum   'Hf16 Co1 Re4 Ni3'
_cell_volume   448.90184386
_cell_formula_units_Z   1
loop_
 _symmetry_equiv_pos_site_id
 _symmetry_equiv_pos_as_xyz
  1  'x, y, z'
loop_
 _atom_site_type_symbol
 _atom_site_label
 _atom_site_symmetry_multiplicity
 _atom_site_fract_x
 _atom_site_fract_y
 _atom_site_fract_z
 _atom_site_occupancy
  Hf  Hf0  1  0.68951927  0.10349291  0.10349291  1
  Hf  Hf1  1  0.10351001  0.69561197  0.10043801  1
  Hf  Hf2  1  0.10351001  0.10043801  0.69561197  1
  Hf  Hf3  1  0.10351001  0.10043801  0.10043801  1
  Hf  Hf4  1  0.31562654  0.31415563  0.68510892  1
  Hf  Hf5  1  0.68556437  0.68517220  0.31463171  1
  Hf  Hf6  1  0.31562654  0.68510892  0.31415563  1
  Hf  Hf7  1  0.68556437  0.31463171  0.68517220  1
  Hf  Hf8  1  0.68556437  0.31463171  0.31463171  1
  Hf  Hf9  1  0.31562654  0.68510892  0.68510892  1
  Hf  Hf10  1  0.95711318  0.95670545  0.54309069  1
  Hf  Hf11  1  0.54300974  0.54935625  0.95381700  1
  Hf  Hf12  1  0.95711318  0.54309069  0.95670545  1
  Hf  Hf13  1  0.54300974  0.95381700  0.54935625  1
  Hf  Hf14  1  0.54300974  0.95381700  0.95381700  1
  Hf  Hf15  1  0.95711318  0.54309069  0.54309069  1
  Co  Co0  1  0.32723312  0.89092196  0.89092196  1
  Re  Re0  1  0.00260261  0.33246480  0.33246480  1
  Re  Re1  1  0.33248451  0.00205396  0.33273026  1
  Re  Re2  1  0.33248451  0.33273026  0.00205396  1
  Re  Re3  1  0.33248451  0.33273026  0.33273026  1
  Ni  Ni0  1  0.88957131  0.32893040  0.89074915  1
  Ni  Ni1  1  0.88957131  0.89074915  0.32893040  1
  Ni  Ni2  1  0.88957131  0.89074915  0.89074915  1
loop_
_geom_bond_atom_site_label_1
_geom_bond_atom_site_label_2
_geom_bond_distance
_geom_bond_site_symmetry_2
Hf0 Ni2 2.588129 1_544
Hf0 Ni0 2.588141 1_554
Hf0 Ni1 2.588141 1_545
Hf0 Re2 2.994559 1_555
Hf0 Re1 2.994559 1_555
Hf0 Re3 2.994564 1_555
Hf0 Hf5 3.123888 1_545
Hf0 Hf7 3.123888 1_554
Hf0 Hf8 3.123903 1_555
Hf0 Hf14 3.129071 1_544
Hf0 Hf11 3.129085 1_554
Hf0 Hf13 3.129085 1_545
Hf1 Ni2 2.578537 1_454
Hf1 Ni1 2.578550 1_455
Hf1 Re2 3.024980 1_555
Hf1 Re3 3.024984 1_555
Hf1 Re0 3.037284 1_555
Hf1 Hf9 3.118378 1_554
Hf1 Hf6 3.118393 1_555
Hf1 Hf5 3.136978 1_455
Hf2 Ni2 2.578537 1_445
Hf2 Ni0 2.578550 1_455
Hf2 Re1 3.024981 1_555
Hf2 Re3 3.024985 1_555
Hf2 Re0 3.037284 1_555
Hf2 Hf9 3.118378 1_545
Hf2 Hf4 3.118393 1_555
Hf2 Hf7 3.136978 1_455
Hf3 Ni0 2.578538 1_454
Hf3 Ni1 2.578538 1_445
Hf3 Re2 3.024988 1_555
Hf3 Re1 3.024988 1_555
Hf3 Re0 3.037277 1_555
Hf3 Hf6 3.118384 1_545
Hf3 Hf4 3.118384 1_554
Hf3 Hf8 3.136983 1_455
Hf4 Re2 2.884644 1_556
Hf4 Re3 2.884653 1_555
Hf4 Ni0 3.135602 1_455
Hf4 Hf7 3.181399 1_555
Hf4 Hf8 3.181399 1_555
Hf4 Hf9 3.188534 1_555
Hf4 Hf6 3.188534 1_555
Hf5 Re0 2.885968 1_655
Hf5 Re1 2.886995 1_565
Hf5 Ni1 3.121269 1_555
Hf5 Ni2 3.121270 1_554
Hf5 Hf6 3.181399 1_555
Hf5 Hf9 3.181399 1_555
Hf5 Hf8 3.184986 1_555
Hf5 Hf7 3.184986 1_555
Hf6 Re1 2.884644 1_565
Hf6 Re3 2.884653 1_555
Hf6 Ni1 3.135602 1_455
Hf6 Hf8 3.181399 1_555
Hf6 Hf9 3.188534 1_555
Hf7 Re0 2.885968 1_655
Hf7 Re2 2.886996 1_556
Hf7 Ni2 3.121269 1_545
Hf7 Ni0 3.121269 1_555
Hf7 Hf9 3.181399 1_555
Hf7 Hf8 3.184986 1_555
Hf8 Re0 2.885954 1_655
Hf8 Re3 2.886999 1_555
Hf8 Ni1 3.121269 1_545
Hf8 Ni0 3.121270 1_554
Hf9 Re2 2.884649 1_556
Hf9 Re1 2.884649 1_565
Hf9 Ni2 3.135602 1_455
Hf10 Ni1 2.547225 1_555
Hf10 Ni2 2.547225 1_555
Hf10 Re1 2.923320 1_665
Hf10 Re0 2.927449 1_665
Hf10 Hf7 3.182448 1_565
Hf10 Hf8 3.182448 1_565
Hf10 Hf9 3.185907 1_655
Hf10 Hf6 3.185907 1_655
Hf11 Ni0 2.553733 1_555
Hf11 Re3 2.959587 1_556
Hf11 Re2 2.959591 1_556
Hf11 Hf9 3.170641 1_555
Hf11 Hf6 3.170641 1_556
Hf11 Hf7 3.203234 1_555
Hf11 Hf8 3.203234 1_556
Hf12 Ni2 2.547225 1_555
Hf12 Ni0 2.547225 1_555
Hf12 Re2 2.923320 1_656
Hf12 Re0 2.927449 1_656
Hf12 Hf5 3.182448 1_556
Hf12 Hf8 3.182448 1_556
Hf12 Hf4 3.185907 1_655
Hf12 Hf9 3.185907 1_655
Hf13 Ni1 2.553733 1_555
Hf13 Re3 2.959587 1_565
Hf13 Re1 2.959591 1_565
Hf13 Hf4 3.170641 1_565
Hf13 Hf9 3.170641 1_555
Hf13 Hf8 3.203234 1_565
Hf13 Hf5 3.203234 1_555
Hf14 Ni2 2.553733 1_555
Hf14 Re2 2.959584 1_566
Hf14 Re1 2.959584 1_566
Hf14 Hf4 3.170641 1_565
Hf14 Hf6 3.170641 1_556
Hf14 Hf7 3.203234 1_565
Hf14 Hf5 3.203234 1_556
Hf15 Ni1 2.547225 1_555
Hf15 Ni0 2.547225 1_555
Hf15 Re3 2.923323 1_655
Hf15 Re0 2.927471 1_655
Hf15 Hf7 3.182448 1_555
Hf15 Hf5 3.182448 1_555
Hf15 Hf4 3.185907 1_655
Hf15 Hf6 3.185907 1_655
Co0 Hf11 2.514063 1_555
Co0 Hf13 2.514063 1_555
Co0 Hf14 2.514069 1_555
Co0 Hf3 2.549449 1_566
Co0 Hf2 2.549454 1_565
Co0 Hf1 2.549454 1_556
Co0 Hf9 3.122778 1_555
Co0 Hf4 3.122785 1_565
Co0 Hf6 3.122786 1_556
Re0 Re1 2.837131 1_555
Re0 Re2 2.837131 1_555
Re0 Re3 2.837140 1_555
Re1 Re3 2.842333 1_555
Re1 Re2 2.842333 1_555
Re2 Re3 2.842333 1_555
