# generated using pymatgen
data_Hf6Al16IrPt6
_symmetry_space_group_name_H-M   'P 1'
_cell_length_a   8.68149224
_cell_length_b   8.68149069
_cell_length_c   8.68148776
_cell_angle_alpha   60.00000743
_cell_angle_beta   60.00001334
_cell_angle_gamma   59.99999043
_symmetry_Int_Tables_number   1
_chemical_formula_structural   Hf6Al16IrPt6
_chemical_formula_sum   'Hf6 Al16 Ir1 Pt6'
_cell_volume   462.66631484
_cell_formula_units_Z   1
loop_
 _symmetry_equiv_pos_site_id
 _symmetry_equiv_pos_as_xyz
  1  'x, y, z'
loop_
 _atom_site_type_symbol
 _atom_site_label
 _atom_site_symmetry_multiplicity
 _atom_site_fract_x
 _atom_site_fract_y
 _atom_site_fract_z
 _atom_site_occupancy
  Hf  Hf0  1  0.68215536  0.31784464  0.31784464  1
  Hf  Hf1  1  0.31784464  0.68215536  0.68215536  1
  Hf  Hf2  1  0.31784464  0.68215536  0.31784464  1
  Hf  Hf3  1  0.68215536  0.31784464  0.68215536  1
  Hf  Hf4  1  0.31784464  0.31784464  0.68215536  1
  Hf  Hf5  1  0.68215536  0.68215536  0.31784464  1
  Al  Al0  1  0.33463383  0.33463483  0.33463383  1
  Al  Al1  1  0.66536617  0.66536517  0.66536617  1
  Al  Al2  1  0.33463383  0.33463483  0.99609652  1
  Al  Al3  1  0.33463383  0.99609652  0.33463483  1
  Al  Al4  1  0.66536617  0.66536517  0.00390348  1
  Al  Al5  1  0.66536617  0.00390348  0.66536517  1
  Al  Al6  1  0.99609652  0.33463483  0.33463483  1
  Al  Al7  1  0.00390348  0.66536517  0.66536517  1
  Al  Al8  1  0.11890618  0.11890618  0.11890718  1
  Al  Al9  1  0.88109382  0.88109382  0.88109282  1
  Al  Al10  1  0.11890618  0.11890618  0.64328047  1
  Al  Al11  1  0.11890618  0.64328047  0.11890618  1
  Al  Al12  1  0.88109382  0.88109382  0.35671953  1
  Al  Al13  1  0.88109382  0.35671953  0.88109382  1
  Al  Al14  1  0.64328047  0.11890618  0.11890718  1
  Al  Al15  1  0.35671953  0.88109382  0.88109282  1
  Ir  Ir0  1  0.00000000  0.00000000  0.00000000  1
  Pt  Pt0  1  0.50000000  0.00000000  0.00000000  1
  Pt  Pt1  1  0.00000000  0.50000000  0.50000000  1
  Pt  Pt2  1  0.00000000  0.50000000  0.00000000  1
  Pt  Pt3  1  0.50000000  0.00000000  0.50000000  1
  Pt  Pt4  1  0.00000000  0.00000000  0.50000000  1
  Pt  Pt5  1  0.50000000  0.50000000  0.00000000  1
loop_
_geom_bond_atom_site_label_1
_geom_bond_atom_site_label_2
_geom_bond_distance
_geom_bond_site_symmetry_2
Hf0 Hf3 3.162759 1_555
Hf0 Hf2 3.162760 1_555
Hf0 Hf5 3.162760 1_555
Hf0 Hf4 3.162760 1_555
Hf0 Pt5 3.180386 1_555
Hf0 Pt4 3.180386 1_655
Hf0 Pt3 3.180388 1_555
Hf0 Pt2 3.180388 1_655
Hf1 Hf2 3.162759 1_555
Hf1 Hf3 3.162760 1_555
Hf1 Hf4 3.162760 1_555
Hf1 Hf5 3.162760 1_555
Hf1 Pt5 3.180386 1_556
Hf1 Pt4 3.180386 1_565
Hf1 Pt3 3.180388 1_565
Hf1 Pt2 3.180388 1_556
Hf2 Hf4 3.162760 1_555
Hf2 Hf5 3.162761 1_555
Hf2 Pt5 3.180386 1_555
Hf2 Pt4 3.180386 1_565
Hf2 Pt0 3.180387 1_565
Hf2 Pt1 3.180388 1_555
Hf3 Hf5 3.162760 1_555
Hf3 Hf4 3.162761 1_555
Hf3 Pt5 3.180386 1_556
Hf3 Pt4 3.180386 1_655
Hf3 Pt0 3.180387 1_556
Hf3 Pt1 3.180388 1_655
Hf4 Pt0 3.180386 1_556
Hf4 Pt3 3.180386 1_555
Hf4 Pt2 3.180386 1_556
Hf4 Pt1 3.180386 1_555
Hf5 Pt0 3.180386 1_565
Hf5 Pt3 3.180386 1_565
Hf5 Pt2 3.180386 1_655
Hf5 Pt1 3.180386 1_655
Al0 Pt5 2.506281 1_555
Al0 Pt1 2.506281 1_555
Al0 Pt3 2.506288 1_555
Al0 Hf2 2.878631 1_555
Al0 Hf4 2.878634 1_555
Al0 Hf0 2.878636 1_555
Al1 Pt5 2.506281 1_556
Al1 Pt1 2.506281 1_655
Al1 Pt3 2.506288 1_565
Al1 Hf3 2.878631 1_555
Al1 Hf5 2.878634 1_555
Al1 Hf1 2.878636 1_555
Al2 Pt2 2.506278 1_556
Al2 Pt0 2.506286 1_556
Al2 Pt5 2.506286 1_556
Al2 Hf4 2.878626 1_555
Al2 Hf1 2.878627 1_555
Al2 Hf3 2.878632 1_555
Al3 Pt4 2.506279 1_565
Al3 Pt0 2.506285 1_565
Al3 Pt3 2.506285 1_565
Al3 Hf1 2.878627 1_555
Al3 Hf2 2.878627 1_555
Al3 Hf5 2.878631 1_555
Al4 Pt2 2.506278 1_655
Al4 Pt0 2.506286 1_565
Al4 Pt5 2.506286 1_555
Al4 Hf5 2.878626 1_555
Al4 Hf0 2.878627 1_555
Al4 Hf2 2.878632 1_555
Al5 Pt4 2.506279 1_655
Al5 Pt0 2.506285 1_556
Al5 Pt3 2.506285 1_555
Al5 Hf0 2.878627 1_555
Al5 Hf3 2.878627 1_555
Al5 Hf4 2.878631 1_555
Al6 Pt1 2.506278 1_655
Al6 Pt2 2.506285 1_655
Al6 Pt4 2.506286 1_655
Al6 Hf5 2.878627 1_555
Al6 Hf3 2.878627 1_555
Al6 Hf0 2.878632 1_555
Al7 Pt1 2.506278 1_555
Al7 Pt2 2.506285 1_556
Al7 Pt4 2.506286 1_565
Al7 Hf4 2.878627 1_555
Al7 Hf2 2.878627 1_555
Al7 Hf1 2.878632 1_555
Al8 Ir0 2.528573 1_555
Al8 Pt4 2.704102 1_555
Al8 Pt2 2.704109 1_555
Al8 Pt0 2.704110 1_555
Al8 Hf2 3.198132 1_545
Al8 Hf0 3.198132 1_455
Al8 Hf4 3.198139 1_554
Al9 Ir0 2.528573 1_666
Al9 Pt4 2.704102 1_665
Al9 Pt2 2.704109 1_656
Al9 Pt0 2.704110 1_566
Al9 Hf3 3.198132 1_565
Al9 Hf1 3.198132 1_655
Al9 Hf5 3.198139 1_556
Al10 Ir0 2.528573 1_556
Al10 Pt4 2.704102 1_555
Al10 Pt1 2.704109 1_555
Al10 Pt3 2.704110 1_555
Al10 Hf1 3.198132 1_545
Al10 Hf3 3.198132 1_455
Al10 Hf4 3.198140 1_555
Al11 Ir0 2.528573 1_565
Al11 Pt2 2.704102 1_555
Al11 Pt1 2.704109 1_555
Al11 Pt5 2.704110 1_555
Al11 Hf1 3.198131 1_554
Al11 Hf5 3.198133 1_455
Al11 Hf2 3.198139 1_555
Al12 Ir0 2.528573 1_665
Al12 Pt4 2.704102 1_665
Al12 Pt1 2.704109 1_655
Al12 Pt3 2.704110 1_565
Al12 Hf0 3.198132 1_565
Al12 Hf2 3.198132 1_655
Al12 Hf5 3.198140 1_555
Al13 Ir0 2.528573 1_656
Al13 Pt2 2.704102 1_656
Al13 Pt1 2.704109 1_655
Al13 Pt5 2.704110 1_556
Al13 Hf0 3.198131 1_556
Al13 Hf4 3.198133 1_655
Al13 Hf3 3.198139 1_555
Al14 Ir0 2.528574 1_655
Al14 Pt3 2.704102 1_555
Al14 Pt5 2.704109 1_555
Al14 Pt0 2.704109 1_555
Al14 Hf0 3.198131 1_555
Al14 Hf5 3.198132 1_545
Al14 Hf3 3.198139 1_554
Al15 Ir0 2.528574 1_566
Al15 Pt3 2.704102 1_565
Al15 Pt5 2.704109 1_556
Al15 Pt0 2.704109 1_566
Al15 Hf1 3.198131 1_555
Al15 Hf4 3.198132 1_565
Al15 Hf2 3.198139 1_556
