# generated using pymatgen
data_Hf4ZrSn3
_symmetry_space_group_name_H-M   'P 1'
_cell_length_a   8.44103816
_cell_length_b   8.40847202
_cell_length_c   5.72066385
_cell_angle_alpha   90.00000000
_cell_angle_beta   90.00000000
_cell_angle_gamma   120.12811015
_symmetry_Int_Tables_number   1
_chemical_formula_structural   Hf4ZrSn3
_chemical_formula_sum   'Hf8 Zr2 Sn6'
_cell_volume   351.17849944
_cell_formula_units_Z   2
loop_
 _symmetry_equiv_pos_site_id
 _symmetry_equiv_pos_as_xyz
  1  'x, y, z'
loop_
 _atom_site_type_symbol
 _atom_site_label
 _atom_site_symmetry_multiplicity
 _atom_site_fract_x
 _atom_site_fract_y
 _atom_site_fract_z
 _atom_site_occupancy
  Hf  Hf0  1  0.75468637  0.75527778  0.25000000  1
  Hf  Hf1  1  0.99937903  0.24472083  0.25000000  1
  Hf  Hf2  1  0.75037543  0.00004872  0.74999900  1
  Hf  Hf3  1  0.24968180  0.00004570  0.25000000  1
  Hf  Hf4  1  0.33292845  0.66620991  0.49988620  1
  Hf  Hf5  1  0.66668814  0.33374264  0.00011154  1
  Hf  Hf6  1  0.66668814  0.33374264  0.49988846  1
  Hf  Hf7  1  0.33292845  0.66620991  0.00011380  1
  Zr  Zr0  1  0.99995681  0.75428392  0.74999900  1
  Zr  Zr1  1  0.24570057  0.24571232  0.74999900  1
  Sn  Sn0  1  0.99908967  0.39166241  0.74999900  1
  Sn  Sn1  1  0.60744234  0.60838696  0.74999900  1
  Sn  Sn2  1  0.39273347  0.39266144  0.25000000  1
  Sn  Sn3  1  0.00010346  0.60738133  0.25000000  1
  Sn  Sn4  1  0.39377317  0.99995222  0.74999900  1
  Sn  Sn5  1  0.60784870  0.99996228  0.25000000  1
loop_
_geom_bond_atom_site_label_1
_geom_bond_atom_site_label_2
_geom_bond_distance
_geom_bond_site_symmetry_2
Hf0 Sn5 2.886039 1_555
Hf0 Sn3 2.902425 1_655
Hf0 Sn2 3.046247 1_555
Hf0 Sn1 3.116202 1_555
Hf0 Sn1 3.116213 1_554
Hf1 Sn5 2.886184 1_545
Hf1 Sn2 2.902694 1_655
Hf1 Sn3 3.046356 1_655
Hf1 Sn0 3.116263 1_555
Hf1 Sn0 3.116274 1_554
Hf2 Sn0 2.882826 1_555
Hf2 Sn1 2.883157 1_545
Hf2 Sn4 3.009686 1_545
Hf2 Sn5 3.102898 1_545
Hf2 Sn5 3.102908 1_546
Hf3 Sn2 2.890481 1_555
Hf3 Sn3 2.890818 1_545
Hf3 Sn5 3.023653 1_545
Hf3 Sn4 3.108338 1_545
Hf3 Sn4 3.108349 1_544
Hf4 Hf7 2.859030 1_555
Hf4 Hf7 2.861634 1_556
Hf4 Sn4 2.956223 1_555
Hf4 Sn2 2.958811 1_555
Hf4 Sn5 2.960860 1_555
Hf4 Sn1 2.963769 1_555
Hf4 Sn3 2.964085 1_555
Hf4 Sn0 2.964262 1_455
Hf5 Hf6 2.859056 1_555
Hf5 Hf6 2.861608 1_554
Hf5 Sn4 2.956495 1_544
Hf5 Sn3 2.959341 1_655
Hf5 Sn5 2.961048 1_545
Hf5 Sn0 2.963988 1_554
Hf5 Sn2 2.964209 1_555
Hf5 Sn1 2.964746 1_554
Hf6 Sn4 2.956490 1_545
Hf6 Sn3 2.959341 1_655
Hf6 Sn5 2.961048 1_545
Hf6 Sn0 2.963983 1_555
Hf6 Sn2 2.964209 1_555
Hf6 Sn1 2.964741 1_555
Hf7 Sn4 2.956229 1_554
Hf7 Sn2 2.958811 1_555
Hf7 Sn5 2.960860 1_555
Hf7 Sn1 2.963775 1_554
Hf7 Sn3 2.964085 1_555
Hf7 Sn0 2.964268 1_454
Sn0 Zr1 2.898942 1_655
Sn0 Zr0 3.045425 1_555
Sn1 Zr0 2.898647 1_555
Sn1 Zr1 3.045599 1_555
Sn2 Zr1 3.115943 1_555
Sn2 Zr1 3.115953 1_554
Sn3 Zr0 3.115893 1_455
Sn3 Zr0 3.115903 1_454
Sn4 Zr0 2.902435 1_455
Sn4 Zr1 2.902645 1_565
