# generated using pymatgen
data_Ga12CoRe2Rh
_symmetry_space_group_name_H-M   'P 1'
_cell_length_a   6.43515140
_cell_length_b   6.43872820
_cell_length_c   6.77095229
_cell_angle_alpha   90.00000000
_cell_angle_beta   90.00000000
_cell_angle_gamma   90.25839402
_symmetry_Int_Tables_number   1
_chemical_formula_structural   Ga12CoRe2Rh
_chemical_formula_sum   'Ga12 Co1 Re2 Rh1'
_cell_volume   280.54607613
_cell_formula_units_Z   1
loop_
 _symmetry_equiv_pos_site_id
 _symmetry_equiv_pos_as_xyz
  1  'x, y, z'
loop_
 _atom_site_type_symbol
 _atom_site_label
 _atom_site_symmetry_multiplicity
 _atom_site_fract_x
 _atom_site_fract_y
 _atom_site_fract_z
 _atom_site_occupancy
  Ga  Ga0  1  0.49365116  0.99366989  0.00000000  1
  Ga  Ga1  1  0.49812899  0.00314440  0.50000000  1
  Ga  Ga2  1  0.01416910  0.50478934  0.00000000  1
  Ga  Ga3  1  0.99883577  0.50397303  0.50000000  1
  Ga  Ga4  1  0.65886133  0.35061097  0.73945673  1
  Ga  Ga5  1  0.84488335  0.84447835  0.76645928  1
  Ga  Ga6  1  0.15536599  0.14935116  0.76885265  1
  Ga  Ga7  1  0.34115958  0.66434999  0.73898777  1
  Ga  Ga8  1  0.34115958  0.66434999  0.26101223  1
  Ga  Ga9  1  0.65886133  0.35061097  0.26054327  1
  Ga  Ga10  1  0.84488335  0.84447835  0.23354072  1
  Ga  Ga11  1  0.15536599  0.14935116  0.23114735  1
  Co  Co0  1  0.16439042  0.83386113  0.00000000  1
  Re  Re0  1  0.84660541  0.15199034  0.00000000  1
  Re  Re1  1  0.65200216  0.65615782  0.50000000  1
  Rh  Rh0  1  0.33167851  0.33483210  0.50000000  1
loop_
_geom_bond_atom_site_label_1
_geom_bond_atom_site_label_2
_geom_bond_distance
_geom_bond_site_symmetry_2
Ga0 Re0 2.485382 1_565
Ga1 Rh0 2.393522 1_555
Ga1 Re1 2.447832 1_545
Ga2 Re0 2.510118 1_455
Ga3 Rh0 2.407235 1_655
Ga3 Re1 2.441594 1_555
Ga4 Re0 2.494238 1_556
Ga4 Re1 2.549884 1_555
Ga4 Rh0 2.658980 1_555
Ga5 Re1 2.500478 1_555
Ga5 Re0 2.533921 1_566
Ga6 Rh0 2.452583 1_555
Ga6 Re0 2.529417 1_456
Ga7 Re1 2.573616 1_555
Ga7 Rh0 2.668811 1_555
Ga8 Re1 2.573616 1_555
Ga8 Rh0 2.668811 1_555
Ga9 Re0 2.494238 1_555
Ga9 Re1 2.549884 1_555
Ga9 Rh0 2.658980 1_555
Ga10 Re1 2.500478 1_555
Ga10 Re0 2.533921 1_565
Ga11 Rh0 2.452583 1_555
Ga11 Re0 2.529417 1_455
Co0 Ga2 2.324943 1_555
Co0 Ga0 2.351297 1_555
Co0 Ga8 2.370606 1_555
Co0 Ga7 2.370606 1_554
Co0 Ga11 2.565217 1_565
Co0 Ga6 2.565217 1_564
Co0 Ga10 2.594972 1_455
Co0 Ga5 2.594972 1_454
Re1 Rh0 2.913947 1_555
