# generated using pymatgen
data_Sc22Tc5IrRh2
_symmetry_space_group_name_H-M   'P 1'
_cell_length_a   9.47848055
_cell_length_b   9.54281254
_cell_length_c   9.47848206
_cell_angle_alpha   59.77523083
_cell_angle_beta   60.44954367
_cell_angle_gamma   59.77523478
_symmetry_Int_Tables_number   1
_chemical_formula_structural   Sc22Tc5IrRh2
_chemical_formula_sum   'Sc22 Tc5 Ir1 Rh2'
_cell_volume   606.17588369
_cell_formula_units_Z   1
loop_
 _symmetry_equiv_pos_site_id
 _symmetry_equiv_pos_as_xyz
  1  'x, y, z'
loop_
 _atom_site_type_symbol
 _atom_site_label
 _atom_site_symmetry_multiplicity
 _atom_site_fract_x
 _atom_site_fract_y
 _atom_site_fract_z
 _atom_site_occupancy
  Sc  Sc0  1  0.80107796  0.80107796  0.19892204  1
  Sc  Sc1  1  0.19380668  0.80619332  0.19380668  1
  Sc  Sc2  1  0.80107796  0.19892204  0.19892204  1
  Sc  Sc3  1  0.19892204  0.19892204  0.80107796  1
  Sc  Sc4  1  0.80619332  0.19380668  0.80619332  1
  Sc  Sc5  1  0.19892204  0.80107796  0.80107796  1
  Sc  Sc6  1  0.61182516  0.61898724  0.15020136  1
  Sc  Sc7  1  0.61898724  0.15020136  0.61898724  1
  Sc  Sc8  1  0.15020136  0.61898724  0.61182516  1
  Sc  Sc9  1  0.61898724  0.61182516  0.61898724  1
  Sc  Sc10  1  0.38817484  0.38101276  0.84979864  1
  Sc  Sc11  1  0.38101276  0.84979864  0.38101276  1
  Sc  Sc12  1  0.84979864  0.38101276  0.38817484  1
  Sc  Sc13  1  0.38101276  0.38817484  0.38101276  1
  Sc  Sc14  1  0.84076565  0.84536387  0.46850560  1
  Sc  Sc15  1  0.84536387  0.46850560  0.84536387  1
  Sc  Sc16  1  0.46850560  0.84536387  0.84076565  1
  Sc  Sc17  1  0.84536387  0.84076565  0.84536387  1
  Sc  Sc18  1  0.15923435  0.15463613  0.53149440  1
  Sc  Sc19  1  0.15463613  0.53149440  0.15463613  1
  Sc  Sc20  1  0.53149440  0.15463613  0.15923435  1
  Sc  Sc21  1  0.15463613  0.15923435  0.15463613  1
  Tc  Tc0  1  0.00000000  0.00000000  0.00000000  1
  Tc  Tc1  1  0.00000000  0.00000000  0.50000000  1
  Tc  Tc2  1  0.00000000  0.50000000  0.50000000  1
  Tc  Tc3  1  0.50000000  0.50000000  0.00000000  1
  Tc  Tc4  1  0.50000000  0.00000000  0.00000000  1
  Ir  Ir0  1  0.50000000  0.50000000  0.50000000  1
  Rh  Rh0  1  0.50000000  0.00000000  0.50000000  1
  Rh  Rh1  1  0.00000000  0.50000000  0.00000000  1
loop_
_geom_bond_atom_site_label_1
_geom_bond_atom_site_label_2
_geom_bond_distance
_geom_bond_site_symmetry_2
Sc0 Tc0 2.684567 1_665
Sc0 Sc14 3.007454 1_555
Sc0 Sc19 3.007459 1_655
Sc0 Sc20 3.007460 1_565
Sc0 Sc17 3.007463 1_554
Sc0 Sc6 3.348693 1_555
Sc0 Sc9 3.348700 1_555
Sc0 Sc11 3.348702 1_555
Sc0 Sc12 3.348702 1_555
Sc1 Tc0 2.580148 1_565
Sc1 Sc19 3.040254 1_555
Sc1 Sc14 3.040260 1_455
Sc1 Sc16 3.040261 1_554
Sc1 Sc21 3.040264 1_565
Sc1 Sc11 3.326083 1_555
Sc1 Sc13 3.326090 1_555
Sc1 Sc6 3.326092 1_555
Sc1 Sc8 3.326092 1_555
Sc2 Tc0 2.684568 1_655
Sc2 Sc20 3.007453 1_555
Sc2 Sc21 3.007463 1_655
Sc2 Sc6 3.348702 1_555
Sc2 Sc7 3.348702 1_555
Sc3 Tc0 2.684567 1_556
Sc3 Sc7 3.348702 1_555
Sc3 Sc8 3.348702 1_555
Sc4 Tc0 2.580148 1_656
Sc4 Sc7 3.326083 1_555
Sc4 Sc9 3.326090 1_555
Sc5 Tc0 2.684568 1_566
Sc5 Sc8 3.348694 1_555
Sc5 Sc9 3.348700 1_555
Sc6 Tc4 2.960954 1_565
Sc6 Tc3 2.960961 1_555
Sc7 Tc1 2.960954 1_655
Sc7 Tc4 2.960954 1_556
Sc8 Tc1 2.960954 1_565
Sc8 Tc2 2.960961 1_555
Sc9 Tc2 2.960953 1_655
Sc9 Tc3 2.960954 1_556
Sc10 Tc4 2.960954 1_556
Sc10 Tc3 2.960961 1_556
Sc10 Sc7 3.114933 1_555
Sc10 Sc9 3.114946 1_555
Sc10 Sc20 3.116249 1_556
Sc10 Sc21 3.158940 1_556
Sc10 Sc19 3.158952 1_556
Sc10 Sc8 3.168140 1_555
Sc10 Sc4 3.326092 1_555
Sc10 Sc3 3.348693 1_555
Sc10 Sc5 3.348702 1_555
Sc11 Tc1 2.960954 1_565
Sc11 Tc4 2.960954 1_565
Sc11 Sc8 3.114932 1_555
Sc11 Sc6 3.114933 1_555
Sc11 Sc21 3.116238 1_565
Sc11 Sc20 3.158951 1_565
Sc11 Sc18 3.158952 1_565
Sc11 Sc9 3.168154 1_555
Sc11 Sc5 3.348702 1_555
Sc12 Tc1 2.960954 1_655
Sc12 Tc2 2.960961 1_655
Sc12 Sc7 3.114932 1_555
Sc12 Sc9 3.114946 1_555
Sc12 Sc18 3.116248 1_655
Sc12 Sc21 3.158941 1_655
Sc12 Sc19 3.158951 1_655
Sc12 Sc6 3.168140 1_555
Sc12 Sc4 3.326092 1_555
Sc12 Sc2 3.348694 1_555
Sc13 Tc2 2.960953 1_555
Sc13 Tc3 2.960954 1_555
Sc13 Sc6 3.114946 1_555
Sc13 Sc8 3.114946 1_555
Sc13 Sc19 3.116233 1_555
Sc13 Sc18 3.158936 1_555
Sc13 Sc20 3.158936 1_555
Sc13 Sc7 3.168154 1_555
Sc13 Sc2 3.348700 1_555
Sc13 Sc3 3.348700 1_555
Sc14 Tc2 2.770360 1_655
Sc14 Tc1 2.770368 1_665
Sc14 Sc2 3.007460 1_565
Sc14 Sc8 3.116248 1_655
Sc14 Sc9 3.158936 1_555
Sc14 Sc7 3.158952 1_565
Sc15 Tc3 2.770360 1_556
Sc15 Tc2 2.770360 1_655
Sc15 Sc3 3.007459 1_655
Sc15 Sc2 3.007460 1_556
Sc15 Sc4 3.040254 1_555
Sc15 Sc9 3.116233 1_555
Sc15 Sc8 3.158951 1_655
Sc15 Sc6 3.158952 1_556
Sc16 Tc3 2.770360 1_556
Sc16 Tc4 2.770368 1_566
Sc16 Sc5 3.007453 1_555
Sc16 Sc3 3.007460 1_565
Sc16 Sc6 3.116249 1_556
Sc16 Sc9 3.158936 1_555
Sc16 Sc7 3.158951 1_565
Sc17 Tc4 2.770362 1_566
Sc17 Tc1 2.770362 1_665
Sc17 Sc5 3.007463 1_655
Sc17 Sc4 3.040264 1_565
Sc17 Sc7 3.116238 1_565
Sc17 Sc6 3.158940 1_556
Sc17 Sc8 3.158941 1_655
Sc18 Tc2 2.770360 1_555
Sc18 Tc1 2.770368 1_555
Sc18 Sc3 3.007454 1_555
Sc18 Sc5 3.007460 1_545
Sc18 Sc4 3.040260 1_455
Sc19 Tc3 2.770360 1_555
Sc19 Tc2 2.770360 1_555
Sc19 Sc5 3.007460 1_554
Sc20 Tc3 2.770360 1_555
Sc20 Tc4 2.770368 1_555
Sc20 Sc4 3.040261 1_554
Sc21 Tc4 2.770362 1_555
Sc21 Tc1 2.770362 1_555
Sc21 Sc3 3.007463 1_554
Ir0 Sc12 2.713061 1_555
Ir0 Sc8 2.713061 1_555
Ir0 Sc11 2.713061 1_555
Ir0 Sc7 2.713061 1_555
Ir0 Sc10 2.713062 1_555
Ir0 Sc6 2.713062 1_555
Ir0 Sc9 2.713069 1_555
Ir0 Sc13 2.713069 1_555
Rh0 Sc14 2.719006 1_545
Rh0 Sc18 2.719006 1_555
Rh0 Sc16 2.719007 1_545
Rh0 Sc20 2.719007 1_555
Rh0 Sc13 3.017958 1_555
Rh0 Sc9 3.017958 1_545
Rh0 Sc7 3.017966 1_555
Rh0 Sc11 3.017966 1_545
Rh1 Sc17 2.719009 1_454
Rh1 Sc21 2.719009 1_555
Rh1 Sc19 2.719015 1_555
Rh1 Sc15 2.719015 1_454
Rh1 Sc10 3.017958 1_554
Rh1 Sc6 3.017958 1_455
Rh1 Sc12 3.017958 1_455
Rh1 Sc8 3.017958 1_554
