# generated using pymatgen
data_Ti8Al15Fe6Pt
_symmetry_space_group_name_H-M   'P 1'
_cell_length_a   8.46849894
_cell_length_b   8.46954511
_cell_length_c   8.49181745
_cell_angle_alpha   120.30495891
_cell_angle_beta   119.75760615
_cell_angle_gamma   89.74308340
_symmetry_Int_Tables_number   1
_chemical_formula_structural   Ti8Al15Fe6Pt
_chemical_formula_sum   'Ti8 Al15 Fe6 Pt1'
_cell_volume   431.21860069
_cell_formula_units_Z   1
loop_
 _symmetry_equiv_pos_site_id
 _symmetry_equiv_pos_as_xyz
  1  'x, y, z'
loop_
 _atom_site_type_symbol
 _atom_site_label
 _atom_site_symmetry_multiplicity
 _atom_site_fract_x
 _atom_site_fract_y
 _atom_site_fract_z
 _atom_site_occupancy
  Ti  Ti0  1  0.79047652  0.28153330  0.06717713  1
  Ti  Ti1  1  0.22074827  0.28597344  0.49191102  1
  Ti  Ti2  1  0.21906792  0.70658384  0.49829513  1
  Ti  Ti3  1  0.21194009  0.72123554  0.93267008  1
  Ti  Ti4  1  0.78501293  0.71936715  0.50892743  1
  Ti  Ti5  1  0.77635985  0.28707338  0.50156424  1
  Ti  Ti6  1  0.38923604  0.12627509  0.74731887  1
  Ti  Ti7  1  0.38235960  0.64110568  0.25938318  1
  Al  Al0  1  0.99701281  0.49701867  0.49991902  1
  Al  Al1  1  0.15993515  0.33960175  0.17647559  1
  Al  Al2  1  0.16326966  0.97250005  0.82096176  1
  Al  Al3  1  0.15841490  0.35260433  0.81569843  1
  Al  Al4  1  0.52933063  0.34299043  0.18486454  1
  Al  Al5  1  0.83871614  0.65983988  0.81966115  1
  Al  Al6  1  0.84039996  0.03007908  0.18162369  1
  Al  Al7  1  0.83780187  0.64797646  0.18158852  1
  Al  Al8  1  0.47444605  0.65739705  0.81944566  1
  Al  Al9  1  0.38280061  0.11862071  0.26029154  1
  Al  Al10  1  0.85707672  0.12156257  0.73959875  1
  Al  Al11  1  0.61351572  0.87490843  0.25317795  1
  Al  Al12  1  0.61997816  0.36252138  0.74409302  1
  Al  Al13  1  0.61709798  0.87911628  0.73881859  1
  Al  Al14  1  0.14091002  0.87741484  0.25933875  1
  Fe  Fe0  1  0.50074744  0.00106308  0.99947160  1
  Fe  Fe1  1  0.49788304  0.49701220  0.99950893  1
  Fe  Fe2  1  0.49735783  0.49891906  0.49821318  1
  Fe  Fe3  1  0.00006226  0.50034755  0.00005837  1
  Fe  Fe4  1  0.00093015  0.99958177  0.99900746  1
  Fe  Fe5  1  0.49864931  0.99997025  0.50060118  1
  Pt  Pt0  1  0.99846039  0.99980675  0.50033522  1
loop_
_geom_bond_atom_site_label_1
_geom_bond_atom_site_label_2
_geom_bond_distance
_geom_bond_site_symmetry_2
Ti0 Ti6 2.815390 1_554
Ti1 Ti6 2.905283 1_555
Ti2 Ti7 2.824600 1_555
Ti2 Ti6 2.935742 1_565
Ti3 Ti7 2.856123 1_556
Ti4 Ti7 2.826132 1_555
Al0 Ti5 2.595078 1_555
Al0 Ti4 2.595392 1_555
Al0 Ti1 2.600843 1_655
Al0 Ti2 2.601363 1_655
Al0 Ti3 2.602338 1_655
Al0 Ti0 2.602682 1_555
Al1 Fe3 2.441166 1_555
Al1 Fe2 2.452498 1_555
Al1 Fe4 2.453184 1_544
Al1 Al10 2.726670 1_454
Al1 Ti2 2.731860 1_555
Al1 Ti7 2.734386 1_555
Al1 Ti1 2.739146 1_555
Al1 Al9 2.747870 1_555
Al1 Ti0 2.750084 1_455
Al2 Fe0 2.420701 1_565
Al2 Fe4 2.437016 1_555
Al2 Pt0 2.504989 1_455
Al2 Ti3 2.690698 1_555
Al2 Al9 2.717031 1_566
Al2 Ti4 2.789507 1_455
Al2 Ti6 2.789519 1_565
Al2 Ti2 2.802002 1_555
Al3 Fe1 2.418109 1_555
Al3 Fe3 2.430429 1_556
Al3 Pt0 2.508917 1_445
Al3 Ti3 2.715850 1_555
Al3 Ti7 2.724028 1_556
Al3 Ti6 2.793271 1_555
Al3 Ti5 2.801161 1_455
Al3 Ti1 2.833593 1_555
Al4 Fe1 2.429627 1_554
Al4 Fe0 2.439379 1_554
Al4 Fe2 2.462383 1_555
Al4 Ti6 2.709804 1_554
Al4 Ti7 2.732365 1_555
Al4 Ti5 2.743169 1_555
Al4 Al9 2.756762 1_555
Al4 Ti4 2.777933 1_555
Al4 Ti0 2.796268 1_555
Al5 Fe4 2.454045 1_655
Al5 Fe3 2.456104 1_656
Al5 Fe2 2.472466 1_555
Al5 Ti5 2.745073 1_555
Al5 Ti4 2.751913 1_555
Al5 Ti3 2.771512 1_655
Al6 Fe0 2.435688 1_554
Al6 Fe4 2.450496 1_644
Al6 Pt0 2.506664 1_545
Al6 Ti0 2.707724 1_555
Al6 Ti1 2.808796 1_655
Al6 Ti5 2.810197 1_555
Al7 Fe1 2.435470 1_554
Al7 Fe3 2.443337 1_655
Al7 Pt0 2.509545 1_555
Al7 Ti0 2.705266 1_555
Al7 Ti4 2.797693 1_555
Al7 Ti2 2.819849 1_655
Al8 Fe1 2.452580 1_555
Al8 Fe0 2.456819 1_565
Al8 Fe2 2.471506 1_555
Al8 Ti1 2.747090 1_555
Al8 Ti2 2.751702 1_555
Al8 Ti3 2.782976 1_555
Al9 Fe5 2.491998 1_545
Al9 Fe0 2.618412 1_554
Al9 Fe2 2.629173 1_555
Al9 Fe4 2.654512 1_544
Al9 Ti1 2.758511 1_555
Al9 Ti5 2.766844 1_555
Al9 Ti3 2.785554 1_544
Al10 Fe5 2.489266 1_545
Al10 Fe3 2.620233 1_656
Al10 Pt0 2.629515 1_545
Al10 Fe4 2.650578 1_645
Al10 Ti0 2.763836 1_556
Al10 Al2 2.804892 1_645
Al10 Al3 2.808995 1_655
Al10 Ti4 2.812665 1_545
Al10 Ti5 2.828000 1_555
Al10 Al12 2.856330 1_555
Al10 Al13 2.890838 1_545
Al10 Al11 2.924586 1_545
Al11 Fe5 2.501256 1_555
Al11 Fe1 2.611373 1_554
Al11 Fe0 2.639474 1_564
Al11 Pt0 2.673866 1_555
Al11 Al8 2.685600 1_554
Al11 Al7 2.757818 1_555
Al11 Al6 2.788461 1_565
Al11 Ti3 2.818420 1_554
Al11 Ti7 2.828149 1_555
Al11 Al9 2.834929 1_565
Al11 Ti5 2.874308 1_565
Al11 Ti4 2.881063 1_555
Al12 Fe5 2.504336 1_545
Al12 Fe1 2.606368 1_555
Al12 Fe3 2.641136 1_656
Al12 Fe2 2.653998 1_555
Al12 Al7 2.687487 1_556
Al12 Al8 2.703351 1_555
Al12 Al5 2.723098 1_555
Al12 Ti5 2.788444 1_555
Al12 Ti1 2.805019 1_555
Al12 Ti6 2.822433 1_555
Al12 Ti0 2.835576 1_556
Al12 Al9 2.908803 1_555
Al13 Fe5 2.492429 1_555
Al13 Fe0 2.604891 1_565
Al13 Fe2 2.627681 1_555
Al13 Fe4 2.667194 1_655
Al13 Al5 2.723806 1_555
Al13 Al6 2.731515 1_566
Al13 Al8 2.755623 1_555
Al13 Ti4 2.781450 1_555
Al13 Ti2 2.804771 1_555
Al13 Ti0 2.817275 1_566
Al13 Ti6 2.839067 1_565
Al13 Ti7 2.882723 1_555
Al14 Fe5 2.484677 1_555
Al14 Fe3 2.607767 1_555
Al14 Pt0 2.648857 1_455
Al14 Fe4 2.656884 1_554
Al14 Al5 2.738436 1_454
Al14 Al6 2.783563 1_465
Al14 Ti3 2.784379 1_554
Al14 Al7 2.805088 1_455
Al14 Ti1 2.851302 1_565
Al14 Ti7 2.854800 1_555
Al14 Ti2 2.875794 1_555
Al14 Al9 2.893798 1_565
Al14 Ti6 2.934490 1_565
Fe0 Ti6 2.622358 1_555
Fe0 Ti3 3.039485 1_545
Fe0 Ti5 3.040299 1_556
Fe0 Ti0 3.044173 1_556
Fe0 Ti2 3.047429 1_545
Fe1 Ti6 2.564349 1_555
Fe1 Ti7 2.594393 1_556
Fe1 Ti0 3.066741 1_556
Fe1 Ti3 3.078076 1_555
Fe1 Ti1 3.082670 1_555
Fe1 Ti4 3.090355 1_556
Fe2 Ti7 2.646800 1_555
Fe2 Ti1 2.925553 1_555
Fe2 Ti2 2.934402 1_555
Fe2 Ti5 2.957930 1_555
Fe2 Ti4 3.012937 1_555
Fe3 Ti7 2.657071 1_555
Fe3 Ti0 3.001549 1_455
Fe3 Ti5 3.020659 1_454
Fe3 Ti2 3.028696 1_555
Fe3 Ti3 3.029305 1_554
Fe4 Ti3 2.947769 1_555
Fe4 Ti0 2.967297 1_466
Fe4 Ti4 2.968634 1_455
Fe4 Ti1 2.988021 1_566
Fe5 Ti6 2.459373 1_565
Fe5 Ti7 2.478905 1_555
Pt0 Ti6 2.715202 1_665
Pt0 Ti4 3.042786 1_555
Pt0 Ti5 3.067594 1_565
Pt0 Ti2 3.099229 1_655
Pt0 Ti1 3.126119 1_665
