# generated using pymatgen
data_AlMoBr8
_symmetry_space_group_name_H-M   'P 1'
_cell_length_a   9.91001724
_cell_length_b   9.91052866
_cell_length_c   8.76593547
_cell_angle_alpha   90.00000000
_cell_angle_beta   90.00000000
_cell_angle_gamma   129.51132925
_symmetry_Int_Tables_number   1
_chemical_formula_structural   AlMoBr8
_chemical_formula_sum   'Al2 Mo2 Br16'
_cell_volume   664.20899597
_cell_formula_units_Z   2
loop_
 _symmetry_equiv_pos_site_id
 _symmetry_equiv_pos_as_xyz
  1  'x, y, z'
loop_
 _atom_site_type_symbol
 _atom_site_label
 _atom_site_symmetry_multiplicity
 _atom_site_fract_x
 _atom_site_fract_y
 _atom_site_fract_z
 _atom_site_occupancy
  Al  Al0  1  0.81501152  0.18500535  0.25000000  1
  Al  Al1  1  0.18498848  0.81499465  0.75000000  1
  Mo  Mo0  1  0.61031988  0.38967694  0.25000000  1
  Mo  Mo1  1  0.38968012  0.61032306  0.75000000  1
  Br  Br0  1  0.51490810  0.05469915  0.25000000  1
  Br  Br1  1  0.05465320  0.51490818  0.75000000  1
  Br  Br2  1  0.48509190  0.94530085  0.75000000  1
  Br  Br3  1  0.94534680  0.48509182  0.25000000  1
  Br  Br4  1  0.63319691  0.36685117  0.97914890  1
  Br  Br5  1  0.36680309  0.63314883  0.02085110  1
  Br  Br6  1  0.63319691  0.36685117  0.52085110  1
  Br  Br7  1  0.36680309  0.63314883  0.47914890  1
  Br  Br8  1  0.31096207  0.26861351  0.25000000  1
  Br  Br9  1  0.26866505  0.31098186  0.75000000  1
  Br  Br10  1  0.68903793  0.73138649  0.75000000  1
  Br  Br11  1  0.73133495  0.68901814  0.25000000  1
  Br  Br12  1  0.88417262  0.11579701  0.46645597  1
  Br  Br13  1  0.11582738  0.88420299  0.53354403  1
  Br  Br14  1  0.88417262  0.11579701  0.03354403  1
  Br  Br15  1  0.11582738  0.88420299  0.96645597  1
loop_
_geom_bond_atom_site_label_1
_geom_bond_atom_site_label_2
_geom_bond_distance
_geom_bond_site_symmetry_2
Al0 Br12 2.266862 1_555
Al0 Br14 2.266862 1_555
Al0 Br3 2.371738 1_555
Al0 Br0 2.371807 1_555
Al1 Br15 2.266862 1_555
Al1 Br13 2.266862 1_555
Al1 Br1 2.371738 1_555
Al1 Br2 2.371807 1_555
Br0 Mo0 2.814412 1_555
Br1 Mo1 2.814683 1_555
Br2 Mo1 2.814412 1_555
Br3 Mo0 2.814683 1_555
Br4 Mo0 2.409348 1_556
Br5 Mo1 2.409348 1_554
Br6 Mo0 2.409348 1_555
Br7 Mo1 2.409348 1_555
Br8 Mo0 2.389834 1_555
Br9 Mo1 2.389979 1_555
Br10 Mo1 2.389834 1_555
Br11 Mo0 2.389979 1_555
