# generated using pymatgen
data_Rb2Mn(IO3)6
_symmetry_space_group_name_H-M   'P 1'
_cell_length_a   7.56290671
_cell_length_b   7.56290800
_cell_length_c   7.56290672
_cell_angle_alpha   96.95608091
_cell_angle_beta   96.95608097
_cell_angle_gamma   96.95607785
_symmetry_Int_Tables_number   1
_chemical_formula_structural   Rb2Mn(IO3)6
_chemical_formula_sum   'Rb2 Mn1 I6 O18'
_cell_volume   422.16904348
_cell_formula_units_Z   1
loop_
 _symmetry_equiv_pos_site_id
 _symmetry_equiv_pos_as_xyz
  1  'x, y, z'
loop_
 _atom_site_type_symbol
 _atom_site_label
 _atom_site_symmetry_multiplicity
 _atom_site_fract_x
 _atom_site_fract_y
 _atom_site_fract_z
 _atom_site_occupancy
  Rb  Rb0  1  0.16794942  0.16794942  0.16794942  1
  Rb  Rb1  1  0.83205058  0.83205058  0.83205058  1
  Mn  Mn0  1  0.50000000  0.50000000  0.50000000  1
  I  I0  1  0.70150456  0.33873125  0.13885585  1
  I  I1  1  0.66126875  0.86114415  0.29849544  1
  I  I2  1  0.13885585  0.70150456  0.33873125  1
  I  I3  1  0.86114415  0.29849544  0.66126875  1
  I  I4  1  0.29849544  0.66126875  0.86114415  1
  I  I5  1  0.33873125  0.13885585  0.70150456  1
  O  O0  1  0.90972343  0.38888894  0.29162179  1
  O  O1  1  0.61111106  0.70837821  0.09027657  1
  O  O2  1  0.70837821  0.09027657  0.61111106  1
  O  O3  1  0.67649799  0.67870649  0.44655150  1
  O  O4  1  0.68521259  0.09760506  0.09286098  1
  O  O5  1  0.44655150  0.67649799  0.67870649  1
  O  O6  1  0.32129351  0.55344850  0.32350201  1
  O  O7  1  0.32350201  0.32129351  0.55344850  1
  O  O8  1  0.09760506  0.09286098  0.68521259  1
  O  O9  1  0.90713902  0.31478741  0.90239494  1
  O  O10  1  0.67870649  0.44655150  0.67649799  1
  O  O11  1  0.09027657  0.61111106  0.70837821  1
  O  O12  1  0.55344850  0.32350201  0.32129351  1
  O  O13  1  0.31478741  0.90239494  0.90713902  1
  O  O14  1  0.90239494  0.90713902  0.31478741  1
  O  O15  1  0.38888894  0.29162179  0.90972343  1
  O  O16  1  0.29162179  0.90972343  0.38888894  1
  O  O17  1  0.09286098  0.68521259  0.09760506  1
loop_
_geom_bond_atom_site_label_1
_geom_bond_atom_site_label_2
_geom_bond_distance
_geom_bond_site_symmetry_2
Mn0 O10 1.896812 1_555
Mn0 O6 1.896812 1_555
Mn0 O5 1.896812 1_555
Mn0 O12 1.896812 1_555
Mn0 O3 1.896812 1_555
Mn0 O7 1.896812 1_555
I0 O4 1.800916 1_555
I0 O0 1.807489 1_555
I0 O12 1.884748 1_555
I1 O14 1.800916 1_555
I1 O1 1.807489 1_555
I1 O3 1.884748 1_555
I2 O17 1.800916 1_555
I2 O16 1.807489 1_555
I2 O6 1.884748 1_555
I3 O9 1.800916 1_555
I3 O2 1.807489 1_555
I3 O10 1.884748 1_555
I4 O13 1.800916 1_555
I4 O11 1.807489 1_555
I4 O5 1.884748 1_555
I5 O8 1.800916 1_555
I5 O15 1.807489 1_555
I5 O7 1.884748 1_555
O0 Rb0 2.887067 1_655
O1 Rb1 2.887067 1_554
O2 Rb1 2.887068 1_545
O3 Rb1 3.041190 1_555
O4 Rb1 3.044461 1_544
O5 Rb1 3.041190 1_555
O6 Rb0 3.041191 1_555
O7 Rb0 3.041190 1_555
O8 Rb1 3.044461 1_445
O9 Rb0 3.044461 1_656
O10 Rb1 3.041191 1_555
O11 Rb1 2.887067 1_455
O12 Rb0 3.041190 1_555
O13 Rb0 3.044461 1_566
O14 Rb0 3.044461 1_665
O15 Rb0 2.887067 1_556
O16 Rb0 2.887068 1_565
O17 Rb1 3.044461 1_454
