# generated using pymatgen
data_Cs2Hf(PO4)2
_symmetry_space_group_name_H-M   'P 1'
_cell_length_a   5.40401939
_cell_length_b   5.40401839
_cell_length_c   9.44213865
_cell_angle_alpha   90.00000000
_cell_angle_beta   90.00000000
_cell_angle_gamma   119.99999418
_symmetry_Int_Tables_number   1
_chemical_formula_structural   Cs2Hf(PO4)2
_chemical_formula_sum   'Cs2 Hf1 P2 O8'
_cell_volume   238.80023416
_cell_formula_units_Z   1
loop_
 _symmetry_equiv_pos_site_id
 _symmetry_equiv_pos_as_xyz
  1  'x, y, z'
loop_
 _atom_site_type_symbol
 _atom_site_label
 _atom_site_symmetry_multiplicity
 _atom_site_fract_x
 _atom_site_fract_y
 _atom_site_fract_z
 _atom_site_occupancy
  Cs  Cs0  1  0.33333300  0.66666700  0.65757010  1
  Cs  Cs1  1  0.66666700  0.33333300  0.34242990  1
  Hf  Hf0  1  0.00000000  0.00000000  0.00000000  1
  P  P0  1  0.33333300  0.66666700  0.18030542  1
  P  P1  1  0.66666700  0.33333300  0.81969458  1
  O  O0  1  0.33333300  0.66666700  0.34020078  1
  O  O1  1  0.66666700  0.33333300  0.65979922  1
  O  O2  1  0.20149945  0.84310349  0.12444745  1
  O  O3  1  0.15689651  0.35839396  0.12444745  1
  O  O4  1  0.64160604  0.79850055  0.12444745  1
  O  O5  1  0.79850055  0.15689651  0.87555255  1
  O  O6  1  0.84310349  0.64160604  0.87555255  1
  O  O7  1  0.35839396  0.20149945  0.87555255  1
loop_
_geom_bond_atom_site_label_1
_geom_bond_atom_site_label_2
_geom_bond_distance
_geom_bond_site_symmetry_2
Cs0 O0 2.996645 1_555
Cs0 O1 3.120080 1_565
Cs0 O1 3.120080 1_455
Cs0 O1 3.120089 1_555
Cs0 O7 3.303651 1_555
Cs0 O5 3.303654 1_565
Cs0 O6 3.303656 1_455
Cs0 O6 3.495236 1_555
Cs0 O5 3.495238 1_455
Cs0 O7 3.495240 1_565
Cs1 O1 2.996645 1_555
Cs1 O0 3.120080 1_545
Cs1 O0 3.120080 1_655
Cs1 O0 3.120089 1_555
Cs1 O4 3.303651 1_555
Cs1 O2 3.303654 1_545
Cs1 O3 3.303656 1_655
Cs1 O3 3.495236 1_555
Cs1 O2 3.495238 1_655
Cs1 O4 3.495240 1_545
Hf0 O3 2.051479 1_555
Hf0 O6 2.051479 1_444
Hf0 O4 2.051480 1_445
Hf0 O7 2.051480 1_554
Hf0 O2 2.051487 1_545
Hf0 O5 2.051487 1_454
O0 P0 1.509754 1_555
O1 P1 1.509754 1_555
O2 P0 1.540813 1_555
O3 P0 1.540826 1_555
O4 P0 1.540827 1_555
O5 P1 1.540813 1_555
O6 P1 1.540826 1_555
O7 P1 1.540827 1_555
