# generated using pymatgen
data_KZrAsSe4
_symmetry_space_group_name_H-M   'P 1'
_cell_length_a   6.78276061
_cell_length_b   7.80606769
_cell_length_c   15.93805118
_cell_angle_alpha   90.00000000
_cell_angle_beta   90.00000000
_cell_angle_gamma   90.00000000
_symmetry_Int_Tables_number   1
_chemical_formula_structural   KZrAsSe4
_chemical_formula_sum   'K4 Zr4 As4 Se16'
_cell_volume   843.86702997
_cell_formula_units_Z   4
loop_
 _symmetry_equiv_pos_site_id
 _symmetry_equiv_pos_as_xyz
  1  'x, y, z'
loop_
 _atom_site_type_symbol
 _atom_site_label
 _atom_site_symmetry_multiplicity
 _atom_site_fract_x
 _atom_site_fract_y
 _atom_site_fract_z
 _atom_site_occupancy
  K  K0  1  0.36925535  0.00000000  0.00000000  1
  K  K1  1  0.63074465  0.50000000  0.50000000  1
  K  K2  1  0.02489934  0.00000000  0.50000000  1
  K  K3  1  0.97510066  0.50000000  0.00000000  1
  Zr  Zr0  1  0.50000000  0.25000000  0.25000000  1
  Zr  Zr1  1  0.50000000  0.75000000  0.75000000  1
  Zr  Zr2  1  0.50000000  0.75000000  0.25000000  1
  Zr  Zr3  1  0.50000000  0.25000000  0.75000000  1
  As  As0  1  0.02164844  0.00000000  0.22949562  1
  As  As1  1  0.02164844  0.00000000  0.77050438  1
  As  As2  1  0.97835156  0.50000000  0.27050438  1
  As  As3  1  0.97835156  0.50000000  0.72949562  1
  Se  Se0  1  0.82320552  0.26200771  0.34837946  1
  Se  Se1  1  0.82320552  0.73799229  0.65162054  1
  Se  Se2  1  0.17679448  0.76200771  0.15162054  1
  Se  Se3  1  0.17679448  0.23799229  0.84837946  1
  Se  Se4  1  0.17679448  0.23799229  0.15162054  1
  Se  Se5  1  0.17679448  0.76200771  0.84837946  1
  Se  Se6  1  0.82320552  0.73799229  0.34837946  1
  Se  Se7  1  0.82320552  0.26200771  0.65162054  1
  Se  Se8  1  0.68385115  0.00000000  0.15605085  1
  Se  Se9  1  0.68385115  0.00000000  0.84394915  1
  Se  Se10  1  0.31614885  0.50000000  0.34394915  1
  Se  Se11  1  0.31614885  0.50000000  0.65605085  1
  Se  Se12  1  0.35097159  0.00000000  0.34483655  1
  Se  Se13  1  0.35097159  0.00000000  0.65516345  1
  Se  Se14  1  0.64902841  0.50000000  0.15516345  1
  Se  Se15  1  0.64902841  0.50000000  0.84483655  1
loop_
_geom_bond_atom_site_label_1
_geom_bond_atom_site_label_2
_geom_bond_distance
_geom_bond_site_symmetry_2
K0 Se9 3.277060 1_554
K0 Se8 3.277060 1_555
K0 Se4 3.315889 1_555
K0 Se2 3.315889 1_545
K0 Se3 3.315889 1_554
K0 Se5 3.315889 1_544
K1 Se10 3.277060 1_555
K1 Se11 3.277060 1_555
K1 Se1 3.315889 1_555
K1 Se7 3.315889 1_555
K1 Se6 3.315889 1_555
K1 Se0 3.315889 1_555
K2 Se13 3.317714 1_555
K2 Se12 3.317714 1_555
K2 Se7 3.448801 1_455
K2 Se1 3.448801 1_445
K2 Se0 3.448801 1_455
K2 Se6 3.448801 1_445
K3 Se14 3.317714 1_555
K3 Se15 3.317714 1_554
K3 Se2 3.448801 1_655
K3 Se4 3.448801 1_655
K3 Se5 3.448801 1_654
K3 Se3 3.448801 1_654
As0 Se4 2.469667 1_555
As0 Se2 2.469667 1_545
As0 Se8 2.572900 1_455
As0 Se12 2.892903 1_555
As0 Se0 3.095952 1_455
As0 Se6 3.095952 1_445
As1 Se3 2.469667 1_555
As1 Se5 2.469667 1_545
As1 Se9 2.572900 1_455
As1 Se13 2.892903 1_555
As1 Se7 3.095952 1_455
As1 Se1 3.095952 1_445
As2 Se6 2.469667 1_555
As2 Se0 2.469667 1_555
As2 Se10 2.572900 1_655
As2 Se14 2.892903 1_555
As2 Se2 3.095952 1_655
As2 Se4 3.095952 1_655
As3 Se1 2.469667 1_555
As3 Se7 2.469667 1_555
As3 Se11 2.572900 1_655
As3 Se15 2.892903 1_555
As3 Se5 3.095952 1_655
As3 Se3 3.095952 1_655
Se0 Zr0 2.696885 1_555
Se1 Zr1 2.696885 1_555
Se2 Zr2 2.696885 1_555
Se3 Zr3 2.696885 1_555
Se4 Zr0 2.696885 1_555
Se5 Zr1 2.696885 1_555
Se6 Zr2 2.696885 1_555
Se7 Zr3 2.696885 1_555
Se8 Zr0 2.757821 1_555
Se8 Zr2 2.757821 1_545
Se9 Zr3 2.757821 1_555
Se9 Zr1 2.757821 1_545
Se10 Zr0 2.757821 1_555
Se10 Zr2 2.757821 1_555
Se11 Zr3 2.757821 1_555
Se11 Zr1 2.757821 1_555
Se12 Zr0 2.667367 1_555
Se12 Zr2 2.667367 1_545
Se13 Zr3 2.667367 1_555
Se13 Zr1 2.667367 1_545
Se14 Zr2 2.667367 1_555
Se14 Zr0 2.667367 1_555
Se15 Zr3 2.667367 1_555
Se15 Zr1 2.667367 1_555
