# generated using pymatgen
data_Lu6BeI12
_symmetry_space_group_name_H-M   'P 1'
_cell_length_a   9.46863481
_cell_length_b   9.46863557
_cell_length_c   9.46863425
_cell_angle_alpha   107.13843347
_cell_angle_beta   107.13843276
_cell_angle_gamma   107.13841950
_symmetry_Int_Tables_number   1
_chemical_formula_structural   Lu6BeI12
_chemical_formula_sum   'Lu6 Be1 I12'
_cell_volume   704.29438412
_cell_formula_units_Z   1
loop_
 _symmetry_equiv_pos_site_id
 _symmetry_equiv_pos_as_xyz
  1  'x, y, z'
loop_
 _atom_site_type_symbol
 _atom_site_label
 _atom_site_symmetry_multiplicity
 _atom_site_fract_x
 _atom_site_fract_y
 _atom_site_fract_z
 _atom_site_occupancy
  Lu  Lu0  1  0.96404679  0.69289746  0.89596693  1
  Lu  Lu1  1  0.30710254  0.10403307  0.03595321  1
  Lu  Lu2  1  0.10403307  0.03595321  0.30710254  1
  Lu  Lu3  1  0.89596693  0.96404679  0.69289746  1
  Lu  Lu4  1  0.69289746  0.89596693  0.96404679  1
  Lu  Lu5  1  0.03595321  0.30710254  0.10403307  1
  Be  Be0  1  0.00000000  0.00000000  0.00000000  1
  I  I0  1  0.92095244  0.31826058  0.77476971  1
  I  I1  1  0.68173942  0.22523029  0.07904756  1
  I  I2  1  0.45260938  0.14345844  0.37589577  1
  I  I3  1  0.85654156  0.62410423  0.54739062  1
  I  I4  1  0.22523029  0.07904756  0.68173942  1
  I  I5  1  0.62410423  0.54739062  0.85654156  1
  I  I6  1  0.37589577  0.45260938  0.14345844  1
  I  I7  1  0.77476971  0.92095244  0.31826058  1
  I  I8  1  0.14345844  0.37589577  0.45260938  1
  I  I9  1  0.54739062  0.85654156  0.62410423  1
  I  I10  1  0.31826058  0.77476971  0.92095244  1
  I  I11  1  0.07904756  0.68173942  0.22523029  1
loop_
_geom_bond_atom_site_label_1
_geom_bond_atom_site_label_2
_geom_bond_distance
_geom_bond_site_symmetry_2
Be0 Lu2 2.659427 1_555
Be0 Lu3 2.659427 1_444
Be0 Lu1 2.659428 1_555
Be0 Lu4 2.659428 1_444
Be0 Lu5 2.659428 1_555
Be0 Lu0 2.659428 1_444
I0 Lu5 3.029505 1_656
I0 Lu3 3.130118 1_545
I0 Lu0 3.246312 1_555
I1 Lu4 3.029505 1_544
I1 Lu5 3.130118 1_655
I1 Lu1 3.246312 1_555
I2 Lu2 2.952305 1_555
I2 Lu1 2.961965 1_555
I3 Lu0 2.952305 1_555
I3 Lu3 2.961966 1_555
I4 Lu3 3.029505 1_445
I4 Lu1 3.130117 1_556
I4 Lu2 3.246311 1_555
I5 Lu4 2.952305 1_555
I5 Lu0 2.961966 1_555
I6 Lu1 2.952305 1_555
I6 Lu5 2.961966 1_555
I7 Lu2 3.029505 1_665
I7 Lu4 3.130117 1_554
I7 Lu3 3.246311 1_555
I8 Lu5 2.952305 1_555
I8 Lu2 2.961966 1_555
I9 Lu3 2.952305 1_555
I9 Lu4 2.961965 1_555
I10 Lu1 3.029505 1_566
I10 Lu0 3.130118 1_455
I10 Lu4 3.246312 1_555
I11 Lu0 3.029505 1_454
I11 Lu2 3.130118 1_565
I11 Lu5 3.246312 1_555
