# generated using pymatgen
data_Hf10Cu2SnSb5
_symmetry_space_group_name_H-M   'P 1'
_cell_length_a   8.52486032
_cell_length_b   8.52486061
_cell_length_c   5.72928724
_cell_angle_alpha   90.00000000
_cell_angle_beta   90.00000000
_cell_angle_gamma   120.03355572
_symmetry_Int_Tables_number   1
_chemical_formula_structural   Hf10Cu2SnSb5
_chemical_formula_sum   'Hf10 Cu2 Sn1 Sb5'
_cell_volume   360.46146143
_cell_formula_units_Z   1
loop_
 _symmetry_equiv_pos_site_id
 _symmetry_equiv_pos_as_xyz
  1  'x, y, z'
loop_
 _atom_site_type_symbol
 _atom_site_label
 _atom_site_symmetry_multiplicity
 _atom_site_fract_x
 _atom_site_fract_y
 _atom_site_fract_z
 _atom_site_occupancy
  Hf  Hf0  1  0.66724170  0.33312955  0.99947612  1
  Hf  Hf1  1  0.33312955  0.66724170  0.99947612  1
  Hf  Hf2  1  0.33312955  0.66724170  0.50052388  1
  Hf  Hf3  1  0.66724170  0.33312955  0.50052388  1
  Hf  Hf4  1  0.73780957  0.73780957  0.75000000  1
  Hf  Hf5  1  0.26380524  0.00110042  0.75000000  1
  Hf  Hf6  1  0.00110042  0.26380524  0.75000000  1
  Hf  Hf7  1  0.25957955  0.25957955  0.25000000  1
  Hf  Hf8  1  0.73843568  0.99897441  0.25000000  1
  Hf  Hf9  1  0.99897441  0.73843568  0.25000000  1
  Cu  Cu0  1  0.00045155  0.00045155  0.50357492  1
  Cu  Cu1  1  0.00045155  0.00045155  0.99642508  1
  Sn  Sn0  1  0.38667300  0.38667300  0.75000000  1
  Sb  Sb0  1  0.61448368  0.00020800  0.75000000  1
  Sb  Sb1  1  0.00020800  0.61448368  0.75000000  1
  Sb  Sb2  1  0.61037542  0.61037542  0.25000000  1
  Sb  Sb3  1  0.38650434  0.00040409  0.25000000  1
  Sb  Sb4  1  0.00040409  0.38650434  0.25000000  1
loop_
_geom_bond_atom_site_label_1
_geom_bond_atom_site_label_2
_geom_bond_distance
_geom_bond_site_symmetry_2
Hf0 Sb0 3.003724 1_555
Hf0 Sb2 3.004685 1_556
Hf0 Sb1 3.006289 1_655
Hf0 Sb3 3.006324 1_556
Hf0 Sb4 3.006675 1_656
Hf0 Sn0 3.010798 1_555
Hf1 Sb1 3.003724 1_555
Hf1 Sb2 3.004685 1_556
Hf1 Sb0 3.006289 1_565
Hf1 Sb4 3.006324 1_556
Hf1 Sb3 3.006675 1_566
Hf1 Sn0 3.010798 1_555
Hf2 Sb1 3.003724 1_555
Hf2 Sb2 3.004685 1_555
Hf2 Sb0 3.006289 1_565
Hf2 Sb4 3.006324 1_555
Hf2 Sb3 3.006675 1_565
Hf2 Sn0 3.010798 1_555
Hf3 Sb0 3.003724 1_555
Hf3 Sb2 3.004685 1_555
Hf3 Sb1 3.006289 1_655
Hf3 Sb3 3.006324 1_555
Hf3 Sb4 3.006675 1_655
Hf3 Sn0 3.010798 1_555
Hf4 Sb1 2.909158 1_655
Hf4 Sb0 2.909158 1_565
Hf4 Sn0 2.991872 1_555
Hf4 Sb2 3.063521 1_555
Hf4 Sb2 3.063521 1_556
Hf5 Sn0 2.907718 1_555
Hf5 Sb1 2.915222 1_545
Hf5 Sb0 2.993300 1_555
Hf5 Sb3 3.050661 1_556
Hf5 Sb3 3.050661 1_555
Hf6 Sn0 2.907717 1_555
Hf6 Sb0 2.915222 1_455
Hf6 Sb1 2.993300 1_555
Hf6 Sb4 3.050661 1_555
Hf6 Sb4 3.050661 1_556
Hf7 Sb4 2.906102 1_555
Hf7 Sb3 2.906102 1_555
Hf7 Sb2 2.988969 1_555
Hf7 Sn0 3.062493 1_555
Hf7 Sn0 3.062493 1_554
Hf8 Sb4 2.918235 1_665
Hf8 Sb2 2.923344 1_555
Hf8 Sb3 3.006284 1_565
Hf8 Sb0 3.055156 1_565
Hf8 Sb0 3.055156 1_564
Hf9 Sb3 2.918235 1_665
Hf9 Sb2 2.923344 1_555
Hf9 Sb4 3.006284 1_655
Hf9 Sb1 3.055156 1_655
Hf9 Sb1 3.055156 1_654
Cu0 Hf7 2.643010 1_555
Cu0 Hf4 2.645991 1_445
Cu0 Hf5 2.649747 1_555
Cu0 Hf6 2.649747 1_555
Cu0 Hf8 2.659291 1_445
Cu0 Hf9 2.659291 1_445
Cu1 Hf7 2.643010 1_556
Cu1 Hf4 2.645991 1_445
Cu1 Hf5 2.649747 1_555
Cu1 Hf6 2.649747 1_555
Cu1 Hf8 2.659291 1_446
Cu1 Hf9 2.659291 1_446
