# generated using pymatgen
data_Rb3AlGe2O7
_symmetry_space_group_name_H-M   'P 1'
_cell_length_a   9.52412105
_cell_length_b   9.52408286
_cell_length_c   7.53962003
_cell_angle_alpha   72.98966955
_cell_angle_beta   72.99023330
_cell_angle_gamma   121.66087826
_symmetry_Int_Tables_number   1
_chemical_formula_structural   Rb3AlGe2O7
_chemical_formula_sum   'Rb6 Al2 Ge4 O14'
_cell_volume   465.60593685
_cell_formula_units_Z   2
loop_
 _symmetry_equiv_pos_site_id
 _symmetry_equiv_pos_as_xyz
  1  'x, y, z'
loop_
 _atom_site_type_symbol
 _atom_site_label
 _atom_site_symmetry_multiplicity
 _atom_site_fract_x
 _atom_site_fract_y
 _atom_site_fract_z
 _atom_site_occupancy
  Rb  Rb0  1  0.58302994  0.97609309  0.74540523  1
  Rb  Rb1  1  0.00726990  0.99273367  0.75000232  1
  Rb  Rb2  1  0.97608382  0.58301351  0.24541366  1
  Rb  Rb3  1  0.99273010  0.00726633  0.24999768  1
  Rb  Rb4  1  0.02391618  0.41698649  0.75458634  1
  Rb  Rb5  1  0.41697006  0.02390691  0.25459477  1
  Al  Al0  1  0.43833211  0.56165801  0.75000013  1
  Al  Al1  1  0.56166789  0.43834199  0.24999987  1
  Ge  Ge0  1  0.77349351  0.56951030  0.75554521  1
  Ge  Ge1  1  0.43048649  0.22649863  0.74445192  1
  Ge  Ge2  1  0.56951351  0.77350137  0.25554808  1
  Ge  Ge3  1  0.22650649  0.43048970  0.24445479  1
  O  O0  1  0.66129364  0.66857497  0.73451181  1
  O  O1  1  0.66857526  0.66130152  0.23451598  1
  O  O2  1  0.51812723  0.26423971  0.47893250  1
  O  O3  1  0.33142474  0.33869848  0.76548402  1
  O  O4  1  0.98345688  0.26118337  0.45499819  1
  O  O5  1  0.48187277  0.73576029  0.52106750  1
  O  O6  1  0.26119124  0.98344161  0.95500981  1
  O  O7  1  0.26424376  0.51812706  0.97892970  1
  O  O8  1  0.35066316  0.64934064  0.25000070  1
  O  O9  1  0.33870636  0.33142503  0.26548819  1
  O  O10  1  0.73880876  0.01655839  0.04499019  1
  O  O11  1  0.64933684  0.35065936  0.74999930  1
  O  O12  1  0.01654312  0.73881663  0.54500181  1
  O  O13  1  0.73575624  0.48187294  0.02107030  1
loop_
_geom_bond_atom_site_label_1
_geom_bond_atom_site_label_2
_geom_bond_distance
_geom_bond_site_symmetry_2
Al0 O3 1.753623 1_555
Al0 O0 1.753626 1_555
Al0 O7 1.756559 1_555
Al0 O5 1.756578 1_555
Al1 O1 1.753623 1_555
Al1 O9 1.753626 1_555
Al1 O13 1.756559 1_555
Al1 O2 1.756578 1_555
Ge0 O12 1.706594 1_655
Ge0 O13 1.766386 1_556
Ge0 O0 1.768413 1_555
Ge0 O11 1.799183 1_555
Ge1 O6 1.706656 1_545
Ge1 O2 1.766339 1_555
Ge1 O3 1.768389 1_555
Ge1 O11 1.799193 1_555
Ge2 O10 1.706656 1_565
Ge2 O5 1.766339 1_555
Ge2 O1 1.768389 1_555
Ge2 O8 1.799193 1_555
Ge3 O4 1.706594 1_455
Ge3 O7 1.766386 1_554
Ge3 O9 1.768413 1_555
Ge3 O8 1.799183 1_555
O0 Rb3 3.063322 1_565
O0 Rb1 3.187412 1_655
O0 Rb0 3.396634 1_555
O1 Rb1 3.063321 1_654
O1 Rb3 3.187295 1_565
O1 Rb2 3.396714 1_555
O2 Rb2 3.133610 1_555
O2 Rb5 3.151507 1_555
O2 Rb0 3.351331 1_545
O3 Rb3 3.063321 1_456
O3 Rb1 3.187295 1_545
O3 Rb4 3.396714 1_555
O4 Rb0 2.734316 1_545
O4 Rb1 3.018628 1_645
O4 Rb4 3.053283 1_655
O4 Rb2 3.058430 1_555
O4 Rb3 3.252134 1_555
O5 Rb4 3.133610 1_555
O5 Rb0 3.151507 1_555
O5 Rb5 3.351331 1_565
O6 Rb2 2.734307 1_456
O6 Rb3 3.018746 1_466
O6 Rb5 3.053115 1_566
O6 Rb0 3.058397 1_555
O6 Rb1 3.252254 1_555
O7 Rb0 3.133659 1_555
O7 Rb4 3.151493 1_555
O7 Rb2 3.351363 1_456
O8 Rb4 3.157985 1_555
O8 Rb0 3.158016 1_554
O8 Rb5 3.293392 1_565
O8 Rb2 3.293437 1_455
O9 Rb1 3.063322 1_545
O9 Rb3 3.187412 1_455
O9 Rb5 3.396634 1_555
O10 Rb4 2.734307 1_654
O10 Rb1 3.018746 1_644
O10 Rb0 3.053115 1_544
O10 Rb5 3.058397 1_555
O10 Rb3 3.252254 1_555
O11 Rb2 3.157985 1_555
O11 Rb5 3.158016 1_556
O11 Rb0 3.293392 1_545
O11 Rb4 3.293437 1_655
O12 Rb5 2.734316 1_565
O12 Rb3 3.018628 1_465
O12 Rb2 3.053283 1_455
O12 Rb4 3.058430 1_555
O12 Rb1 3.252134 1_555
O13 Rb5 3.133659 1_555
O13 Rb2 3.151493 1_555
O13 Rb4 3.351363 1_654
