# generated using pymatgen
data_CuSe2Cl
_symmetry_space_group_name_H-M   'P 1'
_cell_length_a   4.87355111
_cell_length_b   7.70751864
_cell_length_c   10.90352325
_cell_angle_alpha   105.10137071
_cell_angle_beta   90.00000000
_cell_angle_gamma   90.00000000
_symmetry_Int_Tables_number   1
_chemical_formula_structural   CuSe2Cl
_chemical_formula_sum   'Cu4 Se8 Cl4'
_cell_volume   395.42500279
_cell_formula_units_Z   4
loop_
 _symmetry_equiv_pos_site_id
 _symmetry_equiv_pos_as_xyz
  1  'x, y, z'
loop_
 _atom_site_type_symbol
 _atom_site_label
 _atom_site_symmetry_multiplicity
 _atom_site_fract_x
 _atom_site_fract_y
 _atom_site_fract_z
 _atom_site_occupancy
  Cu  Cu0  1  0.63833582  0.07118960  0.24759976  1
  Cu  Cu1  1  0.13833582  0.42881040  0.25240024  1
  Cu  Cu2  1  0.36166418  0.92881040  0.75240024  1
  Cu  Cu3  1  0.86166418  0.57118960  0.74759976  1
  Se  Se0  1  0.52962009  0.35305905  0.65499227  1
  Se  Se1  1  0.02962009  0.14694095  0.84500773  1
  Se  Se2  1  0.47037991  0.64694095  0.34500773  1
  Se  Se3  1  0.97037991  0.85305905  0.15499227  1
  Se  Se4  1  0.69235034  0.07672663  0.65766072  1
  Se  Se5  1  0.19235034  0.42327337  0.84233928  1
  Se  Se6  1  0.30764966  0.92327337  0.34233928  1
  Se  Se7  1  0.80764966  0.57672663  0.15766072  1
  Cl  Cl0  1  0.39011438  0.20501103  0.11915830  1
  Cl  Cl1  1  0.89011438  0.29498897  0.38084170  1
  Cl  Cl2  1  0.60988562  0.79498897  0.88084170  1
  Cl  Cl3  1  0.10988562  0.70501103  0.61915830  1
loop_
_geom_bond_atom_site_label_1
_geom_bond_atom_site_label_2
_geom_bond_distance
_geom_bond_site_symmetry_2
Cu0 Se6 2.361731 1_545
Cu0 Se3 2.362265 1_545
Cu1 Se7 2.361731 1_455
Cu1 Se2 2.362265 1_555
Cu2 Se4 2.361731 1_565
Cu2 Se1 2.362265 1_565
Cu3 Se5 2.361731 1_655
Cu3 Se0 2.362265 1_555
Se0 Se4 2.279980 1_555
Se0 Se5 2.567373 1_555
Se1 Se5 2.279980 1_555
Se1 Se4 2.567373 1_455
Se2 Se6 2.279980 1_555
Se2 Se7 2.567373 1_555
Se3 Se7 2.279980 1_555
Se3 Se6 2.567373 1_655
Cl0 Cu0 2.289373 1_555
Cl0 Cu1 2.299121 1_555
Cl1 Cu1 2.289373 1_655
Cl1 Cu0 2.299121 1_555
Cl2 Cu2 2.289373 1_555
Cl2 Cu3 2.299121 1_555
Cl3 Cu3 2.289373 1_455
Cl3 Cu2 2.299121 1_555
