# generated using pymatgen
data_Zr3(Mn2Si3)2
_symmetry_space_group_name_H-M   'P 1'
_cell_length_a   17.13424800
_cell_length_b   17.13424800
_cell_length_c   5.09150600
_cell_angle_alpha   90.00000000
_cell_angle_beta   90.00000000
_cell_angle_gamma   90.00000000
_symmetry_Int_Tables_number   1
_chemical_formula_structural   Zr3(Mn2Si3)2
_chemical_formula_sum   'Zr24 Mn32 Si48'
_cell_volume   1494.77682871
_cell_formula_units_Z   8
loop_
 _symmetry_equiv_pos_site_id
 _symmetry_equiv_pos_as_xyz
  1  'x, y, z'
loop_
 _atom_site_type_symbol
 _atom_site_label
 _atom_site_symmetry_multiplicity
 _atom_site_fract_x
 _atom_site_fract_y
 _atom_site_fract_z
 _atom_site_occupancy
  Zr  Zr0  1  0.10187700  0.20416800  0.00000000  1
  Zr  Zr1  1  0.20416800  0.89812300  0.50000000  1
  Zr  Zr2  1  0.79583200  0.10187700  0.50000000  1
  Zr  Zr3  1  0.89812300  0.79583200  0.00000000  1
  Zr  Zr4  1  0.39812300  0.70416800  0.00000000  1
  Zr  Zr5  1  0.60187700  0.29583200  0.00000000  1
  Zr  Zr6  1  0.70416800  0.60187700  0.50000000  1
  Zr  Zr7  1  0.29583200  0.39812300  0.50000000  1
  Zr  Zr8  1  0.29886800  0.28245500  0.00000000  1
  Zr  Zr9  1  0.28245500  0.70113200  0.50000000  1
  Zr  Zr10  1  0.71754500  0.29886800  0.50000000  1
  Zr  Zr11  1  0.70113200  0.71754500  0.00000000  1
  Zr  Zr12  1  0.20113200  0.78245500  0.00000000  1
  Zr  Zr13  1  0.79886800  0.21754500  0.00000000  1
  Zr  Zr14  1  0.78245500  0.79886800  0.50000000  1
  Zr  Zr15  1  0.21754500  0.20113200  0.50000000  1
  Zr  Zr16  1  0.20981800  0.47398800  0.00000000  1
  Zr  Zr17  1  0.47398800  0.79018200  0.50000000  1
  Zr  Zr18  1  0.52601200  0.20981800  0.50000000  1
  Zr  Zr19  1  0.79018200  0.52601200  0.00000000  1
  Zr  Zr20  1  0.29018200  0.97398800  0.00000000  1
  Zr  Zr21  1  0.70981800  0.02601200  0.00000000  1
  Zr  Zr22  1  0.97398800  0.70981800  0.50000000  1
  Zr  Zr23  1  0.02601200  0.29018200  0.50000000  1
  Mn  Mn0  1  0.15403100  0.05193100  0.25112800  1
  Mn  Mn1  1  0.05193100  0.84596900  0.75112800  1
  Mn  Mn2  1  0.94806900  0.15403100  0.75112800  1
  Mn  Mn3  1  0.84596900  0.94806900  0.25112800  1
  Mn  Mn4  1  0.34596900  0.55193100  0.74887200  1
  Mn  Mn5  1  0.65403100  0.44806900  0.74887200  1
  Mn  Mn6  1  0.55193100  0.65403100  0.24887200  1
  Mn  Mn7  1  0.44806900  0.34596900  0.24887200  1
  Mn  Mn8  1  0.84596900  0.94806900  0.74887200  1
  Mn  Mn9  1  0.94806900  0.15403100  0.24887200  1
  Mn  Mn10  1  0.05193100  0.84596900  0.24887200  1
  Mn  Mn11  1  0.15403100  0.05193100  0.74887200  1
  Mn  Mn12  1  0.65403100  0.44806900  0.25112800  1
  Mn  Mn13  1  0.34596900  0.55193100  0.25112800  1
  Mn  Mn14  1  0.44806900  0.34596900  0.75112800  1
  Mn  Mn15  1  0.55193100  0.65403100  0.75112800  1
  Mn  Mn16  1  0.04408300  0.38502700  0.00000000  1
  Mn  Mn17  1  0.38502700  0.95591700  0.50000000  1
  Mn  Mn18  1  0.61497300  0.04408300  0.50000000  1
  Mn  Mn19  1  0.95591700  0.61497300  0.00000000  1
  Mn  Mn20  1  0.45591700  0.88502700  0.00000000  1
  Mn  Mn21  1  0.54408300  0.11497300  0.00000000  1
  Mn  Mn22  1  0.88502700  0.54408300  0.50000000  1
  Mn  Mn23  1  0.11497300  0.45591700  0.50000000  1
  Mn  Mn24  1  0.12622500  0.62622500  0.25000000  1
  Mn  Mn25  1  0.62622500  0.87377500  0.75000000  1
  Mn  Mn26  1  0.37377500  0.12622500  0.75000000  1
  Mn  Mn27  1  0.87377500  0.37377500  0.25000000  1
  Mn  Mn28  1  0.87377500  0.37377500  0.75000000  1
  Mn  Mn29  1  0.37377500  0.12622500  0.25000000  1
  Mn  Mn30  1  0.62622500  0.87377500  0.25000000  1
  Mn  Mn31  1  0.12622500  0.62622500  0.75000000  1
  Si  Si0  1  0.43511100  0.02359900  0.00000000  1
  Si  Si1  1  0.02359900  0.56488900  0.50000000  1
  Si  Si2  1  0.97640100  0.43511100  0.50000000  1
  Si  Si3  1  0.56488900  0.97640100  0.00000000  1
  Si  Si4  1  0.06488900  0.52359900  0.00000000  1
  Si  Si5  1  0.93511100  0.47640100  0.00000000  1
  Si  Si6  1  0.52359900  0.93511100  0.50000000  1
  Si  Si7  1  0.47640100  0.06488900  0.50000000  1
  Si  Si8  1  0.03099800  0.06192400  0.00000000  1
  Si  Si9  1  0.06192400  0.96900200  0.50000000  1
  Si  Si10  1  0.93807600  0.03099800  0.50000000  1
  Si  Si11  1  0.96900200  0.93807600  0.00000000  1
  Si  Si12  1  0.46900200  0.56192400  0.00000000  1
  Si  Si13  1  0.53099800  0.43807600  0.00000000  1
  Si  Si14  1  0.56192400  0.53099800  0.50000000  1
  Si  Si15  1  0.43807600  0.46900200  0.50000000  1
  Si  Si16  1  0.24778100  0.13002100  0.00000000  1
  Si  Si17  1  0.13002100  0.75221900  0.50000000  1
  Si  Si18  1  0.86997900  0.24778100  0.50000000  1
  Si  Si19  1  0.75221900  0.86997900  0.00000000  1
  Si  Si20  1  0.25221900  0.63002100  0.00000000  1
  Si  Si21  1  0.74778100  0.36997900  0.00000000  1
  Si  Si22  1  0.63002100  0.74778100  0.50000000  1
  Si  Si23  1  0.36997900  0.25221900  0.50000000  1
  Si  Si24  1  0.45209500  0.22481900  0.00000000  1
  Si  Si25  1  0.22481900  0.54790500  0.50000000  1
  Si  Si26  1  0.77518100  0.45209500  0.50000000  1
  Si  Si27  1  0.54790500  0.77518100  0.00000000  1
  Si  Si28  1  0.04790500  0.72481900  0.00000000  1
  Si  Si29  1  0.95209500  0.27518100  0.00000000  1
  Si  Si30  1  0.72481900  0.95209500  0.50000000  1
  Si  Si31  1  0.27518100  0.04790500  0.50000000  1
  Si  Si32  1  0.36382400  0.43210700  0.00000000  1
  Si  Si33  1  0.43210700  0.63617600  0.50000000  1
  Si  Si34  1  0.56789300  0.36382400  0.50000000  1
  Si  Si35  1  0.63617600  0.56789300  0.00000000  1
  Si  Si36  1  0.13617600  0.93210700  0.00000000  1
  Si  Si37  1  0.86382400  0.06789300  0.00000000  1
  Si  Si38  1  0.93210700  0.86382400  0.50000000  1
  Si  Si39  1  0.06789300  0.13617600  0.50000000  1
  Si  Si40  1  0.66166600  0.16166600  0.25000000  1
  Si  Si41  1  0.16166600  0.33833400  0.75000000  1
  Si  Si42  1  0.83833400  0.66166600  0.75000000  1
  Si  Si43  1  0.33833400  0.83833400  0.25000000  1
  Si  Si44  1  0.33833400  0.83833400  0.75000000  1
  Si  Si45  1  0.83833400  0.66166600  0.25000000  1
  Si  Si46  1  0.16166600  0.33833400  0.25000000  1
  Si  Si47  1  0.66166600  0.16166600  0.75000000  1
loop_
_geom_bond_atom_site_label_1
_geom_bond_atom_site_label_2
_geom_bond_distance
_geom_bond_site_symmetry_2
Mn0 Si39 2.422304 1_555
Mn0 Si31 2.432980 1_555
Mn0 Si36 2.437962 1_545
Mn0 Si16 2.450605 1_555
Mn0 Si8 2.471473 1_555
Mn0 Si9 2.472918 1_545
Mn1 Si36 2.422304 1_556
Mn1 Si28 2.432980 1_556
Mn1 Si38 2.437962 1_455
Mn1 Si17 2.450605 1_555
Mn1 Si9 2.471473 1_555
Mn1 Si11 2.472918 1_456
Mn2 Si37 2.422304 1_556
Mn2 Si29 2.432980 1_556
Mn2 Si39 2.437962 1_655
Mn2 Si18 2.450605 1_555
Mn2 Si10 2.471473 1_555
Mn2 Si8 2.472918 1_656
Mn3 Si38 2.422304 1_555
Mn3 Si30 2.432980 1_555
Mn3 Si37 2.437962 1_565
Mn3 Si19 2.450605 1_555
Mn3 Si11 2.471473 1_555
Mn3 Si10 2.472918 1_565
Mn4 Si33 2.422304 1_555
Mn4 Si25 2.432980 1_555
Mn4 Si32 2.437962 1_556
Mn4 Si20 2.450605 1_556
Mn4 Si12 2.471473 1_556
Mn4 Si15 2.472918 1_555
Mn5 Si34 2.422304 1_555
Mn5 Si26 2.432980 1_555
Mn5 Si35 2.437962 1_556
Mn5 Si21 2.450605 1_556
Mn5 Si13 2.471473 1_556
Mn5 Si14 2.472918 1_555
Mn6 Si35 2.422304 1_555
Mn6 Si27 2.432980 1_555
Mn6 Si33 2.437962 1_555
Mn6 Si22 2.450605 1_555
Mn6 Si14 2.471473 1_555
Mn6 Si12 2.472918 1_555
Mn7 Si32 2.422304 1_555
Mn7 Si24 2.432980 1_555
Mn7 Si34 2.437962 1_555
Mn7 Si23 2.450605 1_555
Mn7 Si15 2.471473 1_555
Mn7 Si13 2.472918 1_555
Mn8 Si38 2.422304 1_555
Mn8 Si30 2.432980 1_555
Mn8 Si37 2.437962 1_566
Mn8 Si19 2.450605 1_556
Mn8 Si11 2.471473 1_556
Mn8 Si10 2.472918 1_565
Mn9 Si37 2.422304 1_555
Mn9 Si29 2.432980 1_555
Mn9 Si39 2.437962 1_655
Mn9 Si18 2.450605 1_555
Mn9 Si10 2.471473 1_555
Mn9 Si8 2.472918 1_655
Mn10 Si36 2.422304 1_555
Mn10 Si28 2.432980 1_555
Mn10 Si38 2.437962 1_455
Mn10 Si17 2.450605 1_555
Mn10 Si9 2.471473 1_555
Mn10 Si11 2.472918 1_455
Mn11 Si39 2.422304 1_555
Mn11 Si31 2.432980 1_555
Mn11 Si36 2.437962 1_546
Mn11 Si16 2.450605 1_556
Mn11 Si8 2.471473 1_556
Mn11 Si9 2.472918 1_545
Mn12 Si34 2.422304 1_555
Mn12 Si26 2.432980 1_555
Mn12 Si35 2.437962 1_555
Mn12 Si21 2.450605 1_555
Mn12 Si13 2.471473 1_555
Mn12 Si14 2.472918 1_555
Mn13 Si33 2.422304 1_555
Mn13 Si25 2.432980 1_555
Mn13 Si32 2.437962 1_555
Mn13 Si20 2.450605 1_555
Mn13 Si12 2.471473 1_555
Mn13 Si15 2.472918 1_555
Mn14 Si32 2.422304 1_556
Mn14 Si24 2.432980 1_556
Mn14 Si34 2.437962 1_555
Mn14 Si23 2.450605 1_555
Mn14 Si15 2.471473 1_555
Mn14 Si13 2.472918 1_556
Mn15 Si35 2.422304 1_556
Mn15 Si27 2.432980 1_556
Mn15 Si33 2.437962 1_555
Mn15 Si22 2.450605 1_555
Mn15 Si14 2.471473 1_555
Mn15 Si12 2.472918 1_556
Mn16 Si4 2.400941 1_555
Mn16 Si5 2.436687 1_455
Mn16 Si29 2.454922 1_455
Mn16 Si41 2.513821 1_554
Mn16 Si46 2.513821 1_555
Mn17 Si6 2.400941 1_555
Mn17 Si7 2.436687 1_565
Mn17 Si31 2.454922 1_565
Mn17 Si44 2.513821 1_555
Mn17 Si43 2.513821 1_555
Mn18 Si7 2.400941 1_555
Mn18 Si6 2.436687 1_545
Mn18 Si30 2.454922 1_545
Mn18 Si40 2.513821 1_555
Mn18 Si47 2.513821 1_555
Mn19 Si5 2.400941 1_555
Mn19 Si4 2.436687 1_655
Mn19 Si28 2.454922 1_655
Mn19 Si42 2.513821 1_554
Mn19 Si45 2.513821 1_555
Mn20 Si0 2.400941 1_565
Mn20 Si3 2.436687 1_555
Mn20 Si27 2.454922 1_555
Mn20 Si44 2.513821 1_554
Mn20 Si43 2.513821 1_555
Mn21 Si3 2.400941 1_545
Mn21 Si0 2.436687 1_555
Mn21 Si24 2.454922 1_555
Mn21 Si47 2.513821 1_554
Mn21 Si40 2.513821 1_555
Mn22 Si1 2.400941 1_655
Mn22 Si2 2.436687 1_555
Mn22 Si26 2.454922 1_555
Mn22 Si42 2.513821 1_555
Mn22 Si45 2.513821 1_555
Mn23 Si2 2.400941 1_455
Mn23 Si1 2.436687 1_555
Mn23 Si25 2.454922 1_555
Mn23 Si41 2.513821 1_555
Mn23 Si46 2.513821 1_555
Mn24 Si1 2.411792 1_555
Mn24 Si4 2.411792 1_555
Mn24 Si25 2.504976 1_555
Mn24 Si28 2.504976 1_555
Mn24 Si20 2.506974 1_555
Mn24 Si17 2.506974 1_555
Mn25 Si3 2.411792 1_556
Mn25 Si6 2.411792 1_555
Mn25 Si27 2.504976 1_556
Mn25 Si30 2.504976 1_555
Mn25 Si22 2.506974 1_555
Mn25 Si19 2.506974 1_556
Mn26 Si7 2.411792 1_555
Mn26 Si0 2.411792 1_556
Mn26 Si31 2.504976 1_555
Mn26 Si24 2.504976 1_556
Mn26 Si23 2.506974 1_555
Mn26 Si16 2.506974 1_556
Mn27 Si5 2.411792 1_555
Mn27 Si2 2.411792 1_555
Mn27 Si29 2.504976 1_555
Mn27 Si26 2.504976 1_555
Mn27 Si18 2.506974 1_555
Mn27 Si21 2.506974 1_555
Mn28 Si5 2.411792 1_556
Mn28 Si2 2.411792 1_555
Mn28 Si29 2.504976 1_556
Mn28 Si26 2.504976 1_555
Mn28 Si18 2.506974 1_555
Mn28 Si21 2.506974 1_556
Mn29 Si7 2.411792 1_555
Mn29 Si0 2.411792 1_555
Mn29 Si31 2.504976 1_555
Mn29 Si24 2.504976 1_555
Mn29 Si23 2.506974 1_555
Mn29 Si16 2.506974 1_555
Mn30 Si6 2.411792 1_555
Mn30 Si3 2.411792 1_555
Mn30 Si27 2.504976 1_555
Mn30 Si30 2.504976 1_555
Mn30 Si19 2.506974 1_555
Mn30 Si22 2.506974 1_555
Mn31 Si1 2.411792 1_555
Mn31 Si4 2.411792 1_556
Mn31 Si25 2.504976 1_555
Mn31 Si28 2.504976 1_556
Mn31 Si20 2.506974 1_556
Mn31 Si17 2.506974 1_555
Si0 Zr20 2.624711 1_545
Si1 Zr22 2.624711 1_455
Si2 Zr23 2.624711 1_655
Si3 Zr21 2.624711 1_565
Si4 Zr16 2.624711 1_555
Si5 Zr19 2.624711 1_555
Si6 Zr17 2.624711 1_555
Si7 Zr18 2.624711 1_555
Si8 Zr0 2.723062 1_555
Si9 Zr1 2.723062 1_555
Si10 Si9 2.373067 1_645
Si10 Zr2 2.723062 1_555
Si11 Si8 2.373067 1_665
Si11 Zr3 2.723062 1_555
Si12 Si13 2.373067 1_555
Si12 Zr4 2.723062 1_555
Si13 Zr5 2.723062 1_555
Si14 Si15 2.373067 1_555
Si14 Zr6 2.723062 1_555
Si15 Zr7 2.723062 1_555
Si16 Zr8 2.754620 1_555
Si16 Zr20 2.770462 1_545
Si16 Zr0 2.804252 1_555
Si16 Zr15 2.869466 1_554
Si16 Zr15 2.869466 1_555
Si17 Zr9 2.754620 1_555
Si17 Zr22 2.770462 1_455
Si17 Zr1 2.804252 1_555
Si17 Zr12 2.869466 1_555
Si17 Zr12 2.869466 1_556
Si18 Zr10 2.754620 1_555
Si18 Zr23 2.770462 1_655
Si18 Zr2 2.804252 1_555
Si18 Zr13 2.869466 1_556
Si18 Zr13 2.869466 1_555
Si19 Zr11 2.754620 1_555
Si19 Zr21 2.770462 1_565
Si19 Zr3 2.804252 1_555
Si19 Zr14 2.869466 1_555
Si19 Zr14 2.869466 1_554
Si20 Zr12 2.754620 1_555
Si20 Zr16 2.770462 1_555
Si20 Zr4 2.804252 1_555
Si20 Zr9 2.869466 1_554
Si20 Zr9 2.869466 1_555
Si21 Zr13 2.754620 1_555
Si21 Zr19 2.770462 1_555
Si21 Zr5 2.804252 1_555
Si21 Zr10 2.869466 1_554
Si21 Zr10 2.869466 1_555
Si22 Zr14 2.754620 1_555
Si22 Zr17 2.770462 1_555
Si22 Zr6 2.804252 1_555
Si22 Zr11 2.869466 1_556
Si22 Zr11 2.869466 1_555
Si23 Zr15 2.754620 1_555
Si23 Zr18 2.770462 1_555
Si23 Zr7 2.804252 1_555
Si23 Zr8 2.869466 1_556
Si23 Zr8 2.869466 1_555
Si24 Zr8 2.805019 1_555
Si24 Zr5 2.840231 1_555
Si24 Zr18 2.854991 1_555
Si24 Zr18 2.854991 1_554
Si25 Zr9 2.805019 1_555
Si25 Zr7 2.840231 1_555
Si25 Zr16 2.854991 1_555
Si25 Zr16 2.854991 1_556
Si26 Zr10 2.805019 1_555
Si26 Zr6 2.840231 1_555
Si26 Zr19 2.854991 1_555
Si26 Zr19 2.854991 1_556
Si27 Zr11 2.805019 1_555
Si27 Zr4 2.840231 1_555
Si27 Zr17 2.854991 1_554
Si27 Zr17 2.854991 1_555
Si28 Zr12 2.805019 1_555
Si28 Zr3 2.840231 1_455
Si28 Zr22 2.854991 1_455
Si28 Zr22 2.854991 1_454
Si29 Zr13 2.805019 1_555
Si29 Zr0 2.840231 1_655
Si29 Zr23 2.854991 1_654
Si29 Zr23 2.854991 1_655
Si30 Zr14 2.805019 1_555
Si30 Zr2 2.840231 1_565
Si30 Zr21 2.854991 1_565
Si30 Zr21 2.854991 1_566
Si31 Zr15 2.805019 1_555
Si31 Zr1 2.840231 1_545
Si31 Zr20 2.854991 1_546
Si31 Zr20 2.854991 1_545
Si32 Zr16 2.734610 1_555
Si32 Zr8 2.795299 1_555
Si32 Zr7 2.859567 1_555
Si32 Zr7 2.859567 1_554
Si33 Zr17 2.734610 1_555
Si33 Zr9 2.795299 1_555
Si33 Zr4 2.859567 1_555
Si33 Zr4 2.859567 1_556
Si34 Zr18 2.734610 1_555
Si34 Zr10 2.795299 1_555
Si34 Zr5 2.859567 1_556
Si34 Zr5 2.859567 1_555
Si35 Zr19 2.734610 1_555
Si35 Zr11 2.795299 1_555
Si35 Zr6 2.859567 1_554
Si35 Zr6 2.859567 1_555
Si36 Zr20 2.734610 1_555
Si36 Zr12 2.795299 1_555
Si36 Zr1 2.859567 1_554
Si36 Zr1 2.859567 1_555
Si37 Zr21 2.734610 1_555
Si37 Zr13 2.795299 1_555
Si37 Zr2 2.859567 1_554
Si37 Zr2 2.859567 1_555
Si38 Zr22 2.734610 1_555
Si38 Zr14 2.795299 1_555
Si38 Zr3 2.859567 1_555
Si38 Zr3 2.859567 1_556
Si39 Zr23 2.734610 1_555
Si39 Zr15 2.795299 1_555
Si39 Zr0 2.859567 1_555
Si39 Zr0 2.859567 1_556
Si40 Si47 2.545753 1_555
Si40 Si47 2.545753 1_554
Si40 Zr21 2.775505 1_555
Si40 Zr18 2.775505 1_555
Si40 Zr5 2.820342 1_555
Si40 Zr2 2.820342 1_555
Si40 Zr13 2.839617 1_555
Si40 Zr10 2.839617 1_555
Si41 Si46 2.545753 1_555
Si41 Si46 2.545753 1_556
Si41 Zr16 2.775505 1_556
Si41 Zr23 2.775505 1_555
Si41 Zr0 2.820342 1_556
Si41 Zr7 2.820342 1_555
Si41 Zr8 2.839617 1_556
Si41 Zr15 2.839617 1_555
Si42 Si45 2.545753 1_556
Si42 Si45 2.545753 1_555
Si42 Zr19 2.775505 1_556
Si42 Zr22 2.775505 1_555
Si42 Zr6 2.820342 1_555
Si42 Zr3 2.820342 1_556
Si42 Zr14 2.839617 1_555
Si42 Zr11 2.839617 1_556
Si43 Si44 2.545753 1_555
Si43 Si44 2.545753 1_554
Si43 Zr17 2.775505 1_555
Si43 Zr20 2.775505 1_555
Si43 Zr4 2.820342 1_555
Si43 Zr1 2.820342 1_555
Si43 Zr9 2.839617 1_555
Si43 Zr12 2.839617 1_555
Si44 Zr17 2.775505 1_555
Si44 Zr20 2.775505 1_556
Si44 Zr4 2.820342 1_556
Si44 Zr1 2.820342 1_555
Si44 Zr9 2.839617 1_555
Si44 Zr12 2.839617 1_556
Si45 Zr22 2.775505 1_555
Si45 Zr19 2.775505 1_555
Si45 Zr6 2.820342 1_555
Si45 Zr3 2.820342 1_555
Si45 Zr14 2.839617 1_555
Si45 Zr11 2.839617 1_555
Si46 Zr16 2.775505 1_555
Si46 Zr23 2.775505 1_555
Si46 Zr0 2.820342 1_555
Si46 Zr7 2.820342 1_555
Si46 Zr8 2.839617 1_555
Si46 Zr15 2.839617 1_555
Si47 Zr21 2.775505 1_556
Si47 Zr18 2.775505 1_555
Si47 Zr5 2.820342 1_556
Si47 Zr2 2.820342 1_555
Si47 Zr13 2.839617 1_556
Si47 Zr10 2.839617 1_555
