# generated using pymatgen
data_Hf3Ga3Mo2N
_symmetry_space_group_name_H-M   'P 1'
_cell_length_a   7.74501322
_cell_length_b   7.74501235
_cell_length_c   5.33028378
_cell_angle_alpha   90.00000000
_cell_angle_beta   90.00000000
_cell_angle_gamma   120.00000374
_symmetry_Int_Tables_number   1
_chemical_formula_structural   Hf3Ga3Mo2N
_chemical_formula_sum   'Hf6 Ga6 Mo4 N2'
_cell_volume   276.90144649
_cell_formula_units_Z   2
loop_
 _symmetry_equiv_pos_site_id
 _symmetry_equiv_pos_as_xyz
  1  'x, y, z'
loop_
 _atom_site_type_symbol
 _atom_site_label
 _atom_site_symmetry_multiplicity
 _atom_site_fract_x
 _atom_site_fract_y
 _atom_site_fract_z
 _atom_site_occupancy
  Hf  Hf0  1  0.23578315  0.00000000  0.25000000  1
  Hf  Hf1  1  0.76421685  0.00000000  0.75000000  1
  Hf  Hf2  1  1.00000000  0.23578315  0.25000000  1
  Hf  Hf3  1  0.00000000  0.76421685  0.75000000  1
  Hf  Hf4  1  0.76421685  0.76421685  0.25000000  1
  Hf  Hf5  1  0.23578315  0.23578315  0.75000000  1
  Ga  Ga0  1  0.59013800  0.00000000  0.25000000  1
  Ga  Ga1  1  0.40986200  0.00000000  0.75000000  1
  Ga  Ga2  1  0.00000000  0.59013800  0.25000000  1
  Ga  Ga3  1  1.00000000  0.40986200  0.75000000  1
  Ga  Ga4  1  0.40986200  0.40986200  0.25000000  1
  Ga  Ga5  1  0.59013800  0.59013800  0.75000000  1
  Mo  Mo0  1  0.33333300  0.66666700  0.00000000  1
  Mo  Mo1  1  0.66666700  0.33333300  0.00000000  1
  Mo  Mo2  1  0.66666700  0.33333300  0.50000000  1
  Mo  Mo3  1  0.33333300  0.66666700  0.50000000  1
  N  N0  1  0.00000000  0.00000000  0.00000000  1
  N  N1  1  0.00000000  0.00000000  0.50000000  1
loop_
_geom_bond_atom_site_label_1
_geom_bond_atom_site_label_2
_geom_bond_distance
_geom_bond_site_symmetry_2
Hf0 N1 2.260652 1_555
Hf0 N0 2.260652 1_555
Hf0 Mo0 3.310905 1_545
Hf0 Mo3 3.310905 1_545
Hf0 Mo2 3.310909 1_555
Hf0 Mo1 3.310909 1_555
Hf1 N0 2.260652 1_656
Hf1 N1 2.260652 1_655
Hf1 Mo2 3.310905 1_555
Hf1 Mo1 3.310905 1_556
Hf1 Mo0 3.310909 1_546
Hf1 Mo3 3.310909 1_545
Hf2 N0 2.260651 1_655
Hf2 N1 2.260651 1_655
Hf2 Mo1 3.310905 1_555
Hf2 Mo2 3.310905 1_555
Hf2 Mo3 3.310909 1_655
Hf2 Mo0 3.310909 1_655
Hf3 N1 2.260651 1_565
Hf3 N0 2.260651 1_566
Hf3 Mo0 3.310905 1_556
Hf3 Mo3 3.310905 1_555
Hf3 Mo1 3.310909 1_456
Hf3 Mo2 3.310909 1_455
Hf4 N0 2.260651 1_665
Hf4 N1 2.260651 1_665
Hf4 Mo1 3.310911 1_555
Hf4 Mo2 3.310911 1_555
Hf4 Mo0 3.310912 1_555
Hf4 Mo3 3.310912 1_555
Hf5 N1 2.260651 1_555
Hf5 N0 2.260651 1_556
Hf5 Mo0 3.310911 1_556
Hf5 Mo3 3.310911 1_555
Hf5 Mo1 3.310912 1_556
Hf5 Mo2 3.310912 1_555
Ga0 Mo2 2.694786 1_555
Ga0 Mo1 2.694786 1_555
Ga0 Mo3 2.694788 1_545
Ga0 Mo0 2.694788 1_545
Ga0 Hf0 2.744483 1_555
Ga0 Hf2 2.759465 1_555
Ga0 Hf4 2.759465 1_545
Ga0 Hf1 2.986761 1_554
Ga0 Hf1 2.986761 1_555
Ga1 Mo0 2.694786 1_546
Ga1 Mo3 2.694786 1_545
Ga1 Mo1 2.694788 1_556
Ga1 Mo2 2.694788 1_555
Ga1 Hf1 2.744483 1_555
Ga1 Hf3 2.759465 1_545
Ga1 Hf5 2.759465 1_555
Ga1 Hf0 2.986761 1_556
Ga1 Hf0 2.986761 1_555
Ga2 Mo0 2.694786 1_555
Ga2 Mo3 2.694786 1_555
Ga2 Mo1 2.694788 1_455
Ga2 Mo2 2.694788 1_455
Ga2 Hf2 2.744483 1_455
Ga2 Hf0 2.759464 1_565
Ga2 Hf4 2.759465 1_455
Ga2 Hf3 2.986761 1_554
Ga2 Hf3 2.986761 1_555
Ga3 Mo2 2.694786 1_555
Ga3 Mo1 2.694786 1_556
Ga3 Mo3 2.694788 1_655
Ga3 Mo0 2.694788 1_656
Ga3 Hf3 2.744483 1_655
Ga3 Hf1 2.759464 1_555
Ga3 Hf5 2.759465 1_655
Ga3 Hf2 2.986761 1_555
Ga3 Hf2 2.986761 1_556
Ga4 Mo3 2.694792 1_555
Ga4 Mo0 2.694792 1_555
Ga4 Mo1 2.694792 1_555
Ga4 Mo2 2.694792 1_555
Ga4 Hf4 2.744483 1_555
Ga4 Hf0 2.759464 1_555
Ga4 Hf2 2.759465 1_455
Ga4 Hf5 2.986761 1_554
Ga4 Hf5 2.986761 1_555
Ga5 Mo2 2.694792 1_555
Ga5 Mo1 2.694792 1_556
Ga5 Mo3 2.694792 1_555
Ga5 Mo0 2.694792 1_556
Ga5 Hf5 2.744483 1_555
Ga5 Hf1 2.759464 1_565
Ga5 Hf3 2.759465 1_655
Ga5 Hf4 2.986761 1_555
Ga5 Hf4 2.986761 1_556
Mo0 Mo3 2.665142 1_555
Mo0 Mo3 2.665142 1_554
Mo1 Mo2 2.665142 1_555
Mo1 Mo2 2.665142 1_554
