# generated using pymatgen
data_MgCd2(Ni10P3)2
_symmetry_space_group_name_H-M   'P 1'
_cell_length_a   7.80683302
_cell_length_b   7.80683271
_cell_length_c   7.80683299
_cell_angle_alpha   60.00000294
_cell_angle_beta   60.00000426
_cell_angle_gamma   60.00000391
_symmetry_Int_Tables_number   1
_chemical_formula_structural   MgCd2(Ni10P3)2
_chemical_formula_sum   'Mg1 Cd2 Ni20 P6'
_cell_volume   336.44160054
_cell_formula_units_Z   1
loop_
 _symmetry_equiv_pos_site_id
 _symmetry_equiv_pos_as_xyz
  1  'x, y, z'
loop_
 _atom_site_type_symbol
 _atom_site_label
 _atom_site_symmetry_multiplicity
 _atom_site_fract_x
 _atom_site_fract_y
 _atom_site_fract_z
 _atom_site_occupancy
  Mg  Mg0  1  0.00000000  0.00000000  0.00000000  1
  Cd  Cd0  1  0.25000000  0.25000000  0.25000000  1
  Cd  Cd1  1  0.75000000  0.75000000  0.75000000  1
  Ni  Ni0  1  0.38534873  0.38534873  0.84395382  1
  Ni  Ni1  1  0.61465227  0.61465227  0.61465127  1
  Ni  Ni2  1  0.00000000  0.34887533  0.00000000  1
  Ni  Ni3  1  0.34887533  0.00000000  0.00000000  1
  Ni  Ni4  1  1.00000000  0.34887533  0.65112467  1
  Ni  Ni5  1  0.84395382  0.38534873  0.38534773  1
  Ni  Ni6  1  0.34887533  0.00000000  0.65112467  1
  Ni  Ni7  1  0.00000000  0.00000000  0.34887533  1
  Ni  Ni8  1  0.65112467  0.34887533  1.00000000  1
  Ni  Ni9  1  0.00000000  0.65112467  0.34887533  1
  Ni  Ni10  1  1.00000000  1.00000000  0.65112467  1
  Ni  Ni11  1  0.34887533  0.65112467  0.00000000  1
  Ni  Ni12  1  0.65112467  1.00000000  1.00000000  1
  Ni  Ni13  1  1.00000000  0.65112467  1.00000000  1
  Ni  Ni14  1  0.38534873  0.84395482  0.38534873  1
  Ni  Ni15  1  0.61465127  0.61465227  0.15604518  1
  Ni  Ni16  1  0.61465127  0.15604618  0.61465127  1
  Ni  Ni17  1  0.15604618  0.61465227  0.61465227  1
  Ni  Ni18  1  0.38534773  0.38534873  0.38534773  1
  Ni  Ni19  1  0.65112467  1.00000000  0.34887533  1
  P  P0  1  0.26405951  0.26405951  0.73594049  1
  P  P1  1  0.73594049  0.73594049  0.26405951  1
  P  P2  1  0.73594049  0.26405951  0.26405951  1
  P  P3  1  0.26405951  0.73594049  0.73594049  1
  P  P4  1  0.26405951  0.73594049  0.26405951  1
  P  P5  1  0.73594049  0.26405951  0.73594049  1
loop_
_geom_bond_atom_site_label_1
_geom_bond_atom_site_label_2
_geom_bond_distance
_geom_bond_site_symmetry_2
Mg0 Ni2 2.723611 1_555
Mg0 Ni13 2.723611 1_444
Mg0 Ni7 2.723611 1_555
Mg0 Ni10 2.723611 1_444
Mg0 Ni3 2.723611 1_555
Mg0 Ni12 2.723611 1_444
Mg0 Ni4 2.723611 1_454
Mg0 Ni9 2.723611 1_545
Mg0 Ni8 2.723612 1_454
Mg0 Ni11 2.723612 1_545
Mg0 Ni19 2.723612 1_445
Mg0 Ni6 2.723612 1_554
Mg0 P0 2.915357 1_554
Mg0 P1 2.915357 1_445
Mg0 P2 2.915357 1_455
Mg0 P3 2.915357 1_544
Mg0 P4 2.915357 1_545
Mg0 P5 2.915357 1_454
Cd0 Ni18 2.588228 1_555
Cd0 Ni14 2.588234 1_545
Cd0 Ni0 2.588241 1_554
Cd0 Ni5 2.588241 1_455
Cd0 Ni7 3.001711 1_555
Cd0 Ni3 3.001711 1_555
Cd0 Ni11 3.001711 1_555
Cd0 Ni2 3.001711 1_555
Cd0 Ni9 3.001711 1_555
Cd0 Ni6 3.001711 1_555
Cd0 Ni13 3.001711 1_454
Cd0 Ni19 3.001711 1_545
Cd0 Ni8 3.001711 1_554
Cd0 Ni4 3.001711 1_455
Cd0 Ni10 3.001711 1_445
Cd0 Ni12 3.001711 1_544
Cd1 Ni1 2.588228 1_555
Cd1 Ni15 2.588235 1_556
Cd1 Ni16 2.588241 1_565
Cd1 Ni17 2.588241 1_655
Cd1 Ni10 3.001711 1_555
Cd1 Ni12 3.001711 1_555
Cd1 Ni8 3.001711 1_555
Cd1 Ni13 3.001711 1_555
Cd1 Ni4 3.001711 1_555
Cd1 Ni19 3.001711 1_555
Cd1 Ni2 3.001711 1_656
Cd1 Ni6 3.001711 1_565
Cd1 Ni11 3.001711 1_556
Cd1 Ni9 3.001711 1_655
Cd1 Ni7 3.001711 1_665
Cd1 Ni3 3.001711 1_566
Ni0 P0 2.235561 1_555
Ni0 P3 2.235561 1_555
Ni0 P5 2.235562 1_555
Ni1 P1 2.235561 1_555
Ni1 P5 2.235567 1_555
Ni1 P3 2.235568 1_555
Ni2 P2 2.165199 1_455
Ni2 P0 2.165199 1_554
Ni3 P4 2.165199 1_545
Ni3 P0 2.165199 1_554
Ni4 P5 2.165199 1_555
Ni4 P0 2.165199 1_655
Ni5 P2 2.235555 1_555
Ni5 P1 2.235561 1_555
Ni5 P5 2.235568 1_555
Ni6 P3 2.165199 1_545
Ni6 P0 2.165199 1_555
Ni7 P2 2.165199 1_455
Ni7 P4 2.165199 1_545
Ni8 P5 2.165199 1_555
Ni8 P2 2.165199 1_556
Ni9 P4 2.165199 1_555
Ni9 P1 2.165199 1_455
Ni10 P3 2.165199 1_655
Ni10 P5 2.165199 1_565
Ni11 P4 2.165199 1_555
Ni11 P3 2.165199 1_554
Ni12 P5 2.165199 1_565
Ni12 P1 2.165199 1_556
Ni13 P3 2.165199 1_655
Ni13 P1 2.165199 1_556
Ni14 P3 2.235561 1_555
Ni14 P1 2.235561 1_555
Ni14 P4 2.235568 1_555
Ni15 P1 2.235561 1_555
Ni15 P4 2.235561 1_555
Ni15 P2 2.235568 1_555
Ni16 P5 2.235561 1_555
Ni16 P2 2.235561 1_555
Ni16 P0 2.235562 1_555
Ni17 P3 2.235548 1_555
Ni17 P0 2.235568 1_555
Ni17 P4 2.235568 1_555
Ni18 P4 2.235561 1_555
Ni18 P0 2.235568 1_555
Ni18 P2 2.235568 1_555
Ni19 P2 2.165199 1_565
Ni19 P1 2.165199 1_555
