# generated using pymatgen
data_NaMn(CO3)2
_symmetry_space_group_name_H-M   'P 1'
_cell_length_a   4.77486150
_cell_length_b   5.97866503
_cell_length_c   8.17319713
_cell_angle_alpha   76.15416311
_cell_angle_beta   86.98295725
_cell_angle_gamma   112.72829351
_symmetry_Int_Tables_number   1
_chemical_formula_structural   NaMn(CO3)2
_chemical_formula_sum   'Na2 Mn2 C4 O12'
_cell_volume   206.19075718
_cell_formula_units_Z   2
loop_
 _symmetry_equiv_pos_site_id
 _symmetry_equiv_pos_as_xyz
  1  'x, y, z'
loop_
 _atom_site_type_symbol
 _atom_site_label
 _atom_site_symmetry_multiplicity
 _atom_site_fract_x
 _atom_site_fract_y
 _atom_site_fract_z
 _atom_site_occupancy
  Na  Na0  1  0.99999308  0.99999878  0.00000277  1
  Na  Na1  1  0.49998838  0.99999899  0.50000189  1
  Mn  Mn0  1  0.75001649  0.49999912  0.75000394  1
  Mn  Mn1  1  0.24999146  0.50000192  0.25000043  1
  C  C0  1  0.86801510  0.71720810  0.38318734  1
  C  C1  1  0.36800579  0.71722203  0.88316588  1
  C  C2  1  0.63199721  0.28277714  0.11683729  1
  C  C3  1  0.13198666  0.28279112  0.61681337  1
  O  O0  1  0.88526896  0.26645990  0.13360506  1
  O  O1  1  0.38524931  0.26647465  0.63359232  1
  O  O2  1  0.47725202  0.71227790  0.02604959  1
  O  O3  1  0.97727746  0.71227968  0.52604888  1
  O  O4  1  0.03718955  0.71804888  0.25237040  1
  O  O5  1  0.53722117  0.71804982  0.75235542  1
  O  O6  1  0.46278572  0.28195382  0.24764524  1
  O  O7  1  0.96280099  0.28194988  0.74763091  1
  O  O8  1  0.02271398  0.28771657  0.47394262  1
  O  O9  1  0.52275000  0.28771817  0.97395164  1
  O  O10  1  0.61475572  0.73353395  0.36640222  1
  O  O11  1  0.11473897  0.73354059  0.86639377  1
loop_
_geom_bond_atom_site_label_1
_geom_bond_atom_site_label_2
_geom_bond_distance
_geom_bond_site_symmetry_2
Na0 O0 2.339728 1_565
Na0 O11 2.339795 1_654
Na0 O2 2.384424 1_555
Na0 O9 2.384474 1_664
Na0 O4 2.394443 1_655
Na0 O7 2.394463 1_564
Na1 O1 2.339778 1_565
Na1 O10 2.339833 1_555
Na1 O3 2.384311 1_455
Na1 O8 2.384348 1_665
Na1 O6 2.394408 1_565
Na1 O5 2.394429 1_555
Mn0 O9 1.937377 1_555
Mn0 O3 1.937416 1_555
Mn0 O7 1.940533 1_555
Mn0 O5 1.940556 1_555
Mn0 O11 2.195100 1_655
Mn0 O1 2.195290 1_555
Mn1 O8 1.937362 1_555
Mn1 O2 1.937383 1_555
Mn1 O6 1.940543 1_555
Mn1 O4 1.940583 1_555
Mn1 O0 2.195130 1_455
Mn1 O10 2.195251 1_555
C0 O10 1.262127 1_555
C0 O3 1.302291 1_555
C0 O4 1.303491 1_655
C1 O11 1.262129 1_555
C1 O2 1.302418 1_556
C1 O5 1.303595 1_555
C2 O0 1.262144 1_555
C2 O9 1.302435 1_554
C2 O6 1.303580 1_555
C3 O1 1.262112 1_555
C3 O8 1.302383 1_555
C3 O7 1.303524 1_455
