# generated using pymatgen
data_Sr3C3Br2
_symmetry_space_group_name_H-M   'P 1'
_cell_length_a   7.73227218
_cell_length_b   7.73227261
_cell_length_c   12.10851812
_cell_angle_alpha   90.00000000
_cell_angle_beta   90.00000000
_cell_angle_gamma   148.90887054
_symmetry_Int_Tables_number   1
_chemical_formula_structural   Sr3C3Br2
_chemical_formula_sum   'Sr6 C6 Br4'
_cell_volume   373.84549787
_cell_formula_units_Z   2
loop_
 _symmetry_equiv_pos_site_id
 _symmetry_equiv_pos_as_xyz
  1  'x, y, z'
loop_
 _atom_site_type_symbol
 _atom_site_label
 _atom_site_symmetry_multiplicity
 _atom_site_fract_x
 _atom_site_fract_y
 _atom_site_fract_z
 _atom_site_occupancy
  Sr  Sr0  1  0.65983930  0.34016070  0.56174355  1
  Sr  Sr1  1  0.34016070  0.65983930  0.43825645  1
  Sr  Sr2  1  0.34016070  0.65983930  0.06174355  1
  Sr  Sr3  1  0.65983930  0.34016070  0.93825645  1
  Sr  Sr4  1  0.12552186  0.87447814  0.25000000  1
  Sr  Sr5  1  0.87447814  0.12552186  0.75000000  1
  C  C0  1  0.26680089  0.73319911  0.64018897  1
  C  C1  1  0.73319911  0.26680089  0.35981103  1
  C  C2  1  0.73319911  0.26680089  0.14018897  1
  C  C3  1  0.26680089  0.73319911  0.85981103  1
  C  C4  1  0.74142633  0.25857367  0.25000000  1
  C  C5  1  0.25857367  0.74142633  0.75000000  1
  Br  Br0  1  0.52638491  0.47361509  0.75000000  1
  Br  Br1  1  0.47361509  0.52638491  0.25000000  1
  Br  Br2  1  0.00000000  0.00000000  0.00000000  1
  Br  Br3  1  0.00000000  0.00000000  0.50000000  1
loop_
_geom_bond_atom_site_label_1
_geom_bond_atom_site_label_2
_geom_bond_distance
_geom_bond_site_symmetry_2
C0 C5 1.335287 1_555
C0 Sr1 2.678269 1_555
C0 Sr0 2.781395 1_455
C0 Sr0 2.781395 1_565
C0 Sr5 2.938706 1_565
C0 Sr5 2.938706 1_455
C1 C4 1.335287 1_555
C1 Sr0 2.678269 1_555
C1 Sr1 2.781395 1_655
C1 Sr1 2.781395 1_545
C1 Sr4 2.938706 1_545
C1 Sr4 2.938706 1_655
C2 C4 1.335287 1_555
C2 Sr3 2.678269 1_554
C2 Sr2 2.781395 1_655
C2 Sr2 2.781395 1_545
C2 Sr4 2.938706 1_545
C2 Sr4 2.938706 1_655
C3 C5 1.335287 1_555
C3 Sr2 2.678269 1_556
C3 Sr3 2.781395 1_455
C3 Sr3 2.781395 1_565
C3 Sr5 2.938706 1_565
C3 Sr5 2.938706 1_455
C4 Sr4 2.697469 1_545
C4 Sr4 2.697469 1_655
C5 Sr5 2.697469 1_565
C5 Sr5 2.697469 1_455
Br0 Sr3 3.024820 1_555
Br0 Sr0 3.024820 1_555
Br0 Sr5 3.068644 1_455
Br0 Sr5 3.068645 1_565
Br1 Sr1 3.024820 1_555
Br1 Sr2 3.024820 1_555
Br1 Sr4 3.068644 1_655
Br1 Sr4 3.068645 1_545
Br2 Sr2 3.244140 1_445
Br2 Sr3 3.244140 1_554
Br2 Sr2 3.244141 1_555
Br2 Sr3 3.244141 1_444
Br2 Sr4 3.558214 1_545
Br2 Sr5 3.558214 1_454
Br3 Sr0 3.244140 1_555
Br3 Sr1 3.244140 1_445
Br3 Sr0 3.244141 1_445
Br3 Sr1 3.244141 1_555
Br3 Sr4 3.558214 1_545
Br3 Sr5 3.558214 1_455
