# generated using pymatgen
data_Sr6TaTcO12
_symmetry_space_group_name_H-M   'P 1'
_cell_length_a   6.10190327
_cell_length_b   5.84857399
_cell_length_c   10.21749154
_cell_angle_alpha   54.92546038
_cell_angle_beta   89.83059381
_cell_angle_gamma   89.77532569
_symmetry_Int_Tables_number   1
_chemical_formula_structural   Sr6TaTcO12
_chemical_formula_sum   'Sr6 Ta1 Tc1 O12'
_cell_volume   298.41761003
_cell_formula_units_Z   1
loop_
 _symmetry_equiv_pos_site_id
 _symmetry_equiv_pos_as_xyz
  1  'x, y, z'
loop_
 _atom_site_type_symbol
 _atom_site_label
 _atom_site_symmetry_multiplicity
 _atom_site_fract_x
 _atom_site_fract_y
 _atom_site_fract_z
 _atom_site_occupancy
  Sr  Sr0  1  0.50000000  0.50000000  0.50000000  1
  Sr  Sr1  1  0.94893546  0.72406509  0.26407161  1
  Sr  Sr2  1  0.44474397  0.26220578  0.25605258  1
  Sr  Sr3  1  0.00000000  0.50000000  0.00000000  1
  Sr  Sr4  1  0.55525603  0.73779422  0.74394742  1
  Sr  Sr5  1  0.05106454  0.27593491  0.73592839  1
  Ta  Ta0  1  0.00000000  0.00000000  0.50000000  1
  Tc  Tc0  1  0.50000000  0.00000000  0.00000000  1
  O  O0  1  0.45840387  0.11068254  0.78957914  1
  O  O1  1  0.24359332  0.77800780  0.06190425  1
  O  O2  1  0.18081203  0.32288141  0.45215124  1
  O  O3  1  0.66782880  0.69341012  0.04476724  1
  O  O4  1  0.73089978  0.24293649  0.43084048  1
  O  O5  1  0.94782720  0.88375579  0.72463220  1
  O  O6  1  0.05217280  0.11624421  0.27536780  1
  O  O7  1  0.26910022  0.75706351  0.56915952  1
  O  O8  1  0.33217120  0.30658988  0.95523276  1
  O  O9  1  0.81918797  0.67711859  0.54784876  1
  O  O10  1  0.75640668  0.22199220  0.93809575  1
  O  O11  1  0.54159613  0.88931746  0.21042086  1
loop_
_geom_bond_atom_site_label_1
_geom_bond_atom_site_label_2
_geom_bond_distance
_geom_bond_site_symmetry_2
O0 Tc0 1.873038 1_556
O0 Sr0 2.502130 1_555
O0 Sr4 2.545521 1_545
O0 Sr5 2.606311 1_555
O1 Tc0 1.897340 1_565
O1 Sr3 2.541569 1_555
O1 Sr1 2.613932 1_455
O1 Sr2 2.765841 1_555
O1 Sr5 3.130979 1_564
O2 Ta0 1.993596 1_555
O2 Sr0 2.389339 1_555
O2 Sr1 2.451153 1_455
O2 Sr2 2.743676 1_555
O2 Sr5 2.860490 1_555
O3 Tc0 1.875887 1_565
O3 Sr3 2.483584 1_655
O3 Sr2 2.574100 1_555
O3 Sr1 2.912408 1_555
O3 Sr4 3.013388 1_554
O4 Ta0 2.012215 1_655
O4 Sr0 2.437885 1_555
O4 Sr2 2.456939 1_555
O4 Sr1 2.664024 1_555
O4 Sr4 3.041991 1_545
O5 Ta0 2.008838 1_665
O5 Sr3 2.407718 1_656
O5 Sr5 2.446871 1_665
O5 Sr4 2.515036 1_555
O6 Ta0 2.008838 1_555
O6 Sr3 2.407718 1_555
O6 Sr1 2.446871 1_445
O6 Sr2 2.515036 1_555
O7 Ta0 2.012215 1_565
O7 Sr0 2.437885 1_555
O7 Sr4 2.456939 1_555
O7 Sr5 2.664024 1_555
O7 Sr2 3.041991 1_565
O8 Tc0 1.875887 1_556
O8 Sr3 2.483584 1_556
O8 Sr4 2.574100 1_555
O8 Sr5 2.912408 1_555
O8 Sr2 3.013388 1_556
O9 Ta0 1.993596 1_665
O9 Sr0 2.389339 1_555
O9 Sr5 2.451153 1_655
O9 Sr4 2.743676 1_555
O9 Sr1 2.860490 1_555
O10 Tc0 1.897340 1_556
O10 Sr3 2.541569 1_656
O10 Sr5 2.613932 1_655
O10 Sr4 2.765841 1_555
O10 Sr1 3.130979 1_546
O11 Tc0 1.873038 1_565
O11 Sr0 2.502130 1_555
O11 Sr2 2.545521 1_565
O11 Sr1 2.606311 1_555
