# generated using pymatgen
data_Be(InTe2)2
_symmetry_space_group_name_H-M   'P 1'
_cell_length_a   7.50395146
_cell_length_b   7.50395154
_cell_length_c   7.50395241
_cell_angle_alpha   132.31933136
_cell_angle_beta   132.31933372
_cell_angle_gamma   69.72513906
_symmetry_Int_Tables_number   1
_chemical_formula_structural   Be(InTe2)2
_chemical_formula_sum   'Be1 In2 Te4'
_cell_volume   226.56445064
_cell_formula_units_Z   1
loop_
 _symmetry_equiv_pos_site_id
 _symmetry_equiv_pos_as_xyz
  1  'x, y, z'
loop_
 _atom_site_type_symbol
 _atom_site_label
 _atom_site_symmetry_multiplicity
 _atom_site_fract_x
 _atom_site_fract_y
 _atom_site_fract_z
 _atom_site_occupancy
  Be  Be0  1  0.00000000  0.00000000  0.00000000  1
  In  In0  1  0.50000000  0.50000000  0.00000000  1
  In  In1  1  0.25000000  0.75000000  0.50000000  1
  Te  Te0  1  0.37476257  0.92432877  0.04818951  1
  Te  Te1  1  0.07567123  0.12386074  0.45043380  1
  Te  Te2  1  0.67342694  0.62523743  0.54956620  1
  Te  Te3  1  0.87614026  0.32657306  0.95181149  1
loop_
_geom_bond_atom_site_label_1
_geom_bond_atom_site_label_2
_geom_bond_distance
_geom_bond_site_symmetry_2
Be0 Te3 2.482362 1_454
Be0 Te0 2.482366 1_545
Be0 Te2 2.482366 1_444
Be0 Te1 2.482366 1_555
In0 Te0 2.825954 1_555
In0 Te1 2.825954 1_554
In0 Te2 2.825955 1_555
In0 Te3 2.825957 1_554
In1 Te3 2.815401 1_454
In1 Te2 2.815404 1_555
In1 Te1 2.815404 1_565
In1 Te0 2.815404 1_556
