# generated using pymatgen
data_NaCa4(AsRh)6
_symmetry_space_group_name_H-M   'P 1'
_cell_length_a   7.41234131
_cell_length_b   7.41234170
_cell_length_c   7.41234002
_cell_angle_alpha   109.47122137
_cell_angle_beta   109.47122242
_cell_angle_gamma   109.47121403
_symmetry_Int_Tables_number   1
_chemical_formula_structural   NaCa4(AsRh)6
_chemical_formula_sum   'Na1 Ca4 As6 Rh6'
_cell_volume   313.50487916
_cell_formula_units_Z   1
loop_
 _symmetry_equiv_pos_site_id
 _symmetry_equiv_pos_as_xyz
  1  'x, y, z'
loop_
 _atom_site_type_symbol
 _atom_site_label
 _atom_site_symmetry_multiplicity
 _atom_site_fract_x
 _atom_site_fract_y
 _atom_site_fract_z
 _atom_site_occupancy
  Na  Na0  1  0.00000000  0.00000000  0.00000000  1
  Ca  Ca0  1  0.50000000  0.50000000  0.50000000  1
  Ca  Ca1  1  0.00000000  0.50000000  0.00000000  1
  Ca  Ca2  1  0.50000000  0.00000000  0.00000000  1
  Ca  Ca3  1  0.00000000  0.00000000  0.50000000  1
  As  As0  1  0.65900677  1.00000000  0.65900677  1
  As  As1  1  0.65900677  0.65900677  0.00000000  1
  As  As2  1  0.34099323  0.34099323  1.00000000  1
  As  As3  1  0.00000000  0.65900677  0.65900677  1
  As  As4  1  1.00000000  0.34099323  0.34099323  1
  As  As5  1  0.34099323  0.00000000  0.34099323  1
  Rh  Rh0  1  0.50000000  0.75000000  0.25000000  1
  Rh  Rh1  1  0.75000000  0.25000000  0.50000000  1
  Rh  Rh2  1  0.25000000  0.75000000  0.50000000  1
  Rh  Rh3  1  0.25000000  0.50000000  0.75000000  1
  Rh  Rh4  1  0.50000000  0.25000000  0.75000000  1
  Rh  Rh5  1  0.75000000  0.50000000  0.25000000  1
loop_
_geom_bond_atom_site_label_1
_geom_bond_atom_site_label_2
_geom_bond_distance
_geom_bond_site_symmetry_2
Ca0 Rh5 3.026075 1_555
Ca0 Rh3 3.026075 1_555
Ca0 Rh4 3.026075 1_555
Ca0 Rh0 3.026075 1_555
Ca0 Rh2 3.026076 1_555
Ca0 Rh1 3.026076 1_555
Ca1 Rh2 3.026075 1_555
Ca1 Rh1 3.026075 1_454
Ca1 Rh3 3.026075 1_554
Ca1 Rh5 3.026075 1_455
Ca1 Rh0 3.026076 1_555
Ca1 Rh4 3.026076 1_454
Ca2 Rh2 3.026075 1_544
Ca2 Rh1 3.026075 1_555
Ca2 Rh0 3.026075 1_545
Ca2 Rh4 3.026075 1_554
Ca2 Rh5 3.026076 1_555
Ca2 Rh3 3.026076 1_544
Ca3 Rh1 3.026076 1_455
Ca3 Rh2 3.026076 1_545
Ca3 Rh4 3.026076 1_555
Ca3 Rh0 3.026076 1_445
Ca3 Rh5 3.026076 1_445
Ca3 Rh3 3.026076 1_555
As0 Rh0 2.535889 1_555
As0 Rh4 2.535890 1_565
As0 Rh1 2.535890 1_565
As0 Rh2 2.535890 1_555
As0 Na0 2.918572 1_666
As0 Ca2 3.124689 1_566
As0 Ca3 3.124690 1_665
As0 Ca1 3.124690 1_666
As0 Ca0 3.124690 1_555
As1 Rh0 2.535889 1_555
As1 Rh5 2.535889 1_555
As1 Rh3 2.535890 1_554
As1 Rh4 2.535890 1_554
As1 Na0 2.918573 1_665
As1 Ca0 3.124689 1_554
As1 Ca3 3.124689 1_665
As1 Ca1 3.124690 1_655
As1 Ca2 3.124690 1_565
As2 Rh4 2.535889 1_555
As2 Rh3 2.535889 1_555
As2 Rh5 2.535890 1_556
As2 Rh0 2.535890 1_556
As2 Na0 2.918573 1_556
As2 Ca0 3.124689 1_556
As2 Ca3 3.124689 1_555
As2 Ca1 3.124690 1_556
As2 Ca2 3.124690 1_556
As3 Rh5 2.535889 1_455
As3 Rh3 2.535890 1_555
As3 Rh2 2.535890 1_555
As3 Rh1 2.535890 1_455
As3 Na0 2.918573 1_566
As3 Ca1 3.124689 1_556
As3 Ca3 3.124690 1_565
As3 Ca0 3.124690 1_455
As3 Ca2 3.124690 1_566
As4 Rh3 2.535889 1_655
As4 Rh5 2.535890 1_555
As4 Rh1 2.535890 1_555
As4 Rh2 2.535890 1_655
As4 Na0 2.918573 1_655
As4 Ca1 3.124689 1_655
As4 Ca3 3.124690 1_655
As4 Ca0 3.124690 1_655
As4 Ca2 3.124690 1_555
As5 Rh4 2.535889 1_555
As5 Rh0 2.535890 1_545
As5 Rh2 2.535890 1_545
As5 Rh1 2.535890 1_555
As5 Na0 2.918572 1_555
As5 Ca2 3.124689 1_555
As5 Ca3 3.124690 1_555
As5 Ca1 3.124690 1_545
As5 Ca0 3.124690 1_555
