# generated using pymatgen
data_Cs6ScInTe6
_symmetry_space_group_name_H-M   'P 1'
_cell_length_a   14.92375198
_cell_length_b   9.39989175
_cell_length_c   12.27160425
_cell_angle_alpha   52.87608977
_cell_angle_beta   90.00000000
_cell_angle_gamma   90.00000000
_symmetry_Int_Tables_number   1
_chemical_formula_structural   Cs6ScInTe6
_chemical_formula_sum   'Cs12 Sc2 In2 Te12'
_cell_volume   1372.59206229
_cell_formula_units_Z   2
loop_
 _symmetry_equiv_pos_site_id
 _symmetry_equiv_pos_as_xyz
  1  'x, y, z'
loop_
 _atom_site_type_symbol
 _atom_site_label
 _atom_site_symmetry_multiplicity
 _atom_site_fract_x
 _atom_site_fract_y
 _atom_site_fract_z
 _atom_site_occupancy
  Cs  Cs0  1  0.58088341  0.65137532  0.10652554  1
  Cs  Cs1  1  0.08088341  0.34862468  0.39347446  1
  Cs  Cs2  1  0.41810588  0.35030621  0.89033603  1
  Cs  Cs3  1  0.91810588  0.64969379  0.60966397  1
  Cs  Cs4  1  0.31182026  0.87487591  0.91585382  1
  Cs  Cs5  1  0.81182026  0.12512409  0.58414618  1
  Cs  Cs6  1  0.68521066  0.12216877  0.08619164  1
  Cs  Cs7  1  0.18521066  0.87783123  0.41380836  1
  Cs  Cs8  1  0.87422408  0.61822273  0.02091059  1
  Cs  Cs9  1  0.37422408  0.38177727  0.47908941  1
  Cs  Cs10  1  0.12931265  0.38000819  0.98094407  1
  Cs  Cs11  1  0.62931265  0.61999181  0.51905593  1
  Sc  Sc0  1  0.44110086  0.06205663  0.34527132  1
  Sc  Sc1  1  0.94110086  0.93794337  0.15472868  1
  In  In0  1  0.55882785  0.93173948  0.66144595  1
  In  In1  1  0.05882785  0.06826052  0.83855405  1
  Te  Te0  1  0.11385237  0.85002302  0.12085490  1
  Te  Te1  1  0.61385237  0.14997698  0.37914510  1
  Te  Te2  1  0.88368797  0.15095166  0.87769251  1
  Te  Te3  1  0.38368797  0.84904834  0.62230749  1
  Te  Te4  1  0.82980576  0.64490300  0.31164111  1
  Te  Te5  1  0.32980576  0.35509700  0.18835889  1
  Te  Te6  1  0.17269204  0.36185204  0.68728097  1
  Te  Te7  1  0.67269204  0.63814796  0.81271903  1
  Te  Te8  1  0.05383485  0.87427794  0.73583358  1
  Te  Te9  1  0.55383485  0.12572206  0.76416642  1
  Te  Te10  1  0.94664036  0.12226998  0.26356054  1
  Te  Te11  1  0.44664036  0.87773002  0.23643946  1
loop_
_geom_bond_atom_site_label_1
_geom_bond_atom_site_label_2
_geom_bond_distance
_geom_bond_site_symmetry_2
Cs0 Te1 3.822934 1_555
Cs0 Te9 3.883660 1_564
Cs0 Te11 3.895766 1_555
Cs0 Te7 3.928524 1_554
Cs1 Te0 3.822934 1_555
Cs1 Te8 3.883660 1_545
Cs1 Te10 3.895766 1_455
Cs1 Te6 3.928524 1_555
Cs2 Te3 3.801013 1_555
Cs2 Te9 3.860347 1_555
Cs2 Te11 3.896062 1_546
Cs2 Te5 3.913131 1_556
Cs2 Te6 4.394125 1_555
Cs2 Te7 4.421814 1_555
Cs3 Te2 3.801013 1_555
Cs3 Te8 3.860347 1_655
Cs3 Te10 3.896062 1_565
Cs3 Te4 3.913131 1_555
Cs3 Te7 4.394125 1_555
Cs3 Te6 4.421814 1_655
Cs4 Te0 3.795062 1_556
Cs4 Te3 3.904021 1_555
Cs4 Te5 3.924846 1_556
Cs4 In1 4.046962 1_565
Cs4 Te9 4.095313 1_565
Cs4 Te6 4.199280 1_565
Cs4 Te11 4.433226 1_556
Cs4 Te8 4.440569 1_555
Cs5 Te1 3.795062 1_555
Cs5 Te2 3.904021 1_555
Cs5 Te4 3.924846 1_555
Cs5 In0 4.046962 1_545
Cs5 Te8 4.095313 1_645
Cs5 Te7 4.199280 1_545
Cs5 Te10 4.433226 1_555
Cs5 Te9 4.440569 1_555
Cs6 Te2 3.815459 1_554
Cs6 Te7 3.895350 1_554
Cs6 Te1 3.906509 1_555
Cs6 Te11 4.030061 1_545
Cs6 Sc1 4.065913 1_545
Cs6 Te4 4.177936 1_545
Cs6 Te9 4.393436 1_554
Cs6 Te10 4.467873 1_555
Cs7 Te3 3.815459 1_555
Cs7 Te6 3.895350 1_555
Cs7 Te0 3.906509 1_555
Cs7 Te10 4.030061 1_465
Cs7 Sc0 4.065913 1_565
Cs7 Te5 4.177936 1_565
Cs7 Te8 4.393436 1_555
Cs7 Te11 4.467873 1_555
Cs8 Te4 3.782996 1_555
Cs8 Te10 3.874480 1_555
Cs8 Te7 3.876913 1_554
Cs8 Te8 3.879779 1_654
Cs8 Te2 4.190629 1_564
Cs9 Te5 3.782996 1_555
Cs9 Te11 3.874480 1_555
Cs9 Te6 3.876913 1_555
Cs9 Te9 3.879779 1_555
Cs9 Te3 4.190629 1_545
Cs10 Te6 3.765289 1_555
Cs10 Te5 3.842750 1_556
Cs10 Te8 3.877298 1_555
Cs10 Te10 3.897083 1_456
Cs10 Te0 4.182677 1_546
Cs11 Te7 3.765289 1_555
Cs11 Te4 3.842750 1_555
Cs11 Te9 3.877298 1_555
Cs11 Te11 3.897083 1_555
Cs11 Te1 4.182677 1_565
Sc0 Te11 2.754233 1_545
Sc0 Te5 2.766157 1_555
Sc0 Te1 2.813731 1_555
Sc0 Te3 2.843297 1_545
Sc1 Te10 2.754233 1_565
Sc1 Te4 2.766157 1_555
Sc1 Te0 2.813731 1_655
Sc1 Te2 2.843297 1_564
In0 Te9 2.773778 1_565
In0 Te7 2.786717 1_555
In0 Te3 2.849061 1_555
In0 Te1 2.881934 1_565
In1 Te8 2.773778 1_545
In1 Te6 2.786717 1_555
In1 Te2 2.849061 1_455
In1 Te0 2.881934 1_546
