# generated using pymatgen
data_Rb6ScInBi4
_symmetry_space_group_name_H-M   'P 1'
_cell_length_a   10.11629217
_cell_length_b   10.11629210
_cell_length_c   10.11629397
_cell_angle_alpha   127.01438699
_cell_angle_beta   70.60832440
_cell_angle_gamma   136.88710735
_symmetry_Int_Tables_number   1
_chemical_formula_structural   Rb6ScInBi4
_chemical_formula_sum   'Rb6 Sc1 In1 Bi4'
_cell_volume   553.91521916
_cell_formula_units_Z   1
loop_
 _symmetry_equiv_pos_site_id
 _symmetry_equiv_pos_as_xyz
  1  'x, y, z'
loop_
 _atom_site_type_symbol
 _atom_site_label
 _atom_site_symmetry_multiplicity
 _atom_site_fract_x
 _atom_site_fract_y
 _atom_site_fract_z
 _atom_site_occupancy
  Rb  Rb0  1  0.25000000  0.25000000  0.00000000  1
  Rb  Rb1  1  0.75000000  0.75000000  0.00000000  1
  Rb  Rb2  1  0.82981243  0.31638057  0.12585688  1
  Rb  Rb3  1  0.67018657  0.79604546  0.48656815  1
  Rb  Rb4  1  0.30947631  0.18361943  0.51343185  1
  Rb  Rb5  1  0.19052269  0.70395554  0.87414312  1
  Sc  Sc0  1  0.75000000  0.25000000  0.50000000  1
  In  In0  1  0.25000000  0.75000000  0.50000000  1
  Bi  Bi0  1  0.40528288  0.81316466  0.21210716  1
  Bi  Bi1  1  0.09471712  0.30682328  0.40788278  1
  Bi  Bi2  1  0.89894250  0.68683534  0.59211822  1
  Bi  Bi3  1  0.60105750  0.19317672  0.78789284  1
loop_
_geom_bond_atom_site_label_1
_geom_bond_atom_site_label_2
_geom_bond_distance
_geom_bond_site_symmetry_2
Rb2 Sc0 3.958279 1_555
Rb3 Sc0 3.958261 1_565
Rb4 Sc0 3.958278 1_555
Rb5 Sc0 3.958272 1_455
In0 Rb3 3.886635 1_555
In0 Rb5 3.886650 1_555
In0 Rb4 3.886652 1_565
In0 Rb2 3.886652 1_455
Bi0 Sc0 2.986643 1_565
Bi0 In0 3.015829 1_555
Bi0 Rb1 3.715793 1_555
Bi0 Rb4 3.723266 1_565
Bi0 Rb0 3.739292 1_555
Bi0 Rb5 3.809204 1_554
Bi0 Rb2 3.909827 1_455
Bi0 Rb2 4.007515 1_565
Bi1 Sc0 2.986647 1_455
Bi1 In0 3.015842 1_555
Bi1 Rb1 3.715797 1_445
Bi1 Rb5 3.723262 1_555
Bi1 Rb0 3.739304 1_555
Bi1 Rb4 3.809181 1_555
Bi1 Rb3 3.909823 1_555
Bi1 Rb3 4.007496 1_445
Bi2 Sc0 2.986642 1_555
Bi2 In0 3.015828 1_655
Bi2 Rb1 3.715794 1_556
Bi2 Rb2 3.723266 1_555
Bi2 Rb0 3.739293 1_666
Bi2 Rb3 3.809216 1_555
Bi2 Rb4 3.909827 1_665
Bi2 Rb4 4.007515 1_555
Bi3 Sc0 2.986639 1_555
Bi3 In0 3.015829 1_545
Bi3 Rb1 3.715784 1_556
Bi3 Rb3 3.723259 1_545
Bi3 Rb0 3.739287 1_556
Bi3 Rb2 3.809204 1_556
Bi3 Rb5 3.909834 1_545
Bi3 Rb5 4.007508 1_655
