# generated using pymatgen
data_BiCO3F
_symmetry_space_group_name_H-M   'P 1'
_cell_length_a   4.92098293
_cell_length_b   7.13633258
_cell_length_c   8.51850668
_cell_angle_alpha   90.00000000
_cell_angle_beta   90.00000000
_cell_angle_gamma   90.00000000
_symmetry_Int_Tables_number   1
_chemical_formula_structural   BiCO3F
_chemical_formula_sum   'Bi4 C4 O12 F4'
_cell_volume   299.15096513
_cell_formula_units_Z   4
loop_
 _symmetry_equiv_pos_site_id
 _symmetry_equiv_pos_as_xyz
  1  'x, y, z'
loop_
 _atom_site_type_symbol
 _atom_site_label
 _atom_site_symmetry_multiplicity
 _atom_site_fract_x
 _atom_site_fract_y
 _atom_site_fract_z
 _atom_site_occupancy
  Bi  Bi0  1  0.25000000  0.35706122  0.33567494  1
  Bi  Bi1  1  0.25000000  0.85706122  0.16432506  1
  Bi  Bi2  1  0.75000000  0.64293878  0.66432506  1
  Bi  Bi3  1  0.75000000  0.14293878  0.83567494  1
  C  C0  1  0.25000000  0.28887426  0.67130604  1
  C  C1  1  0.25000000  0.78887426  0.82869396  1
  C  C2  1  0.75000000  0.71112574  0.32869396  1
  C  C3  1  0.75000000  0.21112574  0.17130604  1
  O  O0  1  0.75000000  0.30485740  0.30012429  1
  O  O1  1  0.75000000  0.80485740  0.19987571  1
  O  O2  1  0.25000000  0.69514260  0.69987571  1
  O  O3  1  0.25000000  0.19514260  0.80012429  1
  O  O4  1  0.97695746  0.66785266  0.39501733  1
  O  O5  1  0.52304254  0.16785266  0.10498267  1
  O  O6  1  0.47695746  0.33214734  0.60498267  1
  O  O7  1  0.02304254  0.83214734  0.89501733  1
  O  O8  1  0.02304254  0.33214734  0.60498267  1
  O  O9  1  0.47695746  0.83214734  0.89501733  1
  O  O10  1  0.52304254  0.66785266  0.39501733  1
  O  O11  1  0.97695746  0.16785266  0.10498267  1
  F  F0  1  0.25000000  0.04971033  0.38168298  1
  F  F1  1  0.25000000  0.54971033  0.11831702  1
  F  F2  1  0.75000000  0.95028967  0.61831702  1
  F  F3  1  0.75000000  0.45028967  0.88168298  1
loop_
_geom_bond_atom_site_label_1
_geom_bond_atom_site_label_2
_geom_bond_distance
_geom_bond_site_symmetry_2
Bi0 F0 2.228098 1_555
Bi0 F1 2.306163 1_555
Bi0 O0 2.506894 1_455
Bi0 O0 2.506894 1_555
Bi0 O6 2.557707 1_555
Bi0 O8 2.557707 1_555
Bi0 O10 2.641975 1_555
Bi0 O4 2.641975 1_455
Bi0 O5 2.736856 1_555
Bi0 O11 2.736856 1_455
Bi1 F1 2.228098 1_555
Bi1 F0 2.306163 1_565
Bi1 O1 2.506894 1_455
Bi1 O1 2.506894 1_555
Bi1 O9 2.557707 1_554
Bi1 O7 2.557707 1_554
Bi1 O5 2.641975 1_565
Bi1 O11 2.641975 1_465
Bi1 O10 2.736856 1_555
Bi1 O4 2.736856 1_455
Bi2 F2 2.228098 1_555
Bi2 F3 2.306163 1_555
Bi2 O2 2.506894 1_555
Bi2 O2 2.506894 1_655
Bi2 O4 2.557707 1_555
Bi2 O10 2.557707 1_555
Bi2 O8 2.641975 1_655
Bi2 O6 2.641975 1_555
Bi2 O7 2.736856 1_655
Bi2 O9 2.736856 1_555
Bi3 F3 2.228098 1_555
Bi3 F2 2.306163 1_545
Bi3 O3 2.506894 1_555
Bi3 O3 2.506894 1_655
Bi3 O11 2.557707 1_556
Bi3 O5 2.557707 1_556
Bi3 O7 2.641975 1_645
Bi3 O9 2.641975 1_545
Bi3 O8 2.736856 1_655
Bi3 O6 2.736856 1_555
C0 O3 1.285138 1_555
C0 O6 1.289157 1_555
C0 O8 1.289157 1_555
C1 O2 1.285138 1_555
C1 O9 1.289157 1_555
C1 O7 1.289157 1_555
C2 O1 1.285138 1_555
C2 O4 1.289157 1_555
C2 O10 1.289157 1_555
C3 O0 1.285138 1_555
C3 O11 1.289157 1_555
C3 O5 1.289157 1_555
