# generated using pymatgen
data_Ca4TaAlIr4
_symmetry_space_group_name_H-M   'P 1'
_cell_length_a   5.77904240
_cell_length_b   5.77904207
_cell_length_c   7.57690457
_cell_angle_alpha   80.55250512
_cell_angle_beta   80.55249608
_cell_angle_gamma   61.57780763
_symmetry_Int_Tables_number   1
_chemical_formula_structural   Ca4TaAlIr4
_chemical_formula_sum   'Ca4 Ta1 Al1 Ir4'
_cell_volume   218.44672417
_cell_formula_units_Z   1
loop_
 _symmetry_equiv_pos_site_id
 _symmetry_equiv_pos_as_xyz
  1  'x, y, z'
loop_
 _atom_site_type_symbol
 _atom_site_label
 _atom_site_symmetry_multiplicity
 _atom_site_fract_x
 _atom_site_fract_y
 _atom_site_fract_z
 _atom_site_occupancy
  Ca  Ca0  1  0.97827792  0.72964180  0.14088177  1
  Ca  Ca1  1  0.27035820  0.02172208  0.35911823  1
  Ca  Ca2  1  0.01205816  0.28041853  0.85834328  1
  Ca  Ca3  1  0.71958147  0.98794184  0.64165672  1
  Ta  Ta0  1  0.57914649  0.42085351  0.25000000  1
  Al  Al0  1  0.42609055  0.57390945  0.75000000  1
  Ir  Ir0  1  0.49384816  0.77434409  0.99657023  1
  Ir  Ir1  1  0.22565591  0.50615184  0.50342977  1
  Ir  Ir2  1  0.50790734  0.21292519  0.00698326  1
  Ir  Ir3  1  0.78707481  0.49209266  0.49301674  1
loop_
_geom_bond_atom_site_label_1
_geom_bond_atom_site_label_2
_geom_bond_distance
_geom_bond_site_symmetry_2
Ca0 Ir2 2.994479 1_565
Ca0 Ir0 3.053440 1_554
Ca0 Ir3 3.081880 1_555
Ca0 Ir1 3.102369 1_655
Ca0 Ir0 3.116124 1_654
Ca0 Ir2 3.254096 1_655
Ca1 Ir3 2.994479 1_455
Ca1 Ir1 3.053440 1_555
Ca1 Ir2 3.081880 1_555
Ca1 Ir0 3.102369 1_544
Ca1 Ir1 3.116124 1_545
Ca1 Ir3 3.254096 1_545
Ca2 Ir3 3.066728 1_455
Ca2 Ir2 3.079465 1_556
Ca2 Ir0 3.098834 1_545
Ca2 Ir1 3.122259 1_555
Ca2 Ir2 3.125608 1_456
Ca2 Ir0 3.166631 1_455
Ca3 Ir2 3.066728 1_566
Ca3 Ir3 3.079465 1_555
Ca3 Ir1 3.098834 1_655
Ca3 Ir0 3.122259 1_555
Ca3 Ir3 3.125608 1_565
Ca3 Ir1 3.166631 1_565
Al0 Ir0 2.523430 1_555
Al0 Ir1 2.523430 1_555
Al0 Ir3 2.529164 1_555
Al0 Ir2 2.529164 1_556
Ir0 Ta0 2.483500 1_556
Ir0 Ir2 2.588571 1_566
Ir1 Ta0 2.483500 1_555
Ir1 Ir3 2.588571 1_455
Ir2 Ta0 2.539681 1_555
Ir3 Ta0 2.539681 1_555
