# generated using pymatgen
data_V3Rh(SeO3)8
_symmetry_space_group_name_H-M   'P 1'
_cell_length_a   7.93366870
_cell_length_b   7.93366866
_cell_length_c   7.93366965
_cell_angle_alpha   89.78475776
_cell_angle_beta   90.21524334
_cell_angle_gamma   90.21523812
_symmetry_Int_Tables_number   1
_chemical_formula_structural   V3Rh(SeO3)8
_chemical_formula_sum   'V3 Rh1 Se8 O24'
_cell_volume   499.35920740
_cell_formula_units_Z   1
loop_
 _symmetry_equiv_pos_site_id
 _symmetry_equiv_pos_as_xyz
  1  'x, y, z'
loop_
 _atom_site_type_symbol
 _atom_site_label
 _atom_site_symmetry_multiplicity
 _atom_site_fract_x
 _atom_site_fract_y
 _atom_site_fract_z
 _atom_site_occupancy
  V  V0  1  0.50000000  0.50000000  0.50000000  1
  V  V1  1  0.50000000  0.00000000  0.00000000  1
  V  V2  1  0.00000000  0.50000000  0.00000000  1
  Rh  Rh0  1  0.00000000  0.00000000  0.50000000  1
  Se  Se0  1  0.84102775  0.67730338  0.32606420  1
  Se  Se1  1  0.17393580  0.15897225  0.17730338  1
  Se  Se2  1  0.67370183  0.32629817  0.82629817  1
  Se  Se3  1  0.32269662  0.82606420  0.65897225  1
  Se  Se4  1  0.15897225  0.32269662  0.67393580  1
  Se  Se5  1  0.82606420  0.84102775  0.82269662  1
  Se  Se6  1  0.32629817  0.67370183  0.17370183  1
  Se  Se7  1  0.67730338  0.17393580  0.34102775  1
  O  O0  1  0.73103185  0.53071733  0.44139896  1
  O  O1  1  0.26431491  0.01907360  0.03632651  1
  O  O2  1  0.76556930  0.43569895  0.98915440  1
  O  O3  1  0.25048744  0.97969514  0.52603617  1
  O  O4  1  0.46367349  0.73568509  0.51907360  1
  O  O5  1  0.05860104  0.26896815  0.03071733  1
  O  O6  1  0.97396383  0.74951256  0.47969514  1
  O  O7  1  0.51084560  0.23443070  0.93569895  1
  O  O8  1  0.56430105  0.48915440  0.73443070  1
  O  O9  1  0.02030486  0.02603617  0.24951256  1
  O  O10  1  0.46928267  0.94139896  0.76896815  1
  O  O11  1  0.98092640  0.53632651  0.23568509  1
  O  O12  1  0.26896815  0.46928267  0.55860104  1
  O  O13  1  0.73568509  0.98092640  0.96367349  1
  O  O14  1  0.23443070  0.56430105  0.01084560  1
  O  O15  1  0.74951256  0.02030486  0.47396383  1
  O  O16  1  0.53632651  0.26431491  0.48092640  1
  O  O17  1  0.94139896  0.73103185  0.96928267  1
  O  O18  1  0.02603617  0.25048744  0.52030486  1
  O  O19  1  0.48915440  0.76556930  0.06430105  1
  O  O20  1  0.43569895  0.51084560  0.26556930  1
  O  O21  1  0.97969514  0.97396383  0.75048744  1
  O  O22  1  0.53071733  0.05860104  0.23103185  1
  O  O23  1  0.01907360  0.46367349  0.76431491  1
loop_
_geom_bond_atom_site_label_1
_geom_bond_atom_site_label_2
_geom_bond_distance
_geom_bond_site_symmetry_2
O0 Se0 1.715138 1_555
O0 V0 1.907189 1_555
O1 Se1 1.737336 1_555
O1 V1 1.899682 1_555
O2 Se2 1.717713 1_555
O2 V2 1.928435 1_656
O3 Se3 1.707977 1_555
O3 Rh0 2.004243 1_565
O4 Se3 1.737336 1_555
O4 V0 1.899682 1_555
O5 Se1 1.715138 1_555
O5 V2 1.907189 1_555
O6 Se0 1.707978 1_555
O6 Rh0 2.004243 1_665
O7 Se2 1.717713 1_555
O7 V1 1.928435 1_556
O8 Se2 1.717713 1_555
O8 V0 1.928435 1_555
O9 Se1 1.707978 1_555
O9 Rh0 2.004243 1_555
O10 Se3 1.715138 1_555
O10 V1 1.907189 1_566
O11 Se0 1.737336 1_555
O11 V2 1.899682 1_655
O12 Se4 1.715138 1_555
O12 V0 1.907189 1_555
O13 Se5 1.737336 1_555
O13 V1 1.899682 1_566
O14 Se6 1.717713 1_555
O14 V2 1.928435 1_555
O15 Se7 1.707977 1_555
O15 Rh0 2.004243 1_655
O16 Se7 1.737336 1_555
O16 V0 1.899682 1_555
O17 Se5 1.715138 1_555
O17 V2 1.907189 1_656
O18 Se4 1.707978 1_555
O18 Rh0 2.004243 1_555
O19 Se6 1.717713 1_555
O19 V1 1.928435 1_565
O20 Se6 1.717713 1_555
O20 V0 1.928435 1_555
O21 Se5 1.707978 1_555
O21 Rh0 2.004243 1_665
O22 Se7 1.715138 1_555
O22 V1 1.907189 1_555
O23 Se4 1.737336 1_555
O23 V2 1.899682 1_556
