# generated using pymatgen
data_Li2MgPt3O8
_symmetry_space_group_name_H-M   'P 1'
_cell_length_a   6.00400488
_cell_length_b   6.00406660
_cell_length_c   6.00402429
_cell_angle_alpha   61.36867999
_cell_angle_beta   61.36882717
_cell_angle_gamma   61.36873224
_symmetry_Int_Tables_number   1
_chemical_formula_structural   Li2MgPt3O8
_chemical_formula_sum   'Li2 Mg1 Pt3 O8'
_cell_volume   157.74971581
_cell_formula_units_Z   1
loop_
 _symmetry_equiv_pos_site_id
 _symmetry_equiv_pos_as_xyz
  1  'x, y, z'
loop_
 _atom_site_type_symbol
 _atom_site_label
 _atom_site_symmetry_multiplicity
 _atom_site_fract_x
 _atom_site_fract_y
 _atom_site_fract_z
 _atom_site_occupancy
  Li  Li0  1  0.10953643  0.10954195  0.10954123  1
  Li  Li1  1  0.89050885  0.89052166  0.89051786  1
  Mg  Mg0  1  0.49999148  0.49994245  0.50000140  1
  Pt  Pt0  1  0.49995833  0.49995290  0.00010892  1
  Pt  Pt1  1  0.49994671  0.00011410  0.49995801  1
  Pt  Pt2  1  0.00010652  0.49995879  0.49993302  1
  O  O0  1  0.26402476  0.26402543  0.26401620  1
  O  O1  1  0.71423054  0.25869934  0.25870405  1
  O  O2  1  0.25870819  0.71421961  0.25869830  1
  O  O3  1  0.25868739  0.25870654  0.71422802  1
  O  O4  1  0.74124527  0.74127472  0.28578482  1
  O  O5  1  0.74126649  0.28578178  0.74126180  1
  O  O6  1  0.28578802  0.74126499  0.74125980  1
  O  O7  1  0.73599902  0.73599674  0.73598757  1
loop_
_geom_bond_atom_site_label_1
_geom_bond_atom_site_label_2
_geom_bond_distance
_geom_bond_site_symmetry_2
Li0 O1 1.982880 1_455
Li0 O3 1.982915 1_554
Li0 O2 1.982975 1_545
Li0 O0 2.248156 1_555
Li1 O5 1.982786 1_565
Li1 O4 1.982814 1_556
Li1 O6 1.982868 1_655
Li1 O7 2.248730 1_555
Mg0 O5 2.071470 1_555
Mg0 O3 2.071481 1_555
Mg0 O1 2.071485 1_555
Mg0 O2 2.071661 1_555
Mg0 O6 2.071674 1_555
Mg0 O4 2.071688 1_555
O0 Pt2 2.035841 1_555
O0 Pt0 2.035872 1_555
O0 Pt1 2.035877 1_555
O1 Pt0 2.033936 1_555
O1 Pt1 2.033949 1_555
O2 Pt0 2.033901 1_555
O2 Pt2 2.033922 1_555
O3 Pt1 2.033931 1_555
O3 Pt2 2.033962 1_555
O4 Pt2 2.034621 1_655
O4 Pt1 2.034635 1_565
O5 Pt2 2.034654 1_655
O5 Pt0 2.034661 1_556
O6 Pt1 2.034617 1_565
O6 Pt0 2.034655 1_556
O7 Pt1 2.036875 1_565
O7 Pt0 2.036896 1_556
O7 Pt2 2.036922 1_655
