# generated using pymatgen
data_Ti4CrB2Se
_symmetry_space_group_name_H-M   'P 1'
_cell_length_a   5.92244721
_cell_length_b   5.92244738
_cell_length_c   7.11277047
_cell_angle_alpha   114.60277070
_cell_angle_beta   114.60278726
_cell_angle_gamma   89.99999349
_symmetry_Int_Tables_number   1
_chemical_formula_structural   Ti4CrB2Se
_chemical_formula_sum   'Ti8 Cr2 B4 Se2'
_cell_volume   201.65696351
_cell_formula_units_Z   2
loop_
 _symmetry_equiv_pos_site_id
 _symmetry_equiv_pos_as_xyz
  1  'x, y, z'
loop_
 _atom_site_type_symbol
 _atom_site_label
 _atom_site_symmetry_multiplicity
 _atom_site_fract_x
 _atom_site_fract_y
 _atom_site_fract_z
 _atom_site_occupancy
  Ti  Ti0  1  0.04352853  0.54352853  0.73974994  1
  Ti  Ti1  1  0.69622141  0.19622141  0.73974994  1
  Ti  Ti2  1  0.19622141  0.04352853  0.73974994  1
  Ti  Ti3  1  0.54352853  0.69622141  0.73974994  1
  Ti  Ti4  1  0.95647147  0.45647147  0.26025006  1
  Ti  Ti5  1  0.30377859  0.80377859  0.26025006  1
  Ti  Ti6  1  0.80377859  0.95647147  0.26025006  1
  Ti  Ti7  1  0.45647147  0.30377859  0.26025006  1
  Cr  Cr0  1  0.50000000  0.50000000  0.00000000  1
  Cr  Cr1  1  0.00000000  0.00000000  0.00000000  1
  B  B0  1  0.38593701  0.88593701  1.00000000  1
  B  B1  1  0.61406299  0.11406299  0.00000000  1
  B  B2  1  0.11406299  0.38593701  1.00000000  1
  B  B3  1  0.88593701  0.61406299  0.00000000  1
  Se  Se0  1  0.25000000  0.25000000  0.50000000  1
  Se  Se1  1  0.75000000  0.75000000  0.50000000  1
loop_
_geom_bond_atom_site_label_1
_geom_bond_atom_site_label_2
_geom_bond_distance
_geom_bond_site_symmetry_2
Cr0 Ti4 2.651802 1_555
Cr0 Ti0 2.651802 1_554
Cr0 Ti7 2.651802 1_555
Cr0 Ti3 2.651802 1_554
Cr0 Ti5 2.651802 1_555
Cr0 Ti1 2.651802 1_554
Cr0 Ti6 2.651802 1_555
Cr0 Ti2 2.651802 1_554
Cr0 Se0 2.874622 1_554
Cr0 Se1 2.874622 1_555
Cr1 Ti5 2.651802 1_545
Cr1 Ti1 2.651802 1_454
Cr1 Ti6 2.651802 1_445
Cr1 Ti2 2.651802 1_554
Cr1 Ti7 2.651802 1_555
Cr1 Ti3 2.651802 1_444
Cr1 Ti4 2.651802 1_455
Cr1 Ti0 2.651802 1_544
Cr1 Se0 2.874622 1_555
Cr1 Se1 2.874622 1_444
B0 B1 1.910693 1_566
B0 Ti2 2.294964 1_565
B0 Ti6 2.294964 1_556
B0 Ti3 2.294964 1_555
B0 Ti7 2.294965 1_566
B0 Ti5 2.323797 1_556
B0 Ti0 2.323797 1_555
B0 Cr1 2.383428 1_566
B0 Cr0 2.383428 1_556
B1 Ti6 2.294964 1_545
B1 Ti2 2.294964 1_554
B1 Ti7 2.294964 1_555
B1 Ti3 2.294965 1_544
B1 Ti1 2.323797 1_554
B1 Ti4 2.323797 1_555
B1 Cr1 2.383428 1_655
B1 Cr0 2.383428 1_555
B2 B3 1.910693 1_456
B2 Ti0 2.294964 1_555
B2 Ti1 2.294964 1_455
B2 Ti4 2.294964 1_456
B2 Ti5 2.294965 1_556
B2 Ti7 2.323796 1_556
B2 Ti2 2.323797 1_555
B2 Cr0 2.383428 1_556
B2 Cr1 2.383428 1_556
B3 Ti4 2.294964 1_555
B3 Ti5 2.294964 1_655
B3 Ti0 2.294964 1_654
B3 Ti1 2.294965 1_554
B3 Ti3 2.323796 1_554
B3 Ti6 2.323797 1_555
B3 Cr0 2.383428 1_555
B3 Cr1 2.383428 1_665
Se0 Ti4 2.587131 1_455
Se0 Ti1 2.587131 1_555
Se0 Ti2 2.587132 1_555
Se0 Ti7 2.587132 1_555
Se0 Ti0 2.587132 1_555
Se0 Ti6 2.587132 1_445
Se0 Ti5 2.587132 1_545
Se0 Ti3 2.587132 1_555
Se1 Ti0 2.587131 1_655
Se1 Ti5 2.587131 1_555
Se1 Ti6 2.587132 1_555
Se1 Ti3 2.587132 1_555
Se1 Ti4 2.587132 1_555
Se1 Ti2 2.587132 1_665
Se1 Ti1 2.587132 1_565
Se1 Ti7 2.587132 1_555
