# generated using pymatgen
data_Rb5Al3Se7
_symmetry_space_group_name_H-M   'P 1'
_cell_length_a   10.95168873
_cell_length_b   10.95168885
_cell_length_c   9.32928765
_cell_angle_alpha   75.56018436
_cell_angle_beta   75.56018018
_cell_angle_gamma   70.74905159
_symmetry_Int_Tables_number   1
_chemical_formula_structural   Rb5Al3Se7
_chemical_formula_sum   'Rb10 Al6 Se14'
_cell_volume   1005.76956127
_cell_formula_units_Z   2
loop_
 _symmetry_equiv_pos_site_id
 _symmetry_equiv_pos_as_xyz
  1  'x, y, z'
loop_
 _atom_site_type_symbol
 _atom_site_label
 _atom_site_symmetry_multiplicity
 _atom_site_fract_x
 _atom_site_fract_y
 _atom_site_fract_z
 _atom_site_occupancy
  Rb  Rb0  1  0.02720460  0.43699713  0.71430997  1
  Rb  Rb1  1  0.43699713  0.02720460  0.71430997  1
  Rb  Rb2  1  0.97279540  0.56300287  0.28569003  1
  Rb  Rb3  1  0.56300287  0.97279540  0.28569003  1
  Rb  Rb4  1  0.29110661  0.70889339  0.00000000  1
  Rb  Rb5  1  0.70889339  0.29110661  1.00000000  1
  Rb  Rb6  1  0.84659259  0.15340741  0.50000000  1
  Rb  Rb7  1  0.15340741  0.84659259  0.50000000  1
  Rb  Rb8  1  0.43044316  0.43044316  0.68275315  1
  Rb  Rb9  1  0.56955684  0.56955684  0.31724685  1
  Al  Al0  1  0.21505563  0.21505563  0.17199665  1
  Al  Al1  1  0.78494437  0.78494437  0.82800335  1
  Al  Al2  1  0.07261828  0.07261828  0.05243756  1
  Al  Al3  1  0.92738172  0.92738172  0.94756244  1
  Al  Al4  1  0.34682624  0.34682624  0.32880359  1
  Al  Al5  1  0.65317376  0.65317376  0.67119641  1
  Se  Se0  1  0.99968761  0.29147032  0.10519844  1
  Se  Se1  1  0.29147032  0.99968761  0.10519844  1
  Se  Se2  1  0.00031239  0.70852968  0.89480156  1
  Se  Se3  1  0.70852968  0.00031239  0.89480156  1
  Se  Se4  1  0.20366590  0.20366590  0.43134671  1
  Se  Se5  1  0.79633410  0.79633410  0.56865329  1
  Se  Se6  1  0.06309732  0.06309732  0.80239649  1
  Se  Se7  1  0.93690268  0.93690268  0.19760351  1
  Se  Se8  1  0.35413016  0.35413016  0.06016922  1
  Se  Se9  1  0.64586984  0.64586984  0.93983078  1
  Se  Se10  1  0.24741017  0.55556101  0.39398545  1
  Se  Se11  1  0.55556101  0.24741017  0.39398545  1
  Se  Se12  1  0.75258983  0.44443899  0.60601455  1
  Se  Se13  1  0.44443899  0.75258983  0.60601455  1
loop_
_geom_bond_atom_site_label_1
_geom_bond_atom_site_label_2
_geom_bond_distance
_geom_bond_site_symmetry_2
Rb0 Se12 3.374183 1_455
Rb0 Se0 3.577630 1_456
Rb0 Se10 3.601097 1_555
Rb0 Se2 3.665746 1_555
Rb0 Se4 3.846687 1_555
Rb0 Se6 3.875431 1_555
Rb1 Se13 3.374183 1_545
Rb1 Se1 3.577630 1_546
Rb1 Se11 3.601097 1_555
Rb1 Se3 3.665746 1_555
Rb1 Se4 3.846688 1_555
Rb1 Se6 3.875431 1_555
Rb2 Se10 3.374183 1_655
Rb2 Se2 3.577630 1_654
Rb2 Se12 3.601097 1_555
Rb2 Se0 3.665746 1_555
Rb2 Se5 3.846687 1_555
Rb2 Se7 3.875431 1_555
Rb3 Se11 3.374183 1_565
Rb3 Se3 3.577630 1_564
Rb3 Se13 3.601097 1_555
Rb3 Se1 3.665746 1_555
Rb3 Se5 3.846688 1_555
Rb3 Se7 3.875431 1_555
Rb4 Se1 3.560134 1_555
Rb4 Se2 3.560134 1_554
Rb4 Se13 3.623997 1_554
Rb4 Se10 3.623997 1_555
Rb4 Se9 3.636472 1_554
Rb4 Se8 3.636472 1_555
Rb5 Se3 3.560134 1_555
Rb5 Se0 3.560134 1_556
Rb5 Se11 3.623997 1_556
Rb5 Se12 3.623997 1_555
Rb5 Se8 3.636472 1_556
Rb5 Se9 3.636472 1_555
Rb6 Se12 3.331289 1_555
Rb6 Se11 3.331289 1_555
Rb6 Se0 3.804974 1_555
Rb6 Se3 3.804974 1_555
Rb6 Se7 3.867460 1_545
Rb6 Se6 3.867460 1_655
Rb6 Se4 4.000001 1_655
Rb6 Se5 4.000001 1_545
Rb7 Se10 3.331289 1_555
Rb7 Se13 3.331289 1_555
Rb7 Se2 3.804974 1_555
Rb7 Se1 3.804974 1_555
Rb7 Se6 3.867460 1_565
Rb7 Se7 3.867460 1_455
Rb7 Se5 4.000001 1_455
Rb7 Se4 4.000001 1_565
Rb8 Se8 3.364514 1_556
Rb8 Se12 3.467759 1_555
Rb8 Se13 3.467760 1_555
Rb8 Se11 3.492032 1_555
Rb8 Se10 3.492032 1_555
Rb9 Se9 3.364514 1_554
Rb9 Se10 3.467759 1_555
Rb9 Se11 3.467760 1_555
Rb9 Se13 3.492032 1_555
Rb9 Se12 3.492032 1_555
Al0 Se4 2.365284 1_555
Al0 Se8 2.381776 1_555
Al0 Se1 2.413144 1_545
Al0 Se0 2.413144 1_455
Al1 Se5 2.365284 1_555
Al1 Se9 2.381776 1_555
Al1 Se3 2.413144 1_565
Al1 Se2 2.413144 1_655
Al2 Se7 2.387746 1_445
Al2 Se6 2.390197 1_554
Al2 Se0 2.398922 1_455
Al2 Se1 2.398922 1_545
Al3 Se6 2.387746 1_665
Al3 Se7 2.390197 1_556
Al3 Se2 2.398922 1_655
Al3 Se3 2.398922 1_565
Al4 Se10 2.345817 1_555
Al4 Se11 2.345817 1_555
Al4 Se4 2.440562 1_555
Al4 Se8 2.469399 1_555
Al5 Se12 2.345817 1_555
Al5 Se13 2.345817 1_555
Al5 Se5 2.440562 1_555
Al5 Se9 2.469399 1_555
