# generated using pymatgen
data_SrReSi2Os3
_symmetry_space_group_name_H-M   'P 1'
_cell_length_a   7.49163273
_cell_length_b   7.49163303
_cell_length_c   4.03903945
_cell_angle_alpha   90.00000000
_cell_angle_beta   90.00000000
_cell_angle_gamma   148.76391550
_symmetry_Int_Tables_number   1
_chemical_formula_structural   SrReSi2Os3
_chemical_formula_sum   'Sr1 Re1 Si2 Os3'
_cell_volume   117.55328806
_cell_formula_units_Z   1
loop_
 _symmetry_equiv_pos_site_id
 _symmetry_equiv_pos_as_xyz
  1  'x, y, z'
loop_
 _atom_site_type_symbol
 _atom_site_label
 _atom_site_symmetry_multiplicity
 _atom_site_fract_x
 _atom_site_fract_y
 _atom_site_fract_z
 _atom_site_occupancy
  Sr  Sr0  1  0.99862721  0.00137279  0.00000000  1
  Re  Re0  1  0.69857311  0.30142689  0.00000000  1
  Si  Si0  1  0.58933997  0.41065903  0.50000000  1
  Si  Si1  1  0.40879531  0.59120369  0.50000000  1
  Os  Os0  1  0.30598856  0.69401144  0.00000000  1
  Os  Os1  1  0.81096794  0.18903106  0.50000000  1
  Os  Os2  1  0.18770689  0.81229211  0.50000000  1
loop_
_geom_bond_atom_site_label_1
_geom_bond_atom_site_label_2
_geom_bond_distance
_geom_bond_site_symmetry_2
Re0 Si0 2.561829 1_555
Re0 Si0 2.561829 1_554
Re0 Sr0 3.520301 1_455
Re0 Sr0 3.520301 1_565
Si0 Si1 2.605269 1_555
Si0 Sr0 3.140047 1_455
Si0 Sr0 3.140047 1_456
Si0 Sr0 3.140049 1_566
Si0 Sr0 3.140049 1_565
Si1 Sr0 3.134763 1_456
Si1 Sr0 3.134763 1_455
Si1 Sr0 3.134766 1_566
Si1 Sr0 3.134766 1_565
Os0 Si1 2.505848 1_554
Os0 Si1 2.505848 1_555
Os0 Re0 2.543718 1_455
Os0 Re0 2.543718 1_565
Os0 Sr0 3.434411 1_565
Os0 Sr0 3.434411 1_455
Os1 Si1 2.461856 1_655
Os1 Si1 2.461856 1_545
Os1 Re0 2.590159 1_556
Os1 Re0 2.590159 1_555
Os1 Sr0 3.378065 1_555
Os1 Sr0 3.378065 1_556
Os2 Si0 2.466329 1_455
Os2 Si0 2.466329 1_565
Os2 Re0 2.858497 1_456
Os2 Re0 2.858497 1_455
Os2 Re0 2.858500 1_566
Os2 Re0 2.858500 1_565
Os2 Sr0 3.394529 1_465
Os2 Sr0 3.394529 1_466
