# generated using pymatgen
data_V4Ga(Se3S)2
_symmetry_space_group_name_H-M   'P 1'
_cell_length_a   7.15581904
_cell_length_b   7.15581933
_cell_length_c   7.15662629
_cell_angle_alpha   59.99627872
_cell_angle_beta   59.99627735
_cell_angle_gamma   60.08563362
_symmetry_Int_Tables_number   1
_chemical_formula_structural   V4Ga(Se3S)2
_chemical_formula_sum   'V4 Ga1 Se6 S2'
_cell_volume   259.27931371
_cell_formula_units_Z   1
loop_
 _symmetry_equiv_pos_site_id
 _symmetry_equiv_pos_as_xyz
  1  'x, y, z'
loop_
 _atom_site_type_symbol
 _atom_site_label
 _atom_site_symmetry_multiplicity
 _atom_site_fract_x
 _atom_site_fract_y
 _atom_site_fract_z
 _atom_site_occupancy
  V  V0  1  0.60444355  0.60444355  0.19160776  1
  V  V1  1  0.60617480  0.19183607  0.60099556  1
  V  V2  1  0.19183607  0.60617480  0.60099556  1
  V  V3  1  0.60444355  0.60444355  0.59950613  1
  Ga  Ga0  1  0.00277892  0.00277892  0.99722108  1
  Se  Se0  1  0.86537813  0.86537813  0.40687437  1
  Se  Se1  1  0.86387238  0.41230803  0.86191030  1
  Se  Se2  1  0.41230803  0.86387238  0.86191030  1
  Se  Se3  1  0.86537813  0.86537813  0.86236937  1
  Se  Se4  1  0.36709220  0.36709220  0.89676924  1
  Se  Se5  1  0.36709220  0.36709220  0.36904536  1
  S  S0  1  0.87361258  0.37558946  0.37539798  1
  S  S1  1  0.37558946  0.87361258  0.37539798  1
loop_
_geom_bond_atom_site_label_1
_geom_bond_atom_site_label_2
_geom_bond_distance
_geom_bond_site_symmetry_2
Ga0 Se3 2.393115 1_445
Ga0 Se0 2.393116 1_446
Ga0 Se2 2.394334 1_545
Ga0 Se1 2.394334 1_455
Se0 V2 2.678527 1_655
Se0 V1 2.678527 1_565
Se0 V3 2.683655 1_555
Se1 V2 2.681944 1_655
Se1 V3 2.687355 1_555
Se1 V0 2.687355 1_556
Se2 V1 2.681944 1_565
Se2 V3 2.687355 1_555
Se2 V0 2.687355 1_556
Se3 V2 2.678518 1_655
Se3 V1 2.678518 1_565
Se3 V0 2.683657 1_556
Se4 V1 2.423514 1_555
Se4 V2 2.423514 1_555
Se4 V3 2.438266 1_555
Se5 V1 2.423531 1_555
Se5 V2 2.423531 1_555
Se5 V0 2.438268 1_555
S0 V1 2.301002 1_555
S0 V0 2.314140 1_555
S0 V3 2.314154 1_555
S1 V2 2.301002 1_555
S1 V0 2.314140 1_555
S1 V3 2.314154 1_555
