# generated using pymatgen
data_SrCdInPt
_symmetry_space_group_name_H-M   'P 1'
_cell_length_a   5.77619710
_cell_length_b   5.77619727
_cell_length_c   8.37725066
_cell_angle_alpha   90.00000000
_cell_angle_beta   90.00000000
_cell_angle_gamma   135.86376153
_symmetry_Int_Tables_number   1
_chemical_formula_structural   SrCdInPt
_chemical_formula_sum   'Sr2 Cd2 In2 Pt2'
_cell_volume   194.63620380
_cell_formula_units_Z   2
loop_
 _symmetry_equiv_pos_site_id
 _symmetry_equiv_pos_as_xyz
  1  'x, y, z'
loop_
 _atom_site_type_symbol
 _atom_site_label
 _atom_site_symmetry_multiplicity
 _atom_site_fract_x
 _atom_site_fract_y
 _atom_site_fract_z
 _atom_site_occupancy
  Sr  Sr0  1  0.93936180  0.06063820  0.75000000  1
  Sr  Sr1  1  0.06370135  0.93629865  0.25000000  1
  Cd  Cd0  1  0.64843401  0.35156599  0.94606267  1
  Cd  Cd1  1  0.64843401  0.35156599  0.55393733  1
  In  In0  1  0.34505324  0.65494676  0.04909955  1
  In  In1  1  0.34505324  0.65494676  0.45090045  1
  Pt  Pt0  1  0.22626309  0.77373691  0.75000000  1
  Pt  Pt1  1  0.78369928  0.21630072  0.25000000  1
loop_
_geom_bond_atom_site_label_1
_geom_bond_atom_site_label_2
_geom_bond_distance
_geom_bond_site_symmetry_2
Cd0 Pt0 2.846333 1_655
Cd0 Pt0 2.846333 1_545
Cd0 Pt1 2.929178 1_556
Cd0 In0 3.144163 1_656
Cd0 In0 3.144163 1_546
Cd0 Cd1 3.284932 1_555
Cd0 In0 3.360745 1_556
Cd0 Sr1 3.466335 1_546
Cd0 Sr1 3.466335 1_656
Cd0 Sr0 3.521215 1_555
Cd0 Sr0 3.523843 1_455
Cd0 Sr0 3.523843 1_565
Cd1 Pt0 2.846333 1_655
Cd1 Pt0 2.846333 1_545
Cd1 Pt1 2.929178 1_555
Cd1 In1 3.144163 1_655
Cd1 In1 3.144163 1_545
Cd1 In1 3.360745 1_555
Cd1 Sr1 3.466335 1_545
Cd1 Sr1 3.466335 1_655
Cd1 Sr0 3.521215 1_555
Cd1 Sr0 3.523843 1_455
Cd1 Sr0 3.523843 1_565
In0 Pt0 2.809910 1_554
In0 Pt1 2.823748 1_455
In0 Pt1 2.823749 1_565
In0 In1 3.365987 1_555
In0 Sr1 3.450450 1_555
In0 Sr0 3.465148 1_564
In0 Sr0 3.465148 1_454
In0 Sr1 3.608559 1_655
In0 Sr1 3.608559 1_545
In1 Pt0 2.809910 1_555
In1 Pt1 2.823748 1_455
In1 Pt1 2.823749 1_565
In1 Sr1 3.450450 1_555
In1 Sr0 3.465148 1_565
In1 Sr0 3.465148 1_455
In1 Sr1 3.608559 1_655
In1 Sr1 3.608559 1_545
Pt0 Sr0 3.071577 1_465
Pt0 Sr0 3.148747 1_565
Pt0 Sr0 3.148748 1_455
Pt1 Sr1 2.997714 1_645
Pt1 Sr1 3.202670 1_545
Pt1 Sr1 3.202670 1_655
