# generated using pymatgen
data_Hf16Rh8CO3
_symmetry_space_group_name_H-M   'P 1'
_cell_length_a   8.67850842
_cell_length_b   8.66249285
_cell_length_c   8.66249176
_cell_angle_alpha   60.00000039
_cell_angle_beta   60.06102796
_cell_angle_gamma   60.06103054
_symmetry_Int_Tables_number   1
_chemical_formula_structural   Hf16Rh8CO3
_chemical_formula_sum   'Hf16 Rh8 C1 O3'
_cell_volume   460.90966898
_cell_formula_units_Z   1
loop_
 _symmetry_equiv_pos_site_id
 _symmetry_equiv_pos_as_xyz
  1  'x, y, z'
loop_
 _atom_site_type_symbol
 _atom_site_label
 _atom_site_symmetry_multiplicity
 _atom_site_fract_x
 _atom_site_fract_y
 _atom_site_fract_z
 _atom_site_occupancy
  Hf  Hf0  1  0.12500000  0.62500000  0.62500000  1
  Hf  Hf1  1  0.62500000  0.12500000  0.62500000  1
  Hf  Hf2  1  0.62500000  0.62500000  0.12500000  1
  Hf  Hf3  1  0.62500000  0.62500000  0.62500000  1
  Hf  Hf4  1  0.81278687  0.81971447  0.18374933  1
  Hf  Hf5  1  0.18599334  0.18468822  0.81465972  1
  Hf  Hf6  1  0.81278687  0.18374933  0.81971447  1
  Hf  Hf7  1  0.18599334  0.81465972  0.18468822  1
  Hf  Hf8  1  0.18599334  0.81465972  0.81465972  1
  Hf  Hf9  1  0.81278687  0.18374933  0.18374933  1
  Hf  Hf10  1  0.43721313  0.43028553  0.06625067  1
  Hf  Hf11  1  0.06400666  0.06531178  0.43534028  1
  Hf  Hf12  1  0.43721313  0.06625067  0.43028553  1
  Hf  Hf13  1  0.06400666  0.43534028  0.06531178  1
  Hf  Hf14  1  0.06400666  0.43534028  0.43534028  1
  Hf  Hf15  1  0.43721313  0.06625067  0.06625067  1
  Rh  Rh0  1  0.77857070  0.40714277  0.40714277  1
  Rh  Rh1  1  0.40338764  0.77629932  0.41015552  1
  Rh  Rh2  1  0.40338764  0.41015552  0.77629932  1
  Rh  Rh3  1  0.40338764  0.41015552  0.41015552  1
  Rh  Rh4  1  0.47142930  0.84285723  0.84285723  1
  Rh  Rh5  1  0.84661236  0.47370068  0.83984448  1
  Rh  Rh6  1  0.84661236  0.83984448  0.47370068  1
  Rh  Rh7  1  0.84661236  0.83984448  0.83984448  1
  C  C0  1  0.62500000  0.12500000  0.12500000  1
  O  O0  1  0.12500000  0.62500000  0.12500000  1
  O  O1  1  0.12500000  0.12500000  0.62500000  1
  O  O2  1  0.12500000  0.12500000  0.12500000  1
loop_
_geom_bond_atom_site_label_1
_geom_bond_atom_site_label_2
_geom_bond_distance
_geom_bond_site_symmetry_2
Hf0 Rh1 2.692909 1_555
Hf0 Rh5 2.692909 1_455
Hf0 Rh2 2.692909 1_555
Hf0 Rh6 2.692909 1_455
Hf0 Rh7 2.692919 1_455
Hf0 Rh3 2.692919 1_555
Hf1 Rh0 2.727559 1_555
Hf1 Rh4 2.727559 1_545
Hf1 Rh2 2.738211 1_555
Hf1 Rh6 2.738211 1_545
Hf1 Rh7 2.738221 1_545
Hf1 Rh3 2.738221 1_555
Hf2 Rh0 2.727559 1_555
Hf2 Rh4 2.727559 1_554
Hf2 Rh1 2.738211 1_555
Hf2 Rh5 2.738211 1_554
Hf2 Rh7 2.738221 1_554
Hf2 Rh3 2.738221 1_555
Hf3 Rh4 2.727566 1_555
Hf3 Rh0 2.727566 1_555
Hf3 Rh5 2.738225 1_555
Hf3 Rh1 2.738225 1_555
Hf3 Rh6 2.738225 1_555
Hf3 Rh2 2.738225 1_555
Hf4 O0 2.316430 1_655
Hf4 Rh7 2.765893 1_554
Hf4 Rh6 2.765910 1_555
Hf5 O2 2.288537 1_556
Hf5 O1 2.288546 1_555
Hf5 Rh4 2.742848 1_545
Hf5 Rh5 2.744990 1_455
Hf6 O1 2.316430 1_655
Hf6 Rh7 2.765894 1_545
Hf6 Rh5 2.765911 1_555
Hf7 O2 2.288538 1_565
Hf7 O0 2.288546 1_555
Hf7 Rh4 2.742848 1_554
Hf7 Rh6 2.744990 1_455
Hf8 O0 2.288539 1_556
Hf8 O1 2.288540 1_565
Hf8 Rh4 2.742848 1_555
Hf8 Rh7 2.744987 1_455
Hf9 O2 2.316430 1_655
Hf9 Rh5 2.765901 1_554
Hf9 Rh6 2.765901 1_545
Hf10 O0 2.316430 1_555
Hf10 Rh3 2.765893 1_555
Hf10 Rh2 2.765910 1_554
Hf11 O2 2.288537 1_555
Hf11 O1 2.288546 1_555
Hf11 Rh0 2.742848 1_455
Hf11 Rh1 2.744990 1_545
Hf12 O1 2.316430 1_555
Hf12 Rh3 2.765894 1_555
Hf12 Rh1 2.765911 1_545
Hf13 O2 2.288538 1_555
Hf13 O0 2.288546 1_555
Hf13 Rh0 2.742848 1_455
Hf13 Rh2 2.744990 1_554
Hf14 O0 2.288539 1_555
Hf14 O1 2.288540 1_555
Hf14 Rh0 2.742848 1_455
Hf14 Rh3 2.744987 1_555
Hf15 O2 2.316430 1_555
Hf15 Rh1 2.765901 1_545
Hf15 Rh2 2.765901 1_554
C0 Hf12 2.255803 1_555
C0 Hf6 2.255803 1_554
C0 Hf9 2.255803 1_555
C0 Hf15 2.255803 1_555
C0 Hf10 2.255803 1_555
C0 Hf4 2.255803 1_545
