# generated using pymatgen
data_Hf6AlAsN2
_symmetry_space_group_name_H-M   'P 1'
_cell_length_a   5.87979447
_cell_length_b   5.87979436
_cell_length_c   8.55328553
_cell_angle_alpha   90.00000000
_cell_angle_beta   90.00000000
_cell_angle_gamma   146.80694924
_symmetry_Int_Tables_number   1
_chemical_formula_structural   Hf6AlAsN2
_chemical_formula_sum   'Hf6 Al1 As1 N2'
_cell_volume   161.88664389
_cell_formula_units_Z   1
loop_
 _symmetry_equiv_pos_site_id
 _symmetry_equiv_pos_as_xyz
  1  'x, y, z'
loop_
 _atom_site_type_symbol
 _atom_site_label
 _atom_site_symmetry_multiplicity
 _atom_site_fract_x
 _atom_site_fract_y
 _atom_site_fract_z
 _atom_site_occupancy
  Hf  Hf0  1  0.63120436  0.36879564  0.44441969  1
  Hf  Hf1  1  0.37146910  0.62853090  0.54882050  1
  Hf  Hf2  1  0.63120436  0.36879564  0.05558031  1
  Hf  Hf3  1  0.37146910  0.62853090  0.95117950  1
  Hf  Hf4  1  0.94247192  0.05752808  0.25000000  1
  Hf  Hf5  1  0.04844388  0.95155612  0.75000000  1
  Al  Al0  1  0.74451724  0.25548276  0.75000000  1
  As  As0  1  0.25683620  0.74316380  0.25000000  1
  N  N0  1  0.00119193  0.99880807  0.49572799  1
  N  N1  1  0.00119193  0.99880807  0.00427201  1
loop_
_geom_bond_atom_site_label_1
_geom_bond_atom_site_label_2
_geom_bond_distance
_geom_bond_site_symmetry_2
Hf0 N0 2.271551 1_655
Hf0 N0 2.271551 1_545
Hf1 N0 2.272448 1_545
Hf1 N0 2.272448 1_655
Hf2 N1 2.271551 1_655
Hf2 N1 2.271551 1_545
Hf3 N1 2.272448 1_546
Hf3 N1 2.272448 1_656
Hf4 N0 2.203499 1_645
Hf4 N1 2.203499 1_645
Hf5 N1 2.239105 1_556
Hf5 N0 2.239105 1_555
Al0 Hf5 2.775473 1_655
Al0 Hf5 2.775473 1_545
Al0 Hf3 2.797933 1_545
Al0 Hf1 2.797933 1_545
Al0 Hf3 2.797933 1_655
Al0 Hf1 2.797933 1_655
Al0 Hf2 2.908993 1_556
Al0 Hf0 2.908993 1_555
As0 Hf4 2.682767 1_455
As0 Hf4 2.682767 1_565
As0 Hf0 2.755077 1_565
As0 Hf2 2.755077 1_565
As0 Hf0 2.755077 1_455
As0 Hf2 2.755077 1_455
As0 Hf1 2.863836 1_555
As0 Hf3 2.863836 1_554
