# generated using pymatgen
data_Y3Al9Re3Os4
_symmetry_space_group_name_H-M   'P 1'
_cell_length_a   8.82568526
_cell_length_b   8.82568581
_cell_length_c   9.53349040
_cell_angle_alpha   90.00000000
_cell_angle_beta   90.00000000
_cell_angle_gamma   119.99999427
_symmetry_Int_Tables_number   1
_chemical_formula_structural   Y3Al9Re3Os4
_chemical_formula_sum   'Y6 Al18 Re6 Os8'
_cell_volume   643.10145005
_cell_formula_units_Z   2
loop_
 _symmetry_equiv_pos_site_id
 _symmetry_equiv_pos_as_xyz
  1  'x, y, z'
loop_
 _atom_site_type_symbol
 _atom_site_label
 _atom_site_symmetry_multiplicity
 _atom_site_fract_x
 _atom_site_fract_y
 _atom_site_fract_z
 _atom_site_occupancy
  Y  Y0  1  0.19692707  0.39385414  0.25000000  1
  Y  Y1  1  0.80307293  0.60614586  0.75000000  1
  Y  Y2  1  0.60614586  0.80307293  0.25000000  1
  Y  Y3  1  0.39385414  0.19692707  0.75000000  1
  Y  Y4  1  0.19692707  0.80307293  0.25000000  1
  Y  Y5  1  0.80307293  0.19692707  0.75000000  1
  Al  Al0  1  0.33333300  0.66666700  0.00732335  1
  Al  Al1  1  0.66666700  0.33333300  0.99267665  1
  Al  Al2  1  0.66666700  0.33333300  0.50732335  1
  Al  Al3  1  0.33333300  0.66666700  0.49267665  1
  Al  Al4  1  0.16551723  0.33103447  0.57571811  1
  Al  Al5  1  0.83448277  0.66896553  0.42428189  1
  Al  Al6  1  0.66896553  0.83448277  0.57571811  1
  Al  Al7  1  0.83448277  0.66896553  0.07571811  1
  Al  Al8  1  0.33103447  0.16551723  0.42428189  1
  Al  Al9  1  0.16551723  0.33103447  0.92428189  1
  Al  Al10  1  0.16551723  0.83448277  0.57571811  1
  Al  Al11  1  0.33103447  0.16551723  0.07571811  1
  Al  Al12  1  0.83448277  0.16551723  0.42428189  1
  Al  Al13  1  0.66896553  0.83448277  0.92428189  1
  Al  Al14  1  0.83448277  0.16551723  0.07571811  1
  Al  Al15  1  0.16551723  0.83448277  0.92428189  1
  Al  Al16  1  0.00000000  0.00000000  0.25000000  1
  Al  Al17  1  0.00000000  0.00000000  0.75000000  1
  Re  Re0  1  0.57201704  0.14403408  0.25000000  1
  Re  Re1  1  0.42798296  0.85596592  0.75000000  1
  Re  Re2  1  0.85596592  0.42798296  0.25000000  1
  Re  Re3  1  0.14403408  0.57201704  0.75000000  1
  Re  Re4  1  0.57201704  0.42798296  0.25000000  1
  Re  Re5  1  0.42798296  0.57201704  0.75000000  1
  Os  Os0  1  0.50000000  0.00000000  0.00000000  1
  Os  Os1  1  0.00000000  0.50000000  0.00000000  1
  Os  Os2  1  0.50000000  0.00000000  0.50000000  1
  Os  Os3  1  0.50000000  0.50000000  0.00000000  1
  Os  Os4  1  0.00000000  0.50000000  0.50000000  1
  Os  Os5  1  0.50000000  0.50000000  0.50000000  1
  Os  Os6  1  0.00000000  0.00000000  0.00000000  1
  Os  Os7  1  0.00000000  0.00000000  0.50000000  1
loop_
_geom_bond_atom_site_label_1
_geom_bond_atom_site_label_2
_geom_bond_distance
_geom_bond_site_symmetry_2
Y0 Y4 3.611636 1_555
Y0 Y2 3.611637 1_555
Y1 Y5 3.611636 1_555
Y1 Y3 3.611637 1_555
Y2 Y4 3.611636 1_555
Y3 Y5 3.611636 1_555
Al0 Os1 2.548710 1_555
Al0 Os0 2.548710 1_565
Al0 Os3 2.548717 1_555
Al0 Al15 2.684702 1_554
Al0 Al13 2.684709 1_554
Al0 Al9 2.684710 1_554
Al0 Re3 2.848078 1_554
Al0 Re1 2.848078 1_554
Al0 Re5 2.848082 1_554
Al0 Y4 3.114561 1_555
Al0 Y2 3.114566 1_555
Al0 Y0 3.114566 1_555
Al1 Os1 2.548710 1_656
Al1 Os0 2.548710 1_556
Al1 Os3 2.548717 1_556
Al1 Al14 2.684702 1_556
Al1 Al11 2.684709 1_556
Al1 Al7 2.684710 1_556
Al1 Re2 2.848078 1_556
Al1 Re0 2.848078 1_556
Al1 Re4 2.848082 1_556
Al1 Y5 3.114561 1_555
Al1 Y3 3.114566 1_555
Al1 Y1 3.114566 1_555
Al2 Os4 2.548710 1_655
Al2 Os2 2.548710 1_555
Al2 Os5 2.548717 1_555
Al2 Al8 2.684709 1_555
Al2 Al5 2.684710 1_555
Al2 Re2 2.848078 1_555
Al2 Re0 2.848078 1_555
Al2 Re4 2.848082 1_555
Al2 Y5 3.114561 1_555
Al2 Y3 3.114566 1_555
Al2 Y1 3.114566 1_555
Al3 Os4 2.548710 1_555
Al3 Os2 2.548710 1_565
Al3 Os5 2.548717 1_555
Al3 Al6 2.684709 1_555
Al3 Al4 2.684710 1_555
Al3 Re3 2.848078 1_555
Al3 Re1 2.848078 1_555
Al3 Re5 2.848082 1_555
Al3 Y4 3.114561 1_555
Al3 Y2 3.114566 1_555
Al3 Y0 3.114566 1_555
Al4 Os7 2.631144 1_555
Al4 Os4 2.656542 1_555
Al4 Os5 2.656542 1_555
Al4 Re3 2.779077 1_555
Al4 Re5 2.779077 1_555
Al4 Al8 2.913100 1_555
Al4 Y0 3.142133 1_555
Al4 Y3 3.256973 1_555
Al4 Y5 3.256973 1_455
Al5 Os7 2.631144 1_665
Al5 Os4 2.656542 1_655
Al5 Os5 2.656542 1_555
Al5 Re2 2.779077 1_555
Al5 Re4 2.779077 1_555
Al5 Al6 2.913100 1_555
Al5 Y1 3.142133 1_555
Al5 Y2 3.256973 1_555
Al5 Y4 3.256973 1_655
Al6 Os7 2.631143 1_665
Al6 Os2 2.656542 1_565
Al6 Os5 2.656542 1_555
Al6 Re1 2.779077 1_555
Al6 Re5 2.779077 1_555
Al6 Y2 3.142133 1_555
Al6 Y1 3.256973 1_555
Al6 Y5 3.256973 1_565
Al7 Os6 2.631144 1_665
Al7 Os1 2.656542 1_655
Al7 Os3 2.656542 1_555
Al7 Re2 2.779077 1_555
Al7 Re4 2.779077 1_555
Al7 Y1 3.142133 1_554
Al7 Y2 3.256973 1_555
Al7 Y4 3.256973 1_655
Al8 Os7 2.631143 1_555
Al8 Os2 2.656542 1_555
Al8 Os5 2.656542 1_555
Al8 Re0 2.779077 1_555
Al8 Re4 2.779077 1_555
Al8 Y3 3.142133 1_555
Al8 Y0 3.256973 1_555
Al8 Y4 3.256973 1_545
Al9 Os6 2.631144 1_556
Al9 Os1 2.656542 1_556
Al9 Os3 2.656542 1_556
Al9 Re3 2.779077 1_555
Al9 Re5 2.779077 1_555
Al9 Y0 3.142133 1_556
Al9 Y3 3.256973 1_555
Al9 Y5 3.256973 1_455
Al10 Os7 2.631143 1_565
Al10 Os2 2.656542 1_565
Al10 Os4 2.656542 1_555
Al10 Al3 2.684702 1_555
Al10 Re1 2.779077 1_555
Al10 Re3 2.779077 1_555
Al10 Al5 2.913100 1_455
Al10 Al8 2.913100 1_565
Al10 Al17 3.026957 1_565
Al10 Y4 3.142133 1_555
Al10 Y1 3.256973 1_455
Al10 Y3 3.256973 1_565
Al11 Os6 2.631143 1_555
Al11 Os0 2.656542 1_555
Al11 Os3 2.656542 1_555
Al11 Re0 2.779077 1_555
Al11 Re4 2.779077 1_555
Al11 Al9 2.913100 1_554
Al11 Al15 2.913100 1_544
Al11 Al16 3.026957 1_555
Al11 Y3 3.142133 1_554
Al11 Y0 3.256973 1_555
Al11 Y4 3.256973 1_545
Al12 Os7 2.631143 1_655
Al12 Os2 2.656542 1_555
Al12 Os4 2.656542 1_655
Al12 Al2 2.684702 1_555
Al12 Re0 2.779077 1_555
Al12 Re2 2.779077 1_555
Al12 Al4 2.913100 1_655
Al12 Al6 2.913100 1_545
Al12 Al16 3.026957 1_655
Al12 Y5 3.142133 1_555
Al12 Y0 3.256973 1_655
Al12 Y2 3.256973 1_545
Al13 Os6 2.631143 1_666
Al13 Os0 2.656542 1_566
Al13 Os3 2.656542 1_556
Al13 Re1 2.779077 1_555
Al13 Re5 2.779077 1_555
Al13 Al7 2.913100 1_556
Al13 Al14 2.913100 1_566
Al13 Al17 3.026957 1_665
Al13 Y2 3.142133 1_556
Al13 Y1 3.256973 1_555
Al13 Y5 3.256973 1_565
Al14 Os6 2.631143 1_655
Al14 Os0 2.656542 1_555
Al14 Os1 2.656542 1_655
Al14 Re0 2.779077 1_555
Al14 Re2 2.779077 1_555
Al14 Al9 2.913100 1_654
Al14 Al16 3.026957 1_655
Al14 Y5 3.142133 1_554
Al14 Y0 3.256973 1_655
Al14 Y2 3.256973 1_545
Al15 Os6 2.631143 1_566
Al15 Os0 2.656542 1_566
Al15 Os1 2.656542 1_556
Al15 Re1 2.779077 1_555
Al15 Re3 2.779077 1_555
Al15 Al7 2.913100 1_456
Al15 Al17 3.026957 1_565
Al15 Y4 3.142133 1_556
Al15 Y1 3.256973 1_455
Al15 Y3 3.256973 1_565
Al16 Os6 2.383373 1_555
Al16 Os7 2.383373 1_555
Al16 Y4 3.010333 1_545
Al16 Y2 3.010333 1_445
Al16 Y0 3.010333 1_555
Al16 Al8 3.026957 1_555
Al16 Al5 3.026957 1_445
Al16 Al7 3.026957 1_445
Al17 Os7 2.383373 1_555
Al17 Os6 2.383373 1_556
Al17 Y5 3.010333 1_455
Al17 Y3 3.010333 1_555
Al17 Y1 3.010333 1_445
Al17 Al6 3.026957 1_445
Al17 Al9 3.026957 1_555
Al17 Al4 3.026957 1_555
Re0 Re4 2.506044 1_555
Re0 Re2 2.506044 1_555
Re0 Y2 3.170570 1_545
Re0 Y4 3.170570 1_545
Re1 Re5 2.506044 1_555
Re1 Re3 2.506044 1_555
Re1 Y3 3.170570 1_565
Re1 Y5 3.170570 1_565
Re2 Re4 2.506043 1_555
Re2 Y0 3.170570 1_655
Re2 Y4 3.170570 1_655
Re3 Re5 2.506043 1_555
Re3 Y1 3.170570 1_455
Re3 Y5 3.170570 1_455
Re4 Y0 3.170570 1_555
Re4 Y2 3.170570 1_555
Re5 Y1 3.170570 1_555
Re5 Y3 3.170570 1_555
Os0 Re0 2.625343 1_555
Os0 Re1 2.625343 1_544
Os0 Y3 3.347681 1_554
Os0 Y2 3.347681 1_545
Os0 Y5 3.347681 1_554
Os0 Y4 3.347681 1_545
Os1 Re3 2.625343 1_554
Os1 Re2 2.625343 1_455
Os1 Y0 3.347681 1_555
Os1 Y1 3.347681 1_454
Os1 Y4 3.347681 1_555
Os1 Y5 3.347681 1_454
Os2 Re0 2.625343 1_555
Os2 Re1 2.625343 1_545
Os2 Y3 3.347681 1_555
Os2 Y2 3.347681 1_545
Os2 Y5 3.347681 1_555
Os2 Y4 3.347681 1_545
Os3 Re4 2.625343 1_555
Os3 Re5 2.625343 1_554
Os3 Y1 3.347681 1_554
Os3 Y0 3.347681 1_555
Os3 Y2 3.347681 1_555
Os3 Y3 3.347681 1_554
Os4 Re3 2.625343 1_555
Os4 Re2 2.625343 1_455
Os4 Y0 3.347681 1_555
Os4 Y1 3.347681 1_455
Os4 Y4 3.347681 1_555
Os4 Y5 3.347681 1_455
Os5 Re4 2.625343 1_555
Os5 Re5 2.625343 1_555
Os5 Y1 3.347681 1_555
Os5 Y0 3.347681 1_555
Os5 Y2 3.347681 1_555
Os5 Y3 3.347681 1_555
