# generated using pymatgen
data_MnCuIrS4
_symmetry_space_group_name_H-M   'P 1'
_cell_length_a   7.08557975
_cell_length_b   6.94724608
_cell_length_c   6.94724667
_cell_angle_alpha   59.23696295
_cell_angle_beta   59.33909979
_cell_angle_gamma   59.33910158
_symmetry_Int_Tables_number   1
_chemical_formula_structural   MnCuIrS4
_chemical_formula_sum   'Mn2 Cu2 Ir2 S8'
_cell_volume   237.98953053
_cell_formula_units_Z   2
loop_
 _symmetry_equiv_pos_site_id
 _symmetry_equiv_pos_as_xyz
  1  'x, y, z'
loop_
 _atom_site_type_symbol
 _atom_site_label
 _atom_site_symmetry_multiplicity
 _atom_site_fract_x
 _atom_site_fract_y
 _atom_site_fract_z
 _atom_site_occupancy
  Mn  Mn0  1  0.62500000  0.62500000  0.12500000  1
  Mn  Mn1  1  0.62500000  0.12500000  0.62500000  1
  Cu  Cu0  1  0.00343903  0.99656097  0.99656097  1
  Cu  Cu1  1  0.24656097  0.25343903  0.25343903  1
  Ir  Ir0  1  0.62500000  0.62500000  0.62500000  1
  Ir  Ir1  1  0.12500000  0.62500000  0.62500000  1
  S  S0  1  0.38173129  0.38789167  0.84864776  1
  S  S1  1  0.38473356  0.38207900  0.38207900  1
  S  S2  1  0.86526644  0.86792100  0.86792100  1
  S  S3  1  0.86826871  0.86210833  0.40135224  1
  S  S4  1  0.38173129  0.84864776  0.38789167  1
  S  S5  1  0.85110944  0.38207900  0.38207900  1
  S  S6  1  0.39889056  0.86792100  0.86792100  1
  S  S7  1  0.86826871  0.40135224  0.86210833  1
loop_
_geom_bond_atom_site_label_1
_geom_bond_atom_site_label_2
_geom_bond_distance
_geom_bond_site_symmetry_2
Mn0 S4 2.383584 1_555
Mn0 S7 2.383584 1_554
Mn0 S2 2.383692 1_554
Mn0 S1 2.383692 1_555
Mn0 S5 2.383697 1_555
Mn0 S6 2.383697 1_554
Mn1 S0 2.383584 1_555
Mn1 S3 2.383584 1_545
Mn1 S2 2.383692 1_545
Mn1 S1 2.383692 1_555
Mn1 S5 2.383697 1_555
Mn1 S6 2.383697 1_545
Cu0 S6 2.271046 1_555
Cu0 S2 2.271052 1_455
Cu0 S7 2.275179 1_465
Cu0 S3 2.275179 1_456
Cu1 S5 2.271046 1_455
Cu1 S1 2.271052 1_555
Cu1 S4 2.275179 1_545
Cu1 S0 2.275179 1_554
Ir0 S3 2.375893 1_555
Ir0 S0 2.375893 1_555
Ir0 S7 2.375894 1_555
Ir0 S4 2.375894 1_555
Ir0 S6 2.379345 1_555
Ir0 S5 2.379345 1_555
Ir1 S4 2.375904 1_555
Ir1 S7 2.375904 1_455
Ir1 S0 2.375904 1_555
Ir1 S3 2.375904 1_455
Ir1 S2 2.379345 1_455
Ir1 S1 2.379345 1_555
