# generated using pymatgen
data_Hf4CrBi2
_symmetry_space_group_name_H-M   'P 1'
_cell_length_a   8.21092506
_cell_length_b   8.21092474
_cell_length_c   8.21092522
_cell_angle_alpha   96.25237154
_cell_angle_beta   96.25236950
_cell_angle_gamma   141.46097672
_symmetry_Int_Tables_number   1
_chemical_formula_structural   Hf4CrBi2
_chemical_formula_sum   'Hf8 Cr2 Bi4'
_cell_volume   325.58073331
_cell_formula_units_Z   2
loop_
 _symmetry_equiv_pos_site_id
 _symmetry_equiv_pos_as_xyz
  1  'x, y, z'
loop_
 _atom_site_type_symbol
 _atom_site_label
 _atom_site_symmetry_multiplicity
 _atom_site_fract_x
 _atom_site_fract_y
 _atom_site_fract_z
 _atom_site_occupancy
  Hf  Hf0  1  0.08006842  0.19231398  0.27238140  1
  Hf  Hf1  1  0.91993158  0.80768602  0.72761860  1
  Hf  Hf2  1  0.80768602  0.08006842  0.88775344  1
  Hf  Hf3  1  0.41993158  0.69231398  0.11224656  1
  Hf  Hf4  1  0.19231398  0.91993158  0.11224656  1
  Hf  Hf5  1  0.58006842  0.30768602  0.88775344  1
  Hf  Hf6  1  0.69231398  0.58006842  0.27238140  1
  Hf  Hf7  1  0.30768602  0.41993158  0.72761860  1
  Cr  Cr0  1  0.25000000  0.25000000  0.00000000  1
  Cr  Cr1  1  0.75000000  0.75000000  0.00000000  1
  Bi  Bi0  1  0.13946831  0.63946831  0.77893561  1
  Bi  Bi1  1  0.86053169  0.36053169  0.22106439  1
  Bi  Bi2  1  0.36053169  0.13946831  0.50000000  1
  Bi  Bi3  1  0.63946831  0.86053169  0.50000000  1
loop_
_geom_bond_atom_site_label_1
_geom_bond_atom_site_label_2
_geom_bond_distance
_geom_bond_site_symmetry_2
Cr0 Hf7 2.655132 1_554
Cr0 Hf0 2.655132 1_555
Cr0 Hf1 2.655134 1_444
Cr0 Hf6 2.655134 1_555
Cr0 Hf3 2.655140 1_555
Cr0 Hf2 2.655140 1_454
Cr0 Hf4 2.655143 1_545
Cr0 Hf5 2.655143 1_554
Cr1 Hf6 2.655132 1_555
Cr1 Hf1 2.655132 1_554
Cr1 Hf0 2.655134 1_665
Cr1 Hf7 2.655134 1_554
Cr1 Hf5 2.655140 1_554
Cr1 Hf4 2.655140 1_655
Cr1 Hf2 2.655143 1_564
Cr1 Hf3 2.655143 1_555
Bi0 Hf7 3.031660 1_555
Bi0 Hf1 3.031660 1_455
Bi0 Hf4 3.128397 1_556
Bi0 Hf3 3.128397 1_556
Bi0 Hf5 3.341624 1_565
Bi0 Hf2 3.341624 1_455
Bi0 Hf5 3.341624 1_455
Bi0 Hf2 3.341624 1_565
Bi1 Hf6 3.031660 1_555
Bi1 Hf0 3.031660 1_655
Bi1 Hf2 3.128397 1_554
Bi1 Hf5 3.128397 1_554
Bi1 Hf3 3.341624 1_545
Bi1 Hf4 3.341624 1_655
Bi1 Hf3 3.341624 1_655
Bi1 Hf4 3.341624 1_545
Bi2 Hf4 3.031655 1_545
Bi2 Hf5 3.031655 1_555
Bi2 Hf7 3.128388 1_555
Bi2 Hf0 3.128388 1_555
Bi2 Hf1 3.341626 1_555
Bi2 Hf6 3.341626 1_445
Bi2 Hf6 3.341631 1_555
Bi2 Hf1 3.341631 1_445
Bi3 Hf2 3.031655 1_565
Bi3 Hf3 3.031655 1_555
Bi3 Hf6 3.128388 1_555
Bi3 Hf1 3.128388 1_555
Bi3 Hf0 3.341626 1_555
Bi3 Hf7 3.341626 1_665
Bi3 Hf7 3.341631 1_555
Bi3 Hf0 3.341631 1_665
