# generated using pymatgen
data_Cd3BiP7N12
_symmetry_space_group_name_H-M   'P 1'
_cell_length_a   7.40280760
_cell_length_b   7.42698787
_cell_length_c   7.42698861
_cell_angle_alpha   109.53707475
_cell_angle_beta   109.40528768
_cell_angle_gamma   109.40528747
_symmetry_Int_Tables_number   1
_chemical_formula_structural   Cd3BiP7N12
_chemical_formula_sum   'Cd3 Bi1 P7 N12'
_cell_volume   314.59569478
_cell_formula_units_Z   1
loop_
 _symmetry_equiv_pos_site_id
 _symmetry_equiv_pos_as_xyz
  1  'x, y, z'
loop_
 _atom_site_type_symbol
 _atom_site_label
 _atom_site_symmetry_multiplicity
 _atom_site_fract_x
 _atom_site_fract_y
 _atom_site_fract_z
 _atom_site_occupancy
  Cd  Cd0  1  0.99577623  0.00000000  0.66246713  1
  Cd  Cd1  1  0.99577623  0.66246713  1.00000000  1
  Cd  Cd2  1  0.33330810  0.33753287  0.33753287  1
  Bi  Bi0  1  0.66008097  1.00000000  1.00000000  1
  P  P0  1  0.24559612  0.74844768  0.49490051  1
  P  P1  1  0.75069561  0.25354816  0.50509949  1
  P  P2  1  0.75069561  0.50509949  0.25354816  1
  P  P3  1  0.24559612  0.49490051  0.74844768  1
  P  P4  1  0.49714845  0.74645184  0.25155232  1
  P  P5  1  0.49714845  0.25155232  0.74645184  1
  P  P6  1  0.02504502  1.00000000  1.00000000  1
  N  N0  1  0.72046516  0.30237973  0.30237973  1
  N  N1  1  0.28454079  0.70184257  0.28524166  1
  N  N2  1  0.29854699  0.59110962  0.59110962  1
  N  N3  1  0.58269723  0.58339909  0.29815743  1
  N  N4  1  0.41808543  0.69762027  1.00000000  1
  N  N5  1  0.99929814  0.71475834  0.41660091  1
  N  N6  1  0.58269723  0.29815743  0.58339909  1
  N  N7  1  0.70743737  1.00000000  0.40889038  1
  N  N8  1  0.41808543  1.00000000  0.69762027  1
  N  N9  1  0.70743737  0.40889038  1.00000000  1
  N  N10  1  0.28454079  0.28524166  0.70184257  1
  N  N11  1  0.99929814  0.41660091  0.71475834  1
loop_
_geom_bond_atom_site_label_1
_geom_bond_atom_site_label_2
_geom_bond_distance
_geom_bond_site_symmetry_2
Cd0 N5 2.303062 1_545
Cd0 N10 2.303066 1_655
Cd0 N7 2.330617 1_545
Cd0 P6 2.443425 1_645
Cd1 N11 2.303062 1_555
Cd1 N1 2.303066 1_656
Cd1 N9 2.330617 1_555
Cd1 P6 2.443425 1_655
Cd2 N3 2.303066 1_555
Cd2 N6 2.303066 1_555
Cd2 N2 2.330613 1_555
Cd2 P6 2.443423 1_544
Bi0 N4 2.362071 1_555
Bi0 N8 2.362071 1_555
Bi0 N0 2.362071 1_566
Bi0 P6 2.701759 1_655
N0 P2 1.625940 1_555
N0 P1 1.625940 1_555
N1 P4 1.618684 1_555
N1 P0 1.622259 1_555
N2 P0 1.645128 1_555
N2 P3 1.645128 1_555
N3 P2 1.618688 1_555
N3 P4 1.622247 1_555
N4 P3 1.625944 1_555
N4 P4 1.625947 1_556
N5 P0 1.618691 1_655
N5 P2 1.622254 1_555
N6 P1 1.618688 1_555
N6 P5 1.622247 1_555
N7 P4 1.645132 1_555
N7 P1 1.645135 1_565
N8 P0 1.625944 1_555
N8 P5 1.625947 1_565
N9 P5 1.645133 1_555
N9 P2 1.645135 1_556
N10 P5 1.618684 1_555
N10 P3 1.622258 1_555
N11 P3 1.618691 1_655
N11 P1 1.622254 1_555
