# generated using pymatgen
data_Be4Co2Mo6C
_symmetry_space_group_name_H-M   'P 1'
_cell_length_a   7.48995882
_cell_length_b   7.48995919
_cell_length_c   7.48995904
_cell_angle_alpha   59.99999633
_cell_angle_beta   59.99999470
_cell_angle_gamma   59.99999810
_symmetry_Int_Tables_number   1
_chemical_formula_structural   Be4Co2Mo6C
_chemical_formula_sum   'Be8 Co4 Mo12 C2'
_cell_volume   297.11411943
_cell_formula_units_Z   2
loop_
 _symmetry_equiv_pos_site_id
 _symmetry_equiv_pos_as_xyz
  1  'x, y, z'
loop_
 _atom_site_type_symbol
 _atom_site_label
 _atom_site_symmetry_multiplicity
 _atom_site_fract_x
 _atom_site_fract_y
 _atom_site_fract_z
 _atom_site_occupancy
  Be  Be0  1  0.42297356  0.42297356  0.73107933  1
  Be  Be1  1  0.42297356  0.73107933  0.42297356  1
  Be  Be2  1  0.73107933  0.42297356  0.42297356  1
  Be  Be3  1  0.42297356  0.42297356  0.42297356  1
  Be  Be4  1  0.82702644  0.82702644  0.51892067  1
  Be  Be5  1  0.82702644  0.51892067  0.82702644  1
  Be  Be6  1  0.51892067  0.82702644  0.82702644  1
  Be  Be7  1  0.82702644  0.82702644  0.82702644  1
  Co  Co0  1  0.62500000  0.62500000  0.12500000  1
  Co  Co1  1  0.62500000  0.12500000  0.62500000  1
  Co  Co2  1  0.12500000  0.62500000  0.62500000  1
  Co  Co3  1  0.62500000  0.62500000  0.62500000  1
  Mo  Mo0  1  0.04873547  0.04873547  0.45126453  1
  Mo  Mo1  1  0.45126453  0.04873547  0.45126453  1
  Mo  Mo2  1  0.04873547  0.45126453  0.45126453  1
  Mo  Mo3  1  0.45126453  0.45126453  0.04873547  1
  Mo  Mo4  1  0.04873547  0.45126453  0.04873547  1
  Mo  Mo5  1  0.45126453  0.04873547  0.04873547  1
  Mo  Mo6  1  0.20126453  0.20126453  0.79873547  1
  Mo  Mo7  1  0.79873547  0.20126453  0.79873547  1
  Mo  Mo8  1  0.20126453  0.79873547  0.79873547  1
  Mo  Mo9  1  0.79873547  0.79873547  0.20126453  1
  Mo  Mo10  1  0.20126453  0.79873547  0.20126453  1
  Mo  Mo11  1  0.79873547  0.20126453  0.20126453  1
  C  C0  1  0.25000000  0.25000000  0.25000000  1
  C  C1  1  0.00000000  0.00000000  0.00000000  1
loop_
_geom_bond_atom_site_label_1
_geom_bond_atom_site_label_2
_geom_bond_distance
_geom_bond_site_symmetry_2
Be0 Co2 2.257390 1_555
Be0 Co3 2.257390 1_555
Be0 Co1 2.257390 1_555
Be0 Be2 2.307699 1_555
Be0 Be1 2.307699 1_555
Be0 Be3 2.307700 1_555
Be0 Mo4 2.608401 1_556
Be0 Mo5 2.608401 1_556
Be0 Mo3 2.608401 1_556
Be0 Mo7 2.616581 1_555
Be0 Mo6 2.616581 1_555
Be0 Mo8 2.616581 1_555
Be1 Co2 2.257390 1_555
Be1 Co0 2.257390 1_555
Be1 Co3 2.257390 1_555
Be1 Be2 2.307700 1_555
Be1 Be3 2.307700 1_555
Be1 Mo5 2.608401 1_565
Be1 Mo0 2.608401 1_565
Be1 Mo1 2.608401 1_565
Be1 Mo9 2.616581 1_555
Be1 Mo8 2.616581 1_555
Be1 Mo10 2.616581 1_555
Be2 Co1 2.257390 1_555
Be2 Co0 2.257390 1_555
Be2 Co3 2.257390 1_555
Be2 Be3 2.307700 1_555
Be2 Mo4 2.608401 1_655
Be2 Mo0 2.608401 1_655
Be2 Mo2 2.608401 1_655
Be2 Mo7 2.616581 1_555
Be2 Mo9 2.616581 1_555
Be2 Mo11 2.616581 1_555
Be3 Co0 2.257390 1_555
Be3 Co2 2.257390 1_555
Be3 Co1 2.257390 1_555
Be3 Mo2 2.608401 1_555
Be3 Mo3 2.608401 1_555
Be3 Mo1 2.608401 1_555
Be3 Mo6 2.616581 1_555
Be3 Mo11 2.616581 1_555
Be3 Mo10 2.616581 1_555
Be4 Co2 2.257390 1_655
Be4 Co3 2.257390 1_555
Be4 Co1 2.257390 1_565
Be4 Be6 2.307699 1_555
Be4 Be5 2.307699 1_555
Be4 Be7 2.307700 1_555
Be4 Mo10 2.608401 1_655
Be4 Mo11 2.608401 1_565
Be4 Mo9 2.608401 1_555
Be4 Mo1 2.616581 1_565
Be4 Mo0 2.616581 1_665
Be4 Mo2 2.616581 1_655
Be5 Co2 2.257390 1_655
Be5 Co0 2.257390 1_556
Be5 Co3 2.257390 1_555
Be5 Be6 2.307700 1_555
Be5 Be7 2.307700 1_555
Be5 Mo11 2.608401 1_556
Be5 Mo6 2.608401 1_655
Be5 Mo7 2.608401 1_555
Be5 Mo3 2.616581 1_556
Be5 Mo2 2.616581 1_655
Be5 Mo4 2.616581 1_656
Be6 Co1 2.257390 1_565
Be6 Co0 2.257390 1_556
Be6 Co3 2.257390 1_555
Be6 Be7 2.307700 1_555
Be6 Mo10 2.608401 1_556
Be6 Mo6 2.608401 1_565
Be6 Mo8 2.608401 1_555
Be6 Mo1 2.616581 1_565
Be6 Mo3 2.616581 1_556
Be6 Mo5 2.616581 1_566
Be7 Co0 2.257390 1_556
Be7 Co2 2.257390 1_655
Be7 Co1 2.257390 1_565
Be7 Mo8 2.608401 1_655
Be7 Mo9 2.608401 1_556
Be7 Mo7 2.608401 1_565
Be7 Mo0 2.616581 1_665
Be7 Mo5 2.616581 1_566
Be7 Mo4 2.616581 1_656
Co0 Mo4 2.625420 1_655
Co0 Mo10 2.625420 1_555
Co0 Mo5 2.625421 1_565
Co0 Mo11 2.625421 1_555
Co0 Mo9 2.625421 1_555
Co0 Mo3 2.625421 1_555
Co1 Mo0 2.625420 1_655
Co1 Mo6 2.625420 1_555
Co1 Mo5 2.625420 1_556
Co1 Mo11 2.625420 1_555
Co1 Mo7 2.625421 1_555
Co1 Mo1 2.625421 1_555
Co2 Mo4 2.625420 1_556
Co2 Mo10 2.625420 1_555
Co2 Mo0 2.625421 1_565
Co2 Mo6 2.625421 1_555
Co2 Mo8 2.625421 1_555
Co2 Mo2 2.625421 1_555
Co3 Mo2 2.625420 1_655
Co3 Mo8 2.625420 1_555
Co3 Mo9 2.625420 1_555
Co3 Mo3 2.625420 1_556
Co3 Mo7 2.625421 1_555
Co3 Mo1 2.625421 1_565
C0 Mo3 2.131875 1_555
C0 Mo0 2.131875 1_555
C0 Mo2 2.131875 1_555
C0 Mo1 2.131875 1_555
C0 Mo4 2.131875 1_555
C0 Mo5 2.131875 1_555
C1 Mo6 2.131875 1_554
C1 Mo9 2.131875 1_445
C1 Mo10 2.131875 1_545
C1 Mo11 2.131875 1_455
C1 Mo7 2.131875 1_454
C1 Mo8 2.131875 1_544
