# generated using pymatgen
data_Ti16Ir5Pd3O4
_symmetry_space_group_name_H-M   'P 1'
_cell_length_a   8.22748615
_cell_length_b   8.22748571
_cell_length_c   8.22748644
_cell_angle_alpha   60.08505529
_cell_angle_beta   60.08505695
_cell_angle_gamma   60.08506307
_symmetry_Int_Tables_number   1
_chemical_formula_structural   Ti16Ir5Pd3O4
_chemical_formula_sum   'Ti16 Ir5 Pd3 O4'
_cell_volume   394.56880775
_cell_formula_units_Z   1
loop_
 _symmetry_equiv_pos_site_id
 _symmetry_equiv_pos_as_xyz
  1  'x, y, z'
loop_
 _atom_site_type_symbol
 _atom_site_label
 _atom_site_symmetry_multiplicity
 _atom_site_fract_x
 _atom_site_fract_y
 _atom_site_fract_z
 _atom_site_occupancy
  Ti  Ti0  1  0.12370333  0.62416066  0.62416066  1
  Ti  Ti1  1  0.62416066  0.12370333  0.62416066  1
  Ti  Ti2  1  0.62416066  0.62416066  0.12370333  1
  Ti  Ti3  1  0.62753985  0.62753985  0.62753985  1
  Ti  Ti4  1  0.81971199  0.81971199  0.18036477  1
  Ti  Ti5  1  0.18155839  0.18155839  0.81816943  1
  Ti  Ti6  1  0.81971199  0.18036477  0.81971199  1
  Ti  Ti7  1  0.18155839  0.81816943  0.18155839  1
  Ti  Ti8  1  0.18036477  0.81971199  0.81971199  1
  Ti  Ti9  1  0.81816943  0.18155839  0.18155839  1
  Ti  Ti10  1  0.43368404  0.43368404  0.06923197  1
  Ti  Ti11  1  0.06521208  0.06521208  0.43478548  1
  Ti  Ti12  1  0.43368404  0.06923197  0.43368404  1
  Ti  Ti13  1  0.06521208  0.43478548  0.06521208  1
  Ti  Ti14  1  0.06923197  0.43368404  0.43368404  1
  Ti  Ti15  1  0.43478548  0.06521208  0.06521208  1
  Ir  Ir0  1  0.40512125  0.40512125  0.40512125  1
  Ir  Ir1  1  0.47355262  0.84332925  0.84332925  1
  Ir  Ir2  1  0.84332925  0.47355262  0.84332925  1
  Ir  Ir3  1  0.84332925  0.84332925  0.47355262  1
  Ir  Ir4  1  0.84222068  0.84222068  0.84222068  1
  Pd  Pd0  1  0.77124057  0.41005539  0.41005539  1
  Pd  Pd1  1  0.41005539  0.77124057  0.41005539  1
  Pd  Pd2  1  0.41005539  0.41005539  0.77124057  1
  O  O0  1  0.62290071  0.12503152  0.12503152  1
  O  O1  1  0.12503152  0.62290071  0.12503152  1
  O  O2  1  0.12503152  0.12503152  0.62290071  1
  O  O3  1  0.12568271  0.12568271  0.12568271  1
loop_
_geom_bond_atom_site_label_1
_geom_bond_atom_site_label_2
_geom_bond_distance
_geom_bond_site_symmetry_2
Ir0 Ti12 2.550899 1_555
Ir0 Ti14 2.550899 1_555
Ir0 Ti10 2.550899 1_555
Ir0 Ti2 2.602297 1_555
Ir0 Ti1 2.602297 1_555
Ir0 Ti0 2.602297 1_555
Ir1 Ti3 2.562447 1_555
Ir1 Ti1 2.565478 1_565
Ir1 Ti2 2.565479 1_556
Ir1 Ti7 2.609883 1_556
Ir1 Ti5 2.609883 1_565
Ir1 Ti8 2.620477 1_555
Ir2 Ti3 2.562447 1_555
Ir2 Ti0 2.565478 1_655
Ir2 Ti2 2.565479 1_556
Ir2 Ti9 2.609883 1_556
Ir2 Ti5 2.609883 1_655
Ir2 Ti6 2.620476 1_555
Ir3 Ti3 2.562446 1_555
Ir3 Ti1 2.565479 1_565
Ir3 Ti0 2.565479 1_655
Ir3 Ti9 2.609883 1_565
Ir3 Ti7 2.609883 1_655
Ir3 Ti4 2.620477 1_555
Ir4 Ti2 2.592849 1_556
Ir4 Ti1 2.592850 1_565
Ir4 Ti0 2.592850 1_655
Ir4 Ti6 2.610549 1_565
Ir4 Ti8 2.610550 1_655
Ir4 Ti4 2.610550 1_556
Pd0 Ti1 2.587646 1_555
Pd0 Ti2 2.587646 1_555
Pd0 Ti3 2.602828 1_555
Pd0 Ti13 2.647916 1_655
Pd0 Ti11 2.647916 1_655
Pd0 Ti14 2.659889 1_655
Pd1 Ti0 2.587646 1_555
Pd1 Ti2 2.587646 1_555
Pd1 Ti3 2.602828 1_555
Pd1 Ti15 2.647916 1_565
Pd1 Ti11 2.647916 1_565
Pd1 Ti12 2.659889 1_565
Pd2 Ti1 2.587646 1_555
Pd2 Ti0 2.587646 1_555
Pd2 Ti3 2.602828 1_555
Pd2 Ti15 2.647916 1_556
Pd2 Ti13 2.647916 1_556
Pd2 Ti10 2.659889 1_556
O0 Ti15 2.154301 1_555
O0 Ti6 2.162625 1_554
O0 Ti4 2.162625 1_545
O0 Ti12 2.165621 1_555
O0 Ti10 2.165621 1_555
O0 Ti9 2.172533 1_555
O1 Ti13 2.154301 1_555
O1 Ti8 2.162625 1_554
O1 Ti4 2.162625 1_455
O1 Ti14 2.165621 1_555
O1 Ti10 2.165621 1_555
O1 Ti7 2.172533 1_555
O2 Ti11 2.154301 1_555
O2 Ti8 2.162625 1_545
O2 Ti6 2.162625 1_455
O2 Ti14 2.165621 1_555
O2 Ti12 2.165621 1_555
O2 Ti5 2.172533 1_555
O3 Ti13 2.164596 1_555
O3 Ti15 2.164597 1_555
O3 Ti11 2.164597 1_555
O3 Ti7 2.171277 1_545
O3 Ti9 2.171278 1_455
O3 Ti5 2.171278 1_554
