# generated using pymatgen
data_Mg4Ge6Pt7
_symmetry_space_group_name_H-M   'P 1'
_cell_length_a   7.11452501
_cell_length_b   7.11452569
_cell_length_c   7.11452471
_cell_angle_alpha   109.47122061
_cell_angle_beta   109.47122254
_cell_angle_gamma   109.47122072
_symmetry_Int_Tables_number   1
_chemical_formula_structural   Mg4Ge6Pt7
_chemical_formula_sum   'Mg4 Ge6 Pt7'
_cell_volume   277.21444295
_cell_formula_units_Z   1
loop_
 _symmetry_equiv_pos_site_id
 _symmetry_equiv_pos_as_xyz
  1  'x, y, z'
loop_
 _atom_site_type_symbol
 _atom_site_label
 _atom_site_symmetry_multiplicity
 _atom_site_fract_x
 _atom_site_fract_y
 _atom_site_fract_z
 _atom_site_occupancy
  Mg  Mg0  1  0.50000000  0.50000000  0.50000000  1
  Mg  Mg1  1  0.00000000  0.50000000  0.00000000  1
  Mg  Mg2  1  0.00000000  0.00000000  0.50000000  1
  Mg  Mg3  1  0.50000000  0.00000000  0.00000000  1
  Ge  Ge0  1  0.68665687  1.00000000  0.68665687  1
  Ge  Ge1  1  0.31334313  0.00000000  0.31334313  1
  Ge  Ge2  1  0.00000000  0.31334313  0.31334313  1
  Ge  Ge3  1  1.00000000  0.68665687  0.68665687  1
  Ge  Ge4  1  0.68665687  0.68665687  0.00000000  1
  Ge  Ge5  1  0.31334313  0.31334313  1.00000000  1
  Pt  Pt0  1  0.25000000  0.50000000  0.75000000  1
  Pt  Pt1  1  0.25000000  0.75000000  0.50000000  1
  Pt  Pt2  1  0.50000000  0.25000000  0.75000000  1
  Pt  Pt3  1  0.50000000  0.75000000  0.25000000  1
  Pt  Pt4  1  0.75000000  0.50000000  0.25000000  1
  Pt  Pt5  1  0.00000000  0.00000000  0.00000000  1
  Pt  Pt6  1  0.75000000  0.25000000  0.50000000  1
loop_
_geom_bond_atom_site_label_1
_geom_bond_atom_site_label_2
_geom_bond_distance
_geom_bond_site_symmetry_2
Mg0 Pt0 2.904493 1_555
Mg0 Pt4 2.904493 1_555
Mg0 Pt3 2.904493 1_555
Mg0 Pt2 2.904493 1_555
Mg0 Pt6 2.904493 1_555
Mg0 Pt1 2.904493 1_555
Mg1 Pt1 2.904492 1_555
Mg1 Pt6 2.904492 1_454
Mg1 Pt3 2.904493 1_555
Mg1 Pt2 2.904493 1_454
Mg1 Pt0 2.904493 1_554
Mg1 Pt4 2.904493 1_455
Mg2 Pt2 2.904493 1_555
Mg2 Pt3 2.904493 1_445
Mg2 Pt6 2.904493 1_455
Mg2 Pt1 2.904493 1_545
Mg2 Pt0 2.904493 1_555
Mg2 Pt4 2.904493 1_445
Mg3 Pt6 2.904492 1_555
Mg3 Pt1 2.904492 1_544
Mg3 Pt2 2.904493 1_554
Mg3 Pt3 2.904493 1_545
Mg3 Pt4 2.904493 1_555
Mg3 Pt0 2.904493 1_544
Ge0 Pt3 2.563083 1_555
Ge0 Pt1 2.563083 1_555
Ge0 Pt6 2.563083 1_565
Ge0 Pt2 2.563083 1_565
Ge0 Pt5 2.574159 1_666
Ge0 Mg3 2.950740 1_566
Ge0 Mg2 2.950740 1_665
Ge0 Mg1 2.950740 1_666
Ge0 Mg0 2.950740 1_555
Ge1 Pt2 2.563083 1_555
Ge1 Pt6 2.563083 1_555
Ge1 Pt1 2.563083 1_545
Ge1 Pt3 2.563083 1_545
Ge1 Pt5 2.574159 1_555
Ge1 Mg3 2.950740 1_555
Ge1 Mg2 2.950740 1_555
Ge1 Mg1 2.950740 1_545
Ge1 Mg0 2.950740 1_555
Ge2 Pt0 2.563083 1_555
Ge2 Pt6 2.563083 1_455
Ge2 Pt4 2.563083 1_455
Ge2 Pt1 2.563083 1_555
Ge2 Pt5 2.574160 1_555
Ge2 Mg3 2.950740 1_455
Ge2 Mg0 2.950740 1_555
Ge2 Mg1 2.950740 1_555
Ge2 Mg2 2.950740 1_555
Ge3 Pt4 2.563083 1_555
Ge3 Pt1 2.563083 1_655
Ge3 Pt0 2.563083 1_655
Ge3 Pt6 2.563083 1_555
Ge3 Pt5 2.574160 1_666
Ge3 Mg3 2.950740 1_666
Ge3 Mg0 2.950740 1_555
Ge3 Mg1 2.950740 1_656
Ge3 Mg2 2.950740 1_665
Ge4 Pt0 2.563083 1_554
Ge4 Pt3 2.563083 1_555
Ge4 Pt4 2.563083 1_555
Ge4 Pt2 2.563083 1_554
Ge4 Pt5 2.574160 1_665
Ge4 Mg0 2.950740 1_554
Ge4 Mg2 2.950740 1_665
Ge4 Mg1 2.950740 1_655
Ge4 Mg3 2.950740 1_565
Ge5 Pt4 2.563083 1_556
Ge5 Pt2 2.563083 1_555
Ge5 Pt0 2.563083 1_555
Ge5 Pt3 2.563083 1_556
Ge5 Pt5 2.574160 1_556
Ge5 Mg0 2.950740 1_556
Ge5 Mg2 2.950740 1_555
Ge5 Mg1 2.950740 1_556
Ge5 Mg3 2.950740 1_556
