# generated using pymatgen
data_Lu2S2BrCl
_symmetry_space_group_name_H-M   'P 1'
_cell_length_a   3.90142604
_cell_length_b   5.23631732
_cell_length_c   8.60486170
_cell_angle_alpha   90.00000000
_cell_angle_beta   90.00000000
_cell_angle_gamma   90.00000000
_symmetry_Int_Tables_number   1
_chemical_formula_structural   Lu2S2BrCl
_chemical_formula_sum   'Lu2 S2 Br1 Cl1'
_cell_volume   175.78962084
_cell_formula_units_Z   1
loop_
 _symmetry_equiv_pos_site_id
 _symmetry_equiv_pos_as_xyz
  1  'x, y, z'
loop_
 _atom_site_type_symbol
 _atom_site_label
 _atom_site_symmetry_multiplicity
 _atom_site_fract_x
 _atom_site_fract_y
 _atom_site_fract_z
 _atom_site_occupancy
  Lu  Lu0  1  0.00000000  0.50000000  0.12464701  1
  Lu  Lu1  1  0.50000000  0.00000000  0.86675879  1
  S  S0  1  0.50000000  0.50000000  0.91207768  1
  S  S1  1  0.00000000  0.00000000  0.08070678  1
  Br  Br0  1  0.50000000  0.50000000  0.34842710  1
  Cl  Cl0  1  0.00000000  0.00000000  0.66738264  1
loop_
_geom_bond_atom_site_label_1
_geom_bond_atom_site_label_2
_geom_bond_distance
_geom_bond_site_symmetry_2
Lu0 S1 2.645319 1_555
Lu0 S1 2.645319 1_565
Lu0 S0 2.674135 1_554
Lu0 S0 2.674135 1_454
Lu1 S0 2.647041 1_555
Lu1 S0 2.647041 1_545
Lu1 S1 2.682263 1_656
Lu1 S1 2.682263 1_556
Br0 Lu0 2.741022 1_655
Br0 Lu0 2.741022 1_555
Cl0 Lu1 2.597803 1_455
Cl0 Lu1 2.597803 1_555
