# generated using pymatgen
data_K2LiLuP2
_symmetry_space_group_name_H-M   'P 1'
_cell_length_a   9.93057668
_cell_length_b   9.93057528
_cell_length_c   6.49019934
_cell_angle_alpha   90.00000000
_cell_angle_beta   90.00000000
_cell_angle_gamma   98.51578298
_symmetry_Int_Tables_number   1
_chemical_formula_structural   K2LiLuP2
_chemical_formula_sum   'K8 Li4 Lu4 P8'
_cell_volume   632.98333303
_cell_formula_units_Z   4
loop_
 _symmetry_equiv_pos_site_id
 _symmetry_equiv_pos_as_xyz
  1  'x, y, z'
loop_
 _atom_site_type_symbol
 _atom_site_label
 _atom_site_symmetry_multiplicity
 _atom_site_fract_x
 _atom_site_fract_y
 _atom_site_fract_z
 _atom_site_occupancy
  K  K0  1  0.56598935  0.93401065  0.75000000  1
  K  K1  1  0.93401065  0.56598935  0.25000000  1
  K  K2  1  0.43401065  0.06598935  0.25000000  1
  K  K3  1  0.06598935  0.43401065  0.75000000  1
  K  K4  1  0.67963006  0.32036994  0.79583349  1
  K  K5  1  0.82036994  0.17963006  0.29583349  1
  K  K6  1  0.32036994  0.67963006  0.20416651  1
  K  K7  1  0.17963006  0.82036994  0.70416651  1
  Li  Li0  1  0.61806792  0.61806792  0.00000000  1
  Li  Li1  1  0.88193208  0.88193208  0.50000000  1
  Li  Li2  1  0.38193208  0.38193208  0.00000000  1
  Li  Li3  1  0.11806792  0.11806792  0.50000000  1
  Lu  Lu0  1  0.86832948  0.86832948  0.00000000  1
  Lu  Lu1  1  0.63167052  0.63167052  0.50000000  1
  Lu  Lu2  1  0.13167052  0.13167052  0.00000000  1
  Lu  Lu3  1  0.36832948  0.36832948  0.50000000  1
  P  P0  1  0.34435754  0.15564246  0.75000000  1
  P  P1  1  0.15564246  0.34435754  0.25000000  1
  P  P2  1  0.65564246  0.84435754  0.25000000  1
  P  P3  1  0.84435754  0.65564246  0.75000000  1
  P  P4  1  0.90728391  0.09271609  0.76893308  1
  P  P5  1  0.59271609  0.40728391  0.26893308  1
  P  P6  1  0.09271609  0.90728391  0.23106692  1
  P  P7  1  0.40728391  0.59271609  0.73106692  1
loop_
_geom_bond_atom_site_label_1
_geom_bond_atom_site_label_2
_geom_bond_distance
_geom_bond_site_symmetry_2
K0 P0 3.335093 1_565
K0 P2 3.514359 1_556
K0 P2 3.514359 1_555
K0 P7 3.521936 1_555
K0 P4 3.521936 1_565
K1 P1 3.335093 1_655
K1 P3 3.514359 1_555
K1 P3 3.514359 1_554
K1 P6 3.521936 1_655
K1 P5 3.521936 1_555
K2 P2 3.335093 1_545
K2 P0 3.514359 1_555
K2 P0 3.514359 1_554
K2 P5 3.521936 1_555
K2 P6 3.521936 1_545
K3 P3 3.335093 1_455
K3 P1 3.514359 1_556
K3 P1 3.514359 1_555
K3 P4 3.521936 1_455
K3 P7 3.521936 1_555
K4 P5 3.337449 1_556
K4 P4 3.430158 1_555
K4 P3 3.498092 1_555
K4 P0 3.498092 1_555
K4 P5 3.661257 1_555
K5 P4 3.337449 1_555
K5 P5 3.430158 1_555
K5 P2 3.498092 1_545
K5 P1 3.498092 1_655
K5 P4 3.661257 1_554
K6 P7 3.337449 1_554
K6 P6 3.430158 1_555
K6 P1 3.498092 1_555
K6 P2 3.498092 1_555
K6 P7 3.661257 1_555
K7 P6 3.337449 1_555
K7 P7 3.430158 1_555
K7 P0 3.498092 1_565
K7 P3 3.498092 1_455
K7 P6 3.661257 1_556
Li0 P5 2.708384 1_555
Li0 P7 2.708385 1_554
Li0 P2 2.751983 1_555
Li0 P3 2.751983 1_554
Li1 P4 2.708384 1_565
Li1 P6 2.708385 1_655
Li1 P3 2.751983 1_555
Li1 P2 2.751983 1_555
Li2 P7 2.708384 1_554
Li2 P5 2.708385 1_555
Li2 P0 2.751983 1_554
Li2 P1 2.751983 1_555
Li3 P6 2.708384 1_545
Li3 P4 2.708385 1_455
Li3 P1 2.751983 1_555
Li3 P0 2.751983 1_555
Lu0 P3 2.646018 1_554
Lu0 P2 2.646019 1_555
Lu0 P4 2.666202 1_564
Lu0 P6 2.666202 1_655
Lu1 P2 2.646018 1_555
Lu1 P3 2.646019 1_555
Lu1 P5 2.666202 1_555
Lu1 P7 2.666202 1_555
Lu2 P1 2.646018 1_555
Lu2 P0 2.646019 1_554
Lu2 P6 2.666202 1_545
Lu2 P4 2.666202 1_454
Lu3 P0 2.646018 1_555
Lu3 P1 2.646019 1_555
Lu3 P7 2.666202 1_555
Lu3 P5 2.666202 1_555
