# generated using pymatgen
data_K2Pd3PtO6
_symmetry_space_group_name_H-M   'P 1'
_cell_length_a   7.07636868
_cell_length_b   7.07636829
_cell_length_c   7.07636779
_cell_angle_alpha   51.85010250
_cell_angle_beta   51.85010523
_cell_angle_gamma   51.85010066
_symmetry_Int_Tables_number   1
_chemical_formula_structural   K2Pd3PtO6
_chemical_formula_sum   'K2 Pd3 Pt1 O6'
_cell_volume   202.53191020
_cell_formula_units_Z   1
loop_
 _symmetry_equiv_pos_site_id
 _symmetry_equiv_pos_as_xyz
  1  'x, y, z'
loop_
 _atom_site_type_symbol
 _atom_site_label
 _atom_site_symmetry_multiplicity
 _atom_site_fract_x
 _atom_site_fract_y
 _atom_site_fract_z
 _atom_site_occupancy
  K  K0  1  0.82861775  0.82861775  0.82861775  1
  K  K1  1  0.17138225  0.17138225  0.17138225  1
  Pd  Pd0  1  0.00000000  0.50000000  0.50000000  1
  Pd  Pd1  1  0.50000000  0.00000000  0.50000000  1
  Pd  Pd2  1  0.50000000  0.50000000  0.00000000  1
  Pt  Pt0  1  0.00000000  0.00000000  0.00000000  1
  O  O0  1  0.88664024  0.38895602  0.88664024  1
  O  O1  1  0.88664024  0.88664024  0.38895602  1
  O  O2  1  0.38895602  0.88664024  0.88664024  1
  O  O3  1  0.11335976  0.61104398  0.11335976  1
  O  O4  1  0.11335976  0.11335976  0.61104398  1
  O  O5  1  0.61104398  0.11335976  0.11335976  1
loop_
_geom_bond_atom_site_label_1
_geom_bond_atom_site_label_2
_geom_bond_distance
_geom_bond_site_symmetry_2
K0 O1 2.658700 1_555
K0 O0 2.658700 1_555
K0 O2 2.658700 1_555
K0 O5 2.800171 1_566
K0 O3 2.800171 1_656
K0 O4 2.800172 1_665
K1 O4 2.658700 1_555
K1 O3 2.658700 1_555
K1 O5 2.658700 1_555
K1 O2 2.800171 1_544
K1 O0 2.800171 1_454
K1 O1 2.800172 1_445
O0 Pd0 2.039078 1_655
O0 Pd2 2.039078 1_556
O0 Pt0 2.049919 1_656
O1 Pd0 2.039078 1_655
O1 Pd1 2.039078 1_565
O1 Pt0 2.049919 1_665
O2 Pd1 2.039078 1_565
O2 Pd2 2.039078 1_556
O2 Pt0 2.049919 1_566
O3 Pd0 2.039078 1_555
O3 Pd2 2.039078 1_555
O3 Pt0 2.049919 1_565
O4 Pd0 2.039078 1_555
O4 Pd1 2.039078 1_555
O4 Pt0 2.049919 1_556
O5 Pd1 2.039078 1_555
O5 Pd2 2.039078 1_555
O5 Pt0 2.049919 1_655
