# generated using pymatgen
data_Ti11Nb3As8
_symmetry_space_group_name_H-M   'P 1'
_cell_length_a   7.81943433
_cell_length_b   7.81943434
_cell_length_c   13.94087058
_cell_angle_alpha   75.54425010
_cell_angle_beta   75.54425073
_cell_angle_gamma   25.91338983
_symmetry_Int_Tables_number   1
_chemical_formula_structural   Ti11Nb3As8
_chemical_formula_sum   'Ti11 Nb3 As8'
_cell_volume   360.07825703
_cell_formula_units_Z   1
loop_
 _symmetry_equiv_pos_site_id
 _symmetry_equiv_pos_as_xyz
  1  'x, y, z'
loop_
 _atom_site_type_symbol
 _atom_site_label
 _atom_site_symmetry_multiplicity
 _atom_site_fract_x
 _atom_site_fract_y
 _atom_site_fract_z
 _atom_site_occupancy
  Ti  Ti0  1  0.00000000  0.00000000  0.00000000  1
  Ti  Ti1  1  0.19569728  0.19569728  0.69545960  1
  Ti  Ti2  1  0.80430272  0.80430272  0.30454040  1
  Ti  Ti3  1  0.20761347  0.20761347  0.20519698  1
  Ti  Ti4  1  0.79238653  0.79238653  0.79480302  1
  Ti  Ti5  1  0.33751757  0.33751757  0.96504815  1
  Ti  Ti6  1  0.66248243  0.66248243  0.03495185  1
  Ti  Ti7  1  0.00338084  0.00338084  0.34201318  1
  Ti  Ti8  1  0.99661916  0.99661916  0.65798682  1
  Ti  Ti9  1  0.18107695  0.18107695  0.45756286  1
  Ti  Ti10  1  0.81892305  0.81892305  0.54243714  1
  Nb  Nb0  1  0.50000000  0.50000000  0.50000000  1
  Nb  Nb1  1  0.42618004  0.42618004  0.16884403  1
  Nb  Nb2  1  0.57381996  0.57381996  0.83115597  1
  As  As0  1  0.18118354  0.18118354  0.89459661  1
  As  As1  1  0.81881646  0.81881646  0.10540339  1
  As  As2  1  0.37141235  0.37141235  0.39450945  1
  As  As3  1  0.62858765  0.62858765  0.60549055  1
  As  As4  1  0.36730662  0.36730662  0.66112384  1
  As  As5  1  0.63269338  0.63269338  0.33887616  1
  As  As6  1  0.06270276  0.06270276  0.15353331  1
  As  As7  1  0.93729724  0.93729724  0.84646669  1
loop_
_geom_bond_atom_site_label_1
_geom_bond_atom_site_label_2
_geom_bond_distance
_geom_bond_site_symmetry_2
As0 Ti4 2.583356 1_455
As0 Ti4 2.583356 1_545
As0 Ti6 2.588034 1_546
As0 Ti6 2.588034 1_456
As0 Nb2 2.697198 1_455
As0 Nb2 2.697198 1_545
As0 Ti1 2.727875 1_555
As0 Ti0 2.775892 1_556
As0 Ti5 2.800083 1_555
As1 Ti3 2.583356 1_655
As1 Ti3 2.583356 1_565
As1 Ti5 2.588034 1_564
As1 Ti5 2.588034 1_654
As1 Nb1 2.697198 1_655
As1 Nb1 2.697198 1_565
As1 Ti2 2.727875 1_555
As1 Ti0 2.775892 1_665
As1 Ti6 2.800083 1_555
As2 Ti2 2.519976 1_455
As2 Ti2 2.519976 1_545
As2 Ti7 2.626903 1_565
As2 Ti7 2.626903 1_655
As2 Ti10 2.668603 1_545
As2 Ti10 2.668603 1_455
As2 Nb0 2.734950 1_555
As2 Ti9 2.807355 1_555
As2 Nb1 3.041147 1_555
As3 Ti1 2.519976 1_655
As3 Ti1 2.519976 1_565
As3 Ti8 2.626903 1_545
As3 Ti8 2.626903 1_455
As3 Ti9 2.668603 1_565
As3 Ti9 2.668603 1_655
As3 Nb0 2.734950 1_555
As3 Ti10 2.807355 1_555
As3 Nb2 3.041147 1_555
As4 Ti1 2.535411 1_555
As4 Ti4 2.600091 1_545
As4 Ti4 2.600091 1_455
As4 Nb0 2.609233 1_555
As4 Ti8 2.629768 1_545
As4 Ti8 2.629768 1_455
As4 Ti10 2.642031 1_455
As4 Ti10 2.642031 1_545
As5 Ti2 2.535411 1_555
As5 Ti3 2.600091 1_565
As5 Ti3 2.600091 1_655
As5 Nb0 2.609233 1_555
As5 Ti7 2.629768 1_565
As5 Ti7 2.629768 1_655
As5 Ti9 2.642031 1_655
As5 Ti9 2.642031 1_565
As6 Ti3 2.492249 1_555
As6 Ti7 2.550394 1_555
As6 Ti0 2.557809 1_555
As6 Ti6 2.613678 1_455
As6 Ti6 2.613678 1_545
As6 Nb1 2.687224 1_455
As6 Nb1 2.687224 1_545
As7 Ti4 2.492249 1_555
As7 Ti8 2.550394 1_555
As7 Ti0 2.557809 1_666
As7 Ti5 2.613678 1_655
As7 Ti5 2.613678 1_565
As7 Nb2 2.687224 1_655
As7 Nb2 2.687224 1_565
