# generated using pymatgen
data_Mn2Hg5
_symmetry_space_group_name_H-M   'P 1'
_cell_length_a   20.01028000
_cell_length_b   20.01028000
_cell_length_c   6.03397200
_cell_angle_alpha   90.00000000
_cell_angle_beta   90.00000000
_cell_angle_gamma   90.00000000
_symmetry_Int_Tables_number   1
_chemical_formula_structural   Mn2Hg5
_chemical_formula_sum   'Mn32 Hg80'
_cell_volume   2416.07060695
_cell_formula_units_Z   16
loop_
 _symmetry_equiv_pos_site_id
 _symmetry_equiv_pos_as_xyz
  1  'x, y, z'
loop_
 _atom_site_type_symbol
 _atom_site_label
 _atom_site_symmetry_multiplicity
 _atom_site_fract_x
 _atom_site_fract_y
 _atom_site_fract_z
 _atom_site_occupancy
  Mn  Mn0_0  1  0.15971100  0.40971100  0.25000000  1
  Mn  Mn0_1  1  0.15971100  0.40971100  0.75000000  1
  Mn  Mn0_2  1  0.15971100  0.90971100  0.25000000  1
  Mn  Mn0_3  1  0.15971100  0.90971100  0.75000000  1
  Mn  Mn0_4  1  0.65971100  0.40971100  0.25000000  1
  Mn  Mn0_5  1  0.65971100  0.40971100  0.75000000  1
  Mn  Mn0_6  1  0.65971100  0.90971100  0.25000000  1
  Mn  Mn0_7  1  0.65971100  0.90971100  0.75000000  1
  Mn  Mn1_0  1  0.40971100  0.34028900  0.25000000  1
  Mn  Mn1_1  1  0.40971100  0.34028900  0.75000000  1
  Mn  Mn1_2  1  0.40971100  0.84028900  0.25000000  1
  Mn  Mn1_3  1  0.40971100  0.84028900  0.75000000  1
  Mn  Mn1_4  1  0.90971100  0.34028900  0.25000000  1
  Mn  Mn1_5  1  0.90971100  0.34028900  0.75000000  1
  Mn  Mn1_6  1  0.90971100  0.84028900  0.25000000  1
  Mn  Mn1_7  1  0.90971100  0.84028900  0.75000000  1
  Mn  Mn2_0  1  0.09028900  0.15971100  0.25000000  1
  Mn  Mn2_1  1  0.09028900  0.15971100  0.75000000  1
  Mn  Mn2_2  1  0.09028900  0.65971100  0.25000000  1
  Mn  Mn2_3  1  0.09028900  0.65971100  0.75000000  1
  Mn  Mn2_4  1  0.59028900  0.15971100  0.25000000  1
  Mn  Mn2_5  1  0.59028900  0.15971100  0.75000000  1
  Mn  Mn2_6  1  0.59028900  0.65971100  0.25000000  1
  Mn  Mn2_7  1  0.59028900  0.65971100  0.75000000  1
  Mn  Mn3_0  1  0.34028900  0.09028900  0.25000000  1
  Mn  Mn3_1  1  0.34028900  0.09028900  0.75000000  1
  Mn  Mn3_2  1  0.34028900  0.59028900  0.25000000  1
  Mn  Mn3_3  1  0.34028900  0.59028900  0.75000000  1
  Mn  Mn3_4  1  0.84028900  0.09028900  0.25000000  1
  Mn  Mn3_5  1  0.84028900  0.09028900  0.75000000  1
  Mn  Mn3_6  1  0.84028900  0.59028900  0.25000000  1
  Mn  Mn3_7  1  0.84028900  0.59028900  0.75000000  1
  Hg  Hg0_0  1  0.46788900  0.10166350  0.00000000  1
  Hg  Hg0_1  1  0.46788900  0.10166350  0.50000000  1
  Hg  Hg0_2  1  0.46788900  0.60166350  0.00000000  1
  Hg  Hg0_3  1  0.46788900  0.60166350  0.50000000  1
  Hg  Hg0_4  1  0.96788900  0.10166350  0.00000000  1
  Hg  Hg0_5  1  0.96788900  0.10166350  0.50000000  1
  Hg  Hg0_6  1  0.96788900  0.60166350  0.00000000  1
  Hg  Hg0_7  1  0.96788900  0.60166350  0.50000000  1
  Hg  Hg1_0  1  0.39833650  0.46788900  0.00000000  1
  Hg  Hg1_1  1  0.39833650  0.46788900  0.50000000  1
  Hg  Hg1_2  1  0.39833650  0.96788900  0.00000000  1
  Hg  Hg1_3  1  0.39833650  0.96788900  0.50000000  1
  Hg  Hg1_4  1  0.89833650  0.46788900  0.00000000  1
  Hg  Hg1_5  1  0.89833650  0.46788900  0.50000000  1
  Hg  Hg1_6  1  0.89833650  0.96788900  0.00000000  1
  Hg  Hg1_7  1  0.89833650  0.96788900  0.50000000  1
  Hg  Hg2_0  1  0.14833650  0.28211100  0.00000000  1
  Hg  Hg2_1  1  0.14833650  0.28211100  0.50000000  1
  Hg  Hg2_2  1  0.14833650  0.78211100  0.00000000  1
  Hg  Hg2_3  1  0.14833650  0.78211100  0.50000000  1
  Hg  Hg2_4  1  0.64833650  0.28211100  0.00000000  1
  Hg  Hg2_5  1  0.64833650  0.28211100  0.50000000  1
  Hg  Hg2_6  1  0.64833650  0.78211100  0.00000000  1
  Hg  Hg2_7  1  0.64833650  0.78211100  0.50000000  1
  Hg  Hg3_0  1  0.35166350  0.21788900  0.00000000  1
  Hg  Hg3_1  1  0.35166350  0.21788900  0.50000000  1
  Hg  Hg3_2  1  0.35166350  0.71788900  0.00000000  1
  Hg  Hg3_3  1  0.35166350  0.71788900  0.50000000  1
  Hg  Hg3_4  1  0.85166350  0.21788900  0.00000000  1
  Hg  Hg3_5  1  0.85166350  0.21788900  0.50000000  1
  Hg  Hg3_6  1  0.85166350  0.71788900  0.00000000  1
  Hg  Hg3_7  1  0.85166350  0.71788900  0.50000000  1
  Hg  Hg4_0  1  0.28211100  0.35166350  0.00000000  1
  Hg  Hg4_1  1  0.28211100  0.35166350  0.50000000  1
  Hg  Hg4_2  1  0.28211100  0.85166350  0.00000000  1
  Hg  Hg4_3  1  0.28211100  0.85166350  0.50000000  1
  Hg  Hg4_4  1  0.78211100  0.35166350  0.00000000  1
  Hg  Hg4_5  1  0.78211100  0.35166350  0.50000000  1
  Hg  Hg4_6  1  0.78211100  0.85166350  0.00000000  1
  Hg  Hg4_7  1  0.78211100  0.85166350  0.50000000  1
  Hg  Hg5_0  1  0.21788900  0.14833650  0.00000000  1
  Hg  Hg5_1  1  0.21788900  0.14833650  0.50000000  1
  Hg  Hg5_2  1  0.21788900  0.64833650  0.00000000  1
  Hg  Hg5_3  1  0.21788900  0.64833650  0.50000000  1
  Hg  Hg5_4  1  0.71788900  0.14833650  0.00000000  1
  Hg  Hg5_5  1  0.71788900  0.14833650  0.50000000  1
  Hg  Hg5_6  1  0.71788900  0.64833650  0.00000000  1
  Hg  Hg5_7  1  0.71788900  0.64833650  0.50000000  1
  Hg  Hg6_0  1  0.03211100  0.39833650  0.00000000  1
  Hg  Hg6_1  1  0.03211100  0.39833650  0.50000000  1
  Hg  Hg6_2  1  0.03211100  0.89833650  0.00000000  1
  Hg  Hg6_3  1  0.03211100  0.89833650  0.50000000  1
  Hg  Hg6_4  1  0.53211100  0.39833650  0.00000000  1
  Hg  Hg6_5  1  0.53211100  0.39833650  0.50000000  1
  Hg  Hg6_6  1  0.53211100  0.89833650  0.00000000  1
  Hg  Hg6_7  1  0.53211100  0.89833650  0.50000000  1
  Hg  Hg7_0  1  0.10166350  0.03211100  0.00000000  1
  Hg  Hg7_1  1  0.10166350  0.03211100  0.50000000  1
  Hg  Hg7_2  1  0.10166350  0.53211100  0.00000000  1
  Hg  Hg7_3  1  0.10166350  0.53211100  0.50000000  1
  Hg  Hg7_4  1  0.60166350  0.03211100  0.00000000  1
  Hg  Hg7_5  1  0.60166350  0.03211100  0.50000000  1
  Hg  Hg7_6  1  0.60166350  0.53211100  0.00000000  1
  Hg  Hg7_7  1  0.60166350  0.53211100  0.50000000  1
  Hg  Hg8_0  1  0.00000000  0.25000000  0.00000000  1
  Hg  Hg8_1  1  0.00000000  0.25000000  0.50000000  1
  Hg  Hg8_2  1  0.00000000  0.75000000  0.00000000  1
  Hg  Hg8_3  1  0.00000000  0.75000000  0.50000000  1
  Hg  Hg8_4  1  0.50000000  0.25000000  0.00000000  1
  Hg  Hg8_5  1  0.50000000  0.25000000  0.50000000  1
  Hg  Hg8_6  1  0.50000000  0.75000000  0.00000000  1
  Hg  Hg8_7  1  0.50000000  0.75000000  0.50000000  1
  Hg  Hg9_0  1  0.25000000  0.00000000  0.00000000  1
  Hg  Hg9_1  1  0.25000000  0.00000000  0.50000000  1
  Hg  Hg9_2  1  0.25000000  0.50000000  0.00000000  1
  Hg  Hg9_3  1  0.25000000  0.50000000  0.50000000  1
  Hg  Hg9_4  1  0.75000000  0.00000000  0.00000000  1
  Hg  Hg9_5  1  0.75000000  0.00000000  0.50000000  1
  Hg  Hg9_6  1  0.75000000  0.50000000  0.00000000  1
  Hg  Hg9_7  1  0.75000000  0.50000000  0.50000000  1
loop_
_geom_bond_atom_site_label_1
_geom_bond_atom_site_label_2
_geom_bond_distance
_geom_bond_site_symmetry_2
Mn0_0 Mn0_1 3.016986 1_554
Mn0_0 Mn0_1 3.016986 1_555
Mn0_2 Mn0_3 3.016986 1_554
Mn0_2 Mn0_3 3.016986 1_555
Mn0_4 Mn0_5 3.016986 1_554
Mn0_4 Mn0_5 3.016986 1_555
Mn0_6 Mn0_7 3.016986 1_554
Mn0_6 Mn0_7 3.016986 1_555
Mn1_0 Mn1_1 3.016986 1_554
Mn1_0 Mn1_1 3.016986 1_555
Mn1_2 Mn1_3 3.016986 1_554
Mn1_2 Mn1_3 3.016986 1_555
Mn1_4 Mn1_5 3.016986 1_554
Mn1_4 Mn1_5 3.016986 1_555
Mn1_6 Mn1_7 3.016986 1_554
Mn1_6 Mn1_7 3.016986 1_555
Mn2_0 Mn2_1 3.016986 1_554
Mn2_0 Mn2_1 3.016986 1_555
Mn2_2 Mn2_3 3.016986 1_554
Mn2_2 Mn2_3 3.016986 1_555
Mn2_4 Mn2_5 3.016986 1_554
Mn2_4 Mn2_5 3.016986 1_555
Mn2_6 Mn2_7 3.016986 1_554
Mn2_6 Mn2_7 3.016986 1_555
Mn3_0 Mn3_1 3.016986 1_554
Mn3_0 Mn3_1 3.016986 1_555
Mn3_2 Mn3_3 3.016986 1_554
Mn3_2 Mn3_3 3.016986 1_555
Mn3_4 Mn3_5 3.016986 1_554
Mn3_4 Mn3_5 3.016986 1_555
Mn3_6 Mn3_7 3.016986 1_554
Mn3_6 Mn3_7 3.016986 1_555
Hg0_0 Mn3_0 2.974350 1_555
Hg0_0 Mn3_1 2.974350 1_554
Hg0_0 Hg0_1 3.016986 1_555
Hg0_0 Hg0_1 3.016986 1_554
Hg0_0 Hg7_4 3.017054 1_555
Hg0_0 Hg1_2 3.017054 1_545
Hg0_0 Hg8_4 3.037006 1_555
Hg0_0 Mn2_5 3.102194 1_554
Hg0_0 Mn2_4 3.102194 1_555
Hg0_0 Hg3_0 3.289043 1_555
Hg0_1 Mn3_0 2.974350 1_555
Hg0_1 Mn3_1 2.974350 1_555
Hg0_1 Hg7_5 3.017054 1_555
Hg0_1 Hg1_3 3.017054 1_545
Hg0_1 Hg8_5 3.037006 1_555
Hg0_1 Mn2_4 3.102194 1_555
Hg0_1 Mn2_5 3.102194 1_555
Hg0_1 Hg3_1 3.289043 1_555
Hg0_2 Mn3_3 2.974350 1_554
Hg0_2 Mn3_2 2.974350 1_555
Hg0_2 Hg0_3 3.016986 1_555
Hg0_2 Hg0_3 3.016986 1_554
Hg0_2 Hg7_6 3.017054 1_555
Hg0_2 Hg1_0 3.017054 1_555
Hg0_2 Hg8_6 3.037006 1_555
Hg0_2 Mn2_7 3.102194 1_554
Hg0_2 Mn2_6 3.102194 1_555
Hg0_2 Hg3_2 3.289043 1_555
Hg0_3 Mn3_2 2.974350 1_555
Hg0_3 Mn3_3 2.974350 1_555
Hg0_3 Hg7_7 3.017054 1_555
Hg0_3 Hg1_1 3.017054 1_555
Hg0_3 Hg8_7 3.037006 1_555
Hg0_3 Mn2_6 3.102194 1_555
Hg0_3 Mn2_7 3.102194 1_555
Hg0_3 Hg3_3 3.289043 1_555
Hg0_4 Mn3_4 2.974350 1_555
Hg0_4 Mn3_5 2.974350 1_554
Hg0_4 Hg0_5 3.016986 1_555
Hg0_4 Hg0_5 3.016986 1_554
Hg0_4 Hg7_0 3.017054 1_655
Hg0_4 Hg1_6 3.017054 1_545
Hg0_4 Hg8_0 3.037006 1_655
Hg0_4 Mn2_1 3.102194 1_654
Hg0_4 Mn2_0 3.102194 1_655
Hg0_4 Hg3_4 3.289043 1_555
Hg0_5 Mn3_4 2.974350 1_555
Hg0_5 Mn3_5 2.974350 1_555
Hg0_5 Hg7_1 3.017054 1_655
Hg0_5 Hg1_7 3.017054 1_545
Hg0_5 Hg8_1 3.037006 1_655
Hg0_5 Mn2_1 3.102194 1_655
Hg0_5 Mn2_0 3.102194 1_655
Hg0_5 Hg3_5 3.289043 1_555
Hg0_6 Mn3_7 2.974350 1_554
Hg0_6 Mn3_6 2.974350 1_555
Hg0_6 Hg0_7 3.016986 1_555
Hg0_6 Hg0_7 3.016986 1_554
Hg0_6 Hg7_2 3.017054 1_655
Hg0_6 Hg1_4 3.017054 1_555
Hg0_6 Hg8_2 3.037006 1_655
Hg0_6 Mn2_3 3.102194 1_654
Hg0_6 Mn2_2 3.102194 1_655
Hg0_6 Hg3_6 3.289043 1_555
Hg0_7 Mn3_6 2.974350 1_555
Hg0_7 Mn3_7 2.974350 1_555
Hg0_7 Hg7_3 3.017054 1_655
Hg0_7 Hg1_5 3.017054 1_555
Hg0_7 Hg8_3 3.037006 1_655
Hg0_7 Mn2_2 3.102194 1_655
Hg0_7 Mn2_3 3.102194 1_655
Hg0_7 Hg3_7 3.289043 1_555
Hg1_0 Mn1_1 2.974350 1_554
Hg1_0 Mn1_0 2.974350 1_555
Hg1_0 Hg1_1 3.016986 1_555
Hg1_0 Hg1_1 3.016986 1_554
Hg1_0 Hg6_4 3.017054 1_555
Hg1_0 Hg9_2 3.037006 1_555
Hg1_0 Mn3_3 3.102194 1_554
Hg1_0 Mn3_2 3.102194 1_555
Hg1_0 Hg4_0 3.289043 1_555
Hg1_1 Mn1_0 2.974350 1_555
Hg1_1 Mn1_1 2.974350 1_555
Hg1_1 Hg6_5 3.017054 1_555
Hg1_1 Hg9_3 3.037006 1_555
Hg1_1 Mn3_3 3.102194 1_555
Hg1_1 Mn3_2 3.102194 1_555
Hg1_1 Hg4_1 3.289043 1_555
Hg1_2 Mn1_2 2.974350 1_555
Hg1_2 Mn1_3 2.974350 1_554
Hg1_2 Hg1_3 3.016986 1_555
Hg1_2 Hg1_3 3.016986 1_554
Hg1_2 Hg6_6 3.017054 1_555
Hg1_2 Hg9_0 3.037006 1_565
Hg1_2 Mn3_1 3.102194 1_564
Hg1_2 Mn3_0 3.102194 1_565
Hg1_2 Hg4_2 3.289043 1_555
Hg1_3 Mn1_2 2.974350 1_555
Hg1_3 Mn1_3 2.974350 1_555
Hg1_3 Hg6_7 3.017054 1_555
Hg1_3 Hg9_1 3.037006 1_565
Hg1_3 Mn3_1 3.102194 1_565
Hg1_3 Mn3_0 3.102194 1_565
Hg1_3 Hg4_3 3.289043 1_555
Hg1_4 Mn1_5 2.974350 1_554
Hg1_4 Mn1_4 2.974350 1_555
Hg1_4 Hg1_5 3.016986 1_554
Hg1_4 Hg1_5 3.016986 1_555
Hg1_4 Hg6_0 3.017054 1_655
Hg1_4 Hg9_6 3.037006 1_555
Hg1_4 Mn3_6 3.102194 1_555
Hg1_4 Mn3_7 3.102194 1_554
Hg1_4 Hg4_4 3.289043 1_555
Hg1_5 Mn1_4 2.974350 1_555
Hg1_5 Mn1_5 2.974350 1_555
Hg1_5 Hg6_1 3.017054 1_655
Hg1_5 Hg9_7 3.037006 1_555
Hg1_5 Mn3_6 3.102194 1_555
Hg1_5 Mn3_7 3.102194 1_555
Hg1_5 Hg4_5 3.289043 1_555
Hg1_6 Mn1_7 2.974350 1_554
Hg1_6 Mn1_6 2.974350 1_555
Hg1_6 Hg1_7 3.016986 1_555
Hg1_6 Hg1_7 3.016986 1_554
Hg1_6 Hg6_2 3.017054 1_655
Hg1_6 Hg9_4 3.037006 1_565
Hg1_6 Mn3_5 3.102194 1_564
Hg1_6 Mn3_4 3.102194 1_565
Hg1_6 Hg4_6 3.289043 1_555
Hg1_7 Mn1_6 2.974350 1_555
Hg1_7 Mn1_7 2.974350 1_555
Hg1_7 Hg6_3 3.017054 1_655
Hg1_7 Hg9_5 3.037006 1_565
Hg1_7 Mn3_4 3.102194 1_565
Hg1_7 Mn3_5 3.102194 1_565
Hg1_7 Hg4_7 3.289043 1_555
Hg2_0 Mn0_1 2.974350 1_554
Hg2_0 Mn0_0 2.974350 1_555
Hg2_0 Hg2_1 3.016986 1_555
Hg2_0 Hg2_1 3.016986 1_554
Hg2_0 Hg4_0 3.017054 1_555
Hg2_0 Hg5_0 3.017054 1_555
Hg2_0 Hg8_0 3.037006 1_555
Hg2_0 Mn2_1 3.102194 1_554
Hg2_0 Mn2_0 3.102194 1_555
Hg2_0 Hg6_0 3.289043 1_555
Hg2_1 Mn0_0 2.974350 1_555
Hg2_1 Mn0_1 2.974350 1_555
Hg2_1 Hg4_1 3.017054 1_555
Hg2_1 Hg5_1 3.017054 1_555
Hg2_1 Hg8_1 3.037006 1_555
Hg2_1 Mn2_0 3.102194 1_555
Hg2_1 Mn2_1 3.102194 1_555
Hg2_1 Hg6_1 3.289043 1_555
Hg2_2 Mn0_3 2.974350 1_554
Hg2_2 Mn0_2 2.974350 1_555
Hg2_2 Hg2_3 3.016986 1_554
Hg2_2 Hg2_3 3.016986 1_555
Hg2_2 Hg4_2 3.017054 1_555
Hg2_2 Hg5_2 3.017054 1_555
Hg2_2 Hg8_2 3.037006 1_555
Hg2_2 Mn2_3 3.102194 1_554
Hg2_2 Mn2_2 3.102194 1_555
Hg2_2 Hg6_2 3.289043 1_555
Hg2_3 Mn0_2 2.974350 1_555
Hg2_3 Mn0_3 2.974350 1_555
Hg2_3 Hg4_3 3.017054 1_555
Hg2_3 Hg5_3 3.017054 1_555
Hg2_3 Hg8_3 3.037006 1_555
Hg2_3 Mn2_2 3.102194 1_555
Hg2_3 Mn2_3 3.102194 1_555
Hg2_3 Hg6_3 3.289043 1_555
Hg2_4 Mn0_5 2.974350 1_554
Hg2_4 Mn0_4 2.974350 1_555
Hg2_4 Hg2_5 3.016986 1_554
Hg2_4 Hg2_5 3.016986 1_555
Hg2_4 Hg4_4 3.017054 1_555
Hg2_4 Hg5_4 3.017054 1_555
Hg2_4 Hg8_4 3.037006 1_555
Hg2_4 Mn2_5 3.102194 1_554
Hg2_4 Mn2_4 3.102194 1_555
Hg2_4 Hg6_4 3.289043 1_555
Hg2_5 Mn0_5 2.974350 1_555
Hg2_5 Mn0_4 2.974350 1_555
Hg2_5 Hg4_5 3.017054 1_555
Hg2_5 Hg5_5 3.017054 1_555
Hg2_5 Hg8_5 3.037006 1_555
Hg2_5 Mn2_4 3.102194 1_555
Hg2_5 Mn2_5 3.102194 1_555
Hg2_5 Hg6_5 3.289043 1_555
Hg2_6 Mn0_7 2.974350 1_554
Hg2_6 Mn0_6 2.974350 1_555
Hg2_6 Hg2_7 3.016986 1_555
Hg2_6 Hg2_7 3.016986 1_554
Hg2_6 Hg4_6 3.017054 1_555
Hg2_6 Hg5_6 3.017054 1_555
Hg2_6 Hg8_6 3.037006 1_555
Hg2_6 Mn2_7 3.102194 1_554
Hg2_6 Mn2_6 3.102194 1_555
Hg2_6 Hg6_6 3.289043 1_555
Hg2_7 Mn0_6 2.974350 1_555
Hg2_7 Mn0_7 2.974350 1_555
Hg2_7 Hg4_7 3.017054 1_555
Hg2_7 Hg5_7 3.017054 1_555
Hg2_7 Hg8_7 3.037006 1_555
Hg2_7 Mn2_6 3.102194 1_555
Hg2_7 Mn2_7 3.102194 1_555
Hg2_7 Hg6_7 3.289043 1_555
Hg3_0 Mn3_1 2.974350 1_554
Hg3_0 Mn3_0 2.974350 1_555
Hg3_0 Hg3_1 3.016986 1_554
Hg3_0 Hg3_1 3.016986 1_555
Hg3_0 Hg4_0 3.017054 1_555
Hg3_0 Hg5_0 3.017054 1_555
Hg3_0 Hg8_4 3.037006 1_555
Hg3_0 Mn1_1 3.102194 1_554
Hg3_0 Mn1_0 3.102194 1_555
Hg3_1 Mn3_0 2.974350 1_555
Hg3_1 Mn3_1 2.974350 1_555
Hg3_1 Hg4_1 3.017054 1_555
Hg3_1 Hg5_1 3.017054 1_555
Hg3_1 Hg8_5 3.037006 1_555
Hg3_1 Mn1_0 3.102194 1_555
Hg3_1 Mn1_1 3.102194 1_555
Hg3_2 Mn3_3 2.974350 1_554
Hg3_2 Mn3_2 2.974350 1_555
Hg3_2 Hg3_3 3.016986 1_554
Hg3_2 Hg3_3 3.016986 1_555
Hg3_2 Hg4_2 3.017054 1_555
Hg3_2 Hg5_2 3.017054 1_555
Hg3_2 Hg8_6 3.037006 1_555
Hg3_2 Mn1_3 3.102194 1_554
Hg3_2 Mn1_2 3.102194 1_555
Hg3_3 Mn3_2 2.974350 1_555
Hg3_3 Mn3_3 2.974350 1_555
Hg3_3 Hg4_3 3.017054 1_555
Hg3_3 Hg5_3 3.017054 1_555
Hg3_3 Hg8_7 3.037006 1_555
Hg3_3 Mn1_2 3.102194 1_555
Hg3_3 Mn1_3 3.102194 1_555
Hg3_4 Mn3_5 2.974350 1_554
Hg3_4 Mn3_4 2.974350 1_555
Hg3_4 Hg3_5 3.016986 1_554
Hg3_4 Hg3_5 3.016986 1_555
Hg3_4 Hg4_4 3.017054 1_555
Hg3_4 Hg5_4 3.017054 1_555
Hg3_4 Hg8_0 3.037006 1_655
Hg3_4 Mn1_5 3.102194 1_554
Hg3_4 Mn1_4 3.102194 1_555
Hg3_5 Mn3_4 2.974350 1_555
Hg3_5 Mn3_5 2.974350 1_555
Hg3_5 Hg4_5 3.017054 1_555
Hg3_5 Hg5_5 3.017054 1_555
Hg3_5 Hg8_1 3.037006 1_655
Hg3_5 Mn1_4 3.102194 1_555
Hg3_5 Mn1_5 3.102194 1_555
Hg3_6 Mn3_7 2.974350 1_554
Hg3_6 Mn3_6 2.974350 1_555
Hg3_6 Hg3_7 3.016986 1_555
Hg3_6 Hg3_7 3.016986 1_554
Hg3_6 Hg4_6 3.017054 1_555
Hg3_6 Hg5_6 3.017054 1_555
Hg3_6 Hg8_2 3.037006 1_655
Hg3_6 Mn1_7 3.102194 1_554
Hg3_6 Mn1_6 3.102194 1_555
Hg3_7 Mn3_6 2.974350 1_555
Hg3_7 Mn3_7 2.974350 1_555
Hg3_7 Hg4_7 3.017054 1_555
Hg3_7 Hg5_7 3.017054 1_555
Hg3_7 Hg8_3 3.037006 1_655
Hg3_7 Mn1_6 3.102194 1_555
Hg3_7 Mn1_7 3.102194 1_555
Hg4_0 Mn1_1 2.974350 1_554
Hg4_0 Mn1_0 2.974350 1_555
Hg4_0 Hg4_1 3.016986 1_555
Hg4_0 Hg4_1 3.016986 1_554
Hg4_0 Hg9_2 3.037006 1_555
Hg4_0 Mn0_1 3.102194 1_554
Hg4_0 Mn0_0 3.102194 1_555
Hg4_1 Mn1_0 2.974350 1_555
Hg4_1 Mn1_1 2.974350 1_555
Hg4_1 Hg9_3 3.037006 1_555
Hg4_1 Mn0_0 3.102194 1_555
Hg4_1 Mn0_1 3.102194 1_555
Hg4_2 Mn1_3 2.974350 1_554
Hg4_2 Mn1_2 2.974350 1_555
Hg4_2 Hg4_3 3.016986 1_554
Hg4_2 Hg4_3 3.016986 1_555
Hg4_2 Hg9_0 3.037006 1_565
Hg4_2 Mn0_3 3.102194 1_554
Hg4_2 Mn0_2 3.102194 1_555
Hg4_3 Mn1_2 2.974350 1_555
Hg4_3 Mn1_3 2.974350 1_555
Hg4_3 Hg9_1 3.037006 1_565
Hg4_3 Mn0_2 3.102194 1_555
Hg4_3 Mn0_3 3.102194 1_555
Hg4_4 Mn1_5 2.974350 1_554
Hg4_4 Mn1_4 2.974350 1_555
Hg4_4 Hg4_5 3.016986 1_555
Hg4_4 Hg4_5 3.016986 1_554
Hg4_4 Hg9_6 3.037006 1_555
Hg4_4 Mn0_5 3.102194 1_554
Hg4_4 Mn0_4 3.102194 1_555
Hg4_5 Mn1_4 2.974350 1_555
Hg4_5 Mn1_5 2.974350 1_555
Hg4_5 Hg9_7 3.037006 1_555
Hg4_5 Mn0_4 3.102194 1_555
Hg4_5 Mn0_5 3.102194 1_555
Hg4_6 Mn1_7 2.974350 1_554
Hg4_6 Mn1_6 2.974350 1_555
Hg4_6 Hg4_7 3.016986 1_554
Hg4_6 Hg4_7 3.016986 1_555
Hg4_6 Hg9_4 3.037006 1_565
Hg4_6 Mn0_7 3.102194 1_554
Hg4_6 Mn0_6 3.102194 1_555
Hg4_7 Mn1_6 2.974350 1_555
Hg4_7 Mn1_7 2.974350 1_555
Hg4_7 Hg9_5 3.037006 1_565
Hg4_7 Mn0_7 3.102194 1_555
Hg4_7 Mn0_6 3.102194 1_555
Hg5_0 Mn2_1 2.974350 1_554
Hg5_0 Mn2_0 2.974350 1_555
Hg5_0 Hg5_1 3.016986 1_554
Hg5_0 Hg5_1 3.016986 1_555
Hg5_0 Hg9_0 3.037006 1_555
Hg5_0 Mn3_1 3.102194 1_554
Hg5_0 Mn3_0 3.102194 1_555
Hg5_0 Hg7_0 3.289043 1_555
Hg5_1 Mn2_0 2.974350 1_555
Hg5_1 Mn2_1 2.974350 1_555
Hg5_1 Hg9_1 3.037006 1_555
Hg5_1 Mn3_0 3.102194 1_555
Hg5_1 Mn3_1 3.102194 1_555
Hg5_1 Hg7_1 3.289043 1_555
Hg5_2 Mn2_3 2.974350 1_554
Hg5_2 Mn2_2 2.974350 1_555
Hg5_2 Hg5_3 3.016986 1_555
Hg5_2 Hg5_3 3.016986 1_554
Hg5_2 Hg9_2 3.037006 1_555
Hg5_2 Mn3_3 3.102194 1_554
Hg5_2 Mn3_2 3.102194 1_555
Hg5_2 Hg7_2 3.289043 1_555
Hg5_3 Mn2_2 2.974350 1_555
Hg5_3 Mn2_3 2.974350 1_555
Hg5_3 Hg9_3 3.037006 1_555
Hg5_3 Mn3_2 3.102194 1_555
Hg5_3 Mn3_3 3.102194 1_555
Hg5_3 Hg7_3 3.289043 1_555
Hg5_4 Mn2_5 2.974350 1_554
Hg5_4 Mn2_4 2.974350 1_555
Hg5_4 Hg5_5 3.016986 1_555
Hg5_4 Hg5_5 3.016986 1_554
Hg5_4 Hg9_4 3.037006 1_555
Hg5_4 Mn3_5 3.102194 1_554
Hg5_4 Mn3_4 3.102194 1_555
Hg5_4 Hg7_4 3.289043 1_555
Hg5_5 Mn2_4 2.974350 1_555
Hg5_5 Mn2_5 2.974350 1_555
Hg5_5 Hg9_5 3.037006 1_555
Hg5_5 Mn3_4 3.102194 1_555
Hg5_5 Mn3_5 3.102194 1_555
Hg5_5 Hg7_5 3.289043 1_555
Hg5_6 Mn2_7 2.974350 1_554
Hg5_6 Mn2_6 2.974350 1_555
Hg5_6 Hg5_7 3.016986 1_555
Hg5_6 Hg5_7 3.016986 1_554
Hg5_6 Hg9_6 3.037006 1_555
Hg5_6 Mn3_7 3.102194 1_554
Hg5_6 Mn3_6 3.102194 1_555
Hg5_6 Hg7_6 3.289043 1_555
Hg5_7 Mn2_6 2.974350 1_555
Hg5_7 Mn2_7 2.974350 1_555
Hg5_7 Hg9_7 3.037006 1_555
Hg5_7 Mn3_6 3.102194 1_555
Hg5_7 Mn3_7 3.102194 1_555
Hg5_7 Hg7_7 3.289043 1_555
Hg6_0 Mn0_0 2.974350 1_555
Hg6_0 Mn0_1 2.974350 1_554
Hg6_0 Hg6_1 3.016986 1_554
Hg6_0 Hg6_1 3.016986 1_555
Hg6_0 Hg7_2 3.017054 1_555
Hg6_0 Hg8_0 3.037006 1_555
Hg6_0 Mn1_5 3.102194 1_454
Hg6_0 Mn1_4 3.102194 1_455
Hg6_1 Mn0_0 2.974350 1_555
Hg6_1 Mn0_1 2.974350 1_555
Hg6_1 Hg7_3 3.017054 1_555
Hg6_1 Hg8_1 3.037006 1_555
Hg6_1 Mn1_5 3.102194 1_455
Hg6_1 Mn1_4 3.102194 1_455
Hg6_2 Mn0_3 2.974350 1_554
Hg6_2 Mn0_2 2.974350 1_555
Hg6_2 Hg6_3 3.016986 1_554
Hg6_2 Hg6_3 3.016986 1_555
Hg6_2 Hg7_0 3.017054 1_565
Hg6_2 Hg8_2 3.037006 1_555
Hg6_2 Mn1_7 3.102194 1_454
Hg6_2 Mn1_6 3.102194 1_455
Hg6_3 Mn0_2 2.974350 1_555
Hg6_3 Mn0_3 2.974350 1_555
Hg6_3 Hg7_1 3.017054 1_565
Hg6_3 Hg8_3 3.037006 1_555
Hg6_3 Mn1_6 3.102194 1_455
Hg6_3 Mn1_7 3.102194 1_455
Hg6_4 Mn0_5 2.974350 1_554
Hg6_4 Mn0_4 2.974350 1_555
Hg6_4 Hg6_5 3.016986 1_555
Hg6_4 Hg6_5 3.016986 1_554
Hg6_4 Hg7_6 3.017054 1_555
Hg6_4 Hg8_4 3.037006 1_555
Hg6_4 Mn1_1 3.102194 1_554
Hg6_4 Mn1_0 3.102194 1_555
Hg6_5 Mn0_5 2.974350 1_555
Hg6_5 Mn0_4 2.974350 1_555
Hg6_5 Hg7_7 3.017054 1_555
Hg6_5 Hg8_5 3.037006 1_555
Hg6_5 Mn1_0 3.102194 1_555
Hg6_5 Mn1_1 3.102194 1_555
Hg6_6 Mn0_7 2.974350 1_554
Hg6_6 Mn0_6 2.974350 1_555
Hg6_6 Hg6_7 3.016986 1_555
Hg6_6 Hg6_7 3.016986 1_554
Hg6_6 Hg7_4 3.017054 1_565
Hg6_6 Hg8_6 3.037006 1_555
Hg6_6 Mn1_2 3.102194 1_555
Hg6_6 Mn1_3 3.102194 1_554
Hg6_7 Mn0_7 2.974350 1_555
Hg6_7 Mn0_6 2.974350 1_555
Hg6_7 Hg7_5 3.017054 1_565
Hg6_7 Hg8_7 3.037006 1_555
Hg6_7 Mn1_2 3.102194 1_555
Hg6_7 Mn1_3 3.102194 1_555
Hg7_0 Mn2_1 2.974350 1_554
Hg7_0 Mn2_0 2.974350 1_555
Hg7_0 Hg7_1 3.016986 1_555
Hg7_0 Hg7_1 3.016986 1_554
Hg7_0 Hg9_0 3.037006 1_555
Hg7_0 Mn0_3 3.102194 1_544
Hg7_0 Mn0_2 3.102194 1_545
Hg7_1 Mn2_0 2.974350 1_555
Hg7_1 Mn2_1 2.974350 1_555
Hg7_1 Hg9_1 3.037006 1_555
Hg7_1 Mn0_3 3.102194 1_545
Hg7_1 Mn0_2 3.102194 1_545
Hg7_2 Mn2_3 2.974350 1_554
Hg7_2 Mn2_2 2.974350 1_555
Hg7_2 Hg7_3 3.016986 1_555
Hg7_2 Hg7_3 3.016986 1_554
Hg7_2 Hg9_2 3.037006 1_555
Hg7_2 Mn0_1 3.102194 1_554
Hg7_2 Mn0_0 3.102194 1_555
Hg7_3 Mn2_2 2.974350 1_555
Hg7_3 Mn2_3 2.974350 1_555
Hg7_3 Hg9_3 3.037006 1_555
Hg7_3 Mn0_0 3.102194 1_555
Hg7_3 Mn0_1 3.102194 1_555
Hg7_4 Mn2_4 2.974350 1_555
Hg7_4 Mn2_5 2.974350 1_554
Hg7_4 Hg7_5 3.016986 1_554
Hg7_4 Hg7_5 3.016986 1_555
Hg7_4 Hg9_4 3.037006 1_555
Hg7_4 Mn0_7 3.102194 1_544
Hg7_4 Mn0_6 3.102194 1_545
Hg7_5 Mn2_4 2.974350 1_555
Hg7_5 Mn2_5 2.974350 1_555
Hg7_5 Hg9_5 3.037006 1_555
Hg7_5 Mn0_6 3.102194 1_545
Hg7_5 Mn0_7 3.102194 1_545
Hg7_6 Mn2_7 2.974350 1_554
Hg7_6 Mn2_6 2.974350 1_555
Hg7_6 Hg7_7 3.016986 1_554
Hg7_6 Hg7_7 3.016986 1_555
Hg7_6 Hg9_6 3.037006 1_555
Hg7_6 Mn0_5 3.102194 1_554
Hg7_6 Mn0_4 3.102194 1_555
Hg7_7 Mn2_7 2.974350 1_555
Hg7_7 Mn2_6 2.974350 1_555
Hg7_7 Hg9_7 3.037006 1_555
Hg7_7 Mn0_4 3.102194 1_555
Hg7_7 Mn0_5 3.102194 1_555
Hg8_0 Mn2_1 2.967143 1_554
Hg8_0 Mn2_0 2.967143 1_555
Hg8_0 Mn1_5 2.967143 1_454
Hg8_0 Mn1_4 2.967143 1_455
Hg8_0 Hg8_1 3.016986 1_555
Hg8_0 Hg8_1 3.016986 1_554
Hg8_1 Mn2_0 2.967143 1_555
Hg8_1 Mn2_1 2.967143 1_555
Hg8_1 Mn1_4 2.967143 1_455
Hg8_1 Mn1_5 2.967143 1_455
Hg8_2 Mn1_7 2.967143 1_454
Hg8_2 Mn1_6 2.967143 1_455
Hg8_2 Mn2_3 2.967143 1_554
Hg8_2 Mn2_2 2.967143 1_555
Hg8_2 Hg8_3 3.016986 1_554
Hg8_2 Hg8_3 3.016986 1_555
Hg8_3 Mn1_6 2.967143 1_455
Hg8_3 Mn1_7 2.967143 1_455
Hg8_3 Mn2_2 2.967143 1_555
Hg8_3 Mn2_3 2.967143 1_555
Hg8_4 Mn1_0 2.967143 1_555
Hg8_4 Mn1_1 2.967143 1_554
Hg8_4 Mn2_5 2.967143 1_554
Hg8_4 Mn2_4 2.967143 1_555
Hg8_4 Hg8_5 3.016986 1_555
Hg8_4 Hg8_5 3.016986 1_554
Hg8_5 Mn1_0 2.967143 1_555
Hg8_5 Mn1_1 2.967143 1_555
Hg8_5 Mn2_4 2.967143 1_555
Hg8_5 Mn2_5 2.967143 1_555
Hg8_6 Mn1_3 2.967143 1_554
Hg8_6 Mn1_2 2.967143 1_555
Hg8_6 Mn2_7 2.967143 1_554
Hg8_6 Mn2_6 2.967143 1_555
Hg8_6 Hg8_7 3.016986 1_555
Hg8_6 Hg8_7 3.016986 1_554
Hg8_7 Mn1_2 2.967143 1_555
Hg8_7 Mn1_3 2.967143 1_555
Hg8_7 Mn2_6 2.967143 1_555
Hg8_7 Mn2_7 2.967143 1_555
Hg9_0 Mn3_1 2.967143 1_554
Hg9_0 Mn3_0 2.967143 1_555
Hg9_0 Mn0_3 2.967143 1_544
Hg9_0 Mn0_2 2.967143 1_545
Hg9_0 Hg9_1 3.016986 1_554
Hg9_0 Hg9_1 3.016986 1_555
Hg9_1 Mn3_0 2.967143 1_555
Hg9_1 Mn3_1 2.967143 1_555
Hg9_1 Mn0_2 2.967143 1_545
Hg9_1 Mn0_3 2.967143 1_545
Hg9_2 Mn0_1 2.967143 1_554
Hg9_2 Mn0_0 2.967143 1_555
Hg9_2 Mn3_3 2.967143 1_554
Hg9_2 Mn3_2 2.967143 1_555
Hg9_2 Hg9_3 3.016986 1_555
Hg9_2 Hg9_3 3.016986 1_554
Hg9_3 Mn0_0 2.967143 1_555
Hg9_3 Mn0_1 2.967143 1_555
Hg9_3 Mn3_2 2.967143 1_555
Hg9_3 Mn3_3 2.967143 1_555
Hg9_4 Mn3_5 2.967143 1_554
Hg9_4 Mn3_4 2.967143 1_555
Hg9_4 Mn0_7 2.967143 1_544
Hg9_4 Mn0_6 2.967143 1_545
Hg9_4 Hg9_5 3.016986 1_555
Hg9_4 Hg9_5 3.016986 1_554
Hg9_5 Mn3_4 2.967143 1_555
Hg9_5 Mn3_5 2.967143 1_555
Hg9_5 Mn0_6 2.967143 1_545
Hg9_5 Mn0_7 2.967143 1_545
Hg9_6 Mn3_6 2.967143 1_555
Hg9_6 Mn3_7 2.967143 1_554
Hg9_6 Mn0_5 2.967143 1_554
Hg9_6 Mn0_4 2.967143 1_555
Hg9_6 Hg9_7 3.016986 1_555
Hg9_6 Hg9_7 3.016986 1_554
Hg9_7 Mn3_6 2.967143 1_555
Hg9_7 Mn3_7 2.967143 1_555
Hg9_7 Mn0_4 2.967143 1_555
Hg9_7 Mn0_5 2.967143 1_555
