# generated using pymatgen
data_Ca(NdS2)2
_symmetry_space_group_name_H-M   'P 1'
_cell_length_a   7.43014477
_cell_length_b   7.43014315
_cell_length_c   7.43014114
_cell_angle_alpha   109.64737482
_cell_angle_beta   109.64738761
_cell_angle_gamma   109.11942902
_symmetry_Int_Tables_number   1
_chemical_formula_structural   Ca(NdS2)2
_chemical_formula_sum   'Ca2 Nd4 S8'
_cell_volume   315.76034370
_cell_formula_units_Z   2
loop_
 _symmetry_equiv_pos_site_id
 _symmetry_equiv_pos_as_xyz
  1  'x, y, z'
loop_
 _atom_site_type_symbol
 _atom_site_label
 _atom_site_symmetry_multiplicity
 _atom_site_fract_x
 _atom_site_fract_y
 _atom_site_fract_z
 _atom_site_occupancy
  Ca  Ca0  1  0.50000027  0.50000064  0.00000018  1
  Ca  Ca1  1  0.25000037  0.75000034  0.49999998  1
  Nd  Nd0  1  0.37499988  0.99592577  0.12092548  1
  Nd  Nd1  1  0.00407455  0.12500018  0.37907457  1
  Nd  Nd2  1  0.87500005  0.25407442  0.87907472  1
  Nd  Nd3  1  0.74592571  0.62499980  0.62092553  1
  S  S0  1  0.62583929  0.87821593  0.89363701  1
  S  S1  1  0.62821610  0.87583917  0.39363705  1
  S  S2  1  0.12178351  0.01542019  0.74762288  1
  S  S3  1  0.48220270  0.23457944  0.60636328  1
  S  S4  1  0.76542035  0.37178350  0.24762301  1
  S  S5  1  0.12416048  0.51779731  0.75237656  1
  S  S6  1  0.26779740  0.37416069  0.25237657  1
  S  S7  1  0.98457932  0.73220262  0.10636318  1
loop_
_geom_bond_atom_site_label_1
_geom_bond_atom_site_label_2
_geom_bond_distance
_geom_bond_site_symmetry_2
Ca0 S1 2.855059 1_555
Ca0 S5 2.855061 1_554
Ca0 S3 2.855062 1_554
Ca0 S4 2.855062 1_555
Ca0 S0 3.108874 1_554
Ca0 S7 3.108880 1_555
Ca0 S6 3.108880 1_555
Ca0 S2 3.108888 1_554
Ca1 S2 2.855060 1_565
Ca1 S7 2.855060 1_455
Ca1 S6 2.855061 1_555
Ca1 S0 2.855062 1_555
Ca1 S1 3.108876 1_555
Ca1 S3 3.108879 1_565
Ca1 S5 3.108881 1_555
Ca1 S4 3.108887 1_455
Nd0 S4 2.861672 1_565
Nd0 S7 2.861675 1_455
Nd0 S2 2.862442 1_564
Nd0 S1 2.862447 1_555
Nd0 S0 3.046594 1_554
Nd0 S5 3.046597 1_554
Nd0 S6 3.103250 1_565
Nd0 S3 3.103251 1_565
Nd1 S6 2.861674 1_555
Nd1 S1 2.861677 1_445
Nd1 S5 2.862442 1_555
Nd1 S7 2.862444 1_445
Nd1 S2 3.046593 1_555
Nd1 S3 3.046595 1_555
Nd1 S4 3.103250 1_455
Nd1 S0 3.103252 1_444
Nd2 S0 2.861675 1_545
Nd2 S5 2.861675 1_655
Nd2 S6 2.862442 1_656
Nd2 S3 2.862444 1_555
Nd2 S4 3.046592 1_556
Nd2 S7 3.046595 1_556
Nd2 S2 3.103252 1_655
Nd2 S1 3.103253 1_545
Nd3 S2 2.861673 1_665
Nd3 S3 2.861673 1_555
Nd3 S4 2.862443 1_555
Nd3 S0 2.862446 1_555
Nd3 S1 3.046592 1_555
Nd3 S6 3.046597 1_555
Nd3 S5 3.103249 1_655
Nd3 S7 3.103250 1_556
