# generated using pymatgen
data_Sb2PdF12
_symmetry_space_group_name_H-M   'P 1'
_cell_length_a   5.05958418
_cell_length_b   5.54769322
_cell_length_c   8.64704376
_cell_angle_alpha   74.65185035
_cell_angle_beta   89.92415732
_cell_angle_gamma   62.88569693
_symmetry_Int_Tables_number   1
_chemical_formula_structural   Sb2PdF12
_chemical_formula_sum   'Sb2 Pd1 F12'
_cell_volume   206.31216488
_cell_formula_units_Z   1
loop_
 _symmetry_equiv_pos_site_id
 _symmetry_equiv_pos_as_xyz
  1  'x, y, z'
loop_
 _atom_site_type_symbol
 _atom_site_label
 _atom_site_symmetry_multiplicity
 _atom_site_fract_x
 _atom_site_fract_y
 _atom_site_fract_z
 _atom_site_occupancy
  Sb  Sb0  1  0.75664759  0.01254028  0.23035803  1
  Sb  Sb1  1  0.24335241  0.98745972  0.76964197  1
  Pd  Pd0  1  0.50000000  0.50000000  0.50000000  1
  F  F0  1  0.94176121  0.24000948  0.21664157  1
  F  F1  1  0.05823879  0.75999052  0.78335843  1
  F  F2  1  0.03469429  0.76344251  0.13124440  1
  F  F3  1  0.50796992  0.77711861  0.63527814  1
  F  F4  1  0.49203008  0.22288139  0.36472186  1
  F  F5  1  0.98341058  0.23305098  0.56384062  1
  F  F6  1  0.01658942  0.76694902  0.43615938  1
  F  F7  1  0.43553593  0.22557835  0.71168082  1
  F  F8  1  0.56446407  0.77442165  0.28831918  1
  F  F9  1  0.52857087  0.76160737  0.95162588  1
  F  F10  1  0.47142913  0.23839263  0.04837412  1
  F  F11  1  0.96530571  0.23655749  0.86875560  1
loop_
_geom_bond_atom_site_label_1
_geom_bond_atom_site_label_2
_geom_bond_distance
_geom_bond_site_symmetry_2
F0 Sb0 1.865900 1_555
F1 Sb1 1.865900 1_555
F2 Sb0 1.864128 1_465
F3 Sb1 1.947710 1_555
F3 Pd0 2.177631 1_555
F4 Sb0 1.947710 1_555
F4 Pd0 2.177631 1_555
F5 Sb1 1.960163 1_645
F5 Pd0 2.179270 1_555
F6 Sb0 1.960163 1_465
F6 Pd0 2.179270 1_555
F7 Sb1 1.939294 1_545
F7 Pd0 2.179543 1_555
F8 Sb0 1.939294 1_565
F8 Pd0 2.179543 1_555
F9 Sb1 1.855476 1_555
F10 Sb0 1.855476 1_555
F11 Sb1 1.864128 1_645
