# generated using pymatgen
data_SrLi3TcN3
_symmetry_space_group_name_H-M   'P 1'
_cell_length_a   7.25913356
_cell_length_b   7.25913323
_cell_length_c   7.25913322
_cell_angle_alpha   47.82572379
_cell_angle_beta   47.82572370
_cell_angle_gamma   47.82573139
_symmetry_Int_Tables_number   1
_chemical_formula_structural   SrLi3TcN3
_chemical_formula_sum   'Sr2 Li6 Tc2 N6'
_cell_volume   192.39919163
_cell_formula_units_Z   2
loop_
 _symmetry_equiv_pos_site_id
 _symmetry_equiv_pos_as_xyz
  1  'x, y, z'
loop_
 _atom_site_type_symbol
 _atom_site_label
 _atom_site_symmetry_multiplicity
 _atom_site_fract_x
 _atom_site_fract_y
 _atom_site_fract_z
 _atom_site_occupancy
  Sr  Sr0  1  0.33730734  0.33730734  0.33730734  1
  Sr  Sr1  1  0.66269266  0.66269266  0.66269266  1
  Li  Li0  1  0.47516405  0.23620601  0.89383990  1
  Li  Li1  1  0.89383990  0.47516405  0.23620601  1
  Li  Li2  1  0.76379399  0.10616010  0.52483595  1
  Li  Li3  1  0.23620601  0.89383990  0.47516405  1
  Li  Li4  1  0.10616010  0.52483595  0.76379399  1
  Li  Li5  1  0.52483595  0.76379399  0.10616010  1
  Tc  Tc0  1  0.06070601  0.06070601  0.06070601  1
  Tc  Tc1  1  0.93929399  0.93929399  0.93929399  1
  N  N0  1  0.60637576  0.90499526  0.21182197  1
  N  N1  1  0.78817803  0.39362424  0.09500474  1
  N  N2  1  0.39362424  0.09500474  0.78817803  1
  N  N3  1  0.09500474  0.78817803  0.39362424  1
  N  N4  1  0.21182197  0.60637576  0.90499526  1
  N  N5  1  0.90499526  0.21182197  0.60637576  1
loop_
_geom_bond_atom_site_label_1
_geom_bond_atom_site_label_2
_geom_bond_distance
_geom_bond_site_symmetry_2
Li0 N4 2.016992 1_555
Li0 N0 2.107388 1_546
Li0 N2 2.114061 1_555
Li0 N5 2.265604 1_555
Li1 N5 2.016992 1_555
Li1 N4 2.107388 1_654
Li1 N1 2.114061 1_555
Li1 N0 2.265604 1_555
Li2 N2 2.016992 1_555
Li2 N3 2.107388 1_645
Li2 N5 2.114061 1_555
Li2 N1 2.265604 1_555
Li3 N0 2.016992 1_555
Li3 N5 2.107388 1_465
Li3 N3 2.114061 1_555
Li3 N4 2.265604 1_555
Li4 N3 2.016992 1_555
Li4 N1 2.107388 1_456
Li4 N4 2.114061 1_555
Li4 N2 2.265604 1_555
Li5 N1 2.016992 1_555
Li5 N2 2.107388 1_564
Li5 N0 2.114061 1_555
Li5 N3 2.265604 1_555
N0 Tc1 1.882263 1_554
N0 Sr1 2.659700 1_555
N0 Sr0 2.777041 1_565
N1 Tc0 1.882263 1_655
N1 Sr0 2.659700 1_555
N1 Sr1 2.777041 1_554
N2 Tc0 1.882263 1_556
N2 Sr0 2.659700 1_555
N2 Sr1 2.777041 1_545
N3 Tc0 1.882263 1_565
N3 Sr0 2.659700 1_555
N3 Sr1 2.777041 1_455
N4 Tc1 1.882263 1_455
N4 Sr1 2.659700 1_555
N4 Sr0 2.777041 1_556
N5 Tc1 1.882263 1_545
N5 Sr1 2.659700 1_555
N5 Sr0 2.777041 1_655
