# generated using pymatgen
data_Hf3Ti3BI12
_symmetry_space_group_name_H-M   'P 1'
_cell_length_a   9.10054969
_cell_length_b   9.10540513
_cell_length_c   9.14357328
_cell_angle_alpha   107.07262118
_cell_angle_beta   106.86884057
_cell_angle_gamma   106.93943131
_symmetry_Int_Tables_number   1
_chemical_formula_structural   Hf3Ti3BI12
_chemical_formula_sum   'Hf3 Ti3 B1 I12'
_cell_volume   631.67938545
_cell_formula_units_Z   1
loop_
 _symmetry_equiv_pos_site_id
 _symmetry_equiv_pos_as_xyz
  1  'x, y, z'
loop_
 _atom_site_type_symbol
 _atom_site_label
 _atom_site_symmetry_multiplicity
 _atom_site_fract_x
 _atom_site_fract_y
 _atom_site_fract_z
 _atom_site_occupancy
  Hf  Hf0  1  0.91289256  0.97047321  0.72648666  1
  Hf  Hf1  1  0.72382757  0.90983972  0.97296319  1
  Hf  Hf2  1  0.03088943  0.27728171  0.09170219  1
  Ti  Ti0  1  0.97764152  0.74655238  0.91976432  1
  Ti  Ti1  1  0.25488637  0.08147023  0.02842774  1
  Ti  Ti2  1  0.08440361  0.02314879  0.25273372  1
  B  B0  1  0.99129689  0.00395789  0.99572118  1
  I  I0  1  0.92374946  0.30262585  0.77298603  1
  I  I1  1  0.69889665  0.22901495  0.08097983  1
  I  I2  1  0.42941225  0.13431235  0.35768539  1
  I  I3  1  0.86428328  0.63216611  0.56875029  1
  I  I4  1  0.23150080  0.07857397  0.70858803  1
  I  I5  1  0.63970412  0.56106572  0.85920290  1
  I  I6  1  0.36911998  0.43386566  0.14175746  1
  I  I7  1  0.78423010  0.92266131  0.30648860  1
  I  I8  1  0.14166172  0.35857386  0.43916196  1
  I  I9  1  0.55681935  0.85640855  0.63128296  1
  I  I10  1  0.30663642  0.78218804  0.92756102  1
  I  I11  1  0.07814889  0.69582271  0.21775554  1
loop_
_geom_bond_atom_site_label_1
_geom_bond_atom_site_label_2
_geom_bond_distance
_geom_bond_site_symmetry_2
Hf0 I3 2.826982 1_555
Hf0 I4 2.847752 1_665
Hf0 I9 2.864946 1_555
Hf0 I0 2.895496 1_565
Hf0 I7 3.524195 1_555
Hf1 I5 2.816881 1_555
Hf1 I9 2.868461 1_555
Hf1 I1 2.881313 1_566
Hf1 I7 2.897688 1_556
Hf1 I10 3.488330 1_555
Hf2 I6 2.821129 1_555
Hf2 I8 2.825466 1_555
Hf2 I1 2.891392 1_455
Hf2 I0 2.893692 1_454
Hf2 I11 3.495012 1_555
B0 Ti2 2.188156 1_656
B0 Ti1 2.194313 1_656
B0 Ti0 2.194426 1_545
B0 Hf0 2.252878 1_545
B0 Hf1 2.255754 1_545
B0 Hf2 2.259483 1_656
I2 Ti2 2.762729 1_555
I2 Ti1 2.783316 1_555
I3 Ti0 2.817724 1_555
I4 Ti1 2.861606 1_556
I5 Ti0 2.837790 1_555
I6 Ti1 2.815845 1_555
I7 Ti2 2.850964 1_665
I8 Ti2 2.829393 1_555
I10 Ti1 2.832439 1_566
I10 Ti0 2.893275 1_455
I11 Ti0 2.830691 1_454
I11 Ti2 2.884338 1_565
