# generated using pymatgen
data_Na2Hf6MnBr15
_symmetry_space_group_name_H-M   'P 1'
_cell_length_a   9.58166550
_cell_length_b   9.58172315
_cell_length_c   9.58166570
_cell_angle_alpha   108.29998753
_cell_angle_beta   108.29930663
_cell_angle_gamma   111.84041046
_symmetry_Int_Tables_number   1
_chemical_formula_structural   Na2Hf6MnBr15
_chemical_formula_sum   'Na2 Hf6 Mn1 Br15'
_cell_volume   676.30910868
_cell_formula_units_Z   1
loop_
 _symmetry_equiv_pos_site_id
 _symmetry_equiv_pos_as_xyz
  1  'x, y, z'
loop_
 _atom_site_type_symbol
 _atom_site_label
 _atom_site_symmetry_multiplicity
 _atom_site_fract_x
 _atom_site_fract_y
 _atom_site_fract_z
 _atom_site_occupancy
  Na  Na0  1  0.25000000  0.75000000  0.50000000  1
  Na  Na1  1  0.75000000  0.25000000  0.50000000  1
  Hf  Hf0  1  0.77478575  0.77478475  0.99999800  1
  Hf  Hf1  1  1.00000000  0.21213771  0.21213771  1
  Hf  Hf2  1  0.21214271  1.00000000  0.21214271  1
  Hf  Hf3  1  0.22521425  0.22521525  0.00000200  1
  Hf  Hf4  1  0.00000000  0.78786229  0.78786229  1
  Hf  Hf5  1  0.78785729  0.00000000  0.78785729  1
  Mn  Mn0  1  0.00000000  0.00000000  0.00000000  1
  Br  Br0  1  0.50000000  0.50000000  0.00000000  1
  Br  Br1  1  0.00000000  0.50000000  0.50000000  1
  Br  Br2  1  0.50000000  0.00000000  0.50000000  1
  Br  Br3  1  0.23825983  0.23825983  0.47652065  1
  Br  Br4  1  0.98909417  0.74974327  0.23935190  1
  Br  Br5  1  0.74974527  0.98909317  0.23934790  1
  Br  Br6  1  0.23826083  0.76174017  1.00000000  1
  Br  Br7  1  0.48960664  0.25025673  0.23934990  1
  Br  Br8  1  0.25025473  0.01090683  0.76065210  1
  Br  Br9  1  0.76173917  0.23825983  0.00000000  1
  Br  Br10  1  0.01090583  0.25025673  0.76064810  1
  Br  Br11  1  0.25025673  0.48960664  0.23934990  1
  Br  Br12  1  0.76174017  0.76174017  0.52347935  1
  Br  Br13  1  0.51039336  0.74974327  0.76065010  1
  Br  Br14  1  0.74974327  0.51039336  0.76065010  1
loop_
_geom_bond_atom_site_label_1
_geom_bond_atom_site_label_2
_geom_bond_distance
_geom_bond_site_symmetry_2
Hf0 Mn0 2.418378 1_666
Hf1 Mn0 2.380892 1_655
Hf2 Mn0 2.380961 1_565
Hf3 Mn0 2.418378 1_555
Hf4 Mn0 2.380892 1_566
Hf5 Mn0 2.380961 1_656
Br0 Hf0 2.950695 1_554
Br0 Hf3 2.950695 1_555
Br1 Na1 2.684537 1_455
Br1 Na0 2.684537 1_555
Br1 Hf4 3.230774 1_555
Br1 Hf1 3.230774 1_455
Br2 Na1 2.684537 1_555
Br2 Na0 2.684537 1_545
Br2 Hf5 3.230735 1_555
Br2 Hf2 3.230735 1_545
Br3 Hf2 2.690093 1_545
Br3 Hf1 2.690113 1_455
Br4 Hf0 2.699767 1_554
Br4 Hf2 2.704594 1_655
Br4 Na0 2.925362 1_655
Br5 Hf0 2.699720 1_554
Br5 Hf1 2.704566 1_565
Br5 Na1 2.925386 1_565
Br6 Hf2 2.690093 1_556
Br6 Hf4 2.690113 1_555
Br7 Hf3 2.699738 1_555
Br7 Hf2 2.704587 1_545
Br7 Na1 2.925379 1_555
Br8 Hf3 2.699720 1_556
Br8 Hf4 2.704566 1_545
Br8 Na0 2.925386 1_545
Br9 Hf5 2.690093 1_554
Br9 Hf1 2.690113 1_555
Br10 Hf3 2.699767 1_556
Br10 Hf5 2.704594 1_455
Br10 Na1 2.925362 1_455
Br11 Hf3 2.699716 1_555
Br11 Hf1 2.704596 1_455
Br11 Na0 2.925364 1_555
Br12 Hf5 2.690093 1_565
Br12 Hf4 2.690113 1_655
Br13 Hf0 2.699738 1_555
Br13 Hf5 2.704587 1_565
Br13 Na0 2.925379 1_555
Br14 Hf0 2.699716 1_555
Br14 Hf4 2.704596 1_655
Br14 Na1 2.925364 1_555
