# generated using pymatgen
data_Sr6AgSn8As
_symmetry_space_group_name_H-M   'P 1'
_cell_length_a   8.90852670
_cell_length_b   8.90852735
_cell_length_c   8.90852731
_cell_angle_alpha   120.46143765
_cell_angle_beta   120.46144379
_cell_angle_gamma   89.20260933
_symmetry_Int_Tables_number   1
_chemical_formula_structural   Sr6AgSn8As
_chemical_formula_sum   'Sr6 Ag1 Sn8 As1'
_cell_volume   496.38359736
_cell_formula_units_Z   1
loop_
 _symmetry_equiv_pos_site_id
 _symmetry_equiv_pos_as_xyz
  1  'x, y, z'
loop_
 _atom_site_type_symbol
 _atom_site_label
 _atom_site_symmetry_multiplicity
 _atom_site_fract_x
 _atom_site_fract_y
 _atom_site_fract_z
 _atom_site_occupancy
  Sr  Sr0  1  0.23785838  0.23785838  1.00000000  1
  Sr  Sr1  1  0.76214162  0.76214162  0.00000000  1
  Sr  Sr2  1  0.15165724  0.67897434  0.83063358  1
  Sr  Sr3  1  0.84834276  0.32102566  0.16936642  1
  Sr  Sr4  1  0.67897434  0.84834276  0.52731710  1
  Sr  Sr5  1  0.32102566  0.15165724  0.47268290  1
  Ag  Ag0  1  0.50000000  0.50000000  0.00000000  1
  Sn  Sn0  1  0.82655202  0.33797178  0.78502712  1
  Sn  Sn1  1  0.17344798  0.66202822  0.21497288  1
  Sn  Sn2  1  0.55294465  0.04152590  0.21497288  1
  Sn  Sn3  1  0.33797178  0.55294465  0.51141975  1
  Sn  Sn4  1  0.95847410  0.17344798  0.51141975  1
  Sn  Sn5  1  0.44705535  0.95847410  0.78502712  1
  Sn  Sn6  1  0.66202822  0.44705535  0.48858025  1
  Sn  Sn7  1  0.04152590  0.82655202  0.48858025  1
  As  As0  1  0.00000000  0.00000000  0.00000000  1
loop_
_geom_bond_atom_site_label_1
_geom_bond_atom_site_label_2
_geom_bond_distance
_geom_bond_site_symmetry_2
Ag0 Sr1 3.325508 1_555
Ag0 Sr0 3.325508 1_554
Ag0 Sr3 3.464486 1_555
Ag0 Sr2 3.464486 1_554
Ag0 Sr5 3.464490 1_554
Ag0 Sr4 3.464490 1_555
Sn0 Sn4 2.950380 1_555
Sn0 Sn6 2.950387 1_555
Sn0 Sn1 3.096836 1_656
Sn0 Sr3 3.410704 1_556
Sn0 Sr1 3.462964 1_556
Sn0 Sr0 3.523475 1_655
Sn0 Sr4 3.601531 1_545
Sn0 Sr5 3.687642 1_555
Sn1 Sn7 2.950380 1_555
Sn1 Sn3 2.950387 1_555
Sn1 Sr2 3.410704 1_554
Sn1 Sr0 3.462964 1_554
Sn1 Sr1 3.523475 1_455
Sn1 Sr5 3.601531 1_565
Sn1 Sr4 3.687642 1_555
Sn2 Sn6 2.950380 1_555
Sn2 Sn4 2.950380 1_555
Sn2 Sn5 3.096829 1_544
Sn2 Sr2 3.410726 1_544
Sn2 Sr1 3.462968 1_545
Sn2 Sr0 3.523468 1_554
Sn2 Sr5 3.601531 1_555
Sn2 Sr4 3.687650 1_545
Sn3 Sn5 2.950380 1_555
Sn3 Sn6 3.096836 1_555
Sn3 Sr5 3.410722 1_555
Sn3 Sr1 3.462963 1_556
Sn3 Sr0 3.523475 1_554
Sn3 Sr3 3.601529 1_455
Sn3 Sr2 3.687658 1_555
Sn4 Sn7 3.096841 1_645
Sn4 Sr5 3.410731 1_655
Sn4 Sr0 3.462964 1_655
Sn4 Sr1 3.523476 1_545
Sn4 Sr3 3.601548 1_555
Sn4 Sr2 3.687642 1_655
Sn5 Sn7 2.950380 1_555
Sn5 Sr3 3.410726 1_566
Sn5 Sr0 3.462968 1_565
Sn5 Sr1 3.523468 1_556
Sn5 Sr4 3.601531 1_555
Sn5 Sr5 3.687650 1_565
Sn6 Sr4 3.410722 1_555
Sn6 Sr0 3.462963 1_554
Sn6 Sr1 3.523475 1_556
Sn6 Sr2 3.601529 1_655
Sn6 Sr3 3.687658 1_555
Sn7 Sr4 3.410731 1_455
Sn7 Sr1 3.462964 1_455
Sn7 Sr0 3.523476 1_565
Sn7 Sr2 3.601548 1_555
Sn7 Sr3 3.687642 1_455
As0 Sr0 3.017453 1_554
As0 Sr1 3.017453 1_445
As0 Sr3 3.140844 1_455
As0 Sr2 3.140844 1_544
As0 Sr4 3.140847 1_444
As0 Sr5 3.140847 1_555
