# generated using pymatgen
data_TiNb9(GaSb2)2
_symmetry_space_group_name_H-M   'P 1'
_cell_length_a   7.94185107
_cell_length_b   7.94197321
_cell_length_c   7.94185183
_cell_angle_alpha   96.12747436
_cell_angle_beta   96.12781409
_cell_angle_gamma   141.85950992
_symmetry_Int_Tables_number   1
_chemical_formula_structural   TiNb9(GaSb2)2
_chemical_formula_sum   'Ti1 Nb9 Ga2 Sb4'
_cell_volume   292.39042995
_cell_formula_units_Z   1
loop_
 _symmetry_equiv_pos_site_id
 _symmetry_equiv_pos_as_xyz
  1  'x, y, z'
loop_
 _atom_site_type_symbol
 _atom_site_label
 _atom_site_symmetry_multiplicity
 _atom_site_fract_x
 _atom_site_fract_y
 _atom_site_fract_z
 _atom_site_occupancy
  Ti  Ti0  1  0.24999400  0.75000000  0.49999400  1
  Nb  Nb0  1  0.74999988  0.25000000  0.49999988  1
  Nb  Nb1  1  0.78297301  0.92800541  0.70825656  1
  Nb  Nb2  1  0.92515461  0.21692084  0.14504567  1
  Nb  Nb3  1  0.07172409  0.77997161  0.85490553  1
  Nb  Nb4  1  0.22015807  0.07506277  0.29178003  1
  Nb  Nb5  1  0.57493492  0.72002839  0.29175248  1
  Nb  Nb6  1  0.42812483  0.28307916  0.70823476  1
  Nb  Nb7  1  0.28025115  0.57199459  0.85496760  1
  Nb  Nb8  1  0.71671825  0.42493723  0.14509630  1
  Ga  Ga0  1  0.75002416  0.75000000  0.00002416  1
  Ga  Ga1  1  0.24999312  0.25000000  0.99999312  1
  Sb  Sb0  1  0.32729933  0.82730802  0.16737750  1
  Sb  Sb1  1  0.84006849  0.67269198  0.49999131  1
  Sb  Sb2  1  0.17278629  0.34020559  0.50000239  1
  Sb  Sb3  1  0.65979580  0.15979441  0.83257870  1
loop_
_geom_bond_atom_site_label_1
_geom_bond_atom_site_label_2
_geom_bond_distance
_geom_bond_site_symmetry_2
Nb0 Ti0 2.594838 1_545
Nb0 Ti0 2.594838 1_655
Nb0 Sb3 2.829046 1_555
Nb0 Sb2 2.829060 1_655
Nb0 Sb0 2.829126 1_545
Nb0 Sb1 2.829132 1_555
Nb1 Sb1 2.818391 1_555
Nb1 Sb3 2.823386 1_565
Nb1 Sb2 3.011233 1_555
Nb1 Sb2 3.056747 1_665
Nb2 Sb3 2.818588 1_554
Nb2 Sb2 2.823372 1_655
Nb2 Sb0 3.012209 1_655
Nb2 Sb0 3.055633 1_545
Nb3 Sb0 2.818635 1_556
Nb3 Sb1 2.823143 1_455
Nb3 Sb3 3.012205 1_565
Nb3 Sb3 3.055682 1_455
Nb4 Sb2 2.818862 1_555
Nb4 Sb0 2.823110 1_545
Nb4 Sb1 3.013042 1_445
Nb4 Sb1 3.054508 1_555
Nb5 Sb1 2.818623 1_555
Nb5 Sb0 2.823147 1_555
Nb5 Sb2 3.012209 1_555
Nb5 Sb2 3.055685 1_665
Nb6 Sb2 2.818576 1_555
Nb6 Sb3 2.823358 1_555
Nb6 Sb1 3.012212 1_445
Nb6 Sb1 3.055637 1_555
Nb7 Sb0 2.818397 1_556
Nb7 Sb2 2.823384 1_555
Nb7 Sb3 3.011240 1_565
Nb7 Sb3 3.056749 1_455
Nb8 Sb3 2.818873 1_554
Nb8 Sb1 2.823108 1_555
Nb8 Sb0 3.013036 1_655
Nb8 Sb0 3.054506 1_545
Ga0 Ga1 2.594838 1_554
Ga0 Ga1 2.594838 1_664
Ga0 Nb5 2.764595 1_555
Ga0 Nb3 2.764599 1_654
Ga0 Nb6 2.765042 1_554
Ga0 Nb2 2.765046 1_565
Ga0 Nb7 2.771865 1_554
Ga0 Nb1 2.771865 1_554
Ga0 Nb4 2.772742 1_665
Ga0 Nb8 2.772752 1_555
Ga1 Nb4 2.764625 1_556
Ga1 Nb8 2.764634 1_556
Ga1 Nb1 2.764995 1_445
Ga1 Nb7 2.764995 1_555
Ga1 Nb6 2.772094 1_555
Ga1 Nb2 2.772101 1_456
Ga1 Nb5 2.772572 1_556
Ga1 Nb3 2.772574 1_545
Sb0 Ti0 2.798472 1_555
Sb1 Ti0 2.798480 1_655
Sb2 Ti0 2.798071 1_555
Sb3 Ti0 2.798059 1_545
