# generated using pymatgen
data_Y4CuRe2Ru5
_symmetry_space_group_name_H-M   'P 1'
_cell_length_a   5.33478922
_cell_length_b   5.09528951
_cell_length_c   8.93671636
_cell_angle_alpha   90.00000000
_cell_angle_beta   90.00000000
_cell_angle_gamma   118.52570068
_symmetry_Int_Tables_number   1
_chemical_formula_structural   Y4CuRe2Ru5
_chemical_formula_sum   'Y4 Cu1 Re2 Ru5'
_cell_volume   213.43064685
_cell_formula_units_Z   1
loop_
 _symmetry_equiv_pos_site_id
 _symmetry_equiv_pos_as_xyz
  1  'x, y, z'
loop_
 _atom_site_type_symbol
 _atom_site_label
 _atom_site_symmetry_multiplicity
 _atom_site_fract_x
 _atom_site_fract_y
 _atom_site_fract_z
 _atom_site_occupancy
  Y  Y0  1  0.33077793  0.66538946  0.43409176  1
  Y  Y1  1  0.66909632  0.33454766  0.56166968  1
  Y  Y2  1  0.66909632  0.33454766  0.93833032  1
  Y  Y3  1  0.33077793  0.66538946  0.06590824  1
  Cu  Cu0  1  0.34173050  0.17086525  0.25000000  1
  Re  Re0  1  0.15972285  0.33319173  0.75000000  1
  Re  Re1  1  0.15972285  0.82653111  0.75000000  1
  Ru  Ru0  1  0.84266819  0.66401565  0.25000000  1
  Ru  Ru1  1  0.64412265  0.82206132  0.75000000  1
  Ru  Ru2  1  0.00480715  0.00240457  0.00290333  1
  Ru  Ru3  1  0.84266819  0.17865454  0.25000000  1
  Ru  Ru4  1  0.00480715  0.00240457  0.49709667  1
loop_
_geom_bond_atom_site_label_1
_geom_bond_atom_site_label_2
_geom_bond_distance
_geom_bond_site_symmetry_2
Cu0 Ru3 2.653673 1_555
Cu0 Ru0 2.653678 1_555
Cu0 Ru0 2.681568 1_445
Cu0 Ru3 2.681572 1_455
Cu0 Ru4 2.714813 1_555
Cu0 Ru2 2.714813 1_555
Cu0 Y0 3.033104 1_545
Cu0 Y3 3.033104 1_545
Cu0 Y0 3.033108 1_555
Cu0 Y3 3.033108 1_555
Cu0 Y1 3.179992 1_555
Cu0 Y2 3.179992 1_554
Re0 Re1 2.513707 1_555
Re0 Re1 2.581583 1_545
Re0 Ru1 2.595124 1_555
Re0 Ru2 2.702136 1_556
Re0 Ru4 2.702136 1_555
Re0 Ru1 2.739816 1_445
Re0 Y2 3.114598 1_455
Re0 Y1 3.114598 1_455
Re0 Y3 3.192627 1_556
Re0 Y0 3.192627 1_555
Re0 Y2 3.193596 1_555
Re0 Y1 3.193596 1_555
Re1 Ru1 2.595124 1_555
Re1 Ru2 2.702141 1_566
Re1 Ru4 2.702141 1_565
Re1 Ru1 2.739815 1_455
Re1 Y2 3.114600 1_455
Re1 Y1 3.114600 1_455
Re1 Y3 3.192625 1_556
Re1 Y0 3.192625 1_555
Re1 Y2 3.193594 1_565
Re1 Y1 3.193594 1_565
Ru0 Ru3 2.473055 1_555
Ru0 Ru3 2.622234 1_565
Ru0 Ru4 2.678223 1_665
Ru0 Ru2 2.678223 1_665
Ru0 Y0 3.077314 1_655
Ru0 Y3 3.077314 1_655
Ru0 Y1 3.154174 1_555
Ru0 Y2 3.154174 1_554
Ru0 Y0 3.190975 1_555
Ru0 Y3 3.190975 1_555
Ru1 Ru2 2.822455 1_666
Ru1 Ru4 2.822455 1_665
Ru1 Y2 3.055627 1_565
Ru1 Y1 3.055627 1_565
Ru1 Y2 3.055631 1_555
Ru1 Y1 3.055631 1_555
Ru1 Y3 3.182362 1_556
Ru1 Y0 3.182362 1_555
Ru2 Ru3 2.678223 1_455
Ru2 Y3 3.023562 1_555
Ru2 Y3 3.023566 1_545
Ru2 Y2 3.049502 1_454
Ru2 Y2 3.049515 1_444
Ru2 Y2 3.166656 1_554
Ru2 Y3 3.209067 1_445
Ru3 Ru4 2.678223 1_655
Ru3 Y0 3.077313 1_655
Ru3 Y3 3.077313 1_655
Ru3 Y1 3.154168 1_555
Ru3 Y2 3.154168 1_554
Ru3 Y0 3.190978 1_545
Ru3 Y3 3.190978 1_545
Ru4 Y0 3.023562 1_555
Ru4 Y0 3.023566 1_545
Ru4 Y1 3.049502 1_455
Ru4 Y1 3.049515 1_445
Ru4 Y1 3.166656 1_555
Ru4 Y0 3.209067 1_445
