# generated using pymatgen
data_Hf6Al8Si8Os7
_symmetry_space_group_name_H-M   'P 1'
_cell_length_a   8.53510580
_cell_length_b   8.53510555
_cell_length_c   8.53510510
_cell_angle_alpha   60.00000173
_cell_angle_beta   60.00000272
_cell_angle_gamma   59.99999863
_symmetry_Int_Tables_number   1
_chemical_formula_structural   Hf6Al8Si8Os7
_chemical_formula_sum   'Hf6 Al8 Si8 Os7'
_cell_volume   439.65467010
_cell_formula_units_Z   1
loop_
 _symmetry_equiv_pos_site_id
 _symmetry_equiv_pos_as_xyz
  1  'x, y, z'
loop_
 _atom_site_type_symbol
 _atom_site_label
 _atom_site_symmetry_multiplicity
 _atom_site_fract_x
 _atom_site_fract_y
 _atom_site_fract_z
 _atom_site_occupancy
  Hf  Hf0  1  0.18964239  0.81035761  0.81035761  1
  Hf  Hf1  1  0.81035761  0.18964239  0.18964239  1
  Hf  Hf2  1  0.81035761  0.18964239  0.81035761  1
  Hf  Hf3  1  0.81035761  0.81035761  0.18964239  1
  Hf  Hf4  1  0.18964239  0.81035761  0.18964239  1
  Hf  Hf5  1  0.18964239  0.18964239  0.81035761  1
  Al  Al0  1  0.62229326  0.62229326  0.62229326  1
  Al  Al1  1  0.62229326  0.62229326  0.13312223  1
  Al  Al2  1  0.13312223  0.62229326  0.62229326  1
  Al  Al3  1  0.62229326  0.13312223  0.62229326  1
  Al  Al4  1  0.37770674  0.37770674  0.37770674  1
  Al  Al5  1  0.37770674  0.37770674  0.86687777  1
  Al  Al6  1  0.37770674  0.86687777  0.37770674  1
  Al  Al7  1  0.86687777  0.37770674  0.37770674  1
  Si  Si0  1  0.84483639  0.84483639  0.84483639  1
  Si  Si1  1  0.84483639  0.84483639  0.46548984  1
  Si  Si2  1  0.46548984  0.84483639  0.84483639  1
  Si  Si3  1  0.84483639  0.46548984  0.84483639  1
  Si  Si4  1  0.15516361  0.15516361  0.15516361  1
  Si  Si5  1  0.15516361  0.15516361  0.53451016  1
  Si  Si6  1  0.15516361  0.53451016  0.15516361  1
  Si  Si7  1  0.53451016  0.15516361  0.15516361  1
  Os  Os0  1  0.50000000  0.50000000  0.50000000  1
  Os  Os1  1  0.00000000  0.50000000  0.50000000  1
  Os  Os2  1  0.50000000  0.00000000  0.00000000  1
  Os  Os3  1  0.50000000  0.00000000  0.50000000  1
  Os  Os4  1  0.50000000  0.50000000  0.00000000  1
  Os  Os5  1  0.00000000  0.50000000  0.00000000  1
  Os  Os6  1  0.00000000  0.00000000  0.50000000  1
loop_
_geom_bond_atom_site_label_1
_geom_bond_atom_site_label_2
_geom_bond_distance
_geom_bond_site_symmetry_2
Hf0 Si2 2.681164 1_555
Hf0 Si6 2.681169 1_556
Hf0 Si5 2.681169 1_565
Hf0 Si0 2.681172 1_455
Hf1 Si7 2.681164 1_555
Hf1 Si3 2.681169 1_554
Hf1 Si1 2.681169 1_545
Hf1 Si4 2.681172 1_655
Hf2 Si3 2.681164 1_555
Hf2 Si7 2.681169 1_556
Hf2 Si5 2.681169 1_655
Hf2 Si0 2.681172 1_545
Hf3 Si1 2.681164 1_555
Hf3 Si7 2.681169 1_565
Hf3 Si6 2.681169 1_655
Hf3 Si0 2.681172 1_554
Hf4 Si6 2.681164 1_555
Hf4 Si2 2.681169 1_554
Hf4 Si1 2.681169 1_455
Hf4 Si4 2.681172 1_565
Hf5 Si5 2.681164 1_555
Hf5 Si2 2.681169 1_545
Hf5 Si3 2.681169 1_455
Hf5 Si4 2.681172 1_556
Al0 Os0 2.556743 1_555
Al0 Os4 2.632735 1_556
Al0 Os3 2.632735 1_565
Al0 Os1 2.632735 1_655
Al0 Si2 2.744174 1_555
Al0 Si3 2.744174 1_555
Al0 Si1 2.744174 1_555
Al0 Al7 2.952272 1_555
Al0 Al6 2.952272 1_555
Al0 Al5 2.952272 1_555
Al0 Hf2 3.083985 1_555
Al0 Hf3 3.083985 1_555
Al0 Hf0 3.083985 1_555
Al1 Os0 2.556729 1_555
Al1 Os2 2.632736 1_565
Al1 Os5 2.632736 1_655
Al1 Os4 2.632749 1_555
Al1 Si0 2.744179 1_554
Al1 Si2 2.744194 1_554
Al1 Si3 2.744194 1_554
Al1 Al7 2.952248 1_555
Al1 Al6 2.952248 1_555
Al1 Al4 2.952272 1_555
Al1 Hf3 3.083973 1_555
Al1 Hf1 3.083988 1_555
Al1 Hf4 3.083988 1_555
Al2 Os0 2.556729 1_555
Al2 Os5 2.632736 1_556
Al2 Os6 2.632736 1_565
Al2 Os1 2.632749 1_555
Al2 Si0 2.744179 1_455
Al2 Si1 2.744194 1_455
Al2 Si3 2.744194 1_455
Al2 Al5 2.952248 1_555
Al2 Al6 2.952248 1_555
Al2 Al4 2.952272 1_555
Al2 Hf0 3.083973 1_555
Al2 Hf4 3.083988 1_555
Al2 Hf5 3.083988 1_555
Al3 Os0 2.556729 1_555
Al3 Os2 2.632736 1_556
Al3 Os6 2.632736 1_655
Al3 Os3 2.632749 1_555
Al3 Si0 2.744179 1_545
Al3 Si1 2.744194 1_545
Al3 Si2 2.744194 1_545
Al3 Al5 2.952248 1_555
Al3 Al7 2.952248 1_555
Al3 Al4 2.952272 1_555
Al3 Hf2 3.083973 1_555
Al3 Hf1 3.083988 1_555
Al3 Hf5 3.083988 1_555
Al4 Os0 2.556743 1_555
Al4 Os4 2.632735 1_555
Al4 Os3 2.632735 1_555
Al4 Os1 2.632735 1_555
Al4 Si7 2.744174 1_555
Al4 Si6 2.744174 1_555
Al4 Si5 2.744174 1_555
Al4 Hf4 3.083985 1_555
Al4 Hf5 3.083985 1_555
Al4 Hf1 3.083985 1_555
Al5 Os0 2.556729 1_555
Al5 Os2 2.632736 1_556
Al5 Os5 2.632736 1_556
Al5 Os4 2.632749 1_556
Al5 Si4 2.744179 1_556
Al5 Si7 2.744194 1_556
Al5 Si6 2.744194 1_556
Al5 Hf5 3.083973 1_555
Al5 Hf0 3.083988 1_555
Al5 Hf2 3.083988 1_555
Al6 Os0 2.556729 1_555
Al6 Os2 2.632736 1_565
Al6 Os6 2.632736 1_565
Al6 Os3 2.632749 1_565
Al6 Si4 2.744179 1_565
Al6 Si5 2.744194 1_565
Al6 Si7 2.744194 1_565
Al6 Hf4 3.083973 1_555
Al6 Hf0 3.083988 1_555
Al6 Hf3 3.083988 1_555
Al7 Os0 2.556729 1_555
Al7 Os5 2.632736 1_655
Al7 Os6 2.632736 1_655
Al7 Os1 2.632749 1_655
Al7 Si4 2.744179 1_655
Al7 Si5 2.744194 1_655
Al7 Si6 2.744194 1_655
Al7 Hf1 3.083973 1_555
Al7 Hf2 3.083988 1_555
Al7 Hf3 3.083988 1_555
Os1 Si3 2.475580 1_455
Os1 Si6 2.475580 1_555
Os1 Si1 2.475580 1_455
Os1 Si5 2.475580 1_555
Os2 Si0 2.475582 1_544
Os2 Si4 2.475582 1_555
Os2 Si7 2.475587 1_555
Os2 Si2 2.475587 1_544
Os3 Si2 2.475580 1_545
Os3 Si7 2.475580 1_555
Os3 Si1 2.475580 1_545
Os3 Si5 2.475580 1_555
Os4 Si2 2.475580 1_554
Os4 Si7 2.475580 1_555
Os4 Si3 2.475580 1_554
Os4 Si6 2.475580 1_555
Os5 Si4 2.475582 1_555
Os5 Si0 2.475582 1_454
Os5 Si6 2.475587 1_555
Os5 Si3 2.475587 1_454
Os6 Si0 2.475582 1_445
Os6 Si4 2.475582 1_555
Os6 Si5 2.475587 1_555
Os6 Si1 2.475587 1_445
