# generated using pymatgen
data_CsTc6Se7
_symmetry_space_group_name_H-M   'P 1'
_cell_length_a   9.73231593
_cell_length_b   9.73231603
_cell_length_c   9.73231531
_cell_angle_alpha   60.98736389
_cell_angle_beta   60.98736520
_cell_angle_gamma   60.98736218
_symmetry_Int_Tables_number   1
_chemical_formula_structural   CsTc6Se7
_chemical_formula_sum   'Cs2 Tc12 Se14'
_cell_volume   666.32691648
_cell_formula_units_Z   2
loop_
 _symmetry_equiv_pos_site_id
 _symmetry_equiv_pos_as_xyz
  1  'x, y, z'
loop_
 _atom_site_type_symbol
 _atom_site_label
 _atom_site_symmetry_multiplicity
 _atom_site_fract_x
 _atom_site_fract_y
 _atom_site_fract_z
 _atom_site_occupancy
  Cs  Cs0  1  0.38100986  0.38100986  0.38100986  1
  Cs  Cs1  1  0.61899014  0.61899014  0.61899014  1
  Tc  Tc0  1  0.30282015  0.12619280  0.99533496  1
  Tc  Tc1  1  0.19347832  0.88699557  0.06086202  1
  Tc  Tc2  1  0.88699557  0.06086202  0.19347832  1
  Tc  Tc3  1  0.93913798  0.80652168  0.11300443  1
  Tc  Tc4  1  0.80652168  0.11300443  0.93913798  1
  Tc  Tc5  1  0.11300443  0.93913798  0.80652168  1
  Tc  Tc6  1  0.99533496  0.30282015  0.12619280  1
  Tc  Tc7  1  0.87380720  0.00466504  0.69717985  1
  Tc  Tc8  1  0.12619280  0.99533496  0.30282015  1
  Tc  Tc9  1  0.00466504  0.69717985  0.87380720  1
  Tc  Tc10  1  0.69717985  0.87380720  0.00466504  1
  Tc  Tc11  1  0.06086202  0.19347832  0.88699557  1
  Se  Se0  1  0.98456921  0.23662323  0.64632494  1
  Se  Se1  1  0.23662323  0.64632494  0.98456921  1
  Se  Se2  1  0.64632494  0.98456921  0.23662323  1
  Se  Se3  1  0.01543079  0.76337677  0.35367506  1
  Se  Se4  1  0.76337677  0.35367506  0.01543079  1
  Se  Se5  1  0.35367506  0.01543079  0.76337677  1
  Se  Se6  1  0.16813534  0.41466146  0.81944207  1
  Se  Se7  1  0.41466146  0.81944207  0.16813534  1
  Se  Se8  1  0.81944207  0.16813534  0.41466146  1
  Se  Se9  1  0.83186466  0.58533854  0.18055793  1
  Se  Se10  1  0.58533854  0.18055793  0.83186466  1
  Se  Se11  1  0.18055793  0.83186466  0.58533854  1
  Se  Se12  1  0.77789559  0.77789559  0.77789559  1
  Se  Se13  1  0.22210441  0.22210441  0.22210441  1
loop_
_geom_bond_atom_site_label_1
_geom_bond_atom_site_label_2
_geom_bond_distance
_geom_bond_site_symmetry_2
Cs0 Se5 3.700355 1_555
Cs0 Se3 3.700355 1_555
Cs0 Se4 3.700355 1_555
Cs0 Se13 3.759666 1_555
Cs0 Se6 3.837815 1_555
Cs0 Se8 3.837815 1_555
Cs0 Se7 3.837815 1_555
Cs0 Se1 3.950204 1_554
Cs0 Se2 3.950204 1_545
Cs0 Se0 3.950205 1_455
Cs1 Se2 3.700355 1_555
Cs1 Se0 3.700355 1_555
Cs1 Se1 3.700355 1_555
Cs1 Se12 3.759666 1_555
Cs1 Se9 3.837815 1_555
Cs1 Se11 3.837815 1_555
Cs1 Se10 3.837815 1_555
Cs1 Se4 3.950204 1_556
Cs1 Se5 3.950204 1_565
Cs1 Se3 3.950205 1_655
Se0 Tc5 2.525261 1_645
Se0 Tc4 2.545136 1_555
Se0 Tc11 2.577685 1_655
Se0 Tc7 2.694891 1_555
Se1 Tc3 2.525261 1_456
Se1 Tc5 2.545136 1_555
Se1 Tc1 2.577685 1_556
Se1 Tc9 2.694891 1_555
Se2 Tc4 2.525261 1_564
Se2 Tc3 2.545136 1_555
Se2 Tc2 2.577685 1_565
Se2 Tc10 2.694891 1_555
Se3 Tc2 2.525261 1_465
Se3 Tc1 2.545136 1_555
Se3 Tc3 2.577685 1_455
Se3 Tc8 2.694891 1_555
Se4 Tc11 2.525261 1_654
Se4 Tc2 2.545136 1_555
Se4 Tc4 2.577685 1_554
Se4 Tc6 2.694891 1_555
Se5 Tc1 2.525261 1_546
Se5 Tc11 2.545136 1_555
Se5 Tc5 2.577685 1_545
Se5 Tc0 2.694891 1_555
Se6 Tc11 2.509457 1_555
Se6 Tc0 2.544724 1_555
Se6 Tc6 2.584400 1_456
Se6 Tc9 2.592792 1_555
Se7 Tc1 2.509457 1_555
Se7 Tc8 2.544724 1_555
Se7 Tc0 2.584400 1_564
Se7 Tc10 2.592792 1_555
Se8 Tc2 2.509457 1_555
Se8 Tc6 2.544724 1_555
Se8 Tc8 2.584400 1_645
Se8 Tc7 2.592792 1_555
Se9 Tc3 2.509457 1_555
Se9 Tc10 2.544724 1_555
Se9 Tc9 2.584400 1_654
Se9 Tc6 2.592792 1_555
Se10 Tc4 2.509457 1_555
Se10 Tc7 2.544724 1_555
Se10 Tc10 2.584400 1_546
Se10 Tc0 2.592792 1_555
Se11 Tc5 2.509457 1_555
Se11 Tc9 2.544724 1_555
Se11 Tc7 2.584400 1_465
Se11 Tc8 2.592792 1_555
Se12 Tc10 2.442243 1_556
Se12 Tc9 2.442243 1_655
Se12 Tc7 2.442243 1_565
Se13 Tc0 2.442243 1_554
Se13 Tc6 2.442243 1_455
Se13 Tc8 2.442243 1_545
