# generated using pymatgen
data_Mn(WCl5)2
_symmetry_space_group_name_H-M   'P 1'
_cell_length_a   9.01752737
_cell_length_b   9.01752661
_cell_length_c   12.26743663
_cell_angle_alpha   86.70089985
_cell_angle_beta   86.70090007
_cell_angle_gamma   139.54575729
_symmetry_Int_Tables_number   1
_chemical_formula_structural   Mn(WCl5)2
_chemical_formula_sum   'Mn2 W4 Cl20'
_cell_volume   638.21310230
_cell_formula_units_Z   2
loop_
 _symmetry_equiv_pos_site_id
 _symmetry_equiv_pos_as_xyz
  1  'x, y, z'
loop_
 _atom_site_type_symbol
 _atom_site_label
 _atom_site_symmetry_multiplicity
 _atom_site_fract_x
 _atom_site_fract_y
 _atom_site_fract_z
 _atom_site_occupancy
  Mn  Mn0  1  0.05648114  0.94351886  0.75000000  1
  Mn  Mn1  1  0.94351886  0.05648114  0.25000000  1
  W  W0  1  0.42826816  0.57173184  0.75000000  1
  W  W1  1  0.57173184  0.42826816  0.25000000  1
  W  W2  1  0.27247267  0.72752733  0.75000000  1
  W  W3  1  0.72752733  0.27247267  0.25000000  1
  Cl  Cl0  1  0.77890140  0.48025810  0.38536308  1
  Cl  Cl1  1  0.51974190  0.22109860  0.11463692  1
  Cl  Cl2  1  0.22109860  0.51974190  0.61463692  1
  Cl  Cl3  1  0.48025810  0.77890140  0.88536308  1
  Cl  Cl4  1  0.90014437  0.78729445  0.13836952  1
  Cl  Cl5  1  0.21270555  0.09985563  0.36163048  1
  Cl  Cl6  1  0.09985563  0.21270555  0.86163048  1
  Cl  Cl7  1  0.78729445  0.90014437  0.63836952  1
  Cl  Cl8  1  0.07946825  0.59350203  0.14430881  1
  Cl  Cl9  1  0.40649797  0.92053175  0.35569119  1
  Cl  Cl10  1  0.92053175  0.40649797  0.85569119  1
  Cl  Cl11  1  0.59350203  0.07946825  0.64430881  1
  Cl  Cl12  1  0.59207631  0.66274472  0.35914547  1
  Cl  Cl13  1  0.33725528  0.40792369  0.14085453  1
  Cl  Cl14  1  0.40792369  0.33725528  0.64085453  1
  Cl  Cl15  1  0.66274472  0.59207631  0.85914647  1
  Cl  Cl16  1  0.94642839  0.27370079  0.36484340  1
  Cl  Cl17  1  0.72629921  0.05357161  0.13515660  1
  Cl  Cl18  1  0.05357161  0.72629921  0.63515660  1
  Cl  Cl19  1  0.27370079  0.94642839  0.86484340  1
loop_
_geom_bond_atom_site_label_1
_geom_bond_atom_site_label_2
_geom_bond_distance
_geom_bond_site_symmetry_2
Cl0 W1 2.362420 1_555
Cl0 W3 2.368229 1_555
Cl1 W1 2.362420 1_555
Cl1 W3 2.368229 1_555
Cl2 W0 2.362420 1_555
Cl2 W2 2.368229 1_555
Cl3 W0 2.362420 1_555
Cl3 W2 2.368229 1_555
Cl4 W1 2.357732 1_555
Cl4 Mn1 2.630572 1_565
Cl5 W1 2.357732 1_555
Cl5 Mn1 2.630573 1_455
Cl6 W0 2.357732 1_555
Cl6 Mn0 2.630572 1_545
Cl7 W0 2.357732 1_555
Cl7 Mn0 2.630573 1_655
Cl8 W3 2.290436 1_455
Cl9 W3 2.290436 1_565
Cl10 W2 2.290436 1_655
Cl11 W2 2.290436 1_545
Cl12 W1 2.461884 1_555
Cl12 Mn1 2.506566 1_565
Cl13 W1 2.461885 1_555
Cl13 Mn1 2.506566 1_455
Cl14 W0 2.461884 1_555
Cl14 Mn0 2.506566 1_545
Cl15 W0 2.461892 1_555
Cl15 Mn0 2.506571 1_655
Cl16 Mn1 2.462925 1_555
Cl16 W3 2.483950 1_555
Cl17 Mn1 2.462925 1_555
Cl17 W3 2.483950 1_555
Cl18 Mn0 2.462925 1_555
Cl18 W2 2.483950 1_555
Cl19 Mn0 2.462925 1_555
Cl19 W2 2.483950 1_555
