# generated using pymatgen
data_NbRe5As14
_symmetry_space_group_name_H-M   'P 1'
_cell_length_a   7.64327687
_cell_length_b   7.64327689
_cell_length_c   7.64327656
_cell_angle_alpha   109.20872961
_cell_angle_beta   109.99747750
_cell_angle_gamma   109.20873650
_symmetry_Int_Tables_number   1
_chemical_formula_structural   NbRe5As14
_chemical_formula_sum   'Nb1 Re5 As14'
_cell_volume   343.70779170
_cell_formula_units_Z   1
loop_
 _symmetry_equiv_pos_site_id
 _symmetry_equiv_pos_as_xyz
  1  'x, y, z'
loop_
 _atom_site_type_symbol
 _atom_site_label
 _atom_site_symmetry_multiplicity
 _atom_site_fract_x
 _atom_site_fract_y
 _atom_site_fract_z
 _atom_site_occupancy
  Nb  Nb0  1  0.34158075  0.00000000  0.34158075  1
  Re  Re0  1  0.00000309  0.34051036  0.34051445  1
  Re  Re1  1  0.00000309  0.65948964  0.65949273  1
  Re  Re2  1  0.34051445  0.34051036  0.00000309  1
  Re  Re3  1  0.65949273  0.65948964  0.00000309  1
  Re  Re4  1  0.66722359  1.00000000  0.66722359  1
  As  As0  1  0.75096241  0.50000000  0.25096241  1
  As  As1  1  0.50008336  0.74699710  0.24707946  1
  As  As2  1  0.50008336  0.25300290  0.75308626  1
  As  As3  1  0.75308626  0.25300290  0.50008336  1
  As  As4  1  0.24707946  0.74699710  0.50008336  1
  As  As5  1  0.25096241  0.50000000  0.75096241  1
  As  As6  1  0.99637714  0.00000000  0.33021075  1
  As  As7  1  0.66810702  0.00000000  0.99976910  1
  As  As8  1  0.99637714  0.66616639  0.99637714  1
  As  As9  1  0.33021075  0.33383361  0.33021075  1
  As  As10  1  0.99976910  0.33166207  0.99976910  1
  As  As11  1  0.66810702  0.66833793  0.66810702  1
  As  As12  1  0.33021075  0.00000000  0.99637714  1
  As  As13  1  0.99976910  1.00000000  0.66810702  1
loop_
_geom_bond_atom_site_label_1
_geom_bond_atom_site_label_2
_geom_bond_distance
_geom_bond_site_symmetry_2
Nb0 Re4 2.855328 1_545
As0 Re1 2.600495 1_655
As0 Re0 2.600496 1_655
As0 Re2 2.614631 1_555
As0 Re3 2.614637 1_555
As1 Re3 2.603275 1_555
As1 Re2 2.603282 1_555
As1 Nb0 2.636253 1_565
As1 Re4 2.676959 1_555
As2 Re2 2.603275 1_556
As2 Re3 2.603282 1_556
As2 Nb0 2.636252 1_555
As2 Re4 2.676953 1_545
As3 Re0 2.603275 1_655
As3 Re1 2.603282 1_655
As3 Nb0 2.636252 1_555
As3 Re4 2.676953 1_545
As4 Re1 2.603275 1_555
As4 Re0 2.603282 1_555
As4 Nb0 2.636253 1_565
As4 Re4 2.676959 1_555
As5 Re3 2.600495 1_556
As5 Re2 2.600496 1_556
As5 Re0 2.614631 1_555
As5 Re1 2.614637 1_555
As6 Re0 2.568413 1_655
As6 Re3 2.568416 1_545
As6 Nb0 2.610045 1_655
As7 Re4 2.539436 1_545
As7 Re3 2.582311 1_546
As7 Re0 2.582313 1_656
As8 Re1 2.568416 1_655
As8 Re3 2.568416 1_556
As8 Nb0 2.610045 1_666
As9 Re2 2.568418 1_555
As9 Re0 2.568418 1_555
As9 Nb0 2.610045 1_555
As10 Re4 2.539436 1_545
As10 As8 2.573884 1_555
As10 Re0 2.582318 1_656
As10 Re2 2.582318 1_656
As11 Re4 2.539436 1_555
As11 As9 2.573884 1_555
As11 Re3 2.582310 1_556
As11 Re1 2.582311 1_655
As12 Re2 2.568413 1_556
As12 Re1 2.568416 1_545
As12 As7 2.573884 1_555
As12 Nb0 2.610045 1_556
As13 Re4 2.539436 1_555
As13 As6 2.573884 1_565
As13 Re1 2.582311 1_655
As13 Re2 2.582313 1_666
