# generated using pymatgen
data_Sc3(TiRe12)2
_symmetry_space_group_name_H-M   'P 1'
_cell_length_a   8.37238014
_cell_length_b   8.37237961
_cell_length_c   8.38788694
_cell_angle_alpha   109.48208628
_cell_angle_beta   109.48208338
_cell_angle_gamma   109.37443909
_symmetry_Int_Tables_number   1
_chemical_formula_structural   Sc3(TiRe12)2
_chemical_formula_sum   'Sc3 Ti2 Re24'
_cell_volume   453.03291953
_cell_formula_units_Z   1
loop_
 _symmetry_equiv_pos_site_id
 _symmetry_equiv_pos_as_xyz
  1  'x, y, z'
loop_
 _atom_site_type_symbol
 _atom_site_label
 _atom_site_symmetry_multiplicity
 _atom_site_fract_x
 _atom_site_fract_y
 _atom_site_fract_z
 _atom_site_occupancy
  Sc  Sc0  1  0.00080639  0.00080639  1.00000000  1
  Sc  Sc1  1  0.63211071  0.99991096  0.00000000  1
  Sc  Sc2  1  0.99991096  0.63211071  1.00000000  1
  Ti  Ti0  1  0.00038145  0.00038145  0.63146205  1
  Ti  Ti1  1  0.36891940  0.36891940  0.36853795  1
  Re  Re0  1  0.39552301  0.67595938  0.00000000  1
  Re  Re1  1  0.72076570  0.32353627  0.32494241  1
  Re  Re2  1  0.39582329  0.99859386  0.67505759  1
  Re  Re3  1  0.67595938  0.39552301  0.00000000  1
  Re  Re4  1  0.99859386  0.39582329  0.67505759  1
  Re  Re5  1  0.32353627  0.72076570  0.32494241  1
  Re  Re6  1  0.31789521  0.31789521  0.72022460  1
  Re  Re7  1  0.99860808  0.68191697  0.39971856  1
  Re  Re8  1  0.68191697  0.99860808  0.39971856  1
  Re  Re9  1  0.59767061  0.59767061  0.27977540  1
  Re  Re10  1  0.28219841  0.59888952  0.60028144  1
  Re  Re11  1  0.59888952  0.28219841  0.60028144  1
  Re  Re12  1  0.37607166  0.19286398  1.00000000  1
  Re  Re13  1  0.18548039  0.80864256  0.80710378  1
  Re  Re14  1  0.37837661  0.00153978  0.19289622  1
  Re  Re15  1  0.19286398  0.37607166  1.00000000  1
  Re  Re16  1  0.00153978  0.37837661  0.19289622  1
  Re  Re17  1  0.80864256  0.18548039  0.80710378  1
  Re  Re18  1  0.80804532  0.80804532  0.18637149  1
  Re  Re19  1  0.00217213  0.19456353  0.37783933  1
  Re  Re20  1  0.19456353  0.00217213  0.37783933  1
  Re  Re21  1  0.62167383  0.62167383  0.81362851  1
  Re  Re22  1  0.81672420  0.62433380  0.62216067  1
  Re  Re23  1  0.62433380  0.81672420  0.62216067  1
loop_
_geom_bond_atom_site_label_1
_geom_bond_atom_site_label_2
_geom_bond_distance
_geom_bond_site_symmetry_2
Sc0 Sc2 3.084381 1_445
Sc0 Sc1 3.084381 1_446
Sc0 Ti0 3.088883 1_555
Sc0 Ti1 3.088884 1_556
Re0 Re15 2.521189 1_554
Re0 Re13 2.746195 1_554
Re0 Re14 2.746202 1_565
Re0 Sc1 2.777653 1_555
Re0 Re6 2.813175 1_554
Re0 Re9 2.813175 1_555
Re0 Re21 2.882148 1_554
Re0 Re18 2.882148 1_555
Re0 Re5 2.914874 1_555
Re0 Re4 2.914874 1_454
Re0 Re10 2.930302 1_554
Re0 Re8 2.930302 1_555
Re0 Sc2 3.209169 1_454
Re1 Re22 2.517281 1_555
Re1 Re14 2.734057 1_555
Re1 Re12 2.761109 1_554
Re1 Sc1 2.776946 1_545
Re1 Re4 2.779434 1_555
Re1 Re7 2.819247 1_555
Re1 Re19 2.867755 1_655
Re1 Re16 2.885027 1_655
Re1 Re9 2.891774 1_555
Re1 Re11 2.892335 1_555
Re1 Re3 2.914874 1_555
Re1 Re8 2.930363 1_545
Re1 Ti1 3.213137 1_555
Re2 Re20 2.517276 1_565
Re2 Sc1 2.776946 1_556
Re2 Re5 2.779434 1_555
Re2 Re23 2.867763 1_555
Re2 Re6 2.891774 1_565
Re2 Re7 2.892335 1_455
Re2 Re3 2.914874 1_566
Re2 Ti0 3.213137 1_565
Re3 Sc2 2.777653 1_554
Re3 Re9 2.813175 1_555
Re3 Re6 2.813176 1_554
Re3 Re7 2.930302 1_555
Re3 Sc1 3.209169 1_545
Re4 Sc2 2.776946 1_555
Re4 Re6 2.891775 1_655
Re4 Re8 2.892335 1_545
Re4 Ti0 3.213136 1_655
Re5 Sc2 2.776946 1_454
Re5 Re8 2.819247 1_555
Re5 Re9 2.891775 1_555
Re5 Re7 2.930363 1_455
Re5 Ti1 3.213137 1_555
Re6 Ti0 2.712724 1_555
Re6 Ti1 3.259909 1_555
Re7 Ti0 2.717591 1_665
Re7 Re9 2.912196 1_555
Re7 Sc2 3.241925 1_554
Re8 Ti0 2.717591 1_665
Re8 Re9 2.912195 1_555
Re8 Sc1 3.241925 1_555
Re9 Ti1 2.712724 1_555
Re9 Ti0 3.259909 1_665
Re10 Re13 2.568589 1_555
Re10 Re21 2.708679 1_555
Re10 Ti1 2.717591 1_555
Re10 Re23 2.743194 1_555
Re10 Re4 2.819247 1_455
Re10 Re19 2.835621 1_555
Re10 Re7 2.856844 1_455
Re10 Re16 2.857334 1_555
Re10 Re5 2.892335 1_555
Re10 Re6 2.912195 1_555
Re10 Re2 2.930363 1_555
Re10 Sc1 3.241925 1_556
Re11 Re17 2.568589 1_555
Re11 Re21 2.708679 1_555
Re11 Ti1 2.717591 1_555
Re11 Re22 2.743193 1_555
Re11 Re2 2.819247 1_545
Re11 Re20 2.835621 1_555
Re11 Re8 2.856844 1_545
Re11 Re14 2.857334 1_555
Re11 Re6 2.912196 1_555
Re11 Re3 2.930302 1_556
Re11 Re4 2.930363 1_555
Re11 Sc2 3.241925 1_555
Re12 Re15 2.503326 1_555
Re12 Re3 2.521189 1_556
Re12 Re14 2.629184 1_556
Re12 Re13 2.629191 1_545
Re12 Re2 2.761108 1_545
Re12 Re6 2.838067 1_555
Re12 Re9 2.838067 1_556
Re12 Ti1 2.979069 1_556
Re12 Ti0 2.979069 1_555
Re12 Sc0 3.017444 1_555
Re12 Sc1 3.082641 1_546
Re13 Re22 2.523337 1_455
Re13 Re14 2.643037 1_566
Re13 Re2 2.734061 1_555
Re13 Re7 2.857336 1_455
Re13 Re4 2.885019 1_455
Re13 Ti0 2.975631 1_565
Re13 Sc2 2.994084 1_455
Re13 Sc0 3.029810 1_565
Re13 Sc1 3.070533 1_556
Re14 Re20 2.523337 1_555
Re14 Re8 2.568594 1_545
Re14 Re5 2.885026 1_545
Re14 Ti1 2.975623 1_555
Re14 Sc2 2.994088 1_444
Re14 Sc0 3.029805 1_554
Re14 Sc1 3.070534 1_545
Re15 Re16 2.629184 1_556
Re15 Re17 2.629191 1_455
Re15 Re5 2.761108 1_556
Re15 Re4 2.761108 1_455
Re15 Re6 2.838067 1_555
Re15 Re9 2.838067 1_556
Re15 Ti0 2.979069 1_555
Re15 Ti1 2.979069 1_556
Re15 Sc0 3.017443 1_555
Re15 Sc2 3.082641 1_455
Re16 Re19 2.523337 1_555
Re16 Re7 2.568594 1_455
Re16 Re17 2.643037 1_454
Re16 Re5 2.734057 1_555
Re16 Re3 2.746202 1_455
Re16 Ti1 2.975624 1_555
Re16 Sc1 2.994088 1_445
Re16 Sc0 3.029805 1_554
Re16 Sc2 3.070533 1_454
Re17 Re23 2.523337 1_545
Re17 Re4 2.734061 1_555
Re17 Re3 2.746195 1_556
Re17 Re8 2.857336 1_545
Re17 Re2 2.885019 1_545
Re17 Ti0 2.975631 1_655
Re17 Sc1 2.994084 1_546
Re17 Sc0 3.029810 1_655
Re17 Sc2 3.070533 1_555
Re18 Re21 2.553636 1_554
Re18 Re9 2.569244 1_555
Re18 Re19 2.644936 1_665
Re18 Re20 2.644936 1_665
Re18 Re8 2.708679 1_555
Re18 Re7 2.708679 1_555
Re18 Re3 2.882148 1_555
Re18 Sc2 2.983775 1_554
Re18 Sc1 2.983775 1_555
Re18 Sc0 3.048036 1_664
Re18 Ti0 3.063271 1_665
Re19 Re4 2.517276 1_455
Re19 Re20 2.628811 1_555
Re19 Re6 2.729220 1_555
Re19 Re8 2.743187 1_445
Re19 Ti1 2.971048 1_555
Re19 Sc1 2.992430 1_445
Re19 Sc0 3.034829 1_554
Re19 Ti0 3.079133 1_555
Re20 Re6 2.729220 1_555
Re20 Re7 2.743187 1_445
Re20 Re5 2.867755 1_545
Re20 Ti1 2.971048 1_555
Re20 Sc2 2.992430 1_444
Re20 Sc0 3.034829 1_554
Re20 Ti0 3.079133 1_555
Re21 Re6 2.569244 1_555
Re21 Re23 2.644936 1_555
Re21 Re22 2.644936 1_555
Re21 Re3 2.882148 1_556
Re21 Sc1 2.983775 1_556
Re21 Sc2 2.983776 1_555
Re21 Sc0 3.048036 1_665
Re21 Ti1 3.063271 1_555
Re22 Re23 2.628797 1_555
Re22 Re9 2.729216 1_555
Re22 Re7 2.835620 1_555
Re22 Re4 2.867763 1_555
Re22 Ti0 2.971041 1_665
Re22 Sc2 2.992435 1_555
Re22 Sc0 3.034825 1_665
Re22 Ti1 3.079134 1_555
Re23 Re5 2.517281 1_555
Re23 Re9 2.729216 1_555
Re23 Re8 2.835619 1_555
Re23 Ti0 2.971041 1_665
Re23 Sc1 2.992434 1_556
Re23 Sc0 3.034825 1_665
Re23 Ti1 3.079133 1_555
