# generated using pymatgen
data_BaLi4Ca(SiO4)2
_symmetry_space_group_name_H-M   'P 1'
_cell_length_a   5.09554218
_cell_length_b   10.08084191
_cell_length_c   14.12785309
_cell_angle_alpha   90.00000000
_cell_angle_beta   90.00000000
_cell_angle_gamma   90.00000000
_symmetry_Int_Tables_number   1
_chemical_formula_structural   BaLi4Ca(SiO4)2
_chemical_formula_sum   'Ba4 Li16 Ca4 Si8 O32'
_cell_volume   725.71044661
_cell_formula_units_Z   4
loop_
 _symmetry_equiv_pos_site_id
 _symmetry_equiv_pos_as_xyz
  1  'x, y, z'
loop_
 _atom_site_type_symbol
 _atom_site_label
 _atom_site_symmetry_multiplicity
 _atom_site_fract_x
 _atom_site_fract_y
 _atom_site_fract_z
 _atom_site_occupancy
  Ba  Ba0  1  0.04340245  0.26209530  0.25000000  1
  Ba  Ba1  1  0.95659755  0.73790470  0.75000000  1
  Ba  Ba2  1  0.04340245  0.23790470  0.75000000  1
  Ba  Ba3  1  0.95659755  0.76209530  0.25000000  1
  Li  Li0  1  0.50840121  0.22328068  0.87265930  1
  Li  Li1  1  0.95538539  0.99989382  0.62730268  1
  Li  Li2  1  0.04461461  0.00010618  0.12730268  1
  Li  Li3  1  0.49159879  0.72328068  0.87265930  1
  Li  Li4  1  0.04461461  0.00010618  0.37269732  1
  Li  Li5  1  0.50840121  0.27671932  0.12734070  1
  Li  Li6  1  0.95538539  0.50010618  0.37269732  1
  Li  Li7  1  0.95538539  0.99989382  0.87269732  1
  Li  Li8  1  0.50840121  0.22328068  0.62734070  1
  Li  Li9  1  0.95538539  0.50010618  0.12730268  1
  Li  Li10  1  0.49159879  0.72328068  0.62734070  1
  Li  Li11  1  0.04461461  0.49989382  0.87269732  1
  Li  Li12  1  0.50840121  0.27671932  0.37265930  1
  Li  Li13  1  0.49159879  0.77671932  0.37265930  1
  Li  Li14  1  0.49159879  0.77671932  0.12734070  1
  Li  Li15  1  0.04461461  0.49989382  0.62730268  1
  Ca  Ca0  1  0.50000000  0.00000000  0.50000000  1
  Ca  Ca1  1  0.50000000  0.50000000  0.00000000  1
  Ca  Ca2  1  0.50000000  0.00000000  0.00000000  1
  Ca  Ca3  1  0.50000000  0.50000000  0.50000000  1
  Si  Si0  1  0.47690397  0.97522821  0.75000000  1
  Si  Si1  1  0.52309603  0.47522821  0.75000000  1
  Si  Si2  1  0.47690397  0.52477179  0.25000000  1
  Si  Si3  1  0.52309603  0.02477179  0.25000000  1
  Si  Si4  1  0.98831903  0.75000000  0.00000000  1
  Si  Si5  1  0.01168097  0.25000000  0.50000000  1
  Si  Si6  1  0.98831903  0.75000000  0.50000000  1
  Si  Si7  1  0.01168097  0.25000000  0.00000000  1
  O  O0  1  0.66462569  0.53948233  0.65497596  1
  O  O1  1  0.55917127  0.31320565  0.75000000  1
  O  O2  1  0.20419776  0.33850555  0.56919377  1
  O  O3  1  0.20419776  0.16149445  0.06919377  1
  O  O4  1  0.33537431  0.03948233  0.65497596  1
  O  O5  1  0.33537431  0.46051767  0.34502404  1
  O  O6  1  0.66462569  0.96051767  0.15497596  1
  O  O7  1  0.79580224  0.83850555  0.56919377  1
  O  O8  1  0.18205523  0.65383508  0.56271140  1
  O  O9  1  0.79110918  0.49572288  0.25000000  1
  O  O10  1  0.79110918  0.00427712  0.75000000  1
  O  O11  1  0.81794477  0.15383508  0.56271140  1
  O  O12  1  0.18205523  0.84616492  0.06271140  1
  O  O13  1  0.66462569  0.53948233  0.84502404  1
  O  O14  1  0.55917127  0.18679435  0.25000000  1
  O  O15  1  0.66462569  0.96051767  0.34502404  1
  O  O16  1  0.18205523  0.84616492  0.43728860  1
  O  O17  1  0.20889082  0.50427712  0.75000000  1
  O  O18  1  0.81794477  0.34616492  0.06271140  1
  O  O19  1  0.81794477  0.15383508  0.93728860  1
  O  O20  1  0.20889082  0.99572288  0.25000000  1
  O  O21  1  0.18205523  0.65383508  0.93728860  1
  O  O22  1  0.20419776  0.16149445  0.43080623  1
  O  O23  1  0.79580224  0.83850555  0.93080623  1
  O  O24  1  0.33537431  0.03948233  0.84502404  1
  O  O25  1  0.33537431  0.46051767  0.15497596  1
  O  O26  1  0.44082873  0.68679435  0.25000000  1
  O  O27  1  0.20419776  0.33850555  0.93080623  1
  O  O28  1  0.44082873  0.81320565  0.75000000  1
  O  O29  1  0.79580224  0.66149445  0.43080623  1
  O  O30  1  0.79580224  0.66149445  0.06919377  1
  O  O31  1  0.81794477  0.34616492  0.43728860  1
loop_
_geom_bond_atom_site_label_1
_geom_bond_atom_site_label_2
_geom_bond_distance
_geom_bond_site_symmetry_2
Ba0 O14 2.581548 1_455
Ba0 O9 2.683185 1_455
Ba0 O14 2.735553 1_555
Ba0 O20 2.814549 1_545
Ba0 O5 2.831385 1_555
Ba0 O25 2.831385 1_555
Ba0 O3 2.867887 1_555
Ba0 O22 2.867887 1_555
Ba0 O31 3.006542 1_455
Ba0 O18 3.006542 1_455
Ba1 O28 2.581548 1_655
Ba1 O17 2.683185 1_655
Ba1 O28 2.735553 1_555
Ba1 O10 2.814549 1_565
Ba1 O13 2.831385 1_555
Ba1 O0 2.831385 1_555
Ba1 O23 2.867887 1_555
Ba1 O7 2.867887 1_555
Ba1 O21 3.006542 1_655
Ba1 O8 3.006542 1_655
Ba2 O1 2.581548 1_455
Ba2 O10 2.683185 1_455
Ba2 O1 2.735553 1_555
Ba2 O17 2.814549 1_555
Ba2 O24 2.831385 1_555
Ba2 O4 2.831385 1_555
Ba2 O27 2.867887 1_555
Ba2 O2 2.867887 1_555
Ba2 O19 3.006542 1_455
Ba2 O11 3.006542 1_455
Ba3 O26 2.581548 1_655
Ba3 O20 2.683185 1_655
Ba3 O26 2.735553 1_555
Ba3 O9 2.814549 1_555
Ba3 O15 2.831385 1_555
Ba3 O6 2.831385 1_555
Ba3 O30 2.867887 1_555
Ba3 O29 2.867887 1_555
Ba3 O16 3.006542 1_655
Ba3 O12 3.006542 1_655
Li0 O19 1.952345 1_555
Li0 O1 1.972737 1_555
Li0 O24 2.088730 1_555
Li0 O27 2.104004 1_555
Li1 O10 1.925486 1_565
Li1 O11 1.931697 1_565
Li1 O7 1.995520 1_555
Li1 O4 2.015238 1_665
Li2 O20 1.925486 1_545
Li2 O12 1.931697 1_545
Li2 O3 1.995520 1_555
Li2 O6 2.015238 1_445
Li3 O21 1.952345 1_555
Li3 O28 1.972737 1_555
Li3 O13 2.088730 1_555
Li3 O23 2.104004 1_555
Li4 O20 1.925486 1_545
Li4 O16 1.931697 1_545
Li4 O22 1.995520 1_555
Li4 O15 2.015238 1_445
Li5 O18 1.952345 1_555
Li5 O14 1.972737 1_555
Li5 O25 2.088730 1_555
Li5 O3 2.104004 1_555
Li6 O9 1.925486 1_555
Li6 O31 1.931697 1_555
Li6 O29 1.995520 1_555
Li6 O5 2.015238 1_655
Li7 O10 1.925486 1_565
Li7 O19 1.931697 1_565
Li7 O23 1.995520 1_555
Li7 O24 2.015238 1_665
Li8 O11 1.952345 1_555
Li8 O1 1.972737 1_555
Li8 O4 2.088730 1_555
Li8 O2 2.104004 1_555
Li9 O9 1.925486 1_555
Li9 O18 1.931697 1_555
Li9 O30 1.995520 1_555
Li9 O25 2.015238 1_655
Li10 O8 1.952345 1_555
Li10 O28 1.972737 1_555
Li10 O0 2.088730 1_555
Li10 O7 2.104004 1_555
Li11 O17 1.925486 1_555
Li11 O21 1.931697 1_555
Li11 O27 1.995520 1_555
Li11 O13 2.015238 1_455
Li12 O31 1.952345 1_555
Li12 O14 1.972737 1_555
Li12 O5 2.088730 1_555
Li12 O22 2.104004 1_555
Li13 O16 1.952345 1_555
Li13 O26 1.972737 1_555
Li13 O15 2.088730 1_555
Li13 O29 2.104004 1_555
Li14 O12 1.952345 1_555
Li14 O26 1.972737 1_555
Li14 O6 2.088730 1_555
Li14 O30 2.104004 1_555
Li15 O17 1.925486 1_555
Li15 O8 1.931697 1_555
Li15 O2 1.995520 1_555
Li15 O0 2.015238 1_455
Ca0 O4 2.378216 1_555
Ca0 O15 2.378216 1_545
Ca0 O11 2.411353 1_555
Ca0 O16 2.411353 1_545
Ca0 O22 2.424433 1_555
Ca0 O7 2.424433 1_545
Ca1 O25 2.378216 1_555
Ca1 O13 2.378216 1_554
Ca1 O18 2.411353 1_555
Ca1 O21 2.411353 1_554
Ca1 O30 2.424433 1_555
Ca1 O27 2.424433 1_554
Ca2 O6 2.378216 1_545
Ca2 O24 2.378216 1_554
Ca2 O19 2.411353 1_554
Ca2 O12 2.411353 1_545
Ca2 O3 2.424433 1_555
Ca2 O23 2.424433 1_544
Ca3 O0 2.378216 1_555
Ca3 O5 2.378216 1_555
Ca3 O8 2.411353 1_555
Ca3 O31 2.411353 1_555
Ca3 O29 2.424433 1_555
Ca3 O2 2.424433 1_555
O0 Si1 1.655873 1_555
O1 Si1 1.643636 1_555
O2 Si5 1.647416 1_555
O3 Si7 1.647416 1_555
O4 Si0 1.655873 1_545
O5 Si2 1.655873 1_555
O6 Si3 1.655873 1_565
O7 Si6 1.647416 1_555
O8 Si6 1.642950 1_455
O9 Si2 1.627606 1_555
O10 Si0 1.627606 1_545
O11 Si5 1.642950 1_655
O12 Si4 1.642950 1_455
O13 Si1 1.655873 1_555
O14 Si3 1.643636 1_555
O15 Si3 1.655873 1_565
O16 Si6 1.642950 1_455
O17 Si1 1.627606 1_555
O18 Si7 1.642950 1_655
O19 Si7 1.642950 1_656
O20 Si3 1.627606 1_565
O21 Si4 1.642950 1_456
O22 Si5 1.647416 1_555
O23 Si4 1.647416 1_556
O24 Si0 1.655873 1_545
O25 Si2 1.655873 1_555
O26 Si2 1.643636 1_555
O27 Si7 1.647416 1_556
O28 Si0 1.643636 1_555
O29 Si6 1.647416 1_555
O30 Si4 1.647416 1_555
O31 Si5 1.642950 1_655
