# generated using pymatgen
data_Ca5P3ClO12
_symmetry_space_group_name_H-M   'P 1'
_cell_length_a   9.82756393
_cell_length_b   9.82756393
_cell_length_c   6.76295900
_cell_angle_alpha   90.00000000
_cell_angle_beta   90.00000000
_cell_angle_gamma   119.99999953
_symmetry_Int_Tables_number   1
_chemical_formula_structural   Ca5P3ClO12
_chemical_formula_sum   'Ca10 P6 Cl2 O24'
_cell_volume   565.66478588
_cell_formula_units_Z   2
loop_
 _symmetry_equiv_pos_site_id
 _symmetry_equiv_pos_as_xyz
  1  'x, y, z'
loop_
 _atom_site_type_symbol
 _atom_site_label
 _atom_site_symmetry_multiplicity
 _atom_site_fract_x
 _atom_site_fract_y
 _atom_site_fract_z
 _atom_site_occupancy
  Ca  Ca0  1  0.24932100  0.98355200  0.24796100  1
  Ca  Ca1  1  0.01644800  0.26576900  0.24796100  1
  Ca  Ca2  1  0.33333300  0.66666700  0.99507300  1
  Ca  Ca3  1  0.33333300  0.66666700  0.50352400  1
  Ca  Ca4  1  0.26576900  0.24932100  0.74796100  1
  Ca  Ca5  1  0.73423100  0.75067900  0.24796100  1
  Ca  Ca6  1  0.66666700  0.33333300  0.49507300  1
  Ca  Ca7  1  0.66666700  0.33333300  0.00352400  1
  Ca  Ca8  1  0.98355200  0.73423100  0.74796100  1
  Ca  Ca9  1  0.75067900  0.01644800  0.74796100  1
  P  P0  1  0.03209900  0.62272800  0.25169800  1
  P  P1  1  0.59062900  0.96790100  0.25169800  1
  P  P2  1  0.37727200  0.40937100  0.25169800  1
  P  P3  1  0.62272800  0.59062900  0.75169800  1
  P  P4  1  0.40937100  0.03209900  0.75169800  1
  P  P5  1  0.96790100  0.37727200  0.75169800  1
  Cl  Cl0  1  0.00000000  0.00000000  0.43188800  1
  Cl  Cl1  1  0.00000000  0.00000000  0.93188800  1
  O  O0  1  0.08123000  0.73406300  0.06941200  1
  O  O1  1  0.08830200  0.72880000  0.43880700  1
  O  O2  1  0.13030200  0.53665000  0.24513900  1
  O  O3  1  0.14607600  0.49682500  0.75332100  1
  O  O4  1  0.35074900  0.85392400  0.75332100  1
  O  O5  1  0.40634900  0.86969800  0.24513900  1
  O  O6  1  0.27120000  0.35950200  0.43880700  1
  O  O7  1  0.26593700  0.34716700  0.06941200  1
  O  O8  1  0.46335000  0.59365100  0.24513900  1
  O  O9  1  0.50317500  0.64925100  0.75332100  1
  O  O10  1  0.64049800  0.91169800  0.43880700  1
  O  O11  1  0.65283300  0.91877000  0.06941200  1
  O  O12  1  0.35950200  0.08830200  0.93880700  1
  O  O13  1  0.34716700  0.08123000  0.56941200  1
  O  O14  1  0.49682500  0.35074900  0.25332100  1
  O  O15  1  0.53665000  0.40634900  0.74513900  1
  O  O16  1  0.72880000  0.64049800  0.93880700  1
  O  O17  1  0.73406300  0.65283300  0.56941200  1
  O  O18  1  0.59365100  0.13030200  0.74513900  1
  O  O19  1  0.64925100  0.14607600  0.25332100  1
  O  O20  1  0.85392400  0.50317500  0.25332100  1
  O  O21  1  0.86969800  0.46335000  0.74513900  1
  O  O22  1  0.91877000  0.26593700  0.56941200  1
  O  O23  1  0.91169800  0.27120000  0.93880700  1
loop_
_geom_bond_atom_site_label_1
_geom_bond_atom_site_label_2
_geom_bond_distance
_geom_bond_site_symmetry_2
Ca0 O5 2.315274 1_555
Ca0 O12 2.342853 1_564
Ca0 O13 2.376798 1_565
Ca0 O0 2.479580 1_555
Ca0 O1 2.544830 1_555
Ca0 Cl0 2.823654 1_565
Ca0 Cl1 3.315878 1_564
Ca1 O2 2.315265 1_555
Ca1 O23 2.342853 1_454
Ca1 O22 2.376798 1_455
Ca1 O7 2.479580 1_555
Ca1 O6 2.544830 1_555
Ca1 Cl0 2.823654 1_555
Ca1 Cl1 3.315878 1_554
Ca2 O4 2.402923 1_555
Ca2 O3 2.402926 1_555
Ca2 O9 2.402930 1_555
Ca2 O5 2.434024 1_556
Ca2 O2 2.434026 1_556
Ca2 O8 2.434037 1_556
Ca2 O0 2.910452 1_556
Ca2 O11 2.910458 1_556
Ca2 O7 2.910461 1_556
Ca3 O4 2.440268 1_555
Ca3 O3 2.440271 1_555
Ca3 O9 2.440275 1_555
Ca3 O5 2.473446 1_555
Ca3 O2 2.473448 1_555
Ca3 O8 2.473459 1_555
Ca3 O1 2.798849 1_555
Ca3 O10 2.798855 1_555
Ca3 O6 2.798858 1_555
Ca4 O15 2.315266 1_555
Ca4 O6 2.342853 1_555
Ca4 O7 2.376798 1_556
Ca4 O13 2.479580 1_555
Ca4 O12 2.544830 1_555
Ca4 Cl1 2.823654 1_555
Ca4 Cl0 3.315878 1_555
Ca5 O8 2.315266 1_555
Ca5 O16 2.342853 1_554
Ca5 O17 2.376798 1_555
Ca5 O11 2.479580 1_555
Ca5 O10 2.544830 1_555
Ca5 Cl0 2.823654 1_665
Ca5 Cl1 3.315878 1_664
Ca6 O19 2.402923 1_555
Ca6 O20 2.402926 1_555
Ca6 O14 2.402930 1_555
Ca6 O18 2.434024 1_555
Ca6 O21 2.434026 1_555
Ca6 O15 2.434037 1_555
Ca6 O22 2.910452 1_555
Ca6 O13 2.910458 1_555
Ca6 O17 2.910461 1_555
Ca7 O19 2.440268 1_555
Ca7 O20 2.440271 1_555
Ca7 O14 2.440275 1_555
Ca7 O18 2.473446 1_554
Ca7 O21 2.473448 1_554
Ca7 O15 2.473459 1_554
Ca7 O23 2.798849 1_554
Ca7 O12 2.798855 1_554
Ca7 O16 2.798858 1_554
Ca8 O21 2.315265 1_555
Ca8 O1 2.342853 1_655
Ca8 O0 2.376798 1_656
Ca8 O17 2.479580 1_555
Ca8 O16 2.544830 1_555
Ca8 Cl1 2.823654 1_665
Ca8 Cl0 3.315878 1_665
Ca9 O18 2.315274 1_555
Ca9 O10 2.342853 1_545
Ca9 O11 2.376798 1_546
Ca9 O22 2.479580 1_555
Ca9 O23 2.544830 1_555
Ca9 Cl1 2.823654 1_655
Ca9 Cl0 3.315878 1_655
O0 P0 1.556207 1_555
O1 P0 1.554743 1_555
O2 P0 1.570159 1_555
O3 P5 1.545746 1_455
O4 P4 1.545746 1_565
O5 P1 1.570150 1_555
O6 P2 1.554743 1_555
O7 P2 1.556207 1_555
O8 P2 1.570150 1_555
O9 P3 1.545746 1_555
O10 P1 1.554743 1_555
O11 P1 1.556207 1_555
O12 P4 1.554743 1_555
O13 P4 1.556207 1_555
O14 P2 1.545746 1_555
O15 P3 1.570150 1_555
O16 P3 1.554743 1_555
O17 P3 1.556207 1_555
O18 P4 1.570150 1_555
O19 P1 1.545746 1_545
O20 P0 1.545746 1_655
O21 P5 1.570159 1_555
O22 P5 1.556207 1_555
O23 P5 1.554743 1_555
