# generated using pymatgen
data_Na2BeF4
_symmetry_space_group_name_H-M   'P 1'
_cell_length_a   7.91401356
_cell_length_b   5.50453165
_cell_length_c   8.73089148
_cell_angle_alpha   61.61105424
_cell_angle_beta   90.00000000
_cell_angle_gamma   90.00000000
_symmetry_Int_Tables_number   1
_chemical_formula_structural   Na2BeF4
_chemical_formula_sum   'Na8 Be4 F16'
_cell_volume   334.60332356
_cell_formula_units_Z   4
loop_
 _symmetry_equiv_pos_site_id
 _symmetry_equiv_pos_as_xyz
  1  'x, y, z'
loop_
 _atom_site_type_symbol
 _atom_site_label
 _atom_site_symmetry_multiplicity
 _atom_site_fract_x
 _atom_site_fract_y
 _atom_site_fract_z
 _atom_site_occupancy
  Na  Na0  1  0.34293929  0.41417946  0.37262461  1
  Na  Na1  1  0.84293929  0.58582054  0.12737539  1
  Na  Na2  1  0.65706071  0.58582054  0.62737539  1
  Na  Na3  1  0.15706071  0.41417946  0.87262461  1
  Na  Na4  1  0.48629465  0.14675854  0.13324404  1
  Na  Na5  1  0.98629465  0.85324146  0.36675596  1
  Na  Na6  1  0.51370535  0.85324146  0.86675596  1
  Na  Na7  1  0.01370535  0.14675854  0.63324404  1
  Be  Be0  1  0.30456932  0.75443660  0.53744023  1
  Be  Be1  1  0.69543068  0.24556340  0.46255977  1
  Be  Be2  1  0.19543068  0.75443660  0.03744023  1
  Be  Be3  1  0.80456932  0.24556340  0.96255977  1
  F  F0  1  0.81837206  0.48661673  0.43241362  1
  F  F1  1  0.31837206  0.51338327  0.06758638  1
  F  F2  1  0.18162794  0.51338327  0.56758638  1
  F  F3  1  0.68162794  0.48661673  0.93241362  1
  F  F4  1  0.93564965  0.21197319  0.10317673  1
  F  F5  1  0.56435035  0.21197319  0.60317673  1
  F  F6  1  0.43564965  0.78802681  0.39682327  1
  F  F7  1  0.06435035  0.78802681  0.89682327  1
  F  F8  1  0.89428676  0.32631411  0.78905161  1
  F  F9  1  0.39428676  0.67368589  0.71094839  1
  F  F10  1  0.10571324  0.67368589  0.21094839  1
  F  F11  1  0.60571324  0.32631411  0.28905161  1
  F  F12  1  0.69491318  0.98072007  0.02217293  1
  F  F13  1  0.19491318  0.01927993  0.47782707  1
  F  F14  1  0.30508682  0.01927993  0.97782707  1
  F  F15  1  0.80508682  0.98072007  0.52217293  1
loop_
_geom_bond_atom_site_label_1
_geom_bond_atom_site_label_2
_geom_bond_distance
_geom_bond_site_symmetry_2
Be0 F9 1.535016 1_555
Be0 F6 1.549756 1_555
Be0 F13 1.558133 1_565
Be0 F2 1.563476 1_555
Be1 F11 1.535016 1_555
Be1 F5 1.549756 1_555
Be1 F15 1.558133 1_545
Be1 F0 1.563476 1_555
Be2 F10 1.535016 1_555
Be2 F7 1.549756 1_554
Be2 F14 1.558133 1_564
Be2 F1 1.563476 1_555
Be3 F8 1.535016 1_555
Be3 F4 1.549756 1_556
Be3 F12 1.558133 1_546
Be3 F3 1.563476 1_555
F0 Na5 2.251075 1_555
F0 Na2 2.389412 1_555
F0 Na7 2.417593 1_655
F0 Na1 2.458860 1_555
F1 Na4 2.251075 1_555
F1 Na3 2.389412 1_554
F1 Na6 2.417593 1_554
F1 Na0 2.458860 1_555
F2 Na7 2.251075 1_555
F2 Na0 2.389412 1_555
F2 Na5 2.417593 1_455
F2 Na3 2.458860 1_555
F3 Na6 2.251075 1_555
F3 Na1 2.389412 1_556
F3 Na4 2.417593 1_556
F3 Na2 2.458860 1_555
F4 Na5 2.243800 1_545
F4 Na1 2.287174 1_555
F4 Na3 2.496123 1_654
F5 Na6 2.243800 1_545
F5 Na2 2.287174 1_555
F5 Na0 2.496123 1_555
F6 Na4 2.243800 1_565
F6 Na0 2.287174 1_555
F6 Na2 2.496123 1_555
F7 Na7 2.243800 1_565
F7 Na3 2.287174 1_555
F7 Na1 2.496123 1_456
F8 Na7 2.235864 1_655
F8 Na3 2.329516 1_655
F8 Na2 2.374937 1_555
F9 Na6 2.235864 1_555
F9 Na2 2.329516 1_555
F9 Na3 2.374937 1_555
F10 Na5 2.235864 1_455
F10 Na1 2.329516 1_455
F10 Na0 2.374937 1_555
F11 Na4 2.235864 1_555
F11 Na0 2.329516 1_555
F11 Na1 2.374937 1_555
F12 Na1 2.245568 1_555
F12 Na6 2.301232 1_554
F12 Na4 2.311793 1_565
F13 Na0 2.245568 1_555
F13 Na7 2.301232 1_555
F13 Na5 2.311793 1_445
F14 Na3 2.245568 1_555
F14 Na4 2.301232 1_556
F14 Na6 2.311793 1_545
F15 Na2 2.245568 1_555
F15 Na5 2.301232 1_555
F15 Na7 2.311793 1_665
