# generated using pymatgen
data_K9Rb7(SnSe4)4
_symmetry_space_group_name_H-M   'P 1'
_cell_length_a   8.30856955
_cell_length_b   10.51402189
_cell_length_c   15.28851922
_cell_angle_alpha   90.00000000
_cell_angle_beta   90.09836063
_cell_angle_gamma   90.00000000
_symmetry_Int_Tables_number   1
_chemical_formula_structural   K9Rb7(SnSe4)4
_chemical_formula_sum   'K9 Rb7 Sn4 Se16'
_cell_volume   1335.54928845
_cell_formula_units_Z   1
loop_
 _symmetry_equiv_pos_site_id
 _symmetry_equiv_pos_as_xyz
  1  'x, y, z'
loop_
 _atom_site_type_symbol
 _atom_site_label
 _atom_site_symmetry_multiplicity
 _atom_site_fract_x
 _atom_site_fract_y
 _atom_site_fract_z
 _atom_site_occupancy
  K  K0  1  0.51981126  0.75000000  0.92549985  1
  K  K1  1  0.83376710  0.04965800  0.26733156  1
  K  K2  1  0.33342761  0.94984897  0.23000231  1
  K  K3  1  0.16568086  0.55070160  0.73275561  1
  K  K4  1  0.66657503  0.44998087  0.76980709  1
  K  K5  1  0.16568086  0.94929840  0.73275561  1
  K  K6  1  0.66657503  0.05001913  0.76980709  1
  K  K7  1  0.83376710  0.45034200  0.26733156  1
  K  K8  1  0.33342761  0.55015103  0.23000231  1
  Rb  Rb0  1  0.00048280  0.99929191  0.99962945  1
  Rb  Rb1  1  0.49942929  0.00045063  0.50025707  1
  Rb  Rb2  1  0.00048280  0.50070809  0.99962945  1
  Rb  Rb3  1  0.49942929  0.49954937  0.50025707  1
  Rb  Rb4  1  0.99085019  0.75000000  0.42450042  1
  Rb  Rb5  1  0.49216229  0.25000000  0.07634537  1
  Rb  Rb6  1  0.00896107  0.25000000  0.57579307  1
  Sn  Sn0  1  0.76844394  0.75000000  0.67150214  1
  Sn  Sn1  1  0.22875989  0.25000000  0.32836036  1
  Sn  Sn2  1  0.72861705  0.75000000  0.17003299  1
  Sn  Sn3  1  0.27291816  0.25000000  0.82989837  1
  Se  Se0  1  0.96609699  0.25000000  0.82306568  1
  Se  Se1  1  0.53541982  0.25000000  0.32244414  1
  Se  Se2  1  0.46220730  0.75000000  0.67844719  1
  Se  Se3  1  0.03495013  0.75000000  0.17723333  1
  Se  Se4  1  0.63153759  0.55539525  0.09021566  1
  Se  Se5  1  0.13256015  0.44607980  0.40654014  1
  Se  Se6  1  0.36836100  0.05261519  0.90827659  1
  Se  Se7  1  0.86632213  0.94580856  0.59346602  1
  Se  Se8  1  0.36836100  0.44738481  0.90827659  1
  Se  Se9  1  0.86632213  0.55419144  0.59346602  1
  Se  Se10  1  0.63153759  0.94460475  0.09021566  1
  Se  Se11  1  0.13256015  0.05392020  0.40654014  1
  Se  Se12  1  0.61087771  0.75000000  0.32499400  1
  Se  Se13  1  0.11066046  0.25000000  0.17314373  1
  Se  Se14  1  0.38993008  0.25000000  0.67479810  1
  Se  Se15  1  0.88305253  0.75000000  0.82737828  1
loop_
_geom_bond_atom_site_label_1
_geom_bond_atom_site_label_2
_geom_bond_distance
_geom_bond_site_symmetry_2
K0 Se15 3.372590 1_555
K0 Se10 3.373687 1_556
K0 Se4 3.373687 1_556
K0 Se6 3.431448 1_565
K0 Se8 3.431448 1_555
K0 Se2 3.806456 1_555
K1 Se11 3.267494 1_655
K1 Se1 3.361353 1_555
K1 Se10 3.370455 1_545
K1 Se13 3.437234 1_655
K1 Sn2 3.591372 1_545
K1 Se12 3.760137 1_545
K1 Se3 3.824360 1_645
K2 Se10 3.274663 1_555
K2 Se3 3.348001 1_555
K2 Se11 3.358968 1_565
K2 Se12 3.439004 1_555
K2 Sn1 3.602924 1_565
K2 Se13 3.759642 1_565
K2 Se1 3.842510 1_565
K3 Se9 3.271764 1_455
K3 Se2 3.340225 1_555
K3 Se8 3.346821 1_555
K3 Se15 3.465468 1_455
K3 Sn3 3.604255 1_555
K3 Se14 3.775963 1_555
K3 Se0 3.828790 1_455
K4 Se8 3.261836 1_555
K4 Se9 3.352396 1_555
K4 Se0 3.357097 1_555
K4 Se14 3.435488 1_555
K4 Sn0 3.595809 1_555
K4 Se15 3.735585 1_555
K4 Se2 3.843994 1_555
K5 Se7 3.271764 1_455
K5 Se2 3.340225 1_555
K5 Se6 3.346821 1_565
K5 Se15 3.465468 1_455
K5 Sn3 3.604255 1_565
K5 Se14 3.775963 1_565
K5 Se0 3.828790 1_465
K6 Se6 3.261836 1_555
K6 Se7 3.352396 1_545
K6 Se0 3.357097 1_555
K6 Se14 3.435488 1_555
K6 Sn0 3.595809 1_545
K6 Se15 3.735585 1_545
K6 Se2 3.843994 1_545
K7 Se5 3.267494 1_655
K7 Se1 3.361353 1_555
K7 Se4 3.370455 1_555
K7 Se13 3.437234 1_655
K7 Sn2 3.591372 1_555
K7 Se12 3.760137 1_555
K7 Se3 3.824360 1_655
K8 Se4 3.274663 1_555
K8 Se3 3.348001 1_555
K8 Se5 3.358968 1_555
K8 Se12 3.439004 1_555
K8 Sn1 3.602924 1_555
K8 Se13 3.759642 1_555
K8 Se1 3.842510 1_555
Rb0 Se6 3.409113 1_565
Rb0 Se10 3.414664 1_456
Rb0 Se0 3.783380 1_465
Rb0 Se3 3.784462 1_556
Rb0 Se15 3.840342 1_455
Rb0 Se13 3.849040 1_566
Rb1 Se7 3.411497 1_545
Rb1 Se11 3.412508 1_555
Rb1 Se1 3.790328 1_555
Rb1 Se2 3.801857 1_545
Rb1 Se14 3.852395 1_555
Rb1 Se12 3.870363 1_545
Rb2 Se8 3.409113 1_555
Rb2 Se4 3.414664 1_456
Rb2 Se0 3.783380 1_455
Rb2 Se3 3.784462 1_556
Rb2 Se15 3.840342 1_455
Rb2 Se13 3.849040 1_556
Rb3 Se9 3.411497 1_555
Rb3 Se5 3.412508 1_555
Rb3 Se1 3.790328 1_555
Rb3 Se2 3.801857 1_555
Rb3 Se14 3.852395 1_555
Rb3 Se12 3.870363 1_555
Rb4 Se11 3.416654 1_665
Rb4 Se5 3.416654 1_655
Rb4 Se7 3.462826 1_555
Rb4 Se9 3.462826 1_555
Rb4 Se12 3.502100 1_555
Rb4 Se3 3.798689 1_655
Rb5 Se4 3.419824 1_555
Rb5 Se10 3.419824 1_545
Rb5 Se8 3.458080 1_554
Rb5 Se6 3.458080 1_554
Rb5 Se13 3.500491 1_555
Rb5 Se1 3.778999 1_555
Rb6 Se9 3.421636 1_455
Rb6 Se7 3.421636 1_445
Rb6 Se5 3.465497 1_555
Rb6 Se11 3.465497 1_555
Rb6 Se14 3.506256 1_555
Rb6 Se0 3.797779 1_455
Se0 Sn3 2.551205 1_655
Se1 Sn1 2.549666 1_555
Se2 Sn0 2.546785 1_555
Se3 Sn2 2.547380 1_455
Se4 Sn2 2.514508 1_555
Se5 Sn1 2.514141 1_555
Se6 Sn3 2.523563 1_555
Se7 Sn0 2.515243 1_555
Se8 Sn3 2.523563 1_555
Se9 Sn0 2.515243 1_555
Se10 Sn2 2.514508 1_555
Se11 Sn1 2.514141 1_555
Se12 Sn2 2.564697 1_555
Se13 Sn1 2.566343 1_555
Se14 Sn3 2.564358 1_555
Se15 Sn0 2.564799 1_555
