# generated using pymatgen
data_Sr2Ca3As4
_symmetry_space_group_name_H-M   'P 1'
_cell_length_a   7.90680566
_cell_length_b   7.94131326
_cell_length_c   15.46518402
_cell_angle_alpha   90.00000000
_cell_angle_beta   90.00000000
_cell_angle_gamma   90.00000000
_symmetry_Int_Tables_number   1
_chemical_formula_structural   Sr2Ca3As4
_chemical_formula_sum   'Sr8 Ca12 As16'
_cell_volume   971.06540929
_cell_formula_units_Z   4
loop_
 _symmetry_equiv_pos_site_id
 _symmetry_equiv_pos_as_xyz
  1  'x, y, z'
loop_
 _atom_site_type_symbol
 _atom_site_label
 _atom_site_symmetry_multiplicity
 _atom_site_fract_x
 _atom_site_fract_y
 _atom_site_fract_z
 _atom_site_occupancy
  Sr  Sr0  1  0.52871962  0.31771752  0.90603269  1
  Sr  Sr1  1  0.02871962  0.18228248  0.59396731  1
  Sr  Sr2  1  0.47128038  0.68228248  0.40603269  1
  Sr  Sr3  1  0.97128038  0.81771752  0.09396731  1
  Sr  Sr4  1  0.47128038  0.68228248  0.09396731  1
  Sr  Sr5  1  0.97128038  0.81771752  0.40603269  1
  Sr  Sr6  1  0.52871962  0.31771752  0.59396731  1
  Sr  Sr7  1  0.02871962  0.18228248  0.90603269  1
  Ca  Ca0  1  0.37350561  0.85466557  0.89153493  1
  Ca  Ca1  1  0.87350561  0.64533443  0.60846507  1
  Ca  Ca2  1  0.62649439  0.14533443  0.39153593  1
  Ca  Ca3  1  0.12649439  0.35466557  0.10846407  1
  Ca  Ca4  1  0.62649439  0.14533443  0.10846407  1
  Ca  Ca5  1  0.12649439  0.35466557  0.39153593  1
  Ca  Ca6  1  0.37350561  0.85466557  0.60846507  1
  Ca  Ca7  1  0.87350561  0.64533443  0.89153493  1
  Ca  Ca8  1  0.22022129  0.51453632  0.75000000  1
  Ca  Ca9  1  0.72022129  0.98546368  0.75000000  1
  Ca  Ca10  1  0.77977871  0.48546368  0.25000000  1
  Ca  Ca11  1  0.27977871  0.01453632  0.25000000  1
  As  As0  1  0.28077566  0.04277455  0.05170013  1
  As  As1  1  0.78077566  0.45722545  0.44829987  1
  As  As2  1  0.71922434  0.95722545  0.55170013  1
  As  As3  1  0.21922434  0.54277455  0.94829987  1
  As  As4  1  0.71922434  0.95722545  0.94829987  1
  As  As5  1  0.21922434  0.54277455  0.55170013  1
  As  As6  1  0.28077566  0.04277455  0.44829987  1
  As  As7  1  0.78077566  0.45722545  0.05170013  1
  As  As8  1  0.60184767  0.60087371  0.75000000  1
  As  As9  1  0.10184767  0.89912629  0.75000000  1
  As  As10  1  0.39815233  0.39912629  0.25000000  1
  As  As11  1  0.89815233  0.10087371  0.25000000  1
  As  As12  1  0.32873026  0.12499136  0.75000000  1
  As  As13  1  0.82873026  0.37500864  0.75000000  1
  As  As14  1  0.67126974  0.87500864  0.25000000  1
  As  As15  1  0.17126974  0.62499136  0.25000000  1
loop_
_geom_bond_atom_site_label_1
_geom_bond_atom_site_label_2
_geom_bond_distance
_geom_bond_site_symmetry_2
As0 Ca3 2.897135 1_555
As0 Ca0 2.984052 1_544
As0 Ca4 2.984323 1_555
As0 Ca11 3.074942 1_555
As0 Sr3 3.099989 1_445
As0 Sr7 3.205349 1_554
As0 Sr4 3.300256 1_545
As0 Sr0 3.699406 1_554
As1 Ca2 2.897135 1_555
As1 Ca1 2.984052 1_555
As1 Ca5 2.984323 1_655
As1 Ca10 3.074942 1_555
As1 Sr2 3.099989 1_555
As1 Sr6 3.205349 1_555
As1 Sr5 3.300256 1_555
As1 Sr1 3.699406 1_655
As2 Ca1 2.897140 1_555
As2 Ca2 2.984039 1_565
As2 Ca6 2.984327 1_555
As2 Ca9 3.074942 1_555
As2 Sr1 3.099989 1_665
As2 Sr5 3.205349 1_555
As2 Sr6 3.300256 1_565
As2 Sr2 3.699406 1_555
As3 Ca0 2.897140 1_555
As3 Ca3 2.984039 1_556
As3 Ca7 2.984327 1_455
As3 Ca8 3.074942 1_555
As3 Sr0 3.099989 1_555
As3 Sr4 3.205349 1_556
As3 Sr7 3.300256 1_555
As3 Sr3 3.699406 1_456
As4 Ca7 2.897140 1_555
As4 Ca4 2.984039 1_566
As4 Ca0 2.984327 1_555
As4 Ca9 3.074942 1_555
As4 Sr7 3.099989 1_665
As4 Sr3 3.205349 1_556
As4 Sr0 3.300256 1_565
As4 Sr4 3.699406 1_556
As5 Ca6 2.897140 1_555
As5 Ca5 2.984039 1_555
As5 Ca1 2.984327 1_455
As5 Ca8 3.074942 1_555
As5 Sr6 3.099989 1_555
As5 Sr2 3.205349 1_555
As5 Sr1 3.300256 1_555
As5 Sr5 3.699406 1_455
As6 Ca5 2.897135 1_555
As6 Ca6 2.984052 1_545
As6 Ca2 2.984323 1_555
As6 Ca11 3.074942 1_555
As6 Sr5 3.099989 1_445
As6 Sr1 3.205349 1_555
As6 Sr2 3.300256 1_545
As6 Sr6 3.699406 1_555
As7 Ca4 2.897135 1_555
As7 Ca7 2.984052 1_554
As7 Ca3 2.984323 1_655
As7 Ca10 3.074942 1_555
As7 Sr4 3.099989 1_555
As7 Sr0 3.205349 1_554
As7 Sr3 3.300256 1_555
As7 Sr7 3.699406 1_654
As8 Ca7 3.086983 1_555
As8 Ca1 3.086983 1_555
As8 Ca8 3.094361 1_555
As8 Ca9 3.194346 1_555
As8 Sr0 3.348671 1_555
As8 Sr6 3.348671 1_555
As8 Ca0 3.480345 1_555
As8 Ca6 3.480345 1_555
As9 Ca0 3.086983 1_555
As9 Ca6 3.086983 1_555
As9 Ca9 3.094361 1_455
As9 Ca8 3.194346 1_555
As9 Sr7 3.348671 1_565
As9 Sr1 3.348671 1_565
As9 Ca7 3.480345 1_455
As9 Ca1 3.480345 1_455
As10 As15 2.536803 1_555
As10 Ca5 3.086994 1_555
As10 Ca3 3.086994 1_555
As10 Ca10 3.094361 1_555
As10 Ca11 3.194346 1_555
As10 Sr2 3.348671 1_555
As10 Sr4 3.348671 1_555
As10 Ca2 3.480354 1_555
As10 Ca4 3.480354 1_555
As11 As14 2.536803 1_545
As11 Ca2 3.086994 1_555
As11 Ca4 3.086994 1_555
As11 Ca11 3.094361 1_655
As11 Ca10 3.194346 1_555
As11 Sr5 3.348671 1_545
As11 Sr3 3.348671 1_545
As11 Ca5 3.480354 1_655
As11 Ca3 3.480354 1_655
As12 As9 2.536803 1_545
As12 Ca0 3.086254 1_545
As12 Ca6 3.086254 1_545
As12 Ca8 3.210269 1_555
As12 Sr0 3.265852 1_555
As12 Sr6 3.265852 1_555
As12 Ca9 3.287782 1_545
As12 Sr7 3.414221 1_555
As12 Sr1 3.414221 1_555
As13 As8 2.536803 1_555
As13 Ca7 3.086254 1_555
As13 Ca1 3.086254 1_555
As13 Ca9 3.210269 1_545
As13 Sr7 3.265852 1_655
As13 Sr1 3.265852 1_655
As13 Ca8 3.287782 1_655
As13 Sr0 3.414221 1_555
As13 Sr6 3.414221 1_555
As14 Ca2 3.086265 1_565
As14 Ca4 3.086265 1_565
As14 Ca10 3.210269 1_555
As14 Sr2 3.265852 1_555
As14 Sr4 3.265852 1_555
As14 Ca11 3.287782 1_565
As14 Sr5 3.414221 1_555
As14 Sr3 3.414221 1_555
As15 Ca5 3.086265 1_555
As15 Ca3 3.086265 1_555
As15 Ca11 3.210269 1_565
As15 Sr5 3.265852 1_455
As15 Sr3 3.265852 1_455
As15 Ca10 3.287782 1_455
As15 Sr2 3.414221 1_555
As15 Sr4 3.414221 1_555
