# generated using pymatgen
data_CsLu3Te5
_symmetry_space_group_name_H-M   'P 1'
_cell_length_a   4.33841187
_cell_length_b   13.04364731
_cell_length_c   23.37951032
_cell_angle_alpha   90.00000000
_cell_angle_beta   90.00000000
_cell_angle_gamma   90.00000000
_symmetry_Int_Tables_number   1
_chemical_formula_structural   CsLu3Te5
_chemical_formula_sum   'Cs4 Lu12 Te20'
_cell_volume   1323.01643060
_cell_formula_units_Z   4
loop_
 _symmetry_equiv_pos_site_id
 _symmetry_equiv_pos_as_xyz
  1  'x, y, z'
loop_
 _atom_site_type_symbol
 _atom_site_label
 _atom_site_symmetry_multiplicity
 _atom_site_fract_x
 _atom_site_fract_y
 _atom_site_fract_z
 _atom_site_occupancy
  Cs  Cs0  1  0.25000000  0.35485016  0.08867029  1
  Cs  Cs1  1  0.75000000  0.64514984  0.91132971  1
  Cs  Cs2  1  0.75000000  0.85485016  0.41132971  1
  Cs  Cs3  1  0.25000000  0.14514984  0.58867029  1
  Lu  Lu0  1  0.25000000  0.45364317  0.69780802  1
  Lu  Lu1  1  0.75000000  0.54635683  0.30219198  1
  Lu  Lu2  1  0.75000000  0.95364317  0.80219198  1
  Lu  Lu3  1  0.25000000  0.04635683  0.19780802  1
  Lu  Lu4  1  0.25000000  0.79618830  0.67519024  1
  Lu  Lu5  1  0.75000000  0.20381170  0.32480976  1
  Lu  Lu6  1  0.75000000  0.29618830  0.82480976  1
  Lu  Lu7  1  0.25000000  0.70381170  0.17519024  1
  Lu  Lu8  1  0.25000000  0.39249689  0.44420204  1
  Lu  Lu9  1  0.75000000  0.60750311  0.55579796  1
  Lu  Lu10  1  0.75000000  0.89249689  0.05579796  1
  Lu  Lu11  1  0.25000000  0.10750311  0.94420204  1
  Te  Te0  1  0.25000000  0.44548500  0.56870523  1
  Te  Te1  1  0.75000000  0.55451500  0.43129477  1
  Te  Te2  1  0.75000000  0.94548500  0.93129477  1
  Te  Te3  1  0.25000000  0.05451500  0.06870523  1
  Te  Te4  1  0.25000000  0.76754858  0.54749575  1
  Te  Te5  1  0.75000000  0.23245142  0.45250425  1
  Te  Te6  1  0.75000000  0.26754858  0.95250425  1
  Te  Te7  1  0.25000000  0.73245142  0.04749575  1
  Te  Te8  1  0.25000000  0.79956160  0.80291084  1
  Te  Te9  1  0.75000000  0.20043840  0.19708916  1
  Te  Te10  1  0.75000000  0.29956160  0.69708916  1
  Te  Te11  1  0.25000000  0.70043840  0.30291084  1
  Te  Te12  1  0.25000000  0.45246155  0.82586661  1
  Te  Te13  1  0.75000000  0.54753845  0.17413339  1
  Te  Te14  1  0.75000000  0.95246155  0.67413339  1
  Te  Te15  1  0.25000000  0.04753845  0.32586661  1
  Te  Te16  1  0.25000000  0.37597635  0.31367549  1
  Te  Te17  1  0.75000000  0.62402365  0.68632451  1
  Te  Te18  1  0.75000000  0.87597635  0.18632451  1
  Te  Te19  1  0.25000000  0.12402365  0.81367549  1
loop_
_geom_bond_atom_site_label_1
_geom_bond_atom_site_label_2
_geom_bond_distance
_geom_bond_site_symmetry_2
Cs0 Te13 3.874889 1_555
Cs0 Te13 3.874889 1_455
Cs0 Te9 3.897067 1_455
Cs0 Te9 3.897067 1_555
Cs0 Te3 3.945176 1_555
Cs0 Te6 4.017064 1_554
Cs0 Te6 4.017064 1_454
Cs1 Te12 3.874889 1_555
Cs1 Te12 3.874889 1_655
Cs1 Te8 3.897067 1_555
Cs1 Te8 3.897067 1_655
Cs1 Te2 3.945176 1_555
Cs1 Te7 4.017064 1_556
Cs1 Te7 4.017064 1_656
Cs2 Te15 3.874889 1_665
Cs2 Te15 3.874889 1_565
Cs2 Te11 3.897067 1_555
Cs2 Te11 3.897067 1_655
Cs2 Te1 3.945176 1_555
Cs2 Te4 4.017064 1_655
Cs2 Te4 4.017064 1_555
Cs3 Te14 3.874889 1_445
Cs3 Te14 3.874889 1_545
Cs3 Te10 3.897067 1_555
Cs3 Te10 3.897067 1_455
Cs3 Te0 3.945176 1_555
Cs3 Te5 4.017064 1_455
Cs3 Te5 4.017064 1_555
Lu0 Te10 2.957190 1_555
Lu0 Te10 2.957190 1_455
Lu0 Te12 2.993987 1_555
Lu0 Te0 3.020235 1_555
Lu0 Te17 3.117133 1_555
Lu0 Te17 3.117133 1_455
Lu1 Te11 2.957190 1_655
Lu1 Te11 2.957190 1_555
Lu1 Te13 2.993987 1_555
Lu1 Te1 3.020235 1_555
Lu1 Te16 3.117133 1_655
Lu1 Te16 3.117133 1_555
Lu2 Te8 2.957190 1_655
Lu2 Te8 2.957190 1_555
Lu2 Te14 2.993987 1_555
Lu2 Te2 3.020235 1_555
Lu2 Te19 3.117133 1_565
Lu2 Te19 3.117133 1_665
Lu3 Te9 2.957190 1_455
Lu3 Te9 2.957190 1_555
Lu3 Te15 2.993987 1_555
Lu3 Te3 3.020235 1_555
Lu3 Te18 3.117133 1_445
Lu3 Te18 3.117133 1_545
Lu4 Te14 2.976748 1_555
Lu4 Te14 2.976748 1_455
Lu4 Te8 2.986369 1_555
Lu4 Te4 3.008716 1_555
Lu4 Te17 3.133079 1_555
Lu4 Te17 3.133079 1_455
Lu5 Te15 2.976748 1_555
Lu5 Te15 2.976748 1_655
Lu5 Te9 2.986369 1_555
Lu5 Te5 3.008716 1_555
Lu5 Te16 3.133079 1_655
Lu5 Te16 3.133079 1_555
Lu6 Te12 2.976748 1_655
Lu6 Te12 2.976748 1_555
Lu6 Te10 2.986369 1_555
Lu6 Te6 3.008716 1_555
Lu6 Te19 3.133079 1_655
Lu6 Te19 3.133079 1_555
Lu7 Te13 2.976748 1_555
Lu7 Te13 2.976748 1_455
Lu7 Te11 2.986369 1_555
Lu7 Te7 3.008716 1_555
Lu7 Te18 3.133079 1_455
Lu7 Te18 3.133079 1_555
Lu8 Te0 2.991754 1_555
Lu8 Te5 3.016804 1_555
Lu8 Te5 3.016804 1_455
Lu8 Te1 3.043449 1_555
Lu8 Te1 3.043449 1_455
Lu8 Te16 3.059245 1_555
Lu9 Te1 2.991754 1_555
Lu9 Te4 3.016804 1_655
Lu9 Te4 3.016804 1_555
Lu9 Te0 3.043449 1_655
Lu9 Te0 3.043449 1_555
Lu9 Te17 3.059245 1_555
Lu10 Te2 2.991754 1_554
Lu10 Te7 3.016804 1_555
Lu10 Te7 3.016804 1_655
Lu10 Te3 3.043449 1_565
Lu10 Te3 3.043449 1_665
Lu10 Te18 3.059245 1_555
Lu11 Te3 2.991754 1_556
Lu11 Te6 3.016804 1_555
Lu11 Te6 3.016804 1_455
Lu11 Te2 3.043449 1_545
Lu11 Te2 3.043449 1_445
Lu11 Te19 3.059245 1_555
