# generated using pymatgen
data_Rb2SrB2Pt7
_symmetry_space_group_name_H-M   'P 1'
_cell_length_a   8.53588759
_cell_length_b   8.53588709
_cell_length_c   8.53588704
_cell_angle_alpha   38.56585054
_cell_angle_beta   38.56585483
_cell_angle_gamma   38.56584851
_symmetry_Int_Tables_number   1
_chemical_formula_structural   Rb2SrB2Pt7
_chemical_formula_sum   'Rb2 Sr1 B2 Pt7'
_cell_volume   217.19909407
_cell_formula_units_Z   1
loop_
 _symmetry_equiv_pos_site_id
 _symmetry_equiv_pos_as_xyz
  1  'x, y, z'
loop_
 _atom_site_type_symbol
 _atom_site_label
 _atom_site_symmetry_multiplicity
 _atom_site_fract_x
 _atom_site_fract_y
 _atom_site_fract_z
 _atom_site_occupancy
  Rb  Rb0  1  0.85424137  0.85424137  0.85424137  1
  Rb  Rb1  1  0.14575863  0.14575863  0.14575863  1
  Sr  Sr0  1  0.00000000  0.00000000  0.00000000  1
  B  B0  1  0.66953783  0.66953783  0.66953783  1
  B  B1  1  0.33046217  0.33046217  0.33046217  1
  Pt  Pt0  1  0.44156063  0.93049817  0.44156063  1
  Pt  Pt1  1  0.44156063  0.44156063  0.93049817  1
  Pt  Pt2  1  0.93049817  0.44156063  0.44156063  1
  Pt  Pt3  1  0.55843937  0.06950183  0.55843937  1
  Pt  Pt4  1  0.55843937  0.55843937  0.06950183  1
  Pt  Pt5  1  0.06950183  0.55843937  0.55843937  1
  Pt  Pt6  1  0.50000000  0.50000000  0.50000000  1
loop_
_geom_bond_atom_site_label_1
_geom_bond_atom_site_label_2
_geom_bond_distance
_geom_bond_site_symmetry_2
Rb0 Rb1 3.402107 1_656
Rb0 Rb1 3.402107 1_665
Rb0 Rb1 3.402108 1_566
Rb0 Sr0 3.450518 1_666
Rb1 Sr0 3.450518 1_555
B0 Pt3 2.175962 1_565
B0 Pt4 2.175962 1_556
B0 Pt5 2.175962 1_655
B0 Pt0 2.213653 1_555
B0 Pt2 2.213653 1_555
B0 Pt1 2.213653 1_555
B0 Sr0 3.255617 1_656
B0 Sr0 3.255617 1_566
B0 Sr0 3.255617 1_665
B1 Pt0 2.175962 1_545
B1 Pt1 2.175962 1_554
B1 Pt2 2.175962 1_455
B1 Pt3 2.213653 1_555
B1 Pt5 2.213653 1_555
B1 Pt4 2.213653 1_555
B1 Sr0 3.255617 1_565
B1 Sr0 3.255617 1_655
B1 Sr0 3.255617 1_556
Pt0 Pt6 2.942295 1_555
Pt0 Sr0 3.179643 1_566
Pt0 Sr0 3.179643 1_665
Pt0 Rb1 3.403858 1_565
Pt0 Rb0 3.444811 1_554
Pt0 Rb0 3.444811 1_455
Pt1 Pt6 2.942295 1_555
Pt1 Sr0 3.179642 1_566
Pt1 Sr0 3.179642 1_656
Pt1 Rb1 3.403858 1_556
Pt1 Rb0 3.444811 1_545
Pt1 Rb0 3.444811 1_455
Pt2 Pt6 2.942295 1_555
Pt2 Sr0 3.179642 1_656
Pt2 Sr0 3.179642 1_665
Pt2 Rb1 3.403858 1_655
Pt2 Rb0 3.444811 1_554
Pt2 Rb0 3.444811 1_545
Pt3 Pt6 2.942295 1_555
Pt3 Sr0 3.179643 1_655
Pt3 Sr0 3.179643 1_556
Pt3 Rb0 3.403858 1_545
Pt3 Rb1 3.444811 1_556
Pt3 Rb1 3.444811 1_655
Pt4 Pt6 2.942295 1_555
Pt4 Sr0 3.179642 1_655
Pt4 Sr0 3.179642 1_565
Pt4 Rb0 3.403858 1_554
Pt4 Rb1 3.444811 1_565
Pt4 Rb1 3.444811 1_655
Pt5 Pt6 2.942295 1_555
Pt5 Sr0 3.179642 1_565
Pt5 Sr0 3.179642 1_556
Pt5 Rb0 3.403858 1_455
Pt5 Rb1 3.444811 1_556
Pt5 Rb1 3.444811 1_565
Pt6 Rb0 3.292324 1_545
Pt6 Rb1 3.292324 1_565
Pt6 Rb0 3.292325 1_455
Pt6 Rb1 3.292325 1_655
Pt6 Rb0 3.292325 1_554
Pt6 Rb1 3.292325 1_556
