# generated using pymatgen
data_Zr3Ga2
_symmetry_space_group_name_H-M   'P 1'
_cell_length_a   3.70419811
_cell_length_b   7.33371839
_cell_length_c   7.33371839
_cell_angle_alpha   90.00000000
_cell_angle_beta   90.00000000
_cell_angle_gamma   90.00000000
_symmetry_Int_Tables_number   1
_chemical_formula_structural   Zr3Ga2
_chemical_formula_sum   'Zr6 Ga4'
_cell_volume   199.22446280
_cell_formula_units_Z   2
loop_
 _symmetry_equiv_pos_site_id
 _symmetry_equiv_pos_as_xyz
  1  'x, y, z'
loop_
 _atom_site_type_symbol
 _atom_site_label
 _atom_site_symmetry_multiplicity
 _atom_site_fract_x
 _atom_site_fract_y
 _atom_site_fract_z
 _atom_site_occupancy
  Zr  Zr0  1  0.00000000  -0.00000000  0.00000000  1
  Zr  Zr1  1  0.00000000  0.50000000  0.50000000  1
  Zr  Zr2  1  0.50000000  0.17654120  0.67654120  1
  Zr  Zr3  1  0.50000000  0.32345880  0.17654120  1
  Zr  Zr4  1  0.50000000  0.67654120  0.82345880  1
  Zr  Zr5  1  0.50000000  0.82345880  0.32345880  1
  Ga  Ga0  1  -0.00000000  0.37697390  0.87697390  1
  Ga  Ga1  1  0.00000000  0.12302610  0.37697390  1
  Ga  Ga2  1  -0.00000000  0.87697390  0.62302610  1
  Ga  Ga3  1  0.00000000  0.62302610  0.12302610  1
loop_
_geom_bond_atom_site_label_1
_geom_bond_atom_site_label_2
_geom_bond_distance
_geom_bond_site_symmetry_2
Ga0 Ga3 2.551917 1_556
Ga0 Zr2 2.784166 1_455
Ga0 Zr2 2.784166 1_555
Ga0 Zr3 2.900147 1_456
Ga0 Zr3 2.900147 1_556
Ga0 Zr4 2.900147 1_555
Ga0 Zr4 2.900147 1_455
Ga0 Zr1 2.908120 1_555
Ga0 Zr0 2.908120 1_556
Ga1 Ga2 2.551917 1_545
Ga1 Zr3 2.784166 1_555
Ga1 Zr3 2.784166 1_455
Ga1 Zr2 2.900147 1_555
Ga1 Zr2 2.900147 1_455
Ga1 Zr5 2.900147 1_545
Ga1 Zr5 2.900147 1_445
Ga1 Zr0 2.908120 1_555
Ga1 Zr1 2.908120 1_555
Ga2 Zr4 2.784166 1_455
Ga2 Zr4 2.784166 1_555
Ga2 Zr2 2.900147 1_465
Ga2 Zr2 2.900147 1_565
Ga2 Zr5 2.900147 1_455
Ga2 Zr5 2.900147 1_555
Ga2 Zr1 2.908120 1_555
Ga2 Zr0 2.908120 1_566
Ga3 Zr5 2.784166 1_455
Ga3 Zr5 2.784166 1_555
Ga3 Zr3 2.900147 1_555
Ga3 Zr3 2.900147 1_455
Ga3 Zr4 2.900147 1_454
Ga3 Zr4 2.900147 1_554
Ga3 Zr1 2.908120 1_555
Ga3 Zr0 2.908120 1_565
