# generated using pymatgen
data_SrIr2
_symmetry_space_group_name_H-M   'P 1'
_cell_length_a   5.45252390
_cell_length_b   5.45251712
_cell_length_c   5.45252883
_cell_angle_alpha   59.99998492
_cell_angle_beta   60.00003980
_cell_angle_gamma   59.99995763
_symmetry_Int_Tables_number   1
_chemical_formula_structural   SrIr2
_chemical_formula_sum   'Sr2 Ir4'
_cell_volume   114.62452033
_cell_formula_units_Z   2
loop_
 _symmetry_equiv_pos_site_id
 _symmetry_equiv_pos_as_xyz
  1  'x, y, z'
loop_
 _atom_site_type_symbol
 _atom_site_label
 _atom_site_symmetry_multiplicity
 _atom_site_fract_x
 _atom_site_fract_y
 _atom_site_fract_z
 _atom_site_occupancy
  Sr  Sr0  1  0.12500000  0.12499900  0.12500100  1
  Sr  Sr1  1  0.87500000  0.87500100  0.87499900  1
  Ir  Ir0  1  -0.00000000  0.50000000  0.50000000  1
  Ir  Ir1  1  0.50000000  0.00000000  0.50000000  1
  Ir  Ir2  1  0.50000000  0.50000000  0.00000000  1
  Ir  Ir3  1  0.50000000  0.50000000  0.50000000  1
loop_
_geom_bond_atom_site_label_1
_geom_bond_atom_site_label_2
_geom_bond_distance
_geom_bond_site_symmetry_2
Sr0 Sr1 3.338970 1_445
Sr0 Sr1 3.338975 1_444
Sr0 Sr1 3.338975 1_544
Sr0 Sr1 3.338978 1_454
Ir0 Ir1 2.726259 1_555
Ir0 Ir1 2.726259 1_465
Ir0 Ir3 2.726262 1_555
Ir0 Ir3 2.726262 1_455
Ir0 Ir2 2.726265 1_555
Ir0 Ir2 2.726265 1_456
Ir0 Sr0 3.196817 1_565
Ir0 Sr1 3.196817 1_445
Ir0 Sr1 3.196825 1_455
Ir0 Sr0 3.196825 1_555
Ir0 Sr0 3.196832 1_556
Ir0 Sr1 3.196832 1_454
Ir1 Ir3 2.726259 1_555
Ir1 Ir3 2.726259 1_545
Ir1 Ir2 2.726261 1_555
Ir1 Ir2 2.726261 1_546
Ir1 Sr1 3.196824 1_545
Ir1 Sr0 3.196824 1_555
Ir1 Sr0 3.196824 1_655
Ir1 Sr1 3.196824 1_445
Ir1 Sr0 3.196831 1_556
Ir1 Sr1 3.196831 1_544
Ir2 Ir3 2.726264 1_555
Ir2 Ir3 2.726264 1_554
Ir2 Sr0 3.196819 1_565
Ir2 Sr1 3.196819 1_544
Ir2 Sr0 3.196826 1_655
Ir2 Sr1 3.196826 1_454
Ir2 Sr1 3.196826 1_554
Ir2 Sr0 3.196826 1_555
Ir3 Sr0 3.196817 1_565
Ir3 Sr1 3.196817 1_545
Ir3 Sr1 3.196825 1_455
Ir3 Sr0 3.196825 1_655
Ir3 Sr1 3.196832 1_554
Ir3 Sr0 3.196832 1_556
