# generated using pymatgen
data_Ba3(ScSe3)2
_symmetry_space_group_name_H-M   'P 1'
_cell_length_a   8.65460454
_cell_length_b   8.65460370
_cell_length_c   8.65460433
_cell_angle_alpha   93.57608492
_cell_angle_beta   93.57608508
_cell_angle_gamma   93.57607846
_symmetry_Int_Tables_number   1
_chemical_formula_structural   Ba3(ScSe3)2
_chemical_formula_sum   'Ba6 Sc4 Se12'
_cell_volume   644.29628854
_cell_formula_units_Z   2
loop_
 _symmetry_equiv_pos_site_id
 _symmetry_equiv_pos_as_xyz
  1  'x, y, z'
loop_
 _atom_site_type_symbol
 _atom_site_label
 _atom_site_symmetry_multiplicity
 _atom_site_fract_x
 _atom_site_fract_y
 _atom_site_fract_z
 _atom_site_occupancy
  Ba  Ba0  1  0.36682796  0.75000000  0.13317204  1
  Ba  Ba1  1  0.13317204  0.36682796  0.75000000  1
  Ba  Ba2  1  0.75000000  0.13317204  0.36682796  1
  Ba  Ba3  1  0.63317204  0.25000000  0.86682796  1
  Ba  Ba4  1  0.86682796  0.63317204  0.25000000  1
  Ba  Ba5  1  0.25000000  0.86682796  0.63317204  1
  Sc  Sc0  1  0.50000000  0.50000000  0.50000000  1
  Sc  Sc1  1  0.00000000  0.00000000  0.00000000  1
  Sc  Sc2  1  0.25000000  0.25000000  0.25000000  1
  Sc  Sc3  1  0.75000000  0.75000000  0.75000000  1
  Se  Se0  1  0.53101664  0.40670833  0.20051321  1
  Se  Se1  1  0.20051321  0.53101664  0.40670833  1
  Se  Se2  1  0.40670833  0.20051321  0.53101664  1
  Se  Se3  1  0.96898336  0.29948679  0.09329167  1
  Se  Se4  1  0.09329167  0.96898336  0.29948679  1
  Se  Se5  1  0.29948679  0.09329167  0.96898336  1
  Se  Se6  1  0.46898336  0.59329167  0.79948679  1
  Se  Se7  1  0.79948679  0.46898336  0.59329167  1
  Se  Se8  1  0.59329167  0.79948679  0.46898336  1
  Se  Se9  1  0.03101664  0.70051321  0.90670833  1
  Se  Se10  1  0.70051321  0.90670833  0.03101664  1
  Se  Se11  1  0.90670833  0.03101664  0.70051321  1
loop_
_geom_bond_atom_site_label_1
_geom_bond_atom_site_label_2
_geom_bond_distance
_geom_bond_site_symmetry_2
Ba0 Se6 3.307659 1_554
Ba0 Se10 3.307659 1_555
Ba0 Se8 3.391301 1_555
Ba0 Se9 3.391301 1_554
Ba0 Se0 3.438807 1_555
Ba0 Se5 3.438807 1_564
Ba0 Se4 3.451447 1_555
Ba0 Se1 3.451447 1_555
Ba1 Se9 3.307658 1_555
Ba1 Se7 3.307659 1_455
Ba1 Se11 3.391301 1_455
Ba1 Se6 3.391301 1_555
Ba1 Se1 3.438807 1_555
Ba1 Se3 3.438807 1_456
Ba1 Se5 3.451447 1_555
Ba1 Se2 3.451447 1_555
Ba2 Se11 3.307659 1_555
Ba2 Se8 3.307659 1_545
Ba2 Se7 3.391301 1_555
Ba2 Se10 3.391301 1_545
Ba2 Se4 3.438807 1_645
Ba2 Se2 3.438807 1_555
Ba2 Se0 3.451447 1_555
Ba2 Se3 3.451447 1_555
Ba3 Se0 3.307659 1_556
Ba3 Se5 3.307659 1_555
Ba3 Se2 3.391301 1_555
Ba3 Se3 3.391301 1_556
Ba3 Se6 3.438807 1_555
Ba3 Se10 3.438807 1_546
Ba3 Se11 3.451447 1_555
Ba3 Se7 3.451447 1_555
Ba4 Se3 3.307658 1_555
Ba4 Se1 3.307659 1_655
Ba4 Se4 3.391301 1_655
Ba4 Se0 3.391301 1_555
Ba4 Se7 3.438807 1_555
Ba4 Se9 3.438807 1_654
Ba4 Se10 3.451447 1_555
Ba4 Se8 3.451447 1_555
Ba5 Se4 3.307659 1_555
Ba5 Se2 3.307659 1_565
Ba5 Se1 3.391301 1_555
Ba5 Se5 3.391301 1_565
Ba5 Se11 3.438807 1_465
Ba5 Se8 3.438807 1_555
Ba5 Se6 3.451447 1_555
Ba5 Se9 3.451447 1_555
Sc0 Se2 2.700903 1_555
Sc0 Se8 2.700903 1_555
Sc0 Se6 2.700903 1_555
Sc0 Se0 2.700903 1_555
Sc0 Se7 2.700903 1_555
Sc0 Se1 2.700903 1_555
Sc1 Se9 2.700903 1_544
Sc1 Se3 2.700903 1_455
Sc1 Se11 2.700903 1_454
Sc1 Se4 2.700903 1_545
Sc1 Se10 2.700903 1_445
Sc1 Se5 2.700903 1_554
Sc2 Se1 2.780074 1_555
Sc2 Se5 2.780074 1_554
Sc2 Se2 2.780074 1_555
Sc2 Se4 2.780074 1_545
Sc2 Se3 2.780074 1_455
Sc2 Se0 2.780074 1_555
Sc3 Se7 2.780074 1_555
Sc3 Se10 2.780074 1_556
Sc3 Se8 2.780074 1_555
Sc3 Se11 2.780074 1_565
Sc3 Se9 2.780074 1_655
Sc3 Se6 2.780074 1_555
