# generated using pymatgen
data_RbZnRhF6
_symmetry_space_group_name_H-M   'P 1'
_cell_length_a   7.33837620
_cell_length_b   7.33837655
_cell_length_c   7.33837671
_cell_angle_alpha   120.42540651
_cell_angle_beta   120.73576808
_cell_angle_gamma   88.99751694
_symmetry_Int_Tables_number   1
_chemical_formula_structural   RbZnRhF6
_chemical_formula_sum   'Rb2 Zn2 Rh2 F12'
_cell_volume   276.93688457
_cell_formula_units_Z   2
loop_
 _symmetry_equiv_pos_site_id
 _symmetry_equiv_pos_as_xyz
  1  'x, y, z'
loop_
 _atom_site_type_symbol
 _atom_site_label
 _atom_site_symmetry_multiplicity
 _atom_site_fract_x
 _atom_site_fract_y
 _atom_site_fract_z
 _atom_site_occupancy
  Rb  Rb0  1  0.35790161  0.60790161  0.75000000  1
  Rb  Rb1  1  0.64209839  0.39209839  0.25000000  1
  Zn  Zn0  1  0.00000000  0.00000000  0.50000000  1
  Zn  Zn1  1  0.00000000  0.50000000  0.00000000  1
  Rh  Rh0  1  0.00000000  0.00000000  0.00000000  1
  Rh  Rh1  1  0.50000000  0.00000000  0.50000000  1
  F  F0  1  0.32755994  0.07755994  0.25000000  1
  F  F1  1  0.93017934  0.68017934  0.25000000  1
  F  F2  1  0.33402554  0.67583723  0.25439502  1
  F  F3  1  0.92144221  0.07963052  0.24560498  1
  F  F4  1  0.33402554  0.07963052  0.65818831  1
  F  F5  1  0.92144221  0.67583723  0.84181169  1
  F  F6  1  0.67244006  0.92244006  0.75000000  1
  F  F7  1  0.06982066  0.31982066  0.75000000  1
  F  F8  1  0.66597446  0.32416277  0.74560498  1
  F  F9  1  0.07855779  0.92036948  0.75439502  1
  F  F10  1  0.66597446  0.92036948  0.34181169  1
  F  F11  1  0.07855779  0.32416277  0.15818831  1
loop_
_geom_bond_atom_site_label_1
_geom_bond_atom_site_label_2
_geom_bond_distance
_geom_bond_site_symmetry_2
F0 Rh0 1.987557 1_555
F0 Rh1 1.987557 1_555
F0 Rb1 3.292722 1_555
F1 Zn0 1.963868 1_665
F1 Zn1 1.963868 1_655
F1 Rb1 3.015753 1_555
F2 Rh1 1.976305 1_565
F2 Zn1 2.037642 1_555
F2 Rb1 3.047841 1_555
F3 Rh0 1.976305 1_655
F3 Zn0 2.037643 1_655
F3 Rb1 3.047841 1_555
F4 Rh1 1.976305 1_555
F4 Zn0 2.037642 1_555
F4 Rb1 3.047841 1_556
F5 Rh0 1.976305 1_666
F5 Zn1 2.037643 1_656
F5 Rb1 3.047841 1_555
F6 Rh0 1.987557 1_666
F6 Rh1 1.987557 1_565
F6 Rb0 3.292722 1_555
F7 Zn0 1.963868 1_555
F7 Zn1 1.963868 1_556
F7 Rb0 3.015753 1_555
F8 Rh1 1.976305 1_555
F8 Zn1 2.037642 1_656
F8 Rb0 3.047841 1_555
F9 Rh0 1.976305 1_566
F9 Zn0 2.037643 1_565
F9 Rb0 3.047841 1_555
F10 Rh1 1.976305 1_565
F10 Zn0 2.037642 1_665
F10 Rb0 3.047841 1_554
F11 Rh0 1.976305 1_555
F11 Zn1 2.037643 1_555
F11 Rb0 3.047841 1_555
