# generated using pymatgen
data_Re3SiAs6
_symmetry_space_group_name_H-M   'P 1'
_cell_length_a   7.55997155
_cell_length_b   7.55997247
_cell_length_c   7.56003327
_cell_angle_alpha   109.44609641
_cell_angle_beta   109.44609633
_cell_angle_gamma   109.52114861
_symmetry_Int_Tables_number   1
_chemical_formula_structural   Re3SiAs6
_chemical_formula_sum   'Re6 Si2 As12'
_cell_volume   332.61644906
_cell_formula_units_Z   2
loop_
 _symmetry_equiv_pos_site_id
 _symmetry_equiv_pos_as_xyz
  1  'x, y, z'
loop_
 _atom_site_type_symbol
 _atom_site_label
 _atom_site_symmetry_multiplicity
 _atom_site_fract_x
 _atom_site_fract_y
 _atom_site_fract_z
 _atom_site_occupancy
  Re  Re0  1  0.33921459  0.99961880  0.33883339  1
  Re  Re1  1  0.99961880  0.33921459  0.33883339  1
  Re  Re2  1  0.99950686  0.66084720  0.66035406  1
  Re  Re3  1  0.33913072  0.33913072  0.00080497  1
  Re  Re4  1  0.66167425  0.66167425  0.00080497  1
  Re  Re5  1  0.66084720  0.99950686  0.66035406  1
  Si  Si0  1  0.74789682  0.50357458  0.25147139  1
  Si  Si1  1  0.50357458  0.74789682  0.25147139  1
  As  As0  1  0.50306910  0.25146425  0.75453235  1
  As  As1  1  0.74723124  0.24723124  0.49446148  1
  As  As2  1  0.24723124  0.74723124  0.49446148  1
  As  As3  1  0.25146425  0.50306910  0.75453235  1
  As  As4  1  0.99778675  0.99778675  0.33069336  1
  As  As5  1  0.66832651  0.00025639  0.00121047  1
  As  As6  1  0.00025639  0.66832651  0.00121047  1
  As  As7  1  0.33290661  0.33290661  0.33069336  1
  As  As8  1  0.00095408  0.33288396  0.00121047  1
  As  As9  1  0.66823801  0.66823801  0.66642706  1
  As  As10  1  0.33288396  0.00095408  0.00121047  1
  As  As11  1  0.99819004  0.99819004  0.66642706  1
loop_
_geom_bond_atom_site_label_1
_geom_bond_atom_site_label_2
_geom_bond_distance
_geom_bond_site_symmetry_2
Re0 Si1 2.625157 1_555
Re1 Si0 2.625157 1_555
Re2 Si0 2.591039 1_555
Re3 Si0 2.578952 1_555
Re3 Si1 2.578953 1_555
Re4 Si1 2.578952 1_555
Re4 Si0 2.578952 1_555
Re5 Si1 2.591039 1_555
As0 Re4 2.589485 1_556
As0 Re3 2.589490 1_556
As0 Re5 2.595922 1_545
As0 Re0 2.623673 1_545
As1 Re1 2.580941 1_555
As1 Re0 2.580949 1_545
As1 Re2 2.607407 1_555
As1 Re5 2.607414 1_545
As2 Re0 2.580941 1_555
As2 Re1 2.580949 1_455
As2 Re5 2.607406 1_555
As2 Re2 2.607414 1_455
As3 Re4 2.589485 1_556
As3 Re3 2.589490 1_556
As3 Re2 2.595922 1_455
As3 Re1 2.623673 1_455
As4 Re4 2.525687 1_555
As4 Re0 2.556613 1_655
As4 Re1 2.556613 1_565
As5 Re1 2.540371 1_555
As5 Re4 2.542263 1_545
As5 Re5 2.556681 1_544
As6 As8 2.537704 1_555
As6 Re0 2.540371 1_555
As6 Re4 2.542262 1_455
As6 Re2 2.556681 1_454
As7 Re3 2.525687 1_555
As7 As9 2.536135 1_555
As7 Re1 2.556613 1_455
As7 Re0 2.556613 1_545
As8 Re1 2.540371 1_455
As8 Re3 2.542262 1_555
As8 Re5 2.556681 1_444
As9 Re2 2.538805 1_555
As9 Re5 2.538806 1_555
As9 Re4 2.561375 1_556
As10 As5 2.537703 1_555
As10 Re0 2.540371 1_545
As10 Re3 2.542263 1_555
As10 Re2 2.556681 1_444
As11 As4 2.536129 1_555
As11 Re5 2.538810 1_555
As11 Re2 2.538811 1_555
As11 Re3 2.561370 1_666
