# generated using pymatgen
data_K3Li2TaAs3
_symmetry_space_group_name_H-M   'P 1'
_cell_length_a   9.99465796
_cell_length_b   9.99465827
_cell_length_c   15.17827153
_cell_angle_alpha   90.00000000
_cell_angle_beta   90.00000000
_cell_angle_gamma   142.42821169
_symmetry_Int_Tables_number   1
_chemical_formula_structural   K3Li2TaAs3
_chemical_formula_sum   'K12 Li8 Ta4 As12'
_cell_volume   924.51413878
_cell_formula_units_Z   4
loop_
 _symmetry_equiv_pos_site_id
 _symmetry_equiv_pos_as_xyz
  1  'x, y, z'
loop_
 _atom_site_type_symbol
 _atom_site_label
 _atom_site_symmetry_multiplicity
 _atom_site_fract_x
 _atom_site_fract_y
 _atom_site_fract_z
 _atom_site_occupancy
  K  K0  1  0.60920513  0.94776620  0.82778972  1
  K  K1  1  0.28527096  0.28527096  0.31675493  1
  K  K2  1  0.21472904  0.21472904  0.81675493  1
  K  K3  1  0.71472904  0.71472904  0.68324507  1
  K  K4  1  0.44776620  0.10920513  0.67221028  1
  K  K5  1  0.89079487  0.55223380  0.32778972  1
  K  K6  1  0.05223380  0.39079487  0.17221028  1
  K  K7  1  0.39079487  0.05223380  0.17221028  1
  K  K8  1  0.55223380  0.89079487  0.32778972  1
  K  K9  1  0.10920513  0.44776620  0.67221028  1
  K  K10  1  0.94776620  0.60920513  0.82778972  1
  K  K11  1  0.78527096  0.78527096  0.18324507  1
  Li  Li0  1  0.08289481  0.91710519  0.00000000  1
  Li  Li1  1  0.58289481  0.41710519  0.50000000  1
  Li  Li2  1  0.91710519  0.08289481  0.00000000  1
  Li  Li3  1  0.75002653  0.24997347  0.00000000  1
  Li  Li4  1  0.74997347  0.25002653  0.50000000  1
  Li  Li5  1  0.24997347  0.75002653  0.00000000  1
  Li  Li6  1  0.25002653  0.74997347  0.50000000  1
  Li  Li7  1  0.41710519  0.58289481  0.50000000  1
  Ta  Ta0  1  0.08187181  0.91812819  0.50000000  1
  Ta  Ta1  1  0.41812819  0.58187181  0.00000000  1
  Ta  Ta2  1  0.91812819  0.08187181  0.50000000  1
  Ta  Ta3  1  0.58187181  0.41812819  0.00000000  1
  As  As0  1  0.06540878  0.38431665  0.40724323  1
  As  As1  1  0.88431665  0.56540878  0.09275677  1
  As  As2  1  0.43459122  0.11568335  0.90724323  1
  As  As3  1  0.61568335  0.93459122  0.59275677  1
  As  As4  1  0.93459122  0.61568335  0.59275677  1
  As  As5  1  0.11568335  0.43459122  0.90724323  1
  As  As6  1  0.56540878  0.88431665  0.09275677  1
  As  As7  1  0.38431665  0.06540878  0.40724323  1
  As  As8  1  0.23025301  0.23025301  0.59235467  1
  As  As9  1  0.73025301  0.73025301  0.90764533  1
  As  As10  1  0.26974699  0.26974699  0.09235467  1
  As  As11  1  0.76974699  0.76974699  0.40764533  1
loop_
_geom_bond_atom_site_label_1
_geom_bond_atom_site_label_2
_geom_bond_distance
_geom_bond_site_symmetry_2
As0 Ta2 2.496594 1_455
As0 Li4 2.648640 1_455
As0 Li7 2.686660 1_555
As0 Li6 2.837866 1_555
As0 K1 3.338170 1_555
As0 K8 3.421999 1_555
As0 K5 3.458265 1_455
As0 K8 3.462308 1_445
As0 K6 3.572303 1_555
As1 Ta3 2.496594 1_555
As1 Li3 2.648640 1_555
As1 Li0 2.686660 1_655
As1 Li5 2.837866 1_655
As1 K11 3.338170 1_555
As1 K7 3.421999 1_665
As1 K6 3.458265 1_655
As1 K7 3.462308 1_555
As1 K5 3.572303 1_555
As2 Ta3 2.496594 1_556
As2 Li3 2.648640 1_556
As2 Li0 2.686660 1_546
As2 Li5 2.837866 1_546
As2 K2 3.338170 1_555
As2 K10 3.421999 1_445
As2 K0 3.458265 1_545
As2 K10 3.462308 1_555
As2 K4 3.572303 1_555
As3 Ta2 2.496594 1_565
As3 Li4 2.648640 1_565
As3 Li7 2.686660 1_555
As3 Li6 2.837866 1_555
As3 K3 3.338170 1_555
As3 K9 3.421999 1_555
As3 K4 3.458265 1_565
As3 K9 3.462308 1_665
As3 K0 3.572303 1_555
As4 Ta0 2.496594 1_655
As4 Li6 2.648640 1_655
As4 Li1 2.686660 1_555
As4 Li4 2.837866 1_555
As4 K3 3.338170 1_555
As4 K4 3.421999 1_555
As4 K9 3.458265 1_655
As4 K4 3.462308 1_665
As4 K10 3.572303 1_555
As5 Ta1 2.496594 1_556
As5 Li5 2.648640 1_556
As5 Li2 2.686660 1_456
As5 Li3 2.837866 1_456
As5 K2 3.338170 1_555
As5 K0 3.421999 1_445
As5 K10 3.458265 1_455
As5 K0 3.462308 1_555
As5 K9 3.572303 1_555
As6 Ta1 2.496594 1_555
As6 Li5 2.648640 1_555
As6 Li2 2.686660 1_565
As6 Li3 2.837866 1_565
As6 K11 3.338170 1_555
As6 K6 3.421999 1_665
As6 K7 3.458265 1_565
As6 K6 3.462308 1_555
As6 K8 3.572303 1_555
As7 Ta0 2.496594 1_545
As7 Li6 2.648640 1_545
As7 Li1 2.686660 1_555
As7 Li4 2.837866 1_555
As7 K1 3.338170 1_555
As7 K5 3.421999 1_555
As7 K8 3.458265 1_545
As7 K5 3.462308 1_445
As7 K7 3.572303 1_555
As8 Ta2 2.561729 1_455
As8 Ta0 2.561729 1_545
As8 Li1 2.727836 1_555
As8 Li7 2.727836 1_555
As8 K2 3.407474 1_555
As8 K3 3.410178 1_555
As8 K4 3.439214 1_555
As8 K9 3.439214 1_555
As8 K3 3.593866 1_445
As9 Ta1 2.561729 1_556
As9 Ta3 2.561729 1_556
As9 Li0 2.727836 1_656
As9 Li2 2.727836 1_566
As9 K3 3.407474 1_555
As9 K2 3.410178 1_665
As9 K10 3.439214 1_555
As9 K0 3.439214 1_555
As9 K2 3.593866 1_555
As10 Ta3 2.561729 1_555
As10 Ta1 2.561729 1_555
As10 Li2 2.727836 1_455
As10 Li0 2.727836 1_545
As10 K1 3.407474 1_555
As10 K11 3.410178 1_445
As10 K6 3.439214 1_555
As10 K7 3.439214 1_555
As10 K11 3.593866 1_555
As11 Ta0 2.561729 1_655
As11 Ta2 2.561729 1_565
As11 Li7 2.727836 1_555
As11 Li1 2.727836 1_555
As11 K11 3.407474 1_555
As11 K1 3.410178 1_555
As11 K8 3.439214 1_555
As11 K5 3.439214 1_555
As11 K1 3.593866 1_665
