# generated using pymatgen
data_HIrPb2F10
_symmetry_space_group_name_H-M   'P 1'
_cell_length_a   4.56863270
_cell_length_b   4.75508888
_cell_length_c   9.26955862
_cell_angle_alpha   86.05973523
_cell_angle_beta   77.68173695
_cell_angle_gamma   82.74708009
_symmetry_Int_Tables_number   1
_chemical_formula_structural   HIrPb2F10
_chemical_formula_sum   'H1 Ir1 Pb2 F10'
_cell_volume   194.98248834
_cell_formula_units_Z   1
loop_
 _symmetry_equiv_pos_site_id
 _symmetry_equiv_pos_as_xyz
  1  'x, y, z'
loop_
 _atom_site_type_symbol
 _atom_site_label
 _atom_site_symmetry_multiplicity
 _atom_site_fract_x
 _atom_site_fract_y
 _atom_site_fract_z
 _atom_site_occupancy
  H  H0  1  0.49999309  0.50003702  0.49999746  1
  Ir  Ir0  1  0.99998862  0.49995790  0.00001856  1
  Pb  Pb0  1  0.31783962  0.02982983  0.32071777  1
  Pb  Pb1  1  0.68217063  0.97023127  0.67926905  1
  F  F0  1  0.62868232  0.72385286  0.03893794  1
  F  F1  1  0.83910370  0.18836699  0.12082949  1
  F  F2  1  0.07987487  0.61063423  0.18206481  1
  F  F3  1  0.39694285  0.52735709  0.39746994  1
  F  F4  1  0.78416701  0.98243881  0.42256805  1
  F  F5  1  0.21583146  0.01764140  0.57742003  1
  F  F6  1  0.60304431  0.47272546  0.60252359  1
  F  F7  1  0.92012210  0.38928719  0.81792724  1
  F  F8  1  0.16090482  0.81157193  0.87918185  1
  F  F9  1  0.37133261  0.27607203  0.96107522  1
loop_
_geom_bond_atom_site_label_1
_geom_bond_atom_site_label_2
_geom_bond_distance
_geom_bond_site_symmetry_2
F0 Ir0 1.864644 1_555
F1 Ir0 1.919728 1_555
F2 Ir0 1.921230 1_455
F3 H0 1.140291 1_555
F3 Pb0 2.450225 1_565
F3 Pb0 2.605885 1_555
F4 Pb1 2.323207 1_555
F4 Pb0 2.452353 1_665
F4 Pb0 2.487735 1_565
F5 Pb0 2.323219 1_555
F5 Pb1 2.452319 1_445
F5 Pb1 2.487775 1_545
F6 H0 1.140281 1_555
F6 Pb1 2.450314 1_545
F6 Pb1 2.605798 1_555
F7 Ir0 1.921575 1_556
F8 Ir0 1.919971 1_456
F9 Ir0 1.864770 1_456
