# generated using pymatgen
data_Hf9ZrSn6Ge
_symmetry_space_group_name_H-M   'P 1'
_cell_length_a   5.80665178
_cell_length_b   8.49385659
_cell_length_c   8.49022035
_cell_angle_alpha   119.98569332
_cell_angle_beta   89.82882072
_cell_angle_gamma   90.08548348
_symmetry_Int_Tables_number   1
_chemical_formula_structural   Hf9ZrSn6Ge
_chemical_formula_sum   'Hf9 Zr1 Sn6 Ge1'
_cell_volume   362.69448649
_cell_formula_units_Z   1
loop_
 _symmetry_equiv_pos_site_id
 _symmetry_equiv_pos_as_xyz
  1  'x, y, z'
loop_
 _atom_site_type_symbol
 _atom_site_label
 _atom_site_symmetry_multiplicity
 _atom_site_fract_x
 _atom_site_fract_y
 _atom_site_fract_z
 _atom_site_occupancy
  Hf  Hf0  1  0.49985413  0.33332599  0.66668736  1
  Hf  Hf1  1  0.49985233  0.66667318  0.33336377  1
  Hf  Hf2  1  0.99955122  0.66695907  0.33321825  1
  Hf  Hf3  1  0.99954978  0.33304231  0.66626447  1
  Hf  Hf4  1  0.76043996  0.25618634  0.00091115  1
  Hf  Hf5  1  0.76043899  0.74383296  0.74470048  1
  Hf  Hf6  1  0.76378950  0.99997671  0.25496932  1
  Hf  Hf7  1  0.23876191  0.74480997  0.99959895  1
  Hf  Hf8  1  0.23877505  0.25521340  0.25476993  1
  Zr  Zr0  1  0.23796270  0.99998053  0.74559097  1
  Sn  Sn0  1  0.74571657  0.60720198  0.99995353  1
  Sn  Sn1  1  0.74572987  0.39281082  0.39273808  1
  Sn  Sn2  1  0.74519283  0.99998534  0.60763133  1
  Sn  Sn3  1  0.25361740  0.39405081  0.00065981  1
  Sn  Sn4  1  0.25361130  0.60595913  0.60659487  1
  Sn  Sn5  1  0.25555454  0.99999207  0.39128267  1
  Ge  Ge0  1  0.50159990  0.99999939  0.00106406  1
loop_
_geom_bond_atom_site_label_1
_geom_bond_atom_site_label_2
_geom_bond_distance
_geom_bond_site_symmetry_2
Hf0 Sn1 2.975917 1_555
Hf0 Sn4 2.976988 1_555
Hf0 Sn3 2.977675 1_556
Hf0 Sn2 2.980965 1_545
Hf0 Sn5 2.981001 1_545
Hf0 Sn0 2.981718 1_555
Hf1 Sn0 2.975746 1_554
Hf1 Sn3 2.976844 1_555
Hf1 Sn4 2.977513 1_555
Hf1 Sn2 2.980797 1_555
Hf1 Sn5 2.980905 1_555
Hf1 Sn1 2.981576 1_555
Hf2 Sn3 2.994168 1_655
Hf2 Sn1 3.001897 1_555
Hf2 Sn2 3.002562 1_555
Hf2 Sn0 3.003874 1_554
Hf2 Sn5 3.008728 1_655
Hf2 Sn4 3.009444 1_655
Hf3 Sn4 2.994306 1_655
Hf3 Sn0 3.002062 1_555
Hf3 Sn2 3.002730 1_545
Hf3 Sn1 3.004020 1_555
Hf3 Sn5 3.008847 1_645
Hf3 Sn3 3.009583 1_656
Hf4 Sn1 2.925856 1_555
Hf4 Sn2 2.937803 1_544
Hf4 Sn0 2.986900 1_554
Hf4 Sn3 3.092658 1_655
Hf4 Sn3 3.169381 1_555
Hf5 Sn0 2.926299 1_555
Hf5 Sn2 2.937345 1_555
Hf5 Sn1 2.986886 1_555
Hf5 Sn4 3.092628 1_655
Hf5 Sn4 3.169410 1_555
Hf6 Sn0 2.934118 1_554
Hf6 Sn1 2.934571 1_565
Hf6 Sn2 2.995766 1_555
Hf6 Sn5 3.084305 1_655
Hf6 Sn5 3.166718 1_555
Hf7 Sn5 2.926228 1_556
Hf7 Sn4 2.932054 1_555
Hf7 Sn3 2.985186 1_556
Hf7 Sn0 3.091290 1_455
Hf7 Sn0 3.169450 1_555
Hf8 Sn5 2.926603 1_545
Hf8 Sn3 2.931617 1_555
Hf8 Sn4 2.985153 1_555
Hf8 Sn1 3.091280 1_455
Hf8 Sn1 3.169447 1_555
Sn2 Zr0 3.095048 1_655
Sn2 Zr0 3.166424 1_555
Sn3 Zr0 2.942180 1_544
Sn4 Zr0 2.941795 1_555
Sn5 Zr0 3.009633 1_555
Ge0 Hf6 2.642906 1_555
Ge0 Hf4 2.643310 1_565
Ge0 Hf5 2.643319 1_554
Ge0 Hf8 2.644030 1_565
Ge0 Hf7 2.644050 1_554
Ge0 Zr0 2.658506 1_554
