# generated using pymatgen
data_ZrBe8MoOs2
_symmetry_space_group_name_H-M   'P 1'
_cell_length_a   4.44198931
_cell_length_b   4.44198835
_cell_length_c   7.39410313
_cell_angle_alpha   90.00000000
_cell_angle_beta   90.00000000
_cell_angle_gamma   119.99999978
_symmetry_Int_Tables_number   1
_chemical_formula_structural   ZrBe8MoOs2
_chemical_formula_sum   'Zr1 Be8 Mo1 Os2'
_cell_volume   126.34878202
_cell_formula_units_Z   1
loop_
 _symmetry_equiv_pos_site_id
 _symmetry_equiv_pos_as_xyz
  1  'x, y, z'
loop_
 _atom_site_type_symbol
 _atom_site_label
 _atom_site_symmetry_multiplicity
 _atom_site_fract_x
 _atom_site_fract_y
 _atom_site_fract_z
 _atom_site_occupancy
  Zr  Zr0  1  0.33333300  0.66666700  0.43874628  1
  Be  Be0  1  0.00000000  0.00000000  0.51336644  1
  Be  Be1  1  0.00000000  0.00000000  0.99613647  1
  Be  Be2  1  0.83045324  0.16954676  0.23731841  1
  Be  Be3  1  0.83045324  0.66090547  0.23731841  1
  Be  Be4  1  0.33909453  0.16954676  0.23731841  1
  Be  Be5  1  0.16860186  0.83139814  0.75780202  1
  Be  Be6  1  0.16860186  0.33720373  0.75780202  1
  Be  Be7  1  0.66279627  0.83139814  0.75780202  1
  Mo  Mo0  1  0.33333300  0.66666700  0.05523317  1
  Os  Os0  1  0.66666700  0.33333300  0.57241409  1
  Os  Os1  1  0.66666700  0.33333300  0.93874225  1
loop_
_geom_bond_atom_site_label_1
_geom_bond_atom_site_label_2
_geom_bond_distance
_geom_bond_site_symmetry_2
Be0 Be6 2.224704 1_555
Be0 Be5 2.224704 1_545
Be0 Be7 2.224704 1_445
Be0 Be2 2.422353 1_455
Be0 Be3 2.422355 1_445
Be0 Be4 2.422355 1_555
Be0 Os0 2.601480 1_455
Be0 Os0 2.601484 1_445
Be0 Os0 2.601484 1_555
Be0 Zr0 2.623262 1_545
Be0 Zr0 2.623265 1_555
Be0 Zr0 2.623266 1_445
Be1 Be6 2.188212 1_555
Be1 Be5 2.188212 1_545
Be1 Be7 2.188212 1_445
Be1 Be2 2.209488 1_456
Be1 Be3 2.209490 1_446
Be1 Be4 2.209490 1_556
Be1 Os1 2.599456 1_455
Be1 Os1 2.599460 1_445
Be1 Os1 2.599460 1_555
Be1 Mo0 2.601541 1_546
Be1 Mo0 2.601544 1_556
Be1 Mo0 2.601545 1_446
Be2 Be3 2.182610 1_555
Be2 Be4 2.182610 1_555
Be2 Be3 2.259379 1_545
Be2 Be4 2.259379 1_655
Be2 Os1 2.542023 1_554
Be2 Mo0 2.597303 1_545
Be2 Mo0 2.597303 1_655
Be2 Zr0 2.674239 1_545
Be2 Zr0 2.674239 1_655
Be2 Os0 2.779763 1_555
Be3 Be4 2.182610 1_555
Be3 Be4 2.259379 1_665
Be3 Os1 2.542023 1_554
Be3 Mo0 2.597300 1_655
Be3 Mo0 2.597307 1_555
Be3 Zr0 2.674236 1_655
Be3 Zr0 2.674243 1_555
Be3 Os0 2.779763 1_555
Be4 Os1 2.542023 1_554
Be4 Mo0 2.597299 1_545
Be4 Mo0 2.597307 1_555
Be4 Zr0 2.674235 1_545
Be4 Zr0 2.674243 1_555
Be4 Os0 2.779763 1_555
Be5 Be6 2.195206 1_555
Be5 Be7 2.195206 1_555
Be5 Be6 2.246783 1_565
Be5 Be7 2.246783 1_455
Be5 Mo0 2.538296 1_556
Be5 Os1 2.592873 1_565
Be5 Os1 2.592873 1_455
Be5 Os0 2.609994 1_565
Be5 Os0 2.609994 1_455
Be5 Zr0 2.678022 1_555
Be6 Be7 2.195206 1_555
Be6 Be7 2.246783 1_445
Be6 Mo0 2.538297 1_556
Be6 Os1 2.592871 1_455
Be6 Os1 2.592875 1_555
Be6 Os0 2.609992 1_455
Be6 Os0 2.609996 1_555
Be6 Zr0 2.678024 1_555
Be7 Mo0 2.538298 1_556
Be7 Os1 2.592871 1_565
Be7 Os1 2.592875 1_555
Be7 Os0 2.609992 1_565
Be7 Os0 2.609996 1_555
Be7 Zr0 2.678024 1_555
Mo0 Os1 2.705363 1_564
Mo0 Os1 2.705364 1_454
Mo0 Os1 2.705371 1_554
Mo0 Zr0 2.835736 1_555
Os0 Os1 2.708668 1_555
Os0 Zr0 2.748439 1_545
Os0 Zr0 2.748439 1_655
Os0 Zr0 2.748446 1_555
