# generated using pymatgen
data_BaAlZnGa2
_symmetry_space_group_name_H-M   'P 1'
_cell_length_a   6.38692685
_cell_length_b   6.38692686
_cell_length_c   6.38692610
_cell_angle_alpha   139.00991923
_cell_angle_beta   139.00992155
_cell_angle_gamma   59.35972256
_symmetry_Int_Tables_number   1
_chemical_formula_structural   BaAlZnGa2
_chemical_formula_sum   'Ba1 Al1 Zn1 Ga2'
_cell_volume   110.99612774
_cell_formula_units_Z   1
loop_
 _symmetry_equiv_pos_site_id
 _symmetry_equiv_pos_as_xyz
  1  'x, y, z'
loop_
 _atom_site_type_symbol
 _atom_site_label
 _atom_site_symmetry_multiplicity
 _atom_site_fract_x
 _atom_site_fract_y
 _atom_site_fract_z
 _atom_site_occupancy
  Ba  Ba0  1  0.00000000  0.00000000  0.00000000  1
  Al  Al0  1  0.25000000  0.75000000  0.50000000  1
  Zn  Zn0  1  0.75000000  0.25000000  0.50000000  1
  Ga  Ga0  1  0.37968239  0.37968239  0.00000000  1
  Ga  Ga1  1  0.62031761  0.62031761  1.00000000  1
loop_
_geom_bond_atom_site_label_1
_geom_bond_atom_site_label_2
_geom_bond_distance
_geom_bond_site_symmetry_2
Ba0 Ga0 3.432847 1_556
Ba0 Ga1 3.432847 1_443
Ba0 Ga1 3.432847 1_544
Ba0 Ga0 3.432847 1_455
Ba0 Ga1 3.432847 1_454
Ba0 Ga0 3.432847 1_545
Ba0 Ga1 3.432848 1_555
Ba0 Ga0 3.432848 1_444
Ba0 Zn0 3.563505 1_454
Ba0 Zn0 3.563505 1_455
Ba0 Zn0 3.563506 1_555
Ba0 Zn0 3.563506 1_444
Al0 Ga1 2.659336 1_555
Al0 Ga0 2.659336 1_555
Al0 Ga1 2.659336 1_454
Al0 Ga0 2.659336 1_566
Al0 Ba0 3.563505 1_565
Al0 Ba0 3.563505 1_566
Al0 Ba0 3.563506 1_666
Al0 Ba0 3.563506 1_555
Ga0 Zn0 2.659336 1_555
Ga0 Zn0 2.659336 1_454
Ga0 Ga1 2.670569 1_554
Ga1 Zn0 2.659336 1_555
Ga1 Zn0 2.659336 1_566
