# generated using pymatgen
data_LiY12Ni4Sn
_symmetry_space_group_name_H-M   'P 1'
_cell_length_a   8.40499870
_cell_length_b   8.40516638
_cell_length_c   8.40499834
_cell_angle_alpha   106.95908651
_cell_angle_beta   109.57655955
_cell_angle_gamma   111.91506493
_symmetry_Int_Tables_number   1
_chemical_formula_structural   LiY12Ni4Sn
_chemical_formula_sum   'Li1 Y12 Ni4 Sn1'
_cell_volume   456.23793351
_cell_formula_units_Z   1
loop_
 _symmetry_equiv_pos_site_id
 _symmetry_equiv_pos_as_xyz
  1  'x, y, z'
loop_
 _atom_site_type_symbol
 _atom_site_label
 _atom_site_symmetry_multiplicity
 _atom_site_fract_x
 _atom_site_fract_y
 _atom_site_fract_z
 _atom_site_occupancy
  Li  Li0  1  0.00000000  0.00000000  0.00000000  1
  Y  Y0  1  0.47944995  0.29714818  0.18230214  1
  Y  Y1  1  0.11484604  0.29714818  0.81769723  1
  Y  Y2  1  0.88515396  0.70285182  0.18230277  1
  Y  Y3  1  0.52055005  0.70285182  0.81769786  1
  Y  Y4  1  0.30573616  0.62906115  0.32332399  1
  Y  Y5  1  0.30574322  0.98241756  0.67667334  1
  Y  Y6  1  0.69426384  0.37093885  0.67667601  1
  Y  Y7  1  0.69425678  0.01758244  0.32332666  1
  Y  Y8  1  0.19894747  0.22136725  0.42031787  1
  Y  Y9  1  0.80105253  0.77863275  0.57968213  1
  Y  Y10  1  0.19894962  0.77863275  0.97757922  1
  Y  Y11  1  0.80105038  0.22136725  0.02242078  1
  Ni  Ni0  1  0.50000166  0.62474632  0.12474466  1
  Ni  Ni1  1  0.49999834  0.37525368  0.87525534  1
  Ni  Ni2  1  0.35678989  0.00000000  0.35678989  1
  Ni  Ni3  1  0.64321011  1.00000000  0.64321011  1
  Sn  Sn0  1  0.00000000  0.50000000  0.50000000  1
loop_
_geom_bond_atom_site_label_1
_geom_bond_atom_site_label_2
_geom_bond_distance
_geom_bond_site_symmetry_2
Li0 Y11 2.936442 1_455
Li0 Y10 2.936442 1_544
Li0 Y8 2.936448 1_555
Li0 Y9 2.936448 1_444
Li0 Y0 3.307797 1_555
Li0 Y3 3.307797 1_444
Li0 Y1 3.307803 1_554
Li0 Y2 3.307803 1_445
Ni0 Ni1 2.495864 1_554
Ni0 Y4 2.699681 1_555
Ni0 Y7 2.699708 1_565
Ni0 Y2 2.885026 1_555
Ni0 Y3 2.885028 1_554
Ni0 Y0 2.885097 1_555
Ni0 Y1 2.885099 1_554
Ni0 Y9 3.299173 1_555
Ni0 Y10 3.299181 1_554
Ni1 Y6 2.699681 1_555
Ni1 Y5 2.699708 1_545
Ni1 Y1 2.885026 1_555
Ni1 Y0 2.885028 1_556
Ni1 Y3 2.885097 1_555
Ni1 Y2 2.885099 1_556
Ni1 Y8 3.299173 1_555
Ni1 Y11 3.299181 1_556
Ni2 Y8 2.691618 1_555
Ni2 Y10 2.691623 1_544
Ni2 Ni3 2.776167 1_545
Ni2 Y5 2.896911 1_545
Ni2 Y7 2.896915 1_555
Ni2 Y4 2.897030 1_545
Ni2 Y6 2.897035 1_555
Ni2 Y0 3.267965 1_555
Ni2 Y2 3.267967 1_445
Ni3 Y9 2.691618 1_555
Ni3 Y11 2.691623 1_566
Ni3 Y7 2.896911 1_565
Ni3 Y5 2.896915 1_555
Ni3 Y6 2.897030 1_565
Ni3 Y4 2.897035 1_555
Ni3 Y3 3.267965 1_555
Ni3 Y1 3.267967 1_665
Sn0 Y4 3.376591 1_555
Sn0 Y6 3.376591 1_455
Sn0 Y5 3.376730 1_555
Sn0 Y7 3.376730 1_455
Sn0 Y10 3.389401 1_555
Sn0 Y11 3.389401 1_455
Sn0 Y9 3.389406 1_455
Sn0 Y8 3.389406 1_555
Sn0 Y1 3.623016 1_555
Sn0 Y2 3.623016 1_455
Sn0 Y3 3.623023 1_555
Sn0 Y0 3.623023 1_455
