# generated using pymatgen
data_Ba2Ni3P4W
_symmetry_space_group_name_H-M   'P 1'
_cell_length_a   5.54807056
_cell_length_b   6.88113021
_cell_length_c   5.54440932
_cell_angle_alpha   66.25801722
_cell_angle_beta   90.00113022
_cell_angle_gamma   90.00025234
_symmetry_Int_Tables_number   1
_chemical_formula_structural   Ba2Ni3P4W
_chemical_formula_sum   'Ba2 Ni3 P4 W1'
_cell_volume   193.75489370
_cell_formula_units_Z   1
loop_
 _symmetry_equiv_pos_site_id
 _symmetry_equiv_pos_as_xyz
  1  'x, y, z'
loop_
 _atom_site_type_symbol
 _atom_site_label
 _atom_site_symmetry_multiplicity
 _atom_site_fract_x
 _atom_site_fract_y
 _atom_site_fract_z
 _atom_site_occupancy
  Ba  Ba0  1  0.99234275  0.00001469  0.00000288  1
  Ba  Ba1  1  0.50768570  0.00001783  0.49999518  1
  Ni  Ni0  1  0.24989230  0.49955072  0.00018934  1
  Ni  Ni1  1  0.75015119  0.49994423  0.00001475  1
  Ni  Ni2  1  0.74997187  0.50045920  0.49982380  1
  P  P0  1  0.50312408  0.68877260  0.15113519  1
  P  P1  1  0.99683193  0.68891486  0.65984877  1
  P  P2  1  0.99663358  0.31110957  0.34037784  1
  P  P3  1  0.50328194  0.31122183  0.84861748  1
  W  W0  1  0.25008565  0.49999147  0.49999777  1
loop_
_geom_bond_atom_site_label_1
_geom_bond_atom_site_label_2
_geom_bond_distance
_geom_bond_site_symmetry_2
Ba0 P3 3.347414 1_554
Ba0 P0 3.348275 1_545
Ba0 P1 3.375070 1_544
Ba0 P2 3.376029 1_555
Ba0 P2 3.413833 1_554
Ba0 P1 3.414849 1_545
Ba0 P0 3.445953 1_645
Ba0 P3 3.446549 1_654
Ba1 P2 3.346495 1_555
Ba1 P1 3.347425 1_545
Ba1 P0 3.375641 1_546
Ba1 P3 3.376649 1_554
Ba1 P3 3.414014 1_555
Ba1 P0 3.415342 1_545
Ba1 P1 3.445798 1_445
Ba1 P2 3.446641 1_455
Ni0 P3 2.288882 1_554
Ni0 P2 2.289962 1_455
Ni0 P0 2.290645 1_555
Ni0 P1 2.291248 1_454
Ni1 P3 2.268187 1_554
Ni1 P2 2.268275 1_555
Ni1 P0 2.268348 1_555
Ni1 P1 2.268542 1_554
Ni2 P1 2.295882 1_555
Ni2 P0 2.296724 1_555
Ni2 P2 2.297720 1_555
Ni2 P3 2.298039 1_555
P0 W0 2.318715 1_555
P1 W0 2.318957 1_655
P2 W0 2.318614 1_655
P3 W0 2.318369 1_555
