# generated using pymatgen
data_Cs5Rb(Al2As3)2
_symmetry_space_group_name_H-M   'P 1'
_cell_length_a   6.11804580
_cell_length_b   8.10456780
_cell_length_c   11.00590498
_cell_angle_alpha   70.69098869
_cell_angle_beta   90.00000000
_cell_angle_gamma   90.00000000
_symmetry_Int_Tables_number   1
_chemical_formula_structural   Cs5Rb(Al2As3)2
_chemical_formula_sum   'Cs5 Rb1 Al4 As6'
_cell_volume   515.02086891
_cell_formula_units_Z   1
loop_
 _symmetry_equiv_pos_site_id
 _symmetry_equiv_pos_as_xyz
  1  'x, y, z'
loop_
 _atom_site_type_symbol
 _atom_site_label
 _atom_site_symmetry_multiplicity
 _atom_site_fract_x
 _atom_site_fract_y
 _atom_site_fract_z
 _atom_site_occupancy
  Cs  Cs0  1  0.75000000  0.15028191  0.92851916  1
  Cs  Cs1  1  0.75000000  0.47212997  0.14696111  1
  Cs  Cs2  1  0.25000000  0.53029815  0.85212582  1
  Cs  Cs3  1  0.75000000  0.54569307  0.58530014  1
  Cs  Cs4  1  0.25000000  0.85234857  0.07280529  1
  Rb  Rb0  1  0.25000000  0.43897086  0.42040724  1
  Al  Al0  1  0.99952065  0.01658226  0.35043615  1
  Al  Al1  1  0.49998382  0.98419170  0.64833737  1
  Al  Al2  1  0.50047935  0.01658226  0.35043615  1
  Al  Al3  1  0.00001618  0.98419170  0.64833737  1
  As  As0  1  0.25000000  0.82612684  0.53033696  1
  As  As1  1  0.75000000  0.17288252  0.46768591  1
  As  As2  1  0.25000000  0.21947436  0.19614998  1
  As  As3  1  0.75000000  0.78676610  0.80657831  1
  As  As4  1  0.25000000  0.15862113  0.73036097  1
  As  As5  1  0.75000000  0.84485861  0.26522207  1
loop_
_geom_bond_atom_site_label_1
_geom_bond_atom_site_label_2
_geom_bond_distance
_geom_bond_site_symmetry_2
Al0 As5 2.451567 1_545
Al0 As2 2.467616 1_655
Al0 As0 2.574898 1_645
Al0 As1 2.584834 1_555
Al1 As4 2.448776 1_565
Al1 As3 2.467817 1_555
Al1 As1 2.573059 1_565
Al1 As0 2.601357 1_555
Al2 As5 2.451567 1_545
Al2 As2 2.467616 1_555
Al2 As0 2.574898 1_545
Al2 As1 2.584834 1_555
Al3 As4 2.448776 1_565
Al3 As3 2.467817 1_455
Al3 As1 2.573059 1_465
Al3 As0 2.601357 1_555
As0 Cs2 3.560290 1_555
As0 Rb0 3.717490 1_555
As0 Cs3 3.738972 1_555
As0 Cs3 3.738972 1_455
As1 Cs1 3.560950 1_555
As1 Cs3 3.659428 1_555
As1 Rb0 3.679253 1_555
As1 Rb0 3.679253 1_655
As2 Rb0 3.487121 1_555
As2 Cs1 3.620846 1_455
As2 Cs1 3.620846 1_555
As2 Cs4 3.656096 1_545
As2 Cs2 3.791323 1_554
As3 Cs3 3.590966 1_555
As3 Cs0 3.618800 1_565
As3 Cs2 3.638716 1_655
As3 Cs2 3.638716 1_555
As3 Cs1 3.770821 1_556
As4 Rb0 3.416685 1_555
As4 Cs2 3.679602 1_555
As4 Cs0 3.744473 1_555
As4 Cs0 3.744473 1_455
As4 Cs4 3.765526 1_546
As5 Cs3 3.555265 1_555
As5 Cs1 3.663268 1_555
As5 Cs4 3.709587 1_655
As5 Cs4 3.709587 1_555
As5 Cs0 3.713939 1_564
