# generated using pymatgen
data_Hg4Ir3PdO14
_symmetry_space_group_name_H-M   'P 1'
_cell_length_a   7.21768027
_cell_length_b   7.21767887
_cell_length_c   7.21767973
_cell_angle_alpha   60.41808842
_cell_angle_beta   60.41810790
_cell_angle_gamma   60.41808789
_symmetry_Int_Tables_number   1
_chemical_formula_structural   Hg4Ir3PdO14
_chemical_formula_sum   'Hg4 Ir3 Pd1 O14'
_cell_volume   268.38875196
_cell_formula_units_Z   1
loop_
 _symmetry_equiv_pos_site_id
 _symmetry_equiv_pos_as_xyz
  1  'x, y, z'
loop_
 _atom_site_type_symbol
 _atom_site_label
 _atom_site_symmetry_multiplicity
 _atom_site_fract_x
 _atom_site_fract_y
 _atom_site_fract_z
 _atom_site_occupancy
  Hg  Hg0  1  0.62500000  0.12500000  0.12500000  1
  Hg  Hg1  1  0.12500000  0.62500000  0.12500000  1
  Hg  Hg2  1  0.12500000  0.12500000  0.62500000  1
  Hg  Hg3  1  0.12500000  0.12500000  0.12500000  1
  Ir  Ir0  1  0.12500000  0.62500000  0.62500000  1
  Ir  Ir1  1  0.62500000  0.12500000  0.62500000  1
  Ir  Ir2  1  0.62500000  0.62500000  0.12500000  1
  Pd  Pd0  1  0.62500000  0.62500000  0.62500000  1
  O  O0  1  0.70247791  0.70247791  0.29248579  1
  O  O1  1  0.30565470  0.30565470  0.70184087  1
  O  O2  1  0.70247791  0.29248579  0.70247791  1
  O  O3  1  0.30565470  0.70184087  0.30565470  1
  O  O4  1  0.29248579  0.70247791  0.70247791  1
  O  O5  1  0.70184087  0.30565470  0.30565470  1
  O  O6  1  0.54752209  0.54752209  0.95751421  1
  O  O7  1  0.94434530  0.94434530  0.54815913  1
  O  O8  1  0.54752209  0.95751421  0.54752209  1
  O  O9  1  0.94434530  0.54815913  0.94434530  1
  O  O10  1  0.95751421  0.54752209  0.54752209  1
  O  O11  1  0.54815913  0.94434530  0.94434530  1
  O  O12  1  0.24910108  0.24910108  0.24910108  1
  O  O13  1  0.00089892  0.00089892  0.00089892  1
loop_
_geom_bond_atom_site_label_1
_geom_bond_atom_site_label_2
_geom_bond_distance
_geom_bond_site_symmetry_2
Hg0 O13 2.226873 1_655
Hg0 O12 2.226873 1_555
Hg0 O6 2.533391 1_554
Hg0 O0 2.533391 1_545
Hg0 O8 2.533392 1_545
Hg0 O2 2.533392 1_554
Hg0 O5 2.610478 1_555
Hg0 O11 2.610478 1_544
Hg1 O13 2.226872 1_565
Hg1 O12 2.226872 1_555
Hg1 O10 2.533392 1_455
Hg1 O4 2.533392 1_554
Hg1 O6 2.533392 1_554
Hg1 O0 2.533392 1_455
Hg1 O3 2.610478 1_555
Hg1 O9 2.610478 1_454
Hg2 O13 2.226873 1_556
Hg2 O12 2.226873 1_555
Hg2 O10 2.533391 1_455
Hg2 O4 2.533391 1_545
Hg2 O8 2.533392 1_545
Hg2 O2 2.533392 1_455
Hg2 O1 2.610478 1_555
Hg2 O7 2.610478 1_445
Hg3 O12 2.187103 1_555
Hg3 O13 2.187103 1_555
Hg3 O9 2.557990 1_454
Hg3 O3 2.557990 1_545
Hg3 O7 2.557990 1_445
Hg3 O1 2.557990 1_554
Hg3 O11 2.557991 1_544
Hg3 O5 2.557991 1_455
Ir0 O4 1.931429 1_555
Ir0 O10 1.931429 1_455
Ir0 O7 1.950635 1_455
Ir0 O1 1.950635 1_555
Ir0 O9 1.950636 1_455
Ir0 O3 1.950636 1_555
Ir1 O2 1.931429 1_555
Ir1 O8 1.931429 1_545
Ir1 O11 1.950636 1_545
Ir1 O5 1.950636 1_555
Ir1 O7 1.950636 1_545
Ir1 O1 1.950636 1_555
Ir2 O0 1.931429 1_555
Ir2 O6 1.931429 1_554
Ir2 O11 1.950635 1_554
Ir2 O5 1.950635 1_555
Ir2 O9 1.950636 1_554
Ir2 O3 1.950636 1_555
O0 Pd0 2.010946 1_555
O2 Pd0 2.010946 1_555
O4 Pd0 2.010946 1_555
O6 Pd0 2.010946 1_555
O8 Pd0 2.010946 1_555
O10 Pd0 2.010946 1_555
