# generated using pymatgen
data_KNa(GaSn2)2
_symmetry_space_group_name_H-M   'P 1'
_cell_length_a   6.26310604
_cell_length_b   6.46378750
_cell_length_c   11.03393025
_cell_angle_alpha   90.00000000
_cell_angle_beta   90.00000000
_cell_angle_gamma   87.71051646
_symmetry_Int_Tables_number   1
_chemical_formula_structural   KNa(GaSn2)2
_chemical_formula_sum   'K2 Na2 Ga4 Sn8'
_cell_volume   446.33429024
_cell_formula_units_Z   2
loop_
 _symmetry_equiv_pos_site_id
 _symmetry_equiv_pos_as_xyz
  1  'x, y, z'
loop_
 _atom_site_type_symbol
 _atom_site_label
 _atom_site_symmetry_multiplicity
 _atom_site_fract_x
 _atom_site_fract_y
 _atom_site_fract_z
 _atom_site_occupancy
  K  K0  1  0.77324930  0.72804507  0.09543281  1
  K  K1  1  0.72675070  0.27195493  0.59543281  1
  Na  Na0  1  0.26711297  0.77561575  0.89485150  1
  Na  Na1  1  0.23288703  0.22438425  0.39485150  1
  Ga  Ga0  1  0.59002055  0.89622497  0.38203624  1
  Ga  Ga1  1  0.90997945  0.10377503  0.88203624  1
  Ga  Ga2  1  0.09644878  0.60111772  0.62064552  1
  Ga  Ga3  1  0.40355122  0.39888228  0.12064552  1
  Sn  Sn0  1  0.76784150  0.74503840  0.77008966  1
  Sn  Sn1  1  0.73215850  0.25496160  0.27008966  1
  Sn  Sn2  1  0.27101148  0.75849763  0.23559992  1
  Sn  Sn3  1  0.22898852  0.24150237  0.73559992  1
  Sn  Sn4  1  0.92591994  0.62463788  0.39200155  1
  Sn  Sn5  1  0.57408006  0.37536212  0.89200155  1
  Sn  Sn6  1  0.41175424  0.86963461  0.60934380  1
  Sn  Sn7  1  0.08824576  0.13036539  0.10934380  1
loop_
_geom_bond_atom_site_label_1
_geom_bond_atom_site_label_2
_geom_bond_distance
_geom_bond_site_symmetry_2
K0 Sn7 3.329909 1_665
K0 Sn4 3.466709 1_555
K0 Sn5 3.466782 1_554
K0 Sn2 3.492673 1_655
K0 Sn2 3.503688 1_555
K0 Sn0 3.591612 1_554
K0 Sn1 3.632333 1_555
K0 Na0 3.825727 1_654
K0 Na0 3.868299 1_554
K0 Sn1 3.912813 1_565
K1 Sn6 3.329909 1_545
K1 Sn5 3.466709 1_555
K1 Sn4 3.466782 1_555
K1 Sn3 3.492673 1_555
K1 Sn3 3.503688 1_655
K1 Sn1 3.591612 1_555
K1 Sn0 3.632333 1_555
K1 Na1 3.825727 1_555
K1 Na1 3.868299 1_655
K1 Sn0 3.912813 1_545
Na0 Sn5 3.161205 1_555
Na0 Sn6 3.340387 1_555
Na0 Sn0 3.423423 1_555
Na0 Sn0 3.429515 1_455
Na0 Sn7 3.450936 1_566
Na0 Sn3 3.486502 1_565
Na0 Sn2 3.761473 1_556
Na1 Sn4 3.161205 1_455
Na1 Sn7 3.340387 1_555
Na1 Sn1 3.423423 1_455
Na1 Sn1 3.429515 1_555
Na1 Sn6 3.450936 1_545
Na1 Sn2 3.486502 1_545
Na1 Sn3 3.761473 1_555
Ga0 Sn4 2.687861 1_555
Ga0 Sn2 2.745414 1_555
Ga0 Sn6 2.753542 1_555
Ga0 Sn1 2.803568 1_565
Ga0 Na1 3.023793 1_565
Ga0 K1 3.513112 1_565
Ga0 K0 3.521299 1_555
Ga1 Sn5 2.687861 1_555
Ga1 Sn3 2.745414 1_655
Ga1 Sn7 2.753542 1_656
Ga1 Sn0 2.803568 1_545
Ga1 Na0 3.023793 1_645
Ga1 K0 3.513112 1_546
Ga1 K1 3.521299 1_555
Ga2 Sn6 2.683586 1_555
Ga2 Sn4 2.741456 1_455
Ga2 Sn3 2.747171 1_555
Ga2 Sn0 2.768985 1_455
Ga2 K1 3.218570 1_455
Ga2 Na0 3.415423 1_555
Ga2 Na1 3.563825 1_555
Ga3 Sn7 2.683586 1_555
Ga3 Sn5 2.741456 1_554
Ga3 Sn2 2.747171 1_555
Ga3 Sn1 2.768985 1_555
Ga3 K0 3.218570 1_555
Ga3 Na1 3.415423 1_555
Ga3 Na0 3.563825 1_554
Sn0 Sn6 2.936804 1_555
Sn0 Sn5 3.037040 1_555
Sn1 Sn7 2.936804 1_655
Sn1 Sn4 3.037040 1_555
Sn2 Sn4 2.923627 1_455
Sn2 Sn7 2.967970 1_565
Sn3 Sn5 2.923627 1_555
Sn3 Sn6 2.967970 1_545
