# generated using pymatgen
data_V7Si2B4W3
_symmetry_space_group_name_H-M   'P 1'
_cell_length_a   6.79280816
_cell_length_b   6.81682867
_cell_length_c   6.79436200
_cell_angle_alpha   129.22796277
_cell_angle_beta   129.13148018
_cell_angle_gamma   74.83687804
_symmetry_Int_Tables_number   1
_chemical_formula_structural   V7Si2B4W3
_chemical_formula_sum   'V7 Si2 B4 W3'
_cell_volume   184.02837906
_cell_formula_units_Z   1
loop_
 _symmetry_equiv_pos_site_id
 _symmetry_equiv_pos_as_xyz
  1  'x, y, z'
loop_
 _atom_site_type_symbol
 _atom_site_label
 _atom_site_symmetry_multiplicity
 _atom_site_fract_x
 _atom_site_fract_y
 _atom_site_fract_z
 _atom_site_occupancy
  V  V0  1  0.97248114  0.47009242  0.16642551  1
  V  V1  1  0.19245255  0.03306587  0.50000000  1
  V  V2  1  0.47144387  0.30538198  0.50000000  1
  V  V3  1  0.80427537  0.97182265  0.50000000  1
  V  V4  1  0.30605563  0.80366691  0.83357449  1
  V  V5  1  0.00361291  0.00310192  0.00264293  1
  V  V6  1  0.50096998  0.50045899  0.99735707  1
  Si  Si0  1  0.24205559  0.23869702  0.99207379  1
  Si  Si1  1  0.74998280  0.74662423  0.00792621  1
  B  B0  1  0.61655104  0.12008791  0.73251769  1
  B  B1  1  0.12278192  0.38297794  0.50000000  1
  B  B2  1  0.88425415  0.62345096  0.50000000  1
  B  B3  1  0.38403335  0.88756922  0.26748231  1
  W  W0  1  0.52723311  0.69203783  0.50000000  1
  W  W1  1  0.03036765  0.52994193  0.83891872  1
  W  W2  1  0.69144892  0.19102321  0.16108128  1
loop_
_geom_bond_atom_site_label_1
_geom_bond_atom_site_label_2
_geom_bond_distance
_geom_bond_site_symmetry_2
V0 V5 2.623227 1_655
V0 V6 2.632657 1_554
V0 W1 2.758470 1_654
V0 W0 3.080827 1_655
V1 V6 2.626612 1_555
V1 V5 2.626612 1_555
V1 W0 2.794683 1_545
V2 V6 2.613066 1_555
V2 V5 2.613066 1_555
V2 W0 2.759243 1_555
V3 V6 2.633497 1_554
V3 V5 2.633497 1_666
V4 V6 2.623227 1_555
V4 V5 2.632657 1_566
V4 W2 2.758470 1_566
V4 W0 3.080827 1_555
V5 W2 2.648057 1_455
V5 W1 2.661647 1_544
V5 W0 2.666885 1_444
V6 W1 2.648057 1_555
V6 W2 2.661647 1_556
V6 W0 2.666885 1_556
Si0 V3 2.432840 1_445
Si0 V4 2.453621 1_545
Si0 V0 2.471465 1_456
Si0 V2 2.478557 1_556
Si0 V1 2.480705 1_555
Si0 W2 2.504274 1_556
Si0 W1 2.514583 1_555
Si0 W0 2.533181 1_556
Si0 V5 2.619414 1_556
Si0 V6 2.785606 1_555
Si1 V3 2.432845 1_555
Si1 V0 2.453626 1_555
Si1 V4 2.471470 1_554
Si1 V2 2.478562 1_554
Si1 V1 2.480699 1_665
Si1 W1 2.504269 1_654
Si1 W2 2.514577 1_565
Si1 W0 2.533176 1_554
Si1 V6 2.619424 1_554
Si1 V5 2.785595 1_665
B0 B3 1.914822 1_545
B0 V2 2.229336 1_555
B0 V3 2.234360 1_545
B0 V1 2.260756 1_555
B0 W0 2.294360 1_545
B0 V0 2.313844 1_556
B0 V6 2.322599 1_555
B0 W2 2.334370 1_556
B0 V5 2.362378 1_656
B1 B2 1.980655 1_455
B1 V4 2.235215 1_555
B1 V0 2.235215 1_455
B1 V2 2.287730 1_555
B1 W1 2.297400 1_555
B1 W2 2.297400 1_455
B1 V1 2.307171 1_555
B1 V5 2.314331 1_555
B1 V6 2.314331 1_555
B2 V0 2.231284 1_555
B2 V4 2.231284 1_655
B2 V3 2.293435 1_555
B2 W2 2.309721 1_555
B2 W1 2.309721 1_655
B2 V5 2.332837 1_666
B2 V6 2.332837 1_554
B2 W0 2.346679 1_555
B3 V2 2.229342 1_565
B3 V3 2.234361 1_555
B3 V1 2.260755 1_565
B3 W0 2.294354 1_555
B3 V4 2.313848 1_554
B3 V5 2.322603 1_565
B3 W1 2.334366 1_554
B3 V6 2.362374 1_554
