# generated using pymatgen
data_RbBa(AsRu)4
_symmetry_space_group_name_H-M   'P 1'
_cell_length_a   7.07007146
_cell_length_b   7.07007086
_cell_length_c   5.84975194
_cell_angle_alpha   90.00000000
_cell_angle_beta   90.00000000
_cell_angle_gamma   131.13054665
_symmetry_Int_Tables_number   1
_chemical_formula_structural   RbBa(AsRu)4
_chemical_formula_sum   'Rb1 Ba1 As4 Ru4'
_cell_volume   220.24330672
_cell_formula_units_Z   1
loop_
 _symmetry_equiv_pos_site_id
 _symmetry_equiv_pos_as_xyz
  1  'x, y, z'
loop_
 _atom_site_type_symbol
 _atom_site_label
 _atom_site_symmetry_multiplicity
 _atom_site_fract_x
 _atom_site_fract_y
 _atom_site_fract_z
 _atom_site_occupancy
  Rb  Rb0  1  0.00000000  0.00000000  0.00000000  1
  Ba  Ba0  1  0.50000000  0.50000000  0.50000000  1
  As  As0  1  0.65329314  0.34670686  0.00000000  1
  As  As1  1  0.15316239  0.84683761  0.50000000  1
  As  As2  1  0.84683761  0.15316239  0.50000000  1
  As  As3  1  0.34670686  0.65329314  0.00000000  1
  Ru  Ru0  1  0.50000000  0.00000000  0.74990522  1
  Ru  Ru1  1  0.00000000  0.50000000  0.25009478  1
  Ru  Ru2  1  0.00000000  0.50000000  0.74990522  1
  Ru  Ru3  1  0.50000000  0.00000000  0.25009478  1
loop_
_geom_bond_atom_site_label_1
_geom_bond_atom_site_label_2
_geom_bond_distance
_geom_bond_site_symmetry_2
As0 Ru3 2.414247 1_555
As0 Ru0 2.414247 1_554
As0 Ru1 2.414247 1_655
As0 Ru2 2.414247 1_654
As0 Rb0 3.528121 1_665
As0 Rb0 3.528122 1_555
As0 Ba0 3.528367 1_555
As0 Ba0 3.528367 1_554
As1 Ru2 2.414444 1_555
As1 Ru1 2.414444 1_555
As1 Ru0 2.414444 1_565
As1 Ru3 2.414444 1_565
As1 Ba0 3.527180 1_565
As1 Ba0 3.527181 1_455
As1 Rb0 3.527426 1_565
As1 Rb0 3.527426 1_566
As2 Ru2 2.414444 1_655
As2 Ru1 2.414444 1_655
As2 Ru0 2.414444 1_555
As2 Ru3 2.414444 1_555
As2 Ba0 3.527180 1_545
As2 Ba0 3.527181 1_655
As2 Rb0 3.527426 1_656
As2 Rb0 3.527426 1_655
As3 Ru3 2.414247 1_565
As3 Ru0 2.414247 1_564
As3 Ru1 2.414247 1_555
As3 Ru2 2.414247 1_554
As3 Rb0 3.528121 1_555
As3 Rb0 3.528122 1_665
As3 Ba0 3.528367 1_555
As3 Ba0 3.528367 1_554
