# generated using pymatgen
data_NaPb
_symmetry_space_group_name_H-M   'P 1'
_cell_length_a   10.57314430
_cell_length_b   10.57314502
_cell_length_c   11.63471663
_cell_angle_alpha   117.02498559
_cell_angle_beta   117.02499021
_cell_angle_gamma   89.99999992
_symmetry_Int_Tables_number   1
_chemical_formula_structural   NaPb
_chemical_formula_sum   'Na16 Pb16'
_cell_volume   996.58092111
_cell_formula_units_Z   16
loop_
 _symmetry_equiv_pos_site_id
 _symmetry_equiv_pos_as_xyz
  1  'x, y, z'
loop_
 _atom_site_type_symbol
 _atom_site_label
 _atom_site_symmetry_multiplicity
 _atom_site_fract_x
 _atom_site_fract_y
 _atom_site_fract_z
 _atom_site_occupancy
  Na  Na0  1  0.25000000  0.36756043  0.00000000  1
  Na  Na1  1  0.13243957  0.25000000  0.50000000  1
  Na  Na2  1  0.36756043  0.75000000  0.50000000  1
  Na  Na3  1  0.75000000  0.13243957  -0.00000000  1
  Na  Na4  1  0.75000000  0.63243957  -0.00000000  1
  Na  Na5  1  0.86756043  0.75000000  0.50000000  1
  Na  Na6  1  0.63243957  0.25000000  0.50000000  1
  Na  Na7  1  0.25000000  0.86756043  0.00000000  1
  Na  Na8  1  0.75115967  0.00115967  0.25000000  1
  Na  Na9  1  0.74884033  0.75115967  0.75000000  1
  Na  Na10  1  0.00115967  0.49884033  0.75000000  1
  Na  Na11  1  0.49884033  0.74884033  0.25000000  1
  Na  Na12  1  0.24884033  0.99884033  0.75000000  1
  Na  Na13  1  0.25115967  0.24884033  0.25000000  1
  Na  Na14  1  0.99884033  0.50115967  0.25000000  1
  Na  Na15  1  0.50115967  0.25115967  0.75000000  1
  Pb  Pb0  1  0.00828495  0.05750427  0.87631590  1
  Pb  Pb1  1  0.31881063  0.00828495  0.37631590  1
  Pb  Pb2  1  0.05750427  0.86803195  0.37631590  1
  Pb  Pb3  1  0.63196805  0.44249573  0.12368410  1
  Pb  Pb4  1  0.49171505  0.18118937  0.12368410  1
  Pb  Pb5  1  0.18118937  0.63196805  0.62368410  1
  Pb  Pb6  1  0.44249573  0.49171505  0.62368410  1
  Pb  Pb7  1  0.86803195  0.31881063  0.87631590  1
  Pb  Pb8  1  0.99171505  0.94249573  0.12368410  1
  Pb  Pb9  1  0.68118937  0.99171505  0.62368410  1
  Pb  Pb10  1  0.94249573  0.13196805  0.62368410  1
  Pb  Pb11  1  0.36803195  0.55750427  0.87631590  1
  Pb  Pb12  1  0.50828495  0.81881063  0.87631590  1
  Pb  Pb13  1  0.81881063  0.36803195  0.37631590  1
  Pb  Pb14  1  0.55750427  0.50828495  0.37631590  1
  Pb  Pb15  1  0.13196805  0.68118937  0.12368410  1
loop_
_geom_bond_atom_site_label_1
_geom_bond_atom_site_label_2
_geom_bond_distance
_geom_bond_site_symmetry_2
Na0 Pb4 3.423463 1_555
Na0 Pb0 3.423471 1_554
Na0 Pb11 3.452512 1_554
Na0 Pb15 3.452521 1_555
Na0 Pb7 3.562491 1_454
Na0 Pb3 3.562492 1_555
Na0 Pb14 3.619116 1_555
Na0 Pb10 3.619118 1_454
Na0 Na13 3.649899 1_555
Na0 Na12 3.649900 1_544
Na0 Na10 3.744837 1_554
Na0 Na11 3.744837 1_555
Na1 Pb1 3.423463 1_555
Na1 Pb6 3.423471 1_555
Na1 Pb10 3.452512 1_455
Na1 Pb13 3.452520 1_455
Na1 Pb5 3.562492 1_555
Na1 Pb2 3.562492 1_545
Na1 Pb8 3.619116 1_445
Na1 Pb11 3.619118 1_555
Na1 Na13 3.649899 1_555
Na1 Na15 3.649899 1_555
Na1 Na10 3.744837 1_555
Na1 Na8 3.744837 1_455
Na2 Pb5 3.423469 1_555
Na2 Pb2 3.423477 1_555
Na2 Pb14 3.452507 1_555
Na2 Pb9 3.452515 1_555
Na2 Pb1 3.562501 1_565
Na2 Pb6 3.562502 1_555
Na2 Pb12 3.619120 1_555
Na2 Pb15 3.619121 1_555
Na2 Na9 3.744837 1_555
Na3 Pb7 3.423469 1_554
Na3 Pb3 3.423477 1_555
Na3 Pb8 3.452506 1_545
Na3 Pb12 3.452515 1_544
Na3 Pb4 3.562501 1_555
Na3 Pb0 3.562502 1_654
Na3 Pb9 3.619120 1_544
Na3 Pb13 3.619121 1_555
Na3 Na8 3.744837 1_555
Na3 Na9 3.744837 1_544
Na4 Pb12 3.423463 1_554
Na4 Pb8 3.423471 1_555
Na4 Pb3 3.452512 1_555
Na4 Pb7 3.452521 1_554
Na4 Pb15 3.562491 1_655
Na4 Pb11 3.562492 1_554
Na4 Pb6 3.619116 1_554
Na4 Pb2 3.619118 1_655
Na4 Na9 3.649899 1_554
Na4 Na8 3.649900 1_565
Na5 Pb9 3.423463 1_555
Na5 Pb14 3.423471 1_555
Na5 Pb2 3.452512 1_655
Na5 Pb5 3.452520 1_655
Na5 Pb13 3.562492 1_555
Na5 Pb10 3.562492 1_565
Na5 Pb0 3.619116 1_665
Na5 Pb3 3.619118 1_555
Na5 Na9 3.649899 1_555
Na6 Pb13 3.423469 1_555
Na6 Pb10 3.423477 1_555
Na6 Pb6 3.452507 1_555
Na6 Pb1 3.452515 1_555
Na6 Pb9 3.562501 1_545
Na6 Pb14 3.562502 1_555
Na6 Pb4 3.619120 1_555
Na6 Pb7 3.619121 1_555
Na6 Na8 3.649900 1_555
Na7 Pb15 3.423469 1_555
Na7 Pb11 3.423477 1_554
Na7 Pb0 3.452506 1_564
Na7 Pb4 3.452515 1_565
Na7 Pb12 3.562501 1_554
Na7 Pb8 3.562502 1_455
Na7 Pb1 3.619120 1_565
Na7 Pb5 3.619121 1_554
Na8 Pb12 3.383867 1_544
Na8 Pb10 3.383868 1_555
Na8 Pb8 3.403250 1_545
Na8 Pb13 3.403260 1_555
Na8 Pb2 3.490907 1_645
Na8 Pb4 3.490922 1_555
Na9 Pb8 3.383867 1_556
Na9 Pb14 3.383867 1_555
Na9 Pb12 3.403250 1_555
Na9 Pb9 3.403250 1_555
Na9 Pb6 3.490914 1_555
Na9 Pb0 3.490914 1_665
Na10 Pb13 3.383868 1_455
Na10 Pb15 3.383868 1_556
Na10 Pb11 3.403260 1_555
Na10 Pb10 3.403260 1_455
Na10 Pb5 3.490915 1_555
Na10 Pb7 3.490915 1_455
Na10 Na6 3.649900 1_455
Na10 Na7 3.649900 1_556
Na10 Na9 3.772852 1_455
Na11 Pb9 3.383867 1_555
Na11 Pb11 3.383869 1_554
Na11 Pb14 3.403250 1_555
Na11 Pb15 3.403260 1_555
Na11 Pb3 3.490908 1_555
Na11 Pb1 3.490922 1_565
Na11 Na7 3.649899 1_555
Na11 Na5 3.649899 1_555
Na11 Na2 3.744837 1_555
Na11 Na8 3.772852 1_565
Na12 Pb4 3.383867 1_566
Na12 Pb2 3.383868 1_555
Na12 Pb0 3.403250 1_565
Na12 Pb5 3.403260 1_555
Na12 Pb10 3.490907 1_465
Na12 Pb12 3.490922 1_555
Na12 Na2 3.649900 1_555
Na12 Na7 3.744837 1_556
Na12 Na5 3.744837 1_455
Na12 Na15 3.772852 1_565
Na13 Pb0 3.383867 1_554
Na13 Pb6 3.383867 1_555
Na13 Pb4 3.403250 1_555
Na13 Pb1 3.403250 1_555
Na13 Pb14 3.490914 1_555
Na13 Pb8 3.490914 1_445
Na13 Na6 3.744837 1_555
Na13 Na7 3.744837 1_545
Na13 Na14 3.772852 1_455
Na14 Pb5 3.383868 1_655
Na14 Pb7 3.383868 1_554
Na14 Pb3 3.403260 1_555
Na14 Pb2 3.403260 1_655
Na14 Pb13 3.490915 1_555
Na14 Pb15 3.490915 1_655
Na14 Na2 3.649900 1_655
Na14 Na3 3.649900 1_555
Na14 Na4 3.744837 1_555
Na14 Na5 3.744837 1_555
Na15 Pb1 3.383867 1_555
Na15 Pb3 3.383869 1_556
Na15 Pb6 3.403250 1_555
Na15 Pb7 3.403260 1_555
Na15 Pb11 3.490908 1_555
Na15 Pb9 3.490922 1_545
Na15 Na3 3.649899 1_556
Na15 Na6 3.744837 1_555
Na15 Na4 3.744837 1_556
Pb0 Pb7 3.135645 1_455
Pb0 Pb10 3.160410 1_455
Pb0 Pb9 3.160410 1_445
Pb1 Pb2 3.135645 1_545
Pb1 Pb8 3.160410 1_445
Pb1 Pb15 3.160411 1_545
Pb2 Pb8 3.160410 1_455
Pb3 Pb4 3.135645 1_555
Pb5 Pb6 3.135645 1_555
Pb7 Pb9 3.160411 1_545
Pb10 Pb9 3.135645 1_545
Pb10 Pb7 3.160410 1_555
Pb11 Pb12 3.135645 1_555
Pb11 Pb5 3.160410 1_555
Pb11 Pb6 3.160410 1_555
Pb12 Pb5 3.160411 1_555
Pb12 Pb6 3.160411 1_555
Pb13 Pb14 3.135645 1_555
Pb13 Pb3 3.160410 1_555
Pb13 Pb4 3.160411 1_555
Pb14 Pb3 3.160410 1_555
Pb14 Pb4 3.160411 1_555
Pb15 Pb8 3.135645 1_455
Pb15 Pb2 3.160410 1_555
