# generated using pymatgen
data_Na3(CoP)4
_symmetry_space_group_name_H-M   'P 1'
_cell_length_a   5.90594771
_cell_length_b   5.90594765
_cell_length_c   5.90594864
_cell_angle_alpha   109.47122401
_cell_angle_beta   109.47122383
_cell_angle_gamma   109.47122233
_symmetry_Int_Tables_number   1
_chemical_formula_structural   Na3(CoP)4
_chemical_formula_sum   'Na3 Co4 P4'
_cell_volume   158.57945506
_cell_formula_units_Z   1
loop_
 _symmetry_equiv_pos_site_id
 _symmetry_equiv_pos_as_xyz
  1  'x, y, z'
loop_
 _atom_site_type_symbol
 _atom_site_label
 _atom_site_symmetry_multiplicity
 _atom_site_fract_x
 _atom_site_fract_y
 _atom_site_fract_z
 _atom_site_occupancy
  Na  Na0  1  0.50000000  0.50000000  0.00000000  1
  Na  Na1  1  0.50000000  0.00000000  0.50000000  1
  Na  Na2  1  0.00000000  0.50000000  0.50000000  1
  Co  Co0  1  0.26802604  1.00000000  1.00000000  1
  Co  Co1  1  1.00000000  0.26802604  1.00000000  1
  Co  Co2  1  0.00000000  0.00000000  0.26802604  1
  Co  Co3  1  0.73197396  0.73197396  0.73197396  1
  P  P0  1  0.63036418  0.00000000  0.00000000  1
  P  P1  1  0.00000000  0.63036418  0.00000000  1
  P  P2  1  0.36963682  0.36963682  0.36963682  1
  P  P3  1  0.00000000  0.00000000  0.63036418  1
loop_
_geom_bond_atom_site_label_1
_geom_bond_atom_site_label_2
_geom_bond_distance
_geom_bond_site_symmetry_2
Na0 P3 2.792333 1_554
Na0 P0 2.792334 1_565
Na0 P1 2.792334 1_655
Na0 P2 2.792334 1_555
Na1 P1 2.792334 1_545
Na1 P3 2.792334 1_655
Na1 P0 2.792334 1_556
Na1 P2 2.792334 1_555
Na2 P0 2.792333 1_455
Na2 P3 2.792334 1_565
Na2 P1 2.792334 1_556
Na2 P2 2.792334 1_555
Co0 P0 2.139950 1_566
Co0 P1 2.228825 1_556
Co0 P3 2.228825 1_565
Co0 P2 2.228829 1_566
Co0 Na2 2.810680 1_555
Co0 Na0 2.810680 1_566
Co0 Na1 2.810681 1_566
Co1 P1 2.139950 1_656
Co1 P0 2.228825 1_556
Co1 P3 2.228825 1_655
Co1 P2 2.228829 1_656
Co1 Na1 2.810681 1_555
Co1 Na0 2.810681 1_656
Co1 Na2 2.810681 1_656
Co2 P3 2.139950 1_555
Co2 P1 2.228825 1_545
Co2 P0 2.228825 1_455
Co2 P2 2.228829 1_555
Co2 Na0 2.810680 1_445
Co2 Na2 2.810680 1_555
Co2 Na1 2.810681 1_555
Co3 P2 2.139944 1_555
Co3 P3 2.228825 1_665
Co3 P0 2.228825 1_566
Co3 P1 2.228825 1_656
Co3 Na1 2.810681 1_565
Co3 Na2 2.810681 1_655
Co3 Na0 2.810681 1_556
