# generated using pymatgen
data_HgRuF6
_symmetry_space_group_name_H-M   'P 1'
_cell_length_a   5.75327894
_cell_length_b   5.75327921
_cell_length_c   5.75327891
_cell_angle_alpha   53.19450536
_cell_angle_beta   53.19450765
_cell_angle_gamma   53.19451339
_symmetry_Int_Tables_number   1
_chemical_formula_structural   HgRuF6
_chemical_formula_sum   'Hg1 Ru1 F6'
_cell_volume   113.19198338
_cell_formula_units_Z   1
loop_
 _symmetry_equiv_pos_site_id
 _symmetry_equiv_pos_as_xyz
  1  'x, y, z'
loop_
 _atom_site_type_symbol
 _atom_site_label
 _atom_site_symmetry_multiplicity
 _atom_site_fract_x
 _atom_site_fract_y
 _atom_site_fract_z
 _atom_site_occupancy
  Hg  Hg0  1  0.50000000  0.50000000  0.50000000  1
  Ru  Ru0  1  0.00000000  0.00000000  0.00000000  1
  F  F0  1  0.95000880  0.21165863  0.60887066  1
  F  F1  1  0.21165863  0.60887066  0.95000880  1
  F  F2  1  0.39112934  0.04999120  0.78834137  1
  F  F3  1  0.78834137  0.39112934  0.04999120  1
  F  F4  1  0.04999120  0.78834137  0.39112934  1
  F  F5  1  0.60887066  0.95000880  0.21165863  1
loop_
_geom_bond_atom_site_label_1
_geom_bond_atom_site_label_2
_geom_bond_distance
_geom_bond_site_symmetry_2
F0 Ru0 1.924011 1_656
F0 Hg0 2.323619 1_555
F1 Ru0 1.924012 1_566
F1 Hg0 2.323619 1_555
F2 Ru0 1.924011 1_556
F2 Hg0 2.323619 1_555
F3 Ru0 1.924012 1_655
F3 Hg0 2.323619 1_555
F4 Ru0 1.924011 1_565
F4 Hg0 2.323619 1_555
F5 Ru0 1.924011 1_665
F5 Hg0 2.323619 1_555
