# generated using pymatgen
data_CaMgCdP2
_symmetry_space_group_name_H-M   'P 1'
_cell_length_a   4.25999430
_cell_length_b   4.25999499
_cell_length_c   6.99041641
_cell_angle_alpha   90.00000000
_cell_angle_beta   90.00000000
_cell_angle_gamma   120.00000992
_symmetry_Int_Tables_number   1
_chemical_formula_structural   CaMgCdP2
_chemical_formula_sum   'Ca1 Mg1 Cd1 P2'
_cell_volume   109.86307271
_cell_formula_units_Z   1
loop_
 _symmetry_equiv_pos_site_id
 _symmetry_equiv_pos_as_xyz
  1  'x, y, z'
loop_
 _atom_site_type_symbol
 _atom_site_label
 _atom_site_symmetry_multiplicity
 _atom_site_fract_x
 _atom_site_fract_y
 _atom_site_fract_z
 _atom_site_occupancy
  Ca  Ca0  1  0.00000000  0.00000000  0.00161849  1
  Mg  Mg0  1  0.33333300  0.66666700  0.63428814  1
  Cd  Cd0  1  0.66666700  0.33333300  0.36575469  1
  P  P0  1  0.66666700  0.33333300  0.75214178  1
  P  P1  1  0.33333300  0.66666700  0.24619590  1
loop_
_geom_bond_atom_site_label_1
_geom_bond_atom_site_label_2
_geom_bond_distance
_geom_bond_site_symmetry_2
Ca0 P1 2.995370 1_545
Ca0 P1 2.995372 1_445
Ca0 P1 2.995373 1_555
Ca0 P0 3.015049 1_454
Ca0 P0 3.015052 1_554
Ca0 P0 3.015052 1_444
Mg0 P0 2.593818 1_455
Mg0 P0 2.593819 1_565
Mg0 P0 2.593826 1_555
Mg0 P1 2.712926 1_555
Cd0 P1 2.597629 1_655
Cd0 P1 2.597629 1_545
Cd0 P1 2.597636 1_555
Cd0 P0 2.701007 1_555
