# generated using pymatgen
data_RbBaMoH9
_symmetry_space_group_name_H-M   'P 1'
_cell_length_a   9.66030280
_cell_length_b   9.66030160
_cell_length_c   5.69851806
_cell_angle_alpha   90.00000000
_cell_angle_beta   90.00000000
_cell_angle_gamma   120.00000752
_symmetry_Int_Tables_number   1
_chemical_formula_structural   RbBaMoH9
_chemical_formula_sum   'Rb3 Ba3 Mo3 H27'
_cell_volume   460.54699489
_cell_formula_units_Z   3
loop_
 _symmetry_equiv_pos_site_id
 _symmetry_equiv_pos_as_xyz
  1  'x, y, z'
loop_
 _atom_site_type_symbol
 _atom_site_label
 _atom_site_symmetry_multiplicity
 _atom_site_fract_x
 _atom_site_fract_y
 _atom_site_fract_z
 _atom_site_occupancy
  Rb  Rb0  1  0.00000000  0.58820113  0.00000000  1
  Rb  Rb1  1  0.41179887  0.41179887  0.00000000  1
  Rb  Rb2  1  0.58820113  0.00000000  0.00000000  1
  Ba  Ba0  1  1.00000000  0.27201327  0.50000000  1
  Ba  Ba1  1  0.72798673  0.72798673  0.50000000  1
  Ba  Ba2  1  0.27201327  1.00000000  0.50000000  1
  Mo  Mo0  1  0.66666700  0.33333300  0.50000000  1
  Mo  Mo1  1  0.33333300  0.66666700  0.50000000  1
  Mo  Mo2  1  0.00000000  0.00000000  0.00000000  1
  H  H0  1  0.77878815  0.30684963  0.72275653  1
  H  H1  1  0.69315037  0.47193852  0.72275653  1
  H  H2  1  0.52806148  0.22121185  0.72275653  1
  H  H3  1  0.22121185  0.52806148  0.27724347  1
  H  H4  1  0.52806148  0.22121185  0.27724347  1
  H  H5  1  0.77878815  0.30684963  0.27724347  1
  H  H6  1  0.69315037  0.47193852  0.27724347  1
  H  H7  1  0.30684963  0.77878815  0.72275653  1
  H  H8  1  0.47193852  0.69315037  0.72275653  1
  H  H9  1  0.17998322  1.00000000  0.00000000  1
  H  H10  1  0.82001678  0.82001678  0.00000000  1
  H  H11  1  1.00000000  0.17998322  0.00000000  1
  H  H12  1  0.87062434  0.00000000  0.21883030  1
  H  H13  1  0.12937566  0.12937566  0.78116970  1
  H  H14  1  0.00000000  0.87062434  0.78116970  1
  H  H15  1  0.00000000  0.87062434  0.21883030  1
  H  H16  1  0.12937566  0.12937566  0.21883030  1
  H  H17  1  0.87062434  0.00000000  0.78116970  1
  H  H18  1  0.13931255  0.63202949  0.50000000  1
  H  H19  1  0.49271694  0.86068745  0.50000000  1
  H  H20  1  0.36797051  0.50728306  0.50000000  1
  H  H21  1  0.50728306  0.36797051  0.50000000  1
  H  H22  1  0.86068745  0.49271694  0.50000000  1
  H  H23  1  0.63202949  0.13931255  0.50000000  1
  H  H24  1  0.22121185  0.52806148  0.72275653  1
  H  H25  1  0.30684963  0.77878815  0.27724347  1
  H  H26  1  0.47193852  0.69315037  0.27724347  1
loop_
_geom_bond_atom_site_label_1
_geom_bond_atom_site_label_2
_geom_bond_distance
_geom_bond_site_symmetry_2
Ba0 H24 2.647714 1_655
Ba0 H3 2.647714 1_655
Ba0 H0 2.647715 1_555
Ba0 H5 2.647715 1_555
Ba0 H17 2.783888 1_555
Ba0 H12 2.783888 1_555
Ba0 H13 2.783889 1_655
Ba0 H16 2.783889 1_655
Ba1 H1 2.647715 1_555
Ba1 H6 2.647715 1_555
Ba1 H8 2.647715 1_555
Ba1 H26 2.647715 1_555
Ba1 H17 2.783888 1_565
Ba1 H12 2.783888 1_565
Ba1 H14 2.783889 1_655
Ba1 H15 2.783889 1_655
Ba2 H2 2.647715 1_565
Ba2 H4 2.647715 1_565
Ba2 H7 2.647715 1_555
Ba2 H25 2.647715 1_555
Ba2 H14 2.783889 1_555
Ba2 H15 2.783889 1_555
Ba2 H13 2.783889 1_565
Ba2 H16 2.783889 1_565
H0 Mo0 1.768345 1_555
H0 Rb0 2.939677 1_656
H0 Rb2 3.035625 1_556
H1 Mo0 1.768352 1_555
H1 Rb1 2.939677 1_556
H1 Rb0 3.035625 1_656
H2 Mo0 1.768350 1_555
H2 Rb2 2.939677 1_556
H2 Rb1 3.035625 1_556
H3 Mo1 1.768350 1_555
H3 Rb0 2.939677 1_555
H3 Rb1 3.035625 1_555
H4 Mo0 1.768350 1_555
H4 Rb2 2.939677 1_555
H4 Rb1 3.035625 1_555
H5 Mo0 1.768345 1_555
H5 Rb0 2.939677 1_655
H5 Rb2 3.035625 1_555
H6 Mo0 1.768352 1_555
H6 Rb1 2.939677 1_555
H6 Rb0 3.035625 1_655
H7 Mo1 1.768345 1_555
H7 Rb2 2.939677 1_566
H7 Rb0 3.035625 1_556
H8 Mo1 1.768352 1_555
H8 Rb1 2.939677 1_556
H8 Rb2 3.035625 1_566
H9 Mo2 1.738692 1_565
H10 Mo2 1.738692 1_665
H11 Mo2 1.738692 1_655
H12 Mo2 1.765517 1_655
H12 Rb2 2.999769 1_555
H13 Mo2 1.765517 1_556
H13 Rb1 2.999769 1_556
H14 Mo2 1.765517 1_566
H14 Rb0 2.999769 1_556
H15 Mo2 1.765517 1_565
H15 Rb0 2.999769 1_555
H16 Mo2 1.765517 1_555
H16 Rb1 2.999769 1_555
H17 Mo2 1.765517 1_656
H17 Rb2 2.999769 1_556
H18 Mo1 1.731414 1_555
H18 Rb0 3.088514 1_555
H18 Rb0 3.088514 1_556
H19 Mo1 1.731417 1_555
H19 Rb2 3.088513 1_566
H19 Rb2 3.088513 1_565
H20 Mo1 1.731423 1_555
H20 Rb1 3.088514 1_556
H20 Rb1 3.088514 1_555
H21 Mo0 1.731423 1_555
H21 Rb1 3.088514 1_556
H21 Rb1 3.088514 1_555
H22 Mo0 1.731417 1_555
H22 Rb0 3.088514 1_656
H22 Rb0 3.088514 1_655
H23 Mo0 1.731414 1_555
H23 Rb2 3.088513 1_556
H23 Rb2 3.088513 1_555
H24 Mo1 1.768350 1_555
H24 Rb0 2.939677 1_556
H24 Rb1 3.035625 1_556
H25 Mo1 1.768345 1_555
H25 Rb2 2.939677 1_565
H25 Rb0 3.035625 1_555
H26 Mo1 1.768352 1_555
H26 Rb1 2.939677 1_555
H26 Rb2 3.035625 1_565
