# generated using pymatgen
data_Y5CoRhO12
_symmetry_space_group_name_H-M   'P 1'
_cell_length_a   6.76049372
_cell_length_b   6.76049290
_cell_length_c   7.17625138
_cell_angle_alpha   74.48319391
_cell_angle_beta   74.48319643
_cell_angle_gamma   50.56107510
_symmetry_Int_Tables_number   1
_chemical_formula_structural   Y5CoRhO12
_chemical_formula_sum   'Y5 Co1 Rh1 O12'
_cell_volume   241.96403644
_cell_formula_units_Z   1
loop_
 _symmetry_equiv_pos_site_id
 _symmetry_equiv_pos_as_xyz
  1  'x, y, z'
loop_
 _atom_site_type_symbol
 _atom_site_label
 _atom_site_symmetry_multiplicity
 _atom_site_fract_x
 _atom_site_fract_y
 _atom_site_fract_z
 _atom_site_occupancy
  Y  Y0  1  0.49860928  0.50139072  0.50000000  1
  Y  Y1  1  0.19300670  0.18836816  0.16814297  1
  Y  Y2  1  0.81163184  0.80699330  0.83185703  1
  Y  Y3  1  0.81266275  0.79594566  0.35793869  1
  Y  Y4  1  0.20405434  0.18733725  0.64206131  1
  Co  Co0  1  0.24707792  0.75292208  1.00000000  1
  Rh  Rh0  1  0.73731867  0.26268133  1.00000000  1
  O  O0  1  0.00529952  0.99367653  0.18068711  1
  O  O1  1  0.00632347  0.99470048  0.81931289  1
  O  O2  1  0.48443071  0.51674724  0.82345311  1
  O  O3  1  0.48325276  0.51556929  0.17654689  1
  O  O4  1  0.60155142  0.09680140  0.57411742  1
  O  O5  1  0.90319860  0.39844858  0.42588258  1
  O  O6  1  0.40814332  0.89959808  0.42382215  1
  O  O7  1  0.40039449  0.91797220  0.92084139  1
  O  O8  1  0.08202780  0.59960551  0.07915861  1
  O  O9  1  0.59712773  0.07651122  0.08112210  1
  O  O10  1  0.92348878  0.40287227  0.91887790  1
  O  O11  1  0.10040192  0.59185668  0.57617785  1
loop_
_geom_bond_atom_site_label_1
_geom_bond_atom_site_label_2
_geom_bond_distance
_geom_bond_site_symmetry_2
Co0 O7 1.859383 1_555
Co0 O8 1.859383 1_556
Co0 O3 1.862469 1_556
Co0 O2 1.862469 1_555
Co0 O1 1.901921 1_555
Co0 O0 1.901921 1_556
O0 Rh0 2.019910 1_464
O0 Y1 2.312668 1_565
O0 Y3 2.348760 1_455
O1 Rh0 2.019910 1_465
O1 Y2 2.312668 1_455
O1 Y4 2.348760 1_565
O2 Rh0 1.934416 1_555
O2 Y0 2.324886 1_555
O3 Rh0 1.934416 1_554
O3 Y0 2.324886 1_555
O4 Y4 2.280946 1_555
O4 Y2 2.282113 1_545
O4 Y0 2.291257 1_555
O4 Y3 2.322931 1_545
O5 Y3 2.280946 1_555
O5 Y1 2.282113 1_655
O5 Y0 2.291257 1_555
O5 Y4 2.322931 1_655
O6 Y1 2.279685 1_565
O6 Y4 2.281314 1_565
O6 Y0 2.284691 1_555
O6 Y3 2.290012 1_555
O7 Y2 2.314377 1_555
O7 Y4 2.341146 1_565
O7 Y1 2.367513 1_566
O8 Y1 2.314376 1_555
O8 Y3 2.341147 1_455
O8 Y2 2.367513 1_454
O9 Rh0 1.910375 1_554
O9 Y1 2.267357 1_555
O9 Y2 2.370984 1_544
O9 Y3 2.385033 1_545
O10 Rh0 1.910375 1_555
O10 Y2 2.267357 1_555
O10 Y1 2.370984 1_656
O10 Y4 2.385033 1_655
O11 Y2 2.279686 1_455
O11 Y3 2.281314 1_455
O11 Y0 2.284691 1_555
O11 Y4 2.290012 1_555
