# generated using pymatgen
data_BeB2PbO5
_symmetry_space_group_name_H-M   'P 1'
_cell_length_a   3.93336008
_cell_length_b   5.24415608
_cell_length_c   18.06987403
_cell_angle_alpha   80.15833946
_cell_angle_beta   90.00000000
_cell_angle_gamma   90.00000000
_symmetry_Int_Tables_number   1
_chemical_formula_structural   BeB2PbO5
_chemical_formula_sum   'Be4 B8 Pb4 O20'
_cell_volume   367.24493535
_cell_formula_units_Z   4
loop_
 _symmetry_equiv_pos_site_id
 _symmetry_equiv_pos_as_xyz
  1  'x, y, z'
loop_
 _atom_site_type_symbol
 _atom_site_label
 _atom_site_symmetry_multiplicity
 _atom_site_fract_x
 _atom_site_fract_y
 _atom_site_fract_z
 _atom_site_occupancy
  Be  Be0  1  0.77856239  0.89478126  0.71497387  1
  Be  Be1  1  0.72143761  0.89478126  0.21497387  1
  Be  Be2  1  0.22143761  0.10521874  0.28502613  1
  Be  Be3  1  0.27856239  0.10521874  0.78502613  1
  B  B0  1  0.04323043  0.29628724  0.89775167  1
  B  B1  1  0.45676957  0.29628724  0.39775167  1
  B  B2  1  0.95676957  0.70371276  0.10224833  1
  B  B3  1  0.54323043  0.70371276  0.60224833  1
  B  B4  1  0.29307838  0.59854864  0.78357916  1
  B  B5  1  0.20692162  0.59854864  0.28357916  1
  B  B6  1  0.70692162  0.40145136  0.21642084  1
  B  B7  1  0.79307838  0.40145136  0.71642084  1
  Pb  Pb0  1  0.72480782  0.77752106  0.93080653  1
  Pb  Pb1  1  0.77519218  0.77752106  0.43080653  1
  Pb  Pb2  1  0.27519218  0.22247894  0.06919347  1
  Pb  Pb3  1  0.22480782  0.22247894  0.56919347  1
  O  O0  1  0.14347666  0.53972026  0.86097258  1
  O  O1  1  0.35652334  0.53972026  0.36097258  1
  O  O2  1  0.85652334  0.46027974  0.13902742  1
  O  O3  1  0.64347666  0.46027974  0.63902742  1
  O  O4  1  0.47737084  0.84086408  0.77719194  1
  O  O5  1  0.02262916  0.84086408  0.27719194  1
  O  O6  1  0.52262916  0.15913592  0.22280806  1
  O  O7  1  0.97737084  0.15913592  0.72280806  1
  O  O8  1  0.13089650  0.08009863  0.86939581  1
  O  O9  1  0.36910350  0.08009863  0.36939581  1
  O  O10  1  0.86910350  0.91990137  0.13060419  1
  O  O11  1  0.63089650  0.91990137  0.63060419  1
  O  O12  1  0.01153949  0.62505843  0.72704940  1
  O  O13  1  0.48846051  0.62505843  0.22704940  1
  O  O14  1  0.98846051  0.37494157  0.27295060  1
  O  O15  1  0.51153949  0.37494157  0.77295060  1
  O  O16  1  0.86095056  0.28047121  0.96257425  1
  O  O17  1  0.63904944  0.28047121  0.46257425  1
  O  O18  1  0.13904944  0.71952879  0.03742575  1
  O  O19  1  0.36095056  0.71952879  0.53742575  1
loop_
_geom_bond_atom_site_label_1
_geom_bond_atom_site_label_2
_geom_bond_distance
_geom_bond_site_symmetry_2
Be0 O11 1.615644 1_555
Be0 O7 1.618797 1_565
Be0 O4 1.624428 1_555
Be0 O12 1.668107 1_655
Be1 O10 1.615644 1_555
Be1 O6 1.618797 1_565
Be1 O5 1.624428 1_655
Be1 O13 1.668107 1_555
Be2 O9 1.615644 1_555
Be2 O5 1.618797 1_545
Be2 O6 1.624428 1_555
Be2 O14 1.668107 1_455
Be3 O8 1.615644 1_555
Be3 O4 1.618797 1_545
Be3 O7 1.624428 1_455
Be3 O15 1.668107 1_555
B0 O16 1.363725 1_455
B0 O8 1.365783 1_555
B0 O0 1.391702 1_555
B1 O17 1.363725 1_555
B1 O9 1.365783 1_555
B1 O1 1.391702 1_555
B2 O18 1.363725 1_655
B2 O10 1.365783 1_555
B2 O2 1.391702 1_555
B3 O19 1.363725 1_555
B3 O11 1.365783 1_555
B3 O3 1.391702 1_555
B4 O4 1.450320 1_555
B4 O15 1.492417 1_555
B4 O12 1.496842 1_555
B4 O0 1.499906 1_555
B5 O5 1.450320 1_555
B5 O14 1.492417 1_455
B5 O13 1.496842 1_555
B5 O1 1.499906 1_555
B6 O6 1.450320 1_555
B6 O13 1.492417 1_555
B6 O14 1.496842 1_555
B6 O2 1.499906 1_555
B7 O7 1.450320 1_555
B7 O12 1.492417 1_655
B7 O15 1.496842 1_555
B7 O3 1.499906 1_555
O0 Pb0 2.529301 1_455
O1 Pb1 2.529301 1_555
O2 Pb2 2.529301 1_655
O3 Pb3 2.529301 1_555
O8 Pb0 2.387180 1_445
O9 Pb1 2.387180 1_545
O10 Pb2 2.387180 1_665
O11 Pb3 2.387180 1_565
O16 Pb2 2.501756 1_656
O16 Pb0 2.626627 1_555
O17 Pb3 2.501756 1_555
O17 Pb1 2.626627 1_555
O18 Pb0 2.501756 1_454
O18 Pb2 2.626627 1_555
O19 Pb1 2.501756 1_555
O19 Pb3 2.626627 1_555
