# generated using pymatgen
data_Rb4ZrSeBr12
_symmetry_space_group_name_H-M   'P 1'
_cell_length_a   7.52640743
_cell_length_b   7.52640743
_cell_length_c   10.83355837
_cell_angle_alpha   90.00000000
_cell_angle_beta   90.00000000
_cell_angle_gamma   90.00000000
_symmetry_Int_Tables_number   1
_chemical_formula_structural   Rb4ZrSeBr12
_chemical_formula_sum   'Rb4 Zr1 Se1 Br12'
_cell_volume   613.68650946
_cell_formula_units_Z   1
loop_
 _symmetry_equiv_pos_site_id
 _symmetry_equiv_pos_as_xyz
  1  'x, y, z'
loop_
 _atom_site_type_symbol
 _atom_site_label
 _atom_site_symmetry_multiplicity
 _atom_site_fract_x
 _atom_site_fract_y
 _atom_site_fract_z
 _atom_site_occupancy
  Rb  Rb0  1  0.50000000  0.00000000  0.74038818  1
  Rb  Rb1  1  0.50000000  0.00000000  0.25961182  1
  Rb  Rb2  1  0.00000000  0.50000000  0.25961182  1
  Rb  Rb3  1  0.00000000  0.50000000  0.74038818  1
  Zr  Zr0  1  0.00000000  0.00000000  0.00000000  1
  Se  Se0  1  0.50000000  0.50000000  0.50000000  1
  Br  Br0  1  0.79920190  0.28603287  0.00000000  1
  Br  Br1  1  0.20079810  0.71396713  0.00000000  1
  Br  Br2  1  0.50000000  0.50000000  0.26091180  1
  Br  Br3  1  0.25861645  0.25570718  0.50000000  1
  Br  Br4  1  0.28603287  0.20079810  0.00000000  1
  Br  Br5  1  0.74429282  0.25861645  0.50000000  1
  Br  Br6  1  0.00000000  0.00000000  0.24425448  1
  Br  Br7  1  0.74138355  0.74429282  0.50000000  1
  Br  Br8  1  0.25570718  0.74138355  0.50000000  1
  Br  Br9  1  0.50000000  0.50000000  0.73908820  1
  Br  Br10  1  0.71396713  0.79920190  0.00000000  1
  Br  Br11  1  0.00000000  0.00000000  0.75574552  1
loop_
_geom_bond_atom_site_label_1
_geom_bond_atom_site_label_2
_geom_bond_distance
_geom_bond_site_symmetry_2
Br0 Zr0 2.630312 1_655
Br0 Rb2 3.575984 1_655
Br0 Rb3 3.575984 1_654
Br1 Zr0 2.630312 1_565
Br1 Rb2 3.575984 1_555
Br1 Rb3 3.575984 1_554
Br2 Se0 2.590176 1_555
Br2 Rb1 3.763230 1_555
Br2 Rb1 3.763230 1_565
Br2 Rb2 3.763230 1_555
Br2 Rb2 3.763230 1_655
Br3 Se0 2.584803 1_555
Br3 Rb0 3.713040 1_555
Br3 Rb1 3.713040 1_555
Br3 Rb3 3.735167 1_555
Br3 Rb2 3.735167 1_555
Br4 Zr0 2.630312 1_555
Br4 Rb1 3.575984 1_555
Br4 Rb0 3.575984 1_554
Br5 Se0 2.584803 1_555
Br5 Rb3 3.713040 1_655
Br5 Rb2 3.713040 1_655
Br5 Rb0 3.735167 1_555
Br5 Rb1 3.735167 1_555
Br6 Zr0 2.646145 1_555
Br6 Rb1 3.766880 1_555
Br6 Rb2 3.766880 1_545
Br6 Rb2 3.766880 1_555
Br6 Rb1 3.766880 1_455
Br7 Se0 2.584803 1_555
Br7 Rb0 3.713040 1_565
Br7 Rb1 3.713040 1_565
Br7 Rb3 3.735167 1_655
Br7 Rb2 3.735167 1_655
Br8 Se0 2.584803 1_555
Br8 Rb3 3.713040 1_555
Br8 Rb2 3.713040 1_555
Br8 Rb0 3.735167 1_565
Br8 Rb1 3.735167 1_565
Br9 Se0 2.590176 1_555
Br9 Rb0 3.763230 1_565
Br9 Rb0 3.763230 1_555
Br9 Rb3 3.763230 1_655
Br9 Rb3 3.763230 1_555
Br10 Zr0 2.630312 1_665
Br10 Rb1 3.575984 1_565
Br10 Rb0 3.575984 1_564
Br11 Zr0 2.646145 1_556
Br11 Rb3 3.766880 1_545
Br11 Rb3 3.766880 1_555
Br11 Rb0 3.766880 1_455
Br11 Rb0 3.766880 1_555
