# generated using pymatgen
data_LuZr(SnRh)2
_symmetry_space_group_name_H-M   'P 1'
_cell_length_a   7.52364519
_cell_length_b   7.52364600
_cell_length_c   7.15627486
_cell_angle_alpha   90.00000000
_cell_angle_beta   90.00000000
_cell_angle_gamma   120.00000212
_symmetry_Int_Tables_number   1
_chemical_formula_structural   LuZr(SnRh)2
_chemical_formula_sum   'Lu3 Zr3 Sn6 Rh6'
_cell_volume   350.81188219
_cell_formula_units_Z   3
loop_
 _symmetry_equiv_pos_site_id
 _symmetry_equiv_pos_as_xyz
  1  'x, y, z'
loop_
 _atom_site_type_symbol
 _atom_site_label
 _atom_site_symmetry_multiplicity
 _atom_site_fract_x
 _atom_site_fract_y
 _atom_site_fract_z
 _atom_site_occupancy
  Lu  Lu0  1  0.60014134  0.99997129  0.75000000  1
  Lu  Lu1  1  0.39982995  0.39985866  0.75000000  1
  Lu  Lu2  1  0.00002871  0.60017005  0.75000000  1
  Zr  Zr0  1  0.60584671  0.00022268  0.25000000  1
  Zr  Zr1  1  0.39437597  0.39415329  0.25000000  1
  Zr  Zr2  1  0.99977732  0.60562403  0.25000000  1
  Sn  Sn0  1  0.27023907  0.99989905  0.00371214  1
  Sn  Sn1  1  0.72965998  0.72976093  0.49628786  1
  Sn  Sn2  1  0.00010095  0.27034002  0.49628786  1
  Sn  Sn3  1  0.00010095  0.27034002  0.00371214  1
  Sn  Sn4  1  0.72965998  0.72976093  0.00371214  1
  Sn  Sn5  1  0.27023907  0.99989905  0.49628786  1
  Rh  Rh0  1  0.66666700  0.33333300  0.02350463  1
  Rh  Rh1  1  0.66666700  0.33333300  0.47649537  1
  Rh  Rh2  1  0.33333300  0.66666700  0.02423486  1
  Rh  Rh3  1  0.33333300  0.66666700  0.47576514  1
  Rh  Rh4  1  0.00000000  0.00000000  0.75000000  1
  Rh  Rh5  1  0.00000000  0.00000000  0.25000000  1
loop_
_geom_bond_atom_site_label_1
_geom_bond_atom_site_label_2
_geom_bond_distance
_geom_bond_site_symmetry_2
Lu0 Rh4 3.008287 1_665
Lu0 Rh0 3.019378 1_566
Lu0 Rh1 3.019378 1_565
Lu0 Rh2 3.022501 1_556
Lu0 Rh3 3.022501 1_555
Lu0 Sn0 3.075034 1_556
Lu0 Sn5 3.075034 1_555
Lu0 Sn4 3.218706 1_556
Lu0 Sn1 3.218706 1_555
Lu0 Sn3 3.219975 1_666
Lu0 Sn2 3.219975 1_665
Lu1 Rh4 3.008287 1_555
Lu1 Rh0 3.019383 1_556
Lu1 Rh1 3.019383 1_555
Lu1 Rh2 3.022504 1_556
Lu1 Rh3 3.022504 1_555
Lu1 Sn4 3.075034 1_556
Lu1 Sn1 3.075034 1_555
Lu1 Sn3 3.218706 1_556
Lu1 Sn2 3.218706 1_555
Lu1 Sn0 3.219975 1_546
Lu1 Sn5 3.219975 1_545
Lu2 Rh4 3.008287 1_565
Lu2 Rh0 3.019379 1_456
Lu2 Rh1 3.019379 1_455
Lu2 Rh2 3.022499 1_556
Lu2 Rh3 3.022499 1_555
Lu2 Sn3 3.075035 1_556
Lu2 Sn2 3.075035 1_555
Lu2 Sn0 3.218706 1_556
Lu2 Sn5 3.218706 1_555
Lu2 Sn4 3.219975 1_456
Lu2 Sn1 3.219975 1_455
Sn0 Zr0 3.078289 1_565
Sn0 Zr1 3.163364 1_565
Sn0 Zr2 3.163912 1_455
Sn1 Zr1 3.078289 1_555
Sn1 Zr2 3.163364 1_555
Sn1 Zr0 3.163912 1_565
Sn2 Zr2 3.078290 1_455
Sn2 Zr0 3.163364 1_455
Sn2 Zr1 3.163911 1_555
Sn3 Zr2 3.078290 1_455
Sn3 Zr0 3.163364 1_455
Sn3 Zr1 3.163911 1_555
Sn4 Zr1 3.078289 1_555
Sn4 Zr2 3.163364 1_555
Sn4 Zr0 3.163912 1_565
Sn5 Zr0 3.078289 1_565
Sn5 Zr1 3.163364 1_565
Sn5 Zr2 3.163912 1_455
Rh0 Sn3 2.779727 1_655
Rh0 Sn0 2.779732 1_545
Rh0 Sn4 2.779735 1_555
Rh0 Zr0 2.823266 1_555
Rh0 Zr2 2.823268 1_555
Rh0 Zr1 2.823272 1_555
Rh1 Sn2 2.779727 1_655
Rh1 Sn5 2.779732 1_545
Rh1 Sn1 2.779735 1_555
Rh1 Zr0 2.823266 1_555
Rh1 Zr2 2.823268 1_555
Rh1 Zr1 2.823272 1_555
Rh2 Sn0 2.778971 1_555
Rh2 Sn3 2.778975 1_555
Rh2 Sn4 2.778978 1_555
Rh2 Zr2 2.822503 1_455
Rh2 Zr0 2.822505 1_565
Rh2 Zr1 2.822509 1_555
Rh3 Sn5 2.778971 1_555
Rh3 Sn2 2.778975 1_555
Rh3 Sn1 2.778978 1_555
Rh3 Zr2 2.822503 1_455
Rh3 Zr0 2.822505 1_565
Rh3 Zr1 2.822509 1_555
Rh4 Sn0 2.726152 1_546
Rh4 Sn5 2.726152 1_545
Rh4 Sn4 2.726152 1_446
Rh4 Sn1 2.726152 1_445
Rh4 Sn3 2.726152 1_556
Rh4 Sn2 2.726152 1_555
Rh5 Sn5 2.691059 1_545
Rh5 Sn0 2.691059 1_545
Rh5 Sn1 2.691059 1_445
Rh5 Sn4 2.691059 1_445
Rh5 Sn2 2.691059 1_555
Rh5 Sn3 2.691059 1_555
Rh5 Zr0 2.966308 1_455
Rh5 Zr1 2.966308 1_555
Rh5 Zr2 2.966308 1_445
