# generated using pymatgen
data_Cs3Na2TaP3
_symmetry_space_group_name_H-M   'P 1'
_cell_length_a   10.43098585
_cell_length_b   10.43098677
_cell_length_c   16.56828760
_cell_angle_alpha   90.00000000
_cell_angle_beta   90.00000000
_cell_angle_gamma   141.89916876
_symmetry_Int_Tables_number   1
_chemical_formula_structural   Cs3Na2TaP3
_chemical_formula_sum   'Cs12 Na8 Ta4 P12'
_cell_volume   1112.36374663
_cell_formula_units_Z   4
loop_
 _symmetry_equiv_pos_site_id
 _symmetry_equiv_pos_as_xyz
  1  'x, y, z'
loop_
 _atom_site_type_symbol
 _atom_site_label
 _atom_site_symmetry_multiplicity
 _atom_site_fract_x
 _atom_site_fract_y
 _atom_site_fract_z
 _atom_site_occupancy
  Cs  Cs0  1  0.94853306  0.61553977  0.82656283  1
  Cs  Cs1  1  0.55146694  0.88446023  0.32656283  1
  Cs  Cs2  1  0.38446023  0.05146694  0.17343717  1
  Cs  Cs3  1  0.05146694  0.38446023  0.17343717  1
  Cs  Cs4  1  0.88446023  0.55146694  0.32656283  1
  Cs  Cs5  1  0.44853306  0.11553977  0.67343717  1
  Cs  Cs6  1  0.61553977  0.94853306  0.82656283  1
  Cs  Cs7  1  0.28660927  0.28660927  0.31167862  1
  Cs  Cs8  1  0.78660927  0.78660927  0.18832138  1
  Cs  Cs9  1  0.21339073  0.21339073  0.81167862  1
  Cs  Cs10  1  0.71339073  0.71339073  0.68832138  1
  Cs  Cs11  1  0.11553977  0.44853306  0.67343717  1
  Na  Na0  1  0.92228952  0.07771048  0.00000000  1
  Na  Na1  1  0.57771048  0.42228952  0.50000000  1
  Na  Na2  1  0.07771048  0.92228952  0.00000000  1
  Na  Na3  1  0.42228952  0.57771048  0.50000000  1
  Na  Na4  1  0.75625112  0.24374888  0.00000000  1
  Na  Na5  1  0.74374888  0.25625112  0.50000000  1
  Na  Na6  1  0.24374888  0.75625112  0.00000000  1
  Na  Na7  1  0.25625112  0.74374888  0.50000000  1
  Ta  Ta0  1  0.58125692  0.41874308  0.00000000  1
  Ta  Ta1  1  0.91874308  0.08125692  0.50000000  1
  Ta  Ta2  1  0.41874308  0.58125692  0.00000000  1
  Ta  Ta3  1  0.08125692  0.91874308  0.50000000  1
  P  P0  1  0.85812841  0.55391929  0.08493079  1
  P  P1  1  0.44608071  0.14187159  0.91506921  1
  P  P2  1  0.64187159  0.94608071  0.58493079  1
  P  P3  1  0.94608071  0.64187159  0.58493079  1
  P  P4  1  0.14187159  0.44608071  0.91506921  1
  P  P5  1  0.55391929  0.85812841  0.08493079  1
  P  P6  1  0.35812841  0.05391929  0.41506921  1
  P  P7  1  0.19340390  0.19340390  0.58147563  1
  P  P8  1  0.69340390  0.69340390  0.91852437  1
  P  P9  1  0.30659610  0.30659610  0.08147563  1
  P  P10  1  0.05391929  0.35812841  0.41506921  1
  P  P11  1  0.80659610  0.80659610  0.41852437  1
loop_
_geom_bond_atom_site_label_1
_geom_bond_atom_site_label_2
_geom_bond_distance
_geom_bond_site_symmetry_2
Cs0 P1 3.643580 1_555
Cs0 P8 3.669501 1_555
Cs0 P1 3.792479 1_665
Cs0 P4 3.866834 1_655
Cs0 P3 4.014299 1_555
Cs1 P10 3.643580 1_665
Cs1 P11 3.669501 1_555
Cs1 P10 3.792479 1_555
Cs1 P6 3.866834 1_565
Cs1 P5 4.014299 1_555
Cs2 P0 3.643580 1_555
Cs2 P9 3.669501 1_555
Cs2 P0 3.792479 1_445
Cs2 P5 3.866834 1_545
Cs2 P6 4.014299 1_555
Cs3 P5 3.643580 1_555
Cs3 P9 3.669501 1_555
Cs3 P5 3.792479 1_445
Cs3 P0 3.866834 1_455
Cs3 P10 4.014299 1_555
Cs4 P6 3.643580 1_665
Cs4 P11 3.669501 1_555
Cs4 P6 3.792479 1_555
Cs4 P10 3.866834 1_655
Cs4 P0 4.014299 1_555
Cs5 P3 3.643580 1_445
Cs5 P7 3.669501 1_555
Cs5 P3 3.792479 1_555
Cs5 P2 3.866834 1_545
Cs5 P1 4.014299 1_555
Cs6 P4 3.643580 1_555
Cs6 P8 3.669501 1_555
Cs6 P4 3.792479 1_665
Cs6 P1 3.866834 1_565
Cs6 P2 4.014299 1_555
Cs7 P10 3.497422 1_555
Cs7 P6 3.497422 1_555
Cs7 P11 3.717174 1_445
Cs7 P9 3.816497 1_555
Cs8 P5 3.497422 1_555
Cs8 P0 3.497422 1_555
Cs8 P9 3.717174 1_555
Cs8 P11 3.816497 1_555
Cs9 P1 3.497422 1_555
Cs9 P4 3.497422 1_555
Cs9 P8 3.717174 1_555
Cs9 P7 3.816497 1_555
Cs10 P3 3.497422 1_555
Cs10 P2 3.497422 1_555
Cs10 P7 3.717174 1_665
Cs10 P8 3.816497 1_555
Cs11 P2 3.643580 1_445
Cs11 P7 3.669501 1_555
Cs11 P2 3.792479 1_555
Cs11 P3 3.866834 1_455
Cs11 P4 4.014299 1_555
Na0 P5 2.852954 1_545
Na0 P4 2.852954 1_654
Na0 P9 2.920462 1_655
Na0 P8 2.920462 1_544
Na1 P3 2.852954 1_555
Na1 P6 2.852954 1_555
Na1 P7 2.920462 1_555
Na1 P11 2.920462 1_555
Na2 P1 2.852954 1_564
Na2 P0 2.852954 1_455
Na2 P8 2.920462 1_454
Na2 P9 2.920462 1_565
Na3 P10 2.852954 1_555
Na3 P2 2.852954 1_555
Na3 P11 2.920462 1_555
Na3 P7 2.920462 1_555
Na4 P1 2.857604 1_554
Na4 P0 2.857604 1_555
Na4 P4 3.041892 1_654
Na4 P5 3.041892 1_545
Na5 P10 2.857604 1_655
Na5 P2 2.857604 1_545
Na5 P6 3.041892 1_555
Na5 P3 3.041892 1_555
Na6 P5 2.857604 1_555
Na6 P4 2.857604 1_554
Na6 P0 3.041892 1_455
Na6 P1 3.041892 1_564
Na7 P3 2.857604 1_455
Na7 P6 2.857604 1_565
Na7 P2 3.041892 1_555
Na7 P10 3.041892 1_555
P0 Ta0 2.428991 1_555
P1 Ta0 2.428992 1_556
P2 Ta1 2.428991 1_565
P3 Ta3 2.428992 1_655
P4 Ta2 2.428991 1_556
P5 Ta2 2.428992 1_555
P6 Ta3 2.428991 1_545
P7 Ta1 2.474695 1_455
P7 Ta3 2.474695 1_545
P8 Ta2 2.474695 1_556
P8 Ta0 2.474695 1_556
P9 Ta0 2.474695 1_555
P9 Ta2 2.474695 1_555
P10 Ta1 2.428992 1_455
P11 Ta3 2.474695 1_655
P11 Ta1 2.474695 1_565
