# generated using pymatgen
data_Li3Sc3ZnP2
_symmetry_space_group_name_H-M   'P 1'
_cell_length_a   6.59254132
_cell_length_b   6.59254200
_cell_length_c   3.87821693
_cell_angle_alpha   90.00000000
_cell_angle_beta   90.00000000
_cell_angle_gamma   120.00000161
_symmetry_Int_Tables_number   1
_chemical_formula_structural   Li3Sc3ZnP2
_chemical_formula_sum   'Li3 Sc3 Zn1 P2'
_cell_volume   145.97164029
_cell_formula_units_Z   1
loop_
 _symmetry_equiv_pos_site_id
 _symmetry_equiv_pos_as_xyz
  1  'x, y, z'
loop_
 _atom_site_type_symbol
 _atom_site_label
 _atom_site_symmetry_multiplicity
 _atom_site_fract_x
 _atom_site_fract_y
 _atom_site_fract_z
 _atom_site_occupancy
  Li  Li0  1  0.00000000  0.74606962  0.00000000  1
  Li  Li1  1  0.25393038  0.25393038  0.00000000  1
  Li  Li2  1  0.74606962  1.00000000  0.00000000  1
  Sc  Sc0  1  1.00000000  0.42812390  0.50000000  1
  Sc  Sc1  1  0.57187610  0.57187610  0.50000000  1
  Sc  Sc2  1  0.42812390  0.00000000  0.50000000  1
  Zn  Zn0  1  0.00000000  0.00000000  0.50000000  1
  P  P0  1  0.66666700  0.33333300  0.00000000  1
  P  P1  1  0.33333300  0.66666700  0.00000000  1
loop_
_geom_bond_atom_site_label_1
_geom_bond_atom_site_label_2
_geom_bond_distance
_geom_bond_site_symmetry_2
Li0 P1 2.500679 1_555
Li0 P0 2.500683 1_455
Li0 Zn0 2.561752 1_565
Li0 Zn0 2.561752 1_564
Li0 Sc0 2.855460 1_454
Li0 Sc0 2.855460 1_455
Li0 Sc1 3.131099 1_454
Li0 Sc1 3.131099 1_455
Li0 Sc2 3.131099 1_565
Li0 Sc2 3.131099 1_564
Li1 P0 2.500685 1_555
Li1 P1 2.500685 1_555
Li1 Zn0 2.561752 1_555
Li1 Zn0 2.561752 1_554
Li1 Sc1 2.855460 1_555
Li1 Sc1 2.855460 1_554
Li1 Sc0 3.131099 1_454
Li1 Sc0 3.131099 1_455
Li1 Sc2 3.131100 1_555
Li1 Sc2 3.131100 1_554
Li2 P0 2.500679 1_565
Li2 P1 2.500683 1_555
Li2 Zn0 2.561752 1_665
Li2 Zn0 2.561752 1_664
Li2 Sc2 2.855460 1_564
Li2 Sc2 2.855460 1_565
Li2 Sc0 3.131100 1_565
Li2 Sc0 3.131100 1_564
Li2 Sc1 3.131100 1_555
Li2 Sc1 3.131100 1_554
Sc0 Zn0 2.822425 1_655
Sc1 Zn0 2.822425 1_665
Sc2 Zn0 2.822424 1_555
P0 Sc0 2.757981 1_554
P0 Sc0 2.757981 1_555
P0 Sc2 2.757983 1_555
P0 Sc2 2.757983 1_554
P0 Sc1 2.757986 1_555
P0 Sc1 2.757986 1_554
P1 Sc2 2.757982 1_565
P1 Sc2 2.757982 1_564
P1 Sc0 2.757983 1_454
P1 Sc0 2.757983 1_455
P1 Sc1 2.757986 1_555
P1 Sc1 2.757986 1_554
