# generated using pymatgen
data_Sr4LiZn5Au12
_symmetry_space_group_name_H-M   'P 1'
_cell_length_a   8.77055279
_cell_length_b   8.77915122
_cell_length_c   8.77055302
_cell_angle_alpha   57.62290393
_cell_angle_beta   57.58290233
_cell_angle_gamma   57.62291137
_symmetry_Int_Tables_number   1
_chemical_formula_structural   Sr4LiZn5Au12
_chemical_formula_sum   'Sr4 Li1 Zn5 Au12'
_cell_volume   451.28131607
_cell_formula_units_Z   1
loop_
 _symmetry_equiv_pos_site_id
 _symmetry_equiv_pos_as_xyz
  1  'x, y, z'
loop_
 _atom_site_type_symbol
 _atom_site_label
 _atom_site_symmetry_multiplicity
 _atom_site_fract_x
 _atom_site_fract_y
 _atom_site_fract_z
 _atom_site_occupancy
  Sr  Sr0  1  0.90893500  0.90629447  0.90720139  1
  Sr  Sr1  1  0.40828581  0.40583311  0.40802770  1
  Sr  Sr2  1  0.09197230  0.09416689  0.09171419  1
  Sr  Sr3  1  0.59279861  0.59370553  0.59106500  1
  Li  Li0  1  0.55704211  0.75000000  0.94295789  1
  Zn  Zn0  1  0.93809241  0.56174896  0.75071828  1
  Zn  Zn1  1  0.74928172  0.93825104  0.56190759  1
  Zn  Zn2  1  0.43882836  0.25000000  0.06117164  1
  Zn  Zn3  1  0.06248054  0.43749381  0.25127831  1
  Zn  Zn4  1  0.24872169  0.06250619  0.43751946  1
  Au  Au0  1  0.48410676  0.86022187  0.20657609  1
  Au  Au1  1  0.20762511  0.47703606  0.86169025  1
  Au  Au2  1  0.86202423  0.20523660  0.48085633  1
  Au  Au3  1  0.70291770  0.36825984  0.97993756  1
  Au  Au4  1  0.97992235  0.70844468  0.35999072  1
  Au  Au5  1  0.36339024  0.97819006  0.70737301  1
  Au  Au6  1  0.52006244  0.13174016  0.79708230  1
  Au  Au7  1  0.79262699  0.52180994  0.13660976  1
  Au  Au8  1  0.14000928  0.79155532  0.52007765  1
  Au  Au9  1  0.29342391  0.63977813  0.01589324  1
  Au  Au10  1  0.01914367  0.29476340  0.63797577  1
  Au  Au11  1  0.63830975  0.02296394  0.29237489  1
loop_
_geom_bond_atom_site_label_1
_geom_bond_atom_site_label_2
_geom_bond_distance
_geom_bond_site_symmetry_2
Li0 Zn1 2.787611 1_555
Li0 Zn0 2.787611 1_555
Zn0 Zn1 2.761496 1_555
Zn2 Zn4 2.757611 1_555
Zn2 Zn3 2.757611 1_555
Zn3 Zn4 2.741619 1_555
Au0 Li0 2.615090 1_554
Au0 Zn4 2.638375 1_565
Au0 Zn2 2.812038 1_565
Au0 Au7 2.843870 1_555
Au0 Au8 2.882348 1_555
Au0 Au11 2.957819 1_565
Au0 Au6 3.017006 1_564
Au0 Sr3 3.219093 1_555
Au0 Sr0 3.305781 1_554
Au0 Sr2 3.315909 1_565
Au0 Sr1 3.675609 1_555
Au1 Zn2 2.624126 1_556
Au1 Zn0 2.626286 1_455
Au1 Zn3 2.820569 1_556
Au1 Au8 2.871223 1_555
Au1 Au6 2.880612 1_555
Au1 Au9 2.957819 1_556
Au1 Au7 3.047885 1_456
Au1 Sr2 3.254539 1_556
Au1 Sr3 3.255787 1_555
Au1 Sr0 3.337763 1_455
Au1 Sr1 3.646540 1_555
Au2 Zn1 2.630794 1_545
Au2 Zn3 2.636219 1_655
Au2 Zn4 2.791730 1_655
Au2 Au6 2.888119 1_555
Au2 Au7 2.895212 1_555
Au2 Au8 3.054590 1_645
Au2 Sr3 3.255730 1_555
Au2 Sr2 3.277939 1_655
Au2 Sr0 3.319969 1_545
Au2 Sr1 3.655273 1_555
Au3 Zn0 2.613552 1_555
Au3 Zn2 2.638988 1_556
Au3 Li0 2.768097 1_555
Au3 Au7 2.933141 1_556
Au3 Au9 3.017007 1_556
Au3 Sr2 3.265132 1_656
Au3 Sr3 3.276801 1_555
Au3 Sr1 3.300679 1_556
Au4 Zn1 2.629311 1_555
Au4 Zn3 2.633604 1_655
Au4 Zn0 2.822808 1_555
Au4 Au9 2.882349 1_655
Au4 Au8 2.963618 1_655
Au4 Sr2 3.243575 1_665
Au4 Sr3 3.278551 1_555
Au4 Sr1 3.340534 1_655
Au4 Sr0 3.644236 1_554
Au5 Li0 2.617756 1_555
Au5 Zn4 2.653188 1_565
Au5 Zn1 2.789978 1_555
Au5 Au9 2.843870 1_556
Au5 Au6 2.933141 1_565
Au5 Sr2 3.246980 1_566
Au5 Sr3 3.270479 1_555
Au5 Sr1 3.325881 1_565
Au5 Sr0 3.657429 1_455
Au6 Zn1 2.613552 1_545
Au6 Zn2 2.638988 1_556
Au6 Li0 2.768096 1_545
Au6 Sr1 3.265132 1_555
Au6 Sr0 3.276801 1_545
Au6 Sr2 3.300679 1_556
Au7 Li0 2.617756 1_554
Au7 Zn3 2.653188 1_655
Au7 Zn0 2.789978 1_554
Au7 Sr1 3.246980 1_555
Au7 Sr0 3.270478 1_554
Au7 Sr2 3.325881 1_655
Au7 Sr3 3.657429 1_555
Au8 Zn0 2.629310 1_455
Au8 Zn4 2.633604 1_565
Au8 Zn1 2.822808 1_455
Au8 Sr1 3.243576 1_555
Au8 Sr0 3.278551 1_455
Au8 Sr2 3.340534 1_565
Au8 Sr3 3.644236 1_555
Au9 Li0 2.615090 1_554
Au9 Zn3 2.638375 1_555
Au9 Zn2 2.812038 1_555
Au9 Sr0 3.219093 1_454
Au9 Sr3 3.305782 1_554
Au9 Sr1 3.315909 1_555
Au9 Sr2 3.675609 1_565
Au10 Zn0 2.630794 1_455
Au10 Zn4 2.636220 1_555
Au10 Zn3 2.791730 1_555
Au10 Au3 2.888119 1_455
Au10 Au5 2.895212 1_545
Au10 Au2 2.961680 1_455
Au10 Au4 3.054590 1_455
Au10 Sr0 3.255730 1_445
Au10 Sr1 3.277938 1_555
Au10 Sr3 3.319969 1_455
Au10 Sr2 3.655273 1_556
Au11 Zn2 2.624126 1_555
Au11 Zn1 2.626286 1_545
Au11 Zn4 2.820569 1_555
Au11 Au4 2.871223 1_545
Au11 Au3 2.880611 1_554
Au11 Au5 3.047885 1_545
Au11 Sr1 3.254539 1_555
Au11 Sr0 3.255787 1_544
Au11 Sr3 3.337763 1_545
Au11 Sr2 3.646540 1_655
