# generated using pymatgen
data_CsSBrO3
_symmetry_space_group_name_H-M   'P 1'
_cell_length_a   7.95073613
_cell_length_b   9.07141646
_cell_length_c   8.33873640
_cell_angle_alpha   69.56184404
_cell_angle_beta   90.00000000
_cell_angle_gamma   90.00000000
_symmetry_Int_Tables_number   1
_chemical_formula_structural   CsSBrO3
_chemical_formula_sum   'Cs4 S4 Br4 O12'
_cell_volume   563.56666206
_cell_formula_units_Z   4
loop_
 _symmetry_equiv_pos_site_id
 _symmetry_equiv_pos_as_xyz
  1  'x, y, z'
loop_
 _atom_site_type_symbol
 _atom_site_label
 _atom_site_symmetry_multiplicity
 _atom_site_fract_x
 _atom_site_fract_y
 _atom_site_fract_z
 _atom_site_occupancy
  Cs  Cs0  1  0.60772358  0.31768188  0.70194067  1
  Cs  Cs1  1  0.10772358  0.68231812  0.79805933  1
  Cs  Cs2  1  0.89227642  0.31768188  0.20194067  1
  Cs  Cs3  1  0.39227642  0.68231812  0.29805933  1
  S  S0  1  0.58199988  0.70028134  0.80276932  1
  S  S1  1  0.41800012  0.29971866  0.19723068  1
  S  S2  1  0.91800012  0.70028134  0.30276932  1
  S  S3  1  0.08199988  0.29971866  0.69723068  1
  Br  Br0  1  0.77946914  0.93001189  0.15734359  1
  Br  Br1  1  0.27946914  0.06998811  0.34265641  1
  Br  Br2  1  0.72053086  0.93001189  0.65734359  1
  Br  Br3  1  0.22053086  0.06998811  0.84265641  1
  O  O0  1  0.52160287  0.25867466  0.07729302  1
  O  O1  1  0.02160287  0.74132534  0.42270698  1
  O  O2  1  0.28183496  0.40754486  0.12377464  1
  O  O3  1  0.71816504  0.59245514  0.87622536  1
  O  O4  1  0.51112772  0.33331525  0.32966232  1
  O  O5  1  0.48887228  0.66668475  0.67033768  1
  O  O6  1  0.01112772  0.66668475  0.17033768  1
  O  O7  1  0.47839713  0.74132534  0.92270698  1
  O  O8  1  0.97839713  0.25867466  0.57729302  1
  O  O9  1  0.78183496  0.59245514  0.37622536  1
  O  O10  1  0.21816504  0.40754486  0.62377464  1
  O  O11  1  0.98887228  0.33331525  0.82966232  1
loop_
_geom_bond_atom_site_label_1
_geom_bond_atom_site_label_2
_geom_bond_distance
_geom_bond_site_symmetry_2
Cs0 O0 3.062998 1_556
Cs0 O4 3.152674 1_555
Cs0 O10 3.211140 1_555
Cs0 O5 3.225360 1_555
Cs0 O8 3.231255 1_555
Cs0 O11 3.231610 1_555
Cs0 O9 3.283007 1_555
Cs0 O3 3.409701 1_555
Cs1 O1 3.062998 1_555
Cs1 O6 3.152674 1_556
Cs1 O3 3.211140 1_455
Cs1 O11 3.225360 1_455
Cs1 O7 3.231255 1_555
Cs1 O5 3.231610 1_555
Cs1 O2 3.283007 1_556
Cs1 O10 3.409701 1_555
Cs2 O8 3.062998 1_555
Cs2 O11 3.152674 1_554
Cs2 O2 3.211140 1_655
Cs2 O6 3.225360 1_655
Cs2 O0 3.231255 1_555
Cs2 O4 3.231610 1_555
Cs2 O3 3.283007 1_554
Cs2 O9 3.409701 1_555
Cs3 O7 3.062998 1_554
Cs3 O5 3.152674 1_555
Cs3 O9 3.211140 1_555
Cs3 O4 3.225360 1_555
Cs3 O1 3.231255 1_555
Cs3 O6 3.231610 1_555
Cs3 O10 3.283007 1_555
Cs3 O2 3.409701 1_555
Br0 S2 2.293842 1_555
Br0 Cs3 3.749824 1_555
Br0 Cs2 3.771390 1_565
Br1 S1 2.293842 1_555
Br1 Cs2 3.749824 1_455
Br1 Cs3 3.771390 1_545
Br2 S0 2.293842 1_555
Br2 Cs1 3.749824 1_655
Br2 Cs0 3.771390 1_565
Br3 S3 2.293842 1_555
Br3 Cs0 3.749824 1_555
Br3 Cs1 3.771390 1_545
O0 S1 1.441340 1_555
O1 S2 1.441340 1_455
O2 S1 1.444148 1_555
O3 S0 1.444148 1_555
O4 S1 1.447647 1_555
O5 S0 1.447647 1_555
O6 S2 1.447647 1_455
O7 S0 1.441340 1_555
O8 S3 1.441340 1_655
O9 S2 1.444148 1_555
O10 S3 1.444148 1_555
O11 S3 1.447647 1_655
