# generated using pymatgen
data_Nb3Si3Os2W
_symmetry_space_group_name_H-M   'P 1'
_cell_length_a   7.51797800
_cell_length_b   7.51797830
_cell_length_c   7.51797874
_cell_angle_alpha   126.89295881
_cell_angle_beta   124.07447758
_cell_angle_gamma   80.75873465
_symmetry_Int_Tables_number   1
_chemical_formula_structural   Nb3Si3Os2W
_chemical_formula_sum   'Nb6 Si6 Os4 W2'
_cell_volume   271.39770678
_cell_formula_units_Z   2
loop_
 _symmetry_equiv_pos_site_id
 _symmetry_equiv_pos_as_xyz
  1  'x, y, z'
loop_
 _atom_site_type_symbol
 _atom_site_label
 _atom_site_symmetry_multiplicity
 _atom_site_fract_x
 _atom_site_fract_y
 _atom_site_fract_z
 _atom_site_occupancy
  Nb  Nb0  1  0.55931004  0.09360274  0.03429271  1
  Nb  Nb1  1  0.44068996  0.47498267  0.53429271  1
  Nb  Nb2  1  0.96113397  0.48988603  0.02875106  1
  Nb  Nb3  1  0.03886603  0.06761709  0.52875106  1
  Nb  Nb4  1  0.75301627  0.91979310  0.66677783  1
  Nb  Nb5  1  0.24698373  0.91376156  0.16677783  1
  Si  Si0  1  0.78039345  0.55161334  0.27122089  1
  Si  Si1  1  0.21960655  0.49082843  0.77122089  1
  Si  Si2  1  0.33499559  0.81887441  0.49362364  1
  Si  Si3  1  0.66500441  0.15862605  0.48387682  1
  Si  Si4  1  0.82525176  0.81887441  0.98387682  1
  Si  Si5  1  0.17474824  0.15862605  0.99362364  1
  Os  Os0  1  0.16222626  0.74795506  0.65661152  1
  Os  Os1  1  0.83777374  0.49438727  0.58572980  1
  Os  Os2  1  0.59134353  0.74795506  0.08572980  1
  Os  Os3  1  0.40865647  0.49438727  0.15661152  1
  W  W0  1  0.50000000  0.25021473  0.75021473  1
  W  W1  1  0.00000000  0.25021473  0.25021473  1
loop_
_geom_bond_atom_site_label_1
_geom_bond_atom_site_label_2
_geom_bond_distance
_geom_bond_site_symmetry_2
Nb0 Si2 2.643825 1_544
Nb0 Si4 2.643831 1_544
Nb0 Si3 2.725070 1_555
Nb0 Si5 2.725082 1_554
Nb0 Os0 2.803788 1_544
Nb0 Os2 2.803793 1_545
Nb0 W1 2.815972 1_655
Nb0 W0 2.815972 1_554
Nb0 Os1 2.819819 1_555
Nb0 Os3 2.819823 1_555
Nb1 Si5 2.643827 1_554
Nb1 Si3 2.643835 1_555
Nb1 Si2 2.725076 1_555
Nb1 Si4 2.725079 1_555
Nb1 Os1 2.803787 1_555
Nb1 Os3 2.803798 1_555
Nb1 W1 2.815972 1_555
Nb1 W0 2.815972 1_555
Nb1 Os0 2.819810 1_555
Nb1 Os2 2.819817 1_556
Nb2 Si0 2.634752 1_555
Nb2 Si2 2.660615 1_655
Nb2 Si4 2.660616 1_554
Nb2 Si3 2.692943 1_554
Nb2 Si5 2.692945 1_654
Nb2 Os1 2.935700 1_554
Nb2 Os3 2.935702 1_655
Nb2 W0 2.998629 1_554
Nb2 W1 2.998633 1_655
Nb3 Si1 2.634754 1_555
Nb3 Si3 2.660610 1_455
Nb3 Si5 2.660627 1_555
Nb3 Si2 2.692931 1_545
Nb3 Si4 2.692944 1_444
Nb3 Os0 2.935702 1_545
Nb3 Os2 2.935702 1_445
Nb3 W0 2.998626 1_555
Nb3 W1 2.998626 1_555
Nb4 Si5 2.667528 1_665
Nb4 Si3 2.667541 1_565
Nb4 Si4 2.672513 1_555
Nb4 Si2 2.672534 1_555
Nb4 Si0 2.677195 1_555
Nb4 W1 2.851485 1_666
Nb4 W0 2.851489 1_565
Nb4 Os1 2.906292 1_555
Nb4 Os3 2.906301 1_555
Nb5 Si4 2.667524 1_454
Nb5 Si2 2.667536 1_555
Nb5 Si5 2.672520 1_564
Nb5 Si3 2.672533 1_565
Nb5 Si1 2.677191 1_554
Nb5 W1 2.851484 1_565
Nb5 W0 2.851484 1_565
Nb5 Os2 2.906308 1_555
Nb5 Os0 2.906311 1_554
Si0 W1 2.558523 1_655
Si0 W0 2.558528 1_554
Si1 W1 2.558528 1_555
Si1 W0 2.558533 1_555
Si2 W0 2.622174 1_565
Si3 W0 2.622183 1_555
Si4 W1 2.622168 1_666
Si5 W1 2.622163 1_556
Os0 Si0 2.391709 1_455
Os0 Si1 2.445552 1_555
Os0 Si2 2.502607 1_555
Os0 Si5 2.528737 1_565
Os0 W1 2.896267 1_555
Os1 Si1 2.391710 1_655
Os1 Si0 2.445550 1_555
Os1 Si3 2.502621 1_555
Os1 Si4 2.528722 1_555
Os1 W1 2.896273 1_655
Os2 Si0 2.391710 1_555
Os2 Si1 2.445555 1_554
Os2 Si4 2.502633 1_554
Os2 Si3 2.528728 1_565
Os2 W0 2.896267 1_554
Os3 Si1 2.391703 1_554
Os3 Si0 2.445555 1_555
Os3 Si5 2.502636 1_554
Os3 Si2 2.528739 1_555
Os3 W0 2.896267 1_554
