# generated using pymatgen
data_Hf6Nb4CuSn7
_symmetry_space_group_name_H-M   'P 1'
_cell_length_a   5.73878527
_cell_length_b   8.51470810
_cell_length_c   8.51468923
_cell_angle_alpha   120.00008194
_cell_angle_beta   90.00003884
_cell_angle_gamma   89.99992166
_symmetry_Int_Tables_number   1
_chemical_formula_structural   Hf6Nb4CuSn7
_chemical_formula_sum   'Hf6 Nb4 Cu1 Sn7'
_cell_volume   360.32036893
_cell_formula_units_Z   1
loop_
 _symmetry_equiv_pos_site_id
 _symmetry_equiv_pos_as_xyz
  1  'x, y, z'
loop_
 _atom_site_type_symbol
 _atom_site_label
 _atom_site_symmetry_multiplicity
 _atom_site_fract_x
 _atom_site_fract_y
 _atom_site_fract_z
 _atom_site_occupancy
  Hf  Hf0  1  0.73264523  0.27395416  1.00000000  1
  Hf  Hf1  1  0.73261557  0.72605586  0.72604578  1
  Hf  Hf2  1  0.73261557  0.00001109  0.27395422  1
  Hf  Hf3  1  0.26736140  0.72605039  0.00000000  1
  Hf  Hf4  1  0.26738547  0.27393882  0.27395016  1
  Hf  Hf5  1  0.26738547  0.99998866  0.72604984  1
  Nb  Nb0  1  0.50000493  0.33332690  0.66665270  1
  Nb  Nb1  1  0.50000493  0.66667421  0.33334730  1
  Nb  Nb2  1  0.00000138  0.66666706  0.33333266  1
  Nb  Nb3  1  0.00000138  0.33333440  0.66666734  1
  Cu  Cu0  1  0.49997361  0.00000176  0.00000000  1
  Sn  Sn0  1  0.75621226  0.61242624  1.00000000  1
  Sn  Sn1  1  0.75623411  0.38758304  0.38758080  1
  Sn  Sn2  1  0.75623411  0.00000323  0.61241920  1
  Sn  Sn3  1  0.24379551  0.38757544  0.00000000  1
  Sn  Sn4  1  0.24376874  0.61241362  0.61241676  1
  Sn  Sn5  1  0.24376874  0.99999685  0.38758324  1
  Sn  Sn6  1  0.99999160  0.99999926  0.00000000  1
loop_
_geom_bond_atom_site_label_1
_geom_bond_atom_site_label_2
_geom_bond_distance
_geom_bond_site_symmetry_2
Hf0 Sn6 2.791976 1_546
Hf0 Sn0 2.885163 1_555
Hf0 Sn2 2.941483 1_555
Hf0 Sn1 2.941485 1_556
Hf0 Sn3 2.967532 1_556
Hf0 Sn3 3.088802 1_656
Hf0 Nb1 3.395455 1_556
Hf0 Nb0 3.395455 1_555
Hf0 Nb2 3.478542 1_656
Hf0 Nb3 3.478543 1_655
Hf1 Sn6 2.792024 1_556
Hf1 Sn1 2.885143 1_555
Hf1 Sn2 2.941449 1_565
Hf1 Sn0 2.941515 1_555
Hf1 Sn4 2.967557 1_555
Hf1 Sn4 3.088854 1_655
Hf1 Nb1 3.395193 1_555
Hf1 Nb0 3.395405 1_555
Hf1 Nb2 3.478593 1_655
Hf1 Nb3 3.478690 1_655
Hf2 Sn6 2.792021 1_545
Hf2 Sn2 2.885143 1_555
Hf2 Sn1 2.941433 1_555
Hf2 Sn0 2.941520 1_544
Hf2 Sn5 2.967559 1_545
Hf2 Sn5 3.088855 1_645
Hf2 Nb0 3.395190 1_555
Hf2 Nb1 3.395413 1_545
Hf2 Nb3 3.478589 1_655
Hf2 Nb2 3.478697 1_645
Hf3 Sn6 2.792007 1_455
Hf3 Sn3 2.885187 1_555
Hf3 Sn5 2.941490 1_555
Hf3 Sn4 2.941490 1_554
Hf3 Sn0 2.967546 1_554
Hf3 Sn0 3.088804 1_454
Hf3 Nb0 3.395478 1_554
Hf3 Nb1 3.395479 1_555
Hf3 Nb3 3.478567 1_554
Hf3 Nb2 3.478567 1_555
Hf4 Sn6 2.792053 1_445
Hf4 Sn4 2.885157 1_555
Hf4 Sn5 2.941445 1_545
Hf4 Sn3 2.941523 1_555
Hf4 Sn1 2.967572 1_555
Hf4 Sn1 3.088849 1_455
Hf4 Nb0 3.395226 1_555
Hf4 Nb1 3.395463 1_555
Hf4 Nb3 3.478600 1_555
Hf4 Nb2 3.478725 1_555
Hf5 Sn6 2.792053 1_456
Hf5 Sn5 2.885158 1_555
Hf5 Sn4 2.941445 1_555
Hf5 Sn3 2.941522 1_566
Hf5 Sn2 2.967573 1_565
Hf5 Sn2 3.088850 1_465
Hf5 Nb1 3.395225 1_555
Hf5 Nb0 3.395463 1_565
Hf5 Nb2 3.478599 1_555
Hf5 Nb3 3.478725 1_565
Nb0 Nb3 2.869372 1_655
Nb0 Nb3 2.869413 1_555
Nb0 Sn1 3.019895 1_555
Nb0 Sn5 3.019917 1_545
Nb0 Sn2 3.019925 1_555
Nb0 Sn4 3.019930 1_555
Nb0 Sn0 3.019995 1_555
Nb0 Sn3 3.019999 1_556
Nb1 Nb2 2.869372 1_655
Nb1 Nb2 2.869413 1_555
Nb1 Sn2 3.019899 1_565
Nb1 Sn4 3.019917 1_555
Nb1 Sn5 3.019930 1_555
Nb1 Sn1 3.019932 1_555
Nb1 Sn0 3.019995 1_554
Nb1 Sn3 3.019999 1_555
Nb2 Sn5 2.985758 1_555
Nb2 Sn1 2.985783 1_455
Nb2 Sn2 2.985801 1_465
Nb2 Sn4 2.985802 1_555
Nb2 Sn0 2.985857 1_454
Nb2 Sn3 2.985869 1_555
Nb3 Sn4 2.985759 1_555
Nb3 Sn2 2.985775 1_455
Nb3 Sn1 2.985797 1_455
Nb3 Sn5 2.985801 1_545
Nb3 Sn0 2.985857 1_455
Nb3 Sn3 2.985870 1_556
Cu0 Hf4 2.687448 1_555
Cu0 Hf5 2.687449 1_544
Cu0 Hf3 2.687582 1_545
Cu0 Hf2 2.687646 1_555
Cu0 Hf1 2.687650 1_544
Cu0 Hf0 2.687759 1_554
Cu0 Sn6 2.869289 1_445
Cu0 Sn6 2.869496 1_545
