# generated using pymatgen
data_K11Cd2Bi5
_symmetry_space_group_name_H-M   'P 1'
_cell_length_a   10.16248002
_cell_length_b   12.29011460
_cell_length_c   13.11191012
_cell_angle_alpha   103.55898150
_cell_angle_beta   97.12455689
_cell_angle_gamma   107.63551213
_symmetry_Int_Tables_number   1
_chemical_formula_structural   K11Cd2Bi5
_chemical_formula_sum   'K22 Cd4 Bi10'
_cell_volume   1483.18153341
_cell_formula_units_Z   2
loop_
 _symmetry_equiv_pos_site_id
 _symmetry_equiv_pos_as_xyz
  1  'x, y, z'
loop_
 _atom_site_type_symbol
 _atom_site_label
 _atom_site_symmetry_multiplicity
 _atom_site_fract_x
 _atom_site_fract_y
 _atom_site_fract_z
 _atom_site_occupancy
  K  K0  1  0.85753290  0.57367587  0.96070530  1
  K  K1  1  0.14246710  0.42632413  0.03929470  1
  K  K2  1  0.30134546  0.89312803  0.77583394  1
  K  K3  1  0.69865454  0.10687197  0.22416606  1
  K  K4  1  0.63199651  0.16601006  0.53141418  1
  K  K5  1  0.36800349  0.83398994  0.46858582  1
  K  K6  1  0.63770066  0.67463169  0.56170532  1
  K  K7  1  0.36229934  0.32536831  0.43829468  1
  K  K8  1  0.20229313  0.55707063  0.57099007  1
  K  K9  1  0.79770687  0.44292937  0.42900993  1
  K  K10  1  0.05000919  0.70574557  0.26792966  1
  K  K11  1  0.94999081  0.29425443  0.73207034  1
  K  K12  1  0.20153103  0.07868081  0.57020953  1
  K  K13  1  0.79846897  0.92131919  0.42979047  1
  K  K14  1  0.87686678  0.09487853  0.98180620  1
  K  K15  1  0.12313322  0.90512147  0.01819380  1
  K  K16  1  0.58560242  0.22655904  0.86398756  1
  K  K17  1  0.41439758  0.77344096  0.13601244  1
  K  K18  1  0.39262522  0.24728173  0.14151794  1
  K  K19  1  0.60737478  0.75271827  0.85848206  1
  K  K20  1  0.35064234  0.41267426  0.79082328  1
  K  K21  1  0.64935766  0.58732574  0.20917672  1
  Cd  Cd0  1  0.94656331  0.95897233  0.71773482  1
  Cd  Cd1  1  0.05343669  0.04102767  0.28226518  1
  Cd  Cd2  1  0.94689817  0.62353742  0.71395576  1
  Cd  Cd3  1  0.05310183  0.37646258  0.28604424  1
  Bi  Bi0  1  0.00244836  0.76468966  0.55193171  1
  Bi  Bi1  1  0.99755164  0.23531034  0.44806829  1
  Bi  Bi2  1  0.65900208  0.45432012  0.69105310  1
  Bi  Bi3  1  0.34099792  0.54567988  0.30894690  1
  Bi  Bi4  1  0.66110562  0.97347330  0.70009189  1
  Bi  Bi5  1  0.33889438  0.02652670  0.29990811  1
  Bi  Bi6  1  0.19412319  0.14930944  0.86695395  1
  Bi  Bi7  1  0.80587681  0.85069056  0.13304605  1
  Bi  Bi8  1  0.19173624  0.63161958  0.86686145  1
  Bi  Bi9  1  0.80826376  0.36838042  0.13313855  1
loop_
_geom_bond_atom_site_label_1
_geom_bond_atom_site_label_2
_geom_bond_distance
_geom_bond_site_symmetry_2
Cd0 K12 3.589963 1_665
Cd0 K14 3.727431 1_565
Cd0 K13 3.752718 1_555
Cd0 K6 3.828614 1_555
Cd0 K2 3.950974 1_655
Cd0 K11 4.069960 1_565
Cd1 K13 3.589963 1_445
Cd1 K15 3.727431 1_545
Cd1 K12 3.752718 1_555
Cd1 K7 3.828614 1_555
Cd1 K3 3.950974 1_455
Cd1 K10 4.069960 1_545
Cd2 K8 3.562456 1_655
Cd2 K0 3.604043 1_555
Cd2 K9 3.721817 1_555
Cd2 K6 3.805314 1_555
Cd2 K2 3.923541 1_655
Cd2 K11 4.118365 1_555
Cd3 K9 3.562456 1_455
Cd3 K1 3.604043 1_555
Cd3 K8 3.721817 1_555
Cd3 K7 3.805314 1_555
Cd3 K3 3.923541 1_455
Cd3 K10 4.118365 1_555
Bi0 Cd2 3.045255 1_455
Bi0 Cd0 3.073129 1_455
Bi0 K6 3.560875 1_455
Bi0 K2 3.612055 1_555
Bi0 K13 3.688821 1_455
Bi0 K12 3.709159 1_565
Bi0 K9 3.709298 1_455
Bi0 K8 3.743149 1_555
Bi0 K10 3.744180 1_555
Bi0 K5 3.904716 1_555
Bi1 Cd3 3.045255 1_655
Bi1 Cd1 3.073129 1_655
Bi1 K7 3.560875 1_655
Bi1 K3 3.612055 1_555
Bi1 K12 3.688821 1_655
Bi1 K13 3.709159 1_545
Bi1 K8 3.709298 1_655
Bi1 K9 3.743149 1_555
Bi1 K11 3.744180 1_555
Bi1 K4 3.904716 1_555
Bi2 Cd2 2.962715 1_555
Bi2 K20 3.486023 1_555
Bi2 K6 3.559772 1_555
Bi2 K0 3.567717 1_555
Bi2 K4 3.578082 1_555
Bi2 K7 3.840553 1_555
Bi2 K9 3.860989 1_555
Bi2 K16 3.957788 1_555
Bi2 K19 4.027485 1_555
Bi2 K11 4.065776 1_555
Bi3 Cd3 2.962715 1_555
Bi3 K21 3.486023 1_555
Bi3 K7 3.559772 1_555
Bi3 K1 3.567717 1_555
Bi3 K5 3.578082 1_555
Bi3 K6 3.840553 1_555
Bi3 K8 3.860989 1_555
Bi3 K17 3.957788 1_555
Bi3 K18 4.027485 1_555
Bi3 K10 4.065776 1_555
Bi4 Cd0 2.943971 1_555
Bi4 K6 3.616246 1_555
Bi4 K5 3.639850 1_555
Bi4 K4 3.646128 1_565
Bi4 K16 3.688186 1_565
Bi4 K19 3.741368 1_555
Bi4 K14 3.755349 1_565
Bi4 K2 3.808031 1_555
Bi4 K13 3.952831 1_555
Bi4 K11 4.030384 1_565
Bi5 Cd1 2.943971 1_555
Bi5 K7 3.616246 1_555
Bi5 K4 3.639850 1_555
Bi5 K5 3.646128 1_545
Bi5 K17 3.688186 1_545
Bi5 K18 3.741368 1_555
Bi5 K15 3.755349 1_545
Bi5 K3 3.808031 1_555
Bi5 K12 3.952831 1_555
Bi5 K10 4.030384 1_545
Bi6 Cd0 2.948997 1_445
Bi6 K20 3.576669 1_555
Bi6 K2 3.628454 1_545
Bi6 K18 3.629584 1_556
Bi6 K14 3.671529 1_455
Bi6 K12 3.798257 1_555
Bi6 K16 3.807573 1_555
Bi6 K1 3.839615 1_556
Bi6 K15 3.910631 1_546
Bi6 K11 3.939966 1_455
Bi7 Cd1 2.948997 1_665
Bi7 K21 3.576669 1_555
Bi7 K3 3.628454 1_565
Bi7 K19 3.629584 1_554
Bi7 K15 3.671529 1_655
Bi7 K13 3.798257 1_555
Bi7 K17 3.807573 1_555
Bi7 K0 3.839615 1_554
Bi7 K14 3.910631 1_564
Bi7 K10 3.939966 1_655
Bi8 Cd2 2.956322 1_455
Bi8 K20 3.552044 1_555
Bi8 K2 3.599189 1_555
Bi8 K17 3.654836 1_556
Bi8 K0 3.679441 1_455
Bi8 K1 3.730780 1_556
Bi8 K15 3.789171 1_556
Bi8 K8 3.794361 1_555
Bi8 K11 3.957960 1_455
Bi8 K19 4.056020 1_555
Bi9 Cd3 2.956322 1_655
Bi9 K21 3.552044 1_555
Bi9 K3 3.599189 1_555
Bi9 K16 3.654836 1_554
Bi9 K1 3.679441 1_655
Bi9 K0 3.730780 1_554
Bi9 K14 3.789171 1_554
Bi9 K9 3.794361 1_555
Bi9 K10 3.957960 1_655
Bi9 K18 4.056020 1_555
