# generated using pymatgen
data_Cs10Ti3Be3Se14
_symmetry_space_group_name_H-M   'P 1'
_cell_length_a   11.14010784
_cell_length_b   11.13978142
_cell_length_c   9.32365422
_cell_angle_alpha   79.01843714
_cell_angle_beta   79.03043971
_cell_angle_gamma   71.97172147
_symmetry_Int_Tables_number   1
_chemical_formula_structural   Cs10Ti3Be3Se14
_chemical_formula_sum   'Cs10 Ti3 Be3 Se14'
_cell_volume   1069.35361982
_cell_formula_units_Z   1
loop_
 _symmetry_equiv_pos_site_id
 _symmetry_equiv_pos_as_xyz
  1  'x, y, z'
loop_
 _atom_site_type_symbol
 _atom_site_label
 _atom_site_symmetry_multiplicity
 _atom_site_fract_x
 _atom_site_fract_y
 _atom_site_fract_z
 _atom_site_occupancy
  Cs  Cs0  1  0.04697156  0.41565017  0.74107686  1
  Cs  Cs1  1  0.41556129  0.04707643  0.74114957  1
  Cs  Cs2  1  0.96395603  0.56102621  0.26142368  1
  Cs  Cs3  1  0.56109144  0.96392141  0.26139828  1
  Cs  Cs4  1  0.28875781  0.71698762  0.00387272  1
  Cs  Cs5  1  0.71702199  0.28878182  0.00388534  1
  Cs  Cs6  1  0.85711663  0.14976130  0.49230049  1
  Cs  Cs7  1  0.14969403  0.85706945  0.49235227  1
  Cs  Cs8  1  0.43120959  0.43125424  0.69506795  1
  Cs  Cs9  1  0.57027584  0.57034308  0.30694356  1
  Ti  Ti0  1  0.93162392  0.93171886  0.93793591  1
  Ti  Ti1  1  0.33390481  0.33373767  0.32029463  1
  Ti  Ti2  1  0.66735753  0.66749843  0.67962846  1
  Be  Be0  1  0.19712439  0.19712165  0.18368344  1
  Be  Be1  1  0.79776751  0.79775811  0.81087366  1
  Be  Be2  1  0.07084454  0.07065076  0.06838253  1
  Se  Se0  1  0.00028978  0.26814322  0.12545916  1
  Se  Se1  1  0.26822487  0.00025008  0.12559227  1
  Se  Se2  1  0.00131127  0.72147725  0.86941607  1
  Se  Se3  1  0.72142615  0.00135218  0.86935255  1
  Se  Se4  1  0.20121704  0.20120870  0.43359970  1
  Se  Se5  1  0.80017322  0.80024763  0.56627065  1
  Se  Se6  1  0.06252787  0.06266977  0.81798369  1
  Se  Se7  1  0.93914946  0.93912698  0.18745269  1
  Se  Se8  1  0.32995478  0.32982175  0.06545000  1
  Se  Se9  1  0.67207833  0.67189956  0.93526317  1
  Se  Se10  1  0.25080283  0.54286183  0.38898597  1
  Se  Se11  1  0.54291723  0.25055948  0.38923464  1
  Se  Se12  1  0.75121948  0.45863639  0.61275630  1
  Se  Se13  1  0.45843079  0.75138996  0.61291280  1
loop_
_geom_bond_atom_site_label_1
_geom_bond_atom_site_label_2
_geom_bond_distance
_geom_bond_site_symmetry_2
Cs0 Se12 3.580667 1_455
Cs0 Se0 3.659306 1_556
Cs0 Se2 3.680492 1_555
Cs0 Se6 3.815376 1_555
Cs0 Se4 3.882185 1_555
Cs0 Se10 3.914511 1_555
Cs1 Se13 3.580045 1_545
Cs1 Se1 3.659604 1_556
Cs1 Se3 3.679973 1_555
Cs1 Se6 3.816130 1_555
Cs1 Se4 3.881311 1_555
Cs1 Se11 3.911813 1_555
Cs2 Se10 3.552636 1_655
Cs2 Se0 3.602615 1_655
Cs2 Se2 3.757551 1_654
Cs2 Se12 3.865606 1_555
Cs2 Se5 4.051133 1_555
Cs2 Se7 4.066691 1_555
Cs3 Se11 3.551816 1_565
Cs3 Se1 3.601541 1_565
Cs3 Se3 3.757788 1_564
Cs3 Se13 3.866246 1_555
Cs3 Se5 4.049554 1_555
Cs3 Se7 4.066536 1_555
Cs4 Se1 3.480819 1_565
Cs4 Se2 3.637694 1_554
Cs4 Se10 3.756394 1_555
Cs4 Se13 3.781655 1_554
Cs4 Se9 4.080637 1_554
Cs4 Se8 4.132001 1_555
Cs5 Se0 3.479752 1_655
Cs5 Se3 3.638329 1_554
Cs5 Se11 3.758736 1_555
Cs5 Se12 3.783216 1_554
Cs5 Se9 4.078421 1_554
Cs5 Se8 4.131513 1_555
Cs6 Se11 3.587759 1_555
Cs6 Se12 3.598288 1_555
Cs6 Se0 3.672712 1_655
Cs6 Se7 3.826822 1_545
Cs6 Se3 3.832375 1_555
Cs6 Se6 3.942862 1_655
Cs6 Se4 3.970415 1_655
Cs6 Se5 4.046811 1_545
Cs7 Se10 3.588970 1_555
Cs7 Se13 3.597165 1_555
Cs7 Se1 3.672618 1_565
Cs7 Se7 3.826060 1_455
Cs7 Se2 3.831990 1_555
Cs7 Se6 3.944235 1_565
Cs7 Se4 3.970961 1_565
Cs7 Se5 4.046556 1_455
Cs8 Se8 3.506328 1_556
Cs8 Se12 3.596321 1_555
Cs8 Se13 3.596808 1_555
Cs8 Se10 3.607410 1_555
Cs8 Se11 3.607931 1_555
Cs9 Se9 3.518519 1_554
Cs9 Se10 3.590845 1_555
Cs9 Se11 3.593523 1_555
Cs9 Se12 3.608946 1_555
Cs9 Se13 3.611379 1_555
Be0 Se0 2.223603 1_555
Be0 Se1 2.223626 1_555
Be0 Se4 2.348575 1_555
Be0 Se8 2.387969 1_555
Be1 Se5 2.270616 1_555
Be1 Se9 2.291049 1_555
Be1 Se2 2.294174 1_655
Be1 Se3 2.294583 1_565
Be2 Se1 2.225773 1_555
Be2 Se0 2.226570 1_555
Be2 Se7 2.371169 1_445
Be2 Se6 2.373498 1_554
Se2 Ti0 2.398307 1_455
Se3 Ti0 2.397997 1_545
Se4 Ti1 2.375464 1_555
Se5 Ti2 2.378396 1_555
Se6 Ti0 2.362174 1_445
Se7 Ti0 2.361708 1_554
Se8 Ti1 2.393759 1_555
Se9 Ti2 2.404126 1_555
Se10 Ti1 2.387911 1_555
Se11 Ti1 2.387575 1_555
Se12 Ti2 2.379187 1_555
Se13 Ti2 2.379194 1_555
