# generated using pymatgen
data_Cs6In3IrBr18
_symmetry_space_group_name_H-M   'P 1'
_cell_length_a   7.74784796
_cell_length_b   7.74784877
_cell_length_c   19.50600043
_cell_angle_alpha   90.00000000
_cell_angle_beta   90.00000000
_cell_angle_gamma   119.99999258
_symmetry_Int_Tables_number   1
_chemical_formula_structural   Cs6In3IrBr18
_chemical_formula_sum   'Cs6 In3 Ir1 Br18'
_cell_volume   1014.05408404
_cell_formula_units_Z   1
loop_
 _symmetry_equiv_pos_site_id
 _symmetry_equiv_pos_as_xyz
  1  'x, y, z'
loop_
 _atom_site_type_symbol
 _atom_site_label
 _atom_site_symmetry_multiplicity
 _atom_site_fract_x
 _atom_site_fract_y
 _atom_site_fract_z
 _atom_site_occupancy
  Cs  Cs0  1  0.33333300  0.66666700  0.07427581  1
  Cs  Cs1  1  0.66666700  0.33333300  0.92940261  1
  Cs  Cs2  1  0.66666700  0.33333300  0.57578043  1
  Cs  Cs3  1  0.33333300  0.66666700  0.43015456  1
  Cs  Cs4  1  0.00000000  0.00000000  0.25163441  1
  Cs  Cs5  1  0.00000000  0.00000000  0.74204547  1
  In  In0  1  0.66666700  0.33333300  0.34795022  1
  In  In1  1  0.66666700  0.33333300  0.15551965  1
  In  In2  1  0.33333300  0.66666700  0.84414110  1
  Ir  Ir0  1  0.33333300  0.66666700  0.66278720  1
  Br  Br0  1  0.18099944  0.36199688  0.59055527  1
  Br  Br1  1  0.83418469  0.66836838  0.41414118  1
  Br  Br2  1  0.63800312  0.81900056  0.59055527  1
  Br  Br3  1  0.83335966  0.66672132  0.08740135  1
  Br  Br4  1  0.33163162  0.16581531  0.41414118  1
  Br  Br5  1  0.16559054  0.33118207  0.91006582  1
  Br  Br6  1  0.18099944  0.81900056  0.59055527  1
  Br  Br7  1  0.33327868  0.16664034  0.08740135  1
  Br  Br8  1  0.83418469  0.16581531  0.41414118  1
  Br  Br9  1  0.66881793  0.83440946  0.91006582  1
  Br  Br10  1  0.83335966  0.16664034  0.08740135  1
  Br  Br11  1  0.16559054  0.83440946  0.91006582  1
  Br  Br12  1  0.50970541  0.01941281  0.25086177  1
  Br  Br13  1  0.48397332  0.96794664  0.74241113  1
  Br  Br14  1  0.98058719  0.49029459  0.25086177  1
  Br  Br15  1  0.03205336  0.51602668  0.74241113  1
  Br  Br16  1  0.50970541  0.49029459  0.25086177  1
  Br  Br17  1  0.48397332  0.51602668  0.74241113  1
loop_
_geom_bond_atom_site_label_1
_geom_bond_atom_site_label_2
_geom_bond_distance
_geom_bond_site_symmetry_2
Br0 Ir0 2.482793 1_555
Br0 Cs3 3.737425 1_555
Br0 Cs5 3.825125 1_555
Br0 Cs2 3.889384 1_555
Br0 Cs2 3.889391 1_455
Br1 In0 2.592420 1_555
Br1 Cs2 3.872292 1_555
Br1 Cs4 3.872916 1_665
Br1 Cs3 3.886505 1_655
Br1 Cs3 3.886521 1_555
Br2 Ir0 2.482793 1_555
Br2 Cs3 3.737425 1_555
Br2 Cs5 3.825125 1_665
Br2 Cs2 3.889384 1_555
Br2 Cs2 3.889392 1_565
Br3 In1 2.601839 1_555
Br3 Cs1 3.808193 1_554
Br3 Cs0 3.882371 1_555
Br3 Cs0 3.882379 1_655
Br3 Cs4 3.906840 1_665
Br4 In0 2.592420 1_555
Br4 Cs2 3.872292 1_555
Br4 Cs4 3.872916 1_555
Br4 Cs3 3.886506 1_545
Br4 Cs3 3.886521 1_555
Br5 In2 2.592456 1_555
Br5 Cs1 3.892262 1_455
Br5 Cs1 3.892277 1_555
Br5 Cs0 3.914964 1_556
Br5 Cs5 3.959729 1_555
Br6 Ir0 2.482776 1_555
Br6 Cs3 3.737414 1_555
Br6 Cs5 3.825133 1_565
Br6 Cs2 3.889389 1_455
Br6 Cs2 3.889389 1_565
Br7 In1 2.601839 1_555
Br7 Cs1 3.808193 1_554
Br7 Cs0 3.882372 1_555
Br7 Cs0 3.882379 1_545
Br7 Cs4 3.906840 1_555
Br8 In0 2.592419 1_555
Br8 Cs2 3.872292 1_555
Br8 Cs4 3.872912 1_655
Br8 Cs3 3.886514 1_545
Br8 Cs3 3.886514 1_655
Br9 In2 2.592456 1_555
Br9 Cs1 3.892262 1_565
Br9 Cs1 3.892278 1_555
Br9 Cs0 3.914963 1_556
Br9 Cs5 3.959729 1_665
Br10 In1 2.601821 1_555
Br10 Cs1 3.808181 1_554
Br10 Cs0 3.882376 1_545
Br10 Cs0 3.882376 1_655
Br10 Cs4 3.906847 1_655
Br11 In2 2.592456 1_555
Br11 Cs1 3.892270 1_565
Br11 Cs1 3.892270 1_455
Br11 Cs0 3.914963 1_556
Br11 Cs5 3.959725 1_565
Br12 In1 2.809869 1_555
Br12 In0 2.832530 1_555
Br12 Cs4 3.876135 1_555
Br12 Cs4 3.876150 1_655
Br12 Cs0 4.179299 1_545
Br12 Cs3 4.222921 1_545
Br13 Ir0 2.549288 1_555
Br13 In2 2.832708 1_555
Br13 Cs5 3.879896 1_565
Br13 Cs5 3.879896 1_665
Br13 Cs2 4.071263 1_565
Br14 In1 2.809869 1_555
Br14 In0 2.832530 1_555
Br14 Cs4 3.876135 1_665
Br14 Cs4 3.876151 1_655
Br14 Cs0 4.179298 1_655
Br14 Cs3 4.222921 1_655
Br15 Ir0 2.549287 1_555
Br15 In2 2.832708 1_555
Br15 Cs5 3.879897 1_565
Br15 Cs5 3.879897 1_555
Br15 Cs2 4.071263 1_455
Br16 In1 2.809884 1_555
Br16 In0 2.832545 1_555
Br16 Cs4 3.876143 1_555
Br16 Cs4 3.876143 1_665
Br16 Cs0 4.179295 1_555
Br16 Cs3 4.222917 1_555
Br17 Ir0 2.549293 1_555
Br17 In2 2.832713 1_555
Br17 Cs5 3.879897 1_665
Br17 Cs5 3.879897 1_555
Br17 Cs2 4.071267 1_555
