# generated using pymatgen
data_Al12CrRe2
_symmetry_space_group_name_H-M   'P 1'
_cell_length_a   9.06048964
_cell_length_b   9.06048911
_cell_length_c   5.09985324
_cell_angle_alpha   87.03495220
_cell_angle_beta   87.03494941
_cell_angle_gamma   146.96396972
_symmetry_Int_Tables_number   1
_chemical_formula_structural   Al12CrRe2
_chemical_formula_sum   'Al12 Cr1 Re2'
_cell_volume   224.42995791
_cell_formula_units_Z   1
loop_
 _symmetry_equiv_pos_site_id
 _symmetry_equiv_pos_as_xyz
  1  'x, y, z'
loop_
 _atom_site_type_symbol
 _atom_site_label
 _atom_site_symmetry_multiplicity
 _atom_site_fract_x
 _atom_site_fract_y
 _atom_site_fract_z
 _atom_site_occupancy
  Al  Al0  1  0.86271756  0.86271756  0.50369127  1
  Al  Al1  1  0.51131704  0.51131704  0.13742680  1
  Al  Al2  1  0.26164388  0.41337841  0.68974298  1
  Al  Al3  1  0.41337841  0.26164388  0.68974298  1
  Al  Al4  1  0.06336538  0.29672512  0.21288200  1
  Al  Al5  1  0.29672512  0.06336538  0.21288200  1
  Al  Al6  1  0.94628115  0.70066496  0.81182147  1
  Al  Al7  1  0.70066496  0.94628115  0.81182147  1
  Al  Al8  1  0.07470661  0.54269657  0.58922871  1
  Al  Al9  1  0.54269657  0.07470661  0.58922871  1
  Al  Al10  1  0.22835568  0.72634354  0.07046106  1
  Al  Al11  1  0.72634354  0.22835568  0.07046106  1
  Cr  Cr0  1  0.01616141  0.01616141  0.98982243  1
  Re  Re0  1  0.80287090  0.52977077  0.33339404  1
  Re  Re1  1  0.52977077  0.80287090  0.33339404  1
loop_
_geom_bond_atom_site_label_1
_geom_bond_atom_site_label_2
_geom_bond_distance
_geom_bond_site_symmetry_2
Al0 Cr0 2.595952 1_664
Al0 Al7 2.635662 1_555
Al0 Al6 2.635662 1_555
Al0 Cr0 2.735793 1_665
Al0 Re0 2.779516 1_555
Al0 Re1 2.779516 1_555
Al0 Al1 2.827943 1_555
Al0 Al4 2.845926 1_665
Al0 Al5 2.845926 1_665
Al0 Al3 3.004215 1_555
Al0 Al2 3.004216 1_555
Al0 Al2 3.076672 1_665
Al0 Al3 3.076672 1_665
Al1 Cr0 2.572832 1_664
Al1 Al5 2.632716 1_555
Al1 Al4 2.632716 1_555
Al1 Re1 2.748598 1_555
Al1 Re0 2.748598 1_555
Al1 Cr0 2.788094 1_554
Al1 Al3 2.914734 1_554
Al1 Al2 2.914734 1_554
Al1 Al7 2.987346 1_554
Al1 Al6 2.987346 1_554
Al1 Al3 3.091168 1_555
Al1 Al2 3.091168 1_555
Al2 Cr0 2.428668 1_555
Al2 Re1 2.482688 1_555
Al2 Al3 2.636104 1_555
Al2 Al7 2.732508 1_445
Al2 Al4 2.737008 1_556
Al2 Al4 2.791604 1_555
Al2 Al8 2.803471 1_555
Al2 Al7 2.808644 1_555
Al3 Cr0 2.428669 1_555
Al3 Re0 2.482688 1_555
Al3 Al6 2.732508 1_445
Al3 Al5 2.737008 1_556
Al3 Al5 2.791604 1_555
Al3 Al9 2.803471 1_555
Al3 Al6 2.808645 1_555
Al4 Cr0 2.542754 1_554
Al4 Re1 2.628751 1_445
Al4 Re1 2.708116 1_555
Al4 Al8 2.956354 1_555
Al4 Al7 2.989472 1_444
Al5 Cr0 2.542754 1_554
Al5 Re0 2.628751 1_445
Al5 Re0 2.708116 1_555
Al5 Al9 2.956354 1_555
Al5 Al6 2.989472 1_444
Al6 Cr0 2.586429 1_665
Al6 Re0 2.646546 1_556
Al6 Re0 2.717450 1_555
Al6 Al8 2.741337 1_655
Al7 Cr0 2.586429 1_665
Al7 Re1 2.646546 1_556
Al7 Re1 2.717450 1_555
Al7 Al9 2.741337 1_565
Al8 Al9 2.635393 1_565
Al8 Al9 2.635393 1_455
Al8 Re1 2.662393 1_555
Al8 Re0 2.765290 1_455
Al9 Re0 2.662393 1_555
Al9 Re1 2.765290 1_545
Al10 Al11 2.576287 1_565
Al10 Al11 2.576287 1_455
Al10 Al8 2.643072 1_555
Al10 Re1 2.652766 1_555
Al10 Al5 2.709267 1_565
Al10 Al9 2.738684 1_564
Al10 Re0 2.745546 1_455
Al10 Al8 2.760791 1_554
Al10 Al6 2.776555 1_454
Al10 Al4 2.784426 1_555
Al10 Al7 2.978238 1_554
Al11 Al9 2.643072 1_555
Al11 Re0 2.652765 1_555
Al11 Al4 2.709267 1_655
Al11 Al8 2.738684 1_654
Al11 Re1 2.745546 1_545
Al11 Al9 2.760791 1_554
Al11 Al7 2.776555 1_544
Al11 Al5 2.784426 1_555
Al11 Al6 2.978238 1_554
