# generated using pymatgen
data_Hf4HgPbC2
_symmetry_space_group_name_H-M   'P 1'
_cell_length_a   3.32897659
_cell_length_b   3.32897557
_cell_length_c   14.59001167
_cell_angle_alpha   90.00000000
_cell_angle_beta   90.00000000
_cell_angle_gamma   119.99999055
_symmetry_Int_Tables_number   1
_chemical_formula_structural   Hf4HgPbC2
_chemical_formula_sum   'Hf4 Hg1 Pb1 C2'
_cell_volume   140.02567052
_cell_formula_units_Z   1
loop_
 _symmetry_equiv_pos_site_id
 _symmetry_equiv_pos_as_xyz
  1  'x, y, z'
loop_
 _atom_site_type_symbol
 _atom_site_label
 _atom_site_symmetry_multiplicity
 _atom_site_fract_x
 _atom_site_fract_y
 _atom_site_fract_z
 _atom_site_occupancy
  Hf  Hf0  1  0.33333300  0.66666700  0.41961775  1
  Hf  Hf1  1  0.66666700  0.33333300  0.58566010  1
  Hf  Hf2  1  0.66666700  0.33333300  0.91433990  1
  Hf  Hf3  1  0.33333300  0.66666700  0.08038225  1
  Hg  Hg0  1  0.33333300  0.66666700  0.75000000  1
  Pb  Pb0  1  0.66666700  0.33333300  0.25000000  1
  C  C0  1  0.00000000  0.00000000  0.50218096  1
  C  C1  1  0.00000000  0.00000000  0.99781904  1
loop_
_geom_bond_atom_site_label_1
_geom_bond_atom_site_label_2
_geom_bond_distance
_geom_bond_site_symmetry_2
Hf0 Pb0 3.133414 1_565
Hf0 Pb0 3.133414 1_455
Hf0 Pb0 3.133417 1_555
Hf1 Hg0 3.072960 1_545
Hf1 Hg0 3.072961 1_655
Hf1 Hg0 3.072964 1_555
Hf2 Hg0 3.072960 1_545
Hf2 Hg0 3.072961 1_655
Hf2 Hg0 3.072964 1_555
Hf3 Pb0 3.133414 1_565
Hf3 Pb0 3.133414 1_455
Hf3 Pb0 3.133417 1_555
C0 Hf0 2.268276 1_545
C0 Hf0 2.268279 1_555
C0 Hf0 2.268279 1_445
C0 Hf1 2.275401 1_455
C0 Hf1 2.275403 1_445
C0 Hf1 2.275404 1_555
C1 Hf3 2.268276 1_546
C1 Hf3 2.268279 1_556
C1 Hf3 2.268279 1_446
C1 Hf2 2.275401 1_455
C1 Hf2 2.275403 1_445
C1 Hf2 2.275404 1_555
