# generated using pymatgen
data_Hf9Nb3POs
_symmetry_space_group_name_H-M   'P 1'
_cell_length_a   8.63436758
_cell_length_b   8.63401050
_cell_length_c   8.78069817
_cell_angle_alpha   89.99998692
_cell_angle_beta   90.00002616
_cell_angle_gamma   119.99790973
_symmetry_Int_Tables_number   1
_chemical_formula_structural   Hf9Nb3POs
_chemical_formula_sum   'Hf18 Nb6 P2 Os2'
_cell_volume   566.90714891
_cell_formula_units_Z   2
loop_
 _symmetry_equiv_pos_site_id
 _symmetry_equiv_pos_as_xyz
  1  'x, y, z'
loop_
 _atom_site_type_symbol
 _atom_site_label
 _atom_site_symmetry_multiplicity
 _atom_site_fract_x
 _atom_site_fract_y
 _atom_site_fract_z
 _atom_site_occupancy
  Hf  Hf0  1  0.19786072  0.80212792  0.45245040  1
  Hf  Hf1  1  0.19786687  0.39574708  0.45245537  1
  Hf  Hf2  1  0.60425266  0.80212489  0.45245131  1
  Hf  Hf3  1  0.80213723  0.19787689  0.54752018  1
  Hf  Hf4  1  0.80212918  0.60424740  0.54751557  1
  Hf  Hf5  1  0.39575446  0.19787809  0.54752014  1
  Hf  Hf6  1  0.80213623  0.19787589  0.95247982  1
  Hf  Hf7  1  0.80213018  0.60424740  0.95248343  1
  Hf  Hf8  1  0.39575446  0.19787909  0.95247986  1
  Hf  Hf9  1  0.19785872  0.80212692  0.04754860  1
  Hf  Hf10  1  0.19786787  0.39574808  0.04754463  1
  Hf  Hf11  1  0.60425166  0.80212589  0.04754869  1
  Hf  Hf12  1  0.53818307  0.46180147  0.25000000  1
  Hf  Hf13  1  0.53818788  0.07639409  0.25000100  1
  Hf  Hf14  1  0.92361454  0.46180914  0.25000100  1
  Hf  Hf15  1  0.46181802  0.53819847  0.75000100  1
  Hf  Hf16  1  0.46181277  0.92360802  0.74999900  1
  Hf  Hf17  1  0.07638297  0.53819039  0.74999900  1
  Nb  Nb0  1  0.88933554  0.11066599  0.25000200  1
  Nb  Nb1  1  0.88933345  0.77866129  0.25000000  1
  Nb  Nb2  1  0.22133558  0.11066971  0.25000000  1
  Nb  Nb3  1  0.11065314  0.88934264  0.74999800  1
  Nb  Nb4  1  0.11065487  0.22130913  0.75000000  1
  Nb  Nb5  1  0.77868530  0.88934215  0.75000000  1
  P  P0  1  0.33335102  0.66667265  0.25000000  1
  P  P1  1  0.66664983  0.33332872  0.75000000  1
  Os  Os0  1  0.99999991  0.00000031  0.49997743  1
  Os  Os1  1  0.99999991  0.00000031  0.00002357  1
loop_
_geom_bond_atom_site_label_1
_geom_bond_atom_site_label_2
_geom_bond_distance
_geom_bond_site_symmetry_2
Hf0 P0 2.695284 1_555
Hf0 Nb3 2.920112 1_555
Hf0 Os0 2.988318 1_465
Hf0 Nb2 3.123758 1_565
Hf0 Nb1 3.123774 1_455
Hf1 P0 2.695216 1_555
Hf1 Nb4 2.920147 1_555
Hf1 Os0 2.988444 1_455
Hf1 Nb2 3.123829 1_555
Hf1 Nb0 3.123890 1_455
Hf2 P0 2.695121 1_555
Hf2 Nb5 2.920185 1_555
Hf2 Os0 2.988574 1_565
Hf2 Nb1 3.123893 1_555
Hf2 Nb0 3.123901 1_565
Hf3 P1 2.695418 1_555
Hf3 Nb0 2.919838 1_555
Hf3 Os0 2.988382 1_555
Hf3 Nb5 3.123927 1_545
Hf3 Nb4 3.123960 1_655
Hf4 P1 2.695346 1_555
Hf4 Nb1 2.919839 1_555
Hf4 Os0 2.988510 1_565
Hf4 Nb5 3.123999 1_555
Hf4 Nb3 3.124050 1_655
Hf5 P1 2.695251 1_555
Hf5 Nb2 2.919915 1_555
Hf5 Os0 2.988648 1_455
Hf5 Nb4 3.124040 1_555
Hf5 Nb3 3.124079 1_545
Hf6 P1 2.695417 1_555
Hf6 Nb0 2.919868 1_556
Hf6 Os1 2.988383 1_556
Hf6 Nb5 3.123923 1_545
Hf6 Nb4 3.123965 1_655
Hf7 P1 2.695340 1_555
Hf7 Nb1 2.919847 1_556
Hf7 Os1 2.988512 1_566
Hf7 Nb5 3.123998 1_555
Hf7 Nb3 3.124062 1_655
Hf8 P1 2.695252 1_555
Hf8 Nb2 2.919916 1_556
Hf8 Os1 2.988650 1_456
Hf8 Nb4 3.124035 1_555
Hf8 Nb3 3.124102 1_545
Hf9 P0 2.695294 1_555
Hf9 Nb3 2.920132 1_554
Hf9 Os1 2.988308 1_465
Hf9 Nb2 3.123764 1_565
Hf9 Nb1 3.123769 1_455
Hf10 P0 2.695211 1_555
Hf10 Nb4 2.920151 1_554
Hf10 Os1 2.988450 1_455
Hf10 Nb2 3.123832 1_555
Hf10 Nb0 3.123918 1_455
Hf11 P0 2.695116 1_555
Hf11 Nb5 2.920189 1_554
Hf11 Os1 2.988580 1_565
Hf11 Nb1 3.123903 1_555
Hf11 Nb0 3.123919 1_565
Hf12 Nb2 2.895180 1_555
Hf12 Nb1 2.895342 1_555
Hf12 P0 3.063494 1_555
Hf13 Nb2 2.895144 1_555
Hf13 Nb0 2.895359 1_555
Hf13 P0 3.063663 1_545
Hf14 Nb1 2.895065 1_555
Hf14 Nb0 2.895164 1_555
Hf14 P0 3.063903 1_655
Hf15 Nb5 2.895311 1_555
Hf15 Nb4 2.895513 1_555
Hf15 P1 3.063481 1_555
Hf16 Nb5 2.895270 1_555
Hf16 Nb3 2.895485 1_555
Hf16 P1 3.063658 1_565
Hf17 Nb4 2.895269 1_555
Hf17 Nb3 2.895274 1_555
Hf17 P1 3.063878 1_455
Nb0 Os0 2.748952 1_555
Nb0 Os1 2.748975 1_555
Nb0 Nb1 2.866523 1_545
Nb0 Nb2 2.866594 1_655
Nb1 Os1 2.749011 1_565
Nb1 Os0 2.749018 1_565
Nb1 Nb2 2.866687 1_665
Nb2 Os1 2.749037 1_455
Nb2 Os0 2.749045 1_455
Nb3 Os0 2.749183 1_465
Nb3 Os1 2.749219 1_466
Nb3 Nb4 2.866195 1_565
Nb3 Nb5 2.866330 1_455
Nb4 Os0 2.749199 1_455
Nb4 Os1 2.749206 1_456
Nb4 Nb5 2.866367 1_445
Nb5 Os0 2.749267 1_565
Nb5 Os1 2.749273 1_566
