# generated using pymatgen
data_Be7SiMo4
_symmetry_space_group_name_H-M   'P 1'
_cell_length_a   4.46715526
_cell_length_b   4.46715521
_cell_length_c   7.39078433
_cell_angle_alpha   90.00000000
_cell_angle_beta   90.00000000
_cell_angle_gamma   120.00000042
_symmetry_Int_Tables_number   1
_chemical_formula_structural   Be7SiMo4
_chemical_formula_sum   'Be7 Si1 Mo4'
_cell_volume   127.72715776
_cell_formula_units_Z   1
loop_
 _symmetry_equiv_pos_site_id
 _symmetry_equiv_pos_as_xyz
  1  'x, y, z'
loop_
 _atom_site_type_symbol
 _atom_site_label
 _atom_site_symmetry_multiplicity
 _atom_site_fract_x
 _atom_site_fract_y
 _atom_site_fract_z
 _atom_site_occupancy
  Be  Be0  1  0.00000000  0.00000000  0.00000000  1
  Be  Be1  1  0.82912900  0.17087100  0.24421718  1
  Be  Be2  1  0.82912900  0.65825701  0.24421718  1
  Be  Be3  1  0.34174299  0.17087100  0.24421718  1
  Be  Be4  1  0.17087100  0.82912900  0.75578282  1
  Be  Be5  1  0.17087100  0.34174299  0.75578282  1
  Be  Be6  1  0.65825701  0.82912900  0.75578282  1
  Si  Si0  1  0.00000000  0.00000000  0.50000000  1
  Mo  Mo0  1  0.33333300  0.66666700  0.43643126  1
  Mo  Mo1  1  0.66666700  0.33333300  0.56356874  1
  Mo  Mo2  1  0.66666700  0.33333300  0.93768323  1
  Mo  Mo3  1  0.33333300  0.66666700  0.06231677  1
loop_
_geom_bond_atom_site_label_1
_geom_bond_atom_site_label_2
_geom_bond_distance
_geom_bond_site_symmetry_2
Be0 Be1 2.237360 1_455
Be0 Be4 2.237360 1_544
Be0 Be2 2.237363 1_445
Be0 Be5 2.237363 1_554
Be0 Be3 2.237363 1_555
Be0 Be6 2.237363 1_444
Be0 Mo3 2.619912 1_545
Be0 Mo2 2.619912 1_454
Be0 Mo3 2.619915 1_555
Be0 Mo2 2.619915 1_444
Be0 Mo2 2.619915 1_554
Be0 Mo3 2.619915 1_445
Be1 Be2 2.177229 1_555
Be1 Be3 2.177229 1_555
Be1 Be2 2.289926 1_545
Be1 Be3 2.289926 1_655
Be1 Si0 2.306873 1_655
Be1 Mo2 2.590891 1_554
Be1 Mo3 2.607164 1_545
Be1 Mo3 2.607164 1_655
Be1 Mo0 2.647276 1_545
Be1 Mo0 2.647276 1_655
Be1 Mo1 2.674122 1_555
Be2 Be3 2.177229 1_555
Be2 Be3 2.289926 1_665
Be2 Si0 2.306875 1_665
Be2 Mo2 2.590891 1_554
Be2 Mo3 2.607160 1_655
Be2 Mo3 2.607168 1_555
Be2 Mo0 2.647272 1_655
Be2 Mo0 2.647279 1_555
Be2 Mo1 2.674122 1_555
Be3 Si0 2.306875 1_555
Be3 Mo2 2.590891 1_554
Be3 Mo3 2.607160 1_545
Be3 Mo3 2.607168 1_555
Be3 Mo0 2.647272 1_545
Be3 Mo0 2.647279 1_555
Be3 Mo1 2.674122 1_555
Be4 Be5 2.177229 1_555
Be4 Be6 2.177229 1_555
Be4 Be5 2.289926 1_565
Be4 Be6 2.289926 1_455
Be4 Si0 2.306873 1_565
Be4 Mo3 2.590891 1_556
Be4 Mo2 2.607164 1_565
Be4 Mo2 2.607164 1_455
Be4 Mo1 2.647276 1_565
Be4 Mo1 2.647276 1_455
Be4 Mo0 2.674122 1_555
Be5 Be6 2.177229 1_555
Be5 Be6 2.289926 1_445
Be5 Si0 2.306875 1_555
Be5 Mo3 2.590891 1_556
Be5 Mo2 2.607160 1_455
Be5 Mo2 2.607168 1_555
Be5 Mo1 2.647272 1_455
Be5 Mo1 2.647279 1_555
Be5 Mo0 2.674122 1_555
Be6 Si0 2.306875 1_665
Be6 Mo3 2.590891 1_556
Be6 Mo2 2.607160 1_565
Be6 Mo2 2.607168 1_555
Be6 Mo1 2.647272 1_565
Be6 Mo1 2.647279 1_555
Be6 Mo0 2.674122 1_555
Mo0 Si0 2.621554 1_565
Mo0 Si0 2.621558 1_555
Mo0 Si0 2.621558 1_665
Mo0 Mo1 2.744949 1_565
Mo0 Mo1 2.744949 1_455
Mo0 Mo1 2.744956 1_555
Mo0 Mo3 2.765000 1_555
Mo1 Si0 2.621554 1_655
Mo1 Si0 2.621558 1_665
Mo1 Si0 2.621558 1_555
Mo1 Mo2 2.765000 1_555
