# generated using pymatgen
data_Sr3MnAl10O20
_symmetry_space_group_name_H-M   'P 1'
_cell_length_a   9.46488915
_cell_length_b   9.46488803
_cell_length_c   4.92112060
_cell_angle_alpha   75.33743201
_cell_angle_beta   75.33744079
_cell_angle_gamma   72.87290059
_symmetry_Int_Tables_number   1
_chemical_formula_structural   Sr3MnAl10O20
_chemical_formula_sum   'Sr3 Mn1 Al10 O20'
_cell_volume   399.90769079
_cell_formula_units_Z   1
loop_
 _symmetry_equiv_pos_site_id
 _symmetry_equiv_pos_as_xyz
  1  'x, y, z'
loop_
 _atom_site_type_symbol
 _atom_site_label
 _atom_site_symmetry_multiplicity
 _atom_site_fract_x
 _atom_site_fract_y
 _atom_site_fract_z
 _atom_site_occupancy
  Sr  Sr0  1  0.00000000  0.00000000  0.00000000  1
  Sr  Sr1  1  0.27533490  0.27533490  0.72236212  1
  Sr  Sr2  1  0.72466510  0.72466510  0.27763788  1
  Mn  Mn0  1  0.50000000  0.50000000  0.00000000  1
  Al  Al0  1  0.84992812  0.42376922  0.83113545  1
  Al  Al1  1  0.57623078  0.15007188  0.16886455  1
  Al  Al2  1  0.15007188  0.57623078  0.16886455  1
  Al  Al3  1  0.42376922  0.84992812  0.83113545  1
  Al  Al4  1  0.36724060  0.63275940  0.50000000  1
  Al  Al5  1  0.63275940  0.36724060  0.50000000  1
  Al  Al6  1  0.99368254  0.71889572  0.65801077  1
  Al  Al7  1  0.28110428  0.00631746  0.34198923  1
  Al  Al8  1  0.00631746  0.28110428  0.34198923  1
  Al  Al9  1  0.71889572  0.99368254  0.65801077  1
  O  O0  1  0.54828191  0.30930948  0.89047905  1
  O  O1  1  0.69069052  0.45171809  0.10952095  1
  O  O2  1  0.45171809  0.69069052  0.10952095  1
  O  O3  1  0.30930948  0.54828191  0.89047905  1
  O  O4  1  0.71428128  0.00828368  0.00892322  1
  O  O5  1  0.99171632  0.28571872  0.99107678  1
  O  O6  1  0.28571872  0.99171632  0.99107678  1
  O  O7  1  0.00828368  0.71428128  0.00892322  1
  O  O8  1  0.43446744  0.43446744  0.39213470  1
  O  O9  1  0.56553256  0.56553256  0.60786530  1
  O  O10  1  0.90112513  0.90112513  0.51594805  1
  O  O11  1  0.09887487  0.09887487  0.48405195  1
  O  O12  1  0.88092270  0.60057480  0.67530852  1
  O  O13  1  0.39942520  0.11907730  0.32469148  1
  O  O14  1  0.11907730  0.39942520  0.32469148  1
  O  O15  1  0.60057480  0.88092270  0.67530852  1
  O  O16  1  0.17216411  0.66023450  0.43641233  1
  O  O17  1  0.33976550  0.82783589  0.56358767  1
  O  O18  1  0.82783589  0.33976550  0.56358767  1
  O  O19  1  0.66023450  0.17216411  0.43641233  1
loop_
_geom_bond_atom_site_label_1
_geom_bond_atom_site_label_2
_geom_bond_distance
_geom_bond_site_symmetry_2
Mn0 O8 1.872975 1_555
Mn0 O9 1.872975 1_554
Mn0 O2 1.907573 1_555
Mn0 O0 1.907573 1_554
Mn0 O1 1.907573 1_555
Mn0 O3 1.907573 1_554
Al0 O12 1.732088 1_555
Al0 O5 1.763262 1_555
Al0 O1 1.766830 1_556
Al0 O18 1.782322 1_555
Al1 O13 1.732088 1_555
Al1 O4 1.763262 1_555
Al1 O0 1.766830 1_554
Al1 O19 1.782322 1_555
Al2 O14 1.732088 1_555
Al2 O7 1.763262 1_555
Al2 O3 1.766830 1_554
Al2 O16 1.782322 1_555
Al3 O15 1.732088 1_555
Al3 O6 1.763262 1_555
Al3 O2 1.766830 1_556
Al3 O17 1.782322 1_555
Al4 O17 1.882327 1_555
Al4 O16 1.882328 1_555
Al4 O3 1.891948 1_555
Al4 O2 1.891948 1_555
Al4 O8 1.959350 1_555
Al4 O9 1.959350 1_555
Al5 O19 1.882327 1_555
Al5 O18 1.882328 1_555
Al5 O1 1.891948 1_555
Al5 O0 1.891948 1_555
Al5 O9 1.959350 1_555
Al5 O8 1.959350 1_555
Al6 O12 1.734982 1_555
Al6 O10 1.743772 1_555
Al6 O7 1.755622 1_656
Al6 O16 1.781213 1_655
Al7 O13 1.734982 1_555
Al7 O11 1.743772 1_555
Al7 O6 1.755622 1_544
Al7 O17 1.781213 1_545
Al8 O14 1.734982 1_555
Al8 O11 1.743772 1_555
Al8 O5 1.755622 1_454
Al8 O18 1.781213 1_455
Al9 O15 1.734982 1_555
Al9 O10 1.743772 1_555
Al9 O4 1.755622 1_566
Al9 O19 1.781213 1_565
O4 Sr2 2.660403 1_545
O4 Sr0 2.671710 1_655
O5 Sr1 2.660404 1_655
O5 Sr0 2.671710 1_656
O6 Sr1 2.660403 1_565
O6 Sr0 2.671710 1_566
O7 Sr2 2.660404 1_455
O7 Sr0 2.671710 1_565
O8 Sr1 2.456806 1_555
O9 Sr2 2.456806 1_555
O10 Sr0 2.511635 1_665
O11 Sr0 2.511635 1_556
O12 Sr2 2.583624 1_555
O13 Sr1 2.583624 1_555
O14 Sr1 2.583624 1_555
O15 Sr2 2.583624 1_555
