# generated using pymatgen
data_Hf10CuSiSn6
_symmetry_space_group_name_H-M   'P 1'
_cell_length_a   8.54228636
_cell_length_b   8.54228708
_cell_length_c   5.79573160
_cell_angle_alpha   90.00000000
_cell_angle_beta   90.00000000
_cell_angle_gamma   119.99999720
_symmetry_Int_Tables_number   1
_chemical_formula_structural   Hf10CuSiSn6
_chemical_formula_sum   'Hf10 Cu1 Si1 Sn6'
_cell_volume   366.25806609
_cell_formula_units_Z   1
loop_
 _symmetry_equiv_pos_site_id
 _symmetry_equiv_pos_as_xyz
  1  'x, y, z'
loop_
 _atom_site_type_symbol
 _atom_site_label
 _atom_site_symmetry_multiplicity
 _atom_site_fract_x
 _atom_site_fract_y
 _atom_site_fract_z
 _atom_site_occupancy
  Hf  Hf0  1  0.33333300  0.66666700  0.00000000  1
  Hf  Hf1  1  0.66666700  0.33333300  0.50000000  1
  Hf  Hf2  1  0.66666700  0.33333300  0.00000000  1
  Hf  Hf3  1  0.33333300  0.66666700  0.50000000  1
  Hf  Hf4  1  0.25967274  0.00000000  0.24692421  1
  Hf  Hf5  1  0.25967274  0.25967274  0.75307579  1
  Hf  Hf6  1  1.00000000  0.74032726  0.75307579  1
  Hf  Hf7  1  0.00000000  0.25967274  0.24692421  1
  Hf  Hf8  1  0.74032726  0.74032726  0.24692421  1
  Hf  Hf9  1  0.74032726  0.00000000  0.75307579  1
  Cu  Cu0  1  0.00000000  0.00000000  0.50000000  1
  Si  Si0  1  0.00000000  0.00000000  0.00000000  1
  Sn  Sn0  1  0.60949533  0.00000000  0.25153106  1
  Sn  Sn1  1  0.60949533  0.60949533  0.74846894  1
  Sn  Sn2  1  1.00000000  0.39050467  0.74846894  1
  Sn  Sn3  1  0.00000000  0.60949533  0.25153106  1
  Sn  Sn4  1  0.39050467  0.39050467  0.25153106  1
  Sn  Sn5  1  0.39050467  0.00000000  0.74846894  1
loop_
_geom_bond_atom_site_label_1
_geom_bond_atom_site_label_2
_geom_bond_distance
_geom_bond_site_symmetry_2
Hf0 Sn3 3.013458 1_555
Hf0 Sn5 3.013458 1_564
Hf0 Sn2 3.013461 1_454
Hf0 Sn0 3.013461 1_565
Hf0 Sn1 3.013465 1_554
Hf0 Sn4 3.013466 1_555
Hf1 Sn2 3.004913 1_555
Hf1 Sn0 3.004913 1_555
Hf1 Sn3 3.004916 1_655
Hf1 Sn5 3.004916 1_555
Hf1 Sn4 3.004920 1_555
Hf1 Sn1 3.004920 1_555
Hf2 Sn2 3.013458 1_554
Hf2 Sn0 3.013458 1_555
Hf2 Sn3 3.013461 1_655
Hf2 Sn5 3.013461 1_554
Hf2 Sn4 3.013465 1_555
Hf2 Sn1 3.013466 1_554
Hf3 Sn3 3.004913 1_555
Hf3 Sn5 3.004913 1_565
Hf3 Sn2 3.004916 1_455
Hf3 Sn0 3.004916 1_565
Hf3 Sn1 3.004920 1_555
Hf3 Sn4 3.004920 1_555
Hf4 Si0 2.639786 1_555
Hf4 Sn4 2.940957 1_555
Hf4 Sn3 2.940957 1_545
Hf4 Sn0 2.988404 1_555
Hf4 Sn5 3.097556 1_554
Hf4 Sn5 3.114263 1_555
Hf5 Si0 2.639787 1_556
Hf5 Sn2 2.940957 1_455
Hf5 Sn5 2.940957 1_555
Hf5 Sn1 2.988404 1_555
Hf5 Sn4 3.097557 1_556
Hf5 Sn4 3.114263 1_555
Hf6 Si0 2.639787 1_666
Hf6 Sn1 2.940957 1_555
Hf6 Sn5 2.940957 1_665
Hf6 Sn2 2.988404 1_555
Hf6 Sn3 3.097557 1_656
Hf6 Sn3 3.114263 1_655
Hf7 Si0 2.639787 1_555
Hf7 Sn4 2.940957 1_555
Hf7 Sn0 2.940957 1_455
Hf7 Sn3 2.988404 1_555
Hf7 Sn2 3.097557 1_454
Hf7 Sn2 3.114263 1_455
Hf8 Si0 2.639787 1_665
Hf8 Sn3 2.940957 1_655
Hf8 Sn0 2.940957 1_565
Hf8 Sn4 2.988404 1_555
Hf8 Sn1 3.097557 1_554
Hf8 Sn1 3.114263 1_555
Hf9 Si0 2.639786 1_656
Hf9 Sn2 2.940957 1_555
Hf9 Sn1 2.940957 1_545
Hf9 Sn5 2.988404 1_555
Hf9 Sn0 3.097556 1_556
Hf9 Sn0 3.114263 1_555
Cu0 Hf4 2.659284 1_555
Cu0 Hf9 2.659284 1_455
Cu0 Hf5 2.659284 1_555
Cu0 Hf7 2.659284 1_555
Cu0 Hf6 2.659284 1_445
Cu0 Hf8 2.659284 1_445
