# generated using pymatgen
data_KRb(BiPb)2
_symmetry_space_group_name_H-M   'P 1'
_cell_length_a   6.88139430
_cell_length_b   6.88139412
_cell_length_c   6.88139433
_cell_angle_alpha   119.25911124
_cell_angle_beta   120.73932201
_cell_angle_gamma   90.00613947
_symmetry_Int_Tables_number   1
_chemical_formula_structural   KRb(BiPb)2
_chemical_formula_sum   'K1 Rb1 Bi2 Pb2'
_cell_volume   230.37156370
_cell_formula_units_Z   1
loop_
 _symmetry_equiv_pos_site_id
 _symmetry_equiv_pos_as_xyz
  1  'x, y, z'
loop_
 _atom_site_type_symbol
 _atom_site_label
 _atom_site_symmetry_multiplicity
 _atom_site_fract_x
 _atom_site_fract_y
 _atom_site_fract_z
 _atom_site_occupancy
  K  K0  1  0.25233227  0.75233227  0.50000000  1
  Rb  Rb0  1  0.99700851  0.99700851  0.00000000  1
  Bi  Bi0  1  0.63874996  0.36576523  0.27298473  1
  Bi  Bi1  1  0.09278050  0.36576523  0.72701527  1
  Pb  Pb0  1  0.63456338  0.36551102  0.73094763  1
  Pb  Pb1  1  0.63456338  0.90361675  0.26905237  1
loop_
_geom_bond_atom_site_label_1
_geom_bond_atom_site_label_2
_geom_bond_distance
_geom_bond_site_symmetry_2
K0 Pb1 4.048843 1_556
K0 Pb0 4.048846 1_454
K0 Pb0 4.048846 1_555
K0 Pb1 4.048849 1_455
K0 Pb0 4.051884 1_565
K0 Pb1 4.051887 1_555
K0 Rb0 4.152587 1_556
K0 Rb0 4.152587 1_455
K0 Rb0 4.275259 1_445
K0 Rb0 4.275260 1_456
Bi0 Bi1 3.089384 1_655
Bi0 Pb1 3.167090 1_545
Bi0 Pb0 3.167097 1_555
Bi0 Rb0 4.015188 1_556
Bi0 Rb0 4.015188 1_545
Bi0 Rb0 4.040705 1_445
Bi0 K0 4.066575 1_655
Bi0 K0 4.095515 1_544
Bi0 K0 4.095515 1_555
Bi1 Pb1 3.167093 1_445
Bi1 Pb0 3.167097 1_455
Bi1 Rb0 4.015188 1_456
Bi1 Rb0 4.015188 1_445
Bi1 Rb0 4.040705 1_446
Bi1 K0 4.066575 1_555
Bi1 K0 4.095515 1_545
Bi1 K0 4.095515 1_556
Pb0 Pb1 3.214008 1_545
Pb0 Rb0 3.993114 1_556
Pb0 Rb0 3.993628 1_445
Pb0 Rb0 3.993628 1_546
Pb1 Rb0 3.993111 1_555
Pb1 Rb0 3.993626 1_455
Pb1 Rb0 3.993631 1_556
