# generated using pymatgen
data_YP4N7
_symmetry_space_group_name_H-M   'P 1'
_cell_length_a   4.97004810
_cell_length_b   7.40067431
_cell_length_c   8.46610724
_cell_angle_alpha   73.90432140
_cell_angle_beta   106.60804737
_cell_angle_gamma   97.34746599
_symmetry_Int_Tables_number   1
_chemical_formula_structural   YP4N7
_chemical_formula_sum   'Y2 P8 N14'
_cell_volume   286.30915297
_cell_formula_units_Z   2
loop_
 _symmetry_equiv_pos_site_id
 _symmetry_equiv_pos_as_xyz
  1  'x, y, z'
loop_
 _atom_site_type_symbol
 _atom_site_label
 _atom_site_symmetry_multiplicity
 _atom_site_fract_x
 _atom_site_fract_y
 _atom_site_fract_z
 _atom_site_occupancy
  Y  Y0  1  0.34323484  0.79460731  0.20766120  1
  Y  Y1  1  0.65676540  0.20539027  0.79234039  1
  P  P0  1  0.30939666  0.27615331  0.07849733  1
  P  P1  1  0.85845373  0.12440473  0.23816468  1
  P  P2  1  0.73232513  0.49169903  0.25386268  1
  P  P3  1  0.01703787  0.24638449  0.56515525  1
  P  P4  1  0.98296296  0.75361629  0.43484477  1
  P  P5  1  0.26767188  0.50829954  0.74613675  1
  P  P6  1  0.14154584  0.87559613  0.76183363  1
  P  P7  1  0.69060202  0.72384687  0.92150220  1
  N  N0  1  0.58592663  0.17553549  0.07516664  1
  N  N1  1  0.87733015  0.64560543  0.11620224  1
  N  N2  1  0.12370648  0.10219093  0.17134191  1
  N  N3  1  0.41072381  0.44211798  0.17328177  1
  N  N4  1  0.91564884  0.29589107  0.34076630  1
  N  N5  1  0.77852873  0.93343163  0.36482673  1
  N  N6  1  0.73123161  0.58673296  0.40191473  1
  N  N7  1  0.26877025  0.41326661  0.59808683  1
  N  N8  1  0.22147033  0.06656662  0.63517245  1
  N  N9  1  0.08435198  0.70410825  0.65923393  1
  N  N10  1  0.58927603  0.55788388  0.82671892  1
  N  N11  1  0.87629326  0.89780886  0.82865769  1
  N  N12  1  0.12267028  0.35439549  0.88379736  1
  N  N13  1  0.41407327  0.82446580  0.92483361  1
loop_
_geom_bond_atom_site_label_1
_geom_bond_atom_site_label_2
_geom_bond_distance
_geom_bond_site_symmetry_2
P3 Y1 2.916123 1_455
P4 Y0 2.916113 1_655
N0 P1 1.629463 1_555
N0 P0 1.655211 1_555
N0 Y1 2.464704 1_554
N0 Y0 2.968315 1_545
N1 P7 1.627071 1_554
N1 P2 1.645942 1_555
N1 Y0 2.443930 1_655
N2 P1 1.618142 1_455
N2 P0 1.636073 1_555
N2 Y0 2.553820 1_545
N3 P2 1.587546 1_555
N3 P0 1.601074 1_555
N3 Y0 2.775418 1_555
N4 P1 1.680424 1_555
N4 P2 1.683661 1_555
N4 P3 1.763829 1_655
N5 P1 1.601482 1_565
N5 P4 1.648873 1_555
N5 Y0 2.459748 1_555
N6 P2 1.599823 1_555
N6 P4 1.662732 1_555
N6 Y0 2.516534 1_555
N7 P5 1.599809 1_555
N7 P3 1.662731 1_555
N7 Y1 2.516537 1_555
N8 P6 1.601465 1_545
N8 P3 1.648883 1_555
N8 Y1 2.459758 1_555
N9 P6 1.680423 1_555
N9 P5 1.683655 1_555
N9 P4 1.763830 1_455
N10 P5 1.587565 1_555
N10 P7 1.601056 1_555
N10 Y1 2.775446 1_555
N11 P6 1.618145 1_655
N11 P7 1.636074 1_555
N11 Y1 2.553808 1_565
N12 P0 1.627068 1_556
N12 P5 1.645926 1_555
N12 Y1 2.443938 1_455
N13 P6 1.629473 1_555
N13 P7 1.655213 1_555
N13 Y0 2.464709 1_556
N13 Y1 2.968291 1_565
