# generated using pymatgen
data_NaHf(Si7Ir3)2
_symmetry_space_group_name_H-M   'P 1'
_cell_length_a   7.92663672
_cell_length_b   7.92663736
_cell_length_c   7.92663643
_cell_angle_alpha   56.85517445
_cell_angle_beta   56.85516048
_cell_angle_gamma   56.85516801
_symmetry_Int_Tables_number   1
_chemical_formula_structural   NaHf(Si7Ir3)2
_chemical_formula_sum   'Na1 Hf1 Si14 Ir6'
_cell_volume   326.61468715
_cell_formula_units_Z   1
loop_
 _symmetry_equiv_pos_site_id
 _symmetry_equiv_pos_as_xyz
  1  'x, y, z'
loop_
 _atom_site_type_symbol
 _atom_site_label
 _atom_site_symmetry_multiplicity
 _atom_site_fract_x
 _atom_site_fract_y
 _atom_site_fract_z
 _atom_site_occupancy
  Na  Na0  1  0.50000000  0.50000000  0.50000000  1
  Hf  Hf0  1  0.00000000  0.00000000  0.00000000  1
  Si  Si0  1  0.84680820  0.06379520  0.67328571  1
  Si  Si1  1  0.67328571  0.84680820  0.06379520  1
  Si  Si2  1  0.06379520  0.67328571  0.84680820  1
  Si  Si3  1  0.64550948  0.82450175  0.43580854  1
  Si  Si4  1  0.25095654  0.25095654  0.25095654  1
  Si  Si5  1  0.74904346  0.74904346  0.74904346  1
  Si  Si6  1  0.17549825  0.56419146  0.35449052  1
  Si  Si7  1  0.56419146  0.35449052  0.17549825  1
  Si  Si8  1  0.35449052  0.17549825  0.56419146  1
  Si  Si9  1  0.93620480  0.32671429  0.15319180  1
  Si  Si10  1  0.32671429  0.15319180  0.93620480  1
  Si  Si11  1  0.15319180  0.93620480  0.32671429  1
  Si  Si12  1  0.82450175  0.43580854  0.64550948  1
  Si  Si13  1  0.43580854  0.64550948  0.82450175  1
  Ir  Ir0  1  0.75732377  0.06600219  0.42016203  1
  Ir  Ir1  1  0.42016203  0.75732377  0.06600219  1
  Ir  Ir2  1  0.06600219  0.42016203  0.75732377  1
  Ir  Ir3  1  0.24267623  0.93399781  0.57983797  1
  Ir  Ir4  1  0.57983797  0.24267623  0.93399781  1
  Ir  Ir5  1  0.93399781  0.57983797  0.24267623  1
loop_
_geom_bond_atom_site_label_1
_geom_bond_atom_site_label_2
_geom_bond_distance
_geom_bond_site_symmetry_2
Na0 Si13 3.062150 1_555
Na0 Si7 3.062150 1_555
Na0 Si12 3.062150 1_555
Na0 Si6 3.062150 1_555
Na0 Si3 3.062150 1_555
Na0 Si8 3.062150 1_555
Na0 Si9 3.152893 1_555
Na0 Si2 3.152893 1_555
Na0 Si1 3.152894 1_555
Na0 Si10 3.152894 1_555
Na0 Si0 3.152894 1_555
Na0 Si11 3.152894 1_555
Hf0 Ir0 2.977459 1_455
Hf0 Ir3 2.977459 1_544
Hf0 Ir1 2.977460 1_545
Hf0 Ir4 2.977460 1_454
Hf0 Ir2 2.977460 1_554
Hf0 Ir5 2.977460 1_445
Hf0 Si11 3.126065 1_545
Hf0 Si0 3.126065 1_454
Hf0 Si9 3.126065 1_455
Hf0 Si2 3.126065 1_544
Hf0 Si10 3.126065 1_554
Hf0 Si1 3.126065 1_445
Hf0 Si8 3.188927 1_554
Hf0 Si3 3.188927 1_445
Hf0 Si7 3.188927 1_455
Hf0 Si13 3.188927 1_544
Hf0 Si6 3.188927 1_545
Hf0 Si12 3.188927 1_454
Si0 Si1 2.557563 1_546
Si0 Si2 2.557564 1_645
Si0 Si5 2.674477 1_545
Si0 Si11 2.743069 1_645
Si0 Si12 2.745488 1_555
Si1 Si2 2.557563 1_654
Si1 Si5 2.674477 1_554
Si1 Si10 2.743069 1_564
Si1 Si3 2.745488 1_555
Si2 Si5 2.674477 1_455
Si2 Si9 2.743069 1_456
Si3 Si5 2.695091 1_555
Si3 Si8 2.758356 1_565
Si4 Si9 2.674477 1_455
Si4 Si7 2.695091 1_555
Si4 Si8 2.695091 1_555
Si4 Si6 2.695091 1_555
Si6 Si7 2.543070 1_555
Si6 Si8 2.543070 1_555
Si7 Si8 2.543070 1_555
Si7 Si9 2.745488 1_555
Si10 Si9 2.557563 1_456
Si10 Si11 2.557563 1_546
Si10 Si4 2.674477 1_556
Si10 Si8 2.745488 1_555
Si11 Si9 2.557564 1_465
Si11 Si4 2.674477 1_565
Si11 Si6 2.745488 1_555
Si12 Si13 2.543070 1_555
Si12 Si3 2.543070 1_555
Si12 Si5 2.695091 1_555
Si12 Si6 2.758356 1_655
Si13 Si3 2.543070 1_555
Si13 Si5 2.695091 1_555
Si13 Si2 2.745488 1_555
Si13 Si7 2.758357 1_556
Ir0 Si9 2.429058 1_555
Ir0 Si7 2.429581 1_555
Ir0 Si3 2.437399 1_545
Ir0 Si5 2.437959 1_545
Ir0 Si0 2.456310 1_555
Ir0 Si11 2.492985 1_645
Ir0 Si8 2.513818 1_555
Ir0 Na0 3.113127 1_555
Ir1 Si11 2.429058 1_555
Ir1 Si6 2.429581 1_555
Ir1 Si13 2.437399 1_554
Ir1 Si5 2.437959 1_554
Ir1 Si1 2.456310 1_555
Ir1 Si10 2.492986 1_564
Ir1 Si7 2.513818 1_555
Ir1 Na0 3.113127 1_555
Ir2 Si10 2.429058 1_555
Ir2 Si8 2.429580 1_555
Ir2 Si12 2.437399 1_455
Ir2 Si5 2.437959 1_455
Ir2 Si2 2.456310 1_555
Ir2 Si9 2.492985 1_456
Ir2 Si6 2.513818 1_555
Ir2 Na0 3.113126 1_555
Ir3 Si2 2.429058 1_555
Ir3 Si13 2.429581 1_555
Ir3 Si8 2.437399 1_565
Ir3 Si4 2.437959 1_565
Ir3 Si11 2.456310 1_555
Ir3 Si0 2.492985 1_465
Ir3 Si3 2.513818 1_555
Ir3 Na0 3.113127 1_555
Ir4 Si0 2.429058 1_555
Ir4 Si12 2.429581 1_555
Ir4 Si7 2.437399 1_556
Ir4 Si4 2.437959 1_556
Ir4 Si10 2.456310 1_555
Ir4 Si1 2.492986 1_546
Ir4 Si13 2.513818 1_555
Ir4 Na0 3.113127 1_555
Ir5 Si1 2.429058 1_555
Ir5 Si3 2.429580 1_555
Ir5 Si6 2.437399 1_655
Ir5 Si4 2.437959 1_655
Ir5 Si9 2.456310 1_555
Ir5 Si2 2.492985 1_654
Ir5 Si12 2.513818 1_555
Ir5 Na0 3.113126 1_555
