# generated using pymatgen
data_Hf16CoCu3Re4
_symmetry_space_group_name_H-M   'P 1'
_cell_length_a   8.64742659
_cell_length_b   8.64742665
_cell_length_c   8.64742844
_cell_angle_alpha   59.86750530
_cell_angle_beta   59.86750120
_cell_angle_gamma   59.86750509
_symmetry_Int_Tables_number   1
_chemical_formula_structural   Hf16CoCu3Re4
_chemical_formula_sum   'Hf16 Co1 Cu3 Re4'
_cell_volume   455.86691160
_cell_formula_units_Z   1
loop_
 _symmetry_equiv_pos_site_id
 _symmetry_equiv_pos_as_xyz
  1  'x, y, z'
loop_
 _atom_site_type_symbol
 _atom_site_label
 _atom_site_symmetry_multiplicity
 _atom_site_fract_x
 _atom_site_fract_y
 _atom_site_fract_z
 _atom_site_occupancy
  Hf  Hf0  1  0.67988506  0.10344677  0.10344677  1
  Hf  Hf1  1  0.10344677  0.67988506  0.10344677  1
  Hf  Hf2  1  0.10344677  0.10344677  0.67988506  1
  Hf  Hf3  1  0.11416776  0.11416776  0.11416776  1
  Hf  Hf4  1  0.31448139  0.31448139  0.68436910  1
  Hf  Hf5  1  0.68400355  0.68400355  0.31413609  1
  Hf  Hf6  1  0.31448139  0.68436910  0.31448139  1
  Hf  Hf7  1  0.68400355  0.31413609  0.68400355  1
  Hf  Hf8  1  0.68436910  0.31448139  0.31448139  1
  Hf  Hf9  1  0.31413609  0.68400355  0.68400355  1
  Hf  Hf10  1  0.95032151  0.95032151  0.55789606  1
  Hf  Hf11  1  0.54222573  0.54222573  0.95594358  1
  Hf  Hf12  1  0.95032151  0.55789606  0.95032151  1
  Hf  Hf13  1  0.54222573  0.95594358  0.54222573  1
  Hf  Hf14  1  0.55789606  0.95032151  0.95032151  1
  Hf  Hf15  1  0.95594358  0.54222573  0.54222573  1
  Co  Co0  1  0.89284060  0.89284060  0.89284060  1
  Cu  Cu0  1  0.31643235  0.89695907  0.89695907  1
  Cu  Cu1  1  0.89695907  0.31643235  0.89695907  1
  Cu  Cu2  1  0.89695907  0.89695907  0.31643235  1
  Re  Re0  1  0.99808070  0.33490848  0.33490848  1
  Re  Re1  1  0.33490848  0.99808070  0.33490848  1
  Re  Re2  1  0.33490848  0.33490848  0.99808070  1
  Re  Re3  1  0.33355173  0.33355173  0.33355173  1
loop_
_geom_bond_atom_site_label_1
_geom_bond_atom_site_label_2
_geom_bond_distance
_geom_bond_site_symmetry_2
Hf0 Re1 2.939176 1_545
Hf0 Re2 2.939176 1_554
Hf0 Re3 2.982793 1_555
Hf1 Re0 2.939176 1_455
Hf1 Re2 2.939176 1_554
Hf1 Re3 2.982793 1_555
Hf2 Re1 2.939177 1_545
Hf2 Re0 2.939177 1_455
Hf2 Re3 2.982793 1_555
Hf3 Re2 2.847029 1_554
Hf3 Re0 2.847030 1_455
Hf3 Re1 2.847030 1_545
Hf4 Re3 2.877546 1_555
Hf4 Re2 2.900902 1_555
Hf5 Re1 2.869739 1_555
Hf5 Re0 2.869739 1_555
Hf6 Re3 2.877545 1_555
Hf6 Re1 2.900901 1_555
Hf7 Re2 2.869739 1_555
Hf7 Re0 2.869739 1_555
Hf8 Re3 2.877545 1_555
Hf8 Re0 2.900901 1_555
Hf9 Re2 2.869739 1_555
Hf9 Re1 2.869739 1_555
Hf10 Re1 3.014951 1_655
Hf10 Re0 3.014951 1_565
Hf11 Re2 2.911339 1_555
Hf11 Re3 2.934676 1_556
Hf12 Re2 3.014951 1_655
Hf12 Re0 3.014952 1_556
Hf13 Re1 2.911339 1_555
Hf13 Re3 2.934676 1_565
Hf14 Re2 3.014951 1_565
Hf14 Re1 3.014952 1_556
Hf15 Re0 2.911339 1_555
Hf15 Re3 2.934676 1_655
Co0 Hf14 2.498093 1_555
Co0 Hf12 2.498093 1_555
Co0 Hf10 2.498093 1_555
Co0 Hf2 2.573012 1_665
Co0 Hf0 2.573012 1_566
Co0 Hf1 2.573012 1_656
Cu0 Hf11 2.626379 1_555
Cu0 Hf13 2.626379 1_555
Cu0 Hf1 2.628339 1_556
Cu0 Hf2 2.628340 1_565
Cu0 Hf14 2.633310 1_555
Cu0 Hf3 2.657163 1_566
Cu0 Hf4 3.117939 1_565
Cu0 Hf6 3.117940 1_556
Cu1 Hf11 2.626379 1_555
Cu1 Hf15 2.626380 1_555
Cu1 Hf0 2.628339 1_556
Cu1 Hf2 2.628340 1_655
Cu1 Hf12 2.633310 1_555
Cu1 Hf3 2.657163 1_656
Cu1 Hf4 3.117939 1_655
Cu1 Hf8 3.117940 1_556
Cu2 Hf13 2.626379 1_555
Cu2 Hf15 2.626379 1_555
Cu2 Hf1 2.628340 1_655
Cu2 Hf0 2.628340 1_565
Cu2 Hf10 2.633310 1_555
Cu2 Hf3 2.657163 1_665
Cu2 Hf6 3.117939 1_655
Cu2 Hf8 3.117939 1_565
Re0 Re3 2.889229 1_655
Re0 Re1 2.906858 1_645
Re0 Re2 2.906859 1_654
Re1 Re3 2.889229 1_565
Re1 Re2 2.906859 1_564
Re2 Re3 2.889230 1_556
