# generated using pymatgen
data_Hf4Zr6Sn6Ge
_symmetry_space_group_name_H-M   'P 1'
_cell_length_a   5.84647090
_cell_length_b   8.55791798
_cell_length_c   8.55795897
_cell_angle_alpha   119.99982749
_cell_angle_beta   90.00011296
_cell_angle_gamma   89.99971530
_symmetry_Int_Tables_number   1
_chemical_formula_structural   Hf4Zr6Sn6Ge
_chemical_formula_sum   'Hf4 Zr6 Sn6 Ge1'
_cell_volume   370.82029818
_cell_formula_units_Z   1
loop_
 _symmetry_equiv_pos_site_id
 _symmetry_equiv_pos_as_xyz
  1  'x, y, z'
loop_
 _atom_site_type_symbol
 _atom_site_label
 _atom_site_symmetry_multiplicity
 _atom_site_fract_x
 _atom_site_fract_y
 _atom_site_fract_z
 _atom_site_occupancy
  Hf  Hf0  1  0.49999947  0.33331799  0.66664732  1
  Hf  Hf1  1  0.49999968  0.66665125  0.33331402  1
  Hf  Hf2  1  0.99999977  0.66665170  0.33331267  1
  Hf  Hf3  1  0.99999974  0.33332100  0.66665206  1
  Zr  Zr0  1  0.75938577  0.25603517  0.00002183  1
  Zr  Zr1  1  0.75937299  0.74397643  0.74397562  1
  Zr  Zr2  1  0.75938594  0.00001506  0.25603503  1
  Zr  Zr3  1  0.24061470  0.74398836  0.00002255  1
  Zr  Zr4  1  0.24061532  0.25602789  0.25603313  1
  Zr  Zr5  1  0.24062640  0.00001213  0.74398190  1
  Sn  Sn0  1  0.74632381  0.60721005  0.00004176  1
  Sn  Sn1  1  0.74632689  0.39278918  0.39276687  1
  Sn  Sn2  1  0.74633241  0.99998523  0.60716952  1
  Sn  Sn3  1  0.25367596  0.39281524  0.00004292  1
  Sn  Sn4  1  0.25366580  0.60718179  0.60715820  1
  Sn  Sn5  1  0.25367335  0.99998482  0.39278005  1
  Ge  Ge0  1  0.49999999  0.00003371  0.00004456  1
loop_
_geom_bond_atom_site_label_1
_geom_bond_atom_site_label_2
_geom_bond_distance
_geom_bond_site_symmetry_2
Hf0 Sn2 3.003112 1_545
Hf0 Sn5 3.003147 1_545
Hf0 Sn4 3.003234 1_555
Hf0 Sn1 3.003271 1_555
Hf0 Sn0 3.003502 1_556
Hf0 Sn3 3.003520 1_556
Hf1 Sn0 3.002755 1_555
Hf1 Sn3 3.002763 1_555
Hf1 Sn4 3.003013 1_555
Hf1 Sn1 3.003029 1_555
Hf1 Sn5 3.003130 1_555
Hf1 Sn2 3.003138 1_555
Hf2 Sn0 3.023591 1_555
Hf2 Sn3 3.023604 1_655
Hf2 Sn4 3.023810 1_655
Hf2 Sn1 3.023881 1_555
Hf2 Sn2 3.023929 1_555
Hf2 Sn5 3.023970 1_655
Hf3 Sn2 3.023932 1_545
Hf3 Sn5 3.023999 1_645
Hf3 Sn4 3.024038 1_655
Hf3 Sn1 3.024113 1_555
Hf3 Sn0 3.024310 1_556
Hf3 Sn3 3.024337 1_656
Sn0 Zr2 2.956550 1_565
Sn0 Zr1 2.956835 1_554
Sn0 Zr0 3.006210 1_555
Sn0 Zr3 3.117958 1_655
Sn0 Zr3 3.179918 1_555
Sn1 Zr0 2.956163 1_555
Sn1 Zr2 2.956413 1_555
Sn1 Zr1 3.006507 1_555
Sn1 Zr4 3.117808 1_655
Sn1 Zr4 3.179815 1_555
Sn2 Zr1 2.956627 1_555
Sn2 Zr0 2.956953 1_566
Sn2 Zr2 3.006091 1_565
Sn2 Zr5 3.118004 1_665
Sn2 Zr5 3.179946 1_565
Sn3 Zr4 2.956364 1_555
Sn3 Zr5 2.956635 1_554
Sn3 Zr3 3.006368 1_555
Sn3 Zr0 3.117895 1_455
Sn3 Zr0 3.179864 1_555
Sn4 Zr5 2.956726 1_565
Sn4 Zr3 2.957042 1_556
Sn4 Zr4 3.006007 1_555
Sn4 Zr1 3.118020 1_455
Sn4 Zr1 3.179976 1_555
Sn5 Zr3 2.956253 1_555
Sn5 Zr4 2.956517 1_565
Sn5 Zr5 3.006422 1_565
Sn5 Zr2 3.117844 1_465
Sn5 Zr2 3.179859 1_565
Ge0 Zr4 2.664424 1_555
Ge0 Zr2 2.664488 1_555
Ge0 Zr0 2.664579 1_555
Ge0 Zr3 2.664729 1_545
Ge0 Zr5 2.664814 1_554
Ge0 Zr1 2.664890 1_544
