# generated using pymatgen
data_NaCaZr2F11
_symmetry_space_group_name_H-M   'P 1'
_cell_length_a   5.84494196
_cell_length_b   5.84494218
_cell_length_c   7.91500686
_cell_angle_alpha   69.58841654
_cell_angle_beta   69.58841686
_cell_angle_gamma   73.40286787
_symmetry_Int_Tables_number   1
_chemical_formula_structural   NaCaZr2F11
_chemical_formula_sum   'Na1 Ca1 Zr2 F11'
_cell_volume   233.33579192
_cell_formula_units_Z   1
loop_
 _symmetry_equiv_pos_site_id
 _symmetry_equiv_pos_as_xyz
  1  'x, y, z'
loop_
 _atom_site_type_symbol
 _atom_site_label
 _atom_site_symmetry_multiplicity
 _atom_site_fract_x
 _atom_site_fract_y
 _atom_site_fract_z
 _atom_site_occupancy
  Na  Na0  1  0.00000000  0.00000000  0.00000000  1
  Ca  Ca0  1  0.00000000  0.00000000  0.50000000  1
  Zr  Zr0  1  0.49541054  0.49541054  0.77288620  1
  Zr  Zr1  1  0.50458946  0.50458946  0.22711380  1
  F  F0  1  0.22142740  0.78874204  0.70495853  1
  F  F1  1  0.21125796  0.77857260  0.29504147  1
  F  F2  1  0.77857260  0.21125796  0.29504147  1
  F  F3  1  0.78874204  0.22142740  0.70495853  1
  F  F4  1  0.50000000  0.50000000  0.50000000  1
  F  F5  1  0.66569600  0.33430400  0.00000000  1
  F  F6  1  0.33430400  0.66569600  1.00000000  1
  F  F7  1  0.26575511  0.26575511  0.34559235  1
  F  F8  1  0.73424489  0.73424489  0.65440765  1
  F  F9  1  0.26185085  0.26185085  0.89220551  1
  F  F10  1  0.73814915  0.73814915  0.10779449  1
loop_
_geom_bond_atom_site_label_1
_geom_bond_atom_site_label_2
_geom_bond_distance
_geom_bond_site_symmetry_2
Ca0 F0 2.232873 1_545
Ca0 F2 2.232873 1_455
Ca0 F3 2.232873 1_455
Ca0 F1 2.232873 1_545
Ca0 F7 2.247069 1_555
Ca0 F8 2.247069 1_445
F0 Zr0 2.045039 1_555
F0 Na0 2.764665 1_566
F1 Zr1 2.045039 1_555
F1 Na0 2.764664 1_565
F2 Zr1 2.045039 1_555
F2 Na0 2.764665 1_655
F3 Zr0 2.045039 1_555
F3 Na0 2.764664 1_656
F4 Zr0 2.141535 1_555
F4 Zr1 2.141535 1_555
F5 Zr0 2.154204 1_554
F5 Zr1 2.154204 1_555
F5 Na0 2.335583 1_655
F6 Zr1 2.154204 1_556
F6 Zr0 2.154204 1_555
F6 Na0 2.335583 1_566
F7 Zr1 2.015916 1_555
F8 Zr0 2.015916 1_555
F9 Zr0 1.971096 1_555
F9 Na0 2.220211 1_556
F10 Zr1 1.971096 1_555
F10 Na0 2.220211 1_665
