# generated using pymatgen
data_TaTi(Nb3P2)4
_symmetry_space_group_name_H-M   'P 1'
_cell_length_a   7.70274240
_cell_length_b   7.70274235
_cell_length_c   13.85488603
_cell_angle_alpha   75.66198901
_cell_angle_beta   75.66198906
_cell_angle_gamma   25.95301253
_symmetry_Int_Tables_number   1
_chemical_formula_structural   TaTi(Nb3P2)4
_chemical_formula_sum   'Ta1 Ti1 Nb12 P8'
_cell_volume   347.94236282
_cell_formula_units_Z   1
loop_
 _symmetry_equiv_pos_site_id
 _symmetry_equiv_pos_as_xyz
  1  'x, y, z'
loop_
 _atom_site_type_symbol
 _atom_site_label
 _atom_site_symmetry_multiplicity
 _atom_site_fract_x
 _atom_site_fract_y
 _atom_site_fract_z
 _atom_site_occupancy
  Ta  Ta0  1  0.00000000  0.00000000  0.00000000  1
  Ti  Ti0  1  0.50000000  0.50000000  0.50000000  1
  Nb  Nb0  1  0.43250987  0.43250987  0.17271727  1
  Nb  Nb1  1  0.56749013  0.56749013  0.82728273  1
  Nb  Nb2  1  0.19530019  0.19530019  0.68666972  1
  Nb  Nb3  1  0.80469981  0.80469981  0.31333028  1
  Nb  Nb4  1  0.21024621  0.21024621  0.20154992  1
  Nb  Nb5  1  0.78975379  0.78975379  0.79845008  1
  Nb  Nb6  1  0.33837345  0.33837345  0.97274293  1
  Nb  Nb7  1  0.66162655  0.66162655  0.02725707  1
  Nb  Nb8  1  0.00358785  0.00358785  0.33548904  1
  Nb  Nb9  1  0.99641215  0.99641215  0.66451096  1
  Nb  Nb10  1  0.17361942  0.17361942  0.45839450  1
  Nb  Nb11  1  0.82638058  0.82638058  0.54160550  1
  P  P0  1  0.17351487  0.17351487  0.88733106  1
  P  P1  1  0.82648513  0.82648513  0.11266894  1
  P  P2  1  0.37577742  0.37577742  0.39920619  1
  P  P3  1  0.62422258  0.62422258  0.60079381  1
  P  P4  1  0.37108285  0.37108285  0.66203326  1
  P  P5  1  0.62891715  0.62891715  0.33796674  1
  P  P6  1  0.06450359  0.06450359  0.15105091  1
  P  P7  1  0.93549641  0.93549641  0.84894909  1
loop_
_geom_bond_atom_site_label_1
_geom_bond_atom_site_label_2
_geom_bond_distance
_geom_bond_site_symmetry_2
Nb0 P6 2.589566 1_565
Nb0 P6 2.589566 1_655
Nb0 P1 2.624935 1_545
Nb0 P1 2.624935 1_455
Nb0 P2 3.035441 1_555
Nb1 P7 2.589566 1_545
Nb1 P7 2.589566 1_455
Nb1 P0 2.624935 1_565
Nb1 P0 2.624935 1_655
Nb1 P3 3.035441 1_555
Nb2 P3 2.488203 1_545
Nb2 P3 2.488203 1_455
Nb2 P4 2.573380 1_555
Nb2 P0 2.715513 1_555
Nb3 P2 2.488203 1_565
Nb3 P2 2.488203 1_655
Nb3 P5 2.573380 1_555
Nb3 P1 2.715513 1_555
Nb4 P6 2.460580 1_555
Nb4 P1 2.541843 1_455
Nb4 P1 2.541843 1_545
Nb4 P5 2.623311 1_545
Nb4 P5 2.623311 1_455
Nb5 P7 2.460580 1_555
Nb5 P0 2.541843 1_655
Nb5 P0 2.541843 1_565
Nb5 P4 2.623311 1_565
Nb5 P4 2.623311 1_655
Nb6 P1 2.570239 1_456
Nb6 P1 2.570239 1_546
Nb6 P7 2.605429 1_455
Nb6 P7 2.605429 1_545
Nb6 P0 3.002313 1_555
Nb7 P0 2.570239 1_654
Nb7 P0 2.570239 1_564
Nb7 P6 2.605429 1_655
Nb7 P6 2.605429 1_565
Nb7 P1 3.002313 1_555
Nb8 P6 2.485650 1_555
Nb8 P5 2.562342 1_455
Nb8 P5 2.562342 1_545
Nb8 P2 2.567402 1_545
Nb8 P2 2.567402 1_455
Nb9 P7 2.485650 1_555
Nb9 P4 2.562342 1_655
Nb9 P4 2.562342 1_565
Nb9 P3 2.567402 1_565
Nb9 P3 2.567402 1_655
Nb10 P3 2.586593 1_545
Nb10 P3 2.586593 1_455
Nb10 P5 2.606743 1_545
Nb10 P5 2.606743 1_455
Nb10 P2 2.935580 1_555
Nb11 P2 2.586593 1_565
Nb11 P2 2.586593 1_655
Nb11 P4 2.606743 1_565
Nb11 P4 2.606743 1_655
Nb11 P3 2.935580 1_555
P0 Ta0 2.674912 1_556
P1 Ta0 2.674912 1_665
P2 Ti0 2.598350 1_555
P3 Ti0 2.598350 1_555
P4 Ti0 2.564566 1_555
P5 Ti0 2.564566 1_555
P6 Ta0 2.519416 1_555
P7 Ta0 2.519416 1_666
