# generated using pymatgen
data_Ca20Si11Pb
_symmetry_space_group_name_H-M   'P 1'
_cell_length_a   7.69155256
_cell_length_b   7.69155256
_cell_length_c   14.87761260
_cell_angle_alpha   90.00000000
_cell_angle_beta   90.00000000
_cell_angle_gamma   90.00000000
_symmetry_Int_Tables_number   1
_chemical_formula_structural   Ca20Si11Pb
_chemical_formula_sum   'Ca20 Si11 Pb1'
_cell_volume   880.15927670
_cell_formula_units_Z   1
loop_
 _symmetry_equiv_pos_site_id
 _symmetry_equiv_pos_as_xyz
  1  'x, y, z'
loop_
 _atom_site_type_symbol
 _atom_site_label
 _atom_site_symmetry_multiplicity
 _atom_site_fract_x
 _atom_site_fract_y
 _atom_site_fract_z
 _atom_site_occupancy
  Ca  Ca0  1  0.32739214  0.68773773  0.11498201  1
  Ca  Ca1  1  0.18773773  0.17260786  0.11498201  1
  Ca  Ca2  1  0.50000000  0.00000000  0.73532805  1
  Ca  Ca3  1  0.31710525  0.67771148  0.39056813  1
  Ca  Ca4  1  0.67148304  0.68885670  0.88503647  1
  Ca  Ca5  1  0.17771148  0.18289475  0.39056813  1
  Ca  Ca6  1  0.68289475  0.32228852  0.39056813  1
  Ca  Ca7  1  0.17651792  0.81596829  0.60946079  1
  Ca  Ca8  1  0.32851696  0.31114330  0.88503647  1
  Ca  Ca9  1  0.18885670  0.82851696  0.88503647  1
  Ca  Ca10  1  0.50000000  0.00000000  0.26230759  1
  Ca  Ca11  1  0.82348208  0.18403171  0.60946079  1
  Ca  Ca12  1  0.31596829  0.32348208  0.60946079  1
  Ca  Ca13  1  0.82228852  0.81710525  0.39056813  1
  Ca  Ca14  1  0.81114330  0.17148304  0.88503647  1
  Ca  Ca15  1  0.81226227  0.82739214  0.11498201  1
  Ca  Ca16  1  0.00000000  0.50000000  0.24932097  1
  Ca  Ca17  1  0.00000000  0.50000000  0.75274895  1
  Ca  Ca18  1  0.67260786  0.31226227  0.11498201  1
  Ca  Ca19  1  0.68403171  0.67651792  0.60946079  1
  Si  Si0  1  0.11190996  0.11199758  0.74707100  1
  Si  Si1  1  0.38800242  0.61190996  0.74707100  1
  Si  Si2  1  0.61199485  0.61187097  0.25295380  1
  Si  Si3  1  0.50000000  0.00000000  0.00069599  1
  Si  Si4  1  0.11187097  0.88800515  0.25295380  1
  Si  Si5  1  0.61199758  0.38809004  0.74707100  1
  Si  Si6  1  0.88809004  0.88800242  0.74707100  1
  Si  Si7  1  0.38800515  0.38812903  0.25295380  1
  Si  Si8  1  0.88812903  0.11199485  0.25295380  1
  Si  Si9  1  0.50000000  0.00000000  0.50039667  1
  Si  Si10  1  0.00000000  0.50000000  0.49943725  1
  Pb  Pb0  1  0.00000000  0.50000000  0.99947977  1
loop_
_geom_bond_atom_site_label_1
_geom_bond_atom_site_label_2
_geom_bond_distance
_geom_bond_site_symmetry_2
Ca0 Si4 3.055195 1_555
Ca0 Si2 3.057112 1_555
Ca0 Si7 3.121123 1_555
Ca0 Si3 3.228338 1_565
Ca0 Pb0 3.373294 1_554
Ca1 Si7 3.055195 1_555
Ca1 Si4 3.057112 1_545
Ca1 Si8 3.121123 1_455
Ca1 Si3 3.228338 1_555
Ca1 Pb0 3.373294 1_554
Ca2 Si5 3.111737 1_555
Ca2 Si6 3.111737 1_545
Ca2 Si0 3.111737 1_555
Ca2 Si1 3.111737 1_545
Ca2 Si9 3.495218 1_555
Ca3 Si4 3.049570 1_555
Ca3 Si7 3.074111 1_555
Ca3 Si2 3.097214 1_555
Ca3 Si10 3.231207 1_555
Ca3 Si9 3.285389 1_565
Ca4 Si1 3.052474 1_555
Ca4 Si6 3.055337 1_555
Ca4 Si5 3.126362 1_555
Ca4 Si3 3.229227 1_566
Ca4 Pb0 3.375469 1_655
Ca5 Si7 3.049570 1_555
Ca5 Si8 3.074111 1_455
Ca5 Si4 3.097214 1_545
Ca5 Si10 3.231207 1_555
Ca5 Si9 3.285389 1_555
Ca6 Si8 3.049570 1_555
Ca6 Si2 3.074111 1_555
Ca6 Si7 3.097214 1_555
Ca6 Si10 3.231207 1_655
Ca6 Si9 3.285389 1_555
Ca7 Si1 3.049732 1_555
Ca7 Si6 3.069205 1_455
Ca7 Si0 3.102066 1_565
Ca7 Si10 3.229402 1_555
Ca7 Si9 3.290445 1_565
Ca8 Si5 3.052474 1_555
Ca8 Si0 3.055337 1_555
Ca8 Si1 3.126362 1_555
Ca8 Si3 3.229227 1_556
Ca8 Pb0 3.375469 1_555
Ca9 Si0 3.052474 1_565
Ca9 Si1 3.055337 1_555
Ca9 Si6 3.126362 1_455
Ca9 Si3 3.229227 1_566
Ca9 Pb0 3.375469 1_555
Ca10 Si8 3.110226 1_555
Ca10 Si7 3.110226 1_555
Ca10 Si2 3.110226 1_545
Ca10 Si4 3.110226 1_545
Ca10 Si9 3.542197 1_555
Ca11 Si5 3.049732 1_555
Ca11 Si0 3.069205 1_655
Ca11 Si6 3.102066 1_545
Ca11 Si10 3.229402 1_655
Ca11 Si9 3.290445 1_555
Ca12 Si0 3.049732 1_555
Ca12 Si1 3.069205 1_555
Ca12 Si5 3.102066 1_555
Ca12 Si10 3.229402 1_555
Ca12 Si9 3.290445 1_555
Ca13 Si2 3.049570 1_555
Ca13 Si4 3.074111 1_655
Ca13 Si8 3.097214 1_565
Ca13 Si10 3.231207 1_655
Ca13 Si9 3.285389 1_565
Ca14 Si6 3.052474 1_545
Ca14 Si5 3.055337 1_555
Ca14 Si0 3.126362 1_655
Ca14 Si3 3.229227 1_556
Ca14 Pb0 3.375469 1_655
Ca15 Si2 3.055195 1_555
Ca15 Si8 3.057112 1_565
Ca15 Si4 3.121123 1_655
Ca15 Si3 3.228338 1_565
Ca15 Pb0 3.373294 1_654
Ca16 Si4 3.106402 1_555
Ca16 Si7 3.106402 1_555
Ca16 Si2 3.106402 1_455
Ca16 Si8 3.106402 1_455
Ca16 Pb0 3.717041 1_554
Ca17 Si1 3.107143 1_555
Ca17 Si6 3.107143 1_455
Ca17 Si0 3.107143 1_555
Ca17 Si5 3.107143 1_455
Ca17 Pb0 3.670766 1_555
Ca18 Si8 3.055195 1_555
Ca18 Si7 3.057112 1_555
Ca18 Si2 3.121123 1_555
Ca18 Si3 3.228338 1_555
Ca18 Pb0 3.373294 1_654
Ca19 Si6 3.049732 1_555
Ca19 Si5 3.069205 1_555
Ca19 Si1 3.102066 1_555
Ca19 Si10 3.229402 1_655
Ca19 Si9 3.290445 1_565
Si0 Si6 2.435554 1_445
Si1 Si5 2.435554 1_555
Si2 Si7 2.435100 1_555
Si4 Si8 2.435100 1_465
