# generated using pymatgen
data_RbSClO3
_symmetry_space_group_name_H-M   'P 1'
_cell_length_a   6.30111526
_cell_length_b   8.19099498
_cell_length_c   8.98299939
_cell_angle_alpha   90.00000000
_cell_angle_beta   90.00000000
_cell_angle_gamma   90.00000000
_symmetry_Int_Tables_number   1
_chemical_formula_structural   RbSClO3
_chemical_formula_sum   'Rb4 S4 Cl4 O12'
_cell_volume   463.63418859
_cell_formula_units_Z   4
loop_
 _symmetry_equiv_pos_site_id
 _symmetry_equiv_pos_as_xyz
  1  'x, y, z'
loop_
 _atom_site_type_symbol
 _atom_site_label
 _atom_site_symmetry_multiplicity
 _atom_site_fract_x
 _atom_site_fract_y
 _atom_site_fract_z
 _atom_site_occupancy
  Rb  Rb0  1  0.25000000  0.37021568  0.67595342  1
  Rb  Rb1  1  0.25000000  0.12978432  0.17595342  1
  Rb  Rb2  1  0.75000000  0.62978432  0.32404658  1
  Rb  Rb3  1  0.75000000  0.87021568  0.82404658  1
  S  S0  1  0.25000000  0.79789455  0.54227216  1
  S  S1  1  0.25000000  0.70210545  0.04227216  1
  S  S2  1  0.75000000  0.20210545  0.45772784  1
  S  S3  1  0.75000000  0.29789455  0.95772784  1
  Cl  Cl0  1  0.25000000  0.96374332  0.72527064  1
  Cl  Cl1  1  0.25000000  0.53625668  0.22527064  1
  Cl  Cl2  1  0.75000000  0.03625668  0.27472936  1
  Cl  Cl3  1  0.75000000  0.46374332  0.77472936  1
  O  O0  1  0.05703334  0.70662308  0.56704425  1
  O  O1  1  0.44296666  0.79337692  0.06704425  1
  O  O2  1  0.55703334  0.29337692  0.43295575  1
  O  O3  1  0.94296666  0.20662308  0.93295575  1
  O  O4  1  0.94296666  0.29337692  0.43295575  1
  O  O5  1  0.55703334  0.20662308  0.93295575  1
  O  O6  1  0.44296666  0.70662308  0.56704425  1
  O  O7  1  0.05703334  0.79337692  0.06704425  1
  O  O8  1  0.25000000  0.90449796  0.41589415  1
  O  O9  1  0.25000000  0.59550204  0.91589415  1
  O  O10  1  0.75000000  0.09550204  0.58410585  1
  O  O11  1  0.75000000  0.40449796  0.08410585  1
loop_
_geom_bond_atom_site_label_1
_geom_bond_atom_site_label_2
_geom_bond_distance
_geom_bond_site_symmetry_2
Cl0 S0 2.132547 1_555
Cl0 Rb0 3.358758 1_565
Cl0 Rb3 3.361578 1_555
Cl0 Rb3 3.361578 1_455
Cl1 S1 2.132547 1_555
Cl1 Rb1 3.358758 1_555
Cl1 Rb2 3.361578 1_455
Cl1 Rb2 3.361578 1_555
Cl2 S2 2.132547 1_555
Cl2 Rb2 3.358758 1_545
Cl2 Rb1 3.361578 1_655
Cl2 Rb1 3.361578 1_555
Cl3 S3 2.132547 1_555
Cl3 Rb3 3.358758 1_555
Cl3 Rb0 3.361578 1_555
Cl3 Rb0 3.361578 1_655
O0 S0 1.444595 1_555
O0 Rb2 2.983929 1_455
O0 Rb0 3.166765 1_555
O0 Rb3 3.296713 1_455
O1 S1 1.444595 1_555
O1 Rb3 2.983929 1_554
O1 Rb1 3.166765 1_565
O1 Rb2 3.296713 1_555
O2 S2 1.444595 1_555
O2 Rb0 2.983929 1_555
O2 Rb2 3.166765 1_555
O2 Rb1 3.296713 1_555
O3 S3 1.444595 1_555
O3 Rb1 2.983929 1_656
O3 Rb3 3.166765 1_545
O3 Rb0 3.296713 1_655
O4 S2 1.444595 1_555
O4 Rb0 2.983929 1_655
O4 Rb2 3.166765 1_555
O4 Rb1 3.296713 1_655
O5 S3 1.444595 1_555
O5 Rb1 2.983929 1_556
O5 Rb3 3.166765 1_545
O5 Rb0 3.296713 1_555
O6 S0 1.444595 1_555
O6 Rb2 2.983929 1_555
O6 Rb0 3.166765 1_555
O6 Rb3 3.296713 1_555
O7 S1 1.444595 1_555
O7 Rb3 2.983929 1_454
O7 Rb1 3.166765 1_565
O7 Rb2 3.296713 1_455
O8 S0 1.432221 1_555
O8 Rb1 2.837411 1_565
O9 S1 1.432221 1_556
O9 Rb0 2.837411 1_555
O10 S2 1.432221 1_555
O10 Rb3 2.837411 1_545
O11 S3 1.432221 1_554
O11 Rb2 2.837411 1_555
