# generated using pymatgen
data_Y2Ir3W
_symmetry_space_group_name_H-M   'P 1'
_cell_length_a   5.59291828
_cell_length_b   5.20034626
_cell_length_c   5.59291896
_cell_angle_alpha   57.46975945
_cell_angle_beta   60.00000784
_cell_angle_gamma   57.46975668
_symmetry_Int_Tables_number   1
_chemical_formula_structural   Y2Ir3W
_chemical_formula_sum   'Y2 Ir3 W1'
_cell_volume   110.42819184
_cell_formula_units_Z   1
loop_
 _symmetry_equiv_pos_site_id
 _symmetry_equiv_pos_as_xyz
  1  'x, y, z'
loop_
 _atom_site_type_symbol
 _atom_site_label
 _atom_site_symmetry_multiplicity
 _atom_site_fract_x
 _atom_site_fract_y
 _atom_site_fract_z
 _atom_site_occupancy
  Y  Y0  1  0.49895919  0.50312342  0.49895919  1
  Y  Y1  1  0.75104081  0.74687658  0.75104081  1
  Ir  Ir0  1  0.62500000  0.12500000  0.12500000  1
  Ir  Ir1  1  0.12500000  0.12500000  0.12500000  1
  Ir  Ir2  1  0.12500000  0.12500000  0.62500000  1
  W  W0  1  0.12500000  0.62500000  0.12500000  1
loop_
_geom_bond_atom_site_label_1
_geom_bond_atom_site_label_2
_geom_bond_distance
_geom_bond_site_symmetry_2
Y0 Y1 3.082733 1_545
Y0 Y1 3.378485 1_555
Y0 Y1 3.378494 1_455
Y0 Y1 3.378495 1_554
Ir0 W0 2.600173 1_645
Ir0 W0 2.600173 1_555
Ir0 Ir1 2.796459 1_655
Ir0 Ir1 2.796459 1_555
Ir0 Ir2 2.796460 1_555
Ir0 Ir2 2.796460 1_654
Ir0 Y1 3.005479 1_554
Ir0 Y0 3.005479 1_545
Ir0 Y1 3.193115 1_545
Ir0 Y0 3.193115 1_554
Ir0 Y0 3.193119 1_555
Ir0 Y1 3.193119 1_544
Ir1 W0 2.600173 1_555
Ir1 W0 2.600173 1_545
Ir1 Ir2 2.796459 1_554
Ir1 Ir2 2.796459 1_555
Ir1 Y0 3.005482 1_545
Ir1 Y1 3.005482 1_454
Ir1 Y0 3.193117 1_455
Ir1 Y1 3.193117 1_544
Ir1 Y0 3.193117 1_554
Ir1 Y1 3.193117 1_445
Ir2 W0 2.600174 1_555
Ir2 W0 2.600174 1_546
Ir2 Y1 3.005479 1_455
Ir2 Y0 3.005479 1_545
Ir2 Y1 3.193114 1_545
Ir2 Y0 3.193114 1_455
Ir2 Y0 3.193119 1_555
Ir2 Y1 3.193119 1_445
W0 Y1 3.267067 1_554
W0 Y0 3.267067 1_455
W0 Y1 3.267067 1_455
W0 Y0 3.267067 1_554
W0 Y0 3.267071 1_555
W0 Y1 3.267071 1_454
