# generated using pymatgen
data_Mg2Sb2PdAu
_symmetry_space_group_name_H-M   'P 1'
_cell_length_a   7.81759987
_cell_length_b   7.81760052
_cell_length_c   7.81759997
_cell_angle_alpha   33.52443784
_cell_angle_beta   33.52442787
_cell_angle_gamma   33.52442412
_symmetry_Int_Tables_number   1
_chemical_formula_structural   Mg2Sb2PdAu
_chemical_formula_sum   'Mg2 Sb2 Pd1 Au1'
_cell_volume   129.80101569
_cell_formula_units_Z   1
loop_
 _symmetry_equiv_pos_site_id
 _symmetry_equiv_pos_as_xyz
  1  'x, y, z'
loop_
 _atom_site_type_symbol
 _atom_site_label
 _atom_site_symmetry_multiplicity
 _atom_site_fract_x
 _atom_site_fract_y
 _atom_site_fract_z
 _atom_site_occupancy
  Mg  Mg0  1  0.74692429  0.74692429  0.74692429  1
  Mg  Mg1  1  0.25321765  0.25321765  0.25321765  1
  Sb  Sb0  1  0.99705691  0.99705691  0.99705691  1
  Sb  Sb1  1  0.50313248  0.50313248  0.50313248  1
  Pd  Pd0  1  0.62522967  0.62522967  0.62522967  1
  Au  Au0  1  0.12443699  0.12443699  0.12443699  1
loop_
_geom_bond_atom_site_label_1
_geom_bond_atom_site_label_2
_geom_bond_distance
_geom_bond_site_symmetry_2
Mg0 Pd0 2.691172 1_555
Mg0 Sb0 3.187930 1_455
Mg0 Sb0 3.187931 1_554
Mg0 Sb0 3.187931 1_545
Mg0 Sb1 3.270864 1_655
Mg0 Sb1 3.270864 1_556
Mg0 Sb1 3.270865 1_565
Mg1 Pd0 2.740299 1_455
Mg1 Pd0 2.740299 1_545
Mg1 Pd0 2.740300 1_554
Mg1 Sb0 3.112896 1_544
Mg1 Sb0 3.112897 1_445
Mg1 Sb0 3.112897 1_454
Mg1 Sb1 3.190712 1_455
Mg1 Sb1 3.190713 1_554
Mg1 Sb1 3.190713 1_545
Pd0 Sb1 2.700075 1_555
Pd0 Sb0 2.739026 1_455
Pd0 Sb0 2.739026 1_545
Pd0 Sb0 2.739027 1_554
Au0 Mg0 2.780670 1_544
Au0 Mg0 2.780671 1_454
Au0 Mg0 2.780671 1_445
Au0 Sb1 2.789968 1_455
Au0 Sb1 2.789968 1_545
Au0 Sb1 2.789969 1_554
Au0 Sb0 2.816901 1_444
Au0 Mg1 2.847874 1_555
