# generated using pymatgen
data_SnPN3
_symmetry_space_group_name_H-M   'P 1'
_cell_length_a   6.57739643
_cell_length_b   6.57739730
_cell_length_c   5.09480973
_cell_angle_alpha   81.14185609
_cell_angle_beta   81.14184861
_cell_angle_gamma   87.14000669
_symmetry_Int_Tables_number   1
_chemical_formula_structural   SnPN3
_chemical_formula_sum   'Sn4 P4 N12'
_cell_volume   215.10848670
_cell_formula_units_Z   4
loop_
 _symmetry_equiv_pos_site_id
 _symmetry_equiv_pos_as_xyz
  1  'x, y, z'
loop_
 _atom_site_type_symbol
 _atom_site_label
 _atom_site_symmetry_multiplicity
 _atom_site_fract_x
 _atom_site_fract_y
 _atom_site_fract_z
 _atom_site_occupancy
  Sn  Sn0  1  0.70186000  0.29814000  0.75000000  1
  Sn  Sn1  1  0.89968828  0.10031172  0.25000000  1
  Sn  Sn2  1  0.29814000  0.70186000  0.25000000  1
  Sn  Sn3  1  0.10031172  0.89968828  0.75000000  1
  P  P0  1  0.21245729  0.38423444  0.78846560  1
  P  P1  1  0.38423444  0.21245729  0.28846560  1
  P  P2  1  0.78754271  0.61576556  0.21153440  1
  P  P3  1  0.61576556  0.78754271  0.71153440  1
  N  N0  1  0.29175514  0.40584768  0.08136785  1
  N  N1  1  0.02751755  0.21540362  0.85221283  1
  N  N2  1  0.97248245  0.78459638  0.14778717  1
  N  N3  1  0.40584768  0.29175514  0.58136785  1
  N  N4  1  0.60262889  0.14913804  0.13443483  1
  N  N5  1  0.39737111  0.85086196  0.86556517  1
  N  N6  1  0.85086196  0.39737111  0.36556517  1
  N  N7  1  0.70824486  0.59415232  0.91863215  1
  N  N8  1  0.78459638  0.97248245  0.64778717  1
  N  N9  1  0.14913804  0.60262889  0.63443483  1
  N  N10  1  0.21540362  0.02751755  0.35221283  1
  N  N11  1  0.59415232  0.70824486  0.41863215  1
loop_
_geom_bond_atom_site_label_1
_geom_bond_atom_site_label_2
_geom_bond_distance
_geom_bond_site_symmetry_2
N0 P1 1.675824 1_555
N0 P0 1.682734 1_554
N0 Sn2 2.250581 1_555
N1 P0 1.649349 1_555
N1 Sn1 2.110336 1_456
N1 Sn3 2.229276 1_545
N1 Sn0 2.301160 1_455
N2 P2 1.649349 1_555
N2 Sn3 2.110336 1_654
N2 Sn1 2.229276 1_565
N2 Sn2 2.301160 1_655
N3 P0 1.675824 1_555
N3 P1 1.682734 1_555
N3 Sn0 2.250581 1_555
N4 P1 1.595780 1_555
N4 Sn0 2.074039 1_554
N4 Sn1 2.121529 1_555
N5 P3 1.595780 1_555
N5 Sn2 2.074039 1_556
N5 Sn3 2.121529 1_555
N6 P2 1.595780 1_555
N6 Sn0 2.074039 1_555
N6 Sn1 2.121529 1_555
N7 P3 1.675824 1_555
N7 P2 1.682734 1_556
N7 Sn0 2.250581 1_555
N8 P3 1.649349 1_555
N8 Sn1 2.110336 1_565
N8 Sn3 2.229276 1_655
N8 Sn0 2.301160 1_565
N9 P0 1.595780 1_555
N9 Sn2 2.074039 1_555
N9 Sn3 2.121529 1_555
N10 P1 1.649349 1_555
N10 Sn3 2.110336 1_545
N10 Sn1 2.229276 1_455
N10 Sn2 2.301160 1_545
N11 P2 1.675824 1_555
N11 P3 1.682734 1_555
N11 Sn2 2.250581 1_555
