# generated using pymatgen
data_FeCu6BrO8
_symmetry_space_group_name_H-M   'P 1'
_cell_length_a   6.37617189
_cell_length_b   6.37617162
_cell_length_c   6.37617216
_cell_angle_alpha   60.00000222
_cell_angle_beta   60.00000363
_cell_angle_gamma   59.99999520
_symmetry_Int_Tables_number   1
_chemical_formula_structural   FeCu6BrO8
_chemical_formula_sum   'Fe1 Cu6 Br1 O8'
_cell_volume   183.30109306
_cell_formula_units_Z   1
loop_
 _symmetry_equiv_pos_site_id
 _symmetry_equiv_pos_as_xyz
  1  'x, y, z'
loop_
 _atom_site_type_symbol
 _atom_site_label
 _atom_site_symmetry_multiplicity
 _atom_site_fract_x
 _atom_site_fract_y
 _atom_site_fract_z
 _atom_site_occupancy
  Fe  Fe0  1  0.00000000  0.00000000  0.00000000  1
  Cu  Cu0  1  0.00000000  0.00000000  0.50000000  1
  Cu  Cu1  1  0.50000000  0.00000000  0.00000000  1
  Cu  Cu2  1  0.00000000  0.50000000  0.00000000  1
  Cu  Cu3  1  0.50000000  0.50000000  0.00000000  1
  Cu  Cu4  1  0.00000000  0.50000000  0.50000000  1
  Cu  Cu5  1  0.50000000  0.00000000  0.50000000  1
  Br  Br0  1  0.50000000  0.50000000  0.50000000  1
  O  O0  1  0.13884847  0.13884847  0.58345260  1
  O  O1  1  0.13884847  0.58345260  0.13884847  1
  O  O2  1  0.58345260  0.13884847  0.13884847  1
  O  O3  1  0.86115153  0.41654740  0.86115153  1
  O  O4  1  0.13884847  0.13884847  0.13884847  1
  O  O5  1  0.86115153  0.86115153  0.86115153  1
  O  O6  1  0.86115153  0.86115153  0.41654740  1
  O  O7  1  0.41654740  0.86115153  0.86115153  1
loop_
_geom_bond_atom_site_label_1
_geom_bond_atom_site_label_2
_geom_bond_distance
_geom_bond_site_symmetry_2
Fe0 O4 2.168586 1_555
Fe0 O5 2.168586 1_444
Fe0 O3 2.168597 1_454
Fe0 O1 2.168597 1_545
Fe0 O7 2.168597 1_544
Fe0 O2 2.168597 1_455
Fe0 O6 2.168597 1_445
Fe0 O0 2.168597 1_554
Cu0 O0 1.891216 1_555
Cu0 O6 1.891216 1_445
Cu0 O5 1.891225 1_445
Cu0 O4 1.891225 1_555
Cu1 O2 1.891216 1_555
Cu1 O7 1.891216 1_544
Cu1 O5 1.891225 1_544
Cu1 O4 1.891225 1_555
Cu2 O1 1.891216 1_555
Cu2 O3 1.891216 1_454
Cu2 O5 1.891225 1_454
Cu2 O4 1.891225 1_555
Cu3 O7 1.891226 1_554
Cu3 O2 1.891226 1_555
Cu3 O1 1.891226 1_555
Cu3 O3 1.891226 1_554
Cu4 O6 1.891226 1_455
Cu4 O0 1.891226 1_555
Cu4 O3 1.891226 1_455
Cu4 O1 1.891226 1_555
Cu5 O6 1.891226 1_545
Cu5 O0 1.891226 1_555
Cu5 O7 1.891226 1_545
Cu5 O2 1.891226 1_555
Br0 Cu0 3.188086 1_565
Br0 Cu0 3.188086 1_655
Br0 Cu5 3.188086 1_555
Br0 Cu5 3.188086 1_565
Br0 Cu4 3.188086 1_655
Br0 Cu4 3.188086 1_555
Br0 Cu1 3.188086 1_556
Br0 Cu1 3.188086 1_565
Br0 Cu3 3.188086 1_556
Br0 Cu3 3.188086 1_555
Br0 Cu2 3.188086 1_556
Br0 Cu2 3.188086 1_655
