# generated using pymatgen
data_CsBaSbSe3
_symmetry_space_group_name_H-M   'P 1'
_cell_length_a   9.39937859
_cell_length_b   10.13067416
_cell_length_c   9.64485856
_cell_angle_alpha   72.83010380
_cell_angle_beta   90.00000000
_cell_angle_gamma   90.00000000
_symmetry_Int_Tables_number   1
_chemical_formula_structural   CsBaSbSe3
_chemical_formula_sum   'Cs4 Ba4 Sb4 Se12'
_cell_volume   877.47320281
_cell_formula_units_Z   4
loop_
 _symmetry_equiv_pos_site_id
 _symmetry_equiv_pos_as_xyz
  1  'x, y, z'
loop_
 _atom_site_type_symbol
 _atom_site_label
 _atom_site_symmetry_multiplicity
 _atom_site_fract_x
 _atom_site_fract_y
 _atom_site_fract_z
 _atom_site_occupancy
  Cs  Cs0  1  0.07782127  0.59037628  0.28672707  1
  Cs  Cs1  1  0.57782127  0.40962372  0.21327293  1
  Cs  Cs2  1  0.92217873  0.40962372  0.71327293  1
  Cs  Cs3  1  0.42217873  0.59037628  0.78672707  1
  Ba  Ba0  1  0.71507696  0.92274734  0.03304321  1
  Ba  Ba1  1  0.21507696  0.07725266  0.46695679  1
  Ba  Ba2  1  0.28492304  0.07725266  0.96695679  1
  Ba  Ba3  1  0.78492304  0.92274734  0.53304321  1
  Sb  Sb0  1  0.45161085  0.76249873  0.35711060  1
  Sb  Sb1  1  0.95161085  0.23750127  0.14288940  1
  Sb  Sb2  1  0.54838915  0.23750127  0.64288940  1
  Sb  Sb3  1  0.04838915  0.76249873  0.85711060  1
  Se  Se0  1  0.20402660  0.33558001  0.10025123  1
  Se  Se1  1  0.70402660  0.66441999  0.39974877  1
  Se  Se2  1  0.79597340  0.66441999  0.89974877  1
  Se  Se3  1  0.29597340  0.33558001  0.60025123  1
  Se  Se4  1  0.01070177  0.97531143  0.22000408  1
  Se  Se5  1  0.51070177  0.02468857  0.27999592  1
  Se  Se6  1  0.98929823  0.02468857  0.77999592  1
  Se  Se7  1  0.48929823  0.97531143  0.72000408  1
  Se  Se8  1  0.40274655  0.74903282  0.10124969  1
  Se  Se9  1  0.90274655  0.25096718  0.39875031  1
  Se  Se10  1  0.59725345  0.25096718  0.89875031  1
  Se  Se11  1  0.09725345  0.74903282  0.60124969  1
loop_
_geom_bond_atom_site_label_1
_geom_bond_atom_site_label_2
_geom_bond_distance
_geom_bond_site_symmetry_2
Cs0 Se8 3.662440 1_555
Cs0 Se9 3.674891 1_455
Cs0 Se0 3.747770 1_555
Cs0 Se4 3.812842 1_555
Cs0 Se1 3.818109 1_455
Cs0 Se11 3.833767 1_555
Cs0 Se3 3.924657 1_555
Cs0 Sb3 4.002567 1_554
Cs0 Sb0 4.067450 1_555
Cs1 Se9 3.662440 1_555
Cs1 Se8 3.674891 1_555
Cs1 Se1 3.747770 1_555
Cs1 Se5 3.812842 1_555
Cs1 Se0 3.818109 1_555
Cs1 Se10 3.833767 1_554
Cs1 Se2 3.924657 1_554
Cs1 Sb2 4.002567 1_555
Cs1 Sb1 4.067450 1_555
Cs2 Se10 3.662440 1_555
Cs2 Se11 3.674891 1_655
Cs2 Se2 3.747770 1_555
Cs2 Se6 3.812842 1_555
Cs2 Se3 3.818109 1_655
Cs2 Se9 3.833767 1_555
Cs2 Se1 3.924657 1_555
Cs2 Sb1 4.002567 1_556
Cs2 Sb2 4.067450 1_555
Cs3 Se11 3.662440 1_555
Cs3 Se10 3.674891 1_555
Cs3 Se3 3.747770 1_555
Cs3 Se7 3.812842 1_555
Cs3 Se2 3.818109 1_555
Cs3 Se8 3.833767 1_556
Cs3 Se0 3.924657 1_556
Cs3 Sb0 4.002567 1_555
Cs3 Sb3 4.067450 1_555
Ba0 Se2 3.326594 1_554
Ba0 Se10 3.378988 1_564
Ba0 Se8 3.385956 1_555
Ba0 Se4 3.438486 1_655
Ba0 Se5 3.447050 1_565
Ba0 Se6 3.489773 1_564
Ba0 Se7 3.599118 1_554
Ba0 Se1 3.728795 1_555
Ba1 Se3 3.326594 1_555
Ba1 Se11 3.378988 1_545
Ba1 Se9 3.385956 1_455
Ba1 Se5 3.438486 1_555
Ba1 Se4 3.447050 1_545
Ba1 Se7 3.489773 1_545
Ba1 Se6 3.599118 1_455
Ba1 Se0 3.728795 1_555
Ba2 Se0 3.326594 1_556
Ba2 Se8 3.378988 1_546
Ba2 Se10 3.385956 1_555
Ba2 Se6 3.438486 1_455
Ba2 Se7 3.447050 1_545
Ba2 Se4 3.489773 1_546
Ba2 Se5 3.599118 1_556
Ba2 Se3 3.728795 1_555
Ba3 Se1 3.326594 1_555
Ba3 Se9 3.378988 1_565
Ba3 Se11 3.385956 1_655
Ba3 Se7 3.438486 1_555
Ba3 Se6 3.447050 1_565
Ba3 Se5 3.489773 1_565
Ba3 Se4 3.599118 1_655
Ba3 Se2 3.728795 1_555
Sb0 Se8 2.553052 1_555
Sb0 Se1 2.558147 1_555
Sb0 Se5 2.598166 1_565
Sb1 Se9 2.553052 1_555
Sb1 Se0 2.558147 1_655
Sb1 Se4 2.598166 1_645
Sb2 Se10 2.553052 1_555
Sb2 Se3 2.558147 1_555
Sb2 Se7 2.598166 1_545
Sb3 Se11 2.553052 1_555
Sb3 Se2 2.558147 1_455
Sb3 Se6 2.598166 1_465
