# generated using pymatgen
data_Cs4SbIrCl12
_symmetry_space_group_name_H-M   'P 1'
_cell_length_a   7.29090474
_cell_length_b   7.29090474
_cell_length_c   10.55359183
_cell_angle_alpha   90.00000000
_cell_angle_beta   90.00000000
_cell_angle_gamma   90.00005767
_symmetry_Int_Tables_number   1
_chemical_formula_structural   Cs4SbIrCl12
_chemical_formula_sum   'Cs4 Sb1 Ir1 Cl12'
_cell_volume   561.00036136
_cell_formula_units_Z   1
loop_
 _symmetry_equiv_pos_site_id
 _symmetry_equiv_pos_as_xyz
  1  'x, y, z'
loop_
 _atom_site_type_symbol
 _atom_site_label
 _atom_site_symmetry_multiplicity
 _atom_site_fract_x
 _atom_site_fract_y
 _atom_site_fract_z
 _atom_site_occupancy
  Cs  Cs0  1  0.50000000  0.00000000  0.76903251  1
  Cs  Cs1  1  0.00000000  0.50000000  0.23096749  1
  Cs  Cs2  1  0.50000000  0.00000000  0.23096749  1
  Cs  Cs3  1  0.00000000  0.50000000  0.76903251  1
  Sb  Sb0  1  0.50000000  0.50000000  0.50000000  1
  Ir  Ir0  1  0.00000000  0.00000000  0.00000000  1
  Cl  Cl0  1  0.00000000  0.00000000  0.77531860  1
  Cl  Cl1  1  0.50000000  0.50000000  0.26841909  1
  Cl  Cl2  1  0.73625222  0.73625222  0.50000000  1
  Cl  Cl3  1  0.22884569  0.22884569  0.00000000  1
  Cl  Cl4  1  0.73625222  0.26374778  0.50000000  1
  Cl  Cl5  1  0.22884569  0.77115431  0.00000000  1
  Cl  Cl6  1  0.00000000  0.00000000  0.22468140  1
  Cl  Cl7  1  0.50000000  0.50000000  0.73158091  1
  Cl  Cl8  1  0.26374778  0.26374778  0.50000000  1
  Cl  Cl9  1  0.77115431  0.77115431  0.00000000  1
  Cl  Cl10  1  0.26374778  0.73625222  0.50000000  1
  Cl  Cl11  1  0.77115431  0.22884569  0.00000000  1
loop_
_geom_bond_atom_site_label_1
_geom_bond_atom_site_label_2
_geom_bond_distance
_geom_bond_site_symmetry_2
Cl0 Ir0 2.371196 1_556
Cl0 Cs3 3.646056 1_545
Cl0 Cs3 3.646056 1_555
Cl0 Cs0 3.646056 1_555
Cl0 Cs0 3.646056 1_455
Cl1 Sb0 2.444010 1_555
Cl1 Cs2 3.666817 1_565
Cl1 Cs1 3.666817 1_655
Cl1 Cs2 3.666817 1_555
Cl1 Cs1 3.666817 1_555
Cl2 Sb0 2.435971 1_555
Cl2 Cs3 3.837467 1_655
Cl2 Cs0 3.837467 1_565
Cl2 Cs2 3.837467 1_565
Cl2 Cs1 3.837467 1_655
Cl3 Ir0 2.359603 1_555
Cl3 Cs1 3.554410 1_555
Cl3 Cs2 3.554410 1_555
Cl3 Cs3 3.554410 1_554
Cl3 Cs0 3.554410 1_554
Cl4 Sb0 2.435973 1_555
Cl4 Cs0 3.837466 1_555
Cl4 Cs3 3.837466 1_655
Cl4 Cs2 3.837466 1_555
Cl4 Cs1 3.837466 1_655
Cl5 Ir0 2.359605 1_565
Cl5 Cs2 3.554408 1_565
Cl5 Cs0 3.554408 1_564
Cl5 Cs1 3.554408 1_555
Cl5 Cs3 3.554408 1_554
Cl6 Ir0 2.371196 1_555
Cl6 Cs2 3.646056 1_555
Cl6 Cs1 3.646056 1_555
Cl6 Cs1 3.646056 1_545
Cl6 Cs2 3.646056 1_455
Cl7 Sb0 2.444010 1_555
Cl7 Cs3 3.666817 1_655
Cl7 Cs0 3.666817 1_565
Cl7 Cs3 3.666817 1_555
Cl7 Cs0 3.666817 1_555
Cl8 Sb0 2.435971 1_555
Cl8 Cs3 3.837467 1_555
Cl8 Cs0 3.837467 1_555
Cl8 Cs2 3.837467 1_555
Cl8 Cs1 3.837467 1_555
Cl9 Ir0 2.359603 1_665
Cl9 Cs1 3.554410 1_655
Cl9 Cs2 3.554410 1_565
Cl9 Cs0 3.554410 1_564
Cl9 Cs3 3.554410 1_654
Cl10 Sb0 2.435973 1_555
Cl10 Cs3 3.837466 1_555
Cl10 Cs0 3.837466 1_565
Cl10 Cs1 3.837466 1_555
Cl10 Cs2 3.837466 1_565
Cl11 Ir0 2.359605 1_655
Cl11 Cs1 3.554408 1_655
Cl11 Cs3 3.554408 1_654
Cl11 Cs2 3.554408 1_555
Cl11 Cs0 3.554408 1_554
