# generated using pymatgen
data_KYb2F7
_symmetry_space_group_name_H-M   'P 1'
_cell_length_a   4.21760176
_cell_length_b   6.44548455
_cell_length_c   6.44122576
_cell_angle_alpha   63.89082355
_cell_angle_beta   90.00000000
_cell_angle_gamma   90.00000000
_symmetry_Int_Tables_number   1
_chemical_formula_structural   KYb2F7
_chemical_formula_sum   'K1 Yb2 F7'
_cell_volume   157.23356198
_cell_formula_units_Z   1
loop_
 _symmetry_equiv_pos_site_id
 _symmetry_equiv_pos_as_xyz
  1  'x, y, z'
loop_
 _atom_site_type_symbol
 _atom_site_label
 _atom_site_symmetry_multiplicity
 _atom_site_fract_x
 _atom_site_fract_y
 _atom_site_fract_z
 _atom_site_occupancy
  K  K0  1  0.49060220  0.00000000  0.50000000  1
  Yb  Yb0  1  0.98886956  0.69430481  0.19409592  1
  Yb  Yb1  1  0.98886956  0.30569519  0.80590408  1
  F  F0  1  0.98772708  0.04611891  0.16749401  1
  F  F1  1  0.98737824  0.66731363  0.54639238  1
  F  F2  1  0.48877940  0.28978481  0.79022801  1
  F  F3  1  0.98772708  0.95388109  0.83250599  1
  F  F4  1  0.98737824  0.33268637  0.45360762  1
  F  F5  1  0.99668924  0.50000000  0.00000000  1
  F  F6  1  0.48877940  0.71021519  0.20977199  1
loop_
_geom_bond_atom_site_label_1
_geom_bond_atom_site_label_2
_geom_bond_distance
_geom_bond_site_symmetry_2
F0 Yb1 2.189540 1_554
F0 Yb0 2.197603 1_545
F0 K0 2.917383 1_555
F0 K0 2.934861 1_655
F1 Yb1 2.190349 1_555
F1 Yb0 2.198226 1_555
F1 K0 2.917758 1_565
F1 K0 2.937348 1_665
F2 Yb1 2.115482 1_455
F2 Yb1 2.116240 1_555
F2 K0 3.171244 1_555
F3 Yb0 2.189540 1_556
F3 Yb1 2.197603 1_565
F3 K0 2.917383 1_565
F3 K0 2.934861 1_665
F4 Yb0 2.190349 1_555
F4 Yb1 2.198226 1_555
F4 K0 2.917758 1_555
F4 K0 2.937348 1_655
F5 Yb0 2.123848 1_555
F5 Yb1 2.123848 1_554
F6 Yb0 2.115482 1_455
F6 Yb0 2.116240 1_555
F6 K0 3.171244 1_565
