# generated using pymatgen
data_Rb4NbRhCl12
_symmetry_space_group_name_H-M   'P 1'
_cell_length_a   7.05989650
_cell_length_b   7.05989650
_cell_length_c   10.14483890
_cell_angle_alpha   90.00000000
_cell_angle_beta   90.00000000
_cell_angle_gamma   90.00000000
_symmetry_Int_Tables_number   1
_chemical_formula_structural   Rb4NbRhCl12
_chemical_formula_sum   'Rb4 Nb1 Rh1 Cl12'
_cell_volume   505.64046677
_cell_formula_units_Z   1
loop_
 _symmetry_equiv_pos_site_id
 _symmetry_equiv_pos_as_xyz
  1  'x, y, z'
loop_
 _atom_site_type_symbol
 _atom_site_label
 _atom_site_symmetry_multiplicity
 _atom_site_fract_x
 _atom_site_fract_y
 _atom_site_fract_z
 _atom_site_occupancy
  Rb  Rb0  1  0.50000000  0.00000000  0.78111246  1
  Rb  Rb1  1  0.00000000  0.50000000  0.21888754  1
  Rb  Rb2  1  0.50000000  0.00000000  0.21888754  1
  Rb  Rb3  1  0.00000000  0.50000000  0.78111246  1
  Nb  Nb0  1  0.50000000  0.50000000  0.50000000  1
  Rh  Rh0  1  0.00000000  0.00000000  0.00000000  1
  Cl  Cl0  1  0.00000000  0.00000000  0.76708628  1
  Cl  Cl1  1  0.50000000  0.50000000  0.26445131  1
  Cl  Cl2  1  0.73817809  0.73817809  0.50000000  1
  Cl  Cl3  1  0.23619993  0.23619993  0.00000000  1
  Cl  Cl4  1  0.73817809  0.26182191  0.50000000  1
  Cl  Cl5  1  0.23619993  0.76380007  0.00000000  1
  Cl  Cl6  1  0.00000000  0.00000000  0.23291372  1
  Cl  Cl7  1  0.50000000  0.50000000  0.73554869  1
  Cl  Cl8  1  0.26182191  0.26182191  0.50000000  1
  Cl  Cl9  1  0.76380007  0.76380007  0.00000000  1
  Cl  Cl10  1  0.26182191  0.73817809  0.50000000  1
  Cl  Cl11  1  0.76380007  0.23619993  0.00000000  1
loop_
_geom_bond_atom_site_label_1
_geom_bond_atom_site_label_2
_geom_bond_distance
_geom_bond_site_symmetry_2
Cl0 Rh0 2.362872 1_556
Cl0 Rb3 3.532815 1_545
Cl0 Rb3 3.532815 1_555
Cl0 Rb0 3.532815 1_455
Cl0 Rb0 3.532815 1_555
Cl1 Nb0 2.389603 1_555
Cl1 Rb1 3.560084 1_655
Cl1 Rb2 3.560084 1_565
Cl1 Rb1 3.560084 1_555
Cl1 Rb2 3.560084 1_555
Cl2 Nb0 2.378018 1_555
Cl2 Rb0 3.791727 1_565
Cl2 Rb3 3.791727 1_655
Cl2 Rb2 3.791727 1_565
Cl2 Rb1 3.791727 1_655
Cl3 Rh0 2.358268 1_555
Cl3 Rb2 3.343684 1_555
Cl3 Rb1 3.343684 1_555
Cl3 Rb0 3.343684 1_554
Cl3 Rb3 3.343684 1_554
Cl4 Nb0 2.378018 1_555
Cl4 Rb0 3.791727 1_555
Cl4 Rb3 3.791727 1_655
Cl4 Rb2 3.791727 1_555
Cl4 Rb1 3.791727 1_655
Cl5 Rh0 2.358268 1_565
Cl5 Rb1 3.343684 1_555
Cl5 Rb3 3.343684 1_554
Cl5 Rb2 3.343684 1_565
Cl5 Rb0 3.343684 1_564
Cl6 Rh0 2.362872 1_555
Cl6 Rb2 3.532815 1_555
Cl6 Rb2 3.532815 1_455
Cl6 Rb1 3.532815 1_545
Cl6 Rb1 3.532815 1_555
Cl7 Nb0 2.389603 1_555
Cl7 Rb0 3.560084 1_565
Cl7 Rb3 3.560084 1_555
Cl7 Rb3 3.560084 1_655
Cl7 Rb0 3.560084 1_555
Cl8 Nb0 2.378018 1_555
Cl8 Rb3 3.791727 1_555
Cl8 Rb0 3.791727 1_555
Cl8 Rb2 3.791727 1_555
Cl8 Rb1 3.791727 1_555
Cl9 Rh0 2.358268 1_665
Cl9 Rb1 3.343684 1_655
Cl9 Rb2 3.343684 1_565
Cl9 Rb0 3.343684 1_564
Cl9 Rb3 3.343684 1_654
Cl10 Nb0 2.378018 1_555
Cl10 Rb3 3.791727 1_555
Cl10 Rb0 3.791727 1_565
Cl10 Rb1 3.791727 1_555
Cl10 Rb2 3.791727 1_565
Cl11 Rh0 2.358268 1_655
Cl11 Rb2 3.343684 1_555
Cl11 Rb0 3.343684 1_554
Cl11 Rb1 3.343684 1_655
Cl11 Rb3 3.343684 1_654
