# generated using pymatgen
data_SrHf(GaAu)2
_symmetry_space_group_name_H-M   'P 1'
_cell_length_a   4.45488126
_cell_length_b   4.45488213
_cell_length_c   7.45345691
_cell_angle_alpha   90.00000000
_cell_angle_beta   90.00000000
_cell_angle_gamma   120.00001491
_symmetry_Int_Tables_number   1
_chemical_formula_structural   SrHf(GaAu)2
_chemical_formula_sum   'Sr1 Hf1 Ga2 Au2'
_cell_volume   128.10340154
_cell_formula_units_Z   1
loop_
 _symmetry_equiv_pos_site_id
 _symmetry_equiv_pos_as_xyz
  1  'x, y, z'
loop_
 _atom_site_type_symbol
 _atom_site_label
 _atom_site_symmetry_multiplicity
 _atom_site_fract_x
 _atom_site_fract_y
 _atom_site_fract_z
 _atom_site_occupancy
  Sr  Sr0  1  0.00000000  0.00000000  0.50000000  1
  Hf  Hf0  1  0.00000000  0.00000000  0.00000000  1
  Ga  Ga0  1  0.66666700  0.33333300  0.18640308  1
  Ga  Ga1  1  0.66666700  0.33333300  0.81359692  1
  Au  Au0  1  0.33333300  0.66666700  0.79777961  1
  Au  Au1  1  0.33333300  0.66666700  0.20222039  1
loop_
_geom_bond_atom_site_label_1
_geom_bond_atom_site_label_2
_geom_bond_distance
_geom_bond_site_symmetry_2
Ga0 Ga1 2.778695 1_554
Ga0 Hf0 2.923285 1_655
Ga0 Hf0 2.923288 1_555
Ga0 Hf0 2.923288 1_665
Ga0 Sr0 3.475437 1_655
Ga0 Sr0 3.475439 1_555
Ga0 Sr0 3.475440 1_665
Ga1 Hf0 2.923285 1_656
Ga1 Hf0 2.923288 1_556
Ga1 Hf0 2.923288 1_666
Ga1 Sr0 3.475437 1_655
Ga1 Sr0 3.475439 1_555
Ga1 Sr0 3.475440 1_665
Au0 Ga1 2.574724 1_455
Au0 Ga1 2.574725 1_565
Au0 Ga1 2.574733 1_555
Au0 Hf0 2.981122 1_566
Au0 Hf0 2.981124 1_666
Au0 Hf0 2.981125 1_556
Au0 Sr0 3.397269 1_565
Au0 Sr0 3.397271 1_665
Au0 Sr0 3.397272 1_555
Au1 Ga0 2.574724 1_455
Au1 Ga0 2.574725 1_565
Au1 Ga0 2.574733 1_555
Au1 Hf0 2.981122 1_565
Au1 Hf0 2.981124 1_665
Au1 Hf0 2.981125 1_555
Au1 Sr0 3.397269 1_565
Au1 Sr0 3.397271 1_665
Au1 Sr0 3.397272 1_555
