# generated using pymatgen
data_CsY3Te5
_symmetry_space_group_name_H-M   'P 1'
_cell_length_a   4.42440265
_cell_length_b   13.22842288
_cell_length_c   23.84857990
_cell_angle_alpha   90.00000000
_cell_angle_beta   90.00000000
_cell_angle_gamma   90.00000000
_symmetry_Int_Tables_number   1
_chemical_formula_structural   CsY3Te5
_chemical_formula_sum   'Cs4 Y12 Te20'
_cell_volume   1395.80656519
_cell_formula_units_Z   4
loop_
 _symmetry_equiv_pos_site_id
 _symmetry_equiv_pos_as_xyz
  1  'x, y, z'
loop_
 _atom_site_type_symbol
 _atom_site_label
 _atom_site_symmetry_multiplicity
 _atom_site_fract_x
 _atom_site_fract_y
 _atom_site_fract_z
 _atom_site_occupancy
  Cs  Cs0  1  0.25000000  0.35395551  0.08932958  1
  Cs  Cs1  1  0.75000000  0.64604449  0.91067042  1
  Cs  Cs2  1  0.75000000  0.85395551  0.41067042  1
  Cs  Cs3  1  0.25000000  0.14604449  0.58932958  1
  Y  Y0  1  0.25000000  0.45384351  0.69770748  1
  Y  Y1  1  0.75000000  0.54615649  0.30229252  1
  Y  Y2  1  0.75000000  0.95384351  0.80229252  1
  Y  Y3  1  0.25000000  0.04615649  0.19770748  1
  Y  Y4  1  0.25000000  0.79685811  0.67485900  1
  Y  Y5  1  0.75000000  0.20314189  0.32514100  1
  Y  Y6  1  0.75000000  0.29685811  0.82514100  1
  Y  Y7  1  0.25000000  0.70314189  0.17485900  1
  Y  Y8  1  0.25000000  0.39219921  0.44436643  1
  Y  Y9  1  0.75000000  0.60780079  0.55563357  1
  Y  Y10  1  0.75000000  0.89219921  0.05563357  1
  Y  Y11  1  0.25000000  0.10780079  0.94436643  1
  Te  Te0  1  0.25000000  0.44396782  0.56886036  1
  Te  Te1  1  0.75000000  0.55603218  0.43113964  1
  Te  Te2  1  0.75000000  0.94396782  0.93113964  1
  Te  Te3  1  0.25000000  0.05603218  0.06886036  1
  Te  Te4  1  0.25000000  0.76899974  0.54687499  1
  Te  Te5  1  0.75000000  0.23100026  0.45312501  1
  Te  Te6  1  0.75000000  0.26899974  0.95312501  1
  Te  Te7  1  0.25000000  0.73100026  0.04687499  1
  Te  Te8  1  0.25000000  0.79806231  0.80310234  1
  Te  Te9  1  0.75000000  0.20193769  0.19689766  1
  Te  Te10  1  0.75000000  0.29806231  0.69689766  1
  Te  Te11  1  0.25000000  0.70193769  0.30310234  1
  Te  Te12  1  0.25000000  0.45432316  0.82586211  1
  Te  Te13  1  0.75000000  0.54567684  0.17413789  1
  Te  Te14  1  0.75000000  0.95432316  0.67413789  1
  Te  Te15  1  0.25000000  0.04567684  0.32586211  1
  Te  Te16  1  0.25000000  0.37518949  0.31367611  1
  Te  Te17  1  0.75000000  0.62481051  0.68632389  1
  Te  Te18  1  0.75000000  0.87518949  0.18632389  1
  Te  Te19  1  0.25000000  0.12481051  0.81367611  1
loop_
_geom_bond_atom_site_label_1
_geom_bond_atom_site_label_2
_geom_bond_distance
_geom_bond_site_symmetry_2
Cs0 Te13 3.926415 1_555
Cs0 Te13 3.926415 1_455
Cs0 Te9 3.939388 1_555
Cs0 Te9 3.939388 1_455
Cs0 Te3 3.971174 1_555
Cs0 Te6 4.087565 1_554
Cs0 Te6 4.087565 1_454
Cs1 Te12 3.926415 1_655
Cs1 Te12 3.926415 1_555
Cs1 Te8 3.939388 1_555
Cs1 Te8 3.939388 1_655
Cs1 Te2 3.971174 1_555
Cs1 Te7 4.087565 1_556
Cs1 Te7 4.087565 1_656
Cs2 Te15 3.926415 1_565
Cs2 Te15 3.926415 1_665
Cs2 Te11 3.939388 1_655
Cs2 Te11 3.939388 1_555
Cs2 Te1 3.971174 1_555
Cs2 Te4 4.087565 1_555
Cs2 Te4 4.087565 1_655
Cs3 Te14 3.926415 1_545
Cs3 Te14 3.926415 1_445
Cs3 Te10 3.939388 1_555
Cs3 Te10 3.939388 1_455
Cs3 Te0 3.971174 1_555
Cs3 Te5 4.087565 1_555
Cs3 Te5 4.087565 1_455
Te0 Y8 3.046958 1_555
Te0 Y0 3.075597 1_555
Te0 Y9 3.112927 1_555
Te0 Y9 3.112927 1_455
Te1 Y9 3.046958 1_555
Te1 Y1 3.075597 1_555
Te1 Y8 3.112927 1_655
Te1 Y8 3.112927 1_555
Te2 Y10 3.046958 1_556
Te2 Y2 3.075597 1_555
Te2 Y11 3.112927 1_665
Te2 Y11 3.112927 1_565
Te3 Y11 3.046958 1_554
Te3 Y3 3.075597 1_555
Te3 Y10 3.112927 1_445
Te3 Y10 3.112927 1_545
Te4 Y4 3.074404 1_555
Te4 Y9 3.079712 1_455
Te4 Y9 3.079712 1_555
Te5 Y5 3.074404 1_555
Te5 Y8 3.079712 1_655
Te5 Y8 3.079712 1_555
Te6 Y6 3.074404 1_555
Te6 Y11 3.079712 1_555
Te6 Y11 3.079712 1_655
Te7 Y7 3.074404 1_555
Te7 Y10 3.079712 1_555
Te7 Y10 3.079712 1_455
Te8 Y2 3.023385 1_455
Te8 Y2 3.023385 1_555
Te8 Y4 3.058463 1_555
Te9 Y3 3.023385 1_555
Te9 Y3 3.023385 1_655
Te9 Y5 3.058463 1_555
Te10 Y0 3.023385 1_555
Te10 Y0 3.023385 1_655
Te10 Y6 3.058463 1_555
Te11 Y1 3.023385 1_455
Te11 Y1 3.023385 1_555
Te11 Y7 3.058463 1_555
Te12 Y6 3.038598 1_455
Te12 Y6 3.038598 1_555
Te12 Y0 3.056313 1_555
Te13 Y7 3.038598 1_555
Te13 Y7 3.038598 1_655
Te13 Y1 3.056313 1_555
Te14 Y4 3.038598 1_555
Te14 Y4 3.038598 1_655
Te14 Y2 3.056313 1_555
Te15 Y5 3.038598 1_555
Te15 Y5 3.038598 1_455
Te15 Y3 3.056313 1_555
Te16 Y8 3.124890 1_555
Te16 Y1 3.175292 1_455
Te16 Y1 3.175292 1_555
Te16 Y5 3.185655 1_555
Te16 Y5 3.185655 1_455
Te17 Y9 3.124890 1_555
Te17 Y0 3.175292 1_555
Te17 Y0 3.175292 1_655
Te17 Y4 3.185655 1_555
Te17 Y4 3.185655 1_655
Te18 Y10 3.124890 1_555
Te18 Y3 3.175292 1_665
Te18 Y3 3.175292 1_565
Te18 Y7 3.185655 1_555
Te18 Y7 3.185655 1_655
Te19 Y11 3.124890 1_555
Te19 Y2 3.175292 1_445
Te19 Y2 3.175292 1_545
Te19 Y6 3.185655 1_555
Te19 Y6 3.185655 1_455
