# generated using pymatgen
data_Hf3Al2CuC
_symmetry_space_group_name_H-M   'P 1'
_cell_length_a   8.51049738
_cell_length_b   8.51047360
_cell_length_c   8.51048131
_cell_angle_alpha   60.00008917
_cell_angle_beta   60.00004158
_cell_angle_gamma   60.00000972
_symmetry_Int_Tables_number   1
_chemical_formula_structural   Hf3Al2CuC
_chemical_formula_sum   'Hf12 Al8 Cu4 C4'
_cell_volume   435.86124611
_cell_formula_units_Z   4
loop_
 _symmetry_equiv_pos_site_id
 _symmetry_equiv_pos_as_xyz
  1  'x, y, z'
loop_
 _atom_site_type_symbol
 _atom_site_label
 _atom_site_symmetry_multiplicity
 _atom_site_fract_x
 _atom_site_fract_y
 _atom_site_fract_z
 _atom_site_occupancy
  Hf  Hf0  1  0.43778995  0.43778995  0.06221005  1
  Hf  Hf1  1  0.06221005  0.43778995  0.06221005  1
  Hf  Hf2  1  0.43778995  0.06221005  0.06221005  1
  Hf  Hf3  1  0.06221005  0.06221005  0.43778995  1
  Hf  Hf4  1  0.43778995  0.06221005  0.43778995  1
  Hf  Hf5  1  0.06221005  0.43778995  0.43778995  1
  Hf  Hf6  1  0.81221005  0.81221005  0.18778995  1
  Hf  Hf7  1  0.18778995  0.81221005  0.18778995  1
  Hf  Hf8  1  0.81221005  0.18778995  0.18778995  1
  Hf  Hf9  1  0.18778995  0.18778995  0.81221005  1
  Hf  Hf10  1  0.81221005  0.18778995  0.81221005  1
  Hf  Hf11  1  0.18778995  0.81221005  0.81221005  1
  Al  Al0  1  0.83083270  0.83083270  0.50750190  1
  Al  Al1  1  0.83083270  0.50750190  0.83083270  1
  Al  Al2  1  0.50750190  0.83083270  0.83083270  1
  Al  Al3  1  0.83083270  0.83083270  0.83083270  1
  Al  Al4  1  0.41916730  0.41916730  0.74249810  1
  Al  Al5  1  0.41916730  0.74249810  0.41916730  1
  Al  Al6  1  0.74249810  0.41916730  0.41916730  1
  Al  Al7  1  0.41916730  0.41916730  0.41916730  1
  Cu  Cu0  1  0.62500000  0.62500000  0.12500000  1
  Cu  Cu1  1  0.62500000  0.12500000  0.62500000  1
  Cu  Cu2  1  0.12500000  0.62500000  0.62500000  1
  Cu  Cu3  1  0.62500000  0.62500000  0.62500000  1
  C  C0  1  0.12500000  0.12500000  0.62500000  1
  C  C1  1  0.12500000  0.62500000  0.12500000  1
  C  C2  1  0.62500000  0.12500000  0.12500000  1
  C  C3  1  0.12500000  0.12500000  0.12500000  1
loop_
_geom_bond_atom_site_label_1
_geom_bond_atom_site_label_2
_geom_bond_distance
_geom_bond_site_symmetry_2
Al0 Cu1 2.588880 1_565
Al0 Cu3 2.588885 1_555
Al0 Cu2 2.588887 1_655
Al0 Al3 2.751701 1_555
Al0 Al1 2.751703 1_555
Al0 Al2 2.751705 1_555
Al0 Hf6 2.888100 1_555
Al0 Hf8 2.888103 1_565
Al0 Hf7 2.888105 1_655
Al0 Hf5 3.106109 1_655
Al0 Hf3 3.106114 1_665
Al0 Hf4 3.106118 1_565
Al1 Cu0 2.588882 1_556
Al1 Cu3 2.588886 1_555
Al1 Cu2 2.588888 1_655
Al1 Al3 2.751698 1_555
Al1 Al2 2.751702 1_555
Al1 Hf10 2.888098 1_555
Al1 Hf9 2.888103 1_655
Al1 Hf8 2.888103 1_556
Al1 Hf5 3.106112 1_655
Al1 Hf1 3.106115 1_656
Al1 Hf0 3.106119 1_556
Al2 Cu3 2.588879 1_555
Al2 Cu1 2.588884 1_565
Al2 Cu0 2.588885 1_556
Al2 Al3 2.751706 1_555
Al2 Hf9 2.888102 1_565
Al2 Hf7 2.888105 1_556
Al2 Hf11 2.888106 1_555
Al2 Hf2 3.106108 1_566
Al2 Hf0 3.106113 1_556
Al2 Hf4 3.106115 1_565
Al3 Cu2 2.588883 1_655
Al3 Cu1 2.588885 1_565
Al3 Cu0 2.588886 1_556
Al3 Hf10 2.888098 1_565
Al3 Hf6 2.888101 1_556
Al3 Hf11 2.888107 1_655
Al3 Hf2 3.106114 1_566
Al3 Hf1 3.106114 1_656
Al3 Hf3 3.106117 1_665
Al4 Cu1 2.588880 1_555
Al4 Cu3 2.588885 1_555
Al4 Cu2 2.588887 1_555
Al4 Al7 2.751701 1_555
Al4 Al5 2.751703 1_555
Al4 Al6 2.751705 1_555
Al4 Hf0 2.888100 1_556
Al4 Hf2 2.888103 1_556
Al4 Hf1 2.888105 1_556
Al4 Hf11 3.106109 1_555
Al4 Hf9 3.106114 1_555
Al4 Hf10 3.106118 1_555
Al5 Cu0 2.588882 1_555
Al5 Cu3 2.588886 1_555
Al5 Cu2 2.588888 1_555
Al5 Al7 2.751698 1_555
Al5 Al6 2.751702 1_555
Al5 Hf4 2.888098 1_565
Al5 Hf3 2.888103 1_565
Al5 Hf2 2.888103 1_565
Al5 Hf11 3.106112 1_555
Al5 Hf7 3.106115 1_555
Al5 Hf6 3.106119 1_555
Al6 Cu3 2.588879 1_555
Al6 Cu1 2.588884 1_555
Al6 Cu0 2.588885 1_555
Al6 Al7 2.751706 1_555
Al6 Hf3 2.888102 1_655
Al6 Hf1 2.888105 1_655
Al6 Hf5 2.888106 1_655
Al6 Hf8 3.106108 1_555
Al6 Hf6 3.106113 1_555
Al6 Hf10 3.106115 1_555
Al7 Cu2 2.588883 1_555
Al7 Cu1 2.588885 1_555
Al7 Cu0 2.588886 1_555
Al7 Hf4 2.888098 1_555
Al7 Hf0 2.888101 1_555
Al7 Hf5 2.888107 1_555
Al7 Hf8 3.106114 1_555
Al7 Hf7 3.106114 1_555
Al7 Hf9 3.106117 1_555
Cu0 Hf2 3.098973 1_565
Cu0 Hf8 3.098973 1_555
Cu0 Hf6 3.098975 1_555
Cu0 Hf0 3.098975 1_555
Cu0 Hf1 3.098981 1_655
Cu0 Hf7 3.098981 1_555
Cu1 Hf10 3.098976 1_555
Cu1 Hf4 3.098976 1_555
Cu1 Hf2 3.098977 1_556
Cu1 Hf8 3.098977 1_555
Cu1 Hf3 3.098982 1_655
Cu1 Hf9 3.098982 1_555
Cu2 Hf11 3.098973 1_555
Cu2 Hf5 3.098973 1_555
Cu2 Hf3 3.098974 1_565
Cu2 Hf9 3.098974 1_555
Cu2 Hf1 3.098978 1_556
Cu2 Hf7 3.098978 1_555
Cu3 Hf4 3.098975 1_565
Cu3 Hf10 3.098975 1_555
Cu3 Hf0 3.098979 1_556
Cu3 Hf6 3.098979 1_555
Cu3 Hf5 3.098980 1_655
Cu3 Hf11 3.098980 1_555
C0 Hf9 2.257847 1_555
C0 Hf3 2.257847 1_555
C0 Hf5 2.257848 1_555
C0 Hf11 2.257848 1_545
C0 Hf4 2.257852 1_555
C0 Hf10 2.257852 1_455
C1 Hf7 2.257846 1_555
C1 Hf1 2.257846 1_555
C1 Hf5 2.257850 1_555
C1 Hf11 2.257850 1_554
C1 Hf0 2.257851 1_555
C1 Hf6 2.257851 1_455
C2 Hf0 2.257848 1_555
C2 Hf6 2.257848 1_545
C2 Hf8 2.257850 1_555
C2 Hf2 2.257850 1_555
C2 Hf4 2.257850 1_555
C2 Hf10 2.257850 1_554
C3 Hf1 2.257846 1_555
C3 Hf7 2.257846 1_545
C3 Hf3 2.257849 1_555
C3 Hf9 2.257849 1_554
C3 Hf2 2.257853 1_555
C3 Hf8 2.257853 1_455
