# generated using pymatgen
data_VPt5Rh3
_symmetry_space_group_name_H-M   'P 1'
_cell_length_a   6.15269581
_cell_length_b   6.15269519
_cell_length_c   6.11281973
_cell_angle_alpha   95.63260431
_cell_angle_beta   95.63260855
_cell_angle_gamma   143.60771266
_symmetry_Int_Tables_number   1
_chemical_formula_structural   VPt5Rh3
_chemical_formula_sum   'V1 Pt5 Rh3'
_cell_volume   130.33696767
_cell_formula_units_Z   1
loop_
 _symmetry_equiv_pos_site_id
 _symmetry_equiv_pos_as_xyz
  1  'x, y, z'
loop_
 _atom_site_type_symbol
 _atom_site_label
 _atom_site_symmetry_multiplicity
 _atom_site_fract_x
 _atom_site_fract_y
 _atom_site_fract_z
 _atom_site_occupancy
  V  V0  1  0.00409055  0.99590945  1.00000000  1
  Pt  Pt0  1  0.33931253  0.66068747  1.00000000  1
  Pt  Pt1  1  0.00220689  0.32681182  0.32901771  1
  Pt  Pt2  1  0.99810662  0.67548566  0.67359228  1
  Pt  Pt3  1  0.67318818  0.99779311  0.67098229  1
  Pt  Pt4  1  0.32451434  0.00189338  0.32640772  1
  Rh  Rh0  1  0.34114058  0.33975078  0.68089136  1
  Rh  Rh1  1  0.66024922  0.65885942  0.31910864  1
  Rh  Rh2  1  0.65719109  0.34280891  0.00000000  1
loop_
_geom_bond_atom_site_label_1
_geom_bond_atom_site_label_2
_geom_bond_distance
_geom_bond_site_symmetry_2
Pt0 Rh0 2.643536 1_555
Pt0 Rh1 2.643536 1_556
Pt0 Pt3 2.708726 1_555
Pt0 Pt1 2.708726 1_556
Pt0 Pt1 2.708729 1_666
Pt0 Pt3 2.708729 1_445
Pt0 V0 2.720644 1_545
Pt0 V0 2.720645 1_655
Pt0 Pt4 2.813851 1_566
Pt0 Pt2 2.813851 1_455
Pt0 Rh2 2.867768 1_566
Pt0 Rh2 2.867768 1_456
Pt1 Rh1 2.706556 1_555
Pt1 Rh1 2.706559 1_445
Pt1 V0 2.725618 1_544
Pt1 Pt3 2.762132 1_555
Pt1 Pt3 2.762137 1_445
Pt1 Rh0 2.792886 1_555
Pt1 Pt4 2.818399 1_565
Pt1 Pt4 2.818402 1_455
Pt1 Rh2 2.845709 1_455
Pt1 Pt2 2.872286 1_455
Pt2 V0 2.639265 1_655
Pt2 Rh0 2.686747 1_665
Pt2 Rh0 2.686747 1_555
Pt2 Rh1 2.785132 1_555
Pt2 Pt3 2.818399 1_655
Pt2 Pt3 2.818401 1_545
Pt3 Rh0 2.706556 1_555
Pt3 Rh0 2.706559 1_665
Pt3 V0 2.725618 1_655
Pt3 Rh1 2.792886 1_555
Pt3 Rh2 2.845709 1_566
Pt3 Pt4 2.872286 1_565
Pt4 V0 2.639265 1_544
Pt4 Rh1 2.686747 1_555
Pt4 Rh1 2.686747 1_445
Pt4 Rh0 2.785132 1_555
Rh0 Rh2 2.603080 1_556
Rh0 V0 2.668736 1_545
Rh0 V0 2.668736 1_655
Rh0 Rh1 2.845884 1_555
Rh0 Rh1 2.845884 1_445
Rh1 Rh2 2.603080 1_555
Rh1 V0 2.668736 1_654
Rh1 V0 2.668736 1_544
Rh2 V0 2.625763 1_654
Rh2 V0 2.625764 1_544
