# generated using pymatgen
data_Zr8Sc14Os7Ru
_symmetry_space_group_name_H-M   'P 1'
_cell_length_a   9.48141770
_cell_length_b   9.48141806
_cell_length_c   9.48141809
_cell_angle_alpha   60.00000336
_cell_angle_beta   60.00000213
_cell_angle_gamma   60.00000265
_symmetry_Int_Tables_number   1
_chemical_formula_structural   Zr8Sc14Os7Ru
_chemical_formula_sum   'Zr8 Sc14 Os7 Ru1'
_cell_volume   602.70514927
_cell_formula_units_Z   1
loop_
 _symmetry_equiv_pos_site_id
 _symmetry_equiv_pos_as_xyz
  1  'x, y, z'
loop_
 _atom_site_type_symbol
 _atom_site_label
 _atom_site_symmetry_multiplicity
 _atom_site_fract_x
 _atom_site_fract_y
 _atom_site_fract_z
 _atom_site_occupancy
  Zr  Zr0  1  0.84299867  0.84299867  0.84299867  1
  Zr  Zr1  1  0.52899501  0.15700133  0.15700133  1
  Zr  Zr2  1  0.15700133  0.15700133  0.52899501  1
  Zr  Zr3  1  0.15700133  0.52899501  0.15700133  1
  Zr  Zr4  1  0.84299867  0.84299867  0.47100499  1
  Zr  Zr5  1  0.84299867  0.47100499  0.84299867  1
  Zr  Zr6  1  0.47100499  0.84299867  0.84299867  1
  Zr  Zr7  1  0.15700133  0.15700133  0.15700133  1
  Sc  Sc0  1  0.19766833  0.80233167  0.19766833  1
  Sc  Sc1  1  0.19766833  0.80233167  0.80233167  1
  Sc  Sc2  1  0.80233167  0.19766833  0.19766833  1
  Sc  Sc3  1  0.80233167  0.80233167  0.19766833  1
  Sc  Sc4  1  0.19766833  0.19766833  0.80233167  1
  Sc  Sc5  1  0.80233167  0.19766833  0.80233167  1
  Sc  Sc6  1  0.38337379  0.38337379  0.38337379  1
  Sc  Sc7  1  0.15012336  0.61662621  0.61662621  1
  Sc  Sc8  1  0.61662621  0.15012336  0.61662621  1
  Sc  Sc9  1  0.61662621  0.61662621  0.15012336  1
  Sc  Sc10  1  0.38337379  0.84987664  0.38337379  1
  Sc  Sc11  1  0.38337379  0.38337379  0.84987664  1
  Sc  Sc12  1  0.84987664  0.38337379  0.38337379  1
  Sc  Sc13  1  0.61662621  0.61662621  0.61662621  1
  Os  Os0  1  0.50000000  0.50000000  0.00000000  1
  Os  Os1  1  0.00000000  0.00000000  0.50000000  1
  Os  Os2  1  0.50000000  0.00000000  0.50000000  1
  Os  Os3  1  0.00000000  0.50000000  0.50000000  1
  Os  Os4  1  0.50000000  0.00000000  0.00000000  1
  Os  Os5  1  0.00000000  0.50000000  0.00000000  1
  Os  Os6  1  0.50000000  0.50000000  0.50000000  1
  Ru  Ru0  1  0.00000000  0.00000000  0.00000000  1
loop_
_geom_bond_atom_site_label_1
_geom_bond_atom_site_label_2
_geom_bond_distance
_geom_bond_site_symmetry_2
Os0 Zr5 2.746241 1_554
Os0 Zr3 2.746241 1_555
Os0 Zr6 2.746241 1_554
Os0 Zr1 2.746241 1_555
Os0 Sc6 2.973564 1_555
Os0 Sc13 2.973564 1_554
Os0 Sc9 2.973580 1_555
Os0 Sc11 2.973580 1_554
Os1 Zr2 2.746233 1_555
Os1 Zr4 2.746233 1_445
Os1 Zr0 2.746239 1_445
Os1 Zr7 2.746239 1_555
Os1 Sc10 2.973565 1_545
Os1 Sc8 2.973565 1_455
Os1 Sc12 2.973565 1_455
Os1 Sc7 2.973565 1_545
Os2 Zr4 2.746241 1_545
Os2 Zr2 2.746241 1_555
Os2 Zr6 2.746241 1_545
Os2 Zr1 2.746241 1_555
Os2 Sc6 2.973564 1_555
Os2 Sc13 2.973564 1_545
Os2 Sc8 2.973580 1_555
Os2 Sc10 2.973580 1_545
Os3 Zr5 2.746241 1_455
Os3 Zr3 2.746241 1_555
Os3 Zr4 2.746241 1_455
Os3 Zr2 2.746241 1_555
Os3 Sc13 2.973564 1_455
Os3 Sc6 2.973564 1_555
Os3 Sc7 2.973580 1_555
Os3 Sc12 2.973580 1_455
Os4 Zr1 2.746233 1_555
Os4 Zr6 2.746233 1_544
Os4 Zr0 2.746239 1_544
Os4 Zr7 2.746239 1_555
Os4 Sc10 2.973565 1_545
Os4 Sc8 2.973565 1_554
Os4 Sc11 2.973565 1_554
Os4 Sc9 2.973565 1_545
Os5 Zr3 2.746233 1_555
Os5 Zr5 2.746233 1_454
Os5 Zr0 2.746239 1_454
Os5 Zr7 2.746239 1_555
Os5 Sc11 2.973565 1_554
Os5 Sc9 2.973565 1_455
Os5 Sc12 2.973565 1_455
Os5 Sc7 2.973565 1_554
Os6 Sc12 2.708586 1_555
Os6 Sc7 2.708586 1_555
Os6 Sc11 2.708586 1_555
Os6 Sc9 2.708586 1_555
Os6 Sc10 2.708586 1_555
Os6 Sc8 2.708586 1_555
Os6 Sc13 2.708601 1_555
Os6 Sc6 2.708601 1_555
Ru0 Sc4 2.650485 1_554
Ru0 Sc3 2.650485 1_445
Ru0 Sc0 2.650485 1_545
Ru0 Sc2 2.650485 1_455
Ru0 Sc5 2.650485 1_454
Ru0 Sc1 2.650485 1_544
