# generated using pymatgen
data_CsZrHgF7
_symmetry_space_group_name_H-M   'P 1'
_cell_length_a   6.69604406
_cell_length_b   6.69604368
_cell_length_c   8.83945038
_cell_angle_alpha   90.00000000
_cell_angle_beta   90.00000000
_cell_angle_gamma   118.19163561
_symmetry_Int_Tables_number   1
_chemical_formula_structural   CsZrHgF7
_chemical_formula_sum   'Cs2 Zr2 Hg2 F14'
_cell_volume   349.31827202
_cell_formula_units_Z   2
loop_
 _symmetry_equiv_pos_site_id
 _symmetry_equiv_pos_as_xyz
  1  'x, y, z'
loop_
 _atom_site_type_symbol
 _atom_site_label
 _atom_site_symmetry_multiplicity
 _atom_site_fract_x
 _atom_site_fract_y
 _atom_site_fract_z
 _atom_site_occupancy
  Cs  Cs0  1  0.50000000  0.50000000  0.50000000  1
  Cs  Cs1  1  0.50000000  0.50000000  0.00000000  1
  Zr  Zr0  1  0.80859141  0.19140859  0.25000000  1
  Zr  Zr1  1  0.19140859  0.80859141  0.75000000  1
  Hg  Hg0  1  0.80930636  0.19069364  0.75000000  1
  Hg  Hg1  1  0.19069364  0.80930636  0.25000000  1
  F  F0  1  0.79741038  0.20258962  0.02201138  1
  F  F1  1  0.14962597  0.43538722  0.25000000  1
  F  F2  1  0.56461278  0.85037403  0.25000000  1
  F  F3  1  0.52064644  0.83177505  0.75000000  1
  F  F4  1  0.16822495  0.47935356  0.75000000  1
  F  F5  1  0.79741038  0.20258962  0.47798862  1
  F  F6  1  0.43538722  0.14962597  0.75000000  1
  F  F7  1  0.83177505  0.52064644  0.25000000  1
  F  F8  1  0.47935356  0.16822495  0.25000000  1
  F  F9  1  0.98636163  0.01363837  0.25000000  1
  F  F10  1  0.20258962  0.79741038  0.52201138  1
  F  F11  1  0.20258962  0.79741038  0.97798862  1
  F  F12  1  0.01363837  0.98636163  0.75000000  1
  F  F13  1  0.85037403  0.56461278  0.75000000  1
loop_
_geom_bond_atom_site_label_1
_geom_bond_atom_site_label_2
_geom_bond_distance
_geom_bond_site_symmetry_2
Cs0 F3 3.089957 1_555
Cs0 F8 3.089957 1_555
Cs0 F7 3.089957 1_555
Cs0 F4 3.089957 1_555
Cs0 F2 3.100950 1_555
Cs0 F6 3.100950 1_555
Cs0 F13 3.100951 1_555
Cs0 F1 3.100951 1_555
Cs0 F5 3.423011 1_555
Cs0 F10 3.423011 1_555
Cs1 F3 3.089957 1_554
Cs1 F8 3.089957 1_555
Cs1 F7 3.089957 1_555
Cs1 F4 3.089957 1_554
Cs1 F2 3.100950 1_555
Cs1 F6 3.100950 1_554
Cs1 F13 3.100951 1_554
Cs1 F1 3.100951 1_555
Cs1 F0 3.423011 1_555
Cs1 F11 3.423011 1_554
F0 Zr0 2.019385 1_555
F0 Hg0 2.408314 1_554
F1 Zr0 2.087773 1_455
F1 Hg1 2.386208 1_555
F2 Zr0 2.087773 1_565
F2 Hg1 2.386208 1_555
F3 Zr1 2.135640 1_555
F3 Hg0 2.263383 1_565
F4 Zr1 2.135640 1_555
F4 Hg0 2.263383 1_455
F5 Zr0 2.019385 1_555
F5 Hg0 2.408314 1_555
F6 Zr1 2.087773 1_545
F6 Hg0 2.386208 1_555
F7 Zr0 2.135640 1_555
F7 Hg1 2.263383 1_655
F8 Zr0 2.135640 1_555
F8 Hg1 2.263383 1_545
F9 Zr0 2.042718 1_555
F9 Hg1 2.347934 1_645
F10 Zr1 2.019385 1_555
F10 Hg1 2.408314 1_555
F11 Zr1 2.019385 1_555
F11 Hg1 2.408314 1_556
F12 Zr1 2.042718 1_555
F12 Hg0 2.347934 1_465
F13 Zr1 2.087773 1_655
F13 Hg0 2.386208 1_555
