# generated using pymatgen
data_CoAgBr18
_symmetry_space_group_name_H-M   'P 1'
_cell_length_a   8.88995754
_cell_length_b   8.88995813
_cell_length_c   8.88995882
_cell_angle_alpha   93.29611934
_cell_angle_beta   93.29611925
_cell_angle_gamma   93.29613133
_symmetry_Int_Tables_number   1
_chemical_formula_structural   CoAgBr18
_chemical_formula_sum   'Co1 Ag1 Br18'
_cell_volume   698.95858808
_cell_formula_units_Z   1
loop_
 _symmetry_equiv_pos_site_id
 _symmetry_equiv_pos_as_xyz
  1  'x, y, z'
loop_
 _atom_site_type_symbol
 _atom_site_label
 _atom_site_symmetry_multiplicity
 _atom_site_fract_x
 _atom_site_fract_y
 _atom_site_fract_z
 _atom_site_occupancy
  Co  Co0  1  0.00000000  0.00000000  0.00000000  1
  Ag  Ag0  1  0.50000000  0.50000000  0.50000000  1
  Br  Br0  1  0.26722783  0.98523184  0.04701487  1
  Br  Br1  1  0.98523184  0.04701487  0.26722783  1
  Br  Br2  1  0.04701487  0.26722783  0.98523184  1
  Br  Br3  1  0.73277217  0.01476816  0.95298513  1
  Br  Br4  1  0.01476816  0.95298513  0.73277217  1
  Br  Br5  1  0.95298513  0.73277217  0.01476816  1
  Br  Br6  1  0.24696761  0.09489165  0.63574889  1
  Br  Br7  1  0.09489165  0.63574889  0.24696761  1
  Br  Br8  1  0.63574889  0.24696761  0.09489165  1
  Br  Br9  1  0.75303239  0.90510835  0.36425111  1
  Br  Br10  1  0.90510835  0.36425111  0.75303239  1
  Br  Br11  1  0.36425111  0.75303239  0.90510835  1
  Br  Br12  1  0.52171451  0.47905242  0.20053631  1
  Br  Br13  1  0.47905242  0.20053631  0.52171451  1
  Br  Br14  1  0.20053631  0.52171451  0.47905242  1
  Br  Br15  1  0.47828549  0.52094758  0.79946369  1
  Br  Br16  1  0.52094758  0.79946369  0.47828549  1
  Br  Br17  1  0.79946369  0.47828549  0.52094758  1
loop_
_geom_bond_atom_site_label_1
_geom_bond_atom_site_label_2
_geom_bond_distance
_geom_bond_site_symmetry_2
Ag0 Br17 2.676860 1_555
Ag0 Br14 2.676860 1_555
Ag0 Br16 2.676860 1_555
Ag0 Br13 2.676860 1_555
Ag0 Br15 2.676860 1_555
Ag0 Br12 2.676860 1_555
Br0 Co0 2.400752 1_565
Br0 Br11 2.574290 1_554
Br1 Co0 2.400752 1_655
Br1 Br9 2.574289 1_545
Br2 Co0 2.400752 1_556
Br3 Co0 2.400752 1_656
Br3 Br8 2.574290 1_556
Br4 Co0 2.400752 1_566
Br4 Br6 2.574289 1_565
Br5 Co0 2.400752 1_665
Br5 Br7 2.574290 1_655
Br10 Br17 2.508753 1_555
Br10 Br2 2.574290 1_655
Br11 Br15 2.508753 1_555
Br12 Br8 2.508753 1_555
Br13 Br6 2.508752 1_555
Br14 Br7 2.508753 1_555
Br16 Br9 2.508752 1_555
