# generated using pymatgen
data_ErFe4B
_symmetry_space_group_name_H-M   'P 1'
_cell_length_a   5.03569491
_cell_length_b   5.03573812
_cell_length_c   7.02555979
_cell_angle_alpha   90.00000000
_cell_angle_beta   90.00000000
_cell_angle_gamma   119.99968330
_symmetry_Int_Tables_number   1
_chemical_formula_structural   ErFe4B
_chemical_formula_sum   'Er2 Fe8 B2'
_cell_volume   154.28918991
_cell_formula_units_Z   2
loop_
 _symmetry_equiv_pos_site_id
 _symmetry_equiv_pos_as_xyz
  1  'x, y, z'
loop_
 _atom_site_type_symbol
 _atom_site_label
 _atom_site_symmetry_multiplicity
 _atom_site_fract_x
 _atom_site_fract_y
 _atom_site_fract_z
 _atom_site_occupancy
  Er  Er0  1  0.00000000  0.00000000  0.00000000  1
  Er  Er1  1  0.00000000  0.00000000  0.50000000  1
  Fe  Fe0  1  0.33333254  0.66666809  0.00000000  1
  Fe  Fe1  1  0.00000000  0.50000000  0.71546153  1
  Fe  Fe2  1  0.50000000  0.00000000  0.28453702  1
  Fe  Fe3  1  0.66666746  0.33333191  0.00000000  1
  Fe  Fe4  1  0.50000000  0.50000000  0.28453847  1
  Fe  Fe5  1  0.50000000  0.00000000  0.71546298  1
  Fe  Fe6  1  0.00000000  0.50000000  0.28453847  1
  Fe  Fe7  1  0.50000000  0.50000000  0.71546153  1
  B  B0  1  0.33333395  0.66666790  0.50000000  1
  B  B1  1  0.66666605  0.33333210  0.50000000  1
loop_
_geom_bond_atom_site_label_1
_geom_bond_atom_site_label_2
_geom_bond_distance
_geom_bond_site_symmetry_2
Er0 Fe0 2.907358 1_545
Er0 Fe3 2.907358 1_455
Er0 Fe3 2.907373 1_555
Er0 Fe0 2.907373 1_445
Er0 Fe3 2.907400 1_445
Er0 Fe0 2.907400 1_555
Er0 Fe5 3.214916 1_454
Er0 Fe2 3.214916 1_555
Er0 Fe5 3.214916 1_554
Er0 Fe2 3.214916 1_455
Er0 Fe1 3.214939 1_554
Er0 Fe1 3.214939 1_544
Er0 Fe6 3.214939 1_545
Er0 Fe6 3.214939 1_555
Er0 Fe7 3.214940 1_554
Er0 Fe4 3.214940 1_555
Er0 Fe7 3.214940 1_444
Er0 Fe4 3.214940 1_445
Er1 Fe5 2.937854 1_555
Er1 Fe2 2.937854 1_555
Er1 Fe5 2.937854 1_455
Er1 Fe2 2.937854 1_455
Er1 Fe6 2.937868 1_545
Er1 Fe1 2.937868 1_555
Er1 Fe6 2.937868 1_555
Er1 Fe1 2.937868 1_545
Er1 Fe7 2.937869 1_555
Er1 Fe7 2.937869 1_445
Er1 Fe4 2.937869 1_445
Er1 Fe4 2.937869 1_555
Fe0 Fe5 2.471709 1_564
Fe0 Fe2 2.471709 1_565
Fe0 Fe6 2.471712 1_555
Fe0 Fe1 2.471712 1_554
Fe0 Fe7 2.471719 1_554
Fe0 Fe4 2.471719 1_555
Fe1 Fe3 2.471712 1_456
Fe2 Fe3 2.471709 1_555
Fe3 Fe5 2.471709 1_554
Fe3 Fe6 2.471712 1_655
Fe3 Fe7 2.471719 1_554
Fe3 Fe4 2.471719 1_555
B0 Fe4 2.098716 1_555
B0 Fe7 2.098716 1_555
B0 Fe1 2.098716 1_555
B0 Fe6 2.098716 1_555
B0 Fe2 2.098726 1_565
B0 Fe5 2.098726 1_565
B0 Er1 2.907365 1_565
B0 Er1 2.907366 1_665
B0 Er1 2.907399 1_555
B1 Fe4 2.098716 1_555
B1 Fe7 2.098716 1_555
B1 Fe6 2.098716 1_655
B1 Fe1 2.098716 1_655
B1 Fe5 2.098726 1_555
B1 Fe2 2.098726 1_555
B1 Er1 2.907365 1_655
B1 Er1 2.907366 1_555
B1 Er1 2.907399 1_665
