# generated using pymatgen
data_TiAl2Fe4W
_symmetry_space_group_name_H-M   'P 1'
_cell_length_a   4.09047383
_cell_length_b   5.78216331
_cell_length_c   12.26461914
_cell_angle_alpha   90.00000000
_cell_angle_beta   90.00000312
_cell_angle_gamma   90.00000000
_symmetry_Int_Tables_number   1
_chemical_formula_structural   TiAl2Fe4W
_chemical_formula_sum   'Ti3 Al6 Fe12 W3'
_cell_volume   290.08016828
_cell_formula_units_Z   3
loop_
 _symmetry_equiv_pos_site_id
 _symmetry_equiv_pos_as_xyz
  1  'x, y, z'
loop_
 _atom_site_type_symbol
 _atom_site_label
 _atom_site_symmetry_multiplicity
 _atom_site_fract_x
 _atom_site_fract_y
 _atom_site_fract_z
 _atom_site_occupancy
  Ti  Ti0  1  0.49999933  0.00000000  0.50448556  1
  Ti  Ti1  1  0.99999585  0.50000000  0.66668483  1
  Ti  Ti2  1  0.49999594  0.00000000  0.82887293  1
  Al  Al0  1  0.99999999  0.00000000  0.99741360  1
  Al  Al1  1  0.50000583  0.50000000  0.16663635  1
  Al  Al2  1  0.00000545  0.00000000  0.33589986  1
  Al  Al3  1  0.49999945  0.50000000  0.50391586  1
  Al  Al4  1  0.99999488  0.00000000  0.66669275  1
  Al  Al5  1  0.49999512  0.50000000  0.82944159  1
  Fe  Fe0  1  0.50000006  0.25252632  0.00338429  1
  Fe  Fe1  1  0.50000006  0.74747468  0.00338429  1
  Fe  Fe2  1  0.00000450  0.24843310  0.16664865  1
  Fe  Fe3  1  0.00000450  0.75156590  0.16664865  1
  Fe  Fe4  1  0.50000439  0.25254227  0.32992432  1
  Fe  Fe5  1  0.50000439  0.74745673  0.32992432  1
  Fe  Fe6  1  0.99999955  0.25209024  0.49669542  1
  Fe  Fe7  1  0.99999955  0.74790876  0.49669542  1
  Fe  Fe8  1  0.49999572  0.24854669  0.66668730  1
  Fe  Fe9  1  0.49999572  0.75145231  0.66668730  1
  Fe  Fe10  1  0.99999562  0.25209303  0.83664806  1
  Fe  Fe11  1  0.99999562  0.74790597  0.83664806  1
  W  W0  1  0.99999982  0.50000000  0.99503226  1
  W  W1  1  0.50000234  0.00000000  0.16665146  1
  W  W2  1  0.00000234  0.50000000  0.33829587  1
loop_
_geom_bond_atom_site_label_1
_geom_bond_atom_site_label_2
_geom_bond_distance
_geom_bond_site_symmetry_2
Al0 Fe10 2.452027 1_555
Al0 Fe11 2.452030 1_545
Al0 Fe1 2.514035 1_546
Al0 Fe1 2.514035 1_646
Al0 Fe0 2.514038 1_556
Al0 Fe0 2.514039 1_656
Al0 Fe2 2.524204 1_656
Al0 Fe3 2.524207 1_646
Al1 Fe0 2.460990 1_555
Al1 Fe1 2.460993 1_555
Al1 Fe5 2.461291 1_555
Al1 Fe4 2.461295 1_555
Al1 Fe3 2.509745 1_655
Al1 Fe2 2.509748 1_655
Al1 Fe3 2.509754 1_555
Al1 Fe2 2.509757 1_555
Al2 Fe6 2.452313 1_455
Al2 Fe7 2.452317 1_445
Al2 Fe4 2.514090 1_555
Al2 Fe5 2.514094 1_545
Al2 Fe4 2.514097 1_455
Al2 Fe5 2.514101 1_445
Al2 Fe2 2.524367 1_555
Al2 Fe3 2.524370 1_545
Al3 Fe9 2.469670 1_555
Al3 Fe8 2.469673 1_555
Al3 Fe7 2.499122 1_455
Al3 Fe7 2.499123 1_555
Al3 Fe6 2.499125 1_455
Al3 Fe6 2.499126 1_555
Al3 Fe5 2.569239 1_555
Al3 Fe4 2.569242 1_555
Al4 Fe8 2.499669 1_555
Al4 Fe9 2.499672 1_545
Al4 Fe8 2.499674 1_655
Al4 Fe9 2.499678 1_645
Al4 Fe10 2.543541 1_555
Al4 Fe11 2.543544 1_545
Al4 Fe6 2.543954 1_555
Al4 Fe7 2.543958 1_545
Al5 Fe9 2.469500 1_555
Al5 Fe8 2.469503 1_555
Al5 Fe11 2.499105 1_455
Al5 Fe11 2.499109 1_555
Al5 Fe10 2.499109 1_455
Al5 Fe10 2.499112 1_555
Al5 Fe0 2.568796 1_556
Al5 Fe1 2.568799 1_556
Fe0 W1 2.478241 1_555
Fe0 W0 2.498210 1_554
Fe0 W0 2.498212 1_454
Fe0 Ti2 2.590943 1_554
Fe1 W1 2.478237 1_565
Fe1 W0 2.498213 1_554
Fe1 W0 2.498215 1_454
Fe1 Ti2 2.590939 1_564
Fe2 W1 2.499287 1_555
Fe2 W1 2.499301 1_455
Fe2 W0 2.558532 1_454
Fe2 W2 2.558843 1_555
Fe3 W1 2.499290 1_565
Fe3 W1 2.499305 1_465
Fe3 W0 2.558529 1_454
Fe3 W2 2.558840 1_555
Fe4 W1 2.478352 1_555
Fe4 W2 2.498161 1_655
Fe4 W2 2.498175 1_555
Fe4 Ti0 2.591500 1_555
Fe5 W1 2.478355 1_565
Fe5 W2 2.498158 1_655
Fe5 W2 2.498171 1_555
Fe5 Ti0 2.591503 1_565
Fe6 W2 2.414315 1_655
Fe6 Ti0 2.513324 1_655
Fe6 Ti0 2.513325 1_555
Fe6 Ti1 2.530102 1_555
Fe7 W2 2.414311 1_655
Fe7 Ti0 2.513327 1_665
Fe7 Ti0 2.513328 1_565
Fe7 Ti1 2.530098 1_555
Fe8 Ti2 2.453989 1_555
Fe8 Ti0 2.454149 1_555
Fe8 Ti1 2.509371 1_455
Fe8 Ti1 2.509372 1_555
Fe9 Ti2 2.453992 1_565
Fe9 Ti0 2.454153 1_565
Fe9 Ti1 2.509368 1_455
Fe9 Ti1 2.509369 1_555
Fe10 W0 2.414154 1_555
Fe10 Ti2 2.513326 1_555
Fe10 Ti2 2.513328 1_655
Fe10 Ti1 2.529828 1_555
Fe11 W0 2.414150 1_555
Fe11 Ti2 2.513329 1_565
Fe11 Ti2 2.513331 1_665
Fe11 Ti1 2.529825 1_555
