# generated using pymatgen
data_ZnB4Ir4Pd3
_symmetry_space_group_name_H-M   'P 1'
_cell_length_a   6.77250461
_cell_length_b   6.05667098
_cell_length_c   5.50805312
_cell_angle_alpha   70.94485570
_cell_angle_beta   58.27872648
_cell_angle_gamma   50.83613863
_symmetry_Int_Tables_number   1
_chemical_formula_structural   ZnB4Ir4Pd3
_chemical_formula_sum   'Zn1 B4 Ir4 Pd3'
_cell_volume   149.00239762
_cell_formula_units_Z   1
loop_
 _symmetry_equiv_pos_site_id
 _symmetry_equiv_pos_as_xyz
  1  'x, y, z'
loop_
 _atom_site_type_symbol
 _atom_site_label
 _atom_site_symmetry_multiplicity
 _atom_site_fract_x
 _atom_site_fract_y
 _atom_site_fract_z
 _atom_site_occupancy
  Zn  Zn0  1  0.94267481  0.77905429  0.39498240  1
  B  B0  1  0.05417048  0.98500837  0.57642496  1
  B  B1  1  0.67645042  0.84417078  0.18725624  1
  B  B2  1  0.42272774  0.55706002  0.95949190  1
  B  B3  1  0.26050652  0.20130680  0.85705802  1
  Ir  Ir0  1  0.10055979  0.63691880  0.88017451  1
  Ir  Ir1  1  0.36949807  0.85221690  0.15342228  1
  Ir  Ir2  1  0.61646543  0.14378218  0.84627253  1
  Ir  Ir3  1  0.39824292  0.87311941  0.62853708  1
  Pd  Pd0  1  0.46726584  0.30426970  0.36415678  1
  Pd  Pd1  1  0.86190108  0.36944888  0.31361677  1
  Pd  Pd2  1  0.88473690  0.39844288  0.78340654  1
loop_
_geom_bond_atom_site_label_1
_geom_bond_atom_site_label_2
_geom_bond_distance
_geom_bond_site_symmetry_2
B0 Ir1 2.111358 1_555
B0 Ir3 2.133865 1_555
B0 Ir2 2.149601 1_465
B0 Ir0 2.180738 1_555
B0 Pd1 2.272517 1_465
B0 Pd2 2.397030 1_465
B0 Zn0 2.433569 1_455
B1 Ir0 2.100033 1_654
B1 Ir3 2.129268 1_555
B1 Ir2 2.152037 1_564
B1 Ir1 2.152247 1_555
B1 Pd1 2.319520 1_555
B1 Zn0 2.385796 1_555
B1 Pd0 2.461064 1_565
B2 Ir2 2.094379 1_555
B2 Ir1 2.120057 1_556
B2 Ir3 2.157163 1_555
B2 Ir0 2.171838 1_555
B2 Pd2 2.296598 1_555
B2 Pd0 2.301869 1_556
B2 Zn0 2.552527 1_456
B3 Ir3 2.112466 1_545
B3 Ir0 2.148258 1_555
B3 Ir1 2.173046 1_546
B3 Ir2 2.176828 1_555
B3 Pd2 2.235645 1_455
B3 Pd1 2.389478 1_456
B3 Pd0 2.391702 1_555
Ir0 Zn0 2.677283 1_456
Ir0 Zn0 3.060491 1_455
Ir1 Zn0 2.740629 1_455
Ir2 Zn0 2.754241 1_545
Ir3 Zn0 2.900349 1_555
Pd0 Zn0 2.774992 1_455
Pd0 Zn0 2.792867 1_545
Pd1 Zn0 3.058209 1_555
Pd1 Zn0 3.166592 1_545
Pd2 Zn0 2.661718 1_555
