# generated using pymatgen
data_Cs3LuV2O8
_symmetry_space_group_name_H-M   'P 1'
_cell_length_a   6.01709427
_cell_length_b   6.01709388
_cell_length_c   8.35592492
_cell_angle_alpha   90.00000000
_cell_angle_beta   90.00000000
_cell_angle_gamma   119.99999161
_symmetry_Int_Tables_number   1
_chemical_formula_structural   Cs3LuV2O8
_chemical_formula_sum   'Cs3 Lu1 V2 O8'
_cell_volume   261.99849756
_cell_formula_units_Z   1
loop_
 _symmetry_equiv_pos_site_id
 _symmetry_equiv_pos_as_xyz
  1  'x, y, z'
loop_
 _atom_site_type_symbol
 _atom_site_label
 _atom_site_symmetry_multiplicity
 _atom_site_fract_x
 _atom_site_fract_y
 _atom_site_fract_z
 _atom_site_occupancy
  Cs  Cs0  1  0.33333300  0.66666700  0.73659835  1
  Cs  Cs1  1  0.66666700  0.33333300  0.26340165  1
  Cs  Cs2  1  0.00000000  0.00000000  0.00000000  1
  Lu  Lu0  1  0.00000000  0.00000000  0.50000000  1
  V  V0  1  0.33333300  0.66666700  0.28695125  1
  V  V1  1  0.66666700  0.33333300  0.71304875  1
  O  O0  1  0.33333300  0.66666700  0.08653421  1
  O  O1  1  0.66666700  0.33333300  0.91346579  1
  O  O2  1  0.17441904  0.82558096  0.35154357  1
  O  O3  1  0.82558096  0.17441904  0.64845643  1
  O  O4  1  0.17441904  0.34883908  0.35154357  1
  O  O5  1  0.82558096  0.65116092  0.64845643  1
  O  O6  1  0.65116092  0.82558096  0.35154357  1
  O  O7  1  0.34883908  0.17441904  0.64845643  1
loop_
_geom_bond_atom_site_label_1
_geom_bond_atom_site_label_2
_geom_bond_distance
_geom_bond_site_symmetry_2
Cs0 O0 2.924038 1_556
Cs0 O7 3.098434 1_565
Cs0 O5 3.098434 1_455
Cs0 O3 3.098440 1_565
Cs0 O3 3.098440 1_455
Cs0 O7 3.098445 1_555
Cs0 O5 3.098445 1_555
Cs1 O1 2.924038 1_554
Cs1 O6 3.098434 1_545
Cs1 O4 3.098434 1_655
Cs1 O2 3.098440 1_545
Cs1 O2 3.098440 1_655
Cs1 O6 3.098445 1_555
Cs1 O4 3.098445 1_555
Cs2 O2 3.454427 1_545
Cs2 O3 3.454427 1_454
Cs2 O4 3.454430 1_555
Cs2 O5 3.454430 1_444
Cs2 O6 3.454430 1_445
Cs2 O7 3.454430 1_554
Cs2 O0 3.548420 1_545
Cs2 O1 3.548420 1_454
Cs2 O0 3.548425 1_555
Cs2 O1 3.548425 1_444
Cs2 O1 3.548426 1_554
Cs2 O0 3.548426 1_445
Lu0 O3 2.200714 1_455
Lu0 O2 2.200714 1_545
Lu0 O5 2.200718 1_445
Lu0 O4 2.200718 1_555
Lu0 O7 2.200718 1_555
Lu0 O6 2.200718 1_445
O0 V0 1.674670 1_555
O1 V1 1.674670 1_555
O2 V0 1.741914 1_555
O3 V1 1.741914 1_555
O4 V0 1.741914 1_555
O5 V1 1.741914 1_555
O6 V0 1.741914 1_555
O7 V1 1.741914 1_555
