# generated using pymatgen
data_LuSc2Pt7
_symmetry_space_group_name_H-M   'P 1'
_cell_length_a   10.45992959
_cell_length_b   10.45992851
_cell_length_c   4.00226536
_cell_angle_alpha   90.00000000
_cell_angle_beta   90.00000000
_cell_angle_gamma   157.93027237
_symmetry_Int_Tables_number   1
_chemical_formula_structural   LuSc2Pt7
_chemical_formula_sum   'Lu1 Sc2 Pt7'
_cell_volume   164.52982508
_cell_formula_units_Z   1
loop_
 _symmetry_equiv_pos_site_id
 _symmetry_equiv_pos_as_xyz
  1  'x, y, z'
loop_
 _atom_site_type_symbol
 _atom_site_label
 _atom_site_symmetry_multiplicity
 _atom_site_fract_x
 _atom_site_fract_y
 _atom_site_fract_z
 _atom_site_occupancy
  Lu  Lu0  1  0.00000000  0.00000000  0.00000000  1
  Sc  Sc0  1  0.80884548  0.19115652  0.00000000  1
  Sc  Sc1  1  0.19115652  0.80884548  0.00000000  1
  Pt  Pt0  1  0.60037938  0.39962162  0.00000000  1
  Pt  Pt1  1  0.39962162  0.60037938  0.00000000  1
  Pt  Pt2  1  0.89825450  0.10174650  0.50000100  1
  Pt  Pt3  1  0.70086367  0.29913833  0.50000100  1
  Pt  Pt4  1  0.50000100  0.50000100  0.50000100  1
  Pt  Pt5  1  0.29913833  0.70086367  0.50000100  1
  Pt  Pt6  1  0.10174650  0.89825450  0.50000100  1
loop_
_geom_bond_atom_site_label_1
_geom_bond_atom_site_label_2
_geom_bond_distance
_geom_bond_site_symmetry_2
Lu0 Pt4 2.830705 1_444
Lu0 Pt4 2.830710 1_445
Lu0 Pt4 2.830710 1_554
Lu0 Pt4 2.830716 1_555
Lu0 Pt0 2.873405 1_445
Lu0 Pt1 2.873406 1_445
Lu0 Pt1 2.873408 1_555
Lu0 Pt0 2.873408 1_555
Lu0 Pt2 2.892939 1_454
Lu0 Pt6 2.892939 1_544
Lu0 Pt2 2.892944 1_455
Lu0 Pt6 2.892944 1_545
Pt0 Sc1 2.735432 1_545
Pt0 Sc1 2.735435 1_655
Pt0 Pt3 2.874279 1_554
Pt0 Pt3 2.874284 1_555
Pt1 Sc0 2.735432 1_455
Pt1 Sc0 2.735435 1_565
Pt1 Pt5 2.874279 1_554
Pt1 Pt5 2.874284 1_555
Pt2 Sc0 2.715671 1_556
Pt2 Sc0 2.715677 1_555
Pt2 Pt5 2.854872 1_545
Pt2 Pt5 2.854875 1_655
Pt3 Sc1 2.837716 1_656
Pt3 Sc1 2.837716 1_546
Pt3 Sc1 2.837722 1_655
Pt3 Sc1 2.837722 1_545
Pt3 Pt5 2.842574 1_545
Pt3 Pt5 2.842575 1_655
Pt3 Pt6 2.854872 1_655
Pt3 Pt6 2.854875 1_545
Pt3 Sc0 2.986718 1_556
Pt3 Sc0 2.986723 1_555
Pt5 Sc0 2.837716 1_456
Pt5 Sc0 2.837716 1_566
Pt5 Sc0 2.837722 1_455
Pt5 Sc0 2.837722 1_565
Pt5 Sc1 2.986718 1_556
Pt5 Sc1 2.986723 1_555
Pt6 Sc1 2.715671 1_556
Pt6 Sc1 2.715677 1_555
