# generated using pymatgen
data_NaCa2Zn2Sb3
_symmetry_space_group_name_H-M   'P 1'
_cell_length_a   4.52598759
_cell_length_b   12.02163929
_cell_length_c   15.36442227
_cell_angle_alpha   90.00000000
_cell_angle_beta   90.00000000
_cell_angle_gamma   90.00000000
_symmetry_Int_Tables_number   1
_chemical_formula_structural   NaCa2Zn2Sb3
_chemical_formula_sum   'Na4 Ca8 Zn8 Sb12'
_cell_volume   835.97499251
_cell_formula_units_Z   4
loop_
 _symmetry_equiv_pos_site_id
 _symmetry_equiv_pos_as_xyz
  1  'x, y, z'
loop_
 _atom_site_type_symbol
 _atom_site_label
 _atom_site_symmetry_multiplicity
 _atom_site_fract_x
 _atom_site_fract_y
 _atom_site_fract_z
 _atom_site_occupancy
  Na  Na0  1  0.75000000  0.09429820  0.05619122  1
  Na  Na1  1  0.75000000  0.59429820  0.44380878  1
  Na  Na2  1  0.25000000  0.90570180  0.94380878  1
  Na  Na3  1  0.25000000  0.40570180  0.55619122  1
  Ca  Ca0  1  0.75000000  0.39301502  0.92782708  1
  Ca  Ca1  1  0.75000000  0.89301502  0.57217292  1
  Ca  Ca2  1  0.25000000  0.60698498  0.07217292  1
  Ca  Ca3  1  0.25000000  0.10698498  0.42782708  1
  Ca  Ca4  1  0.75000000  0.12865531  0.78792661  1
  Ca  Ca5  1  0.75000000  0.62865531  0.71207339  1
  Ca  Ca6  1  0.25000000  0.87134469  0.21207339  1
  Ca  Ca7  1  0.25000000  0.37134469  0.28792661  1
  Zn  Zn0  1  0.75000000  0.19514577  0.58426735  1
  Zn  Zn1  1  0.75000000  0.69514577  0.91573265  1
  Zn  Zn2  1  0.25000000  0.80485423  0.41573265  1
  Zn  Zn3  1  0.25000000  0.30485423  0.08426735  1
  Zn  Zn4  1  0.75000000  0.14087662  0.29087132  1
  Zn  Zn5  1  0.75000000  0.64087662  0.20912868  1
  Zn  Zn6  1  0.25000000  0.85912338  0.70912868  1
  Zn  Zn7  1  0.25000000  0.35912338  0.79087132  1
  Sb  Sb0  1  0.75000000  0.42574886  0.13158904  1
  Sb  Sb1  1  0.75000000  0.92574886  0.36841096  1
  Sb  Sb2  1  0.25000000  0.57425114  0.86841096  1
  Sb  Sb3  1  0.25000000  0.07425114  0.63158904  1
  Sb  Sb4  1  0.75000000  0.36744620  0.69898161  1
  Sb  Sb5  1  0.75000000  0.86744620  0.80101839  1
  Sb  Sb6  1  0.25000000  0.63255380  0.30101839  1
  Sb  Sb7  1  0.25000000  0.13255380  0.19898161  1
  Sb  Sb8  1  0.75000000  0.79937447  0.07292766  1
  Sb  Sb9  1  0.75000000  0.29937447  0.42707234  1
  Sb  Sb10  1  0.25000000  0.20062553  0.92707234  1
  Sb  Sb11  1  0.25000000  0.70062553  0.57292766  1
loop_
_geom_bond_atom_site_label_1
_geom_bond_atom_site_label_2
_geom_bond_distance
_geom_bond_site_symmetry_2
Na0 Sb7 3.185248 1_655
Na0 Sb7 3.185248 1_555
Na0 Sb10 3.269651 1_554
Na0 Sb10 3.269651 1_654
Na0 Zn3 3.422622 1_655
Na0 Zn3 3.422622 1_555
Na0 Sb8 3.554780 1_545
Na1 Sb6 3.185248 1_655
Na1 Sb6 3.185248 1_555
Na1 Sb11 3.269651 1_555
Na1 Sb11 3.269651 1_655
Na1 Zn2 3.422622 1_555
Na1 Zn2 3.422622 1_655
Na1 Sb9 3.554780 1_555
Na2 Sb5 3.185248 1_455
Na2 Sb5 3.185248 1_555
Na2 Sb8 3.269651 1_456
Na2 Sb8 3.269651 1_556
Na2 Zn1 3.422622 1_455
Na2 Zn1 3.422622 1_555
Na2 Sb10 3.554780 1_565
Na3 Sb4 3.185248 1_555
Na3 Sb4 3.185248 1_455
Na3 Sb9 3.269651 1_455
Na3 Sb9 3.269651 1_555
Na3 Zn0 3.422622 1_555
Na3 Zn0 3.422622 1_455
Na3 Sb11 3.554780 1_555
Ca0 Zn7 3.116889 1_655
Ca0 Zn7 3.116889 1_555
Ca0 Sb0 3.155319 1_556
Ca0 Sb10 3.235814 1_655
Ca0 Sb10 3.235814 1_555
Ca0 Sb2 3.271313 1_655
Ca0 Sb2 3.271313 1_555
Ca0 Sb4 3.529488 1_555
Ca1 Zn6 3.116889 1_555
Ca1 Zn6 3.116889 1_655
Ca1 Sb1 3.155319 1_555
Ca1 Sb11 3.235814 1_555
Ca1 Sb11 3.235814 1_655
Ca1 Sb3 3.271313 1_565
Ca1 Sb3 3.271313 1_665
Ca1 Sb5 3.529488 1_555
Ca2 Zn5 3.116889 1_555
Ca2 Zn5 3.116889 1_455
Ca2 Sb2 3.155319 1_554
Ca2 Sb8 3.235814 1_455
Ca2 Sb8 3.235814 1_555
Ca2 Sb0 3.271313 1_455
Ca2 Sb0 3.271313 1_555
Ca2 Sb6 3.529488 1_555
Ca3 Zn4 3.116889 1_555
Ca3 Zn4 3.116889 1_455
Ca3 Sb3 3.155319 1_555
Ca3 Sb9 3.235814 1_555
Ca3 Sb9 3.235814 1_455
Ca3 Sb1 3.271313 1_545
Ca3 Sb1 3.271313 1_445
Ca3 Sb7 3.529488 1_555
Ca4 Sb5 3.146597 1_545
Ca4 Sb4 3.179346 1_555
Ca4 Zn0 3.229587 1_555
Ca4 Sb10 3.231146 1_655
Ca4 Sb10 3.231146 1_555
Ca4 Sb3 3.364323 1_555
Ca4 Sb3 3.364323 1_655
Ca5 Sb4 3.146597 1_555
Ca5 Sb5 3.179346 1_555
Ca5 Zn1 3.229587 1_555
Ca5 Sb11 3.231146 1_555
Ca5 Sb11 3.231146 1_655
Ca5 Sb2 3.364323 1_555
Ca5 Sb2 3.364323 1_655
Ca6 Sb7 3.146597 1_565
Ca6 Sb6 3.179346 1_555
Ca6 Zn2 3.229587 1_555
Ca6 Sb8 3.231146 1_555
Ca6 Sb8 3.231146 1_455
Ca6 Sb1 3.364323 1_455
Ca6 Sb1 3.364323 1_555
Ca7 Sb6 3.146597 1_555
Ca7 Sb7 3.179346 1_555
Ca7 Zn3 3.229587 1_555
Ca7 Sb9 3.231146 1_455
Ca7 Sb9 3.231146 1_555
Ca7 Sb0 3.364323 1_555
Ca7 Sb0 3.364323 1_455
Sb0 Zn3 2.786037 1_555
Sb0 Zn3 2.786037 1_655
Sb0 Zn5 2.847400 1_555
Sb1 Zn2 2.786037 1_655
Sb1 Zn2 2.786037 1_555
Sb1 Zn4 2.847400 1_565
Sb2 Zn1 2.786037 1_455
Sb2 Zn1 2.786037 1_555
Sb2 Zn7 2.847400 1_555
Sb3 Zn0 2.786037 1_555
Sb3 Zn0 2.786037 1_455
Sb3 Zn6 2.847400 1_545
Sb4 Zn7 2.669161 1_555
Sb4 Zn7 2.669161 1_655
Sb4 Zn0 2.719723 1_555
Sb5 Zn6 2.669161 1_655
Sb5 Zn6 2.669161 1_555
Sb5 Zn1 2.719723 1_555
Sb6 Zn5 2.669161 1_455
Sb6 Zn5 2.669161 1_555
Sb6 Zn2 2.719723 1_555
Sb7 Zn4 2.669161 1_455
Sb7 Zn4 2.669161 1_555
Sb7 Zn3 2.719723 1_555
Sb8 Zn1 2.720891 1_554
Sb8 Zn5 2.830150 1_555
Sb9 Zn0 2.720891 1_555
Sb9 Zn4 2.830150 1_555
Sb10 Zn3 2.720891 1_556
Sb10 Zn7 2.830150 1_555
Sb11 Zn2 2.720891 1_555
Sb11 Zn6 2.830150 1_555
