# generated using pymatgen
data_Ti10ZnGeBi4
_symmetry_space_group_name_H-M   'P 1'
_cell_length_a   7.95906318
_cell_length_b   7.95887287
_cell_length_c   7.95906287
_cell_angle_alpha   96.19455080
_cell_angle_beta   96.19507172
_cell_angle_gamma   141.64697517
_symmetry_Int_Tables_number   1
_chemical_formula_structural   Ti10ZnGeBi4
_chemical_formula_sum   'Ti10 Zn1 Ge1 Bi4'
_cell_volume   295.47633428
_cell_formula_units_Z   1
loop_
 _symmetry_equiv_pos_site_id
 _symmetry_equiv_pos_as_xyz
  1  'x, y, z'
loop_
 _atom_site_type_symbol
 _atom_site_label
 _atom_site_symmetry_multiplicity
 _atom_site_fract_x
 _atom_site_fract_y
 _atom_site_fract_z
 _atom_site_occupancy
  Ti  Ti0  1  0.57304140  0.71191401  0.28282929  1
  Ti  Ti1  1  0.42910054  0.29027279  0.71718200  1
  Ti  Ti2  1  0.75006458  0.25000000  0.50006458  1
  Ti  Ti3  1  0.24994864  0.75000000  0.49994864  1
  Ti  Ti4  1  0.71196811  0.42912867  0.13883851  1
  Ti  Ti5  1  0.29020099  0.57301395  0.86114385  1
  Ti  Ti6  1  0.92690921  0.20972721  0.13882775  1
  Ti  Ti7  1  0.20970984  0.07087133  0.28283844  1
  Ti  Ti8  1  0.07091528  0.78808599  0.86112839  1
  Ti  Ti9  1  0.78813090  0.92698605  0.71718804  1
  Zn  Zn0  1  0.25003253  0.25000000  0.00003253  1
  Ge  Ge0  1  0.74996461  0.75000000  0.99996461  1
  Bi  Bi0  1  0.33521975  0.83521329  0.17032423  1
  Bi  Bi1  1  0.16488941  0.33521267  0.50000695  1
  Bi  Bi2  1  0.66479528  0.16478733  0.82967774  1
  Bi  Bi3  1  0.83511094  0.66478671  0.50000646  1
loop_
_geom_bond_atom_site_label_1
_geom_bond_atom_site_label_2
_geom_bond_distance
_geom_bond_site_symmetry_2
Ti0 Zn0 2.707883 1_555
Ti1 Zn0 2.708083 1_556
Ti2 Ti3 2.614358 1_655
Ti2 Ti3 2.614358 1_545
Ti4 Zn0 2.707914 1_555
Ti5 Zn0 2.708103 1_556
Ti6 Zn0 2.708083 1_655
Ti7 Zn0 2.707906 1_555
Ti8 Zn0 2.707881 1_566
Ti9 Zn0 2.708095 1_666
Ge0 Zn0 2.614358 1_556
Ge0 Zn0 2.614358 1_666
Ge0 Ti6 2.702224 1_566
Ge0 Ti1 2.702224 1_555
Ge0 Ti9 2.702304 1_555
Ge0 Ti5 2.702313 1_555
Ge0 Ti7 2.702762 1_666
Ge0 Ti4 2.702766 1_556
Ge0 Ti8 2.702829 1_655
Ge0 Ti0 2.702833 1_556
Bi0 Ti3 2.801728 1_555
Bi0 Ti2 2.802145 1_565
Bi0 Ti5 2.840314 1_554
Bi0 Ti8 2.840414 1_554
Bi0 Ti0 2.843369 1_555
Bi0 Ti7 2.843718 1_565
Bi0 Ti6 3.086294 1_565
Bi0 Ti4 3.086573 1_455
Bi0 Ti4 3.095987 1_565
Bi0 Ti6 3.096343 1_455
Bi1 Ti2 2.801630 1_455
Bi1 Ti3 2.802080 1_555
Bi1 Ti1 2.840128 1_555
Bi1 Ti7 2.840149 1_555
Bi1 Ti5 2.843438 1_555
Bi1 Ti6 2.843766 1_455
Bi1 Ti9 3.086492 1_555
Bi1 Ti0 3.086750 1_445
Bi1 Ti0 3.095851 1_555
Bi1 Ti9 3.096161 1_445
Bi2 Ti2 2.801637 1_555
Bi2 Ti3 2.802087 1_545
Bi2 Ti6 2.840118 1_556
Bi2 Ti4 2.840143 1_556
Bi2 Ti9 2.843438 1_545
Bi2 Ti1 2.843775 1_555
Bi2 Ti5 3.086482 1_545
Bi2 Ti8 3.086751 1_655
Bi2 Ti8 3.095858 1_545
Bi2 Ti5 3.096152 1_655
Bi3 Ti3 2.801728 1_655
Bi3 Ti2 2.802145 1_555
Bi3 Ti9 2.840312 1_555
Bi3 Ti0 2.840420 1_555
Bi3 Ti8 2.843376 1_655
Bi3 Ti4 2.843720 1_555
Bi3 Ti1 3.086294 1_555
Bi3 Ti7 3.086579 1_665
Bi3 Ti7 3.095990 1_555
Bi3 Ti1 3.096344 1_665
