# generated using pymatgen
data_Ta5Ga2P
_symmetry_space_group_name_H-M   'P 1'
_cell_length_a   6.59118546
_cell_length_b   7.54989079
_cell_length_c   6.58688284
_cell_angle_alpha   115.86318647
_cell_angle_beta   90.00000000
_cell_angle_gamma   115.88132721
_symmetry_Int_Tables_number   1
_chemical_formula_structural   Ta5Ga2P
_chemical_formula_sum   'Ta10 Ga4 P2'
_cell_volume   257.92223425
_cell_formula_units_Z   2
loop_
 _symmetry_equiv_pos_site_id
 _symmetry_equiv_pos_as_xyz
  1  'x, y, z'
loop_
 _atom_site_type_symbol
 _atom_site_label
 _atom_site_symmetry_multiplicity
 _atom_site_fract_x
 _atom_site_fract_y
 _atom_site_fract_z
 _atom_site_occupancy
  Ta  Ta0  1  0.99170603  1.00000000  0.99765420  1
  Ta  Ta1  1  0.50829397  0.00000000  0.49765420  1
  Ta  Ta2  1  0.52058451  0.70457015  0.69017195  1
  Ta  Ta3  1  0.19129171  0.69495233  0.01023013  1
  Ta  Ta4  1  0.68398464  0.70457015  0.19017195  1
  Ta  Ta5  1  0.00365962  0.69495233  0.51023013  1
  Ta  Ta6  1  0.49634038  0.30504767  0.31527881  1
  Ta  Ta7  1  0.81601536  0.29542985  0.98560280  1
  Ta  Ta8  1  0.30870829  0.30504767  0.81527881  1
  Ta  Ta9  1  0.97941549  0.29542985  0.48560280  1
  Ga  Ga0  1  0.75000000  0.50000000  0.75656235  1
  Ga  Ga1  1  0.25000000  0.50000000  0.25656235  1
  Ga  Ga2  1  0.13780183  0.00000000  0.36354513  1
  Ga  Ga3  1  0.36219817  1.00000000  0.86354513  1
  P  P0  1  0.87161871  1.00000000  0.63095563  1
  P  P1  1  0.62838129  0.00000000  0.13095563  1
loop_
_geom_bond_atom_site_label_1
_geom_bond_atom_site_label_2
_geom_bond_distance
_geom_bond_site_symmetry_2
Ga0 Ta4 2.733199 1_556
Ga0 Ta7 2.733205 1_555
Ga0 Ta9 2.737023 1_555
Ga0 Ta2 2.737026 1_555
Ga0 Ta6 2.744012 1_555
Ga0 Ta5 2.744017 1_655
Ga0 Ta3 2.745045 1_656
Ga0 Ta8 2.745048 1_555
Ga0 Ta0 2.971485 1_555
Ga0 Ta1 2.971485 1_555
Ga1 Ta2 2.733197 1_555
Ga1 Ta9 2.733202 1_455
Ga1 Ta7 2.737018 1_454
Ga1 Ta4 2.737021 1_555
Ga1 Ta8 2.744014 1_554
Ga1 Ta3 2.744020 1_555
Ga1 Ta5 2.745051 1_555
Ga1 Ta6 2.745053 1_555
Ga1 Ta1 2.971485 1_565
Ga1 Ta0 2.971485 1_444
Ga2 P0 2.486096 1_445
Ga2 Ta0 2.595333 1_444
Ga2 Ta1 2.596845 1_555
Ga2 Ta3 2.622448 1_545
Ga2 Ta6 2.622449 1_555
Ga2 Ta9 2.679458 1_455
Ga2 Ta4 2.679464 1_445
Ga2 Ta5 2.680134 1_545
Ga2 Ta8 2.680139 1_555
Ga3 P1 2.486096 1_566
Ga3 Ta1 2.595333 1_565
Ga3 Ta0 2.596845 1_455
Ga3 Ta8 2.622445 1_565
Ga3 Ta5 2.622452 1_555
Ga3 Ta2 2.679458 1_555
Ga3 Ta7 2.679463 1_565
Ga3 Ta3 2.680134 1_556
Ga3 Ta6 2.680138 1_566
P0 Ta0 2.541783 1_555
P0 Ta1 2.550635 1_565
P0 Ta7 2.595016 1_565
P0 Ta2 2.595016 1_555
P0 Ta5 2.616484 1_655
P0 Ta8 2.616490 1_665
P0 Ta9 2.622218 1_565
P0 Ta4 2.622223 1_555
P1 Ta1 2.541783 1_555
P1 Ta0 2.550635 1_544
P1 Ta4 2.595013 1_545
P1 Ta9 2.595020 1_555
P1 Ta6 2.616485 1_555
P1 Ta3 2.616489 1_545
P1 Ta7 2.622219 1_554
P1 Ta2 2.622223 1_544
