# generated using pymatgen
data_SrPb(AuO2)4
_symmetry_space_group_name_H-M   'P 1'
_cell_length_a   6.75813645
_cell_length_b   6.75813695
_cell_length_c   6.75813754
_cell_angle_alpha   124.94775025
_cell_angle_beta   124.94775123
_cell_angle_gamma   81.62458700
_symmetry_Int_Tables_number   1
_chemical_formula_structural   SrPb(AuO2)4
_chemical_formula_sum   'Sr1 Pb1 Au4 O8'
_cell_volume   199.58372388
_cell_formula_units_Z   1
loop_
 _symmetry_equiv_pos_site_id
 _symmetry_equiv_pos_as_xyz
  1  'x, y, z'
loop_
 _atom_site_type_symbol
 _atom_site_label
 _atom_site_symmetry_multiplicity
 _atom_site_fract_x
 _atom_site_fract_y
 _atom_site_fract_z
 _atom_site_occupancy
  Sr  Sr0  1  0.00000000  0.00000000  0.00000000  1
  Pb  Pb0  1  0.75000000  0.25000000  0.50000000  1
  Au  Au0  1  0.37457647  0.62539870  0.24998826  1
  Au  Au1  1  0.87541279  0.62542353  0.25082323  1
  Au  Au2  1  0.37541043  0.12458721  0.75001174  1
  Au  Au3  1  0.37460130  0.62458957  0.74917677  1
  O  O0  1  0.57791393  0.94624953  0.92695097  1
  O  O1  1  0.70005941  0.26833618  0.87384478  1
  O  O2  1  0.39449140  0.82621462  0.12615522  1
  O  O3  1  0.01929956  0.65096297  0.07304903  1
  O  O4  1  0.17378538  0.29994059  0.56827577  1
  O  O5  1  0.05375047  0.98070044  0.63166441  1
  O  O6  1  0.73166382  0.60550860  0.43172423  1
  O  O7  1  0.34903703  0.42208607  0.36833559  1
loop_
_geom_bond_atom_site_label_1
_geom_bond_atom_site_label_2
_geom_bond_distance
_geom_bond_site_symmetry_2
Au0 O7 2.010885 1_555
Au0 O2 2.010912 1_555
Au0 O6 2.012279 1_555
Au0 O3 2.012747 1_555
Au1 O3 2.010891 1_655
Au1 O6 2.010917 1_555
Au1 O1 2.012282 1_554
Au1 O5 2.012747 1_655
Au2 O5 2.010885 1_545
Au2 O1 2.010914 1_555
Au2 O4 2.012289 1_555
Au2 O0 2.012747 1_545
Au3 O0 2.010882 1_555
Au3 O4 2.010912 1_555
Au3 O2 2.012285 1_556
Au3 O7 2.012747 1_555
O0 Pb0 2.644282 1_566
O0 Sr0 2.644917 1_666
O1 Sr0 2.616275 1_656
O1 Pb0 2.668049 1_555
O2 Sr0 2.616275 1_565
O2 Pb0 2.668049 1_565
O3 Pb0 2.644282 1_454
O3 Sr0 2.644916 1_565
O4 Sr0 2.616271 1_555
O4 Pb0 2.668052 1_455
O5 Pb0 2.644287 1_465
O5 Sr0 2.644914 1_566
O6 Sr0 2.616272 1_666
O6 Pb0 2.668044 1_555
O7 Pb0 2.644282 1_555
O7 Sr0 2.644917 1_555
