# generated using pymatgen
data_Sr2CoH10Pt
_symmetry_space_group_name_H-M   'P 1'
_cell_length_a   4.68575784
_cell_length_b   6.46855567
_cell_length_c   9.21669152
_cell_angle_alpha   86.81607571
_cell_angle_beta   90.00000000
_cell_angle_gamma   90.00000000
_symmetry_Int_Tables_number   1
_chemical_formula_structural   Sr2CoH10Pt
_chemical_formula_sum   'Sr4 Co2 H20 Pt2'
_cell_volume   278.92748547
_cell_formula_units_Z   2
loop_
 _symmetry_equiv_pos_site_id
 _symmetry_equiv_pos_as_xyz
  1  'x, y, z'
loop_
 _atom_site_type_symbol
 _atom_site_label
 _atom_site_symmetry_multiplicity
 _atom_site_fract_x
 _atom_site_fract_y
 _atom_site_fract_z
 _atom_site_occupancy
  Sr  Sr0  1  0.23053989  0.33464181  0.14928456  1
  Sr  Sr1  1  0.73053989  0.66535819  0.85071544  1
  Sr  Sr2  1  0.73369369  0.85392185  0.31094367  1
  Sr  Sr3  1  0.23369369  0.14607815  0.68905633  1
  Co  Co0  1  0.72944709  0.15493759  0.94666868  1
  Co  Co1  1  0.22944709  0.84506241  0.05333132  1
  H  H0  1  0.98343165  0.50017977  0.49946754  1
  H  H1  1  0.48343165  0.49982023  0.50053246  1
  H  H2  1  0.45895468  0.00981634  0.98719116  1
  H  H3  1  0.95895468  0.99018366  0.01280884  1
  H  H4  1  0.00538020  0.68731697  0.10485718  1
  H  H5  1  0.50538020  0.31268303  0.89514282  1
  H  H6  1  0.45172537  0.18488930  0.38797813  1
  H  H7  1  0.95172537  0.81511070  0.61202187  1
  H  H8  1  0.46497092  0.69338831  0.10032113  1
  H  H9  1  0.96497092  0.30661169  0.89967887  1
  H  H10  1  0.01424636  0.18494696  0.38769016  1
  H  H11  1  0.51424636  0.81505304  0.61230984  1
  H  H12  1  0.22678376  0.75524204  0.90522845  1
  H  H13  1  0.72678376  0.24475796  0.09477155  1
  H  H14  1  0.73380477  0.19306307  0.58621683  1
  H  H15  1  0.23380477  0.80693693  0.41378317  1
  H  H16  1  0.23659603  0.94028540  0.20326307  1
  H  H17  1  0.73659603  0.05971460  0.79673693  1
  H  H18  1  0.73141283  0.45990944  0.27404466  1
  H  H19  1  0.23141283  0.54009056  0.72595534  1
  Pt  Pt0  1  0.23301476  0.67290461  0.56760299  1
  Pt  Pt1  1  0.73301476  0.32709539  0.43239701  1
loop_
_geom_bond_atom_site_label_1
_geom_bond_atom_site_label_2
_geom_bond_distance
_geom_bond_site_symmetry_2
Co0 H13 1.512977 1_556
Co0 H5 1.521586 1_555
Co0 H9 1.523450 1_555
Co0 H17 1.544232 1_555
Co0 H2 1.608791 1_555
Co0 H3 1.609882 1_546
Co1 H12 1.512977 1_554
Co1 H4 1.521586 1_555
Co1 H8 1.523450 1_555
Co1 H16 1.544232 1_555
Co1 H3 1.608791 1_455
Co1 H2 1.609882 1_564
H0 Pt0 1.757360 1_655
H0 Pt1 1.757664 1_555
H1 Pt1 1.757360 1_555
H1 Pt0 1.757664 1_555
H2 Sr0 2.853243 1_556
H2 Sr1 2.911637 1_545
H3 Sr1 2.853243 1_554
H3 Sr0 2.911637 1_665
H4 Sr0 2.526132 1_555
H4 Sr2 2.572419 1_455
H4 Sr1 2.683699 1_454
H5 Sr1 2.526132 1_555
H5 Sr3 2.572419 1_555
H5 Sr0 2.683699 1_556
H6 Pt1 1.671185 1_555
H6 Sr0 2.572088 1_555
H6 Sr2 2.646127 1_545
H7 Pt0 1.671185 1_655
H7 Sr1 2.572088 1_555
H7 Sr3 2.646127 1_665
H8 Sr2 2.579956 1_555
H8 Sr0 2.584386 1_555
H8 Sr1 2.630627 1_554
H9 Sr3 2.579956 1_655
H9 Sr1 2.584386 1_555
H9 Sr0 2.630627 1_656
H10 Pt1 1.671495 1_455
H10 Sr0 2.560592 1_555
H10 Sr2 2.642298 1_445
H11 Pt0 1.671495 1_555
H11 Sr1 2.560592 1_555
H11 Sr3 2.642298 1_565
H12 Sr1 2.455576 1_455
H12 Sr1 2.488935 1_555
H13 Sr0 2.455576 1_555
H13 Sr0 2.488935 1_655
H14 Pt1 1.620203 1_555
H14 Sr3 2.538782 1_655
H14 Sr3 2.539742 1_555
H15 Pt0 1.620203 1_555
H15 Sr2 2.538782 1_555
H15 Sr2 2.539742 1_455
H16 Sr0 2.571870 1_565
H16 Sr2 2.580894 1_555
H16 Sr2 2.605468 1_455
H17 Sr1 2.571870 1_545
H17 Sr3 2.580894 1_655
H17 Sr3 2.605468 1_555
H18 Pt1 1.651953 1_555
H18 Sr2 2.589958 1_555
H18 Sr0 2.748133 1_655
H18 Sr0 2.755098 1_555
H19 Pt0 1.651953 1_555
H19 Sr3 2.589958 1_555
H19 Sr1 2.748133 1_555
H19 Sr1 2.755098 1_455
