# generated using pymatgen
data_MgH11C5NO6
_symmetry_space_group_name_H-M   'P 1'
_cell_length_a   8.77184514
_cell_length_b   8.09171547
_cell_length_c   11.68075754
_cell_angle_alpha   90.00000000
_cell_angle_beta   90.00000000
_cell_angle_gamma   90.00000000
_symmetry_Int_Tables_number   1
_chemical_formula_structural   MgH11C5NO6
_chemical_formula_sum   'Mg4 H44 C20 N4 O24'
_cell_volume   829.09170124
_cell_formula_units_Z   4
loop_
 _symmetry_equiv_pos_site_id
 _symmetry_equiv_pos_as_xyz
  1  'x, y, z'
loop_
 _atom_site_type_symbol
 _atom_site_label
 _atom_site_symmetry_multiplicity
 _atom_site_fract_x
 _atom_site_fract_y
 _atom_site_fract_z
 _atom_site_occupancy
  Mg  Mg0  1  0.53511751  0.50233629  0.49949757  1
  Mg  Mg1  1  0.46488249  0.49766371  0.99949757  1
  Mg  Mg2  1  0.03511751  0.99766371  0.49949757  1
  Mg  Mg3  1  0.96488249  0.00233629  0.99949757  1
  H  H0  1  0.34132144  0.19711531  0.46194311  1
  H  H1  1  0.65867856  0.80288466  0.96194311  1
  H  H2  1  0.84132144  0.30288469  0.46194311  1
  H  H3  1  0.15867856  0.69711534  0.96194311  1
  H  H4  1  0.26741131  0.73372051  0.56165611  1
  H  H5  1  0.73258869  0.26627949  0.06165611  1
  H  H6  1  0.76741131  0.76627949  0.56165611  1
  H  H7  1  0.23258869  0.23372051  0.06165611  1
  H  H8  1  0.48361450  0.41855325  0.74267064  1
  H  H9  1  0.51638550  0.58144678  0.24267064  1
  H  H10  1  0.98361450  0.08144675  0.74267064  1
  H  H11  1  0.01638550  0.91855322  0.24267064  1
  H  H12  1  0.93196651  0.49575949  0.63170884  1
  H  H13  1  0.06803347  0.50424051  0.13170884  1
  H  H14  1  0.43196651  0.00424051  0.63170884  1
  H  H15  1  0.56803349  0.99575949  0.13170884  1
  H  H16  1  0.99415531  0.32232056  0.70988545  1
  H  H17  1  0.00584469  0.67767944  0.20988545  1
  H  H18  1  0.49415531  0.17767944  0.70988545  1
  H  H19  1  0.50584469  0.82232056  0.20988545  1
  H  H20  1  0.92126329  0.46809356  0.89362530  1
  H  H21  1  0.07873673  0.53190647  0.39362530  1
  H  H22  1  0.42126329  0.03190644  0.89362530  1
  H  H23  1  0.57873671  0.96809353  0.39362530  1
  H  H24  1  0.76495864  0.43169419  0.80289083  1
  H  H25  1  0.23504136  0.56830581  0.30289083  1
  H  H26  1  0.26495864  0.06830581  0.80289083  1
  H  H27  1  0.73504136  0.93169419  0.30289083  1
  H  H28  1  0.84474578  0.63296230  0.81155801  1
  H  H29  1  0.15525422  0.36703770  0.31155801  1
  H  H30  1  0.34474578  0.86703770  0.81155801  1
  H  H31  1  0.65525422  0.13296230  0.31155801  1
  H  H32  1  0.11914899  0.65782067  0.72338859  1
  H  H33  1  0.88085103  0.34217933  0.22338859  1
  H  H34  1  0.61914897  0.84217933  0.72338859  1
  H  H35  1  0.38085103  0.15782067  0.22338859  1
  H  H36  1  0.20252819  0.48839698  0.66430448  1
  H  H37  1  0.79747184  0.51160302  0.16430448  1
  H  H38  1  0.70252816  0.01160302  0.66430448  1
  H  H39  1  0.29747181  0.98839698  0.16430448  1
  H  H40  1  0.17580528  0.49495822  0.80709634  1
  H  H41  1  0.82419471  0.50504175  0.30709634  1
  H  H42  1  0.67580529  0.00504178  0.80709634  1
  H  H43  1  0.32419471  0.99495825  0.30709634  1
  C  C0  1  0.27361946  0.26494666  0.52591135  1
  C  C1  1  0.72638054  0.73505331  0.02591135  1
  C  C2  1  0.77361946  0.23505334  0.52591135  1
  C  C3  1  0.22638054  0.76494669  0.02591135  1
  C  C4  1  0.31107999  0.78032926  0.47925361  1
  C  C5  1  0.68892004  0.21967074  0.97925361  1
  C  C6  1  0.81107996  0.71967074  0.47925361  1
  C  C7  1  0.18892001  0.28032926  0.97925361  1
  C  C8  1  0.51123561  0.55095567  0.74912899  1
  C  C9  1  0.48876439  0.44904433  0.24912899  1
  C  C10  1  0.01123561  0.94904433  0.74912899  1
  C  C11  1  0.98876439  0.05095567  0.24912899  1
  C  C12  1  0.97561848  0.45483802  0.71449428  1
  C  C13  1  0.02438154  0.54516201  0.21449428  1
  C  C14  1  0.47561845  0.04516198  0.71449428  1
  C  C15  1  0.52438152  0.95483799  0.21449428  1
  C  C16  1  0.87059693  0.50120483  0.81135279  1
  C  C17  1  0.12940307  0.49879517  0.31135279  1
  C  C18  1  0.37059693  0.99879517  0.81135279  1
  C  C19  1  0.62940307  0.00120483  0.31135279  1
  N  N0  1  0.12963676  0.53094777  0.72878788  1
  N  N1  1  0.87036322  0.46905223  0.22878788  1
  N  N2  1  0.62963678  0.96905223  0.72878788  1
  N  N3  1  0.37036322  0.03094777  0.22878788  1
  O  O0  1  0.32730961  0.40271754  0.55926744  1
  O  O1  1  0.67269039  0.59728243  0.05926744  1
  O  O2  1  0.82730961  0.09728246  0.55926744  1
  O  O3  1  0.17269039  0.90271757  0.05926744  1
  O  O4  1  0.15132149  0.20281519  0.56113172  1
  O  O5  1  0.84867849  0.79718482  0.06113172  1
  O  O6  1  0.65132151  0.29718482  0.56113172  1
  O  O7  1  0.34867849  0.70281518  0.06113172  1
  O  O8  1  0.42489566  0.71094423  0.43592883  1
  O  O9  1  0.57510431  0.28905577  0.93592883  1
  O  O10  1  0.92489569  0.78905577  0.43592883  1
  O  O11  1  0.07510434  0.21094423  0.93592883  1
  O  O12  1  0.24083980  0.90272996  0.43626523  1
  O  O13  1  0.75916021  0.09727003  0.93626523  1
  O  O14  1  0.74083979  0.59727004  0.43626523  1
  O  O15  1  0.25916021  0.40272996  0.93626523  1
  O  O16  1  0.55145879  0.62474848  0.65826300  1
  O  O17  1  0.44854121  0.37525152  0.15826300  1
  O  O18  1  0.05145879  0.87525152  0.65826300  1
  O  O19  1  0.94854121  0.12474848  0.15826300  1
  O  O20  1  0.50053176  0.61840971  0.84563966  1
  O  O21  1  0.49946827  0.38159029  0.34563966  1
  O  O22  1  0.00053173  0.88159029  0.84563966  1
  O  O23  1  0.99946824  0.11840971  0.34563966  1
loop_
_geom_bond_atom_site_label_1
_geom_bond_atom_site_label_2
_geom_bond_distance
_geom_bond_site_symmetry_2
Mg0 O21 2.069358 1_555
Mg0 O6 2.076780 1_555
Mg0 O8 2.082182 1_555
Mg0 O14 2.095729 1_555
Mg0 O16 2.107334 1_555
Mg0 O0 2.111874 1_555
Mg1 O20 2.069358 1_555
Mg1 O7 2.076780 1_556
Mg1 O9 2.082181 1_555
Mg1 O15 2.095729 1_555
Mg1 O17 2.107334 1_556
Mg1 O1 2.111874 1_556
Mg2 O23 2.069358 1_465
Mg2 O4 2.076780 1_565
Mg2 O10 2.082181 1_455
Mg2 O12 2.095729 1_555
Mg2 O18 2.107334 1_555
Mg2 O2 2.111874 1_465
Mg3 O22 2.069358 1_645
Mg3 O5 2.076780 1_546
Mg3 O11 2.082182 1_655
Mg3 O13 2.095729 1_555
Mg3 O19 2.107334 1_556
Mg3 O3 2.111874 1_646
H32 N0 1.032661 1_555
H33 N1 1.032661 1_555
H34 N2 1.032661 1_555
H35 N3 1.032661 1_555
H36 N0 1.046281 1_555
H37 N1 1.046281 1_555
H38 N2 1.046281 1_545
H39 N3 1.046281 1_565
H40 N0 1.041873 1_555
H41 N1 1.041873 1_555
H42 N2 1.041873 1_545
H43 N3 1.041873 1_565
C0 H0 1.101021 1_555
C0 O4 1.254138 1_555
C0 O0 1.271376 1_555
C1 H1 1.101021 1_554
C1 O5 1.254138 1_555
C1 O1 1.271376 1_555
C2 H2 1.101021 1_555
C2 O6 1.254138 1_555
C2 O2 1.271376 1_555
C3 H3 1.101021 1_554
C3 O7 1.254138 1_555
C3 O3 1.271376 1_555
C4 H4 1.102461 1_555
C4 O8 1.252227 1_555
C4 O12 1.269929 1_555
C5 H5 1.102461 1_556
C5 O9 1.252227 1_555
C5 O13 1.269929 1_555
C6 H6 1.102461 1_555
C6 O10 1.252227 1_555
C6 O14 1.269929 1_555
C7 H7 1.102461 1_556
C7 O11 1.252227 1_555
C7 O15 1.269929 1_555
C8 H8 1.101005 1_555
C8 O20 1.256017 1_555
C8 O16 1.267898 1_555
C9 H9 1.101006 1_555
C9 O21 1.256017 1_555
C9 O17 1.267898 1_555
C10 H10 1.101005 1_465
C10 O22 1.256017 1_555
C10 O18 1.267898 1_555
C11 H11 1.101006 1_645
C11 O23 1.256017 1_555
C11 O19 1.267898 1_555
C12 H16 1.085887 1_555
C12 H12 1.091488 1_555
C12 N0 1.494130 1_655
C13 H17 1.085887 1_555
C13 H13 1.091488 1_555
C13 N1 1.494130 1_455
C14 H18 1.085887 1_555
C14 H14 1.091487 1_555
C14 N2 1.494130 1_545
C15 H19 1.085887 1_555
C15 H15 1.091488 1_555
C15 N3 1.494130 1_565
C16 H24 1.088484 1_555
C16 H28 1.089995 1_555
C16 H20 1.092172 1_555
C17 H25 1.088484 1_555
C17 H29 1.089995 1_555
C17 H21 1.092172 1_555
C18 H26 1.088484 1_565
C18 H30 1.089995 1_555
C18 H22 1.092172 1_565
C19 H27 1.088484 1_545
C19 H31 1.089995 1_555
C19 H23 1.092172 1_545
