# generated using pymatgen
data_Cs2BeBr4
_symmetry_space_group_name_H-M   'P 1'
_cell_length_a   7.58169978
_cell_length_b   10.18640806
_cell_length_c   13.17612224
_cell_angle_alpha   90.00000000
_cell_angle_beta   90.00000000
_cell_angle_gamma   90.00000000
_symmetry_Int_Tables_number   1
_chemical_formula_structural   Cs2BeBr4
_chemical_formula_sum   'Cs8 Be4 Br16'
_cell_volume   1017.59571159
_cell_formula_units_Z   4
loop_
 _symmetry_equiv_pos_site_id
 _symmetry_equiv_pos_as_xyz
  1  'x, y, z'
loop_
 _atom_site_type_symbol
 _atom_site_label
 _atom_site_symmetry_multiplicity
 _atom_site_fract_x
 _atom_site_fract_y
 _atom_site_fract_z
 _atom_site_occupancy
  Cs  Cs0  1  0.25000000  0.14541851  0.60216864  1
  Cs  Cs1  1  0.25000000  0.64541851  0.89783136  1
  Cs  Cs2  1  0.75000000  0.85458149  0.39783136  1
  Cs  Cs3  1  0.75000000  0.35458149  0.10216864  1
  Cs  Cs4  1  0.25000000  0.47549160  0.32693273  1
  Cs  Cs5  1  0.25000000  0.97549160  0.17306727  1
  Cs  Cs6  1  0.75000000  0.52450840  0.67306727  1
  Cs  Cs7  1  0.75000000  0.02450840  0.82693273  1
  Be  Be0  1  0.25000000  0.24351620  0.91998891  1
  Be  Be1  1  0.25000000  0.74351620  0.58001109  1
  Be  Be2  1  0.75000000  0.75648380  0.08001109  1
  Be  Be3  1  0.75000000  0.25648380  0.41998891  1
  Br  Br0  1  0.25000000  0.52873513  0.60021767  1
  Br  Br1  1  0.25000000  0.02873513  0.89978233  1
  Br  Br2  1  0.75000000  0.47126487  0.39978233  1
  Br  Br3  1  0.75000000  0.97126487  0.10021767  1
  Br  Br4  1  0.25000000  0.30587202  0.07984841  1
  Br  Br5  1  0.25000000  0.80587202  0.42015159  1
  Br  Br6  1  0.75000000  0.69412798  0.92015159  1
  Br  Br7  1  0.75000000  0.19412798  0.57984841  1
  Br  Br8  1  0.98694704  0.67564651  0.15216577  1
  Br  Br9  1  0.51305296  0.17564651  0.34783423  1
  Br  Br10  1  0.48694704  0.32435349  0.84783423  1
  Br  Br11  1  0.01305296  0.82435349  0.65216577  1
  Br  Br12  1  0.01305296  0.32435349  0.84783423  1
  Br  Br13  1  0.48694704  0.82435349  0.65216577  1
  Br  Br14  1  0.51305296  0.67564651  0.15216577  1
  Br  Br15  1  0.98694704  0.17564651  0.34783423  1
loop_
_geom_bond_atom_site_label_1
_geom_bond_atom_site_label_2
_geom_bond_distance
_geom_bond_site_symmetry_2
Be0 Br10 2.192988 1_555
Be0 Br12 2.192988 1_555
Be0 Br4 2.200017 1_556
Be0 Br1 2.203988 1_555
Be1 Br13 2.192988 1_555
Be1 Br11 2.192988 1_555
Be1 Br5 2.200017 1_555
Be1 Br0 2.203988 1_555
Be2 Br8 2.192988 1_555
Be2 Br14 2.192988 1_555
Be2 Br6 2.200017 1_554
Be2 Br3 2.203988 1_555
Be3 Br15 2.192988 1_555
Be3 Br9 2.192988 1_555
Be3 Br7 2.200017 1_555
Be3 Br2 2.203988 1_555
Br0 Cs4 3.641452 1_555
Br0 Cs0 3.904704 1_555
Br0 Cs6 3.910723 1_555
Br0 Cs6 3.910723 1_455
Br0 Cs1 4.097569 1_555
Br1 Cs5 3.641452 1_546
Br1 Cs1 3.904704 1_545
Br1 Cs7 3.910723 1_555
Br1 Cs7 3.910723 1_455
Br1 Cs0 4.097569 1_555
Br2 Cs6 3.641452 1_555
Br2 Cs2 3.904704 1_555
Br2 Cs4 3.910723 1_655
Br2 Cs4 3.910723 1_555
Br2 Cs3 4.097569 1_555
Br3 Cs7 3.641452 1_564
Br3 Cs3 3.904704 1_565
Br3 Cs5 3.910723 1_655
Br3 Cs5 3.910723 1_555
Br3 Cs2 4.097569 1_555
Br4 Cs5 3.582524 1_545
Br4 Cs4 3.685697 1_555
Br4 Cs3 3.834478 1_555
Br4 Cs3 3.834478 1_455
Br4 Cs1 4.208890 1_554
Br5 Cs4 3.582524 1_555
Br5 Cs5 3.685697 1_555
Br5 Cs2 3.834478 1_555
Br5 Cs2 3.834478 1_455
Br5 Cs0 4.208890 1_565
Br6 Cs7 3.582524 1_565
Br6 Cs6 3.685697 1_555
Br6 Cs1 3.834478 1_655
Br6 Cs1 3.834478 1_555
Br6 Cs3 4.208890 1_556
Br7 Cs6 3.582524 1_555
Br7 Cs7 3.685697 1_555
Br7 Cs0 3.834478 1_655
Br7 Cs0 3.834478 1_555
Br7 Cs2 4.208890 1_545
Br8 Cs5 3.658203 1_655
Br8 Cs4 3.665678 1_655
Br8 Cs3 3.789118 1_555
Br8 Cs1 3.911847 1_654
Br8 Cs2 4.126400 1_555
Br9 Cs4 3.658203 1_555
Br9 Cs5 3.665678 1_545
Br9 Cs2 3.789118 1_545
Br9 Cs0 3.911847 1_555
Br9 Cs3 4.126400 1_555
Br10 Cs7 3.658203 1_555
Br10 Cs6 3.665678 1_555
Br10 Cs1 3.789118 1_555
Br10 Cs3 3.911847 1_556
Br10 Cs0 4.126400 1_555
Br11 Cs6 3.658203 1_455
Br11 Cs7 3.665678 1_465
Br11 Cs0 3.789118 1_565
Br11 Cs2 3.911847 1_455
Br11 Cs1 4.126400 1_555
Br12 Cs7 3.658203 1_455
Br12 Cs6 3.665678 1_455
Br12 Cs1 3.789118 1_555
Br12 Cs3 3.911847 1_456
Br12 Cs0 4.126400 1_555
Br13 Cs6 3.658203 1_555
Br13 Cs7 3.665678 1_565
Br13 Cs0 3.789118 1_565
Br13 Cs2 3.911847 1_555
Br13 Cs1 4.126400 1_555
Br14 Cs5 3.658203 1_555
Br14 Cs4 3.665678 1_555
Br14 Cs3 3.789118 1_555
Br14 Cs1 3.911847 1_554
Br14 Cs2 4.126400 1_555
Br15 Cs4 3.658203 1_655
Br15 Cs5 3.665678 1_645
Br15 Cs2 3.789118 1_545
Br15 Cs0 3.911847 1_655
Br15 Cs3 4.126400 1_555
