# generated using pymatgen
data_UPt3
_symmetry_space_group_name_H-M   'P 1'
_cell_length_a   5.79871005
_cell_length_b   5.79867016
_cell_length_c   4.90437701
_cell_angle_alpha   89.99997960
_cell_angle_beta   90.00000000
_cell_angle_gamma   120.00018198
_symmetry_Int_Tables_number   1
_chemical_formula_structural   UPt3
_chemical_formula_sum   'U2 Pt6'
_cell_volume   142.81488759
_cell_formula_units_Z   2
loop_
 _symmetry_equiv_pos_site_id
 _symmetry_equiv_pos_as_xyz
  1  'x, y, z'
loop_
 _atom_site_type_symbol
 _atom_site_label
 _atom_site_symmetry_multiplicity
 _atom_site_fract_x
 _atom_site_fract_y
 _atom_site_fract_z
 _atom_site_occupancy
  U  U0  1  0.33333739  0.66667379  0.25000000  1
  U  U1  1  0.66666788  0.33334076  0.75000000  1
  Pt  Pt0  1  0.83746564  0.67493328  0.25000000  1
  Pt  Pt1  1  0.16256270  0.83743173  0.75000000  1
  Pt  Pt2  1  0.67486503  0.83742773  0.75000000  1
  Pt  Pt3  1  0.32506839  0.16253332  0.25000000  1
  Pt  Pt4  1  0.83746492  0.16253232  0.25000000  1
  Pt  Pt5  1  0.16256704  0.32513109  0.75000000  1
loop_
_geom_bond_atom_site_label_1
_geom_bond_atom_site_label_2
_geom_bond_distance
_geom_bond_site_symmetry_2
Pt0 Pt4 2.827428 1_565
Pt0 Pt3 2.827442 1_665
Pt0 U0 2.899643 1_555
Pt0 U0 2.899660 1_655
Pt0 Pt2 2.945930 1_554
Pt0 Pt2 2.945931 1_555
Pt0 Pt1 2.945937 1_654
Pt0 Pt1 2.945937 1_655
Pt0 Pt3 2.971233 1_555
Pt0 Pt4 2.971242 1_555
Pt0 U1 2.992631 1_555
Pt0 U1 2.992632 1_554
Pt1 Pt5 2.827995 1_565
Pt1 Pt2 2.828006 1_455
Pt1 U1 2.899588 1_455
Pt1 U1 2.899671 1_565
Pt1 Pt3 2.945943 1_565
Pt1 Pt3 2.945944 1_566
Pt1 Pt5 2.970675 1_555
Pt1 Pt2 2.970704 1_555
Pt1 U0 2.992465 1_556
Pt1 U0 2.992465 1_555
Pt2 Pt5 2.828029 1_665
Pt2 U1 2.899560 1_555
Pt2 U1 2.899695 1_565
Pt2 Pt4 2.945951 1_565
Pt2 Pt4 2.945952 1_566
Pt2 Pt5 2.970645 1_555
Pt2 U0 2.992451 1_556
Pt2 U0 2.992452 1_555
Pt3 Pt4 2.827468 1_455
Pt3 U0 2.899598 1_545
Pt3 U0 2.899667 1_555
Pt3 Pt5 2.945942 1_554
Pt3 Pt5 2.945942 1_555
Pt3 Pt4 2.971242 1_555
Pt3 U1 2.992658 1_554
Pt3 U1 2.992658 1_555
Pt4 U0 2.899594 1_545
Pt4 U0 2.899675 1_655
Pt4 Pt5 2.945951 1_654
Pt4 Pt5 2.945951 1_655
Pt4 U1 2.992674 1_554
Pt4 U1 2.992675 1_555
Pt5 U1 2.899625 1_555
Pt5 U1 2.899671 1_455
Pt5 U0 2.992487 1_555
Pt5 U0 2.992488 1_556
