# generated using pymatgen
data_TaMnRh3S8
_symmetry_space_group_name_H-M   'P 1'
_cell_length_a   6.85784086
_cell_length_b   6.85783990
_cell_length_c   6.85784132
_cell_angle_alpha   62.81279323
_cell_angle_beta   62.81278429
_cell_angle_gamma   62.81279158
_symmetry_Int_Tables_number   1
_chemical_formula_structural   TaMnRh3S8
_chemical_formula_sum   'Ta1 Mn1 Rh3 S8'
_cell_volume   242.32075343
_cell_formula_units_Z   1
loop_
 _symmetry_equiv_pos_site_id
 _symmetry_equiv_pos_as_xyz
  1  'x, y, z'
loop_
 _atom_site_type_symbol
 _atom_site_label
 _atom_site_symmetry_multiplicity
 _atom_site_fract_x
 _atom_site_fract_y
 _atom_site_fract_z
 _atom_site_occupancy
  Ta  Ta0  1  0.59643206  0.59643206  0.59643206  1
  Mn  Mn0  1  0.01242013  0.01242013  0.01242013  1
  Rh  Rh0  1  0.62601304  0.62601304  0.13615734  1
  Rh  Rh1  1  0.62601304  0.13615734  0.62601304  1
  Rh  Rh2  1  0.13615734  0.62601304  0.62601304  1
  S  S0  1  0.36584680  0.36584680  0.87545300  1
  S  S1  1  0.36584680  0.87545300  0.36584680  1
  S  S2  1  0.87545300  0.36584680  0.36584680  1
  S  S3  1  0.38736901  0.38736901  0.38736901  1
  S  S4  1  0.85954400  0.85954400  0.42043265  1
  S  S5  1  0.85954400  0.42043265  0.85954400  1
  S  S6  1  0.42043265  0.85954400  0.85954400  1
  S  S7  1  0.86892514  0.86892514  0.86892514  1
loop_
_geom_bond_atom_site_label_1
_geom_bond_atom_site_label_2
_geom_bond_distance
_geom_bond_site_symmetry_2
Mn0 S7 2.357941 1_444
Mn0 S5 2.381319 1_454
Mn0 S6 2.381319 1_544
Mn0 S4 2.381319 1_445
Rh0 S3 2.370534 1_555
Rh0 S1 2.386597 1_555
Rh0 S2 2.386597 1_555
Rh0 S5 2.399058 1_554
Rh0 S6 2.399059 1_554
Rh0 S7 2.421788 1_554
Rh1 S3 2.370535 1_555
Rh1 S2 2.386597 1_555
Rh1 S0 2.386597 1_555
Rh1 S4 2.399058 1_545
Rh1 S6 2.399058 1_545
Rh1 S7 2.421789 1_545
Rh2 S3 2.370534 1_555
Rh2 S1 2.386597 1_555
Rh2 S0 2.386597 1_555
Rh2 S5 2.399058 1_455
Rh2 S4 2.399059 1_455
Rh2 S7 2.421788 1_455
S0 Ta0 2.327567 1_555
S1 Ta0 2.327567 1_555
S2 Ta0 2.327567 1_555
S4 Ta0 2.638802 1_555
S5 Ta0 2.638803 1_555
S6 Ta0 2.638802 1_555
