# generated using pymatgen
data_Sr3Ca9(AlAs3)4
_symmetry_space_group_name_H-M   'P 1'
_cell_length_a   4.24608148
_cell_length_b   12.28565878
_cell_length_c   13.67704764
_cell_angle_alpha   90.10000405
_cell_angle_beta   90.00000000
_cell_angle_gamma   90.00000000
_symmetry_Int_Tables_number   1
_chemical_formula_structural   Sr3Ca9(AlAs3)4
_chemical_formula_sum   'Sr3 Ca9 Al4 As12'
_cell_volume   713.47452526
_cell_formula_units_Z   1
loop_
 _symmetry_equiv_pos_site_id
 _symmetry_equiv_pos_as_xyz
  1  'x, y, z'
loop_
 _atom_site_type_symbol
 _atom_site_label
 _atom_site_symmetry_multiplicity
 _atom_site_fract_x
 _atom_site_fract_y
 _atom_site_fract_z
 _atom_site_occupancy
  Sr  Sr0  1  0.25000000  0.84825949  0.49616013  1
  Sr  Sr1  1  0.25000000  0.35083344  0.00417669  1
  Sr  Sr2  1  0.75000000  0.15045501  0.50442548  1
  Ca  Ca0  1  0.75000000  0.22819107  0.21332653  1
  Ca  Ca1  1  0.75000000  0.43604954  0.39324436  1
  Ca  Ca2  1  0.25000000  0.56623730  0.60885518  1
  Ca  Ca3  1  0.75000000  0.93433883  0.10491360  1
  Ca  Ca4  1  0.25000000  0.06499343  0.89289681  1
  Ca  Ca5  1  0.25000000  0.27315630  0.71521845  1
  Ca  Ca6  1  0.75000000  0.72717374  0.28130639  1
  Ca  Ca7  1  0.25000000  0.77123461  0.78991768  1
  Ca  Ca8  1  0.75000000  0.64922796  0.99960076  1
  Al  Al0  1  0.75000000  0.93662130  0.70747263  1
  Al  Al1  1  0.25000000  0.06210593  0.29282440  1
  Al  Al2  1  0.25000000  0.56168201  0.20425901  1
  Al  Al3  1  0.75000000  0.43954625  0.79640769  1
  As  As0  1  0.75000000  0.46295703  0.15337614  1
  As  As1  1  0.25000000  0.54096603  0.84751313  1
  As  As2  1  0.75000000  0.96047946  0.34206820  1
  As  As3  1  0.25000000  0.03821451  0.65759817  1
  As  As4  1  0.75000000  0.39795435  0.61618529  1
  As  As5  1  0.25000000  0.60490276  0.38341560  1
  As  As6  1  0.75000000  0.89513843  0.88719871  1
  As  As7  1  0.25000000  0.10348975  0.11418533  1
  As  As8  1  0.75000000  0.25167564  0.86880629  1
  As  As9  1  0.25000000  0.74442927  0.12369123  1
  As  As10  1  0.75000000  0.75066315  0.63313925  1
  As  As11  1  0.25000000  0.24902340  0.36781684  1
loop_
_geom_bond_atom_site_label_1
_geom_bond_atom_site_label_2
_geom_bond_distance
_geom_bond_site_symmetry_2
Al0 As10 2.498995 1_555
Al0 As6 2.511270 1_555
Al0 As3 2.556058 1_565
Al0 As3 2.556058 1_665
Al0 Ca7 3.148864 1_555
Al0 Ca7 3.148864 1_655
Al1 As7 2.496464 1_555
Al1 As11 2.513416 1_555
Al1 As2 2.553963 1_545
Al1 As2 2.553963 1_445
Al1 Ca0 3.140185 1_555
Al1 Ca0 3.140185 1_455
Al2 As9 2.502733 1_555
Al2 As5 2.506301 1_555
Al2 As0 2.541614 1_455
Al2 As0 2.541614 1_555
Al2 Ca6 3.121550 1_455
Al2 Ca6 3.121550 1_555
Al3 As8 2.513138 1_555
Al3 As4 2.516444 1_555
Al3 As1 2.558390 1_655
Al3 As1 2.558390 1_555
As0 Ca0 2.999915 1_555
As0 Ca8 3.110832 1_554
As0 Sr1 3.249478 1_555
As0 Sr1 3.249478 1_655
As0 Ca1 3.297876 1_555
As1 Ca7 2.937951 1_555
As1 Sr1 3.172548 1_556
As1 Ca8 3.254779 1_455
As1 Ca8 3.254779 1_555
As1 Ca2 3.279408 1_555
As2 Ca6 2.982964 1_555
As2 Sr2 3.218737 1_565
As2 Ca3 3.258877 1_555
As2 Sr0 3.295436 1_655
As2 Sr0 3.295436 1_555
As3 Ca5 2.990738 1_555
As3 Sr0 3.209909 1_545
As3 Ca4 3.234392 1_555
As3 Sr2 3.287507 1_555
As3 Sr2 3.287507 1_455
As4 Ca5 2.949568 1_555
As4 Ca5 2.949568 1_655
As4 Ca2 2.965214 1_555
As4 Ca2 2.965214 1_655
As4 Ca1 3.085691 1_555
As4 Sr2 3.400887 1_555
As5 Ca6 2.953223 1_455
As5 Ca6 2.953223 1_555
As5 Ca1 2.971495 1_555
As5 Ca1 2.971495 1_455
As5 Ca2 3.120545 1_555
As5 Sr0 3.361636 1_555
As6 Ca7 2.930482 1_555
As6 Ca7 2.930482 1_655
As6 Ca4 2.977828 1_565
As6 Ca4 2.977828 1_665
As6 Ca3 3.015562 1_556
As6 Ca8 3.392208 1_555
As7 Ca0 2.947171 1_455
As7 Ca0 2.947171 1_555
As7 Ca3 2.973397 1_545
As7 Ca3 2.973397 1_445
As7 Ca4 3.062488 1_554
As7 Sr1 3.393221 1_555
As8 Ca5 2.998587 1_555
As8 Ca5 2.998587 1_655
As8 Sr1 3.067803 1_556
As8 Sr1 3.067803 1_656
As8 Ca4 3.143041 1_555
As8 Ca4 3.143041 1_655
As9 Ca8 2.957840 1_554
As9 Ca8 2.957840 1_454
As9 Ca6 3.033303 1_455
As9 Ca6 3.033303 1_555
As9 Ca3 3.165281 1_455
As9 Ca3 3.165281 1_555
As10 Ca7 3.027732 1_655
As10 Ca7 3.027732 1_555
As10 Sr0 3.076153 1_555
As10 Sr0 3.076153 1_655
As10 Ca2 3.122308 1_555
As10 Ca2 3.122308 1_655
As11 Ca0 3.005922 1_455
As11 Ca0 3.005922 1_555
As11 Sr2 3.077758 1_555
As11 Sr2 3.077758 1_455
As11 Ca1 3.147231 1_455
As11 Ca1 3.147231 1_555
