# generated using pymatgen
data_Ca6OsRuO12
_symmetry_space_group_name_H-M   'P 1'
_cell_length_a   5.83159808
_cell_length_b   5.53907094
_cell_length_c   9.69796114
_cell_angle_alpha   55.06742025
_cell_angle_beta   90.45277499
_cell_angle_gamma   90.08086429
_symmetry_Int_Tables_number   1
_chemical_formula_structural   Ca6OsRuO12
_chemical_formula_sum   'Ca6 Os1 Ru1 O12'
_cell_volume   256.80895353
_cell_formula_units_Z   1
loop_
 _symmetry_equiv_pos_site_id
 _symmetry_equiv_pos_as_xyz
  1  'x, y, z'
loop_
 _atom_site_type_symbol
 _atom_site_label
 _atom_site_symmetry_multiplicity
 _atom_site_fract_x
 _atom_site_fract_y
 _atom_site_fract_z
 _atom_site_occupancy
  Ca  Ca0  1  0.05642132  0.71658418  0.76791826  1
  Ca  Ca1  1  0.94357868  0.28341582  0.23208174  1
  Ca  Ca2  1  0.56705869  0.26143406  0.76068605  1
  Ca  Ca3  1  0.43294131  0.73856594  0.23931395  1
  Ca  Ca4  1  0.50000000  0.50000000  0.00000000  1
  Ca  Ca5  1  0.00000000  0.50000000  0.50000000  1
  Os  Os0  1  0.50000000  0.00000000  0.50000000  1
  Ru  Ru0  1  0.00000000  0.00000000  0.00000000  1
  O  O0  1  0.45257648  0.89452668  0.72004014  1
  O  O1  1  0.54742352  0.10547332  0.27995986  1
  O  O2  1  0.94721806  0.11345329  0.77070686  1
  O  O3  1  0.05278194  0.88654671  0.22929314  1
  O  O4  1  0.77363260  0.76204803  0.57274462  1
  O  O5  1  0.22636740  0.23795197  0.42725538  1
  O  O6  1  0.27807138  0.24275520  0.93199035  1
  O  O7  1  0.72192862  0.75724480  0.06800965  1
  O  O8  1  0.32633709  0.66566575  0.55597712  1
  O  O9  1  0.67366291  0.33433425  0.44402288  1
  O  O10  1  0.81619716  0.33532016  0.94927874  1
  O  O11  1  0.18380284  0.66467984  0.05072126  1
loop_
_geom_bond_atom_site_label_1
_geom_bond_atom_site_label_2
_geom_bond_distance
_geom_bond_site_symmetry_2
Ca0 O10 2.300580 1_455
Ca0 O2 2.304572 1_465
Ca0 O4 2.402412 1_455
Ca0 O0 2.451651 1_555
Ca0 O6 2.507070 1_555
Ca0 O11 2.687336 1_556
Ca0 O8 2.738263 1_555
Ca1 O11 2.300580 1_655
Ca1 O3 2.304572 1_645
Ca1 O5 2.402412 1_655
Ca1 O1 2.451651 1_555
Ca1 O7 2.507070 1_555
Ca1 O10 2.687336 1_554
Ca1 O9 2.738263 1_555
Ca2 O6 2.336158 1_555
Ca2 O2 2.346619 1_555
Ca2 O0 2.375057 1_545
Ca2 O8 2.408208 1_555
Ca2 O10 2.537125 1_555
Ca2 O4 2.588364 1_555
Ca2 O7 2.816061 1_546
Ca2 O9 2.930837 1_555
Ca3 O7 2.336158 1_555
Ca3 O3 2.346619 1_555
Ca3 O1 2.375057 1_565
Ca3 O9 2.408208 1_555
Ca3 O11 2.537125 1_555
Ca3 O5 2.588364 1_555
Ca3 O6 2.816061 1_564
Ca3 O8 2.930837 1_555
Ca4 O11 2.237644 1_555
Ca4 O10 2.237644 1_554
Ca4 O6 2.279886 1_554
Ca4 O7 2.279886 1_555
Ca4 O0 2.327766 1_554
Ca4 O1 2.327766 1_555
Ca5 O2 2.268226 1_455
Ca5 O3 2.268226 1_555
Ca5 O8 2.303835 1_555
Ca5 O9 2.303835 1_455
Ca5 O4 2.353723 1_455
Ca5 O5 2.353723 1_555
O0 Os0 1.884840 1_565
O1 Os0 1.884840 1_555
O2 Ru0 1.955446 1_656
O3 Ru0 1.955446 1_565
O4 Os0 1.924703 1_565
O5 Os0 1.924703 1_555
O6 Ru0 1.966658 1_556
O7 Ru0 1.966658 1_665
O8 Os0 1.897876 1_565
O9 Os0 1.897876 1_555
O10 Ru0 1.947211 1_656
O11 Ru0 1.947211 1_565
