# generated using pymatgen
data_LiTiIrRh
_symmetry_space_group_name_H-M   'P 1'
_cell_length_a   4.23588675
_cell_length_b   4.23588665
_cell_length_c   4.23588677
_cell_angle_alpha   60.00000675
_cell_angle_beta   60.00000748
_cell_angle_gamma   59.99999985
_symmetry_Int_Tables_number   1
_chemical_formula_structural   LiTiIrRh
_chemical_formula_sum   'Li1 Ti1 Ir1 Rh1'
_cell_volume   53.74252424
_cell_formula_units_Z   1
loop_
 _symmetry_equiv_pos_site_id
 _symmetry_equiv_pos_as_xyz
  1  'x, y, z'
loop_
 _atom_site_type_symbol
 _atom_site_label
 _atom_site_symmetry_multiplicity
 _atom_site_fract_x
 _atom_site_fract_y
 _atom_site_fract_z
 _atom_site_occupancy
  Li  Li0  1  0.50000000  0.50000000  0.50000000  1
  Ti  Ti0  1  0.00000000  0.00000000  0.00000000  1
  Ir  Ir0  1  0.75000000  0.75000000  0.75000000  1
  Rh  Rh0  1  0.25000000  0.25000000  0.25000000  1
loop_
_geom_bond_atom_site_label_1
_geom_bond_atom_site_label_2
_geom_bond_distance
_geom_bond_site_symmetry_2
Li0 Rh0 2.593940 1_555
Li0 Rh0 2.593940 1_565
Li0 Rh0 2.593940 1_655
Li0 Rh0 2.593941 1_556
Ir0 Li0 2.593940 1_555
Ir0 Ti0 2.593940 1_666
Ir0 Li0 2.593940 1_565
Ir0 Ti0 2.593940 1_656
Ir0 Ti0 2.593940 1_566
Ir0 Li0 2.593940 1_655
Ir0 Ti0 2.593941 1_665
Ir0 Li0 2.593941 1_556
Rh0 Ti0 2.593940 1_555
Rh0 Ti0 2.593940 1_565
Rh0 Ti0 2.593940 1_655
Rh0 Ti0 2.593941 1_556
