# generated using pymatgen
data_Hf6Ti2Re3Os
_symmetry_space_group_name_H-M   'P 1'
_cell_length_a   8.57373641
_cell_length_b   8.57373609
_cell_length_c   8.57022730
_cell_angle_alpha   60.01353692
_cell_angle_beta   60.01353812
_cell_angle_gamma   60.01570632
_symmetry_Int_Tables_number   1
_chemical_formula_structural   Hf6Ti2Re3Os
_chemical_formula_sum   'Hf12 Ti4 Re6 Os2'
_cell_volume   445.61311271
_cell_formula_units_Z   2
loop_
 _symmetry_equiv_pos_site_id
 _symmetry_equiv_pos_as_xyz
  1  'x, y, z'
loop_
 _atom_site_type_symbol
 _atom_site_label
 _atom_site_symmetry_multiplicity
 _atom_site_fract_x
 _atom_site_fract_y
 _atom_site_fract_z
 _atom_site_occupancy
  Hf  Hf0  1  0.80615740  0.80615740  0.19384260  1
  Hf  Hf1  1  0.19365605  0.19365605  0.80634395  1
  Hf  Hf2  1  0.80607870  0.19381418  0.80646575  1
  Hf  Hf3  1  0.19381418  0.80607870  0.19364136  1
  Hf  Hf4  1  0.19381418  0.80607870  0.80646575  1
  Hf  Hf5  1  0.80607870  0.19381418  0.19364136  1
  Hf  Hf6  1  0.44467385  0.44467385  0.05532615  1
  Hf  Hf7  1  0.05612492  0.05612492  0.44387508  1
  Hf  Hf8  1  0.44339403  0.05574097  0.44482060  1
  Hf  Hf9  1  0.05574097  0.44339403  0.05604439  1
  Hf  Hf10  1  0.05574097  0.44339403  0.44482060  1
  Hf  Hf11  1  0.44339403  0.05574097  0.05604439  1
  Ti  Ti0  1  0.12199627  0.62704058  0.62548208  1
  Ti  Ti1  1  0.62704058  0.12199627  0.62548208  1
  Ti  Ti2  1  0.62575339  0.62575339  0.12409129  1
  Ti  Ti3  1  0.62575339  0.62575339  0.62440193  1
  Re  Re0  1  0.75242621  0.41531317  0.41612981  1
  Re  Re1  1  0.41531317  0.75242621  0.41612981  1
  Re  Re2  1  0.41539436  0.41539436  0.75281605  1
  Re  Re3  1  0.41539436  0.41539436  0.41639322  1
  Re  Re4  1  0.49836856  0.83388588  0.83387378  1
  Re  Re5  1  0.83388588  0.49836856  0.83387378  1
  Os  Os0  1  0.83500342  0.83500342  0.49495434  1
  Os  Os1  1  0.83500342  0.83500342  0.83503982  1
loop_
_geom_bond_atom_site_label_1
_geom_bond_atom_site_label_2
_geom_bond_distance
_geom_bond_site_symmetry_2
Hf0 Os1 2.849356 1_554
Hf0 Os0 2.849365 1_555
Hf0 Re0 3.058619 1_555
Hf0 Re1 3.058619 1_555
Hf0 Ti2 3.062983 1_555
Hf0 Ti3 3.062983 1_555
Hf0 Hf9 3.184407 1_655
Hf0 Hf10 3.184407 1_655
Hf0 Hf8 3.184407 1_565
Hf0 Hf11 3.184407 1_565
Hf0 Hf5 3.322468 1_565
Hf0 Hf2 3.322468 1_564
Hf0 Hf4 3.322468 1_654
Hf0 Hf3 3.322468 1_655
Hf1 Re4 2.868714 1_545
Hf1 Re5 2.868714 1_455
Hf1 Re2 3.050904 1_555
Hf1 Re3 3.050912 1_555
Hf1 Ti0 3.082152 1_555
Hf1 Ti1 3.082152 1_555
Hf1 Hf9 3.175317 1_556
Hf1 Hf10 3.175317 1_555
Hf1 Hf11 3.175317 1_556
Hf1 Hf8 3.175317 1_555
Hf1 Hf3 3.321787 1_546
Hf1 Hf4 3.321787 1_545
Hf1 Hf5 3.321787 1_456
Hf1 Hf2 3.321787 1_455
Hf2 Os1 2.851403 1_545
Hf2 Re5 2.867321 1_555
Hf2 Re0 3.053461 1_555
Hf2 Re2 3.057185 1_555
Hf2 Ti1 3.069308 1_555
Hf2 Ti3 3.074422 1_555
Hf2 Hf6 3.177124 1_556
Hf2 Hf7 3.181853 1_655
Hf2 Hf5 3.318183 1_556
Hf2 Hf4 3.325131 1_645
Hf3 Os0 2.851407 1_455
Hf3 Re4 2.867311 1_554
Hf3 Re1 3.053454 1_555
Hf3 Re3 3.057178 1_555
Hf3 Ti0 3.069315 1_555
Hf3 Ti2 3.074422 1_555
Hf3 Hf6 3.177124 1_555
Hf3 Hf7 3.181853 1_565
Hf3 Hf4 3.318183 1_554
Hf3 Hf5 3.325131 1_465
Hf4 Os1 2.851403 1_455
Hf4 Re4 2.867321 1_555
Hf4 Re1 3.053461 1_555
Hf4 Re2 3.057185 1_555
Hf4 Ti0 3.069308 1_555
Hf4 Ti3 3.074422 1_555
Hf4 Hf8 3.175547 1_565
Hf4 Hf6 3.177124 1_556
Hf4 Hf7 3.181853 1_565
Hf4 Hf9 3.185232 1_556
Hf5 Os0 2.851407 1_545
Hf5 Re5 2.867311 1_554
Hf5 Re0 3.053454 1_555
Hf5 Re3 3.057178 1_555
Hf5 Ti1 3.069315 1_555
Hf5 Ti2 3.074422 1_555
Hf5 Hf9 3.175547 1_655
Hf5 Hf6 3.177124 1_555
Hf5 Hf7 3.181853 1_655
Hf5 Hf8 3.185232 1_555
Hf6 Re3 2.865575 1_555
Hf6 Re2 2.865592 1_554
Hf6 Re4 3.046469 1_554
Hf6 Re5 3.046469 1_554
Hf6 Ti3 3.066980 1_554
Hf6 Ti2 3.066980 1_555
Hf6 Hf8 3.337028 1_555
Hf6 Hf9 3.337028 1_555
Hf7 Re0 2.862225 1_455
Hf7 Re1 2.862225 1_545
Hf7 Os0 3.051780 1_445
Hf7 Os1 3.051784 1_445
Hf7 Ti0 3.058404 1_545
Hf7 Ti1 3.058404 1_455
Hf7 Hf9 3.322755 1_555
Hf7 Hf8 3.322755 1_555
Hf8 Re3 2.862348 1_555
Hf8 Re1 2.864505 1_545
Hf8 Re4 3.048413 1_545
Hf8 Os0 3.052442 1_545
Hf8 Ti3 3.062148 1_545
Hf8 Ti1 3.067435 1_555
Hf9 Re2 2.862355 1_554
Hf9 Re0 2.864501 1_455
Hf9 Re5 3.048398 1_454
Hf9 Os1 3.052438 1_454
Hf9 Ti2 3.062148 1_455
Hf9 Ti0 3.067428 1_554
Hf10 Re3 2.862348 1_555
Hf10 Re0 2.864506 1_455
Hf10 Re5 3.048413 1_455
Hf10 Os0 3.052441 1_455
Hf10 Ti3 3.062148 1_455
Hf10 Ti0 3.067435 1_555
Hf10 Hf2 3.175547 1_455
Hf10 Hf3 3.185232 1_555
Hf10 Hf7 3.322755 1_555
Hf10 Hf8 3.324424 1_555
Hf10 Hf9 3.331901 1_555
Hf10 Hf6 3.337028 1_555
Hf11 Re2 2.862355 1_554
Hf11 Re1 2.864500 1_545
Hf11 Re4 3.048398 1_544
Hf11 Os1 3.052438 1_544
Hf11 Ti2 3.062148 1_545
Hf11 Ti1 3.067428 1_554
Hf11 Hf3 3.175547 1_545
Hf11 Hf2 3.185232 1_554
Hf11 Hf7 3.322755 1_555
Hf11 Hf9 3.324424 1_555
Hf11 Hf8 3.331901 1_555
Hf11 Hf6 3.337028 1_555
Re0 Ti2 2.635083 1_555
Re0 Ti3 2.635090 1_555
Re0 Ti1 2.638769 1_555
Re0 Re2 2.888143 1_555
Re0 Re3 2.888147 1_555
Re0 Re1 2.891004 1_555
Re1 Ti2 2.635083 1_555
Re1 Ti3 2.635090 1_555
Re1 Ti0 2.638769 1_555
Re1 Re2 2.888142 1_555
Re1 Re3 2.888147 1_555
Re2 Ti3 2.645752 1_555
Re2 Ti1 2.648319 1_555
Re2 Ti0 2.648319 1_555
Re2 Re3 2.883220 1_555
Re3 Ti2 2.645747 1_555
Re3 Ti1 2.648333 1_555
Re3 Ti0 2.648333 1_555
Re4 Ti1 2.617825 1_565
Re4 Ti2 2.625689 1_556
Re4 Ti3 2.625703 1_555
Re4 Re5 2.877320 1_555
Re5 Ti0 2.617825 1_655
Re5 Ti2 2.625689 1_556
Re5 Ti3 2.625703 1_555
Os0 Ti1 2.618692 1_565
Os0 Ti0 2.618693 1_655
Os0 Ti3 2.627950 1_555
Os0 Re5 2.896039 1_555
Os0 Re4 2.896039 1_555
Os0 Os1 2.914610 1_555
Os1 Ti1 2.618692 1_565
Os1 Ti0 2.618693 1_655
Os1 Ti2 2.627948 1_556
Os1 Re5 2.896035 1_555
Os1 Re4 2.896035 1_555
