# generated using pymatgen
data_HfNb2InC2
_symmetry_space_group_name_H-M   'P 1'
_cell_length_a   6.41258580
_cell_length_b   6.41258403
_cell_length_c   39.77994656
_cell_angle_alpha   90.00000000
_cell_angle_beta   90.00000000
_cell_angle_gamma   120.00000909
_symmetry_Int_Tables_number   1
_chemical_formula_structural   HfNb2InC2
_chemical_formula_sum   'Hf16 Nb32 In16 C32'
_cell_volume   1416.64504017
_cell_formula_units_Z   16
loop_
 _symmetry_equiv_pos_site_id
 _symmetry_equiv_pos_as_xyz
  1  'x, y, z'
loop_
 _atom_site_type_symbol
 _atom_site_label
 _atom_site_symmetry_multiplicity
 _atom_site_fract_x
 _atom_site_fract_y
 _atom_site_fract_z
 _atom_site_occupancy
  Hf  Hf0_0  1  0.00000000  0.00000000  0.25000000  1
  Hf  Hf0_1  1  0.00000000  0.00000000  0.75000000  1
  Hf  Hf0_2  1  0.00000000  0.50000000  0.25000000  1
  Hf  Hf0_3  1  0.00000000  0.50000000  0.75000000  1
  Hf  Hf0_4  1  0.50000000  0.00000000  0.25000000  1
  Hf  Hf0_5  1  0.50000000  0.00000000  0.75000000  1
  Hf  Hf0_6  1  0.50000000  0.50000000  0.25000000  1
  Hf  Hf0_7  1  0.50000000  0.50000000  0.75000000  1
  Hf  Hf1_0  1  0.00000000  0.00000000  0.00000000  1
  Hf  Hf1_1  1  0.00000000  0.00000000  0.50000000  1
  Hf  Hf1_2  1  0.00000000  0.50000000  0.00000000  1
  Hf  Hf1_3  1  0.00000000  0.50000000  0.50000000  1
  Hf  Hf1_4  1  0.50000000  0.00000000  0.00000000  1
  Hf  Hf1_5  1  0.50000000  0.00000000  0.50000000  1
  Hf  Hf1_6  1  0.50000000  0.50000000  0.00000000  1
  Hf  Hf1_7  1  0.50000000  0.50000000  0.50000000  1
  Nb  Nb0_0  1  0.16666650  0.33333350  0.06443264  1
  Nb  Nb0_1  1  0.16666650  0.33333350  0.56443264  1
  Nb  Nb0_2  1  0.16666650  0.83333350  0.06443264  1
  Nb  Nb0_3  1  0.16666650  0.83333350  0.56443264  1
  Nb  Nb0_4  1  0.66666650  0.33333350  0.06443264  1
  Nb  Nb0_5  1  0.66666650  0.33333350  0.56443264  1
  Nb  Nb0_6  1  0.66666650  0.83333350  0.06443264  1
  Nb  Nb0_7  1  0.66666650  0.83333350  0.56443264  1
  Nb  Nb1_0  1  0.33333350  0.16666650  0.31443264  1
  Nb  Nb1_1  1  0.33333350  0.16666650  0.81443264  1
  Nb  Nb1_2  1  0.33333350  0.66666650  0.31443264  1
  Nb  Nb1_3  1  0.33333350  0.66666650  0.81443264  1
  Nb  Nb1_4  1  0.83333350  0.16666650  0.31443264  1
  Nb  Nb1_5  1  0.83333350  0.16666650  0.81443264  1
  Nb  Nb1_6  1  0.83333350  0.66666650  0.31443264  1
  Nb  Nb1_7  1  0.83333350  0.66666650  0.81443264  1
  Nb  Nb2_0  1  0.16666650  0.33333350  0.18556736  1
  Nb  Nb2_1  1  0.16666650  0.33333350  0.68556736  1
  Nb  Nb2_2  1  0.16666650  0.83333350  0.18556736  1
  Nb  Nb2_3  1  0.16666650  0.83333350  0.68556736  1
  Nb  Nb2_4  1  0.66666650  0.33333350  0.18556736  1
  Nb  Nb2_5  1  0.66666650  0.33333350  0.68556736  1
  Nb  Nb2_6  1  0.66666650  0.83333350  0.18556736  1
  Nb  Nb2_7  1  0.66666650  0.83333350  0.68556736  1
  Nb  Nb3_0  1  0.33333350  0.16666650  0.43556736  1
  Nb  Nb3_1  1  0.33333350  0.16666650  0.93556736  1
  Nb  Nb3_2  1  0.33333350  0.66666650  0.43556736  1
  Nb  Nb3_3  1  0.33333350  0.66666650  0.93556736  1
  Nb  Nb3_4  1  0.83333350  0.16666650  0.43556736  1
  Nb  Nb3_5  1  0.83333350  0.16666650  0.93556736  1
  Nb  Nb3_6  1  0.83333350  0.66666650  0.43556736  1
  Nb  Nb3_7  1  0.83333350  0.66666650  0.93556736  1
  In  In0_0  1  0.00000000  0.00000000  0.12500000  1
  In  In0_1  1  0.00000000  0.00000000  0.62500000  1
  In  In0_2  1  0.00000000  0.50000000  0.12500000  1
  In  In0_3  1  0.00000000  0.50000000  0.62500000  1
  In  In0_4  1  0.50000000  0.00000000  0.12500000  1
  In  In0_5  1  0.50000000  0.00000000  0.62500000  1
  In  In0_6  1  0.50000000  0.50000000  0.12500000  1
  In  In0_7  1  0.50000000  0.50000000  0.62500000  1
  In  In1_0  1  0.00000000  0.00000000  0.37500000  1
  In  In1_1  1  0.00000000  0.00000000  0.87500000  1
  In  In1_2  1  0.00000000  0.50000000  0.37500000  1
  In  In1_3  1  0.00000000  0.50000000  0.87500000  1
  In  In1_4  1  0.50000000  0.00000000  0.37500000  1
  In  In1_5  1  0.50000000  0.00000000  0.87500000  1
  In  In1_6  1  0.50000000  0.50000000  0.37500000  1
  In  In1_7  1  0.50000000  0.50000000  0.87500000  1
  C  C0_0  1  0.33333350  0.16666650  0.21522842  1
  C  C0_1  1  0.33333350  0.16666650  0.71522842  1
  C  C0_2  1  0.33333350  0.66666650  0.21522842  1
  C  C0_3  1  0.33333350  0.66666650  0.71522842  1
  C  C0_4  1  0.83333350  0.16666650  0.21522842  1
  C  C0_5  1  0.83333350  0.16666650  0.71522842  1
  C  C0_6  1  0.83333350  0.66666650  0.21522842  1
  C  C0_7  1  0.83333350  0.66666650  0.71522842  1
  C  C1_0  1  0.33333350  0.16666650  0.03477158  1
  C  C1_1  1  0.33333350  0.16666650  0.53477158  1
  C  C1_2  1  0.33333350  0.66666650  0.03477158  1
  C  C1_3  1  0.33333350  0.66666650  0.53477158  1
  C  C1_4  1  0.83333350  0.16666650  0.03477158  1
  C  C1_5  1  0.83333350  0.16666650  0.53477158  1
  C  C1_6  1  0.83333350  0.66666650  0.03477158  1
  C  C1_7  1  0.83333350  0.66666650  0.53477158  1
  C  C2_0  1  0.16666650  0.33333350  0.28477158  1
  C  C2_1  1  0.16666650  0.33333350  0.78477158  1
  C  C2_2  1  0.16666650  0.83333350  0.28477158  1
  C  C2_3  1  0.16666650  0.83333350  0.78477158  1
  C  C2_4  1  0.66666650  0.33333350  0.28477158  1
  C  C2_5  1  0.66666650  0.33333350  0.78477158  1
  C  C2_6  1  0.66666650  0.83333350  0.28477158  1
  C  C2_7  1  0.66666650  0.83333350  0.78477158  1
  C  C3_0  1  0.16666650  0.33333350  0.46522842  1
  C  C3_1  1  0.16666650  0.33333350  0.96522842  1
  C  C3_2  1  0.16666650  0.83333350  0.46522842  1
  C  C3_3  1  0.16666650  0.83333350  0.96522842  1
  C  C3_4  1  0.66666650  0.33333350  0.46522842  1
  C  C3_5  1  0.66666650  0.33333350  0.96522842  1
  C  C3_6  1  0.66666650  0.83333350  0.46522842  1
  C  C3_7  1  0.66666650  0.83333350  0.96522842  1
loop_
_geom_bond_atom_site_label_1
_geom_bond_atom_site_label_2
_geom_bond_distance
_geom_bond_site_symmetry_2
In0_0 Nb2_2 3.038390 1_545
In0_0 Nb0_2 3.038390 1_545
In0_0 Nb2_0 3.038391 1_555
In0_0 Nb0_0 3.038391 1_555
In0_0 Nb2_6 3.038391 1_445
In0_0 Nb0_6 3.038391 1_445
In0_0 In0_2 3.206292 1_555
In0_0 In0_2 3.206292 1_545
In0_0 In0_6 3.206292 1_555
In0_0 In0_6 3.206292 1_445
In0_0 In0_4 3.206293 1_555
In0_0 In0_4 3.206293 1_455
In0_1 Nb2_3 3.038390 1_545
In0_1 Nb0_3 3.038390 1_545
In0_1 Nb2_1 3.038391 1_555
In0_1 Nb0_1 3.038391 1_555
In0_1 Nb2_7 3.038391 1_445
In0_1 Nb0_7 3.038391 1_445
In0_1 In0_3 3.206292 1_555
In0_1 In0_3 3.206292 1_545
In0_1 In0_7 3.206292 1_555
In0_1 In0_7 3.206292 1_445
In0_1 In0_5 3.206293 1_555
In0_1 In0_5 3.206293 1_455
In0_2 Nb2_0 3.038390 1_555
In0_2 Nb0_0 3.038390 1_555
In0_2 Nb2_2 3.038391 1_555
In0_2 Nb0_2 3.038391 1_555
In0_2 Nb2_4 3.038391 1_455
In0_2 Nb0_4 3.038391 1_455
In0_2 In0_4 3.206292 1_455
In0_2 In0_4 3.206292 1_565
In0_2 In0_6 3.206293 1_455
In0_2 In0_6 3.206293 1_555
In0_3 Nb2_1 3.038390 1_555
In0_3 Nb0_1 3.038390 1_555
In0_3 Nb2_3 3.038391 1_555
In0_3 Nb0_3 3.038391 1_555
In0_3 Nb2_5 3.038391 1_455
In0_3 Nb0_5 3.038391 1_455
In0_3 In0_5 3.206292 1_455
In0_3 In0_5 3.206292 1_565
In0_3 In0_7 3.206293 1_455
In0_3 In0_7 3.206293 1_555
In0_4 Nb2_6 3.038390 1_545
In0_4 Nb0_6 3.038390 1_545
In0_4 Nb2_4 3.038391 1_555
In0_4 Nb0_4 3.038391 1_555
In0_4 Nb2_2 3.038391 1_545
In0_4 Nb0_2 3.038391 1_545
In0_4 In0_6 3.206292 1_555
In0_4 In0_6 3.206292 1_545
In0_5 Nb2_7 3.038390 1_545
In0_5 Nb0_7 3.038390 1_545
In0_5 Nb2_5 3.038391 1_555
In0_5 Nb0_5 3.038391 1_555
In0_5 Nb2_3 3.038391 1_545
In0_5 Nb0_3 3.038391 1_545
In0_5 In0_7 3.206292 1_545
In0_5 In0_7 3.206292 1_555
In0_6 Nb2_4 3.038390 1_555
In0_6 Nb0_4 3.038390 1_555
In0_6 Nb2_6 3.038391 1_555
In0_6 Nb0_6 3.038391 1_555
In0_6 Nb2_0 3.038391 1_555
In0_6 Nb0_0 3.038391 1_555
In0_7 Nb2_5 3.038390 1_555
In0_7 Nb0_5 3.038390 1_555
In0_7 Nb2_7 3.038391 1_555
In0_7 Nb0_7 3.038391 1_555
In0_7 Nb2_1 3.038391 1_555
In0_7 Nb0_1 3.038391 1_555
In1_0 Nb3_4 3.038390 1_455
In1_0 Nb1_4 3.038390 1_455
In1_0 Nb3_6 3.038391 1_445
In1_0 Nb1_6 3.038391 1_445
In1_0 Nb3_0 3.038391 1_555
In1_0 Nb1_0 3.038391 1_555
In1_0 In1_2 3.206292 1_555
In1_0 In1_2 3.206292 1_545
In1_0 In1_6 3.206292 1_555
In1_0 In1_6 3.206292 1_445
In1_0 In1_4 3.206293 1_555
In1_0 In1_4 3.206293 1_455
In1_1 Nb3_5 3.038390 1_455
In1_1 Nb1_5 3.038390 1_455
In1_1 Nb3_7 3.038391 1_445
In1_1 Nb1_7 3.038391 1_445
In1_1 Nb3_1 3.038391 1_555
In1_1 Nb1_1 3.038391 1_555
In1_1 In1_3 3.206292 1_555
In1_1 In1_3 3.206292 1_545
In1_1 In1_7 3.206292 1_555
In1_1 In1_7 3.206292 1_445
In1_1 In1_5 3.206293 1_555
In1_1 In1_5 3.206293 1_455
In1_2 Nb3_6 3.038390 1_455
In1_2 Nb1_6 3.038390 1_455
In1_2 Nb3_4 3.038391 1_455
In1_2 Nb1_4 3.038391 1_455
In1_2 Nb3_2 3.038391 1_555
In1_2 Nb1_2 3.038391 1_555
In1_2 In1_4 3.206292 1_455
In1_2 In1_4 3.206292 1_565
In1_2 In1_6 3.206293 1_455
In1_2 In1_6 3.206293 1_555
In1_3 Nb3_7 3.038390 1_455
In1_3 Nb1_7 3.038390 1_455
In1_3 Nb3_5 3.038391 1_455
In1_3 Nb1_5 3.038391 1_455
In1_3 Nb3_3 3.038391 1_555
In1_3 Nb1_3 3.038391 1_555
In1_3 In1_5 3.206292 1_455
In1_3 In1_5 3.206292 1_565
In1_3 In1_7 3.206293 1_555
In1_3 In1_7 3.206293 1_455
In1_4 Nb3_0 3.038390 1_555
In1_4 Nb1_0 3.038390 1_555
In1_4 Nb3_2 3.038391 1_545
In1_4 Nb1_2 3.038391 1_545
In1_4 Nb3_4 3.038391 1_555
In1_4 Nb1_4 3.038391 1_555
In1_4 In1_6 3.206292 1_555
In1_4 In1_6 3.206292 1_545
In1_5 Nb3_1 3.038390 1_555
In1_5 Nb1_1 3.038390 1_555
In1_5 Nb3_3 3.038391 1_545
In1_5 Nb1_3 3.038391 1_545
In1_5 Nb3_5 3.038391 1_555
In1_5 Nb1_5 3.038391 1_555
In1_5 In1_7 3.206292 1_545
In1_5 In1_7 3.206292 1_555
In1_6 Nb3_2 3.038390 1_555
In1_6 Nb1_2 3.038390 1_555
In1_6 Nb3_0 3.038391 1_555
In1_6 Nb1_0 3.038391 1_555
In1_6 Nb3_6 3.038391 1_555
In1_6 Nb1_6 3.038391 1_555
In1_7 Nb3_3 3.038390 1_555
In1_7 Nb1_3 3.038390 1_555
In1_7 Nb3_1 3.038391 1_555
In1_7 Nb1_1 3.038391 1_555
In1_7 Nb3_7 3.038391 1_555
In1_7 Nb1_7 3.038391 1_555
C0_0 Nb2_2 2.195213 1_545
C0_0 Nb2_4 2.195214 1_555
C0_0 Nb2_0 2.195218 1_555
C0_0 Hf0_4 2.310852 1_555
C0_0 Hf0_6 2.310854 1_555
C0_0 Hf0_0 2.310855 1_555
C0_1 Nb2_3 2.195213 1_545
C0_1 Nb2_5 2.195214 1_555
C0_1 Nb2_1 2.195218 1_555
C0_1 Hf0_5 2.310852 1_555
C0_1 Hf0_7 2.310854 1_555
C0_1 Hf0_1 2.310855 1_555
C0_2 Nb2_0 2.195213 1_555
C0_2 Nb2_6 2.195214 1_555
C0_2 Nb2_2 2.195218 1_555
C0_2 Hf0_6 2.310852 1_555
C0_2 Hf0_4 2.310854 1_565
C0_2 Hf0_2 2.310855 1_555
C0_3 Nb2_1 2.195213 1_555
C0_3 Nb2_7 2.195214 1_555
C0_3 Nb2_3 2.195218 1_555
C0_3 Hf0_7 2.310852 1_555
C0_3 Hf0_5 2.310854 1_565
C0_3 Hf0_3 2.310855 1_555
C0_4 Nb2_6 2.195213 1_545
C0_4 Nb2_0 2.195214 1_655
C0_4 Nb2_4 2.195218 1_555
C0_4 Hf0_0 2.310852 1_655
C0_4 Hf0_2 2.310854 1_655
C0_4 Hf0_4 2.310855 1_555
C0_5 Nb2_7 2.195213 1_545
C0_5 Nb2_1 2.195214 1_655
C0_5 Nb2_5 2.195218 1_555
C0_5 Hf0_1 2.310852 1_655
C0_5 Hf0_3 2.310854 1_655
C0_5 Hf0_5 2.310855 1_555
C0_6 Nb2_4 2.195213 1_555
C0_6 Nb2_2 2.195214 1_655
C0_6 Nb2_6 2.195218 1_555
C0_6 Hf0_2 2.310852 1_655
C0_6 Hf0_0 2.310854 1_665
C0_6 Hf0_6 2.310855 1_555
C0_7 Nb2_5 2.195213 1_555
C0_7 Nb2_3 2.195214 1_655
C0_7 Nb2_7 2.195218 1_555
C0_7 Hf0_3 2.310852 1_655
C0_7 Hf0_1 2.310854 1_665
C0_7 Hf0_7 2.310855 1_555
C1_0 Nb0_2 2.195213 1_545
C1_0 Nb0_4 2.195214 1_555
C1_0 Nb0_0 2.195218 1_555
C1_0 Hf1_4 2.310852 1_555
C1_0 Hf1_6 2.310854 1_555
C1_0 Hf1_0 2.310855 1_555
C1_1 Nb0_3 2.195213 1_545
C1_1 Nb0_5 2.195214 1_555
C1_1 Nb0_1 2.195218 1_555
C1_1 Hf1_5 2.310852 1_555
C1_1 Hf1_7 2.310854 1_555
C1_1 Hf1_1 2.310855 1_555
C1_2 Nb0_0 2.195213 1_555
C1_2 Nb0_6 2.195214 1_555
C1_2 Nb0_2 2.195218 1_555
C1_2 Hf1_6 2.310852 1_555
C1_2 Hf1_4 2.310854 1_565
C1_2 Hf1_2 2.310855 1_555
C1_3 Nb0_1 2.195213 1_555
C1_3 Nb0_7 2.195214 1_555
C1_3 Nb0_3 2.195218 1_555
C1_3 Hf1_7 2.310852 1_555
C1_3 Hf1_5 2.310854 1_565
C1_3 Hf1_3 2.310855 1_555
C1_4 Nb0_6 2.195213 1_545
C1_4 Nb0_0 2.195214 1_655
C1_4 Nb0_4 2.195218 1_555
C1_4 Hf1_0 2.310852 1_655
C1_4 Hf1_2 2.310854 1_655
C1_4 Hf1_4 2.310855 1_555
C1_5 Nb0_7 2.195213 1_545
C1_5 Nb0_1 2.195214 1_655
C1_5 Nb0_5 2.195218 1_555
C1_5 Hf1_1 2.310852 1_655
C1_5 Hf1_3 2.310854 1_655
C1_5 Hf1_5 2.310855 1_555
C1_6 Nb0_4 2.195213 1_555
C1_6 Nb0_2 2.195214 1_655
C1_6 Nb0_6 2.195218 1_555
C1_6 Hf1_2 2.310852 1_655
C1_6 Hf1_0 2.310854 1_665
C1_6 Hf1_6 2.310855 1_555
C1_7 Nb0_5 2.195213 1_555
C1_7 Nb0_3 2.195214 1_655
C1_7 Nb0_7 2.195218 1_555
C1_7 Hf1_3 2.310852 1_655
C1_7 Hf1_1 2.310854 1_665
C1_7 Hf1_7 2.310855 1_555
C2_0 Nb1_2 2.195213 1_555
C2_0 Nb1_4 2.195214 1_455
C2_0 Nb1_0 2.195218 1_555
C2_0 Hf0_2 2.310852 1_555
C2_0 Hf0_0 2.310854 1_555
C2_0 Hf0_6 2.310855 1_555
C2_1 Nb1_3 2.195213 1_555
C2_1 Nb1_5 2.195214 1_455
C2_1 Nb1_1 2.195218 1_555
C2_1 Hf0_3 2.310852 1_555
C2_1 Hf0_1 2.310854 1_555
C2_1 Hf0_7 2.310855 1_555
C2_2 Nb1_0 2.195213 1_565
C2_2 Nb1_6 2.195214 1_455
C2_2 Nb1_2 2.195218 1_555
C2_2 Hf0_0 2.310852 1_565
C2_2 Hf0_2 2.310854 1_555
C2_2 Hf0_4 2.310855 1_565
C2_3 Nb1_1 2.195213 1_565
C2_3 Nb1_7 2.195214 1_455
C2_3 Nb1_3 2.195218 1_555
C2_3 Hf0_1 2.310852 1_565
C2_3 Hf0_3 2.310854 1_555
C2_3 Hf0_5 2.310855 1_565
C2_4 Nb1_6 2.195213 1_555
C2_4 Nb1_0 2.195214 1_555
C2_4 Nb1_4 2.195218 1_555
C2_4 Hf0_6 2.310852 1_555
C2_4 Hf0_4 2.310854 1_555
C2_4 Hf0_2 2.310855 1_655
C2_5 Nb1_7 2.195213 1_555
C2_5 Nb1_1 2.195214 1_555
C2_5 Nb1_5 2.195218 1_555
C2_5 Hf0_7 2.310852 1_555
C2_5 Hf0_5 2.310854 1_555
C2_5 Hf0_3 2.310855 1_655
C2_6 Nb1_4 2.195213 1_565
C2_6 Nb1_2 2.195214 1_555
C2_6 Nb1_6 2.195218 1_555
C2_6 Hf0_4 2.310852 1_565
C2_6 Hf0_6 2.310854 1_555
C2_6 Hf0_0 2.310855 1_665
C2_7 Nb1_5 2.195213 1_565
C2_7 Nb1_3 2.195214 1_555
C2_7 Nb1_7 2.195218 1_555
C2_7 Hf0_5 2.310852 1_565
C2_7 Hf0_7 2.310854 1_555
C2_7 Hf0_1 2.310855 1_665
C3_0 Nb3_2 2.195213 1_555
C3_0 Nb3_4 2.195214 1_455
C3_0 Nb3_0 2.195218 1_555
C3_0 Hf1_3 2.310852 1_555
C3_0 Hf1_1 2.310854 1_555
C3_0 Hf1_7 2.310855 1_555
C3_1 Nb3_3 2.195213 1_555
C3_1 Nb3_5 2.195214 1_455
C3_1 Nb3_1 2.195218 1_555
C3_1 Hf1_2 2.310852 1_556
C3_1 Hf1_0 2.310854 1_556
C3_1 Hf1_6 2.310855 1_556
C3_2 Nb3_0 2.195213 1_565
C3_2 Nb3_6 2.195214 1_455
C3_2 Nb3_2 2.195218 1_555
C3_2 Hf1_1 2.310852 1_565
C3_2 Hf1_3 2.310854 1_555
C3_2 Hf1_5 2.310855 1_565
C3_3 Nb3_1 2.195213 1_565
C3_3 Nb3_7 2.195214 1_455
C3_3 Nb3_3 2.195218 1_555
C3_3 Hf1_0 2.310852 1_566
C3_3 Hf1_2 2.310854 1_556
C3_3 Hf1_4 2.310855 1_566
C3_4 Nb3_6 2.195213 1_555
C3_4 Nb3_0 2.195214 1_555
C3_4 Nb3_4 2.195218 1_555
C3_4 Hf1_7 2.310852 1_555
C3_4 Hf1_5 2.310854 1_555
C3_4 Hf1_3 2.310855 1_655
C3_5 Nb3_7 2.195213 1_555
C3_5 Nb3_1 2.195214 1_555
C3_5 Nb3_5 2.195218 1_555
C3_5 Hf1_6 2.310852 1_556
C3_5 Hf1_4 2.310854 1_556
C3_5 Hf1_2 2.310855 1_656
C3_6 Nb3_4 2.195213 1_565
C3_6 Nb3_2 2.195214 1_555
C3_6 Nb3_6 2.195218 1_555
C3_6 Hf1_5 2.310852 1_565
C3_6 Hf1_7 2.310854 1_555
C3_6 Hf1_1 2.310855 1_665
C3_7 Nb3_5 2.195213 1_565
C3_7 Nb3_3 2.195214 1_555
C3_7 Nb3_7 2.195218 1_555
C3_7 Hf1_4 2.310852 1_566
C3_7 Hf1_6 2.310854 1_556
C3_7 Hf1_0 2.310855 1_666
