# generated using pymatgen
data_Hf5Zr3(Pt2C)2
_symmetry_space_group_name_H-M   'P 1'
_cell_length_a   8.81935168
_cell_length_b   8.81935186
_cell_length_c   8.81935271
_cell_angle_alpha   60.00000418
_cell_angle_beta   60.00000349
_cell_angle_gamma   60.00000514
_symmetry_Int_Tables_number   1
_chemical_formula_structural   Hf5Zr3(Pt2C)2
_chemical_formula_sum   'Hf10 Zr6 Pt8 C4'
_cell_volume   485.05957965
_cell_formula_units_Z   2
loop_
 _symmetry_equiv_pos_site_id
 _symmetry_equiv_pos_as_xyz
  1  'x, y, z'
loop_
 _atom_site_type_symbol
 _atom_site_label
 _atom_site_symmetry_multiplicity
 _atom_site_fract_x
 _atom_site_fract_y
 _atom_site_fract_z
 _atom_site_occupancy
  Hf  Hf0  1  0.11771678  0.62742841  0.62742841  1
  Hf  Hf1  1  0.62742841  0.11771678  0.62742841  1
  Hf  Hf2  1  0.62742841  0.62742841  0.11771678  1
  Hf  Hf3  1  0.62742841  0.62742841  0.62742841  1
  Hf  Hf4  1  0.81793129  0.81793129  0.18206871  1
  Hf  Hf5  1  0.18206871  0.18206871  0.81793129  1
  Hf  Hf6  1  0.81793129  0.18206871  0.81793129  1
  Hf  Hf7  1  0.18206871  0.81793129  0.18206871  1
  Hf  Hf8  1  0.18206871  0.81793129  0.81793129  1
  Hf  Hf9  1  0.81793129  0.18206871  0.18206871  1
  Zr  Zr0  1  0.43374549  0.43374549  0.06625451  1
  Zr  Zr1  1  0.06625451  0.06625451  0.43374549  1
  Zr  Zr2  1  0.43374549  0.06625451  0.43374549  1
  Zr  Zr3  1  0.06625451  0.43374549  0.06625451  1
  Zr  Zr4  1  0.06625451  0.43374549  0.43374549  1
  Zr  Zr5  1  0.43374549  0.06625451  0.06625451  1
  Pt  Pt0  1  0.76178431  0.41273890  0.41273890  1
  Pt  Pt1  1  0.41273890  0.76178431  0.41273890  1
  Pt  Pt2  1  0.41273890  0.41273890  0.76178431  1
  Pt  Pt3  1  0.41273890  0.41273890  0.41273890  1
  Pt  Pt4  1  0.46720361  0.84426513  0.84426513  1
  Pt  Pt5  1  0.84426513  0.46720361  0.84426513  1
  Pt  Pt6  1  0.84426513  0.84426513  0.46720361  1
  Pt  Pt7  1  0.84426513  0.84426513  0.84426513  1
  C  C0  1  0.62693172  0.12435609  0.12435609  1
  C  C1  1  0.12435609  0.62693172  0.12435609  1
  C  C2  1  0.12435609  0.12435609  0.62693172  1
  C  C3  1  0.12435609  0.12435609  0.12435609  1
loop_
_geom_bond_atom_site_label_1
_geom_bond_atom_site_label_2
_geom_bond_distance
_geom_bond_site_symmetry_2
Hf0 Pt7 2.750190 1_455
Hf0 Pt5 2.750206 1_455
Hf0 Pt6 2.750206 1_455
Hf0 Pt1 2.769840 1_555
Hf0 Pt2 2.769840 1_555
Hf0 Pt3 2.769845 1_555
Hf1 Pt7 2.750190 1_545
Hf1 Pt4 2.750206 1_545
Hf1 Pt6 2.750206 1_545
Hf1 Pt0 2.769840 1_555
Hf1 Pt2 2.769840 1_555
Hf1 Pt3 2.769845 1_555
Hf2 Pt7 2.750190 1_554
Hf2 Pt5 2.750206 1_554
Hf2 Pt4 2.750206 1_554
Hf2 Pt1 2.769841 1_555
Hf2 Pt0 2.769841 1_555
Hf2 Pt3 2.769845 1_555
Hf3 Pt6 2.750185 1_555
Hf3 Pt5 2.750185 1_555
Hf3 Pt4 2.750185 1_555
Hf3 Pt2 2.769847 1_555
Hf3 Pt1 2.769848 1_555
Hf3 Pt0 2.769848 1_555
Hf4 Pt6 2.766519 1_555
Hf4 Pt7 2.766528 1_554
Hf5 Pt5 2.766524 1_455
Hf5 Pt4 2.766524 1_545
Hf6 Pt5 2.766519 1_555
Hf6 Pt7 2.766527 1_545
Hf7 Pt6 2.766524 1_455
Hf7 Pt4 2.766524 1_554
Hf8 Pt4 2.766519 1_555
Hf8 Pt7 2.766527 1_455
Hf9 Pt6 2.766524 1_545
Hf9 Pt5 2.766524 1_554
Pt0 Zr4 2.882427 1_655
Pt0 Zr1 2.882432 1_655
Pt0 Zr3 2.882432 1_655
Pt1 Zr2 2.882427 1_565
Pt1 Zr1 2.882432 1_565
Pt1 Zr5 2.882432 1_565
Pt2 Zr0 2.882427 1_556
Pt2 Zr3 2.882432 1_556
Pt2 Zr5 2.882432 1_556
Pt3 Zr4 2.882435 1_555
Pt3 Zr2 2.882436 1_555
Pt3 Zr0 2.882436 1_555
C0 Hf9 2.308569 1_555
C0 Hf4 2.308570 1_545
C0 Hf6 2.308570 1_554
C0 Zr5 2.331666 1_555
C0 Zr0 2.331667 1_555
C0 Zr2 2.331667 1_555
C1 Hf7 2.308569 1_555
C1 Hf4 2.308570 1_455
C1 Hf8 2.308570 1_554
C1 Zr3 2.331666 1_555
C1 Zr0 2.331667 1_555
C1 Zr4 2.331667 1_555
C2 Hf5 2.308570 1_555
C2 Hf6 2.308570 1_455
C2 Hf8 2.308570 1_545
C2 Zr1 2.331666 1_555
C2 Zr2 2.331667 1_555
C2 Zr4 2.331667 1_555
C3 Hf9 2.308570 1_455
C3 Hf7 2.308570 1_545
C3 Hf5 2.308570 1_554
C3 Zr5 2.331666 1_555
C3 Zr3 2.331666 1_555
C3 Zr1 2.331667 1_555
