# generated using pymatgen
data_NiAgIO6
_symmetry_space_group_name_H-M   'P 1'
_cell_length_a   4.97895094
_cell_length_b   4.97895198
_cell_length_c   5.02350978
_cell_angle_alpha   90.00000000
_cell_angle_beta   90.00000000
_cell_angle_gamma   120.00000507
_symmetry_Int_Tables_number   1
_chemical_formula_structural   NiAgIO6
_chemical_formula_sum   'Ni1 Ag1 I1 O6'
_cell_volume   107.84838507
_cell_formula_units_Z   1
loop_
 _symmetry_equiv_pos_site_id
 _symmetry_equiv_pos_as_xyz
  1  'x, y, z'
loop_
 _atom_site_type_symbol
 _atom_site_label
 _atom_site_symmetry_multiplicity
 _atom_site_fract_x
 _atom_site_fract_y
 _atom_site_fract_z
 _atom_site_occupancy
  Ni  Ni0  1  0.66666700  0.33333300  0.50000000  1
  Ag  Ag0  1  0.33333300  0.66666700  0.00000000  1
  I  I0  1  0.00000000  0.00000000  0.50000000  1
  O  O0  1  0.33503048  0.03734941  0.70849833  1
  O  O1  1  0.96265059  0.66496952  0.29150167  1
  O  O2  1  0.33503048  0.29768107  0.29150167  1
  O  O3  1  0.70231893  0.03734941  0.29150167  1
  O  O4  1  0.96265059  0.29768107  0.70849833  1
  O  O5  1  0.70231893  0.66496952  0.70849833  1
loop_
_geom_bond_atom_site_label_1
_geom_bond_atom_site_label_2
_geom_bond_distance
_geom_bond_site_symmetry_2
Ni0 O4 1.887297 1_555
Ni0 O3 1.887298 1_555
Ni0 O0 1.887300 1_555
Ni0 O1 1.887300 1_555
Ni0 O2 1.887301 1_555
Ni0 O5 1.887302 1_555
Ag0 O1 2.352680 1_455
Ag0 O0 2.352680 1_564
Ag0 O4 2.352682 1_454
Ag0 O3 2.352682 1_565
Ag0 O5 2.352684 1_554
Ag0 O2 2.352684 1_555
I0 O0 1.898413 1_555
I0 O2 1.898413 1_555
I0 O3 1.898413 1_455
I0 O5 1.898413 1_445
I0 O4 1.898413 1_455
I0 O1 1.898413 1_445
