# generated using pymatgen
data_Hf16Ni4Os3W
_symmetry_space_group_name_H-M   'P 1'
_cell_length_a   8.59259236
_cell_length_b   8.59259181
_cell_length_c   8.59259273
_cell_angle_alpha   59.90979304
_cell_angle_beta   59.90979674
_cell_angle_gamma   59.90979493
_symmetry_Int_Tables_number   1
_chemical_formula_structural   Hf16Ni4Os3W
_chemical_formula_sum   'Hf16 Ni4 Os3 W1'
_cell_volume   447.68031473
_cell_formula_units_Z   1
loop_
 _symmetry_equiv_pos_site_id
 _symmetry_equiv_pos_as_xyz
  1  'x, y, z'
loop_
 _atom_site_type_symbol
 _atom_site_label
 _atom_site_symmetry_multiplicity
 _atom_site_fract_x
 _atom_site_fract_y
 _atom_site_fract_z
 _atom_site_occupancy
  Hf  Hf0  1  0.68994772  0.10326164  0.10326164  1
  Hf  Hf1  1  0.10326164  0.68994772  0.10326164  1
  Hf  Hf2  1  0.10326164  0.10326164  0.68994772  1
  Hf  Hf3  1  0.10505692  0.10505692  0.10505692  1
  Hf  Hf4  1  0.31469192  0.31469192  0.68290427  1
  Hf  Hf5  1  0.68488580  0.68488580  0.31463267  1
  Hf  Hf6  1  0.31469192  0.68290427  0.31469192  1
  Hf  Hf7  1  0.68488580  0.31463267  0.68488580  1
  Hf  Hf8  1  0.68290427  0.31469192  0.31469192  1
  Hf  Hf9  1  0.31463267  0.68488580  0.68488580  1
  Hf  Hf10  1  0.95462928  0.95462928  0.54544459  1
  Hf  Hf11  1  0.54674346  0.54674346  0.95378575  1
  Hf  Hf12  1  0.95462928  0.54544459  0.95462928  1
  Hf  Hf13  1  0.54674346  0.95378575  0.54674346  1
  Hf  Hf14  1  0.54544459  0.95462928  0.95462928  1
  Hf  Hf15  1  0.95378575  0.54674346  0.54674346  1
  Ni  Ni0  1  0.32467331  0.89265142  0.89265142  1
  Ni  Ni1  1  0.89265142  0.32467331  0.89265142  1
  Ni  Ni2  1  0.89265142  0.89265142  0.32467331  1
  Ni  Ni3  1  0.89119879  0.89119879  0.89119879  1
  Os  Os0  1  0.99756157  0.33464493  0.33464493  1
  Os  Os1  1  0.33464493  0.99756157  0.33464493  1
  Os  Os2  1  0.33464493  0.33464493  0.99756157  1
  W  W0  1  0.33177549  0.33177549  0.33177549  1
loop_
_geom_bond_atom_site_label_1
_geom_bond_atom_site_label_2
_geom_bond_distance
_geom_bond_site_symmetry_2
Hf0 Ni1 2.576422 1_554
Hf0 Ni2 2.576422 1_545
Hf0 Ni3 2.577035 1_544
Hf0 W0 2.988254 1_555
Hf0 Os2 2.996950 1_554
Hf0 Os1 2.996950 1_545
Hf0 Hf14 3.101543 1_544
Hf0 Hf11 3.108078 1_554
Hf0 Hf13 3.108078 1_545
Hf0 Hf8 3.113475 1_555
Hf0 Hf5 3.123248 1_545
Hf0 Hf7 3.123248 1_554
Hf1 Ni0 2.576422 1_554
Hf1 Ni2 2.576422 1_455
Hf1 Ni3 2.577035 1_454
Hf1 W0 2.988254 1_555
Hf1 Os0 2.996950 1_455
Hf1 Os2 2.996950 1_554
Hf1 Hf12 3.101543 1_454
Hf1 Hf11 3.108078 1_554
Hf1 Hf15 3.108078 1_455
Hf1 Hf6 3.113475 1_555
Hf1 Hf5 3.123248 1_455
Hf1 Hf9 3.123249 1_554
Hf2 Ni0 2.576422 1_545
Hf2 Ni1 2.576422 1_455
Hf2 Ni3 2.577035 1_445
Hf2 W0 2.988254 1_555
Hf2 Os0 2.996950 1_455
Hf2 Os1 2.996950 1_545
Hf2 Hf4 3.113475 1_555
Hf2 Hf9 3.123248 1_545
Hf2 Hf7 3.123248 1_455
Hf3 Ni2 2.579966 1_445
Hf3 Ni1 2.579966 1_454
Hf3 Ni0 2.579966 1_544
Hf3 Os2 2.980739 1_554
Hf3 Os0 2.980739 1_455
Hf3 Os1 2.980739 1_545
Hf3 Hf6 3.130049 1_545
Hf3 Hf4 3.130049 1_554
Hf3 Hf8 3.130049 1_455
Hf4 W0 2.877403 1_555
Hf4 Os2 2.885827 1_555
Hf4 Ni0 3.113838 1_545
Hf4 Ni1 3.113838 1_455
Hf4 Hf6 3.159584 1_555
Hf4 Hf8 3.159584 1_555
Hf4 Hf9 3.189239 1_555
Hf4 Hf7 3.189240 1_555
Hf5 Os0 2.853351 1_555
Hf5 Os1 2.853351 1_555
Hf5 Ni3 3.120796 1_554
Hf5 Ni2 3.144251 1_555
Hf5 Hf7 3.177095 1_555
Hf5 Hf9 3.177096 1_555
Hf5 Hf8 3.189239 1_555
Hf5 Hf6 3.189240 1_555
Hf6 W0 2.877402 1_555
Hf6 Os1 2.885827 1_555
Hf6 Ni2 3.113838 1_455
Hf6 Ni0 3.113838 1_554
Hf6 Hf8 3.159584 1_555
Hf6 Hf9 3.189240 1_555
Hf7 Os2 2.853351 1_555
Hf7 Os0 2.853351 1_555
Hf7 Ni3 3.120795 1_545
Hf7 Ni1 3.144251 1_555
Hf7 Hf9 3.177095 1_555
Hf7 Hf8 3.189240 1_555
Hf8 W0 2.877402 1_555
Hf8 Os0 2.885827 1_555
Hf8 Ni2 3.113838 1_545
Hf8 Ni1 3.113838 1_554
Hf9 Os2 2.853351 1_555
Hf9 Os1 2.853351 1_555
Hf9 Ni3 3.120796 1_455
Hf9 Ni0 3.144251 1_555
Hf10 Ni3 2.543828 1_555
Hf10 Ni2 2.544839 1_555
Hf10 Os0 2.947280 1_565
Hf10 Os1 2.947280 1_655
Hf10 Hf3 3.086575 1_665
Hf10 Hf2 3.101543 1_665
Hf10 Hf7 3.181057 1_565
Hf10 Hf9 3.181057 1_655
Hf10 Hf8 3.194110 1_565
Hf10 Hf6 3.194110 1_655
Hf11 Ni0 2.550253 1_555
Hf11 Ni1 2.550253 1_555
Hf11 Os2 2.956353 1_555
Hf11 W0 2.960164 1_556
Hf11 Hf8 3.171780 1_556
Hf11 Hf6 3.171780 1_556
Hf11 Hf9 3.197220 1_555
Hf11 Hf7 3.197220 1_555
Hf12 Ni3 2.543827 1_555
Hf12 Ni1 2.544839 1_555
Hf12 Os2 2.947280 1_655
Hf12 Os0 2.947280 1_556
Hf12 Hf3 3.086575 1_656
Hf12 Hf9 3.181057 1_655
Hf12 Hf5 3.181057 1_556
Hf12 Hf8 3.194110 1_556
Hf12 Hf4 3.194110 1_655
Hf13 Ni2 2.550253 1_555
Hf13 Ni0 2.550253 1_555
Hf13 Os1 2.956353 1_555
Hf13 W0 2.960164 1_565
Hf13 Hf2 3.108078 1_565
Hf13 Hf8 3.171780 1_565
Hf13 Hf4 3.171780 1_565
Hf13 Hf9 3.197220 1_555
Hf13 Hf5 3.197220 1_555
Hf14 Ni3 2.543827 1_555
Hf14 Ni0 2.544839 1_555
Hf14 Os2 2.947280 1_565
Hf14 Os1 2.947280 1_556
Hf14 Hf3 3.086575 1_566
Hf14 Hf7 3.181056 1_565
Hf14 Hf5 3.181057 1_556
Hf14 Hf4 3.194110 1_565
Hf14 Hf6 3.194110 1_556
Hf15 Ni2 2.550253 1_555
Hf15 Ni1 2.550253 1_555
Hf15 Os0 2.956353 1_555
Hf15 W0 2.960164 1_655
Hf15 Hf2 3.108078 1_655
Hf15 Hf4 3.171780 1_655
Hf15 Hf6 3.171780 1_655
Hf15 Hf7 3.197220 1_555
Hf15 Hf5 3.197220 1_555
Os0 W0 2.847254 1_655
Os0 Os1 2.892470 1_645
Os0 Os2 2.892470 1_654
Os1 W0 2.847254 1_565
Os1 Os2 2.892470 1_564
Os2 W0 2.847254 1_556
