# generated using pymatgen
data_Li3Ca2AsN4
_symmetry_space_group_name_H-M   'P 1'
_cell_length_a   5.71493932
_cell_length_b   5.71493901
_cell_length_c   10.53282987
_cell_angle_alpha   61.38203824
_cell_angle_beta   61.38204143
_cell_angle_gamma   55.52241159
_symmetry_Int_Tables_number   1
_chemical_formula_structural   Li3Ca2AsN4
_chemical_formula_sum   'Li6 Ca4 As2 N8'
_cell_volume   238.44981382
_cell_formula_units_Z   2
loop_
 _symmetry_equiv_pos_site_id
 _symmetry_equiv_pos_as_xyz
  1  'x, y, z'
loop_
 _atom_site_type_symbol
 _atom_site_label
 _atom_site_symmetry_multiplicity
 _atom_site_fract_x
 _atom_site_fract_y
 _atom_site_fract_z
 _atom_site_occupancy
  Li  Li0  1  0.34458994  0.65541006  0.25000000  1
  Li  Li1  1  0.65541006  0.34458994  0.75000000  1
  Li  Li2  1  0.56124304  0.00997822  0.09070124  1
  Li  Li3  1  0.99002178  0.43875696  0.40929876  1
  Li  Li4  1  0.00997822  0.56124304  0.59070124  1
  Li  Li5  1  0.43875696  0.99002178  0.90929876  1
  Ca  Ca0  1  0.13253278  0.58072506  0.08219277  1
  Ca  Ca1  1  0.86746722  0.41927494  0.91780723  1
  Ca  Ca2  1  0.41927494  0.86746722  0.41780723  1
  Ca  Ca3  1  0.58072506  0.13253278  0.58219277  1
  As  As0  1  0.83507285  0.16492715  0.25000000  1
  As  As1  1  0.16492715  0.83507285  0.75000000  1
  N  N0  1  0.09932435  0.16938540  0.59475773  1
  N  N1  1  0.72978965  0.47396638  0.30877819  1
  N  N2  1  0.27021035  0.52603362  0.69122181  1
  N  N3  1  0.52603362  0.27021035  0.19122181  1
  N  N4  1  0.16938540  0.09932435  0.09475773  1
  N  N5  1  0.47396638  0.72978965  0.80877819  1
  N  N6  1  0.90067565  0.83061460  0.40524227  1
  N  N7  1  0.83061460  0.90067565  0.90524227  1
loop_
_geom_bond_atom_site_label_1
_geom_bond_atom_site_label_2
_geom_bond_distance
_geom_bond_site_symmetry_2
Li0 N3 2.100199 1_555
Li0 N1 2.100199 1_555
Li0 N4 2.197956 1_565
Li0 N6 2.197956 1_455
Li1 N5 2.100199 1_555
Li1 N2 2.100199 1_555
Li1 N7 2.197956 1_545
Li1 N0 2.197956 1_655
Li2 N7 1.943035 1_544
Li2 N4 1.977949 1_555
Li2 N3 2.082967 1_555
Li3 N0 1.943035 1_655
Li3 N6 1.977949 1_555
Li3 N1 2.082967 1_555
Li4 N6 1.943035 1_455
Li4 N0 1.977949 1_555
Li4 N2 2.082967 1_555
Li5 N4 1.943035 1_566
Li5 N7 1.977949 1_555
Li5 N5 2.082967 1_555
Ca0 N3 2.351320 1_555
Ca0 N7 2.457301 1_454
Ca0 N1 2.509712 1_455
Ca0 N4 2.579292 1_555
Ca0 N5 2.641122 1_554
Ca1 N5 2.351320 1_555
Ca1 N4 2.457301 1_656
Ca1 N2 2.509712 1_655
Ca1 N7 2.579292 1_555
Ca1 N3 2.641122 1_556
Ca2 N1 2.351320 1_555
Ca2 N0 2.457301 1_565
Ca2 N3 2.509712 1_565
Ca2 N6 2.579292 1_555
Ca2 N2 2.641122 1_555
Ca3 N2 2.351320 1_555
Ca3 N6 2.457301 1_545
Ca3 N5 2.509712 1_545
Ca3 N0 2.579292 1_555
Ca3 N1 2.641122 1_555
As0 N6 1.802270 1_545
As0 N4 1.802270 1_655
As0 N1 1.830857 1_555
As0 N3 1.830857 1_555
As1 N0 1.802270 1_565
As1 N7 1.802270 1_455
As1 N2 1.830857 1_555
As1 N5 1.830857 1_555
