# generated using pymatgen
data_La4PdO7
_symmetry_space_group_name_H-M   'P 1'
_cell_length_a   7.00387798
_cell_length_b   7.00387798
_cell_length_c   9.42316710
_cell_angle_alpha   49.28313334
_cell_angle_beta   49.28313334
_cell_angle_gamma   33.97793476
_symmetry_Int_Tables_number   1
_chemical_formula_structural   La4PdO7
_chemical_formula_sum   'La4 Pd1 O7'
_cell_volume   188.91477321
_cell_formula_units_Z   1
loop_
 _symmetry_equiv_pos_site_id
 _symmetry_equiv_pos_as_xyz
  1  'x, y, z'
loop_
 _atom_site_type_symbol
 _atom_site_label
 _atom_site_symmetry_multiplicity
 _atom_site_fract_x
 _atom_site_fract_y
 _atom_site_fract_z
 _atom_site_occupancy
  La  La0  1  0.58469500  0.58469500  0.61138300  1
  La  La1  1  0.41530500  0.41530500  0.38861700  1
  La  La2  1  0.74936800  0.74936800  0.84026700  1
  La  La3  1  0.25063200  0.25063200  0.15973300  1
  Pd  Pd0  1  0.00000000  0.00000000  0.00000000  1
  O  O0  1  0.79719000  0.79719000  0.55326300  1
  O  O1  1  0.20281000  0.20281000  0.44673700  1
  O  O2  1  0.08967800  0.08967800  0.11022100  1
  O  O3  1  0.91032200  0.91032200  0.88977900  1
  O  O4  1  0.36785800  0.36785800  0.69303200  1
  O  O5  1  0.50000000  0.50000000  0.00000000  1
  O  O6  1  0.63214200  0.63214200  0.30696800  1
loop_
_geom_bond_atom_site_label_1
_geom_bond_atom_site_label_2
_geom_bond_distance
_geom_bond_site_symmetry_2
La0 O1 2.397877 1_565
La0 O1 2.397877 1_655
La0 O4 2.445656 1_555
La0 O6 2.478970 1_555
La0 O0 2.505340 1_555
La0 O3 2.857791 1_545
La0 O3 2.857791 1_455
La0 O5 3.004917 1_556
La1 O0 2.397877 1_455
La1 O0 2.397877 1_545
La1 O6 2.445656 1_555
La1 O4 2.478970 1_555
La1 O1 2.505340 1_555
La1 O2 2.857791 1_655
La1 O2 2.857791 1_565
La1 O5 3.004917 1_555
La2 O0 2.315401 1_555
La2 O4 2.372383 1_565
La2 O4 2.372383 1_655
La2 O3 2.497861 1_555
La2 O5 2.562430 1_556
La2 O2 2.794947 1_566
La2 O2 2.794947 1_656
La3 O1 2.315401 1_555
La3 O6 2.372383 1_545
La3 O6 2.372383 1_455
La3 O2 2.497861 1_555
La3 O5 2.562430 1_555
La3 O3 2.794947 1_454
La3 O3 2.794947 1_544
O2 Pd0 2.055293 1_555
O3 Pd0 2.055293 1_666
O5 Pd0 2.046446 1_655
O5 Pd0 2.046446 1_565
