# generated using pymatgen
data_K4Sr2TiP4
_symmetry_space_group_name_H-M   'P 1'
_cell_length_a   10.01481201
_cell_length_b   10.01481085
_cell_length_c   7.60444365
_cell_angle_alpha   88.22430998
_cell_angle_beta   88.22430219
_cell_angle_gamma   119.44316622
_symmetry_Int_Tables_number   1
_chemical_formula_structural   K4Sr2TiP4
_chemical_formula_sum   'K8 Sr4 Ti2 P8'
_cell_volume   662.93586457
_cell_formula_units_Z   2
loop_
 _symmetry_equiv_pos_site_id
 _symmetry_equiv_pos_as_xyz
  1  'x, y, z'
loop_
 _atom_site_type_symbol
 _atom_site_label
 _atom_site_symmetry_multiplicity
 _atom_site_fract_x
 _atom_site_fract_y
 _atom_site_fract_z
 _atom_site_occupancy
  K  K0  1  0.05511140  0.52405712  0.61383560  1
  K  K1  1  0.52405712  0.05511140  0.11383560  1
  K  K2  1  0.27789170  0.13397720  0.82900789  1
  K  K3  1  0.87409558  0.73303426  0.76282988  1
  K  K4  1  0.86015418  0.14522447  0.80119505  1
  K  K5  1  0.73303426  0.87409558  0.26282988  1
  K  K6  1  0.13397720  0.27789170  0.32900789  1
  K  K7  1  0.14522447  0.86015418  0.30119505  1
  Sr  Sr0  1  0.46843335  0.93435570  0.60607913  1
  Sr  Sr1  1  0.47023563  0.52394567  0.62018002  1
  Sr  Sr2  1  0.93435570  0.46843335  0.10607913  1
  Sr  Sr3  1  0.52394567  0.47023563  0.12018002  1
  Ti  Ti0  1  0.66540336  0.33571186  0.50770842  1
  Ti  Ti1  1  0.33571186  0.66540336  0.00770842  1
  P  P0  1  0.66870391  0.35487733  0.82602352  1
  P  P1  1  0.35487733  0.66870391  0.32602352  1
  P  P2  1  0.59199842  0.78695648  0.87376658  1
  P  P3  1  0.20606724  0.40203416  0.92464108  1
  P  P4  1  0.19929048  0.78843850  0.90347883  1
  P  P5  1  0.40203416  0.20606724  0.42464108  1
  P  P6  1  0.78695648  0.59199842  0.37376658  1
  P  P7  1  0.78843850  0.19929048  0.40347883  1
loop_
_geom_bond_atom_site_label_1
_geom_bond_atom_site_label_2
_geom_bond_distance
_geom_bond_site_symmetry_2
K0 P4 3.278210 1_555
K0 P1 3.319957 1_555
K0 P3 3.350189 1_555
K0 P7 3.509629 1_455
K0 P6 3.609857 1_455
K0 P0 3.667053 1_455
K1 P7 3.278210 1_555
K1 P0 3.319957 1_554
K1 P5 3.350189 1_555
K1 P4 3.509629 1_544
K1 P2 3.609857 1_544
K1 P1 3.667052 1_545
K2 P4 3.176212 1_545
K2 P3 3.200003 1_555
K2 P5 3.203985 1_555
K2 P0 3.419396 1_555
K3 P2 3.219502 1_555
K3 P4 3.245681 1_655
K3 P6 3.273703 1_555
K3 P0 3.312411 1_555
K4 P7 3.220486 1_555
K4 P2 3.271501 1_545
K4 P3 3.329986 1_655
K4 P0 3.475656 1_555
K5 P6 3.219502 1_555
K5 P7 3.245680 1_565
K5 P2 3.273703 1_554
K5 P1 3.312411 1_555
K6 P7 3.176212 1_455
K6 P5 3.200004 1_555
K6 P3 3.203985 1_554
K6 P1 3.419395 1_555
K7 P4 3.220486 1_554
K7 P6 3.271501 1_455
K7 P5 3.329985 1_565
K7 P1 3.475656 1_555
P0 Ti0 2.434091 1_555
P0 Sr3 3.169523 1_556
P0 Sr2 3.230098 1_556
P0 Sr1 3.550344 1_555
P1 Ti1 2.434091 1_555
P1 Sr1 3.169524 1_555
P1 Sr0 3.230098 1_555
P1 Sr3 3.550344 1_555
P2 Ti1 2.407593 1_556
P2 Sr1 3.073501 1_555
P2 Sr0 3.101608 1_555
P2 Sr3 3.385844 1_556
P3 Ti1 2.414332 1_556
P3 Sr1 3.181182 1_555
P3 Sr3 3.321268 1_556
P3 Sr2 3.369509 1_456
P4 Ti1 2.382159 1_556
P4 Sr0 3.171814 1_555
P4 Sr2 3.281037 1_456
P5 Ti0 2.414332 1_555
P5 Sr3 3.181182 1_555
P5 Sr1 3.321268 1_555
P5 Sr0 3.369509 1_545
P6 Ti0 2.407593 1_555
P6 Sr3 3.073501 1_555
P6 Sr2 3.101607 1_555
P6 Sr1 3.385844 1_555
P7 Ti0 2.382159 1_555
P7 Sr2 3.171813 1_555
P7 Sr0 3.281037 1_545
