# generated using pymatgen
data_LiMg(WN2)2
_symmetry_space_group_name_H-M   'P 1'
_cell_length_a   2.91834944
_cell_length_b   2.91834959
_cell_length_c   10.50804265
_cell_angle_alpha   90.00000000
_cell_angle_beta   90.00000000
_cell_angle_gamma   119.99999828
_symmetry_Int_Tables_number   1
_chemical_formula_structural   LiMg(WN2)2
_chemical_formula_sum   'Li1 Mg1 W2 N4'
_cell_volume   77.50452785
_cell_formula_units_Z   1
loop_
 _symmetry_equiv_pos_site_id
 _symmetry_equiv_pos_as_xyz
  1  'x, y, z'
loop_
 _atom_site_type_symbol
 _atom_site_label
 _atom_site_symmetry_multiplicity
 _atom_site_fract_x
 _atom_site_fract_y
 _atom_site_fract_z
 _atom_site_occupancy
  Li  Li0  1  0.00000000  0.00000000  0.50000000  1
  Mg  Mg0  1  0.00000000  0.00000000  0.00000000  1
  W  W0  1  0.33333300  0.66666700  0.74664841  1
  W  W1  1  0.66666700  0.33333300  0.25335159  1
  N  N0  1  0.66666700  0.33333300  0.63374639  1
  N  N1  1  0.66666700  0.33333300  0.87181982  1
  N  N2  1  0.33333300  0.66666700  0.12818018  1
  N  N3  1  0.33333300  0.66666700  0.36625361  1
loop_
_geom_bond_atom_site_label_1
_geom_bond_atom_site_label_2
_geom_bond_distance
_geom_bond_site_symmetry_2
Li0 N0 2.194106 1_455
Li0 N3 2.194106 1_545
Li0 N0 2.194108 1_555
Li0 N3 2.194108 1_445
Li0 N0 2.194108 1_445
Li0 N3 2.194108 1_555
Mg0 N2 2.157108 1_545
Mg0 N1 2.157108 1_454
Mg0 N2 2.157110 1_445
Mg0 N1 2.157110 1_554
Mg0 N2 2.157110 1_555
Mg0 N1 2.157110 1_444
N0 W0 2.060682 1_655
N0 W0 2.060682 1_545
N0 W0 2.060686 1_555
N1 W0 2.137509 1_655
N1 W0 2.137510 1_545
N1 W0 2.137513 1_555
N2 W1 2.137509 1_455
N2 W1 2.137510 1_565
N2 W1 2.137513 1_555
N3 W1 2.060682 1_455
N3 W1 2.060682 1_565
N3 W1 2.060686 1_555
