# generated using pymatgen
data_KRbMnI4
_symmetry_space_group_name_H-M   'P 1'
_cell_length_a   8.22111087
_cell_length_b   7.99391523
_cell_length_c   10.00245097
_cell_angle_alpha   71.90891781
_cell_angle_beta   90.00000000
_cell_angle_gamma   90.00000000
_symmetry_Int_Tables_number   1
_chemical_formula_structural   KRbMnI4
_chemical_formula_sum   'K2 Rb2 Mn2 I8'
_cell_volume   624.85301819
_cell_formula_units_Z   2
loop_
 _symmetry_equiv_pos_site_id
 _symmetry_equiv_pos_as_xyz
  1  'x, y, z'
loop_
 _atom_site_type_symbol
 _atom_site_label
 _atom_site_symmetry_multiplicity
 _atom_site_fract_x
 _atom_site_fract_y
 _atom_site_fract_z
 _atom_site_occupancy
  K  K0  1  0.75000000  0.78159610  0.55109143  1
  K  K1  1  0.25000000  0.21840390  0.44890857  1
  Rb  Rb0  1  0.75000000  0.73927203  0.06686759  1
  Rb  Rb1  1  0.25000000  0.26072797  0.93313241  1
  Mn  Mn0  1  0.75000000  0.22287516  0.69377213  1
  Mn  Mn1  1  0.25000000  0.77712484  0.30622787  1
  I  I0  1  0.75000000  0.41014220  0.42000126  1
  I  I1  1  0.25000000  0.58985780  0.57999874  1
  I  I2  1  0.99589269  0.00378541  0.24808122  1
  I  I3  1  0.00410731  0.99621459  0.75191878  1
  I  I4  1  0.49589269  0.99621459  0.75191878  1
  I  I5  1  0.50410731  0.00378541  0.24808122  1
  I  I6  1  0.75000000  0.42021974  0.86825401  1
  I  I7  1  0.25000000  0.57978026  0.13174599  1
loop_
_geom_bond_atom_site_label_1
_geom_bond_atom_site_label_2
_geom_bond_distance
_geom_bond_site_symmetry_2
I0 Mn0 2.682125 1_555
I0 K0 3.599244 1_555
I0 Rb0 3.691491 1_555
I1 Mn1 2.682125 1_555
I1 K1 3.599244 1_555
I1 Rb1 3.691491 1_555
I2 Mn1 2.707562 1_645
I2 K0 3.617176 1_545
I2 K1 3.671925 1_655
I2 Rb0 3.771389 1_545
I2 Rb1 3.806373 1_654
I3 Mn0 2.707562 1_465
I3 K1 3.617176 1_565
I3 K0 3.671925 1_455
I3 Rb1 3.771389 1_565
I3 Rb0 3.806373 1_456
I4 Mn0 2.707562 1_565
I4 K1 3.617176 1_565
I4 K0 3.671925 1_555
I4 Rb1 3.771389 1_565
I4 Rb0 3.806373 1_556
I5 Mn1 2.707562 1_545
I5 K0 3.617176 1_545
I5 K1 3.671925 1_555
I5 Rb0 3.771389 1_545
I5 Rb1 3.806373 1_554
I6 Mn0 2.691557 1_555
I6 K0 3.566191 1_555
I6 Rb0 3.687600 1_556
I7 Mn1 2.691557 1_555
I7 K1 3.566191 1_555
I7 Rb1 3.687600 1_554
