# generated using pymatgen
data_RbHfCuAs2
_symmetry_space_group_name_H-M   'P 1'
_cell_length_a   7.98139328
_cell_length_b   7.98139311
_cell_length_c   7.98139199
_cell_angle_alpha   149.71911203
_cell_angle_beta   149.71911318
_cell_angle_gamma   43.35387048
_symmetry_Int_Tables_number   1
_chemical_formula_structural   RbHfCuAs2
_chemical_formula_sum   'Rb1 Hf1 Cu1 As2'
_cell_volume   128.92670261
_cell_formula_units_Z   1
loop_
 _symmetry_equiv_pos_site_id
 _symmetry_equiv_pos_as_xyz
  1  'x, y, z'
loop_
 _atom_site_type_symbol
 _atom_site_label
 _atom_site_symmetry_multiplicity
 _atom_site_fract_x
 _atom_site_fract_y
 _atom_site_fract_z
 _atom_site_occupancy
  Rb  Rb0  1  0.00000000  0.00000000  0.00000000  1
  Hf  Hf0  1  0.25000000  0.75000000  0.50000000  1
  Cu  Cu0  1  0.75000000  0.25000000  0.50000000  1
  As  As0  1  0.64867213  0.64867213  1.00000000  1
  As  As1  1  0.35132787  0.35132787  0.00000000  1
loop_
_geom_bond_atom_site_label_1
_geom_bond_atom_site_label_2
_geom_bond_distance
_geom_bond_site_symmetry_2
Cu0 Hf0 2.948108 1_656
Cu0 Hf0 2.948108 1_544
Cu0 Hf0 2.948109 1_555
Cu0 Hf0 2.948109 1_645
As0 Hf0 2.570009 1_555
As0 Cu0 2.570009 1_555
As0 Cu0 2.570010 1_566
As0 Hf0 2.570010 1_656
As0 Rb0 3.681723 1_667
As0 Rb0 3.681724 1_656
As0 Rb0 3.681724 1_566
As0 Rb0 3.681725 1_555
As1 Cu0 2.570009 1_555
As1 Hf0 2.570009 1_555
As1 Hf0 2.570010 1_544
As1 Cu0 2.570010 1_454
As1 Rb0 3.681723 1_554
As1 Rb0 3.681724 1_565
As1 Rb0 3.681724 1_655
As1 Rb0 3.681725 1_666
