# generated using pymatgen
data_Zr3Sc(Co4P3)2
_symmetry_space_group_name_H-M   'P 1'
_cell_length_a   11.98042009
_cell_length_b   11.98841420
_cell_length_c   3.63067835
_cell_angle_alpha   90.00000000
_cell_angle_beta   90.00000000
_cell_angle_gamma   120.02206291
_symmetry_Int_Tables_number   1
_chemical_formula_structural   Zr3Sc(Co4P3)2
_chemical_formula_sum   'Zr6 Sc2 Co16 P12'
_cell_volume   451.49775784
_cell_formula_units_Z   2
loop_
 _symmetry_equiv_pos_site_id
 _symmetry_equiv_pos_as_xyz
  1  'x, y, z'
loop_
 _atom_site_type_symbol
 _atom_site_label
 _atom_site_symmetry_multiplicity
 _atom_site_fract_x
 _atom_site_fract_y
 _atom_site_fract_z
 _atom_site_occupancy
  Zr  Zr0  1  1.00000000  0.55573438  0.00000000  1
  Zr  Zr1  1  0.66607082  0.33231932  0.00000000  1
  Zr  Zr2  1  0.33392918  0.66624951  0.00000000  1
  Zr  Zr3  1  0.82215063  0.82299168  0.50000000  1
  Zr  Zr4  1  0.17784937  0.00084204  0.50000000  1
  Zr  Zr5  1  1.00000000  0.17483688  0.50000000  1
  Sc  Sc0  1  0.44317998  0.44272761  0.00000000  1
  Sc  Sc1  1  0.55682002  0.99954662  0.00000000  1
  Co  Co0  1  0.19455386  0.37235156  0.00000000  1
  Co  Co1  1  0.17778852  0.80708920  0.00000000  1
  Co  Co2  1  0.82221148  0.62930168  0.00000000  1
  Co  Co3  1  0.80544614  0.17779770  0.00000000  1
  Co  Co4  1  0.37188649  0.19412455  0.00000000  1
  Co  Co5  1  0.12692382  0.47990428  0.50000000  1
  Co  Co6  1  0.35394626  0.87349484  0.50000000  1
  Co  Co7  1  0.52056991  0.64709544  0.50000000  1
  Co  Co8  1  0.64605374  0.51954958  0.50000000  1
  Co  Co9  1  0.87307618  0.35298046  0.50000000  1
  Co  Co10  1  0.47943009  0.12652354  0.50000000  1
  Co  Co11  1  0.00000000  0.00030110  0.00000000  1
  Co  Co12  1  0.72030397  0.00025853  0.50000000  1
  Co  Co13  1  0.00000000  0.72163583  0.50000000  1
  Co  Co14  1  0.62811351  0.82223706  0.00000000  1
  Co  Co15  1  0.27969603  0.27995457  0.50000000  1
  P  P0  1  0.65081271  0.65183022  0.00000000  1
  P  P1  1  0.34918729  0.00101851  0.00000000  1
  P  P2  1  1.00000000  0.34427498  0.00000000  1
  P  P3  1  0.48194585  0.31008480  0.50000000  1
  P  P4  1  0.68885344  0.17148308  0.50000000  1
  P  P5  1  0.82550562  0.51769890  0.50000000  1
  P  P6  1  0.51805415  0.82813896  0.50000000  1
  P  P7  1  0.17449438  0.69219229  0.50000000  1
  P  P8  1  0.82383766  0.99964248  0.00000000  1
  P  P9  1  0.00000000  0.82535636  0.00000000  1
  P  P10  1  0.31114656  0.48262964  0.50000000  1
  P  P11  1  0.17616234  0.17580482  0.00000000  1
loop_
_geom_bond_atom_site_label_1
_geom_bond_atom_site_label_2
_geom_bond_distance
_geom_bond_site_symmetry_2
Co0 P2 2.181978 1_455
Co0 P11 2.254129 1_555
Co0 P10 2.268591 1_555
Co0 P10 2.268591 1_554
Co0 Sc0 2.658835 1_555
Co0 Zr5 2.968553 1_454
Co0 Zr5 2.968553 1_455
Co1 P1 2.201032 1_565
Co1 P9 2.247564 1_555
Co1 P7 2.267143 1_555
Co1 P7 2.267143 1_554
Co1 Zr0 2.682242 1_455
Co1 Zr4 2.947730 1_565
Co1 Zr4 2.947730 1_564
Co2 P0 2.201018 1_555
Co2 P9 2.247557 1_655
Co2 P5 2.267143 1_554
Co2 P5 2.267143 1_555
Co2 Zr0 2.682250 1_555
Co2 Zr3 2.947711 1_554
Co2 Zr3 2.947711 1_555
Co3 P2 2.181978 1_555
Co3 P8 2.254129 1_545
Co3 P4 2.268591 1_555
Co3 P4 2.268591 1_554
Co3 Sc1 2.658838 1_545
Co3 Zr5 2.968553 1_555
Co3 Zr5 2.968553 1_554
Co4 P1 2.191656 1_555
Co4 P11 2.243047 1_555
Co4 P3 2.265479 1_555
Co4 P3 2.265479 1_554
Co4 Sc0 2.657961 1_555
Co4 Zr4 2.945925 1_555
Co4 Zr4 2.945925 1_554
Co5 P10 2.190901 1_555
Co5 P7 2.313096 1_555
Co5 P2 2.403618 1_455
Co5 P2 2.403618 1_456
Co5 Zr0 2.795959 1_455
Co5 Zr0 2.795959 1_456
Co5 Zr5 3.181654 1_455
Co6 P7 2.161095 1_555
Co6 P6 2.287115 1_555
Co6 P1 2.392317 1_566
Co6 P1 2.392317 1_565
Co6 Sc1 2.794836 1_556
Co6 Sc1 2.794836 1_555
Co6 Zr4 3.163023 1_565
Co7 P6 2.185660 1_555
Co7 P10 2.287423 1_555
Co7 P0 2.375875 1_555
Co7 P0 2.375875 1_556
Co7 Sc0 2.807972 1_555
Co7 Sc0 2.807972 1_556
Co7 Zr3 3.142755 1_555
Co8 P5 2.161095 1_555
Co8 P3 2.287124 1_555
Co8 P0 2.392301 1_555
Co8 P0 2.392301 1_556
Co8 Sc0 2.794836 1_555
Co8 Sc0 2.794836 1_556
Co8 Zr3 3.163004 1_555
Co9 P4 2.190902 1_555
Co9 P5 2.313107 1_555
Co9 P2 2.403618 1_556
Co9 P2 2.403618 1_555
Co9 Zr0 2.795959 1_555
Co9 Zr0 2.795959 1_556
Co9 Zr5 3.181653 1_555
Co10 P3 2.185684 1_555
Co10 P4 2.287415 1_555
Co10 P1 2.375865 1_556
Co10 P1 2.375865 1_555
Co10 Sc1 2.807963 1_545
Co10 Sc1 2.807963 1_546
Co10 Zr4 3.142758 1_555
Co11 P9 2.097310 1_545
Co11 P8 2.106559 1_445
Co11 P11 2.106560 1_555
Co11 Zr5 2.770131 1_455
Co11 Zr5 2.770131 1_454
Co11 Zr4 2.796712 1_555
Co11 Zr4 2.796712 1_554
Co11 Zr3 2.796717 1_444
Co11 Zr3 2.796717 1_445
Co12 P8 2.200730 1_545
Co12 P8 2.200730 1_546
Co12 P6 2.264016 1_545
Co12 P4 2.264851 1_555
Co12 Sc1 2.667385 1_545
Co12 Sc1 2.667385 1_546
Co12 Zr5 2.931022 1_555
Co12 Zr3 2.932546 1_545
Co13 P9 2.200366 1_556
Co13 P9 2.200366 1_555
Co13 P5 2.287625 1_455
Co13 P7 2.287632 1_555
Co13 Zr0 2.692798 1_456
Co13 Zr0 2.692798 1_455
Co13 Zr3 2.933791 1_455
Co13 Zr4 2.933801 1_565
Co14 P0 2.191656 1_555
Co14 P8 2.243053 1_555
Co14 P6 2.265483 1_555
Co14 P6 2.265483 1_554
Co14 Sc1 2.657961 1_555
Co14 Zr3 2.945925 1_554
Co14 Zr3 2.945925 1_555
Co15 P11 2.200730 1_555
Co15 P11 2.200730 1_556
Co15 P3 2.264016 1_555
Co15 P10 2.264851 1_555
Co15 Sc0 2.667389 1_555
Co15 Sc0 2.667389 1_556
Co15 Zr5 2.931022 1_455
Co15 Zr4 2.932535 1_555
P0 Sc0 2.496391 1_555
P0 Zr3 2.739470 1_554
P0 Zr3 2.739470 1_555
P1 Sc1 2.496403 1_545
P1 Zr4 2.739470 1_555
P1 Zr4 2.739470 1_554
P2 Zr0 2.535063 1_555
P2 Zr5 2.724264 1_555
P2 Zr5 2.724264 1_554
P3 Sc0 2.603620 1_555
P3 Sc0 2.603620 1_556
P3 Zr1 2.764795 1_555
P3 Zr1 2.764795 1_556
P4 Sc1 2.604543 1_545
P4 Sc1 2.604543 1_546
P4 Zr1 2.759427 1_556
P4 Zr1 2.759427 1_555
P5 Zr0 2.630543 1_555
P5 Zr0 2.630543 1_556
P5 Zr1 2.763182 1_555
P5 Zr1 2.763182 1_556
P6 Sc1 2.603611 1_556
P6 Sc1 2.603611 1_555
P6 Zr2 2.764792 1_556
P6 Zr2 2.764792 1_555
P7 Zr0 2.630540 1_455
P7 Zr0 2.630540 1_456
P7 Zr2 2.763171 1_556
P7 Zr2 2.763171 1_555
P8 Zr5 2.779441 1_565
P8 Zr5 2.779441 1_564
P8 Zr3 2.781718 1_554
P8 Zr3 2.781718 1_555
P9 Zr3 2.788502 1_455
P9 Zr3 2.788502 1_454
P9 Zr4 2.788507 1_564
P9 Zr4 2.788507 1_565
P10 Sc0 2.604537 1_556
P10 Sc0 2.604537 1_555
P10 Zr2 2.759436 1_555
P10 Zr2 2.759436 1_556
P11 Zr5 2.779440 1_455
P11 Zr5 2.779440 1_454
P11 Zr4 2.781709 1_555
P11 Zr4 2.781709 1_554
