# generated using pymatgen
data_Hf4NbCuSn3
_symmetry_space_group_name_H-M   'P 1'
_cell_length_a   8.49358173
_cell_length_b   8.49358161
_cell_length_c   5.72613296
_cell_angle_alpha   90.00000000
_cell_angle_beta   90.00000000
_cell_angle_gamma   119.99999282
_symmetry_Int_Tables_number   1
_chemical_formula_structural   Hf4NbCuSn3
_chemical_formula_sum   'Hf8 Nb2 Cu2 Sn6'
_cell_volume   357.74520841
_cell_formula_units_Z   2
loop_
 _symmetry_equiv_pos_site_id
 _symmetry_equiv_pos_as_xyz
  1  'x, y, z'
loop_
 _atom_site_type_symbol
 _atom_site_label
 _atom_site_symmetry_multiplicity
 _atom_site_fract_x
 _atom_site_fract_y
 _atom_site_fract_z
 _atom_site_occupancy
  Hf  Hf0  1  0.66666700  0.33333300  0.00000000  1
  Hf  Hf1  1  0.33333300  0.66666700  0.50000000  1
  Hf  Hf2  1  0.26291072  0.00000000  0.25000000  1
  Hf  Hf3  1  0.26291072  0.26291072  0.75000000  1
  Hf  Hf4  1  1.00000000  0.73708928  0.75000000  1
  Hf  Hf5  1  0.00000000  0.26291072  0.25000000  1
  Hf  Hf6  1  0.73708928  0.73708928  0.25000000  1
  Hf  Hf7  1  0.73708928  1.00000000  0.75000000  1
  Nb  Nb0  1  0.33333300  0.66666700  0.00000000  1
  Nb  Nb1  1  0.66666700  0.33333300  0.50000000  1
  Cu  Cu0  1  0.00000000  0.00000000  0.00000000  1
  Cu  Cu1  1  0.00000000  0.00000000  0.50000000  1
  Sn  Sn0  1  0.61179048  1.00000000  0.25000000  1
  Sn  Sn1  1  0.61179048  0.61179048  0.75000000  1
  Sn  Sn2  1  0.00000000  0.38820952  0.75000000  1
  Sn  Sn3  1  1.00000000  0.61179048  0.25000000  1
  Sn  Sn4  1  0.38820952  0.38820952  0.25000000  1
  Sn  Sn5  1  0.38820952  0.00000000  0.75000000  1
loop_
_geom_bond_atom_site_label_1
_geom_bond_atom_site_label_2
_geom_bond_distance
_geom_bond_site_symmetry_2
Hf0 Nb1 2.863066 1_555
Hf0 Nb1 2.863066 1_554
Hf0 Sn0 2.993754 1_545
Hf0 Sn2 2.993754 1_654
Hf0 Sn5 2.993757 1_554
Hf0 Sn3 2.993757 1_555
Hf0 Sn1 2.993762 1_554
Hf0 Sn4 2.993762 1_555
Hf1 Nb0 2.863066 1_555
Hf1 Nb0 2.863066 1_556
Hf1 Sn5 2.993754 1_565
Hf1 Sn3 2.993754 1_455
Hf1 Sn0 2.993757 1_555
Hf1 Sn2 2.993757 1_555
Hf1 Sn4 2.993762 1_555
Hf1 Sn1 2.993762 1_555
Hf2 Sn4 2.914725 1_555
Hf2 Sn3 2.914725 1_445
Hf2 Sn0 2.963239 1_545
Hf2 Sn5 3.054463 1_555
Hf2 Sn5 3.054463 1_554
Hf3 Sn5 2.914725 1_555
Hf3 Sn2 2.914725 1_555
Hf3 Sn1 2.963239 1_555
Hf3 Sn4 3.054464 1_555
Hf3 Sn4 3.054464 1_556
Hf4 Sn1 2.914725 1_555
Hf4 Sn5 2.914725 1_665
Hf4 Sn2 2.963239 1_655
Hf4 Sn3 3.054463 1_556
Hf4 Sn3 3.054463 1_555
Hf5 Sn4 2.914725 1_555
Hf5 Sn0 2.914725 1_445
Hf5 Sn3 2.963239 1_455
Hf5 Sn2 3.054463 1_554
Hf5 Sn2 3.054463 1_555
Hf6 Sn0 2.914725 1_555
Hf6 Sn3 2.914725 1_555
Hf6 Sn4 2.963239 1_555
Hf6 Sn1 3.054464 1_555
Hf6 Sn1 3.054464 1_554
Hf7 Sn1 2.914725 1_555
Hf7 Sn2 2.914725 1_665
Hf7 Sn5 2.963239 1_565
Hf7 Sn0 3.054463 1_556
Hf7 Sn0 3.054463 1_555
Nb0 Sn5 2.993754 1_564
Nb0 Sn3 2.993754 1_455
Nb0 Sn0 2.993757 1_555
Nb0 Sn2 2.993757 1_554
Nb0 Sn4 2.993762 1_555
Nb0 Sn1 2.993762 1_554
Nb1 Sn0 2.993754 1_545
Nb1 Sn2 2.993754 1_655
Nb1 Sn5 2.993757 1_555
Nb1 Sn3 2.993757 1_555
Nb1 Sn1 2.993762 1_555
Nb1 Sn4 2.993762 1_555
Cu0 Hf5 2.652511 1_555
Cu0 Hf4 2.652511 1_444
Cu0 Hf2 2.652511 1_555
Cu0 Hf7 2.652511 1_444
Cu0 Hf3 2.652511 1_554
Cu0 Hf6 2.652511 1_445
Cu0 Cu1 2.863066 1_554
Cu0 Cu1 2.863066 1_555
Cu1 Hf5 2.652511 1_555
Cu1 Hf4 2.652511 1_445
Cu1 Hf2 2.652511 1_555
Cu1 Hf7 2.652511 1_445
Cu1 Hf3 2.652511 1_555
Cu1 Hf6 2.652511 1_445
