# generated using pymatgen
data_Ba4AlGa7Ir8
_symmetry_space_group_name_H-M   'P 1'
_cell_length_a   6.12485463
_cell_length_b   8.54742762
_cell_length_c   8.54726198
_cell_angle_alpha   76.67898220
_cell_angle_beta   89.80125873
_cell_angle_gamma   89.79103804
_symmetry_Int_Tables_number   1
_chemical_formula_structural   Ba4AlGa7Ir8
_chemical_formula_sum   'Ba4 Al1 Ga7 Ir8'
_cell_volume   435.42036853
_cell_formula_units_Z   1
loop_
 _symmetry_equiv_pos_site_id
 _symmetry_equiv_pos_as_xyz
  1  'x, y, z'
loop_
 _atom_site_type_symbol
 _atom_site_label
 _atom_site_symmetry_multiplicity
 _atom_site_fract_x
 _atom_site_fract_y
 _atom_site_fract_z
 _atom_site_occupancy
  Ba  Ba0  1  0.37507395  0.00144635  0.24861107  1
  Ba  Ba1  1  0.87506091  0.49897269  0.75132746  1
  Ba  Ba2  1  0.12426891  0.50004264  0.24967214  1
  Ba  Ba3  1  0.62569045  0.00027197  0.74987552  1
  Al  Al0  1  0.37498877  0.67642534  0.57352404  1
  Ga  Ga0  1  0.37508828  0.32228444  0.92767400  1
  Ga  Ga1  1  0.12684591  0.17779823  0.57278845  1
  Ga  Ga2  1  0.62410806  0.32338311  0.42725223  1
  Ga  Ga3  1  0.87508479  0.82216476  0.42776668  1
  Ga  Ga4  1  0.87492066  0.17623911  0.07369874  1
  Ga  Ga5  1  0.62288923  0.67719869  0.07223958  1
  Ga  Ga6  1  0.12608293  0.82291935  0.92656697  1
  Ir  Ir0  1  0.37527855  0.38128502  0.62960572  1
  Ir  Ir1  1  0.62354623  0.62204571  0.37155631  1
  Ir  Ir2  1  0.12651667  0.87849583  0.62789312  1
  Ir  Ir3  1  0.12581652  0.12077353  0.87113609  1
  Ir  Ir4  1  0.62419067  0.37886214  0.12928923  1
  Ir  Ir5  1  0.87392242  0.87794024  0.12888826  1
  Ir  Ir6  1  0.37462402  0.62038508  0.86866785  1
  Ir  Ir7  1  0.87600109  0.12106376  0.37196654  1
loop_
_geom_bond_atom_site_label_1
_geom_bond_atom_site_label_2
_geom_bond_distance
_geom_bond_site_symmetry_2
Ba0 Ga0 3.402748 1_554
Ba0 Ir5 3.456799 1_545
Ba0 Ir7 3.457212 1_455
Ba0 Ir7 3.480280 1_555
Ba0 Ir5 3.482312 1_445
Ba0 Ir4 3.504837 1_555
Ba0 Ir3 3.505268 1_554
Ba0 Ir2 3.512686 1_545
Ba0 Ir1 3.513042 1_545
Ba0 Ga4 3.579421 1_555
Ba0 Ga4 3.580578 1_455
Ba0 Ga3 3.604017 1_545
Ba0 Ga3 3.604375 1_445
Ba0 Ga5 3.759813 1_545
Ba0 Ga1 3.760294 1_555
Ba0 Ga6 3.769971 1_544
Ba0 Ga2 3.769998 1_555
Ba1 Ga4 3.420403 1_556
Ba1 Ga3 3.429141 1_555
Ba1 Ir6 3.451491 1_555
Ba1 Ir0 3.452332 1_655
Ba1 Ir6 3.459623 1_655
Ba1 Ir0 3.462862 1_555
Ba1 Ir4 3.507145 1_556
Ba1 Ir3 3.508078 1_655
Ba1 Ir2 3.529352 1_655
Ba1 Ir1 3.530668 1_555
Ba1 Ga0 3.589080 1_655
Ba1 Ga0 3.589271 1_555
Ba1 Ga5 3.756163 1_556
Ba1 Ga1 3.758513 1_655
Ba1 Ga6 3.772575 1_655
Ba1 Ga2 3.774888 1_555
Ba2 Ga1 3.421798 1_555
Ba2 Ga6 3.425072 1_554
Ba2 Ir4 3.457343 1_555
Ba2 Ir1 3.468929 1_455
Ba2 Ir4 3.471180 1_455
Ba2 Ir1 3.474205 1_555
Ba2 Ir5 3.505477 1_455
Ba2 Ir7 3.516032 1_455
Ba2 Ir0 3.527573 1_555
Ba2 Ir6 3.528125 1_554
Ba2 Ga5 3.586503 1_555
Ba2 Ga2 3.591469 1_555
Ba2 Ga2 3.593562 1_455
Ba2 Ga5 3.600459 1_455
Ba2 Ga3 3.756569 1_455
Ba2 Ga0 3.758154 1_554
Ba2 Ga4 3.770922 1_455
Ba3 Ga5 3.422214 1_546
Ba3 Ga2 3.423754 1_555
Ba3 Ir3 3.457704 1_555
Ba3 Ir2 3.469086 1_645
Ba3 Ir3 3.472064 1_655
Ba3 Ir2 3.473236 1_545
Ba3 Ir7 3.505751 1_555
Ba3 Ir5 3.515828 1_546
Ba3 Ir6 3.527790 1_545
Ba3 Ir0 3.528010 1_555
Ba3 Ga1 3.587277 1_555
Ba3 Ga6 3.590169 1_545
Ba3 Ga6 3.593774 1_645
Ba3 Ga1 3.599823 1_655
Ba3 Ga3 3.757118 1_545
Ba3 Ga0 3.757851 1_555
Ba3 Ga4 3.770616 1_556
Al0 Ir1 2.420753 1_555
Al0 Ir2 2.420938 1_555
Al0 Ir6 2.456920 1_555
Al0 Ir0 2.456925 1_555
Al0 Ba0 3.446007 1_565
Al0 Ba1 3.595177 1_455
Al0 Ba1 3.595486 1_555
Al0 Ba3 3.776464 1_565
Al0 Ba2 3.776580 1_555
Ga0 Ir4 2.436993 1_556
Ga0 Ir3 2.437009 1_555
Ga0 Ir0 2.480497 1_555
Ga0 Ir6 2.480811 1_555
Ga1 Ir7 2.439107 1_455
Ga1 Ir0 2.447433 1_555
Ga1 Ir3 2.483454 1_555
Ga1 Ir2 2.492257 1_545
Ga2 Ir0 2.435101 1_555
Ga2 Ir7 2.438465 1_555
Ga2 Ir4 2.480800 1_555
Ga2 Ir1 2.486634 1_555
Ga3 Ir2 2.435674 1_655
Ga3 Ir1 2.435830 1_555
Ga3 Ir5 2.488405 1_555
Ga3 Ir7 2.488611 1_565
Ga4 Ir3 2.436857 1_654
Ga4 Ir4 2.436870 1_555
Ga4 Ir7 2.483509 1_555
Ga4 Ir5 2.483812 1_545
Ga5 Ir5 2.439216 1_555
Ga5 Ir6 2.447171 1_554
Ga5 Ir4 2.483400 1_555
Ga5 Ir1 2.492317 1_555
Ga6 Ir6 2.435044 1_555
Ga6 Ir5 2.438827 1_456
Ga6 Ir3 2.479951 1_565
Ga6 Ir2 2.486728 1_555
