# generated using pymatgen
data_CsKTcH9
_symmetry_space_group_name_H-M   'P 1'
_cell_length_a   9.81951683
_cell_length_b   9.81951617
_cell_length_c   5.92810457
_cell_angle_alpha   90.00000000
_cell_angle_beta   90.00000000
_cell_angle_gamma   119.99999576
_symmetry_Int_Tables_number   1
_chemical_formula_structural   CsKTcH9
_chemical_formula_sum   'Cs3 K3 Tc3 H27'
_cell_volume   495.02452360
_cell_formula_units_Z   3
loop_
 _symmetry_equiv_pos_site_id
 _symmetry_equiv_pos_as_xyz
  1  'x, y, z'
loop_
 _atom_site_type_symbol
 _atom_site_label
 _atom_site_symmetry_multiplicity
 _atom_site_fract_x
 _atom_site_fract_y
 _atom_site_fract_z
 _atom_site_occupancy
  Cs  Cs0  1  0.58706390  1.00000000  0.00000000  1
  Cs  Cs1  1  1.00000000  0.58706390  0.00000000  1
  Cs  Cs2  1  0.41293610  0.41293610  0.00000000  1
  K  K0  1  0.26138210  1.00000000  0.50000000  1
  K  K1  1  1.00000000  0.26138210  0.50000000  1
  K  K2  1  0.73861790  0.73861790  0.50000000  1
  Tc  Tc0  1  0.00000000  0.00000000  0.00000000  1
  Tc  Tc1  1  0.33333300  0.66666700  0.50000000  1
  Tc  Tc2  1  0.66666700  0.33333300  0.50000000  1
  H  H0  1  0.87911135  1.00000000  0.20127001  1
  H  H1  1  1.00000000  0.87911135  0.20127001  1
  H  H2  1  0.87911135  1.00000000  0.79872999  1
  H  H3  1  1.00000000  0.87911135  0.79872999  1
  H  H4  1  0.12088865  0.12088865  0.20127001  1
  H  H5  1  0.12088865  0.12088865  0.79872999  1
  H  H6  1  0.16879801  1.00000000  0.00000000  1
  H  H7  1  1.00000000  0.16879801  0.00000000  1
  H  H8  1  0.83120199  0.83120199  0.00000000  1
  H  H9  1  0.22815792  0.53530449  0.29807727  1
  H  H10  1  0.46469551  0.69285343  0.29807727  1
  H  H11  1  0.22815792  0.53530449  0.70192273  1
  H  H12  1  0.53530449  0.22815792  0.70192273  1
  H  H13  1  0.30714657  0.77184208  0.29807727  1
  H  H14  1  0.46469551  0.69285343  0.70192273  1
  H  H15  1  0.69285343  0.46469551  0.70192273  1
  H  H16  1  0.53530449  0.22815792  0.29807727  1
  H  H17  1  0.30714657  0.77184208  0.70192273  1
  H  H18  1  0.69285343  0.46469551  0.29807727  1
  H  H19  1  0.77184208  0.30714657  0.70192273  1
  H  H20  1  0.77184208  0.30714657  0.29807727  1
  H  H21  1  0.36902472  0.51918229  0.50000000  1
  H  H22  1  0.48081771  0.84984343  0.50000000  1
  H  H23  1  0.51918229  0.36902472  0.50000000  1
  H  H24  1  0.15015657  0.63097528  0.50000000  1
  H  H25  1  0.84984343  0.48081771  0.50000000  1
  H  H26  1  0.63097528  0.15015657  0.50000000  1
loop_
_geom_bond_atom_site_label_1
_geom_bond_atom_site_label_2
_geom_bond_distance
_geom_bond_site_symmetry_2
Cs0 H16 3.088496 1_565
Cs0 H12 3.088496 1_564
Cs0 H13 3.088497 1_555
Cs0 H17 3.088497 1_554
Cs0 H0 3.106072 1_555
Cs0 H2 3.106072 1_554
Cs0 H10 3.168380 1_555
Cs0 H14 3.168380 1_554
Cs0 H20 3.168380 1_565
Cs0 H19 3.168380 1_564
Cs0 H26 3.241883 1_565
Cs0 H26 3.241883 1_564
Cs0 H22 3.241884 1_555
Cs0 H22 3.241884 1_554
Cs1 H9 3.088496 1_655
Cs1 H11 3.088496 1_654
Cs1 H20 3.088496 1_555
Cs1 H19 3.088496 1_554
Cs1 H1 3.106072 1_555
Cs1 H3 3.106072 1_554
Cs1 H18 3.168380 1_555
Cs1 H15 3.168380 1_554
Cs1 H13 3.168380 1_655
Cs1 H17 3.168380 1_654
Cs1 H24 3.241883 1_655
Cs1 H24 3.241883 1_654
Cs1 H25 3.241884 1_555
Cs1 H25 3.241884 1_554
Cs2 H10 3.088496 1_555
Cs2 H14 3.088496 1_554
Cs2 H18 3.088496 1_555
Cs2 H15 3.088496 1_554
Cs2 H4 3.106072 1_555
Cs2 H5 3.106072 1_554
Cs2 H16 3.168379 1_555
Cs2 H12 3.168379 1_554
Cs2 H9 3.168380 1_555
Cs2 H11 3.168380 1_554
Cs2 H21 3.241887 1_555
Cs2 H21 3.241887 1_554
Cs2 H23 3.241887 1_554
Cs2 H23 3.241887 1_555
H0 Tc0 1.683074 1_665
H0 K1 2.843609 1_565
H0 K2 2.843609 1_555
H1 Tc0 1.683074 1_665
H1 K0 2.843610 1_655
H1 K2 2.843610 1_555
H2 Tc0 1.683074 1_666
H2 K1 2.843609 1_565
H2 K2 2.843609 1_555
H3 Tc0 1.683074 1_666
H3 K0 2.843610 1_655
H3 K2 2.843610 1_555
H4 Tc0 1.683074 1_555
H4 K1 2.843609 1_455
H4 K0 2.843609 1_545
H5 Tc0 1.683074 1_556
H5 K1 2.843609 1_455
H5 K0 2.843609 1_545
H6 Tc0 1.657515 1_565
H7 Tc0 1.657515 1_655
H8 Tc0 1.657515 1_665
H9 Tc1 1.682607 1_555
H9 K1 2.767851 1_455
H10 Tc1 1.682609 1_555
H10 K2 2.767851 1_555
H11 Tc1 1.682607 1_555
H11 K1 2.767851 1_455
H12 Tc2 1.682607 1_555
H12 K0 2.767851 1_545
H13 Tc1 1.682602 1_555
H13 K0 2.767851 1_555
H14 Tc1 1.682609 1_555
H14 K2 2.767851 1_555
H15 Tc2 1.682609 1_555
H15 K2 2.767851 1_555
H16 Tc2 1.682607 1_555
H16 K0 2.767851 1_545
H17 Tc1 1.682602 1_555
H17 K0 2.767851 1_555
H18 Tc2 1.682609 1_555
H18 K2 2.767851 1_555
H19 Tc2 1.682602 1_555
H19 K1 2.767851 1_555
H20 Tc2 1.682602 1_555
H20 K1 2.767851 1_555
H21 Tc1 1.651595 1_555
H22 Tc1 1.651595 1_555
H23 Tc2 1.651595 1_555
H24 Tc1 1.651595 1_555
H25 Tc2 1.651596 1_555
H26 Tc2 1.651595 1_555
