# generated using pymatgen
data_KRb2Se3
_symmetry_space_group_name_H-M   'P 1'
_cell_length_a   9.19610479
_cell_length_b   9.16026528
_cell_length_c   6.24196752
_cell_angle_alpha   90.00000000
_cell_angle_beta   90.00000000
_cell_angle_gamma   120.12950546
_symmetry_Int_Tables_number   1
_chemical_formula_structural   KRb2Se3
_chemical_formula_sum   'K2 Rb4 Se6'
_cell_volume   454.77425500
_cell_formula_units_Z   2
loop_
 _symmetry_equiv_pos_site_id
 _symmetry_equiv_pos_as_xyz
  1  'x, y, z'
loop_
 _atom_site_type_symbol
 _atom_site_label
 _atom_site_symmetry_multiplicity
 _atom_site_fract_x
 _atom_site_fract_y
 _atom_site_fract_z
 _atom_site_occupancy
  K  K0  1  0.99954458  0.31341993  0.50000000  1
  K  K1  1  0.68612465  0.68658007  0.50000000  1
  Rb  Rb0  1  0.31173612  1.00000000  0.50000000  1
  Rb  Rb1  1  0.00274957  0.64803846  0.00000000  1
  Rb  Rb2  1  0.35471011  0.35196154  0.00000000  1
  Rb  Rb3  1  0.64341170  1.00000000  0.00000000  1
  Se  Se0  1  0.67356381  0.34001840  0.30668751  1
  Se  Se1  1  0.67356381  0.34001840  0.69331249  1
  Se  Se2  1  0.33354541  0.65998160  0.69331249  1
  Se  Se3  1  0.33354541  0.65998160  0.30668751  1
  Se  Se4  1  0.99375242  1.00000000  0.80666795  1
  Se  Se5  1  0.99375242  1.00000000  0.19333205  1
loop_
_geom_bond_atom_site_label_1
_geom_bond_atom_site_label_2
_geom_bond_distance
_geom_bond_site_symmetry_2
K0 Se2 3.343543 1_655
K0 Se3 3.343543 1_655
K0 Se1 3.351888 1_555
K0 Se0 3.351888 1_555
K0 Se5 3.428734 1_545
K0 Se4 3.428734 1_545
K1 Se1 3.343543 1_555
K1 Se0 3.343543 1_555
K1 Se2 3.351888 1_555
K1 Se3 3.351888 1_555
K1 Se4 3.428734 1_555
K1 Se5 3.428734 1_555
Rb0 Se2 3.438670 1_555
Rb0 Se3 3.438670 1_555
Rb0 Se1 3.438670 1_565
Rb0 Se0 3.438670 1_565
Rb0 Se4 3.495028 1_455
Rb0 Se5 3.495028 1_455
Rb1 Se4 3.482171 1_454
Rb1 Se5 3.482171 1_455
Rb1 Se0 3.494999 1_455
Rb1 Se1 3.494999 1_454
Rb1 Se3 3.549155 1_555
Rb1 Se2 3.549155 1_554
Rb2 Se4 3.482166 1_444
Rb2 Se5 3.482166 1_445
Rb2 Se3 3.494995 1_555
Rb2 Se2 3.494995 1_554
Rb2 Se0 3.549163 1_555
Rb2 Se1 3.549163 1_554
Rb3 Se5 3.440364 1_555
Rb3 Se4 3.440364 1_554
Rb3 Se0 3.546215 1_565
Rb3 Se1 3.546215 1_564
Rb3 Se3 3.546215 1_555
Rb3 Se2 3.546215 1_554
Se0 Se1 2.413301 1_555
Se2 Se3 2.413301 1_555
Se4 Se5 2.413545 1_556
