# generated using pymatgen
data_HfBe4Tc
_symmetry_space_group_name_H-M   'P 1'
_cell_length_a   4.55365082
_cell_length_b   4.55365107
_cell_length_c   4.55365196
_cell_angle_alpha   60.00000793
_cell_angle_beta   60.00000613
_cell_angle_gamma   60.00001839
_symmetry_Int_Tables_number   1
_chemical_formula_structural   HfBe4Tc
_chemical_formula_sum   'Hf1 Be4 Tc1'
_cell_volume   66.76739258
_cell_formula_units_Z   1
loop_
 _symmetry_equiv_pos_site_id
 _symmetry_equiv_pos_as_xyz
  1  'x, y, z'
loop_
 _atom_site_type_symbol
 _atom_site_label
 _atom_site_symmetry_multiplicity
 _atom_site_fract_x
 _atom_site_fract_y
 _atom_site_fract_z
 _atom_site_occupancy
  Hf  Hf0  1  0.75000000  0.75000000  0.75000000  1
  Be  Be0  1  0.12677572  0.12677572  0.12677572  1
  Be  Be1  1  0.61967284  0.12677572  0.12677572  1
  Be  Be2  1  0.12677572  0.61967284  0.12677572  1
  Be  Be3  1  0.12677572  0.12677572  0.61967284  1
  Tc  Tc0  1  0.50000000  0.50000000  0.50000000  1
loop_
_geom_bond_atom_site_label_1
_geom_bond_atom_site_label_2
_geom_bond_distance
_geom_bond_site_symmetry_2
Hf0 Tc0 2.788530 1_555
Hf0 Tc0 2.788531 1_655
Hf0 Tc0 2.788531 1_565
Hf0 Tc0 2.788531 1_556
Be0 Be1 2.244481 1_555
Be0 Be2 2.244482 1_555
Be0 Be3 2.244482 1_555
Be0 Be1 2.309169 1_455
Be0 Be2 2.309170 1_545
Be0 Be3 2.309170 1_554
Be0 Tc0 2.666438 1_554
Be0 Tc0 2.666439 1_455
Be0 Tc0 2.666439 1_545
Be0 Hf0 2.673334 1_445
Be0 Hf0 2.673334 1_544
Be0 Hf0 2.673334 1_454
Be1 Be3 2.244482 1_555
Be1 Be2 2.244482 1_555
Be1 Be3 2.309170 1_654
Be1 Be2 2.309170 1_645
Be1 Tc0 2.666438 1_545
Be1 Tc0 2.666438 1_555
Be1 Tc0 2.666439 1_554
Be1 Hf0 2.673334 1_554
Be1 Hf0 2.673334 1_544
Be1 Hf0 2.673334 1_545
Be2 Be3 2.244482 1_555
Be2 Be3 2.309170 1_564
Be2 Tc0 2.666438 1_455
Be2 Tc0 2.666438 1_555
Be2 Tc0 2.666439 1_554
Be2 Hf0 2.673334 1_554
Be2 Hf0 2.673334 1_454
Be2 Hf0 2.673334 1_455
Be3 Tc0 2.666438 1_555
Be3 Tc0 2.666438 1_455
Be3 Tc0 2.666439 1_545
Be3 Hf0 2.673333 1_445
Be3 Hf0 2.673334 1_545
Be3 Hf0 2.673334 1_455
