# generated using pymatgen
data_Y20Cd6CoTc
_symmetry_space_group_name_H-M   'P 1'
_cell_length_a   9.63239086
_cell_length_b   9.63239156
_cell_length_c   9.83901847
_cell_angle_alpha   90.00000000
_cell_angle_beta   90.00000000
_cell_angle_gamma   120.00000103
_symmetry_Int_Tables_number   1
_chemical_formula_structural   Y20Cd6CoTc
_chemical_formula_sum   'Y20 Cd6 Co1 Tc1'
_cell_volume   790.58874711
_cell_formula_units_Z   1
loop_
 _symmetry_equiv_pos_site_id
 _symmetry_equiv_pos_as_xyz
  1  'x, y, z'
loop_
 _atom_site_type_symbol
 _atom_site_label
 _atom_site_symmetry_multiplicity
 _atom_site_fract_x
 _atom_site_fract_y
 _atom_site_fract_z
 _atom_site_occupancy
  Y  Y0  1  0.00000000  0.00000000  0.50022544  1
  Y  Y1  1  0.00000000  0.00000000  0.99977456  1
  Y  Y2  1  0.21167949  0.78832051  0.43489449  1
  Y  Y3  1  0.21167949  0.42336098  0.43489449  1
  Y  Y4  1  0.57663902  0.78832051  0.43489449  1
  Y  Y5  1  0.78989431  0.21010569  0.56070664  1
  Y  Y6  1  0.78989431  0.57978762  0.56070664  1
  Y  Y7  1  0.42021238  0.21010569  0.56070664  1
  Y  Y8  1  0.78989431  0.21010569  0.93929336  1
  Y  Y9  1  0.78989431  0.57978762  0.93929336  1
  Y  Y10  1  0.42021238  0.21010569  0.93929336  1
  Y  Y11  1  0.21167949  0.78832051  0.06510551  1
  Y  Y12  1  0.21167949  0.42336098  0.06510551  1
  Y  Y13  1  0.57663902  0.78832051  0.06510551  1
  Y  Y14  1  0.54237547  0.45762453  0.25000000  1
  Y  Y15  1  0.54237547  0.08475094  0.25000000  1
  Y  Y16  1  0.91524906  0.45762453  0.25000000  1
  Y  Y17  1  0.45908883  0.54091117  0.75000000  1
  Y  Y18  1  0.45908883  0.91817866  0.75000000  1
  Y  Y19  1  0.08182134  0.54091117  0.75000000  1
  Cd  Cd0  1  0.88627512  0.11372488  0.25000000  1
  Cd  Cd1  1  0.88627512  0.77255024  0.25000000  1
  Cd  Cd2  1  0.22744976  0.11372488  0.25000000  1
  Cd  Cd3  1  0.11408153  0.88591847  0.75000000  1
  Cd  Cd4  1  0.11408153  0.22816407  0.75000000  1
  Cd  Cd5  1  0.77183593  0.88591847  0.75000000  1
  Co  Co0  1  0.33333300  0.66666700  0.25000000  1
  Tc  Tc0  1  0.66666700  0.33333300  0.75000000  1
loop_
_geom_bond_atom_site_label_1
_geom_bond_atom_site_label_2
_geom_bond_distance
_geom_bond_site_symmetry_2
Cd0 Y0 3.108262 1_655
Cd0 Y1 3.108262 1_654
Cd0 Y15 3.182224 1_555
Cd0 Y16 3.182224 1_555
Cd0 Cd2 3.286328 1_655
Cd0 Cd1 3.286328 1_545
Cd0 Y8 3.454157 1_554
Cd0 Y5 3.454157 1_555
Cd0 Y3 3.561041 1_655
Cd0 Y12 3.561041 1_655
Cd0 Y4 3.561041 1_545
Cd0 Y13 3.561041 1_545
Cd1 Y0 3.108262 1_665
Cd1 Y1 3.108262 1_664
Cd1 Y14 3.182224 1_555
Cd1 Y16 3.182224 1_555
Cd1 Cd2 3.286328 1_665
Cd1 Y9 3.454161 1_554
Cd1 Y6 3.454161 1_555
Cd1 Y2 3.561033 1_655
Cd1 Y11 3.561033 1_655
Cd1 Y4 3.561050 1_555
Cd1 Y13 3.561050 1_555
Cd2 Y0 3.108262 1_555
Cd2 Y1 3.108262 1_554
Cd2 Y15 3.182224 1_555
Cd2 Y14 3.182224 1_555
Cd2 Y10 3.454161 1_554
Cd2 Y7 3.454161 1_555
Cd2 Y2 3.561034 1_545
Cd2 Y11 3.561034 1_545
Cd2 Y3 3.561050 1_555
Cd2 Y12 3.561050 1_555
Cd3 Y1 3.108389 1_565
Cd3 Y0 3.108389 1_565
Cd3 Y18 3.179284 1_555
Cd3 Y19 3.179284 1_555
Cd3 Cd5 3.296643 1_455
Cd3 Cd4 3.296644 1_565
Cd3 Y11 3.501916 1_556
Cd3 Y2 3.501916 1_555
Cd3 Y6 3.564707 1_455
Cd3 Y9 3.564707 1_455
Cd3 Y7 3.564707 1_565
Cd3 Y10 3.564707 1_565
Cd4 Y1 3.108394 1_555
Cd4 Y0 3.108394 1_555
Cd4 Y17 3.179284 1_555
Cd4 Y19 3.179284 1_555
Cd4 Cd5 3.296643 1_445
Cd4 Y12 3.501920 1_556
Cd4 Y3 3.501920 1_555
Cd4 Y5 3.564699 1_455
Cd4 Y8 3.564699 1_455
Cd4 Y7 3.564716 1_555
Cd4 Y10 3.564716 1_555
Cd5 Y1 3.108394 1_665
Cd5 Y0 3.108394 1_665
Cd5 Y18 3.179284 1_555
Cd5 Y17 3.179284 1_555
Cd5 Y13 3.501920 1_556
Cd5 Y4 3.501920 1_555
Cd5 Y5 3.564700 1_565
Cd5 Y8 3.564700 1_565
Cd5 Y6 3.564716 1_555
Cd5 Y9 3.564716 1_555
Co0 Y4 2.725588 1_555
Co0 Y13 2.725588 1_555
Co0 Y3 2.725588 1_555
Co0 Y12 2.725588 1_555
Co0 Y2 2.725594 1_555
Co0 Y11 2.725594 1_555
Tc0 Y7 2.774073 1_555
Tc0 Y10 2.774073 1_555
Tc0 Y5 2.774073 1_555
Tc0 Y8 2.774073 1_555
Tc0 Y6 2.774073 1_555
Tc0 Y9 2.774073 1_555
Tc0 Y19 3.463174 1_655
Tc0 Y18 3.463174 1_545
Tc0 Y17 3.463191 1_555
