# generated using pymatgen
data_Sr6BiOsO12
_symmetry_space_group_name_H-M   'P 1'
_cell_length_a   6.94659568
_cell_length_b   6.94662132
_cell_length_c   6.94660268
_cell_angle_alpha   92.05497659
_cell_angle_beta   92.05425715
_cell_angle_gamma   92.05423177
_symmetry_Int_Tables_number   1
_chemical_formula_structural   Sr6BiOsO12
_chemical_formula_sum   'Sr6 Bi1 Os1 O12'
_cell_volume   334.54855379
_cell_formula_units_Z   1
loop_
 _symmetry_equiv_pos_site_id
 _symmetry_equiv_pos_as_xyz
  1  'x, y, z'
loop_
 _atom_site_type_symbol
 _atom_site_label
 _atom_site_symmetry_multiplicity
 _atom_site_fract_x
 _atom_site_fract_y
 _atom_site_fract_z
 _atom_site_occupancy
  Sr  Sr0  1  0.06466539  0.25445776  0.56533747  1
  Sr  Sr1  1  0.43466665  0.93534408  0.74553502  1
  Sr  Sr2  1  0.74553660  0.43466216  0.93533927  1
  Sr  Sr3  1  0.25446340  0.56533784  0.06466073  1
  Sr  Sr4  1  0.56533335  0.06465592  0.25446498  1
  Sr  Sr5  1  0.93533461  0.74554224  0.43466253  1
  Bi  Bi0  1  0.00000000  0.00000000  0.00000000  1
  Os  Os0  1  0.50000000  0.50000000  0.50000000  1
  O  O0  1  0.06895748  0.29135528  0.92942325  1
  O  O1  1  0.07057777  0.93104016  0.70864645  1
  O  O2  1  0.45306890  0.56972027  0.76141288  1
  O  O3  1  0.70864849  0.07057931  0.93104428  1
  O  O4  1  0.23858973  0.54693263  0.43028619  1
  O  O5  1  0.43027183  0.23857739  0.54692452  1
  O  O6  1  0.56972817  0.76142261  0.45307548  1
  O  O7  1  0.76141027  0.45306737  0.56971381  1
  O  O8  1  0.29135151  0.92942069  0.06895572  1
  O  O9  1  0.54693110  0.43027973  0.23858712  1
  O  O10  1  0.92942223  0.06895984  0.29135355  1
  O  O11  1  0.93104252  0.70864472  0.07057675  1
loop_
_geom_bond_atom_site_label_1
_geom_bond_atom_site_label_2
_geom_bond_distance
_geom_bond_site_symmetry_2
Bi0 O8 2.141141 1_545
Bi0 O3 2.141141 1_454
Bi0 O10 2.141152 1_455
Bi0 O1 2.141152 1_544
Bi0 O0 2.141175 1_554
Bi0 O11 2.141175 1_445
O0 Sr3 2.403051 1_556
O0 Sr2 2.490839 1_455
O0 Sr0 2.531953 1_555
O1 Sr5 2.403039 1_455
O1 Sr0 2.490842 1_565
O1 Sr1 2.531969 1_555
O2 Os0 1.905031 1_555
O2 Sr2 2.551381 1_555
O2 Sr1 2.553762 1_555
O2 Sr3 2.559643 1_556
O3 Sr1 2.403052 1_545
O3 Sr4 2.490866 1_556
O3 Sr2 2.531938 1_555
O4 Os0 1.905011 1_555
O4 Sr0 2.551403 1_555
O4 Sr3 2.553767 1_555
O4 Sr5 2.559701 1_455
O5 Os0 1.905112 1_555
O5 Sr4 2.551314 1_555
O5 Sr0 2.553639 1_555
O5 Sr1 2.559599 1_545
O6 Os0 1.905112 1_555
O6 Sr1 2.551314 1_555
O6 Sr5 2.553639 1_555
O6 Sr4 2.559599 1_565
O7 Os0 1.905011 1_555
O7 Sr5 2.551403 1_555
O7 Sr2 2.553767 1_555
O7 Sr0 2.559701 1_655
O8 Sr4 2.403052 1_565
O8 Sr1 2.490866 1_554
O8 Sr3 2.531938 1_555
O9 Os0 1.905031 1_555
O9 Sr3 2.551381 1_555
O9 Sr4 2.553762 1_555
O9 Sr2 2.559643 1_554
O10 Sr0 2.403039 1_655
O10 Sr5 2.490842 1_545
O10 Sr4 2.531969 1_555
O11 Sr2 2.403051 1_554
O11 Sr3 2.490839 1_655
O11 Sr5 2.531953 1_555
