# generated using pymatgen
data_Ca4Al2Pd3Pt
_symmetry_space_group_name_H-M   'P 1'
_cell_length_a   5.74412683
_cell_length_b   5.73894017
_cell_length_c   7.73688657
_cell_angle_alpha   79.42338017
_cell_angle_beta   79.53371632
_cell_angle_gamma   60.19700201
_symmetry_Int_Tables_number   1
_chemical_formula_structural   Ca4Al2Pd3Pt
_chemical_formula_sum   'Ca4 Al2 Pd3 Pt1'
_cell_volume   216.32916876
_cell_formula_units_Z   1
loop_
 _symmetry_equiv_pos_site_id
 _symmetry_equiv_pos_as_xyz
  1  'x, y, z'
loop_
 _atom_site_type_symbol
 _atom_site_label
 _atom_site_symmetry_multiplicity
 _atom_site_fract_x
 _atom_site_fract_y
 _atom_site_fract_z
 _atom_site_occupancy
  Ca  Ca0  1  0.78216047  0.51998098  0.34993864  1
  Ca  Ca1  1  0.48180133  0.21728935  0.14722825  1
  Ca  Ca2  1  0.21821057  0.48286750  0.65132840  1
  Ca  Ca3  1  0.51871639  0.78019608  0.85196379  1
  Al  Al0  1  0.11691605  0.87847504  0.24914316  1
  Al  Al1  1  0.88332206  0.11495061  0.75171381  1
  Pd  Pd0  1  0.25779322  0.99603689  0.49469888  1
  Pd  Pd1  1  0.99665479  0.26288377  0.99761097  1
  Pd  Pd2  1  0.74012627  0.00617061  0.50302851  1
  Pt  Pt0  1  0.00429783  0.74114917  0.00334659  1
loop_
_geom_bond_atom_site_label_1
_geom_bond_atom_site_label_2
_geom_bond_distance
_geom_bond_site_symmetry_2
Ca0 Pd0 3.077238 1_645
Ca0 Pd2 3.078616 1_555
Ca0 Pd0 3.083591 1_555
Ca0 Pt0 3.089854 1_655
Ca0 Pd1 3.094329 1_554
Ca0 Pd2 3.112251 1_565
Ca1 Pt0 3.076407 1_645
Ca1 Pt0 3.079714 1_555
Ca1 Pd1 3.083884 1_454
Ca1 Pd1 3.093352 1_554
Ca1 Pd0 3.099895 1_545
Ca1 Pd2 3.117717 1_555
Ca2 Pd0 3.073906 1_555
Ca2 Pd1 3.083502 1_455
Ca2 Pd2 3.088415 1_555
Ca2 Pd2 3.091739 1_465
Ca2 Pt0 3.095187 1_556
Ca2 Pd0 3.136460 1_545
Ca3 Pd1 3.068322 1_555
Ca3 Pt0 3.075358 1_556
Ca3 Pd1 3.097871 1_465
Ca3 Pt0 3.109839 1_656
Ca3 Pd2 3.113583 1_565
Ca3 Pd0 3.134295 1_555
Al0 Pt0 2.481927 1_555
Al0 Pd0 2.508228 1_555
Al0 Pd2 2.546958 1_465
Al0 Pd1 2.555146 1_464
Al1 Pd2 2.508907 1_555
Al1 Pt0 2.520244 1_646
Al1 Pd1 2.521165 1_555
Al1 Pd0 2.555713 1_645
Pd1 Pt0 2.775370 1_656
Pd1 Pt0 2.964863 1_646
