# generated using pymatgen
data_K2LiTaSe4
_symmetry_space_group_name_H-M   'P 1'
_cell_length_a   13.63340040
_cell_length_b   12.20856463
_cell_length_c   7.47241918
_cell_angle_alpha   84.01745398
_cell_angle_beta   62.95027390
_cell_angle_gamma   33.03227313
_symmetry_Int_Tables_number   1
_chemical_formula_structural   K2LiTaSe4
_chemical_formula_sum   'K4 Li2 Ta2 Se8'
_cell_volume   495.85661201
_cell_formula_units_Z   2
loop_
 _symmetry_equiv_pos_site_id
 _symmetry_equiv_pos_as_xyz
  1  'x, y, z'
loop_
 _atom_site_type_symbol
 _atom_site_label
 _atom_site_symmetry_multiplicity
 _atom_site_fract_x
 _atom_site_fract_y
 _atom_site_fract_z
 _atom_site_occupancy
  K  K0  1  0.43022011  0.43022011  0.06977989  1
  K  K1  1  0.81977989  0.81977989  0.18022011  1
  K  K2  1  0.06977989  0.06977989  0.43022011  1
  K  K3  1  0.18022011  0.18022011  0.81977989  1
  Li  Li0  1  0.50000000  0.50000000  0.50000000  1
  Li  Li1  1  0.75000000  0.75000000  0.75000000  1
  Ta  Ta0  1  0.00000000  0.00000000  0.00000000  1
  Ta  Ta1  1  0.25000000  0.25000000  0.25000000  1
  Se  Se0  1  0.72821371  0.38689420  0.06749031  1
  Se  Se1  1  0.81740178  0.06749031  0.38689420  1
  Se  Se2  1  0.06749031  0.81740178  0.72821371  1
  Se  Se3  1  0.38689420  0.72821371  0.81740178  1
  Se  Se4  1  0.52178629  0.86310580  0.18250969  1
  Se  Se5  1  0.86310580  0.52178629  0.43259822  1
  Se  Se6  1  0.18250969  0.43259822  0.52178629  1
  Se  Se7  1  0.43259822  0.18250969  0.86310580  1
loop_
_geom_bond_atom_site_label_1
_geom_bond_atom_site_label_2
_geom_bond_distance
_geom_bond_site_symmetry_2
K0 Se6 3.506482 1_555
K0 Se7 3.506482 1_554
K0 Se2 3.577015 1_644
K0 Se1 3.577015 1_465
K0 Se0 3.622268 1_555
K0 Se3 3.622268 1_554
K0 Se1 3.811814 1_554
K0 Se2 3.811814 1_555
K1 Se2 3.506482 1_654
K1 Se1 3.506482 1_565
K1 Se6 3.577015 1_565
K1 Se7 3.577015 1_654
K1 Se4 3.622268 1_555
K1 Se5 3.622268 1_555
K1 Se7 3.811814 1_565
K1 Se6 3.811814 1_654
K2 Se4 3.506481 1_545
K2 Se5 3.506482 1_455
K2 Se0 3.577015 1_456
K2 Se3 3.577015 1_544
K2 Se1 3.622268 1_455
K2 Se2 3.622268 1_545
K2 Se3 3.811814 1_455
K2 Se0 3.811814 1_545
K3 Se0 3.506481 1_456
K3 Se3 3.506482 1_545
K3 Se4 3.577015 1_545
K3 Se5 3.577015 1_456
K3 Se7 3.622268 1_555
K3 Se6 3.622268 1_555
K3 Se5 3.811814 1_545
K3 Se4 3.811814 1_456
Li0 Se2 2.571590 1_555
Li0 Se1 2.571590 1_555
Li0 Se0 2.571590 1_555
Li0 Se3 2.571590 1_555
Li1 Se6 2.571590 1_655
Li1 Se7 2.571590 1_565
Li1 Se4 2.571590 1_556
Li1 Se5 2.571590 1_555
Se0 Ta0 2.397005 1_655
Se1 Ta0 2.397005 1_655
Se2 Ta0 2.397005 1_566
Se3 Ta0 2.397004 1_566
Se4 Ta1 2.397005 1_565
Se5 Ta1 2.397004 1_655
Se6 Ta1 2.397005 1_555
Se7 Ta1 2.397005 1_556
