# generated using pymatgen
data_Rb2Hf(PO4)2
_symmetry_space_group_name_H-M   'P 1'
_cell_length_a   5.27708179
_cell_length_b   5.27708034
_cell_length_c   9.17461973
_cell_angle_alpha   90.00000000
_cell_angle_beta   90.00000000
_cell_angle_gamma   119.99999064
_symmetry_Int_Tables_number   1
_chemical_formula_structural   Rb2Hf(PO4)2
_chemical_formula_sum   'Rb2 Hf1 P2 O8'
_cell_volume   221.26171656
_cell_formula_units_Z   1
loop_
 _symmetry_equiv_pos_site_id
 _symmetry_equiv_pos_as_xyz
  1  'x, y, z'
loop_
 _atom_site_type_symbol
 _atom_site_label
 _atom_site_symmetry_multiplicity
 _atom_site_fract_x
 _atom_site_fract_y
 _atom_site_fract_z
 _atom_site_occupancy
  Rb  Rb0  1  0.33333300  0.66666700  0.65507942  1
  Rb  Rb1  1  0.66666700  0.33333300  0.34492058  1
  Hf  Hf0  1  0.00000000  0.00000000  0.00000000  1
  P  P0  1  0.33333300  0.66666700  0.18750964  1
  P  P1  1  0.66666700  0.33333300  0.81249036  1
  O  O0  1  0.33333300  0.66666700  0.35195635  1
  O  O1  1  0.66666700  0.33333300  0.64804365  1
  O  O2  1  0.24255892  0.88392034  0.12953867  1
  O  O3  1  0.11607966  0.35863758  0.12953867  1
  O  O4  1  0.64136242  0.75744108  0.12953867  1
  O  O5  1  0.75744108  0.11607966  0.87046133  1
  O  O6  1  0.88392034  0.64136242  0.87046133  1
  O  O7  1  0.35863758  0.24255892  0.87046133  1
loop_
_geom_bond_atom_site_label_1
_geom_bond_atom_site_label_2
_geom_bond_distance
_geom_bond_site_symmetry_2
Hf0 O3 2.051867 1_555
Hf0 O6 2.051867 1_444
Hf0 O4 2.051869 1_445
Hf0 O7 2.051869 1_554
Hf0 O2 2.051872 1_545
Hf0 O5 2.051872 1_454
O0 P0 1.508736 1_555
O0 Rb0 2.781039 1_555
O0 Rb1 3.047405 1_565
O0 Rb1 3.047406 1_455
O0 Rb1 3.047414 1_555
O1 P1 1.508736 1_555
O1 Rb1 2.781039 1_555
O1 Rb0 3.047405 1_545
O1 Rb0 3.047406 1_655
O1 Rb0 3.047414 1_555
O2 P0 1.541395 1_555
O2 Rb1 3.038146 1_565
O3 P0 1.541402 1_555
O3 Rb1 3.038146 1_455
O4 P0 1.541405 1_555
O4 Rb1 3.038146 1_555
O5 P1 1.541395 1_555
O5 Rb0 3.038146 1_545
O6 P1 1.541402 1_555
O6 Rb0 3.038146 1_655
O7 P1 1.541405 1_555
O7 Rb0 3.038146 1_555
