# generated using pymatgen
data_POsCl10
_symmetry_space_group_name_H-M   'P 1'
_cell_length_a   9.32446802
_cell_length_b   9.32446802
_cell_length_c   7.91061671
_cell_angle_alpha   90.00000000
_cell_angle_beta   90.00000000
_cell_angle_gamma   90.00000000
_symmetry_Int_Tables_number   1
_chemical_formula_structural   POsCl10
_chemical_formula_sum   'P2 Os2 Cl20'
_cell_volume   687.79413724
_cell_formula_units_Z   2
loop_
 _symmetry_equiv_pos_site_id
 _symmetry_equiv_pos_as_xyz
  1  'x, y, z'
loop_
 _atom_site_type_symbol
 _atom_site_label
 _atom_site_symmetry_multiplicity
 _atom_site_fract_x
 _atom_site_fract_y
 _atom_site_fract_z
 _atom_site_occupancy
  P  P0  1  0.00000000  0.00000000  0.00000000  1
  P  P1  1  0.50000000  0.50000000  0.00000000  1
  Os  Os0  1  0.00000000  0.50000000  0.62179462  1
  Os  Os1  1  0.50000000  0.00000000  0.37820538  1
  Cl  Cl0  1  0.33804826  0.55312467  0.14106150  1
  Cl  Cl1  1  0.05312467  0.16195174  0.14106150  1
  Cl  Cl2  1  0.94687533  0.83804826  0.14106150  1
  Cl  Cl3  1  0.66195174  0.44687533  0.14106150  1
  Cl  Cl4  1  0.16195174  0.94687533  0.85893850  1
  Cl  Cl5  1  0.44687533  0.33804826  0.85893850  1
  Cl  Cl6  1  0.55312467  0.66195174  0.85893850  1
  Cl  Cl7  1  0.83804826  0.05312467  0.85893850  1
  Cl  Cl8  1  0.00000000  0.50000000  0.91315811  1
  Cl  Cl9  1  0.50000000  0.00000000  0.08684189  1
  Cl  Cl10  1  0.00000000  0.50000000  0.32734204  1
  Cl  Cl11  1  0.50000000  0.00000000  0.67265796  1
  Cl  Cl12  1  0.23157338  0.58715272  0.62043271  1
  Cl  Cl13  1  0.08715272  0.26842662  0.62043271  1
  Cl  Cl14  1  0.91284728  0.73157338  0.62043271  1
  Cl  Cl15  1  0.76842662  0.41284728  0.62043271  1
  Cl  Cl16  1  0.26842662  0.91284728  0.37956729  1
  Cl  Cl17  1  0.41284728  0.23157338  0.37956729  1
  Cl  Cl18  1  0.58715272  0.76842662  0.37956729  1
  Cl  Cl19  1  0.73157338  0.08715272  0.37956729  1
loop_
_geom_bond_atom_site_label_1
_geom_bond_atom_site_label_2
_geom_bond_distance
_geom_bond_site_symmetry_2
Cl0 P1 1.941912 1_555
Cl1 P0 1.941912 1_555
Cl2 P0 1.941912 1_665
Cl3 P1 1.941912 1_555
Cl4 P0 1.941912 1_566
Cl5 P1 1.941912 1_556
Cl6 P1 1.941912 1_556
Cl7 P0 1.941912 1_656
Cl8 Os0 2.304865 1_555
Cl9 Os1 2.304865 1_555
Cl10 Os0 2.329301 1_555
Cl11 Os1 2.329301 1_555
Cl12 Os0 2.307183 1_555
Cl13 Os0 2.307183 1_555
Cl14 Os0 2.307183 1_655
Cl15 Os0 2.307183 1_655
Cl16 Os1 2.307183 1_565
Cl17 Os1 2.307183 1_555
Cl18 Os1 2.307183 1_565
Cl19 Os1 2.307183 1_555
