# generated using pymatgen
data_Cs4TaCrAs4
_symmetry_space_group_name_H-M   'P 1'
_cell_length_a   8.92382637
_cell_length_b   8.92382664
_cell_length_c   8.92382591
_cell_angle_alpha   136.96142101
_cell_angle_beta   127.60349183
_cell_angle_gamma   70.05684035
_symmetry_Int_Tables_number   1
_chemical_formula_structural   Cs4TaCrAs4
_chemical_formula_sum   'Cs4 Ta1 Cr1 As4'
_cell_volume   376.94927844
_cell_formula_units_Z   1
loop_
 _symmetry_equiv_pos_site_id
 _symmetry_equiv_pos_as_xyz
  1  'x, y, z'
loop_
 _atom_site_type_symbol
 _atom_site_label
 _atom_site_symmetry_multiplicity
 _atom_site_fract_x
 _atom_site_fract_y
 _atom_site_fract_z
 _atom_site_occupancy
  Cs  Cs0  1  0.00078113  0.14735277  0.84380693  1
  Cs  Cs1  1  0.99921887  0.84302480  0.14657164  1
  Cs  Cs2  1  0.69645316  0.35264723  0.35342836  1
  Cs  Cs3  1  0.30354684  0.65697520  0.65619307  1
  Ta  Ta0  1  0.50000000  0.25000000  0.75000000  1
  Cr  Cr0  1  0.50000000  0.75000000  0.25000000  1
  As  As0  1  0.24142863  0.40609365  0.83068495  1
  As  As1  1  0.75857137  0.58925632  0.16466402  1
  As  As2  1  0.42459130  0.09390635  0.33533598  1
  As  As3  1  0.57540870  0.91074368  0.66931505  1
loop_
_geom_bond_atom_site_label_1
_geom_bond_atom_site_label_2
_geom_bond_distance
_geom_bond_site_symmetry_2
As0 Ta0 2.480298 1_555
As0 Cr0 2.500306 1_556
As0 Cs1 3.666167 1_456
As0 Cs1 3.695119 1_445
As0 Cs0 3.747188 1_555
As0 Cs3 3.839312 1_555
As0 Cs2 3.918335 1_455
As1 Ta0 2.480298 1_554
As1 Cr0 2.500310 1_555
As1 Cs0 3.666173 1_665
As1 Cs0 3.695112 1_654
As1 Cs1 3.747173 1_555
As1 Cs2 3.839312 1_555
As1 Cs3 3.918335 1_655
As2 Ta0 2.480290 1_555
As2 Cr0 2.500302 1_545
As2 Cs3 3.666180 1_544
As2 Cs3 3.695120 1_555
As2 Cs2 3.747188 1_555
As2 Cs1 3.839299 1_445
As2 Cs0 3.918335 1_554
As3 Ta0 2.480298 1_565
As3 Cr0 2.500306 1_555
As3 Cs2 3.666168 1_555
As3 Cs2 3.695118 1_566
As3 Cs3 3.747173 1_555
As3 Cs0 3.839299 1_665
As3 Cs1 3.918335 1_556
