# generated using pymatgen
data_K3CaOs2O9
_symmetry_space_group_name_H-M   'P 1'
_cell_length_a   5.98177892
_cell_length_b   5.98177901
_cell_length_c   14.60990032
_cell_angle_alpha   90.00000000
_cell_angle_beta   90.00000000
_cell_angle_gamma   119.99998362
_symmetry_Int_Tables_number   1
_chemical_formula_structural   K3CaOs2O9
_chemical_formula_sum   'K6 Ca2 Os4 O18'
_cell_volume   452.72937989
_cell_formula_units_Z   2
loop_
 _symmetry_equiv_pos_site_id
 _symmetry_equiv_pos_as_xyz
  1  'x, y, z'
loop_
 _atom_site_type_symbol
 _atom_site_label
 _atom_site_symmetry_multiplicity
 _atom_site_fract_x
 _atom_site_fract_y
 _atom_site_fract_z
 _atom_site_occupancy
  K  K0  1  0.00000000  0.00000000  0.25000000  1
  K  K1  1  0.00000000  0.00000000  0.75000000  1
  K  K2  1  0.33333300  0.66666700  0.39006414  1
  K  K3  1  0.66666700  0.33333300  0.60993586  1
  K  K4  1  0.66666700  0.33333300  0.89006414  1
  K  K5  1  0.33333300  0.66666700  0.10993586  1
  Ca  Ca0  1  0.00000000  0.00000000  0.50000000  1
  Ca  Ca1  1  0.00000000  0.00000000  0.00000000  1
  Os  Os0  1  0.66666700  0.33333300  0.34823046  1
  Os  Os1  1  0.33333300  0.66666700  0.65176954  1
  Os  Os2  1  0.33333300  0.66666700  0.84823046  1
  Os  Os3  1  0.66666700  0.33333300  0.15176954  1
  O  O0  1  0.53031590  0.46968410  0.25000000  1
  O  O1  1  0.53031590  0.06063080  0.25000000  1
  O  O2  1  0.93936920  0.46968410  0.25000000  1
  O  O3  1  0.46968410  0.53031590  0.75000000  1
  O  O4  1  0.46968410  0.93936920  0.75000000  1
  O  O5  1  0.06063080  0.53031590  0.75000000  1
  O  O6  1  0.35923327  0.17961713  0.40917481  1
  O  O7  1  0.82038287  0.17961713  0.40917481  1
  O  O8  1  0.82038287  0.64076673  0.40917481  1
  O  O9  1  0.64076673  0.82038287  0.59082519  1
  O  O10  1  0.17961713  0.82038287  0.59082519  1
  O  O11  1  0.17961713  0.35923327  0.59082519  1
  O  O12  1  0.64076673  0.82038287  0.90917481  1
  O  O13  1  0.17961713  0.82038287  0.90917481  1
  O  O14  1  0.17961713  0.35923327  0.90917481  1
  O  O15  1  0.35923327  0.17961713  0.09082519  1
  O  O16  1  0.82038287  0.17961713  0.09082519  1
  O  O17  1  0.82038287  0.64076673  0.09082519  1
loop_
_geom_bond_atom_site_label_1
_geom_bond_atom_site_label_2
_geom_bond_distance
_geom_bond_site_symmetry_2
K0 O6 2.978466 1_555
K0 O15 2.978466 1_555
K0 O8 2.978466 1_445
K0 O17 2.978466 1_445
K0 O7 2.978469 1_455
K0 O16 2.978469 1_455
K0 O1 3.007333 1_455
K0 O2 3.007333 1_455
K0 O0 3.007338 1_555
K0 O0 3.007338 1_445
K0 O1 3.007339 1_555
K0 O2 3.007340 1_445
K1 O12 2.978466 1_445
K1 O9 2.978466 1_445
K1 O14 2.978466 1_555
K1 O11 2.978466 1_555
K1 O13 2.978469 1_545
K1 O10 2.978469 1_545
K1 O4 3.007333 1_545
K1 O5 3.007333 1_545
K1 O3 3.007338 1_445
K1 O3 3.007338 1_555
K1 O4 3.007339 1_445
K1 O5 3.007340 1_555
K2 O2 2.890091 1_455
K2 O1 2.890091 1_565
K2 O0 2.890098 1_555
K2 O8 3.006888 1_555
K2 O6 3.006888 1_555
K2 O8 3.006888 1_455
K2 O6 3.006888 1_565
K2 O7 3.006889 1_455
K2 O7 3.006889 1_565
K2 O10 3.337586 1_555
K2 O9 3.337591 1_555
K2 O11 3.337591 1_555
K3 O5 2.890091 1_655
K3 O4 2.890091 1_545
K3 O3 2.890098 1_555
K3 O11 3.006888 1_555
K3 O9 3.006888 1_555
K3 O11 3.006888 1_655
K3 O9 3.006888 1_545
K3 O10 3.006889 1_655
K3 O10 3.006889 1_545
K3 O7 3.337586 1_555
K3 O6 3.337591 1_555
K3 O8 3.337591 1_555
K4 O5 2.890091 1_655
K4 O4 2.890091 1_545
K4 O3 2.890098 1_555
K4 O14 3.006888 1_555
K4 O12 3.006888 1_555
K4 O14 3.006888 1_655
K4 O12 3.006888 1_545
K4 O13 3.006889 1_655
K4 O13 3.006889 1_545
K4 O16 3.337586 1_556
K4 O15 3.337591 1_556
K4 O17 3.337591 1_556
K5 O2 2.890091 1_455
K5 O1 2.890091 1_565
K5 O0 2.890098 1_555
K5 O17 3.006888 1_555
K5 O15 3.006888 1_555
K5 O17 3.006888 1_455
K5 O15 3.006888 1_565
K5 O16 3.006889 1_455
K5 O16 3.006889 1_565
K5 O13 3.337586 1_554
K5 O12 3.337591 1_554
K5 O14 3.337591 1_554
Ca0 O9 2.285600 1_445
Ca0 O6 2.285600 1_555
Ca0 O11 2.285600 1_555
Ca0 O8 2.285600 1_445
Ca0 O10 2.285604 1_545
Ca0 O7 2.285604 1_455
Ca1 O15 2.285600 1_555
Ca1 O12 2.285600 1_444
Ca1 O17 2.285600 1_445
Ca1 O14 2.285600 1_554
Ca1 O16 2.285604 1_455
Ca1 O13 2.285604 1_544
O0 Os0 2.013787 1_555
O0 Os3 2.013787 1_555
O1 Os3 2.013787 1_555
O1 Os0 2.013787 1_555
O2 Os3 2.013787 1_555
O2 Os0 2.013787 1_555
O3 Os1 2.013787 1_555
O3 Os2 2.013787 1_555
O4 Os1 2.013787 1_555
O4 Os2 2.013787 1_555
O5 Os1 2.013787 1_555
O5 Os2 2.013787 1_555
O6 Os0 1.824620 1_555
O7 Os0 1.824611 1_555
O8 Os0 1.824620 1_555
O9 Os1 1.824620 1_555
O10 Os1 1.824611 1_555
O11 Os1 1.824620 1_555
O12 Os2 1.824620 1_555
O13 Os2 1.824611 1_555
O14 Os2 1.824620 1_555
O15 Os3 1.824620 1_555
O16 Os3 1.824611 1_555
O17 Os3 1.824620 1_555
