# generated using pymatgen
data_Hf3Ta2Nb5N12
_symmetry_space_group_name_H-M   'P 1'
_cell_length_a   5.28345809
_cell_length_b   5.29445703
_cell_length_c   10.50014808
_cell_angle_alpha   89.98223437
_cell_angle_beta   90.00880551
_cell_angle_gamma   120.08629461
_symmetry_Int_Tables_number   1
_chemical_formula_structural   Hf3Ta2Nb5N12
_chemical_formula_sum   'Hf3 Ta2 Nb5 N12'
_cell_volume   254.14842720
_cell_formula_units_Z   1
loop_
 _symmetry_equiv_pos_site_id
 _symmetry_equiv_pos_as_xyz
  1  'x, y, z'
loop_
 _atom_site_type_symbol
 _atom_site_label
 _atom_site_symmetry_multiplicity
 _atom_site_fract_x
 _atom_site_fract_y
 _atom_site_fract_z
 _atom_site_occupancy
  Hf  Hf0  1  0.66553623  0.33187897  0.00009209  1
  Hf  Hf1  1  0.33457434  0.66633352  0.00022791  1
  Hf  Hf2  1  0.33449588  0.66662676  0.49946288  1
  Ta  Ta0  1  0.00173204  0.68172073  0.25131660  1
  Ta  Ta1  1  0.66552116  0.33238968  0.49998283  1
  Nb  Nb0  1  0.67844654  0.67981147  0.74836551  1
  Nb  Nb1  1  0.31961807  0.99721267  0.74829367  1
  Nb  Nb2  1  0.00217614  0.32160433  0.74835025  1
  Nb  Nb3  1  0.31979786  0.32217914  0.25188685  1
  Nb  Nb4  1  0.67849247  0.99897270  0.25188167  1
  N  N0  1  0.66164055  0.65112766  0.37936376  1
  N  N1  1  0.34457870  0.00259739  0.37931480  1
  N  N2  1  0.99314849  0.34908999  0.37839077  1
  N  N3  1  0.35001258  0.34296713  0.62009073  1
  N  N4  1  0.65678189  0.00656446  0.62001634  1
  N  N5  1  0.99312856  0.64821880  0.62024787  1
  N  N6  1  0.34724209  0.34660992  0.87461804  1
  N  N7  1  0.65312939  0.99990049  0.87461954  1
  N  N8  1  0.99986161  0.65125978  0.87449994  1
  N  N9  1  0.65811134  0.65366945  0.12607216  1
  N  N10  1  0.34219899  0.99611487  0.12603927  1
  N  N11  1  0.99977108  0.35315306  0.12686654  1
loop_
_geom_bond_atom_site_label_1
_geom_bond_atom_site_label_2
_geom_bond_distance
_geom_bond_site_symmetry_2
Hf0 N6 2.168117 1_554
Hf0 N11 2.168653 1_555
Hf0 N7 2.171466 1_544
Hf0 N9 2.173108 1_555
Hf0 N8 2.173288 1_554
Hf0 N10 2.186763 1_545
Hf1 N11 2.169155 1_455
Hf1 N7 2.170320 1_554
Hf1 N6 2.173588 1_554
Hf1 N10 2.173987 1_555
Hf1 N8 2.175873 1_454
Hf1 N9 2.187862 1_555
Hf2 N2 2.157735 1_455
Hf2 N1 2.159188 1_565
Hf2 N4 2.160819 1_565
Hf2 N3 2.164931 1_555
Hf2 N5 2.166874 1_455
Hf2 N0 2.174281 1_555
N0 Ta1 2.117936 1_555
N0 Ta0 2.184368 1_655
N0 Nb3 2.221226 1_555
N0 Nb4 2.241765 1_555
N1 Ta1 2.135811 1_555
N1 Ta0 2.211109 1_545
N1 Nb3 2.211555 1_555
N1 Nb4 2.222149 1_545
N2 Ta1 2.116933 1_555
N2 Ta0 2.191429 1_655
N2 Nb4 2.208080 1_545
N2 Nb3 2.238433 1_655
N3 Ta1 2.113465 1_555
N3 Nb1 2.211954 1_545
N3 Nb0 2.214466 1_555
N3 Nb2 2.235220 1_555
N4 Ta1 2.117860 1_555
N4 Nb2 2.208387 1_655
N4 Nb1 2.214112 1_545
N4 Nb0 2.240364 1_545
N5 Ta1 2.117905 1_555
N5 Nb0 2.209436 1_555
N5 Nb2 2.209812 1_655
N5 Nb1 2.236647 1_655
N6 Nb0 2.199059 1_555
N6 Nb2 2.203762 1_555
N6 Nb1 2.221145 1_545
N7 Nb1 2.199721 1_555
N7 Nb0 2.208180 1_555
N7 Nb2 2.215846 1_665
N8 Nb2 2.196306 1_655
N8 Nb1 2.204960 1_655
N8 Nb0 2.217511 1_555
N9 Ta0 2.185548 1_655
N9 Nb3 2.207827 1_555
N9 Nb4 2.214284 1_555
N10 Ta0 2.175824 1_555
N10 Nb4 2.208067 1_555
N10 Nb3 2.224117 1_565
N11 Ta0 2.171909 1_655
N11 Nb3 2.210501 1_655
N11 Nb4 2.220053 1_545
