# generated using pymatgen
data_BaNbF7
_symmetry_space_group_name_H-M   'P 1'
_cell_length_a   7.54322819
_cell_length_b   5.00277821
_cell_length_c   7.03528700
_cell_angle_alpha   85.99584180
_cell_angle_beta   90.00000000
_cell_angle_gamma   90.00000000
_symmetry_Int_Tables_number   1
_chemical_formula_structural   BaNbF7
_chemical_formula_sum   'Ba2 Nb2 F14'
_cell_volume   264.84324411
_cell_formula_units_Z   2
loop_
 _symmetry_equiv_pos_site_id
 _symmetry_equiv_pos_as_xyz
  1  'x, y, z'
loop_
 _atom_site_type_symbol
 _atom_site_label
 _atom_site_symmetry_multiplicity
 _atom_site_fract_x
 _atom_site_fract_y
 _atom_site_fract_z
 _atom_site_occupancy
  Ba  Ba0  1  0.25000000  0.03321881  0.68743951  1
  Ba  Ba1  1  0.75000000  0.96678119  0.31256049  1
  Nb  Nb0  1  0.75000000  0.54549653  0.78314194  1
  Nb  Nb1  1  0.25000000  0.45450347  0.21685806  1
  F  F0  1  0.25000000  0.62179860  0.95324431  1
  F  F1  1  0.46500981  0.66722911  0.21132774  1
  F  F2  1  0.96500981  0.33277089  0.78867226  1
  F  F3  1  0.57886716  0.80652202  0.64590170  1
  F  F4  1  0.75000000  0.42349483  0.51575977  1
  F  F5  1  0.25000000  0.57650517  0.48424023  1
  F  F6  1  0.75000000  0.37820140  0.04675569  1
  F  F7  1  0.92113284  0.80652202  0.64590170  1
  F  F8  1  0.42113284  0.19347798  0.35409830  1
  F  F9  1  0.25000000  0.15149287  0.05688314  1
  F  F10  1  0.07886716  0.19347798  0.35409830  1
  F  F11  1  0.53499019  0.33277089  0.78867226  1
  F  F12  1  0.75000000  0.84850713  0.94311686  1
  F  F13  1  0.03499019  0.66722911  0.21132774  1
loop_
_geom_bond_atom_site_label_1
_geom_bond_atom_site_label_2
_geom_bond_distance
_geom_bond_site_symmetry_2
Ba0 F0 2.682496 1_545
Ba0 F9 2.705629 1_556
Ba0 F2 2.742895 1_455
Ba0 F11 2.742895 1_555
Ba0 F10 2.747061 1_555
Ba0 F8 2.747061 1_555
Ba0 F7 2.751703 1_445
Ba0 F3 2.751703 1_545
Ba0 F5 2.778544 1_545
Ba0 F5 2.981313 1_555
Ba1 F6 2.682496 1_565
Ba1 F12 2.705629 1_554
Ba1 F13 2.742895 1_655
Ba1 F1 2.742895 1_555
Ba1 F3 2.747061 1_555
Ba1 F7 2.747061 1_555
Ba1 F8 2.751703 1_565
Ba1 F10 2.751703 1_665
Ba1 F4 2.778544 1_565
Ba1 F4 2.981313 1_555
F0 Nb1 1.980714 1_556
F1 Nb1 1.938749 1_555
F2 Nb0 1.938749 1_555
F3 Nb0 2.031702 1_555
F4 Nb0 2.017782 1_555
F5 Nb1 2.017782 1_555
F6 Nb0 1.980714 1_554
F7 Nb0 2.031702 1_555
F8 Nb1 2.031702 1_555
F9 Nb1 1.950099 1_555
F10 Nb1 2.031702 1_555
F11 Nb0 1.938749 1_555
F12 Nb0 1.950099 1_555
F13 Nb1 1.938749 1_555
