# generated using pymatgen
data_Hf3SnRh2N
_symmetry_space_group_name_H-M   'P 1'
_cell_length_a   8.60069523
_cell_length_b   8.60069511
_cell_length_c   8.60069652
_cell_angle_alpha   59.99999833
_cell_angle_beta   59.99999877
_cell_angle_gamma   60.00000092
_symmetry_Int_Tables_number   1
_chemical_formula_structural   Hf3SnRh2N
_chemical_formula_sum   'Hf12 Sn4 Rh8 N4'
_cell_volume   449.86865086
_cell_formula_units_Z   4
loop_
 _symmetry_equiv_pos_site_id
 _symmetry_equiv_pos_as_xyz
  1  'x, y, z'
loop_
 _atom_site_type_symbol
 _atom_site_label
 _atom_site_symmetry_multiplicity
 _atom_site_fract_x
 _atom_site_fract_y
 _atom_site_fract_z
 _atom_site_occupancy
  Hf  Hf0  1  0.81412341  0.81412341  0.18587659  1
  Hf  Hf1  1  0.18587659  0.18587659  0.81412341  1
  Hf  Hf2  1  0.81412341  0.18587659  0.81412341  1
  Hf  Hf3  1  0.18587659  0.81412341  0.18587659  1
  Hf  Hf4  1  0.18587659  0.81412341  0.81412341  1
  Hf  Hf5  1  0.81412341  0.18587659  0.18587659  1
  Hf  Hf6  1  0.43587659  0.43587659  0.06412341  1
  Hf  Hf7  1  0.06412341  0.06412341  0.43587659  1
  Hf  Hf8  1  0.43587659  0.06412341  0.43587659  1
  Hf  Hf9  1  0.06412341  0.43587659  0.06412341  1
  Hf  Hf10  1  0.06412341  0.43587659  0.43587659  1
  Hf  Hf11  1  0.43587659  0.06412341  0.06412341  1
  Sn  Sn0  1  0.12500000  0.62500000  0.62500000  1
  Sn  Sn1  1  0.62500000  0.12500000  0.62500000  1
  Sn  Sn2  1  0.62500000  0.62500000  0.12500000  1
  Sn  Sn3  1  0.62500000  0.62500000  0.62500000  1
  Rh  Rh0  1  0.77595664  0.40801445  0.40801445  1
  Rh  Rh1  1  0.40801445  0.77595664  0.40801445  1
  Rh  Rh2  1  0.40801445  0.40801445  0.77595664  1
  Rh  Rh3  1  0.40801445  0.40801445  0.40801445  1
  Rh  Rh4  1  0.47404336  0.84198555  0.84198555  1
  Rh  Rh5  1  0.84198555  0.47404336  0.84198555  1
  Rh  Rh6  1  0.84198555  0.84198555  0.47404336  1
  Rh  Rh7  1  0.84198555  0.84198555  0.84198555  1
  N  N0  1  0.62500000  0.12500000  0.12500000  1
  N  N1  1  0.12500000  0.62500000  0.12500000  1
  N  N2  1  0.12500000  0.12500000  0.62500000  1
  N  N3  1  0.12500000  0.12500000  0.12500000  1
loop_
_geom_bond_atom_site_label_1
_geom_bond_atom_site_label_2
_geom_bond_distance
_geom_bond_site_symmetry_2
Hf0 N0 2.274098 1_565
Hf0 N1 2.274098 1_655
Hf0 Rh6 2.739114 1_555
Hf0 Rh7 2.739114 1_554
Hf0 Rh0 3.131123 1_555
Hf0 Rh1 3.131123 1_555
Hf0 Sn2 3.148786 1_555
Hf0 Sn3 3.148787 1_555
Hf1 N2 2.274098 1_555
Hf1 N3 2.274098 1_556
Hf1 Rh4 2.739114 1_545
Hf1 Rh5 2.739114 1_455
Hf1 Rh2 3.131123 1_555
Hf1 Rh3 3.131124 1_555
Hf1 Sn0 3.148786 1_555
Hf1 Sn1 3.148786 1_555
Hf2 N2 2.274098 1_655
Hf2 N0 2.274098 1_556
Hf2 Rh7 2.739114 1_545
Hf2 Rh5 2.739114 1_555
Hf2 Rh2 3.131124 1_555
Hf2 Rh0 3.131124 1_555
Hf2 Sn3 3.148786 1_555
Hf2 Sn1 3.148787 1_555
Hf3 N3 2.274098 1_565
Hf3 N1 2.274098 1_555
Hf3 Rh6 2.739114 1_455
Hf3 Rh4 2.739114 1_554
Hf3 Rh3 3.131124 1_555
Hf3 Rh1 3.131124 1_555
Hf3 Sn2 3.148786 1_555
Hf3 Sn0 3.148787 1_555
Hf4 N2 2.274098 1_565
Hf4 N1 2.274098 1_556
Hf4 Rh7 2.739114 1_455
Hf4 Rh4 2.739114 1_555
Hf4 Rh2 3.131124 1_555
Hf4 Rh1 3.131124 1_555
Hf4 Sn3 3.148786 1_555
Hf4 Sn0 3.148787 1_555
Hf5 N3 2.274098 1_655
Hf5 N0 2.274098 1_555
Hf5 Rh6 2.739114 1_545
Hf5 Rh5 2.739114 1_554
Hf5 Rh3 3.131124 1_555
Hf5 Rh0 3.131124 1_555
Hf5 Sn2 3.148786 1_555
Hf5 Sn1 3.148787 1_555
Hf6 N0 2.274098 1_555
Hf6 N1 2.274098 1_555
Hf6 Rh2 2.739114 1_554
Hf6 Rh3 2.739114 1_555
Hf6 Rh4 3.131123 1_554
Hf6 Rh5 3.131123 1_554
Hf6 Sn2 3.148786 1_555
Hf6 Sn3 3.148787 1_554
Hf7 N2 2.274098 1_555
Hf7 N3 2.274098 1_555
Hf7 Rh0 2.739114 1_455
Hf7 Rh1 2.739114 1_545
Hf7 Rh6 3.131123 1_445
Hf7 Rh7 3.131124 1_445
Hf7 Sn0 3.148786 1_545
Hf7 Sn1 3.148786 1_455
Hf8 N2 2.274098 1_555
Hf8 N0 2.274098 1_555
Hf8 Rh3 2.739114 1_555
Hf8 Rh1 2.739114 1_545
Hf8 Rh6 3.131124 1_545
Hf8 Rh4 3.131124 1_545
Hf8 Sn3 3.148786 1_545
Hf8 Sn1 3.148787 1_555
Hf9 N3 2.274098 1_555
Hf9 N1 2.274098 1_555
Hf9 Rh2 2.739114 1_554
Hf9 Rh0 2.739114 1_455
Hf9 Rh7 3.131124 1_454
Hf9 Rh5 3.131124 1_454
Hf9 Sn2 3.148786 1_455
Hf9 Sn0 3.148787 1_554
Hf10 N2 2.274098 1_555
Hf10 N1 2.274098 1_555
Hf10 Rh3 2.739114 1_555
Hf10 Rh0 2.739114 1_455
Hf10 Rh6 3.131124 1_455
Hf10 Rh5 3.131124 1_455
Hf10 Sn3 3.148786 1_455
Hf10 Sn0 3.148787 1_555
Hf11 N3 2.274098 1_555
Hf11 N0 2.274098 1_555
Hf11 Rh2 2.739114 1_554
Hf11 Rh1 2.739114 1_545
Hf11 Rh7 3.131124 1_544
Hf11 Rh4 3.131124 1_544
Hf11 Sn2 3.148786 1_545
Hf11 Sn1 3.148787 1_554
Rh0 Sn1 2.699649 1_555
Rh0 Sn3 2.699650 1_555
Rh0 Sn2 2.699650 1_555
Rh1 Sn0 2.699649 1_555
Rh1 Sn3 2.699650 1_555
Rh1 Sn2 2.699650 1_555
Rh2 Sn3 2.699649 1_555
Rh2 Sn1 2.699650 1_555
Rh2 Sn0 2.699650 1_555
Rh3 Sn2 2.699649 1_555
Rh3 Sn1 2.699650 1_555
Rh3 Sn0 2.699650 1_555
Rh4 Sn1 2.699649 1_565
Rh4 Sn3 2.699650 1_555
Rh4 Sn2 2.699650 1_556
Rh5 Sn0 2.699649 1_655
Rh5 Sn3 2.699650 1_555
Rh5 Sn2 2.699650 1_556
Rh6 Sn3 2.699649 1_555
Rh6 Sn1 2.699650 1_565
Rh6 Sn0 2.699650 1_655
Rh7 Sn2 2.699649 1_556
Rh7 Sn1 2.699650 1_565
Rh7 Sn0 2.699650 1_655
