# generated using pymatgen
data_RbNaP2Pd
_symmetry_space_group_name_H-M   'P 1'
_cell_length_a   7.01460069
_cell_length_b   7.01460102
_cell_length_c   5.92319620
_cell_angle_alpha   90.00000000
_cell_angle_beta   90.00000000
_cell_angle_gamma   124.91348923
_symmetry_Int_Tables_number   1
_chemical_formula_structural   RbNaP2Pd
_chemical_formula_sum   'Rb2 Na2 P4 Pd2'
_cell_volume   238.99289094
_cell_formula_units_Z   2
loop_
 _symmetry_equiv_pos_site_id
 _symmetry_equiv_pos_as_xyz
  1  'x, y, z'
loop_
 _atom_site_type_symbol
 _atom_site_label
 _atom_site_symmetry_multiplicity
 _atom_site_fract_x
 _atom_site_fract_y
 _atom_site_fract_z
 _atom_site_occupancy
  Rb  Rb0  1  0.40136035  0.59863965  0.25000000  1
  Rb  Rb1  1  0.59863965  0.40136035  0.75000000  1
  Na  Na0  1  0.78961007  0.21038993  0.25000000  1
  Na  Na1  1  0.21038993  0.78961007  0.75000000  1
  P  P0  1  0.95851357  0.70864040  0.25000000  1
  P  P1  1  0.04148643  0.29135960  0.75000000  1
  P  P2  1  0.29135960  0.04148643  0.25000000  1
  P  P3  1  0.70864040  0.95851357  0.75000000  1
  Pd  Pd0  1  0.00000000  0.00000000  0.00000000  1
  Pd  Pd1  1  0.00000000  0.00000000  0.50000000  1
loop_
_geom_bond_atom_site_label_1
_geom_bond_atom_site_label_2
_geom_bond_distance
_geom_bond_site_symmetry_2
Rb0 Rb1 3.846183 1_555
Rb0 Rb1 3.846183 1_554
Na0 P2 2.979762 1_555
Na0 P0 2.979762 1_555
Na0 Pd0 3.006966 1_655
Na0 Pd1 3.006966 1_655
Na0 P1 3.326650 1_654
Na0 P1 3.326650 1_655
Na0 P3 3.326650 1_544
Na0 P3 3.326650 1_545
Na0 Rb0 3.528990 1_655
Na0 Rb0 3.528990 1_545
Na0 Rb1 3.796593 1_554
Na0 Rb1 3.796593 1_555
Na1 P3 2.979762 1_555
Na1 P1 2.979762 1_555
Na1 Pd1 3.006966 1_565
Na1 Pd0 3.006966 1_566
Na1 P0 3.326650 1_455
Na1 P0 3.326650 1_456
Na1 P2 3.326650 1_565
Na1 P2 3.326650 1_566
Na1 Rb1 3.528990 1_455
Na1 Rb1 3.528990 1_565
Na1 Rb0 3.796593 1_555
Na1 Rb0 3.796593 1_556
P0 P2 2.159291 1_665
P0 Pd0 2.402841 1_665
P0 Pd1 2.402841 1_665
P0 Rb0 3.523856 1_555
P0 Rb0 3.603994 1_655
P0 Rb1 3.682540 1_555
P0 Rb1 3.682540 1_554
P1 P3 2.159291 1_445
P1 Pd0 2.402841 1_556
P1 Pd1 2.402841 1_555
P1 Rb1 3.523856 1_555
P1 Rb1 3.603994 1_455
P1 Rb0 3.682540 1_555
P1 Rb0 3.682540 1_556
P2 Pd0 2.402841 1_555
P2 Pd1 2.402841 1_555
P2 Rb0 3.523856 1_555
P2 Rb0 3.603994 1_545
P2 Rb1 3.682541 1_554
P2 Rb1 3.682541 1_555
P3 Pd0 2.402841 1_666
P3 Pd1 2.402841 1_665
P3 Rb1 3.523856 1_555
P3 Rb1 3.603994 1_565
P3 Rb0 3.682541 1_555
P3 Rb0 3.682541 1_556
Pd0 Rb1 3.770906 1_554
Pd0 Rb0 3.770906 1_445
Pd0 Rb0 3.770906 1_555
Pd0 Rb1 3.770906 1_444
Pd1 Rb1 3.770906 1_555
Pd1 Rb0 3.770906 1_445
Pd1 Rb0 3.770906 1_555
Pd1 Rb1 3.770906 1_445
