# generated using pymatgen
data_Sr2CrIO4
_symmetry_space_group_name_H-M   'P 1'
_cell_length_a   6.59854531
_cell_length_b   7.55234561
_cell_length_c   11.71285428
_cell_angle_alpha   90.00000000
_cell_angle_beta   90.00000000
_cell_angle_gamma   90.00000000
_symmetry_Int_Tables_number   1
_chemical_formula_structural   Sr2CrIO4
_chemical_formula_sum   'Sr8 Cr4 I4 O16'
_cell_volume   583.70417478
_cell_formula_units_Z   4
loop_
 _symmetry_equiv_pos_site_id
 _symmetry_equiv_pos_as_xyz
  1  'x, y, z'
loop_
 _atom_site_type_symbol
 _atom_site_label
 _atom_site_symmetry_multiplicity
 _atom_site_fract_x
 _atom_site_fract_y
 _atom_site_fract_z
 _atom_site_occupancy
  Sr  Sr0  1  0.61942696  0.25000000  0.00000000  1
  Sr  Sr1  1  0.38057304  0.75000000  0.00000000  1
  Sr  Sr2  1  0.38057304  0.75000000  0.50000000  1
  Sr  Sr3  1  0.61942696  0.25000000  0.50000000  1
  Sr  Sr4  1  0.10304833  0.03680372  0.25000000  1
  Sr  Sr5  1  0.89695167  0.96319628  0.75000000  1
  Sr  Sr6  1  0.89695167  0.53680372  0.25000000  1
  Sr  Sr7  1  0.10304833  0.46319628  0.75000000  1
  Cr  Cr0  1  0.11636763  0.25000000  0.00000000  1
  Cr  Cr1  1  0.88363237  0.75000000  0.00000000  1
  Cr  Cr2  1  0.88363237  0.75000000  0.50000000  1
  Cr  Cr3  1  0.11636763  0.25000000  0.50000000  1
  I  I0  1  0.40690066  0.42689233  0.25000000  1
  I  I1  1  0.59309934  0.57310767  0.75000000  1
  I  I2  1  0.59309934  0.92689233  0.25000000  1
  I  I3  1  0.40690066  0.07310767  0.75000000  1
  O  O0  1  0.04525940  0.77004354  0.11459114  1
  O  O1  1  0.95474060  0.22995646  0.88540886  1
  O  O2  1  0.95474060  0.22995646  0.61459114  1
  O  O3  1  0.95474060  0.27004354  0.38540886  1
  O  O4  1  0.04525940  0.77004354  0.38540886  1
  O  O5  1  0.04525940  0.72995646  0.61459114  1
  O  O6  1  0.04525940  0.72995646  0.88540886  1
  O  O7  1  0.95474060  0.27004354  0.11459114  1
  O  O8  1  0.27366127  0.08141097  0.03701427  1
  O  O9  1  0.72633873  0.91858903  0.96298573  1
  O  O10  1  0.72633873  0.91858903  0.53701427  1
  O  O11  1  0.72633873  0.58141097  0.46298573  1
  O  O12  1  0.27366127  0.08141097  0.46298573  1
  O  O13  1  0.27366127  0.41858903  0.53701427  1
  O  O14  1  0.27366127  0.41858903  0.96298573  1
  O  O15  1  0.72633873  0.58141097  0.03701427  1
loop_
_geom_bond_atom_site_label_1
_geom_bond_atom_site_label_2
_geom_bond_distance
_geom_bond_site_symmetry_2
Cr0 O14 1.698930 1_554
Cr0 O8 1.698930 1_555
Cr0 O1 1.720993 1_454
Cr0 O7 1.720993 1_455
Cr1 O9 1.698930 1_554
Cr1 O15 1.698930 1_555
Cr1 O6 1.720993 1_654
Cr1 O0 1.720993 1_655
Cr2 O10 1.698930 1_555
Cr2 O11 1.698930 1_555
Cr2 O4 1.720993 1_655
Cr2 O5 1.720993 1_655
Cr3 O13 1.698930 1_555
Cr3 O12 1.698930 1_555
Cr3 O3 1.720993 1_455
Cr3 O2 1.720993 1_455
I0 Sr6 3.338468 1_555
I0 Sr6 3.465796 1_455
I0 Sr3 3.510816 1_555
I0 Sr0 3.510816 1_555
I0 Sr4 3.563617 1_555
I0 Sr1 3.815664 1_555
I0 Sr2 3.815664 1_555
I1 Sr7 3.338468 1_555
I1 Sr7 3.465796 1_655
I1 Sr1 3.510816 1_556
I1 Sr2 3.510816 1_555
I1 Sr5 3.563617 1_555
I1 Sr3 3.815664 1_555
I1 Sr0 3.815664 1_556
I2 Sr4 3.338468 1_565
I2 Sr4 3.465796 1_665
I2 Sr1 3.510816 1_555
I2 Sr2 3.510816 1_555
I2 Sr6 3.563617 1_555
I2 Sr3 3.815664 1_565
I2 Sr0 3.815664 1_565
I3 Sr5 3.338468 1_545
I3 Sr5 3.465796 1_445
I3 Sr0 3.510816 1_556
I3 Sr3 3.510816 1_555
I3 Sr7 3.563617 1_555
I3 Sr2 3.815664 1_545
I3 Sr1 3.815664 1_546
O0 Sr6 2.564385 1_455
O0 Sr4 2.592249 1_565
O0 Sr1 2.592278 1_555
O1 Sr7 2.564385 1_655
O1 Sr5 2.592249 1_545
O1 Sr0 2.592278 1_556
O2 Sr7 2.564385 1_655
O2 Sr5 2.592249 1_545
O2 Sr3 2.592278 1_555
O3 Sr4 2.564385 1_655
O3 Sr6 2.592249 1_555
O3 Sr3 2.592278 1_555
O4 Sr6 2.564385 1_455
O4 Sr4 2.592249 1_565
O4 Sr2 2.592278 1_555
O5 Sr5 2.564385 1_455
O5 Sr7 2.592249 1_555
O5 Sr2 2.592278 1_555
O6 Sr5 2.564385 1_455
O6 Sr7 2.592249 1_555
O6 Sr1 2.592278 1_556
O7 Sr4 2.564385 1_655
O7 Sr6 2.592249 1_555
O7 Sr0 2.592278 1_555
O8 Sr1 2.636341 1_545
O8 Sr0 2.648505 1_555
O8 Sr4 2.757589 1_555
O9 Sr0 2.636341 1_566
O9 Sr1 2.648505 1_556
O9 Sr5 2.757589 1_555
O10 Sr3 2.636341 1_565
O10 Sr2 2.648505 1_555
O10 Sr5 2.757589 1_555
O11 Sr3 2.636341 1_555
O11 Sr2 2.648505 1_555
O11 Sr6 2.757589 1_555
O12 Sr2 2.636341 1_545
O12 Sr3 2.648505 1_555
O12 Sr4 2.757589 1_555
O13 Sr2 2.636341 1_555
O13 Sr3 2.648505 1_555
O13 Sr7 2.757589 1_555
O14 Sr1 2.636341 1_556
O14 Sr0 2.648505 1_556
O14 Sr7 2.757589 1_555
O15 Sr0 2.636341 1_555
O15 Sr1 2.648505 1_555
O15 Sr6 2.757589 1_555
