# generated using pymatgen
data_CaSc6BBr12
_symmetry_space_group_name_H-M   'P 1'
_cell_length_a   8.61331502
_cell_length_b   8.61331577
_cell_length_c   8.61331518
_cell_angle_alpha   106.38380129
_cell_angle_beta   106.38379484
_cell_angle_gamma   106.38379768
_symmetry_Int_Tables_number   1
_chemical_formula_structural   CaSc6BBr12
_chemical_formula_sum   'Ca1 Sc6 B1 Br12'
_cell_volume   540.87408308
_cell_formula_units_Z   1
loop_
 _symmetry_equiv_pos_site_id
 _symmetry_equiv_pos_as_xyz
  1  'x, y, z'
loop_
 _atom_site_type_symbol
 _atom_site_label
 _atom_site_symmetry_multiplicity
 _atom_site_fract_x
 _atom_site_fract_y
 _atom_site_fract_z
 _atom_site_occupancy
  Ca  Ca0  1  0.50000000  0.50000000  0.50000000  1
  Sc  Sc0  1  0.29309619  0.09246601  0.02108439  1
  Sc  Sc1  1  0.09246601  0.02108439  0.29309619  1
  Sc  Sc2  1  0.02108439  0.29309619  0.09246601  1
  Sc  Sc3  1  0.70690381  0.90753399  0.97891561  1
  Sc  Sc4  1  0.90753399  0.97891561  0.70690381  1
  Sc  Sc5  1  0.97891561  0.70690381  0.90753399  1
  B  B0  1  0.00000000  0.00000000  0.00000000  1
  Br  Br0  1  0.22311210  0.07517282  0.68288718  1
  Br  Br1  1  0.07517282  0.68288718  0.22311210  1
  Br  Br2  1  0.68288718  0.22311210  0.07517282  1
  Br  Br3  1  0.77688790  0.92482718  0.31711282  1
  Br  Br4  1  0.92482718  0.31711282  0.77688790  1
  Br  Br5  1  0.31711282  0.77688790  0.92482718  1
  Br  Br6  1  0.36660374  0.44428916  0.13492501  1
  Br  Br7  1  0.44428916  0.13492501  0.36660374  1
  Br  Br8  1  0.13492501  0.36660374  0.44428916  1
  Br  Br9  1  0.63339626  0.55571084  0.86507499  1
  Br  Br10  1  0.55571084  0.86507499  0.63339626  1
  Br  Br11  1  0.86507499  0.63339626  0.55571084  1
loop_
_geom_bond_atom_site_label_1
_geom_bond_atom_site_label_2
_geom_bond_distance
_geom_bond_site_symmetry_2
B0 Sc0 2.359243 1_555
B0 Sc3 2.359243 1_444
B0 Sc1 2.359243 1_555
B0 Sc4 2.359243 1_444
B0 Sc2 2.359243 1_555
B0 Sc5 2.359243 1_444
Br0 Sc4 2.694673 1_445
Br0 Sc0 2.754103 1_556
Br0 Sc1 3.073421 1_555
Br1 Sc5 2.694673 1_454
Br1 Sc1 2.754103 1_565
Br1 Sc2 3.073421 1_555
Br2 Sc3 2.694673 1_544
Br2 Sc2 2.754103 1_655
Br2 Sc0 3.073421 1_555
Br3 Sc1 2.694673 1_665
Br3 Sc3 2.754103 1_554
Br3 Sc4 3.073421 1_555
Br4 Sc2 2.694673 1_656
Br4 Sc4 2.754103 1_545
Br4 Sc5 3.073421 1_555
Br5 Sc0 2.694673 1_566
Br5 Sc5 2.754103 1_455
Br5 Sc3 3.073421 1_555
Br6 Sc0 2.727000 1_555
Br6 Sc2 2.759990 1_555
Br6 Ca0 2.870164 1_555
Br7 Sc1 2.727000 1_555
Br7 Sc0 2.759990 1_555
Br7 Ca0 2.870164 1_555
Br8 Sc2 2.727000 1_555
Br8 Sc1 2.759990 1_555
Br8 Ca0 2.870164 1_555
Br9 Sc3 2.727000 1_555
Br9 Sc5 2.759990 1_555
Br9 Ca0 2.870164 1_555
Br10 Sc4 2.727000 1_555
Br10 Sc3 2.759990 1_555
Br10 Ca0 2.870164 1_555
Br11 Sc5 2.727000 1_555
Br11 Sc4 2.759990 1_555
Br11 Ca0 2.870164 1_555
