# generated using pymatgen
data_NaYF4
_symmetry_space_group_name_H-M   'P 1'
_cell_length_a   6.55916326
_cell_length_b   6.55916326
_cell_length_c   6.55916326
_cell_angle_alpha   131.49665134
_cell_angle_beta   131.49665134
_cell_angle_gamma   71.02518265
_symmetry_Int_Tables_number   1
_chemical_formula_structural   NaYF4
_chemical_formula_sum   'Na2 Y2 F8'
_cell_volume   155.01326899
_cell_formula_units_Z   2
loop_
 _symmetry_equiv_pos_site_id
 _symmetry_equiv_pos_as_xyz
  1  'x, y, z'
loop_
 _atom_site_type_symbol
 _atom_site_label
 _atom_site_symmetry_multiplicity
 _atom_site_fract_x
 _atom_site_fract_y
 _atom_site_fract_z
 _atom_site_occupancy
  Na  Na0  1  0.50000000  0.50000000  0.00000000  1
  Na  Na1  1  0.25000000  0.75000000  0.50000000  1
  Y  Y0  1  0.00000000  0.00000000  0.00000000  1
  Y  Y1  1  0.75000000  0.25000000  0.50000000  1
  F  F0  1  0.10889164  0.12500000  0.48389164  1
  F  F1  1  0.87500000  0.35889164  0.98389164  1
  F  F2  1  0.64110836  0.12500000  0.01610836  1
  F  F3  1  0.64110836  0.62500000  0.51610836  1
  F  F4  1  0.37500000  0.35889164  0.48389164  1
  F  F5  1  0.10889164  0.62500000  0.98389164  1
  F  F6  1  0.37500000  0.89110836  0.01610836  1
  F  F7  1  0.87500000  0.89110836  0.51610836  1
loop_
_geom_bond_atom_site_label_1
_geom_bond_atom_site_label_2
_geom_bond_distance
_geom_bond_site_symmetry_2
F0 Y1 2.276953 1_455
F0 Y0 2.276953 1_555
F0 Na1 2.377436 1_545
F0 Na0 2.377436 1_556
F1 Y1 2.276953 1_555
F1 Y0 2.276953 1_656
F1 Na1 2.377436 1_656
F1 Na0 2.377436 1_556
F2 Y0 2.276953 1_655
F2 Y1 2.276953 1_555
F2 Na0 2.377436 1_555
F2 Na1 2.377436 1_544
F3 Y0 2.276953 1_666
F3 Y1 2.276953 1_555
F3 Na0 2.377436 1_555
F3 Na1 2.377436 1_555
F4 Y1 2.276953 1_555
F4 Y0 2.276953 1_555
F4 Na1 2.377436 1_555
F4 Na0 2.377436 1_556
F5 Y0 2.276953 1_566
F5 Y1 2.276953 1_455
F5 Na0 2.377436 1_556
F5 Na1 2.377436 1_556
F6 Y1 2.276953 1_565
F6 Y0 2.276953 1_565
F6 Na1 2.377436 1_554
F6 Na0 2.377436 1_555
F7 Y0 2.276953 1_666
F7 Y1 2.276953 1_565
F7 Na0 2.377436 1_555
F7 Na1 2.377436 1_655
