# generated using pymatgen
data_KYH6Os
_symmetry_space_group_name_H-M   'P 1'
_cell_length_a   5.18023590
_cell_length_b   5.18023649
_cell_length_c   5.18023576
_cell_angle_alpha   60.00000466
_cell_angle_beta   60.00000092
_cell_angle_gamma   60.00000795
_symmetry_Int_Tables_number   1
_chemical_formula_structural   KYH6Os
_chemical_formula_sum   'K1 Y1 H6 Os1'
_cell_volume   98.29551368
_cell_formula_units_Z   1
loop_
 _symmetry_equiv_pos_site_id
 _symmetry_equiv_pos_as_xyz
  1  'x, y, z'
loop_
 _atom_site_type_symbol
 _atom_site_label
 _atom_site_symmetry_multiplicity
 _atom_site_fract_x
 _atom_site_fract_y
 _atom_site_fract_z
 _atom_site_occupancy
  K  K0  1  0.25000000  0.25000000  0.25000000  1
  Y  Y0  1  0.75000000  0.75000000  0.75000000  1
  H  H0  1  0.76549452  0.76549452  0.23450548  1
  H  H1  1  0.23450548  0.76549452  0.23450548  1
  H  H2  1  0.76549452  0.23450548  0.23450548  1
  H  H3  1  0.23450548  0.23450548  0.76549452  1
  H  H4  1  0.76549452  0.23450548  0.76549452  1
  H  H5  1  0.23450548  0.76549452  0.76549452  1
  Os  Os0  1  0.00000000  0.00000000  0.00000000  1
loop_
_geom_bond_atom_site_label_1
_geom_bond_atom_site_label_2
_geom_bond_distance
_geom_bond_site_symmetry_2
H0 Os0 1.717978 1_665
H0 Y0 2.592604 1_554
H0 Y0 2.592604 1_555
H0 K0 2.592605 1_565
H0 K0 2.592605 1_655
H1 Os0 1.717978 1_565
H1 Y0 2.592604 1_455
H1 Y0 2.592604 1_554
H1 K0 2.592604 1_565
H1 K0 2.592604 1_555
H2 Os0 1.717978 1_655
H2 K0 2.592604 1_655
H2 K0 2.592604 1_555
H2 Y0 2.592604 1_545
H2 Y0 2.592604 1_554
H3 Os0 1.717978 1_556
H3 K0 2.592604 1_555
H3 K0 2.592604 1_556
H3 Y0 2.592605 1_545
H3 Y0 2.592605 1_455
H4 Os0 1.717978 1_656
H4 K0 2.592604 1_655
H4 K0 2.592604 1_556
H4 Y0 2.592604 1_545
H4 Y0 2.592604 1_555
H5 Os0 1.717978 1_566
H5 Y0 2.592604 1_455
H5 Y0 2.592604 1_555
H5 K0 2.592604 1_565
H5 K0 2.592604 1_556
