# generated using pymatgen
data_Ca(NbS2)2
_symmetry_space_group_name_H-M   'P 1'
_cell_length_a   5.87138746
_cell_length_b   6.77847288
_cell_length_c   14.22293657
_cell_angle_alpha   90.00000000
_cell_angle_beta   90.00000000
_cell_angle_gamma   90.00000000
_symmetry_Int_Tables_number   1
_chemical_formula_structural   Ca(NbS2)2
_chemical_formula_sum   'Ca4 Nb8 S16'
_cell_volume   566.05923124
_cell_formula_units_Z   4
loop_
 _symmetry_equiv_pos_site_id
 _symmetry_equiv_pos_as_xyz
  1  'x, y, z'
loop_
 _atom_site_type_symbol
 _atom_site_label
 _atom_site_symmetry_multiplicity
 _atom_site_fract_x
 _atom_site_fract_y
 _atom_site_fract_z
 _atom_site_occupancy
  Ca  Ca0  1  0.31860993  0.25000000  0.00255190  1
  Ca  Ca1  1  0.31860993  0.75000000  0.49744810  1
  Ca  Ca2  1  0.68139007  0.25000000  0.50255190  1
  Ca  Ca3  1  0.68139007  0.75000000  0.99744810  1
  Nb  Nb0  1  0.16055433  0.00000000  0.25000000  1
  Nb  Nb1  1  0.16055433  0.50000000  0.25000000  1
  Nb  Nb2  1  0.33358104  0.25000000  0.74961618  1
  Nb  Nb3  1  0.33358104  0.75000000  0.75038382  1
  Nb  Nb4  1  0.66641896  0.25000000  0.24961618  1
  Nb  Nb5  1  0.66641896  0.75000000  0.25038382  1
  Nb  Nb6  1  0.83944567  0.00000000  0.75000000  1
  Nb  Nb7  1  0.83944567  0.50000000  0.75000000  1
  S  S0  1  0.00736439  0.25000000  0.63958933  1
  S  S1  1  0.00736439  0.75000000  0.86041067  1
  S  S2  1  0.00029573  0.25000000  0.86017902  1
  S  S3  1  0.00029573  0.75000000  0.63982098  1
  S  S4  1  0.49717752  0.50114786  0.13947583  1
  S  S5  1  0.49717752  0.99885214  0.13947583  1
  S  S6  1  0.49717752  0.00114786  0.36052417  1
  S  S7  1  0.49717752  0.49885214  0.36052417  1
  S  S8  1  0.50282248  0.50114786  0.63947583  1
  S  S9  1  0.50282248  0.00114786  0.86052417  1
  S  S10  1  0.50282248  0.49885214  0.86052417  1
  S  S11  1  0.50282248  0.99885214  0.63947583  1
  S  S12  1  0.99970427  0.75000000  0.13982098  1
  S  S13  1  0.99970427  0.25000000  0.36017902  1
  S  S14  1  0.99263561  0.25000000  0.13958933  1
  S  S15  1  0.99263561  0.75000000  0.36041067  1
loop_
_geom_bond_atom_site_label_1
_geom_bond_atom_site_label_2
_geom_bond_distance
_geom_bond_site_symmetry_2
Ca0 S14 2.731664 1_455
Ca0 S2 2.755617 1_554
Ca0 S4 2.791055 1_555
Ca0 S5 2.791055 1_545
Ca0 S10 2.845321 1_554
Ca0 S9 2.845321 1_554
Ca1 S15 2.731664 1_455
Ca1 S3 2.755617 1_555
Ca1 S6 2.791055 1_565
Ca1 S7 2.791055 1_555
Ca1 S11 2.845321 1_555
Ca1 S8 2.845321 1_555
Ca2 S0 2.731664 1_655
Ca2 S13 2.755617 1_555
Ca2 S8 2.791055 1_555
Ca2 S11 2.791055 1_545
Ca2 S7 2.845321 1_555
Ca2 S6 2.845321 1_555
Ca3 S1 2.731664 1_655
Ca3 S12 2.755617 1_556
Ca3 S9 2.791055 1_565
Ca3 S10 2.791055 1_555
Ca3 S5 2.845321 1_556
Ca3 S4 2.845321 1_556
Nb0 S13 2.493863 1_455
Nb0 S12 2.493863 1_445
Nb0 S15 2.511932 1_445
Nb0 S14 2.511932 1_455
Nb0 S6 2.525374 1_555
Nb0 S5 2.525374 1_545
Nb1 S13 2.493863 1_455
Nb1 S12 2.493863 1_455
Nb1 S15 2.511932 1_455
Nb1 S14 2.511932 1_455
Nb1 S7 2.525374 1_555
Nb1 S4 2.525374 1_555
Nb2 S0 2.473352 1_555
Nb2 S2 2.510398 1_555
Nb2 S10 2.514186 1_555
Nb2 S9 2.514186 1_555
Nb2 S8 2.517846 1_555
Nb2 S11 2.517846 1_545
Nb3 S1 2.473352 1_555
Nb3 S3 2.510398 1_555
Nb3 S11 2.514186 1_555
Nb3 S8 2.514186 1_555
Nb3 S9 2.517846 1_565
Nb3 S10 2.517846 1_555
Nb4 S14 2.473352 1_555
Nb4 S13 2.510398 1_555
Nb4 S7 2.514186 1_555
Nb4 S6 2.514186 1_555
Nb4 S4 2.517846 1_555
Nb4 S5 2.517846 1_545
Nb5 S15 2.473352 1_555
Nb5 S12 2.510398 1_555
Nb5 S5 2.514186 1_555
Nb5 S4 2.514186 1_555
Nb5 S6 2.517846 1_565
Nb5 S7 2.517846 1_555
Nb6 S2 2.493863 1_655
Nb6 S3 2.493863 1_645
Nb6 S1 2.511932 1_645
Nb6 S0 2.511932 1_655
Nb6 S9 2.525374 1_555
Nb6 S11 2.525374 1_545
Nb7 S2 2.493863 1_655
Nb7 S3 2.493863 1_655
Nb7 S1 2.511932 1_655
Nb7 S0 2.511932 1_655
Nb7 S10 2.525374 1_555
Nb7 S8 2.525374 1_555
