# generated using pymatgen
data_Ti5Pt3O
_symmetry_space_group_name_H-M   'P 1'
_cell_length_a   7.74864484
_cell_length_b   7.74864444
_cell_length_c   4.99452637
_cell_angle_alpha   90.00000000
_cell_angle_beta   90.00000000
_cell_angle_gamma   120.00000168
_symmetry_Int_Tables_number   1
_chemical_formula_structural   Ti5Pt3O
_chemical_formula_sum   'Ti10 Pt6 O2'
_cell_volume   259.70267498
_cell_formula_units_Z   2
loop_
 _symmetry_equiv_pos_site_id
 _symmetry_equiv_pos_as_xyz
  1  'x, y, z'
loop_
 _atom_site_type_symbol
 _atom_site_label
 _atom_site_symmetry_multiplicity
 _atom_site_fract_x
 _atom_site_fract_y
 _atom_site_fract_z
 _atom_site_occupancy
  Ti  Ti0  1  0.23282106  0.23282106  0.75000000  1
  Ti  Ti1  1  0.33333300  0.66666700  0.50000000  1
  Ti  Ti2  1  0.23282106  0.00000000  0.25000000  1
  Ti  Ti3  1  0.76717894  0.00000000  0.75000000  1
  Ti  Ti4  1  1.00000000  0.76717894  0.75000000  1
  Ti  Ti5  1  0.00000000  0.23282106  0.25000000  1
  Ti  Ti6  1  0.76717894  0.76717894  0.25000000  1
  Ti  Ti7  1  0.33333300  0.66666700  0.00000000  1
  Ti  Ti8  1  0.66666700  0.33333300  0.50000000  1
  Ti  Ti9  1  0.66666700  0.33333300  0.00000000  1
  Pt  Pt0  1  1.00000000  0.40459621  0.75000000  1
  Pt  Pt1  1  0.00000000  0.59540379  0.25000000  1
  Pt  Pt2  1  0.40459621  0.40459621  0.25000000  1
  Pt  Pt3  1  0.40459621  0.00000000  0.75000000  1
  Pt  Pt4  1  0.59540379  0.59540379  0.75000000  1
  Pt  Pt5  1  0.59540379  0.00000000  0.25000000  1
  O  O0  1  0.00000000  0.00000000  0.50000000  1
  O  O1  1  0.00000000  0.00000000  0.00000000  1
loop_
_geom_bond_atom_site_label_1
_geom_bond_atom_site_label_2
_geom_bond_distance
_geom_bond_site_symmetry_2
Ti1 Ti7 2.497263 1_555
Ti1 Ti7 2.497263 1_556
Ti8 Ti9 2.497263 1_555
Ti8 Ti9 2.497263 1_556
Pt0 Ti8 2.666273 1_555
Pt0 Ti9 2.666273 1_556
Pt0 Ti1 2.666275 1_655
Pt0 Ti7 2.666275 1_656
Pt0 Ti3 2.725334 1_555
Pt0 Ti0 2.725334 1_655
Pt0 Ti4 2.809525 1_555
Pt0 Ti5 2.829832 1_655
Pt0 Ti5 2.829832 1_656
Pt1 Ti7 2.666273 1_555
Pt1 Ti1 2.666273 1_555
Pt1 Ti8 2.666275 1_455
Pt1 Ti9 2.666275 1_455
Pt1 Ti2 2.725334 1_565
Pt1 Ti6 2.725334 1_455
Pt1 Ti5 2.809525 1_555
Pt1 Ti4 2.829832 1_455
Pt1 Ti4 2.829832 1_454
Pt2 Ti1 2.666280 1_555
Pt2 Ti7 2.666280 1_555
Pt2 Ti8 2.666280 1_555
Pt2 Ti9 2.666280 1_555
Pt2 Ti2 2.725334 1_555
Pt2 Ti5 2.725334 1_555
Pt2 Ti6 2.809525 1_555
Pt2 Ti0 2.829832 1_554
Pt2 Ti0 2.829832 1_555
Pt3 Ti7 2.666273 1_546
Pt3 Ti1 2.666273 1_545
Pt3 Ti8 2.666275 1_555
Pt3 Ti9 2.666275 1_556
Pt3 Ti0 2.725334 1_555
Pt3 Ti4 2.725334 1_445
Pt3 Ti3 2.809525 1_555
Pt3 Ti2 2.829832 1_555
Pt3 Ti2 2.829832 1_556
Pt4 Ti8 2.666280 1_555
Pt4 Ti9 2.666280 1_556
Pt4 Ti1 2.666280 1_555
Pt4 Ti7 2.666280 1_556
Pt4 Ti3 2.725334 1_565
Pt4 Ti4 2.725334 1_555
Pt4 Ti0 2.809525 1_555
Pt4 Ti6 2.829832 1_555
Pt4 Ti6 2.829832 1_556
Pt5 Ti8 2.666273 1_555
Pt5 Ti9 2.666273 1_555
Pt5 Ti1 2.666275 1_545
Pt5 Ti7 2.666275 1_545
Pt5 Ti6 2.725334 1_545
Pt5 Ti5 2.725334 1_655
Pt5 Ti2 2.809525 1_555
Pt5 Ti3 2.829832 1_555
Pt5 Ti3 2.829832 1_554
O0 Ti5 2.194007 1_555
O0 Ti4 2.194007 1_445
O0 Ti0 2.194007 1_555
O0 Ti6 2.194007 1_445
O0 Ti2 2.194008 1_555
O0 Ti3 2.194008 1_455
O1 Ti5 2.194007 1_555
O1 Ti4 2.194007 1_444
O1 Ti0 2.194007 1_554
O1 Ti6 2.194007 1_445
O1 Ti2 2.194008 1_555
O1 Ti3 2.194008 1_454
