# generated using pymatgen
data_Hf4NbGaSn3
_symmetry_space_group_name_H-M   'P 1'
_cell_length_a   8.54158412
_cell_length_b   8.54158293
_cell_length_c   5.74031895
_cell_angle_alpha   90.00000000
_cell_angle_beta   90.00000000
_cell_angle_gamma   120.00000459
_symmetry_Int_Tables_number   1
_chemical_formula_structural   Hf4NbGaSn3
_chemical_formula_sum   'Hf8 Nb2 Ga2 Sn6'
_cell_volume   362.69654601
_cell_formula_units_Z   2
loop_
 _symmetry_equiv_pos_site_id
 _symmetry_equiv_pos_as_xyz
  1  'x, y, z'
loop_
 _atom_site_type_symbol
 _atom_site_label
 _atom_site_symmetry_multiplicity
 _atom_site_fract_x
 _atom_site_fract_y
 _atom_site_fract_z
 _atom_site_occupancy
  Hf  Hf0  1  0.73323331  0.73323331  0.74904056  1
  Hf  Hf1  1  0.26676669  0.00000000  0.74904056  1
  Hf  Hf2  1  1.00000000  0.26676669  0.74904056  1
  Hf  Hf3  1  0.26676669  0.26676669  0.25095944  1
  Hf  Hf4  1  0.73323331  0.00000000  0.25095944  1
  Hf  Hf5  1  0.00000000  0.73323331  0.25095944  1
  Hf  Hf6  1  0.33333300  0.66666700  0.50000000  1
  Hf  Hf7  1  0.66666700  0.33333300  0.50000000  1
  Nb  Nb0  1  0.66666700  0.33333300  0.00000000  1
  Nb  Nb1  1  0.33333300  0.66666700  0.00000000  1
  Ga  Ga0  1  0.00000000  0.00000000  0.00000000  1
  Ga  Ga1  1  0.00000000  0.00000000  0.50000000  1
  Sn  Sn0  1  0.39039442  0.39039442  0.75339028  1
  Sn  Sn1  1  0.60960558  0.00000000  0.75339028  1
  Sn  Sn2  1  1.00000000  0.60960558  0.75339028  1
  Sn  Sn3  1  0.60960558  0.60960558  0.24660972  1
  Sn  Sn4  1  0.39039442  0.00000000  0.24660972  1
  Sn  Sn5  1  0.00000000  0.39039442  0.24660972  1
loop_
_geom_bond_atom_site_label_1
_geom_bond_atom_site_label_2
_geom_bond_distance
_geom_bond_site_symmetry_2
Hf0 Sn0 2.928493 1_555
Hf0 Sn1 2.951937 1_565
Hf0 Sn2 2.951937 1_555
Hf0 Sn3 3.045160 1_556
Hf0 Sn3 3.071351 1_555
Hf1 Sn1 2.928494 1_555
Hf1 Sn2 2.951937 1_445
Hf1 Sn0 2.951937 1_555
Hf1 Sn4 3.045160 1_556
Hf1 Sn4 3.071351 1_555
Hf2 Sn2 2.928493 1_555
Hf2 Sn1 2.951937 1_555
Hf2 Sn0 2.951937 1_655
Hf2 Sn5 3.045160 1_656
Hf2 Sn5 3.071351 1_655
Hf3 Sn3 2.928493 1_555
Hf3 Sn4 2.951937 1_555
Hf3 Sn5 2.951937 1_555
Hf3 Sn0 3.045160 1_554
Hf3 Sn0 3.071351 1_555
Hf4 Sn4 2.928494 1_555
Hf4 Sn5 2.951937 1_655
Hf4 Sn3 2.951937 1_545
Hf4 Sn1 3.045160 1_554
Hf4 Sn1 3.071351 1_555
Hf5 Sn5 2.928493 1_555
Hf5 Sn4 2.951937 1_565
Hf5 Sn3 2.951937 1_455
Hf5 Sn2 3.045160 1_454
Hf5 Sn2 3.071351 1_455
Hf6 Nb1 2.870159 1_556
Hf6 Nb1 2.870159 1_555
Hf6 Sn4 3.011982 1_565
Hf6 Sn2 3.011982 1_455
Hf6 Sn1 3.011985 1_565
Hf6 Sn5 3.011985 1_555
Hf6 Sn0 3.011990 1_555
Hf6 Sn3 3.011990 1_555
Hf7 Nb0 2.870159 1_555
Hf7 Nb0 2.870159 1_556
Hf7 Sn1 3.011982 1_555
Hf7 Sn5 3.011982 1_655
Hf7 Sn4 3.011985 1_555
Hf7 Sn2 3.011985 1_555
Hf7 Sn3 3.011990 1_555
Hf7 Sn0 3.011990 1_555
Nb0 Sn1 2.993380 1_554
Nb0 Sn5 2.993380 1_655
Nb0 Sn4 2.993382 1_555
Nb0 Sn2 2.993382 1_554
Nb0 Sn3 2.993387 1_555
Nb0 Sn0 2.993387 1_554
Nb1 Sn4 2.993380 1_565
Nb1 Sn2 2.993380 1_454
Nb1 Sn1 2.993382 1_564
Nb1 Sn5 2.993382 1_555
Nb1 Sn0 2.993387 1_554
Nb1 Sn3 2.993387 1_555
Ga0 Hf3 2.695803 1_555
Ga0 Hf0 2.695803 1_444
Ga0 Hf2 2.695803 1_454
Ga0 Hf5 2.695803 1_545
Ga0 Hf4 2.695803 1_455
Ga0 Hf1 2.695803 1_554
Ga1 Hf3 2.689933 1_555
Ga1 Hf0 2.689933 1_445
Ga1 Hf2 2.689933 1_455
Ga1 Hf5 2.689933 1_545
Ga1 Hf1 2.689933 1_555
Ga1 Hf4 2.689933 1_455
