# generated using pymatgen
data_Co(ReO4)2
_symmetry_space_group_name_H-M   'P 1'
_cell_length_a   5.69686311
_cell_length_b   9.88668848
_cell_length_c   6.26770407
_cell_angle_alpha   90.04627534
_cell_angle_beta   89.88529248
_cell_angle_gamma   89.77412656
_symmetry_Int_Tables_number   1
_chemical_formula_structural   Co(ReO4)2
_chemical_formula_sum   'Co2 Re4 O16'
_cell_volume   353.01302320
_cell_formula_units_Z   2
loop_
 _symmetry_equiv_pos_site_id
 _symmetry_equiv_pos_as_xyz
  1  'x, y, z'
loop_
 _atom_site_type_symbol
 _atom_site_label
 _atom_site_symmetry_multiplicity
 _atom_site_fract_x
 _atom_site_fract_y
 _atom_site_fract_z
 _atom_site_occupancy
  Co  Co0  1  0.49999894  0.50000025  0.00002596  1
  Co  Co1  1  -0.00001685  0.00000721  0.99998322  1
  Re  Re0  1  0.00067888  0.33330468  0.27847140  1
  Re  Re1  1  0.49909780  0.83308269  0.27880697  1
  Re  Re2  1  0.50089108  0.16691706  0.72119363  1
  Re  Re3  1  -0.00066497  0.66669323  0.72152556  1
  O  O0  1  0.50221893  0.16749956  0.44588761  1
  O  O1  1  -0.00001686  0.66526601  0.44615769  1
  O  O2  1  0.00002291  0.33472290  0.55383757  1
  O  O3  1  0.49777385  0.83250207  0.55411215  1
  O  O4  1  0.74677620  0.07918355  0.81448686  1
  O  O5  1  0.24649645  0.58114995  0.81645829  1
  O  O6  1  0.99620017  0.16655645  0.18684961  1
  O  O7  1  0.49257343  0.66690615  0.18489449  1
  O  O8  1  0.25338106  0.41287019  0.18443218  1
  O  O9  1  0.75343928  0.91190958  0.18668515  1
  O  O10  1  0.75350950  0.41884400  0.18354031  1
  O  O11  1  0.25321009  0.92081131  0.18551511  1
  O  O12  1  0.50742722  0.33309157  0.81511135  1
  O  O13  1  0.00382955  0.83344613  0.81313306  1
  O  O14  1  0.24653368  0.08810449  0.81330784  1
  O  O15  1  0.74663966  0.58712997  0.81558300  1
loop_
_geom_bond_atom_site_label_1
_geom_bond_atom_site_label_2
_geom_bond_distance
_geom_bond_site_symmetry_2
Co0 O10 2.012845 1_555
Co0 O5 2.012978 1_554
Co0 O8 2.014068 1_555
Co0 O15 2.014289 1_554
Co0 O7 2.015819 1_555
Co0 O12 2.016008 1_554
Co1 O4 2.011102 1_455
Co1 O11 2.011388 1_546
Co1 O6 2.019924 1_456
Co1 O13 2.019962 1_545
Co1 O14 2.026104 1_555
Co1 O9 2.026175 1_446
O0 Re2 1.725552 1_555
O1 Re3 1.725967 1_555
O2 Re0 1.725956 1_555
O3 Re1 1.725547 1_555
O4 Re2 1.746703 1_555
O5 Re3 1.745475 1_555
O6 Re0 1.745602 1_655
O7 Re1 1.745306 1_555
O8 Re0 1.744982 1_555
O9 Re1 1.745417 1_555
O10 Re0 1.745489 1_655
O11 Re1 1.746689 1_555
O12 Re2 1.745300 1_555
O13 Re3 1.745618 1_555
O14 Re2 1.745413 1_555
O15 Re3 1.744978 1_655
