# generated using pymatgen
data_SrCu4HgO8
_symmetry_space_group_name_H-M   'P 1'
_cell_length_a   6.28058051
_cell_length_b   6.28058103
_cell_length_c   6.28058081
_cell_angle_alpha   124.42013009
_cell_angle_beta   124.42013715
_cell_angle_gamma   82.50071542
_symmetry_Int_Tables_number   1
_chemical_formula_structural   SrCu4HgO8
_chemical_formula_sum   'Sr1 Cu4 Hg1 O8'
_cell_volume   161.95152389
_cell_formula_units_Z   1
loop_
 _symmetry_equiv_pos_site_id
 _symmetry_equiv_pos_as_xyz
  1  'x, y, z'
loop_
 _atom_site_type_symbol
 _atom_site_label
 _atom_site_symmetry_multiplicity
 _atom_site_fract_x
 _atom_site_fract_y
 _atom_site_fract_z
 _atom_site_occupancy
  Sr  Sr0  1  0.00000000  0.00000000  0.00000000  1
  Cu  Cu0  1  0.37034777  0.62246895  0.24338369  1
  Cu  Cu1  1  0.37908426  0.12696407  0.75661631  1
  Cu  Cu2  1  0.37753105  0.62091574  0.74787881  1
  Cu  Cu3  1  0.87303593  0.62965223  0.25212119  1
  Hg  Hg0  1  0.75000000  0.25000000  0.50000000  1
  O  O0  1  0.71804753  0.31944099  0.13778380  1
  O  O1  1  0.18165819  0.58026373  0.86221620  1
  O  O2  1  0.03348438  0.94586668  0.38600889  1
  O  O3  1  0.55985779  0.64747548  0.61399111  1
  O  O4  1  0.05413332  0.44014221  0.08761769  1
  O  O5  1  0.35252452  0.96651562  0.91238231  1
  O  O6  1  0.41973627  0.28195247  0.60139446  1
  O  O7  1  0.68055901  0.81834181  0.39860554  1
loop_
_geom_bond_atom_site_label_1
_geom_bond_atom_site_label_2
_geom_bond_distance
_geom_bond_site_symmetry_2
Cu0 O4 1.828459 1_555
Cu0 O3 1.833766 1_555
Cu0 O1 1.833848 1_554
Cu0 O7 1.839081 1_555
Cu1 O5 1.828457 1_545
Cu1 O2 1.833762 1_545
Cu1 O0 1.833850 1_556
Cu1 O6 1.839079 1_555
Cu2 O3 1.828457 1_555
Cu2 O5 1.833761 1_555
Cu2 O6 1.833853 1_555
Cu2 O1 1.839079 1_555
Cu3 O2 1.828460 1_655
Cu3 O4 1.833766 1_655
Cu3 O7 1.833842 1_555
Cu3 O0 1.839082 1_555
Hg0 O0 2.447135 1_555
Hg0 O7 2.447139 1_545
Hg0 O1 2.447140 1_655
Hg0 O6 2.447140 1_555
Hg0 O5 2.517631 1_544
Hg0 O4 2.517631 1_656
Hg0 O2 2.517631 1_645
Hg0 O3 2.517631 1_555
O0 Sr0 2.598481 1_655
O1 Sr0 2.598484 1_566
O2 Sr0 2.524702 1_565
O3 Sr0 2.524702 1_666
O4 Sr0 2.524702 1_555
O5 Sr0 2.524702 1_566
O6 Sr0 2.598484 1_555
O7 Sr0 2.598484 1_666
