# generated using pymatgen
data_RbAsO2
_symmetry_space_group_name_H-M   'P 1'
_cell_length_a   5.48467859
_cell_length_b   7.42605163
_cell_length_c   7.80299083
_cell_angle_alpha   90.00000000
_cell_angle_beta   90.00000000
_cell_angle_gamma   90.00000000
_symmetry_Int_Tables_number   1
_chemical_formula_structural   RbAsO2
_chemical_formula_sum   'Rb4 As4 O8'
_cell_volume   317.81196482
_cell_formula_units_Z   4
loop_
 _symmetry_equiv_pos_site_id
 _symmetry_equiv_pos_as_xyz
  1  'x, y, z'
loop_
 _atom_site_type_symbol
 _atom_site_label
 _atom_site_symmetry_multiplicity
 _atom_site_fract_x
 _atom_site_fract_y
 _atom_site_fract_z
 _atom_site_occupancy
  Rb  Rb0  1  0.25000000  0.36177359  0.39921921  1
  Rb  Rb1  1  0.75000000  0.63822641  0.60078079  1
  Rb  Rb2  1  0.75000000  0.36177359  0.10078079  1
  Rb  Rb3  1  0.25000000  0.63822641  0.89921921  1
  As  As0  1  0.25000000  0.85045916  0.36444524  1
  As  As1  1  0.75000000  0.85045916  0.13555476  1
  As  As2  1  0.75000000  0.14954084  0.63555476  1
  As  As3  1  0.25000000  0.14954084  0.86444524  1
  O  O0  1  0.50000000  0.26854760  0.75000000  1
  O  O1  1  0.00000000  0.73145240  0.25000000  1
  O  O2  1  0.50000000  0.73145240  0.25000000  1
  O  O3  1  -0.00000000  0.26854760  0.75000000  1
  O  O4  1  0.25000000  0.72349002  0.54513863  1
  O  O5  1  0.25000000  0.27650998  0.04513863  1
  O  O6  1  0.75000000  0.72349002  0.95486137  1
  O  O7  1  0.75000000  0.27650998  0.45486137  1
loop_
_geom_bond_atom_site_label_1
_geom_bond_atom_site_label_2
_geom_bond_distance
_geom_bond_site_symmetry_2
As0 O4 1.696165 1_555
As0 O2 1.859730 1_555
As0 O1 1.859730 1_555
As0 Rb0 3.806730 1_565
As1 O6 1.696165 1_554
As1 O1 1.859730 1_655
As1 O2 1.859730 1_555
As1 Rb2 3.806730 1_565
As2 O7 1.696165 1_555
As2 O3 1.859730 1_655
As2 O0 1.859730 1_555
As2 Rb1 3.806730 1_545
As3 O5 1.696165 1_556
As3 O3 1.859730 1_555
As3 O0 1.859730 1_555
As3 Rb3 3.806730 1_545
O0 Rb2 3.138681 1_556
O0 Rb0 3.138681 1_555
O0 Rb1 3.282111 1_555
O0 Rb3 3.282111 1_555
O1 Rb3 3.138681 1_554
O1 Rb1 3.138681 1_455
O1 Rb0 3.282111 1_555
O1 Rb2 3.282111 1_455
O2 Rb3 3.138681 1_554
O2 Rb1 3.138681 1_555
O2 Rb0 3.282111 1_555
O2 Rb2 3.282111 1_555
O3 Rb2 3.138681 1_456
O3 Rb0 3.138681 1_555
O3 Rb1 3.282111 1_455
O3 Rb3 3.282111 1_555
O4 Rb3 2.834511 1_555
O4 Rb1 2.847778 1_555
O4 Rb1 2.847778 1_455
O4 Rb0 2.917481 1_555
O5 Rb0 2.834511 1_555
O5 Rb2 2.847778 1_555
O5 Rb2 2.847778 1_455
O5 Rb3 2.917481 1_554
O6 Rb1 2.834511 1_555
O6 Rb3 2.847778 1_555
O6 Rb3 2.847778 1_655
O6 Rb2 2.917481 1_556
O7 Rb2 2.834511 1_555
O7 Rb0 2.847778 1_555
O7 Rb0 2.847778 1_655
O7 Rb1 2.917481 1_555
