# generated using pymatgen
data_Mn4Zn2CuPd9
_symmetry_space_group_name_H-M   'P 1'
_cell_length_a   6.72693154
_cell_length_b   6.72693155
_cell_length_c   6.72693093
_cell_angle_alpha   105.83648512
_cell_angle_beta   105.80625651
_cell_angle_gamma   117.04703036
_symmetry_Int_Tables_number   1
_chemical_formula_structural   Mn4Zn2CuPd9
_chemical_formula_sum   'Mn4 Zn2 Cu1 Pd9'
_cell_volume   231.21978769
_cell_formula_units_Z   1
loop_
 _symmetry_equiv_pos_site_id
 _symmetry_equiv_pos_as_xyz
  1  'x, y, z'
loop_
 _atom_site_type_symbol
 _atom_site_label
 _atom_site_symmetry_multiplicity
 _atom_site_fract_x
 _atom_site_fract_y
 _atom_site_fract_z
 _atom_site_occupancy
  Mn  Mn0  1  0.23180097  0.24241835  0.47422131  1
  Mn  Mn1  1  0.76819903  0.75758165  0.52577869  1
  Mn  Mn2  1  0.23180097  0.75758165  0.98938162  1
  Mn  Mn3  1  0.76819903  0.24241835  0.01061838  1
  Zn  Zn0  1  0.50000000  0.00000000  0.50000000  1
  Zn  Zn1  1  0.50000000  0.50000000  0.00000000  1
  Cu  Cu0  1  0.00000000  0.50000000  0.50000000  1
  Pd  Pd0  1  0.51604940  0.26284242  0.25320698  1
  Pd  Pd1  1  0.48395060  0.73715758  0.74679302  1
  Pd  Pd2  1  0.00963544  0.26284242  0.74679302  1
  Pd  Pd3  1  0.27055901  0.01821781  0.74765879  1
  Pd  Pd4  1  0.99036456  0.73715758  0.25320698  1
  Pd  Pd5  1  0.72944099  0.98178219  0.25234121  1
  Pd  Pd6  1  0.27055901  0.52290022  0.25234121  1
  Pd  Pd7  1  0.72944099  0.47709978  0.74765879  1
  Pd  Pd8  1  0.00000000  0.00000000  0.00000000  1
loop_
_geom_bond_atom_site_label_1
_geom_bond_atom_site_label_2
_geom_bond_distance
_geom_bond_site_symmetry_2
Mn0 Pd2 2.675149 1_555
Mn0 Pd1 2.675158 1_555
Mn0 Pd5 2.675309 1_445
Mn0 Pd6 2.675319 1_555
Mn0 Pd4 2.703093 1_445
Mn0 Pd0 2.703102 1_555
Mn0 Pd3 2.708579 1_555
Mn0 Pd7 2.708588 1_555
Mn0 Pd8 2.721313 1_555
Mn0 Zn0 2.933242 1_555
Mn0 Zn1 3.017078 1_556
Mn1 Pd4 2.675149 1_555
Mn1 Pd0 2.675158 1_555
Mn1 Pd3 2.675309 1_665
Mn1 Pd7 2.675319 1_555
Mn1 Pd2 2.703093 1_665
Mn1 Pd1 2.703102 1_555
Mn1 Pd5 2.708579 1_555
Mn1 Pd6 2.708588 1_555
Mn1 Pd8 2.721313 1_666
Mn1 Zn0 2.933242 1_565
Mn1 Zn1 3.017078 1_555
Mn2 Pd1 2.675155 1_555
Mn2 Pd2 2.675159 1_555
Mn2 Pd3 2.675303 1_565
Mn2 Pd7 2.675308 1_455
Mn2 Pd0 2.703093 1_566
Mn2 Pd4 2.703098 1_456
Mn2 Pd5 2.708591 1_556
Mn2 Pd6 2.708595 1_556
Mn2 Pd8 2.721301 1_566
Mn2 Zn0 2.933248 1_566
Mn2 Zn1 3.017090 1_556
Mn3 Pd0 2.675155 1_555
Mn3 Pd4 2.675159 1_555
Mn3 Pd5 2.675303 1_545
Mn3 Pd6 2.675308 1_655
Mn3 Pd1 2.703093 1_544
Mn3 Pd2 2.703098 1_654
Mn3 Pd3 2.708591 1_554
Mn3 Pd7 2.708595 1_554
Mn3 Pd8 2.721301 1_655
Mn3 Zn0 2.933248 1_554
Mn3 Zn1 3.017090 1_555
Cu0 Pd2 2.605071 1_555
Cu0 Pd4 2.605071 1_455
Cu0 Pd1 2.605072 1_555
Cu0 Pd0 2.605072 1_455
Cu0 Pd7 2.765621 1_455
Cu0 Pd6 2.765621 1_555
Cu0 Pd3 2.765621 1_565
Cu0 Pd5 2.765621 1_445
Cu0 Mn2 2.811470 1_555
Cu0 Mn3 2.811470 1_455
Cu0 Mn1 2.811475 1_455
Cu0 Mn0 2.811475 1_555
Pd0 Zn1 2.645294 1_555
Pd0 Zn0 2.723998 1_555
Pd0 Pd8 2.762490 1_555
Pd0 Pd7 2.846407 1_555
Pd0 Pd5 2.846407 1_545
Pd0 Pd3 2.900890 1_554
Pd0 Pd6 2.900890 1_555
Pd1 Zn1 2.645294 1_556
Pd1 Zn0 2.723998 1_565
Pd1 Pd8 2.762490 1_666
Pd1 Pd6 2.846407 1_555
Pd1 Pd3 2.846407 1_565
Pd1 Pd5 2.900890 1_556
Pd1 Pd7 2.900890 1_555
Pd2 Zn1 2.645294 1_556
Pd2 Zn0 2.723998 1_455
Pd2 Pd8 2.762489 1_556
Pd2 Pd5 2.846407 1_445
Pd2 Pd7 2.846407 1_455
Pd2 Pd6 2.900890 1_556
Pd2 Pd3 2.900890 1_555
Pd3 Zn0 2.575672 1_555
Pd3 Zn1 2.605408 1_556
Pd3 Pd8 2.793336 1_556
Pd3 Pd4 2.846407 1_445
Pd4 Zn1 2.645294 1_555
Pd4 Zn0 2.723998 1_665
Pd4 Pd8 2.762489 1_665
Pd4 Pd6 2.846407 1_655
Pd4 Pd7 2.900890 1_554
Pd4 Pd5 2.900890 1_555
Pd5 Zn0 2.575672 1_565
Pd5 Zn1 2.605408 1_555
Pd5 Pd8 2.793336 1_665
Pd6 Zn0 2.575672 1_565
Pd6 Zn1 2.605407 1_555
Pd6 Pd8 2.793336 1_555
Pd7 Zn0 2.575672 1_555
Pd7 Zn1 2.605407 1_556
Pd7 Pd8 2.793336 1_666
