# generated using pymatgen
data_Be2NbB2Mo3
_symmetry_space_group_name_H-M   'P 1'
_cell_length_a   4.61355532
_cell_length_b   4.61355381
_cell_length_c   6.42533023
_cell_angle_alpha   90.00000000
_cell_angle_beta   90.00000000
_cell_angle_gamma   139.21897341
_symmetry_Int_Tables_number   1
_chemical_formula_structural   Be2NbB2Mo3
_chemical_formula_sum   'Be2 Nb1 B2 Mo3'
_cell_volume   89.32909475
_cell_formula_units_Z   1
loop_
 _symmetry_equiv_pos_site_id
 _symmetry_equiv_pos_as_xyz
  1  'x, y, z'
loop_
 _atom_site_type_symbol
 _atom_site_label
 _atom_site_symmetry_multiplicity
 _atom_site_fract_x
 _atom_site_fract_y
 _atom_site_fract_z
 _atom_site_occupancy
  Be  Be0  1  0.56371288  0.43628712  0.00000000  1
  Be  Be1  1  0.56578755  0.43421245  0.50000000  1
  Nb  Nb0  1  0.85042598  0.14957402  0.00000000  1
  B  B0  1  0.43495588  0.56504412  0.25414368  1
  B  B1  1  0.43495588  0.56504412  0.74585632  1
  Mo  Mo0  1  0.85345784  0.14654216  0.50000000  1
  Mo  Mo1  1  0.14835149  0.85164851  0.25249838  1
  Mo  Mo2  1  0.14835149  0.85164851  0.74750162  1
loop_
_geom_bond_atom_site_label_1
_geom_bond_atom_site_label_2
_geom_bond_distance
_geom_bond_site_symmetry_2
Be0 Mo1 2.398306 1_545
Be0 Mo2 2.398306 1_544
Be0 Mo1 2.398306 1_655
Be0 Mo2 2.398306 1_654
Be0 Nb0 2.446793 1_565
Be0 Nb0 2.446794 1_455
Be0 Nb0 2.479763 1_555
Be1 Mo2 2.371240 1_545
Be1 Mo1 2.371240 1_545
Be1 Mo2 2.371240 1_655
Be1 Mo1 2.371240 1_655
Be1 Mo0 2.440558 1_565
Be1 Mo0 2.440559 1_455
Be1 Mo0 2.488042 1_555
B0 Be1 1.943166 1_555
B0 Be0 1.976532 1_555
B0 Mo0 2.361394 1_565
B0 Mo0 2.361395 1_455
B0 Nb0 2.405184 1_565
B0 Nb0 2.405184 1_455
B0 Mo1 2.447525 1_545
B0 Mo1 2.447526 1_655
B0 Mo1 2.478845 1_555
B1 Be1 1.943166 1_555
B1 Be0 1.976532 1_556
B1 Mo0 2.361394 1_565
B1 Mo0 2.361395 1_455
B1 Nb0 2.405184 1_566
B1 Nb0 2.405184 1_456
B1 Mo2 2.447525 1_545
B1 Mo2 2.447526 1_655
B1 Mo2 2.478845 1_555
Mo1 Nb0 2.875857 1_455
Mo1 Nb0 2.875858 1_565
Mo2 Nb0 2.875857 1_456
Mo2 Nb0 2.875858 1_566
