# generated using pymatgen
data_TaTi2PC2
_symmetry_space_group_name_H-M   'P 1'
_cell_length_a   3.19325760
_cell_length_b   3.19325866
_cell_length_c   16.38687730
_cell_angle_alpha   90.00000000
_cell_angle_beta   90.00000000
_cell_angle_gamma   120.00000977
_symmetry_Int_Tables_number   1
_chemical_formula_structural   TaTi2PC2
_chemical_formula_sum   'Ta2 Ti4 P2 C4'
_cell_volume   144.70876728
_cell_formula_units_Z   2
loop_
 _symmetry_equiv_pos_site_id
 _symmetry_equiv_pos_as_xyz
  1  'x, y, z'
loop_
 _atom_site_type_symbol
 _atom_site_label
 _atom_site_symmetry_multiplicity
 _atom_site_fract_x
 _atom_site_fract_y
 _atom_site_fract_z
 _atom_site_occupancy
  Ta  Ta0  1  0.00000000  0.00000000  0.50000000  1
  Ta  Ta1  1  0.00000000  0.00000000  0.00000000  1
  Ti  Ti0  1  0.66666700  0.33333300  0.35362096  1
  Ti  Ti1  1  0.33333300  0.66666700  0.64637904  1
  Ti  Ti2  1  0.33333300  0.66666700  0.85362096  1
  Ti  Ti3  1  0.66666700  0.33333300  0.14637904  1
  P  P0  1  0.00000000  0.00000000  0.25000000  1
  P  P1  1  0.00000000  0.00000000  0.75000000  1
  C  C0  1  0.66666700  0.33333300  0.92117412  1
  C  C1  1  0.33333300  0.66666700  0.07882588  1
  C  C2  1  0.33333300  0.66666700  0.42117412  1
  C  C3  1  0.66666700  0.33333300  0.57882588  1
loop_
_geom_bond_atom_site_label_1
_geom_bond_atom_site_label_2
_geom_bond_distance
_geom_bond_site_symmetry_2
P0 Ti0 2.506441 1_455
P0 Ti3 2.506441 1_455
P0 Ti0 2.506442 1_555
P0 Ti3 2.506442 1_555
P0 Ti0 2.506443 1_445
P0 Ti3 2.506443 1_445
P1 Ti2 2.506441 1_545
P1 Ti1 2.506441 1_545
P1 Ti2 2.506442 1_445
P1 Ti1 2.506442 1_445
P1 Ti2 2.506443 1_555
P1 Ti1 2.506443 1_555
C0 Ti2 2.150436 1_655
C0 Ti2 2.150436 1_545
C0 Ti2 2.150441 1_555
C0 Ta1 2.251105 1_656
C0 Ta1 2.251107 1_556
C0 Ta1 2.251107 1_666
C1 Ti3 2.150436 1_455
C1 Ti3 2.150436 1_565
C1 Ti3 2.150441 1_555
C1 Ta1 2.251105 1_565
C1 Ta1 2.251107 1_665
C1 Ta1 2.251107 1_555
C2 Ti0 2.150436 1_455
C2 Ti0 2.150436 1_565
C2 Ti0 2.150441 1_555
C2 Ta0 2.251105 1_565
C2 Ta0 2.251107 1_665
C2 Ta0 2.251107 1_555
C3 Ti1 2.150436 1_655
C3 Ti1 2.150436 1_545
C3 Ti1 2.150441 1_555
C3 Ta0 2.251105 1_655
C3 Ta0 2.251107 1_555
C3 Ta0 2.251107 1_665
