# generated using pymatgen
data_Zr5SnBSb2
_symmetry_space_group_name_H-M   'P 1'
_cell_length_a   8.51273866
_cell_length_b   8.51273876
_cell_length_c   5.79320285
_cell_angle_alpha   90.00000000
_cell_angle_beta   90.00000000
_cell_angle_gamma   119.97618999
_symmetry_Int_Tables_number   1
_chemical_formula_structural   Zr5SnBSb2
_chemical_formula_sum   'Zr10 Sn2 B2 Sb4'
_cell_volume   363.65714279
_cell_formula_units_Z   2
loop_
 _symmetry_equiv_pos_site_id
 _symmetry_equiv_pos_as_xyz
  1  'x, y, z'
loop_
 _atom_site_type_symbol
 _atom_site_label
 _atom_site_symmetry_multiplicity
 _atom_site_fract_x
 _atom_site_fract_y
 _atom_site_fract_z
 _atom_site_occupancy
  Zr  Zr0  1  0.66640239  0.33479159  0.00048664  1
  Zr  Zr1  1  0.33479159  0.66640239  0.00048664  1
  Zr  Zr2  1  0.33479159  0.66640239  0.49951336  1
  Zr  Zr3  1  0.66640239  0.33479159  0.49951336  1
  Zr  Zr4  1  0.76729219  0.76729219  0.75000000  1
  Zr  Zr5  1  0.23087538  0.99902689  0.75000000  1
  Zr  Zr6  1  0.99902689  0.23087538  0.75000000  1
  Zr  Zr7  1  0.23346813  0.23346813  0.25000000  1
  Zr  Zr8  1  0.76722713  0.00068518  0.25000000  1
  Zr  Zr9  1  0.00068518  0.76722713  0.25000000  1
  Sn  Sn0  1  0.39929375  0.00013876  0.25000000  1
  Sn  Sn1  1  0.00013876  0.39929375  0.25000000  1
  B  B0  1  0.99994888  0.99994888  0.00096998  1
  B  B1  1  0.99994888  0.99994888  0.49903002  1
  Sb  Sb0  1  0.39731962  0.39731962  0.75000000  1
  Sb  Sb1  1  0.59878339  0.00112797  0.75000000  1
  Sb  Sb2  1  0.00112797  0.59878339  0.75000000  1
  Sb  Sb3  1  0.60247390  0.60247390  0.25000000  1
loop_
_geom_bond_atom_site_label_1
_geom_bond_atom_site_label_2
_geom_bond_distance
_geom_bond_site_symmetry_2
Sn0 Zr9 2.953355 1_545
Sn0 Zr7 2.956322 1_555
Sn0 Zr3 2.983688 1_555
Sn0 Zr0 2.983688 1_555
Sn0 Zr2 2.983858 1_545
Sn0 Zr1 2.983858 1_545
Sn0 Zr8 3.129799 1_555
Sn0 Zr5 3.229912 1_544
Sn0 Zr5 3.229912 1_545
Sn1 Zr8 2.953355 1_455
Sn1 Zr7 2.956322 1_555
Sn1 Zr2 2.983688 1_555
Sn1 Zr1 2.983688 1_555
Sn1 Zr3 2.983858 1_455
Sn1 Zr0 2.983858 1_455
Sn1 Zr9 3.129799 1_555
Sn1 Zr6 3.229912 1_455
Sn1 Zr6 3.229912 1_454
B0 Zr5 2.448224 1_654
B0 Zr6 2.448224 1_564
B0 Zr8 2.453270 1_565
B0 Zr9 2.453270 1_655
B0 Zr7 2.456802 1_665
B0 Zr4 2.457492 1_554
B1 Zr5 2.448224 1_655
B1 Zr6 2.448224 1_565
B1 Zr8 2.453270 1_565
B1 Zr9 2.453270 1_655
B1 Zr7 2.456802 1_665
B1 Zr4 2.457492 1_555
Sb0 Zr6 2.950066 1_455
Sb0 Zr5 2.950066 1_545
Sb0 Zr0 2.975644 1_556
Sb0 Zr3 2.975644 1_555
Sb0 Zr1 2.975644 1_556
Sb0 Zr2 2.975644 1_555
Sb0 Zr4 3.150613 1_555
Sb0 Zr7 3.215157 1_555
Sb0 Zr7 3.215157 1_556
Sb1 Zr6 2.962262 1_555
Sb1 Zr0 2.978438 1_556
Sb1 Zr3 2.978438 1_555
Sb1 Zr4 2.978843 1_545
Sb1 Zr1 2.979335 1_546
Sb1 Zr2 2.979335 1_545
Sb1 Zr5 3.123007 1_545
Sb1 Zr8 3.232930 1_555
Sb1 Zr8 3.232930 1_556
Sb2 Zr5 2.962262 1_555
Sb2 Zr1 2.978438 1_556
Sb2 Zr2 2.978438 1_555
Sb2 Zr4 2.978843 1_455
Sb2 Zr0 2.979335 1_456
Sb2 Zr3 2.979335 1_455
Sb2 Zr6 3.123007 1_455
Sb2 Zr9 3.232930 1_556
Sb2 Zr9 3.232930 1_555
Sb3 Zr9 2.950821 1_655
Sb3 Zr8 2.950821 1_565
Sb3 Zr2 2.969392 1_555
Sb3 Zr1 2.969392 1_555
Sb3 Zr3 2.969392 1_555
Sb3 Zr0 2.969392 1_555
Sb3 Zr7 3.142380 1_555
Sb3 Zr4 3.218739 1_555
Sb3 Zr4 3.218739 1_554
