# generated using pymatgen
data_Cs6K3GaBi4
_symmetry_space_group_name_H-M   'P 1'
_cell_length_a   11.26525813
_cell_length_b   11.26525892
_cell_length_c   11.78609569
_cell_angle_alpha   90.00000000
_cell_angle_beta   90.00000000
_cell_angle_gamma   119.99999488
_symmetry_Int_Tables_number   1
_chemical_formula_structural   Cs6K3GaBi4
_chemical_formula_sum   'Cs12 K6 Ga2 Bi8'
_cell_volume   1295.33751189
_cell_formula_units_Z   2
loop_
 _symmetry_equiv_pos_site_id
 _symmetry_equiv_pos_as_xyz
  1  'x, y, z'
loop_
 _atom_site_type_symbol
 _atom_site_label
 _atom_site_symmetry_multiplicity
 _atom_site_fract_x
 _atom_site_fract_y
 _atom_site_fract_z
 _atom_site_occupancy
  Cs  Cs0  1  0.20958976  0.41917752  0.54030921  1
  Cs  Cs1  1  0.79041024  0.20958976  0.04030921  1
  Cs  Cs2  1  0.41917752  0.20958976  0.04030921  1
  Cs  Cs3  1  0.58082248  0.79041024  0.54030921  1
  Cs  Cs4  1  0.20958976  0.79041024  0.54030921  1
  Cs  Cs5  1  0.79041024  0.58082248  0.45969079  1
  Cs  Cs6  1  0.79041024  0.20958976  0.45969079  1
  Cs  Cs7  1  0.79041024  0.58082248  0.04030921  1
  Cs  Cs8  1  0.41917752  0.20958976  0.45969079  1
  Cs  Cs9  1  0.58082248  0.79041024  0.95969079  1
  Cs  Cs10  1  0.20958976  0.41917752  0.95969079  1
  Cs  Cs11  1  0.20958976  0.79041024  0.95969079  1
  K  K0  1  0.11937104  0.23874107  0.25000000  1
  K  K1  1  0.88062896  0.11937104  0.75000000  1
  K  K2  1  0.23874107  0.11937104  0.75000000  1
  K  K3  1  0.76125893  0.88062896  0.25000000  1
  K  K4  1  0.11937104  0.88062896  0.25000000  1
  K  K5  1  0.88062896  0.76125893  0.75000000  1
  Ga  Ga0  1  0.33333300  0.66666700  0.25000000  1
  Ga  Ga1  1  0.66666700  0.33333300  0.75000000  1
  Bi  Bi0  1  0.47424265  0.52575735  0.25000000  1
  Bi  Bi1  1  0.94848331  0.47424265  0.75000000  1
  Bi  Bi2  1  0.52575735  0.05151669  0.75000000  1
  Bi  Bi3  1  0.47424265  0.94848331  0.25000000  1
  Bi  Bi4  1  0.05151669  0.52575735  0.25000000  1
  Bi  Bi5  1  0.52575735  0.47424265  0.75000000  1
  Bi  Bi6  1  0.00000000  0.00000000  0.00000000  1
  Bi  Bi7  1  0.00000000  0.00000000  0.50000000  1
loop_
_geom_bond_atom_site_label_1
_geom_bond_atom_site_label_2
_geom_bond_distance
_geom_bond_site_symmetry_2
Cs0 K0 3.847885 1_555
Cs0 Cs4 4.182033 1_555
Cs0 Cs3 4.182033 1_555
Cs0 Ga0 4.187753 1_555
Cs0 Cs8 4.198411 1_555
Cs0 Cs6 4.198449 1_455
Cs0 K2 4.328023 1_555
Cs0 K1 4.328039 1_455
Cs0 Cs10 4.942872 1_555
Cs1 K1 3.847889 1_554
Cs1 Cs2 4.182032 1_555
Cs1 Cs7 4.182033 1_555
Cs1 Ga1 4.187736 1_554
Cs1 Cs10 4.198449 1_654
Cs1 Cs9 4.198449 1_544
Cs1 K0 4.328050 1_655
Cs1 K3 4.328051 1_545
Cs1 Cs6 4.942872 1_555
Cs2 K2 3.847885 1_554
Cs2 Cs7 4.182033 1_555
Cs2 Ga1 4.187753 1_554
Cs2 K0 4.328023 1_555
Cs2 K4 4.328039 1_545
Cs2 Cs8 4.942872 1_555
Cs3 K3 3.847885 1_555
Cs3 Cs4 4.182032 1_555
Cs3 Ga0 4.187753 1_555
Cs3 Cs5 4.198411 1_555
Cs3 Cs6 4.198449 1_565
Cs3 K5 4.328023 1_555
Cs3 K1 4.328039 1_565
Cs3 Cs9 4.942872 1_555
Cs4 K4 3.847889 1_555
Cs4 Ga0 4.187736 1_555
Cs4 Cs5 4.198449 1_455
Cs4 Cs8 4.198449 1_565
Cs4 K5 4.328050 1_455
Cs4 K2 4.328051 1_565
Cs5 K5 3.847885 1_555
Cs5 Cs6 4.182033 1_555
Cs5 Cs8 4.182033 1_555
Cs5 Ga1 4.187753 1_555
Cs5 K3 4.328023 1_555
Cs5 K4 4.328039 1_655
Cs5 Cs7 4.942872 1_555
Cs6 K1 3.847889 1_555
Cs6 Cs8 4.182032 1_555
Cs6 Ga1 4.187736 1_555
Cs6 K0 4.328050 1_655
Cs6 K3 4.328051 1_545
Cs7 K5 3.847885 1_554
Cs7 Ga1 4.187753 1_554
Cs7 Cs9 4.198411 1_554
Cs7 K3 4.328023 1_555
Cs7 K4 4.328039 1_655
Cs8 K2 3.847885 1_555
Cs8 Ga1 4.187753 1_555
Cs8 K0 4.328023 1_555
Cs8 K4 4.328039 1_545
Cs9 K3 3.847885 1_556
Cs9 Ga0 4.187753 1_556
Cs9 K5 4.328023 1_555
Cs9 K1 4.328039 1_565
Cs10 K0 3.847885 1_556
Cs10 Cs11 4.182033 1_555
Cs10 Cs9 4.182033 1_555
Cs10 Ga0 4.187753 1_556
Cs10 Cs2 4.198411 1_556
Cs10 K2 4.328023 1_555
Cs10 K1 4.328039 1_455
Cs11 K4 3.847889 1_556
Cs11 Cs9 4.182032 1_555
Cs11 Ga0 4.187736 1_556
Cs11 Cs7 4.198449 1_456
Cs11 Cs2 4.198449 1_566
Cs11 K5 4.328050 1_455
Cs11 K2 4.328051 1_565
Cs11 Cs4 4.942872 1_555
K0 K4 4.034226 1_545
K0 K3 4.034226 1_445
K1 K2 4.034225 1_655
K1 K5 4.034226 1_545
K2 K5 4.034226 1_445
K3 K4 4.034225 1_655
Bi0 Ga0 2.749429 1_555
Bi0 K0 3.675623 1_555
Bi0 K3 3.675623 1_555
Bi0 Cs5 4.119364 1_555
Bi0 Cs7 4.119364 1_555
Bi0 Cs8 4.119364 1_555
Bi0 Cs2 4.119364 1_555
Bi0 Cs0 4.296282 1_555
Bi0 Cs10 4.296282 1_554
Bi0 Cs3 4.296282 1_555
Bi0 Cs9 4.296282 1_554
Bi1 Ga1 2.749400 1_555
Bi1 K5 3.675615 1_555
Bi1 K1 3.675626 1_555
Bi1 Cs11 4.119377 1_655
Bi1 Cs4 4.119377 1_655
Bi1 Cs10 4.119400 1_655
Bi1 Cs0 4.119400 1_655
Bi1 Cs7 4.296282 1_556
Bi1 Cs5 4.296282 1_555
Bi1 Cs1 4.296282 1_556
Bi1 Cs6 4.296282 1_555
Bi2 Ga1 2.749400 1_555
Bi2 K2 3.675615 1_555
Bi2 K1 3.675626 1_555
Bi2 Cs11 4.119377 1_545
Bi2 Cs4 4.119377 1_545
Bi2 Cs9 4.119400 1_545
Bi2 Cs3 4.119400 1_545
Bi2 Cs2 4.296282 1_556
Bi2 Cs8 4.296282 1_555
Bi2 Cs1 4.296282 1_556
Bi2 Cs6 4.296282 1_555
Bi3 Ga0 2.749400 1_555
Bi3 K3 3.675615 1_555
Bi3 K4 3.675626 1_555
Bi3 Cs6 4.119377 1_565
Bi3 Cs1 4.119377 1_565
Bi3 Cs8 4.119400 1_565
Bi3 Cs2 4.119400 1_565
Bi3 Cs3 4.296282 1_555
Bi3 Cs9 4.296282 1_554
Bi3 Cs4 4.296282 1_555
Bi3 Cs11 4.296282 1_554
Bi4 Ga0 2.749400 1_555
Bi4 K0 3.675615 1_555
Bi4 K4 3.675626 1_555
Bi4 Cs6 4.119377 1_455
Bi4 Cs1 4.119377 1_455
Bi4 Cs5 4.119400 1_455
Bi4 Cs7 4.119400 1_455
Bi4 Cs0 4.296282 1_555
Bi4 Cs10 4.296282 1_554
Bi4 Cs4 4.296282 1_555
Bi4 Cs11 4.296282 1_554
Bi5 Ga1 2.749429 1_555
Bi5 K5 3.675623 1_555
Bi5 K2 3.675623 1_555
Bi5 Cs10 4.119364 1_555
Bi5 Cs0 4.119364 1_555
Bi5 Cs9 4.119364 1_555
Bi5 Cs3 4.119364 1_555
Bi5 Cs7 4.296282 1_556
Bi5 Cs5 4.296282 1_555
Bi5 Cs2 4.296282 1_556
Bi5 Cs8 4.296282 1_555
Bi6 K2 3.755926 1_554
Bi6 K3 3.755926 1_445
Bi6 K0 3.755926 1_555
Bi6 K5 3.755926 1_444
Bi6 K1 3.755932 1_454
Bi6 K4 3.755932 1_545
Bi6 Cs2 4.117000 1_555
Bi6 Cs9 4.117000 1_444
Bi6 Cs10 4.117000 1_554
Bi6 Cs7 4.117000 1_445
Bi6 Cs1 4.117019 1_455
Bi6 Cs11 4.117019 1_544
Bi7 K2 3.755926 1_555
Bi7 K3 3.755926 1_445
Bi7 K0 3.755926 1_555
Bi7 K5 3.755926 1_445
Bi7 K1 3.755932 1_455
Bi7 K4 3.755932 1_545
Bi7 Cs8 4.117000 1_555
Bi7 Cs3 4.117000 1_445
Bi7 Cs0 4.117000 1_555
Bi7 Cs5 4.117000 1_445
Bi7 Cs4 4.117019 1_545
Bi7 Cs6 4.117019 1_455
