# generated using pymatgen
data_TcMoOsRu5
_symmetry_space_group_name_H-M   'P 1'
_cell_length_a   5.46803075
_cell_length_b   5.45795186
_cell_length_c   4.31430771
_cell_angle_alpha   90.00000000
_cell_angle_beta   90.00000000
_cell_angle_gamma   120.06111123
_symmetry_Int_Tables_number   1
_chemical_formula_structural   TcMoOsRu5
_chemical_formula_sum   'Tc1 Mo1 Os1 Ru5'
_cell_volume   111.43833901
_cell_formula_units_Z   1
loop_
 _symmetry_equiv_pos_site_id
 _symmetry_equiv_pos_as_xyz
  1  'x, y, z'
loop_
 _atom_site_type_symbol
 _atom_site_label
 _atom_site_symmetry_multiplicity
 _atom_site_fract_x
 _atom_site_fract_y
 _atom_site_fract_z
 _atom_site_occupancy
  Tc  Tc0  1  0.66579646  0.33159291  0.25000000  1
  Mo  Mo0  1  0.33256911  0.66514023  0.75000000  1
  Os  Os0  1  0.83229016  0.66457932  0.75000000  1
  Ru  Ru0  1  0.16569838  0.33139677  0.25000000  1
  Ru  Ru1  1  0.66726511  0.83345582  0.25000000  1
  Ru  Ru2  1  0.16618970  0.83345582  0.25000000  1
  Ru  Ru3  1  0.33538818  0.17019007  0.75000000  1
  Ru  Ru4  1  0.83480289  0.17019007  0.75000000  1
loop_
_geom_bond_atom_site_label_1
_geom_bond_atom_site_label_2
_geom_bond_distance
_geom_bond_site_symmetry_2
Mo0 Ru0 2.671852 1_556
Mo0 Ru0 2.671852 1_555
Mo0 Ru2 2.676235 1_555
Mo0 Ru2 2.676235 1_556
Mo0 Ru1 2.676237 1_556
Mo0 Ru1 2.676237 1_555
Mo0 Ru4 2.709160 1_455
Mo0 Ru3 2.709169 1_555
Mo0 Os0 2.734008 1_455
Mo0 Os0 2.734025 1_555
Mo0 Ru3 2.748849 1_565
Mo0 Ru4 2.748856 1_565
Os0 Tc0 2.669744 1_555
Os0 Tc0 2.669744 1_556
Os0 Ru2 2.674017 1_656
Os0 Ru2 2.674017 1_655
Os0 Ru1 2.674023 1_556
Os0 Ru1 2.674023 1_555
Os0 Ru3 2.705261 1_555
Os0 Ru4 2.705261 1_555
Os0 Ru3 2.752742 1_665
Os0 Ru4 2.752742 1_565
Ru0 Ru4 2.665763 1_454
Ru0 Ru4 2.665763 1_455
Ru0 Ru3 2.665765 1_555
Ru0 Ru3 2.665765 1_554
Ru0 Ru2 2.719084 1_545
Ru0 Ru1 2.719087 1_445
Ru0 Tc0 2.734016 1_555
Ru0 Tc0 2.734016 1_455
Ru0 Ru1 2.738866 1_555
Ru0 Ru2 2.738869 1_555
Ru1 Ru4 2.680217 1_564
Ru1 Ru4 2.680217 1_565
Ru1 Tc0 2.722840 1_565
Ru1 Ru2 2.728135 1_655
Ru1 Tc0 2.735130 1_555
Ru1 Ru2 2.739896 1_555
Ru2 Ru3 2.680217 1_565
Ru2 Ru3 2.680217 1_564
Ru2 Tc0 2.722842 1_565
Ru2 Tc0 2.735127 1_455
Ru3 Tc0 2.664386 1_555
Ru3 Tc0 2.664386 1_556
Ru3 Ru4 2.730815 1_555
Ru3 Ru4 2.737216 1_455
Ru4 Tc0 2.664389 1_555
Ru4 Tc0 2.664389 1_556
