# generated using pymatgen
data_Rb2TcF6
_symmetry_space_group_name_H-M   'P 1'
_cell_length_a   5.95813496
_cell_length_b   5.95813422
_cell_length_c   4.76441303
_cell_angle_alpha   90.00000000
_cell_angle_beta   90.00000000
_cell_angle_gamma   120.00000927
_symmetry_Int_Tables_number   1
_chemical_formula_structural   Rb2TcF6
_chemical_formula_sum   'Rb2 Tc1 F6'
_cell_volume   146.47402420
_cell_formula_units_Z   1
loop_
 _symmetry_equiv_pos_site_id
 _symmetry_equiv_pos_as_xyz
  1  'x, y, z'
loop_
 _atom_site_type_symbol
 _atom_site_label
 _atom_site_symmetry_multiplicity
 _atom_site_fract_x
 _atom_site_fract_y
 _atom_site_fract_z
 _atom_site_occupancy
  Rb  Rb0  1  0.33333300  0.66666700  0.79568154  1
  Rb  Rb1  1  0.66666700  0.33333300  0.20431846  1
  Tc  Tc0  1  0.00000000  0.00000000  0.50000000  1
  F  F0  1  0.15774794  0.31549688  0.27603330  1
  F  F1  1  0.68450312  0.84225206  0.27603330  1
  F  F2  1  0.15774794  0.84225206  0.27603330  1
  F  F3  1  0.84225206  0.68450312  0.72396670  1
  F  F4  1  0.31549688  0.15774794  0.72396670  1
  F  F5  1  0.84225206  0.15774794  0.72396670  1
loop_
_geom_bond_atom_site_label_1
_geom_bond_atom_site_label_2
_geom_bond_distance
_geom_bond_site_symmetry_2
F0 Tc0 1.946483 1_555
F0 Rb0 2.919077 1_554
F0 Rb1 3.000004 1_455
F0 Rb1 3.000016 1_555
F0 Rb0 3.068066 1_555
F1 Tc0 1.946483 1_665
F1 Rb0 2.919077 1_554
F1 Rb1 3.000003 1_565
F1 Rb1 3.000015 1_555
F1 Rb0 3.068066 1_555
F2 Tc0 1.946479 1_565
F2 Rb0 2.919077 1_554
F2 Rb1 3.000009 1_455
F2 Rb1 3.000009 1_565
F2 Rb0 3.068066 1_555
F3 Tc0 1.946483 1_665
F3 Rb1 2.919077 1_556
F3 Rb0 3.000004 1_655
F3 Rb0 3.000016 1_555
F3 Rb1 3.068066 1_555
F4 Tc0 1.946483 1_555
F4 Rb1 2.919077 1_556
F4 Rb0 3.000003 1_545
F4 Rb0 3.000015 1_555
F4 Rb1 3.068066 1_555
F5 Tc0 1.946479 1_655
F5 Rb1 2.919077 1_556
F5 Rb0 3.000009 1_655
F5 Rb0 3.000009 1_545
F5 Rb1 3.068066 1_555
