# generated using pymatgen
data_YHg3
_symmetry_space_group_name_H-M   'P 1'
_cell_length_a   6.61992348
_cell_length_b   6.61992372
_cell_length_c   4.95328959
_cell_angle_alpha   90.00000000
_cell_angle_beta   90.00000000
_cell_angle_gamma   120.00000397
_symmetry_Int_Tables_number   1
_chemical_formula_structural   YHg3
_chemical_formula_sum   'Y2 Hg6'
_cell_volume   187.98806970
_cell_formula_units_Z   2
loop_
 _symmetry_equiv_pos_site_id
 _symmetry_equiv_pos_as_xyz
  1  'x, y, z'
loop_
 _atom_site_type_symbol
 _atom_site_label
 _atom_site_symmetry_multiplicity
 _atom_site_fract_x
 _atom_site_fract_y
 _atom_site_fract_z
 _atom_site_occupancy
  Y  Y0  1  0.66666700  0.33333300  0.75000000  1
  Y  Y1  1  0.33333300  0.66666700  0.25000000  1
  Hg  Hg0  1  0.66963661  0.83481830  0.75000000  1
  Hg  Hg1  1  0.33036339  0.16518170  0.25000000  1
  Hg  Hg2  1  0.83481830  0.16518170  0.25000000  1
  Hg  Hg3  1  0.16518170  0.33036339  0.75000000  1
  Hg  Hg4  1  0.16518170  0.83481830  0.75000000  1
  Hg  Hg5  1  0.83481830  0.66963661  0.25000000  1
loop_
_geom_bond_atom_site_label_1
_geom_bond_atom_site_label_2
_geom_bond_distance
_geom_bond_site_symmetry_2
Hg0 Hg5 3.117841 1_556
Hg0 Hg5 3.117841 1_555
Hg0 Hg2 3.117841 1_565
Hg0 Hg2 3.117841 1_566
Hg0 Y1 3.138645 1_556
Hg0 Y1 3.138645 1_555
Hg0 Hg3 3.280470 1_665
Hg0 Hg4 3.280471 1_655
Hg0 Y0 3.310002 1_565
Hg0 Y0 3.310009 1_555
Hg0 Hg3 3.339453 1_555
Hg0 Hg4 3.339453 1_555
Hg1 Hg3 3.117841 1_555
Hg1 Hg3 3.117841 1_554
Hg1 Hg4 3.117841 1_544
Hg1 Hg4 3.117841 1_545
Hg1 Y0 3.138645 1_554
Hg1 Y0 3.138645 1_555
Hg1 Hg5 3.280470 1_445
Hg1 Hg2 3.280471 1_455
Hg1 Y1 3.310002 1_545
Hg1 Y1 3.310009 1_555
Hg1 Hg5 3.339453 1_555
Hg1 Hg2 3.339453 1_555
Hg2 Hg3 3.117841 1_655
Hg2 Hg3 3.117841 1_654
Hg2 Y0 3.138641 1_554
Hg2 Y0 3.138641 1_555
Hg2 Hg5 3.280471 1_545
Hg2 Y1 3.310005 1_545
Hg2 Y1 3.310005 1_655
Hg2 Hg5 3.339453 1_555
Hg3 Y1 3.138645 1_556
Hg3 Y1 3.138645 1_555
Hg3 Hg4 3.280471 1_545
Hg3 Y0 3.310002 1_455
Hg3 Y0 3.310009 1_555
Hg3 Hg4 3.339453 1_555
Hg4 Hg5 3.117841 1_455
Hg4 Hg5 3.117841 1_456
Hg4 Y1 3.138641 1_555
Hg4 Y1 3.138641 1_556
Hg4 Y0 3.310005 1_565
Hg4 Y0 3.310005 1_455
Hg5 Y0 3.138645 1_554
Hg5 Y0 3.138645 1_555
Hg5 Y1 3.310002 1_655
Hg5 Y1 3.310009 1_555
