# generated using pymatgen
data_Ba2Nb5WS12
_symmetry_space_group_name_H-M   'P 1'
_cell_length_a   5.82308221
_cell_length_b   5.82308208
_cell_length_c   16.02497918
_cell_angle_alpha   90.00000000
_cell_angle_beta   90.00000000
_cell_angle_gamma   119.99999507
_symmetry_Int_Tables_number   1
_chemical_formula_structural   Ba2Nb5WS12
_chemical_formula_sum   'Ba2 Nb5 W1 S12'
_cell_volume   470.58053691
_cell_formula_units_Z   1
loop_
 _symmetry_equiv_pos_site_id
 _symmetry_equiv_pos_as_xyz
  1  'x, y, z'
loop_
 _atom_site_type_symbol
 _atom_site_label
 _atom_site_symmetry_multiplicity
 _atom_site_fract_x
 _atom_site_fract_y
 _atom_site_fract_z
 _atom_site_occupancy
  Ba  Ba0  1  0.00000000  0.00000000  0.00213693  1
  Ba  Ba1  1  0.00000000  0.00000000  0.49786307  1
  Nb  Nb0  1  0.00000000  0.00000000  0.25000000  1
  Nb  Nb1  1  0.33333300  0.66666700  0.25000000  1
  Nb  Nb2  1  0.66666700  0.33333300  0.75000000  1
  Nb  Nb3  1  0.66666700  0.33333300  0.25000000  1
  Nb  Nb4  1  0.33333300  0.66666700  0.75000000  1
  W  W0  1  0.00000000  0.00000000  0.75000000  1
  S  S0  1  0.33700177  0.00000000  0.15249781  1
  S  S1  1  0.00000000  0.33700177  0.15249781  1
  S  S2  1  0.66299823  0.66299823  0.15249781  1
  S  S3  1  0.32870105  0.32870105  0.65378684  1
  S  S4  1  0.66299823  0.66299823  0.34750219  1
  S  S5  1  0.67129895  1.00000000  0.65378684  1
  S  S6  1  0.00000000  0.67129895  0.65378684  1
  S  S7  1  0.00000000  0.67129895  0.84621316  1
  S  S8  1  0.32870105  0.32870105  0.84621316  1
  S  S9  1  0.00000000  0.33700177  0.34750219  1
  S  S10  1  0.33700177  0.00000000  0.34750219  1
  S  S11  1  0.67129895  1.00000000  0.84621316  1
loop_
_geom_bond_atom_site_label_1
_geom_bond_atom_site_label_2
_geom_bond_distance
_geom_bond_site_symmetry_2
Ba0 S1 3.107540 1_555
Ba0 S0 3.107540 1_555
Ba0 S2 3.107540 1_445
Ba0 S7 3.147535 1_544
Ba0 S11 3.147535 1_444
Ba0 S8 3.147535 1_554
Ba1 S9 3.107540 1_555
Ba1 S10 3.107540 1_555
Ba1 S4 3.107540 1_445
Ba1 S6 3.147535 1_545
Ba1 S5 3.147535 1_445
Ba1 S3 3.147535 1_555
Nb0 S9 2.508443 1_555
Nb0 S1 2.508443 1_555
Nb0 S10 2.508443 1_555
Nb0 S0 2.508443 1_555
Nb0 S4 2.508443 1_445
Nb0 S2 2.508443 1_445
Nb1 S10 2.483522 1_565
Nb1 S0 2.483522 1_565
Nb1 S9 2.483525 1_555
Nb1 S1 2.483525 1_555
Nb1 S4 2.483527 1_555
Nb1 S2 2.483527 1_555
Nb2 S11 2.489548 1_545
Nb2 S5 2.489548 1_545
Nb2 S7 2.489551 1_655
Nb2 S6 2.489551 1_655
Nb2 S8 2.489553 1_555
Nb2 S3 2.489553 1_555
Nb3 S9 2.483522 1_655
Nb3 S1 2.483522 1_655
Nb3 S10 2.483525 1_555
Nb3 S0 2.483525 1_555
Nb3 S4 2.483527 1_555
Nb3 S2 2.483527 1_555
Nb4 S7 2.489548 1_555
Nb4 S6 2.489548 1_555
Nb4 S11 2.489551 1_555
Nb4 S5 2.489551 1_555
Nb4 S8 2.489553 1_555
Nb4 S3 2.489553 1_555
S3 W0 2.457802 1_555
S5 W0 2.457802 1_665
S6 W0 2.457802 1_565
S7 W0 2.457802 1_565
S8 W0 2.457802 1_555
S11 W0 2.457802 1_665
