# generated using pymatgen
data_Ba(RhPb2)3
_symmetry_space_group_name_H-M   'P 1'
_cell_length_a   14.27574500
_cell_length_b   14.27574500
_cell_length_c   4.56491354
_cell_angle_alpha   90.00000000
_cell_angle_beta   90.00000000
_cell_angle_gamma   146.14834207
_symmetry_Int_Tables_number   1
_chemical_formula_structural   Ba(RhPb2)3
_chemical_formula_sum   'Ba2 Rh6 Pb12'
_cell_volume   518.22706732
_cell_formula_units_Z   2
loop_
 _symmetry_equiv_pos_site_id
 _symmetry_equiv_pos_as_xyz
  1  'x, y, z'
loop_
 _atom_site_type_symbol
 _atom_site_label
 _atom_site_symmetry_multiplicity
 _atom_site_fract_x
 _atom_site_fract_y
 _atom_site_fract_z
 _atom_site_occupancy
  Ba  Ba0  1  0.58959464  0.41040536  0.25000000  1
  Ba  Ba1  1  0.41040536  0.58959464  0.75000000  1
  Rh  Rh0  1  0.97214886  0.40642508  0.75000000  1
  Rh  Rh1  1  0.96237765  0.03762235  0.75000000  1
  Rh  Rh2  1  0.02785114  0.59357492  0.25000000  1
  Rh  Rh3  1  0.03762235  0.96237765  0.25000000  1
  Rh  Rh4  1  0.40642508  0.97214886  0.25000000  1
  Rh  Rh5  1  0.59357492  0.02785114  0.75000000  1
  Pb  Pb0  1  0.75375221  0.84439921  0.25000000  1
  Pb  Pb1  1  0.84439921  0.75375221  0.75000000  1
  Pb  Pb2  1  0.15560079  0.24624779  0.25000000  1
  Pb  Pb3  1  0.52691775  0.87108278  0.25000000  1
  Pb  Pb4  1  0.12891722  0.47308225  0.25000000  1
  Pb  Pb5  1  0.87108278  0.52691775  0.75000000  1
  Pb  Pb6  1  0.24624779  0.15560079  0.75000000  1
  Pb  Pb7  1  0.74912750  0.25087250  0.25000000  1
  Pb  Pb8  1  0.25087250  0.74912750  0.75000000  1
  Pb  Pb9  1  0.13502275  0.86497725  0.25000000  1
  Pb  Pb10  1  0.86497725  0.13502275  0.75000000  1
  Pb  Pb11  1  0.47308225  0.12891722  0.75000000  1
loop_
_geom_bond_atom_site_label_1
_geom_bond_atom_site_label_2
_geom_bond_distance
_geom_bond_site_symmetry_2
Ba0 Pb1 3.584986 1_555
Ba0 Pb1 3.584986 1_554
Ba0 Pb6 3.584986 1_555
Ba0 Pb6 3.584986 1_554
Ba0 Pb11 3.608659 1_554
Ba0 Pb5 3.608659 1_555
Ba0 Pb5 3.608659 1_554
Ba0 Pb11 3.608659 1_555
Ba1 Pb0 3.584986 1_556
Ba1 Pb0 3.584986 1_555
Ba1 Pb2 3.584986 1_555
Ba1 Pb2 3.584986 1_556
Ba1 Pb4 3.608659 1_556
Ba1 Pb3 3.608659 1_556
Ba1 Pb3 3.608659 1_555
Ba1 Pb4 3.608659 1_555
Rh0 Rh2 3.074279 1_655
Rh0 Rh2 3.074279 1_656
Rh0 Rh5 3.146818 1_555
Rh2 Rh4 3.146818 1_555
Rh4 Rh5 3.074279 1_564
Rh4 Rh5 3.074279 1_565
Pb0 Rh3 2.814695 1_655
Pb0 Rh1 2.836059 1_565
Pb0 Rh1 2.836059 1_564
Pb1 Rh1 2.814695 1_565
Pb1 Rh3 2.836059 1_656
Pb1 Rh3 2.836059 1_655
Pb2 Rh3 2.814695 1_545
Pb2 Rh1 2.836059 1_455
Pb2 Rh1 2.836059 1_454
Pb3 Rh5 2.754353 1_565
Pb3 Rh5 2.754353 1_564
Pb3 Rh4 3.026983 1_555
Pb4 Rh0 2.754353 1_455
Pb4 Rh0 2.754353 1_454
Pb4 Rh2 3.026983 1_555
Pb5 Rh2 2.754353 1_655
Pb5 Rh2 2.754353 1_656
Pb5 Rh0 3.026983 1_555
Pb6 Rh1 2.814695 1_455
Pb6 Rh3 2.836059 1_545
Pb6 Rh3 2.836059 1_546
Pb7 Rh4 2.726542 1_545
Pb7 Rh2 2.726542 1_655
Pb7 Rh5 2.921350 1_555
Pb7 Rh5 2.921350 1_554
Pb7 Rh0 2.921350 1_554
Pb7 Rh0 2.921350 1_555
Pb8 Rh0 2.726542 1_455
Pb8 Rh5 2.726542 1_565
Pb8 Rh2 2.921350 1_556
Pb8 Rh2 2.921350 1_555
Pb8 Rh4 2.921350 1_556
Pb8 Rh4 2.921350 1_555
Pb9 Rh3 2.660464 1_555
Pb9 Rh2 2.739794 1_555
Pb9 Rh4 2.739794 1_555
Pb10 Rh1 2.660464 1_555
Pb10 Rh5 2.739794 1_555
Pb10 Rh0 2.739794 1_555
Pb11 Rh4 2.754353 1_546
Pb11 Rh4 2.754353 1_545
Pb11 Rh5 3.026983 1_555
