# generated using pymatgen
data_HgPd4Pb3O14
_symmetry_space_group_name_H-M   'P 1'
_cell_length_a   7.30920120
_cell_length_b   7.18890471
_cell_length_c   7.30920119
_cell_angle_alpha   59.44488592
_cell_angle_beta   59.99999141
_cell_angle_gamma   59.44489141
_symmetry_Int_Tables_number   1
_chemical_formula_structural   HgPd4Pb3O14
_chemical_formula_sum   'Hg1 Pd4 Pb3 O14'
_cell_volume   269.27260024
_cell_formula_units_Z   1
loop_
 _symmetry_equiv_pos_site_id
 _symmetry_equiv_pos_as_xyz
  1  'x, y, z'
loop_
 _atom_site_type_symbol
 _atom_site_label
 _atom_site_symmetry_multiplicity
 _atom_site_fract_x
 _atom_site_fract_y
 _atom_site_fract_z
 _atom_site_occupancy
  Hg  Hg0  1  0.12500000  0.62500000  0.12500000  1
  Pd  Pd0  1  0.62500000  0.62500000  0.12500000  1
  Pd  Pd1  1  0.62500000  0.62500000  0.62500000  1
  Pd  Pd2  1  0.62500000  0.12500000  0.62500000  1
  Pd  Pd3  1  0.12500000  0.62500000  0.62500000  1
  Pb  Pb0  1  0.12500000  0.12500000  0.12500000  1
  Pb  Pb1  1  0.62500000  0.12500000  0.12500000  1
  Pb  Pb2  1  0.12500000  0.12500000  0.62500000  1
  O  O0  1  0.70756140  0.29051258  0.29436462  1
  O  O1  1  0.70756140  0.29051258  0.70756140  1
  O  O2  1  0.99406246  0.01781262  0.99406246  1
  O  O3  1  0.29381380  0.70896711  0.29381380  1
  O  O4  1  0.70340528  0.70896711  0.29381380  1
  O  O5  1  0.95618620  0.54103289  0.54659472  1
  O  O6  1  0.29381380  0.70896711  0.70340528  1
  O  O7  1  0.25593754  0.23218738  0.25593754  1
  O  O8  1  0.95618620  0.54103289  0.95618620  1
  O  O9  1  0.54243860  0.95948742  0.54243860  1
  O  O10  1  0.54659472  0.54103289  0.95618620  1
  O  O11  1  0.95563538  0.95948742  0.54243860  1
  O  O12  1  0.54243860  0.95948742  0.95563538  1
  O  O13  1  0.29436462  0.29051258  0.70756140  1
loop_
_geom_bond_atom_site_label_1
_geom_bond_atom_site_label_2
_geom_bond_distance
_geom_bond_site_symmetry_2
Hg0 O2 2.286163 1_464
Hg0 O7 2.286163 1_555
Hg0 O5 2.538979 1_455
Hg0 O6 2.538979 1_554
Hg0 O10 2.538979 1_554
Hg0 O4 2.538979 1_455
Hg0 O3 2.538980 1_555
Hg0 O8 2.538980 1_454
O0 Pd0 1.980875 1_555
O0 Pd2 1.992064 1_555
O0 Pb0 2.507394 1_655
O0 Pb1 2.507395 1_555
O1 Pd1 1.980875 1_555
O1 Pd2 1.992065 1_555
O1 Pb1 2.507394 1_556
O1 Pb2 2.507394 1_655
O2 Pb2 2.200272 1_655
O2 Pb1 2.200272 1_556
O2 Pb0 2.200272 1_656
O3 Pd3 2.007836 1_555
O3 Pd0 2.007836 1_555
O3 Pb0 2.451178 1_565
O4 Pd1 2.007836 1_555
O4 Pd0 2.007836 1_555
O4 Pb1 2.451178 1_565
O5 Pd1 2.007836 1_555
O5 Pd3 2.007836 1_655
O5 Pb2 2.451178 1_655
O6 Pd1 2.007836 1_555
O6 Pd3 2.007836 1_555
O6 Pb2 2.451178 1_565
O7 Pb2 2.200272 1_555
O7 Pb1 2.200272 1_555
O7 Pb0 2.200272 1_555
O8 Pd3 2.007836 1_655
O8 Pd0 2.007836 1_556
O8 Pb0 2.451178 1_656
O9 Pd1 1.980875 1_555
O9 Pd2 1.992065 1_565
O9 Pb1 2.507394 1_565
O9 Pb2 2.507394 1_565
O10 Pd1 2.007836 1_555
O10 Pd0 2.007836 1_556
O10 Pb1 2.451178 1_556
O11 Pd3 1.980875 1_655
O11 Pd2 1.992064 1_565
O11 Pb0 2.507394 1_665
O11 Pb2 2.507395 1_665
O12 Pd0 1.980875 1_556
O12 Pd2 1.992064 1_565
O12 Pb0 2.507394 1_566
O12 Pb1 2.507395 1_566
O13 Pd3 1.980875 1_555
O13 Pd2 1.992064 1_555
O13 Pb0 2.507394 1_556
O13 Pb2 2.507395 1_555
