# generated using pymatgen
data_Sc2MnInCo8
_symmetry_space_group_name_H-M   'P 1'
_cell_length_a   4.88733000
_cell_length_b   4.88732834
_cell_length_c   8.28182853
_cell_angle_alpha   107.16136301
_cell_angle_beta   72.83864228
_cell_angle_gamma   120.00000065
_symmetry_Int_Tables_number   1
_chemical_formula_structural   Sc2MnInCo8
_chemical_formula_sum   'Sc2 Mn1 In1 Co8'
_cell_volume   161.06666547
_cell_formula_units_Z   1
loop_
 _symmetry_equiv_pos_site_id
 _symmetry_equiv_pos_as_xyz
  1  'x, y, z'
loop_
 _atom_site_type_symbol
 _atom_site_label
 _atom_site_symmetry_multiplicity
 _atom_site_fract_x
 _atom_site_fract_y
 _atom_site_fract_z
 _atom_site_occupancy
  Sc  Sc0  1  0.99898444  0.00101556  0.00304469  1
  Sc  Sc1  1  0.50210021  0.49789979  0.49369736  1
  Mn  Mn0  1  0.87342928  0.12657072  0.37971117  1
  In  In0  1  0.37425577  0.62574423  0.87723369  1
  Co  Co0  1  0.43718150  0.56281850  0.19146217  1
  Co  Co1  1  0.93852239  0.06147761  0.68242995  1
  Co  Co2  1  0.43718150  0.06582617  0.19146217  1
  Co  Co3  1  0.93852239  0.55947572  0.68242995  1
  Co  Co4  1  0.18821123  0.81178877  0.43536332  1
  Co  Co5  1  0.68690819  0.31309181  0.93927542  1
  Co  Co6  1  0.93417383  0.56281850  0.19146217  1
  Co  Co7  1  0.44052428  0.06147761  0.68242995  1
loop_
_geom_bond_atom_site_label_1
_geom_bond_atom_site_label_2
_geom_bond_distance
_geom_bond_site_symmetry_2
Mn0 Sc0 2.932843 1_555
Mn0 Sc1 2.957989 1_545
Mn0 Sc1 2.957990 1_655
Mn0 Sc1 2.957993 1_555
In0 Sc1 2.986334 1_555
In0 Sc0 2.986904 1_456
In0 Sc0 2.986904 1_566
In0 Sc0 2.986916 1_466
Co0 Co4 2.370881 1_555
Co0 Co5 2.412960 1_554
Co0 Co2 2.428965 1_555
Co0 Co6 2.428966 1_555
Co0 Co2 2.458364 1_565
Co0 Co6 2.458364 1_455
Co0 Sc1 2.739458 1_555
Co0 In0 2.828560 1_554
Co0 Mn0 2.849568 1_565
Co0 Mn0 2.849568 1_455
Co0 Sc0 2.850243 1_455
Co0 Sc0 2.850243 1_565
Co1 Co4 2.388979 1_645
Co1 Co3 2.433880 1_555
Co1 Co7 2.433881 1_555
Co1 Co5 2.444197 1_555
Co1 Co3 2.453448 1_545
Co1 Co7 2.453449 1_655
Co1 Mn0 2.744147 1_555
Co1 Sc1 2.851499 1_545
Co1 Sc1 2.851500 1_655
Co1 Sc0 2.870281 1_556
Co1 In0 2.876146 1_655
Co1 In0 2.876147 1_545
Co2 Co4 2.370877 1_545
Co2 Co5 2.412958 1_554
Co2 Co6 2.428965 1_555
Co2 Co6 2.458364 1_445
Co2 Sc1 2.739459 1_555
Co2 In0 2.828564 1_544
Co2 Mn0 2.849568 1_455
Co2 Mn0 2.849569 1_555
Co2 Sc0 2.850241 1_555
Co2 Sc0 2.850246 1_455
Co3 Co4 2.388985 1_655
Co3 Co7 2.433881 1_555
Co3 Co5 2.444200 1_555
Co3 Co7 2.453449 1_665
Co3 Mn0 2.744146 1_555
Co3 Sc1 2.851497 1_655
Co3 Sc1 2.851502 1_555
Co3 Sc0 2.870282 1_566
Co3 In0 2.876142 1_555
Co3 In0 2.876152 1_655
Co4 Co6 2.370877 1_455
Co4 Co7 2.388985 1_565
Co4 Mn0 2.854774 1_465
Co4 Mn0 2.854782 1_455
Co4 Mn0 2.854783 1_565
Co4 Sc1 2.858022 1_565
Co4 Sc1 2.858023 1_455
Co4 Sc1 2.858027 1_555
Co5 Co6 2.412958 1_556
Co5 Co7 2.444200 1_555
Co5 In0 2.862751 1_555
Co5 In0 2.862754 1_545
Co5 In0 2.862755 1_655
Co5 Sc0 2.865049 1_556
Co5 Sc0 2.865056 1_566
Co5 Sc0 2.865057 1_456
Co6 Sc1 2.739459 1_555
Co6 In0 2.828564 1_654
Co6 Mn0 2.849567 1_565
Co6 Mn0 2.849568 1_555
Co6 Sc0 2.850240 1_555
Co6 Sc0 2.850245 1_565
Co7 Mn0 2.744146 1_555
Co7 Sc1 2.851497 1_545
Co7 Sc1 2.851502 1_555
Co7 Sc0 2.870282 1_456
Co7 In0 2.876142 1_555
Co7 In0 2.876151 1_545
