# generated using pymatgen
data_Ti10Al2SnSb3
_symmetry_space_group_name_H-M   'P 1'
_cell_length_a   7.84511199
_cell_length_b   7.84511266
_cell_length_c   7.86248409
_cell_angle_alpha   96.32945350
_cell_angle_beta   96.32945020
_cell_angle_gamma   141.17104477
_symmetry_Int_Tables_number   1
_chemical_formula_structural   Ti10Al2SnSb3
_chemical_formula_sum   'Ti10 Al2 Sn1 Sb3'
_cell_volume   286.23226877
_cell_formula_units_Z   1
loop_
 _symmetry_equiv_pos_site_id
 _symmetry_equiv_pos_as_xyz
  1  'x, y, z'
loop_
 _atom_site_type_symbol
 _atom_site_label
 _atom_site_symmetry_multiplicity
 _atom_site_fract_x
 _atom_site_fract_y
 _atom_site_fract_z
 _atom_site_occupancy
  Ti  Ti0  1  0.21912646  0.92508005  0.14420551  1
  Ti  Ti1  1  0.42508005  0.71912646  0.14420551  1
  Ti  Ti2  1  0.07584315  0.21815249  0.29399564  1
  Ti  Ti3  1  0.71815249  0.57584315  0.29399564  1
  Ti  Ti4  1  0.75086048  0.25086048  0.49913643  1
  Ti  Ti5  1  0.24827395  0.74827395  0.49913643  1
  Ti  Ti6  1  0.28190713  0.42347076  0.70537889  1
  Ti  Ti7  1  0.92347076  0.78190713  0.70537889  1
  Ti  Ti8  1  0.78146327  0.07540028  0.85686355  1
  Ti  Ti9  1  0.57539928  0.28146327  0.85686255  1
  Al  Al0  1  0.25009021  0.25009021  0.00018243  1
  Al  Al1  1  0.75009021  0.75009021  0.00018243  1
  Sn  Sn0  1  0.16403299  0.66403299  0.82806497  1
  Sb  Sb0  1  0.83588808  0.33588808  0.17177616  1
  Sb  Sb1  1  0.33694205  0.16337443  0.50031548  1
  Sb  Sb2  1  0.66337443  0.83694205  0.50031548  1
loop_
_geom_bond_atom_site_label_1
_geom_bond_atom_site_label_2
_geom_bond_distance
_geom_bond_site_symmetry_2
Ti4 Ti5 2.594221 1_655
Ti4 Ti5 2.621201 1_545
Al0 Al1 2.607711 1_445
Al0 Al1 2.607711 1_555
Al0 Ti2 2.749231 1_555
Al0 Ti3 2.749236 1_555
Al0 Ti8 2.749561 1_454
Al0 Ti9 2.749563 1_554
Al0 Ti0 2.752224 1_545
Al0 Ti1 2.752231 1_555
Al0 Ti7 2.752955 1_444
Al0 Ti6 2.752957 1_554
Al1 Ti3 2.749231 1_555
Al1 Ti2 2.749236 1_665
Al1 Ti9 2.749559 1_554
Al1 Ti8 2.749566 1_564
Al1 Ti1 2.752224 1_555
Al1 Ti0 2.752231 1_655
Al1 Ti6 2.752955 1_554
Al1 Ti7 2.752957 1_554
Sn0 Ti5 2.763177 1_555
Sn0 Ti4 2.763185 1_455
Sn0 Ti1 2.796597 1_556
Sn0 Ti0 2.796597 1_556
Sn0 Ti7 2.803866 1_455
Sn0 Ti6 2.803866 1_555
Sn0 Ti8 3.028263 1_565
Sn0 Ti9 3.028267 1_565
Sn0 Ti8 3.028268 1_455
Sn0 Ti9 3.028271 1_455
Sb0 Ti5 2.752913 1_655
Sb0 Ti4 2.752917 1_555
Sb0 Ti8 2.789407 1_554
Sb0 Ti9 2.789417 1_554
Sb0 Ti2 2.797524 1_655
Sb0 Ti3 2.797524 1_555
Sb0 Ti0 3.027227 1_545
Sb0 Ti1 3.027227 1_545
Sb0 Ti1 3.027231 1_655
Sb0 Ti0 3.027232 1_655
Sb1 Ti4 2.747966 1_555
Sb1 Ti5 2.747974 1_545
Sb1 Ti6 2.783926 1_555
Sb1 Ti0 2.787790 1_545
Sb1 Ti9 2.790602 1_555
Sb1 Ti2 2.793644 1_555
Sb1 Ti7 3.028166 1_555
Sb1 Ti7 3.028174 1_445
Sb1 Ti3 3.032434 1_555
Sb1 Ti3 3.032439 1_445
Sb2 Ti4 2.747967 1_565
Sb2 Ti5 2.747974 1_555
Sb2 Ti7 2.783926 1_555
Sb2 Ti1 2.787790 1_555
Sb2 Ti8 2.790611 1_565
Sb2 Ti3 2.793644 1_555
Sb2 Ti6 3.028166 1_665
Sb2 Ti6 3.028174 1_555
Sb2 Ti2 3.032434 1_665
Sb2 Ti2 3.032439 1_555
