# generated using pymatgen
data_K7LiSi8
_symmetry_space_group_name_H-M   'P 1'
_cell_length_a   12.49752580
_cell_length_b   12.49752580
_cell_length_c   12.49752580
_cell_angle_alpha   90.00000000
_cell_angle_beta   90.00000000
_cell_angle_gamma   90.00000000
_symmetry_Int_Tables_number   1
_chemical_formula_structural   K7LiSi8
_chemical_formula_sum   'K28 Li4 Si32'
_cell_volume   1951.96544830
_cell_formula_units_Z   4
loop_
 _symmetry_equiv_pos_site_id
 _symmetry_equiv_pos_as_xyz
  1  'x, y, z'
loop_
 _atom_site_type_symbol
 _atom_site_label
 _atom_site_symmetry_multiplicity
 _atom_site_fract_x
 _atom_site_fract_y
 _atom_site_fract_z
 _atom_site_occupancy
  K  K0  1  0.27328189  0.81047762  0.04362928  1
  K  K1  1  0.04362928  0.27328189  0.81047762  1
  K  K2  1  0.72671811  0.31047762  0.45637072  1
  K  K3  1  0.22671811  0.18952238  0.54362928  1
  K  K4  1  0.45637072  0.72671811  0.31047762  1
  K  K5  1  0.18952238  0.54362928  0.22671811  1
  K  K6  1  0.31047762  0.45637072  0.72671811  1
  K  K7  1  0.81047762  0.04362928  0.27328189  1
  K  K8  1  0.31047762  0.04362928  0.22671811  1
  K  K9  1  0.22671811  0.31047762  0.04362928  1
  K  K10  1  0.04362928  0.22671811  0.31047762  1
  K  K11  1  0.45637072  0.77328189  0.81047762  1
  K  K12  1  0.54362928  0.22671811  0.18952238  1
  K  K13  1  0.95637072  0.72671811  0.18952238  1
  K  K14  1  0.27328189  0.68952238  0.54362928  1
  K  K15  1  0.77328189  0.81047762  0.45637072  1
  K  K16  1  0.54362928  0.27328189  0.68952238  1
  K  K17  1  0.81047762  0.45637072  0.77328189  1
  K  K18  1  0.68952238  0.54362928  0.27328189  1
  K  K19  1  0.18952238  0.95637072  0.72671811  1
  K  K20  1  0.00000000  0.00000000  -0.00000000  1
  K  K21  1  0.50000000  0.00000000  0.50000000  1
  K  K22  1  0.50000000  0.50000000  -0.00000000  1
  K  K23  1  0.00000000  0.50000000  0.50000000  1
  K  K24  1  0.95637072  0.77328189  0.68952238  1
  K  K25  1  0.77328189  0.68952238  0.95637072  1
  K  K26  1  0.68952238  0.95637072  0.77328189  1
  K  K27  1  0.72671811  0.18952238  0.95637072  1
  Li  Li0  1  0.50000000  0.50000000  0.50000000  1
  Li  Li1  1  0.00000000  0.00000000  0.50000000  1
  Li  Li2  1  0.50000000  0.00000000  -0.00000000  1
  Li  Li3  1  0.00000000  0.50000000  -0.00000000  1
  Si  Si0  1  0.19780253  0.56798835  0.94702689  1
  Si  Si1  1  0.94702689  0.19780253  0.56798835  1
  Si  Si2  1  0.80219747  0.06798835  0.55297311  1
  Si  Si3  1  0.30219747  0.43201165  0.44702689  1
  Si  Si4  1  0.55297311  0.80219747  0.06798835  1
  Si  Si5  1  0.43201165  0.44702689  0.30219747  1
  Si  Si6  1  0.06798835  0.55297311  0.80219747  1
  Si  Si7  1  0.56798835  0.94702689  0.19780253  1
  Si  Si8  1  0.06798835  0.94702689  0.30219747  1
  Si  Si9  1  0.30219747  0.06798835  0.94702689  1
  Si  Si10  1  0.94702689  0.30219747  0.06798835  1
  Si  Si11  1  0.55297311  0.69780253  0.56798835  1
  Si  Si12  1  0.80219747  0.43201165  0.05297311  1
  Si  Si13  1  0.44702689  0.30219747  0.43201165  1
  Si  Si14  1  0.19780253  0.93201165  0.44702689  1
  Si  Si15  1  0.69780253  0.56798835  0.55297311  1
  Si  Si16  1  0.44702689  0.19780253  0.93201165  1
  Si  Si17  1  0.56798835  0.55297311  0.69780253  1
  Si  Si18  1  0.93201165  0.44702689  0.19780253  1
  Si  Si19  1  0.43201165  0.05297311  0.80219747  1
  Si  Si20  1  0.30477778  0.30477778  0.30477778  1
  Si  Si21  1  0.19522222  0.69522222  0.80477778  1
  Si  Si22  1  0.80477778  0.19522222  0.69522222  1
  Si  Si23  1  0.69522222  0.80477778  0.19522222  1
  Si  Si24  1  0.69522222  0.69522222  0.69522222  1
  Si  Si25  1  0.80477778  0.30477778  0.19522222  1
  Si  Si26  1  0.19522222  0.80477778  0.30477778  1
  Si  Si27  1  0.30477778  0.19522222  0.80477778  1
  Si  Si28  1  0.05297311  0.69780253  0.93201165  1
  Si  Si29  1  0.69780253  0.93201165  0.05297311  1
  Si  Si30  1  0.05297311  0.80219747  0.43201165  1
  Si  Si31  1  0.93201165  0.05297311  0.69780253  1
loop_
_geom_bond_atom_site_label_1
_geom_bond_atom_site_label_2
_geom_bond_distance
_geom_bond_site_symmetry_2
K0 Si28 3.392569 1_554
K0 Si0 3.395792 1_554
K0 Si26 3.407137 1_555
K0 Si21 3.454999 1_554
K0 Si9 3.456191 1_564
K0 Si4 3.510206 1_555
K1 Si31 3.392569 1_455
K1 Si1 3.395792 1_455
K1 Si27 3.407137 1_555
K1 Si22 3.454999 1_455
K1 Si10 3.456191 1_456
K1 Si6 3.510206 1_555
K2 Si1 3.392569 1_555
K2 Si2 3.395792 1_555
K2 Si25 3.407137 1_555
K2 Si22 3.454999 1_555
K2 Si15 3.456191 1_555
K2 Si13 3.510206 1_555
K3 Si13 3.392569 1_555
K3 Si3 3.395792 1_555
K3 Si27 3.407137 1_555
K3 Si20 3.454999 1_555
K3 Si14 3.456191 1_545
K3 Si1 3.510206 1_455
K4 Si7 3.392569 1_555
K4 Si4 3.395792 1_555
K4 Si26 3.407137 1_555
K4 Si23 3.454999 1_555
K4 Si11 3.456191 1_555
K4 Si5 3.510206 1_555
K5 Si3 3.392569 1_555
K5 Si5 3.395792 1_555
K5 Si26 3.407137 1_555
K5 Si20 3.454999 1_555
K5 Si18 3.456191 1_455
K5 Si0 3.510206 1_554
K6 Si0 3.392569 1_555
K6 Si6 3.395792 1_555
K6 Si27 3.407137 1_555
K6 Si21 3.454999 1_555
K6 Si17 3.456191 1_555
K6 Si3 3.510206 1_555
K7 Si29 3.392569 1_545
K7 Si7 3.395792 1_545
K7 Si25 3.407137 1_555
K7 Si23 3.454999 1_545
K7 Si8 3.456191 1_645
K7 Si2 3.510206 1_555
K8 Si14 3.392569 1_545
K8 Si8 3.395792 1_545
K8 Si20 3.407137 1_555
K8 Si26 3.454999 1_545
K8 Si7 3.456191 1_545
K8 Si9 3.510206 1_554
K9 Si16 3.392569 1_554
K9 Si9 3.395792 1_554
K9 Si20 3.407137 1_555
K9 Si27 3.454999 1_554
K9 Si0 3.456191 1_554
K9 Si10 3.510206 1_455
K10 Si18 3.392569 1_455
K10 Si10 3.395792 1_455
K10 Si20 3.407137 1_555
K10 Si25 3.454999 1_455
K10 Si1 3.456191 1_455
K10 Si8 3.510206 1_545
K11 Si17 3.392569 1_555
K11 Si11 3.395792 1_555
K11 Si21 3.407137 1_555
K11 Si24 3.454999 1_555
K11 Si4 3.456191 1_556
K11 Si19 3.510206 1_565
K12 Si5 3.392569 1_555
K12 Si13 3.395792 1_555
K12 Si25 3.407137 1_555
K12 Si20 3.454999 1_555
K12 Si16 3.456191 1_554
K12 Si7 3.510206 1_545
K13 Si8 3.392569 1_655
K13 Si30 3.395792 1_655
K13 Si23 3.407137 1_555
K13 Si26 3.454999 1_655
K13 Si28 3.456191 1_654
K13 Si18 3.510206 1_555
K14 Si30 3.392569 1_555
K14 Si14 3.395792 1_555
K14 Si21 3.407137 1_555
K14 Si26 3.454999 1_555
K14 Si3 3.456191 1_555
K14 Si11 3.510206 1_555
K15 Si11 3.392569 1_555
K15 Si15 3.395792 1_555
K15 Si23 3.407137 1_555
K15 Si24 3.454999 1_555
K15 Si2 3.456191 1_565
K15 Si30 3.510206 1_655
K16 Si19 3.392569 1_555
K16 Si16 3.395792 1_555
K16 Si22 3.407137 1_555
K16 Si27 3.454999 1_555
K16 Si13 3.456191 1_555
K16 Si17 3.510206 1_555
K17 Si15 3.392569 1_555
K17 Si17 3.395792 1_555
K17 Si22 3.407137 1_555
K17 Si24 3.454999 1_555
K17 Si6 3.456191 1_655
K17 Si12 3.510206 1_556
K18 Si12 3.392569 1_555
K18 Si18 3.395792 1_555
K18 Si23 3.407137 1_555
K18 Si25 3.454999 1_555
K18 Si5 3.456191 1_555
K18 Si15 3.510206 1_555
K19 Si9 3.392569 1_565
K19 Si19 3.395792 1_565
K19 Si21 3.407137 1_555
K19 Si27 3.454999 1_565
K19 Si31 3.456191 1_465
K19 Si14 3.510206 1_555
K24 Si6 3.392569 1_655
K24 Si28 3.395792 1_655
K24 Si24 3.407137 1_555
K24 Si21 3.454999 1_655
K24 Si30 3.456191 1_655
K24 Si31 3.510206 1_565
K25 Si4 3.392569 1_556
K25 Si29 3.395792 1_556
K25 Si24 3.407137 1_555
K25 Si23 3.454999 1_556
K25 Si12 3.456191 1_556
K25 Si28 3.510206 1_655
K26 Si2 3.392569 1_565
K26 Si31 3.395792 1_565
K26 Si24 3.407137 1_555
K26 Si22 3.454999 1_565
K26 Si19 3.456191 1_565
K26 Si29 3.510206 1_556
K27 Si10 3.392569 1_556
K27 Si12 3.395792 1_556
K27 Si22 3.407137 1_555
K27 Si25 3.454999 1_556
K27 Si29 3.456191 1_546
K27 Si16 3.510206 1_555
Li0 Si13 2.696525 1_555
Li0 Si5 2.696525 1_555
Li0 Si3 2.696525 1_555
Li0 Si15 2.696525 1_555
Li0 Si11 2.696525 1_555
Li0 Si17 2.696525 1_555
Li1 Si30 2.696525 1_545
Li1 Si8 2.696525 1_545
Li1 Si2 2.696525 1_455
Li1 Si1 2.696525 1_455
Li1 Si14 2.696525 1_545
Li1 Si31 2.696525 1_455
Li2 Si19 2.696525 1_554
Li2 Si9 2.696525 1_554
Li2 Si4 2.696525 1_545
Li2 Si29 2.696525 1_545
Li2 Si7 2.696525 1_545
Li2 Si16 2.696525 1_554
Li3 Si10 2.696525 1_455
Li3 Si0 2.696525 1_554
Li3 Si28 2.696525 1_554
Li3 Si6 2.696525 1_554
Li3 Si12 2.696525 1_455
Li3 Si18 2.696525 1_455
Si0 Si21 2.385356 1_555
Si0 Si6 2.437906 1_555
Si0 Si28 2.437906 1_555
Si1 Si22 2.385356 1_555
Si1 Si2 2.437906 1_555
Si1 Si31 2.437906 1_555
Si2 Si22 2.385356 1_555
Si2 Si31 2.437906 1_555
Si3 Si5 2.437906 1_555
Si4 Si7 2.437906 1_555
Si10 Si25 2.385356 1_555
Si10 Si12 2.437906 1_555
Si10 Si18 2.437906 1_555
Si11 Si24 2.385356 1_555
Si11 Si15 2.437906 1_555
Si11 Si17 2.437906 1_555
Si12 Si25 2.385356 1_555
Si12 Si18 2.437906 1_555
Si13 Si20 2.385356 1_555
Si13 Si3 2.437906 1_555
Si13 Si5 2.437906 1_555
Si14 Si26 2.385356 1_555
Si14 Si8 2.437906 1_555
Si14 Si30 2.437906 1_555
Si15 Si24 2.385356 1_555
Si15 Si17 2.437906 1_555
Si16 Si27 2.385356 1_555
Si16 Si9 2.437906 1_555
Si16 Si19 2.437906 1_555
Si17 Si24 2.385356 1_555
Si18 Si25 2.385356 1_555
Si19 Si27 2.385356 1_555
Si19 Si9 2.437906 1_555
Si20 Si5 2.385356 1_555
Si20 Si3 2.385356 1_555
Si21 Si6 2.385356 1_555
Si21 Si28 2.385356 1_555
Si22 Si31 2.385356 1_555
Si23 Si7 2.385356 1_555
Si23 Si4 2.385356 1_555
Si23 Si29 2.385356 1_555
Si26 Si8 2.385356 1_555
Si26 Si30 2.385356 1_555
Si27 Si9 2.385356 1_555
Si28 Si6 2.437906 1_555
Si29 Si4 2.437906 1_555
Si29 Si7 2.437906 1_555
Si30 Si8 2.437906 1_555
