# generated using pymatgen
data_Li31Zr2P13
_symmetry_space_group_name_H-M   'P 1'
_cell_length_a   4.18259955
_cell_length_b   4.18259994
_cell_length_c   55.10725452
_cell_angle_alpha   60.41270118
_cell_angle_beta   60.41270459
_cell_angle_gamma   60.04042488
_symmetry_Int_Tables_number   1
_chemical_formula_structural   Li31Zr2P13
_chemical_formula_sum   'Li31 Zr2 P13'
_cell_volume   686.12252046
_cell_formula_units_Z   1
loop_
 _symmetry_equiv_pos_site_id
 _symmetry_equiv_pos_as_xyz
  1  'x, y, z'
loop_
 _atom_site_type_symbol
 _atom_site_label
 _atom_site_symmetry_multiplicity
 _atom_site_fract_x
 _atom_site_fract_y
 _atom_site_fract_z
 _atom_site_occupancy
  Li  Li0  1  0.26583100  0.26583100  0.16941400  1
  Li  Li1  1  0.74154900  0.74154900  0.05965000  1
  Li  Li2  1  0.48577000  0.48577000  0.19558700  1
  Li  Li3  1  0.25081300  0.25081300  0.24981600  1
  Li  Li4  1  0.73723300  0.73723300  0.13752500  1
  Li  Li5  1  0.49268100  0.49268100  0.27095000  1
  Li  Li6  1  0.25349200  0.25349200  0.32611100  1
  Li  Li7  1  0.74705400  0.74705400  0.21223200  1
  Li  Li8  1  0.23918200  0.23918200  0.40640000  1
  Li  Li9  1  0.48718500  0.48718500  0.34912900  1
  Li  Li10  1  0.74950600  0.74950600  0.28858600  1
  Li  Li11  1  0.24827700  0.24827700  0.48115000  1
  Li  Li12  1  0.73150100  0.73150100  0.36955100  1
  Li  Li13  1  0.24693500  0.24693500  0.55835500  1
  Li  Li14  1  0.75756600  0.75756600  0.44058200  1
  Li  Li15  1  0.24158700  0.24158700  0.63652900  1
  Li  Li16  1  0.75334200  0.75334200  0.51851100  1
  Li  Li17  1  0.26928700  0.26928700  0.70720700  1
  Li  Li18  1  0.75228600  0.75228600  0.59566400  1
  Li  Li19  1  0.76091600  0.76091600  0.67050800  1
  Li  Li20  1  0.51386000  0.51386000  0.72755900  1
  Li  Li21  1  0.25147100  0.25147100  0.78810500  1
  Li  Li22  1  0.50965000  0.50965000  0.80544300  1
  Li  Li23  1  0.25321100  0.25321100  0.86464100  1
  Li  Li24  1  0.74698200  0.74698200  0.75070000  1
  Li  Li25  1  0.51325200  0.51325200  0.88155200  1
  Li  Li26  1  0.25945500  0.25945500  0.94010300  1
  Li  Li27  1  0.74978400  0.74978400  0.82698500  1
  Li  Li28  1  0.52558500  0.52558500  0.95562900  1
  Li  Li29  1  0.75637200  0.75637200  0.90236200  1
  Li  Li30  1  0.74931000  0.74931000  0.98092500  1
  Zr  Zr0  1  0.23626600  0.23626600  0.02241800  1
  Zr  Zr1  1  0.24009400  0.24009400  0.09850700  1
  P  P0  1  0.00174500  0.00174500  0.99953900  1
  P  P1  1  0.99008900  0.99008900  0.07919600  1
  P  P2  1  0.99468700  0.99468700  0.15507800  1
  P  P3  1  0.01029300  0.01029300  0.22839300  1
  P  P4  1  0.01459100  0.01459100  0.38119800  1
  P  P5  1  0.01085100  0.01085100  0.30520200  1
  P  P6  1  0.99675500  0.99675500  0.46220700  1
  P  P7  1  0.00023300  0.00023300  0.53841500  1
  P  P8  1  0.00329600  0.00329600  0.61470300  1
  P  P9  1  0.98826000  0.98826000  0.77192500  1
  P  P10  1  0.98527600  0.98527600  0.69577400  1
  P  P11  1  0.99179600  0.99179600  0.84805700  1
  P  P12  1  0.99484500  0.99484500  0.92423400  1
loop_
_geom_bond_atom_site_label_1
_geom_bond_atom_site_label_2
_geom_bond_distance
_geom_bond_site_symmetry_2
Li0 P2 2.500102 1_445
Li0 P2 2.501427 1_545
Li0 P2 2.501427 1_455
Li0 P3 2.669926 1_555
Li0 Li2 2.690192 1_455
Li0 Li2 2.690192 1_545
Li0 Li2 2.690438 1_555
Li1 P1 2.571434 1_555
Li1 P1 2.572719 1_455
Li1 P1 2.572719 1_545
Li1 P0 2.721173 1_664
Li2 Li3 2.454898 1_555
Li2 Li7 2.530014 1_455
Li2 Li7 2.530014 1_545
Li2 Li7 2.530342 1_555
Li2 Li4 2.628415 1_555
Li2 P3 2.833350 1_555
Li2 P3 2.836366 1_655
Li2 P3 2.836366 1_565
Li2 P2 3.030821 1_555
Li2 P2 3.033473 1_455
Li2 P2 3.033473 1_545
Li3 P5 2.507274 1_555
Li3 Li5 2.597587 1_455
Li3 Li5 2.597587 1_545
Li3 Li5 2.598514 1_555
Li3 P3 2.602727 1_555
Li3 P3 2.602750 1_655
Li3 P3 2.602750 1_565
Li4 P2 2.542183 1_455
Li4 P2 2.542183 1_545
Li4 P2 2.543639 1_555
Li4 P1 2.640501 1_555
Li5 Li6 2.497088 1_555
Li5 Li7 2.658111 1_555
Li5 P5 2.868686 1_555
Li5 P5 2.870940 1_655
Li5 P5 2.870940 1_565
Li6 P4 2.493738 1_555
Li6 P5 2.593411 1_555
Li6 P5 2.594538 1_655
Li6 P5 2.594538 1_565
Li6 Li9 2.630198 1_455
Li6 Li9 2.630198 1_545
Li6 Li9 2.631104 1_555
Li7 P3 2.522900 1_665
Li7 P3 2.524077 1_565
Li7 P3 2.524077 1_655
Li7 P2 2.587310 1_555
Li8 P6 2.526332 1_445
Li8 Li9 2.592608 1_555
Li8 P4 2.669689 1_655
Li8 P4 2.669689 1_565
Li8 P4 2.674249 1_555
Li9 P4 2.817959 1_555
Li9 P4 2.818064 1_655
Li9 P4 2.818065 1_565
Li10 P5 2.529503 1_665
Li10 P5 2.529847 1_565
Li10 P5 2.529848 1_655
Li10 Li5 2.542966 1_555
Li10 Li5 2.544283 1_655
Li10 Li5 2.544284 1_565
Li10 P3 2.724883 1_665
Li10 Li9 2.740727 1_555
Li11 P6 2.562212 1_545
Li11 P6 2.562212 1_455
Li11 P6 2.564666 1_445
Li11 P7 2.592336 1_555
Li12 P4 2.471654 1_565
Li12 P4 2.471655 1_655
Li12 P4 2.473278 1_665
Li12 Li9 2.582484 1_555
Li12 Li9 2.588058 1_655
Li12 Li9 2.588058 1_565
Li12 P5 2.913020 1_665
Li13 P8 2.550829 1_555
Li13 P7 2.576754 1_555
Li13 P7 2.579343 1_655
Li13 P7 2.579344 1_565
Li14 P6 2.603097 1_555
Li14 P6 2.607697 1_455
Li14 P6 2.607697 1_545
Li14 P4 2.688263 1_665
Li15 P8 2.606358 1_555
Li15 P8 2.611213 1_655
Li15 P8 2.611213 1_565
Li15 P10 2.681972 1_445
Li16 P6 2.548838 1_555
Li16 P7 2.576406 1_665
Li16 P7 2.578662 1_565
Li16 P7 2.578662 1_655
Li17 P10 2.469632 1_545
Li17 P10 2.469633 1_455
Li17 P10 2.471178 1_445
Li17 Li20 2.581036 1_555
Li17 Li20 2.587086 1_455
Li17 Li20 2.587086 1_545
Li17 P9 2.929725 1_445
Li18 P8 2.563995 1_565
Li18 P8 2.563995 1_655
Li18 P8 2.565471 1_665
Li18 P7 2.591611 1_665
Li19 P8 2.526242 1_665
Li19 Li20 2.582648 1_555
Li19 P10 2.670776 1_455
Li19 P10 2.670777 1_545
Li19 P10 2.675791 1_555
Li20 Li24 2.632533 1_455
Li20 Li24 2.632533 1_545
Li20 Li24 2.633066 1_555
Li20 Li21 2.740863 1_555
Li20 P10 2.811294 1_455
Li20 P10 2.811295 1_545
Li20 P10 2.811694 1_555
Li21 P9 2.523527 1_445
Li21 P9 2.524138 1_545
Li21 P9 2.524138 1_455
Li21 Li22 2.539183 1_555
Li21 Li22 2.539872 1_455
Li21 Li22 2.539873 1_545
Li21 P11 2.713974 1_445
Li22 Li24 2.478166 1_555
Li22 Li27 2.604325 1_455
Li22 Li27 2.604325 1_545
Li22 Li27 2.605614 1_555
Li22 Li23 2.679841 1_555
Li22 P9 2.850646 1_555
Li22 P9 2.853239 1_455
Li22 P9 2.853240 1_545
Li23 P11 2.528597 1_445
Li23 P11 2.529655 1_545
Li23 P11 2.529655 1_455
Li23 Li25 2.533340 1_555
Li23 Li25 2.533933 1_455
Li23 Li25 2.533933 1_545
Li23 P12 2.697721 1_445
Li24 P10 2.486449 1_555
Li24 P9 2.598720 1_555
Li24 P9 2.599763 1_455
Li24 P9 2.599764 1_545
Li25 Li27 2.470198 1_555
Li25 Li29 2.592113 1_555
Li25 Li29 2.592739 1_455
Li25 Li29 2.592739 1_545
Li25 Li26 2.650550 1_555
Li25 P11 2.850299 1_555
Li25 P11 2.852582 1_455
Li25 P11 2.852583 1_545
Li26 Li28 2.515424 1_455
Li26 Li28 2.515424 1_545
Li26 Li28 2.515660 1_555
Li26 P12 2.519821 1_445
Li26 P12 2.519917 1_545
Li26 P12 2.519917 1_455
Li26 P0 2.690613 1_555
Li27 P9 2.492517 1_555
Li27 P11 2.596640 1_555
Li27 P11 2.596975 1_455
Li27 P11 2.596976 1_545
Li28 Li29 2.411349 1_555
Li28 Li30 2.673006 1_455
Li28 Li30 2.673006 1_545
Li28 Li30 2.673068 1_555
Li28 P12 2.799805 1_555
Li28 P12 2.803747 1_455
Li28 P12 2.803747 1_545
Li28 Zr0 3.023478 1_556
Li29 P11 2.458338 1_555
Li29 P12 2.609705 1_555
Li29 P12 2.610723 1_455
Li29 P12 2.610723 1_545
Li30 P0 2.556207 1_665
Li30 P0 2.559023 1_565
Li30 P0 2.559023 1_655
Li30 P12 2.566351 1_555
P0 Zr0 2.626965 1_456
P0 Zr0 2.626965 1_546
P0 Zr0 2.630115 1_556
P1 Zr1 2.567565 1_565
P1 Zr1 2.567565 1_655
P1 Zr0 2.570288 1_665
P1 Zr1 2.570827 1_665
P2 Zr1 2.560917 1_665
