# generated using pymatgen
data_Hf(ScH3)3
_symmetry_space_group_name_H-M   'P 1'
_cell_length_a   3.33657932
_cell_length_b   5.82209198
_cell_length_c   8.22450571
_cell_angle_alpha   118.47262877
_cell_angle_beta   90.00893750
_cell_angle_gamma   124.89459131
_symmetry_Int_Tables_number   1
_chemical_formula_structural   Hf(ScH3)3
_chemical_formula_sum   'Hf1 Sc3 H9'
_cell_volume   106.62329040
_cell_formula_units_Z   1
loop_
 _symmetry_equiv_pos_site_id
 _symmetry_equiv_pos_as_xyz
  1  'x, y, z'
loop_
 _atom_site_type_symbol
 _atom_site_label
 _atom_site_symmetry_multiplicity
 _atom_site_fract_x
 _atom_site_fract_y
 _atom_site_fract_z
 _atom_site_occupancy
  Hf  Hf0  1  0.82511073  0.94876624  0.19456443  1
  Sc  Sc0  1  0.07774209  0.70166617  0.44777729  1
  Sc  Sc1  1  0.32210774  0.44605564  0.69456226  1
  Sc  Sc2  1  0.57196357  0.19541591  0.94146369  1
  H  H0  1  0.58989988  0.21360159  0.69448120  1
  H  H1  1  0.05977956  0.68409287  0.69469791  1
  H  H2  1  0.57019497  0.19390342  0.19464195  1
  H  H3  1  0.34219951  0.46595845  0.95408730  1
  H  H4  1  0.30817188  0.43179819  0.43612490  1
  H  H5  1  0.82959349  0.95388662  0.69437110  1
  H  H6  1  0.08001572  0.70358105  0.19456675  1
  H  H7  1  0.82258765  0.94688040  0.43497791  1
  H  H8  1  0.82566920  0.94879948  0.95303929  1
loop_
_geom_bond_atom_site_label_1
_geom_bond_atom_site_label_2
_geom_bond_distance
_geom_bond_site_symmetry_2
H0 Sc1 2.003161 1_555
H0 Sc1 2.004094 1_655
H0 Sc0 2.079894 1_545
H0 Sc2 2.082994 1_555
H1 Sc1 2.018206 1_555
H1 Sc1 2.018530 1_455
H1 Sc2 2.078270 1_565
H1 Sc0 2.080707 1_555
H2 Hf0 2.036756 1_545
H2 Hf0 2.038852 1_445
H2 Sc0 2.084288 1_655
H2 Sc2 2.086474 1_554
H3 Hf0 1.981277 1_556
H3 Sc2 2.074895 1_555
H3 Sc2 2.075809 1_455
H3 Sc1 2.080650 1_555
H4 Hf0 1.984782 1_445
H4 Sc0 2.075464 1_555
H4 Sc0 2.076421 1_655
H4 Sc1 2.086675 1_555
H5 Sc2 2.346277 1_565
H5 Sc0 2.346649 1_555
H5 Sc0 2.346718 1_655
H5 Sc1 2.349352 1_665
H5 Sc2 2.351850 1_665
H5 Sc1 2.425967 1_555
H6 Hf0 2.037208 1_455
H6 Hf0 2.039101 1_555
H6 Sc2 2.085323 1_454
H6 Sc0 2.087861 1_555
H7 Hf0 1.982532 1_555
H7 Sc0 2.075563 1_655
H7 Sc0 2.075955 1_555
H7 Sc1 2.079184 1_665
H8 Hf0 1.986518 1_556
H8 Sc2 2.075613 1_565
H8 Sc2 2.076266 1_665
H8 Sc1 2.085395 1_555
