# generated using pymatgen
data_Y9LuAl3Ru
_symmetry_space_group_name_H-M   'P 1'
_cell_length_a   9.57296309
_cell_length_b   9.57296265
_cell_length_c   9.58777818
_cell_angle_alpha   90.00000000
_cell_angle_beta   90.00000000
_cell_angle_gamma   120.00000152
_symmetry_Int_Tables_number   1
_chemical_formula_structural   Y9LuAl3Ru
_chemical_formula_sum   'Y18 Lu2 Al6 Ru2'
_cell_volume   760.92412216
_cell_formula_units_Z   2
loop_
 _symmetry_equiv_pos_site_id
 _symmetry_equiv_pos_as_xyz
  1  'x, y, z'
loop_
 _atom_site_type_symbol
 _atom_site_label
 _atom_site_symmetry_multiplicity
 _atom_site_fract_x
 _atom_site_fract_y
 _atom_site_fract_z
 _atom_site_occupancy
  Y  Y0  1  0.20723706  0.79276294  0.43970938  1
  Y  Y1  1  0.20723706  0.41447412  0.43970938  1
  Y  Y2  1  0.58552588  0.79276294  0.43970938  1
  Y  Y3  1  0.79276294  0.20723706  0.56029062  1
  Y  Y4  1  0.79276294  0.58552588  0.56029062  1
  Y  Y5  1  0.41447412  0.20723706  0.56029062  1
  Y  Y6  1  0.79276294  0.20723706  0.93970938  1
  Y  Y7  1  0.79276294  0.58552588  0.93970938  1
  Y  Y8  1  0.41447412  0.20723706  0.93970938  1
  Y  Y9  1  0.20723706  0.79276294  0.06029062  1
  Y  Y10  1  0.20723706  0.41447412  0.06029062  1
  Y  Y11  1  0.58552588  0.79276294  0.06029062  1
  Y  Y12  1  0.54041174  0.45958826  0.25000000  1
  Y  Y13  1  0.54041174  0.08082348  0.25000000  1
  Y  Y14  1  0.91917652  0.45958826  0.25000000  1
  Y  Y15  1  0.45958826  0.54041174  0.75000000  1
  Y  Y16  1  0.45958826  0.91917652  0.75000000  1
  Y  Y17  1  0.08082348  0.54041174  0.75000000  1
  Lu  Lu0  1  0.00000000  0.00000000  0.50000000  1
  Lu  Lu1  1  0.00000000  0.00000000  0.00000000  1
  Al  Al0  1  0.89026748  0.10973252  0.25000000  1
  Al  Al1  1  0.89026748  0.78053495  0.25000000  1
  Al  Al2  1  0.21946505  0.10973252  0.25000000  1
  Al  Al3  1  0.10973252  0.89026748  0.75000000  1
  Al  Al4  1  0.10973252  0.21946505  0.75000000  1
  Al  Al5  1  0.78053495  0.89026748  0.75000000  1
  Ru  Ru0  1  0.33333300  0.66666700  0.25000000  1
  Ru  Ru1  1  0.66666700  0.33333300  0.75000000  1
loop_
_geom_bond_atom_site_label_1
_geom_bond_atom_site_label_2
_geom_bond_distance
_geom_bond_site_symmetry_2
Al0 Lu0 3.009282 1_655
Al0 Lu1 3.009282 1_655
Al0 Y14 3.219716 1_555
Al0 Y13 3.219716 1_555
Al0 Y3 3.385906 1_555
Al0 Y6 3.385906 1_554
Al0 Y2 3.489138 1_545
Al0 Y11 3.489138 1_545
Al0 Y1 3.489138 1_655
Al0 Y10 3.489138 1_655
Al1 Lu0 3.009282 1_665
Al1 Lu1 3.009282 1_665
Al1 Y12 3.219716 1_555
Al1 Y14 3.219716 1_555
Al1 Y4 3.385906 1_555
Al1 Y7 3.385906 1_554
Al1 Y0 3.489138 1_655
Al1 Y9 3.489138 1_655
Al1 Y2 3.489138 1_555
Al1 Y11 3.489138 1_555
Al2 Lu0 3.009282 1_555
Al2 Lu1 3.009282 1_555
Al2 Y12 3.219716 1_555
Al2 Y13 3.219716 1_555
Al2 Y5 3.385906 1_555
Al2 Y8 3.385906 1_554
Al2 Y0 3.489138 1_545
Al2 Y9 3.489138 1_545
Al2 Y1 3.489138 1_555
Al2 Y10 3.489138 1_555
Al3 Lu0 3.009282 1_565
Al3 Lu1 3.009282 1_566
Al3 Y17 3.219716 1_555
Al3 Y16 3.219716 1_555
Al3 Y9 3.385906 1_556
Al3 Y0 3.385906 1_555
Al3 Y8 3.489138 1_565
Al3 Y5 3.489138 1_565
Al3 Y7 3.489138 1_455
Al3 Y4 3.489138 1_455
Al4 Lu0 3.009282 1_555
Al4 Lu1 3.009282 1_556
Al4 Y15 3.219716 1_555
Al4 Y17 3.219716 1_555
Al4 Y10 3.385906 1_556
Al4 Y1 3.385906 1_555
Al4 Y6 3.489138 1_455
Al4 Y3 3.489138 1_455
Al4 Y8 3.489138 1_555
Al4 Y5 3.489138 1_555
Al5 Lu0 3.009282 1_665
Al5 Lu1 3.009282 1_666
Al5 Y15 3.219716 1_555
Al5 Y16 3.219716 1_555
Al5 Y11 3.385906 1_556
Al5 Y2 3.385906 1_555
Al5 Y6 3.489138 1_565
Al5 Y3 3.489138 1_565
Al5 Y7 3.489138 1_555
Al5 Y4 3.489138 1_555
Ru0 Y0 2.771231 1_555
Ru0 Y9 2.771231 1_555
Ru0 Y1 2.771237 1_555
Ru0 Y10 2.771237 1_555
Ru0 Y2 2.771238 1_555
Ru0 Y11 2.771238 1_555
Ru0 Y13 3.433535 1_565
Ru0 Y14 3.433535 1_455
Ru0 Y12 3.433543 1_555
Ru1 Y6 2.771231 1_555
Ru1 Y3 2.771231 1_555
Ru1 Y7 2.771237 1_555
Ru1 Y4 2.771237 1_555
Ru1 Y8 2.771238 1_555
Ru1 Y5 2.771238 1_555
Ru1 Y16 3.433535 1_545
Ru1 Y17 3.433535 1_655
Ru1 Y15 3.433543 1_555
