# generated using pymatgen
data_ZnGa11MoIr3
_symmetry_space_group_name_H-M   'P 1'
_cell_length_a   6.53567837
_cell_length_b   6.57054992
_cell_length_c   6.75048632
_cell_angle_alpha   90.00000000
_cell_angle_beta   90.00000000
_cell_angle_gamma   90.36962600
_symmetry_Int_Tables_number   1
_chemical_formula_structural   ZnGa11MoIr3
_chemical_formula_sum   'Zn1 Ga11 Mo1 Ir3'
_cell_volume   289.88010865
_cell_formula_units_Z   1
loop_
 _symmetry_equiv_pos_site_id
 _symmetry_equiv_pos_as_xyz
  1  'x, y, z'
loop_
 _atom_site_type_symbol
 _atom_site_label
 _atom_site_symmetry_multiplicity
 _atom_site_fract_x
 _atom_site_fract_y
 _atom_site_fract_z
 _atom_site_occupancy
  Zn  Zn0  1  0.50403804  0.00015512  0.00000000  1
  Ga  Ga0  1  0.00099020  0.50047469  0.50000000  1
  Ga  Ga1  1  0.49846758  0.99883329  0.50000000  1
  Ga  Ga2  1  0.00127199  0.50026821  0.00000000  1
  Ga  Ga3  1  0.35174470  0.66154900  0.23462706  1
  Ga  Ga4  1  0.64692837  0.34073993  0.23020797  1
  Ga  Ga5  1  0.16269777  0.15061616  0.73517880  1
  Ga  Ga6  1  0.84500819  0.83995174  0.73412876  1
  Ga  Ga7  1  0.64692837  0.34073993  0.76979203  1
  Ga  Ga8  1  0.35174470  0.66154900  0.76537294  1
  Ga  Ga9  1  0.84500819  0.83995174  0.26587124  1
  Ga  Ga10  1  0.16269777  0.15061616  0.26482120  1
  Mo  Mo0  1  0.15449369  0.84544795  0.50000000  1
  Ir  Ir0  1  0.82949663  0.16925220  0.50000000  1
  Ir  Ir1  1  0.33560958  0.34567265  0.00000000  1
  Ir  Ir2  1  0.66287621  0.65418023  0.00000000  1
loop_
_geom_bond_atom_site_label_1
_geom_bond_atom_site_label_2
_geom_bond_distance
_geom_bond_site_symmetry_2
Ga0 Ir0 2.441541 1_455
Ga0 Mo0 2.472839 1_555
Ga0 Ga6 2.922653 1_455
Ga0 Ga9 2.922653 1_455
Ga0 Ga5 2.992158 1_555
Ga0 Ga10 2.992158 1_555
Ga0 Ga8 3.090806 1_555
Ga0 Ga3 3.090806 1_555
Ga0 Ga7 3.121191 1_455
Ga0 Ga4 3.121191 1_455
Ga1 Ir0 2.429672 1_565
Ga1 Mo0 2.457732 1_555
Ga1 Ga5 2.891190 1_565
Ga1 Ga10 2.891190 1_565
Ga1 Ga6 2.957687 1_555
Ga1 Ga9 2.957687 1_555
Ga1 Ga8 3.002087 1_555
Ga1 Ga3 3.002087 1_555
Ga1 Ga7 3.045823 1_565
Ga1 Ga4 3.045823 1_565
Ga2 Ir1 2.415617 1_555
Ga2 Ir2 2.437814 1_455
Ga2 Ga4 2.974160 1_455
Ga2 Ga7 2.974160 1_454
Ga2 Ga3 2.974385 1_555
Ga2 Ga8 2.974385 1_554
Ga2 Ga9 3.045492 1_455
Ga2 Ga6 3.045492 1_454
Ga2 Ga5 3.101322 1_554
Ga3 Mo0 2.520156 1_555
Ga3 Ir2 2.578202 1_555
Ga3 Ir1 2.612372 1_555
Ga3 Ga4 2.866789 1_555
Ga3 Zn0 2.901821 1_565
Ga4 Ir0 2.455111 1_555
Ga4 Ir1 2.560622 1_555
Ga4 Ir2 2.581569 1_555
Ga4 Zn0 2.875417 1_555
Ga4 Ga7 3.108031 1_554
Ga5 Ir1 2.469164 1_556
Ga5 Mo0 2.557809 1_545
Ga5 Ir0 2.698365 1_455
Ga5 Ga6 2.902258 1_445
Ga5 Zn0 3.029596 1_556
Ga6 Ir2 2.471696 1_556
Ga6 Mo0 2.567020 1_655
Ga6 Ir0 2.681896 1_565
Ga6 Zn0 3.053773 1_566
Ga7 Ir0 2.455111 1_555
Ga7 Ir1 2.560622 1_556
Ga7 Ir2 2.581569 1_556
Ga7 Ga8 2.866789 1_555
Ga7 Zn0 2.875417 1_556
Ga8 Mo0 2.520156 1_555
Ga8 Ir2 2.578202 1_556
Ga8 Ir1 2.612372 1_556
Ga8 Zn0 2.901821 1_566
Ga9 Ir2 2.471696 1_555
Ga9 Mo0 2.567020 1_655
Ga9 Ir0 2.681896 1_565
Ga9 Zn0 3.053773 1_565
Ga10 Ir1 2.469164 1_555
Ga10 Mo0 2.557809 1_545
Ga10 Ir0 2.698365 1_455
Ga10 Ga9 2.902258 1_445
Ga10 Zn0 3.029596 1_555
Ga10 Ga2 3.101322 1_555
Ir1 Zn0 2.529423 1_555
Ir2 Zn0 2.505150 1_565
