# generated using pymatgen
data_KGa3Sn
_symmetry_space_group_name_H-M   'P 1'
_cell_length_a   6.48965861
_cell_length_b   6.48965931
_cell_length_c   6.48965899
_cell_angle_alpha   138.06843443
_cell_angle_beta   138.06843657
_cell_angle_gamma   60.79820083
_symmetry_Int_Tables_number   1
_chemical_formula_structural   KGa3Sn
_chemical_formula_sum   'K1 Ga3 Sn1'
_cell_volume   120.72615734
_cell_formula_units_Z   1
loop_
 _symmetry_equiv_pos_site_id
 _symmetry_equiv_pos_as_xyz
  1  'x, y, z'
loop_
 _atom_site_type_symbol
 _atom_site_label
 _atom_site_symmetry_multiplicity
 _atom_site_fract_x
 _atom_site_fract_y
 _atom_site_fract_z
 _atom_site_occupancy
  K  K0  1  0.99663718  0.99663718  0.00000000  1
  Ga  Ga0  1  0.37152788  0.37152788  1.00000000  1
  Ga  Ga1  1  0.75793907  0.25793907  0.50000000  1
  Ga  Ga2  1  0.25793907  0.75793907  0.50000000  1
  Sn  Sn0  1  0.61595580  0.61595580  0.00000000  1
loop_
_geom_bond_atom_site_label_1
_geom_bond_atom_site_label_2
_geom_bond_distance
_geom_bond_site_symmetry_2
K0 Sn0 3.545174 1_655
K0 Sn0 3.545174 1_554
K0 Sn0 3.545174 1_565
K0 Sn0 3.545174 1_666
Ga0 Ga1 2.647454 1_455
Ga0 Ga1 2.647454 1_556
Ga0 Ga2 2.647454 1_556
Ga0 Ga2 2.647454 1_545
Ga0 Sn0 2.736356 1_556
Ga0 K0 3.570104 1_546
Ga0 K0 3.570105 1_445
Ga0 K0 3.570105 1_456
Ga0 K0 3.570105 1_557
Ga1 Sn0 2.813981 1_556
Ga1 Sn0 2.813981 1_545
Ga1 K0 3.540157 1_545
Ga1 K0 3.540157 1_556
Ga1 K0 3.734854 1_445
Ga1 K0 3.734855 1_546
Ga2 Sn0 2.813981 1_455
Ga2 Sn0 2.813981 1_556
Ga2 K0 3.540157 1_556
Ga2 K0 3.540157 1_455
Ga2 K0 3.734855 1_456
Ga2 K0 3.734855 1_445
