# generated using pymatgen
data_RbCoSn3O8
_symmetry_space_group_name_H-M   'P 1'
_cell_length_a   3.14867892
_cell_length_b   10.29266363
_cell_length_c   10.32972051
_cell_angle_alpha   89.56342050
_cell_angle_beta   89.99994151
_cell_angle_gamma   89.99986497
_symmetry_Int_Tables_number   1
_chemical_formula_structural   RbCoSn3O8
_chemical_formula_sum   'Rb2 Co2 Sn6 O16'
_cell_volume   334.75889058
_cell_formula_units_Z   2
loop_
 _symmetry_equiv_pos_site_id
 _symmetry_equiv_pos_as_xyz
  1  'x, y, z'
loop_
 _atom_site_type_symbol
 _atom_site_label
 _atom_site_symmetry_multiplicity
 _atom_site_fract_x
 _atom_site_fract_y
 _atom_site_fract_z
 _atom_site_occupancy
  Rb  Rb0  1  0.50334456  0.99315277  0.00773874  1
  Rb  Rb1  1  0.99669900  0.49315183  0.50773921  1
  Co  Co0  1  0.99968204  0.16827337  0.65038681  1
  Co  Co1  1  0.50031533  0.66827320  0.15038521  1
  Sn  Sn0  1  0.49971061  0.32332500  0.84093819  1
  Sn  Sn1  1  0.00028317  0.82332099  0.34093795  1
  Sn  Sn2  1  0.00039321  0.65247847  0.84660165  1
  Sn  Sn3  1  0.49960729  0.15247636  0.34660244  1
  Sn  Sn4  1  0.99961059  0.36252253  0.16573520  1
  Sn  Sn5  1  0.50038765  0.86252511  0.66573522  1
  O  O0  1  0.50034797  0.66455352  0.96812550  1
  O  O1  1  0.99964870  0.16455006  0.46812698  1
  O  O2  1  0.49966467  0.33140937  0.03912775  1
  O  O3  1  0.00033453  0.83141211  0.53912696  1
  O  O4  1  0.99980770  0.45477000  0.82956187  1
  O  O5  1  0.50018714  0.95476732  0.32956169  1
  O  O6  1  0.00018529  0.55522588  0.15700787  1
  O  O7  1  0.49979920  0.05522794  0.65701371  1
  O  O8  1  0.99970040  0.19122113  0.83777781  1
  O  O9  1  0.50029505  0.69121786  0.33777767  1
  O  O10  1  0.00043384  0.78842154  0.14629389  1
  O  O11  1  0.49955883  0.28842471  0.64629358  1
  O  O12  1  0.49957103  0.35478393  0.30141139  1
  O  O13  1  0.00043193  0.85478762  0.80141241  1
  O  O14  1  0.50034848  0.65986524  0.70928967  1
  O  O15  1  0.99965180  0.15986216  0.20929163  1
loop_
_geom_bond_atom_site_label_1
_geom_bond_atom_site_label_2
_geom_bond_distance
_geom_bond_site_symmetry_2
Co0 O1 1.883375 1_555
Co0 O8 1.951839 1_555
Co0 O7 1.958235 1_555
Co0 O7 1.958824 1_655
Co0 O11 2.001923 1_655
Co0 O11 2.002528 1_555
Co1 O0 1.883373 1_554
Co1 O9 1.951850 1_555
Co1 O6 1.958209 1_655
Co1 O6 1.958871 1_555
Co1 O10 2.001910 1_555
Co1 O10 2.002502 1_655
O0 Sn2 2.017851 1_555
O0 Sn2 2.018071 1_655
O1 Sn3 2.017861 1_655
O1 Sn3 2.018067 1_555
O2 Sn0 2.049566 1_554
O2 Sn4 2.073003 1_555
O2 Sn4 2.073259 1_455
O3 Sn1 2.049564 1_555
O3 Sn5 2.073007 1_455
O3 Sn5 2.073264 1_555
O4 Sn2 2.043882 1_655
O4 Sn0 2.078304 1_655
O4 Sn0 2.078772 1_555
O5 Sn3 2.043888 1_565
O5 Sn1 2.078321 1_555
O5 Sn1 2.078774 1_655
O6 Sn4 1.984793 1_455
O7 Sn5 1.984785 1_545
O8 Sn0 2.080616 1_555
O8 Sn0 2.080669 1_655
O8 Rb0 3.102646 1_546
O8 Rb0 3.114266 1_646
O9 Sn1 2.080612 1_655
O9 Sn1 2.080663 1_555
O9 Rb1 3.102707 1_555
O9 Rb1 3.114180 1_455
O10 Sn1 2.045147 1_555
O10 Rb0 2.982055 1_455
O10 Rb0 2.991720 1_555
O11 Sn0 2.045154 1_555
O11 Rb1 2.982109 1_555
O11 Rb1 2.991598 1_455
O12 Sn4 2.108790 1_455
O12 Sn4 2.108974 1_555
O12 Sn3 2.130494 1_555
O12 Rb1 3.011175 1_555
O12 Rb1 3.020611 1_455
O13 Sn5 2.108783 1_555
O13 Sn5 2.108993 1_455
O13 Sn2 2.130506 1_555
O13 Rb0 3.011078 1_456
O13 Rb0 3.020659 1_556
O14 Sn2 2.119924 1_555
O14 Sn2 2.120135 1_655
O14 Sn5 2.130524 1_555
O14 Rb1 3.126639 1_555
O14 Rb1 3.138196 1_455
O15 Sn3 2.119918 1_655
O15 Sn3 2.120124 1_555
O15 Sn4 2.130533 1_555
O15 Rb0 3.126571 1_545
O15 Rb0 3.138253 1_645
