# generated using pymatgen
data_LuB4Mo
_symmetry_space_group_name_H-M   'P 1'
_cell_length_a   3.57538351
_cell_length_b   5.96724088
_cell_length_c   11.51270817
_cell_angle_alpha   90.00178765
_cell_angle_beta   90.00000000
_cell_angle_gamma   90.00000000
_symmetry_Int_Tables_number   1
_chemical_formula_structural   LuB4Mo
_chemical_formula_sum   'Lu4 B16 Mo4'
_cell_volume   245.62563927
_cell_formula_units_Z   4
loop_
 _symmetry_equiv_pos_site_id
 _symmetry_equiv_pos_as_xyz
  1  'x, y, z'
loop_
 _atom_site_type_symbol
 _atom_site_label
 _atom_site_symmetry_multiplicity
 _atom_site_fract_x
 _atom_site_fract_y
 _atom_site_fract_z
 _atom_site_occupancy
  Lu  Lu0  1  0.00000000  0.62821887  0.35099674  1
  Lu  Lu1  1  0.00000000  0.37178662  0.64900310  1
  Lu  Lu2  1  0.00000000  0.12828633  0.14905593  1
  Lu  Lu3  1  0.00000000  0.87175830  0.85094430  1
  B  B0  1  0.50000000  0.78900231  0.18659123  1
  B  B1  1  0.50000000  0.21104329  0.81337779  1
  B  B2  1  0.50000000  0.28895635  0.31345913  1
  B  B3  1  0.50000000  0.71103188  0.68658977  1
  B  B4  1  0.50000000  0.86814869  0.03159688  1
  B  B5  1  0.50000000  0.13193275  0.96831264  1
  B  B6  1  0.50000000  0.36808763  0.46841556  1
  B  B7  1  0.50000000  0.63189989  0.53167144  1
  B  B8  1  0.50000000  0.88476892  0.45162823  1
  B  B9  1  0.50000000  0.11519371  0.54842721  1
  B  B10  1  0.50000000  0.38478684  0.04836224  1
  B  B11  1  0.50000000  0.61521385  0.95155906  1
  B  B12  1  0.50000000  0.97738804  0.30525491  1
  B  B13  1  0.50000000  0.02258024  0.69478935  1
  B  B14  1  0.50000000  0.47738318  0.19478775  1
  B  B15  1  0.50000000  0.52258799  0.80518479  1
  Mo  Mo0  1  0.00000000  0.86965405  0.58377038  1
  Mo  Mo1  1  0.00000000  0.63030751  0.08369688  1
  Mo  Mo2  1  0.00000000  0.36968392  0.91619879  1
  Mo  Mo3  1  0.00000000  0.13029784  0.41632191  1
loop_
_geom_bond_atom_site_label_1
_geom_bond_atom_site_label_2
_geom_bond_distance
_geom_bond_site_symmetry_2
Lu0 Mo0 3.042532 1_555
Lu0 Mo3 3.064941 1_555
Lu0 Mo1 3.077371 1_555
Lu0 Mo3 3.088955 1_565
Lu1 Mo3 3.041746 1_555
Lu1 Mo0 3.064370 1_555
Lu1 Mo2 3.076172 1_555
Lu1 Mo0 3.089006 1_545
Lu2 Mo2 3.043352 1_554
Lu2 Mo1 3.065326 1_545
Lu2 Mo3 3.076978 1_555
Lu2 Mo1 3.088761 1_555
Lu3 Mo1 3.042442 1_556
Lu3 Mo2 3.064723 1_565
Lu3 Mo0 3.075921 1_555
Lu3 Mo2 3.088776 1_555
B0 B12 1.769164 1_555
B0 B4 1.845862 1_555
B0 B14 1.861902 1_555
B0 Mo1 2.344309 1_655
B0 Mo1 2.344309 1_555
B0 Lu2 2.735251 1_665
B0 Lu2 2.735251 1_565
B0 Lu0 2.774704 1_555
B0 Lu0 2.774704 1_655
B1 B13 1.768788 1_555
B1 B5 1.845145 1_555
B1 B15 1.861457 1_555
B1 Mo2 2.343752 1_555
B1 Mo2 2.343752 1_655
B1 Lu3 2.735312 1_545
B1 Lu3 2.735312 1_645
B1 Lu1 2.774379 1_655
B1 Lu1 2.774379 1_555
B2 B6 1.845388 1_555
B2 Mo3 2.344068 1_555
B2 Mo3 2.344068 1_655
B2 Lu0 2.735140 1_555
B2 Lu0 2.735140 1_655
B2 Lu2 2.774411 1_555
B2 Lu2 2.774411 1_655
B3 B7 1.844965 1_555
B3 Mo0 2.343728 1_655
B3 Mo0 2.343728 1_555
B3 Lu1 2.735153 1_555
B3 Lu1 2.735153 1_655
B3 Lu3 2.774145 1_655
B3 Lu3 2.774145 1_555
B4 B5 1.734521 1_564
B4 Mo1 2.360075 1_555
B4 Mo1 2.360075 1_655
B4 Lu2 2.726536 1_565
B4 Lu2 2.726536 1_665
B4 Lu3 2.742604 1_654
B4 Lu3 2.742604 1_554
B5 Mo2 2.359793 1_655
B5 Mo2 2.359793 1_555
B5 Lu3 2.726143 1_645
B5 Lu3 2.726143 1_545
B5 Lu2 2.743398 1_556
B5 Lu2 2.743398 1_656
B6 B7 1.734496 1_555
B6 B9 1.768028 1_555
B6 Mo3 2.359850 1_555
B6 Mo3 2.359850 1_655
B6 Lu0 2.726332 1_655
B6 Lu0 2.726332 1_555
B6 Lu1 2.742040 1_655
B6 Lu1 2.742040 1_555
B7 B8 1.768091 1_555
B7 Mo0 2.359738 1_655
B7 Mo0 2.359738 1_555
B7 Lu1 2.725774 1_555
B7 Lu1 2.725774 1_655
B7 Lu0 2.742800 1_555
B7 Lu0 2.742800 1_655
B8 B9 1.769875 1_565
B8 Mo3 2.346850 1_565
B8 Mo3 2.346850 1_665
B8 Mo0 2.349124 1_555
B8 Mo0 2.349124 1_655
B8 Lu0 2.623279 1_555
B8 Lu0 2.623279 1_655
B9 Mo0 2.346963 1_645
B9 Mo0 2.346963 1_545
B9 Mo3 2.348846 1_655
B9 Mo3 2.348846 1_555
B9 Lu1 2.623145 1_555
B9 Lu1 2.623145 1_655
B10 B5 1.768004 1_554
B10 B11 1.769970 1_554
B10 B14 1.773983 1_555
B10 Mo1 2.346860 1_555
B10 Mo1 2.346860 1_655
B10 Mo2 2.349276 1_554
B10 Mo2 2.349276 1_654
B10 Lu2 2.623465 1_655
B10 Lu2 2.623465 1_555
B11 B4 1.768345 1_556
B11 B15 1.773477 1_555
B11 Mo2 2.346945 1_555
B11 Mo2 2.346945 1_655
B11 Mo1 2.349083 1_556
B11 Mo1 2.349083 1_656
B11 Lu3 2.623216 1_555
B11 Lu3 2.623216 1_655
B12 B8 1.773487 1_555
B12 B2 1.861598 1_565
B12 Mo3 2.379782 1_565
B12 Mo3 2.379782 1_665
B12 Lu2 2.690824 1_565
B12 Lu2 2.690824 1_665
B12 Lu0 2.795447 1_555
B12 Lu0 2.795447 1_655
B13 B9 1.773354 1_555
B13 B3 1.861476 1_545
B13 Mo0 2.379522 1_645
B13 Mo0 2.379522 1_545
B13 Lu3 2.690333 1_645
B13 Lu3 2.690333 1_545
B13 Lu1 2.795709 1_655
B13 Lu1 2.795709 1_555
B14 B2 1.769442 1_555
B14 Mo1 2.379993 1_555
B14 Mo1 2.379993 1_655
B14 Lu0 2.690738 1_555
B14 Lu0 2.690738 1_655
B14 Lu2 2.795079 1_555
B14 Lu2 2.795079 1_655
B15 B3 1.768828 1_555
B15 Mo2 2.379471 1_555
B15 Mo2 2.379471 1_655
B15 Lu1 2.690460 1_555
B15 Lu1 2.690460 1_655
B15 Lu3 2.795466 1_555
B15 Lu3 2.795466 1_655
Mo0 Mo3 2.477010 1_565
Mo1 Mo2 2.477303 1_554
