# generated using pymatgen
data_Na6ReTc2H27
_symmetry_space_group_name_H-M   'P 1'
_cell_length_a   8.62578694
_cell_length_b   8.62578592
_cell_length_c   5.06240074
_cell_angle_alpha   90.00000000
_cell_angle_beta   90.00000000
_cell_angle_gamma   120.00000391
_symmetry_Int_Tables_number   1
_chemical_formula_structural   Na6ReTc2H27
_chemical_formula_sum   'Na6 Re1 Tc2 H27'
_cell_volume   326.20043632
_cell_formula_units_Z   1
loop_
 _symmetry_equiv_pos_site_id
 _symmetry_equiv_pos_as_xyz
  1  'x, y, z'
loop_
 _atom_site_type_symbol
 _atom_site_label
 _atom_site_symmetry_multiplicity
 _atom_site_fract_x
 _atom_site_fract_y
 _atom_site_fract_z
 _atom_site_occupancy
  Na  Na0  1  0.99946759  0.26542277  0.50000000  1
  Na  Na1  1  0.73457723  0.73404482  0.50000000  1
  Na  Na2  1  0.26595518  0.00053241  0.50000000  1
  Na  Na3  1  0.99831296  0.60055416  0.00000000  1
  Na  Na4  1  0.39944584  0.39775880  0.00000000  1
  Na  Na5  1  0.60224120  0.00168704  0.00000000  1
  Re  Re0  1  0.33333300  0.66666700  0.50000000  1
  Tc  Tc0  1  0.66666700  0.33333300  0.50000000  1
  Tc  Tc1  1  0.00000000  0.00000000  0.00000000  1
  H  H0  1  0.79775727  0.32347056  0.73769115  1
  H  H1  1  0.67652944  0.47428570  0.73769115  1
  H  H2  1  0.52571430  0.20224273  0.73769115  1
  H  H3  1  0.19844221  0.52646583  0.25934001  1
  H  H4  1  0.52571430  0.20224273  0.26230885  1
  H  H5  1  0.79775727  0.32347056  0.26230885  1
  H  H6  1  0.67652944  0.47428570  0.26230885  1
  H  H7  1  0.32802262  0.80155779  0.74065999  1
  H  H8  1  0.47353417  0.67197738  0.74065999  1
  H  H9  1  0.19163982  0.00067251  0.00000000  1
  H  H10  1  0.80903369  0.80836018  0.00000000  1
  H  H11  1  0.99932749  0.19096631  0.00000000  1
  H  H12  1  0.86108485  0.99947626  0.23253677  1
  H  H13  1  0.13839041  0.13891515  0.76746323  1
  H  H14  1  0.00052374  0.86160959  0.76746323  1
  H  H15  1  0.00052374  0.86160959  0.23253677  1
  H  H16  1  0.13839041  0.13891515  0.23253677  1
  H  H17  1  0.86108485  0.99947626  0.76746323  1
  H  H18  1  0.13688231  0.65985869  0.50000000  1
  H  H19  1  0.52297638  0.86311769  0.50000000  1
  H  H20  1  0.34014131  0.47702362  0.50000000  1
  H  H21  1  0.48286321  0.34610856  0.50000000  1
  H  H22  1  0.86324635  0.51713679  0.50000000  1
  H  H23  1  0.65389144  0.13675365  0.50000000  1
  H  H24  1  0.19844221  0.52646583  0.74065999  1
  H  H25  1  0.32802262  0.80155779  0.25934001  1
  H  H26  1  0.47353417  0.67197738  0.25934001  1
loop_
_geom_bond_atom_site_label_1
_geom_bond_atom_site_label_2
_geom_bond_distance
_geom_bond_site_symmetry_2
H0 Tc0 1.682244 1_555
H0 Na0 2.365816 1_555
H0 Na3 2.516703 1_556
H1 Tc0 1.682244 1_555
H1 Na1 2.365823 1_555
H1 Na4 2.516705 1_556
H2 Tc0 1.682244 1_555
H2 Na2 2.365821 1_555
H2 Na5 2.516698 1_556
H3 Re0 1.701034 1_555
H3 Na0 2.373934 1_455
H3 Na3 2.493050 1_455
H4 Tc0 1.682244 1_555
H4 Na2 2.365821 1_555
H4 Na5 2.516698 1_555
H5 Tc0 1.682244 1_555
H5 Na0 2.365816 1_555
H5 Na3 2.516703 1_555
H6 Tc0 1.682244 1_555
H6 Na1 2.365823 1_555
H6 Na4 2.516705 1_555
H7 Re0 1.701034 1_555
H7 Na2 2.373929 1_565
H7 Na5 2.493055 1_566
H8 Re0 1.701034 1_555
H8 Na1 2.373936 1_555
H8 Na4 2.493057 1_556
H9 Tc1 1.650151 1_555
H9 Na2 2.611258 1_554
H9 Na2 2.611258 1_555
H10 Tc1 1.650147 1_665
H10 Na1 2.611259 1_555
H10 Na1 2.611259 1_554
H11 Tc1 1.650143 1_655
H11 Na0 2.611260 1_554
H11 Na0 2.611260 1_555
H12 Tc1 1.678155 1_665
H12 Na1 2.401613 1_555
H12 Na0 2.404647 1_565
H12 Na5 2.532550 1_565
H13 Tc1 1.678151 1_556
H13 Na0 2.401607 1_455
H13 Na2 2.404654 1_555
H13 Na4 2.532554 1_556
H14 Tc1 1.678148 1_566
H14 Na2 2.401613 1_565
H14 Na1 2.404647 1_455
H14 Na3 2.532558 1_456
H15 Tc1 1.678148 1_565
H15 Na2 2.401613 1_565
H15 Na1 2.404647 1_455
H15 Na3 2.532558 1_455
H16 Tc1 1.678151 1_555
H16 Na0 2.401607 1_455
H16 Na2 2.404654 1_555
H16 Na4 2.532554 1_555
H17 Tc1 1.678155 1_666
H17 Na1 2.401613 1_555
H17 Na0 2.404647 1_565
H17 Na5 2.532550 1_566
H18 Re0 1.665955 1_555
H18 Na2 2.569654 1_565
H19 Re0 1.665959 1_555
H19 Na1 2.569654 1_555
H20 Re0 1.665963 1_555
H20 Na0 2.569654 1_455
H21 Tc0 1.643325 1_555
H21 Na2 2.609407 1_555
H22 Tc0 1.643325 1_555
H22 Na1 2.609414 1_555
H23 Tc0 1.643325 1_555
H23 Na0 2.609406 1_555
H24 Re0 1.701034 1_555
H24 Na0 2.373934 1_455
H24 Na3 2.493050 1_456
H25 Re0 1.701034 1_555
H25 Na2 2.373929 1_565
H25 Na5 2.493055 1_565
H26 Re0 1.701034 1_555
H26 Na1 2.373936 1_555
H26 Na4 2.493057 1_555
