# generated using pymatgen
data_RbGa3Se5
_symmetry_space_group_name_H-M   'P 1'
_cell_length_a   13.37222320
_cell_length_b   7.53529248
_cell_length_c   10.90072164
_cell_angle_alpha   76.53457486
_cell_angle_beta   90.00000000
_cell_angle_gamma   90.00000000
_symmetry_Int_Tables_number   1
_chemical_formula_structural   RbGa3Se5
_chemical_formula_sum   'Rb4 Ga12 Se20'
_cell_volume   1068.20186209
_cell_formula_units_Z   4
loop_
 _symmetry_equiv_pos_site_id
 _symmetry_equiv_pos_as_xyz
  1  'x, y, z'
loop_
 _atom_site_type_symbol
 _atom_site_label
 _atom_site_symmetry_multiplicity
 _atom_site_fract_x
 _atom_site_fract_y
 _atom_site_fract_z
 _atom_site_occupancy
  Rb  Rb0  1  0.61725773  0.83843590  0.38773454  1
  Rb  Rb1  1  0.11725773  0.16156410  0.11226546  1
  Rb  Rb2  1  0.38274227  0.16156410  0.61226546  1
  Rb  Rb3  1  0.88274227  0.83843590  0.88773454  1
  Ga  Ga0  1  0.91996421  0.79906951  0.39954256  1
  Ga  Ga1  1  0.58003579  0.79906951  0.89954256  1
  Ga  Ga2  1  0.41996421  0.20093049  0.10045744  1
  Ga  Ga3  1  0.39843328  0.56082348  0.80452291  1
  Ga  Ga4  1  0.10156672  0.56082348  0.30452291  1
  Ga  Ga5  1  0.33568399  0.70856479  0.12500866  1
  Ga  Ga6  1  0.60156672  0.43917652  0.19547709  1
  Ga  Ga7  1  0.08003579  0.20093049  0.60045744  1
  Ga  Ga8  1  0.66431601  0.29143521  0.87499134  1
  Ga  Ga9  1  0.89843328  0.43917652  0.69547709  1
  Ga  Ga10  1  0.16431601  0.70856479  0.62500866  1
  Ga  Ga11  1  0.83568399  0.29143521  0.37499134  1
  Se  Se0  1  0.82814166  0.71912629  0.58881171  1
  Se  Se1  1  0.10350302  0.81483368  0.40920443  1
  Se  Se2  1  0.67185834  0.71912629  0.08881171  1
  Se  Se3  1  0.39649698  0.81483368  0.90920443  1
  Se  Se4  1  0.32814166  0.28087371  0.91118829  1
  Se  Se5  1  0.66181386  0.34405931  0.40596051  1
  Se  Se6  1  0.58141253  0.57401842  0.76392126  1
  Se  Se7  1  0.60350302  0.18516632  0.09079557  1
  Se  Se8  1  0.89649698  0.18516632  0.59079557  1
  Se  Se9  1  0.63502487  0.06848148  0.75425469  1
  Se  Se10  1  0.36497513  0.93151852  0.24574531  1
  Se  Se11  1  0.17185834  0.28087371  0.41118829  1
  Se  Se12  1  0.08141253  0.42598158  0.73607874  1
  Se  Se13  1  0.91858747  0.57401842  0.26392126  1
  Se  Se14  1  0.86497513  0.06848148  0.25425469  1
  Se  Se15  1  0.13502487  0.93151852  0.74574531  1
  Se  Se16  1  0.83818614  0.34405931  0.90596051  1
  Se  Se17  1  0.33818614  0.65594069  0.59403949  1
  Se  Se18  1  0.41858747  0.42598158  0.23607874  1
  Se  Se19  1  0.16181386  0.65594069  0.09403949  1
loop_
_geom_bond_atom_site_label_1
_geom_bond_atom_site_label_2
_geom_bond_distance
_geom_bond_site_symmetry_2
Rb0 Se0 3.556293 1_555
Rb0 Se2 3.650112 1_555
Rb0 Se7 3.660430 1_565
Rb0 Se10 3.709859 1_555
Rb0 Se5 3.731947 1_555
Rb0 Se14 3.862669 1_565
Rb0 Se5 3.906821 1_565
Rb1 Se4 3.556293 1_554
Rb1 Se11 3.650112 1_555
Rb1 Se1 3.660430 1_545
Rb1 Se14 3.709859 1_455
Rb1 Se19 3.731947 1_555
Rb1 Se10 3.862669 1_545
Rb1 Se19 3.906821 1_545
Rb2 Se11 3.556293 1_555
Rb2 Se4 3.650112 1_555
Rb2 Se3 3.660430 1_545
Rb2 Se9 3.709859 1_555
Rb2 Se17 3.731947 1_555
Rb2 Se15 3.862669 1_545
Rb2 Se17 3.906821 1_545
Rb3 Se2 3.556293 1_556
Rb3 Se0 3.650112 1_555
Rb3 Se8 3.660430 1_565
Rb3 Se15 3.709859 1_655
Rb3 Se16 3.731947 1_555
Rb3 Se9 3.862669 1_565
Rb3 Se16 3.906821 1_565
Ga0 Se0 2.355506 1_555
Ga0 Se14 2.381783 1_565
Ga0 Se1 2.460635 1_655
Ga0 Se13 2.495861 1_555
Ga1 Se2 2.355506 1_556
Ga1 Se9 2.381783 1_565
Ga1 Se3 2.460635 1_555
Ga1 Se6 2.495861 1_555
Ga2 Se4 2.355506 1_554
Ga2 Se10 2.381783 1_545
Ga2 Se7 2.460635 1_555
Ga2 Se18 2.495861 1_555
Ga3 Se4 2.354391 1_555
Ga3 Se17 2.379341 1_555
Ga3 Se3 2.446124 1_555
Ga3 Se6 2.484411 1_555
Ga4 Se11 2.354391 1_555
Ga4 Se19 2.379341 1_555
Ga4 Se1 2.446124 1_555
Ga4 Se13 2.484411 1_455
Ga5 Se10 2.395371 1_555
Ga5 Se19 2.395687 1_555
Ga5 Se3 2.441133 1_554
Ga5 Se18 2.455272 1_555
Ga6 Se2 2.354391 1_555
Ga6 Se5 2.379341 1_555
Ga6 Se7 2.446124 1_555
Ga6 Se18 2.484411 1_555
Ga7 Se11 2.355506 1_555
Ga7 Se15 2.381783 1_545
Ga7 Se8 2.460635 1_455
Ga7 Se12 2.495861 1_555
Ga8 Se9 2.395371 1_555
Ga8 Se16 2.395687 1_555
Ga8 Se7 2.441133 1_556
Ga8 Se6 2.455272 1_555
Ga9 Se0 2.354391 1_555
Ga9 Se16 2.379341 1_555
Ga9 Se8 2.446124 1_555
Ga9 Se12 2.484411 1_655
Ga10 Se15 2.395371 1_555
Ga10 Se17 2.395687 1_555
Ga10 Se1 2.441133 1_555
Ga10 Se12 2.455272 1_555
Ga11 Se14 2.395371 1_555
Ga11 Se5 2.395687 1_555
Ga11 Se8 2.441133 1_555
Ga11 Se13 2.455272 1_555
