# generated using pymatgen
data_Nb12Zn11NiC4
_symmetry_space_group_name_H-M   'P 1'
_cell_length_a   8.29950885
_cell_length_b   8.29950919
_cell_length_c   8.29950972
_cell_angle_alpha   59.77122006
_cell_angle_beta   59.77121754
_cell_angle_gamma   59.77122146
_symmetry_Int_Tables_number   1
_chemical_formula_structural   Nb12Zn11NiC4
_chemical_formula_sum   'Nb12 Zn11 Ni1 C4'
_cell_volume   402.14293948
_cell_formula_units_Z   1
loop_
 _symmetry_equiv_pos_site_id
 _symmetry_equiv_pos_as_xyz
  1  'x, y, z'
loop_
 _atom_site_type_symbol
 _atom_site_label
 _atom_site_symmetry_multiplicity
 _atom_site_fract_x
 _atom_site_fract_y
 _atom_site_fract_z
 _atom_site_occupancy
  Nb  Nb0  1  0.81559915  0.81559915  0.18926309  1
  Nb  Nb1  1  0.18191180  0.18191180  0.81773314  1
  Nb  Nb2  1  0.81559915  0.18926309  0.81559915  1
  Nb  Nb3  1  0.18191180  0.81773314  0.18191180  1
  Nb  Nb4  1  0.18926309  0.81559915  0.81559915  1
  Nb  Nb5  1  0.81773314  0.18191180  0.18191180  1
  Nb  Nb6  1  0.43440085  0.43440085  0.06073691  1
  Nb  Nb7  1  0.06808820  0.06808820  0.43226686  1
  Nb  Nb8  1  0.43440085  0.06073691  0.43440085  1
  Nb  Nb9  1  0.06808820  0.43226686  0.06808820  1
  Nb  Nb10  1  0.06073691  0.43440085  0.43440085  1
  Nb  Nb11  1  0.43226686  0.06808820  0.06808820  1
  Zn  Zn0  1  0.12500000  0.62500000  0.62500000  1
  Zn  Zn1  1  0.62500000  0.12500000  0.62500000  1
  Zn  Zn2  1  0.62500000  0.62500000  0.12500000  1
  Zn  Zn3  1  0.74191995  0.42222746  0.42222746  1
  Zn  Zn4  1  0.42222746  0.74191995  0.42222746  1
  Zn  Zn5  1  0.42222746  0.42222746  0.74191995  1
  Zn  Zn6  1  0.41603221  0.41603221  0.41603221  1
  Zn  Zn7  1  0.50808005  0.82777254  0.82777254  1
  Zn  Zn8  1  0.82777254  0.50808005  0.82777254  1
  Zn  Zn9  1  0.82777254  0.82777254  0.50808005  1
  Zn  Zn10  1  0.83396779  0.83396779  0.83396779  1
  Ni  Ni0  1  0.62500000  0.62500000  0.62500000  1
  C  C0  1  0.62500000  0.12500000  0.12500000  1
  C  C1  1  0.12500000  0.62500000  0.12500000  1
  C  C2  1  0.12500000  0.12500000  0.62500000  1
  C  C3  1  0.12500000  0.12500000  0.12500000  1
loop_
_geom_bond_atom_site_label_1
_geom_bond_atom_site_label_2
_geom_bond_distance
_geom_bond_site_symmetry_2
Nb0 Zn9 2.751455 1_555
Nb0 Zn10 2.803546 1_554
Nb0 Ni0 3.013672 1_555
Nb0 Zn4 3.038890 1_555
Nb0 Zn3 3.038890 1_555
Nb0 Zn2 3.083477 1_555
Nb1 Zn8 2.818309 1_455
Nb1 Zn7 2.818309 1_545
Nb1 Zn1 3.064957 1_555
Nb1 Zn0 3.064957 1_555
Nb1 Zn6 3.069554 1_555
Nb1 Zn5 3.135320 1_555
Nb2 Zn8 2.751455 1_555
Nb2 Zn10 2.803546 1_545
Nb2 Ni0 3.013672 1_555
Nb2 Zn5 3.038890 1_555
Nb2 Zn3 3.038890 1_555
Nb2 Zn1 3.083477 1_555
Nb3 Zn9 2.818309 1_455
Nb3 Zn7 2.818309 1_554
Nb3 Zn2 3.064957 1_555
Nb3 Zn0 3.064957 1_555
Nb3 Zn6 3.069554 1_555
Nb3 Zn4 3.135321 1_555
Nb4 Zn7 2.751455 1_555
Nb4 Zn10 2.803546 1_455
Nb4 Ni0 3.013672 1_555
Nb4 Zn5 3.038890 1_555
Nb4 Zn4 3.038890 1_555
Nb4 Zn0 3.083477 1_555
Nb5 Zn9 2.818309 1_545
Nb5 Zn8 2.818309 1_554
Nb5 Zn2 3.064957 1_555
Nb5 Zn1 3.064957 1_555
Nb5 Zn6 3.069554 1_555
Nb5 Zn3 3.135321 1_555
Nb6 Zn5 2.751455 1_554
Nb6 Zn6 2.803546 1_555
Nb6 Ni0 3.013672 1_554
Nb6 Zn8 3.038890 1_554
Nb6 Zn7 3.038890 1_554
Nb6 Zn2 3.083477 1_555
Nb7 Zn4 2.818309 1_545
Nb7 Zn3 2.818309 1_455
Nb7 Zn1 3.064957 1_455
Nb7 Zn0 3.064957 1_545
Nb7 Zn10 3.069554 1_445
Nb7 Zn9 3.135320 1_445
Nb8 Zn4 2.751455 1_545
Nb8 Zn6 2.803546 1_555
Nb8 Ni0 3.013672 1_545
Nb8 Zn9 3.038890 1_545
Nb8 Zn7 3.038890 1_545
Nb8 Zn1 3.083477 1_555
Nb9 Zn5 2.818309 1_554
Nb9 Zn3 2.818309 1_455
Nb9 Zn2 3.064957 1_455
Nb9 Zn0 3.064957 1_554
Nb9 Zn10 3.069554 1_454
Nb9 Zn8 3.135321 1_454
Nb10 Zn3 2.751455 1_455
Nb10 Zn6 2.803546 1_555
Nb10 Ni0 3.013672 1_455
Nb10 Zn9 3.038890 1_455
Nb10 Zn8 3.038890 1_455
Nb10 Zn0 3.083477 1_555
Nb11 Zn5 2.818309 1_554
Nb11 Zn4 2.818309 1_545
Nb11 Zn2 3.064957 1_545
Nb11 Zn1 3.064957 1_554
Nb11 Zn10 3.069554 1_544
Nb11 Zn7 3.135321 1_544
Zn0 Zn10 2.538226 1_455
Zn0 Zn6 2.538226 1_555
Zn0 Zn4 2.538689 1_555
Zn0 Zn8 2.538689 1_455
Zn0 Zn5 2.538689 1_555
Zn0 Zn9 2.538689 1_455
Zn1 Zn10 2.538226 1_545
Zn1 Zn6 2.538226 1_555
Zn1 Zn3 2.538689 1_555
Zn1 Zn7 2.538689 1_545
Zn1 Zn5 2.538689 1_555
Zn1 Zn9 2.538689 1_545
Zn2 Zn6 2.538226 1_555
Zn2 Zn4 2.538689 1_555
Zn2 Zn8 2.538689 1_554
Zn2 Zn3 2.538689 1_555
Zn2 Zn7 2.538689 1_554
Zn3 Zn5 2.644110 1_555
Zn3 Zn4 2.644110 1_555
Zn3 Zn6 2.757437 1_555
Zn4 Zn5 2.644110 1_555
Zn4 Zn6 2.757437 1_555
Zn5 Zn6 2.757437 1_555
Zn7 Zn9 2.644110 1_555
Zn7 Zn8 2.644110 1_555
Zn8 Zn9 2.644110 1_555
Zn10 Zn2 2.538226 1_556
Zn10 Zn7 2.757437 1_555
Zn10 Zn8 2.757437 1_555
Zn10 Zn9 2.757437 1_555
Ni0 Zn9 2.483767 1_555
Ni0 Zn5 2.483767 1_555
Ni0 Zn8 2.483767 1_555
Ni0 Zn4 2.483767 1_555
Ni0 Zn7 2.483767 1_555
Ni0 Zn3 2.483767 1_555
C0 Nb5 2.179699 1_555
C0 Nb11 2.179699 1_555
C0 Nb8 2.182005 1_555
C0 Nb2 2.182005 1_554
C0 Nb6 2.182005 1_555
C0 Nb0 2.182005 1_545
C1 Nb3 2.179699 1_555
C1 Nb9 2.179699 1_555
C1 Nb6 2.182005 1_555
C1 Nb0 2.182005 1_455
C1 Nb4 2.182005 1_554
C1 Nb10 2.182005 1_555
C2 Nb1 2.179699 1_555
C2 Nb7 2.179699 1_555
C2 Nb8 2.182005 1_555
C2 Nb2 2.182005 1_455
C2 Nb4 2.182005 1_545
C2 Nb10 2.182005 1_555
C3 Nb11 2.179097 1_555
C3 Nb5 2.179097 1_455
C3 Nb9 2.179097 1_555
C3 Nb3 2.179097 1_545
C3 Nb7 2.179097 1_555
C3 Nb1 2.179097 1_554
