# generated using pymatgen
data_YLu(SiTc2)4
_symmetry_space_group_name_H-M   'P 1'
_cell_length_a   7.26729669
_cell_length_b   7.26729662
_cell_length_c   4.13829745
_cell_angle_alpha   90.00000000
_cell_angle_beta   90.00000000
_cell_angle_gamma   90.95480576
_symmetry_Int_Tables_number   1
_chemical_formula_structural   YLu(SiTc2)4
_chemical_formula_sum   'Y1 Lu1 Si4 Tc8'
_cell_volume   218.52804271
_cell_formula_units_Z   1
loop_
 _symmetry_equiv_pos_site_id
 _symmetry_equiv_pos_as_xyz
  1  'x, y, z'
loop_
 _atom_site_type_symbol
 _atom_site_label
 _atom_site_symmetry_multiplicity
 _atom_site_fract_x
 _atom_site_fract_y
 _atom_site_fract_z
 _atom_site_occupancy
  Y  Y0  1  0.00000000  0.00000000  0.50000000  1
  Lu  Lu0  1  0.50000000  0.50000000  0.00000000  1
  Si  Si0  1  0.21169664  0.78830336  0.00000000  1
  Si  Si1  1  0.78830336  0.21169664  0.00000000  1
  Si  Si2  1  0.70615177  0.70615177  0.50000000  1
  Si  Si3  1  0.29384823  0.29384823  0.50000000  1
  Tc  Tc0  1  0.65202113  0.90115490  0.00000000  1
  Tc  Tc1  1  0.15801938  0.59197980  0.50000000  1
  Tc  Tc2  1  0.09884510  0.34797887  0.00000000  1
  Tc  Tc3  1  0.90115490  0.65202113  0.00000000  1
  Tc  Tc4  1  0.40802020  0.84198062  0.50000000  1
  Tc  Tc5  1  0.59197980  0.15801938  0.50000000  1
  Tc  Tc6  1  0.34797887  0.09884510  0.00000000  1
  Tc  Tc7  1  0.84198062  0.40802020  0.50000000  1
loop_
_geom_bond_atom_site_label_1
_geom_bond_atom_site_label_2
_geom_bond_distance
_geom_bond_site_symmetry_2
Lu0 Si2 2.948826 1_554
Lu0 Si2 2.948826 1_555
Lu0 Si3 2.948826 1_555
Lu0 Si3 2.948826 1_554
Lu0 Si0 2.987626 1_555
Lu0 Si1 2.987626 1_555
Lu0 Tc6 3.100362 1_555
Lu0 Tc0 3.100362 1_555
Lu0 Tc3 3.100362 1_555
Lu0 Tc2 3.100362 1_555
Lu0 Tc4 3.310612 1_555
Lu0 Tc4 3.310612 1_554
Lu0 Tc5 3.310612 1_554
Lu0 Tc5 3.310612 1_555
Lu0 Tc7 3.310612 1_555
Lu0 Tc7 3.310612 1_554
Lu0 Tc1 3.310612 1_555
Lu0 Tc1 3.310612 1_554
Si0 Tc6 2.449398 1_565
Si0 Tc3 2.449398 1_455
Si0 Tc1 2.539801 1_555
Si0 Tc1 2.539801 1_554
Si0 Tc4 2.539801 1_555
Si0 Tc4 2.539801 1_554
Si0 Y0 3.015624 1_565
Si0 Y0 3.015624 1_564
Si1 Tc0 2.449398 1_545
Si1 Tc2 2.449398 1_655
Si1 Tc7 2.539801 1_555
Si1 Tc7 2.539801 1_554
Si1 Tc5 2.539801 1_555
Si1 Tc5 2.539801 1_554
Si1 Y0 3.015624 1_655
Si1 Y0 3.015624 1_654
Si2 Tc7 2.395801 1_555
Si2 Tc4 2.395801 1_555
Si2 Tc0 2.542245 1_555
Si2 Tc0 2.542245 1_556
Si2 Tc3 2.542245 1_555
Si2 Tc3 2.542245 1_556
Si2 Y0 2.994760 1_665
Si3 Tc1 2.395801 1_555
Si3 Tc5 2.395801 1_555
Si3 Tc6 2.542245 1_556
Si3 Tc6 2.542245 1_555
Si3 Tc2 2.542245 1_556
Si3 Tc2 2.542245 1_555
Si3 Y0 2.994760 1_555
Tc0 Tc3 2.581720 1_555
Tc0 Tc6 2.655561 1_565
Tc0 Tc4 2.754129 1_554
Tc0 Tc4 2.754129 1_555
Tc0 Tc5 2.825512 1_565
Tc0 Tc5 2.825512 1_564
Tc0 Y0 3.336466 1_664
Tc0 Y0 3.336466 1_665
Tc1 Tc4 2.547888 1_555
Tc1 Tc7 2.638179 1_455
Tc1 Tc2 2.754129 1_556
Tc1 Tc2 2.754129 1_555
Tc1 Tc3 2.825512 1_456
Tc1 Tc3 2.825512 1_455
Tc1 Y0 3.197606 1_565
Tc2 Tc6 2.581720 1_555
Tc2 Tc3 2.655561 1_455
Tc2 Tc7 2.825512 1_455
Tc2 Tc7 2.825512 1_454
Tc2 Y0 3.336466 1_554
Tc2 Y0 3.336466 1_555
Tc3 Tc7 2.754129 1_555
Tc3 Tc7 2.754129 1_554
Tc3 Y0 3.336466 1_664
Tc3 Y0 3.336466 1_665
Tc4 Tc5 2.638179 1_565
Tc4 Tc6 2.825512 1_566
Tc4 Tc6 2.825512 1_565
Tc4 Y0 3.197606 1_565
Tc5 Tc7 2.547888 1_555
Tc5 Tc6 2.754129 1_555
Tc5 Tc6 2.754129 1_556
Tc5 Y0 3.197606 1_655
Tc6 Y0 3.336466 1_555
Tc6 Y0 3.336466 1_554
Tc7 Y0 3.197606 1_655
