# generated using pymatgen
data_HgOsF7
_symmetry_space_group_name_H-M   'P 1'
_cell_length_a   10.31665501
_cell_length_b   7.14888374
_cell_length_c   8.01434790
_cell_angle_alpha   76.41767898
_cell_angle_beta   90.00000000
_cell_angle_gamma   90.00000000
_symmetry_Int_Tables_number   1
_chemical_formula_structural   HgOsF7
_chemical_formula_sum   'Hg4 Os4 F28'
_cell_volume   574.54833462
_cell_formula_units_Z   4
loop_
 _symmetry_equiv_pos_site_id
 _symmetry_equiv_pos_as_xyz
  1  'x, y, z'
loop_
 _atom_site_type_symbol
 _atom_site_label
 _atom_site_symmetry_multiplicity
 _atom_site_fract_x
 _atom_site_fract_y
 _atom_site_fract_z
 _atom_site_occupancy
  Hg  Hg0  1  0.24314138  0.26950846  0.92068698  1
  Hg  Hg1  1  0.74314138  0.73049154  0.57931302  1
  Hg  Hg2  1  0.75685862  0.73049154  0.07931302  1
  Hg  Hg3  1  0.25685862  0.26950846  0.42068698  1
  Os  Os0  1  0.55873261  0.19799333  0.19847928  1
  Os  Os1  1  0.05873261  0.80200667  0.30152072  1
  Os  Os2  1  0.44126739  0.80200667  0.80152072  1
  Os  Os3  1  0.94126739  0.19799333  0.69847928  1
  F  F0  1  0.70697655  0.35829184  0.14250454  1
  F  F1  1  0.20697655  0.64170816  0.35749546  1
  F  F2  1  0.29302345  0.64170816  0.85749546  1
  F  F3  1  0.79302345  0.35829184  0.64250454  1
  F  F4  1  0.63904627  0.06014591  0.40275061  1
  F  F5  1  0.13904627  0.93985409  0.09724939  1
  F  F6  1  0.36095373  0.93985409  0.59724939  1
  F  F7  1  0.86095373  0.06014591  0.90275061  1
  F  F8  1  0.47457346  0.32513373  0.99059535  1
  F  F9  1  0.97457346  0.67486627  0.50940465  1
  F  F10  1  0.52542654  0.67486627  0.00940465  1
  F  F11  1  0.02542654  0.32513373  0.49059535  1
  F  F12  1  0.40414831  0.05161506  0.25334782  1
  F  F13  1  0.90414831  0.94838494  0.24665218  1
  F  F14  1  0.59585169  0.94838494  0.74665218  1
  F  F15  1  0.09585169  0.05161506  0.75334782  1
  F  F16  1  0.62834007  0.02140056  0.07850634  1
  F  F17  1  0.12834007  0.97859944  0.42149366  1
  F  F18  1  0.37165993  0.97859944  0.92149366  1
  F  F19  1  0.87165993  0.02140056  0.57850634  1
  F  F20  1  0.48259316  0.37215330  0.31793517  1
  F  F21  1  0.98259316  0.62784670  0.18206483  1
  F  F22  1  0.51740684  0.62784670  0.68206483  1
  F  F23  1  0.01740684  0.37215330  0.81793517  1
  F  F24  1  0.19092369  0.31941310  0.16142603  1
  F  F25  1  0.69092369  0.68058690  0.33857397  1
  F  F26  1  0.80907631  0.68058690  0.83857397  1
  F  F27  1  0.30907631  0.31941310  0.66142603  1
loop_
_geom_bond_atom_site_label_1
_geom_bond_atom_site_label_2
_geom_bond_distance
_geom_bond_site_symmetry_2
F0 Os0 1.900529 1_555
F1 Os1 1.900529 1_555
F2 Os2 1.900529 1_555
F3 Os3 1.900529 1_555
F4 Os0 1.892092 1_555
F5 Os1 1.892092 1_555
F6 Os2 1.892092 1_555
F7 Os3 1.892092 1_555
F8 Os0 1.909046 1_556
F8 Hg0 2.505461 1_555
F9 Os1 1.909046 1_655
F9 Hg1 2.505461 1_555
F10 Os2 1.909046 1_554
F10 Hg2 2.505461 1_555
F11 Os3 1.909046 1_455
F11 Hg3 2.505461 1_555
F12 Os0 1.901484 1_555
F13 Os1 1.901484 1_655
F14 Os2 1.901484 1_555
F15 Os3 1.901484 1_455
F16 Os0 1.898437 1_555
F16 Hg2 2.465104 1_545
F17 Os1 1.898437 1_555
F17 Hg3 2.465104 1_565
F18 Os2 1.898437 1_555
F18 Hg0 2.465104 1_565
F19 Os3 1.898437 1_555
F19 Hg1 2.465104 1_545
F20 Os0 1.908809 1_555
F20 Hg3 2.521151 1_555
F21 Os1 1.908809 1_655
F21 Hg2 2.521151 1_555
F22 Os2 1.908809 1_555
F22 Hg1 2.521151 1_555
F23 Os3 1.908809 1_455
F23 Hg0 2.521151 1_555
F24 Hg0 2.112638 1_554
F24 Hg3 2.135206 1_555
F25 Hg1 2.112638 1_555
F25 Hg2 2.135206 1_555
F26 Hg2 2.112638 1_556
F26 Hg1 2.135206 1_555
F27 Hg3 2.112638 1_555
F27 Hg0 2.135206 1_555
