# generated using pymatgen
data_Zr2TaMo3
_symmetry_space_group_name_H-M   'P 1'
_cell_length_a   5.46977802
_cell_length_b   5.46977849
_cell_length_c   5.46977738
_cell_angle_alpha   58.82195606
_cell_angle_beta   58.82195339
_cell_angle_gamma   58.82196229
_symmetry_Int_Tables_number   1
_chemical_formula_structural   Zr2TaMo3
_chemical_formula_sum   'Zr2 Ta1 Mo3'
_cell_volume   112.60347831
_cell_formula_units_Z   1
loop_
 _symmetry_equiv_pos_site_id
 _symmetry_equiv_pos_as_xyz
  1  'x, y, z'
loop_
 _atom_site_type_symbol
 _atom_site_label
 _atom_site_symmetry_multiplicity
 _atom_site_fract_x
 _atom_site_fract_y
 _atom_site_fract_z
 _atom_site_occupancy
  Zr  Zr0  1  0.74898903  0.74898903  0.74898903  1
  Zr  Zr1  1  0.50101097  0.50101097  0.50101097  1
  Ta  Ta0  1  0.12500000  0.12500000  0.12500000  1
  Mo  Mo0  1  0.12500000  0.62500000  0.12500000  1
  Mo  Mo1  1  0.12500000  0.12500000  0.62500000  1
  Mo  Mo2  1  0.62500000  0.12500000  0.12500000  1
loop_
_geom_bond_atom_site_label_1
_geom_bond_atom_site_label_2
_geom_bond_distance
_geom_bond_site_symmetry_2
Zr0 Zr1 3.309196 1_556
Zr0 Zr1 3.309196 1_655
Zr0 Zr1 3.309197 1_565
Zr0 Zr1 3.351724 1_555
Ta0 Zr1 3.154765 1_554
Ta0 Zr0 3.154765 1_445
Ta0 Zr1 3.154766 1_455
Ta0 Zr0 3.154766 1_544
Ta0 Zr1 3.154766 1_545
Ta0 Zr0 3.154766 1_454
Mo0 Mo1 2.686048 1_555
Mo0 Mo1 2.686048 1_564
Mo0 Mo2 2.686048 1_555
Mo0 Mo2 2.686048 1_465
Mo0 Ta0 2.734889 1_555
Mo0 Ta0 2.734889 1_565
Mo0 Zr0 3.165970 1_455
Mo0 Zr1 3.165970 1_554
Mo0 Zr0 3.165970 1_554
Mo0 Zr1 3.165970 1_455
Mo0 Zr1 3.226648 1_555
Mo0 Zr0 3.226648 1_454
Mo1 Mo2 2.686047 1_555
Mo1 Mo2 2.686047 1_456
Mo1 Ta0 2.734889 1_555
Mo1 Ta0 2.734889 1_556
Mo1 Zr0 3.165970 1_545
Mo1 Zr1 3.165970 1_455
Mo1 Zr0 3.165970 1_455
Mo1 Zr1 3.165970 1_545
Mo1 Zr1 3.226648 1_555
Mo1 Zr0 3.226648 1_445
Mo2 Ta0 2.734889 1_555
Mo2 Ta0 2.734889 1_655
Mo2 Zr0 3.165970 1_545
Mo2 Zr1 3.165970 1_554
Mo2 Zr0 3.165970 1_554
Mo2 Zr1 3.165970 1_545
Mo2 Zr1 3.226648 1_555
Mo2 Zr0 3.226648 1_544
