# generated using pymatgen
data_Nb6Zn6CN
_symmetry_space_group_name_H-M   'P 1'
_cell_length_a   8.28414378
_cell_length_b   8.28414310
_cell_length_c   8.26330391
_cell_angle_alpha   60.08318284
_cell_angle_beta   60.08318557
_cell_angle_gamma   60.17083666
_symmetry_Int_Tables_number   1
_chemical_formula_structural   Nb6Zn6CN
_chemical_formula_sum   'Nb12 Zn12 C2 N2'
_cell_volume   402.01091756
_cell_formula_units_Z   2
loop_
 _symmetry_equiv_pos_site_id
 _symmetry_equiv_pos_as_xyz
  1  'x, y, z'
loop_
 _atom_site_type_symbol
 _atom_site_label
 _atom_site_symmetry_multiplicity
 _atom_site_fract_x
 _atom_site_fract_y
 _atom_site_fract_z
 _atom_site_occupancy
  Nb  Nb0  1  0.68016264  0.31913468  0.31784390  1
  Nb  Nb1  1  0.31913468  0.68016264  0.68285877  1
  Nb  Nb2  1  0.31913468  0.68016264  0.31784390  1
  Nb  Nb3  1  0.31744574  0.31744574  0.68255426  1
  Nb  Nb4  1  0.68016264  0.31913468  0.68285877  1
  Nb  Nb5  1  0.68032048  0.68032048  0.31967952  1
  Nb  Nb6  1  0.93086532  0.56983736  0.93215610  1
  Nb  Nb7  1  0.56983736  0.93086532  0.56714123  1
  Nb  Nb8  1  0.56983736  0.93086532  0.93215610  1
  Nb  Nb9  1  0.93255426  0.93255426  0.56744574  1
  Nb  Nb10  1  0.93086532  0.56983736  0.56714123  1
  Nb  Nb11  1  0.56967952  0.56967952  0.93032048  1
  Zn  Zn0  1  0.12500000  0.12500000  0.12500000  1
  Zn  Zn1  1  0.12500000  0.12500000  0.62500000  1
  Zn  Zn2  1  0.62500000  0.12500000  0.12500000  1
  Zn  Zn3  1  0.12500000  0.62500000  0.12500000  1
  Zn  Zn4  1  0.91841317  0.91841317  0.91838967  1
  Zn  Zn5  1  0.91841317  0.91841317  0.24478700  1
  Zn  Zn6  1  0.24499424  0.91843619  0.91828679  1
  Zn  Zn7  1  0.91843619  0.24499424  0.91828679  1
  Zn  Zn8  1  0.33158783  0.33158783  0.33161133  1
  Zn  Zn9  1  0.33158783  0.33158783  0.00521300  1
  Zn  Zn10  1  0.33156481  0.00500576  0.33171421  1
  Zn  Zn11  1  0.00500576  0.33156481  0.33171421  1
  C  C0  1  0.12499900  0.62500100  0.62500100  1
  C  C1  1  0.62500100  0.12499900  0.62500100  1
  N  N0  1  0.62500100  0.62500100  0.62500100  1
  N  N1  1  0.62500100  0.62500100  0.12499900  1
loop_
_geom_bond_atom_site_label_1
_geom_bond_atom_site_label_2
_geom_bond_distance
_geom_bond_site_symmetry_2
Nb0 Zn8 2.783834 1_555
Nb0 Zn11 2.803672 1_655
Nb0 Zn2 3.057518 1_555
Nb0 Zn7 3.080648 1_554
Nb0 Zn0 3.083604 1_655
Nb0 Zn5 3.093913 1_545
Nb1 Zn9 2.783834 1_556
Nb1 Zn10 2.803676 1_565
Nb1 Zn3 3.057518 1_556
Nb1 Zn6 3.080676 1_555
Nb1 Zn1 3.083604 1_565
Nb1 Zn4 3.093923 1_455
Nb2 Zn8 2.783834 1_555
Nb2 Zn10 2.803672 1_565
Nb2 Zn3 3.057518 1_555
Nb2 Zn6 3.080648 1_554
Nb2 Zn0 3.083604 1_565
Nb2 Zn5 3.093913 1_455
Nb3 Zn9 2.788015 1_556
Nb3 Zn8 2.788015 1_555
Nb3 Zn1 3.057863 1_555
Nb3 Zn0 3.057863 1_556
Nb3 Zn6 3.076615 1_545
Nb3 Zn7 3.076616 1_455
Nb4 Zn9 2.783835 1_556
Nb4 Zn11 2.803677 1_655
Nb4 Zn2 3.057518 1_556
Nb4 Zn7 3.080676 1_555
Nb4 Zn1 3.083604 1_655
Nb4 Zn4 3.093923 1_545
Nb5 Zn11 2.800192 1_655
Nb5 Zn10 2.800192 1_565
Nb5 Zn2 3.084304 1_565
Nb5 Zn3 3.084304 1_655
Nb5 Zn4 3.098177 1_554
Nb5 Zn5 3.098187 1_555
Nb6 Zn4 2.783850 1_555
Nb6 Zn7 2.803663 1_555
Nb6 Zn3 3.057518 1_656
Nb6 Zn11 3.080654 1_656
Nb6 Zn0 3.083604 1_656
Nb6 Zn9 3.093920 1_656
Nb7 Zn5 2.783839 1_555
Nb7 Zn6 2.803681 1_555
Nb7 Zn2 3.057518 1_565
Nb7 Zn10 3.080661 1_565
Nb7 Zn1 3.083604 1_565
Nb7 Zn8 3.093920 1_565
Nb8 Zn4 2.783850 1_555
Nb8 Zn6 2.803663 1_555
Nb8 Zn2 3.057518 1_566
Nb8 Zn10 3.080655 1_566
Nb8 Zn0 3.083604 1_566
Nb8 Zn9 3.093920 1_566
Nb9 Zn5 2.788006 1_555
Nb9 Zn4 2.788030 1_555
Nb9 Zn1 3.057863 1_665
Nb9 Zn0 3.057863 1_665
Nb9 Zn11 3.076623 1_665
Nb9 Zn10 3.076623 1_665
Nb10 Zn5 2.783839 1_555
Nb10 Zn7 2.803681 1_555
Nb10 Zn3 3.057518 1_655
Nb10 Zn11 3.080661 1_655
Nb10 Zn1 3.083604 1_655
Nb10 Zn8 3.093920 1_655
Nb11 Zn6 2.800197 1_555
Nb11 Zn7 2.800197 1_555
Nb11 Zn2 3.084304 1_556
Nb11 Zn3 3.084304 1_556
Nb11 Zn9 3.098173 1_556
Nb11 Zn8 3.098173 1_556
Zn0 Zn6 2.522650 1_544
Zn0 Zn7 2.522650 1_454
Zn0 Zn11 2.522663 1_555
Zn0 Zn10 2.522663 1_555
Zn0 Zn5 2.524238 1_445
Zn0 Zn9 2.524251 1_555
Zn1 Zn11 2.522670 1_555
Zn1 Zn10 2.522670 1_555
Zn1 Zn6 2.522677 1_545
Zn1 Zn7 2.522677 1_455
Zn1 Zn4 2.524245 1_445
Zn1 Zn8 2.524252 1_555
Zn2 Zn7 2.526536 1_554
Zn2 Zn4 2.527569 1_544
Zn2 Zn9 2.527576 1_555
Zn2 Zn8 2.527576 1_555
Zn2 Zn5 2.527582 1_545
Zn3 Zn6 2.526536 1_554
Zn3 Zn4 2.527569 1_454
Zn3 Zn9 2.527575 1_555
Zn3 Zn8 2.527575 1_555
Zn3 Zn5 2.527582 1_455
Zn4 Zn5 2.697120 1_556
Zn4 Zn7 2.705115 1_565
Zn4 Zn6 2.705116 1_655
Zn5 Zn7 2.705111 1_564
Zn5 Zn6 2.705112 1_654
Zn6 Zn7 2.712236 1_465
Zn8 Zn9 2.697129 1_555
Zn10 Zn2 2.526530 1_555
Zn10 Zn9 2.705120 1_555
Zn10 Zn8 2.705124 1_555
Zn10 Zn11 2.712245 1_555
Zn11 Zn3 2.526529 1_555
Zn11 Zn9 2.705120 1_555
Zn11 Zn8 2.705124 1_555
C0 Nb6 2.177118 1_455
C0 Nb1 2.177122 1_555
C0 Nb10 2.177129 1_455
C0 Nb2 2.177134 1_555
C0 Nb9 2.183104 1_455
C0 Nb3 2.183120 1_555
C1 Nb8 2.177118 1_545
C1 Nb4 2.177122 1_555
C1 Nb7 2.177129 1_545
C1 Nb0 2.177134 1_555
C1 Nb9 2.183105 1_545
C1 Nb3 2.183120 1_555
N0 Nb11 2.165087 1_555
N0 Nb5 2.165111 1_555
N0 Nb7 2.171472 1_555
N0 Nb10 2.171473 1_555
N0 Nb4 2.171497 1_555
N0 Nb1 2.171497 1_555
N1 Nb5 2.165095 1_555
N1 Nb11 2.165102 1_554
N1 Nb8 2.171477 1_554
N1 Nb6 2.171477 1_554
N1 Nb0 2.171492 1_555
N1 Nb2 2.171493 1_555
