# generated using pymatgen
data_Ca5Bi3Br
_symmetry_space_group_name_H-M   'P 1'
_cell_length_a   9.33082453
_cell_length_b   9.33082058
_cell_length_c   7.27567763
_cell_angle_alpha   90.00000000
_cell_angle_beta   90.00000000
_cell_angle_gamma   119.99962151
_symmetry_Int_Tables_number   1
_chemical_formula_structural   Ca5Bi3Br
_chemical_formula_sum   'Ca10 Bi6 Br2'
_cell_volume   548.58710772
_cell_formula_units_Z   2
loop_
 _symmetry_equiv_pos_site_id
 _symmetry_equiv_pos_as_xyz
  1  'x, y, z'
loop_
 _atom_site_type_symbol
 _atom_site_label
 _atom_site_symmetry_multiplicity
 _atom_site_fract_x
 _atom_site_fract_y
 _atom_site_fract_z
 _atom_site_occupancy
  Ca  Ca0  1  0.73881106  0.00000169  0.75000000  1
  Ca  Ca1  1  0.00000072  0.26119687  0.25000000  1
  Ca  Ca2  1  0.73881380  0.73881405  0.25000000  1
  Ca  Ca3  1  0.33331923  0.66666545  0.49999951  1
  Ca  Ca4  1  0.33331923  0.66666545  0.00000049  1
  Ca  Ca5  1  0.66668077  0.33333455  0.50000049  1
  Ca  Ca6  1  0.66668077  0.33333455  0.99999951  1
  Ca  Ca7  1  0.26118894  0.99999831  0.25000000  1
  Ca  Ca8  1  0.26118620  0.26118595  0.75000000  1
  Ca  Ca9  1  0.99999928  0.73880313  0.75000000  1
  Bi  Bi0  1  0.39182650  0.99999554  0.75000000  1
  Bi  Bi1  1  0.60817350  0.00000446  0.25000000  1
  Bi  Bi2  1  0.00000052  0.60816521  0.25000000  1
  Bi  Bi3  1  0.60817745  0.60817632  0.75000000  1
  Bi  Bi4  1  0.99999948  0.39183479  0.75000000  1
  Bi  Bi5  1  0.39182255  0.39182368  0.25000000  1
  Br  Br0  1  0.00000000  0.00000000  0.50000000  1
  Br  Br1  1  0.00000000  0.00000000  0.00000000  1
loop_
_geom_bond_atom_site_label_1
_geom_bond_atom_site_label_2
_geom_bond_distance
_geom_bond_site_symmetry_2
Bi0 Ca8 3.224321 1_565
Bi0 Ca9 3.224322 1_455
Bi0 Ca0 3.237623 1_565
Bi0 Ca4 3.403263 1_556
Bi0 Ca3 3.403263 1_555
Bi0 Ca6 3.403401 1_565
Bi0 Ca5 3.403401 1_565
Bi0 Ca7 3.836634 1_555
Bi0 Ca7 3.836634 1_556
Bi1 Ca2 3.224321 1_545
Bi1 Ca1 3.224322 1_655
Bi1 Ca7 3.237623 1_545
Bi1 Ca5 3.403263 1_555
Bi1 Ca6 3.403263 1_554
Bi1 Ca3 3.403401 1_545
Bi1 Ca4 3.403401 1_545
Bi1 Ca0 3.836634 1_554
Bi1 Ca0 3.836634 1_555
Bi2 Ca2 3.224349 1_455
Bi2 Ca7 3.224355 1_555
Bi2 Ca1 3.237500 1_555
Bi2 Ca3 3.403191 1_555
Bi2 Ca4 3.403191 1_555
Bi2 Ca5 3.403244 1_455
Bi2 Ca6 3.403244 1_454
Bi2 Ca9 3.836632 1_455
Bi2 Ca9 3.836632 1_454
Bi3 Ca9 3.224281 1_555
Bi3 Ca0 3.224298 1_565
Bi3 Ca8 3.237728 1_555
Bi3 Ca6 3.403381 1_555
Bi3 Ca5 3.403381 1_555
Bi3 Ca4 3.403443 1_556
Bi3 Ca3 3.403443 1_555
Bi3 Ca2 3.836630 1_556
Bi3 Ca2 3.836630 1_555
Bi4 Ca8 3.224349 1_655
Bi4 Ca0 3.224355 1_555
Bi4 Ca9 3.237500 1_555
Bi4 Ca6 3.403191 1_555
Bi4 Ca5 3.403191 1_555
Bi4 Ca4 3.403244 1_656
Bi4 Ca3 3.403244 1_655
Bi4 Ca1 3.836632 1_656
Bi4 Ca1 3.836632 1_655
Bi5 Ca1 3.224281 1_555
Bi5 Ca7 3.224298 1_545
Bi5 Ca2 3.237728 1_555
Bi5 Ca3 3.403381 1_555
Bi5 Ca4 3.403381 1_555
Bi5 Ca5 3.403443 1_555
Bi5 Ca6 3.403443 1_554
Bi5 Ca8 3.836630 1_555
Bi5 Ca8 3.836630 1_554
Br0 Ca8 3.041036 1_555
Br0 Ca2 3.041036 1_445
Br0 Ca7 3.041053 1_545
Br0 Ca0 3.041053 1_455
Br0 Ca1 3.041102 1_555
Br0 Ca9 3.041102 1_445
Br1 Ca8 3.041036 1_554
Br1 Ca2 3.041036 1_445
Br1 Ca7 3.041053 1_545
Br1 Ca0 3.041053 1_454
Br1 Ca1 3.041102 1_555
Br1 Ca9 3.041102 1_444
