# generated using pymatgen
data_Co(NO3)2
_symmetry_space_group_name_H-M   'P 1'
_cell_length_a   7.36700151
_cell_length_b   7.33944675
_cell_length_c   7.38024412
_cell_angle_alpha   89.96687786
_cell_angle_beta   90.07723522
_cell_angle_gamma   90.07330487
_symmetry_Int_Tables_number   1
_chemical_formula_structural   Co(NO3)2
_chemical_formula_sum   'Co4 N8 O24'
_cell_volume   399.04694303
_cell_formula_units_Z   4
loop_
 _symmetry_equiv_pos_site_id
 _symmetry_equiv_pos_as_xyz
  1  'x, y, z'
loop_
 _atom_site_type_symbol
 _atom_site_label
 _atom_site_symmetry_multiplicity
 _atom_site_fract_x
 _atom_site_fract_y
 _atom_site_fract_z
 _atom_site_occupancy
  Co  Co0  1  0.00000000  -0.00000000  -0.00000000  1
  Co  Co1  1  0.00000000  0.50000000  0.50000000  1
  Co  Co2  1  0.50000000  0.50000000  -0.00000000  1
  Co  Co3  1  0.50000000  -0.00000000  0.50000000  1
  N  N0  1  0.33478898  0.33531952  0.33502908  1
  N  N1  1  0.83917664  0.15851932  0.65036835  1
  N  N2  1  0.15955550  0.65124531  0.83870151  1
  N  N3  1  0.64996955  0.84047627  0.15910926  1
  N  N4  1  0.16082336  0.84148068  0.34963165  1
  N  N5  1  0.66521102  0.66468048  0.66497092  1
  N  N6  1  0.35003045  0.15952373  0.84089074  1
  N  N7  1  0.84044450  0.34875469  0.16129849  1
  O  O0  1  0.98666739  0.24222694  0.62550873  1
  O  O1  1  0.01333261  0.75777306  0.37449127  1
  O  O2  1  0.62485877  0.98737190  0.24317219  1
  O  O3  1  0.24344055  0.62627302  0.98556596  1
  O  O4  1  0.32970894  0.21816064  0.45893374  1
  O  O5  1  0.45820403  0.32977938  0.21814262  1
  O  O6  1  0.21757241  0.45909903  0.32939139  1
  O  O7  1  0.67029106  0.78183936  0.54106626  1
  O  O8  1  0.54179597  0.67022062  0.78185738  1
  O  O9  1  0.78242759  0.54090097  0.67060861  1
  O  O10  1  0.71204331  0.17710552  0.53755179  1
  O  O11  1  0.53849348  0.71170034  0.17740881  1
  O  O12  1  0.17694994  0.53802305  0.71198390  1
  O  O13  1  0.28795669  0.82289448  0.46244821  1
  O  O14  1  0.46150652  0.28829966  0.82259119  1
  O  O15  1  0.82305006  0.46197695  0.28801610  1
  O  O16  1  0.18100690  0.94337231  0.21434507  1
  O  O17  1  0.21579954  0.17723407  0.94474644  1
  O  O18  1  0.94275200  0.21296662  0.18084932  1
  O  O19  1  0.81899310  0.05662769  0.78565493  1
  O  O20  1  0.78420046  0.82276593  0.05525356  1
  O  O21  1  0.05724800  0.78703338  0.81915068  1
  O  O22  1  0.37514123  0.01262810  0.75682781  1
  O  O23  1  0.75655945  0.37372698  0.01443404  1
loop_
_geom_bond_atom_site_label_1
_geom_bond_atom_site_label_2
_geom_bond_distance
_geom_bond_site_symmetry_2
Co0 O20 2.093242 1_445
Co0 O17 2.093242 1_554
Co0 O21 2.099545 1_544
Co0 O18 2.099545 1_455
Co0 O16 2.109109 1_545
Co0 O19 2.109109 1_454
Co1 O15 2.054006 1_455
Co1 O12 2.054006 1_555
Co1 O9 2.061986 1_455
Co1 O6 2.061986 1_555
Co1 O1 2.108252 1_555
Co1 O0 2.108252 1_455
Co2 O14 2.051619 1_554
Co2 O11 2.051619 1_555
Co2 O8 2.060479 1_554
Co2 O5 2.060479 1_555
Co2 O3 2.108664 1_554
Co2 O23 2.108664 1_555
Co3 O10 2.049565 1_555
Co3 O13 2.049565 1_545
Co3 O4 2.057435 1_555
Co3 O7 2.057435 1_545
Co3 O22 2.110106 1_555
Co3 O2 2.110106 1_545
N0 O6 1.254836 1_555
N0 O5 1.254875 1_555
N0 O4 1.255432 1_555
N1 O19 1.255989 1_555
N1 O10 1.259822 1_555
N1 O0 1.261123 1_555
N2 O12 1.258201 1_555
N2 O21 1.258402 1_555
N2 O3 1.260388 1_555
N3 O2 1.258208 1_555
N3 O11 1.258628 1_555
N3 O20 1.258872 1_555
N4 O16 1.255989 1_555
N4 O13 1.259822 1_555
N4 O1 1.261123 1_555
N5 O9 1.254836 1_555
N5 O8 1.254875 1_555
N5 O7 1.255432 1_555
N6 O22 1.258208 1_555
N6 O14 1.258628 1_555
N6 O17 1.258872 1_555
N7 O15 1.258201 1_555
N7 O18 1.258402 1_555
N7 O23 1.260388 1_555
