# generated using pymatgen
data_LiSb(OF)2
_symmetry_space_group_name_H-M   'P 1'
_cell_length_a   4.72305468
_cell_length_b   4.72305472
_cell_length_c   5.96532938
_cell_angle_alpha   90.00000000
_cell_angle_beta   90.00000000
_cell_angle_gamma   90.34200880
_symmetry_Int_Tables_number   1
_chemical_formula_structural   LiSb(OF)2
_chemical_formula_sum   'Li2 Sb2 O4 F4'
_cell_volume   133.06769741
_cell_formula_units_Z   2
loop_
 _symmetry_equiv_pos_site_id
 _symmetry_equiv_pos_as_xyz
  1  'x, y, z'
loop_
 _atom_site_type_symbol
 _atom_site_label
 _atom_site_symmetry_multiplicity
 _atom_site_fract_x
 _atom_site_fract_y
 _atom_site_fract_z
 _atom_site_occupancy
  Li  Li0  1  0.50000100  0.50000100  0.00000000  1
  Li  Li1  1  0.50000100  0.50000100  0.49999900  1
  Sb  Sb0  1  0.00003854  0.99996246  0.25000000  1
  Sb  Sb1  1  0.99996246  0.00003854  0.75000100  1
  O  O0  1  0.19192573  0.80807627  0.00001291  1
  O  O1  1  0.19192573  0.80807627  0.49998709  1
  O  O2  1  0.80807627  0.19192573  0.50001291  1
  O  O3  1  0.80807627  0.19192573  0.99998709  1
  F  F0  1  0.29656966  0.29652286  0.25000000  1
  F  F1  1  0.70347814  0.70343134  0.25000000  1
  F  F2  1  0.29652286  0.29656966  0.75000100  1
  F  F3  1  0.70343134  0.70347814  0.75000100  1
loop_
_geom_bond_atom_site_label_1
_geom_bond_atom_site_label_2
_geom_bond_distance
_geom_bond_site_symmetry_2
Li0 O3 2.063893 1_554
Li0 O0 2.063893 1_555
Li1 O1 2.063893 1_555
Li1 O2 2.063893 1_555
O0 Sb0 1.968851 1_555
O0 Sb1 1.969296 1_464
O1 Sb0 1.968851 1_555
O1 Sb1 1.969305 1_465
O2 Sb1 1.968856 1_555
O2 Sb0 1.969301 1_645
O3 Sb1 1.968847 1_555
O3 Sb0 1.969301 1_646
F0 Sb0 1.974830 1_545
F0 Li1 2.014893 1_555
F0 Li0 2.014898 1_555
F1 Sb0 1.974830 1_655
F1 Li1 2.014889 1_555
F1 Li0 2.014893 1_555
F2 Sb1 1.974830 1_455
F2 Li0 2.014893 1_556
F2 Li1 2.014907 1_555
F3 Sb1 1.974830 1_565
F3 Li0 2.014889 1_556
F3 Li1 2.014902 1_555
