# generated using pymatgen
data_PrSi2Ru
_symmetry_space_group_name_H-M   'P 1'
_cell_length_a   4.09543420
_cell_length_b   4.49850182
_cell_length_c   8.32232314
_cell_angle_alpha   102.26540870
_cell_angle_beta   90.00000000
_cell_angle_gamma   90.00000000
_symmetry_Int_Tables_number   1
_chemical_formula_structural   PrSi2Ru
_chemical_formula_sum   'Pr2 Si4 Ru2'
_cell_volume   149.82501690
_cell_formula_units_Z   2
loop_
 _symmetry_equiv_pos_site_id
 _symmetry_equiv_pos_as_xyz
  1  'x, y, z'
loop_
 _atom_site_type_symbol
 _atom_site_label
 _atom_site_symmetry_multiplicity
 _atom_site_fract_x
 _atom_site_fract_y
 _atom_site_fract_z
 _atom_site_occupancy
  Pr  Pr0  1  0.25000000  0.40979464  0.79838784  1
  Pr  Pr1  1  0.75000000  0.59020536  0.20161216  1
  Si  Si0  1  0.25000000  0.66903220  0.49326456  1
  Si  Si1  1  0.75000000  0.33096780  0.50673544  1
  Si  Si2  1  0.75000000  0.96185229  0.90743070  1
  Si  Si3  1  0.25000000  0.03814771  0.09256930  1
  Ru  Ru0  1  0.75000000  0.88044085  0.61167611  1
  Ru  Ru1  1  0.25000000  0.11955915  0.38832389  1
loop_
_geom_bond_atom_site_label_1
_geom_bond_atom_site_label_2
_geom_bond_distance
_geom_bond_site_symmetry_2
Pr0 Si0 3.011047 1_555
Pr0 Si1 3.137613 1_455
Pr0 Si1 3.137613 1_555
Pr0 Si2 3.139132 1_445
Pr0 Si2 3.139132 1_545
Pr0 Si2 3.197901 1_555
Pr0 Si2 3.197901 1_455
Pr0 Si3 3.244725 1_556
Pr0 Ru0 3.272017 1_545
Pr0 Ru0 3.272017 1_445
Pr0 Si3 3.323196 1_566
Pr1 Si1 3.011047 1_555
Pr1 Si0 3.137613 1_655
Pr1 Si0 3.137613 1_555
Pr1 Si3 3.139132 1_565
Pr1 Si3 3.139132 1_665
Pr1 Si3 3.197901 1_555
Pr1 Si3 3.197901 1_655
Pr1 Si2 3.244725 1_554
Pr1 Ru1 3.272017 1_665
Pr1 Ru1 3.272017 1_565
Pr1 Si2 3.323196 1_544
Si0 Si1 2.567282 1_455
Si0 Si1 2.567282 1_555
Si2 Si3 2.541706 1_666
Si2 Si3 2.541706 1_566
Ru0 Si1 2.371136 1_565
Ru0 Si0 2.381286 1_655
Ru0 Si0 2.381286 1_555
Ru0 Si2 2.410279 1_555
Ru0 Si1 2.440359 1_555
Ru1 Si0 2.371136 1_545
Ru1 Si1 2.381286 1_455
Ru1 Si1 2.381286 1_555
Ru1 Si3 2.410279 1_555
Ru1 Si0 2.440359 1_555
