# generated using pymatgen
data_Rb4VReCl12
_symmetry_space_group_name_H-M   'P 1'
_cell_length_a   7.14000322
_cell_length_b   7.14000322
_cell_length_c   9.77148459
_cell_angle_alpha   90.00000000
_cell_angle_beta   90.00000000
_cell_angle_gamma   89.99181499
_symmetry_Int_Tables_number   1
_chemical_formula_structural   Rb4VReCl12
_chemical_formula_sum   'Rb4 V1 Re1 Cl12'
_cell_volume   498.14681925
_cell_formula_units_Z   1
loop_
 _symmetry_equiv_pos_site_id
 _symmetry_equiv_pos_as_xyz
  1  'x, y, z'
loop_
 _atom_site_type_symbol
 _atom_site_label
 _atom_site_symmetry_multiplicity
 _atom_site_fract_x
 _atom_site_fract_y
 _atom_site_fract_z
 _atom_site_occupancy
  Rb  Rb0  1  0.50000000  0.00000000  0.75701116  1
  Rb  Rb1  1  0.00000000  0.50000000  0.24298884  1
  Rb  Rb2  1  0.50000000  0.00000000  0.24298884  1
  Rb  Rb3  1  0.00000000  0.50000000  0.75701116  1
  V  V0  1  0.00000000  0.00000000  0.00000000  1
  Re  Re0  1  0.50000000  0.50000000  0.50000000  1
  Cl  Cl0  1  0.00000000  0.00000000  0.76545936  1
  Cl  Cl1  1  0.50000000  0.50000000  0.25816239  1
  Cl  Cl2  1  0.73483691  0.73483691  0.50000000  1
  Cl  Cl3  1  0.23151325  0.23151325  0.00000000  1
  Cl  Cl4  1  0.73486272  0.26513728  0.50000000  1
  Cl  Cl5  1  0.23154166  0.76845834  0.00000000  1
  Cl  Cl6  1  0.00000000  0.00000000  0.23454064  1
  Cl  Cl7  1  0.50000000  0.50000000  0.74183761  1
  Cl  Cl8  1  0.26516309  0.26516309  0.50000000  1
  Cl  Cl9  1  0.76848675  0.76848675  0.00000000  1
  Cl  Cl10  1  0.26513728  0.73486272  0.50000000  1
  Cl  Cl11  1  0.76845834  0.23154166  0.00000000  1
loop_
_geom_bond_atom_site_label_1
_geom_bond_atom_site_label_2
_geom_bond_distance
_geom_bond_site_symmetry_2
Cl0 V0 2.291810 1_556
Cl0 Rb3 3.570956 1_545
Cl0 Rb3 3.570956 1_555
Cl0 Rb0 3.570956 1_455
Cl0 Rb0 3.570956 1_555
Cl1 Re0 2.363112 1_555
Cl1 Rb1 3.573079 1_655
Cl1 Rb2 3.573079 1_555
Cl1 Rb2 3.573079 1_565
Cl1 Rb1 3.573079 1_555
Cl2 Re0 2.371433 1_555
Cl2 Rb0 3.563990 1_565
Cl2 Rb3 3.563990 1_655
Cl2 Rb2 3.563990 1_565
Cl2 Rb1 3.563990 1_655
Cl3 V0 2.337870 1_555
Cl3 Rb1 3.470445 1_555
Cl3 Rb2 3.470445 1_555
Cl3 Rb0 3.470445 1_554
Cl3 Rb3 3.470445 1_554
Cl4 Re0 2.371354 1_555
Cl4 Rb0 3.564233 1_555
Cl4 Rb2 3.564233 1_555
Cl4 Rb3 3.564233 1_655
Cl4 Rb1 3.564233 1_655
Cl5 V0 2.337822 1_565
Cl5 Rb1 3.470691 1_555
Cl5 Rb3 3.470691 1_554
Cl5 Rb2 3.470691 1_565
Cl5 Rb0 3.470691 1_564
Cl6 V0 2.291810 1_555
Cl6 Rb2 3.570956 1_555
Cl6 Rb2 3.570956 1_455
Cl6 Rb1 3.570956 1_545
Cl6 Rb1 3.570956 1_555
Cl7 Re0 2.363112 1_555
Cl7 Rb0 3.573079 1_565
Cl7 Rb3 3.573079 1_655
Cl7 Rb3 3.573079 1_555
Cl7 Rb0 3.573079 1_555
Cl8 Re0 2.371433 1_555
Cl8 Rb3 3.563990 1_555
Cl8 Rb0 3.563990 1_555
Cl8 Rb2 3.563990 1_555
Cl8 Rb1 3.563990 1_555
Cl9 V0 2.337870 1_665
Cl9 Rb2 3.470445 1_565
Cl9 Rb1 3.470445 1_655
Cl9 Rb3 3.470445 1_654
Cl9 Rb0 3.470445 1_564
Cl10 Re0 2.371354 1_555
Cl10 Rb3 3.564233 1_555
Cl10 Rb0 3.564233 1_565
Cl10 Rb1 3.564233 1_555
Cl10 Rb2 3.564233 1_565
Cl11 V0 2.337822 1_655
Cl11 Rb2 3.470691 1_555
Cl11 Rb0 3.470691 1_554
Cl11 Rb1 3.470691 1_655
Cl11 Rb3 3.470691 1_654
