# generated using pymatgen
data_Hf2Ti2SiAs
_symmetry_space_group_name_H-M   'P 1'
_cell_length_a   7.85321930
_cell_length_b   7.85326983
_cell_length_c   7.85313668
_cell_angle_alpha   127.80746596
_cell_angle_beta   123.23562230
_cell_angle_gamma   80.72736944
_symmetry_Int_Tables_number   1
_chemical_formula_structural   Hf2Ti2SiAs
_chemical_formula_sum   'Hf6 Ti6 Si3 As3'
_cell_volume   308.65712237
_cell_formula_units_Z   3
loop_
 _symmetry_equiv_pos_site_id
 _symmetry_equiv_pos_as_xyz
  1  'x, y, z'
loop_
 _atom_site_type_symbol
 _atom_site_label
 _atom_site_symmetry_multiplicity
 _atom_site_fract_x
 _atom_site_fract_y
 _atom_site_fract_z
 _atom_site_occupancy
  Hf  Hf0  1  0.45109065  0.65694418  0.70153001  1
  Hf  Hf1  1  0.54599463  0.25587800  0.20569651  1
  Hf  Hf2  1  0.74620032  0.84695089  0.59594262  1
  Hf  Hf3  1  0.25113457  0.84707785  0.10081133  1
  Hf  Hf4  1  0.05050964  0.25589753  0.71006174  1
  Hf  Hf5  1  0.95548994  0.65673936  0.20595916  1
  Ti  Ti0  1  0.49916826  0.49787359  0.99867244  1
  Ti  Ti1  1  0.99977418  0.49591393  0.49583060  1
  Ti  Ti2  1  0.12247577  0.25527294  0.13234281  1
  Ti  Ti3  1  0.87864968  0.01129455  0.13305680  1
  Ti  Ti4  1  0.37773070  0.00675528  0.62846327  1
  Ti  Ti5  1  0.62193218  0.25316946  0.63149113  1
  Si  Si0  1  0.25077684  0.25373368  0.50408827  1
  Si  Si1  1  0.74922550  0.25314955  0.00271227  1
  Si  Si2  1  0.33318583  0.58622505  0.25293712  1
  As  As0  1  0.66725390  0.92018901  0.25290356  1
  As  As1  1  0.16581073  0.91934015  0.75345972  1
  As  As2  1  0.83359868  0.58719700  0.75364362  1
loop_
_geom_bond_atom_site_label_1
_geom_bond_atom_site_label_2
_geom_bond_distance
_geom_bond_site_symmetry_2
Hf0 Si2 2.787063 1_555
Hf0 Si0 2.796020 1_555
Hf0 Ti4 3.044381 1_565
Hf0 Ti2 3.046673 1_555
Hf0 Ti1 3.071577 1_455
Hf0 Ti5 3.075238 1_555
Hf0 Ti3 3.078754 1_566
Hf0 Ti0 3.099112 1_555
Hf1 Si2 2.786301 1_555
Hf1 Si1 2.797263 1_555
Hf1 Ti2 3.048865 1_555
Hf1 Ti0 3.049206 1_554
Hf1 Ti5 3.071562 1_555
Hf1 Ti1 3.072938 1_555
Hf1 Ti3 3.084255 1_555
Hf1 Ti4 3.084882 1_554
Hf2 Si2 2.787414 1_555
Hf2 Si1 2.797998 1_566
Hf2 Ti0 3.042020 1_554
Hf2 Ti4 3.043086 1_565
Hf2 Ti5 3.067704 1_565
Hf2 Ti1 3.077872 1_555
Hf2 Ti3 3.080320 1_566
Hf2 Ti2 3.099551 1_666
Hf3 Si2 2.787512 1_555
Hf3 Si0 2.799219 1_565
Hf3 Ti4 3.040834 1_565
Hf3 Ti0 3.041805 1_554
Hf3 Ti5 3.068159 1_565
Hf3 Ti3 3.078958 1_465
Hf3 Ti1 3.079681 1_454
Hf3 Ti2 3.100925 1_565
Hf4 Si2 2.784871 1_556
Hf4 Si0 2.799382 1_555
Hf4 Ti2 3.046542 1_556
Hf4 Ti0 3.047305 1_555
Hf4 Ti5 3.072424 1_455
Hf4 Ti1 3.074599 1_455
Hf4 Ti4 3.080580 1_555
Hf4 Ti3 3.082894 1_455
Hf5 Si2 2.786093 1_655
Hf5 Si1 2.799164 1_555
Hf5 Ti4 3.042296 1_665
Hf5 Ti2 3.042725 1_655
Hf5 Ti1 3.068177 1_555
Hf5 Ti5 3.074207 1_554
Hf5 Ti3 3.078819 1_565
Hf5 Ti0 3.099178 1_554
Si0 Ti5 2.510272 1_555
Si0 Ti1 2.511956 1_455
Si0 Ti3 2.512559 1_455
Si0 Ti0 2.517358 1_555
Si0 Ti4 2.518339 1_555
Si0 Ti2 2.520525 1_555
Si1 Ti5 2.510776 1_554
Si1 Ti1 2.511482 1_555
Si1 Ti3 2.511860 1_555
Si1 Ti0 2.518169 1_554
Si1 Ti4 2.518211 1_554
Si1 Ti2 2.520441 1_655
Si2 Ti4 2.650823 1_565
Si2 Ti0 2.651540 1_554
Si2 Ti2 2.653414 1_555
As0 Ti3 2.659863 1_565
As0 Ti0 2.670558 1_554
As0 Ti5 2.670643 1_565
As0 Hf3 2.814364 1_555
As0 Hf2 2.815382 1_555
As0 Hf1 2.827776 1_565
As0 Hf0 2.829027 1_554
As0 Hf4 2.829610 1_665
As0 Hf5 2.830301 1_555
As1 Ti1 2.666132 1_455
As1 Ti2 2.669396 1_566
As1 Ti4 2.681364 1_565
As1 Hf5 2.812419 1_455
As1 Hf0 2.813418 1_555
As1 Hf4 2.813672 1_565
As1 Hf1 2.814994 1_566
As1 Hf3 2.825544 1_556
As1 Hf2 2.825875 1_455
As2 Ti1 2.670480 1_555
As2 Ti5 2.671463 1_555
As2 Ti3 2.674558 1_566
As2 Hf2 2.807217 1_555
As2 Hf3 2.808117 1_656
As2 Hf0 2.808565 1_555
As2 Hf5 2.809778 1_556
As2 Hf1 2.810921 1_555
As2 Hf4 2.811978 1_655
