# generated using pymatgen
data_Y(TiIr)2
_symmetry_space_group_name_H-M   'P 1'
_cell_length_a   6.14459153
_cell_length_b   6.14459193
_cell_length_c   6.14459127
_cell_angle_alpha   139.72570907
_cell_angle_beta   139.72570885
_cell_angle_gamma   58.27000681
_symmetry_Int_Tables_number   1
_chemical_formula_structural   Y(TiIr)2
_chemical_formula_sum   'Y1 Ti2 Ir2'
_cell_volume   96.06915057
_cell_formula_units_Z   1
loop_
 _symmetry_equiv_pos_site_id
 _symmetry_equiv_pos_as_xyz
  1  'x, y, z'
loop_
 _atom_site_type_symbol
 _atom_site_label
 _atom_site_symmetry_multiplicity
 _atom_site_fract_x
 _atom_site_fract_y
 _atom_site_fract_z
 _atom_site_occupancy
  Y  Y0  1  0.00000000  0.00000000  0.00000000  1
  Ti  Ti0  1  0.75000000  0.25000000  0.50000000  1
  Ti  Ti1  1  0.25000000  0.75000000  0.50000000  1
  Ir  Ir0  1  0.61935045  0.61935045  0.00000000  1
  Ir  Ir1  1  0.38064955  0.38064955  1.00000000  1
loop_
_geom_bond_atom_site_label_1
_geom_bond_atom_site_label_2
_geom_bond_distance
_geom_bond_site_symmetry_2
Ti0 Y0 3.417080 1_655
Ti0 Y0 3.417080 1_656
Ti0 Y0 3.417080 1_555
Ti0 Y0 3.417080 1_666
Ti1 Y0 3.417080 1_566
Ti1 Y0 3.417080 1_565
Ti1 Y0 3.417080 1_666
Ti1 Y0 3.417080 1_555
Ir0 Ti0 2.538047 1_554
Ir0 Ti1 2.538047 1_554
Ir0 Ti1 2.538047 1_655
Ir0 Ti0 2.538047 1_565
Ir0 Ir1 2.562286 1_554
Ir0 Y0 3.254392 1_666
Ir0 Y0 3.254392 1_565
Ir0 Y0 3.254392 1_554
Ir0 Y0 3.254392 1_655
Ir1 Ti1 2.538047 1_556
Ir1 Ti0 2.538047 1_556
Ir1 Ti0 2.538047 1_455
Ir1 Ti1 2.538047 1_545
Ir1 Y0 3.254392 1_555
Ir1 Y0 3.254392 1_656
Ir1 Y0 3.254392 1_667
Ir1 Y0 3.254392 1_566
