# generated using pymatgen
data_Hf6ZnAs5Ru6
_symmetry_space_group_name_H-M   'P 1'
_cell_length_a   7.60665270
_cell_length_b   7.62763467
_cell_length_c   7.60665368
_cell_angle_alpha   128.43211858
_cell_angle_beta   119.77540500
_cell_angle_gamma   83.13253219
_symmetry_Int_Tables_number   1
_chemical_formula_structural   Hf6ZnAs5Ru6
_chemical_formula_sum   'Hf6 Zn1 As5 Ru6'
_cell_volume   288.24142139
_cell_formula_units_Z   1
loop_
 _symmetry_equiv_pos_site_id
 _symmetry_equiv_pos_as_xyz
  1  'x, y, z'
loop_
 _atom_site_type_symbol
 _atom_site_label
 _atom_site_symmetry_multiplicity
 _atom_site_fract_x
 _atom_site_fract_y
 _atom_site_fract_z
 _atom_site_occupancy
  Hf  Hf0  1  0.46312654  0.68992487  0.72679833  1
  Hf  Hf1  1  0.52217635  0.25431358  0.23213723  1
  Hf  Hf2  1  0.74799286  0.83361318  0.58562031  1
  Hf  Hf3  1  0.24855697  0.83405554  0.08549756  1
  Hf  Hf4  1  0.05950564  0.25595099  0.69644535  1
  Hf  Hf5  1  0.95433371  0.66175004  0.20741633  1
  Zn  Zn0  1  0.27747493  0.26217899  0.48470406  1
  As  As0  1  0.72864091  0.24366115  0.01502024  1
  As  As1  1  0.32898855  0.58472847  0.24905613  1
  As  As2  1  0.67162760  0.92110726  0.26027766  1
  As  As3  1  0.16082860  0.92110726  0.74947866  1
  As  As4  1  0.83567233  0.58472847  0.75573992  1
  Ru  Ru0  1  0.49525169  0.49871240  0.99435660  1
  Ru  Ru1  1  0.00435581  0.49871240  0.50346071  1
  Ru  Ru2  1  0.08614257  0.25161316  0.08960897  1
  Ru  Ru3  1  0.88898938  0.00591404  0.14158569  1
  Ru  Ru4  1  0.36432835  0.00591404  0.61692466  1
  Ru  Ru5  1  0.66200319  0.25161316  0.66546959  1
loop_
_geom_bond_atom_site_label_1
_geom_bond_atom_site_label_2
_geom_bond_distance
_geom_bond_site_symmetry_2
Hf0 Zn0 2.660865 1_555
Hf0 Ru3 2.918880 1_566
Hf0 Ru4 2.918881 1_565
Hf0 Ru1 3.072471 1_555
Hf0 Ru0 3.072471 1_555
Hf1 Ru5 2.931518 1_555
Hf1 Ru2 2.931523 1_555
Hf1 Ru1 3.243619 1_655
Hf1 Ru0 3.243619 1_554
Hf1 Zn0 3.246681 1_555
Hf1 Ru3 3.297239 1_555
Hf1 Ru4 3.297239 1_554
Hf2 Ru2 2.907006 1_666
Hf2 Ru5 2.907011 1_565
Hf2 Ru1 2.958590 1_655
Hf2 Ru0 2.958590 1_554
Hf2 Ru4 3.112063 1_565
Hf2 Ru3 3.112063 1_566
Hf3 Zn0 2.667224 1_565
Hf3 Ru1 2.912790 1_554
Hf3 Ru0 2.912795 1_554
Hf3 Ru3 2.997915 1_465
Hf3 Ru4 2.997920 1_565
Hf4 Zn0 2.848109 1_555
Hf4 Ru4 2.877644 1_555
Hf4 Ru3 2.877645 1_455
Hf4 Ru0 2.888168 1_555
Hf4 Ru1 2.888168 1_555
Hf4 Ru2 2.916464 1_556
Hf4 Ru5 2.916468 1_455
Hf5 Ru2 2.872658 1_655
Hf5 Ru5 2.872662 1_554
Hf5 Ru4 2.909333 1_665
Hf5 Ru3 2.909334 1_565
Hf5 Ru0 3.046251 1_554
Hf5 Ru1 3.046251 1_655
As0 Ru4 2.485628 1_554
As0 Ru3 2.485628 1_555
As0 Ru2 2.486951 1_655
As0 Ru5 2.486956 1_554
As0 Ru0 2.497640 1_554
As0 Ru1 2.497640 1_655
As0 Hf1 2.753074 1_555
As0 Hf2 2.853075 1_544
As0 Hf5 2.875909 1_555
As1 Ru2 2.530916 1_555
As1 Ru0 2.537407 1_554
As1 Ru4 2.550907 1_565
As1 Hf1 2.725210 1_555
As1 Hf3 2.728755 1_555
As1 Hf5 2.738910 1_455
As1 Hf2 2.759946 1_555
As1 Hf4 2.779720 1_554
As1 Hf0 2.789100 1_555
As2 Ru5 2.526029 1_565
As2 Ru3 2.536089 1_565
As2 Ru0 2.551176 1_554
As2 Hf2 2.727640 1_555
As2 Hf0 2.733666 1_554
As2 Hf1 2.746173 1_565
As2 Hf5 2.748135 1_555
As2 Hf3 2.780123 1_555
As2 Hf4 2.789507 1_665
As3 Ru2 2.526029 1_566
As3 Ru4 2.536089 1_565
As3 Ru1 2.551177 1_555
As3 Hf2 2.727635 1_455
As3 Hf0 2.733671 1_555
As3 Hf1 2.746179 1_566
As3 Hf5 2.748130 1_455
As3 Hf3 2.780124 1_556
As3 Hf4 2.789502 1_565
As4 Ru5 2.530916 1_555
As4 Ru1 2.537407 1_655
As4 Ru3 2.550907 1_566
As4 Hf1 2.725211 1_555
As4 Hf3 2.728750 1_656
As4 Hf5 2.738911 1_556
As4 Hf2 2.759946 1_555
As4 Hf4 2.779719 1_655
As4 Hf0 2.789100 1_555
Ru0 Zn0 2.582551 1_555
Ru0 Ru4 2.828973 1_555
Ru0 Ru5 2.852729 1_555
Ru1 Zn0 2.582550 1_555
Ru1 Ru3 2.828973 1_455
Ru1 Ru2 2.852730 1_555
Ru2 Zn0 2.557246 1_555
Ru2 Ru3 2.846011 1_455
Ru3 Zn0 2.596938 1_655
Ru4 Zn0 2.596938 1_555
Ru4 Ru5 2.846010 1_555
Ru5 Zn0 2.557239 1_555
