# generated using pymatgen
data_Nb3AlS6
_symmetry_space_group_name_H-M   'P 1'
_cell_length_a   5.81383831
_cell_length_b   5.81383846
_cell_length_c   12.08335459
_cell_angle_alpha   90.00000000
_cell_angle_beta   90.00000000
_cell_angle_gamma   119.99998785
_symmetry_Int_Tables_number   1
_chemical_formula_structural   Nb3AlS6
_chemical_formula_sum   'Nb6 Al2 S12'
_cell_volume   353.70737491
_cell_formula_units_Z   2
loop_
 _symmetry_equiv_pos_site_id
 _symmetry_equiv_pos_as_xyz
  1  'x, y, z'
loop_
 _atom_site_type_symbol
 _atom_site_label
 _atom_site_symmetry_multiplicity
 _atom_site_fract_x
 _atom_site_fract_y
 _atom_site_fract_z
 _atom_site_occupancy
  Nb  Nb0  1  0.00000000  0.00000000  0.50000000  1
  Nb  Nb1  1  0.00000000  0.00000000  0.00000000  1
  Nb  Nb2  1  0.33333300  0.66666700  0.99669786  1
  Nb  Nb3  1  0.66666700  0.33333300  0.00330214  1
  Nb  Nb4  1  0.66666700  0.33333300  0.49669786  1
  Nb  Nb5  1  0.33333300  0.66666700  0.50330214  1
  Al  Al0  1  0.33333300  0.66666700  0.25000000  1
  Al  Al1  1  0.66666700  0.33333300  0.75000000  1
  S  S0  1  0.33160219  0.33399218  0.36866881  1
  S  S1  1  0.66600782  0.99760901  0.36866881  1
  S  S2  1  0.00239099  0.66839781  0.36866881  1
  S  S3  1  0.33399218  0.33160219  0.63133119  1
  S  S4  1  0.99760901  0.66600782  0.63133119  1
  S  S5  1  0.66839781  0.00239099  0.63133119  1
  S  S6  1  0.66839781  0.66600782  0.86866881  1
  S  S7  1  0.33399218  0.00239099  0.86866881  1
  S  S8  1  0.99760901  0.33160219  0.86866881  1
  S  S9  1  0.66600782  0.66839781  0.13133119  1
  S  S10  1  0.00239099  0.33399218  0.13133119  1
  S  S11  1  0.33160219  0.99760901  0.13133119  1
loop_
_geom_bond_atom_site_label_1
_geom_bond_atom_site_label_2
_geom_bond_distance
_geom_bond_site_symmetry_2
Nb0 S1 2.502402 1_445
Nb0 S4 2.502402 1_445
Nb0 S3 2.502405 1_555
Nb0 S0 2.502405 1_555
Nb0 S5 2.502407 1_455
Nb0 S2 2.502407 1_545
Nb1 S7 2.502402 1_554
Nb1 S10 2.502402 1_555
Nb1 S9 2.502405 1_445
Nb1 S6 2.502405 1_444
Nb1 S11 2.502407 1_545
Nb1 S8 2.502407 1_454
Nb2 S6 2.489077 1_555
Nb2 S7 2.489077 1_565
Nb2 S8 2.489078 1_455
Nb2 S11 2.523481 1_556
Nb2 S10 2.523486 1_556
Nb2 S9 2.523490 1_556
Nb3 S10 2.489077 1_655
Nb3 S9 2.489077 1_555
Nb3 S11 2.489078 1_545
Nb3 S8 2.523481 1_554
Nb3 S7 2.523486 1_554
Nb3 S6 2.523490 1_554
Nb4 S0 2.489077 1_555
Nb4 S1 2.489077 1_545
Nb4 S2 2.489078 1_655
Nb4 S5 2.523481 1_555
Nb4 S4 2.523486 1_555
Nb4 S3 2.523490 1_555
Nb5 S4 2.489077 1_455
Nb5 S3 2.489077 1_555
Nb5 S5 2.489078 1_565
Nb5 S2 2.523481 1_555
Nb5 S1 2.523486 1_555
Nb5 S0 2.523490 1_555
Al0 S2 2.403648 1_555
Al0 S11 2.403648 1_555
Al0 S1 2.403653 1_555
Al0 S10 2.403653 1_555
Al0 S9 2.403657 1_555
Al0 S0 2.403657 1_555
Al1 S8 2.403648 1_555
Al1 S5 2.403648 1_555
Al1 S7 2.403653 1_555
Al1 S4 2.403653 1_555
Al1 S3 2.403657 1_555
Al1 S6 2.403657 1_555
