# generated using pymatgen
data_RbNbSe2O7
_symmetry_space_group_name_H-M   'P 1'
_cell_length_a   7.01274371
_cell_length_b   7.01274420
_cell_length_c   7.49384061
_cell_angle_alpha   90.00000000
_cell_angle_beta   90.00000000
_cell_angle_gamma   106.32063582
_symmetry_Int_Tables_number   1
_chemical_formula_structural   RbNbSe2O7
_chemical_formula_sum   'Rb2 Nb2 Se4 O14'
_cell_volume   353.68593278
_cell_formula_units_Z   2
loop_
 _symmetry_equiv_pos_site_id
 _symmetry_equiv_pos_as_xyz
  1  'x, y, z'
loop_
 _atom_site_type_symbol
 _atom_site_label
 _atom_site_symmetry_multiplicity
 _atom_site_fract_x
 _atom_site_fract_y
 _atom_site_fract_z
 _atom_site_occupancy
  Rb  Rb0  1  0.94130925  0.94130925  0.32882868  1
  Rb  Rb1  1  0.05869075  0.05869075  0.82882868  1
  Nb  Nb0  1  0.51982312  0.51982312  0.91063194  1
  Nb  Nb1  1  0.48017688  0.48017688  0.41063194  1
  Se  Se0  1  0.51998467  0.93923004  0.62971260  1
  Se  Se1  1  0.93923004  0.51998467  0.62971260  1
  Se  Se2  1  0.48001533  0.06076996  0.12971260  1
  Se  Se3  1  0.06076996  0.48001533  0.12971260  1
  O  O0  1  0.54496956  0.79374107  0.81452229  1
  O  O1  1  0.79374107  0.54496956  0.81452229  1
  O  O2  1  0.45503044  0.20625893  0.31452229  1
  O  O3  1  0.20625893  0.45503044  0.31452229  1
  O  O4  1  0.52184808  0.77492570  0.45319698  1
  O  O5  1  0.77492570  0.52184808  0.45319698  1
  O  O6  1  0.47815192  0.22507430  0.95319698  1
  O  O7  1  0.22507430  0.47815192  0.95319698  1
  O  O8  1  0.74649351  0.08876339  0.61278245  1
  O  O9  1  0.08876339  0.74649351  0.61278245  1
  O  O10  1  0.25350649  0.91123661  0.11278245  1
  O  O11  1  0.91123661  0.25350649  0.11278245  1
  O  O12  1  0.41421312  0.41421312  0.64304973  1
  O  O13  1  0.58578688  0.58578688  0.14304973  1
loop_
_geom_bond_atom_site_label_1
_geom_bond_atom_site_label_2
_geom_bond_distance
_geom_bond_site_symmetry_2
Nb0 O13 1.827904 1_556
Nb0 O1 2.012304 1_555
Nb0 O0 2.012304 1_555
Nb0 O7 2.029813 1_555
Nb0 O6 2.029813 1_555
Nb0 O12 2.193091 1_555
Nb1 O12 1.827904 1_555
Nb1 O3 2.012304 1_555
Nb1 O2 2.012304 1_555
Nb1 O5 2.029813 1_555
Nb1 O4 2.029813 1_555
Nb1 O13 2.193091 1_555
O0 Se0 1.757890 1_555
O1 Se1 1.757890 1_555
O2 Se2 1.757890 1_555
O3 Se3 1.757890 1_555
O4 Se0 1.756702 1_555
O4 Rb0 2.992307 1_555
O5 Se1 1.756702 1_555
O5 Rb0 2.992307 1_555
O6 Se2 1.756702 1_556
O6 Rb1 2.992307 1_555
O7 Se3 1.756702 1_556
O7 Rb1 2.992307 1_555
O8 Se0 1.644001 1_545
O8 Rb1 2.778215 1_655
O8 Rb0 2.873625 1_545
O9 Se1 1.644001 1_455
O9 Rb1 2.778215 1_565
O9 Rb0 2.873625 1_455
O10 Se2 1.644001 1_565
O10 Rb0 2.778215 1_455
O10 Rb1 2.873625 1_564
O11 Se3 1.644001 1_655
O11 Rb0 2.778215 1_545
O11 Rb1 2.873625 1_654
O12 Rb1 3.297976 1_555
O13 Rb0 3.297976 1_555
