# generated using pymatgen
data_HfMn2TcBr12
_symmetry_space_group_name_H-M   'P 1'
_cell_length_a   6.65688509
_cell_length_b   6.65688588
_cell_length_c   12.87037259
_cell_angle_alpha   90.00000000
_cell_angle_beta   90.00000000
_cell_angle_gamma   120.00000552
_symmetry_Int_Tables_number   1
_chemical_formula_structural   HfMn2TcBr12
_chemical_formula_sum   'Hf1 Mn2 Tc1 Br12'
_cell_volume   493.92828756
_cell_formula_units_Z   1
loop_
 _symmetry_equiv_pos_site_id
 _symmetry_equiv_pos_as_xyz
  1  'x, y, z'
loop_
 _atom_site_type_symbol
 _atom_site_label
 _atom_site_symmetry_multiplicity
 _atom_site_fract_x
 _atom_site_fract_y
 _atom_site_fract_z
 _atom_site_occupancy
  Hf  Hf0  1  0.66666700  0.33333300  0.75000000  1
  Mn  Mn0  1  0.00000000  0.00000000  0.25000000  1
  Mn  Mn1  1  0.00000000  0.00000000  0.75000000  1
  Tc  Tc0  1  0.33333300  0.66666700  0.25000000  1
  Br  Br0  1  0.64842401  0.96911101  0.13572741  1
  Br  Br1  1  0.03088899  0.67931200  0.13572741  1
  Br  Br2  1  0.32068800  0.35157599  0.13572741  1
  Br  Br3  1  0.03088899  0.35157599  0.36427259  1
  Br  Br4  1  0.34160612  0.31989262  0.63177350  1
  Br  Br5  1  0.68010738  0.02171451  0.63177350  1
  Br  Br6  1  0.97828549  0.65839388  0.63177350  1
  Br  Br7  1  0.68010738  0.65839388  0.86822650  1
  Br  Br8  1  0.97828549  0.31989262  0.86822650  1
  Br  Br9  1  0.34160612  0.02171451  0.86822650  1
  Br  Br10  1  0.64842401  0.67931200  0.36427259  1
  Br  Br11  1  0.32068800  0.96911101  0.36427259  1
loop_
_geom_bond_atom_site_label_1
_geom_bond_atom_site_label_2
_geom_bond_distance
_geom_bond_site_symmetry_2
Br0 Tc0 2.528469 1_555
Br0 Mn0 2.683573 1_665
Br1 Tc0 2.528464 1_555
Br1 Mn0 2.683579 1_565
Br2 Tc0 2.528475 1_555
Br2 Mn0 2.683575 1_555
Br3 Tc0 2.528469 1_555
Br3 Mn0 2.683573 1_555
Br4 Hf0 2.610011 1_555
Br4 Mn1 2.679318 1_555
Br5 Hf0 2.610000 1_555
Br5 Mn1 2.679321 1_655
Br6 Hf0 2.610006 1_555
Br6 Mn1 2.679316 1_665
Br7 Hf0 2.610011 1_555
Br7 Mn1 2.679318 1_665
Br8 Hf0 2.610000 1_555
Br8 Mn1 2.679321 1_655
Br9 Hf0 2.610006 1_555
Br9 Mn1 2.679315 1_555
Br10 Tc0 2.528474 1_555
Br10 Mn0 2.683575 1_665
Br11 Tc0 2.528464 1_555
Br11 Mn0 2.683578 1_565
