# generated using pymatgen
data_Cs3Rb2CuAs2
_symmetry_space_group_name_H-M   'P 1'
_cell_length_a   6.10820211
_cell_length_b   6.10820070
_cell_length_c   19.93515004
_cell_angle_alpha   90.00000000
_cell_angle_beta   90.00000000
_cell_angle_gamma   119.99999711
_symmetry_Int_Tables_number   1
_chemical_formula_structural   Cs3Rb2CuAs2
_chemical_formula_sum   'Cs6 Rb4 Cu2 As4'
_cell_volume   644.13492995
_cell_formula_units_Z   2
loop_
 _symmetry_equiv_pos_site_id
 _symmetry_equiv_pos_as_xyz
  1  'x, y, z'
loop_
 _atom_site_type_symbol
 _atom_site_label
 _atom_site_symmetry_multiplicity
 _atom_site_fract_x
 _atom_site_fract_y
 _atom_site_fract_z
 _atom_site_occupancy
  Cs  Cs0  1  0.33333300  0.66666700  0.54945143  1
  Cs  Cs1  1  0.66666700  0.33333300  0.04945143  1
  Cs  Cs2  1  0.66666700  0.33333300  0.45054857  1
  Cs  Cs3  1  0.33333300  0.66666700  0.95054857  1
  Cs  Cs4  1  0.33333300  0.66666700  0.75000000  1
  Cs  Cs5  1  0.66666700  0.33333300  0.25000000  1
  Rb  Rb0  1  0.00000000  0.00000000  0.15115709  1
  Rb  Rb1  1  0.00000000  0.00000000  0.65115709  1
  Rb  Rb2  1  0.00000000  0.00000000  0.84884291  1
  Rb  Rb3  1  0.00000000  0.00000000  0.34884291  1
  Cu  Cu0  1  0.33333300  0.66666700  0.25000000  1
  Cu  Cu1  1  0.66666700  0.33333300  0.75000000  1
  As  As0  1  0.33333300  0.66666700  0.36644855  1
  As  As1  1  0.66666700  0.33333300  0.86644855  1
  As  As2  1  0.66666700  0.33333300  0.63355145  1
  As  As3  1  0.33333300  0.66666700  0.13355145  1
loop_
_geom_bond_atom_site_label_1
_geom_bond_atom_site_label_2
_geom_bond_distance
_geom_bond_site_symmetry_2
Cs4 Cu1 3.526568 1_565
Cs4 Cu1 3.526569 1_455
Cs4 Cu1 3.526579 1_555
Cs5 Cu0 3.526568 1_545
Cs5 Cu0 3.526569 1_655
Cs5 Cu0 3.526579 1_555
As0 Cu0 2.321419 1_555
As0 Rb3 3.543990 1_565
As0 Rb3 3.543995 1_555
As0 Rb3 3.543996 1_665
As0 Cs0 3.648190 1_555
As0 Cs2 3.904803 1_565
As0 Cs2 3.904804 1_455
As0 Cs2 3.904813 1_555
As1 Cu1 2.321419 1_555
As1 Rb2 3.543990 1_655
As1 Rb2 3.543995 1_665
As1 Rb2 3.543996 1_555
As1 Cs1 3.648190 1_556
As1 Cs3 3.904803 1_545
As1 Cs3 3.904804 1_655
As1 Cs3 3.904813 1_555
As2 Cu1 2.321419 1_555
As2 Rb1 3.543990 1_655
As2 Rb1 3.543995 1_665
As2 Rb1 3.543996 1_555
As2 Cs2 3.648190 1_555
As2 Cs0 3.904803 1_545
As2 Cs0 3.904804 1_655
As2 Cs0 3.904813 1_555
As3 Cu0 2.321419 1_555
As3 Rb0 3.543990 1_565
As3 Rb0 3.543995 1_555
As3 Rb0 3.543996 1_665
As3 Cs3 3.648190 1_554
As3 Cs1 3.904803 1_565
As3 Cs1 3.904804 1_455
As3 Cs1 3.904813 1_555
