# generated using pymatgen
data_Sr5Ge2BiH
_symmetry_space_group_name_H-M   'P 1'
_cell_length_a   9.76257693
_cell_length_b   9.76257645
_cell_length_c   9.76257689
_cell_angle_alpha   129.18469707
_cell_angle_beta   129.18469357
_cell_angle_gamma   74.71357230
_symmetry_Int_Tables_number   1
_chemical_formula_structural   Sr5Ge2BiH
_chemical_formula_sum   'Sr10 Ge4 Bi2 H2'
_cell_volume   544.60089720
_cell_formula_units_Z   2
loop_
 _symmetry_equiv_pos_site_id
 _symmetry_equiv_pos_as_xyz
  1  'x, y, z'
loop_
 _atom_site_type_symbol
 _atom_site_label
 _atom_site_symmetry_multiplicity
 _atom_site_fract_x
 _atom_site_fract_y
 _atom_site_fract_z
 _atom_site_occupancy
  Sr  Sr0  1  0.50000000  0.50000000  0.00000000  1
  Sr  Sr1  1  0.00000000  0.00000000  0.00000000  1
  Sr  Sr2  1  0.52119115  0.02119115  0.82447908  1
  Sr  Sr3  1  0.19671208  0.69671208  0.17552092  1
  Sr  Sr4  1  0.02119115  0.19671208  0.50000000  1
  Sr  Sr5  1  0.69671208  0.52119115  0.50000000  1
  Sr  Sr6  1  0.47880885  0.97880885  0.17552092  1
  Sr  Sr7  1  0.80328792  0.30328792  0.82447908  1
  Sr  Sr8  1  0.97880885  0.80328792  0.50000000  1
  Sr  Sr9  1  0.30328792  0.47880885  0.50000000  1
  Ge  Ge0  1  0.88279616  0.38279616  0.26559432  1
  Ge  Ge1  1  0.11720384  0.61720384  0.73440568  1
  Ge  Ge2  1  0.38279616  0.11720384  0.50000000  1
  Ge  Ge3  1  0.61720384  0.88279616  0.50000000  1
  Bi  Bi0  1  0.25000000  0.25000000  0.00000000  1
  Bi  Bi1  1  0.75000000  0.75000000  0.00000000  1
  H  H0  1  0.25000000  0.75000000  0.50000000  1
  H  H1  1  0.75000000  0.25000000  0.50000000  1
loop_
_geom_bond_atom_site_label_1
_geom_bond_atom_site_label_2
_geom_bond_distance
_geom_bond_site_symmetry_2
Ge0 Ge1 2.777099 1_655
Ge0 Sr5 3.227162 1_555
Ge0 Sr4 3.227162 1_655
Ge0 Sr8 3.227183 1_555
Ge0 Sr9 3.227183 1_655
Ge0 Sr1 3.353780 1_655
Ge0 Sr0 3.353780 1_555
Ge0 Sr2 3.408801 1_554
Ge0 Sr7 3.408821 1_554
Ge1 Sr9 3.227162 1_555
Ge1 Sr8 3.227162 1_455
Ge1 Sr4 3.227183 1_555
Ge1 Sr5 3.227183 1_455
Ge1 Sr1 3.353780 1_566
Ge1 Sr0 3.353780 1_556
Ge1 Sr6 3.408801 1_556
Ge1 Sr3 3.408821 1_556
Ge2 Ge3 2.777123 1_545
Ge2 Sr3 3.227177 1_545
Ge2 Sr6 3.227177 1_545
Ge2 Sr2 3.227177 1_555
Ge2 Sr7 3.227177 1_555
Ge2 Sr0 3.353774 1_556
Ge2 Sr1 3.353775 1_555
Ge2 Sr9 3.408801 1_555
Ge2 Sr4 3.408802 1_555
Ge3 Sr7 3.227177 1_565
Ge3 Sr2 3.227177 1_565
Ge3 Sr6 3.227177 1_555
Ge3 Sr3 3.227177 1_555
Ge3 Sr0 3.353774 1_555
Ge3 Sr1 3.353775 1_666
Ge3 Sr5 3.408801 1_555
Ge3 Sr8 3.408802 1_555
Bi0 Sr3 3.565508 1_555
Bi0 Sr8 3.565509 1_444
Bi0 Sr2 3.565509 1_554
Bi0 Sr6 3.565509 1_545
Bi0 Sr9 3.565509 1_555
Bi0 Sr5 3.565509 1_555
Bi0 Sr4 3.565509 1_554
Bi0 Sr7 3.565509 1_454
Bi0 Sr1 3.880002 1_555
Bi0 Sr0 3.880002 1_555
Bi1 Sr7 3.565508 1_554
Bi1 Sr4 3.565509 1_665
Bi1 Sr6 3.565509 1_555
Bi1 Sr2 3.565509 1_564
Bi1 Sr5 3.565509 1_554
Bi1 Sr9 3.565509 1_554
Bi1 Sr8 3.565509 1_555
Bi1 Sr3 3.565509 1_655
Bi1 Sr1 3.880002 1_665
Bi1 Sr0 3.880002 1_555
H0 Sr9 2.560035 1_555
H0 Sr2 2.560035 1_565
H0 Sr3 2.560035 1_555
H0 Sr8 2.560035 1_455
H1 Sr5 2.560035 1_555
H1 Sr6 2.560035 1_545
H1 Sr7 2.560035 1_555
H1 Sr4 2.560035 1_655
