# generated using pymatgen
data_Ag6BiNO11
_symmetry_space_group_name_H-M   'P 1'
_cell_length_a   7.00216667
_cell_length_b   7.00216667
_cell_length_c   7.00216750
_cell_angle_alpha   61.99994697
_cell_angle_beta   61.99994839
_cell_angle_gamma   61.99994478
_symmetry_Int_Tables_number   1
_chemical_formula_structural   Ag6BiNO11
_chemical_formula_sum   'Ag6 Bi1 N1 O11'
_cell_volume   253.62268608
_cell_formula_units_Z   1
loop_
 _symmetry_equiv_pos_site_id
 _symmetry_equiv_pos_as_xyz
  1  'x, y, z'
loop_
 _atom_site_type_symbol
 _atom_site_label
 _atom_site_symmetry_multiplicity
 _atom_site_fract_x
 _atom_site_fract_y
 _atom_site_fract_z
 _atom_site_occupancy
  Ag  Ag0  1  0.49799000  0.00094469  0.00094469  1
  Ag  Ag1  1  0.50019675  0.50019675  0.00018936  1
  Ag  Ag2  1  0.50019675  0.00018936  0.50019675  1
  Ag  Ag3  1  0.00094469  0.00094469  0.49799000  1
  Ag  Ag4  1  0.00018936  0.50019675  0.50019675  1
  Ag  Ag5  1  0.00094469  0.49799000  0.00094469  1
  Bi  Bi0  1  0.99869726  0.99869726  0.99869726  1
  N  N0  1  0.50033733  0.50033733  0.50033733  1
  O  O0  1  0.57402148  0.14778451  0.14778451  1
  O  O1  1  0.14778451  0.57402148  0.14778451  1
  O  O2  1  0.14343456  0.14343456  0.14343456  1
  O  O3  1  0.14778451  0.14778451  0.57402148  1
  O  O4  1  0.60094258  0.60094258  0.29900888  1
  O  O5  1  0.60094258  0.29900888  0.60094258  1
  O  O6  1  0.29900888  0.60094258  0.60094258  1
  O  O7  1  0.85295786  0.85295786  0.42412066  1
  O  O8  1  0.85295786  0.42412066  0.85295786  1
  O  O9  1  0.85654667  0.85654667  0.85654667  1
  O  O10  1  0.42412066  0.85295786  0.85295786  1
loop_
_geom_bond_atom_site_label_1
_geom_bond_atom_site_label_2
_geom_bond_distance
_geom_bond_site_symmetry_2
Ag0 O0 2.102000 1_555
Ag0 O10 2.104712 1_544
Ag0 O2 2.106570 1_555
Ag0 O9 2.130946 1_544
Ag0 O4 2.597816 1_545
Ag0 O5 2.597816 1_554
Ag1 O0 2.081810 1_555
Ag1 O1 2.081810 1_555
Ag1 O10 2.082569 1_554
Ag1 O8 2.082569 1_554
Ag2 O3 2.081810 1_555
Ag2 O0 2.081810 1_555
Ag2 O7 2.082569 1_545
Ag2 O10 2.082569 1_545
Ag3 O3 2.102000 1_555
Ag3 O7 2.104712 1_445
Ag3 O2 2.106570 1_555
Ag3 O9 2.130946 1_445
Ag3 O6 2.597816 1_545
Ag3 O5 2.597816 1_455
Ag4 O3 2.081809 1_555
Ag4 O1 2.081810 1_555
Ag4 O7 2.082569 1_455
Ag4 O8 2.082569 1_455
Ag5 O1 2.102000 1_555
Ag5 O8 2.104712 1_454
Ag5 O2 2.106570 1_555
Ag5 O9 2.130946 1_454
Ag5 O4 2.597816 1_455
Ag5 O6 2.597816 1_554
Bi0 O9 2.400626 1_555
Bi0 O2 2.444310 1_666
Bi0 O1 2.493177 1_656
Bi0 O0 2.493177 1_566
Bi0 O3 2.493177 1_665
Bi0 O8 2.495143 1_565
Bi0 O10 2.495143 1_655
Bi0 O7 2.495143 1_556
N0 O5 1.257339 1_555
N0 O6 1.257339 1_555
N0 O4 1.257339 1_555
