# generated using pymatgen
data_Hf6Si6Tc5Pd
_symmetry_space_group_name_H-M   'P 1'
_cell_length_a   7.70265641
_cell_length_b   7.70273740
_cell_length_c   7.70273769
_cell_angle_alpha   126.92876102
_cell_angle_beta   127.11323451
_cell_angle_gamma   78.21676874
_symmetry_Int_Tables_number   1
_chemical_formula_structural   Hf6Si6Tc5Pd
_chemical_formula_sum   'Hf6 Si6 Tc5 Pd1'
_cell_volume   282.20253835
_cell_formula_units_Z   1
loop_
 _symmetry_equiv_pos_site_id
 _symmetry_equiv_pos_as_xyz
  1  'x, y, z'
loop_
 _atom_site_type_symbol
 _atom_site_label
 _atom_site_symmetry_multiplicity
 _atom_site_fract_x
 _atom_site_fract_y
 _atom_site_fract_z
 _atom_site_occupancy
  Hf  Hf0  1  0.54360186  0.09262447  0.04437973  1
  Hf  Hf1  1  0.45639814  0.50077787  0.54902161  1
  Hf  Hf2  1  0.95187162  0.50080848  0.04429665  1
  Hf  Hf3  1  0.04812838  0.09242503  0.54893786  1
  Hf  Hf4  1  0.74691950  0.89647998  0.64335380  1
  Hf  Hf5  1  0.25308050  0.89643430  0.14955948  1
  Si  Si0  1  0.33469860  0.83333842  0.49887193  1
  Si  Si1  1  0.66530140  0.16417333  0.49863882  1
  Si  Si2  1  0.83350456  0.83053791  0.99693789  1
  Si  Si3  1  0.16649544  0.16343333  0.99703136  1
  Si  Si4  1  0.74556676  0.49459507  0.24008471  1
  Si  Si5  1  0.25443324  0.49451894  0.74902930  1
  Tc  Tc0  1  0.12615767  0.74732663  0.62117091  1
  Tc  Tc1  1  0.87384233  0.49501324  0.62116896  1
  Tc  Tc2  1  0.62703969  0.75275001  0.12574274  1
  Tc  Tc3  1  0.37296031  0.49870305  0.12571132  1
  Tc  Tc4  1  0.50000000  0.24479649  0.74479649  1
  Pd  Pd0  1  0.00000000  0.24526644  0.24526644  1
loop_
_geom_bond_atom_site_label_1
_geom_bond_atom_site_label_2
_geom_bond_distance
_geom_bond_site_symmetry_2
Hf0 Si3 2.679819 1_554
Hf0 Si0 2.702383 1_544
Hf0 Si1 2.713154 1_555
Hf0 Si2 2.729933 1_544
Hf0 Si4 2.794276 1_555
Hf0 Tc2 2.908241 1_545
Hf0 Tc0 2.909421 1_544
Hf0 Tc1 2.975020 1_555
Hf0 Tc3 2.977220 1_555
Hf0 Tc4 2.994326 1_554
Hf0 Pd0 3.012090 1_655
Hf1 Si2 2.679825 1_555
Hf1 Si1 2.702383 1_555
Hf1 Si0 2.713158 1_555
Hf1 Si3 2.729937 1_554
Hf1 Si5 2.794287 1_555
Hf1 Tc3 2.908226 1_555
Hf1 Tc1 2.909418 1_555
Hf1 Tc0 2.975023 1_555
Hf1 Tc2 2.977228 1_556
Hf1 Tc4 2.994332 1_555
Hf1 Pd0 3.012092 1_555
Hf2 Si2 2.679781 1_554
Hf2 Si1 2.703179 1_554
Hf2 Si0 2.713649 1_655
Hf2 Si3 2.730138 1_654
Hf2 Si4 2.794955 1_555
Hf2 Tc3 2.906874 1_655
Hf2 Tc1 2.908270 1_554
Hf2 Tc0 2.975906 1_655
Hf2 Tc2 2.977951 1_555
Hf2 Tc4 2.995340 1_554
Hf2 Pd0 3.013173 1_655
Hf3 Si3 2.679759 1_555
Hf3 Si0 2.703177 1_545
Hf3 Si1 2.713643 1_455
Hf3 Si2 2.730145 1_444
Hf3 Si5 2.794961 1_555
Hf3 Tc2 2.906877 1_445
Hf3 Tc0 2.908265 1_545
Hf3 Tc1 2.975908 1_455
Hf3 Tc3 2.977951 1_556
Hf3 Tc4 2.995343 1_555
Hf3 Pd0 3.013180 1_555
Hf4 Si0 2.696826 1_555
Hf4 Si1 2.697469 1_565
Hf4 Si3 2.729917 1_665
Hf4 Si2 2.729935 1_555
Hf4 Si4 2.766081 1_555
Hf4 Tc4 2.935391 1_565
Hf4 Tc2 2.940270 1_555
Hf4 Tc3 2.940652 1_555
Hf4 Pd0 2.962785 1_666
Hf4 Tc0 2.979594 1_655
Hf4 Tc1 2.979889 1_555
Hf5 Si1 2.696826 1_565
Hf5 Si0 2.697471 1_555
Hf5 Si2 2.729918 1_454
Hf5 Si3 2.729940 1_564
Hf5 Si5 2.766070 1_554
Hf5 Tc4 2.935396 1_565
Hf5 Tc3 2.940275 1_555
Hf5 Tc2 2.940650 1_555
Hf5 Pd0 2.962786 1_565
Hf5 Tc1 2.979592 1_454
Hf5 Tc0 2.979882 1_554
Si0 Tc4 2.603366 1_565
Si0 Tc3 2.608055 1_555
Si0 Tc0 2.630092 1_555
Si1 Tc4 2.603373 1_555
Si1 Tc2 2.608057 1_545
Si1 Tc1 2.630087 1_555
Si2 Tc2 2.623007 1_556
Si2 Tc1 2.630996 1_555
Si3 Tc3 2.622994 1_556
Si3 Tc0 2.630991 1_545
Si4 Tc4 2.406651 1_554
Si4 Tc2 2.440501 1_555
Si4 Tc3 2.441198 1_555
Si4 Tc0 2.465715 1_655
Si4 Tc1 2.466302 1_555
Si5 Tc4 2.406655 1_555
Si5 Tc3 2.440506 1_556
Si5 Tc2 2.441193 1_556
Si5 Tc1 2.465712 1_455
Si5 Tc0 2.466299 1_555
Pd0 Si4 2.447716 1_455
Pd0 Si5 2.447721 1_555
Pd0 Si2 2.622752 1_444
Pd0 Si3 2.622765 1_554
Pd0 Tc0 2.994586 1_555
Pd0 Tc1 2.994586 1_455
