# generated using pymatgen
data_ErInPt
_symmetry_space_group_name_H-M   'P 1'
_cell_length_a   7.59379040
_cell_length_b   7.59379127
_cell_length_c   3.81759868
_cell_angle_alpha   90.00000000
_cell_angle_beta   90.00000000
_cell_angle_gamma   120.00000058
_symmetry_Int_Tables_number   1
_chemical_formula_structural   ErInPt
_chemical_formula_sum   'Er3 In3 Pt3'
_cell_volume   190.65059375
_cell_formula_units_Z   3
loop_
 _symmetry_equiv_pos_site_id
 _symmetry_equiv_pos_as_xyz
  1  'x, y, z'
loop_
 _atom_site_type_symbol
 _atom_site_label
 _atom_site_symmetry_multiplicity
 _atom_site_fract_x
 _atom_site_fract_y
 _atom_site_fract_z
 _atom_site_occupancy
  Er  Er0  1  0.59456316  0.00000000  0.50000000  1
  Er  Er1  1  0.40543684  0.40543684  0.50000000  1
  Er  Er2  1  -0.00000000  0.59456316  0.50000000  1
  In  In0  1  0.73777548  0.73777548  -0.00000000  1
  In  In1  1  -0.00000000  0.26222452  0.00000000  1
  In  In2  1  0.26222452  0.00000000  -0.00000000  1
  Pt  Pt0  1  0.33333300  0.66666700  0.00000000  1
  Pt  Pt1  1  0.66666700  0.33333300  0.00000000  1
  Pt  Pt2  1  0.00000000  -0.00000000  0.50000000  1
loop_
_geom_bond_atom_site_label_1
_geom_bond_atom_site_label_2
_geom_bond_distance
_geom_bond_site_symmetry_2
Er0 Pt1 2.994099 1_555
Er0 Pt1 2.994099 1_556
Er0 Pt0 2.994101 1_546
Er0 Pt0 2.994101 1_545
Er0 Pt2 3.078802 1_655
Er0 In2 3.164274 1_556
Er0 In2 3.164274 1_555
Er0 In1 3.310132 1_655
Er0 In1 3.310132 1_656
Er0 In0 3.310132 1_545
Er0 In0 3.310132 1_546
Er1 Pt1 2.994105 1_555
Er1 Pt1 2.994105 1_556
Er1 Pt0 2.994105 1_555
Er1 Pt0 2.994105 1_556
Er1 Pt2 3.078803 1_555
Er1 In0 3.164274 1_555
Er1 In0 3.164274 1_556
Er1 In1 3.310132 1_555
Er1 In1 3.310132 1_556
Er1 In2 3.310133 1_556
Er1 In2 3.310133 1_555
Er2 Pt0 2.994099 1_556
Er2 Pt0 2.994099 1_555
Er2 Pt1 2.994101 1_455
Er2 Pt1 2.994101 1_456
Er2 Pt2 3.078803 1_565
Er2 In1 3.164274 1_555
Er2 In1 3.164274 1_556
Er2 In0 3.310132 1_455
Er2 In0 3.310132 1_456
Er2 In2 3.310132 1_566
Er2 In2 3.310132 1_565
In0 Pt2 2.758388 1_664
In0 Pt2 2.758388 1_665
In0 Pt0 2.840025 1_555
In0 Pt1 2.840026 1_555
In1 Pt2 2.758388 1_555
In1 Pt2 2.758388 1_554
In1 Pt1 2.840018 1_455
In1 Pt0 2.840023 1_555
In2 Pt2 2.758388 1_555
In2 Pt2 2.758388 1_554
In2 Pt0 2.840018 1_545
In2 Pt1 2.840023 1_555
