# generated using pymatgen
data_Zn22OsPt3
_symmetry_space_group_name_H-M   'P 1'
_cell_length_a   7.83603030
_cell_length_b   7.84769305
_cell_length_c   7.83603100
_cell_angle_alpha   109.50138196
_cell_angle_beta   109.44105573
_cell_angle_gamma   109.50137355
_symmetry_Int_Tables_number   1
_chemical_formula_structural   Zn22OsPt3
_chemical_formula_sum   'Zn22 Os1 Pt3'
_cell_volume   370.80924212
_cell_formula_units_Z   1
loop_
 _symmetry_equiv_pos_site_id
 _symmetry_equiv_pos_as_xyz
  1  'x, y, z'
loop_
 _atom_site_type_symbol
 _atom_site_label
 _atom_site_symmetry_multiplicity
 _atom_site_fract_x
 _atom_site_fract_y
 _atom_site_fract_z
 _atom_site_occupancy
  Zn  Zn0  1  0.73068299  0.37729814  0.73068299  1
  Zn  Zn1  1  0.62330129  0.34854305  0.35092872  1
  Zn  Zn2  1  0.35092872  0.34854305  0.62330129  1
  Zn  Zn3  1  0.65072917  0.27080043  1.00000000  1
  Zn  Zn4  1  0.20953808  0.21465914  0.20953808  1
  Zn  Zn5  1  0.00000000  0.00512207  0.79046192  1
  Zn  Zn6  1  0.79046192  0.00512207  0.00000000  1
  Zn  Zn7  1  0.00000000  0.77380590  0.00000000  1
  Zn  Zn8  1  0.35872859  0.35796988  0.00000000  1
  Zn  Zn9  1  0.00000000  0.65173198  0.63671756  1
  Zn  Zn10  1  0.00000000  0.35796988  0.35872859  1
  Zn  Zn11  1  0.36328244  0.01501441  0.36328244  1
  Zn  Zn12  1  0.64127141  0.99924229  0.64127141  1
  Zn  Zn13  1  0.63671756  0.65173198  0.00000000  1
  Zn  Zn14  1  0.34927083  0.62007225  0.34927083  1
  Zn  Zn15  1  0.27237157  0.99761433  0.64907128  1
  Zn  Zn16  1  0.64907128  0.99761433  0.27237157  1
  Zn  Zn17  1  0.26931701  0.64661615  0.00000000  1
  Zn  Zn18  1  0.72762843  0.72524276  0.37669871  1
  Zn  Zn19  1  0.37669871  0.72524276  0.72762843  1
  Zn  Zn20  1  0.00000000  0.64661615  0.26931701  1
  Zn  Zn21  1  1.00000000  0.27080043  0.65072917  1
  Os  Os0  1  0.00000000  0.34836330  0.00000000  1
  Pt  Pt0  1  0.34648815  0.99691615  0.00000000  1
  Pt  Pt1  1  0.00000000  0.99691615  0.34648815  1
  Pt  Pt2  1  0.65351185  0.65042800  0.65351185  1
loop_
_geom_bond_atom_site_label_1
_geom_bond_atom_site_label_2
_geom_bond_distance
_geom_bond_site_symmetry_2
Zn0 Zn12 2.584878 1_545
Zn0 Zn7 2.618474 1_656
Zn0 Zn21 2.693113 1_555
Zn0 Zn3 2.693114 1_555
Zn0 Zn2 2.715181 1_555
Zn0 Zn1 2.715181 1_555
Zn0 Zn11 2.865806 1_555
Zn0 Zn13 2.948349 1_556
Zn0 Zn9 2.948349 1_655
Zn1 Zn9 2.596621 1_655
Zn1 Zn16 2.706713 1_545
Zn1 Zn18 2.706721 1_555
Zn1 Zn3 2.709454 1_554
Zn1 Zn4 2.720444 1_555
Zn1 Zn11 2.784167 1_555
Zn1 Zn8 2.882480 1_555
Zn1 Zn10 2.907499 1_655
Zn2 Zn21 2.709454 1_455
Zn2 Zn4 2.720444 1_555
Zn2 Zn8 2.907499 1_556
Zn3 Zn8 2.597795 1_556
Zn3 Zn6 2.658985 1_556
Zn4 Zn8 2.638261 1_555
Zn4 Zn6 2.680788 1_455
Zn4 Zn5 2.680788 1_554
Zn4 Zn7 2.825119 1_545
Zn5 Zn9 2.629042 1_545
Zn5 Zn8 2.638257 1_556
Zn5 Zn6 2.680789 1_456
Zn5 Zn7 2.825126 1_546
Zn6 Zn7 2.825126 1_645
Zn7 Zn9 2.683399 1_554
Zn10 Zn20 2.584894 1_555
Zn10 Zn9 2.589771 1_555
Zn10 Zn21 2.597796 1_455
Zn10 Zn6 2.638257 1_455
Zn10 Zn4 2.638261 1_555
Zn10 Zn3 2.864457 1_454
Zn10 Zn14 2.864460 1_555
Zn10 Zn16 2.882476 1_445
Zn10 Zn2 2.882480 1_555
Zn10 Zn19 2.907503 1_555
Zn11 Zn12 2.589767 1_545
Zn11 Zn16 2.596626 1_545
Zn11 Zn15 2.596626 1_545
Zn11 Zn4 2.629035 1_555
Zn11 Zn7 2.683398 1_545
Zn11 Zn2 2.784167 1_555
Zn11 Zn17 2.948344 1_545
Zn11 Zn20 2.948344 1_545
Zn11 Zn14 3.027848 1_545
Zn12 Zn14 2.597795 1_555
Zn12 Zn5 2.638261 1_665
Zn12 Zn6 2.638261 1_566
Zn12 Zn3 2.864453 1_565
Zn12 Zn21 2.864453 1_565
Zn12 Zn18 2.882485 1_555
Zn12 Zn19 2.882485 1_555
Zn12 Zn15 2.907504 1_555
Zn12 Zn16 2.907504 1_555
Zn13 Zn8 2.589772 1_555
Zn13 Zn18 2.596618 1_555
Zn13 Zn2 2.596621 1_554
Zn13 Zn6 2.629042 1_565
Zn13 Zn7 2.683398 1_655
Zn13 Zn16 2.784164 1_555
Zn13 Zn19 2.784168 1_554
Zn13 Zn17 2.865809 1_555
Zn13 Zn20 2.948344 1_655
Zn13 Zn3 3.027856 1_554
Zn14 Zn4 2.658999 1_555
Zn14 Zn20 2.693113 1_555
Zn14 Zn17 2.693114 1_555
Zn14 Zn18 2.709461 1_555
Zn14 Zn19 2.709461 1_555
Zn14 Zn8 2.864460 1_555
Zn15 Zn2 2.706714 1_565
Zn15 Zn19 2.706714 1_555
Zn15 Zn3 2.709457 1_565
Zn15 Zn20 2.715177 1_555
Zn15 Zn5 2.720438 1_565
Zn15 Zn9 2.784164 1_555
Zn15 Zn8 2.882476 1_566
Zn16 Zn18 2.706714 1_555
Zn16 Zn21 2.709457 1_565
Zn16 Zn17 2.715177 1_555
Zn16 Zn6 2.720438 1_565
Zn17 Zn8 2.584894 1_555
Zn17 Zn7 2.618470 1_555
Zn17 Zn21 2.693117 1_454
Zn17 Zn19 2.715174 1_554
Zn17 Zn9 2.948344 1_554
Zn18 Zn20 2.715173 1_655
Zn18 Zn5 2.720442 1_665
Zn18 Zn9 2.784168 1_655
Zn18 Zn8 2.907503 1_555
Zn19 Zn9 2.596618 1_555
Zn19 Zn2 2.706721 1_555
Zn19 Zn6 2.720442 1_566
Zn20 Zn7 2.618470 1_555
Zn20 Zn3 2.693117 1_454
Zn20 Zn9 2.865810 1_555
Zn21 Zn5 2.658985 1_655
Zn21 Zn8 2.864456 1_656
Zn21 Zn9 3.027856 1_655
Os0 Zn0 2.575680 1_454
Os0 Zn20 2.575685 1_555
Os0 Zn17 2.575685 1_555
Os0 Zn3 2.597853 1_454
Os0 Zn21 2.597853 1_454
Os0 Zn14 2.597853 1_555
Os0 Zn5 2.645525 1_554
Os0 Zn6 2.645526 1_455
Os0 Zn4 2.645532 1_555
Os0 Zn12 2.786744 1_444
Os0 Zn8 2.786747 1_555
Os0 Zn10 2.786747 1_555
Pt0 Zn19 2.606148 1_554
Pt0 Zn16 2.606153 1_555
Pt0 Zn17 2.610178 1_555
Pt0 Zn15 2.616920 1_554
Pt0 Zn1 2.616920 1_565
Pt0 Zn3 2.623397 1_564
Pt0 Zn7 2.695074 1_555
Pt0 Zn4 2.700291 1_565
Pt0 Zn5 2.700295 1_564
Pt0 Zn9 2.758504 1_554
Pt0 Zn11 2.758504 1_565
Pt0 Zn8 2.802878 1_565
Pt1 Zn18 2.606148 1_455
Pt1 Zn15 2.606153 1_555
Pt1 Zn20 2.610178 1_555
Pt1 Zn16 2.616920 1_455
Pt1 Zn2 2.616920 1_565
Pt1 Zn21 2.623396 1_465
Pt1 Zn7 2.695074 1_555
Pt1 Zn4 2.700291 1_565
Pt1 Zn6 2.700295 1_465
Pt1 Zn13 2.758504 1_455
Pt1 Zn11 2.758504 1_565
Pt1 Zn10 2.802878 1_565
Pt2 Zn1 2.606157 1_555
Pt2 Zn2 2.606157 1_555
Pt2 Zn0 2.610186 1_555
Pt2 Zn19 2.616928 1_555
Pt2 Zn18 2.616928 1_555
Pt2 Zn14 2.623401 1_555
Pt2 Zn7 2.695073 1_656
Pt2 Zn6 2.700295 1_566
Pt2 Zn5 2.700295 1_665
Pt2 Zn9 2.758504 1_655
Pt2 Zn13 2.758504 1_556
Pt2 Zn12 2.802886 1_555
