# generated using pymatgen
data_Zr10CoSn6Ge
_symmetry_space_group_name_H-M   'P 1'
_cell_length_a   8.67040323
_cell_length_b   8.67040316
_cell_length_c   5.88319812
_cell_angle_alpha   90.00000000
_cell_angle_beta   90.00000000
_cell_angle_gamma   119.99999271
_symmetry_Int_Tables_number   1
_chemical_formula_structural   Zr10CoSn6Ge
_chemical_formula_sum   'Zr10 Co1 Sn6 Ge1'
_cell_volume   383.02112280
_cell_formula_units_Z   1
loop_
 _symmetry_equiv_pos_site_id
 _symmetry_equiv_pos_as_xyz
  1  'x, y, z'
loop_
 _atom_site_type_symbol
 _atom_site_label
 _atom_site_symmetry_multiplicity
 _atom_site_fract_x
 _atom_site_fract_y
 _atom_site_fract_z
 _atom_site_occupancy
  Zr  Zr0  1  0.25701817  0.00000000  0.75705911  1
  Zr  Zr1  1  0.74298183  1.00000000  0.24294089  1
  Zr  Zr2  1  0.00000000  0.25701817  0.75705911  1
  Zr  Zr3  1  1.00000000  0.74298183  0.24294089  1
  Zr  Zr4  1  0.74298183  0.74298183  0.75705911  1
  Zr  Zr5  1  0.25701817  0.25701817  0.24294089  1
  Zr  Zr6  1  0.33333300  0.66666700  0.50000000  1
  Zr  Zr7  1  0.66666700  0.33333300  0.50000000  1
  Zr  Zr8  1  0.66666700  0.33333300  0.00000000  1
  Zr  Zr9  1  0.33333300  0.66666700  0.00000000  1
  Co  Co0  1  0.00000000  0.00000000  0.00000000  1
  Sn  Sn0  1  0.60797292  0.00000000  0.74806647  1
  Sn  Sn1  1  0.39202708  1.00000000  0.25193353  1
  Sn  Sn2  1  0.00000000  0.60797292  0.74806647  1
  Sn  Sn3  1  1.00000000  0.39202708  0.25193353  1
  Sn  Sn4  1  0.39202708  0.39202708  0.74806647  1
  Sn  Sn5  1  0.60797292  0.60797292  0.25193353  1
  Ge  Ge0  1  0.00000000  0.00000000  0.50000000  1
loop_
_geom_bond_atom_site_label_1
_geom_bond_atom_site_label_2
_geom_bond_distance
_geom_bond_site_symmetry_2
Co0 Zr2 2.647415 1_554
Co0 Zr3 2.647415 1_445
Co0 Zr0 2.647415 1_554
Co0 Zr1 2.647415 1_445
Co0 Zr5 2.647415 1_555
Co0 Zr4 2.647415 1_444
Sn0 Zr4 2.991260 1_545
Sn0 Zr2 2.991261 1_655
Sn0 Zr0 3.043379 1_555
Sn0 Zr7 3.044826 1_555
Sn0 Zr6 3.044829 1_545
Sn0 Zr8 3.055796 1_556
Sn0 Zr9 3.055799 1_546
Sn0 Zr1 3.137956 1_546
Sn0 Zr1 3.193992 1_545
Sn1 Zr5 2.991260 1_565
Sn1 Zr3 2.991261 1_455
Sn1 Zr1 3.043379 1_555
Sn1 Zr6 3.044826 1_555
Sn1 Zr7 3.044829 1_565
Sn1 Zr9 3.055796 1_555
Sn1 Zr8 3.055799 1_565
Sn1 Zr0 3.137956 1_564
Sn1 Zr0 3.193992 1_565
Sn2 Zr4 2.991260 1_455
Sn2 Zr0 2.991261 1_565
Sn2 Zr2 3.043379 1_555
Sn2 Zr6 3.044826 1_555
Sn2 Zr7 3.044829 1_455
Sn2 Zr9 3.055796 1_556
Sn2 Zr8 3.055799 1_456
Sn2 Zr3 3.137956 1_456
Sn2 Zr3 3.193992 1_455
Sn3 Zr5 2.991260 1_655
Sn3 Zr1 2.991261 1_545
Sn3 Zr3 3.043379 1_555
Sn3 Zr7 3.044826 1_555
Sn3 Zr6 3.044829 1_655
Sn3 Zr8 3.055796 1_555
Sn3 Zr9 3.055799 1_655
Sn3 Zr2 3.137956 1_654
Sn3 Zr2 3.193992 1_655
Sn4 Zr0 2.991261 1_555
Sn4 Zr2 2.991261 1_555
Sn4 Zr4 3.043379 1_555
Sn4 Zr6 3.044834 1_555
Sn4 Zr7 3.044834 1_555
Sn4 Zr9 3.055804 1_556
Sn4 Zr8 3.055804 1_556
Sn4 Zr5 3.137956 1_556
Sn4 Zr5 3.193992 1_555
Sn5 Zr1 2.991261 1_555
Sn5 Zr3 2.991261 1_555
Sn5 Zr5 3.043379 1_555
Sn5 Zr7 3.044834 1_555
Sn5 Zr6 3.044834 1_555
Sn5 Zr8 3.055804 1_555
Sn5 Zr9 3.055804 1_555
Sn5 Zr4 3.137956 1_554
Sn5 Zr4 3.193992 1_555
Ge0 Zr2 2.693165 1_555
Ge0 Zr3 2.693165 1_445
Ge0 Zr0 2.693165 1_555
Ge0 Zr1 2.693165 1_445
Ge0 Zr5 2.693165 1_555
Ge0 Zr4 2.693165 1_445
