# generated using pymatgen
data_CaSc6CoBr12
_symmetry_space_group_name_H-M   'P 1'
_cell_length_a   8.69471515
_cell_length_b   8.69471581
_cell_length_c   8.69471579
_cell_angle_alpha   106.55033557
_cell_angle_beta   106.55032973
_cell_angle_gamma   106.55033845
_symmetry_Int_Tables_number   1
_chemical_formula_structural   CaSc6CoBr12
_chemical_formula_sum   'Ca1 Sc6 Co1 Br12'
_cell_volume   553.98648000
_cell_formula_units_Z   1
loop_
 _symmetry_equiv_pos_site_id
 _symmetry_equiv_pos_as_xyz
  1  'x, y, z'
loop_
 _atom_site_type_symbol
 _atom_site_label
 _atom_site_symmetry_multiplicity
 _atom_site_fract_x
 _atom_site_fract_y
 _atom_site_fract_z
 _atom_site_occupancy
  Ca  Ca0  1  0.50000000  0.50000000  0.50000000  1
  Sc  Sc0  1  0.29867061  0.09280437  0.01841519  1
  Sc  Sc1  1  0.09280437  0.01841519  0.29867061  1
  Sc  Sc2  1  0.01841519  0.29867061  0.09280437  1
  Sc  Sc3  1  0.70132939  0.90719563  0.98158481  1
  Sc  Sc4  1  0.90719563  0.98158481  0.70132939  1
  Sc  Sc5  1  0.98158481  0.70132939  0.90719563  1
  Co  Co0  1  0.00000000  0.00000000  0.00000000  1
  Br  Br0  1  0.22283719  0.07492156  0.67918596  1
  Br  Br1  1  0.07492156  0.67918596  0.22283719  1
  Br  Br2  1  0.67918596  0.22283719  0.07492156  1
  Br  Br3  1  0.77716281  0.92507844  0.32081404  1
  Br  Br4  1  0.92507844  0.32081404  0.77716281  1
  Br  Br5  1  0.32081404  0.77716281  0.92507844  1
  Br  Br6  1  0.36692336  0.44433725  0.13706322  1
  Br  Br7  1  0.44433725  0.13706322  0.36692336  1
  Br  Br8  1  0.13706322  0.36692336  0.44433725  1
  Br  Br9  1  0.63307664  0.55566275  0.86293678  1
  Br  Br10  1  0.55566275  0.86293678  0.63307664  1
  Br  Br11  1  0.86293678  0.63307664  0.55566275  1
loop_
_geom_bond_atom_site_label_1
_geom_bond_atom_site_label_2
_geom_bond_distance
_geom_bond_site_symmetry_2
Co0 Sc0 2.432306 1_555
Co0 Sc3 2.432306 1_444
Co0 Sc2 2.432306 1_555
Co0 Sc5 2.432306 1_444
Co0 Sc1 2.432306 1_555
Co0 Sc4 2.432306 1_444
Br0 Sc4 2.710838 1_445
Br0 Sc0 2.780439 1_556
Br0 Sc1 3.015304 1_555
Br1 Sc5 2.710839 1_454
Br1 Sc1 2.780439 1_565
Br1 Sc2 3.015304 1_555
Br2 Sc3 2.710838 1_544
Br2 Sc2 2.780439 1_655
Br2 Sc0 3.015304 1_555
Br3 Sc1 2.710838 1_665
Br3 Sc3 2.780439 1_554
Br3 Sc4 3.015304 1_555
Br4 Sc2 2.710839 1_656
Br4 Sc4 2.780439 1_545
Br4 Sc5 3.015304 1_555
Br5 Sc0 2.710838 1_566
Br5 Sc5 2.780439 1_455
Br5 Sc3 3.015304 1_555
Br6 Sc0 2.753169 1_555
Br6 Sc2 2.793871 1_555
Br6 Ca0 2.874323 1_555
Br7 Sc1 2.753169 1_555
Br7 Sc0 2.793871 1_555
Br7 Ca0 2.874323 1_555
Br8 Sc2 2.753169 1_555
Br8 Sc1 2.793871 1_555
Br8 Ca0 2.874323 1_555
Br9 Sc3 2.753169 1_555
Br9 Sc5 2.793871 1_555
Br9 Ca0 2.874323 1_555
Br10 Sc4 2.753169 1_555
Br10 Sc3 2.793871 1_555
Br10 Ca0 2.874323 1_555
Br11 Sc5 2.753169 1_555
Br11 Sc4 2.793871 1_555
Br11 Ca0 2.874323 1_555
