# generated using pymatgen
data_SrGaSi3Pt4
_symmetry_space_group_name_H-M   'P 1'
_cell_length_a   6.37915054
_cell_length_b   6.37826496
_cell_length_c   6.41243206
_cell_angle_alpha   97.66907918
_cell_angle_beta   97.77331850
_cell_angle_gamma   136.82605172
_symmetry_Int_Tables_number   1
_chemical_formula_structural   SrGaSi3Pt4
_chemical_formula_sum   'Sr1 Ga1 Si3 Pt4'
_cell_volume   166.18891045
_cell_formula_units_Z   1
loop_
 _symmetry_equiv_pos_site_id
 _symmetry_equiv_pos_as_xyz
  1  'x, y, z'
loop_
 _atom_site_type_symbol
 _atom_site_label
 _atom_site_symmetry_multiplicity
 _atom_site_fract_x
 _atom_site_fract_y
 _atom_site_fract_z
 _atom_site_occupancy
  Sr  Sr0  1  0.30040407  0.30141246  0.00593720  1
  Ga  Ga0  1  0.38478157  0.88552523  0.27008842  1
  Si  Si0  1  0.61357752  0.11326711  0.72597906  1
  Si  Si1  1  0.10955161  0.38352280  0.49522555  1
  Si  Si2  1  0.88628534  0.61185217  0.49487087  1
  Pt  Pt0  1  0.16808042  0.67212804  0.83982115  1
  Pt  Pt1  1  0.82309579  0.31809669  0.14075542  1
  Pt  Pt2  1  0.32691145  0.18466195  0.50945933  1
  Pt  Pt3  1  0.68731423  0.82953454  0.51786299  1
loop_
_geom_bond_atom_site_label_1
_geom_bond_atom_site_label_2
_geom_bond_distance
_geom_bond_site_symmetry_2
Ga0 Pt1 2.470654 1_565
Ga0 Pt1 2.470931 1_455
Ga0 Pt2 2.555714 1_565
Ga0 Pt0 2.568572 1_554
Ga0 Pt3 2.589151 1_555
Pt0 Si2 2.441604 1_455
Pt0 Si0 2.442851 1_455
Pt0 Si0 2.443892 1_565
Pt0 Si1 2.469701 1_555
Pt0 Sr0 3.283040 1_556
Pt0 Sr0 3.410467 1_566
Pt1 Si0 2.476171 1_554
Pt1 Si1 2.488161 1_655
Pt1 Si2 2.518842 1_555
Pt1 Sr0 3.248785 1_555
Pt1 Sr0 3.345108 1_655
Pt2 Si1 2.470134 1_555
Pt2 Si2 2.473226 1_445
Pt2 Si2 2.478513 1_555
Pt2 Si0 2.485095 1_555
Pt2 Sr0 3.227251 1_556
Pt2 Sr0 3.418477 1_555
Pt3 Si0 2.458480 1_565
Pt3 Si1 2.474357 1_665
Pt3 Si2 2.475263 1_555
Pt3 Si1 2.479934 1_555
Pt3 Sr0 3.308345 1_555
Pt3 Sr0 3.339998 1_666
