# generated using pymatgen
data_LiCo(PO3)4
_symmetry_space_group_name_H-M   'P 1'
_cell_length_a   8.41321531
_cell_length_b   8.41321531
_cell_length_c   7.66441300
_cell_angle_alpha   82.99791173
_cell_angle_beta   82.99791173
_cell_angle_gamma   110.94780950
_symmetry_Int_Tables_number   1
_chemical_formula_structural   LiCo(PO3)4
_chemical_formula_sum   'Li2 Co2 P8 O24'
_cell_volume   494.79016039
_cell_formula_units_Z   2
loop_
 _symmetry_equiv_pos_site_id
 _symmetry_equiv_pos_as_xyz
  1  'x, y, z'
loop_
 _atom_site_type_symbol
 _atom_site_label
 _atom_site_symmetry_multiplicity
 _atom_site_fract_x
 _atom_site_fract_y
 _atom_site_fract_z
 _atom_site_occupancy
  Li  Li0  1  0.80381900  0.50482700  0.77351500  1
  Li  Li1  1  0.50482700  0.80381900  0.27351500  1
  Co  Co0  1  0.13756300  0.87035500  0.74267700  1
  Co  Co1  1  0.87035500  0.13756300  0.24267700  1
  P  P0  1  0.76184000  0.43340900  0.38631500  1
  P  P1  1  0.56828500  0.24505600  0.14108500  1
  P  P2  1  0.94760000  0.79679500  0.15612600  1
  P  P3  1  0.79679500  0.94760000  0.65612600  1
  P  P4  1  0.04640500  0.20083300  0.82503400  1
  P  P5  1  0.20083300  0.04640500  0.32503400  1
  P  P6  1  0.24505600  0.56828500  0.64108500  1
  P  P7  1  0.43340900  0.76184000  0.88631500  1
  O  O0  1  0.63205800  0.09839200  0.18895200  1
  O  O1  1  0.63340900  0.35329500  0.96231200  1
  O  O2  1  0.14352100  0.08176500  0.83759700  1
  O  O3  1  0.35883800  0.89141200  0.81426500  1
  O  O4  1  0.73637400  0.99065800  0.48552500  1
  O  O5  1  0.89141200  0.35883800  0.31426500  1
  O  O6  1  0.26137100  0.99518000  0.49291600  1
  O  O7  1  0.99518000  0.26137100  0.99291600  1
  O  O8  1  0.59308400  0.36261800  0.29539400  1
  O  O9  1  0.36169400  0.15921400  0.17208800  1
  O  O10  1  0.15921400  0.36169400  0.67208800  1
  O  O11  1  0.41665900  0.70993300  0.08018700  1
  O  O12  1  0.35329500  0.63340900  0.46231200  1
  O  O13  1  0.99065800  0.73637400  0.98552500  1
  O  O14  1  0.08176500  0.14352100  0.33759700  1
  O  O15  1  0.91522500  0.84807900  0.65150400  1
  O  O16  1  0.12122100  0.87760100  0.23622000  1
  O  O17  1  0.84807900  0.91522500  0.15150400  1
  O  O18  1  0.09839200  0.63205800  0.68895200  1
  O  O19  1  0.36261800  0.59308400  0.79539400  1
  O  O20  1  0.87760100  0.12122100  0.73622000  1
  O  O21  1  0.63694300  0.83568900  0.80654900  1
  O  O22  1  0.83568900  0.63694300  0.30654900  1
  O  O23  1  0.70993300  0.41665900  0.58018700  1
loop_
_geom_bond_atom_site_label_1
_geom_bond_atom_site_label_2
_geom_bond_distance
_geom_bond_site_symmetry_2
Li0 O23 1.871925 1_555
Li0 O1 1.874070 1_555
Li0 O18 2.291339 1_655
Li1 O11 1.871925 1_555
Li1 O12 1.874070 1_555
Li1 O0 2.291339 1_565
Co0 O3 1.958324 1_555
Co0 O2 1.988958 1_565
Co0 O18 2.014819 1_555
Co0 O6 2.023322 1_555
Co0 O15 2.030380 1_455
Co0 O13 2.047921 1_455
Co1 O5 1.958324 1_555
Co1 O14 1.988958 1_655
Co1 O0 2.014819 1_555
Co1 O7 2.023322 1_554
Co1 O17 2.030380 1_545
Co1 O4 2.047921 1_545
O0 P1 1.534932 1_555
O1 P1 1.470669 1_556
O2 P4 1.503747 1_555
O3 P7 1.521064 1_555
O4 P3 1.509165 1_555
O5 P0 1.521064 1_555
O6 P5 1.510731 1_565
O7 P4 1.510731 1_655
O8 P0 1.610554 1_555
O8 P1 1.618134 1_555
O9 P5 1.590601 1_555
O9 P1 1.599664 1_555
O10 P4 1.590601 1_555
O10 P6 1.599664 1_555
O11 P7 1.471477 1_554
O12 P6 1.470669 1_555
O13 P2 1.509165 1_556
O14 P5 1.503747 1_555
O15 P3 1.513350 1_555
O16 P2 1.607174 1_455
O16 P5 1.611089 1_565
O17 P2 1.513350 1_555
O18 P6 1.534932 1_555
O19 P7 1.610554 1_555
O19 P6 1.618134 1_555
O20 P3 1.607174 1_545
O20 P4 1.611089 1_655
O21 P3 1.573611 1_555
O21 P7 1.607305 1_555
O22 P2 1.573611 1_555
O22 P0 1.607305 1_555
O23 P0 1.471477 1_555
