# generated using pymatgen
data_Ta(PtRh)4
_symmetry_space_group_name_H-M   'P 1'
_cell_length_a   6.17655302
_cell_length_b   6.17655333
_cell_length_c   6.17655439
_cell_angle_alpha   95.61898676
_cell_angle_beta   95.61897294
_cell_angle_gamma   143.53064400
_symmetry_Int_Tables_number   1
_chemical_formula_structural   Ta(PtRh)4
_chemical_formula_sum   'Ta1 Pt4 Rh4'
_cell_volume   133.02598034
_cell_formula_units_Z   1
loop_
 _symmetry_equiv_pos_site_id
 _symmetry_equiv_pos_as_xyz
  1  'x, y, z'
loop_
 _atom_site_type_symbol
 _atom_site_label
 _atom_site_symmetry_multiplicity
 _atom_site_fract_x
 _atom_site_fract_y
 _atom_site_fract_z
 _atom_site_occupancy
  Ta  Ta0  1  0.00000000  0.00000000  0.00000000  1
  Pt  Pt0  1  0.00000000  0.32768631  0.32768631  1
  Pt  Pt1  1  1.00000000  0.67231369  0.67231369  1
  Pt  Pt2  1  0.67231369  0.00000000  0.67231369  1
  Pt  Pt3  1  0.32768631  1.00000000  0.32768631  1
  Rh  Rh0  1  0.33833907  0.33833907  0.67667814  1
  Rh  Rh1  1  0.66166093  0.66166093  0.32332186  1
  Rh  Rh2  1  0.66166093  0.33833907  0.00000000  1
  Rh  Rh3  1  0.33833907  0.66166093  1.00000000  1
loop_
_geom_bond_atom_site_label_1
_geom_bond_atom_site_label_2
_geom_bond_distance
_geom_bond_site_symmetry_2
Pt0 Ta0 2.718591 1_555
Pt0 Rh1 2.726053 1_555
Pt0 Rh3 2.726054 1_444
Pt0 Rh1 2.726054 1_445
Pt0 Rh3 2.726054 1_554
Pt0 Pt3 2.796906 1_445
Pt0 Pt2 2.796906 1_565
Pt0 Pt3 2.796906 1_555
Pt0 Pt2 2.796906 1_455
Pt0 Rh2 2.808361 1_455
Pt0 Rh0 2.808361 1_555
Pt0 Pt1 2.859139 1_455
Pt1 Ta0 2.718591 1_666
Pt1 Rh0 2.726053 1_555
Pt1 Rh2 2.726054 1_666
Pt1 Rh0 2.726054 1_665
Pt1 Rh2 2.726054 1_556
Pt1 Pt2 2.796906 1_665
Pt1 Pt3 2.796906 1_545
Pt1 Pt2 2.796906 1_555
Pt1 Pt3 2.796906 1_655
Pt1 Rh3 2.808361 1_655
Pt1 Rh1 2.808361 1_555
Pt2 Ta0 2.718591 1_656
Pt2 Rh0 2.726053 1_655
Pt2 Rh3 2.726054 1_655
Pt2 Rh0 2.726054 1_545
Pt2 Rh3 2.726054 1_545
Pt2 Rh2 2.808360 1_556
Pt2 Rh1 2.808360 1_545
Pt2 Pt3 2.859139 1_545
Pt3 Ta0 2.718591 1_565
Pt3 Rh1 2.726053 1_455
Pt3 Rh2 2.726054 1_455
Pt3 Rh1 2.726054 1_565
Pt3 Rh2 2.726054 1_565
Pt3 Rh3 2.808360 1_554
Pt3 Rh0 2.808360 1_565
Rh0 Rh3 2.682382 1_555
Rh0 Rh2 2.682382 1_556
Rh0 Ta0 2.707939 1_666
Rh0 Ta0 2.707939 1_556
Rh0 Rh1 2.834142 1_445
Rh0 Rh1 2.834142 1_555
Rh1 Rh2 2.682382 1_555
Rh1 Rh3 2.682382 1_554
Rh1 Ta0 2.707939 1_555
Rh1 Ta0 2.707939 1_665
Rh2 Ta0 2.707938 1_555
Rh2 Ta0 2.707939 1_665
Rh2 Rh3 2.834141 1_654
Rh2 Rh3 2.834142 1_544
Rh3 Ta0 2.707938 1_666
Rh3 Ta0 2.707939 1_556
