# generated using pymatgen
data_K2ScVF7
_symmetry_space_group_name_H-M   'P 1'
_cell_length_a   7.78568062
_cell_length_b   7.78568042
_cell_length_c   7.78567955
_cell_angle_alpha   120.57453404
_cell_angle_beta   117.23626682
_cell_angle_gamma   91.93010315
_symmetry_Int_Tables_number   1
_chemical_formula_structural   K2ScVF7
_chemical_formula_sum   'K4 Sc2 V2 F14'
_cell_volume   338.68205466
_cell_formula_units_Z   2
loop_
 _symmetry_equiv_pos_site_id
 _symmetry_equiv_pos_as_xyz
  1  'x, y, z'
loop_
 _atom_site_type_symbol
 _atom_site_label
 _atom_site_symmetry_multiplicity
 _atom_site_fract_x
 _atom_site_fract_y
 _atom_site_fract_z
 _atom_site_occupancy
  K  K0  1  0.00000000  0.00000000  0.50000000  1
  K  K1  1  0.00000000  0.00000000  0.00000000  1
  K  K2  1  0.00000000  0.50000000  0.00000000  1
  K  K3  1  0.50000000  0.50000000  0.00000000  1
  Sc  Sc0  1  0.00000000  0.50000000  0.50000000  1
  Sc  Sc1  1  0.50000000  0.00000000  0.50000000  1
  V  V0  1  0.50000000  0.50000000  0.50000000  1
  V  V1  1  0.50000000  0.00000000  0.00000000  1
  F  F0  1  0.40187868  0.25000000  0.15187868  1
  F  F1  1  0.12481255  0.40881256  0.71599998  1
  F  F2  1  0.18931017  0.42404551  0.38079561  1
  F  F3  1  0.54324990  0.30851456  0.61920439  1
  F  F4  1  0.80718842  0.09118744  0.71599998  1
  F  F5  1  0.45675010  0.07595449  0.76526366  1
  F  F6  1  0.18931017  0.80851456  0.76526366  1
  F  F7  1  0.54324990  0.92404551  0.23473634  1
  F  F8  1  0.59812132  0.75000000  0.84812132  1
  F  F9  1  0.81068983  0.19148544  0.23473634  1
  F  F10  1  0.87518745  0.59118744  0.28400002  1
  F  F11  1  0.81068983  0.57595449  0.61920439  1
  F  F12  1  0.45675010  0.69148544  0.38079561  1
  F  F13  1  0.19281158  0.90881256  0.28400002  1
loop_
_geom_bond_atom_site_label_1
_geom_bond_atom_site_label_2
_geom_bond_distance
_geom_bond_site_symmetry_2
F0 V0 2.087095 1_555
F0 V1 2.087095 1_555
F0 K3 2.972972 1_555
F0 K1 2.972972 1_555
F1 Sc0 2.010409 1_555
F1 K3 2.505441 1_556
F1 K2 2.598779 1_556
F1 K0 2.598779 1_555
F2 Sc0 2.033695 1_555
F2 V0 2.086315 1_555
F2 K1 2.752605 1_555
F2 K2 3.025627 1_555
F3 Sc1 2.033695 1_555
F3 V0 2.086315 1_555
F3 K3 2.752605 1_556
F3 K2 3.025628 1_656
F4 Sc1 2.010415 1_555
F4 K1 2.505439 1_656
F4 K0 2.598772 1_655
F4 K2 2.598778 1_656
F5 Sc1 2.033687 1_555
F5 V1 2.086322 1_556
F5 K3 2.752605 1_556
F5 K0 3.025627 1_555
F6 Sc0 2.033694 1_555
F6 V1 2.086315 1_566
F6 K1 2.752610 1_566
F6 K0 3.025622 1_565
F7 Sc1 2.033687 1_565
F7 V1 2.086322 1_565
F7 K3 2.752605 1_555
F7 K0 3.025627 1_665
F8 V0 2.087095 1_555
F8 V1 2.087095 1_566
F8 K3 2.972972 1_556
F8 K1 2.972972 1_666
F9 Sc0 2.033694 1_655
F9 V1 2.086315 1_555
F9 K1 2.752610 1_655
F9 K0 3.025622 1_655
F10 Sc0 2.010409 1_655
F10 K3 2.505441 1_555
F10 K2 2.598779 1_655
F10 K0 2.598779 1_665
F11 Sc0 2.033695 1_655
F11 V0 2.086315 1_555
F11 K1 2.752605 1_666
F11 K2 3.025627 1_656
F12 Sc1 2.033695 1_565
F12 V0 2.086315 1_555
F12 K3 2.752605 1_555
F12 K2 3.025628 1_555
F13 Sc1 2.010415 1_565
F13 K1 2.505439 1_565
F13 K0 2.598772 1_565
F13 K2 2.598778 1_555
