# generated using pymatgen
data_NbGaNi2
_symmetry_space_group_name_H-M   'P 1'
_cell_length_a   4.20540343
_cell_length_b   4.20540393
_cell_length_c   4.20540387
_cell_angle_alpha   60.00001631
_cell_angle_beta   60.00001237
_cell_angle_gamma   60.00000310
_symmetry_Int_Tables_number   1
_chemical_formula_structural   NbGaNi2
_chemical_formula_sum   'Nb1 Ga1 Ni2'
_cell_volume   52.59060876
_cell_formula_units_Z   1
loop_
 _symmetry_equiv_pos_site_id
 _symmetry_equiv_pos_as_xyz
  1  'x, y, z'
loop_
 _atom_site_type_symbol
 _atom_site_label
 _atom_site_symmetry_multiplicity
 _atom_site_fract_x
 _atom_site_fract_y
 _atom_site_fract_z
 _atom_site_occupancy
  Nb  Nb0  1  0.50000000  0.50000000  0.50000000  1
  Ga  Ga0  1  -0.00000000  -0.00000000  0.00000000  1
  Ni  Ni0  1  0.75000000  0.75000000  0.75000000  1
  Ni  Ni1  1  0.25000000  0.25000000  0.25000000  1
loop_
_geom_bond_atom_site_label_1
_geom_bond_atom_site_label_2
_geom_bond_distance
_geom_bond_site_symmetry_2
Nb0 Ni0 2.575273 1_555
Nb0 Ni1 2.575273 1_555
Nb0 Ni0 2.575273 1_455
Nb0 Ni1 2.575273 1_655
Nb0 Ni1 2.575274 1_565
Nb0 Ni0 2.575274 1_545
Nb0 Ni0 2.575274 1_554
Nb0 Ni1 2.575274 1_556
Ga0 Ni0 2.575273 1_444
Ga0 Ni1 2.575273 1_555
Ga0 Ni0 2.575273 1_544
Ga0 Ni1 2.575273 1_455
Ga0 Ni0 2.575274 1_454
Ga0 Ni1 2.575274 1_545
Ga0 Ni1 2.575274 1_554
Ga0 Ni0 2.575274 1_445
