# generated using pymatgen
data_Ca6GaSi3Ir4
_symmetry_space_group_name_H-M   'P 1'
_cell_length_a   5.82185244
_cell_length_b   7.60416314
_cell_length_c   13.50004644
_cell_angle_alpha   90.00000000
_cell_angle_beta   90.00000000
_cell_angle_gamma   90.00000000
_symmetry_Int_Tables_number   1
_chemical_formula_structural   Ca6GaSi3Ir4
_chemical_formula_sum   'Ca12 Ga2 Si6 Ir8'
_cell_volume   597.65131844
_cell_formula_units_Z   2
loop_
 _symmetry_equiv_pos_site_id
 _symmetry_equiv_pos_as_xyz
  1  'x, y, z'
loop_
 _atom_site_type_symbol
 _atom_site_label
 _atom_site_symmetry_multiplicity
 _atom_site_fract_x
 _atom_site_fract_y
 _atom_site_fract_z
 _atom_site_occupancy
  Ca  Ca0  1  0.13064706  0.60851884  0.09914044  1
  Ca  Ca1  1  0.13064706  0.89148116  0.90085956  1
  Ca  Ca2  1  0.86692348  0.11142252  0.40090548  1
  Ca  Ca3  1  0.86692348  0.38857748  0.59909452  1
  Ca  Ca4  1  0.86692348  0.38857748  0.90090548  1
  Ca  Ca5  1  0.86692348  0.11142252  0.09909452  1
  Ca  Ca6  1  0.13064706  0.89148116  0.59914044  1
  Ca  Ca7  1  0.13064706  0.60851884  0.40085956  1
  Ca  Ca8  1  0.37127870  0.27146487  0.25000000  1
  Ca  Ca9  1  0.37127870  0.22853513  0.75000000  1
  Ca  Ca10  1  0.62719493  0.77430611  0.25000000  1
  Ca  Ca11  1  0.62719493  0.72569389  0.75000000  1
  Ga  Ga0  1  0.16213978  0.92266406  0.25000000  1
  Ga  Ga1  1  0.16213978  0.57733594  0.75000000  1
  Si  Si0  1  0.42582594  0.25000000  0.00000000  1
  Si  Si1  1  0.57508207  0.75000000  0.50000000  1
  Si  Si2  1  0.57508207  0.75000000  0.00000000  1
  Si  Si3  1  0.42582594  0.25000000  0.50000000  1
  Si  Si4  1  0.83428056  0.42574402  0.25000000  1
  Si  Si5  1  0.83428056  0.07425598  0.75000000  1
  Ir  Ir0  1  0.64041611  0.47812268  0.09180466  1
  Ir  Ir1  1  0.64041611  0.02187732  0.90819534  1
  Ir  Ir2  1  0.36411186  0.97912515  0.41310246  1
  Ir  Ir3  1  0.36411186  0.52087485  0.58689754  1
  Ir  Ir4  1  0.36411186  0.52087485  0.91310246  1
  Ir  Ir5  1  0.36411186  0.97912515  0.08689754  1
  Ir  Ir6  1  0.64041611  0.02187732  0.59180466  1
  Ir  Ir7  1  0.64041611  0.47812268  0.40819534  1
loop_
_geom_bond_atom_site_label_1
_geom_bond_atom_site_label_2
_geom_bond_distance
_geom_bond_site_symmetry_2
Ca0 Ir4 2.932461 1_554
Ca0 Si4 3.009398 1_455
Ca0 Ir0 3.023012 1_455
Ca0 Si2 3.105411 1_555
Ca0 Ir0 3.130627 1_555
Ca0 Ir5 3.133163 1_555
Ca0 Ga0 3.144490 1_555
Ca1 Ir5 2.932461 1_556
Ca1 Si5 3.009398 1_465
Ca1 Ir1 3.023012 1_465
Ca1 Si2 3.105411 1_556
Ca1 Ir1 3.130627 1_565
Ca1 Ir4 3.133163 1_555
Ca1 Ga1 3.144490 1_555
Ca2 Ir6 2.973935 1_555
Ca2 Ga0 3.027291 1_645
Ca2 Ir2 3.068816 1_645
Ca2 Si3 3.081352 1_555
Ca2 Ir7 3.086110 1_555
Ca2 Ir2 3.099714 1_545
Ca2 Si4 3.146308 1_555
Ca3 Ir7 2.973935 1_555
Ca3 Ga1 3.027291 1_655
Ca3 Ir3 3.068816 1_655
Ca3 Si3 3.081352 1_555
Ca3 Ir6 3.086110 1_555
Ca3 Ir3 3.099714 1_555
Ca3 Si5 3.146308 1_555
Ca4 Ir0 2.973935 1_556
Ca4 Ga1 3.027291 1_655
Ca4 Ir4 3.068816 1_655
Ca4 Si0 3.081352 1_556
Ca4 Ir1 3.086110 1_555
Ca4 Ir4 3.099714 1_555
Ca4 Si5 3.146308 1_555
Ca5 Ir1 2.973935 1_554
Ca5 Ga0 3.027291 1_645
Ca5 Ir5 3.068816 1_645
Ca5 Si0 3.081352 1_555
Ca5 Ir0 3.086110 1_555
Ca5 Ir5 3.099714 1_545
Ca5 Si4 3.146308 1_555
Ca6 Ir2 2.932461 1_555
Ca6 Si5 3.009398 1_465
Ca6 Ir6 3.023012 1_465
Ca6 Si1 3.105411 1_555
Ca6 Ir6 3.130627 1_565
Ca6 Ir3 3.133163 1_555
Ca6 Ga1 3.144490 1_555
Ca7 Ir3 2.932461 1_555
Ca7 Si4 3.009398 1_455
Ca7 Ir7 3.023012 1_455
Ca7 Si1 3.105411 1_555
Ca7 Ir7 3.130627 1_555
Ca7 Ir2 3.133163 1_555
Ca7 Ga0 3.144490 1_555
Ca8 Ga0 2.918457 1_545
Ca8 Si4 2.939760 1_555
Ca8 Ir7 3.079865 1_555
Ca8 Ir0 3.079865 1_555
Ca8 Ir2 3.129183 1_545
Ca8 Ir5 3.129183 1_545
Ca8 Si4 3.339194 1_455
Ca9 Ga1 2.918457 1_555
Ca9 Si5 2.939760 1_555
Ca9 Ir1 3.079865 1_555
Ca9 Ir6 3.079865 1_555
Ca9 Ir4 3.129183 1_555
Ca9 Ir3 3.129183 1_555
Ca9 Si5 3.339194 1_455
Ca10 Si4 2.911837 1_555
Ca10 Ga0 2.933114 1_555
Ca10 Ir2 3.101605 1_555
Ca10 Ir5 3.101605 1_555
Ca10 Ir7 3.104743 1_555
Ca10 Ir0 3.104743 1_555
Ca10 Ga0 3.312400 1_655
Ca11 Si5 2.911837 1_565
Ca11 Ga1 2.933114 1_555
Ca11 Ir4 3.101605 1_555
Ca11 Ir3 3.101605 1_555
Ca11 Ir1 3.104743 1_565
Ca11 Ir6 3.104743 1_565
Ca11 Ga1 3.312400 1_655
Ga0 Ir2 2.532841 1_555
Ga0 Ir5 2.532841 1_555
Ga1 Ir4 2.532841 1_555
Ga1 Ir3 2.532841 1_555
Ir0 Si2 2.440256 1_555
Ir0 Si4 2.448156 1_555
Ir0 Si0 2.471019 1_555
Ir1 Si2 2.440256 1_546
Ir1 Si5 2.448156 1_555
Ir1 Si0 2.471019 1_556
Ir2 Si3 2.397495 1_565
Ir2 Si1 2.433189 1_555
Ir3 Si3 2.397495 1_555
Ir3 Si1 2.433189 1_555
Ir4 Si0 2.397495 1_556
Ir4 Si2 2.433189 1_556
Ir5 Si0 2.397495 1_565
Ir5 Si2 2.433189 1_555
Ir6 Si1 2.440256 1_545
Ir6 Si5 2.448156 1_555
Ir6 Si3 2.471019 1_555
Ir7 Si1 2.440256 1_555
Ir7 Si4 2.448156 1_555
Ir7 Si3 2.471019 1_555
