# generated using pymatgen
data_Nb2SiSe4
_symmetry_space_group_name_H-M   'P 1'
_cell_length_a   7.75084091
_cell_length_b   6.02048805
_cell_length_c   7.14324053
_cell_angle_alpha   97.33145141
_cell_angle_beta   105.71956817
_cell_angle_gamma   90.00337810
_symmetry_Int_Tables_number   1
_chemical_formula_structural   Nb2SiSe4
_chemical_formula_sum   'Nb4 Si2 Se8'
_cell_volume   318.03159159
_cell_formula_units_Z   2
loop_
 _symmetry_equiv_pos_site_id
 _symmetry_equiv_pos_as_xyz
  1  'x, y, z'
loop_
 _atom_site_type_symbol
 _atom_site_label
 _atom_site_symmetry_multiplicity
 _atom_site_fract_x
 _atom_site_fract_y
 _atom_site_fract_z
 _atom_site_occupancy
  Nb  Nb0  1  0.08716964  0.10217498  0.99969819  1
  Nb  Nb1  1  0.41283036  0.89782502  0.00030181  1
  Nb  Nb2  1  0.58725865  0.39770679  0.00018001  1
  Nb  Nb3  1  0.91274135  0.60229321  0.99981999  1
  Si  Si0  1  0.25000000  0.50000000  0.00000000  1
  Si  Si1  1  0.75000000  0.00000000  0.00000000  1
  Se  Se0  1  0.08477360  0.73605310  0.74959142  1
  Se  Se1  1  0.20908098  0.81180017  0.25054377  1
  Se  Se2  1  0.29091902  0.18819983  0.74945623  1
  Se  Se3  1  0.41522640  0.26394690  0.25040858  1
  Se  Se4  1  0.58404871  0.68788140  0.74965863  1
  Se  Se5  1  0.70970277  0.76408912  0.25083921  1
  Se  Se6  1  0.79029723  0.23591088  0.74916079  1
  Se  Se7  1  0.91595129  0.31211860  0.25034137  1
loop_
_geom_bond_atom_site_label_1
_geom_bond_atom_site_label_2
_geom_bond_distance
_geom_bond_site_symmetry_2
Nb0 Se0 2.650998 1_545
Nb0 Se1 2.653679 1_546
Nb0 Si1 2.685367 1_456
Nb0 Se7 2.697112 1_456
Nb0 Se6 2.698587 1_455
Nb0 Si0 2.706694 1_556
Nb0 Se3 2.776387 1_556
Nb0 Se2 2.779083 1_555
Nb1 Se3 2.650998 1_565
Nb1 Se2 2.653679 1_564
Nb1 Si1 2.685367 1_565
Nb1 Se4 2.697112 1_554
Nb1 Se5 2.698587 1_555
Nb1 Si0 2.706694 1_555
Nb1 Se0 2.776387 1_554
Nb1 Se1 2.779083 1_555
Nb2 Se4 2.651189 1_554
Nb2 Se5 2.653901 1_555
Nb2 Si0 2.685339 1_555
Nb2 Se2 2.695983 1_554
Nb2 Se3 2.698164 1_555
Nb2 Si1 2.706406 1_555
Nb2 Se7 2.778051 1_555
Nb2 Se6 2.779219 1_554
Nb3 Se7 2.651189 1_556
Nb3 Se6 2.653901 1_555
Nb3 Si0 2.685339 1_656
Nb3 Se1 2.695983 1_656
Nb3 Se0 2.698164 1_655
Nb3 Si1 2.706406 1_566
Nb3 Se4 2.778051 1_555
Nb3 Se5 2.779219 1_556
Se0 Si0 2.503403 1_556
Se1 Si0 2.505522 1_555
Se2 Si0 2.505522 1_556
Se3 Si0 2.503403 1_555
Se4 Si1 2.505811 1_566
Se5 Si1 2.505608 1_565
Se6 Si1 2.505608 1_556
Se7 Si1 2.505811 1_555
