# generated using pymatgen
data_Ca20GaSi8Bi3
_symmetry_space_group_name_H-M   'P 1'
_cell_length_a   7.77662960
_cell_length_b   7.77662960
_cell_length_c   15.06614826
_cell_angle_alpha   90.00000000
_cell_angle_beta   90.00000000
_cell_angle_gamma   90.00000000
_symmetry_Int_Tables_number   1
_chemical_formula_structural   Ca20GaSi8Bi3
_chemical_formula_sum   'Ca20 Ga1 Si8 Bi3'
_cell_volume   911.13989983
_cell_formula_units_Z   1
loop_
 _symmetry_equiv_pos_site_id
 _symmetry_equiv_pos_as_xyz
  1  'x, y, z'
loop_
 _atom_site_type_symbol
 _atom_site_label
 _atom_site_symmetry_multiplicity
 _atom_site_fract_x
 _atom_site_fract_y
 _atom_site_fract_z
 _atom_site_occupancy
  Ca  Ca0  1  0.68133472  0.16696217  0.11129283  1
  Ca  Ca1  1  0.17446954  0.67318461  0.61516927  1
  Ca  Ca2  1  0.31866528  0.83303783  0.11129283  1
  Ca  Ca3  1  0.82553046  0.32681539  0.61516927  1
  Ca  Ca4  1  0.83303783  0.68133472  0.11129283  1
  Ca  Ca5  1  0.32681539  0.17446954  0.61516927  1
  Ca  Ca6  1  0.16696217  0.31866528  0.11129283  1
  Ca  Ca7  1  0.67318461  0.82553046  0.61516927  1
  Ca  Ca8  1  0.83303783  0.31866528  0.88870717  1
  Ca  Ca9  1  0.32681539  0.82553046  0.38483073  1
  Ca  Ca10  1  0.16696217  0.68133472  0.88870717  1
  Ca  Ca11  1  0.67318461  0.17446954  0.38483073  1
  Ca  Ca12  1  0.68133472  0.83303783  0.88870717  1
  Ca  Ca13  1  0.17446954  0.32681539  0.38483073  1
  Ca  Ca14  1  0.31866528  0.16696217  0.88870717  1
  Ca  Ca15  1  0.82553046  0.67318461  0.38483073  1
  Ca  Ca16  1  0.50000000  0.50000000  0.75685644  1
  Ca  Ca17  1  0.00000000  0.00000000  0.24647376  1
  Ca  Ca18  1  0.00000000  0.00000000  0.75352624  1
  Ca  Ca19  1  0.50000000  0.50000000  0.24314356  1
  Ga  Ga0  1  0.00000000  0.00000000  0.00000000  1
  Si  Si0  1  0.61190888  0.11409771  0.74999880  1
  Si  Si1  1  0.11409771  0.61190888  0.25000120  1
  Si  Si2  1  0.88590229  0.38809112  0.25000120  1
  Si  Si3  1  0.38809112  0.88590229  0.74999880  1
  Si  Si4  1  0.88590229  0.61190888  0.74999880  1
  Si  Si5  1  0.38809112  0.11409771  0.25000120  1
  Si  Si6  1  0.11409771  0.38809112  0.74999880  1
  Si  Si7  1  0.61190888  0.88590229  0.25000120  1
  Bi  Bi0  1  0.50000000  0.50000000  0.50000000  1
  Bi  Bi1  1  0.50000000  0.50000000  0.00000000  1
  Bi  Bi2  1  0.00000000  0.00000000  0.50000000  1
loop_
_geom_bond_atom_site_label_1
_geom_bond_atom_site_label_2
_geom_bond_distance
_geom_bond_site_symmetry_2
Ca0 Si7 3.071813 1_545
Ca0 Si5 3.120371 1_555
Ca0 Si2 3.139302 1_555
Ca0 Ga0 3.261678 1_655
Ca1 Si6 3.043392 1_555
Ca1 Si4 3.064212 1_455
Ca1 Si3 3.102042 1_555
Ca2 Si5 3.071813 1_565
Ca2 Si7 3.120371 1_555
Ca2 Si1 3.139302 1_555
Ca2 Ga0 3.261678 1_565
Ca3 Si4 3.043392 1_555
Ca3 Si6 3.064212 1_655
Ca3 Si0 3.102042 1_555
Ca4 Si1 3.071813 1_655
Ca4 Si2 3.120371 1_555
Ca4 Si7 3.139302 1_555
Ca4 Ga0 3.261678 1_665
Ca5 Si0 3.043392 1_555
Ca5 Si3 3.064212 1_545
Ca5 Si6 3.102042 1_555
Ca6 Si2 3.071813 1_455
Ca6 Si1 3.120371 1_555
Ca6 Si5 3.139302 1_555
Ca6 Ga0 3.261678 1_555
Ca7 Si3 3.043392 1_555
Ca7 Si0 3.064212 1_565
Ca7 Si4 3.102042 1_555
Ca8 Si6 3.071813 1_655
Ca8 Si4 3.120371 1_555
Ca8 Si0 3.139302 1_555
Ca8 Ga0 3.261678 1_656
Ca9 Si7 3.043392 1_555
Ca9 Si5 3.064212 1_565
Ca9 Si1 3.102042 1_555
Ca10 Si4 3.071813 1_455
Ca10 Si6 3.120371 1_555
Ca10 Si3 3.139302 1_555
Ca10 Ga0 3.261678 1_566
Ca11 Si5 3.043392 1_555
Ca11 Si7 3.064212 1_545
Ca11 Si2 3.102042 1_555
Ca12 Si0 3.071813 1_565
Ca12 Si3 3.120371 1_555
Ca12 Si4 3.139302 1_555
Ca12 Ga0 3.261678 1_666
Ca13 Si1 3.043392 1_555
Ca13 Si2 3.064212 1_455
Ca13 Si5 3.102042 1_555
Ca14 Si3 3.071813 1_545
Ca14 Si0 3.120371 1_555
Ca14 Si6 3.139302 1_555
Ca14 Ga0 3.261678 1_556
Ca15 Si2 3.043392 1_555
Ca15 Si1 3.064212 1_655
Ca15 Si7 3.102042 1_555
Ca16 Si4 3.126366 1_555
Ca16 Si3 3.126366 1_555
Ca16 Si0 3.126366 1_555
Ca16 Si6 3.126366 1_555
Ca17 Si5 3.146218 1_555
Ca17 Si1 3.146218 1_545
Ca17 Si2 3.146218 1_455
Ca17 Si7 3.146218 1_445
Ca18 Si0 3.146218 1_455
Ca18 Si6 3.146218 1_555
Ca18 Si4 3.146218 1_445
Ca18 Si3 3.146218 1_545
Ca19 Si2 3.126366 1_555
Ca19 Si7 3.126366 1_555
Ca19 Si5 3.126366 1_555
Ca19 Si1 3.126366 1_555
Si0 Si3 2.485695 1_545
Si1 Si2 2.485695 1_455
Si4 Si6 2.485695 1_655
Si5 Si7 2.485695 1_545
Bi0 Ca7 3.351606 1_555
Bi0 Ca3 3.351606 1_555
Bi0 Ca1 3.351606 1_555
Bi0 Ca15 3.351606 1_555
Bi0 Ca5 3.351606 1_555
Bi0 Ca9 3.351606 1_555
Bi0 Ca11 3.351606 1_555
Bi0 Ca13 3.351606 1_555
Bi1 Ca4 3.392305 1_555
Bi1 Ca2 3.392305 1_555
Bi1 Ca0 3.392305 1_555
Bi1 Ca12 3.392305 1_554
Bi1 Ca6 3.392305 1_555
Bi1 Ca8 3.392305 1_554
Bi1 Ca10 3.392305 1_554
Bi1 Ca14 3.392305 1_554
Bi1 Ca19 3.663237 1_555
Bi1 Ca16 3.663237 1_554
Bi2 Ca5 3.363179 1_555
Bi2 Ca3 3.363179 1_455
Bi2 Ca1 3.363179 1_545
Bi2 Ca13 3.363179 1_555
Bi2 Ca7 3.363179 1_445
Bi2 Ca9 3.363179 1_545
Bi2 Ca11 3.363179 1_455
Bi2 Ca15 3.363179 1_445
