# generated using pymatgen
data_Ta3Ga2PtC
_symmetry_space_group_name_H-M   'P 1'
_cell_length_a   8.30780107
_cell_length_b   8.30780120
_cell_length_c   8.30780644
_cell_angle_alpha   59.99995963
_cell_angle_beta   59.99995908
_cell_angle_gamma   59.99990794
_symmetry_Int_Tables_number   1
_chemical_formula_structural   Ta3Ga2PtC
_chemical_formula_sum   'Ta12 Ga8 Pt4 C4'
_cell_volume   405.45530529
_cell_formula_units_Z   4
loop_
 _symmetry_equiv_pos_site_id
 _symmetry_equiv_pos_as_xyz
  1  'x, y, z'
loop_
 _atom_site_type_symbol
 _atom_site_label
 _atom_site_symmetry_multiplicity
 _atom_site_fract_x
 _atom_site_fract_y
 _atom_site_fract_z
 _atom_site_occupancy
  Ta  Ta0  1  0.56817646  0.93182354  0.56817646  1
  Ta  Ta1  1  0.31817646  0.68182354  0.68182354  1
  Ta  Ta2  1  0.68182354  0.31817646  0.31817646  1
  Ta  Ta3  1  0.31817646  0.68182354  0.31817646  1
  Ta  Ta4  1  0.68182354  0.68182354  0.31817546  1
  Ta  Ta5  1  0.31817646  0.31817646  0.68182354  1
  Ta  Ta6  1  0.56817646  0.56817646  0.93182454  1
  Ta  Ta7  1  0.93182354  0.56817646  0.56817646  1
  Ta  Ta8  1  0.56817646  0.93182354  0.93182354  1
  Ta  Ta9  1  0.93182354  0.93182354  0.56817646  1
  Ta  Ta10  1  0.68182354  0.31817646  0.68182354  1
  Ta  Ta11  1  0.93182354  0.56817646  0.93182354  1
  Ga  Ga0  1  0.91398733  0.91398733  0.91398633  1
  Ga  Ga1  1  0.99195999  0.33601267  0.33601367  1
  Ga  Ga2  1  0.33601267  0.99195999  0.33601367  1
  Ga  Ga3  1  0.33601267  0.33601267  0.99195999  1
  Ga  Ga4  1  0.91398733  0.25804001  0.91398633  1
  Ga  Ga5  1  0.91398733  0.91398733  0.25804001  1
  Ga  Ga6  1  0.25804001  0.91398733  0.91398633  1
  Ga  Ga7  1  0.33601267  0.33601267  0.33601367  1
  Pt  Pt0  1  0.12500000  0.12500000  0.12500000  1
  Pt  Pt1  1  0.62500000  0.12500000  0.12500000  1
  Pt  Pt2  1  0.12500000  0.62500000  0.12500000  1
  Pt  Pt3  1  0.12500000  0.12500000  0.62500000  1
  C  C0  1  0.62500000  0.62500000  0.62500000  1
  C  C1  1  0.12500000  0.62500000  0.62500000  1
  C  C2  1  0.62500000  0.12500000  0.62500000  1
  C  C3  1  0.62500000  0.62500000  0.12500000  1
loop_
_geom_bond_atom_site_label_1
_geom_bond_atom_site_label_2
_geom_bond_distance
_geom_bond_site_symmetry_2
Ga0 Pt3 2.562423 1_665
Ga0 Pt1 2.562427 1_566
Ga0 Pt2 2.562427 1_656
Ga0 Ta9 2.732788 1_555
Ga0 Ta8 2.732791 1_555
Ga0 Ta11 2.732791 1_555
Ga1 Pt3 2.562427 1_655
Ga1 Pt0 2.562427 1_655
Ga1 Pt2 2.562434 1_655
Ga1 Ta10 2.732782 1_555
Ga1 Ta2 2.732783 1_555
Ga1 Ta4 2.732784 1_555
Ga2 Pt3 2.562427 1_565
Ga2 Pt0 2.562427 1_565
Ga2 Pt1 2.562434 1_565
Ga2 Ta1 2.732782 1_555
Ga2 Ta3 2.732783 1_555
Ga2 Ta4 2.732784 1_555
Ga3 Pt0 2.562421 1_556
Ga3 Pt1 2.562432 1_556
Ga3 Pt2 2.562432 1_556
Ga3 Ta5 2.732780 1_555
Ga3 Ta10 2.732786 1_555
Ga3 Ta1 2.732786 1_555
Ga4 Pt3 2.562427 1_655
Ga4 Pt0 2.562427 1_656
Ga4 Pt1 2.562434 1_556
Ga4 Ta7 2.732782 1_555
Ga4 Ta11 2.732783 1_555
Ga4 Ta6 2.732784 1_555
Ga5 Pt0 2.562421 1_665
Ga5 Pt1 2.562432 1_565
Ga5 Pt2 2.562432 1_655
Ga5 Ta9 2.732780 1_555
Ga5 Ta0 2.732786 1_555
Ga5 Ta7 2.732786 1_555
Ga6 Pt3 2.562427 1_565
Ga6 Pt0 2.562427 1_566
Ga6 Pt2 2.562434 1_556
Ga6 Ta0 2.732782 1_555
Ga6 Ta8 2.732783 1_555
Ga6 Ta6 2.732784 1_555
Ga7 Pt3 2.562423 1_555
Ga7 Pt1 2.562427 1_555
Ga7 Pt2 2.562427 1_555
Ga7 Ta5 2.732788 1_555
Ga7 Ta2 2.732791 1_555
Ga7 Ta3 2.732791 1_555
Pt0 Ta8 3.076512 1_544
Pt0 Ta2 3.076512 1_455
Pt0 Ta3 3.076512 1_545
Pt0 Ta11 3.076512 1_454
Pt0 Ta9 3.076516 1_445
Pt0 Ta5 3.076516 1_554
Pt1 Ta6 3.076514 1_554
Pt1 Ta4 3.076514 1_545
Pt1 Ta0 3.076516 1_545
Pt1 Ta10 3.076516 1_554
Pt1 Ta2 3.076518 1_555
Pt1 Ta8 3.076518 1_544
Pt2 Ta6 3.076514 1_554
Pt2 Ta4 3.076514 1_455
Pt2 Ta7 3.076516 1_455
Pt2 Ta1 3.076516 1_554
Pt2 Ta3 3.076517 1_555
Pt2 Ta11 3.076517 1_454
Pt3 Ta0 3.076513 1_545
Pt3 Ta10 3.076513 1_455
Pt3 Ta7 3.076513 1_455
Pt3 Ta1 3.076513 1_545
Pt3 Ta5 3.076517 1_555
Pt3 Ta9 3.076517 1_445
C0 Ta7 2.181613 1_555
C0 Ta1 2.181613 1_555
C0 Ta0 2.181613 1_555
C0 Ta10 2.181613 1_555
C0 Ta6 2.181623 1_555
C0 Ta4 2.181623 1_555
C1 Ta9 2.181611 1_455
C1 Ta5 2.181611 1_555
C1 Ta11 2.181614 1_455
C1 Ta3 2.181614 1_555
C1 Ta1 2.181615 1_555
C1 Ta7 2.181615 1_455
C2 Ta5 2.181611 1_555
C2 Ta9 2.181611 1_545
C2 Ta8 2.181614 1_545
C2 Ta2 2.181614 1_555
C2 Ta10 2.181615 1_555
C2 Ta0 2.181615 1_545
C3 Ta4 2.181607 1_555
C3 Ta6 2.181607 1_554
C3 Ta3 2.181612 1_555
C3 Ta11 2.181612 1_554
C3 Ta8 2.181612 1_554
C3 Ta2 2.181612 1_555
