# generated using pymatgen
data_Sr5Bi3Br
_symmetry_space_group_name_H-M   'P 1'
_cell_length_a   9.81380105
_cell_length_b   9.81380086
_cell_length_c   7.68078566
_cell_angle_alpha   90.00000000
_cell_angle_beta   90.00000000
_cell_angle_gamma   120.00000064
_symmetry_Int_Tables_number   1
_chemical_formula_structural   Sr5Bi3Br
_chemical_formula_sum   'Sr10 Bi6 Br2'
_cell_volume   640.63515256
_cell_formula_units_Z   2
loop_
 _symmetry_equiv_pos_site_id
 _symmetry_equiv_pos_as_xyz
  1  'x, y, z'
loop_
 _atom_site_type_symbol
 _atom_site_label
 _atom_site_symmetry_multiplicity
 _atom_site_fract_x
 _atom_site_fract_y
 _atom_site_fract_z
 _atom_site_occupancy
  Sr  Sr0  1  0.26012391  0.00000000  0.25000000  1
  Sr  Sr1  1  0.00000000  0.73987609  0.75000000  1
  Sr  Sr2  1  0.73987609  0.73987609  0.25000000  1
  Sr  Sr3  1  0.26012391  0.26012391  0.75000000  1
  Sr  Sr4  1  0.73987609  0.00000000  0.75000000  1
  Sr  Sr5  1  0.00000000  0.26012391  0.25000000  1
  Sr  Sr6  1  0.66666700  0.33333300  0.50000000  1
  Sr  Sr7  1  0.33333300  0.66666700  0.00000000  1
  Sr  Sr8  1  0.33333300  0.66666700  0.50000000  1
  Sr  Sr9  1  0.66666700  0.33333300  0.00000000  1
  Bi  Bi0  1  0.60854016  0.60854016  0.75000000  1
  Bi  Bi1  1  1.00000000  0.60854016  0.25000000  1
  Bi  Bi2  1  0.60854016  0.00000000  0.25000000  1
  Bi  Bi3  1  0.39145984  0.00000000  0.75000000  1
  Bi  Bi4  1  0.00000000  0.39145984  0.75000000  1
  Bi  Bi5  1  0.39145984  0.39145984  0.25000000  1
  Br  Br0  1  0.00000000  0.00000000  0.50000000  1
  Br  Br1  1  0.00000000  0.00000000  0.00000000  1
loop_
_geom_bond_atom_site_label_1
_geom_bond_atom_site_label_2
_geom_bond_distance
_geom_bond_site_symmetry_2
Bi0 Sr4 3.386504 1_565
Bi0 Sr1 3.386504 1_655
Bi0 Sr3 3.419288 1_555
Bi0 Sr6 3.584370 1_555
Bi0 Sr9 3.584370 1_556
Bi0 Sr8 3.584370 1_555
Bi0 Sr7 3.584370 1_556
Bi0 Sr2 4.050913 1_556
Bi0 Sr2 4.050913 1_555
Bi1 Sr0 3.386504 1_665
Bi1 Sr2 3.386504 1_555
Bi1 Sr5 3.419288 1_655
Bi1 Sr8 3.584362 1_655
Bi1 Sr7 3.584362 1_655
Bi1 Sr9 3.584365 1_555
Bi1 Sr6 3.584365 1_555
Bi1 Sr1 4.050913 1_655
Bi1 Sr1 4.050913 1_654
Bi2 Sr2 3.386504 1_545
Bi2 Sr5 3.386504 1_655
Bi2 Sr0 3.419288 1_555
Bi2 Sr6 3.584362 1_555
Bi2 Sr9 3.584362 1_555
Bi2 Sr7 3.584365 1_545
Bi2 Sr8 3.584365 1_545
Bi2 Sr4 4.050913 1_555
Bi2 Sr4 4.050913 1_554
Bi3 Sr3 3.386504 1_555
Bi3 Sr1 3.386504 1_545
Bi3 Sr4 3.419288 1_555
Bi3 Sr8 3.584362 1_545
Bi3 Sr7 3.584362 1_546
Bi3 Sr9 3.584365 1_556
Bi3 Sr6 3.584365 1_555
Bi3 Sr0 4.050913 1_555
Bi3 Sr0 4.050913 1_556
Bi4 Sr4 3.386504 1_455
Bi4 Sr3 3.386504 1_555
Bi4 Sr1 3.419288 1_555
Bi4 Sr9 3.584362 1_456
Bi4 Sr6 3.584362 1_455
Bi4 Sr7 3.584365 1_556
Bi4 Sr8 3.584365 1_555
Bi4 Sr5 4.050913 1_555
Bi4 Sr5 4.050913 1_556
Bi5 Sr0 3.386504 1_555
Bi5 Sr5 3.386504 1_555
Bi5 Sr2 3.419288 1_555
Bi5 Sr7 3.584370 1_555
Bi5 Sr8 3.584370 1_555
Bi5 Sr9 3.584370 1_555
Bi5 Sr6 3.584370 1_555
Bi5 Sr3 4.050913 1_554
Bi5 Sr3 4.050913 1_555
Br0 Sr5 3.194364 1_555
Br0 Sr1 3.194364 1_545
Br0 Sr3 3.194364 1_555
Br0 Sr2 3.194364 1_445
Br0 Sr0 3.194364 1_555
Br0 Sr4 3.194364 1_455
Br1 Sr5 3.194364 1_555
Br1 Sr1 3.194364 1_544
Br1 Sr3 3.194364 1_554
Br1 Sr2 3.194364 1_445
Br1 Sr0 3.194364 1_555
Br1 Sr4 3.194364 1_454
