# generated using pymatgen
data_YCdIO6
_symmetry_space_group_name_H-M   'P 1'
_cell_length_a   4.96106020
_cell_length_b   4.96089981
_cell_length_c   9.84027045
_cell_angle_alpha   90.00000000
_cell_angle_beta   90.00000000
_cell_angle_gamma   90.00000000
_symmetry_Int_Tables_number   1
_chemical_formula_structural   YCdIO6
_chemical_formula_sum   'Y2 Cd2 I2 O12'
_cell_volume   242.18207036
_cell_formula_units_Z   2
loop_
 _symmetry_equiv_pos_site_id
 _symmetry_equiv_pos_as_xyz
  1  'x, y, z'
loop_
 _atom_site_type_symbol
 _atom_site_label
 _atom_site_symmetry_multiplicity
 _atom_site_fract_x
 _atom_site_fract_y
 _atom_site_fract_z
 _atom_site_occupancy
  Y  Y0  1  0.00000000  0.00000000  0.34278701  1
  Y  Y1  1  0.50000000  0.50000000  0.15721299  1
  Cd  Cd0  1  0.00000000  0.00000000  0.66951646  1
  Cd  Cd1  1  0.50000000  0.50000000  0.83048354  1
  I  I0  1  0.50000000  0.50000000  0.50084945  1
  I  I1  1  0.00000000  0.00000000  0.99915055  1
  O  O0  1  0.68322809  0.68338836  0.63628544  1
  O  O1  1  0.31677191  0.31661164  0.63628544  1
  O  O2  1  0.81677191  0.18338836  0.86371456  1
  O  O3  1  0.18322809  0.81661164  0.86371456  1
  O  O4  1  0.32098387  0.32084560  0.35398885  1
  O  O5  1  0.67901613  0.67915440  0.35398885  1
  O  O6  1  0.17901613  0.82084560  0.14601115  1
  O  O7  1  0.82098387  0.17915440  0.14601115  1
  O  O8  1  0.73291166  0.73306969  0.00670541  1
  O  O9  1  0.26708834  0.26693031  0.00670541  1
  O  O10  1  0.76708834  0.23306969  0.49329459  1
  O  O11  1  0.23291166  0.76693031  0.49329459  1
loop_
_geom_bond_atom_site_label_1
_geom_bond_atom_site_label_2
_geom_bond_distance
_geom_bond_site_symmetry_2
Cd0 O1 2.245807 1_555
Cd0 O0 2.245807 1_445
Cd0 O2 2.303421 1_455
Cd0 O3 2.303421 1_545
Cd0 O11 2.383073 1_545
Cd0 O10 2.383073 1_455
Cd1 O2 2.245807 1_555
Cd1 O3 2.245807 1_555
Cd1 O0 2.303421 1_555
Cd1 O1 2.303421 1_555
Cd1 O8 2.383073 1_556
Cd1 O9 2.383073 1_556
I0 O0 1.852063 1_555
I0 O1 1.852063 1_555
I0 O10 1.874781 1_555
I0 O11 1.874781 1_555
I0 O5 1.914967 1_555
I0 O4 1.914967 1_555
I1 O2 1.852063 1_455
I1 O3 1.852063 1_545
I1 O9 1.874781 1_556
I1 O8 1.874781 1_446
I1 O6 1.914967 1_546
I1 O7 1.914967 1_456
O4 Y0 2.254198 1_555
O4 Y1 2.308248 1_555
O5 Y0 2.254198 1_665
O5 Y1 2.308248 1_555
O6 Y1 2.254198 1_555
O6 Y0 2.308248 1_565
O7 Y1 2.254198 1_555
O7 Y0 2.308248 1_655
O8 Y1 2.205788 1_555
O9 Y1 2.205788 1_555
O10 Y0 2.205788 1_655
O11 Y0 2.205788 1_565
