# generated using pymatgen
data_Ti4TcOs2Ru
_symmetry_space_group_name_H-M   'P 1'
_cell_length_a   4.35548916
_cell_length_b   4.35744166
_cell_length_c   7.55414777
_cell_angle_alpha   73.22871202
_cell_angle_beta   90.00108522
_cell_angle_gamma   119.98442423
_symmetry_Int_Tables_number   1
_chemical_formula_structural   Ti4TcOs2Ru
_chemical_formula_sum   'Ti4 Tc1 Os2 Ru1'
_cell_volume   117.08733942
_cell_formula_units_Z   1
loop_
 _symmetry_equiv_pos_site_id
 _symmetry_equiv_pos_as_xyz
  1  'x, y, z'
loop_
 _atom_site_type_symbol
 _atom_site_label
 _atom_site_symmetry_multiplicity
 _atom_site_fract_x
 _atom_site_fract_y
 _atom_site_fract_z
 _atom_site_occupancy
  Ti  Ti0  1  0.00044735  0.00089170  0.99865210  1
  Ti  Ti1  1  0.49958674  0.99917447  0.50129032  1
  Ti  Ti2  1  0.25041526  0.50082653  0.24871068  1
  Ti  Ti3  1  0.74955465  0.49910830  0.75134890  1
  Tc  Tc0  1  0.37499800  0.74999900  0.87500000  1
  Os  Os0  1  0.62433287  0.24866174  0.12697264  1
  Os  Os1  1  0.12566813  0.25133926  0.62302736  1
  Ru  Ru0  1  0.87499900  0.74999900  0.37499900  1
loop_
_geom_bond_atom_site_label_1
_geom_bond_atom_site_label_2
_geom_bond_distance
_geom_bond_site_symmetry_2
Tc0 Ti1 2.661810 1_555
Tc0 Ti2 2.661817 1_556
Tc0 Ti3 2.664767 1_455
Tc0 Ti0 2.664779 1_565
Tc0 Ti3 2.664790 1_555
Tc0 Ti0 2.664792 1_665
Tc0 Ti0 2.665836 1_555
Tc0 Ti3 2.665843 1_565
Os0 Ti2 2.660299 1_655
Os0 Ti2 2.660307 1_555
Os0 Ti2 2.661378 1_545
Os0 Ti1 2.666140 1_545
Os0 Ti3 2.675443 1_554
Os0 Ti0 2.675938 1_554
Os0 Ti0 2.675945 1_654
Os0 Ti0 2.677041 1_664
Os1 Ti1 2.660292 1_445
Os1 Ti1 2.660307 1_545
Os1 Ti1 2.661378 1_555
Os1 Ti2 2.666133 1_555
Os1 Ti0 2.675450 1_555
Os1 Ti3 2.675941 1_455
Os1 Ti3 2.675946 1_555
Os1 Ti3 2.677044 1_445
Ru0 Ti2 2.671103 1_555
Ru0 Ti1 2.671128 1_655
Ru0 Ti2 2.671130 1_655
Ru0 Ti1 2.671137 1_555
Ru0 Ti1 2.671954 1_545
Ru0 Ti2 2.671965 1_665
Ru0 Ti0 2.680594 1_664
Ru0 Ti3 2.680615 1_555
