# generated using pymatgen
data_HfZr3Rh2O
_symmetry_space_group_name_H-M   'P 1'
_cell_length_a   8.74842263
_cell_length_b   8.74842354
_cell_length_c   8.74842325
_cell_angle_alpha   60.00000111
_cell_angle_beta   59.99999768
_cell_angle_gamma   60.00000188
_symmetry_Int_Tables_number   1
_chemical_formula_structural   HfZr3Rh2O
_chemical_formula_sum   'Hf4 Zr12 Rh8 O4'
_cell_volume   473.45024564
_cell_formula_units_Z   4
loop_
 _symmetry_equiv_pos_site_id
 _symmetry_equiv_pos_as_xyz
  1  'x, y, z'
loop_
 _atom_site_type_symbol
 _atom_site_label
 _atom_site_symmetry_multiplicity
 _atom_site_fract_x
 _atom_site_fract_y
 _atom_site_fract_z
 _atom_site_occupancy
  Hf  Hf0  1  0.12500000  0.62500000  0.62500000  1
  Hf  Hf1  1  0.62500000  0.12500000  0.62500000  1
  Hf  Hf2  1  0.62500000  0.62500000  0.12500000  1
  Hf  Hf3  1  0.62500000  0.62500000  0.62500000  1
  Zr  Zr0  1  0.81548559  0.81548559  0.18451441  1
  Zr  Zr1  1  0.18451441  0.18451441  0.81548559  1
  Zr  Zr2  1  0.81548559  0.18451441  0.81548559  1
  Zr  Zr3  1  0.18451441  0.81548559  0.18451441  1
  Zr  Zr4  1  0.18451441  0.81548559  0.81548559  1
  Zr  Zr5  1  0.81548559  0.18451441  0.18451441  1
  Zr  Zr6  1  0.43451441  0.43451441  0.06548559  1
  Zr  Zr7  1  0.06548559  0.06548559  0.43451441  1
  Zr  Zr8  1  0.43451441  0.06548559  0.43451441  1
  Zr  Zr9  1  0.06548559  0.43451441  0.06548559  1
  Zr  Zr10  1  0.06548559  0.43451441  0.43451441  1
  Zr  Zr11  1  0.43451441  0.06548559  0.06548559  1
  Rh  Rh0  1  0.77885470  0.40704777  0.40704777  1
  Rh  Rh1  1  0.40704777  0.77885470  0.40704777  1
  Rh  Rh2  1  0.40704777  0.40704777  0.77885470  1
  Rh  Rh3  1  0.40704777  0.40704777  0.40704777  1
  Rh  Rh4  1  0.47114530  0.84295223  0.84295223  1
  Rh  Rh5  1  0.84295223  0.47114530  0.84295223  1
  Rh  Rh6  1  0.84295223  0.84295223  0.47114530  1
  Rh  Rh7  1  0.84295223  0.84295223  0.84295223  1
  O  O0  1  0.62500000  0.12500000  0.12500000  1
  O  O1  1  0.12500000  0.62500000  0.12500000  1
  O  O2  1  0.12500000  0.12500000  0.62500000  1
  O  O3  1  0.12500000  0.12500000  0.12500000  1
loop_
_geom_bond_atom_site_label_1
_geom_bond_atom_site_label_2
_geom_bond_distance
_geom_bond_site_symmetry_2
Hf0 Rh1 2.754209 1_555
Hf0 Rh5 2.754209 1_455
Hf0 Rh2 2.754209 1_555
Hf0 Rh6 2.754209 1_455
Hf0 Rh7 2.754220 1_455
Hf0 Rh3 2.754220 1_555
Hf1 Rh0 2.754209 1_555
Hf1 Rh4 2.754209 1_545
Hf1 Rh2 2.754209 1_555
Hf1 Rh6 2.754209 1_545
Hf1 Rh7 2.754220 1_545
Hf1 Rh3 2.754220 1_555
Hf2 Rh1 2.754209 1_555
Hf2 Rh5 2.754209 1_554
Hf2 Rh0 2.754209 1_555
Hf2 Rh4 2.754209 1_554
Hf2 Rh7 2.754220 1_554
Hf2 Rh3 2.754220 1_555
Hf3 Rh6 2.754223 1_555
Hf3 Rh2 2.754223 1_555
Hf3 Rh5 2.754223 1_555
Hf3 Rh1 2.754223 1_555
Hf3 Rh4 2.754223 1_555
Hf3 Rh0 2.754223 1_555
Rh0 Zr9 2.768780 1_655
Rh0 Zr7 2.768781 1_655
Rh0 Zr10 2.768791 1_655
Rh0 Zr5 3.197688 1_555
Rh0 Zr2 3.197704 1_555
Rh0 Zr0 3.197704 1_555
Rh1 Zr7 2.768781 1_565
Rh1 Zr11 2.768781 1_565
Rh1 Zr8 2.768791 1_565
Rh1 Zr3 3.197688 1_555
Rh1 Zr0 3.197703 1_555
Rh1 Zr4 3.197703 1_555
Rh2 Zr9 2.768780 1_556
Rh2 Zr11 2.768781 1_556
Rh2 Zr6 2.768791 1_556
Rh2 Zr1 3.197688 1_555
Rh2 Zr2 3.197703 1_555
Rh2 Zr4 3.197704 1_555
Rh3 Zr10 2.768773 1_555
Rh3 Zr6 2.768773 1_555
Rh3 Zr8 2.768774 1_555
Rh3 Zr5 3.197697 1_555
Rh3 Zr1 3.197697 1_555
Rh3 Zr3 3.197697 1_555
Rh4 Zr3 2.768780 1_556
Rh4 Zr1 2.768781 1_565
Rh4 Zr4 2.768791 1_555
Rh4 Zr11 3.197688 1_566
Rh4 Zr8 3.197704 1_565
Rh4 Zr6 3.197704 1_556
Rh5 Zr1 2.768781 1_655
Rh5 Zr5 2.768781 1_556
Rh5 Zr2 2.768791 1_555
Rh5 Zr9 3.197688 1_656
Rh5 Zr6 3.197703 1_556
Rh5 Zr10 3.197703 1_655
Rh6 Zr3 2.768780 1_655
Rh6 Zr5 2.768781 1_565
Rh6 Zr0 2.768791 1_555
Rh6 Zr7 3.197688 1_665
Rh6 Zr8 3.197703 1_565
Rh6 Zr10 3.197704 1_655
Rh7 Zr4 2.768773 1_655
Rh7 Zr0 2.768773 1_556
Rh7 Zr2 2.768774 1_565
Rh7 Zr11 3.197697 1_566
Rh7 Zr7 3.197697 1_665
Rh7 Zr9 3.197697 1_656
O0 Zr5 2.307726 1_555
O0 Zr8 2.307726 1_555
O0 Zr2 2.307726 1_554
O0 Zr11 2.307726 1_555
O0 Zr6 2.307726 1_555
O0 Zr0 2.307726 1_545
O1 Zr6 2.307726 1_555
O1 Zr0 2.307726 1_455
O1 Zr3 2.307726 1_555
O1 Zr4 2.307726 1_554
O1 Zr10 2.307726 1_555
O1 Zr9 2.307726 1_555
O2 Zr8 2.307726 1_555
O2 Zr2 2.307726 1_455
O2 Zr1 2.307726 1_555
O2 Zr7 2.307726 1_555
O2 Zr10 2.307726 1_555
O2 Zr4 2.307726 1_545
O3 Zr11 2.307726 1_555
O3 Zr5 2.307726 1_455
O3 Zr7 2.307726 1_555
O3 Zr1 2.307726 1_554
O3 Zr9 2.307726 1_555
O3 Zr3 2.307726 1_545
