# generated using pymatgen
data_Cd2HgAsO5
_symmetry_space_group_name_H-M   'P 1'
_cell_length_a   8.79526970
_cell_length_b   6.55924718
_cell_length_c   11.39206466
_cell_angle_alpha   54.98468737
_cell_angle_beta   90.00000000
_cell_angle_gamma   90.00000000
_symmetry_Int_Tables_number   1
_chemical_formula_structural   Cd2HgAsO5
_chemical_formula_sum   'Cd8 Hg4 As4 O20'
_cell_volume   538.25593213
_cell_formula_units_Z   4
loop_
 _symmetry_equiv_pos_site_id
 _symmetry_equiv_pos_as_xyz
  1  'x, y, z'
loop_
 _atom_site_type_symbol
 _atom_site_label
 _atom_site_symmetry_multiplicity
 _atom_site_fract_x
 _atom_site_fract_y
 _atom_site_fract_z
 _atom_site_occupancy
  Cd  Cd0  1  0.13705795  0.65088109  0.35127570  1
  Cd  Cd1  1  0.36294205  0.65088109  0.85127570  1
  Cd  Cd2  1  0.86294205  0.34911891  0.64872430  1
  Cd  Cd3  1  0.63705795  0.34911891  0.14872430  1
  Cd  Cd4  1  0.99951869  0.76289297  0.99939197  1
  Cd  Cd5  1  0.50048131  0.76289297  0.49939197  1
  Cd  Cd6  1  0.00048131  0.23710703  0.00060803  1
  Cd  Cd7  1  0.49951869  0.23710703  0.50060803  1
  Hg  Hg0  1  0.36575547  0.94376030  0.05595361  1
  Hg  Hg1  1  0.13424453  0.94376030  0.55595361  1
  Hg  Hg2  1  0.63424453  0.05623970  0.94404639  1
  Hg  Hg3  1  0.86575547  0.05623970  0.44404639  1
  As  As0  1  0.24476248  0.27517549  0.72709702  1
  As  As1  1  0.25523752  0.27517549  0.22709702  1
  As  As2  1  0.75523752  0.72482451  0.27290298  1
  As  As3  1  0.74476248  0.72482451  0.77290298  1
  O  O0  1  0.13292710  0.88061941  0.11863626  1
  O  O1  1  0.36707290  0.88061941  0.61863626  1
  O  O2  1  0.86707290  0.11938059  0.88136374  1
  O  O3  1  0.63292710  0.11938059  0.38136374  1
  O  O4  1  0.21749475  0.37734789  0.83370001  1
  O  O5  1  0.28250525  0.37734789  0.33370001  1
  O  O6  1  0.78250525  0.62265211  0.16629999  1
  O  O7  1  0.71749475  0.62265211  0.66629999  1
  O  O8  1  0.21484880  0.96120786  0.82975692  1
  O  O9  1  0.28515120  0.96120786  0.32975692  1
  O  O10  1  0.78515120  0.03879214  0.17024308  1
  O  O11  1  0.71484880  0.03879214  0.67024308  1
  O  O12  1  0.11377088  0.41427666  0.59238357  1
  O  O13  1  0.38622912  0.41427666  0.09238357  1
  O  O14  1  0.88622912  0.58572334  0.40761643  1
  O  O15  1  0.61377088  0.58572334  0.90761643  1
  O  O16  1  0.41828786  0.35580474  0.64523993  1
  O  O17  1  0.08171214  0.35580474  0.14523993  1
  O  O18  1  0.58171214  0.64419526  0.35476007  1
  O  O19  1  0.91828786  0.64419526  0.85476007  1
loop_
_geom_bond_atom_site_label_1
_geom_bond_atom_site_label_2
_geom_bond_distance
_geom_bond_site_symmetry_2
Cd0 O0 2.170894 1_555
Cd0 O12 2.258991 1_555
Cd0 O14 2.268639 1_455
Cd0 O5 2.303882 1_555
Cd0 O9 2.308098 1_555
Cd1 O1 2.170894 1_555
Cd1 O13 2.258991 1_556
Cd1 O15 2.268639 1_555
Cd1 O4 2.303882 1_555
Cd1 O8 2.308098 1_555
Cd2 O2 2.170894 1_555
Cd2 O14 2.258991 1_555
Cd2 O12 2.268639 1_655
Cd2 O7 2.303882 1_555
Cd2 O11 2.308098 1_555
Cd3 O3 2.170894 1_555
Cd3 O15 2.258991 1_554
Cd3 O13 2.268639 1_555
Cd3 O6 2.303882 1_555
Cd3 O10 2.308098 1_555
Cd4 O0 2.241032 1_656
Cd4 O2 2.241525 1_565
Cd4 O19 2.302936 1_555
Cd4 O17 2.306903 1_656
Cd4 O6 2.469307 1_556
Cd4 O8 2.475604 1_655
Cd5 O1 2.241032 1_555
Cd5 O3 2.241525 1_565
Cd5 O18 2.302936 1_555
Cd5 O16 2.306903 1_555
Cd5 O7 2.469307 1_555
Cd5 O9 2.475604 1_555
Cd6 O2 2.241032 1_454
Cd6 O0 2.241525 1_545
Cd6 O17 2.302936 1_555
Cd6 O19 2.306903 1_454
Cd6 O4 2.469307 1_554
Cd6 O10 2.475604 1_455
Cd7 O3 2.241032 1_555
Cd7 O1 2.241525 1_545
Cd7 O16 2.302936 1_555
Cd7 O18 2.306903 1_555
Cd7 O5 2.469307 1_555
Cd7 O11 2.475604 1_555
Hg0 O0 2.129669 1_555
Hg1 O1 2.129669 1_555
Hg2 O2 2.129669 1_555
Hg3 O3 2.129669 1_555
As0 O12 1.705324 1_555
As0 O16 1.706641 1_555
As0 O8 1.707079 1_545
As0 O4 1.707479 1_555
As1 O13 1.705324 1_555
As1 O17 1.706641 1_555
As1 O9 1.707079 1_545
As1 O5 1.707479 1_555
As2 O14 1.705324 1_555
As2 O18 1.706641 1_555
As2 O10 1.707079 1_565
As2 O6 1.707479 1_555
As3 O15 1.705324 1_555
As3 O19 1.706641 1_555
As3 O11 1.707079 1_565
As3 O7 1.707479 1_555
