# generated using pymatgen
data_Ti8Al15CrPt6
_symmetry_space_group_name_H-M   'P 1'
_cell_length_a   8.63235207
_cell_length_b   8.63235275
_cell_length_c   8.63235261
_cell_angle_alpha   120.25710544
_cell_angle_beta   119.71428148
_cell_angle_gamma   90.02543166
_symmetry_Int_Tables_number   1
_chemical_formula_structural   Ti8Al15CrPt6
_chemical_formula_sum   'Ti8 Al15 Cr1 Pt6'
_cell_volume   454.94002844
_cell_formula_units_Z   1
loop_
 _symmetry_equiv_pos_site_id
 _symmetry_equiv_pos_as_xyz
  1  'x, y, z'
loop_
 _atom_site_type_symbol
 _atom_site_label
 _atom_site_symmetry_multiplicity
 _atom_site_fract_x
 _atom_site_fract_y
 _atom_site_fract_z
 _atom_site_occupancy
  Ti  Ti0  1  0.79028547  0.28997046  0.07654729  1
  Ti  Ti1  1  0.21342417  0.28997046  0.49968599  1
  Ti  Ti2  1  0.21013316  0.71013316  0.50000000  1
  Ti  Ti3  1  0.21342417  0.71373818  0.92345271  1
  Ti  Ti4  1  0.79028547  0.71373818  0.50031401  1
  Ti  Ti5  1  0.78674919  0.28674919  0.50000000  1
  Ti  Ti6  1  0.38393019  0.11716204  0.73323185  1
  Ti  Ti7  1  0.38393019  0.65069933  0.26676815  1
  Al  Al0  1  0.99809426  0.49809426  0.50000000  1
  Al  Al1  1  0.15737308  0.34486104  0.18748697  1
  Al  Al2  1  0.15737308  0.96988611  0.81251303  1
  Al  Al3  1  0.15658846  0.34377999  0.81280847  1
  Al  Al4  1  0.53097151  0.34377999  0.18719153  1
  Al  Al5  1  0.84358529  0.65520097  0.81161769  1
  Al  Al6  1  0.84358529  0.03196760  0.18838231  1
  Al  Al7  1  0.84262489  0.65637511  0.18624878  1
  Al  Al8  1  0.47012633  0.65637511  0.81375122  1
  Al  Al9  1  0.38386617  0.11785183  0.26601534  1
  Al  Al10  1  0.85183749  0.11785183  0.73398466  1
  Al  Al11  1  0.61777643  0.88356760  0.26579217  1
  Al  Al12  1  0.61777643  0.35198426  0.73420783  1
  Al  Al13  1  0.62006151  0.88189611  0.73816739  1
  Al  Al14  1  0.14372772  0.88189611  0.26183261  1
  Cr  Cr0  1  0.49554454  0.99554454  0.50000000  1
  Pt  Pt0  1  0.99806785  0.99910304  0.49918239  1
  Pt  Pt1  1  0.49992066  0.99910304  0.00103520  1
  Pt  Pt2  1  0.50032643  0.50032643  1.00000000  1
  Pt  Pt3  1  0.49992066  0.49888546  0.50081761  1
  Pt  Pt4  1  0.99806785  0.49888546  0.99896480  1
  Pt  Pt5  1  0.00062311  0.00062311  0.00000000  1
loop_
_geom_bond_atom_site_label_1
_geom_bond_atom_site_label_2
_geom_bond_distance
_geom_bond_site_symmetry_2
Ti0 Ti6 2.923563 1_554
Ti1 Ti6 2.923556 1_555
Ti2 Ti6 2.919201 1_565
Ti2 Ti7 2.919203 1_555
Ti3 Ti7 2.923558 1_556
Ti4 Ti7 2.923565 1_555
Al0 Ti5 2.579526 1_555
Al0 Ti0 2.585719 1_555
Al0 Ti3 2.585719 1_655
Al0 Ti4 2.585719 1_555
Al0 Ti1 2.585725 1_655
Al0 Ti2 2.587994 1_655
Al1 Pt5 2.501868 1_555
Al1 Pt4 2.504181 1_454
Al1 Pt3 2.504188 1_555
Al1 Ti2 2.763306 1_555
Al1 Ti0 2.777779 1_455
Al1 Ti1 2.777790 1_555
Al1 Ti7 2.847988 1_555
Al1 Al10 2.854909 1_454
Al1 Al9 2.854914 1_555
Al2 Pt5 2.501861 1_566
Al2 Pt1 2.504188 1_556
Al2 Pt0 2.504188 1_455
Al2 Ti2 2.763312 1_555
Al2 Ti4 2.777779 1_455
Al2 Ti3 2.777779 1_555
Al2 Ti6 2.847988 1_565
Al2 Al9 2.854911 1_566
Al3 Pt0 2.502174 1_445
Al3 Pt4 2.502174 1_455
Al3 Pt2 2.506886 1_555
Al3 Ti1 2.795030 1_555
Al3 Ti3 2.795033 1_555
Al3 Ti5 2.799833 1_455
Al3 Ti6 2.852327 1_555
Al3 Ti7 2.852328 1_556
Al4 Pt1 2.502174 1_545
Al4 Pt3 2.502174 1_555
Al4 Pt2 2.506886 1_554
Al4 Ti4 2.795033 1_555
Al4 Ti0 2.795033 1_555
Al4 Ti5 2.799833 1_555
Al4 Al9 2.840937 1_555
Al4 Ti6 2.852326 1_554
Al4 Ti7 2.852334 1_555
Al5 Pt4 2.505477 1_555
Al5 Pt3 2.505492 1_555
Al5 Pt5 2.509526 1_666
Al5 Ti5 2.767861 1_555
Al5 Ti3 2.798464 1_655
Al5 Ti4 2.798475 1_555
Al6 Pt1 2.505492 1_545
Al6 Pt0 2.505492 1_545
Al6 Pt5 2.509511 1_655
Al6 Ti5 2.767873 1_555
Al6 Ti0 2.798455 1_555
Al6 Ti1 2.798461 1_655
Al7 Pt4 2.489928 1_554
Al7 Pt0 2.489935 1_555
Al7 Pt2 2.496973 1_554
Al7 Ti4 2.767875 1_555
Al7 Ti0 2.767877 1_555
Al7 Ti2 2.798110 1_655
Al8 Pt1 2.489935 1_556
Al8 Pt3 2.489935 1_555
Al8 Pt2 2.496966 1_555
Al8 Ti3 2.767869 1_555
Al8 Ti1 2.767874 1_555
Al8 Ti2 2.798115 1_555
Al9 Cr0 2.518625 1_545
Al9 Pt3 2.682592 1_555
Al9 Pt1 2.682599 1_545
Al9 Pt5 2.714030 1_555
Al9 Ti5 2.892163 1_555
Al9 Ti1 2.892223 1_555
Al9 Ti3 2.892231 1_544
Al10 Cr0 2.518632 1_545
Al10 Pt0 2.682585 1_545
Al10 Pt4 2.682592 1_555
Al10 Pt5 2.714036 1_656
Al10 Al3 2.840925 1_655
Al10 Al2 2.854904 1_645
Al10 Al11 2.858468 1_545
Al10 Al12 2.858474 1_555
Al10 Al13 2.880152 1_545
Al10 Ti5 2.892155 1_555
Al10 Ti4 2.892230 1_545
Al10 Ti0 2.892237 1_556
Al11 Cr0 2.506291 1_555
Al11 Pt0 2.691844 1_555
Al11 Pt1 2.691852 1_555
Al11 Pt2 2.697847 1_554
Al11 Al6 2.835306 1_565
Al11 Al8 2.837723 1_554
Al11 Al7 2.837725 1_555
Al11 Ti7 2.854159 1_555
Al11 Al9 2.858480 1_565
Al11 Ti5 2.882564 1_565
Al11 Ti4 2.910250 1_555
Al11 Ti3 2.910257 1_554
Al12 Cr0 2.506291 1_545
Al12 Pt4 2.691844 1_555
Al12 Pt3 2.691845 1_555
Al12 Pt2 2.697854 1_555
Al12 Al5 2.835287 1_555
Al12 Al7 2.837723 1_556
Al12 Al8 2.837723 1_555
Al12 Ti6 2.854171 1_555
Al12 Al9 2.858468 1_555
Al12 Ti5 2.882557 1_555
Al12 Ti1 2.910255 1_555
Al12 Ti0 2.910263 1_556
Al13 Cr0 2.487478 1_555
Al13 Pt5 2.693100 1_666
Al13 Pt1 2.696034 1_556
Al13 Pt3 2.696048 1_555
Al13 Al6 2.827618 1_566
Al13 Al5 2.827642 1_555
Al13 Al8 2.829462 1_555
Al13 Ti6 2.878557 1_565
Al13 Ti7 2.878569 1_555
Al13 Ti0 2.910550 1_566
Al13 Ti4 2.910571 1_555
Al13 Ti2 2.942505 1_555
Al14 Cr0 2.487485 1_555
Al14 Pt5 2.693086 1_565
Al14 Pt0 2.696041 1_455
Al14 Pt4 2.696047 1_454
Al14 Al6 2.827611 1_465
Al14 Al5 2.827615 1_454
Al14 Al7 2.829458 1_455
Al14 Ti6 2.878569 1_565
Al14 Ti7 2.878569 1_555
Al14 Al9 2.880134 1_565
Al14 Ti1 2.910548 1_565
Al14 Ti3 2.910562 1_554
Al14 Ti2 2.942519 1_555
Cr0 Ti7 2.424429 1_555
Cr0 Ti6 2.424436 1_565
Pt0 Ti6 2.732389 1_665
Pt0 Ti4 3.053386 1_555
Pt0 Ti5 3.080973 1_565
Pt0 Ti2 3.095593 1_655
Pt0 Ti1 3.120470 1_665
Pt1 Ti6 2.732389 1_564
Pt1 Ti3 3.053386 1_554
Pt1 Ti5 3.080973 1_565
Pt1 Ti2 3.095593 1_554
Pt1 Ti0 3.120470 1_565
Pt2 Ti6 2.698173 1_555
Pt2 Ti7 2.698173 1_556
Pt2 Ti1 3.093979 1_555
Pt2 Ti4 3.093980 1_556
Pt2 Ti3 3.093980 1_555
Pt2 Ti0 3.093986 1_556
Pt3 Ti7 2.732397 1_555
Pt3 Ti1 3.053391 1_555
Pt3 Ti5 3.080973 1_555
Pt3 Ti2 3.095593 1_555
Pt3 Ti4 3.120476 1_555
Pt4 Ti7 2.732389 1_656
Pt4 Ti0 3.053392 1_556
Pt4 Ti5 3.080973 1_555
Pt4 Ti2 3.095593 1_656
Pt4 Ti3 3.120477 1_655
Pt5 Ti0 3.082586 1_455
Pt5 Ti1 3.082591 1_555
Pt5 Ti4 3.082592 1_444
Pt5 Ti3 3.082592 1_544
