# generated using pymatgen
data_Eu(NiP)2
_symmetry_space_group_name_H-M   'P 1'
_cell_length_a   3.93781085
_cell_length_b   3.93781037
_cell_length_c   5.49526183
_cell_angle_alpha   110.99531068
_cell_angle_beta   110.99529818
_cell_angle_gamma   90.00000961
_symmetry_Int_Tables_number   1
_chemical_formula_structural   Eu(NiP)2
_chemical_formula_sum   'Eu1 Ni2 P2'
_cell_volume   73.46268504
_cell_formula_units_Z   1
loop_
 _symmetry_equiv_pos_site_id
 _symmetry_equiv_pos_as_xyz
  1  'x, y, z'
loop_
 _atom_site_type_symbol
 _atom_site_label
 _atom_site_symmetry_multiplicity
 _atom_site_fract_x
 _atom_site_fract_y
 _atom_site_fract_z
 _atom_site_occupancy
  Eu  Eu0  1  -0.00000000  0.00000000  0.00000000  1
  Ni  Ni0  1  0.75000000  0.25000000  0.50000000  1
  Ni  Ni1  1  0.25000000  0.75000000  0.50000000  1
  P  P0  1  0.62867877  0.62867877  0.25735955  1
  P  P1  1  0.37132123  0.37132123  0.74264045  1
loop_
_geom_bond_atom_site_label_1
_geom_bond_atom_site_label_2
_geom_bond_distance
_geom_bond_site_symmetry_2
Eu0 P1 3.039695 1_444
Eu0 P0 3.039695 1_555
Eu0 P1 3.039700 1_544
Eu0 P0 3.039700 1_455
Eu0 P0 3.039701 1_545
Eu0 P1 3.039701 1_454
Eu0 P0 3.039705 1_445
Eu0 P1 3.039705 1_554
Eu0 Ni1 3.080222 1_555
Eu0 Ni0 3.080222 1_444
Eu0 Ni0 3.080222 1_455
Eu0 Ni1 3.080222 1_544
Eu0 Ni1 3.080223 1_444
Eu0 Ni0 3.080223 1_555
Eu0 Ni0 3.080223 1_454
Eu0 Ni1 3.080223 1_545
Ni0 P1 2.279911 1_555
Ni0 P0 2.279911 1_555
Ni0 P0 2.279917 1_545
Ni0 P1 2.279918 1_655
Ni1 P0 2.279911 1_555
Ni1 P1 2.279911 1_555
Ni1 P1 2.279917 1_565
Ni1 P0 2.279918 1_455
P0 P1 2.438526 1_554
