# generated using pymatgen
data_PbSO4
_symmetry_space_group_name_H-M   'P 1'
_cell_length_a   5.40642415
_cell_length_b   6.96126410
_cell_length_c   8.43810398
_cell_angle_alpha   90.00000000
_cell_angle_beta   90.00000000
_cell_angle_gamma   90.00000000
_symmetry_Int_Tables_number   1
_chemical_formula_structural   PbSO4
_chemical_formula_sum   'Pb4 S4 O16'
_cell_volume   317.57265340
_cell_formula_units_Z   4
loop_
 _symmetry_equiv_pos_site_id
 _symmetry_equiv_pos_as_xyz
  1  'x, y, z'
loop_
 _atom_site_type_symbol
 _atom_site_label
 _atom_site_symmetry_multiplicity
 _atom_site_fract_x
 _atom_site_fract_y
 _atom_site_fract_z
 _atom_site_occupancy
  Pb  Pb0  1  0.25000000  0.33246213  0.69063396  1
  Pb  Pb1  1  0.75000000  0.66753787  0.30936604  1
  Pb  Pb2  1  0.75000000  0.83246213  0.80936604  1
  Pb  Pb3  1  0.25000000  0.16753787  0.19063396  1
  S  S0  1  0.75000000  0.31749513  0.93596756  1
  S  S1  1  0.25000000  0.68250487  0.06403244  1
  S  S2  1  0.25000000  0.81749513  0.56403244  1
  S  S3  1  0.75000000  0.18250487  0.43596756  1
  O  O0  1  0.75000000  0.40695630  0.09243224  1
  O  O1  1  0.25000000  0.59304370  0.90756776  1
  O  O2  1  0.25000000  0.90695630  0.40756776  1
  O  O3  1  0.75000000  0.09304370  0.59243224  1
  O  O4  1  0.47344689  0.80627502  0.08089072  1
  O  O5  1  0.97344689  0.19372498  0.91910928  1
  O  O6  1  0.52655311  0.30627502  0.41910928  1
  O  O7  1  0.02655311  0.69372498  0.58089072  1
  O  O8  1  0.75000000  0.04033695  0.30593829  1
  O  O9  1  0.25000000  0.95966305  0.69406171  1
  O  O10  1  0.25000000  0.54033695  0.19406171  1
  O  O11  1  0.75000000  0.45966305  0.80593829  1
  O  O12  1  0.97344689  0.30627502  0.41910928  1
  O  O13  1  0.47344689  0.69372498  0.58089072  1
  O  O14  1  0.02655311  0.80627502  0.08089072  1
  O  O15  1  0.52655311  0.19372498  0.91910928  1
loop_
_geom_bond_atom_site_label_1
_geom_bond_atom_site_label_2
_geom_bond_distance
_geom_bond_site_symmetry_2
O0 S0 1.459772 1_554
O0 Pb1 2.577068 1_555
O1 S1 1.459772 1_556
O1 Pb0 2.577068 1_555
O2 S2 1.459772 1_555
O2 Pb3 2.577068 1_565
O3 S3 1.459772 1_555
O3 Pb2 2.577068 1_545
O4 S1 1.490626 1_555
O4 Pb1 2.623938 1_555
O4 Pb2 2.741921 1_554
O5 S0 1.490626 1_555
O5 Pb0 2.623938 1_655
O5 Pb3 2.741921 1_656
O6 S3 1.490626 1_555
O6 Pb3 2.623938 1_555
O6 Pb0 2.741921 1_555
O7 S2 1.490626 1_555
O7 Pb2 2.623938 1_455
O7 Pb1 2.741921 1_455
O8 S3 1.477597 1_555
O8 Pb1 2.595314 1_545
O9 S2 1.477597 1_555
O9 Pb0 2.595314 1_565
O10 S1 1.477597 1_555
O10 Pb3 2.595314 1_555
O11 S0 1.477597 1_555
O11 Pb2 2.595314 1_555
O12 S3 1.490626 1_555
O12 Pb3 2.623938 1_655
O12 Pb0 2.741921 1_655
O13 S2 1.490626 1_555
O13 Pb2 2.623938 1_555
O13 Pb1 2.741921 1_555
O14 S1 1.490626 1_555
O14 Pb1 2.623938 1_455
O14 Pb2 2.741921 1_454
O15 S0 1.490626 1_555
O15 Pb0 2.623938 1_555
O15 Pb3 2.741921 1_556
