# generated using pymatgen
data_TaTi4NbSn2
_symmetry_space_group_name_H-M   'P 1'
_cell_length_a   7.47030125
_cell_length_b   7.47317579
_cell_length_c   6.26253689
_cell_angle_alpha   65.19352103
_cell_angle_beta   65.18785778
_cell_angle_gamma   81.11250494
_symmetry_Int_Tables_number   1
_chemical_formula_structural   TaTi4NbSn2
_chemical_formula_sum   'Ta2 Ti8 Nb2 Sn4'
_cell_volume   287.96408459
_cell_formula_units_Z   2
loop_
 _symmetry_equiv_pos_site_id
 _symmetry_equiv_pos_as_xyz
  1  'x, y, z'
loop_
 _atom_site_type_symbol
 _atom_site_label
 _atom_site_symmetry_multiplicity
 _atom_site_fract_x
 _atom_site_fract_y
 _atom_site_fract_z
 _atom_site_occupancy
  Ta  Ta0  1  0.00615985  0.24274811  0.12555736  1
  Ta  Ta1  1  0.49384891  0.25725285  0.37443473  1
  Ti  Ti0  1  0.22729142  0.52268448  0.12578926  1
  Ti  Ti1  1  0.72748085  0.02244886  0.12179644  1
  Ti  Ti2  1  0.77252340  0.47754275  0.37819814  1
  Ti  Ti3  1  0.27270283  0.97732267  0.37420075  1
  Ti  Ti4  1  0.72776297  0.02284163  0.62799548  1
  Ti  Ti5  1  0.22689233  0.52243578  0.62450248  1
  Ti  Ti6  1  0.27310698  0.97757123  0.87549977  1
  Ti  Ti7  1  0.77223967  0.47715854  0.87200688  1
  Nb  Nb0  1  0.50766805  0.74322368  0.62452739  1
  Nb  Nb1  1  0.99232373  0.75676830  0.87549251  1
  Sn  Sn0  1  0.53169148  0.71686491  0.12573928  1
  Sn  Sn1  1  0.96831020  0.78312118  0.37427149  1
  Sn  Sn2  1  0.03315345  0.21827636  0.62433145  1
  Sn  Sn3  1  0.46684389  0.28174265  0.87565359  1
loop_
_geom_bond_atom_site_label_1
_geom_bond_atom_site_label_2
_geom_bond_distance
_geom_bond_site_symmetry_2
Ta0 Ti7 2.773544 1_454
Ta0 Ti2 2.773791 1_455
Ta0 Ti4 2.855075 1_455
Ta0 Ti5 2.855330 1_554
Ta0 Ti1 2.859658 1_455
Ta0 Ti0 2.859675 1_555
Ta0 Ti3 3.018944 1_545
Ta0 Ti6 3.019642 1_544
Ta1 Ti4 2.773547 1_555
Ta1 Ti1 2.773826 1_555
Ta1 Ti7 2.855022 1_554
Ta1 Ti6 2.855365 1_545
Ta1 Ti2 2.859590 1_555
Ta1 Ti3 2.859719 1_545
Ta1 Ti0 3.019050 1_555
Ta1 Ti5 3.019734 1_555
Ti0 Ti2 3.090859 1_455
Ti0 Ti6 3.093279 1_554
Ti0 Ti5 3.121181 1_555
Ti0 Ti5 3.141359 1_554
Ti1 Ti4 3.090333 1_554
Ti1 Ti3 3.090918 1_545
Ti1 Ti7 3.091559 1_554
Ti1 Ti4 3.172208 1_555
Ti2 Ti7 3.090403 1_555
Ti2 Ti4 3.091502 1_555
Ti2 Ti7 3.172137 1_554
Ti3 Ti5 3.093277 1_555
Ti3 Ti6 3.121089 1_554
Ti3 Ti6 3.141451 1_555
Ti4 Ti6 3.090185 1_545
Ti5 Ti7 3.090166 1_455
Nb0 Ti6 2.767286 1_555
Nb0 Ti3 2.767394 1_555
Nb0 Ti0 2.857379 1_556
Nb0 Ti1 2.858322 1_565
Nb0 Ti5 2.862118 1_555
Nb0 Ti4 2.863566 1_565
Nb0 Ti2 3.005186 1_555
Nb0 Ti7 3.005431 1_555
Nb0 Sn1 3.128117 1_555
Nb0 Sn3 3.135504 1_555
Nb0 Sn0 3.140586 1_555
Nb0 Sn0 3.141093 1_556
Nb1 Ti0 2.767268 1_656
Nb1 Ti5 2.767279 1_655
Nb1 Ti3 2.857514 1_655
Nb1 Ti2 2.858214 1_556
Nb1 Ti6 2.862181 1_655
Nb1 Ti7 2.863521 1_555
Nb1 Ti1 3.005071 1_566
Nb1 Ti4 3.005446 1_565
Nb1 Sn0 3.128053 1_556
Nb1 Sn2 3.135689 1_665
Nb1 Sn1 3.140536 1_556
Nb1 Sn1 3.141132 1_555
Sn0 Ti2 2.820538 1_555
Sn0 Ti7 2.821420 1_554
Sn0 Ti0 2.880166 1_555
Sn0 Ti5 2.880444 1_555
Sn0 Ti1 2.882615 1_565
Sn0 Ti4 2.883151 1_564
Sn0 Ti6 2.966327 1_554
Sn0 Ti3 2.967171 1_555
Sn0 Ta1 3.121677 1_555
Sn1 Ti1 2.820593 1_565
Sn1 Ti4 2.821470 1_565
Sn1 Ti3 2.880145 1_655
Sn1 Ti6 2.880493 1_654
Sn1 Ti2 2.882621 1_555
Sn1 Ti7 2.883078 1_555
Sn1 Ti5 2.966233 1_655
Sn1 Ti0 2.967099 1_655
Sn1 Ta0 3.121780 1_665
Sn2 Ti3 2.813737 1_545
Sn2 Ti6 2.814068 1_545
Sn2 Ti5 2.877704 1_555
Sn2 Ti0 2.878462 1_555
Sn2 Ti4 2.880230 1_455
Sn2 Ti1 2.880598 1_456
Sn2 Ti7 2.960290 1_455
Sn2 Ti2 2.961068 1_455
Sn2 Ta1 3.128106 1_555
Sn2 Ta0 3.141042 1_556
Sn2 Ta0 3.141471 1_555
Sn3 Ti0 2.813692 1_556
Sn3 Ti5 2.813969 1_555
Sn3 Ti6 2.877714 1_545
Sn3 Ti3 2.878519 1_546
Sn3 Ti7 2.880234 1_555
Sn3 Ti2 2.880551 1_555
Sn3 Ti4 2.960355 1_555
Sn3 Ti1 2.961208 1_556
Sn3 Ta0 3.128036 1_556
Sn3 Ta1 3.141030 1_555
Sn3 Ta1 3.141506 1_556
