# generated using pymatgen
data_Nb3Cr(AsO4)6
_symmetry_space_group_name_H-M   'P 1'
_cell_length_a   9.23970702
_cell_length_b   9.23970625
_cell_length_c   9.23970598
_cell_angle_alpha   56.84369800
_cell_angle_beta   56.84370138
_cell_angle_gamma   56.84369909
_symmetry_Int_Tables_number   1
_chemical_formula_structural   Nb3Cr(AsO4)6
_chemical_formula_sum   'Nb3 Cr1 As6 O24'
_cell_volume   517.15115772
_cell_formula_units_Z   1
loop_
 _symmetry_equiv_pos_site_id
 _symmetry_equiv_pos_as_xyz
  1  'x, y, z'
loop_
 _atom_site_type_symbol
 _atom_site_label
 _atom_site_symmetry_multiplicity
 _atom_site_fract_x
 _atom_site_fract_y
 _atom_site_fract_z
 _atom_site_occupancy
  Nb  Nb0  1  0.85593621  0.85593621  0.85593621  1
  Nb  Nb1  1  0.64104375  0.64104375  0.64104375  1
  Nb  Nb2  1  0.36248652  0.36248652  0.36248652  1
  Cr  Cr0  1  0.14636157  0.14636157  0.14636157  1
  As  As0  1  0.25527976  0.51331103  0.97132376  1
  As  As1  1  0.97132376  0.25527976  0.51331103  1
  As  As2  1  0.51331103  0.97132376  0.25527976  1
  As  As3  1  0.46061174  0.03165559  0.76495301  1
  As  As4  1  0.03165559  0.76495301  0.46061174  1
  As  As5  1  0.76495301  0.46061174  0.03165559  1
  O  O0  1  0.69813532  0.50045357  0.87089496  1
  O  O1  1  0.50045357  0.87089496  0.69813532  1
  O  O2  1  0.04323946  0.68170901  0.97561224  1
  O  O3  1  0.87089496  0.69813532  0.50045357  1
  O  O4  1  0.40524223  0.60043448  0.76560749  1
  O  O5  1  0.29176312  0.30948433  0.98450572  1
  O  O6  1  0.97561224  0.04323946  0.68170901  1
  O  O7  1  0.76560749  0.40524223  0.60043448  1
  O  O8  1  0.60043448  0.76560749  0.40524223  1
  O  O9  1  0.67082558  0.01189620  0.72956868  1
  O  O10  1  0.30939962  0.00274661  0.97883805  1
  O  O11  1  0.01189620  0.72956868  0.67082558  1
  O  O12  1  0.98450572  0.29176312  0.30948433  1
  O  O13  1  0.68170901  0.97561224  0.04323946  1
  O  O14  1  0.30948433  0.98450572  0.29176312  1
  O  O15  1  0.39228253  0.23856979  0.60272438  1
  O  O16  1  0.23856979  0.60272438  0.39228253  1
  O  O17  1  0.00274661  0.97883805  0.30939962  1
  O  O18  1  0.72956868  0.67082558  0.01189620  1
  O  O19  1  0.60272438  0.39228253  0.23856979  1
  O  O20  1  0.13576471  0.29619528  0.50114368  1
  O  O21  1  0.97883805  0.30939962  0.00274661  1
  O  O22  1  0.50114368  0.13576471  0.29619528  1
  O  O23  1  0.29619528  0.50114368  0.13576471  1
loop_
_geom_bond_atom_site_label_1
_geom_bond_atom_site_label_2
_geom_bond_distance
_geom_bond_site_symmetry_2
Nb0 O13 1.976861 1_556
Nb0 O2 1.976861 1_655
Nb0 O6 1.976861 1_565
Nb0 O11 2.003298 1_655
Nb0 O9 2.003298 1_565
Nb0 O18 2.003298 1_556
Nb1 O8 1.972627 1_555
Nb1 O7 1.972627 1_555
Nb1 O4 1.972627 1_555
Nb1 O0 1.983491 1_555
Nb1 O1 1.983492 1_555
Nb1 O3 1.983492 1_555
Nb2 O15 1.964067 1_555
Nb2 O16 1.964067 1_555
Nb2 O19 1.964067 1_555
Nb2 O23 2.003589 1_555
Nb2 O22 2.003589 1_555
Nb2 O20 2.003590 1_555
Cr0 O14 1.965892 1_545
Cr0 O12 1.965892 1_455
Cr0 O5 1.965892 1_554
Cr0 O21 1.983837 1_455
Cr0 O10 1.983837 1_554
Cr0 O17 1.983837 1_545
As0 O5 1.665789 1_555
As0 O4 1.687104 1_555
As0 O23 1.690877 1_556
As0 O2 1.705580 1_555
As1 O12 1.665789 1_555
As1 O7 1.687104 1_555
As1 O20 1.690877 1_655
As1 O6 1.705580 1_555
As2 O14 1.665789 1_555
As2 O8 1.687104 1_555
As2 O22 1.690877 1_565
As2 O13 1.705580 1_555
As3 O10 1.655133 1_555
As3 O1 1.696880 1_545
As3 O15 1.697264 1_555
As3 O9 1.701643 1_555
As4 O17 1.655133 1_555
As4 O3 1.696880 1_455
As4 O16 1.697264 1_555
As4 O11 1.701643 1_555
As5 O21 1.655133 1_555
As5 O0 1.696880 1_554
As5 O19 1.697264 1_555
As5 O18 1.701643 1_555
