# generated using pymatgen
data_Nb16Ni8C3N
_symmetry_space_group_name_H-M   'P 1'
_cell_length_a   8.25882707
_cell_length_b   8.27774186
_cell_length_c   8.27774189
_cell_angle_alpha   60.00000386
_cell_angle_beta   59.92421403
_cell_angle_gamma   59.92421277
_symmetry_Int_Tables_number   1
_chemical_formula_structural   Nb16Ni8C3N
_chemical_formula_sum   'Nb16 Ni8 C3 N1'
_cell_volume   399.69499059
_cell_formula_units_Z   1
loop_
 _symmetry_equiv_pos_site_id
 _symmetry_equiv_pos_as_xyz
  1  'x, y, z'
loop_
 _atom_site_type_symbol
 _atom_site_label
 _atom_site_symmetry_multiplicity
 _atom_site_fract_x
 _atom_site_fract_y
 _atom_site_fract_z
 _atom_site_occupancy
  Nb  Nb0  1  0.43256437  0.06787408  0.06787408  1
  Nb  Nb1  1  0.06397262  0.43474147  0.43474147  1
  Nb  Nb2  1  0.06397262  0.43474147  0.06654544  1
  Nb  Nb3  1  0.06397262  0.06654544  0.43474147  1
  Nb  Nb4  1  0.43256437  0.06787408  0.43168747  1
  Nb  Nb5  1  0.43256437  0.43168747  0.06787408  1
  Nb  Nb6  1  0.18602738  0.81525853  0.18345456  1
  Nb  Nb7  1  0.81743563  0.18212592  0.81831253  1
  Nb  Nb8  1  0.81743563  0.18212592  0.18212592  1
  Nb  Nb9  1  0.18602738  0.18345456  0.81525853  1
  Nb  Nb10  1  0.18602738  0.81525853  0.81525853  1
  Nb  Nb11  1  0.81743563  0.81831253  0.18212592  1
  Nb  Nb12  1  0.62500000  0.62500000  0.62500000  1
  Nb  Nb13  1  0.62500000  0.62500000  0.12500000  1
  Nb  Nb14  1  0.12500000  0.62500000  0.62500000  1
  Nb  Nb15  1  0.62500000  0.12500000  0.62500000  1
  Ni  Ni0  1  0.82821390  0.82961014  0.82961014  1
  Ni  Ni1  1  0.82821390  0.82961014  0.51256482  1
  Ni  Ni2  1  0.51572034  0.82809322  0.82809322  1
  Ni  Ni3  1  0.82821390  0.51256482  0.82961014  1
  Ni  Ni4  1  0.42178610  0.42038986  0.42038986  1
  Ni  Ni5  1  0.42178610  0.42038986  0.73743518  1
  Ni  Ni6  1  0.42178610  0.73743518  0.42038986  1
  Ni  Ni7  1  0.73427966  0.42190678  0.42190678  1
  C  C0  1  0.12500000  0.62500000  0.12500000  1
  C  C1  1  0.12500000  0.12500000  0.62500000  1
  C  C2  1  0.12500000  0.12500000  0.12500000  1
  N  N0  1  0.62500000  0.12500000  0.12500000  1
loop_
_geom_bond_atom_site_label_1
_geom_bond_atom_site_label_2
_geom_bond_distance
_geom_bond_site_symmetry_2
Nb0 Ni5 2.829608 1_554
Nb0 Ni6 2.829608 1_545
Nb0 Ni0 3.070530 1_544
Nb0 Ni2 3.091595 1_544
Nb1 Ni7 2.833340 1_455
Nb1 Ni4 2.841009 1_555
Nb1 Ni1 3.059350 1_455
Nb1 Ni3 3.059350 1_455
Nb2 Ni7 2.833336 1_455
Nb2 Ni5 2.841009 1_554
Nb2 Ni0 3.059357 1_454
Nb2 Ni3 3.059364 1_454
Nb3 Ni7 2.833336 1_455
Nb3 Ni6 2.841009 1_545
Nb3 Ni0 3.059357 1_445
Nb3 Ni1 3.059364 1_445
Nb4 Ni6 2.829603 1_545
Nb4 Ni4 2.829612 1_555
Nb4 Ni1 3.070526 1_545
Nb4 Ni2 3.091596 1_545
Nb5 Ni5 2.829603 1_554
Nb5 Ni4 2.829612 1_555
Nb5 Ni3 3.070526 1_554
Nb5 Ni2 3.091596 1_554
Nb6 Ni2 2.833336 1_554
Nb6 Ni1 2.841009 1_455
Nb6 Ni4 3.059357 1_555
Nb6 Ni6 3.059364 1_555
Nb7 Ni3 2.829603 1_555
Nb7 Ni0 2.829612 1_545
Nb7 Ni5 3.070526 1_555
Nb7 Ni7 3.091596 1_555
Nb8 Ni1 2.829608 1_545
Nb8 Ni3 2.829608 1_554
Nb8 Ni4 3.070530 1_555
Nb8 Ni7 3.091595 1_555
Nb9 Ni2 2.833336 1_545
Nb9 Ni3 2.841009 1_455
Nb9 Ni4 3.059357 1_555
Nb9 Ni5 3.059364 1_555
Nb10 Ni2 2.833340 1_555
Nb10 Ni0 2.841009 1_455
Nb10 Ni5 3.059350 1_555
Nb10 Ni6 3.059350 1_555
Nb11 Ni1 2.829603 1_555
Nb11 Ni0 2.829612 1_554
Nb11 Ni6 3.070526 1_555
Nb11 Ni7 3.091596 1_555
Nb12 Ni2 2.500374 1_555
Nb12 Ni7 2.500374 1_555
Nb12 Ni3 2.501744 1_555
Nb12 Ni6 2.501744 1_555
Nb12 Ni1 2.501744 1_555
Nb12 Ni5 2.501744 1_555
Nb13 Ni7 2.500374 1_555
Nb13 Ni2 2.500374 1_554
Nb13 Ni0 2.501747 1_554
Nb13 Ni4 2.501747 1_555
Nb13 Ni6 2.501751 1_555
Nb13 Ni3 2.501751 1_554
Nb14 Ni0 2.508374 1_455
Nb14 Ni4 2.508374 1_555
Nb14 Ni5 2.508378 1_555
Nb14 Ni1 2.508378 1_455
Nb14 Ni6 2.508378 1_555
Nb14 Ni3 2.508378 1_455
Nb15 Ni7 2.500374 1_555
Nb15 Ni2 2.500374 1_545
Nb15 Ni0 2.501747 1_545
Nb15 Ni4 2.501747 1_555
Nb15 Ni5 2.501751 1_555
Nb15 Ni1 2.501751 1_545
Ni0 Ni2 2.593476 1_555
Ni0 Ni3 2.624419 1_555
Ni0 Ni1 2.624419 1_555
Ni1 Ni2 2.593481 1_555
Ni1 Ni3 2.624419 1_555
Ni2 Ni3 2.593481 1_555
Ni4 Ni7 2.593476 1_555
Ni4 Ni6 2.624419 1_555
Ni4 Ni5 2.624419 1_555
Ni5 Ni7 2.593481 1_555
Ni5 Ni6 2.624419 1_555
Ni6 Ni7 2.593481 1_555
C0 Nb5 2.171458 1_555
C0 Nb11 2.171458 1_455
C0 Nb6 2.184169 1_555
C0 Nb2 2.184169 1_555
C0 Nb1 2.184175 1_555
C0 Nb10 2.184175 1_554
C1 Nb4 2.171458 1_555
C1 Nb7 2.171458 1_455
C1 Nb9 2.184169 1_555
C1 Nb3 2.184169 1_555
C1 Nb1 2.184175 1_555
C1 Nb10 2.184175 1_545
C2 Nb0 2.171458 1_555
C2 Nb8 2.171458 1_455
C2 Nb2 2.184177 1_555
C2 Nb6 2.184177 1_545
C2 Nb3 2.184177 1_555
C2 Nb9 2.184177 1_554
N0 Nb8 2.168684 1_555
N0 Nb0 2.168684 1_555
N0 Nb11 2.168684 1_545
N0 Nb5 2.168684 1_555
N0 Nb7 2.168684 1_554
N0 Nb4 2.168684 1_555
