# generated using pymatgen
data_SrZn12Cu
_symmetry_space_group_name_H-M   'P 1'
_cell_length_a   8.51875741
_cell_length_b   8.51875713
_cell_length_c   8.51875642
_cell_angle_alpha   59.99999905
_cell_angle_beta   60.00000012
_cell_angle_gamma   59.99999901
_symmetry_Int_Tables_number   1
_chemical_formula_structural   SrZn12Cu
_chemical_formula_sum   'Sr2 Zn24 Cu2'
_cell_volume   437.13309124
_cell_formula_units_Z   2
loop_
 _symmetry_equiv_pos_site_id
 _symmetry_equiv_pos_as_xyz
  1  'x, y, z'
loop_
 _atom_site_type_symbol
 _atom_site_label
 _atom_site_symmetry_multiplicity
 _atom_site_fract_x
 _atom_site_fract_y
 _atom_site_fract_z
 _atom_site_occupancy
  Sr  Sr0  1  0.25000000  0.25000000  0.25000000  1
  Sr  Sr1  1  0.75000000  0.75000000  0.75000000  1
  Zn  Zn0  1  0.94068250  0.29656065  0.05931750  1
  Zn  Zn1  1  0.55931750  0.44068250  0.20343935  1
  Zn  Zn2  1  0.05931750  0.94068250  0.29656065  1
  Zn  Zn3  1  0.29656065  0.05931750  0.94068250  1
  Zn  Zn4  1  0.70343935  0.29656065  0.94068250  1
  Zn  Zn5  1  0.20343935  0.55931750  0.44068250  1
  Zn  Zn6  1  0.94068250  0.05931750  0.70343935  1
  Zn  Zn7  1  0.20343935  0.44068250  0.79656065  1
  Zn  Zn8  1  0.94068250  0.70343935  0.29656065  1
  Zn  Zn9  1  0.44068250  0.20343935  0.55931750  1
  Zn  Zn10  1  0.55931750  0.79656065  0.44068250  1
  Zn  Zn11  1  0.44068250  0.79656065  0.20343935  1
  Zn  Zn12  1  0.20343935  0.79656065  0.55931750  1
  Zn  Zn13  1  0.70343935  0.94068250  0.05931750  1
  Zn  Zn14  1  0.29656065  0.94068250  0.70343935  1
  Zn  Zn15  1  0.79656065  0.20343935  0.44068250  1
  Zn  Zn16  1  0.55931750  0.20343935  0.79656065  1
  Zn  Zn17  1  0.05931750  0.29656065  0.70343935  1
  Zn  Zn18  1  0.79656065  0.44068250  0.55931750  1
  Zn  Zn19  1  0.70343935  0.05931750  0.29656065  1
  Zn  Zn20  1  0.79656065  0.55931750  0.20343935  1
  Zn  Zn21  1  0.29656065  0.70343935  0.05931750  1
  Zn  Zn22  1  0.44068250  0.55931750  0.79656065  1
  Zn  Zn23  1  0.05931750  0.70343935  0.94068250  1
  Cu  Cu0  1  0.50000000  0.50000000  0.50000000  1
  Cu  Cu1  1  0.00000000  0.00000000  0.00000000  1
loop_
_geom_bond_atom_site_label_1
_geom_bond_atom_site_label_2
_geom_bond_distance
_geom_bond_site_symmetry_2
Sr0 Zn7 3.511403 1_554
Sr0 Zn17 3.511403 1_555
Sr0 Zn14 3.511403 1_545
Sr0 Zn16 3.511404 1_554
Sr0 Zn3 3.511404 1_554
Sr0 Zn9 3.511404 1_555
Sr0 Zn22 3.511404 1_554
Sr0 Zn23 3.511404 1_554
Sr0 Zn6 3.511404 1_455
Sr0 Zn5 3.511404 1_555
Sr0 Zn10 3.511404 1_545
Sr0 Zn12 3.511404 1_545
Sr0 Zn11 3.511404 1_545
Sr0 Zn18 3.511404 1_455
Sr0 Zn0 3.511404 1_455
Sr0 Zn8 3.511404 1_455
Sr0 Zn13 3.511404 1_545
Sr0 Zn21 3.511404 1_555
Sr0 Zn20 3.511404 1_455
Sr0 Zn19 3.511404 1_555
Sr0 Zn2 3.511404 1_545
Sr0 Zn4 3.511404 1_554
Sr0 Zn1 3.511404 1_555
Sr0 Zn15 3.511404 1_455
Sr1 Zn20 3.511403 1_556
Sr1 Zn8 3.511403 1_555
Sr1 Zn19 3.511403 1_565
Sr1 Zn11 3.511404 1_556
Sr1 Zn13 3.511404 1_556
Sr1 Zn10 3.511404 1_555
Sr1 Zn1 3.511404 1_556
Sr1 Zn0 3.511404 1_556
Sr1 Zn2 3.511404 1_655
Sr1 Zn18 3.511404 1_555
Sr1 Zn9 3.511404 1_565
Sr1 Zn15 3.511404 1_565
Sr1 Zn16 3.511404 1_565
Sr1 Zn5 3.511404 1_655
Sr1 Zn23 3.511404 1_655
Sr1 Zn17 3.511404 1_655
Sr1 Zn3 3.511404 1_565
Sr1 Zn4 3.511404 1_555
Sr1 Zn7 3.511404 1_655
Sr1 Zn14 3.511404 1_555
Sr1 Zn6 3.511404 1_565
Sr1 Zn21 3.511404 1_556
Sr1 Zn22 3.511404 1_555
Sr1 Zn12 3.511404 1_655
Zn0 Zn20 2.552960 1_555
Zn0 Zn7 2.552960 1_654
Zn0 Zn15 2.664431 1_555
Zn0 Zn1 2.664431 1_555
Zn0 Zn17 2.673640 1_654
Zn0 Zn2 2.673640 1_645
Zn0 Zn4 2.673640 1_554
Zn0 Zn3 2.673640 1_654
Zn0 Zn19 2.858149 1_555
Zn1 Zn4 2.552960 1_554
Zn1 Zn21 2.552960 1_555
Zn1 Zn19 2.664431 1_555
Zn1 Zn9 2.673640 1_555
Zn1 Zn11 2.673640 1_555
Zn1 Zn5 2.673640 1_555
Zn1 Zn20 2.673640 1_555
Zn1 Zn15 2.858149 1_555
Zn2 Zn5 2.664431 1_555
Zn2 Zn3 2.673640 1_564
Zn2 Zn8 2.673640 1_455
Zn2 Zn21 2.858149 1_555
Zn3 Zn9 2.664431 1_555
Zn3 Zn7 2.664431 1_555
Zn4 Zn6 2.858149 1_555
Zn5 Zn8 2.552960 1_455
Zn5 Zn7 2.673640 1_555
Zn5 Zn9 2.673640 1_555
Zn7 Zn9 2.858149 1_555
Zn10 Zn14 2.552960 1_555
Zn10 Zn19 2.552960 1_565
Zn10 Zn13 2.664431 1_555
Zn10 Zn8 2.664432 1_555
Zn10 Zn22 2.673640 1_555
Zn10 Zn11 2.673640 1_555
Zn10 Zn18 2.673640 1_555
Zn10 Zn12 2.673640 1_555
Zn10 Zn20 2.858149 1_555
Zn11 Zn3 2.552960 1_564
Zn11 Zn13 2.552960 1_555
Zn11 Zn21 2.664431 1_555
Zn11 Zn2 2.664432 1_555
Zn11 Zn12 2.673640 1_555
Zn11 Zn20 2.673640 1_555
Zn11 Zn5 2.858149 1_555
Zn12 Zn2 2.552960 1_555
Zn12 Zn6 2.552960 1_465
Zn12 Zn23 2.664431 1_555
Zn12 Zn14 2.664431 1_555
Zn12 Zn7 2.673640 1_555
Zn12 Zn5 2.673640 1_555
Zn12 Zn22 2.858149 1_555
Zn13 Zn16 2.552960 1_564
Zn13 Zn20 2.664431 1_555
Zn13 Zn19 2.673640 1_565
Zn13 Zn6 2.673640 1_564
Zn13 Zn4 2.673640 1_564
Zn13 Zn23 2.673640 1_654
Zn13 Zn8 2.858149 1_555
Zn14 Zn9 2.552960 1_565
Zn14 Zn22 2.664431 1_555
Zn14 Zn21 2.673640 1_556
Zn14 Zn3 2.673640 1_565
Zn14 Zn17 2.673640 1_565
Zn14 Zn6 2.673640 1_465
Zn14 Zn23 2.858149 1_555
Zn15 Zn6 2.552960 1_555
Zn15 Zn2 2.552960 1_645
Zn15 Zn19 2.664431 1_555
Zn15 Zn16 2.673640 1_555
Zn15 Zn20 2.673640 1_555
Zn15 Zn18 2.673640 1_555
Zn15 Zn9 2.673640 1_555
Zn16 Zn3 2.552960 1_555
Zn16 Zn4 2.664431 1_555
Zn16 Zn6 2.664432 1_555
Zn16 Zn9 2.673640 1_555
Zn16 Zn22 2.673640 1_555
Zn16 Zn7 2.673640 1_555
Zn16 Zn18 2.858149 1_555
Zn17 Zn18 2.552960 1_455
Zn17 Zn5 2.552960 1_555
Zn17 Zn7 2.664431 1_555
Zn17 Zn9 2.664432 1_555
Zn17 Zn6 2.673640 1_455
Zn17 Zn4 2.673640 1_455
Zn17 Zn3 2.858149 1_555
Zn18 Zn8 2.552960 1_555
Zn18 Zn4 2.664431 1_555
Zn18 Zn6 2.664431 1_555
Zn18 Zn20 2.673640 1_555
Zn18 Zn22 2.673640 1_555
Zn19 Zn9 2.552960 1_555
Zn19 Zn4 2.673640 1_554
Zn19 Zn8 2.673640 1_545
Zn19 Zn2 2.673640 1_645
Zn20 Zn23 2.552960 1_654
Zn20 Zn8 2.664431 1_555
Zn21 Zn22 2.552960 1_554
Zn21 Zn5 2.664431 1_555
Zn21 Zn23 2.673640 1_554
Zn21 Zn3 2.673640 1_564
Zn21 Zn8 2.673640 1_455
Zn22 Zn4 2.552960 1_555
Zn22 Zn23 2.664431 1_555
Zn22 Zn7 2.673640 1_555
Zn23 Zn7 2.552960 1_555
Zn23 Zn8 2.673640 1_456
Zn23 Zn6 2.673640 1_465
Cu0 Zn22 2.576368 1_555
Cu0 Zn1 2.576368 1_555
Cu0 Zn11 2.576368 1_555
Cu0 Zn16 2.576368 1_555
Cu0 Zn20 2.576368 1_555
Cu0 Zn7 2.576368 1_555
Cu0 Zn12 2.576368 1_555
Cu0 Zn15 2.576368 1_555
Cu0 Zn10 2.576368 1_555
Cu0 Zn9 2.576368 1_555
Cu0 Zn18 2.576368 1_555
Cu0 Zn5 2.576368 1_555
Cu1 Zn2 2.576368 1_545
Cu1 Zn6 2.576368 1_454
Cu1 Zn17 2.576368 1_554
Cu1 Zn8 2.576368 1_445
Cu1 Zn19 2.576368 1_455
Cu1 Zn14 2.576368 1_544
Cu1 Zn0 2.576368 1_455
Cu1 Zn23 2.576368 1_544
Cu1 Zn21 2.576368 1_545
Cu1 Zn4 2.576368 1_454
Cu1 Zn3 2.576368 1_554
Cu1 Zn13 2.576368 1_445
