# generated using pymatgen
data_Cs6Cd2H9F
_symmetry_space_group_name_H-M   'P 1'
_cell_length_a   8.62304227
_cell_length_b   8.62304194
_cell_length_c   8.62304244
_cell_angle_alpha   122.23337964
_cell_angle_beta   122.23338010
_cell_angle_gamma   86.17332779
_symmetry_Int_Tables_number   1
_chemical_formula_structural   Cs6Cd2H9F
_chemical_formula_sum   'Cs6 Cd2 H9 F1'
_cell_volume   437.01759968
_cell_formula_units_Z   1
loop_
 _symmetry_equiv_pos_site_id
 _symmetry_equiv_pos_as_xyz
  1  'x, y, z'
loop_
 _atom_site_type_symbol
 _atom_site_label
 _atom_site_symmetry_multiplicity
 _atom_site_fract_x
 _atom_site_fract_y
 _atom_site_fract_z
 _atom_site_occupancy
  Cs  Cs0  1  0.81262819  0.32237113  0.13500032  1
  Cs  Cs1  1  0.67762887  0.81262819  0.49025706  1
  Cs  Cs2  1  0.32237113  0.18737181  0.50974294  1
  Cs  Cs3  1  0.18737181  0.67762887  0.86499968  1
  Cs  Cs4  1  0.25393616  0.25393616  0.00000000  1
  Cs  Cs5  1  0.74606384  0.74606384  1.00000000  1
  Cd  Cd0  1  0.25000000  0.75000000  0.50000000  1
  Cd  Cd1  1  0.75000000  0.25000000  0.50000000  1
  H  H0  1  0.00000000  0.00000000  0.00000000  1
  H  H1  1  0.28783047  0.53802461  0.49996401  1
  H  H2  1  0.03806161  0.78786646  0.50003599  1
  H  H3  1  0.78786646  0.28783047  0.74980486  1
  H  H4  1  0.53802461  0.03806161  0.25019514  1
  H  H5  1  0.46197539  0.96193839  0.74980486  1
  H  H6  1  0.21213354  0.71216953  0.25019514  1
  H  H7  1  0.96193839  0.21213354  0.49996401  1
  H  H8  1  0.71216953  0.46197539  0.50003599  1
  F  F0  1  0.50000000  0.50000000  0.00000000  1
loop_
_geom_bond_atom_site_label_1
_geom_bond_atom_site_label_2
_geom_bond_distance
_geom_bond_site_symmetry_2
Cs0 F0 2.995313 1_555
Cs0 H5 3.059994 1_544
Cs0 H3 3.060007 1_554
Cs0 H0 3.106124 1_655
Cs0 H8 3.291667 1_555
Cs0 H2 3.291676 1_655
Cs0 H7 3.342312 1_555
Cs0 H1 3.342318 1_655
Cs1 F0 2.995312 1_555
Cs1 H8 3.059989 1_555
Cs1 H2 3.059998 1_655
Cs1 H0 3.106123 1_666
Cs1 H4 3.291676 1_565
Cs1 H6 3.291676 1_555
Cs1 H5 3.342312 1_555
Cs1 H3 3.342319 1_565
Cs2 F0 2.995312 1_556
Cs2 H1 3.059989 1_555
Cs2 H7 3.059998 1_455
Cs2 H0 3.106123 1_555
Cs2 H5 3.291676 1_545
Cs2 H3 3.291676 1_555
Cs2 H4 3.342312 1_555
Cs2 H6 3.342319 1_545
Cs3 F0 2.995313 1_556
Cs3 H4 3.059994 1_566
Cs3 H6 3.060007 1_556
Cs3 H0 3.106124 1_566
Cs3 H1 3.291667 1_555
Cs3 H7 3.291676 1_455
Cs3 H2 3.342312 1_555
Cs3 H8 3.342318 1_455
Cs4 F0 3.099219 1_555
Cs4 H0 3.198372 1_555
Cs5 F0 3.099219 1_556
Cs5 H0 3.198372 1_666
Cd0 H2 1.835052 1_555
Cd0 H6 1.835052 1_555
Cd0 H5 1.835056 1_555
Cd0 H1 1.835061 1_555
Cd1 H7 1.835052 1_555
Cd1 H3 1.835052 1_555
Cd1 H4 1.835056 1_555
Cd1 H8 1.835061 1_555
