# generated using pymatgen
data_BaZn5
_symmetry_space_group_name_H-M   'P 1'
_cell_length_a   5.30989066
_cell_length_b   6.80356792
_cell_length_c   6.80356292
_cell_angle_alpha   104.98374146
_cell_angle_beta   90.00003651
_cell_angle_gamma   90.00032882
_symmetry_Int_Tables_number   1
_chemical_formula_structural   BaZn5
_chemical_formula_sum   'Ba2 Zn10'
_cell_volume   237.42994368
_cell_formula_units_Z   2
loop_
 _symmetry_equiv_pos_site_id
 _symmetry_equiv_pos_as_xyz
  1  'x, y, z'
loop_
 _atom_site_type_symbol
 _atom_site_label
 _atom_site_symmetry_multiplicity
 _atom_site_fract_x
 _atom_site_fract_y
 _atom_site_fract_z
 _atom_site_occupancy
  Ba  Ba0  1  0.74999969  0.33565091  0.33565086  1
  Ba  Ba1  1  0.25000031  0.66434909  0.66434914  1
  Zn  Zn0  1  0.50000122  0.20205491  0.79794464  1
  Zn  Zn1  1  0.00000146  0.79795070  0.20205042  1
  Zn  Zn2  1  0.24999906  0.07976116  0.07976111  1
  Zn  Zn3  1  0.75000094  0.92023884  0.92023889  1
  Zn  Zn4  1  0.24999916  0.46651791  0.07833273  1
  Zn  Zn5  1  0.75000084  0.53348209  0.92166627  1
  Zn  Zn6  1  0.25000160  0.07833372  0.46651619  1
  Zn  Zn7  1  0.74999840  0.92166628  0.53348381  1
  Zn  Zn8  1  -0.00000146  0.20204930  0.79794958  1
  Zn  Zn9  1  0.49999878  0.79794509  0.20205536  1
loop_
_geom_bond_atom_site_label_1
_geom_bond_atom_site_label_2
_geom_bond_distance
_geom_bond_site_symmetry_2
Ba0 Zn2 3.397546 1_555
Ba0 Zn2 3.397558 1_655
Ba0 Zn5 3.421250 1_554
Ba0 Zn7 3.421259 1_545
Ba0 Zn6 3.422311 1_555
Ba0 Zn4 3.422329 1_655
Ba0 Zn4 3.422339 1_555
Ba0 Zn6 3.422341 1_655
Ba0 Zn3 3.441700 1_544
Ba0 Zn0 3.736192 1_555
Ba0 Zn9 3.736207 1_555
Ba0 Zn8 3.736243 1_655
Ba0 Zn1 3.736246 1_655
Ba0 Zn8 3.775182 1_654
Ba0 Zn1 3.775188 1_645
Ba0 Zn9 3.775206 1_545
Ba0 Zn0 3.775206 1_554
Ba0 Ba1 3.803275 1_655
Ba0 Ba1 3.803290 1_555
Ba0 Zn5 3.864304 1_555
Ba0 Zn7 3.864307 1_555
Ba1 Zn3 3.397546 1_555
Ba1 Zn3 3.397558 1_455
Ba1 Zn4 3.421244 1_556
Ba1 Zn6 3.421259 1_565
Ba1 Zn7 3.422311 1_555
Ba1 Zn5 3.422325 1_455
Ba1 Zn5 3.422335 1_555
Ba1 Zn7 3.422341 1_455
Ba1 Zn2 3.441700 1_566
Ba1 Zn9 3.736192 1_555
Ba1 Zn0 3.736207 1_555
Ba1 Zn1 3.736243 1_555
Ba1 Zn8 3.736246 1_555
Ba1 Zn1 3.775182 1_556
Ba1 Zn8 3.775188 1_565
Ba1 Zn0 3.775206 1_565
Ba1 Zn9 3.775206 1_556
Ba1 Zn6 3.864307 1_555
Ba1 Zn4 3.864310 1_555
Zn0 Zn5 2.563930 1_555
Zn0 Zn6 2.563939 1_555
Zn0 Zn7 2.619890 1_545
Zn0 Zn4 2.619908 1_556
Zn0 Zn2 2.637358 1_556
Zn0 Zn3 2.637359 1_545
Zn0 Zn8 2.654931 1_655
Zn0 Zn8 2.654960 1_555
Zn1 Zn4 2.563967 1_555
Zn1 Zn7 2.563978 1_455
Zn1 Zn6 2.619882 1_565
Zn1 Zn5 2.619897 1_454
Zn1 Zn2 2.637295 1_565
Zn1 Zn3 2.637310 1_454
Zn1 Zn9 2.654931 1_555
Zn1 Zn9 2.654960 1_455
Zn2 Zn6 2.633840 1_555
Zn2 Zn4 2.633855 1_555
Zn2 Zn8 2.637310 1_554
Zn2 Zn9 2.637359 1_545
Zn2 Zn3 2.965703 1_444
Zn2 Zn3 2.965733 1_544
Zn3 Zn7 2.633840 1_555
Zn3 Zn5 2.633853 1_555
Zn3 Zn8 2.637295 1_665
Zn3 Zn9 2.637358 1_556
Zn4 Zn9 2.563931 1_555
Zn4 Zn8 2.619893 1_554
Zn5 Zn8 2.563966 1_655
Zn5 Zn9 2.619912 1_556
Zn6 Zn8 2.563978 1_555
Zn6 Zn9 2.619890 1_545
Zn7 Zn9 2.563939 1_555
Zn7 Zn8 2.619882 1_665
