# generated using pymatgen
data_ZrZn3NiPd
_symmetry_space_group_name_H-M   'P 1'
_cell_length_a   4.96566756
_cell_length_b   4.96566655
_cell_length_c   4.91467237
_cell_angle_alpha   59.65616092
_cell_angle_beta   59.65617327
_cell_angle_gamma   60.00000272
_symmetry_Int_Tables_number   1
_chemical_formula_structural   ZrZn3NiPd
_chemical_formula_sum   'Zr1 Zn3 Ni1 Pd1'
_cell_volume   85.24287228
_cell_formula_units_Z   1
loop_
 _symmetry_equiv_pos_site_id
 _symmetry_equiv_pos_as_xyz
  1  'x, y, z'
loop_
 _atom_site_type_symbol
 _atom_site_label
 _atom_site_symmetry_multiplicity
 _atom_site_fract_x
 _atom_site_fract_y
 _atom_site_fract_z
 _atom_site_occupancy
  Zr  Zr0  1  0.75190363  0.75190363  0.74428811  1
  Zn  Zn0  1  0.12613220  0.12613220  0.12739490  1
  Zn  Zn1  1  0.62034270  0.12613220  0.12739490  1
  Zn  Zn2  1  0.12613220  0.62034270  0.12739490  1
  Ni  Ni0  1  0.12254982  0.12254982  0.63235155  1
  Pd  Pd0  1  0.50294046  0.50294046  0.49117862  1
loop_
_geom_bond_atom_site_label_1
_geom_bond_atom_site_label_2
_geom_bond_distance
_geom_bond_site_symmetry_2
Zn0 Zn2 2.454085 1_555
Zn0 Zn1 2.454085 1_555
Zn0 Zn2 2.511582 1_545
Zn0 Zn1 2.511582 1_455
Zn0 Zr0 2.857758 1_445
Zn0 Zr0 2.916074 1_454
Zn0 Zr0 2.916075 1_544
Zn1 Zn2 2.454085 1_555
Zn1 Zn2 2.511582 1_645
Zn1 Zr0 2.857751 1_545
Zn1 Zr0 2.916068 1_554
Zn1 Zr0 2.916081 1_544
Zn2 Zr0 2.857752 1_455
Zn2 Zr0 2.916068 1_554
Zn2 Zr0 2.916081 1_454
Ni0 Zn2 2.451074 1_546
Ni0 Zn1 2.451075 1_456
Ni0 Zn0 2.451077 1_556
Ni0 Zn0 2.463850 1_555
Ni0 Zn2 2.463852 1_555
Ni0 Zn1 2.463853 1_555
Ni0 Zr0 2.901538 1_455
Ni0 Zr0 2.901539 1_545
Ni0 Zr0 2.901547 1_445
Ni0 Pd0 2.921787 1_555
Ni0 Pd0 2.921792 1_545
Ni0 Pd0 2.921792 1_455
Pd0 Zn1 2.876368 1_555
Pd0 Zn2 2.876368 1_555
Pd0 Zn0 2.876372 1_565
Pd0 Zn0 2.876373 1_655
Pd0 Zn1 2.876376 1_565
Pd0 Zn2 2.876377 1_655
Pd0 Zn0 2.908163 1_556
Pd0 Zn1 2.908167 1_556
Pd0 Zn2 2.908167 1_556
Pd0 Zr0 2.981461 1_554
Pd0 Zr0 3.039756 1_555
Pd0 Zr0 3.039759 1_545
Pd0 Zr0 3.039760 1_455
