# generated using pymatgen
data_AlSbPtO6
_symmetry_space_group_name_H-M   'P 1'
_cell_length_a   4.53663970
_cell_length_b   9.07362474
_cell_length_c   9.13985413
_cell_angle_alpha   90.00006349
_cell_angle_beta   89.99987285
_cell_angle_gamma   90.00016298
_symmetry_Int_Tables_number   1
_chemical_formula_structural   AlSbPtO6
_chemical_formula_sum   'Al4 Sb4 Pt4 O24'
_cell_volume   376.23081897
_cell_formula_units_Z   4
loop_
 _symmetry_equiv_pos_site_id
 _symmetry_equiv_pos_as_xyz
  1  'x, y, z'
loop_
 _atom_site_type_symbol
 _atom_site_label
 _atom_site_symmetry_multiplicity
 _atom_site_fract_x
 _atom_site_fract_y
 _atom_site_fract_z
 _atom_site_occupancy
  Al  Al0  1  0.50000951  0.74999103  0.16688158  1
  Al  Al1  1  0.00000749  0.50000616  0.66687776  1
  Al  Al2  1  0.49998256  0.25000349  0.16687997  1
  Al  Al3  1  0.00000146  0.00000485  0.66687267  1
  Sb  Sb0  1  0.50000408  0.24999774  0.83423640  1
  Sb  Sb1  1  0.50000026  0.74999826  0.83423878  1
  Sb  Sb2  1  0.99999801  0.00000714  0.33424060  1
  Sb  Sb3  1  0.99999780  0.49999843  0.33424203  1
  Pt  Pt0  1  0.50000151  0.24999752  0.49980956  1
  Pt  Pt1  1  0.50000098  0.74999795  0.49981435  1
  Pt  Pt2  1  0.00000371  0.00000170  0.99980102  1
  Pt  Pt3  1  0.99999764  0.50000172  0.99980984  1
  O  O0  1  0.20044325  0.39985638  0.16911044  1
  O  O1  1  0.20044632  0.89986282  0.16910839  1
  O  O2  1  0.79955731  0.10014698  0.16910337  1
  O  O3  1  0.79954499  0.60014390  0.16911351  1
  O  O4  1  0.29955867  0.14985752  0.66910993  1
  O  O5  1  0.29955762  0.64985558  0.66911097  1
  O  O6  1  0.70043603  0.35014230  0.66910964  1
  O  O7  1  0.70044176  0.85013817  0.66910952  1
  O  O8  1  0.18842387  0.40586499  0.50562152  1
  O  O9  1  0.18842507  0.90586743  0.50561583  1
  O  O10  1  0.81157808  0.09412986  0.50562258  1
  O  O11  1  0.81157942  0.59412917  0.50562323  1
  O  O12  1  0.31161045  0.15585019  0.00563016  1
  O  O13  1  0.31158707  0.65586225  0.00563748  1
  O  O14  1  0.68840248  0.34414616  0.00563190  1
  O  O15  1  0.68839969  0.84414979  0.00563269  1
  O  O16  1  0.19001827  0.40506035  0.82480783  1
  O  O17  1  0.19003544  0.90506527  0.82479994  1
  O  O18  1  0.80997802  0.09493672  0.82479733  1
  O  O19  1  0.80996674  0.59493027  0.82480573  1
  O  O20  1  0.30991739  0.15509325  0.32479777  1
  O  O21  1  0.30991363  0.65509095  0.32479774  1
  O  O22  1  0.69009317  0.34490303  0.32479921  1
  O  O23  1  0.69008024  0.84491366  0.32480072  1
loop_
_geom_bond_atom_site_label_1
_geom_bond_atom_site_label_2
_geom_bond_distance
_geom_bond_site_symmetry_2
Al0 O21 1.889020 1_555
Al0 O23 1.889083 1_555
Al0 O13 1.905804 1_555
Al0 O15 1.905893 1_555
Al0 O3 1.922410 1_555
Al0 O1 1.922657 1_555
Al1 O19 1.889088 1_455
Al1 O16 1.889135 1_555
Al1 O11 1.905870 1_455
Al1 O8 1.905927 1_555
Al1 O5 1.922466 1_555
Al1 O6 1.922627 1_455
Al2 O20 1.889010 1_555
Al2 O22 1.889071 1_555
Al2 O12 1.905842 1_555
Al2 O14 1.905882 1_555
Al2 O0 1.922459 1_555
Al2 O2 1.922595 1_555
Al3 O18 1.889062 1_455
Al3 O17 1.889138 1_545
Al3 O10 1.905837 1_455
Al3 O9 1.905931 1_545
Al3 O4 1.922510 1_555
Al3 O7 1.922608 1_445
O0 Sb3 1.982544 1_455
O0 Pt3 2.011722 1_454
O1 Sb2 1.982564 1_465
O1 Pt2 2.011737 1_564
O2 Sb2 1.982569 1_555
O2 Pt2 2.011731 1_654
O3 Sb3 1.982557 1_555
O3 Pt3 2.011741 1_554
O4 Sb0 1.982501 1_555
O4 Pt0 2.011687 1_555
O5 Sb1 1.982515 1_555
O5 Pt1 2.011672 1_555
O6 Sb0 1.982492 1_555
O6 Pt0 2.011689 1_555
O7 Sb1 1.982510 1_555
O7 Pt1 2.011649 1_555
O8 Sb3 1.978340 1_455
O8 Pt0 2.000264 1_555
O9 Sb2 1.978336 1_465
O9 Pt1 2.000269 1_555
O10 Sb2 1.978300 1_555
O10 Pt0 2.000262 1_555
O11 Sb3 1.978323 1_555
O11 Pt1 2.000274 1_555
O12 Sb0 1.978430 1_554
O12 Pt2 2.000234 1_554
O13 Sb1 1.978459 1_554
O13 Pt3 2.000255 1_454
O14 Sb0 1.978457 1_554
O14 Pt3 2.000240 1_554
O15 Sb1 1.978460 1_554
O15 Pt2 2.000248 1_664
O16 Sb0 1.991154 1_555
O16 Pt3 2.010878 1_455
O17 Sb1 1.991119 1_555
O17 Pt2 2.010873 1_565
O18 Sb0 1.991109 1_555
O18 Pt2 2.010880 1_655
O19 Sb1 1.991128 1_555
O19 Pt3 2.010868 1_555
O20 Sb2 1.991091 1_455
O20 Pt0 2.010929 1_555
O21 Sb3 1.991122 1_455
O21 Pt1 2.010981 1_555
O22 Sb3 1.991104 1_555
O22 Pt0 2.010936 1_555
O23 Sb2 1.991132 1_565
O23 Pt1 2.010976 1_555
