# generated using pymatgen
data_NaNbO3
_symmetry_space_group_name_H-M   'P 1'
_cell_length_a   5.52487280
_cell_length_b   5.61125170
_cell_length_c   15.54671286
_cell_angle_alpha   90.00000000
_cell_angle_beta   90.00000000
_cell_angle_gamma   90.00000000
_symmetry_Int_Tables_number   1
_chemical_formula_structural   NaNbO3
_chemical_formula_sum   'Na8 Nb8 O24'
_cell_volume   481.97067080
_cell_formula_units_Z   8
loop_
 _symmetry_equiv_pos_site_id
 _symmetry_equiv_pos_as_xyz
  1  'x, y, z'
loop_
 _atom_site_type_symbol
 _atom_site_label
 _atom_site_symmetry_multiplicity
 _atom_site_fract_x
 _atom_site_fract_y
 _atom_site_fract_z
 _atom_site_occupancy
  Na  Na0  1  0.25724358  0.25000000  0.00000000  1
  Na  Na1  1  0.74275642  0.75000000  0.50000000  1
  Na  Na2  1  0.74275642  0.75000000  0.00000000  1
  Na  Na3  1  0.25724358  0.25000000  0.50000000  1
  Na  Na4  1  0.25876657  0.20103090  0.25000000  1
  Na  Na5  1  0.25876657  0.29896910  0.75000000  1
  Na  Na6  1  0.74123343  0.70103090  0.25000000  1
  Na  Na7  1  0.74123343  0.79896910  0.75000000  1
  Nb  Nb0  1  0.24386243  0.72447141  0.12529444  1
  Nb  Nb1  1  0.24386243  0.77552859  0.87470556  1
  Nb  Nb2  1  0.75613757  0.22447141  0.37470556  1
  Nb  Nb3  1  0.75613757  0.27552859  0.62529444  1
  Nb  Nb4  1  0.75613757  0.27552859  0.87470556  1
  Nb  Nb5  1  0.75613757  0.22447141  0.12529444  1
  Nb  Nb6  1  0.24386243  0.77552859  0.62529444  1
  Nb  Nb7  1  0.24386243  0.72447141  0.37470556  1
  O  O0  1  0.04460356  0.04715400  0.39338784  1
  O  O1  1  0.04460356  0.45284600  0.60661216  1
  O  O2  1  0.95539644  0.54715400  0.10661216  1
  O  O3  1  0.95539644  0.95284600  0.89338784  1
  O  O4  1  0.95539644  0.95284600  0.60661216  1
  O  O5  1  0.95539644  0.54715400  0.39338784  1
  O  O6  1  0.04460356  0.45284600  0.89338784  1
  O  O7  1  0.04460356  0.04715400  0.10661216  1
  O  O8  1  0.45485395  0.46205121  0.35558737  1
  O  O9  1  0.45485395  0.03794879  0.64441263  1
  O  O10  1  0.54514605  0.96205121  0.14441263  1
  O  O11  1  0.54514605  0.53794879  0.85558737  1
  O  O12  1  0.54514605  0.53794879  0.64441263  1
  O  O13  1  0.54514605  0.96205121  0.35558737  1
  O  O14  1  0.45485395  0.03794879  0.85558737  1
  O  O15  1  0.45485395  0.46205121  0.14441263  1
  O  O16  1  0.67699056  0.25000000  0.00000000  1
  O  O17  1  0.32300944  0.75000000  0.50000000  1
  O  O18  1  0.32300944  0.75000000  0.00000000  1
  O  O19  1  0.67699056  0.25000000  0.50000000  1
  O  O20  1  0.17525920  0.77792799  0.25000000  1
  O  O21  1  0.17525920  0.72207201  0.75000000  1
  O  O22  1  0.82474080  0.27792799  0.25000000  1
  O  O23  1  0.82474080  0.22207201  0.75000000  1
loop_
_geom_bond_atom_site_label_1
_geom_bond_atom_site_label_2
_geom_bond_distance
_geom_bond_site_symmetry_2
Na0 O16 2.319049 1_555
Na0 O6 2.328717 1_554
Na0 O7 2.328717 1_555
Na0 O14 2.765579 1_554
Na0 O15 2.765579 1_555
Na0 O18 2.829056 1_545
Na0 O18 2.829056 1_555
Na0 O2 2.882457 1_455
Na0 O3 2.882457 1_444
Na1 O17 2.319049 1_555
Na1 O5 2.328717 1_555
Na1 O4 2.328717 1_555
Na1 O13 2.765579 1_555
Na1 O12 2.765579 1_555
Na1 O19 2.829056 1_565
Na1 O19 2.829056 1_555
Na1 O0 2.882457 1_665
Na1 O1 2.882457 1_655
Na2 O18 2.319049 1_555
Na2 O3 2.328717 1_554
Na2 O2 2.328717 1_555
Na2 O11 2.765579 1_554
Na2 O10 2.765579 1_555
Na2 O16 2.829056 1_565
Na2 O16 2.829056 1_555
Na2 O7 2.882457 1_665
Na2 O6 2.882457 1_654
Na3 O19 2.319049 1_555
Na3 O1 2.328717 1_555
Na3 O0 2.328717 1_555
Na3 O8 2.765579 1_555
Na3 O9 2.765579 1_555
Na3 O17 2.829056 1_555
Na3 O17 2.829056 1_545
Na3 O5 2.882457 1_455
Na3 O4 2.882457 1_445
Na4 O20 2.418550 1_545
Na4 O22 2.436449 1_455
Na4 O8 2.452245 1_555
Na4 O15 2.452245 1_555
Na4 O13 2.645042 1_545
Na4 O10 2.645042 1_545
Na4 O7 2.667382 1_555
Na4 O0 2.667382 1_555
Na5 O21 2.418550 1_555
Na5 O23 2.436449 1_455
Na5 O9 2.452245 1_555
Na5 O14 2.452245 1_555
Na5 O12 2.645042 1_555
Na5 O11 2.645042 1_555
Na5 O1 2.667382 1_555
Na5 O6 2.667382 1_555
Na6 O22 2.418550 1_555
Na6 O20 2.436449 1_655
Na6 O10 2.452245 1_555
Na6 O13 2.452245 1_555
Na6 O15 2.645042 1_555
Na6 O8 2.645042 1_555
Na6 O2 2.667382 1_555
Na6 O5 2.667382 1_555
Na7 O23 2.418550 1_565
Na7 O21 2.436449 1_655
Na7 O12 2.452245 1_555
Na7 O11 2.452245 1_555
Na7 O9 2.645042 1_565
Na7 O14 2.645042 1_565
Na7 O4 2.667382 1_555
Na7 O3 2.667382 1_555
Nb0 O2 1.901139 1_455
Nb0 O15 1.901440 1_555
Nb0 O20 1.998107 1_555
Nb0 O18 2.001527 1_555
Nb0 O7 2.138869 1_565
Nb0 O10 2.153205 1_555
Nb1 O3 1.901139 1_455
Nb1 O14 1.901440 1_565
Nb1 O21 1.998107 1_555
Nb1 O18 2.001527 1_556
Nb1 O6 2.138869 1_555
Nb1 O11 2.153205 1_555
Nb2 O0 1.901139 1_655
Nb2 O13 1.901440 1_545
Nb2 O22 1.998107 1_555
Nb2 O19 2.001527 1_555
Nb2 O5 2.138869 1_555
Nb2 O8 2.153205 1_555
Nb3 O1 1.901139 1_655
Nb3 O12 1.901440 1_555
Nb3 O23 1.998107 1_555
Nb3 O19 2.001527 1_555
Nb3 O4 2.138869 1_545
Nb3 O9 2.153205 1_555
Nb4 O6 1.901139 1_655
Nb4 O11 1.901440 1_555
Nb4 O23 1.998107 1_555
Nb4 O16 2.001527 1_556
Nb4 O3 2.138869 1_545
Nb4 O14 2.153205 1_555
Nb5 O7 1.901139 1_655
Nb5 O10 1.901440 1_545
Nb5 O22 1.998107 1_555
Nb5 O16 2.001527 1_555
Nb5 O2 2.138869 1_555
Nb5 O15 2.153205 1_555
Nb6 O4 1.901139 1_455
Nb6 O9 1.901440 1_565
Nb6 O21 1.998107 1_555
Nb6 O17 2.001527 1_555
Nb6 O1 2.138869 1_555
Nb6 O12 2.153205 1_555
Nb7 O5 1.901139 1_455
Nb7 O8 1.901440 1_555
Nb7 O20 1.998107 1_555
Nb7 O17 2.001527 1_555
Nb7 O0 2.138869 1_565
Nb7 O13 2.153205 1_555
