# generated using pymatgen
data_Hf2P2IrRh
_symmetry_space_group_name_H-M   'P 1'
_cell_length_a   3.78307065
_cell_length_b   6.45008076
_cell_length_c   7.36071446
_cell_angle_alpha   90.00000000
_cell_angle_beta   90.00000000
_cell_angle_gamma   90.00000000
_symmetry_Int_Tables_number   1
_chemical_formula_structural   Hf2P2IrRh
_chemical_formula_sum   'Hf4 P4 Ir2 Rh2'
_cell_volume   179.60961201
_cell_formula_units_Z   2
loop_
 _symmetry_equiv_pos_site_id
 _symmetry_equiv_pos_as_xyz
  1  'x, y, z'
loop_
 _atom_site_type_symbol
 _atom_site_label
 _atom_site_symmetry_multiplicity
 _atom_site_fract_x
 _atom_site_fract_y
 _atom_site_fract_z
 _atom_site_occupancy
  Hf  Hf0  1  0.25000000  0.02729846  0.82097876  1
  Hf  Hf1  1  0.25000000  0.52729846  0.67902124  1
  Hf  Hf2  1  0.75000000  0.97255294  0.17820040  1
  Hf  Hf3  1  0.75000000  0.47255294  0.32179960  1
  P  P0  1  0.25000000  0.75818790  0.37714279  1
  P  P1  1  0.25000000  0.25818790  0.12285721  1
  P  P2  1  0.75000000  0.24322195  0.62418652  1
  P  P3  1  0.75000000  0.74322195  0.87581348  1
  Ir  Ir0  1  0.25000000  0.14516844  0.43550367  1
  Ir  Ir1  1  0.25000000  0.64516844  0.06449633  1
  Rh  Rh0  1  0.75000000  0.85357031  0.56402787  1
  Rh  Rh1  1  0.75000000  0.35357031  0.93597213  1
loop_
_geom_bond_atom_site_label_1
_geom_bond_atom_site_label_2
_geom_bond_distance
_geom_bond_site_symmetry_2
Hf0 P3 2.664245 1_545
Hf0 P3 2.664245 1_445
Hf0 P1 2.674948 1_556
Hf0 P2 2.759679 1_555
Hf0 P2 2.759679 1_455
Hf0 Rh0 2.900127 1_445
Hf0 Rh0 2.900127 1_545
Hf0 Ir0 2.937464 1_555
Hf0 Rh1 2.953505 1_555
Hf0 Rh1 2.953505 1_455
Hf0 Ir1 3.047624 1_546
Hf1 P2 2.664245 1_455
Hf1 P2 2.664245 1_555
Hf1 P0 2.674948 1_555
Hf1 P3 2.759679 1_455
Hf1 P3 2.759679 1_555
Hf1 Rh1 2.900127 1_555
Hf1 Rh1 2.900127 1_455
Hf1 Ir1 2.937464 1_556
Hf1 Rh0 2.953505 1_555
Hf1 Rh0 2.953505 1_455
Hf1 Ir0 3.047624 1_555
Hf2 P1 2.671736 1_565
Hf2 P1 2.671736 1_665
Hf2 P3 2.672481 1_554
Hf2 P0 2.762975 1_555
Hf2 P0 2.762975 1_655
Hf2 Ir0 2.899056 1_565
Hf2 Ir0 2.899056 1_665
Hf2 Rh0 2.941833 1_555
Hf2 Ir1 2.955922 1_555
Hf2 Ir1 2.955922 1_655
Hf2 Rh1 3.036240 1_564
Hf3 P0 2.671736 1_655
Hf3 P0 2.671736 1_555
Hf3 P2 2.672481 1_555
Hf3 P1 2.762975 1_555
Hf3 P1 2.762975 1_655
Hf3 Ir1 2.899056 1_555
Hf3 Ir1 2.899056 1_655
Hf3 Rh1 2.941833 1_554
Hf3 Ir0 2.955922 1_655
Hf3 Ir0 2.955922 1_555
Hf3 Rh0 3.036240 1_555
P0 Rh0 2.418409 1_455
P0 Rh0 2.418409 1_555
P1 Rh1 2.418409 1_554
P1 Rh1 2.418409 1_454
P2 Rh1 2.402803 1_555
P2 Rh0 2.551995 1_545
P3 Rh0 2.402803 1_555
P3 Rh1 2.551995 1_555
Ir0 P1 2.414002 1_555
Ir0 P2 2.430387 1_455
Ir0 P2 2.430387 1_555
Ir0 P0 2.532752 1_545
Ir0 Rh0 2.830266 1_545
Ir0 Rh0 2.830266 1_445
Ir1 P0 2.414002 1_555
Ir1 P3 2.430387 1_454
Ir1 P3 2.430387 1_554
Ir1 P1 2.532752 1_555
Ir1 Rh1 2.830266 1_454
Ir1 Rh1 2.830266 1_554
