# generated using pymatgen
data_NaCr3Sb12Ru
_symmetry_space_group_name_H-M   'P 1'
_cell_length_a   8.21979858
_cell_length_b   8.21979935
_cell_length_c   8.21980009
_cell_angle_alpha   109.32713920
_cell_angle_beta   109.32713704
_cell_angle_gamma   109.32713509
_symmetry_Int_Tables_number   1
_chemical_formula_structural   NaCr3Sb12Ru
_chemical_formula_sum   'Na1 Cr3 Sb12 Ru1'
_cell_volume   429.79076332
_cell_formula_units_Z   1
loop_
 _symmetry_equiv_pos_site_id
 _symmetry_equiv_pos_as_xyz
  1  'x, y, z'
loop_
 _atom_site_type_symbol
 _atom_site_label
 _atom_site_symmetry_multiplicity
 _atom_site_fract_x
 _atom_site_fract_y
 _atom_site_fract_z
 _atom_site_occupancy
  Na  Na0  1  0.00000000  0.00000000  0.00000000  1
  Cr  Cr0  1  0.50000000  0.00000000  0.00000000  1
  Cr  Cr1  1  0.00000000  0.50000000  0.00000000  1
  Cr  Cr2  1  0.00000000  0.00000000  0.50000000  1
  Sb  Sb0  1  0.16074315  0.49463938  0.34777395  1
  Sb  Sb1  1  0.50536062  0.65222605  0.83925685  1
  Sb  Sb2  1  0.34641231  0.84849153  0.19645369  1
  Sb  Sb3  1  0.80354631  0.65358769  0.15150847  1
  Sb  Sb4  1  0.65222605  0.83925685  0.50536062  1
  Sb  Sb5  1  0.19645369  0.34641231  0.84849153  1
  Sb  Sb6  1  0.65358769  0.15150847  0.80354631  1
  Sb  Sb7  1  0.34777395  0.16074315  0.49463938  1
  Sb  Sb8  1  0.49463938  0.34777395  0.16074315  1
  Sb  Sb9  1  0.83925685  0.50536062  0.65222605  1
  Sb  Sb10  1  0.84849153  0.19645369  0.34641231  1
  Sb  Sb11  1  0.15150847  0.80354631  0.65358769  1
  Ru  Ru0  1  0.50000000  0.50000000  0.50000000  1
loop_
_geom_bond_atom_site_label_1
_geom_bond_atom_site_label_2
_geom_bond_distance
_geom_bond_site_symmetry_2
Na0 Sb8 3.563594 1_555
Na0 Sb1 3.563594 1_444
Na0 Sb0 3.563594 1_555
Na0 Sb9 3.563594 1_444
Na0 Sb7 3.563594 1_555
Na0 Sb4 3.563594 1_444
Na0 Sb2 3.591838 1_545
Na0 Sb6 3.591838 1_454
Na0 Sb11 3.591838 1_544
Na0 Sb10 3.591838 1_455
Na0 Sb5 3.591838 1_554
Na0 Sb3 3.591838 1_445
Cr0 Sb6 2.718866 1_554
Cr0 Sb2 2.718866 1_545
Cr0 Sb10 2.723348 1_555
Cr0 Sb11 2.723348 1_544
Cr0 Sb8 2.746141 1_555
Cr0 Sb1 2.746141 1_544
Cr1 Sb3 2.718866 1_455
Cr1 Sb5 2.718866 1_554
Cr1 Sb2 2.723348 1_555
Cr1 Sb6 2.723348 1_454
Cr1 Sb9 2.746142 1_454
Cr1 Sb0 2.746142 1_555
Cr2 Sb11 2.718866 1_545
Cr2 Sb10 2.718866 1_455
Cr2 Sb5 2.723349 1_555
Cr2 Sb3 2.723349 1_445
Cr2 Sb4 2.746141 1_445
Cr2 Sb7 2.746141 1_555
Sb0 Sb10 2.897249 1_455
Sb0 Sb11 2.966629 1_555
Sb1 Sb3 2.897249 1_556
Sb1 Sb5 2.966629 1_555
Sb2 Sb7 2.897249 1_565
Sb2 Sb4 2.966629 1_555
Sb3 Sb8 2.966629 1_555
Sb4 Sb6 2.897249 1_565
Sb5 Sb8 2.897249 1_556
Sb6 Sb7 2.966629 1_555
Sb10 Sb9 2.966629 1_555
Sb11 Sb9 2.897249 1_455
Ru0 Sb9 2.629933 1_555
Ru0 Sb0 2.629933 1_555
Ru0 Sb4 2.629933 1_555
Ru0 Sb7 2.629933 1_555
Ru0 Sb1 2.629933 1_555
Ru0 Sb8 2.629933 1_555
