# generated using pymatgen
data_Cs2AuBrCl6
_symmetry_space_group_name_H-M   'P 1'
_cell_length_a   7.75882038
_cell_length_b   7.75882051
_cell_length_c   7.75882048
_cell_angle_alpha   119.86451494
_cell_angle_beta   119.86451725
_cell_angle_gamma   90.23482668
_symmetry_Int_Tables_number   1
_chemical_formula_structural   Cs2AuBrCl6
_chemical_formula_sum   'Cs2 Au1 Br1 Cl6'
_cell_volume   330.94559903
_cell_formula_units_Z   1
loop_
 _symmetry_equiv_pos_site_id
 _symmetry_equiv_pos_as_xyz
  1  'x, y, z'
loop_
 _atom_site_type_symbol
 _atom_site_label
 _atom_site_symmetry_multiplicity
 _atom_site_fract_x
 _atom_site_fract_y
 _atom_site_fract_z
 _atom_site_occupancy
  Cs  Cs0  1  0.75000000  0.25000000  0.50000000  1
  Cs  Cs1  1  0.25000000  0.75000000  0.50000000  1
  Au  Au0  1  0.00000000  0.00000000  0.00000000  1
  Br  Br0  1  0.50000000  0.50000000  0.00000000  1
  Cl  Cl0  1  0.28094027  0.28094027  0.00000000  1
  Cl  Cl1  1  0.78966643  0.21033357  0.00000000  1
  Cl  Cl2  1  0.21033357  0.78966643  1.00000000  1
  Cl  Cl3  1  0.78966643  0.78966643  0.57933186  1
  Cl  Cl4  1  0.71905973  0.71905973  1.00000000  1
  Cl  Cl5  1  0.21033357  0.21033357  0.42066814  1
loop_
_geom_bond_atom_site_label_1
_geom_bond_atom_site_label_2
_geom_bond_distance
_geom_bond_site_symmetry_2
Au0 Cl1 2.312637 1_455
Au0 Cl2 2.312637 1_544
Au0 Cl5 2.312642 1_555
Au0 Cl3 2.312642 1_444
Au0 Cl0 3.076330 1_555
Au0 Cl4 3.076330 1_444
Br0 Cl4 2.398730 1_554
Br0 Cl0 2.398730 1_555
Cl0 Cs0 3.902088 1_454
Cl0 Cs0 3.902088 1_555
Cl0 Cs1 3.902088 1_544
Cl0 Cs1 3.902088 1_555
Cl1 Cs1 3.903849 1_544
Cl1 Cs1 3.903849 1_655
Cl1 Cs0 3.903849 1_554
Cl1 Cs0 3.903849 1_555
Cl2 Cs0 3.903849 1_566
Cl2 Cs0 3.903849 1_455
Cl2 Cs1 3.903849 1_556
Cl2 Cs1 3.903849 1_555
Cl3 Cs1 3.903845 1_655
Cl3 Cs0 3.903845 1_565
Cl3 Cs1 3.903852 1_555
Cl3 Cs0 3.903852 1_555
Cl4 Cs1 3.902088 1_656
Cl4 Cs1 3.902088 1_555
Cl4 Cs0 3.902088 1_566
Cl4 Cs0 3.902088 1_555
Cl5 Cs0 3.903845 1_455
Cl5 Cs1 3.903845 1_545
Cl5 Cs0 3.903852 1_555
Cl5 Cs1 3.903852 1_555
