# generated using pymatgen
data_K2PtF6
_symmetry_space_group_name_H-M   'P 1'
_cell_length_a   5.75991883
_cell_length_b   5.75991845
_cell_length_c   4.56528553
_cell_angle_alpha   90.00000000
_cell_angle_beta   90.00000000
_cell_angle_gamma   120.00000210
_symmetry_Int_Tables_number   1
_chemical_formula_structural   K2PtF6
_chemical_formula_sum   'K2 Pt1 F6'
_cell_volume   131.16901761
_cell_formula_units_Z   1
loop_
 _symmetry_equiv_pos_site_id
 _symmetry_equiv_pos_as_xyz
  1  'x, y, z'
loop_
 _atom_site_type_symbol
 _atom_site_label
 _atom_site_symmetry_multiplicity
 _atom_site_fract_x
 _atom_site_fract_y
 _atom_site_fract_z
 _atom_site_occupancy
  K  K0  1  0.66666700  0.33333300  0.28468714  1
  K  K1  1  0.33333300  0.66666700  0.71531286  1
  Pt  Pt0  1  0.00000000  0.00000000  -0.00000000  1
  F  F0  1  0.83435087  0.16564913  0.77145977  1
  F  F1  1  0.83435087  0.66870175  0.77145977  1
  F  F2  1  0.33129825  0.16564913  0.77145977  1
  F  F3  1  0.16564913  0.83435087  0.22854023  1
  F  F4  1  0.16564913  0.33129825  0.22854023  1
  F  F5  1  0.66870175  0.83435087  0.22854023  1
loop_
_geom_bond_atom_site_label_1
_geom_bond_atom_site_label_2
_geom_bond_distance
_geom_bond_site_symmetry_2
F0 Pt0 1.954392 1_656
F0 K0 2.781545 1_555
F0 K0 2.878951 1_556
F0 K1 2.891362 1_655
F0 K1 2.891362 1_545
F1 Pt0 1.954392 1_666
F1 K0 2.781548 1_555
F1 K0 2.878954 1_556
F1 K1 2.891359 1_655
F1 K1 2.891365 1_555
F2 Pt0 1.954392 1_556
F2 K0 2.781548 1_555
F2 K0 2.878954 1_556
F2 K1 2.891359 1_545
F2 K1 2.891364 1_555
F3 Pt0 1.954392 1_565
F3 K1 2.781545 1_555
F3 K1 2.878951 1_554
F3 K0 2.891362 1_455
F3 K0 2.891362 1_565
F4 Pt0 1.954392 1_555
F4 K1 2.781548 1_555
F4 K1 2.878954 1_554
F4 K0 2.891359 1_455
F4 K0 2.891365 1_555
F5 Pt0 1.954392 1_665
F5 K1 2.781548 1_555
F5 K1 2.878954 1_554
F5 K0 2.891359 1_565
F5 K0 2.891364 1_555
