# generated using pymatgen
data_Ti2NbAsC
_symmetry_space_group_name_H-M   'P 1'
_cell_length_a   5.51815586
_cell_length_b   5.51815521
_cell_length_c   8.12202249
_cell_angle_alpha   90.00000000
_cell_angle_beta   90.00000000
_cell_angle_gamma   145.19041326
_symmetry_Int_Tables_number   1
_chemical_formula_structural   Ti2NbAsC
_chemical_formula_sum   'Ti4 Nb2 As2 C2'
_cell_volume   141.18052534
_cell_formula_units_Z   2
loop_
 _symmetry_equiv_pos_site_id
 _symmetry_equiv_pos_as_xyz
  1  'x, y, z'
loop_
 _atom_site_type_symbol
 _atom_site_label
 _atom_site_symmetry_multiplicity
 _atom_site_fract_x
 _atom_site_fract_y
 _atom_site_fract_z
 _atom_site_occupancy
  Ti  Ti0  1  0.44429845  0.55570155  0.25000000  1
  Ti  Ti1  1  0.86942874  0.13057126  0.55519594  1
  Ti  Ti2  1  0.55586589  0.44413411  0.75000000  1
  Ti  Ti3  1  0.86942874  0.13057126  0.94480406  1
  Nb  Nb0  1  0.13057818  0.86942182  0.05538040  1
  Nb  Nb1  1  0.13057818  0.86942182  0.44461960  1
  As  As0  1  0.76110224  0.23889776  0.25000000  1
  As  As1  1  0.24524083  0.75475917  0.75000000  1
  C  C0  1  0.49673787  0.50326213  0.99913064  1
  C  C1  1  0.49673787  0.50326213  0.50086936  1
loop_
_geom_bond_atom_site_label_1
_geom_bond_atom_site_label_2
_geom_bond_distance
_geom_bond_site_symmetry_2
As0 Ti0 2.538983 1_545
As0 Ti0 2.538984 1_655
As0 Nb1 2.666923 1_655
As0 Nb0 2.666923 1_655
As0 Nb1 2.666923 1_545
As0 Nb0 2.666923 1_545
As0 Ti1 2.728716 1_555
As0 Ti3 2.728716 1_554
As1 Ti2 2.588771 1_565
As1 Ti2 2.588771 1_455
As1 Ti3 2.634052 1_455
As1 Ti1 2.634052 1_455
As1 Ti3 2.634053 1_565
As1 Ti1 2.634053 1_565
As1 Nb0 2.758625 1_556
As1 Nb1 2.758625 1_555
C0 Ti0 2.111077 1_556
C0 Ti2 2.117087 1_555
C0 Ti3 2.171777 1_565
C0 Ti3 2.171778 1_455
C0 Nb0 2.218063 1_546
C0 Nb0 2.218063 1_656
C1 Ti0 2.111077 1_555
C1 Ti2 2.117087 1_555
C1 Ti1 2.171777 1_565
C1 Ti1 2.171778 1_455
C1 Nb1 2.218063 1_545
C1 Nb1 2.218063 1_655
