# generated using pymatgen
data_CuRu2F12
_symmetry_space_group_name_H-M   'P 1'
_cell_length_a   4.95741982
_cell_length_b   5.29371109
_cell_length_c   8.59214429
_cell_angle_alpha   104.31885683
_cell_angle_beta   88.73534311
_cell_angle_gamma   116.95549141
_symmetry_Int_Tables_number   1
_chemical_formula_structural   CuRu2F12
_chemical_formula_sum   'Cu1 Ru2 F12'
_cell_volume   193.68302426
_cell_formula_units_Z   1
loop_
 _symmetry_equiv_pos_site_id
 _symmetry_equiv_pos_as_xyz
  1  'x, y, z'
loop_
 _atom_site_type_symbol
 _atom_site_label
 _atom_site_symmetry_multiplicity
 _atom_site_fract_x
 _atom_site_fract_y
 _atom_site_fract_z
 _atom_site_occupancy
  Cu  Cu0  1  0.50000000  0.50000000  0.50000000  1
  Ru  Ru0  1  0.26706683  0.00591518  0.75818341  1
  Ru  Ru1  1  0.73293317  0.99408482  0.24181659  1
  F  F0  1  0.75982193  0.75262232  0.37525568  1
  F  F1  1  0.24017807  0.24737768  0.62474432  1
  F  F2  1  0.31840089  0.76417611  0.21419556  1
  F  F3  1  0.28856571  0.76285595  0.86975438  1
  F  F4  1  0.71143429  0.23714405  0.13024562  1
  F  F5  1  0.84032931  0.77067768  0.70707103  1
  F  F6  1  0.15967069  0.22932232  0.29292897  1
  F  F7  1  0.30935330  0.75192127  0.56010692  1
  F  F8  1  0.69064670  0.24807873  0.43989308  1
  F  F9  1  0.21257023  0.24006459  0.93703251  1
  F  F10  1  0.78742977  0.75993541  0.06296749  1
  F  F11  1  0.68159911  0.23582389  0.78580444  1
loop_
_geom_bond_atom_site_label_1
_geom_bond_atom_site_label_2
_geom_bond_distance
_geom_bond_site_symmetry_2
Cu0 F1 1.919032 1_555
Cu0 F0 1.919032 1_555
Cu0 F7 1.928447 1_555
Cu0 F8 1.928447 1_555
Cu0 F5 2.178290 1_555
Cu0 F6 2.178290 1_555
F0 Ru1 1.962727 1_555
F1 Ru0 1.962727 1_555
F2 Ru1 1.836254 1_555
F3 Ru0 1.823416 1_565
F4 Ru1 1.823416 1_545
F5 Ru0 1.897671 1_665
F6 Ru1 1.897671 1_445
F7 Ru0 1.963717 1_565
F8 Ru1 1.963717 1_545
F9 Ru0 1.820422 1_555
F10 Ru1 1.820422 1_555
F11 Ru0 1.836254 1_555
