# generated using pymatgen
data_Al5CuS8
_symmetry_space_group_name_H-M   'P 1'
_cell_length_a   7.03220918
_cell_length_b   7.03220914
_cell_length_c   7.03220943
_cell_angle_alpha   60.00000087
_cell_angle_beta   59.99999647
_cell_angle_gamma   59.99999511
_symmetry_Int_Tables_number   1
_chemical_formula_structural   Al5CuS8
_chemical_formula_sum   'Al5 Cu1 S8'
_cell_volume   245.90102136
_cell_formula_units_Z   1
loop_
 _symmetry_equiv_pos_site_id
 _symmetry_equiv_pos_as_xyz
  1  'x, y, z'
loop_
 _atom_site_type_symbol
 _atom_site_label
 _atom_site_symmetry_multiplicity
 _atom_site_fract_x
 _atom_site_fract_y
 _atom_site_fract_z
 _atom_site_occupancy
  Al  Al0  1  0.02000333  0.49333256  0.49333256  1
  Al  Al1  1  0.49333256  0.49333256  0.02000333  1
  Al  Al2  1  0.49333256  0.02000333  0.49333256  1
  Al  Al3  1  0.49333256  0.49333256  0.49333256  1
  Al  Al4  1  0.87500000  0.87500000  0.87500000  1
  Cu  Cu0  1  0.12500000  0.12500000  0.12500000  1
  S  S0  1  0.25669420  0.25669420  0.25669420  1
  S  S1  1  0.25669420  0.72991841  0.25669420  1
  S  S2  1  0.25669420  0.25669420  0.72991841  1
  S  S3  1  0.72991841  0.25669420  0.25669420  1
  S  S4  1  0.27476138  0.74174621  0.74174621  1
  S  S5  1  0.74174621  0.74174621  0.27476138  1
  S  S6  1  0.74174621  0.27476138  0.74174621  1
  S  S7  1  0.74174621  0.74174621  0.74174621  1
loop_
_geom_bond_atom_site_label_1
_geom_bond_atom_site_label_2
_geom_bond_distance
_geom_bond_site_symmetry_2
Al0 S0 2.353379 1_555
Al0 S2 2.353379 1_555
Al0 S1 2.353379 1_555
Al0 S7 2.479383 1_455
Al0 S5 2.479388 1_455
Al0 S6 2.479388 1_455
Al1 S1 2.353379 1_555
Al1 S0 2.353379 1_555
Al1 S3 2.353379 1_555
Al1 S7 2.479383 1_554
Al1 S6 2.479388 1_554
Al1 S4 2.479388 1_554
Al2 S2 2.353379 1_555
Al2 S0 2.353379 1_555
Al2 S3 2.353379 1_555
Al2 S7 2.479383 1_545
Al2 S5 2.479388 1_545
Al2 S4 2.479388 1_545
Al3 S3 2.353379 1_555
Al3 S2 2.353379 1_555
Al3 S1 2.353379 1_555
Al3 S4 2.479382 1_555
Al3 S5 2.479382 1_555
Al3 S6 2.479382 1_555
Al4 S4 2.295340 1_655
Al4 S6 2.295340 1_565
Al4 S7 2.295340 1_555
Al4 S5 2.295340 1_556
Cu0 S3 2.268469 1_455
Cu0 S1 2.268469 1_545
Cu0 S2 2.268470 1_554
Cu0 S0 2.268475 1_555
