# generated using pymatgen
data_CeSbTe
_symmetry_space_group_name_H-M   'P 1'
_cell_length_a   4.38536506
_cell_length_b   4.38505362
_cell_length_c   9.45259248
_cell_angle_alpha   90.00000000
_cell_angle_beta   90.00000000
_cell_angle_gamma   90.00000000
_symmetry_Int_Tables_number   1
_chemical_formula_structural   CeSbTe
_chemical_formula_sum   'Ce2 Sb2 Te2'
_cell_volume   181.77392935
_cell_formula_units_Z   2
loop_
 _symmetry_equiv_pos_site_id
 _symmetry_equiv_pos_as_xyz
  1  'x, y, z'
loop_
 _atom_site_type_symbol
 _atom_site_label
 _atom_site_symmetry_multiplicity
 _atom_site_fract_x
 _atom_site_fract_y
 _atom_site_fract_z
 _atom_site_occupancy
  Ce  Ce0  1  0.25000000  0.25000000  0.72519979  1
  Ce  Ce1  1  0.75000000  0.75000000  0.27480021  1
  Sb  Sb0  1  0.75000000  0.25000000  0.99984352  1
  Sb  Sb1  1  0.25000000  0.75000000  0.00015648  1
  Te  Te0  1  0.25000000  0.25000000  0.37107640  1
  Te  Te1  1  0.75000000  0.75000000  0.62892360  1
loop_
_geom_bond_atom_site_label_1
_geom_bond_atom_site_label_2
_geom_bond_distance
_geom_bond_site_symmetry_2
Ce0 Te1 3.231600 1_455
Ce0 Te1 3.231600 1_555
Ce0 Te1 3.231600 1_445
Ce0 Te1 3.231600 1_545
Ce0 Te0 3.347384 1_555
Ce0 Sb0 3.398171 1_455
Ce0 Sb0 3.398171 1_555
Ce0 Sb1 3.400331 1_546
Ce0 Sb1 3.400331 1_556
Ce1 Te0 3.231600 1_565
Ce1 Te0 3.231600 1_555
Ce1 Te0 3.231600 1_655
Ce1 Te0 3.231600 1_665
Ce1 Te1 3.347384 1_555
Ce1 Sb1 3.398171 1_655
Ce1 Sb1 3.398171 1_555
Ce1 Sb0 3.400331 1_554
Ce1 Sb0 3.400331 1_564
Sb0 Sb1 3.100813 1_646
Sb0 Sb1 3.100813 1_556
Sb0 Sb1 3.100813 1_656
Sb0 Sb1 3.100813 1_546
