# generated using pymatgen
data_Y4NbIO12
_symmetry_space_group_name_H-M   'P 1'
_cell_length_a   5.39876758
_cell_length_b   7.67021118
_cell_length_c   11.46969215
_cell_angle_alpha   75.58510960
_cell_angle_beta   90.00000000
_cell_angle_gamma   90.00000000
_symmetry_Int_Tables_number   1
_chemical_formula_structural   Y4NbIO12
_chemical_formula_sum   'Y8 Nb2 I2 O24'
_cell_volume   460.00402694
_cell_formula_units_Z   2
loop_
 _symmetry_equiv_pos_site_id
 _symmetry_equiv_pos_as_xyz
  1  'x, y, z'
loop_
 _atom_site_type_symbol
 _atom_site_label
 _atom_site_symmetry_multiplicity
 _atom_site_fract_x
 _atom_site_fract_y
 _atom_site_fract_z
 _atom_site_occupancy
  Y  Y0  1  0.19395365  0.79208399  0.07754360  1
  Y  Y1  1  0.25841874  0.98359388  0.75719808  1
  Y  Y2  1  0.74158126  0.98359388  0.25719808  1
  Y  Y3  1  0.30915409  0.51914271  0.74698734  1
  Y  Y4  1  0.19164150  0.20320211  0.42269786  1
  Y  Y5  1  0.69084591  0.51914271  0.24698734  1
  Y  Y6  1  0.80835850  0.20320211  0.92269786  1
  Y  Y7  1  0.80604635  0.79208399  0.57754360  1
  Nb  Nb0  1  0.74616985  0.71566565  0.89063884  1
  Nb  Nb1  1  0.25383015  0.71566565  0.39063884  1
  I  I0  1  0.74519734  0.27425640  0.61673713  1
  I  I1  1  0.25480266  0.27425640  0.11673713  1
  O  O0  1  0.86152434  0.36165868  0.45939343  1
  O  O1  1  0.47230439  0.85637502  0.92913864  1
  O  O2  1  0.85853246  0.63114971  0.05299855  1
  O  O3  1  0.01312222  0.30341440  0.72120073  1
  O  O4  1  0.98687778  0.30341440  0.22120073  1
  O  O5  1  0.13847566  0.36165868  0.95939343  1
  O  O6  1  0.63275931  0.48306406  0.88000198  1
  O  O7  1  0.52763729  0.16312338  0.06527028  1
  O  O8  1  0.14146754  0.63114971  0.55299855  1
  O  O9  1  0.01783925  0.72049343  0.76750020  1
  O  O10  1  0.43399078  0.19608185  0.26494907  1
  O  O11  1  0.02395060  0.94715659  0.40404515  1
  O  O12  1  0.47236271  0.16312338  0.56527028  1
  O  O13  1  0.98216075  0.72049343  0.26750020  1
  O  O14  1  0.93376850  0.06473826  0.61371954  1
  O  O15  1  0.56600922  0.19608185  0.76494907  1
  O  O16  1  0.52148879  0.78467064  0.71939845  1
  O  O17  1  0.06623150  0.06473826  0.11371954  1
  O  O18  1  0.62197029  0.50012925  0.61058214  1
  O  O19  1  0.37802971  0.50012925  0.11058214  1
  O  O20  1  0.47851121  0.78467064  0.21939845  1
  O  O21  1  0.36724069  0.48306406  0.38000198  1
  O  O22  1  0.52769561  0.85637502  0.42913864  1
  O  O23  1  0.97604940  0.94715659  0.90404515  1
loop_
_geom_bond_atom_site_label_1
_geom_bond_atom_site_label_2
_geom_bond_distance
_geom_bond_site_symmetry_2
Nb0 O2 1.911813 1_556
Nb0 O6 1.918636 1_555
Nb0 O1 1.945038 1_555
Nb0 O9 2.030086 1_655
Nb0 O23 2.202845 1_555
Nb0 O16 2.256441 1_555
Nb1 O8 1.911813 1_555
Nb1 O21 1.918636 1_555
Nb1 O22 1.945038 1_555
Nb1 O13 2.030086 1_455
Nb1 O11 2.202845 1_555
Nb1 O20 2.256441 1_555
I0 O18 1.840709 1_555
I0 O12 1.869558 1_555
I0 O0 1.870390 1_555
I0 O14 1.909954 1_555
I0 O15 1.917735 1_555
I0 O3 1.926472 1_655
I1 O19 1.840709 1_555
I1 O7 1.869558 1_555
I1 O5 1.870390 1_554
I1 O17 1.909954 1_555
I1 O10 1.917735 1_555
I1 O4 1.926472 1_455
O0 Y4 2.255072 1_655
O0 Y5 2.603505 1_555
O1 Y0 2.231786 1_556
O1 Y1 2.283996 1_555
O2 Y0 2.248386 1_655
O2 Y5 2.357228 1_555
O3 Y3 2.371366 1_555
O3 Y6 2.503930 1_455
O3 Y1 2.727200 1_545
O4 Y5 2.371366 1_555
O4 Y4 2.503930 1_655
O4 Y2 2.727200 1_545
O5 Y6 2.255072 1_455
O5 Y3 2.603505 1_555
O6 Y6 2.285403 1_555
O6 Y3 2.290458 1_555
O7 Y6 2.194353 1_554
O7 Y2 2.562620 1_545
O8 Y7 2.248386 1_455
O8 Y3 2.357228 1_555
O9 Y3 2.257202 1_555
O9 Y1 2.377956 1_555
O9 Y7 2.400043 1_455
O10 Y4 2.244490 1_555
O10 Y2 2.343930 1_545
O10 Y5 2.802040 1_555
O11 Y4 2.220714 1_565
O11 Y2 2.237077 1_455
O11 Y7 2.362255 1_455
O12 Y4 2.194353 1_555
O12 Y1 2.562620 1_545
O13 Y5 2.257202 1_555
O13 Y2 2.377956 1_555
O13 Y0 2.400043 1_655
O14 Y7 2.335224 1_545
O14 Y1 2.378570 1_645
O14 Y4 2.589968 1_655
O15 Y6 2.244490 1_555
O15 Y1 2.343930 1_545
O15 Y3 2.802040 1_555
O16 Y1 2.205097 1_555
O16 Y7 2.228115 1_555
O16 Y3 2.289396 1_555
O17 Y0 2.335224 1_545
O17 Y2 2.378570 1_445
O17 Y6 2.589968 1_454
O18 Y3 2.331250 1_555
O18 Y7 2.392366 1_555
O19 Y5 2.331250 1_555
O19 Y0 2.392366 1_555
O20 Y2 2.205097 1_555
O20 Y0 2.228115 1_555
O20 Y5 2.289396 1_555
O21 Y4 2.285403 1_555
O21 Y5 2.290458 1_555
O22 Y7 2.231786 1_555
O22 Y2 2.283996 1_555
O23 Y6 2.220714 1_565
O23 Y1 2.237077 1_655
O23 Y0 2.362255 1_656
