# generated using pymatgen
data_RbNb(IO3)6
_symmetry_space_group_name_H-M   'P 1'
_cell_length_a   7.62546061
_cell_length_b   7.62546032
_cell_length_c   7.62546069
_cell_angle_alpha   97.51218077
_cell_angle_beta   97.51217797
_cell_angle_gamma   97.51217666
_symmetry_Int_Tables_number   1
_chemical_formula_structural   RbNb(IO3)6
_chemical_formula_sum   'Rb1 Nb1 I6 O18'
_cell_volume   430.86651859
_cell_formula_units_Z   1
loop_
 _symmetry_equiv_pos_site_id
 _symmetry_equiv_pos_as_xyz
  1  'x, y, z'
loop_
 _atom_site_type_symbol
 _atom_site_label
 _atom_site_symmetry_multiplicity
 _atom_site_fract_x
 _atom_site_fract_y
 _atom_site_fract_z
 _atom_site_occupancy
  Rb  Rb0  1  0.65252992  0.65252992  0.65252992  1
  Nb  Nb0  1  0.01022220  0.01022220  0.01022220  1
  I  I0  1  0.61781651  0.84002191  0.20260583  1
  I  I1  1  0.20260583  0.61781651  0.84002191  1
  I  I2  1  0.84002191  0.20260583  0.61781651  1
  I  I3  1  0.38541517  0.16125488  0.78210061  1
  I  I4  1  0.78210061  0.38541517  0.16125488  1
  I  I5  1  0.16125488  0.78210061  0.38541517  1
  O  O0  1  0.78615961  0.84348848  0.04517226  1
  O  O1  1  0.04517226  0.78615961  0.84348848  1
  O  O2  1  0.84348848  0.04517226  0.78615961  1
  O  O3  1  0.21170365  0.15460035  0.94235779  1
  O  O4  1  0.94235779  0.21170365  0.15460035  1
  O  O5  1  0.15460035  0.94235779  0.21170365  1
  O  O6  1  0.58047452  0.59945320  0.18580076  1
  O  O7  1  0.18580076  0.58047452  0.59945320  1
  O  O8  1  0.59945320  0.18580076  0.58047452  1
  O  O9  1  0.42060200  0.40108198  0.80934462  1
  O  O10  1  0.80934462  0.42060200  0.40108198  1
  O  O11  1  0.40108198  0.80934462  0.42060200  1
  O  O12  1  0.78421670  0.89418826  0.40151386  1
  O  O13  1  0.40151386  0.78421670  0.89418826  1
  O  O14  1  0.89418826  0.40151386  0.78421670  1
  O  O15  1  0.21334189  0.10341958  0.59067143  1
  O  O16  1  0.59067143  0.21334189  0.10341958  1
  O  O17  1  0.10341958  0.59067143  0.21334189  1
loop_
_geom_bond_atom_site_label_1
_geom_bond_atom_site_label_2
_geom_bond_distance
_geom_bond_site_symmetry_2
Nb0 O4 1.937774 1_455
Nb0 O3 1.937774 1_554
Nb0 O5 1.937774 1_545
Nb0 O1 2.060690 1_544
Nb0 O0 2.060690 1_445
Nb0 O2 2.060690 1_454
I0 O6 1.804192 1_555
I0 O12 1.810291 1_555
I0 O0 1.868730 1_555
I0 O11 2.503676 1_555
I0 O13 2.640685 1_554
I1 O7 1.804192 1_555
I1 O13 1.810291 1_555
I1 O1 1.868730 1_555
I1 O9 2.503676 1_555
I1 O14 2.640685 1_455
I2 O8 1.804192 1_555
I2 O14 1.810291 1_555
I2 O2 1.868730 1_555
I2 O10 2.503676 1_555
I2 O12 2.640685 1_545
I3 O9 1.793715 1_555
I3 O15 1.796267 1_555
I3 O3 1.916374 1_555
I3 O8 2.390461 1_555
I3 O16 2.681654 1_556
I4 O10 1.793715 1_555
I4 O16 1.796267 1_555
I4 O4 1.916373 1_555
I4 O6 2.390461 1_555
I4 O17 2.681654 1_655
I5 O11 1.793715 1_555
I5 O17 1.796266 1_555
I5 O5 1.916374 1_555
I5 O7 2.390461 1_555
I5 O15 2.681654 1_565
O0 Rb0 3.130099 1_554
O1 Rb0 3.130099 1_455
O2 Rb0 3.130098 1_545
O9 Rb0 2.915467 1_555
O10 Rb0 2.915467 1_555
O11 Rb0 2.915467 1_555
O12 Rb0 3.001493 1_555
O13 Rb0 3.001493 1_555
O14 Rb0 3.001493 1_555
