# generated using pymatgen
data_Rb8Y6PBr20
_symmetry_space_group_name_H-M   'P 1'
_cell_length_a   12.10575196
_cell_length_b   12.10575190
_cell_length_c   12.10555525
_cell_angle_alpha   60.00016092
_cell_angle_beta   60.00016109
_cell_angle_gamma   60.00019616
_symmetry_Int_Tables_number   1
_chemical_formula_structural   Rb8Y6PBr20
_chemical_formula_sum   'Rb8 Y6 P1 Br20'
_cell_volume   1254.45462653
_cell_formula_units_Z   1
loop_
 _symmetry_equiv_pos_site_id
 _symmetry_equiv_pos_as_xyz
  1  'x, y, z'
loop_
 _atom_site_type_symbol
 _atom_site_label
 _atom_site_symmetry_multiplicity
 _atom_site_fract_x
 _atom_site_fract_y
 _atom_site_fract_z
 _atom_site_occupancy
  Rb  Rb0  1  0.35904560  0.35904560  0.35904153  1
  Rb  Rb1  1  0.64095440  0.64095440  0.64095847  1
  Rb  Rb2  1  0.35904132  0.35904132  0.92287749  1
  Rb  Rb3  1  0.35904763  0.92285978  0.35904549  1
  Rb  Rb4  1  0.64095868  0.64095868  0.07712251  1
  Rb  Rb5  1  0.64095237  0.07714022  0.64095451  1
  Rb  Rb6  1  0.92285978  0.35904763  0.35904549  1
  Rb  Rb7  1  0.07714022  0.64095237  0.64095451  1
  Y  Y0  1  0.84200744  0.15799202  0.15799366  1
  Y  Y1  1  0.15799256  0.84200798  0.84200634  1
  Y  Y2  1  0.15799202  0.84200744  0.15799366  1
  Y  Y3  1  0.84200798  0.15799256  0.84200634  1
  Y  Y4  1  0.15799426  0.15799426  0.84200357  1
  Y  Y5  1  0.84200574  0.84200574  0.15799643  1
  P  P0  1  0.00000000  0.00000000  0.00000000  1
  Br  Br0  1  0.33556075  0.99999539  0.99999664  1
  Br  Br1  1  0.66443925  0.00000461  0.00000336  1
  Br  Br2  1  0.99998937  0.33556099  0.66445319  1
  Br  Br3  1  0.00001063  0.66443901  0.33554681  1
  Br  Br4  1  0.99999539  0.33556075  0.99999664  1
  Br  Br5  1  0.66443901  0.00001063  0.33554681  1
  Br  Br6  1  0.00000461  0.66443925  0.00000336  1
  Br  Br7  1  0.33556099  0.99998937  0.66445319  1
  Br  Br8  1  0.00000865  0.00000865  0.33554672  1
  Br  Br9  1  0.99999135  0.99999135  0.66445328  1
  Br  Br10  1  0.66443714  0.33556286  0.00000000  1
  Br  Br11  1  0.33556286  0.66443714  1.00000000  1
  Br  Br12  1  0.67565748  0.32431504  0.32438868  1
  Br  Br13  1  0.32434252  0.67568496  0.67561132  1
  Br  Br14  1  0.32431504  0.67565748  0.32438868  1
  Br  Br15  1  0.67568496  0.32434252  0.67561132  1
  Br  Br16  1  0.32435119  0.32435119  0.67561578  1
  Br  Br17  1  0.67564881  0.67564881  0.32438422  1
  Br  Br18  1  0.24996150  0.24996150  0.25007345  1
  Br  Br19  1  0.75003850  0.75003850  0.74992655  1
loop_
_geom_bond_atom_site_label_1
_geom_bond_atom_site_label_2
_geom_bond_distance
_geom_bond_site_symmetry_2
P0 Y0 2.704838 1_455
P0 Y1 2.704838 1_544
P0 Y2 2.704838 1_545
P0 Y3 2.704838 1_454
P0 Y4 2.704883 1_554
P0 Y5 2.704883 1_445
Br0 Y2 2.877270 1_556
Br0 Y4 2.877271 1_565
Br1 Y3 2.877270 1_554
Br1 Y5 2.877271 1_545
Br2 Y3 2.877210 1_555
Br2 Y4 2.877230 1_655
Br3 Y2 2.877210 1_555
Br3 Y5 2.877230 1_455
Br4 Y0 2.877270 1_556
Br4 Y4 2.877271 1_655
Br5 Y0 2.877210 1_555
Br5 Y5 2.877230 1_545
Br6 Y1 2.877270 1_554
Br6 Y5 2.877271 1_455
Br7 Y1 2.877210 1_555
Br7 Y4 2.877230 1_565
Br8 Y2 2.877223 1_545
Br8 Y0 2.877223 1_455
Br9 Y3 2.877223 1_565
Br9 Y1 2.877223 1_655
Br10 Y3 2.877316 1_554
Br10 Y0 2.877316 1_555
Br11 Y2 2.877316 1_556
Br11 Y1 2.877316 1_555
Br12 Y0 2.848067 1_555
Br12 Rb5 3.463536 1_555
Br12 Rb6 3.463876 1_555
Br12 Rb0 3.464154 1_555
Br12 Rb4 3.464546 1_555
Br13 Y1 2.848067 1_555
Br13 Rb3 3.463536 1_555
Br13 Rb7 3.463876 1_555
Br13 Rb1 3.464154 1_555
Br13 Rb2 3.464546 1_555
Br14 Y2 2.848067 1_555
Br14 Rb7 3.463536 1_555
Br14 Rb3 3.463876 1_555
Br14 Rb0 3.464154 1_555
Br14 Rb4 3.464546 1_555
Br15 Y3 2.848067 1_555
Br15 Rb6 3.463536 1_555
Br15 Rb5 3.463876 1_555
Br15 Rb1 3.464154 1_555
Br15 Rb2 3.464546 1_555
Br16 Y4 2.848053 1_555
Br16 Rb0 3.463617 1_555
Br16 Rb7 3.464002 1_555
Br16 Rb5 3.464002 1_555
Br16 Rb2 3.464473 1_555
Br17 Y5 2.848053 1_555
Br17 Rb1 3.463617 1_555
Br17 Rb6 3.464002 1_555
Br17 Rb3 3.464002 1_555
Br17 Rb4 3.464473 1_555
Br18 Rb3 3.233181 1_545
Br18 Rb6 3.233181 1_455
Br18 Rb0 3.233493 1_555
Br18 Rb2 3.234058 1_554
Br19 Rb5 3.233181 1_565
Br19 Rb7 3.233181 1_655
Br19 Rb1 3.233493 1_555
Br19 Rb4 3.234058 1_556
