# generated using pymatgen
data_Rb5Sc(MoH9)3
_symmetry_space_group_name_H-M   'P 1'
_cell_length_a   9.61530699
_cell_length_b   9.52499439
_cell_length_c   5.43916594
_cell_angle_alpha   90.00000000
_cell_angle_beta   90.00000000
_cell_angle_gamma   119.68979396
_symmetry_Int_Tables_number   1
_chemical_formula_structural   Rb5Sc(MoH9)3
_chemical_formula_sum   'Rb5 Sc1 Mo3 H27'
_cell_volume   432.75280387
_cell_formula_units_Z   1
loop_
 _symmetry_equiv_pos_site_id
 _symmetry_equiv_pos_as_xyz
  1  'x, y, z'
loop_
 _atom_site_type_symbol
 _atom_site_label
 _atom_site_symmetry_multiplicity
 _atom_site_fract_x
 _atom_site_fract_y
 _atom_site_fract_z
 _atom_site_occupancy
  Rb  Rb0  1  0.72471589  0.74819231  0.50000000  1
  Rb  Rb1  1  0.27528411  0.02347642  0.50000000  1
  Rb  Rb2  1  1.00000000  0.63347221  0.00000000  1
  Rb  Rb3  1  0.42820033  0.39534082  0.00000000  1
  Rb  Rb4  1  0.57179967  0.96714150  0.00000000  1
  Sc  Sc0  1  0.00000000  0.25304685  0.50000000  1
  Mo  Mo0  1  0.72936973  0.33527447  0.50000000  1
  Mo  Mo1  1  0.27063027  0.60590574  0.50000000  1
  Mo  Mo2  1  0.00000000  0.05451150  0.00000000  1
  H  H0  1  0.86823310  0.33488045  0.71878553  1
  H  H1  1  0.72732298  0.42629387  0.76970167  1
  H  H2  1  0.57769579  0.20183227  0.69227762  1
  H  H3  1  0.13176690  0.46664835  0.28121447  1
  H  H4  1  0.57769579  0.20183227  0.30772238  1
  H  H5  1  0.86823310  0.33488045  0.28121447  1
  H  H6  1  0.72732298  0.42629387  0.23029833  1
  H  H7  1  0.27267702  0.69897289  0.76970167  1
  H  H8  1  0.42230421  0.62413848  0.69227762  1
  H  H9  1  0.17825499  0.05354391  0.00000000  1
  H  H10  1  0.82174501  0.87528891  0.00000000  1
  H  H11  1  0.00000000  0.23698843  0.00000000  1
  H  H12  1  0.87561009  0.05461964  0.24294125  1
  H  H13  1  0.12438991  0.17900955  0.75705875  1
  H  H14  1  1.00000000  0.91916497  0.78502410  1
  H  H15  1  1.00000000  0.91916497  0.21497590  1
  H  H16  1  0.12438991  0.17900955  0.24294125  1
  H  H17  1  0.87561009  0.05461964  0.75705875  1
  H  H18  1  0.15559821  0.70260619  0.50000000  1
  H  H19  1  0.42397302  0.80691988  0.50000000  1
  H  H20  1  0.25838027  0.41279967  0.50000000  1
  H  H21  1  0.57602698  0.38294687  0.50000000  1
  H  H22  1  0.84440179  0.54700698  0.50000000  1
  H  H23  1  0.74161973  0.15441840  0.50000000  1
  H  H24  1  0.13176690  0.46664835  0.71878553  1
  H  H25  1  0.27267702  0.69897289  0.23029833  1
  H  H26  1  0.42230421  0.62413848  0.30772238  1
loop_
_geom_bond_atom_site_label_1
_geom_bond_atom_site_label_2
_geom_bond_distance
_geom_bond_site_symmetry_2
H0 Mo0 1.789944 1_555
H0 Sc0 2.146443 1_655
H0 Rb2 2.909311 1_556
H1 Mo0 1.709051 1_555
H1 Rb2 2.685547 1_556
H1 Rb3 3.014677 1_556
H2 Mo0 1.732034 1_555
H2 Rb1 2.746188 1_555
H2 Rb4 2.770606 1_546
H3 Mo1 1.789944 1_555
H3 Sc0 2.146449 1_555
H3 Rb2 2.909305 1_455
H4 Mo0 1.732034 1_555
H4 Rb1 2.746188 1_555
H4 Rb4 2.770606 1_545
H5 Mo0 1.789944 1_555
H5 Sc0 2.146443 1_655
H5 Rb2 2.909311 1_555
H6 Mo0 1.709051 1_555
H6 Rb2 2.685547 1_555
H6 Rb3 3.014677 1_555
H7 Mo1 1.709056 1_555
H7 Rb2 2.685543 1_456
H7 Rb4 3.014673 1_556
H8 Mo1 1.732031 1_555
H8 Rb0 2.746190 1_555
H8 Rb3 2.770629 1_556
H9 Mo2 1.718560 1_555
H9 Rb1 2.934836 1_554
H9 Rb1 2.934836 1_555
H9 Rb3 2.936689 1_555
H10 Mo2 1.718560 1_665
H10 Rb0 2.934836 1_555
H10 Rb0 2.934836 1_554
H10 Rb4 2.936697 1_555
H11 Mo2 1.738092 1_555
H12 Mo2 1.782650 1_655
H12 Sc0 2.172165 1_655
H12 Rb0 2.895506 1_545
H12 Rb4 2.926219 1_545
H13 Mo2 1.782650 1_556
H13 Sc0 2.172165 1_555
H13 Rb1 2.895507 1_555
H13 Rb3 2.926217 1_556
H14 Mo2 1.740463 1_666
H14 Rb0 2.791356 1_555
H14 Rb1 2.791356 1_665
H14 Rb2 2.961805 1_556
H15 Mo2 1.740463 1_665
H15 Rb0 2.791356 1_555
H15 Rb1 2.791356 1_665
H15 Rb2 2.961805 1_555
H16 Mo2 1.782650 1_555
H16 Sc0 2.172165 1_555
H16 Rb1 2.895507 1_555
H16 Rb3 2.926217 1_555
H17 Mo2 1.782650 1_656
H17 Sc0 2.172165 1_655
H17 Rb0 2.895506 1_545
H17 Rb4 2.926219 1_546
H18 Mo1 1.755266 1_555
H18 Rb1 2.679753 1_565
H18 Rb2 3.015327 1_455
H18 Rb2 3.015327 1_456
H19 Mo1 1.744521 1_555
H19 Rb1 3.036456 1_565
H19 Rb4 3.097851 1_555
H19 Rb4 3.097851 1_556
H20 Mo1 1.783931 1_555
H20 Sc0 2.177796 1_555
H21 Mo0 1.744528 1_555
H21 Rb0 3.036455 1_555
H21 Rb3 3.097849 1_555
H21 Rb3 3.097849 1_556
H22 Mo0 1.755266 1_555
H22 Rb0 2.679763 1_555
H22 Rb2 3.015327 1_556
H22 Rb2 3.015327 1_555
H23 Mo0 1.783931 1_555
H23 Sc0 2.177795 1_655
H24 Mo1 1.789944 1_555
H24 Sc0 2.146449 1_555
H24 Rb2 2.909305 1_456
H25 Mo1 1.709056 1_555
H25 Rb2 2.685543 1_455
H25 Rb4 3.014673 1_555
H26 Mo1 1.732031 1_555
H26 Rb0 2.746190 1_555
H26 Rb3 2.770629 1_555
