# generated using pymatgen
data_Cs2Mg(GeO3)2
_symmetry_space_group_name_H-M   'P 1'
_cell_length_a   6.10561280
_cell_length_b   6.10561203
_cell_length_c   11.13719104
_cell_angle_alpha   90.00000000
_cell_angle_beta   90.00000000
_cell_angle_gamma   110.22423434
_symmetry_Int_Tables_number   1
_chemical_formula_structural   Cs2Mg(GeO3)2
_chemical_formula_sum   'Cs4 Mg2 Ge4 O12'
_cell_volume   389.58080523
_cell_formula_units_Z   2
loop_
 _symmetry_equiv_pos_site_id
 _symmetry_equiv_pos_as_xyz
  1  'x, y, z'
loop_
 _atom_site_type_symbol
 _atom_site_label
 _atom_site_symmetry_multiplicity
 _atom_site_fract_x
 _atom_site_fract_y
 _atom_site_fract_z
 _atom_site_occupancy
  Cs  Cs0  1  0.78138938  0.43310045  0.91940877  1
  Cs  Cs1  1  0.56689955  0.21861062  0.58059123  1
  Cs  Cs2  1  0.21861062  0.56689955  0.41940877  1
  Cs  Cs3  1  0.43310045  0.78138938  0.08059123  1
  Mg  Mg0  1  0.68438489  0.31561511  0.25000000  1
  Mg  Mg1  1  0.31561511  0.68438489  0.75000000  1
  Ge  Ge0  1  0.82791436  0.87230837  0.35953084  1
  Ge  Ge1  1  0.12769163  0.17208564  0.14046916  1
  Ge  Ge2  1  0.17208564  0.12769163  0.85953084  1
  Ge  Ge3  1  0.87230837  0.82791436  0.64046916  1
  O  O0  1  0.63424367  0.01760004  0.33315340  1
  O  O1  1  0.56978690  0.71076947  0.63772118  1
  O  O2  1  0.71076947  0.56978690  0.36227882  1
  O  O3  1  0.36575633  0.98239996  0.83315340  1
  O  O4  1  0.97590328  0.97590328  0.50000000  1
  O  O5  1  0.43021310  0.28923053  0.13772118  1
  O  O6  1  0.05591203  0.94408797  0.25000000  1
  O  O7  1  0.28923053  0.43021310  0.86227882  1
  O  O8  1  0.02409672  0.02409672  0.00000000  1
  O  O9  1  0.94408797  0.05591203  0.75000000  1
  O  O10  1  0.98239996  0.36575633  0.16684660  1
  O  O11  1  0.01760004  0.63424367  0.66684660  1
loop_
_geom_bond_atom_site_label_1
_geom_bond_atom_site_label_2
_geom_bond_distance
_geom_bond_site_symmetry_2
Cs0 O7 3.065638 1_555
Cs0 O10 3.101361 1_556
Cs0 O5 3.158864 1_556
Cs0 O7 3.171303 1_655
Cs0 O3 3.179151 1_545
Cs0 O11 3.205567 1_655
Cs0 O9 3.381113 1_555
Cs0 O8 3.434561 1_656
Cs0 O8 3.510709 1_666
Cs1 O1 3.065637 1_555
Cs1 O0 3.101361 1_555
Cs1 O2 3.158864 1_555
Cs1 O1 3.171303 1_545
Cs1 O11 3.179151 1_655
Cs1 O3 3.205567 1_545
Cs1 O9 3.381113 1_555
Cs1 O4 3.434561 1_545
Cs1 O4 3.510710 1_445
Cs2 O2 3.065638 1_555
Cs2 O11 3.101361 1_555
Cs2 O1 3.158864 1_555
Cs2 O2 3.171303 1_455
Cs2 O0 3.179151 1_565
Cs2 O10 3.205567 1_455
Cs2 O6 3.381113 1_555
Cs2 O4 3.434561 1_455
Cs2 O4 3.510709 1_445
Cs3 O5 3.065637 1_555
Cs3 O3 3.101361 1_554
Cs3 O7 3.158864 1_554
Cs3 O5 3.171303 1_565
Cs3 O10 3.179151 1_455
Cs3 O0 3.205567 1_565
Cs3 O6 3.381113 1_555
Cs3 O8 3.434561 1_565
Cs3 O8 3.510710 1_665
Mg0 O2 1.955785 1_555
Mg0 O5 1.955785 1_555
Mg0 O0 1.969024 1_555
Mg0 O10 1.969024 1_555
Mg1 O7 1.955785 1_555
Mg1 O1 1.955785 1_555
Mg1 O3 1.969024 1_555
Mg1 O11 1.969024 1_555
Ge0 O0 1.731110 1_565
Ge0 O2 1.735167 1_555
Ge0 O6 1.787787 1_655
Ge0 O4 1.807983 1_555
Ge1 O10 1.731110 1_455
Ge1 O5 1.735168 1_555
Ge1 O6 1.787787 1_545
Ge1 O8 1.807983 1_555
Ge2 O3 1.731110 1_545
Ge2 O7 1.735167 1_555
Ge2 O9 1.787787 1_455
Ge2 O8 1.807983 1_556
Ge3 O11 1.731110 1_655
Ge3 O1 1.735168 1_555
Ge3 O9 1.787787 1_565
Ge3 O4 1.807983 1_555
