# generated using pymatgen
data_K2RbSn4Au
_symmetry_space_group_name_H-M   'P 1'
_cell_length_a   6.61705311
_cell_length_b   7.24953879
_cell_length_c   12.39318545
_cell_angle_alpha   90.00000000
_cell_angle_beta   90.00000000
_cell_angle_gamma   90.00000000
_symmetry_Int_Tables_number   1
_chemical_formula_structural   K2RbSn4Au
_chemical_formula_sum   'K4 Rb2 Sn8 Au2'
_cell_volume   594.50833413
_cell_formula_units_Z   2
loop_
 _symmetry_equiv_pos_site_id
 _symmetry_equiv_pos_as_xyz
  1  'x, y, z'
loop_
 _atom_site_type_symbol
 _atom_site_label
 _atom_site_symmetry_multiplicity
 _atom_site_fract_x
 _atom_site_fract_y
 _atom_site_fract_z
 _atom_site_occupancy
  K  K0  1  0.83726948  0.50000000  0.74115630  1
  K  K1  1  0.83726948  0.50000000  0.25884370  1
  K  K2  1  0.16273052  0.00000000  0.75884370  1
  K  K3  1  0.16273052  0.00000000  0.24115630  1
  Rb  Rb0  1  0.56504454  0.00000000  0.00000000  1
  Rb  Rb1  1  0.43495546  0.50000000  0.50000000  1
  Sn  Sn0  1  0.33830542  0.50000000  0.87405306  1
  Sn  Sn1  1  0.33830542  0.50000000  0.12594694  1
  Sn  Sn2  1  0.04394407  0.28551766  0.00000000  1
  Sn  Sn3  1  0.04394407  0.71448234  0.00000000  1
  Sn  Sn4  1  0.95605593  0.78551766  0.50000000  1
  Sn  Sn5  1  0.95605593  0.21448234  0.50000000  1
  Sn  Sn6  1  0.66169458  0.00000000  0.37405306  1
  Sn  Sn7  1  0.66169458  0.00000000  0.62594694  1
  Au  Au0  1  0.68951068  0.50000000  0.00000000  1
  Au  Au1  1  0.31048932  0.00000000  0.50000000  1
loop_
_geom_bond_atom_site_label_1
_geom_bond_atom_site_label_2
_geom_bond_distance
_geom_bond_site_symmetry_2
K0 Sn0 3.689674 1_555
K0 Sn0 3.701947 1_655
K0 Sn4 3.719474 1_555
K0 Sn5 3.719474 1_555
K0 Sn3 3.818191 1_656
K0 Sn2 3.818191 1_656
K0 Rb1 4.002405 1_555
K0 Sn7 4.065384 1_565
K0 Sn7 4.065384 1_555
K0 K2 4.221962 1_655
K0 K2 4.221962 1_665
K1 Sn1 3.689674 1_555
K1 Sn1 3.701947 1_655
K1 Sn4 3.719474 1_555
K1 Sn5 3.719474 1_555
K1 Sn3 3.818191 1_655
K1 Sn2 3.818191 1_655
K1 Rb1 4.002405 1_555
K1 Sn6 4.065384 1_555
K1 Sn6 4.065384 1_565
K1 K3 4.221962 1_655
K1 K3 4.221962 1_665
K2 Sn7 3.689674 1_555
K2 Sn7 3.701947 1_455
K2 Sn2 3.719474 1_556
K2 Sn3 3.719474 1_546
K2 Sn5 3.818191 1_455
K2 Sn4 3.818191 1_445
K2 Rb0 4.002405 1_556
K2 Sn0 4.065384 1_545
K2 Sn0 4.065384 1_555
K3 Sn6 3.689674 1_555
K3 Sn6 3.701947 1_455
K3 Sn2 3.719474 1_555
K3 Sn3 3.719474 1_545
K3 Sn5 3.818191 1_455
K3 Sn4 3.818191 1_445
K3 Rb0 4.002405 1_555
K3 Sn1 4.065384 1_555
K3 Sn1 4.065384 1_545
Rb0 Sn2 3.785012 1_655
Rb0 Sn3 3.785012 1_645
Rb0 Sn2 4.021704 1_555
Rb0 Sn3 4.021704 1_545
Rb1 Sn4 3.785012 1_455
Rb1 Sn5 3.785012 1_455
Rb1 Sn4 4.021704 1_555
Rb1 Sn5 4.021704 1_555
Sn0 Sn3 2.940750 1_556
Sn0 Sn2 2.940750 1_556
Sn1 Sn3 2.940750 1_555
Sn1 Sn2 2.940750 1_555
Sn2 Sn3 3.109796 1_555
Sn4 Sn7 2.940750 1_565
Sn4 Sn6 2.940750 1_565
Sn4 Sn5 3.109796 1_565
Sn5 Sn7 2.940750 1_555
Sn5 Sn6 2.940750 1_555
Au0 Sn1 2.799477 1_555
Au0 Sn0 2.799477 1_554
Au0 Sn3 2.813923 1_655
Au0 Sn2 2.813923 1_655
Au0 K1 3.353589 1_555
Au0 K0 3.353589 1_554
Au0 Rb0 3.717159 1_565
Au0 Rb0 3.717159 1_555
Au1 Sn7 2.799477 1_555
Au1 Sn6 2.799477 1_555
Au1 Sn5 2.813923 1_455
Au1 Sn4 2.813923 1_445
Au1 K2 3.353589 1_555
Au1 K3 3.353589 1_555
Au1 Rb1 3.717159 1_555
Au1 Rb1 3.717159 1_545
