# generated using pymatgen
data_BaCrP2Os
_symmetry_space_group_name_H-M   'P 1'
_cell_length_a   6.92543033
_cell_length_b   6.92543054
_cell_length_c   6.92543142
_cell_angle_alpha   146.45616767
_cell_angle_beta   146.45616947
_cell_angle_gamma   48.16969676
_symmetry_Int_Tables_number   1
_chemical_formula_structural   BaCrP2Os
_chemical_formula_sum   'Ba1 Cr1 P2 Os1'
_cell_volume   101.00048436
_cell_formula_units_Z   1
loop_
 _symmetry_equiv_pos_site_id
 _symmetry_equiv_pos_as_xyz
  1  'x, y, z'
loop_
 _atom_site_type_symbol
 _atom_site_label
 _atom_site_symmetry_multiplicity
 _atom_site_fract_x
 _atom_site_fract_y
 _atom_site_fract_z
 _atom_site_occupancy
  Ba  Ba0  1  0.00000000  0.00000000  0.00000000  1
  Cr  Cr0  1  0.25000000  0.75000000  0.50000000  1
  P  P0  1  0.65263678  0.65263678  0.00000000  1
  P  P1  1  0.34736322  0.34736322  1.00000000  1
  Os  Os0  1  0.75000000  0.25000000  0.50000000  1
loop_
_geom_bond_atom_site_label_1
_geom_bond_atom_site_label_2
_geom_bond_distance
_geom_bond_site_symmetry_2
Ba0 P0 3.422373 1_556
Ba0 P1 3.422373 1_443
Ba0 P0 3.422373 1_545
Ba0 P1 3.422373 1_454
Ba0 P0 3.422373 1_455
Ba0 P1 3.422373 1_544
Ba0 P0 3.422374 1_444
Ba0 P1 3.422374 1_555
Cr0 P0 2.347219 1_455
Cr0 P1 2.347219 1_565
Cr0 P0 2.347220 1_556
Cr0 P1 2.347220 1_554
Cr0 Os0 2.826192 1_465
Cr0 Os0 2.826192 1_555
Cr0 Os0 2.826192 1_454
Cr0 Os0 2.826192 1_566
Os0 P1 2.347219 1_655
Os0 P0 2.347219 1_545
Os0 P1 2.347220 1_554
Os0 P0 2.347220 1_556
