# generated using pymatgen
data_NaCa7(TaN4)2
_symmetry_space_group_name_H-M   'P 1'
_cell_length_a   6.07308001
_cell_length_b   6.03535467
_cell_length_c   9.13771711
_cell_angle_alpha   71.95431489
_cell_angle_beta   81.43502395
_cell_angle_gamma   67.95316457
_symmetry_Int_Tables_number   1
_chemical_formula_structural   NaCa7(TaN4)2
_chemical_formula_sum   'Na1 Ca7 Ta2 N8'
_cell_volume   294.96271952
_cell_formula_units_Z   1
loop_
 _symmetry_equiv_pos_site_id
 _symmetry_equiv_pos_as_xyz
  1  'x, y, z'
loop_
 _atom_site_type_symbol
 _atom_site_label
 _atom_site_symmetry_multiplicity
 _atom_site_fract_x
 _atom_site_fract_y
 _atom_site_fract_z
 _atom_site_occupancy
  Na  Na0  1  0.23834418  0.95207427  0.60013102  1
  Ca  Ca0  1  0.75204041  0.61396365  0.18516266  1
  Ca  Ca1  1  0.75774983  0.23186385  0.99628406  1
  Ca  Ca2  1  0.25339523  0.52881071  0.42329976  1
  Ca  Ca3  1  0.76006829  0.04389065  0.39949070  1
  Ca  Ca4  1  0.25830394  0.41289120  0.80701939  1
  Ca  Ca5  1  0.73266926  0.47500693  0.57023912  1
  Ca  Ca6  1  0.24391050  0.76288977  0.02234617  1
  Ta  Ta0  1  0.71211053  0.84681773  0.76015857  1
  Ta  Ta1  1  0.27925566  0.14697223  0.24160788  1
  N  N0  1  0.96071305  0.69458917  0.62089859  1
  N  N1  1  0.52569189  0.18108604  0.63204468  1
  N  N2  1  0.01691434  0.29217831  0.37656907  1
  N  N3  1  0.52343644  0.62583296  0.81643608  1
  N  N4  1  0.16447962  0.17133511  0.04560249  1
  N  N5  1  0.48012670  0.81550885  0.36212044  1
  N  N6  1  0.48034441  0.35530620  0.20610674  1
  N  N7  1  0.86044572  0.84898237  0.93448158  1
loop_
_geom_bond_atom_site_label_1
_geom_bond_atom_site_label_2
_geom_bond_distance
_geom_bond_site_symmetry_2
Ca0 N5 2.395098 1_555
Ca0 N2 2.409694 1_655
Ca0 N7 2.435427 1_554
Ca0 N6 2.617410 1_555
Ca1 N7 2.381062 1_545
Ca1 N4 2.447468 1_656
Ca1 N6 2.459658 1_556
Ca1 N3 2.472827 1_555
Ca2 N5 2.482468 1_555
Ca2 N0 2.499776 1_455
Ca2 N6 2.514821 1_555
Ca2 N2 2.526827 1_555
Ca2 N1 2.575148 1_555
Ca3 N6 2.445505 1_555
Ca3 N2 2.487070 1_655
Ca3 N0 2.487100 1_545
Ca3 N1 2.555721 1_555
Ca3 N5 2.670325 1_545
Ca4 N4 2.342525 1_556
Ca4 N0 2.422115 1_455
Ca4 N3 2.432087 1_555
Ca4 N1 2.461213 1_555
Ca5 N0 2.416099 1_555
Ca5 N1 2.426436 1_555
Ca5 N2 2.489824 1_655
Ca5 N5 2.504669 1_555
Ca5 N3 2.655792 1_555
Ca6 N7 2.393328 1_454
Ca6 N4 2.399154 1_565
Ca6 N3 2.462708 1_554
Ca6 N6 2.537688 1_555
N0 Ta0 1.963054 1_555
N0 Na0 2.642510 1_655
N1 Ta0 1.984717 1_545
N1 Na0 2.693104 1_545
N2 Ta1 1.965551 1_555
N2 Na0 2.518542 1_545
N3 Ta0 1.975611 1_555
N3 Na0 2.613461 1_555
N4 Ta1 1.961397 1_555
N5 Ta1 1.976367 1_565
N5 Na0 2.610805 1_555
N6 Ta1 1.989892 1_555
N7 Ta0 1.948906 1_555
