# generated using pymatgen
data_MgScNi3Ir
_symmetry_space_group_name_H-M   'P 1'
_cell_length_a   5.00446113
_cell_length_b   5.00446182
_cell_length_c   5.00445998
_cell_angle_alpha   57.47083147
_cell_angle_beta   57.47082572
_cell_angle_gamma   57.47083237
_symmetry_Int_Tables_number   1
_chemical_formula_structural   MgScNi3Ir
_chemical_formula_sum   'Mg1 Sc1 Ni3 Ir1'
_cell_volume   83.46907517
_cell_formula_units_Z   1
loop_
 _symmetry_equiv_pos_site_id
 _symmetry_equiv_pos_as_xyz
  1  'x, y, z'
loop_
 _atom_site_type_symbol
 _atom_site_label
 _atom_site_symmetry_multiplicity
 _atom_site_fract_x
 _atom_site_fract_y
 _atom_site_fract_z
 _atom_site_occupancy
  Mg  Mg0  1  0.00163670  0.00163670  0.00163670  1
  Sc  Sc0  1  0.24921311  0.24921311  0.24921311  1
  Ni  Ni0  1  0.62494935  0.62494935  0.12373039  1
  Ni  Ni1  1  0.62494935  0.12373039  0.62494935  1
  Ni  Ni2  1  0.12373039  0.62494935  0.62494935  1
  Ir  Ir0  1  0.62552209  0.62552209  0.62552209  1
loop_
_geom_bond_atom_site_label_1
_geom_bond_atom_site_label_2
_geom_bond_distance
_geom_bond_site_symmetry_2
Mg0 Ni1 2.853821 1_455
Mg0 Ni2 2.853821 1_545
Mg0 Ni1 2.853822 1_554
Mg0 Ni0 2.853822 1_545
Mg0 Ni0 2.853822 1_455
Mg0 Ni2 2.853822 1_554
Mg0 Ni1 2.970689 1_454
Mg0 Ni2 2.970689 1_544
Mg0 Ni0 2.970690 1_445
Mg0 Sc0 2.977427 1_554
Mg0 Sc0 2.977427 1_455
Mg0 Sc0 2.977428 1_545
Mg0 Sc0 3.091606 1_555
Ni0 Ni2 2.400107 1_654
Ni0 Ni1 2.400107 1_564
Ni0 Ni2 2.411838 1_555
Ni0 Ni1 2.411838 1_555
Ni0 Sc0 2.865727 1_655
Ni0 Sc0 2.865727 1_565
Ni0 Sc0 2.954412 1_555
Ni1 Ni2 2.400107 1_645
Ni1 Ni2 2.411838 1_555
Ni1 Sc0 2.865726 1_556
Ni1 Sc0 2.865727 1_655
Ni1 Sc0 2.954412 1_555
Ni2 Sc0 2.865726 1_556
Ni2 Sc0 2.865727 1_565
Ni2 Sc0 2.954412 1_555
Ir0 Ni0 2.490184 1_556
Ir0 Ni2 2.490185 1_655
Ir0 Ni1 2.490185 1_565
Ir0 Ni0 2.514282 1_555
Ir0 Ni2 2.514283 1_555
Ir0 Ni1 2.514283 1_555
Ir0 Mg0 2.829076 1_665
Ir0 Mg0 2.829076 1_566
Ir0 Mg0 2.829077 1_656
Ir0 Sc0 2.829536 1_556
Ir0 Sc0 2.829536 1_655
Ir0 Sc0 2.829536 1_565
