# generated using pymatgen
data_Y16In4CuRu3
_symmetry_space_group_name_H-M   'P 1'
_cell_length_a   9.66166586
_cell_length_b   9.66108759
_cell_length_c   9.66048907
_cell_angle_alpha   60.13246627
_cell_angle_beta   60.13288890
_cell_angle_gamma   60.13339929
_symmetry_Int_Tables_number   1
_chemical_formula_structural   Y16In4CuRu3
_chemical_formula_sum   'Y16 In4 Cu1 Ru3'
_cell_volume   639.54022777
_cell_formula_units_Z   1
loop_
 _symmetry_equiv_pos_site_id
 _symmetry_equiv_pos_as_xyz
  1  'x, y, z'
loop_
 _atom_site_type_symbol
 _atom_site_label
 _atom_site_symmetry_multiplicity
 _atom_site_fract_x
 _atom_site_fract_y
 _atom_site_fract_z
 _atom_site_occupancy
  Y  Y0  1  0.10132248  0.70148652  0.10144430  1
  Y  Y1  1  0.94123639  0.94126173  0.55190777  1
  Y  Y2  1  0.94121195  0.55192659  0.94125481  1
  Y  Y3  1  0.31003890  0.69177962  0.31009220  1
  Y  Y4  1  0.94219132  0.55944061  0.55941936  1
  Y  Y5  1  0.31012313  0.31014685  0.69170961  1
  Y  Y6  1  0.09751683  0.09745035  0.09739609  1
  Y  Y7  1  0.55940294  0.55938019  0.94227816  1
  Y  Y8  1  0.10138058  0.10144348  0.70148366  1
  Y  Y9  1  0.69027705  0.31422208  0.69029805  1
  Y  Y10  1  0.69022694  0.69023548  0.31425608  1
  Y  Y11  1  0.69186079  0.30998162  0.30999995  1
  Y  Y12  1  0.31418502  0.69034624  0.69035995  1
  Y  Y13  1  0.55943229  0.94223551  0.55938797  1
  Y  Y14  1  0.70149762  0.10131812  0.10137796  1
  Y  Y15  1  0.55194191  0.94120260  0.94122837  1
  In  In0  1  0.33317948  0.33320999  0.33319463  1
  In  In1  1  0.00229589  0.33236838  0.33238725  1
  In  In2  1  0.33235772  0.00227948  0.33238007  1
  In  In3  1  0.33234969  0.33236714  0.00226518  1
  Cu  Cu0  1  0.89064962  0.89061330  0.89059092  1
  Ru  Ru0  1  0.88913202  0.88916784  0.32710554  1
  Ru  Ru1  1  0.32713368  0.88901823  0.88905296  1
  Ru  Ru2  1  0.88905775  0.32711806  0.88912917  1
loop_
_geom_bond_atom_site_label_1
_geom_bond_atom_site_label_2
_geom_bond_distance
_geom_bond_site_symmetry_2
In0 In1 3.204840 1_555
In0 In3 3.205008 1_555
In0 In2 3.205041 1_555
In0 Y5 3.256842 1_555
In0 Y3 3.257079 1_555
In0 Y11 3.257624 1_555
In0 Y8 3.436783 1_555
In0 Y0 3.436974 1_555
In0 Y14 3.437624 1_555
In0 Y7 3.482842 1_554
In0 Y13 3.483385 1_545
In0 Y4 3.483557 1_455
In1 In3 3.195408 1_555
In1 In2 3.195410 1_555
In1 Y11 3.229272 1_455
In1 Y9 3.258041 1_455
In1 Y10 3.258155 1_455
In1 Y8 3.457918 1_555
In1 Y0 3.458008 1_555
In1 Y1 3.480751 1_445
In1 Y2 3.480860 1_454
In1 Y6 3.481765 1_555
In1 Y4 3.494995 1_455
In2 In3 3.195422 1_555
In2 Y3 3.228815 1_545
In2 Y12 3.257975 1_545
In2 Y10 3.258110 1_545
In2 Y8 3.458327 1_555
In2 Y14 3.458402 1_555
In2 Y1 3.480903 1_445
In2 Y15 3.480992 1_544
In2 Y6 3.481386 1_555
In2 Y13 3.495200 1_545
In3 Y5 3.228306 1_554
In3 Y12 3.257904 1_554
In3 Y9 3.258013 1_554
In3 Y0 3.458694 1_555
In3 Y14 3.458798 1_555
In3 Y2 3.481012 1_454
In3 Y6 3.481045 1_555
In3 Y15 3.481144 1_544
In3 Y7 3.495438 1_554
Cu0 Y1 2.869533 1_555
Cu0 Y2 2.869804 1_555
Cu0 Y15 2.870203 1_555
Cu0 Y14 2.889148 1_566
Cu0 Y0 2.889491 1_656
Cu0 Y8 2.889834 1_665
Cu0 Y12 3.491221 1_655
Cu0 Y9 3.491915 1_565
Cu0 Y10 3.492421 1_556
Ru0 Y1 2.766371 1_555
Ru0 Y13 2.800946 1_555
Ru0 Y4 2.801074 1_555
Ru0 Y0 2.833101 1_655
Ru0 Y14 2.833309 1_565
Ru0 Y6 2.857397 1_665
Ru0 Y10 3.399410 1_555
Ru0 Y11 3.480740 1_565
Ru0 Y3 3.481960 1_655
Ru1 Y15 2.767673 1_555
Ru1 Y7 2.800517 1_555
Ru1 Y13 2.800627 1_555
Ru1 Y8 2.833181 1_565
Ru1 Y0 2.833390 1_556
Ru1 Y6 2.857926 1_566
Ru1 Y12 3.395857 1_555
Ru1 Y3 3.482415 1_556
Ru1 Y5 3.483593 1_565
Ru2 Y2 2.767060 1_555
Ru2 Y7 2.800674 1_555
Ru2 Y4 2.800914 1_555
Ru2 Y8 2.833020 1_655
Ru2 Y14 2.833438 1_556
Ru2 Y6 2.857696 1_656
Ru2 Y9 3.397703 1_555
Ru2 Y11 3.480909 1_556
Ru2 Y5 3.483381 1_655
