# generated using pymatgen
data_Na4Hf6FeI18
_symmetry_space_group_name_H-M   'P 1'
_cell_length_a   10.99558610
_cell_length_b   10.94942485
_cell_length_c   11.01306056
_cell_angle_alpha   119.14430724
_cell_angle_beta   100.01100441
_cell_angle_gamma   102.67485294
_symmetry_Int_Tables_number   1
_chemical_formula_structural   Na4Hf6FeI18
_chemical_formula_sum   'Na4 Hf6 Fe1 I18'
_cell_volume   1066.77305450
_cell_formula_units_Z   1
loop_
 _symmetry_equiv_pos_site_id
 _symmetry_equiv_pos_as_xyz
  1  'x, y, z'
loop_
 _atom_site_type_symbol
 _atom_site_label
 _atom_site_symmetry_multiplicity
 _atom_site_fract_x
 _atom_site_fract_y
 _atom_site_fract_z
 _atom_site_occupancy
  Na  Na0  1  0.61258338  0.51848922  0.20940145  1
  Na  Na1  1  0.38741662  0.48151078  0.79059855  1
  Na  Na2  1  0.64241927  0.21367095  0.54090783  1
  Na  Na3  1  0.35758073  0.78632905  0.45909217  1
  Hf  Hf0  1  0.14683693  0.05301070  0.22608100  1
  Hf  Hf1  1  0.85316307  0.94698930  0.77391900  1
  Hf  Hf2  1  0.87071929  0.13428031  0.13852610  1
  Hf  Hf3  1  0.12928071  0.86571969  0.86147390  1
  Hf  Hf4  1  0.14072849  0.23118752  0.04101163  1
  Hf  Hf5  1  0.85927151  0.76881248  0.95898837  1
  Fe  Fe0  1  0.00000000  0.00000000  0.00000000  1
  I  I0  1  0.01428891  0.42877399  0.20929364  1
  I  I1  1  0.98571109  0.57122601  0.79070636  1
  I  I2  1  0.33666963  0.33781939  0.31759151  1
  I  I3  1  0.66333037  0.66218061  0.68240849  1
  I  I4  1  0.32918148  0.52950882  0.09551746  1
  I  I5  1  0.67081852  0.47049118  0.90448254  1
  I  I6  1  0.00702771  0.79128917  0.21788659  1
  I  I7  1  0.99297229  0.20871083  0.78211341  1
  I  I8  1  0.70504045  0.30571164  0.31346381  1
  I  I9  1  0.29495955  0.69428836  0.68653619  1
  I  I10  1  0.31670180  0.11623229  0.88739929  1
  I  I11  1  0.68329820  0.88376771  0.11260071  1
  I  I12  1  0.02230525  0.21992971  0.42823532  1
  I  I13  1  0.97769475  0.78007029  0.57176468  1
  I  I14  1  0.32493704  0.91029670  0.10515393  1
  I  I15  1  0.67506296  0.08970330  0.89484607  1
  I  I16  1  0.34139889  0.11974732  0.51863410  1
  I  I17  1  0.65860111  0.88025268  0.48136590  1
loop_
_geom_bond_atom_site_label_1
_geom_bond_atom_site_label_2
_geom_bond_distance
_geom_bond_site_symmetry_2
Hf0 I14 2.876297 1_545
Hf0 I6 2.889679 1_545
Hf0 I12 2.892536 1_555
Hf0 I2 2.906628 1_555
Hf0 I16 3.180524 1_555
Hf1 I15 2.876297 1_565
Hf1 I7 2.889679 1_565
Hf1 I13 2.892536 1_555
Hf1 I3 2.906628 1_555
Hf1 I17 3.180524 1_555
Hf2 I15 2.885248 1_554
Hf2 I0 2.896157 1_655
Hf2 I12 2.896230 1_655
Hf2 I11 2.899018 1_545
Hf2 I8 3.122877 1_555
Hf3 I14 2.885248 1_556
Hf3 I1 2.896157 1_455
Hf3 I13 2.896230 1_455
Hf3 I10 2.899018 1_565
Hf3 I9 3.122877 1_555
Hf4 I10 2.884968 1_554
Hf4 I0 2.891110 1_555
Hf4 I7 2.891419 1_454
Hf4 I2 2.904061 1_555
Hf4 I4 3.164053 1_555
Hf5 I11 2.884968 1_556
Hf5 I1 2.891110 1_555
Hf5 I6 2.891419 1_656
Hf5 I3 2.904061 1_555
Hf5 I5 3.164053 1_555
Fe0 Hf0 2.434434 1_555
Fe0 Hf1 2.434434 1_444
Fe0 Hf4 2.435305 1_555
Fe0 Hf5 2.435305 1_444
Fe0 Hf3 2.448732 1_544
Fe0 Hf2 2.448732 1_455
I4 Na0 3.201826 1_555
I4 Na1 3.337555 1_554
I4 Na3 3.500070 1_555
I5 Na1 3.201826 1_555
I5 Na0 3.337555 1_556
I5 Na2 3.500070 1_555
I8 Na2 3.243143 1_555
I8 Na0 3.318112 1_555
I9 Na3 3.243143 1_555
I9 Na1 3.318112 1_555
I16 Na2 3.170400 1_555
I16 Na3 3.432699 1_545
I16 Na1 3.457593 1_555
I17 Na3 3.170400 1_555
I17 Na2 3.432699 1_565
I17 Na0 3.457593 1_555
