# generated using pymatgen
data_Cs4MgW3N8
_symmetry_space_group_name_H-M   'P 1'
_cell_length_a   6.15421027
_cell_length_b   8.76858572
_cell_length_c   12.41478808
_cell_angle_alpha   90.00000000
_cell_angle_beta   90.00000000
_cell_angle_gamma   90.00000000
_symmetry_Int_Tables_number   1
_chemical_formula_structural   Cs4MgW3N8
_chemical_formula_sum   'Cs8 Mg2 W6 N16'
_cell_volume   669.94815174
_cell_formula_units_Z   2
loop_
 _symmetry_equiv_pos_site_id
 _symmetry_equiv_pos_as_xyz
  1  'x, y, z'
loop_
 _atom_site_type_symbol
 _atom_site_label
 _atom_site_symmetry_multiplicity
 _atom_site_fract_x
 _atom_site_fract_y
 _atom_site_fract_z
 _atom_site_occupancy
  Cs  Cs0  1  0.75000000  0.17595948  0.50000000  1
  Cs  Cs1  1  0.25000000  0.82404052  0.00000000  1
  Cs  Cs2  1  0.25000000  0.89453432  0.50000000  1
  Cs  Cs3  1  0.75000000  0.10546568  0.00000000  1
  Cs  Cs4  1  0.77021282  0.38927196  0.77312293  1
  Cs  Cs5  1  0.27021282  0.61072804  0.72687707  1
  Cs  Cs6  1  0.22978718  0.61072804  0.27312293  1
  Cs  Cs7  1  0.72978718  0.38927196  0.22687707  1
  Mg  Mg0  1  0.25000000  0.37005220  0.50000000  1
  Mg  Mg1  1  0.75000000  0.62994780  0.00000000  1
  W  W0  1  0.75000000  0.62755795  0.50000000  1
  W  W1  1  0.25000000  0.37244205  0.00000000  1
  W  W2  1  0.27431632  0.12066555  0.75120242  1
  W  W3  1  0.77431632  0.87933445  0.74879758  1
  W  W4  1  0.72568368  0.87933445  0.25120242  1
  W  W5  1  0.22568368  0.12066555  0.24879758  1
  N  N0  1  0.55688719  0.03191850  0.73716816  1
  N  N1  1  0.05688719  0.96808150  0.76283184  1
  N  N2  1  0.44311281  0.96808150  0.23716816  1
  N  N3  1  0.94311281  0.03191850  0.26283184  1
  N  N4  1  0.27015698  0.24672947  0.87233165  1
  N  N5  1  0.77015698  0.75327053  0.62766835  1
  N  N6  1  0.72984302  0.75327053  0.37233165  1
  N  N7  1  0.22984302  0.24672947  0.12766835  1
  N  N8  1  0.77282085  0.76564585  0.13415916  1
  N  N9  1  0.27282085  0.23435415  0.36584084  1
  N  N10  1  0.22717915  0.23435415  0.63415916  1
  N  N11  1  0.72717915  0.76564585  0.86584084  1
  N  N12  1  0.01246126  0.49122714  0.99069021  1
  N  N13  1  0.51246126  0.50877286  0.50930979  1
  N  N14  1  0.98753874  0.50877286  0.49069021  1
  N  N15  1  0.48753874  0.49122714  0.00930979  1
loop_
_geom_bond_atom_site_label_1
_geom_bond_atom_site_label_2
_geom_bond_distance
_geom_bond_site_symmetry_2
Cs0 N14 3.266021 1_555
Cs0 N13 3.266021 1_555
Cs0 N10 3.414710 1_655
Cs0 N9 3.414710 1_555
Cs0 N3 3.417182 1_555
Cs0 N0 3.417182 1_555
Cs1 N15 3.266021 1_555
Cs1 N12 3.266021 1_554
Cs1 N8 3.414710 1_455
Cs1 N11 3.414710 1_554
Cs1 N1 3.417182 1_554
Cs1 N2 3.417182 1_555
Cs2 N10 3.416526 1_565
Cs2 N9 3.416526 1_565
Cs2 N1 3.532069 1_555
Cs2 N2 3.532069 1_555
Cs2 N5 3.573096 1_455
Cs2 N6 3.573096 1_555
Cs2 N0 3.699683 1_565
Cs2 N3 3.699683 1_465
Cs2 N13 3.750230 1_555
Cs2 N14 3.750230 1_455
Cs2 N5 3.780725 1_555
Cs2 N6 3.780725 1_455
Cs3 N8 3.416526 1_545
Cs3 N11 3.416526 1_544
Cs3 N3 3.532069 1_555
Cs3 N0 3.532069 1_554
Cs3 N7 3.573096 1_655
Cs3 N4 3.573096 1_554
Cs3 N2 3.699683 1_545
Cs3 N1 3.699683 1_644
Cs3 N12 3.750230 1_654
Cs3 N15 3.750230 1_555
Cs3 N7 3.780725 1_555
Cs3 N4 3.780725 1_654
Cs4 N12 3.212094 1_655
Cs4 N0 3.426594 1_555
Cs4 N11 3.505263 1_555
Cs4 N15 3.524688 1_556
Cs4 N4 3.541988 1_655
Cs4 N4 3.542585 1_555
Cs4 N10 3.567977 1_655
Cs4 N5 3.667173 1_555
Cs4 N13 3.786957 1_555
Cs5 N13 3.212094 1_555
Cs5 N1 3.426594 1_555
Cs5 N10 3.505263 1_555
Cs5 N14 3.524688 1_455
Cs5 N5 3.541988 1_555
Cs5 N5 3.542585 1_455
Cs5 N11 3.567977 1_555
Cs5 N4 3.667173 1_555
Cs5 N12 3.786957 1_555
Cs6 N14 3.212094 1_455
Cs6 N2 3.426594 1_555
Cs6 N9 3.505263 1_555
Cs6 N13 3.524688 1_555
Cs6 N6 3.541988 1_455
Cs6 N6 3.542585 1_555
Cs6 N8 3.567977 1_455
Cs6 N7 3.667173 1_555
Cs6 N15 3.786957 1_555
Cs7 N15 3.212094 1_555
Cs7 N3 3.426594 1_555
Cs7 N8 3.505263 1_555
Cs7 N12 3.524688 1_654
Cs7 N7 3.541988 1_555
Cs7 N7 3.542585 1_655
Cs7 N9 3.567977 1_555
Cs7 N6 3.667173 1_555
Cs7 N14 3.786957 1_555
Mg0 N13 2.025328 1_555
Mg0 N14 2.025328 1_455
Mg0 N10 2.051736 1_555
Mg0 N9 2.051736 1_555
Mg1 N12 2.025328 1_654
Mg1 N15 2.025328 1_555
Mg1 N8 2.051736 1_555
Mg1 N11 2.051736 1_554
N0 W3 1.897754 1_545
N0 W2 1.913127 1_555
N1 W2 1.897754 1_565
N1 W3 1.913127 1_455
N2 W5 1.897754 1_565
N2 W4 1.913127 1_555
N3 W4 1.897754 1_545
N3 W5 1.913127 1_655
N4 W2 1.866538 1_555
N4 W1 1.934593 1_556
N5 W3 1.866538 1_555
N5 W0 1.934593 1_555
N6 W4 1.866538 1_555
N6 W0 1.934593 1_555
N7 W5 1.866538 1_555
N7 W1 1.934593 1_555
N8 W4 1.785873 1_555
N9 W5 1.785873 1_555
N10 W2 1.785873 1_555
N11 W3 1.785873 1_555
N12 W1 1.798690 1_556
N13 W0 1.798690 1_555
N14 W0 1.798690 1_555
N15 W1 1.798690 1_555
