# generated using pymatgen
data_MnZnBr18
_symmetry_space_group_name_H-M   'P 1'
_cell_length_a   8.87107919
_cell_length_b   8.87107748
_cell_length_c   8.87107824
_cell_angle_alpha   92.70024413
_cell_angle_beta   92.70024097
_cell_angle_gamma   92.70024562
_symmetry_Int_Tables_number   1
_chemical_formula_structural   MnZnBr18
_chemical_formula_sum   'Mn1 Zn1 Br18'
_cell_volume   695.71739729
_cell_formula_units_Z   1
loop_
 _symmetry_equiv_pos_site_id
 _symmetry_equiv_pos_as_xyz
  1  'x, y, z'
loop_
 _atom_site_type_symbol
 _atom_site_label
 _atom_site_symmetry_multiplicity
 _atom_site_fract_x
 _atom_site_fract_y
 _atom_site_fract_z
 _atom_site_occupancy
  Mn  Mn0  1  0.00000000  0.00000000  0.00000000  1
  Zn  Zn0  1  0.50000000  0.50000000  0.50000000  1
  Br  Br0  1  0.27532298  0.98724956  0.03874834  1
  Br  Br1  1  0.03874834  0.27532298  0.98724956  1
  Br  Br2  1  0.98724956  0.03874834  0.27532298  1
  Br  Br3  1  0.72467702  0.01275044  0.96125166  1
  Br  Br4  1  0.96125166  0.72467702  0.01275044  1
  Br  Br5  1  0.01275044  0.96125166  0.72467702  1
  Br  Br6  1  0.62855102  0.25864580  0.10308716  1
  Br  Br7  1  0.10308716  0.62855102  0.25864580  1
  Br  Br8  1  0.25864580  0.10308716  0.62855102  1
  Br  Br9  1  0.37144898  0.74135420  0.89691284  1
  Br  Br10  1  0.89691284  0.37144898  0.74135420  1
  Br  Br11  1  0.74135420  0.89691284  0.37144898  1
  Br  Br12  1  0.49031248  0.20858073  0.52304117  1
  Br  Br13  1  0.52304117  0.49031248  0.20858073  1
  Br  Br14  1  0.20858073  0.52304117  0.49031248  1
  Br  Br15  1  0.50968752  0.79141927  0.47695883  1
  Br  Br16  1  0.47695883  0.50968752  0.79141927  1
  Br  Br17  1  0.79141927  0.47695883  0.50968752  1
loop_
_geom_bond_atom_site_label_1
_geom_bond_atom_site_label_2
_geom_bond_distance
_geom_bond_site_symmetry_2
Br0 Mn0 2.459048 1_565
Br0 Br9 2.662028 1_554
Br1 Mn0 2.459047 1_556
Br1 Br10 2.662028 1_455
Br2 Mn0 2.459048 1_655
Br3 Mn0 2.459048 1_656
Br3 Br6 2.662028 1_556
Br4 Mn0 2.459047 1_665
Br4 Br7 2.662028 1_655
Br5 Mn0 2.459048 1_566
Br5 Br8 2.662028 1_565
Br10 Br17 2.461301 1_555
Br11 Br15 2.461301 1_555
Br11 Br2 2.662028 1_565
Br12 Br8 2.461301 1_555
Br12 Zn0 2.600567 1_555
Br13 Br6 2.461301 1_555
Br13 Zn0 2.600567 1_555
Br14 Br7 2.461301 1_555
Br14 Zn0 2.600568 1_555
Br15 Zn0 2.600567 1_555
Br16 Br9 2.461301 1_555
Br16 Zn0 2.600567 1_555
Br17 Zn0 2.600568 1_555
