# generated using pymatgen
data_Sr2CdRh2
_symmetry_space_group_name_H-M   'P 1'
_cell_length_a   5.88870502
_cell_length_b   5.88870504
_cell_length_c   5.88870378
_cell_angle_alpha   135.39251264
_cell_angle_beta   119.84322604
_cell_angle_gamma   77.90326707
_symmetry_Int_Tables_number   1
_chemical_formula_structural   Sr2CdRh2
_chemical_formula_sum   'Sr2 Cd1 Rh2'
_cell_volume   120.82221890
_cell_formula_units_Z   1
loop_
 _symmetry_equiv_pos_site_id
 _symmetry_equiv_pos_as_xyz
  1  'x, y, z'
loop_
 _atom_site_type_symbol
 _atom_site_label
 _atom_site_symmetry_multiplicity
 _atom_site_fract_x
 _atom_site_fract_y
 _atom_site_fract_z
 _atom_site_occupancy
  Sr  Sr0  1  0.29683223  0.79683223  0.50000000  1
  Sr  Sr1  1  0.70316777  0.20316777  0.50000000  1
  Cd  Cd0  1  0.00000000  0.00000000  0.00000000  1
  Rh  Rh0  1  0.72138161  0.50000000  0.22138161  1
  Rh  Rh1  1  0.27861839  0.50000000  0.77861839  1
loop_
_geom_bond_atom_site_label_1
_geom_bond_atom_site_label_2
_geom_bond_distance
_geom_bond_site_symmetry_2
Sr0 Sr1 3.721635 1_565
Sr0 Sr1 3.800115 1_566
Sr0 Sr1 3.800116 1_454
Sr0 Sr1 3.800116 1_465
Sr0 Sr1 3.800116 1_555
Cd0 Rh1 2.774756 1_555
Cd0 Rh0 2.774756 1_444
Cd0 Rh1 2.774757 1_544
Cd0 Rh0 2.774757 1_455
Cd0 Sr0 3.488978 1_545
Cd0 Sr1 3.488978 1_454
Cd0 Sr1 3.488979 1_555
Cd0 Sr0 3.488979 1_444
Cd0 Sr0 3.519359 1_544
Cd0 Sr1 3.519359 1_455
Cd0 Sr0 3.519360 1_555
Cd0 Sr1 3.519360 1_444
Rh0 Rh1 2.613478 1_554
Rh0 Sr1 3.177413 1_555
Rh0 Sr0 3.177414 1_655
Rh0 Sr1 3.188230 1_554
Rh0 Sr0 3.188230 1_555
Rh0 Sr0 3.188231 1_544
Rh0 Sr1 3.188231 1_565
Rh0 Rh1 3.289175 1_655
Rh1 Sr0 3.177413 1_555
Rh1 Sr1 3.177414 1_455
Rh1 Sr0 3.188230 1_556
Rh1 Sr1 3.188230 1_555
Rh1 Sr1 3.188231 1_566
Rh1 Sr0 3.188231 1_545
