# generated using pymatgen
data_LuBeBOs
_symmetry_space_group_name_H-M   'P 1'
_cell_length_a   5.34778139
_cell_length_b   5.99104030
_cell_length_c   6.36139740
_cell_angle_alpha   90.00000000
_cell_angle_beta   90.00000000
_cell_angle_gamma   90.00000000
_symmetry_Int_Tables_number   1
_chemical_formula_structural   LuBeBOs
_chemical_formula_sum   'Lu4 Be4 B4 Os4'
_cell_volume   203.81137250
_cell_formula_units_Z   4
loop_
 _symmetry_equiv_pos_site_id
 _symmetry_equiv_pos_as_xyz
  1  'x, y, z'
loop_
 _atom_site_type_symbol
 _atom_site_label
 _atom_site_symmetry_multiplicity
 _atom_site_fract_x
 _atom_site_fract_y
 _atom_site_fract_z
 _atom_site_occupancy
  Lu  Lu0  1  0.25719136  0.00363534  0.34712081  1
  Lu  Lu1  1  0.24280864  0.50363534  0.15287919  1
  Lu  Lu2  1  0.75719136  0.99636466  0.65287919  1
  Lu  Lu3  1  0.74280864  0.49636466  0.84712081  1
  Be  Be0  1  0.06269306  0.36119418  0.54162136  1
  Be  Be1  1  0.43730694  0.86119418  0.95837864  1
  Be  Be2  1  0.56269306  0.63880582  0.45837864  1
  Be  Be3  1  0.93730694  0.13880582  0.04162136  1
  B  B0  1  0.93486530  0.64657871  0.44945134  1
  B  B1  1  0.56513470  0.14657871  0.05054866  1
  B  B2  1  0.43486530  0.35342129  0.55054866  1
  B  B3  1  0.06513470  0.85342129  0.94945134  1
  Os  Os0  1  0.26556319  0.17594632  0.81199002  1
  Os  Os1  1  0.23443681  0.67594632  0.68800998  1
  Os  Os2  1  0.76556319  0.82405368  0.18800998  1
  Os  Os3  1  0.73443681  0.32405368  0.31199002  1
loop_
_geom_bond_atom_site_label_1
_geom_bond_atom_site_label_2
_geom_bond_distance
_geom_bond_site_symmetry_2
Lu0 Os1 2.927710 1_545
Lu0 Os2 3.015671 1_445
Lu0 Os2 3.094046 1_545
Lu0 Os0 3.132544 1_555
Lu1 Os0 2.927710 1_554
Lu1 Os3 3.015671 1_555
Lu1 Os3 3.094046 1_455
Lu1 Os1 3.132544 1_554
Lu2 Os3 2.927710 1_565
Lu2 Os0 3.015671 1_565
Lu2 Os0 3.094046 1_665
Lu2 Os2 3.132544 1_555
Lu3 Os2 2.927710 1_556
Lu3 Os1 3.015671 1_655
Lu3 Os1 3.094046 1_555
Lu3 Os3 3.132544 1_556
Be0 Os3 2.294549 1_455
Be0 Os1 2.294904 1_555
Be0 Os0 2.316650 1_555
Be0 Lu0 2.683577 1_555
Be0 Lu3 2.712750 1_455
Be0 Lu1 2.787738 1_555
Be0 Lu2 2.819113 1_445
Be1 Os2 2.294549 1_556
Be1 Os0 2.294904 1_565
Be1 Os1 2.316650 1_555
Be1 Lu1 2.683577 1_556
Be1 Lu2 2.712750 1_555
Be1 Lu0 2.787738 1_566
Be1 Lu3 2.819113 1_555
Be2 Os1 2.294549 1_555
Be2 Os3 2.294904 1_555
Be2 Os2 2.316650 1_555
Be2 Lu2 2.683577 1_555
Be2 Lu1 2.712750 1_555
Be2 Lu3 2.787738 1_555
Be2 Lu0 2.819113 1_565
Be3 Os0 2.294549 1_654
Be3 Os2 2.294904 1_545
Be3 Os3 2.316650 1_555
Be3 Lu3 2.683577 1_554
Be3 Lu0 2.712750 1_655
Be3 Lu2 2.787738 1_544
Be3 Lu1 2.819113 1_655
B0 Be0 1.932442 1_655
B0 Be2 1.991650 1_555
B0 Os2 2.171696 1_555
B0 Os1 2.213708 1_655
B0 Os3 2.376372 1_555
B0 Lu2 2.639872 1_555
B0 Lu1 2.646638 1_655
B0 Lu0 2.823282 1_665
B0 Lu3 2.874774 1_555
B1 Be1 1.932442 1_544
B1 Be3 1.991650 1_555
B1 Os3 2.171696 1_555
B1 Os0 2.213708 1_554
B1 Os2 2.376372 1_545
B1 Lu3 2.639872 1_554
B1 Lu0 2.646638 1_555
B1 Lu1 2.823282 1_555
B1 Lu2 2.874774 1_544
B2 Be2 1.932442 1_555
B2 Be0 1.991650 1_555
B2 Os0 2.171696 1_555
B2 Os3 2.213708 1_555
B2 Os1 2.376372 1_555
B2 Lu0 2.639872 1_555
B2 Lu3 2.646638 1_555
B2 Lu2 2.823282 1_545
B2 Lu1 2.874774 1_555
B3 Be3 1.932442 1_466
B3 Be1 1.991650 1_555
B3 Os1 2.171696 1_555
B3 Os2 2.213708 1_456
B3 Os0 2.376372 1_565
B3 Lu1 2.639872 1_556
B3 Lu2 2.646638 1_455
B3 Lu3 2.823282 1_455
B3 Lu0 2.874774 1_566
