# generated using pymatgen
data_ZrZn2Cu2Rh
_symmetry_space_group_name_H-M   'P 1'
_cell_length_a   4.87809601
_cell_length_b   4.89215247
_cell_length_c   4.89215279
_cell_angle_alpha   60.62297000
_cell_angle_beta   60.09500939
_cell_angle_gamma   60.09500073
_symmetry_Int_Tables_number   1
_chemical_formula_structural   ZrZn2Cu2Rh
_chemical_formula_sum   'Zr1 Zn2 Cu2 Rh1'
_cell_volume   83.05513455
_cell_formula_units_Z   1
loop_
 _symmetry_equiv_pos_site_id
 _symmetry_equiv_pos_as_xyz
  1  'x, y, z'
loop_
 _atom_site_type_symbol
 _atom_site_label
 _atom_site_symmetry_multiplicity
 _atom_site_fract_x
 _atom_site_fract_y
 _atom_site_fract_z
 _atom_site_occupancy
  Zr  Zr0  1  0.00093638  0.99906362  0.99906362  1
  Zn  Zn0  1  0.62266705  0.62406698  0.13059691  1
  Zn  Zn1  1  0.62266705  0.13059691  0.62406698  1
  Cu  Cu0  1  0.12421213  0.62569359  0.62569359  1
  Cu  Cu1  1  0.62439968  0.62569359  0.62569359  1
  Rh  Rh0  1  0.25511570  0.24488430  0.24488430  1
loop_
_geom_bond_atom_site_label_1
_geom_bond_atom_site_label_2
_geom_bond_distance
_geom_bond_site_symmetry_2
Zn0 Zn1 2.436827 1_555
Zn0 Zn1 2.501319 1_564
Zn0 Zr0 2.866658 1_554
Zn0 Zr0 2.866666 1_654
Zn0 Zr0 2.878981 1_644
Zn1 Zr0 2.866658 1_545
Zn1 Zr0 2.866666 1_645
Zn1 Zr0 2.878982 1_644
Cu0 Zn1 2.430231 1_555
Cu0 Zn0 2.430232 1_555
Cu0 Cu1 2.438133 1_455
Cu0 Cu1 2.439963 1_555
Cu0 Zn1 2.461977 1_465
Cu0 Zn0 2.461977 1_456
Cu0 Zr0 2.849086 1_555
Cu0 Rh0 2.874060 1_565
Cu0 Rh0 2.874060 1_556
Cu0 Zr0 2.888760 1_545
Cu0 Zr0 2.888760 1_554
Cu0 Rh0 2.895140 1_555
Cu1 Zn1 2.430234 1_555
Cu1 Zn0 2.430234 1_555
Cu1 Zn1 2.461974 1_565
Cu1 Zn0 2.461974 1_556
Cu1 Zr0 2.849084 1_555
Cu1 Rh0 2.874057 1_565
Cu1 Rh0 2.874058 1_556
Cu1 Zr0 2.888762 1_645
Cu1 Zr0 2.888762 1_654
Cu1 Rh0 2.895142 1_655
Rh0 Zn0 2.826324 1_545
Rh0 Zn1 2.826325 1_554
Rh0 Zn1 2.875349 1_555
Rh0 Zn0 2.875349 1_555
Rh0 Zn0 2.875357 1_455
Rh0 Zn1 2.875357 1_455
Rh0 Zr0 2.970251 1_544
Rh0 Zr0 2.970251 1_644
Rh0 Zr0 3.027951 1_554
Rh0 Zr0 3.027951 1_545
