# generated using pymatgen
data_NbAg2AsF12
_symmetry_space_group_name_H-M   'P 1'
_cell_length_a   5.25700962
_cell_length_b   5.86321726
_cell_length_c   7.88777276
_cell_angle_alpha   100.03506440
_cell_angle_beta   89.96824078
_cell_angle_gamma   90.43606137
_symmetry_Int_Tables_number   1
_chemical_formula_structural   NbAg2AsF12
_chemical_formula_sum   'Nb1 Ag2 As1 F12'
_cell_volume   239.39823755
_cell_formula_units_Z   1
loop_
 _symmetry_equiv_pos_site_id
 _symmetry_equiv_pos_as_xyz
  1  'x, y, z'
loop_
 _atom_site_type_symbol
 _atom_site_label
 _atom_site_symmetry_multiplicity
 _atom_site_fract_x
 _atom_site_fract_y
 _atom_site_fract_z
 _atom_site_occupancy
  Nb  Nb0  1  0.00000000  0.00000000  0.50000000  1
  Ag  Ag0  1  0.00000000  0.00000000  0.00000000  1
  Ag  Ag1  1  0.50000000  0.50000000  0.50000000  1
  As  As0  1  0.50000000  0.50000000  0.00000000  1
  F  F0  1  0.83907120  0.99301214  0.71937037  1
  F  F1  1  0.12799857  0.30911221  0.58316278  1
  F  F2  1  0.23533077  0.63090526  0.92429637  1
  F  F3  1  0.34635065  0.50029906  0.19710486  1
  F  F4  1  0.36985930  0.22664633  0.92093990  1
  F  F5  1  0.30306643  0.86858089  0.58166382  1
  F  F6  1  0.69693357  0.13141911  0.41833618  1
  F  F7  1  0.63014070  0.77335367  0.07906010  1
  F  F8  1  0.65364935  0.49970094  0.80289514  1
  F  F9  1  0.76466923  0.36909474  0.07570363  1
  F  F10  1  0.87200143  0.69088779  0.41683722  1
  F  F11  1  0.16092880  0.00698786  0.28062963  1
loop_
_geom_bond_atom_site_label_1
_geom_bond_atom_site_label_2
_geom_bond_distance
_geom_bond_site_symmetry_2
Ag0 F11 2.363708 1_555
Ag0 F0 2.363708 1_444
Ag0 F9 2.481917 1_455
Ag0 F2 2.481917 1_544
Ag0 F4 2.486653 1_554
Ag0 F7 2.486653 1_445
Ag1 F5 2.388544 1_555
Ag1 F6 2.388544 1_555
Ag1 F10 2.393427 1_555
Ag1 F1 2.393427 1_555
Ag1 F8 2.522734 1_555
Ag1 F3 2.522734 1_555
As0 F9 1.748848 1_555
As0 F2 1.748848 1_554
As0 F7 1.749618 1_555
As0 F4 1.749618 1_554
As0 F3 1.751362 1_555
As0 F8 1.751362 1_554
F0 Nb0 1.932368 1_665
F1 Nb0 1.932729 1_555
F5 Nb0 1.933860 1_565
F6 Nb0 1.933860 1_655
F10 Nb0 1.932729 1_665
F11 Nb0 1.932368 1_555
