# generated using pymatgen
data_Cs2Ca(TaBr3)6
_symmetry_space_group_name_H-M   'P 1'
_cell_length_a   10.79403235
_cell_length_b   10.79403317
_cell_length_c   10.79403213
_cell_angle_alpha   55.20633150
_cell_angle_beta   55.20632803
_cell_angle_gamma   55.20633236
_symmetry_Int_Tables_number   1
_chemical_formula_structural   Cs2Ca(TaBr3)6
_chemical_formula_sum   'Cs2 Ca1 Ta6 Br18'
_cell_volume   790.17514177
_cell_formula_units_Z   1
loop_
 _symmetry_equiv_pos_site_id
 _symmetry_equiv_pos_as_xyz
  1  'x, y, z'
loop_
 _atom_site_type_symbol
 _atom_site_label
 _atom_site_symmetry_multiplicity
 _atom_site_fract_x
 _atom_site_fract_y
 _atom_site_fract_z
 _atom_site_occupancy
  Cs  Cs0  1  0.27587827  0.27587827  0.27587827  1
  Cs  Cs1  1  0.72412173  0.72412173  0.72412173  1
  Ca  Ca0  1  0.00000000  0.00000000  0.00000000  1
  Ta  Ta0  1  0.41909318  0.31040710  0.64042139  1
  Ta  Ta1  1  0.35957861  0.58090682  0.68959290  1
  Ta  Ta2  1  0.68959290  0.35957861  0.58090682  1
  Ta  Ta3  1  0.64042139  0.41909318  0.31040710  1
  Ta  Ta4  1  0.58090682  0.68959290  0.35957861  1
  Ta  Ta5  1  0.31040710  0.64042139  0.41909318  1
  Br  Br0  1  0.63339836  0.09126218  0.77777458  1
  Br  Br1  1  0.77777458  0.63339836  0.09126218  1
  Br  Br2  1  0.09126218  0.77777458  0.63339836  1
  Br  Br3  1  0.83194135  0.31191243  0.04119013  1
  Br  Br4  1  0.16269464  0.43823175  0.57468076  1
  Br  Br5  1  0.68808757  0.95880987  0.16805865  1
  Br  Br6  1  0.90873782  0.22222542  0.36660164  1
  Br  Br7  1  0.56176825  0.42531924  0.83730536  1
  Br  Br8  1  0.42531924  0.83730536  0.56176825  1
  Br  Br9  1  0.95880987  0.16805865  0.68808757  1
  Br  Br10  1  0.16805865  0.68808757  0.95880987  1
  Br  Br11  1  0.04119013  0.83194135  0.31191243  1
  Br  Br12  1  0.31191243  0.04119013  0.83194135  1
  Br  Br13  1  0.22222542  0.36660164  0.90873782  1
  Br  Br14  1  0.57468076  0.16269464  0.43823175  1
  Br  Br15  1  0.43823175  0.57468076  0.16269464  1
  Br  Br16  1  0.36660164  0.90873782  0.22222542  1
  Br  Br17  1  0.83730536  0.56176825  0.42531924  1
loop_
_geom_bond_atom_site_label_1
_geom_bond_atom_site_label_2
_geom_bond_distance
_geom_bond_site_symmetry_2
Br0 Ta2 2.604176 1_555
Br0 Ta0 2.609861 1_555
Br0 Cs1 3.813426 1_545
Br1 Ta4 2.604176 1_555
Br1 Ta3 2.609860 1_555
Br1 Cs1 3.813425 1_554
Br2 Ta1 2.604176 1_555
Br2 Ta5 2.609860 1_555
Br2 Cs1 3.813425 1_455
Br3 Ta3 2.882353 1_555
Br3 Ca0 2.939633 1_655
Br3 Cs1 3.757934 1_554
Br4 Ta0 2.613947 1_555
Br4 Ta5 2.618784 1_555
Br4 Cs0 3.804772 1_555
Br4 Cs1 3.850891 1_455
Br5 Ta4 2.882353 1_555
Br5 Ca0 2.939633 1_665
Br5 Cs0 3.757933 1_565
Br6 Ta3 2.604176 1_555
Br6 Ta2 2.609860 1_555
Br6 Cs0 3.813425 1_655
Br7 Ta2 2.613947 1_555
Br7 Ta1 2.618784 1_555
Br7 Cs1 3.804772 1_555
Br7 Cs0 3.850891 1_556
Br8 Ta1 2.613947 1_555
Br8 Ta4 2.618784 1_555
Br8 Cs1 3.804772 1_555
Br8 Cs0 3.850891 1_565
Br9 Ta2 2.882353 1_555
Br9 Ca0 2.939633 1_656
Br9 Cs0 3.757933 1_655
Br10 Ta1 2.882353 1_555
Br10 Ca0 2.939633 1_566
Br10 Cs0 3.757934 1_556
Br11 Ta5 2.882353 1_555
Br11 Ca0 2.939633 1_565
Br11 Cs1 3.757933 1_455
Br12 Ta0 2.882353 1_555
Br12 Ca0 2.939633 1_556
Br12 Cs1 3.757933 1_545
Br13 Ta0 2.604176 1_555
Br13 Ta1 2.609860 1_555
Br13 Cs0 3.813425 1_556
Br14 Ta3 2.613947 1_555
Br14 Ta0 2.618784 1_555
Br14 Cs0 3.804772 1_555
Br14 Cs1 3.850891 1_545
Br15 Ta5 2.613947 1_555
Br15 Ta3 2.618784 1_555
Br15 Cs0 3.804772 1_555
Br15 Cs1 3.850891 1_554
Br16 Ta5 2.604176 1_555
Br16 Ta4 2.609861 1_555
Br16 Cs0 3.813426 1_565
Br17 Ta4 2.613947 1_555
Br17 Ta2 2.618784 1_555
Br17 Cs1 3.804772 1_555
Br17 Cs0 3.850891 1_655
