# generated using pymatgen
data_SnPd3(SeO3)8
_symmetry_space_group_name_H-M   'P 1'
_cell_length_a   7.97348071
_cell_length_b   7.97348071
_cell_length_c   7.97348071
_cell_angle_alpha   90.23798542
_cell_angle_beta   89.76201458
_cell_angle_gamma   90.23798542
_symmetry_Int_Tables_number   1
_chemical_formula_structural   SnPd3(SeO3)8
_chemical_formula_sum   'Sn1 Pd3 Se8 O24'
_cell_volume   506.91207441
_cell_formula_units_Z   1
loop_
 _symmetry_equiv_pos_site_id
 _symmetry_equiv_pos_as_xyz
  1  'x, y, z'
loop_
 _atom_site_type_symbol
 _atom_site_label
 _atom_site_symmetry_multiplicity
 _atom_site_fract_x
 _atom_site_fract_y
 _atom_site_fract_z
 _atom_site_occupancy
  Sn  Sn0  1  0.00000000  0.50000000  0.50000000  1
  Pd  Pd0  1  0.50000000  0.50000000  0.00000000  1
  Pd  Pd1  1  0.50000000  0.00000000  0.50000000  1
  Pd  Pd2  1  0.00000000  0.00000000  0.00000000  1
  Se  Se0  1  0.83018936  0.14868058  0.67211114  1
  Se  Se1  1  0.16981064  0.85131942  0.32788886  1
  Se  Se2  1  0.64868058  0.67211114  0.66981064  1
  Se  Se3  1  0.17211114  0.66981064  0.85131942  1
  Se  Se4  1  0.33347804  0.16652196  0.83347804  1
  Se  Se5  1  0.82788886  0.33018936  0.14868058  1
  Se  Se6  1  0.66652196  0.83347804  0.16652196  1
  Se  Se7  1  0.35131942  0.32788886  0.33018936  1
  O  O0  1  0.25184802  0.46300663  0.46416881  1
  O  O1  1  0.97109194  0.24728528  0.00697944  1
  O  O2  1  0.03583119  0.75184802  0.46300663  1
  O  O3  1  0.47505574  0.25280034  0.97370371  1
  O  O4  1  0.25271472  0.99302056  0.47109194  1
  O  O5  1  0.50697944  0.52890806  0.75271472  1
  O  O6  1  0.97510676  0.00963899  0.75259696  1
  O  O7  1  0.52494426  0.74719966  0.02629629  1
  O  O8  1  0.52629629  0.97505574  0.25280034  1
  O  O9  1  0.47370371  0.02494426  0.74719966  1
  O  O10  1  0.75280034  0.97370371  0.02494426  1
  O  O11  1  0.25259696  0.52489324  0.99036101  1
  O  O12  1  0.03699337  0.53583119  0.75184802  1
  O  O13  1  0.02489324  0.99036101  0.24740304  1
  O  O14  1  0.24719966  0.02629629  0.97505574  1
  O  O15  1  0.49302056  0.47109194  0.24728528  1
  O  O16  1  0.74815198  0.53699337  0.53583119  1
  O  O17  1  0.96300663  0.46416881  0.24815198  1
  O  O18  1  0.02890806  0.75271472  0.99302056  1
  O  O19  1  0.49036101  0.24740304  0.47510676  1
  O  O20  1  0.50963899  0.75259696  0.52489324  1
  O  O21  1  0.96416881  0.24815198  0.53699337  1
  O  O22  1  0.74728528  0.00697944  0.52890806  1
  O  O23  1  0.74740304  0.47510676  0.00963899  1
loop_
_geom_bond_atom_site_label_1
_geom_bond_atom_site_label_2
_geom_bond_distance
_geom_bond_site_symmetry_2
O0 Se7 1.709236 1_555
O0 Sn0 2.049529 1_555
O1 Se5 1.733969 1_555
O1 Pd2 1.986625 1_655
O2 Se1 1.709236 1_555
O2 Sn0 2.049529 1_555
O3 Se4 1.730712 1_555
O3 Pd0 1.990523 1_556
O4 Se1 1.733969 1_555
O4 Pd1 1.986625 1_565
O5 Se2 1.733969 1_555
O5 Pd0 1.986625 1_556
O6 Se0 1.731711 1_555
O6 Pd2 1.985282 1_656
O7 Se6 1.730712 1_555
O7 Pd0 1.990523 1_555
O8 Se6 1.730712 1_555
O8 Pd1 1.990523 1_565
O9 Se4 1.730712 1_555
O9 Pd1 1.990523 1_555
O10 Se6 1.730712 1_555
O10 Pd2 1.990523 1_665
O11 Se3 1.731711 1_555
O11 Pd0 1.985282 1_556
O12 Se3 1.709236 1_555
O12 Sn0 2.049529 1_555
O13 Se1 1.731711 1_555
O13 Pd2 1.985282 1_565
O14 Se4 1.730712 1_555
O14 Pd2 1.990523 1_556
O15 Se7 1.733969 1_555
O15 Pd0 1.986625 1_555
O16 Se2 1.709236 1_555
O16 Sn0 2.049529 1_655
O17 Se5 1.709236 1_555
O17 Sn0 2.049529 1_655
O18 Se3 1.733969 1_555
O18 Pd2 1.986625 1_566
O19 Se7 1.731711 1_555
O19 Pd1 1.985282 1_555
O20 Se2 1.731711 1_555
O20 Pd1 1.985282 1_565
O21 Se0 1.709236 1_555
O21 Sn0 2.049529 1_655
O22 Se0 1.733969 1_555
O22 Pd1 1.986625 1_555
O23 Se5 1.731711 1_555
O23 Pd0 1.985282 1_555
