# generated using pymatgen
data_Zr10InBi5B2
_symmetry_space_group_name_H-M   'P 1'
_cell_length_a   8.67947367
_cell_length_b   8.64574231
_cell_length_c   5.86486910
_cell_angle_alpha   90.00000000
_cell_angle_beta   90.00000000
_cell_angle_gamma   119.87152683
_symmetry_Int_Tables_number   1
_chemical_formula_structural   Zr10InBi5B2
_chemical_formula_sum   'Zr10 In1 Bi5 B2'
_cell_volume   381.63254748
_cell_formula_units_Z   1
loop_
 _symmetry_equiv_pos_site_id
 _symmetry_equiv_pos_as_xyz
  1  'x, y, z'
loop_
 _atom_site_type_symbol
 _atom_site_label
 _atom_site_symmetry_multiplicity
 _atom_site_fract_x
 _atom_site_fract_y
 _atom_site_fract_z
 _atom_site_occupancy
  Zr  Zr0  1  0.66672040  0.33358425  0.00145400  1
  Zr  Zr1  1  0.33327960  0.66686585  0.00145400  1
  Zr  Zr2  1  0.33327960  0.66686585  0.49854600  1
  Zr  Zr3  1  0.66672040  0.33358425  0.49854600  1
  Zr  Zr4  1  0.77461566  0.77223153  0.75000000  1
  Zr  Zr5  1  0.22538434  0.99761588  0.75000000  1
  Zr  Zr6  1  1.00000000  0.22564794  0.75000000  1
  Zr  Zr7  1  0.22388191  0.22987510  0.25000000  1
  Zr  Zr8  1  0.77611809  0.00599319  0.25000000  1
  Zr  Zr9  1  0.00000000  0.76983966  0.25000000  1
  In  In0  1  0.00000000  0.40183684  0.25000000  1
  Bi  Bi0  1  0.39740745  0.39800394  0.75000000  1
  Bi  Bi1  1  0.60259255  0.00059649  0.75000000  1
  Bi  Bi2  1  1.00000000  0.59328134  0.75000000  1
  Bi  Bi3  1  0.60297887  0.60406752  0.25000000  1
  Bi  Bi4  1  0.39702113  0.00108865  0.25000000  1
  B  B0  1  1.00000000  0.99951237  0.00097337  1
  B  B1  1  1.00000000  0.99951237  0.49902663  1
loop_
_geom_bond_atom_site_label_1
_geom_bond_atom_site_label_2
_geom_bond_distance
_geom_bond_site_symmetry_2
In0 Zr8 2.977262 1_455
In0 Zr7 2.977262 1_555
In0 Zr3 3.023311 1_455
In0 Zr0 3.023311 1_455
In0 Zr2 3.023316 1_555
In0 Zr1 3.023316 1_555
In0 Zr9 3.181658 1_555
In0 Zr6 3.304477 1_454
In0 Zr6 3.304477 1_455
Bi0 Zr6 2.999692 1_455
Bi0 Zr5 3.010629 1_545
Bi0 Zr1 3.029325 1_556
Bi0 Zr2 3.029325 1_555
Bi0 Zr0 3.040687 1_556
Bi0 Zr3 3.040687 1_555
Bi0 Zr4 3.261210 1_555
Bi0 Zr7 3.286292 1_555
Bi0 Zr7 3.286292 1_556
Bi1 Zr6 2.999692 1_555
Bi1 Zr4 3.010630 1_545
Bi1 Zr0 3.029310 1_556
Bi1 Zr3 3.029310 1_555
Bi1 Zr1 3.040677 1_546
Bi1 Zr2 3.040677 1_545
Bi1 Zr5 3.261211 1_545
Bi1 Zr8 3.286292 1_556
Bi1 Zr8 3.286292 1_555
Bi2 Zr1 3.018960 1_656
Bi2 Zr2 3.018960 1_655
Bi2 Zr0 3.018965 1_556
Bi2 Zr3 3.018965 1_555
Bi2 Zr5 3.038963 1_655
Bi2 Zr4 3.038963 1_555
Bi2 Zr6 3.178464 1_555
Bi2 Zr9 3.305950 1_655
Bi2 Zr9 3.305950 1_656
Bi2 In0 3.367312 1_655
Bi2 In0 3.367312 1_656
Bi3 Zr9 3.001499 1_655
Bi3 Zr8 3.021890 1_565
Bi3 Zr2 3.027409 1_555
Bi3 Zr1 3.027409 1_555
Bi3 Zr3 3.031237 1_555
Bi3 Zr0 3.031237 1_555
Bi3 Zr7 3.269449 1_555
Bi3 Zr4 3.282495 1_555
Bi3 Zr4 3.282495 1_554
Bi4 Zr9 3.001498 1_545
Bi4 Zr7 3.021890 1_555
Bi4 Zr3 3.027399 1_555
Bi4 Zr0 3.027399 1_555
Bi4 Zr2 3.031222 1_545
Bi4 Zr1 3.031222 1_545
Bi4 Zr8 3.269450 1_555
Bi4 Zr5 3.282495 1_544
Bi4 Zr5 3.282495 1_545
B0 Zr6 2.447248 1_564
B0 Zr7 2.453695 1_665
B0 Zr8 2.453695 1_565
B0 Zr4 2.454704 1_554
B0 Zr5 2.454704 1_654
B0 Zr9 2.464965 1_655
B1 Zr6 2.447248 1_565
B1 Zr7 2.453695 1_665
B1 Zr8 2.453695 1_565
B1 Zr4 2.454704 1_555
B1 Zr5 2.454704 1_655
B1 Zr9 2.464965 1_655
