# generated using pymatgen
data_Sb12PdRu2Pt
_symmetry_space_group_name_H-M   'P 1'
_cell_length_a   8.09894349
_cell_length_b   8.10430206
_cell_length_c   9.36523225
_cell_angle_alpha   54.83766008
_cell_angle_beta   54.71893122
_cell_angle_gamma   70.56931893
_symmetry_Int_Tables_number   1
_chemical_formula_structural   Sb12PdRu2Pt
_chemical_formula_sum   'Sb12 Pd1 Ru2 Pt1'
_cell_volume   410.23035096
_cell_formula_units_Z   1
loop_
 _symmetry_equiv_pos_site_id
 _symmetry_equiv_pos_as_xyz
  1  'x, y, z'
loop_
 _atom_site_type_symbol
 _atom_site_label
 _atom_site_symmetry_multiplicity
 _atom_site_fract_x
 _atom_site_fract_y
 _atom_site_fract_z
 _atom_site_occupancy
  Sb  Sb0  1  0.15545102  0.15584510  0.17614408  1
  Sb  Sb1  1  0.84454898  0.84415490  0.82385592  1
  Sb  Sb2  1  0.84778178  0.84802191  0.49976346  1
  Sb  Sb3  1  0.15221822  0.15197809  0.50023654  1
  Sb  Sb4  1  0.81373248  0.50616296  0.33534370  1
  Sb  Sb5  1  0.18626752  0.49383704  0.66465630  1
  Sb  Sb6  1  0.50450873  0.81345288  0.33603061  1
  Sb  Sb7  1  0.49549127  0.18654712  0.66396939  1
  Sb  Sb8  1  0.65557570  0.33560268  0.85080399  1
  Sb  Sb9  1  0.34442430  0.66439732  0.14919601  1
  Sb  Sb10  1  0.66355014  0.34489427  0.14953705  1
  Sb  Sb11  1  0.33644986  0.65510573  0.85046295  1
  Pd  Pd0  1  0.50000000  0.00000000  0.50000000  1
  Ru  Ru0  1  0.00000000  0.50000000  0.00000000  1
  Ru  Ru1  1  0.50000000  0.00000000  0.00000000  1
  Pt  Pt0  1  0.00000000  0.50000000  0.50000000  1
loop_
_geom_bond_atom_site_label_1
_geom_bond_atom_site_label_2
_geom_bond_distance
_geom_bond_site_symmetry_2
Sb0 Sb2 2.884706 1_445
Sb0 Sb3 3.002216 1_555
Sb1 Sb3 2.884706 1_665
Sb1 Sb2 3.002216 1_555
Sb4 Sb6 2.885169 1_555
Sb4 Sb7 2.986817 1_555
Sb5 Sb7 2.885169 1_555
Sb5 Sb6 2.986817 1_555
Sb10 Sb8 2.879515 1_554
Sb10 Sb9 2.988671 1_555
Sb11 Sb9 2.879515 1_556
Sb11 Sb8 2.988671 1_555
Pd0 Sb2 2.671775 1_545
Pd0 Sb3 2.671775 1_555
Pd0 Sb10 2.685973 1_555
Pd0 Sb11 2.685973 1_545
Pd0 Sb7 2.686551 1_555
Pd0 Sb6 2.686551 1_545
Ru0 Sb4 2.607498 1_455
Ru0 Sb5 2.607498 1_554
Ru0 Sb11 2.609497 1_554
Ru0 Sb10 2.609497 1_455
Ru0 Sb0 2.617062 1_555
Ru0 Sb1 2.617062 1_454
Ru1 Sb8 2.608942 1_554
Ru1 Sb9 2.608942 1_545
Ru1 Sb7 2.608966 1_554
Ru1 Sb6 2.608966 1_545
Ru1 Sb0 2.615445 1_555
Ru1 Sb1 2.615445 1_544
Pt0 Sb2 2.675337 1_455
Pt0 Sb3 2.675337 1_555
Pt0 Sb8 2.682245 1_455
Pt0 Sb9 2.682245 1_555
Pt0 Sb4 2.684139 1_455
Pt0 Sb5 2.684139 1_555
