# generated using pymatgen
data_MgAlVPt9
_symmetry_space_group_name_H-M   'P 1'
_cell_length_a   3.90163404
_cell_length_b   3.90163404
_cell_length_c   11.70939336
_cell_angle_alpha   90.00000000
_cell_angle_beta   90.00000000
_cell_angle_gamma   90.00000000
_symmetry_Int_Tables_number   1
_chemical_formula_structural   MgAlVPt9
_chemical_formula_sum   'Mg1 Al1 V1 Pt9'
_cell_volume   178.24914626
_cell_formula_units_Z   1
loop_
 _symmetry_equiv_pos_site_id
 _symmetry_equiv_pos_as_xyz
  1  'x, y, z'
loop_
 _atom_site_type_symbol
 _atom_site_label
 _atom_site_symmetry_multiplicity
 _atom_site_fract_x
 _atom_site_fract_y
 _atom_site_fract_z
 _atom_site_occupancy
  Mg  Mg0  1  0.00000000  0.00000000  0.33526249  1
  Al  Al0  1  0.00000000  0.00000000  0.66067303  1
  V  V0  1  0.00000000  0.00000000  0.00017742  1
  Pt  Pt0  1  0.50000000  0.50000000  0.99853008  1
  Pt  Pt1  1  0.50000000  0.50000000  0.33416860  1
  Pt  Pt2  1  0.50000000  0.50000000  0.66936647  1
  Pt  Pt3  1  0.50000000  0.00000000  0.16228153  1
  Pt  Pt4  1  0.50000000  0.00000000  0.50402831  1
  Pt  Pt5  1  0.50000000  0.00000000  0.83460061  1
  Pt  Pt6  1  0.00000000  0.50000000  0.16228153  1
  Pt  Pt7  1  0.00000000  0.50000000  0.50402831  1
  Pt  Pt8  1  0.00000000  0.50000000  0.83460061  1
loop_
_geom_bond_atom_site_label_1
_geom_bond_atom_site_label_2
_geom_bond_distance
_geom_bond_site_symmetry_2
Mg0 Pt1 2.758902 1_555
Mg0 Pt1 2.758902 1_545
Mg0 Pt1 2.758902 1_445
Mg0 Pt1 2.758902 1_455
Mg0 Pt7 2.776840 1_545
Mg0 Pt7 2.776840 1_555
Mg0 Pt4 2.776840 1_455
Mg0 Pt4 2.776840 1_555
Mg0 Pt3 2.812178 1_455
Mg0 Pt6 2.812178 1_555
Mg0 Pt3 2.812178 1_555
Mg0 Pt6 2.812178 1_545
Al0 Pt7 2.677691 1_545
Al0 Pt7 2.677691 1_555
Al0 Pt4 2.677691 1_455
Al0 Pt4 2.677691 1_555
Al0 Pt2 2.760749 1_455
Al0 Pt2 2.760749 1_555
Al0 Pt2 2.760749 1_445
Al0 Pt2 2.760749 1_545
Al0 Pt8 2.820172 1_555
Al0 Pt5 2.820172 1_555
Al0 Pt5 2.820172 1_455
Al0 Pt8 2.820172 1_545
Pt0 Pt6 2.735366 1_656
Pt0 Pt3 2.735366 1_556
Pt0 Pt3 2.735366 1_566
Pt0 Pt6 2.735366 1_556
Pt0 Pt8 2.736827 1_555
Pt0 Pt5 2.736827 1_555
Pt0 Pt8 2.736827 1_655
Pt0 Pt5 2.736827 1_565
Pt0 V0 2.758939 1_666
Pt0 V0 2.758939 1_556
Pt0 V0 2.758939 1_656
Pt0 V0 2.758939 1_566
Pt1 Pt7 2.785969 1_555
Pt1 Pt4 2.785969 1_555
Pt1 Pt4 2.785969 1_565
Pt1 Pt7 2.785969 1_655
Pt1 Pt3 2.802967 1_555
Pt1 Pt3 2.802967 1_565
Pt1 Pt6 2.802967 1_655
Pt1 Pt6 2.802967 1_555
Pt2 Pt5 2.747564 1_565
Pt2 Pt8 2.747564 1_655
Pt2 Pt8 2.747564 1_555
Pt2 Pt5 2.747564 1_555
Pt2 Pt7 2.748421 1_555
Pt2 Pt4 2.748421 1_555
Pt2 Pt4 2.748421 1_565
Pt2 Pt7 2.748421 1_655
Pt3 V0 2.721879 1_655
Pt3 V0 2.721879 1_555
Pt3 Pt6 2.758872 1_645
Pt3 Pt6 2.758872 1_555
Pt3 Pt6 2.758872 1_545
Pt3 Pt6 2.758872 1_655
Pt4 Pt7 2.758872 1_545
Pt4 Pt7 2.758872 1_645
Pt4 Pt7 2.758872 1_555
Pt4 Pt7 2.758872 1_655
Pt5 V0 2.750390 1_556
Pt5 V0 2.750390 1_656
Pt5 Pt8 2.758872 1_655
Pt5 Pt8 2.758872 1_645
Pt5 Pt8 2.758872 1_545
Pt5 Pt8 2.758872 1_555
Pt6 V0 2.721879 1_565
Pt6 V0 2.721879 1_555
Pt8 V0 2.750390 1_556
Pt8 V0 2.750390 1_566
