# generated using pymatgen
data_YCd2Ga2Ni
_symmetry_space_group_name_H-M   'P 1'
_cell_length_a   8.43583032
_cell_length_b   8.43582891
_cell_length_c   6.65066390
_cell_angle_alpha   90.00000000
_cell_angle_beta   90.00000000
_cell_angle_gamma   152.03727810
_symmetry_Int_Tables_number   1
_chemical_formula_structural   YCd2Ga2Ni
_chemical_formula_sum   'Y2 Cd4 Ga4 Ni2'
_cell_volume   221.92082040
_cell_formula_units_Z   2
loop_
 _symmetry_equiv_pos_site_id
 _symmetry_equiv_pos_as_xyz
  1  'x, y, z'
loop_
 _atom_site_type_symbol
 _atom_site_label
 _atom_site_symmetry_multiplicity
 _atom_site_fract_x
 _atom_site_fract_y
 _atom_site_fract_z
 _atom_site_occupancy
  Y  Y0  1  0.36908939  0.63090502  0.75000000  1
  Y  Y1  1  0.63091061  0.36909498  0.25000000  1
  Cd  Cd0  1  0.00000000  0.00000000  0.00000000  1
  Cd  Cd1  1  0.00000000  0.00000000  0.50000000  1
  Cd  Cd2  1  0.57381553  0.42618149  0.75000000  1
  Cd  Cd3  1  0.42618447  0.57381851  0.25000000  1
  Ga  Ga0  1  0.19094073  0.80906052  0.94600779  1
  Ga  Ga1  1  0.80905927  0.19093948  0.05399221  1
  Ga  Ga2  1  0.19094073  0.80906052  0.55399221  1
  Ga  Ga3  1  0.80905927  0.19093948  0.44600779  1
  Ni  Ni0  1  0.73086378  0.26914836  0.75000000  1
  Ni  Ni1  1  0.26913622  0.73085164  0.25000000  1
loop_
_geom_bond_atom_site_label_1
_geom_bond_atom_site_label_2
_geom_bond_distance
_geom_bond_site_symmetry_2
Cd0 Cd2 2.894651 1_554
Cd0 Cd3 2.894651 1_445
Cd0 Cd3 2.894659 1_555
Cd0 Cd2 2.894659 1_444
Cd0 Ga1 3.146594 1_455
Cd0 Ga0 3.146594 1_544
Cd0 Cd1 3.325332 1_555
Cd0 Cd1 3.325332 1_554
Cd0 Y0 3.392899 1_554
Cd0 Y1 3.392899 1_445
Cd0 Y1 3.392914 1_555
Cd0 Y0 3.392914 1_444
Cd1 Cd2 2.894651 1_555
Cd1 Cd3 2.894651 1_445
Cd1 Cd3 2.894659 1_555
Cd1 Cd2 2.894659 1_445
Cd1 Ga2 3.146594 1_545
Cd1 Ga3 3.146594 1_455
Cd1 Y0 3.392899 1_555
Cd1 Y1 3.392899 1_445
Cd1 Y1 3.392914 1_555
Cd1 Y0 3.392914 1_445
Cd2 Ni0 2.571043 1_555
Cd2 Ga0 3.087105 1_545
Cd2 Ga2 3.087105 1_545
Cd2 Ga0 3.087117 1_655
Cd2 Ga2 3.087117 1_655
Cd2 Y0 3.351719 1_555
Cd2 Y1 3.454195 1_555
Cd2 Y1 3.454195 1_556
Cd3 Ni1 2.571043 1_555
Cd3 Ga3 3.087105 1_565
Cd3 Ga1 3.087105 1_565
Cd3 Ga3 3.087117 1_455
Cd3 Ga1 3.087117 1_455
Cd3 Y1 3.351719 1_555
Cd3 Y0 3.454195 1_554
Cd3 Y0 3.454195 1_555
Ga0 Ni1 2.393047 1_556
Ga0 Ni0 2.506069 1_455
Ga0 Ni0 2.506105 1_565
Ga0 Ga2 2.607164 1_555
Ga0 Ga1 2.899918 1_566
Ga0 Ga1 2.899924 1_456
Ga0 Y1 3.034380 1_456
Ga0 Y1 3.034391 1_566
Ga0 Y0 3.194733 1_555
Ga1 Ni0 2.393047 1_554
Ga1 Ni1 2.506069 1_655
Ga1 Ni1 2.506105 1_545
Ga1 Ga3 2.607164 1_555
Ga1 Y0 3.034380 1_654
Ga1 Y0 3.034391 1_544
Ga1 Y1 3.194733 1_555
Ga2 Ni1 2.393047 1_555
Ga2 Ni0 2.506069 1_455
Ga2 Ni0 2.506105 1_565
Ga2 Ga3 2.899918 1_565
Ga2 Ga3 2.899924 1_455
Ga2 Y1 3.034380 1_455
Ga2 Y1 3.034391 1_565
Ga2 Y0 3.194733 1_555
Ga3 Ni0 2.393047 1_555
Ga3 Ni1 2.506069 1_655
Ga3 Ni1 2.506105 1_545
Ga3 Y0 3.034380 1_655
Ga3 Y0 3.034391 1_545
Ga3 Y1 3.194733 1_555
Ni0 Y0 3.045613 1_655
Ni0 Y0 3.045660 1_545
Ni1 Y1 3.045613 1_455
Ni1 Y1 3.045660 1_565
