# generated using pymatgen
data_Hf6ScInF30
_symmetry_space_group_name_H-M   'P 1'
_cell_length_a   7.83291684
_cell_length_b   7.83291690
_cell_length_c   7.83291574
_cell_angle_alpha   99.88961581
_cell_angle_beta   99.88962041
_cell_angle_gamma   99.88962621
_symmetry_Int_Tables_number   1
_chemical_formula_structural   Hf6ScInF30
_chemical_formula_sum   'Hf6 Sc1 In1 F30'
_cell_volume   456.27075129
_cell_formula_units_Z   1
loop_
 _symmetry_equiv_pos_site_id
 _symmetry_equiv_pos_as_xyz
  1  'x, y, z'
loop_
 _atom_site_type_symbol
 _atom_site_label
 _atom_site_symmetry_multiplicity
 _atom_site_fract_x
 _atom_site_fract_y
 _atom_site_fract_z
 _atom_site_occupancy
  Hf  Hf0  1  0.67923393  0.82076607  0.25000000  1
  Hf  Hf1  1  0.75000000  0.31949111  0.18050889  1
  Hf  Hf2  1  0.82076607  0.25000000  0.67923393  1
  Hf  Hf3  1  0.18050889  0.75000000  0.31949111  1
  Hf  Hf4  1  0.25000000  0.67923393  0.82076607  1
  Hf  Hf5  1  0.31949111  0.18050889  0.75000000  1
  Sc  Sc0  1  0.75000000  0.75000000  0.75000000  1
  In  In0  1  0.25000000  0.25000000  0.25000000  1
  F  F0  1  0.96421850  0.53578150  0.25000000  1
  F  F1  1  0.28859081  0.52333447  0.27979940  1
  F  F2  1  0.14655628  0.67146272  0.04769703  1
  F  F3  1  0.75000000  0.04110921  0.45889079  1
  F  F4  1  0.77899904  0.01644235  0.77872138  1
  F  F5  1  0.54928562  0.17683529  0.65088149  1
  F  F6  1  0.97666553  0.21140919  0.22020060  1
  F  F7  1  0.21140919  0.22020060  0.97666553  1
  F  F8  1  0.67146272  0.04769703  0.14655628  1
  F  F9  1  0.82853728  0.35344372  0.45230297  1
  F  F10  1  0.53578150  0.25000000  0.96421850  1
  F  F11  1  0.04769703  0.14655628  0.67146272  1
  F  F12  1  0.35344372  0.45230297  0.82853728  1
  F  F13  1  0.52333447  0.27979940  0.28859081  1
  F  F14  1  0.27979940  0.28859081  0.52333447  1
  F  F15  1  0.72100096  0.72127862  0.48355765  1
  F  F16  1  0.48355765  0.72100096  0.72127862  1
  F  F17  1  0.65088149  0.54928562  0.17683529  1
  F  F18  1  0.95071438  0.84911851  0.32316471  1
  F  F19  1  0.45889079  0.75000000  0.04110921  1
  F  F20  1  0.17683529  0.65088149  0.54928562  1
  F  F21  1  0.32316471  0.95071438  0.84911851  1
  F  F22  1  0.77872138  0.77899904  0.01644235  1
  F  F23  1  0.01644235  0.77872138  0.77899904  1
  F  F24  1  0.45230297  0.82853728  0.35344372  1
  F  F25  1  0.22020060  0.97666553  0.21140919  1
  F  F26  1  0.25000000  0.96421850  0.53578150  1
  F  F27  1  0.84911851  0.32316471  0.95071438  1
  F  F28  1  0.72127862  0.48355765  0.72100096  1
  F  F29  1  0.04110921  0.45889079  0.75000000  1
loop_
_geom_bond_atom_site_label_1
_geom_bond_atom_site_label_2
_geom_bond_distance
_geom_bond_site_symmetry_2
F0 Hf3 2.091670 1_655
F0 Hf1 2.091670 1_555
F1 In0 2.076429 1_555
F1 Hf3 2.093498 1_555
F2 Hf3 2.069057 1_555
F2 Hf4 2.082022 1_554
F3 Hf2 2.086408 1_555
F3 Hf0 2.086408 1_545
F4 Sc0 2.028839 1_545
F4 Hf2 2.105431 1_555
F5 Hf2 2.067640 1_555
F5 Hf5 2.081733 1_555
F6 In0 2.076429 1_655
F6 Hf1 2.093498 1_555
F7 In0 2.076428 1_556
F7 Hf5 2.093498 1_555
F8 Hf1 2.069057 1_555
F8 Hf0 2.082022 1_545
F9 Hf1 2.069057 1_555
F9 Hf2 2.082021 1_555
F10 Hf1 2.091670 1_556
F10 Hf5 2.091670 1_555
F11 Hf5 2.069057 1_555
F11 Hf2 2.082022 1_455
F12 Hf5 2.069057 1_555
F12 Hf4 2.082022 1_555
F13 In0 2.076429 1_555
F13 Hf1 2.093498 1_555
F14 In0 2.076428 1_555
F14 Hf5 2.093498 1_555
F15 Sc0 2.028839 1_555
F15 Hf0 2.105431 1_555
F16 Sc0 2.028839 1_555
F16 Hf4 2.105431 1_555
F17 Hf0 2.067640 1_555
F17 Hf1 2.081734 1_555
F18 Hf0 2.067640 1_555
F18 Hf3 2.081734 1_655
F19 Hf4 2.086408 1_554
F19 Hf0 2.086408 1_555
F20 Hf4 2.067640 1_555
F20 Hf3 2.081733 1_555
F21 Hf4 2.067640 1_555
F21 Hf5 2.081733 1_565
F22 Sc0 2.028839 1_554
F22 Hf0 2.105431 1_555
F23 Sc0 2.028839 1_455
F23 Hf4 2.105431 1_555
F24 Hf3 2.069057 1_555
F24 Hf0 2.082022 1_555
F25 In0 2.076429 1_565
F25 Hf3 2.093498 1_555
F26 Hf3 2.091670 1_555
F26 Hf5 2.091670 1_565
F27 Hf2 2.067640 1_555
F27 Hf1 2.081733 1_556
F28 Sc0 2.028839 1_555
F28 Hf2 2.105431 1_555
F29 Hf2 2.086408 1_455
F29 Hf4 2.086408 1_555
