# generated using pymatgen
data_NaTa4AsO13
_symmetry_space_group_name_H-M   'P 1'
_cell_length_a   7.34733641
_cell_length_b   7.34733698
_cell_length_c   10.03921686
_cell_angle_alpha   90.00000000
_cell_angle_beta   90.00000000
_cell_angle_gamma   90.67823018
_symmetry_Int_Tables_number   1
_chemical_formula_structural   NaTa4AsO13
_chemical_formula_sum   'Na2 Ta8 As2 O26'
_cell_volume   541.91265346
_cell_formula_units_Z   2
loop_
 _symmetry_equiv_pos_site_id
 _symmetry_equiv_pos_as_xyz
  1  'x, y, z'
loop_
 _atom_site_type_symbol
 _atom_site_label
 _atom_site_symmetry_multiplicity
 _atom_site_fract_x
 _atom_site_fract_y
 _atom_site_fract_z
 _atom_site_occupancy
  Na  Na0  1  0.45675252  0.45675252  0.34516083  1
  Na  Na1  1  0.54324748  0.54324748  0.84516083  1
  Ta  Ta0  1  0.55433373  0.89841526  0.25389599  1
  Ta  Ta1  1  0.10158474  0.44566627  0.75389599  1
  Ta  Ta2  1  0.44566627  0.10158474  0.75389599  1
  Ta  Ta3  1  0.89841526  0.55433373  0.25389599  1
  Ta  Ta4  1  0.17693934  0.82466267  0.50352612  1
  Ta  Ta5  1  0.17533733  0.82306066  0.00352612  1
  Ta  Ta6  1  0.82466267  0.17693934  0.50352612  1
  Ta  Ta7  1  0.82306066  0.17533733  0.00352612  1
  As  As0  1  0.16359102  0.16359102  0.25523105  1
  As  As1  1  0.83640898  0.83640898  0.75523105  1
  O  O0  1  0.66228663  0.66228663  0.25262026  1
  O  O1  1  0.33771337  0.33771337  0.75262026  1
  O  O2  1  0.39053773  0.13542748  0.26401002  1
  O  O3  1  0.86457252  0.60946227  0.76401002  1
  O  O4  1  0.60946227  0.86457252  0.76401002  1
  O  O5  1  0.13542748  0.39053773  0.26401002  1
  O  O6  1  0.78583051  0.37045713  0.38989677  1
  O  O7  1  0.63677469  0.19438961  0.62299708  1
  O  O8  1  0.80561039  0.36322531  0.12299708  1
  O  O9  1  0.62954287  0.21416949  0.88989677  1
  O  O10  1  0.19438961  0.63677469  0.62299708  1
  O  O11  1  0.37045713  0.78583051  0.38989677  1
  O  O12  1  0.21416949  0.62954287  0.88989677  1
  O  O13  1  0.36322531  0.80561039  0.12299708  1
  O  O14  1  0.06737388  0.06737388  0.39490564  1
  O  O15  1  0.92847938  0.92847938  0.61405229  1
  O  O16  1  0.07152062  0.07152062  0.11405229  1
  O  O17  1  0.93262612  0.93262612  0.89490564  1
  O  O18  1  0.69742215  0.99741277  0.39199873  1
  O  O19  1  0.00592985  0.30517742  0.61288825  1
  O  O20  1  0.69482258  0.99407015  0.11288825  1
  O  O21  1  0.00258723  0.30257785  0.89199873  1
  O  O22  1  0.30517742  0.00592985  0.61288825  1
  O  O23  1  0.99741277  0.69742215  0.39199873  1
  O  O24  1  0.30257785  0.00258723  0.89199873  1
  O  O25  1  0.99407015  0.69482258  0.11288825  1
loop_
_geom_bond_atom_site_label_1
_geom_bond_atom_site_label_2
_geom_bond_distance
_geom_bond_site_symmetry_2
Na0 O0 2.317346 1_555
Na0 O5 2.539091 1_555
Na0 O2 2.539091 1_555
Na0 O6 2.546760 1_555
Na0 O11 2.546760 1_555
Na1 O1 2.317346 1_555
Na1 O3 2.539091 1_555
Na1 O4 2.539091 1_555
Na1 O12 2.546760 1_555
Na1 O9 2.546760 1_555
As0 O2 1.684980 1_555
As0 O5 1.684980 1_555
As0 O16 1.706811 1_555
As0 O14 1.718699 1_555
As1 O4 1.684980 1_555
As1 O3 1.684980 1_555
As1 O15 1.706811 1_555
As1 O17 1.718699 1_555
O0 Ta3 1.916191 1_555
O0 Ta0 1.916192 1_555
O1 Ta1 1.916191 1_555
O1 Ta2 1.916192 1_555
O2 Ta0 2.130905 1_545
O3 Ta1 2.130905 1_655
O4 Ta2 2.130905 1_565
O5 Ta3 2.130905 1_455
O6 Ta6 1.847687 1_555
O6 Ta3 2.084986 1_555
O7 Ta6 1.834364 1_555
O7 Ta2 2.034896 1_555
O8 Ta7 1.834364 1_555
O8 Ta3 2.034896 1_555
O9 Ta7 1.847687 1_556
O9 Ta2 2.084986 1_555
O10 Ta4 1.834364 1_555
O10 Ta1 2.034896 1_555
O11 Ta4 1.847687 1_555
O11 Ta0 2.084986 1_555
O12 Ta5 1.847687 1_556
O12 Ta1 2.084986 1_555
O13 Ta5 1.834364 1_555
O13 Ta0 2.034896 1_555
O14 Ta6 2.247496 1_455
O14 Ta4 2.247496 1_545
O15 Ta4 2.275635 1_655
O15 Ta6 2.275635 1_565
O16 Ta7 2.275635 1_455
O16 Ta5 2.275635 1_545
O17 Ta5 2.247496 1_656
O17 Ta7 2.247496 1_566
O18 Ta0 1.881079 1_555
O18 Ta6 1.959155 1_565
O19 Ta1 1.883132 1_555
O19 Ta6 1.958885 1_455
O20 Ta0 1.883132 1_555
O20 Ta7 1.958885 1_565
O21 Ta1 1.881079 1_555
O21 Ta7 1.959155 1_456
O22 Ta2 1.883132 1_555
O22 Ta4 1.958885 1_545
O23 Ta3 1.881079 1_555
O23 Ta4 1.959155 1_655
O24 Ta2 1.881079 1_555
O24 Ta5 1.959155 1_546
O25 Ta3 1.883132 1_555
O25 Ta5 1.958885 1_655
