# generated using pymatgen
data_Te8Ir3
_symmetry_space_group_name_H-M   'P 1'
_cell_length_a   19.49003265
_cell_length_b   9.17501651
_cell_length_c   9.12643814
_cell_angle_alpha   60.22700098
_cell_angle_beta   45.40386056
_cell_angle_gamma   44.88760608
_symmetry_Int_Tables_number   1
_chemical_formula_structural   Te8Ir3
_chemical_formula_sum   'Te24 Ir9'
_cell_volume   820.11775742
_cell_formula_units_Z   3
loop_
 _symmetry_equiv_pos_site_id
 _symmetry_equiv_pos_as_xyz
  1  'x, y, z'
loop_
 _atom_site_type_symbol
 _atom_site_label
 _atom_site_symmetry_multiplicity
 _atom_site_fract_x
 _atom_site_fract_y
 _atom_site_fract_z
 _atom_site_occupancy
  Te  Te0  1  0.03944587  0.12599539  0.62647371  1
  Te  Te1  1  0.12811460  0.35858450  0.11680486  1
  Te  Te2  1  0.21259065  0.36507103  0.36003740  1
  Te  Te3  1  0.12470006  0.12385549  0.87209608  1
  Te  Te4  1  0.20754208  0.87084640  0.13971968  1
  Te  Te5  1  0.12555276  0.62163180  0.62151093  1
  Te  Te6  1  0.37257734  0.12992260  0.63133642  1
  Te  Te7  1  0.45917253  0.38296321  0.12092616  1
  Te  Te8  1  0.20749447  0.61703679  0.87907384  1
  Te  Te9  1  0.29408866  0.87007740  0.36866358  1
  Te  Te10  1  0.54111424  0.37836720  0.37848807  1
  Te  Te11  1  0.45912392  0.12915360  0.86028032  1
  Te  Te12  1  0.54196594  0.87614451  0.12790392  1
  Te  Te13  1  0.45407635  0.63492897  0.63996260  1
  Te  Te14  1  0.70588755  0.12743112  0.62572812  1
  Te  Te15  1  0.79395267  0.36862092  0.12837240  1
  Te  Te16  1  0.53855240  0.64141550  0.88319514  1
  Te  Te17  1  0.62722013  0.87400461  0.37352629  1
  Te  Te18  1  0.87661206  0.37400275  0.36839602  1
  Te  Te19  1  0.78861963  0.13247185  0.87169060  1
  Te  Te20  1  0.87804637  0.86752915  0.12830940  1
  Te  Te21  1  0.79005494  0.62599825  0.63160398  1
  Te  Te22  1  0.87271433  0.63137908  0.87162760  1
  Te  Te23  1  0.96077945  0.87256888  0.37427188  1
  Ir  Ir0  1  0.00067746  -0.00041850  0.99602632  1
  Ir  Ir1  1  0.33333300  -0.00000000  0.50000000  1
  Ir  Ir2  1  0.33333300  0.50000000  0.00000000  1
  Ir  Ir3  1  0.66598954  0.00041850  0.00397368  1
  Ir  Ir4  1  0.33333300  0.50000000  0.50000000  1
  Ir  Ir5  1  0.66749858  0.00043493  0.49832048  1
  Ir  Ir6  1  0.66746522  0.49986319  0.00291793  1
  Ir  Ir7  1  0.99916842  -0.00043493  0.50167952  1
  Ir  Ir8  1  0.99920078  0.50013681  0.99708207  1
loop_
_geom_bond_atom_site_label_1
_geom_bond_atom_site_label_2
_geom_bond_distance
_geom_bond_site_symmetry_2
Te0 Te9 2.873564 1_545
Te1 Te8 2.845951 1_554
Te2 Te5 2.889523 1_555
Te3 Te4 2.925234 1_546
Te10 Te13 2.889538 1_555
Te11 Te12 2.925234 1_546
Te14 Te23 2.876436 1_545
Te15 Te22 2.870859 1_554
Te16 Te7 2.845951 1_556
Te17 Te6 2.873564 1_565
Te18 Te21 2.874084 1_555
Te19 Te20 2.916566 1_546
Ir0 Te15 2.655962 1_456
Ir0 Te0 2.658882 1_555
Ir0 Te3 2.684735 1_555
Ir0 Te20 2.690118 1_446
Ir0 Te8 2.708903 1_545
Ir0 Te23 2.720064 1_446
Ir1 Te2 2.681711 1_555
Ir1 Te13 2.681718 1_545
Ir1 Te12 2.693083 1_545
Ir1 Te3 2.693083 1_555
Ir1 Te6 2.727831 1_555
Ir1 Te9 2.727831 1_545
Ir2 Te2 2.664111 1_555
Ir2 Te13 2.664117 1_554
Ir2 Te8 2.697846 1_554
Ir2 Te7 2.697864 1_555
Ir2 Te11 2.704173 1_554
Ir2 Te4 2.704173 1_555
Ir3 Te22 2.655962 1_544
Ir3 Te17 2.658876 1_545
Ir3 Te12 2.684753 1_545
Ir3 Te19 2.690109 1_554
Ir3 Te7 2.708903 1_555
Ir3 Te14 2.720064 1_554
Ir4 Te9 2.667642 1_555
Ir4 Te6 2.667642 1_555
Ir4 Te7 2.679549 1_555
Ir4 Te8 2.679554 1_555
Ir4 Te5 2.719179 1_555
Ir4 Te10 2.719189 1_555
Ir5 Te11 2.653360 1_555
Ir5 Te14 2.659335 1_555
Ir5 Te17 2.667760 1_545
Ir5 Te10 2.683471 1_555
Ir5 Te20 2.696312 1_545
Ir5 Te21 2.699913 1_545
Ir6 Te16 2.648620 1_554
Ir6 Te19 2.670617 1_554
Ir6 Te21 2.680578 1_554
Ir6 Te15 2.688169 1_555
Ir6 Te12 2.688940 1_555
Ir6 Te10 2.701485 1_555
Ir7 Te4 2.653354 1_645
Ir7 Te23 2.659335 1_545
Ir7 Te0 2.667743 1_655
Ir7 Te5 2.683472 1_645
Ir7 Te19 2.696318 1_555
Ir7 Te18 2.699917 1_555
Ir8 Te1 2.648637 1_656
Ir8 Te20 2.670624 1_556
Ir8 Te18 2.680568 1_556
Ir8 Te22 2.688152 1_555
Ir8 Te3 2.688940 1_655
Ir8 Te5 2.701491 1_655
