# generated using pymatgen
data_CsRb3(Al3Se5)4
_symmetry_space_group_name_H-M   'P 1'
_cell_length_a   13.37223591
_cell_length_b   7.51476393
_cell_length_c   10.85074724
_cell_angle_alpha   77.09940131
_cell_angle_beta   89.81330008
_cell_angle_gamma   90.05999062
_symmetry_Int_Tables_number   1
_chemical_formula_structural   CsRb3(Al3Se5)4
_chemical_formula_sum   'Cs1 Rb3 Al12 Se20'
_cell_volume   1062.85295828
_cell_formula_units_Z   1
loop_
 _symmetry_equiv_pos_site_id
 _symmetry_equiv_pos_as_xyz
  1  'x, y, z'
loop_
 _atom_site_type_symbol
 _atom_site_label
 _atom_site_symmetry_multiplicity
 _atom_site_fract_x
 _atom_site_fract_y
 _atom_site_fract_z
 _atom_site_occupancy
  Cs  Cs0  1  0.60583766  0.83795963  0.40650893  1
  Rb  Rb0  1  0.11758480  0.15644599  0.10936569  1
  Rb  Rb1  1  0.37936226  0.16193412  0.61348059  1
  Rb  Rb2  1  0.88256991  0.84025758  0.88991393  1
  Al  Al0  1  0.92314337  0.79350306  0.39819940  1
  Al  Al1  1  0.57894952  0.79693483  0.89706796  1
  Al  Al2  1  0.42103373  0.20859509  0.10139326  1
  Al  Al3  1  0.39982466  0.56409643  0.80409296  1
  Al  Al4  1  0.10142219  0.55875948  0.30427505  1
  Al  Al5  1  0.33588636  0.71218728  0.12456301  1
  Al  Al6  1  0.60215673  0.44009052  0.19361912  1
  Al  Al7  1  0.07809524  0.20171727  0.60173536  1
  Al  Al8  1  0.66360330  0.28974570  0.87363944  1
  Al  Al9  1  0.90082399  0.43687542  0.69610700  1
  Al  Al10  1  0.16403692  0.70816624  0.62532878  1
  Al  Al11  1  0.83781338  0.28865713  0.37319294  1
  Se  Se0  1  0.83434325  0.71475553  0.58898612  1
  Se  Se1  1  0.10476382  0.80972860  0.41052548  1
  Se  Se2  1  0.66983178  0.71762528  0.08490778  1
  Se  Se3  1  0.39774789  0.81539681  0.91017641  1
  Se  Se4  1  0.33060659  0.28850643  0.91294821  1
  Se  Se5  1  0.66584948  0.34661670  0.40031098  1
  Se  Se6  1  0.58081868  0.56965681  0.76418881  1
  Se  Se7  1  0.60203852  0.18784376  0.08813868  1
  Se  Se8  1  0.89696627  0.18715277  0.58865927  1
  Se  Se9  1  0.63368193  0.06523388  0.75546576  1
  Se  Se10  1  0.35973145  0.94255003  0.23939831  1
  Se  Se11  1  0.16901600  0.28157846  0.41276472  1
  Se  Se12  1  0.08161759  0.42745582  0.73595560  1
  Se  Se13  1  0.92082971  0.56877915  0.26341699  1
  Se  Se14  1  0.86822010  0.06158608  0.25748173  1
  Se  Se15  1  0.13358213  0.93398137  0.74261971  1
  Se  Se16  1  0.83568204  0.34446185  0.90274855  1
  Se  Se17  1  0.33693004  0.65553529  0.59676427  1
  Se  Se18  1  0.42108502  0.43486430  0.23538087  1
  Se  Se19  1  0.16451270  0.65076430  0.09667930  1
loop_
_geom_bond_atom_site_label_1
_geom_bond_atom_site_label_2
_geom_bond_distance
_geom_bond_site_symmetry_2
Cs0 Se0 3.652578 1_555
Cs0 Se10 3.760887 1_555
Cs0 Se5 3.794538 1_555
Cs0 Se7 3.846477 1_565
Cs0 Se2 3.888268 1_555
Cs0 Se5 3.890756 1_565
Cs0 Se6 3.966867 1_555
Cs0 Se14 4.060392 1_565
Cs0 Se17 4.212979 1_555
Rb0 Se4 3.556920 1_554
Rb0 Se11 3.686584 1_555
Rb0 Se14 3.695808 1_455
Rb0 Se1 3.700028 1_545
Rb0 Se19 3.738697 1_555
Rb0 Se10 3.753313 1_545
Rb0 Se19 3.884759 1_545
Rb1 Se11 3.554491 1_555
Rb1 Se4 3.640914 1_555
Rb1 Se3 3.670064 1_545
Rb1 Se17 3.717310 1_555
Rb1 Se9 3.742547 1_555
Rb1 Se15 3.819194 1_545
Rb1 Se17 3.891119 1_545
Rb2 Se2 3.536018 1_556
Rb2 Se0 3.654453 1_555
Rb2 Se8 3.702412 1_565
Rb2 Se15 3.711421 1_655
Rb2 Se16 3.749249 1_555
Rb2 Se9 3.873696 1_565
Rb2 Se16 3.874130 1_565
Al0 Se0 2.341233 1_555
Al0 Se14 2.359287 1_565
Al0 Se1 2.437207 1_655
Al0 Se13 2.468743 1_555
Al1 Se2 2.337023 1_556
Al1 Se9 2.359632 1_565
Al1 Se3 2.432698 1_555
Al1 Se6 2.469014 1_555
Al2 Se4 2.339496 1_554
Al2 Se10 2.358644 1_545
Al2 Se7 2.431473 1_555
Al2 Se18 2.471598 1_555
Al3 Se4 2.331841 1_555
Al3 Se17 2.358776 1_555
Al3 Se3 2.421281 1_555
Al3 Se6 2.455999 1_555
Al4 Se11 2.336120 1_555
Al4 Se19 2.356870 1_555
Al4 Se1 2.420559 1_555
Al4 Se13 2.454901 1_455
Al5 Se10 2.369747 1_555
Al5 Se19 2.370847 1_555
Al5 Se3 2.424418 1_554
Al5 Se18 2.445807 1_555
Al6 Se2 2.334684 1_555
Al6 Se5 2.357767 1_555
Al6 Se7 2.423209 1_555
Al6 Se18 2.460578 1_555
Al7 Se11 2.339991 1_555
Al7 Se15 2.360646 1_545
Al7 Se8 2.430493 1_455
Al7 Se12 2.470711 1_555
Al8 Se9 2.370386 1_555
Al8 Se16 2.371611 1_555
Al8 Se7 2.423151 1_556
Al8 Se6 2.440999 1_555
Al9 Se0 2.329972 1_555
Al9 Se16 2.357822 1_555
Al9 Se8 2.420898 1_555
Al9 Se12 2.455674 1_655
Al10 Se15 2.372267 1_555
Al10 Se17 2.376904 1_555
Al10 Se1 2.421209 1_555
Al10 Se12 2.441583 1_555
Al11 Se14 2.368179 1_555
Al11 Se5 2.370463 1_555
Al11 Se8 2.427064 1_555
Al11 Se13 2.439119 1_555
