# generated using pymatgen
data_Mg(TiS2)8
_symmetry_space_group_name_H-M   'P 1'
_cell_length_a   7.01572600
_cell_length_b   9.90539800
_cell_length_c   14.00967300
_cell_angle_alpha   90.00000000
_cell_angle_beta   90.00000000
_cell_angle_gamma   90.00000000
_symmetry_Int_Tables_number   1
_chemical_formula_structural   Mg(TiS2)8
_chemical_formula_sum   'Mg2 Ti16 S32'
_cell_volume   973.58202723
_cell_formula_units_Z   2
loop_
 _symmetry_equiv_pos_site_id
 _symmetry_equiv_pos_as_xyz
  1  'x, y, z'
loop_
 _atom_site_type_symbol
 _atom_site_label
 _atom_site_symmetry_multiplicity
 _atom_site_fract_x
 _atom_site_fract_y
 _atom_site_fract_z
 _atom_site_occupancy
  Mg  Mg0  1  0.00000000  0.50000000  0.50000000  1
  Mg  Mg1  1  0.50000000  0.00000000  0.00000000  1
  Ti  Ti0  1  0.24208400  0.25453700  0.87244000  1
  Ti  Ti1  1  0.00000000  0.99450200  0.74329900  1
  Ti  Ti2  1  0.74208400  0.75453700  0.62756000  1
  Ti  Ti3  1  0.75791600  0.25453700  0.87244000  1
  Ti  Ti4  1  0.50000000  0.49450200  0.75670100  1
  Ti  Ti5  1  0.50000000  0.50000000  0.50000000  1
  Ti  Ti6  1  0.25791600  0.24546300  0.37244000  1
  Ti  Ti7  1  0.25791600  0.75453700  0.62756000  1
  Ti  Ti8  1  0.24208400  0.74546300  0.12756000  1
  Ti  Ti9  1  0.00000000  0.00000000  0.50000000  1
  Ti  Ti10  1  0.00000000  0.00549800  0.25670100  1
  Ti  Ti11  1  0.75791600  0.74546300  0.12756000  1
  Ti  Ti12  1  0.74208400  0.24546300  0.37244000  1
  Ti  Ti13  1  0.50000000  0.50549800  0.24329900  1
  Ti  Ti14  1  0.50000000  0.50000000  0.00000000  1
  Ti  Ti15  1  0.00000000  0.00000000  0.00000000  1
  S  S0  1  0.50000000  0.25396800  0.75377400  1
  S  S1  1  0.24292600  0.00376000  0.87377600  1
  S  S2  1  0.24390500  0.99823000  0.62413000  1
  S  S3  1  0.00000000  0.24602000  0.75210200  1
  S  S4  1  0.00000000  0.75396800  0.74622600  1
  S  S5  1  0.00000000  0.75448600  0.50369800  1
  S  S6  1  0.75609500  0.99823000  0.62413000  1
  S  S7  1  0.75707400  0.00376000  0.87377600  1
  S  S8  1  0.74292600  0.50376000  0.62622400  1
  S  S9  1  0.74292600  0.49624000  0.37377600  1
  S  S10  1  0.50000000  0.74716700  0.50388700  1
  S  S11  1  0.50000000  0.74602000  0.74789800  1
  S  S12  1  0.50000000  0.25398000  0.25210200  1
  S  S13  1  0.50000000  0.25283300  0.49611300  1
  S  S14  1  0.25707400  0.49624000  0.37377600  1
  S  S15  1  0.25707400  0.50376000  0.62622400  1
  S  S16  1  0.24390500  0.00177000  0.37587000  1
  S  S17  1  0.24292600  0.99624000  0.12622400  1
  S  S18  1  0.00000000  0.24551400  0.49630200  1
  S  S19  1  0.00000000  0.24603200  0.25377400  1
  S  S20  1  0.00000000  0.75398000  0.24789800  1
  S  S21  1  0.00000000  0.75283300  0.00388700  1
  S  S22  1  0.75707400  0.99624000  0.12622400  1
  S  S23  1  0.75609500  0.00177000  0.37587000  1
  S  S24  1  0.74390500  0.50177000  0.12413000  1
  S  S25  1  0.74390500  0.49823000  0.87587000  1
  S  S26  1  0.50000000  0.74603200  0.24622600  1
  S  S27  1  0.50000000  0.74551400  0.00369800  1
  S  S28  1  0.50000000  0.25448600  0.99630200  1
  S  S29  1  0.25609500  0.50177000  0.12413000  1
  S  S30  1  0.25609500  0.49823000  0.87587000  1
  S  S31  1  0.00000000  0.24716700  0.99611300  1
loop_
_geom_bond_atom_site_label_1
_geom_bond_atom_site_label_2
_geom_bond_distance
_geom_bond_site_symmetry_2
Mg0 S5 2.521317 1_555
Mg0 S18 2.521317 1_555
Mg0 S15 2.526124 1_555
Mg0 S14 2.526124 1_555
Mg0 S9 2.526124 1_455
Mg0 S8 2.526124 1_455
Mg1 S27 2.521317 1_545
Mg1 S28 2.521317 1_554
Mg1 S22 2.526124 1_545
Mg1 S7 2.526124 1_554
Mg1 S1 2.526124 1_554
Mg1 S17 2.526124 1_545
S0 Ti4 2.382938 1_555
S0 Ti0 2.457238 1_555
S0 Ti3 2.457238 1_555
S1 Ti15 2.456241 1_556
S1 Ti0 2.484124 1_555
S1 Ti1 2.500884 1_545
S2 Ti1 2.390975 1_555
S2 Ti7 2.416355 1_555
S2 Ti9 2.439796 1_565
S3 Ti0 2.394558 1_555
S3 Ti3 2.394558 1_455
S3 Ti1 2.494436 1_545
S4 Ti1 2.382938 1_555
S4 Ti7 2.457238 1_555
S4 Ti2 2.457238 1_455
S5 Ti9 2.432466 1_565
S5 Ti7 2.507055 1_555
S5 Ti2 2.507055 1_455
S6 Ti1 2.390975 1_655
S6 Ti2 2.416355 1_555
S6 Ti9 2.439796 1_665
S7 Ti15 2.456241 1_656
S7 Ti3 2.484124 1_555
S7 Ti1 2.500884 1_645
S8 Ti5 2.456241 1_555
S8 Ti2 2.484124 1_555
S8 Ti4 2.500884 1_555
S9 Ti5 2.456241 1_555
S9 Ti12 2.484124 1_555
S9 Ti13 2.500884 1_555
S10 Ti2 2.427312 1_555
S10 Ti7 2.427312 1_555
S10 Ti5 2.448893 1_555
S11 Ti2 2.394558 1_555
S11 Ti7 2.394558 1_555
S11 Ti4 2.494436 1_555
S12 Ti12 2.394558 1_555
S12 Ti6 2.394558 1_555
S12 Ti13 2.494436 1_555
S13 Ti12 2.427312 1_555
S13 Ti6 2.427312 1_555
S13 Ti5 2.448893 1_555
S14 Ti5 2.456241 1_555
S14 Ti6 2.484124 1_555
S14 Ti13 2.500884 1_555
S15 Ti5 2.456241 1_555
S15 Ti7 2.484124 1_555
S15 Ti4 2.500884 1_555
S16 Ti10 2.390975 1_555
S16 Ti6 2.416355 1_555
S16 Ti9 2.439796 1_555
S17 Ti15 2.456241 1_565
S17 Ti8 2.484124 1_555
S17 Ti10 2.500884 1_565
S18 Ti9 2.432466 1_555
S18 Ti6 2.507055 1_555
S18 Ti12 2.507055 1_455
S19 Ti10 2.382938 1_555
S19 Ti6 2.457238 1_555
S19 Ti12 2.457238 1_455
S20 Ti8 2.394558 1_555
S20 Ti11 2.394558 1_455
S20 Ti10 2.494436 1_565
S21 Ti11 2.427312 1_455
S21 Ti8 2.427312 1_555
S21 Ti15 2.448893 1_565
S22 Ti15 2.456241 1_665
S22 Ti11 2.484124 1_555
S22 Ti10 2.500884 1_665
S23 Ti10 2.390975 1_655
S23 Ti12 2.416355 1_555
S23 Ti9 2.439796 1_655
S24 Ti13 2.390975 1_555
S24 Ti11 2.416355 1_555
S24 Ti14 2.439796 1_555
S25 Ti4 2.390975 1_555
S25 Ti3 2.416355 1_555
S25 Ti14 2.439796 1_556
S26 Ti13 2.382938 1_555
S26 Ti11 2.457238 1_555
S26 Ti8 2.457238 1_555
S27 Ti14 2.432466 1_555
S27 Ti11 2.507055 1_555
S27 Ti8 2.507055 1_555
S28 Ti14 2.432466 1_556
S28 Ti3 2.507055 1_555
S28 Ti0 2.507055 1_555
S29 Ti13 2.390975 1_555
S29 Ti8 2.416355 1_555
S29 Ti14 2.439796 1_555
S30 Ti4 2.390975 1_555
S30 Ti0 2.416355 1_555
S30 Ti14 2.439796 1_556
S31 Ti3 2.427312 1_455
S31 Ti0 2.427312 1_555
S31 Ti15 2.448893 1_556
