# generated using pymatgen
data_ScTa5Si7Ni16
_symmetry_space_group_name_H-M   'P 1'
_cell_length_a   7.89656132
_cell_length_b   7.91099067
_cell_length_c   7.89656035
_cell_angle_alpha   59.93954317
_cell_angle_beta   60.12093655
_cell_angle_gamma   59.93954049
_symmetry_Int_Tables_number   1
_chemical_formula_structural   ScTa5Si7Ni16
_chemical_formula_sum   'Sc1 Ta5 Si7 Ni16'
_cell_volume   348.81006357
_cell_formula_units_Z   1
loop_
 _symmetry_equiv_pos_site_id
 _symmetry_equiv_pos_as_xyz
  1  'x, y, z'
loop_
 _atom_site_type_symbol
 _atom_site_label
 _atom_site_symmetry_multiplicity
 _atom_site_fract_x
 _atom_site_fract_y
 _atom_site_fract_z
 _atom_site_occupancy
  Sc  Sc0  1  0.79551344  0.20448656  0.79551344  1
  Ta  Ta0  1  0.20586168  0.20362004  0.79638096  1
  Ta  Ta1  1  0.79638096  0.79413932  0.20586168  1
  Ta  Ta2  1  0.79638096  0.20361904  0.20586068  1
  Ta  Ta3  1  0.20586068  0.79413932  0.79638096  1
  Ta  Ta4  1  0.20059340  0.79940660  0.20059440  1
  Si  Si0  1  0.50273627  0.49726373  0.50273627  1
  Si  Si1  1  0.49956219  0.50043781  0.00163079  1
  Si  Si2  1  0.00163079  0.99836921  0.49956219  1
  Si  Si3  1  0.49994020  0.00005980  0.49994020  1
  Si  Si4  1  0.00163079  0.50043781  0.49956219  1
  Si  Si5  1  0.49956219  0.99836921  0.00163079  1
  Si  Si6  1  0.99994020  0.50005980  0.99994020  1
  Ni  Ni0  1  0.50242938  0.83213844  0.83329273  1
  Ni  Ni1  1  0.83267968  0.50291654  0.83267968  1
  Ni  Ni2  1  0.83329273  0.83213844  0.50242938  1
  Ni  Ni3  1  0.16786156  0.49757062  0.16786156  1
  Ni  Ni4  1  0.16827591  0.16732032  0.49708346  1
  Ni  Ni5  1  0.49708346  0.16732032  0.16827591  1
  Ni  Ni6  1  0.83267968  0.83172409  0.83267968  1
  Ni  Ni7  1  0.38305726  0.38390094  0.38305726  1
  Ni  Ni8  1  0.15001646  0.61694274  0.61609906  1
  Ni  Ni9  1  0.61500282  0.14663395  0.61500282  1
  Ni  Ni10  1  0.61609906  0.61694274  0.15001646  1
  Ni  Ni11  1  0.38305726  0.84998354  0.38305726  1
  Ni  Ni12  1  0.37664059  0.38499718  0.85336605  1
  Ni  Ni13  1  0.85336605  0.38499718  0.37664059  1
  Ni  Ni14  1  0.61500282  0.62335941  0.61500282  1
  Ni  Ni15  1  0.16786156  0.16670727  0.16786156  1
loop_
_geom_bond_atom_site_label_1
_geom_bond_atom_site_label_2
_geom_bond_distance
_geom_bond_site_symmetry_2
Sc0 Si2 2.852810 1_645
Sc0 Si1 2.852810 1_556
Sc0 Si5 2.852810 1_546
Sc0 Si4 2.852810 1_655
Si1 Ta3 2.824575 1_554
Si1 Ta2 2.840214 1_555
Si1 Ta4 2.840612 1_555
Si2 Ta2 2.824575 1_465
Si2 Ta3 2.840214 1_555
Si2 Ta4 2.840601 1_555
Si3 Ta1 2.842449 1_545
Si3 Ta2 2.842455 1_555
Si3 Ta3 2.842455 1_545
Si3 Ta0 2.842458 1_555
Si4 Ta1 2.824570 1_455
Si4 Ta0 2.840217 1_555
Si4 Ta4 2.840607 1_555
Si5 Ta0 2.824568 1_564
Si5 Ta1 2.840219 1_555
Si5 Ta4 2.840607 1_555
Si6 Ta0 2.842447 1_655
Si6 Ta3 2.842455 1_655
Si6 Ta2 2.842455 1_556
Si6 Ta1 2.842460 1_556
Ni0 Si1 2.277788 1_556
Ni0 Si5 2.277795 1_556
Ni0 Si3 2.283954 1_565
Ni0 Ni14 2.518740 1_555
Ni0 Ni9 2.518740 1_565
Ni0 Ni10 2.529685 1_556
Ni0 Ni1 2.603791 1_555
Ni0 Ni6 2.603795 1_555
Ni0 Ni2 2.617457 1_555
Ni0 Ta3 2.670741 1_555
Ni0 Ta0 2.670748 1_565
Ni0 Ta4 2.671802 1_556
Ni1 Si6 2.273263 1_555
Ni1 Si4 2.286619 1_655
Ni1 Si1 2.286619 1_556
Ni1 Ni10 2.543043 1_556
Ni1 Ni8 2.543044 1_655
Ni1 Ni14 2.545448 1_555
Ni1 Ni6 2.601193 1_555
Ni1 Ni2 2.603791 1_555
Ni1 Sc0 2.687029 1_555
Ni1 Ta2 2.687095 1_556
Ni1 Ta0 2.687097 1_655
Ni2 Si4 2.277788 1_655
Ni2 Si2 2.277795 1_655
Ni2 Si3 2.283954 1_565
Ni2 Ni9 2.518740 1_565
Ni2 Ni8 2.529685 1_655
Ni2 Ni6 2.603794 1_555
Ni2 Ta1 2.670733 1_555
Ni2 Ta2 2.670746 1_565
Ni2 Ta4 2.671795 1_655
Ni3 Si4 2.277788 1_555
Ni3 Si1 2.277788 1_555
Ni3 Si6 2.283960 1_454
Ni3 Ni7 2.529672 1_555
Ni3 Ni4 2.603791 1_555
Ni3 Ni5 2.603791 1_555
Ni3 Ta3 2.670746 1_554
Ni3 Ta1 2.670746 1_455
Ni3 Ta4 2.671798 1_555
Ni4 Si3 2.273263 1_555
Ni4 Si2 2.286619 1_545
Ni4 Si4 2.286619 1_555
Ni4 Ni7 2.543037 1_555
Ni4 Ni5 2.601194 1_555
Ni4 Sc0 2.687029 1_455
Ni4 Ta3 2.687095 1_545
Ni4 Ta0 2.687104 1_555
Ni5 Si3 2.273263 1_555
Ni5 Si5 2.286618 1_545
Ni5 Si1 2.286619 1_555
Ni5 Ni7 2.543037 1_555
Ni5 Sc0 2.687029 1_554
Ni5 Ta2 2.687095 1_555
Ni5 Ta1 2.687095 1_545
Ni6 Si6 2.273263 1_555
Ni6 Si2 2.286619 1_655
Ni6 Si5 2.286619 1_556
Ni6 Ni8 2.543040 1_655
Ni6 Ni9 2.545446 1_565
Ni6 Sc0 2.687029 1_565
Ni6 Ta3 2.687095 1_655
Ni6 Ta1 2.687102 1_556
Ni7 Si0 2.275641 1_555
Ni7 Si1 2.464796 1_555
Ni7 Si4 2.464796 1_555
Ni7 Si3 2.481464 1_555
Ni7 Ni9 2.585835 1_555
Ni7 Ni8 2.607232 1_555
Ni7 Ta0 2.725841 1_555
Ni7 Ta2 2.725844 1_555
Ni7 Ta4 2.745115 1_555
Ni8 Si0 2.275635 1_555
Ni8 Si2 2.464797 1_555
Ni8 Si4 2.464803 1_555
Ni8 Si6 2.481465 1_455
Ni8 Ta0 2.725837 1_555
Ni8 Ta3 2.725838 1_555
Ni8 Ta4 2.745111 1_555
Ni9 Si0 2.263164 1_555
Ni9 Si3 2.434987 1_555
Ni9 Si5 2.497694 1_546
Ni9 Si2 2.497695 1_645
Ni9 Ta0 2.696294 1_555
Ni9 Ta2 2.696301 1_555
Ni9 Sc0 2.757637 1_555
Ni10 Si0 2.275635 1_555
Ni10 Si5 2.464797 1_555
Ni10 Si1 2.464803 1_555
Ni10 Si6 2.481465 1_554
Ni10 Ni6 2.543040 1_554
Ni10 Ni13 2.585835 1_555
Ni10 Ni11 2.607221 1_555
Ni10 Ni7 2.607232 1_555
Ni10 Ta1 2.725844 1_555
Ni10 Ta2 2.725846 1_555
Ni10 Ta4 2.745117 1_555
Ni11 Si0 2.275635 1_555
Ni11 Si5 2.464797 1_555
Ni11 Si2 2.464797 1_555
Ni11 Si3 2.481471 1_565
Ni11 Ni15 2.529677 1_565
Ni11 Ni4 2.543044 1_565
Ni11 Ni5 2.543044 1_565
Ni11 Ni14 2.585835 1_555
Ni11 Ni8 2.607221 1_555
Ni11 Ta3 2.725845 1_555
Ni11 Ta1 2.725846 1_555
Ni11 Ta4 2.745104 1_555
Ni12 Si0 2.263163 1_555
Ni12 Si6 2.434994 1_455
Ni12 Si1 2.497688 1_556
Ni12 Si5 2.497695 1_546
Ni12 Ni3 2.518740 1_556
Ni12 Ni15 2.518740 1_556
Ni12 Ni5 2.545441 1_556
Ni12 Ni8 2.585835 1_555
Ni12 Ni14 2.666756 1_555
Ni12 Ni9 2.666767 1_555
Ni12 Ta0 2.696294 1_555
Ni12 Ta3 2.696302 1_555
Ni12 Sc0 2.757631 1_555
Ni13 Si0 2.263163 1_555
Ni13 Si6 2.434993 1_554
Ni13 Si4 2.497688 1_655
Ni13 Si2 2.497695 1_645
Ni13 Ni15 2.518740 1_655
Ni13 Ni3 2.518740 1_655
Ni13 Ni4 2.545441 1_655
Ni13 Ni14 2.666756 1_555
Ni13 Ni9 2.666768 1_555
Ni13 Ta1 2.696302 1_555
Ni13 Ta2 2.696308 1_555
Ni13 Sc0 2.757631 1_555
Ni14 Si0 2.263157 1_555
Ni14 Si3 2.434994 1_565
Ni14 Si1 2.497695 1_556
Ni14 Si4 2.497695 1_655
Ni14 Ni2 2.518740 1_555
Ni14 Ta1 2.696297 1_555
Ni14 Ta3 2.696303 1_555
Ni14 Sc0 2.757632 1_555
Ni15 Si2 2.277791 1_545
Ni15 Si5 2.277791 1_545
Ni15 Si6 2.283956 1_454
Ni15 Ni4 2.603786 1_555
Ni15 Ni5 2.603787 1_555
Ni15 Ni3 2.617457 1_555
Ni15 Ta0 2.670742 1_554
Ni15 Ta2 2.670749 1_455
Ni15 Ta4 2.671798 1_545
