# generated using pymatgen
data_MgZnPtO4
_symmetry_space_group_name_H-M   'P 1'
_cell_length_a   6.01834223
_cell_length_b   6.01834294
_cell_length_c   6.01834227
_cell_angle_alpha   121.21698505
_cell_angle_beta   118.67448042
_cell_angle_gamma   90.10809305
_symmetry_Int_Tables_number   1
_chemical_formula_structural   MgZnPtO4
_chemical_formula_sum   'Mg2 Zn2 Pt2 O8'
_cell_volume   154.17154479
_cell_formula_units_Z   2
loop_
 _symmetry_equiv_pos_site_id
 _symmetry_equiv_pos_as_xyz
  1  'x, y, z'
loop_
 _atom_site_type_symbol
 _atom_site_label
 _atom_site_symmetry_multiplicity
 _atom_site_fract_x
 _atom_site_fract_y
 _atom_site_fract_z
 _atom_site_occupancy
  Mg  Mg0  1  0.00000000  0.00000000  0.50000000  1
  Mg  Mg1  1  0.00000000  0.50000000  0.00000000  1
  Zn  Zn0  1  0.60216354  0.85216354  0.75000000  1
  Zn  Zn1  1  0.39783646  0.14783646  0.25000000  1
  Pt  Pt0  1  0.00000000  0.50000000  0.50000000  1
  Pt  Pt1  1  0.50000000  0.50000000  0.00000000  1
  O  O0  1  0.78332019  0.26146304  0.52185815  1
  O  O1  1  0.23960489  0.26146304  0.97814185  1
  O  O2  1  0.24722035  0.27009155  0.52287120  1
  O  O3  1  0.24722035  0.72434815  0.97712880  1
  O  O4  1  0.75277965  0.27565185  0.02287120  1
  O  O5  1  0.76039511  0.73853696  0.02185815  1
  O  O6  1  0.75277965  0.72990845  0.47712880  1
  O  O7  1  0.21667981  0.73853696  0.47814185  1
loop_
_geom_bond_atom_site_label_1
_geom_bond_atom_site_label_2
_geom_bond_distance
_geom_bond_site_symmetry_2
Mg0 O1 2.037592 1_555
Mg0 O5 2.037592 1_445
Mg0 O0 2.037596 1_455
Mg0 O7 2.037596 1_545
Mg0 O6 2.106499 1_445
Mg0 O2 2.106499 1_555
Mg1 O7 2.037591 1_555
Mg1 O0 2.037591 1_454
Mg1 O5 2.037592 1_455
Mg1 O1 2.037592 1_554
Mg1 O3 2.106495 1_554
Mg1 O4 2.106495 1_455
O0 Zn1 1.928319 1_555
O0 Pt0 2.032762 1_655
O1 Zn1 1.928324 1_556
O1 Pt1 2.032758 1_556
O2 Pt0 2.038591 1_555
O2 Pt1 2.038591 1_556
O2 Zn1 2.058776 1_555
O3 Pt1 2.038586 1_556
O3 Pt0 2.038591 1_555
O3 Zn1 2.058782 1_566
O4 Pt1 2.038586 1_555
O4 Pt0 2.038591 1_655
O4 Zn0 2.058782 1_544
O5 Zn0 1.928324 1_554
O5 Pt1 2.032758 1_555
O6 Pt0 2.038591 1_655
O6 Pt1 2.038591 1_555
O6 Zn0 2.058776 1_555
O7 Zn0 1.928319 1_555
O7 Pt0 2.032762 1_555
