# generated using pymatgen
data_CsY6(CBr6)2
_symmetry_space_group_name_H-M   'P 1'
_cell_length_a   8.84482078
_cell_length_b   8.80882399
_cell_length_c   9.31881418
_cell_angle_alpha   72.43214519
_cell_angle_beta   71.42382908
_cell_angle_gamma   72.74319728
_symmetry_Int_Tables_number   1
_chemical_formula_structural   CsY6(CBr6)2
_chemical_formula_sum   'Cs1 Y6 C2 Br12'
_cell_volume   639.77357285
_cell_formula_units_Z   1
loop_
 _symmetry_equiv_pos_site_id
 _symmetry_equiv_pos_as_xyz
  1  'x, y, z'
loop_
 _atom_site_type_symbol
 _atom_site_label
 _atom_site_symmetry_multiplicity
 _atom_site_fract_x
 _atom_site_fract_y
 _atom_site_fract_z
 _atom_site_occupancy
  Cs  Cs0  1  0.00000350  0.49998553  0.00000735  1
  Y  Y0  1  0.46881655  0.11826476  0.18231913  1
  Y  Y1  1  0.77683466  0.03349282  0.40517965  1
  Y  Y2  1  0.59404203  0.72393009  0.47468873  1
  Y  Y3  1  0.40596594  0.27606677  0.52532355  1
  Y  Y4  1  0.22316147  0.96650246  0.59483469  1
  Y  Y5  1  0.53117783  0.88172877  0.81770170  1
  C  C0  1  0.49122488  0.02676445  0.42233548  1
  C  C1  1  0.50876406  0.97322866  0.57768843  1
  Br  Br0  1  0.79299329  0.15738549  0.08000121  1
  Br  Br1  1  0.57762767  0.78438518  0.14123443  1
  Br  Br2  1  0.34708372  0.43678872  0.22414306  1
  Br  Br3  1  0.13104203  0.07155094  0.29564795  1
  Br  Br4  1  0.92336876  0.72191999  0.35161663  1
  Br  Br5  1  0.71334994  0.36648603  0.43115396  1
  Br  Br6  1  0.28666788  0.63355936  0.56869387  1
  Br  Br7  1  0.07661862  0.27808327  0.64840190  1
  Br  Br8  1  0.86895621  0.92842495  0.70437386  1
  Br  Br9  1  0.65290872  0.56319880  0.77587900  1
  Br  Br10  1  0.42239972  0.21563933  0.85876535  1
  Br  Br11  1  0.20699751  0.84260964  0.92001311  1
loop_
_geom_bond_atom_site_label_1
_geom_bond_atom_site_label_2
_geom_bond_distance
_geom_bond_site_symmetry_2
C0 C1 1.424731 1_545
C0 Y0 2.188834 1_555
C0 Y3 2.478118 1_555
C0 Y1 2.497277 1_555
C0 Y2 2.497778 1_545
C0 Y4 2.508114 1_545
C1 Y5 2.188822 1_555
C1 Y2 2.478134 1_555
C1 Y4 2.497231 1_555
C1 Y3 2.497788 1_565
C1 Y1 2.508196 1_565
Br0 Y0 2.809848 1_555
Br0 Y1 2.866054 1_555
Br0 Cs0 3.750552 1_655
Br1 Y0 2.913487 1_565
Br1 Y5 3.002243 1_554
Br1 Y2 3.033678 1_555
Br1 Cs0 3.907637 1_655
Br2 Y0 2.790019 1_555
Br2 Y3 2.871934 1_555
Br2 Cs0 4.057823 1_555
Br3 Y0 2.943971 1_555
Br3 Y4 2.955678 1_545
Br3 Y1 3.057529 1_455
Br3 Cs0 4.042170 1_555
Br4 Y2 2.766492 1_555
Br4 Y1 2.786759 1_565
Br4 Cs0 4.084489 1_655
Br5 Y3 2.852871 1_555
Br5 Y1 2.888390 1_555
Br5 Y2 3.117567 1_555
Br5 Cs0 4.047249 1_655
Br6 Y2 2.852713 1_555
Br6 Y4 2.888440 1_555
Br6 Y3 3.117472 1_555
Br6 Cs0 4.048499 1_556
Br7 Y3 2.766654 1_555
Br7 Y4 2.786844 1_545
Br7 Cs0 4.084307 1_556
Br8 Y5 2.943951 1_555
Br8 Y1 2.955743 1_565
Br8 Y4 3.057563 1_655
Br8 Cs0 4.042182 1_656
Br9 Y5 2.790064 1_555
Br9 Y2 2.871979 1_555
Br9 Cs0 4.057853 1_656
Br10 Y5 2.913685 1_545
Br10 Y0 3.002308 1_556
Br10 Y3 3.033655 1_555
Br10 Cs0 3.907571 1_556
Br11 Y5 2.809874 1_555
Br11 Y4 2.866046 1_555
Br11 Cs0 3.750645 1_556
