# generated using pymatgen
data_Sc4Fe2Si3Ge
_symmetry_space_group_name_H-M   'P 1'
_cell_length_a   5.34180496
_cell_length_b   5.34180512
_cell_length_c   9.55188915
_cell_angle_alpha   63.75609947
_cell_angle_beta   63.75610088
_cell_angle_gamma   43.97749396
_symmetry_Int_Tables_number   1
_chemical_formula_structural   Sc4Fe2Si3Ge
_chemical_formula_sum   'Sc4 Fe2 Si3 Ge1'
_cell_volume   166.35366786
_cell_formula_units_Z   1
loop_
 _symmetry_equiv_pos_site_id
 _symmetry_equiv_pos_as_xyz
  1  'x, y, z'
loop_
 _atom_site_type_symbol
 _atom_site_label
 _atom_site_symmetry_multiplicity
 _atom_site_fract_x
 _atom_site_fract_y
 _atom_site_fract_z
 _atom_site_occupancy
  Sc  Sc0  1  0.81341947  0.81341947  0.10931456  1
  Sc  Sc1  1  0.99970808  0.99970808  0.32700013  1
  Sc  Sc2  1  0.18348091  0.18348091  0.89434341  1
  Sc  Sc3  1  0.00266257  0.00266257  0.66940674  1
  Fe  Fe0  1  0.72896662  0.72896662  0.62532744  1
  Fe  Fe1  1  0.27547863  0.27547863  0.37113247  1
  Si  Si0  1  0.35653062  0.35653062  0.56545769  1
  Si  Si1  1  0.51120958  0.51120958  0.12579282  1
  Si  Si2  1  0.64527004  0.64527004  0.43426320  1
  Ge  Ge0  1  0.48327449  0.48327449  0.87796154  1
loop_
_geom_bond_atom_site_label_1
_geom_bond_atom_site_label_2
_geom_bond_distance
_geom_bond_site_symmetry_2
Sc0 Si2 2.734506 1_555
Sc0 Si1 2.856322 1_655
Sc0 Si1 2.856322 1_565
Sc0 Si1 2.922045 1_555
Sc1 Si1 2.738298 1_565
Sc1 Si1 2.738298 1_655
Sc1 Si0 2.849371 1_655
Sc1 Si0 2.849371 1_565
Sc1 Si2 2.922094 1_655
Sc1 Si2 2.922094 1_565
Sc1 Si2 3.153931 1_555
Sc2 Si0 2.769707 1_555
Sc2 Si1 2.863906 1_546
Sc2 Si1 2.863906 1_456
Sc3 Si2 2.831016 1_455
Sc3 Si2 2.831016 1_545
Sc3 Si0 2.907387 1_455
Sc3 Si0 2.907387 1_545
Sc3 Si0 3.155179 1_555
Fe0 Si0 2.288042 1_655
Fe0 Si0 2.288042 1_565
Fe0 Si2 2.336967 1_555
Fe0 Ge0 2.478992 1_555
Fe0 Sc1 2.832714 1_555
Fe0 Sc3 2.881561 1_565
Fe0 Sc3 2.881561 1_655
Fe0 Sc3 2.935565 1_665
Fe0 Sc2 3.114805 1_655
Fe0 Sc2 3.114806 1_565
Fe1 Si2 2.299135 1_455
Fe1 Si2 2.299136 1_545
Fe1 Si0 2.347674 1_555
Fe1 Si1 2.392836 1_555
Fe1 Sc3 2.842094 1_555
Fe1 Sc1 2.866928 1_545
Fe1 Sc1 2.866928 1_455
Fe1 Sc1 2.956250 1_445
Fe1 Sc0 3.082117 1_455
Fe1 Sc0 3.082118 1_545
Si0 Si2 2.516628 1_555
Ge0 Si1 2.511038 1_556
Ge0 Sc3 2.764201 1_565
Ge0 Sc3 2.764201 1_655
Ge0 Sc0 2.858095 1_546
Ge0 Sc0 2.858096 1_456
Ge0 Sc2 2.873068 1_655
Ge0 Sc2 2.873068 1_565
Ge0 Sc2 2.898535 1_555
