# generated using pymatgen
data_Hf5ZrFeBr15
_symmetry_space_group_name_H-M   'P 1'
_cell_length_a   9.25938825
_cell_length_b   9.25963154
_cell_length_c   9.25938760
_cell_angle_alpha   109.11833242
_cell_angle_beta   110.18036123
_cell_angle_gamma   109.11832850
_symmetry_Int_Tables_number   1
_chemical_formula_structural   Hf5ZrFeBr15
_chemical_formula_sum   'Hf5 Zr1 Fe1 Br15'
_cell_volume   611.05590955
_cell_formula_units_Z   1
loop_
 _symmetry_equiv_pos_site_id
 _symmetry_equiv_pos_as_xyz
  1  'x, y, z'
loop_
 _atom_site_type_symbol
 _atom_site_label
 _atom_site_symmetry_multiplicity
 _atom_site_fract_x
 _atom_site_fract_y
 _atom_site_fract_z
 _atom_site_occupancy
  Hf  Hf0  1  0.23095945  0.23131591  0.99963514  1
  Hf  Hf1  1  0.76830453  0.76867664  0.99963828  1
  Hf  Hf2  1  0.77773190  0.99996487  0.77773190  1
  Hf  Hf3  1  0.99963828  0.76867664  0.76830453  1
  Hf  Hf4  1  0.99963514  0.23131591  0.23095945  1
  Zr  Zr0  1  0.22338842  0.00000695  0.22338842  1
  Fe  Fe0  1  0.00263326  0.00001864  0.00263326  1
  Br  Br0  1  0.75074695  0.50306156  0.75074695  1
  Br  Br1  1  0.49926109  0.50001679  0.99921795  1
  Br  Br2  1  0.99921795  0.50001679  0.49926109  1
  Br  Br3  1  0.50717524  0.99998714  0.50717524  1
  Br  Br4  1  0.24772157  0.00000090  0.75074737  1
  Br  Br5  1  0.99849998  0.24725042  0.75123138  1
  Br  Br6  1  0.75074737  0.00000090  0.24772157  1
  Br  Br7  1  0.50396024  0.75273429  0.75124535  1
  Br  Br8  1  0.99693933  0.74938725  0.24753255  1
  Br  Br9  1  0.24755570  0.25061600  0.49815363  1
  Br  Br10  1  0.75123138  0.24725042  0.99849998  1
  Br  Br11  1  0.49815363  0.25061600  0.24755570  1
  Br  Br12  1  0.24771770  0.49696544  0.24771770  1
  Br  Br13  1  0.75124535  0.75273429  0.50396024  1
  Br  Br14  1  0.24753255  0.74938725  0.99693933  1
loop_
_geom_bond_atom_site_label_1
_geom_bond_atom_site_label_2
_geom_bond_distance
_geom_bond_site_symmetry_2
Fe0 Zr0 2.339635 1_555
Fe0 Hf2 2.383230 1_444
Fe0 Hf4 2.484127 1_455
Fe0 Hf0 2.484127 1_554
Fe0 Hf3 2.484417 1_444
Fe0 Hf1 2.484417 1_444
Br0 Hf1 2.674583 1_555
Br0 Hf3 2.674584 1_555
Br1 Hf1 2.884803 1_555
Br1 Hf0 2.885538 1_555
Br2 Hf3 2.884803 1_555
Br2 Hf4 2.885537 1_555
Br3 Hf2 2.867489 1_555
Br3 Zr0 3.007690 1_565
Br4 Hf3 2.674676 1_445
Br4 Hf0 2.674684 1_555
Br5 Hf0 2.638105 1_655
Br5 Hf2 2.670207 1_545
Br6 Hf1 2.674676 1_544
Br6 Hf4 2.674684 1_555
Br7 Hf1 2.638086 1_555
Br7 Hf2 2.669993 1_555
Br8 Hf1 2.635498 1_554
Br8 Zr0 2.703289 1_665
Br9 Hf4 2.635478 1_455
Br9 Zr0 2.703248 1_555
Br10 Hf4 2.638105 1_556
Br10 Hf2 2.670207 1_545
Br11 Hf0 2.635478 1_554
Br11 Zr0 2.703248 1_555
Br12 Hf0 2.674734 1_554
Br12 Hf4 2.674734 1_455
Br13 Hf3 2.638086 1_555
Br13 Hf2 2.669992 1_555
Br14 Hf3 2.635498 1_455
Br14 Zr0 2.703289 1_566
