# generated using pymatgen
data_Zn2Pd3(PtO4)3
_symmetry_space_group_name_H-M   'P 1'
_cell_length_a   3.15553321
_cell_length_b   7.10799096
_cell_length_c   9.94857367
_cell_angle_alpha   90.01203841
_cell_angle_beta   90.00000000
_cell_angle_gamma   90.00000000
_symmetry_Int_Tables_number   1
_chemical_formula_structural   Zn2Pd3(PtO4)3
_chemical_formula_sum   'Zn2 Pd3 Pt3 O12'
_cell_volume   223.14154361
_cell_formula_units_Z   1
loop_
 _symmetry_equiv_pos_site_id
 _symmetry_equiv_pos_as_xyz
  1  'x, y, z'
loop_
 _atom_site_type_symbol
 _atom_site_label
 _atom_site_symmetry_multiplicity
 _atom_site_fract_x
 _atom_site_fract_y
 _atom_site_fract_z
 _atom_site_occupancy
  Zn  Zn0  1  0.00000000  0.00351075  0.00193215  1
  Zn  Zn1  1  0.00000000  0.49656973  0.49807454  1
  Pd  Pd0  1  0.00000000  0.00079346  0.49910245  1
  Pd  Pd1  1  0.00000000  0.49919855  0.00088082  1
  Pd  Pd2  1  0.50000000  0.24971125  0.24989990  1
  Pt  Pt0  1  0.50000000  0.75025506  0.75011325  1
  Pt  Pt1  1  0.50000000  0.25027846  0.74988550  1
  Pt  Pt2  1  0.50000000  0.74971761  0.25010772  1
  O  O0  1  0.50000000  0.99916986  0.14959633  1
  O  O1  1  0.50000000  0.00024653  0.85139495  1
  O  O2  1  0.50000000  0.50032219  0.64860613  1
  O  O3  1  0.50000000  0.50025198  0.35043080  1
  O  O4  1  0.00000000  0.20870328  0.37226982  1
  O  O5  1  0.00000000  0.79092679  0.62811750  1
  O  O6  1  0.00000000  0.28887143  0.87246555  1
  O  O7  1  0.00000000  0.71042826  0.12787073  1
  O  O8  1  0.00000000  0.29076597  0.12742954  1
  O  O9  1  0.00000000  0.70957973  0.87219171  1
  O  O10  1  0.00000000  0.21163770  0.62721571  1
  O  O11  1  0.00000000  0.78906344  0.37241691  1
loop_
_geom_bond_atom_site_label_1
_geom_bond_atom_site_label_2
_geom_bond_distance
_geom_bond_site_symmetry_2
O0 Pt2 2.035813 1_555
O0 Pd2 2.041182 1_565
O0 Zn0 2.156020 1_565
O0 Zn0 2.156020 1_665
O1 Pt0 2.042554 1_545
O1 Pt1 2.044291 1_555
O1 Zn0 2.175493 1_556
O1 Zn0 2.175493 1_656
O2 Pt1 2.043234 1_555
O2 Pt0 2.043299 1_555
O2 Zn1 2.175493 1_555
O2 Zn1 2.175493 1_655
O3 Pt2 2.034976 1_555
O3 Pd2 2.042284 1_555
O3 Zn1 2.155818 1_555
O3 Zn1 2.155818 1_655
O4 Pd0 1.943422 1_555
O4 Pd2 2.014085 1_555
O4 Pd2 2.014085 1_455
O4 Zn1 2.398355 1_555
O5 Pd0 1.968115 1_565
O5 Pt0 2.011492 1_555
O5 Pt0 2.011492 1_455
O5 Zn1 2.459735 1_555
O6 Pd1 1.966307 1_556
O6 Pt1 2.012866 1_455
O6 Pt1 2.012866 1_555
O6 Zn0 2.402963 1_556
O7 Pd1 1.962030 1_555
O7 Pt2 2.011481 1_555
O7 Pt2 2.011481 1_455
O7 Zn0 2.431196 1_565
O8 Pd1 1.944419 1_555
O8 Pd2 2.014737 1_455
O8 Pd2 2.014737 1_555
O8 Zn0 2.393054 1_555
O9 Pd1 1.968778 1_556
O9 Pt0 2.011992 1_555
O9 Pt0 2.011992 1_455
O9 Zn0 2.455577 1_566
O10 Pd0 1.967155 1_555
O10 Pt1 2.013453 1_455
O10 Pt1 2.013453 1_555
O10 Zn1 2.398655 1_555
O11 Pd0 1.962807 1_565
O11 Pt2 2.011971 1_455
O11 Pt2 2.011971 1_555
O11 Zn1 2.426169 1_555
