# generated using pymatgen
data_KSr2CaPd8
_symmetry_space_group_name_H-M   'P 1'
_cell_length_a   9.56636471
_cell_length_b   9.56636514
_cell_length_c   9.56636516
_cell_angle_alpha   33.55284109
_cell_angle_beta   33.55283683
_cell_angle_gamma   33.55283258
_symmetry_Int_Tables_number   1
_chemical_formula_structural   KSr2CaPd8
_chemical_formula_sum   'K1 Sr2 Ca1 Pd8'
_cell_volume   238.21468478
_cell_formula_units_Z   1
loop_
 _symmetry_equiv_pos_site_id
 _symmetry_equiv_pos_as_xyz
  1  'x, y, z'
loop_
 _atom_site_type_symbol
 _atom_site_label
 _atom_site_symmetry_multiplicity
 _atom_site_fract_x
 _atom_site_fract_y
 _atom_site_fract_z
 _atom_site_occupancy
  K  K0  1  0.56329465  0.56329465  0.56329465  1
  Sr  Sr0  1  0.44032397  0.44032397  0.44032397  1
  Sr  Sr1  1  0.93473578  0.93473578  0.93473578  1
  Ca  Ca0  1  0.06209180  0.06209180  0.06209180  1
  Pd  Pd0  1  0.74983592  0.74983592  0.74983592  1
  Pd  Pd1  1  0.24998129  0.24998129  0.24998129  1
  Pd  Pd2  1  0.00458562  0.50114527  0.50114527  1
  Pd  Pd3  1  0.49469801  0.99908021  0.99908021  1
  Pd  Pd4  1  0.50114527  0.00458562  0.50114527  1
  Pd  Pd5  1  0.99908021  0.49469801  0.99908021  1
  Pd  Pd6  1  0.50114527  0.50114527  0.00458562  1
  Pd  Pd7  1  0.99908021  0.99908021  0.49469801  1
loop_
_geom_bond_atom_site_label_1
_geom_bond_atom_site_label_2
_geom_bond_distance
_geom_bond_site_symmetry_2
K0 Pd1 3.234065 1_655
K0 Pd1 3.234066 1_565
K0 Pd1 3.234066 1_556
K0 Pd2 3.278851 1_655
K0 Pd4 3.278852 1_565
K0 Pd6 3.278852 1_556
K0 Pd7 3.283658 1_455
K0 Pd7 3.283658 1_545
K0 Pd5 3.283659 1_455
K0 Pd5 3.283659 1_554
K0 Pd3 3.283659 1_554
K0 Pd3 3.283659 1_545
K0 Sr0 3.327366 1_555
K0 Sr1 3.350964 1_455
K0 Sr1 3.350965 1_545
K0 Sr1 3.350965 1_554
Ca0 Pd3 3.184868 1_544
Ca0 Pd5 3.184868 1_454
Ca0 Pd7 3.184869 1_445
Ca0 Pd6 3.200404 1_455
Ca0 Pd6 3.200404 1_545
Ca0 Pd4 3.200404 1_455
Ca0 Pd4 3.200404 1_554
Ca0 Pd2 3.200404 1_554
Ca0 Pd2 3.200405 1_545
Ca0 Pd0 3.238981 1_544
Ca0 Pd0 3.238982 1_454
Ca0 Pd0 3.238982 1_445
Ca0 Sr0 3.411990 1_455
Ca0 Sr0 3.411990 1_545
Ca0 Sr0 3.411991 1_554
Ca0 Sr1 3.446025 1_444
Pd0 Pd2 2.713962 1_655
Pd0 Pd4 2.713962 1_565
Pd0 Pd6 2.713962 1_556
Pd0 Pd3 2.720967 1_555
Pd0 Pd5 2.720967 1_555
Pd0 Pd7 2.720968 1_555
Pd0 Sr0 3.252875 1_655
Pd0 Sr0 3.252876 1_565
Pd0 Sr0 3.252876 1_556
Pd1 Pd3 2.806014 1_544
Pd1 Pd5 2.806014 1_454
Pd1 Pd7 2.806014 1_445
Pd1 Pd2 2.806566 1_555
Pd1 Pd4 2.806566 1_555
Pd1 Pd6 2.806566 1_555
Pd1 Sr1 3.225720 1_544
Pd1 Sr1 3.225721 1_454
Pd1 Sr1 3.225721 1_445
Pd2 Pd4 2.742215 1_555
Pd2 Pd6 2.742215 1_555
Pd2 Pd4 2.780213 1_465
Pd2 Pd6 2.780213 1_456
Pd2 Sr0 3.245338 1_555
Pd2 Sr1 3.311470 1_454
Pd2 Sr1 3.311470 1_445
Pd3 Pd5 2.737013 1_465
Pd3 Pd7 2.737014 1_456
Pd3 Pd5 2.785414 1_555
Pd3 Pd7 2.785415 1_555
Pd3 Sr0 3.166697 1_565
Pd3 Sr0 3.166697 1_556
Pd3 Sr1 3.236056 1_555
Pd4 Pd6 2.742215 1_555
Pd4 Pd6 2.780214 1_546
Pd4 Sr0 3.245338 1_555
Pd4 Sr1 3.311469 1_445
Pd4 Sr1 3.311469 1_544
Pd5 Pd7 2.737014 1_546
Pd5 Pd7 2.785415 1_555
Pd5 Sr0 3.166697 1_556
Pd5 Sr0 3.166697 1_655
Pd5 Sr1 3.236056 1_555
Pd6 Sr0 3.245338 1_555
Pd6 Sr1 3.311469 1_454
Pd6 Sr1 3.311469 1_544
Pd7 Sr0 3.166697 1_565
Pd7 Sr0 3.166697 1_655
Pd7 Sr1 3.236056 1_555
