# generated using pymatgen
data_SrSi2IrRu
_symmetry_space_group_name_H-M   'P 1'
_cell_length_a   5.93260738
_cell_length_b   5.93260663
_cell_length_c   5.93260681
_cell_angle_alpha   138.60981897
_cell_angle_beta   138.60981617
_cell_angle_gamma   59.97030466
_symmetry_Int_Tables_number   1
_chemical_formula_structural   SrSi2IrRu
_chemical_formula_sum   'Sr1 Si2 Ir1 Ru1'
_cell_volume   90.34671516
_cell_formula_units_Z   1
loop_
 _symmetry_equiv_pos_site_id
 _symmetry_equiv_pos_as_xyz
  1  'x, y, z'
loop_
 _atom_site_type_symbol
 _atom_site_label
 _atom_site_symmetry_multiplicity
 _atom_site_fract_x
 _atom_site_fract_y
 _atom_site_fract_z
 _atom_site_occupancy
  Sr  Sr0  1  0.00000000  0.00000000  0.00000000  1
  Si  Si0  1  0.64020951  0.64020951  1.00000000  1
  Si  Si1  1  0.35979049  0.35979049  0.00000000  1
  Ir  Ir0  1  0.75000000  0.25000000  0.50000000  1
  Ru  Ru0  1  0.25000000  0.75000000  0.50000000  1
loop_
_geom_bond_atom_site_label_1
_geom_bond_atom_site_label_2
_geom_bond_distance
_geom_bond_site_symmetry_2
Si0 Sr0 3.296573 1_656
Si0 Sr0 3.296573 1_667
Si0 Sr0 3.296573 1_566
Si0 Sr0 3.296573 1_555
Si1 Sr0 3.296573 1_565
Si1 Sr0 3.296573 1_554
Si1 Sr0 3.296573 1_655
Si1 Sr0 3.296573 1_666
Ir0 Si0 2.380894 1_544
Ir0 Si0 2.380894 1_555
Ir0 Si1 2.380894 1_555
Ir0 Si1 2.380894 1_656
Ir0 Sr0 3.316130 1_656
Ir0 Sr0 3.316130 1_666
Ir0 Sr0 3.316130 1_655
Ir0 Sr0 3.316131 1_555
Ru0 Si1 2.380894 1_566
Ru0 Si1 2.380894 1_555
Ru0 Si0 2.380894 1_555
Ru0 Si0 2.380894 1_454
Ru0 Sr0 3.316130 1_565
Ru0 Sr0 3.316130 1_555
Ru0 Sr0 3.316130 1_566
Ru0 Sr0 3.316131 1_666
