# generated using pymatgen
data_Cs6Si2PtO8
_symmetry_space_group_name_H-M   'P 1'
_cell_length_a   6.87974368
_cell_length_b   7.36262146
_cell_length_c   8.07633094
_cell_angle_alpha   83.96021809
_cell_angle_beta   86.60197600
_cell_angle_gamma   68.77900052
_symmetry_Int_Tables_number   1
_chemical_formula_structural   Cs6Si2PtO8
_chemical_formula_sum   'Cs6 Si2 Pt1 O8'
_cell_volume   379.13417767
_cell_formula_units_Z   1
loop_
 _symmetry_equiv_pos_site_id
 _symmetry_equiv_pos_as_xyz
  1  'x, y, z'
loop_
 _atom_site_type_symbol
 _atom_site_label
 _atom_site_symmetry_multiplicity
 _atom_site_fract_x
 _atom_site_fract_y
 _atom_site_fract_z
 _atom_site_occupancy
  Cs  Cs0  1  0.20456096  0.70124488  0.02742366  1
  Cs  Cs1  1  0.72162467  0.20067667  0.45312583  1
  Cs  Cs2  1  0.79543904  0.29875512  0.97257634  1
  Cs  Cs3  1  0.65695634  0.82686414  0.17210087  1
  Cs  Cs4  1  0.34304366  0.17313586  0.82789913  1
  Cs  Cs5  1  0.27837533  0.79932333  0.54687417  1
  Si  Si0  1  0.78376118  0.75283732  0.73272228  1
  Si  Si1  1  0.21623882  0.24716268  0.26727772  1
  Pt  Pt0  1  0.00000000  0.50000000  0.50000000  1
  O  O0  1  0.99780616  0.44793305  0.25281192  1
  O  O1  1  0.76385668  0.76798644  0.52485243  1
  O  O2  1  0.00219384  0.55206695  0.74718808  1
  O  O3  1  0.41486886  0.28319985  0.17143797  1
  O  O4  1  0.82339212  0.93957583  0.79311641  1
  O  O5  1  0.23614332  0.23201356  0.47514757  1
  O  O6  1  0.58513114  0.71680015  0.82856203  1
  O  O7  1  0.17660788  0.06042417  0.20688359  1
loop_
_geom_bond_atom_site_label_1
_geom_bond_atom_site_label_2
_geom_bond_distance
_geom_bond_site_symmetry_2
Cs0 O6 3.021188 1_554
Cs0 O3 3.023572 1_555
Cs0 O7 3.088113 1_565
Cs0 O0 3.116779 1_455
Cs0 O4 3.177271 1_454
Cs0 O2 3.204798 1_554
Cs1 O3 3.057549 1_555
Cs1 O1 3.087138 1_545
Cs1 O4 3.141386 1_545
Cs1 O5 3.258946 1_555
Cs1 O0 3.325877 1_555
Cs1 Pt0 3.461911 1_655
Cs1 O7 3.489066 1_655
Cs1 O5 3.645441 1_655
Cs2 O3 3.021188 1_556
Cs2 O6 3.023572 1_555
Cs2 O4 3.088113 1_545
Cs2 O2 3.116779 1_655
Cs2 O7 3.177271 1_656
Cs2 O0 3.204798 1_556
Cs3 O1 2.933077 1_555
Cs3 O0 2.961380 1_555
Cs3 O6 3.086169 1_554
Cs3 O7 3.136005 1_565
Cs3 O3 3.163645 1_565
Cs3 O4 3.332595 1_554
Cs4 O5 2.933077 1_555
Cs4 O2 2.961380 1_555
Cs4 O3 3.086169 1_556
Cs4 O4 3.136005 1_545
Cs4 O6 3.163645 1_545
Cs4 O7 3.332595 1_556
Cs5 O6 3.057549 1_555
Cs5 O5 3.087138 1_565
Cs5 O7 3.141386 1_565
Cs5 O1 3.258946 1_555
Cs5 O2 3.325877 1_555
Cs5 Pt0 3.461911 1_555
Cs5 O4 3.489066 1_455
Cs5 O1 3.645441 1_455
O0 Si1 1.683255 1_655
O0 Pt0 2.074006 1_655
O1 Si0 1.681202 1_555
O1 Pt0 2.072877 1_655
O2 Si0 1.683255 1_455
O2 Pt0 2.074006 1_555
O3 Si1 1.621971 1_555
O4 Si0 1.621981 1_555
O5 Si1 1.681202 1_555
O5 Pt0 2.072877 1_555
O6 Si0 1.621971 1_555
O7 Si1 1.621981 1_555
