# generated using pymatgen
data_Li4ZnGePd6
_symmetry_space_group_name_H-M   'P 1'
_cell_length_a   4.24195110
_cell_length_b   4.24195007
_cell_length_c   10.27133695
_cell_angle_alpha   90.00002729
_cell_angle_beta   89.99972457
_cell_angle_gamma   119.99701786
_symmetry_Int_Tables_number   1
_chemical_formula_structural   Li4ZnGePd6
_chemical_formula_sum   'Li4 Zn1 Ge1 Pd6'
_cell_volume   160.06702321
_cell_formula_units_Z   1
loop_
 _symmetry_equiv_pos_site_id
 _symmetry_equiv_pos_as_xyz
  1  'x, y, z'
loop_
 _atom_site_type_symbol
 _atom_site_label
 _atom_site_symmetry_multiplicity
 _atom_site_fract_x
 _atom_site_fract_y
 _atom_site_fract_z
 _atom_site_occupancy
  Li  Li0  1  0.00000940  0.00000781  0.49325161  1
  Li  Li1  1  0.33333419  0.66666393  0.16631342  1
  Li  Li2  1  0.66666243  0.33333271  0.84000093  1
  Li  Li3  1  0.99999734  0.99999643  0.99883712  1
  Zn  Zn0  1  0.66666450  0.33333198  0.33233310  1
  Ge  Ge0  1  0.33333148  0.66666496  0.67035902  1
  Pd  Pd0  1  0.33333167  0.66666486  0.42188106  1
  Pd  Pd1  1  0.66666613  0.33333232  0.08351190  1
  Pd  Pd2  1  0.99999999  0.99999953  0.74373696  1
  Pd  Pd3  1  0.99999902  0.99999917  0.24807085  1
  Pd  Pd4  1  0.33333825  0.66667352  0.91367066  1
  Pd  Pd5  1  0.66666561  0.33333278  0.58803336  1
loop_
_geom_bond_atom_site_label_1
_geom_bond_atom_site_label_2
_geom_bond_distance
_geom_bond_site_symmetry_2
Li0 Pd3 2.518334 1_445
Li0 Pd0 2.556408 1_545
Li0 Pd0 2.556486 1_555
Li0 Pd0 2.556564 1_445
Li0 Pd2 2.572819 1_445
Li0 Pd5 2.635462 1_455
Li0 Pd5 2.635530 1_555
Li0 Pd5 2.635587 1_445
Li1 Pd3 2.589038 1_455
Li1 Pd3 2.589123 1_445
Li1 Pd3 2.589130 1_555
Li1 Pd1 2.592512 1_555
Li1 Pd1 2.592634 1_565
Li1 Pd1 2.592639 1_455
Li1 Pd4 2.594979 1_554
Li1 Pd0 2.625021 1_555
Li2 Pd1 2.501183 1_556
Li2 Pd4 2.563279 1_555
Li2 Pd4 2.563365 1_545
Li2 Pd4 2.563429 1_655
Li2 Pd5 2.588044 1_555
Li2 Pd2 2.641131 1_545
Li2 Pd2 2.641213 1_445
Li2 Pd2 2.641220 1_555
Li3 Pd3 2.559964 1_556
Li3 Pd1 2.598900 1_566
Li3 Pd1 2.598994 1_556
Li3 Pd1 2.599017 1_666
Li3 Pd4 2.600583 1_655
Li3 Pd4 2.600678 1_555
Li3 Pd4 2.600733 1_665
Li3 Pd2 2.620220 1_555
Ge0 Pd4 2.499136 1_555
Ge0 Pd0 2.552201 1_555
Ge0 Pd2 2.562400 1_455
Ge0 Pd2 2.562504 1_445
Ge0 Pd2 2.562520 1_555
Ge0 Pd5 2.590922 1_555
Ge0 Pd5 2.591032 1_455
Ge0 Pd5 2.591032 1_565
Ge0 Li2 3.005655 1_555
Ge0 Li2 3.005751 1_455
Ge0 Li2 3.005757 1_565
Ge0 Li0 3.050754 1_565
Ge0 Li0 3.050818 1_555
Ge0 Li0 3.050869 1_665
Pd0 Zn0 2.616071 1_555
Pd0 Zn0 2.616180 1_565
Pd0 Zn0 2.616187 1_455
Pd1 Zn0 2.555726 1_555
Pd3 Zn0 2.597486 1_565
Pd3 Zn0 2.597590 1_555
Pd3 Zn0 2.597591 1_665
Pd5 Zn0 2.626384 1_555
