# generated using pymatgen
data_Te7OsI6
_symmetry_space_group_name_H-M   'P 1'
_cell_length_a   10.31719848
_cell_length_b   10.55155187
_cell_length_c   11.69675778
_cell_angle_alpha   101.86675876
_cell_angle_beta   103.75698353
_cell_angle_gamma   111.43223828
_symmetry_Int_Tables_number   1
_chemical_formula_structural   Te7OsI6
_chemical_formula_sum   'Te14 Os2 I12'
_cell_volume   1089.36118446
_cell_formula_units_Z   2
loop_
 _symmetry_equiv_pos_site_id
 _symmetry_equiv_pos_as_xyz
  1  'x, y, z'
loop_
 _atom_site_type_symbol
 _atom_site_label
 _atom_site_symmetry_multiplicity
 _atom_site_fract_x
 _atom_site_fract_y
 _atom_site_fract_z
 _atom_site_occupancy
  Te  Te0  1  0.92014361  0.00460370  0.70645657  1
  Te  Te1  1  0.07985639  0.99539630  0.29354343  1
  Te  Te2  1  0.17433884  0.26234377  0.86040895  1
  Te  Te3  1  0.82566116  0.73765623  0.13959105  1
  Te  Te4  1  0.75143854  0.11036152  0.82264157  1
  Te  Te5  1  0.24856146  0.88963848  0.17735843  1
  Te  Te6  1  0.01656278  0.32160834  0.01462467  1
  Te  Te7  1  0.98343722  0.67839166  0.98537533  1
  Te  Te8  1  0.19689675  0.06870602  0.01820036  1
  Te  Te9  1  0.80310325  0.93129398  0.98179964  1
  Te  Te10  1  0.71550434  0.61924722  0.68018908  1
  Te  Te11  1  0.28449566  0.38075278  0.31981092  1
  Te  Te12  1  0.09471167  0.74906962  0.71638774  1
  Te  Te13  1  0.90528833  0.25093038  0.28361226  1
  Os  Os0  1  0.95119730  0.83652612  0.84247469  1
  Os  Os1  1  0.04880270  0.16347388  0.15752531  1
  I  I0  1  0.52211615  0.76168958  0.61983080  1
  I  I1  1  0.47788385  0.23831042  0.38016920  1
  I  I2  1  0.83105049  0.67122585  0.46330258  1
  I  I3  1  0.16894951  0.32877415  0.53669742  1
  I  I4  1  0.88284034  0.41975752  0.67828638  1
  I  I5  1  0.11715966  0.58024248  0.32171362  1
  I  I6  1  0.57586167  0.48846789  0.84903055  1
  I  I7  1  0.42413833  0.51153211  0.15096945  1
  I  I8  1  0.28371605  0.01638558  0.68825001  1
  I  I9  1  0.71628395  0.98361442  0.31174999  1
  I  I10  1  0.32635086  0.74805882  0.91772509  1
  I  I11  1  0.67364914  0.25194118  0.08227491  1
loop_
_geom_bond_atom_site_label_1
_geom_bond_atom_site_label_2
_geom_bond_distance
_geom_bond_site_symmetry_2
Te0 Te4 2.835915 1_555
Te0 Te2 2.836219 1_655
Te1 Te5 2.835915 1_555
Te1 Te3 2.836219 1_455
Te2 Te6 2.823311 1_556
Te2 Te8 3.054387 1_556
Te3 Te7 2.823311 1_554
Te3 Te9 3.054387 1_554
Te4 Te6 2.838556 1_656
Te4 Te9 3.005076 1_545
Te5 Te7 2.838556 1_454
Te5 Te8 3.005076 1_565
Os0 Te12 2.587740 1_655
Os0 Te10 2.590971 1_555
Os0 Te7 2.641357 1_555
Os0 Te0 2.666891 1_565
Os0 Te8 2.750445 1_666
Os0 Te9 2.760576 1_555
Os1 Te13 2.587740 1_455
Os1 Te11 2.590971 1_555
Os1 Te6 2.641357 1_555
Os1 Te1 2.666891 1_545
Os1 Te9 2.750445 1_444
Os1 Te8 2.760576 1_555
I0 Te10 2.948949 1_555
I0 Te4 3.484323 1_565
I1 Te11 2.948949 1_555
I1 Te5 3.484323 1_545
I2 Te10 3.112942 1_555
I2 Te12 3.220999 1_655
I3 Te11 3.112942 1_555
I3 Te13 3.220999 1_455
I4 Te10 3.172784 1_555
I4 Te12 3.224862 1_655
I5 Te11 3.172784 1_555
I5 Te13 3.224862 1_455
I6 Te10 2.983494 1_555
I6 Te3 3.508966 1_556
I7 Te11 2.983494 1_555
I7 Te2 3.508966 1_554
I8 Te12 2.921316 1_545
I9 Te13 2.921316 1_565
I10 Te12 2.934238 1_555
I10 Te5 3.502561 1_556
I11 Te13 2.934238 1_555
I11 Te4 3.502561 1_554
