# generated using pymatgen
data_RbGeSb11Rh4
_symmetry_space_group_name_H-M   'P 1'
_cell_length_a   8.06237325
_cell_length_b   8.07343464
_cell_length_c   8.07343562
_cell_angle_alpha   109.72389352
_cell_angle_beta   109.31825654
_cell_angle_gamma   109.42702883
_symmetry_Int_Tables_number   1
_chemical_formula_structural   RbGeSb11Rh4
_chemical_formula_sum   'Rb1 Ge1 Sb11 Rh4'
_cell_volume   404.25503495
_cell_formula_units_Z   1
loop_
 _symmetry_equiv_pos_site_id
 _symmetry_equiv_pos_as_xyz
  1  'x, y, z'
loop_
 _atom_site_type_symbol
 _atom_site_label
 _atom_site_symmetry_multiplicity
 _atom_site_fract_x
 _atom_site_fract_y
 _atom_site_fract_z
 _atom_site_occupancy
  Rb  Rb0  1  0.00228240  0.00228407  0.99999732  1
  Ge  Ge0  1  0.81958865  0.15967675  0.65991190  1
  Sb  Sb0  1  0.84099767  0.65768399  0.49997208  1
  Sb  Sb1  1  0.34034168  0.49819087  0.15567226  1
  Sb  Sb2  1  0.18638284  0.84343984  0.34294200  1
  Sb  Sb3  1  0.15342957  0.65400021  0.81112992  1
  Sb  Sb4  1  0.65554743  0.81455762  0.15847083  1
  Sb  Sb5  1  0.51245313  0.85605243  0.65640270  1
  Sb  Sb6  1  0.15342957  0.34230065  0.49943036  1
  Sb  Sb7  1  0.51208181  0.15624865  0.35583116  1
  Sb  Sb8  1  0.84099767  0.34102559  0.18331467  1
  Sb  Sb9  1  0.65554743  0.49707559  0.84098980  1
  Sb  Sb10  1  0.34034168  0.18466942  0.84215181  1
  Rh  Rh0  1  0.99567571  0.00258325  0.50286543  1
  Rh  Rh1  1  0.49761303  0.49932883  0.49954007  1
  Rh  Rh2  1  0.99567571  0.49281027  0.99309246  1
  Rh  Rh3  1  0.49761303  0.99807296  0.99828521  1
loop_
_geom_bond_atom_site_label_1
_geom_bond_atom_site_label_2
_geom_bond_distance
_geom_bond_site_symmetry_2
Rb0 Sb10 3.480770 1_555
Rb0 Sb1 3.480780 1_556
Rb0 Sb5 3.482061 1_445
Rb0 Sb0 3.502474 1_445
Rb0 Sb8 3.502484 1_456
Rb0 Sb3 3.511597 1_545
Rb0 Sb6 3.511615 1_556
Rb0 Sb2 3.529510 1_546
Rb0 Sb4 3.550446 1_446
Rb0 Sb9 3.550448 1_445
Rb0 Sb7 3.615313 1_556
Ge0 Rh2 2.556347 1_555
Ge0 Rh0 2.556347 1_555
Ge0 Sb5 2.830244 1_545
Ge0 Sb7 2.838272 1_555
Ge0 Rb0 3.499586 1_655
Sb0 Sb3 2.927494 1_655
Sb0 Sb8 2.942799 1_555
Sb1 Sb10 2.913646 1_554
Sb1 Sb4 2.930484 1_555
Sb2 Sb7 2.917960 1_565
Sb2 Sb5 2.927821 1_555
Sb3 Sb6 2.896720 1_555
Sb4 Sb9 2.950453 1_554
Sb6 Sb8 2.927490 1_455
Sb10 Sb9 2.930484 1_555
Rh0 Sb4 2.625340 1_545
Rh0 Sb6 2.625822 1_655
Rh0 Sb10 2.629565 1_655
Rh0 Sb0 2.633661 1_545
Rh0 Sb2 2.681372 1_645
Rh1 Sb0 2.633474 1_555
Rh1 Sb9 2.635863 1_555
Rh1 Sb1 2.638391 1_555
Rh1 Sb6 2.639112 1_555
Rh1 Sb5 2.668550 1_555
Rh1 Sb7 2.677140 1_555
Rh2 Sb9 2.625336 1_555
Rh2 Sb3 2.625819 1_655
Rh2 Sb1 2.629560 1_656
Rh2 Sb8 2.633668 1_556
Rh2 Sb2 2.681364 1_656
Rh3 Sb8 2.633474 1_566
Rh3 Sb4 2.635854 1_556
Rh3 Sb10 2.638391 1_565
Rh3 Sb3 2.639108 1_555
Rh3 Sb5 2.668541 1_555
Rh3 Sb7 2.677117 1_566
