# generated using pymatgen
data_Ba(InI4)2
_symmetry_space_group_name_H-M   'P 1'
_cell_length_a   9.90407259
_cell_length_b   9.90407212
_cell_length_c   12.07959813
_cell_angle_alpha   76.99502067
_cell_angle_beta   76.99502502
_cell_angle_gamma   79.72395719
_symmetry_Int_Tables_number   1
_chemical_formula_structural   Ba(InI4)2
_chemical_formula_sum   'Ba2 In4 I16'
_cell_volume   1114.66022113
_cell_formula_units_Z   2
loop_
 _symmetry_equiv_pos_site_id
 _symmetry_equiv_pos_as_xyz
  1  'x, y, z'
loop_
 _atom_site_type_symbol
 _atom_site_label
 _atom_site_symmetry_multiplicity
 _atom_site_fract_x
 _atom_site_fract_y
 _atom_site_fract_z
 _atom_site_occupancy
  Ba  Ba0  1  0.97713182  0.02286818  0.25000000  1
  Ba  Ba1  1  0.02286818  0.97713182  0.75000000  1
  In  In0  1  0.43867705  0.93457097  0.30155823  1
  In  In1  1  0.93457097  0.43867705  0.80155823  1
  In  In2  1  0.06542903  0.56132295  0.19844177  1
  In  In3  1  0.56132295  0.06542903  0.69844177  1
  I  I0  1  0.55201956  0.69236480  0.41359658  1
  I  I1  1  0.20123654  0.06234543  0.43728142  1
  I  I2  1  0.86493023  0.38303123  0.26791549  1
  I  I3  1  0.32853383  0.92264479  0.11485557  1
  I  I4  1  0.69236480  0.55201956  0.91359658  1
  I  I5  1  0.06234543  0.20123654  0.93728142  1
  I  I6  1  0.38303123  0.86493023  0.76791549  1
  I  I7  1  0.92264479  0.32853383  0.61485557  1
  I  I8  1  0.07735521  0.67146617  0.38514443  1
  I  I9  1  0.61696877  0.13506977  0.23208451  1
  I  I10  1  0.93765457  0.79876346  0.06271858  1
  I  I11  1  0.30763520  0.44798044  0.08640342  1
  I  I12  1  0.67146617  0.07735521  0.88514443  1
  I  I13  1  0.13506977  0.61696877  0.73208451  1
  I  I14  1  0.79876346  0.93765457  0.56271858  1
  I  I15  1  0.44798044  0.30763520  0.58640342  1
loop_
_geom_bond_atom_site_label_1
_geom_bond_atom_site_label_2
_geom_bond_distance
_geom_bond_site_symmetry_2
Ba0 I8 3.564062 1_645
Ba0 I3 3.564062 1_645
Ba0 I2 3.582000 1_555
Ba0 I9 3.582000 1_555
Ba0 I1 3.628338 1_655
Ba0 I10 3.628338 1_545
Ba0 I5 3.767798 1_654
Ba0 I14 3.767798 1_545
Ba1 I7 3.564062 1_465
Ba1 I12 3.564062 1_465
Ba1 I13 3.582000 1_555
Ba1 I6 3.582000 1_555
Ba1 I14 3.628338 1_455
Ba1 I5 3.628338 1_565
Ba1 I10 3.767798 1_456
Ba1 I1 3.767798 1_565
I0 In0 2.666080 1_555
I1 In0 2.820692 1_545
I2 In2 2.756747 1_655
I3 In0 2.750169 1_555
I4 In1 2.666080 1_555
I5 In1 2.820692 1_455
I6 In3 2.756747 1_565
I7 In1 2.750169 1_555
I8 In2 2.750169 1_555
I9 In0 2.756747 1_545
I10 In2 2.820692 1_655
I11 In2 2.666080 1_555
I12 In3 2.750169 1_555
I13 In1 2.756747 1_455
I14 In3 2.820692 1_565
I15 In3 2.666080 1_555
