# generated using pymatgen
data_LuBeC
_symmetry_space_group_name_H-M   'P 1'
_cell_length_a   3.26638466
_cell_length_b   3.26638562
_cell_length_c   7.32019595
_cell_angle_alpha   90.00000000
_cell_angle_beta   90.00000000
_cell_angle_gamma   120.00002033
_symmetry_Int_Tables_number   1
_chemical_formula_structural   LuBeC
_chemical_formula_sum   'Lu2 Be2 C2'
_cell_volume   67.63757566
_cell_formula_units_Z   2
loop_
 _symmetry_equiv_pos_site_id
 _symmetry_equiv_pos_as_xyz
  1  'x, y, z'
loop_
 _atom_site_type_symbol
 _atom_site_label
 _atom_site_symmetry_multiplicity
 _atom_site_fract_x
 _atom_site_fract_y
 _atom_site_fract_z
 _atom_site_occupancy
  Lu  Lu0  1  0.00000000  0.00000000  0.50000000  1
  Lu  Lu1  1  0.00000000  0.00000000  0.00000000  1
  Be  Be0  1  0.33333300  0.66666700  0.75000000  1
  Be  Be1  1  0.66666700  0.33333300  0.25000000  1
  C  C0  1  0.33333300  0.66666700  0.25000000  1
  C  C1  1  0.66666700  0.33333300  0.75000000  1
loop_
_geom_bond_atom_site_label_1
_geom_bond_atom_site_label_2
_geom_bond_distance
_geom_bond_site_symmetry_2
Be0 C1 1.885846 1_455
Be0 C1 1.885846 1_565
Be0 C1 1.885852 1_555
Be0 Lu0 2.627831 1_565
Be0 Lu1 2.627831 1_566
Be0 Lu1 2.627833 1_666
Be0 Lu0 2.627833 1_665
Be0 Lu0 2.627833 1_555
Be0 Lu1 2.627833 1_556
Be1 C0 1.885846 1_655
Be1 C0 1.885846 1_545
Be1 C0 1.885852 1_555
Be1 Lu0 2.627831 1_655
Be1 Lu1 2.627831 1_655
Be1 Lu1 2.627833 1_555
Be1 Lu0 2.627833 1_555
Be1 Lu1 2.627833 1_665
Be1 Lu0 2.627833 1_665
C0 Lu1 2.627831 1_565
C0 Lu0 2.627831 1_565
C0 Lu1 2.627833 1_665
C0 Lu0 2.627833 1_665
C0 Lu0 2.627833 1_555
C0 Lu1 2.627833 1_555
C1 Lu0 2.627831 1_655
C1 Lu1 2.627831 1_656
C1 Lu1 2.627833 1_556
C1 Lu0 2.627833 1_555
C1 Lu1 2.627833 1_666
C1 Lu0 2.627833 1_665
