# generated using pymatgen
data_Tc(S2F3)2
_symmetry_space_group_name_H-M   'P 1'
_cell_length_a   6.46637897
_cell_length_b   6.10655116
_cell_length_c   6.54648841
_cell_angle_alpha   69.08735365
_cell_angle_beta   61.70720261
_cell_angle_gamma   60.33831101
_symmetry_Int_Tables_number   1
_chemical_formula_structural   Tc(S2F3)2
_chemical_formula_sum   'Tc1 S4 F6'
_cell_volume   195.24805539
_cell_formula_units_Z   1
loop_
 _symmetry_equiv_pos_site_id
 _symmetry_equiv_pos_as_xyz
  1  'x, y, z'
loop_
 _atom_site_type_symbol
 _atom_site_label
 _atom_site_symmetry_multiplicity
 _atom_site_fract_x
 _atom_site_fract_y
 _atom_site_fract_z
 _atom_site_occupancy
  Tc  Tc0  1  0.99999596  0.00000618  0.00000242  1
  S  S0  1  0.53934199  0.68986275  0.29981547  1
  S  S1  1  0.24643348  0.58430696  0.51618354  1
  S  S2  1  0.75357260  0.41569121  0.48380687  1
  S  S3  1  0.46066365  0.31013358  0.70017407  1
  F  F0  1  0.00588211  0.65806878  0.14412519  1
  F  F1  1  0.12932763  0.98583774  0.22200188  1
  F  F2  1  0.65330199  0.14090483  0.21336956  1
  F  F3  1  0.34668913  0.85909962  0.78663874  1
  F  F4  1  0.87067428  0.01416113  0.77800087  1
  F  F5  1  0.99411917  0.34192623  0.85588338  1
loop_
_geom_bond_atom_site_label_1
_geom_bond_atom_site_label_2
_geom_bond_distance
_geom_bond_site_symmetry_2
S0 S2 2.004866 1_555
S0 S1 2.005651 1_555
S1 S3 2.004864 1_555
S2 S3 2.005658 1_555
F0 Tc0 1.949510 1_465
F1 Tc0 1.951873 1_465
F2 Tc0 1.922924 1_555
F3 Tc0 1.922920 1_466
F4 Tc0 1.951872 1_556
F5 Tc0 1.949430 1_556
