# generated using pymatgen
data_Cs2Hf(TeO4)3
_symmetry_space_group_name_H-M   'P 1'
_cell_length_a   7.34582154
_cell_length_b   7.34582165
_cell_length_c   7.34582209
_cell_angle_alpha   59.01989909
_cell_angle_beta   59.01990059
_cell_angle_gamma   59.01989671
_symmetry_Int_Tables_number   1
_chemical_formula_structural   Cs2Hf(TeO4)3
_chemical_formula_sum   'Cs2 Hf1 Te3 O12'
_cell_volume   274.02349609
_cell_formula_units_Z   1
loop_
 _symmetry_equiv_pos_site_id
 _symmetry_equiv_pos_as_xyz
  1  'x, y, z'
loop_
 _atom_site_type_symbol
 _atom_site_label
 _atom_site_symmetry_multiplicity
 _atom_site_fract_x
 _atom_site_fract_y
 _atom_site_fract_z
 _atom_site_occupancy
  Cs  Cs0  1  0.37297140  0.37297140  0.37297140  1
  Cs  Cs1  1  0.62702860  0.62702860  0.62702860  1
  Hf  Hf0  1  0.00000000  0.00000000  0.00000000  1
  Te  Te0  1  0.50000000  0.00000000  0.00000000  1
  Te  Te1  1  0.00000000  0.00000000  0.50000000  1
  Te  Te2  1  0.00000000  0.50000000  0.00000000  1
  O  O0  1  0.92739544  0.31880932  0.31880932  1
  O  O1  1  0.33158073  0.93354523  0.93354523  1
  O  O2  1  0.31880932  0.31880932  0.92739544  1
  O  O3  1  0.93354523  0.93354523  0.33158073  1
  O  O4  1  0.93354523  0.33158073  0.93354523  1
  O  O5  1  0.31880932  0.92739544  0.31880932  1
  O  O6  1  0.07260456  0.68119068  0.68119068  1
  O  O7  1  0.66841927  0.06645477  0.06645477  1
  O  O8  1  0.68119068  0.68119068  0.07260456  1
  O  O9  1  0.06645477  0.06645477  0.66841927  1
  O  O10  1  0.06645477  0.66841927  0.06645477  1
  O  O11  1  0.68119068  0.07260456  0.68119068  1
loop_
_geom_bond_atom_site_label_1
_geom_bond_atom_site_label_2
_geom_bond_distance
_geom_bond_site_symmetry_2
Cs0 O10 3.163463 1_555
Cs0 O9 3.163463 1_555
Cs0 O7 3.163463 1_555
Cs0 O11 3.180003 1_555
Cs0 O8 3.180003 1_555
Cs0 O6 3.180003 1_555
Cs1 O4 3.163463 1_555
Cs1 O3 3.163463 1_555
Cs1 O1 3.163463 1_555
Cs1 O5 3.180003 1_555
Cs1 O2 3.180003 1_555
Cs1 O0 3.180003 1_555
Hf0 O1 2.050987 1_544
Hf0 O7 2.050987 1_455
Hf0 O4 2.050987 1_454
Hf0 O10 2.050987 1_545
Hf0 O3 2.050987 1_445
Hf0 O9 2.050987 1_554
O0 Te1 1.943332 1_655
O0 Te2 1.943332 1_655
O1 Te0 1.869773 1_566
O2 Te0 1.943332 1_556
O2 Te2 1.943332 1_556
O3 Te1 1.869774 1_665
O4 Te2 1.869773 1_656
O5 Te1 1.943332 1_565
O5 Te0 1.943332 1_565
O6 Te1 1.943332 1_565
O6 Te2 1.943332 1_556
O7 Te0 1.869773 1_555
O8 Te0 1.943332 1_565
O8 Te2 1.943332 1_655
O9 Te1 1.869774 1_555
O10 Te2 1.869773 1_555
O11 Te1 1.943332 1_655
O11 Te0 1.943332 1_556
