# generated using pymatgen
data_Cd3Bi(Ir2O7)2
_symmetry_space_group_name_H-M   'P 1'
_cell_length_a   7.16660360
_cell_length_b   7.22611933
_cell_length_c   7.16652531
_cell_angle_alpha   60.27122181
_cell_angle_beta   59.99952211
_cell_angle_gamma   60.27168715
_symmetry_Int_Tables_number   1
_chemical_formula_structural   Cd3Bi(Ir2O7)2
_chemical_formula_sum   'Cd3 Bi1 Ir4 O14'
_cell_volume   263.49984550
_cell_formula_units_Z   1
loop_
 _symmetry_equiv_pos_site_id
 _symmetry_equiv_pos_as_xyz
  1  'x, y, z'
loop_
 _atom_site_type_symbol
 _atom_site_label
 _atom_site_symmetry_multiplicity
 _atom_site_fract_x
 _atom_site_fract_y
 _atom_site_fract_z
 _atom_site_occupancy
  Cd  Cd0  1  0.62500000  0.12500000  0.12500000  1
  Cd  Cd1  1  0.12500000  0.12500000  0.62500000  1
  Cd  Cd2  1  0.12500000  0.12500000  0.12500000  1
  Bi  Bi0  1  0.12500000  0.62500000  0.12500000  1
  Ir  Ir0  1  0.12500000  0.62500000  0.62500000  1
  Ir  Ir1  1  0.62500000  0.12500000  0.62500000  1
  Ir  Ir2  1  0.62500000  0.62500000  0.12500000  1
  Ir  Ir3  1  0.62500000  0.62500000  0.62500000  1
  O  O0  1  0.71374228  0.69743887  0.29440850  1
  O  O1  1  0.29766813  0.30007454  0.70113227  1
  O  O2  1  0.70112734  0.30006890  0.70113275  1
  O  O3  1  0.29440503  0.69743715  0.29441924  1
  O  O4  1  0.29439865  0.69743650  0.71374945  1
  O  O5  1  0.70112787  0.30006650  0.29767846  1
  O  O6  1  0.53625772  0.55256113  0.95559150  1
  O  O7  1  0.95233187  0.94992546  0.54886773  1
  O  O8  1  0.54887266  0.94993110  0.54886725  1
  O  O9  1  0.95559497  0.55256285  0.95558076  1
  O  O10  1  0.95560135  0.55256350  0.53625055  1
  O  O11  1  0.54887213  0.94993350  0.95232154  1
  O  O12  1  0.25049551  0.24851399  0.25049214  1
  O  O13  1  0.99950449  0.00148601  0.99950786  1
loop_
_geom_bond_atom_site_label_1
_geom_bond_atom_site_label_2
_geom_bond_distance
_geom_bond_site_symmetry_2
Cd0 O13 2.194401 1_554
Cd0 O12 2.194401 1_555
Cd0 O8 2.518200 1_545
Cd0 O2 2.518200 1_554
Cd0 O5 2.518284 1_555
Cd0 O11 2.518284 1_544
Cd0 O6 2.554853 1_554
Cd0 O0 2.554853 1_545
Cd1 O13 2.194386 1_455
Cd1 O12 2.194386 1_555
Cd1 O8 2.518269 1_545
Cd1 O2 2.518269 1_455
Cd1 O1 2.518298 1_555
Cd1 O7 2.518298 1_445
Cd1 O10 2.554868 1_455
Cd1 O4 2.554868 1_545
Cd2 O12 2.194396 1_555
Cd2 O13 2.194396 1_454
Cd2 O1 2.518206 1_554
Cd2 O7 2.518206 1_445
Cd2 O11 2.518267 1_544
Cd2 O5 2.518267 1_455
Cd2 O9 2.554863 1_454
Cd2 O3 2.554863 1_545
Bi0 O13 2.230379 1_464
Bi0 O12 2.230379 1_555
Bi0 O4 2.440531 1_554
Bi0 O10 2.440531 1_455
Bi0 O6 2.440607 1_554
Bi0 O0 2.440607 1_455
Bi0 O3 2.440640 1_555
Bi0 O9 2.440640 1_454
Ir0 O7 1.965933 1_455
Ir0 O1 1.965933 1_555
Ir0 O9 1.970964 1_455
Ir0 O3 1.970964 1_555
Ir0 O4 1.971017 1_555
Ir0 O10 1.971017 1_455
Ir1 O11 1.965234 1_545
Ir1 O5 1.965234 1_555
Ir1 O2 1.965321 1_555
Ir1 O8 1.965321 1_545
Ir1 O7 1.965332 1_545
Ir1 O1 1.965332 1_555
Ir2 O11 1.965981 1_554
Ir2 O5 1.965981 1_555
Ir2 O0 1.971049 1_555
Ir2 O6 1.971049 1_554
Ir2 O9 1.971082 1_554
Ir2 O3 1.971082 1_555
Ir3 O8 1.965971 1_555
Ir3 O2 1.965971 1_555
Ir3 O6 1.971029 1_555
Ir3 O0 1.971029 1_555
Ir3 O10 1.971119 1_555
Ir3 O4 1.971119 1_555
