# generated using pymatgen
data_Sr3ScBi3
_symmetry_space_group_name_H-M   'P 1'
_cell_length_a   4.93265064
_cell_length_b   13.80998222
_cell_length_c   15.40118147
_cell_angle_alpha   90.00000000
_cell_angle_beta   90.00000000
_cell_angle_gamma   90.00000000
_symmetry_Int_Tables_number   1
_chemical_formula_structural   Sr3ScBi3
_chemical_formula_sum   'Sr12 Sc4 Bi12'
_cell_volume   1049.12567333
_cell_formula_units_Z   4
loop_
 _symmetry_equiv_pos_site_id
 _symmetry_equiv_pos_as_xyz
  1  'x, y, z'
loop_
 _atom_site_type_symbol
 _atom_site_label
 _atom_site_symmetry_multiplicity
 _atom_site_fract_x
 _atom_site_fract_y
 _atom_site_fract_z
 _atom_site_occupancy
  Sr  Sr0  1  0.25000000  0.84746319  0.49620380  1
  Sr  Sr1  1  0.25000000  0.34746319  0.00379620  1
  Sr  Sr2  1  0.75000000  0.15253681  0.50379620  1
  Sr  Sr3  1  0.75000000  0.22618991  0.21452499  1
  Sr  Sr4  1  0.75000000  0.43282029  0.39431833  1
  Sr  Sr5  1  0.25000000  0.56717971  0.60568167  1
  Sr  Sr6  1  0.75000000  0.93282029  0.10568167  1
  Sr  Sr7  1  0.25000000  0.06717971  0.89431833  1
  Sr  Sr8  1  0.25000000  0.27381009  0.71452499  1
  Sr  Sr9  1  0.75000000  0.72618991  0.28547501  1
  Sr  Sr10  1  0.25000000  0.77381009  0.78547501  1
  Sr  Sr11  1  0.75000000  0.65253681  0.99620380  1
  Sc  Sc0  1  0.75000000  0.94635264  0.70355675  1
  Sc  Sc1  1  0.25000000  0.05364736  0.29644325  1
  Sc  Sc2  1  0.25000000  0.55364736  0.20355675  1
  Sc  Sc3  1  0.75000000  0.44635264  0.79644325  1
  Bi  Bi0  1  0.75000000  0.45856443  0.14618503  1
  Bi  Bi1  1  0.25000000  0.54143557  0.85381497  1
  Bi  Bi2  1  0.75000000  0.95856443  0.35381497  1
  Bi  Bi3  1  0.25000000  0.04143557  0.64618503  1
  Bi  Bi4  1  0.75000000  0.39440075  0.61183231  1
  Bi  Bi5  1  0.25000000  0.60559925  0.38816769  1
  Bi  Bi6  1  0.75000000  0.89440075  0.88816769  1
  Bi  Bi7  1  0.25000000  0.10559925  0.11183231  1
  Bi  Bi8  1  0.75000000  0.25258831  0.87384045  1
  Bi  Bi9  1  0.25000000  0.74741169  0.12615955  1
  Bi  Bi10  1  0.75000000  0.75258831  0.62615955  1
  Bi  Bi11  1  0.25000000  0.24741169  0.37384045  1
loop_
_geom_bond_atom_site_label_1
_geom_bond_atom_site_label_2
_geom_bond_distance
_geom_bond_site_symmetry_2
Bi0 Sc2 2.930480 1_655
Bi0 Sc2 2.930480 1_555
Bi0 Sr3 3.377282 1_555
Bi0 Sr11 3.537133 1_554
Bi0 Sr1 3.639494 1_655
Bi0 Sr1 3.639494 1_555
Bi0 Sr4 3.838048 1_555
Bi1 Sc3 2.930480 1_455
Bi1 Sc3 2.930480 1_555
Bi1 Sr10 3.377282 1_555
Bi1 Sr1 3.537133 1_556
Bi1 Sr11 3.639494 1_555
Bi1 Sr11 3.639494 1_455
Bi1 Sr5 3.838048 1_555
Bi2 Sc1 2.930480 1_565
Bi2 Sc1 2.930480 1_665
Bi2 Sr9 3.377282 1_555
Bi2 Sr2 3.537133 1_565
Bi2 Sr0 3.639494 1_655
Bi2 Sr0 3.639494 1_555
Bi2 Sr6 3.838048 1_555
Bi3 Sc0 2.930480 1_445
Bi3 Sc0 2.930480 1_545
Bi3 Sr8 3.377282 1_555
Bi3 Sr0 3.537133 1_545
Bi3 Sr2 3.639494 1_555
Bi3 Sr2 3.639494 1_455
Bi3 Sr7 3.838048 1_555
Bi4 Sc3 2.932350 1_555
Bi4 Sr8 3.370102 1_555
Bi4 Sr8 3.370102 1_655
Bi4 Sr4 3.391728 1_555
Bi4 Sr5 3.432941 1_555
Bi4 Sr5 3.432941 1_655
Bi4 Sr2 3.731625 1_555
Bi5 Sc2 2.932350 1_555
Bi5 Sr9 3.370102 1_455
Bi5 Sr9 3.370102 1_555
Bi5 Sr5 3.391728 1_555
Bi5 Sr4 3.432941 1_555
Bi5 Sr4 3.432941 1_455
Bi5 Sr0 3.731625 1_555
Bi6 Sc0 2.932350 1_555
Bi6 Sr10 3.370102 1_655
Bi6 Sr10 3.370102 1_555
Bi6 Sr6 3.391728 1_556
Bi6 Sr7 3.432941 1_565
Bi6 Sr7 3.432941 1_665
Bi6 Sr11 3.731625 1_555
Bi7 Sc1 2.932350 1_555
Bi7 Sr3 3.370102 1_455
Bi7 Sr3 3.370102 1_555
Bi7 Sr7 3.391728 1_554
Bi7 Sr6 3.432941 1_445
Bi7 Sr6 3.432941 1_545
Bi7 Sr1 3.731625 1_555
Bi8 Sc3 2.929373 1_555
Bi8 Sr1 3.435888 1_656
Bi8 Sr1 3.435888 1_556
Bi8 Sr8 3.491279 1_555
Bi8 Sr8 3.491279 1_655
Bi8 Sr7 3.569080 1_555
Bi8 Sr7 3.569080 1_655
Bi9 Sc2 2.929373 1_555
Bi9 Sr11 3.435888 1_454
Bi9 Sr11 3.435888 1_554
Bi9 Sr9 3.491279 1_455
Bi9 Sr9 3.491279 1_555
Bi9 Sr6 3.569080 1_455
Bi9 Sr6 3.569080 1_555
Bi10 Sc0 2.929373 1_555
Bi10 Sr0 3.435888 1_555
Bi10 Sr0 3.435888 1_655
Bi10 Sr10 3.491279 1_555
Bi10 Sr10 3.491279 1_655
Bi10 Sr5 3.569080 1_555
Bi10 Sr5 3.569080 1_655
Bi11 Sc1 2.929373 1_555
Bi11 Sr2 3.435888 1_455
Bi11 Sr2 3.435888 1_555
Bi11 Sr3 3.491279 1_455
Bi11 Sr3 3.491279 1_555
Bi11 Sr4 3.569080 1_555
Bi11 Sr4 3.569080 1_455
