# generated using pymatgen
data_FeRhCl6
_symmetry_space_group_name_H-M   'P 1'
_cell_length_a   6.04612007
_cell_length_b   6.04607992
_cell_length_c   11.85778512
_cell_angle_alpha   90.00487791
_cell_angle_beta   89.99713984
_cell_angle_gamma   119.99831694
_symmetry_Int_Tables_number   1
_chemical_formula_structural   FeRhCl6
_chemical_formula_sum   'Fe2 Rh2 Cl12'
_cell_volume   375.39823201
_cell_formula_units_Z   2
loop_
 _symmetry_equiv_pos_site_id
 _symmetry_equiv_pos_as_xyz
  1  'x, y, z'
loop_
 _atom_site_type_symbol
 _atom_site_label
 _atom_site_symmetry_multiplicity
 _atom_site_fract_x
 _atom_site_fract_y
 _atom_site_fract_z
 _atom_site_occupancy
  Fe  Fe0  1  0.99999423  0.99998660  0.25001016  1
  Fe  Fe1  1  0.00000577  0.00001340  0.74998984  1
  Rh  Rh0  1  0.33345454  0.66672063  0.25000684  1
  Rh  Rh1  1  0.66654546  0.33327937  0.74999316  1
  Cl  Cl0  1  0.66082064  0.97438816  0.13687333  1
  Cl  Cl1  1  0.02561034  0.68644922  0.13686296  1
  Cl  Cl2  1  0.31358830  0.33916890  0.13687113  1
  Cl  Cl3  1  0.02558796  0.33916368  0.36314771  1
  Cl  Cl4  1  0.33918552  0.31357461  0.63687257  1
  Cl  Cl5  1  0.68645721  0.02562818  0.63686553  1
  Cl  Cl6  1  0.97441204  0.66083632  0.63685229  1
  Cl  Cl7  1  0.68641170  0.66083110  0.86312887  1
  Cl  Cl8  1  0.97438966  0.31355078  0.86313704  1
  Cl  Cl9  1  0.33917936  0.02561184  0.86312667  1
  Cl  Cl10  1  0.66081448  0.68642539  0.36312743  1
  Cl  Cl11  1  0.31354279  0.97437182  0.36313447  1
loop_
_geom_bond_atom_site_label_1
_geom_bond_atom_site_label_2
_geom_bond_distance
_geom_bond_site_symmetry_2
Cl0 Rh0 2.344364 1_555
Cl0 Fe0 2.389957 1_555
Cl1 Rh0 2.345377 1_555
Cl1 Fe0 2.389724 1_455
Cl2 Rh0 2.344751 1_555
Cl2 Fe0 2.390063 1_445
Cl3 Rh0 2.345385 1_555
Cl3 Fe0 2.389834 1_445
Cl4 Rh1 2.344216 1_555
Cl4 Fe1 2.389829 1_555
Cl5 Rh1 2.344644 1_555
Cl5 Fe1 2.389789 1_655
Cl6 Rh1 2.345385 1_555
Cl6 Fe1 2.389834 1_665
Cl7 Rh1 2.344751 1_555
Cl7 Fe1 2.390063 1_665
Cl8 Rh1 2.345377 1_555
Cl8 Fe1 2.389724 1_655
Cl9 Rh1 2.344364 1_555
Cl9 Fe1 2.389957 1_555
Cl10 Rh0 2.344216 1_555
Cl10 Fe0 2.389829 1_555
Cl11 Rh0 2.344644 1_555
Cl11 Fe0 2.389789 1_455
