# generated using pymatgen
data_Ba(CaP)2
_symmetry_space_group_name_H-M   'P 1'
_cell_length_a   4.77490704
_cell_length_b   4.77490805
_cell_length_c   7.87521823
_cell_angle_alpha   90.00000000
_cell_angle_beta   90.00000000
_cell_angle_gamma   119.99997923
_symmetry_Int_Tables_number   1
_chemical_formula_structural   Ba(CaP)2
_chemical_formula_sum   'Ba1 Ca2 P2'
_cell_volume   155.49744366
_cell_formula_units_Z   1
loop_
 _symmetry_equiv_pos_site_id
 _symmetry_equiv_pos_as_xyz
  1  'x, y, z'
loop_
 _atom_site_type_symbol
 _atom_site_label
 _atom_site_symmetry_multiplicity
 _atom_site_fract_x
 _atom_site_fract_y
 _atom_site_fract_z
 _atom_site_occupancy
  Ba  Ba0  1  0.00000000  0.00000000  0.00000000  1
  Ca  Ca0  1  0.33333300  0.66666700  0.63741521  1
  Ca  Ca1  1  0.66666700  0.33333300  0.36258479  1
  P  P0  1  0.66666700  0.33333300  0.74064323  1
  P  P1  1  0.33333300  0.66666700  0.25935677  1
loop_
_geom_bond_atom_site_label_1
_geom_bond_atom_site_label_2
_geom_bond_distance
_geom_bond_site_symmetry_2
Ba0 P1 3.430986 1_545
Ba0 P0 3.430986 1_454
Ba0 P1 3.430990 1_445
Ba0 P0 3.430990 1_554
Ba0 P1 3.430991 1_555
Ba0 P0 3.430991 1_444
Ca0 P0 2.874157 1_455
Ca0 P0 2.874157 1_565
Ca0 P0 2.874164 1_555
Ca0 P1 2.977293 1_555
Ca1 P1 2.874157 1_655
Ca1 P1 2.874157 1_545
Ca1 P1 2.874164 1_555
Ca1 P0 2.977293 1_555
