# generated using pymatgen
data_Zr10Ga5BiS
_symmetry_space_group_name_H-M   'P 1'
_cell_length_a   8.27820699
_cell_length_b   8.25189376
_cell_length_c   5.80180101
_cell_angle_alpha   89.98431937
_cell_angle_beta   90.00781752
_cell_angle_gamma   119.89490477
_symmetry_Int_Tables_number   1
_chemical_formula_structural   Zr10Ga5BiS
_chemical_formula_sum   'Zr10 Ga5 Bi1 S1'
_cell_volume   343.59141392
_cell_formula_units_Z   1
loop_
 _symmetry_equiv_pos_site_id
 _symmetry_equiv_pos_as_xyz
  1  'x, y, z'
loop_
 _atom_site_type_symbol
 _atom_site_label
 _atom_site_symmetry_multiplicity
 _atom_site_fract_x
 _atom_site_fract_y
 _atom_site_fract_z
 _atom_site_occupancy
  Zr  Zr0  1  0.00000000  0.76026610  0.23385081  1
  Zr  Zr1  1  0.26086656  0.24834547  0.24301774  1
  Zr  Zr2  1  0.73913344  0.98747890  0.24301774  1
  Zr  Zr3  1  1.00000000  0.25056391  0.75569709  1
  Zr  Zr4  1  0.74747801  0.74639003  0.75932461  1
  Zr  Zr5  1  0.25252199  0.99891202  0.75932461  1
  Zr  Zr6  1  0.34846695  0.67451796  0.50453363  1
  Zr  Zr7  1  0.65153305  0.32604902  0.50453363  1
  Zr  Zr8  1  0.65344994  0.32929351  0.99506103  1
  Zr  Zr9  1  0.34655006  0.67584457  0.99506103  1
  Ga  Ga0  1  0.60891082  0.60460819  0.24797657  1
  Ga  Ga1  1  0.39108918  0.99569637  0.24797657  1
  Ga  Ga2  1  0.00000000  0.60824200  0.75024615  1
  Ga  Ga3  1  0.38850086  0.39192870  0.75365974  1
  Ga  Ga4  1  0.61149914  0.00342784  0.75365974  1
  Bi  Bi0  1  1.00000000  0.39646827  0.25127673  1
  S  S0  1  1.00000000  0.00196714  0.50178458  1
loop_
_geom_bond_atom_site_label_1
_geom_bond_atom_site_label_2
_geom_bond_distance
_geom_bond_site_symmetry_2
Ga0 Zr2 2.783829 1_555
Ga0 Zr0 2.827160 1_655
Ga0 Zr8 2.878792 1_554
Ga0 Zr7 2.903498 1_555
Ga0 Zr6 2.904815 1_555
Ga0 Zr9 2.913257 1_554
Ga0 Zr1 2.915723 1_555
Ga0 Zr4 3.063249 1_554
Ga0 Zr4 3.185806 1_555
Ga1 Zr1 2.783837 1_565
Ga1 Zr0 2.827159 1_555
Ga1 Zr9 2.878778 1_554
Ga1 Zr6 2.903477 1_555
Ga1 Zr7 2.904810 1_565
Ga1 Zr8 2.913257 1_564
Ga1 Zr2 2.915718 1_555
Ga1 Zr5 3.063250 1_554
Ga1 Zr5 3.185808 1_555
Ga2 Zr4 2.836859 1_455
Ga2 Zr5 2.836860 1_555
Ga2 Zr3 2.951682 1_455
Ga2 Zr9 2.993789 1_555
Ga2 Zr8 2.993791 1_455
Ga2 Zr6 3.013441 1_555
Ga2 Zr7 3.013446 1_455
Ga2 Zr0 3.073769 1_556
Ga2 Zr0 3.247743 1_555
Ga3 Zr3 2.822133 1_455
Ga3 Zr5 2.854293 1_545
Ga3 Zr8 2.857987 1_555
Ga3 Zr7 2.882210 1_555
Ga3 Zr9 2.895523 1_555
Ga3 Zr6 2.899151 1_555
Ga3 Zr4 2.953478 1_555
Ga3 Zr1 3.054848 1_556
Ga3 Zr1 3.170272 1_555
Ga4 Zr3 2.822133 1_555
Ga4 Zr4 2.854293 1_545
Ga4 Zr9 2.857982 1_545
Ga4 Zr6 2.882200 1_545
Ga4 Zr8 2.895516 1_555
Ga4 Zr7 2.899137 1_555
Ga4 Zr5 2.953478 1_545
Ga4 Zr2 3.054848 1_546
Ga4 Zr2 3.170272 1_545
Bi0 Zr1 2.964961 1_655
Bi0 Zr2 2.964961 1_545
Bi0 Zr0 3.003695 1_655
Bi0 Zr7 3.024531 1_555
Bi0 Zr6 3.024535 1_655
Bi0 Zr8 3.026744 1_554
Bi0 Zr9 3.026747 1_654
Bi0 Zr3 3.117462 1_554
Bi0 Zr3 3.164227 1_555
S0 Zr3 2.525875 1_555
S0 Zr0 2.529063 1_645
S0 Zr5 2.579692 1_645
S0 Zr4 2.579692 1_545
S0 Zr2 2.583324 1_545
S0 Zr1 2.583324 1_655
