# generated using pymatgen
data_CsRb2NiH5
_symmetry_space_group_name_H-M   'P 1'
_cell_length_a   7.70889037
_cell_length_b   7.70889037
_cell_length_c   6.02626716
_cell_angle_alpha   90.00000000
_cell_angle_beta   90.00000000
_cell_angle_gamma   90.00000000
_symmetry_Int_Tables_number   1
_chemical_formula_structural   CsRb2NiH5
_chemical_formula_sum   'Cs2 Rb4 Ni2 H10'
_cell_volume   358.12292265
_cell_formula_units_Z   2
loop_
 _symmetry_equiv_pos_site_id
 _symmetry_equiv_pos_as_xyz
  1  'x, y, z'
loop_
 _atom_site_type_symbol
 _atom_site_label
 _atom_site_symmetry_multiplicity
 _atom_site_fract_x
 _atom_site_fract_y
 _atom_site_fract_z
 _atom_site_occupancy
  Cs  Cs0  1  0.50000000  0.50000000  0.00000000  1
  Cs  Cs1  1  0.00000000  0.00000000  0.00000000  1
  Rb  Rb0  1  0.18133152  0.68133152  0.50000000  1
  Rb  Rb1  1  0.81866848  0.31866848  0.50000000  1
  Rb  Rb2  1  0.68133152  0.81866848  0.50000000  1
  Rb  Rb3  1  0.31866848  0.18133152  0.50000000  1
  Ni  Ni0  1  0.50000000  0.00000000  0.00000000  1
  Ni  Ni1  1  0.00000000  0.50000000  0.00000000  1
  H  H0  1  0.50000000  0.50000000  0.50000000  1
  H  H1  1  0.00000000  0.00000000  0.50000000  1
  H  H2  1  0.59975178  0.09975178  0.82057377  1
  H  H3  1  0.40024822  0.90024822  0.82057377  1
  H  H4  1  0.09975178  0.40024822  0.82057377  1
  H  H5  1  0.90024822  0.59975178  0.82057377  1
  H  H6  1  0.40024822  0.90024822  0.17942623  1
  H  H7  1  0.59975178  0.09975178  0.17942623  1
  H  H8  1  0.90024822  0.59975178  0.17942623  1
  H  H9  1  0.09975178  0.40024822  0.17942623  1
loop_
_geom_bond_atom_site_label_1
_geom_bond_atom_site_label_2
_geom_bond_distance
_geom_bond_site_symmetry_2
Cs0 H0 3.013134 1_555
Cs0 H0 3.013134 1_554
Cs0 H8 3.358659 1_555
Cs0 H6 3.358659 1_555
Cs0 H5 3.358659 1_554
Cs0 H3 3.358659 1_554
Cs0 H7 3.358659 1_555
Cs0 H9 3.358659 1_555
Cs0 H2 3.358659 1_554
Cs0 H4 3.358659 1_554
Cs1 H1 3.013134 1_555
Cs1 H1 3.013134 1_554
Cs1 H9 3.358659 1_555
Cs1 H4 3.358659 1_554
Cs1 H6 3.358659 1_545
Cs1 H3 3.358659 1_544
Cs1 H7 3.358659 1_455
Cs1 H8 3.358659 1_445
Cs1 H2 3.358659 1_454
Cs1 H5 3.358659 1_444
H0 Rb2 2.826449 1_555
H0 Rb1 2.826449 1_555
H0 Rb0 2.826449 1_555
H0 Rb3 2.826449 1_555
H1 Rb3 2.826449 1_555
H1 Rb1 2.826449 1_455
H1 Rb0 2.826449 1_545
H1 Rb2 2.826449 1_445
H2 Ni0 1.533556 1_556
H2 Rb2 2.970319 1_545
H2 Rb3 2.970319 1_555
H2 Rb1 3.070524 1_555
H3 Ni0 1.533556 1_566
H3 Rb3 2.970319 1_565
H3 Rb2 2.970319 1_555
H3 Rb0 3.070524 1_555
H4 Ni1 1.533556 1_556
H4 Rb1 2.970319 1_455
H4 Rb0 2.970319 1_555
H4 Rb3 3.070524 1_555
H5 Ni1 1.533556 1_656
H5 Rb0 2.970319 1_655
H5 Rb1 2.970319 1_555
H5 Rb2 3.070524 1_555
H6 Ni0 1.533556 1_565
H6 Rb2 2.970319 1_555
H6 Rb3 2.970319 1_565
H6 Rb0 3.070524 1_555
H7 Ni0 1.533556 1_555
H7 Rb2 2.970319 1_545
H7 Rb3 2.970319 1_555
H7 Rb1 3.070524 1_555
H8 Ni1 1.533556 1_655
H8 Rb0 2.970319 1_655
H8 Rb1 2.970319 1_555
H8 Rb2 3.070524 1_555
H9 Ni1 1.533556 1_555
H9 Rb1 2.970319 1_455
H9 Rb0 2.970319 1_555
H9 Rb3 3.070524 1_555
