# generated using pymatgen
data_Cs12Nb3TcS16
_symmetry_space_group_name_H-M   'P 1'
_cell_length_a   10.01074064
_cell_length_b   10.03953205
_cell_length_c   11.65147881
_cell_angle_alpha   90.00000000
_cell_angle_beta   90.00000000
_cell_angle_gamma   89.90083509
_symmetry_Int_Tables_number   1
_chemical_formula_structural   Cs12Nb3TcS16
_chemical_formula_sum   'Cs12 Nb3 Tc1 S16'
_cell_volume   1171.00858529
_cell_formula_units_Z   1
loop_
 _symmetry_equiv_pos_site_id
 _symmetry_equiv_pos_as_xyz
  1  'x, y, z'
loop_
 _atom_site_type_symbol
 _atom_site_label
 _atom_site_symmetry_multiplicity
 _atom_site_fract_x
 _atom_site_fract_y
 _atom_site_fract_z
 _atom_site_occupancy
  Cs  Cs0  1  0.54841258  0.21091154  0.04233252  1
  Cs  Cs1  1  0.04587037  0.29277297  0.45869086  1
  Cs  Cs2  1  0.45346880  0.79012341  0.53962647  1
  Cs  Cs3  1  0.95201367  0.70794096  0.96048327  1
  Cs  Cs4  1  0.45346880  0.79012341  0.96037353  1
  Cs  Cs5  1  0.95201367  0.70794096  0.53951673  1
  Cs  Cs6  1  0.54841258  0.21091154  0.45766748  1
  Cs  Cs7  1  0.04587037  0.29277297  0.04130914  1
  Cs  Cs8  1  0.65023469  0.41261194  0.75000000  1
  Cs  Cs9  1  0.14766553  0.08452770  0.75000000  1
  Cs  Cs10  1  0.35217984  0.58255028  0.25000000  1
  Cs  Cs11  1  0.85042423  0.91833587  0.25000000  1
  Nb  Nb0  1  0.72114332  0.98277953  0.75000000  1
  Nb  Nb1  1  0.22333871  0.51670297  0.75000000  1
  Nb  Nb2  1  0.27741694  0.01561921  0.25000000  1
  Tc  Tc0  1  0.77791752  0.48445479  0.25000000  1
  S  S0  1  0.83119667  0.04801829  0.58751910  1
  S  S1  1  0.33387823  0.45248303  0.91277125  1
  S  S2  1  0.16740183  0.95075045  0.08748668  1
  S  S3  1  0.67128815  0.54662968  0.40702248  1
  S  S4  1  0.16740183  0.95075045  0.41251332  1
  S  S5  1  0.67128815  0.54662968  0.09297752  1
  S  S6  1  0.83119667  0.04801829  0.91248090  1
  S  S7  1  0.33387823  0.45248303  0.58722875  1
  S  S8  1  0.50976056  0.07143204  0.75000000  1
  S  S9  1  0.01201988  0.42801791  0.75000000  1
  S  S10  1  0.48918787  0.92729040  0.25000000  1
  S  S11  1  0.98232652  0.56994992  0.25000000  1
  S  S12  1  0.70599324  0.75520288  0.75000000  1
  S  S13  1  0.20686332  0.74378035  0.75000000  1
  S  S14  1  0.29236216  0.24297530  0.25000000  1
  S  S15  1  0.79410308  0.26450624  0.25000000  1
loop_
_geom_bond_atom_site_label_1
_geom_bond_atom_site_label_2
_geom_bond_distance
_geom_bond_site_symmetry_2
Cs0 S15 3.492575 1_555
Cs0 S14 3.539162 1_555
Cs0 S1 3.571429 1_554
Cs0 S6 3.600187 1_554
Cs0 S5 3.638076 1_555
Cs0 S8 3.703244 1_554
Cs0 S10 3.784151 1_545
Cs1 S14 3.499575 1_555
Cs1 S15 3.513941 1_455
Cs1 S0 3.595515 1_455
Cs1 S7 3.625272 1_555
Cs1 S9 3.671147 1_555
Cs1 S4 3.680462 1_545
Cs1 S11 3.748941 1_455
Cs2 S13 3.510433 1_555
Cs2 S12 3.538164 1_555
Cs2 S4 3.602653 1_555
Cs2 S3 3.619294 1_555
Cs2 S7 3.639416 1_555
Cs2 S10 3.662474 1_555
Cs2 S8 3.782514 1_565
Cs3 S12 3.507303 1_555
Cs3 S13 3.557514 1_655
Cs3 S2 3.577634 1_656
Cs3 S5 3.594342 1_556
Cs3 S11 3.659099 1_556
Cs3 S6 3.663088 1_565
Cs3 S9 3.777200 1_655
Cs4 S13 3.510433 1_555
Cs4 S12 3.538164 1_555
Cs4 S2 3.602653 1_556
Cs4 S5 3.619294 1_556
Cs4 S1 3.639416 1_555
Cs4 S10 3.662474 1_556
Cs4 S8 3.782514 1_565
Cs5 S12 3.507303 1_555
Cs5 S13 3.557514 1_655
Cs5 S4 3.577634 1_655
Cs5 S3 3.594342 1_555
Cs5 S11 3.659099 1_555
Cs5 S0 3.663088 1_565
Cs5 S9 3.777200 1_655
Cs6 S15 3.492575 1_555
Cs6 S14 3.539162 1_555
Cs6 S7 3.571429 1_555
Cs6 S0 3.600187 1_555
Cs6 S3 3.638076 1_555
Cs6 S8 3.703244 1_555
Cs6 S10 3.784151 1_545
Cs7 S14 3.499575 1_555
Cs7 S15 3.513941 1_455
Cs7 S6 3.595515 1_454
Cs7 S1 3.625272 1_554
Cs7 S9 3.671147 1_554
Cs7 S2 3.680462 1_545
Cs7 S11 3.748941 1_455
Cs8 S12 3.485405 1_555
Cs8 S9 3.625306 1_655
Cs8 S8 3.704970 1_555
Cs8 S1 3.712452 1_555
Cs8 S7 3.712452 1_555
Cs9 S13 3.470883 1_545
Cs9 S8 3.626996 1_555
Cs9 S9 3.704017 1_555
Cs9 S6 3.709331 1_455
Cs9 S0 3.709331 1_455
Cs10 S14 3.462386 1_555
Cs10 S5 3.698404 1_555
Cs10 S3 3.698404 1_555
Cs10 S11 3.704885 1_455
Cs10 S10 3.725092 1_555
Cs11 S15 3.519862 1_565
Cs11 S10 3.617205 1_555
Cs11 S4 3.709983 1_655
Cs11 S2 3.709983 1_655
Cs11 S11 3.736443 1_555
Nb0 S6 2.286754 1_565
Nb0 S0 2.286754 1_565
Nb0 S12 2.290053 1_555
Nb0 S8 2.294233 1_565
Nb1 S13 2.285424 1_555
Nb1 S1 2.287914 1_555
Nb1 S7 2.287914 1_555
Nb1 S9 2.296610 1_555
Nb2 S4 2.285818 1_545
Nb2 S2 2.285818 1_545
Nb2 S14 2.287705 1_555
Nb2 S10 2.296563 1_545
S3 Tc0 2.207710 1_555
S5 Tc0 2.207710 1_555
S11 Tc0 2.220382 1_555
S15 Tc0 2.213837 1_555
