# generated using pymatgen
data_Sc7SbTe7
_symmetry_space_group_name_H-M   'P 1'
_cell_length_a   7.97331329
_cell_length_b   7.97331159
_cell_length_c   9.91418081
_cell_angle_alpha   54.42445813
_cell_angle_beta   54.42446706
_cell_angle_gamma   63.21145193
_symmetry_Int_Tables_number   1
_chemical_formula_structural   Sc7SbTe7
_chemical_formula_sum   'Sc7 Sb1 Te7'
_cell_volume   410.90965478
_cell_formula_units_Z   1
loop_
 _symmetry_equiv_pos_site_id
 _symmetry_equiv_pos_as_xyz
  1  'x, y, z'
loop_
 _atom_site_type_symbol
 _atom_site_label
 _atom_site_symmetry_multiplicity
 _atom_site_fract_x
 _atom_site_fract_y
 _atom_site_fract_z
 _atom_site_occupancy
  Sc  Sc0  1  0.74339547  0.25752766  0.49691723  1
  Sc  Sc1  1  0.25752766  0.74339547  0.49691723  1
  Sc  Sc2  1  0.50751527  0.99707445  0.49762563  1
  Sc  Sc3  1  0.99707445  0.50751527  0.49762563  1
  Sc  Sc4  1  0.74684222  0.74684222  0.00680403  1
  Sc  Sc5  1  0.24876870  0.24876870  0.99960167  1
  Sc  Sc6  1  0.99877730  0.99877730  0.00512829  1
  Sb  Sb0  1  0.96062073  0.96062073  0.33380288  1
  Te  Te0  1  0.04060831  0.04060831  0.66746166  1
  Te  Te1  1  0.54191978  0.04411277  0.16505417  1
  Te  Te2  1  0.45926612  0.95636704  0.83390346  1
  Te  Te3  1  0.95636704  0.45926612  0.83390346  1
  Te  Te4  1  0.04411277  0.54191978  0.16505417  1
  Te  Te5  1  0.45585401  0.45585401  0.32867289  1
  Te  Te6  1  0.54134917  0.54134917  0.67152760  1
loop_
_geom_bond_atom_site_label_1
_geom_bond_atom_site_label_2
_geom_bond_distance
_geom_bond_site_symmetry_2
Sc0 Te5 2.941380 1_555
Sc0 Te6 2.956406 1_555
Sc0 Te4 2.959206 1_655
Sc0 Te2 2.970278 1_545
Sc0 Te0 3.005164 1_655
Sc1 Te5 2.941379 1_555
Sc1 Te6 2.956406 1_555
Sc1 Te1 2.959206 1_565
Sc1 Te3 2.970278 1_455
Sc1 Te0 3.005164 1_565
Sc2 Te6 2.935448 1_555
Sc2 Te5 2.944749 1_565
Sc2 Te1 2.947668 1_565
Sc2 Te2 2.954571 1_555
Sc2 Te0 3.006073 1_565
Sc3 Te6 2.935449 1_555
Sc3 Te5 2.944750 1_655
Sc3 Te4 2.947668 1_655
Sc3 Te3 2.954571 1_555
Sc3 Te0 3.006072 1_655
Sc4 Te5 2.927807 1_555
Sc4 Te1 2.932994 1_565
Sc4 Te4 2.932994 1_655
Sc4 Te3 2.962297 1_554
Sc4 Te2 2.962297 1_554
Sc4 Te0 2.983045 1_664
Sc5 Te2 2.944855 1_545
Sc5 Te3 2.944855 1_455
Sc5 Te6 2.951543 1_555
Sc5 Te4 2.953885 1_556
Sc5 Te1 2.953886 1_556
Sc6 Te4 2.945063 1_655
Sc6 Te1 2.945064 1_565
Sc6 Te3 2.962001 1_564
Sc6 Te2 2.962002 1_654
Sc6 Te0 2.988549 1_664
Sb0 Sc3 2.923993 1_555
Sb0 Sc2 2.923994 1_555
Sb0 Sc5 2.928889 1_664
Sb0 Sc6 2.929101 1_555
Sb0 Sc0 2.952756 1_565
Sb0 Sc1 2.952756 1_655
