# generated using pymatgen
data_KCoAs2Ru
_symmetry_space_group_name_H-M   'P 1'
_cell_length_a   7.35001662
_cell_length_b   7.35001643
_cell_length_c   7.35001725
_cell_angle_alpha   149.28871945
_cell_angle_beta   149.28871513
_cell_angle_gamma   43.98650323
_symmetry_Int_Tables_number   1
_chemical_formula_structural   KCoAs2Ru
_chemical_formula_sum   'K1 Co1 As2 Ru1'
_cell_volume   103.27116034
_cell_formula_units_Z   1
loop_
 _symmetry_equiv_pos_site_id
 _symmetry_equiv_pos_as_xyz
  1  'x, y, z'
loop_
 _atom_site_type_symbol
 _atom_site_label
 _atom_site_symmetry_multiplicity
 _atom_site_fract_x
 _atom_site_fract_y
 _atom_site_fract_z
 _atom_site_occupancy
  K  K0  1  0.00000000  0.00000000  0.00000000  1
  Co  Co0  1  0.25000000  0.75000000  0.50000000  1
  As  As0  1  0.34807097  0.34807097  1.00000000  1
  As  As1  1  0.65192903  0.65192903  0.00000000  1
  Ru  Ru0  1  0.75000000  0.25000000  0.50000000  1
loop_
_geom_bond_atom_site_label_1
_geom_bond_atom_site_label_2
_geom_bond_distance
_geom_bond_site_symmetry_2
Co0 Ru0 2.752562 1_555
Co0 Ru0 2.752562 1_465
Co0 Ru0 2.752562 1_454
Co0 Ru0 2.752562 1_566
As0 Co0 2.361177 1_545
As0 Ru0 2.361177 1_455
As0 Co0 2.361178 1_556
As0 Ru0 2.361178 1_556
As0 K0 3.444554 1_667
As0 K0 3.444555 1_566
As0 K0 3.444555 1_656
As0 K0 3.444555 1_555
As1 Ru0 2.361177 1_565
As1 Co0 2.361177 1_655
As1 Ru0 2.361178 1_554
As1 Co0 2.361178 1_554
As1 K0 3.444554 1_554
As1 K0 3.444555 1_655
As1 K0 3.444555 1_565
As1 K0 3.444555 1_666
