# generated using pymatgen
data_Y2B4Ir2Rh3
_symmetry_space_group_name_H-M   'P 1'
_cell_length_a   7.47574138
_cell_length_b   6.29054958
_cell_length_c   5.57569404
_cell_angle_alpha   77.84296829
_cell_angle_beta   55.34502096
_cell_angle_gamma   46.81202325
_symmetry_Int_Tables_number   1
_chemical_formula_structural   Y2B4Ir2Rh3
_chemical_formula_sum   'Y2 B4 Ir2 Rh3'
_cell_volume   150.12807393
_cell_formula_units_Z   1
loop_
 _symmetry_equiv_pos_site_id
 _symmetry_equiv_pos_as_xyz
  1  'x, y, z'
loop_
 _atom_site_type_symbol
 _atom_site_label
 _atom_site_symmetry_multiplicity
 _atom_site_fract_x
 _atom_site_fract_y
 _atom_site_fract_z
 _atom_site_occupancy
  Y  Y0  1  0.85896517  0.85896417  0.14103483  1
  Y  Y1  1  0.14103583  0.14103483  0.85896517  1
  B  B0  1  0.47605183  0.79131249  0.21451385  1
  B  B1  1  0.21451385  0.51812082  0.47605183  1
  B  B2  1  0.79131449  0.47605083  0.51812082  1
  B  B3  1  0.51812182  0.21451285  0.79131349  1
  Ir  Ir0  1  0.24999900  0.25000100  0.25000100  1
  Ir  Ir1  1  0.50000100  0.50000000  0.50000000  1
  Rh  Rh0  1  0.50103156  0.50103456  0.99896744  1
  Rh  Rh1  1  0.99896744  0.99896744  0.50103256  1
  Rh  Rh2  1  0.75000000  0.75000100  0.75000000  1
loop_
_geom_bond_atom_site_label_1
_geom_bond_atom_site_label_2
_geom_bond_distance
_geom_bond_site_symmetry_2
B0 Ir0 2.099137 1_565
B0 Rh2 2.119537 1_554
B0 Ir1 2.137847 1_555
B0 Rh1 2.236270 1_455
B0 Rh0 2.239613 1_554
B0 Y0 2.967067 1_555
B0 Y1 3.094665 1_565
B0 Y1 3.122354 1_654
B1 Ir0 2.099124 1_555
B1 Rh2 2.119532 1_455
B1 Ir1 2.137859 1_555
B1 Rh0 2.236275 1_554
B1 Rh1 2.239624 1_455
B1 Y1 2.967064 1_555
B1 Y0 3.094663 1_545
B1 Y0 3.122351 1_456
B2 Ir0 2.099120 1_655
B2 Rh2 2.119538 1_555
B2 Ir1 2.137847 1_555
B2 Rh1 2.236269 1_545
B2 Rh0 2.239621 1_555
B2 Y0 2.967064 1_555
B2 Y1 3.094658 1_654
B2 Y1 3.122356 1_565
B3 Ir0 2.099131 1_556
B3 Rh2 2.119525 1_545
B3 Ir1 2.137855 1_555
B3 Rh0 2.236277 1_555
B3 Rh1 2.239621 1_545
B3 Y1 2.967062 1_555
B3 Y0 3.094663 1_456
B3 Y0 3.122356 1_545
Ir0 Y0 3.049693 1_455
Ir0 Y1 3.049694 1_554
Ir0 Y1 3.049697 1_555
Ir0 Y0 3.049700 1_545
Ir1 Y1 3.153895 1_565
Ir1 Y1 3.153895 1_654
Ir1 Y0 3.153899 1_456
Ir1 Y0 3.153903 1_545
Rh0 Y1 3.208643 1_565
Rh0 Y1 3.208663 1_655
Rh0 Y0 3.220316 1_456
Rh0 Y0 3.220330 1_546
Rh1 Y0 3.208654 1_556
Rh1 Y0 3.208657 1_555
Rh1 Y1 3.220316 1_664
Rh1 Y1 3.220324 1_665
Rh2 Y0 3.049691 1_556
Rh2 Y1 3.049693 1_565
Rh2 Y0 3.049696 1_555
Rh2 Y1 3.049704 1_655
