# generated using pymatgen
data_Lu6ReB14Ru
_symmetry_space_group_name_H-M   'P 1'
_cell_length_a   7.86787535
_cell_length_b   7.86787408
_cell_length_c   9.16861542
_cell_angle_alpha   90.00000000
_cell_angle_beta   90.00000000
_cell_angle_gamma   154.54581773
_symmetry_Int_Tables_number   1
_chemical_formula_structural   Lu6ReB14Ru
_chemical_formula_sum   'Lu6 Re1 B14 Ru1'
_cell_volume   243.93499844
_cell_formula_units_Z   1
loop_
 _symmetry_equiv_pos_site_id
 _symmetry_equiv_pos_as_xyz
  1  'x, y, z'
loop_
 _atom_site_type_symbol
 _atom_site_label
 _atom_site_symmetry_multiplicity
 _atom_site_fract_x
 _atom_site_fract_y
 _atom_site_fract_z
 _atom_site_occupancy
  Lu  Lu0  1  0.89423757  0.10576243  0.05809526  1
  Lu  Lu1  1  0.10561844  0.89438156  0.55980507  1
  Lu  Lu2  1  0.10561844  0.89438156  0.94019493  1
  Lu  Lu3  1  0.89423757  0.10576243  0.44190474  1
  Lu  Lu4  1  0.24386681  0.75613319  0.25000000  1
  Lu  Lu5  1  0.75656787  0.24343213  0.75000000  1
  Re  Re0  1  0.94790267  0.05209633  0.75000000  1
  B  B0  1  0.45254224  0.54745776  0.25000000  1
  B  B1  1  0.54883257  0.45116743  0.75000000  1
  B  B2  1  0.72739303  0.27260697  0.03586714  1
  B  B3  1  0.27177687  0.72822313  0.53405281  1
  B  B4  1  0.27177687  0.72822313  0.96594719  1
  B  B5  1  0.72739303  0.27260697  0.46413286  1
  B  B6  1  0.63165652  0.36834348  0.34913475  1
  B  B7  1  0.36752220  0.63247780  0.84985982  1
  B  B8  1  0.36752220  0.63247780  0.65014018  1
  B  B9  1  0.63165652  0.36834348  0.15086525  1
  B  B10  1  0.51918276  0.48081724  0.40434932  1
  B  B11  1  0.48117316  0.51882684  0.90586148  1
  B  B12  1  0.48117316  0.51882684  0.59413852  1
  B  B13  1  0.51918276  0.48081724  0.09565068  1
  Ru  Ru0  1  0.05316971  0.94683029  0.25000000  1
loop_
_geom_bond_atom_site_label_1
_geom_bond_atom_site_label_2
_geom_bond_distance
_geom_bond_site_symmetry_2
Lu0 Ru0 3.007799 1_645
Lu1 Ru0 2.952362 1_555
Lu2 Ru0 2.952362 1_556
Lu3 Ru0 3.007799 1_645
Lu4 Ru0 2.927035 1_555
Lu5 Re0 2.936830 1_555
B0 B10 1.746132 1_555
B0 B13 1.746132 1_555
B0 Ru0 2.321663 1_545
B0 Ru0 2.321664 1_655
B0 Lu3 2.627021 1_565
B0 Lu0 2.627021 1_565
B0 Lu3 2.627022 1_455
B0 Lu0 2.627022 1_455
B0 Lu4 3.202986 1_555
B1 B11 1.766535 1_555
B1 B12 1.766535 1_555
B1 Re0 2.324748 1_565
B1 Re0 2.324751 1_455
B1 Lu2 2.608666 1_545
B1 Lu1 2.608666 1_545
B1 Lu2 2.608667 1_655
B1 Lu1 2.608667 1_655
B1 Lu5 3.188556 1_555
B2 B9 1.808605 1_555
B2 B4 1.969665 1_544
B2 B4 1.969666 1_654
B2 Lu0 2.569015 1_555
B2 Lu4 2.631159 1_545
B2 Lu4 2.631159 1_655
B2 Lu5 2.658986 1_554
B2 Lu2 2.695851 1_654
B2 Lu2 2.695852 1_544
B3 B8 1.814555 1_555
B3 B5 1.969665 1_565
B3 B5 1.969666 1_455
B3 Lu1 2.561294 1_555
B3 Lu4 2.639369 1_555
B3 Lu5 2.641809 1_565
B3 Lu5 2.641809 1_455
B3 Lu3 2.692852 1_455
B3 Lu3 2.692853 1_565
B4 B7 1.814555 1_555
B4 Lu2 2.561294 1_555
B4 Lu4 2.639369 1_556
B4 Lu5 2.641809 1_565
B4 Lu5 2.641809 1_455
B4 Lu0 2.692852 1_456
B4 Lu0 2.692853 1_566
B5 B6 1.808605 1_555
B5 Lu3 2.569015 1_555
B5 Lu4 2.631159 1_545
B5 Lu4 2.631159 1_655
B5 Lu5 2.658986 1_555
B5 Lu1 2.695851 1_655
B5 Lu1 2.695852 1_545
B6 B9 1.817857 1_555
B6 Ru0 2.298253 1_655
B6 Ru0 2.298254 1_545
B6 Lu4 2.607120 1_545
B6 Lu4 2.607121 1_655
B6 Lu1 2.625860 1_655
B6 Lu1 2.625860 1_545
B7 B8 1.831153 1_555
B7 Re0 2.316245 1_565
B7 Re0 2.316247 1_455
B7 Lu5 2.596762 1_565
B7 Lu5 2.596763 1_455
B7 Lu0 2.611095 1_456
B7 Lu0 2.611095 1_566
B8 Re0 2.316245 1_565
B8 Re0 2.316247 1_455
B8 Lu5 2.596762 1_565
B8 Lu5 2.596763 1_455
B8 Lu3 2.611095 1_455
B8 Lu3 2.611095 1_565
B9 Ru0 2.298253 1_655
B9 Ru0 2.298254 1_545
B9 Lu4 2.607120 1_545
B9 Lu4 2.607121 1_655
B9 Lu2 2.625860 1_654
B9 Lu2 2.625860 1_544
B10 B6 1.799069 1_555
B10 B12 1.835302 1_555
B10 Ru0 2.297684 1_545
B10 Ru0 2.297684 1_655
B10 Lu1 2.606951 1_545
B10 Lu1 2.606951 1_655
B10 Lu3 2.607877 1_565
B10 Lu3 2.607878 1_455
B11 B7 1.818439 1_555
B11 B13 1.835302 1_556
B11 Re0 2.303783 1_565
B11 Re0 2.303786 1_455
B11 Lu0 2.594855 1_566
B11 Lu0 2.594856 1_456
B11 Lu2 2.598496 1_545
B11 Lu2 2.598497 1_655
B12 B8 1.818439 1_555
B12 Re0 2.303783 1_565
B12 Re0 2.303786 1_455
B12 Lu3 2.594855 1_565
B12 Lu3 2.594856 1_455
B12 Lu1 2.598496 1_545
B12 Lu1 2.598497 1_655
B13 B9 1.799069 1_555
B13 Ru0 2.297684 1_545
B13 Ru0 2.297684 1_655
B13 Lu2 2.606951 1_544
B13 Lu2 2.606951 1_654
B13 Lu0 2.607877 1_565
B13 Lu0 2.607878 1_455
