# generated using pymatgen
data_Rb4V2PtSe8
_symmetry_space_group_name_H-M   'P 1'
_cell_length_a   13.27446290
_cell_length_b   7.42653300
_cell_length_c   9.72720276
_cell_angle_alpha   85.89572906
_cell_angle_beta   90.00000000
_cell_angle_gamma   90.00000000
_symmetry_Int_Tables_number   1
_chemical_formula_structural   Rb4V2PtSe8
_chemical_formula_sum   'Rb8 V4 Pt2 Se16'
_cell_volume   956.47988579
_cell_formula_units_Z   2
loop_
 _symmetry_equiv_pos_site_id
 _symmetry_equiv_pos_as_xyz
  1  'x, y, z'
loop_
 _atom_site_type_symbol
 _atom_site_label
 _atom_site_symmetry_multiplicity
 _atom_site_fract_x
 _atom_site_fract_y
 _atom_site_fract_z
 _atom_site_occupancy
  Rb  Rb0  1  0.13425540  0.81639368  0.67866831  1
  Rb  Rb1  1  0.63425540  0.18360632  0.82133169  1
  Rb  Rb2  1  0.86574460  0.18360632  0.32133169  1
  Rb  Rb3  1  0.36574460  0.81639368  0.17866831  1
  Rb  Rb4  1  0.34962185  0.26607539  0.54310631  1
  Rb  Rb5  1  0.84962185  0.73392461  0.95689369  1
  Rb  Rb6  1  0.65037815  0.73392461  0.45689369  1
  Rb  Rb7  1  0.15037815  0.26607539  0.04310631  1
  V  V0  1  0.42476517  0.74737220  0.76725453  1
  V  V1  1  0.92476517  0.25262780  0.73274547  1
  V  V2  1  0.57523483  0.25262780  0.23274547  1
  V  V3  1  0.07523483  0.74737220  0.26725453  1
  Pt  Pt0  1  0.00000000  0.50000000  0.50000000  1
  Pt  Pt1  1  0.50000000  0.50000000  0.00000000  1
  Se  Se0  1  0.09267221  0.30610045  0.67574508  1
  Se  Se1  1  0.59267221  0.69389955  0.82425492  1
  Se  Se2  1  0.90732779  0.69389955  0.32425492  1
  Se  Se3  1  0.40732779  0.30610045  0.17574508  1
  Se  Se4  1  0.39716437  0.75250940  0.53944727  1
  Se  Se5  1  0.89716437  0.24749060  0.96055273  1
  Se  Se6  1  0.60283563  0.24749060  0.46055273  1
  Se  Se7  1  0.10283563  0.75250940  0.03944727  1
  Se  Se8  1  0.16193017  0.50990349  0.37501993  1
  Se  Se9  1  0.66193017  0.49009651  0.12498007  1
  Se  Se10  1  0.83806983  0.49009651  0.62498007  1
  Se  Se11  1  0.33806983  0.50990349  0.87501993  1
  Se  Se12  1  0.36943372  0.00810638  0.84407944  1
  Se  Se13  1  0.86943372  0.99189362  0.65592056  1
  Se  Se14  1  0.63056628  0.99189362  0.15592056  1
  Se  Se15  1  0.13056628  0.00810638  0.34407944  1
loop_
_geom_bond_atom_site_label_1
_geom_bond_atom_site_label_2
_geom_bond_distance
_geom_bond_site_symmetry_2
Rb0 Se15 3.458136 1_565
Rb0 Se7 3.532194 1_556
Rb0 Se0 3.676573 1_565
Rb0 Se13 3.750228 1_455
Rb0 Se4 3.785622 1_555
Rb0 Se0 3.831818 1_555
Rb0 Se12 3.832740 1_565
Rb0 Se8 3.873275 1_555
Rb0 Se11 3.940355 1_555
Rb1 Se14 3.458136 1_546
Rb1 Se6 3.532194 1_555
Rb1 Se1 3.676573 1_545
Rb1 Se12 3.750228 1_555
Rb1 Se5 3.785622 1_555
Rb1 Se1 3.831818 1_555
Rb1 Se13 3.832740 1_545
Rb1 Se9 3.873275 1_556
Rb1 Se10 3.940355 1_555
Rb2 Se13 3.458136 1_545
Rb2 Se5 3.532194 1_554
Rb2 Se2 3.676573 1_545
Rb2 Se15 3.750228 1_655
Rb2 Se6 3.785622 1_555
Rb2 Se2 3.831818 1_555
Rb2 Se14 3.832740 1_545
Rb2 Se10 3.873275 1_555
Rb2 Se9 3.940355 1_555
Rb3 Se12 3.458136 1_564
Rb3 Se4 3.532194 1_555
Rb3 Se3 3.676573 1_565
Rb3 Se14 3.750228 1_555
Rb3 Se7 3.785622 1_555
Rb3 Se3 3.831818 1_555
Rb3 Se15 3.832740 1_565
Rb3 Se11 3.873275 1_554
Rb3 Se8 3.940355 1_555
Rb4 Se12 3.392292 1_555
Rb4 Se8 3.425792 1_555
Rb4 Se6 3.460915 1_555
Rb4 Se3 3.645855 1_555
Rb4 Se4 3.664893 1_555
Rb4 Se0 3.666320 1_555
Rb4 Se11 3.816172 1_555
Rb4 Se4 3.868552 1_545
Rb4 Se15 4.050287 1_555
Rb5 Se13 3.392292 1_555
Rb5 Se9 3.425792 1_556
Rb5 Se7 3.460915 1_656
Rb5 Se2 3.645855 1_556
Rb5 Se5 3.664893 1_555
Rb5 Se1 3.666320 1_555
Rb5 Se10 3.816172 1_555
Rb5 Se5 3.868552 1_565
Rb5 Se14 4.050287 1_556
Rb6 Se14 3.392292 1_555
Rb6 Se10 3.425792 1_555
Rb6 Se4 3.460915 1_555
Rb6 Se1 3.645855 1_555
Rb6 Se6 3.664893 1_555
Rb6 Se2 3.666320 1_555
Rb6 Se9 3.816172 1_555
Rb6 Se6 3.868552 1_565
Rb6 Se13 4.050287 1_555
Rb7 Se15 3.392292 1_555
Rb7 Se11 3.425792 1_554
Rb7 Se5 3.460915 1_454
Rb7 Se0 3.645855 1_554
Rb7 Se7 3.664893 1_555
Rb7 Se3 3.666320 1_555
Rb7 Se8 3.816172 1_555
Rb7 Se7 3.868552 1_545
Rb7 Se12 4.050287 1_554
Pt0 Se8 2.468007 1_555
Pt0 Se10 2.468007 1_455
Pt0 Se0 2.481325 1_555
Pt0 Se2 2.481325 1_455
Pt0 V3 2.983718 1_555
Pt0 V1 2.983718 1_455
Pt0 Rb0 3.507456 1_555
Pt0 Rb2 3.507456 1_455
Pt1 Se9 2.468007 1_555
Pt1 Se11 2.468007 1_554
Pt1 Se3 2.481325 1_555
Pt1 Se1 2.481325 1_554
Pt1 V2 2.983718 1_555
Pt1 V0 2.983718 1_554
Pt1 Rb1 3.507456 1_554
Pt1 Rb3 3.507456 1_555
Se0 V1 2.324111 1_455
Se1 V0 2.324111 1_555
Se2 V3 2.324111 1_655
Se3 V2 2.324111 1_555
Se4 V0 2.243641 1_555
Se5 V1 2.243641 1_555
Se6 V2 2.243641 1_555
Se7 V3 2.243641 1_555
Se8 V3 2.295389 1_555
Se9 V2 2.295389 1_555
Se10 V1 2.295389 1_555
Se11 V0 2.295389 1_555
Se12 V0 2.248225 1_545
Se13 V1 2.248225 1_565
Se14 V2 2.248225 1_565
Se15 V3 2.248225 1_545
