# generated using pymatgen
data_Sm2TmS4
_symmetry_space_group_name_H-M   'P 1'
_cell_length_a   7.28648682
_cell_length_b   7.28648682
_cell_length_c   7.28648682
_cell_angle_alpha   110.08167249
_cell_angle_beta   110.08167249
_cell_angle_gamma   108.25709657
_symmetry_Int_Tables_number   1
_chemical_formula_structural   Sm2TmS4
_chemical_formula_sum   'Sm4 Tm2 S8'
_cell_volume   297.70542732
_cell_formula_units_Z   2
loop_
 _symmetry_equiv_pos_site_id
 _symmetry_equiv_pos_as_xyz
  1  'x, y, z'
loop_
 _atom_site_type_symbol
 _atom_site_label
 _atom_site_symmetry_multiplicity
 _atom_site_fract_x
 _atom_site_fract_y
 _atom_site_fract_z
 _atom_site_occupancy
  Sm  Sm0  1  0.99203600  0.62500000  0.86703600  1
  Sm  Sm1  1  0.75796400  0.12500000  0.13296400  1
  Sm  Sm2  1  0.87500000  0.00796400  0.63296400  1
  Sm  Sm3  1  0.37500000  0.24203600  0.36703600  1
  Tm  Tm0  1  0.50000000  0.50000000  0.00000000  1
  Tm  Tm1  1  0.25000000  0.75000000  0.50000000  1
  S  S0  1  0.12832900  0.38494600  0.11328700  1
  S  S1  1  0.13494600  0.37832900  0.61328700  1
  S  S2  1  0.76504200  0.52165900  0.38671300  1
  S  S3  1  0.61505400  0.72834100  0.74338400  1
  S  S4  1  0.27165900  0.01504200  0.88671300  1
  S  S5  1  0.47834100  0.86505400  0.24338400  1
  S  S6  1  0.98495800  0.87167100  0.25661600  1
  S  S7  1  0.62167100  0.23495800  0.75661600  1
loop_
_geom_bond_atom_site_label_1
_geom_bond_atom_site_label_2
_geom_bond_distance
_geom_bond_site_symmetry_2
S0 Tm1 2.731503 1_555
S0 Sm3 2.818892 1_555
S0 Sm1 2.853143 1_455
S0 Sm2 2.997733 1_454
S0 Sm0 3.047176 1_454
S0 Tm0 3.050619 1_555
S1 Tm0 2.731503 1_556
S1 Sm0 2.818892 1_455
S1 Sm2 2.853143 1_455
S1 Sm1 2.997733 1_455
S1 Sm3 3.047176 1_555
S1 Tm1 3.050619 1_555
S2 Tm0 2.731503 1_555
S2 Sm1 2.818892 1_555
S2 Sm3 2.853143 1_555
S2 Sm0 2.997733 1_555
S2 Sm2 3.047176 1_565
S2 Tm1 3.050619 1_655
S3 Tm1 2.731505 1_555
S3 Sm1 2.818888 1_566
S3 Sm2 2.853148 1_565
S3 Sm0 2.997732 1_555
S3 Sm3 3.047178 1_555
S3 Tm0 3.050612 1_556
S4 Tm1 2.731503 1_545
S4 Sm2 2.818892 1_455
S4 Sm0 2.853143 1_445
S4 Sm3 2.997733 1_556
S4 Sm1 3.047176 1_556
S4 Tm0 3.050619 1_556
S5 Tm0 2.731505 1_555
S5 Sm2 2.818888 1_565
S5 Sm1 2.853148 1_565
S5 Sm3 2.997732 1_565
S5 Sm0 3.047178 1_454
S5 Tm1 3.050612 1_555
S6 Tm1 2.731507 1_655
S6 Sm0 2.818886 1_554
S6 Sm3 2.853140 1_665
S6 Sm1 2.997731 1_565
S6 Sm2 3.047182 1_565
S6 Tm0 3.050619 1_555
S7 Tm0 2.731507 1_556
S7 Sm3 2.818886 1_555
S7 Sm0 2.853140 1_555
S7 Sm2 2.997731 1_555
S7 Sm1 3.047182 1_556
S7 Tm1 3.050619 1_545
