# generated using pymatgen
data_Y12AlCo4Pd
_symmetry_space_group_name_H-M   'P 1'
_cell_length_a   8.35357781
_cell_length_b   8.35357776
_cell_length_c   8.35357635
_cell_angle_alpha   107.70535124
_cell_angle_beta   110.10919258
_cell_angle_gamma   110.61383255
_symmetry_Int_Tables_number   1
_chemical_formula_structural   Y12AlCo4Pd
_chemical_formula_sum   'Y12 Al1 Co4 Pd1'
_cell_volume   448.41337048
_cell_formula_units_Z   1
loop_
 _symmetry_equiv_pos_site_id
 _symmetry_equiv_pos_as_xyz
  1  'x, y, z'
loop_
 _atom_site_type_symbol
 _atom_site_label
 _atom_site_symmetry_multiplicity
 _atom_site_fract_x
 _atom_site_fract_y
 _atom_site_fract_z
 _atom_site_occupancy
  Y  Y0  1  0.69885216  0.28663179  0.98548295  1
  Y  Y1  1  0.30114784  0.71336821  0.01451705  1
  Y  Y2  1  0.69885216  0.71336821  0.41222037  1
  Y  Y3  1  0.30114784  0.28663179  0.58777963  1
  Y  Y4  1  0.79928992  0.11646067  0.31717175  1
  Y  Y5  1  0.79928992  0.48211817  0.68282825  1
  Y  Y6  1  0.20071008  0.88353933  0.68282825  1
  Y  Y7  1  0.20071008  0.51788183  0.31717175  1
  Y  Y8  1  0.60808570  0.79544905  0.81263566  1
  Y  Y9  1  0.98281439  0.79544905  0.18736434  1
  Y  Y10  1  0.01718561  0.20455095  0.81263566  1
  Y  Y11  1  0.39191430  0.20455095  0.18736434  1
  Al  Al0  1  0.50000000  0.00000000  0.50000000  1
  Co  Co0  1  0.88426736  0.50000000  0.38426736  1
  Co  Co1  1  0.11573264  0.50000000  0.61573264  1
  Co  Co2  1  0.00000000  0.10983578  0.10983578  1
  Co  Co3  1  1.00000000  0.89016422  0.89016422  1
  Pd  Pd0  1  0.50000000  0.50000000  0.00000000  1
loop_
_geom_bond_atom_site_label_1
_geom_bond_atom_site_label_2
_geom_bond_distance
_geom_bond_site_symmetry_2
Y0 Y7 3.469715 1_656
Y0 Y4 3.469726 1_556
Y0 Y9 3.510992 1_556
Y0 Y11 3.511006 1_556
Y0 Y5 3.573206 1_555
Y0 Y6 3.573211 1_545
Y0 Y10 3.598382 1_655
Y0 Y8 3.598397 1_545
Y1 Y5 3.469715 1_454
Y1 Y6 3.469726 1_554
Y1 Y10 3.510992 1_554
Y1 Y8 3.511006 1_554
Y1 Y7 3.573206 1_555
Y1 Y4 3.573211 1_565
Y1 Y9 3.598382 1_455
Y1 Y11 3.598397 1_565
Y2 Y6 3.469712 1_655
Y2 Y5 3.469713 1_555
Y2 Y9 3.510999 1_555
Y2 Y4 3.573207 1_565
Y2 Y7 3.573214 1_555
Y2 Y8 3.598389 1_555
Y3 Y4 3.469712 1_455
Y3 Y7 3.469713 1_555
Y3 Y8 3.510994 1_555
Y3 Y6 3.573207 1_545
Y3 Y5 3.573214 1_555
Y3 Y9 3.598394 1_445
Y4 Y5 3.603528 1_555
Y4 Y8 3.603660 1_544
Y4 Y9 3.603661 1_545
Y5 Y8 3.603654 1_555
Y5 Y9 3.603658 1_556
Y6 Y7 3.603528 1_555
Y6 Y9 3.606821 1_455
Y6 Y8 3.606838 1_555
Y7 Y9 3.606820 1_455
Y7 Y8 3.606827 1_555
Y8 Y9 3.586073 1_556
Y10 Y3 3.510999 1_555
Y10 Y11 3.586073 1_556
Y10 Y2 3.598394 1_445
Y10 Y7 3.603658 1_556
Y10 Y6 3.603661 1_545
Y10 Y5 3.606820 1_455
Y10 Y4 3.606821 1_455
Y11 Y2 3.510994 1_555
Y11 Y3 3.598389 1_555
Y11 Y7 3.603654 1_555
Y11 Y6 3.603660 1_544
Y11 Y5 3.606827 1_555
Y11 Y4 3.606838 1_555
Al0 Y4 3.368443 1_555
Al0 Y6 3.368443 1_545
Al0 Y5 3.368444 1_555
Al0 Y7 3.368444 1_545
Al0 Y0 3.405937 1_555
Al0 Y1 3.405937 1_545
Al0 Y3 3.405945 1_555
Al0 Y2 3.405945 1_545
Al0 Y10 3.568582 1_655
Al0 Y9 3.568582 1_445
Al0 Y8 3.568590 1_545
Al0 Y11 3.568590 1_555
Co0 Co1 2.215073 1_655
Co0 Y2 2.751348 1_555
Co0 Y0 2.751354 1_554
Co0 Y5 2.848832 1_555
Co0 Y7 2.848833 1_655
Co0 Y6 2.848837 1_655
Co0 Y4 2.848841 1_555
Co0 Y9 3.382924 1_555
Co0 Y11 3.382929 1_555
Co1 Y3 2.751348 1_555
Co1 Y1 2.751354 1_556
Co1 Y7 2.848832 1_555
Co1 Y5 2.848833 1_455
Co1 Y4 2.848837 1_455
Co1 Y6 2.848841 1_555
Co1 Y10 3.382924 1_555
Co1 Y8 3.382929 1_555
Co2 Co3 2.164850 1_444
Co2 Y4 2.796046 1_455
Co2 Y7 2.796046 1_555
Co2 Y11 2.858356 1_555
Co2 Y8 2.858360 1_444
Co2 Y10 2.858362 1_554
Co2 Y9 2.858366 1_445
Co2 Y3 3.367658 1_555
Co2 Y0 3.367660 1_454
Co3 Y6 2.796046 1_655
Co3 Y5 2.796046 1_555
Co3 Y8 2.858356 1_555
Co3 Y11 2.858360 1_666
Co3 Y9 2.858362 1_556
Co3 Y10 2.858366 1_665
Co3 Y2 3.367658 1_555
Co3 Y1 3.367660 1_656
Pd0 Y2 2.835980 1_555
Pd0 Y3 2.835980 1_554
Pd0 Y1 2.835981 1_555
Pd0 Y0 2.835981 1_554
Pd0 Y8 3.332941 1_554
Pd0 Y11 3.332941 1_555
Pd0 Y10 3.332946 1_554
Pd0 Y9 3.332946 1_555
