# generated using pymatgen
data_Ti6BPb2Cl17
_symmetry_space_group_name_H-M   'P 1'
_cell_length_a   9.23788389
_cell_length_b   9.23788449
_cell_length_c   9.23788595
_cell_angle_alpha   104.84963381
_cell_angle_beta   104.84963347
_cell_angle_gamma   119.17204889
_symmetry_Int_Tables_number   1
_chemical_formula_structural   Ti6BPb2Cl17
_chemical_formula_sum   'Ti6 B1 Pb2 Cl17'
_cell_volume   593.62914912
_cell_formula_units_Z   1
loop_
 _symmetry_equiv_pos_site_id
 _symmetry_equiv_pos_as_xyz
  1  'x, y, z'
loop_
 _atom_site_type_symbol
 _atom_site_label
 _atom_site_symmetry_multiplicity
 _atom_site_fract_x
 _atom_site_fract_y
 _atom_site_fract_z
 _atom_site_occupancy
  Ti  Ti0  1  0.23154589  0.23154589  1.00000000  1
  Ti  Ti1  1  0.76845411  0.76845411  0.00000000  1
  Ti  Ti2  1  0.18029147  0.06033383  0.24062630  1
  Ti  Ti3  1  0.93966617  0.18029147  0.11995764  1
  Ti  Ti4  1  0.81970853  0.93966617  0.75937370  1
  Ti  Ti5  1  0.06033383  0.81970853  0.88004236  1
  B  B0  1  0.00000000  0.00000000  0.00000000  1
  Pb  Pb0  1  0.25000000  0.75000000  0.50000000  1
  Pb  Pb1  1  0.75000000  0.25000000  0.50000000  1
  Cl  Cl0  1  0.86618218  0.73082735  0.59700953  1
  Cl  Cl1  1  0.26917265  0.86618218  0.13535583  1
  Cl  Cl2  1  0.12664583  0.59726653  0.72391236  1
  Cl  Cl3  1  0.54355464  0.67587666  0.72720346  1
  Cl  Cl4  1  0.87335417  0.40273347  0.27608764  1
  Cl  Cl5  1  0.45644536  0.32412334  0.27279654  1
  Cl  Cl6  1  0.81635218  0.54355464  0.86767898  1
  Cl  Cl7  1  0.40273347  0.12664583  0.52937931  1
  Cl  Cl8  1  0.59726653  0.87335417  0.47062069  1
  Cl  Cl9  1  0.13381782  0.26917265  0.40299047  1
  Cl  Cl10  1  0.32412334  0.05132880  0.86767898  1
  Cl  Cl11  1  0.94867120  0.81635218  0.27279654  1
  Cl  Cl12  1  0.73082735  0.13381782  0.86464417  1
  Cl  Cl13  1  0.50000000  0.50000000  0.00000000  1
  Cl  Cl14  1  0.18364782  0.45644536  0.13232102  1
  Cl  Cl15  1  0.05132880  0.18364782  0.72720346  1
  Cl  Cl16  1  0.67587666  0.94867120  0.13232102  1
loop_
_geom_bond_atom_site_label_1
_geom_bond_atom_site_label_2
_geom_bond_distance
_geom_bond_site_symmetry_2
B0 Ti3 2.141986 1_455
B0 Ti5 2.141986 1_544
B0 Ti2 2.141993 1_555
B0 Ti4 2.141993 1_444
B0 Ti0 2.165706 1_554
B0 Ti1 2.165706 1_445
Cl0 Ti5 2.405740 1_655
Cl0 Ti4 2.410446 1_555
Cl1 Ti2 2.405740 1_565
Cl1 Ti5 2.410457 1_554
Cl2 Ti5 2.615146 1_555
Cl2 Pb1 2.950347 1_455
Cl2 Pb0 2.950348 1_555
Cl3 Ti4 2.390485 1_555
Cl3 Ti1 2.424471 1_556
Cl4 Ti3 2.615146 1_555
Cl4 Pb0 2.950347 1_655
Cl4 Pb1 2.950348 1_555
Cl5 Ti2 2.390485 1_555
Cl5 Ti0 2.424471 1_554
Cl6 Ti5 2.390482 1_655
Cl6 Ti1 2.424475 1_556
Cl7 Ti2 2.615139 1_555
Cl7 Pb1 2.950347 1_555
Cl7 Pb0 2.950347 1_545
Cl8 Ti4 2.615139 1_555
Cl8 Pb0 2.950347 1_555
Cl8 Pb1 2.950347 1_565
Cl9 Ti3 2.405740 1_455
Cl9 Ti2 2.410446 1_555
Cl10 Ti5 2.390484 1_545
Cl10 Ti0 2.424454 1_555
Cl11 Ti2 2.390479 1_665
Cl11 Ti1 2.424461 1_555
Cl12 Ti4 2.405740 1_545
Cl12 Ti3 2.410457 1_556
Cl13 Ti1 2.510918 1_555
Cl13 Ti0 2.510918 1_554
Cl14 Ti3 2.390482 1_455
Cl14 Ti0 2.424475 1_554
Cl15 Ti4 2.390479 1_445
Cl15 Ti0 2.424461 1_555
Cl16 Ti3 2.390484 1_565
Cl16 Ti1 2.424454 1_555
