# generated using pymatgen
data_Hf3ZrBr16
_symmetry_space_group_name_H-M   'P 1'
_cell_length_a   8.03355952
_cell_length_b   8.03194070
_cell_length_c   12.02996309
_cell_angle_alpha   71.34302832
_cell_angle_beta   71.24856303
_cell_angle_gamma   90.18379574
_symmetry_Int_Tables_number   1
_chemical_formula_structural   Hf3ZrBr16
_chemical_formula_sum   'Hf3 Zr1 Br16'
_cell_volume   691.52598010
_cell_formula_units_Z   1
loop_
 _symmetry_equiv_pos_site_id
 _symmetry_equiv_pos_as_xyz
  1  'x, y, z'
loop_
 _atom_site_type_symbol
 _atom_site_label
 _atom_site_symmetry_multiplicity
 _atom_site_fract_x
 _atom_site_fract_y
 _atom_site_fract_z
 _atom_site_occupancy
  Hf  Hf0  1  0.78562803  0.06060417  0.62511561  1
  Hf  Hf1  1  0.93928544  0.21510476  0.87483828  1
  Hf  Hf2  1  0.21494653  0.94023963  0.37492982  1
  Zr  Zr0  1  0.06038628  0.78240355  0.12482937  1
  Br  Br0  1  0.04849207  0.83168872  0.61784044  1
  Br  Br1  1  0.04875197  0.28255459  0.63163137  1
  Br  Br2  1  0.71802557  0.95145611  0.86791628  1
  Br  Br3  1  0.57678182  0.82182314  0.64156009  1
  Br  Br4  1  0.17823465  0.42346212  0.85857047  1
  Br  Br5  1  0.95044315  0.71834730  0.36990053  1
  Br  Br6  1  0.69905555  0.40474886  0.88932575  1
  Br  Br7  1  0.16940661  0.95356665  0.88004530  1
  Br  Br8  1  0.42315913  0.17820537  0.36025375  1
  Br  Br9  1  0.81820587  0.57178502  0.14342201  1
  Br  Br10  1  0.40343634  0.69899874  0.39037833  1
  Br  Br11  1  0.59690321  0.30141250  0.60949965  1
  Br  Br12  1  0.95168443  0.16907818  0.38238702  1
  Br  Br13  1  0.30539319  0.59449467  0.10800910  1
  Br  Br14  1  0.82901298  0.04939851  0.11697208  1
  Br  Br15  1  0.28276517  0.05062440  0.13257675  1
loop_
_geom_bond_atom_site_label_1
_geom_bond_atom_site_label_2
_geom_bond_distance
_geom_bond_site_symmetry_2
Br0 Hf2 2.633956 1_555
Br0 Hf0 2.802981 1_465
Br1 Hf1 2.637347 1_455
Br1 Hf0 2.797165 1_455
Br2 Hf0 2.633214 1_565
Br2 Hf1 2.799029 1_565
Br3 Hf0 2.460800 1_565
Br4 Hf1 2.460118 1_455
Br5 Zr0 2.662543 1_655
Br5 Hf2 2.796883 1_655
Br6 Hf1 2.459171 1_555
Br7 Zr0 2.659427 1_556
Br7 Hf1 2.801702 1_465
Br8 Hf2 2.460883 1_545
Br9 Zr0 2.480738 1_655
Br10 Hf2 2.459930 1_555
Br11 Hf0 2.458531 1_555
Br12 Hf0 2.631652 1_555
Br12 Hf2 2.804950 1_645
Br13 Zr0 2.480193 1_555
Br14 Hf1 2.625629 1_554
Br14 Zr0 2.841049 1_645
Br15 Hf2 2.627711 1_545
Br15 Zr0 2.837644 1_545
