# generated using pymatgen
data_V12Sn4N
_symmetry_space_group_name_H-M   'P 1'
_cell_length_a   5.93246234
_cell_length_b   4.44457044
_cell_length_c   9.40718133
_cell_angle_alpha   88.44228465
_cell_angle_beta   90.00000000
_cell_angle_gamma   90.00000000
_symmetry_Int_Tables_number   1
_chemical_formula_structural   V12Sn4N
_chemical_formula_sum   'V12 Sn4 N1'
_cell_volume   247.94980727
_cell_formula_units_Z   1
loop_
 _symmetry_equiv_pos_site_id
 _symmetry_equiv_pos_as_xyz
  1  'x, y, z'
loop_
 _atom_site_type_symbol
 _atom_site_label
 _atom_site_symmetry_multiplicity
 _atom_site_fract_x
 _atom_site_fract_y
 _atom_site_fract_z
 _atom_site_occupancy
  V  V0  1  0.00000000  0.77975620  0.15696852  1
  V  V1  1  0.50000000  0.75151855  0.62829338  1
  V  V2  1  0.73207792  0.75923993  0.40834733  1
  V  V3  1  0.23230950  0.76082772  0.90868088  1
  V  V4  1  0.26792208  0.75923993  0.40834733  1
  V  V5  1  0.76769050  0.76082772  0.90868088  1
  V  V6  1  0.50000000  0.24848145  0.37170662  1
  V  V7  1  0.00000000  0.22024380  0.84303148  1
  V  V8  1  0.76769050  0.23917228  0.09131912  1
  V  V9  1  0.26792208  0.24076007  0.59165267  1
  V  V10  1  0.23230950  0.23917228  0.09131912  1
  V  V11  1  0.73207792  0.24076007  0.59165267  1
  Sn  Sn0  1  0.50000000  0.74037791  0.15830823  1
  Sn  Sn1  1  0.00000000  0.73643703  0.65244275  1
  Sn  Sn2  1  0.00000000  0.26356297  0.34755725  1
  Sn  Sn3  1  0.50000000  0.25962209  0.84169077  1
  N  N0  1  0.00000000  0.50000000  0.00000000  1
loop_
_geom_bond_atom_site_label_1
_geom_bond_atom_site_label_2
_geom_bond_distance
_geom_bond_site_symmetry_2
V0 V4 2.848688 1_555
V0 V2 2.848688 1_455
V1 V2 2.484741 1_555
V1 V4 2.484741 1_555
V1 V11 2.588809 1_565
V1 V9 2.588809 1_565
V1 V11 2.685195 1_555
V1 V9 2.685195 1_555
V1 V5 3.080068 1_555
V1 V3 3.080068 1_555
V2 V6 2.588809 1_565
V2 V6 2.685195 1_555
V2 V4 2.753587 1_555
V2 V4 3.178875 1_655
V4 V6 2.588809 1_565
V4 V6 2.685195 1_555
V4 V9 2.784671 1_565
V4 V9 2.840391 1_555
V6 V9 2.484741 1_555
V6 V8 3.080068 1_555
V7 V9 2.848688 1_555
V10 V6 3.080068 1_555
V11 V6 2.484741 1_555
V11 V9 2.753587 1_555
V11 V2 2.784671 1_545
V11 V2 2.840391 1_555
V11 V7 2.848688 1_655
V11 V9 3.178875 1_655
Sn0 V2 2.728732 1_555
Sn0 V4 2.728732 1_555
Sn0 V8 2.785297 1_565
Sn0 V10 2.785297 1_565
Sn0 V8 2.820956 1_555
Sn0 V10 2.820956 1_555
Sn0 V5 2.834267 1_554
Sn0 V3 2.834267 1_554
Sn0 V6 2.927648 1_555
Sn0 V0 2.971397 1_555
Sn0 V0 2.971397 1_655
Sn0 V6 3.062086 1_565
Sn1 V3 2.781315 1_555
Sn1 V5 2.781315 1_455
Sn1 V9 2.788433 1_555
Sn1 V11 2.788433 1_455
Sn1 V4 2.792256 1_555
Sn1 V2 2.792256 1_455
Sn1 V9 2.794274 1_565
Sn1 V11 2.794274 1_465
Sn1 V7 2.836891 1_565
Sn1 V7 2.873061 1_555
Sn1 V1 2.975534 1_555
Sn1 V1 2.975534 1_455
Sn2 V10 2.781315 1_555
Sn2 V8 2.781315 1_455
Sn2 V4 2.788433 1_555
Sn2 V2 2.788433 1_455
Sn2 V9 2.792256 1_555
Sn2 V11 2.792256 1_455
Sn2 V4 2.794274 1_545
Sn2 V2 2.794274 1_445
Sn2 V0 2.836891 1_545
Sn2 V0 2.873061 1_555
Sn2 V6 2.975534 1_555
Sn2 V6 2.975534 1_455
Sn3 V11 2.728724 1_555
Sn3 V9 2.728724 1_555
Sn3 V5 2.785299 1_545
Sn3 V3 2.785299 1_545
Sn3 V5 2.820958 1_555
Sn3 V3 2.820958 1_555
Sn3 V8 2.834275 1_556
Sn3 V10 2.834275 1_556
Sn3 V1 2.927641 1_555
Sn3 V7 2.971397 1_555
Sn3 V7 2.971397 1_655
Sn3 V1 3.062079 1_545
N0 V0 1.956092 1_555
N0 V7 1.956092 1_554
N0 V3 1.981686 1_554
N0 V10 1.981686 1_555
N0 V5 1.981686 1_454
N0 V8 1.981686 1_455
