# generated using pymatgen
data_ScSb(SeO3)4
_symmetry_space_group_name_H-M   'P 1'
_cell_length_a   8.21948272
_cell_length_b   8.37578705
_cell_length_c   8.25920686
_cell_angle_alpha   89.81020249
_cell_angle_beta   90.00000000
_cell_angle_gamma   90.00000000
_symmetry_Int_Tables_number   1
_chemical_formula_structural   ScSb(SeO3)4
_chemical_formula_sum   'Sc2 Sb2 Se8 O24'
_cell_volume   568.59897742
_cell_formula_units_Z   2
loop_
 _symmetry_equiv_pos_site_id
 _symmetry_equiv_pos_as_xyz
  1  'x, y, z'
loop_
 _atom_site_type_symbol
 _atom_site_label
 _atom_site_symmetry_multiplicity
 _atom_site_fract_x
 _atom_site_fract_y
 _atom_site_fract_z
 _atom_site_occupancy
  Sc  Sc0  1  0.00000000  0.50000000  0.00000000  1
  Sc  Sc1  1  0.50000000  0.50000000  0.50000000  1
  Sb  Sb0  1  0.00000000  0.00000000  0.50000000  1
  Sb  Sb1  1  0.50000000  0.00000000  0.00000000  1
  Se  Se0  1  0.33526233  0.67728852  0.16646642  1
  Se  Se1  1  0.83526233  0.32271148  0.33353358  1
  Se  Se2  1  0.68055007  0.83500819  0.67970389  1
  Se  Se3  1  0.18055007  0.16499181  0.82029611  1
  Se  Se4  1  0.66473767  0.32271148  0.83353358  1
  Se  Se5  1  0.16473767  0.67728852  0.66646642  1
  Se  Se6  1  0.31944993  0.16499181  0.32029611  1
  Se  Se7  1  0.81944993  0.83500819  0.17970389  1
  O  O0  1  0.24424206  0.55418847  0.03564486  1
  O  O1  1  0.74424206  0.44581153  0.46435514  1
  O  O2  1  0.76274579  0.97626362  0.54521204  1
  O  O3  1  0.26274579  0.02373638  0.95478796  1
  O  O4  1  0.54241640  0.97070107  0.76402143  1
  O  O5  1  0.47111295  0.55759708  0.25653201  1
  O  O6  1  0.97111295  0.44240292  0.24346799  1
  O  O7  1  0.04241640  0.02929893  0.73597857  1
  O  O8  1  0.97495632  0.23137211  0.47328126  1
  O  O9  1  0.55784599  0.74117170  0.55326319  1
  O  O10  1  0.47495632  0.76862789  0.02671874  1
  O  O11  1  0.05784599  0.25882830  0.94673681  1
  O  O12  1  0.75575794  0.44581153  0.96435514  1
  O  O13  1  0.25575794  0.55418847  0.53564486  1
  O  O14  1  0.23725421  0.02373638  0.45478796  1
  O  O15  1  0.73725421  0.97626362  0.04521204  1
  O  O16  1  0.45758360  0.02929893  0.23597857  1
  O  O17  1  0.52888705  0.44240292  0.74346799  1
  O  O18  1  0.02888705  0.55759708  0.75653201  1
  O  O19  1  0.95758360  0.97070107  0.26402143  1
  O  O20  1  0.02504368  0.76862789  0.52671874  1
  O  O21  1  0.44215401  0.25882830  0.44673681  1
  O  O22  1  0.52504368  0.23137211  0.97328126  1
  O  O23  1  0.94215401  0.74117170  0.05326319  1
loop_
_geom_bond_atom_site_label_1
_geom_bond_atom_site_label_2
_geom_bond_distance
_geom_bond_site_symmetry_2
O0 Se0 1.672609 1_555
O0 Sc0 2.079371 1_555
O1 Se1 1.672609 1_555
O1 Sc1 2.079371 1_555
O2 Se2 1.755389 1_555
O2 Sb0 1.995342 1_665
O3 Se3 1.755389 1_555
O3 Sb1 1.995342 1_556
O4 Se2 1.752434 1_555
O4 Sb1 1.995877 1_566
O5 Se0 1.673402 1_555
O5 Sc1 2.079954 1_555
O6 Se1 1.673402 1_555
O6 Sc0 2.079954 1_655
O7 Se3 1.752434 1_555
O7 Sb0 1.995877 1_555
O8 Se1 1.797224 1_555
O8 Sb0 1.960557 1_655
O9 Se2 1.652551 1_555
O9 Sc1 2.122707 1_555
O10 Se0 1.797224 1_555
O10 Sb1 1.960557 1_565
O11 Se3 1.652551 1_555
O11 Sc0 2.122707 1_556
O12 Se4 1.672609 1_555
O12 Sc0 2.079371 1_656
O13 Se5 1.672609 1_555
O13 Sc1 2.079371 1_555
O14 Se6 1.755389 1_555
O14 Sb0 1.995342 1_555
O15 Se7 1.755389 1_555
O15 Sb1 1.995342 1_565
O16 Se6 1.752434 1_555
O16 Sb1 1.995877 1_555
O17 Se4 1.673402 1_555
O17 Sc1 2.079954 1_555
O18 Se5 1.673402 1_555
O18 Sc0 2.079954 1_556
O19 Se7 1.752434 1_555
O19 Sb0 1.995877 1_665
O20 Se5 1.797224 1_555
O20 Sb0 1.960557 1_565
O21 Se6 1.652551 1_555
O21 Sc1 2.122707 1_555
O22 Se4 1.797224 1_555
O22 Sb1 1.960557 1_556
O23 Se7 1.652551 1_555
O23 Sc0 2.122707 1_655
