# generated using pymatgen
data_Sc10Si4GeAs
_symmetry_space_group_name_H-M   'P 1'
_cell_length_a   7.91009871
_cell_length_b   7.90264985
_cell_length_c   5.83712133
_cell_angle_alpha   90.00000000
_cell_angle_beta   90.00000000
_cell_angle_gamma   119.99968709
_symmetry_Int_Tables_number   1
_chemical_formula_structural   Sc10Si4GeAs
_chemical_formula_sum   'Sc10 Si4 Ge1 As1'
_cell_volume   315.99875004
_cell_formula_units_Z   1
loop_
 _symmetry_equiv_pos_site_id
 _symmetry_equiv_pos_as_xyz
  1  'x, y, z'
loop_
 _atom_site_type_symbol
 _atom_site_label
 _atom_site_symmetry_multiplicity
 _atom_site_fract_x
 _atom_site_fract_y
 _atom_site_fract_z
 _atom_site_occupancy
  Sc  Sc0  1  0.99578269  0.75518508  0.75000000  1
  Sc  Sc1  1  0.99918306  0.24188599  0.25000000  1
  Sc  Sc2  1  0.75959497  0.75858018  0.25000000  1
  Sc  Sc3  1  0.75902839  0.99987903  0.75000000  1
  Sc  Sc4  1  0.24084060  0.24492418  0.75000000  1
  Sc  Sc5  1  0.24246262  0.99816551  0.25000000  1
  Sc  Sc6  1  0.33282450  0.66595855  0.49978493  1
  Sc  Sc7  1  0.66947608  0.33492182  0.00027084  1
  Sc  Sc8  1  0.66947608  0.33492182  0.49972916  1
  Sc  Sc9  1  0.33282450  0.66595855  0.00021507  1
  Si  Si0  1  0.00112335  0.60642266  0.25000000  1
  Si  Si1  1  0.99995679  0.39466212  0.75000000  1
  Si  Si2  1  0.60588382  0.60626749  0.75000000  1
  Si  Si3  1  0.60846633  0.99967414  0.25000000  1
  Ge  Ge0  1  0.39334127  0.39205918  0.25000000  1
  As  As0  1  0.38973195  0.00053368  0.75000000  1
loop_
_geom_bond_atom_site_label_1
_geom_bond_atom_site_label_2
_geom_bond_distance
_geom_bond_site_symmetry_2
Sc0 Si2 2.695804 1_555
Sc0 Si1 2.865738 1_555
Sc0 Si0 3.154603 1_655
Sc0 Si0 3.154603 1_656
Sc1 Si3 2.701846 1_545
Sc1 Si0 2.873163 1_655
Sc1 Si1 3.157262 1_554
Sc1 Si1 3.157262 1_555
Sc2 Si3 2.708655 1_555
Sc2 Si0 2.719046 1_655
Sc2 Si2 3.159378 1_555
Sc2 Si2 3.159378 1_554
Sc3 Si2 2.715705 1_555
Sc3 Si1 2.723910 1_565
Sc3 Si3 3.151898 1_556
Sc3 Si3 3.151898 1_555
Sc4 Si1 2.699180 1_455
Sc4 Si2 2.871696 1_555
Sc5 Si0 2.705268 1_555
Sc5 Si3 2.889183 1_555
Sc6 Si0 2.827898 1_555
Sc6 Si1 2.831515 1_455
Sc6 Si2 2.835459 1_555
Sc6 Si3 2.843369 1_555
Sc7 Si1 2.820738 1_554
Sc7 Si0 2.825216 1_655
Sc7 Si2 2.839723 1_554
Sc7 Si3 2.845746 1_545
Sc8 Si1 2.820738 1_555
Sc8 Si0 2.825216 1_655
Sc8 Si2 2.839723 1_555
Sc8 Si3 2.845746 1_545
Sc9 Si0 2.827898 1_555
Sc9 Si1 2.831515 1_454
Sc9 Si2 2.835459 1_554
Sc9 Si3 2.843369 1_555
Ge0 Sc5 2.720095 1_545
Ge0 Sc1 2.725652 1_455
Ge0 Sc6 2.841886 1_555
Ge0 Sc9 2.841886 1_555
Ge0 Sc8 2.843589 1_555
Ge0 Sc7 2.843589 1_555
Ge0 Sc2 2.896809 1_555
Ge0 Sc4 3.150005 1_555
Ge0 Sc4 3.150005 1_554
As0 Sc4 2.718773 1_555
As0 Sc0 2.725436 1_445
As0 Sc9 2.852456 1_546
As0 Sc6 2.852456 1_545
As0 Sc7 2.857675 1_556
As0 Sc8 2.857675 1_555
As0 Sc3 2.923761 1_545
As0 Sc5 3.139040 1_546
As0 Sc5 3.139040 1_545
