# generated using pymatgen
data_Sr4Mn(N2Cl)2
_symmetry_space_group_name_H-M   'P 1'
_cell_length_a   5.72708515
_cell_length_b   7.92116516
_cell_length_c   10.03500032
_cell_angle_alpha   81.67397232
_cell_angle_beta   90.00000000
_cell_angle_gamma   90.00000000
_symmetry_Int_Tables_number   1
_chemical_formula_structural   Sr4Mn(N2Cl)2
_chemical_formula_sum   'Sr8 Mn2 N8 Cl4'
_cell_volume   450.44149353
_cell_formula_units_Z   2
loop_
 _symmetry_equiv_pos_site_id
 _symmetry_equiv_pos_as_xyz
  1  'x, y, z'
loop_
 _atom_site_type_symbol
 _atom_site_label
 _atom_site_symmetry_multiplicity
 _atom_site_fract_x
 _atom_site_fract_y
 _atom_site_fract_z
 _atom_site_occupancy
  Sr  Sr0  1  0.75000000  0.28673431  0.28807078  1
  Sr  Sr1  1  0.75000000  0.00433729  0.62027138  1
  Sr  Sr2  1  0.75000000  0.45105049  0.61614812  1
  Sr  Sr3  1  0.75000000  0.81514843  0.09882032  1
  Sr  Sr4  1  0.25000000  0.99566271  0.37972862  1
  Sr  Sr5  1  0.25000000  0.54894951  0.38385188  1
  Sr  Sr6  1  0.25000000  0.18485157  0.90117968  1
  Sr  Sr7  1  0.25000000  0.71326569  0.71192922  1
  Mn  Mn0  1  0.75000000  0.76883465  0.40299105  1
  Mn  Mn1  1  0.25000000  0.23116535  0.59700895  1
  N  N0  1  0.25000000  0.03675592  0.70022348  1
  N  N1  1  0.00932760  0.24866760  0.49306238  1
  N  N2  1  0.50932760  0.75133240  0.50693762  1
  N  N3  1  0.99067240  0.75133240  0.50693762  1
  N  N4  1  0.75000000  0.60564557  0.30437197  1
  N  N5  1  0.75000000  0.96324408  0.29977652  1
  N  N6  1  0.49067240  0.24866760  0.49306238  1
  N  N7  1  0.25000000  0.39435443  0.69562803  1
  Cl  Cl0  1  0.25000000  0.32324761  0.16035403  1
  Cl  Cl1  1  0.75000000  0.67675239  0.83964597  1
  Cl  Cl2  1  0.25000000  0.84105491  0.08694335  1
  Cl  Cl3  1  0.75000000  0.15894509  0.91305665  1
loop_
_geom_bond_atom_site_label_1
_geom_bond_atom_site_label_2
_geom_bond_distance
_geom_bond_site_symmetry_2
Mn0 N3 1.721992 1_555
Mn0 N2 1.721992 1_555
Mn0 N5 1.726935 1_555
Mn0 N4 1.738050 1_555
Mn1 N6 1.721992 1_555
Mn1 N1 1.721992 1_555
Mn1 N0 1.726935 1_555
Mn1 N7 1.738050 1_555
N0 Sr6 2.475463 1_555
N0 Sr7 2.548062 1_545
N0 Sr1 2.994863 1_455
N0 Sr1 2.994863 1_555
N1 Sr0 2.519662 1_455
N1 Sr1 2.620217 1_455
N1 Sr2 2.621992 1_455
N1 Sr4 2.805317 1_545
N1 Sr5 2.829067 1_555
N2 Sr7 2.519662 1_555
N2 Sr4 2.620217 1_555
N2 Sr5 2.621992 1_555
N2 Sr1 2.805317 1_565
N2 Sr2 2.829067 1_555
N3 Sr7 2.519662 1_655
N3 Sr4 2.620217 1_655
N3 Sr5 2.621992 1_655
N3 Sr1 2.805317 1_565
N3 Sr2 2.829067 1_555
N4 Sr3 2.453034 1_555
N4 Sr0 2.554969 1_555
N4 Sr5 2.988974 1_655
N4 Sr5 2.988974 1_555
N4 Sr2 3.190391 1_555
N5 Sr3 2.475463 1_555
N5 Sr0 2.548062 1_565
N5 Sr4 2.994863 1_555
N5 Sr4 2.994863 1_655
N6 Sr0 2.519662 1_555
N6 Sr1 2.620217 1_555
N6 Sr2 2.621992 1_555
N6 Sr4 2.805317 1_545
N6 Sr5 2.829067 1_555
N7 Sr6 2.453034 1_555
N7 Sr7 2.554969 1_555
N7 Sr2 2.988974 1_455
N7 Sr2 2.988974 1_555
N7 Sr5 3.190391 1_555
Cl0 Sr6 2.965088 1_554
Cl0 Sr5 3.063940 1_555
Cl0 Sr0 3.133492 1_455
Cl0 Sr0 3.133492 1_555
Cl0 Sr4 3.150423 1_545
Cl1 Sr3 2.965088 1_556
Cl1 Sr2 3.063940 1_555
Cl1 Sr7 3.133492 1_655
Cl1 Sr7 3.133492 1_555
Cl1 Sr1 3.150423 1_565
Cl2 Sr3 2.872126 1_455
Cl2 Sr3 2.872126 1_555
Cl2 Sr6 3.069362 1_564
Cl2 Sr4 3.342805 1_555
Cl2 Sr5 3.497779 1_555
Cl3 Sr6 2.872126 1_655
Cl3 Sr6 2.872126 1_555
Cl3 Sr3 3.069362 1_546
Cl3 Sr1 3.342805 1_555
Cl3 Sr2 3.497779 1_555
