# generated using pymatgen
data_LiP2RhO7
_symmetry_space_group_name_H-M   'P 1'
_cell_length_a   8.08727454
_cell_length_b   4.78103429
_cell_length_c   6.97311424
_cell_angle_alpha   71.30538912
_cell_angle_beta   90.00000000
_cell_angle_gamma   90.00000000
_symmetry_Int_Tables_number   1
_chemical_formula_structural   LiP2RhO7
_chemical_formula_sum   'Li2 P4 Rh2 O14'
_cell_volume   255.39421242
_cell_formula_units_Z   2
loop_
 _symmetry_equiv_pos_site_id
 _symmetry_equiv_pos_as_xyz
  1  'x, y, z'
loop_
 _atom_site_type_symbol
 _atom_site_label
 _atom_site_symmetry_multiplicity
 _atom_site_fract_x
 _atom_site_fract_y
 _atom_site_fract_z
 _atom_site_occupancy
  Li  Li0  1  0.88600489  0.81854207  0.17846381  1
  Li  Li1  1  0.38600489  0.18145793  0.82153619  1
  P  P0  1  0.06936698  0.40309469  0.97533369  1
  P  P1  1  0.56936698  0.59690531  0.02466631  1
  P  P2  1  0.96428551  0.79327949  0.58512939  1
  P  P3  1  0.46428551  0.20672051  0.41487061  1
  Rh  Rh0  1  0.74935541  0.21412954  0.77629354  1
  Rh  Rh1  1  0.24935541  0.78587046  0.22370646  1
  O  O0  1  0.09415875  0.58987051  0.74403184  1
  O  O1  1  0.59415875  0.41012949  0.25596816  1
  O  O2  1  0.06335002  0.61073654  0.10000647  1
  O  O3  1  0.56335002  0.38926346  0.89999353  1
  O  O4  1  0.30662143  0.38016736  0.41664466  1
  O  O5  1  0.80662143  0.61983264  0.58335534  1
  O  O6  1  0.55190142  0.12958795  0.61713969  1
  O  O7  1  0.05190142  0.87041205  0.38286031  1
  O  O8  1  0.43564843  0.93105456  0.35789651  1
  O  O9  1  0.93564843  0.06894544  0.64210349  1
  O  O10  1  0.40443745  0.75819977  0.00307599  1
  O  O11  1  0.90443745  0.24180023  0.99692401  1
  O  O12  1  0.71717072  0.80242874  0.98315019  1
  O  O13  1  0.21717072  0.19757126  0.01684981  1
loop_
_geom_bond_atom_site_label_1
_geom_bond_atom_site_label_2
_geom_bond_distance
_geom_bond_site_symmetry_2
Li0 O2 1.921428 1_655
Li0 O12 1.947415 1_554
Li0 O11 2.019297 1_564
Li0 O7 2.029664 1_655
Li1 O3 1.921428 1_555
Li1 O13 1.947415 1_556
Li1 O10 2.019297 1_546
Li1 O6 2.029664 1_555
O0 P0 1.586112 1_555
O0 P2 1.608081 1_455
O1 P1 1.586112 1_555
O1 P3 1.608081 1_555
O2 P0 1.515567 1_554
O2 Rh1 2.042299 1_555
O3 P1 1.515567 1_556
O3 Rh0 2.042299 1_555
O4 P3 1.523222 1_555
O4 Rh1 2.028302 1_555
O5 P2 1.523222 1_555
O5 Rh0 2.028302 1_555
O6 P3 1.514594 1_555
O6 Rh0 2.057319 1_555
O7 P2 1.514594 1_455
O7 Rh1 2.057319 1_555
O8 P3 1.511348 1_565
O8 Rh1 2.010874 1_555
O9 P2 1.511348 1_545
O9 Rh0 2.010874 1_555
O10 P1 1.523819 1_555
O10 Rh1 2.021855 1_555
O11 P0 1.523819 1_655
O11 Rh0 2.021855 1_555
O12 P1 1.515189 1_556
O12 Rh0 2.050052 1_565
O13 P0 1.515189 1_554
O13 Rh1 2.050052 1_545
