# generated using pymatgen
data_Zr6Zn17AsPt6
_symmetry_space_group_name_H-M   'P 1'
_cell_length_a   8.75816881
_cell_length_b   8.75816895
_cell_length_c   8.75816958
_cell_angle_alpha   60.00000494
_cell_angle_beta   60.00000441
_cell_angle_gamma   60.00000135
_symmetry_Int_Tables_number   1
_chemical_formula_structural   Zr6Zn17AsPt6
_chemical_formula_sum   'Zr6 Zn17 As1 Pt6'
_cell_volume   475.03435308
_cell_formula_units_Z   1
loop_
 _symmetry_equiv_pos_site_id
 _symmetry_equiv_pos_as_xyz
  1  'x, y, z'
loop_
 _atom_site_type_symbol
 _atom_site_label
 _atom_site_symmetry_multiplicity
 _atom_site_fract_x
 _atom_site_fract_y
 _atom_site_fract_z
 _atom_site_occupancy
  Zr  Zr0  1  0.71480698  0.28519302  0.28519302  1
  Zr  Zr1  1  0.28519302  0.71480698  0.71480698  1
  Zr  Zr2  1  0.28519302  0.71480698  0.28519302  1
  Zr  Zr3  1  0.71480698  0.28519302  0.71480698  1
  Zr  Zr4  1  0.28519302  0.28519302  0.71480698  1
  Zr  Zr5  1  0.71480698  0.71480698  0.28519302  1
  Zn  Zn0  1  0.12409272  0.12409272  0.12409272  1
  Zn  Zn1  1  0.87590728  0.87590728  0.87590728  1
  Zn  Zn2  1  0.12409272  0.12409272  0.62772185  1
  Zn  Zn3  1  0.12409272  0.62772185  0.12409272  1
  Zn  Zn4  1  0.87590728  0.87590728  0.37227815  1
  Zn  Zn5  1  0.87590728  0.37227815  0.87590728  1
  Zn  Zn6  1  0.62772185  0.12409272  0.12409272  1
  Zn  Zn7  1  0.37227815  0.87590728  0.87590728  1
  Zn  Zn8  1  0.33924859  0.33924859  0.33924859  1
  Zn  Zn9  1  0.66075141  0.66075141  0.66075141  1
  Zn  Zn10  1  0.33924859  0.33924859  0.98225524  1
  Zn  Zn11  1  0.33924859  0.98225524  0.33924859  1
  Zn  Zn12  1  0.66075141  0.66075141  0.01774476  1
  Zn  Zn13  1  0.66075141  0.01774476  0.66075141  1
  Zn  Zn14  1  0.98225524  0.33924859  0.33924859  1
  Zn  Zn15  1  0.01774476  0.66075141  0.66075141  1
  Zn  Zn16  1  0.00000000  0.00000000  0.00000000  1
  As  As0  1  0.50000000  0.50000000  0.50000000  1
  Pt  Pt0  1  0.50000000  0.00000000  0.00000000  1
  Pt  Pt1  1  0.00000000  0.50000000  0.50000000  1
  Pt  Pt2  1  0.00000000  0.50000000  0.00000000  1
  Pt  Pt3  1  0.50000000  0.00000000  0.50000000  1
  Pt  Pt4  1  0.00000000  0.00000000  0.50000000  1
  Pt  Pt5  1  0.50000000  0.50000000  0.00000000  1
loop_
_geom_bond_atom_site_label_1
_geom_bond_atom_site_label_2
_geom_bond_distance
_geom_bond_site_symmetry_2
Zn0 Zn16 2.662167 1_555
Zn1 Zn16 2.662167 1_666
Zn16 Zn7 2.662167 1_544
Zn16 Zn6 2.662167 1_455
Zn16 Zn5 2.662167 1_454
Zn16 Zn3 2.662167 1_545
Zn16 Zn4 2.662167 1_445
Zn16 Zn2 2.662167 1_554
As0 Zr3 2.660582 1_555
As0 Zr1 2.660582 1_555
As0 Zr2 2.660582 1_555
As0 Zr0 2.660582 1_555
As0 Zr5 2.660582 1_555
As0 Zr4 2.660582 1_555
Pt0 Zn10 2.531451 1_554
Pt0 Zn12 2.531451 1_545
Pt0 Zn11 2.531451 1_545
Pt0 Zn13 2.531451 1_554
Pt0 Zn6 2.688181 1_555
Pt0 Zn7 2.688181 1_544
Pt0 Zn1 2.688181 1_544
Pt0 Zn0 2.688181 1_555
Pt0 Zr5 3.127011 1_545
Pt0 Zr4 3.127011 1_554
Pt0 Zr3 3.127011 1_554
Pt0 Zr2 3.127011 1_545
Pt1 Zn15 2.531443 1_555
Pt1 Zn14 2.531443 1_455
Pt1 Zn8 2.531448 1_555
Pt1 Zn9 2.531448 1_455
Pt1 Zn4 2.688181 1_455
Pt1 Zn2 2.688181 1_555
Pt1 Zn5 2.688182 1_455
Pt1 Zn3 2.688182 1_555
Pt1 Zr4 3.127011 1_555
Pt1 Zr5 3.127011 1_455
Pt1 Zr2 3.127011 1_555
Pt1 Zr3 3.127011 1_455
Pt2 Zn10 2.531450 1_554
Pt2 Zn12 2.531450 1_455
Pt2 Zn14 2.531451 1_455
Pt2 Zn15 2.531451 1_554
Pt2 Zn3 2.688181 1_555
Pt2 Zn5 2.688181 1_454
Pt2 Zn1 2.688181 1_454
Pt2 Zn0 2.688181 1_555
Pt2 Zr5 3.127011 1_455
Pt2 Zr4 3.127011 1_554
Pt2 Zr1 3.127011 1_554
Pt2 Zr0 3.127011 1_455
Pt3 Zn13 2.531443 1_555
Pt3 Zn11 2.531443 1_545
Pt3 Zn8 2.531448 1_555
Pt3 Zn9 2.531448 1_545
Pt3 Zn4 2.688181 1_545
Pt3 Zn2 2.688181 1_555
Pt3 Zn7 2.688182 1_545
Pt3 Zn6 2.688182 1_555
Pt3 Zr4 3.127011 1_555
Pt3 Zr5 3.127011 1_545
Pt3 Zr0 3.127011 1_555
Pt3 Zr1 3.127011 1_545
Pt4 Zn11 2.531451 1_545
Pt4 Zn13 2.531451 1_455
Pt4 Zn14 2.531451 1_455
Pt4 Zn15 2.531451 1_545
Pt4 Zn2 2.688181 1_555
Pt4 Zn4 2.688181 1_445
Pt4 Zn1 2.688182 1_445
Pt4 Zn0 2.688182 1_555
Pt4 Zr1 3.127011 1_545
Pt4 Zr0 3.127011 1_455
Pt4 Zr3 3.127011 1_455
Pt4 Zr2 3.127011 1_545
Pt5 Zn12 2.531443 1_555
Pt5 Zn10 2.531443 1_554
Pt5 Zn8 2.531449 1_555
Pt5 Zn9 2.531449 1_554
Pt5 Zn5 2.688181 1_554
Pt5 Zn3 2.688181 1_555
Pt5 Zn7 2.688181 1_554
Pt5 Zn6 2.688181 1_555
Pt5 Zr2 3.127011 1_555
Pt5 Zr3 3.127011 1_554
Pt5 Zr0 3.127011 1_555
Pt5 Zr1 3.127011 1_554
