# generated using pymatgen
data_ScSnF7
_symmetry_space_group_name_H-M   'P 1'
_cell_length_a   5.37380342
_cell_length_b   8.48300368
_cell_length_c   11.54007313
_cell_angle_alpha   63.32403146
_cell_angle_beta   90.00000000
_cell_angle_gamma   90.00000000
_symmetry_Int_Tables_number   1
_chemical_formula_structural   ScSnF7
_chemical_formula_sum   'Sc4 Sn4 F28'
_cell_volume   470.07114971
_cell_formula_units_Z   4
loop_
 _symmetry_equiv_pos_site_id
 _symmetry_equiv_pos_as_xyz
  1  'x, y, z'
loop_
 _atom_site_type_symbol
 _atom_site_label
 _atom_site_symmetry_multiplicity
 _atom_site_fract_x
 _atom_site_fract_y
 _atom_site_fract_z
 _atom_site_occupancy
  Sc  Sc0  1  0.25886714  0.81674068  0.26628452  1
  Sc  Sc1  1  0.74113286  0.18325932  0.73371548  1
  Sc  Sc2  1  0.75886714  0.18325932  0.23371548  1
  Sc  Sc3  1  0.24113286  0.81674068  0.76628452  1
  Sn  Sn0  1  0.76036598  0.73021767  0.04376400  1
  Sn  Sn1  1  0.23963402  0.26978233  0.95623600  1
  Sn  Sn2  1  0.26036598  0.26978233  0.45623600  1
  Sn  Sn3  1  0.73963402  0.73021767  0.54376400  1
  F  F0  1  0.95415591  0.70692311  0.41449542  1
  F  F1  1  0.04584409  0.29307689  0.58550458  1
  F  F2  1  0.45415591  0.29307689  0.08550458  1
  F  F3  1  0.54584409  0.70692311  0.91449542  1
  F  F4  1  0.47611923  0.72519412  0.15373528  1
  F  F5  1  0.52388077  0.27480588  0.84626472  1
  F  F6  1  0.97611923  0.27480588  0.34626472  1
  F  F7  1  0.02388077  0.72519412  0.65373528  1
  F  F8  1  0.96688963  0.74608272  0.18097215  1
  F  F9  1  0.03311037  0.25391728  0.81902785  1
  F  F10  1  0.46688963  0.25391728  0.31902785  1
  F  F11  1  0.53311037  0.74608272  0.68097215  1
  F  F12  1  0.78495672  0.47236038  0.13814630  1
  F  F13  1  0.21504328  0.52763962  0.86185370  1
  F  F14  1  0.28495672  0.52763962  0.36185370  1
  F  F15  1  0.71504328  0.47236038  0.63814630  1
  F  F16  1  0.92532788  0.26452643  0.04891468  1
  F  F17  1  0.07467212  0.73547357  0.95108532  1
  F  F18  1  0.42532788  0.73547357  0.45108532  1
  F  F19  1  0.57467212  0.26452643  0.54891468  1
  F  F20  1  0.74699958  0.98840014  0.44472412  1
  F  F21  1  0.25300042  0.01159986  0.55527588  1
  F  F22  1  0.24699958  0.01159986  0.05527588  1
  F  F23  1  0.75300042  0.98840014  0.94472412  1
  F  F24  1  0.57771414  0.97229760  0.23546808  1
  F  F25  1  0.42228586  0.02770240  0.76453192  1
  F  F26  1  0.07771414  0.02770240  0.26453192  1
  F  F27  1  0.92228586  0.97229760  0.73546808  1
loop_
_geom_bond_atom_site_label_1
_geom_bond_atom_site_label_2
_geom_bond_distance
_geom_bond_site_symmetry_2
F0 Sn3 1.964192 1_555
F0 Sc0 2.245844 1_655
F1 Sn2 1.964192 1_555
F1 Sc1 2.245844 1_455
F2 Sn1 1.964192 1_554
F2 Sc2 2.245844 1_555
F3 Sn0 1.964192 1_556
F3 Sc3 2.245844 1_555
F4 Sn0 1.974089 1_555
F4 Sc0 2.135109 1_555
F5 Sn1 1.974089 1_555
F5 Sc1 2.135109 1_555
F6 Sn2 1.974089 1_655
F6 Sc2 2.135109 1_555
F7 Sn3 1.974089 1_455
F7 Sc3 2.135109 1_555
F8 Sn0 1.987027 1_555
F8 Sc0 2.078518 1_655
F9 Sn1 1.987027 1_555
F9 Sc1 2.078518 1_455
F10 Sn2 1.987027 1_555
F10 Sc2 2.078518 1_555
F11 Sn3 1.987027 1_555
F11 Sc3 2.078518 1_555
F12 Sn0 1.961967 1_555
F12 Sc2 2.195888 1_555
F13 Sn1 1.961967 1_555
F13 Sc3 2.195888 1_555
F14 Sn2 1.961967 1_555
F14 Sc0 2.195888 1_555
F15 Sn3 1.961967 1_555
F15 Sc1 2.195888 1_555
F16 Sn1 1.988926 1_654
F16 Sc2 2.122123 1_555
F17 Sn0 1.988926 1_456
F17 Sc3 2.122123 1_555
F18 Sn3 1.988926 1_555
F18 Sc0 2.122123 1_555
F19 Sn2 1.988926 1_555
F19 Sc1 2.122123 1_555
F20 Sn3 1.963943 1_555
F20 Sc2 2.247627 1_565
F21 Sn2 1.963943 1_555
F21 Sc3 2.247627 1_545
F22 Sn1 1.963943 1_554
F22 Sc0 2.247627 1_545
F23 Sn0 1.963943 1_556
F23 Sc1 2.247627 1_565
F24 Sc2 2.029336 1_565
F24 Sc0 2.093380 1_555
F25 Sc3 2.029336 1_545
F25 Sc1 2.093380 1_555
F26 Sc0 2.029336 1_545
F26 Sc2 2.093380 1_455
F27 Sc1 2.029336 1_565
F27 Sc3 2.093380 1_655
