# generated using pymatgen
data_Zr10HPb6S
_symmetry_space_group_name_H-M   'P 1'
_cell_length_a   8.65708262
_cell_length_b   8.65708221
_cell_length_c   5.88968257
_cell_angle_alpha   90.00000000
_cell_angle_beta   90.00000000
_cell_angle_gamma   120.00000532
_symmetry_Int_Tables_number   1
_chemical_formula_structural   Zr10HPb6S
_chemical_formula_sum   'Zr10 H1 Pb6 S1'
_cell_volume   382.26593736
_cell_formula_units_Z   1
loop_
 _symmetry_equiv_pos_site_id
 _symmetry_equiv_pos_as_xyz
  1  'x, y, z'
loop_
 _atom_site_type_symbol
 _atom_site_label
 _atom_site_symmetry_multiplicity
 _atom_site_fract_x
 _atom_site_fract_y
 _atom_site_fract_z
 _atom_site_occupancy
  Zr  Zr0  1  0.66666700  0.33333300  0.50000000  1
  Zr  Zr1  1  0.33333300  0.66666700  0.50000000  1
  Zr  Zr2  1  0.33333300  0.66666700  0.00000000  1
  Zr  Zr3  1  0.66666700  0.33333300  0.00000000  1
  Zr  Zr4  1  0.75740077  0.75740077  0.26286994  1
  Zr  Zr5  1  0.24259923  1.00000000  0.26286994  1
  Zr  Zr6  1  1.00000000  0.24259923  0.26286994  1
  Zr  Zr7  1  0.24259923  0.24259923  0.73713006  1
  Zr  Zr8  1  0.75740077  0.00000000  0.73713006  1
  Zr  Zr9  1  0.00000000  0.75740077  0.73713006  1
  H  H0  1  0.00000000  0.00000000  0.50000000  1
  Pb  Pb0  1  0.39566201  0.39566201  0.24842188  1
  Pb  Pb1  1  0.60433799  0.00000000  0.24842188  1
  Pb  Pb2  1  0.00000000  0.60433799  0.24842188  1
  Pb  Pb3  1  0.60433799  0.60433799  0.75157812  1
  Pb  Pb4  1  0.39566201  1.00000000  0.75157812  1
  Pb  Pb5  1  1.00000000  0.39566201  0.75157812  1
  S  S0  1  0.00000000  0.00000000  0.00000000  1
loop_
_geom_bond_atom_site_label_1
_geom_bond_atom_site_label_2
_geom_bond_distance
_geom_bond_site_symmetry_2
H0 Zr7 2.522181 1_555
H0 Zr4 2.522181 1_445
H0 Zr6 2.522181 1_455
H0 Zr9 2.522181 1_545
H0 Zr5 2.522181 1_545
H0 Zr8 2.522181 1_455
Pb0 Zr5 2.992799 1_545
Pb0 Zr6 2.992799 1_455
Pb0 Zr2 3.033491 1_555
Pb0 Zr3 3.033491 1_555
Pb0 Zr1 3.042501 1_555
Pb0 Zr0 3.042501 1_555
Pb0 Zr4 3.132758 1_555
Pb0 Zr7 3.168698 1_555
Pb0 Zr7 3.289990 1_554
Pb1 Zr6 2.992799 1_555
Pb1 Zr4 2.992799 1_545
Pb1 Zr3 3.033484 1_555
Pb1 Zr2 3.033486 1_545
Pb1 Zr0 3.042493 1_555
Pb1 Zr1 3.042496 1_545
Pb1 Zr5 3.132758 1_545
Pb1 Zr8 3.168698 1_555
Pb1 Zr8 3.289990 1_554
Pb2 Zr5 2.992799 1_555
Pb2 Zr4 2.992799 1_455
Pb2 Zr2 3.033484 1_555
Pb2 Zr3 3.033486 1_455
Pb2 Zr1 3.042493 1_555
Pb2 Zr0 3.042496 1_455
Pb2 Zr6 3.132758 1_455
Pb2 Zr9 3.168698 1_555
Pb2 Zr9 3.289990 1_554
Pb3 Zr8 2.992799 1_565
Pb3 Zr9 2.992799 1_655
Pb3 Zr3 3.033491 1_556
Pb3 Zr2 3.033491 1_556
Pb3 Zr0 3.042501 1_555
Pb3 Zr1 3.042501 1_555
Pb3 Zr7 3.132758 1_555
Pb3 Zr4 3.168698 1_555
Pb3 Zr4 3.289990 1_556
Pb4 Zr9 2.992799 1_555
Pb4 Zr7 2.992799 1_565
Pb4 Zr2 3.033484 1_556
Pb4 Zr3 3.033486 1_566
Pb4 Zr1 3.042493 1_555
Pb4 Zr0 3.042496 1_565
Pb4 Zr8 3.132758 1_565
Pb4 Zr5 3.168698 1_555
Pb4 Zr5 3.289990 1_556
Pb5 Zr8 2.992799 1_555
Pb5 Zr7 2.992799 1_655
Pb5 Zr3 3.033484 1_556
Pb5 Zr2 3.033486 1_656
Pb5 Zr0 3.042493 1_555
Pb5 Zr1 3.042496 1_655
Pb5 Zr9 3.132758 1_655
Pb5 Zr6 3.168698 1_555
Pb5 Zr6 3.289990 1_556
S0 Zr7 2.609182 1_554
S0 Zr4 2.609182 1_445
S0 Zr6 2.609182 1_455
S0 Zr9 2.609182 1_544
S0 Zr5 2.609183 1_545
S0 Zr8 2.609183 1_454
