# generated using pymatgen
data_K2MnVSe4
_symmetry_space_group_name_H-M   'P 1'
_cell_length_a   13.66458028
_cell_length_b   12.19623487
_cell_length_c   7.40935468
_cell_angle_alpha   84.62628693
_cell_angle_beta   62.70045472
_cell_angle_gamma   32.67326494
_symmetry_Int_Tables_number   1
_chemical_formula_structural   K2MnVSe4
_chemical_formula_sum   'K4 Mn2 V2 Se8'
_cell_volume   469.59352928
_cell_formula_units_Z   2
loop_
 _symmetry_equiv_pos_site_id
 _symmetry_equiv_pos_as_xyz
  1  'x, y, z'
loop_
 _atom_site_type_symbol
 _atom_site_label
 _atom_site_symmetry_multiplicity
 _atom_site_fract_x
 _atom_site_fract_y
 _atom_site_fract_z
 _atom_site_occupancy
  K  K0  1  0.67942785  0.67942785  0.32057215  1
  K  K1  1  0.32057215  0.32057215  0.67942785  1
  K  K2  1  0.57057215  0.57057215  0.92942785  1
  K  K3  1  0.92942785  0.92942785  0.57057215  1
  Mn  Mn0  1  0.00000000  0.00000000  0.00000000  1
  Mn  Mn1  1  0.25000000  0.25000000  0.25000000  1
  V  V0  1  0.50000000  0.50000000  0.50000000  1
  V  V1  1  0.75000000  0.75000000  0.75000000  1
  Se  Se0  1  0.36494659  0.02143836  0.93163397  1
  Se  Se1  1  0.68198109  0.93163397  0.02143836  1
  Se  Se2  1  0.93163397  0.68198109  0.36494659  1
  Se  Se3  1  0.02143836  0.36494659  0.68198109  1
  Se  Se4  1  0.88505341  0.22856164  0.31836603  1
  Se  Se5  1  0.56801891  0.31836603  0.22856164  1
  Se  Se6  1  0.31836603  0.56801891  0.88505341  1
  Se  Se7  1  0.22856164  0.88505341  0.56801891  1
loop_
_geom_bond_atom_site_label_1
_geom_bond_atom_site_label_2
_geom_bond_distance
_geom_bond_site_symmetry_2
K0 Se3 3.446459 1_654
K0 Se0 3.446459 1_565
K0 Se7 3.477912 1_555
K0 Se4 3.477913 1_555
K0 Se2 3.634274 1_555
K0 Se1 3.634274 1_555
K0 Se0 3.669695 1_654
K0 Se3 3.669696 1_565
K1 Se1 3.446459 1_456
K1 Se2 3.446459 1_545
K1 Se5 3.477912 1_555
K1 Se6 3.477913 1_555
K1 Se3 3.634274 1_555
K1 Se0 3.634274 1_555
K1 Se2 3.669695 1_456
K1 Se1 3.669695 1_545
K2 Se7 3.446459 1_556
K2 Se4 3.446459 1_555
K2 Se3 3.477912 1_655
K2 Se0 3.477913 1_565
K2 Se6 3.634274 1_555
K2 Se5 3.634274 1_556
K2 Se4 3.669695 1_466
K2 Se7 3.669696 1_645
K3 Se5 3.446459 1_655
K3 Se6 3.446459 1_565
K3 Se1 3.477912 1_556
K3 Se2 3.477913 1_555
K3 Se7 3.634274 1_655
K3 Se4 3.634274 1_565
K3 Se6 3.669695 1_654
K3 Se5 3.669695 1_566
Mn0 Se5 2.502769 1_455
Mn0 Se7 2.502769 1_544
Mn0 Se4 2.502769 1_455
Mn0 Se6 2.502770 1_544
Mn1 Se1 2.502769 1_545
Mn1 Se3 2.502769 1_555
Mn1 Se0 2.502769 1_554
Mn1 Se2 2.502770 1_455
Se0 V1 2.338709 1_545
Se1 V1 2.338709 1_554
Se2 V1 2.338709 1_555
Se3 V1 2.338710 1_455
Se4 V0 2.338709 1_555
Se5 V0 2.338709 1_555
Se6 V0 2.338709 1_555
Se7 V0 2.338710 1_555
