# generated using pymatgen
data_Sm2Se3
_symmetry_space_group_name_H-M   'P 1'
_cell_length_a   14.64689101
_cell_length_b   14.64680144
_cell_length_c   14.64684314
_cell_angle_alpha   144.88789659
_cell_angle_beta   144.88836682
_cell_angle_gamma   50.50088894
_symmetry_Int_Tables_number   1
_chemical_formula_structural   Sm2Se3
_chemical_formula_sum   'Sm16 Se24'
_cell_volume   1034.29897744
_cell_formula_units_Z   8
loop_
 _symmetry_equiv_pos_site_id
 _symmetry_equiv_pos_as_xyz
  1  'x, y, z'
loop_
 _atom_site_type_symbol
 _atom_site_label
 _atom_site_symmetry_multiplicity
 _atom_site_fract_x
 _atom_site_fract_y
 _atom_site_fract_z
 _atom_site_occupancy
  Sm  Sm0  1  0.84612940  0.95172664  0.37645125  1
  Sm  Sm1  1  0.57528187  0.46967805  0.62355489  1
  Sm  Sm2  1  0.16614297  0.16614231  -0.00000513  1
  Sm  Sm3  1  0.87499699  0.50643325  0.13148043  1
  Sm  Sm4  1  0.17476927  0.29826786  0.39451096  1
  Sm  Sm5  1  0.58386597  0.08386731  0.50000082  1
  Sm  Sm6  1  0.90375729  0.78025661  0.60548289  1
  Sm  Sm7  1  0.37496392  0.74351767  0.86853443  1
  Sm  Sm8  1  0.21974359  0.82522434  0.12349251  1
  Sm  Sm9  1  0.91612910  0.41613433  0.50000014  1
  Sm  Sm10  1  0.49356728  0.62504793  0.36856410  1
  Sm  Sm11  1  0.25648018  0.12500590  0.63143751  1
  Sm  Sm12  1  0.70172454  0.09624471  0.87649998  1
  Sm  Sm13  1  0.83385472  0.83385553  0.00000129  1
  Sm  Sm14  1  0.53032039  0.15387584  0.10560230  1
  Sm  Sm15  1  0.04827491  0.42472429  0.89440396  1
  Se  Se0  1  0.50602933  0.11532988  0.25369018  1
  Se  Se1  1  0.07375081  0.82731677  0.61085134  1
  Se  Se2  1  0.86162912  0.25234168  0.74629487  1
  Se  Se3  1  0.88844470  0.13470347  0.89069161  1
  Se  Se4  1  0.24401966  0.99774706  0.10930022  1
  Se  Se5  1  0.67616678  0.78695721  0.25341230  1
  Se  Se6  1  0.21646833  0.46288233  0.38915014  1
  Se  Se7  1  0.84169425  0.43763895  0.24594454  1
  Se  Se8  1  0.53353897  0.42274780  0.74657782  1
  Se  Se9  1  0.40424823  0.15830824  0.59594617  1
  Se  Se10  1  0.19169956  0.59575384  0.75405944  1
  Se  Se11  1  0.21303613  0.46646233  0.88920599  1
  Se  Se12  1  0.57725100  0.32383165  0.11078983  1
  Se  Se13  1  0.00224446  0.11155682  0.24626664  1
  Se  Se14  1  0.56235940  0.80830594  0.40405081  1
  Se  Se15  1  0.17268640  0.78353975  0.24642405  1
  Se  Se16  1  0.86528569  0.75598446  0.75373328  1
  Se  Se17  1  0.74765044  0.49396806  0.60929043  1
  Se  Se18  1  0.53709423  0.92626307  0.75356972  1
  Se  Se19  1  0.55812339  0.81219560  0.90406289  1
  Se  Se20  1  0.90817603  0.65406828  0.09598378  1
  Se  Se21  1  0.34594251  0.44187883  0.25408114  1
  Se  Se22  1  0.88466773  0.13835531  0.39069502  1
  Se  Se23  1  0.18779049  0.09186310  0.74591445  1
loop_
_geom_bond_atom_site_label_1
_geom_bond_atom_site_label_2
_geom_bond_distance
_geom_bond_site_symmetry_2
Se0 Sm14 2.944751 1_555
Se0 Sm2 2.948059 1_555
Se0 Sm1 3.003369 1_555
Se0 Sm5 3.138459 1_555
Se0 Sm7 3.238189 1_544
Se0 Sm0 3.316550 1_545
Se1 Sm6 2.907758 1_455
Se1 Sm2 2.931409 1_566
Se1 Sm7 2.943353 1_555
Se1 Sm3 3.136522 1_455
Se1 Sm0 3.162720 1_455
Se2 Sm15 2.944737 1_655
Se2 Sm2 2.948154 1_656
Se2 Sm0 3.003317 1_545
Se2 Sm5 3.138498 1_555
Se2 Sm3 3.238282 1_556
Se2 Sm1 3.316371 1_555
Se3 Sm12 2.945874 1_555
Se3 Sm5 2.947967 1_555
Se3 Sm6 3.003866 1_545
Se3 Sm2 3.137179 1_656
Se3 Sm3 3.236933 1_556
Se3 Sm4 3.317817 1_656
Se4 Sm8 2.945878 1_555
Se4 Sm5 2.947951 1_565
Se4 Sm4 3.003980 1_565
Se4 Sm2 3.137080 1_565
Se4 Sm7 3.236776 1_554
Se4 Sm6 3.317848 1_454
Se5 Sm0 2.908023 1_555
Se5 Sm5 2.932012 1_565
Se5 Sm7 2.942876 1_554
Se5 Sm3 3.136021 1_555
Se5 Sm6 3.162530 1_555
Se6 Sm4 2.907577 1_555
Se6 Sm2 2.931446 1_555
Se6 Sm3 2.943325 1_455
Se6 Sm7 3.136582 1_555
Se6 Sm1 3.162822 1_555
Se7 Sm6 2.911492 1_555
Se7 Sm3 2.964962 1_555
Se7 Sm12 3.018350 1_554
Se7 Sm4 3.151592 1_655
Se7 Sm9 3.158773 1_555
Se8 Sm1 2.908023 1_555
Se8 Sm5 2.931947 1_555
Se8 Sm3 2.943057 1_556
Se8 Sm7 3.135998 1_555
Se8 Sm4 3.162555 1_555
Se9 Sm12 2.911450 1_555
Se9 Sm11 2.964981 1_555
Se9 Sm4 3.018274 1_555
Se9 Sm8 3.151702 1_545
Se9 Sm5 3.158771 1_555
Se10 Sm4 2.911517 1_555
Se10 Sm7 2.964894 1_555
Se10 Sm8 3.018288 1_556
Se10 Sm6 3.151592 1_455
Se10 Sm9 3.158884 1_455
Se11 Sm15 2.908047 1_555
Se11 Sm9 2.931918 1_455
Se11 Sm11 2.943044 1_555
Se11 Sm10 3.136087 1_556
Se11 Sm8 3.162483 1_556
Se12 Sm14 2.908060 1_555
Se12 Sm9 2.931939 1_555
Se12 Sm10 2.943059 1_555
Se12 Sm11 3.136068 1_554
Se12 Sm12 3.162479 1_554
Se13 Sm4 2.945895 1_555
Se13 Sm9 2.947954 1_455
Se13 Sm12 3.003903 1_454
Se13 Sm13 3.137122 1_445
Se13 Sm11 3.236833 1_555
Se13 Sm8 3.317925 1_545
Se14 Sm8 2.911447 1_555
Se14 Sm10 2.964993 1_555
Se14 Sm6 3.018338 1_555
Se14 Sm12 3.151686 1_565
Se14 Sm5 3.158703 1_565
Se15 Sm8 2.907595 1_555
Se15 Sm13 2.931405 1_455
Se15 Sm11 2.943316 1_565
Se15 Sm10 3.136460 1_555
Se15 Sm15 3.162865 1_554
Se16 Sm6 2.945931 1_555
Se16 Sm9 2.947958 1_555
Se16 Sm8 3.003932 1_656
Se16 Sm13 3.137133 1_556
Se16 Sm10 3.236837 1_555
Se16 Sm12 3.317822 1_565
Se17 Sm1 2.944720 1_555
Se17 Sm13 2.948124 1_556
Se17 Sm15 3.003397 1_655
Se17 Sm9 3.138455 1_555
Se17 Sm10 3.238117 1_555
Se17 Sm14 3.316507 1_555
Se18 Sm12 2.907708 1_565
Se18 Sm13 2.931492 1_556
Se18 Sm10 2.943369 1_555
Se18 Sm11 3.136371 1_565
Se18 Sm14 3.162769 1_566
Se19 Sm1 2.911180 1_555
Se19 Sm7 2.961784 1_555
Se19 Sm14 3.021536 1_566
Se19 Sm0 3.150392 1_556
Se19 Sm13 3.162500 1_556
Se20 Sm0 2.911182 1_555
Se20 Sm3 2.961740 1_555
Se20 Sm15 3.021437 1_654
Se20 Sm1 3.150704 1_554
Se20 Sm13 3.162591 1_555
Se21 Sm15 2.911193 1_554
Se21 Sm10 2.961819 1_555
Se21 Sm1 3.021465 1_555
Se21 Sm14 3.150353 1_555
Se21 Sm2 3.162517 1_555
Se22 Sm0 2.944729 1_545
Se22 Sm13 2.948046 1_545
Se22 Sm14 3.003337 1_555
Se22 Sm9 3.138480 1_555
Se22 Sm11 3.238171 1_655
Se22 Sm15 3.316619 1_655
Se23 Sm14 2.911271 1_556
Se23 Sm11 2.961786 1_555
Se23 Sm0 3.021394 1_445
Se23 Sm15 3.150348 1_555
Se23 Sm2 3.162464 1_556
