# generated using pymatgen
data_Sr4H12IrAu
_symmetry_space_group_name_H-M   'P 1'
_cell_length_a   7.43594151
_cell_length_b   7.43594203
_cell_length_c   5.67403725
_cell_angle_alpha   90.00100137
_cell_angle_beta   90.00099416
_cell_angle_gamma   135.16266720
_symmetry_Int_Tables_number   1
_chemical_formula_structural   Sr4H12IrAu
_chemical_formula_sum   'Sr4 H12 Ir1 Au1'
_cell_volume   221.21401646
_cell_formula_units_Z   1
loop_
 _symmetry_equiv_pos_site_id
 _symmetry_equiv_pos_as_xyz
  1  'x, y, z'
loop_
 _atom_site_type_symbol
 _atom_site_label
 _atom_site_symmetry_multiplicity
 _atom_site_fract_x
 _atom_site_fract_y
 _atom_site_fract_z
 _atom_site_occupancy
  Sr  Sr0  1  0.64579216  0.35420784  1.00000000  1
  Sr  Sr1  1  0.35420784  0.64579216  0.00000000  1
  Sr  Sr2  1  0.85229146  0.14770854  0.50000000  1
  Sr  Sr3  1  0.14770854  0.85229146  0.50000000  1
  H  H0  1  0.87910233  0.12089767  1.00000000  1
  H  H1  1  0.12089767  0.87910233  0.00000000  1
  H  H2  1  0.62199725  0.37800275  0.50000000  1
  H  H3  1  0.37800275  0.62199725  0.50000000  1
  H  H4  1  0.00012234  0.50004963  0.24578988  1
  H  H5  1  0.99987766  0.49995037  0.75421012  1
  H  H6  1  0.49995037  0.99987766  0.75421012  1
  H  H7  1  0.50004963  0.00012234  0.24578988  1
  H  H8  1  0.28737814  0.28737814  0.29264115  1
  H  H9  1  0.71262186  0.71262186  0.70735885  1
  H  H10  1  0.29263503  0.29263503  0.71257257  1
  H  H11  1  0.70736497  0.70736497  0.28742743  1
  Ir  Ir0  1  0.50000000  0.50000000  0.50000000  1
  Au  Au0  1  0.00000000  0.00000000  0.00000000  1
loop_
_geom_bond_atom_site_label_1
_geom_bond_atom_site_label_2
_geom_bond_distance
_geom_bond_site_symmetry_2
H0 Sr1 2.856434 1_546
H0 Sr1 2.856434 1_656
H0 Sr2 2.860863 1_556
H0 Sr2 2.860863 1_555
H1 Sr0 2.856434 1_564
H1 Sr0 2.856434 1_454
H1 Sr3 2.860863 1_554
H1 Sr3 2.860863 1_555
H2 Ir0 1.677205 1_555
H2 Sr0 2.855817 1_554
H2 Sr0 2.855817 1_555
H2 Sr3 2.857801 1_655
H2 Sr3 2.857801 1_545
H3 Ir0 1.677205 1_555
H3 Sr1 2.855817 1_556
H3 Sr1 2.855817 1_555
H3 Sr2 2.857801 1_455
H3 Sr2 2.857801 1_565
H4 Sr1 2.450573 1_555
H4 Sr0 2.451648 1_454
H4 Sr3 2.463438 1_555
H4 Sr2 2.463505 1_455
H5 Sr0 2.450573 1_555
H5 Sr1 2.451648 1_656
H5 Sr2 2.463438 1_555
H5 Sr3 2.463505 1_655
H6 Sr1 2.450573 1_556
H6 Sr0 2.451648 1_565
H6 Sr3 2.463438 1_555
H6 Sr2 2.463504 1_565
H7 Sr0 2.450573 1_554
H7 Sr1 2.451648 1_545
H7 Sr2 2.463438 1_555
H7 Sr3 2.463504 1_545
H8 Ir0 1.684766 1_555
H8 Sr2 2.857411 1_455
H8 Sr3 2.857412 1_545
H8 Sr0 2.868610 1_554
H8 Sr1 2.868611 1_555
H9 Ir0 1.684766 1_555
H9 Sr3 2.857411 1_655
H9 Sr2 2.857412 1_565
H9 Sr1 2.868610 1_556
H9 Sr0 2.868611 1_555
H10 Ir0 1.684684 1_555
H10 Sr0 2.839046 1_555
H10 Sr1 2.839046 1_556
H10 Sr2 2.886696 1_455
H10 Sr3 2.886696 1_545
H11 Ir0 1.684684 1_555
H11 Sr1 2.839046 1_555
H11 Sr0 2.839046 1_554
H11 Sr3 2.886696 1_655
H11 Sr2 2.886696 1_565
Au0 H0 1.662088 1_454
Au0 H1 1.662088 1_545
Au0 H8 2.326699 1_555
Au0 H9 2.326699 1_444
Au0 H10 2.326960 1_554
Au0 H11 2.326960 1_445
