# generated using pymatgen
data_Sr2TaFeO6
_symmetry_space_group_name_H-M   'P 1'
_cell_length_a   5.66717500
_cell_length_b   9.81577371
_cell_length_c   9.81532669
_cell_angle_alpha   70.70136550
_cell_angle_beta   90.00000000
_cell_angle_gamma   90.00000000
_symmetry_Int_Tables_number   1
_chemical_formula_structural   Sr2TaFeO6
_chemical_formula_sum   'Sr8 Ta4 Fe4 O24'
_cell_volume   515.32350955
_cell_formula_units_Z   4
loop_
 _symmetry_equiv_pos_site_id
 _symmetry_equiv_pos_as_xyz
  1  'x, y, z'
loop_
 _atom_site_type_symbol
 _atom_site_label
 _atom_site_symmetry_multiplicity
 _atom_site_fract_x
 _atom_site_fract_y
 _atom_site_fract_z
 _atom_site_occupancy
  Sr  Sr0  1  0.48739800  0.12345700  0.62621200  1
  Sr  Sr1  1  0.48739800  0.62345700  0.12621200  1
  Sr  Sr2  1  0.98739800  0.87654300  0.87378800  1
  Sr  Sr3  1  0.98739800  0.37654300  0.37378800  1
  Sr  Sr4  1  0.01260200  0.12345700  0.12621200  1
  Sr  Sr5  1  0.01260200  0.62345700  0.62621200  1
  Sr  Sr6  1  0.51260200  0.87654300  0.37378800  1
  Sr  Sr7  1  0.51260200  0.37654300  0.87378800  1
  Ta  Ta0  1  0.00000000  0.75000000  0.25000000  1
  Ta  Ta1  1  0.00000000  0.25000000  0.75000000  1
  Ta  Ta2  1  0.50000000  0.25000000  0.25000000  1
  Ta  Ta3  1  0.50000000  0.75000000  0.75000000  1
  Fe  Fe0  1  0.00000000  0.50000000  0.00000000  1
  Fe  Fe1  1  0.50000000  0.50000000  0.50000000  1
  Fe  Fe2  1  0.00000000  0.00000000  0.50000000  1
  Fe  Fe3  1  0.50000000  0.00000000  0.00000000  1
  O  O0  1  0.49492600  0.65131100  0.60123900  1
  O  O1  1  0.49492600  0.15131100  0.10123900  1
  O  O2  1  0.99492600  0.84868900  0.39876100  1
  O  O3  1  0.99492600  0.34868900  0.89876100  1
  O  O4  1  0.50507400  0.34868900  0.39876100  1
  O  O5  1  0.50507400  0.84868900  0.89876100  1
  O  O6  1  0.00507400  0.15131100  0.60123900  1
  O  O7  1  0.00507400  0.65131100  0.10123900  1
  O  O8  1  0.23382700  0.87752900  0.64861300  1
  O  O9  1  0.23382700  0.37752900  0.14861300  1
  O  O10  1  0.73382700  0.12247100  0.85138700  1
  O  O11  1  0.73382700  0.62247100  0.35138700  1
  O  O12  1  0.76617300  0.12247100  0.35138700  1
  O  O13  1  0.76617300  0.62247100  0.85138700  1
  O  O14  1  0.26617300  0.87752900  0.14861300  1
  O  O15  1  0.26617300  0.37752900  0.64861300  1
  O  O16  1  0.77069600  0.89569100  0.13010500  1
  O  O17  1  0.77069600  0.39569100  0.63010500  1
  O  O18  1  0.27069600  0.10430900  0.36989500  1
  O  O19  1  0.27069600  0.60430900  0.86989500  1
  O  O20  1  0.22930400  0.10430900  0.86989500  1
  O  O21  1  0.22930400  0.60430900  0.36989500  1
  O  O22  1  0.72930400  0.89569100  0.63010500  1
  O  O23  1  0.72930400  0.39569100  0.13010500  1
loop_
_geom_bond_atom_site_label_1
_geom_bond_atom_site_label_2
_geom_bond_distance
_geom_bond_site_symmetry_2
Fe0 O19 2.041634 1_554
Fe0 O23 2.041634 1_455
Fe0 O7 2.041985 1_555
Fe0 O3 2.041985 1_454
Fe0 O9 2.042019 1_555
Fe0 O13 2.042019 1_454
Fe1 O17 2.041634 1_555
Fe1 O21 2.041634 1_555
Fe1 O0 2.041985 1_555
Fe1 O4 2.041985 1_555
Fe1 O11 2.042019 1_555
Fe1 O15 2.042019 1_555
Fe2 O22 2.041634 1_445
Fe2 O18 2.041634 1_555
Fe2 O6 2.041985 1_555
Fe2 O2 2.041985 1_445
Fe2 O8 2.042019 1_545
Fe2 O12 2.042019 1_455
Fe3 O16 2.041634 1_545
Fe3 O20 2.041634 1_554
Fe3 O1 2.041985 1_555
Fe3 O5 2.041985 1_544
Fe3 O14 2.042019 1_545
Fe3 O10 2.042019 1_554
O0 Ta3 2.001538 1_555
O0 Sr6 2.572832 1_555
O0 Sr5 2.749926 1_555
O0 Sr5 2.949150 1_655
O0 Sr7 3.109919 1_555
O1 Ta2 2.001538 1_555
O1 Sr7 2.572832 1_554
O1 Sr4 2.749926 1_555
O1 Sr4 2.949150 1_655
O1 Sr6 3.109919 1_545
O2 Ta0 2.001538 1_655
O2 Sr5 2.572832 1_655
O2 Sr6 2.749926 1_555
O2 Sr6 2.949150 1_655
O2 Sr4 3.109919 1_665
O3 Ta1 2.001538 1_655
O3 Sr4 2.572832 1_656
O3 Sr7 2.749926 1_555
O3 Sr7 2.949150 1_655
O3 Sr5 3.109919 1_655
O4 Ta2 2.001538 1_555
O4 Sr0 2.572832 1_555
O4 Sr3 2.749926 1_555
O4 Sr3 2.949150 1_455
O4 Sr1 3.109919 1_555
O5 Ta3 2.001538 1_555
O5 Sr1 2.572832 1_556
O5 Sr2 2.749926 1_555
O5 Sr2 2.949150 1_455
O5 Sr0 3.109919 1_565
O6 Ta1 2.001538 1_555
O6 Sr3 2.572832 1_455
O6 Sr0 2.749926 1_555
O6 Sr0 2.949150 1_455
O6 Sr2 3.109919 1_445
O7 Ta0 2.001538 1_555
O7 Sr2 2.572832 1_454
O7 Sr1 2.749926 1_555
O7 Sr1 2.949150 1_455
O7 Sr3 3.109919 1_455
O8 Ta3 2.002330 1_555
O8 Sr2 2.611735 1_455
O8 Sr0 2.754967 1_565
O8 Sr5 2.863950 1_555
O8 Sr6 3.128869 1_555
O9 Ta2 2.002330 1_555
O9 Sr3 2.611735 1_455
O9 Sr1 2.754967 1_555
O9 Sr4 2.863950 1_555
O9 Sr7 3.128869 1_554
O10 Ta1 2.002330 1_655
O10 Sr0 2.611735 1_555
O10 Sr2 2.754967 1_545
O10 Sr7 2.863950 1_555
O10 Sr4 3.128869 1_656
O11 Ta0 2.002330 1_655
O11 Sr1 2.611735 1_555
O11 Sr3 2.754967 1_555
O11 Sr6 2.863950 1_555
O11 Sr5 3.128869 1_655
O12 Ta2 2.002330 1_555
O12 Sr4 2.611735 1_655
O12 Sr6 2.754967 1_545
O12 Sr3 2.863950 1_555
O12 Sr0 3.128869 1_555
O13 Ta3 2.002330 1_555
O13 Sr5 2.611735 1_655
O13 Sr7 2.754967 1_555
O13 Sr2 2.863950 1_555
O13 Sr1 3.128869 1_556
O14 Ta0 2.002330 1_555
O14 Sr6 2.611735 1_555
O14 Sr4 2.754967 1_565
O14 Sr1 2.863950 1_555
O14 Sr2 3.128869 1_454
O15 Ta1 2.002330 1_555
O15 Sr7 2.611735 1_555
O15 Sr5 2.754967 1_555
O15 Sr0 2.863950 1_555
O15 Sr3 3.128869 1_455
O16 Ta0 2.001577 1_655
O16 Sr4 2.612045 1_665
O16 Sr6 2.756521 1_555
O16 Sr2 2.861032 1_554
O16 Sr1 3.128444 1_555
O17 Ta1 2.001577 1_655
O17 Sr5 2.612045 1_655
O17 Sr7 2.756521 1_555
O17 Sr3 2.861032 1_555
O17 Sr0 3.128444 1_555
O18 Ta2 2.001577 1_555
O18 Sr6 2.612045 1_545
O18 Sr4 2.756521 1_555
O18 Sr0 2.861032 1_555
O18 Sr3 3.128444 1_455
O19 Ta3 2.001577 1_555
O19 Sr7 2.612045 1_555
O19 Sr5 2.756521 1_555
O19 Sr1 2.861032 1_556
O19 Sr2 3.128444 1_455
O20 Ta1 2.001577 1_555
O20 Sr2 2.612045 1_445
O20 Sr0 2.756521 1_555
O20 Sr4 2.861032 1_556
O20 Sr7 3.128444 1_555
O21 Ta0 2.001577 1_555
O21 Sr3 2.612045 1_455
O21 Sr1 2.756521 1_555
O21 Sr5 2.861032 1_555
O21 Sr6 3.128444 1_555
O22 Ta3 2.001577 1_555
O22 Sr0 2.612045 1_565
O22 Sr2 2.756521 1_555
O22 Sr6 2.861032 1_555
O22 Sr5 3.128444 1_655
O23 Ta2 2.001577 1_555
O23 Sr1 2.612045 1_555
O23 Sr3 2.756521 1_555
O23 Sr7 2.861032 1_554
O23 Sr4 3.128444 1_655
