# generated using pymatgen
data_NaSr(Si2Pd3)2
_symmetry_space_group_name_H-M   'P 1'
_cell_length_a   6.73591183
_cell_length_b   6.73591063
_cell_length_c   6.73591178
_cell_angle_alpha   129.13968370
_cell_angle_beta   116.39960114
_cell_angle_gamma   85.65039118
_symmetry_Int_Tables_number   1
_chemical_formula_structural   NaSr(Si2Pd3)2
_chemical_formula_sum   'Na1 Sr1 Si4 Pd6'
_cell_volume   202.88862450
_cell_formula_units_Z   1
loop_
 _symmetry_equiv_pos_site_id
 _symmetry_equiv_pos_as_xyz
  1  'x, y, z'
loop_
 _atom_site_type_symbol
 _atom_site_label
 _atom_site_symmetry_multiplicity
 _atom_site_fract_x
 _atom_site_fract_y
 _atom_site_fract_z
 _atom_site_occupancy
  Na  Na0  1  0.50000000  0.04483750  0.54483750  1
  Sr  Sr0  1  1.00000000  0.97683802  0.97683802  1
  Si  Si0  1  0.34570861  0.40478542  0.05907681  1
  Si  Si1  1  0.80838499  0.23941860  0.43103361  1
  Si  Si2  1  0.65429139  0.71336720  0.05907681  1
  Si  Si3  1  0.19161501  0.62264862  0.43103361  1
  Pd  Pd0  1  0.94933195  0.49425330  0.95070777  1
  Pd  Pd1  1  0.54354454  0.49425330  0.54492136  1
  Pd  Pd2  1  0.05066805  0.00137482  0.54492136  1
  Pd  Pd3  1  0.77815582  0.49592470  0.27408052  1
  Pd  Pd4  1  0.22184418  0.49592470  0.71776788  1
  Pd  Pd5  1  0.45645546  0.00137482  0.95070777  1
loop_
_geom_bond_atom_site_label_1
_geom_bond_atom_site_label_2
_geom_bond_distance
_geom_bond_site_symmetry_2
Na0 Pd1 3.063087 1_555
Na0 Pd0 3.063088 1_555
Na0 Pd5 3.063089 1_555
Na0 Pd2 3.063089 1_555
Na0 Si3 3.117355 1_545
Na0 Si1 3.117356 1_555
Na0 Si0 3.196990 1_545
Na0 Si2 3.196991 1_545
Na0 Pd4 3.272433 1_555
Na0 Pd3 3.272434 1_556
Na0 Si2 3.342719 1_556
Na0 Si0 3.342724 1_556
Si0 Si3 2.635938 1_555
Si0 Sr0 3.448798 1_444
Si1 Si2 2.635943 1_545
Si1 Sr0 3.238557 1_544
Si2 Sr0 3.448802 1_554
Si3 Sr0 3.238556 1_444
Pd0 Si1 2.409883 1_555
Pd0 Si3 2.421885 1_656
Pd0 Si2 2.479087 1_556
Pd0 Si0 2.569603 1_656
Pd0 Sr0 3.179110 1_555
Pd1 Si1 2.409888 1_555
Pd1 Si3 2.421879 1_555
Pd1 Si2 2.479089 1_556
Pd1 Si0 2.569603 1_555
Pd1 Sr0 3.179114 1_555
Pd2 Si3 2.409877 1_545
Pd2 Si1 2.421890 1_455
Pd2 Si0 2.479091 1_556
Pd2 Si2 2.569603 1_445
Pd2 Sr0 3.179106 1_445
Pd3 Si1 2.491128 1_555
Pd3 Si3 2.491129 1_655
Pd3 Si2 2.521269 1_555
Pd3 Si0 2.521275 1_555
Pd3 Sr0 3.196893 1_555
Pd3 Sr0 3.390813 1_544
Pd4 Si3 2.491122 1_555
Pd4 Si1 2.491130 1_455
Pd4 Si2 2.521275 1_556
Pd4 Si0 2.521281 1_556
Pd4 Sr0 3.196893 1_455
Pd4 Sr0 3.390809 1_444
Pd5 Si3 2.409883 1_545
Pd5 Si1 2.421881 1_556
Pd5 Si0 2.479097 1_556
Pd5 Si2 2.569600 1_546
Pd5 Sr0 3.179116 1_445
