# generated using pymatgen
data_K2Rb4(MoH9)3
_symmetry_space_group_name_H-M   'P 1'
_cell_length_a   9.33274360
_cell_length_b   10.28528813
_cell_length_c   6.14000545
_cell_angle_alpha   90.00000000
_cell_angle_beta   90.00000000
_cell_angle_gamma   123.43787264
_symmetry_Int_Tables_number   1
_chemical_formula_structural   K2Rb4(MoH9)3
_chemical_formula_sum   'K2 Rb4 Mo3 H27'
_cell_volume   491.82711702
_cell_formula_units_Z   1
loop_
 _symmetry_equiv_pos_site_id
 _symmetry_equiv_pos_as_xyz
  1  'x, y, z'
loop_
 _atom_site_type_symbol
 _atom_site_label
 _atom_site_symmetry_multiplicity
 _atom_site_fract_x
 _atom_site_fract_y
 _atom_site_fract_z
 _atom_site_occupancy
  K  K0  1  0.73671564  0.75685898  0.50000000  1
  K  K1  1  0.26328436  0.02014134  0.50000000  1
  Rb  Rb0  1  0.00000000  0.20475762  0.50000000  1
  Rb  Rb1  1  1.00000000  0.61196338  0.00000000  1
  Rb  Rb2  1  0.38968602  0.40681155  0.00000000  1
  Rb  Rb3  1  0.61031398  0.01712552  0.00000000  1
  Mo  Mo0  1  0.72392193  0.35348310  0.50000000  1
  Mo  Mo1  1  0.27607807  0.62956117  0.50000000  1
  Mo  Mo2  1  0.00000000  0.97468645  0.00000000  1
  H  H0  1  0.78307182  0.32240320  0.75143056  1
  H  H1  1  0.78813436  0.52256764  0.66319992  1
  H  H2  1  0.55169767  0.23771240  0.66223697  1
  H  H3  1  0.21692818  0.53933238  0.24856944  1
  H  H4  1  0.55169767  0.23771240  0.33776303  1
  H  H5  1  0.78307182  0.32240320  0.24856944  1
  H  H6  1  0.78813436  0.52256764  0.33680008  1
  H  H7  1  0.21186564  0.73443429  0.66319992  1
  H  H8  1  0.44830233  0.68601573  0.66223697  1
  H  H9  1  0.19061860  0.97861972  0.00000000  1
  H  H10  1  0.80938140  0.78800212  0.00000000  1
  H  H11  1  0.00000000  0.14245697  0.00000000  1
  H  H12  1  0.85636379  0.96626423  0.19574485  1
  H  H13  1  0.14363621  0.10990144  0.80425515  1
  H  H14  1  0.00000000  0.86007135  0.78407006  1
  H  H15  1  0.00000000  0.86007135  0.21592994  1
  H  H16  1  0.14363621  0.10990144  0.19574485  1
  H  H17  1  0.85636379  0.96626423  0.80425515  1
  H  H18  1  0.17237299  0.73308988  0.50000000  1
  H  H19  1  0.43099465  0.82289258  0.50000000  1
  H  H20  1  0.31397889  0.48175420  0.50000000  1
  H  H21  1  0.56900535  0.39189693  0.50000000  1
  H  H22  1  0.82762701  0.56071689  0.50000000  1
  H  H23  1  0.68602111  0.16777631  0.50000000  1
  H  H24  1  0.21692818  0.53933238  0.75143056  1
  H  H25  1  0.21186564  0.73443429  0.33680008  1
  H  H26  1  0.44830233  0.68601573  0.33776303  1
loop_
_geom_bond_atom_site_label_1
_geom_bond_atom_site_label_2
_geom_bond_distance
_geom_bond_site_symmetry_2
H0 Mo0 1.727620 1_555
H0 Rb1 2.941586 1_556
H0 Rb3 3.034555 1_556
H1 H22 1.065142 1_555
H1 Mo0 1.799744 1_555
H1 Rb1 2.651021 1_556
H2 Mo0 1.698349 1_555
H2 K1 2.570398 1_555
H3 Mo1 1.727617 1_555
H3 Rb1 2.941579 1_455
H3 Rb2 3.034562 1_555
H4 Mo0 1.698349 1_555
H4 K1 2.570398 1_555
H5 Mo0 1.727620 1_555
H5 Rb1 2.941586 1_555
H5 Rb3 3.034555 1_555
H6 Mo0 1.799744 1_555
H6 Rb1 2.651021 1_555
H7 Mo1 1.799752 1_555
H7 Rb1 2.651022 1_456
H8 Mo1 1.698347 1_555
H8 K0 2.570395 1_555
H9 Mo2 1.757027 1_555
H10 Mo2 1.757021 1_655
H11 Mo2 1.725568 1_545
H11 Rb2 3.117959 1_555
H11 Rb3 3.117959 1_455
H12 Mo2 1.766642 1_655
H12 K0 2.593286 1_555
H12 Rb0 2.771299 1_665
H12 Rb3 2.883593 1_565
H13 Mo2 1.766646 1_546
H13 K1 2.593305 1_555
H13 Rb0 2.771293 1_555
H13 Rb2 2.883586 1_556
H14 Mo2 1.774108 1_556
H14 K1 2.707785 1_565
H14 K0 2.707788 1_455
H14 Rb1 2.875722 1_456
H15 Mo2 1.774108 1_555
H15 K1 2.707785 1_565
H15 K0 2.707788 1_455
H15 Rb1 2.875722 1_455
H16 Mo2 1.766646 1_545
H16 K1 2.593305 1_555
H16 Rb0 2.771293 1_555
H16 Rb2 2.883586 1_555
H17 Mo2 1.766642 1_656
H17 K0 2.593286 1_555
H17 Rb0 2.771299 1_665
H17 Rb3 2.883593 1_566
H18 H7 1.065140 1_555
H18 H25 1.065140 1_555
H18 Mo1 1.790633 1_555
H18 K1 2.583782 1_565
H19 Mo1 1.695874 1_555
H20 Mo1 1.740362 1_555
H20 Rb0 2.739139 1_555
H21 Mo0 1.695866 1_555
H22 H6 1.065142 1_555
H22 Mo0 1.790633 1_555
H22 K0 2.583802 1_555
H23 Mo0 1.740351 1_555
H23 Rb0 2.739144 1_655
H24 Mo1 1.727617 1_555
H24 Rb1 2.941579 1_456
H24 Rb2 3.034562 1_556
H25 Mo1 1.799752 1_555
H25 Rb1 2.651022 1_455
H26 Mo1 1.698347 1_555
H26 K0 2.570395 1_555
