# generated using pymatgen
data_Lu3Ag(Pt2O7)2
_symmetry_space_group_name_H-M   'P 1'
_cell_length_a   7.17156108
_cell_length_b   7.04489751
_cell_length_c   7.17156579
_cell_angle_alpha   59.40509009
_cell_angle_beta   59.99702939
_cell_angle_gamma   59.40502922
_symmetry_Int_Tables_number   1
_chemical_formula_structural   Lu3Ag(Pt2O7)2
_chemical_formula_sum   'Lu3 Ag1 Pt4 O14'
_cell_volume   253.87111748
_cell_formula_units_Z   1
loop_
 _symmetry_equiv_pos_site_id
 _symmetry_equiv_pos_as_xyz
  1  'x, y, z'
loop_
 _atom_site_type_symbol
 _atom_site_label
 _atom_site_symmetry_multiplicity
 _atom_site_fract_x
 _atom_site_fract_y
 _atom_site_fract_z
 _atom_site_occupancy
  Lu  Lu0  1  0.62500000  0.62500000  0.12500000  1
  Lu  Lu1  1  0.62500000  0.62500000  0.62500000  1
  Lu  Lu2  1  0.12500000  0.62500000  0.62500000  1
  Ag  Ag0  1  0.62500000  0.12500000  0.62500000  1
  Pt  Pt0  1  0.12500000  0.12500000  0.12500000  1
  Pt  Pt1  1  0.62500000  0.12500000  0.12500000  1
  Pt  Pt2  1  0.12500000  0.12500000  0.62500000  1
  Pt  Pt3  1  0.12500000  0.62500000  0.12500000  1
  O  O0  1  0.02909776  0.47367069  0.46808106  1
  O  O1  1  0.78191842  0.77632880  0.22090262  1
  O  O2  1  0.78977765  0.22387293  0.19657390  1
  O  O3  1  0.46023481  0.02611275  0.46023476  1
  O  O4  1  0.74622164  0.76130422  0.74622306  1
  O  O5  1  0.02910516  0.47367514  0.02910471  1
  O  O6  1  0.05342511  0.02613035  0.46022134  1
  O  O7  1  0.22089484  0.77632486  0.22089529  1
  O  O8  1  0.19657489  0.22386965  0.78977866  1
  O  O9  1  0.78976519  0.22388725  0.78976524  1
  O  O10  1  0.50377836  0.48869578  0.50377694  1
  O  O11  1  0.46022235  0.02612707  0.05342610  1
  O  O12  1  0.46808158  0.47367120  0.02909738  1
  O  O13  1  0.22090224  0.77632931  0.78191894  1
loop_
_geom_bond_atom_site_label_1
_geom_bond_atom_site_label_2
_geom_bond_distance
_geom_bond_site_symmetry_2
Lu0 O10 2.211248 1_555
Lu0 O4 2.211248 1_554
Lu0 O11 2.318714 1_565
Lu0 O2 2.318714 1_555
Lu0 O5 2.369888 1_655
Lu0 O7 2.369888 1_555
Lu0 O1 2.370164 1_555
Lu0 O12 2.370164 1_555
Lu1 O4 2.211109 1_555
Lu1 O10 2.211109 1_555
Lu1 O3 2.318655 1_565
Lu1 O9 2.318655 1_555
Lu1 O0 2.369844 1_655
Lu1 O13 2.369844 1_555
Lu1 O12 2.369844 1_556
Lu1 O1 2.369844 1_555
Lu2 O10 2.211254 1_555
Lu2 O4 2.211254 1_455
Lu2 O6 2.318733 1_565
Lu2 O8 2.318733 1_555
Lu2 O5 2.369889 1_556
Lu2 O7 2.369889 1_555
Lu2 O13 2.370169 1_555
Lu2 O0 2.370169 1_555
Ag0 O10 2.073033 1_555
Ag0 O4 2.073033 1_545
Ag0 O6 2.519923 1_655
Ag0 O8 2.519923 1_555
Ag0 O9 2.519927 1_555
Ag0 O3 2.519927 1_555
Ag0 O11 2.519929 1_556
Ag0 O2 2.519929 1_555
O0 Pt2 2.003405 1_555
O0 Pt3 2.011773 1_555
O1 Pt1 2.003407 1_565
O1 Pt3 2.011773 1_655
O2 Pt0 1.988329 1_655
O2 Pt1 1.988355 1_555
O3 Pt2 1.988344 1_555
O3 Pt1 1.988346 1_555
O5 Pt0 2.003383 1_555
O5 Pt3 2.011967 1_555
O6 Pt0 1.988327 1_555
O6 Pt2 1.988348 1_555
O7 Pt0 2.003383 1_565
O7 Pt3 2.011967 1_555
O8 Pt0 1.988327 1_556
O8 Pt2 1.988348 1_555
O9 Pt2 1.988344 1_655
O9 Pt1 1.988346 1_556
O11 Pt0 1.988329 1_555
O11 Pt1 1.988355 1_555
O12 Pt1 2.003407 1_555
O12 Pt3 2.011773 1_555
O13 Pt2 2.003405 1_565
O13 Pt3 2.011773 1_556
