# generated using pymatgen
data_Sm5AgS8
_symmetry_space_group_name_H-M   'P 1'
_cell_length_a   7.35542128
_cell_length_b   7.35542128
_cell_length_c   7.35542128
_cell_angle_alpha   109.68137985
_cell_angle_beta   109.68137985
_cell_angle_gamma   109.05171490
_symmetry_Int_Tables_number   1
_chemical_formula_structural   Sm5AgS8
_chemical_formula_sum   'Sm5 Ag1 S8'
_cell_volume   306.32561830
_cell_formula_units_Z   1
loop_
 _symmetry_equiv_pos_site_id
 _symmetry_equiv_pos_as_xyz
  1  'x, y, z'
loop_
 _atom_site_type_symbol
 _atom_site_label
 _atom_site_symmetry_multiplicity
 _atom_site_fract_x
 _atom_site_fract_y
 _atom_site_fract_z
 _atom_site_occupancy
  Sm  Sm0  1  0.63295700  0.74706100  0.61801900  1
  Sm  Sm1  1  0.98506200  0.36704300  0.11410400  1
  Sm  Sm2  1  0.12904300  0.01493800  0.38198100  1
  Sm  Sm3  1  0.50000000  0.50000000  0.00000000  1
  Sm  Sm4  1  0.25293900  0.87095700  0.88589600  1
  Ag  Ag0  1  0.75000000  0.25000000  0.50000000  1
  S  S0  1  0.38011600  0.27096700  0.24875800  1
  S  S1  1  0.35845900  0.74949100  0.24041100  1
  S  S2  1  0.86864200  0.61988400  0.89085000  1
  S  S3  1  0.50908000  0.11804800  0.75958900  1
  S  S4  1  0.25050900  0.49092000  0.60896800  1
  S  S5  1  0.88195200  0.64154100  0.39103200  1
  S  S6  1  0.72903300  0.97779100  0.10915000  1
  S  S7  1  0.02220900  0.13135800  0.75124200  1
loop_
_geom_bond_atom_site_label_1
_geom_bond_atom_site_label_2
_geom_bond_distance
_geom_bond_site_symmetry_2
Ag0 S6 2.814265 1_545
Ag0 S2 2.814266 1_555
Ag0 S7 2.814270 1_655
Ag0 S0 2.814270 1_555
Ag0 S1 3.183159 1_545
Ag0 S3 3.183159 1_555
Ag0 S5 3.183159 1_555
Ag0 S4 3.183159 1_655
S0 Sm4 2.808446 1_544
S0 Sm2 2.847567 1_555
S0 Sm0 3.006342 1_555
S0 Sm3 3.025997 1_555
S0 Sm1 3.130088 1_455
S1 Sm1 2.792257 1_455
S1 Sm3 2.807133 1_555
S1 Sm0 2.840928 1_555
S1 Sm4 2.976399 1_554
S1 Sm2 3.115928 1_565
S2 Sm0 2.808437 1_555
S2 Sm4 2.847564 1_655
S2 Sm1 3.006346 1_556
S2 Sm3 3.026002 1_556
S2 Sm2 3.130092 1_666
S3 Sm4 2.792261 1_545
S3 Sm3 2.807133 1_556
S3 Sm2 2.840924 1_555
S3 Sm1 2.976404 1_556
S3 Sm0 3.115934 1_545
S4 Sm0 2.792257 1_555
S4 Sm3 2.807133 1_556
S4 Sm4 2.840923 1_555
S4 Sm2 2.976406 1_555
S4 Sm1 3.115934 1_455
S5 Sm2 2.792260 1_665
S5 Sm3 2.807133 1_555
S5 Sm1 2.840928 1_555
S5 Sm0 2.976404 1_555
S5 Sm4 3.115935 1_655
S6 Sm2 2.808444 1_665
S6 Sm1 2.847575 1_565
S6 Sm4 3.006340 1_554
S6 Sm3 3.025994 1_555
S6 Sm0 3.130094 1_554
S7 Sm1 2.808441 1_456
S7 Sm0 2.847571 1_445
S7 Sm2 3.006346 1_555
S7 Sm3 3.025997 1_556
S7 Sm4 3.130094 1_545
