# generated using pymatgen
data_Cs2Ti11VO24
_symmetry_space_group_name_H-M   'P 1'
_cell_length_a   7.42732250
_cell_length_b   7.45104468
_cell_length_c   8.88874470
_cell_angle_alpha   101.48723127
_cell_angle_beta   101.56420362
_cell_angle_gamma   87.79204450
_symmetry_Int_Tables_number   1
_chemical_formula_structural   Cs2Ti11VO24
_chemical_formula_sum   'Cs2 Ti11 V1 O24'
_cell_volume   472.27528729
_cell_formula_units_Z   1
loop_
 _symmetry_equiv_pos_site_id
 _symmetry_equiv_pos_as_xyz
  1  'x, y, z'
loop_
 _atom_site_type_symbol
 _atom_site_label
 _atom_site_symmetry_multiplicity
 _atom_site_fract_x
 _atom_site_fract_y
 _atom_site_fract_z
 _atom_site_occupancy
  Cs  Cs0  1  0.99998545  0.99965031  0.21041006  1
  Cs  Cs1  1  0.00344390  0.00309796  0.79654726  1
  Ti  Ti0  1  0.47394903  0.18440167  0.61420601  1
  Ti  Ti1  1  0.47972168  0.18630754  0.27315140  1
  Ti  Ti2  1  0.18736152  0.51240259  0.11339880  1
  Ti  Ti3  1  0.18143648  0.52852112  0.45303265  1
  Ti  Ti4  1  0.18310053  0.51385440  0.78623130  1
  Ti  Ti5  1  0.81416768  0.48282320  0.21479882  1
  Ti  Ti6  1  0.81296484  0.47464835  0.54681178  1
  Ti  Ti7  1  0.80770658  0.48697787  0.88278879  1
  Ti  Ti8  1  0.51755996  0.82036719  0.72406342  1
  Ti  Ti9  1  0.50622226  0.82283222  0.05345346  1
  Ti  Ti10  1  0.52515941  0.81947693  0.39101724  1
  V  V0  1  0.49193690  0.18246282  0.94675735  1
  O  O0  1  0.35966600  0.04333158  0.07239918  1
  O  O1  1  0.37118882  0.05174035  0.40455678  1
  O  O2  1  0.36684440  0.04444419  0.72935455  1
  O  O3  1  0.29248946  0.37069781  0.27671654  1
  O  O4  1  0.29376819  0.37632985  0.94386258  1
  O  O5  1  0.29449974  0.37534871  0.61162130  1
  O  O6  1  0.05339713  0.63111497  0.28123661  1
  O  O7  1  0.05450392  0.63429820  0.61305065  1
  O  O8  1  0.05214093  0.63509402  0.94857743  1
  O  O9  1  0.62566543  0.29650547  0.48629283  1
  O  O10  1  0.63179079  0.29764518  0.81340095  1
  O  O11  1  0.63440132  0.29448711  0.16331139  1
  O  O12  1  0.37308262  0.70282803  0.18159084  1
  O  O13  1  0.37748682  0.70257749  0.51142514  1
  O  O14  1  0.37002966  0.70699188  0.84434941  1
  O  O15  1  0.94640570  0.36739212  0.05100542  1
  O  O16  1  0.94786140  0.36933282  0.38759846  1
  O  O17  1  0.94840399  0.37119873  0.71892483  1
  O  O18  1  0.70636136  0.62786035  0.71998993  1
  O  O19  1  0.70163777  0.62425502  0.05555454  1
  O  O20  1  0.70695527  0.62740106  0.38923984  1
  O  O21  1  0.63881306  0.93957538  0.93088898  1
  O  O22  1  0.63220363  0.94574154  0.26202825  1
  O  O23  1  0.63568438  0.94598296  0.59635824  1
loop_
_geom_bond_atom_site_label_1
_geom_bond_atom_site_label_2
_geom_bond_distance
_geom_bond_site_symmetry_2
Cs0 O22 2.914470 1_555
Cs0 O6 2.932334 1_655
Cs0 O1 2.939072 1_665
Cs0 O16 2.941459 1_565
Cs0 O0 3.207414 1_665
Cs0 O21 3.247604 1_554
Cs0 O8 3.272231 1_654
Cs0 O15 3.303059 1_565
Cs1 O2 2.918974 1_555
Cs1 O23 2.940686 1_445
Cs1 O17 2.952969 1_455
Cs1 O7 2.955987 1_545
Cs1 O0 3.204612 1_556
Cs1 O15 3.242427 1_456
Cs1 O21 3.256527 1_445
Cs1 O8 3.267892 1_545
O0 Ti9 1.933395 1_545
O0 Ti1 1.947386 1_555
O0 V0 2.065568 1_554
O1 Ti0 1.945893 1_555
O1 Ti1 1.981334 1_555
O1 Ti10 2.033962 1_545
O2 Ti0 1.892991 1_555
O2 Ti8 1.971981 1_545
O2 V0 2.053621 1_555
O3 Ti1 1.917180 1_555
O3 Ti2 1.981013 1_555
O3 Ti3 2.056425 1_555
O4 Ti2 1.931504 1_556
O4 Ti4 1.932370 1_555
O4 V0 2.022240 1_555
O5 Ti0 1.912019 1_555
O5 Ti4 1.992394 1_555
O5 Ti3 2.021684 1_555
O6 Ti3 1.909794 1_555
O6 Ti2 1.999954 1_555
O6 Ti5 2.048764 1_455
O7 Ti3 1.888643 1_555
O7 Ti4 1.995492 1_555
O7 Ti6 2.107626 1_455
O8 Ti4 1.954585 1_555
O8 Ti2 1.965594 1_556
O8 Ti7 2.080297 1_455
O9 Ti6 1.882640 1_555
O9 Ti1 2.015974 1_555
O9 Ti0 2.055410 1_555
O10 Ti7 1.884168 1_555
O10 Ti0 1.967305 1_555
O10 V0 2.046508 1_555
O11 Ti5 1.898682 1_555
O11 Ti1 1.938388 1_555
O11 V0 2.032995 1_554
O12 Ti2 1.938143 1_555
O12 Ti9 2.000000 1_555
O12 Ti10 2.021081 1_555
O13 Ti3 1.909463 1_555
O13 Ti10 2.005676 1_555
O13 Ti8 2.011549 1_555
O14 Ti4 1.958495 1_555
O14 Ti9 1.974176 1_556
O14 Ti8 1.989541 1_555
O15 Ti5 1.957953 1_555
O15 Ti7 1.983248 1_554
O15 Ti2 2.047014 1_655
O16 Ti6 1.920420 1_555
O16 Ti5 1.975206 1_555
O16 Ti3 2.057682 1_655
O17 Ti6 1.933778 1_555
O17 Ti4 1.999436 1_655
O17 Ti7 1.999522 1_555
O18 Ti8 1.967193 1_555
O18 Ti7 1.967224 1_555
O18 Ti6 2.004690 1_555
O19 Ti7 1.955118 1_554
O19 Ti5 1.965860 1_555
O19 Ti9 2.032451 1_555
O20 Ti10 1.929333 1_555
O20 Ti5 1.990592 1_555
O20 Ti6 2.000211 1_555
O21 Ti8 1.930602 1_555
O21 Ti9 1.946015 1_556
O21 V0 2.071979 1_565
O22 Ti10 1.919516 1_555
O22 Ti9 1.961041 1_555
O22 Ti1 2.079239 1_565
O23 Ti10 1.915061 1_555
O23 Ti8 1.954497 1_555
O23 Ti0 2.103274 1_565
