# generated using pymatgen
data_Ba3Sr3(ScAs3)2
_symmetry_space_group_name_H-M   'P 1'
_cell_length_a   4.61480027
_cell_length_b   13.22182373
_cell_length_c   14.77986109
_cell_angle_alpha   90.49628220
_cell_angle_beta   90.00000000
_cell_angle_gamma   90.00000000
_symmetry_Int_Tables_number   1
_chemical_formula_structural   Ba3Sr3(ScAs3)2
_chemical_formula_sum   'Ba6 Sr6 Sc4 As12'
_cell_volume   901.77529349
_cell_formula_units_Z   2
loop_
 _symmetry_equiv_pos_site_id
 _symmetry_equiv_pos_as_xyz
  1  'x, y, z'
loop_
 _atom_site_type_symbol
 _atom_site_label
 _atom_site_symmetry_multiplicity
 _atom_site_fract_x
 _atom_site_fract_y
 _atom_site_fract_z
 _atom_site_occupancy
  Ba  Ba0  1  0.25000000  0.84801310  0.49807021  1
  Ba  Ba1  1  0.25000000  0.35285984  0.00297386  1
  Ba  Ba2  1  0.75000000  0.14770197  0.50440547  1
  Ba  Ba3  1  0.75000000  0.23017931  0.20178168  1
  Ba  Ba4  1  0.75000000  0.42782343  0.39654809  1
  Ba  Ba5  1  0.25000000  0.57405018  0.60392640  1
  Sr  Sr0  1  0.75000000  0.92494497  0.09665420  1
  Sr  Sr1  1  0.25000000  0.06902471  0.90089816  1
  Sr  Sr2  1  0.25000000  0.26771694  0.71516114  1
  Sr  Sr3  1  0.75000000  0.73239789  0.28169355  1
  Sr  Sr4  1  0.25000000  0.77277063  0.79635745  1
  Sr  Sr5  1  0.75000000  0.65038191  0.99929112  1
  Sc  Sc0  1  0.75000000  0.94952271  0.71157888  1
  Sc  Sc1  1  0.25000000  0.04511070  0.28953314  1
  Sc  Sc2  1  0.25000000  0.56025650  0.20069119  1
  Sc  Sc3  1  0.75000000  0.44756700  0.79842161  1
  As  As0  1  0.75000000  0.47359841  0.14925731  1
  As  As1  1  0.25000000  0.53999645  0.85155864  1
  As  As2  1  0.75000000  0.95921368  0.34358410  1
  As  As3  1  0.25000000  0.03746110  0.65964600  1
  As  As4  1  0.75000000  0.39547747  0.62417553  1
  As  As5  1  0.25000000  0.60752929  0.37598203  1
  As  As6  1  0.75000000  0.90140149  0.88526407  1
  As  As7  1  0.25000000  0.08734970  0.11386850  1
  As  As8  1  0.75000000  0.26168207  0.86880413  1
  As  As9  1  0.25000000  0.74059050  0.12467102  1
  As  As10  1  0.75000000  0.76568425  0.64011622  1
  As  As11  1  0.25000000  0.22969380  0.36508629  1
loop_
_geom_bond_atom_site_label_1
_geom_bond_atom_site_label_2
_geom_bond_distance
_geom_bond_site_symmetry_2
As0 Sc2 2.683225 1_555
As0 Sc2 2.683225 1_655
As0 Sr5 3.235115 1_554
As0 Ba3 3.317275 1_555
As0 Ba1 3.533724 1_655
As0 Ba1 3.533724 1_555
As0 Ba4 3.709863 1_555
As1 Sc3 2.723555 1_455
As1 Sc3 2.723555 1_555
As1 Sr4 3.190826 1_555
As1 Ba1 3.350552 1_556
As1 Sr5 3.488057 1_555
As1 Sr5 3.488057 1_455
As1 Ba5 3.691430 1_555
As2 Sc1 2.695895 1_565
As2 Sc1 2.695895 1_665
As2 Sr3 3.127735 1_555
As2 Ba2 3.428990 1_565
As2 Ba0 3.571742 1_655
As2 Ba0 3.571742 1_555
As2 Sr0 3.673711 1_555
As3 Sc0 2.698257 1_445
As3 Sc0 2.698257 1_545
As3 Sr2 3.146163 1_555
As3 Ba0 3.445796 1_545
As3 Ba2 3.573655 1_455
As3 Ba2 3.573655 1_555
As3 Sr1 3.586420 1_555
As4 Sc3 2.660065 1_555
As4 Sr2 3.166275 1_555
As4 Sr2 3.166275 1_655
As4 Ba5 3.316699 1_555
As4 Ba5 3.316699 1_655
As4 Ba4 3.395049 1_555
As4 Ba2 3.710196 1_555
As5 Sc2 2.659836 1_555
As5 Sr3 3.167296 1_455
As5 Sr3 3.167296 1_555
As5 Ba4 3.327847 1_455
As5 Ba4 3.327847 1_555
As5 Ba5 3.401741 1_555
As5 Ba0 3.642349 1_555
As6 Sc0 2.650060 1_555
As6 Sr0 3.137102 1_556
As6 Sr4 3.147149 1_655
As6 Sr4 3.147149 1_555
As6 Sr1 3.206327 1_565
As6 Sr1 3.206327 1_665
As6 Sr5 3.735303 1_555
As7 Sc1 2.660410 1_555
As7 Sr1 3.154890 1_554
As7 Sr0 3.160728 1_445
As7 Sr0 3.160728 1_545
As7 Ba3 3.245951 1_555
As7 Ba3 3.245951 1_455
As7 Ba1 3.887136 1_555
As8 Sc3 2.677101 1_555
As8 Sr2 3.238863 1_555
As8 Sr2 3.238863 1_655
As8 Ba1 3.266241 1_656
As8 Ba1 3.266241 1_556
As8 Sr1 3.472560 1_555
As8 Sr1 3.472560 1_655
As9 Sc2 2.644600 1_555
As9 Sr5 3.184708 1_554
As9 Sr5 3.184708 1_454
As9 Sr3 3.275082 1_555
As9 Sr3 3.275082 1_455
As9 Sr0 3.384444 1_555
As9 Sr0 3.384444 1_455
As10 Sc0 2.641838 1_555
As10 Sr4 3.265217 1_655
As10 Sr4 3.265217 1_555
As10 Ba0 3.310010 1_655
As10 Ba0 3.310010 1_555
As10 Ba5 3.465056 1_655
As10 Ba5 3.465056 1_555
As11 Sc1 2.675050 1_555
As11 Ba2 3.282981 1_455
As11 Ba2 3.282981 1_555
As11 Ba3 3.339156 1_555
As11 Ba3 3.339156 1_455
As11 Ba4 3.518765 1_555
As11 Ba4 3.518765 1_455
