# generated using pymatgen
data_ZnGaRhO4
_symmetry_space_group_name_H-M   'P 1'
_cell_length_a   5.96554139
_cell_length_b   5.91506473
_cell_length_c   5.96554100
_cell_angle_alpha   60.27950958
_cell_angle_beta   60.57525080
_cell_angle_gamma   60.27950812
_symmetry_Int_Tables_number   1
_chemical_formula_structural   ZnGaRhO4
_chemical_formula_sum   'Zn2 Ga2 Rh2 O8'
_cell_volume   150.11865506
_cell_formula_units_Z   2
loop_
 _symmetry_equiv_pos_site_id
 _symmetry_equiv_pos_as_xyz
  1  'x, y, z'
loop_
 _atom_site_type_symbol
 _atom_site_label
 _atom_site_symmetry_multiplicity
 _atom_site_fract_x
 _atom_site_fract_y
 _atom_site_fract_z
 _atom_site_occupancy
  Zn  Zn0  1  0.50373814  0.49626186  0.50373814  1
  Zn  Zn1  1  0.74626186  0.75373814  0.74626186  1
  Ga  Ga0  1  0.12500000  0.12500000  0.12500000  1
  Ga  Ga1  1  0.12500000  0.62500000  0.12500000  1
  Rh  Rh0  1  0.62500000  0.12500000  0.12500000  1
  Rh  Rh1  1  0.12500000  0.12500000  0.62500000  1
  O  O0  1  0.35969191  0.37319250  0.35969191  1
  O  O1  1  0.34214853  0.88200078  0.89385092  1
  O  O2  1  0.89385092  0.88200078  0.34214853  1
  O  O3  1  0.89030809  0.34257632  0.89030809  1
  O  O4  1  0.35614908  0.36799922  0.90785147  1
  O  O5  1  0.35969191  0.90742368  0.35969191  1
  O  O6  1  0.89030809  0.87680750  0.89030809  1
  O  O7  1  0.90785147  0.36799922  0.35614908  1
loop_
_geom_bond_atom_site_label_1
_geom_bond_atom_site_label_2
_geom_bond_distance
_geom_bond_site_symmetry_2
Ga0 O5 1.982285 1_545
Ga0 O3 1.982285 1_454
Ga0 O7 2.002356 1_455
Ga0 O1 2.002356 1_544
Ga0 O4 2.002356 1_554
Ga0 O2 2.002356 1_445
Ga1 O0 1.982285 1_555
Ga1 O6 1.982285 1_454
Ga1 O2 2.002361 1_455
Ga1 O4 2.002361 1_554
Ga1 O1 2.002361 1_554
Ga1 O7 2.002361 1_455
O0 Zn0 1.993194 1_555
O0 Rh0 2.043838 1_555
O0 Rh1 2.043838 1_555
O1 Zn1 1.981365 1_555
O1 Rh1 2.055671 1_565
O2 Zn1 1.981365 1_555
O2 Rh0 2.055671 1_565
O3 Zn1 1.993195 1_555
O3 Rh1 2.043838 1_655
O3 Rh0 2.043838 1_556
O4 Zn0 1.981365 1_555
O4 Rh0 2.055671 1_556
O5 Zn0 1.993195 1_555
O5 Rh1 2.043838 1_565
O5 Rh0 2.043838 1_565
O6 Zn1 1.993194 1_555
O6 Rh0 2.043838 1_566
O6 Rh1 2.043838 1_665
O7 Zn0 1.981365 1_555
O7 Rh1 2.055671 1_655
