# generated using pymatgen
data_Zr6Zn16AsPd7
_symmetry_space_group_name_H-M   'P 1'
_cell_length_a   8.74519587
_cell_length_b   8.74519530
_cell_length_c   8.74519469
_cell_angle_alpha   60.00000231
_cell_angle_beta   60.00000446
_cell_angle_gamma   60.00000082
_symmetry_Int_Tables_number   1
_chemical_formula_structural   Zr6Zn16AsPd7
_chemical_formula_sum   'Zr6 Zn16 As1 Pd7'
_cell_volume   472.92640539
_cell_formula_units_Z   1
loop_
 _symmetry_equiv_pos_site_id
 _symmetry_equiv_pos_as_xyz
  1  'x, y, z'
loop_
 _atom_site_type_symbol
 _atom_site_label
 _atom_site_symmetry_multiplicity
 _atom_site_fract_x
 _atom_site_fract_y
 _atom_site_fract_z
 _atom_site_occupancy
  Zr  Zr0  1  0.71529304  0.28470696  0.28470696  1
  Zr  Zr1  1  0.28470696  0.71529304  0.71529304  1
  Zr  Zr2  1  0.28470696  0.71529304  0.28470696  1
  Zr  Zr3  1  0.71529304  0.28470696  0.71529304  1
  Zr  Zr4  1  0.28470696  0.28470696  0.71529304  1
  Zr  Zr5  1  0.71529304  0.71529304  0.28470696  1
  Zn  Zn0  1  0.12248700  0.12248700  0.12248700  1
  Zn  Zn1  1  0.87751300  0.87751300  0.87751300  1
  Zn  Zn2  1  0.12248700  0.12248700  0.63253901  1
  Zn  Zn3  1  0.12248700  0.63253901  0.12248700  1
  Zn  Zn4  1  0.87751300  0.87751300  0.36746099  1
  Zn  Zn5  1  0.87751300  0.36746099  0.87751300  1
  Zn  Zn6  1  0.63253901  0.12248700  0.12248700  1
  Zn  Zn7  1  0.36746099  0.87751300  0.87751300  1
  Zn  Zn8  1  0.33775015  0.33775015  0.33775015  1
  Zn  Zn9  1  0.66224985  0.66224985  0.66224985  1
  Zn  Zn10  1  0.33775015  0.33775015  0.98675154  1
  Zn  Zn11  1  0.33775015  0.98675154  0.33775015  1
  Zn  Zn12  1  0.66224985  0.66224985  0.01324846  1
  Zn  Zn13  1  0.66224985  0.01324846  0.66224985  1
  Zn  Zn14  1  0.98675154  0.33775015  0.33775015  1
  Zn  Zn15  1  0.01324846  0.66224985  0.66224985  1
  As  As0  1  0.50000000  0.50000000  0.50000000  1
  Pd  Pd0  1  0.50000000  0.00000000  0.00000000  1
  Pd  Pd1  1  0.00000000  0.50000000  0.50000000  1
  Pd  Pd2  1  0.00000000  0.50000000  0.00000000  1
  Pd  Pd3  1  0.50000000  0.00000000  0.50000000  1
  Pd  Pd4  1  0.00000000  0.00000000  0.50000000  1
  Pd  Pd5  1  0.50000000  0.50000000  0.00000000  1
  Pd  Pd6  1  0.00000000  0.00000000  0.00000000  1
loop_
_geom_bond_atom_site_label_1
_geom_bond_atom_site_label_2
_geom_bond_distance
_geom_bond_site_symmetry_2
As0 Zr1 2.662653 1_555
As0 Zr3 2.662653 1_555
As0 Zr2 2.662653 1_555
As0 Zr0 2.662653 1_555
As0 Zr5 2.662653 1_555
As0 Zr4 2.662653 1_555
Pd0 Zn13 2.526297 1_554
Pd0 Zn11 2.526297 1_545
Pd0 Zn10 2.526297 1_554
Pd0 Zn12 2.526297 1_545
Pd0 Zn6 2.696080 1_555
Pd0 Zn7 2.696080 1_544
Pd0 Zn1 2.696080 1_544
Pd0 Zn0 2.696080 1_555
Pd0 Zr5 3.121546 1_545
Pd0 Zr4 3.121546 1_554
Pd0 Zr3 3.121547 1_554
Pd0 Zr2 3.121547 1_545
Pd1 Zn15 2.526282 1_555
Pd1 Zn14 2.526282 1_455
Pd1 Zn8 2.526293 1_555
Pd1 Zn9 2.526293 1_455
Pd1 Zn5 2.696080 1_455
Pd1 Zn3 2.696080 1_555
Pd1 Zn4 2.696080 1_455
Pd1 Zn2 2.696080 1_555
Pd1 Zr4 3.121547 1_555
Pd1 Zr5 3.121547 1_455
Pd1 Zr2 3.121547 1_555
Pd1 Zr3 3.121547 1_455
Pd2 Zn14 2.526297 1_455
Pd2 Zn15 2.526297 1_554
Pd2 Zn10 2.526297 1_554
Pd2 Zn12 2.526297 1_455
Pd2 Zn3 2.696080 1_555
Pd2 Zn5 2.696080 1_454
Pd2 Zn1 2.696080 1_454
Pd2 Zn0 2.696080 1_555
Pd2 Zr5 3.121547 1_455
Pd2 Zr4 3.121547 1_554
Pd2 Zr1 3.121547 1_554
Pd2 Zr0 3.121547 1_455
Pd3 Zn11 2.526282 1_545
Pd3 Zn13 2.526282 1_555
Pd3 Zn8 2.526293 1_555
Pd3 Zn9 2.526293 1_545
Pd3 Zn7 2.696080 1_545
Pd3 Zn6 2.696080 1_555
Pd3 Zn4 2.696080 1_545
Pd3 Zn2 2.696080 1_555
Pd3 Zr4 3.121546 1_555
Pd3 Zr5 3.121546 1_545
Pd3 Zr0 3.121547 1_555
Pd3 Zr1 3.121547 1_545
Pd4 Zn14 2.526297 1_455
Pd4 Zn15 2.526297 1_545
Pd4 Zn13 2.526298 1_455
Pd4 Zn11 2.526298 1_545
Pd4 Zn2 2.696080 1_555
Pd4 Zn4 2.696080 1_445
Pd4 Zn0 2.696080 1_555
Pd4 Zn1 2.696080 1_445
Pd4 Zr1 3.121547 1_545
Pd4 Zr3 3.121547 1_455
Pd4 Zr2 3.121547 1_545
Pd4 Zr0 3.121547 1_455
Pd5 Zn12 2.526282 1_555
Pd5 Zn10 2.526282 1_554
Pd5 Zn8 2.526293 1_555
Pd5 Zn9 2.526293 1_554
Pd5 Zn7 2.696080 1_554
Pd5 Zn6 2.696080 1_555
Pd5 Zn5 2.696080 1_554
Pd5 Zn3 2.696080 1_555
Pd5 Zr2 3.121546 1_555
Pd5 Zr0 3.121546 1_555
Pd5 Zr3 3.121546 1_554
Pd5 Zr1 3.121546 1_554
Pd6 Zn0 2.623827 1_555
Pd6 Zn1 2.623827 1_444
Pd6 Zn4 2.623827 1_445
Pd6 Zn2 2.623827 1_554
Pd6 Zn5 2.623827 1_454
Pd6 Zn3 2.623827 1_545
Pd6 Zn7 2.623827 1_544
Pd6 Zn6 2.623827 1_455
