# generated using pymatgen
data_CsCrI2
_symmetry_space_group_name_H-M   'P 1'
_cell_length_a   8.11088333
_cell_length_b   8.11088333
_cell_length_c   6.51495600
_cell_angle_alpha   90.00000000
_cell_angle_beta   90.00000000
_cell_angle_gamma   114.71883006
_symmetry_Int_Tables_number   1
_chemical_formula_structural   CsCrI2
_chemical_formula_sum   'Cs2 Cr2 I4'
_cell_volume   389.32380523
_cell_formula_units_Z   2
loop_
 _symmetry_equiv_pos_site_id
 _symmetry_equiv_pos_as_xyz
  1  'x, y, z'
loop_
 _atom_site_type_symbol
 _atom_site_label
 _atom_site_symmetry_multiplicity
 _atom_site_fract_x
 _atom_site_fract_y
 _atom_site_fract_z
 _atom_site_occupancy
  Cs  Cs0  1  0.34040700  0.65959300  0.75000000  1
  Cs  Cs1  1  0.65959300  0.34040700  0.25000000  1
  Cr  Cr0  1  0.00000000  0.00000000  0.50000000  1
  Cr  Cr1  1  0.00000000  0.00000000  0.00000000  1
  I  I0  1  0.14125000  0.32977100  0.25000000  1
  I  I1  1  0.67022900  0.85875000  0.25000000  1
  I  I2  1  0.32977100  0.14125000  0.75000000  1
  I  I3  1  0.85875000  0.67022900  0.75000000  1
loop_
_geom_bond_atom_site_label_1
_geom_bond_atom_site_label_2
_geom_bond_distance
_geom_bond_site_symmetry_2
Cs0 I2 3.943516 1_565
Cs0 I3 3.943516 1_455
Cs0 I1 4.094250 1_555
Cs0 I1 4.094250 1_556
Cs0 I0 4.094250 1_556
Cs0 I0 4.094250 1_555
Cs0 I2 4.168882 1_555
Cs0 I3 4.168882 1_555
Cs1 I0 3.943516 1_655
Cs1 I1 3.943516 1_545
Cs1 I3 4.094250 1_554
Cs1 I2 4.094250 1_555
Cs1 I3 4.094250 1_555
Cs1 I2 4.094250 1_554
Cs1 I0 4.168882 1_555
Cs1 I1 4.168882 1_555
Cr0 I0 2.925189 1_555
Cr0 I2 2.925189 1_555
Cr0 I1 2.925189 1_445
Cr0 I3 2.925189 1_445
Cr1 I0 2.925189 1_555
Cr1 I2 2.925189 1_554
Cr1 I3 2.925189 1_444
Cr1 I1 2.925189 1_445
