# generated using pymatgen
data_Lu6Ta4Ga12Os7
_symmetry_space_group_name_H-M   'P 1'
_cell_length_a   8.90384520
_cell_length_b   8.90384570
_cell_length_c   8.90384502
_cell_angle_alpha   59.99999528
_cell_angle_beta   59.99999344
_cell_angle_gamma   59.99999747
_symmetry_Int_Tables_number   1
_chemical_formula_structural   Lu6Ta4Ga12Os7
_chemical_formula_sum   'Lu6 Ta4 Ga12 Os7'
_cell_volume   499.13471349
_cell_formula_units_Z   1
loop_
 _symmetry_equiv_pos_site_id
 _symmetry_equiv_pos_as_xyz
  1  'x, y, z'
loop_
 _atom_site_type_symbol
 _atom_site_label
 _atom_site_symmetry_multiplicity
 _atom_site_fract_x
 _atom_site_fract_y
 _atom_site_fract_z
 _atom_site_occupancy
  Lu  Lu0  1  0.70917940  0.70917940  0.29082060  1
  Lu  Lu1  1  0.29082060  0.70917940  0.29082060  1
  Lu  Lu2  1  0.70917940  0.29082060  0.29082060  1
  Lu  Lu3  1  0.29082060  0.29082060  0.70917940  1
  Lu  Lu4  1  0.70917940  0.29082060  0.70917940  1
  Lu  Lu5  1  0.29082060  0.70917940  0.70917940  1
  Ta  Ta0  1  0.87815598  0.87815598  0.36553405  1
  Ta  Ta1  1  0.87815598  0.36553405  0.87815598  1
  Ta  Ta2  1  0.36553405  0.87815598  0.87815598  1
  Ta  Ta3  1  0.87815598  0.87815598  0.87815598  1
  Ga  Ga0  1  0.12042655  0.12042655  0.63872134  1
  Ga  Ga1  1  0.12042655  0.63872134  0.12042655  1
  Ga  Ga2  1  0.63872134  0.12042655  0.12042655  1
  Ga  Ga3  1  0.12042655  0.12042655  0.12042655  1
  Ga  Ga4  1  0.66192466  0.66192466  0.01422502  1
  Ga  Ga5  1  0.66192466  0.01422502  0.66192466  1
  Ga  Ga6  1  0.01422502  0.66192466  0.66192466  1
  Ga  Ga7  1  0.66192466  0.66192466  0.66192466  1
  Ga  Ga8  1  0.33573856  0.33573856  0.99278632  1
  Ga  Ga9  1  0.33573856  0.99278632  0.33573856  1
  Ga  Ga10  1  0.99278632  0.33573856  0.33573856  1
  Ga  Ga11  1  0.33573856  0.33573856  0.33573856  1
  Os  Os0  1  0.00000000  0.00000000  0.00000000  1
  Os  Os1  1  0.99564399  0.99564399  0.50435601  1
  Os  Os2  1  0.50435601  0.99564399  0.50435601  1
  Os  Os3  1  0.99564399  0.50435601  0.50435601  1
  Os  Os4  1  0.50435601  0.50435601  0.99564399  1
  Os  Os5  1  0.99564399  0.50435601  0.99564399  1
  Os  Os6  1  0.50435601  0.99564399  0.99564399  1
loop_
_geom_bond_atom_site_label_1
_geom_bond_atom_site_label_2
_geom_bond_distance
_geom_bond_site_symmetry_2
Lu0 Ta3 3.038939 1_554
Lu0 Ta0 3.038952 1_555
Lu0 Os5 3.190144 1_554
Lu0 Os6 3.190145 1_554
Lu0 Os3 3.190145 1_555
Lu0 Os2 3.190145 1_555
Lu1 Ta2 3.038936 1_554
Lu1 Ta0 3.038936 1_455
Lu1 Os6 3.190144 1_554
Lu1 Os3 3.190145 1_455
Lu1 Os4 3.190145 1_554
Lu1 Os1 3.190145 1_455
Lu2 Ta1 3.038936 1_554
Lu2 Ta0 3.038937 1_545
Lu2 Os5 3.190144 1_554
Lu2 Os4 3.190145 1_554
Lu2 Os1 3.190145 1_545
Lu2 Os2 3.190145 1_545
Lu3 Ta1 3.038936 1_455
Lu3 Ta2 3.038937 1_545
Lu3 Os5 3.190144 1_455
Lu3 Os6 3.190145 1_545
Lu3 Os3 3.190145 1_455
Lu3 Os2 3.190145 1_545
Lu4 Ta3 3.038939 1_545
Lu4 Ta1 3.038952 1_555
Lu4 Os6 3.190144 1_545
Lu4 Os3 3.190145 1_555
Lu4 Os4 3.190145 1_555
Lu4 Os1 3.190145 1_545
Lu5 Ta3 3.038939 1_455
Lu5 Ta2 3.038952 1_555
Lu5 Os5 3.190144 1_455
Lu5 Os4 3.190145 1_555
Lu5 Os1 3.190145 1_455
Lu5 Os2 3.190145 1_555
Ga0 Os0 2.626481 1_556
Ga0 Os2 2.791586 1_545
Ga0 Os3 2.791586 1_455
Ga0 Os1 2.791594 1_445
Ga0 Ga9 2.821330 1_545
Ga0 Ga10 2.821330 1_455
Ga0 Ga11 2.821334 1_555
Ga0 Lu3 3.033560 1_555
Ga0 Lu4 3.033567 1_455
Ga0 Lu5 3.033567 1_545
Ga0 Ta3 3.050761 1_445
Ga0 Ta2 3.050767 1_545
Ga0 Ta1 3.050767 1_455
Ga1 Os0 2.626481 1_565
Ga1 Os3 2.791586 1_455
Ga1 Os4 2.791586 1_554
Ga1 Os5 2.791594 1_454
Ga1 Ga10 2.821330 1_455
Ga1 Ga8 2.821330 1_554
Ga1 Ga11 2.821335 1_555
Ga1 Lu1 3.033560 1_555
Ga1 Lu5 3.033567 1_554
Ga1 Lu0 3.033567 1_455
Ga1 Ta3 3.050761 1_454
Ga1 Ta2 3.050767 1_554
Ga1 Ta0 3.050767 1_455
Ga2 Os0 2.626481 1_655
Ga2 Os2 2.791586 1_545
Ga2 Os4 2.791586 1_554
Ga2 Os6 2.791594 1_544
Ga2 Ga9 2.821330 1_545
Ga2 Ga8 2.821330 1_554
Ga2 Lu2 3.033560 1_555
Ga2 Lu4 3.033567 1_554
Ga2 Lu0 3.033567 1_545
Ga2 Ta3 3.050761 1_544
Ga2 Ta1 3.050767 1_554
Ga2 Ta0 3.050767 1_545
Ga3 Os0 2.626488 1_555
Ga3 Os1 2.791586 1_445
Ga3 Os6 2.791586 1_544
Ga3 Os5 2.791586 1_454
Ga3 Ga9 2.821337 1_545
Ga3 Ga8 2.821337 1_554
Ga3 Lu3 3.033566 1_554
Ga3 Lu2 3.033566 1_455
Ga3 Lu1 3.033566 1_545
Ga3 Ta0 3.050761 1_445
Ga3 Ta2 3.050761 1_544
Ga3 Ta1 3.050761 1_454
Ga4 Os4 2.529138 1_554
Ga4 Os5 2.529146 1_554
Ga4 Os6 2.529146 1_554
Ga4 Ta2 2.814748 1_554
Ga4 Ta1 2.814748 1_554
Ga4 Ta3 2.814770 1_554
Ga4 Lu1 2.944261 1_555
Ga4 Lu2 2.944261 1_555
Ga4 Lu0 2.944267 1_555
Ga5 Os2 2.529138 1_545
Ga5 Os6 2.529146 1_545
Ga5 Os1 2.529146 1_545
Ga5 Ta2 2.814748 1_545
Ga5 Ta0 2.814748 1_545
Ga5 Ta3 2.814770 1_545
Ga5 Lu2 2.944261 1_555
Ga5 Lu3 2.944261 1_555
Ga5 Lu4 2.944267 1_555
Ga6 Os3 2.529138 1_455
Ga6 Os5 2.529146 1_455
Ga6 Os1 2.529146 1_455
Ga6 Ta0 2.814748 1_455
Ga6 Ta1 2.814748 1_455
Ga6 Ta3 2.814770 1_455
Ga6 Lu1 2.944261 1_555
Ga6 Lu3 2.944261 1_555
Ga6 Lu5 2.944267 1_555
Ga7 Os4 2.529144 1_555
Ga7 Os3 2.529144 1_555
Ga7 Os2 2.529144 1_555
Ga7 Ta0 2.814763 1_555
Ga7 Ta2 2.814763 1_555
Ga7 Ta1 2.814763 1_555
Ga7 Lu0 2.944258 1_555
Ga7 Lu5 2.944258 1_555
Ga7 Lu4 2.944258 1_555
Ga8 Os4 2.615176 1_555
Ga8 Os5 2.615192 1_455
Ga8 Os6 2.615192 1_545
Ga8 Lu4 2.979304 1_555
Ga8 Lu5 2.979304 1_555
Ga8 Lu3 2.979316 1_555
Ga8 Ga9 3.053593 1_546
Ga9 Os2 2.615176 1_555
Ga9 Os6 2.615191 1_554
Ga9 Os1 2.615192 1_455
Ga9 Lu5 2.979304 1_555
Ga9 Lu0 2.979304 1_555
Ga9 Lu1 2.979316 1_555
Ga10 Os3 2.615176 1_555
Ga10 Os5 2.615191 1_554
Ga10 Os1 2.615192 1_545
Ga10 Ga3 2.821337 1_655
Ga10 Lu4 2.979304 1_555
Ga10 Lu0 2.979304 1_555
Ga10 Lu2 2.979316 1_555
Ga10 Ga8 3.053593 1_654
Ga10 Ga9 3.053594 1_645
Ga10 Ga11 3.053594 1_655
Ga11 Os4 2.615186 1_554
Ga11 Os3 2.615186 1_455
Ga11 Os2 2.615187 1_545
Ga11 Ga2 2.821334 1_555
Ga11 Lu3 2.979298 1_555
Ga11 Lu2 2.979298 1_555
Ga11 Lu1 2.979298 1_555
Ga11 Ga8 3.053594 1_554
Ga11 Ga9 3.053594 1_545
Os0 Ta3 2.657403 1_444
Os0 Ta0 2.657417 1_445
Os0 Ta2 2.657417 1_544
Os0 Ta1 2.657418 1_454
Os1 Ta0 2.719708 1_555
Os1 Ta3 2.719723 1_555
Os2 Ta2 2.719722 1_555
Os2 Ta0 2.719722 1_555
Os3 Ta1 2.719722 1_555
Os3 Ta0 2.719722 1_555
Os4 Ta1 2.719722 1_555
Os4 Ta2 2.719722 1_555
Os5 Ta1 2.719708 1_555
Os5 Ta3 2.719723 1_555
Os6 Ta2 2.719708 1_555
Os6 Ta3 2.719723 1_555
