# generated using pymatgen
data_RbCdGaF6
_symmetry_space_group_name_H-M   'P 1'
_cell_length_a   7.40010372
_cell_length_b   7.37912223
_cell_length_c   10.10621671
_cell_angle_alpha   90.00000000
_cell_angle_beta   90.00000000
_cell_angle_gamma   90.00000000
_symmetry_Int_Tables_number   1
_chemical_formula_structural   RbCdGaF6
_chemical_formula_sum   'Rb4 Cd4 Ga4 F24'
_cell_volume   551.86279711
_cell_formula_units_Z   4
loop_
 _symmetry_equiv_pos_site_id
 _symmetry_equiv_pos_as_xyz
  1  'x, y, z'
loop_
 _atom_site_type_symbol
 _atom_site_label
 _atom_site_symmetry_multiplicity
 _atom_site_fract_x
 _atom_site_fract_y
 _atom_site_fract_z
 _atom_site_occupancy
  Rb  Rb0  1  0.03871303  0.25000000  0.62315104  1
  Rb  Rb1  1  0.96128697  0.75000000  0.37684896  1
  Rb  Rb2  1  0.46128697  0.75000000  0.12315104  1
  Rb  Rb3  1  0.53871303  0.25000000  0.87684896  1
  Cd  Cd0  1  0.19230809  0.25000000  0.25601973  1
  Cd  Cd1  1  0.80769191  0.75000000  0.74398027  1
  Cd  Cd2  1  0.30769191  0.75000000  0.75601973  1
  Cd  Cd3  1  0.69230809  0.25000000  0.24398027  1
  Ga  Ga0  1  0.00000000  0.00000000  0.00000000  1
  Ga  Ga1  1  0.50000000  0.00000000  0.50000000  1
  Ga  Ga2  1  0.00000000  0.50000000  0.00000000  1
  Ga  Ga3  1  0.50000000  0.50000000  0.50000000  1
  F  F0  1  0.27667705  0.05267840  0.41969151  1
  F  F1  1  0.72332295  0.94732160  0.58030849  1
  F  F2  1  0.22332295  0.94732160  0.91969151  1
  F  F3  1  0.72332295  0.55267840  0.58030849  1
  F  F4  1  0.77667705  0.05267840  0.08030849  1
  F  F5  1  0.27667705  0.44732160  0.41969151  1
  F  F6  1  0.77667705  0.44732160  0.08030849  1
  F  F7  1  0.22332295  0.55267840  0.91969151  1
  F  F8  1  0.57426802  0.25000000  0.48803959  1
  F  F9  1  0.42573198  0.75000000  0.51196041  1
  F  F10  1  0.92573198  0.75000000  0.98803959  1
  F  F11  1  0.07426802  0.25000000  0.01196041  1
  F  F12  1  0.10842821  0.53063046  0.16754397  1
  F  F13  1  0.89157179  0.46936954  0.83245603  1
  F  F14  1  0.39157179  0.46936954  0.66754397  1
  F  F15  1  0.89157179  0.03063046  0.83245603  1
  F  F16  1  0.60842821  0.53063046  0.33245603  1
  F  F17  1  0.10842821  0.96936954  0.16754397  1
  F  F18  1  0.60842821  0.96936954  0.33245603  1
  F  F19  1  0.39157179  0.03063046  0.66754397  1
  F  F20  1  0.43574979  0.25000000  0.14132785  1
  F  F21  1  0.56425021  0.75000000  0.85867215  1
  F  F22  1  0.06425021  0.75000000  0.64132785  1
  F  F23  1  0.93574979  0.25000000  0.35867215  1
loop_
_geom_bond_atom_site_label_1
_geom_bond_atom_site_label_2
_geom_bond_distance
_geom_bond_site_symmetry_2
Cd0 F20 2.142171 1_555
Cd0 F23 2.163511 1_455
Cd0 F5 2.290407 1_555
Cd0 F0 2.290407 1_555
Cd0 F12 2.339454 1_555
Cd0 F17 2.339454 1_545
Cd0 F11 2.616624 1_555
Cd1 F21 2.142171 1_555
Cd1 F22 2.163511 1_655
Cd1 F3 2.290407 1_555
Cd1 F1 2.290407 1_555
Cd1 F15 2.339454 1_565
Cd1 F13 2.339454 1_555
Cd1 F10 2.616624 1_555
Cd2 F22 2.142171 1_555
Cd2 F21 2.163511 1_555
Cd2 F7 2.290407 1_555
Cd2 F2 2.290407 1_555
Cd2 F19 2.339454 1_565
Cd2 F14 2.339454 1_555
Cd2 F9 2.616624 1_555
Cd3 F23 2.142171 1_555
Cd3 F20 2.163511 1_555
Cd3 F6 2.290407 1_555
Cd3 F4 2.290407 1_555
Cd3 F16 2.339454 1_555
Cd3 F18 2.339454 1_545
Cd3 F8 2.616624 1_555
F0 Ga1 1.881742 1_555
F0 Rb0 3.073934 1_555
F0 Rb1 3.259321 1_445
F1 Ga1 1.881742 1_565
F1 Rb1 3.073934 1_555
F1 Rb0 3.259321 1_665
F2 Ga0 1.881742 1_566
F2 Rb2 3.073934 1_556
F2 Rb3 3.259321 1_565
F3 Ga3 1.881742 1_555
F3 Rb1 3.073934 1_555
F3 Rb0 3.259321 1_655
F4 Ga0 1.881742 1_655
F4 Rb3 3.073934 1_554
F4 Rb2 3.259321 1_545
F5 Ga3 1.881742 1_555
F5 Rb0 3.073934 1_555
F5 Rb1 3.259321 1_455
F6 Ga2 1.881742 1_655
F6 Rb3 3.073934 1_554
F6 Rb2 3.259321 1_555
F7 Ga2 1.881742 1_556
F7 Rb2 3.073934 1_556
F7 Rb3 3.259321 1_555
F8 Ga3 1.928698 1_555
F8 Ga1 1.928698 1_555
F9 Ga1 1.928698 1_565
F9 Ga3 1.928698 1_555
F10 Ga2 1.928698 1_656
F10 Ga0 1.928698 1_666
F11 Ga2 1.928698 1_555
F11 Ga0 1.928698 1_555
F12 Ga2 1.887312 1_555
F12 Rb1 2.877568 1_455
F12 Rb2 3.104830 1_555
F13 Ga2 1.887312 1_656
F13 Rb0 2.877568 1_655
F13 Rb3 3.104830 1_555
F14 Ga3 1.887312 1_555
F14 Rb3 2.877568 1_555
F14 Rb0 3.104830 1_555
F15 Ga0 1.887312 1_656
F15 Rb0 2.877568 1_655
F15 Rb3 3.104830 1_555
F16 Ga3 1.887312 1_555
F16 Rb2 2.877568 1_555
F16 Rb1 3.104830 1_555
F17 Ga0 1.887312 1_565
F17 Rb1 2.877568 1_455
F17 Rb2 3.104830 1_555
F18 Ga1 1.887312 1_565
F18 Rb2 2.877568 1_555
F18 Rb1 3.104830 1_555
F19 Ga1 1.887312 1_555
F19 Rb3 2.877568 1_555
F19 Rb0 3.104830 1_555
F20 Rb3 2.779360 1_554
F21 Rb2 2.779360 1_556
F22 Rb1 2.779360 1_455
F23 Rb0 2.779360 1_655
