# generated using pymatgen
data_Mg4P6Ir6Ru
_symmetry_space_group_name_H-M   'P 1'
_cell_length_a   6.82852809
_cell_length_b   6.82852833
_cell_length_c   6.82852701
_cell_angle_alpha   109.47122255
_cell_angle_beta   109.47122326
_cell_angle_gamma   109.47122554
_symmetry_Int_Tables_number   1
_chemical_formula_structural   Mg4P6Ir6Ru
_chemical_formula_sum   'Mg4 P6 Ir6 Ru1'
_cell_volume   245.10902733
_cell_formula_units_Z   1
loop_
 _symmetry_equiv_pos_site_id
 _symmetry_equiv_pos_as_xyz
  1  'x, y, z'
loop_
 _atom_site_type_symbol
 _atom_site_label
 _atom_site_symmetry_multiplicity
 _atom_site_fract_x
 _atom_site_fract_y
 _atom_site_fract_z
 _atom_site_occupancy
  Mg  Mg0  1  0.00000000  0.00000000  0.50000000  1
  Mg  Mg1  1  0.50000000  0.00000000  0.00000000  1
  Mg  Mg2  1  0.00000000  0.50000000  0.00000000  1
  Mg  Mg3  1  0.50000000  0.50000000  0.50000000  1
  P  P0  1  0.68326130  0.68326130  1.00000000  1
  P  P1  1  0.31673870  0.31673870  0.00000000  1
  P  P2  1  1.00000000  0.68326130  0.68326130  1
  P  P3  1  0.00000000  0.31673870  0.31673870  1
  P  P4  1  0.68326130  1.00000000  0.68326130  1
  P  P5  1  0.31673870  0.00000000  0.31673870  1
  Ir  Ir0  1  0.25000000  0.50000000  0.75000000  1
  Ir  Ir1  1  0.75000000  0.25000000  0.50000000  1
  Ir  Ir2  1  0.50000000  0.25000000  0.75000000  1
  Ir  Ir3  1  0.50000000  0.75000000  0.25000000  1
  Ir  Ir4  1  0.75000000  0.50000000  0.25000000  1
  Ir  Ir5  1  0.25000000  0.75000000  0.50000000  1
  Ru  Ru0  1  0.00000000  0.00000000  0.00000000  1
loop_
_geom_bond_atom_site_label_1
_geom_bond_atom_site_label_2
_geom_bond_distance
_geom_bond_site_symmetry_2
Mg0 P1 2.836966 1_556
Mg0 P0 2.836966 1_444
Mg0 P5 2.836967 1_555
Mg0 P4 2.836967 1_445
Mg0 P3 2.836967 1_555
Mg0 P2 2.836967 1_445
Mg1 P3 2.836967 1_655
Mg1 P2 2.836967 1_444
Mg1 P5 2.836967 1_555
Mg1 P4 2.836967 1_544
Mg1 P1 2.836967 1_555
Mg1 P0 2.836967 1_544
Mg2 P5 2.836967 1_565
Mg2 P4 2.836967 1_444
Mg2 P2 2.836967 1_454
Mg2 P3 2.836967 1_555
Mg2 P0 2.836967 1_454
Mg2 P1 2.836967 1_555
Mg3 P0 2.836966 1_555
Mg3 P1 2.836966 1_555
Mg3 P2 2.836967 1_555
Mg3 P3 2.836967 1_555
Mg3 P5 2.836967 1_555
Mg3 P4 2.836967 1_555
P0 Ru0 2.497454 1_666
P1 Ru0 2.497454 1_555
P2 Ru0 2.497454 1_666
P3 Ru0 2.497454 1_555
P4 Ru0 2.497454 1_666
P5 Ru0 2.497454 1_555
Ir0 P3 2.444125 1_555
Ir0 P0 2.444126 1_555
Ir0 P1 2.444126 1_556
Ir0 P2 2.444126 1_455
Ir0 Mg1 2.787735 1_566
Ir0 Mg0 2.787735 1_555
Ir0 Mg2 2.787735 1_556
Ir0 Mg3 2.787735 1_555
Ir1 P5 2.444126 1_555
Ir1 P2 2.444126 1_555
Ir1 P3 2.444126 1_655
Ir1 P4 2.444126 1_545
Ir1 Mg1 2.787734 1_555
Ir1 Mg2 2.787734 1_656
Ir1 Mg3 2.787735 1_555
Ir1 Mg0 2.787735 1_655
Ir2 P5 2.444125 1_555
Ir2 P0 2.444126 1_555
Ir2 P1 2.444126 1_556
Ir2 P4 2.444126 1_545
Ir2 Mg2 2.787735 1_656
Ir2 Mg0 2.787735 1_555
Ir2 Mg3 2.787735 1_555
Ir2 Mg1 2.787735 1_556
Ir3 P4 2.444125 1_555
Ir3 P1 2.444126 1_555
Ir3 P0 2.444126 1_554
Ir3 P5 2.444126 1_565
Ir3 Mg2 2.787735 1_555
Ir3 Mg0 2.787735 1_665
Ir3 Mg3 2.787735 1_555
Ir3 Mg1 2.787735 1_565
Ir4 P2 2.444125 1_555
Ir4 P1 2.444126 1_555
Ir4 P0 2.444126 1_554
Ir4 P3 2.444126 1_655
Ir4 Mg1 2.787735 1_555
Ir4 Mg0 2.787735 1_665
Ir4 Mg2 2.787735 1_655
Ir4 Mg3 2.787735 1_555
Ir5 P4 2.444126 1_555
Ir5 P3 2.444126 1_555
Ir5 P2 2.444126 1_455
Ir5 P5 2.444126 1_565
Ir5 Mg2 2.787734 1_555
Ir5 Mg1 2.787734 1_566
Ir5 Mg3 2.787735 1_555
Ir5 Mg0 2.787735 1_565
