# generated using pymatgen
data_Ba3FePt2O9
_symmetry_space_group_name_H-M   'P 1'
_cell_length_a   5.75416495
_cell_length_b   5.75416475
_cell_length_c   14.43355296
_cell_angle_alpha   90.00000000
_cell_angle_beta   90.00000000
_cell_angle_gamma   119.99957785
_symmetry_Int_Tables_number   1
_chemical_formula_structural   Ba3FePt2O9
_chemical_formula_sum   'Ba6 Fe2 Pt4 O18'
_cell_volume   413.87608213
_cell_formula_units_Z   2
loop_
 _symmetry_equiv_pos_site_id
 _symmetry_equiv_pos_as_xyz
  1  'x, y, z'
loop_
 _atom_site_type_symbol
 _atom_site_label
 _atom_site_symmetry_multiplicity
 _atom_site_fract_x
 _atom_site_fract_y
 _atom_site_fract_z
 _atom_site_occupancy
  Ba  Ba0  1  0.33333363  0.66666636  0.08518044  1
  Ba  Ba1  1  0.66666637  0.33333364  0.91481956  1
  Ba  Ba2  1  0.66666637  0.33333364  0.58518044  1
  Ba  Ba3  1  0.33333363  0.66666636  0.41481956  1
  Ba  Ba4  1  0.00000079  0.99999914  0.25000000  1
  Ba  Ba5  1  0.99999921  0.00000086  0.75000000  1
  Fe  Fe0  1  0.00000000  0.00000000  0.00000000  1
  Fe  Fe1  1  0.00000000  0.00000000  0.50000000  1
  Pt  Pt0  1  0.33333262  0.66666738  0.65496974  1
  Pt  Pt1  1  0.66666738  0.33333262  0.34503026  1
  Pt  Pt2  1  0.66666738  0.33333262  0.15496974  1
  Pt  Pt3  1  0.33333262  0.66666738  0.84503026  1
  O  O0  1  0.16572144  0.33144477  0.57868263  1
  O  O1  1  0.83427856  0.66855523  0.42131737  1
  O  O2  1  0.66855522  0.83427857  0.57868262  1
  O  O3  1  0.83427856  0.66855523  0.07868263  1
  O  O4  1  0.33144478  0.16572143  0.42131738  1
  O  O5  1  0.16572144  0.33144477  0.92131737  1
  O  O6  1  0.16572093  0.83427908  0.57868203  1
  O  O7  1  0.33144478  0.16572143  0.07868262  1
  O  O8  1  0.83427907  0.16572092  0.42131797  1
  O  O9  1  0.66855522  0.83427857  0.92131738  1
  O  O10  1  0.83427907  0.16572092  0.07868203  1
  O  O11  1  0.16572093  0.83427908  0.92131797  1
  O  O12  1  0.51517595  0.03034983  0.25000000  1
  O  O13  1  0.48482405  0.96965017  0.75000000  1
  O  O14  1  0.96965010  0.48482399  0.25000000  1
  O  O15  1  0.03034990  0.51517601  0.75000000  1
  O  O16  1  0.51517524  0.48482476  0.25000000  1
  O  O17  1  0.48482476  0.51517524  0.75000000  1
loop_
_geom_bond_atom_site_label_1
_geom_bond_atom_site_label_2
_geom_bond_distance
_geom_bond_site_symmetry_2
Ba0 O7 2.878623 1_565
Ba0 O3 2.878623 1_455
Ba0 O7 2.878629 1_555
Ba0 O3 2.878629 1_555
Ba0 O10 2.878645 1_565
Ba0 O10 2.878645 1_455
Ba0 O11 2.895580 1_554
Ba0 O9 2.895582 1_554
Ba0 O5 2.895582 1_554
Ba0 O16 2.990623 1_555
Ba0 O12 2.990631 1_565
Ba0 O14 2.990631 1_455
Ba1 O9 2.878623 1_545
Ba1 O5 2.878623 1_655
Ba1 O9 2.878629 1_555
Ba1 O5 2.878629 1_555
Ba1 O11 2.878645 1_545
Ba1 O11 2.878645 1_655
Ba1 O10 2.895580 1_556
Ba1 O7 2.895582 1_556
Ba1 O3 2.895582 1_556
Ba1 O17 2.990623 1_555
Ba1 O13 2.990631 1_545
Ba1 O15 2.990631 1_655
Ba2 O2 2.878623 1_545
Ba2 O0 2.878623 1_655
Ba2 O2 2.878629 1_555
Ba2 O0 2.878629 1_555
Ba2 O6 2.878645 1_545
Ba2 O6 2.878645 1_655
Ba2 O8 2.895580 1_555
Ba2 O4 2.895582 1_555
Ba2 O1 2.895582 1_555
Ba2 O17 2.990623 1_555
Ba2 O13 2.990631 1_545
Ba2 O15 2.990631 1_655
Ba3 O4 2.878623 1_565
Ba3 O1 2.878623 1_455
Ba3 O4 2.878629 1_555
Ba3 O1 2.878629 1_555
Ba3 O8 2.878645 1_565
Ba3 O8 2.878645 1_455
Ba3 O6 2.895580 1_555
Ba3 O2 2.895582 1_555
Ba3 O0 2.895582 1_555
Ba3 O16 2.990623 1_555
Ba3 O12 2.990631 1_565
Ba3 O14 2.990631 1_455
Ba4 O14 2.881055 1_465
Ba4 O14 2.881055 1_455
Ba4 O12 2.881055 1_465
Ba4 O12 2.881055 1_565
Ba4 O16 2.881073 1_455
Ba4 O16 2.881073 1_565
Ba4 O1 2.973612 1_455
Ba4 O3 2.973612 1_455
Ba4 O8 2.973612 1_465
Ba4 O10 2.973612 1_465
Ba4 O4 2.973612 1_565
Ba4 O7 2.973612 1_565
Ba5 O15 2.881055 1_645
Ba5 O15 2.881055 1_655
Ba5 O13 2.881055 1_645
Ba5 O13 2.881055 1_545
Ba5 O17 2.881073 1_655
Ba5 O17 2.881073 1_545
Ba5 O5 2.973612 1_655
Ba5 O0 2.973612 1_655
Ba5 O11 2.973612 1_645
Ba5 O6 2.973612 1_645
Ba5 O9 2.973612 1_545
Ba5 O2 2.973612 1_545
Fe0 O10 2.004418 1_455
Fe0 O11 2.004418 1_544
Fe0 O3 2.004443 1_445
Fe0 O5 2.004443 1_554
Fe0 O7 2.004443 1_555
Fe0 O9 2.004443 1_444
Fe1 O6 2.004418 1_545
Fe1 O8 2.004418 1_455
Fe1 O0 2.004443 1_555
Fe1 O1 2.004443 1_445
Fe1 O2 2.004443 1_445
Fe1 O4 2.004443 1_555
O0 Pt0 2.000750 1_555
O1 Pt1 2.000750 1_555
O2 Pt0 2.000750 1_555
O3 Pt2 2.000750 1_555
O4 Pt1 2.000750 1_555
O5 Pt3 2.000750 1_555
O6 Pt0 2.000749 1_555
O7 Pt2 2.000750 1_555
O8 Pt1 2.000749 1_555
O9 Pt3 2.000750 1_555
O10 Pt2 2.000749 1_555
O11 Pt3 2.000749 1_555
O12 Pt1 2.039850 1_555
O12 Pt2 2.039850 1_555
O13 Pt0 2.039850 1_555
O13 Pt3 2.039850 1_555
O14 Pt1 2.039850 1_555
O14 Pt2 2.039850 1_555
O15 Pt0 2.039850 1_555
O15 Pt3 2.039850 1_555
O16 Pt1 2.039849 1_555
O16 Pt2 2.039849 1_555
O17 Pt0 2.039849 1_555
O17 Pt3 2.039849 1_555
