# generated using pymatgen
data_Ca2AgPt2
_symmetry_space_group_name_H-M   'P 1'
_cell_length_a   5.56317840
_cell_length_b   5.56317913
_cell_length_c   5.56317901
_cell_angle_alpha   132.52960709
_cell_angle_beta   117.75678998
_cell_angle_gamma   81.85431549
_symmetry_Int_Tables_number   1
_chemical_formula_structural   Ca2AgPt2
_chemical_formula_sum   'Ca2 Ag1 Pt2'
_cell_volume   108.25173129
_cell_formula_units_Z   1
loop_
 _symmetry_equiv_pos_site_id
 _symmetry_equiv_pos_as_xyz
  1  'x, y, z'
loop_
 _atom_site_type_symbol
 _atom_site_label
 _atom_site_symmetry_multiplicity
 _atom_site_fract_x
 _atom_site_fract_y
 _atom_site_fract_z
 _atom_site_occupancy
  Ca  Ca0  1  0.70157986  0.20157986  0.50000100  1
  Ca  Ca1  1  0.29842114  0.79842014  0.50000000  1
  Ag  Ag0  1  0.00000000  0.00000000  0.00000000  1
  Pt  Pt0  1  0.72755042  0.50000000  0.22755042  1
  Pt  Pt1  1  0.27245058  0.50000000  0.77244958  1
loop_
_geom_bond_atom_site_label_1
_geom_bond_atom_site_label_2
_geom_bond_distance
_geom_bond_site_symmetry_2
Ca0 Pt0 2.957731 1_555
Ca0 Pt1 2.957733 1_655
Ca0 Pt1 3.098076 1_555
Ca0 Pt0 3.098079 1_556
Ca0 Pt0 3.098083 1_545
Ca0 Pt1 3.098083 1_544
Ca1 Pt1 2.957726 1_555
Ca1 Pt0 2.957731 1_455
Ca1 Pt0 3.098079 1_555
Ca1 Pt0 3.098083 1_566
Ca1 Pt1 3.098084 1_554
Ca1 Pt1 3.098084 1_565
Ag0 Pt0 2.732945 1_455
Ag0 Pt1 2.732945 1_555
Ag0 Pt0 2.732945 1_444
Ag0 Pt1 2.732948 1_544
Ag0 Ca1 3.337551 1_444
Ag0 Ca0 3.337551 1_454
Ag0 Ca0 3.337556 1_555
Ag0 Ca1 3.337556 1_545
Ag0 Ca0 3.362666 1_444
Ag0 Ca1 3.362666 1_555
Ag0 Ca1 3.362669 1_544
Ag0 Ca0 3.362669 1_455
Pt0 Pt1 2.617158 1_554
