# generated using pymatgen
data_LiB3O5
_symmetry_space_group_name_H-M   'P 1'
_cell_length_a   5.21748754
_cell_length_b   7.32144299
_cell_length_c   8.34253838
_cell_angle_alpha   90.00000000
_cell_angle_beta   90.00000000
_cell_angle_gamma   90.00000000
_symmetry_Int_Tables_number   1
_chemical_formula_structural   LiB3O5
_chemical_formula_sum   'Li4 B12 O20'
_cell_volume   318.68110832
_cell_formula_units_Z   4
loop_
 _symmetry_equiv_pos_site_id
 _symmetry_equiv_pos_as_xyz
  1  'x, y, z'
loop_
 _atom_site_type_symbol
 _atom_site_label
 _atom_site_symmetry_multiplicity
 _atom_site_fract_x
 _atom_site_fract_y
 _atom_site_fract_z
 _atom_site_occupancy
  Li  Li0  1  0.01379548  0.43172519  0.41957120  1
  Li  Li1  1  0.51379548  0.56827481  0.58042880  1
  Li  Li2  1  0.01379548  0.06827481  0.91957120  1
  Li  Li3  1  0.51379548  0.93172519  0.08042880  1
  B  B0  1  0.64526630  0.16558579  0.50924097  1
  B  B1  1  0.14526630  0.83441421  0.49075903  1
  B  B2  1  0.64526630  0.33441421  0.00924097  1
  B  B3  1  0.14526630  0.66558579  0.99075903  1
  B  B4  1  0.44869011  0.94115477  0.69548903  1
  B  B5  1  0.94869011  0.05884523  0.30451097  1
  B  B6  1  0.44869011  0.55884523  0.19548903  1
  B  B7  1  0.94869011  0.44115477  0.80451097  1
  B  B8  1  0.26744710  0.24835290  0.65735698  1
  B  B9  1  0.76744710  0.75164710  0.34264302  1
  B  B10  1  0.26744710  0.25164710  0.15735698  1
  B  B11  1  0.76744710  0.74835290  0.84264302  1
  O  O0  1  0.64791193  0.00270659  0.58474945  1
  O  O1  1  0.14791193  0.99729341  0.41525055  1
  O  O2  1  0.64791193  0.49729341  0.08474945  1
  O  O3  1  0.14791193  0.50270659  0.91525055  1
  O  O4  1  0.80231191  0.20759831  0.38366565  1
  O  O5  1  0.30231191  0.79240169  0.61633435  1
  O  O6  1  0.80231191  0.29240169  0.88366565  1
  O  O7  1  0.30231191  0.70759831  0.11633435  1
  O  O8  1  0.47138459  0.29949557  0.55928709  1
  O  O9  1  0.97138459  0.70050443  0.44071291  1
  O  O10  1  0.47138459  0.20050443  0.05928709  1
  O  O11  1  0.97138459  0.79949557  0.94071291  1
  O  O12  1  0.26861929  0.08957775  0.74136912  1
  O  O13  1  0.76861929  0.91042225  0.25863088  1
  O  O14  1  0.26861929  0.41042225  0.24136912  1
  O  O15  1  0.76861929  0.58957775  0.75863088  1
  O  O16  1  0.07157328  0.37227868  0.65902951  1
  O  O17  1  0.57157328  0.62772132  0.34097049  1
  O  O18  1  0.07157328  0.12772132  0.15902951  1
  O  O19  1  0.57157328  0.87227868  0.84097049  1
loop_
_geom_bond_atom_site_label_1
_geom_bond_atom_site_label_2
_geom_bond_distance
_geom_bond_site_symmetry_2
Li0 O9 1.988093 1_455
Li0 O4 1.999976 1_455
Li0 O14 2.000538 1_555
Li0 O16 2.066657 1_555
Li1 O8 1.988093 1_555
Li1 O5 1.999976 1_555
Li1 O15 2.000538 1_555
Li1 O17 2.066657 1_555
Li2 O11 1.988093 1_445
Li2 O6 1.999976 1_455
Li2 O12 2.000538 1_555
Li2 O18 2.066657 1_556
Li3 O10 1.988093 1_565
Li3 O7 1.999976 1_555
Li3 O13 2.000538 1_555
Li3 O19 2.066657 1_554
B0 O0 1.348735 1_555
B0 O4 1.365102 1_555
B0 O8 1.399494 1_555
B1 O1 1.348735 1_555
B1 O5 1.365102 1_555
B1 O9 1.399494 1_455
B2 O2 1.348735 1_555
B2 O6 1.365102 1_554
B2 O10 1.399494 1_555
B3 O3 1.348735 1_555
B3 O7 1.365102 1_556
B3 O11 1.399494 1_455
B4 O0 1.461852 1_565
B4 O19 1.462321 1_555
B4 O5 1.485077 1_555
B4 O12 1.486623 1_565
B5 O1 1.461852 1_645
B5 O18 1.462321 1_655
B5 O4 1.485077 1_555
B5 O13 1.486623 1_545
B6 O2 1.461852 1_555
B6 O17 1.462321 1_555
B6 O7 1.485077 1_555
B6 O14 1.486623 1_555
B7 O3 1.461852 1_655
B7 O16 1.462321 1_655
B7 O6 1.485077 1_555
B7 O15 1.486623 1_555
B8 O12 1.357418 1_555
B8 O16 1.366688 1_555
B8 O8 1.393471 1_555
B9 O13 1.357418 1_555
B9 O17 1.366688 1_555
B9 O9 1.393471 1_555
B10 O14 1.357418 1_555
B10 O18 1.366688 1_555
B10 O10 1.393471 1_555
B11 O15 1.357418 1_555
B11 O19 1.366688 1_555
B11 O11 1.393471 1_555
