# generated using pymatgen
data_Hf4VSn3N
_symmetry_space_group_name_H-M   'P 1'
_cell_length_a   8.21273033
_cell_length_b   8.21272982
_cell_length_c   5.55772881
_cell_angle_alpha   90.00000000
_cell_angle_beta   90.00000000
_cell_angle_gamma   119.99999809
_symmetry_Int_Tables_number   1
_chemical_formula_structural   Hf4VSn3N
_chemical_formula_sum   'Hf8 V2 Sn6 N2'
_cell_volume   324.64079301
_cell_formula_units_Z   2
loop_
 _symmetry_equiv_pos_site_id
 _symmetry_equiv_pos_as_xyz
  1  'x, y, z'
loop_
 _atom_site_type_symbol
 _atom_site_label
 _atom_site_symmetry_multiplicity
 _atom_site_fract_x
 _atom_site_fract_y
 _atom_site_fract_z
 _atom_site_occupancy
  Hf  Hf0  1  0.33333300  0.66666700  0.50000000  1
  Hf  Hf1  1  0.66666700  0.33333300  0.50000000  1
  Hf  Hf2  1  0.77680130  0.77680130  0.74788451  1
  Hf  Hf3  1  0.22319870  0.00000000  0.74788451  1
  Hf  Hf4  1  0.00000000  0.22319870  0.74788451  1
  Hf  Hf5  1  0.22319870  0.22319870  0.25211549  1
  Hf  Hf6  1  0.77680130  1.00000000  0.25211549  1
  Hf  Hf7  1  0.00000000  0.77680130  0.25211549  1
  V  V0  1  0.66666700  0.33333300  0.00000000  1
  V  V1  1  0.33333300  0.66666700  0.00000000  1
  Sn  Sn0  1  0.40862856  0.40862856  0.76417179  1
  Sn  Sn1  1  0.59137144  1.00000000  0.76417179  1
  Sn  Sn2  1  0.00000000  0.59137144  0.76417179  1
  Sn  Sn3  1  0.59137144  0.59137144  0.23582821  1
  Sn  Sn4  1  0.40862856  0.00000000  0.23582821  1
  Sn  Sn5  1  0.00000000  0.40862856  0.23582821  1
  N  N0  1  0.00000000  0.00000000  0.00000000  1
  N  N1  1  0.00000000  0.00000000  0.50000000  1
loop_
_geom_bond_atom_site_label_1
_geom_bond_atom_site_label_2
_geom_bond_distance
_geom_bond_site_symmetry_2
Hf0 V1 2.778864 1_555
Hf0 V1 2.778864 1_556
Hf0 Sn4 2.887808 1_565
Hf0 Sn2 2.887809 1_555
Hf0 Sn1 2.887811 1_555
Hf0 Sn5 2.887811 1_555
Hf0 Sn0 2.887815 1_555
Hf0 Sn3 2.887815 1_555
Hf1 V0 2.778864 1_555
Hf1 V0 2.778864 1_556
Hf1 Sn1 2.887808 1_545
Hf1 Sn5 2.887809 1_655
Hf1 Sn4 2.887811 1_555
Hf1 Sn2 2.887811 1_655
Hf1 Sn3 2.887815 1_555
Hf1 Sn0 2.887815 1_555
Hf2 N1 2.293063 1_665
Hf2 N0 2.307267 1_666
Hf2 Sn1 2.911886 1_555
Hf2 Sn2 2.911886 1_655
Hf2 Sn0 3.025058 1_555
Hf2 Sn3 3.110202 1_556
Hf2 Sn3 3.227717 1_555
Hf3 N1 2.293063 1_555
Hf3 N0 2.307267 1_556
Hf3 Sn0 2.911886 1_555
Hf3 Sn2 2.911886 1_545
Hf3 Sn1 3.025058 1_545
Hf3 Sn4 3.110202 1_556
Hf3 Sn4 3.227717 1_555
Hf4 N1 2.293063 1_555
Hf4 N0 2.307267 1_556
Hf4 Sn1 2.911886 1_445
Hf4 Sn0 2.911886 1_555
Hf4 Sn2 3.025058 1_555
Hf4 Sn5 3.110202 1_556
Hf4 Sn5 3.227717 1_555
Hf5 N1 2.293063 1_555
Hf5 N0 2.307267 1_555
Hf5 Sn4 2.911886 1_555
Hf5 Sn5 2.911886 1_555
Hf5 Sn3 3.025058 1_555
Hf5 Sn0 3.110202 1_554
Hf5 Sn0 3.227717 1_555
Hf6 N1 2.293063 1_665
Hf6 N0 2.307267 1_665
Hf6 Sn3 2.911886 1_555
Hf6 Sn5 2.911886 1_665
Hf6 Sn4 3.025058 1_565
Hf6 Sn1 3.110202 1_554
Hf6 Sn1 3.227717 1_555
Hf7 N1 2.293063 1_565
Hf7 N0 2.307267 1_565
Hf7 Sn4 2.911886 1_565
Hf7 Sn3 2.911886 1_455
Hf7 Sn5 3.025058 1_555
Hf7 Sn2 3.110202 1_554
Hf7 Sn2 3.227717 1_555
Sn0 V1 2.811002 1_556
Sn0 V0 2.811002 1_556
Sn1 V0 2.810995 1_566
Sn1 V1 2.810998 1_556
Sn2 V1 2.810995 1_556
Sn2 V0 2.810998 1_456
Sn3 V0 2.811002 1_555
Sn3 V1 2.811002 1_555
Sn4 V1 2.810995 1_545
Sn4 V0 2.810998 1_555
Sn5 V0 2.810995 1_455
Sn5 V1 2.810998 1_555
