# generated using pymatgen
data_LiSc4Si8Tc5
_symmetry_space_group_name_H-M   'P 1'
_cell_length_a   6.61077343
_cell_length_b   6.60137995
_cell_length_c   12.35573845
_cell_angle_alpha   90.36795080
_cell_angle_beta   90.00000000
_cell_angle_gamma   90.00000000
_symmetry_Int_Tables_number   1
_chemical_formula_structural   LiSc4Si8Tc5
_chemical_formula_sum   'Li2 Sc8 Si16 Tc10'
_cell_volume   539.19611465
_cell_formula_units_Z   2
loop_
 _symmetry_equiv_pos_site_id
 _symmetry_equiv_pos_as_xyz
  1  'x, y, z'
loop_
 _atom_site_type_symbol
 _atom_site_label
 _atom_site_symmetry_multiplicity
 _atom_site_fract_x
 _atom_site_fract_y
 _atom_site_fract_z
 _atom_site_occupancy
  Li  Li0  1  0.33093073  0.33490088  0.00161196  1
  Li  Li1  1  0.83093073  0.16509912  0.74838804  1
  Sc  Sc0  1  0.00846734  0.65754034  0.03572336  1
  Sc  Sc1  1  0.99881082  0.34364637  0.52998815  1
  Sc  Sc2  1  0.35041528  0.99225007  0.46483679  1
  Sc  Sc3  1  0.16348058  0.49907190  0.78238255  1
  Sc  Sc4  1  0.85041528  0.50774993  0.28516321  1
  Sc  Sc5  1  0.49881082  0.15635363  0.22001185  1
  Sc  Sc6  1  0.50846734  0.84245966  0.71427664  1
  Sc  Sc7  1  0.66348058  0.00092810  0.96761745  1
  Si  Si0  1  0.02117745  0.73790231  0.44230769  1
  Si  Si1  1  0.61795152  0.30944818  0.43463492  1
  Si  Si2  1  0.36811377  0.70363844  0.92924813  1
  Si  Si3  1  0.20033324  0.12935511  0.68360909  1
  Si  Si4  1  0.30583085  0.62526276  0.57101233  1
  Si  Si5  1  0.70033324  0.37064489  0.06639091  1
  Si  Si6  1  0.80583085  0.87473724  0.17898767  1
  Si  Si7  1  0.11795152  0.19055182  0.31536508  1
  Si  Si8  1  0.96379760  0.29714674  0.93512161  1
  Si  Si9  1  0.73397400  0.02444549  0.55475680  1
  Si  Si10  1  0.23397400  0.47555451  0.19524320  1
  Si  Si11  1  0.79113813  0.53546420  0.68408848  1
  Si  Si12  1  0.46379760  0.20285326  0.81487839  1
  Si  Si13  1  0.52117745  0.76209769  0.30769231  1
  Si  Si14  1  0.29113813  0.96453580  0.06591152  1
  Si  Si15  1  0.86811377  0.79636156  0.82075187  1
  Tc  Tc0  1  0.67000698  0.67117766  0.49672209  1
  Tc  Tc1  1  0.17000698  0.82882234  0.25327791  1
  Tc  Tc2  1  0.01950491  0.82604689  0.63820999  1
  Tc  Tc3  1  0.99941268  0.17187182  0.12324866  1
  Tc  Tc4  1  0.80264571  0.02560456  0.35879969  1
  Tc  Tc5  1  0.30264571  0.47439544  0.39120031  1
  Tc  Tc6  1  0.65400540  0.50185854  0.87326140  1
  Tc  Tc7  1  0.49941268  0.32812818  0.62675134  1
  Tc  Tc8  1  0.51950491  0.67395311  0.11179001  1
  Tc  Tc9  1  0.15400540  0.99814146  0.87673860  1
loop_
_geom_bond_atom_site_label_1
_geom_bond_atom_site_label_2
_geom_bond_distance
_geom_bond_site_symmetry_2
Li0 Si8 2.573889 1_454
Li0 Si5 2.580198 1_555
Li0 Si14 2.589009 1_545
Li0 Si2 2.610177 1_554
Li0 Si12 2.613205 1_554
Li0 Si10 2.639749 1_555
Li0 Tc3 2.870684 1_455
Li0 Tc6 2.883346 1_554
Li0 Tc8 2.894434 1_555
Li0 Tc9 2.940503 1_544
Li1 Si12 2.573889 1_555
Li1 Si3 2.580198 1_655
Li1 Si11 2.589009 1_555
Li1 Si15 2.610177 1_545
Li1 Si8 2.613205 1_555
Li1 Si9 2.639749 1_555
Li1 Tc7 2.870684 1_555
Li1 Tc9 2.883346 1_645
Li1 Tc2 2.894434 1_645
Li1 Tc6 2.940503 1_555
Sc0 Si6 2.636484 1_455
Sc0 Si8 2.693397 1_454
Sc0 Si2 2.735178 1_554
Sc0 Si10 2.753336 1_555
Sc0 Si14 2.780007 1_555
Sc0 Si5 2.808748 1_455
Sc0 Si15 2.964288 1_454
Sc0 Tc1 3.099266 1_555
Sc0 Tc9 3.145892 1_554
Sc0 Tc6 3.248078 1_454
Sc1 Si11 2.661306 1_555
Sc1 Si3 2.722723 1_655
Sc1 Si9 2.758135 1_555
Sc1 Tc5 2.781911 1_655
Sc1 Si1 2.788332 1_555
Sc1 Si4 2.796490 1_655
Sc1 Si0 2.829388 1_655
Sc1 Si7 2.939299 1_655
Sc1 Tc0 3.095162 1_555
Sc2 Si13 2.704580 1_555
Sc2 Si7 2.741741 1_565
Sc2 Si0 2.761866 1_555
Sc2 Si1 2.768017 1_565
Sc2 Si9 2.775948 1_565
Sc2 Si4 2.778095 1_555
Sc2 Si3 3.013112 1_565
Sc2 Tc0 3.020266 1_555
Sc2 Tc1 3.063152 1_555
Sc2 Tc7 3.135564 1_565
Sc3 Si2 2.629654 1_555
Sc3 Si8 2.667068 1_455
Sc3 Si3 2.732626 1_555
Sc3 Si11 2.755958 1_455
Sc3 Si15 2.806591 1_455
Sc3 Si12 2.817199 1_555
Sc3 Si4 2.903118 1_555
Sc3 Tc2 2.964387 1_555
Sc3 Tc7 3.142464 1_555
Sc4 Si0 2.704580 1_655
Sc4 Si1 2.741741 1_555
Sc4 Si13 2.761866 1_555
Sc4 Si7 2.768017 1_655
Sc4 Si10 2.775948 1_655
Sc4 Si6 2.778095 1_555
Sc4 Si5 3.013112 1_555
Sc4 Tc1 3.020266 1_655
Sc4 Tc0 3.063152 1_555
Sc4 Tc3 3.135564 1_555
Sc5 Si14 2.661306 1_545
Sc5 Si5 2.722723 1_555
Sc5 Si10 2.758135 1_555
Sc5 Tc4 2.781911 1_555
Sc5 Si7 2.788332 1_555
Sc5 Si6 2.796490 1_545
Sc5 Si13 2.829388 1_545
Sc5 Si1 2.939299 1_555
Sc5 Tc1 3.095162 1_545
Sc6 Si4 2.636484 1_555
Sc6 Si12 2.693397 1_565
Sc6 Si15 2.735178 1_555
Sc6 Si9 2.753336 1_565
Sc6 Si11 2.780007 1_555
Sc6 Si3 2.808748 1_565
Sc6 Si2 2.964288 1_555
Sc6 Tc0 3.099266 1_555
Sc6 Tc6 3.145892 1_555
Sc6 Tc9 3.248078 1_555
Sc7 Si15 2.629654 1_545
Sc7 Si12 2.667068 1_555
Sc7 Si5 2.732626 1_556
Sc7 Si14 2.755958 1_546
Sc7 Si2 2.806591 1_545
Sc7 Si8 2.817199 1_555
Sc7 Si6 2.903118 1_546
Sc7 Tc8 2.964387 1_546
Sc7 Tc3 3.142464 1_556
Si0 Tc0 2.457489 1_455
Si0 Tc2 2.485864 1_555
Si0 Si4 2.576442 1_555
Si0 Tc4 2.604596 1_465
Si0 Tc1 2.607930 1_555
Si0 Tc5 2.621608 1_555
Si1 Tc5 2.413703 1_555
Si1 Tc4 2.420158 1_555
Si1 Tc7 2.502033 1_555
Si1 Si9 2.523231 1_555
Si1 Tc0 2.526959 1_555
Si2 Tc6 2.411007 1_555
Si2 Tc8 2.476431 1_556
Si2 Tc9 2.494029 1_555
Si3 Tc2 2.395467 1_545
Si3 Tc7 2.477153 1_555
Si3 Tc9 2.562198 1_545
Si4 Tc5 2.428972 1_555
Si4 Tc7 2.444755 1_555
Si4 Tc2 2.452525 1_555
Si4 Tc0 2.594994 1_555
Si5 Tc8 2.395467 1_555
Si5 Si8 2.426826 1_554
Si5 Tc3 2.477153 1_555
Si5 Tc6 2.562198 1_554
Si6 Tc4 2.428972 1_565
Si6 Tc3 2.444755 1_565
Si6 Tc8 2.452525 1_555
Si6 Tc1 2.594994 1_655
Si7 Tc4 2.413703 1_455
Si7 Tc5 2.420158 1_555
Si7 Tc3 2.502033 1_455
Si7 Tc1 2.526959 1_545
Si8 Tc9 2.445253 1_645
Si8 Tc3 2.483363 1_556
Si8 Tc6 2.572520 1_555
Si9 Tc4 2.463447 1_555
Si9 Tc0 2.471842 1_545
Si9 Tc2 2.521676 1_645
Si9 Tc7 2.681747 1_555
Si10 Tc5 2.463447 1_555
Si10 Tc1 2.471842 1_555
Si10 Tc8 2.521676 1_555
Si10 Si7 2.523231 1_555
Si10 Tc3 2.681747 1_455
Si11 Si15 2.457467 1_555
Si11 Tc7 2.466175 1_555
Si11 Tc2 2.508806 1_655
Si11 Tc6 2.518138 1_555
Si11 Tc0 2.613419 1_555
Si12 Si3 2.426826 1_555
Si12 Tc6 2.445253 1_555
Si12 Tc7 2.483363 1_555
Si12 Tc9 2.572520 1_545
Si13 Tc1 2.457489 1_555
Si13 Tc8 2.485864 1_555
Si13 Si6 2.576442 1_555
Si13 Tc5 2.604596 1_555
Si13 Tc0 2.607930 1_555
Si13 Tc4 2.621608 1_565
Si14 Si2 2.457467 1_554
Si14 Tc3 2.466175 1_465
Si14 Tc8 2.508806 1_555
Si14 Tc9 2.518138 1_554
Si14 Tc1 2.613419 1_555
Si15 Tc9 2.411007 1_655
Si15 Tc2 2.476431 1_655
Si15 Tc6 2.494029 1_555
