# generated using pymatgen
data_CaMg2Zn8Ni
_symmetry_space_group_name_H-M   'P 1'
_cell_length_a   8.80182614
_cell_length_b   8.80182664
_cell_length_c   8.80182675
_cell_angle_alpha   34.18137596
_cell_angle_beta   34.18137068
_cell_angle_gamma   34.18136538
_symmetry_Int_Tables_number   1
_chemical_formula_structural   CaMg2Zn8Ni
_chemical_formula_sum   'Ca1 Mg2 Zn8 Ni1'
_cell_volume   191.90955547
_cell_formula_units_Z   1
loop_
 _symmetry_equiv_pos_site_id
 _symmetry_equiv_pos_as_xyz
  1  'x, y, z'
loop_
 _atom_site_type_symbol
 _atom_site_label
 _atom_site_symmetry_multiplicity
 _atom_site_fract_x
 _atom_site_fract_y
 _atom_site_fract_z
 _atom_site_occupancy
  Ca  Ca0  1  0.00000000  0.00000000  0.00000000  1
  Mg  Mg0  1  0.85495210  0.85495210  0.85495210  1
  Mg  Mg1  1  0.14504790  0.14504790  0.14504790  1
  Zn  Zn0  1  0.66792752  0.66792752  0.66792752  1
  Zn  Zn1  1  0.33207148  0.33207148  0.33207148  1
  Zn  Zn2  1  0.41324383  0.91169039  0.41324483  1
  Zn  Zn3  1  0.41324483  0.41324483  0.91168939  1
  Zn  Zn4  1  0.91169039  0.41324383  0.41324483  1
  Zn  Zn5  1  0.08830961  0.58675517  0.58675417  1
  Zn  Zn6  1  0.58675417  0.58675417  0.08830961  1
  Zn  Zn7  1  0.58675517  0.08830961  0.58675417  1
  Ni  Ni0  1  0.50000000  0.50000000  0.50000000  1
loop_
_geom_bond_atom_site_label_1
_geom_bond_atom_site_label_2
_geom_bond_distance
_geom_bond_site_symmetry_2
Ca0 Zn0 2.987056 1_544
Ca0 Zn1 2.987056 1_455
Ca0 Zn0 2.987056 1_454
Ca0 Zn1 2.987056 1_545
Ca0 Zn0 2.987057 1_445
Ca0 Zn1 2.987057 1_554
Ca0 Mg1 3.602786 1_555
Ca0 Mg0 3.602786 1_444
Mg0 Zn7 2.922223 1_565
Mg0 Zn5 2.922224 1_655
Mg0 Zn6 2.922232 1_556
Mg0 Zn2 2.958118 1_655
Mg0 Zn4 2.958119 1_565
Mg0 Zn3 2.958120 1_655
Mg0 Zn3 2.958120 1_565
Mg0 Zn2 2.958123 1_556
Mg0 Zn4 2.958123 1_556
Mg0 Ni0 3.034776 1_655
Mg0 Ni0 3.034777 1_565
Mg0 Ni0 3.034777 1_556
Mg0 Mg1 3.174100 1_566
Mg0 Mg1 3.174100 1_656
Mg0 Mg1 3.174101 1_665
Mg1 Zn2 2.922208 1_545
Mg1 Zn4 2.922208 1_455
Mg1 Zn3 2.922210 1_554
Mg1 Zn7 2.958126 1_455
Mg1 Zn5 2.958127 1_545
Mg1 Zn7 2.958131 1_554
Mg1 Zn5 2.958131 1_554
Mg1 Zn6 2.958132 1_455
Mg1 Zn6 2.958132 1_545
Mg1 Ni0 3.034776 1_455
Mg1 Ni0 3.034777 1_545
Mg1 Ni0 3.034777 1_554
Zn0 Zn6 2.609317 1_556
Zn0 Zn5 2.609323 1_655
Zn0 Zn7 2.609323 1_565
Zn0 Zn3 2.655644 1_555
Zn0 Zn4 2.655646 1_555
Zn0 Zn2 2.655646 1_555
Zn0 Zn1 2.987549 1_655
Zn0 Zn1 2.987549 1_565
Zn0 Zn1 2.987550 1_556
Zn1 Zn4 2.609314 1_455
Zn1 Zn2 2.609315 1_545
Zn1 Zn3 2.609317 1_554
Zn1 Zn6 2.655644 1_555
Zn1 Zn5 2.655652 1_555
Zn1 Zn7 2.655652 1_555
Zn2 Zn3 2.578680 1_555
Zn2 Zn4 2.578687 1_555
Zn2 Zn4 2.594760 1_465
Zn2 Zn3 2.594769 1_564
Zn3 Zn4 2.578680 1_555
Zn3 Zn4 2.594769 1_456
Zn5 Zn6 2.578677 1_555
Zn5 Zn7 2.578682 1_555
Zn5 Zn7 2.594766 1_465
Zn5 Zn6 2.594771 1_456
Zn6 Zn7 2.578678 1_555
Zn6 Zn7 2.594772 1_564
Ni0 Zn3 2.470901 1_555
Ni0 Zn4 2.470903 1_555
Ni0 Zn2 2.470904 1_555
Ni0 Zn5 2.470915 1_555
Ni0 Zn7 2.470915 1_555
Ni0 Zn6 2.470921 1_555
