# generated using pymatgen
data_Ca7Cd2GeN2
_symmetry_space_group_name_H-M   'P 1'
_cell_length_a   12.47642273
_cell_length_b   12.47642297
_cell_length_c   4.84771325
_cell_angle_alpha   90.00000000
_cell_angle_beta   90.00000000
_cell_angle_gamma   157.50250149
_symmetry_Int_Tables_number   1
_chemical_formula_structural   Ca7Cd2GeN2
_chemical_formula_sum   'Ca7 Cd2 Ge1 N2'
_cell_volume   288.74267474
_cell_formula_units_Z   1
loop_
 _symmetry_equiv_pos_site_id
 _symmetry_equiv_pos_as_xyz
  1  'x, y, z'
loop_
 _atom_site_type_symbol
 _atom_site_label
 _atom_site_symmetry_multiplicity
 _atom_site_fract_x
 _atom_site_fract_y
 _atom_site_fract_z
 _atom_site_occupancy
  Ca  Ca0  1  0.90938214  0.09061686  0.00000000  1
  Ca  Ca1  1  0.69279110  0.30720790  0.00000000  1
  Ca  Ca2  1  0.50000000  0.50000000  0.00000000  1
  Ca  Ca3  1  0.30720790  0.69279110  0.00000000  1
  Ca  Ca4  1  0.09061686  0.90938214  0.00000000  1
  Ca  Ca5  1  0.59113147  0.40886753  0.50000000  1
  Ca  Ca6  1  0.40886753  0.59113147  0.50000000  1
  Cd  Cd0  1  0.78701093  0.21298907  0.50000000  1
  Cd  Cd1  1  0.21298907  0.78701093  0.50000000  1
  Ge  Ge0  1  0.00000000  0.00000000  0.50000000  1
  N  N0  1  0.59971351  0.40028549  0.00000000  1
  N  N1  1  0.40028549  0.59971351  0.00000000  1
loop_
_geom_bond_atom_site_label_1
_geom_bond_atom_site_label_2
_geom_bond_distance
_geom_bond_site_symmetry_2
Ca0 N1 2.443923 1_545
Ca0 N1 2.443923 1_655
Ca0 Ge0 3.285327 1_654
Ca0 Ge0 3.285327 1_655
Ca0 Cd0 3.852828 1_554
Ca0 Cd0 3.852828 1_555
Ca1 N0 2.277934 1_555
Ca1 Cd0 3.345466 1_555
Ca1 Cd0 3.345466 1_554
Ca1 Cd1 3.470245 1_544
Ca1 Cd1 3.470245 1_545
Ca1 Cd1 3.470249 1_654
Ca1 Cd1 3.470249 1_655
Ca2 N1 2.440350 1_555
Ca2 N0 2.440350 1_555
Ca2 Ge0 3.434862 1_664
Ca2 Ge0 3.434862 1_554
Ca2 Ge0 3.434862 1_555
Ca2 Ge0 3.434862 1_665
Ca3 N1 2.277934 1_555
Ca3 Cd1 3.345466 1_555
Ca3 Cd1 3.345466 1_554
Ca3 Cd0 3.470245 1_455
Ca3 Cd0 3.470245 1_454
Ca3 Cd0 3.470249 1_564
Ca3 Cd0 3.470249 1_565
Ca4 N0 2.443923 1_565
Ca4 N0 2.443923 1_455
Ca4 Ge0 3.285327 1_564
Ca4 Ge0 3.285327 1_565
Ca4 Cd1 3.852828 1_554
Ca4 Cd1 3.852828 1_555
Ca5 N0 2.432939 1_555
Ca5 N0 2.432939 1_556
Ca5 Ge0 3.301136 1_555
Ca5 Ge0 3.301140 1_665
Ca5 Cd1 3.849300 1_545
Ca5 Cd1 3.849303 1_655
Ca6 N1 2.432939 1_556
Ca6 N1 2.432939 1_555
Ca6 Ge0 3.301137 1_555
Ca6 Ge0 3.301140 1_665
Ca6 Cd0 3.849300 1_455
Ca6 Cd0 3.849303 1_565
Cd0 Cd1 3.033973 1_545
Cd0 Cd1 3.033974 1_655
