# generated using pymatgen
data_Rb6Zn4Sn5S17
_symmetry_space_group_name_H-M   'P 1'
_cell_length_a   11.07066762
_cell_length_b   11.07066756
_cell_length_c   11.07426715
_cell_angle_alpha   78.22508253
_cell_angle_beta   78.22508108
_cell_angle_gamma   125.91691102
_symmetry_Int_Tables_number   1
_chemical_formula_structural   Rb6Zn4Sn5S17
_chemical_formula_sum   'Rb6 Zn4 Sn5 S17'
_cell_volume   982.24909466
_cell_formula_units_Z   1
loop_
 _symmetry_equiv_pos_site_id
 _symmetry_equiv_pos_as_xyz
  1  'x, y, z'
loop_
 _atom_site_type_symbol
 _atom_site_label
 _atom_site_symmetry_multiplicity
 _atom_site_fract_x
 _atom_site_fract_y
 _atom_site_fract_z
 _atom_site_occupancy
  Rb  Rb0  1  0.24913619  0.75086381  0.50000000  1
  Rb  Rb1  1  0.57865492  0.42134508  1.00000000  1
  Rb  Rb2  1  0.50832525  0.98796259  0.98875483  1
  Rb  Rb3  1  0.01203741  0.49167475  0.01124517  1
  Rb  Rb4  1  0.99310150  0.00689850  0.50000000  1
  Rb  Rb5  1  0.50518588  0.49481412  0.50000000  1
  Zn  Zn0  1  0.02005352  0.38252233  0.36432931  1
  Zn  Zn1  1  0.74723683  0.38430225  0.63575795  1
  Zn  Zn2  1  0.61747767  0.97994648  0.63567069  1
  Zn  Zn3  1  0.61569775  0.25276317  0.36424205  1
  Sn  Sn0  1  0.99856264  0.00143736  0.00000000  1
  Sn  Sn1  1  0.96785827  0.69082088  0.27649080  1
  Sn  Sn2  1  0.96466544  0.24401198  0.72433173  1
  Sn  Sn3  1  0.75598802  0.03533456  0.27566827  1
  Sn  Sn4  1  0.30917912  0.03214173  0.72350920  1
  S  S0  1  0.16147563  0.65511601  0.22677086  1
  S  S1  1  0.87556401  0.38565884  0.77979809  1
  S  S2  1  0.87958667  0.65598254  0.50574114  1
  S  S3  1  0.16152749  0.39092359  0.49682712  1
  S  S4  1  0.60907641  0.83847251  0.50317288  1
  S  S5  1  0.34401746  0.12041333  0.49425886  1
  S  S6  1  0.61434116  0.12443599  0.22020191  1
  S  S7  1  0.34488399  0.83852437  0.77322914  1
  S  S8  1  0.13144694  0.98728785  0.14505279  1
  S  S9  1  0.13054912  0.27782155  0.85612439  1
  S  S10  1  0.72217845  0.86945088  0.14387561  1
  S  S11  1  0.01271215  0.86855306  0.85494721  1
  S  S12  1  0.74348158  0.52109312  0.22094395  1
  S  S13  1  0.74632661  0.96534134  0.77517597  1
  S  S14  1  0.03465866  0.25367339  0.22482403  1
  S  S15  1  0.47890688  0.25651842  0.77905605  1
  S  S16  1  0.74990636  0.25009364  0.50000000  1
loop_
_geom_bond_atom_site_label_1
_geom_bond_atom_site_label_2
_geom_bond_distance
_geom_bond_site_symmetry_2
Rb0 S3 3.515277 1_555
Rb0 S4 3.515277 1_555
Rb0 S0 3.538578 1_555
Rb0 S7 3.538578 1_555
Rb0 S5 3.559467 1_565
Rb0 S2 3.559467 1_455
Rb0 S1 3.618145 1_455
Rb0 S6 3.618145 1_565
Rb1 S15 3.331188 1_555
Rb1 S12 3.331188 1_556
Rb2 S0 3.251934 1_556
Rb2 S6 3.310217 1_566
Rb2 S13 3.327429 1_555
Rb2 S7 3.401454 1_555
Rb2 S1 3.502821 1_565
Rb2 S15 3.600700 1_565
Rb2 S10 3.829054 1_556
Rb3 S7 3.251934 1_554
Rb3 S1 3.310217 1_454
Rb3 S14 3.327429 1_555
Rb3 S0 3.401454 1_555
Rb3 S6 3.502821 1_455
Rb3 S12 3.600700 1_455
Rb3 S9 3.829054 1_554
Rb4 S2 3.288522 1_545
Rb4 S5 3.288523 1_655
Rb4 S13 3.393686 1_545
Rb4 S14 3.393686 1_655
Rb4 S3 3.487756 1_655
Rb4 S4 3.487756 1_545
Rb5 S4 3.276558 1_555
Rb5 S3 3.276558 1_555
Rb5 S5 3.441632 1_555
Rb5 S2 3.441632 1_555
Rb5 S12 3.464050 1_555
Rb5 S15 3.464050 1_555
S0 Zn0 2.342227 1_555
S0 Sn1 2.378038 1_455
S1 Zn1 2.339367 1_555
S1 Sn2 2.402067 1_555
S2 Zn1 2.338246 1_555
S2 Sn1 2.386365 1_555
S3 Zn0 2.331829 1_555
S3 Sn2 2.381297 1_455
S4 Zn2 2.331829 1_555
S4 Sn3 2.381297 1_565
S5 Zn3 2.338246 1_555
S5 Sn4 2.386365 1_555
S6 Zn3 2.339367 1_555
S6 Sn3 2.402067 1_555
S7 Zn2 2.342227 1_555
S7 Sn4 2.378038 1_565
S8 Sn0 2.429246 1_465
S8 Sn1 2.484223 1_455
S9 Sn0 2.418801 1_456
S9 Sn2 2.480570 1_455
S10 Sn0 2.418801 1_565
S10 Sn3 2.480570 1_565
S11 Sn0 2.429246 1_466
S11 Sn4 2.484223 1_565
S12 Zn3 2.360816 1_555
S12 Sn1 2.387201 1_555
S13 Zn2 2.348558 1_555
S13 Sn2 2.379929 1_565
S14 Zn0 2.348558 1_555
S14 Sn3 2.379929 1_455
S15 Zn1 2.360816 1_555
S15 Sn4 2.387201 1_555
S16 Zn1 2.326744 1_555
S16 Zn3 2.326744 1_555
S16 Zn0 2.339669 1_655
S16 Zn2 2.339669 1_545
